# Generated by pormake.
# Topology zzz, (3,6)-cn, num edge types: 1
# Building blocks:
#     Node 0, Type 0, BuildingBlock: CUQRIR_clean_linker_1, # of connection points: 3
#     Node 1, Type 0, BuildingBlock: CUQRIR_clean_linker_1, # of connection points: 3
#     Node 2, Type 0, BuildingBlock: CUQRIR_clean_linker_1, # of connection points: 3
#     Node 3, Type 0, BuildingBlock: CUQRIR_clean_linker_1, # of connection points: 3
#     Node 4, Type 0, BuildingBlock: CUQRIR_clean_linker_1, # of connection points: 3
#     Node 5, Type 0, BuildingBlock: CUQRIR_clean_linker_1, # of connection points: 3
#     Node 6, Type 0, BuildingBlock: CUQRIR_clean_linker_1, # of connection points: 3
#     Node 7, Type 0, BuildingBlock: CUQRIR_clean_linker_1, # of connection points: 3
#     Node 8, Type 1, BuildingBlock: PAMTUU_clean_sbu_0, # of connection points: 6
#     Node 9, Type 1, BuildingBlock: PAMTUU_clean_sbu_0, # of connection points: 6
#     Node 10, Type 1, BuildingBlock: PAMTUU_clean_sbu_0, # of connection points: 6
#     Node 11, Type 1, BuildingBlock: PAMTUU_clean_sbu_0, # of connection points: 6
#     Edge 12, Type (0, 1), BuildingBlock: XUDNAN_clean_linker_2, # of connection points: 2
#     Edge 13, Type (0, 1), BuildingBlock: XUDNAN_clean_linker_2, # of connection points: 2
#     Edge 14, Type (0, 1), BuildingBlock: XUDNAN_clean_linker_2, # of connection points: 2
#     Edge 15, Type (0, 1), BuildingBlock: XUDNAN_clean_linker_2, # of connection points: 2
#     Edge 16, Type (0, 1), BuildingBlock: XUDNAN_clean_linker_2, # of connection points: 2
#     Edge 17, Type (0, 1), BuildingBlock: XUDNAN_clean_linker_2, # of connection points: 2
#     Edge 18, Type (0, 1), BuildingBlock: XUDNAN_clean_linker_2, # of connection points: 2
#     Edge 19, Type (0, 1), BuildingBlock: XUDNAN_clean_linker_2, # of connection points: 2
#     Edge 20, Type (0, 1), BuildingBlock: XUDNAN_clean_linker_2, # of connection points: 2
#     Edge 21, Type (0, 1), BuildingBlock: XUDNAN_clean_linker_2, # of connection points: 2
#     Edge 22, Type (0, 1), BuildingBlock: XUDNAN_clean_linker_2, # of connection points: 2
#     Edge 23, Type (0, 1), BuildingBlock: XUDNAN_clean_linker_2, # of connection points: 2
#     Edge 24, Type (0, 1), BuildingBlock: XUDNAN_clean_linker_2, # of connection points: 2
#     Edge 25, Type (0, 1), BuildingBlock: XUDNAN_clean_linker_2, # of connection points: 2
#     Edge 26, Type (0, 1), BuildingBlock: XUDNAN_clean_linker_2, # of connection points: 2
#     Edge 27, Type (0, 1), BuildingBlock: XUDNAN_clean_linker_2, # of connection points: 2
#     Edge 28, Type (0, 1), BuildingBlock: XUDNAN_clean_linker_2, # of connection points: 2
#     Edge 29, Type (0, 1), BuildingBlock: XUDNAN_clean_linker_2, # of connection points: 2
#     Edge 30, Type (0, 1), BuildingBlock: XUDNAN_clean_linker_2, # of connection points: 2
#     Edge 31, Type (0, 1), BuildingBlock: XUDNAN_clean_linker_2, # of connection points: 2
#     Edge 32, Type (0, 1), BuildingBlock: XUDNAN_clean_linker_2, # of connection points: 2
#     Edge 33, Type (0, 1), BuildingBlock: XUDNAN_clean_linker_2, # of connection points: 2
#     Edge 34, Type (0, 1), BuildingBlock: XUDNAN_clean_linker_2, # of connection points: 2
#     Edge 35, Type (0, 1), BuildingBlock: XUDNAN_clean_linker_2, # of connection points: 2
# Relax obj value: 0.242
# Max RMSD: 0.229
# Mean RMSD: 0.120
data_MOF--net-zzz--node1-PAMTUU_clean_sbu_0--node2-CUQRIR_clean_linker_1--edge1-XUDNAN_clean_linker_2
_symmetry_space_group_name_H-M    P1
_symmetry_Int_Tables_number       1
_symmetry_cell_setting            triclinic
loop_
_symmetry_equiv_pos_as_xyz
'x, y, z'
_cell_length_a     46.429934
_cell_length_b     51.021206
_cell_length_c     13.960127
_cell_angle_alpha  102.47418
_cell_angle_beta   90.145651
_cell_angle_gamma 91.172476
loop_
_atom_site_label
_atom_site_type_symbol
_atom_site_fract_x
_atom_site_fract_y
_atom_site_fract_z
_atom_type_partial_charge
C0 C 0.75804 0.50681 0.4806 0.0
N1 N 0.7874 0.50837 0.48341 0.0
N2 N 0.74763 0.5088 0.39049 0.0
C3 C 0.73968 0.50378 0.56586 0.0
C4 C 0.77193 0.51102 0.33867 0.0
N5 N 0.79567 0.51087 0.39482 0.0
C6 C 0.77265 0.51019 0.23017 0.0
H7 H 0.73663 0.4821 0.56489 0.0
H8 H 0.71823 0.51264 0.56108 0.0
H9 H 0.75041 0.51348 0.63606 0.0
H10 H 0.76965 0.53078 0.21831 0.0
H11 H 0.75505 0.49703 0.19134 0.0
H12 H 0.79354 0.50289 0.19758 0.0
C13 C 1.02778 0.72792 0.49681 0.0
N14 N 1.03281 0.75445 0.5027 0.0
N15 N 0.0384 0.71329 0.41173 0.0
C16 C 1.01097 0.71638 0.57041 0.0
C17 C 0.05003 0.7321 0.36674 0.0
N18 N 0.04647 0.75704 0.4217 0.0
C19 C 0.06377 0.72636 0.26709 0.0
H20 H 1.02606 0.70662 0.6129 0.0
H21 H 0.99539 0.70079 0.53217 0.0
H22 H 0.99933 0.73207 0.62244 0.0
H23 H 0.08191 0.74069 0.26488 0.0
H24 H 0.04763 0.729 0.21139 0.0
H25 H 0.07191 0.7056 0.24792 0.0
C26 C 0.81224 0.00504 0.46515 0.0
N27 N 0.78878 0.02034 0.49572 0.0
N28 N 0.83042 0.01752 0.41135 0.0
C29 C 0.81667 0.9775 0.48336 0.0
C30 C 0.81752 0.04111 0.4126 0.0
N31 N 0.79245 0.0428 0.46277 0.0
C32 C 0.83037 0.06325 0.36909 0.0
H33 H 0.82822 0.9794 0.55428 0.0
H34 H 0.8299 0.9654 0.42458 0.0
H35 H 0.79567 0.9671 0.48813 0.0
H36 H 0.85424 0.06347 0.37432 0.0
H37 H 0.82237 0.08313 0.40694 0.0
H38 H 0.82432 0.05973 0.29035 0.0
C39 C 0.551 0.78056 0.24849 0.0
N40 N 0.54419 0.75424 0.24153 0.0
N41 N 0.53906 0.78971 0.17313 0.0
C42 C 0.5704 0.79699 0.32603 0.0
C43 C 0.52463 0.76788 0.12036 0.0
N44 N 0.52771 0.74645 0.16203 0.0
C45 C 0.50566 0.76807 0.03307 0.0
H46 H 0.55722 0.80653 0.38972 0.0
H47 H 0.58183 0.81304 0.29772 0.0
H48 H 0.58639 0.78408 0.3516 0.0
H49 H 0.51905 0.7642 0.96596 0.0
H50 H 0.49557 0.78791 0.03978 0.0
H51 H 0.48856 0.75222 0.0247 0.0
C52 C 0.29897 0.50936 0.24047 0.0
N53 N 0.2779 0.52588 0.22219 0.0
N54 N 0.31872 0.52296 0.30646 0.0
C55 C 0.29887 0.47963 0.20062 0.0
C56 C 0.30867 0.54828 0.32733 0.0
N57 N 0.28391 0.55008 0.27741 0.0
C58 C 0.32194 0.57078 0.40348 0.0
H59 H 0.32008 0.4711 0.21218 0.0
H60 H 0.29343 0.47506 0.12124 0.0
H61 H 0.28202 0.47005 0.23867 0.0
H62 H 0.31771 0.567 0.47758 0.0
H63 H 0.31314 0.5905 0.39857 0.0
H64 H 0.34563 0.57145 0.39394 0.0
C65 C 1.03442 0.26233 0.1759 0.0
N66 N 1.02536 0.23662 0.16979 0.0
N67 N 1.01964 0.27919 0.2463 0.0
C68 C 0.05876 0.2708 0.11794 0.0
C69 C 1.00138 0.26278 0.28277 0.0
N70 N 1.00476 0.23697 0.2359 0.0
C71 C 0.98199 0.27175 0.36919 0.0
H72 H 0.0789 0.27225 0.16192 0.0
H73 H 0.05483 0.29082 0.10224 0.0
H74 H 0.06173 0.25595 0.04802 0.0
H75 H 0.97593 0.293 0.37601 0.0
H76 H 0.9936 0.26997 0.43699 0.0
H77 H 0.96223 0.2589 0.36261 0.0
C78 C 0.26631 0.98947 0.20087 0.0
N79 N 0.29377 0.98003 0.19781 0.0
N80 N 0.24945 0.97918 0.26503 0.0
C81 C 0.2557 0.00805 0.13925 0.0
C82 C 0.26787 0.96323 0.30058 0.0
N83 N 0.29439 0.96377 0.26039 0.0
C84 C 0.26105 0.94964 0.38439 0.0
H85 H 0.25982 0.02912 0.17856 0.0
H86 H 0.23218 0.00506 0.12551 0.0
H87 H 0.26728 0.00469 0.06833 0.0
H88 H 0.24769 0.93133 0.35635 0.0
H89 H 0.24885 0.96321 0.44233 0.0
H90 H 0.2805 0.94312 0.41818 0.0
C91 C 0.53701 0.22475 0.47686 0.0
N92 N 0.53963 0.25189 0.49729 0.0
N93 N 0.54556 0.21467 0.55497 0.0
C94 C 0.52423 0.20852 0.38313 0.0
C95 C 0.55371 0.23701 0.62279 0.0
N96 N 0.55008 0.2595 0.58774 0.0
C97 C 0.56753 0.23699 0.72041 0.0
H98 H 0.5122 0.19066 0.39658 0.0
H99 H 0.54184 0.2017 0.33066 0.0
H100 H 0.50952 0.22084 0.34908 0.0
H101 H 0.58224 0.25469 0.74301 0.0
H102 H 0.57985 0.21842 0.71726 0.0
H103 H 0.55058 0.23818 0.77694 0.0
Tb104 Tb 1.01064 1.00017 0.7408 0.0
Tb105 Tb 0.06188 0.98951 0.88961 0.0
C106 C 0.99574 0.99513 0.95828 0.0
C107 C 0.97167 0.02839 0.55327 0.0
C108 C 0.96809 0.06853 0.44283 0.0
C109 C 0.94533 0.06409 0.50416 0.0
C110 C 0.94712 0.04419 0.5587 0.0
C111 C 0.99391 0.03198 0.48891 0.0
C112 C 0.99206 0.05175 0.43393 0.0
C113 C 0.97408 0.00908 0.61771 0.0
O114 O 1.02094 0.03879 0.83636 0.0
O115 O 0.06719 0.03141 0.88086 0.0
O116 O 0.08036 0.98178 0.74197 0.0
O117 O 0.05193 0.00965 0.67725 0.0
O118 O 0.08426 1.00045 0.02399 0.0
O119 O 0.09727 0.96663 0.91278 0.0
O120 O 0.03715 0.95226 0.85679 0.0
O121 O 1.01469 0.95675 0.7144 0.0
O122 O 0.98674 0.99171 0.86655 0.0
O123 O 1.02339 0.99794 0.98155 0.0
C124 C 0.04617 0.04775 0.87375 0.0
O125 O 0.99415 0.99128 0.59704 0.0
O126 O 0.9728 0.01916 0.71164 0.0
C127 C 0.07578 0.99605 0.67581 0.0
C128 C 0.09737 0.96076 0.07483 0.0
C129 C 0.08419 0.92065 0.17974 0.0
C130 C 0.10557 0.91652 0.10722 0.0
C131 C 0.11216 0.93644 0.05552 0.0
C132 C 0.07757 0.96564 0.15237 0.0
C133 C 0.07113 0.94582 0.20443 0.0
C134 C 0.09946 0.97872 1.00489 0.0
C135 C 1.02282 0.94215 0.77597 0.0
H136 H 0.92664 0.07672 0.51349 0.0
H137 H 0.92961 0.04162 0.60726 0.0
H138 H 1.01305 0.01996 0.4825 0.0
H139 H 1.0097 0.05426 0.3859 0.0
H140 H 0.11602 0.89736 0.08639 0.0
H141 H 0.12756 0.93221 0.99628 0.0
H142 H 0.06592 0.98423 0.16984 0.0
H143 H 0.05514 0.94988 0.2618 0.0
Tb144 Tb 0.53687 0.97985 0.75773 0.0
Tb145 Tb 0.54771 0.02231 0.96332 0.0
C146 C 0.54358 0.96059 0.95228 0.0
C147 C 0.50991 0.92067 0.57849 0.0
C148 C 0.45599 0.89557 0.54162 0.0
C149 C 0.46884 0.89838 0.63475 0.0
C150 C 0.49562 0.91144 0.65368 0.0
C151 C 0.50004 0.91249 0.48176 0.0
C152 C 0.47324 0.89956 0.46295 0.0
C153 C 0.52907 0.94426 0.60301 0.0
O154 O 0.49541 0.98023 0.83773 0.0
O155 O 0.50145 0.02218 0.93464 0.0
O156 O 0.55197 0.04762 0.85753 0.0
O157 O 0.53097 0.0193 0.72293 0.0
O158 O 0.5628 0.02793 0.10792 0.0
O159 O 0.54066 0.05952 0.05858 0.0
O160 O 0.59141 0.012 0.90487 0.0
O161 O 0.57997 0.99647 0.74207 0.0
O162 O 0.55255 0.95705 0.86179 0.0
O163 O 0.5345 0.98413 0.99731 0.0
C164 C 0.48473 1.00127 0.89854 0.0
O165 O 0.51562 0.96696 0.62294 0.0
O166 O 0.54951 0.94358 0.66634 0.0
C167 C 0.54102 0.04313 0.76849 0.0
C168 C 0.57371 0.072 0.19141 0.0
C169 C 0.61727 0.10319 0.3044 0.0
C170 C 0.61044 0.10724 0.21039 0.0
C171 C 0.58886 0.09159 0.1538 0.0
C172 C 0.57888 0.06953 0.28775 0.0
C173 C 0.60052 0.08487 0.3437 0.0
C174 C 0.55383 0.05251 0.13137 0.0
C175 C 0.59915 0.00538 0.81152 0.0
H176 H 0.45627 0.89479 0.69613 0.0
H177 H 0.5032 0.91735 0.72892 0.0
H178 H 0.51103 0.91929 0.4229 0.0
H179 H 0.46427 0.89714 0.38977 0.0
H180 H 0.6231 0.12116 0.17825 0.0
H181 H 0.58503 0.09388 0.07949 0.0
H182 H 0.56728 0.05452 0.31776 0.0
H183 H 0.60559 0.08076 0.41474 0.0
Tb184 Tb 0.50225 0.4932 0.95816 0.0
Tb185 Tb 0.54475 0.51237 0.79411 0.0
C186 C 0.47568 0.50543 0.76486 0.0
C187 C 0.48239 0.45017 0.12887 0.0
C188 C 0.498 0.40447 0.20082 0.0
C189 C 0.46942 0.40758 0.17195 0.0
C190 C 0.46173 0.43019 0.13605 0.0
C191 C 0.51068 0.44751 0.16089 0.0
C192 C 0.51835 0.42504 0.19662 0.0
C193 C 0.47502 0.47254 0.08135 0.0
O194 O 0.50837 0.46121 0.83117 0.0
O195 O 0.55384 0.46988 0.7856 0.0
O196 O 0.57068 0.51636 0.92976 0.0
O197 O 0.54639 0.48497 0.99486 0.0
O198 O 0.55664 0.51098 0.64728 0.0
O199 O 0.57908 0.53709 0.76698 0.0
O200 O 0.5206 0.54734 0.86141 0.0
O201 O 0.50586 0.53668 1.00598 0.0
O202 O 0.47196 0.50632 0.85931 0.0
O203 O 0.50163 0.504 0.72497 0.0
C204 C 0.53355 0.45266 0.7983 0.0
O205 O 0.491 0.49433 0.10485 0.0
O206 O 0.47044 0.4659 0.98707 0.0
C207 C 0.56937 0.50021 0.99182 0.0
C208 C 0.57103 0.55438 0.62724 0.0
C209 C 0.56632 0.6029 0.56138 0.0
C210 C 0.59049 0.58659 0.53705 0.0
C211 C 0.59288 0.56263 0.57027 0.0
C212 C 0.5464 0.57006 0.64829 0.0
C213 C 0.5441 0.59405 0.61594 0.0
C214 C 0.575 0.53103 0.67243 0.0
C215 C 0.5106 0.55423 0.95091 0.0
H216 H 0.45324 0.39209 0.17358 0.0
H217 H 0.43981 0.43172 0.1114 0.0
H218 H 0.5271 0.46256 0.15654 0.0
H219 H 0.54043 0.42363 0.21988 0.0
H220 H 0.608 0.59284 0.49539 0.0
H221 H 0.61214 0.55091 0.55368 0.0
H222 H 0.52921 0.56406 0.69179 0.0
H223 H 0.52495 0.60581 0.63424 0.0
Tb224 Tb 0.03725 0.52019 0.7423 0.0
Tb225 Tb 1.03189 0.47662 0.87866 0.0
C226 C 1.02564 0.53826 0.97079 0.0
C227 C 0.06164 0.5701 0.59116 0.0
C228 C 0.10481 0.60061 0.52202 0.0
C229 C 0.09896 0.60487 0.62316 0.0
C230 C 0.07765 0.58955 0.65766 0.0
C231 C 0.06573 0.56749 0.49024 0.0
C232 C 0.08714 0.58253 0.45583 0.0
C233 C 0.0418 0.55104 0.62334 0.0
O234 O 0.08183 0.5125 0.78616 0.0
O235 O 0.07091 0.49991 0.92948 0.0
O236 O 0.05073 0.45768 0.74013 0.0
O237 O 1.02578 0.48119 0.65003 0.0
O238 O 0.05423 0.45212 0.95594 0.0
O239 O 1.00851 0.44727 0.93145 0.0
O240 O 0.98855 0.47702 0.81218 0.0
O241 O 0.99091 0.51742 0.7651 0.0
O242 O 0.03673 0.54417 0.89108 0.0
O243 O 1.01892 0.51351 0.97772 0.0
C244 C 0.08981 0.50833 0.8728 0.0
O245 O 0.04979 0.52613 0.6044 0.0
O246 O 1.03041 0.55801 0.71011 0.0
C247 C 0.0388 0.45923 0.65703 0.0
C248 C 1.02524 0.44286 0.08335 0.0
C249 C 0.99246 0.46112 0.25047 0.0
C250 C 0.98711 0.43532 0.19141 0.0
C251 C 1.00367 0.42616 0.10861 0.0
C252 C 1.03436 0.46588 0.1522 0.0
C253 C 1.01834 0.47465 0.23701 0.0
C254 C 1.03057 0.44095 0.97894 0.0
C255 C 0.97585 0.49682 0.78202 0.0
H256 H 0.11209 0.61882 0.67587 0.0
H257 H 0.07463 0.59206 0.73601 0.0
H258 H 0.05339 0.55266 0.43795 0.0
H259 H 0.09123 0.57837 0.37771 0.0
H260 H 0.9679 0.4237 0.19978 0.0
H261 H 0.99673 0.40805 0.05698 0.0
H262 H 0.05147 0.47886 0.13511 0.0
H263 H 1.02398 0.49388 0.28413 0.0
H264 H 0.20576 0.94615 0.30454 0.0
H265 H 0.22825 0.0298 0.32075 0.0
H266 H 0.18356 0.04305 0.41344 0.0
H267 H 0.12781 0.95021 0.30448 0.0
H268 H 0.12249 0.92763 0.38636 0.0
H269 H 0.15319 0.92407 0.30601 0.0
H270 H 0.18793 0.92836 0.45357 0.0
H271 H 0.15761 0.93129 0.53503 0.0
H272 H 0.18563 0.95692 0.55479 0.0
H273 H 0.13632 0.04698 0.51365 0.0
H274 H 0.09533 0.04173 0.62205 0.0
H275 H 0.10923 0.95611 0.5672 0.0
C276 C 0.2014 0.96729 0.32736 0.0
C277 C 0.22087 0.98686 0.30417 0.0
C278 C 0.21363 0.01428 0.33444 0.0
C279 C 0.18833 0.02201 0.38856 0.0
C280 C 0.17055 1.00219 0.41444 0.0
C281 C 0.17708 0.97537 0.38567 0.0
C282 C 0.15652 0.95811 0.43191 0.0
C283 C 0.13896 0.93881 0.35246 0.0
C284 C 0.1729 0.94277 0.49774 0.0
C285 C 0.13743 0.97933 0.49208 0.0
C286 C 0.14533 0.0046 0.47887 0.0
C287 C 0.13021 0.02727 0.52464 0.0
C288 C 0.10683 0.0241 0.58599 0.0
C289 C 0.09909 0.99858 0.60394 0.0
C290 C 0.11471 0.97594 0.55579 0.0
H291 H 0.52831 0.1955 0.71437 0.0
H292 H 0.56256 0.17063 0.42093 0.0
H293 H 0.5614 0.1235 0.43875 0.0
H294 H 0.5742 0.15205 0.81668 0.0
H295 H 0.54772 0.14588 0.90389 0.0
H296 H 0.54789 0.17705 0.86308 0.0
H297 H 0.49455 0.16837 0.80833 0.0
H298 H 0.49428 0.13707 0.84829 0.0
H299 H 0.48444 0.13756 0.72372 0.0
H300 H 0.55554 0.07845 0.48957 0.0
H301 H 0.55246 0.04068 0.57488 0.0
H302 H 0.52991 0.09618 0.84415 0.0
C303 C 0.53602 0.18028 0.65424 0.0
C304 C 0.54519 0.18695 0.56557 0.0
C305 C 0.5546 0.1661 0.48837 0.0
C306 C 0.55433 0.13924 0.49831 0.0
C307 C 0.54547 0.13349 0.58713 0.0
C308 C 0.53708 0.15356 0.66447 0.0
C309 C 0.53079 0.14249 0.75497 0.0
C310 C 0.55138 0.15511 0.83965 0.0
C311 C 0.49913 0.14662 0.78559 0.0
C312 C 0.53685 0.113 0.7165 0.0
C313 C 0.54464 0.1081 0.61884 0.0
C314 C 0.55003 0.08216 0.56633 0.0
C315 C 0.548 0.0608 0.61519 0.0
C316 C 0.54119 0.06555 0.71617 0.0
C317 C 0.5355 0.09202 0.76714 0.0
H318 H 0.37726 0.53051 0.31409 0.0
H319 H 0.30623 0.49411 0.4416 0.0
H320 H 0.33907 0.4843 0.56914 0.0
H321 H 0.43332 0.48297 0.3643 0.0
H322 H 0.4609 0.50894 0.39025 0.0
H323 H 0.43238 0.51089 0.30437 0.0
H324 H 0.41987 0.55804 0.40503 0.0
H325 H 0.44805 0.55611 0.49194 0.0
H326 H 0.41159 0.56229 0.53351 0.0
H327 H 0.37825 0.48359 0.69448 0.0
H328 H 0.42188 0.48681 0.79776 0.0
H329 H 0.46958 0.52132 0.58644 0.0
C330 C 0.36896 0.5197 0.36721 0.0
C331 C 0.33922 0.51257 0.36702 0.0
C332 C 0.32895 0.49913 0.43917 0.0
C333 C 0.34746 0.49372 0.51232 0.0
C334 C 0.37647 0.50159 0.51214 0.0
C335 C 0.38737 0.51378 0.44021 0.0
C336 C 0.41935 0.52067 0.45852 0.0
C337 C 0.43756 0.50493 0.37437 0.0
C338 C 0.42504 0.55108 0.47312 0.0
C339 C 0.42451 0.51116 0.55338 0.0
C340 C 0.39937 0.50034 0.58299 0.0
C341 C 0.39812 0.49163 0.671 0.0
C342 C 0.42309 0.49372 0.72975 0.0
C343 C 0.44941 0.50418 0.70068 0.0
C344 C 0.44999 0.51291 0.61057 0.0
H345 H 0.04067 0.30233 0.42496 0.0
H346 H 1.00897 0.3193 0.15383 0.0
H347 H 1.01344 0.36831 0.22523 0.0
H348 H 1.00364 0.35322 0.58361 0.0
H349 H 1.03212 0.36115 0.67389 0.0
H350 H 1.02885 0.3279 0.59784 0.0
H351 H 0.08149 0.33146 0.53969 0.0
H352 H 0.08496 0.36473 0.61592 0.0
H353 H 0.09232 0.3593 0.48649 0.0
H354 H 1.01776 0.41522 0.33311 0.0
H355 H 1.0222 0.45618 0.46548 0.0
H356 H 0.05201 0.40778 0.66482 0.0
C357 C 1.0352 0.31651 0.38059 0.0
C358 C 1.02477 0.30742 0.28403 0.0
C359 C 1.01737 0.32621 0.22759 0.0
C360 C 1.01978 0.35393 0.26767 0.0
C361 C 1.02979 0.36234 0.36404 0.0
C362 C 0.03758 0.34413 0.41943 0.0
C363 C 0.04641 0.35816 0.52244 0.0
C364 C 1.02657 0.3496 0.59892 0.0
C365 C 0.07819 0.35311 0.54226 0.0
C366 C 0.04191 0.38711 0.51723 0.0
C367 C 1.03241 0.38919 0.42535 0.0
C368 C 1.02543 0.41389 0.40498 0.0
C369 C 1.02801 0.43702 0.48063 0.0
C370 C 0.03768 0.43524 0.57534 0.0
C371 C 0.04496 0.40992 0.59296 0.0
H372 H 0.83974 0.01181 0.21609 0.0
H373 H 0.88083 0.00436 0.48698 0.0
H374 H 0.92766 0.99643 0.40019 0.0
H375 H 0.88205 0.96126 0.04974 0.0
H376 H 0.88318 0.98036 0.95517 0.0
H377 H 0.85304 0.9833 0.03758 0.0
H378 H 0.86175 0.03478 0.08527 0.0
H379 H 0.89206 0.032 1.00375 0.0
H380 H 0.8966 0.04797 0.13145 0.0
H381 H 0.97119 0.99356 0.28418 0.0
H382 H 1.00605 0.99182 0.14965 0.0
H383 H 0.93625 1.00062 0.95246 0.0
C384 C 0.85854 0.00797 0.25653 0.0
C385 C 0.85657 0.00836 0.35826 0.0
C386 C 0.88171 1.00362 0.40896 0.0
C387 C 0.90843 0.99941 0.36025 0.0
C388 C 0.90976 0.99992 0.26042 0.0
C389 C 0.88531 1.00373 0.20894 0.0
C390 C 0.89247 1.00406 0.10284 0.0
C391 C 0.87675 0.98086 0.03216 0.0
C392 C 0.88529 0.03132 0.07948 0.0
C393 C 0.92482 0.99993 0.10209 0.0
C394 C 0.93445 0.99776 0.1939 0.0
C395 C 0.96369 0.99491 0.21197 0.0
C396 C 0.98343 0.99402 0.13468 0.0
C397 C 0.97414 0.99584 0.03926 0.0
C398 C 0.94425 0.99881 0.0236 0.0
H399 H 0.55257 0.80695 1.00661 0.0
H400 H 0.52447 0.83405 0.30658 0.0
H401 H 0.52344 0.88076 0.28347 0.0
H402 H 0.59818 0.86445 0.9952 0.0
H403 H 0.58836 0.865 0.87067 0.0
H404 H 0.58735 0.83377 0.91112 0.0
H405 H 0.53389 0.82621 0.8569 0.0
H406 H 0.53474 0.8574 0.81617 0.0
H407 H 0.50816 0.85173 0.90376 0.0
H408 H 0.52493 0.92444 0.22746 0.0
H409 H 0.52857 0.96207 0.14284 0.0
H410 H 0.55508 0.90702 0.87675 0.0
C411 C 0.5462 0.82279 0.06715 0.0
C412 C 0.5389 0.81699 0.15889 0.0
C413 C 0.53067 0.83818 0.23655 0.0
C414 C 0.52986 0.86472 0.2238 0.0
C415 C 0.53724 0.86982 0.13268 0.0
C416 C 0.5452 0.84947 0.05549 0.0
C417 C 0.55176 0.86043 0.96475 0.0
C418 C 0.58329 0.85563 0.93363 0.0
C419 C 0.53089 0.84821 0.88041 0.0
C420 C 0.54636 0.89012 1.0031 0.0
C421 C 0.53796 0.89504 0.10014 0.0
C422 C 0.53154 0.92082 0.15152 0.0
C423 C 0.53369 0.94211 0.10262 0.0
C424 C 0.54223 0.93768 1.00302 0.0
C425 C 0.54867 0.91121 0.95298 0.0
H426 H 0.72051 0.54041 0.28415 0.0
H427 H 0.70856 0.46933 0.40324 0.0
H428 H 0.66122 0.46051 0.31899 0.0
H429 H 0.64439 0.56007 0.29024 0.0
H430 H 0.64655 0.57077 0.17553 0.0
H431 H 0.67803 0.57289 0.25284 0.0
H432 H 0.70607 0.54441 0.1083 0.0
H433 H 0.67464 0.54202 0.03073 0.0
H434 H 0.69179 0.51194 0.04753 0.0
H435 H 0.61647 0.45773 0.21241 0.0
H436 H 0.57735 0.46161 0.09757 0.0
H437 H 0.61821 0.53388 0.03987 0.0
C438 C 0.70774 0.52317 0.29338 0.0
C439 C 0.71826 0.50569 0.35164 0.0
C440 C 0.70083 0.48333 0.36137 0.0
C441 C 0.67398 0.47804 0.31274 0.0
C442 C 0.66466 0.49524 0.25393 0.0
C443 C 0.68094 0.51747 0.24447 0.0
C444 C 0.6665 0.53212 0.17343 0.0
C445 C 0.65838 0.56065 0.22617 0.0
C446 C 0.68591 0.53265 0.08474 0.0
C447 C 0.6397 0.51448 0.14325 0.0
C448 C 0.63907 0.49342 0.19125 0.0
C449 C 0.61674 0.47427 0.17519 0.0
C450 C 0.59445 0.47673 0.10947 0.0
C451 C 0.59426 0.49816 0.0592 0.0
C452 C 0.6175 0.51722 0.07649 0.0
H453 H 1.01567 0.69161 0.23339 0.0
H454 H 0.05075 0.6713 0.49491 0.0
H455 H 0.04515 0.62284 0.41747 0.0
H456 H 0.96601 0.6343 0.15685 0.0
H457 H 0.97435 0.63106 0.02884 0.0
H458 H 0.97659 0.66352 0.11126 0.0
H459 H 1.02961 0.66934 0.0601 0.0
H460 H 1.02747 0.63703 0.9773 0.0
H461 H 0.05522 0.64399 0.07044 0.0
H462 H 0.03774 0.57626 0.30454 0.0
H463 H 0.03534 0.53709 0.16383 0.0
H464 H 1.01068 0.58948 0.97245 0.0
C465 C 1.02212 0.67695 0.27438 0.0
C466 C 1.03365 0.6851 0.36997 0.0
C467 C 0.0415 0.66537 0.42203 0.0
C468 C 0.03846 0.63787 0.37844 0.0
C469 C 1.02773 0.63054 0.28258 0.0
C470 C 1.01998 0.64964 0.23107 0.0
C471 C 1.01214 0.63705 0.12581 0.0
C472 C 0.98038 0.64176 0.10448 0.0
C473 C 1.03232 0.64747 0.05423 0.0
C474 C 1.01719 0.60785 0.12504 0.0
C475 C 1.0254 0.60428 0.21659 0.0
C476 C 1.03144 0.57888 0.23269 0.0
C477 C 1.02985 0.55675 0.15262 0.0
C478 C 1.02294 0.56041 0.0576 0.0
C479 C 1.01609 0.58619 0.04443 0.0
H480 H 1.03413 0.20194 0.31441 0.0
H481 H 0.94954 0.21877 0.21577 0.0
H482 H 0.93061 0.17573 0.2498 0.0
H483 H 1.03143 0.13065 0.21033 0.0
H484 H 0.05113 0.12242 0.31076 0.0
H485 H 0.05718 0.15442 0.27848 0.0
H486 H 0.04553 0.1787 0.45726 0.0
H487 H 0.03955 0.14674 0.48945 0.0
H488 H 1.01177 0.17145 0.51066 0.0
H489 H 0.92162 0.13056 0.29529 0.0
H490 H 0.92237 0.08853 0.35641 0.0
H491 H 1.01348 0.10216 0.42456 0.0
C492 C 1.01159 0.19651 0.30102 0.0
C493 C 0.99303 0.21347 0.264 0.0
C494 C 0.96374 0.20598 0.24593 0.0
C495 C 0.953 0.18158 0.2641 0.0
C496 C 0.97202 0.16501 0.29956 0.0
C497 C 1.0007 0.17225 0.31801 0.0
C498 C 1.01675 0.15114 0.35634 0.0
C499 C 0.04051 0.13894 0.28471 0.0
C500 C 1.02911 0.1627 0.45955 0.0
C501 C 0.99251 0.13104 0.35878 0.0
C502 C 0.96695 0.13918 0.32473 0.0
C503 C 0.94152 0.12403 0.32223 0.0
C504 C 0.94213 0.10026 0.35755 0.0
C505 C 0.96797 0.092 0.39549 0.0
C506 C 0.99348 0.10753 0.39446 0.0
H507 H 0.32542 0.91837 0.21193 0.0
H508 H 0.3188 0.9944 0.41918 0.0
H509 H 0.35279 0.9791 0.53133 0.0
H510 H 0.33374 0.87572 0.38402 0.0
H511 H 0.36093 0.85506 0.31522 0.0
H512 H 0.33464 0.87084 0.25227 0.0
H513 H 0.3751 0.89341 0.17082 0.0
H514 H 0.40172 0.87757 0.23134 0.0
H515 H 0.40257 0.91357 0.24608 0.0
H516 H 0.38339 0.95482 0.62472 0.0
H517 H 0.42505 0.93161 0.66963 0.0
H518 H 0.41747 0.87258 0.39465 0.0
C519 C 0.33193 0.93191 0.27971 0.0
C520 C 0.31985 0.9575 0.30805 0.0
C521 C 0.32837 0.97486 0.39707 0.0
C522 C 0.34702 0.96611 0.46163 0.0
C523 C 0.35741 0.94019 0.43437 0.0
C524 C 0.35142 0.92381 0.34371 0.0
C525 C 0.36838 0.89818 0.3287 0.0
C526 C 0.34821 0.87349 0.31952 0.0
C527 C 0.38815 0.89557 0.23899 0.0
C528 C 0.38539 0.90322 0.42405 0.0
C529 C 0.37741 0.92691 0.48562 0.0
C530 C 0.39011 0.93634 0.57701 0.0
C531 C 0.4136 0.92264 0.60245 0.0
C532 C 0.42479 0.90034 0.53495 0.0
C533 C 0.40929 0.88947 0.44758 0.0
H534 H 0.57994 0.3028 0.54866 0.0
H535 H 0.52019 0.27767 0.75085 0.0
H536 H 0.5151 0.32476 0.83812 0.0
H537 H 0.61202 0.36137 0.73894 0.0
H538 H 0.61633 0.38205 0.65015 0.0
H539 H 0.6194 0.34611 0.61275 0.0
H540 H 0.58018 0.34486 0.48051 0.0
H541 H 0.5772 0.38074 0.51739 0.0
H542 H 0.54587 0.35943 0.51528 0.0
H543 H 0.51172 0.37297 0.89109 0.0
H544 H 0.50896 0.42152 0.90854 0.0
H545 H 0.5698 0.4184 0.67041 0.0
C546 C 0.56618 0.30737 0.61223 0.0
C547 C 0.55054 0.28673 0.64408 0.0
C548 C 0.53272 0.29322 0.72722 0.0
C549 C 0.52965 0.31987 0.77674 0.0
C550 C 0.54471 0.33982 0.74242 0.0
C551 C 0.56286 0.3341 0.66274 0.0
C552 C 0.57518 0.35986 0.63898 0.0
C553 C 0.60766 0.3625 0.66158 0.0
C554 C 0.56921 0.36129 0.53179 0.0
C555 C 0.55871 0.38078 0.71151 0.0
C556 C 0.54224 0.36852 0.77251 0.0
C557 C 0.52457 0.38287 0.84423 0.0
C558 C 0.52302 0.4105 0.85291 0.0
C559 C 0.5388 0.42374 0.78976 0.0
C560 C 0.55753 0.40879 0.71956 0.0
H561 H 0.26316 0.56681 0.45725 0.0
H562 H 0.25548 0.57705 0.15927 0.0
H563 H 0.21141 0.60355 0.20422 0.0
H564 H 0.19606 0.55253 0.48905 0.0
H565 H 0.19309 0.56931 0.6162 0.0
H566 H 0.2275 0.55857 0.56754 0.0
H567 H 0.24812 0.60716 0.62266 0.0
H568 H 0.21349 0.61816 0.67221 0.0
H569 H 0.23057 0.63437 0.58395 0.0
H570 H 0.16297 0.61831 0.27196 0.0
H571 H 0.1156 0.61874 0.35249 0.0
H572 H 0.15685 0.60047 0.60833 0.0
C573 C 0.25318 0.57612 0.40325 0.0
C574 C 0.26281 0.57051 0.30572 0.0
C575 C 0.24847 0.5816 0.23484 0.0
C576 C 0.22361 0.59675 0.26004 0.0
C577 C 0.21395 0.60106 0.35683 0.0
C578 C 0.22873 0.59138 0.42771 0.0
C579 C 0.21189 0.59446 0.52162 0.0
C580 C 0.20682 0.56711 0.55006 0.0
C581 C 0.22691 0.61476 0.60504 0.0
C582 C 0.18431 0.6055 0.49062 0.0
C583 C 0.18603 0.60989 0.39631 0.0
C584 C 0.16166 0.61582 0.34687 0.0
C585 C 0.13481 0.61591 0.39299 0.0
C586 C 0.13259 0.60979 0.48705 0.0
C587 C 0.1579 0.60612 0.53799 0.0
H588 H 0.09398 0.78526 0.38319 0.0
H589 H 1.00076 0.78316 0.37737 0.0
H590 H 1.00058 0.82665 0.3269 0.0
H591 H 0.1065 0.85872 0.46083 0.0
H592 H 0.13629 0.85773 0.37853 0.0
H593 H 0.12746 0.82874 0.42799 0.0
H594 H 0.12498 0.80123 0.24582 0.0
H595 H 0.13174 0.83131 0.20084 0.0
H596 H 0.09987 0.81101 0.16187 0.0
H597 H 1.01005 0.86954 0.27763 0.0
H598 H 1.02846 0.90807 0.21478 0.0
H599 H 0.11606 0.8818 0.23987 0.0
C600 C 0.07369 0.79415 0.37106 0.0
C601 C 0.0473 0.78145 0.38596 0.0
C602 C 1.02104 0.79316 0.36845 0.0
C603 C 1.02077 0.81773 0.33977 0.0
C604 C 0.04705 0.83001 0.32667 0.0
C605 C 0.07308 0.81853 0.34007 0.0
C606 C 0.09806 0.83503 0.31233 0.0
C607 C 0.11824 0.84563 0.40023 0.0
C608 C 0.11463 0.81867 0.22502 0.0
C609 C 0.0819 0.85768 0.2832 0.0
C610 C 0.05254 0.85441 0.29294 0.0
C611 C 1.03301 0.87247 0.27004 0.0
C612 C 0.04372 0.89443 0.2352 0.0
C613 C 0.07373 0.89817 0.22333 0.0
C614 C 0.09302 0.87951 0.24805 0.0
H615 H 0.77098 0.05825 0.30715 0.0
H616 H 0.76534 0.07159 0.62277 0.0
H617 H 0.72354 0.10097 0.61991 0.0
H618 H 0.74564 0.12785 0.28472 0.0
H619 H 0.72678 0.11299 0.17246 0.0
H620 H 0.75991 0.09876 0.20323 0.0
H621 H 0.73405 0.05238 0.18626 0.0
H622 H 0.70124 0.06633 0.15478 0.0
H623 H 0.702 0.04987 0.25679 0.0
H624 H 0.67689 0.11939 0.5774 0.0
H625 H 0.62962 0.12296 0.50025 0.0
H626 H 0.66837 0.10057 0.21313 0.0
C627 C 0.76181 0.06853 0.37586 0.0
C628 C 0.77125 0.06304 0.46501 0.0
C629 C 0.75819 0.07573 0.55379 0.0
C630 C 0.73476 0.09263 0.55273 0.0
C631 C 0.72541 0.09714 0.46257 0.0
C632 C 0.73892 0.08569 0.37584 0.0
C633 C 0.72255 0.09006 0.28736 0.0
C634 C 0.73975 0.10853 0.23381 0.0
C635 C 0.71447 0.06308 0.2174 0.0
C636 C 0.69646 0.10395 0.33702 0.0
C637 C 0.69873 0.10855 0.43826 0.0
C638 C 0.67522 0.11678 0.49856 0.0
C639 C 0.64844 0.11877 0.45419 0.0
C640 C 0.64547 0.11219 0.35071 0.0
C641 C 0.67018 0.10658 0.29221 0.0
H642 H 0.53529 0.71059 0.9916 0.0
H643 H 0.49082 0.72336 0.26899 0.0
H644 H 0.4763 0.67529 0.23622 0.0
H645 H 0.48161 0.65687 0.85783 0.0
H646 H 0.5097 0.63826 0.78661 0.0
H647 H 0.51253 0.67437 0.82211 0.0
H648 H 0.56192 0.67139 0.90366 0.0
H649 H 0.55975 0.63542 0.86726 0.0
H650 H 0.56531 0.65131 0.99447 0.0
H651 H 0.4749 0.62515 0.18829 0.0
H652 H 0.4824 0.57689 0.12078 0.0
H653 H 0.52608 0.59681 0.87029 0.0
C654 C 0.52146 0.7033 0.04294 0.0
C655 C 0.51404 0.72035 0.13257 0.0
C656 C 0.49652 0.71037 0.1999 0.0
C657 C 0.48818 0.68319 0.18173 0.0
C658 C 0.49698 0.66647 0.09465 0.0
C659 C 0.51268 0.67623 0.02514 0.0
C660 C 0.5211 0.65367 0.94093 0.0
C661 C 0.50529 0.65594 0.84627 0.0
C662 C 0.55395 0.65292 0.92592 0.0
C663 C 0.50993 0.62964 0.97828 0.0
C664 C 0.49554 0.63743 0.06592 0.0
C665 C 0.4854 0.61876 0.11825 0.0
C666 C 0.48996 0.59139 0.07975 0.0
C667 C 0.50461 0.58297 0.98988 0.0
C668 C 0.51439 0.60247 0.9384 0.0
H669 H 0.82785 0.4674 0.38259 0.0
H670 H 0.82876 0.54862 0.33758 0.0
H671 H 0.88156 0.54626 0.30822 0.0
H672 H 0.89422 0.47196 0.5157 0.0
H673 H 0.90338 0.43796 0.46222 0.0
H674 H 0.86608 0.44709 0.47416 0.0
H675 H 0.86023 0.42807 0.28456 0.0
H676 H 0.89792 0.42029 0.27611 0.0
H677 H 0.88302 0.44152 0.20161 0.0
H678 H 0.93411 0.53528 0.29268 0.0
H679 H 0.98135 0.51468 0.26569 0.0
H680 H 0.94639 0.44211 0.3419 0.0
C681 C 0.83929 0.4844 0.36472 0.0
C682 C 0.82481 0.50815 0.36157 0.0
C683 C 0.8399 0.53025 0.33871 0.0
C684 C 0.8697 0.52909 0.32291 0.0
C685 C 0.88366 0.50569 0.33079 0.0
C686 C 0.86891 0.48366 0.35032 0.0
C687 C 0.88892 0.46111 0.35681 0.0
C688 C 0.88801 0.45411 0.45833 0.0
C689 C 0.88212 0.43629 0.27487 0.0
C690 C 0.9174 0.47414 0.34053 0.0
C691 C 0.91394 0.49974 0.32514 0.0
C692 C 0.93709 0.51521 0.30436 0.0
C693 C 0.96413 0.50339 0.2913 0.0
C694 C 0.96779 0.47639 0.30021 0.0
C695 C 0.94438 0.46249 0.33221 0.0
H696 H 0.99498 0.19841 0.04616 0.0
H697 H 0.08019 0.2195 0.16732 0.0
H698 H 0.09658 0.17361 0.09292 0.0
H699 H 0.9916 0.13498 0.09813 0.0
H700 H 0.97168 0.11926 0.98935 0.0
H701 H 0.96838 0.15464 0.03913 0.0
H702 H 0.98335 0.16476 0.87148 0.0
H703 H 0.98658 0.12931 0.82138 0.0
H704 H 1.01664 0.15185 0.81599 0.0
H705 H 0.10159 0.12373 0.02054 0.0
H706 H 0.09559 0.07501 0.95177 0.0
H707 H 1.00626 0.08698 0.88215 0.0
C708 C 1.01732 0.19349 0.05378 0.0
C709 C 0.03658 0.21241 0.11018 0.0
C710 C 0.06547 0.20536 0.12172 0.0
C711 C 0.07479 0.17932 0.08062 0.0
C712 C 0.05489 0.16075 0.02816 0.0
C713 C 1.02679 0.16764 0.01398 0.0
C714 C 1.00894 0.14363 0.96181 0.0
C715 C 0.98368 0.1378 0.02594 0.0
C716 C 0.99826 0.14763 0.86171 0.0
C717 C 1.03122 0.12197 0.94999 0.0
C718 C 0.05763 0.13218 0.98817 0.0
C719 C 0.0811 0.11561 0.98928 0.0
C720 C 0.07746 0.08793 0.95021 0.0
C721 C 0.05051 0.07709 0.91093 0.0
C722 C 1.02725 0.09453 0.9106 0.0
H723 H 0.33352 0.9473 0.08822 0.0
H724 H 0.31274 0.03077 0.19658 0.0
H725 H 0.35723 0.04457 0.12183 0.0
H726 H 0.40921 0.95503 0.13367 0.0
H727 H 0.41987 0.93128 0.02486 0.0
H728 H 0.38523 0.92764 0.07877 0.0
H729 H 0.35992 0.92792 0.91467 0.0
H730 H 0.39439 0.93145 0.85903 0.0
H731 H 0.36671 0.95545 0.85513 0.0
H732 H 0.40552 0.04957 0.0434 0.0
H733 H 0.45367 0.04586 0.96937 0.0
H734 H 0.4454 0.95896 0.90944 0.0
C735 C 0.33827 0.96848 0.09553 0.0
C736 C 0.3191 0.98797 0.14748 0.0
C737 C 0.32636 0.01546 0.15531 0.0
C738 C 0.35184 0.02346 0.11352 0.0
C739 C 0.37022 1.00383 0.06335 0.0
C740 C 0.36376 0.97685 0.05371 0.0
C741 C 0.38785 0.95992 0.99857 0.0
C742 C 0.40137 0.94244 0.06284 0.0
C743 C 0.37654 0.94266 0.90107 0.0
C744 C 0.40914 0.98155 0.98046 0.0
C745 C 0.39828 0.00672 0.0181 0.0
C746 C 0.41404 0.02994 1.01334 0.0
C747 C 0.44158 0.02757 0.97079 0.0
C748 C 0.45373 1.00215 0.93236 0.0
C749 C 0.43685 0.97875 0.93638 0.0
H750 H 0.49385 0.284 0.49159 0.0
H751 H 0.57622 0.26067 0.35993 0.0
H752 H 0.57355 0.29642 0.26519 0.0
H753 H 0.46374 0.29991 0.25777 0.0
H754 H 0.44217 0.32669 0.3244 0.0
H755 H 0.44954 0.29804 0.37618 0.0
H756 H 0.47009 0.32953 0.53185 0.0
H757 H 0.46287 0.35817 0.48029 0.0
H758 H 0.49852 0.35316 0.52203 0.0
H759 H 0.5642 0.33649 0.19707 0.0
H760 H 0.5473 0.377 0.14754 0.0
H761 H 0.46957 0.37468 0.3183 0.0
C762 C 0.51084 0.28619 0.44078 0.0
C763 C 0.53521 0.26967 0.43159 0.0
C764 C 0.55733 0.27301 0.36595 0.0
C765 C 0.55602 0.29331 0.31271 0.0
C766 C 0.53206 0.30971 0.32456 0.0
C767 C 0.5095 0.30607 0.38516 0.0
C768 C 0.48602 0.32628 0.38213 0.0
C769 C 0.45876 0.31187 0.33214 0.0
C770 C 0.47905 0.34275 0.48509 0.0
C771 C 0.50021 0.34331 0.31765 0.0
C772 C 0.52643 0.33289 0.28363 0.0
C773 C 0.54367 0.34481 0.22288 0.0
C774 C 0.53396 0.36801 0.19585 0.0
C775 C 0.50727 0.37937 0.22988 0.0
C776 C 0.49005 0.36655 0.2909 0.0
H777 H 0.22049 0.52392 0.26791 0.0
H778 H 0.27966 0.51497 0.02481 0.0
H779 H 0.23839 0.51061 0.90856 0.0
H780 H 0.16502 0.47643 0.1426 0.0
H781 H 0.13556 0.49626 0.20003 0.0
H782 H 0.16973 0.49786 0.26272 0.0
H783 H 0.1718 0.54945 0.28092 0.0
H784 H 0.13769 0.54794 0.21802 0.0
H785 H 0.16865 0.56331 0.17312 0.0
H786 H 0.18993 0.51008 0.81875 0.0
H787 H 0.13911 0.50832 0.76242 0.0
H788 H 0.11088 0.51595 0.06291 0.0
C789 C 0.22463 0.5205 0.18997 0.0
C790 C 0.25339 0.51941 0.15504 0.0
C791 C 0.2579 0.5154 0.05275 0.0
C792 C 0.23454 0.51318 0.98641 0.0
C793 C 0.20647 0.5149 0.02301 0.0
C794 C 0.20142 0.51812 0.12249 0.0
C795 C 0.16916 0.51931 0.14271 0.0
C796 C 0.15929 0.49608 0.18978 0.0
C797 C 0.16138 0.54662 0.20753 0.0
C798 C 0.15686 0.51606 0.03924 0.0
C799 C 0.17876 0.51393 0.97134 0.0
C800 C 0.17268 0.5115 0.87147 0.0
C801 C 0.14365 0.51065 0.83997 0.0
C802 C 0.12072 0.51183 0.90748 0.0
C803 C 0.12772 0.51479 1.00874 0.0
H804 H 0.06687 0.79048 0.61982 0.0
H805 H 0.97809 0.77032 0.53901 0.0
H806 H 0.96403 0.81646 0.61933 0.0
H807 H 0.05244 0.83954 0.86291 0.0
H808 H 0.08218 0.86083 0.84198 0.0
H809 H 0.08366 0.82499 0.7972 0.0
H810 H 0.0934 0.83245 0.62188 0.0
H811 H 0.09123 0.86818 0.66505 0.0
H812 H 0.06792 0.85107 0.56675 0.0
H813 H 0.96238 0.86706 0.67058 0.0
H814 H 0.97164 0.91629 0.71629 0.0
H815 H 0.06096 0.90267 0.77668 0.0
C816 C 0.0443 0.79547 0.62477 0.0
C817 C 1.0234 0.77696 0.57582 0.0
C818 C 0.99414 0.78417 0.57901 0.0
C819 C 0.98611 0.81037 0.62346 0.0
C820 C 1.00758 0.82876 0.66647 0.0
C821 C 0.03598 0.82134 0.67043 0.0
C822 C 0.05541 0.84531 0.71201 0.0
C823 C 0.06923 0.8425 0.80933 0.0
C824 C 0.07836 0.84948 0.63701 0.0
C825 C 1.03376 0.86754 0.72788 0.0
C826 C 1.00629 0.8577 0.70039 0.0
C827 C 0.98356 0.87489 0.6957 0.0
C828 C 0.98901 0.90275 0.72087 0.0
C829 C 1.01681 0.91302 0.75172 0.0
C830 C 0.03931 0.89519 0.75617 0.0
H831 H 0.73145 0.01787 0.44487 0.0
H832 H 0.78998 0.01048 0.67875 0.0
H833 H 0.7483 0.00634 0.78611 0.0
H834 H 0.6794 0.05803 0.59791 0.0
H835 H 0.6486 0.04253 0.5275 0.0
H836 H 0.68295 0.04383 0.46874 0.0
H837 H 0.68092 0.99218 0.40718 0.0
H838 H 0.64651 0.99074 0.46538 0.0
H839 H 0.6758 0.97101 0.49409 0.0
H840 H 0.6992 0.00601 0.87259 0.0
H841 H 0.64817 0.00485 0.92354 0.0
H842 H 0.62109 0.01107 0.63195 0.0
C843 C 0.73543 0.01501 0.51831 0.0
C844 C 0.76417 0.01434 0.55322 0.0
C845 C 0.76833 0.0107 0.64998 0.0
C846 C 0.74469 0.0086 0.71174 0.0
C847 C 0.71669 0.01002 0.67606 0.0
C848 C 0.71199 0.01285 0.58098 0.0
C849 C 0.6798 0.01398 0.56055 0.0
C850 C 0.67225 0.0412 0.5373 0.0
C851 C 0.6702 0.99058 0.47684 0.0
C852 C 0.66704 0.011 0.6584 0.0
C853 C 0.6887 0.00915 0.7246 0.0
C854 C 0.68217 0.00717 0.82069 0.0
C855 C 0.653 0.00663 0.84933 0.0
C856 C 0.63028 0.0076 0.78215 0.0
C857 C 0.63772 0.00995 0.68532 0.0
H858 H 0.56849 0.70509 0.19802 0.0
H859 H 0.53449 0.76485 0.43678 0.0
H860 H 0.53987 0.73359 0.54866 0.0
H861 H 0.5313 0.64953 0.25969 0.0
H862 H 0.56002 0.62647 0.22154 0.0
H863 H 0.55605 0.65494 0.16622 0.0
H864 H 0.60909 0.66928 0.21531 0.0
H865 H 0.61241 0.64117 0.27337 0.0
H866 H 0.61979 0.67478 0.34248 0.0
H867 H 0.54447 0.69422 0.62995 0.0
H868 H 0.54952 0.6505 0.67636 0.0
H869 H 0.57911 0.61544 0.38307 0.0
C870 C 0.56278 0.7117 0.27443 0.0
C871 C 0.55144 0.73752 0.30942 0.0
C872 C 0.54383 0.74543 0.40939 0.0
C873 C 0.54658 0.72769 0.47302 0.0
C874 C 0.557 0.70207 0.43552 0.0
C875 C 0.56513 0.69411 0.3386 0.0
C876 C 0.57391 0.66491 0.31519 0.0
C877 C 0.55414 0.64796 0.23592 0.0
C878 C 0.6057 0.6624 0.28482 0.0
C879 C 0.56916 0.65758 0.4137 0.0
C880 C 0.55944 0.67932 0.48214 0.0
C881 C 0.55223 0.67714 0.57701 0.0
C882 C 0.55491 0.65214 0.60245 0.0
C883 C 0.56456 0.62946 0.53336 0.0
C884 C 0.57203 0.63243 0.43797 0.0
H885 H 0.83051 0.54333 0.56142 0.0
H886 H 0.79212 0.4662 0.57256 0.0
H887 H 0.83417 0.45648 0.6686 0.0
H888 H 0.90176 0.52302 0.5224 0.0
H889 H 0.91683 0.55351 0.59545 0.0
H890 H 0.88192 0.55375 0.53958 0.0
H891 H 0.86276 0.57417 0.7164 0.0
H892 H 0.89786 0.57146 0.76852 0.0
H893 H 0.86693 0.55555 0.81144 0.0
H894 H 0.88505 0.45226 0.73912 0.0
H895 H 0.93675 0.45524 0.78533 0.0
H896 H 0.94201 0.53538 0.72778 0.0
C897 C 0.83048 0.52487 0.58773 0.0
C898 C 0.80757 0.50576 0.56122 0.0
C899 C 0.80879 0.48148 0.59447 0.0
C900 C 0.83284 0.47573 0.64833 0.0
C901 C 0.85562 0.49456 0.6697 0.0
C902 C 0.85437 0.51887 0.64139 0.0
C903 C 0.88239 0.53496 0.66699 0.0
C904 C 0.89648 0.54173 0.57554 0.0
C905 C 0.87717 0.56055 0.74552 0.0
C906 C 0.90038 0.51528 0.70795 0.0
C907 C 0.88446 0.49227 0.71095 0.0
C908 C 0.89734 0.47052 0.73918 0.0
C909 C 0.92693 0.47232 0.76491 0.0
C910 C 0.94383 0.49558 0.7612 0.0
C911 C 0.92996 0.51735 0.73287 0.0
loop_
_geom_bond_atom_site_label_1
_geom_bond_atom_site_label_2
_geom_bond_distance
_geom_bond_site_symmetry_2
_ccdc_geom_bond_type
C0 N1 1.317 . S
C0 N2 1.348 . S
C0 C3 1.485 . S
N1 C0 1.317 . S
N1 N5 1.370 . S
N2 C0 1.348 . S
N2 C4 1.346 . S
C3 C0 1.485 . S
C3 H7 0.960 . S
C3 H8 0.961 . S
C3 H9 0.960 . S
C4 N2 1.346 . S
C4 N5 1.307 . S
C4 C6 1.486 . S
N5 N1 1.370 . S
N5 C4 1.307 . S
C6 C4 1.486 . S
C6 H10 0.960 . S
C6 H11 0.960 . S
C6 H12 0.959 . S
H7 C3 0.960 . S
H8 C3 0.961 . S
H9 C3 0.960 . S
H10 C6 0.960 . S
H11 C6 0.960 . S
H12 C6 0.959 . S
C13 N14 1.317 . S
C13 N15 1.351 . S
C13 C16 1.485 . S
N14 C13 1.317 . S
N14 N18 1.371 . S
N15 C13 1.351 . S
N15 C17 1.346 1_655 S
C16 C13 1.485 . S
C16 H20 0.960 1_655 S
C16 H21 0.961 . S
C16 H22 0.960 . S
C17 N15 1.346 1_455 S
C17 N18 1.307 1_455 S
C17 C19 1.485 . S
N18 N14 1.371 . S
N18 C17 1.307 1_655 S
C19 C17 1.485 . S
C19 H23 0.922 1_455 S
C19 H24 0.992 . S
C19 H25 0.967 . S
H20 C16 0.960 1_455 S
H21 C16 0.961 . S
H22 C16 0.960 . S
H23 C19 0.922 1_655 S
H24 C19 0.992 . S
H25 C19 0.967 . S
C26 N27 1.317 . S
C26 N28 1.358 . S
C26 C29 1.485 . S
N27 C26 1.317 . S
N27 N31 1.374 . S
N28 C26 1.358 . S
N28 C30 1.339 1_565 S
C29 C26 1.485 . S
C29 H33 0.960 1_565 S
C29 H34 0.961 . S
C29 H35 0.960 . S
C30 N28 1.339 1_545 S
C30 N31 1.305 1_545 S
C30 C32 1.476 . S
N31 N27 1.374 . S
N31 C30 1.305 1_565 S
C32 C30 1.476 . S
C32 H36 0.925 1_545 S
C32 H37 0.994 . S
C32 H38 0.972 . S
H33 C29 0.960 1_545 S
H34 C29 0.961 . S
H35 C29 0.960 . S
H36 C32 0.925 1_565 S
H37 C32 0.994 . S
H38 C32 0.972 . S
C39 N40 1.317 . S
C39 N41 1.348 1_554 S
C39 C42 1.485 . S
N40 C39 1.317 . S
N40 N44 1.370 1_554 S
N41 C39 1.348 1_556 S
N41 C43 1.346 . S
C42 C39 1.485 . S
C42 H46 0.960 . S
C42 H47 0.961 . S
C42 H48 0.960 . S
C43 N41 1.346 . S
C43 N44 1.307 . S
C43 C45 1.486 . S
N44 N40 1.370 1_556 S
N44 C43 1.307 . S
C45 C43 1.486 . S
C45 H49 0.960 . S
C45 H50 0.960 . S
C45 H51 0.959 . S
H46 C42 0.960 . S
H47 C42 0.961 . S
H48 C42 0.960 . S
H49 C45 0.960 . S
H50 C45 0.960 . S
H51 C45 0.959 . S
C52 N53 1.317 . S
C52 N54 1.348 . S
C52 C55 1.485 . S
N53 C52 1.317 . S
N53 N57 1.370 . S
N54 C52 1.348 . S
N54 C56 1.346 . S
C55 C52 1.485 . S
C55 H59 0.960 1_554 S
C55 H60 0.961 . S
C55 H61 0.960 1_554 S
C56 N54 1.346 . S
C56 N57 1.307 . S
C56 C58 1.486 . S
N57 N53 1.370 . S
N57 C56 1.307 . S
C58 C56 1.486 . S
C58 H62 0.960 . S
C58 H63 0.960 . S
C58 H64 0.959 . S
H59 C55 0.960 1_556 S
H60 C55 0.961 . S
H61 C55 0.960 1_556 S
H62 C58 0.960 . S
H63 C58 0.960 . S
H64 C58 0.959 . S
C65 N66 1.317 . S
C65 N67 1.349 . S
C65 C68 1.485 . S
N66 C65 1.317 . S
N66 N70 1.370 . S
N67 C65 1.349 . S
N67 C69 1.345 1_655 S
C68 C65 1.485 . S
C68 H72 0.960 1_655 S
C68 H73 0.961 . S
C68 H74 0.960 . S
C69 N67 1.345 1_455 S
C69 N70 1.307 1_455 S
C69 C71 1.486 . S
N70 N66 1.370 . S
N70 C69 1.307 1_655 S
C71 C69 1.486 . S
C71 H75 0.960 1_455 S
C71 H76 0.960 . S
C71 H77 0.959 . S
H72 C68 0.960 1_455 S
H73 C68 0.961 . S
H74 C68 0.960 . S
H75 C71 0.960 1_655 S
H76 C71 0.960 . S
H77 C71 0.959 . S
C78 N79 1.317 . S
C78 N80 1.344 . S
C78 C81 1.485 . S
N79 C78 1.317 . S
N79 N83 1.370 . S
N80 C78 1.344 . S
N80 C82 1.352 1_565 S
C81 C78 1.485 . S
C81 H85 0.960 1_565 S
C81 H86 0.961 . S
C81 H87 0.960 1_554 S
C82 N80 1.352 1_545 S
C82 N83 1.308 1_545 S
C82 C84 1.484 . S
N83 N79 1.370 . S
N83 C82 1.308 1_565 S
C84 C82 1.484 . S
C84 H88 0.960 1_545 S
C84 H89 0.960 . S
C84 H90 0.959 . S
H85 C81 0.960 1_545 S
H86 C81 0.961 . S
H87 C81 0.960 1_556 S
H88 C84 0.960 1_565 S
H89 C84 0.960 . S
H90 C84 0.959 . S
C91 N92 1.317 . S
C91 N93 1.348 . S
C91 C94 1.485 . S
N92 C91 1.317 . S
N92 N96 1.370 . S
N93 C91 1.348 . S
N93 C95 1.346 . S
C94 C91 1.485 . S
C94 H98 0.960 . S
C94 H99 0.961 . S
C94 H100 0.960 . S
C95 N93 1.346 . S
C95 N96 1.307 . S
C95 C97 1.486 . S
N96 N92 1.370 . S
N96 C95 1.307 . S
C97 C95 1.486 . S
C97 H101 0.960 . S
C97 H102 0.960 . S
C97 H103 0.959 . S
H98 C94 0.960 . S
H99 C94 0.961 . S
H100 C94 0.960 . S
H101 C97 0.960 . S
H102 C97 0.960 . S
H103 C97 0.959 . S
Tb104 C113 2.764 . S
Tb104 O114 2.325 . S
Tb104 O117 2.303 1_655 S
Tb104 O121 2.322 1_545 S
Tb104 O122 2.349 . S
Tb104 O125 2.415 . S
Tb104 O126 2.399 . S
Tb105 O115 2.322 1_565 S
Tb105 O116 2.349 . S
Tb105 O118 2.415 1_556 S
Tb105 O119 2.399 . S
Tb105 O120 2.325 . S
Tb105 O123 2.303 1_455 S
Tb105 C134 2.764 1_556 S
C106 O122 1.272 . S
C106 O123 1.254 1_545 S
C107 C110 1.358 . S
C107 C111 1.332 . S
C107 C113 1.504 . S
C108 C109 1.373 . S
C108 C112 1.308 . S
C109 C108 1.373 . S
C109 C110 1.429 . S
C109 H136 0.932 . S
C110 C107 1.358 . S
C110 C109 1.429 . S
C110 H137 0.930 . S
C111 C107 1.332 . S
C111 C112 1.394 . S
C111 H138 0.932 1_655 S
C112 C108 1.308 . S
C112 C111 1.394 . S
C112 H139 0.943 . S
C113 Tb104 2.764 . S
C113 C107 1.504 . S
C113 O125 1.239 . S
C113 O126 1.263 . S
O114 Tb104 2.325 . S
O114 C124 1.236 1_655 S
O115 Tb105 2.322 1_545 S
O115 C124 1.257 . S
O116 Tb105 2.349 . S
O116 C127 1.266 . S
O117 Tb104 2.303 1_455 S
O117 C127 1.255 1_545 S
O118 Tb105 2.415 1_554 S
O118 C134 1.239 . S
O119 Tb105 2.399 . S
O119 C134 1.263 1_556 S
O120 Tb105 2.325 . S
O120 C135 1.236 1_455 S
O121 Tb104 2.322 1_565 S
O121 C135 1.257 . S
O122 Tb104 2.349 . S
O122 C106 1.272 . S
O123 Tb105 2.303 1_655 S
O123 C106 1.254 1_565 S
C124 O114 1.236 1_455 S
C124 O115 1.257 . S
O125 Tb104 2.415 . S
O125 C113 1.239 . S
O126 Tb104 2.399 . S
O126 C113 1.263 . S
C127 O116 1.266 . S
C127 O117 1.255 1_565 S
C128 C131 1.358 . S
C128 C132 1.332 . S
C128 C134 1.504 . S
C129 C130 1.373 . S
C129 C133 1.308 . S
C130 C129 1.373 . S
C130 C131 1.429 . S
C130 H140 0.932 . S
C131 C128 1.358 . S
C131 C130 1.429 . S
C131 H141 0.930 . S
C132 C128 1.332 . S
C132 C133 1.394 . S
C132 H142 0.932 1_455 S
C133 C129 1.308 . S
C133 C132 1.394 . S
C133 H143 0.951 . S
C134 Tb105 2.764 1_554 S
C134 O118 1.239 . S
C134 O119 1.263 1_554 S
C134 C128 1.504 . S
C135 O120 1.236 1_655 S
C135 O121 1.257 . S
H136 C109 0.932 . S
H137 C110 0.930 . S
H138 C111 0.932 1_455 S
H139 C112 0.943 . S
H140 C130 0.932 . S
H141 C131 0.930 . S
H142 C132 0.932 1_655 S
H143 C133 0.951 . S
Tb144 C153 2.764 . S
Tb144 O154 2.325 . S
Tb144 O157 2.303 1_565 S
Tb144 O161 2.322 . S
Tb144 O162 2.349 . S
Tb144 O165 2.415 1_565 S
Tb144 O166 2.399 . S
Tb145 O155 2.322 . S
Tb145 O156 2.349 . S
Tb145 O158 2.415 1_546 S
Tb145 O159 2.399 1_556 S
Tb145 O160 2.325 . S
Tb145 O163 2.303 1_545 S
Tb145 C174 2.764 1_556 S
C146 O162 1.261 . S
C146 O163 1.257 . S
C147 C150 1.358 . S
C147 C151 1.332 1_565 S
C147 C153 1.504 . S
C148 C149 1.373 . S
C148 C152 1.308 1_565 S
C149 C148 1.373 . S
C149 C150 1.429 . S
C149 H176 0.932 . S
C150 C147 1.358 . S
C150 C149 1.429 . S
C150 H177 0.930 . S
C151 C147 1.332 1_545 S
C151 C152 1.394 . S
C151 H178 0.932 . S
C152 C148 1.308 1_545 S
C152 C151 1.394 . S
C152 H179 0.929 . S
C153 Tb144 2.764 . S
C153 C147 1.504 . S
C153 O165 1.239 1_565 S
C153 O166 1.263 . S
O154 Tb144 2.325 . S
O154 C164 1.236 1_565 S
O155 Tb145 2.322 . S
O155 C164 1.257 . S
O156 Tb145 2.349 . S
O156 C167 1.261 . S
O157 Tb144 2.303 1_545 S
O157 C167 1.257 . S
O158 Tb145 2.415 1_564 S
O158 C174 1.239 1_565 S
O159 Tb145 2.399 1_554 S
O159 C174 1.263 . S
O160 Tb145 2.325 . S
O160 C175 1.236 1_545 S
O161 Tb144 2.322 . S
O161 C175 1.257 . S
O162 Tb144 2.349 . S
O162 C146 1.261 . S
O163 Tb145 2.303 1_565 S
O163 C146 1.257 . S
C164 O154 1.236 1_545 S
C164 O155 1.257 . S
O165 Tb144 2.415 1_545 S
O165 C153 1.239 1_545 S
O166 Tb144 2.399 . S
O166 C153 1.263 . S
C167 O156 1.261 . S
C167 O157 1.257 . S
C168 C171 1.358 . S
C168 C172 1.332 1_545 S
C168 C174 1.504 . S
C169 C170 1.373 . S
C169 C173 1.308 1_545 S
C170 C169 1.373 . S
C170 C171 1.429 . S
C170 H180 0.932 . S
C171 C168 1.358 . S
C171 C170 1.429 . S
C171 H181 0.930 . S
C172 C168 1.332 1_565 S
C172 C173 1.394 . S
C172 H182 0.932 . S
C173 C169 1.308 1_565 S
C173 C172 1.394 . S
C173 H183 0.929 . S
C174 Tb145 2.764 1_554 S
C174 O158 1.239 1_545 S
C174 O159 1.263 . S
C174 C168 1.504 . S
C175 O160 1.236 1_565 S
C175 O161 1.257 . S
H176 C149 0.932 . S
H177 C150 0.930 . S
H178 C151 0.932 . S
H179 C152 0.929 . S
H180 C170 0.932 . S
H181 C171 0.930 . S
H182 C172 0.932 . S
H183 C173 0.929 . S
Tb184 C193 2.764 1_556 S
Tb184 O194 2.325 . S
Tb184 O197 2.303 . S
Tb184 O201 2.322 . S
Tb184 O202 2.349 . S
Tb184 O205 2.415 1_556 S
Tb184 O206 2.399 1_556 S
Tb185 O195 2.322 . S
Tb185 O196 2.349 . S
Tb185 O198 2.415 . S
Tb185 O199 2.399 . S
Tb185 O200 2.325 . S
Tb185 O203 2.303 . S
Tb185 C214 2.764 . S
C186 O202 1.261 . S
C186 O203 1.257 . S
C187 C190 1.358 . S
C187 C191 1.332 . S
C187 C193 1.504 . S
C188 C189 1.373 . S
C188 C192 1.308 . S
C189 C188 1.373 . S
C189 C190 1.429 . S
C189 H216 0.932 . S
C190 C187 1.358 . S
C190 C189 1.429 . S
C190 H217 0.930 . S
C191 C187 1.332 . S
C191 C192 1.394 . S
C191 H218 0.932 . S
C192 C188 1.308 . S
C192 C191 1.394 . S
C192 H219 0.929 . S
C193 Tb184 2.764 1_554 S
C193 C187 1.504 . S
C193 O205 1.239 . S
C193 O206 1.263 . S
O194 Tb184 2.325 . S
O194 C204 1.236 . S
O195 Tb185 2.322 . S
O195 C204 1.257 . S
O196 Tb185 2.349 . S
O196 C207 1.261 . S
O197 Tb184 2.303 . S
O197 C207 1.257 . S
O198 Tb185 2.415 . S
O198 C214 1.239 . S
O199 Tb185 2.399 . S
O199 C214 1.263 . S
O200 Tb185 2.325 . S
O200 C215 1.236 . S
O201 Tb184 2.322 . S
O201 C215 1.257 . S
O202 Tb184 2.349 . S
O202 C186 1.261 . S
O203 Tb185 2.303 . S
O203 C186 1.257 . S
C204 O194 1.236 . S
C204 O195 1.257 . S
O205 Tb184 2.415 1_554 S
O205 C193 1.239 . S
O206 Tb184 2.399 1_554 S
O206 C193 1.263 . S
C207 O196 1.261 . S
C207 O197 1.257 . S
C208 C211 1.358 . S
C208 C212 1.332 . S
C208 C214 1.504 . S
C209 C210 1.373 . S
C209 C213 1.308 . S
C210 C209 1.373 . S
C210 C211 1.429 . S
C210 H220 0.932 . S
C211 C208 1.358 . S
C211 C210 1.429 . S
C211 H221 0.930 . S
C212 C208 1.332 . S
C212 C213 1.394 . S
C212 H222 0.932 . S
C213 C209 1.308 . S
C213 C212 1.394 . S
C213 H223 0.929 . S
C214 Tb185 2.764 . S
C214 O198 1.239 . S
C214 O199 1.263 . S
C214 C208 1.504 . S
C215 O200 1.236 . S
C215 O201 1.257 . S
H216 C189 0.932 . S
H217 C190 0.930 . S
H218 C191 0.932 . S
H219 C192 0.929 . S
H220 C210 0.932 . S
H221 C211 0.930 . S
H222 C212 0.932 . S
H223 C213 0.929 . S
Tb224 C233 2.764 . S
Tb224 O234 2.325 . S
Tb224 O237 2.303 . S
Tb224 O241 2.322 1_455 S
Tb224 O242 2.349 . S
Tb224 O245 2.415 . S
Tb224 O246 2.399 . S
Tb225 O235 2.322 1_655 S
Tb225 O236 2.349 . S
Tb225 O238 2.415 1_556 S
Tb225 O239 2.399 . S
Tb225 O240 2.325 . S
Tb225 O243 2.303 . S
Tb225 C254 2.764 1_556 S
C226 O242 1.261 . S
C226 O243 1.257 1_455 S
C227 C230 1.358 . S
C227 C231 1.332 . S
C227 C233 1.504 . S
C228 C229 1.373 . S
C228 C232 1.308 . S
C229 C228 1.373 . S
C229 C230 1.429 . S
C229 H256 0.932 . S
C230 C227 1.358 . S
C230 C229 1.429 . S
C230 H257 0.930 . S
C231 C227 1.332 . S
C231 C232 1.394 . S
C231 H258 0.932 . S
C232 C228 1.308 . S
C232 C231 1.394 . S
C232 H259 0.929 . S
C233 Tb224 2.764 . S
C233 C227 1.504 . S
C233 O245 1.239 . S
C233 O246 1.263 . S
O234 Tb224 2.325 . S
O234 C244 1.236 . S
O235 Tb225 2.322 1_455 S
O235 C244 1.257 . S
O236 Tb225 2.349 . S
O236 C247 1.261 . S
O237 Tb224 2.303 . S
O237 C247 1.257 1_455 S
O238 Tb225 2.415 1_554 S
O238 C254 1.239 . S
O239 Tb225 2.399 . S
O239 C254 1.263 1_556 S
O240 Tb225 2.325 . S
O240 C255 1.236 . S
O241 Tb224 2.322 1_655 S
O241 C255 1.257 . S
O242 Tb224 2.349 . S
O242 C226 1.261 . S
O243 Tb225 2.303 . S
O243 C226 1.257 1_655 S
C244 O234 1.236 . S
C244 O235 1.257 . S
O245 Tb224 2.415 . S
O245 C233 1.239 . S
O246 Tb224 2.399 . S
O246 C233 1.263 . S
C247 O236 1.261 . S
C247 O237 1.257 1_655 S
C248 C251 1.358 . S
C248 C252 1.332 . S
C248 C254 1.504 . S
C249 C250 1.373 . S
C249 C253 1.308 . S
C250 C249 1.373 . S
C250 C251 1.429 . S
C250 H260 0.932 . S
C251 C248 1.358 . S
C251 C250 1.429 . S
C251 H261 0.930 . S
C252 C248 1.332 . S
C252 C253 1.394 . S
C252 H262 0.932 . S
C253 C249 1.308 . S
C253 C252 1.394 . S
C253 H263 0.929 . S
C254 Tb225 2.764 1_554 S
C254 O238 1.239 . S
C254 O239 1.263 1_554 S
C254 C248 1.504 . S
C255 O240 1.236 . S
C255 O241 1.257 . S
H256 C229 0.932 . S
H257 C230 0.930 . S
H258 C231 0.932 . S
H259 C232 0.929 . S
H260 C250 0.932 . S
H261 C251 0.930 . S
H262 C252 0.932 . S
H263 C253 0.929 . S
H264 C276 0.930 . S
H265 C278 0.930 . S
H266 C279 0.930 . S
H267 C283 0.959 . S
H268 C283 0.959 . S
H269 C283 0.961 . S
H270 C284 0.960 . S
H271 C284 0.961 . S
H272 C284 0.959 . S
H273 C287 0.929 . S
H274 C288 0.931 . S
H275 C290 0.930 . S
C276 H264 0.930 . S
C276 C277 1.399 1_565 S
C276 C281 1.399 . S
C277 C276 1.399 1_545 S
C277 C278 1.376 . S
C278 H265 0.930 . S
C278 C277 1.376 . S
C278 C279 1.388 . S
C279 H266 0.930 . S
C279 C278 1.388 . S
C279 C280 1.390 . S
C280 C279 1.390 . S
C280 C281 1.383 1_545 S
C280 C286 1.465 . S
C281 C276 1.399 . S
C281 C280 1.383 1_565 S
C281 C282 1.526 . S
C282 C281 1.526 . S
C282 C283 1.502 . S
C282 C284 1.561 1_565 S
C282 C285 1.525 1_565 S
C283 H267 0.959 . S
C283 H268 0.959 . S
C283 H269 0.961 . S
C283 C282 1.502 . S
C284 H270 0.960 . S
C284 H271 0.961 . S
C284 H272 0.959 . S
C284 C282 1.561 1_545 S
C285 C282 1.525 1_545 S
C285 C286 1.399 . S
C285 C290 1.388 1_545 S
C286 C280 1.465 . S
C286 C285 1.399 . S
C286 C287 1.399 . S
C287 H273 0.929 . S
C287 C286 1.399 . S
C287 C288 1.385 . S
C288 H274 0.931 . S
C288 C287 1.385 . S
C288 C289 1.389 . S
C289 C288 1.389 . S
C289 C290 1.387 1_545 S
C290 H275 0.930 . S
C290 C285 1.388 1_565 S
C290 C289 1.387 1_565 S
H291 C303 0.930 . S
H292 C305 0.930 . S
H293 C306 0.930 . S
H294 C310 0.959 . S
H295 C310 0.959 . S
H296 C310 0.961 . S
H297 C311 0.960 . S
H298 C311 0.961 . S
H299 C311 0.959 . S
H300 C314 0.929 . S
H301 C315 0.931 . S
H302 C317 0.930 . S
C303 H291 0.930 . S
C303 C304 1.399 . S
C303 C308 1.399 . S
C304 C303 1.399 . S
C304 C305 1.376 . S
C305 H292 0.930 . S
C305 C304 1.376 . S
C305 C306 1.388 . S
C306 H293 0.930 . S
C306 C305 1.388 . S
C306 C307 1.390 . S
C307 C306 1.390 . S
C307 C308 1.394 . S
C307 C313 1.465 . S
C308 C303 1.399 . S
C308 C307 1.394 . S
C308 C309 1.516 . S
C309 C308 1.516 . S
C309 C310 1.502 . S
C309 C311 1.561 . S
C309 C312 1.526 . S
C310 H294 0.959 . S
C310 H295 0.959 . S
C310 H296 0.961 . S
C310 C309 1.502 . S
C311 H297 0.960 . S
C311 H298 0.961 . S
C311 H299 0.959 . S
C311 C309 1.561 . S
C312 C309 1.526 . S
C312 C313 1.396 . S
C312 C317 1.390 . S
C313 C307 1.465 . S
C313 C312 1.396 . S
C313 C314 1.399 . S
C314 H300 0.929 . S
C314 C313 1.399 . S
C314 C315 1.385 . S
C315 H301 0.931 . S
C315 C314 1.385 . S
C315 C316 1.389 . S
C316 C315 1.389 . S
C316 C317 1.387 . S
C317 H302 0.930 . S
C317 C312 1.390 . S
C317 C316 1.387 . S
H318 C330 0.930 . S
H319 C332 0.930 . S
H320 C333 0.930 . S
H321 C337 0.959 . S
H322 C337 0.959 . S
H323 C337 0.961 . S
H324 C338 0.960 . S
H325 C338 0.961 . S
H326 C338 0.959 . S
H327 C341 0.929 . S
H328 C342 0.931 . S
H329 C344 0.930 . S
C330 H318 0.930 . S
C330 C331 1.399 . S
C330 C335 1.399 . S
C331 C330 1.399 . S
C331 C332 1.376 . S
C332 H319 0.930 . S
C332 C331 1.376 . S
C332 C333 1.388 . S
C333 H320 0.930 . S
C333 C332 1.388 . S
C333 C334 1.390 . S
C334 C333 1.390 . S
C334 C335 1.394 . S
C334 C340 1.465 . S
C335 C330 1.399 . S
C335 C334 1.394 . S
C335 C336 1.516 . S
C336 C335 1.516 . S
C336 C337 1.502 . S
C336 C338 1.561 . S
C336 C339 1.526 . S
C337 H321 0.959 . S
C337 H322 0.959 . S
C337 H323 0.961 . S
C337 C336 1.502 . S
C338 H324 0.960 . S
C338 H325 0.961 . S
C338 H326 0.959 . S
C338 C336 1.561 . S
C339 C336 1.526 . S
C339 C340 1.396 . S
C339 C344 1.390 . S
C340 C334 1.465 . S
C340 C339 1.396 . S
C340 C341 1.399 . S
C341 H327 0.929 . S
C341 C340 1.399 . S
C341 C342 1.385 . S
C342 H328 0.931 . S
C342 C341 1.385 . S
C342 C343 1.389 . S
C343 C342 1.389 . S
C343 C344 1.387 . S
C344 H329 0.930 . S
C344 C339 1.390 . S
C344 C343 1.387 . S
H345 C357 0.930 . S
H346 C359 0.930 . S
H347 C360 0.930 . S
H348 C364 0.959 . S
H349 C364 0.959 . S
H350 C364 0.961 . S
H351 C365 0.956 1_455 S
H352 C365 0.954 1_455 S
H353 C365 0.980 . S
H354 C368 0.929 . S
H355 C369 0.931 . S
H356 C371 0.930 . S
C357 H345 0.930 . S
C357 C358 1.399 1_455 S
C357 C362 1.399 . S
C358 C357 1.399 1_655 S
C358 C359 1.376 . S
C359 H346 0.930 . S
C359 C358 1.376 . S
C359 C360 1.388 . S
C360 H347 0.930 . S
C360 C359 1.388 . S
C360 C361 1.390 . S
C361 C360 1.390 . S
C361 C362 1.394 1_655 S
C361 C367 1.465 . S
C362 C357 1.399 . S
C362 C361 1.394 1_455 S
C362 C363 1.516 . S
C363 C362 1.516 . S
C363 C364 1.502 . S
C363 C365 1.550 1_455 S
C363 C366 1.526 . S
C364 H348 0.959 . S
C364 H349 0.959 . S
C364 H350 0.961 . S
C364 C363 1.502 . S
C365 H351 0.956 1_655 S
C365 H352 0.954 1_655 S
C365 H353 0.980 . S
C365 C363 1.550 1_655 S
C366 C363 1.526 . S
C366 C367 1.396 1_455 S
C366 C371 1.390 . S
C367 C361 1.465 . S
C367 C366 1.396 1_655 S
C367 C368 1.399 . S
C368 H354 0.929 . S
C368 C367 1.399 . S
C368 C369 1.385 . S
C369 H355 0.931 . S
C369 C368 1.385 . S
C369 C370 1.405 . S
C370 C369 1.405 . S
C370 C371 1.376 1_655 S
C371 H356 0.930 . S
C371 C366 1.390 . S
C371 C370 1.376 1_455 S
H372 C384 0.930 . S
H373 C386 0.930 . S
H374 C387 0.930 . S
H375 C391 0.959 . S
H376 C391 0.959 . S
H377 C391 0.961 . S
H378 C392 0.960 . S
H379 C392 0.961 . S
H380 C392 0.959 . S
H381 C395 0.929 . S
H382 C396 0.931 . S
H383 C398 0.930 . S
C384 H372 0.930 . S
C384 C385 1.399 1_565 S
C384 C389 1.399 . S
C385 C384 1.399 1_545 S
C385 C386 1.376 . S
C386 H373 0.930 . S
C386 C385 1.376 . S
C386 C387 1.388 . S
C387 H374 0.930 . S
C387 C386 1.388 . S
C387 C388 1.390 . S
C388 C387 1.390 . S
C388 C389 1.394 1_545 S
C388 C394 1.465 . S
C389 C384 1.399 . S
C389 C388 1.394 1_565 S
C389 C390 1.516 . S
C390 C389 1.516 . S
C390 C391 1.502 . S
C390 C392 1.561 . S
C390 C393 1.526 . S
C391 H375 0.959 . S
C391 H376 0.959 . S
C391 H377 0.961 . S
C391 C390 1.502 . S
C392 H378 0.960 . S
C392 H379 0.961 . S
C392 H380 0.959 . S
C392 C390 1.561 . S
C393 C390 1.526 . S
C393 C394 1.396 1_565 S
C393 C398 1.390 . S
C394 C388 1.465 . S
C394 C393 1.396 1_545 S
C394 C395 1.399 . S
C395 H381 0.929 . S
C395 C394 1.399 . S
C395 C396 1.385 . S
C396 H382 0.931 . S
C396 C395 1.385 . S
C396 C397 1.383 1_545 S
C397 C396 1.383 1_565 S
C397 C398 1.393 . S
C398 H383 0.930 . S
C398 C393 1.390 . S
C398 C397 1.393 . S
H399 C411 0.930 . S
H400 C413 0.930 . S
H401 C414 0.930 . S
H402 C418 0.959 . S
H403 C418 0.959 . S
H404 C418 0.961 . S
H405 C419 0.960 . S
H406 C419 0.961 . S
H407 C419 0.959 . S
H408 C422 0.929 . S
H409 C423 0.931 1_554 S
H410 C425 0.930 . S
C411 H399 0.930 . S
C411 C412 1.399 . S
C411 C416 1.399 . S
C412 C411 1.399 . S
C412 C413 1.376 1_556 S
C413 H400 0.930 . S
C413 C412 1.376 1_554 S
C413 C414 1.388 . S
C414 H401 0.930 . S
C414 C413 1.388 . S
C414 C415 1.390 1_554 S
C415 C414 1.390 1_556 S
C415 C416 1.394 . S
C415 C421 1.465 . S
C416 C411 1.399 . S
C416 C415 1.394 . S
C416 C417 1.516 . S
C417 C416 1.516 . S
C417 C418 1.502 . S
C417 C419 1.561 . S
C417 C420 1.526 . S
C418 H402 0.959 . S
C418 H403 0.959 . S
C418 H404 0.961 . S
C418 C417 1.502 . S
C419 H405 0.960 . S
C419 H406 0.961 . S
C419 H407 0.959 . S
C419 C417 1.561 . S
C420 C417 1.526 . S
C420 C421 1.396 . S
C420 C425 1.390 . S
C421 C415 1.465 . S
C421 C420 1.396 . S
C421 C422 1.399 1_556 S
C422 H408 0.929 . S
C422 C421 1.399 1_554 S
C422 C423 1.385 1_554 S
C423 H409 0.931 1_556 S
C423 C422 1.385 1_556 S
C423 C424 1.389 . S
C424 C423 1.389 . S
C424 C425 1.387 . S
C425 H410 0.930 . S
C425 C420 1.390 . S
C425 C424 1.387 . S
H426 C438 0.930 . S
H427 C440 0.930 . S
H428 C441 0.930 . S
H429 C445 0.959 . S
H430 C445 0.959 . S
H431 C445 0.961 . S
H432 C446 0.960 . S
H433 C446 0.961 . S
H434 C446 0.959 . S
H435 C449 0.929 . S
H436 C450 0.931 1_556 S
H437 C452 0.930 . S
C438 H426 0.930 . S
C438 C439 1.399 . S
C438 C443 1.399 . S
C439 C438 1.399 . S
C439 C440 1.376 . S
C440 H427 0.930 . S
C440 C439 1.376 . S
C440 C441 1.388 . S
C441 H428 0.930 . S
C441 C440 1.388 . S
C441 C442 1.390 . S
C442 C441 1.390 . S
C442 C443 1.394 . S
C442 C448 1.465 . S
C443 C438 1.399 . S
C443 C442 1.394 . S
C443 C444 1.516 . S
C444 C443 1.516 . S
C444 C445 1.502 . S
C444 C446 1.561 . S
C444 C447 1.526 . S
C445 H429 0.959 . S
C445 H430 0.959 . S
C445 H431 0.961 . S
C445 C444 1.502 . S
C446 H432 0.960 . S
C446 H433 0.961 . S
C446 H434 0.959 . S
C446 C444 1.561 . S
C447 C444 1.526 . S
C447 C448 1.396 . S
C447 C452 1.390 . S
C448 C442 1.465 . S
C448 C447 1.396 . S
C448 C449 1.399 . S
C449 H435 0.929 . S
C449 C448 1.399 . S
C449 C450 1.385 . S
C450 H436 0.931 1_554 S
C450 C449 1.385 . S
C450 C451 1.389 . S
C451 C450 1.389 . S
C451 C452 1.387 . S
C452 H437 0.930 . S
C452 C447 1.390 . S
C452 C451 1.387 . S
H453 C465 0.930 . S
H454 C467 0.930 . S
H455 C468 0.930 . S
H456 C472 0.959 . S
H457 C472 0.959 . S
H458 C472 0.961 . S
H459 C473 0.960 . S
H460 C473 0.961 . S
H461 C473 0.959 . S
H462 C476 0.929 . S
H463 C477 0.931 . S
H464 C479 0.930 . S
C465 H453 0.930 . S
C465 C466 1.383 1_655 S
C465 C470 1.399 . S
C466 C465 1.383 1_455 S
C466 C467 1.397 . S
C467 H454 0.930 . S
C467 C466 1.397 . S
C467 C468 1.388 . S
C468 H455 0.930 . S
C468 C467 1.388 . S
C468 C469 1.390 . S
C469 C468 1.390 . S
C469 C470 1.394 1_455 S
C469 C475 1.465 . S
C470 C465 1.399 . S
C470 C469 1.394 1_655 S
C470 C471 1.516 . S
C471 C470 1.516 . S
C471 C472 1.502 . S
C471 C473 1.561 . S
C471 C474 1.526 . S
C472 H456 0.959 . S
C472 H457 0.959 . S
C472 H458 0.961 . S
C472 C471 1.502 . S
C473 H459 0.960 . S
C473 H460 0.961 . S
C473 H461 0.959 . S
C473 C471 1.561 . S
C474 C471 1.526 . S
C474 C475 1.396 1_655 S
C474 C479 1.390 . S
C475 C469 1.465 . S
C475 C474 1.396 1_455 S
C475 C476 1.399 . S
C476 H462 0.929 . S
C476 C475 1.399 . S
C476 C477 1.385 1_554 S
C477 H463 0.931 . S
C477 C476 1.385 1_556 S
C477 C478 1.403 . S
C478 C477 1.403 . S
C478 C479 1.375 1_456 S
C479 H464 0.930 . S
C479 C474 1.390 . S
C479 C478 1.375 1_654 S
H480 C492 0.930 . S
H481 C494 0.930 . S
H482 C495 0.930 . S
H483 C499 0.959 . S
H484 C499 0.959 . S
H485 C499 0.961 . S
H486 C500 0.960 . S
H487 C500 0.961 . S
H488 C500 0.959 . S
H489 C503 0.929 . S
H490 C504 0.931 . S
H491 C506 0.930 . S
C492 H480 0.930 . S
C492 C493 1.399 1_455 S
C492 C497 1.399 1_455 S
C493 C492 1.399 1_655 S
C493 C494 1.376 . S
C494 H481 0.930 . S
C494 C493 1.376 . S
C494 C495 1.388 . S
C495 H482 0.930 . S
C495 C494 1.388 . S
C495 C496 1.390 . S
C496 C495 1.390 . S
C496 C497 1.394 . S
C496 C502 1.465 . S
C497 C492 1.399 1_655 S
C497 C496 1.394 . S
C497 C498 1.516 . S
C498 C497 1.516 . S
C498 C499 1.502 1_655 S
C498 C500 1.561 . S
C498 C501 1.526 . S
C499 H483 0.959 . S
C499 H484 0.959 . S
C499 H485 0.961 . S
C499 C498 1.502 1_455 S
C500 H486 0.960 . S
C500 H487 0.961 . S
C500 H488 0.959 . S
C500 C498 1.561 . S
C501 C498 1.526 . S
C501 C502 1.396 . S
C501 C506 1.390 . S
C502 C496 1.465 . S
C502 C501 1.396 . S
C502 C503 1.399 . S
C503 H489 0.929 . S
C503 C502 1.399 . S
C503 C504 1.385 . S
C504 H490 0.931 . S
C504 C503 1.385 . S
C504 C505 1.389 . S
C505 C504 1.389 . S
C505 C506 1.387 . S
C506 H491 0.930 . S
C506 C501 1.390 . S
C506 C505 1.387 . S
H507 C519 0.930 . S
H508 C521 0.930 . S
H509 C522 0.930 . S
H510 C526 0.959 . S
H511 C526 0.959 . S
H512 C526 0.961 . S
H513 C527 0.960 . S
H514 C527 0.961 . S
H515 C527 0.959 1_545 S
H516 C530 0.929 . S
H517 C531 0.931 1_545 S
H518 C533 0.930 . S
C519 H507 0.930 . S
C519 C520 1.399 1_565 S
C519 C524 1.399 . S
C520 C519 1.399 1_545 S
C520 C521 1.376 . S
C521 H508 0.930 . S
C521 C520 1.376 . S
C521 C522 1.388 . S
C522 H509 0.930 . S
C522 C521 1.388 . S
C522 C523 1.390 . S
C523 C522 1.390 . S
C523 C524 1.394 1_545 S
C523 C529 1.465 1_545 S
C524 C519 1.399 . S
C524 C523 1.394 1_565 S
C524 C525 1.516 . S
C525 C524 1.516 . S
C525 C526 1.502 . S
C525 C527 1.561 . S
C525 C528 1.526 . S
C526 H510 0.959 . S
C526 H511 0.959 . S
C526 H512 0.961 . S
C526 C525 1.502 . S
C527 H513 0.960 . S
C527 H514 0.961 . S
C527 H515 0.959 1_565 S
C527 C525 1.561 . S
C528 C525 1.526 . S
C528 C529 1.396 . S
C528 C533 1.390 . S
C529 C523 1.465 1_565 S
C529 C528 1.396 . S
C529 C530 1.399 1_565 S
C530 H516 0.929 . S
C530 C529 1.399 1_545 S
C530 C531 1.385 1_545 S
C531 H517 0.931 1_565 S
C531 C530 1.385 1_565 S
C531 C532 1.389 . S
C532 C531 1.389 . S
C532 C533 1.387 . S
C533 H518 0.930 . S
C533 C528 1.390 . S
C533 C532 1.387 . S
H534 C546 0.930 . S
H535 C548 0.930 . S
H536 C549 0.930 . S
H537 C553 0.959 . S
H538 C553 0.959 . S
H539 C553 0.961 . S
H540 C554 0.960 . S
H541 C554 0.961 . S
H542 C554 0.959 . S
H543 C557 0.929 . S
H544 C558 0.931 . S
H545 C560 0.930 . S
C546 H534 0.930 . S
C546 C547 1.399 . S
C546 C551 1.399 . S
C547 C546 1.399 . S
C547 C548 1.376 . S
C548 H535 0.930 . S
C548 C547 1.376 . S
C548 C549 1.388 . S
C549 H536 0.930 . S
C549 C548 1.388 . S
C549 C550 1.390 . S
C550 C549 1.390 . S
C550 C551 1.394 . S
C550 C556 1.465 . S
C551 C546 1.399 . S
C551 C550 1.394 . S
C551 C552 1.516 . S
C552 C551 1.516 . S
C552 C553 1.502 . S
C552 C554 1.561 . S
C552 C555 1.526 . S
C553 H537 0.959 . S
C553 H538 0.959 . S
C553 H539 0.961 . S
C553 C552 1.502 . S
C554 H540 0.960 . S
C554 H541 0.961 . S
C554 H542 0.959 . S
C554 C552 1.561 . S
C555 C552 1.526 . S
C555 C556 1.396 . S
C555 C560 1.390 . S
C556 C550 1.465 . S
C556 C555 1.396 . S
C556 C557 1.399 . S
C557 H543 0.929 . S
C557 C556 1.399 . S
C557 C558 1.385 . S
C558 H544 0.931 . S
C558 C557 1.385 . S
C558 C559 1.389 . S
C559 C558 1.389 . S
C559 C560 1.387 . S
C560 H545 0.930 . S
C560 C555 1.390 . S
C560 C559 1.387 . S
H561 C573 0.930 . S
H562 C575 0.930 . S
H563 C576 0.930 . S
H564 C580 0.959 . S
H565 C580 0.959 . S
H566 C580 0.961 . S
H567 C581 0.960 . S
H568 C581 0.961 . S
H569 C581 0.959 . S
H570 C584 0.929 . S
H571 C585 0.931 . S
H572 C587 0.930 . S
C573 H561 0.930 . S
C573 C574 1.399 . S
C573 C578 1.399 . S
C574 C573 1.399 . S
C574 C575 1.376 . S
C575 H562 0.930 . S
C575 C574 1.376 . S
C575 C576 1.388 . S
C576 H563 0.930 . S
C576 C575 1.388 . S
C576 C577 1.390 . S
C577 C576 1.390 . S
C577 C578 1.394 . S
C577 C583 1.465 . S
C578 C573 1.399 . S
C578 C577 1.394 . S
C578 C579 1.516 . S
C579 C578 1.516 . S
C579 C580 1.502 . S
C579 C581 1.561 . S
C579 C582 1.526 . S
C580 H564 0.959 . S
C580 H565 0.959 . S
C580 H566 0.961 . S
C580 C579 1.502 . S
C581 H567 0.960 . S
C581 H568 0.961 . S
C581 H569 0.959 . S
C581 C579 1.561 . S
C582 C579 1.526 . S
C582 C583 1.396 . S
C582 C587 1.390 . S
C583 C577 1.465 . S
C583 C582 1.396 . S
C583 C584 1.399 . S
C584 H570 0.929 . S
C584 C583 1.399 . S
C584 C585 1.385 . S
C585 H571 0.931 . S
C585 C584 1.385 . S
C585 C586 1.389 . S
C586 C585 1.389 . S
C586 C587 1.387 . S
C587 H572 0.930 . S
C587 C582 1.390 . S
C587 C586 1.387 . S
H588 C600 0.930 . S
H589 C602 0.930 . S
H590 C603 0.930 1_655 S
H591 C607 0.959 . S
H592 C607 0.959 . S
H593 C607 0.961 . S
H594 C608 0.960 . S
H595 C608 0.961 . S
H596 C608 0.959 . S
H597 C611 0.929 . S
H598 C612 0.931 . S
H599 C614 0.930 . S
C600 H588 0.930 . S
C600 C601 1.412 . S
C600 C605 1.399 . S
C601 C600 1.412 . S
C601 C602 1.372 1_455 S
C602 H589 0.930 . S
C602 C601 1.372 1_655 S
C602 C603 1.388 1_655 S
C603 H590 0.930 1_455 S
C603 C602 1.388 1_455 S
C603 C604 1.390 . S
C604 C603 1.390 . S
C604 C605 1.394 . S
C604 C610 1.465 . S
C605 C600 1.399 . S
C605 C604 1.394 . S
C605 C606 1.516 . S
C606 C605 1.516 . S
C606 C607 1.502 . S
C606 C608 1.561 . S
C606 C609 1.526 . S
C607 H591 0.959 . S
C607 H592 0.959 . S
C607 H593 0.961 . S
C607 C606 1.502 . S
C608 H594 0.960 . S
C608 H595 0.961 . S
C608 H596 0.959 . S
C608 C606 1.561 . S
C609 C606 1.526 . S
C609 C610 1.396 . S
C609 C614 1.390 . S
C610 C604 1.465 . S
C610 C609 1.396 . S
C610 C611 1.399 . S
C611 H597 0.929 . S
C611 C610 1.399 . S
C611 C612 1.385 . S
C612 H598 0.931 . S
C612 C611 1.385 . S
C612 C613 1.389 . S
C613 C612 1.389 . S
C613 C614 1.387 . S
C614 H599 0.930 . S
C614 C609 1.390 . S
C614 C613 1.387 . S
H615 C627 0.930 . S
H616 C629 0.930 . S
H617 C630 0.930 . S
H618 C634 0.959 . S
H619 C634 0.959 . S
H620 C634 0.961 . S
H621 C635 0.960 . S
H622 C635 0.961 . S
H623 C635 0.959 . S
H624 C638 0.929 . S
H625 C639 0.931 . S
H626 C641 0.930 1_565 S
C627 H615 0.930 . S
C627 C628 1.401 1_565 S
C627 C632 1.399 . S
C628 C627 1.401 1_545 S
C628 C629 1.373 . S
C629 H616 0.930 . S
C629 C628 1.373 . S
C629 C630 1.388 . S
C630 H617 0.930 . S
C630 C629 1.388 . S
C630 C631 1.390 . S
C631 C630 1.390 . S
C631 C632 1.394 1_545 S
C631 C637 1.465 . S
C632 C627 1.399 . S
C632 C631 1.394 1_565 S
C632 C633 1.516 . S
C633 C632 1.516 . S
C633 C634 1.502 . S
C633 C635 1.561 . S
C633 C636 1.526 1_565 S
C634 H618 0.959 . S
C634 H619 0.959 . S
C634 H620 0.961 . S
C634 C633 1.502 . S
C635 H621 0.960 . S
C635 H622 0.961 . S
C635 H623 0.959 . S
C635 C633 1.561 . S
C636 C633 1.526 1_545 S
C636 C637 1.396 . S
C636 C641 1.390 . S
C637 C631 1.465 . S
C637 C636 1.396 . S
C637 C638 1.399 . S
C638 H624 0.929 . S
C638 C637 1.399 . S
C638 C639 1.385 . S
C639 H625 0.931 . S
C639 C638 1.385 . S
C639 C640 1.389 . S
C640 C639 1.389 . S
C640 C641 1.387 . S
C641 H626 0.930 1_545 S
C641 C636 1.390 . S
C641 C640 1.387 . S
H642 C654 0.930 1_554 S
H643 C656 0.930 . S
H644 C657 0.930 . S
H645 C661 0.959 1_556 S
H646 C661 0.959 . S
H647 C661 0.961 . S
H648 C662 0.960 . S
H649 C662 0.961 . S
H650 C662 0.959 . S
H651 C665 0.929 . S
H652 C666 0.931 . S
H653 C668 0.930 . S
C654 H642 0.930 1_556 S
C654 C655 1.399 . S
C654 C659 1.399 . S
C655 C654 1.399 . S
C655 C656 1.376 . S
C656 H643 0.930 . S
C656 C655 1.376 . S
C656 C657 1.388 . S
C657 H644 0.930 . S
C657 C656 1.388 . S
C657 C658 1.390 . S
C658 C657 1.390 . S
C658 C659 1.394 . S
C658 C664 1.465 . S
C659 C654 1.399 . S
C659 C658 1.394 . S
C659 C660 1.516 1_556 S
C660 C659 1.516 1_554 S
C660 C661 1.502 . S
C660 C662 1.561 . S
C660 C663 1.526 1_554 S
C661 H645 0.959 1_554 S
C661 H646 0.959 . S
C661 H647 0.961 . S
C661 C660 1.502 . S
C662 H648 0.960 . S
C662 H649 0.961 . S
C662 H650 0.959 . S
C662 C660 1.561 . S
C663 C660 1.526 1_556 S
C663 C664 1.396 . S
C663 C668 1.390 . S
C664 C658 1.465 . S
C664 C663 1.396 . S
C664 C665 1.399 . S
C665 H651 0.929 . S
C665 C664 1.399 . S
C665 C666 1.385 . S
C666 H652 0.931 . S
C666 C665 1.385 . S
C666 C667 1.389 . S
C667 C666 1.389 . S
C667 C668 1.387 . S
C668 H653 0.930 . S
C668 C663 1.390 . S
C668 C667 1.387 . S
H669 C681 0.930 . S
H670 C683 0.930 . S
H671 C684 0.930 . S
H672 C688 0.959 . S
H673 C688 0.959 . S
H674 C688 0.961 . S
H675 C689 0.960 . S
H676 C689 0.961 . S
H677 C689 0.959 . S
H678 C692 0.929 . S
H679 C693 0.931 . S
H680 C695 0.930 . S
C681 H669 0.930 . S
C681 C682 1.399 . S
C681 C686 1.399 . S
C682 C681 1.399 . S
C682 C683 1.376 . S
C683 H670 0.930 . S
C683 C682 1.376 . S
C683 C684 1.388 . S
C684 H671 0.930 . S
C684 C683 1.388 . S
C684 C685 1.390 . S
C685 C684 1.390 . S
C685 C686 1.394 . S
C685 C691 1.465 . S
C686 C681 1.399 . S
C686 C685 1.394 . S
C686 C687 1.516 . S
C687 C686 1.516 . S
C687 C688 1.502 . S
C687 C689 1.561 . S
C687 C690 1.526 . S
C688 H672 0.959 . S
C688 H673 0.959 . S
C688 H674 0.961 . S
C688 C687 1.502 . S
C689 H675 0.960 . S
C689 H676 0.961 . S
C689 H677 0.959 . S
C689 C687 1.561 . S
C690 C687 1.526 . S
C690 C691 1.396 . S
C690 C695 1.390 . S
C691 C685 1.465 . S
C691 C690 1.396 . S
C691 C692 1.399 . S
C692 H678 0.929 . S
C692 C691 1.399 . S
C692 C693 1.385 . S
C693 H679 0.931 . S
C693 C692 1.385 . S
C693 C694 1.389 . S
C694 C693 1.389 . S
C694 C695 1.387 . S
C695 H680 0.930 . S
C695 C690 1.390 . S
C695 C694 1.387 . S
H696 C708 0.930 1_556 S
H697 C710 0.930 . S
H698 C711 0.930 . S
H699 C715 0.959 . S
H700 C715 0.959 . S
H701 C715 0.961 . S
H702 C716 0.960 . S
H703 C716 0.961 . S
H704 C716 0.959 . S
H705 C719 0.929 . S
H706 C720 0.931 . S
H707 C722 0.930 . S
C708 H696 0.930 1_554 S
C708 C709 1.399 1_655 S
C708 C713 1.399 1_655 S
C709 C708 1.399 1_455 S
C709 C710 1.376 . S
C710 H697 0.930 . S
C710 C709 1.376 . S
C710 C711 1.388 . S
C711 H698 0.930 . S
C711 C710 1.388 . S
C711 C712 1.390 . S
C712 C711 1.390 . S
C712 C713 1.394 . S
C712 C718 1.465 . S
C713 C708 1.399 1_455 S
C713 C712 1.394 . S
C713 C714 1.517 1_554 S
C714 C713 1.517 1_556 S
C714 C715 1.498 1_455 S
C714 C716 1.564 . S
C714 C717 1.527 . S
C715 H699 0.959 . S
C715 H700 0.959 . S
C715 H701 0.961 . S
C715 C714 1.498 1_655 S
C716 H702 0.960 . S
C716 H703 0.961 . S
C716 H704 0.959 . S
C716 C714 1.564 . S
C717 C714 1.527 . S
C717 C718 1.396 1_556 S
C717 C722 1.390 . S
C718 C712 1.465 . S
C718 C717 1.396 1_554 S
C718 C719 1.399 . S
C719 H705 0.929 . S
C719 C718 1.399 . S
C719 C720 1.385 . S
C720 H706 0.931 . S
C720 C719 1.385 . S
C720 C721 1.389 1_554 S
C721 C720 1.389 1_556 S
C721 C722 1.387 . S
C722 H707 0.930 . S
C722 C717 1.390 . S
C722 C721 1.387 . S
H723 C735 0.930 . S
H724 C737 0.930 . S
H725 C738 0.930 . S
H726 C742 0.959 . S
H727 C742 0.959 . S
H728 C742 0.961 . S
H729 C743 0.960 . S
H730 C743 0.961 . S
H731 C743 0.959 . S
H732 C746 0.929 . S
H733 C747 0.931 . S
H734 C749 0.930 . S
C735 H723 0.930 . S
C735 C736 1.399 1_565 S
C735 C740 1.399 . S
C736 C735 1.399 1_545 S
C736 C737 1.376 . S
C737 H724 0.930 . S
C737 C736 1.376 . S
C737 C738 1.388 . S
C738 H725 0.930 . S
C738 C737 1.388 . S
C738 C739 1.390 . S
C739 C738 1.390 . S
C739 C740 1.394 1_545 S
C739 C745 1.465 1_554 S
C740 C735 1.399 . S
C740 C739 1.394 1_565 S
C740 C741 1.516 1_554 S
C741 C740 1.516 1_556 S
C741 C742 1.502 1_556 S
C741 C743 1.561 . S
C741 C744 1.526 . S
C742 H726 0.959 . S
C742 H727 0.959 . S
C742 H728 0.961 . S
C742 C741 1.502 1_554 S
C743 H729 0.960 . S
C743 H730 0.961 . S
C743 H731 0.959 . S
C743 C741 1.561 . S
C744 C741 1.526 . S
C744 C745 1.396 1_565 S
C744 C749 1.390 . S
C745 C739 1.465 1_556 S
C745 C744 1.396 1_545 S
C745 C746 1.399 . S
C746 H732 0.929 . S
C746 C745 1.399 . S
C746 C747 1.385 . S
C747 H733 0.931 . S
C747 C746 1.385 . S
C747 C748 1.389 . S
C748 C747 1.389 . S
C748 C749 1.387 1_545 S
C749 H734 0.930 . S
C749 C744 1.390 . S
C749 C748 1.387 1_565 S
H750 C762 0.930 . S
H751 C764 0.930 . S
H752 C765 0.930 . S
H753 C769 0.959 . S
H754 C769 0.959 . S
H755 C769 0.961 . S
H756 C770 0.960 . S
H757 C770 0.961 . S
H758 C770 0.959 . S
H759 C773 0.929 . S
H760 C774 0.931 . S
H761 C776 0.930 . S
C762 H750 0.930 . S
C762 C763 1.399 . S
C762 C767 1.399 . S
C763 C762 1.399 . S
C763 C764 1.376 . S
C764 H751 0.930 . S
C764 C763 1.376 . S
C764 C765 1.388 . S
C765 H752 0.930 . S
C765 C764 1.388 . S
C765 C766 1.390 . S
C766 C765 1.390 . S
C766 C767 1.394 . S
C766 C772 1.465 . S
C767 C762 1.399 . S
C767 C766 1.394 . S
C767 C768 1.516 . S
C768 C767 1.516 . S
C768 C769 1.502 . S
C768 C770 1.561 . S
C768 C771 1.526 . S
C769 H753 0.959 . S
C769 H754 0.959 . S
C769 H755 0.961 . S
C769 C768 1.502 . S
C770 H756 0.960 . S
C770 H757 0.961 . S
C770 H758 0.959 . S
C770 C768 1.561 . S
C771 C768 1.526 . S
C771 C772 1.396 . S
C771 C776 1.390 . S
C772 C766 1.465 . S
C772 C771 1.396 . S
C772 C773 1.399 . S
C773 H759 0.929 . S
C773 C772 1.399 . S
C773 C774 1.385 . S
C774 H760 0.931 . S
C774 C773 1.385 . S
C774 C775 1.389 . S
C775 C774 1.389 . S
C775 C776 1.387 . S
C776 H761 0.930 . S
C776 C771 1.390 . S
C776 C775 1.387 . S
H777 C789 0.930 . S
H778 C791 0.930 . S
H779 C792 0.930 . S
H780 C796 0.959 . S
H781 C796 0.959 . S
H782 C796 0.961 . S
H783 C797 0.960 . S
H784 C797 0.961 . S
H785 C797 0.959 . S
H786 C800 0.929 . S
H787 C801 0.931 . S
H788 C803 0.930 . S
C789 H777 0.930 . S
C789 C790 1.399 . S
C789 C794 1.399 . S
C790 C789 1.399 . S
C790 C791 1.376 . S
C791 H778 0.930 . S
C791 C790 1.376 . S
C791 C792 1.388 . S
C792 H779 0.930 . S
C792 C791 1.388 . S
C792 C793 1.390 . S
C793 C792 1.390 . S
C793 C794 1.394 . S
C793 C799 1.465 1_554 S
C794 C789 1.399 . S
C794 C793 1.394 . S
C794 C795 1.516 . S
C795 C794 1.516 . S
C795 C796 1.502 1_554 S
C795 C797 1.561 . S
C795 C798 1.526 1_554 S
C796 H780 0.959 . S
C796 H781 0.959 . S
C796 H782 0.961 . S
C796 C795 1.502 1_556 S
C797 H783 0.960 . S
C797 H784 0.961 . S
C797 H785 0.959 . S
C797 C795 1.561 . S
C798 C795 1.526 1_556 S
C798 C799 1.396 . S
C798 C803 1.390 . S
C799 C793 1.465 1_556 S
C799 C798 1.396 . S
C799 C800 1.399 . S
C800 H786 0.929 . S
C800 C799 1.399 . S
C800 C801 1.385 . S
C801 H787 0.931 . S
C801 C800 1.385 . S
C801 C802 1.389 . S
C802 C801 1.389 . S
C802 C803 1.387 . S
C803 H788 0.930 . S
C803 C798 1.390 . S
C803 C802 1.387 . S
H804 C816 0.930 . S
H805 C818 0.930 . S
H806 C819 0.930 . S
H807 C823 0.959 . S
H808 C823 0.959 . S
H809 C823 0.961 . S
H810 C824 0.960 . S
H811 C824 0.961 . S
H812 C824 0.959 . S
H813 C827 0.929 . S
H814 C828 0.931 . S
H815 C830 0.930 1_455 S
C816 H804 0.930 . S
C816 C817 1.399 1_455 S
C816 C821 1.399 1_455 S
C817 C816 1.399 1_655 S
C817 C818 1.376 . S
C818 H805 0.930 . S
C818 C817 1.376 . S
C818 C819 1.388 . S
C819 H806 0.930 . S
C819 C818 1.388 . S
C819 C820 1.390 . S
C820 C819 1.390 . S
C820 C821 1.394 . S
C820 C826 1.465 . S
C821 C816 1.399 1_655 S
C821 C820 1.394 . S
C821 C822 1.516 1_655 S
C822 C821 1.516 1_455 S
C822 C823 1.502 . S
C822 C824 1.561 1_455 S
C822 C825 1.526 1_455 S
C823 H807 0.959 . S
C823 H808 0.959 . S
C823 H809 0.961 . S
C823 C822 1.502 . S
C824 H810 0.960 . S
C824 H811 0.961 . S
C824 H812 0.959 . S
C824 C822 1.561 1_655 S
C825 C822 1.526 1_655 S
C825 C826 1.396 . S
C825 C830 1.390 . S
C826 C820 1.465 . S
C826 C825 1.396 . S
C826 C827 1.399 . S
C827 H813 0.929 . S
C827 C826 1.399 . S
C827 C828 1.385 . S
C828 H814 0.931 . S
C828 C827 1.385 . S
C828 C829 1.389 . S
C829 C828 1.389 . S
C829 C830 1.387 . S
C830 H815 0.930 1_655 S
C830 C825 1.390 . S
C830 C829 1.387 . S
H831 C843 0.930 . S
H832 C845 0.930 . S
H833 C846 0.930 . S
H834 C850 0.959 . S
H835 C850 0.959 . S
H836 C850 0.961 . S
H837 C851 0.960 . S
H838 C851 0.961 . S
H839 C851 0.959 . S
H840 C854 0.929 . S
H841 C855 0.931 . S
H842 C857 0.930 . S
C843 H831 0.930 . S
C843 C844 1.406 . S
C843 C848 1.399 . S
C844 C843 1.406 . S
C844 C845 1.370 1_565 S
C845 H832 0.930 . S
C845 C844 1.370 1_545 S
C845 C846 1.388 . S
C846 H833 0.930 . S
C846 C845 1.388 . S
C846 C847 1.390 . S
C847 C846 1.390 . S
C847 C848 1.394 1_545 S
C847 C853 1.465 . S
C848 C843 1.399 . S
C848 C847 1.394 1_565 S
C848 C849 1.516 . S
C849 C848 1.516 . S
C849 C850 1.502 . S
C849 C851 1.561 . S
C849 C852 1.526 . S
C850 H834 0.959 . S
C850 H835 0.959 . S
C850 H836 0.961 . S
C850 C849 1.502 . S
C851 H837 0.960 . S
C851 H838 0.961 . S
C851 H839 0.959 . S
C851 C849 1.561 . S
C852 C849 1.526 . S
C852 C853 1.396 1_565 S
C852 C857 1.390 . S
C853 C847 1.465 . S
C853 C852 1.396 1_545 S
C853 C854 1.399 . S
C854 H840 0.929 . S
C854 C853 1.399 . S
C854 C855 1.385 . S
C855 H841 0.931 . S
C855 C854 1.385 . S
C855 C856 1.389 1_545 S
C856 C855 1.389 1_565 S
C856 C857 1.387 . S
C857 H842 0.930 . S
C857 C852 1.390 . S
C857 C856 1.387 . S
H858 C870 0.930 . S
H859 C872 0.930 . S
H860 C873 0.930 . S
H861 C877 0.959 . S
H862 C877 0.959 . S
H863 C877 0.961 . S
H864 C878 0.960 . S
H865 C878 0.961 . S
H866 C878 0.959 . S
H867 C881 0.929 . S
H868 C882 0.931 . S
H869 C884 0.930 . S
C870 H858 0.930 . S
C870 C871 1.399 . S
C870 C875 1.399 . S
C871 C870 1.399 . S
C871 C872 1.376 . S
C872 H859 0.930 . S
C872 C871 1.376 . S
C872 C873 1.388 . S
C873 H860 0.930 . S
C873 C872 1.388 . S
C873 C874 1.390 . S
C874 C873 1.390 . S
C874 C875 1.394 . S
C874 C880 1.465 . S
C875 C870 1.399 . S
C875 C874 1.394 . S
C875 C876 1.516 . S
C876 C875 1.516 . S
C876 C877 1.502 . S
C876 C878 1.561 . S
C876 C879 1.526 . S
C877 H861 0.959 . S
C877 H862 0.959 . S
C877 H863 0.961 . S
C877 C876 1.502 . S
C878 H864 0.960 . S
C878 H865 0.961 . S
C878 H866 0.959 . S
C878 C876 1.561 . S
C879 C876 1.526 . S
C879 C880 1.396 . S
C879 C884 1.390 . S
C880 C874 1.465 . S
C880 C879 1.396 . S
C880 C881 1.399 . S
C881 H867 0.929 . S
C881 C880 1.399 . S
C881 C882 1.385 . S
C882 H868 0.931 . S
C882 C881 1.385 . S
C882 C883 1.389 . S
C883 C882 1.389 . S
C883 C884 1.387 . S
C884 H869 0.930 . S
C884 C879 1.390 . S
C884 C883 1.387 . S
H885 C897 0.930 . S
H886 C899 0.930 . S
H887 C900 0.930 . S
H888 C904 0.959 . S
H889 C904 0.959 . S
H890 C904 0.961 . S
H891 C905 0.960 . S
H892 C905 0.961 . S
H893 C905 0.959 . S
H894 C908 0.929 . S
H895 C909 0.931 . S
H896 C911 0.930 . S
C897 H885 0.930 . S
C897 C898 1.399 . S
C897 C902 1.399 . S
C898 C897 1.399 . S
C898 C899 1.376 . S
C899 H886 0.930 . S
C899 C898 1.376 . S
C899 C900 1.388 . S
C900 H887 0.930 . S
C900 C899 1.388 . S
C900 C901 1.390 . S
C901 C900 1.390 . S
C901 C902 1.394 . S
C901 C907 1.465 . S
C902 C897 1.399 . S
C902 C901 1.394 . S
C902 C903 1.516 . S
C903 C902 1.516 . S
C903 C904 1.502 . S
C903 C905 1.561 . S
C903 C906 1.526 . S
C904 H888 0.959 . S
C904 H889 0.959 . S
C904 H890 0.961 . S
C904 C903 1.502 . S
C905 H891 0.960 . S
C905 H892 0.961 . S
C905 H893 0.959 . S
C905 C903 1.561 . S
C906 C903 1.526 . S
C906 C907 1.396 . S
C906 C911 1.390 . S
C907 C901 1.465 . S
C907 C906 1.396 . S
C907 C908 1.399 . S
C908 H894 0.929 . S
C908 C907 1.399 . S
C908 C909 1.385 . S
C909 H895 0.931 . S
C909 C908 1.385 . S
C909 C910 1.389 . S
C910 C909 1.389 . S
C910 C911 1.387 . S
C911 H896 0.930 . S
C911 C906 1.390 . S
C911 C910 1.387 . S
C277 N80 1.957 1_545 S
C289 C127 2.015 1_545 S
C316 C167 1.736 . S
C304 N93 1.749 . S
C343 C186 2.002 . S
C331 N54 1.909 . S
C370 C247 1.388 . S
C358 N67 1.339 . S
C397 C106 1.996 1_564 S
C385 N28 1.904 1_545 S
C412 N41 1.770 . S
C424 C146 1.765 . S
C439 N2 1.923 . S
C451 C207 2.032 1_554 S
C466 N15 1.319 1_455 S
C478 C226 1.390 . S
C505 C108 0.896 . S
C493 N70 0.828 . S
C532 C148 0.240 . S
C520 N83 0.360 1_545 S
C559 C204 0.874 . S
C547 N96 0.962 . S
C574 N57 0.288 . S
C586 C228 0.523 . S
C601 N18 0.842 1_455 S
C613 C129 0.821 . S
C640 C169 0.468 . S
C628 N31 0.284 1_545 S
C667 C215 0.945 . S
C655 N44 0.899 . S
C682 N5 0.399 . S
C694 C249 0.314 . S
C709 N66 1.528 1_455 S
C721 C124 1.601 . S
C736 N79 2.296 1_545 S
C748 C164 2.360 . S
C775 C188 1.487 . S
C763 N92 1.577 . S
C802 C244 2.322 . S
C790 N53 2.248 . S
C817 N14 1.564 . S
C829 C135 1.611 . S
C856 C175 2.341 . S
C844 N27 2.298 . S
C883 C209 1.518 . S
C871 N40 1.567 . S
C898 N1 2.278 . S
C910 C255 2.327 . S
