# Generated by pormake.
# Topology anh, (6,3)-cn, num edge types: 1
# Building blocks:
#     Node 0, Type 0, BuildingBlock: NUHQIS_clean_sbu_0, # of connection points: 6
#     Node 1, Type 0, BuildingBlock: NUHQIS_clean_sbu_0, # of connection points: 6
#     Node 2, Type 0, BuildingBlock: NUHQIS_clean_sbu_0, # of connection points: 6
#     Node 3, Type 1, BuildingBlock: BETDIP_clean_linker_0, # of connection points: 3
#     Node 4, Type 1, BuildingBlock: BETDIP_clean_linker_0, # of connection points: 3
#     Node 5, Type 1, BuildingBlock: BETDIP_clean_linker_0, # of connection points: 3
#     Node 6, Type 1, BuildingBlock: BETDIP_clean_linker_0, # of connection points: 3
#     Node 7, Type 1, BuildingBlock: BETDIP_clean_linker_0, # of connection points: 3
#     Node 8, Type 1, BuildingBlock: BETDIP_clean_linker_0, # of connection points: 3
#     Edge 9, Type (0, 1), BuildingBlock: UVAHIK_clean_linker_0, # of connection points: 2
#     Edge 10, Type (0, 1), BuildingBlock: UVAHIK_clean_linker_0, # of connection points: 2
#     Edge 11, Type (0, 1), BuildingBlock: UVAHIK_clean_linker_0, # of connection points: 2
#     Edge 12, Type (0, 1), BuildingBlock: UVAHIK_clean_linker_0, # of connection points: 2
#     Edge 13, Type (0, 1), BuildingBlock: UVAHIK_clean_linker_0, # of connection points: 2
#     Edge 14, Type (0, 1), BuildingBlock: UVAHIK_clean_linker_0, # of connection points: 2
#     Edge 15, Type (0, 1), BuildingBlock: UVAHIK_clean_linker_0, # of connection points: 2
#     Edge 16, Type (0, 1), BuildingBlock: UVAHIK_clean_linker_0, # of connection points: 2
#     Edge 17, Type (0, 1), BuildingBlock: UVAHIK_clean_linker_0, # of connection points: 2
#     Edge 18, Type (0, 1), BuildingBlock: UVAHIK_clean_linker_0, # of connection points: 2
#     Edge 19, Type (0, 1), BuildingBlock: UVAHIK_clean_linker_0, # of connection points: 2
#     Edge 20, Type (0, 1), BuildingBlock: UVAHIK_clean_linker_0, # of connection points: 2
#     Edge 21, Type (0, 1), BuildingBlock: UVAHIK_clean_linker_0, # of connection points: 2
#     Edge 22, Type (0, 1), BuildingBlock: UVAHIK_clean_linker_0, # of connection points: 2
#     Edge 23, Type (0, 1), BuildingBlock: UVAHIK_clean_linker_0, # of connection points: 2
#     Edge 24, Type (0, 1), BuildingBlock: UVAHIK_clean_linker_0, # of connection points: 2
#     Edge 25, Type (0, 1), BuildingBlock: UVAHIK_clean_linker_0, # of connection points: 2
#     Edge 26, Type (0, 1), BuildingBlock: UVAHIK_clean_linker_0, # of connection points: 2
# Relax obj value: 0.186
# Max RMSD: 0.169
# Mean RMSD: 0.120
data_MOF--net-anh--node1-NUHQIS_clean_sbu_0--node2-BETDIP_clean_linker_0--edge1-UVAHIK_clean_linker_0
_symmetry_space_group_name_H-M    P1
_symmetry_Int_Tables_number       1
_symmetry_cell_setting            triclinic
loop_
_symmetry_equiv_pos_as_xyz
'x, y, z'
_cell_length_a     38.87035
_cell_length_b     38.729059
_cell_length_c     64.215764
_cell_angle_alpha  90.47692
_cell_angle_beta   96.100551
_cell_angle_gamma 119.84018
loop_
_atom_site_label
_atom_site_type_symbol
_atom_site_fract_x
_atom_site_fract_y
_atom_site_fract_z
_atom_type_partial_charge
Tb0 Tb 0.16284 0.63596 0.15756 0.0
Eu1 Eu 0.1186 0.68734 0.16309 0.0
C2 C 0.15937 0.66406 0.20169 0.0
C3 C 1.06988 0.59149 0.16186 0.0
C4 C 0.23798 0.60256 0.15651 0.0
C5 C 0.28825 0.58988 0.14502 0.0
C6 C 0.25042 0.58589 0.14169 0.0
C7 C 0.26411 0.62386 0.17472 0.0
C8 C 0.30206 0.62765 0.17816 0.0
C9 C 0.31443 0.61062 0.16332 0.0
C10 C 0.19751 0.59675 0.15255 0.0
O11 O 0.12507 0.62783 0.12854 0.0
O12 O 0.13223 0.68958 0.12966 0.0
O13 O 0.184 0.73373 0.16815 0.0
O14 O 0.20849 0.69772 0.15287 0.0
C15 C 0.12582 0.65768 0.11883 0.0
O16 O 1.08314 0.7123 0.14886 0.0
O17 O 1.0995 0.71976 0.18253 0.0
O18 O 0.12651 0.66398 0.19434 0.0
O19 O 0.18363 0.66454 0.18891 0.0
O20 O 0.1042 0.59238 0.16653 0.0
O21 O 1.06888 0.6235 0.15617 0.0
C22 C 0.21318 0.73181 0.16055 0.0
O23 O 0.17967 0.59522 0.1689 0.0
O24 O 0.19216 0.6179 0.13825 0.0
C25 C 1.03287 0.70182 0.16926 0.0
C26 C 0.94979 0.6489 0.16704 0.0
C27 C 0.96537 0.67704 0.15192 0.0
C28 C 1.00648 0.70337 0.15311 0.0
C29 C 1.01715 0.67589 0.18526 0.0
C30 C 0.97601 0.64992 0.18423 0.0
C31 C 1.07578 0.72099 0.16692 0.0
H32 H 0.29659 0.57576 0.13349 0.0
H33 H 0.23062 0.56932 0.12758 0.0
H34 H 0.2551 0.63723 0.18631 0.0
H35 H 0.32169 0.64384 0.19236 0.0
H36 H 0.94627 0.67704 0.13837 0.0
H37 H 1.01788 0.72292 0.14054 0.0
H38 H 1.03667 0.67391 0.19794 0.0
H39 H 0.96496 0.62941 0.19644 0.0
Tb40 Tb 0.64243 0.15695 0.49568 0.0
Eu41 Eu 0.54488 0.11392 0.49206 0.0
C42 C 0.59956 0.12595 0.53519 0.0
C43 C 0.58859 1.06194 0.49188 0.0
C44 C 0.75339 0.22907 0.4957 0.0
C45 C 0.81313 0.29081 0.50975 0.0
C46 C 0.77588 0.25826 0.51229 0.0
C47 C 0.76814 0.23402 0.47624 0.0
C48 C 0.80542 0.26654 0.47371 0.0
C49 C 0.82882 0.29467 0.49062 0.0
C50 C 0.71774 0.1914 0.49965 0.0
O51 O 0.62404 0.16757 0.46445 0.0
O52 O 0.56089 0.11318 0.45932 0.0
O53 O 0.56668 0.17803 0.48561 0.0
O54 O 0.62904 0.20385 0.50406 0.0
C55 C 0.59245 0.14143 0.45192 0.0
O56 O 0.48505 0.07112 0.47706 0.0
O57 O 0.49217 0.10967 0.50368 0.0
O58 O 0.56967 0.12974 0.52647 0.0
O59 O 0.62587 0.12624 0.52402 0.0
O60 O 0.62087 0.09381 0.48703 0.0
O61 O 0.55817 1.0641 0.49759 0.0
C62 C 0.59947 0.20845 0.49525 0.0
O63 O 0.69744 0.19289 0.51422 0.0
O64 O 0.69451 0.16761 0.48344 0.0
C65 C 0.43859 1.04377 0.50105 0.0
C66 C 0.38299 0.97259 0.51718 0.0
C67 C 0.42406 0.98511 0.51999 0.0
C68 C 0.45156 1.0204 0.51206 0.0
C69 C 0.39805 1.0325 0.49888 0.0
C70 C 0.37041 0.9972 0.50695 0.0
C71 C 0.46724 0.07867 0.49104 0.0
H72 H 0.83026 0.31225 0.52299 0.0
H73 H 0.76547 0.25512 0.52753 0.0
H74 H 0.75179 0.21184 0.46321 0.0
H75 H 0.81684 0.26833 0.45885 0.0
H76 H 0.4349 0.96672 0.52738 0.0
H77 H 0.48285 1.02877 0.5139 0.0
H78 H 0.38766 1.05044 0.49052 0.0
H79 H 0.33911 0.98869 0.50471 0.0
Tb80 Tb 0.59955 0.62 0.83356 0.0
Eu81 Eu 0.54498 0.52348 0.82054 0.0
C82 C 0.57457 0.55834 0.86776 0.0
C83 C 0.64163 0.56872 0.82634 0.0
C84 C 0.64558 0.72968 0.85252 0.0
C85 C 0.68418 0.78911 0.87634 0.0
C86 C 0.67497 0.75073 0.86963 0.0
C87 C 0.62343 0.74648 0.84322 0.0
C88 C 0.63272 0.78494 0.84989 0.0
C89 C 0.66437 0.80731 0.86592 0.0
C90 C 0.64352 0.6941 0.84258 0.0
O91 O 0.60272 0.60965 0.80049 0.0
O92 O 0.5411 0.55472 0.79206 0.0
O93 O 0.50131 0.54258 0.82794 0.0
O94 O 0.53895 0.61119 0.82878 0.0
C95 C 0.57244 0.58595 0.78646 0.0
O96 O 0.5269 0.47032 0.80016 0.0
O97 O 0.49733 0.46561 0.82767 0.0
O98 O 0.57264 0.53226 0.85391 0.0
O99 O 0.57621 0.59156 0.862 0.0
O100 O 0.64239 0.59881 0.83651 0.0
O101 O 0.60819 0.53911 0.81652 0.0
C102 C 0.50438 0.57796 0.82863 0.0
O103 O 0.64305 0.66708 0.85472 0.0
O104 O 0.62023 0.67841 0.8249 0.0
C105 C 0.50561 0.41194 0.81821 0.0
C106 C 0.51436 0.34604 0.82846 0.0
C107 C 0.48294 0.34137 0.81346 0.0
C108 C 0.4786 0.37412 0.8084 0.0
C109 C 0.53647 0.41667 0.83352 0.0
C110 C 0.54077 0.38394 0.83865 0.0
C111 C 0.50166 0.44636 0.81235 0.0
H112 H 0.70829 0.80536 0.88895 0.0
H113 H 0.69255 0.73849 0.87703 0.0
H114 H 0.6006 0.73101 0.82996 0.0
H115 H 0.61705 0.79815 0.84142 0.0
H116 H 0.46201 0.31247 0.80547 0.0
H117 H 0.45449 0.37003 0.79663 0.0
H118 H 0.55758 0.4458 0.84125 0.0
H119 H 0.56562 0.3886 0.85002 0.0
H120 H 0.61511 0.13037 0.16877 0.0
H121 H 0.67232 0.19621 0.22865 0.0
H122 H 0.56584 0.08158 0.22548 0.0
H123 H 0.68023 0.24796 0.2075 0.0
C124 C 0.69425 0.24108 0.19559 0.0
C125 C 0.61622 0.1329 0.18567 0.0
C126 C 0.58743 0.10105 0.19593 0.0
C127 C 0.64654 0.1681 0.19737 0.0
C128 C 0.64809 0.17041 0.21943 0.0
C129 C 0.61931 0.13931 0.22978 0.0
C130 C 0.58905 0.10519 0.21779 0.0
N131 N 0.67578 0.20063 0.18712 0.0
H132 H 0.60212 0.60732 0.50422 0.0
H133 H 0.59736 0.663 0.5615 0.0
H134 H 0.6111 0.56001 0.56384 0.0
H135 H 0.55003 0.66822 0.53838 0.0
C136 C 0.56982 0.68341 0.52667 0.0
C137 C 0.60287 0.60861 0.52113 0.0
C138 C 0.60798 0.58033 0.53288 0.0
C139 C 0.59844 0.63843 0.53133 0.0
C140 C 0.59996 0.63996 0.55336 0.0
C141 C 0.60394 0.61152 0.56507 0.0
C142 C 0.60806 0.58204 0.55475 0.0
N143 N 0.59248 0.66675 0.51959 0.0
H144 H 1.04476 0.57631 0.83242 0.0
H145 H 0.12045 0.60596 0.89159 0.0
H146 H 1.00731 0.60103 0.88867 0.0
H147 H 0.12585 0.55322 0.87613 0.0
C148 C 0.13657 0.56842 0.86204 0.0
C149 C 1.05059 0.5848 0.84908 0.0
C150 C 1.02152 0.58769 0.85929 0.0
C151 C 1.08625 0.5906 0.86079 0.0
C152 C 1.09314 0.60119 0.88251 0.0
C153 C 1.06473 0.60463 0.89275 0.0
C154 C 1.02929 0.59807 0.88095 0.0
N155 N 0.11451 0.58463 0.851 0.0
H156 H 0.2508 0.56224 0.47323 0.0
H157 H 0.24848 0.54088 0.4073 0.0
H158 H 0.22899 0.63426 0.42892 0.0
H159 H 0.25652 0.47589 0.46788 0.0
C160 C 0.23998 0.48851 0.45962 0.0
C161 C 0.24723 0.56988 0.45727 0.0
C162 C 0.23937 0.6011 0.4533 0.0
C163 C 0.25092 0.54852 0.44068 0.0
C164 C 0.24637 0.55808 0.42 0.0
C165 C 0.23673 0.58793 0.41563 0.0
C166 C 0.23404 0.60969 0.43235 0.0
N167 N 0.25844 0.5167 0.44459 0.0
H168 H 0.77878 0.20053 0.81432 0.0
H169 H 0.79359 0.187 0.74997 0.0
H170 H 0.67746 0.15525 0.76672 0.0
H171 H 0.87767 0.22356 0.81505 0.0
C172 C 0.84795 0.20095 0.8081 0.0
C173 C 0.766 0.19095 0.79807 0.0
C174 C 0.72522 0.17702 0.79231 0.0
C175 C 0.79047 0.19348 0.78286 0.0
C176 C 0.77418 0.18347 0.76169 0.0
C177 C 0.73328 0.16951 0.75566 0.0
C178 C 0.70894 0.16566 0.77118 0.0
N179 N 0.83187 0.20741 0.78853 0.0
H180 H 0.5048 0.38961 0.13155 0.0
H181 H 0.54278 0.37924 0.07266 0.0
H182 H 0.53986 0.48527 0.09039 0.0
H183 H 0.53982 0.30264 0.1008 0.0
C184 C 0.54762 0.33243 0.10648 0.0
C185 C 0.51553 0.40224 0.11699 0.0
C186 C 0.52329 0.44087 0.11301 0.0
C187 C 0.52322 0.38044 0.10259 0.0
C188 C 0.53716 0.39659 0.08371 0.0
C189 C 0.54273 0.43427 0.07887 0.0
C190 C 0.53648 0.4565 0.0939 0.0
N191 N 0.51696 0.3421 0.10715 0.0
C192 C 0.37619 0.6187 0.15043 0.0
C193 C 0.35344 0.61215 0.16705 0.0
C194 C 0.4083 0.61187 0.15235 0.0
C195 C 0.43652 0.54618 0.18024 0.0
H196 H 0.51887 0.58949 0.14335 0.0
C197 C 0.5444 0.50455 0.13391 0.0
C198 C 0.51567 0.46447 0.12816 0.0
C199 C 0.53532 0.52835 0.14605 0.0
C200 C 0.49682 0.57735 0.15419 0.0
H201 H 0.34882 0.59715 0.19947 0.0
H202 H 0.40578 0.58611 0.20306 0.0
H203 H 0.48709 0.62695 0.15218 0.0
H204 H 0.4557 0.41722 0.13125 0.0
H205 H 0.4391 0.45876 0.15168 0.0
H206 H 0.44617 0.49651 0.18219 0.0
C207 C 0.39813 0.59558 0.18833 0.0
C208 C 0.47817 0.59871 0.15904 0.0
C209 C 0.36576 0.60228 0.18635 0.0
C210 C 0.47844 0.448 0.13561 0.0
C211 C 0.46911 0.47189 0.14747 0.0
C212 C 0.45565 0.52511 0.17567 0.0
C213 C 0.41866 0.59858 0.17104 0.0
C214 C 0.44615 0.58226 0.17107 0.0
C215 C 0.49706 0.51268 0.15237 0.0
C216 C 0.48438 0.53933 0.1616 0.0
H217 H 0.36779 0.62702 0.13549 0.0
H218 H 0.42302 0.61425 0.1386 0.0
H219 H 0.4121 0.53249 0.18962 0.0
H220 H 0.57357 0.51773 0.12855 0.0
H221 H 0.55787 0.55936 0.14987 0.0
C222 C 0.90127 0.33204 0.50521 0.0
C223 C 0.87093 0.32513 0.48891 0.0
C224 C 0.94144 0.35622 0.50258 0.0
C225 C 1.00484 0.38721 0.46056 0.0
H226 H 1.08843 0.45621 0.50481 0.0
C227 C 0.16996 0.47274 0.44707 0.0
C228 C 0.198 0.47377 0.46315 0.0
C229 C 0.13052 0.45886 0.45053 0.0
C230 C 1.06541 0.43681 0.49237 0.0
H231 H 0.8589 0.34035 0.45761 0.0
H232 H 0.92922 0.38268 0.453 0.0
H233 H 1.01834 0.42666 0.51044 0.0
H234 H 0.20668 0.45988 0.49514 0.0
H235 H 0.13719 0.43463 0.50117 0.0
H236 H 1.0516 0.39643 0.44266 0.0
C237 C 0.92184 0.36879 0.46769 0.0
C238 C 1.02532 0.42002 0.49556 0.0
C239 C 0.88162 0.34461 0.47032 0.0
C240 C 0.18565 0.45978 0.4826 0.0
C241 C 0.14604 0.44571 0.48608 0.0
C242 C 1.04482 0.4039 0.45739 0.0
C243 C 0.95217 0.37397 0.48358 0.0
C244 C 0.99462 0.39477 0.47974 0.0
C245 C 0.11803 0.44505 0.47004 0.0
C246 C 1.07558 0.42862 0.4733 0.0
H247 H 0.89411 0.31705 0.51962 0.0
H248 H 0.96407 0.35923 0.51503 0.0
H249 H 0.98194 0.36724 0.44822 0.0
H250 H 0.17817 0.48202 0.43164 0.0
H251 H 0.10977 0.4589 0.43787 0.0
C252 C 0.65485 0.86684 0.86881 0.0
C253 C 0.68045 0.85091 0.86941 0.0
C254 C 0.67023 0.90802 0.8683 0.0
C255 C 0.76576 1.00627 0.87262 0.0
H256 H 0.7076 1.03146 0.82834 0.0
C257 C 0.8323 0.16333 0.84045 0.0
C258 C 0.82642 0.16333 0.81852 0.0
C259 C 0.81151 0.12796 0.85039 0.0
C260 C 0.72423 1.02495 0.84076 0.0
H261 H 0.74247 0.86598 0.87091 0.0
H262 H 0.76905 0.93712 0.86983 0.0
H263 H 0.67695 0.96467 0.8406 0.0
H264 H 0.79615 0.12613 0.78964 0.0
H265 H 0.76028 1.06469 0.80681 0.0
H266 H 0.81414 1.0659 0.87168 0.0
C267 C 0.73721 0.91821 0.87018 0.0
C268 C 0.70638 0.98676 0.84805 0.0
C269 C 0.72189 0.8772 0.87079 0.0
C270 C 0.80026 0.12731 0.80663 0.0
C271 C 0.77962 0.09206 0.8165 0.0
C272 C 0.78374 1.04444 0.86521 0.0
C273 C 0.7115 0.93406 0.86825 0.0
C274 C 0.72743 0.97653 0.86358 0.0
C275 C 0.78479 0.09193 0.83851 0.0
C276 C 0.76367 1.05376 0.84868 0.0
H277 H 0.62282 0.84736 0.86801 0.0
H278 H 0.64966 0.91932 0.8672 0.0
H279 H 0.78254 0.9996 0.88487 0.0
H280 H 0.85256 0.1908 0.84989 0.0
H281 H 0.81615 0.1289 0.86737 0.0
C282 C 0.87713 0.62295 0.15406 0.0
C283 C 0.90731 0.61623 0.16369 0.0
C284 C 0.83816 0.59122 0.14878 0.0
C285 C 0.76685 0.49056 0.16103 0.0
H286 H 0.7185 0.47799 0.10335 0.0
C287 C 0.59892 0.3876 0.13194 0.0
C288 C 0.58966 0.36206 0.11402 0.0
C289 C 0.6384 0.41678 0.13864 0.0
C290 C 0.7318 0.4811 0.11945 0.0
H291 H 0.91962 0.57056 0.17563 0.0
H292 H 0.85123 0.5157 0.16716 0.0
H293 H 0.78579 0.53418 0.11449 0.0
H294 H 0.61387 0.34589 0.08934 0.0
H295 H 0.68345 0.39809 0.10079 0.0
H296 H 0.71243 0.43793 0.16608 0.0
C297 C 0.85803 0.54559 0.16365 0.0
C298 C 0.77 0.51333 0.12586 0.0
C299 C 0.89713 0.57716 0.16864 0.0
C300 C 0.6205 0.36547 0.10315 0.0
C301 C 0.66004 0.39527 0.10963 0.0
C302 C 0.72833 0.45874 0.15471 0.0
C303 C 0.82843 0.55224 0.15333 0.0
C304 C 0.78781 0.51835 0.1467 0.0
C305 C 0.6692 0.42121 0.12739 0.0
C306 C 0.71055 0.45377 0.13387 0.0
H307 H 0.88368 0.65267 0.15034 0.0
H308 H 0.81561 0.59709 0.14106 0.0
H309 H 0.78001 0.49386 0.17718 0.0
H310 H 0.5756 0.38499 0.14078 0.0
H311 H 0.64476 0.43653 0.15234 0.0
C312 C 0.36272 0.91508 0.54024 0.0
C313 C 0.35356 0.93197 0.5227 0.0
C314 C 0.3401 0.87414 0.54249 0.0
C315 C 0.24997 0.77916 0.52089 0.0
H316 H 0.32577 0.7426 0.51768 0.0
C317 C 0.2148 0.64388 0.46831 0.0
C318 C 0.23918 0.62653 0.4708 0.0
C319 C 0.22048 0.67409 0.48265 0.0
C320 C 0.30375 0.75148 0.5192 0.0
H321 H 0.31077 0.91953 0.49503 0.0
H322 H 0.27113 0.84855 0.49921 0.0
H323 H 0.3496 0.81082 0.52965 0.0
H324 H 0.28534 0.62414 0.49193 0.0
H325 H 0.29315 0.67455 0.51761 0.0
H326 H 0.20411 0.71994 0.50989 0.0
C327 C 0.29585 0.86691 0.51118 0.0
C328 C 0.31763 0.79097 0.52606 0.0
C329 C 0.3187 0.90775 0.50878 0.0
C330 C 0.26615 0.63691 0.48929 0.0
C331 C 0.27111 0.66644 0.50393 0.0
C332 C 0.23591 0.73928 0.51439 0.0
C333 C 0.30758 0.84943 0.52742 0.0
C334 C 0.29115 0.8057 0.52598 0.0
C335 C 0.25002 0.68709 0.50019 0.0
C336 C 0.26288 0.72549 0.51234 0.0
H337 H 0.38875 0.93309 0.55158 0.0
H338 H 0.34949 0.86141 0.55529 0.0
H339 H 0.2289 0.78975 0.52091 0.0
H340 H 0.1926 0.63561 0.45469 0.0
H341 H 0.20345 0.68894 0.47905 0.0
C342 C 0.52057 0.28909 0.81491 0.0
C343 C 0.52187 0.31248 0.8321 0.0
C344 C 0.53292 0.26113 0.81778 0.0
C345 C 0.60218 0.24486 0.85386 0.0
H346 H 0.56865 0.15804 0.81193 0.0
C347 C 0.66188 0.1467 0.80889 0.0
C348 C 0.70036 0.17893 0.80767 0.0
C349 C 0.63536 0.15163 0.81997 0.0
C350 C 0.57812 0.18134 0.82424 0.0
H351 H 0.53441 0.32299 0.86598 0.0
H352 H 0.5556 0.27351 0.87109 0.0
H353 H 0.5255 0.18525 0.8161 0.0
H354 H 0.74242 0.24058 0.81819 0.0
H355 H 0.69623 0.24987 0.83669 0.0
H356 H 0.65482 0.24093 0.86202 0.0
C357 C 0.54578 0.2774 0.85532 0.0
C358 C 0.55348 0.19745 0.82638 0.0
C359 C 0.53365 0.30571 0.8524 0.0
C360 C 0.71297 0.21518 0.81901 0.0
C361 C 0.68634 0.22035 0.82976 0.0
C362 C 0.62649 0.22821 0.85202 0.0
C363 C 0.54666 0.25558 0.83796 0.0
C364 C 0.56646 0.23114 0.8402 0.0
C365 C 0.64659 0.18916 0.82961 0.0
C366 C 0.61602 0.19805 0.8362 0.0
H367 H 0.5122 0.29399 0.79905 0.0
H368 H 0.53395 0.24566 0.80394 0.0
H369 H 0.61313 0.27057 0.86484 0.0
H370 H 0.65173 0.11827 0.80046 0.0
H371 H 0.6054 0.12662 0.81998 0.0
C372 C 0.62245 1.02065 0.49466 0.0
C373 C 0.58715 1.02273 0.49199 0.0
C374 C 0.62094 0.98377 0.49636 0.0
C375 C 0.55043 0.87752 0.50716 0.0
H376 H 0.63534 0.86092 0.49214 0.0
C377 C 0.5593 0.74046 0.53336 0.0
C378 C 0.57432 0.72248 0.52082 0.0
C379 C 0.5618 0.7767 0.5286 0.0
C380 C 0.61102 0.86469 0.49619 0.0
H381 H 0.5225 0.98731 0.48805 0.0
H382 H 0.51963 0.9233 0.48982 0.0
H383 H 0.63693 0.92336 0.48504 0.0
H384 H 0.60408 0.72869 0.4933 0.0
H385 H 0.60721 0.7917 0.48432 0.0
H386 H 0.52341 0.81842 0.51732 0.0
C387 C 0.54876 0.95003 0.49157 0.0
C388 C 0.61225 0.90101 0.49242 0.0
C389 C 0.55031 0.98691 0.49034 0.0
C390 C 0.59228 0.74186 0.5033 0.0
C391 C 0.59422 0.77814 0.49825 0.0
C392 C 0.54887 0.84115 0.51059 0.0
C393 C 0.58403 0.94774 0.49505 0.0
C394 C 0.58217 0.90828 0.49807 0.0
C395 C 0.57865 0.79599 0.51078 0.0
C396 C 0.57947 0.83425 0.50557 0.0
H397 H 0.65138 1.04768 0.49616 0.0
H398 H 0.64889 0.98382 0.49933 0.0
H399 H 0.52686 0.88157 0.51214 0.0
H400 H 0.5457 0.72651 0.54711 0.0
H401 H 0.55065 0.78966 0.53914 0.0
C402 C 0.71566 0.59908 0.83742 0.0
C403 C 0.67996 0.56842 0.82628 0.0
C404 C 0.75181 0.59925 0.83747 0.0
C405 C 0.79348 0.53316 0.82771 0.0
H406 H 0.89286 0.63389 0.83012 0.0
C407 C 0.94699 0.54889 0.85613 0.0
C408 C 0.98165 0.57817 0.84843 0.0
C409 C 0.90967 0.5451 0.84968 0.0
C410 C 0.86546 0.60537 0.82913 0.0
H411 H 0.65483 0.51387 0.80627 0.0
H412 H 0.71792 0.51438 0.80615 0.0
H413 H 0.82949 0.63312 0.82612 0.0
H414 H 1.00407 0.6254 0.82719 0.0
H415 H 0.93849 0.61841 0.81545 0.0
H416 H 0.82946 0.5054 0.83056 0.0
C417 C 0.71786 0.53813 0.81512 0.0
C418 C 0.82895 0.60497 0.82716 0.0
C419 C 0.68158 0.53792 0.81511 0.0
C420 C 0.9778 0.60227 0.8332 0.0
C421 C 0.94028 0.59859 0.82675 0.0
C422 C 0.82999 0.53356 0.82965 0.0
C423 C 0.75359 0.56883 0.82631 0.0
C424 C 0.79238 0.56893 0.8268 0.0
C425 C 0.9058 0.57061 0.83534 0.0
C426 C 0.86664 0.56973 0.83078 0.0
H427 H 0.71579 0.62306 0.8463 0.0
H428 H 0.77831 0.62302 0.84661 0.0
H429 H 0.76617 0.50479 0.82761 0.0
H430 H 0.94913 0.53015 0.86804 0.0
H431 H 0.88424 0.52354 0.8569 0.0
C432 C 0.25956 0.80511 0.17086 0.0
C433 C 0.25257 0.76944 0.16068 0.0
C434 C 0.29644 0.84045 0.17129 0.0
C435 C 0.40343 0.87863 0.16398 0.0
H436 H 0.40748 0.98068 0.16516 0.0
C437 C 0.54878 1.02639 0.19223 0.0
C438 C 0.55475 1.0628 0.18478 0.0
C439 C 0.51351 0.99047 0.18573 0.0
C440 C 0.40712 0.95255 0.16452 0.0
H441 H 0.27946 0.74358 0.14276 0.0
H442 H 0.3434 0.80526 0.14311 0.0
H443 H 0.3431 0.91927 0.16063 0.0
H444 H 0.52897 0.08958 0.16375 0.0
H445 H 0.46752 1.02653 0.1518 0.0
H446 H 0.46744 0.91192 0.16748 0.0
C447 C 0.32055 0.80582 0.15115 0.0
C448 C 0.36994 0.91707 0.16227 0.0
C449 C 0.28364 0.77031 0.15083 0.0
C450 C 0.52546 1.06201 0.16962 0.0
C451 C 0.48994 1.02587 0.16306 0.0
C452 C 0.4406 0.9141 0.16611 0.0
C453 C 0.32763 0.84152 0.16143 0.0
C454 C 0.36742 0.87946 0.16234 0.0
C455 C 0.48291 0.98964 0.17149 0.0
C456 C 0.44315 0.95173 0.16682 0.0
H457 H 0.23661 0.80576 0.17877 0.0
H458 H 0.30064 0.86682 0.17977 0.0
H459 H 0.40312 0.85053 0.16426 0.0
H460 H 0.57067 1.02601 0.20403 0.0
H461 H 0.50948 0.96368 0.19286 0.0
C462 C 0.57193 0.25396 0.48615 0.0
C463 C 0.60245 0.24844 0.49653 0.0
C464 C 0.57396 0.29109 0.48759 0.0
C465 C 0.6444 0.39966 0.50237 0.0
H466 H 0.54679 0.40179 0.50688 0.0
C467 C 0.64327 0.54119 0.53133 0.0
C468 C 0.61217 0.54774 0.52305 0.0
C469 C 0.64359 0.50652 0.52532 0.0
C470 C 0.57429 0.40187 0.50528 0.0
H471 H 0.65935 0.27832 0.51649 0.0
H472 H 0.66261 0.34284 0.51929 0.0
H473 H 0.54431 0.33803 0.5026 0.0
H474 H 0.55778 0.52361 0.5013 0.0
H475 H 0.55839 0.46293 0.49054 0.0
H476 H 0.67443 0.4636 0.5055 0.0
C477 C 0.63727 0.31854 0.50974 0.0
C478 C 0.57289 0.36514 0.50285 0.0
C479 C 0.6353 0.28135 0.50824 0.0
C480 C 0.58233 0.5196 0.5078 0.0
C481 C 0.58245 0.48459 0.50188 0.0
C482 C 0.6458 0.43641 0.50488 0.0
C483 C 0.60651 0.32396 0.49951 0.0
C484 C 0.60797 0.36338 0.50151 0.0
C485 C 0.61264 0.47714 0.51093 0.0
C486 C 0.61081 0.43809 0.50655 0.0
H487 H 0.54626 0.22951 0.47685 0.0
H488 H 0.55 0.29402 0.47917 0.0
H489 H 0.67197 0.39977 0.501 0.0
H490 H 0.66661 0.56226 0.54317 0.0
H491 H 0.66716 0.5019 0.5328 0.0
C492 C 0.42944 0.54486 0.82474 0.0
C493 C 0.46696 0.57972 0.82938 0.0
C494 C 0.394 0.54534 0.82618 0.0
C495 C 0.35061 0.61217 0.83078 0.0
H496 H 0.2666 0.51859 0.85248 0.0
C497 C 0.19132 0.59015 0.83816 0.0
C498 C 0.17417 0.57188 0.8561 0.0
C499 C 0.22712 0.5925 0.83357 0.0
C500 C 0.28971 0.54518 0.84653 0.0
H501 H 0.49622 0.64286 0.83875 0.0
H502 H 0.43427 0.64355 0.8418 0.0
H503 H 0.32866 0.52106 0.84764 0.0
H504 H 0.18153 0.54268 0.88342 0.0
H505 H 0.24335 0.54726 0.87577 0.0
H506 H 0.31161 0.63668 0.83048 0.0
C507 C 0.43227 0.61582 0.8367 0.0
C508 C 0.32537 0.54637 0.84344 0.0
C509 C 0.46791 0.61541 0.83507 0.0
C510 C 0.19369 0.55655 0.86935 0.0
C511 C 0.22918 0.55898 0.86486 0.0
C512 C 0.31476 0.61101 0.83397 0.0
C513 C 0.39473 0.5806 0.83255 0.0
C514 C 0.35652 0.57985 0.83555 0.0
C515 C 0.24638 0.57659 0.84682 0.0
C516 C 0.2839 0.5776 0.8421 0.0
H517 H 0.42728 0.51687 0.81999 0.0
H518 H 0.3659 0.51779 0.82227 0.0
H519 H 0.37359 0.63834 0.82448 0.0
H520 H 0.17708 0.6024 0.82767 0.0
H521 H 0.2393 0.60615 0.81948 0.0
C522 C 1.03038 0.51986 0.17153 0.0
C523 C 1.0312 0.55387 0.16338 0.0
C524 C 0.99387 0.48508 0.17345 0.0
C525 C 0.88509 0.44985 0.17483 0.0
H526 H 0.87364 0.34477 0.16944 0.0
C527 C 0.74827 0.31226 0.20062 0.0
C528 C 0.73228 0.27478 0.18974 0.0
C529 C 0.78406 0.34496 0.19619 0.0
C530 C 0.87602 0.37379 0.17076 0.0
H531 H 0.99357 0.57722 0.15054 0.0
H532 H 0.93055 0.51685 0.15329 0.0
H533 H 0.93649 0.4035 0.16362 0.0
H534 H 0.74173 0.24232 0.1655 0.0
H535 H 0.80427 0.29989 0.15733 0.0
H536 H 0.82446 0.42039 0.18131 0.0
C537 C 0.95799 0.51706 0.15873 0.0
C538 C 0.91247 0.40773 0.16772 0.0
C539 C 0.9944 0.55184 0.15697 0.0
C540 C 0.75319 0.27079 0.17417 0.0
C541 C 0.78922 0.30384 0.16961 0.0
C542 C 0.84868 0.41603 0.1777 0.0
C543 C 0.95698 0.48312 0.16718 0.0
C544 C 0.91775 0.44643 0.16986 0.0
C545 C 0.80518 0.34157 0.18054 0.0
C546 C 0.84358 0.37739 0.17601 0.0
H547 H 1.05799 0.52022 0.17673 0.0
H548 H 0.9947 0.46003 0.18031 0.0
H549 H 0.88774 0.47886 0.17698 0.0
H550 H 0.73315 0.31632 0.21284 0.0
H551 H 0.79545 0.37288 0.2054 0.0
C552 C 0.11594 0.684 0.08433 0.0
C553 C 0.1195 0.65473 0.09559 0.0
C554 C 0.10989 0.68049 0.06232 0.0
C555 C 0.11926 0.67602 0.01574 0.0
H556 H 1.05014 0.57026 0.98823 0.0
C557 C 0.10871 0.64086 0.9265 0.0
C558 C 1.07094 0.61303 0.91593 0.0
C559 C 0.11435 0.64777 0.94836 0.0
C560 C 1.0692 0.6001 0.9956 0.0
H561 H 0.12042 0.59931 0.09254 0.0
H562 H 0.11064 0.59364 0.0545 0.0
H563 H 1.05931 0.57916 0.02625 0.0
H564 H 1.00956 0.57057 0.92019 0.0
H565 H 1.01904 0.58359 0.95799 0.0
H566 H 0.12835 0.69697 0.98491 0.0
C567 C 0.11152 0.61882 0.06253 0.0
C568 C 1.0749 0.60513 0.01746 0.0
C569 C 0.11735 0.62222 0.08441 0.0
C570 C 1.03894 0.59263 0.92773 0.0
C571 C 1.04451 0.59969 0.94949 0.0
C572 C 0.11342 0.67099 0.99379 0.0
C573 C 0.1074 0.64769 0.05118 0.0
C574 C 1.10025 0.64306 0.02784 0.0
C575 C 1.08234 0.62705 0.96013 0.0
C576 C 1.08841 0.63291 0.98345 0.0
H577 H 0.11749 0.70942 0.09249 0.0
H578 H 0.10652 0.7031 0.05406 0.0
H579 H 0.13924 0.70559 0.02324 0.0
H580 H 0.13392 0.65737 0.91789 0.0
H581 H 0.14398 0.66878 0.95606 0.0
C582 C 0.5698 0.10892 0.41542 0.0
C583 C 0.59324 0.14334 0.42898 0.0
C584 C 0.57283 0.11011 0.3939 0.0
C585 C 0.63985 0.17268 0.35527 0.0
H586 H 0.54871 0.10153 0.31507 0.0
C587 C 0.6315 0.17872 0.26401 0.0
C588 C 0.62012 0.14221 0.25306 0.0
C589 C 0.62964 0.18057 0.28563 0.0
C590 C 0.57439 0.1215 0.32617 0.0
H591 H 0.63712 0.20639 0.43059 0.0
H592 H 0.64095 0.2091 0.39301 0.0
H593 H 0.54095 0.10225 0.3522 0.0
H594 H 0.59989 0.07947 0.25675 0.0
H595 H 0.59495 0.08262 0.29413 0.0
H596 H 0.67268 0.1927 0.32882 0.0
C597 C 0.62135 0.18068 0.39895 0.0
C598 C 0.57011 0.12176 0.34749 0.0
C599 C 0.61891 0.17926 0.42052 0.0
C600 C 0.60779 0.1079 0.26443 0.0
C601 C 0.60517 0.10965 0.28588 0.0
C602 C 0.64385 0.17296 0.33386 0.0
C603 C 0.59879 0.146 0.38533 0.0
C604 C 0.6029 0.14701 0.36243 0.0
C605 C 0.61572 0.14588 0.29663 0.0
C606 C 0.61127 0.14703 0.31918 0.0
H607 H 0.55006 0.08069 0.42153 0.0
H608 H 0.55551 0.08254 0.38412 0.0
H609 H 0.66607 0.19201 0.36619 0.0
H610 H 0.64071 0.20569 0.25583 0.0
H611 H 0.63785 0.20886 0.29363 0.0
C612 C 0.5476 0.56216 0.74862 0.0
C613 C 0.57516 0.59223 0.76383 0.0
C614 C 0.55105 0.56699 0.72728 0.0
C615 C 0.62377 0.62583 0.6907 0.0
H616 H 0.52827 0.57952 0.65008 0.0
C617 C 0.62523 0.64675 0.6011 0.0
C618 C 0.60207 0.61152 0.58802 0.0
C619 C 0.62272 0.64657 0.62269 0.0
C620 C 0.5552 0.59246 0.66125 0.0
H621 H 0.62752 0.65141 0.76849 0.0
H622 H 0.6329 0.66038 0.73116 0.0
H623 H 0.52198 0.57642 0.68744 0.0
H624 H 0.55786 0.54868 0.58716 0.0
H625 H 0.5532 0.54842 0.62481 0.0
H626 H 0.65683 0.6423 0.66428 0.0
C627 C 0.60913 0.6326 0.73576 0.0
C628 C 0.55165 0.59057 0.68268 0.0
C629 C 0.6059 0.62758 0.75717 0.0
C630 C 0.57629 0.57618 0.59691 0.0
C631 C 0.57338 0.57611 0.6184 0.0
C632 C 0.6273 0.62813 0.66923 0.0
C633 C 0.58188 0.60223 0.72053 0.0
C634 C 0.58586 0.60667 0.69772 0.0
C635 C 0.59651 0.61129 0.63151 0.0
C636 C 0.59302 0.61095 0.6543 0.0
H637 H 0.52374 0.53438 0.75318 0.0
H638 H 0.52997 0.54259 0.71611 0.0
H639 H 0.65079 0.6381 0.70176 0.0
H640 H 0.64546 0.67436 0.59464 0.0
H641 H 0.64077 0.67413 0.63243 0.0
C642 C 0.58889 0.13618 0.57214 0.0
C643 C 0.60506 0.12211 0.55799 0.0
C644 C 0.59888 0.13693 0.59383 0.0
C645 C 0.67969 0.1402 0.63115 0.0
H646 H 0.6072 0.12013 0.67245 0.0
C647 C 0.72689 0.1404 0.71935 0.0
C648 C 0.71615 0.1607 0.73316 0.0
C649 C 0.71092 0.13262 0.69816 0.0
C650 C 0.62782 0.12605 0.66107 0.0
H651 H 0.64178 0.09497 0.55537 0.0
H652 H 0.65826 0.09538 0.59293 0.0
H653 H 0.58227 0.11111 0.63505 0.0
H654 H 0.68063 0.18927 0.73545 0.0
H655 H 0.65274 0.17555 0.69858 0.0
H656 H 0.72526 0.15538 0.65704 0.0
C657 C 0.63905 0.10712 0.58743 0.0
C658 C 0.61356 0.12093 0.63968 0.0
C659 C 0.62942 0.10671 0.56588 0.0
C660 C 0.68896 0.17289 0.72533 0.0
C661 C 0.67294 0.16503 0.70419 0.0
C662 C 0.69387 0.14518 0.65247 0.0
C663 C 0.62493 0.12333 0.60168 0.0
C664 C 0.63937 0.12797 0.62447 0.0
C665 C 0.68387 0.14498 0.69034 0.0
C666 C 0.66817 0.13827 0.66768 0.0
H667 H 0.57005 0.14824 0.56648 0.0
H668 H 0.58758 0.14972 0.6044 0.0
H669 H 0.70064 0.14677 0.61988 0.0
H670 H 0.74735 0.13019 0.72495 0.0
H671 H 0.71957 0.1167 0.6879 0.0
C672 C 0.56024 0.5094 0.89516 0.0
C673 C 0.5735 0.54893 0.89003 0.0
C674 C 0.55851 0.49967 0.91601 0.0
C675 C 0.60084 0.53821 0.96985 0.0
H676 H 0.50232 0.44843 0.9835 0.0
C677 C 0.57557 0.49007 0.05498 0.0
C678 C 0.55179 0.44906 0.05764 0.0
C679 C 0.58014 0.50413 0.03488 0.0
C680 C 0.53031 0.47317 0.97995 0.0
H681 H 0.59601 0.6094 0.90282 0.0
H682 H 0.59365 0.59228 0.9396 0.0
H683 H 0.50641 0.47007 0.94795 0.0
H684 H 0.51535 0.39067 0.04097 0.0
H685 H 0.5251 0.41481 0.00619 0.0
H686 H 0.62525 0.54058 0.0017 0.0
C687 C 0.58437 0.56896 0.9273 0.0
C688 C 0.53248 0.48573 0.9596 0.0
C689 C 0.5855 0.57867 0.9063 0.0
C690 C 0.53422 0.42239 0.03966 0.0
C691 C 0.5392 0.43637 0.01962 0.0
C692 C 0.59887 0.5253 0.99023 0.0
C693 C 0.57049 0.52927 0.93228 0.0
C694 C 0.56784 0.51809 0.95429 0.0
C695 C 0.56138 0.47749 0.01692 0.0
C696 C 0.56367 0.49228 0.99547 0.0
H697 H 0.55069 0.48572 0.88303 0.0
H698 H 0.54805 0.46892 0.91944 0.0
H699 H 0.62855 0.5631 0.96609 0.0
H700 H 0.59017 0.51148 0.06844 0.0
H701 H 0.59738 0.53599 0.03346 0.0
C702 C 0.20274 0.65889 0.23162 0.0
C703 C 0.1682 0.66052 0.2243 0.0
C704 C 0.20995 0.65231 0.25253 0.0
C705 C 0.18452 0.65729 0.30553 0.0
H706 H 0.21867 0.57963 0.31567 0.0
C707 C 0.19591 0.60161 0.38768 0.0
C708 C 0.22863 0.59614 0.39368 0.0
C709 C 0.18819 0.6097 0.36712 0.0
C710 C 0.20966 0.60177 0.31315 0.0
H711 H 0.11473 0.65768 0.2334 0.0
H712 H 0.1275 0.64621 0.27012 0.0
H713 H 0.20596 0.59427 0.2798 0.0
H714 H 0.27905 0.59508 0.38288 0.0
H715 H 0.26587 0.60962 0.34694 0.0
H716 H 0.18856 0.66504 0.33891 0.0
C717 C 0.14896 0.65014 0.25957 0.0
C718 C 0.2023 0.6101 0.29259 0.0
C719 C 0.14161 0.65661 0.23855 0.0
C720 C 0.25338 0.59874 0.37864 0.0
C721 C 0.24576 0.60701 0.35807 0.0
C722 C 0.19207 0.64908 0.32614 0.0
C723 C 0.1829 0.64728 0.26666 0.0
C724 C 0.18983 0.63807 0.28856 0.0
C725 C 0.21308 0.61262 0.35207 0.0
C726 C 0.20485 0.6213 0.33018 0.0
H727 H 0.22402 0.662 0.22113 0.0
H728 H 0.23672 0.65098 0.25761 0.0
H729 H 0.17533 0.67927 0.3029 0.0
H730 H 0.17591 0.59912 0.39886 0.0
H731 H 0.16235 0.61311 0.36295 0.0
loop_
_geom_bond_atom_site_label_1
_geom_bond_atom_site_label_2
_geom_bond_distance
_geom_bond_site_symmetry_2
_ccdc_geom_bond_type
Tb0 C10 2.825 . S
Tb0 O11 2.347 . S
Tb0 O14 2.366 . S
Tb0 O19 2.418 . S
Tb0 O20 2.384 . S
Tb0 O23 2.479 . S
Tb0 O24 2.471 . S
Eu1 O12 2.418 . S
Eu1 O13 2.384 . S
Eu1 O16 2.479 1_455 S
Eu1 O17 2.471 1_455 S
Eu1 O18 2.347 . S
Eu1 O21 2.366 1_455 S
Eu1 C31 2.825 1_455 S
C2 O18 1.259 . S
C2 O19 1.265 . S
C3 O20 1.255 1_655 S
C3 O21 1.265 . S
C4 C6 1.380 . S
C4 C7 1.374 . S
C4 C10 1.507 . S
C5 C6 1.384 . S
C5 C9 1.387 . S
C5 H32 0.930 . S
C6 C4 1.380 . S
C6 C5 1.384 . S
C6 H33 0.931 . S
C7 C4 1.374 . S
C7 C8 1.390 . S
C7 H34 0.930 . S
C8 C7 1.390 . S
C8 C9 1.391 . S
C8 H35 0.930 . S
C9 C5 1.387 . S
C9 C8 1.391 . S
C10 Tb0 2.825 . S
C10 C4 1.507 . S
C10 O23 1.238 . S
C10 O24 1.247 . S
O11 Tb0 2.347 . S
O11 C15 1.259 . S
O12 Eu1 2.418 . S
O12 C15 1.265 . S
O13 Eu1 2.384 . S
O13 C22 1.255 . S
O14 Tb0 2.366 . S
O14 C22 1.265 . S
C15 O11 1.259 . S
C15 O12 1.265 . S
O16 Eu1 2.479 1_655 S
O16 C31 1.238 . S
O17 Eu1 2.471 1_655 S
O17 C31 1.247 . S
O18 Eu1 2.347 . S
O18 C2 1.259 . S
O19 Tb0 2.418 . S
O19 C2 1.265 . S
O20 Tb0 2.384 . S
O20 C3 1.255 1_455 S
O21 Eu1 2.366 1_655 S
O21 C3 1.265 . S
C22 O13 1.255 . S
C22 O14 1.265 . S
O23 Tb0 2.479 . S
O23 C10 1.238 . S
O24 Tb0 2.471 . S
O24 C10 1.247 . S
C25 C28 1.380 . S
C25 C29 1.374 . S
C25 C31 1.507 . S
C26 C27 1.387 . S
C26 C30 1.391 . S
C27 C26 1.387 . S
C27 C28 1.384 . S
C27 H36 0.930 . S
C28 C25 1.380 . S
C28 C27 1.384 . S
C28 H37 0.931 . S
C29 C25 1.374 . S
C29 C30 1.390 . S
C29 H38 0.930 . S
C30 C26 1.391 . S
C30 C29 1.390 . S
C30 H39 0.930 . S
C31 Eu1 2.825 1_655 S
C31 O16 1.238 . S
C31 O17 1.247 . S
C31 C25 1.507 . S
H32 C5 0.930 . S
H33 C6 0.931 . S
H34 C7 0.930 . S
H35 C8 0.930 . S
H36 C27 0.930 . S
H37 C28 0.931 . S
H38 C29 0.930 . S
H39 C30 0.930 . S
Tb40 C50 2.825 . S
Tb40 O51 2.347 . S
Tb40 O54 2.366 . S
Tb40 O59 2.418 . S
Tb40 O60 2.384 . S
Tb40 O63 2.479 . S
Tb40 O64 2.471 . S
Eu41 O52 2.418 . S
Eu41 O53 2.384 . S
Eu41 O56 2.479 1_545 S
Eu41 O57 2.471 1_545 S
Eu41 O58 2.347 . S
Eu41 O61 2.366 1_545 S
Eu41 C71 2.825 1_545 S
C42 O58 1.259 . S
C42 O59 1.265 . S
C43 O60 1.255 1_565 S
C43 O61 1.265 . S
C44 C46 1.380 . S
C44 C47 1.374 . S
C44 C50 1.507 . S
C45 C46 1.384 . S
C45 C49 1.387 . S
C45 H72 0.930 . S
C46 C44 1.380 . S
C46 C45 1.384 . S
C46 H73 0.931 . S
C47 C44 1.374 . S
C47 C48 1.390 . S
C47 H74 0.930 . S
C48 C47 1.390 . S
C48 C49 1.391 . S
C48 H75 0.930 . S
C49 C45 1.387 . S
C49 C48 1.391 . S
C50 Tb40 2.825 . S
C50 C44 1.507 . S
C50 O63 1.238 . S
C50 O64 1.247 . S
O51 Tb40 2.347 . S
O51 C55 1.259 . S
O52 Eu41 2.418 . S
O52 C55 1.265 . S
O53 Eu41 2.384 . S
O53 C62 1.255 . S
O54 Tb40 2.366 . S
O54 C62 1.265 . S
C55 O51 1.259 . S
C55 O52 1.265 . S
O56 Eu41 2.479 1_565 S
O56 C71 1.238 . S
O57 Eu41 2.471 1_565 S
O57 C71 1.247 . S
O58 Eu41 2.347 . S
O58 C42 1.259 . S
O59 Tb40 2.418 . S
O59 C42 1.265 . S
O60 Tb40 2.384 . S
O60 C43 1.255 1_545 S
O61 Eu41 2.366 1_565 S
O61 C43 1.265 . S
C62 O53 1.255 . S
C62 O54 1.265 . S
O63 Tb40 2.479 . S
O63 C50 1.238 . S
O64 Tb40 2.471 . S
O64 C50 1.247 . S
C65 C68 1.380 . S
C65 C69 1.374 . S
C65 C71 1.507 . S
C66 C67 1.387 . S
C66 C70 1.391 . S
C67 C66 1.387 . S
C67 C68 1.384 . S
C67 H76 0.930 . S
C68 C65 1.380 . S
C68 C67 1.384 . S
C68 H77 0.931 . S
C69 C65 1.374 . S
C69 C70 1.390 . S
C69 H78 0.930 . S
C70 C66 1.391 . S
C70 C69 1.390 . S
C70 H79 0.930 . S
C71 Eu41 2.825 1_565 S
C71 O56 1.238 . S
C71 O57 1.247 . S
C71 C65 1.507 . S
H72 C45 0.930 . S
H73 C46 0.931 . S
H74 C47 0.930 . S
H75 C48 0.930 . S
H76 C67 0.930 . S
H77 C68 0.931 . S
H78 C69 0.930 . S
H79 C70 0.930 . S
Tb80 C90 2.825 . S
Tb80 O91 2.347 . S
Tb80 O94 2.366 . S
Tb80 O99 2.418 . S
Tb80 O100 2.384 . S
Tb80 O103 2.479 . S
Tb80 O104 2.471 . S
Eu81 O92 2.418 . S
Eu81 O93 2.384 . S
Eu81 O96 2.479 . S
Eu81 O97 2.471 . S
Eu81 O98 2.347 . S
Eu81 O101 2.366 . S
Eu81 C111 2.825 . S
C82 O98 1.259 . S
C82 O99 1.265 . S
C83 O100 1.255 . S
C83 O101 1.265 . S
C84 C86 1.380 . S
C84 C87 1.374 . S
C84 C90 1.507 . S
C85 C86 1.384 . S
C85 C89 1.387 . S
C85 H112 0.930 . S
C86 C84 1.380 . S
C86 C85 1.384 . S
C86 H113 0.931 . S
C87 C84 1.374 . S
C87 C88 1.390 . S
C87 H114 0.930 . S
C88 C87 1.390 . S
C88 C89 1.391 . S
C88 H115 0.930 . S
C89 C85 1.387 . S
C89 C88 1.391 . S
C90 Tb80 2.825 . S
C90 C84 1.507 . S
C90 O103 1.238 . S
C90 O104 1.247 . S
O91 Tb80 2.347 . S
O91 C95 1.259 . S
O92 Eu81 2.418 . S
O92 C95 1.265 . S
O93 Eu81 2.384 . S
O93 C102 1.255 . S
O94 Tb80 2.366 . S
O94 C102 1.265 . S
C95 O91 1.259 . S
C95 O92 1.265 . S
O96 Eu81 2.479 . S
O96 C111 1.238 . S
O97 Eu81 2.471 . S
O97 C111 1.247 . S
O98 Eu81 2.347 . S
O98 C82 1.259 . S
O99 Tb80 2.418 . S
O99 C82 1.265 . S
O100 Tb80 2.384 . S
O100 C83 1.255 . S
O101 Eu81 2.366 . S
O101 C83 1.265 . S
C102 O93 1.255 . S
C102 O94 1.265 . S
O103 Tb80 2.479 . S
O103 C90 1.238 . S
O104 Tb80 2.471 . S
O104 C90 1.247 . S
C105 C108 1.380 . S
C105 C109 1.374 . S
C105 C111 1.507 . S
C106 C107 1.387 . S
C106 C110 1.391 . S
C107 C106 1.387 . S
C107 C108 1.384 . S
C107 H116 0.930 . S
C108 C105 1.380 . S
C108 C107 1.384 . S
C108 H117 0.931 . S
C109 C105 1.374 . S
C109 C110 1.390 . S
C109 H118 0.930 . S
C110 C106 1.391 . S
C110 C109 1.390 . S
C110 H119 0.930 . S
C111 Eu81 2.825 . S
C111 O96 1.238 . S
C111 O97 1.247 . S
C111 C105 1.507 . S
H112 C85 0.930 . S
H113 C86 0.931 . S
H114 C87 0.930 . S
H115 C88 0.930 . S
H116 C107 0.930 . S
H117 C108 0.931 . S
H118 C109 0.930 . S
H119 C110 0.930 . S
H120 C125 0.930 . S
H121 C128 0.930 . S
H122 C130 0.930 . S
H123 C124 1.016 . S
C124 H123 1.016 . S
C124 N131 1.286 . S
C125 H120 0.930 . S
C125 C126 1.397 . S
C125 C127 1.361 . S
C126 C125 1.397 . S
C126 C130 1.390 . S
C127 C125 1.361 . S
C127 C128 1.393 . S
C127 N131 1.413 . S
C128 H121 0.930 . S
C128 C127 1.393 . S
C128 C129 1.399 . S
C129 C128 1.399 . S
C129 C130 1.381 . S
C130 H122 0.930 . S
C130 C126 1.390 . S
C130 C129 1.381 . S
N131 C124 1.286 . S
N131 C127 1.413 . S
H132 C137 0.930 . S
H133 C140 0.930 . S
H134 C142 0.930 . S
H135 C136 1.016 . S
C136 H135 1.016 . S
C136 N143 1.286 . S
C137 H132 0.930 . S
C137 C138 1.397 . S
C137 C139 1.361 . S
C138 C137 1.397 . S
C138 C142 1.390 . S
C139 C137 1.361 . S
C139 C140 1.393 . S
C139 N143 1.413 . S
C140 H133 0.930 . S
C140 C139 1.393 . S
C140 C141 1.399 . S
C141 C140 1.399 . S
C141 C142 1.381 . S
C142 H134 0.930 . S
C142 C138 1.390 . S
C142 C141 1.381 . S
N143 C136 1.286 . S
N143 C139 1.413 . S
H144 C149 0.930 . S
H145 C152 0.930 . S
H146 C154 0.930 . S
H147 C148 1.016 . S
C148 H147 1.016 . S
C148 N155 1.286 . S
C149 H144 0.930 . S
C149 C150 1.397 . S
C149 C151 1.361 1_655 S
C150 C149 1.397 . S
C150 C154 1.390 . S
C151 C149 1.361 1_455 S
C151 C152 1.393 . S
C151 N155 1.413 . S
C152 H145 0.930 . S
C152 C151 1.393 . S
C152 C153 1.399 . S
C153 C152 1.399 . S
C153 C154 1.381 1_455 S
C154 H146 0.930 . S
C154 C150 1.390 . S
C154 C153 1.381 1_655 S
N155 C148 1.286 . S
N155 C151 1.413 . S
H156 C161 0.930 . S
H157 C164 0.930 . S
H158 C166 0.930 . S
H159 C160 1.016 . S
C160 H159 1.016 . S
C160 N167 1.286 . S
C161 H156 0.930 . S
C161 C162 1.397 . S
C161 C163 1.361 . S
C162 C161 1.397 . S
C162 C166 1.390 . S
C163 C161 1.361 . S
C163 C164 1.393 1_455 S
C163 N167 1.413 1_455 S
C164 H157 0.930 . S
C164 C163 1.393 1_655 S
C164 C165 1.399 1_655 S
C165 C164 1.399 1_455 S
C165 C166 1.381 . S
C166 H158 0.930 . S
C166 C162 1.390 . S
C166 C165 1.381 . S
N167 C160 1.286 . S
N167 C163 1.413 1_655 S
H168 C173 0.930 . S
H169 C176 0.930 . S
H170 C178 0.930 . S
H171 C172 1.016 . S
C172 H171 1.016 . S
C172 N179 1.286 . S
C173 H168 0.930 . S
C173 C174 1.397 . S
C173 C175 1.361 . S
C174 C173 1.397 . S
C174 C178 1.390 . S
C175 C173 1.361 . S
C175 C176 1.393 1_545 S
C175 N179 1.413 1_545 S
C176 H169 0.930 . S
C176 C175 1.393 1_565 S
C176 C177 1.399 1_565 S
C177 C176 1.399 1_545 S
C177 C178 1.381 . S
C178 H170 0.930 . S
C178 C174 1.390 . S
C178 C177 1.381 . S
N179 C172 1.286 . S
N179 C175 1.413 1_565 S
H180 C185 0.930 . S
H181 C188 0.930 . S
H182 C190 0.930 . S
H183 C184 1.016 . S
C184 H183 1.016 . S
C184 N191 1.286 . S
C185 H180 0.930 . S
C185 C186 1.397 . S
C185 C187 1.361 . S
C186 C185 1.397 . S
C186 C190 1.390 . S
C187 C185 1.361 . S
C187 C188 1.393 . S
C187 N191 1.413 . S
C188 H181 0.930 . S
C188 C187 1.393 . S
C188 C189 1.399 . S
C189 C188 1.399 . S
C189 C190 1.381 . S
C190 H182 0.930 . S
C190 C186 1.390 . S
C190 C189 1.381 . S
N191 C184 1.286 . S
N191 C187 1.413 . S
C192 C193 1.349 . S
C192 C194 1.327 . S
C192 H217 0.950 . S
C193 C192 1.349 . S
C193 C209 1.349 . S
C194 C192 1.327 . S
C194 C213 1.429 . S
C194 H218 0.950 . S
C195 C212 1.574 . S
C195 C214 1.368 . S
C195 H219 0.949 . S
H196 C200 0.949 . S
C197 C198 1.349 . S
C197 C199 1.327 . S
C197 H220 0.950 . S
C198 C197 1.349 . S
C198 C210 1.349 . S
C199 C197 1.327 . S
C199 C215 1.429 . S
C199 H221 0.950 . S
C200 H196 0.949 . S
C200 C208 1.574 . S
C200 C216 1.368 . S
H201 C209 0.950 . S
H202 C207 0.950 . S
H203 C208 0.949 . S
H204 C210 0.950 . S
H205 C211 0.950 . S
H206 C212 0.949 . S
C207 H202 0.950 . S
C207 C209 1.327 . S
C207 C213 1.429 . S
C208 C200 1.574 . S
C208 H203 0.949 . S
C208 C214 1.368 . S
C209 C193 1.349 . S
C209 H201 0.950 . S
C209 C207 1.327 . S
C210 C198 1.349 . S
C210 H204 0.950 . S
C210 C211 1.327 . S
C211 H205 0.950 . S
C211 C210 1.327 . S
C211 C215 1.429 . S
C212 C195 1.574 . S
C212 H206 0.949 . S
C212 C216 1.368 . S
C213 C194 1.429 . S
C213 C207 1.429 . S
C213 C214 1.523 . S
C214 C195 1.368 . S
C214 C208 1.368 . S
C214 C213 1.523 . S
C215 C199 1.429 . S
C215 C211 1.429 . S
C215 C216 1.523 . S
C216 C200 1.368 . S
C216 C212 1.368 . S
C216 C215 1.523 . S
H217 C192 0.950 . S
H218 C194 0.950 . S
H219 C195 0.949 . S
H220 C197 0.950 . S
H221 C199 0.950 . S
C222 C223 1.349 . S
C222 C224 1.327 . S
C222 H247 0.950 . S
C223 C222 1.349 . S
C223 C239 1.349 . S
C224 C222 1.327 . S
C224 C243 1.429 . S
C224 H248 0.950 . S
C225 C242 1.574 . S
C225 C244 1.368 . S
C225 H249 0.949 . S
H226 C230 0.949 . S
C227 C228 1.349 . S
C227 C229 1.327 . S
C227 H250 0.950 . S
C228 C227 1.349 . S
C228 C240 1.349 . S
C229 C227 1.327 . S
C229 C245 1.429 . S
C229 H251 0.950 . S
C230 H226 0.949 . S
C230 C238 1.574 . S
C230 C246 1.368 . S
H231 C239 0.950 . S
H232 C237 0.950 . S
H233 C238 0.949 . S
H234 C240 0.950 . S
H235 C241 0.950 . S
H236 C242 0.949 . S
C237 H232 0.950 . S
C237 C239 1.327 . S
C237 C243 1.429 . S
C238 C230 1.574 . S
C238 H233 0.949 . S
C238 C244 1.368 . S
C239 C223 1.349 . S
C239 H231 0.950 . S
C239 C237 1.327 . S
C240 C228 1.349 . S
C240 H234 0.950 . S
C240 C241 1.327 . S
C241 H235 0.950 . S
C241 C240 1.327 . S
C241 C245 1.429 . S
C242 C225 1.574 . S
C242 H236 0.949 . S
C242 C246 1.368 . S
C243 C224 1.429 . S
C243 C237 1.429 . S
C243 C244 1.523 . S
C244 C225 1.368 . S
C244 C238 1.368 . S
C244 C243 1.523 . S
C245 C229 1.429 . S
C245 C241 1.429 . S
C245 C246 1.523 . S
C246 C230 1.368 . S
C246 C242 1.368 . S
C246 C245 1.523 . S
H247 C222 0.950 . S
H248 C224 0.950 . S
H249 C225 0.949 . S
H250 C227 0.950 . S
H251 C229 0.950 . S
C252 C253 1.349 . S
C252 C254 1.327 . S
C252 H277 0.950 . S
C253 C252 1.349 . S
C253 C269 1.349 . S
C254 C252 1.327 . S
C254 C273 1.429 . S
C254 H278 0.950 . S
C255 C272 1.574 . S
C255 C274 1.368 . S
C255 H279 0.949 . S
H256 C260 0.949 . S
C257 C258 1.349 . S
C257 C259 1.327 . S
C257 H280 0.950 . S
C258 C257 1.349 . S
C258 C270 1.349 . S
C259 C257 1.327 . S
C259 C275 1.429 . S
C259 H281 0.950 . S
C260 H256 0.949 . S
C260 C268 1.574 . S
C260 C276 1.368 . S
H261 C269 0.950 . S
H262 C267 0.950 . S
H263 C268 0.949 . S
H264 C270 0.950 . S
H265 C271 0.950 . S
H266 C272 0.949 . S
C267 H262 0.950 . S
C267 C269 1.327 . S
C267 C273 1.429 . S
C268 C260 1.574 . S
C268 H263 0.949 . S
C268 C274 1.368 . S
C269 C253 1.349 . S
C269 H261 0.950 . S
C269 C267 1.327 . S
C270 C258 1.349 . S
C270 H264 0.950 . S
C270 C271 1.327 . S
C271 H265 0.950 . S
C271 C270 1.327 . S
C271 C275 1.429 . S
C272 C255 1.574 . S
C272 H266 0.949 . S
C272 C276 1.368 . S
C273 C254 1.429 . S
C273 C267 1.429 . S
C273 C274 1.523 . S
C274 C255 1.368 . S
C274 C268 1.368 . S
C274 C273 1.523 . S
C275 C259 1.429 . S
C275 C271 1.429 . S
C275 C276 1.523 . S
C276 C260 1.368 . S
C276 C272 1.368 . S
C276 C275 1.523 . S
H277 C252 0.950 . S
H278 C254 0.950 . S
H279 C255 0.949 . S
H280 C257 0.950 . S
H281 C259 0.950 . S
C282 C283 1.349 . S
C282 C284 1.327 . S
C282 H307 0.950 . S
C283 C282 1.349 . S
C283 C299 1.349 . S
C284 C282 1.327 . S
C284 C303 1.429 . S
C284 H308 0.950 . S
C285 C302 1.574 . S
C285 C304 1.368 . S
C285 H309 0.949 . S
H286 C290 0.949 . S
C287 C288 1.349 . S
C287 C289 1.327 . S
C287 H310 0.950 . S
C288 C287 1.349 . S
C288 C300 1.349 . S
C289 C287 1.327 . S
C289 C305 1.429 . S
C289 H311 0.950 . S
C290 H286 0.949 . S
C290 C298 1.574 . S
C290 C306 1.368 . S
H291 C299 0.950 . S
H292 C297 0.950 . S
H293 C298 0.949 . S
H294 C300 0.950 . S
H295 C301 0.950 . S
H296 C302 0.949 . S
C297 H292 0.950 . S
C297 C299 1.327 . S
C297 C303 1.429 . S
C298 C290 1.574 . S
C298 H293 0.949 . S
C298 C304 1.368 . S
C299 C283 1.349 . S
C299 H291 0.950 . S
C299 C297 1.327 . S
C300 C288 1.349 . S
C300 H294 0.950 . S
C300 C301 1.327 . S
C301 H295 0.950 . S
C301 C300 1.327 . S
C301 C305 1.429 . S
C302 C285 1.574 . S
C302 H296 0.949 . S
C302 C306 1.368 . S
C303 C284 1.429 . S
C303 C297 1.429 . S
C303 C304 1.523 . S
C304 C285 1.368 . S
C304 C298 1.368 . S
C304 C303 1.523 . S
C305 C289 1.429 . S
C305 C301 1.429 . S
C305 C306 1.523 . S
C306 C290 1.368 . S
C306 C302 1.368 . S
C306 C305 1.523 . S
H307 C282 0.950 . S
H308 C284 0.950 . S
H309 C285 0.949 . S
H310 C287 0.950 . S
H311 C289 0.950 . S
C312 C313 1.349 . S
C312 C314 1.327 . S
C312 H337 0.950 . S
C313 C312 1.349 . S
C313 C329 1.349 . S
C314 C312 1.327 . S
C314 C333 1.429 . S
C314 H338 0.950 . S
C315 C332 1.574 . S
C315 C334 1.368 . S
C315 H339 0.949 . S
H316 C320 0.949 . S
C317 C318 1.349 . S
C317 C319 1.327 . S
C317 H340 0.950 . S
C318 C317 1.349 . S
C318 C330 1.349 . S
C319 C317 1.327 . S
C319 C335 1.429 . S
C319 H341 0.950 . S
C320 H316 0.949 . S
C320 C328 1.574 . S
C320 C336 1.368 . S
H321 C329 0.950 . S
H322 C327 0.950 . S
H323 C328 0.949 . S
H324 C330 0.950 . S
H325 C331 0.950 . S
H326 C332 0.949 . S
C327 H322 0.950 . S
C327 C329 1.327 . S
C327 C333 1.429 . S
C328 C320 1.574 . S
C328 H323 0.949 . S
C328 C334 1.368 . S
C329 C313 1.349 . S
C329 H321 0.950 . S
C329 C327 1.327 . S
C330 C318 1.349 . S
C330 H324 0.950 . S
C330 C331 1.327 . S
C331 H325 0.950 . S
C331 C330 1.327 . S
C331 C335 1.429 . S
C332 C315 1.574 . S
C332 H326 0.949 . S
C332 C336 1.368 . S
C333 C314 1.429 . S
C333 C327 1.429 . S
C333 C334 1.523 . S
C334 C315 1.368 . S
C334 C328 1.368 . S
C334 C333 1.523 . S
C335 C319 1.429 . S
C335 C331 1.429 . S
C335 C336 1.523 . S
C336 C320 1.368 . S
C336 C332 1.368 . S
C336 C335 1.523 . S
H337 C312 0.950 . S
H338 C314 0.950 . S
H339 C315 0.949 . S
H340 C317 0.950 . S
H341 C319 0.950 . S
C342 C343 1.349 . S
C342 C344 1.327 . S
C342 H367 0.950 . S
C343 C342 1.349 . S
C343 C359 1.349 . S
C344 C342 1.327 . S
C344 C363 1.429 . S
C344 H368 0.950 . S
C345 C362 1.574 . S
C345 C364 1.368 . S
C345 H369 0.949 . S
H346 C350 0.949 . S
C347 C348 1.349 . S
C347 C349 1.327 . S
C347 H370 0.950 . S
C348 C347 1.349 . S
C348 C360 1.349 . S
C349 C347 1.327 . S
C349 C365 1.429 . S
C349 H371 0.950 . S
C350 H346 0.949 . S
C350 C358 1.574 . S
C350 C366 1.368 . S
H351 C359 0.950 . S
H352 C357 0.950 . S
H353 C358 0.949 . S
H354 C360 0.950 . S
H355 C361 0.950 . S
H356 C362 0.949 . S
C357 H352 0.950 . S
C357 C359 1.327 . S
C357 C363 1.429 . S
C358 C350 1.574 . S
C358 H353 0.949 . S
C358 C364 1.368 . S
C359 C343 1.349 . S
C359 H351 0.950 . S
C359 C357 1.327 . S
C360 C348 1.349 . S
C360 H354 0.950 . S
C360 C361 1.327 . S
C361 H355 0.950 . S
C361 C360 1.327 . S
C361 C365 1.429 . S
C362 C345 1.574 . S
C362 H356 0.949 . S
C362 C366 1.368 . S
C363 C344 1.429 . S
C363 C357 1.429 . S
C363 C364 1.523 . S
C364 C345 1.368 . S
C364 C358 1.368 . S
C364 C363 1.523 . S
C365 C349 1.429 . S
C365 C361 1.429 . S
C365 C366 1.523 . S
C366 C350 1.368 . S
C366 C362 1.368 . S
C366 C365 1.523 . S
H367 C342 0.950 . S
H368 C344 0.950 . S
H369 C345 0.949 . S
H370 C347 0.950 . S
H371 C349 0.950 . S
C372 C373 1.349 . S
C372 C374 1.327 . S
C372 H397 0.950 . S
C373 C372 1.349 . S
C373 C389 1.349 . S
C374 C372 1.327 . S
C374 C393 1.429 . S
C374 H398 0.950 . S
C375 C392 1.574 . S
C375 C394 1.368 . S
C375 H399 0.949 . S
H376 C380 0.949 . S
C377 C378 1.349 . S
C377 C379 1.327 . S
C377 H400 0.950 . S
C378 C377 1.349 . S
C378 C390 1.349 . S
C379 C377 1.327 . S
C379 C395 1.429 . S
C379 H401 0.950 . S
C380 H376 0.949 . S
C380 C388 1.574 . S
C380 C396 1.368 . S
H381 C389 0.950 . S
H382 C387 0.950 . S
H383 C388 0.949 . S
H384 C390 0.950 . S
H385 C391 0.950 . S
H386 C392 0.949 . S
C387 H382 0.950 . S
C387 C389 1.327 . S
C387 C393 1.429 . S
C388 C380 1.574 . S
C388 H383 0.949 . S
C388 C394 1.368 . S
C389 C373 1.349 . S
C389 H381 0.950 . S
C389 C387 1.327 . S
C390 C378 1.349 . S
C390 H384 0.950 . S
C390 C391 1.327 . S
C391 H385 0.950 . S
C391 C390 1.327 . S
C391 C395 1.429 . S
C392 C375 1.574 . S
C392 H386 0.949 . S
C392 C396 1.368 . S
C393 C374 1.429 . S
C393 C387 1.429 . S
C393 C394 1.523 . S
C394 C375 1.368 . S
C394 C388 1.368 . S
C394 C393 1.523 . S
C395 C379 1.429 . S
C395 C391 1.429 . S
C395 C396 1.523 . S
C396 C380 1.368 . S
C396 C392 1.368 . S
C396 C395 1.523 . S
H397 C372 0.950 . S
H398 C374 0.950 . S
H399 C375 0.949 . S
H400 C377 0.950 . S
H401 C379 0.950 . S
C402 C403 1.349 . S
C402 C404 1.327 . S
C402 H427 0.950 . S
C403 C402 1.349 . S
C403 C419 1.349 . S
C404 C402 1.327 . S
C404 C423 1.429 . S
C404 H428 0.950 . S
C405 C422 1.574 . S
C405 C424 1.368 . S
C405 H429 0.949 . S
H406 C410 0.949 . S
C407 C408 1.349 . S
C407 C409 1.327 . S
C407 H430 0.950 . S
C408 C407 1.349 . S
C408 C420 1.349 . S
C409 C407 1.327 . S
C409 C425 1.429 . S
C409 H431 0.950 . S
C410 H406 0.949 . S
C410 C418 1.574 . S
C410 C426 1.368 . S
H411 C419 0.950 . S
H412 C417 0.950 . S
H413 C418 0.949 . S
H414 C420 0.950 . S
H415 C421 0.950 . S
H416 C422 0.949 . S
C417 H412 0.950 . S
C417 C419 1.327 . S
C417 C423 1.429 . S
C418 C410 1.574 . S
C418 H413 0.949 . S
C418 C424 1.368 . S
C419 C403 1.349 . S
C419 H411 0.950 . S
C419 C417 1.327 . S
C420 C408 1.349 . S
C420 H414 0.950 . S
C420 C421 1.327 . S
C421 H415 0.950 . S
C421 C420 1.327 . S
C421 C425 1.429 . S
C422 C405 1.574 . S
C422 H416 0.949 . S
C422 C426 1.368 . S
C423 C404 1.429 . S
C423 C417 1.429 . S
C423 C424 1.523 . S
C424 C405 1.368 . S
C424 C418 1.368 . S
C424 C423 1.523 . S
C425 C409 1.429 . S
C425 C421 1.429 . S
C425 C426 1.523 . S
C426 C410 1.368 . S
C426 C422 1.368 . S
C426 C425 1.523 . S
H427 C402 0.950 . S
H428 C404 0.950 . S
H429 C405 0.949 . S
H430 C407 0.950 . S
H431 C409 0.950 . S
C432 C433 1.349 . S
C432 C434 1.327 . S
C432 H457 0.950 . S
C433 C432 1.349 . S
C433 C449 1.349 . S
C434 C432 1.327 . S
C434 C453 1.429 . S
C434 H458 0.950 . S
C435 C452 1.574 . S
C435 C454 1.368 . S
C435 H459 0.949 . S
H436 C440 0.949 . S
C437 C438 1.349 . S
C437 C439 1.327 . S
C437 H460 0.950 . S
C438 C437 1.349 . S
C438 C450 1.349 . S
C439 C437 1.327 . S
C439 C455 1.429 . S
C439 H461 0.950 . S
C440 H436 0.949 . S
C440 C448 1.574 . S
C440 C456 1.368 . S
H441 C449 0.950 . S
H442 C447 0.950 . S
H443 C448 0.949 . S
H444 C450 0.950 . S
H445 C451 0.950 . S
H446 C452 0.949 . S
C447 H442 0.950 . S
C447 C449 1.327 . S
C447 C453 1.429 . S
C448 C440 1.574 . S
C448 H443 0.949 . S
C448 C454 1.368 . S
C449 C433 1.349 . S
C449 H441 0.950 . S
C449 C447 1.327 . S
C450 C438 1.349 . S
C450 H444 0.950 . S
C450 C451 1.327 . S
C451 H445 0.950 . S
C451 C450 1.327 . S
C451 C455 1.429 . S
C452 C435 1.574 . S
C452 H446 0.949 . S
C452 C456 1.368 . S
C453 C434 1.429 . S
C453 C447 1.429 . S
C453 C454 1.523 . S
C454 C435 1.368 . S
C454 C448 1.368 . S
C454 C453 1.523 . S
C455 C439 1.429 . S
C455 C451 1.429 . S
C455 C456 1.523 . S
C456 C440 1.368 . S
C456 C452 1.368 . S
C456 C455 1.523 . S
H457 C432 0.950 . S
H458 C434 0.950 . S
H459 C435 0.949 . S
H460 C437 0.950 . S
H461 C439 0.950 . S
C462 C463 1.349 . S
C462 C464 1.327 . S
C462 H487 0.950 . S
C463 C462 1.349 . S
C463 C479 1.349 . S
C464 C462 1.327 . S
C464 C483 1.429 . S
C464 H488 0.950 . S
C465 C482 1.574 . S
C465 C484 1.368 . S
C465 H489 0.949 . S
H466 C470 0.949 . S
C467 C468 1.349 . S
C467 C469 1.327 . S
C467 H490 0.950 . S
C468 C467 1.349 . S
C468 C480 1.349 . S
C469 C467 1.327 . S
C469 C485 1.429 . S
C469 H491 0.950 . S
C470 H466 0.949 . S
C470 C478 1.574 . S
C470 C486 1.368 . S
H471 C479 0.950 . S
H472 C477 0.950 . S
H473 C478 0.949 . S
H474 C480 0.950 . S
H475 C481 0.950 . S
H476 C482 0.949 . S
C477 H472 0.950 . S
C477 C479 1.327 . S
C477 C483 1.429 . S
C478 C470 1.574 . S
C478 H473 0.949 . S
C478 C484 1.368 . S
C479 C463 1.349 . S
C479 H471 0.950 . S
C479 C477 1.327 . S
C480 C468 1.349 . S
C480 H474 0.950 . S
C480 C481 1.327 . S
C481 H475 0.950 . S
C481 C480 1.327 . S
C481 C485 1.429 . S
C482 C465 1.574 . S
C482 H476 0.949 . S
C482 C486 1.368 . S
C483 C464 1.429 . S
C483 C477 1.429 . S
C483 C484 1.523 . S
C484 C465 1.368 . S
C484 C478 1.368 . S
C484 C483 1.523 . S
C485 C469 1.429 . S
C485 C481 1.429 . S
C485 C486 1.523 . S
C486 C470 1.368 . S
C486 C482 1.368 . S
C486 C485 1.523 . S
H487 C462 0.950 . S
H488 C464 0.950 . S
H489 C465 0.949 . S
H490 C467 0.950 . S
H491 C469 0.950 . S
C492 C493 1.349 . S
C492 C494 1.327 . S
C492 H517 0.950 . S
C493 C492 1.349 . S
C493 C509 1.349 . S
C494 C492 1.327 . S
C494 C513 1.429 . S
C494 H518 0.950 . S
C495 C512 1.574 . S
C495 C514 1.368 . S
C495 H519 0.949 . S
H496 C500 0.949 . S
C497 C498 1.349 . S
C497 C499 1.327 . S
C497 H520 0.950 . S
C498 C497 1.349 . S
C498 C510 1.349 . S
C499 C497 1.327 . S
C499 C515 1.429 . S
C499 H521 0.950 . S
C500 H496 0.949 . S
C500 C508 1.574 . S
C500 C516 1.368 . S
H501 C509 0.950 . S
H502 C507 0.950 . S
H503 C508 0.949 . S
H504 C510 0.950 . S
H505 C511 0.950 . S
H506 C512 0.949 . S
C507 H502 0.950 . S
C507 C509 1.327 . S
C507 C513 1.429 . S
C508 C500 1.574 . S
C508 H503 0.949 . S
C508 C514 1.368 . S
C509 C493 1.349 . S
C509 H501 0.950 . S
C509 C507 1.327 . S
C510 C498 1.349 . S
C510 H504 0.950 . S
C510 C511 1.327 . S
C511 H505 0.950 . S
C511 C510 1.327 . S
C511 C515 1.429 . S
C512 C495 1.574 . S
C512 H506 0.949 . S
C512 C516 1.368 . S
C513 C494 1.429 . S
C513 C507 1.429 . S
C513 C514 1.523 . S
C514 C495 1.368 . S
C514 C508 1.368 . S
C514 C513 1.523 . S
C515 C499 1.429 . S
C515 C511 1.429 . S
C515 C516 1.523 . S
C516 C500 1.368 . S
C516 C512 1.368 . S
C516 C515 1.523 . S
H517 C492 0.950 . S
H518 C494 0.950 . S
H519 C495 0.949 . S
H520 C497 0.950 . S
H521 C499 0.950 . S
C522 C523 1.349 . S
C522 C524 1.327 . S
C522 H547 0.950 . S
C523 C522 1.349 . S
C523 C539 1.349 . S
C524 C522 1.327 . S
C524 C543 1.429 . S
C524 H548 0.950 . S
C525 C542 1.574 . S
C525 C544 1.368 . S
C525 H549 0.949 . S
H526 C530 0.949 . S
C527 C528 1.349 . S
C527 C529 1.327 . S
C527 H550 0.950 . S
C528 C527 1.349 . S
C528 C540 1.349 . S
C529 C527 1.327 . S
C529 C545 1.429 . S
C529 H551 0.950 . S
C530 H526 0.949 . S
C530 C538 1.574 . S
C530 C546 1.368 . S
H531 C539 0.950 . S
H532 C537 0.950 . S
H533 C538 0.949 . S
H534 C540 0.950 . S
H535 C541 0.950 . S
H536 C542 0.949 . S
C537 H532 0.950 . S
C537 C539 1.327 . S
C537 C543 1.429 . S
C538 C530 1.574 . S
C538 H533 0.949 . S
C538 C544 1.368 . S
C539 C523 1.349 . S
C539 H531 0.950 . S
C539 C537 1.327 . S
C540 C528 1.349 . S
C540 H534 0.950 . S
C540 C541 1.327 . S
C541 H535 0.950 . S
C541 C540 1.327 . S
C541 C545 1.429 . S
C542 C525 1.574 . S
C542 H536 0.949 . S
C542 C546 1.368 . S
C543 C524 1.429 . S
C543 C537 1.429 . S
C543 C544 1.523 . S
C544 C525 1.368 . S
C544 C538 1.368 . S
C544 C543 1.523 . S
C545 C529 1.429 . S
C545 C541 1.429 . S
C545 C546 1.523 . S
C546 C530 1.368 . S
C546 C542 1.368 . S
C546 C545 1.523 . S
H547 C522 0.950 . S
H548 C524 0.950 . S
H549 C525 0.949 . S
H550 C527 0.950 . S
H551 C529 0.950 . S
C552 C553 1.349 . S
C552 C554 1.327 . S
C552 H577 0.950 . S
C553 C552 1.349 . S
C553 C569 1.349 . S
C554 C552 1.327 . S
C554 C573 1.429 . S
C554 H578 0.942 1_455 S
C555 C572 1.574 . S
C555 C574 1.368 . S
C555 H579 0.949 . S
H556 C560 0.949 1_656 S
C557 C558 1.349 . S
C557 C559 1.327 . S
C557 H580 0.950 . S
C558 C557 1.349 . S
C558 C570 1.349 1_455 S
C559 C557 1.327 . S
C559 C575 1.429 . S
C559 H581 0.950 . S
C560 H556 0.949 1_454 S
C560 C568 1.574 . S
C560 C576 1.368 1_554 S
H561 C569 0.950 . S
H562 C567 0.950 . S
H563 C568 0.949 1_655 S
H564 C570 0.950 . S
H565 C571 0.950 . S
H566 C572 0.949 1_556 S
C567 H562 0.950 . S
C567 C569 1.327 . S
C567 C573 1.429 . S
C568 C560 1.574 . S
C568 H563 0.949 1_455 S
C568 C574 1.368 . S
C569 C553 1.349 . S
C569 H561 0.950 . S
C569 C567 1.327 . S
C570 C558 1.349 1_655 S
C570 H564 0.950 . S
C570 C571 1.327 . S
C571 H565 0.950 . S
C571 C570 1.327 . S
C571 C575 1.429 1_655 S
C572 C555 1.574 . S
C572 H566 0.949 1_554 S
C572 C576 1.368 1_554 S
C573 C554 1.429 . S
C573 C567 1.429 . S
C573 C574 1.523 . S
C574 C555 1.368 . S
C574 C568 1.368 . S
C574 C573 1.523 . S
C575 C559 1.429 . S
C575 C571 1.429 1_455 S
C575 C576 1.523 . S
C576 C560 1.368 1_556 S
C576 C572 1.368 1_556 S
C576 C575 1.523 . S
H577 C552 0.950 . S
H578 C554 0.942 1_655 S
H579 C555 0.949 . S
H580 C557 0.950 . S
H581 C559 0.950 . S
C582 C583 1.349 . S
C582 C584 1.327 . S
C582 H607 0.950 . S
C583 C582 1.349 . S
C583 C599 1.349 . S
C584 C582 1.327 . S
C584 C603 1.429 . S
C584 H608 0.950 . S
C585 C602 1.574 . S
C585 C604 1.368 . S
C585 H609 0.949 . S
H586 C590 0.949 . S
C587 C588 1.349 . S
C587 C589 1.327 . S
C587 H610 0.950 . S
C588 C587 1.349 . S
C588 C600 1.349 . S
C589 C587 1.327 . S
C589 C605 1.429 . S
C589 H611 0.950 . S
C590 H586 0.949 . S
C590 C598 1.574 . S
C590 C606 1.368 . S
H591 C599 0.950 . S
H592 C597 0.950 . S
H593 C598 0.949 . S
H594 C600 0.950 . S
H595 C601 0.950 . S
H596 C602 0.949 . S
C597 H592 0.950 . S
C597 C599 1.327 . S
C597 C603 1.429 . S
C598 C590 1.574 . S
C598 H593 0.949 . S
C598 C604 1.368 . S
C599 C583 1.349 . S
C599 H591 0.950 . S
C599 C597 1.327 . S
C600 C588 1.349 . S
C600 H594 0.950 . S
C600 C601 1.327 . S
C601 H595 0.950 . S
C601 C600 1.327 . S
C601 C605 1.429 . S
C602 C585 1.574 . S
C602 H596 0.949 . S
C602 C606 1.368 . S
C603 C584 1.429 . S
C603 C597 1.429 . S
C603 C604 1.523 . S
C604 C585 1.368 . S
C604 C598 1.368 . S
C604 C603 1.523 . S
C605 C589 1.429 . S
C605 C601 1.429 . S
C605 C606 1.523 . S
C606 C590 1.368 . S
C606 C602 1.368 . S
C606 C605 1.523 . S
H607 C582 0.950 . S
H608 C584 0.950 . S
H609 C585 0.949 . S
H610 C587 0.950 . S
H611 C589 0.950 . S
C612 C613 1.349 . S
C612 C614 1.327 . S
C612 H637 0.950 . S
C613 C612 1.349 . S
C613 C629 1.349 . S
C614 C612 1.327 . S
C614 C633 1.429 . S
C614 H638 0.950 . S
C615 C632 1.574 . S
C615 C634 1.368 . S
C615 H639 0.949 . S
H616 C620 0.949 . S
C617 C618 1.349 . S
C617 C619 1.327 . S
C617 H640 0.950 . S
C618 C617 1.349 . S
C618 C630 1.349 . S
C619 C617 1.327 . S
C619 C635 1.429 . S
C619 H641 0.950 . S
C620 H616 0.949 . S
C620 C628 1.574 . S
C620 C636 1.368 . S
H621 C629 0.950 . S
H622 C627 0.950 . S
H623 C628 0.949 . S
H624 C630 0.950 . S
H625 C631 0.950 . S
H626 C632 0.949 . S
C627 H622 0.950 . S
C627 C629 1.327 . S
C627 C633 1.429 . S
C628 C620 1.574 . S
C628 H623 0.949 . S
C628 C634 1.368 . S
C629 C613 1.349 . S
C629 H621 0.950 . S
C629 C627 1.327 . S
C630 C618 1.349 . S
C630 H624 0.950 . S
C630 C631 1.327 . S
C631 H625 0.950 . S
C631 C630 1.327 . S
C631 C635 1.429 . S
C632 C615 1.574 . S
C632 H626 0.949 . S
C632 C636 1.368 . S
C633 C614 1.429 . S
C633 C627 1.429 . S
C633 C634 1.523 . S
C634 C615 1.368 . S
C634 C628 1.368 . S
C634 C633 1.523 . S
C635 C619 1.429 . S
C635 C631 1.429 . S
C635 C636 1.523 . S
C636 C620 1.368 . S
C636 C632 1.368 . S
C636 C635 1.523 . S
H637 C612 0.950 . S
H638 C614 0.950 . S
H639 C615 0.949 . S
H640 C617 0.950 . S
H641 C619 0.950 . S
C642 C643 1.349 . S
C642 C644 1.327 . S
C642 H667 0.950 . S
C643 C642 1.349 . S
C643 C659 1.349 . S
C644 C642 1.327 . S
C644 C663 1.429 . S
C644 H668 0.950 . S
C645 C662 1.574 . S
C645 C664 1.368 . S
C645 H669 0.949 . S
H646 C650 0.949 . S
C647 C648 1.350 . S
C647 C649 1.328 . S
C647 H670 0.948 1_545 S
C648 C647 1.350 . S
C648 C660 1.349 . S
C649 C647 1.328 . S
C649 C665 1.429 . S
C649 H671 0.950 1_545 S
C650 H646 0.949 . S
C650 C658 1.574 . S
C650 C666 1.368 . S
H651 C659 0.950 . S
H652 C657 0.950 . S
H653 C658 0.949 . S
H654 C660 0.950 . S
H655 C661 0.950 . S
H656 C662 0.949 1_565 S
C657 H652 0.950 . S
C657 C659 1.327 . S
C657 C663 1.429 . S
C658 C650 1.574 . S
C658 H653 0.949 . S
C658 C664 1.368 . S
C659 C643 1.349 . S
C659 H651 0.950 . S
C659 C657 1.327 . S
C660 C648 1.349 . S
C660 H654 0.950 . S
C660 C661 1.327 . S
C661 H655 0.950 . S
C661 C660 1.327 . S
C661 C665 1.429 . S
C662 C645 1.574 . S
C662 H656 0.949 1_545 S
C662 C666 1.368 . S
C663 C644 1.429 . S
C663 C657 1.429 . S
C663 C664 1.523 . S
C664 C645 1.368 . S
C664 C658 1.368 . S
C664 C663 1.523 . S
C665 C649 1.429 . S
C665 C661 1.429 . S
C665 C666 1.523 . S
C666 C650 1.368 . S
C666 C662 1.368 . S
C666 C665 1.523 . S
H667 C642 0.950 . S
H668 C644 0.950 . S
H669 C645 0.949 . S
H670 C647 0.948 1_565 S
H671 C649 0.950 1_565 S
C672 C673 1.349 . S
C672 C674 1.327 . S
C672 H697 0.950 . S
C673 C672 1.349 . S
C673 C689 1.349 . S
C674 C672 1.327 . S
C674 C693 1.429 . S
C674 H698 0.950 . S
C675 C692 1.574 . S
C675 C694 1.368 . S
C675 H699 0.949 . S
H676 C680 0.929 1_554 S
C677 C678 1.349 . S
C677 C679 1.327 . S
C677 H700 0.950 . S
C678 C677 1.349 . S
C678 C690 1.349 . S
C679 C677 1.327 . S
C679 C695 1.429 . S
C679 H701 0.950 . S
C680 H676 0.929 1_556 S
C680 C688 1.574 . S
C680 C696 1.368 1_556 S
H681 C689 0.950 . S
H682 C687 0.950 . S
H683 C688 0.949 . S
H684 C690 0.950 . S
H685 C691 0.950 . S
H686 C692 0.949 1_554 S
C687 H682 0.950 . S
C687 C689 1.327 . S
C687 C693 1.429 . S
C688 C680 1.574 . S
C688 H683 0.949 . S
C688 C694 1.368 . S
C689 C673 1.349 . S
C689 H681 0.950 . S
C689 C687 1.327 . S
C690 C678 1.349 . S
C690 H684 0.950 . S
C690 C691 1.327 . S
C691 H685 0.950 . S
C691 C690 1.327 . S
C691 C695 1.429 . S
C692 C675 1.574 . S
C692 H686 0.949 1_556 S
C692 C696 1.368 1_556 S
C693 C674 1.429 . S
C693 C687 1.429 . S
C693 C694 1.523 . S
C694 C675 1.368 . S
C694 C688 1.368 . S
C694 C693 1.523 . S
C695 C679 1.429 . S
C695 C691 1.429 . S
C695 C696 1.523 . S
C696 C680 1.368 1_554 S
C696 C692 1.368 1_554 S
C696 C695 1.523 . S
H697 C672 0.950 . S
H698 C674 0.950 . S
H699 C675 0.949 . S
H700 C677 0.950 . S
H701 C679 0.950 . S
C702 C703 1.349 . S
C702 C704 1.327 . S
C702 H727 0.950 . S
C703 C702 1.349 . S
C703 C719 1.349 . S
C704 C702 1.327 . S
C704 C723 1.429 . S
C704 H728 0.950 . S
C705 C722 1.574 . S
C705 C724 1.368 . S
C705 H729 0.949 . S
H706 C710 0.949 . S
C707 C708 1.349 . S
C707 C709 1.327 . S
C707 H730 0.950 . S
C708 C707 1.349 . S
C708 C720 1.349 . S
C709 C707 1.327 . S
C709 C725 1.429 . S
C709 H731 0.950 . S
C710 H706 0.949 . S
C710 C718 1.574 . S
C710 C726 1.368 . S
H711 C719 0.950 . S
H712 C717 0.950 . S
H713 C718 0.949 . S
H714 C720 0.950 . S
H715 C721 0.950 . S
H716 C722 0.949 . S
C717 H712 0.950 . S
C717 C719 1.327 . S
C717 C723 1.429 . S
C718 C710 1.574 . S
C718 H713 0.949 . S
C718 C724 1.368 . S
C719 C703 1.349 . S
C719 H711 0.950 . S
C719 C717 1.327 . S
C720 C708 1.349 . S
C720 H714 0.950 . S
C720 C721 1.327 . S
C721 H715 0.950 . S
C721 C720 1.327 . S
C721 C725 1.429 . S
C722 C705 1.574 . S
C722 H716 0.949 . S
C722 C726 1.368 . S
C723 C704 1.429 . S
C723 C717 1.429 . S
C723 C724 1.523 . S
C724 C705 1.368 . S
C724 C718 1.368 . S
C724 C723 1.523 . S
C725 C709 1.429 . S
C725 C721 1.429 . S
C725 C726 1.523 . S
C726 C710 1.368 . S
C726 C722 1.368 . S
C726 C725 1.523 . S
H727 C702 0.950 . S
H728 C704 0.950 . S
H729 C705 0.949 . S
H730 C707 0.950 . S
H731 C709 0.950 . S
C193 C9 0.678 . S
C198 C186 0.674 . S
C223 C49 0.358 . S
C228 C160 0.381 . S
C253 C89 0.321 . S
C258 C172 0.367 . S
C283 C26 0.296 . S
C288 C184 0.380 . S
C318 C162 0.203 . S
C313 C66 0.270 . S
C348 C174 0.211 . S
C343 C106 0.298 . S
C373 C43 3.008 . S
C378 C136 2.935 . S
C403 C83 3.354 . S
C408 C150 3.330 . S
C433 C22 3.000 . S
C438 C126 2.951 1_565 S
C468 C138 2.951 . S
C463 C62 2.998 . S
C498 C148 2.570 . S
C493 C102 2.674 . S
C523 C3 3.003 . S
C528 C124 2.932 . S
C558 C153 1.753 . S
C553 C15 1.694 . S
C583 C55 1.734 . S
C588 C129 1.750 . S
C613 C95 1.710 . S
C618 C141 1.728 . S
C648 C177 1.279 . S
C643 C42 1.247 . S
C678 C189 1.289 . S
C673 C82 1.259 . S
C703 C2 1.232 . S
C708 C165 1.253 . S
