# Generated by pormake.
# Topology ctn, (3,4)-cn, num edge types: 1
# Building blocks:
#     Node 0, Type 0, BuildingBlock: VETTIZ_charged_linker_0, # of connection points: 3
#     Node 1, Type 0, BuildingBlock: VETTIZ_charged_linker_0, # of connection points: 3
#     Node 2, Type 0, BuildingBlock: VETTIZ_charged_linker_0, # of connection points: 3
#     Node 3, Type 0, BuildingBlock: VETTIZ_charged_linker_0, # of connection points: 3
#     Node 4, Type 0, BuildingBlock: VETTIZ_charged_linker_0, # of connection points: 3
#     Node 5, Type 0, BuildingBlock: VETTIZ_charged_linker_0, # of connection points: 3
#     Node 6, Type 0, BuildingBlock: VETTIZ_charged_linker_0, # of connection points: 3
#     Node 7, Type 0, BuildingBlock: VETTIZ_charged_linker_0, # of connection points: 3
#     Node 8, Type 0, BuildingBlock: VETTIZ_charged_linker_0, # of connection points: 3
#     Node 9, Type 0, BuildingBlock: VETTIZ_charged_linker_0, # of connection points: 3
#     Node 10, Type 0, BuildingBlock: VETTIZ_charged_linker_0, # of connection points: 3
#     Node 11, Type 0, BuildingBlock: VETTIZ_charged_linker_0, # of connection points: 3
#     Node 12, Type 0, BuildingBlock: VETTIZ_charged_linker_0, # of connection points: 3
#     Node 13, Type 0, BuildingBlock: VETTIZ_charged_linker_0, # of connection points: 3
#     Node 14, Type 0, BuildingBlock: VETTIZ_charged_linker_0, # of connection points: 3
#     Node 15, Type 0, BuildingBlock: VETTIZ_charged_linker_0, # of connection points: 3
#     Node 16, Type 1, BuildingBlock: TATPOV_clean_sbu_0, # of connection points: 4
#     Node 17, Type 1, BuildingBlock: TATPOV_clean_sbu_0, # of connection points: 4
#     Node 18, Type 1, BuildingBlock: TATPOV_clean_sbu_0, # of connection points: 4
#     Node 19, Type 1, BuildingBlock: TATPOV_clean_sbu_0, # of connection points: 4
#     Node 20, Type 1, BuildingBlock: TATPOV_clean_sbu_0, # of connection points: 4
#     Node 21, Type 1, BuildingBlock: TATPOV_clean_sbu_0, # of connection points: 4
#     Node 22, Type 1, BuildingBlock: TATPOV_clean_sbu_0, # of connection points: 4
#     Node 23, Type 1, BuildingBlock: TATPOV_clean_sbu_0, # of connection points: 4
#     Node 24, Type 1, BuildingBlock: TATPOV_clean_sbu_0, # of connection points: 4
#     Node 25, Type 1, BuildingBlock: TATPOV_clean_sbu_0, # of connection points: 4
#     Node 26, Type 1, BuildingBlock: TATPOV_clean_sbu_0, # of connection points: 4
#     Node 27, Type 1, BuildingBlock: TATPOV_clean_sbu_0, # of connection points: 4
#     Edge 28, Type (0, 1), BuildingBlock: MIFKUJ_clean_linker_0, # of connection points: 2
#     Edge 29, Type (0, 1), BuildingBlock: MIFKUJ_clean_linker_0, # of connection points: 2
#     Edge 30, Type (0, 1), BuildingBlock: MIFKUJ_clean_linker_0, # of connection points: 2
#     Edge 31, Type (0, 1), BuildingBlock: MIFKUJ_clean_linker_0, # of connection points: 2
#     Edge 32, Type (0, 1), BuildingBlock: MIFKUJ_clean_linker_0, # of connection points: 2
#     Edge 33, Type (0, 1), BuildingBlock: MIFKUJ_clean_linker_0, # of connection points: 2
#     Edge 34, Type (0, 1), BuildingBlock: MIFKUJ_clean_linker_0, # of connection points: 2
#     Edge 35, Type (0, 1), BuildingBlock: MIFKUJ_clean_linker_0, # of connection points: 2
#     Edge 36, Type (0, 1), BuildingBlock: MIFKUJ_clean_linker_0, # of connection points: 2
#     Edge 37, Type (0, 1), BuildingBlock: MIFKUJ_clean_linker_0, # of connection points: 2
#     Edge 38, Type (0, 1), BuildingBlock: MIFKUJ_clean_linker_0, # of connection points: 2
#     Edge 39, Type (0, 1), BuildingBlock: MIFKUJ_clean_linker_0, # of connection points: 2
#     Edge 40, Type (0, 1), BuildingBlock: MIFKUJ_clean_linker_0, # of connection points: 2
#     Edge 41, Type (0, 1), BuildingBlock: MIFKUJ_clean_linker_0, # of connection points: 2
#     Edge 42, Type (0, 1), BuildingBlock: MIFKUJ_clean_linker_0, # of connection points: 2
#     Edge 43, Type (0, 1), BuildingBlock: MIFKUJ_clean_linker_0, # of connection points: 2
#     Edge 44, Type (0, 1), BuildingBlock: MIFKUJ_clean_linker_0, # of connection points: 2
#     Edge 45, Type (0, 1), BuildingBlock: MIFKUJ_clean_linker_0, # of connection points: 2
#     Edge 46, Type (0, 1), BuildingBlock: MIFKUJ_clean_linker_0, # of connection points: 2
#     Edge 47, Type (0, 1), BuildingBlock: MIFKUJ_clean_linker_0, # of connection points: 2
#     Edge 48, Type (0, 1), BuildingBlock: MIFKUJ_clean_linker_0, # of connection points: 2
#     Edge 49, Type (0, 1), BuildingBlock: MIFKUJ_clean_linker_0, # of connection points: 2
#     Edge 50, Type (0, 1), BuildingBlock: MIFKUJ_clean_linker_0, # of connection points: 2
#     Edge 51, Type (0, 1), BuildingBlock: MIFKUJ_clean_linker_0, # of connection points: 2
#     Edge 52, Type (0, 1), BuildingBlock: MIFKUJ_clean_linker_0, # of connection points: 2
#     Edge 53, Type (0, 1), BuildingBlock: MIFKUJ_clean_linker_0, # of connection points: 2
#     Edge 54, Type (0, 1), BuildingBlock: MIFKUJ_clean_linker_0, # of connection points: 2
#     Edge 55, Type (0, 1), BuildingBlock: MIFKUJ_clean_linker_0, # of connection points: 2
#     Edge 56, Type (0, 1), BuildingBlock: MIFKUJ_clean_linker_0, # of connection points: 2
#     Edge 57, Type (0, 1), BuildingBlock: MIFKUJ_clean_linker_0, # of connection points: 2
#     Edge 58, Type (0, 1), BuildingBlock: MIFKUJ_clean_linker_0, # of connection points: 2
#     Edge 59, Type (0, 1), BuildingBlock: MIFKUJ_clean_linker_0, # of connection points: 2
#     Edge 60, Type (0, 1), BuildingBlock: MIFKUJ_clean_linker_0, # of connection points: 2
#     Edge 61, Type (0, 1), BuildingBlock: MIFKUJ_clean_linker_0, # of connection points: 2
#     Edge 62, Type (0, 1), BuildingBlock: MIFKUJ_clean_linker_0, # of connection points: 2
#     Edge 63, Type (0, 1), BuildingBlock: MIFKUJ_clean_linker_0, # of connection points: 2
#     Edge 64, Type (0, 1), BuildingBlock: MIFKUJ_clean_linker_0, # of connection points: 2
#     Edge 65, Type (0, 1), BuildingBlock: MIFKUJ_clean_linker_0, # of connection points: 2
#     Edge 66, Type (0, 1), BuildingBlock: MIFKUJ_clean_linker_0, # of connection points: 2
#     Edge 67, Type (0, 1), BuildingBlock: MIFKUJ_clean_linker_0, # of connection points: 2
#     Edge 68, Type (0, 1), BuildingBlock: MIFKUJ_clean_linker_0, # of connection points: 2
#     Edge 69, Type (0, 1), BuildingBlock: MIFKUJ_clean_linker_0, # of connection points: 2
#     Edge 70, Type (0, 1), BuildingBlock: MIFKUJ_clean_linker_0, # of connection points: 2
#     Edge 71, Type (0, 1), BuildingBlock: MIFKUJ_clean_linker_0, # of connection points: 2
#     Edge 72, Type (0, 1), BuildingBlock: MIFKUJ_clean_linker_0, # of connection points: 2
#     Edge 73, Type (0, 1), BuildingBlock: MIFKUJ_clean_linker_0, # of connection points: 2
#     Edge 74, Type (0, 1), BuildingBlock: MIFKUJ_clean_linker_0, # of connection points: 2
#     Edge 75, Type (0, 1), BuildingBlock: MIFKUJ_clean_linker_0, # of connection points: 2
# Relax obj value: 0.003
# Max RMSD: 0.049
# Mean RMSD: 0.021
data_MOF--net-ctn--node1-TATPOV_clean_sbu_0--node2-VETTIZ_charged_linker_0--edge1-MIFKUJ_clean_linker_0
_symmetry_space_group_name_H-M    P1
_symmetry_Int_Tables_number       1
_symmetry_cell_setting            triclinic
loop_
_symmetry_equiv_pos_as_xyz
'x, y, z'
_cell_length_a     83.560558
_cell_length_b     83.578606
_cell_length_c     83.599249
_cell_angle_alpha  90.925044
_cell_angle_beta   90.925624
_cell_angle_gamma 90.909081
loop_
_atom_site_label
_atom_site_type_symbol
_atom_site_fract_x
_atom_site_fract_y
_atom_site_fract_z
_atom_type_partial_charge
C0 C 0.03825 0.07952 0.99563 0.0
C1 C 0.02614 0.09102 0.99648 0.0
C2 C 0.01478 0.08986 0.00873 0.0
C3 C 0.02757 0.06611 0.01884 0.0
C4 C 0.03874 0.06726 0.00688 0.0
C5 C 0.05085 0.05414 0.0077 0.0
H6 H 0.07863 0.98787 0.04392 0.0
C7 C 0.0314 0.05196 0.02853 0.0
C8 C 0.04505 0.0449 0.02206 0.0
H9 H 0.09773 0.01181 0.00272 0.0
H10 H 0.077 0.03145 0.00429 0.0
H11 H 0.07134 0.01985 0.06427 0.0
H12 H 0.04163 0.99021 0.03293 0.0
H13 H 0.03003 0.99563 0.04943 0.0
H14 H 0.04776 0.98395 0.0525 0.0
H15 H 0.06449 0.00024 0.0697 0.0
H16 H 0.05258 0.01771 0.07326 0.0
C17 C 0.06757 0.06196 0.01083 0.0
C18 C 0.04942 0.04403 0.99203 0.0
C19 C 0.99635 0.0373 0.0755 0.0
C20 C 0.99678 0.02483 0.08663 0.0
C21 C 0.00907 0.01348 0.08552 0.0
C22 C 0.02066 0.01452 0.07362 0.0
C23 C 0.02005 0.02703 0.06261 0.0
C24 C 0.00803 0.03815 0.06366 0.0
C25 C 0.00924 0.05061 0.05092 0.0
C26 C 0.02394 0.04513 0.04204 0.0
C27 C 0.03025 0.03132 0.04894 0.0
C28 C 0.01203 0.06713 0.05926 0.0
C29 C 0.9939 0.04937 0.04027 0.0
C30 C 0.07827 0.99726 0.03515 0.0
C31 C 0.08993 0.99826 0.0232 0.0
C32 C 0.08909 0.01085 0.01219 0.0
C33 C 0.07695 0.02221 0.01306 0.0
C34 C 0.06543 0.02106 0.02506 0.0
C35 C 0.06621 0.00873 0.03586 0.0
C36 C 0.05295 0.00942 0.04782 0.0
C37 C 0.04409 0.02418 0.04243 0.0
C38 C 0.05145 0.03094 0.02908 0.0
C39 C 0.06061 0.01182 0.06471 0.0
C40 C 0.04253 0.994 0.04575 0.0
H41 H 0.00639 0.07731 0.02884 0.0
H42 H 0.04729 0.08014 0.98651 0.0
H43 H 0.03671 0.04291 0.98791 0.0
H44 H 0.05338 0.03159 0.99347 0.0
H45 H 0.0563 0.04965 0.98228 0.0
H46 H 0.0667 0.07269 0.01881 0.0
H47 H 0.07304 0.06587 0.99949 0.0
H48 H 0.07592 0.05402 0.01713 0.0
H49 H 0.98723 0.04634 0.07607 0.0
H50 H 0.00959 0.00362 0.09375 0.0
H51 H 0.02964 0.00548 0.07343 0.0
H52 H 0.01968 0.06603 0.07019 0.0
H53 H 0.00053 0.07244 0.06296 0.0
H54 H 0.01852 0.07574 0.05175 0.0
H55 H 0.98982 0.03669 0.03876 0.0
H56 H 0.99576 0.05358 0.02798 0.0
H57 H 0.98395 0.05613 0.04568 0.0
H58 H 0.0052 0.0984 0.00957 0.0
C59 C 0.01542 0.07751 0.01987 0.0
C60 C 0.24063 0.67669 0.24504 0.0
C61 C 0.22626 0.67368 0.23642 0.0
C62 C 0.22179 0.68427 0.22422 0.0
C63 C 0.24596 0.70017 0.22912 0.0
C64 C 0.25025 0.68989 0.24118 0.0
C65 C 0.26606 0.69451 0.24892 0.0
H66 H 0.33305 0.74105 0.24987 0.0
C67 C 0.25878 0.71247 0.2279 0.0
C68 C 0.27058 0.70923 0.23949 0.0
H69 H 0.32109 0.70229 0.28132 0.0
H70 H 0.29523 0.69903 0.26826 0.0
H71 H 0.29973 0.75771 0.25272 0.0
H72 H 0.31713 0.72538 0.21659 0.0
H73 H 0.30811 0.74181 0.20723 0.0
H74 H 0.3252 0.74518 0.22025 0.0
H75 H 0.31245 0.76456 0.23709 0.0
H76 H 0.29094 0.76343 0.23453 0.0
C77 C 0.2632 0.69863 0.26679 0.0
C78 C 0.27777 0.68059 0.24607 0.0
C79 C 0.25495 0.75482 0.18514 0.0
C80 C 0.26497 0.76771 0.18097 0.0
C81 C 0.27912 0.77076 0.19 0.0
C82 C 0.28342 0.76088 0.20273 0.0
C83 C 0.27344 0.74783 0.20653 0.0
C84 C 0.25934 0.74515 0.19796 0.0
C85 C 0.25 0.731 0.20393 0.0
C86 C 0.26084 0.72557 0.21747 0.0
C87 C 0.27464 0.73534 0.21882 0.0
C88 C 0.23374 0.73701 0.21011 0.0
C89 C 0.24863 0.71835 0.19019 0.0
C90 C 0.32485 0.73179 0.25379 0.0
C91 C 0.3291 0.72175 0.26646 0.0
C92 C 0.31803 0.71011 0.27156 0.0
C93 C 0.30306 0.70821 0.26392 0.0
C94 C 0.29905 0.71814 0.25109 0.0
C95 C 0.30974 0.72989 0.24642 0.0
C96 C 0.303 0.73992 0.23319 0.0
C97 C 0.28674 0.73189 0.23035 0.0
C98 C 0.2846 0.71902 0.24075 0.0
C99 C 0.30151 0.75735 0.23956 0.0
C100 C 0.31391 0.73813 0.2185 0.0
H101 H 0.22751 0.705 0.21107 0.0
H102 H 0.24434 0.66895 0.25463 0.0
H103 H 0.27622 0.67554 0.23373 0.0
H104 H 0.29047 0.68431 0.24701 0.0
H105 H 0.27558 0.67074 0.25457 0.0
H106 H 0.25104 0.70355 0.26854 0.0
H107 H 0.26423 0.68786 0.27432 0.0
H108 H 0.27146 0.7081 0.27153 0.0
H109 H 0.24392 0.75229 0.17853 0.0
H110 H 0.28708 0.78055 0.18693 0.0
H111 H 0.29445 0.76365 0.20898 0.0
H112 H 0.23508 0.74914 0.2157 0.0
H113 H 0.22479 0.73777 0.20019 0.0
H114 H 0.22878 0.72948 0.21963 0.0
H115 H 0.25979 0.71813 0.18311 0.0
H116 H 0.24713 0.70601 0.19451 0.0
H117 H 0.23857 0.72103 0.18187 0.0
H118 H 0.21091 0.68216 0.21725 0.0
C119 C 0.23153 0.69749 0.22056 0.0
C120 C 0.98445 0.41046 0.01549 0.0
C121 C 0.97339 0.40526 0.00356 0.0
C122 C 0.95927 0.41404 0.00124 0.0
C123 C 0.96735 0.43263 0.02251 0.0
C124 C 0.98124 0.42413 0.02471 0.0
C125 C 0.99196 0.43146 0.03755 0.0
H126 H 0.004 0.48801 0.09549 0.0
C127 C 0.96758 0.44611 0.03418 0.0
C128 C 0.98199 0.44548 0.04302 0.0
H129 H 0.03655 0.45124 0.08048 0.0
H130 H 0.01743 0.44197 0.06019 0.0
H131 H 0.9732 0.46719 0.09488 0.0
H132 H 0.99313 0.49786 0.05928 0.0
H133 H 0.97252 0.5016 0.06013 0.0
H134 H 0.9849 0.50511 0.07768 0.0
H135 H 0.97078 0.48847 0.09573 0.0
H136 H 0.95678 0.47549 0.08486 0.0
C137 C 0.99415 0.41904 0.05093 0.0
C138 C 0.00778 0.43702 0.02975 0.0
C139 C 0.92143 0.48509 0.03589 0.0
C140 C 0.91802 0.4982 0.04605 0.0
C141 C 0.92849 0.50172 0.05909 0.0
C142 C 0.94236 0.49288 0.06157 0.0
C143 C 0.94584 0.48022 0.05101 0.0
C144 C 0.93525 0.47622 0.03869 0.0
C145 C 0.94052 0.46178 0.02926 0.0
C146 C 0.95631 0.45819 0.03762 0.0
C147 C 0.95941 0.46918 0.0502 0.0
C148 C 0.92791 0.44822 0.0314 0.0
C149 C 0.94294 0.46677 0.01169 0.0
C150 C 0.00699 0.47795 0.08783 0.0
C151 C 0.02172 0.47027 0.08957 0.0
C152 C 0.02529 0.45738 0.07924 0.0
C153 C 0.01414 0.45198 0.06756 0.0
C154 C 0.99933 0.45964 0.06614 0.0
C155 C 0.99607 0.47251 0.07606 0.0
C156 C 0.97995 0.47949 0.07265 0.0
C157 C 0.97401 0.46865 0.05903 0.0
C158 C 0.98532 0.45698 0.05534 0.0
C159 C 0.96959 0.47773 0.08778 0.0
C160 C 0.98261 0.49697 0.06723 0.0
H161 H 0.94528 0.43382 0.00822 0.0
H162 H 0.99537 0.404 0.01771 0.0
H163 H 0.0058 0.44024 0.01701 0.0
H164 H 0.01292 0.44802 0.03545 0.0
H165 H 0.01685 0.42746 0.03004 0.0
H166 H 0.98257 0.4129 0.05344 0.0
H167 H 0.00281 0.40975 0.04736 0.0
H168 H 0.99818 0.42447 0.06245 0.0
H169 H 0.91375 0.48197 0.02573 0.0
H170 H 0.926 0.51138 0.06743 0.0
H171 H 0.94988 0.49633 0.07159 0.0
H172 H 0.9225 0.44891 0.04346 0.0
H173 H 0.91803 0.44901 0.02241 0.0
H174 H 0.93309 0.43616 0.03072 0.0
H175 H 0.94862 0.47888 0.0112 0.0
H176 H 0.95107 0.45881 0.00513 0.0
H177 H 0.93132 0.46716 0.00508 0.0
H178 H 0.95069 0.41059 0.99192 0.0
C179 C 0.95618 0.42764 0.01065 0.0
C180 C 0.68362 0.77051 0.25713 0.0
C181 C 0.67419 0.75641 0.25749 0.0
C182 C 0.67698 0.74415 0.24613 0.0
C183 C 0.69795 0.7602 0.23422 0.0
C184 C 0.69534 0.77214 0.24546 0.0
C185 C 0.70616 0.78648 0.24327 0.0
H186 H 0.7662 0.82234 0.20302 0.0
C187 C 0.71084 0.76577 0.22363 0.0
C188 C 0.71573 0.78115 0.22891 0.0
H189 H 0.73925 0.84149 0.24256 0.0
H190 H 0.72369 0.81709 0.24351 0.0
H191 H 0.73537 0.80819 0.1842 0.0
H192 H 0.76957 0.78672 0.21597 0.0
H193 H 0.76568 0.77297 0.20021 0.0
H194 H 0.77435 0.79231 0.19594 0.0
H195 H 0.7553 0.80358 0.17814 0.0
H196 H 0.73914 0.78905 0.17636 0.0
C197 C 0.69558 0.80106 0.23947 0.0
C198 C 0.71683 0.78858 0.25851 0.0
C199 C 0.72793 0.73082 0.17676 0.0
C200 C 0.73935 0.73293 0.16476 0.0
C201 C 0.74915 0.74684 0.16522 0.0
C202 C 0.74737 0.75858 0.17717 0.0
C203 C 0.73566 0.75647 0.18884 0.0
C204 C 0.72629 0.74269 0.18862 0.0
C205 C 0.71451 0.7425 0.20205 0.0
C206 C 0.71819 0.75855 0.21018 0.0
C207 C 0.73055 0.76668 0.20236 0.0
C208 C 0.6974 0.74178 0.19463 0.0
C209 C 0.71856 0.7283 0.21302 0.0
C210 C 0.75687 0.82138 0.21181 0.0
C211 C 0.75415 0.83392 0.22283 0.0
C212 C 0.74192 0.83196 0.23414 0.0
C213 C 0.73276 0.81779 0.2346 0.0
C214 C 0.73569 0.80538 0.22357 0.0
C215 C 0.74749 0.80735 0.21234 0.0
C216 C 0.74856 0.79309 0.20122 0.0
C217 C 0.73558 0.78219 0.20774 0.0
C218 C 0.72814 0.78942 0.22088 0.0
C219 C 0.74451 0.79865 0.18403 0.0
C220 C 0.76542 0.78587 0.20326 0.0
H221 H 0.6902 0.73625 0.22615 0.0
H222 H 0.68195 0.7801 0.26578 0.0
H223 H 0.7207 0.77676 0.26295 0.0
H224 H 0.72803 0.79534 0.2564 0.0
H225 H 0.71023 0.79462 0.26826 0.0
H226 H 0.68452 0.7973 0.23273 0.0
H227 H 0.69184 0.80729 0.2506 0.0
H228 H 0.70154 0.80977 0.23164 0.0
H229 H 0.72013 0.72034 0.17671 0.0
H230 H 0.75824 0.74865 0.15631 0.0
H231 H 0.75514 0.7689 0.17678 0.0
H232 H 0.69667 0.74925 0.18376 0.0
H233 H 0.69392 0.72933 0.19105 0.0
H234 H 0.68825 0.74661 0.20268 0.0
H235 H 0.73169 0.72627 0.21351 0.0
H236 H 0.71525 0.73046 0.2256 0.0
H237 H 0.71267 0.71704 0.20858 0.0
H238 H 0.66978 0.73325 0.24598 0.0
C239 C 0.68879 0.74596 0.23454 0.0
C240 C 0.03929 0.92207 0.49057 0.0
C241 C 0.0304 0.90807 0.48707 0.0
C242 C 0.02342 0.9058 0.47175 0.0
C243 C 0.03387 0.93168 0.4638 0.0
C244 C 0.04105 0.93357 0.47875 0.0
C245 C 0.05097 0.94867 0.48024 0.0
H246 H 0.08204 0.0145 0.44588 0.0
C247 C 0.03814 0.94586 0.45432 0.0
C248 C 0.04833 0.95572 0.46383 0.0
H249 H 0.09134 0.99689 0.49343 0.0
H250 H 0.07191 0.97561 0.48897 0.0
H251 H 0.04382 0.00951 0.44714 0.0
H252 H 0.08137 0.98081 0.42784 0.0
H253 H 0.06549 0.98055 0.41377 0.0
H254 H 0.07519 0.9993 0.41923 0.0
H255 H 0.05279 0.01388 0.42833 0.0
H256 H 0.03585 0.00031 0.42971 0.0
C257 C 0.04383 0.95928 0.49363 0.0
C258 C 0.06866 0.94396 0.48318 0.0
C259 C 0.01269 0.95381 0.3994 0.0
C260 C 0.01387 0.96622 0.38827 0.0
C261 C 0.02494 0.97886 0.39126 0.0
C262 C 0.0343 0.97942 0.4053 0.0
C263 C 0.0326 0.96723 0.41655 0.0
C264 C 0.02213 0.95456 0.41342 0.0
C265 C 0.02201 0.94266 0.42676 0.0
C266 C 0.03362 0.95066 0.43868 0.0
C267 C 0.03979 0.96501 0.43259 0.0
C268 C 0.00483 0.94157 0.43335 0.0
C269 C 0.02843 0.92657 0.42022 0.0
C270 C 0.07984 0.00605 0.45533 0.0
C271 C 0.0883 0.00728 0.46998 0.0
C272 C 0.0849 0.99626 0.48209 0.0
C273 C 0.07373 0.9838 0.4794 0.0
C274 C 0.06587 0.98232 0.46444 0.0
C275 C 0.06872 0.99353 0.45283 0.0
C276 C 0.05906 0.9902 0.43778 0.0
C277 C 0.05046 0.97475 0.44205 0.0
C278 C 0.05454 0.9702 0.45765 0.0
C279 C 0.0473 0.00418 0.43544 0.0
C280 C 0.07078 0.98767 0.42382 0.0
H281 H 0.01933 0.91534 0.44868 0.0
H282 H 0.045 0.9239 0.5022 0.0
H283 H 0.07131 0.93232 0.47723 0.0
H284 H 0.0773 0.9525 0.47803 0.0
H285 H 0.07136 0.94275 0.49615 0.0
H286 H 0.03053 0.95838 0.49342 0.0
H287 H 0.04809 0.95553 0.50564 0.0
H288 H 0.04657 0.97215 0.49222 0.0
H289 H 0.00445 0.94383 0.39735 0.0
H290 H 0.02598 0.98864 0.38297 0.0
H291 H 0.04231 0.98948 0.40697 0.0
H292 H 0.99978 0.95373 0.43485 0.0
H293 H 0.99679 0.93461 0.42502 0.0
H294 H 0.0043 0.93611 0.44524 0.0
H295 H 0.03693 0.92851 0.4103 0.0
H296 H 0.03539 0.92004 0.42931 0.0
H297 H 0.01853 0.91872 0.41551 0.0
H298 H 0.01655 0.895 0.4689 0.0
C299 C 0.02503 0.91761 0.4601 0.0
C300 C 0.25826 0.68543 0.76806 0.0
C301 C 0.25697 0.67417 0.75539 0.0
C302 C 0.24411 0.67519 0.74436 0.0
C303 C 0.23378 0.69798 0.75898 0.0
C304 C 0.2465 0.69711 0.76968 0.0
C305 C 0.2455 0.7094 0.78299 0.0
H306 H 0.20354 0.76767 0.81991 0.0
C307 C 0.22328 0.711 0.76441 0.0
C308 C 0.23005 0.71772 0.77852 0.0
H309 H 0.2493 0.74853 0.83425 0.0
H310 H 0.24901 0.73126 0.81088 0.0
H311 H 0.18716 0.7346 0.80835 0.0
H312 H 0.21254 0.77137 0.78323 0.0
H313 H 0.19713 0.76445 0.77027 0.0
H314 H 0.19217 0.77368 0.7892 0.0
H315 H 0.17912 0.75406 0.8049 0.0
H316 H 0.17655 0.73798 0.79043 0.0
C317 C 0.24415 0.70044 0.79901 0.0
C318 C 0.26023 0.72081 0.78204 0.0
C319 C 0.17245 0.72309 0.73285 0.0
C320 C 0.16019 0.73422 0.73512 0.0
C321 C 0.16115 0.74473 0.74848 0.0
C322 C 0.174 0.74414 0.75941 0.0
C323 C 0.1861 0.7329 0.75702 0.0
C324 C 0.18523 0.72266 0.74389 0.0
C325 C 0.19915 0.71147 0.74334 0.0
C326 C 0.20861 0.71685 0.7582 0.0
C327 C 0.20086 0.72934 0.76619 0.0
C328 C 0.19256 0.69411 0.74472 0.0
C329 C 0.20848 0.71472 0.72783 0.0
C330 C 0.2136 0.75991 0.81797 0.0
C331 C 0.22637 0.75942 0.82913 0.0
C332 C 0.23912 0.74896 0.82609 0.0
C333 C 0.23899 0.73898 0.81243 0.0
C334 C 0.22598 0.7394 0.8016 0.0
C335 C 0.21369 0.74991 0.80436 0.0
C336 C 0.20101 0.74901 0.7914 0.0
C337 C 0.20758 0.73605 0.78054 0.0
C338 C 0.22216 0.73037 0.78661 0.0
C339 C 0.18504 0.74375 0.79906 0.0
C340 C 0.20051 0.76546 0.78309 0.0
H341 H 0.22303 0.68711 0.7373 0.0
H342 H 0.2679 0.6848 0.77684 0.0
H343 H 0.26353 0.72282 0.76938 0.0
H344 H 0.25796 0.73287 0.787 0.0
H345 H 0.2708 0.71575 0.78827 0.0
H346 H 0.23651 0.68947 0.79749 0.0
H347 H 0.2561 0.6967 0.80343 0.0
H348 H 0.23837 0.70753 0.80847 0.0
H349 H 0.172 0.71472 0.72282 0.0
H350 H 0.15203 0.75359 0.75041 0.0
H351 H 0.174 0.75246 0.76931 0.0
H352 H 0.18172 0.69371 0.75227 0.0
H353 H 0.18918 0.68896 0.73279 0.0
H354 H 0.20107 0.68607 0.7507 0.0
H355 H 0.2089 0.72775 0.7253 0.0
H356 H 0.22113 0.71116 0.72863 0.0
H357 H 0.20267 0.70852 0.71736 0.0
H358 H 0.24294 0.66673 0.73444 0.0
C359 C 0.23257 0.68705 0.74604 0.0
C360 C 0.89955 0.51772 0.47301 0.0
C361 C 0.89508 0.50581 0.46172 0.0
C362 C 0.90401 0.50409 0.44766 0.0
C363 C 0.92205 0.52554 0.4567 0.0
C364 C 0.91291 0.5275 0.47021 0.0
C365 C 0.91901 0.54097 0.48087 0.0
H366 H 0.97408 0.59951 0.49642 0.0
C367 C 0.93535 0.53743 0.45764 0.0
C368 C 0.93349 0.54661 0.47169 0.0
H369 H 0.93208 0.58759 0.52356 0.0
H370 H 0.92526 0.56624 0.50474 0.0
H371 H 0.95777 0.59788 0.46352 0.0
H372 H 0.98427 0.56199 0.48838 0.0
H373 H 0.99074 0.56218 0.46847 0.0
H374 H 0.99318 0.57995 0.48077 0.0
H375 H 0.97923 0.59793 0.46382 0.0
H376 H 0.96769 0.58694 0.44871 0.0
C377 C 0.90592 0.5539 0.48171 0.0
C378 C 0.9238 0.5339 0.49725 0.0
C379 C 0.97931 0.53677 0.4162 0.0
C380 C 0.99307 0.54643 0.41403 0.0
C381 C 0.99598 0.55952 0.42461 0.0
C382 C 0.98573 0.56263 0.43733 0.0
C383 C 0.9723 0.55266 0.43952 0.0
C384 C 0.96907 0.54018 0.42887 0.0
C385 C 0.95378 0.53135 0.43269 0.0
C386 C 0.94868 0.54031 0.44768 0.0
C387 C 0.95968 0.55266 0.45167 0.0
C388 C 0.94175 0.53343 0.41859 0.0
C389 C 0.95788 0.51374 0.43616 0.0
C390 C 0.96357 0.5921 0.49843 0.0
C391 C 0.95365 0.59511 0.51151 0.0
C392 C 0.93986 0.58549 0.51352 0.0
C393 C 0.93593 0.57311 0.50258 0.0
C394 C 0.94585 0.57039 0.48942 0.0
C395 C 0.9594 0.57981 0.48753 0.0
C396 C 0.96825 0.57553 0.47259 0.0
C397 C 0.95774 0.56201 0.46579 0.0
C398 C 0.94471 0.559 0.47574 0.0
C399 C 0.96841 0.59029 0.46156 0.0
C400 C 0.98505 0.56968 0.47767 0.0
H401 H 0.92403 0.51183 0.43433 0.0
H402 H 0.89273 0.51943 0.48381 0.0
H403 H 0.9298 0.52221 0.49559 0.0
H404 H 0.93252 0.54148 0.50408 0.0
H405 H 0.91312 0.53184 0.50472 0.0
H406 H 0.89857 0.55401 0.47049 0.0
H407 H 0.89766 0.5517 0.49175 0.0
H408 H 0.91096 0.56618 0.48288 0.0
H409 H 0.97664 0.52658 0.4084 0.0
H410 H 0.00617 0.56747 0.42305 0.0
H411 H 0.98872 0.5727 0.44498 0.0
H412 H 0.9439 0.54493 0.41239 0.0
H413 H 0.94277 0.52362 0.40956 0.0
H414 H 0.92921 0.53405 0.42257 0.0
H415 H 0.96874 0.51315 0.444 0.0
H416 H 0.94836 0.50733 0.44257 0.0
H417 H 0.96032 0.50703 0.42491 0.0
H418 H 0.90075 0.49492 0.43884 0.0
C419 C 0.91753 0.51385 0.44512 0.0
C420 C 0.80592 0.78029 0.86215 0.0
C421 C 0.79387 0.78381 0.87318 0.0
C422 C 0.78415 0.79719 0.87055 0.0
C423 C 0.79766 0.80242 0.84569 0.0
C424 C 0.80761 0.78972 0.8486 0.0
C425 C 0.81947 0.78722 0.83549 0.0
H426 H 0.84668 0.80722 0.76266 0.0
C427 C 0.80181 0.80899 0.82996 0.0
C428 C 0.81464 0.80019 0.82397 0.0
H429 H 0.86526 0.77156 0.79464 0.0
H430 H 0.8454 0.77845 0.81412 0.0
H431 H 0.84116 0.8347 0.78996 0.0
H432 H 0.81048 0.79878 0.76757 0.0
H433 H 0.79851 0.81552 0.77091 0.0
H434 H 0.8154 0.81711 0.7578 0.0
H435 H 0.83481 0.83526 0.76936 0.0
H436 H 0.82285 0.84367 0.78502 0.0
C437 C 0.83652 0.7902 0.84261 0.0
C438 C 0.8166 0.77024 0.82816 0.0
C439 C 0.76833 0.85311 0.8061 0.0
C440 C 0.76808 0.86021 0.79099 0.0
C441 C 0.77944 0.85571 0.77959 0.0
C442 C 0.79096 0.84425 0.7832 0.0
C443 C 0.79096 0.83707 0.7983 0.0
C444 C 0.77972 0.84148 0.80942 0.0
C445 C 0.78085 0.83185 0.82442 0.0
C446 C 0.7948 0.82112 0.82058 0.0
C447 C 0.80073 0.82431 0.80532 0.0
C448 C 0.78483 0.84345 0.83862 0.0
C449 C 0.76495 0.82223 0.82606 0.0
C450 C 0.84641 0.80081 0.77381 0.0
C451 C 0.85754 0.78879 0.77709 0.0
C452 C 0.85693 0.78096 0.79188 0.0
C453 C 0.84533 0.78493 0.80315 0.0
C454 C 0.83421 0.79687 0.79961 0.0
C455 C 0.83493 0.80464 0.78518 0.0
C456 C 0.8222 0.81704 0.78347 0.0
C457 C 0.81385 0.81559 0.79937 0.0
C458 C 0.82085 0.80369 0.8087 0.0
C459 C 0.83057 0.83358 0.78175 0.0
C460 C 0.81107 0.81203 0.76916 0.0
H461 H 0.77809 0.81639 0.85548 0.0
H462 H 0.81352 0.77003 0.86366 0.0
H463 H 0.80356 0.76744 0.82707 0.0
H464 H 0.82119 0.76893 0.81591 0.0
H465 H 0.82211 0.76098 0.83577 0.0
H466 H 0.83641 0.7991 0.85266 0.0
H467 H 0.84163 0.779 0.84733 0.0
H468 H 0.84485 0.79542 0.83389 0.0
H469 H 0.7595 0.85617 0.81494 0.0
H470 H 0.77937 0.86107 0.76787 0.0
H471 H 0.7993 0.84131 0.77403 0.0
H472 H 0.79321 0.85313 0.83492 0.0
H473 H 0.77385 0.8492 0.84312 0.0
H474 H 0.79102 0.83756 0.84864 0.0
H475 H 0.76002 0.81848 0.81411 0.0
H476 H 0.7664 0.81094 0.83254 0.0
H477 H 0.75575 0.82952 0.83209 0.0
H478 H 0.77496 0.80034 0.87898 0.0
C479 C 0.78599 0.80651 0.8569 0.0
C480 C 0.30361 0.27071 0.3506 0.0
C481 C 0.29075 0.27289 0.361 0.0
C482 C 0.28095 0.28632 0.35915 0.0
C483 C 0.29617 0.29445 0.33611 0.0
C484 C 0.30608 0.28157 0.3383 0.0
C485 C 0.31889 0.28065 0.32591 0.0
H486 H 0.34986 0.30768 0.25705 0.0
C487 C 0.30152 0.30294 0.32174 0.0
C488 C 0.31491 0.295 0.31579 0.0
H489 H 0.36626 0.26851 0.28587 0.0
H490 H 0.34622 0.27434 0.30551 0.0
H491 H 0.34572 0.33223 0.28597 0.0
H492 H 0.31183 0.30078 0.26143 0.0
H493 H 0.30307 0.31967 0.2637 0.0
H494 H 0.32101 0.31782 0.25227 0.0
H495 H 0.33738 0.33699 0.26676 0.0
H496 H 0.32752 0.3424 0.2851 0.0
C497 C 0.33541 0.28265 0.33449 0.0
C498 C 0.31653 0.26466 0.31646 0.0
C499 C 0.26932 0.34933 0.30084 0.0
C500 C 0.27094 0.35924 0.28753 0.0
C501 C 0.28416 0.3573 0.27748 0.0
C502 C 0.29538 0.34535 0.28042 0.0
C503 C 0.29337 0.33526 0.29356 0.0
C504 C 0.28064 0.33752 0.30364 0.0
C505 C 0.28054 0.32593 0.31719 0.0
C506 C 0.29524 0.31622 0.31351 0.0
C507 C 0.30261 0.32161 0.29957 0.0
C508 C 0.28251 0.33556 0.33313 0.0
C509 C 0.26493 0.3157 0.31574 0.0
C510 C 0.34905 0.30032 0.26757 0.0
C511 C 0.35952 0.28752 0.26987 0.0
C512 C 0.35836 0.27846 0.28387 0.0
C513 C 0.34665 0.2818 0.29521 0.0
C514 C 0.33598 0.29435 0.29252 0.0
C515 C 0.33746 0.30353 0.27901 0.0
C516 C 0.32531 0.3166 0.27832 0.0
C517 C 0.31613 0.31358 0.29352 0.0
C518 C 0.32233 0.30044 0.30169 0.0
C519 C 0.33434 0.33296 0.27895 0.0
C520 C 0.31474 0.31374 0.26312 0.0
H521 H 0.27558 0.30695 0.34581 0.0
H522 H 0.31151 0.26064 0.35189 0.0
H523 H 0.30358 0.26203 0.31423 0.0
H524 H 0.32188 0.2648 0.30449 0.0
H525 H 0.32154 0.25451 0.32323 0.0
H526 H 0.33459 0.29043 0.34538 0.0
H527 H 0.34009 0.27093 0.33831 0.0
H528 H 0.3444 0.2887 0.32703 0.0
H529 H 0.25943 0.35075 0.30894 0.0
H530 H 0.28562 0.36479 0.26713 0.0
H531 H 0.30508 0.34431 0.27223 0.0
H532 H 0.28988 0.34661 0.33151 0.0
H533 H 0.27072 0.33926 0.33776 0.0
H534 H 0.28896 0.32889 0.34247 0.0
H535 H 0.26207 0.31268 0.30299 0.0
H536 H 0.26576 0.30406 0.3217 0.0
H537 H 0.25461 0.32228 0.32066 0.0
H538 H 0.27092 0.28821 0.36696 0.0
C539 C 0.28361 0.29712 0.34677 0.0
C540 C 0.47514 0.90469 0.51739 0.0
C541 C 0.46281 0.89673 0.5087 0.0
C542 C 0.44711 0.90258 0.50946 0.0
C543 C 0.45642 0.9246 0.52663 0.0
C544 C 0.47168 0.91846 0.52632 0.0
C545 C 0.48341 0.92821 0.53638 0.0
H546 H 0.49806 0.9915 0.58616 0.0
C547 C 0.457 0.93935 0.53664 0.0
C548 C 0.47276 0.94141 0.54252 0.0
H549 H 0.53096 0.95485 0.57153 0.0
H550 H 0.51045 0.94263 0.55446 0.0
H551 H 0.46865 0.96874 0.59149 0.0
H552 H 0.48262 0.99654 0.55111 0.0
H553 H 0.46173 0.99766 0.55194 0.0
H554 H 0.47381 0.00538 0.56849 0.0
H555 H 0.46688 0.99009 0.59104 0.0
H556 H 0.45106 0.97692 0.58355 0.0
C557 C 0.48965 0.91755 0.55007 0.0
C558 C 0.4966 0.93475 0.5253 0.0
C559 C 0.40845 0.97519 0.53988 0.0
C560 C 0.406 0.99009 0.54748 0.0
C561 C 0.41807 0.99656 0.55775 0.0
C562 C 0.43258 0.9887 0.55989 0.0
C563 C 0.43515 0.97422 0.55164 0.0
C564 C 0.42308 0.96749 0.54213 0.0
C565 C 0.42803 0.95196 0.53439 0.0
C566 C 0.44526 0.95089 0.54035 0.0
C567 C 0.44932 0.964 0.55039 0.0
C568 C 0.41735 0.9383 0.54093 0.0
C569 C 0.42695 0.95382 0.51601 0.0
C570 C 0.50085 0.98086 0.57923 0.0
C571 C 0.5161 0.97408 0.58023 0.0
C572 C 0.51933 0.96038 0.57085 0.0
C573 C 0.50735 0.9532 0.56109 0.0
C574 C 0.49197 0.9598 0.56069 0.0
C575 C 0.48903 0.97354 0.56948 0.0
C576 C 0.47207 0.97896 0.56757 0.0
C577 C 0.46515 0.96593 0.55656 0.0
C578 C 0.47684 0.95475 0.55256 0.0
C579 C 0.46417 0.97883 0.58424 0.0
C580 C 0.47243 0.99553 0.55947 0.0
H581 H 0.43173 0.92054 0.51827 0.0
H582 H 0.48727 0.9003 0.51721 0.0
H583 H 0.49142 0.9381 0.5135 0.0
H584 H 0.50249 0.94579 0.53003 0.0
H585 H 0.50586 0.92562 0.52308 0.0
H586 H 0.48016 0.90906 0.554 0.0
H587 H 0.49998 0.91036 0.54615 0.0
H588 H 0.4931 0.92446 0.56098 0.0
H589 H 0.39932 0.96981 0.53208 0.0
H590 H 0.41659 0.00808 0.56361 0.0
H591 H 0.44139 0.99445 0.56759 0.0
H592 H 0.41349 0.94105 0.55334 0.0
H593 H 0.40638 0.93643 0.53341 0.0
H594 H 0.42375 0.92687 0.54186 0.0
H595 H 0.432 0.96562 0.51249 0.0
H596 H 0.43384 0.94481 0.5094 0.0
H597 H 0.4143 0.95311 0.51171 0.0
H598 H 0.43745 0.89662 0.5028 0.0
C599 C 0.44385 0.9165 0.51836 0.0
C600 C 0.1836 0.27017 0.7556 0.0
C601 C 0.17416 0.25606 0.7556 0.0
C602 C 0.17699 0.24405 0.74399 0.0
C603 C 0.19792 0.26039 0.73245 0.0
C604 C 0.19537 0.27205 0.74399 0.0
C605 C 0.20629 0.28639 0.74217 0.0
H606 H 0.26643 0.32289 0.70249 0.0
C607 C 0.21075 0.26621 0.72194 0.0
C608 C 0.21578 0.2814 0.72761 0.0
H609 H 0.24062 0.34081 0.74334 0.0
H610 H 0.22449 0.31671 0.74344 0.0
H611 H 0.23505 0.30988 0.68363 0.0
H612 H 0.26943 0.28676 0.71396 0.0
H613 H 0.26518 0.27374 0.69767 0.0
H614 H 0.27399 0.29318 0.69413 0.0
H615 H 0.25478 0.3052 0.67701 0.0
H616 H 0.23837 0.29096 0.67505 0.0
C617 C 0.19583 0.30115 0.73884 0.0
C618 C 0.21702 0.28797 0.75742 0.0
C619 C 0.22691 0.23256 0.67382 0.0
C620 C 0.23815 0.23494 0.6617 0.0
C621 C 0.24793 0.24886 0.6623 0.0
C622 C 0.24637 0.26031 0.67457 0.0
C623 C 0.23489 0.25789 0.68643 0.0
C624 C 0.22549 0.24414 0.68599 0.0
C625 C 0.21394 0.24359 0.6996 0.0
C626 C 0.21783 0.25938 0.70815 0.0
C627 C 0.23009 0.26771 0.70036 0.0
C628 C 0.19672 0.24318 0.69244 0.0
C629 C 0.21809 0.22904 0.71007 0.0
C630 C 0.25723 0.32172 0.71138 0.0
C631 C 0.25498 0.3338 0.72302 0.0
C632 C 0.2429 0.33161 0.73444 0.0
C633 C 0.23344 0.31761 0.73443 0.0
C634 C 0.23595 0.30562 0.72282 0.0
C635 C 0.2476 0.30784 0.71148 0.0
C636 C 0.24831 0.29399 0.69983 0.0
C637 C 0.23532 0.283 0.70618 0.0
C638 C 0.22815 0.28984 0.71968 0.0
C639 C 0.24403 0.30021 0.68294 0.0
C640 C 0.2651 0.2865 0.70129 0.0
H641 H 0.19027 0.23657 0.72392 0.0
H642 H 0.18164 0.27973 0.76421 0.0
H643 H 0.22052 0.27598 0.76174 0.0
H644 H 0.22843 0.29437 0.75538 0.0
H645 H 0.21062 0.2941 0.76726 0.0
H646 H 0.18503 0.29771 0.73153 0.0
H647 H 0.19168 0.30672 0.75016 0.0
H648 H 0.20204 0.31033 0.73176 0.0
H649 H 0.21911 0.22209 0.67366 0.0
H650 H 0.25687 0.25087 0.65328 0.0
H651 H 0.25414 0.27064 0.67431 0.0
H652 H 0.19584 0.2511 0.68189 0.0
H653 H 0.19318 0.23088 0.6884 0.0
H654 H 0.1877 0.24767 0.70081 0.0
H655 H 0.23115 0.22665 0.70996 0.0
H656 H 0.21538 0.23102 0.72284 0.0
H657 H 0.21174 0.21802 0.70565 0.0
H658 H 0.17008 0.23297 0.74384 0.0
C659 C 0.18879 0.24613 0.73246 0.0
C660 C 0.7427 0.165 0.73617 0.0
C661 C 0.72833 0.16314 0.72728 0.0
C662 C 0.72453 0.17456 0.71564 0.0
C663 C 0.74928 0.18912 0.7217 0.0
C664 C 0.75294 0.17798 0.73317 0.0
C665 C 0.76873 0.18155 0.74145 0.0
H666 H 0.83613 0.22717 0.74779 0.0
C667 C 0.76256 0.201 0.72143 0.0
C668 C 0.774 0.19662 0.73298 0.0
H669 H 0.8227 0.18638 0.7762 0.0
H670 H 0.79782 0.18369 0.76139 0.0
H671 H 0.80252 0.24363 0.74997 0.0
H672 H 0.82267 0.21339 0.7136 0.0
H673 H 0.81326 0.22942 0.70406 0.0
H674 H 0.8297 0.23345 0.71781 0.0
H675 H 0.81693 0.25108 0.73615 0.0
H676 H 0.79575 0.25086 0.73152 0.0
C677 C 0.76561 0.18476 0.75944 0.0
C678 C 0.78 0.16739 0.73803 0.0
C679 C 0.76082 0.24668 0.68199 0.0
C680 C 0.77152 0.25934 0.67873 0.0
C681 C 0.78583 0.26088 0.68785 0.0
C682 C 0.78954 0.24992 0.69981 0.0
C683 C 0.77884 0.23722 0.70276 0.0
C684 C 0.7647 0.23583 0.694 0.0
C685 C 0.75476 0.22159 0.69883 0.0
C686 C 0.76524 0.21472 0.71196 0.0
C687 C 0.77936 0.22388 0.71415 0.0
C688 C 0.73871 0.22775 0.70537 0.0
C689 C 0.75301 0.21005 0.68419 0.0
C690 C 0.82782 0.21772 0.75097 0.0
C691 C 0.83156 0.20692 0.76321 0.0
C692 C 0.82036 0.1947 0.76668 0.0
C693 C 0.80581 0.19323 0.75813 0.0
C694 C 0.80231 0.20412 0.74598 0.0
C695 C 0.81317 0.21619 0.74268 0.0
C696 C 0.80719 0.22704 0.72976 0.0
C697 C 0.79101 0.21937 0.72573 0.0
C698 C 0.78828 0.20588 0.73517 0.0
C699 C 0.80558 0.2441 0.73707 0.0
C700 C 0.81879 0.22594 0.71554 0.0
H701 H 0.73136 0.19574 0.70374 0.0
H702 H 0.74589 0.15658 0.74536 0.0
H703 H 0.7784 0.16295 0.72547 0.0
H704 H 0.7928 0.1707 0.7392 0.0
H705 H 0.77743 0.15723 0.74605 0.0
H706 H 0.75376 0.19037 0.76118 0.0
H707 H 0.76569 0.17347 0.76627 0.0
H708 H 0.77432 0.19335 0.76499 0.0
H709 H 0.74981 0.24501 0.67511 0.0
H710 H 0.79418 0.27065 0.68579 0.0
H711 H 0.80065 0.25173 0.70624 0.0
H712 H 0.74055 0.23922 0.71215 0.0
H713 H 0.73002 0.22994 0.69548 0.0
H714 H 0.73317 0.21955 0.71398 0.0
H715 H 0.76412 0.21009 0.67703 0.0
H716 H 0.75121 0.19744 0.68756 0.0
H717 H 0.74299 0.21361 0.67617 0.0
H718 H 0.71363 0.17333 0.7085 0.0
C719 C 0.7349 0.18752 0.71282 0.0
C720 C 0.53856 0.57881 0.49981 0.0
C721 C 0.52626 0.59009 0.50073 0.0
C722 C 0.51465 0.58842 0.51267 0.0
C723 C 0.52763 0.56462 0.52243 0.0
C724 C 0.53896 0.56622 0.51069 0.0
C725 C 0.55105 0.55307 0.51115 0.0
H726 H 0.5779 0.4849 0.54431 0.0
C727 C 0.53145 0.55021 0.53175 0.0
C728 C 0.54515 0.54336 0.52515 0.0
H729 H 0.59759 0.51087 0.50461 0.0
H730 H 0.57706 0.53055 0.50705 0.0
H731 H 0.57169 0.51644 0.56626 0.0
H732 H 0.54082 0.48872 0.53425 0.0
H733 H 0.52996 0.49326 0.55154 0.0
H734 H 0.54767 0.48132 0.55316 0.0
H735 H 0.56426 0.4969 0.57122 0.0
H736 H 0.55293 0.51467 0.5753 0.0
C737 C 0.56776 0.56078 0.51466 0.0
C738 C 0.54971 0.54349 0.49514 0.0
C739 C 0.49676 0.53469 0.57867 0.0
C740 C 0.49729 0.52209 0.58963 0.0
C741 C 0.50951 0.5107 0.58819 0.0
C742 C 0.52094 0.51184 0.57613 0.0
C743 C 0.52024 0.52453 0.56531 0.0
C744 C 0.50828 0.53568 0.5667 0.0
C745 C 0.5094 0.54837 0.55418 0.0
C746 C 0.52402 0.54304 0.54509 0.0
C747 C 0.53034 0.52905 0.55164 0.0
C748 C 0.51227 0.56473 0.5628 0.0
C749 C 0.49398 0.54734 0.54363 0.0
C750 C 0.57787 0.49489 0.53622 0.0
C751 C 0.58939 0.49618 0.52414 0.0
C752 C 0.58874 0.50935 0.51381 0.0
C753 C 0.57683 0.52087 0.51531 0.0
C754 C 0.56535 0.51933 0.5273 0.0
C755 C 0.56603 0.50655 0.53757 0.0
C756 C 0.55288 0.50699 0.54968 0.0
C757 C 0.54414 0.52204 0.54488 0.0
C758 C 0.55151 0.52919 0.53175 0.0
C759 C 0.56072 0.50873 0.56655 0.0
C760 C 0.54226 0.49177 0.54721 0.0
H761 H 0.50612 0.57526 0.53234 0.0
H762 H 0.54755 0.57961 0.49066 0.0
H763 H 0.53707 0.54275 0.49075 0.0
H764 H 0.55337 0.53091 0.49624 0.0
H765 H 0.5569 0.54927 0.48571 0.0
H766 H 0.56684 0.57122 0.523 0.0
H767 H 0.57331 0.56509 0.50351 0.0
H768 H 0.57607 0.55261 0.52071 0.0
H769 H 0.48769 0.54377 0.5795 0.0
H770 H 0.51011 0.50074 0.5963 0.0
H771 H 0.52986 0.50276 0.57567 0.0
H772 H 0.52037 0.56347 0.57339 0.0
H773 H 0.50085 0.56975 0.56709 0.0
H774 H 0.51828 0.57363 0.55525 0.0
H775 H 0.48961 0.53474 0.54225 0.0
H776 H 0.49589 0.55137 0.53128 0.0
H777 H 0.48421 0.55438 0.54902 0.0
H778 H 0.50516 0.59703 0.51377 0.0
C779 C 0.51528 0.5758 0.52351 0.0
C780 C 0.54156 0.42199 0.99255 0.0
C781 C 0.529 0.41077 0.99027 0.0
C782 C 0.51911 0.41178 0.97649 0.0
C783 C 0.53447 0.43475 0.96758 0.0
C784 C 0.5441 0.43375 0.98112 0.0
C785 C 0.55707 0.44639 0.98177 0.0
H786 H 0.59436 0.50914 0.94764 0.0
C787 C 0.54054 0.4482 0.958 0.0
C788 C 0.55384 0.45499 0.96625 0.0
H789 H 0.60539 0.4875 0.99305 0.0
H790 H 0.5835 0.46862 0.98902 0.0
H791 H 0.55569 0.50823 0.95195 0.0
H792 H 0.58879 0.47742 0.92813 0.0
H793 H 0.57124 0.47689 0.91631 0.0
H794 H 0.58209 0.49561 0.91931 0.0
H795 H 0.56624 0.51376 0.93428 0.0
H796 H 0.54738 0.50306 0.93309 0.0
C797 C 0.55434 0.4573 0.99662 0.0
C798 C 0.57345 0.43792 0.98171 0.0
C799 C 0.51209 0.46368 0.9063 0.0
C800 C 0.51537 0.47542 0.89482 0.0
C801 C 0.52956 0.48472 0.89653 0.0
C802 C 0.53986 0.48292 0.90971 0.0
C803 C 0.53609 0.47161 0.92135 0.0
C804 C 0.52264 0.46192 0.91935 0.0
C805 C 0.52109 0.44999 0.93259 0.0
C806 C 0.53549 0.45459 0.94313 0.0
C807 C 0.5441 0.46737 0.93652 0.0
C808 C 0.50512 0.45294 0.9412 0.0
C809 C 0.52256 0.43296 0.9252 0.0
C810 C 0.59211 0.50026 0.95667 0.0
C811 C 0.60162 0.49977 0.97067 0.0
C812 C 0.59813 0.48821 0.98224 0.0
C813 C 0.58547 0.4772 0.97982 0.0
C814 C 0.57615 0.47777 0.9657 0.0
C815 C 0.57949 0.48923 0.95446 0.0
C816 C 0.56817 0.48824 0.94031 0.0
C817 C 0.55749 0.47425 0.94489 0.0
C818 C 0.56226 0.46815 0.95972 0.0
C819 C 0.55889 0.50414 0.93969 0.0
C820 C 0.57798 0.48446 0.92515 0.0
H821 H 0.51386 0.42383 0.95492 0.0
H822 H 0.54923 0.42177 0.00312 0.0
H823 H 0.57298 0.42716 0.97368 0.0
H824 H 0.58322 0.44547 0.97705 0.0
H825 H 0.57684 0.43392 0.99389 0.0
H826 H 0.54137 0.4582 0.99926 0.0
H827 H 0.5604 0.45255 0.00743 0.0
H828 H 0.55837 0.4698 0.99487 0.0
H829 H 0.50136 0.45627 0.90542 0.0
H830 H 0.53272 0.49349 0.88768 0.0
H831 H 0.55031 0.49052 0.91037 0.0
H832 H 0.50318 0.46599 0.94292 0.0
H833 H 0.49482 0.44792 0.9341 0.0
H834 H 0.50485 0.44789 0.9533 0.0
H835 H 0.53064 0.433 0.91475 0.0
H836 H 0.528 0.42442 0.93357 0.0
H837 H 0.51072 0.42818 0.92099 0.0
H838 H 0.50943 0.4032 0.97434 0.0
C839 C 0.52177 0.4237 0.96515 0.0
C840 C 0.75773 0.18254 0.27115 0.0
C841 C 0.75733 0.17302 0.25711 0.0
C842 C 0.74501 0.17532 0.2457 0.0
C843 C 0.73377 0.1962 0.26236 0.0
C844 C 0.74586 0.19395 0.27355 0.0
C845 C 0.74424 0.20469 0.28805 0.0
H846 H 0.70469 0.26376 0.32634 0.0
C847 C 0.72325 0.20886 0.26856 0.0
C848 C 0.72931 0.21388 0.28362 0.0
H849 H 0.74574 0.23758 0.34328 0.0
H850 H 0.74568 0.22207 0.31879 0.0
H851 H 0.6857 0.23267 0.31301 0.0
H852 H 0.71574 0.26742 0.29009 0.0
H853 H 0.69937 0.26331 0.27714 0.0
H854 H 0.69595 0.27187 0.29671 0.0
H855 H 0.67911 0.25253 0.3089 0.0
H856 H 0.6768 0.23646 0.29434 0.0
C857 C 0.74163 0.19402 0.30282 0.0
C858 C 0.75926 0.21575 0.28927 0.0
C859 C 0.67479 0.22583 0.23574 0.0
C860 C 0.66285 0.23722 0.23837 0.0
C861 C 0.66366 0.24675 0.25246 0.0
C862 C 0.67599 0.24484 0.26379 0.0
C863 C 0.6877 0.23326 0.26109 0.0
C864 C 0.68704 0.22407 0.2472 0.0
C865 C 0.70054 0.21239 0.24635 0.0
C866 C 0.70931 0.21602 0.26208 0.0
C867 C 0.70172 0.22823 0.27066 0.0
C868 C 0.69324 0.19523 0.2458 0.0
C869 C 0.71086 0.21665 0.23173 0.0
C870 C 0.71359 0.25461 0.32488 0.0
C871 C 0.72532 0.25209 0.33682 0.0
C872 C 0.73676 0.24009 0.33422 0.0
C873 C 0.73664 0.23097 0.32 0.0
C874 C 0.7249 0.2337 0.3082 0.0
C875 C 0.71356 0.24527 0.3108 0.0
C876 C 0.70169 0.24618 0.29715 0.0
C877 C 0.70784 0.23333 0.28588 0.0
C878 C 0.72149 0.22612 0.29237 0.0
C879 C 0.68489 0.24187 0.30357 0.0
C880 C 0.70308 0.26308 0.28987 0.0
H881 H 0.72423 0.18799 0.23908 0.0
H882 H 0.76689 0.18089 0.28028 0.0
H883 H 0.76271 0.21995 0.27722 0.0
H884 H 0.75735 0.22674 0.29642 0.0
H885 H 0.76962 0.20932 0.29443 0.0
H886 H 0.73516 0.18269 0.29941 0.0
H887 H 0.75322 0.19075 0.30848 0.0
H888 H 0.73401 0.19968 0.31191 0.0
H889 H 0.67446 0.2182 0.22514 0.0
H890 H 0.65479 0.25579 0.25468 0.0
H891 H 0.67589 0.25245 0.27424 0.0
H892 H 0.68239 0.19446 0.25332 0.0
H893 H 0.68964 0.19161 0.23339 0.0
H894 H 0.70139 0.1862 0.25071 0.0
H895 H 0.71151 0.22983 0.23011 0.0
H896 H 0.72344 0.21299 0.23309 0.0
H897 H 0.70571 0.21121 0.22054 0.0
H898 H 0.7445 0.16822 0.23474 0.0
C899 C 0.73328 0.18686 0.24822 0.0
C900 C 0.4134 0.00692 0.98094 0.0
C901 C 0.40682 0.99604 0.96957 0.0
C902 C 0.41347 0.99511 0.95422 0.0
C903 C 0.43312 0.01561 0.96176 0.0
C904 C 0.42638 0.0167 0.97673 0.0
C905 C 0.4343 0.02953 0.98707 0.0
H906 H 0.48845 0.09045 0.99441 0.0
C907 C 0.44628 0.02757 0.96112 0.0
C908 C 0.4469 0.03592 0.97584 0.0
H909 H 0.45521 0.07386 0.02981 0.0
H910 H 0.44591 0.05267 0.01173 0.0
H911 H 0.4654 0.0877 0.96469 0.0
H912 H 0.49958 0.05481 0.98375 0.0
H913 H 0.5013 0.05408 0.96287 0.0
H914 H 0.50539 0.07265 0.97354 0.0
H915 H 0.48656 0.09047 0.96234 0.0
H916 H 0.47462 0.07865 0.94821 0.0
C917 C 0.42161 0.04223 0.99109 0.0
C918 C 0.4419 0.02149 0.00187 0.0
C919 C 0.4819 0.02986 0.91244 0.0
C920 C 0.49486 0.0399 0.90834 0.0
C921 C 0.49909 0.05287 0.91867 0.0
C922 C 0.49108 0.05537 0.93304 0.0
C923 C 0.47856 0.04491 0.93719 0.0
C924 C 0.4739 0.03264 0.92679 0.0
C925 C 0.45979 0.02323 0.93285 0.0
C926 C 0.45733 0.03139 0.94898 0.0
C927 C 0.46843 0.04399 0.95146 0.0
C928 C 0.44539 0.02559 0.92122 0.0
C929 C 0.4648 0.0056 0.93468 0.0
C930 C 0.47914 0.08225 0.99823 0.0
C931 C 0.47243 0.08386 0.01345 0.0
C932 C 0.46058 0.07279 0.01814 0.0
C933 C 0.45513 0.06059 0.00758 0.0
C934 C 0.46166 0.05942 0.99221 0.0
C935 C 0.47366 0.06998 0.98789 0.0
C936 C 0.4796 0.06667 0.97133 0.0
C937 C 0.46888 0.05265 0.9662 0.0
C938 C 0.45833 0.0485 0.97842 0.0
C939 C 0.47655 0.08162 0.96103 0.0
C940 C 0.49742 0.0619 0.97278 0.0
H941 H 0.43129 0.0034 0.93847 0.0
H942 H 0.40835 0.008 0.99276 0.0
H943 H 0.44662 0.00951 0.99863 0.0
H944 H 0.45234 0.02825 0.00686 0.0
H945 H 0.43297 0.01979 0.01141 0.0
H946 H 0.41351 0.04416 0.98062 0.0
H947 H 0.41409 0.03837 0.00121 0.0
H948 H 0.42687 0.05414 0.99397 0.0
H949 H 0.47827 0.01976 0.90488 0.0
H950 H 0.50866 0.06112 0.91568 0.0
H951 H 0.49502 0.06534 0.94042 0.0
H952 H 0.44659 0.03692 0.9145 0.0
H953 H 0.44433 0.01564 0.91228 0.0
H954 H 0.43392 0.02671 0.92756 0.0
H955 H 0.47681 0.00497 0.94055 0.0
H956 H 0.45664 0.99864 0.94225 0.0
H957 H 0.46544 0.99947 0.92282 0.0
H958 H 0.40858 0.98672 0.94533 0.0
C959 C 0.42664 0.00476 0.95028 0.0
Zn960 Zn 0.27097 0.84952 0.00272 0.0
Zn961 Zn 0.24693 0.86991 0.00411 0.0
O962 O 0.24598 0.85795 0.02584 0.0
O963 O 0.26461 0.83974 0.02331 0.0
O964 O 0.22883 0.88572 0.00559 0.0
O965 O 0.28685 0.86793 0.00257 0.0
O966 O 0.26678 0.88466 0.00154 0.0
C967 C 0.25353 0.84599 0.0313 0.0
C968 C 0.24871 0.84491 0.97666 0.0
O969 O 0.24135 0.85623 0.98369 0.0
O970 O 0.26187 0.84005 0.98231 0.0
C971 C 0.21464 0.88142 0.00904 0.0
O972 O 0.21155 0.86621 0.01155 0.0
C973 C 0.28178 0.88207 0.00156 0.0
Zn974 Zn 0.10601 0.47119 0.26544 0.0
Zn975 Zn 0.12412 0.49824 0.26481 0.0
O976 O 0.10867 0.50234 0.28342 0.0
O977 O 0.09362 0.48045 0.28368 0.0
O978 O 0.13739 0.5185 0.2641 0.0
O979 O 0.12624 0.4587 0.26925 0.0
O980 O 0.14076 0.48087 0.26843 0.0
C981 C 0.09716 0.49425 0.28925 0.0
C982 C 0.10363 0.48757 0.23563 0.0
O983 O 0.11366 0.49722 0.2424 0.0
O984 O 0.09838 0.47551 0.243 0.0
C985 C 0.13066 0.53178 0.26161 0.0
O986 O 0.11501 0.53206 0.25988 0.0
C987 C 0.13978 0.46574 0.26988 0.0
Zn988 Zn 0.77076 0.60996 0.96609 0.0
Zn989 Zn 0.76575 0.62386 0.99484 0.0
O990 O 0.7849 0.60949 0.99957 0.0
O991 O 0.78791 0.59675 0.97654 0.0
O992 O 0.76197 0.63537 0.01569 0.0
O993 O 0.77584 0.63152 0.95666 0.0
O994 O 0.77001 0.64259 0.97985 0.0
C995 C 0.79193 0.59903 0.99108 0.0
C996 C 0.73943 0.60331 0.97837 0.0
O997 O 0.74477 0.61131 0.99048 0.0
O998 O 0.74802 0.60157 0.96613 0.0
C999 C 0.7593 0.62837 0.02878 0.0
O1000 O 0.759 0.61265 0.02905 0.0
C1001 C 0.77409 0.64392 0.96531 0.0
Zn1002 Zn 0.85495 0.00223 0.2718 0.0
Zn1003 Zn 0.87104 0.0044 0.24485 0.0
O1004 O 0.85987 0.02646 0.24657 0.0
O1005 O 0.8468 0.02445 0.26911 0.0
O1006 O 0.88495 0.00619 0.22532 0.0
O1007 O 0.87481 0.99822 0.28474 0.0
O1008 O 0.88818 -0.00011 0.26238 0.0
C1009 C 0.85062 0.03248 0.257 0.0
C1010 C 0.84513 0.97827 0.24844 0.0
O1011 O 0.85566 0.98508 0.23986 0.0
O1012 O 0.84261 0.98349 0.26246 0.0
C1013 C 0.88035 0.01093 0.21164 0.0
O1014 O 0.86534 0.01492 0.20946 0.0
C1015 C 0.88793 0.99765 0.27743 0.0
Zn1016 Zn 0.2644 0.10521 0.46543 0.0
Zn1017 Zn 0.25966 0.12116 0.49309 0.0
O1018 O 0.27848 0.10653 0.49863 0.0
O1019 O 0.28272 0.09376 0.47589 0.0
O1020 O 0.25652 0.13405 0.51326 0.0
O1021 O 0.26818 0.12587 0.45405 0.0
O1022 O 0.26401 0.13878 0.4767 0.0
C1023 C 0.28627 0.09634 0.4905 0.0
C1024 C 0.23314 0.09958 0.47866 0.0
O1025 O 0.2383 0.10902 0.48976 0.0
O1026 O 0.24196 0.09618 0.46695 0.0
C1027 C 0.25413 0.12774 0.52676 0.0
O1028 O 0.25366 0.11207 0.52779 0.0
C1029 C 0.26715 0.13892 0.46183 0.0
Zn1030 Zn 0.35422 0.5022 0.77471 0.0
Zn1031 Zn 0.37155 0.50477 0.74868 0.0
O1032 O 0.35911 0.52619 0.74908 0.0
O1033 O 0.34389 0.52313 0.77011 0.0
O1034 O 0.38612 0.50651 0.72959 0.0
O1035 O 0.37365 0.50107 0.78893 0.0
O1036 O 0.3881 0.50221 0.76722 0.0
C1037 C 0.34828 0.53137 0.75835 0.0
C1038 C 0.34744 0.47677 0.75226 0.0
O1039 O 0.35745 0.48439 0.74371 0.0
O1040 O 0.34426 0.48191 0.76615 0.0
C1041 C 0.38157 0.51038 0.71561 0.0
O1042 O 0.3664 0.51349 0.71296 0.0
C1043 C 0.38719 0.50098 0.78237 0.0
Zn1044 Zn 0.77467 0.35346 0.50612 0.0
Zn1045 Zn 0.74733 0.36869 0.50791 0.0
O1046 O 0.74969 0.35727 0.52985 0.0
O1047 O 0.77222 0.34419 0.52776 0.0
O1048 O 0.7269 0.38113 0.51071 0.0
O1049 O 0.78698 0.37396 0.50406 0.0
O1050 O 0.7641 0.38669 0.50339 0.0
C1051 C 0.76014 0.34801 0.53582 0.0
C1052 C 0.75212 0.34367 0.48128 0.0
O1053 O 0.74295 0.35347 0.48838 0.0
O1054 O 0.76626 0.34173 0.48649 0.0
C1055 C 0.71991 0.38817 0.49923 0.0
O1056 O 0.72584 0.387 0.48481 0.0
C1057 C 0.77935 0.38682 0.50265 0.0
Zn1058 Zn 0.60006 0.96535 0.75248 0.0
Zn1059 Zn 0.6185 0.99246 0.75372 0.0
O1060 O 0.60213 0.99649 0.77129 0.0
O1061 O 0.58705 0.9746 0.77054 0.0
O1062 O 0.63215 0.01246 0.75387 0.0
O1063 O 0.62015 0.95261 0.75674 0.0
O1064 O 0.6345 0.97493 0.7587 0.0
C1065 C 0.59036 0.98832 0.77648 0.0
C1066 C 0.59961 0.98265 0.72312 0.0
O1067 O 0.60939 0.99191 0.73075 0.0
O1068 O 0.59369 0.97048 0.72982 0.0
C1069 C 0.62586 0.02598 0.75149 0.0
O1070 O 0.61026 0.02674 0.74947 0.0
C1071 C 0.63349 0.95974 0.75921 0.0
Zn1072 Zn 0.00046 0.27386 0.85144 0.0
Zn1073 Zn 0.00497 0.24936 0.87052 0.0
O1074 O 0.02619 0.25041 0.85787 0.0
O1075 O 0.0221 0.27077 0.84202 0.0
O1076 O 0.00815 0.23112 0.88586 0.0
O1077 O 0.99753 0.28884 0.86998 0.0
O1078 O 0.00143 0.26862 0.88605 0.0
C1079 C 0.03101 0.25968 0.84689 0.0
C1080 C 0.97686 0.24926 0.84609 0.0
O1081 O 0.98484 0.24225 0.857 0.0
O1082 O 0.9812 0.26301 0.84157 0.0
C1083 C 0.01166 0.21704 0.88128 0.0
O1084 O 0.0134 0.21405 0.86593 0.0
C1085 C 0.99851 0.28339 0.88399 0.0
Zn1086 Zn 0.50457 0.77445 0.3572 0.0
Zn1087 Zn 0.50587 0.74713 0.37289 0.0
O1088 O 0.5275 0.74804 0.36084 0.0
O1089 O 0.52569 0.77023 0.34716 0.0
O1090 O 0.50712 0.72679 0.38572 0.0
O1091 O 0.50403 0.78713 0.37765 0.0
O1092 O 0.50278 0.76445 0.39065 0.0
C1093 C 0.53344 0.75795 0.35101 0.0
C1094 C 0.47853 0.75291 0.34881 0.0
O1095 O 0.4859 0.74355 0.3582 0.0
O1096 O 0.4839 0.76694 0.34663 0.0
C1097 C 0.5197 0.72374 0.39382 0.0
O1098 O 0.53195 0.73377 0.39341 0.0
C1099 C 0.50272 0.77971 0.39065 0.0
Zn1100 Zn 0.96354 0.7727 0.61004 0.0
Zn1101 Zn 0.99075 0.76459 0.62523 0.0
O1102 O 0.99756 0.78407 0.61202 0.0
O1103 O 0.97485 0.79203 0.60124 0.0
O1104 O 0.0107 0.75921 0.6377 0.0
O1105 O 0.95205 0.77432 0.63082 0.0
O1106 O 0.97452 0.76834 0.64325 0.0
C1107 C 0.9898 0.79385 0.60344 0.0
C1108 C 0.97488 0.74125 0.60122 0.0
O1109 O 0.986 0.74456 0.61141 0.0
O1110 O 0.96408 0.75134 0.59837 0.0
C1111 C 0.02383 0.75577 0.63108 0.0
O1112 O 0.02457 0.75561 0.61539 0.0
C1113 C 0.95974 0.77185 0.64368 0.0
Zn1114 Zn 0.46821 0.25921 0.10407 0.0
Zn1115 Zn 0.49545 0.25798 0.12153 0.0
O1116 O 0.49909 0.27775 0.1074 0.0
O1117 O 0.47606 0.27968 0.09443 0.0
O1118 O 0.51542 0.25698 0.13526 0.0
O1119 O 0.45538 0.25994 0.12428 0.0
O1120 O 0.47788 0.26015 0.13833 0.0
C1121 C 0.49007 0.28499 0.09752 0.0
C1122 C 0.48587 0.23045 0.09851 0.0
O1123 O 0.4951 0.23637 0.10941 0.0
O1124 O 0.47376 0.23807 0.09374 0.0
C1125 C 0.52922 0.25496 0.12945 0.0
O1126 O 0.53068 0.25375 0.11385 0.0
C1127 C 0.46265 0.26053 0.13769 0.0
H1128 H 0.21591 0.79029 0.8328 0.0
H1129 H 0.21521 0.80643 0.85742 0.0
H1130 H 0.23643 0.76783 0.88357 0.0
H1131 H 0.23637 0.75134 0.85925 0.0
H1132 H 0.2133 0.78024 0.90026 0.0
H1133 H 0.25827 0.80149 0.87122 0.0
H1134 H 0.27158 0.81364 0.84815 0.0
H1135 H 0.24101 0.85433 0.8516 0.0
H1136 H 0.22738 0.84231 0.87458 0.0
H1137 H 0.25513 0.81517 0.96538 0.0
H1138 H 0.24642 0.80273 0.94012 0.0
H1139 H 0.21928 0.8446 0.92869 0.0
H1140 H 0.22787 0.85721 0.95433 0.0
H1141 H 0.24036 0.83348 0.90392 0.0
H1142 H 0.19864 0.81318 0.93641 0.0
H1143 H 0.18697 0.80075 0.96018 0.0
H1144 H 0.213 0.7578 0.95083 0.0
H1145 H 0.22502 0.77006 0.92713 0.0
C1146 C 0.22027 0.78516 0.84382 0.0
C1147 C 0.22627 0.7695 0.84399 0.0
C1148 C 0.22001 0.79448 0.85787 0.0
C1149 C 0.22593 0.78843 0.87234 0.0
C1150 C 0.23181 0.77279 0.87256 0.0
C1151 C 0.23196 0.76343 0.85857 0.0
C1152 C 0.22617 0.79829 0.88731 0.0
C1153 C 0.21928 0.79185 0.90105 0.0
C1154 C 0.2335 0.8137 0.88828 0.0
C1155 C 0.24168 0.82092 0.87448 0.0
C1156 C 0.2543 0.81297 0.86697 0.0
C1157 C 0.26192 0.81984 0.85393 0.0
C1158 C 0.25711 0.83472 0.84838 0.0
C1159 C 0.2447 0.84279 0.85589 0.0
C1160 C 0.23703 0.83596 0.86892 0.0
C1161 C 0.24719 0.82173 0.95759 0.0
C1162 C 0.24221 0.8372 0.96182 0.0
C1163 C 0.24217 0.81456 0.94318 0.0
C1164 C 0.23215 0.82271 0.93258 0.0
C1165 C 0.22697 0.83811 0.93676 0.0
C1166 C 0.23182 0.84525 0.9514 0.0
C1167 C 0.22793 0.81518 0.91688 0.0
C1168 C 0.23408 0.82203 0.90301 0.0
C1169 C 0.22007 0.80008 0.91582 0.0
C1170 C 0.2128 0.79259 0.93002 0.0
C1171 C 0.20196 0.80113 0.93948 0.0
C1172 C 0.19527 0.7941 0.95293 0.0
C1173 C 0.19925 0.7785 0.95702 0.0
C1174 C 0.20992 0.76989 0.94764 0.0
C1175 C 0.21666 0.77686 0.93418 0.0
H1176 H 0.19406 0.77308 0.96745 0.0
H1177 H 0.26302 0.84003 0.83828 0.0
H1178 H 0.98638 0.53448 0.38376 0.0
H1179 H 0.00541 0.52696 0.36319 0.0
H1180 H 0.04461 0.54319 0.39372 0.0
H1181 H 0.02584 0.54994 0.41477 0.0
H1182 H 0.04478 0.55306 0.3588 0.0
H1183 H 0.04091 0.50738 0.3936 0.0
H1184 H 0.02605 0.48686 0.40847 0.0
H1185 H 0.00451 0.46898 0.36461 0.0
H1186 H 0.01906 0.48958 0.34951 0.0
H1187 H 0.10591 0.5169 0.31199 0.0
H1188 H 0.08951 0.52712 0.33385 0.0
H1189 H 0.04971 0.49764 0.31671 0.0
H1190 H 0.06625 0.48684 0.29556 0.0
H1191 H 0.05119 0.49524 0.34661 0.0
H1192 H 0.05325 0.54026 0.3114 0.0
H1193 H 0.0664 0.56113 0.29548 0.0
H1194 H 0.08923 0.58072 0.33797 0.0
H1195 H 0.07636 0.55983 0.35413 0.0
C1196 C 0.99904 0.53633 0.38623 0.0
C1197 C 0.00452 0.54275 0.40104 0.0
C1198 C 0.00987 0.53218 0.37438 0.0
C1199 C 0.02635 0.53456 0.377 0.0
C1200 C 0.03189 0.5414 0.39148 0.0
C1201 C 0.0211 0.54531 0.40346 0.0
C1202 C 0.03781 0.52906 0.36491 0.0
C1203 C 0.0464 0.54043 0.3562 0.0
C1204 C 0.03957 0.51261 0.36141 0.0
C1205 C 0.03095 0.50012 0.37045 0.0
C1206 C 0.03289 0.49916 0.38715 0.0
C1207 C 0.02455 0.4875 0.39561 0.0
C1208 C 0.01431 0.47665 0.3875 0.0
C1209 C 0.01243 0.47741 0.37089 0.0
C1210 C 0.02073 0.48906 0.36237 0.0
C1211 C 0.09365 0.51266 0.31294 0.0
C1212 C 0.08737 0.50103 0.30216 0.0
C1213 C 0.08425 0.51856 0.32536 0.0
C1214 C 0.06828 0.51329 0.32687 0.0
C1215 C 0.062 0.50184 0.31591 0.0
C1216 C 0.07147 0.49568 0.30379 0.0
C1217 C 0.05807 0.51923 0.34004 0.0
C1218 C 0.04971 0.50791 0.34909 0.0
C1219 C 0.05633 0.53575 0.34362 0.0
C1220 C 0.06398 0.54838 0.33394 0.0
C1221 C 0.06116 0.54895 0.31733 0.0
C1222 C 0.06855 0.56079 0.30827 0.0
C1223 C 0.07868 0.57221 0.3157 0.0
C1224 C 0.0814 0.57185 0.33223 0.0
C1225 C 0.07405 0.56002 0.34135 0.0
H1226 H 0.0844 0.58136 0.30866 0.0
H1227 H 0.00785 0.46762 0.39407 0.0
H1228 H 0.76489 0.774 0.88462 0.0
H1229 H 0.75977 0.75354 0.90446 0.0
H1230 H 0.81061 0.74747 0.91119 0.0
H1231 H 0.81584 0.76852 0.89201 0.0
H1232 H 0.76629 0.72372 0.90146 0.0
H1233 H 0.81929 0.73243 0.94726 0.0
H1234 H 0.83456 0.75462 0.96038 0.0
H1235 H 0.79489 0.7859 0.95331 0.0
H1236 H 0.77929 0.76386 0.94036 0.0
H1237 H 0.78531 0.651 0.93574 0.0
H1238 H 0.78725 0.67721 0.92348 0.0
H1239 H 0.76935 0.69934 0.96645 0.0
H1240 H 0.76764 0.6731 0.97899 0.0
H1241 H 0.79314 0.71711 0.95426 0.0
H1242 H 0.74446 0.69313 0.9348 0.0
H1243 H 0.72705 0.67188 0.92286 0.0
H1244 H 0.75385 0.67338 0.8795 0.0
H1245 H 0.77157 0.69449 0.89127 0.0
C1246 C 0.775 0.76869 0.89068 0.0
C1247 C 0.79079 0.77286 0.88665 0.0
C1248 C 0.77204 0.75688 0.90193 0.0
C1249 C 0.78479 0.74897 0.90935 0.0
C1250 C 0.80056 0.75354 0.90581 0.0
C1251 C 0.80354 0.76544 0.89467 0.0
C1252 C 0.78165 0.7349 0.9195 0.0
C1253 C 0.77207 0.72236 0.91306 0.0
C1254 C 0.78892 0.73321 0.93478 0.0
C1255 C 0.79817 0.7465 0.94273 0.0
C1256 C 0.81379 0.74402 0.94858 0.0
C1257 C 0.82251 0.75658 0.95597 0.0
C1258 C 0.81572 0.77167 0.95764 0.0
C1259 C 0.80016 0.77422 0.95196 0.0
C1260 C 0.79139 0.76171 0.94457 0.0
C1261 C 0.78185 0.66143 0.94264 0.0
C1262 C 0.77618 0.65994 0.95829 0.0
C1263 C 0.78293 0.6764 0.93559 0.0
C1264 C 0.77817 0.69018 0.94395 0.0
C1265 C 0.77301 0.68884 0.95977 0.0
C1266 C 0.77202 0.67384 0.96689 0.0
C1267 C 0.77824 0.70585 0.93593 0.0
C1268 C 0.78723 0.71862 0.94275 0.0
C1269 C 0.7701 0.70795 0.92115 0.0
C1270 C 0.75941 0.69532 0.91397 0.0
C1271 C 0.74671 0.68886 0.92276 0.0
C1272 C 0.73678 0.67685 0.91601 0.0
C1273 C 0.73936 0.67127 0.90044 0.0
C1274 C 0.75187 0.67771 0.89156 0.0
C1275 C 0.76184 0.68972 0.89826 0.0
H1276 H 0.73166 0.66197 0.89524 0.0
H1277 H 0.82249 0.78138 0.96335 0.0
H1278 H 0.02095 0.97414 0.35743 0.0
H1279 H 0.00211 0.9774 0.335 0.0
H1280 H 0.96311 0.96294 0.36502 0.0
H1281 H 0.98182 0.95957 0.38737 0.0
H1282 H 0.9593 0.95023 0.33581 0.0
H1283 H 0.97232 0.00269 0.35839 0.0
H1284 H 0.99058 0.02492 0.36658 0.0
H1285 H 0.00653 0.02898 0.31821 0.0
H1286 H 0.9885 0.00661 0.30979 0.0
H1287 H 0.89024 0.98736 0.30809 0.0
H1288 H 0.91424 0.98006 0.32296 0.0
H1289 H 0.94323 0.99155 0.28238 0.0
H1290 H 0.91906 0.99888 0.2672 0.0
H1291 H 0.95514 0.00419 0.3123 0.0
H1292 H 0.93812 0.95406 0.28941 0.0
H1293 H 0.91887 0.93245 0.28198 0.0
H1294 H 0.90957 0.92444 0.3316 0.0
H1295 H 0.92859 0.94618 0.33934 0.0
C1296 C 0.00836 0.97157 0.3592 0.0
C1297 C 0.00285 0.96667 0.37419 0.0
C1298 C 0.99763 0.97344 0.34638 0.0
C1299 C 0.98117 0.97062 0.3484 0.0
C1300 C 0.97575 0.96514 0.36317 0.0
C1301 C 0.98647 0.96318 0.37594 0.0
C1302 C 0.96939 0.97409 0.33549 0.0
C1303 C 0.95838 0.96204 0.3307 0.0
C1304 C 0.96845 0.98938 0.32847 0.0
C1305 C 0.97922 0.00286 0.33351 0.0
C1306 C 0.97981 0.00825 0.34953 0.0
C1307 C 0.9901 0.02088 0.35421 0.0
C1308 C 0.99975 0.02833 0.34293 0.0
C1309 C 0.99908 0.02318 0.32694 0.0
C1310 C 0.98883 0.01053 0.32221 0.0
C1311 C 0.90169 0.98839 0.30227 0.0
C1312 C 0.90272 0.99369 0.28643 0.0
C1313 C 0.91539 0.98412 0.31078 0.0
C1314 C 0.93046 0.98508 0.3037 0.0
C1315 C 0.93166 0.99065 0.288 0.0
C1316 C 0.91787 0.9948 0.27937 0.0
C1317 C 0.94482 0.98045 0.31302 0.0
C1318 C 0.9563 0.99229 0.31714 0.0
C1319 C 0.94612 0.965 0.31953 0.0
C1320 C 0.93472 0.95183 0.31495 0.0
C1321 C 0.93188 0.94778 0.29874 0.0
C1322 C 0.92102 0.93549 0.29448 0.0
C1323 C 0.91298 0.92709 0.30631 0.0
C1324 C 0.91581 0.93095 0.32245 0.0
C1325 C 0.92665 0.94325 0.32678 0.0
H1326 H 0.90458 0.91758 0.30298 0.0
H1327 H 0.0077 0.03811 0.34657 0.0
H1328 H 0.24194 0.24105 0.62995 0.0
H1329 H 0.24397 0.22174 0.60788 0.0
H1330 H 0.2388 0.1829 0.64086 0.0
H1331 H 0.23731 0.20218 0.66314 0.0
H1332 H 0.26216 0.17712 0.61977 0.0
H1333 H 0.20763 0.19339 0.61704 0.0
H1334 H 0.18546 0.21248 0.616 0.0
H1335 H 0.20301 0.23088 0.57182 0.0
H1336 H 0.22543 0.21204 0.57272 0.0
H1337 H 0.24916 0.11841 0.5576 0.0
H1338 H 0.24565 0.13562 0.58122 0.0
H1339 H 0.25079 0.17745 0.55206 0.0
H1340 H 0.2541 0.1604 0.52842 0.0
H1341 H 0.22614 0.18032 0.5722 0.0
H1342 H 0.28147 0.16501 0.57585 0.0
H1343 H 0.30367 0.14595 0.577 0.0
H1344 H 0.28437 0.12563 0.61956 0.0
H1345 H 0.26192 0.14444 0.61853 0.0
C1346 C 0.24141 0.2284 0.63255 0.0
C1347 C 0.23946 0.22315 0.64831 0.0
C1348 C 0.24239 0.21738 0.61989 0.0
C1349 C 0.24131 0.20088 0.6227 0.0
C1350 C 0.23958 0.19558 0.63843 0.0
C1351 C 0.23861 0.20661 0.65112 0.0
C1352 C 0.24214 0.18922 0.60918 0.0
C1353 C 0.25411 0.17764 0.60948 0.0
C1354 C 0.2318 0.19008 0.59564 0.0
C1355 C 0.21829 0.20139 0.59502 0.0
C1356 C 0.20683 0.20159 0.60717 0.0
C1357 C 0.19421 0.21235 0.60659 0.0
C1358 C 0.19285 0.22291 0.59387 0.0
C1359 C 0.20409 0.2227 0.58168 0.0
C1360 C 0.21675 0.21197 0.58221 0.0
C1361 C 0.24954 0.13127 0.55621 0.0
C1362 C 0.25195 0.13803 0.54112 0.0
C1363 C 0.24758 0.14108 0.56973 0.0
C1364 C 0.2481 0.15782 0.56842 0.0
C1365 C 0.25034 0.16457 0.55335 0.0
C1366 C 0.25229 0.15479 0.53985 0.0
C1367 C 0.2463 0.16837 0.58269 0.0
C1368 C 0.23411 0.17973 0.58253 0.0
C1369 C 0.25642 0.16729 0.59636 0.0
C1370 C 0.26993 0.15601 0.59701 0.0
C1371 C 0.28189 0.15639 0.58537 0.0
C1372 C 0.29453 0.14565 0.58602 0.0
C1373 C 0.29541 0.13455 0.59831 0.0
C1374 C 0.28366 0.13421 0.61002 0.0
C1375 C 0.27099 0.14491 0.60942 0.0
H1376 H 0.30521 0.12625 0.59879 0.0
H1377 H 0.18306 0.23123 0.59345 0.0
H1378 H 0.50218 0.51392 0.62095 0.0
H1379 H 0.48234 0.51174 0.64199 0.0
H1380 H 0.44525 0.52535 0.60865 0.0
H1381 H 0.46503 0.52749 0.58751 0.0
H1382 H 0.4423 0.54093 0.63674 0.0
H1383 H 0.44929 0.48641 0.61984 0.0
H1384 H 0.46453 0.46213 0.6136 0.0
H1385 H 0.48203 0.46095 0.66214 0.0
H1386 H 0.46706 0.48536 0.66862 0.0
H1387 H 0.37605 0.51854 0.6844 0.0
H1388 H 0.39549 0.52045 0.66293 0.0
H1389 H 0.43313 0.50684 0.69565 0.0
H1390 H 0.41374 0.50468 0.71712 0.0
H1391 H 0.43556 0.49115 0.66763 0.0
H1392 H 0.42887 0.54577 0.68448 0.0
H1393 H 0.41377 0.57012 0.69077 0.0
H1394 H 0.3958 0.57116 0.64239 0.0
H1395 H 0.41064 0.54667 0.63586 0.0
C1396 C 0.48978 0.51629 0.61803 0.0
C1397 C 0.48521 0.52081 0.60249 0.0
C1398 C 0.47844 0.51507 0.6301 0.0
C1399 C 0.46225 0.5182 0.62688 0.0
C1400 C 0.45767 0.52288 0.61144 0.0
C1401 C 0.46901 0.52414 0.59937 0.0
C1402 C 0.45011 0.5167 0.63964 0.0
C1403 C 0.44067 0.52997 0.64333 0.0
C1404 C 0.44822 0.50252 0.64852 0.0
C1405 C 0.45717 0.4878 0.64467 0.0
C1406 C 0.45648 0.48104 0.62916 0.0
C1407 C 0.46506 0.46725 0.62558 0.0
C1408 C 0.47427 0.46003 0.63745 0.0
C1409 C 0.4749 0.46657 0.65294 0.0
C1410 C 0.46636 0.48038 0.65658 0.0
C1411 C 0.38846 0.51595 0.68704 0.0
C1412 C 0.39332 0.5115 0.70251 0.0
C1413 C 0.39959 0.51711 0.67476 0.0
C1414 C 0.41583 0.51396 0.6777 0.0
C1415 C 0.42068 0.50934 0.69308 0.0
C1416 C 0.40957 0.50817 0.70537 0.0
C1417 C 0.42777 0.51539 0.66475 0.0
C1418 C 0.43718 0.50211 0.66102 0.0
C1419 C 0.42964 0.52955 0.65584 0.0
C1420 C 0.42073 0.54429 0.65973 0.0
C1421 C 0.4216 0.55112 0.67521 0.0
C1422 C 0.41311 0.56496 0.67882 0.0
C1423 C 0.4038 0.57216 0.667 0.0
C1424 C 0.403 0.56555 0.65154 0.0
C1425 C 0.41146 0.5517 0.64788 0.0
H1426 H 0.39723 0.58288 0.66981 0.0
H1427 H 0.4809 0.44935 0.63466 0.0
H1428 H 0.74274 0.27275 0.6706 0.0
H1429 H 0.73716 0.29084 0.64848 0.0
H1430 H 0.78679 0.28955 0.63517 0.0
H1431 H 0.79241 0.27143 0.65704 0.0
H1432 H 0.77565 0.31968 0.63465 0.0
H1433 H 0.75812 0.2671 0.61525 0.0
H1434 H 0.742 0.24216 0.61609 0.0
H1435 H 0.69879 0.26922 0.61382 0.0
H1436 H 0.71468 0.29436 0.61318 0.0
H1437 H 0.78339 0.33427 0.55371 0.0
H1438 H 0.78129 0.3229 0.58016 0.0
H1439 H 0.73154 0.3357 0.58176 0.0
H1440 H 0.73354 0.34731 0.55496 0.0
H1441 H 0.73768 0.3037 0.59079 0.0
H1442 H 0.75607 0.35609 0.60511 0.0
H1443 H 0.77275 0.38058 0.60348 0.0
H1444 H 0.81472 0.35377 0.61486 0.0
H1445 H 0.79833 0.32906 0.61633 0.0
C1446 C 0.75244 0.27626 0.6629 0.0
C1447 C 0.76804 0.27064 0.6656 0.0
C1448 C 0.74924 0.28664 0.65031 0.0
C1449 C 0.76154 0.29149 0.64013 0.0
C1450 C 0.77713 0.28605 0.64293 0.0
C1451 C 0.78033 0.27572 0.65549 0.0
C1452 C 0.75834 0.30197 0.62631 0.0
C1453 C 0.76736 0.31618 0.62505 0.0
C1454 C 0.7471 0.29769 0.61404 0.0
C1455 C 0.73757 0.2826 0.61438 0.0
C1456 C 0.74518 0.26773 0.61507 0.0
C1457 C 0.73609 0.25356 0.61548 0.0
C1458 C 0.71938 0.25411 0.61506 0.0
C1459 C 0.71173 0.26882 0.61418 0.0
C1460 C 0.72077 0.28303 0.61379 0.0
C1461 C 0.77197 0.33477 0.55964 0.0
C1462 C 0.75861 0.34169 0.55219 0.0
C1463 C 0.77083 0.32833 0.57483 0.0
C1464 C 0.75632 0.3286 0.58299 0.0
C1465 C 0.74288 0.33546 0.57567 0.0
C1466 C 0.74405 0.34211 0.56041 0.0
C1467 C 0.75542 0.32109 0.5989 0.0
C1468 C 0.74565 0.30743 0.60057 0.0
C1469 C 0.76601 0.32583 0.61154 0.0
C1470 C 0.77595 0.34069 0.61076 0.0
C1471 C 0.76887 0.35539 0.60716 0.0
C1472 C 0.77828 0.36932 0.60628 0.0
C1473 C 0.79479 0.36873 0.60905 0.0
C1474 C 0.80192 0.35421 0.61273 0.0
C1475 C 0.79257 0.34024 0.61361 0.0
H1476 H 0.80205 0.37953 0.60836 0.0
H1477 H 0.71237 0.24312 0.61538 0.0
H1478 H 0.54827 0.97957 0.57619 0.0
H1479 H 0.5681 0.98775 0.59686 0.0
H1480 H 0.53055 0.99039 0.63163 0.0
H1481 H 0.51086 0.98256 0.61114 0.0
H1482 H 0.55124 0.01371 0.63724 0.0
H1483 H 0.55382 0.95622 0.62579 0.0
H1484 H 0.55823 0.93271 0.60827 0.0
H1485 H 0.6058 0.94983 0.59868 0.0
H1486 H 0.60157 0.97355 0.61602 0.0
H1487 H 0.57294 0.97186 0.7072 0.0
H1488 H 0.56489 0.97707 0.67963 0.0
H1489 H 0.6075 0.00593 0.67348 0.0
H1490 H 0.61552 0.00115 0.70145 0.0
H1491 H 0.59213 0.97317 0.64974 0.0
H1492 H 0.58916 0.02904 0.6673 0.0
H1493 H 0.5826 0.05004 0.6871 0.0
H1494 H 0.53367 0.03354 0.68696 0.0
H1495 H 0.54002 0.01227 0.66735 0.0
C1496 C 0.5443 0.98208 0.58823 0.0
C1497 C 0.52805 0.98039 0.59208 0.0
C1498 C 0.5556 0.98678 0.59999 0.0
C1499 C 0.55082 0.98956 0.61583 0.0
C1500 C 0.53452 0.98846 0.61948 0.0
C1501 C 0.52325 0.98395 0.60775 0.0
C1502 C 0.56265 0.99218 0.62906 0.0
C1503 C 0.56039 0.005 0.63981 0.0
C1504 C 0.57477 0.98097 0.63235 0.0
C1505 C 0.57731 0.96673 0.62199 0.0
C1506 C 0.56518 0.95501 0.61985 0.0
C1507 C 0.56765 0.94165 0.60997 0.0
C1508 C 0.58227 0.93981 0.60232 0.0
C1509 C 0.59446 0.9513 0.60458 0.0
C1510 C 0.59204 0.9647 0.61442 0.0
C1511 C 0.58061 0.97936 0.70004 0.0
C1512 C 0.59486 0.98609 0.70647 0.0
C1513 C 0.57598 0.98234 0.68432 0.0
C1514 C 0.58559 0.99192 0.67466 0.0
C1515 C 0.5999 0.99861 0.68089 0.0
C1516 C 0.60443 0.99587 0.6968 0.0
C1517 C 0.58035 0.99439 0.65798 0.0
C1518 C 0.58364 0.98238 0.64669 0.0
C1519 C 0.56902 0.00617 0.65431 0.0
C1520 C 0.56511 0.01899 0.66599 0.0
C1521 C 0.57704 0.02979 0.67162 0.0
C1522 C 0.57335 0.04177 0.68278 0.0
C1523 C 0.55773 0.0431 0.68831 0.0
C1524 C 0.54576 0.03248 0.68267 0.0
C1525 C 0.5494 0.02048 0.67153 0.0
H1526 H 0.5549 0.05238 0.69694 0.0
H1527 H 0.58416 0.92946 0.59468 0.0
H1528 H 0.85064 0.18302 0.77486 0.0
H1529 H 0.87608 0.186 0.78966 0.0
H1530 H 0.87313 0.2373 0.7866 0.0
H1531 H 0.84744 0.23456 0.77253 0.0
H1532 H 0.90306 0.22352 0.77655 0.0
H1533 H 0.86496 0.22165 0.82013 0.0
H1534 H 0.84354 0.2088 0.83558 0.0
H1535 H 0.87364 0.16859 0.84433 0.0
H1536 H 0.89516 0.18112 0.82872 0.0
H1537 H 0.95427 0.26402 0.82829 0.0
H1538 H 0.93096 0.25227 0.81474 0.0
H1539 H 0.94292 0.20584 0.83282 0.0
H1540 H 0.96645 0.21774 0.84694 0.0
H1541 H 0.91077 0.21098 0.83397 0.0
H1542 H 0.95023 0.21388 0.79419 0.0
H1543 H 0.97202 0.22582 0.77858 0.0
H1544 H 0.9403 0.26201 0.76171 0.0
H1545 H 0.91837 0.25045 0.77742 0.0
C1546 C 0.85525 0.19496 0.77755 0.0
C1547 C 0.84696 0.20855 0.77239 0.0
C1548 C 0.86984 0.19661 0.78593 0.0
C1549 C 0.87646 0.21186 0.78915 0.0
C1550 C 0.86825 0.22541 0.7841 0.0
C1551 C 0.8536 0.2238 0.77594 0.0
C1552 C 0.89212 0.21391 0.79751 0.0
C1553 C 0.90477 0.22082 0.78911 0.0
C1554 C 0.89449 0.2097 0.81369 0.0
C1555 C 0.88158 0.20222 0.82309 0.0
C1556 C 0.86695 0.21 0.82521 0.0
C1557 C 0.8548 0.20279 0.83403 0.0
C1558 C 0.85721 0.18786 0.84088 0.0
C1559 C 0.87178 0.18014 0.83898 0.0
C1560 C 0.88395 0.18729 0.83016 0.0
C1561 C 0.95204 0.25129 0.82944 0.0
C1562 C 0.96236 0.24177 0.83855 0.0
C1563 C 0.93869 0.24457 0.82161 0.0
C1564 C 0.93541 0.22811 0.82242 0.0
C1565 C 0.94534 0.21856 0.83192 0.0
C1566 C 0.95875 0.22535 0.83995 0.0
C1567 C 0.92155 0.22124 0.81317 0.0
C1568 C 0.90924 0.21337 0.82133 0.0
C1569 C 0.91953 0.22435 0.79665 0.0
C1570 C 0.93266 0.23131 0.78705 0.0
C1571 C 0.94792 0.22444 0.78723 0.0
C1572 C 0.9603 0.23114 0.77836 0.0
C1573 C 0.95755 0.24467 0.76917 0.0
C1574 C 0.94241 0.25152 0.76883 0.0
C1575 C 0.92999 0.24488 0.77769 0.0
H1576 H 0.96716 0.24984 0.76231 0.0
H1577 H 0.84779 0.1823 0.84771 0.0
H1578 H 0.44777 0.86736 0.50714 0.0
H1579 H 0.45394 0.84474 0.48916 0.0
H1580 H 0.49204 0.87261 0.46859 0.0
H1581 H 0.48613 0.89505 0.48659 0.0
H1582 H 0.46842 0.85763 0.4463 0.0
H1583 H 0.50287 0.84602 0.49206 0.0
H1584 H 0.50789 0.84034 0.52054 0.0
H1585 H 0.47679 0.799 0.51686 0.0
H1586 H 0.4714 0.80459 0.4884 0.0
H1587 H 0.51316 0.80997 0.39721 0.0
H1588 H 0.50575 0.82721 0.41957 0.0
H1589 H 0.47854 0.78834 0.43969 0.0
H1590 H 0.48644 0.77074 0.41741 0.0
H1591 H 0.49273 0.80663 0.4631 0.0
H1592 H 0.4595 0.81596 0.41777 0.0
H1593 H 0.45287 0.82105 0.38948 0.0
H1594 H 0.47868 0.86586 0.39245 0.0
H1595 H 0.48567 0.86094 0.4207 0.0
C1596 C 0.45749 0.86857 0.4988 0.0
C1597 C 0.46652 0.88288 0.49824 0.0
C1598 C 0.46103 0.85567 0.48863 0.0
C1599 C 0.47346 0.85706 0.47764 0.0
C1600 C 0.48243 0.87134 0.47705 0.0
C1601 C 0.47909 0.88409 0.48736 0.0
C1602 C 0.47686 0.84393 0.46619 0.0
C1603 C 0.47383 0.84651 0.44993 0.0
C1604 C 0.48328 0.82921 0.47109 0.0
C1605 C 0.48657 0.82584 0.48816 0.0
C1606 C 0.49697 0.83582 0.49737 0.0
C1607 C 0.49991 0.8326 0.5135 0.0
C1608 C 0.49262 0.81935 0.52052 0.0
C1609 C 0.4824 0.80928 0.51142 0.0
C1610 C 0.47941 0.81246 0.49528 0.0
C1611 C 0.5058 0.805 0.40651 0.0
C1612 C 0.5002 0.78909 0.40548 0.0
C1613 C 0.50152 0.81488 0.41926 0.0
C1614 C 0.4912 0.8092 0.43104 0.0
C1615 C 0.48639 0.79301 0.43063 0.0
C1616 C 0.49092 0.78297 0.41794 0.0
C1617 C 0.48482 0.82056 0.44308 0.0
C1618 C 0.48716 0.81765 0.45944 0.0
C1619 C 0.47746 0.83493 0.43832 0.0
C1620 C 0.4732 0.83802 0.42134 0.0
C1621 C 0.46385 0.82685 0.41237 0.0
C1622 C 0.46002 0.82972 0.39634 0.0
C1623 C 0.46537 0.84376 0.38917 0.0
C1624 C 0.47455 0.85499 0.39802 0.0
C1625 C 0.47843 0.85217 0.41405 0.0
H1626 H 0.46239 0.84595 0.37676 0.0
H1627 H 0.49492 0.81687 0.53301 0.0
H1628 H 0.14414 0.2435 0.74997 0.0
H1629 H 0.12197 0.24185 0.76855 0.0
H1630 H 0.152 0.26273 0.80605 0.0
H1631 H 0.17435 0.26432 0.78752 0.0
H1632 H 0.11654 0.22747 0.79684 0.0
H1633 H 0.1288 0.28861 0.82764 0.0
H1634 H 0.1424 0.31438 0.82231 0.0
H1635 H 0.13456 0.30698 0.77182 0.0
H1636 H 0.12073 0.28131 0.77687 0.0
H1637 H 0.05536 0.23954 0.85572 0.0
H1638 H 0.0817 0.23716 0.84331 0.0
H1639 H 0.06861 0.27289 0.809 0.0
H1640 H 0.04272 0.27557 0.82138 0.0
H1641 H 0.09766 0.27882 0.81972 0.0
H1642 H 0.06784 0.23209 0.79987 0.0
H1643 H 0.05258 0.20682 0.80273 0.0
H1644 H 0.09265 0.18614 0.82715 0.0
H1645 H 0.10808 0.21137 0.82459 0.0
C1646 C 0.14615 0.24747 0.76224 0.0
C1647 C 0.16101 0.25413 0.76723 0.0
C1648 C 0.13344 0.24652 0.77286 0.0
C1649 C 0.13529 0.25226 0.78865 0.0
C1650 C 0.15026 0.25839 0.79385 0.0
C1651 C 0.16299 0.25938 0.78323 0.0
C1652 C 0.12119 0.25284 0.79921 0.0
C1653 C 0.11249 0.23867 0.80198 0.0
C1654 C 0.11581 0.26745 0.80581 0.0
C1655 C 0.12393 0.28296 0.80263 0.0
C1656 C 0.12995 0.29252 0.81541 0.0
C1657 C 0.1377 0.3071 0.81244 0.0
C1658 C 0.1394 0.31228 0.79674 0.0
C1659 C 0.13329 0.30293 0.78397 0.0
C1660 C 0.12552 0.28836 0.78688 0.0
C1661 C 0.05814 0.24688 0.84554 0.0
C1662 C 0.04692 0.25775 0.83957 0.0
C1663 C 0.07317 0.24549 0.83844 0.0
C1664 C 0.07713 0.25483 0.82519 0.0
C1665 C 0.06592 0.26564 0.81928 0.0
C1666 C 0.05104 0.26711 0.82637 0.0
C1667 C 0.0928 0.25349 0.81717 0.0
C1668 C 0.10186 0.26754 0.81489 0.0
C1669 C 0.09827 0.23883 0.81074 0.0
C1670 C 0.08904 0.22366 0.81221 0.0
C1671 C 0.07335 0.22219 0.80595 0.0
C1672 C 0.06468 0.20787 0.8075 0.0
C1673 C 0.07162 0.1949 0.81516 0.0
C1674 C 0.08727 0.1962 0.82125 0.0
C1675 C 0.09599 0.2105 0.81974 0.0
H1676 H 0.06489 0.18382 0.81635 0.0
H1677 H 0.14541 0.32356 0.79446 0.0
H1678 H 0.55099 0.60905 0.49056 0.0
H1679 H 0.54973 0.63132 0.47195 0.0
H1680 H 0.4987 0.62402 0.46663 0.0
H1681 H 0.49991 0.60154 0.48503 0.0
H1682 H 0.51323 0.62881 0.43774 0.0
H1683 H 0.51295 0.65408 0.48977 0.0
H1684 H 0.52296 0.65987 0.51719 0.0
H1685 H 0.56731 0.67766 0.49863 0.0
H1686 H 0.55764 0.67176 0.47109 0.0
H1687 H 0.4954 0.70261 0.40062 0.0
H1688 H 0.49649 0.67962 0.4183 0.0
H1689 H 0.54668 0.68929 0.42765 0.0
H1690 H 0.54558 0.71251 0.41032 0.0
H1691 H 0.5324 0.68309 0.45454 0.0
H1692 H 0.53319 0.65786 0.40267 0.0
H1693 H 0.5237 0.65181 0.37512 0.0
H1694 H 0.4792 0.63366 0.39302 0.0
H1695 H 0.48835 0.6398 0.42068 0.0
C1696 C 0.53952 0.6121 0.48533 0.0
C1697 C 0.52554 0.60356 0.48932 0.0
C1698 C 0.5388 0.62491 0.47479 0.0
C1699 C 0.52409 0.62943 0.46801 0.0
C1700 C 0.51016 0.62076 0.47176 0.0
C1701 C 0.51086 0.60801 0.48237 0.0
C1702 C 0.52324 0.64325 0.45709 0.0
C1703 C 0.51722 0.64073 0.44146 0.0
C1704 C 0.52881 0.65872 0.46183 0.0
C1705 C 0.53463 0.66233 0.47837 0.0
C1706 C 0.52488 0.65911 0.49154 0.0
C1707 C 0.53049 0.66243 0.50711 0.0
C1708 C 0.54578 0.66909 0.50966 0.0
C1709 C 0.55548 0.67248 0.49664 0.0
C1710 C 0.54994 0.66916 0.48105 0.0
C1711 C 0.50669 0.6998 0.40637 0.0
C1712 C 0.52041 0.7094 0.40403 0.0
C1713 C 0.50732 0.6866 0.41644 0.0
C1714 C 0.52172 0.68258 0.4242 0.0
C1715 C 0.53542 0.69213 0.42182 0.0
C1716 C 0.53478 0.70539 0.41186 0.0
C1717 C 0.52244 0.66868 0.4351 0.0
C1718 C 0.52841 0.67118 0.45076 0.0
C1719 C 0.51692 0.65317 0.43035 0.0
C1720 C 0.51139 0.64944 0.41374 0.0
C1721 C 0.52133 0.6527 0.40072 0.0
C1722 C 0.51602 0.64923 0.38509 0.0
C1723 C 0.50084 0.6424 0.38231 0.0
C1724 C 0.49095 0.63898 0.39518 0.0
C1725 C 0.4962 0.64243 0.41084 0.0
H1726 H 0.49675 0.63972 0.3702 0.0
H1727 H 0.5501 0.67166 0.52171 0.0
H1728 H 0.85299 0.78508 0.74486 0.0
H1729 H 0.87299 0.77927 0.72478 0.0
H1730 H 0.90932 0.77632 0.76183 0.0
H1731 H 0.88937 0.78271 0.78205 0.0
H1732 H 0.91962 0.794 0.7375 0.0
H1733 H 0.8958 0.7425 0.7426 0.0
H1734 H 0.87402 0.72239 0.74431 0.0
H1735 H 0.85819 0.73342 0.69669 0.0
H1736 H 0.87973 0.75377 0.69477 0.0
H1737 H 0.97216 0.76861 0.67411 0.0
H1738 H 0.95738 0.76876 0.69926 0.0
H1739 H 0.91339 0.77642 0.673 0.0
H1740 H 0.92789 0.77628 0.648 0.0
H1741 H 0.91058 0.75249 0.69509 0.0
H1742 H 0.93195 0.8069 0.69236 0.0
H1743 H 0.95372 0.82707 0.69086 0.0
H1744 H 0.97447 0.8098 0.73449 0.0
H1745 H 0.95291 0.78938 0.73613 0.0
C1746 C 0.86524 0.78325 0.74875 0.0
C1747 C 0.86961 0.78442 0.76504 0.0
C1748 C 0.87663 0.77974 0.73728 0.0
C1749 C 0.89261 0.77714 0.74183 0.0
C1750 C 0.89703 0.77819 0.75809 0.0
C1751 C 0.88561 0.78173 0.76961 0.0
C1752 C 0.9047 0.77411 0.72942 0.0
C1753 C 0.91785 0.78468 0.72843 0.0
C1754 C 0.90233 0.76202 0.71753 0.0
C1755 C 0.88935 0.74974 0.71859 0.0
C1756 C 0.88761 0.74072 0.73253 0.0
C1757 C 0.87531 0.72926 0.73353 0.0
C1758 C 0.86471 0.72664 0.72062 0.0
C1759 C 0.86641 0.73546 0.70668 0.0
C1760 C 0.87868 0.74695 0.70562 0.0
C1761 C 0.95935 0.77037 0.67372 0.0
C1762 C 0.95121 0.77245 0.65905 0.0
C1763 C 0.95094 0.77046 0.68808 0.0
C1764 C 0.93431 0.77259 0.68795 0.0
C1765 C 0.92621 0.77468 0.67334 0.0
C1766 C 0.93456 0.77468 0.65906 0.0
C1767 C 0.92509 0.77274 0.70291 0.0
C1768 C 0.9125 0.76158 0.70437 0.0
C1769 C 0.92803 0.78422 0.71525 0.0
C1770 C 0.94095 0.79649 0.71426 0.0
C1771 C 0.94124 0.80731 0.70155 0.0
C1772 C 0.95352 0.81881 0.70069 0.0
C1773 C 0.9655 0.81968 0.71254 0.0
C1774 C 0.9652 0.80909 0.7253 0.0
C1775 C 0.95296 0.79756 0.72621 0.0
H1776 H 0.975 0.82859 0.71186 0.0
H1777 H 0.8552 0.71777 0.72142 0.0
H1778 H 0.01576 0.91173 0.51549 0.0
H1779 H 0.01291 0.892 0.53656 0.0
H1780 H 0.03876 0.85777 0.50805 0.0
H1781 H 0.04072 0.87734 0.48654 0.0
H1782 H 0.01609 0.84292 0.52073 0.0
H1783 H 0.05571 0.8783 0.5424 0.0
H1784 H 0.06862 0.90401 0.55032 0.0
H1785 H 0.03093 0.91319 0.58338 0.0
H1786 H 0.01765 0.88765 0.57548 0.0
H1787 H 0.01939 0.79289 0.59019 0.0
H1788 H 0.03091 0.81247 0.5718 0.0
H1789 H 0.99061 0.84315 0.57916 0.0
H1790 H 0.97877 0.82344 0.59702 0.0
H1791 H 0.02557 0.85799 0.57782 0.0
H1792 H 0.98475 0.8232 0.5503 0.0
H1793 H 0.97415 0.79639 0.54262 0.0
H1794 H 0.01886 0.785 0.52088 0.0
H1795 H 0.02978 0.81169 0.52867 0.0
C1796 C 0.02076 0.89995 0.51377 0.0
C1797 C 0.02843 0.89595 0.49951 0.0
C1798 C 0.01931 0.88874 0.52586 0.0
C1799 C 0.026 0.87348 0.52413 0.0
C1800 C 0.03357 0.86946 0.50974 0.0
C1801 C 0.03468 0.88059 0.49747 0.0
C1802 C 0.02446 0.8616 0.53709 0.0
C1803 C 0.01852 0.8462 0.53315 0.0
C1804 C 0.02766 0.86571 0.55339 0.0
C1805 C 0.03562 0.88108 0.55826 0.0
C1806 C 0.05011 0.88584 0.55128 0.0
C1807 C 0.0575 0.90039 0.55578 0.0
C1808 C 0.05058 0.91024 0.56732 0.0
C1809 C 0.03627 0.90555 0.57443 0.0
C1810 C 0.02881 0.89103 0.56996 0.0
C1811 C 0.01321 0.80399 0.58815 0.0
C1812 C 0.99818 0.80669 0.59491 0.0
C1813 C 0.01977 0.8151 0.57766 0.0
C1814 C 0.01156 0.82917 0.57419 0.0
C1815 C 0.99711 0.83237 0.5818 0.0
C1816 C 0.99036 0.8211 0.59192 0.0
C1817 C 0.01693 0.83975 0.56131 0.0
C1818 C 0.02353 0.85481 0.56531 0.0
C1819 C 0.01477 0.83523 0.54506 0.0
C1820 C 0.00813 0.81932 0.54023 0.0
C1821 C 0.99235 0.81491 0.54402 0.0
C1822 C 0.98628 0.79976 0.53962 0.0
C1823 C 0.99585 0.78898 0.53132 0.0
C1824 C 0.01148 0.79335 0.52735 0.0
C1825 C 0.01762 0.80848 0.53174 0.0
H1826 H 0.99113 0.77725 0.52792 0.0
H1827 H 0.05633 0.9215 0.57079 0.0
H1828 H 0.12856 0.73809 0.74194 0.0
H1829 H 0.10608 0.74014 0.72312 0.0
H1830 H 0.13801 0.73357 0.6836 0.0
H1831 H 0.1607 0.73204 0.70238 0.0
H1832 H 0.1179 0.75768 0.6782 0.0
H1833 H 0.11289 0.70342 0.69473 0.0
H1834 H 0.11114 0.68138 0.71389 0.0
H1835 H 0.06823 0.70109 0.73308 0.0
H1836 H 0.06984 0.7234 0.71418 0.0
H1837 H 0.05397 0.74859 0.62102 0.0
H1838 H 0.07762 0.7433 0.63763 0.0
H1839 H 0.04978 0.74985 0.68018 0.0
H1840 H 0.02607 0.75494 0.66371 0.0
H1841 H 0.06868 0.72415 0.68257 0.0
H1842 H 0.07485 0.77928 0.66731 0.0
H1843 H 0.07668 0.80148 0.64831 0.0
H1844 H 0.11756 0.77997 0.62675 0.0
H1845 H 0.11584 0.75753 0.6455 0.0
C1846 C 0.13084 0.73717 0.72924 0.0
C1847 C 0.14644 0.73492 0.72366 0.0
C1848 C 0.11793 0.73817 0.7185 0.0
C1849 C 0.12033 0.73682 0.70195 0.0
C1850 C 0.13588 0.73458 0.69632 0.0
C1851 C 0.14881 0.73358 0.70707 0.0
C1852 C 0.10663 0.73822 0.69056 0.0
C1853 C 0.10725 0.75016 0.67896 0.0
C1854 C 0.09261 0.7286 0.69176 0.0
C1855 C 0.09156 0.71516 0.70311 0.0
C1856 C 0.10314 0.70313 0.70311 0.0
C1857 C 0.10217 0.69057 0.71392 0.0
C1858 C 0.0896 0.68985 0.72472 0.0
C1859 C 0.07796 0.70167 0.72471 0.0
C1860 C 0.07889 0.71427 0.71395 0.0
C1861 C 0.05287 0.74887 0.63391 0.0
C1862 C 0.03814 0.75226 0.64103 0.0
C1863 C 0.06641 0.74589 0.64339 0.0
C1864 C 0.0655 0.74633 0.66015 0.0
C1865 C 0.05076 0.74944 0.66727 0.0
C1866 C 0.03723 0.75242 0.65782 0.0
C1867 C 0.0799 0.74374 0.67035 0.0
C1868 C 0.0794 0.73157 0.68172 0.0
C1869 C 0.09403 0.75314 0.66894 0.0
C1870 C 0.0951 0.76664 0.65769 0.0
C1871 C 0.08414 0.77922 0.65843 0.0
C1872 C 0.08518 0.79186 0.64772 0.0
C1873 C 0.0972 0.79211 0.6363 0.0
C1874 C 0.10824 0.77975 0.63559 0.0
C1875 C 0.10725 0.76707 0.64626 0.0
H1876 H 0.09798 0.8019 0.62802 0.0
H1877 H 0.08886 0.68012 0.73307 0.0
H1878 H 0.93303 0.61787 0.52156 0.0
H1879 H 0.93928 0.64185 0.53778 0.0
H1880 H 0.98849 0.62752 0.54212 0.0
H1881 H 0.98231 0.60342 0.52582 0.0
H1882 H 0.97392 0.63992 0.57157 0.0
H1883 H 0.98256 0.65358 0.5168 0.0
H1884 H 0.97544 0.65484 0.48812 0.0
H1885 H 0.93447 0.68307 0.49922 0.0
H1886 H 0.94119 0.68175 0.52801 0.0
H1887 H 0.99792 0.71819 0.60065 0.0
H1888 H 0.99681 0.69252 0.58605 0.0
H1889 H 0.94945 0.70326 0.56834 0.0
H1890 H 0.95062 0.72895 0.58246 0.0
H1891 H 0.96673 0.69207 0.54503 0.0
H1892 H 0.95626 0.67679 0.59941 0.0
H1893 H 0.96214 0.67498 0.62833 0.0
H1894 H 0.00528 0.64966 0.61839 0.0
H1895 H 0.99975 0.65151 0.58939 0.0
C1896 C 0.94512 0.6197 0.52619 0.0
C1897 C 0.95721 0.60884 0.52243 0.0
C1898 C 0.94868 0.63341 0.53536 0.0
C1899 C 0.96435 0.63644 0.54101 0.0
C1900 C 0.97634 0.62534 0.53783 0.0
C1901 C 0.97282 0.61168 0.52847 0.0
C1902 C 0.96823 0.65166 0.54952 0.0
C1903 C 0.97264 0.65135 0.56576 0.0
C1904 C 0.96631 0.66649 0.5419 0.0
C1905 C 0.96231 0.66745 0.52458 0.0
C1906 C 0.97196 0.65994 0.51314 0.0
C1907 C 0.96801 0.66069 0.49686 0.0
C1908 C 0.95449 0.669 0.49185 0.0
C1909 C 0.94493 0.67662 0.50312 0.0
C1910 C 0.94881 0.67589 0.51942 0.0
C1911 C 0.98727 0.71505 0.59365 0.0
C1912 C 0.97436 0.72561 0.5927 0.0
C1913 C 0.98663 0.70036 0.58537 0.0
C1914 C 0.97299 0.69592 0.5762 0.0
C1915 C 0.96012 0.70646 0.57529 0.0
C1916 C 0.9608 0.72114 0.58341 0.0
C1917 C 0.97201 0.68045 0.5673 0.0
C1918 C 0.9682 0.68068 0.55089 0.0
C1919 C 0.97437 0.66558 0.57483 0.0
C1920 C 0.97769 0.66446 0.59224 0.0
C1921 C 0.96707 0.67096 0.60339 0.0
C1922 C 0.97032 0.6699 0.6198 0.0
C1923 C 0.9841 0.66226 0.62519 0.0
C1924 C 0.99463 0.65561 0.61419 0.0
C1925 C 0.99143 0.65665 0.59777 0.0
H1926 H 0.9866 0.66145 0.63789 0.0
H1927 H 0.95146 0.66957 0.47924 0.0
H1928 H 0.76486 0.85219 0.24846 0.0
H1929 H 0.77983 0.87745 0.24815 0.0
H1930 H 0.78149 0.87485 0.19668 0.0
H1931 H 0.76586 0.8498 0.19674 0.0
H1932 H 0.81185 0.88359 0.21337 0.0
H1933 H 0.75706 0.89937 0.20975 0.0
H1934 H 0.72866 0.89917 0.21732 0.0
H1935 H 0.74176 0.91619 0.26454 0.0
H1936 H 0.77027 0.91625 0.25734 0.0
H1937 H 0.84418 0.96455 0.21812 0.0
H1938 H 0.82849 0.94081 0.20918 0.0
H1939 H 0.81005 0.93594 0.2568 0.0
H1940 H 0.82515 0.95953 0.26561 0.0
H1941 H 0.78673 0.93216 0.23601 0.0
H1942 H 0.84088 0.9124 0.24165 0.0
H1943 H 0.86964 0.91155 0.23554 0.0
H1944 H 0.85824 0.90142 0.1861 0.0
H1945 H 0.82939 0.9024 0.1919 0.0
C1946 C 0.76819 0.85703 0.23702 0.0
C1947 C 0.76395 0.84898 0.22262 0.0
C1948 C 0.77687 0.87142 0.23689 0.0
C1949 C 0.78166 0.87803 0.22238 0.0
C1950 C 0.77791 0.86989 0.20799 0.0
C1951 C 0.76903 0.85554 0.20808 0.0
C1952 C 0.79021 0.89369 0.22248 0.0
C1953 C 0.80631 0.89433 0.218 0.0
C1954 C 0.78298 0.90759 0.22868 0.0
C1955 C 0.76582 0.90772 0.23302 0.0
C1956 C 0.7539 0.90296 0.22179 0.0
C1957 C 0.73778 0.90288 0.22601 0.0
C1958 C 0.73341 0.90764 0.24141 0.0
C1959 C 0.74516 0.9125 0.25262 0.0
C1960 C 0.7613 0.91258 0.24846 0.0
C1961 C 0.83674 0.9584 0.22663 0.0
C1962 C 0.8359 0.96399 0.24256 0.0
C1963 C 0.82783 0.94482 0.22153 0.0
C1964 C 0.81811 0.93655 0.23234 0.0
C1965 C 0.81733 0.94216 0.24819 0.0
C1966 C 0.82606 0.95568 0.25323 0.0
C1967 C 0.80864 0.922 0.22752 0.0
C1968 C 0.79226 0.92156 0.23107 0.0
C1969 C 0.81569 0.90827 0.22064 0.0
C1970 C 0.83301 0.90768 0.21716 0.0
C1971 C 0.84452 0.91012 0.22945 0.0
C1972 C 0.86083 0.90959 0.22605 0.0
C1973 C 0.86577 0.90649 0.21043 0.0
C1974 C 0.8544 0.90386 0.19819 0.0
C1975 C 0.83807 0.9044 0.20152 0.0
H1976 H 0.8784 0.90608 0.20782 0.0
H1977 H 0.72093 0.90757 0.24465 0.0
H1978 H 0.78978 0.17533 0.26198 0.0
H1979 H 0.8095 0.15421 0.25864 0.0
H1980 H 0.77177 0.1211 0.24375 0.0
H1981 H 0.75214 0.14222 0.24674 0.0
H1982 H 0.81328 0.12805 0.27349 0.0
H1983 H 0.78461 0.09248 0.21918 0.0
H1984 H 0.77003 0.09816 0.19408 0.0
H1985 H 0.79057 0.14558 0.19401 0.0
H1986 H 0.80545 0.14012 0.21898 0.0
H1987 H 0.82958 0.04729 0.27657 0.0
H1988 H 0.81791 0.0735 0.27381 0.0
H1989 H 0.84457 0.08106 0.23075 0.0
H1990 H 0.85622 0.05437 0.23326 0.0
H1991 H 0.81447 0.0906 0.22687 0.0
H1992 H 0.85551 0.10108 0.26527 0.0
H1993 H 0.87224 0.09684 0.28935 0.0
H1994 H 0.83122 0.1026 0.31905 0.0
H1995 H 0.81418 0.10664 0.29514 0.0
C1996 C 0.78573 0.16355 0.25791 0.0
C1997 C 0.76942 0.16044 0.25457 0.0
C1998 C 0.79701 0.15151 0.25597 0.0
C1999 C 0.7922 0.13608 0.25072 0.0
C2000 C 0.77589 0.13298 0.24738 0.0
C2001 C 0.76465 0.14506 0.24916 0.0
C2002 C 0.80396 0.12293 0.24974 0.0
C2003 C 0.81363 0.11996 0.26323 0.0
C2004 C 0.80485 0.1126 0.23618 0.0
C2005 C 0.79607 0.11591 0.22103 0.0
C2006 C 0.78609 0.10409 0.21377 0.0
C2007 C 0.77776 0.10728 0.19957 0.0
C2008 C 0.77934 0.12223 0.19248 0.0
C2009 C 0.78931 0.13402 0.19955 0.0
C2010 C 0.79768 0.13089 0.21374 0.0
C2011 C 0.83309 0.05448 0.26651 0.0
C2012 C 0.84393 0.04871 0.25517 0.0
C2013 C 0.82644 0.06956 0.26501 0.0
C2014 C 0.83057 0.07941 0.25225 0.0
C2015 C 0.84129 0.0737 0.24077 0.0
C2016 C 0.84796 0.05847 0.24223 0.0
C2017 C 0.82316 0.09539 0.25089 0.0
C2018 C 0.81432 0.09887 0.237 0.0
C2019 C 0.82335 0.10644 0.26391 0.0
C2020 C 0.83355 0.1041 0.27838 0.0
C2021 C 0.85003 0.10135 0.27693 0.0
C2022 C 0.85958 0.09899 0.29055 0.0
C2023 C 0.8528 0.09943 0.30571 0.0
C2024 C 0.83646 0.10226 0.30729 0.0
C2025 C 0.82686 0.10462 0.29371 0.0
H2026 H 0.86021 0.0976 0.31624 0.0
H2027 H 0.77287 0.12468 0.18149 0.0
H2028 H 0.37828 0.99252 0.95355 0.0
H2029 H 0.35581 0.97458 0.96008 0.0
H2030 H 0.38229 0.95783 0.00104 0.0
H2031 H 0.40461 0.97603 0.9948 0.0
H2032 H 0.36815 0.9335 0.97672 0.0
H2033 H 0.35552 0.97927 0.01052 0.0
H2034 H 0.35015 0.00785 0.01534 0.0
H2035 H 0.31036 0.00508 0.98222 0.0
H2036 H 0.31565 0.97651 0.977 0.0
H2037 H 0.31244 0.88348 0.01281 0.0
H2038 H 0.33257 0.90431 0.00836 0.0
H2039 H 0.29796 0.93115 0.9814 0.0
H2040 H 0.27747 0.91062 0.98659 0.0
H2041 H 0.31587 0.95112 0.99749 0.0
H2042 H 0.32688 0.907 0.96297 0.0
H2043 H 0.33174 0.8789 0.95529 0.0
H2044 H 0.37375 0.87886 0.98555 0.0
H2045 H 0.36902 0.9069 0.99359 0.0
C2046 C 0.37922 0.98505 0.96398 0.0
C2047 C 0.39311 0.98559 0.97369 0.0
C2048 C 0.36641 0.9749 0.96772 0.0
C2049 C 0.36745 0.96497 0.98105 0.0
C2050 C 0.38131 0.96547 0.99074 0.0
C2051 C 0.39398 0.97586 0.9872 0.0
C2052 C 0.35432 0.95356 0.98451 0.0
C2053 C 0.35678 0.93727 0.98148 0.0
C2054 C 0.33933 0.95867 0.99004 0.0
C2055 C 0.3361 0.9758 0.99323 0.0
C2056 C 0.34573 0.98479 0.00414 0.0
C2057 C 0.34268 0.00098 0.00697 0.0
C2058 C 0.32995 0.00829 0.99905 0.0
C2059 C 0.32023 0.99941 0.98832 0.0
C2060 C 0.32324 0.98322 0.98543 0.0
C2061 C 0.30908 0.89389 0.00605 0.0
C2062 C 0.29344 0.89537 -0.0001 0.0
C2063 C 0.32063 0.90575 0.00342 0.0
C2064 C 0.31694 0.9191 0.99413 0.0
C2065 C 0.30114 0.92092 0.9885 0.0
C2066 C 0.28944 0.90919 0.99146 0.0
C2067 C 0.32972 0.93084 0.98999 0.0
C2068 C 0.32721 0.94724 0.99277 0.0
C2069 C 0.34459 0.92587 0.98382 0.0
C2070 C 0.34751 0.90901 0.979 0.0
C2071 C 0.33709 0.90096 0.96808 0.0
C2072 C 0.33983 0.88505 0.96364 0.0
C2073 C 0.35303 0.87709 0.96996 0.0
C2074 C 0.36353 0.88504 0.98069 0.0
C2075 C 0.36083 0.90094 0.98518 0.0
H2076 H 0.35513 0.86477 0.96651 0.0
H2077 H 0.32761 0.02082 0.00127 0.0
H2078 H 0.27544 0.39061 0.27949 0.0
H2079 H 0.25474 0.41056 0.2746 0.0
H2080 H 0.21808 0.37484 0.28282 0.0
H2081 H 0.23862 0.3549 0.28755 0.0
H2082 H 0.21167 0.39325 0.25629 0.0
H2083 H 0.22826 0.40076 0.31181 0.0
H2084 H 0.24801 0.40615 0.33355 0.0
H2085 H 0.25993 0.45152 0.31309 0.0
H2086 H 0.24039 0.44629 0.29109 0.0
H2087 H 0.14172 0.4336 0.27456 0.0
H2088 H 0.16573 0.4175 0.27581 0.0
H2089 H 0.19511 0.45985 0.27001 0.0
H2090 H 0.17105 0.47619 0.26896 0.0
H2091 H 0.20748 0.44053 0.29258 0.0
H2092 H 0.18891 0.43459 0.23871 0.0
H2093 H 0.16932 0.42941 0.21679 0.0
H2094 H 0.16158 0.38158 0.23333 0.0
H2095 H 0.18095 0.38654 0.25549 0.0
C2096 C 0.26295 0.38702 0.28011 0.0
C2097 C 0.25861 0.37126 0.28401 0.0
C2098 C 0.25118 0.39842 0.27739 0.0
C2099 C 0.23491 0.39417 0.27847 0.0
C2100 C 0.23057 0.37835 0.28196 0.0
C2101 C 0.2423 0.36702 0.28478 0.0
C2102 C 0.22228 0.40619 0.27636 0.0
C2103 C 0.21069 0.40355 0.26426 0.0
C2104 C 0.22134 0.41987 0.28646 0.0
C2105 C 0.23301 0.42305 0.29971 0.0
C2106 C 0.23519 0.41183 0.31188 0.0
C2107 C 0.24633 0.41486 0.32426 0.0
C2108 C 0.25526 0.42915 0.32467 0.0
C2109 C 0.25303 0.44045 0.31273 0.0
C2110 C 0.24192 0.43746 0.30031 0.0
C2111 C 0.15326 0.43955 0.2736 0.0
C2112 C 0.15445 0.45619 0.27156 0.0
C2113 C 0.16699 0.4303 0.27424 0.0
C2114 C 0.18218 0.43744 0.27269 0.0
C2115 C 0.18348 0.4541 0.27112 0.0
C2116 C 0.16972 0.46341 0.27052 0.0
C2117 C 0.19661 0.42738 0.27275 0.0
C2118 C 0.20856 0.43038 0.28444 0.0
C2119 C 0.19794 0.41406 0.2622 0.0
C2120 C 0.18631 0.41098 0.24884 0.0
C2121 C 0.18294 0.423 0.23774 0.0
C2122 C 0.17189 0.4201 0.22526 0.0
C2123 C 0.16419 0.40518 0.22369 0.0
C2124 C 0.16755 0.39313 0.23457 0.0
C2125 C 0.17858 0.39597 0.24708 0.0
H2126 H 0.15563 0.40296 0.21402 0.0
H2127 H 0.26387 0.43148 0.33427 0.0
H2128 H 0.09517 0.02652 0.49619 0.0
H2129 H 0.11872 0.04414 0.5004 0.0
H2130 H 0.13488 0.03204 0.45304 0.0
H2131 H 0.11161 0.01439 0.44883 0.0
H2132 H 0.15796 0.02811 0.47708 0.0
H2133 H 0.11964 0.06756 0.45986 0.0
H2134 H 0.09447 0.08246 0.46165 0.0
H2135 H 0.10787 0.09924 0.50888 0.0
H2136 H 0.13304 0.08425 0.50745 0.0
H2137 H 0.21814 0.08083 0.45593 0.0
H2138 H 0.19245 0.06695 0.45766 0.0
H2139 H 0.18581 0.08711 0.50486 0.0
H2140 H 0.21167 0.10132 0.5032 0.0
H2141 H 0.15784 0.08697 0.48595 0.0
H2142 H 0.19713 0.04995 0.5025 0.0
H2143 H 0.22237 0.03515 0.50121 0.0
H2144 H 0.20716 0.01338 0.45652 0.0
H2145 H 0.18192 0.02825 0.45742 0.0
C2146 C 0.10372 0.02773 0.48666 0.0
C2147 C 0.10157 0.01911 0.47218 0.0
C2148 C 0.11708 0.03783 0.48905 0.0
C2149 C 0.12849 0.03935 0.47702 0.0
C2150 C 0.12618 0.03101 0.46246 0.0
C2151 C 0.11282 0.02104 0.46003 0.0
C2152 C 0.14333 0.04893 0.47972 0.0
C2153 C 0.15795 0.04099 0.47892 0.0
C2154 C 0.14323 0.06562 0.48279 0.0
C2155 C 0.12812 0.07463 0.48363 0.0
C2156 C 0.11715 0.0743 0.47069 0.0
C2157 C 0.1029 0.08279 0.47162 0.0
C2158 C 0.09955 0.09175 0.48539 0.0
C2159 C 0.11047 0.09227 0.49823 0.0
C2160 C 0.12472 0.08379 0.49737 0.0
C2161 C 0.21124 0.08242 0.46668 0.0
C2162 C 0.21704 0.09206 0.4795 0.0
C2163 C 0.19656 0.07444 0.46765 0.0
C2164 C 0.18739 0.0758 0.48149 0.0
C2165 C 0.19279 0.08587 0.49411 0.0
C2166 C 0.20755 0.09393 0.49315 0.0
C2167 C 0.17246 0.0662 0.48271 0.0
C2168 C 0.15785 0.07406 0.48434 0.0
C2169 C 0.17253 0.04938 0.48054 0.0
C2170 C 0.18766 0.04031 0.47998 0.0
C2171 C 0.19921 0.0421 0.49234 0.0
C2172 C 0.21352 0.03368 0.49169 0.0
C2173 C 0.21638 0.02335 0.47878 0.0
C2174 C 0.20493 0.02139 0.46651 0.0
C2175 C 0.19061 0.0298 0.4671 0.0
H2176 H 0.22747 0.01685 0.4783 0.0
H2177 H 0.08852 0.09832 0.48608 0.0
H2178 H 0.69556 0.16275 0.72842 0.0
H2179 H 0.6778 0.13975 0.73275 0.0
H2180 H 0.71874 0.10922 0.7371 0.0
H2181 H 0.73654 0.13204 0.73222 0.0
H2182 H 0.69588 0.0954 0.71863 0.0
H2183 H 0.69854 0.12185 0.77005 0.0
H2184 H 0.69644 0.14463 0.78897 0.0
H2185 H 0.64661 0.14898 0.77672 0.0
H2186 H 0.64847 0.12635 0.75755 0.0
H2187 H 0.65854 0.02807 0.75292 0.0
H2188 H 0.6754 0.05181 0.74918 0.0
H2189 H 0.63332 0.08044 0.74301 0.0
H2190 H 0.61631 0.05675 0.74684 0.0
H2191 H 0.65616 0.09549 0.76213 0.0
H2192 H 0.65352 0.06876 0.71093 0.0
H2193 H 0.65569 0.04587 0.69215 0.0
H2194 H 0.70562 0.04199 0.70413 0.0
H2195 H 0.7037 0.06473 0.72317 0.0
C2196 C 0.70078 0.15112 0.73016 0.0
C2197 C 0.71747 0.14924 0.73002 0.0
C2198 C 0.69062 0.13801 0.73279 0.0
C2199 C 0.69696 0.12281 0.73544 0.0
C2200 C 0.7136 0.12086 0.73515 0.0
C2201 C 0.72376 0.13395 0.7325 0.0
C2202 C 0.68626 0.10886 0.73835 0.0
C2203 C 0.68734 0.09534 0.72827 0.0
C2204 C 0.67485 0.10894 0.75069 0.0
C2205 C 0.67369 0.12251 0.76225 0.0
C2206 C 0.68717 0.12775 0.7713 0.0
C2207 C 0.68602 0.14062 0.78208 0.0
C2208 C 0.67141 0.14828 0.78402 0.0
C2209 C 0.65792 0.14305 0.7752 0.0
C2210 C 0.65901 0.1302 0.76438 0.0
C2211 C 0.65284 0.03942 0.75085 0.0
C2212 C 0.63607 0.0405 0.75008 0.0
C2213 C 0.66251 0.05297 0.74866 0.0
C2214 C 0.6556 0.06783 0.74561 0.0
C2215 C 0.63888 0.06906 0.7453 0.0
C2216 C 0.62918 0.0555 0.74745 0.0
C2217 C 0.66587 0.08202 0.74248 0.0
C2218 C 0.66469 0.09557 0.75249 0.0
C2219 C 0.67722 0.08197 0.73009 0.0
C2220 C 0.67843 0.06835 0.71859 0.0
C2221 C 0.66494 0.06294 0.70965 0.0
C2222 C 0.66612 0.05001 0.69895 0.0
C2223 C 0.68077 0.04245 0.69698 0.0
C2224 C 0.69428 0.04784 0.70568 0.0
C2225 C 0.69315 0.06076 0.71642 0.0
H2226 H 0.68167 0.03244 0.68868 0.0
H2227 H 0.67055 0.15824 0.79237 0.0
H2228 H 0.39216 0.99437 0.51815 0.0
H2229 H 0.37106 0.01298 0.51116 0.0
H2230 H 0.3668 0.0267 0.56084 0.0
H2231 H 0.38773 0.00774 0.56803 0.0
H2232 H 0.33718 0.0244 0.54461 0.0
H2233 H 0.3883 0.04977 0.53849 0.0
H2234 H 0.41609 0.05208 0.52922 0.0
H2235 H 0.39948 0.0493 0.48036 0.0
H2236 H 0.37159 0.04672 0.48935 0.0
H2237 H 0.29448 0.09492 0.52241 0.0
H2238 H 0.31465 0.0778 0.53474 0.0
H2239 H 0.3268 0.05922 0.48813 0.0
H2240 H 0.30694 0.07626 0.47576 0.0
H2241 H 0.3532 0.06611 0.50614 0.0
H2242 H 0.30239 0.03831 0.51247 0.0
H2243 H 0.27461 0.03568 0.52173 0.0
H2244 H 0.29071 0.04326 0.57034 0.0
H2245 H 0.31858 0.04615 0.56133 0.0
C2246 C 0.38647 0.00102 0.52766 0.0
C2247 C 0.39169 0.99966 0.54364 0.0
C2248 C 0.37452 0.01176 0.52362 0.0
C2249 C 0.3676 0.02139 0.53546 0.0
C2250 C 0.37209 0.01943 0.55153 0.0
C2251 C 0.38409 0.00869 0.55559 0.0
C2252 C 0.35645 0.03416 0.53082 0.0
C2253 C 0.34072 0.03369 0.53641 0.0
C2254 C 0.36111 0.04621 0.52007 0.0
C2255 C 0.37786 0.04793 0.5146 0.0
C2256 C 0.39058 0.04954 0.52577 0.0
C2257 C 0.40635 0.05091 0.52057 0.0
C2258 C 0.40955 0.0508 0.50421 0.0
C2259 C 0.39698 0.04937 0.49303 0.0
C2260 C 0.38118 0.04796 0.49817 0.0
C2261 C 0.30156 0.08728 0.51479 0.0
C2262 C 0.29906 0.0869 0.4981 0.0
C2263 C 0.313 0.07746 0.52186 0.0
C2264 C 0.3221 0.06714 0.51235 0.0
C2265 C 0.3199 0.06709 0.49569 0.0
C2266 C 0.30849 0.07682 0.48864 0.0
C2267 C 0.33377 0.05611 0.51955 0.0
C2268 C 0.34968 0.05694 0.51449 0.0
C2269 C 0.32926 0.04444 0.53079 0.0
C2270 C 0.31253 0.04263 0.53621 0.0
C2271 C 0.29999 0.03954 0.52512 0.0
C2272 C 0.28423 0.03798 0.53032 0.0
C2273 C 0.28089 0.03935 0.54661 0.0
C2274 C 0.29331 0.04224 0.55773 0.0
C2275 C 0.30909 0.04383 0.55258 0.0
H2276 H 0.26868 0.03814 0.55061 0.0
H2277 H 0.42177 0.05186 0.50021 0.0
H2278 H 0.6011 0.4837 0.49625 0.0
H2279 H 0.62251 0.4645 0.49299 0.0
H2280 H 0.62741 0.4611 0.54426 0.0
H2281 H 0.6064 0.48089 0.54764 0.0
H2282 H 0.65601 0.46346 0.53115 0.0
H2283 H 0.60925 0.43095 0.52137 0.0
H2284 H 0.58323 0.42336 0.5089 0.0
H2285 H 0.60487 0.42156 0.46268 0.0
H2286 H 0.63099 0.42937 0.47485 0.0
H2287 H 0.70635 0.39552 0.52802 0.0
H2288 H 0.68352 0.41278 0.53294 0.0
H2289 H 0.67844 0.42072 0.48228 0.0
H2290 H 0.70121 0.40342 0.47723 0.0
H2291 H 0.64951 0.41515 0.49623 0.0
H2292 H 0.69601 0.44881 0.50621 0.0
H2293 H 0.72197 0.4563 0.5189 0.0
H2294 H 0.70051 0.45555 0.56521 0.0
H2295 H 0.67446 0.44784 0.55281 0.0
C2296 C 0.60679 0.47899 0.50686 0.0
C2297 C 0.60202 0.48391 0.52222 0.0
C2298 C 0.61893 0.46783 0.50497 0.0
C2299 C 0.62647 0.46116 0.51838 0.0
C2300 C 0.62174 0.46602 0.53373 0.0
C2301 C 0.60961 0.47723 0.53564 0.0
C2302 C 0.63957 0.44946 0.51631 0.0
C2303 C 0.65448 0.45275 0.52374 0.0
C2304 C 0.63773 0.43563 0.50637 0.0
C2305 C 0.62205 0.43088 0.49901 0.0
C2306 C 0.60844 0.42906 0.50853 0.0
C2307 C 0.59367 0.42469 0.50152 0.0
C2308 C 0.59239 0.42201 0.48501 0.0
C2309 C 0.60588 0.42365 0.47547 0.0
C2310 C 0.62067 0.42803 0.48242 0.0
C2311 C 0.70035 0.40088 0.5179 0.0
C2312 C 0.70567 0.39813 0.50222 0.0
C2313 C 0.68733 0.4108 0.52075 0.0
C2314 C 0.67937 0.41819 0.50799 0.0
C2315 C 0.68441 0.41517 0.49231 0.0
C2316 C 0.69747 0.40531 0.48945 0.0
C2317 C 0.66591 0.42923 0.51099 0.0
C2318 C 0.65096 0.42581 0.50372 0.0
C2319 C 0.66769 0.4429 0.52112 0.0
C2320 C 0.68333 0.44758 0.52859 0.0
C2321 C 0.69686 0.45011 0.51911 0.0
C2322 C 0.71158 0.45442 0.52625 0.0
C2323 C 0.7129 0.45635 0.54285 0.0
C2324 C 0.69948 0.45402 0.55235 0.0
C2325 C 0.68473 0.44969 0.54527 0.0
H2326 H 0.7243 0.45969 0.54836 0.0
H2327 H 0.58094 0.41864 0.4796 0.0
H2328 H 0.75163 0.26332 0.35378 0.0
H2329 H 0.75231 0.27836 0.37902 0.0
H2330 H 0.70074 0.27883 0.37913 0.0
H2331 H 0.69986 0.26317 0.35411 0.0
H2332 H 0.71643 0.30933 0.38695 0.0
H2333 H 0.71658 0.2546 0.40299 0.0
H2334 H 0.72555 0.22664 0.40254 0.0
H2335 H 0.77288 0.24216 0.41711 0.0
H2336 H 0.76425 0.27025 0.41741 0.0
H2337 H 0.72171 0.34108 0.46796 0.0
H2338 H 0.71337 0.32528 0.44412 0.0
H2339 H 0.76209 0.31028 0.43795 0.0
H2340 H 0.77035 0.32551 0.46169 0.0
H2341 H 0.74283 0.28564 0.43438 0.0
H2342 H 0.74423 0.33999 0.41495 0.0
H2343 H 0.73634 0.36829 0.41452 0.0
H2344 H 0.68735 0.35398 0.40581 0.0
H2345 H 0.69493 0.32557 0.40638 0.0
C2346 C 0.74039 0.2664 0.35922 0.0
C2347 C 0.72569 0.26184 0.35192 0.0
C2348 C 0.74082 0.27512 0.3736 0.0
C2349 C 0.72657 0.2796 0.38097 0.0
C2350 C 0.71186 0.2755 0.37359 0.0
C2351 C 0.71141 0.2666 0.35925 0.0
C2352 C 0.72725 0.28827 0.39657 0.0
C2353 C 0.72192 0.30409 0.39745 0.0
C2354 C 0.73457 0.28145 0.41015 0.0
C2355 C 0.73979 0.26455 0.41011 0.0
C2356 C 0.72893 0.25207 0.40598 0.0
C2357 C 0.73395 0.23619 0.40577 0.0
C2358 C 0.74979 0.23263 0.40976 0.0
C2359 C 0.76062 0.24494 0.41401 0.0
C2360 C 0.75567 0.26084 0.41422 0.0
C2361 C 0.73061 0.3344 0.46149 0.0
C2362 C 0.74668 0.33452 0.46678 0.0
C2363 C 0.72584 0.32542 0.44785 0.0
C2364 C 0.73712 0.31662 0.43919 0.0
C2365 C 0.75314 0.31686 0.44446 0.0
C2366 C 0.75785 0.32565 0.45807 0.0
C2367 C 0.73256 0.30697 0.42468 0.0
C2368 C 0.73711 0.29087 0.42401 0.0
C2369 C 0.72466 0.31361 0.41127 0.0
C2370 C 0.72011 0.33067 0.41091 0.0
C2371 C 0.73175 0.34288 0.41307 0.0
C2372 C 0.72734 0.35894 0.41278 0.0
C2373 C 0.71134 0.36293 0.4102 0.0
C2374 C 0.69973 0.35087 0.40785 0.0
C2375 C 0.70408 0.33479 0.40815 0.0
H2376 H 0.70795 0.37537 0.40997 0.0
H2377 H 0.75365 0.22033 0.4096 0.0
H2378 H 0.48402 0.02808 0.87913 0.0
H2379 H 0.50001 0.02063 0.85603 0.0
H2380 H 0.54283 0.03735 0.88083 0.0
H2381 H 0.5272 0.04403 0.90433 0.0
H2382 H 0.53873 0.04686 0.8466 0.0
H2383 H 0.53798 0.00096 0.88157 0.0
H2384 H 0.52439 0.98047 0.8976 0.0
H2385 H 0.49881 0.96309 0.8557 0.0
H2386 H 0.51209 0.98367 0.83946 0.0
H2387 H 0.59849 0.01128 0.79897 0.0
H2388 H 0.58194 0.02137 0.82066 0.0
H2389 H 0.54277 0.99077 0.80407 0.0
H2390 H 0.55954 0.98008 0.78295 0.0
H2391 H 0.54434 0.989 0.83409 0.0
H2392 H 0.54454 0.03314 0.79846 0.0
H2393 H 0.55631 0.05398 0.78149 0.0
H2394 H 0.58042 0.07519 0.82252 0.0
H2395 H 0.56896 0.05435 0.83971 0.0
C2396 C 0.49684 0.03008 0.87978 0.0
C2397 C 0.50428 0.03658 0.89371 0.0
C2398 C 0.50592 0.02596 0.86649 0.0
C2399 C 0.52255 0.02846 0.86679 0.0
C2400 C 0.52997 0.03546 0.88037 0.0
C2401 C 0.52096 0.03934 0.89377 0.0
C2402 C 0.53235 0.02289 0.85332 0.0
C2403 C 0.54013 0.03423 0.84389 0.0
C2404 C 0.53373 0.00643 0.84963 0.0
C2405 C 0.52589 0.99396 0.85935 0.0
C2406 C 0.52935 0.99286 0.87581 0.0
C2407 C 0.52173 0.98121 0.88492 0.0
C2408 C 0.51071 0.97051 0.87768 0.0
C2409 C 0.50733 0.97141 0.8613 0.0
C2410 C 0.51491 0.98305 0.85213 0.0
C2411 C 0.58633 0.00676 0.79996 0.0
C2412 C 0.58031 0.99487 0.78931 0.0
C2413 C 0.57683 0.01261 0.81229 0.0
C2414 C 0.56098 0.00703 0.8139 0.0
C2415 C 0.55495 0.99526 0.80314 0.0
C2416 C 0.56455 0.98916 0.79105 0.0
C2417 C 0.55082 0.01297 0.8271 0.0
C2418 C 0.54296 0.00168 0.8366 0.0
C2419 C 0.54914 0.0295 0.83063 0.0
C2420 C 0.55601 0.04209 0.82034 0.0
C2421 C 0.55244 0.04218 0.80384 0.0
C2422 C 0.55904 0.054 0.79419 0.0
C2423 C 0.56914 0.06587 0.80092 0.0
C2424 C 0.57261 0.06598 0.81733 0.0
C2425 C 0.56605 0.05417 0.82703 0.0
H2426 H 0.57424 0.07501 0.79342 0.0
H2427 H 0.50481 0.9615 0.88476 0.0
H2428 H 0.2905 0.24053 0.35703 0.0
H2429 H 0.28439 0.22029 0.3768 0.0
H2430 H 0.27621 0.25732 0.41214 0.0
H2431 H 0.28265 0.27778 0.39237 0.0
H2432 H 0.29468 0.23265 0.42386 0.0
H2433 H 0.24481 0.23824 0.39658 0.0
H2434 H 0.22643 0.24027 0.37336 0.0
H2435 H 0.23866 0.19286 0.35783 0.0
H2436 H 0.25731 0.19063 0.38083 0.0
H2437 H 0.26489 0.16948 0.47414 0.0
H2438 H 0.26703 0.19461 0.45953 0.0
H2439 H 0.27587 0.16804 0.41598 0.0
H2440 H 0.27364 0.14302 0.43032 0.0
H2441 H 0.25345 0.19066 0.41159 0.0
H2442 H 0.30609 0.187 0.43671 0.0
H2443 H 0.32479 0.1851 0.45971 0.0
H2444 H 0.30707 0.22906 0.47933 0.0
H2445 H 0.28811 0.23111 0.45653 0.0
C2446 C 0.28755 0.24439 0.36905 0.0
C2447 C 0.2871 0.26073 0.37318 0.0
C2448 C 0.28391 0.23282 0.38028 0.0
C2449 C 0.27967 0.23733 0.39586 0.0
C2450 C 0.27938 0.25363 0.40014 0.0
C2451 C 0.28297 0.26526 0.38884 0.0
C2452 C 0.27578 0.22484 0.40758 0.0
C2453 C 0.28543 0.22365 0.42139 0.0
C2454 C 0.2638 0.21306 0.40424 0.0
C2455 C 0.25254 0.21431 0.3904 0.0
C2456 C 0.24367 0.22829 0.38816 0.0
C2457 C 0.23319 0.22947 0.37504 0.0
C2458 C 0.2314 0.21671 0.36412 0.0
C2459 C 0.24006 0.20273 0.36631 0.0
C2460 C 0.25058 0.20149 0.37939 0.0
C2461 C 0.26736 0.16901 0.46147 0.0
C2462 C 0.26908 0.15424 0.4534 0.0
C2463 C 0.2686 0.18337 0.45315 0.0
C2464 C 0.27162 0.18316 0.43668 0.0
C2465 C 0.27345 0.16845 0.42867 0.0
C2466 C 0.27223 0.15415 0.43693 0.0
C2467 C 0.27275 0.19813 0.42753 0.0
C2468 C 0.26251 0.19982 0.41422 0.0
C2469 C 0.28416 0.21035 0.43135 0.0
C2470 C 0.29555 0.2091 0.44503 0.0
C2471 C 0.30608 0.19619 0.446 0.0
C2472 C 0.31675 0.1951 0.45898 0.0
C2473 C 0.31708 0.20692 0.471 0.0
C2474 C 0.30677 0.21989 0.47003 0.0
C2475 C 0.29607 0.22103 0.45708 0.0
H2476 H 0.32535 0.20606 0.48104 0.0
H2477 H 0.22327 0.21765 0.35397 0.0
H2478 H 0.49664 0.45356 0.87766 0.0
H2479 H 0.4768 0.45901 0.85677 0.0
H2480 H 0.48883 0.50936 0.8601 0.0
H2481 H 0.50778 0.50421 0.8817 0.0
H2482 H 0.45871 0.50649 0.85909 0.0
H2483 H 0.50025 0.4846 0.82771 0.0
H2484 H 0.52047 0.46501 0.81963 0.0
H2485 H 0.48355 0.42935 0.81152 0.0
H2486 H 0.46311 0.44867 0.81975 0.0
H2487 H 0.41871 0.50305 0.77348 0.0
H2488 H 0.44253 0.50007 0.79067 0.0
H2489 H 0.41228 0.49102 0.83098 0.0
H2490 H 0.38862 0.49433 0.81414 0.0
H2491 H 0.4539 0.47597 0.8078 0.0
H2492 H 0.42799 0.5068 0.86449 0.0
H2493 H 0.40953 0.52857 0.87116 0.0
H2494 H 0.4188 0.55052 0.82608 0.0
H2495 H 0.43748 0.52902 0.81924 0.0
C2496 C 0.49499 0.46582 0.87405 0.0
C2497 C 0.50388 0.47843 0.88142 0.0
C2498 C 0.4838 0.46889 0.8619 0.0
C2499 C 0.48145 0.48459 0.85666 0.0
C2500 C 0.49044 0.49714 0.86386 0.0
C2501 C 0.50144 0.49412 0.87613 0.0
C2502 C 0.46903 0.48809 0.84433 0.0
C2503 C 0.45774 0.49985 0.84785 0.0
C2504 C 0.46791 0.47971 0.82948 0.0
C2505 C 0.48016 0.46805 0.82447 0.0
C2506 C 0.49645 0.47255 0.82431 0.0
C2507 C 0.50795 0.4615 0.81969 0.0
C2508 C 0.5033 0.44594 0.8151 0.0
C2509 C 0.48713 0.44141 0.81509 0.0
C2510 C 0.47558 0.45241 0.81971 0.0
C2511 C 0.41716 0.50049 0.78602 0.0
C2512 C 0.40176 0.49909 0.79245 0.0
C2513 C 0.43077 0.49873 0.79581 0.0
C2514 C 0.42918 0.49556 0.81216 0.0
C2515 C 0.41382 0.49381 0.81848 0.0
C2516 C 0.40028 0.49567 0.80879 0.0
C2517 C 0.44346 0.49407 0.8228 0.0
C2518 C 0.45503 0.48269 0.81898 0.0
C2519 C 0.44513 0.50312 0.8372 0.0
C2520 C 0.43404 0.51621 0.84131 0.0
C2521 C 0.42615 0.51632 0.85604 0.0
C2522 C 0.41563 0.5286 0.85984 0.0
C2523 C 0.41296 0.54089 0.84903 0.0
C2524 C 0.42084 0.54096 0.83442 0.0
C2525 C 0.43138 0.52871 0.83056 0.0
H2526 H 0.4048 0.55038 0.852 0.0
H2527 H 0.51222 0.4374 0.81152 0.0
H2528 H 0.74343 0.73867 0.13301 0.0
H2529 H 0.74574 0.71917 0.11119 0.0
H2530 H 0.74025 0.68064 0.14448 0.0
H2531 H 0.73845 0.70016 0.16656 0.0
H2532 H 0.76394 0.67474 0.1235 0.0
H2533 H 0.70937 0.69038 0.1203 0.0
H2534 H 0.68692 0.70914 0.11921 0.0
H2535 H 0.70451 0.72808 0.07529 0.0
H2536 H 0.72722 0.70959 0.07624 0.0
H2537 H 0.75371 0.61757 0.05904 0.0
H2538 H 0.74911 0.63368 0.08322 0.0
H2539 H 0.75412 0.67683 0.056 0.0
H2540 H 0.75853 0.6609 0.03183 0.0
H2541 H 0.72868 0.67814 0.07538 0.0
H2542 H 0.78442 0.66389 0.08002 0.0
H2543 H 0.80679 0.64502 0.08116 0.0
H2544 H 0.78657 0.62315 0.12251 0.0
H2545 H 0.76395 0.64177 0.12148 0.0
C2546 C 0.74289 0.72605 0.13575 0.0
C2547 C 0.74078 0.72097 0.15154 0.0
C2548 C 0.74403 0.71492 0.12322 0.0
C2549 C 0.74295 0.69845 0.12617 0.0
C2550 C 0.74104 0.6933 0.14193 0.0
C2551 C 0.73989 0.70446 0.1545 0.0
C2552 C 0.74393 0.68672 0.11273 0.0
C2553 C 0.75605 0.67528 0.1131 0.0
C2554 C 0.73376 0.68757 0.09908 0.0
C2555 C 0.72007 0.69867 0.09841 0.0
C2556 C 0.70852 0.69862 0.11047 0.0
C2557 C 0.69574 0.70919 0.10987 0.0
C2558 C 0.69431 0.71981 0.09721 0.0
C2559 C 0.70564 0.71985 0.0851 0.0
C2560 C 0.71846 0.70931 0.08565 0.0
C2561 C 0.75383 0.63049 0.05821 0.0
C2562 C 0.75652 0.63795 0.04351 0.0
C2563 C 0.75124 0.63967 0.07204 0.0
C2564 C 0.75138 0.65646 0.07143 0.0
C2565 C 0.75393 0.6639 0.05675 0.0
C2566 C 0.75651 0.65476 0.04294 0.0
C2567 C 0.7489 0.6664 0.086 0.0
C2568 C 0.73647 0.67749 0.08586 0.0
C2569 C 0.75875 0.66519 0.09985 0.0
C2570 C 0.77241 0.65409 0.10056 0.0
C2571 C 0.78469 0.65497 0.08928 0.0
C2572 C 0.79742 0.64434 0.08992 0.0
C2573 C 0.79808 0.63286 0.10187 0.0
C2574 C 0.78603 0.63203 0.11324 0.0
C2575 C 0.77326 0.64263 0.11264 0.0
H2576 H 0.80794 0.62463 0.10234 0.0
H2577 H 0.6844 0.72799 0.09676 0.0
H2578 H 0.00118 0.01673 0.11803 0.0
H2579 H 0.98095 0.01422 0.13866 0.0
H2580 H 0.94438 0.02787 0.10478 0.0
H2581 H 0.96453 0.03025 0.084 0.0
H2582 H 0.94098 0.04314 0.13335 0.0
H2583 H 0.94824 0.98907 0.11514 0.0
H2584 H 0.96363 0.965 0.10846 0.0
H2585 H 0.9805 0.96258 0.15714 0.0
H2586 H 0.96538 0.98678 0.16406 0.0
H2587 H 0.87465 0.02008 0.18073 0.0
H2588 H 0.89395 0.02239 0.15916 0.0
H2589 H 0.93162 0.00725 0.1911 0.0
H2590 H 0.91239 0.00464 0.21262 0.0
H2591 H 0.93393 0.99256 0.16287 0.0
H2592 H 0.92739 0.04682 0.18106 0.0
H2593 H 0.91235 0.07107 0.18791 0.0
H2594 H 0.89447 0.07331 0.13957 0.0
H2595 H 0.90924 0.04893 0.13248 0.0
C2596 C 0.98881 0.01905 0.1149 0.0
C2597 C 0.98449 0.0236 0.0993 0.0
C2598 C 0.97726 0.01765 0.12673 0.0
C2599 C 0.9611 0.02068 0.12323 0.0
C2600 C 0.95677 0.02548 0.10776 0.0
C2601 C 0.96833 0.02688 0.09591 0.0
C2602 C 0.94876 0.01884 0.13572 0.0
C2603 C 0.93927 0.03201 0.13964 0.0
C2604 C 0.94675 0.00443 0.14419 0.0
C2605 C 0.95579 0.98982 0.14008 0.0
C2606 C 0.95532 0.98347 0.12439 0.0
C2607 C 0.96398 0.9698 0.12056 0.0
C2608 C 0.97306 0.96229 0.13236 0.0
C2609 C 0.97347 0.96842 0.14801 0.0
C2610 C 0.96485 0.98211 0.15189 0.0
C2611 C 0.88703 0.01723 0.18317 0.0
C2612 C 0.89196 0.01221 0.19844 0.0
C2613 C 0.89808 0.01863 0.17084 0.0
C2614 C 0.9143 0.01518 0.17354 0.0
C2615 C 0.91919 0.00999 0.18871 0.0
C2616 C 0.90816 0.00854 0.20103 0.0
C2617 C 0.92619 0.01689 0.16058 0.0
C2618 C 0.93559 0.00368 0.15656 0.0
C2619 C 0.92815 0.03128 0.15206 0.0
C2620 C 0.91928 0.04595 0.15628 0.0
C2621 C 0.92015 0.05241 0.17192 0.0
C2622 C 0.91169 0.06619 0.17584 0.0
C2623 C 0.90243 0.0737 0.1642 0.0
C2624 C 0.90163 0.06746 0.14859 0.0
C2625 C 0.91005 0.05367 0.14461 0.0
H2626 H 0.89589 0.08437 0.16726 0.0
H2627 H 0.97976 0.9517 0.12937 0.0
H2628 H 0.256 0.75686 0.15127 0.0
H2629 H 0.25143 0.77259 0.12724 0.0
H2630 H 0.26069 0.81613 0.15441 0.0
H2631 H 0.26544 0.80039 0.17859 0.0
H2632 H 0.23248 0.81559 0.13045 0.0
H2633 H 0.28928 0.80657 0.1355 0.0
H2634 H 0.313 0.78993 0.13991 0.0
H2635 H 0.29984 0.76076 0.09889 0.0
H2636 H 0.27588 0.77708 0.0944 0.0
H2637 H 0.2458 0.86197 0.059 0.0
H2638 H 0.24509 0.85068 0.08597 0.0
H2639 H 0.25238 0.80353 0.06577 0.0
H2640 H 0.2538 0.81484 0.03915 0.0
H2641 H 0.27296 0.80861 0.08826 0.0
H2642 H 0.21604 0.81617 0.08314 0.0
H2643 H 0.19146 0.83153 0.07863 0.0
H2644 H 0.20359 0.86211 0.11892 0.0
H2645 H 0.22836 0.84705 0.12355 0.0
C2646 C 0.25682 0.7698 0.15219 0.0
C2647 C 0.26112 0.77742 0.16677 0.0
C2648 C 0.25422 0.77875 0.13847 0.0
C2649 C 0.25572 0.79549 0.1391 0.0
C2650 C 0.25942 0.80322 0.15375 0.0
C2651 C 0.26225 0.79423 0.16747 0.0
C2652 C 0.25468 0.80464 0.12413 0.0
C2653 C 0.24141 0.81432 0.12126 0.0
C2654 C 0.26623 0.8027 0.11213 0.0
C2655 C 0.28071 0.79296 0.11471 0.0
C2656 C 0.29137 0.79652 0.12751 0.0
C2657 C 0.30487 0.78716 0.13001 0.0
C2658 C 0.30791 0.77427 0.11971 0.0
C2659 C 0.29746 0.77074 0.10687 0.0
C2660 C 0.28393 0.78005 0.10434 0.0
C2661 C 0.2469 0.84917 0.06037 0.0
C2662 C 0.24997 0.83927 0.04707 0.0
C2663 C 0.24649 0.84271 0.07576 0.0
C2664 C 0.24876 0.82623 0.07794 0.0
C2665 C 0.25079 0.81629 0.06446 0.0
C2666 C 0.25153 0.82275 0.04923 0.0
C2667 C 0.25043 0.81931 0.09417 0.0
C2668 C 0.26397 0.81006 0.09737 0.0
C2669 C 0.23902 0.82155 0.10633 0.0
C2670 C 0.22414 0.8306 0.10357 0.0
C2671 C 0.21353 0.82626 0.09095 0.0
C2672 C 0.19955 0.83489 0.08839 0.0
C2673 C 0.19599 0.84782 0.09845 0.0
C2674 C 0.20638 0.85211 0.11112 0.0
C2675 C 0.22038 0.84353 0.11373 0.0
H2676 H 0.18516 0.85448 0.09645 0.0
H2677 H 0.31837 0.76704 0.12166 0.0
H2678 H 0.05397 0.47634 0.08784 0.0
H2679 H 0.07222 0.48481 0.10981 0.0
H2680 H 0.0328 0.4836 0.14256 0.0
H2681 H 0.01462 0.47558 0.12071 0.0
H2682 H 0.05052 0.50901 0.14866 0.0
H2683 H 0.0604 0.45245 0.1385 0.0
H2684 H 0.06833 0.42932 0.12189 0.0
H2685 H 0.11424 0.45149 0.11432 0.0
H2686 H 0.10649 0.47484 0.13076 0.0
H2687 H 0.07499 0.47844 0.22262 0.0
H2688 H 0.06569 0.48157 0.19504 0.0
H2689 H 0.11011 0.50534 0.18357 0.0
H2690 H 0.11942 0.50268 0.21151 0.0
H2691 H 0.0962 0.47473 0.16343 0.0
H2692 H 0.08658 0.52876 0.18012 0.0
H2693 H 0.07738 0.54981 0.19864 0.0
H2694 H 0.02952 0.53041 0.19553 0.0
H2695 H 0.03849 0.50908 0.17719 0.0
C2696 C 0.04928 0.47791 0.09976 0.0
C2697 C 0.03292 0.47534 0.10262 0.0
C2698 C 0.05968 0.48276 0.11227 0.0
C2699 C 0.05389 0.48478 0.12785 0.0
C2700 C 0.03753 0.48229 0.13063 0.0
C2701 C 0.02715 0.47766 0.11815 0.0
C2702 C 0.06473 0.48886 0.14159 0.0
C2703 C 0.06058 0.50158 0.15182 0.0
C2704 C 0.07815 0.47947 0.1455 0.0
C2705 C 0.0828 0.46546 0.13566 0.0
C2706 C 0.07214 0.45243 0.13319 0.0
C2707 C 0.0766 0.43928 0.12383 0.0
C2708 C 0.09176 0.43896 0.117 0.0
C2709 C 0.10249 0.45177 0.11958 0.0
C2710 C 0.09807 0.46496 0.12891 0.0
C2711 C 0.08275 0.48444 0.21428 0.0
C2712 C 0.09793 0.49028 0.21915 0.0
C2713 C 0.07741 0.48625 0.19857 0.0
C2714 C 0.08723 0.49369 0.18739 0.0
C2715 C 0.10239 0.49962 0.19214 0.0
C2716 C 0.10764 0.49813 0.20803 0.0
C2717 C 0.08153 0.49441 0.17066 0.0
C2718 C 0.08656 0.48255 0.15991 0.0
C2719 C 0.06875 0.5044 0.16638 0.0
C2720 C 0.06324 0.51726 0.17734 0.0
C2721 C 0.07412 0.5289 0.18349 0.0
C2722 C 0.06894 0.5409 0.19394 0.0
C2723 C 0.05288 0.54144 0.19828 0.0
C2724 C 0.04196 0.52998 0.19215 0.0
C2725 C 0.04708 0.51795 0.18171 0.0
H2726 H 0.04889 0.55074 0.20637 0.0
H2727 H 0.09519 0.42877 0.10976 0.0
H2728 H 0.35822 0.72142 0.25232 0.0
H2729 H 0.38464 0.72336 0.26541 0.0
H2730 H 0.36212 0.72842 0.31132 0.0
H2731 H 0.33578 0.72564 0.29828 0.0
H2732 H 0.3994 0.7451 0.28041 0.0
H2733 H 0.38473 0.71549 0.34141 0.0
H2734 H 0.36762 0.69367 0.35148 0.0
H2735 H 0.36675 0.67105 0.30499 0.0
H2736 H 0.38403 0.6926 0.29469 0.0
H2737 H 0.45502 0.77192 0.33757 0.0
H2738 H 0.43064 0.76398 0.32303 0.0
H2739 H 0.44384 0.71438 0.32601 0.0
H2740 H 0.46808 0.72231 0.34135 0.0
H2741 H 0.4135 0.71618 0.32992 0.0
H2742 H 0.44831 0.73624 0.29071 0.0
H2743 H 0.46728 0.75501 0.27828 0.0
H2744 H 0.43113 0.79092 0.27676 0.0
H2745 H 0.412 0.77245 0.2894 0.0
C2746 C 0.35899 0.72288 0.26522 0.0
C2747 C 0.34504 0.72332 0.27433 0.0
C2748 C 0.37406 0.72399 0.27269 0.0
C2749 C 0.37546 0.72579 0.28941 0.0
C2750 C 0.36144 0.72655 0.29847 0.0
C2751 C 0.34639 0.7251 0.29103 0.0
C2752 C 0.39151 0.72755 0.29731 0.0
C2753 C 0.40248 0.73868 0.29119 0.0
C2754 C 0.39584 0.71886 0.31111 0.0
C2755 C 0.38558 0.70575 0.31725 0.0
C2756 C 0.38096 0.70582 0.33336 0.0
C2757 C 0.37121 0.6935 0.3391 0.0
C2758 C 0.36607 0.681 0.32887 0.0
C2759 C 0.3707 0.68076 0.31289 0.0
C2760 C 0.38045 0.69304 0.30709 0.0
C2761 C 0.45275 0.75931 0.33515 0.0
C2762 C 0.46355 0.74774 0.34046 0.0
C2763 C 0.43883 0.75478 0.32674 0.0
C2764 C 0.43557 0.73861 0.32301 0.0
C2765 C 0.44614 0.72695 0.32864 0.0
C2766 C 0.45999 0.73148 0.33738 0.0
C2767 C 0.42109 0.73406 0.31328 0.0
C2768 C 0.41045 0.72243 0.31905 0.0
C2769 C 0.41731 0.74182 0.29878 0.0
C2770 C 0.42875 0.75298 0.2911 0.0
C2771 C 0.44443 0.74818 0.28782 0.0
C2772 C 0.45521 0.75876 0.28072 0.0
C2773 C 0.45042 0.77416 0.27676 0.0
C2774 C 0.43483 0.77899 0.27985 0.0
C2775 C 0.424 0.76846 0.28696 0.0
H2776 H 0.45879 0.78233 0.27127 0.0
H2777 H 0.35852 0.67149 0.33334 0.0
H2778 H 0.00227 0.39582 0.99172 0.0
H2779 H 0.00748 0.37313 0.97399 0.0
H2780 H 0.95729 0.36017 0.97361 0.0
H2781 H 0.9521 0.38228 0.99217 0.0
H2782 H 0.97446 0.334 0.97368 0.0
H2783 H 0.97384 0.38238 0.94345 0.0
H2784 H 0.98194 0.40996 0.93682 0.0
H2785 H 0.03039 0.39495 0.9306 0.0
H2786 H 0.0226 0.36731 0.93739 0.0
H2787 H 0.98445 0.31242 0.88335 0.0
H2788 H 0.98066 0.33115 0.90544 0.0
H2789 H 0.00343 0.2985 0.93783 0.0
H2790 H 0.00679 0.27929 0.91565 0.0
H2791 H 0.00103 0.3469 0.92273 0.0
H2792 H 0.98915 0.30518 0.97581 0.0
H2793 H 0.97771 0.27836 0.98089 0.0
H2794 H 0.9484 0.28118 0.93839 0.0
H2795 H 0.95952 0.30807 0.93317 0.0
C2796 C 0.99236 0.38797 0.98818 0.0
C2797 C 0.97672 0.39101 0.99329 0.0
C2798 C 0.99535 0.37507 0.97789 0.0
C2799 C 0.98274 0.3651 0.97224 0.0
C2800 C 0.96721 0.36774 0.97776 0.0
C2801 C 0.96423 0.38053 0.9882 0.0
C2802 C 0.98554 0.35256 0.95987 0.0
C2803 C 0.98034 0.33679 0.96256 0.0
C2804 C 0.99297 0.35623 0.94525 0.0
C2805 C 0.99767 0.37282 0.9411 0.0
C2806 C 0.98624 0.38499 0.94077 0.0
C2807 C 0.99077 0.40063 0.93697 0.0
C2808 C 0.00668 0.40422 0.93333 0.0
C2809 C 0.01808 0.39216 0.93345 0.0
C2810 C 0.01361 0.37651 0.93726 0.0
C2811 C 0.98862 0.30915 0.89517 0.0
C2812 C 0.99598 0.29438 0.89774 0.0
C2813 C 0.98647 0.31991 0.90781 0.0
C2814 C 0.99174 0.31628 0.92332 0.0
C2815 C 0.99906 0.3015 0.926 0.0
C2816 C 0.00103 0.29055 0.91332 0.0
C2817 C 0.98982 0.3283 0.93642 0.0
C2818 C 0.99529 0.34402 0.9339 0.0
C2819 C 0.98218 0.32465 0.95094 0.0
C2820 C 0.97532 0.30854 0.95401 0.0
C2821 C 0.98024 0.30008 0.96757 0.0
C2822 C 0.97381 0.28487 0.97047 0.0
C2823 C 0.96238 0.27805 0.95993 0.0
C2824 C 0.95731 0.28645 0.9465 0.0
C2825 C 0.96368 0.30166 0.94356 0.0
H2826 H 0.95743 0.26627 0.96219 0.0
H2827 H 0.01017 0.41633 0.93039 0.0
H2828 H 0.66567 0.72977 0.27442 0.0
H2829 H 0.64374 0.72699 0.29333 0.0
H2830 H 0.63153 0.77636 0.2863 0.0
H2831 H 0.65323 0.77919 0.26734 0.0
H2832 H 0.63123 0.76888 0.31762 0.0
H2833 H 0.61051 0.74591 0.26767 0.0
H2834 H 0.61049 0.72708 0.24464 0.0
H2835 H 0.60789 0.68736 0.27649 0.0
H2836 H 0.60811 0.70597 0.29973 0.0
H2837 H 0.55092 0.77943 0.33426 0.0
H2838 H 0.57682 0.77582 0.32208 0.0
H2839 H 0.57842 0.72755 0.33942 0.0
H2840 H 0.55217 0.73107 0.35184 0.0
H2841 H 0.58648 0.73024 0.30693 0.0
H2842 H 0.60256 0.754 0.35671 0.0
H2843 H 0.60184 0.77327 0.37932 0.0
H2844 H 0.61281 0.81179 0.34774 0.0
H2845 H 0.61336 0.79279 0.32488 0.0
C2846 C 0.65825 0.74 0.27684 0.0
C2847 C 0.66121 0.7547 0.26935 0.0
C2848 C 0.64576 0.73841 0.28769 0.0
C2849 C 0.63594 0.75145 0.29116 0.0
C2850 C 0.63901 0.76616 0.28388 0.0
C2851 C 0.65147 0.76777 0.27306 0.0
C2852 C 0.62222 0.74986 0.30213 0.0
C2853 C 0.62143 0.76046 0.31527 0.0
C2854 C 0.60969 0.73849 0.29938 0.0
C2855 C 0.60953 0.72732 0.28543 0.0
C2856 C 0.61008 0.73316 0.26976 0.0
C2857 C 0.61 0.72253 0.25668 0.0
C2858 C 0.60925 0.70603 0.25911 0.0
C2859 C 0.60851 0.70014 0.27463 0.0
C2860 C 0.60861 0.71072 0.28776 0.0
C2861 C 0.55672 0.76802 0.33558 0.0
C2862 C 0.54943 0.75552 0.34404 0.0
C2863 C 0.57161 0.76602 0.32866 0.0
C2864 C 0.57963 0.75149 0.32999 0.0
C2865 C 0.57244 0.73889 0.33834 0.0
C2866 C 0.55749 0.74093 0.34544 0.0
C2867 C 0.59527 0.74963 0.32209 0.0
C2868 C 0.59644 0.7384 0.30952 0.0
C2869 C 0.60815 0.76046 0.32533 0.0
C2870 C 0.60792 0.77196 0.33906 0.0
C2871 C 0.60471 0.7666 0.35456 0.0
C2872 C 0.60435 0.77747 0.36743 0.0
C2873 C 0.60726 0.79374 0.36496 0.0
C2874 C 0.61057 0.79917 0.34963 0.0
C2875 C 0.61093 0.78835 0.33671 0.0
H2876 H 0.60698 0.80214 0.37494 0.0
H2877 H 0.60918 0.69782 0.24896 0.0
H2878 H 0.03071 0.0891 0.96411 0.0
H2879 H 0.02883 0.11056 0.94467 0.0
H2880 H 0.01758 0.14401 0.98252 0.0
H2881 H 0.01947 0.12261 0.00203 0.0
H2882 H 0.99802 0.14775 0.95745 0.0
H2883 H 0.05474 0.14371 0.9655 0.0
H2884 H 0.08063 0.12999 0.96678 0.0
H2885 H 0.0756 0.11635 0.91719 0.0
H2886 H 0.04956 0.1298 0.91567 0.0
H2887 H 0.00863 0.21915 0.91382 0.0
H2888 H 0.01151 0.1978 0.93324 0.0
H2889 H 0.02176 0.16433 0.8951 0.0
H2890 H 0.01911 0.18568 0.87559 0.0
H2891 H 0.04189 0.1606 0.92025 0.0
H2892 H 0.98506 0.16464 0.91235 0.0
H2893 H 0.95922 0.17845 0.91118 0.0
H2894 H 0.96461 0.19225 0.9607 0.0
H2895 H 0.9906 0.17869 0.96211 0.0
C2896 C 0.02801 0.10106 0.96833 0.0
C2897 C 0.02526 0.10412 0.98464 0.0
C2898 C 0.02692 0.11332 0.95719 0.0
C2899 C 0.02321 0.12896 0.96214 0.0
C2900 C 0.02043 0.13205 0.97841 0.0
C2901 C 0.02147 0.11978 0.98954 0.0
C2902 C 0.02196 0.14204 0.95033 0.0
C2903 C 0.00771 0.1507 0.94947 0.0
C2904 C 0.03444 0.14568 0.93965 0.0
C2905 C 0.05012 0.13763 0.94051 0.0
C2906 C 0.05909 0.13768 0.9549 0.0
C2907 C 0.0738 0.12997 0.95566 0.0
C2908 C 0.07973 0.12227 0.94209 0.0
C2909 C 0.07098 0.1223 0.9277 0.0
C2910 C 0.05625 0.12998 0.92688 0.0
C2911 C 0.01151 0.20725 0.90954 0.0
C2912 C 0.01357 0.20412 0.89312 0.0
C2913 C 0.01309 0.19504 0.92067 0.0
C2914 C 0.01666 0.1794 0.91562 0.0
C2915 C 0.01897 0.17629 0.89927 0.0
C2916 C 0.0174 0.18851 0.88812 0.0
C2917 C 0.01798 0.1663 0.92739 0.0
C2918 C 0.03222 0.15765 0.92824 0.0
C2919 C 0.00551 0.16268 0.93808 0.0
C2920 C 0.98985 0.17078 0.93729 0.0
C2921 C 0.98079 0.17072 0.92296 0.0
C2922 C 0.96611 0.17849 0.92226 0.0
C2923 C 0.9603 0.18626 0.93585 0.0
C2924 C 0.96914 0.18624 0.95018 0.0
C2925 C 0.98384 0.17851 0.95094 0.0
H2926 H 0.94893 0.19227 0.93528 0.0
H2927 H 0.09113 0.11631 0.9427 0.0
H2928 H 0.39117 0.28039 0.27409 0.0
H2929 H 0.41048 0.27362 0.25333 0.0
H2930 H 0.37366 0.27855 0.21705 0.0
H2931 H 0.35432 0.28514 0.23769 0.0
H2932 H 0.39177 0.25125 0.21284 0.0
H2933 H 0.40009 0.30802 0.22342 0.0
H2934 H 0.40616 0.33162 0.24069 0.0
H2935 H 0.45169 0.31202 0.25356 0.0
H2936 H 0.44579 0.28819 0.23653 0.0
H2937 H 0.43027 0.26289 0.14027 0.0
H2938 H 0.41477 0.26519 0.16457 0.0
H2939 H 0.45811 0.26302 0.19316 0.0
H2940 H 0.47386 0.26098 0.16875 0.0
H2941 H 0.43917 0.28628 0.2038 0.0
H2942 H 0.43248 0.23099 0.19093 0.0
H2943 H 0.42667 0.2072 0.17388 0.0
H2944 H 0.37864 0.22311 0.16584 0.0
H2945 H 0.38423 0.24714 0.18265 0.0
C2946 C 0.3872 0.27992 0.26168 0.0
C2947 C 0.37128 0.28338 0.25747 0.0
C2948 C 0.39824 0.27614 0.24987 0.0
C2949 C 0.39348 0.27568 0.23368 0.0
C2950 C 0.37755 0.27886 0.22949 0.0
C2951 C 0.36656 0.28275 0.24126 0.0
C2952 C 0.4051 0.27216 0.22098 0.0
C2953 C 0.40209 0.25894 0.21077 0.0
C2954 C 0.41884 0.2819 0.2187 0.0
C2955 C 0.42242 0.29625 0.22886 0.0
C2956 C 0.41134 0.30869 0.23005 0.0
C2957 C 0.41476 0.32211 0.23977 0.0
C2958 C 0.42928 0.3233 0.24826 0.0
C2959 C 0.44044 0.31107 0.24701 0.0
C2960 C 0.43706 0.29761 0.23731 0.0
C2961 C 0.43656 0.26284 0.1517 0.0
C2962 C 0.45332 0.26171 0.15255 0.0
C2963 C 0.42765 0.26406 0.1656 0.0
C2964 C 0.43526 0.26401 0.18068 0.0
C2965 C 0.452 0.263 0.18163 0.0
C2966 C 0.46096 0.26181 0.16768 0.0
C2967 C 0.42564 0.26557 0.19535 0.0
C2968 C 0.42901 0.27841 0.20596 0.0
C2969 C 0.41228 0.2554 0.19807 0.0
C2970 C 0.40882 0.24093 0.18798 0.0
C2971 C 0.42071 0.22948 0.18544 0.0
C2972 C 0.41745 0.21594 0.17583 0.0
C2973 C 0.4023 0.21366 0.16876 0.0
C2974 C 0.39038 0.2249 0.17132 0.0
C2975 C 0.39358 0.23847 0.18091 0.0
H2976 H 0.3998 0.20317 0.16133 0.0
H2977 H 0.43191 0.3337 0.25578 0.0
H2978 H 0.5515 0.39339 0.00628 0.0
H2979 H 0.54707 0.37326 0.02665 0.0
H2980 H 0.49603 0.37894 0.02143 0.0
H2981 H 0.50039 0.39959 0.00151 0.0
H2982 H 0.50469 0.37791 0.05231 0.0
H2983 H 0.51537 0.34693 0.0046 0.0
H2984 H 0.53101 0.33864 0.98119 0.0
H2985 H 0.57012 0.32584 0.01212 0.0
H2986 H 0.55478 0.33425 0.03571 0.0
H2987 H 0.47212 0.30625 0.08108 0.0
H2988 H 0.48139 0.32884 0.06553 0.0
H2989 H 0.53024 0.31901 0.07906 0.0
H2990 H 0.52101 0.29617 0.0948 0.0
H2991 H 0.52589 0.32305 0.04636 0.0
H2992 H 0.51353 0.35132 0.09437 0.0
H2993 H 0.49727 0.35906 0.1175 0.0
H2994 H 0.46078 0.37658 0.08588 0.0
H2995 H 0.47671 0.36872 0.06253 0.0
C2996 C 0.53933 0.39047 0.00956 0.0
C2997 C 0.52628 0.39811 0.00226 0.0
C2998 C 0.53682 0.37884 0.02111 0.0
C2999 C 0.52122 0.37449 0.02546 0.0
C3000 C 0.50818 0.38211 0.01823 0.0
C3001 C 0.51068 0.39378 0.00672 0.0
C3002 C 0.51842 0.36202 0.03758 0.0
C3003 C 0.50921 0.36587 0.05094 0.0
C3004 C 0.52478 0.34647 0.03606 0.0
C3005 C 0.534 0.34139 0.0219 0.0
C3006 C 0.52736 0.34247 0.0064 0.0
C3007 C 0.53615 0.33773 0.9931 0.0
C3008 C 0.55157 0.33177 0.99517 0.0
C3009 C 0.55819 0.33049 0.01054 0.0
C3010 C 0.54945 0.33524 0.02387 0.0
C3011 C 0.48484 0.30893 0.0809 0.0
C3012 C 0.49584 0.29938 0.08915 0.0
C3013 C 0.49011 0.32192 0.07206 0.0
C3014 C 0.50648 0.32567 0.07125 0.0
C3015 C 0.51754 0.31632 0.07961 0.0
C3016 C 0.51225 0.30333 0.08862 0.0
C3017 C 0.51187 0.33886 0.06089 0.0
C3018 C 0.52157 0.33514 0.04785 0.0
C3019 C 0.5059 0.35452 0.06267 0.0
C3020 C 0.49628 0.35932 0.07668 0.0
C3021 C 0.50198 0.35671 0.09233 0.0
C3022 C 0.49283 0.36114 0.10549 0.0
C3023 C 0.47799 0.36828 0.10316 0.0
C3024 C 0.47228 0.37104 0.08766 0.0
C3025 C 0.48138 0.36662 0.07446 0.0
H3026 H 0.47093 0.37171 0.11336 0.0
H3027 H 0.55836 0.32809 0.98486 0.0
H3028 H 0.63116 0.24159 0.24461 0.0
H3029 H 0.60914 0.2446 0.22541 0.0
H3030 H 0.64196 0.23945 0.18642 0.0
H3031 H 0.6642 0.23696 0.20561 0.0
H3032 H 0.62142 0.26346 0.18117 0.0
H3033 H 0.61741 0.20863 0.19642 0.0
H3034 H 0.61576 0.1862 0.21515 0.0
H3035 H 0.57195 0.20453 0.23369 0.0
H3036 H 0.57345 0.22721 0.21522 0.0
H3037 H 0.56048 0.25074 0.12114 0.0
H3038 H 0.58365 0.24774 0.13905 0.0
H3039 H 0.55322 0.25301 0.17993 0.0
H3040 H 0.53 0.25585 0.16216 0.0
H3041 H 0.57317 0.22823 0.18337 0.0
H3042 H 0.57769 0.28348 0.16857 0.0
H3043 H 0.57944 0.30592 0.14986 0.0
H3044 H 0.62238 0.28661 0.1303 0.0
H3045 H 0.62076 0.26392 0.14876 0.0
C3046 C 0.63375 0.24126 0.23196 0.0
C3047 C 0.64945 0.23902 0.22665 0.0
C3048 C 0.62111 0.24282 0.22099 0.0
C3049 C 0.62387 0.24205 0.20448 0.0
C3050 C 0.63955 0.24002 0.19911 0.0
C3051 C 0.65222 0.23846 0.21009 0.0
C3052 C 0.61036 0.24344 0.19285 0.0
C3053 C 0.61097 0.2556 0.18148 0.0
C3054 C 0.59661 0.23338 0.19346 0.0
C3055 C 0.59562 0.2197 0.20453 0.0
C3056 C 0.60749 0.20795 0.20458 0.0
C3057 C 0.60657 0.19517 0.21513 0.0
C3058 C 0.59378 0.19396 0.22563 0.0
C3059 C 0.58186 0.20549 0.22556 0.0
C3060 C 0.58273 0.21831 0.21504 0.0
C3061 C 0.55872 0.25131 0.13394 0.0
C3062 C 0.54338 0.25355 0.14021 0.0
C3063 C 0.57199 0.24965 0.14416 0.0
C3064 C 0.57018 0.25027 0.16083 0.0
C3065 C 0.55489 0.25248 0.16711 0.0
C3066 C 0.54163 0.25416 0.15692 0.0
C3067 C 0.58416 0.24835 0.17178 0.0
C3068 C 0.58364 0.23606 0.18302 0.0
C3069 C 0.598 0.25827 0.17102 0.0
C3070 C 0.599 0.27191 0.15993 0.0
C3071 C 0.58743 0.28395 0.16018 0.0
C3072 C 0.58841 0.29673 0.14964 0.0
C3073 C 0.60099 0.29767 0.13887 0.0
C3074 C 0.61263 0.28585 0.13864 0.0
C3075 C 0.61169 0.27304 0.14915 0.0
H3076 H 0.60173 0.30757 0.13072 0.0
H3077 H 0.59309 0.18406 0.23379 0.0
H3078 H 0.48085 0.08345 0.04525 0.0
H3079 H 0.48838 0.10646 0.06255 0.0
H3080 H 0.48178 0.13799 0.02265 0.0
H3081 H 0.47476 0.11509 0.00537 0.0
H3082 H 0.50717 0.1471 0.03868 0.0
H3083 H 0.4529 0.13192 0.05248 0.0
H3084 H 0.43181 0.11351 0.06185 0.0
H3085 H 0.4574 0.10816 0.10636 0.0
H3086 H 0.47874 0.12641 0.09715 0.0
H3087 H 0.47736 0.21978 0.06872 0.0
H3088 H 0.48084 0.19303 0.05725 0.0
H3089 H 0.50429 0.17823 0.10075 0.0
H3090 H 0.50124 0.20529 0.11226 0.0
H3091 H 0.47584 0.15845 0.08736 0.0
H3092 H 0.52744 0.17913 0.0739 0.0
H3093 H 0.54648 0.19914 0.06358 0.0
H3094 H 0.5237 0.19563 0.01722 0.0
H3095 H 0.50435 0.17578 0.02732 0.0
C3096 C 0.48106 0.09532 0.04024 0.0
C3097 C 0.47723 0.09754 0.02401 0.0
C3098 C 0.48535 0.10844 0.0501 0.0
C3099 C 0.48552 0.12399 0.04394 0.0
C3100 C 0.48186 0.12612 0.02767 0.0
C3101 C 0.47781 0.11304 0.0178 0.0
C3102 C 0.48892 0.13824 0.05435 0.0
C3103 C 0.50032 0.14955 0.04933 0.0
C3104 C 0.48032 0.14129 0.06851 0.0
C3105 C 0.4675 0.13034 0.07405 0.0
C3106 C 0.45408 0.12672 0.06421 0.0
C3107 C 0.44207 0.11633 0.0695 0.0
C3108 C 0.44329 0.10962 0.08467 0.0
C3109 C 0.45649 0.11333 0.0946 0.0
C3110 C 0.46854 0.12369 0.08935 0.0
C3111 C 0.4834 0.21089 0.07581 0.0
C3112 C 0.489 0.21457 0.09139 0.0
C3113 C 0.48542 0.19566 0.06922 0.0
C3114 C 0.49284 0.18375 0.07817 0.0
C3115 C 0.49859 0.18734 0.09369 0.0
C3116 C 0.49688 0.20276 0.10019 0.0
C3117 C 0.49364 0.1674 0.07133 0.0
C3118 C 0.48301 0.15574 0.07698 0.0
C3119 C 0.50271 0.16415 0.05759 0.0
C3120 C 0.51438 0.17603 0.05141 0.0
C3121 C 0.5264 0.18272 0.06154 0.0
C3122 C 0.53727 0.19401 0.05572 0.0
C3123 C 0.53629 0.19867 0.03976 0.0
C3124 C 0.52445 0.19201 0.02958 0.0
C3125 C 0.51354 0.18072 0.03534 0.0
H3126 H 0.54471 0.20741 0.03527 0.0
H3127 H 0.43398 0.10159 0.08874 0.0
H3128 H 0.26703 0.35016 0.74928 0.0
H3129 H 0.28277 0.37498 0.74999 0.0
H3130 H 0.28247 0.37561 0.69843 0.0
H3131 H 0.26621 0.35093 0.69755 0.0
H3132 H 0.31317 0.38306 0.71336 0.0
H3133 H 0.25878 0.39981 0.71524 0.0
H3134 H 0.23102 0.39952 0.72478 0.0
H3135 H 0.24768 0.41272 0.7721 0.0
H3136 H 0.27558 0.41285 0.7629 0.0
H3137 H 0.34513 0.46458 0.72135 0.0
H3138 H 0.32973 0.4407 0.71218 0.0
H3139 H 0.31625 0.43163 0.76085 0.0
H3140 H 0.33115 0.45528 0.76994 0.0
H3141 H 0.29086 0.43004 0.74178 0.0
H3142 H 0.345 0.40967 0.7411 0.0
H3143 H 0.37303 0.40915 0.73234 0.0
H3144 H 0.35717 0.4025 0.68354 0.0
H3145 H 0.32901 0.40318 0.69201 0.0
C3146 C 0.27013 0.35561 0.73806 0.0
C3147 C 0.26517 0.3486 0.72336 0.0
C3148 C 0.27923 0.36975 0.73849 0.0
C3149 C 0.28365 0.37718 0.72426 0.0
C3150 C 0.27918 0.37003 0.70954 0.0
C3151 C 0.26993 0.3559 0.70908 0.0
C3152 C 0.29254 0.39266 0.725 0.0
C3153 C 0.30823 0.39347 0.71929 0.0
C3154 C 0.28608 0.40615 0.73283 0.0
C3155 C 0.26929 0.40624 0.73839 0.0
C3156 C 0.25654 0.40254 0.7277 0.0
C3157 C 0.24077 0.40243 0.73305 0.0
C3158 C 0.23759 0.40608 0.74904 0.0
C3159 C 0.25017 0.40989 0.75971 0.0
C3160 C 0.26596 0.41001 0.75443 0.0
C3161 C 0.33895 0.4574 0.73005 0.0
C3162 C 0.33925 0.46191 0.74635 0.0
C3163 C 0.33018 0.44376 0.72482 0.0
C3164 C 0.32178 0.43441 0.73584 0.0
C3165 C 0.32247 0.43874 0.7521 0.0
C3166 C 0.33105 0.4523 0.75728 0.0
C3167 C 0.3118 0.4203 0.73077 0.0
C3168 C 0.29578 0.41977 0.7356 0.0
C3169 C 0.31802 0.40708 0.72223 0.0
C3170 C 0.33492 0.40668 0.71716 0.0
C3171 C 0.34749 0.40824 0.72849 0.0
C3172 C 0.3634 0.40788 0.72358 0.0
C3173 C 0.36688 0.40585 0.70739 0.0
C3174 C 0.35445 0.40411 0.69607 0.0
C3175 C 0.33852 0.40447 0.70092 0.0
H3176 H 0.3792 0.40558 0.70361 0.0
H3177 H 0.22537 0.40598 0.75315 0.0
H3178 H 0.28976 0.67572 0.75747 0.0
H3179 H 0.30844 0.65327 0.75612 0.0
H3180 H 0.26865 0.62025 0.74966 0.0
H3181 H 0.24999 0.64251 0.75076 0.0
H3182 H 0.29952 0.61959 0.77831 0.0
H3183 H 0.27971 0.6163 0.72104 0.0
H3184 H 0.2756 0.62948 0.69512 0.0
H3185 H 0.32519 0.64379 0.69495 0.0
H3186 H 0.32949 0.63087 0.721 0.0
H3187 H 0.31906 0.54032 0.76835 0.0
H3188 H 0.30674 0.56634 0.76624 0.0
H3189 H 0.34772 0.58415 0.74086 0.0
H3190 H 0.36001 0.55763 0.74246 0.0
H3191 H 0.32109 0.59604 0.72835 0.0
H3192 H 0.34291 0.59349 0.78085 0.0
H3193 H 0.34885 0.58193 0.80719 0.0
H3194 H 0.29879 0.5813 0.81799 0.0
H3195 H 0.29251 0.59265 0.79162 0.0
C3196 C 0.28504 0.66367 0.75567 0.0
C3197 C 0.26844 0.66085 0.75412 0.0
C3198 C 0.2957 0.65092 0.75483 0.0
C3199 C 0.28987 0.6352 0.75259 0.0
C3200 C 0.27334 0.63236 0.75114 0.0
C3201 C 0.26272 0.64507 0.75174 0.0
C3202 C 0.30084 0.62152 0.75277 0.0
C3203 C 0.30423 0.61437 0.76743 0.0
C3204 C 0.30745 0.61519 0.73863 0.0
C3205 C 0.30486 0.62284 0.72301 0.0
C3206 C 0.28968 0.62241 0.71554 0.0
C3207 C 0.28732 0.6298 0.70082 0.0
C3208 C 0.30011 0.63753 0.69342 0.0
C3209 C 0.31529 0.63784 0.70071 0.0
C3210 C 0.31769 0.63049 0.71545 0.0
C3211 C 0.32548 0.54972 0.76225 0.0
C3212 C 0.34061 0.54698 0.75575 0.0
C3213 C 0.31843 0.56466 0.76113 0.0
C3214 C 0.32649 0.57738 0.75382 0.0
C3215 C 0.34135 0.57456 0.74671 0.0
C3216 C 0.34835 0.55942 0.74762 0.0
C3217 C 0.31924 0.59352 0.75391 0.0
C3218 C 0.31661 0.60126 0.73934 0.0
C3219 C 0.31354 0.60057 0.76824 0.0
C3220 C 0.31724 0.59385 0.7842 0.0
C3221 C 0.33316 0.5908 0.7888 0.0
C3222 C 0.33658 0.58429 0.80374 0.0
C3223 C 0.3242 0.58086 0.81425 0.0
C3224 C 0.30837 0.58397 0.80984 0.0
C3225 C 0.30487 0.59046 0.79491 0.0
H3226 H 0.32688 0.57582 0.82581 0.0
H3227 H 0.29827 0.64323 0.68202 0.0
H3228 H 0.86885 0.49896 0.44267 0.0
H3229 H 0.84644 0.48054 0.44848 0.0
H3230 H 0.86885 0.4693 0.49365 0.0
H3231 H 0.89095 0.48792 0.48812 0.0
H3232 H 0.85817 0.44215 0.46938 0.0
H3233 H 0.84161 0.49017 0.49881 0.0
H3234 H 0.8345 0.51867 0.50032 0.0
H3235 H 0.79692 0.51039 0.46538 0.0
H3236 H 0.80399 0.48186 0.46349 0.0
H3237 H 0.80882 0.39485 0.51417 0.0
H3238 H 0.82595 0.41705 0.50611 0.0
H3239 H 0.78816 0.43406 0.4753 0.0
H3240 H 0.7706 0.41203 0.48396 0.0
H3241 H 0.80474 0.45883 0.48802 0.0
H3242 H 0.81813 0.41138 0.45988 0.0
H3243 H 0.82469 0.38293 0.4561 0.0
H3244 H 0.86746 0.38979 0.48469 0.0
H3245 H 0.86105 0.41825 0.48886 0.0
C3246 C 0.8689 0.49256 0.45384 0.0
C3247 C 0.88154 0.49481 0.46498 0.0
C3248 C 0.85613 0.48215 0.45716 0.0
C3249 C 0.85604 0.47369 0.47151 0.0
C3250 C 0.86872 0.47583 0.48255 0.0
C3251 C 0.88128 0.48644 0.4794 0.0
C3252 C 0.84311 0.46204 0.47488 0.0
C3253 C 0.84651 0.44574 0.47355 0.0
C3254 C 0.82774 0.46684 0.47964 0.0
C3255 C 0.82347 0.48395 0.48084 0.0
C3256 C 0.83195 0.49446 0.49131 0.0
C3257 C 0.8279 0.51061 0.49227 0.0
C3258 C 0.8153 0.51635 0.48291 0.0
C3259 C 0.8067 0.50593 0.4726 0.0
C3260 C 0.81072 0.48978 0.47158 0.0
C3261 C 0.80406 0.40347 0.50587 0.0
C3262 C 0.78848 0.40165 0.49953 0.0
C3263 C 0.81389 0.4161 0.5012 0.0
C3264 C 0.80853 0.42693 0.4897 0.0
C3265 C 0.7926 0.42575 0.48406 0.0
C3266 C 0.78258 0.41321 0.48902 0.0
C3267 C 0.81997 0.4388 0.48312 0.0
C3268 C 0.81631 0.45514 0.48371 0.0
C3269 C 0.83505 0.43404 0.47731 0.0
C3270 C 0.83905 0.41694 0.47477 0.0
C3271 C 0.82889 0.4068 0.46545 0.0
C3272 C 0.83258 0.39067 0.46323 0.0
C3273 C 0.84647 0.38455 0.47017 0.0
C3274 C 0.85671 0.39455 0.47933 0.0
C3275 C 0.85306 0.41069 0.48161 0.0
H3276 H 0.84931 0.37206 0.46844 0.0
H3277 H 0.81218 0.52885 0.48367 0.0
H3278 H 0.76085 0.88758 0.80718 0.0
H3279 H 0.7391 0.90599 0.80127 0.0
H3280 H 0.72484 0.87661 0.76035 0.0
H3281 H 0.7471 0.85868 0.76583 0.0
H3282 H 0.72159 0.90579 0.75277 0.0
H3283 H 0.70541 0.87518 0.79765 0.0
H3284 H 0.70769 0.86367 0.82455 0.0
H3285 H 0.70959 0.91089 0.84559 0.0
H3286 H 0.70754 0.92269 0.81878 0.0
H3287 H 0.63869 0.92863 0.7508 0.0
H3288 H 0.66287 0.91314 0.75578 0.0
H3289 H 0.68489 0.95386 0.78017 0.0
H3290 H 0.66092 0.96963 0.77485 0.0
H3291 H 0.68428 0.9201 0.79614 0.0
H3292 H 0.69934 0.94966 0.74889 0.0
H3293 H 0.69489 0.95894 0.72135 0.0
H3294 H 0.69225 0.91024 0.70422 0.0
H3295 H 0.69644 0.90067 0.73172 0.0
C3296 C 0.7531 0.88519 0.79687 0.0
C3297 C 0.75553 0.87176 0.78697 0.0
C3298 C 0.74064 0.89562 0.79354 0.0
C3299 C 0.73009 0.89251 0.78056 0.0
C3300 C 0.73279 0.87927 0.77044 0.0
C3301 C 0.74547 0.86903 0.77357 0.0
C3302 C 0.71606 0.90284 0.77769 0.0
C3303 C 0.7134 0.90877 0.76226 0.0
C3304 C 0.70534 0.90687 0.79005 0.0
C3305 C 0.70649 0.89982 0.8062 0.0
C3306 C 0.70643 0.88311 0.808 0.0
C3307 C 0.70766 0.87654 0.82324 0.0
C3308 C 0.70883 0.88654 0.83677 0.0
C3309 C 0.70871 0.90315 0.8351 0.0
C3310 C 0.70751 0.90979 0.81989 0.0
C3311 C 0.64868 0.93429 0.75723 0.0
C3312 C 0.64795 0.95033 0.76244 0.0
C3313 C 0.66246 0.92545 0.76001 0.0
C3314 C 0.67558 0.93243 0.76829 0.0
C3315 C 0.67484 0.94834 0.77373 0.0
C3316 C 0.66119 0.95731 0.77065 0.0
C3317 C 0.69002 0.92297 0.77136 0.0
C3318 C 0.69264 0.91715 0.78677 0.0
C3319 C 0.70044 0.91872 0.75893 0.0
C3320 C 0.69803 0.92446 0.74239 0.0
C3321 C 0.69765 0.94093 0.73928 0.0
C3322 C 0.69521 0.94624 0.72367 0.0
C3323 C 0.69324 0.93518 0.71105 0.0
C3324 C 0.69375 0.91879 0.71401 0.0
C3325 C 0.69617 0.91342 0.7296 0.0
H3326 H 0.69136 0.93932 0.69897 0.0
H3327 H 0.70978 0.88143 0.84855 0.0
H3328 H 0.61042 0.5166 0.99789 0.0
H3329 H 0.63322 0.53519 0.00155 0.0
H3330 H 0.64625 0.52722 0.95237 0.0
H3331 H 0.62377 0.50842 0.94873 0.0
H3332 H 0.67182 0.52553 0.97273 0.0
H3333 H 0.62746 0.56089 0.96356 0.0
H3334 H 0.601 0.57218 0.96908 0.0
H3335 H 0.61708 0.58642 0.01631 0.0
H3336 H 0.6436 0.575 0.01114 0.0
H3337 H 0.72388 0.58748 0.95385 0.0
H3338 H 0.69961 0.57109 0.95514 0.0
H3339 H 0.69502 0.58357 0.0051 0.0
H3340 H 0.71941 0.60022 0.00393 0.0
H3341 H 0.66558 0.58268 0.98812 0.0
H3342 H 0.71054 0.54913 0.99662 0.0
H3343 H 0.73708 0.53805 0.99105 0.0
H3344 H 0.71984 0.5202 0.94539 0.0
H3345 H 0.69325 0.53139 0.95059 0.0
C3346 C 0.61822 0.51876 0.9879 0.0
C3347 C 0.6153 0.5111 0.97301 0.0
C3348 C 0.63114 0.52946 0.98997 0.0
C3349 C 0.64132 0.53265 0.97719 0.0
C3350 C 0.63849 0.52493 0.96237 0.0
C3351 C 0.62558 0.5143 0.96028 0.0
C3352 C 0.65514 0.54383 0.97917 0.0
C3353 C 0.67044 0.53805 0.97598 0.0
C3354 C 0.65336 0.56003 0.98394 0.0
C3355 C 0.63745 0.56693 0.98703 0.0
C3356 C 0.62531 0.5663 0.97517 0.0
C3357 C 0.61031 0.57275 0.97823 0.0
C3358 C 0.60734 0.57997 0.99305 0.0
C3359 C 0.61939 0.5808 0.00484 0.0
C3360 C 0.63441 0.57435 0.00186 0.0
C3361 C 0.71767 0.58691 0.9651 0.0
C3362 C 0.7237 0.595 0.97885 0.0
C3363 C 0.7038 0.57751 0.96581 0.0
C3364 C 0.69573 0.57591 0.98028 0.0
C3365 C 0.70117 0.58462 0.99385 0.0
C3366 C 0.71509 0.59409 0.99315 0.0
C3367 C 0.68214 0.56443 0.98124 0.0
C3368 C 0.66695 0.57012 0.98505 0.0
C3369 C 0.68398 0.54809 0.97708 0.0
C3370 C 0.69993 0.54121 0.97395 0.0
C3371 C 0.71244 0.54294 0.98534 0.0
C3372 C 0.72749 0.53663 0.98226 0.0
C3373 C 0.73016 0.52845 0.96786 0.0
C3374 C 0.71776 0.52654 0.95654 0.0
C3375 C 0.70269 0.53286 0.95955 0.0
H3376 H 0.74182 0.52357 0.96549 0.0
H3377 H 0.59572 0.58496 0.99539 0.0
H3378 H 0.23625 0.64346 0.24317 0.0
H3379 H 0.21977 0.61981 0.24838 0.0
H3380 H 0.17706 0.64749 0.24202 0.0
H3381 H 0.19351 0.67141 0.23742 0.0
H3382 H 0.17434 0.62809 0.26712 0.0
H3383 H 0.18985 0.62251 0.21241 0.0
H3384 H 0.20865 0.62153 0.19 0.0
H3385 H 0.23199 0.58135 0.21095 0.0
H3386 H 0.21346 0.58223 0.23362 0.0
H3387 H 0.12005 0.56205 0.25622 0.0
H3388 H 0.13617 0.58636 0.25279 0.0
H3389 H 0.17928 0.55954 0.26015 0.0
H3390 H 0.16327 0.53512 0.26342 0.0
H3391 H 0.18152 0.57866 0.23453 0.0
H3392 H 0.16556 0.58432 0.28928 0.0
H3393 H 0.14629 0.58526 0.31129 0.0
H3394 H 0.12326 0.62532 0.28979 0.0
H3395 H 0.14226 0.62448 0.26752 0.0
C3396 C 0.22336 0.6446 0.24309 0.0
C3397 C 0.2162 0.65934 0.23983 0.0
C3398 C 0.21394 0.63101 0.2459 0.0
C3399 C 0.19718 0.63183 0.24536 0.0
C3400 C 0.18998 0.64657 0.24242 0.0
C3401 C 0.1994 0.6602 0.23965 0.0
C3402 C 0.18717 0.61725 0.24772 0.0
C3403 C 0.17576 0.61735 0.25986 0.0
C3404 C 0.18923 0.60313 0.23844 0.0
C3405 C 0.20036 0.60254 0.22479 0.0
C3406 C 0.19907 0.61354 0.2123 0.0
C3407 C 0.20966 0.613 0.19954 0.0
C3408 C 0.22153 0.60142 0.19907 0.0
C3409 C 0.2228 0.59033 0.21134 0.0
C3410 C 0.21225 0.59084 0.22415 0.0
C3411 C 0.13296 0.56132 0.25718 0.0
C3412 C 0.14037 0.54663 0.2601 0.0
C3413 C 0.14215 0.57525 0.25528 0.0
C3414 C 0.15892 0.57479 0.25635 0.0
C3415 C 0.16635 0.56016 0.25928 0.0
C3416 C 0.15717 0.54622 0.2612 0.0
C3417 C 0.16876 0.58947 0.25399 0.0
C3418 C 0.18011 0.5894 0.24181 0.0
C3419 C 0.16659 0.60361 0.26319 0.0
C3420 C 0.15524 0.60424 0.27665 0.0
C3421 C 0.15632 0.59325 0.28918 0.0
C3422 C 0.14545 0.59378 0.30172 0.0
C3423 C 0.13353 0.60531 0.30192 0.0
C3424 C 0.13248 0.61638 0.28961 0.0
C3425 C 0.14331 0.61589 0.27703 0.0
H3426 H 0.12512 0.60569 0.31162 0.0
H3427 H 0.22972 0.60101 0.18918 0.0
H3428 H 0.88834 0.48919 0.03392 0.0
H3429 H 0.86633 0.50661 0.02641 0.0
H3430 H 0.89338 0.54776 0.04391 0.0
H3431 H 0.91583 0.53069 0.05061 0.0
H3432 H 0.858 0.54521 0.05245 0.0
H3433 H 0.89525 0.54405 0.00821 0.0
H3434 H 0.91169 0.53001 0.98835 0.0
H3435 H 0.86965 0.50625 0.96881 0.0
H3436 H 0.85299 0.51997 0.98874 0.0
H3437 H 0.81289 0.60666 0.01563 0.0
H3438 H 0.83392 0.58978 0.02669 0.0
H3439 H 0.81901 0.55135 0.99433 0.0
H3440 H 0.79879 0.56851 0.98265 0.0
H3441 H 0.84879 0.55254 0.99427 0.0
H3442 H 0.8109 0.55287 0.03676 0.0
H3443 H 0.79334 0.56495 0.05691 0.0
H3444 H 0.83408 0.58767 0.08016 0.0
H3445 H 0.85187 0.57588 0.06002 0.0
C3446 C 0.88971 0.50194 0.0361 0.0
C3447 C 0.90399 0.50849 0.04278 0.0
C3448 C 0.87703 0.51184 0.03197 0.0
C3449 C 0.8783 0.52841 0.03466 0.0
C3450 C 0.89218 0.53495 0.0419 0.0
C3451 C 0.90498 0.52512 0.04578 0.0
C3452 C 0.86566 0.53904 0.02874 0.0
C3453 C 0.856 0.54699 0.03976 0.0
C3454 C 0.86294 0.54097 0.01218 0.0
C3455 C 0.87291 0.5329 6e-05 0.0
C3456 C 0.88954 0.53572 -0.00024 0.0
C3457 C 0.89889 0.52784 0.98848 0.0
C3458 C 0.89172 0.51721 0.97735 0.0
C3459 C 0.87518 0.51447 0.97745 0.0
C3460 C 0.86578 0.5223 0.98873 0.0
C3461 C 0.81416 0.5946 0.01093 0.0
C3462 C 0.80432 0.5889 0.99825 0.0
C3463 C 0.82608 0.58491 0.01733 0.0
C3464 C 0.82796 0.56916 0.01151 0.0
C3465 C 0.81791 0.56345 0.99899 0.0
C3466 C 0.80633 0.57326 0.99232 0.0
C3467 C 0.84072 0.55874 0.01795 0.0
C3468 C 0.85057 0.55082 0.007 0.0
C3469 C 0.84335 0.55661 0.03458 0.0
C3470 C 0.8327 0.56362 0.04678 0.0
C3471 C 0.8161 0.56053 0.0461 0.0
C3472 C 0.80611 0.56731 0.05753 0.0
C3473 C 0.81258 0.57711 0.06978 0.0
C3474 C 0.82908 0.5801 0.07065 0.0
C3475 C 0.83913 0.57335 0.05924 0.0
H3476 H 0.80483 0.58237 0.0786 0.0
H3477 H 0.89898 0.51111 0.96862 0.0
H3478 H 0.08755 0.96579 0.02719 0.0
H3479 H 0.10877 0.94609 0.02512 0.0
H3480 H 0.14276 0.98368 0.01455 0.0
H3481 H 0.12163 0.00346 0.0167 0.0
H3482 H 0.14613 0.95858 0.9946 0.0
H3483 H 0.14219 0.96645 0.05134 0.0
H3484 H 0.12845 0.96777 0.0772 0.0
H3485 H 0.11422 0.91835 0.0719 0.0
H3486 H 0.12769 0.9168 0.04589 0.0
H3487 H 0.21705 0.91387 0.00515 0.0
H3488 H 0.1959 0.93358 0.00767 0.0
H3489 H 0.16201 0.89597 0.01844 0.0
H3490 H 0.18314 0.8762 0.01617 0.0
H3491 H 0.15858 0.92107 0.03831 0.0
H3492 H 0.16246 0.91325 0.98152 0.0
H3493 H 0.17615 0.91196 0.95563 0.0
H3494 H 0.19049 0.96134 0.96103 0.0
H3495 H 0.17706 0.96286 0.98707 0.0
C3496 C 0.09958 0.9699 0.02461 0.0
C3497 C 0.10287 0.98623 0.02214 0.0
C3498 C 0.1117 0.95861 0.02339 0.0
C3499 C 0.12741 0.9634 0.01981 0.0
C3500 C 0.13073 0.97968 0.01728 0.0
C3501 C 0.11861 0.99097 0.01847 0.0
C3502 C 0.14036 0.95144 0.01849 0.0
C3503 C 0.149 0.95053 0.00425 0.0
C3504 C 0.14387 0.94067 0.03092 0.0
C3505 C 0.13581 0.94155 0.04659 0.0
C3506 C 0.13602 0.9559 0.05563 0.0
C3507 C 0.1283 0.95668 0.07033 0.0
C3508 C 0.12043 0.94317 0.07617 0.0
C3509 C 0.1203 0.92882 0.06735 0.0
C3510 C 0.12799 0.92798 0.05263 0.0
C3511 C 0.2051 0.90977 0.00803 0.0
C3512 C 0.2018 0.89342 0.0104 0.0
C3513 C 0.19299 0.92106 0.00941 0.0
C3514 C 0.1773 0.91626 0.01307 0.0
C3515 C 0.17401 0.89997 0.01559 0.0
C3516 C 0.18611 0.88867 0.01423 0.0
C3517 C 0.16435 0.92821 0.01442 0.0
C3518 C 0.15571 0.92913 0.02866 0.0
C3519 C 0.16084 0.93899 0.00199 0.0
C3520 C 0.16889 0.93812 0.98632 0.0
C3521 C 0.16864 0.92379 0.97724 0.0
C3522 C 0.17633 0.92303 0.96253 0.0
C3523 C 0.18422 0.93654 0.95671 0.0
C3524 C 0.18439 0.95087 0.96557 0.0
C3525 C 0.17673 0.9517 0.98029 0.0
H3526 H 0.19017 0.93593 0.94532 0.0
H3527 H 0.11446 0.9438 0.08755 0.0
loop_
_geom_bond_atom_site_label_1
_geom_bond_atom_site_label_2
_geom_bond_distance
_geom_bond_site_symmetry_2
_ccdc_geom_bond_type
C0 C1 1.390 1_556 S
C0 C4 1.383 1_556 S
C0 H42 0.957 . S
C1 C0 1.390 1_554 S
C1 C2 1.391 . S
C2 C1 1.391 . S
C2 H58 0.947 . S
C2 C59 1.392 . S
C3 C4 1.391 . S
C3 C7 1.397 . S
C3 C59 1.419 . S
C4 C0 1.383 1_554 S
C4 C3 1.391 . S
C4 C5 1.399 . S
C5 C4 1.399 . S
C5 C8 1.396 . S
C5 C17 1.453 . S
C5 C18 1.684 1_554 S
H6 C30 0.957 . S
C7 C3 1.397 . S
C7 C8 1.394 . S
C7 C26 1.723 . S
C8 C5 1.396 . S
C8 C7 1.394 . S
C8 C38 1.723 . S
H9 C32 0.947 . S
H10 C33 0.948 . S
H11 C39 0.982 . S
H12 C40 0.979 . S
H13 C40 0.980 . S
H14 C40 0.983 . S
H15 C39 0.979 . S
H16 C39 0.977 . S
C17 C5 1.453 . S
C17 H46 0.982 . S
C17 H47 0.979 . S
C17 H48 0.977 . S
C18 C5 1.684 1_556 S
C18 H43 0.979 . S
C18 H44 0.980 . S
C18 H45 0.983 . S
C19 C20 1.390 1_655 S
C19 C24 1.383 1_655 S
C19 H49 0.957 . S
C20 C19 1.390 1_455 S
C20 C21 1.391 . S
C21 C20 1.391 . S
C21 C22 1.392 . S
C21 H50 0.947 . S
C22 C21 1.392 . S
C22 C23 1.419 . S
C22 H51 0.948 . S
C23 C22 1.419 . S
C23 C24 1.391 . S
C23 C27 1.397 . S
C24 C19 1.383 1_455 S
C24 C23 1.391 . S
C24 C25 1.399 . S
C25 C24 1.399 . S
C25 C26 1.396 . S
C25 C28 1.453 . S
C25 C29 1.684 1_455 S
C26 C7 1.723 . S
C26 C25 1.396 . S
C26 C27 1.394 . S
C27 C23 1.397 . S
C27 C26 1.394 . S
C27 C37 1.723 . S
C28 C25 1.453 . S
C28 H52 0.982 . S
C28 H53 0.979 . S
C28 H54 0.977 . S
C29 C25 1.684 1_655 S
C29 H55 0.979 . S
C29 H56 0.980 . S
C29 H57 0.983 . S
C30 H6 0.957 . S
C30 C31 1.390 1_565 S
C30 C35 1.383 1_565 S
C31 C30 1.390 1_545 S
C31 C32 1.391 . S
C32 H9 0.947 . S
C32 C31 1.391 . S
C32 C33 1.392 . S
C33 H10 0.948 . S
C33 C32 1.392 . S
C33 C34 1.419 . S
C34 C33 1.419 . S
C34 C35 1.391 . S
C34 C38 1.397 . S
C35 C30 1.383 1_545 S
C35 C34 1.391 . S
C35 C36 1.399 . S
C36 C35 1.399 . S
C36 C37 1.396 . S
C36 C39 1.453 . S
C36 C40 1.684 1_545 S
C37 C27 1.723 . S
C37 C36 1.396 . S
C37 C38 1.394 . S
C38 C8 1.723 . S
C38 C34 1.397 . S
C38 C37 1.394 . S
C39 H11 0.982 . S
C39 H15 0.979 . S
C39 H16 0.977 . S
C39 C36 1.453 . S
C40 H12 0.979 . S
C40 H13 0.980 . S
C40 H14 0.983 . S
C40 C36 1.684 1_565 S
H41 C59 0.948 . S
H42 C0 0.957 . S
H43 C18 0.979 . S
H44 C18 0.980 . S
H45 C18 0.983 . S
H46 C17 0.982 . S
H47 C17 0.979 . S
H48 C17 0.977 . S
H49 C19 0.957 . S
H50 C21 0.947 . S
H51 C22 0.948 . S
H52 C28 0.982 . S
H53 C28 0.979 . S
H54 C28 0.977 . S
H55 C29 0.979 . S
H56 C29 0.980 . S
H57 C29 0.983 . S
H58 C2 0.947 . S
C59 C2 1.392 . S
C59 C3 1.419 . S
C59 H41 0.948 . S
C60 C61 1.391 . S
C60 C64 1.391 . S
C60 H102 0.948 . S
C61 C60 1.391 . S
C61 C62 1.391 . S
C62 C61 1.391 . S
C62 H118 0.947 . S
C62 C119 1.392 . S
C63 C64 1.391 . S
C63 C67 1.397 . S
C63 C119 1.419 . S
C64 C60 1.391 . S
C64 C63 1.391 . S
C64 C65 1.399 . S
C65 C64 1.399 . S
C65 C68 1.396 . S
C65 C77 1.453 . S
C65 C78 1.684 . S
H66 C90 0.948 . S
C67 C63 1.397 . S
C67 C68 1.394 . S
C67 C86 1.723 . S
C68 C65 1.396 . S
C68 C67 1.394 . S
C68 C98 1.723 . S
H69 C92 0.947 . S
H70 C93 0.948 . S
H71 C99 0.982 . S
H72 C100 0.979 . S
H73 C100 0.980 . S
H74 C100 0.983 . S
H75 C99 0.979 . S
H76 C99 0.977 . S
C77 C65 1.453 . S
C77 H106 0.982 . S
C77 H107 0.979 . S
C77 H108 0.977 . S
C78 C65 1.684 . S
C78 H103 0.979 . S
C78 H104 0.980 . S
C78 H105 0.983 . S
C79 C80 1.391 . S
C79 C84 1.391 . S
C79 H109 0.948 . S
C80 C79 1.391 . S
C80 C81 1.391 . S
C81 C80 1.391 . S
C81 C82 1.392 . S
C81 H110 0.947 . S
C82 C81 1.392 . S
C82 C83 1.419 . S
C82 H111 0.948 . S
C83 C82 1.419 . S
C83 C84 1.391 . S
C83 C87 1.397 . S
C84 C79 1.391 . S
C84 C83 1.391 . S
C84 C85 1.399 . S
C85 C84 1.399 . S
C85 C86 1.396 . S
C85 C88 1.453 . S
C85 C89 1.684 . S
C86 C67 1.723 . S
C86 C85 1.396 . S
C86 C87 1.394 . S
C87 C83 1.397 . S
C87 C86 1.394 . S
C87 C97 1.723 . S
C88 C85 1.453 . S
C88 H112 0.982 . S
C88 H113 0.979 . S
C88 H114 0.977 . S
C89 C85 1.684 . S
C89 H115 0.979 . S
C89 H116 0.980 . S
C89 H117 0.983 . S
C90 H66 0.948 . S
C90 C91 1.391 . S
C90 C95 1.391 . S
C91 C90 1.391 . S
C91 C92 1.391 . S
C92 H69 0.947 . S
C92 C91 1.391 . S
C92 C93 1.392 . S
C93 H70 0.948 . S
C93 C92 1.392 . S
C93 C94 1.419 . S
C94 C93 1.419 . S
C94 C95 1.391 . S
C94 C98 1.397 . S
C95 C90 1.391 . S
C95 C94 1.391 . S
C95 C96 1.399 . S
C96 C95 1.399 . S
C96 C97 1.396 . S
C96 C99 1.453 . S
C96 C100 1.684 . S
C97 C87 1.723 . S
C97 C96 1.396 . S
C97 C98 1.394 . S
C98 C68 1.723 . S
C98 C94 1.397 . S
C98 C97 1.394 . S
C99 H71 0.982 . S
C99 H75 0.979 . S
C99 H76 0.977 . S
C99 C96 1.453 . S
C100 H72 0.979 . S
C100 H73 0.980 . S
C100 H74 0.983 . S
C100 C96 1.684 . S
H101 C119 0.948 . S
H102 C60 0.948 . S
H103 C78 0.979 . S
H104 C78 0.980 . S
H105 C78 0.983 . S
H106 C77 0.982 . S
H107 C77 0.979 . S
H108 C77 0.977 . S
H109 C79 0.948 . S
H110 C81 0.947 . S
H111 C82 0.948 . S
H112 C88 0.982 . S
H113 C88 0.979 . S
H114 C88 0.977 . S
H115 C89 0.979 . S
H116 C89 0.980 . S
H117 C89 0.983 . S
H118 C62 0.947 . S
C119 C62 1.392 . S
C119 C63 1.419 . S
C119 H101 0.948 . S
C120 C121 1.391 . S
C120 C124 1.391 . S
C120 H162 0.948 . S
C121 C120 1.391 . S
C121 C122 1.391 . S
C122 C121 1.391 . S
C122 H178 0.947 1_554 S
C122 C179 1.392 . S
C123 C124 1.391 . S
C123 C127 1.397 . S
C123 C179 1.419 . S
C124 C120 1.391 . S
C124 C123 1.391 . S
C124 C125 1.399 . S
C125 C124 1.399 . S
C125 C128 1.396 . S
C125 C137 1.453 . S
C125 C138 1.684 . S
H126 C150 0.948 . S
C127 C123 1.397 . S
C127 C128 1.394 . S
C127 C146 1.723 . S
C128 C125 1.396 . S
C128 C127 1.394 . S
C128 C158 1.723 . S
H129 C152 0.947 1_455 S
H130 C153 0.948 . S
H131 C159 0.982 . S
H132 C160 0.979 . S
H133 C160 0.980 . S
H134 C160 0.983 . S
H135 C159 0.979 . S
H136 C159 0.977 . S
C137 C125 1.453 . S
C137 H166 0.982 . S
C137 H167 0.979 . S
C137 H168 0.977 . S
C138 C125 1.684 . S
C138 H163 0.979 . S
C138 H164 0.980 . S
C138 H165 0.983 . S
C139 C140 1.391 . S
C139 C144 1.391 . S
C139 H169 0.948 . S
C140 C139 1.391 . S
C140 C141 1.391 . S
C141 C140 1.391 . S
C141 C142 1.392 . S
C141 H170 0.947 . S
C142 C141 1.392 . S
C142 C143 1.419 . S
C142 H171 0.948 . S
C143 C142 1.419 . S
C143 C144 1.391 . S
C143 C147 1.397 . S
C144 C139 1.391 . S
C144 C143 1.391 . S
C144 C145 1.399 . S
C145 C144 1.399 . S
C145 C146 1.396 . S
C145 C148 1.453 . S
C145 C149 1.684 . S
C146 C127 1.723 . S
C146 C145 1.396 . S
C146 C147 1.394 . S
C147 C143 1.397 . S
C147 C146 1.394 . S
C147 C157 1.723 . S
C148 C145 1.453 . S
C148 H172 0.982 . S
C148 H173 0.979 . S
C148 H174 0.977 . S
C149 C145 1.684 . S
C149 H175 0.979 . S
C149 H176 0.980 . S
C149 H177 0.983 . S
C150 H126 0.948 . S
C150 C151 1.391 . S
C150 C155 1.391 . S
C151 C150 1.391 . S
C151 C152 1.391 . S
C152 H129 0.947 1_655 S
C152 C151 1.391 . S
C152 C153 1.392 . S
C153 H130 0.948 . S
C153 C152 1.392 . S
C153 C154 1.419 . S
C154 C153 1.419 . S
C154 C155 1.391 . S
C154 C158 1.397 . S
C155 C150 1.391 . S
C155 C154 1.391 . S
C155 C156 1.399 . S
C156 C155 1.399 . S
C156 C157 1.396 . S
C156 C159 1.453 . S
C156 C160 1.684 . S
C157 C147 1.723 . S
C157 C156 1.396 . S
C157 C158 1.394 . S
C158 C128 1.723 . S
C158 C154 1.397 . S
C158 C157 1.394 . S
C159 H131 0.982 . S
C159 H135 0.979 . S
C159 H136 0.977 . S
C159 C156 1.453 . S
C160 H132 0.979 . S
C160 H133 0.980 . S
C160 H134 0.983 . S
C160 C156 1.684 . S
H161 C179 0.948 . S
H162 C120 0.948 . S
H163 C138 0.979 . S
H164 C138 0.980 . S
H165 C138 0.983 . S
H166 C137 0.982 . S
H167 C137 0.979 . S
H168 C137 0.977 . S
H169 C139 0.948 . S
H170 C141 0.947 . S
H171 C142 0.948 . S
H172 C148 0.982 . S
H173 C148 0.979 . S
H174 C148 0.977 . S
H175 C149 0.979 . S
H176 C149 0.980 . S
H177 C149 0.983 . S
H178 C122 0.947 1_556 S
C179 C122 1.392 . S
C179 C123 1.419 . S
C179 H161 0.948 . S
C180 C181 1.391 . S
C180 C184 1.391 . S
C180 H222 0.948 . S
C181 C180 1.391 . S
C181 C182 1.391 . S
C182 C181 1.391 . S
C182 H238 0.947 . S
C182 C239 1.392 . S
C183 C184 1.391 . S
C183 C187 1.397 . S
C183 C239 1.419 . S
C184 C180 1.391 . S
C184 C183 1.391 . S
C184 C185 1.399 . S
C185 C184 1.399 . S
C185 C188 1.396 . S
C185 C197 1.453 . S
C185 C198 1.684 . S
H186 C210 0.948 . S
C187 C183 1.397 . S
C187 C188 1.394 . S
C187 C206 1.723 . S
C188 C185 1.396 . S
C188 C187 1.394 . S
C188 C218 1.723 . S
H189 C212 0.947 . S
H190 C213 0.948 . S
H191 C219 0.982 . S
H192 C220 0.979 . S
H193 C220 0.980 . S
H194 C220 0.983 . S
H195 C219 0.979 . S
H196 C219 0.977 . S
C197 C185 1.453 . S
C197 H226 0.982 . S
C197 H227 0.979 . S
C197 H228 0.977 . S
C198 C185 1.684 . S
C198 H223 0.979 . S
C198 H224 0.980 . S
C198 H225 0.983 . S
C199 C200 1.391 . S
C199 C204 1.391 . S
C199 H229 0.948 . S
C200 C199 1.391 . S
C200 C201 1.391 . S
C201 C200 1.391 . S
C201 C202 1.392 . S
C201 H230 0.947 . S
C202 C201 1.392 . S
C202 C203 1.419 . S
C202 H231 0.948 . S
C203 C202 1.419 . S
C203 C204 1.391 . S
C203 C207 1.397 . S
C204 C199 1.391 . S
C204 C203 1.391 . S
C204 C205 1.399 . S
C205 C204 1.399 . S
C205 C206 1.396 . S
C205 C208 1.453 . S
C205 C209 1.684 . S
C206 C187 1.723 . S
C206 C205 1.396 . S
C206 C207 1.394 . S
C207 C203 1.397 . S
C207 C206 1.394 . S
C207 C217 1.723 . S
C208 C205 1.453 . S
C208 H232 0.982 . S
C208 H233 0.979 . S
C208 H234 0.977 . S
C209 C205 1.684 . S
C209 H235 0.979 . S
C209 H236 0.980 . S
C209 H237 0.983 . S
C210 H186 0.948 . S
C210 C211 1.391 . S
C210 C215 1.391 . S
C211 C210 1.391 . S
C211 C212 1.391 . S
C212 H189 0.947 . S
C212 C211 1.391 . S
C212 C213 1.392 . S
C213 H190 0.948 . S
C213 C212 1.392 . S
C213 C214 1.419 . S
C214 C213 1.419 . S
C214 C215 1.391 . S
C214 C218 1.397 . S
C215 C210 1.391 . S
C215 C214 1.391 . S
C215 C216 1.399 . S
C216 C215 1.399 . S
C216 C217 1.396 . S
C216 C219 1.453 . S
C216 C220 1.684 . S
C217 C207 1.723 . S
C217 C216 1.396 . S
C217 C218 1.394 . S
C218 C188 1.723 . S
C218 C214 1.397 . S
C218 C217 1.394 . S
C219 H191 0.982 . S
C219 H195 0.979 . S
C219 H196 0.977 . S
C219 C216 1.453 . S
C220 H192 0.979 . S
C220 H193 0.980 . S
C220 H194 0.983 . S
C220 C216 1.684 . S
H221 C239 0.948 . S
H222 C180 0.948 . S
H223 C198 0.979 . S
H224 C198 0.980 . S
H225 C198 0.983 . S
H226 C197 0.982 . S
H227 C197 0.979 . S
H228 C197 0.977 . S
H229 C199 0.948 . S
H230 C201 0.947 . S
H231 C202 0.948 . S
H232 C208 0.982 . S
H233 C208 0.979 . S
H234 C208 0.977 . S
H235 C209 0.979 . S
H236 C209 0.980 . S
H237 C209 0.983 . S
H238 C182 0.947 . S
C239 C182 1.392 . S
C239 C183 1.419 . S
C239 H221 0.948 . S
C240 C241 1.391 . S
C240 C244 1.391 . S
C240 H282 0.948 . S
C241 C240 1.391 . S
C241 C242 1.391 . S
C242 C241 1.391 . S
C242 H298 0.947 . S
C242 C299 1.392 . S
C243 C244 1.391 . S
C243 C247 1.397 . S
C243 C299 1.419 . S
C244 C240 1.391 . S
C244 C243 1.391 . S
C244 C245 1.399 . S
C245 C244 1.399 . S
C245 C248 1.396 . S
C245 C257 1.453 . S
C245 C258 1.684 . S
H246 C270 0.948 . S
C247 C243 1.397 . S
C247 C248 1.394 . S
C247 C266 1.723 . S
C248 C245 1.396 . S
C248 C247 1.394 . S
C248 C278 1.723 . S
H249 C272 0.947 . S
H250 C273 0.948 . S
H251 C279 0.982 . S
H252 C280 0.979 . S
H253 C280 0.980 . S
H254 C280 0.983 . S
H255 C279 0.939 1_545 S
H256 C279 0.977 . S
C257 C245 1.453 . S
C257 H286 0.982 . S
C257 H287 0.979 . S
C257 H288 0.977 . S
C258 C245 1.684 . S
C258 H283 0.979 . S
C258 H284 0.980 . S
C258 H285 0.983 . S
C259 C260 1.391 . S
C259 C264 1.391 . S
C259 H289 0.948 . S
C260 C259 1.391 . S
C260 C261 1.391 . S
C261 C260 1.391 . S
C261 C262 1.392 . S
C261 H290 0.947 . S
C262 C261 1.392 . S
C262 C263 1.419 . S
C262 H291 0.948 . S
C263 C262 1.419 . S
C263 C264 1.391 . S
C263 C267 1.397 . S
C264 C259 1.391 . S
C264 C263 1.391 . S
C264 C265 1.399 . S
C265 C264 1.399 . S
C265 C266 1.396 . S
C265 C268 1.453 . S
C265 C269 1.684 . S
C266 C247 1.723 . S
C266 C265 1.396 . S
C266 C267 1.394 . S
C267 C263 1.397 . S
C267 C266 1.394 . S
C267 C277 1.723 . S
C268 C265 1.453 . S
C268 H292 0.982 . S
C268 H293 0.979 . S
C268 H294 0.977 . S
C269 C265 1.684 . S
C269 H295 0.979 . S
C269 H296 0.980 . S
C269 H297 0.983 . S
C270 H246 0.948 . S
C270 C271 1.391 . S
C270 C275 1.391 . S
C271 C270 1.391 . S
C271 C272 1.391 . S
C272 H249 0.947 . S
C272 C271 1.391 . S
C272 C273 1.392 . S
C273 H250 0.948 . S
C273 C272 1.392 . S
C273 C274 1.419 . S
C274 C273 1.419 . S
C274 C275 1.391 . S
C274 C278 1.397 . S
C275 C270 1.391 . S
C275 C274 1.391 . S
C275 C276 1.399 . S
C276 C275 1.399 . S
C276 C277 1.396 . S
C276 C279 1.453 . S
C276 C280 1.684 . S
C277 C267 1.723 . S
C277 C276 1.396 . S
C277 C278 1.394 . S
C278 C248 1.723 . S
C278 C274 1.397 . S
C278 C277 1.394 . S
C279 H251 0.982 . S
C279 H255 0.939 1_565 S
C279 H256 0.977 . S
C279 C276 1.453 . S
C280 H252 0.979 . S
C280 H253 0.980 . S
C280 H254 0.983 . S
C280 C276 1.684 . S
H281 C299 0.948 . S
H282 C240 0.948 . S
H283 C258 0.979 . S
H284 C258 0.980 . S
H285 C258 0.983 . S
H286 C257 0.982 . S
H287 C257 0.979 . S
H288 C257 0.977 . S
H289 C259 0.948 . S
H290 C261 0.947 . S
H291 C262 0.948 . S
H292 C268 0.982 . S
H293 C268 0.979 . S
H294 C268 0.977 . S
H295 C269 0.979 . S
H296 C269 0.980 . S
H297 C269 0.983 . S
H298 C242 0.947 . S
C299 C242 1.392 . S
C299 C243 1.419 . S
C299 H281 0.948 . S
C300 C301 1.391 . S
C300 C304 1.391 . S
C300 H342 0.948 . S
C301 C300 1.391 . S
C301 C302 1.391 . S
C302 C301 1.391 . S
C302 H358 0.947 . S
C302 C359 1.392 . S
C303 C304 1.391 . S
C303 C307 1.397 . S
C303 C359 1.419 . S
C304 C300 1.391 . S
C304 C303 1.391 . S
C304 C305 1.399 . S
C305 C304 1.399 . S
C305 C308 1.396 . S
C305 C317 1.453 . S
C305 C318 1.684 . S
H306 C330 0.948 . S
C307 C303 1.397 . S
C307 C308 1.394 . S
C307 C326 1.723 . S
C308 C305 1.396 . S
C308 C307 1.394 . S
C308 C338 1.723 . S
H309 C332 0.947 . S
H310 C333 0.948 . S
H311 C339 0.982 . S
H312 C340 0.979 . S
H313 C340 0.980 . S
H314 C340 0.983 . S
H315 C339 0.979 . S
H316 C339 0.977 . S
C317 C305 1.453 . S
C317 H346 0.982 . S
C317 H347 0.979 . S
C317 H348 0.977 . S
C318 C305 1.684 . S
C318 H343 0.979 . S
C318 H344 0.980 . S
C318 H345 0.983 . S
C319 C320 1.391 . S
C319 C324 1.391 . S
C319 H349 0.948 . S
C320 C319 1.391 . S
C320 C321 1.391 . S
C321 C320 1.391 . S
C321 C322 1.392 . S
C321 H350 0.947 . S
C322 C321 1.392 . S
C322 C323 1.419 . S
C322 H351 0.948 . S
C323 C322 1.419 . S
C323 C324 1.391 . S
C323 C327 1.397 . S
C324 C319 1.391 . S
C324 C323 1.391 . S
C324 C325 1.399 . S
C325 C324 1.399 . S
C325 C326 1.396 . S
C325 C328 1.453 . S
C325 C329 1.684 . S
C326 C307 1.723 . S
C326 C325 1.396 . S
C326 C327 1.394 . S
C327 C323 1.397 . S
C327 C326 1.394 . S
C327 C337 1.723 . S
C328 C325 1.453 . S
C328 H352 0.982 . S
C328 H353 0.979 . S
C328 H354 0.977 . S
C329 C325 1.684 . S
C329 H355 0.979 . S
C329 H356 0.980 . S
C329 H357 0.983 . S
C330 H306 0.948 . S
C330 C331 1.391 . S
C330 C335 1.391 . S
C331 C330 1.391 . S
C331 C332 1.391 . S
C332 H309 0.947 . S
C332 C331 1.391 . S
C332 C333 1.392 . S
C333 H310 0.948 . S
C333 C332 1.392 . S
C333 C334 1.419 . S
C334 C333 1.419 . S
C334 C335 1.391 . S
C334 C338 1.397 . S
C335 C330 1.391 . S
C335 C334 1.391 . S
C335 C336 1.399 . S
C336 C335 1.399 . S
C336 C337 1.396 . S
C336 C339 1.453 . S
C336 C340 1.684 . S
C337 C327 1.723 . S
C337 C336 1.396 . S
C337 C338 1.394 . S
C338 C308 1.723 . S
C338 C334 1.397 . S
C338 C337 1.394 . S
C339 H311 0.982 . S
C339 H315 0.979 . S
C339 H316 0.977 . S
C339 C336 1.453 . S
C340 H312 0.979 . S
C340 H313 0.980 . S
C340 H314 0.983 . S
C340 C336 1.684 . S
H341 C359 0.948 . S
H342 C300 0.948 . S
H343 C318 0.979 . S
H344 C318 0.980 . S
H345 C318 0.983 . S
H346 C317 0.982 . S
H347 C317 0.979 . S
H348 C317 0.977 . S
H349 C319 0.948 . S
H350 C321 0.947 . S
H351 C322 0.948 . S
H352 C328 0.982 . S
H353 C328 0.979 . S
H354 C328 0.977 . S
H355 C329 0.979 . S
H356 C329 0.980 . S
H357 C329 0.983 . S
H358 C302 0.947 . S
C359 C302 1.392 . S
C359 C303 1.419 . S
C359 H341 0.948 . S
C360 C361 1.391 . S
C360 C364 1.391 . S
C360 H402 0.948 . S
C361 C360 1.391 . S
C361 C362 1.391 . S
C362 C361 1.391 . S
C362 H418 0.947 . S
C362 C419 1.392 . S
C363 C364 1.391 . S
C363 C367 1.397 . S
C363 C419 1.419 . S
C364 C360 1.391 . S
C364 C363 1.391 . S
C364 C365 1.399 . S
C365 C364 1.399 . S
C365 C368 1.396 . S
C365 C377 1.453 . S
C365 C378 1.684 . S
H366 C390 0.948 . S
C367 C363 1.397 . S
C367 C368 1.394 . S
C367 C386 1.723 . S
C368 C365 1.396 . S
C368 C367 1.394 . S
C368 C398 1.723 . S
H369 C392 0.947 . S
H370 C393 0.948 . S
H371 C399 0.982 . S
H372 C400 0.980 1_455 S
H373 C400 0.981 1_455 S
H374 C400 0.984 1_455 S
H375 C399 0.979 . S
H376 C399 0.977 . S
C377 C365 1.453 . S
C377 H406 0.982 . S
C377 H407 0.979 . S
C377 H408 0.977 . S
C378 C365 1.684 . S
C378 H403 0.979 . S
C378 H404 0.980 . S
C378 H405 0.983 . S
C379 C380 1.397 1_655 S
C379 C384 1.391 . S
C379 H409 0.948 . S
C380 C379 1.397 1_455 S
C380 C381 1.390 . S
C381 C380 1.390 . S
C381 C382 1.392 1_455 S
C381 H410 0.947 . S
C382 C381 1.392 1_655 S
C382 C383 1.419 . S
C382 H411 0.948 . S
C383 C382 1.419 . S
C383 C384 1.391 . S
C383 C387 1.397 . S
C384 C379 1.391 . S
C384 C383 1.391 . S
C384 C385 1.399 . S
C385 C384 1.399 . S
C385 C386 1.396 . S
C385 C388 1.453 . S
C385 C389 1.684 . S
C386 C367 1.723 . S
C386 C385 1.396 . S
C386 C387 1.394 . S
C387 C383 1.397 . S
C387 C386 1.394 . S
C387 C397 1.723 . S
C388 C385 1.453 . S
C388 H412 0.982 . S
C388 H413 0.979 . S
C388 H414 0.977 . S
C389 C385 1.684 . S
C389 H415 0.979 . S
C389 H416 0.980 . S
C389 H417 0.983 . S
C390 H366 0.948 . S
C390 C391 1.391 . S
C390 C395 1.391 . S
C391 C390 1.391 . S
C391 C392 1.391 . S
C392 H369 0.947 . S
C392 C391 1.391 . S
C392 C393 1.392 . S
C393 H370 0.948 . S
C393 C392 1.392 . S
C393 C394 1.419 . S
C394 C393 1.419 . S
C394 C395 1.391 . S
C394 C398 1.397 . S
C395 C390 1.391 . S
C395 C394 1.391 . S
C395 C396 1.399 . S
C396 C395 1.399 . S
C396 C397 1.396 . S
C396 C399 1.453 . S
C396 C400 1.680 . S
C397 C387 1.723 . S
C397 C396 1.396 . S
C397 C398 1.394 . S
C398 C368 1.723 . S
C398 C394 1.397 . S
C398 C397 1.394 . S
C399 H371 0.982 . S
C399 H375 0.979 . S
C399 H376 0.977 . S
C399 C396 1.453 . S
C400 H372 0.980 1_655 S
C400 H373 0.981 1_655 S
C400 H374 0.984 1_655 S
C400 C396 1.680 . S
H401 C419 0.948 . S
H402 C360 0.948 . S
H403 C378 0.979 . S
H404 C378 0.980 . S
H405 C378 0.983 . S
H406 C377 0.982 . S
H407 C377 0.979 . S
H408 C377 0.977 . S
H409 C379 0.948 . S
H410 C381 0.947 . S
H411 C382 0.948 . S
H412 C388 0.982 . S
H413 C388 0.979 . S
H414 C388 0.977 . S
H415 C389 0.979 . S
H416 C389 0.980 . S
H417 C389 0.983 . S
H418 C362 0.947 . S
C419 C362 1.392 . S
C419 C363 1.419 . S
C419 H401 0.948 . S
C420 C421 1.391 . S
C420 C424 1.391 . S
C420 H462 0.948 . S
C421 C420 1.391 . S
C421 C422 1.391 . S
C422 C421 1.391 . S
C422 H478 0.947 . S
C422 C479 1.392 . S
C423 C424 1.391 . S
C423 C427 1.397 . S
C423 C479 1.419 . S
C424 C420 1.391 . S
C424 C423 1.391 . S
C424 C425 1.399 . S
C425 C424 1.399 . S
C425 C428 1.396 . S
C425 C437 1.453 . S
C425 C438 1.684 . S
H426 C450 0.948 . S
C427 C423 1.397 . S
C427 C428 1.394 . S
C427 C446 1.723 . S
C428 C425 1.396 . S
C428 C427 1.394 . S
C428 C458 1.723 . S
H429 C452 0.947 . S
H430 C453 0.948 . S
H431 C459 0.982 . S
H432 C460 0.979 . S
H433 C460 0.980 . S
H434 C460 0.983 . S
H435 C459 0.979 . S
H436 C459 0.977 . S
C437 C425 1.453 . S
C437 H466 0.982 . S
C437 H467 0.979 . S
C437 H468 0.977 . S
C438 C425 1.684 . S
C438 H463 0.979 . S
C438 H464 0.980 . S
C438 H465 0.983 . S
C439 C440 1.391 . S
C439 C444 1.391 . S
C439 H469 0.948 . S
C440 C439 1.391 . S
C440 C441 1.391 . S
C441 C440 1.391 . S
C441 C442 1.392 . S
C441 H470 0.947 . S
C442 C441 1.392 . S
C442 C443 1.419 . S
C442 H471 0.948 . S
C443 C442 1.419 . S
C443 C444 1.391 . S
C443 C447 1.397 . S
C444 C439 1.391 . S
C444 C443 1.391 . S
C444 C445 1.399 . S
C445 C444 1.399 . S
C445 C446 1.396 . S
C445 C448 1.453 . S
C445 C449 1.684 . S
C446 C427 1.723 . S
C446 C445 1.396 . S
C446 C447 1.394 . S
C447 C443 1.397 . S
C447 C446 1.394 . S
C447 C457 1.723 . S
C448 C445 1.453 . S
C448 H472 0.982 . S
C448 H473 0.979 . S
C448 H474 0.977 . S
C449 C445 1.684 . S
C449 H475 0.979 . S
C449 H476 0.980 . S
C449 H477 0.983 . S
C450 H426 0.948 . S
C450 C451 1.391 . S
C450 C455 1.391 . S
C451 C450 1.391 . S
C451 C452 1.391 . S
C452 H429 0.947 . S
C452 C451 1.391 . S
C452 C453 1.392 . S
C453 H430 0.948 . S
C453 C452 1.392 . S
C453 C454 1.419 . S
C454 C453 1.419 . S
C454 C455 1.391 . S
C454 C458 1.397 . S
C455 C450 1.391 . S
C455 C454 1.391 . S
C455 C456 1.399 . S
C456 C455 1.399 . S
C456 C457 1.396 . S
C456 C459 1.453 . S
C456 C460 1.684 . S
C457 C447 1.723 . S
C457 C456 1.396 . S
C457 C458 1.394 . S
C458 C428 1.723 . S
C458 C454 1.397 . S
C458 C457 1.394 . S
C459 H431 0.982 . S
C459 H435 0.979 . S
C459 H436 0.977 . S
C459 C456 1.453 . S
C460 H432 0.979 . S
C460 H433 0.980 . S
C460 H434 0.983 . S
C460 C456 1.684 . S
H461 C479 0.948 . S
H462 C420 0.948 . S
H463 C438 0.979 . S
H464 C438 0.980 . S
H465 C438 0.983 . S
H466 C437 0.982 . S
H467 C437 0.979 . S
H468 C437 0.977 . S
H469 C439 0.948 . S
H470 C441 0.947 . S
H471 C442 0.948 . S
H472 C448 0.982 . S
H473 C448 0.979 . S
H474 C448 0.977 . S
H475 C449 0.979 . S
H476 C449 0.980 . S
H477 C449 0.983 . S
H478 C422 0.947 . S
C479 C422 1.392 . S
C479 C423 1.419 . S
C479 H461 0.948 . S
C480 C481 1.391 . S
C480 C484 1.391 . S
C480 H522 0.948 . S
C481 C480 1.391 . S
C481 C482 1.391 . S
C482 C481 1.391 . S
C482 H538 0.947 . S
C482 C539 1.392 . S
C483 C484 1.391 . S
C483 C487 1.397 . S
C483 C539 1.419 . S
C484 C480 1.391 . S
C484 C483 1.391 . S
C484 C485 1.399 . S
C485 C484 1.399 . S
C485 C488 1.396 . S
C485 C497 1.453 . S
C485 C498 1.684 . S
H486 C510 0.948 . S
C487 C483 1.397 . S
C487 C488 1.394 . S
C487 C506 1.723 . S
C488 C485 1.396 . S
C488 C487 1.394 . S
C488 C518 1.723 . S
H489 C512 0.947 . S
H490 C513 0.948 . S
H491 C519 0.982 . S
H492 C520 0.979 . S
H493 C520 0.980 . S
H494 C520 0.983 . S
H495 C519 0.979 . S
H496 C519 0.977 . S
C497 C485 1.453 . S
C497 H526 0.982 . S
C497 H527 0.979 . S
C497 H528 0.977 . S
C498 C485 1.684 . S
C498 H523 0.979 . S
C498 H524 0.980 . S
C498 H525 0.983 . S
C499 C500 1.391 . S
C499 C504 1.391 . S
C499 H529 0.948 . S
C500 C499 1.391 . S
C500 C501 1.391 . S
C501 C500 1.391 . S
C501 C502 1.392 . S
C501 H530 0.947 . S
C502 C501 1.392 . S
C502 C503 1.419 . S
C502 H531 0.948 . S
C503 C502 1.419 . S
C503 C504 1.391 . S
C503 C507 1.397 . S
C504 C499 1.391 . S
C504 C503 1.391 . S
C504 C505 1.399 . S
C505 C504 1.399 . S
C505 C506 1.396 . S
C505 C508 1.453 . S
C505 C509 1.684 . S
C506 C487 1.723 . S
C506 C505 1.396 . S
C506 C507 1.394 . S
C507 C503 1.397 . S
C507 C506 1.394 . S
C507 C517 1.723 . S
C508 C505 1.453 . S
C508 H532 0.982 . S
C508 H533 0.979 . S
C508 H534 0.977 . S
C509 C505 1.684 . S
C509 H535 0.979 . S
C509 H536 0.980 . S
C509 H537 0.983 . S
C510 H486 0.948 . S
C510 C511 1.391 . S
C510 C515 1.391 . S
C511 C510 1.391 . S
C511 C512 1.391 . S
C512 H489 0.947 . S
C512 C511 1.391 . S
C512 C513 1.392 . S
C513 H490 0.948 . S
C513 C512 1.392 . S
C513 C514 1.419 . S
C514 C513 1.419 . S
C514 C515 1.391 . S
C514 C518 1.397 . S
C515 C510 1.391 . S
C515 C514 1.391 . S
C515 C516 1.399 . S
C516 C515 1.399 . S
C516 C517 1.396 . S
C516 C519 1.453 . S
C516 C520 1.684 . S
C517 C507 1.723 . S
C517 C516 1.396 . S
C517 C518 1.394 . S
C518 C488 1.723 . S
C518 C514 1.397 . S
C518 C517 1.394 . S
C519 H491 0.982 . S
C519 H495 0.979 . S
C519 H496 0.977 . S
C519 C516 1.453 . S
C520 H492 0.979 . S
C520 H493 0.980 . S
C520 H494 0.983 . S
C520 C516 1.684 . S
H521 C539 0.948 . S
H522 C480 0.948 . S
H523 C498 0.979 . S
H524 C498 0.980 . S
H525 C498 0.983 . S
H526 C497 0.982 . S
H527 C497 0.979 . S
H528 C497 0.977 . S
H529 C499 0.948 . S
H530 C501 0.947 . S
H531 C502 0.948 . S
H532 C508 0.982 . S
H533 C508 0.979 . S
H534 C508 0.977 . S
H535 C509 0.979 . S
H536 C509 0.980 . S
H537 C509 0.983 . S
H538 C482 0.947 . S
C539 C482 1.392 . S
C539 C483 1.419 . S
C539 H521 0.948 . S
C540 C541 1.391 . S
C540 C544 1.391 . S
C540 H582 0.948 . S
C541 C540 1.391 . S
C541 C542 1.391 . S
C542 C541 1.391 . S
C542 H598 0.947 . S
C542 C599 1.392 . S
C543 C544 1.391 . S
C543 C547 1.397 . S
C543 C599 1.419 . S
C544 C540 1.391 . S
C544 C543 1.391 . S
C544 C545 1.399 . S
C545 C544 1.399 . S
C545 C548 1.396 . S
C545 C557 1.453 . S
C545 C558 1.684 . S
H546 C570 0.948 . S
C547 C543 1.397 . S
C547 C548 1.394 . S
C547 C566 1.723 . S
C548 C545 1.396 . S
C548 C547 1.394 . S
C548 C578 1.723 . S
H549 C572 0.947 . S
H550 C573 0.948 . S
H551 C579 0.982 . S
H552 C580 0.980 1_545 S
H553 C580 0.981 1_545 S
H554 C580 0.984 1_545 S
H555 C579 0.979 . S
H556 C579 0.977 . S
C557 C545 1.453 . S
C557 H586 0.982 . S
C557 H587 0.979 . S
C557 H588 0.977 . S
C558 C545 1.684 . S
C558 H583 0.979 . S
C558 H584 0.980 . S
C558 H585 0.983 . S
C559 C560 1.397 1_565 S
C559 C564 1.391 . S
C559 H589 0.948 . S
C560 C559 1.397 1_545 S
C560 C561 1.390 . S
C561 C560 1.390 . S
C561 C562 1.392 1_545 S
C561 H590 0.947 . S
C562 C561 1.392 1_565 S
C562 C563 1.419 . S
C562 H591 0.948 . S
C563 C562 1.419 . S
C563 C564 1.391 . S
C563 C567 1.397 . S
C564 C559 1.391 . S
C564 C563 1.391 . S
C564 C565 1.399 . S
C565 C564 1.399 . S
C565 C566 1.396 . S
C565 C568 1.453 . S
C565 C569 1.684 . S
C566 C547 1.723 . S
C566 C565 1.396 . S
C566 C567 1.394 . S
C567 C563 1.397 . S
C567 C566 1.394 . S
C567 C577 1.723 . S
C568 C565 1.453 . S
C568 H592 0.982 . S
C568 H593 0.979 . S
C568 H594 0.977 . S
C569 C565 1.684 . S
C569 H595 0.979 . S
C569 H596 0.980 . S
C569 H597 0.983 . S
C570 H546 0.948 . S
C570 C571 1.391 . S
C570 C575 1.391 . S
C571 C570 1.391 . S
C571 C572 1.391 . S
C572 H549 0.947 . S
C572 C571 1.391 . S
C572 C573 1.392 . S
C573 H550 0.948 . S
C573 C572 1.392 . S
C573 C574 1.419 . S
C574 C573 1.419 . S
C574 C575 1.391 . S
C574 C578 1.397 . S
C575 C570 1.391 . S
C575 C574 1.391 . S
C575 C576 1.399 . S
C576 C575 1.399 . S
C576 C577 1.396 . S
C576 C579 1.453 . S
C576 C580 1.680 . S
C577 C567 1.723 . S
C577 C576 1.396 . S
C577 C578 1.394 . S
C578 C548 1.723 . S
C578 C574 1.397 . S
C578 C577 1.394 . S
C579 H551 0.982 . S
C579 H555 0.979 . S
C579 H556 0.977 . S
C579 C576 1.453 . S
C580 H552 0.980 1_565 S
C580 H553 0.981 1_565 S
C580 H554 0.984 1_565 S
C580 C576 1.680 . S
H581 C599 0.948 . S
H582 C540 0.948 . S
H583 C558 0.979 . S
H584 C558 0.980 . S
H585 C558 0.983 . S
H586 C557 0.982 . S
H587 C557 0.979 . S
H588 C557 0.977 . S
H589 C559 0.948 . S
H590 C561 0.947 . S
H591 C562 0.948 . S
H592 C568 0.982 . S
H593 C568 0.979 . S
H594 C568 0.977 . S
H595 C569 0.979 . S
H596 C569 0.980 . S
H597 C569 0.983 . S
H598 C542 0.947 . S
C599 C542 1.392 . S
C599 C543 1.419 . S
C599 H581 0.948 . S
C600 C601 1.391 . S
C600 C604 1.391 . S
C600 H642 0.948 . S
C601 C600 1.391 . S
C601 C602 1.391 . S
C602 C601 1.391 . S
C602 H658 0.947 . S
C602 C659 1.392 . S
C603 C604 1.391 . S
C603 C607 1.397 . S
C603 C659 1.419 . S
C604 C600 1.391 . S
C604 C603 1.391 . S
C604 C605 1.399 . S
C605 C604 1.399 . S
C605 C608 1.396 . S
C605 C617 1.453 . S
C605 C618 1.684 . S
H606 C630 0.948 . S
C607 C603 1.397 . S
C607 C608 1.394 . S
C607 C626 1.723 . S
C608 C605 1.396 . S
C608 C607 1.394 . S
C608 C638 1.723 . S
H609 C632 0.947 . S
H610 C633 0.948 . S
H611 C639 0.982 . S
H612 C640 0.979 . S
H613 C640 0.980 . S
H614 C640 0.983 . S
H615 C639 0.979 . S
H616 C639 0.977 . S
C617 C605 1.453 . S
C617 H646 0.982 . S
C617 H647 0.979 . S
C617 H648 0.977 . S
C618 C605 1.684 . S
C618 H643 0.979 . S
C618 H644 0.980 . S
C618 H645 0.983 . S
C619 C620 1.391 . S
C619 C624 1.391 . S
C619 H649 0.948 . S
C620 C619 1.391 . S
C620 C621 1.391 . S
C621 C620 1.391 . S
C621 C622 1.392 . S
C621 H650 0.947 . S
C622 C621 1.392 . S
C622 C623 1.419 . S
C622 H651 0.948 . S
C623 C622 1.419 . S
C623 C624 1.391 . S
C623 C627 1.397 . S
C624 C619 1.391 . S
C624 C623 1.391 . S
C624 C625 1.399 . S
C625 C624 1.399 . S
C625 C626 1.396 . S
C625 C628 1.453 . S
C625 C629 1.684 . S
C626 C607 1.723 . S
C626 C625 1.396 . S
C626 C627 1.394 . S
C627 C623 1.397 . S
C627 C626 1.394 . S
C627 C637 1.723 . S
C628 C625 1.453 . S
C628 H652 0.982 . S
C628 H653 0.979 . S
C628 H654 0.977 . S
C629 C625 1.684 . S
C629 H655 0.979 . S
C629 H656 0.980 . S
C629 H657 0.983 . S
C630 H606 0.948 . S
C630 C631 1.391 . S
C630 C635 1.391 . S
C631 C630 1.391 . S
C631 C632 1.391 . S
C632 H609 0.947 . S
C632 C631 1.391 . S
C632 C633 1.392 . S
C633 H610 0.948 . S
C633 C632 1.392 . S
C633 C634 1.419 . S
C634 C633 1.419 . S
C634 C635 1.391 . S
C634 C638 1.397 . S
C635 C630 1.391 . S
C635 C634 1.391 . S
C635 C636 1.399 . S
C636 C635 1.399 . S
C636 C637 1.396 . S
C636 C639 1.453 . S
C636 C640 1.684 . S
C637 C627 1.723 . S
C637 C636 1.396 . S
C637 C638 1.394 . S
C638 C608 1.723 . S
C638 C634 1.397 . S
C638 C637 1.394 . S
C639 H611 0.982 . S
C639 H615 0.979 . S
C639 H616 0.977 . S
C639 C636 1.453 . S
C640 H612 0.979 . S
C640 H613 0.980 . S
C640 H614 0.983 . S
C640 C636 1.684 . S
H641 C659 0.948 . S
H642 C600 0.948 . S
H643 C618 0.979 . S
H644 C618 0.980 . S
H645 C618 0.983 . S
H646 C617 0.982 . S
H647 C617 0.979 . S
H648 C617 0.977 . S
H649 C619 0.948 . S
H650 C621 0.947 . S
H651 C622 0.948 . S
H652 C628 0.982 . S
H653 C628 0.979 . S
H654 C628 0.977 . S
H655 C629 0.979 . S
H656 C629 0.980 . S
H657 C629 0.983 . S
H658 C602 0.947 . S
C659 C602 1.392 . S
C659 C603 1.419 . S
C659 H641 0.948 . S
C660 C661 1.391 . S
C660 C664 1.391 . S
C660 H702 0.948 . S
C661 C660 1.391 . S
C661 C662 1.391 . S
C662 C661 1.391 . S
C662 H718 0.947 . S
C662 C719 1.392 . S
C663 C664 1.391 . S
C663 C667 1.397 . S
C663 C719 1.419 . S
C664 C660 1.391 . S
C664 C663 1.391 . S
C664 C665 1.399 . S
C665 C664 1.399 . S
C665 C668 1.396 . S
C665 C677 1.453 . S
C665 C678 1.684 . S
H666 C690 0.948 . S
C667 C663 1.397 . S
C667 C668 1.394 . S
C667 C686 1.723 . S
C668 C665 1.396 . S
C668 C667 1.394 . S
C668 C698 1.723 . S
H669 C692 0.947 . S
H670 C693 0.948 . S
H671 C699 0.982 . S
H672 C700 0.979 . S
H673 C700 0.980 . S
H674 C700 0.983 . S
H675 C699 0.979 . S
H676 C699 0.977 . S
C677 C665 1.453 . S
C677 H706 0.982 . S
C677 H707 0.979 . S
C677 H708 0.977 . S
C678 C665 1.684 . S
C678 H703 0.979 . S
C678 H704 0.980 . S
C678 H705 0.983 . S
C679 C680 1.391 . S
C679 C684 1.391 . S
C679 H709 0.948 . S
C680 C679 1.391 . S
C680 C681 1.391 . S
C681 C680 1.391 . S
C681 C682 1.392 . S
C681 H710 0.947 . S
C682 C681 1.392 . S
C682 C683 1.419 . S
C682 H711 0.948 . S
C683 C682 1.419 . S
C683 C684 1.391 . S
C683 C687 1.397 . S
C684 C679 1.391 . S
C684 C683 1.391 . S
C684 C685 1.399 . S
C685 C684 1.399 . S
C685 C686 1.396 . S
C685 C688 1.453 . S
C685 C689 1.684 . S
C686 C667 1.723 . S
C686 C685 1.396 . S
C686 C687 1.394 . S
C687 C683 1.397 . S
C687 C686 1.394 . S
C687 C697 1.723 . S
C688 C685 1.453 . S
C688 H712 0.982 . S
C688 H713 0.979 . S
C688 H714 0.977 . S
C689 C685 1.684 . S
C689 H715 0.979 . S
C689 H716 0.980 . S
C689 H717 0.983 . S
C690 H666 0.948 . S
C690 C691 1.391 . S
C690 C695 1.391 . S
C691 C690 1.391 . S
C691 C692 1.391 . S
C692 H669 0.947 . S
C692 C691 1.391 . S
C692 C693 1.392 . S
C693 H670 0.948 . S
C693 C692 1.392 . S
C693 C694 1.419 . S
C694 C693 1.419 . S
C694 C695 1.391 . S
C694 C698 1.397 . S
C695 C690 1.391 . S
C695 C694 1.391 . S
C695 C696 1.399 . S
C696 C695 1.399 . S
C696 C697 1.396 . S
C696 C699 1.453 . S
C696 C700 1.684 . S
C697 C687 1.723 . S
C697 C696 1.396 . S
C697 C698 1.394 . S
C698 C668 1.723 . S
C698 C694 1.397 . S
C698 C697 1.394 . S
C699 H671 0.982 . S
C699 H675 0.979 . S
C699 H676 0.977 . S
C699 C696 1.453 . S
C700 H672 0.979 . S
C700 H673 0.980 . S
C700 H674 0.983 . S
C700 C696 1.684 . S
H701 C719 0.948 . S
H702 C660 0.948 . S
H703 C678 0.979 . S
H704 C678 0.980 . S
H705 C678 0.983 . S
H706 C677 0.982 . S
H707 C677 0.979 . S
H708 C677 0.977 . S
H709 C679 0.948 . S
H710 C681 0.947 . S
H711 C682 0.948 . S
H712 C688 0.982 . S
H713 C688 0.979 . S
H714 C688 0.977 . S
H715 C689 0.979 . S
H716 C689 0.980 . S
H717 C689 0.983 . S
H718 C662 0.947 . S
C719 C662 1.392 . S
C719 C663 1.419 . S
C719 H701 0.948 . S
C720 C721 1.391 . S
C720 C724 1.391 . S
C720 H762 0.948 . S
C721 C720 1.391 . S
C721 C722 1.391 . S
C722 C721 1.391 . S
C722 H778 0.947 . S
C722 C779 1.392 . S
C723 C724 1.391 . S
C723 C727 1.397 . S
C723 C779 1.419 . S
C724 C720 1.391 . S
C724 C723 1.391 . S
C724 C725 1.399 . S
C725 C724 1.399 . S
C725 C728 1.396 . S
C725 C737 1.453 . S
C725 C738 1.684 . S
H726 C750 0.948 . S
C727 C723 1.397 . S
C727 C728 1.394 . S
C727 C746 1.723 . S
C728 C725 1.396 . S
C728 C727 1.394 . S
C728 C758 1.723 . S
H729 C752 0.947 . S
H730 C753 0.948 . S
H731 C759 0.982 . S
H732 C760 0.979 . S
H733 C760 0.980 . S
H734 C760 0.983 . S
H735 C759 0.979 . S
H736 C759 0.977 . S
C737 C725 1.453 . S
C737 H766 0.982 . S
C737 H767 0.979 . S
C737 H768 0.977 . S
C738 C725 1.684 . S
C738 H763 0.979 . S
C738 H764 0.980 . S
C738 H765 0.983 . S
C739 C740 1.391 . S
C739 C744 1.391 . S
C739 H769 0.948 . S
C740 C739 1.391 . S
C740 C741 1.391 . S
C741 C740 1.391 . S
C741 C742 1.392 . S
C741 H770 0.947 . S
C742 C741 1.392 . S
C742 C743 1.419 . S
C742 H771 0.948 . S
C743 C742 1.419 . S
C743 C744 1.391 . S
C743 C747 1.397 . S
C744 C739 1.391 . S
C744 C743 1.391 . S
C744 C745 1.399 . S
C745 C744 1.399 . S
C745 C746 1.396 . S
C745 C748 1.453 . S
C745 C749 1.684 . S
C746 C727 1.723 . S
C746 C745 1.396 . S
C746 C747 1.394 . S
C747 C743 1.397 . S
C747 C746 1.394 . S
C747 C757 1.723 . S
C748 C745 1.453 . S
C748 H772 0.982 . S
C748 H773 0.979 . S
C748 H774 0.977 . S
C749 C745 1.684 . S
C749 H775 0.979 . S
C749 H776 0.980 . S
C749 H777 0.983 . S
C750 H726 0.948 . S
C750 C751 1.391 . S
C750 C755 1.391 . S
C751 C750 1.391 . S
C751 C752 1.391 . S
C752 H729 0.947 . S
C752 C751 1.391 . S
C752 C753 1.392 . S
C753 H730 0.948 . S
C753 C752 1.392 . S
C753 C754 1.419 . S
C754 C753 1.419 . S
C754 C755 1.391 . S
C754 C758 1.397 . S
C755 C750 1.391 . S
C755 C754 1.391 . S
C755 C756 1.399 . S
C756 C755 1.399 . S
C756 C757 1.396 . S
C756 C759 1.453 . S
C756 C760 1.684 . S
C757 C747 1.723 . S
C757 C756 1.396 . S
C757 C758 1.394 . S
C758 C728 1.723 . S
C758 C754 1.397 . S
C758 C757 1.394 . S
C759 H731 0.982 . S
C759 H735 0.979 . S
C759 H736 0.977 . S
C759 C756 1.453 . S
C760 H732 0.979 . S
C760 H733 0.980 . S
C760 H734 0.983 . S
C760 C756 1.684 . S
H761 C779 0.948 . S
H762 C720 0.948 . S
H763 C738 0.979 . S
H764 C738 0.980 . S
H765 C738 0.983 . S
H766 C737 0.982 . S
H767 C737 0.979 . S
H768 C737 0.977 . S
H769 C739 0.948 . S
H770 C741 0.947 . S
H771 C742 0.948 . S
H772 C748 0.982 . S
H773 C748 0.979 . S
H774 C748 0.977 . S
H775 C749 0.979 . S
H776 C749 0.980 . S
H777 C749 0.983 . S
H778 C722 0.947 . S
C779 C722 1.392 . S
C779 C723 1.419 . S
C779 H761 0.948 . S
C780 C781 1.391 . S
C780 C784 1.391 . S
C780 H822 0.948 1_556 S
C781 C780 1.391 . S
C781 C782 1.391 . S
C782 C781 1.391 . S
C782 H838 0.947 . S
C782 C839 1.392 . S
C783 C784 1.391 . S
C783 C787 1.397 . S
C783 C839 1.419 . S
C784 C780 1.391 . S
C784 C783 1.391 . S
C784 C785 1.399 . S
C785 C784 1.399 . S
C785 C788 1.396 . S
C785 C797 1.453 . S
C785 C798 1.684 . S
H786 C810 0.948 . S
C787 C783 1.397 . S
C787 C788 1.394 . S
C787 C806 1.723 . S
C788 C785 1.396 . S
C788 C787 1.394 . S
C788 C818 1.723 . S
H789 C812 0.947 . S
H790 C813 0.948 . S
H791 C819 0.982 . S
H792 C820 0.979 . S
H793 C820 0.980 . S
H794 C820 0.983 . S
H795 C819 0.979 . S
H796 C819 0.977 . S
C797 C785 1.453 . S
C797 H826 0.982 1_556 S
C797 H827 0.979 1_556 S
C797 H828 0.977 . S
C798 C785 1.684 . S
C798 H823 0.979 . S
C798 H824 0.980 . S
C798 H825 0.983 . S
C799 C800 1.391 . S
C799 C804 1.391 . S
C799 H829 0.948 . S
C800 C799 1.391 . S
C800 C801 1.391 . S
C801 C800 1.391 . S
C801 C802 1.392 . S
C801 H830 0.947 . S
C802 C801 1.392 . S
C802 C803 1.419 . S
C802 H831 0.948 . S
C803 C802 1.419 . S
C803 C804 1.391 . S
C803 C807 1.397 . S
C804 C799 1.391 . S
C804 C803 1.391 . S
C804 C805 1.399 . S
C805 C804 1.399 . S
C805 C806 1.396 . S
C805 C808 1.453 . S
C805 C809 1.684 . S
C806 C787 1.723 . S
C806 C805 1.396 . S
C806 C807 1.394 . S
C807 C803 1.397 . S
C807 C806 1.394 . S
C807 C817 1.723 . S
C808 C805 1.453 . S
C808 H832 0.982 . S
C808 H833 0.979 . S
C808 H834 0.977 . S
C809 C805 1.684 . S
C809 H835 0.979 . S
C809 H836 0.980 . S
C809 H837 0.983 . S
C810 H786 0.948 . S
C810 C811 1.391 . S
C810 C815 1.391 . S
C811 C810 1.391 . S
C811 C812 1.391 . S
C812 H789 0.947 . S
C812 C811 1.391 . S
C812 C813 1.392 . S
C813 H790 0.948 . S
C813 C812 1.392 . S
C813 C814 1.419 . S
C814 C813 1.419 . S
C814 C815 1.391 . S
C814 C818 1.397 . S
C815 C810 1.391 . S
C815 C814 1.391 . S
C815 C816 1.399 . S
C816 C815 1.399 . S
C816 C817 1.396 . S
C816 C819 1.453 . S
C816 C820 1.684 . S
C817 C807 1.723 . S
C817 C816 1.396 . S
C817 C818 1.394 . S
C818 C788 1.723 . S
C818 C814 1.397 . S
C818 C817 1.394 . S
C819 H791 0.982 . S
C819 H795 0.979 . S
C819 H796 0.977 . S
C819 C816 1.453 . S
C820 H792 0.979 . S
C820 H793 0.980 . S
C820 H794 0.983 . S
C820 C816 1.684 . S
H821 C839 0.948 . S
H822 C780 0.948 1_554 S
H823 C798 0.979 . S
H824 C798 0.980 . S
H825 C798 0.983 . S
H826 C797 0.982 1_554 S
H827 C797 0.979 1_554 S
H828 C797 0.977 . S
H829 C799 0.948 . S
H830 C801 0.947 . S
H831 C802 0.948 . S
H832 C808 0.982 . S
H833 C808 0.979 . S
H834 C808 0.977 . S
H835 C809 0.979 . S
H836 C809 0.980 . S
H837 C809 0.983 . S
H838 C782 0.947 . S
C839 C782 1.392 . S
C839 C783 1.419 . S
C839 H821 0.948 . S
C840 C841 1.391 . S
C840 C844 1.391 . S
C840 H882 0.948 . S
C841 C840 1.391 . S
C841 C842 1.391 . S
C842 C841 1.391 . S
C842 H898 0.947 . S
C842 C899 1.392 . S
C843 C844 1.391 . S
C843 C847 1.397 . S
C843 C899 1.419 . S
C844 C840 1.391 . S
C844 C843 1.391 . S
C844 C845 1.399 . S
C845 C844 1.399 . S
C845 C848 1.396 . S
C845 C857 1.453 . S
C845 C858 1.684 . S
H846 C870 0.948 . S
C847 C843 1.397 . S
C847 C848 1.394 . S
C847 C866 1.723 . S
C848 C845 1.396 . S
C848 C847 1.394 . S
C848 C878 1.723 . S
H849 C872 0.947 . S
H850 C873 0.948 . S
H851 C879 0.982 . S
H852 C880 0.979 . S
H853 C880 0.980 . S
H854 C880 0.983 . S
H855 C879 0.979 . S
H856 C879 0.977 . S
C857 C845 1.453 . S
C857 H886 0.982 . S
C857 H887 0.979 . S
C857 H888 0.977 . S
C858 C845 1.684 . S
C858 H883 0.979 . S
C858 H884 0.980 . S
C858 H885 0.983 . S
C859 C860 1.391 . S
C859 C864 1.391 . S
C859 H889 0.948 . S
C860 C859 1.391 . S
C860 C861 1.391 . S
C861 C860 1.391 . S
C861 C862 1.392 . S
C861 H890 0.947 . S
C862 C861 1.392 . S
C862 C863 1.419 . S
C862 H891 0.948 . S
C863 C862 1.419 . S
C863 C864 1.391 . S
C863 C867 1.397 . S
C864 C859 1.391 . S
C864 C863 1.391 . S
C864 C865 1.399 . S
C865 C864 1.399 . S
C865 C866 1.396 . S
C865 C868 1.453 . S
C865 C869 1.684 . S
C866 C847 1.723 . S
C866 C865 1.396 . S
C866 C867 1.394 . S
C867 C863 1.397 . S
C867 C866 1.394 . S
C867 C877 1.723 . S
C868 C865 1.453 . S
C868 H892 0.982 . S
C868 H893 0.979 . S
C868 H894 0.977 . S
C869 C865 1.684 . S
C869 H895 0.979 . S
C869 H896 0.980 . S
C869 H897 0.983 . S
C870 H846 0.948 . S
C870 C871 1.391 . S
C870 C875 1.391 . S
C871 C870 1.391 . S
C871 C872 1.391 . S
C872 H849 0.947 . S
C872 C871 1.391 . S
C872 C873 1.392 . S
C873 H850 0.948 . S
C873 C872 1.392 . S
C873 C874 1.419 . S
C874 C873 1.419 . S
C874 C875 1.391 . S
C874 C878 1.397 . S
C875 C870 1.391 . S
C875 C874 1.391 . S
C875 C876 1.399 . S
C876 C875 1.399 . S
C876 C877 1.396 . S
C876 C879 1.453 . S
C876 C880 1.684 . S
C877 C867 1.723 . S
C877 C876 1.396 . S
C877 C878 1.394 . S
C878 C848 1.723 . S
C878 C874 1.397 . S
C878 C877 1.394 . S
C879 H851 0.982 . S
C879 H855 0.979 . S
C879 H856 0.977 . S
C879 C876 1.453 . S
C880 H852 0.979 . S
C880 H853 0.980 . S
C880 H854 0.983 . S
C880 C876 1.684 . S
H881 C899 0.948 . S
H882 C840 0.948 . S
H883 C858 0.979 . S
H884 C858 0.980 . S
H885 C858 0.983 . S
H886 C857 0.982 . S
H887 C857 0.979 . S
H888 C857 0.977 . S
H889 C859 0.948 . S
H890 C861 0.947 . S
H891 C862 0.948 . S
H892 C868 0.982 . S
H893 C868 0.979 . S
H894 C868 0.977 . S
H895 C869 0.979 . S
H896 C869 0.980 . S
H897 C869 0.983 . S
H898 C842 0.947 . S
C899 C842 1.392 . S
C899 C843 1.419 . S
C899 H881 0.948 . S
C900 C901 1.391 . S
C900 C904 1.391 . S
C900 H942 0.948 . S
C901 C900 1.391 . S
C901 C902 1.391 . S
C902 C901 1.391 . S
C902 H958 0.947 1_545 S
C902 C959 1.392 . S
C903 C904 1.391 . S
C903 C907 1.397 . S
C903 C959 1.419 . S
C904 C900 1.391 . S
C904 C903 1.391 . S
C904 C905 1.399 . S
C905 C904 1.399 . S
C905 C908 1.396 . S
C905 C917 1.453 . S
C905 C918 1.684 . S
H906 C930 0.948 . S
C907 C903 1.397 . S
C907 C908 1.394 . S
C907 C926 1.723 . S
C908 C905 1.396 . S
C908 C907 1.394 . S
C908 C938 1.723 . S
H909 C932 0.947 1_554 S
H910 C933 0.948 . S
H911 C939 0.982 . S
H912 C940 0.979 . S
H913 C940 0.980 . S
H914 C940 0.983 . S
H915 C939 0.979 . S
H916 C939 0.977 . S
C917 C905 1.453 . S
C917 H946 0.982 . S
C917 H947 0.979 . S
C917 H948 0.977 . S
C918 C905 1.684 . S
C918 H943 0.979 . S
C918 H944 0.980 . S
C918 H945 0.983 . S
C919 C920 1.391 . S
C919 C924 1.391 . S
C919 H949 0.948 . S
C920 C919 1.391 . S
C920 C921 1.391 . S
C921 C920 1.391 . S
C921 C922 1.392 . S
C921 H950 0.947 . S
C922 C921 1.392 . S
C922 C923 1.419 . S
C922 H951 0.948 . S
C923 C922 1.419 . S
C923 C924 1.391 . S
C923 C927 1.397 . S
C924 C919 1.391 . S
C924 C923 1.391 . S
C924 C925 1.399 . S
C925 C924 1.399 . S
C925 C926 1.396 . S
C925 C928 1.453 . S
C925 C929 1.684 . S
C926 C907 1.723 . S
C926 C925 1.396 . S
C926 C927 1.394 . S
C927 C923 1.397 . S
C927 C926 1.394 . S
C927 C937 1.723 . S
C928 C925 1.453 . S
C928 H952 0.982 . S
C928 H953 0.979 . S
C928 H954 0.977 . S
C929 C925 1.684 . S
C929 H955 0.979 . S
C929 H956 0.980 . S
C929 H957 0.983 . S
C930 H906 0.948 . S
C930 C931 1.391 . S
C930 C935 1.391 . S
C931 C930 1.391 . S
C931 C932 1.391 . S
C932 H909 0.947 1_556 S
C932 C931 1.391 . S
C932 C933 1.392 . S
C933 H910 0.948 . S
C933 C932 1.392 . S
C933 C934 1.419 . S
C934 C933 1.419 . S
C934 C935 1.391 . S
C934 C938 1.397 . S
C935 C930 1.391 . S
C935 C934 1.391 . S
C935 C936 1.399 . S
C936 C935 1.399 . S
C936 C937 1.396 . S
C936 C939 1.453 . S
C936 C940 1.684 . S
C937 C927 1.723 . S
C937 C936 1.396 . S
C937 C938 1.394 . S
C938 C908 1.723 . S
C938 C934 1.397 . S
C938 C937 1.394 . S
C939 H911 0.982 . S
C939 H915 0.979 . S
C939 H916 0.977 . S
C939 C936 1.453 . S
C940 H912 0.979 . S
C940 H913 0.980 . S
C940 H914 0.983 . S
C940 C936 1.684 . S
H941 C959 0.948 . S
H942 C900 0.948 . S
H943 C918 0.979 . S
H944 C918 0.980 . S
H945 C918 0.983 . S
H946 C917 0.982 . S
H947 C917 0.979 . S
H948 C917 0.977 . S
H949 C919 0.948 . S
H950 C921 0.947 . S
H951 C922 0.948 . S
H952 C928 0.982 . S
H953 C928 0.979 . S
H954 C928 0.977 . S
H955 C929 0.979 . S
H956 C929 0.980 . S
H957 C929 0.983 . S
H958 C902 0.947 1_565 S
C959 C902 1.392 . S
C959 C903 1.419 . S
C959 H941 0.948 . S
Zn960 O963 2.056 . S
Zn960 O965 2.032 1_554 S
Zn960 O970 2.034 1_554 S
Zn961 O962 1.962 . S
Zn961 O964 1.986 . S
Zn961 O966 1.996 . S
Zn961 O969 1.943 1_554 S
O962 Zn961 1.962 . S
O962 C967 1.254 . S
O963 Zn960 2.056 . S
O963 C967 1.269 . S
O964 Zn961 1.986 . S
O964 C971 1.262 . S
O965 Zn960 2.032 1_556 S
O965 C973 1.260 . S
O966 Zn961 1.996 . S
O966 C973 1.257 1_554 S
C967 O962 1.254 . S
C967 O963 1.269 . S
C968 O969 1.249 . S
C968 O970 1.270 . S
O969 Zn961 1.943 1_556 S
O969 C968 1.249 . S
O970 Zn960 2.034 1_556 S
O970 C968 1.270 . S
C971 O964 1.262 . S
C971 O972 1.232 . S
O972 C971 1.232 . S
C973 O965 1.260 . S
C973 O966 1.257 1_556 S
Zn974 O977 2.031 . S
Zn974 O979 2.049 . S
Zn974 O984 2.067 . S
Zn975 O976 1.962 . S
Zn975 O978 1.986 . S
Zn975 O980 1.996 . S
Zn975 O983 1.943 . S
O976 Zn975 1.962 . S
O976 C981 1.254 . S
O977 Zn974 2.031 . S
O977 C981 1.269 . S
O978 Zn975 1.986 . S
O978 C985 1.262 . S
O979 Zn974 2.049 . S
O979 C987 1.260 . S
O980 Zn975 1.996 . S
O980 C987 1.257 . S
C981 O976 1.254 . S
C981 O977 1.269 . S
C982 O983 1.249 . S
C982 O984 1.270 . S
O983 Zn975 1.943 . S
O983 C982 1.249 . S
O984 Zn974 2.067 . S
O984 C982 1.270 . S
C985 O978 1.262 . S
C985 O986 1.232 . S
O986 C985 1.232 . S
C987 O979 1.260 . S
C987 O980 1.257 . S
Zn988 O991 2.031 . S
Zn988 O993 2.049 . S
Zn988 O998 2.067 . S
Zn989 O990 1.962 . S
Zn989 O992 1.986 . S
Zn989 O994 1.996 1_554 S
Zn989 O997 1.943 . S
O990 Zn989 1.962 . S
O990 C995 1.254 . S
O991 Zn988 2.031 . S
O991 C995 1.269 1_556 S
O992 Zn989 1.986 . S
O992 C999 1.262 . S
O993 Zn988 2.049 . S
O993 C1001 1.260 . S
O994 Zn989 1.996 1_556 S
O994 C1001 1.257 . S
C995 O990 1.254 . S
C995 O991 1.269 1_554 S
C996 O997 1.249 1_556 S
C996 O998 1.270 . S
O997 Zn989 1.943 . S
O997 C996 1.249 1_554 S
O998 Zn988 2.067 . S
O998 C996 1.270 . S
C999 O992 1.262 . S
C999 O1000 1.232 . S
O1000 C999 1.232 . S
C1001 O993 1.260 . S
C1001 O994 1.257 . S
Zn1002 O1005 2.055 . S
Zn1002 O1007 2.032 1_545 S
Zn1002 O1012 2.034 1_545 S
Zn1003 O1004 1.962 . S
Zn1003 O1006 1.986 . S
Zn1003 O1008 1.996 . S
Zn1003 O1011 1.943 1_545 S
O1004 Zn1003 1.962 . S
O1004 C1009 1.254 . S
O1005 Zn1002 2.055 . S
O1005 C1009 1.269 . S
O1006 Zn1003 1.986 . S
O1006 C1013 1.262 . S
O1007 Zn1002 2.032 1_565 S
O1007 C1015 1.260 . S
O1008 Zn1003 1.996 . S
O1008 C1015 1.257 1_545 S
C1009 O1004 1.254 . S
C1009 O1005 1.269 . S
C1010 O1011 1.249 . S
C1010 O1012 1.270 . S
O1011 Zn1003 1.943 1_565 S
O1011 C1010 1.249 . S
O1012 Zn1002 2.034 1_565 S
O1012 C1010 1.270 . S
C1013 O1006 1.262 . S
C1013 O1014 1.232 . S
O1014 C1013 1.232 . S
C1015 O1007 1.260 . S
C1015 O1008 1.257 1_565 S
Zn1016 O1019 2.031 . S
Zn1016 O1021 2.049 . S
Zn1016 O1026 2.067 . S
Zn1017 O1018 1.962 . S
Zn1017 O1020 1.986 . S
Zn1017 O1022 1.996 . S
Zn1017 O1025 1.943 . S
O1018 Zn1017 1.962 . S
O1018 C1023 1.254 . S
O1019 Zn1016 2.031 . S
O1019 C1023 1.269 . S
O1020 Zn1017 1.986 . S
O1020 C1027 1.262 . S
O1021 Zn1016 2.049 . S
O1021 C1029 1.260 . S
O1022 Zn1017 1.996 . S
O1022 C1029 1.257 . S
C1023 O1018 1.254 . S
C1023 O1019 1.269 . S
C1024 O1025 1.249 . S
C1024 O1026 1.270 . S
O1025 Zn1017 1.943 . S
O1025 C1024 1.249 . S
O1026 Zn1016 2.067 . S
O1026 C1024 1.270 . S
C1027 O1020 1.262 . S
C1027 O1028 1.232 . S
O1028 C1027 1.232 . S
C1029 O1021 1.260 . S
C1029 O1022 1.257 . S
Zn1030 O1033 2.031 . S
Zn1030 O1035 2.049 . S
Zn1030 O1040 2.067 . S
Zn1031 O1032 1.962 . S
Zn1031 O1034 1.986 . S
Zn1031 O1036 1.996 . S
Zn1031 O1039 1.943 . S
O1032 Zn1031 1.962 . S
O1032 C1037 1.254 . S
O1033 Zn1030 2.031 . S
O1033 C1037 1.269 . S
O1034 Zn1031 1.986 . S
O1034 C1041 1.262 . S
O1035 Zn1030 2.049 . S
O1035 C1043 1.260 . S
O1036 Zn1031 1.996 . S
O1036 C1043 1.257 . S
C1037 O1032 1.254 . S
C1037 O1033 1.269 . S
C1038 O1039 1.249 . S
C1038 O1040 1.270 . S
O1039 Zn1031 1.943 . S
O1039 C1038 1.249 . S
O1040 Zn1030 2.067 . S
O1040 C1038 1.270 . S
C1041 O1034 1.262 . S
C1041 O1042 1.232 . S
O1042 C1041 1.232 . S
C1043 O1035 1.260 . S
C1043 O1036 1.257 . S
Zn1044 O1047 2.031 . S
Zn1044 O1049 2.049 . S
Zn1044 O1054 2.067 . S
Zn1045 O1046 1.962 . S
Zn1045 O1048 1.986 . S
Zn1045 O1050 1.996 . S
Zn1045 O1053 1.943 . S
O1046 Zn1045 1.962 . S
O1046 C1051 1.254 . S
O1047 Zn1044 2.031 . S
O1047 C1051 1.269 . S
O1048 Zn1045 1.986 . S
O1048 C1055 1.262 . S
O1049 Zn1044 2.049 . S
O1049 C1057 1.260 . S
O1050 Zn1045 1.996 . S
O1050 C1057 1.257 . S
C1051 O1046 1.254 . S
C1051 O1047 1.269 . S
C1052 O1053 1.249 . S
C1052 O1054 1.270 . S
O1053 Zn1045 1.943 . S
O1053 C1052 1.249 . S
O1054 Zn1044 2.067 . S
O1054 C1052 1.270 . S
C1055 O1048 1.262 . S
C1055 O1056 1.232 . S
O1056 C1055 1.232 . S
C1057 O1049 1.260 . S
C1057 O1050 1.257 . S
Zn1058 O1061 2.031 . S
Zn1058 O1063 2.049 . S
Zn1058 O1068 2.067 . S
Zn1059 O1060 1.962 . S
Zn1059 O1062 1.986 . S
Zn1059 O1064 1.996 1_545 S
Zn1059 O1067 1.943 . S
O1060 Zn1059 1.962 . S
O1060 C1065 1.254 . S
O1061 Zn1058 2.031 . S
O1061 C1065 1.269 1_565 S
O1062 Zn1059 1.986 . S
O1062 C1069 1.262 . S
O1063 Zn1058 2.049 . S
O1063 C1071 1.260 . S
O1064 Zn1059 1.996 1_565 S
O1064 C1071 1.257 . S
C1065 O1060 1.254 . S
C1065 O1061 1.269 1_545 S
C1066 O1067 1.249 1_565 S
C1066 O1068 1.270 . S
O1067 Zn1059 1.943 . S
O1067 C1066 1.249 1_545 S
O1068 Zn1058 2.067 . S
O1068 C1066 1.270 . S
C1069 O1062 1.262 . S
C1069 O1070 1.232 . S
O1070 C1069 1.232 . S
C1071 O1063 1.260 . S
C1071 O1064 1.257 . S
Zn1072 O1075 2.056 . S
Zn1072 O1077 2.032 1_455 S
Zn1072 O1082 2.034 1_455 S
Zn1073 O1074 1.962 . S
Zn1073 O1076 1.986 . S
Zn1073 O1078 1.996 . S
Zn1073 O1081 1.943 1_455 S
O1074 Zn1073 1.962 . S
O1074 C1079 1.254 . S
O1075 Zn1072 2.056 . S
O1075 C1079 1.269 . S
O1076 Zn1073 1.986 . S
O1076 C1083 1.262 . S
O1077 Zn1072 2.032 1_655 S
O1077 C1085 1.260 . S
O1078 Zn1073 1.996 . S
O1078 C1085 1.257 1_455 S
C1079 O1074 1.254 . S
C1079 O1075 1.269 . S
C1080 O1081 1.249 . S
C1080 O1082 1.270 . S
O1081 Zn1073 1.943 1_655 S
O1081 C1080 1.249 . S
O1082 Zn1072 2.034 1_655 S
O1082 C1080 1.270 . S
C1083 O1076 1.262 . S
C1083 O1084 1.232 . S
O1084 C1083 1.232 . S
C1085 O1077 1.260 . S
C1085 O1078 1.257 1_655 S
Zn1086 O1089 2.031 . S
Zn1086 O1091 2.049 . S
Zn1086 O1096 2.067 . S
Zn1087 O1088 1.962 . S
Zn1087 O1090 1.986 . S
Zn1087 O1092 1.996 . S
Zn1087 O1095 1.943 . S
O1088 Zn1087 1.962 . S
O1088 C1093 1.254 . S
O1089 Zn1086 2.031 . S
O1089 C1093 1.269 . S
O1090 Zn1087 1.986 . S
O1090 C1097 1.262 . S
O1091 Zn1086 2.049 . S
O1091 C1099 1.260 . S
O1092 Zn1087 1.996 . S
O1092 C1099 1.257 . S
C1093 O1088 1.254 . S
C1093 O1089 1.269 . S
C1094 O1095 1.249 . S
C1094 O1096 1.270 . S
O1095 Zn1087 1.943 . S
O1095 C1094 1.249 . S
O1096 Zn1086 2.067 . S
O1096 C1094 1.270 . S
C1097 O1090 1.262 . S
C1097 O1098 1.232 . S
O1098 C1097 1.232 . S
C1099 O1091 1.260 . S
C1099 O1092 1.257 . S
Zn1100 O1103 2.031 . S
Zn1100 O1105 2.049 . S
Zn1100 O1110 2.067 . S
Zn1101 O1102 1.962 . S
Zn1101 O1104 1.986 . S
Zn1101 O1106 1.996 1_455 S
Zn1101 O1109 1.943 . S
O1102 Zn1101 1.962 . S
O1102 C1107 1.254 . S
O1103 Zn1100 2.031 . S
O1103 C1107 1.269 1_655 S
O1104 Zn1101 1.986 . S
O1104 C1111 1.262 . S
O1105 Zn1100 2.049 . S
O1105 C1113 1.260 . S
O1106 Zn1101 1.996 1_655 S
O1106 C1113 1.257 . S
C1107 O1102 1.254 . S
C1107 O1103 1.269 1_455 S
C1108 O1109 1.249 1_655 S
C1108 O1110 1.270 . S
O1109 Zn1101 1.943 . S
O1109 C1108 1.249 1_455 S
O1110 Zn1100 2.067 . S
O1110 C1108 1.270 . S
C1111 O1104 1.262 . S
C1111 O1112 1.232 . S
O1112 C1111 1.232 . S
C1113 O1105 1.260 . S
C1113 O1106 1.257 . S
Zn1114 O1117 2.031 . S
Zn1114 O1119 2.049 . S
Zn1114 O1124 2.067 . S
Zn1115 O1116 1.962 . S
Zn1115 O1118 1.986 . S
Zn1115 O1120 1.996 . S
Zn1115 O1123 1.943 . S
O1116 Zn1115 1.962 . S
O1116 C1121 1.254 . S
O1117 Zn1114 2.031 . S
O1117 C1121 1.269 . S
O1118 Zn1115 1.986 . S
O1118 C1125 1.262 . S
O1119 Zn1114 2.049 . S
O1119 C1127 1.260 . S
O1120 Zn1115 1.996 . S
O1120 C1127 1.257 . S
C1121 O1116 1.254 . S
C1121 O1117 1.269 . S
C1122 O1123 1.249 . S
C1122 O1124 1.270 . S
O1123 Zn1115 1.943 . S
O1123 C1122 1.249 . S
O1124 Zn1114 2.067 . S
O1124 C1122 1.270 . S
C1125 O1118 1.262 . S
C1125 O1126 1.232 . S
O1126 C1125 1.232 . S
C1127 O1119 1.260 . S
C1127 O1120 1.257 . S
H1128 C1146 0.951 . S
H1129 C1148 0.951 . S
H1130 C1150 0.950 . S
H1131 C1151 0.950 . S
H1132 C1153 0.950 . S
H1133 C1156 0.950 . S
H1134 C1157 0.950 . S
H1135 C1159 0.950 . S
H1136 C1160 0.950 . S
H1137 C1161 0.951 . S
H1138 C1163 0.951 . S
H1139 C1165 0.950 . S
H1140 C1166 0.950 . S
H1141 C1168 0.950 . S
H1142 C1171 0.950 . S
H1143 C1172 0.950 . S
H1144 C1174 0.950 . S
H1145 C1175 0.950 . S
C1146 H1128 0.951 . S
C1146 C1147 1.366 . S
C1146 C1148 1.388 . S
C1147 C1146 1.366 . S
C1147 C1151 1.385 . S
C1148 H1129 0.951 . S
C1148 C1146 1.388 . S
C1148 C1149 1.366 . S
C1149 C1148 1.366 . S
C1149 C1150 1.414 . S
C1149 C1152 1.499 . S
C1150 H1130 0.950 . S
C1150 C1149 1.414 . S
C1150 C1151 1.374 . S
C1151 H1131 0.950 . S
C1151 C1147 1.385 . S
C1151 C1150 1.374 . S
C1152 C1149 1.499 . S
C1152 C1153 1.373 . S
C1152 C1154 1.389 . S
C1153 H1132 0.950 . S
C1153 C1152 1.373 . S
C1153 C1169 1.377 . S
C1154 C1152 1.389 . S
C1154 C1155 1.524 . S
C1154 C1168 1.377 . S
C1155 C1154 1.524 . S
C1155 C1156 1.397 . S
C1155 C1160 1.363 . S
C1156 H1133 0.950 . S
C1156 C1155 1.397 . S
C1156 C1157 1.334 . S
C1157 H1134 0.950 . S
C1157 C1156 1.334 . S
C1157 C1158 1.287 . S
C1158 C1157 1.287 . S
C1158 C1159 1.524 . S
C1158 H1177 0.913 . S
C1159 H1135 0.950 . S
C1159 C1158 1.524 . S
C1159 C1160 1.415 . S
C1160 H1136 0.950 . S
C1160 C1155 1.363 . S
C1160 C1159 1.415 . S
C1161 H1137 0.951 . S
C1161 C1162 1.366 . S
C1161 C1163 1.388 . S
C1162 C1161 1.366 . S
C1162 C1166 1.385 . S
C1163 H1138 0.951 . S
C1163 C1161 1.388 . S
C1163 C1164 1.366 . S
C1164 C1163 1.366 . S
C1164 C1165 1.414 . S
C1164 C1167 1.499 . S
C1165 H1139 0.950 . S
C1165 C1164 1.414 . S
C1165 C1166 1.374 . S
C1166 H1140 0.950 . S
C1166 C1162 1.385 . S
C1166 C1165 1.374 . S
C1167 C1164 1.499 . S
C1167 C1168 1.373 . S
C1167 C1169 1.389 . S
C1168 H1141 0.950 . S
C1168 C1154 1.377 . S
C1168 C1167 1.373 . S
C1169 C1153 1.377 . S
C1169 C1167 1.389 . S
C1169 C1170 1.524 . S
C1170 C1169 1.524 . S
C1170 C1171 1.397 . S
C1170 C1175 1.363 . S
C1171 H1142 0.950 . S
C1171 C1170 1.397 . S
C1171 C1172 1.334 . S
C1172 H1143 0.950 . S
C1172 C1171 1.334 . S
C1172 C1173 1.287 . S
C1173 C1172 1.287 . S
C1173 C1174 1.524 . S
C1173 H1176 0.999 . S
C1174 H1144 0.950 . S
C1174 C1173 1.524 . S
C1174 C1175 1.415 . S
C1175 H1145 0.950 . S
C1175 C1170 1.363 . S
C1175 C1174 1.415 . S
H1176 C1173 0.999 . S
H1177 C1158 0.913 . S
H1178 C1196 0.951 1_655 S
H1179 C1198 0.951 . S
H1180 C1200 0.950 . S
H1181 C1201 0.950 . S
H1182 C1203 0.950 . S
H1183 C1206 0.950 . S
H1184 C1207 0.950 . S
H1185 C1209 0.950 . S
H1186 C1210 0.950 . S
H1187 C1211 0.951 . S
H1188 C1213 0.951 . S
H1189 C1215 0.950 . S
H1190 C1216 0.950 . S
H1191 C1218 0.950 . S
H1192 C1221 0.950 . S
H1193 C1222 0.950 . S
H1194 C1224 0.950 . S
H1195 C1225 0.950 . S
C1196 H1178 0.951 1_455 S
C1196 C1197 1.366 . S
C1196 C1198 1.388 . S
C1197 C1196 1.366 . S
C1197 C1201 1.385 . S
C1198 H1179 0.951 . S
C1198 C1196 1.388 . S
C1198 C1199 1.366 . S
C1199 C1198 1.366 . S
C1199 C1200 1.414 . S
C1199 C1202 1.499 . S
C1200 H1180 0.950 . S
C1200 C1199 1.414 . S
C1200 C1201 1.374 . S
C1201 H1181 0.950 . S
C1201 C1197 1.385 . S
C1201 C1200 1.374 . S
C1202 C1199 1.499 . S
C1202 C1203 1.373 . S
C1202 C1204 1.389 . S
C1203 H1182 0.950 . S
C1203 C1202 1.373 . S
C1203 C1219 1.377 . S
C1204 C1202 1.389 . S
C1204 C1205 1.524 . S
C1204 C1218 1.377 . S
C1205 C1204 1.524 . S
C1205 C1206 1.397 . S
C1205 C1210 1.363 . S
C1206 H1183 0.950 . S
C1206 C1205 1.397 . S
C1206 C1207 1.334 . S
C1207 H1184 0.950 . S
C1207 C1206 1.334 . S
C1207 C1208 1.287 . S
C1208 C1207 1.287 . S
C1208 C1209 1.524 . S
C1208 H1227 0.913 . S
C1209 H1185 0.950 . S
C1209 C1208 1.524 . S
C1209 C1210 1.415 . S
C1210 H1186 0.950 . S
C1210 C1205 1.363 . S
C1210 C1209 1.415 . S
C1211 H1187 0.951 . S
C1211 C1212 1.366 . S
C1211 C1213 1.388 . S
C1212 C1211 1.366 . S
C1212 C1216 1.385 . S
C1213 H1188 0.951 . S
C1213 C1211 1.388 . S
C1213 C1214 1.366 . S
C1214 C1213 1.366 . S
C1214 C1215 1.414 . S
C1214 C1217 1.499 . S
C1215 H1189 0.950 . S
C1215 C1214 1.414 . S
C1215 C1216 1.374 . S
C1216 H1190 0.950 . S
C1216 C1212 1.385 . S
C1216 C1215 1.374 . S
C1217 C1214 1.499 . S
C1217 C1218 1.373 . S
C1217 C1219 1.389 . S
C1218 H1191 0.950 . S
C1218 C1204 1.377 . S
C1218 C1217 1.373 . S
C1219 C1203 1.377 . S
C1219 C1217 1.389 . S
C1219 C1220 1.524 . S
C1220 C1219 1.524 . S
C1220 C1221 1.397 . S
C1220 C1225 1.363 . S
C1221 H1192 0.950 . S
C1221 C1220 1.397 . S
C1221 C1222 1.334 . S
C1222 H1193 0.950 . S
C1222 C1221 1.334 . S
C1222 C1223 1.287 . S
C1223 C1222 1.287 . S
C1223 C1224 1.524 . S
C1223 H1226 0.999 . S
C1224 H1194 0.950 . S
C1224 C1223 1.524 . S
C1224 C1225 1.415 . S
C1225 H1195 0.950 . S
C1225 C1220 1.363 . S
C1225 C1224 1.415 . S
H1226 C1223 0.999 . S
H1227 C1208 0.913 . S
H1228 C1246 0.951 . S
H1229 C1248 0.951 . S
H1230 C1250 0.950 . S
H1231 C1251 0.950 . S
H1232 C1253 0.950 . S
H1233 C1256 0.950 . S
H1234 C1257 0.950 . S
H1235 C1259 0.950 . S
H1236 C1260 0.950 . S
H1237 C1261 0.951 . S
H1238 C1263 0.951 . S
H1239 C1265 0.950 . S
H1240 C1266 0.950 . S
H1241 C1268 0.950 . S
H1242 C1271 0.950 . S
H1243 C1272 0.950 . S
H1244 C1274 0.950 . S
H1245 C1275 0.950 . S
C1246 H1228 0.951 . S
C1246 C1247 1.366 . S
C1246 C1248 1.388 . S
C1247 C1246 1.366 . S
C1247 C1251 1.385 . S
C1248 H1229 0.951 . S
C1248 C1246 1.388 . S
C1248 C1249 1.366 . S
C1249 C1248 1.366 . S
C1249 C1250 1.414 . S
C1249 C1252 1.499 . S
C1250 H1230 0.950 . S
C1250 C1249 1.414 . S
C1250 C1251 1.374 . S
C1251 H1231 0.950 . S
C1251 C1247 1.385 . S
C1251 C1250 1.374 . S
C1252 C1249 1.499 . S
C1252 C1253 1.373 . S
C1252 C1254 1.389 . S
C1253 H1232 0.950 . S
C1253 C1252 1.373 . S
C1253 C1269 1.377 . S
C1254 C1252 1.389 . S
C1254 C1255 1.524 . S
C1254 C1268 1.377 . S
C1255 C1254 1.524 . S
C1255 C1256 1.397 . S
C1255 C1260 1.363 . S
C1256 H1233 0.950 . S
C1256 C1255 1.397 . S
C1256 C1257 1.334 . S
C1257 H1234 0.950 . S
C1257 C1256 1.334 . S
C1257 C1258 1.287 . S
C1258 C1257 1.287 . S
C1258 C1259 1.524 . S
C1258 H1277 0.913 . S
C1259 H1235 0.950 . S
C1259 C1258 1.524 . S
C1259 C1260 1.415 . S
C1260 H1236 0.950 . S
C1260 C1255 1.363 . S
C1260 C1259 1.415 . S
C1261 H1237 0.951 . S
C1261 C1262 1.366 . S
C1261 C1263 1.388 . S
C1262 C1261 1.366 . S
C1262 C1266 1.385 . S
C1263 H1238 0.951 . S
C1263 C1261 1.388 . S
C1263 C1264 1.366 . S
C1264 C1263 1.366 . S
C1264 C1265 1.414 . S
C1264 C1267 1.499 . S
C1265 H1239 0.950 . S
C1265 C1264 1.414 . S
C1265 C1266 1.374 . S
C1266 H1240 0.950 . S
C1266 C1262 1.385 . S
C1266 C1265 1.374 . S
C1267 C1264 1.499 . S
C1267 C1268 1.373 . S
C1267 C1269 1.389 . S
C1268 H1241 0.950 . S
C1268 C1254 1.377 . S
C1268 C1267 1.373 . S
C1269 C1253 1.377 . S
C1269 C1267 1.389 . S
C1269 C1270 1.524 . S
C1270 C1269 1.524 . S
C1270 C1271 1.397 . S
C1270 C1275 1.363 . S
C1271 H1242 0.950 . S
C1271 C1270 1.397 . S
C1271 C1272 1.334 . S
C1272 H1243 0.950 . S
C1272 C1271 1.334 . S
C1272 C1273 1.287 . S
C1273 C1272 1.287 . S
C1273 C1274 1.524 . S
C1273 H1276 0.999 . S
C1274 H1244 0.950 . S
C1274 C1273 1.524 . S
C1274 C1275 1.415 . S
C1275 H1245 0.950 . S
C1275 C1270 1.363 . S
C1275 C1274 1.415 . S
H1276 C1273 0.999 . S
H1277 C1258 0.913 . S
H1278 C1296 0.951 . S
H1279 C1298 0.951 . S
H1280 C1300 0.950 . S
H1281 C1301 0.950 . S
H1282 C1303 0.950 . S
H1283 C1306 0.950 . S
H1284 C1307 0.950 . S
H1285 C1309 0.950 1_455 S
H1286 C1310 0.950 . S
H1287 C1311 0.951 . S
H1288 C1313 0.951 . S
H1289 C1315 0.950 . S
H1290 C1316 0.950 . S
H1291 C1318 0.950 1_545 S
H1292 C1321 0.950 . S
H1293 C1322 0.950 . S
H1294 C1324 0.950 . S
H1295 C1325 0.950 . S
C1296 H1278 0.951 . S
C1296 C1297 1.366 . S
C1296 C1298 1.388 1_455 S
C1297 C1296 1.366 . S
C1297 C1301 1.385 1_455 S
C1298 H1279 0.951 . S
C1298 C1296 1.388 1_655 S
C1298 C1299 1.366 . S
C1299 C1298 1.366 . S
C1299 C1300 1.414 . S
C1299 C1302 1.499 . S
C1300 H1280 0.950 . S
C1300 C1299 1.414 . S
C1300 C1301 1.374 . S
C1301 H1281 0.950 . S
C1301 C1297 1.385 1_655 S
C1301 C1300 1.374 . S
C1302 C1299 1.499 . S
C1302 C1303 1.373 . S
C1302 C1304 1.389 . S
C1303 H1282 0.950 . S
C1303 C1302 1.373 . S
C1303 C1319 1.377 . S
C1304 C1302 1.389 . S
C1304 C1305 1.524 1_565 S
C1304 C1318 1.377 . S
C1305 C1304 1.524 1_545 S
C1305 C1306 1.397 . S
C1305 C1310 1.363 . S
C1306 H1283 0.950 . S
C1306 C1305 1.397 . S
C1306 C1307 1.334 . S
C1307 H1284 0.950 . S
C1307 C1306 1.334 . S
C1307 C1308 1.287 . S
C1308 C1307 1.287 . S
C1308 C1309 1.524 . S
C1308 H1327 0.909 1_655 S
C1309 H1285 0.950 1_655 S
C1309 C1308 1.524 . S
C1309 C1310 1.415 . S
C1310 H1286 0.950 . S
C1310 C1305 1.363 . S
C1310 C1309 1.415 . S
C1311 H1287 0.951 . S
C1311 C1312 1.366 . S
C1311 C1313 1.388 . S
C1312 C1311 1.366 . S
C1312 C1316 1.385 . S
C1313 H1288 0.951 . S
C1313 C1311 1.388 . S
C1313 C1314 1.366 . S
C1314 C1313 1.366 . S
C1314 C1315 1.414 . S
C1314 C1317 1.499 . S
C1315 H1289 0.950 . S
C1315 C1314 1.414 . S
C1315 C1316 1.374 . S
C1316 H1290 0.950 . S
C1316 C1312 1.385 . S
C1316 C1315 1.374 . S
C1317 C1314 1.499 . S
C1317 C1318 1.373 . S
C1317 C1319 1.389 . S
C1318 H1291 0.950 1_565 S
C1318 C1304 1.377 . S
C1318 C1317 1.373 . S
C1319 C1303 1.377 . S
C1319 C1317 1.389 . S
C1319 C1320 1.524 . S
C1320 C1319 1.524 . S
C1320 C1321 1.397 . S
C1320 C1325 1.363 . S
C1321 H1292 0.950 . S
C1321 C1320 1.397 . S
C1321 C1322 1.334 . S
C1322 H1293 0.950 . S
C1322 C1321 1.334 . S
C1322 C1323 1.287 . S
C1323 C1322 1.287 . S
C1323 C1324 1.524 . S
C1323 H1326 0.999 . S
C1324 H1294 0.950 . S
C1324 C1323 1.524 . S
C1324 C1325 1.415 . S
C1325 H1295 0.950 . S
C1325 C1320 1.363 . S
C1325 C1324 1.415 . S
H1326 C1323 0.999 . S
H1327 C1308 0.909 1_455 S
H1328 C1346 0.951 . S
H1329 C1348 0.951 . S
H1330 C1350 0.950 . S
H1331 C1351 0.950 . S
H1332 C1353 0.950 . S
H1333 C1356 0.950 . S
H1334 C1357 0.950 . S
H1335 C1359 0.950 . S
H1336 C1360 0.950 . S
H1337 C1361 0.951 . S
H1338 C1363 0.951 . S
H1339 C1365 0.950 . S
H1340 C1366 0.950 . S
H1341 C1368 0.950 . S
H1342 C1371 0.950 . S
H1343 C1372 0.950 . S
H1344 C1374 0.950 . S
H1345 C1375 0.950 . S
C1346 H1328 0.951 . S
C1346 C1347 1.366 . S
C1346 C1348 1.388 . S
C1347 C1346 1.366 . S
C1347 C1351 1.385 . S
C1348 H1329 0.951 . S
C1348 C1346 1.388 . S
C1348 C1349 1.366 . S
C1349 C1348 1.366 . S
C1349 C1350 1.414 . S
C1349 C1352 1.499 . S
C1350 H1330 0.950 . S
C1350 C1349 1.414 . S
C1350 C1351 1.374 . S
C1351 H1331 0.950 . S
C1351 C1347 1.385 . S
C1351 C1350 1.374 . S
C1352 C1349 1.499 . S
C1352 C1353 1.373 . S
C1352 C1354 1.389 . S
C1353 H1332 0.950 . S
C1353 C1352 1.373 . S
C1353 C1369 1.377 . S
C1354 C1352 1.389 . S
C1354 C1355 1.524 . S
C1354 C1368 1.377 . S
C1355 C1354 1.524 . S
C1355 C1356 1.397 . S
C1355 C1360 1.363 . S
C1356 H1333 0.950 . S
C1356 C1355 1.397 . S
C1356 C1357 1.334 . S
C1357 H1334 0.950 . S
C1357 C1356 1.334 . S
C1357 C1358 1.287 . S
C1358 C1357 1.287 . S
C1358 C1359 1.524 . S
C1358 H1377 0.913 . S
C1359 H1335 0.950 . S
C1359 C1358 1.524 . S
C1359 C1360 1.415 . S
C1360 H1336 0.950 . S
C1360 C1355 1.363 . S
C1360 C1359 1.415 . S
C1361 H1337 0.951 . S
C1361 C1362 1.366 . S
C1361 C1363 1.388 . S
C1362 C1361 1.366 . S
C1362 C1366 1.385 . S
C1363 H1338 0.951 . S
C1363 C1361 1.388 . S
C1363 C1364 1.366 . S
C1364 C1363 1.366 . S
C1364 C1365 1.414 . S
C1364 C1367 1.499 . S
C1365 H1339 0.950 . S
C1365 C1364 1.414 . S
C1365 C1366 1.374 . S
C1366 H1340 0.950 . S
C1366 C1362 1.385 . S
C1366 C1365 1.374 . S
C1367 C1364 1.499 . S
C1367 C1368 1.373 . S
C1367 C1369 1.389 . S
C1368 H1341 0.950 . S
C1368 C1354 1.377 . S
C1368 C1367 1.373 . S
C1369 C1353 1.377 . S
C1369 C1367 1.389 . S
C1369 C1370 1.524 . S
C1370 C1369 1.524 . S
C1370 C1371 1.397 . S
C1370 C1375 1.363 . S
C1371 H1342 0.950 . S
C1371 C1370 1.397 . S
C1371 C1372 1.334 . S
C1372 H1343 0.950 . S
C1372 C1371 1.334 . S
C1372 C1373 1.287 . S
C1373 C1372 1.287 . S
C1373 C1374 1.524 . S
C1373 H1376 0.999 . S
C1374 H1344 0.950 . S
C1374 C1373 1.524 . S
C1374 C1375 1.415 . S
C1375 H1345 0.950 . S
C1375 C1370 1.363 . S
C1375 C1374 1.415 . S
H1376 C1373 0.999 . S
H1377 C1358 0.913 . S
H1378 C1396 0.951 . S
H1379 C1398 0.951 . S
H1380 C1400 0.950 . S
H1381 C1401 0.950 . S
H1382 C1403 0.950 . S
H1383 C1406 0.950 . S
H1384 C1407 0.950 . S
H1385 C1409 0.950 . S
H1386 C1410 0.950 . S
H1387 C1411 0.951 . S
H1388 C1413 0.951 . S
H1389 C1415 0.950 . S
H1390 C1416 0.950 . S
H1391 C1418 0.950 . S
H1392 C1421 0.950 . S
H1393 C1422 0.950 . S
H1394 C1424 0.950 . S
H1395 C1425 0.950 . S
C1396 H1378 0.951 . S
C1396 C1397 1.366 . S
C1396 C1398 1.388 . S
C1397 C1396 1.366 . S
C1397 C1401 1.385 . S
C1398 H1379 0.951 . S
C1398 C1396 1.388 . S
C1398 C1399 1.366 . S
C1399 C1398 1.366 . S
C1399 C1400 1.414 . S
C1399 C1402 1.499 . S
C1400 H1380 0.950 . S
C1400 C1399 1.414 . S
C1400 C1401 1.374 . S
C1401 H1381 0.950 . S
C1401 C1397 1.385 . S
C1401 C1400 1.374 . S
C1402 C1399 1.499 . S
C1402 C1403 1.373 . S
C1402 C1404 1.389 . S
C1403 H1382 0.950 . S
C1403 C1402 1.373 . S
C1403 C1419 1.377 . S
C1404 C1402 1.389 . S
C1404 C1405 1.524 . S
C1404 C1418 1.377 . S
C1405 C1404 1.524 . S
C1405 C1406 1.397 . S
C1405 C1410 1.363 . S
C1406 H1383 0.950 . S
C1406 C1405 1.397 . S
C1406 C1407 1.334 . S
C1407 H1384 0.950 . S
C1407 C1406 1.334 . S
C1407 C1408 1.287 . S
C1408 C1407 1.287 . S
C1408 C1409 1.524 . S
C1408 H1427 0.913 . S
C1409 H1385 0.950 . S
C1409 C1408 1.524 . S
C1409 C1410 1.415 . S
C1410 H1386 0.950 . S
C1410 C1405 1.363 . S
C1410 C1409 1.415 . S
C1411 H1387 0.951 . S
C1411 C1412 1.366 . S
C1411 C1413 1.388 . S
C1412 C1411 1.366 . S
C1412 C1416 1.385 . S
C1413 H1388 0.951 . S
C1413 C1411 1.388 . S
C1413 C1414 1.366 . S
C1414 C1413 1.366 . S
C1414 C1415 1.414 . S
C1414 C1417 1.499 . S
C1415 H1389 0.950 . S
C1415 C1414 1.414 . S
C1415 C1416 1.374 . S
C1416 H1390 0.950 . S
C1416 C1412 1.385 . S
C1416 C1415 1.374 . S
C1417 C1414 1.499 . S
C1417 C1418 1.373 . S
C1417 C1419 1.389 . S
C1418 H1391 0.950 . S
C1418 C1404 1.377 . S
C1418 C1417 1.373 . S
C1419 C1403 1.377 . S
C1419 C1417 1.389 . S
C1419 C1420 1.524 . S
C1420 C1419 1.524 . S
C1420 C1421 1.397 . S
C1420 C1425 1.363 . S
C1421 H1392 0.950 . S
C1421 C1420 1.397 . S
C1421 C1422 1.334 . S
C1422 H1393 0.950 . S
C1422 C1421 1.334 . S
C1422 C1423 1.287 . S
C1423 C1422 1.287 . S
C1423 C1424 1.524 . S
C1423 H1426 0.999 . S
C1424 H1394 0.950 . S
C1424 C1423 1.524 . S
C1424 C1425 1.415 . S
C1425 H1395 0.950 . S
C1425 C1420 1.363 . S
C1425 C1424 1.415 . S
H1426 C1423 0.999 . S
H1427 C1408 0.913 . S
H1428 C1446 0.951 . S
H1429 C1448 0.951 . S
H1430 C1450 0.950 . S
H1431 C1451 0.950 . S
H1432 C1453 0.950 . S
H1433 C1456 0.950 . S
H1434 C1457 0.950 . S
H1435 C1459 0.950 . S
H1436 C1460 0.950 . S
H1437 C1461 0.951 . S
H1438 C1463 0.951 . S
H1439 C1465 0.950 . S
H1440 C1466 0.950 . S
H1441 C1468 0.950 . S
H1442 C1471 0.950 . S
H1443 C1472 0.950 . S
H1444 C1474 0.950 . S
H1445 C1475 0.950 . S
C1446 H1428 0.951 . S
C1446 C1447 1.366 . S
C1446 C1448 1.388 . S
C1447 C1446 1.366 . S
C1447 C1451 1.385 . S
C1448 H1429 0.951 . S
C1448 C1446 1.388 . S
C1448 C1449 1.366 . S
C1449 C1448 1.366 . S
C1449 C1450 1.414 . S
C1449 C1452 1.499 . S
C1450 H1430 0.950 . S
C1450 C1449 1.414 . S
C1450 C1451 1.374 . S
C1451 H1431 0.950 . S
C1451 C1447 1.385 . S
C1451 C1450 1.374 . S
C1452 C1449 1.499 . S
C1452 C1453 1.373 . S
C1452 C1454 1.389 . S
C1453 H1432 0.950 . S
C1453 C1452 1.373 . S
C1453 C1469 1.377 . S
C1454 C1452 1.389 . S
C1454 C1455 1.524 . S
C1454 C1468 1.377 . S
C1455 C1454 1.524 . S
C1455 C1456 1.397 . S
C1455 C1460 1.363 . S
C1456 H1433 0.950 . S
C1456 C1455 1.397 . S
C1456 C1457 1.334 . S
C1457 H1434 0.950 . S
C1457 C1456 1.334 . S
C1457 C1458 1.287 . S
C1458 C1457 1.287 . S
C1458 C1459 1.524 . S
C1458 H1477 0.913 . S
C1459 H1435 0.950 . S
C1459 C1458 1.524 . S
C1459 C1460 1.415 . S
C1460 H1436 0.950 . S
C1460 C1455 1.363 . S
C1460 C1459 1.415 . S
C1461 H1437 0.951 . S
C1461 C1462 1.366 . S
C1461 C1463 1.388 . S
C1462 C1461 1.366 . S
C1462 C1466 1.385 . S
C1463 H1438 0.951 . S
C1463 C1461 1.388 . S
C1463 C1464 1.366 . S
C1464 C1463 1.366 . S
C1464 C1465 1.414 . S
C1464 C1467 1.499 . S
C1465 H1439 0.950 . S
C1465 C1464 1.414 . S
C1465 C1466 1.374 . S
C1466 H1440 0.950 . S
C1466 C1462 1.385 . S
C1466 C1465 1.374 . S
C1467 C1464 1.499 . S
C1467 C1468 1.373 . S
C1467 C1469 1.389 . S
C1468 H1441 0.950 . S
C1468 C1454 1.377 . S
C1468 C1467 1.373 . S
C1469 C1453 1.377 . S
C1469 C1467 1.389 . S
C1469 C1470 1.524 . S
C1470 C1469 1.524 . S
C1470 C1471 1.397 . S
C1470 C1475 1.363 . S
C1471 H1442 0.950 . S
C1471 C1470 1.397 . S
C1471 C1472 1.334 . S
C1472 H1443 0.950 . S
C1472 C1471 1.334 . S
C1472 C1473 1.287 . S
C1473 C1472 1.287 . S
C1473 C1474 1.524 . S
C1473 H1476 0.999 . S
C1474 H1444 0.950 . S
C1474 C1473 1.524 . S
C1474 C1475 1.415 . S
C1475 H1445 0.950 . S
C1475 C1470 1.363 . S
C1475 C1474 1.415 . S
H1476 C1473 0.999 . S
H1477 C1458 0.913 . S
H1478 C1496 0.951 . S
H1479 C1498 0.951 . S
H1480 C1500 0.950 . S
H1481 C1501 0.950 . S
H1482 C1503 0.948 . S
H1483 C1506 0.950 . S
H1484 C1507 0.950 . S
H1485 C1509 0.950 . S
H1486 C1510 0.950 . S
H1487 C1511 0.951 . S
H1488 C1513 0.951 . S
H1489 C1515 0.950 . S
H1490 C1516 0.950 . S
H1491 C1518 0.950 . S
H1492 C1521 0.950 . S
H1493 C1522 0.950 . S
H1494 C1524 0.950 . S
H1495 C1525 0.950 . S
C1496 H1478 0.951 . S
C1496 C1497 1.366 . S
C1496 C1498 1.388 . S
C1497 C1496 1.366 . S
C1497 C1501 1.385 . S
C1498 H1479 0.951 . S
C1498 C1496 1.388 . S
C1498 C1499 1.366 . S
C1499 C1498 1.366 . S
C1499 C1500 1.414 . S
C1499 C1502 1.499 . S
C1500 H1480 0.950 . S
C1500 C1499 1.414 . S
C1500 C1501 1.374 . S
C1501 H1481 0.950 . S
C1501 C1497 1.385 . S
C1501 C1500 1.374 . S
C1502 C1499 1.499 . S
C1502 C1503 1.373 . S
C1502 C1504 1.389 . S
C1503 H1482 0.948 . S
C1503 C1502 1.373 . S
C1503 C1519 1.377 . S
C1504 C1502 1.389 . S
C1504 C1505 1.524 . S
C1504 C1518 1.377 . S
C1505 C1504 1.524 . S
C1505 C1506 1.397 . S
C1505 C1510 1.363 . S
C1506 H1483 0.950 . S
C1506 C1505 1.397 . S
C1506 C1507 1.334 . S
C1507 H1484 0.950 . S
C1507 C1506 1.334 . S
C1507 C1508 1.287 . S
C1508 C1507 1.287 . S
C1508 C1509 1.524 . S
C1508 H1527 0.913 . S
C1509 H1485 0.950 . S
C1509 C1508 1.524 . S
C1509 C1510 1.415 . S
C1510 H1486 0.950 . S
C1510 C1505 1.363 . S
C1510 C1509 1.415 . S
C1511 H1487 0.951 . S
C1511 C1512 1.366 . S
C1511 C1513 1.388 . S
C1512 C1511 1.366 . S
C1512 C1516 1.385 . S
C1513 H1488 0.951 . S
C1513 C1511 1.388 . S
C1513 C1514 1.366 . S
C1514 C1513 1.366 . S
C1514 C1515 1.414 . S
C1514 C1517 1.499 . S
C1515 H1489 0.950 . S
C1515 C1514 1.414 . S
C1515 C1516 1.374 . S
C1516 H1490 0.950 . S
C1516 C1512 1.385 . S
C1516 C1515 1.374 . S
C1517 C1514 1.499 . S
C1517 C1518 1.373 . S
C1517 C1519 1.389 . S
C1518 H1491 0.950 . S
C1518 C1504 1.377 . S
C1518 C1517 1.373 . S
C1519 C1503 1.377 . S
C1519 C1517 1.389 . S
C1519 C1520 1.524 1_565 S
C1520 C1519 1.524 1_545 S
C1520 C1521 1.397 . S
C1520 C1525 1.363 . S
C1521 H1492 0.950 . S
C1521 C1520 1.397 . S
C1521 C1522 1.334 . S
C1522 H1493 0.950 . S
C1522 C1521 1.334 . S
C1522 C1523 1.287 . S
C1523 C1522 1.287 . S
C1523 C1524 1.524 . S
C1523 H1526 0.999 . S
C1524 H1494 0.950 . S
C1524 C1523 1.524 . S
C1524 C1525 1.415 . S
C1525 H1495 0.950 . S
C1525 C1520 1.363 . S
C1525 C1524 1.415 . S
H1526 C1523 0.999 . S
H1527 C1508 0.913 . S
H1528 C1546 0.951 . S
H1529 C1548 0.951 . S
H1530 C1550 0.950 . S
H1531 C1551 0.950 . S
H1532 C1553 0.950 . S
H1533 C1556 0.950 . S
H1534 C1557 0.950 . S
H1535 C1559 0.950 . S
H1536 C1560 0.950 . S
H1537 C1561 0.951 . S
H1538 C1563 0.951 . S
H1539 C1565 0.950 . S
H1540 C1566 0.950 . S
H1541 C1568 0.950 . S
H1542 C1571 0.950 . S
H1543 C1572 0.950 . S
H1544 C1574 0.950 . S
H1545 C1575 0.950 . S
C1546 H1528 0.951 . S
C1546 C1547 1.366 . S
C1546 C1548 1.388 . S
C1547 C1546 1.366 . S
C1547 C1551 1.385 . S
C1548 H1529 0.951 . S
C1548 C1546 1.388 . S
C1548 C1549 1.366 . S
C1549 C1548 1.366 . S
C1549 C1550 1.414 . S
C1549 C1552 1.499 . S
C1550 H1530 0.950 . S
C1550 C1549 1.414 . S
C1550 C1551 1.374 . S
C1551 H1531 0.950 . S
C1551 C1547 1.385 . S
C1551 C1550 1.374 . S
C1552 C1549 1.499 . S
C1552 C1553 1.373 . S
C1552 C1554 1.389 . S
C1553 H1532 0.950 . S
C1553 C1552 1.373 . S
C1553 C1569 1.377 . S
C1554 C1552 1.389 . S
C1554 C1555 1.524 . S
C1554 C1568 1.377 . S
C1555 C1554 1.524 . S
C1555 C1556 1.397 . S
C1555 C1560 1.363 . S
C1556 H1533 0.950 . S
C1556 C1555 1.397 . S
C1556 C1557 1.334 . S
C1557 H1534 0.950 . S
C1557 C1556 1.334 . S
C1557 C1558 1.287 . S
C1558 C1557 1.287 . S
C1558 C1559 1.524 . S
C1558 H1577 0.913 . S
C1559 H1535 0.950 . S
C1559 C1558 1.524 . S
C1559 C1560 1.415 . S
C1560 H1536 0.950 . S
C1560 C1555 1.363 . S
C1560 C1559 1.415 . S
C1561 H1537 0.951 . S
C1561 C1562 1.366 . S
C1561 C1563 1.388 . S
C1562 C1561 1.366 . S
C1562 C1566 1.385 . S
C1563 H1538 0.951 . S
C1563 C1561 1.388 . S
C1563 C1564 1.366 . S
C1564 C1563 1.366 . S
C1564 C1565 1.414 . S
C1564 C1567 1.499 . S
C1565 H1539 0.950 . S
C1565 C1564 1.414 . S
C1565 C1566 1.374 . S
C1566 H1540 0.950 . S
C1566 C1562 1.385 . S
C1566 C1565 1.374 . S
C1567 C1564 1.499 . S
C1567 C1568 1.373 . S
C1567 C1569 1.389 . S
C1568 H1541 0.950 . S
C1568 C1554 1.377 . S
C1568 C1567 1.373 . S
C1569 C1553 1.377 . S
C1569 C1567 1.389 . S
C1569 C1570 1.524 . S
C1570 C1569 1.524 . S
C1570 C1571 1.397 . S
C1570 C1575 1.363 . S
C1571 H1542 0.950 . S
C1571 C1570 1.397 . S
C1571 C1572 1.334 . S
C1572 H1543 0.950 . S
C1572 C1571 1.334 . S
C1572 C1573 1.287 . S
C1573 C1572 1.287 . S
C1573 C1574 1.524 . S
C1573 H1576 0.999 . S
C1574 H1544 0.950 . S
C1574 C1573 1.524 . S
C1574 C1575 1.415 . S
C1575 H1545 0.950 . S
C1575 C1570 1.363 . S
C1575 C1574 1.415 . S
H1576 C1573 0.999 . S
H1577 C1558 0.913 . S
H1578 C1596 0.951 . S
H1579 C1598 0.951 . S
H1580 C1600 0.950 . S
H1581 C1601 0.950 . S
H1582 C1603 0.950 . S
H1583 C1606 0.950 . S
H1584 C1607 0.950 . S
H1585 C1609 0.950 . S
H1586 C1610 0.950 . S
H1587 C1611 0.951 . S
H1588 C1613 0.951 . S
H1589 C1615 0.950 . S
H1590 C1616 0.950 . S
H1591 C1618 0.950 . S
H1592 C1621 0.950 . S
H1593 C1622 0.950 . S
H1594 C1624 0.950 . S
H1595 C1625 0.950 . S
C1596 H1578 0.951 . S
C1596 C1597 1.366 . S
C1596 C1598 1.388 . S
C1597 C1596 1.366 . S
C1597 C1601 1.385 . S
C1598 H1579 0.951 . S
C1598 C1596 1.388 . S
C1598 C1599 1.366 . S
C1599 C1598 1.366 . S
C1599 C1600 1.414 . S
C1599 C1602 1.499 . S
C1600 H1580 0.950 . S
C1600 C1599 1.414 . S
C1600 C1601 1.374 . S
C1601 H1581 0.950 . S
C1601 C1597 1.385 . S
C1601 C1600 1.374 . S
C1602 C1599 1.499 . S
C1602 C1603 1.373 . S
C1602 C1604 1.389 . S
C1603 H1582 0.950 . S
C1603 C1602 1.373 . S
C1603 C1619 1.377 . S
C1604 C1602 1.389 . S
C1604 C1605 1.524 . S
C1604 C1618 1.377 . S
C1605 C1604 1.524 . S
C1605 C1606 1.397 . S
C1605 C1610 1.363 . S
C1606 H1583 0.950 . S
C1606 C1605 1.397 . S
C1606 C1607 1.334 . S
C1607 H1584 0.950 . S
C1607 C1606 1.334 . S
C1607 C1608 1.287 . S
C1608 C1607 1.287 . S
C1608 C1609 1.524 . S
C1608 H1627 0.913 . S
C1609 H1585 0.950 . S
C1609 C1608 1.524 . S
C1609 C1610 1.415 . S
C1610 H1586 0.950 . S
C1610 C1605 1.363 . S
C1610 C1609 1.415 . S
C1611 H1587 0.951 . S
C1611 C1612 1.366 . S
C1611 C1613 1.388 . S
C1612 C1611 1.366 . S
C1612 C1616 1.385 . S
C1613 H1588 0.951 . S
C1613 C1611 1.388 . S
C1613 C1614 1.366 . S
C1614 C1613 1.366 . S
C1614 C1615 1.414 . S
C1614 C1617 1.499 . S
C1615 H1589 0.950 . S
C1615 C1614 1.414 . S
C1615 C1616 1.374 . S
C1616 H1590 0.950 . S
C1616 C1612 1.385 . S
C1616 C1615 1.374 . S
C1617 C1614 1.499 . S
C1617 C1618 1.373 . S
C1617 C1619 1.389 . S
C1618 H1591 0.950 . S
C1618 C1604 1.377 . S
C1618 C1617 1.373 . S
C1619 C1603 1.377 . S
C1619 C1617 1.389 . S
C1619 C1620 1.524 . S
C1620 C1619 1.524 . S
C1620 C1621 1.397 . S
C1620 C1625 1.363 . S
C1621 H1592 0.950 . S
C1621 C1620 1.397 . S
C1621 C1622 1.334 . S
C1622 H1593 0.950 . S
C1622 C1621 1.334 . S
C1622 C1623 1.287 . S
C1623 C1622 1.287 . S
C1623 C1624 1.524 . S
C1623 H1626 0.999 . S
C1624 H1594 0.950 . S
C1624 C1623 1.524 . S
C1624 C1625 1.415 . S
C1625 H1595 0.950 . S
C1625 C1620 1.363 . S
C1625 C1624 1.415 . S
H1626 C1623 0.999 . S
H1627 C1608 0.913 . S
H1628 C1646 0.951 . S
H1629 C1648 0.951 . S
H1630 C1650 0.950 . S
H1631 C1651 0.950 . S
H1632 C1653 0.950 . S
H1633 C1656 0.950 . S
H1634 C1657 0.950 . S
H1635 C1659 0.950 . S
H1636 C1660 0.950 . S
H1637 C1661 0.951 . S
H1638 C1663 0.951 . S
H1639 C1665 0.950 . S
H1640 C1666 0.950 . S
H1641 C1668 0.950 . S
H1642 C1671 0.950 . S
H1643 C1672 0.950 . S
H1644 C1674 0.950 . S
H1645 C1675 0.950 . S
C1646 H1628 0.951 . S
C1646 C1647 1.366 . S
C1646 C1648 1.388 . S
C1647 C1646 1.366 . S
C1647 C1651 1.385 . S
C1648 H1629 0.951 . S
C1648 C1646 1.388 . S
C1648 C1649 1.366 . S
C1649 C1648 1.366 . S
C1649 C1650 1.414 . S
C1649 C1652 1.499 . S
C1650 H1630 0.950 . S
C1650 C1649 1.414 . S
C1650 C1651 1.374 . S
C1651 H1631 0.950 . S
C1651 C1647 1.385 . S
C1651 C1650 1.374 . S
C1652 C1649 1.499 . S
C1652 C1653 1.373 . S
C1652 C1654 1.389 . S
C1653 H1632 0.950 . S
C1653 C1652 1.373 . S
C1653 C1669 1.377 . S
C1654 C1652 1.389 . S
C1654 C1655 1.524 . S
C1654 C1668 1.377 . S
C1655 C1654 1.524 . S
C1655 C1656 1.397 . S
C1655 C1660 1.363 . S
C1656 H1633 0.950 . S
C1656 C1655 1.397 . S
C1656 C1657 1.334 . S
C1657 H1634 0.950 . S
C1657 C1656 1.334 . S
C1657 C1658 1.287 . S
C1658 C1657 1.287 . S
C1658 C1659 1.524 . S
C1658 H1677 0.913 . S
C1659 H1635 0.950 . S
C1659 C1658 1.524 . S
C1659 C1660 1.415 . S
C1660 H1636 0.950 . S
C1660 C1655 1.363 . S
C1660 C1659 1.415 . S
C1661 H1637 0.951 . S
C1661 C1662 1.366 . S
C1661 C1663 1.388 . S
C1662 C1661 1.366 . S
C1662 C1666 1.385 . S
C1663 H1638 0.951 . S
C1663 C1661 1.388 . S
C1663 C1664 1.366 . S
C1664 C1663 1.366 . S
C1664 C1665 1.414 . S
C1664 C1667 1.499 . S
C1665 H1639 0.950 . S
C1665 C1664 1.414 . S
C1665 C1666 1.374 . S
C1666 H1640 0.950 . S
C1666 C1662 1.385 . S
C1666 C1665 1.374 . S
C1667 C1664 1.499 . S
C1667 C1668 1.373 . S
C1667 C1669 1.389 . S
C1668 H1641 0.950 . S
C1668 C1654 1.377 . S
C1668 C1667 1.373 . S
C1669 C1653 1.377 . S
C1669 C1667 1.389 . S
C1669 C1670 1.524 . S
C1670 C1669 1.524 . S
C1670 C1671 1.397 . S
C1670 C1675 1.363 . S
C1671 H1642 0.950 . S
C1671 C1670 1.397 . S
C1671 C1672 1.334 . S
C1672 H1643 0.950 . S
C1672 C1671 1.334 . S
C1672 C1673 1.287 . S
C1673 C1672 1.287 . S
C1673 C1674 1.524 . S
C1673 H1676 0.999 . S
C1674 H1644 0.950 . S
C1674 C1673 1.524 . S
C1674 C1675 1.415 . S
C1675 H1645 0.950 . S
C1675 C1670 1.363 . S
C1675 C1674 1.415 . S
H1676 C1673 0.999 . S
H1677 C1658 0.913 . S
H1678 C1696 0.951 . S
H1679 C1698 0.951 . S
H1680 C1700 0.950 . S
H1681 C1701 0.950 . S
H1682 C1703 0.950 . S
H1683 C1706 0.950 . S
H1684 C1707 0.950 . S
H1685 C1709 0.950 . S
H1686 C1710 0.950 . S
H1687 C1711 0.951 . S
H1688 C1713 0.951 . S
H1689 C1715 0.950 . S
H1690 C1716 0.950 . S
H1691 C1718 0.950 . S
H1692 C1721 0.950 . S
H1693 C1722 0.950 . S
H1694 C1724 0.950 . S
H1695 C1725 0.950 . S
C1696 H1678 0.951 . S
C1696 C1697 1.366 . S
C1696 C1698 1.388 . S
C1697 C1696 1.366 . S
C1697 C1701 1.385 . S
C1698 H1679 0.951 . S
C1698 C1696 1.388 . S
C1698 C1699 1.366 . S
C1699 C1698 1.366 . S
C1699 C1700 1.414 . S
C1699 C1702 1.499 . S
C1700 H1680 0.950 . S
C1700 C1699 1.414 . S
C1700 C1701 1.374 . S
C1701 H1681 0.950 . S
C1701 C1697 1.385 . S
C1701 C1700 1.374 . S
C1702 C1699 1.499 . S
C1702 C1703 1.373 . S
C1702 C1704 1.389 . S
C1703 H1682 0.950 . S
C1703 C1702 1.373 . S
C1703 C1719 1.377 . S
C1704 C1702 1.389 . S
C1704 C1705 1.524 . S
C1704 C1718 1.377 . S
C1705 C1704 1.524 . S
C1705 C1706 1.397 . S
C1705 C1710 1.363 . S
C1706 H1683 0.950 . S
C1706 C1705 1.397 . S
C1706 C1707 1.334 . S
C1707 H1684 0.950 . S
C1707 C1706 1.334 . S
C1707 C1708 1.287 . S
C1708 C1707 1.287 . S
C1708 C1709 1.524 . S
C1708 H1727 0.913 . S
C1709 H1685 0.950 . S
C1709 C1708 1.524 . S
C1709 C1710 1.415 . S
C1710 H1686 0.950 . S
C1710 C1705 1.363 . S
C1710 C1709 1.415 . S
C1711 H1687 0.951 . S
C1711 C1712 1.366 . S
C1711 C1713 1.388 . S
C1712 C1711 1.366 . S
C1712 C1716 1.385 . S
C1713 H1688 0.951 . S
C1713 C1711 1.388 . S
C1713 C1714 1.366 . S
C1714 C1713 1.366 . S
C1714 C1715 1.414 . S
C1714 C1717 1.499 . S
C1715 H1689 0.950 . S
C1715 C1714 1.414 . S
C1715 C1716 1.374 . S
C1716 H1690 0.950 . S
C1716 C1712 1.385 . S
C1716 C1715 1.374 . S
C1717 C1714 1.499 . S
C1717 C1718 1.373 . S
C1717 C1719 1.389 . S
C1718 H1691 0.950 . S
C1718 C1704 1.377 . S
C1718 C1717 1.373 . S
C1719 C1703 1.377 . S
C1719 C1717 1.389 . S
C1719 C1720 1.524 . S
C1720 C1719 1.524 . S
C1720 C1721 1.397 . S
C1720 C1725 1.363 . S
C1721 H1692 0.950 . S
C1721 C1720 1.397 . S
C1721 C1722 1.334 . S
C1722 H1693 0.950 . S
C1722 C1721 1.334 . S
C1722 C1723 1.287 . S
C1723 C1722 1.287 . S
C1723 C1724 1.524 . S
C1723 H1726 0.999 . S
C1724 H1694 0.950 . S
C1724 C1723 1.524 . S
C1724 C1725 1.415 . S
C1725 H1695 0.950 . S
C1725 C1720 1.363 . S
C1725 C1724 1.415 . S
H1726 C1723 0.999 . S
H1727 C1708 0.913 . S
H1728 C1746 0.951 . S
H1729 C1748 0.951 . S
H1730 C1750 0.950 . S
H1731 C1751 0.950 . S
H1732 C1753 0.950 . S
H1733 C1756 0.950 . S
H1734 C1757 0.950 . S
H1735 C1759 0.950 . S
H1736 C1760 0.950 . S
H1737 C1761 0.951 . S
H1738 C1763 0.951 . S
H1739 C1765 0.950 . S
H1740 C1766 0.950 . S
H1741 C1768 0.950 . S
H1742 C1771 0.950 . S
H1743 C1772 0.950 . S
H1744 C1774 0.950 . S
H1745 C1775 0.950 . S
C1746 H1728 0.951 . S
C1746 C1747 1.366 . S
C1746 C1748 1.388 . S
C1747 C1746 1.366 . S
C1747 C1751 1.385 . S
C1748 H1729 0.951 . S
C1748 C1746 1.388 . S
C1748 C1749 1.366 . S
C1749 C1748 1.366 . S
C1749 C1750 1.414 . S
C1749 C1752 1.499 . S
C1750 H1730 0.950 . S
C1750 C1749 1.414 . S
C1750 C1751 1.374 . S
C1751 H1731 0.950 . S
C1751 C1747 1.385 . S
C1751 C1750 1.374 . S
C1752 C1749 1.499 . S
C1752 C1753 1.373 . S
C1752 C1754 1.389 . S
C1753 H1732 0.950 . S
C1753 C1752 1.373 . S
C1753 C1769 1.377 . S
C1754 C1752 1.389 . S
C1754 C1755 1.524 . S
C1754 C1768 1.377 . S
C1755 C1754 1.524 . S
C1755 C1756 1.397 . S
C1755 C1760 1.363 . S
C1756 H1733 0.950 . S
C1756 C1755 1.397 . S
C1756 C1757 1.334 . S
C1757 H1734 0.950 . S
C1757 C1756 1.334 . S
C1757 C1758 1.287 . S
C1758 C1757 1.287 . S
C1758 C1759 1.524 . S
C1758 H1777 0.913 . S
C1759 H1735 0.950 . S
C1759 C1758 1.524 . S
C1759 C1760 1.415 . S
C1760 H1736 0.950 . S
C1760 C1755 1.363 . S
C1760 C1759 1.415 . S
C1761 H1737 0.951 . S
C1761 C1762 1.366 . S
C1761 C1763 1.388 . S
C1762 C1761 1.366 . S
C1762 C1766 1.385 . S
C1763 H1738 0.951 . S
C1763 C1761 1.388 . S
C1763 C1764 1.366 . S
C1764 C1763 1.366 . S
C1764 C1765 1.414 . S
C1764 C1767 1.499 . S
C1765 H1739 0.950 . S
C1765 C1764 1.414 . S
C1765 C1766 1.374 . S
C1766 H1740 0.950 . S
C1766 C1762 1.385 . S
C1766 C1765 1.374 . S
C1767 C1764 1.499 . S
C1767 C1768 1.373 . S
C1767 C1769 1.389 . S
C1768 H1741 0.950 . S
C1768 C1754 1.377 . S
C1768 C1767 1.373 . S
C1769 C1753 1.377 . S
C1769 C1767 1.389 . S
C1769 C1770 1.524 . S
C1770 C1769 1.524 . S
C1770 C1771 1.397 . S
C1770 C1775 1.363 . S
C1771 H1742 0.950 . S
C1771 C1770 1.397 . S
C1771 C1772 1.334 . S
C1772 H1743 0.950 . S
C1772 C1771 1.334 . S
C1772 C1773 1.287 . S
C1773 C1772 1.287 . S
C1773 C1774 1.524 . S
C1773 H1776 0.999 . S
C1774 H1744 0.950 . S
C1774 C1773 1.524 . S
C1774 C1775 1.415 . S
C1775 H1745 0.950 . S
C1775 C1770 1.363 . S
C1775 C1774 1.415 . S
H1776 C1773 0.999 . S
H1777 C1758 0.913 . S
H1778 C1796 0.951 . S
H1779 C1798 0.951 . S
H1780 C1800 0.950 . S
H1781 C1801 0.950 . S
H1782 C1803 0.950 . S
H1783 C1806 0.950 . S
H1784 C1807 0.950 . S
H1785 C1809 0.950 . S
H1786 C1810 0.950 . S
H1787 C1811 0.951 . S
H1788 C1813 0.951 . S
H1789 C1815 0.950 . S
H1790 C1816 0.950 . S
H1791 C1818 0.950 . S
H1792 C1821 0.950 . S
H1793 C1822 0.950 . S
H1794 C1824 0.950 . S
H1795 C1825 0.950 . S
C1796 H1778 0.951 . S
C1796 C1797 1.366 . S
C1796 C1798 1.388 . S
C1797 C1796 1.366 . S
C1797 C1801 1.385 . S
C1798 H1779 0.951 . S
C1798 C1796 1.388 . S
C1798 C1799 1.366 . S
C1799 C1798 1.366 . S
C1799 C1800 1.414 . S
C1799 C1802 1.499 . S
C1800 H1780 0.950 . S
C1800 C1799 1.414 . S
C1800 C1801 1.374 . S
C1801 H1781 0.950 . S
C1801 C1797 1.385 . S
C1801 C1800 1.374 . S
C1802 C1799 1.499 . S
C1802 C1803 1.373 . S
C1802 C1804 1.389 . S
C1803 H1782 0.950 . S
C1803 C1802 1.373 . S
C1803 C1819 1.377 . S
C1804 C1802 1.389 . S
C1804 C1805 1.524 . S
C1804 C1818 1.377 . S
C1805 C1804 1.524 . S
C1805 C1806 1.397 . S
C1805 C1810 1.363 . S
C1806 H1783 0.950 . S
C1806 C1805 1.397 . S
C1806 C1807 1.334 . S
C1807 H1784 0.950 . S
C1807 C1806 1.334 . S
C1807 C1808 1.287 . S
C1808 C1807 1.287 . S
C1808 C1809 1.524 . S
C1808 H1827 0.913 . S
C1809 H1785 0.950 . S
C1809 C1808 1.524 . S
C1809 C1810 1.415 . S
C1810 H1786 0.950 . S
C1810 C1805 1.363 . S
C1810 C1809 1.415 . S
C1811 H1787 0.951 . S
C1811 C1812 1.366 . S
C1811 C1813 1.388 . S
C1812 C1811 1.366 . S
C1812 C1816 1.385 . S
C1813 H1788 0.951 . S
C1813 C1811 1.388 . S
C1813 C1814 1.366 . S
C1814 C1813 1.366 . S
C1814 C1815 1.414 . S
C1814 C1817 1.499 . S
C1815 H1789 0.950 . S
C1815 C1814 1.414 . S
C1815 C1816 1.374 . S
C1816 H1790 0.950 . S
C1816 C1812 1.385 . S
C1816 C1815 1.374 . S
C1817 C1814 1.499 . S
C1817 C1818 1.373 . S
C1817 C1819 1.389 . S
C1818 H1791 0.950 . S
C1818 C1804 1.377 . S
C1818 C1817 1.373 . S
C1819 C1803 1.377 . S
C1819 C1817 1.389 . S
C1819 C1820 1.524 . S
C1820 C1819 1.524 . S
C1820 C1821 1.397 1_455 S
C1820 C1825 1.363 . S
C1821 H1792 0.950 . S
C1821 C1820 1.397 1_655 S
C1821 C1822 1.334 . S
C1822 H1793 0.950 . S
C1822 C1821 1.334 . S
C1822 C1823 1.287 . S
C1823 C1822 1.287 . S
C1823 C1824 1.524 1_655 S
C1823 H1826 0.999 . S
C1824 H1794 0.950 . S
C1824 C1823 1.524 1_455 S
C1824 C1825 1.415 . S
C1825 H1795 0.950 . S
C1825 C1820 1.363 . S
C1825 C1824 1.415 . S
H1826 C1823 0.999 . S
H1827 C1808 0.913 . S
H1828 C1846 0.951 . S
H1829 C1848 0.951 . S
H1830 C1850 0.950 . S
H1831 C1851 0.950 . S
H1832 C1853 0.950 . S
H1833 C1856 0.950 . S
H1834 C1857 0.950 . S
H1835 C1859 0.950 . S
H1836 C1860 0.950 . S
H1837 C1861 0.951 . S
H1838 C1863 0.951 . S
H1839 C1865 0.950 . S
H1840 C1866 0.950 . S
H1841 C1868 0.950 . S
H1842 C1871 0.950 . S
H1843 C1872 0.950 . S
H1844 C1874 0.950 . S
H1845 C1875 0.950 . S
C1846 H1828 0.951 . S
C1846 C1847 1.366 . S
C1846 C1848 1.388 . S
C1847 C1846 1.366 . S
C1847 C1851 1.385 . S
C1848 H1829 0.951 . S
C1848 C1846 1.388 . S
C1848 C1849 1.366 . S
C1849 C1848 1.366 . S
C1849 C1850 1.414 . S
C1849 C1852 1.499 . S
C1850 H1830 0.950 . S
C1850 C1849 1.414 . S
C1850 C1851 1.374 . S
C1851 H1831 0.950 . S
C1851 C1847 1.385 . S
C1851 C1850 1.374 . S
C1852 C1849 1.499 . S
C1852 C1853 1.373 . S
C1852 C1854 1.389 . S
C1853 H1832 0.950 . S
C1853 C1852 1.373 . S
C1853 C1869 1.377 . S
C1854 C1852 1.389 . S
C1854 C1855 1.524 . S
C1854 C1868 1.377 . S
C1855 C1854 1.524 . S
C1855 C1856 1.397 . S
C1855 C1860 1.363 . S
C1856 H1833 0.950 . S
C1856 C1855 1.397 . S
C1856 C1857 1.334 . S
C1857 H1834 0.950 . S
C1857 C1856 1.334 . S
C1857 C1858 1.287 . S
C1858 C1857 1.287 . S
C1858 C1859 1.524 . S
C1858 H1877 0.913 . S
C1859 H1835 0.950 . S
C1859 C1858 1.524 . S
C1859 C1860 1.415 . S
C1860 H1836 0.950 . S
C1860 C1855 1.363 . S
C1860 C1859 1.415 . S
C1861 H1837 0.951 . S
C1861 C1862 1.366 . S
C1861 C1863 1.388 . S
C1862 C1861 1.366 . S
C1862 C1866 1.385 . S
C1863 H1838 0.951 . S
C1863 C1861 1.388 . S
C1863 C1864 1.366 . S
C1864 C1863 1.366 . S
C1864 C1865 1.414 . S
C1864 C1867 1.499 . S
C1865 H1839 0.950 . S
C1865 C1864 1.414 . S
C1865 C1866 1.374 . S
C1866 H1840 0.950 . S
C1866 C1862 1.385 . S
C1866 C1865 1.374 . S
C1867 C1864 1.499 . S
C1867 C1868 1.373 . S
C1867 C1869 1.389 . S
C1868 H1841 0.950 . S
C1868 C1854 1.377 . S
C1868 C1867 1.373 . S
C1869 C1853 1.377 . S
C1869 C1867 1.389 . S
C1869 C1870 1.524 . S
C1870 C1869 1.524 . S
C1870 C1871 1.397 . S
C1870 C1875 1.363 . S
C1871 H1842 0.950 . S
C1871 C1870 1.397 . S
C1871 C1872 1.334 . S
C1872 H1843 0.950 . S
C1872 C1871 1.334 . S
C1872 C1873 1.287 . S
C1873 C1872 1.287 . S
C1873 C1874 1.524 . S
C1873 H1876 0.999 . S
C1874 H1844 0.950 . S
C1874 C1873 1.524 . S
C1874 C1875 1.415 . S
C1875 H1845 0.950 . S
C1875 C1870 1.363 . S
C1875 C1874 1.415 . S
H1876 C1873 0.999 . S
H1877 C1858 0.913 . S
H1878 C1896 0.951 . S
H1879 C1898 0.951 . S
H1880 C1900 0.950 . S
H1881 C1901 0.950 . S
H1882 C1903 0.950 1_455 S
H1883 C1906 0.950 . S
H1884 C1907 0.950 . S
H1885 C1909 0.950 . S
H1886 C1910 0.950 . S
H1887 C1911 0.951 . S
H1888 C1913 0.951 . S
H1889 C1915 0.950 . S
H1890 C1916 0.950 . S
H1891 C1918 0.950 . S
H1892 C1921 0.950 . S
H1893 C1922 0.950 . S
H1894 C1924 0.950 . S
H1895 C1925 0.950 . S
C1896 H1878 0.951 . S
C1896 C1897 1.366 . S
C1896 C1898 1.388 . S
C1897 C1896 1.366 . S
C1897 C1901 1.385 . S
C1898 H1879 0.951 . S
C1898 C1896 1.388 . S
C1898 C1899 1.366 . S
C1899 C1898 1.366 . S
C1899 C1900 1.414 . S
C1899 C1902 1.499 . S
C1900 H1880 0.950 . S
C1900 C1899 1.414 . S
C1900 C1901 1.374 . S
C1901 H1881 0.950 . S
C1901 C1897 1.385 . S
C1901 C1900 1.374 . S
C1902 C1899 1.499 . S
C1902 C1903 1.373 . S
C1902 C1904 1.389 . S
C1903 H1882 0.950 1_655 S
C1903 C1902 1.373 . S
C1903 C1919 1.377 . S
C1904 C1902 1.389 . S
C1904 C1905 1.524 . S
C1904 C1918 1.377 . S
C1905 C1904 1.524 . S
C1905 C1906 1.397 . S
C1905 C1910 1.363 . S
C1906 H1883 0.950 . S
C1906 C1905 1.397 . S
C1906 C1907 1.334 . S
C1907 H1884 0.950 . S
C1907 C1906 1.334 . S
C1907 C1908 1.287 . S
C1908 C1907 1.287 . S
C1908 C1909 1.524 . S
C1908 H1927 0.913 . S
C1909 H1885 0.950 . S
C1909 C1908 1.524 . S
C1909 C1910 1.415 . S
C1910 H1886 0.950 . S
C1910 C1905 1.363 . S
C1910 C1909 1.415 . S
C1911 H1887 0.951 . S
C1911 C1912 1.366 1_455 S
C1911 C1913 1.388 . S
C1912 C1911 1.366 1_655 S
C1912 C1916 1.385 . S
C1913 H1888 0.951 . S
C1913 C1911 1.388 . S
C1913 C1914 1.366 1_455 S
C1914 C1913 1.366 1_655 S
C1914 C1915 1.414 . S
C1914 C1917 1.499 . S
C1915 H1889 0.950 . S
C1915 C1914 1.414 . S
C1915 C1916 1.374 . S
C1916 H1890 0.950 . S
C1916 C1912 1.385 . S
C1916 C1915 1.374 . S
C1917 C1914 1.499 . S
C1917 C1918 1.373 . S
C1917 C1919 1.389 . S
C1918 H1891 0.950 . S
C1918 C1904 1.377 . S
C1918 C1917 1.373 . S
C1919 C1903 1.377 . S
C1919 C1917 1.389 . S
C1919 C1920 1.524 1_655 S
C1920 C1919 1.524 1_455 S
C1920 C1921 1.397 . S
C1920 C1925 1.363 . S
C1921 H1892 0.950 . S
C1921 C1920 1.397 . S
C1921 C1922 1.334 . S
C1922 H1893 0.950 . S
C1922 C1921 1.334 . S
C1922 C1923 1.287 . S
C1923 C1922 1.287 . S
C1923 C1924 1.524 . S
C1923 H1926 0.999 . S
C1924 H1894 0.950 . S
C1924 C1923 1.524 . S
C1924 C1925 1.415 . S
C1925 H1895 0.950 . S
C1925 C1920 1.363 . S
C1925 C1924 1.415 . S
H1926 C1923 0.999 . S
H1927 C1908 0.913 . S
H1928 C1946 0.951 . S
H1929 C1948 0.951 . S
H1930 C1950 0.950 . S
H1931 C1951 0.950 . S
H1932 C1953 0.950 . S
H1933 C1956 0.950 . S
H1934 C1957 0.950 . S
H1935 C1959 0.950 . S
H1936 C1960 0.950 . S
H1937 C1961 0.951 . S
H1938 C1963 0.951 . S
H1939 C1965 0.950 . S
H1940 C1966 0.950 . S
H1941 C1968 0.950 . S
H1942 C1971 0.950 . S
H1943 C1972 0.950 . S
H1944 C1974 0.950 . S
H1945 C1975 0.950 . S
C1946 H1928 0.951 . S
C1946 C1947 1.366 . S
C1946 C1948 1.388 . S
C1947 C1946 1.366 . S
C1947 C1951 1.385 . S
C1948 H1929 0.951 . S
C1948 C1946 1.388 . S
C1948 C1949 1.366 . S
C1949 C1948 1.366 . S
C1949 C1950 1.414 . S
C1949 C1952 1.499 . S
C1950 H1930 0.950 . S
C1950 C1949 1.414 . S
C1950 C1951 1.374 . S
C1951 H1931 0.950 . S
C1951 C1947 1.385 . S
C1951 C1950 1.374 . S
C1952 C1949 1.499 . S
C1952 C1953 1.373 . S
C1952 C1954 1.389 . S
C1953 H1932 0.950 . S
C1953 C1952 1.373 . S
C1953 C1969 1.377 . S
C1954 C1952 1.389 . S
C1954 C1955 1.524 . S
C1954 C1968 1.377 . S
C1955 C1954 1.524 . S
C1955 C1956 1.397 . S
C1955 C1960 1.363 . S
C1956 H1933 0.950 . S
C1956 C1955 1.397 . S
C1956 C1957 1.334 . S
C1957 H1934 0.950 . S
C1957 C1956 1.334 . S
C1957 C1958 1.287 . S
C1958 C1957 1.287 . S
C1958 C1959 1.524 . S
C1958 H1977 0.913 . S
C1959 H1935 0.950 . S
C1959 C1958 1.524 . S
C1959 C1960 1.415 . S
C1960 H1936 0.950 . S
C1960 C1955 1.363 . S
C1960 C1959 1.415 . S
C1961 H1937 0.951 . S
C1961 C1962 1.366 . S
C1961 C1963 1.388 . S
C1962 C1961 1.366 . S
C1962 C1966 1.385 . S
C1963 H1938 0.951 . S
C1963 C1961 1.388 . S
C1963 C1964 1.366 . S
C1964 C1963 1.366 . S
C1964 C1965 1.414 . S
C1964 C1967 1.499 . S
C1965 H1939 0.950 . S
C1965 C1964 1.414 . S
C1965 C1966 1.374 . S
C1966 H1940 0.950 . S
C1966 C1962 1.385 . S
C1966 C1965 1.374 . S
C1967 C1964 1.499 . S
C1967 C1968 1.373 . S
C1967 C1969 1.389 . S
C1968 H1941 0.950 . S
C1968 C1954 1.377 . S
C1968 C1967 1.373 . S
C1969 C1953 1.377 . S
C1969 C1967 1.389 . S
C1969 C1970 1.524 . S
C1970 C1969 1.524 . S
C1970 C1971 1.397 . S
C1970 C1975 1.363 . S
C1971 H1942 0.950 . S
C1971 C1970 1.397 . S
C1971 C1972 1.334 . S
C1972 H1943 0.950 . S
C1972 C1971 1.334 . S
C1972 C1973 1.287 . S
C1973 C1972 1.287 . S
C1973 C1974 1.524 . S
C1973 H1976 0.999 . S
C1974 H1944 0.950 . S
C1974 C1973 1.524 . S
C1974 C1975 1.415 . S
C1975 H1945 0.950 . S
C1975 C1970 1.363 . S
C1975 C1974 1.415 . S
H1976 C1973 0.999 . S
H1977 C1958 0.913 . S
H1978 C1996 0.951 . S
H1979 C1998 0.951 . S
H1980 C2000 0.950 . S
H1981 C2001 0.950 . S
H1982 C2003 0.950 . S
H1983 C2006 0.950 . S
H1984 C2007 0.950 . S
H1985 C2009 0.950 . S
H1986 C2010 0.950 . S
H1987 C2011 0.951 . S
H1988 C2013 0.951 . S
H1989 C2015 0.950 . S
H1990 C2016 0.950 . S
H1991 C2018 0.950 . S
H1992 C2021 0.950 . S
H1993 C2022 0.950 . S
H1994 C2024 0.950 . S
H1995 C2025 0.950 . S
C1996 H1978 0.951 . S
C1996 C1997 1.366 . S
C1996 C1998 1.388 . S
C1997 C1996 1.366 . S
C1997 C2001 1.385 . S
C1998 H1979 0.951 . S
C1998 C1996 1.388 . S
C1998 C1999 1.366 . S
C1999 C1998 1.366 . S
C1999 C2000 1.414 . S
C1999 C2002 1.499 . S
C2000 H1980 0.950 . S
C2000 C1999 1.414 . S
C2000 C2001 1.374 . S
C2001 H1981 0.950 . S
C2001 C1997 1.385 . S
C2001 C2000 1.374 . S
C2002 C1999 1.499 . S
C2002 C2003 1.373 . S
C2002 C2004 1.389 . S
C2003 H1982 0.950 . S
C2003 C2002 1.373 . S
C2003 C2019 1.377 . S
C2004 C2002 1.389 . S
C2004 C2005 1.524 . S
C2004 C2018 1.377 . S
C2005 C2004 1.524 . S
C2005 C2006 1.397 . S
C2005 C2010 1.363 . S
C2006 H1983 0.950 . S
C2006 C2005 1.397 . S
C2006 C2007 1.334 . S
C2007 H1984 0.950 . S
C2007 C2006 1.334 . S
C2007 C2008 1.287 . S
C2008 C2007 1.287 . S
C2008 C2009 1.524 . S
C2008 H2027 0.913 . S
C2009 H1985 0.950 . S
C2009 C2008 1.524 . S
C2009 C2010 1.415 . S
C2010 H1986 0.950 . S
C2010 C2005 1.363 . S
C2010 C2009 1.415 . S
C2011 H1987 0.951 . S
C2011 C2012 1.366 . S
C2011 C2013 1.388 . S
C2012 C2011 1.366 . S
C2012 C2016 1.385 . S
C2013 H1988 0.951 . S
C2013 C2011 1.388 . S
C2013 C2014 1.366 . S
C2014 C2013 1.366 . S
C2014 C2015 1.414 . S
C2014 C2017 1.499 . S
C2015 H1989 0.950 . S
C2015 C2014 1.414 . S
C2015 C2016 1.374 . S
C2016 H1990 0.950 . S
C2016 C2012 1.385 . S
C2016 C2015 1.374 . S
C2017 C2014 1.499 . S
C2017 C2018 1.373 . S
C2017 C2019 1.389 . S
C2018 H1991 0.950 . S
C2018 C2004 1.377 . S
C2018 C2017 1.373 . S
C2019 C2003 1.377 . S
C2019 C2017 1.389 . S
C2019 C2020 1.524 . S
C2020 C2019 1.524 . S
C2020 C2021 1.397 . S
C2020 C2025 1.363 . S
C2021 H1992 0.950 . S
C2021 C2020 1.397 . S
C2021 C2022 1.334 . S
C2022 H1993 0.950 . S
C2022 C2021 1.334 . S
C2022 C2023 1.287 . S
C2023 C2022 1.287 . S
C2023 C2024 1.524 . S
C2023 H2026 0.999 . S
C2024 H1994 0.950 . S
C2024 C2023 1.524 . S
C2024 C2025 1.415 . S
C2025 H1995 0.950 . S
C2025 C2020 1.363 . S
C2025 C2024 1.415 . S
H2026 C2023 0.999 . S
H2027 C2008 0.913 . S
H2028 C2046 0.936 1_545 S
H2029 C2048 0.951 . S
H2030 C2050 0.950 . S
H2031 C2051 0.950 . S
H2032 C2053 0.950 . S
H2033 C2056 0.946 1_565 S
H2034 C2057 0.950 . S
H2035 C2059 0.950 . S
H2036 C2060 0.950 . S
H2037 C2061 0.951 . S
H2038 C2063 0.916 1_554 S
H2039 C2065 0.950 . S
H2040 C2066 0.950 . S
H2041 C2068 0.950 . S
H2042 C2071 0.950 . S
H2043 C2072 0.950 . S
H2044 C2074 0.950 . S
H2045 C2075 0.950 . S
C2046 H2028 0.936 1_565 S
C2046 C2047 1.366 1_565 S
C2046 C2048 1.388 . S
C2047 C2046 1.366 1_545 S
C2047 C2051 1.385 1_545 S
C2048 H2029 0.951 . S
C2048 C2046 1.388 . S
C2048 C2049 1.366 . S
C2049 C2048 1.366 . S
C2049 C2050 1.414 . S
C2049 C2052 1.499 . S
C2050 H2030 0.950 . S
C2050 C2049 1.414 . S
C2050 C2051 1.374 . S
C2051 H2031 0.950 . S
C2051 C2047 1.385 1_565 S
C2051 C2050 1.374 . S
C2052 C2049 1.499 . S
C2052 C2053 1.373 . S
C2052 C2054 1.389 . S
C2053 H2032 0.950 . S
C2053 C2052 1.373 . S
C2053 C2069 1.377 . S
C2054 C2052 1.389 . S
C2054 C2055 1.524 . S
C2054 C2068 1.377 . S
C2055 C2054 1.524 . S
C2055 C2056 1.387 1_565 S
C2055 C2060 1.363 . S
C2056 H2033 0.946 1_545 S
C2056 C2055 1.387 1_545 S
C2056 C2057 1.345 . S
C2057 H2034 0.950 . S
C2057 C2056 1.345 . S
C2057 C2058 1.287 . S
C2058 C2057 1.287 . S
C2058 C2059 1.524 . S
C2058 H2077 0.913 . S
C2059 H2035 0.950 . S
C2059 C2058 1.524 . S
C2059 C2060 1.415 1_545 S
C2060 H2036 0.950 . S
C2060 C2055 1.363 . S
C2060 C2059 1.415 1_565 S
C2061 H2037 0.951 . S
C2061 C2062 1.366 1_554 S
C2061 C2063 1.376 1_554 S
C2062 C2061 1.366 1_556 S
C2062 C2066 1.385 . S
C2063 H2038 0.916 1_556 S
C2063 C2061 1.376 1_556 S
C2063 C2064 1.414 . S
C2064 C2063 1.414 . S
C2064 C2065 1.414 . S
C2064 C2067 1.499 . S
C2065 H2039 0.950 . S
C2065 C2064 1.414 . S
C2065 C2066 1.374 . S
C2066 H2040 0.950 . S
C2066 C2062 1.385 . S
C2066 C2065 1.374 . S
C2067 C2064 1.499 . S
C2067 C2068 1.373 . S
C2067 C2069 1.389 . S
C2068 H2041 0.950 . S
C2068 C2054 1.377 . S
C2068 C2067 1.373 . S
C2069 C2053 1.377 . S
C2069 C2067 1.389 . S
C2069 C2070 1.524 . S
C2070 C2069 1.524 . S
C2070 C2071 1.397 . S
C2070 C2075 1.363 1_556 S
C2071 H2042 0.950 . S
C2071 C2070 1.397 . S
C2071 C2072 1.334 . S
C2072 H2043 0.950 . S
C2072 C2071 1.334 . S
C2072 C2073 1.287 . S
C2073 C2072 1.287 . S
C2073 C2074 1.524 1_556 S
C2073 H2076 0.999 1_556 S
C2074 H2044 0.950 . S
C2074 C2073 1.524 1_554 S
C2074 C2075 1.415 . S
C2075 H2045 0.950 . S
C2075 C2070 1.363 1_554 S
C2075 C2074 1.415 . S
H2076 C2073 0.999 1_554 S
H2077 C2058 0.913 . S
H2078 C2096 0.951 . S
H2079 C2098 0.951 . S
H2080 C2100 0.950 . S
H2081 C2101 0.950 . S
H2082 C2103 0.950 . S
H2083 C2106 0.950 . S
H2084 C2107 0.950 . S
H2085 C2109 0.950 . S
H2086 C2110 0.950 . S
H2087 C2111 0.951 . S
H2088 C2113 0.951 . S
H2089 C2115 0.950 . S
H2090 C2116 0.950 . S
H2091 C2118 0.950 . S
H2092 C2121 0.950 . S
H2093 C2122 0.950 . S
H2094 C2124 0.950 . S
H2095 C2125 0.950 . S
C2096 H2078 0.951 . S
C2096 C2097 1.366 . S
C2096 C2098 1.388 . S
C2097 C2096 1.366 . S
C2097 C2101 1.385 . S
C2098 H2079 0.951 . S
C2098 C2096 1.388 . S
C2098 C2099 1.366 . S
C2099 C2098 1.366 . S
C2099 C2100 1.414 . S
C2099 C2102 1.499 . S
C2100 H2080 0.950 . S
C2100 C2099 1.414 . S
C2100 C2101 1.374 . S
C2101 H2081 0.950 . S
C2101 C2097 1.385 . S
C2101 C2100 1.374 . S
C2102 C2099 1.499 . S
C2102 C2103 1.373 . S
C2102 C2104 1.389 . S
C2103 H2082 0.950 . S
C2103 C2102 1.373 . S
C2103 C2119 1.377 . S
C2104 C2102 1.389 . S
C2104 C2105 1.524 . S
C2104 C2118 1.377 . S
C2105 C2104 1.524 . S
C2105 C2106 1.397 . S
C2105 C2110 1.363 . S
C2106 H2083 0.950 . S
C2106 C2105 1.397 . S
C2106 C2107 1.334 . S
C2107 H2084 0.950 . S
C2107 C2106 1.334 . S
C2107 C2108 1.287 . S
C2108 C2107 1.287 . S
C2108 C2109 1.524 . S
C2108 H2127 0.913 . S
C2109 H2085 0.950 . S
C2109 C2108 1.524 . S
C2109 C2110 1.415 . S
C2110 H2086 0.950 . S
C2110 C2105 1.363 . S
C2110 C2109 1.415 . S
C2111 H2087 0.951 . S
C2111 C2112 1.366 . S
C2111 C2113 1.388 . S
C2112 C2111 1.366 . S
C2112 C2116 1.385 . S
C2113 H2088 0.951 . S
C2113 C2111 1.388 . S
C2113 C2114 1.366 . S
C2114 C2113 1.366 . S
C2114 C2115 1.414 . S
C2114 C2117 1.499 . S
C2115 H2089 0.950 . S
C2115 C2114 1.414 . S
C2115 C2116 1.374 . S
C2116 H2090 0.950 . S
C2116 C2112 1.385 . S
C2116 C2115 1.374 . S
C2117 C2114 1.499 . S
C2117 C2118 1.373 . S
C2117 C2119 1.389 . S
C2118 H2091 0.950 . S
C2118 C2104 1.377 . S
C2118 C2117 1.373 . S
C2119 C2103 1.377 . S
C2119 C2117 1.389 . S
C2119 C2120 1.524 . S
C2120 C2119 1.524 . S
C2120 C2121 1.397 . S
C2120 C2125 1.363 . S
C2121 H2092 0.950 . S
C2121 C2120 1.397 . S
C2121 C2122 1.334 . S
C2122 H2093 0.950 . S
C2122 C2121 1.334 . S
C2122 C2123 1.287 . S
C2123 C2122 1.287 . S
C2123 C2124 1.524 . S
C2123 H2126 0.999 . S
C2124 H2094 0.950 . S
C2124 C2123 1.524 . S
C2124 C2125 1.415 . S
C2125 H2095 0.950 . S
C2125 C2120 1.363 . S
C2125 C2124 1.415 . S
H2126 C2123 0.999 . S
H2127 C2108 0.913 . S
H2128 C2146 0.951 . S
H2129 C2148 0.951 . S
H2130 C2150 0.950 . S
H2131 C2151 0.950 1_565 S
H2132 C2153 0.950 . S
H2133 C2156 0.950 . S
H2134 C2157 0.950 . S
H2135 C2159 0.950 . S
H2136 C2160 0.950 . S
H2137 C2161 0.951 . S
H2138 C2163 0.951 . S
H2139 C2165 0.950 . S
H2140 C2166 0.950 . S
H2141 C2168 0.950 . S
H2142 C2171 0.950 . S
H2143 C2172 0.950 . S
H2144 C2174 0.950 . S
H2145 C2175 0.950 . S
C2146 H2128 0.951 . S
C2146 C2147 1.366 . S
C2146 C2148 1.388 . S
C2147 C2146 1.366 . S
C2147 C2151 1.385 . S
C2148 H2129 0.951 . S
C2148 C2146 1.388 . S
C2148 C2149 1.366 . S
C2149 C2148 1.366 . S
C2149 C2150 1.414 . S
C2149 C2152 1.499 . S
C2150 H2130 0.950 . S
C2150 C2149 1.414 . S
C2150 C2151 1.374 . S
C2151 H2131 0.950 1_545 S
C2151 C2147 1.385 . S
C2151 C2150 1.374 . S
C2152 C2149 1.499 . S
C2152 C2153 1.373 . S
C2152 C2154 1.389 . S
C2153 H2132 0.950 . S
C2153 C2152 1.373 . S
C2153 C2169 1.377 . S
C2154 C2152 1.389 . S
C2154 C2155 1.524 . S
C2154 C2168 1.377 . S
C2155 C2154 1.524 . S
C2155 C2156 1.397 . S
C2155 C2160 1.363 . S
C2156 H2133 0.950 . S
C2156 C2155 1.397 . S
C2156 C2157 1.334 . S
C2157 H2134 0.950 . S
C2157 C2156 1.334 . S
C2157 C2158 1.287 . S
C2158 C2157 1.287 . S
C2158 C2159 1.524 . S
C2158 H2177 0.913 . S
C2159 H2135 0.950 . S
C2159 C2158 1.524 . S
C2159 C2160 1.415 . S
C2160 H2136 0.950 . S
C2160 C2155 1.363 . S
C2160 C2159 1.415 . S
C2161 H2137 0.951 . S
C2161 C2162 1.366 . S
C2161 C2163 1.388 . S
C2162 C2161 1.366 . S
C2162 C2166 1.385 . S
C2163 H2138 0.951 . S
C2163 C2161 1.388 . S
C2163 C2164 1.366 . S
C2164 C2163 1.366 . S
C2164 C2165 1.414 . S
C2164 C2167 1.499 . S
C2165 H2139 0.950 . S
C2165 C2164 1.414 . S
C2165 C2166 1.374 . S
C2166 H2140 0.950 . S
C2166 C2162 1.385 . S
C2166 C2165 1.374 . S
C2167 C2164 1.499 . S
C2167 C2168 1.373 . S
C2167 C2169 1.389 . S
C2168 H2141 0.950 . S
C2168 C2154 1.377 . S
C2168 C2167 1.373 . S
C2169 C2153 1.377 . S
C2169 C2167 1.389 . S
C2169 C2170 1.524 . S
C2170 C2169 1.524 . S
C2170 C2171 1.397 . S
C2170 C2175 1.363 . S
C2171 H2142 0.950 . S
C2171 C2170 1.397 . S
C2171 C2172 1.334 . S
C2172 H2143 0.950 . S
C2172 C2171 1.334 . S
C2172 C2173 1.287 . S
C2173 C2172 1.287 . S
C2173 C2174 1.524 . S
C2173 H2176 0.999 . S
C2174 H2144 0.950 . S
C2174 C2173 1.524 . S
C2174 C2175 1.415 . S
C2175 H2145 0.950 . S
C2175 C2170 1.363 . S
C2175 C2174 1.415 . S
H2176 C2173 0.999 . S
H2177 C2158 0.913 . S
H2178 C2196 0.951 . S
H2179 C2198 0.951 . S
H2180 C2200 0.950 . S
H2181 C2201 0.950 . S
H2182 C2203 0.950 . S
H2183 C2206 0.950 . S
H2184 C2207 0.950 . S
H2185 C2209 0.950 . S
H2186 C2210 0.950 . S
H2187 C2211 0.951 . S
H2188 C2213 0.951 . S
H2189 C2215 0.950 . S
H2190 C2216 0.950 . S
H2191 C2218 0.950 . S
H2192 C2221 0.950 . S
H2193 C2222 0.950 . S
H2194 C2224 0.950 . S
H2195 C2225 0.950 . S
C2196 H2178 0.951 . S
C2196 C2197 1.366 . S
C2196 C2198 1.388 . S
C2197 C2196 1.366 . S
C2197 C2201 1.385 . S
C2198 H2179 0.951 . S
C2198 C2196 1.388 . S
C2198 C2199 1.366 . S
C2199 C2198 1.366 . S
C2199 C2200 1.414 . S
C2199 C2202 1.499 . S
C2200 H2180 0.950 . S
C2200 C2199 1.414 . S
C2200 C2201 1.374 . S
C2201 H2181 0.950 . S
C2201 C2197 1.385 . S
C2201 C2200 1.374 . S
C2202 C2199 1.499 . S
C2202 C2203 1.373 . S
C2202 C2204 1.389 . S
C2203 H2182 0.950 . S
C2203 C2202 1.373 . S
C2203 C2219 1.377 . S
C2204 C2202 1.389 . S
C2204 C2205 1.524 . S
C2204 C2218 1.377 . S
C2205 C2204 1.524 . S
C2205 C2206 1.397 . S
C2205 C2210 1.363 . S
C2206 H2183 0.950 . S
C2206 C2205 1.397 . S
C2206 C2207 1.334 . S
C2207 H2184 0.950 . S
C2207 C2206 1.334 . S
C2207 C2208 1.287 . S
C2208 C2207 1.287 . S
C2208 C2209 1.524 . S
C2208 H2227 0.913 . S
C2209 H2185 0.950 . S
C2209 C2208 1.524 . S
C2209 C2210 1.415 . S
C2210 H2186 0.950 . S
C2210 C2205 1.363 . S
C2210 C2209 1.415 . S
C2211 H2187 0.951 . S
C2211 C2212 1.366 . S
C2211 C2213 1.388 . S
C2212 C2211 1.366 . S
C2212 C2216 1.385 . S
C2213 H2188 0.951 . S
C2213 C2211 1.388 . S
C2213 C2214 1.366 . S
C2214 C2213 1.366 . S
C2214 C2215 1.414 . S
C2214 C2217 1.499 . S
C2215 H2189 0.950 . S
C2215 C2214 1.414 . S
C2215 C2216 1.374 . S
C2216 H2190 0.950 . S
C2216 C2212 1.385 . S
C2216 C2215 1.374 . S
C2217 C2214 1.499 . S
C2217 C2218 1.373 . S
C2217 C2219 1.389 . S
C2218 H2191 0.950 . S
C2218 C2204 1.377 . S
C2218 C2217 1.373 . S
C2219 C2203 1.377 . S
C2219 C2217 1.389 . S
C2219 C2220 1.524 . S
C2220 C2219 1.524 . S
C2220 C2221 1.397 . S
C2220 C2225 1.363 . S
C2221 H2192 0.950 . S
C2221 C2220 1.397 . S
C2221 C2222 1.334 . S
C2222 H2193 0.950 . S
C2222 C2221 1.334 . S
C2222 C2223 1.287 . S
C2223 C2222 1.287 . S
C2223 C2224 1.524 . S
C2223 H2226 0.999 . S
C2224 H2194 0.950 . S
C2224 C2223 1.524 . S
C2224 C2225 1.415 . S
C2225 H2195 0.950 . S
C2225 C2220 1.363 . S
C2225 C2224 1.415 . S
H2226 C2223 0.999 . S
H2227 C2208 0.913 . S
H2228 C2246 0.951 . S
H2229 C2248 0.951 . S
H2230 C2250 0.950 . S
H2231 C2251 0.950 1_565 S
H2232 C2253 0.950 . S
H2233 C2256 0.950 . S
H2234 C2257 0.950 . S
H2235 C2259 0.950 . S
H2236 C2260 0.950 . S
H2237 C2261 0.951 . S
H2238 C2263 0.951 . S
H2239 C2265 0.950 . S
H2240 C2266 0.950 . S
H2241 C2268 0.950 . S
H2242 C2271 0.950 . S
H2243 C2272 0.950 . S
H2244 C2274 0.950 . S
H2245 C2275 0.950 . S
C2246 H2228 0.951 . S
C2246 C2247 1.366 . S
C2246 C2248 1.388 . S
C2247 C2246 1.366 . S
C2247 C2251 1.385 . S
C2248 H2229 0.951 . S
C2248 C2246 1.388 . S
C2248 C2249 1.366 . S
C2249 C2248 1.366 . S
C2249 C2250 1.414 . S
C2249 C2252 1.499 . S
C2250 H2230 0.950 . S
C2250 C2249 1.414 . S
C2250 C2251 1.374 . S
C2251 H2231 0.950 1_545 S
C2251 C2247 1.385 . S
C2251 C2250 1.374 . S
C2252 C2249 1.499 . S
C2252 C2253 1.373 . S
C2252 C2254 1.389 . S
C2253 H2232 0.950 . S
C2253 C2252 1.373 . S
C2253 C2269 1.377 . S
C2254 C2252 1.389 . S
C2254 C2255 1.524 . S
C2254 C2268 1.377 . S
C2255 C2254 1.524 . S
C2255 C2256 1.397 . S
C2255 C2260 1.363 . S
C2256 H2233 0.950 . S
C2256 C2255 1.397 . S
C2256 C2257 1.334 . S
C2257 H2234 0.950 . S
C2257 C2256 1.334 . S
C2257 C2258 1.287 . S
C2258 C2257 1.287 . S
C2258 C2259 1.524 . S
C2258 H2277 0.913 . S
C2259 H2235 0.950 . S
C2259 C2258 1.524 . S
C2259 C2260 1.415 . S
C2260 H2236 0.950 . S
C2260 C2255 1.363 . S
C2260 C2259 1.415 . S
C2261 H2237 0.951 . S
C2261 C2262 1.366 . S
C2261 C2263 1.388 . S
C2262 C2261 1.366 . S
C2262 C2266 1.385 . S
C2263 H2238 0.951 . S
C2263 C2261 1.388 . S
C2263 C2264 1.366 . S
C2264 C2263 1.366 . S
C2264 C2265 1.414 . S
C2264 C2267 1.499 . S
C2265 H2239 0.950 . S
C2265 C2264 1.414 . S
C2265 C2266 1.374 . S
C2266 H2240 0.950 . S
C2266 C2262 1.385 . S
C2266 C2265 1.374 . S
C2267 C2264 1.499 . S
C2267 C2268 1.373 . S
C2267 C2269 1.389 . S
C2268 H2241 0.950 . S
C2268 C2254 1.377 . S
C2268 C2267 1.373 . S
C2269 C2253 1.377 . S
C2269 C2267 1.389 . S
C2269 C2270 1.524 . S
C2270 C2269 1.524 . S
C2270 C2271 1.397 . S
C2270 C2275 1.363 . S
C2271 H2242 0.950 . S
C2271 C2270 1.397 . S
C2271 C2272 1.334 . S
C2272 H2243 0.950 . S
C2272 C2271 1.334 . S
C2272 C2273 1.287 . S
C2273 C2272 1.287 . S
C2273 C2274 1.524 . S
C2273 H2276 0.999 . S
C2274 H2244 0.950 . S
C2274 C2273 1.524 . S
C2274 C2275 1.415 . S
C2275 H2245 0.950 . S
C2275 C2270 1.363 . S
C2275 C2274 1.415 . S
H2276 C2273 0.999 . S
H2277 C2258 0.913 . S
H2278 C2296 0.951 . S
H2279 C2298 0.951 . S
H2280 C2300 0.950 . S
H2281 C2301 0.950 . S
H2282 C2303 0.950 . S
H2283 C2306 0.950 . S
H2284 C2307 0.950 . S
H2285 C2309 0.950 . S
H2286 C2310 0.950 . S
H2287 C2311 0.951 . S
H2288 C2313 0.951 . S
H2289 C2315 0.950 . S
H2290 C2316 0.950 . S
H2291 C2318 0.950 . S
H2292 C2321 0.950 . S
H2293 C2322 0.950 . S
H2294 C2324 0.950 . S
H2295 C2325 0.950 . S
C2296 H2278 0.951 . S
C2296 C2297 1.366 . S
C2296 C2298 1.388 . S
C2297 C2296 1.366 . S
C2297 C2301 1.385 . S
C2298 H2279 0.951 . S
C2298 C2296 1.388 . S
C2298 C2299 1.366 . S
C2299 C2298 1.366 . S
C2299 C2300 1.414 . S
C2299 C2302 1.499 . S
C2300 H2280 0.950 . S
C2300 C2299 1.414 . S
C2300 C2301 1.374 . S
C2301 H2281 0.950 . S
C2301 C2297 1.385 . S
C2301 C2300 1.374 . S
C2302 C2299 1.499 . S
C2302 C2303 1.373 . S
C2302 C2304 1.389 . S
C2303 H2282 0.950 . S
C2303 C2302 1.373 . S
C2303 C2319 1.377 . S
C2304 C2302 1.389 . S
C2304 C2305 1.524 . S
C2304 C2318 1.377 . S
C2305 C2304 1.524 . S
C2305 C2306 1.397 . S
C2305 C2310 1.363 . S
C2306 H2283 0.950 . S
C2306 C2305 1.397 . S
C2306 C2307 1.334 . S
C2307 H2284 0.950 . S
C2307 C2306 1.334 . S
C2307 C2308 1.287 . S
C2308 C2307 1.287 . S
C2308 C2309 1.524 . S
C2308 H2327 0.913 . S
C2309 H2285 0.950 . S
C2309 C2308 1.524 . S
C2309 C2310 1.415 . S
C2310 H2286 0.950 . S
C2310 C2305 1.363 . S
C2310 C2309 1.415 . S
C2311 H2287 0.951 . S
C2311 C2312 1.366 . S
C2311 C2313 1.388 . S
C2312 C2311 1.366 . S
C2312 C2316 1.385 . S
C2313 H2288 0.951 . S
C2313 C2311 1.388 . S
C2313 C2314 1.366 . S
C2314 C2313 1.366 . S
C2314 C2315 1.414 . S
C2314 C2317 1.499 . S
C2315 H2289 0.950 . S
C2315 C2314 1.414 . S
C2315 C2316 1.374 . S
C2316 H2290 0.950 . S
C2316 C2312 1.385 . S
C2316 C2315 1.374 . S
C2317 C2314 1.499 . S
C2317 C2318 1.373 . S
C2317 C2319 1.389 . S
C2318 H2291 0.950 . S
C2318 C2304 1.377 . S
C2318 C2317 1.373 . S
C2319 C2303 1.377 . S
C2319 C2317 1.389 . S
C2319 C2320 1.524 . S
C2320 C2319 1.524 . S
C2320 C2321 1.397 . S
C2320 C2325 1.363 . S
C2321 H2292 0.950 . S
C2321 C2320 1.397 . S
C2321 C2322 1.334 . S
C2322 H2293 0.950 . S
C2322 C2321 1.334 . S
C2322 C2323 1.287 . S
C2323 C2322 1.287 . S
C2323 C2324 1.524 . S
C2323 H2326 0.999 . S
C2324 H2294 0.950 . S
C2324 C2323 1.524 . S
C2324 C2325 1.415 . S
C2325 H2295 0.950 . S
C2325 C2320 1.363 . S
C2325 C2324 1.415 . S
H2326 C2323 0.999 . S
H2327 C2308 0.913 . S
H2328 C2346 0.951 . S
H2329 C2348 0.951 . S
H2330 C2350 0.950 . S
H2331 C2351 0.950 . S
H2332 C2353 0.950 . S
H2333 C2356 0.950 . S
H2334 C2357 0.950 . S
H2335 C2359 0.950 . S
H2336 C2360 0.950 . S
H2337 C2361 0.951 . S
H2338 C2363 0.951 . S
H2339 C2365 0.950 . S
H2340 C2366 0.950 . S
H2341 C2368 0.950 . S
H2342 C2371 0.950 . S
H2343 C2372 0.950 . S
H2344 C2374 0.950 . S
H2345 C2375 0.950 . S
C2346 H2328 0.951 . S
C2346 C2347 1.366 . S
C2346 C2348 1.388 . S
C2347 C2346 1.366 . S
C2347 C2351 1.385 . S
C2348 H2329 0.951 . S
C2348 C2346 1.388 . S
C2348 C2349 1.366 . S
C2349 C2348 1.366 . S
C2349 C2350 1.414 . S
C2349 C2352 1.499 . S
C2350 H2330 0.950 . S
C2350 C2349 1.414 . S
C2350 C2351 1.374 . S
C2351 H2331 0.950 . S
C2351 C2347 1.385 . S
C2351 C2350 1.374 . S
C2352 C2349 1.499 . S
C2352 C2353 1.373 . S
C2352 C2354 1.389 . S
C2353 H2332 0.950 . S
C2353 C2352 1.373 . S
C2353 C2369 1.377 . S
C2354 C2352 1.389 . S
C2354 C2355 1.524 . S
C2354 C2368 1.377 . S
C2355 C2354 1.524 . S
C2355 C2356 1.397 . S
C2355 C2360 1.363 . S
C2356 H2333 0.950 . S
C2356 C2355 1.397 . S
C2356 C2357 1.334 . S
C2357 H2334 0.950 . S
C2357 C2356 1.334 . S
C2357 C2358 1.287 . S
C2358 C2357 1.287 . S
C2358 C2359 1.524 . S
C2358 H2377 0.913 . S
C2359 H2335 0.950 . S
C2359 C2358 1.524 . S
C2359 C2360 1.415 . S
C2360 H2336 0.950 . S
C2360 C2355 1.363 . S
C2360 C2359 1.415 . S
C2361 H2337 0.951 . S
C2361 C2362 1.366 . S
C2361 C2363 1.388 . S
C2362 C2361 1.366 . S
C2362 C2366 1.385 . S
C2363 H2338 0.951 . S
C2363 C2361 1.388 . S
C2363 C2364 1.366 . S
C2364 C2363 1.366 . S
C2364 C2365 1.414 . S
C2364 C2367 1.499 . S
C2365 H2339 0.950 . S
C2365 C2364 1.414 . S
C2365 C2366 1.374 . S
C2366 H2340 0.950 . S
C2366 C2362 1.385 . S
C2366 C2365 1.374 . S
C2367 C2364 1.499 . S
C2367 C2368 1.373 . S
C2367 C2369 1.389 . S
C2368 H2341 0.950 . S
C2368 C2354 1.377 . S
C2368 C2367 1.373 . S
C2369 C2353 1.377 . S
C2369 C2367 1.389 . S
C2369 C2370 1.524 . S
C2370 C2369 1.524 . S
C2370 C2371 1.397 . S
C2370 C2375 1.363 . S
C2371 H2342 0.950 . S
C2371 C2370 1.397 . S
C2371 C2372 1.334 . S
C2372 H2343 0.950 . S
C2372 C2371 1.334 . S
C2372 C2373 1.287 . S
C2373 C2372 1.287 . S
C2373 C2374 1.524 . S
C2373 H2376 0.999 . S
C2374 H2344 0.950 . S
C2374 C2373 1.524 . S
C2374 C2375 1.415 . S
C2375 H2345 0.950 . S
C2375 C2370 1.363 . S
C2375 C2374 1.415 . S
H2376 C2373 0.999 . S
H2377 C2358 0.913 . S
H2378 C2396 0.951 . S
H2379 C2398 0.951 . S
H2380 C2400 0.950 . S
H2381 C2401 0.950 . S
H2382 C2403 0.950 . S
H2383 C2406 0.926 1_545 S
H2384 C2407 0.950 . S
H2385 C2409 0.950 . S
H2386 C2410 0.950 . S
H2387 C2411 0.951 . S
H2388 C2413 0.951 . S
H2389 C2415 0.950 . S
H2390 C2416 0.950 . S
H2391 C2418 0.950 . S
H2392 C2421 0.950 . S
H2393 C2422 0.950 . S
H2394 C2424 0.950 . S
H2395 C2425 0.950 . S
C2396 H2378 0.951 . S
C2396 C2397 1.366 . S
C2396 C2398 1.388 . S
C2397 C2396 1.366 . S
C2397 C2401 1.385 . S
C2398 H2379 0.951 . S
C2398 C2396 1.388 . S
C2398 C2399 1.366 . S
C2399 C2398 1.366 . S
C2399 C2400 1.414 . S
C2399 C2402 1.499 . S
C2400 H2380 0.950 . S
C2400 C2399 1.414 . S
C2400 C2401 1.374 . S
C2401 H2381 0.950 . S
C2401 C2397 1.385 . S
C2401 C2400 1.374 . S
C2402 C2399 1.499 . S
C2402 C2403 1.373 . S
C2402 C2404 1.389 . S
C2403 H2382 0.950 . S
C2403 C2402 1.373 . S
C2403 C2419 1.377 . S
C2404 C2402 1.389 . S
C2404 C2405 1.524 . S
C2404 C2418 1.377 . S
C2405 C2404 1.524 . S
C2405 C2406 1.397 1_545 S
C2405 C2410 1.363 1_545 S
C2406 H2383 0.926 1_565 S
C2406 C2405 1.397 1_565 S
C2406 C2407 1.334 . S
C2407 H2384 0.950 . S
C2407 C2406 1.334 . S
C2407 C2408 1.287 . S
C2408 C2407 1.287 . S
C2408 C2409 1.524 . S
C2408 H2427 0.913 . S
C2409 H2385 0.950 . S
C2409 C2408 1.524 . S
C2409 C2410 1.415 . S
C2410 H2386 0.950 . S
C2410 C2405 1.363 1_565 S
C2410 C2409 1.415 . S
C2411 H2387 0.951 . S
C2411 C2412 1.366 . S
C2411 C2413 1.388 . S
C2412 C2411 1.366 . S
C2412 C2416 1.385 . S
C2413 H2388 0.951 . S
C2413 C2411 1.388 . S
C2413 C2414 1.366 . S
C2414 C2413 1.366 . S
C2414 C2415 1.414 . S
C2414 C2417 1.499 . S
C2415 H2389 0.950 . S
C2415 C2414 1.414 . S
C2415 C2416 1.374 . S
C2416 H2390 0.950 . S
C2416 C2412 1.385 . S
C2416 C2415 1.374 . S
C2417 C2414 1.499 . S
C2417 C2418 1.373 . S
C2417 C2419 1.389 . S
C2418 H2391 0.950 . S
C2418 C2404 1.377 . S
C2418 C2417 1.373 . S
C2419 C2403 1.377 . S
C2419 C2417 1.389 . S
C2419 C2420 1.524 . S
C2420 C2419 1.524 . S
C2420 C2421 1.397 . S
C2420 C2425 1.363 . S
C2421 H2392 0.950 . S
C2421 C2420 1.397 . S
C2421 C2422 1.334 . S
C2422 H2393 0.950 . S
C2422 C2421 1.334 . S
C2422 C2423 1.287 . S
C2423 C2422 1.287 . S
C2423 C2424 1.524 . S
C2423 H2426 0.999 . S
C2424 H2394 0.950 . S
C2424 C2423 1.524 . S
C2424 C2425 1.415 . S
C2425 H2395 0.950 . S
C2425 C2420 1.363 . S
C2425 C2424 1.415 . S
H2426 C2423 0.999 . S
H2427 C2408 0.913 . S
H2428 C2446 0.951 . S
H2429 C2448 0.951 . S
H2430 C2450 0.950 . S
H2431 C2451 0.950 . S
H2432 C2453 0.950 . S
H2433 C2456 0.950 . S
H2434 C2457 0.950 . S
H2435 C2459 0.950 . S
H2436 C2460 0.950 . S
H2437 C2461 0.951 . S
H2438 C2463 0.951 . S
H2439 C2465 0.950 . S
H2440 C2466 0.950 . S
H2441 C2468 0.950 . S
H2442 C2471 0.950 . S
H2443 C2472 0.950 . S
H2444 C2474 0.950 . S
H2445 C2475 0.950 . S
C2446 H2428 0.951 . S
C2446 C2447 1.366 . S
C2446 C2448 1.388 . S
C2447 C2446 1.366 . S
C2447 C2451 1.385 . S
C2448 H2429 0.951 . S
C2448 C2446 1.388 . S
C2448 C2449 1.366 . S
C2449 C2448 1.366 . S
C2449 C2450 1.414 . S
C2449 C2452 1.499 . S
C2450 H2430 0.950 . S
C2450 C2449 1.414 . S
C2450 C2451 1.374 . S
C2451 H2431 0.950 . S
C2451 C2447 1.385 . S
C2451 C2450 1.374 . S
C2452 C2449 1.499 . S
C2452 C2453 1.373 . S
C2452 C2454 1.389 . S
C2453 H2432 0.950 . S
C2453 C2452 1.373 . S
C2453 C2469 1.377 . S
C2454 C2452 1.389 . S
C2454 C2455 1.524 . S
C2454 C2468 1.377 . S
C2455 C2454 1.524 . S
C2455 C2456 1.397 . S
C2455 C2460 1.363 . S
C2456 H2433 0.950 . S
C2456 C2455 1.397 . S
C2456 C2457 1.334 . S
C2457 H2434 0.950 . S
C2457 C2456 1.334 . S
C2457 C2458 1.287 . S
C2458 C2457 1.287 . S
C2458 C2459 1.524 . S
C2458 H2477 0.913 . S
C2459 H2435 0.950 . S
C2459 C2458 1.524 . S
C2459 C2460 1.415 . S
C2460 H2436 0.950 . S
C2460 C2455 1.363 . S
C2460 C2459 1.415 . S
C2461 H2437 0.951 . S
C2461 C2462 1.366 . S
C2461 C2463 1.388 . S
C2462 C2461 1.366 . S
C2462 C2466 1.385 . S
C2463 H2438 0.951 . S
C2463 C2461 1.388 . S
C2463 C2464 1.366 . S
C2464 C2463 1.366 . S
C2464 C2465 1.414 . S
C2464 C2467 1.499 . S
C2465 H2439 0.950 . S
C2465 C2464 1.414 . S
C2465 C2466 1.374 . S
C2466 H2440 0.950 . S
C2466 C2462 1.385 . S
C2466 C2465 1.374 . S
C2467 C2464 1.499 . S
C2467 C2468 1.373 . S
C2467 C2469 1.389 . S
C2468 H2441 0.950 . S
C2468 C2454 1.377 . S
C2468 C2467 1.373 . S
C2469 C2453 1.377 . S
C2469 C2467 1.389 . S
C2469 C2470 1.524 . S
C2470 C2469 1.524 . S
C2470 C2471 1.397 . S
C2470 C2475 1.363 . S
C2471 H2442 0.950 . S
C2471 C2470 1.397 . S
C2471 C2472 1.334 . S
C2472 H2443 0.950 . S
C2472 C2471 1.334 . S
C2472 C2473 1.287 . S
C2473 C2472 1.287 . S
C2473 C2474 1.524 . S
C2473 H2476 0.999 . S
C2474 H2444 0.950 . S
C2474 C2473 1.524 . S
C2474 C2475 1.415 . S
C2475 H2445 0.950 . S
C2475 C2470 1.363 . S
C2475 C2474 1.415 . S
H2476 C2473 0.999 . S
H2477 C2458 0.913 . S
H2478 C2496 0.951 . S
H2479 C2498 0.951 . S
H2480 C2500 0.950 . S
H2481 C2501 0.950 . S
H2482 C2503 0.950 . S
H2483 C2506 0.950 . S
H2484 C2507 0.950 . S
H2485 C2509 0.950 . S
H2486 C2510 0.950 . S
H2487 C2511 0.951 . S
H2488 C2513 0.951 . S
H2489 C2515 0.950 . S
H2490 C2516 0.950 . S
H2491 C2518 0.950 . S
H2492 C2521 0.950 . S
H2493 C2522 0.950 . S
H2494 C2524 0.950 . S
H2495 C2525 0.950 . S
C2496 H2478 0.951 . S
C2496 C2497 1.366 . S
C2496 C2498 1.388 . S
C2497 C2496 1.366 . S
C2497 C2501 1.385 . S
C2498 H2479 0.951 . S
C2498 C2496 1.388 . S
C2498 C2499 1.366 . S
C2499 C2498 1.366 . S
C2499 C2500 1.414 . S
C2499 C2502 1.499 . S
C2500 H2480 0.950 . S
C2500 C2499 1.414 . S
C2500 C2501 1.374 . S
C2501 H2481 0.950 . S
C2501 C2497 1.385 . S
C2501 C2500 1.374 . S
C2502 C2499 1.499 . S
C2502 C2503 1.373 . S
C2502 C2504 1.389 . S
C2503 H2482 0.950 . S
C2503 C2502 1.373 . S
C2503 C2519 1.377 . S
C2504 C2502 1.389 . S
C2504 C2505 1.524 . S
C2504 C2518 1.377 . S
C2505 C2504 1.524 . S
C2505 C2506 1.397 . S
C2505 C2510 1.363 . S
C2506 H2483 0.950 . S
C2506 C2505 1.397 . S
C2506 C2507 1.334 . S
C2507 H2484 0.950 . S
C2507 C2506 1.334 . S
C2507 C2508 1.287 . S
C2508 C2507 1.287 . S
C2508 C2509 1.524 . S
C2508 H2527 0.913 . S
C2509 H2485 0.950 . S
C2509 C2508 1.524 . S
C2509 C2510 1.415 . S
C2510 H2486 0.950 . S
C2510 C2505 1.363 . S
C2510 C2509 1.415 . S
C2511 H2487 0.951 . S
C2511 C2512 1.366 . S
C2511 C2513 1.388 . S
C2512 C2511 1.366 . S
C2512 C2516 1.385 . S
C2513 H2488 0.951 . S
C2513 C2511 1.388 . S
C2513 C2514 1.366 . S
C2514 C2513 1.366 . S
C2514 C2515 1.414 . S
C2514 C2517 1.499 . S
C2515 H2489 0.950 . S
C2515 C2514 1.414 . S
C2515 C2516 1.374 . S
C2516 H2490 0.950 . S
C2516 C2512 1.385 . S
C2516 C2515 1.374 . S
C2517 C2514 1.499 . S
C2517 C2518 1.373 . S
C2517 C2519 1.389 . S
C2518 H2491 0.950 . S
C2518 C2504 1.377 . S
C2518 C2517 1.373 . S
C2519 C2503 1.377 . S
C2519 C2517 1.389 . S
C2519 C2520 1.524 . S
C2520 C2519 1.524 . S
C2520 C2521 1.397 . S
C2520 C2525 1.363 . S
C2521 H2492 0.950 . S
C2521 C2520 1.397 . S
C2521 C2522 1.334 . S
C2522 H2493 0.950 . S
C2522 C2521 1.334 . S
C2522 C2523 1.287 . S
C2523 C2522 1.287 . S
C2523 C2524 1.524 . S
C2523 H2526 0.999 . S
C2524 H2494 0.950 . S
C2524 C2523 1.524 . S
C2524 C2525 1.415 . S
C2525 H2495 0.950 . S
C2525 C2520 1.363 . S
C2525 C2524 1.415 . S
H2526 C2523 0.999 . S
H2527 C2508 0.913 . S
H2528 C2546 0.951 . S
H2529 C2548 0.951 . S
H2530 C2550 0.950 . S
H2531 C2551 0.950 . S
H2532 C2553 0.950 . S
H2533 C2556 0.950 . S
H2534 C2557 0.950 . S
H2535 C2559 0.950 . S
H2536 C2560 0.950 . S
H2537 C2561 0.951 . S
H2538 C2563 0.951 . S
H2539 C2565 0.950 . S
H2540 C2566 0.950 . S
H2541 C2568 0.950 . S
H2542 C2571 0.950 . S
H2543 C2572 0.950 . S
H2544 C2574 0.950 . S
H2545 C2575 0.950 . S
C2546 H2528 0.951 . S
C2546 C2547 1.366 . S
C2546 C2548 1.388 . S
C2547 C2546 1.366 . S
C2547 C2551 1.385 . S
C2548 H2529 0.951 . S
C2548 C2546 1.388 . S
C2548 C2549 1.366 . S
C2549 C2548 1.366 . S
C2549 C2550 1.414 . S
C2549 C2552 1.499 . S
C2550 H2530 0.950 . S
C2550 C2549 1.414 . S
C2550 C2551 1.374 . S
C2551 H2531 0.950 . S
C2551 C2547 1.385 . S
C2551 C2550 1.374 . S
C2552 C2549 1.499 . S
C2552 C2553 1.373 . S
C2552 C2554 1.389 . S
C2553 H2532 0.950 . S
C2553 C2552 1.373 . S
C2553 C2569 1.377 . S
C2554 C2552 1.389 . S
C2554 C2555 1.524 . S
C2554 C2568 1.377 . S
C2555 C2554 1.524 . S
C2555 C2556 1.397 . S
C2555 C2560 1.363 . S
C2556 H2533 0.950 . S
C2556 C2555 1.397 . S
C2556 C2557 1.334 . S
C2557 H2534 0.950 . S
C2557 C2556 1.334 . S
C2557 C2558 1.287 . S
C2558 C2557 1.287 . S
C2558 C2559 1.524 . S
C2558 H2577 0.913 . S
C2559 H2535 0.950 . S
C2559 C2558 1.524 . S
C2559 C2560 1.415 . S
C2560 H2536 0.950 . S
C2560 C2555 1.363 . S
C2560 C2559 1.415 . S
C2561 H2537 0.951 . S
C2561 C2562 1.366 . S
C2561 C2563 1.388 . S
C2562 C2561 1.366 . S
C2562 C2566 1.385 . S
C2563 H2538 0.951 . S
C2563 C2561 1.388 . S
C2563 C2564 1.366 . S
C2564 C2563 1.366 . S
C2564 C2565 1.414 . S
C2564 C2567 1.499 . S
C2565 H2539 0.950 . S
C2565 C2564 1.414 . S
C2565 C2566 1.374 . S
C2566 H2540 0.950 . S
C2566 C2562 1.385 . S
C2566 C2565 1.374 . S
C2567 C2564 1.499 . S
C2567 C2568 1.373 . S
C2567 C2569 1.389 . S
C2568 H2541 0.950 . S
C2568 C2554 1.377 . S
C2568 C2567 1.373 . S
C2569 C2553 1.377 . S
C2569 C2567 1.389 . S
C2569 C2570 1.524 . S
C2570 C2569 1.524 . S
C2570 C2571 1.397 . S
C2570 C2575 1.363 . S
C2571 H2542 0.950 . S
C2571 C2570 1.397 . S
C2571 C2572 1.334 . S
C2572 H2543 0.950 . S
C2572 C2571 1.334 . S
C2572 C2573 1.287 . S
C2573 C2572 1.287 . S
C2573 C2574 1.524 . S
C2573 H2576 0.999 . S
C2574 H2544 0.950 . S
C2574 C2573 1.524 . S
C2574 C2575 1.415 . S
C2575 H2545 0.950 . S
C2575 C2570 1.363 . S
C2575 C2574 1.415 . S
H2576 C2573 0.999 . S
H2577 C2558 0.913 . S
H2578 C2596 0.951 1_455 S
H2579 C2598 0.951 . S
H2580 C2600 0.950 . S
H2581 C2601 0.950 . S
H2582 C2603 0.950 . S
H2583 C2606 0.950 . S
H2584 C2607 0.950 . S
H2585 C2609 0.950 . S
H2586 C2610 0.950 . S
H2587 C2611 0.951 . S
H2588 C2613 0.951 . S
H2589 C2615 0.950 . S
H2590 C2616 0.950 . S
H2591 C2618 0.950 1_565 S
H2592 C2621 0.950 . S
H2593 C2622 0.950 . S
H2594 C2624 0.950 . S
H2595 C2625 0.950 . S
C2596 H2578 0.951 1_655 S
C2596 C2597 1.366 . S
C2596 C2598 1.388 . S
C2597 C2596 1.366 . S
C2597 C2601 1.385 . S
C2598 H2579 0.951 . S
C2598 C2596 1.388 . S
C2598 C2599 1.366 . S
C2599 C2598 1.366 . S
C2599 C2600 1.414 . S
C2599 C2602 1.499 . S
C2600 H2580 0.950 . S
C2600 C2599 1.414 . S
C2600 C2601 1.374 . S
C2601 H2581 0.950 . S
C2601 C2597 1.385 . S
C2601 C2600 1.374 . S
C2602 C2599 1.499 . S
C2602 C2603 1.373 . S
C2602 C2604 1.389 . S
C2603 H2582 0.950 . S
C2603 C2602 1.373 . S
C2603 C2619 1.377 . S
C2604 C2602 1.389 . S
C2604 C2605 1.524 1_545 S
C2604 C2618 1.377 . S
C2605 C2604 1.524 1_565 S
C2605 C2606 1.397 . S
C2605 C2610 1.363 . S
C2606 H2583 0.950 . S
C2606 C2605 1.397 . S
C2606 C2607 1.334 . S
C2607 H2584 0.950 . S
C2607 C2606 1.334 . S
C2607 C2608 1.287 . S
C2608 C2607 1.287 . S
C2608 C2609 1.524 . S
C2608 H2627 0.913 . S
C2609 H2585 0.950 . S
C2609 C2608 1.524 . S
C2609 C2610 1.415 . S
C2610 H2586 0.950 . S
C2610 C2605 1.363 . S
C2610 C2609 1.415 . S
C2611 H2587 0.951 . S
C2611 C2612 1.366 . S
C2611 C2613 1.388 . S
C2612 C2611 1.366 . S
C2612 C2616 1.385 . S
C2613 H2588 0.951 . S
C2613 C2611 1.388 . S
C2613 C2614 1.366 . S
C2614 C2613 1.366 . S
C2614 C2615 1.414 . S
C2614 C2617 1.499 . S
C2615 H2589 0.950 . S
C2615 C2614 1.414 . S
C2615 C2616 1.374 . S
C2616 H2590 0.950 . S
C2616 C2612 1.385 . S
C2616 C2615 1.374 . S
C2617 C2614 1.499 . S
C2617 C2618 1.373 . S
C2617 C2619 1.389 . S
C2618 H2591 0.950 1_545 S
C2618 C2604 1.377 . S
C2618 C2617 1.373 . S
C2619 C2603 1.377 . S
C2619 C2617 1.389 . S
C2619 C2620 1.524 . S
C2620 C2619 1.524 . S
C2620 C2621 1.397 . S
C2620 C2625 1.363 . S
C2621 H2592 0.950 . S
C2621 C2620 1.397 . S
C2621 C2622 1.334 . S
C2622 H2593 0.950 . S
C2622 C2621 1.334 . S
C2622 C2623 1.287 . S
C2623 C2622 1.287 . S
C2623 C2624 1.524 . S
C2623 H2626 0.999 . S
C2624 H2594 0.950 . S
C2624 C2623 1.524 . S
C2624 C2625 1.415 . S
C2625 H2595 0.950 . S
C2625 C2620 1.363 . S
C2625 C2624 1.415 . S
H2626 C2623 0.999 . S
H2627 C2608 0.913 . S
H2628 C2646 0.951 . S
H2629 C2648 0.951 . S
H2630 C2650 0.950 . S
H2631 C2651 0.950 . S
H2632 C2653 0.950 . S
H2633 C2656 0.950 . S
H2634 C2657 0.950 . S
H2635 C2659 0.950 . S
H2636 C2660 0.950 . S
H2637 C2661 0.951 . S
H2638 C2663 0.951 . S
H2639 C2665 0.950 . S
H2640 C2666 0.950 . S
H2641 C2668 0.950 . S
H2642 C2671 0.950 . S
H2643 C2672 0.950 . S
H2644 C2674 0.950 . S
H2645 C2675 0.950 . S
C2646 H2628 0.951 . S
C2646 C2647 1.366 . S
C2646 C2648 1.388 . S
C2647 C2646 1.366 . S
C2647 C2651 1.385 . S
C2648 H2629 0.951 . S
C2648 C2646 1.388 . S
C2648 C2649 1.366 . S
C2649 C2648 1.366 . S
C2649 C2650 1.414 . S
C2649 C2652 1.499 . S
C2650 H2630 0.950 . S
C2650 C2649 1.414 . S
C2650 C2651 1.374 . S
C2651 H2631 0.950 . S
C2651 C2647 1.385 . S
C2651 C2650 1.374 . S
C2652 C2649 1.499 . S
C2652 C2653 1.373 . S
C2652 C2654 1.389 . S
C2653 H2632 0.950 . S
C2653 C2652 1.373 . S
C2653 C2669 1.377 . S
C2654 C2652 1.389 . S
C2654 C2655 1.524 . S
C2654 C2668 1.377 . S
C2655 C2654 1.524 . S
C2655 C2656 1.397 . S
C2655 C2660 1.363 . S
C2656 H2633 0.950 . S
C2656 C2655 1.397 . S
C2656 C2657 1.334 . S
C2657 H2634 0.950 . S
C2657 C2656 1.334 . S
C2657 C2658 1.287 . S
C2658 C2657 1.287 . S
C2658 C2659 1.524 . S
C2658 H2677 0.913 . S
C2659 H2635 0.950 . S
C2659 C2658 1.524 . S
C2659 C2660 1.415 . S
C2660 H2636 0.950 . S
C2660 C2655 1.363 . S
C2660 C2659 1.415 . S
C2661 H2637 0.951 . S
C2661 C2662 1.366 . S
C2661 C2663 1.388 . S
C2662 C2661 1.366 . S
C2662 C2666 1.385 . S
C2663 H2638 0.951 . S
C2663 C2661 1.388 . S
C2663 C2664 1.366 . S
C2664 C2663 1.366 . S
C2664 C2665 1.414 . S
C2664 C2667 1.499 . S
C2665 H2639 0.950 . S
C2665 C2664 1.414 . S
C2665 C2666 1.374 . S
C2666 H2640 0.950 . S
C2666 C2662 1.385 . S
C2666 C2665 1.374 . S
C2667 C2664 1.499 . S
C2667 C2668 1.373 . S
C2667 C2669 1.389 . S
C2668 H2641 0.950 . S
C2668 C2654 1.377 . S
C2668 C2667 1.373 . S
C2669 C2653 1.377 . S
C2669 C2667 1.389 . S
C2669 C2670 1.524 . S
C2670 C2669 1.524 . S
C2670 C2671 1.397 . S
C2670 C2675 1.363 . S
C2671 H2642 0.950 . S
C2671 C2670 1.397 . S
C2671 C2672 1.334 . S
C2672 H2643 0.950 . S
C2672 C2671 1.334 . S
C2672 C2673 1.287 . S
C2673 C2672 1.287 . S
C2673 C2674 1.524 . S
C2673 H2676 0.999 . S
C2674 H2644 0.950 . S
C2674 C2673 1.524 . S
C2674 C2675 1.415 . S
C2675 H2645 0.950 . S
C2675 C2670 1.363 . S
C2675 C2674 1.415 . S
H2676 C2673 0.999 . S
H2677 C2658 0.913 . S
H2678 C2696 0.951 . S
H2679 C2698 0.951 . S
H2680 C2700 0.950 . S
H2681 C2701 1.019 . S
H2682 C2703 0.950 . S
H2683 C2706 0.950 . S
H2684 C2707 0.950 . S
H2685 C2709 0.950 . S
H2686 C2710 0.950 . S
H2687 C2711 0.951 . S
H2688 C2713 0.951 . S
H2689 C2715 0.950 . S
H2690 C2716 0.950 . S
H2691 C2718 0.950 . S
H2692 C2721 0.950 . S
H2693 C2722 0.950 . S
H2694 C2724 0.950 . S
H2695 C2725 0.950 . S
C2696 H2678 0.951 . S
C2696 C2697 1.366 . S
C2696 C2698 1.388 . S
C2697 C2696 1.366 . S
C2697 C2701 1.366 1_455 S
C2698 H2679 0.951 . S
C2698 C2696 1.388 . S
C2698 C2699 1.366 . S
C2699 C2698 1.366 . S
C2699 C2700 1.414 . S
C2699 C2702 1.499 . S
C2700 H2680 0.950 . S
C2700 C2699 1.414 . S
C2700 C2701 1.326 1_455 S
C2701 H2681 1.019 . S
C2701 C2697 1.366 1_655 S
C2701 C2700 1.326 1_655 S
C2702 C2699 1.499 . S
C2702 C2703 1.373 . S
C2702 C2704 1.389 . S
C2703 H2682 0.950 . S
C2703 C2702 1.373 . S
C2703 C2719 1.377 . S
C2704 C2702 1.389 . S
C2704 C2705 1.524 . S
C2704 C2718 1.377 . S
C2705 C2704 1.524 . S
C2705 C2706 1.397 . S
C2705 C2710 1.363 . S
C2706 H2683 0.950 . S
C2706 C2705 1.397 . S
C2706 C2707 1.334 . S
C2707 H2684 0.950 . S
C2707 C2706 1.334 . S
C2707 C2708 1.287 . S
C2708 C2707 1.287 . S
C2708 C2709 1.524 . S
C2708 H2727 0.913 . S
C2709 H2685 0.950 . S
C2709 C2708 1.524 . S
C2709 C2710 1.415 . S
C2710 H2686 0.950 . S
C2710 C2705 1.363 . S
C2710 C2709 1.415 . S
C2711 H2687 0.951 . S
C2711 C2712 1.366 . S
C2711 C2713 1.388 . S
C2712 C2711 1.366 . S
C2712 C2716 1.385 . S
C2713 H2688 0.951 . S
C2713 C2711 1.388 . S
C2713 C2714 1.366 . S
C2714 C2713 1.366 . S
C2714 C2715 1.414 . S
C2714 C2717 1.499 . S
C2715 H2689 0.950 . S
C2715 C2714 1.414 . S
C2715 C2716 1.374 . S
C2716 H2690 0.950 . S
C2716 C2712 1.385 . S
C2716 C2715 1.374 . S
C2717 C2714 1.499 . S
C2717 C2718 1.373 . S
C2717 C2719 1.389 . S
C2718 H2691 0.950 . S
C2718 C2704 1.377 . S
C2718 C2717 1.373 . S
C2719 C2703 1.377 . S
C2719 C2717 1.389 . S
C2719 C2720 1.524 . S
C2720 C2719 1.524 . S
C2720 C2721 1.397 . S
C2720 C2725 1.363 . S
C2721 H2692 0.950 . S
C2721 C2720 1.397 . S
C2721 C2722 1.334 . S
C2722 H2693 0.950 . S
C2722 C2721 1.334 . S
C2722 C2723 1.287 . S
C2723 C2722 1.287 . S
C2723 C2724 1.524 . S
C2723 H2726 0.999 . S
C2724 H2694 0.950 . S
C2724 C2723 1.524 . S
C2724 C2725 1.415 . S
C2725 H2695 0.950 . S
C2725 C2720 1.363 . S
C2725 C2724 1.415 . S
H2726 C2723 0.999 . S
H2727 C2708 0.913 . S
H2728 C2746 0.951 . S
H2729 C2748 0.951 . S
H2730 C2750 0.950 . S
H2731 C2751 0.950 . S
H2732 C2753 0.950 . S
H2733 C2756 0.950 . S
H2734 C2757 0.950 . S
H2735 C2759 0.950 . S
H2736 C2760 0.950 . S
H2737 C2761 0.951 . S
H2738 C2763 0.951 . S
H2739 C2765 0.950 . S
H2740 C2766 0.950 . S
H2741 C2768 0.950 . S
H2742 C2771 0.950 . S
H2743 C2772 0.950 . S
H2744 C2774 0.950 . S
H2745 C2775 0.950 . S
C2746 H2728 0.951 . S
C2746 C2747 1.366 . S
C2746 C2748 1.388 . S
C2747 C2746 1.366 . S
C2747 C2751 1.385 . S
C2748 H2729 0.951 . S
C2748 C2746 1.388 . S
C2748 C2749 1.366 . S
C2749 C2748 1.366 . S
C2749 C2750 1.414 . S
C2749 C2752 1.499 . S
C2750 H2730 0.950 . S
C2750 C2749 1.414 . S
C2750 C2751 1.374 . S
C2751 H2731 0.950 . S
C2751 C2747 1.385 . S
C2751 C2750 1.374 . S
C2752 C2749 1.499 . S
C2752 C2753 1.373 . S
C2752 C2754 1.389 . S
C2753 H2732 0.950 . S
C2753 C2752 1.373 . S
C2753 C2769 1.377 . S
C2754 C2752 1.389 . S
C2754 C2755 1.524 . S
C2754 C2768 1.377 . S
C2755 C2754 1.524 . S
C2755 C2756 1.397 . S
C2755 C2760 1.363 . S
C2756 H2733 0.950 . S
C2756 C2755 1.397 . S
C2756 C2757 1.334 . S
C2757 H2734 0.950 . S
C2757 C2756 1.334 . S
C2757 C2758 1.287 . S
C2758 C2757 1.287 . S
C2758 C2759 1.524 . S
C2758 H2777 0.913 . S
C2759 H2735 0.950 . S
C2759 C2758 1.524 . S
C2759 C2760 1.415 . S
C2760 H2736 0.950 . S
C2760 C2755 1.363 . S
C2760 C2759 1.415 . S
C2761 H2737 0.951 . S
C2761 C2762 1.366 . S
C2761 C2763 1.388 . S
C2762 C2761 1.366 . S
C2762 C2766 1.385 . S
C2763 H2738 0.951 . S
C2763 C2761 1.388 . S
C2763 C2764 1.366 . S
C2764 C2763 1.366 . S
C2764 C2765 1.414 . S
C2764 C2767 1.499 . S
C2765 H2739 0.950 . S
C2765 C2764 1.414 . S
C2765 C2766 1.374 . S
C2766 H2740 0.950 . S
C2766 C2762 1.385 . S
C2766 C2765 1.374 . S
C2767 C2764 1.499 . S
C2767 C2768 1.373 . S
C2767 C2769 1.389 . S
C2768 H2741 0.950 . S
C2768 C2754 1.377 . S
C2768 C2767 1.373 . S
C2769 C2753 1.377 . S
C2769 C2767 1.389 . S
C2769 C2770 1.524 . S
C2770 C2769 1.524 . S
C2770 C2771 1.397 . S
C2770 C2775 1.363 . S
C2771 H2742 0.950 . S
C2771 C2770 1.397 . S
C2771 C2772 1.334 . S
C2772 H2743 0.950 . S
C2772 C2771 1.334 . S
C2772 C2773 1.287 . S
C2773 C2772 1.287 . S
C2773 C2774 1.524 . S
C2773 H2776 0.999 . S
C2774 H2744 0.950 . S
C2774 C2773 1.524 . S
C2774 C2775 1.415 . S
C2775 H2745 0.950 . S
C2775 C2770 1.363 . S
C2775 C2774 1.415 . S
H2776 C2773 0.999 . S
H2777 C2758 0.913 . S
H2778 C2796 0.951 . S
H2779 C2798 0.951 . S
H2780 C2800 0.950 . S
H2781 C2801 0.950 . S
H2782 C2803 0.950 . S
H2783 C2806 0.950 . S
H2784 C2807 0.950 1_655 S
H2785 C2809 0.950 . S
H2786 C2810 0.950 . S
H2787 C2811 0.951 . S
H2788 C2813 0.951 . S
H2789 C2815 0.927 1_455 S
H2790 C2816 0.950 . S
H2791 C2818 0.950 1_455 S
H2792 C2821 0.950 . S
H2793 C2822 0.950 . S
H2794 C2824 0.950 . S
H2795 C2825 0.950 . S
C2796 H2778 0.951 . S
C2796 C2797 1.366 . S
C2796 C2798 1.388 1_554 S
C2797 C2796 1.366 . S
C2797 C2801 1.385 1_554 S
C2798 H2779 0.951 . S
C2798 C2796 1.388 1_556 S
C2798 C2799 1.366 . S
C2799 C2798 1.366 . S
C2799 C2800 1.414 . S
C2799 C2802 1.499 . S
C2800 H2780 0.950 . S
C2800 C2799 1.414 . S
C2800 C2801 1.374 . S
C2801 H2781 0.950 . S
C2801 C2797 1.385 1_556 S
C2801 C2800 1.374 . S
C2802 C2799 1.499 . S
C2802 C2803 1.373 . S
C2802 C2804 1.389 . S
C2803 H2782 0.950 . S
C2803 C2802 1.373 . S
C2803 C2819 1.377 . S
C2804 C2802 1.389 . S
C2804 C2805 1.547 . S
C2804 C2818 1.377 . S
C2805 C2804 1.547 . S
C2805 C2806 1.410 . S
C2805 C2810 1.329 1_655 S
C2806 H2783 0.950 . S
C2806 C2805 1.410 . S
C2806 C2807 1.334 1_655 S
C2807 H2784 0.950 1_455 S
C2807 C2806 1.334 1_455 S
C2807 C2808 1.287 . S
C2808 C2807 1.287 . S
C2808 C2809 1.524 . S
C2808 H2827 0.913 . S
C2809 H2785 0.950 . S
C2809 C2808 1.524 . S
C2809 C2810 1.415 . S
C2810 H2786 0.950 . S
C2810 C2805 1.329 1_455 S
C2810 C2809 1.415 . S
C2811 H2787 0.951 . S
C2811 C2812 1.366 . S
C2811 C2813 1.388 . S
C2812 C2811 1.366 . S
C2812 C2816 1.385 1_655 S
C2813 H2788 0.951 . S
C2813 C2811 1.388 . S
C2813 C2814 1.366 . S
C2814 C2813 1.366 . S
C2814 C2815 1.446 . S
C2814 C2817 1.499 . S
C2815 H2789 0.927 1_655 S
C2815 C2814 1.446 . S
C2815 C2816 1.366 1_655 S
C2816 H2790 0.950 . S
C2816 C2812 1.385 1_455 S
C2816 C2815 1.366 1_455 S
C2817 C2814 1.499 . S
C2817 C2818 1.373 . S
C2817 C2819 1.389 . S
C2818 H2791 0.950 1_655 S
C2818 C2804 1.377 . S
C2818 C2817 1.373 . S
C2819 C2803 1.377 . S
C2819 C2817 1.389 . S
C2819 C2820 1.524 . S
C2820 C2819 1.524 . S
C2820 C2821 1.397 . S
C2820 C2825 1.363 . S
C2821 H2792 0.950 . S
C2821 C2820 1.397 . S
C2821 C2822 1.334 . S
C2822 H2793 0.950 . S
C2822 C2821 1.334 . S
C2822 C2823 1.287 . S
C2823 C2822 1.287 . S
C2823 C2824 1.524 . S
C2823 H2826 0.999 . S
C2824 H2794 0.950 . S
C2824 C2823 1.524 . S
C2824 C2825 1.415 . S
C2825 H2795 0.950 . S
C2825 C2820 1.363 . S
C2825 C2824 1.415 . S
H2826 C2823 0.999 . S
H2827 C2808 0.913 . S
H2828 C2846 0.951 . S
H2829 C2848 0.951 . S
H2830 C2850 0.950 . S
H2831 C2851 0.950 . S
H2832 C2853 0.950 . S
H2833 C2856 0.950 . S
H2834 C2857 0.950 . S
H2835 C2859 0.950 . S
H2836 C2860 0.950 . S
H2837 C2861 0.951 . S
H2838 C2863 0.951 . S
H2839 C2865 0.950 . S
H2840 C2866 0.950 . S
H2841 C2868 0.950 . S
H2842 C2871 0.950 . S
H2843 C2872 0.950 . S
H2844 C2874 0.950 . S
H2845 C2875 0.950 . S
C2846 H2828 0.951 . S
C2846 C2847 1.366 . S
C2846 C2848 1.388 . S
C2847 C2846 1.366 . S
C2847 C2851 1.385 . S
C2848 H2829 0.951 . S
C2848 C2846 1.388 . S
C2848 C2849 1.366 . S
C2849 C2848 1.366 . S
C2849 C2850 1.414 . S
C2849 C2852 1.499 . S
C2850 H2830 0.950 . S
C2850 C2849 1.414 . S
C2850 C2851 1.374 . S
C2851 H2831 0.950 . S
C2851 C2847 1.385 . S
C2851 C2850 1.374 . S
C2852 C2849 1.499 . S
C2852 C2853 1.373 . S
C2852 C2854 1.389 . S
C2853 H2832 0.950 . S
C2853 C2852 1.373 . S
C2853 C2869 1.377 . S
C2854 C2852 1.389 . S
C2854 C2855 1.524 . S
C2854 C2868 1.377 . S
C2855 C2854 1.524 . S
C2855 C2856 1.397 . S
C2855 C2860 1.363 . S
C2856 H2833 0.950 . S
C2856 C2855 1.397 . S
C2856 C2857 1.334 . S
C2857 H2834 0.950 . S
C2857 C2856 1.334 . S
C2857 C2858 1.287 . S
C2858 C2857 1.287 . S
C2858 C2859 1.524 . S
C2858 H2877 0.913 . S
C2859 H2835 0.950 . S
C2859 C2858 1.524 . S
C2859 C2860 1.415 . S
C2860 H2836 0.950 . S
C2860 C2855 1.363 . S
C2860 C2859 1.415 . S
C2861 H2837 0.951 . S
C2861 C2862 1.366 . S
C2861 C2863 1.388 . S
C2862 C2861 1.366 . S
C2862 C2866 1.385 . S
C2863 H2838 0.951 . S
C2863 C2861 1.388 . S
C2863 C2864 1.366 . S
C2864 C2863 1.366 . S
C2864 C2865 1.414 . S
C2864 C2867 1.499 . S
C2865 H2839 0.950 . S
C2865 C2864 1.414 . S
C2865 C2866 1.374 . S
C2866 H2840 0.950 . S
C2866 C2862 1.385 . S
C2866 C2865 1.374 . S
C2867 C2864 1.499 . S
C2867 C2868 1.373 . S
C2867 C2869 1.389 . S
C2868 H2841 0.950 . S
C2868 C2854 1.377 . S
C2868 C2867 1.373 . S
C2869 C2853 1.377 . S
C2869 C2867 1.389 . S
C2869 C2870 1.524 . S
C2870 C2869 1.524 . S
C2870 C2871 1.397 . S
C2870 C2875 1.363 . S
C2871 H2842 0.950 . S
C2871 C2870 1.397 . S
C2871 C2872 1.334 . S
C2872 H2843 0.950 . S
C2872 C2871 1.334 . S
C2872 C2873 1.287 . S
C2873 C2872 1.287 . S
C2873 C2874 1.524 . S
C2873 H2876 0.999 . S
C2874 H2844 0.950 . S
C2874 C2873 1.524 . S
C2874 C2875 1.415 . S
C2875 H2845 0.950 . S
C2875 C2870 1.363 . S
C2875 C2874 1.415 . S
H2876 C2873 0.999 . S
H2877 C2858 0.913 . S
H2878 C2896 0.951 . S
H2879 C2898 0.951 . S
H2880 C2900 0.950 . S
H2881 C2901 0.950 1_554 S
H2882 C2903 0.931 1_655 S
H2883 C2906 0.950 . S
H2884 C2907 0.950 . S
H2885 C2909 0.950 . S
H2886 C2910 0.950 . S
H2887 C2911 0.951 . S
H2888 C2913 0.951 . S
H2889 C2915 0.950 . S
H2890 C2916 0.950 . S
H2891 C2918 0.950 . S
H2892 C2921 0.950 . S
H2893 C2922 0.950 . S
H2894 C2924 0.950 . S
H2895 C2925 0.950 . S
C2896 H2878 0.951 . S
C2896 C2897 1.366 . S
C2896 C2898 1.388 . S
C2897 C2896 1.366 . S
C2897 C2901 1.385 . S
C2898 H2879 0.951 . S
C2898 C2896 1.388 . S
C2898 C2899 1.366 . S
C2899 C2898 1.366 . S
C2899 C2900 1.414 . S
C2899 C2902 1.499 . S
C2900 H2880 0.950 . S
C2900 C2899 1.414 . S
C2900 C2901 1.374 . S
C2901 H2881 0.950 1_556 S
C2901 C2897 1.385 . S
C2901 C2900 1.374 . S
C2902 C2899 1.499 . S
C2902 C2903 1.373 . S
C2902 C2904 1.389 . S
C2903 H2882 0.931 1_455 S
C2903 C2902 1.373 . S
C2903 C2919 1.377 . S
C2904 C2902 1.389 . S
C2904 C2905 1.524 . S
C2904 C2918 1.377 . S
C2905 C2904 1.524 . S
C2905 C2906 1.397 . S
C2905 C2910 1.363 . S
C2906 H2883 0.950 . S
C2906 C2905 1.397 . S
C2906 C2907 1.334 . S
C2907 H2884 0.950 . S
C2907 C2906 1.334 . S
C2907 C2908 1.287 . S
C2908 C2907 1.287 . S
C2908 C2909 1.524 . S
C2908 H2927 0.913 . S
C2909 H2885 0.950 . S
C2909 C2908 1.524 . S
C2909 C2910 1.415 . S
C2910 H2886 0.950 . S
C2910 C2905 1.363 . S
C2910 C2909 1.415 . S
C2911 H2887 0.951 . S
C2911 C2912 1.366 . S
C2911 C2913 1.388 . S
C2912 C2911 1.366 . S
C2912 C2916 1.385 . S
C2913 H2888 0.951 . S
C2913 C2911 1.388 . S
C2913 C2914 1.366 . S
C2914 C2913 1.366 . S
C2914 C2915 1.414 . S
C2914 C2917 1.499 . S
C2915 H2889 0.950 . S
C2915 C2914 1.414 . S
C2915 C2916 1.374 . S
C2916 H2890 0.950 . S
C2916 C2912 1.385 . S
C2916 C2915 1.374 . S
C2917 C2914 1.499 . S
C2917 C2918 1.373 . S
C2917 C2919 1.389 . S
C2918 H2891 0.950 . S
C2918 C2904 1.377 . S
C2918 C2917 1.373 . S
C2919 C2903 1.377 . S
C2919 C2917 1.389 . S
C2919 C2920 1.524 1_455 S
C2920 C2919 1.524 1_655 S
C2920 C2921 1.397 . S
C2920 C2925 1.363 . S
C2921 H2892 0.950 . S
C2921 C2920 1.397 . S
C2921 C2922 1.334 . S
C2922 H2893 0.950 . S
C2922 C2921 1.334 . S
C2922 C2923 1.287 . S
C2923 C2922 1.287 . S
C2923 C2924 1.524 . S
C2923 H2926 0.999 . S
C2924 H2894 0.950 . S
C2924 C2923 1.524 . S
C2924 C2925 1.415 . S
C2925 H2895 0.950 . S
C2925 C2920 1.363 . S
C2925 C2924 1.415 . S
H2926 C2923 0.999 . S
H2927 C2908 0.913 . S
H2928 C2946 0.951 . S
H2929 C2948 0.951 . S
H2930 C2950 0.950 . S
H2931 C2951 0.950 . S
H2932 C2953 0.950 . S
H2933 C2956 0.950 . S
H2934 C2957 0.950 . S
H2935 C2959 0.950 . S
H2936 C2960 0.950 . S
H2937 C2961 0.951 . S
H2938 C2963 0.951 . S
H2939 C2965 0.950 . S
H2940 C2966 0.950 . S
H2941 C2968 0.950 . S
H2942 C2971 0.950 . S
H2943 C2972 0.950 . S
H2944 C2974 0.950 . S
H2945 C2975 0.950 . S
C2946 H2928 0.951 . S
C2946 C2947 1.366 . S
C2946 C2948 1.388 . S
C2947 C2946 1.366 . S
C2947 C2951 1.385 . S
C2948 H2929 0.951 . S
C2948 C2946 1.388 . S
C2948 C2949 1.366 . S
C2949 C2948 1.366 . S
C2949 C2950 1.414 . S
C2949 C2952 1.499 . S
C2950 H2930 0.950 . S
C2950 C2949 1.414 . S
C2950 C2951 1.374 . S
C2951 H2931 0.950 . S
C2951 C2947 1.385 . S
C2951 C2950 1.374 . S
C2952 C2949 1.499 . S
C2952 C2953 1.373 . S
C2952 C2954 1.389 . S
C2953 H2932 0.950 . S
C2953 C2952 1.373 . S
C2953 C2969 1.377 . S
C2954 C2952 1.389 . S
C2954 C2955 1.524 . S
C2954 C2968 1.377 . S
C2955 C2954 1.524 . S
C2955 C2956 1.397 . S
C2955 C2960 1.363 . S
C2956 H2933 0.950 . S
C2956 C2955 1.397 . S
C2956 C2957 1.334 . S
C2957 H2934 0.950 . S
C2957 C2956 1.334 . S
C2957 C2958 1.287 . S
C2958 C2957 1.287 . S
C2958 C2959 1.524 . S
C2958 H2977 0.913 . S
C2959 H2935 0.950 . S
C2959 C2958 1.524 . S
C2959 C2960 1.415 . S
C2960 H2936 0.950 . S
C2960 C2955 1.363 . S
C2960 C2959 1.415 . S
C2961 H2937 0.951 . S
C2961 C2962 1.366 . S
C2961 C2963 1.388 . S
C2962 C2961 1.366 . S
C2962 C2966 1.385 . S
C2963 H2938 0.951 . S
C2963 C2961 1.388 . S
C2963 C2964 1.366 . S
C2964 C2963 1.366 . S
C2964 C2965 1.414 . S
C2964 C2967 1.499 . S
C2965 H2939 0.950 . S
C2965 C2964 1.414 . S
C2965 C2966 1.374 . S
C2966 H2940 0.950 . S
C2966 C2962 1.385 . S
C2966 C2965 1.374 . S
C2967 C2964 1.499 . S
C2967 C2968 1.373 . S
C2967 C2969 1.389 . S
C2968 H2941 0.950 . S
C2968 C2954 1.377 . S
C2968 C2967 1.373 . S
C2969 C2953 1.377 . S
C2969 C2967 1.389 . S
C2969 C2970 1.524 . S
C2970 C2969 1.524 . S
C2970 C2971 1.397 . S
C2970 C2975 1.363 . S
C2971 H2942 0.950 . S
C2971 C2970 1.397 . S
C2971 C2972 1.334 . S
C2972 H2943 0.950 . S
C2972 C2971 1.334 . S
C2972 C2973 1.287 . S
C2973 C2972 1.287 . S
C2973 C2974 1.524 . S
C2973 H2976 0.999 . S
C2974 H2944 0.950 . S
C2974 C2973 1.524 . S
C2974 C2975 1.415 . S
C2975 H2945 0.950 . S
C2975 C2970 1.363 . S
C2975 C2974 1.415 . S
H2976 C2973 0.999 . S
H2977 C2958 0.913 . S
H2978 C2996 0.951 . S
H2979 C2998 0.951 . S
H2980 C3000 0.950 . S
H2981 C3001 0.950 . S
H2982 C3003 0.950 . S
H2983 C3006 0.950 . S
H2984 C3007 0.950 . S
H2985 C3009 0.950 . S
H2986 C3010 0.950 . S
H2987 C3011 0.951 . S
H2988 C3013 0.951 . S
H2989 C3015 0.950 . S
H2990 C3016 0.950 . S
H2991 C3018 0.950 . S
H2992 C3021 0.950 . S
H2993 C3022 0.950 . S
H2994 C3024 0.950 . S
H2995 C3025 0.950 . S
C2996 H2978 0.951 . S
C2996 C2997 1.366 . S
C2996 C2998 1.388 . S
C2997 C2996 1.366 . S
C2997 C3001 1.385 . S
C2998 H2979 0.951 . S
C2998 C2996 1.388 . S
C2998 C2999 1.366 . S
C2999 C2998 1.366 . S
C2999 C3000 1.414 . S
C2999 C3002 1.499 . S
C3000 H2980 0.950 . S
C3000 C2999 1.414 . S
C3000 C3001 1.374 . S
C3001 H2981 0.950 . S
C3001 C2997 1.385 . S
C3001 C3000 1.374 . S
C3002 C2999 1.499 . S
C3002 C3003 1.373 . S
C3002 C3004 1.389 . S
C3003 H2982 0.950 . S
C3003 C3002 1.373 . S
C3003 C3019 1.377 . S
C3004 C3002 1.389 . S
C3004 C3005 1.524 . S
C3004 C3018 1.377 . S
C3005 C3004 1.524 . S
C3005 C3006 1.397 . S
C3005 C3010 1.363 . S
C3006 H2983 0.950 . S
C3006 C3005 1.397 . S
C3006 C3007 1.334 1_554 S
C3007 H2984 0.950 . S
C3007 C3006 1.334 1_556 S
C3007 C3008 1.287 . S
C3008 C3007 1.287 . S
C3008 C3009 1.524 1_556 S
C3008 H3027 0.913 . S
C3009 H2985 0.950 . S
C3009 C3008 1.524 1_554 S
C3009 C3010 1.415 . S
C3010 H2986 0.950 . S
C3010 C3005 1.363 . S
C3010 C3009 1.415 . S
C3011 H2987 0.951 . S
C3011 C3012 1.366 . S
C3011 C3013 1.388 . S
C3012 C3011 1.366 . S
C3012 C3016 1.385 . S
C3013 H2988 0.951 . S
C3013 C3011 1.388 . S
C3013 C3014 1.366 . S
C3014 C3013 1.366 . S
C3014 C3015 1.414 . S
C3014 C3017 1.499 . S
C3015 H2989 0.950 . S
C3015 C3014 1.414 . S
C3015 C3016 1.374 . S
C3016 H2990 0.950 . S
C3016 C3012 1.385 . S
C3016 C3015 1.374 . S
C3017 C3014 1.499 . S
C3017 C3018 1.373 . S
C3017 C3019 1.389 . S
C3018 H2991 0.950 . S
C3018 C3004 1.377 . S
C3018 C3017 1.373 . S
C3019 C3003 1.377 . S
C3019 C3017 1.389 . S
C3019 C3020 1.524 . S
C3020 C3019 1.524 . S
C3020 C3021 1.397 . S
C3020 C3025 1.363 . S
C3021 H2992 0.950 . S
C3021 C3020 1.397 . S
C3021 C3022 1.334 . S
C3022 H2993 0.950 . S
C3022 C3021 1.334 . S
C3022 C3023 1.287 . S
C3023 C3022 1.287 . S
C3023 C3024 1.524 . S
C3023 H3026 0.999 . S
C3024 H2994 0.950 . S
C3024 C3023 1.524 . S
C3024 C3025 1.415 . S
C3025 H2995 0.950 . S
C3025 C3020 1.363 . S
C3025 C3024 1.415 . S
H3026 C3023 0.999 . S
H3027 C3008 0.913 . S
H3028 C3046 0.951 . S
H3029 C3048 0.951 . S
H3030 C3050 0.950 . S
H3031 C3051 0.950 . S
H3032 C3053 0.950 . S
H3033 C3056 0.950 . S
H3034 C3057 0.950 . S
H3035 C3059 0.950 . S
H3036 C3060 0.950 . S
H3037 C3061 0.951 . S
H3038 C3063 0.951 . S
H3039 C3065 0.950 . S
H3040 C3066 0.950 . S
H3041 C3068 0.950 . S
H3042 C3071 0.950 . S
H3043 C3072 0.950 . S
H3044 C3074 0.950 . S
H3045 C3075 0.950 . S
C3046 H3028 0.951 . S
C3046 C3047 1.366 . S
C3046 C3048 1.388 . S
C3047 C3046 1.366 . S
C3047 C3051 1.385 . S
C3048 H3029 0.951 . S
C3048 C3046 1.388 . S
C3048 C3049 1.366 . S
C3049 C3048 1.366 . S
C3049 C3050 1.414 . S
C3049 C3052 1.499 . S
C3050 H3030 0.950 . S
C3050 C3049 1.414 . S
C3050 C3051 1.374 . S
C3051 H3031 0.950 . S
C3051 C3047 1.385 . S
C3051 C3050 1.374 . S
C3052 C3049 1.499 . S
C3052 C3053 1.373 . S
C3052 C3054 1.389 . S
C3053 H3032 0.950 . S
C3053 C3052 1.373 . S
C3053 C3069 1.377 . S
C3054 C3052 1.389 . S
C3054 C3055 1.524 . S
C3054 C3068 1.377 . S
C3055 C3054 1.524 . S
C3055 C3056 1.397 . S
C3055 C3060 1.363 . S
C3056 H3033 0.950 . S
C3056 C3055 1.397 . S
C3056 C3057 1.334 . S
C3057 H3034 0.950 . S
C3057 C3056 1.334 . S
C3057 C3058 1.287 . S
C3058 C3057 1.287 . S
C3058 C3059 1.524 . S
C3058 H3077 0.913 . S
C3059 H3035 0.950 . S
C3059 C3058 1.524 . S
C3059 C3060 1.415 . S
C3060 H3036 0.950 . S
C3060 C3055 1.363 . S
C3060 C3059 1.415 . S
C3061 H3037 0.951 . S
C3061 C3062 1.366 . S
C3061 C3063 1.388 . S
C3062 C3061 1.366 . S
C3062 C3066 1.385 . S
C3063 H3038 0.951 . S
C3063 C3061 1.388 . S
C3063 C3064 1.366 . S
C3064 C3063 1.366 . S
C3064 C3065 1.414 . S
C3064 C3067 1.499 . S
C3065 H3039 0.950 . S
C3065 C3064 1.414 . S
C3065 C3066 1.374 . S
C3066 H3040 0.950 . S
C3066 C3062 1.385 . S
C3066 C3065 1.374 . S
C3067 C3064 1.499 . S
C3067 C3068 1.373 . S
C3067 C3069 1.389 . S
C3068 H3041 0.950 . S
C3068 C3054 1.377 . S
C3068 C3067 1.373 . S
C3069 C3053 1.377 . S
C3069 C3067 1.389 . S
C3069 C3070 1.524 . S
C3070 C3069 1.524 . S
C3070 C3071 1.397 . S
C3070 C3075 1.363 . S
C3071 H3042 0.950 . S
C3071 C3070 1.397 . S
C3071 C3072 1.334 . S
C3072 H3043 0.950 . S
C3072 C3071 1.334 . S
C3072 C3073 1.287 . S
C3073 C3072 1.287 . S
C3073 C3074 1.524 . S
C3073 H3076 0.999 . S
C3074 H3044 0.950 . S
C3074 C3073 1.524 . S
C3074 C3075 1.415 . S
C3075 H3045 0.950 . S
C3075 C3070 1.363 . S
C3075 C3074 1.415 . S
H3076 C3073 0.999 . S
H3077 C3058 0.913 . S
H3078 C3096 0.951 . S
H3079 C3098 0.951 . S
H3080 C3100 0.950 . S
H3081 C3101 0.950 . S
H3082 C3103 0.950 . S
H3083 C3106 0.950 . S
H3084 C3107 0.950 . S
H3085 C3109 0.950 . S
H3086 C3110 0.950 . S
H3087 C3111 0.951 . S
H3088 C3113 0.951 . S
H3089 C3115 0.950 . S
H3090 C3116 0.950 . S
H3091 C3118 0.950 . S
H3092 C3121 0.950 . S
H3093 C3122 0.950 . S
H3094 C3124 0.950 . S
H3095 C3125 0.950 . S
C3096 H3078 0.951 . S
C3096 C3097 1.366 . S
C3096 C3098 1.388 . S
C3097 C3096 1.366 . S
C3097 C3101 1.385 1_554 S
C3098 H3079 0.951 . S
C3098 C3096 1.388 . S
C3098 C3099 1.366 . S
C3099 C3098 1.366 . S
C3099 C3100 1.414 . S
C3099 C3102 1.499 . S
C3100 H3080 0.950 . S
C3100 C3099 1.414 . S
C3100 C3101 1.374 1_554 S
C3101 H3081 0.950 . S
C3101 C3097 1.385 1_556 S
C3101 C3100 1.374 1_556 S
C3102 C3099 1.499 . S
C3102 C3103 1.373 . S
C3102 C3104 1.389 . S
C3103 H3082 0.950 . S
C3103 C3102 1.373 . S
C3103 C3119 1.377 . S
C3104 C3102 1.389 . S
C3104 C3105 1.524 . S
C3104 C3118 1.377 . S
C3105 C3104 1.524 . S
C3105 C3106 1.397 . S
C3105 C3110 1.363 . S
C3106 H3083 0.950 . S
C3106 C3105 1.397 . S
C3106 C3107 1.334 . S
C3107 H3084 0.950 . S
C3107 C3106 1.334 . S
C3107 C3108 1.287 . S
C3108 C3107 1.287 . S
C3108 C3109 1.524 . S
C3108 H3127 0.913 . S
C3109 H3085 0.950 . S
C3109 C3108 1.524 . S
C3109 C3110 1.415 . S
C3110 H3086 0.950 . S
C3110 C3105 1.363 . S
C3110 C3109 1.415 . S
C3111 H3087 0.951 . S
C3111 C3112 1.366 . S
C3111 C3113 1.388 . S
C3112 C3111 1.366 . S
C3112 C3116 1.385 . S
C3113 H3088 0.951 . S
C3113 C3111 1.388 . S
C3113 C3114 1.366 . S
C3114 C3113 1.366 . S
C3114 C3115 1.414 . S
C3114 C3117 1.499 . S
C3115 H3089 0.950 . S
C3115 C3114 1.414 . S
C3115 C3116 1.374 . S
C3116 H3090 0.950 . S
C3116 C3112 1.385 . S
C3116 C3115 1.374 . S
C3117 C3114 1.499 . S
C3117 C3118 1.373 . S
C3117 C3119 1.389 . S
C3118 H3091 0.950 . S
C3118 C3104 1.377 . S
C3118 C3117 1.373 . S
C3119 C3103 1.377 . S
C3119 C3117 1.389 . S
C3119 C3120 1.524 . S
C3120 C3119 1.524 . S
C3120 C3121 1.397 . S
C3120 C3125 1.363 . S
C3121 H3092 0.950 . S
C3121 C3120 1.397 . S
C3121 C3122 1.334 . S
C3122 H3093 0.950 . S
C3122 C3121 1.334 . S
C3122 C3123 1.287 . S
C3123 C3122 1.287 . S
C3123 C3124 1.524 . S
C3123 H3126 0.999 . S
C3124 H3094 0.950 . S
C3124 C3123 1.524 . S
C3124 C3125 1.415 . S
C3125 H3095 0.950 . S
C3125 C3120 1.363 . S
C3125 C3124 1.415 . S
H3126 C3123 0.999 . S
H3127 C3108 0.913 . S
H3128 C3146 0.951 . S
H3129 C3148 0.951 . S
H3130 C3150 0.950 . S
H3131 C3151 0.950 . S
H3132 C3153 0.950 . S
H3133 C3156 0.950 . S
H3134 C3157 0.950 . S
H3135 C3159 0.950 . S
H3136 C3160 0.950 . S
H3137 C3161 0.951 . S
H3138 C3163 0.951 . S
H3139 C3165 0.950 . S
H3140 C3166 0.950 . S
H3141 C3168 0.950 . S
H3142 C3171 0.950 . S
H3143 C3172 0.950 . S
H3144 C3174 0.950 . S
H3145 C3175 0.950 . S
C3146 H3128 0.951 . S
C3146 C3147 1.366 . S
C3146 C3148 1.388 . S
C3147 C3146 1.366 . S
C3147 C3151 1.385 . S
C3148 H3129 0.951 . S
C3148 C3146 1.388 . S
C3148 C3149 1.366 . S
C3149 C3148 1.366 . S
C3149 C3150 1.414 . S
C3149 C3152 1.499 . S
C3150 H3130 0.950 . S
C3150 C3149 1.414 . S
C3150 C3151 1.374 . S
C3151 H3131 0.950 . S
C3151 C3147 1.385 . S
C3151 C3150 1.374 . S
C3152 C3149 1.499 . S
C3152 C3153 1.373 . S
C3152 C3154 1.389 . S
C3153 H3132 0.950 . S
C3153 C3152 1.373 . S
C3153 C3169 1.377 . S
C3154 C3152 1.389 . S
C3154 C3155 1.524 . S
C3154 C3168 1.377 . S
C3155 C3154 1.524 . S
C3155 C3156 1.397 . S
C3155 C3160 1.363 . S
C3156 H3133 0.950 . S
C3156 C3155 1.397 . S
C3156 C3157 1.334 . S
C3157 H3134 0.950 . S
C3157 C3156 1.334 . S
C3157 C3158 1.287 . S
C3158 C3157 1.287 . S
C3158 C3159 1.524 . S
C3158 H3177 0.913 . S
C3159 H3135 0.950 . S
C3159 C3158 1.524 . S
C3159 C3160 1.415 . S
C3160 H3136 0.950 . S
C3160 C3155 1.363 . S
C3160 C3159 1.415 . S
C3161 H3137 0.951 . S
C3161 C3162 1.366 . S
C3161 C3163 1.388 . S
C3162 C3161 1.366 . S
C3162 C3166 1.385 . S
C3163 H3138 0.951 . S
C3163 C3161 1.388 . S
C3163 C3164 1.366 . S
C3164 C3163 1.366 . S
C3164 C3165 1.414 . S
C3164 C3167 1.499 . S
C3165 H3139 0.950 . S
C3165 C3164 1.414 . S
C3165 C3166 1.374 . S
C3166 H3140 0.950 . S
C3166 C3162 1.385 . S
C3166 C3165 1.374 . S
C3167 C3164 1.499 . S
C3167 C3168 1.373 . S
C3167 C3169 1.389 . S
C3168 H3141 0.950 . S
C3168 C3154 1.377 . S
C3168 C3167 1.373 . S
C3169 C3153 1.377 . S
C3169 C3167 1.389 . S
C3169 C3170 1.524 . S
C3170 C3169 1.524 . S
C3170 C3171 1.397 . S
C3170 C3175 1.363 . S
C3171 H3142 0.950 . S
C3171 C3170 1.397 . S
C3171 C3172 1.334 . S
C3172 H3143 0.950 . S
C3172 C3171 1.334 . S
C3172 C3173 1.287 . S
C3173 C3172 1.287 . S
C3173 C3174 1.524 . S
C3173 H3176 0.999 . S
C3174 H3144 0.950 . S
C3174 C3173 1.524 . S
C3174 C3175 1.415 . S
C3175 H3145 0.950 . S
C3175 C3170 1.363 . S
C3175 C3174 1.415 . S
H3176 C3173 0.999 . S
H3177 C3158 0.913 . S
H3178 C3196 0.951 . S
H3179 C3198 0.951 . S
H3180 C3200 0.950 . S
H3181 C3201 0.950 . S
H3182 C3203 0.950 . S
H3183 C3206 0.950 . S
H3184 C3207 0.950 . S
H3185 C3209 0.950 . S
H3186 C3210 0.950 . S
H3187 C3211 0.951 . S
H3188 C3213 0.951 . S
H3189 C3215 0.950 . S
H3190 C3216 0.950 . S
H3191 C3218 0.950 . S
H3192 C3221 0.950 . S
H3193 C3222 0.950 . S
H3194 C3224 0.950 . S
H3195 C3225 0.950 . S
C3196 H3178 0.951 . S
C3196 C3197 1.366 . S
C3196 C3198 1.388 . S
C3197 C3196 1.366 . S
C3197 C3201 1.385 . S
C3198 H3179 0.951 . S
C3198 C3196 1.388 . S
C3198 C3199 1.366 . S
C3199 C3198 1.366 . S
C3199 C3200 1.414 . S
C3199 C3202 1.499 . S
C3200 H3180 0.950 . S
C3200 C3199 1.414 . S
C3200 C3201 1.374 . S
C3201 H3181 0.950 . S
C3201 C3197 1.385 . S
C3201 C3200 1.374 . S
C3202 C3199 1.499 . S
C3202 C3203 1.373 . S
C3202 C3204 1.389 . S
C3203 H3182 0.950 . S
C3203 C3202 1.373 . S
C3203 C3219 1.377 . S
C3204 C3202 1.389 . S
C3204 C3205 1.524 . S
C3204 C3218 1.377 . S
C3205 C3204 1.524 . S
C3205 C3206 1.397 . S
C3205 C3210 1.363 . S
C3206 H3183 0.950 . S
C3206 C3205 1.397 . S
C3206 C3207 1.334 . S
C3207 H3184 0.950 . S
C3207 C3206 1.334 . S
C3207 C3208 1.287 . S
C3208 C3207 1.287 . S
C3208 C3209 1.524 . S
C3208 H3227 0.913 . S
C3209 H3185 0.950 . S
C3209 C3208 1.524 . S
C3209 C3210 1.415 . S
C3210 H3186 0.950 . S
C3210 C3205 1.363 . S
C3210 C3209 1.415 . S
C3211 H3187 0.951 . S
C3211 C3212 1.366 . S
C3211 C3213 1.388 . S
C3212 C3211 1.366 . S
C3212 C3216 1.385 . S
C3213 H3188 0.951 . S
C3213 C3211 1.388 . S
C3213 C3214 1.366 . S
C3214 C3213 1.366 . S
C3214 C3215 1.414 . S
C3214 C3217 1.499 . S
C3215 H3189 0.950 . S
C3215 C3214 1.414 . S
C3215 C3216 1.374 . S
C3216 H3190 0.950 . S
C3216 C3212 1.385 . S
C3216 C3215 1.374 . S
C3217 C3214 1.499 . S
C3217 C3218 1.373 . S
C3217 C3219 1.389 . S
C3218 H3191 0.950 . S
C3218 C3204 1.377 . S
C3218 C3217 1.373 . S
C3219 C3203 1.377 . S
C3219 C3217 1.389 . S
C3219 C3220 1.524 . S
C3220 C3219 1.524 . S
C3220 C3221 1.397 . S
C3220 C3225 1.363 . S
C3221 H3192 0.950 . S
C3221 C3220 1.397 . S
C3221 C3222 1.334 . S
C3222 H3193 0.950 . S
C3222 C3221 1.334 . S
C3222 C3223 1.287 . S
C3223 C3222 1.287 . S
C3223 C3224 1.524 . S
C3223 H3226 0.999 . S
C3224 H3194 0.950 . S
C3224 C3223 1.524 . S
C3224 C3225 1.415 . S
C3225 H3195 0.950 . S
C3225 C3220 1.363 . S
C3225 C3224 1.415 . S
H3226 C3223 0.999 . S
H3227 C3208 0.913 . S
H3228 C3246 0.951 . S
H3229 C3248 0.951 . S
H3230 C3250 0.950 . S
H3231 C3251 0.950 . S
H3232 C3253 0.950 . S
H3233 C3256 0.950 . S
H3234 C3257 0.950 . S
H3235 C3259 0.950 . S
H3236 C3260 0.950 . S
H3237 C3261 0.951 . S
H3238 C3263 0.951 . S
H3239 C3265 0.950 . S
H3240 C3266 0.950 . S
H3241 C3268 0.950 . S
H3242 C3271 0.950 . S
H3243 C3272 0.950 . S
H3244 C3274 0.950 . S
H3245 C3275 0.950 . S
C3246 H3228 0.951 . S
C3246 C3247 1.366 . S
C3246 C3248 1.388 . S
C3247 C3246 1.366 . S
C3247 C3251 1.385 . S
C3248 H3229 0.951 . S
C3248 C3246 1.388 . S
C3248 C3249 1.366 . S
C3249 C3248 1.366 . S
C3249 C3250 1.414 . S
C3249 C3252 1.499 . S
C3250 H3230 0.950 . S
C3250 C3249 1.414 . S
C3250 C3251 1.374 . S
C3251 H3231 0.950 . S
C3251 C3247 1.385 . S
C3251 C3250 1.374 . S
C3252 C3249 1.499 . S
C3252 C3253 1.373 . S
C3252 C3254 1.389 . S
C3253 H3232 0.950 . S
C3253 C3252 1.373 . S
C3253 C3269 1.377 . S
C3254 C3252 1.389 . S
C3254 C3255 1.524 . S
C3254 C3268 1.377 . S
C3255 C3254 1.524 . S
C3255 C3256 1.397 . S
C3255 C3260 1.363 . S
C3256 H3233 0.950 . S
C3256 C3255 1.397 . S
C3256 C3257 1.334 . S
C3257 H3234 0.950 . S
C3257 C3256 1.334 . S
C3257 C3258 1.287 . S
C3258 C3257 1.287 . S
C3258 C3259 1.524 . S
C3258 H3277 0.913 . S
C3259 H3235 0.950 . S
C3259 C3258 1.524 . S
C3259 C3260 1.415 . S
C3260 H3236 0.950 . S
C3260 C3255 1.363 . S
C3260 C3259 1.415 . S
C3261 H3237 0.951 . S
C3261 C3262 1.366 . S
C3261 C3263 1.388 . S
C3262 C3261 1.366 . S
C3262 C3266 1.385 . S
C3263 H3238 0.951 . S
C3263 C3261 1.388 . S
C3263 C3264 1.366 . S
C3264 C3263 1.366 . S
C3264 C3265 1.414 . S
C3264 C3267 1.499 . S
C3265 H3239 0.950 . S
C3265 C3264 1.414 . S
C3265 C3266 1.374 . S
C3266 H3240 0.950 . S
C3266 C3262 1.385 . S
C3266 C3265 1.374 . S
C3267 C3264 1.499 . S
C3267 C3268 1.373 . S
C3267 C3269 1.389 . S
C3268 H3241 0.950 . S
C3268 C3254 1.377 . S
C3268 C3267 1.373 . S
C3269 C3253 1.377 . S
C3269 C3267 1.389 . S
C3269 C3270 1.524 . S
C3270 C3269 1.524 . S
C3270 C3271 1.397 . S
C3270 C3275 1.363 . S
C3271 H3242 0.950 . S
C3271 C3270 1.397 . S
C3271 C3272 1.334 . S
C3272 H3243 0.950 . S
C3272 C3271 1.334 . S
C3272 C3273 1.287 . S
C3273 C3272 1.287 . S
C3273 C3274 1.524 . S
C3273 H3276 0.999 . S
C3274 H3244 0.950 . S
C3274 C3273 1.524 . S
C3274 C3275 1.415 . S
C3275 H3245 0.950 . S
C3275 C3270 1.363 . S
C3275 C3274 1.415 . S
H3276 C3273 0.999 . S
H3277 C3258 0.913 . S
H3278 C3296 0.951 . S
H3279 C3298 0.951 . S
H3280 C3300 0.950 . S
H3281 C3301 0.950 . S
H3282 C3303 0.950 . S
H3283 C3306 0.950 . S
H3284 C3307 0.950 . S
H3285 C3309 0.950 . S
H3286 C3310 0.950 . S
H3287 C3311 0.951 . S
H3288 C3313 0.951 . S
H3289 C3315 0.950 . S
H3290 C3316 0.950 . S
H3291 C3318 0.950 . S
H3292 C3321 0.950 . S
H3293 C3322 0.950 . S
H3294 C3324 0.950 . S
H3295 C3325 0.950 . S
C3296 H3278 0.951 . S
C3296 C3297 1.366 . S
C3296 C3298 1.388 . S
C3297 C3296 1.366 . S
C3297 C3301 1.385 . S
C3298 H3279 0.951 . S
C3298 C3296 1.388 . S
C3298 C3299 1.366 . S
C3299 C3298 1.366 . S
C3299 C3300 1.414 . S
C3299 C3302 1.499 . S
C3300 H3280 0.950 . S
C3300 C3299 1.414 . S
C3300 C3301 1.374 . S
C3301 H3281 0.950 . S
C3301 C3297 1.385 . S
C3301 C3300 1.374 . S
C3302 C3299 1.499 . S
C3302 C3303 1.373 . S
C3302 C3304 1.389 . S
C3303 H3282 0.950 . S
C3303 C3302 1.373 . S
C3303 C3319 1.377 . S
C3304 C3302 1.389 . S
C3304 C3305 1.524 . S
C3304 C3318 1.377 . S
C3305 C3304 1.524 . S
C3305 C3306 1.397 . S
C3305 C3310 1.363 . S
C3306 H3283 0.950 . S
C3306 C3305 1.397 . S
C3306 C3307 1.334 . S
C3307 H3284 0.950 . S
C3307 C3306 1.334 . S
C3307 C3308 1.287 . S
C3308 C3307 1.287 . S
C3308 C3309 1.524 . S
C3308 H3327 0.913 . S
C3309 H3285 0.950 . S
C3309 C3308 1.524 . S
C3309 C3310 1.415 . S
C3310 H3286 0.950 . S
C3310 C3305 1.363 . S
C3310 C3309 1.415 . S
C3311 H3287 0.951 . S
C3311 C3312 1.366 . S
C3311 C3313 1.388 . S
C3312 C3311 1.366 . S
C3312 C3316 1.385 . S
C3313 H3288 0.951 . S
C3313 C3311 1.388 . S
C3313 C3314 1.366 . S
C3314 C3313 1.366 . S
C3314 C3315 1.414 . S
C3314 C3317 1.499 . S
C3315 H3289 0.950 . S
C3315 C3314 1.414 . S
C3315 C3316 1.374 . S
C3316 H3290 0.950 . S
C3316 C3312 1.385 . S
C3316 C3315 1.374 . S
C3317 C3314 1.499 . S
C3317 C3318 1.373 . S
C3317 C3319 1.389 . S
C3318 H3291 0.950 . S
C3318 C3304 1.377 . S
C3318 C3317 1.373 . S
C3319 C3303 1.377 . S
C3319 C3317 1.389 . S
C3319 C3320 1.524 . S
C3320 C3319 1.524 . S
C3320 C3321 1.397 . S
C3320 C3325 1.363 . S
C3321 H3292 0.950 . S
C3321 C3320 1.397 . S
C3321 C3322 1.334 . S
C3322 H3293 0.950 . S
C3322 C3321 1.334 . S
C3322 C3323 1.287 . S
C3323 C3322 1.287 . S
C3323 C3324 1.524 . S
C3323 H3326 0.999 . S
C3324 H3294 0.950 . S
C3324 C3323 1.524 . S
C3324 C3325 1.415 . S
C3325 H3295 0.950 . S
C3325 C3320 1.363 . S
C3325 C3324 1.415 . S
H3326 C3323 0.999 . S
H3327 C3308 0.913 . S
H3328 C3346 0.951 . S
H3329 C3348 0.951 . S
H3330 C3350 0.950 . S
H3331 C3351 0.950 . S
H3332 C3353 0.950 . S
H3333 C3356 0.950 . S
H3334 C3357 0.950 . S
H3335 C3359 0.950 . S
H3336 C3360 0.950 . S
H3337 C3361 0.951 . S
H3338 C3363 0.951 . S
H3339 C3365 0.939 1_554 S
H3340 C3366 0.950 . S
H3341 C3368 0.950 . S
H3342 C3371 0.950 . S
H3343 C3372 0.950 . S
H3344 C3374 0.950 . S
H3345 C3375 0.950 . S
C3346 H3328 0.951 . S
C3346 C3347 1.366 . S
C3346 C3348 1.388 . S
C3347 C3346 1.366 . S
C3347 C3351 1.385 . S
C3348 H3329 0.951 . S
C3348 C3346 1.388 . S
C3348 C3349 1.366 . S
C3349 C3348 1.366 . S
C3349 C3350 1.414 . S
C3349 C3352 1.499 . S
C3350 H3330 0.950 . S
C3350 C3349 1.414 . S
C3350 C3351 1.374 . S
C3351 H3331 0.950 . S
C3351 C3347 1.385 . S
C3351 C3350 1.374 . S
C3352 C3349 1.499 . S
C3352 C3353 1.373 . S
C3352 C3354 1.389 . S
C3353 H3332 0.950 . S
C3353 C3352 1.373 . S
C3353 C3369 1.377 . S
C3354 C3352 1.389 . S
C3354 C3355 1.524 . S
C3354 C3368 1.377 . S
C3355 C3354 1.524 . S
C3355 C3356 1.397 . S
C3355 C3360 1.363 . S
C3356 H3333 0.950 . S
C3356 C3355 1.397 . S
C3356 C3357 1.334 . S
C3357 H3334 0.950 . S
C3357 C3356 1.334 . S
C3357 C3358 1.287 . S
C3358 C3357 1.287 . S
C3358 C3359 1.524 . S
C3358 H3377 0.913 . S
C3359 H3335 0.950 . S
C3359 C3358 1.524 . S
C3359 C3360 1.415 . S
C3360 H3336 0.950 . S
C3360 C3355 1.363 . S
C3360 C3359 1.415 . S
C3361 H3337 0.951 . S
C3361 C3362 1.366 . S
C3361 C3363 1.388 . S
C3362 C3361 1.366 . S
C3362 C3366 1.385 1_556 S
C3363 H3338 0.951 . S
C3363 C3361 1.388 . S
C3363 C3364 1.366 . S
C3364 C3363 1.366 . S
C3364 C3365 1.430 . S
C3364 C3367 1.499 . S
C3365 H3339 0.939 1_556 S
C3365 C3364 1.430 . S
C3365 C3366 1.370 1_556 S
C3366 H3340 0.950 . S
C3366 C3362 1.385 1_554 S
C3366 C3365 1.370 1_554 S
C3367 C3364 1.499 . S
C3367 C3368 1.373 . S
C3367 C3369 1.389 . S
C3368 H3341 0.950 . S
C3368 C3354 1.377 . S
C3368 C3367 1.373 . S
C3369 C3353 1.377 . S
C3369 C3367 1.389 . S
C3369 C3370 1.524 . S
C3370 C3369 1.524 . S
C3370 C3371 1.397 1_556 S
C3370 C3375 1.363 . S
C3371 H3342 0.950 . S
C3371 C3370 1.397 1_554 S
C3371 C3372 1.334 . S
C3372 H3343 0.950 . S
C3372 C3371 1.334 . S
C3372 C3373 1.287 . S
C3373 C3372 1.287 . S
C3373 C3374 1.524 1_554 S
C3373 H3376 0.999 . S
C3374 H3344 0.950 . S
C3374 C3373 1.524 1_556 S
C3374 C3375 1.415 . S
C3375 H3345 0.950 . S
C3375 C3370 1.363 . S
C3375 C3374 1.415 . S
H3376 C3373 0.999 . S
H3377 C3358 0.913 . S
H3378 C3396 0.951 . S
H3379 C3398 0.951 . S
H3380 C3400 0.950 . S
H3381 C3401 0.950 . S
H3382 C3403 0.950 . S
H3383 C3406 0.950 . S
H3384 C3407 0.950 . S
H3385 C3409 0.950 . S
H3386 C3410 0.950 . S
H3387 C3411 0.951 . S
H3388 C3413 0.951 . S
H3389 C3415 0.950 . S
H3390 C3416 0.950 . S
H3391 C3418 0.950 . S
H3392 C3421 0.950 . S
H3393 C3422 0.950 . S
H3394 C3424 0.950 . S
H3395 C3425 0.950 . S
C3396 H3378 0.951 . S
C3396 C3397 1.366 . S
C3396 C3398 1.388 . S
C3397 C3396 1.366 . S
C3397 C3401 1.385 . S
C3398 H3379 0.951 . S
C3398 C3396 1.388 . S
C3398 C3399 1.366 . S
C3399 C3398 1.366 . S
C3399 C3400 1.414 . S
C3399 C3402 1.499 . S
C3400 H3380 0.950 . S
C3400 C3399 1.414 . S
C3400 C3401 1.374 . S
C3401 H3381 0.950 . S
C3401 C3397 1.385 . S
C3401 C3400 1.374 . S
C3402 C3399 1.499 . S
C3402 C3403 1.373 . S
C3402 C3404 1.389 . S
C3403 H3382 0.950 . S
C3403 C3402 1.373 . S
C3403 C3419 1.377 . S
C3404 C3402 1.389 . S
C3404 C3405 1.524 . S
C3404 C3418 1.377 . S
C3405 C3404 1.524 . S
C3405 C3406 1.397 . S
C3405 C3410 1.363 . S
C3406 H3383 0.950 . S
C3406 C3405 1.397 . S
C3406 C3407 1.334 . S
C3407 H3384 0.950 . S
C3407 C3406 1.334 . S
C3407 C3408 1.287 . S
C3408 C3407 1.287 . S
C3408 C3409 1.524 . S
C3408 H3427 0.913 . S
C3409 H3385 0.950 . S
C3409 C3408 1.524 . S
C3409 C3410 1.415 . S
C3410 H3386 0.950 . S
C3410 C3405 1.363 . S
C3410 C3409 1.415 . S
C3411 H3387 0.951 . S
C3411 C3412 1.366 . S
C3411 C3413 1.388 . S
C3412 C3411 1.366 . S
C3412 C3416 1.385 . S
C3413 H3388 0.951 . S
C3413 C3411 1.388 . S
C3413 C3414 1.366 . S
C3414 C3413 1.366 . S
C3414 C3415 1.414 . S
C3414 C3417 1.499 . S
C3415 H3389 0.950 . S
C3415 C3414 1.414 . S
C3415 C3416 1.374 . S
C3416 H3390 0.950 . S
C3416 C3412 1.385 . S
C3416 C3415 1.374 . S
C3417 C3414 1.499 . S
C3417 C3418 1.373 . S
C3417 C3419 1.389 . S
C3418 H3391 0.950 . S
C3418 C3404 1.377 . S
C3418 C3417 1.373 . S
C3419 C3403 1.377 . S
C3419 C3417 1.389 . S
C3419 C3420 1.524 . S
C3420 C3419 1.524 . S
C3420 C3421 1.397 . S
C3420 C3425 1.363 . S
C3421 H3392 0.950 . S
C3421 C3420 1.397 . S
C3421 C3422 1.334 . S
C3422 H3393 0.950 . S
C3422 C3421 1.334 . S
C3422 C3423 1.287 . S
C3423 C3422 1.287 . S
C3423 C3424 1.524 . S
C3423 H3426 0.999 . S
C3424 H3394 0.950 . S
C3424 C3423 1.524 . S
C3424 C3425 1.415 . S
C3425 H3395 0.950 . S
C3425 C3420 1.363 . S
C3425 C3424 1.415 . S
H3426 C3423 0.999 . S
H3427 C3408 0.913 . S
H3428 C3446 0.951 . S
H3429 C3448 0.951 . S
H3430 C3450 0.950 . S
H3431 C3451 0.950 . S
H3432 C3453 0.950 . S
H3433 C3456 0.948 1_554 S
H3434 C3457 0.950 . S
H3435 C3459 0.950 . S
H3436 C3460 0.960 . S
H3437 C3461 0.951 . S
H3438 C3463 0.951 . S
H3439 C3465 0.950 . S
H3440 C3466 0.950 . S
H3441 C3468 0.950 . S
H3442 C3471 0.950 . S
H3443 C3472 0.950 . S
H3444 C3474 0.950 . S
H3445 C3475 0.950 . S
C3446 H3428 0.951 . S
C3446 C3447 1.366 . S
C3446 C3448 1.388 . S
C3447 C3446 1.366 . S
C3447 C3451 1.385 . S
C3448 H3429 0.951 . S
C3448 C3446 1.388 . S
C3448 C3449 1.366 . S
C3449 C3448 1.366 . S
C3449 C3450 1.414 . S
C3449 C3452 1.499 . S
C3450 H3430 0.950 . S
C3450 C3449 1.414 . S
C3450 C3451 1.374 . S
C3451 H3431 0.950 . S
C3451 C3447 1.385 . S
C3451 C3450 1.374 . S
C3452 C3449 1.499 . S
C3452 C3453 1.373 . S
C3452 C3454 1.389 . S
C3453 H3432 0.950 . S
C3453 C3452 1.373 . S
C3453 C3469 1.377 . S
C3454 C3452 1.389 . S
C3454 C3455 1.524 . S
C3454 C3468 1.377 . S
C3455 C3454 1.524 . S
C3455 C3456 1.397 1_554 S
C3455 C3460 1.363 1_554 S
C3456 H3433 0.948 1_556 S
C3456 C3455 1.397 1_556 S
C3456 C3457 1.334 . S
C3457 H3434 0.950 . S
C3457 C3456 1.334 . S
C3457 C3458 1.287 . S
C3458 C3457 1.287 . S
C3458 C3459 1.524 . S
C3458 H3477 0.913 . S
C3459 H3435 0.950 . S
C3459 C3458 1.524 . S
C3459 C3460 1.415 . S
C3460 H3436 0.960 . S
C3460 C3455 1.363 1_556 S
C3460 C3459 1.415 . S
C3461 H3437 0.951 . S
C3461 C3462 1.366 . S
C3461 C3463 1.388 . S
C3462 C3461 1.366 . S
C3462 C3466 1.385 . S
C3463 H3438 0.951 . S
C3463 C3461 1.388 . S
C3463 C3464 1.366 . S
C3464 C3463 1.366 . S
C3464 C3465 1.414 . S
C3464 C3467 1.499 . S
C3465 H3439 0.950 . S
C3465 C3464 1.414 . S
C3465 C3466 1.374 . S
C3466 H3440 0.950 . S
C3466 C3462 1.385 . S
C3466 C3465 1.374 . S
C3467 C3464 1.499 . S
C3467 C3468 1.373 . S
C3467 C3469 1.389 . S
C3468 H3441 0.950 . S
C3468 C3454 1.377 . S
C3468 C3467 1.373 . S
C3469 C3453 1.377 . S
C3469 C3467 1.389 . S
C3469 C3470 1.524 . S
C3470 C3469 1.524 . S
C3470 C3471 1.397 . S
C3470 C3475 1.363 . S
C3471 H3442 0.950 . S
C3471 C3470 1.397 . S
C3471 C3472 1.334 . S
C3472 H3443 0.950 . S
C3472 C3471 1.334 . S
C3472 C3473 1.287 . S
C3473 C3472 1.287 . S
C3473 C3474 1.524 . S
C3473 H3476 0.999 . S
C3474 H3444 0.950 . S
C3474 C3473 1.524 . S
C3474 C3475 1.415 . S
C3475 H3445 0.950 . S
C3475 C3470 1.363 . S
C3475 C3474 1.415 . S
H3476 C3473 0.999 . S
H3477 C3458 0.913 . S
H3478 C3496 0.951 . S
H3479 C3498 0.951 . S
H3480 C3500 0.950 . S
H3481 C3501 0.950 1_545 S
H3482 C3503 0.950 . S
H3483 C3506 0.950 . S
H3484 C3507 0.950 . S
H3485 C3509 0.950 . S
H3486 C3510 0.950 . S
H3487 C3511 0.951 . S
H3488 C3513 0.951 . S
H3489 C3515 0.950 . S
H3490 C3516 0.950 . S
H3491 C3518 0.950 . S
H3492 C3521 0.950 . S
H3493 C3522 0.950 . S
H3494 C3524 0.938 1_554 S
H3495 C3525 0.950 . S
C3496 H3478 0.951 . S
C3496 C3497 1.366 . S
C3496 C3498 1.388 . S
C3497 C3496 1.366 . S
C3497 C3501 1.385 . S
C3498 H3479 0.951 . S
C3498 C3496 1.388 . S
C3498 C3499 1.366 . S
C3499 C3498 1.366 . S
C3499 C3500 1.414 . S
C3499 C3502 1.499 . S
C3500 H3480 0.950 . S
C3500 C3499 1.414 . S
C3500 C3501 1.374 . S
C3501 H3481 0.950 1_565 S
C3501 C3497 1.385 . S
C3501 C3500 1.374 . S
C3502 C3499 1.499 . S
C3502 C3503 1.373 . S
C3502 C3504 1.389 . S
C3503 H3482 0.950 . S
C3503 C3502 1.373 . S
C3503 C3519 1.377 . S
C3504 C3502 1.389 . S
C3504 C3505 1.524 . S
C3504 C3518 1.377 . S
C3505 C3504 1.524 . S
C3505 C3506 1.397 . S
C3505 C3510 1.363 . S
C3506 H3483 0.950 . S
C3506 C3505 1.397 . S
C3506 C3507 1.334 . S
C3507 H3484 0.950 . S
C3507 C3506 1.334 . S
C3507 C3508 1.287 . S
C3508 C3507 1.287 . S
C3508 C3509 1.524 . S
C3508 H3527 0.913 . S
C3509 H3485 0.950 . S
C3509 C3508 1.524 . S
C3509 C3510 1.415 . S
C3510 H3486 0.950 . S
C3510 C3505 1.363 . S
C3510 C3509 1.415 . S
C3511 H3487 0.951 . S
C3511 C3512 1.366 . S
C3511 C3513 1.388 . S
C3512 C3511 1.366 . S
C3512 C3516 1.385 . S
C3513 H3488 0.951 . S
C3513 C3511 1.388 . S
C3513 C3514 1.366 . S
C3514 C3513 1.366 . S
C3514 C3515 1.414 . S
C3514 C3517 1.499 . S
C3515 H3489 0.950 . S
C3515 C3514 1.414 . S
C3515 C3516 1.374 . S
C3516 H3490 0.950 . S
C3516 C3512 1.385 . S
C3516 C3515 1.374 . S
C3517 C3514 1.499 . S
C3517 C3518 1.373 . S
C3517 C3519 1.389 . S
C3518 H3491 0.950 . S
C3518 C3504 1.377 . S
C3518 C3517 1.373 . S
C3519 C3503 1.377 . S
C3519 C3517 1.389 . S
C3519 C3520 1.524 . S
C3520 C3519 1.524 . S
C3520 C3521 1.397 1_554 S
C3520 C3525 1.363 . S
C3521 H3492 0.950 . S
C3521 C3520 1.397 1_556 S
C3521 C3522 1.334 . S
C3522 H3493 0.950 . S
C3522 C3521 1.334 . S
C3522 C3523 1.287 . S
C3523 C3522 1.287 . S
C3523 C3524 1.568 . S
C3523 H3526 0.999 . S
C3524 H3494 0.938 1_556 S
C3524 C3523 1.568 . S
C3524 C3525 1.386 1_556 S
C3525 H3495 0.950 . S
C3525 C3520 1.363 . S
C3525 C3524 1.386 1_554 S
H3526 C3523 0.999 . S
H3527 C3508 0.913 . S
C1162 C968 1.495 . S
C1147 C331 1.501 . S
C1212 C981 1.473 . S
C1197 C380 1.448 . S
C1247 C421 1.661 . S
C1262 C1001 1.564 . S
C1312 C1015 1.356 . S
C1297 C260 1.411 . S
C1362 C1027 1.523 . S
C1347 C620 1.499 . S
C1412 C1041 1.408 . S
C1397 C740 1.392 . S
C1447 C680 1.474 . S
C1462 C1051 1.484 . S
C1512 C1066 1.512 . S
C1497 C571 1.511 . S
C1547 C691 1.499 . S
C1562 C1080 1.495 . S
C1612 C1099 1.357 . S
C1597 C541 1.405 . S
C1647 C601 1.466 . S
C1662 C1079 1.484 . S
C1712 C1097 1.408 . S
C1697 C721 1.392 . S
C1747 C451 1.661 . S
C1762 C1113 1.563 . S
C1797 C241 1.462 . S
C1812 C1107 1.474 . S
C1847 C320 1.499 . S
C1862 C1111 1.523 . S
C1897 C391 1.510 . S
C1912 C1108 1.512 . S
C1947 C211 1.501 . S
C1962 C1010 1.495 . S
C1997 C841 1.467 . S
C2012 C1009 1.485 . S
C2062 C973 1.357 . S
C2047 C901 1.405 . S
C2112 C987 1.563 . S
C2097 C500 1.660 . S
C2147 C271 1.532 1_545 S
C2162 C1024 1.512 . S
C2212 C1069 1.523 . S
C2197 C661 1.507 . S
C2262 C1023 1.474 . S
C2247 C560 1.448 . S
C2312 C1055 1.408 . S
C2297 C751 1.392 . S
C2362 C1052 1.495 . S
C2347 C871 1.501 . S
C2397 C920 1.451 . S
C2412 C1065 1.473 . S
C2447 C481 1.661 . S
C2462 C1029 1.563 . S
C2512 C1043 1.357 . S
C2497 C800 1.411 . S
C2547 C200 1.499 . S
C2562 C999 1.523 . S
C2612 C1013 1.408 . S
C2597 C20 1.392 1_655 S
C2662 C967 1.484 . S
C2647 C80 1.474 . S
C2712 C982 1.512 . S
C2697 C151 1.511 1_455 S
C2747 C91 1.499 . S
C2762 C1094 1.496 . S
C2797 C121 1.406 . S
C2812 C1085 1.355 . S
C2847 C181 1.467 . S
C2862 C1093 1.484 . S
C2897 C1 1.392 1_556 S
C2912 C1083 1.408 . S
C2962 C1127 1.563 . S
C2947 C511 1.660 . S
C3012 C1121 1.474 . S
C2997 C781 1.463 1_554 S
C3062 C1125 1.523 . S
C3047 C860 1.499 . S
C3097 C931 1.511 1_554 S
C3112 C1122 1.512 . S
C3147 C631 1.501 . S
C3162 C1038 1.495 . S
C3212 C1037 1.485 . S
C3197 C301 1.467 . S
C3262 C1057 1.357 . S
C3247 C361 1.405 . S
C3312 C1071 1.562 . S
C3297 C440 1.660 . S
C3347 C811 1.532 . S
C3362 C996 1.512 . S
C3412 C985 1.523 . S
C3397 C61 1.508 . S
C3447 C140 1.451 . S
C3462 C995 1.473 . S
C3512 C971 1.408 . S
C3497 C31 1.392 1_565 S
