# Generated by pormake.
# Topology pyr, (3,6)-cn, num edge types: 1
# Building blocks:
#     Node 0, Type 0, BuildingBlock: BETDAH_clean_linker_0, # of connection points: 3
#     Node 1, Type 0, BuildingBlock: BETDAH_clean_linker_0, # of connection points: 3
#     Node 2, Type 0, BuildingBlock: BETDAH_clean_linker_0, # of connection points: 3
#     Node 3, Type 0, BuildingBlock: BETDAH_clean_linker_0, # of connection points: 3
#     Node 4, Type 0, BuildingBlock: BETDAH_clean_linker_0, # of connection points: 3
#     Node 5, Type 0, BuildingBlock: BETDAH_clean_linker_0, # of connection points: 3
#     Node 6, Type 0, BuildingBlock: BETDAH_clean_linker_0, # of connection points: 3
#     Node 7, Type 0, BuildingBlock: BETDAH_clean_linker_0, # of connection points: 3
#     Node 8, Type 1, BuildingBlock: PAMTOO_clean_sbu_0, # of connection points: 6
#     Node 9, Type 1, BuildingBlock: PAMTOO_clean_sbu_0, # of connection points: 6
#     Node 10, Type 1, BuildingBlock: PAMTOO_clean_sbu_0, # of connection points: 6
#     Node 11, Type 1, BuildingBlock: PAMTOO_clean_sbu_0, # of connection points: 6
#     Edge 12, Type (0, 1), BuildingBlock: ZUJKAS_clean_linker_0, # of connection points: 2
#     Edge 13, Type (0, 1), BuildingBlock: ZUJKAS_clean_linker_0, # of connection points: 2
#     Edge 14, Type (0, 1), BuildingBlock: ZUJKAS_clean_linker_0, # of connection points: 2
#     Edge 15, Type (0, 1), BuildingBlock: ZUJKAS_clean_linker_0, # of connection points: 2
#     Edge 16, Type (0, 1), BuildingBlock: ZUJKAS_clean_linker_0, # of connection points: 2
#     Edge 17, Type (0, 1), BuildingBlock: ZUJKAS_clean_linker_0, # of connection points: 2
#     Edge 18, Type (0, 1), BuildingBlock: ZUJKAS_clean_linker_0, # of connection points: 2
#     Edge 19, Type (0, 1), BuildingBlock: ZUJKAS_clean_linker_0, # of connection points: 2
#     Edge 20, Type (0, 1), BuildingBlock: ZUJKAS_clean_linker_0, # of connection points: 2
#     Edge 21, Type (0, 1), BuildingBlock: ZUJKAS_clean_linker_0, # of connection points: 2
#     Edge 22, Type (0, 1), BuildingBlock: ZUJKAS_clean_linker_0, # of connection points: 2
#     Edge 23, Type (0, 1), BuildingBlock: ZUJKAS_clean_linker_0, # of connection points: 2
#     Edge 24, Type (0, 1), BuildingBlock: ZUJKAS_clean_linker_0, # of connection points: 2
#     Edge 25, Type (0, 1), BuildingBlock: ZUJKAS_clean_linker_0, # of connection points: 2
#     Edge 26, Type (0, 1), BuildingBlock: ZUJKAS_clean_linker_0, # of connection points: 2
#     Edge 27, Type (0, 1), BuildingBlock: ZUJKAS_clean_linker_0, # of connection points: 2
#     Edge 28, Type (0, 1), BuildingBlock: ZUJKAS_clean_linker_0, # of connection points: 2
#     Edge 29, Type (0, 1), BuildingBlock: ZUJKAS_clean_linker_0, # of connection points: 2
#     Edge 30, Type (0, 1), BuildingBlock: ZUJKAS_clean_linker_0, # of connection points: 2
#     Edge 31, Type (0, 1), BuildingBlock: ZUJKAS_clean_linker_0, # of connection points: 2
#     Edge 32, Type (0, 1), BuildingBlock: ZUJKAS_clean_linker_0, # of connection points: 2
#     Edge 33, Type (0, 1), BuildingBlock: ZUJKAS_clean_linker_0, # of connection points: 2
#     Edge 34, Type (0, 1), BuildingBlock: ZUJKAS_clean_linker_0, # of connection points: 2
#     Edge 35, Type (0, 1), BuildingBlock: ZUJKAS_clean_linker_0, # of connection points: 2
# Relax obj value: 0.094
# Max RMSD: 0.187
# Mean RMSD: 0.126
data_MOF--net-pyr--node1-PAMTOO_clean_sbu_0--node2-BETDAH_clean_linker_0--edge1-ZUJKAS_clean_linker_0
_symmetry_space_group_name_H-M    P1
_symmetry_Int_Tables_number       1
_symmetry_cell_setting            triclinic
loop_
_symmetry_equiv_pos_as_xyz
'x, y, z'
_cell_length_a     46.686988
_cell_length_b     50.287787
_cell_length_c     52.356221
_cell_angle_alpha  90.512803
_cell_angle_beta   90.701705
_cell_angle_gamma 108.0909
loop_
_atom_site_label
_atom_site_type_symbol
_atom_site_fract_x
_atom_site_fract_y
_atom_site_fract_z
_atom_type_partial_charge
H0 H 0.32248 0.22218 0.22498 0.0
H1 H 0.37347 0.29344 0.18212 0.0
H2 H 0.29886 0.29823 0.22723 0.0
C3 C 0.32626 0.2435 0.2188 0.0
C4 C 0.30786 0.25872 0.22805 0.0
C5 C 0.35001 0.25575 0.20224 0.0
C6 C 0.3555 0.28375 0.19518 0.0
C7 C 0.33688 0.29899 0.2037 0.0
C8 C 0.31315 0.28647 0.22032 0.0
N9 N 0.34217 0.32665 0.19487 0.0
C10 C 0.31934 0.33883 0.19266 0.0
H11 H 0.26428 0.80135 0.73701 0.0
H12 H 0.17966 0.81866 0.73711 0.0
H13 H 0.19288 0.7568 0.68532 0.0
C14 C 0.2417 0.79768 0.72929 0.0
C15 C 0.23113 0.77777 0.70964 0.0
C16 C 0.22332 0.81241 0.73949 0.0
C17 C 0.19394 0.80715 0.72965 0.0
C18 C 0.18295 0.78698 0.71015 0.0
C19 C 0.20135 0.77198 0.70062 0.0
N20 N 0.15374 0.78198 0.69938 0.0
C21 C 0.14193 0.80367 0.69475 0.0
H22 H 0.6954 0.3769 0.9132 0.0
H23 H 0.69413 0.43178 0.85076 0.0
H24 H 0.62615 0.35147 0.85507 0.0
C25 C 0.68463 0.38128 0.89598 0.0
C26 C 0.65901 0.3609 0.88594 0.0
C27 C 0.69739 0.40694 0.88367 0.0
C28 C 0.68435 0.41221 0.8605 0.0
C29 C 0.65849 0.39198 0.85022 0.0
C30 C 0.6462 0.36665 0.86304 0.0
N31 N 0.64395 0.39547 0.82697 0.0
C32 C 0.64939 0.4193 0.812 0.0
H33 H 0.85451 0.7308 0.40838 0.0
H34 H 0.90067 0.73856 0.33661 0.0
H35 H 0.82022 0.66981 0.34851 0.0
C36 C 0.85655 0.72271 0.38946 0.0
C37 C 0.83469 0.69816 0.38068 0.0
C38 C 0.88042 0.73759 0.37384 0.0
C39 C 0.88285 0.72705 0.34907 0.0
C40 C 0.86131 0.70214 0.34017 0.0
C41 C 0.83737 0.68821 0.35596 0.0
N42 N 0.86049 0.69204 0.31458 0.0
C43 C 0.88487 0.6917 0.29957 0.0
H44 H 0.77629 0.79944 0.85438 0.0
H45 H 0.71448 0.76877 0.91558 0.0
H46 H 0.6989 0.8277 0.8625 0.0
C47 C 0.75568 0.79851 0.86416 0.0
C48 C 0.73814 0.81485 0.8554 0.0
C49 C 0.74765 0.78202 0.88601 0.0
C50 C 0.72133 0.78167 0.89888 0.0
C51 C 0.70401 0.79839 0.89082 0.0
C52 C 0.71254 0.81513 0.8691 0.0
N53 N 0.67809 0.79782 0.90491 0.0
C54 C 0.66682 0.82029 0.90639 0.0
H55 H 0.82785 0.23056 0.37317 0.0
H56 H 0.87399 0.29545 0.42686 0.0
H57 H 0.79929 0.30353 0.38224 0.0
C58 C 0.83048 0.25067 0.38225 0.0
C59 C 0.811 0.26589 0.37536 0.0
C60 C 0.85316 0.26103 0.40089 0.0
C61 C 0.85651 0.28712 0.41249 0.0
C62 C 0.83706 0.3024 0.40609 0.0
C63 C 0.81435 0.29178 0.3874 0.0
N64 N 0.84076 0.32822 0.41895 0.0
C65 C 0.81755 0.33983 0.42148 0.0
H66 H 0.34948 0.73818 0.19623 0.0
H67 H 0.35447 0.68028 0.25508 0.0
H68 H 0.42711 0.7569 0.24609 0.0
C69 C 0.3615 0.73262 0.2121 0.0
C70 C 0.38982 0.75086 0.21954 0.0
C71 C 0.34846 0.70713 0.22465 0.0
C72 C 0.36417 0.69987 0.24536 0.0
C73 C 0.3925 0.71821 0.25331 0.0
C74 C 0.40503 0.74333 0.24021 0.0
N75 N 0.40996 0.71236 0.27378 0.0
C76 C 0.40117 0.69145 0.29204 0.0
H77 H 0.19274 0.3628 0.69224 0.0
H78 H 0.18708 0.4235 0.74903 0.0
H79 H 0.11476 0.3462 0.73954 0.0
C80 C 0.18053 0.36908 0.70742 0.0
C81 C 0.15218 0.35112 0.71424 0.0
C82 C 0.19337 0.3952 0.71968 0.0
C83 C 0.17749 0.40341 0.73954 0.0
C84 C 0.14918 0.38535 0.74697 0.0
C85 C 0.13683 0.35956 0.73412 0.0
N86 N 0.13162 0.39205 0.76667 0.0
C87 C 0.13991 0.41423 0.78431 0.0
Dy88 Dy 0.0515 0.05386 0.52741 0.0
Dy89 Dy 0.98658 0.03457 0.55703 0.0
C90 C 0.03882 0.08951 0.57291 0.0
O91 O 0.05487 0.02041 0.55373 0.0
O92 O 0.01721 0.01946 0.58212 0.0
O93 O 0.09337 0.0863 0.52072 0.0
O94 O 0.08442 0.04568 0.50243 0.0
O95 O 0.98862 0.99725 0.53429 0.0
O96 O 0.01963 0.02067 0.50276 0.0
O97 O 0.97729 0.05315 0.52063 0.0
O98 O 0.02534 0.08023 0.51112 0.0
O99 O 0.93963 0.00961 0.5601 0.0
O100 O 0.96032 0.04206 0.58812 0.0
C101 C 0.04105 0.01255 0.5754 0.0
O102 O 0.0578 0.07691 0.56486 0.0
O103 O 0.0103 0.07973 0.56618 0.0
C104 C 0.11324 0.08547 0.47999 0.0
C105 C 0.13451 0.11535 0.43524 0.0
C106 C 0.15361 0.11786 0.4567 0.0
C107 C 0.14305 0.10301 0.47886 0.0
C108 C 0.09399 0.08283 0.45865 0.0
C109 C 0.10464 0.09753 0.43635 0.0
C110 C 0.10234 0.07138 0.50404 0.0
C111 C 0.99968 0.9979 0.51123 0.0
C112 C 0.99598 0.07379 0.50823 0.0
C113 C 0.92064 1.00313 0.60253 0.0
C114 C 0.88612 0.97173 0.64225 0.0
C115 C 0.87839 0.9642 0.61657 0.0
C116 C 0.89539 0.97987 0.5969 0.0
C117 C 0.92882 0.01015 0.62825 0.0
C118 C 0.91175 0.99462 0.64787 0.0
C119 C 0.93646 0.02138 0.58174 0.0
H120 H 0.17684 0.13114 0.45628 0.0
H121 H 0.15813 0.1054 0.49522 0.0
H122 H 0.07074 0.06965 0.45933 0.0
H123 H 0.08939 0.09537 0.42015 0.0
H124 H 0.85862 0.94678 0.61168 0.0
H125 H 0.88833 0.9742 0.57727 0.0
H126 H 0.94804 0.02803 0.63333 0.0
H127 H 0.91849 1.00068 0.66748 0.0
Dy128 Dy 0.49424 0.04357 0.03153 0.0
Dy129 Dy 0.55777 0.06219 0.06465 0.0
C130 C 0.50537 1.00588 0.07626 0.0
O131 O 0.48413 0.0614 0.06822 0.0
O132 O 0.53166 0.08918 0.07963 0.0
O133 O 0.44657 0.02131 0.02766 0.0
O134 O 0.46986 0.04914 0.9979 0.0
O135 O 0.5654 0.08634 0.02833 0.0
O136 O 0.51784 0.08886 0.02463 0.0
O137 O 0.56233 0.02922 0.03778 0.0
O138 O 0.52584 0.02883 1.0076 0.0
O139 O 0.60069 0.09319 0.07278 0.0
O140 O 0.58811 0.05381 0.09274 0.0
C141 C 0.50226 0.08233 0.08145 0.0
O142 O 0.49616 1.00557 0.05241 0.0
O143 O 0.52416 0.02873 0.08655 0.0
C144 C 0.42742 0.01121 0.98485 0.0
C145 C 0.39047 0.9765 0.94679 0.0
C146 C 0.38931 0.96763 0.97226 0.0
C147 C 0.40758 0.98484 0.99113 0.0
C148 C 0.42876 0.01988 0.95934 0.0
C149 C 0.4106 1.00271 0.94053 0.0
C150 C 0.44468 0.03089 1.00481 0.0
C151 C 0.5466 0.09891 0.01964 0.0
C152 C 0.5495 0.0219 0.01522 0.0
C153 C 0.61849 0.09436 0.115 0.0
C154 C 0.64011 0.12648 0.15957 0.0
C155 C 0.65737 0.131 0.1373 0.0
C156 C 0.64668 0.11502 0.11527 0.0
C157 C 0.60107 0.08975 0.13718 0.0
C158 C 0.61192 0.10558 0.15937 0.0
C159 C 0.60752 0.07877 0.09108 0.0
H160 H 0.37418 0.94745 0.97763 0.0
H161 H 0.40574 0.97767 1.01067 0.0
H162 H 0.44337 0.0403 0.95397 0.0
H163 H 0.41167 0.0104 0.92119 0.0
H164 H 0.67935 0.14669 0.137 0.0
H165 H 0.6604 0.11892 0.09832 0.0
H166 H 0.57906 0.07409 0.13732 0.0
H167 H 0.5981 0.1018 0.17625 0.0
Dy168 Dy 0.51072 0.52141 0.5404 0.0
Dy169 Dy 0.52075 0.58215 0.56875 0.0
C170 C 0.54721 0.53695 0.59397 0.0
O171 O 0.46548 0.51804 0.55675 0.0
O172 O 0.48154 0.5521 0.58779 0.0
O173 O 0.50231 0.47665 0.5417 0.0
O174 O 0.50796 0.49758 0.50545 0.0
O175 O 0.48563 0.57896 0.53817 0.0
O176 O 0.49938 0.54915 0.51139 0.0
O177 O 0.557 0.58983 0.5397 0.0
O178 O 0.55944 0.54523 0.53481 0.0
O179 O 0.52718 0.62649 0.56662 0.0
O180 O 0.52508 0.60679 0.60341 0.0
C181 C 0.46091 0.53016 0.57804 0.0
O182 O 0.52803 0.51758 0.57984 0.0
O183 O 0.55241 0.56369 0.58935 0.0
C184 C 0.52903 0.4614 0.50999 0.0
C185 C 0.57389 0.43882 0.49339 0.0
C186 C 0.58118 0.46198 0.51024 0.0
C187 C 0.55896 0.47316 0.51845 0.0
C188 C 0.52147 0.43818 0.4934 0.0
C189 C 0.54374 0.42693 0.48516 0.0
C190 C 0.50625 0.47451 0.51727 0.0
C191 C 0.48594 0.56817 0.51527 0.0
C192 C 0.57083 0.57235 0.5315 0.0
C193 C 0.50127 0.64111 0.59924 0.0
C194 C 0.45541 0.66196 0.61655 0.0
C195 C 0.44872 0.6393 0.59917 0.0
C196 C 0.47143 0.62891 0.59067 0.0
C197 C 0.50821 0.66384 0.61636 0.0
C198 C 0.48545 0.67422 0.62496 0.0
C199 C 0.52467 0.62914 0.59122 0.0
H200 H 0.60423 0.47193 0.51662 0.0
H201 H 0.56522 0.49129 0.5311 0.0
H202 H 0.49846 0.42897 0.48659 0.0
H203 H 0.53735 0.40892 0.47238 0.0
H204 H 0.42594 0.62963 0.59203 0.0
H205 H 0.46566 0.61119 0.57755 0.0
H206 H 0.53111 0.67328 0.62333 0.0
H207 H 0.49129 0.69145 0.63861 0.0
Dy208 Dy 0.03539 0.58773 0.03283 0.0
Dy209 Dy 0.02253 0.52762 0.06152 0.0
C210 C 1.0018 0.57753 0.0859 0.0
O211 O 0.07132 0.5947 0.06314 0.0
O212 O 0.07182 0.54958 0.06759 0.0
O213 O 0.04489 0.63258 0.03436 0.0
O214 O 0.04017 0.61107 0.99784 0.0
O215 O 0.03631 0.52138 0.02155 0.0
O216 O 0.06462 0.56625 1.01296 0.0
O217 O 0.97738 0.52577 0.04511 0.0
O218 O 0.99385 0.55886 0.01416 0.0
O219 O 0.01404 0.48283 0.0603 0.0
O220 O 0.01733 0.50434 0.09656 0.0
C221 C 0.08412 0.57657 0.07171 0.0
O222 O 1.00147 0.58751 0.06284 0.0
O223 O 0.01386 0.55758 0.09017 0.0
C224 C 0.01919 0.64752 1.00135 0.0
C225 C 0.9746 0.66979 0.98299 0.0
C226 C 0.9682 0.6502 1.00276 0.0
C227 C 0.99025 0.63906 1.01177 0.0
C228 C 0.02584 0.66726 0.98181 0.0
C229 C 1.00369 0.67831 0.97266 0.0
C230 C 0.04163 0.63434 1.00972 0.0
C231 C 0.05654 0.53929 1.00771 0.0
C232 C 0.97274 0.53781 0.02392 0.0
C233 C 0.03862 0.46807 0.09421 0.0
C234 C 0.08247 0.44591 0.11441 0.0
C235 C 0.09034 0.46741 0.09635 0.0
C236 C 0.06863 0.47841 0.08639 0.0
C237 C 0.03048 0.44642 0.11194 0.0
C238 C 0.05223 0.43534 0.12194 0.0
C239 C 0.0164 0.48108 0.085 0.0
H240 H 0.94589 0.64292 1.01083 0.0
H241 H 0.98456 0.62349 0.0266 0.0
H242 H 0.048 0.67382 0.97343 0.0
H243 H 0.0093 0.69352 0.95753 0.0
H244 H 0.1133 0.47572 0.08984 0.0
H245 H 0.07534 0.49521 0.07274 0.0
H246 H 0.00744 0.43839 0.11833 0.0
H247 H 0.04551 0.41897 0.13599 0.0
H248 H 0.29577 0.28048 0.27314 0.0
H249 H 0.26007 0.25627 0.30569 0.0
H250 H 0.22974 0.18331 0.25652 0.0
H251 H 0.26569 0.20723 0.22412 0.0
H252 H 0.19778 0.23073 0.30661 0.0
H253 H 0.25924 0.15325 0.32022 0.0
H254 H 0.27441 0.18472 0.30212 0.0
H255 H 0.24637 0.155 0.28802 0.0
C256 C 0.28114 0.25943 0.26916 0.0
C257 C 0.28373 0.24556 0.2463 0.0
C258 C 0.26083 0.24562 0.28775 0.0
C259 C 0.24277 0.2178 0.28371 0.0
C260 C 0.24404 0.20453 0.26026 0.0
H261 H 0.1274 0.09593 0.3859 0.0
H262 H 0.15011 0.1212 0.34762 0.0
C263 C 0.2645 0.21821 0.24178 0.0
C264 C 0.22386 0.2022 0.30454 0.0
H265 H 0.21436 0.14592 0.34325 0.0
C266 C 0.20133 0.21216 0.31461 0.0
C267 C 0.2287 0.17805 0.31501 0.0
C268 C 0.25366 0.16722 0.30599 0.0
C269 C 0.18336 0.19847 0.33482 0.0
C270 C 0.18827 0.1744 0.34525 0.0
C271 C 0.21053 0.16427 0.335 0.0
C272 C 0.17183 0.16016 0.36775 0.0
C273 C 0.1592 0.20974 0.34483 0.0
C274 C 0.17649 0.17379 0.39163 0.0
C275 C 0.16371 0.15941 0.41346 0.0
C276 C 0.14604 0.13114 0.41178 0.0
C277 C 0.1407 0.11776 0.38771 0.0
C278 C 0.15369 0.13212 0.36589 0.0
H279 H 0.15342 0.22399 0.33101 0.0
H280 H 0.13846 0.19241 0.34917 0.0
H281 H 0.16738 0.2217 0.3628 0.0
H282 H 0.19082 0.19529 0.3935 0.0
H283 H 0.16798 0.17031 0.43174 0.0
H284 H 0.2785 0.85195 0.74332 0.0
H285 H 0.30061 0.88115 0.78046 0.0
H286 H 0.21691 0.84894 0.82045 0.0
H287 H 0.19484 0.81889 0.78348 0.0
H288 H 0.28405 0.92222 0.80751 0.0
H289 H 0.27855 0.83014 0.86779 0.0
H290 H 0.2726 0.82724 0.83363 0.0
H291 H 0.24345 0.83111 0.85401 0.0
C292 C 0.26477 0.85111 0.76 0.0
C293 C 0.2351 0.83282 0.76066 0.0
C294 C 0.27737 0.86791 0.78114 0.0
C295 C 0.26057 0.86678 0.80334 0.0
C296 C 0.23041 0.84969 0.80363 0.0
H297 H 0.33059 0.94683 0.95071 0.0
H298 H 0.29652 0.92051 0.91685 0.0
C299 C 0.21775 0.83279 0.78243 0.0
C300 C 0.2754 0.88269 0.82636 0.0
H301 H 0.30116 0.87465 0.88622 0.0
C302 C 0.28756 0.91187 0.82482 0.0
C303 C 0.27992 0.86907 0.84889 0.0
C304 C 0.26818 0.83765 0.85127 0.0
C305 C 0.30467 0.92778 0.84504 0.0
C306 C 0.31007 0.91406 0.86718 0.0
C307 C 0.29699 0.88502 0.86915 0.0
C308 C 0.33067 0.92931 0.88785 0.0
C309 C 0.31705 0.95912 0.84246 0.0
C310 C 0.36126 0.94225 0.88285 0.0
C311 C 0.38079 0.95705 0.90213 0.0
C312 C 0.3701 0.95911 0.92683 0.0
C313 C 0.33957 0.94543 0.93195 0.0
C314 C 0.32004 0.93057 0.91262 0.0
H315 H 0.30429 0.96698 0.82788 0.0
H316 H 0.31643 0.96988 0.86096 0.0
H317 H 0.34087 0.96481 0.83639 0.0
H318 H 0.37003 0.9409 0.86398 0.0
H319 H 0.40428 0.96689 0.89769 0.0
H320 H 0.61914 0.45717 0.81427 0.0
H321 H 0.60623 0.48233 0.77807 0.0
H322 H 0.65986 0.44857 0.72854 0.0
H323 H 0.67301 0.42369 0.76482 0.0
H324 H 0.66437 0.5051 0.71769 0.0
H325 H 0.5453 0.43781 0.72381 0.0
H326 H 0.56055 0.45677 0.75268 0.0
H327 H 0.57562 0.43026 0.74089 0.0
C328 C 0.62886 0.45585 0.79579 0.0
C329 C 0.64735 0.43884 0.79232 0.0
C330 C 0.62121 0.46995 0.77505 0.0
C331 C 0.63164 0.467 0.75041 0.0
C332 C 0.65149 0.45118 0.7473 0.0
H333 H 0.54639 0.48388 0.60615 0.0
H334 H 0.56856 0.46867 0.64352 0.0
C335 C 0.65913 0.43709 0.76805 0.0
C336 C 0.62021 0.47863 0.72766 0.0
H337 H 0.55597 0.47345 0.69312 0.0
C338 C 0.64066 0.49828 0.71235 0.0
C339 C 0.58932 0.46939 0.72037 0.0
C340 C 0.5664 0.44722 0.73511 0.0
C341 C 0.63103 0.50905 0.69018 0.0
C342 C 0.60003 0.50021 0.6832 0.0
C343 C 0.57968 0.48046 0.69848 0.0
C344 C 0.58816 0.51021 0.65969 0.0
C345 C 0.6543 0.52921 0.67405 0.0
C346 C 0.59175 0.53875 0.65606 0.0
C347 C 0.57913 0.54761 0.63449 0.0
C348 C 0.56235 0.52809 0.61616 0.0
C349 C 0.55906 0.49958 0.61979 0.0
C350 C 0.57175 0.49079 0.64124 0.0
H351 H 0.67735 0.52822 0.67814 0.0
H352 H 0.64915 0.52488 0.65338 0.0
H353 H 0.65422 0.55085 0.67829 0.0
H354 H 0.60371 0.55417 0.67021 0.0
H355 H 0.58196 0.56969 0.63249 0.0
H356 H 0.91366 0.65268 0.30132 0.0
H357 H 0.93669 0.63559 0.26533 0.0
H358 H 0.91845 0.69744 0.21674 0.0
H359 H 0.89586 0.71471 0.25284 0.0
H360 H 0.90759 0.61247 0.22124 0.0
H361 H 1.00422 0.70475 0.19727 0.0
H362 H 0.98464 0.70213 0.22712 0.0
H363 H 0.96901 0.71209 0.19854 0.0
C364 C 0.91551 0.66317 0.28315 0.0
C365 C 0.90365 0.68539 0.27994 0.0
C366 C 0.92843 0.65325 0.26251 0.0
C367 C 0.92973 0.66536 0.23824 0.0
C368 C 0.91849 0.68811 0.23529 0.0
H369 H 0.97816 0.62141 0.08577 0.0
H370 H 0.96017 0.64227 0.12232 0.0
C371 C 0.90559 0.69802 0.25595 0.0
C372 C 0.94048 0.65275 0.2157 0.0
H373 H 0.99092 0.66725 0.16685 0.0
C374 C 0.92597 0.62445 0.20949 0.0
C375 C 0.96429 0.66831 0.20009 0.0
C376 C 0.98166 0.69843 0.20618 0.0
C377 C 0.93425 0.61146 0.18809 0.0
C378 C 0.95813 0.62697 0.17254 0.0
C379 C 0.97259 0.65531 0.17866 0.0
C380 C 0.96875 0.61402 0.15017 0.0
C381 C 0.91679 0.58135 0.18199 0.0
C382 C 0.97982 0.59127 0.15352 0.0
C383 C 0.99005 0.57925 0.13266 0.0
C384 C 0.98967 0.58974 0.10783 0.0
C385 C 0.97865 0.61261 0.10451 0.0
C386 C 0.96844 0.62466 0.12545 0.0
H387 H 0.89432 0.575 0.19105 0.0
H388 H 0.91358 0.57773 0.16105 0.0
H389 H 0.92949 0.56765 0.18942 0.0
H390 H 0.98092 0.58298 0.17239 0.0
H391 H 0.99856 0.56185 0.1361 0.0
H392 H 0.32969 0.20234 0.18352 0.0
H393 H 0.35926 0.17444 0.16558 0.0
H394 H 0.44079 0.24314 0.17819 0.0
H395 H 0.41134 0.27114 0.19671 0.0
H396 H 0.39819 0.19033 0.12224 0.0
H397 H 0.45875 0.17384 0.21002 0.0
H398 H 0.42486 0.18391 0.21123 0.0
H399 H 0.46002 0.20921 0.20326 0.0
C400 C 0.35396 0.21139 0.18284 0.0
C401 C 0.36823 0.23888 0.19166 0.0
C402 C 0.37077 0.19548 0.17247 0.0
C403 C 0.40217 0.20665 0.17086 0.0
C404 C 0.41659 0.23405 0.17964 0.0
H405 H 0.53136 0.13184 0.10618 0.0
H406 H 0.50833 0.1628 0.12862 0.0
C407 C 0.39974 0.25008 0.18996 0.0
C408 C 0.41943 0.18984 0.15887 0.0
H409 H 0.47003 0.1549 0.1714 0.0
C410 C 0.41396 0.18262 0.13294 0.0
C411 C 0.44011 0.18007 0.17292 0.0
C412 C 0.44628 0.18692 0.20095 0.0
C413 C 0.42848 0.16565 0.12065 0.0
C414 C 0.44847 0.15512 0.13486 0.0
C415 C 0.45454 0.16289 0.16066 0.0
C416 C 0.46262 0.13547 0.12324 0.0
C417 C 0.42244 0.15931 0.0925 0.0
C418 C 0.44458 0.10949 0.11359 0.0
C419 C 0.45758 0.09183 0.1007 0.0
C420 C 0.48894 0.09972 0.09743 0.0
C421 C 0.50712 0.12518 0.10826 0.0
C422 C 0.49403 0.14291 0.12109 0.0
H423 H 0.41357 0.17494 0.0831 0.0
H424 H 0.44321 0.15891 0.08261 0.0
H425 H 0.4053 0.13845 0.09002 0.0
H426 H 0.42033 0.10311 0.11559 0.0
H427 H 0.44293 0.07225 0.09288 0.0
H428 H 0.08746 0.81013 0.7035 0.0
H429 H 0.06926 0.84792 0.68716 0.0
H430 H 0.15555 0.88631 0.65277 0.0
H431 H 0.17368 0.84868 0.66908 0.0
H432 H 0.09831 0.91199 0.69235 0.0
H433 H 0.08818 0.86752 0.59374 0.0
H434 H 0.08899 0.84699 0.62172 0.0
H435 H 0.12318 0.87139 0.61044 0.0
C436 C 0.10251 0.82691 0.69273 0.0
C437 C 0.13181 0.82678 0.68736 0.0
C438 C 0.09219 0.84839 0.68348 0.0
C439 C 0.11106 0.8697 0.66867 0.0
C440 C 0.14067 0.86993 0.66406 0.0
H441 H 0.09432 1.0011 0.57232 0.0
H442 H 0.11082 0.96774 0.59734 0.0
C443 C 0.15098 0.84855 0.67336 0.0
C444 C 0.09944 0.89084 0.65665 0.0
H445 H 0.0812 0.91178 0.59861 0.0
C446 C 0.09434 0.91196 0.67189 0.0
C447 C 0.09433 0.89056 0.62999 0.0
C448 C 0.0987 0.86782 0.61293 0.0
C449 C 0.08513 0.93347 0.66094 0.0
C450 C 0.0804 0.93339 0.63418 0.0
C451 C 0.08498 0.91189 0.6191 0.0
C452 C 0.07136 0.95561 0.62108 0.0
C453 C 0.0815 0.95653 0.67796 0.0
C454 C 0.04381 0.96014 0.62633 0.0
C455 C 0.03433 0.9794 0.6121 0.0
C456 C 0.0521 0.99416 0.59217 0.0
C457 C 0.07998 0.98999 0.58741 0.0
C458 C 0.08949 0.97093 0.60172 0.0
H459 H 0.09317 0.95736 0.69671 0.0
H460 H 0.09043 0.9772 0.66871 0.0
H461 H 0.05719 0.95273 0.68156 0.0
H462 H 0.02918 0.94813 0.64083 0.0
H463 H 0.01265 0.98198 0.61615 0.0
H464 H 0.752 0.43242 0.86158 0.0
H465 H 0.7993 0.45882 0.88364 0.0
H466 H 0.75189 0.45262 0.95458 0.0
H467 H 0.70481 0.42653 0.93269 0.0
H468 H 0.79562 0.50606 0.94671 0.0
H469 H 0.84201 0.4177 0.93254 0.0
H470 H 0.82956 0.43097 0.90412 0.0
H471 H 0.80259 0.41394 0.92764 0.0
C472 C 0.75162 0.43731 0.88174 0.0
C473 C 0.72477 0.42731 0.89544 0.0
C474 C 0.77867 0.45211 0.89438 0.0
C475 C 0.77924 0.45727 0.92088 0.0
C476 C 0.75208 0.44878 0.9342 0.0
H477 H 0.92616 0.48953 0.03235 0.0
H478 H 0.87915 0.47106 1.00748 0.0
C479 C 0.72519 0.43387 0.92166 0.0
C480 C 0.80813 0.47005 0.9352 0.0
H481 H 0.87309 0.45766 0.95437 0.0
C482 C 0.81267 0.49559 0.94825 0.0
C483 C 0.83011 0.45611 0.93761 0.0
C484 C 0.82589 0.42805 0.92494 0.0
C485 C 0.83864 0.50764 0.96347 0.0
C486 C 0.8608 0.49386 0.96561 0.0
C487 C 0.85617 0.46826 0.95266 0.0
C488 C 0.8889 0.50561 0.98123 0.0
C489 C 0.84185 0.5347 0.97762 0.0
C490 C 0.91009 0.53114 0.97475 0.0
C491 C 0.93698 0.54171 0.98888 0.0
C492 C 0.94338 0.52699 1.00985 0.0
C493 C 0.92197 0.50151 0.01644 0.0
C494 C 0.89511 0.49087 1.00218 0.0
H495 H 0.81998 0.53904 0.97893 0.0
H496 H 0.85101 0.53426 0.99723 0.0
H497 H 0.85778 0.55222 0.96733 0.0
H498 H 0.90608 0.5427 0.95846 0.0
H499 H 0.95287 0.56139 0.98317 0.0
H500 H 0.8081 0.64167 0.38735 0.0
H501 H 0.76371 0.61842 0.41273 0.0
H502 H 0.75748 0.69877 0.43624 0.0
H503 H 0.80116 0.72212 0.41046 0.0
H504 H 0.75372 0.62259 0.4657 0.0
H505 H 0.67279 0.65833 0.40776 0.0
H506 H 0.70983 0.66032 0.39661 0.0
H507 H 0.70515 0.68619 0.4187 0.0
C508 C 0.79714 0.6544 0.39776 0.0
C509 C 0.80824 0.68381 0.39676 0.0
C510 C 0.77187 0.64107 0.41239 0.0
C511 C 0.75697 0.65682 0.42612 0.0
C512 C 0.76827 0.68614 0.42549 0.0
H513 H 0.60254 0.62724 0.52333 0.0
H514 H 0.64806 0.64598 0.49841 0.0
C515 C 0.79352 0.69948 0.41094 0.0
C516 C 0.72967 0.64274 0.44118 0.0
H517 H 0.65533 0.63744 0.44749 0.0
C518 C 0.73213 0.62563 0.46163 0.0
C519 C 0.70147 0.64666 0.43582 0.0
C520 C 0.69696 0.66365 0.41339 0.0
C521 C 0.70744 0.61315 0.47738 0.0
C522 C 0.67937 0.61749 0.47227 0.0
C523 C 0.67684 0.6342 0.45153 0.0
C524 C 0.65246 0.6056 0.48849 0.0
C525 C 0.71192 0.59622 0.49985 0.0
C526 C 0.63964 0.57655 0.49133 0.0
C527 C 0.61353 0.56568 0.50574 0.0
C528 C 0.59953 0.58365 0.51743 0.0
C529 C 0.61261 0.61271 0.51466 0.0
C530 C 0.63868 0.62352 0.50035 0.0
H531 H 0.73616 0.60072 0.50491 0.0
H532 H 0.69998 0.60045 0.51687 0.0
H533 H 0.7026 0.57363 0.49494 0.0
H534 H 0.64943 0.56223 0.48195 0.0
H535 H 0.60401 0.54319 0.50727 0.0
H536 H 0.26098 0.30952 0.18565 0.0
H537 H 0.21975 0.32839 0.17483 0.0
H538 H 0.2819 0.41225 0.17948 0.0
H539 H 0.32317 0.3933 0.18992 0.0
H540 H 0.19687 0.36659 0.20084 0.0
H541 H 0.24522 0.40754 0.10735 0.0
H542 H 0.25842 0.38324 0.12556 0.0
H543 H 0.2703 0.41976 0.13421 0.0
C544 C 0.26562 0.33198 0.18451 0.0
C545 C 0.29493 0.35011 0.18846 0.0
C546 C 0.24218 0.3427 0.17837 0.0
C547 C 0.2479 0.37167 0.17598 0.0
C548 C 0.27715 0.38982 0.18078 0.0
H549 H 0.13972 0.47555 0.12989 0.0
H550 H 0.17908 0.45728 0.14622 0.0
C551 C 0.3006 0.37906 0.18688 0.0
C552 C 0.22342 0.3828 0.16783 0.0
H553 H 0.20218 0.41915 0.12036 0.0
C554 C 0.19795 0.37804 0.18323 0.0
C555 C 0.2249 0.39761 0.14479 0.0
C556 C 0.25103 0.40216 0.12687 0.0
C557 C 0.17411 0.38818 0.17639 0.0
C558 C 0.1757 0.40308 0.15341 0.0
C559 C 0.20114 0.4078 0.13803 0.0
C560 C 0.15121 0.41396 0.14479 0.0
C561 C 0.1477 0.38332 0.19401 0.0
C562 C 0.12253 0.39561 0.13852 0.0
C563 C 0.10001 0.40596 0.12901 0.0
C564 C 0.10589 0.43485 0.12545 0.0
C565 C 0.1346 0.45316 0.13203 0.0
C566 C 0.15705 0.44279 0.14151 0.0
H567 H 0.15317 0.37759 0.2135 0.0
H568 H 0.1403 0.40224 0.19541 0.0
H569 H 0.12853 0.36589 0.18625 0.0
H570 H 0.11777 0.37323 0.14043 0.0
H571 H 0.07828 0.39129 0.1238 0.0
H572 H 0.63377 0.30837 0.86458 0.0
H573 H 0.61279 0.264 0.88645 0.0
H574 H 0.63568 0.30657 0.95926 0.0
H575 H 0.65488 0.35121 0.93767 0.0
H576 H 0.6385 0.23594 0.9166 0.0
H577 H 0.55012 0.26195 0.97159 0.0
H578 H 0.57037 0.28392 0.94646 0.0
H579 H 0.58678 0.2862 0.97804 0.0
C580 C 0.63378 0.30848 0.88526 0.0
C581 C 0.64596 0.33362 0.89925 0.0
C582 C 0.62202 0.28295 0.89776 0.0
C583 C 0.62214 0.28185 0.92457 0.0
C584 C 0.63457 0.30682 0.9386 0.0
H585 H 0.60518 0.13146 1.01315 0.0
H586 H 0.62337 0.17528 0.9898 0.0
C587 C 0.64605 0.33238 0.92614 0.0
C588 C 0.61016 0.25451 0.93779 0.0
H589 H 0.56156 0.22077 0.98398 0.0
C590 C 0.62153 0.2326 0.93123 0.0
C591 C 0.58765 0.24985 0.95663 0.0
C592 C 0.57279 0.27163 0.96341 0.0
C593 C 0.61148 0.20646 0.94321 0.0
C594 C 0.59003 0.20226 0.9629 0.0
C595 C 0.57827 0.224 0.96915 0.0
C596 C 0.57912 0.17541 0.97703 0.0
C597 C 0.62352 0.18345 0.9342 0.0
C598 C 0.5481 0.16116 0.97839 0.0
C599 C 0.5376 0.13631 0.9921 0.0
C600 C 0.55789 0.12505 1.00474 0.0
C601 C 0.58894 0.13934 1.00341 0.0
C602 C 0.59941 0.16436 0.9899 0.0
H603 H 0.632 0.18702 0.91439 0.0
H604 H 0.64264 0.18297 0.94679 0.0
H605 H 0.60595 0.1627 0.93483 0.0
H606 H 0.53194 0.16924 0.96876 0.0
H607 H 0.51354 0.1259 0.99272 0.0
H608 H 0.89479 0.78839 0.3502 0.0
H609 H 0.92003 0.83464 0.36951 0.0
H610 H 0.93552 0.79528 0.43887 0.0
H611 H 0.91053 0.74922 0.41968 0.0
H612 H 0.89946 0.85483 0.41402 0.0
H613 H 0.01741 0.85491 0.42759 0.0
H614 H 0.99129 0.83116 0.40569 0.0
H615 H 0.98988 0.82415 0.43934 0.0
C616 C 0.90441 0.78962 0.36927 0.0
C617 C 0.90079 0.76513 0.38337 0.0
C618 C 0.9186 0.81606 0.38038 0.0
C619 C 0.92989 0.81852 0.40563 0.0
C620 C 0.92747 0.79402 0.41927 0.0
H621 H 0.95435 0.94908 0.51989 0.0
H622 H 0.9381 0.90695 0.49291 0.0
C623 C 0.91308 0.76767 0.40829 0.0
C624 C 0.94173 0.84647 0.41858 0.0
H625 H 1.00288 0.88951 0.45115 0.0
C626 C 0.92218 0.86253 0.42189 0.0
C627 C 0.97143 0.85668 0.4288 0.0
C628 C 0.99385 0.84098 0.42501 0.0
C629 C 0.93116 0.88795 0.43581 0.0
C630 C 0.96042 0.89757 0.44692 0.0
C631 C 0.98035 0.88203 0.44286 0.0
C632 C 0.97045 0.92339 0.46326 0.0
C633 C 0.90918 0.90431 0.43857 0.0
C634 C 0.99441 0.94662 0.45585 0.0
C635 C 1.00375 0.97088 0.47124 0.0
C636 C 0.98957 0.97232 0.49459 0.0
C637 C 0.96578 0.94885 0.50205 0.0
C638 C 0.95633 0.92472 0.48657 0.0
H639 H 0.89077 0.8979 0.42397 0.0
H640 H 0.89886 0.9005 0.45771 0.0
H641 H 0.92082 0.92711 0.43692 0.0
H642 H 0.00575 0.94606 0.43802 0.0
H643 H 0.02223 0.98843 0.46491 0.0
H644 H 0.28906 0.80241 0.69539 0.0
H645 H 0.3245 0.77986 0.67882 0.0
H646 H 0.25576 0.69953 0.68153 0.0
H647 H 0.21997 0.72209 0.69811 0.0
H648 H 0.34321 0.73934 0.70347 0.0
H649 H 0.28923 0.70034 0.60934 0.0
H650 H 0.27919 0.72636 0.62804 0.0
H651 H 0.26533 0.69012 0.63652 0.0
C652 C 0.28146 0.77993 0.69243 0.0
C653 C 0.25181 0.76395 0.69819 0.0
C654 C 0.30169 0.76711 0.68289 0.0
C655 C 0.2927 0.73809 0.67879 0.0
C656 C 0.26298 0.72204 0.68414 0.0
H657 H 0.39826 0.63136 0.63009 0.0
H658 H 0.35812 0.64884 0.64554 0.0
C659 C 0.2426 0.73491 0.69363 0.0
C660 C 0.31508 0.72477 0.67008 0.0
H661 H 0.33256 0.68796 0.62078 0.0
C662 C 0.34088 0.72808 0.6854 0.0
C663 C 0.31186 0.71001 0.64656 0.0
C664 C 0.28506 0.70661 0.629 0.0
C665 C 0.36368 0.71718 0.67776 0.0
C666 C 0.36074 0.7029 0.65404 0.0
C667 C 0.33469 0.69902 0.63894 0.0
C668 C 0.38489 0.69243 0.64434 0.0
C669 C 0.39069 0.72089 0.69516 0.0
C670 C 0.41304 0.71125 0.63828 0.0
C671 C 0.43594 0.70139 0.62925 0.0
C672 C 0.43105 0.67251 0.62606 0.0
C673 C 0.40266 0.65374 0.632 0.0
C674 C 0.37974 0.66365 0.64095 0.0
H675 H 0.3862 0.72624 0.71504 0.0
H676 H 0.39747 0.70159 0.69543 0.0
H677 H 0.40993 0.73817 0.68801 0.0
H678 H 0.41722 0.73359 0.64038 0.0
H679 H 0.45734 0.71641 0.62443 0.0
H680 H 0.75532 0.79823 0.81004 0.0
H681 H 0.77551 0.82719 0.77315 0.0
H682 H 0.7616 0.89856 0.81105 0.0
H683 H 0.74168 0.86971 0.84831 0.0
H684 H 0.74949 0.86196 0.74155 0.0
H685 H 0.85377 0.92167 0.79515 0.0
H686 H 0.82898 0.88873 0.80617 0.0
H687 H 0.81841 0.91998 0.80943 0.0
C688 C 0.75645 0.82008 0.81047 0.0
C689 C 0.74725 0.83182 0.83214 0.0
C690 C 0.76781 0.83652 0.78936 0.0
C691 C 0.77035 0.86502 0.78957 0.0
C692 C 0.76007 0.87663 0.81071 0.0
H693 H 0.86717 0.99381 0.68416 0.0
H694 H 0.83665 0.96867 0.7192 0.0
C695 C 0.74853 0.86012 0.83185 0.0
C696 C 0.78517 0.88267 0.7681 0.0
H697 H 0.85006 0.93309 0.7521 0.0
C698 C 0.77138 0.87767 0.74382 0.0
C699 C 0.81371 0.90308 0.77122 0.0
C700 C 0.82982 0.90869 0.79682 0.0
C701 C 0.78548 0.89255 0.72245 0.0
C702 C 0.81442 0.91244 0.72544 0.0
C703 C 0.8279 0.9178 0.74985 0.0
C704 C 0.83157 0.92749 0.70348 0.0
C705 C 0.76912 0.88701 0.69698 0.0
C706 C 0.83903 0.91267 0.68308 0.0
C707 C 0.85644 0.92699 0.663 0.0
C708 C 0.86708 0.95638 0.66318 0.0
C709 C 0.85959 0.97115 0.68365 0.0
C710 C 0.84203 0.95683 0.7036 0.0
H711 H 0.74437 0.87806 0.69933 0.0
H712 H 0.77379 0.90645 0.6857 0.0
H713 H 0.77682 0.87164 0.68593 0.0
H714 H 0.8319 0.89002 0.68292 0.0
H715 H 0.86217 0.91508 0.64764 0.0
H716 H 0.79732 0.29354 0.3346 0.0
H717 H 0.76209 0.27357 0.2992 0.0
H718 H 0.73723 0.19299 0.33523 0.0
H719 H 0.77204 0.21284 0.37076 0.0
H720 H 0.76793 0.22849 0.26846 0.0
H721 H 0.65538 0.20201 0.31287 0.0
H722 H 0.68849 0.22718 0.32683 0.0
H723 H 0.68258 0.19036 0.33027 0.0
C724 C 0.78382 0.27173 0.33522 0.0
C725 C 0.7875 0.25469 0.35534 0.0
C726 C 0.76381 0.26035 0.31499 0.0
C727 C 0.74687 0.2319 0.31477 0.0
C728 C 0.74973 0.21509 0.33526 0.0
H729 H 0.64109 0.10798 0.2084 0.0
H730 H 0.6653 0.13547 0.24609 0.0
C731 C 0.76985 0.22639 0.35539 0.0
C732 C 0.72865 0.21903 0.29197 0.0
H733 H 0.65762 0.18141 0.27198 0.0
C734 C 0.74374 0.21852 0.26908 0.0
C735 C 0.69719 0.20584 0.29303 0.0
C736 C 0.67984 0.20651 0.317 0.0
C737 C 0.7284 0.20431 0.24736 0.0
C738 C 0.69693 0.19086 0.24842 0.0
C739 C 0.68172 0.19178 0.27122 0.0
C740 C 0.67977 0.17489 0.22627 0.0
C741 C 0.74628 0.20285 0.22384 0.0
C742 C 0.67908 0.18811 0.20289 0.0
C743 C 0.6655 0.17246 0.18136 0.0
C744 C 0.65198 0.14336 0.18293 0.0
C745 C 0.65128 0.13038 0.20667 0.0
C746 C 0.66512 0.14604 0.22817 0.0
H747 H 0.77074 0.20799 0.22828 0.0
H748 H 0.73829 0.1817 0.21482 0.0
H749 H 0.7434 0.2182 0.20973 0.0
H750 H 0.68959 0.21046 0.20118 0.0
H751 H 0.66585 0.18306 0.16339 0.0
H752 H 0.41539 0.64329 0.29353 0.0
H753 H 0.42411 0.6191 0.33203 0.0
H754 H 0.39693 0.67772 0.37894 0.0
H755 H 0.38779 0.70154 0.34043 0.0
H756 H 0.46569 0.64268 0.36904 0.0
H757 H 0.35336 0.60493 0.4134 0.0
H758 H 0.35828 0.61626 0.38067 0.0
H759 H 0.36493 0.64156 0.40635 0.0
C760 C 0.41031 0.65035 0.31205 0.0
C761 C 0.40032 0.67386 0.31407 0.0
C762 C 0.41553 0.63668 0.33407 0.0
C763 C 0.41088 0.64629 0.35854 0.0
C764 C 0.4 0.66937 0.36041 0.0
H765 H 0.45981 0.61044 0.51392 0.0
H766 H 0.44093 0.629 0.47629 0.0
C767 C 0.39476 0.683 0.33838 0.0
C768 C 0.42013 0.63392 0.38195 0.0
H769 H 0.39532 0.6038 0.43934 0.0
C770 C 0.45018 0.63397 0.38428 0.0
C771 C 0.40009 0.62279 0.4021 0.0
C772 C 0.3673 0.6211 0.40048 0.0
C773 C 0.4608 0.62364 0.40614 0.0
C774 C 0.44076 0.61238 0.42622 0.0
C775 C 0.41073 0.61242 0.42401 0.0
C776 C 0.45061 0.60013 0.4494 0.0
C777 C 0.49367 0.62552 0.40776 0.0
C778 C 0.46166 0.57726 0.44702 0.0
C779 C 0.47248 0.56663 0.46845 0.0
C780 C 0.47237 0.57847 0.49293 0.0
C781 C 0.46035 0.60081 0.49542 0.0
C782 C 0.44952 0.61146 0.47389 0.0
H783 H 0.5075 0.64132 0.39447 0.0
H784 H 0.50281 0.63099 0.42746 0.0
H785 H 0.49612 0.60493 0.40245 0.0
H786 H 0.46217 0.56771 0.42848 0.0
H787 H 0.48129 0.54929 0.46569 0.0
H788 H 0.11782 0.45791 0.78419 0.0
H789 H 0.10873 0.48375 0.82168 0.0
H790 H 0.15055 0.43708 0.87019 0.0
H791 H 0.15992 0.41155 0.83263 0.0
H792 H 0.07312 0.46068 0.86126 0.0
H793 H 0.18781 0.51569 0.89893 0.0
H794 H 0.18104 0.50074 0.8671 0.0
H795 H 0.18101 0.47885 0.89409 0.0
C796 C 0.12594 0.45389 0.80278 0.0
C797 C 0.14014 0.43321 0.80551 0.0
C798 C 0.12052 0.46848 0.82425 0.0
C799 C 0.12921 0.4627 0.8489 0.0
C800 C 0.14423 0.44252 0.85145 0.0
H801 H 0.04498 0.48494 0.99137 0.0
H802 H 0.06333 0.4676 0.95321 0.0
C803 C 0.14962 0.42792 0.82996 0.0
C804 C 0.12013 0.47586 0.87197 0.0
H805 H 0.14701 0.51327 0.92693 0.0
C806 C 0.08937 0.47234 0.87549 0.0
C807 C 0.14119 0.49134 0.89058 0.0
C808 C 0.17464 0.49716 0.88743 0.0
C809 C 0.07908 0.48319 0.8972 0.0
C810 C 0.10001 0.4977 0.91631 0.0
C811 C 0.13086 0.5019 0.91251 0.0
C812 C 0.09013 0.5084 0.94036 0.0
C813 C 0.04581 0.47923 0.89932 0.0
C814 C 0.09981 0.53713 0.94654 0.0
C815 C 0.0894 0.5472 0.96857 0.0
C816 C 0.0692 0.52874 0.98505 0.0
C817 C 0.06029 0.4999 0.97914 0.0
C818 C 0.07067 0.48989 0.95716 0.0
H819 H 0.03415 0.47476 0.8804 0.0
H820 H 0.03549 0.4612 0.91184 0.0
H821 H 0.04182 0.49805 0.90782 0.0
H822 H 0.11495 0.55186 0.93402 0.0
H823 H 0.09685 0.56951 0.97245 0.0
H824 H 0.68732 0.86054 0.94188 0.0
H825 H 0.66588 0.89789 0.95272 0.0
H826 H 0.59978 0.86954 0.89193 0.0
H827 H 0.62107 0.83178 0.88136 0.0
H828 H 0.65711 0.9416 0.92375 0.0
H829 H 0.54836 0.86725 0.95533 0.0
H830 H 0.58121 0.85646 0.94977 0.0
H831 H 0.5593 0.86244 0.92326 0.0
C832 C 0.66837 0.86252 0.93075 0.0
C833 C 0.65563 0.84351 0.91093 0.0
C834 C 0.65618 0.8838 0.9369 0.0
C835 C 0.631 0.88624 0.92335 0.0
C836 C 0.61889 0.86772 0.90288 0.0
H837 H 0.5253 0.99557 0.97013 0.0
H838 H 0.5447 0.96475 0.94364 0.0
C839 C 0.6311 0.84634 0.89677 0.0
C840 C 0.61702 0.90759 0.93153 0.0
H841 H 0.55463 0.91517 0.96016 0.0
C842 C 0.63458 0.93587 0.93145 0.0
C843 C 0.58756 0.90005 0.94148 0.0
C844 C 0.56799 0.86992 0.94271 0.0
C845 C 0.62379 0.95674 0.94173 0.0
C846 C 0.59489 0.94905 0.9527 0.0
C847 C 0.57678 0.92096 0.95172 0.0
C848 C 0.58417 0.96929 0.96745 0.0
C849 C 0.64361 0.98681 0.94111 0.0
C850 C 0.59986 0.98189 0.98964 0.0
C851 C 0.58884 0.99935 1.00483 0.0
C852 C 0.56178 1.00452 0.99821 0.0
C853 C 0.54626 0.99214 0.97574 0.0
C854 C 0.55728 0.97451 0.96058 0.0
H855 H 0.66023 0.99023 0.9255 0.0
H856 H 0.63 1.00123 0.93854 0.0
H857 H 0.65633 0.99222 0.95947 0.0
H858 H 0.6203 0.97765 0.99559 0.0
H859 H 0.6014 0.00847 0.02198 0.0
H860 H 0.88221 0.23331 0.37058 0.0
H861 H 0.91088 0.20242 0.38428 0.0
H862 H 0.89531 0.21883 0.46308 0.0
H863 H 0.86709 0.25001 0.44952 0.0
H864 H 0.95304 0.21936 0.4554 0.0
H865 H 0.87228 0.12422 0.41107 0.0
H866 H 0.88811 0.15207 0.38922 0.0
H867 H 0.86398 0.1568 0.41421 0.0
C868 C 0.88498 0.23032 0.39082 0.0
C869 C 0.87231 0.24392 0.409 0.0
C870 C 0.90125 0.21263 0.3986 0.0
C871 C 0.90471 0.20792 0.42468 0.0
C872 C 0.89284 0.22213 0.44285 0.0
H873 H 0.93733 0.07295 0.50431 0.0
H874 H 0.91749 0.10562 0.48148 0.0
C875 C 0.87681 0.23999 0.4351 0.0
C876 C 0.92015 0.18781 0.43324 0.0
H877 H 0.91542 0.11869 0.43135 0.0
C878 C 0.94497 0.19737 0.45004 0.0
C879 C 0.90931 0.15909 0.42638 0.0
C880 C 0.8818 0.1473 0.40942 0.0
C881 C 0.95893 0.17891 0.4606 0.0
C882 C 0.9482 0.15021 0.45364 0.0
C883 C 0.92375 0.14075 0.43644 0.0
C884 C 0.96033 0.1293 0.46565 0.0
C885 C 0.98413 0.19011 0.47998 0.0
C886 C 0.99089 0.13128 0.46375 0.0
C887 C 1.00242 0.11272 0.477 0.0
C888 C 0.98347 0.09166 0.49211 0.0
C889 C 0.95259 0.08894 0.49292 0.0
C890 C 0.94118 0.10761 0.47985 0.0
H891 H 0.98486 0.21104 0.48754 0.0
H892 H 0.98169 0.17564 0.49628 0.0
H893 H 0.006 0.19222 0.4708 0.0
H894 H 0.00591 0.14745 0.45238 0.0
H895 H 0.02624 0.1152 0.47574 0.0
H896 H 0.33253 0.65106 0.21225 0.0
H897 H 0.28726 0.62348 0.18809 0.0
H898 H 0.25304 0.69379 0.18995 0.0
H899 H 0.29774 0.72118 0.21416 0.0
H900 H 0.2179 0.61374 0.19774 0.0
H901 H 0.26625 0.67403 0.11153 0.0
H902 H 0.28922 0.67071 0.1386 0.0
H903 H 0.26709 0.69416 0.14027 0.0
C904 C 0.31493 0.66031 0.20812 0.0
C905 C 0.31883 0.68838 0.2149 0.0
C906 C 0.28918 0.64461 0.1942 0.0
C907 C 0.26702 0.65676 0.18692 0.0
C908 C 0.27 0.68411 0.19513 0.0
H909 H 0.11412 0.63047 0.08663 0.0
H910 H 0.15852 0.64717 0.11447 0.0
C911 C 0.29556 0.69972 0.20898 0.0
C912 C 0.24191 0.64206 0.1691 0.0
H913 H 0.21542 0.64543 0.10848 0.0
C914 C 0.21742 0.62035 0.17812 0.0
C915 C 0.24136 0.65081 0.14355 0.0
C916 C 0.26743 0.67357 0.13272 0.0
C917 C 0.1918 0.60795 0.16252 0.0
C918 C 0.19096 0.61717 0.13707 0.0
C919 C 0.21593 0.63836 0.12794 0.0
C920 C 0.1639 0.60637 0.11996 0.0
C921 C 0.16535 0.58598 0.1738 0.0
C922 C 0.15223 0.57785 0.11331 0.0
C923 C 0.12662 0.56814 0.09735 0.0
C924 C 0.11229 0.58681 0.08749 0.0
C925 C 0.12447 0.61543 0.09378 0.0
C926 C 0.14993 0.62505 0.10977 0.0
H927 H 0.16661 0.58617 0.19501 0.0
H928 H 0.14375 0.58911 0.16779 0.0
H929 H 0.16522 0.56501 0.16693 0.0
H930 H 0.16296 0.56306 0.12038 0.0
H931 H 0.11798 0.54598 0.09288 0.0
H932 H 0.20867 0.45012 0.70498 0.0
H933 H 0.25452 0.4768 0.68263 0.0
H934 H 0.28999 0.40762 0.69032 0.0
H935 H 0.24467 0.38124 0.71287 0.0
H936 H 0.33353 0.45899 0.69869 0.0
H937 H 0.2697 0.45836 0.60828 0.0
H938 H 0.25707 0.47339 0.63551 0.0
H939 H 0.25346 0.43677 0.63503 0.0
C940 C 0.22659 0.44093 0.7024 0.0
C941 C 0.223 0.41353 0.71055 0.0
C942 C 0.2526 0.45602 0.68933 0.0
C943 C 0.27546 0.44398 0.68425 0.0
C944 C 0.27262 0.4173 0.69377 0.0
H945 H 0.41473 0.48111 0.56878 0.0
H946 H 0.36965 0.46115 0.59447 0.0
C947 C 0.24669 0.40223 0.70668 0.0
C948 C 0.30191 0.45844 0.6683 0.0
H949 H 0.32208 0.4817 0.60787 0.0
C950 C 0.33101 0.46411 0.67888 0.0
C951 C 0.29868 0.46464 0.64228 0.0
C952 C 0.2681 0.4578 0.62943 0.0
C953 C 0.35688 0.47588 0.66427 0.0
C954 C 0.35367 0.48255 0.63837 0.0
C955 C 0.32457 0.47677 0.62773 0.0
C956 C 0.38028 0.49529 0.62203 0.0
C957 C 0.38747 0.48036 0.67653 0.0
C958 C 0.4009 0.52142 0.62854 0.0
C959 C 0.42664 0.53284 0.61395 0.0
C960 C 0.43237 0.5185 0.59232 0.0
C961 C 0.41115 0.49272 0.58531 0.0
C962 C 0.38535 0.48127 0.59999 0.0
H963 H 0.38604 0.4677 0.69403 0.0
H964 H 0.40301 0.47491 0.66303 0.0
H965 H 0.39734 0.50273 0.68207 0.0
H966 H 0.3972 0.53297 0.64507 0.0
H967 H 0.4422 0.55289 0.61984 0.0
H968 H 0.76371 0.77701 0.93578 0.0
H969 H 0.80048 0.75525 0.9517 0.0
H970 H 0.81456 0.73101 0.87485 0.0
H971 H 0.77735 0.75218 0.85875 0.0
H972 H 0.80313 0.69739 0.94389 0.0
H973 H 0.89937 0.78055 0.90303 0.0
H974 H 0.86292 0.7851 0.90782 0.0
H975 H 0.86844 0.76414 0.88154 0.0
C976 C 0.77415 0.76657 0.92229 0.0
C977 C 0.76774 0.76651 0.89596 0.0
C978 C 0.79528 0.7543 0.93142 0.0
C979 C 0.81046 0.74194 0.91438 0.0
C980 C 0.80336 0.74088 0.88822 0.0
H981 H 0.96086 0.6763 0.933 0.0
H982 H 0.92029 0.69282 0.91629 0.0
C983 C 0.78217 0.75303 0.87908 0.0
C984 C 0.83449 0.73099 0.92389 0.0
H985 H 0.91056 0.74317 0.92325 0.0
C986 C 0.82664 0.70734 0.93943 0.0
C987 C 0.86504 0.74407 0.91791 0.0
C988 C 0.87465 0.77 0.90181 0.0
C989 C 0.84863 0.69614 0.94896 0.0
C990 C 0.8793 0.70944 0.94326 0.0
C991 C 0.88706 0.73303 0.92759 0.0
C992 C 0.90376 0.6994 0.9535 0.0
C993 C 0.83875 0.66987 0.96459 0.0
C994 C 0.90826 0.69812 0.97995 0.0
C995 C 0.93138 0.68869 0.98953 0.0
C996 C 0.95069 0.68069 0.97282 0.0
C997 C 0.94652 0.68255 0.94634 0.0
C998 C 0.92327 0.69183 0.93677 0.0
H999 H 0.81462 0.65804 0.96101 0.0
H1000 H 0.8525 0.65594 0.96034 0.0
H1001 H 0.8416 0.67562 0.98519 0.0
H1002 H 0.89401 0.70461 0.99321 0.0
H1003 H 0.93435 0.6879 1.01003 0.0
H1004 H 0.38856 0.75984 0.16788 0.0
H1005 H 0.40904 0.80377 0.14517 0.0
H1006 H 0.44291 0.84643 0.21628 0.0
H1007 H 0.42193 0.80265 0.23932 0.0
H1008 H 0.39512 0.85473 0.15322 0.0
H1009 H 0.51696 0.869 0.16905 0.0
H1010 H 0.4882 0.83581 0.17335 0.0
H1011 H 0.49428 0.86295 0.1972 0.0
C1012 C 0.40017 0.77855 0.1788 0.0
C1013 C 0.40344 0.77757 0.20554 0.0
C1014 C 0.41204 0.80366 0.16572 0.0
C1015 C 0.42778 0.82837 0.17895 0.0
C1016 C 0.43132 0.82754 0.20559 0.0
H1017 H 0.51545 0.99922 0.1273 0.0
H1018 H 0.49616 0.95682 0.15263 0.0
C1019 C 0.41933 0.80243 0.21874 0.0
C1020 C 0.4396 0.8551 0.16487 0.0
H1021 H 0.50447 0.90564 0.14843 0.0
C1022 C 0.41903 0.86585 0.15214 0.0
C1023 C 0.47078 0.86971 0.16361 0.0
C1024 C 0.49395 0.85877 0.17634 0.0
C1025 C 0.42874 0.89087 0.13836 0.0
C1026 C 0.45999 0.90526 0.13666 0.0
C1027 C 0.48055 0.89465 0.14965 0.0
C1028 C 0.47179 0.93107 0.12119 0.0
C1029 C 0.40531 0.90192 0.1262 0.0
C1030 C 0.46497 0.93072 0.09495 0.0
C1031 C 0.47581 0.95497 0.08045 0.0
C1032 C 0.49407 0.98012 0.09176 0.0
C1033 C 0.50137 0.98029 0.11795 0.0
C1034 C 0.49038 0.95603 0.13247 0.0
H1035 H 0.38315 0.89359 0.13559 0.0
H1036 H 0.41234 0.92513 0.12711 0.0
H1037 H 0.40219 0.89524 0.10582 0.0
H1038 H 0.45137 0.91161 0.08559 0.0
H1039 H 0.46994 0.9539 0.0603 0.0
H1040 H 0.15413 0.33983 0.66292 0.0
H1041 H 0.13395 0.29503 0.64051 0.0
H1042 H 0.0983 0.25557 0.71106 0.0
H1043 H 0.11972 0.30017 0.73395 0.0
H1044 H 0.12549 0.22411 0.6846 0.0
H1045 H 0.04792 0.25561 0.61945 0.0
H1046 H 0.08609 0.27796 0.61718 0.0
H1047 H 0.06613 0.2768 0.64657 0.0
C1048 C 0.14221 0.32164 0.67381 0.0
C1049 C 0.13867 0.32379 0.70036 0.0
C1050 C 0.13027 0.29602 0.66083 0.0
C1051 C 0.11406 0.2719 0.67393 0.0
C1052 C 0.11049 0.27388 0.70044 0.0
H1053 H 0.00518 0.11826 0.59654 0.0
H1054 H 0.02309 0.16134 0.62211 0.0
C1055 C 0.12257 0.29951 0.71349 0.0
C1056 C 0.10165 0.24451 0.66011 0.0
H1057 H 0.05703 0.2126 0.60931 0.0
C1058 C 0.11037 0.22156 0.66823 0.0
C1059 C 0.08152 0.24093 0.63894 0.0
C1060 C 0.06961 0.26405 0.63017 0.0
C1061 C 0.10015 0.19545 0.6555 0.0
C1062 C 0.08115 0.19226 0.63361 0.0
C1063 C 0.07187 0.21503 0.62585 0.0
C1064 C 0.07042 0.1655 0.61858 0.0
C1065 C 0.10942 0.17143 0.66594 0.0
C1066 C 0.09096 0.1534 0.60782 0.0
C1067 C 0.08075 0.12857 0.59331 0.0
C1068 C 0.04973 0.11545 0.58891 0.0
C1069 C 0.02922 0.12772 0.59953 0.0
C1070 C 0.03944 0.15243 0.61416 0.0
H1071 H 0.11593 0.17472 0.68649 0.0
H1072 H 0.09098 0.15132 0.6637 0.0
H1073 H 0.12926 0.16976 0.65538 0.0
H1074 H 0.11499 0.16337 0.6103 0.0
H1075 H 0.09723 0.11991 0.58523 0.0
H1076 H 0.80511 0.36034 0.46588 0.0
H1077 H 0.76242 0.37757 0.47465 0.0
H1078 H 0.73264 0.36156 0.39603 0.0
H1079 H 0.77529 0.34398 0.38736 0.0
H1080 H 0.74724 0.42184 0.45167 0.0
H1081 H 0.6573 0.32004 0.43653 0.0
H1082 H 0.69652 0.32255 0.44055 0.0
H1083 H 0.68293 0.33145 0.41061 0.0
C1084 C 0.78941 0.3606 0.45054 0.0
C1085 C 0.79314 0.35094 0.42604 0.0
C1086 C 0.76512 0.3704 0.45552 0.0
C1087 C 0.74419 0.37049 0.43607 0.0
C1088 C 0.74826 0.36119 0.41139 0.0
H1089 H 0.58133 0.42128 0.44488 0.0
H1090 H 0.62238 0.40497 0.4294 0.0
C1091 C 0.77261 0.35136 0.40642 0.0
C1092 C 0.71828 0.38049 0.44183 0.0
H1093 H 0.64161 0.35918 0.44651 0.0
C1094 C 0.72413 0.40819 0.45046 0.0
C1095 C 0.68818 0.36262 0.4401 0.0
C1096 C 0.68071 0.33243 0.43164 0.0
C1097 C 0.70068 0.41845 0.45768 0.0
C1098 C 0.67067 0.40038 0.45662 0.0
C1099 C 0.6647 0.37291 0.44734 0.0
C1100 C 0.64533 0.40935 0.46607 0.0
C1101 C 0.7082 0.44858 0.46634 0.0
C1102 C 0.64434 0.41652 0.49191 0.0
C1103 C 0.62089 0.42563 0.50084 0.0
C1104 C 0.59788 0.42764 0.4841 0.0
C1105 C 0.59855 0.41973 0.45831 0.0
C1106 C 0.62205 0.41057 0.4494 0.0
H1107 H 0.7307 0.4614 0.45963 0.0
H1108 H 0.69103 0.45797 0.45929 0.0
H1109 H 0.70857 0.44956 0.48753 0.0
H1110 H 0.66177 0.41509 0.50519 0.0
H1111 H 0.62073 0.43103 0.5209 0.0
loop_
_geom_bond_atom_site_label_1
_geom_bond_atom_site_label_2
_geom_bond_distance
_geom_bond_site_symmetry_2
_ccdc_geom_bond_type
H0 C3 0.929 . S
H1 C6 0.929 . S
H2 C8 0.930 . S
C3 H0 0.929 . S
C3 C4 1.398 . S
C3 C5 1.396 . S
C4 C3 1.398 . S
C4 C8 1.407 . S
C5 C3 1.396 . S
C5 C6 1.394 . S
C6 H1 0.929 . S
C6 C5 1.394 . S
C6 C7 1.382 . S
C7 C6 1.382 . S
C7 C8 1.392 . S
C7 N9 1.420 . S
C8 H2 0.930 . S
C8 C4 1.407 . S
C8 C7 1.392 . S
N9 C7 1.420 . S
N9 C10 1.244 . S
C10 N9 1.244 . S
H11 C14 0.929 . S
H12 C17 0.929 . S
H13 C19 0.930 . S
C14 H11 0.929 . S
C14 C15 1.398 . S
C14 C16 1.396 . S
C15 C14 1.398 . S
C15 C19 1.407 . S
C16 C14 1.396 . S
C16 C17 1.394 . S
C17 H12 0.929 . S
C17 C16 1.394 . S
C17 C18 1.382 . S
C18 C17 1.382 . S
C18 C19 1.392 . S
C18 N20 1.420 . S
C19 H13 0.930 . S
C19 C15 1.407 . S
C19 C18 1.392 . S
N20 C18 1.420 . S
N20 C21 1.244 . S
C21 N20 1.244 . S
H22 C25 0.929 . S
H23 C28 0.929 . S
H24 C30 0.930 . S
C25 H22 0.929 . S
C25 C26 1.398 . S
C25 C27 1.396 . S
C26 C25 1.398 . S
C26 C30 1.407 . S
C27 C25 1.396 . S
C27 C28 1.394 . S
C28 H23 0.929 . S
C28 C27 1.394 . S
C28 C29 1.382 . S
C29 C28 1.382 . S
C29 C30 1.392 . S
C29 N31 1.420 . S
C30 H24 0.930 . S
C30 C26 1.407 . S
C30 C29 1.392 . S
N31 C29 1.420 . S
N31 C32 1.244 . S
C32 N31 1.244 . S
H33 C36 0.929 . S
H34 C39 0.929 . S
H35 C41 0.930 . S
C36 H33 0.929 . S
C36 C37 1.398 . S
C36 C38 1.396 . S
C37 C36 1.398 . S
C37 C41 1.407 . S
C38 C36 1.396 . S
C38 C39 1.394 . S
C39 H34 0.929 . S
C39 C38 1.394 . S
C39 C40 1.382 . S
C40 C39 1.382 . S
C40 C41 1.392 . S
C40 N42 1.420 . S
C41 H35 0.930 . S
C41 C37 1.407 . S
C41 C40 1.392 . S
N42 C40 1.420 . S
N42 C43 1.244 . S
C43 N42 1.244 . S
H44 C47 0.929 . S
H45 C50 0.929 . S
H46 C52 0.930 . S
C47 H44 0.929 . S
C47 C48 1.398 . S
C47 C49 1.396 . S
C48 C47 1.398 . S
C48 C52 1.407 . S
C49 C47 1.396 . S
C49 C50 1.394 . S
C50 H45 0.929 . S
C50 C49 1.394 . S
C50 C51 1.382 . S
C51 C50 1.382 . S
C51 C52 1.392 . S
C51 N53 1.420 . S
C52 H46 0.930 . S
C52 C48 1.407 . S
C52 C51 1.392 . S
N53 C51 1.420 . S
N53 C54 1.244 . S
C54 N53 1.244 . S
H55 C58 0.929 . S
H56 C61 0.929 . S
H57 C63 0.930 . S
C58 H55 0.929 . S
C58 C59 1.398 . S
C58 C60 1.396 . S
C59 C58 1.398 . S
C59 C63 1.407 . S
C60 C58 1.396 . S
C60 C61 1.394 . S
C61 H56 0.929 . S
C61 C60 1.394 . S
C61 C62 1.382 . S
C62 C61 1.382 . S
C62 C63 1.392 . S
C62 N64 1.420 . S
C63 H57 0.930 . S
C63 C59 1.407 . S
C63 C62 1.392 . S
N64 C62 1.420 . S
N64 C65 1.244 . S
C65 N64 1.244 . S
H66 C69 0.929 . S
H67 C72 0.929 . S
H68 C74 0.930 . S
C69 H66 0.929 . S
C69 C70 1.398 . S
C69 C71 1.396 . S
C70 C69 1.398 . S
C70 C74 1.407 . S
C71 C69 1.396 . S
C71 C72 1.394 . S
C72 H67 0.929 . S
C72 C71 1.394 . S
C72 C73 1.382 . S
C73 C72 1.382 . S
C73 C74 1.392 . S
C73 N75 1.420 . S
C74 H68 0.930 . S
C74 C70 1.407 . S
C74 C73 1.392 . S
N75 C73 1.420 . S
N75 C76 1.244 . S
C76 N75 1.244 . S
H77 C80 0.929 . S
H78 C83 0.929 . S
H79 C85 0.930 . S
C80 H77 0.929 . S
C80 C81 1.398 . S
C80 C82 1.396 . S
C81 C80 1.398 . S
C81 C85 1.407 . S
C82 C80 1.396 . S
C82 C83 1.394 . S
C83 H78 0.929 . S
C83 C82 1.394 . S
C83 C84 1.382 . S
C84 C83 1.382 . S
C84 C85 1.392 . S
C84 N86 1.420 . S
C85 H79 0.930 . S
C85 C81 1.407 . S
C85 C84 1.392 . S
N86 C84 1.420 . S
N86 C87 1.244 . S
C87 N86 1.244 . S
Dy88 O91 2.307 . S
Dy88 O93 2.395 . S
Dy88 O94 2.379 . S
Dy88 O96 2.339 1_545 S
Dy88 O98 2.298 . S
Dy88 O102 2.275 . S
Dy88 C110 2.738 . S
Dy89 O92 2.298 1_655 S
Dy89 O95 2.275 1_545 S
Dy89 O97 2.307 . S
Dy89 O99 2.395 1_545 S
Dy89 O100 2.379 . S
Dy89 O103 2.339 1_655 S
Dy89 C119 2.738 1_545 S
C90 O102 1.254 . S
C90 O103 1.257 . S
O91 Dy88 2.307 . S
O91 C101 1.266 1_545 S
O92 Dy89 2.298 1_455 S
O92 C101 1.236 1_545 S
O93 Dy88 2.395 . S
O93 C110 1.255 . S
O94 Dy88 2.379 . S
O94 C110 1.249 . S
O95 Dy89 2.275 1_565 S
O95 C111 1.254 . S
O96 Dy88 2.339 1_565 S
O96 C111 1.257 1_455 S
O97 Dy89 2.307 . S
O97 C112 1.266 . S
O98 Dy88 2.298 . S
O98 C112 1.236 1_455 S
O99 Dy89 2.395 1_565 S
O99 C119 1.255 . S
O100 Dy89 2.379 . S
O100 C119 1.249 1_545 S
C101 O91 1.266 1_565 S
C101 O92 1.236 1_565 S
O102 Dy88 2.275 . S
O102 C90 1.254 . S
O103 Dy89 2.339 1_455 S
O103 C90 1.257 . S
C104 C107 1.344 . S
C104 C108 1.328 . S
C104 C110 1.516 . S
C105 C106 1.304 . S
C105 C109 1.323 . S
C106 C105 1.304 . S
C106 C107 1.371 . S
C106 H120 0.930 . S
C107 C104 1.344 . S
C107 C106 1.371 . S
C107 H121 0.931 . S
C108 C104 1.328 . S
C108 C109 1.433 . S
C108 H122 0.931 . S
C109 C105 1.323 . S
C109 C108 1.433 . S
C109 H123 0.933 . S
C110 Dy88 2.738 . S
C110 O93 1.255 . S
C110 O94 1.249 . S
C110 C104 1.516 . S
C111 O95 1.254 . S
C111 O96 1.257 1_655 S
C112 O97 1.266 . S
C112 O98 1.236 1_655 S
C113 C116 1.344 . S
C113 C117 1.328 . S
C113 C119 1.516 . S
C114 C115 1.304 . S
C114 C118 1.323 . S
C115 C114 1.304 . S
C115 C116 1.371 . S
C115 H124 0.930 . S
C116 C113 1.344 . S
C116 C115 1.371 . S
C116 H125 0.931 . S
C117 C113 1.328 . S
C117 C118 1.433 . S
C117 H126 0.931 . S
C118 C114 1.323 . S
C118 C117 1.433 . S
C118 H127 0.933 . S
C119 Dy89 2.738 1_565 S
C119 O99 1.255 . S
C119 O100 1.249 1_565 S
C119 C113 1.516 . S
H120 C106 0.930 . S
H121 C107 0.931 . S
H122 C108 0.931 . S
H123 C109 0.933 . S
H124 C115 0.930 . S
H125 C116 0.931 . S
H126 C117 0.931 . S
H127 C118 0.933 . S
Dy128 O131 2.307 . S
Dy128 O133 2.395 1_545 S
Dy128 O134 2.379 1_554 S
Dy128 O136 2.339 . S
Dy128 O138 2.298 . S
Dy128 O142 2.275 1_545 S
Dy128 C150 2.738 1_544 S
Dy129 O132 2.298 . S
Dy129 O135 2.275 . S
Dy129 O137 2.307 . S
Dy129 O139 2.395 . S
Dy129 O140 2.379 . S
Dy129 O143 2.339 1_545 S
Dy129 C159 2.738 . S
C130 O142 1.254 . S
C130 O143 1.257 . S
O131 Dy128 2.307 . S
O131 C141 1.266 . S
O132 Dy129 2.298 . S
O132 C141 1.236 . S
O133 Dy128 2.395 1_565 S
O133 C150 1.255 1_554 S
O134 Dy128 2.379 1_556 S
O134 C150 1.249 1_545 S
O135 Dy129 2.275 . S
O135 C151 1.254 . S
O136 Dy128 2.339 . S
O136 C151 1.257 . S
O137 Dy129 2.307 . S
O137 C152 1.266 1_545 S
O138 Dy128 2.298 . S
O138 C152 1.236 1_545 S
O139 Dy129 2.395 . S
O139 C159 1.255 . S
O140 Dy129 2.379 . S
O140 C159 1.249 . S
C141 O131 1.266 . S
C141 O132 1.236 . S
O142 Dy128 2.275 1_565 S
O142 C130 1.254 . S
O143 Dy129 2.339 1_565 S
O143 C130 1.257 . S
C144 C147 1.344 . S
C144 C148 1.328 . S
C144 C150 1.516 . S
C145 C146 1.304 . S
C145 C149 1.323 . S
C146 C145 1.304 . S
C146 C147 1.371 . S
C146 H160 0.930 . S
C147 C144 1.344 . S
C147 C146 1.371 . S
C147 H161 0.931 . S
C148 C144 1.328 . S
C148 C149 1.433 . S
C148 H162 0.931 . S
C149 C145 1.323 . S
C149 C148 1.433 . S
C149 H163 0.933 . S
C150 Dy128 2.738 1_566 S
C150 O133 1.255 1_556 S
C150 O134 1.249 1_565 S
C150 C144 1.516 . S
C151 O135 1.254 . S
C151 O136 1.257 . S
C152 O137 1.266 1_565 S
C152 O138 1.236 1_565 S
C153 C156 1.344 . S
C153 C157 1.328 . S
C153 C159 1.516 . S
C154 C155 1.304 . S
C154 C158 1.323 . S
C155 C154 1.304 . S
C155 C156 1.371 . S
C155 H164 0.930 . S
C156 C153 1.344 . S
C156 C155 1.371 . S
C156 H165 0.931 . S
C157 C153 1.328 . S
C157 C158 1.433 . S
C157 H166 0.931 . S
C158 C154 1.323 . S
C158 C157 1.433 . S
C158 H167 0.933 . S
C159 Dy129 2.738 . S
C159 O139 1.255 . S
C159 O140 1.249 . S
C159 C153 1.516 . S
H160 C146 0.930 . S
H161 C147 0.931 . S
H162 C148 0.931 . S
H163 C149 0.933 . S
H164 C155 0.930 . S
H165 C156 0.931 . S
H166 C157 0.931 . S
H167 C158 0.933 . S
Dy168 O171 2.307 . S
Dy168 O173 2.395 . S
Dy168 O174 2.379 . S
Dy168 O176 2.339 . S
Dy168 O178 2.298 . S
Dy168 O182 2.275 . S
Dy168 C190 2.738 . S
Dy169 O172 2.298 . S
Dy169 O175 2.275 . S
Dy169 O177 2.307 . S
Dy169 O179 2.395 . S
Dy169 O180 2.379 . S
Dy169 O183 2.339 . S
Dy169 C199 2.738 . S
C170 O182 1.254 . S
C170 O183 1.257 . S
O171 Dy168 2.307 . S
O171 C181 1.266 . S
O172 Dy169 2.298 . S
O172 C181 1.236 . S
O173 Dy168 2.395 . S
O173 C190 1.255 . S
O174 Dy168 2.379 . S
O174 C190 1.249 . S
O175 Dy169 2.275 . S
O175 C191 1.254 . S
O176 Dy168 2.339 . S
O176 C191 1.257 . S
O177 Dy169 2.307 . S
O177 C192 1.266 . S
O178 Dy168 2.298 . S
O178 C192 1.236 . S
O179 Dy169 2.395 . S
O179 C199 1.255 . S
O180 Dy169 2.379 . S
O180 C199 1.249 . S
C181 O171 1.266 . S
C181 O172 1.236 . S
O182 Dy168 2.275 . S
O182 C170 1.254 . S
O183 Dy169 2.339 . S
O183 C170 1.257 . S
C184 C187 1.344 . S
C184 C188 1.328 . S
C184 C190 1.516 . S
C185 C186 1.304 . S
C185 C189 1.323 . S
C186 C185 1.304 . S
C186 C187 1.371 . S
C186 H200 0.930 . S
C187 C184 1.344 . S
C187 C186 1.371 . S
C187 H201 0.931 . S
C188 C184 1.328 . S
C188 C189 1.433 . S
C188 H202 0.931 . S
C189 C185 1.323 . S
C189 C188 1.433 . S
C189 H203 0.933 . S
C190 Dy168 2.738 . S
C190 O173 1.255 . S
C190 O174 1.249 . S
C190 C184 1.516 . S
C191 O175 1.254 . S
C191 O176 1.257 . S
C192 O177 1.266 . S
C192 O178 1.236 . S
C193 C196 1.344 . S
C193 C197 1.328 . S
C193 C199 1.516 . S
C194 C195 1.304 . S
C194 C198 1.323 . S
C195 C194 1.304 . S
C195 C196 1.371 . S
C195 H204 0.930 . S
C196 C193 1.344 . S
C196 C195 1.371 . S
C196 H205 0.931 . S
C197 C193 1.328 . S
C197 C198 1.433 . S
C197 H206 0.931 . S
C198 C194 1.323 . S
C198 C197 1.433 . S
C198 H207 0.933 . S
C199 Dy169 2.738 . S
C199 O179 1.255 . S
C199 O180 1.249 . S
C199 C193 1.516 . S
H200 C186 0.930 . S
H201 C187 0.931 . S
H202 C188 0.931 . S
H203 C189 0.933 . S
H204 C195 0.930 . S
H205 C196 0.931 . S
H206 C197 0.931 . S
H207 C198 0.933 . S
Dy208 O211 2.307 1_556 S
Dy208 O213 2.395 1_455 S
Dy208 O214 2.379 . S
Dy208 O216 2.339 . S
Dy208 O218 2.298 1_455 S
Dy208 O222 2.275 1_556 S
Dy208 C230 2.738 1_455 S
Dy209 O212 2.298 . S
Dy209 O215 2.275 1_554 S
Dy209 O217 2.307 1_455 S
Dy209 O219 2.395 . S
Dy209 O220 2.379 . S
Dy209 O223 2.339 . S
Dy209 C239 2.738 . S
C210 O222 1.254 . S
C210 O223 1.257 . S
O211 Dy208 2.307 1_554 S
O211 C221 1.266 . S
O212 Dy209 2.298 . S
O212 C221 1.236 . S
O213 Dy208 2.395 1_655 S
O213 C230 1.255 . S
O214 Dy208 2.379 . S
O214 C230 1.249 1_455 S
O215 Dy209 2.275 1_556 S
O215 C231 1.254 . S
O216 Dy208 2.339 . S
O216 C231 1.257 . S
O217 Dy209 2.307 1_655 S
O217 C232 1.266 1_554 S
O218 Dy208 2.298 1_655 S
O218 C232 1.236 . S
O219 Dy209 2.395 . S
O219 C239 1.255 . S
O220 Dy209 2.379 . S
O220 C239 1.249 . S
C221 O211 1.266 . S
C221 O212 1.236 . S
O222 Dy208 2.275 1_554 S
O222 C210 1.254 . S
O223 Dy209 2.339 . S
O223 C210 1.257 . S
C224 C227 1.344 . S
C224 C228 1.328 . S
C224 C230 1.516 . S
C225 C226 1.304 . S
C225 C229 1.323 . S
C226 C225 1.304 . S
C226 C227 1.371 . S
C226 H240 0.930 . S
C227 C224 1.344 . S
C227 C226 1.371 . S
C227 H241 0.931 . S
C228 C224 1.328 . S
C228 C229 1.433 . S
C228 H242 0.931 . S
C229 C225 1.323 . S
C229 C228 1.433 . S
C229 H243 0.933 . S
C230 Dy208 2.738 1_655 S
C230 O213 1.255 . S
C230 O214 1.249 1_655 S
C230 C224 1.516 . S
C231 O215 1.254 . S
C231 O216 1.257 . S
C232 O217 1.266 1_556 S
C232 O218 1.236 . S
C233 C236 1.344 . S
C233 C237 1.328 . S
C233 C239 1.516 . S
C234 C235 1.304 . S
C234 C238 1.323 . S
C235 C234 1.304 . S
C235 C236 1.371 . S
C235 H244 0.930 . S
C236 C233 1.344 . S
C236 C235 1.371 . S
C236 H245 0.931 . S
C237 C233 1.328 . S
C237 C238 1.433 . S
C237 H246 0.931 . S
C238 C234 1.323 . S
C238 C237 1.433 . S
C238 H247 0.933 . S
C239 Dy209 2.738 . S
C239 O219 1.255 . S
C239 O220 1.249 . S
C239 C233 1.516 . S
H240 C226 0.930 . S
H241 C227 0.931 . S
H242 C228 0.931 . S
H243 C229 0.933 . S
H244 C235 0.930 . S
H245 C236 0.931 . S
H246 C237 0.931 . S
H247 C238 0.933 . S
H248 C256 0.929 . S
H249 C258 0.930 . S
H250 C260 0.930 . S
H251 C263 0.929 . S
H252 C266 0.930 . S
H253 C268 0.960 . S
H254 C268 0.960 . S
H255 C268 0.960 . S
C256 H248 0.929 . S
C256 C257 1.377 . S
C256 C258 1.384 . S
C257 C256 1.377 . S
C257 C263 1.390 . S
C258 H249 0.930 . S
C258 C256 1.384 . S
C258 C259 1.372 . S
C259 C258 1.372 . S
C259 C260 1.400 . S
C259 C264 1.490 . S
C260 H250 0.930 . S
C260 C259 1.400 . S
C260 C263 1.386 . S
H261 C277 0.930 . S
H262 C278 0.931 . S
C263 H251 0.929 . S
C263 C257 1.390 . S
C263 C260 1.386 . S
C264 C259 1.490 . S
C264 C266 1.395 . S
C264 C267 1.403 . S
H265 C271 0.930 . S
C266 H252 0.930 . S
C266 C264 1.395 . S
C266 C269 1.403 . S
C267 C264 1.403 . S
C267 C268 1.524 . S
C267 C271 1.400 . S
C268 H253 0.960 . S
C268 H254 0.960 . S
C268 H255 0.960 . S
C268 C267 1.524 . S
C269 C266 1.403 . S
C269 C270 1.392 . S
C269 C273 1.495 . S
C270 C269 1.392 . S
C270 C271 1.385 . S
C270 C272 1.478 . S
C271 H265 0.930 . S
C271 C267 1.400 . S
C271 C270 1.385 . S
C272 C270 1.478 . S
C272 C274 1.381 . S
C272 C278 1.383 . S
C273 C269 1.495 . S
C273 H279 0.959 . S
C273 H280 0.961 . S
C273 H281 0.960 . S
C274 C272 1.381 . S
C274 C275 1.394 . S
C274 H282 0.930 . S
C275 C274 1.394 . S
C275 C276 1.383 . S
C275 H283 0.929 . S
C276 C275 1.383 . S
C276 C277 1.377 . S
C277 H261 0.930 . S
C277 C276 1.377 . S
C277 C278 1.379 . S
C278 H262 0.931 . S
C278 C272 1.383 . S
C278 C277 1.379 . S
H279 C273 0.959 . S
H280 C273 0.961 . S
H281 C273 0.960 . S
H282 C274 0.930 . S
H283 C275 0.929 . S
H284 C292 0.929 . S
H285 C294 0.930 . S
H286 C296 0.930 . S
H287 C299 0.929 . S
H288 C302 0.930 . S
H289 C304 0.960 . S
H290 C304 0.960 . S
H291 C304 0.960 . S
C292 H284 0.929 . S
C292 C293 1.377 . S
C292 C294 1.384 . S
C293 C292 1.377 . S
C293 C299 1.390 . S
C294 H285 0.930 . S
C294 C292 1.384 . S
C294 C295 1.372 . S
C295 C294 1.372 . S
C295 C296 1.400 . S
C295 C300 1.490 . S
C296 H286 0.930 . S
C296 C295 1.400 . S
C296 C299 1.386 . S
H297 C313 0.930 . S
H298 C314 0.931 . S
C299 H287 0.929 . S
C299 C293 1.390 . S
C299 C296 1.386 . S
C300 C295 1.490 . S
C300 C302 1.395 . S
C300 C303 1.403 . S
H301 C307 0.930 . S
C302 H288 0.930 . S
C302 C300 1.395 . S
C302 C305 1.403 . S
C303 C300 1.403 . S
C303 C304 1.524 . S
C303 C307 1.400 . S
C304 H289 0.960 . S
C304 H290 0.960 . S
C304 H291 0.960 . S
C304 C303 1.524 . S
C305 C302 1.403 . S
C305 C306 1.392 . S
C305 C309 1.495 . S
C306 C305 1.392 . S
C306 C307 1.385 . S
C306 C308 1.478 . S
C307 H301 0.930 . S
C307 C303 1.400 . S
C307 C306 1.385 . S
C308 C306 1.478 . S
C308 C310 1.381 . S
C308 C314 1.383 . S
C309 C305 1.495 . S
C309 H315 0.959 . S
C309 H316 0.961 . S
C309 H317 0.960 . S
C310 C308 1.381 . S
C310 C311 1.394 . S
C310 H318 0.930 . S
C311 C310 1.394 . S
C311 C312 1.383 . S
C311 H319 0.929 . S
C312 C311 1.383 . S
C312 C313 1.377 . S
C313 H297 0.930 . S
C313 C312 1.377 . S
C313 C314 1.379 . S
C314 H298 0.931 . S
C314 C308 1.383 . S
C314 C313 1.379 . S
H315 C309 0.959 . S
H316 C309 0.961 . S
H317 C309 0.960 . S
H318 C310 0.930 . S
H319 C311 0.929 . S
H320 C328 0.929 . S
H321 C330 0.930 . S
H322 C332 0.930 . S
H323 C335 0.929 . S
H324 C338 0.930 . S
H325 C340 0.960 . S
H326 C340 0.960 . S
H327 C340 0.960 . S
C328 H320 0.929 . S
C328 C329 1.377 . S
C328 C330 1.384 . S
C329 C328 1.377 . S
C329 C335 1.390 . S
C330 H321 0.930 . S
C330 C328 1.384 . S
C330 C331 1.372 . S
C331 C330 1.372 . S
C331 C332 1.400 . S
C331 C336 1.490 . S
C332 H322 0.930 . S
C332 C331 1.400 . S
C332 C335 1.386 . S
H333 C349 0.930 . S
H334 C350 0.931 . S
C335 H323 0.929 . S
C335 C329 1.390 . S
C335 C332 1.386 . S
C336 C331 1.490 . S
C336 C338 1.395 . S
C336 C339 1.403 . S
H337 C343 0.930 . S
C338 H324 0.930 . S
C338 C336 1.395 . S
C338 C341 1.403 . S
C339 C336 1.403 . S
C339 C340 1.524 . S
C339 C343 1.400 . S
C340 H325 0.960 . S
C340 H326 0.960 . S
C340 H327 0.960 . S
C340 C339 1.524 . S
C341 C338 1.403 . S
C341 C342 1.392 . S
C341 C345 1.495 . S
C342 C341 1.392 . S
C342 C343 1.385 . S
C342 C344 1.478 . S
C343 H337 0.930 . S
C343 C339 1.400 . S
C343 C342 1.385 . S
C344 C342 1.478 . S
C344 C346 1.381 . S
C344 C350 1.383 . S
C345 C341 1.495 . S
C345 H351 0.959 . S
C345 H352 0.961 . S
C345 H353 0.960 . S
C346 C344 1.381 . S
C346 C347 1.394 . S
C346 H354 0.930 . S
C347 C346 1.394 . S
C347 C348 1.383 . S
C347 H355 0.929 . S
C348 C347 1.383 . S
C348 C349 1.377 . S
C349 H333 0.930 . S
C349 C348 1.377 . S
C349 C350 1.379 . S
C350 H334 0.931 . S
C350 C344 1.383 . S
C350 C349 1.379 . S
H351 C345 0.959 . S
H352 C345 0.961 . S
H353 C345 0.960 . S
H354 C346 0.930 . S
H355 C347 0.929 . S
H356 C364 0.929 . S
H357 C366 0.930 . S
H358 C368 0.930 . S
H359 C371 0.929 . S
H360 C374 0.930 . S
H361 C376 0.960 . S
H362 C376 0.960 . S
H363 C376 0.960 . S
C364 H356 0.929 . S
C364 C365 1.377 . S
C364 C366 1.384 . S
C365 C364 1.377 . S
C365 C371 1.390 . S
C366 H357 0.930 . S
C366 C364 1.384 . S
C366 C367 1.372 . S
C367 C366 1.372 . S
C367 C368 1.400 . S
C367 C372 1.490 . S
C368 H358 0.930 . S
C368 C367 1.400 . S
C368 C371 1.386 . S
H369 C385 0.930 . S
H370 C386 0.931 . S
C371 H359 0.929 . S
C371 C365 1.390 . S
C371 C368 1.386 . S
C372 C367 1.490 . S
C372 C374 1.395 . S
C372 C375 1.403 . S
H373 C379 0.930 . S
C374 H360 0.930 . S
C374 C372 1.395 . S
C374 C377 1.403 . S
C375 C372 1.403 . S
C375 C376 1.524 . S
C375 C379 1.400 . S
C376 H361 0.960 . S
C376 H362 0.960 . S
C376 H363 0.960 . S
C376 C375 1.524 . S
C377 C374 1.403 . S
C377 C378 1.392 . S
C377 C381 1.495 . S
C378 C377 1.392 . S
C378 C379 1.385 . S
C378 C380 1.478 . S
C379 H373 0.930 . S
C379 C375 1.400 . S
C379 C378 1.385 . S
C380 C378 1.478 . S
C380 C382 1.381 . S
C380 C386 1.383 . S
C381 C377 1.495 . S
C381 H387 0.959 . S
C381 H388 0.961 . S
C381 H389 0.960 . S
C382 C380 1.381 . S
C382 C383 1.394 . S
C382 H390 0.930 . S
C383 C382 1.394 . S
C383 C384 1.383 . S
C383 H391 0.929 . S
C384 C383 1.383 . S
C384 C385 1.377 . S
C385 H369 0.930 . S
C385 C384 1.377 . S
C385 C386 1.379 . S
C386 H370 0.931 . S
C386 C380 1.383 . S
C386 C385 1.379 . S
H387 C381 0.959 . S
H388 C381 0.961 . S
H389 C381 0.960 . S
H390 C382 0.930 . S
H391 C383 0.929 . S
H392 C400 0.929 . S
H393 C402 0.930 . S
H394 C404 0.930 . S
H395 C407 0.929 . S
H396 C410 0.930 . S
H397 C412 0.960 . S
H398 C412 0.960 . S
H399 C412 0.960 . S
C400 H392 0.929 . S
C400 C401 1.377 . S
C400 C402 1.384 . S
C401 C400 1.377 . S
C401 C407 1.390 . S
C402 H393 0.930 . S
C402 C400 1.384 . S
C402 C403 1.372 . S
C403 C402 1.372 . S
C403 C404 1.400 . S
C403 C408 1.490 . S
C404 H394 0.930 . S
C404 C403 1.400 . S
C404 C407 1.386 . S
H405 C421 0.930 . S
H406 C422 0.931 . S
C407 H395 0.929 . S
C407 C401 1.390 . S
C407 C404 1.386 . S
C408 C403 1.490 . S
C408 C410 1.395 . S
C408 C411 1.403 . S
H409 C415 0.930 . S
C410 H396 0.930 . S
C410 C408 1.395 . S
C410 C413 1.403 . S
C411 C408 1.403 . S
C411 C412 1.524 . S
C411 C415 1.400 . S
C412 H397 0.960 . S
C412 H398 0.960 . S
C412 H399 0.960 . S
C412 C411 1.524 . S
C413 C410 1.403 . S
C413 C414 1.392 . S
C413 C417 1.495 . S
C414 C413 1.392 . S
C414 C415 1.385 . S
C414 C416 1.478 . S
C415 H409 0.930 . S
C415 C411 1.400 . S
C415 C414 1.385 . S
C416 C414 1.478 . S
C416 C418 1.381 . S
C416 C422 1.383 . S
C417 C413 1.495 . S
C417 H423 0.959 . S
C417 H424 0.961 . S
C417 H425 0.960 . S
C418 C416 1.381 . S
C418 C419 1.394 . S
C418 H426 0.930 . S
C419 C418 1.394 . S
C419 C420 1.383 . S
C419 H427 0.929 . S
C420 C419 1.383 . S
C420 C421 1.377 . S
C421 H405 0.930 . S
C421 C420 1.377 . S
C421 C422 1.379 . S
C422 H406 0.931 . S
C422 C416 1.383 . S
C422 C421 1.379 . S
H423 C417 0.959 . S
H424 C417 0.961 . S
H425 C417 0.960 . S
H426 C418 0.930 . S
H427 C419 0.929 . S
H428 C436 0.929 . S
H429 C438 0.930 . S
H430 C440 0.930 . S
H431 C443 0.929 . S
H432 C446 0.930 . S
H433 C448 0.960 . S
H434 C448 0.960 . S
H435 C448 0.960 . S
C436 H428 0.929 . S
C436 C437 1.377 . S
C436 C438 1.384 . S
C437 C436 1.377 . S
C437 C443 1.390 . S
C438 H429 0.930 . S
C438 C436 1.384 . S
C438 C439 1.372 . S
C439 C438 1.372 . S
C439 C440 1.400 . S
C439 C444 1.490 . S
C440 H430 0.930 . S
C440 C439 1.400 . S
C440 C443 1.386 . S
H441 C457 0.930 1_545 S
H442 C458 0.931 . S
C443 H431 0.929 . S
C443 C437 1.390 . S
C443 C440 1.386 . S
C444 C439 1.490 . S
C444 C446 1.395 . S
C444 C447 1.403 . S
H445 C451 0.930 . S
C446 H432 0.930 . S
C446 C444 1.395 . S
C446 C449 1.403 . S
C447 C444 1.403 . S
C447 C448 1.524 . S
C447 C451 1.400 . S
C448 H433 0.960 . S
C448 H434 0.960 . S
C448 H435 0.960 . S
C448 C447 1.524 . S
C449 C446 1.403 . S
C449 C450 1.392 . S
C449 C453 1.495 . S
C450 C449 1.392 . S
C450 C451 1.385 . S
C450 C452 1.478 . S
C451 H445 0.930 . S
C451 C447 1.400 . S
C451 C450 1.385 . S
C452 C450 1.478 . S
C452 C454 1.381 . S
C452 C458 1.383 . S
C453 C449 1.495 . S
C453 H459 0.959 . S
C453 H460 0.961 . S
C453 H461 0.960 . S
C454 C452 1.381 . S
C454 C455 1.394 . S
C454 H462 0.930 . S
C455 C454 1.394 . S
C455 C456 1.383 . S
C455 H463 0.929 . S
C456 C455 1.383 . S
C456 C457 1.377 . S
C457 H441 0.930 1_565 S
C457 C456 1.377 . S
C457 C458 1.379 . S
C458 H442 0.931 . S
C458 C452 1.383 . S
C458 C457 1.379 . S
H459 C453 0.959 . S
H460 C453 0.961 . S
H461 C453 0.960 . S
H462 C454 0.930 . S
H463 C455 0.929 . S
H464 C472 0.929 . S
H465 C474 0.930 . S
H466 C476 0.930 . S
H467 C479 0.929 . S
H468 C482 0.930 . S
H469 C484 0.960 . S
H470 C484 0.960 . S
H471 C484 0.960 . S
C472 H464 0.929 . S
C472 C473 1.377 . S
C472 C474 1.384 . S
C473 C472 1.377 . S
C473 C479 1.390 . S
C474 H465 0.930 . S
C474 C472 1.384 . S
C474 C475 1.372 . S
C475 C474 1.372 . S
C475 C476 1.400 . S
C475 C480 1.490 . S
C476 H466 0.930 . S
C476 C475 1.400 . S
C476 C479 1.386 . S
H477 C493 0.930 1_554 S
H478 C494 0.931 . S
C479 H467 0.929 . S
C479 C473 1.390 . S
C479 C476 1.386 . S
C480 C475 1.490 . S
C480 C482 1.395 . S
C480 C483 1.403 . S
H481 C487 0.930 . S
C482 H468 0.930 . S
C482 C480 1.395 . S
C482 C485 1.403 . S
C483 C480 1.403 . S
C483 C484 1.524 . S
C483 C487 1.400 . S
C484 H469 0.960 . S
C484 H470 0.960 . S
C484 H471 0.960 . S
C484 C483 1.524 . S
C485 C482 1.403 . S
C485 C486 1.392 . S
C485 C489 1.495 . S
C486 C485 1.392 . S
C486 C487 1.385 . S
C486 C488 1.478 . S
C487 H481 0.930 . S
C487 C483 1.400 . S
C487 C486 1.385 . S
C488 C486 1.478 . S
C488 C490 1.381 . S
C488 C494 1.383 . S
C489 C485 1.495 . S
C489 H495 0.959 . S
C489 H496 0.961 . S
C489 H497 0.960 . S
C490 C488 1.381 . S
C490 C491 1.394 . S
C490 H498 0.930 . S
C491 C490 1.394 . S
C491 C492 1.383 . S
C491 H499 0.929 . S
C492 C491 1.383 . S
C492 C493 1.377 . S
C493 H477 0.930 1_556 S
C493 C492 1.377 . S
C493 C494 1.379 . S
C494 H478 0.931 . S
C494 C488 1.383 . S
C494 C493 1.379 . S
H495 C489 0.959 . S
H496 C489 0.961 . S
H497 C489 0.960 . S
H498 C490 0.930 . S
H499 C491 0.929 . S
H500 C508 0.929 . S
H501 C510 0.930 . S
H502 C512 0.930 . S
H503 C515 0.929 . S
H504 C518 0.930 . S
H505 C520 0.960 . S
H506 C520 0.960 . S
H507 C520 0.960 . S
C508 H500 0.929 . S
C508 C509 1.377 . S
C508 C510 1.384 . S
C509 C508 1.377 . S
C509 C515 1.390 . S
C510 H501 0.930 . S
C510 C508 1.384 . S
C510 C511 1.372 . S
C511 C510 1.372 . S
C511 C512 1.400 . S
C511 C516 1.490 . S
C512 H502 0.930 . S
C512 C511 1.400 . S
C512 C515 1.386 . S
H513 C529 0.930 . S
H514 C530 0.931 . S
C515 H503 0.929 . S
C515 C509 1.390 . S
C515 C512 1.386 . S
C516 C511 1.490 . S
C516 C518 1.395 . S
C516 C519 1.403 . S
H517 C523 0.930 . S
C518 H504 0.930 . S
C518 C516 1.395 . S
C518 C521 1.403 . S
C519 C516 1.403 . S
C519 C520 1.524 . S
C519 C523 1.400 . S
C520 H505 0.960 . S
C520 H506 0.960 . S
C520 H507 0.960 . S
C520 C519 1.524 . S
C521 C518 1.403 . S
C521 C522 1.392 . S
C521 C525 1.495 . S
C522 C521 1.392 . S
C522 C523 1.385 . S
C522 C524 1.478 . S
C523 H517 0.930 . S
C523 C519 1.400 . S
C523 C522 1.385 . S
C524 C522 1.478 . S
C524 C526 1.381 . S
C524 C530 1.383 . S
C525 C521 1.495 . S
C525 H531 0.959 . S
C525 H532 0.961 . S
C525 H533 0.960 . S
C526 C524 1.381 . S
C526 C527 1.394 . S
C526 H534 0.930 . S
C527 C526 1.394 . S
C527 C528 1.383 . S
C527 H535 0.929 . S
C528 C527 1.383 . S
C528 C529 1.377 . S
C529 H513 0.930 . S
C529 C528 1.377 . S
C529 C530 1.379 . S
C530 H514 0.931 . S
C530 C524 1.383 . S
C530 C529 1.379 . S
H531 C525 0.959 . S
H532 C525 0.961 . S
H533 C525 0.960 . S
H534 C526 0.930 . S
H535 C527 0.929 . S
H536 C544 0.929 . S
H537 C546 0.930 . S
H538 C548 0.930 . S
H539 C551 0.929 . S
H540 C554 0.930 . S
H541 C556 0.960 . S
H542 C556 0.960 . S
H543 C556 0.960 . S
C544 H536 0.929 . S
C544 C545 1.377 . S
C544 C546 1.384 . S
C545 C544 1.377 . S
C545 C551 1.390 . S
C546 H537 0.930 . S
C546 C544 1.384 . S
C546 C547 1.372 . S
C547 C546 1.372 . S
C547 C548 1.400 . S
C547 C552 1.490 . S
C548 H538 0.930 . S
C548 C547 1.400 . S
C548 C551 1.386 . S
H549 C565 0.930 . S
H550 C566 0.931 . S
C551 H539 0.929 . S
C551 C545 1.390 . S
C551 C548 1.386 . S
C552 C547 1.490 . S
C552 C554 1.395 . S
C552 C555 1.403 . S
H553 C559 0.930 . S
C554 H540 0.930 . S
C554 C552 1.395 . S
C554 C557 1.403 . S
C555 C552 1.403 . S
C555 C556 1.524 . S
C555 C559 1.400 . S
C556 H541 0.960 . S
C556 H542 0.960 . S
C556 H543 0.960 . S
C556 C555 1.524 . S
C557 C554 1.403 . S
C557 C558 1.392 . S
C557 C561 1.495 . S
C558 C557 1.392 . S
C558 C559 1.385 . S
C558 C560 1.478 . S
C559 H553 0.930 . S
C559 C555 1.400 . S
C559 C558 1.385 . S
C560 C558 1.478 . S
C560 C562 1.381 . S
C560 C566 1.383 . S
C561 C557 1.495 . S
C561 H567 0.959 . S
C561 H568 0.961 . S
C561 H569 0.960 . S
C562 C560 1.381 . S
C562 C563 1.394 . S
C562 H570 0.930 . S
C563 C562 1.394 . S
C563 C564 1.383 . S
C563 H571 0.929 . S
C564 C563 1.383 . S
C564 C565 1.377 . S
C565 H549 0.930 . S
C565 C564 1.377 . S
C565 C566 1.379 . S
C566 H550 0.931 . S
C566 C560 1.383 . S
C566 C565 1.379 . S
H567 C561 0.959 . S
H568 C561 0.961 . S
H569 C561 0.960 . S
H570 C562 0.930 . S
H571 C563 0.929 . S
H572 C580 0.929 . S
H573 C582 0.930 . S
H574 C584 0.930 . S
H575 C587 0.929 . S
H576 C590 0.930 . S
H577 C592 0.960 . S
H578 C592 0.960 . S
H579 C592 0.960 . S
C580 H572 0.929 . S
C580 C581 1.377 . S
C580 C582 1.384 . S
C581 C580 1.377 . S
C581 C587 1.390 . S
C582 H573 0.930 . S
C582 C580 1.384 . S
C582 C583 1.372 . S
C583 C582 1.372 . S
C583 C584 1.400 . S
C583 C588 1.490 . S
C584 H574 0.930 . S
C584 C583 1.400 . S
C584 C587 1.386 . S
H585 C601 0.930 . S
H586 C602 0.931 . S
C587 H575 0.929 . S
C587 C581 1.390 . S
C587 C584 1.386 . S
C588 C583 1.490 . S
C588 C590 1.395 . S
C588 C591 1.403 . S
H589 C595 0.930 . S
C590 H576 0.930 . S
C590 C588 1.395 . S
C590 C593 1.403 . S
C591 C588 1.403 . S
C591 C592 1.524 . S
C591 C595 1.400 . S
C592 H577 0.960 . S
C592 H578 0.960 . S
C592 H579 0.960 . S
C592 C591 1.524 . S
C593 C590 1.403 . S
C593 C594 1.392 . S
C593 C597 1.495 . S
C594 C593 1.392 . S
C594 C595 1.385 . S
C594 C596 1.478 . S
C595 H589 0.930 . S
C595 C591 1.400 . S
C595 C594 1.385 . S
C596 C594 1.478 . S
C596 C598 1.381 . S
C596 C602 1.383 1_556 S
C597 C593 1.495 . S
C597 H603 0.959 . S
C597 H604 0.961 . S
C597 H605 0.960 . S
C598 C596 1.381 . S
C598 C599 1.394 . S
C598 H606 0.930 . S
C599 C598 1.394 . S
C599 C600 1.383 1_556 S
C599 H607 0.929 . S
C600 C599 1.383 1_554 S
C600 C601 1.377 . S
C601 H585 0.930 . S
C601 C600 1.377 . S
C601 C602 1.379 . S
C602 H586 0.931 . S
C602 C596 1.383 1_554 S
C602 C601 1.379 . S
H603 C597 0.959 . S
H604 C597 0.961 . S
H605 C597 0.960 . S
H606 C598 0.930 . S
H607 C599 0.929 . S
H608 C616 0.929 . S
H609 C618 0.930 . S
H610 C620 0.930 . S
H611 C623 0.929 . S
H612 C626 0.930 . S
H613 C628 0.960 . S
H614 C628 0.960 . S
H615 C628 0.960 . S
C616 H608 0.929 . S
C616 C617 1.377 . S
C616 C618 1.384 . S
C617 C616 1.377 . S
C617 C623 1.390 . S
C618 H609 0.930 . S
C618 C616 1.384 . S
C618 C619 1.372 . S
C619 C618 1.372 . S
C619 C620 1.400 . S
C619 C624 1.490 . S
C620 H610 0.930 . S
C620 C619 1.400 . S
C620 C623 1.386 . S
H621 C637 0.930 . S
H622 C638 0.931 . S
C623 H611 0.929 . S
C623 C617 1.390 . S
C623 C620 1.386 . S
C624 C619 1.490 . S
C624 C626 1.395 . S
C624 C627 1.403 . S
H625 C631 0.930 . S
C626 H612 0.930 . S
C626 C624 1.395 . S
C626 C629 1.403 . S
C627 C624 1.403 . S
C627 C628 1.524 . S
C627 C631 1.400 . S
C628 H613 0.960 . S
C628 H614 0.960 . S
C628 H615 0.960 . S
C628 C627 1.524 . S
C629 C626 1.403 . S
C629 C630 1.392 . S
C629 C633 1.495 . S
C630 C629 1.392 . S
C630 C631 1.385 . S
C630 C632 1.478 . S
C631 H625 0.930 . S
C631 C627 1.400 . S
C631 C630 1.385 . S
C632 C630 1.478 . S
C632 C634 1.381 . S
C632 C638 1.383 . S
C633 C629 1.495 . S
C633 H639 0.959 . S
C633 H640 0.961 . S
C633 H641 0.960 . S
C634 C632 1.381 . S
C634 C635 1.394 . S
C634 H642 0.930 . S
C635 C634 1.394 . S
C635 C636 1.383 . S
C635 H643 0.929 . S
C636 C635 1.383 . S
C636 C637 1.377 . S
C637 H621 0.930 . S
C637 C636 1.377 . S
C637 C638 1.379 . S
C638 H622 0.931 . S
C638 C632 1.383 . S
C638 C637 1.379 . S
H639 C633 0.959 . S
H640 C633 0.961 . S
H641 C633 0.960 . S
H642 C634 0.930 . S
H643 C635 0.929 . S
H644 C652 0.929 . S
H645 C654 0.930 . S
H646 C656 0.930 . S
H647 C659 0.929 . S
H648 C662 0.930 . S
H649 C664 0.960 . S
H650 C664 0.960 . S
H651 C664 0.960 . S
C652 H644 0.929 . S
C652 C653 1.377 . S
C652 C654 1.384 . S
C653 C652 1.377 . S
C653 C659 1.390 . S
C654 H645 0.930 . S
C654 C652 1.384 . S
C654 C655 1.372 . S
C655 C654 1.372 . S
C655 C656 1.400 . S
C655 C660 1.490 . S
C656 H646 0.930 . S
C656 C655 1.400 . S
C656 C659 1.386 . S
H657 C673 0.930 . S
H658 C674 0.931 . S
C659 H647 0.929 . S
C659 C653 1.390 . S
C659 C656 1.386 . S
C660 C655 1.490 . S
C660 C662 1.395 . S
C660 C663 1.403 . S
H661 C667 0.930 . S
C662 H648 0.930 . S
C662 C660 1.395 . S
C662 C665 1.403 . S
C663 C660 1.403 . S
C663 C664 1.524 . S
C663 C667 1.400 . S
C664 H649 0.960 . S
C664 H650 0.960 . S
C664 H651 0.960 . S
C664 C663 1.524 . S
C665 C662 1.403 . S
C665 C666 1.392 . S
C665 C669 1.495 . S
C666 C665 1.392 . S
C666 C667 1.385 . S
C666 C668 1.478 . S
C667 H661 0.930 . S
C667 C663 1.400 . S
C667 C666 1.385 . S
C668 C666 1.478 . S
C668 C670 1.381 . S
C668 C674 1.383 . S
C669 C665 1.495 . S
C669 H675 0.959 . S
C669 H676 0.961 . S
C669 H677 0.960 . S
C670 C668 1.381 . S
C670 C671 1.394 . S
C670 H678 0.930 . S
C671 C670 1.394 . S
C671 C672 1.383 . S
C671 H679 0.929 . S
C672 C671 1.383 . S
C672 C673 1.377 . S
C673 H657 0.930 . S
C673 C672 1.377 . S
C673 C674 1.379 . S
C674 H658 0.931 . S
C674 C668 1.383 . S
C674 C673 1.379 . S
H675 C669 0.959 . S
H676 C669 0.961 . S
H677 C669 0.960 . S
H678 C670 0.930 . S
H679 C671 0.929 . S
H680 C688 0.929 . S
H681 C690 0.930 . S
H682 C692 0.930 . S
H683 C695 0.929 . S
H684 C698 0.930 . S
H685 C700 0.960 . S
H686 C700 0.960 . S
H687 C700 0.960 . S
C688 H680 0.929 . S
C688 C689 1.377 . S
C688 C690 1.384 . S
C689 C688 1.377 . S
C689 C695 1.390 . S
C690 H681 0.930 . S
C690 C688 1.384 . S
C690 C691 1.372 . S
C691 C690 1.372 . S
C691 C692 1.400 . S
C691 C696 1.490 . S
C692 H682 0.930 . S
C692 C691 1.400 . S
C692 C695 1.386 . S
H693 C709 0.930 . S
H694 C710 0.931 . S
C695 H683 0.929 . S
C695 C689 1.390 . S
C695 C692 1.386 . S
C696 C691 1.490 . S
C696 C698 1.395 . S
C696 C699 1.403 . S
H697 C703 0.930 . S
C698 H684 0.930 . S
C698 C696 1.395 . S
C698 C701 1.403 . S
C699 C696 1.403 . S
C699 C700 1.524 . S
C699 C703 1.400 . S
C700 H685 0.960 . S
C700 H686 0.960 . S
C700 H687 0.960 . S
C700 C699 1.524 . S
C701 C698 1.403 . S
C701 C702 1.392 . S
C701 C705 1.495 . S
C702 C701 1.392 . S
C702 C703 1.385 . S
C702 C704 1.478 . S
C703 H697 0.930 . S
C703 C699 1.400 . S
C703 C702 1.385 . S
C704 C702 1.478 . S
C704 C706 1.381 . S
C704 C710 1.383 . S
C705 C701 1.495 . S
C705 H711 0.959 . S
C705 H712 0.961 . S
C705 H713 0.960 . S
C706 C704 1.381 . S
C706 C707 1.394 . S
C706 H714 0.930 . S
C707 C706 1.394 . S
C707 C708 1.383 . S
C707 H715 0.929 . S
C708 C707 1.383 . S
C708 C709 1.377 . S
C709 H693 0.930 . S
C709 C708 1.377 . S
C709 C710 1.379 . S
C710 H694 0.931 . S
C710 C704 1.383 . S
C710 C709 1.379 . S
H711 C705 0.959 . S
H712 C705 0.961 . S
H713 C705 0.960 . S
H714 C706 0.930 . S
H715 C707 0.929 . S
H716 C724 0.929 . S
H717 C726 0.930 . S
H718 C728 0.930 . S
H719 C731 0.929 . S
H720 C734 0.930 . S
H721 C736 0.960 . S
H722 C736 0.960 . S
H723 C736 0.960 . S
C724 H716 0.929 . S
C724 C725 1.377 . S
C724 C726 1.384 . S
C725 C724 1.377 . S
C725 C731 1.390 . S
C726 H717 0.930 . S
C726 C724 1.384 . S
C726 C727 1.372 . S
C727 C726 1.372 . S
C727 C728 1.400 . S
C727 C732 1.490 . S
C728 H718 0.930 . S
C728 C727 1.400 . S
C728 C731 1.386 . S
H729 C745 0.930 . S
H730 C746 0.931 . S
C731 H719 0.929 . S
C731 C725 1.390 . S
C731 C728 1.386 . S
C732 C727 1.490 . S
C732 C734 1.395 . S
C732 C735 1.403 . S
H733 C739 0.930 . S
C734 H720 0.930 . S
C734 C732 1.395 . S
C734 C737 1.403 . S
C735 C732 1.403 . S
C735 C736 1.524 . S
C735 C739 1.400 . S
C736 H721 0.960 . S
C736 H722 0.960 . S
C736 H723 0.960 . S
C736 C735 1.524 . S
C737 C734 1.403 . S
C737 C738 1.392 . S
C737 C741 1.495 . S
C738 C737 1.392 . S
C738 C739 1.385 . S
C738 C740 1.478 . S
C739 H733 0.930 . S
C739 C735 1.400 . S
C739 C738 1.385 . S
C740 C738 1.478 . S
C740 C742 1.381 . S
C740 C746 1.383 . S
C741 C737 1.495 . S
C741 H747 0.959 . S
C741 H748 0.961 . S
C741 H749 0.960 . S
C742 C740 1.381 . S
C742 C743 1.394 . S
C742 H750 0.930 . S
C743 C742 1.394 . S
C743 C744 1.383 . S
C743 H751 0.929 . S
C744 C743 1.383 . S
C744 C745 1.377 . S
C745 H729 0.930 . S
C745 C744 1.377 . S
C745 C746 1.379 . S
C746 H730 0.931 . S
C746 C740 1.383 . S
C746 C745 1.379 . S
H747 C741 0.959 . S
H748 C741 0.961 . S
H749 C741 0.960 . S
H750 C742 0.930 . S
H751 C743 0.929 . S
H752 C760 0.929 . S
H753 C762 0.930 . S
H754 C764 0.930 . S
H755 C767 0.929 . S
H756 C770 0.930 . S
H757 C772 0.960 . S
H758 C772 0.960 . S
H759 C772 0.960 . S
C760 H752 0.929 . S
C760 C761 1.377 . S
C760 C762 1.384 . S
C761 C760 1.377 . S
C761 C767 1.390 . S
C762 H753 0.930 . S
C762 C760 1.384 . S
C762 C763 1.372 . S
C763 C762 1.372 . S
C763 C764 1.400 . S
C763 C768 1.490 . S
C764 H754 0.930 . S
C764 C763 1.400 . S
C764 C767 1.386 . S
H765 C781 0.930 . S
H766 C782 0.931 . S
C767 H755 0.929 . S
C767 C761 1.390 . S
C767 C764 1.386 . S
C768 C763 1.490 . S
C768 C770 1.395 . S
C768 C771 1.403 . S
H769 C775 0.930 . S
C770 H756 0.930 . S
C770 C768 1.395 . S
C770 C773 1.403 . S
C771 C768 1.403 . S
C771 C772 1.524 . S
C771 C775 1.400 . S
C772 H757 0.960 . S
C772 H758 0.960 . S
C772 H759 0.960 . S
C772 C771 1.524 . S
C773 C770 1.403 . S
C773 C774 1.392 . S
C773 C777 1.495 . S
C774 C773 1.392 . S
C774 C775 1.385 . S
C774 C776 1.478 . S
C775 H769 0.930 . S
C775 C771 1.400 . S
C775 C774 1.385 . S
C776 C774 1.478 . S
C776 C778 1.381 . S
C776 C782 1.383 . S
C777 C773 1.495 . S
C777 H783 0.959 . S
C777 H784 0.961 . S
C777 H785 0.960 . S
C778 C776 1.381 . S
C778 C779 1.394 . S
C778 H786 0.930 . S
C779 C778 1.394 . S
C779 C780 1.383 . S
C779 H787 0.929 . S
C780 C779 1.383 . S
C780 C781 1.377 . S
C781 H765 0.930 . S
C781 C780 1.377 . S
C781 C782 1.379 . S
C782 H766 0.931 . S
C782 C776 1.383 . S
C782 C781 1.379 . S
H783 C777 0.959 . S
H784 C777 0.961 . S
H785 C777 0.960 . S
H786 C778 0.930 . S
H787 C779 0.929 . S
H788 C796 0.929 . S
H789 C798 0.930 . S
H790 C800 0.930 . S
H791 C803 0.929 . S
H792 C806 0.930 . S
H793 C808 0.960 . S
H794 C808 0.960 . S
H795 C808 0.960 . S
C796 H788 0.929 . S
C796 C797 1.377 . S
C796 C798 1.384 . S
C797 C796 1.377 . S
C797 C803 1.390 . S
C798 H789 0.930 . S
C798 C796 1.384 . S
C798 C799 1.372 . S
C799 C798 1.372 . S
C799 C800 1.400 . S
C799 C804 1.490 . S
C800 H790 0.930 . S
C800 C799 1.400 . S
C800 C803 1.386 . S
H801 C817 0.930 . S
H802 C818 0.931 . S
C803 H791 0.929 . S
C803 C797 1.390 . S
C803 C800 1.386 . S
C804 C799 1.490 . S
C804 C806 1.395 . S
C804 C807 1.403 . S
H805 C811 0.930 . S
C806 H792 0.930 . S
C806 C804 1.395 . S
C806 C809 1.403 . S
C807 C804 1.403 . S
C807 C808 1.524 . S
C807 C811 1.400 . S
C808 H793 0.960 . S
C808 H794 0.960 . S
C808 H795 0.960 . S
C808 C807 1.524 . S
C809 C806 1.403 . S
C809 C810 1.392 . S
C809 C813 1.495 . S
C810 C809 1.392 . S
C810 C811 1.385 . S
C810 C812 1.478 . S
C811 H805 0.930 . S
C811 C807 1.400 . S
C811 C810 1.385 . S
C812 C810 1.478 . S
C812 C814 1.381 . S
C812 C818 1.383 . S
C813 C809 1.495 . S
C813 H819 0.959 . S
C813 H820 0.961 . S
C813 H821 0.960 . S
C814 C812 1.381 . S
C814 C815 1.394 . S
C814 H822 0.930 . S
C815 C814 1.394 . S
C815 C816 1.383 . S
C815 H823 0.929 . S
C816 C815 1.383 . S
C816 C817 1.377 . S
C817 H801 0.930 . S
C817 C816 1.377 . S
C817 C818 1.379 . S
C818 H802 0.931 . S
C818 C812 1.383 . S
C818 C817 1.379 . S
H819 C813 0.959 . S
H820 C813 0.961 . S
H821 C813 0.960 . S
H822 C814 0.930 . S
H823 C815 0.929 . S
H824 C832 0.929 . S
H825 C834 0.930 . S
H826 C836 0.930 . S
H827 C839 0.929 . S
H828 C842 0.930 . S
H829 C844 0.960 . S
H830 C844 0.960 . S
H831 C844 0.960 . S
C832 H824 0.929 . S
C832 C833 1.377 . S
C832 C834 1.384 . S
C833 C832 1.377 . S
C833 C839 1.390 . S
C834 H825 0.930 . S
C834 C832 1.384 . S
C834 C835 1.372 . S
C835 C834 1.372 . S
C835 C836 1.400 . S
C835 C840 1.490 . S
C836 H826 0.930 . S
C836 C835 1.400 . S
C836 C839 1.386 . S
H837 C853 0.930 . S
H838 C854 0.931 . S
C839 H827 0.929 . S
C839 C833 1.390 . S
C839 C836 1.386 . S
C840 C835 1.490 . S
C840 C842 1.395 . S
C840 C843 1.403 . S
H841 C847 0.930 . S
C842 H828 0.930 . S
C842 C840 1.395 . S
C842 C845 1.403 . S
C843 C840 1.403 . S
C843 C844 1.524 . S
C843 C847 1.400 . S
C844 H829 0.960 . S
C844 H830 0.960 . S
C844 H831 0.960 . S
C844 C843 1.524 . S
C845 C842 1.403 . S
C845 C846 1.392 . S
C845 C849 1.495 . S
C846 C845 1.392 . S
C846 C847 1.385 . S
C846 C848 1.478 . S
C847 H841 0.930 . S
C847 C843 1.400 . S
C847 C846 1.385 . S
C848 C846 1.478 . S
C848 C850 1.381 . S
C848 C854 1.383 . S
C849 C845 1.495 . S
C849 H855 0.959 . S
C849 H856 0.961 . S
C849 H857 0.960 . S
C850 C848 1.381 . S
C850 C851 1.394 1_556 S
C850 H858 0.930 1_556 S
C851 C850 1.394 1_554 S
C851 C852 1.383 . S
C851 H859 0.929 . S
C852 C851 1.383 . S
C852 C853 1.377 1_554 S
C853 H837 0.930 . S
C853 C852 1.377 1_556 S
C853 C854 1.379 . S
C854 H838 0.931 . S
C854 C848 1.383 . S
C854 C853 1.379 . S
H855 C849 0.959 . S
H856 C849 0.961 . S
H857 C849 0.960 . S
H858 C850 0.930 1_554 S
H859 C851 0.929 . S
H860 C868 0.929 . S
H861 C870 0.930 . S
H862 C872 0.930 . S
H863 C875 0.929 . S
H864 C878 0.930 . S
H865 C880 0.960 . S
H866 C880 0.960 . S
H867 C880 0.960 . S
C868 H860 0.929 . S
C868 C869 1.377 . S
C868 C870 1.384 . S
C869 C868 1.377 . S
C869 C875 1.390 . S
C870 H861 0.930 . S
C870 C868 1.384 . S
C870 C871 1.372 . S
C871 C870 1.372 . S
C871 C872 1.400 . S
C871 C876 1.490 . S
C872 H862 0.930 . S
C872 C871 1.400 . S
C872 C875 1.386 . S
H873 C889 0.930 . S
H874 C890 0.931 . S
C875 H863 0.929 . S
C875 C869 1.390 . S
C875 C872 1.386 . S
C876 C871 1.490 . S
C876 C878 1.395 . S
C876 C879 1.403 . S
H877 C883 0.930 . S
C878 H864 0.930 . S
C878 C876 1.395 . S
C878 C881 1.403 . S
C879 C876 1.403 . S
C879 C880 1.524 . S
C879 C883 1.400 . S
C880 H865 0.960 . S
C880 H866 0.960 . S
C880 H867 0.960 . S
C880 C879 1.524 . S
C881 C878 1.403 . S
C881 C882 1.392 . S
C881 C885 1.495 . S
C882 C881 1.392 . S
C882 C883 1.385 . S
C882 C884 1.478 . S
C883 H877 0.930 . S
C883 C879 1.400 . S
C883 C882 1.385 . S
C884 C882 1.478 . S
C884 C886 1.381 . S
C884 C890 1.383 . S
C885 C881 1.495 . S
C885 H891 0.959 . S
C885 H892 0.961 . S
C885 H893 0.948 1_655 S
C886 C884 1.381 . S
C886 C887 1.394 . S
C886 H894 0.930 . S
C887 C886 1.394 . S
C887 C888 1.383 . S
C887 H895 0.929 . S
C888 C887 1.383 . S
C888 C889 1.377 . S
C889 H873 0.930 . S
C889 C888 1.377 . S
C889 C890 1.379 . S
C890 H874 0.931 . S
C890 C884 1.383 . S
C890 C889 1.379 . S
H891 C885 0.959 . S
H892 C885 0.961 . S
H893 C885 0.948 1_455 S
H894 C886 0.930 . S
H895 C887 0.929 . S
H896 C904 0.929 . S
H897 C906 0.930 . S
H898 C908 0.930 . S
H899 C911 0.929 . S
H900 C914 0.930 . S
H901 C916 0.960 . S
H902 C916 0.960 . S
H903 C916 0.960 . S
C904 H896 0.929 . S
C904 C905 1.377 . S
C904 C906 1.384 . S
C905 C904 1.377 . S
C905 C911 1.390 . S
C906 H897 0.930 . S
C906 C904 1.384 . S
C906 C907 1.372 . S
C907 C906 1.372 . S
C907 C908 1.400 . S
C907 C912 1.490 . S
C908 H898 0.930 . S
C908 C907 1.400 . S
C908 C911 1.386 . S
H909 C925 0.930 . S
H910 C926 0.931 . S
C911 H899 0.929 . S
C911 C905 1.390 . S
C911 C908 1.386 . S
C912 C907 1.490 . S
C912 C914 1.395 . S
C912 C915 1.403 . S
H913 C919 0.930 . S
C914 H900 0.930 . S
C914 C912 1.395 . S
C914 C917 1.403 . S
C915 C912 1.403 . S
C915 C916 1.524 . S
C915 C919 1.400 . S
C916 H901 0.960 . S
C916 H902 0.960 . S
C916 H903 0.960 . S
C916 C915 1.524 . S
C917 C914 1.403 . S
C917 C918 1.392 . S
C917 C921 1.495 . S
C918 C917 1.392 . S
C918 C919 1.385 . S
C918 C920 1.478 . S
C919 H913 0.930 . S
C919 C915 1.400 . S
C919 C918 1.385 . S
C920 C918 1.478 . S
C920 C922 1.381 . S
C920 C926 1.383 . S
C921 C917 1.495 . S
C921 H927 0.959 . S
C921 H928 0.961 . S
C921 H929 0.960 . S
C922 C920 1.381 . S
C922 C923 1.394 . S
C922 H930 0.930 . S
C923 C922 1.394 . S
C923 C924 1.383 . S
C923 H931 0.929 . S
C924 C923 1.383 . S
C924 C925 1.377 . S
C925 H909 0.930 . S
C925 C924 1.377 . S
C925 C926 1.379 . S
C926 H910 0.931 . S
C926 C920 1.383 . S
C926 C925 1.379 . S
H927 C921 0.959 . S
H928 C921 0.961 . S
H929 C921 0.960 . S
H930 C922 0.930 . S
H931 C923 0.929 . S
H932 C940 0.929 . S
H933 C942 0.930 . S
H934 C944 0.930 . S
H935 C947 0.929 . S
H936 C950 0.930 . S
H937 C952 0.960 . S
H938 C952 0.960 . S
H939 C952 0.960 . S
C940 H932 0.929 . S
C940 C941 1.377 . S
C940 C942 1.384 . S
C941 C940 1.377 . S
C941 C947 1.390 . S
C942 H933 0.930 . S
C942 C940 1.384 . S
C942 C943 1.372 . S
C943 C942 1.372 . S
C943 C944 1.400 . S
C943 C948 1.490 . S
C944 H934 0.930 . S
C944 C943 1.400 . S
C944 C947 1.386 . S
H945 C961 0.930 . S
H946 C962 0.931 . S
C947 H935 0.929 . S
C947 C941 1.390 . S
C947 C944 1.386 . S
C948 C943 1.490 . S
C948 C950 1.395 . S
C948 C951 1.403 . S
H949 C955 0.930 . S
C950 H936 0.930 . S
C950 C948 1.395 . S
C950 C953 1.403 . S
C951 C948 1.403 . S
C951 C952 1.524 . S
C951 C955 1.400 . S
C952 H937 0.960 . S
C952 H938 0.960 . S
C952 H939 0.960 . S
C952 C951 1.524 . S
C953 C950 1.403 . S
C953 C954 1.392 . S
C953 C957 1.495 . S
C954 C953 1.392 . S
C954 C955 1.385 . S
C954 C956 1.478 . S
C955 H949 0.930 . S
C955 C951 1.400 . S
C955 C954 1.385 . S
C956 C954 1.478 . S
C956 C958 1.381 . S
C956 C962 1.383 . S
C957 C953 1.495 . S
C957 H963 0.959 . S
C957 H964 0.961 . S
C957 H965 0.960 . S
C958 C956 1.381 . S
C958 C959 1.394 . S
C958 H966 0.930 . S
C959 C958 1.394 . S
C959 C960 1.383 . S
C959 H967 0.929 . S
C960 C959 1.383 . S
C960 C961 1.377 . S
C961 H945 0.930 . S
C961 C960 1.377 . S
C961 C962 1.379 . S
C962 H946 0.931 . S
C962 C956 1.383 . S
C962 C961 1.379 . S
H963 C957 0.959 . S
H964 C957 0.961 . S
H965 C957 0.960 . S
H966 C958 0.930 . S
H967 C959 0.929 . S
H968 C976 0.929 . S
H969 C978 0.930 . S
H970 C980 0.930 . S
H971 C983 0.929 . S
H972 C986 0.930 . S
H973 C988 0.960 . S
H974 C988 0.960 . S
H975 C988 0.960 . S
C976 H968 0.929 . S
C976 C977 1.377 . S
C976 C978 1.384 . S
C977 C976 1.377 . S
C977 C983 1.390 . S
C978 H969 0.930 . S
C978 C976 1.384 . S
C978 C979 1.372 . S
C979 C978 1.372 . S
C979 C980 1.400 . S
C979 C984 1.490 . S
C980 H970 0.930 . S
C980 C979 1.400 . S
C980 C983 1.386 . S
H981 C997 0.930 . S
H982 C998 0.931 . S
C983 H971 0.929 . S
C983 C977 1.390 . S
C983 C980 1.386 . S
C984 C979 1.490 . S
C984 C986 1.395 . S
C984 C987 1.403 . S
H985 C991 0.930 . S
C986 H972 0.930 . S
C986 C984 1.395 . S
C986 C989 1.403 . S
C987 C984 1.403 . S
C987 C988 1.524 . S
C987 C991 1.400 . S
C988 H973 0.960 . S
C988 H974 0.960 . S
C988 H975 0.960 . S
C988 C987 1.524 . S
C989 C986 1.403 . S
C989 C990 1.392 . S
C989 C993 1.495 . S
C990 C989 1.392 . S
C990 C991 1.385 . S
C990 C992 1.478 . S
C991 H985 0.930 . S
C991 C987 1.400 . S
C991 C990 1.385 . S
C992 C990 1.478 . S
C992 C994 1.381 . S
C992 C998 1.383 . S
C993 C989 1.495 . S
C993 H999 0.959 . S
C993 H1000 0.961 . S
C993 H1001 0.960 . S
C994 C992 1.381 . S
C994 C995 1.394 . S
C994 H1002 0.930 . S
C995 C994 1.394 . S
C995 C996 1.383 . S
C995 H1003 0.929 . S
C996 C995 1.383 . S
C996 C997 1.377 . S
C997 H981 0.930 . S
C997 C996 1.377 . S
C997 C998 1.379 . S
C998 H982 0.931 . S
C998 C992 1.383 . S
C998 C997 1.379 . S
H999 C993 0.959 . S
H1000 C993 0.961 . S
H1001 C993 0.960 . S
H1002 C994 0.930 . S
H1003 C995 0.929 . S
H1004 C1012 0.929 . S
H1005 C1014 0.930 . S
H1006 C1016 0.930 . S
H1007 C1019 0.929 . S
H1008 C1022 0.930 . S
H1009 C1024 0.960 . S
H1010 C1024 0.960 . S
H1011 C1024 0.960 . S
C1012 H1004 0.929 . S
C1012 C1013 1.377 . S
C1012 C1014 1.384 . S
C1013 C1012 1.377 . S
C1013 C1019 1.390 . S
C1014 H1005 0.930 . S
C1014 C1012 1.384 . S
C1014 C1015 1.372 . S
C1015 C1014 1.372 . S
C1015 C1016 1.400 . S
C1015 C1020 1.490 . S
C1016 H1006 0.930 . S
C1016 C1015 1.400 . S
C1016 C1019 1.386 . S
H1017 C1033 0.930 . S
H1018 C1034 0.931 . S
C1019 H1007 0.929 . S
C1019 C1013 1.390 . S
C1019 C1016 1.386 . S
C1020 C1015 1.490 . S
C1020 C1022 1.395 . S
C1020 C1023 1.403 . S
H1021 C1027 0.930 . S
C1022 H1008 0.930 . S
C1022 C1020 1.395 . S
C1022 C1025 1.403 . S
C1023 C1020 1.403 . S
C1023 C1024 1.524 . S
C1023 C1027 1.400 . S
C1024 H1009 0.960 . S
C1024 H1010 0.960 . S
C1024 H1011 0.960 . S
C1024 C1023 1.524 . S
C1025 C1022 1.403 . S
C1025 C1026 1.392 . S
C1025 C1029 1.495 . S
C1026 C1025 1.392 . S
C1026 C1027 1.385 . S
C1026 C1028 1.478 . S
C1027 H1021 0.930 . S
C1027 C1023 1.400 . S
C1027 C1026 1.385 . S
C1028 C1026 1.478 . S
C1028 C1030 1.381 . S
C1028 C1034 1.383 . S
C1029 C1025 1.495 . S
C1029 H1035 0.959 . S
C1029 H1036 0.961 . S
C1029 H1037 0.960 . S
C1030 C1028 1.381 . S
C1030 C1031 1.394 . S
C1030 H1038 0.930 . S
C1031 C1030 1.394 . S
C1031 C1032 1.383 . S
C1031 H1039 0.929 . S
C1032 C1031 1.383 . S
C1032 C1033 1.377 . S
C1033 H1017 0.930 . S
C1033 C1032 1.377 . S
C1033 C1034 1.379 . S
C1034 H1018 0.931 . S
C1034 C1028 1.383 . S
C1034 C1033 1.379 . S
H1035 C1029 0.959 . S
H1036 C1029 0.961 . S
H1037 C1029 0.960 . S
H1038 C1030 0.930 . S
H1039 C1031 0.929 . S
H1040 C1048 0.929 . S
H1041 C1050 0.930 . S
H1042 C1052 0.930 . S
H1043 C1055 0.929 . S
H1044 C1058 0.930 . S
H1045 C1060 0.960 . S
H1046 C1060 0.960 . S
H1047 C1060 0.960 . S
C1048 H1040 0.929 . S
C1048 C1049 1.377 . S
C1048 C1050 1.384 . S
C1049 C1048 1.377 . S
C1049 C1055 1.390 . S
C1050 H1041 0.930 . S
C1050 C1048 1.384 . S
C1050 C1051 1.372 . S
C1051 C1050 1.372 . S
C1051 C1052 1.400 . S
C1051 C1056 1.490 . S
C1052 H1042 0.930 . S
C1052 C1051 1.400 . S
C1052 C1055 1.386 . S
H1053 C1069 0.930 . S
H1054 C1070 0.931 . S
C1055 H1043 0.929 . S
C1055 C1049 1.390 . S
C1055 C1052 1.386 . S
C1056 C1051 1.490 . S
C1056 C1058 1.395 . S
C1056 C1059 1.403 . S
H1057 C1063 0.930 . S
C1058 H1044 0.930 . S
C1058 C1056 1.395 . S
C1058 C1061 1.403 . S
C1059 C1056 1.403 . S
C1059 C1060 1.524 . S
C1059 C1063 1.400 . S
C1060 H1045 0.960 . S
C1060 H1046 0.960 . S
C1060 H1047 0.960 . S
C1060 C1059 1.524 . S
C1061 C1058 1.403 . S
C1061 C1062 1.392 . S
C1061 C1065 1.495 . S
C1062 C1061 1.392 . S
C1062 C1063 1.385 . S
C1062 C1064 1.478 . S
C1063 H1057 0.930 . S
C1063 C1059 1.400 . S
C1063 C1062 1.385 . S
C1064 C1062 1.478 . S
C1064 C1066 1.381 . S
C1064 C1070 1.383 . S
C1065 C1061 1.495 . S
C1065 H1071 0.959 . S
C1065 H1072 0.961 . S
C1065 H1073 0.960 . S
C1066 C1064 1.381 . S
C1066 C1067 1.394 . S
C1066 H1074 0.930 . S
C1067 C1066 1.394 . S
C1067 C1068 1.383 . S
C1067 H1075 0.929 . S
C1068 C1067 1.383 . S
C1068 C1069 1.377 . S
C1069 H1053 0.930 . S
C1069 C1068 1.377 . S
C1069 C1070 1.379 . S
C1070 H1054 0.931 . S
C1070 C1064 1.383 . S
C1070 C1069 1.379 . S
H1071 C1065 0.959 . S
H1072 C1065 0.961 . S
H1073 C1065 0.960 . S
H1074 C1066 0.930 . S
H1075 C1067 0.929 . S
H1076 C1084 0.929 . S
H1077 C1086 0.930 . S
H1078 C1088 0.930 . S
H1079 C1091 0.929 . S
H1080 C1094 0.930 . S
H1081 C1096 0.960 . S
H1082 C1096 0.960 . S
H1083 C1096 0.960 . S
C1084 H1076 0.929 . S
C1084 C1085 1.377 . S
C1084 C1086 1.384 . S
C1085 C1084 1.377 . S
C1085 C1091 1.390 . S
C1086 H1077 0.930 . S
C1086 C1084 1.384 . S
C1086 C1087 1.372 . S
C1087 C1086 1.372 . S
C1087 C1088 1.400 . S
C1087 C1092 1.490 . S
C1088 H1078 0.930 . S
C1088 C1087 1.400 . S
C1088 C1091 1.386 . S
H1089 C1105 0.930 . S
H1090 C1106 0.931 . S
C1091 H1079 0.929 . S
C1091 C1085 1.390 . S
C1091 C1088 1.386 . S
C1092 C1087 1.490 . S
C1092 C1094 1.395 . S
C1092 C1095 1.403 . S
H1093 C1099 0.930 . S
C1094 H1080 0.930 . S
C1094 C1092 1.395 . S
C1094 C1097 1.403 . S
C1095 C1092 1.403 . S
C1095 C1096 1.524 . S
C1095 C1099 1.400 . S
C1096 H1081 0.960 . S
C1096 H1082 0.960 . S
C1096 H1083 0.960 . S
C1096 C1095 1.524 . S
C1097 C1094 1.403 . S
C1097 C1098 1.392 . S
C1097 C1101 1.495 . S
C1098 C1097 1.392 . S
C1098 C1099 1.385 . S
C1098 C1100 1.478 . S
C1099 H1093 0.930 . S
C1099 C1095 1.400 . S
C1099 C1098 1.385 . S
C1100 C1098 1.478 . S
C1100 C1102 1.381 . S
C1100 C1106 1.383 . S
C1101 C1097 1.495 . S
C1101 H1107 0.959 . S
C1101 H1108 0.961 . S
C1101 H1109 0.960 . S
C1102 C1100 1.381 . S
C1102 C1103 1.394 . S
C1102 H1110 0.930 . S
C1103 C1102 1.394 . S
C1103 C1104 1.383 . S
C1103 H1111 0.929 . S
C1104 C1103 1.383 . S
C1104 C1105 1.377 . S
C1105 H1089 0.930 . S
C1105 C1104 1.377 . S
C1105 C1106 1.379 . S
C1106 H1090 0.931 . S
C1106 C1100 1.383 . S
C1106 C1105 1.379 . S
H1107 C1101 0.959 . S
H1108 C1101 0.961 . S
H1109 C1101 0.960 . S
H1110 C1102 0.930 . S
H1111 C1103 0.929 . S
C257 C4 1.094 . S
C276 C105 1.113 . S
C293 C16 1.311 . S
C312 C145 1.351 . S
C348 C170 1.864 . S
C329 C32 1.892 . S
C365 C43 2.263 . S
C384 C210 2.208 1_655 S
C420 C141 2.274 . S
C401 C5 2.222 . S
C456 C101 1.389 . S
C437 C21 1.361 . S
C492 C232 1.509 . S
C473 C27 1.511 . S
C528 C192 1.456 . S
C509 C37 1.469 . S
C545 C10 1.135 . S
C564 C234 1.152 . S
C600 C151 2.353 . S
C581 C26 2.388 . S
C617 C38 1.807 . S
C636 C111 1.793 . S
C653 C15 1.426 . S
C672 C194 1.458 . S
C708 C114 1.306 . S
C689 C48 1.289 . S
C725 C59 1.031 . S
C744 C154 1.031 . S
C761 C76 2.278 . S
C780 C191 2.212 . S
C797 C87 2.003 . S
C816 C231 1.963 . S
C833 C54 1.435 . S
C852 C152 1.463 . S
C888 C112 2.236 . S
C869 C60 2.190 . S
C924 C221 1.391 . S
C905 C71 1.417 . S
C960 C181 1.485 . S
C941 C82 1.503 . S
C977 C49 1.513 . S
C996 C225 1.529 . S
C1032 C130 1.733 . S
C1013 C70 1.757 . S
C1068 C90 2.313 . S
C1049 C81 2.354 . S
C1085 C65 1.130 . S
C1104 C185 1.125 . S
