# Generated by pormake.
# Topology anh, (6,3)-cn, num edge types: 1
# Building blocks:
#     Node 0, Type 0, BuildingBlock: CUKXOW_clean_sbu_0, # of connection points: 6
#     Node 1, Type 0, BuildingBlock: CUKXOW_clean_sbu_0, # of connection points: 6
#     Node 2, Type 0, BuildingBlock: CUKXOW_clean_sbu_0, # of connection points: 6
#     Node 3, Type 1, BuildingBlock: MIDCAF_clean_linker_0, # of connection points: 3
#     Node 4, Type 1, BuildingBlock: MIDCAF_clean_linker_0, # of connection points: 3
#     Node 5, Type 1, BuildingBlock: MIDCAF_clean_linker_0, # of connection points: 3
#     Node 6, Type 1, BuildingBlock: MIDCAF_clean_linker_0, # of connection points: 3
#     Node 7, Type 1, BuildingBlock: MIDCAF_clean_linker_0, # of connection points: 3
#     Node 8, Type 1, BuildingBlock: MIDCAF_clean_linker_0, # of connection points: 3
#     Edge 9, Type (0, 1), BuildingBlock: AJUNOK_clean_linker_0, # of connection points: 2
#     Edge 10, Type (0, 1), BuildingBlock: AJUNOK_clean_linker_0, # of connection points: 2
#     Edge 11, Type (0, 1), BuildingBlock: AJUNOK_clean_linker_0, # of connection points: 2
#     Edge 12, Type (0, 1), BuildingBlock: AJUNOK_clean_linker_0, # of connection points: 2
#     Edge 13, Type (0, 1), BuildingBlock: AJUNOK_clean_linker_0, # of connection points: 2
#     Edge 14, Type (0, 1), BuildingBlock: AJUNOK_clean_linker_0, # of connection points: 2
#     Edge 15, Type (0, 1), BuildingBlock: AJUNOK_clean_linker_0, # of connection points: 2
#     Edge 16, Type (0, 1), BuildingBlock: AJUNOK_clean_linker_0, # of connection points: 2
#     Edge 17, Type (0, 1), BuildingBlock: AJUNOK_clean_linker_0, # of connection points: 2
#     Edge 18, Type (0, 1), BuildingBlock: AJUNOK_clean_linker_0, # of connection points: 2
#     Edge 19, Type (0, 1), BuildingBlock: AJUNOK_clean_linker_0, # of connection points: 2
#     Edge 20, Type (0, 1), BuildingBlock: AJUNOK_clean_linker_0, # of connection points: 2
#     Edge 21, Type (0, 1), BuildingBlock: AJUNOK_clean_linker_0, # of connection points: 2
#     Edge 22, Type (0, 1), BuildingBlock: AJUNOK_clean_linker_0, # of connection points: 2
#     Edge 23, Type (0, 1), BuildingBlock: AJUNOK_clean_linker_0, # of connection points: 2
#     Edge 24, Type (0, 1), BuildingBlock: AJUNOK_clean_linker_0, # of connection points: 2
#     Edge 25, Type (0, 1), BuildingBlock: AJUNOK_clean_linker_0, # of connection points: 2
#     Edge 26, Type (0, 1), BuildingBlock: AJUNOK_clean_linker_0, # of connection points: 2
# Relax obj value: 0.137
# Max RMSD: 0.194
# Mean RMSD: 0.141
data_MOF--net-anh--node1-CUKXOW_clean_sbu_0--node2-MIDCAF_clean_linker_0--edge1-AJUNOK_clean_linker_0
_symmetry_space_group_name_H-M    P1
_symmetry_Int_Tables_number       1
_symmetry_cell_setting            triclinic
loop_
_symmetry_equiv_pos_as_xyz
'x, y, z'
_cell_length_a     26.89713
_cell_length_b     26.235932
_cell_length_c     51.177802
_cell_angle_alpha  94.956053
_cell_angle_beta   90.564043
_cell_angle_gamma 112.85135
loop_
_atom_site_label
_atom_site_type_symbol
_atom_site_fract_x
_atom_site_fract_y
_atom_site_fract_z
_atom_type_partial_charge
Tb0 Tb 0.08479 0.57938 0.15934 0.0
C1 C 0.0528 0.52062 0.21036 0.0
Tb2 Tb 1.01926 0.45186 0.15448 0.0
O3 O 1.01237 0.59535 0.16956 0.0
O4 O 1.00406 0.52354 0.14691 0.0
O5 O 0.08899 0.56257 0.19965 0.0
C6 C 0.93155 0.35903 0.15643 0.0
O7 O 1.01835 0.47582 0.19631 0.0
C8 C 0.12511 0.47454 0.16015 0.0
C9 C 0.06625 0.50975 0.10446 0.0
O10 O 0.94422 0.40431 0.17199 0.0
O11 O 0.96861 0.36567 0.13934 0.0
O12 O 0.08748 0.42453 0.15736 0.0
O13 O 0.10045 0.50693 0.16038 0.0
O14 O 1.02528 0.46841 0.11342 0.0
O15 O 0.09964 0.55308 0.11989 0.0
C16 C 0.16064 0.68215 0.16142 0.0
O17 O 0.12856 0.65648 0.14111 0.0
O18 O 0.14961 0.65008 0.18025 0.0
C19 C 0.97758 0.54781 0.15918 0.0
Tb20 Tb 0.50074 0.97524 0.49263 0.0
C21 C 0.56416 0.00807 0.44182 0.0
Tb22 Tb 0.62614 0.04868 0.49746 0.0
O23 O 0.48242 0.04223 0.47794 0.0
O24 O 0.55226 0.06049 0.50107 0.0
O25 O 0.52243 0.97 0.45204 0.0
C26 C 0.72034 0.13556 0.49965 0.0
O27 O 0.60414 0.04766 0.45623 0.0
C28 C 0.6051 0.9407 0.49568 0.0
C29 C 0.56506 0.00982 0.5489 0.0
O30 O 0.70656 0.09126 0.48327 0.0
O31 O 0.68098 0.1309 0.515 0.0
O32 O 0.65371 0.97909 0.49811 0.0
O33 O 0.57391 0.96563 0.49426 0.0
O34 O 0.61037 0.04284 0.53883 0.0
O35 O 0.52016 0.97907 0.53453 0.0
C36 C 0.40475 0.89229 0.49352 0.0
O37 O 0.41783 0.9418 0.5055 0.0
O38 O 0.44543 0.88998 0.48075 0.0
C39 C 0.52798 0.08134 0.48677 0.0
Tb40 Tb 0.51824 0.50425 0.82197 0.0
C41 C 0.56636 0.53714 0.87892 0.0
Tb42 Tb 0.64094 0.558 0.83103 0.0
O43 O 0.51499 0.43016 0.83919 0.0
O44 O 0.5828 0.47625 0.8194 0.0
O45 O 0.52564 0.53503 0.86333 0.0
C46 C 0.74532 0.58257 0.83952 0.0
O47 O 0.61125 0.53474 0.86945 0.0
C48 C 0.60288 0.63681 0.8301 0.0
C49 C 0.59354 0.52888 0.77289 0.0
O50 O 0.71612 0.60173 0.85399 0.0
O51 O 0.71524 0.54723 0.82075 0.0
O52 O 0.65364 0.64588 0.83208 0.0
O53 O 0.57742 0.58493 0.82792 0.0
O54 O 0.63756 0.55269 0.78854 0.0
O55 O 0.54432 0.50503 0.78169 0.0
C56 C 0.41801 0.48176 0.80388 0.0
O57 O 0.45971 0.52686 0.80134 0.0
O58 O 0.43246 0.44992 0.81746 0.0
C59 C 0.56355 0.43598 0.83323 0.0
C60 C 0.35722 0.92838 0.19219 0.0
C61 C 0.35206 0.88649 0.17208 0.0
C62 C 0.39847 0.88735 0.15933 0.0
C63 C 0.44962 0.92658 0.1682 0.0
H64 H 0.61047 0.0906 0.15739 0.0
H65 H 0.69218 0.15983 0.14094 0.0
H66 H 0.78428 0.1542 0.20928 0.0
H67 H 0.70385 0.08561 0.2257 0.0
H68 H 0.62767 0.0966 0.2813 0.0
H69 H 0.62992 0.09403 0.3288 0.0
H70 H 0.49574 0.93432 0.32048 0.0
H71 H 0.49152 0.93855 0.27314 0.0
H72 H 0.41113 0.99608 0.21809 0.0
H73 H 0.32207 0.92899 0.20216 0.0
H74 H 0.39571 0.85511 0.14398 0.0
H75 H 0.48519 0.92401 0.15944 0.0
N76 N 0.55273 0.02283 0.19176 0.0
N77 N 0.60223 0.04812 0.23226 0.0
N78 N 0.50979 0.99355 0.23078 0.0
C79 C 0.60058 0.04975 0.20579 0.0
C80 C 0.55715 0.01988 0.24484 0.0
C81 C 0.50718 0.99494 0.20437 0.0
C82 C 0.65041 0.08342 0.19311 0.0
C83 C 0.64843 0.1031 0.16855 0.0
C84 C 0.69508 0.14247 0.15907 0.0
C85 C 0.74409 0.1623 0.17401 0.0
C86 C 0.74676 0.13963 0.19753 0.0
C87 C 0.70054 0.10057 0.20695 0.0
C88 C 0.55948 0.01775 0.27354 0.0
C89 C 0.59881 0.06088 0.28965 0.0
C90 C 0.6004 0.05913 0.31684 0.0
C91 C 0.56363 0.01346 0.32843 0.0
C92 C 0.52445 0.97024 0.31222 0.0
C93 C 0.52211 0.97258 0.2851 0.0
C94 C 0.45474 0.96464 0.19011 0.0
C95 C 0.40809 0.96675 0.20127 0.0
C96 C 0.61624 0.34809 0.51887 0.0
C97 C 0.57789 0.3195 0.49837 0.0
C98 C 0.55018 0.34815 0.48649 0.0
C99 C 0.55752 0.40246 0.49643 0.0
H100 H 0.59343 0.59763 0.4874 0.0
H101 H 0.58994 0.68341 0.47298 0.0
H102 H 0.55232 0.72769 0.55131 0.0
H103 H 0.55349 0.64286 0.56525 0.0
H104 H 0.60811 0.61249 0.61243 0.0
H105 H 0.61181 0.61322 0.66013 0.0
H106 H 0.59732 0.4429 0.65235 0.0
H107 H 0.59352 0.44162 0.60463 0.0
H108 H 0.65153 0.42132 0.54543 0.0
H109 H 0.6384 0.32768 0.52852 0.0
H110 H 0.52137 0.32788 0.47016 0.0
H111 H 0.53322 0.42217 0.48806 0.0
N112 N 0.58336 0.52095 0.52242 0.0
N113 N 0.58787 0.56673 0.56457 0.0
N114 N 0.59775 0.48219 0.56019 0.0
C115 C 0.58165 0.56529 0.5381 0.0
C116 C 0.59576 0.52552 0.57577 0.0
C117 C 0.59182 0.47926 0.53367 0.0
C118 C 0.57401 0.61312 0.52751 0.0
C119 C 0.58317 0.62514 0.50129 0.0
C120 C 0.58144 0.67437 0.49309 0.0
C121 C 0.56998 0.71212 0.51088 0.0
C122 C 0.55956 0.69907 0.5368 0.0
C123 C 0.56109 0.65036 0.5449 0.0
C124 C 0.60047 0.52698 0.60467 0.0
C125 C 0.60605 0.57524 0.62082 0.0
C126 C 0.60854 0.57588 0.64811 0.0
C127 C 0.60524 0.52824 0.65975 0.0
C128 C 0.59999 0.48012 0.64373 0.0
C129 C 0.59798 0.47957 0.61644 0.0
C130 C 0.59276 0.42892 0.51837 0.0
C131 C 0.62357 0.40191 0.52868 0.0
C132 C 0.99169 0.68586 0.88181 0.0
C133 C 0.9766 0.67281 0.85496 0.0
C134 C 1.01436 0.66795 0.83724 0.0
C135 C 0.06222 0.66572 0.84666 0.0
H136 H 0.15698 0.58498 0.82182 0.0
H137 H 0.19985 0.53876 0.79172 0.0
H138 H 0.23979 0.46412 0.85655 0.0
H139 H 0.19647 0.50843 0.88618 0.0
H140 H 0.17919 0.54425 0.94437 0.0
H141 H 0.16173 0.513 0.98825 0.0
H142 H 0.04536 0.58839 -0.00232 0.0
H143 H 0.06236 0.61978 0.954 0.0
H144 H 0.04748 0.68892 0.91226 0.0
H145 H 0.96382 0.69094 0.89594 0.0
H146 H 1.00452 0.66033 0.81631 0.0
H147 H 0.08784 0.6557 0.83268 0.0
N148 N 0.13041 0.61657 0.86684 0.0
N149 N 0.15193 0.57404 0.90115 0.0
N150 N 0.10689 0.63354 0.90966 0.0
C151 C 0.1528 0.5824 0.87534 0.0
C152 C 0.12919 0.59958 0.91845 0.0
C153 C 0.10768 0.64268 0.88393 0.0
C154 C 0.1743 0.55128 0.85651 0.0
C155 C 0.17402 0.55778 0.8295 0.0
C156 C 0.19797 0.53093 0.81221 0.0
C157 C 0.22241 0.49717 0.82166 0.0
C158 C 0.21983 0.48835 0.84839 0.0
C159 C 0.19592 0.51489 0.86558 0.0
C160 C 0.12213 0.58447 0.94567 0.0
C161 C 0.14994 0.55428 0.9558 0.0
C162 C 0.13991 0.53621 0.9808 0.0
C163 C 0.10145 0.54739 -0.0041 0.0
C164 C 0.07427 0.57821 0.98604 0.0
C165 C 0.08462 0.59676 0.96119 0.0
C166 C 0.07262 0.66873 0.87386 0.0
C167 C 0.03972 0.68435 0.8912 0.0
C168 C 0.15799 0.72636 0.46839 0.0
C169 C 0.192 0.71669 0.48649 0.0
C170 C 0.17614 0.66405 0.49576 0.0
C171 C 0.1288 0.62048 0.48547 0.0
H172 H 0.97537 0.47183 0.49677 0.0
H173 H 0.91676 0.38557 0.51432 0.0
H174 H 0.86587 0.3083 0.43541 0.0
H175 H 0.92377 0.39297 0.41782 0.0
H176 H 0.94757 0.4697 0.36973 0.0
H177 H 0.95449 0.46722 0.32211 0.0
H178 H 0.11297 0.59974 0.33227 0.0
H179 H 0.10523 0.60399 0.3796 0.0
H180 H 0.08775 0.69035 0.44246 0.0
H181 H 0.16961 0.7666 0.46091 0.0
H182 H 0.20195 0.65593 0.50978 0.0
H183 H 0.1191 0.5793 0.49157 0.0
N184 N 1.02451 0.53532 0.46032 0.0
N185 N 0.98969 0.49229 0.41819 0.0
N186 N 0.05625 0.58232 0.42302 0.0
C187 C 0.99005 0.49063 0.44466 0.0
C188 C 1.0228 0.53783 0.40724 0.0
C189 C 0.05713 0.58157 0.44947 0.0
C190 C 0.95461 0.43939 0.45586 0.0
C191 C 0.95184 0.43635 0.48318 0.0
C192 C 0.9184 0.38716 0.49326 0.0
C193 C 0.88783 0.34022 0.47617 0.0
C194 C 0.89015 0.34352 0.44899 0.0
C195 C 0.92311 0.39237 0.43895 0.0
C196 C 1.02561 0.5374 0.37842 0.0
C197 C 0.98362 0.49868 0.36176 0.0
C198 C 0.98767 0.49706 0.33453 0.0
C199 C 0.03397 0.53375 0.32347 0.0
C200 C 0.0761 0.57206 0.34016 0.0
C201 C 0.07174 0.57428 0.36732 0.0
C202 C 0.0976 0.62905 0.46548 0.0
C203 C 0.11138 0.68276 0.45779 0.0
C204 C 0.54956 0.18209 0.82795 0.0
C205 C 0.59411 0.22906 0.82159 0.0
C206 C 0.63481 0.22062 0.80702 0.0
C207 C 0.62918 0.16706 0.79743 0.0
H208 H 0.58404 0.95934 0.83416 0.0
H209 H 0.58586 0.87452 0.84987 0.0
H210 H 0.48953 0.77787 0.78145 0.0
H211 H 0.48821 0.86245 0.76543 0.0
H212 H 0.54701 0.92436 0.71171 0.0
H213 H 0.5491 0.92133 0.66398 0.0
H214 H 0.58127 0.09644 0.66863 0.0
H215 H 0.5804 0.10017 0.7163 0.0
H216 H 0.50875 0.09318 0.82296 0.0
H217 H 0.51652 0.18666 0.83839 0.0
H218 H 0.66993 0.25561 0.802 0.0
H219 H 0.65953 0.16198 0.78492 0.0
N220 N 0.55853 0.01898 0.80029 0.0
N221 N 0.54803 0.96752 0.75917 0.0
N222 N 0.5741 0.06385 0.76157 0.0
C223 C 0.54649 0.96923 0.78576 0.0
C224 C 0.56173 0.0146 0.74692 0.0
C225 C 0.57237 0.06639 0.7881 0.0
C226 C 0.53667 0.91767 0.79838 0.0
C227 C 0.56171 0.91984 0.8229 0.0
C228 C 0.56272 0.87137 0.83192 0.0
C229 C 0.53774 0.81989 0.81684 0.0
C230 C 0.50852 0.81699 0.79354 0.0
C231 C 0.50826 0.8655 0.78431 0.0
C232 C 0.56328 0.01246 0.71792 0.0
C233 C 0.55449 0.96227 0.70262 0.0
C234 C 0.55538 0.96039 0.67526 0.0
C235 C 0.56471 0.00852 0.66264 0.0
C236 C 0.57414 0.05876 0.67789 0.0
C237 C 0.57343 0.06075 0.70521 0.0
C238 C 0.58358 0.12067 0.80286 0.0
C239 C 0.54478 0.12836 0.81898 0.0
C240 C 0.72543 0.48983 0.1148 0.0
C241 C 0.74738 0.50876 0.14053 0.0
C242 C 0.71541 0.52513 0.15861 0.0
C243 C 0.66375 0.52325 0.15092 0.0
H244 H 0.45206 0.46291 0.15797 0.0
H245 H 0.36303 0.45715 0.17259 0.0
H246 H 0.36286 0.57273 0.11755 0.0
H247 H 0.45102 0.57989 0.10396 0.0
H248 H 0.48093 0.54811 0.0447 0.0
H249 H 0.48377 0.55597 -0.00268 0.0
H250 H 0.61281 0.49691 -0.00681 0.0
H251 H 0.61115 0.49028 0.04022 0.0
H252 H 0.6604 0.4728 0.08705 0.0
H253 H 0.74861 0.47887 0.09981 0.0
H254 H 0.73064 0.54014 0.17865 0.0
H255 H 0.64133 0.5378 0.16504 0.0
N256 N 0.55064 0.51297 0.12856 0.0
N257 N 0.50678 0.52072 0.08969 0.0
N258 N 0.58933 0.51167 0.08755 0.0
C259 C 0.50733 0.51852 0.11616 0.0
C260 C 0.54725 0.51703 0.07526 0.0
C261 C 0.59236 0.50972 0.11391 0.0
C262 C 0.45935 0.52217 0.12987 0.0
C263 C 0.43377 0.48852 0.14973 0.0
C264 C 0.38228 0.48473 0.15784 0.0
C265 C 0.35524 0.51487 0.14651 0.0
C266 C 0.3822 0.54997 0.12743 0.0
C267 C 0.43309 0.55369 0.11942 0.0
C268 C 0.54633 0.51931 0.04639 0.0
C269 C 0.50987 0.53677 0.03367 0.0
C270 C 0.51137 0.54118 0.00655 0.0
C271 C 0.5493 0.52821 0.99169 0.0
C272 C 0.58426 0.50884 0.00426 0.0
C273 C 0.58306 0.50479 0.03125 0.0
C274 C 0.64274 0.50512 0.12488 0.0
C275 C 0.67432 0.48731 0.10731 0.0
C276 C 0.20301 0.44375 0.15708 0.0
C277 C 0.18474 0.48762 0.15878 0.0
C278 C 0.25796 0.45307 0.15415 0.0
C279 C 0.29777 0.50686 0.1527 0.0
H280 H 0.17432 0.40131 0.15751 0.0
H281 H 0.26894 0.4174 0.1521 0.0
S282 S 0.27242 0.637 0.15829 0.0
N283 N 0.2119 0.58738 0.16001 0.0
N284 N 0.31475 0.60534 0.15515 0.0
C285 C 0.28027 0.55139 0.15525 0.0
C286 C 0.22413 0.54172 0.15814 0.0
C287 C 0.76996 0.23808 0.50886 0.0
C288 C 0.76858 0.18665 0.49764 0.0
C289 C 0.8109 0.28808 0.50318 0.0
C290 C 0.85159 0.28796 0.48617 0.0
H291 H 0.73765 0.23989 0.52089 0.0
H292 H 0.80892 0.32698 0.5109 0.0
S293 S 0.87072 0.16413 0.4553 0.0
N294 N 0.81463 0.13844 0.47126 0.0
N295 N 0.89182 0.23235 0.46086 0.0
C296 C 0.85274 0.23672 0.47644 0.0
C297 C 0.81111 0.18601 0.48211 0.0
C298 C 0.62119 0.73474 0.82407 0.0
C299 C 0.58287 0.68145 0.82772 0.0
C300 C 0.60595 0.77925 0.82148 0.0
C301 C 0.55167 0.77243 0.8223 0.0
H302 H 0.66362 0.74226 0.82284 0.0
H303 H 0.63688 0.81912 0.81808 0.0
S304 S 0.43599 0.64346 0.8343 0.0
N305 N 0.48865 0.62575 0.83448 0.0
N306 N 0.45948 0.7095 0.82846 0.0
C307 C 0.51276 0.71985 0.82646 0.0
C308 C 0.5285 0.67434 0.8295 0.0
C309 C 0.89588 0.57159 0.1668 0.0
C310 C 0.91793 0.5343 0.15564 0.0
C311 C 0.84077 0.56211 0.16273 0.0
C312 C 0.80455 0.51453 0.14743 0.0
H313 H 0.92176 0.60939 0.17838 0.0
H314 H 0.82699 0.59349 0.17095 0.0
S315 S 0.84041 0.40065 0.11598 0.0
N316 N 0.8982 0.44654 0.12948 0.0
N317 N 0.79481 0.42675 0.12319 0.0
C318 C 0.82573 0.47558 0.13716 0.0
C319 C 0.8821 0.48589 0.14091 0.0
C320 C 0.30716 0.85605 0.50346 0.0
C321 C 0.35177 0.84596 0.49404 0.0
C322 C 0.25552 0.81332 0.50217 0.0
C323 C 0.24725 0.75898 0.49204 0.0
H324 H 0.31177 0.8976 0.51099 0.0
H325 H 0.22161 0.82305 0.50849 0.0
S326 S 0.35122 0.7104 0.46619 0.0
N327 N 0.3846 0.77734 0.47501 0.0
N328 N 0.28785 0.69689 0.47324 0.0
C329 C 0.29189 0.74793 0.4836 0.0
C330 C 0.34415 0.79151 0.48442 0.0
C331 C 0.60346 0.37401 0.81036 0.0
C332 C 0.58082 0.38906 0.8328 0.0
C333 C 0.60987 0.32329 0.80746 0.0
C334 C 0.59477 0.28618 0.82712 0.0
H335 H 0.61309 0.39983 0.7942 0.0
H336 H 0.62404 0.3119 0.78902 0.0
S337 S 0.54304 0.31226 0.89177 0.0
N338 N 0.54883 0.3667 0.87618 0.0
N339 N 0.56348 0.27267 0.87147 0.0
C340 C 0.57607 0.30319 0.85055 0.0
C341 C 0.56853 0.35432 0.85322 0.0
C342 C 0.62792 0.85724 0.48801 0.0
C343 C 0.59121 0.88045 0.4969 0.0
C344 C 0.61906 0.8017 0.49111 0.0
C345 C 0.57341 0.76731 0.50356 0.0
H346 H 0.66452 0.88263 0.47908 0.0
H347 H 0.64959 0.78649 0.48486 0.0
S348 S 0.46476 0.80804 0.53023 0.0
N349 N 0.50754 0.86477 0.51866 0.0
N350 N 0.48974 0.76017 0.5238 0.0
C351 C 0.53546 0.78962 0.51176 0.0
C352 C 0.54462 0.8462 0.50862 0.0
C353 C 0.83188 0.65879 0.85476 0.0
C354 C 0.80439 0.60578 0.84143 0.0
C355 C 0.88818 0.68236 0.85727 0.0
C356 C 0.91886 0.65333 0.84684 0.0
H357 H 0.80975 0.6822 0.86352 0.0
H358 H 0.9078 0.72273 0.86826 0.0
S359 S 0.86537 0.51311 0.80982 0.0
N360 N 0.81115 0.52568 0.81678 0.0
N361 N 0.9173 0.56861 0.8224 0.0
C362 C 0.89169 0.60076 0.83276 0.0
C363 C 0.83428 0.57722 0.82989 0.0
C364 C 0.23033 0.76164 0.18771 0.0
C365 C 0.20599 0.73681 0.16294 0.0
C366 C 0.27648 0.81081 0.19027 0.0
C367 C 0.30047 0.83709 0.16814 0.0
H368 H 0.21421 0.74238 0.20535 0.0
H369 H 0.29456 0.82738 0.20978 0.0
S370 S 0.25148 0.78975 0.09881 0.0
N371 N 0.20812 0.74254 0.11577 0.0
N372 N 0.29565 0.83553 0.1206 0.0
C373 C 0.2761 0.81329 0.1432 0.0
C374 C 0.22851 0.76311 0.1406 0.0
C375 C 0.59347 0.18068 0.48797 0.0
C376 C 0.53992 0.14161 0.48703 0.0
C377 C 0.60542 0.23807 0.49017 0.0
C378 C 0.56416 0.25875 0.49159 0.0
H379 H 0.6264 0.16685 0.48699 0.0
H380 H 0.64743 0.26653 0.4913 0.0
S381 S 0.41683 0.17309 0.48923 0.0
N382 N 0.44506 0.12725 0.48662 0.0
N383 N 0.46721 0.23468 0.49142 0.0
C384 C 0.51027 0.21982 0.48975 0.0
C385 C 0.49822 0.16142 0.48729 0.0
C386 C 0.35255 0.52083 0.79082 0.0
C387 C 0.36215 0.47508 0.79829 0.0
C388 C 0.30265 0.52433 0.79472 0.0
C389 C 0.26103 0.4818 0.80589 0.0
H390 H 0.38528 0.55676 0.7847 0.0
H391 H 0.29929 0.56341 0.79205 0.0
S392 S 0.26031 0.3449 0.81904 0.0
N393 N 0.32245 0.38046 0.81047 0.0
N394 N 0.22758 0.38633 0.81697 0.0
C395 C 0.26721 0.43173 0.80865 0.0
C396 C 0.31833 0.42854 0.80512 0.0
C397 C 0.85343 0.3065 0.18176 0.0
C398 C 0.88304 0.3084 0.15913 0.0
C399 C 0.80823 0.25919 0.186 0.0
C400 C 0.7904 0.21207 0.16765 0.0
H401 H 0.86569 0.34157 0.19664 0.0
H402 H 0.7871 0.25934 0.20391 0.0
S403 S 0.85174 0.19653 0.10455 0.0
N404 N 0.89039 0.25971 0.11764 0.0
N405 N 0.80425 0.17039 0.12557 0.0
C406 C 0.81849 0.21366 0.14455 0.0
C407 C 0.86523 0.26194 0.14032 0.0
C408 C 0.12675 0.53825 0.06752 0.0
C409 C 0.07436 0.51053 0.07611 0.0
C410 C 0.1354 0.54751 0.04118 0.0
C411 C 0.09187 0.52999 0.02263 0.0
H412 H 0.16125 0.5544 0.0814 0.0
H413 H 0.17613 0.57084 0.03552 0.0
S414 S 0.94752 0.45158 0.03457 0.0
N415 N 0.97877 0.46226 0.06371 0.0
N416 N 0.99515 0.48019 0.01399 0.0
C417 C 0.03958 0.49998 0.03066 0.0
C418 C 0.03079 0.48994 0.05748 0.0
C419 C 0.51648 0.99186 0.39795 0.0
C420 C 0.56507 0.00817 0.413 0.0
C421 C 0.51647 0.99378 0.37068 0.0
C422 C 0.56501 0.01128 0.35737 0.0
H423 H 0.4782 0.97877 0.40736 0.0
H424 H 0.4781 0.98231 0.36001 0.0
S425 S 0.70282 0.05297 0.38775 0.0
N426 N 0.66278 0.03982 0.41271 0.0
N427 N 0.66278 0.04136 0.36133 0.0
C428 C 0.61384 0.02628 0.37221 0.0
C429 C 0.61385 0.02518 0.40004 0.0
C430 C 0.55861 0.48796 0.72726 0.0
C431 C 0.5991 0.52827 0.74416 0.0
C432 C 0.56159 0.48757 0.69997 0.0
C433 C 0.60475 0.52791 0.68859 0.0
H434 H 0.52421 0.45641 0.73513 0.0
H435 H 0.52925 0.45619 0.68766 0.0
S436 S 0.72168 0.64176 0.72385 0.0
N437 N 0.68435 0.60908 0.74737 0.0
N438 N 0.68949 0.60825 0.69596 0.0
C439 C 0.64578 0.56808 0.70513 0.0
C440 C 0.64313 0.56821 0.73295 0.0
C441 C 0.60705 0.04654 0.5941 0.0
C442 C 0.5644 0.00741 0.5778 0.0
C443 C 0.60698 0.0463 0.62145 0.0
C444 C 0.56451 0.0067 0.63361 0.0
H445 H 0.64065 0.07818 0.58578 0.0
H446 H 0.64059 0.07732 0.6332 0.0
S447 S 0.44329 0.89485 0.60022 0.0
N448 N 0.47857 0.92729 0.57613 0.0
N449 N 0.47855 0.92755 0.62753 0.0
C450 C 0.52186 0.96701 0.61768 0.0
C451 C 0.52174 0.96724 0.5898 0.0
C452 C 0.51105 0.51509 0.91879 0.0
C453 C 0.56156 0.53984 0.90775 0.0
C454 C 0.50699 0.5127 0.94607 0.0
C455 C 0.55328 0.53524 0.96318 0.0
H456 H 0.47467 0.49565 0.90625 0.0
H457 H 0.46761 0.49147 0.95373 0.0
S458 S 0.69383 0.61213 0.94438 0.0
N459 N 0.65804 0.59223 0.91625 0.0
N460 N 0.65026 0.58855 0.96732 0.0
C461 C 0.60356 0.56265 0.95243 0.0
C462 C 0.60773 0.56475 0.92477 0.0
C463 C 1.02996 0.47661 0.25236 0.0
C464 C 0.04928 0.52491 0.23915 0.0
C465 C 1.02511 0.47981 0.27962 0.0
C466 C 0.03879 0.53138 0.29459 0.0
H467 H 1.01901 0.43606 0.24161 0.0
H468 H 1.01109 0.44164 0.28908 0.0
S469 S 0.08634 0.66969 0.26896 0.0
N470 N 0.0796 0.62563 0.24283 0.0
N471 N 0.06901 0.63148 0.29392 0.0
C472 C 0.05711 0.5799 0.28151 0.0
C473 C 0.0627 0.5767 0.25383 0.0
loop_
_geom_bond_atom_site_label_1
_geom_bond_atom_site_label_2
_geom_bond_distance
_geom_bond_site_symmetry_2
_ccdc_geom_bond_type
Tb0 O3 2.453 1_455 S
Tb0 O4 2.596 1_455 S
Tb0 O5 2.374 . S
Tb0 O13 2.343 . S
Tb0 O15 2.353 . S
Tb0 O17 2.427 . S
Tb0 O18 2.513 . S
C1 O5 1.251 . S
C1 O7 1.263 . S
Tb2 O4 2.343 1_455 S
Tb2 O7 2.353 . S
Tb2 O10 2.427 1_455 S
Tb2 O11 2.513 1_455 S
Tb2 O12 2.453 . S
Tb2 O13 2.596 . S
Tb2 O14 2.374 . S
O3 Tb0 2.453 1_655 S
O3 C19 1.245 . S
O4 Tb0 2.596 1_655 S
O4 Tb2 2.343 1_655 S
O4 C19 1.259 . S
O5 Tb0 2.374 . S
O5 C1 1.251 . S
C6 O10 1.275 . S
C6 O11 1.246 . S
O7 C1 1.263 . S
O7 Tb2 2.353 . S
C8 O12 1.245 . S
C8 O13 1.259 . S
C9 O14 1.250 . S
C9 O15 1.263 . S
O10 Tb2 2.427 1_655 S
O10 C6 1.275 . S
O11 Tb2 2.513 1_655 S
O11 C6 1.246 . S
O12 Tb2 2.453 . S
O12 C8 1.245 . S
O13 Tb0 2.343 . S
O13 Tb2 2.596 . S
O13 C8 1.259 . S
O14 Tb2 2.374 . S
O14 C9 1.250 . S
O15 Tb0 2.353 . S
O15 C9 1.263 . S
C16 O17 1.275 . S
C16 O18 1.246 . S
O17 Tb0 2.427 . S
O17 C16 1.275 . S
O18 Tb0 2.513 . S
O18 C16 1.246 . S
C19 O3 1.245 . S
C19 O4 1.259 . S
Tb20 O23 2.453 . S
Tb20 O24 2.596 . S
Tb20 O25 2.374 . S
Tb20 O33 2.343 1_545 S
Tb20 O35 2.353 . S
Tb20 O37 2.427 1_545 S
Tb20 O38 2.513 1_545 S
C21 O25 1.251 . S
C21 O27 1.263 . S
Tb22 O24 2.343 . S
Tb22 O27 2.353 . S
Tb22 O30 2.427 . S
Tb22 O31 2.513 . S
Tb22 O32 2.453 1_545 S
Tb22 O33 2.596 1_545 S
Tb22 O34 2.374 . S
O23 Tb20 2.453 . S
O23 C39 1.245 . S
O24 Tb20 2.596 . S
O24 Tb22 2.343 . S
O24 C39 1.259 . S
O25 Tb20 2.374 . S
O25 C21 1.251 . S
C26 O30 1.275 . S
C26 O31 1.246 . S
O27 C21 1.263 . S
O27 Tb22 2.353 . S
C28 O32 1.245 . S
C28 O33 1.259 . S
C29 O34 1.250 . S
C29 O35 1.263 . S
O30 Tb22 2.427 . S
O30 C26 1.275 . S
O31 Tb22 2.513 . S
O31 C26 1.246 . S
O32 Tb22 2.453 1_565 S
O32 C28 1.245 . S
O33 Tb20 2.343 1_565 S
O33 Tb22 2.596 1_565 S
O33 C28 1.259 . S
O34 Tb22 2.374 . S
O34 C29 1.250 . S
O35 Tb20 2.353 . S
O35 C29 1.263 . S
C36 O37 1.275 . S
C36 O38 1.246 . S
O37 Tb20 2.427 1_565 S
O37 C36 1.275 . S
O38 Tb20 2.513 1_565 S
O38 C36 1.246 . S
C39 O23 1.245 . S
C39 O24 1.259 . S
Tb40 O43 2.453 . S
Tb40 O44 2.596 . S
Tb40 O45 2.374 . S
Tb40 O53 2.343 . S
Tb40 O55 2.353 . S
Tb40 O57 2.427 . S
Tb40 O58 2.513 . S
C41 O45 1.251 . S
C41 O47 1.263 . S
Tb42 O44 2.343 . S
Tb42 O47 2.353 . S
Tb42 O50 2.427 . S
Tb42 O51 2.513 . S
Tb42 O52 2.453 . S
Tb42 O53 2.596 . S
Tb42 O54 2.374 . S
O43 Tb40 2.453 . S
O43 C59 1.245 . S
O44 Tb40 2.596 . S
O44 Tb42 2.343 . S
O44 C59 1.259 . S
O45 Tb40 2.374 . S
O45 C41 1.251 . S
C46 O50 1.275 . S
C46 O51 1.246 . S
O47 C41 1.263 . S
O47 Tb42 2.353 . S
C48 O52 1.245 . S
C48 O53 1.259 . S
C49 O54 1.250 . S
C49 O55 1.263 . S
O50 Tb42 2.427 . S
O50 C46 1.275 . S
O51 Tb42 2.513 . S
O51 C46 1.246 . S
O52 Tb42 2.453 . S
O52 C48 1.245 . S
O53 Tb40 2.343 . S
O53 Tb42 2.596 . S
O53 C48 1.259 . S
O54 Tb42 2.374 . S
O54 C49 1.250 . S
O55 Tb40 2.353 . S
O55 C49 1.263 . S
C56 O57 1.275 . S
C56 O58 1.246 . S
O57 Tb40 2.427 . S
O57 C56 1.275 . S
O58 Tb40 2.513 . S
O58 C56 1.246 . S
C59 O43 1.245 . S
C59 O44 1.259 . S
C60 C61 1.384 . S
C60 H73 0.947 . S
C60 C95 1.382 . S
C61 C60 1.384 . S
C61 C62 1.378 . S
C62 C61 1.378 . S
C62 C63 1.378 . S
C62 H74 0.952 . S
C63 C62 1.378 . S
C63 H75 0.950 . S
C63 C94 1.383 . S
H64 C83 0.947 . S
H65 C84 0.946 . S
H66 C86 0.953 . S
H67 C87 0.945 . S
H68 C89 0.952 . S
H69 C90 0.949 . S
H70 C92 0.950 1_565 S
H71 C93 0.948 1_565 S
H72 C95 0.951 . S
H73 C60 0.947 . S
H74 C62 0.952 . S
H75 C63 0.950 . S
N76 C79 1.382 . S
N76 C81 1.363 1_545 S
N77 C79 1.371 . S
N77 C80 1.372 . S
N78 C80 1.361 1_565 S
N78 C81 1.377 . S
C79 N76 1.382 . S
C79 N77 1.371 . S
C79 C82 1.480 . S
C80 N77 1.372 . S
C80 N78 1.361 1_545 S
C80 C88 1.457 . S
C81 N76 1.363 1_565 S
C81 N78 1.377 . S
C81 C94 1.479 . S
C82 C79 1.480 . S
C82 C83 1.383 . S
C82 C87 1.385 . S
C83 H64 0.947 . S
C83 C82 1.383 . S
C83 C84 1.388 . S
C84 H65 0.946 . S
C84 C83 1.388 . S
C84 C85 1.384 . S
C85 C84 1.384 . S
C85 C86 1.377 . S
C86 H66 0.953 . S
C86 C85 1.377 . S
C86 C87 1.369 . S
C87 H67 0.945 . S
C87 C82 1.385 . S
C87 C86 1.369 . S
C88 C80 1.457 . S
C88 C89 1.372 . S
C88 C93 1.364 . S
C89 H68 0.952 . S
C89 C88 1.372 . S
C89 C90 1.389 . S
C90 H69 0.949 . S
C90 C89 1.389 . S
C90 C91 1.387 . S
C91 C90 1.387 . S
C91 C92 1.372 . S
C92 H70 0.950 1_545 S
C92 C91 1.372 . S
C92 C93 1.379 . S
C93 H71 0.948 1_545 S
C93 C88 1.364 . S
C93 C92 1.379 . S
C94 C63 1.383 . S
C94 C81 1.479 . S
C94 C95 1.398 . S
C95 C60 1.382 . S
C95 H72 0.951 . S
C95 C94 1.398 . S
C96 C97 1.384 . S
C96 H109 0.947 . S
C96 C131 1.382 . S
C97 C96 1.384 . S
C97 C98 1.378 . S
C98 C97 1.378 . S
C98 C99 1.378 . S
C98 H110 0.952 . S
C99 C98 1.378 . S
C99 H111 0.950 . S
C99 C130 1.383 . S
H100 C119 0.947 . S
H101 C120 0.946 . S
H102 C122 0.953 . S
H103 C123 0.945 . S
H104 C125 0.952 . S
H105 C126 0.949 . S
H106 C128 0.950 . S
H107 C129 0.948 . S
H108 C131 0.951 . S
H109 C96 0.947 . S
H110 C98 0.952 . S
H111 C99 0.950 . S
N112 C115 1.382 . S
N112 C117 1.363 . S
N113 C115 1.371 . S
N113 C116 1.372 . S
N114 C116 1.361 . S
N114 C117 1.377 . S
C115 N112 1.382 . S
C115 N113 1.371 . S
C115 C118 1.480 . S
C116 N113 1.372 . S
C116 N114 1.361 . S
C116 C124 1.457 . S
C117 N112 1.363 . S
C117 N114 1.377 . S
C117 C130 1.479 . S
C118 C115 1.480 . S
C118 C119 1.383 . S
C118 C123 1.385 . S
C119 H100 0.947 . S
C119 C118 1.383 . S
C119 C120 1.388 . S
C120 H101 0.946 . S
C120 C119 1.388 . S
C120 C121 1.384 . S
C121 C120 1.384 . S
C121 C122 1.377 . S
C122 H102 0.953 . S
C122 C121 1.377 . S
C122 C123 1.369 . S
C123 H103 0.945 . S
C123 C118 1.385 . S
C123 C122 1.369 . S
C124 C116 1.457 . S
C124 C125 1.372 . S
C124 C129 1.364 . S
C125 H104 0.952 . S
C125 C124 1.372 . S
C125 C126 1.389 . S
C126 H105 0.949 . S
C126 C125 1.389 . S
C126 C127 1.387 . S
C127 C126 1.387 . S
C127 C128 1.372 . S
C128 H106 0.950 . S
C128 C127 1.372 . S
C128 C129 1.379 . S
C129 H107 0.948 . S
C129 C124 1.364 . S
C129 C128 1.379 . S
C130 C99 1.383 . S
C130 C117 1.479 . S
C130 C131 1.398 . S
C131 C96 1.382 . S
C131 H108 0.951 . S
C131 C130 1.398 . S
C132 C133 1.384 . S
C132 H145 0.947 . S
C132 C167 1.382 . S
C133 C132 1.384 . S
C133 C134 1.378 . S
C134 C133 1.378 . S
C134 C135 1.378 . S
C134 H146 0.952 . S
C135 C134 1.378 . S
C135 H147 0.950 1_655 S
C135 C166 1.383 . S
H136 C155 0.947 . S
H137 C156 0.946 . S
H138 C158 0.953 . S
H139 C159 0.945 . S
H140 C161 0.952 . S
H141 C162 0.949 . S
H142 C164 0.950 1_655 S
H143 C165 0.948 1_655 S
H144 C167 0.951 . S
H145 C132 0.947 . S
H146 C134 0.952 . S
H147 C135 0.950 1_455 S
N148 C151 1.382 . S
N148 C153 1.363 . S
N149 C151 1.371 . S
N149 C152 1.372 . S
N150 C152 1.361 . S
N150 C153 1.377 . S
C151 N148 1.382 . S
C151 N149 1.371 . S
C151 C154 1.480 . S
C152 N149 1.372 . S
C152 N150 1.361 . S
C152 C160 1.457 . S
C153 N148 1.363 . S
C153 N150 1.377 . S
C153 C166 1.479 1_455 S
C154 C151 1.480 . S
C154 C155 1.383 . S
C154 C159 1.385 . S
C155 H136 0.947 . S
C155 C154 1.383 . S
C155 C156 1.388 . S
C156 H137 0.946 . S
C156 C155 1.388 . S
C156 C157 1.384 . S
C157 C156 1.384 . S
C157 C158 1.377 . S
C158 H138 0.953 . S
C158 C157 1.377 . S
C158 C159 1.369 . S
C159 H139 0.945 . S
C159 C154 1.385 . S
C159 C158 1.369 . S
C160 C152 1.457 . S
C160 C161 1.372 . S
C160 C165 1.364 . S
C161 H140 0.952 . S
C161 C160 1.372 . S
C161 C162 1.389 . S
C162 H141 0.949 . S
C162 C161 1.389 . S
C162 C163 1.387 . S
C163 C162 1.387 . S
C163 C164 1.372 . S
C164 H142 0.950 1_455 S
C164 C163 1.372 . S
C164 C165 1.379 . S
C165 H143 0.948 1_455 S
C165 C160 1.364 . S
C165 C164 1.379 . S
C166 C135 1.383 . S
C166 C153 1.479 1_655 S
C166 C167 1.398 . S
C167 C132 1.382 . S
C167 H144 0.951 . S
C167 C166 1.398 . S
C168 C169 1.384 . S
C168 H181 0.947 . S
C168 C203 1.382 . S
C169 C168 1.384 . S
C169 C170 1.378 . S
C170 C169 1.378 . S
C170 C171 1.378 . S
C170 H182 0.952 . S
C171 C170 1.378 . S
C171 H183 0.950 . S
C171 C202 1.383 . S
H172 C191 0.947 . S
H173 C192 0.946 . S
H174 C194 0.953 . S
H175 C195 0.945 . S
H176 C197 0.952 . S
H177 C198 0.949 . S
H178 C200 0.950 . S
H179 C201 0.948 . S
H180 C203 0.951 . S
H181 C168 0.947 . S
H182 C170 0.952 . S
H183 C171 0.950 . S
N184 C187 1.382 1_455 S
N184 C189 1.363 . S
N185 C187 1.371 . S
N185 C188 1.372 1_655 S
N186 C188 1.361 . S
N186 C189 1.377 . S
C187 N184 1.382 1_655 S
C187 N185 1.371 . S
C187 C190 1.480 . S
C188 N185 1.372 1_455 S
C188 N186 1.361 . S
C188 C196 1.457 . S
C189 N184 1.363 . S
C189 N186 1.377 . S
C189 C202 1.479 . S
C190 C187 1.480 . S
C190 C191 1.383 . S
C190 C195 1.385 . S
C191 H172 0.947 . S
C191 C190 1.383 . S
C191 C192 1.388 . S
C192 H173 0.946 . S
C192 C191 1.388 . S
C192 C193 1.384 . S
C193 C192 1.384 . S
C193 C194 1.377 . S
C194 H174 0.953 . S
C194 C193 1.377 . S
C194 C195 1.369 . S
C195 H175 0.945 . S
C195 C190 1.385 . S
C195 C194 1.369 . S
C196 C188 1.457 . S
C196 C197 1.372 1_455 S
C196 C201 1.364 . S
C197 H176 0.952 . S
C197 C196 1.372 1_655 S
C197 C198 1.389 . S
C198 H177 0.949 . S
C198 C197 1.389 . S
C198 C199 1.387 1_655 S
C199 C198 1.387 1_455 S
C199 C200 1.372 . S
C200 H178 0.950 . S
C200 C199 1.372 . S
C200 C201 1.379 . S
C201 H179 0.948 . S
C201 C196 1.364 . S
C201 C200 1.379 . S
C202 C171 1.383 . S
C202 C189 1.479 . S
C202 C203 1.398 . S
C203 C168 1.382 . S
C203 H180 0.951 . S
C203 C202 1.398 . S
C204 C205 1.384 . S
C204 H217 0.947 . S
C204 C239 1.382 . S
C205 C204 1.384 . S
C205 C206 1.378 . S
C206 C205 1.378 . S
C206 C207 1.378 . S
C206 H218 0.952 . S
C207 C206 1.378 . S
C207 H219 0.950 . S
C207 C238 1.383 . S
H208 C227 0.947 . S
H209 C228 0.946 . S
H210 C230 0.953 . S
H211 C231 0.945 . S
H212 C233 0.952 . S
H213 C234 0.949 . S
H214 C236 0.950 . S
H215 C237 0.948 . S
H216 C239 0.951 . S
H217 C204 0.947 . S
H218 C206 0.952 . S
H219 C207 0.950 . S
N220 C223 1.382 1_545 S
N220 C225 1.363 . S
N221 C223 1.371 . S
N221 C224 1.372 1_565 S
N222 C224 1.361 . S
N222 C225 1.377 . S
C223 N220 1.382 1_565 S
C223 N221 1.371 . S
C223 C226 1.480 . S
C224 N221 1.372 1_545 S
C224 N222 1.361 . S
C224 C232 1.457 . S
C225 N220 1.363 . S
C225 N222 1.377 . S
C225 C238 1.479 . S
C226 C223 1.480 . S
C226 C227 1.383 . S
C226 C231 1.385 . S
C227 H208 0.947 . S
C227 C226 1.383 . S
C227 C228 1.388 . S
C228 H209 0.946 . S
C228 C227 1.388 . S
C228 C229 1.384 . S
C229 C228 1.384 . S
C229 C230 1.377 . S
C230 H210 0.953 . S
C230 C229 1.377 . S
C230 C231 1.369 . S
C231 H211 0.945 . S
C231 C226 1.385 . S
C231 C230 1.369 . S
C232 C224 1.457 . S
C232 C233 1.372 1_545 S
C232 C237 1.364 . S
C233 H212 0.952 . S
C233 C232 1.372 1_565 S
C233 C234 1.389 . S
C234 H213 0.949 . S
C234 C233 1.389 . S
C234 C235 1.387 1_565 S
C235 C234 1.387 1_545 S
C235 C236 1.372 . S
C236 H214 0.950 . S
C236 C235 1.372 . S
C236 C237 1.379 . S
C237 H215 0.948 . S
C237 C232 1.364 . S
C237 C236 1.379 . S
C238 C207 1.383 . S
C238 C225 1.479 . S
C238 C239 1.398 . S
C239 C204 1.382 . S
C239 H216 0.951 . S
C239 C238 1.398 . S
C240 C241 1.384 . S
C240 H253 0.947 . S
C240 C275 1.382 . S
C241 C240 1.384 . S
C241 C242 1.378 . S
C242 C241 1.378 . S
C242 C243 1.378 . S
C242 H254 0.952 . S
C243 C242 1.378 . S
C243 H255 0.950 . S
C243 C274 1.383 . S
H244 C263 0.947 . S
H245 C264 0.946 . S
H246 C266 0.953 . S
H247 C267 0.945 . S
H248 C269 0.952 . S
H249 C270 0.949 . S
H250 C272 0.950 . S
H251 C273 0.948 . S
H252 C275 0.951 . S
H253 C240 0.947 . S
H254 C242 0.952 . S
H255 C243 0.950 . S
N256 C259 1.382 . S
N256 C261 1.363 . S
N257 C259 1.371 . S
N257 C260 1.372 . S
N258 C260 1.361 . S
N258 C261 1.377 . S
C259 N256 1.382 . S
C259 N257 1.371 . S
C259 C262 1.480 . S
C260 N257 1.372 . S
C260 N258 1.361 . S
C260 C268 1.457 . S
C261 N256 1.363 . S
C261 N258 1.377 . S
C261 C274 1.479 . S
C262 C259 1.480 . S
C262 C263 1.383 . S
C262 C267 1.385 . S
C263 H244 0.947 . S
C263 C262 1.383 . S
C263 C264 1.388 . S
C264 H245 0.946 . S
C264 C263 1.388 . S
C264 C265 1.384 . S
C265 C264 1.384 . S
C265 C266 1.377 . S
C266 H246 0.953 . S
C266 C265 1.377 . S
C266 C267 1.369 . S
C267 H247 0.945 . S
C267 C262 1.385 . S
C267 C266 1.369 . S
C268 C260 1.457 . S
C268 C269 1.372 . S
C268 C273 1.364 . S
C269 H248 0.952 . S
C269 C268 1.372 . S
C269 C270 1.389 . S
C270 H249 0.949 . S
C270 C269 1.389 . S
C270 C271 1.387 1_554 S
C271 C270 1.387 1_556 S
C271 C272 1.372 1_556 S
C272 H250 0.950 . S
C272 C271 1.372 1_554 S
C272 C273 1.379 . S
C273 H251 0.948 . S
C273 C268 1.364 . S
C273 C272 1.379 . S
C274 C243 1.383 . S
C274 C261 1.479 . S
C274 C275 1.398 . S
C275 C240 1.382 . S
C275 H252 0.951 . S
C275 C274 1.398 . S
C276 C277 1.369 . S
C276 C278 1.419 . S
C276 H280 0.930 . S
C277 C276 1.369 . S
C277 C286 1.429 . S
C278 C276 1.419 . S
C278 C279 1.363 . S
C278 H281 0.929 . S
C279 C278 1.363 . S
C279 C285 1.428 . S
H280 C276 0.930 . S
H281 C278 0.929 . S
S282 N283 1.613 . S
S282 N284 1.610 . S
N283 S282 1.613 . S
N283 C286 1.350 . S
N284 S282 1.610 . S
N284 C285 1.351 . S
C285 C279 1.428 . S
C285 N284 1.351 . S
C285 C286 1.434 . S
C286 C277 1.429 . S
C286 N283 1.350 . S
C286 C285 1.434 . S
C287 C288 1.369 . S
C287 C289 1.419 . S
C287 H291 0.930 . S
C288 C287 1.369 . S
C288 C297 1.429 . S
C289 C287 1.419 . S
C289 C290 1.363 . S
C289 H292 0.929 . S
C290 C289 1.363 . S
C290 C296 1.428 . S
H291 C287 0.930 . S
H292 C289 0.929 . S
S293 N294 1.613 . S
S293 N295 1.610 . S
N294 S293 1.613 . S
N294 C297 1.350 . S
N295 S293 1.610 . S
N295 C296 1.351 . S
C296 C290 1.428 . S
C296 N295 1.351 . S
C296 C297 1.434 . S
C297 C288 1.429 . S
C297 N294 1.350 . S
C297 C296 1.434 . S
C298 C299 1.369 . S
C298 C300 1.419 . S
C298 H302 0.930 . S
C299 C298 1.369 . S
C299 C308 1.429 . S
C300 C298 1.419 . S
C300 C301 1.363 . S
C300 H303 0.929 . S
C301 C300 1.363 . S
C301 C307 1.428 . S
H302 C298 0.930 . S
H303 C300 0.929 . S
S304 N305 1.613 . S
S304 N306 1.610 . S
N305 S304 1.613 . S
N305 C308 1.350 . S
N306 S304 1.610 . S
N306 C307 1.351 . S
C307 C301 1.428 . S
C307 N306 1.351 . S
C307 C308 1.434 . S
C308 C299 1.429 . S
C308 N305 1.350 . S
C308 C307 1.434 . S
C309 C310 1.369 . S
C309 C311 1.419 . S
C309 H313 0.930 . S
C310 C309 1.369 . S
C310 C319 1.429 . S
C311 C309 1.419 . S
C311 C312 1.363 . S
C311 H314 0.929 . S
C312 C311 1.363 . S
C312 C318 1.428 . S
H313 C309 0.930 . S
H314 C311 0.929 . S
S315 N316 1.613 . S
S315 N317 1.610 . S
N316 S315 1.613 . S
N316 C319 1.350 . S
N317 S315 1.610 . S
N317 C318 1.351 . S
C318 C312 1.428 . S
C318 N317 1.351 . S
C318 C319 1.434 . S
C319 C310 1.429 . S
C319 N316 1.350 . S
C319 C318 1.434 . S
C320 C321 1.369 . S
C320 C322 1.419 . S
C320 H324 0.930 . S
C321 C320 1.369 . S
C321 C330 1.429 . S
C322 C320 1.419 . S
C322 C323 1.363 . S
C322 H325 0.929 . S
C323 C322 1.363 . S
C323 C329 1.428 . S
H324 C320 0.930 . S
H325 C322 0.929 . S
S326 N327 1.613 . S
S326 N328 1.610 . S
N327 S326 1.613 . S
N327 C330 1.350 . S
N328 S326 1.610 . S
N328 C329 1.351 . S
C329 C323 1.428 . S
C329 N328 1.351 . S
C329 C330 1.434 . S
C330 C321 1.429 . S
C330 N327 1.350 . S
C330 C329 1.434 . S
C331 C332 1.369 . S
C331 C333 1.419 . S
C331 H335 0.930 . S
C332 C331 1.369 . S
C332 C341 1.429 . S
C333 C331 1.419 . S
C333 C334 1.363 . S
C333 H336 0.929 . S
C334 C333 1.363 . S
C334 C340 1.428 . S
H335 C331 0.930 . S
H336 C333 0.929 . S
S337 N338 1.613 . S
S337 N339 1.610 . S
N338 S337 1.613 . S
N338 C341 1.350 . S
N339 S337 1.610 . S
N339 C340 1.351 . S
C340 C334 1.428 . S
C340 N339 1.351 . S
C340 C341 1.434 . S
C341 C332 1.429 . S
C341 N338 1.350 . S
C341 C340 1.434 . S
C342 C343 1.369 . S
C342 C344 1.419 . S
C342 H346 0.930 . S
C343 C342 1.369 . S
C343 C352 1.429 . S
C344 C342 1.419 . S
C344 C345 1.363 . S
C344 H347 0.929 . S
C345 C344 1.363 . S
C345 C351 1.428 . S
H346 C342 0.930 . S
H347 C344 0.929 . S
S348 N349 1.613 . S
S348 N350 1.610 . S
N349 S348 1.613 . S
N349 C352 1.350 . S
N350 S348 1.610 . S
N350 C351 1.351 . S
C351 C345 1.428 . S
C351 N350 1.351 . S
C351 C352 1.434 . S
C352 C343 1.429 . S
C352 N349 1.350 . S
C352 C351 1.434 . S
C353 C354 1.369 . S
C353 C355 1.419 . S
C353 H357 0.930 . S
C354 C353 1.369 . S
C354 C363 1.429 . S
C355 C353 1.419 . S
C355 C356 1.363 . S
C355 H358 0.929 . S
C356 C355 1.363 . S
C356 C362 1.428 . S
H357 C353 0.930 . S
H358 C355 0.929 . S
S359 N360 1.613 . S
S359 N361 1.610 . S
N360 S359 1.613 . S
N360 C363 1.350 . S
N361 S359 1.610 . S
N361 C362 1.351 . S
C362 C356 1.428 . S
C362 N361 1.351 . S
C362 C363 1.434 . S
C363 C354 1.429 . S
C363 N360 1.350 . S
C363 C362 1.434 . S
C364 C365 1.369 . S
C364 C366 1.419 . S
C364 H368 0.930 . S
C365 C364 1.369 . S
C365 C374 1.429 . S
C366 C364 1.419 . S
C366 C367 1.363 . S
C366 H369 0.929 . S
C367 C366 1.363 . S
C367 C373 1.428 . S
H368 C364 0.930 . S
H369 C366 0.929 . S
S370 N371 1.613 . S
S370 N372 1.610 . S
N371 S370 1.613 . S
N371 C374 1.350 . S
N372 S370 1.610 . S
N372 C373 1.351 . S
C373 C367 1.428 . S
C373 N372 1.351 . S
C373 C374 1.434 . S
C374 C365 1.429 . S
C374 N371 1.350 . S
C374 C373 1.434 . S
C375 C376 1.369 . S
C375 C377 1.419 . S
C375 H379 0.930 . S
C376 C375 1.369 . S
C376 C385 1.429 . S
C377 C375 1.419 . S
C377 C378 1.363 . S
C377 H380 0.929 . S
C378 C377 1.363 . S
C378 C384 1.428 . S
H379 C375 0.930 . S
H380 C377 0.929 . S
S381 N382 1.613 . S
S381 N383 1.610 . S
N382 S381 1.613 . S
N382 C385 1.350 . S
N383 S381 1.610 . S
N383 C384 1.351 . S
C384 C378 1.428 . S
C384 N383 1.351 . S
C384 C385 1.434 . S
C385 C376 1.429 . S
C385 N382 1.350 . S
C385 C384 1.434 . S
C386 C387 1.369 . S
C386 C388 1.419 . S
C386 H390 0.930 . S
C387 C386 1.369 . S
C387 C396 1.429 . S
C388 C386 1.419 . S
C388 C389 1.363 . S
C388 H391 0.929 . S
C389 C388 1.363 . S
C389 C395 1.428 . S
H390 C386 0.930 . S
H391 C388 0.929 . S
S392 N393 1.613 . S
S392 N394 1.610 . S
N393 S392 1.613 . S
N393 C396 1.350 . S
N394 S392 1.610 . S
N394 C395 1.351 . S
C395 C389 1.428 . S
C395 N394 1.351 . S
C395 C396 1.434 . S
C396 C387 1.429 . S
C396 N393 1.350 . S
C396 C395 1.434 . S
C397 C398 1.369 . S
C397 C399 1.419 . S
C397 H401 0.930 . S
C398 C397 1.369 . S
C398 C407 1.429 . S
C399 C397 1.419 . S
C399 C400 1.363 . S
C399 H402 0.929 . S
C400 C399 1.363 . S
C400 C406 1.428 . S
H401 C397 0.930 . S
H402 C399 0.929 . S
S403 N404 1.613 . S
S403 N405 1.610 . S
N404 S403 1.613 . S
N404 C407 1.350 . S
N405 S403 1.610 . S
N405 C406 1.351 . S
C406 C400 1.428 . S
C406 N405 1.351 . S
C406 C407 1.434 . S
C407 C398 1.429 . S
C407 N404 1.350 . S
C407 C406 1.434 . S
C408 C409 1.369 . S
C408 C410 1.419 . S
C408 H412 0.930 . S
C409 C408 1.369 . S
C409 C418 1.429 . S
C410 C408 1.419 . S
C410 C411 1.363 . S
C410 H413 0.929 . S
C411 C410 1.363 . S
C411 C417 1.428 . S
H412 C408 0.930 . S
H413 C410 0.929 . S
S414 N415 1.613 . S
S414 N416 1.610 . S
N415 S414 1.613 . S
N415 C418 1.350 1_655 S
N416 S414 1.610 . S
N416 C417 1.351 1_655 S
C417 C411 1.428 . S
C417 N416 1.351 1_455 S
C417 C418 1.434 . S
C418 C409 1.429 . S
C418 N415 1.350 1_455 S
C418 C417 1.434 . S
C419 C420 1.369 . S
C419 C421 1.419 . S
C419 H423 0.930 1_545 S
C420 C419 1.369 . S
C420 C429 1.429 . S
C421 C419 1.419 . S
C421 C422 1.363 . S
C421 H424 0.929 1_545 S
C422 C421 1.363 . S
C422 C428 1.428 . S
H423 C419 0.930 1_565 S
H424 C421 0.929 1_565 S
S425 N426 1.613 . S
S425 N427 1.610 . S
N426 S425 1.613 . S
N426 C429 1.350 . S
N427 S425 1.610 . S
N427 C428 1.351 . S
C428 C422 1.428 . S
C428 N427 1.351 . S
C428 C429 1.434 . S
C429 C420 1.429 . S
C429 N426 1.350 . S
C429 C428 1.434 . S
C430 C431 1.369 . S
C430 C432 1.419 . S
C430 H434 0.930 . S
C431 C430 1.369 . S
C431 C440 1.429 . S
C432 C430 1.419 . S
C432 C433 1.363 . S
C432 H435 0.929 . S
C433 C432 1.363 . S
C433 C439 1.428 . S
H434 C430 0.930 . S
H435 C432 0.929 . S
S436 N437 1.613 . S
S436 N438 1.610 . S
N437 S436 1.613 . S
N437 C440 1.350 . S
N438 S436 1.610 . S
N438 C439 1.351 . S
C439 C433 1.428 . S
C439 N438 1.351 . S
C439 C440 1.434 . S
C440 C431 1.429 . S
C440 N437 1.350 . S
C440 C439 1.434 . S
C441 C442 1.369 . S
C441 C443 1.419 . S
C441 H445 0.930 . S
C442 C441 1.369 . S
C442 C451 1.429 1_545 S
C443 C441 1.419 . S
C443 C444 1.363 . S
C443 H446 0.929 . S
C444 C443 1.363 . S
C444 C450 1.428 1_545 S
H445 C441 0.930 . S
H446 C443 0.929 . S
S447 N448 1.613 . S
S447 N449 1.610 . S
N448 S447 1.613 . S
N448 C451 1.350 . S
N449 S447 1.610 . S
N449 C450 1.351 . S
C450 C444 1.428 1_565 S
C450 N449 1.351 . S
C450 C451 1.434 . S
C451 C442 1.429 1_565 S
C451 N448 1.350 . S
C451 C450 1.434 . S
C452 C453 1.369 . S
C452 C454 1.419 . S
C452 H456 0.930 . S
C453 C452 1.369 . S
C453 C462 1.429 . S
C454 C452 1.419 . S
C454 C455 1.363 . S
C454 H457 0.929 . S
C455 C454 1.363 . S
C455 C461 1.428 . S
H456 C452 0.930 . S
H457 C454 0.929 . S
S458 N459 1.613 . S
S458 N460 1.610 . S
N459 S458 1.613 . S
N459 C462 1.350 . S
N460 S458 1.610 . S
N460 C461 1.351 . S
C461 C455 1.428 . S
C461 N460 1.351 . S
C461 C462 1.434 . S
C462 C453 1.429 . S
C462 N459 1.350 . S
C462 C461 1.434 . S
C463 C464 1.369 . S
C463 C465 1.419 . S
C463 H467 0.930 . S
C464 C463 1.369 . S
C464 C473 1.429 . S
C465 C463 1.419 . S
C465 C466 1.363 . S
C465 H468 0.929 . S
C466 C465 1.363 . S
C466 C472 1.428 1_455 S
H467 C463 0.930 . S
H468 C465 0.929 . S
S469 N470 1.616 . S
S469 N471 1.610 . S
N470 S469 1.616 . S
N470 C473 1.347 1_655 S
N471 S469 1.610 . S
N471 C472 1.351 . S
C472 C466 1.428 1_655 S
C472 N471 1.351 . S
C472 C473 1.434 1_655 S
C473 C464 1.429 . S
C473 N470 1.347 1_455 S
C473 C472 1.434 1_455 S
C277 C8 2.064 . S
C279 C265 2.082 . S
C288 C26 1.411 . S
C290 C193 1.369 . S
C299 C48 1.582 . S
C301 C229 1.577 . S
C310 C19 1.953 . S
C312 C241 1.952 . S
C323 C169 1.565 . S
C321 C36 1.576 . S
C334 C205 1.827 . S
C332 C59 1.811 . S
C343 C28 1.601 . S
C345 C121 1.600 . S
C354 C46 1.288 . S
C356 C133 1.282 . S
C365 C16 1.638 . S
C367 C61 1.633 . S
C378 C97 1.793 . S
C376 C39 1.790 . S
C389 C157 1.093 . S
C387 C56 1.104 . S
C398 C6 1.480 . S
C400 C85 1.412 . S
C411 C163 1.436 1_554 S
C409 C9 1.406 . S
C420 C21 1.517 . S
C422 C91 1.508 . S
C431 C49 1.486 . S
C433 C127 1.485 . S
C444 C235 1.472 . S
C442 C29 1.481 . S
C455 C271 1.591 . S
C453 C41 1.576 . S
C464 C1 1.506 . S
C466 C199 1.506 . S
