# Generated by pormake.
# Topology zzz, (3,6)-cn, num edge types: 1
# Building blocks:
#     Node 0, Type 0, BuildingBlock: BETDAH_clean_linker_0, # of connection points: 3
#     Node 1, Type 0, BuildingBlock: BETDAH_clean_linker_0, # of connection points: 3
#     Node 2, Type 0, BuildingBlock: BETDAH_clean_linker_0, # of connection points: 3
#     Node 3, Type 0, BuildingBlock: BETDAH_clean_linker_0, # of connection points: 3
#     Node 4, Type 0, BuildingBlock: BETDAH_clean_linker_0, # of connection points: 3
#     Node 5, Type 0, BuildingBlock: BETDAH_clean_linker_0, # of connection points: 3
#     Node 6, Type 0, BuildingBlock: BETDAH_clean_linker_0, # of connection points: 3
#     Node 7, Type 0, BuildingBlock: BETDAH_clean_linker_0, # of connection points: 3
#     Node 8, Type 1, BuildingBlock: MIFKUJ_clean_sbu_0, # of connection points: 6
#     Node 9, Type 1, BuildingBlock: MIFKUJ_clean_sbu_0, # of connection points: 6
#     Node 10, Type 1, BuildingBlock: MIFKUJ_clean_sbu_0, # of connection points: 6
#     Node 11, Type 1, BuildingBlock: MIFKUJ_clean_sbu_0, # of connection points: 6
#     Edge 12, Type (0, 1), BuildingBlock: XIVTED_clean_linker_0, # of connection points: 2
#     Edge 13, Type (0, 1), BuildingBlock: XIVTED_clean_linker_0, # of connection points: 2
#     Edge 14, Type (0, 1), BuildingBlock: XIVTED_clean_linker_0, # of connection points: 2
#     Edge 15, Type (0, 1), BuildingBlock: XIVTED_clean_linker_0, # of connection points: 2
#     Edge 16, Type (0, 1), BuildingBlock: XIVTED_clean_linker_0, # of connection points: 2
#     Edge 17, Type (0, 1), BuildingBlock: XIVTED_clean_linker_0, # of connection points: 2
#     Edge 18, Type (0, 1), BuildingBlock: XIVTED_clean_linker_0, # of connection points: 2
#     Edge 19, Type (0, 1), BuildingBlock: XIVTED_clean_linker_0, # of connection points: 2
#     Edge 20, Type (0, 1), BuildingBlock: XIVTED_clean_linker_0, # of connection points: 2
#     Edge 21, Type (0, 1), BuildingBlock: XIVTED_clean_linker_0, # of connection points: 2
#     Edge 22, Type (0, 1), BuildingBlock: XIVTED_clean_linker_0, # of connection points: 2
#     Edge 23, Type (0, 1), BuildingBlock: XIVTED_clean_linker_0, # of connection points: 2
#     Edge 24, Type (0, 1), BuildingBlock: XIVTED_clean_linker_0, # of connection points: 2
#     Edge 25, Type (0, 1), BuildingBlock: XIVTED_clean_linker_0, # of connection points: 2
#     Edge 26, Type (0, 1), BuildingBlock: XIVTED_clean_linker_0, # of connection points: 2
#     Edge 27, Type (0, 1), BuildingBlock: XIVTED_clean_linker_0, # of connection points: 2
#     Edge 28, Type (0, 1), BuildingBlock: XIVTED_clean_linker_0, # of connection points: 2
#     Edge 29, Type (0, 1), BuildingBlock: XIVTED_clean_linker_0, # of connection points: 2
#     Edge 30, Type (0, 1), BuildingBlock: XIVTED_clean_linker_0, # of connection points: 2
#     Edge 31, Type (0, 1), BuildingBlock: XIVTED_clean_linker_0, # of connection points: 2
#     Edge 32, Type (0, 1), BuildingBlock: XIVTED_clean_linker_0, # of connection points: 2
#     Edge 33, Type (0, 1), BuildingBlock: XIVTED_clean_linker_0, # of connection points: 2
#     Edge 34, Type (0, 1), BuildingBlock: XIVTED_clean_linker_0, # of connection points: 2
#     Edge 35, Type (0, 1), BuildingBlock: XIVTED_clean_linker_0, # of connection points: 2
# Relax obj value: 0.118
# Max RMSD: 0.119
# Mean RMSD: 0.086
data_MOF--net-zzz--node1-MIFKUJ_clean_sbu_0--node2-BETDAH_clean_linker_0--edge1-XIVTED_clean_linker_0
_symmetry_space_group_name_H-M    P1
_symmetry_Int_Tables_number       1
_symmetry_cell_setting            triclinic
loop_
_symmetry_equiv_pos_as_xyz
'x, y, z'
_cell_length_a     50.937748
_cell_length_b     50.543368
_cell_length_c     16.260639
_cell_angle_alpha  89.915119
_cell_angle_beta   90.077205
_cell_angle_gamma 90.142161
loop_
_atom_site_label
_atom_site_type_symbol
_atom_site_fract_x
_atom_site_fract_y
_atom_site_fract_z
_atom_type_partial_charge
H0 H 0.81876 0.48235 0.09758 0.0
H1 H 0.74162 0.47709 -0.00752 0.0
H2 H 0.7516 0.50006 0.24662 0.0
C3 C 0.79762 0.48406 0.10421 0.0
C4 C 0.78718 0.4923 0.17917 0.0
C5 C 0.78134 0.47816 0.03744 0.0
C6 C 0.7541 0.48113 0.04498 0.0
C7 C 0.74322 0.48891 0.12105 0.0
C8 C 0.75988 0.49406 0.18821 0.0
N9 N 0.71576 0.49186 0.13224 0.0
C10 C 0.69762 0.49209 0.06833 0.0
H11 H 0.96155 0.80868 0.03334 0.0
H12 H 0.98552 0.73017 0.9736 0.0
H13 H 0.98784 0.75627 0.22558 0.0
C14 C 0.9683 0.78946 0.05395 0.0
C15 C 0.97479 0.78552 0.13684 0.0
C16 C 0.97304 0.76994 -0.00492 0.0
C17 C 0.9815 0.74494 0.02001 0.0
C18 C 0.98556 0.73954 0.10417 0.0
C19 C 0.98278 0.76006 0.16196 0.0
N20 N 0.99374 0.71414 0.13165 0.0
C21 C 0.99551 0.69244 0.07943 0.0
H22 H 0.69577 0.04331 0.08515 0.0
H23 H 0.76997 0.02305 0.97829 0.0
H24 H 0.75486 0.00676 0.2347 0.0
C25 C 0.71573 0.03616 0.09206 0.0
C26 C 0.72356 0.02587 0.16798 0.0
C27 C 0.73219 0.03507 0.02332 0.0
C28 C 0.75742 0.0243 0.03179 0.0
C29 C 0.76593 0.01454 0.10873 0.0
C30 C 0.7487 0.01496 0.17618 0.0
N31 N 0.79133 0.00354 0.11981 0.0
C32 C 0.8103 0.00259 0.0585 0.0
H33 H 0.5549 0.69486 0.0333 0.0
H34 H 0.53341 0.77396 0.97095 0.0
H35 H 0.53006 0.74841 0.22369 0.0
C36 C 0.54873 0.71432 0.05326 0.0
C37 C 0.54227 0.7186 0.13592 0.0
C38 C 0.54467 0.73388 -0.00621 0.0
C39 C 0.53691 0.75916 0.01787 0.0
C40 C 0.53292 0.76485 0.1018 0.0
C41 C 0.53505 0.74436 0.16024 0.0
N42 N 0.52544 0.79055 0.1283 0.0
C43 C 0.52372 0.81201 0.07487 0.0
H44 H 0.19747 0.52617 0.09319 0.0
H45 H 0.27388 0.53101 0.2037 0.0
H46 H 0.26556 0.50819 0.94885 0.0
C47 C 0.21865 0.52445 0.08809 0.0
C48 C 0.22958 0.51617 0.01388 0.0
C49 C 0.23446 0.53025 0.15605 0.0
C50 C 0.26174 0.52707 0.15036 0.0
C51 C 0.27311 0.51924 0.07503 0.0
C52 C 0.25691 0.51425 0.00668 0.0
N53 N 0.30062 0.51607 0.06595 0.0
C54 C 0.31811 0.51503 0.13152 0.0
H55 H 0.03803 0.19433 0.11321 0.0
H56 H 0.02689 0.27262 0.20657 0.0
H57 H 0.03344 0.25981 0.94487 0.0
C58 C 0.03694 0.21548 0.10195 0.0
C59 C 0.03683 0.22494 0.02114 0.0
C60 C 0.03308 0.23253 0.16835 0.0
C61 C 0.03018 0.25968 0.15461 0.0
C62 C 0.03102 0.26977 0.07369 0.0
C63 C 0.03386 0.25222 0.00723 0.0
N64 N 0.02826 0.29722 0.05704 0.0
C65 C 0.02696 0.31641 0.11808 0.0
H66 H 0.31209 0.95762 0.1171 0.0
H67 H 0.23874 0.97752 0.23025 0.0
H68 H 0.25187 0.99469 0.97331 0.0
C69 C 0.29208 0.96479 0.11194 0.0
C70 C 0.28366 0.97535 0.03701 0.0
C71 C 0.27617 0.96568 0.18195 0.0
C72 C 0.25087 0.97644 0.17575 0.0
C73 C 0.24175 0.98643 0.09977 0.0
C74 C 0.25847 0.98626 0.03105 0.0
N75 N 0.21629 0.99745 0.09094 0.0
C76 C 0.19778 0.99817 0.15364 0.0
H77 H 0.48879 0.30944 0.10487 0.0
H78 H 0.48209 0.23219 0.21176 0.0
H79 H 0.46272 0.24448 0.95551 0.0
C80 C 0.48398 0.2886 0.09851 0.0
C81 C 0.47501 0.27911 0.02298 0.0
C82 C 0.48694 0.27173 0.16597 0.0
C83 C 0.48028 0.24495 0.15858 0.0
C84 C 0.47162 0.23489 0.08217 0.0
C85 C 0.46925 0.25209 0.01437 0.0
N86 N 0.46519 0.20774 0.07146 0.0
C87 C 0.46719 0.18886 0.13346 0.0
Zn88 Zn 0.99586 0.03009 0.57078 0.0
Zn89 Zn 0.00928 0.97295 0.63054 0.0
C90 C 0.99345 0.064 0.70107 0.0
O91 O 0.9696 0.06379 0.67015 0.0
C92 C 0.00951 0.94052 0.4978 0.0
O93 O 0.03257 0.93754 0.53283 0.0
O94 O 0.9895 0.06326 0.50465 0.0
O95 O 0.02403 0.01128 0.50639 0.0
O96 O 0.04432 0.98972 0.60527 0.0
C97 C 0.01042 0.07711 0.5033 0.0
O98 O 0.03199 0.0671 0.53485 0.0
O99 O 0.00983 0.04698 0.67502 0.0
C100 C 0.99131 0.92596 0.6894 0.0
O101 O 0.97048 0.93839 0.66156 0.0
O102 O 0.01321 0.93819 0.69068 0.0
O103 O 0.98291 0.99265 0.69913 0.0
O104 O 0.9616 0.01186 0.5982 0.0
O105 O 0.99452 0.95892 0.52309 0.0
C106 C 0.04494 1.00148 0.53616 0.0
C107 C 0.96158 1.00135 0.66921 0.0
Zn108 Zn 0.47775 0.98697 0.57703 0.0
Zn109 Zn 0.5302 0.01655 0.63164 0.0
C110 C 0.44902 0.97644 0.71498 0.0
O111 O 0.45582 0.95312 0.68661 0.0
C112 C 0.55808 0.02619 0.49109 0.0
O113 O 0.55138 0.04972 0.51802 0.0
O114 O 0.44727 0.97021 0.51682 0.0
O115 O 0.48698 0.01881 0.50812 0.0
O116 O 0.50308 0.04442 0.60512 0.0
C117 C 0.42752 0.9856 0.51808 0.0
O118 O 0.43049 0.00962 0.54751 0.0
O119 O 0.45925 0.99695 0.68258 0.0
C120 C 0.58075 0.01763 0.68884 0.0
O121 O 0.57754 0.99351 0.6604 0.0
O122 O 0.5611 0.03316 0.68984 0.0
O123 O 0.52055 0.98521 0.70224 0.0
O124 O 0.50508 0.95941 0.60483 0.0
O125 O 0.54808 0.00593 0.52562 0.0
C126 C 0.4915 0.0418 0.53632 0.0
C127 C 0.51573 0.96215 0.67506 0.0
Zn128 Zn 0.51409 0.47427 0.57055 0.0
Zn129 Zn 0.50158 0.53214 0.63106 0.0
C130 C 0.51589 0.43816 0.69633 0.0
O131 O 0.53986 0.43845 0.66647 0.0
C132 C 0.50356 0.56459 0.49831 0.0
O133 O 0.48042 0.56841 0.53173 0.0
O134 O 0.52219 0.44231 0.5013 0.0
O135 O 0.48537 0.49302 0.50743 0.0
O136 O 0.46618 0.517 0.60312 0.0
C137 C 0.50239 0.42693 0.49758 0.0
O138 O 0.4799 0.43503 0.52791 0.0
O139 O 0.49982 0.45574 0.67178 0.0
C140 C 0.52116 0.57817 0.69155 0.0
O141 O 0.54162 0.56477 0.6657 0.0
O142 O 0.49872 0.56697 0.69092 0.0
O143 O 0.52604 0.51104 0.70249 0.0
O144 O 0.54801 0.49252 0.60233 0.0
O145 O 0.51773 0.54565 0.52477 0.0
C146 C 0.46512 0.50466 0.53514 0.0
C147 C 0.54747 0.50214 0.67437 0.0
Zn148 Zn 0.03232 0.51793 0.56136 0.0
Zn149 Zn 0.98355 0.4902 0.63608 0.0
C150 C 0.06816 0.52458 0.68424 0.0
O151 O 0.06303 0.54859 0.65763 0.0
C152 C 0.94836 0.48385 0.5114 0.0
O153 O 0.9533 0.45982 0.53816 0.0
O154 O 0.06126 0.53358 0.49164 0.0
O155 O 0.01845 0.48758 0.49405 0.0
O156 O 0.00765 0.46122 0.59616 0.0
C157 C 0.07976 0.51688 0.48371 0.0
O158 O 0.07601 0.49255 0.5098 0.0
O159 O 0.05398 0.50552 0.65853 0.0
C160 C 0.9356 0.49187 0.71038 0.0
O161 O 0.93984 0.51612 0.68421 0.0
O162 O 0.95397 0.47494 0.70425 0.0
O163 O 0.9976 0.52037 0.70439 0.0
O164 O 0.00813 0.5466 0.60179 0.0
O165 O 0.9625 0.50285 0.53774 0.0
C166 C 0.01544 0.46436 0.52254 0.0
C167 C 1.001 0.54356 0.67607 0.0
H168 H 0.1921 0.9669 0.2882 0.0
H169 H 0.05458 0.03307 0.40425 0.0
H170 H 0.15763 0.03242 0.15777 0.0
H171 H 0.09053 0.9725 0.55381 0.0
H172 H 0.09302 0.03345 0.31619 0.0
H173 H 0.15605 0.96877 0.38871 0.0
C174 C 0.17696 0.98175 0.28132 0.0
C175 C 0.17755 0.99954 0.21529 0.0
C176 C 0.09267 0.02011 0.36837 0.0
C177 C 0.13651 1.00178 0.32859 0.0
C178 C 0.07064 0.01985 0.4188 0.0
C179 C 0.06923 0.0026 0.48637 0.0
C180 C 0.11356 0.00284 0.38479 0.0
C181 C 0.0908 0.98611 0.50237 0.0
C182 C 0.15646 0.98284 0.33843 0.0
C183 C 0.15768 0.01839 0.20819 0.0
N184 N 0.11204 0.98648 0.45148 0.0
N185 N 0.13788 0.01896 0.264 0.0
H186 H 0.44171 0.14221 0.13474 0.0
H187 H 0.5088 0.09314 0.5549 0.0
H188 H 0.49686 0.18951 0.27199 0.0
H189 H 0.46139 0.04348 0.39773 0.0
H190 H 0.50153 0.13019 0.46002 0.0
H191 H 0.44571 0.1071 0.23812 0.0
C192 C 0.45458 0.14514 0.18709 0.0
C193 C 0.46899 0.16854 0.19549 0.0
C194 C 0.49264 0.1112 0.44664 0.0
C195 C 0.47377 0.12874 0.31369 0.0
C196 C 0.49668 0.09008 0.50094 0.0
C197 C 0.48582 0.06511 0.484 0.0
C198 C 0.4775 0.10733 0.37528 0.0
C199 C 0.47034 0.06229 0.41301 0.0
C200 C 0.4569 0.12517 0.246 0.0
C201 C 0.48542 0.17162 0.26391 0.0
N202 N 0.46671 0.08308 0.36132 0.0
N203 N 0.48742 0.15188 0.32057 0.0
H204 H 0.3543 0.47688 0.14351 0.0
H205 H 0.42201 0.53736 0.54779 0.0
H206 H 0.32566 0.54696 0.26367 0.0
H207 H 0.45361 0.47295 0.40499 0.0
H208 H 0.38417 0.53906 0.45401 0.0
H209 H 0.38853 0.4729 0.24841 0.0
C210 C 0.35527 0.49135 0.19254 0.0
C211 C 0.33747 0.51228 0.19552 0.0
C212 C 0.39937 0.52449 0.44367 0.0
C213 C 0.37644 0.50809 0.31541 0.0
C214 C 0.42089 0.52345 0.4973 0.0
C215 C 0.44109 0.50511 0.4839 0.0
C216 C 0.39804 0.50695 0.37674 0.0
C217 C 0.43866 0.4876 0.41737 0.0
C218 C 0.37477 0.48914 0.25233 0.0
C219 C 0.33928 0.53059 0.25981 0.0
N220 N 0.41763 0.48901 0.36638 0.0
N221 N 0.35856 0.52814 0.31741 0.0
H222 H 0.0043 0.31345 0.26843 0.0
H223 H 0.0391 0.46432 0.37265 0.0
H224 H 0.04773 0.36525 0.10765 0.0
H225 H 1.00012 0.41246 0.54501 0.0
H226 H 0.04297 0.4277 0.27669 0.0
H227 H 0.00283 0.34881 0.3721 0.0
C228 C 0.01356 0.33231 0.25536 0.0
C229 C 0.02611 0.33672 0.18007 0.0
C230 C 0.03364 0.4242 0.33554 0.0
C231 C 0.02454 0.37701 0.29713 0.0
C232 C 0.03139 0.44516 0.39049 0.0
C233 C 0.01913 0.44151 0.46694 0.0
C234 C 0.02343 0.39928 0.35657 0.0
C235 C 0.00973 0.41615 0.48676 0.0
C236 C 0.01275 0.35243 0.3143 0.0
C237 C 0.03783 0.36128 0.1653 0.0
N238 N 0.01193 0.39601 0.43164 0.0
N239 N 0.03671 0.38057 0.22327 0.0
H240 H 0.85178 0.96996 0.06156 0.0
H241 H 0.91472 0.02759 0.64564 0.0
H242 H 0.81545 0.03187 0.91946 0.0
H243 H 0.95376 0.97308 0.80952 0.0
H244 H 0.87637 0.02696 0.73711 0.0
H245 H 0.88768 0.96828 0.96175 0.0
C246 C 0.85143 0.98311 0.00886 0.0
C247 C 0.83091 1.00106 -0.00189 0.0
C248 C 0.89334 0.0151 0.7527 0.0
C249 C 0.87171 0.99945 0.88395 0.0
C250 C 0.91517 0.01538 0.70043 0.0
C251 C 0.93754 1.00049 0.7202 0.0
C252 C 0.89388 0.99967 0.82474 0.0
C253 C 0.93707 0.98506 0.79207 0.0
C254 C 0.87187 0.98221 0.95199 0.0
C255 C 0.8311 0.01775 0.9293 0.0
N256 N 0.91566 0.98509 0.84157 0.0
N257 N 0.85128 0.0166 0.87462 0.0
H258 H 0.50034 0.81112 0.92591 0.0
H259 H 0.54047 0.96101 0.82405 0.0
H260 H 0.54502 0.86075 0.08975 0.0
H261 H 0.49877 0.91084 0.65318 0.0
H262 H 0.54303 0.92416 0.92043 0.0
H263 H 0.49972 0.8471 0.82423 0.0
C264 C 0.50994 0.8297 0.94024 0.0
C265 C 0.52264 0.83327 0.01577 0.0
C266 C 0.53341 0.92111 0.86176 0.0
C267 C 0.52219 0.87428 0.90058 0.0
C268 C 0.53195 0.94218 0.8065 0.0
C269 C 0.51925 0.93909 0.7304 0.0
C270 C 0.52201 0.89669 0.84124 0.0
C271 C 0.50874 0.91414 0.7111 0.0
C272 C 0.50967 0.85017 0.88235 0.0
C273 C 0.53493 0.85746 0.03198 0.0
N274 N 0.51021 0.89394 0.76638 0.0
N275 N 0.53438 0.87712 0.97483 0.0
H276 H 0.69502 0.46635 0.92192 0.0
H277 H 0.55404 0.52815 0.81916 0.0
H278 H 0.65436 0.52196 0.07623 0.0
H279 H 0.5943 0.47566 0.65265 0.0
H280 H 0.59143 0.52642 0.91178 0.0
H281 H 0.6592 0.46957 0.82041 0.0
C282 C 0.67853 0.47927 0.93397 0.0
C283 C 0.67733 0.49391 0.00685 0.0
C284 C 0.59223 0.51529 0.85498 0.0
C285 C 0.63664 0.49771 0.89241 0.0
C286 C 0.5708 0.51624 0.80194 0.0
C287 C 0.57095 0.5019 0.72811 0.0
C288 C 0.61409 0.49977 0.83472 0.0
C289 C 0.59337 0.48702 0.70894 0.0
C290 C 0.65817 0.48113 0.87631 0.0
C291 C 0.6558 0.51037 0.02044 0.0
N292 N 0.61403 0.48622 0.76222 0.0
N293 N 0.63625 0.51179 0.96383 0.0
H294 H 0.97656 0.6431 0.10207 0.0
H295 H 0.01568 0.59524 0.648 0.0
H296 H 0.01618 0.69304 0.92663 0.0
H297 H 0.98208 0.54404 0.83297 0.0
H298 H 0.01423 0.63196 0.7461 0.0
H299 H 0.97699 0.60688 0.00178 0.0
C300 C 0.98543 0.64629 0.04231 0.0
C301 C 0.99643 0.67078 0.02201 0.0
C302 C 0.00713 0.61269 0.76506 0.0
C303 C 0.99688 0.62986 0.90704 0.0
C304 C 0.00786 0.59174 0.70897 0.0
C305 C 0.99906 0.56649 0.73232 0.0
C306 C 0.99745 0.60835 0.8449 0.0
C307 C 0.9892 0.56312 0.8123 0.0
C308 C 0.98565 0.62572 0.98507 0.0
C309 C 0.00756 0.67425 0.9441 0.0
N310 N 0.9887 0.58376 0.86559 0.0
N311 N 0.0075 0.65397 0.88918 0.0
H312 H 0.98724 0.22797 0.25198 0.0
H313 H 0.97047 0.10509 0.42951 0.0
H314 H 0.06928 0.20793 0.26356 0.0
H315 H 0.05124 0.11176 0.50778 0.0
H316 H 0.97322 0.14974 0.37219 0.0
H317 H 0.97795 0.19404 0.35585 0.0
C318 C 0.00338 0.21702 0.27892 0.0
C319 C 0.02901 0.22048 0.24958 0.0
C320 C 0.99014 0.14178 0.40384 0.0
C321 C 0.01853 0.18086 0.36392 0.0
C322 C 0.98865 0.11608 0.4355 0.0
C323 C 0.01077 0.10452 0.47205 0.0
C324 C 0.01394 0.15591 0.40914 0.0
C325 C 0.03379 0.11969 0.47886 0.0
C326 C 0.99803 0.19725 0.33665 0.0
C327 C 0.04928 0.20573 0.28506 0.0
N328 N 0.03485 0.14441 0.44677 0.0
N329 N 0.04355 0.18626 0.33962 0.0
H330 H 0.30467 0.92188 0.22423 0.0
H331 H 0.38097 0.00967 0.54902 0.0
H332 H 0.2769 0.99621 0.31986 0.0
H333 H 0.41397 0.94136 0.42873 0.0
H334 H 0.3379 0.9978 0.49565 0.0
H335 H 0.33847 0.92097 0.33111 0.0
C336 C 0.3051 0.93751 0.26976 0.0
C337 C 0.28845 0.9595 0.26216 0.0
C338 C 0.35447 0.98522 0.4815 0.0
C339 C 0.32723 0.95886 0.38309 0.0
C340 C 0.37915 0.99208 0.51143 0.0
C341 C 0.40122 0.97686 0.49127 0.0
C342 C 0.35179 0.9631 0.43019 0.0
C343 C 0.39753 0.95389 0.44443 0.0
C344 C 0.32452 0.9371 0.33023 0.0
C345 C 0.28952 0.97904 0.32306 0.0
N346 N 0.3733 0.94792 0.41424 0.0
N347 N 0.30908 0.9786 0.37986 0.0
H348 H 0.45944 0.27639 0.30839 0.0
H349 H 0.54417 0.40363 0.41927 0.0
H350 H 0.53376 0.29539 0.19663 0.0
H351 H 0.466 0.38765 0.5092 0.0
H352 H 0.54593 0.35855 0.36426 0.0
H353 H 0.46767 0.31018 0.41314 0.0
C354 C 0.47799 0.28694 0.3082 0.0
C355 C 0.49585 0.28349 0.24388 0.0
C356 C 0.52851 0.36487 0.39685 0.0
C357 C 0.50498 0.32266 0.36053 0.0
C358 C 0.52746 0.39062 0.42773 0.0
C359 C 0.50466 0.3996 0.46689 0.0
C360 C 0.50664 0.34806 0.40545 0.0
C361 C 0.48375 0.38179 0.47761 0.0
C362 C 0.48256 0.30646 0.36714 0.0
C363 C 0.51948 0.29776 0.24535 0.0
N364 N 0.48514 0.35699 0.44634 0.0
N365 N 0.52314 0.31719 0.30168 0.0
H366 H 0.23517 0.50383 0.30197 0.0
H367 H 0.0944 0.56271 0.40402 0.0
H368 H 0.20231 0.5722 0.1819 0.0
H369 H 0.12513 0.48921 0.49885 0.0
H370 H 0.13812 0.57331 0.3496 0.0
H371 H 0.20052 0.50628 0.40582 0.0
C372 C 0.22128 0.52002 0.29964 0.0
C373 C 0.22121 0.53761 0.23314 0.0
C374 C 0.13529 0.55501 0.3832 0.0
C375 C 0.18109 0.53999 0.34893 0.0
C376 C 0.11035 0.54892 0.41377 0.0
C377 C 0.10599 0.52474 0.45393 0.0
C378 C 0.15593 0.53683 0.39342 0.0
C379 C 0.12741 0.50776 0.46629 0.0
C380 C 0.20128 0.52124 0.35811 0.0
C381 C 0.20271 0.55813 0.23216 0.0
N382 N 0.15135 0.51401 0.43548 0.0
N383 N 0.18296 0.5584 0.28808 0.0
H384 H 0.01685 0.77447 0.90299 0.0
H385 H 0.94785 0.8948 0.67845 0.0
H386 H 0.93338 0.78758 0.89665 0.0
H387 H 0.03002 0.8922 0.7436 0.0
H388 H 0.94364 0.84839 0.71601 0.0
H389 H 0.02261 0.80863 0.79778 0.0
C390 C 0.99961 0.78353 0.87597 0.0
C391 C 0.97464 0.77862 0.90888 0.0
C392 C 0.96265 0.85788 0.72136 0.0
C393 C 0.98109 0.81807 0.79141 0.0
C394 C 0.96507 0.88447 0.70065 0.0
C395 C 0.9892 0.89762 0.71016 0.0
C396 C 0.98447 0.84425 0.75224 0.0
C397 C 0.01092 0.88299 0.73718 0.0
C398 C 0.00294 0.80334 0.81708 0.0
C399 C 0.95294 0.79103 0.87287 0.0
N400 N 0.00796 0.85711 0.75837 0.0
N401 N 0.9567 0.81073 0.81733 0.0
H402 H 0.73292 0.00455 0.88523 0.0
H403 H 0.59495 0.0638 0.767 0.0
H404 H 0.70391 0.07875 0.9783 0.0
H405 H 0.62678 0.99132 0.66908 0.0
H406 H 0.63862 0.07518 0.81988 0.0
H407 H 0.69988 0.00603 0.7767 0.0
C408 C 0.72028 0.02171 0.88082 0.0
C409 C 0.7206 0.04118 0.94202 0.0
C410 C 0.63609 0.05696 0.78579 0.0
C411 C 0.68206 0.04248 0.82044 0.0
C412 C 0.61114 0.05041 0.75608 0.0
C413 C 0.60709 0.02625 0.71569 0.0
C414 C 0.65702 0.03917 0.77506 0.0
C415 C 0.62883 0.00984 0.70184 0.0
C416 C 0.70112 0.02239 0.81946 0.0
C417 C 0.70378 0.06299 0.93326 0.0
N418 N 0.65274 0.01644 0.73237 0.0
N419 N 0.68463 0.06268 0.87514 0.0
H420 H 0.50096 0.73089 0.90025 0.0
H421 H 0.56596 0.6074 0.6827 0.0
H422 H 0.58389 0.71461 0.89713 0.0
H423 H 0.48363 0.61365 0.74246 0.0
H424 H 0.5719 0.65369 0.71899 0.0
H425 H 0.49421 0.69681 0.79563 0.0
C426 C 0.51792 0.72113 0.87406 0.0
C427 C 0.54296 0.72513 0.90775 0.0
C428 C 0.55248 0.64502 0.72345 0.0
C429 C 0.53535 0.68577 0.791 0.0
C430 C 0.54907 0.6185 0.70349 0.0
C431 C 0.52436 0.60642 0.71184 0.0
C432 C 0.53109 0.65965 0.75248 0.0
C433 C 0.50313 0.62203 0.737 0.0
C434 C 0.51401 0.70138 0.8155 0.0
C435 C 0.56428 0.71186 0.87276 0.0
N436 N 0.50705 0.64781 0.75754 0.0
N437 N 0.55992 0.69223 0.81758 0.0
H438 H 0.81104 0.43471 0.00803 0.0
H439 H 0.89032 0.51862 0.68266 0.0
H440 H 0.78235 0.50604 0.89446 0.0
H441 H 0.92013 0.44776 0.79757 0.0
H442 H 0.84677 0.50832 0.73477 0.0
H443 H 0.84567 0.43224 0.90442 0.0
C444 C 0.81143 0.44921 0.95888 0.0
C445 C 0.79411 0.47074 0.95971 0.0
C446 C 0.86272 0.49484 0.74815 0.0
C447 C 0.83412 0.46871 0.84344 0.0
C448 C 0.8877 0.50083 0.71902 0.0
C449 C 0.90903 0.48438 0.7379 0.0
C450 C 0.859 0.4724 0.79763 0.0
C451 C 0.90429 0.46121 0.78297 0.0
C452 C 0.83136 0.448 0.90039 0.0
C453 C 0.79541 0.48917 0.89561 0.0
N454 N 0.87981 0.45612 0.81259 0.0
N455 N 0.81554 0.4881 0.84102 0.0
H456 H 1.00115 0.22159 0.89668 0.0
H457 H 0.0425 0.07478 0.76564 0.0
H458 H 0.06966 0.18295 -0.00436 0.0
H459 H 0.96456 0.10729 0.74059 0.0
H460 H 0.05681 0.11644 0.82977 0.0
H461 H 0.99267 0.18271 0.81119 0.0
C462 C 0.01487 0.20525 0.89841 0.0
C463 C 0.036 0.20535 0.95357 0.0
C464 C 0.03659 0.11431 0.81016 0.0
C465 C 0.02606 0.16057 0.85801 0.0
C466 C 0.02837 0.09051 0.77426 0.0
C467 C 1.00224 0.08744 0.74821 0.0
C468 C 0.01863 0.1352 0.81877 0.0
C469 C 0.98485 0.10861 0.76003 0.0
C470 C 0.00981 0.1829 0.85062 0.0
C471 C 0.05301 0.18348 0.95422 0.0
N472 N 0.99338 0.13155 0.79398 0.0
N473 N 0.0475 0.16179 0.90792 0.0
H474 H 0.30326 0.01928 0.95987 0.0
H475 H 0.42662 0.93688 0.80305 0.0
H476 H 0.30888 0.93426 0.96585 0.0
H477 H 0.41706 0.01951 0.74284 0.0
H478 H 0.38387 0.93704 0.86882 0.0
H479 H 0.34394 0.02104 0.87851 0.0
C480 C 0.31261 1.00099 0.94153 0.0
C481 C 0.30284 0.97657 0.96915 0.0
C482 C 0.39105 0.95522 0.84152 0.0
C483 C 0.34951 0.97842 0.8795 0.0
C484 C 0.41563 0.95521 0.8046 0.0
C485 C 0.42543 0.97821 0.76735 0.0
C486 C 0.37599 0.97844 0.84172 0.0
C487 C 0.4103 1.00138 0.77143 0.0
C488 C 0.33595 1.002 0.89622 0.0
C489 C 0.31585 0.95344 0.9455 0.0
N490 N 0.38621 1.00091 0.80778 0.0
N491 N 0.33866 0.95495 0.90296 0.0
H492 H 0.50344 0.27912 0.88146 0.0
H493 H 0.46859 0.42993 0.77505 0.0
H494 H 0.44443 0.323 0.01248 0.0
H495 H 0.54181 0.39162 0.71551 0.0
H496 H 0.45346 0.38856 0.8396 0.0
H497 H 0.51039 0.31745 0.79129 0.0
C498 C 0.4913 0.29651 0.88913 0.0
C499 C 0.47338 0.29806 0.95406 0.0
C500 C 0.47281 0.38934 0.81214 0.0
C501 C 0.48165 0.34205 0.85353 0.0
C502 C 0.4815 0.41293 0.7759 0.0
C503 C 0.50663 0.41437 0.74087 0.0
C504 C 0.48921 0.367 0.81185 0.0
C505 C 0.52243 0.39163 0.74272 0.0
C506 C 0.4955 0.31849 0.83865 0.0
C507 C 0.45841 0.32118 0.96272 0.0
N508 N 0.51344 0.36894 0.77735 0.0
N509 N 0.46309 0.34245 0.91365 0.0
H510 H 0.22544 0.54227 0.86791 0.0
H511 H 0.08447 0.47959 0.76566 0.0
H512 H 0.19192 0.47811 0.00774 0.0
H513 H 0.10959 0.55817 0.69648 0.0
H514 H 0.12758 0.47242 0.83059 0.0
H515 H 0.18744 0.54074 0.77511 0.0
C516 C 0.21049 0.52727 0.87715 0.0
C517 C 0.21159 0.51035 0.94517 0.0
C518 C 0.12354 0.49115 0.80079 0.0
C519 C 0.168 0.50887 0.84153 0.0
C520 C 0.09897 0.4953 0.76432 0.0
C521 C 0.09328 0.51966 0.72699 0.0
C522 C 0.14256 0.51135 0.79828 0.0
C523 C 0.11289 0.53924 0.72588 0.0
C524 C 0.18869 0.5266 0.82507 0.0
C525 C 0.19159 0.49149 0.95566 0.0
N526 N 0.1366 0.53465 0.76088 0.0
N527 N 0.17039 0.49145 0.90495 0.0
H528 H 0.98832 0.83671 0.09812 0.0
H529 H 0.01099 0.88894 0.53915 0.0
H530 H 0.96515 0.78805 0.30485 0.0
H531 H 0.98443 0.94172 0.34809 0.0
H532 H 0.99743 0.85109 0.45552 0.0
H533 H 0.99029 0.87476 0.18788 0.0
C534 C 0.983 0.83393 0.16196 0.0
C535 C 0.97588 0.80887 0.19304 0.0
C536 C 0.99422 0.87093 0.43239 0.0
C537 C 0.97958 0.85278 0.29733 0.0
C538 C 1.00206 0.89249 0.47965 0.0
C539 C 0.99895 0.91835 0.44973 0.0
C540 C 0.98398 0.87527 0.35361 0.0
C541 C 0.98717 0.92202 0.37283 0.0
C542 C 0.98436 0.85584 0.21329 0.0
C543 C 0.97079 0.80678 0.27777 0.0
N544 N 0.98057 0.90061 0.32639 0.0
N545 N 0.97304 0.82842 0.32723 0.0
H546 H 0.70412 0.98246 0.24875 0.0
H547 H 0.57956 0.06491 0.39728 0.0
H548 H 0.69717 0.06727 0.23315 0.0
H549 H 0.59033 0.98316 0.4663 0.0
H550 H 0.62205 0.06446 0.32981 0.0
H551 H 0.66324 0.98099 0.32921 0.0
C552 C 0.69441 1.0008 0.26465 0.0
C553 C 0.7039 0.02504 0.23464 0.0
C554 C 0.61519 0.04653 0.35938 0.0
C555 C 0.657 0.02347 0.32334 0.0
C556 C 0.59075 0.0467 0.39729 0.0
C557 C 0.58138 0.02405 0.43759 0.0
C558 C 0.63054 0.02351 0.36135 0.0
C559 C 0.59676 1.00101 0.43541 0.0
C560 C 0.67096 0.99994 0.30946 0.0
C561 C 0.69042 0.04821 0.25528 0.0
N562 N 0.62071 1.00134 0.39816 0.0
N563 N 0.66753 0.04682 0.29744 0.0
H564 H 0.52696 0.66789 0.09814 0.0
H565 H 0.50472 0.61604 0.54081 0.0
H566 H 0.55194 0.71587 0.30406 0.0
H567 H 0.52797 0.56271 0.34777 0.0
H568 H 0.51916 0.65354 0.45686 0.0
H569 H 0.52411 0.6299 0.18826 0.0
C570 C 0.53248 0.67051 0.1619 0.0
C571 C 0.54042 0.69535 0.1926 0.0
C572 C 0.5215 0.63364 0.43337 0.0
C573 C 0.53574 0.65153 0.29738 0.0
C574 C 0.5132 0.61228 0.4809 0.0
C575 C 0.51511 0.58638 0.45057 0.0
C576 C 0.53098 0.62909 0.3539 0.0
C577 C 0.52621 0.58244 0.37295 0.0
C578 C 0.53062 0.64864 0.21345 0.0
C579 C 0.54572 0.6973 0.27726 0.0
N580 N 0.53327 0.60369 0.32631 0.0
N581 N 0.54301 0.67571 0.32695 0.0
H582 H 0.79096 0.46737 0.32732 0.0
H583 H 0.93283 0.5285 0.42663 0.0
H584 H 0.82597 0.52929 0.18145 0.0
H585 H 0.90645 0.45085 0.50114 0.0
H586 H 0.88997 0.53576 0.36011 0.0
H587 H 0.82893 0.46902 0.42026 0.0
C588 C 0.80626 0.48189 0.31662 0.0
C589 C 0.80557 0.49812 0.24691 0.0
C590 C 0.89368 0.51721 0.39142 0.0
C591 C 0.84908 0.49977 0.35092 0.0
C592 C 0.9181 0.51302 0.42883 0.0
C593 C 0.92337 0.48887 0.46803 0.0
C594 C 0.87438 0.4973 0.39497 0.0
C595 C 0.90349 0.46959 0.47022 0.0
C596 C 0.82803 0.48264 0.36883 0.0
C597 C 0.826 0.51641 0.23472 0.0
N598 N 0.87993 0.47423 0.43432 0.0
N599 N 0.84713 0.51655 0.2857 0.0
loop_
_geom_bond_atom_site_label_1
_geom_bond_atom_site_label_2
_geom_bond_distance
_geom_bond_site_symmetry_2
_ccdc_geom_bond_type
H0 C3 0.929 . S
H1 C6 0.929 . S
H2 C8 0.930 . S
C3 H0 0.929 . S
C3 C4 1.398 . S
C3 C5 1.396 1_554 S
C4 C3 1.398 . S
C4 C8 1.407 . S
C5 C3 1.396 1_556 S
C5 C6 1.394 . S
C6 H1 0.929 . S
C6 C5 1.394 . S
C6 C7 1.382 1_556 S
C7 C6 1.382 1_554 S
C7 C8 1.392 . S
C7 N9 1.420 . S
C8 H2 0.930 . S
C8 C4 1.407 . S
C8 C7 1.392 . S
N9 C7 1.420 . S
N9 C10 1.244 1_554 S
C10 N9 1.244 1_556 S
H11 C14 0.929 . S
H12 C17 0.929 . S
H13 C19 0.930 . S
C14 H11 0.929 . S
C14 C15 1.398 . S
C14 C16 1.396 1_554 S
C15 C14 1.398 . S
C15 C19 1.407 . S
C16 C14 1.396 1_556 S
C16 C17 1.394 . S
C17 H12 0.929 . S
C17 C16 1.394 . S
C17 C18 1.382 1_556 S
C18 C17 1.382 1_554 S
C18 C19 1.392 . S
C18 N20 1.420 . S
C19 H13 0.930 . S
C19 C15 1.407 . S
C19 C18 1.392 . S
N20 C18 1.420 . S
N20 C21 1.244 1_554 S
C21 N20 1.244 1_556 S
H22 C25 0.929 . S
H23 C28 0.929 . S
H24 C30 0.930 . S
C25 H22 0.929 . S
C25 C26 1.395 1_565 S
C25 C27 1.394 1_564 S
C26 C25 1.395 1_545 S
C26 C30 1.414 . S
C27 C25 1.394 1_546 S
C27 C28 1.397 . S
C28 H23 0.929 . S
C28 C27 1.397 . S
C28 C29 1.382 1_556 S
C29 C28 1.382 1_554 S
C29 C30 1.392 . S
C29 N31 1.420 . S
C30 H24 0.930 . S
C30 C26 1.414 . S
C30 C29 1.392 . S
N31 C29 1.420 . S
N31 C32 1.232 1_544 S
C32 N31 1.232 1_566 S
H33 C36 0.929 . S
H34 C39 0.929 . S
H35 C41 0.930 . S
C36 H33 0.929 . S
C36 C37 1.398 . S
C36 C38 1.396 1_554 S
C37 C36 1.398 . S
C37 C41 1.407 . S
C38 C36 1.396 1_556 S
C38 C39 1.394 . S
C39 H34 0.929 . S
C39 C38 1.394 . S
C39 C40 1.382 1_556 S
C40 C39 1.382 1_554 S
C40 C41 1.392 . S
C40 N42 1.420 . S
C41 H35 0.930 . S
C41 C37 1.407 . S
C41 C40 1.392 . S
N42 C40 1.420 . S
N42 C43 1.244 1_554 S
C43 N42 1.244 1_556 S
H44 C47 0.929 . S
H45 C50 0.929 . S
H46 C52 0.930 . S
C47 H44 0.929 . S
C47 C48 1.398 . S
C47 C49 1.396 . S
C48 C47 1.398 . S
C48 C52 1.407 . S
C49 C47 1.396 . S
C49 C50 1.394 . S
C50 H45 0.929 . S
C50 C49 1.394 . S
C50 C51 1.382 . S
C51 C50 1.382 . S
C51 C52 1.392 . S
C51 N53 1.420 . S
C52 H46 0.930 . S
C52 C48 1.407 . S
C52 C51 1.392 . S
N53 C51 1.420 . S
N53 C54 1.244 . S
C54 N53 1.244 . S
H55 C58 0.929 . S
H56 C61 0.929 . S
H57 C63 0.930 . S
C58 H55 0.929 . S
C58 C59 1.398 . S
C58 C60 1.396 . S
C59 C58 1.398 . S
C59 C63 1.407 . S
C60 C58 1.396 . S
C60 C61 1.394 . S
C61 H56 0.929 . S
C61 C60 1.394 . S
C61 C62 1.382 . S
C62 C61 1.382 . S
C62 C63 1.392 . S
C62 N64 1.420 . S
C63 H57 0.930 . S
C63 C59 1.407 . S
C63 C62 1.392 . S
N64 C62 1.420 . S
N64 C65 1.244 . S
C65 N64 1.244 . S
H66 C69 0.929 . S
H67 C72 0.929 . S
H68 C74 0.930 . S
C69 H66 0.929 . S
C69 C70 1.395 1_565 S
C69 C71 1.394 1_565 S
C70 C69 1.395 1_545 S
C70 C74 1.416 . S
C71 C69 1.394 1_545 S
C71 C72 1.398 . S
C72 H67 0.929 . S
C72 C71 1.398 . S
C72 C73 1.382 . S
C73 C72 1.382 . S
C73 C74 1.392 . S
C73 N75 1.420 . S
C74 H68 0.930 . S
C74 C70 1.416 . S
C74 C73 1.392 . S
N75 C73 1.420 . S
N75 C76 1.236 1_545 S
C76 N75 1.236 1_565 S
H77 C80 0.929 . S
H78 C83 0.929 . S
H79 C85 0.930 . S
C80 H77 0.929 . S
C80 C81 1.398 . S
C80 C82 1.396 . S
C81 C80 1.398 . S
C81 C85 1.407 . S
C82 C80 1.396 . S
C82 C83 1.394 . S
C83 H78 0.929 . S
C83 C82 1.394 . S
C83 C84 1.382 . S
C84 C83 1.382 . S
C84 C85 1.392 . S
C84 N86 1.420 . S
C85 H79 0.930 . S
C85 C81 1.407 . S
C85 C84 1.392 . S
N86 C84 1.420 . S
N86 C87 1.244 . S
C87 N86 1.244 . S
Zn88 O94 1.969 1_455 S
Zn88 O95 1.965 . S
Zn88 O99 2.024 . S
Zn88 O104 1.969 1_455 S
Zn89 O96 1.973 . S
Zn89 O102 1.970 . S
Zn89 O103 1.963 1_455 S
Zn89 O105 2.021 1_455 S
C90 O91 1.229 . S
C90 O99 1.058 . S
O91 C90 1.229 . S
C92 O93 1.229 1_655 S
C92 O105 1.058 . S
O93 C92 1.229 1_455 S
O94 Zn88 1.969 1_655 S
O94 C97 1.267 1_655 S
O95 Zn88 1.965 . S
O95 C106 1.260 1_545 S
O96 Zn89 1.973 . S
O96 C106 1.258 . S
C97 O94 1.267 1_455 S
C97 O98 1.228 . S
O98 C97 1.228 . S
O99 Zn88 2.024 . S
O99 C90 1.058 . S
C100 O101 1.228 . S
C100 O102 1.267 1_655 S
O101 C100 1.228 . S
O102 Zn89 1.970 . S
O102 C100 1.267 1_455 S
O103 Zn89 1.963 1_655 S
O103 C107 1.260 1_565 S
O104 Zn88 1.969 1_655 S
O104 C107 1.258 . S
O105 Zn89 2.021 1_655 S
O105 C92 1.058 . S
C106 O95 1.260 1_565 S
C106 O96 1.258 . S
C107 O103 1.260 1_545 S
C107 O104 1.258 . S
Zn108 O114 1.969 . S
Zn108 O115 1.965 1_565 S
Zn108 O119 2.024 1_565 S
Zn108 O124 1.969 . S
Zn109 O116 1.969 . S
Zn109 O122 1.969 . S
Zn109 O123 1.965 1_545 S
Zn109 O125 2.024 1_545 S
C110 O111 1.229 1_545 S
C110 O119 1.058 . S
O111 C110 1.229 1_565 S
C112 O113 1.229 1_565 S
C112 O125 1.058 . S
O113 C112 1.229 1_545 S
O114 Zn108 1.969 . S
O114 C117 1.267 . S
O115 Zn108 1.965 1_545 S
O115 C126 1.260 . S
O116 Zn109 1.969 . S
O116 C126 1.258 . S
C117 O114 1.267 . S
C117 O118 1.228 1_565 S
O118 C117 1.228 1_545 S
O119 Zn108 2.024 1_545 S
O119 C110 1.058 . S
C120 O121 1.228 1_545 S
C120 O122 1.267 . S
O121 C120 1.228 1_565 S
O122 Zn109 1.969 . S
O122 C120 1.267 . S
O123 Zn109 1.965 1_565 S
O123 C127 1.260 . S
O124 Zn108 1.969 . S
O124 C127 1.258 . S
O125 Zn109 2.024 1_565 S
O125 C112 1.058 . S
C126 O115 1.260 . S
C126 O116 1.258 . S
C127 O123 1.260 . S
C127 O124 1.258 . S
Zn128 O134 1.969 . S
Zn128 O135 1.965 . S
Zn128 O139 2.024 . S
Zn128 O144 1.969 . S
Zn129 O136 1.969 . S
Zn129 O142 1.969 . S
Zn129 O143 1.965 . S
Zn129 O145 2.024 . S
C130 O131 1.229 . S
C130 O139 1.058 . S
O131 C130 1.229 . S
C132 O133 1.229 . S
C132 O145 1.058 . S
O133 C132 1.229 . S
O134 Zn128 1.969 . S
O134 C137 1.267 . S
O135 Zn128 1.965 . S
O135 C146 1.260 . S
O136 Zn129 1.969 . S
O136 C146 1.258 . S
C137 O134 1.267 . S
C137 O138 1.228 . S
O138 C137 1.228 . S
O139 Zn128 2.024 . S
O139 C130 1.058 . S
C140 O141 1.228 . S
C140 O142 1.267 . S
O141 C140 1.228 . S
O142 Zn129 1.969 . S
O142 C140 1.267 . S
O143 Zn129 1.965 . S
O143 C147 1.260 . S
O144 Zn128 1.969 . S
O144 C147 1.258 . S
O145 Zn129 2.024 . S
O145 C132 1.058 . S
C146 O135 1.260 . S
C146 O136 1.258 . S
C147 O143 1.260 . S
C147 O144 1.258 . S
Zn148 O154 1.969 . S
Zn148 O155 1.965 . S
Zn148 O159 2.024 . S
Zn148 O164 1.969 . S
Zn149 O156 1.969 . S
Zn149 O162 1.969 . S
Zn149 O163 1.965 . S
Zn149 O165 2.024 . S
C150 O151 1.229 . S
C150 O159 1.058 . S
O151 C150 1.229 . S
C152 O153 1.229 . S
C152 O165 1.058 . S
O153 C152 1.229 . S
O154 Zn148 1.969 . S
O154 C157 1.267 . S
O155 Zn148 1.965 . S
O155 C166 1.260 . S
O156 Zn149 1.969 . S
O156 C166 1.258 1_655 S
C157 O154 1.267 . S
C157 O158 1.228 . S
O158 C157 1.228 . S
O159 Zn148 2.024 . S
O159 C150 1.058 . S
C160 O161 1.228 . S
C160 O162 1.267 . S
O161 C160 1.228 . S
O162 Zn149 1.969 . S
O162 C160 1.267 . S
O163 Zn149 1.965 . S
O163 C167 1.260 1_655 S
O164 Zn148 1.969 . S
O164 C167 1.258 . S
O165 Zn149 2.024 . S
O165 C152 1.058 . S
C166 O155 1.260 . S
C166 O156 1.258 1_455 S
C167 O163 1.260 1_455 S
C167 O164 1.258 . S
H168 C174 0.930 . S
H169 C178 0.930 . S
H170 C183 0.929 . S
H171 C181 0.929 . S
H172 C176 0.929 . S
H173 C182 0.929 . S
C174 H168 0.930 . S
C174 C175 1.386 . S
C174 C182 1.378 . S
C175 C174 1.386 . S
C175 C183 1.414 1_565 S
C176 H172 0.929 . S
C176 C178 1.378 . S
C176 C180 1.349 1_545 S
C177 C180 1.463 . S
C177 C182 1.350 . S
C177 N185 1.427 1_565 S
C178 H169 0.930 . S
C178 C176 1.378 . S
C178 C179 1.334 1_545 S
C179 C178 1.334 1_565 S
C179 C181 1.467 . S
C180 C176 1.349 1_565 S
C180 C177 1.463 . S
C180 N184 1.429 . S
C181 H171 0.929 . S
C181 C179 1.467 . S
C181 N184 1.384 . S
C182 H173 0.929 . S
C182 C174 1.378 . S
C182 C177 1.350 . S
C183 H170 0.929 . S
C183 C175 1.414 1_545 S
C183 N185 1.384 . S
N184 C180 1.429 . S
N184 C181 1.384 . S
N185 C177 1.427 1_545 S
N185 C183 1.384 . S
H186 C192 0.930 . S
H187 C196 0.930 . S
H188 C201 0.929 . S
H189 C199 0.929 . S
H190 C194 0.929 . S
H191 C200 0.929 . S
C192 H186 0.930 . S
C192 C193 1.367 . S
C192 C200 1.378 . S
C193 C192 1.367 . S
C193 C201 1.433 . S
C194 H190 0.929 . S
C194 C196 1.378 . S
C194 C198 1.350 . S
C195 C198 1.463 . S
C195 C200 1.350 . S
C195 N203 1.427 . S
C196 H187 0.930 . S
C196 C194 1.378 . S
C196 C197 1.367 . S
C197 C196 1.367 . S
C197 C199 1.433 . S
C198 C194 1.350 . S
C198 C195 1.463 . S
C198 N202 1.427 . S
C199 H189 0.929 . S
C199 C197 1.433 . S
C199 N202 1.384 . S
C200 H191 0.929 . S
C200 C192 1.378 . S
C200 C195 1.350 . S
C201 H188 0.929 . S
C201 C193 1.433 . S
C201 N203 1.384 . S
N202 C198 1.427 . S
N202 C199 1.384 . S
N203 C195 1.427 . S
N203 C201 1.384 . S
H204 C210 0.930 . S
H205 C214 0.930 . S
H206 C219 0.929 . S
H207 C217 0.929 . S
H208 C212 0.929 . S
H209 C218 0.929 . S
C210 H204 0.930 . S
C210 C211 1.367 . S
C210 C218 1.378 . S
C211 C210 1.367 . S
C211 C219 1.433 . S
C212 H208 0.929 . S
C212 C214 1.378 . S
C212 C216 1.350 . S
C213 C216 1.463 . S
C213 C218 1.350 . S
C213 N221 1.427 . S
C214 H205 0.930 . S
C214 C212 1.378 . S
C214 C215 1.367 . S
C215 C214 1.367 . S
C215 C217 1.433 . S
C216 C212 1.350 . S
C216 C213 1.463 . S
C216 N220 1.427 . S
C217 H207 0.929 . S
C217 C215 1.433 . S
C217 N220 1.384 . S
C218 H209 0.929 . S
C218 C210 1.378 . S
C218 C213 1.350 . S
C219 H206 0.929 . S
C219 C211 1.433 . S
C219 N221 1.384 . S
N220 C216 1.427 . S
N220 C217 1.384 . S
N221 C213 1.427 . S
N221 C219 1.384 . S
H222 C228 0.930 . S
H223 C232 0.930 . S
H224 C237 0.929 . S
H225 C235 0.929 . S
H226 C230 0.929 . S
H227 C236 0.929 1_655 S
C228 H222 0.930 . S
C228 C229 1.367 . S
C228 C236 1.378 . S
C229 C228 1.367 . S
C229 C237 1.433 . S
C230 H226 0.929 . S
C230 C232 1.378 . S
C230 C234 1.350 . S
C231 C234 1.463 . S
C231 C236 1.350 . S
C231 N239 1.427 . S
C232 H223 0.930 . S
C232 C230 1.378 . S
C232 C233 1.367 . S
C233 C232 1.367 . S
C233 C235 1.433 1_455 S
C234 C230 1.350 . S
C234 C231 1.463 . S
C234 N238 1.427 . S
C235 H225 0.929 . S
C235 C233 1.433 1_655 S
C235 N238 1.384 1_655 S
C236 H227 0.929 1_455 S
C236 C228 1.378 . S
C236 C231 1.350 . S
C237 H224 0.929 . S
C237 C229 1.433 . S
C237 N239 1.384 . S
N238 C234 1.427 . S
N238 C235 1.384 1_455 S
N239 C231 1.427 . S
N239 C237 1.384 . S
H240 C246 0.930 . S
H241 C250 0.930 . S
H242 C255 0.929 . S
H243 C253 0.929 . S
H244 C248 0.929 . S
H245 C254 0.929 . S
C246 H240 0.930 . S
C246 C247 1.376 . S
C246 C254 1.378 . S
C247 C246 1.376 . S
C247 C255 1.424 1_565 S
C248 H244 0.929 . S
C248 C250 1.378 . S
C248 C252 1.350 . S
C249 C252 1.463 1_565 S
C249 C254 1.346 . S
C249 N257 1.431 1_565 S
C250 H241 0.930 . S
C250 C248 1.378 . S
C250 C251 1.367 . S
C251 C250 1.367 . S
C251 C253 1.433 1_545 S
C252 C248 1.350 . S
C252 C249 1.463 1_545 S
C252 N256 1.427 1_545 S
C253 H243 0.929 . S
C253 C251 1.433 1_565 S
C253 N256 1.384 . S
C254 H245 0.929 . S
C254 C246 1.378 . S
C254 C249 1.346 . S
C255 H242 0.929 . S
C255 C247 1.424 1_545 S
C255 N257 1.384 . S
N256 C252 1.427 1_565 S
N256 C253 1.384 . S
N257 C249 1.431 1_545 S
N257 C255 1.384 . S
H258 C264 0.930 . S
H259 C268 0.930 . S
H260 C273 0.929 1_554 S
H261 C271 0.929 . S
H262 C266 0.929 . S
H263 C272 0.929 . S
C264 H258 0.930 . S
C264 C265 1.367 . S
C264 C272 1.378 . S
C265 C264 1.367 . S
C265 C273 1.433 . S
C266 H262 0.929 . S
C266 C268 1.378 . S
C266 C270 1.350 . S
C267 C270 1.463 . S
C267 C272 1.350 . S
C267 N275 1.427 . S
C268 H259 0.930 . S
C268 C266 1.378 . S
C268 C269 1.367 . S
C269 C268 1.367 . S
C269 C271 1.433 . S
C270 C266 1.350 . S
C270 C267 1.463 . S
C270 N274 1.427 . S
C271 H261 0.929 . S
C271 C269 1.433 . S
C271 N274 1.384 . S
C272 H263 0.929 . S
C272 C264 1.378 . S
C272 C267 1.350 . S
C273 H260 0.929 1_556 S
C273 C265 1.433 . S
C273 N275 1.384 . S
N274 C270 1.427 . S
N274 C271 1.384 . S
N275 C267 1.427 . S
N275 C273 1.384 . S
H276 C282 0.930 . S
H277 C286 0.930 . S
H278 C291 0.929 . S
H279 C289 0.929 . S
H280 C284 0.929 . S
H281 C290 0.929 . S
C282 H276 0.930 . S
C282 C283 1.367 . S
C282 C290 1.378 . S
C283 C282 1.367 . S
C283 C291 1.433 . S
C284 H280 0.929 . S
C284 C286 1.378 . S
C284 C288 1.350 . S
C285 C288 1.463 . S
C285 C290 1.350 . S
C285 N293 1.427 . S
C286 H277 0.930 . S
C286 C284 1.378 . S
C286 C287 1.367 . S
C287 C286 1.367 . S
C287 C289 1.433 . S
C288 C284 1.350 . S
C288 C285 1.463 . S
C288 N292 1.427 . S
C289 H279 0.929 . S
C289 C287 1.433 . S
C289 N292 1.384 . S
C290 H281 0.929 . S
C290 C282 1.378 . S
C290 C285 1.350 . S
C291 H278 0.929 . S
C291 C283 1.433 . S
C291 N293 1.384 . S
N292 C288 1.427 . S
N292 C289 1.384 . S
N293 C285 1.427 . S
N293 C291 1.384 . S
H294 C300 0.930 1_554 S
H295 C304 0.940 . S
H296 C309 0.929 . S
H297 C307 0.929 . S
H298 C302 0.929 . S
H299 C308 0.929 . S
C300 H294 0.930 1_556 S
C300 C301 1.367 . S
C300 C308 1.378 . S
C301 C300 1.367 . S
C301 C309 1.433 . S
C302 H298 0.929 . S
C302 C304 1.378 . S
C302 C306 1.350 . S
C303 C306 1.463 . S
C303 C308 1.350 . S
C303 N311 1.427 . S
C304 H295 0.940 . S
C304 C302 1.378 . S
C304 C305 1.367 . S
C305 C304 1.367 . S
C305 C307 1.433 . S
C306 C302 1.350 . S
C306 C303 1.463 . S
C306 N310 1.427 . S
C307 H297 0.929 . S
C307 C305 1.433 . S
C307 N310 1.384 . S
C308 H299 0.929 . S
C308 C300 1.378 . S
C308 C303 1.350 . S
C309 H296 0.929 . S
C309 C301 1.433 . S
C309 N311 1.384 . S
N310 C306 1.427 . S
N310 C307 1.384 . S
N311 C303 1.427 . S
N311 C309 1.384 . S
H312 C318 0.930 . S
H313 C322 0.930 . S
H314 C327 0.929 . S
H315 C325 0.929 . S
H316 C320 0.929 . S
H317 C326 0.929 . S
C318 H312 0.930 . S
C318 C319 1.367 . S
C318 C326 1.378 . S
C319 C318 1.367 . S
C319 C327 1.433 . S
C320 H316 0.929 . S
C320 C322 1.378 . S
C320 C324 1.350 . S
C321 C324 1.463 . S
C321 C326 1.350 . S
C321 N329 1.427 . S
C322 H313 0.930 . S
C322 C320 1.378 . S
C322 C323 1.367 . S
C323 C322 1.367 . S
C323 C325 1.433 . S
C324 C320 1.350 . S
C324 C321 1.463 . S
C324 N328 1.427 . S
C325 H315 0.929 . S
C325 C323 1.433 . S
C325 N328 1.384 . S
C326 H317 0.929 . S
C326 C318 1.378 . S
C326 C321 1.350 . S
C327 H314 0.929 . S
C327 C319 1.433 . S
C327 N329 1.384 . S
N328 C324 1.427 . S
N328 C325 1.384 . S
N329 C321 1.427 . S
N329 C327 1.384 . S
H330 C336 0.930 . S
H331 C340 0.930 . S
H332 C345 0.929 . S
H333 C343 0.929 . S
H334 C338 0.929 . S
H335 C344 0.929 . S
C336 H330 0.930 . S
C336 C337 1.379 . S
C336 C344 1.378 . S
C337 C336 1.379 . S
C337 C345 1.422 1_565 S
C338 H334 0.929 . S
C338 C340 1.378 . S
C338 C342 1.350 1_545 S
C339 C342 1.463 . S
C339 C344 1.350 . S
C339 N347 1.427 1_565 S
C340 H331 0.930 . S
C340 C338 1.378 . S
C340 C341 1.367 1_545 S
C341 C340 1.367 1_565 S
C341 C343 1.433 . S
C342 C338 1.350 1_565 S
C342 C339 1.463 . S
C342 N346 1.427 . S
C343 H333 0.929 . S
C343 C341 1.433 . S
C343 N346 1.384 . S
C344 H335 0.929 . S
C344 C336 1.378 . S
C344 C339 1.350 . S
C345 H332 0.929 . S
C345 C337 1.422 1_545 S
C345 N347 1.384 . S
N346 C342 1.427 . S
N346 C343 1.384 . S
N347 C339 1.427 1_545 S
N347 C345 1.384 . S
H348 C354 0.930 . S
H349 C358 0.930 . S
H350 C363 0.929 . S
H351 C361 0.929 . S
H352 C356 0.929 . S
H353 C362 0.929 . S
C354 H348 0.930 . S
C354 C355 1.367 . S
C354 C362 1.378 . S
C355 C354 1.367 . S
C355 C363 1.433 . S
C356 H352 0.929 . S
C356 C358 1.378 . S
C356 C360 1.350 . S
C357 C360 1.463 . S
C357 C362 1.350 . S
C357 N365 1.427 . S
C358 H349 0.930 . S
C358 C356 1.378 . S
C358 C359 1.367 . S
C359 C358 1.367 . S
C359 C361 1.433 . S
C360 C356 1.350 . S
C360 C357 1.463 . S
C360 N364 1.427 . S
C361 H351 0.929 . S
C361 C359 1.433 . S
C361 N364 1.384 . S
C362 H353 0.929 . S
C362 C354 1.378 . S
C362 C357 1.350 . S
C363 H350 0.929 . S
C363 C355 1.433 . S
C363 N365 1.384 . S
N364 C360 1.427 . S
N364 C361 1.384 . S
N365 C357 1.427 . S
N365 C363 1.384 . S
H366 C372 0.930 . S
H367 C376 0.930 . S
H368 C381 0.929 . S
H369 C379 0.929 . S
H370 C374 0.929 . S
H371 C380 0.929 . S
C372 H366 0.930 . S
C372 C373 1.367 . S
C372 C380 1.378 . S
C373 C372 1.367 . S
C373 C381 1.433 . S
C374 H370 0.929 . S
C374 C376 1.378 . S
C374 C378 1.350 . S
C375 C378 1.463 . S
C375 C380 1.350 . S
C375 N383 1.427 . S
C376 H367 0.930 . S
C376 C374 1.378 . S
C376 C377 1.367 . S
C377 C376 1.367 . S
C377 C379 1.433 . S
C378 C374 1.350 . S
C378 C375 1.463 . S
C378 N382 1.427 . S
C379 H369 0.929 . S
C379 C377 1.433 . S
C379 N382 1.384 . S
C380 H371 0.929 . S
C380 C372 1.378 . S
C380 C375 1.350 . S
C381 H368 0.929 . S
C381 C373 1.433 . S
C381 N383 1.384 . S
N382 C378 1.427 . S
N382 C379 1.384 . S
N383 C375 1.427 . S
N383 C381 1.384 . S
H384 C390 0.930 1_554 S
H385 C394 0.930 . S
H386 C399 0.929 . S
H387 C397 0.929 . S
H388 C392 0.929 . S
H389 C398 0.929 . S
C390 H384 0.930 1_556 S
C390 C391 1.367 . S
C390 C398 1.378 . S
C391 C390 1.367 . S
C391 C399 1.433 . S
C392 H388 0.929 . S
C392 C394 1.378 . S
C392 C396 1.350 . S
C393 C396 1.463 . S
C393 C398 1.350 . S
C393 N401 1.427 . S
C394 H385 0.930 . S
C394 C392 1.378 . S
C394 C395 1.397 . S
C395 C394 1.397 . S
C395 C397 1.416 1_655 S
C396 C392 1.350 . S
C396 C393 1.463 . S
C396 N400 1.427 1_655 S
C397 H387 0.929 . S
C397 C395 1.416 1_455 S
C397 N400 1.384 . S
C398 H389 0.929 . S
C398 C390 1.378 . S
C398 C393 1.350 . S
C399 H386 0.929 . S
C399 C391 1.433 . S
C399 N401 1.384 . S
N400 C396 1.427 1_455 S
N400 C397 1.384 . S
N401 C393 1.427 . S
N401 C399 1.384 . S
H402 C408 0.930 . S
H403 C412 0.930 . S
H404 C417 0.929 . S
H405 C415 0.929 . S
H406 C410 0.929 . S
H407 C416 0.929 . S
C408 H402 0.930 . S
C408 C409 1.373 . S
C408 C416 1.378 . S
C409 C408 1.373 . S
C409 C417 1.426 1_565 S
C410 H406 0.929 . S
C410 C412 1.378 . S
C410 C414 1.350 . S
C411 C414 1.463 . S
C411 C416 1.350 1_545 S
C411 N419 1.427 . S
C412 H403 0.930 . S
C412 C410 1.378 . S
C412 C413 1.367 . S
C413 C412 1.367 . S
C413 C415 1.433 1_545 S
C414 C410 1.350 . S
C414 C411 1.463 . S
C414 N418 1.427 1_545 S
C415 H405 0.929 . S
C415 C413 1.433 1_565 S
C415 N418 1.384 . S
C416 H407 0.929 . S
C416 C408 1.378 . S
C416 C411 1.350 1_565 S
C417 H404 0.929 . S
C417 C409 1.426 1_545 S
C417 N419 1.384 . S
N418 C414 1.427 1_565 S
N418 C415 1.384 . S
N419 C411 1.427 . S
N419 C417 1.384 . S
H420 C426 0.930 . S
H421 C430 0.930 . S
H422 C435 0.929 . S
H423 C433 0.929 . S
H424 C428 0.929 . S
H425 C434 0.929 . S
C426 H420 0.930 . S
C426 C427 1.367 . S
C426 C434 1.378 . S
C427 C426 1.367 . S
C427 C435 1.433 . S
C428 H424 0.929 . S
C428 C430 1.378 . S
C428 C432 1.350 . S
C429 C432 1.463 . S
C429 C434 1.350 . S
C429 N437 1.427 . S
C430 H421 0.930 . S
C430 C428 1.378 . S
C430 C431 1.367 . S
C431 C430 1.367 . S
C431 C433 1.433 . S
C432 C428 1.350 . S
C432 C429 1.463 . S
C432 N436 1.427 . S
C433 H423 0.929 . S
C433 C431 1.433 . S
C433 N436 1.384 . S
C434 H425 0.929 . S
C434 C426 1.378 . S
C434 C429 1.350 . S
C435 H422 0.929 . S
C435 C427 1.433 . S
C435 N437 1.384 . S
N436 C432 1.427 . S
N436 C433 1.384 . S
N437 C429 1.427 . S
N437 C435 1.384 . S
H438 C444 0.930 . S
H439 C448 0.930 . S
H440 C453 0.929 . S
H441 C451 0.929 . S
H442 C446 0.929 . S
H443 C452 0.929 . S
C444 H438 0.930 . S
C444 C445 1.367 . S
C444 C452 1.378 . S
C445 C444 1.367 . S
C445 C453 1.433 . S
C446 H442 0.929 . S
C446 C448 1.378 . S
C446 C450 1.350 . S
C447 C450 1.463 . S
C447 C452 1.350 . S
C447 N455 1.427 . S
C448 H439 0.930 . S
C448 C446 1.378 . S
C448 C449 1.367 . S
C449 C448 1.367 . S
C449 C451 1.433 . S
C450 C446 1.350 . S
C450 C447 1.463 . S
C450 N454 1.427 . S
C451 H441 0.929 . S
C451 C449 1.433 . S
C451 N454 1.384 . S
C452 H443 0.929 . S
C452 C444 1.378 . S
C452 C447 1.350 . S
C453 H440 0.929 . S
C453 C445 1.433 . S
C453 N455 1.384 . S
N454 C450 1.427 . S
N454 C451 1.384 . S
N455 C447 1.427 . S
N455 C453 1.384 . S
H456 C462 0.930 1_554 S
H457 C466 0.930 . S
H458 C471 0.929 . S
H459 C469 0.929 1_655 S
H460 C464 0.929 . S
H461 C470 0.942 . S
C462 H456 0.930 1_556 S
C462 C463 1.367 1_556 S
C462 C470 1.378 . S
C463 C462 1.367 1_554 S
C463 C471 1.433 1_554 S
C464 H460 0.929 . S
C464 C466 1.378 . S
C464 C468 1.350 . S
C465 C468 1.463 . S
C465 C470 1.350 . S
C465 N473 1.427 . S
C466 H457 0.930 . S
C466 C464 1.378 . S
C466 C467 1.367 . S
C467 C466 1.367 . S
C467 C469 1.433 . S
C468 C464 1.350 . S
C468 C465 1.463 . S
C468 N472 1.427 . S
C469 H459 0.929 1_455 S
C469 C467 1.433 . S
C469 N472 1.384 . S
C470 H461 0.942 . S
C470 C462 1.378 . S
C470 C465 1.350 . S
C471 H458 0.929 . S
C471 C463 1.433 1_556 S
C471 N473 1.384 . S
N472 C468 1.427 . S
N472 C469 1.384 . S
N473 C465 1.427 . S
N473 C471 1.384 . S
H474 C480 0.930 1_554 S
H475 C484 0.930 . S
H476 C489 0.929 . S
H477 C487 0.929 . S
H478 C482 0.929 . S
H479 C488 0.929 . S
C480 H474 0.930 1_556 S
C480 C481 1.367 1_556 S
C480 C488 1.378 . S
C481 C480 1.367 1_554 S
C481 C489 1.433 1_544 S
C482 H478 0.929 . S
C482 C484 1.378 . S
C482 C486 1.350 1_565 S
C483 C486 1.463 . S
C483 C488 1.350 . S
C483 N491 1.427 1_545 S
C484 H475 0.930 . S
C484 C482 1.378 . S
C484 C485 1.367 1_565 S
C485 C484 1.367 1_545 S
C485 C487 1.433 . S
C486 C482 1.350 1_545 S
C486 C483 1.463 . S
C486 N490 1.427 . S
C487 H477 0.929 . S
C487 C485 1.433 . S
C487 N490 1.384 . S
C488 H479 0.929 . S
C488 C480 1.378 . S
C488 C483 1.350 . S
C489 H476 0.929 . S
C489 C481 1.433 1_566 S
C489 N491 1.384 . S
N490 C486 1.427 . S
N490 C487 1.384 . S
N491 C483 1.427 1_565 S
N491 C489 1.384 . S
H492 C498 0.930 . S
H493 C502 0.930 . S
H494 C507 0.929 . S
H495 C505 0.929 . S
H496 C500 0.929 . S
H497 C506 0.929 . S
C498 H492 0.930 . S
C498 C499 1.367 . S
C498 C506 1.378 . S
C499 C498 1.367 . S
C499 C507 1.433 1_554 S
C500 H496 0.929 . S
C500 C502 1.378 . S
C500 C504 1.350 . S
C501 C504 1.463 . S
C501 C506 1.350 1_556 S
C501 N509 1.427 . S
C502 H493 0.930 . S
C502 C500 1.378 . S
C502 C503 1.367 . S
C503 C502 1.367 . S
C503 C505 1.433 . S
C504 C500 1.350 . S
C504 C501 1.463 . S
C504 N508 1.427 . S
C505 H495 0.929 . S
C505 C503 1.433 . S
C505 N508 1.384 . S
C506 H497 0.929 . S
C506 C498 1.378 . S
C506 C501 1.350 1_554 S
C507 H494 0.929 . S
C507 C499 1.433 1_556 S
C507 N509 1.384 . S
N508 C504 1.427 . S
N508 C505 1.384 . S
N509 C501 1.427 . S
N509 C507 1.384 . S
H510 C516 0.930 . S
H511 C520 0.930 . S
H512 C525 0.929 . S
H513 C523 0.929 . S
H514 C518 0.929 . S
H515 C524 0.929 . S
C516 H510 0.930 . S
C516 C517 1.372 . S
C516 C524 1.378 . S
C517 C516 1.372 . S
C517 C525 1.431 1_556 S
C518 H514 0.929 . S
C518 C520 1.378 . S
C518 C522 1.350 . S
C519 C522 1.463 . S
C519 C524 1.350 . S
C519 N527 1.427 . S
C520 H511 0.930 . S
C520 C518 1.378 . S
C520 C521 1.367 . S
C521 C520 1.367 . S
C521 C523 1.433 . S
C522 C518 1.350 . S
C522 C519 1.463 . S
C522 N526 1.427 . S
C523 H513 0.929 . S
C523 C521 1.433 . S
C523 N526 1.384 . S
C524 H515 0.929 . S
C524 C516 1.378 . S
C524 C519 1.350 . S
C525 H512 0.929 . S
C525 C517 1.431 1_554 S
C525 N527 1.384 1_554 S
N526 C522 1.427 . S
N526 C523 1.384 . S
N527 C519 1.427 . S
N527 C525 1.384 1_556 S
H528 C534 0.930 . S
H529 C538 0.930 . S
H530 C543 0.929 . S
H531 C541 0.929 . S
H532 C536 0.929 . S
H533 C542 0.929 . S
C534 H528 0.930 . S
C534 C535 1.367 . S
C534 C542 1.378 . S
C535 C534 1.367 . S
C535 C543 1.433 . S
C536 H532 0.929 . S
C536 C538 1.378 . S
C536 C540 1.350 . S
C537 C540 1.463 . S
C537 C542 1.350 . S
C537 N545 1.427 . S
C538 H529 0.930 . S
C538 C536 1.378 . S
C538 C539 1.367 . S
C539 C538 1.367 . S
C539 C541 1.433 . S
C540 C536 1.350 . S
C540 C537 1.463 . S
C540 N544 1.427 . S
C541 H531 0.929 . S
C541 C539 1.433 . S
C541 N544 1.384 . S
C542 H533 0.929 . S
C542 C534 1.378 . S
C542 C537 1.350 . S
C543 H530 0.929 . S
C543 C535 1.433 . S
C543 N545 1.384 . S
N544 C540 1.427 . S
N544 C541 1.384 . S
N545 C537 1.427 . S
N545 C543 1.384 . S
H546 C552 0.930 . S
H547 C556 0.943 . S
H548 C561 0.929 . S
H549 C559 0.929 . S
H550 C554 0.929 . S
H551 C560 0.929 . S
C552 H546 0.930 . S
C552 C553 1.382 . S
C552 C560 1.378 . S
C553 C552 1.382 . S
C553 C561 1.421 1_565 S
C554 H550 0.929 . S
C554 C556 1.381 . S
C554 C558 1.350 1_545 S
C555 C558 1.463 . S
C555 C560 1.350 . S
C555 N563 1.427 1_565 S
C556 H547 0.943 . S
C556 C554 1.381 . S
C556 C557 1.353 1_545 S
C557 C556 1.353 1_565 S
C557 C559 1.433 . S
C558 C554 1.350 1_565 S
C558 C555 1.463 . S
C558 N562 1.427 . S
C559 H549 0.929 . S
C559 C557 1.433 . S
C559 N562 1.384 . S
C560 H551 0.929 . S
C560 C552 1.378 . S
C560 C555 1.350 . S
C561 H548 0.929 . S
C561 C553 1.421 1_545 S
C561 N563 1.384 . S
N562 C558 1.427 . S
N562 C559 1.384 . S
N563 C555 1.427 1_545 S
N563 C561 1.384 . S
H564 C570 0.930 . S
H565 C574 0.930 . S
H566 C579 0.929 . S
H567 C577 0.929 . S
H568 C572 0.929 . S
H569 C578 0.929 . S
C570 H564 0.930 . S
C570 C571 1.367 . S
C570 C578 1.378 . S
C571 C570 1.367 . S
C571 C579 1.433 . S
C572 H568 0.929 . S
C572 C574 1.378 . S
C572 C576 1.350 . S
C573 C576 1.463 . S
C573 C578 1.350 . S
C573 N581 1.427 . S
C574 H565 0.930 . S
C574 C572 1.378 . S
C574 C575 1.367 . S
C575 C574 1.367 . S
C575 C577 1.433 . S
C576 C572 1.350 . S
C576 C573 1.463 . S
C576 N580 1.427 . S
C577 H567 0.929 . S
C577 C575 1.433 . S
C577 N580 1.384 . S
C578 H569 0.929 . S
C578 C570 1.378 . S
C578 C573 1.350 . S
C579 H566 0.929 . S
C579 C571 1.433 . S
C579 N581 1.384 . S
N580 C576 1.427 . S
N580 C577 1.384 . S
N581 C573 1.427 . S
N581 C579 1.384 . S
H582 C588 0.930 . S
H583 C592 0.930 . S
H584 C597 0.929 . S
H585 C595 0.929 . S
H586 C590 0.929 . S
H587 C596 0.929 . S
C588 H582 0.930 . S
C588 C589 1.367 . S
C588 C596 1.378 . S
C589 C588 1.367 . S
C589 C597 1.433 . S
C590 H586 0.929 . S
C590 C592 1.378 . S
C590 C594 1.350 . S
C591 C594 1.463 . S
C591 C596 1.350 . S
C591 N599 1.427 . S
C592 H583 0.930 . S
C592 C590 1.378 . S
C592 C593 1.367 . S
C593 C592 1.367 . S
C593 C595 1.433 . S
C594 C590 1.350 . S
C594 C591 1.463 . S
C594 N598 1.427 . S
C595 H585 0.929 . S
C595 C593 1.433 . S
C595 N598 1.384 . S
C596 H587 0.929 . S
C596 C588 1.378 . S
C596 C591 1.350 . S
C597 H584 0.929 . S
C597 C589 1.433 . S
C597 N599 1.384 . S
N598 C594 1.427 . S
N598 C595 1.384 . S
N599 C591 1.427 . S
N599 C597 1.384 . S
C175 C76 1.466 . S
C179 C106 1.478 . S
C197 C126 1.554 . S
C193 C87 1.535 . S
C215 C146 1.464 . S
C211 C54 1.466 . S
C233 C166 1.554 . S
C229 C65 1.527 . S
C251 C107 1.470 . S
C247 C32 1.471 . S
C265 C43 1.534 . S
C269 C127 1.554 . S
C283 C10 1.471 . S
C287 C147 1.474 . S
C301 C21 1.546 . S
C305 C167 1.558 1_655 S
C323 C97 0.864 . S
C319 C60 0.872 . S
C341 C117 0.821 . S
C337 C71 0.834 1_565 S
C359 C137 0.872 . S
C355 C82 0.882 . S
C373 C49 0.859 . S
C377 C157 0.855 . S
C391 C16 0.848 . S
C395 C100 0.850 . S
C413 C120 0.849 . S
C409 C27 0.848 1_565 S
C431 C140 0.852 . S
C427 C38 0.865 . S
C445 C5 0.846 . S
C449 C160 0.830 . S
C463 C59 1.550 . S
C467 C90 1.503 . S
C481 C70 1.502 . S
C485 C110 1.447 . S
C503 C130 1.488 . S
C499 C81 1.537 . S
C521 C150 1.458 . S
C517 C48 1.500 1_556 S
C535 C15 1.536 . S
C539 C92 1.494 . S
C557 C112 1.460 . S
C553 C26 1.510 1_565 S
C575 C132 1.486 . S
C571 C37 1.530 . S
C589 C4 1.497 . S
C593 C152 1.451 . S
