# Generated by pormake.
# Topology ctn, (3,4)-cn, num edge types: 1
# Building blocks:
#     Node 0, Type 0, BuildingBlock: QEWDON_clean_linker_0, # of connection points: 3
#     Node 1, Type 0, BuildingBlock: QEWDON_clean_linker_0, # of connection points: 3
#     Node 2, Type 0, BuildingBlock: QEWDON_clean_linker_0, # of connection points: 3
#     Node 3, Type 0, BuildingBlock: QEWDON_clean_linker_0, # of connection points: 3
#     Node 4, Type 0, BuildingBlock: QEWDON_clean_linker_0, # of connection points: 3
#     Node 5, Type 0, BuildingBlock: QEWDON_clean_linker_0, # of connection points: 3
#     Node 6, Type 0, BuildingBlock: QEWDON_clean_linker_0, # of connection points: 3
#     Node 7, Type 0, BuildingBlock: QEWDON_clean_linker_0, # of connection points: 3
#     Node 8, Type 0, BuildingBlock: QEWDON_clean_linker_0, # of connection points: 3
#     Node 9, Type 0, BuildingBlock: QEWDON_clean_linker_0, # of connection points: 3
#     Node 10, Type 0, BuildingBlock: QEWDON_clean_linker_0, # of connection points: 3
#     Node 11, Type 0, BuildingBlock: QEWDON_clean_linker_0, # of connection points: 3
#     Node 12, Type 0, BuildingBlock: QEWDON_clean_linker_0, # of connection points: 3
#     Node 13, Type 0, BuildingBlock: QEWDON_clean_linker_0, # of connection points: 3
#     Node 14, Type 0, BuildingBlock: QEWDON_clean_linker_0, # of connection points: 3
#     Node 15, Type 0, BuildingBlock: QEWDON_clean_linker_0, # of connection points: 3
#     Node 16, Type 1, BuildingBlock: TATPOV_clean_sbu_0, # of connection points: 4
#     Node 17, Type 1, BuildingBlock: TATPOV_clean_sbu_0, # of connection points: 4
#     Node 18, Type 1, BuildingBlock: TATPOV_clean_sbu_0, # of connection points: 4
#     Node 19, Type 1, BuildingBlock: TATPOV_clean_sbu_0, # of connection points: 4
#     Node 20, Type 1, BuildingBlock: TATPOV_clean_sbu_0, # of connection points: 4
#     Node 21, Type 1, BuildingBlock: TATPOV_clean_sbu_0, # of connection points: 4
#     Node 22, Type 1, BuildingBlock: TATPOV_clean_sbu_0, # of connection points: 4
#     Node 23, Type 1, BuildingBlock: TATPOV_clean_sbu_0, # of connection points: 4
#     Node 24, Type 1, BuildingBlock: TATPOV_clean_sbu_0, # of connection points: 4
#     Node 25, Type 1, BuildingBlock: TATPOV_clean_sbu_0, # of connection points: 4
#     Node 26, Type 1, BuildingBlock: TATPOV_clean_sbu_0, # of connection points: 4
#     Node 27, Type 1, BuildingBlock: TATPOV_clean_sbu_0, # of connection points: 4
#     Edge 28, Type (0, 1), BuildingBlock: ZUJKAS_clean_linker_0, # of connection points: 2
#     Edge 29, Type (0, 1), BuildingBlock: ZUJKAS_clean_linker_0, # of connection points: 2
#     Edge 30, Type (0, 1), BuildingBlock: ZUJKAS_clean_linker_0, # of connection points: 2
#     Edge 31, Type (0, 1), BuildingBlock: ZUJKAS_clean_linker_0, # of connection points: 2
#     Edge 32, Type (0, 1), BuildingBlock: ZUJKAS_clean_linker_0, # of connection points: 2
#     Edge 33, Type (0, 1), BuildingBlock: ZUJKAS_clean_linker_0, # of connection points: 2
#     Edge 34, Type (0, 1), BuildingBlock: ZUJKAS_clean_linker_0, # of connection points: 2
#     Edge 35, Type (0, 1), BuildingBlock: ZUJKAS_clean_linker_0, # of connection points: 2
#     Edge 36, Type (0, 1), BuildingBlock: ZUJKAS_clean_linker_0, # of connection points: 2
#     Edge 37, Type (0, 1), BuildingBlock: ZUJKAS_clean_linker_0, # of connection points: 2
#     Edge 38, Type (0, 1), BuildingBlock: ZUJKAS_clean_linker_0, # of connection points: 2
#     Edge 39, Type (0, 1), BuildingBlock: ZUJKAS_clean_linker_0, # of connection points: 2
#     Edge 40, Type (0, 1), BuildingBlock: ZUJKAS_clean_linker_0, # of connection points: 2
#     Edge 41, Type (0, 1), BuildingBlock: ZUJKAS_clean_linker_0, # of connection points: 2
#     Edge 42, Type (0, 1), BuildingBlock: ZUJKAS_clean_linker_0, # of connection points: 2
#     Edge 43, Type (0, 1), BuildingBlock: ZUJKAS_clean_linker_0, # of connection points: 2
#     Edge 44, Type (0, 1), BuildingBlock: ZUJKAS_clean_linker_0, # of connection points: 2
#     Edge 45, Type (0, 1), BuildingBlock: ZUJKAS_clean_linker_0, # of connection points: 2
#     Edge 46, Type (0, 1), BuildingBlock: ZUJKAS_clean_linker_0, # of connection points: 2
#     Edge 47, Type (0, 1), BuildingBlock: ZUJKAS_clean_linker_0, # of connection points: 2
#     Edge 48, Type (0, 1), BuildingBlock: ZUJKAS_clean_linker_0, # of connection points: 2
#     Edge 49, Type (0, 1), BuildingBlock: ZUJKAS_clean_linker_0, # of connection points: 2
#     Edge 50, Type (0, 1), BuildingBlock: ZUJKAS_clean_linker_0, # of connection points: 2
#     Edge 51, Type (0, 1), BuildingBlock: ZUJKAS_clean_linker_0, # of connection points: 2
#     Edge 52, Type (0, 1), BuildingBlock: ZUJKAS_clean_linker_0, # of connection points: 2
#     Edge 53, Type (0, 1), BuildingBlock: ZUJKAS_clean_linker_0, # of connection points: 2
#     Edge 54, Type (0, 1), BuildingBlock: ZUJKAS_clean_linker_0, # of connection points: 2
#     Edge 55, Type (0, 1), BuildingBlock: ZUJKAS_clean_linker_0, # of connection points: 2
#     Edge 56, Type (0, 1), BuildingBlock: ZUJKAS_clean_linker_0, # of connection points: 2
#     Edge 57, Type (0, 1), BuildingBlock: ZUJKAS_clean_linker_0, # of connection points: 2
#     Edge 58, Type (0, 1), BuildingBlock: ZUJKAS_clean_linker_0, # of connection points: 2
#     Edge 59, Type (0, 1), BuildingBlock: ZUJKAS_clean_linker_0, # of connection points: 2
#     Edge 60, Type (0, 1), BuildingBlock: ZUJKAS_clean_linker_0, # of connection points: 2
#     Edge 61, Type (0, 1), BuildingBlock: ZUJKAS_clean_linker_0, # of connection points: 2
#     Edge 62, Type (0, 1), BuildingBlock: ZUJKAS_clean_linker_0, # of connection points: 2
#     Edge 63, Type (0, 1), BuildingBlock: ZUJKAS_clean_linker_0, # of connection points: 2
#     Edge 64, Type (0, 1), BuildingBlock: ZUJKAS_clean_linker_0, # of connection points: 2
#     Edge 65, Type (0, 1), BuildingBlock: ZUJKAS_clean_linker_0, # of connection points: 2
#     Edge 66, Type (0, 1), BuildingBlock: ZUJKAS_clean_linker_0, # of connection points: 2
#     Edge 67, Type (0, 1), BuildingBlock: ZUJKAS_clean_linker_0, # of connection points: 2
#     Edge 68, Type (0, 1), BuildingBlock: ZUJKAS_clean_linker_0, # of connection points: 2
#     Edge 69, Type (0, 1), BuildingBlock: ZUJKAS_clean_linker_0, # of connection points: 2
#     Edge 70, Type (0, 1), BuildingBlock: ZUJKAS_clean_linker_0, # of connection points: 2
#     Edge 71, Type (0, 1), BuildingBlock: ZUJKAS_clean_linker_0, # of connection points: 2
#     Edge 72, Type (0, 1), BuildingBlock: ZUJKAS_clean_linker_0, # of connection points: 2
#     Edge 73, Type (0, 1), BuildingBlock: ZUJKAS_clean_linker_0, # of connection points: 2
#     Edge 74, Type (0, 1), BuildingBlock: ZUJKAS_clean_linker_0, # of connection points: 2
#     Edge 75, Type (0, 1), BuildingBlock: ZUJKAS_clean_linker_0, # of connection points: 2
# Relax obj value: 0.110
# Max RMSD: 0.278
# Mean RMSD: 0.153
data_MOF--net-ctn--node1-TATPOV_clean_sbu_0--node2-QEWDON_clean_linker_0--edge1-ZUJKAS_clean_linker_0
_symmetry_space_group_name_H-M    P1
_symmetry_Int_Tables_number       1
_symmetry_cell_setting            triclinic
loop_
_symmetry_equiv_pos_as_xyz
'x, y, z'
_cell_length_a     68.25612
_cell_length_b     71.157691
_cell_length_c     75.672751
_cell_angle_alpha  99.173496
_cell_angle_beta   92.720391
_cell_angle_gamma 96.983536
loop_
_atom_site_label
_atom_site_type_symbol
_atom_site_fract_x
_atom_site_fract_y
_atom_site_fract_z
_atom_type_partial_charge
H0 H 0.09629 0.04006 0.04961 0.0
C1 C 0.08782 0.03697 0.0608 0.0
C2 C 0.09071 0.02085 0.06886 0.0
C3 C 0.07465 0.04961 0.06762 0.0
H4 H 0.08291 0.00575 0.09071 0.0
C5 C 0.08007 0.01751 0.08386 0.0
C6 C 0.06675 0.02997 0.09079 0.0
C7 C 0.0638 0.04559 0.08219 0.0
C8 C 0.07376 0.06827 0.06122 0.0
H9 H 0.05328 0.05506 0.08719 0.0
C10 C 0.07257 0.06978 0.0428 0.0
C11 C 0.07188 0.08787 0.03746 0.0
C12 C 0.07434 0.08503 0.07406 0.0
H13 H 0.07566 0.08446 0.08829 0.0
C14 C 0.07345 0.10278 0.06882 0.0
H15 H 0.07219 0.05705 0.03274 0.0
C16 C 0.07218 0.10422 0.05071 0.0
H17 H 0.07126 0.11821 0.04704 0.0
H18 H 0.07377 0.11551 0.07886 0.0
H19 H 0.35 0.73413 0.21203 0.0
C20 C 0.33952 0.72112 0.2094 0.0
C21 C 0.34515 0.70379 0.21338 0.0
C22 C 0.31991 0.72209 0.20347 0.0
H23 H 0.33508 0.67404 0.21422 0.0
C24 C 0.33104 0.68731 0.21069 0.0
C25 C 0.3113 0.68814 0.20509 0.0
C26 C 0.30592 0.70556 0.20124 0.0
C27 C 0.31303 0.74097 0.20347 0.0
H28 H 0.29055 0.70667 0.19778 0.0
C29 C 0.31686 0.75164 0.18958 0.0
C30 C 0.30995 0.76963 0.19011 0.0
C31 C 0.30239 0.74831 0.21782 0.0
H32 H 0.29934 0.74026 0.22861 0.0
C33 C 0.29566 0.76609 0.21844 0.0
H34 H 0.32507 0.74597 0.17848 0.0
C35 C 0.29936 0.77668 0.20471 0.0
H36 H 0.29354 0.79025 0.20534 0.0
H37 H 0.28741 0.77162 0.22955 0.0
H38 H 0.00288 0.44306 0.03034 0.0
C39 C 0.99397 0.45469 0.03073 0.0
C40 C 0.99472 0.46854 0.04639 0.0
C41 C 0.98216 0.45614 0.01537 0.0
H42 H 0.98485 0.49525 0.05799 0.0
C43 C 0.98353 0.48389 0.04645 0.0
C44 C 0.97142 0.48531 0.03141 0.0
C45 C 0.97051 0.47118 0.01611 0.0
C46 C 0.98286 0.44294 0.99812 0.0
H47 H 0.9608 0.47203 0.00459 0.0
C48 C 0.98376 0.42314 0.99751 0.0
C49 C 0.98414 0.41099 0.98093 0.0
C50 C 0.98279 0.45038 0.98194 0.0
H51 H 0.9827 0.46558 0.98191 0.0
C52 C 0.98318 0.43839 0.96557 0.0
H53 H 0.98373 0.41713 0.0098 0.0
C54 C 0.98381 0.41885 0.96502 0.0
H55 H 0.98446 0.40991 0.95211 0.0
H56 H 0.98316 0.44431 0.95324 0.0
H57 H 0.78268 0.80384 0.24171 0.0
C58 C 0.78198 0.79653 0.22794 0.0
C59 C 0.79048 0.80599 0.21462 0.0
C60 C 0.77361 0.77725 0.2238 0.0
H61 H 0.79731 0.8028 0.18685 0.0
C62 C 0.78992 0.79596 0.19697 0.0
C63 C 0.78143 0.77665 0.19262 0.0
C64 C 0.77315 0.76747 0.20617 0.0
C65 C 0.76877 0.76631 0.23833 0.0
H66 H 0.76693 0.75246 0.2032 0.0
C67 C 0.75089 0.7671 0.24676 0.0
C68 C 0.74675 0.75632 0.26057 0.0
C69 C 0.78245 0.75479 0.24371 0.0
H70 H 0.79627 0.75404 0.2373 0.0
C71 C 0.77847 0.7442 0.25738 0.0
H72 H 0.74034 0.77602 0.24259 0.0
C73 C 0.76077 0.7449 0.26575 0.0
H74 H 0.75788 0.73619 0.27607 0.0
H75 H 0.78908 0.7353 0.26142 0.0
H76 H 0.12862 0.94435 0.48911 0.0
C77 C 0.11903 0.94869 0.47908 0.0
C78 C 0.12296 0.9671 0.47461 0.0
C79 C 0.10364 0.93544 0.46963 0.0
H80 H 0.11454 0.98663 0.45756 0.0
C81 C 0.11126 0.97241 0.461 0.0
C82 C 0.0957 0.95948 0.45159 0.0
C83 C 0.09187 0.94104 0.45607 0.0
C84 C 0.10131 0.91511 0.47225 0.0
H85 H 0.0802 0.93076 0.44854 0.0
C86 C 0.09898 0.90997 0.48934 0.0
C87 C 0.09636 0.89045 0.4913 0.0
C88 C 0.10156 0.90065 0.4573 0.0
H89 H 0.10359 0.90428 0.44408 0.0
C90 C 0.09953 0.88141 0.45927 0.0
H91 H 0.09851 0.92104 0.50089 0.0
C92 C 0.09693 0.87631 0.4761 0.0
H93 H 0.09539 0.86122 0.47723 0.0
H94 H 0.09992 0.87039 0.44769 0.0
H95 H 0.27311 0.68028 0.78455 0.0
C96 C 0.2704 0.6879 0.7976 0.0
C97 C 0.2809 0.68473 0.81302 0.0
C98 C 0.25693 0.70136 0.79864 0.0
H99 H 0.28555 0.69287 0.84177 0.0
C100 C 0.27724 0.6949 0.82981 0.0
C101 C 0.26361 0.70837 0.83115 0.0
C102 C 0.25327 0.71128 0.81546 0.0
C103 C 0.24933 0.70704 0.78189 0.0
H104 H 0.24351 0.72227 0.81614 0.0
C105 C 0.2289 0.70599 0.77731 0.0
C106 C 0.22239 0.71051 0.76069 0.0
C107 C 0.26304 0.71328 0.7701 0.0
H108 H 0.2788 0.71439 0.77346 0.0
C109 C 0.25664 0.71825 0.75395 0.0
H110 H 0.21823 0.70104 0.78627 0.0
C111 C 0.2365 0.71681 0.74922 0.0
H112 H 0.23192 0.72076 0.73656 0.0
H113 H 0.26734 0.72314 0.74501 0.0
H114 H 0.99092 0.59663 0.43727 0.0
C115 C 0.97877 0.58675 0.44054 0.0
C116 C 0.97649 0.58456 0.45849 0.0
C117 C 0.96501 0.57666 0.42685 0.0
H118 H 0.95845 0.57047 0.47641 0.0
C119 C 0.96043 0.57204 0.46257 0.0
C120 C 0.9466 0.56189 0.44907 0.0
C121 C 0.94904 0.56419 0.43121 0.0
C122 C 0.96666 0.57963 0.40805 0.0
H123 H 0.93833 0.55649 0.4207 0.0
C124 C 0.98416 0.5771 0.39937 0.0
C125 C 0.98504 0.5786 0.38109 0.0
C126 C 0.95029 0.58429 0.39846 0.0
H127 H 0.93671 0.5864 0.40491 0.0
C128 C 0.9513 0.58628 0.38048 0.0
H129 H 0.99669 0.5731 0.40659 0.0
C130 C 0.96851 0.58335 0.37179 0.0
H131 H 0.96888 0.58473 0.35776 0.0
H132 H 0.93864 0.5899 0.37321 0.0
H133 H 0.83108 0.8035 0.78199 0.0
C134 C 0.82845 0.79355 0.79134 0.0
C135 C 0.83789 0.77688 0.78969 0.0
C136 C 0.81641 0.79796 0.80554 0.0
H137 H 0.84265 0.75208 0.8017 0.0
C138 C 0.83468 0.76441 0.80226 0.0
C139 C 0.82239 0.76852 0.81634 0.0
C140 C 0.81303 0.78511 0.81763 0.0
C141 C 0.80897 0.81683 0.80899 0.0
H142 H 0.80341 0.78831 0.8284 0.0
C143 C 0.8002 0.82459 0.79506 0.0
C144 C 0.79347 0.84266 0.79866 0.0
C145 C 0.81105 0.82738 0.82651 0.0
H146 H 0.81805 0.82192 0.83743 0.0
C147 C 0.80437 0.84522 0.83011 0.0
H148 H 0.79855 0.81657 0.78152 0.0
C149 C 0.7956 0.85282 0.81633 0.0
H150 H 0.79017 0.86655 0.81959 0.0
H151 H 0.80595 0.85318 0.84365 0.0
H152 H 0.33403 0.30138 0.27998 0.0
C153 C 0.33021 0.29088 0.2886 0.0
C154 C 0.33864 0.27362 0.28649 0.0
C155 C 0.31808 0.29532 0.30273 0.0
H156 H 0.34051 0.24721 0.29675 0.0
C157 C 0.33421 0.2606 0.29834 0.0
C158 C 0.32203 0.26489 0.31246 0.0
C159 C 0.3139 0.28218 0.31443 0.0
C160 C 0.31112 0.31434 0.3065 0.0
H161 H 0.30492 0.28586 0.32559 0.0
C162 C 0.30065 0.32155 0.29317 0.0
C163 C 0.29279 0.33892 0.29754 0.0
C164 C 0.3143 0.32503 0.32393 0.0
H165 H 0.32254 0.31985 0.33435 0.0
C166 C 0.30682 0.34244 0.32813 0.0
H167 H 0.29792 0.31335 0.27973 0.0
C168 C 0.29595 0.34929 0.31505 0.0
H169 H 0.28997 0.36271 0.31859 0.0
H170 H 0.30926 0.35053 0.3416 0.0
H171 H 0.50093 0.94873 0.53083 0.0
C172 C 0.4909 0.95948 0.53243 0.0
C173 C 0.49108 0.97156 0.54905 0.0
C174 C 0.47831 0.96159 0.51779 0.0
H175 H 0.47909 0.99561 0.56363 0.0
C176 C 0.47866 0.98596 0.55096 0.0
C177 C 0.46626 0.98856 0.53651 0.0
C178 C 0.46584 0.97604 0.52011 0.0
C179 C 0.4791 0.94964 0.49983 0.0
H180 H 0.45621 0.97798 0.50893 0.0
C181 C 0.48253 0.9303 0.49816 0.0
C182 C 0.48449 0.91952 0.48121 0.0
C183 C 0.4772 0.95782 0.48415 0.0
H184 H 0.47512 0.97275 0.48484 0.0
C185 C 0.47853 0.94698 0.46732 0.0
H186 H 0.48409 0.92371 0.51002 0.0
C187 C 0.48221 0.92799 0.46582 0.0
H188 H 0.48336 0.91992 0.45258 0.0
H189 H 0.47701 0.95343 0.45538 0.0
H190 H 0.27889 0.30646 0.74248 0.0
C191 C 0.27916 0.299 0.72885 0.0
C192 C 0.2887 0.30835 0.71594 0.0
C193 C 0.27098 0.27966 0.72451 0.0
H194 H 0.29742 0.30497 0.68868 0.0
C195 C 0.28932 0.29819 0.69847 0.0
C196 C 0.28102 0.27886 0.69393 0.0
C197 C 0.27176 0.26977 0.70706 0.0
C198 C 0.26421 0.26889 0.73867 0.0
H199 H 0.26552 0.25477 0.70388 0.0
C200 C 0.24718 0.2726 0.74767 0.0
C201 C 0.24087 0.26175 0.76088 0.0
C202 C 0.27493 0.25442 0.74298 0.0
H203 H 0.28807 0.25138 0.73614 0.0
C204 C 0.26887 0.24383 0.75616 0.0
H205 H 0.23883 0.2837 0.74428 0.0
C206 C 0.25196 0.24741 0.76505 0.0
H207 H 0.24728 0.23861 0.77491 0.0
H208 H 0.2772 0.23267 0.75939 0.0
H209 H 0.84943 0.23774 0.71461 0.0
C210 C 0.83895 0.22473 0.71269 0.0
C211 C 0.84474 0.2077 0.71728 0.0
C212 C 0.81929 0.22543 0.70684 0.0
H213 H 0.8347 0.17827 0.71955 0.0
C214 C 0.83066 0.19117 0.71523 0.0
C215 C 0.81093 0.19166 0.70929 0.0
C216 C 0.80544 0.20888 0.70503 0.0
C217 C 0.81233 0.24409 0.70584 0.0
H218 H 0.79018 0.20966 0.70087 0.0
C219 C 0.8173 0.25447 0.69197 0.0
C220 C 0.81032 0.27227 0.69151 0.0
C221 C 0.80043 0.25154 0.71916 0.0
H222 H 0.79647 0.2437 0.72991 0.0
C223 C 0.79366 0.26917 0.71882 0.0
H224 H 0.82641 0.2487 0.68162 0.0
C225 C 0.79854 0.27948 0.70512 0.0
H226 H 0.79269 0.29294 0.70495 0.0
H227 H 0.78447 0.2748 0.72914 0.0
H228 H 0.5955 0.53885 0.54756 0.0
C229 C 0.58653 0.53578 0.55845 0.0
C230 C 0.58972 0.52028 0.56731 0.0
C231 C 0.57284 0.54821 0.56449 0.0
H232 H 0.58069 0.50512 0.5888 0.0
C233 C 0.57856 0.51713 0.58205 0.0
C234 C 0.56457 0.52923 0.58807 0.0
C235 C 0.56178 0.54461 0.57909 0.0
C236 C 0.57147 0.56628 0.55721 0.0
H237 H 0.55144 0.55436 0.58392 0.0
C238 C 0.56828 0.56655 0.53864 0.0
C239 C 0.56557 0.58392 0.53262 0.0
C240 C 0.57278 0.58362 0.56936 0.0
H241 H 0.57556 0.58391 0.58363 0.0
C242 C 0.5705 0.60077 0.56335 0.0
H243 H 0.56717 0.55333 0.52909 0.0
C244 C 0.56676 0.60092 0.54515 0.0
H245 H 0.56488 0.61442 0.5408 0.0
H246 H 0.57149 0.61399 0.57287 0.0
H247 H 0.62905 0.446 0.98877 0.0
C248 C 0.61926 0.4502 0.97882 0.0
C249 C 0.6229 0.4686 0.97417 0.0
C250 C 0.60405 0.43665 0.96942 0.0
H251 H 0.61324 0.4879 0.95735 0.0
C252 C 0.61063 0.4736 0.96072 0.0
C253 C 0.59543 0.4603 0.95127 0.0
C254 C 0.5921 0.44187 0.95579 0.0
C255 C 0.60225 0.41632 0.97195 0.0
H256 H 0.58072 0.43129 0.94822 0.0
C257 C 0.59883 0.41089 0.98877 0.0
C258 C 0.5962 0.39129 0.99043 0.0
C259 C 0.60368 0.40211 0.95705 0.0
H260 H 0.60649 0.40599 0.94404 0.0
C261 C 0.60166 0.3828 0.95879 0.0
H262 H 0.59745 0.42176 1.00026 0.0
C263 C 0.59789 0.37739 0.97531 0.0
H264 H 0.59629 0.36226 0.97628 0.0
H265 H 0.6029 0.37197 0.94725 0.0
H266 H 0.77403 0.1842 0.28534 0.0
C267 C 0.77081 0.18933 0.29903 0.0
C268 C 0.78052 0.18306 0.31339 0.0
C269 C 0.75755 0.20287 0.30219 0.0
H270 H 0.78462 0.18637 0.34227 0.0
C271 C 0.77668 0.19055 0.33109 0.0
C272 C 0.76351 0.20431 0.33443 0.0
C273 C 0.75373 0.21007 0.31982 0.0
C274 C 0.75107 0.21249 0.2875 0.0
H275 H 0.7444 0.2214 0.32214 0.0
C276 C 0.73163 0.20856 0.27953 0.0
C277 C 0.72582 0.21855 0.26586 0.0
C278 C 0.7646 0.22646 0.28196 0.0
H279 H 0.77956 0.22973 0.2881 0.0
C280 C 0.75887 0.2366 0.26875 0.0
H281 H 0.72129 0.19763 0.28378 0.0
C282 C 0.73966 0.23277 0.2608 0.0
H283 H 0.73559 0.24119 0.25081 0.0
H284 H 0.76932 0.24757 0.26472 0.0
H285 H 0.49086 0.09451 0.93481 0.0
C286 C 0.47809 0.08526 0.93787 0.0
C287 C 0.47484 0.08367 0.9558 0.0
C288 C 0.46464 0.07535 0.92385 0.0
H289 H 0.45528 0.07058 0.97327 0.0
C290 C 0.45807 0.07178 0.9595 0.0
C291 C 0.44463 0.06159 0.94567 0.0
C292 C 0.44801 0.06345 0.92785 0.0
C293 C 0.46763 0.07783 0.90506 0.0
H294 H 0.43764 0.05573 0.91708 0.0
C295 C 0.48612 0.07622 0.89792 0.0
C296 C 0.48887 0.07823 0.87996 0.0
C297 C 0.45192 0.08178 0.89416 0.0
H298 H 0.43759 0.08326 0.8994 0.0
C299 C 0.45462 0.08408 0.87644 0.0
H300 H 0.49826 0.07317 0.9063 0.0
C301 C 0.47292 0.08227 0.86934 0.0
H302 H 0.4744 0.08358 0.85539 0.0
H303 H 0.44243 0.08711 0.86813 0.0
Zn304 Zn 0.31344 0.87523 0.0104 0.0
Zn305 Zn 0.28 0.88891 0.01302 0.0
O306 O 0.28586 0.88037 0.0378 0.0
O307 O 0.31658 0.87401 0.03647 0.0
O308 O 0.25538 0.90251 0.01617 0.0
O309 O 0.32691 0.89743 0.00082 0.0
O310 O 0.29988 0.91077 0.00595 0.0
C311 C 0.30136 0.87565 0.04518 0.0
C312 C 0.28254 0.85193 0.98683 0.0
O313 O 0.27255 0.86555 0.99232 0.0
O314 O 0.30007 0.85236 0.99328 0.0
C315 C 0.24161 0.89852 0.02627 0.0
O316 O 0.2424 0.88401 0.03495 0.0
C317 C 0.3175 0.91166 0.00087 0.0
Zn318 Zn 0.12447 0.46587 0.24183 0.0
Zn319 Zn 0.15 0.49566 0.23639 0.0
O320 O 0.13601 0.50709 0.2585 0.0
O321 O 0.11453 0.48267 0.26248 0.0
O322 O 0.16989 0.51764 0.23222 0.0
O323 O 0.1465 0.45079 0.24609 0.0
O324 O 0.16747 0.47443 0.23971 0.0
C325 C 0.12207 0.50003 0.26709 0.0
C326 C 0.11799 0.47636 0.20721 0.0
O327 O 0.13193 0.48981 0.21316 0.0
O328 O 0.11235 0.46386 0.21671 0.0
C329 C 0.16428 0.53307 0.22857 0.0
O330 O 0.14528 0.53463 0.22778 0.0
C331 C 0.16397 0.45765 0.24373 0.0
Zn332 Zn 0.82143 0.61459 0.9647 0.0
Zn333 Zn 0.81671 0.64184 0.99167 0.0
O334 O 0.84288 0.63274 0.99929 0.0
O335 O 0.84833 0.61248 0.97542 0.0
O336 O 0.8131 0.66253 0.0123 0.0
O337 O 0.81853 0.63207 0.94696 0.0
O338 O 0.81682 0.65553 0.96939 0.0
C339 C 0.85371 0.62132 0.99108 0.0
C340 C 0.78769 0.60459 0.98394 0.0
O341 O 0.79278 0.62147 0.99268 0.0
O342 O 0.79773 0.59809 0.97126 0.0
C343 C 0.81313 0.65784 0.02782 0.0
O344 O 0.81567 0.64017 0.02946 0.0
C345 C 0.81722 0.64955 0.9526 0.0
Zn346 Zn 0.92427 0.01074 0.30949 0.0
Zn347 Zn 0.94571 0.01711 0.28388 0.0
O348 O 0.92969 0.04093 0.2873 0.0
O349 O 0.91132 0.03406 0.30909 0.0
O350 O 0.96348 0.02054 0.26332 0.0
O351 O 0.94647 0.0109 0.32709 0.0
O352 O 0.96595 0.0148 0.3053 0.0
C353 C 0.91629 0.04503 0.29803 0.0
C354 C 0.9152 0.98066 0.28043 0.0
O355 O 0.92785 0.99142 0.27337 0.0
O356 O 0.91113 0.98562 0.29648 0.0
C357 C 0.9572 0.02531 0.24876 0.0
O358 O 0.93892 0.02918 0.24723 0.0
C359 C 0.96364 0.01236 0.32152 0.0
Zn360 Zn 0.31928 0.11769 0.46422 0.0
Zn361 Zn 0.31488 0.14458 0.49207 0.0
O362 O 0.34045 0.13424 0.49938 0.0
O363 O 0.34433 0.11241 0.47615 0.0
O364 O 0.31176 0.16472 0.51333 0.0
O365 O 0.32042 0.13706 0.44793 0.0
O366 O 0.31599 0.15938 0.47057 0.0
C367 C 0.3502 0.1215 0.49163 0.0
C368 C 0.28365 0.10917 0.48156 0.0
O369 O 0.29012 0.12489 0.49187 0.0
O370 O 0.29326 0.10309 0.4684 0.0
C371 C 0.31248 0.1598 0.52875 0.0
O372 O 0.31528 0.1421 0.53001 0.0
C373 C 0.31846 0.15429 0.45397 0.0
Zn374 Zn 0.42509 0.51386 0.80943 0.0
Zn375 Zn 0.44582 0.51869 0.78292 0.0
O376 O 0.43141 0.54354 0.78748 0.0
O377 O 0.41601 0.53939 0.81175 0.0
O378 O 0.46289 0.52202 0.76183 0.0
O379 O 0.4474 0.50974 0.82512 0.0
O380 O 0.46651 0.51484 0.80332 0.0
C381 C 0.42038 0.54949 0.79986 0.0
C382 C 0.41225 0.48484 0.77994 0.0
O383 O 0.42642 0.49381 0.77292 0.0
O384 O 0.40823 0.49096 0.79579 0.0
C385 C 0.45534 0.52388 0.74659 0.0
O386 O 0.43618 0.52433 0.74463 0.0
C387 C 0.46437 0.51095 0.81911 0.0
Zn388 Zn 0.81409 0.37696 0.51037 0.0
Zn389 Zn 0.77956 0.38771 0.51288 0.0
O390 O 0.78644 0.37953 0.53759 0.0
O391 O 0.81787 0.37559 0.53635 0.0
O392 O 0.75329 0.39854 0.51603 0.0
O393 O 0.82571 0.39977 0.5008 0.0
O394 O 0.79759 0.41115 0.50601 0.0
C395 C 0.80248 0.37592 0.54499 0.0
C396 C 0.7852 0.35145 0.48668 0.0
O397 O 0.77389 0.36388 0.49228 0.0
O398 O 0.80294 0.3535 0.49308 0.0
C399 C 0.75203 0.41151 0.52949 0.0
O400 O 0.76742 0.41687 0.54108 0.0
C401 C 0.81518 0.4132 0.5009 0.0
Zn402 Zn 0.62366 0.96622 0.74113 0.0
Zn403 Zn 0.65023 0.99501 0.7352 0.0
O404 O 0.63805 0.00606 0.75847 0.0
O405 O 0.61847 0.98145 0.76481 0.0
O406 O 0.67062 0.01664 0.73092 0.0
O407 O 0.64431 0.94843 0.73916 0.0
O408 O 0.6667 0.97271 0.73658 0.0
C409 C 0.62603 0.99886 0.76874 0.0
C410 C 0.61449 0.97977 0.70848 0.0
O411 O 0.63089 0.99057 0.7128 0.0
O412 O 0.60777 0.9685 0.71876 0.0
C413 C 0.66717 0.034 0.73348 0.0
O414 O 0.64995 0.03793 0.73903 0.0
C415 C 0.66207 0.955 0.73747 0.0
Zn416 Zn 0.02341 0.24698 0.84104 0.0
Zn417 Zn 0.03495 0.20564 0.867 0.0
O418 O 0.06187 0.21157 0.85631 0.0
O419 O 0.04796 0.23314 0.84455 0.0
O420 O 0.03796 0.18858 0.88586 0.0
O421 O 0.01636 0.25588 0.86641 0.0
O422 O 0.02501 0.23145 0.87962 0.0
C423 C 0.06305 0.22472 0.84666 0.0
C424 C 0.01233 0.20406 0.83737 0.0
O425 O 0.0145 0.19106 0.84662 0.0
O426 O 0.02346 0.21961 0.84246 0.0
C427 C 0.03997 0.17089 0.88176 0.0
O428 O 0.04029 0.1634 0.86476 0.0
C429 C 0.01866 0.2479 0.88027 0.0
Zn430 Zn 0.53143 0.7424 0.35696 0.0
Zn431 Zn 0.53481 0.71309 0.3711 0.0
O432 O 0.56098 0.7166 0.35784 0.0
O433 O 0.5537 0.73813 0.34152 0.0
O434 O 0.53798 0.69182 0.38575 0.0
O435 O 0.53577 0.76124 0.37962 0.0
O436 O 0.53124 0.73526 0.39194 0.0
C437 C 0.56518 0.72659 0.34557 0.0
C438 C 0.4988 0.71406 0.34587 0.0
O439 O 0.50974 0.70379 0.35333 0.0
O440 O 0.50401 0.73192 0.34714 0.0
C441 C 0.53922 0.67408 0.38073 0.0
O442 O 0.53834 0.66714 0.36351 0.0
C443 C 0.53323 0.75351 0.39338 0.0
Zn444 Zn 0.99169 0.76075 0.62193 0.0
Zn445 Zn 0.02154 0.75381 0.64273 0.0
O446 O 0.03376 0.77807 0.63289 0.0
O447 O 0.00848 0.7838 0.61629 0.0
O448 O 0.04277 0.74839 0.66032 0.0
O449 O 0.97375 0.7635 0.6419 0.0
O450 O 0.99803 0.75684 0.65906 0.0
C451 C 0.02632 0.78815 0.62241 0.0
C452 C 0.00475 0.72448 0.60953 0.0
O453 O 0.01727 0.72974 0.62298 0.0
O454 O 0.99184 0.73509 0.60637 0.0
C455 C 0.05511 0.73665 0.65614 0.0
O456 O 0.0549 0.72799 0.63944 0.0
C457 C 0.98037 0.76071 0.65701 0.0
Zn458 Zn 0.49487 0.25325 0.12064 0.0
Zn459 Zn 0.52552 0.25095 0.14247 0.0
O460 O 0.53564 0.27477 0.13118 0.0
O461 O 0.51018 0.27591 0.11255 0.0
O462 O 0.54795 0.24779 0.15979 0.0
O463 O 0.47712 0.25739 0.14046 0.0
O464 O 0.50187 0.25386 0.15883 0.0
C465 C 0.52749 0.28257 0.11919 0.0
C466 C 0.51053 0.21803 0.11162 0.0
O467 O 0.52353 0.22591 0.12408 0.0
O468 O 0.49596 0.22645 0.10791 0.0
C469 C 0.54697 0.23246 0.16658 0.0
O470 O 0.53131 0.21952 0.16236 0.0
C471 C 0.48388 0.25655 0.1561 0.0
H472 H 0.29341 0.72648 0.85558 0.0
H473 H 0.29091 0.74949 0.88277 0.0
H474 H 0.22751 0.74261 0.87304 0.0
H475 H 0.22983 0.71928 0.84579 0.0
H476 H 0.27178 0.78486 0.88204 0.0
H477 H 0.23908 0.73724 0.92774 0.0
H478 H 0.2528 0.72835 0.90903 0.0
H479 H 0.22831 0.73414 0.90509 0.0
C480 C 0.27887 0.7295 0.85939 0.0
C481 C 0.2618 0.72097 0.84854 0.0
C482 C 0.2775 0.74277 0.87487 0.0
C483 C 0.25904 0.74769 0.87992 0.0
C484 C 0.24188 0.73889 0.86943 0.0
H485 H 0.25161 0.85015 0.96151 0.0
H486 H 0.24212 0.82468 0.93536 0.0
C487 C 0.24325 0.72566 0.85384 0.0
C488 C 0.25806 0.76287 0.89561 0.0
H489 H 0.24651 0.77023 0.9394 0.0
C490 C 0.26599 0.78175 0.89452 0.0
C491 C 0.25058 0.75868 0.91184 0.0
C492 C 0.24226 0.73852 0.91369 0.0
C493 C 0.26709 0.79651 0.90939 0.0
C494 C 0.26 0.79228 0.92575 0.0
C495 C 0.25166 0.77346 0.92675 0.0
C496 C 0.26358 0.80664 0.94243 0.0
C497 C 0.27673 0.81636 0.90781 0.0
C498 C 0.27834 0.80462 0.95522 0.0
C499 C 0.28382 0.81906 0.96997 0.0
C500 C 0.27455 0.83582 0.97237 0.0
C501 C 0.25901 0.83741 0.96004 0.0
C502 C 0.25363 0.82293 0.94509 0.0
H503 H 0.28302 0.81688 0.8946 0.0
H504 H 0.26563 0.82656 0.90957 0.0
H505 H 0.28875 0.82133 0.91856 0.0
H506 H 0.2862 0.79217 0.9534 0.0
H507 H 0.29574 0.81728 0.97928 0.0
H508 H 0.98571 0.55499 0.34927 0.0
H509 H 0.01444 0.5474 0.33287 0.0
H510 H 0.0529 0.58486 0.37416 0.0
H511 H 0.02403 0.59214 0.39093 0.0
H512 H 0.0417 0.57055 0.31883 0.0
H513 H 0.07807 0.53594 0.37024 0.0
H514 H 0.05309 0.5416 0.37164 0.0
H515 H 0.07366 0.56026 0.37745 0.0
C516 C 1.00029 0.56164 0.35484 0.0
C517 C 0.00268 0.57416 0.37135 0.0
C518 C 0.0167 0.5573 0.34547 0.0
C519 C 0.03585 0.56543 0.35234 0.0
C520 C 0.03831 0.57812 0.36877 0.0
H521 H 0.1278 0.53941 0.27652 0.0
H522 H 0.11055 0.55889 0.29901 0.0
C523 C 0.02184 0.58231 0.3783 0.0
C524 C 0.05297 0.56032 0.34209 0.0
H525 H 0.09292 0.5358 0.3429 0.0
C526 C 0.0531 0.5632 0.32415 0.0
C527 C 0.0678 0.55075 0.3491 0.0
C528 C 0.06817 0.54678 0.36811 0.0
C529 C 0.06694 0.55582 0.31275 0.0
C530 C 0.08135 0.54568 0.31959 0.0
C531 C 0.08192 0.54371 0.33777 0.0
C532 C 0.09379 0.53449 0.30755 0.0
C533 C 0.06522 0.55782 0.29319 0.0
C534 C 0.09062 0.51441 0.30542 0.0
C535 C 0.10041 0.50333 0.29273 0.0
C536 C 0.11368 0.51208 0.28189 0.0
C537 C 0.11762 0.53225 0.28463 0.0
C538 C 0.10771 0.54339 0.29738 0.0
H539 H 0.05144 0.5636 0.28955 0.0
H540 H 0.07801 0.56776 0.29024 0.0
H541 H 0.06545 0.54372 0.28452 0.0
H542 H 0.07997 0.50726 0.31315 0.0
H543 H 0.09716 0.48784 0.29111 0.0
H544 H 0.818 0.72922 0.81263 0.0
H545 H 0.8161 0.70974 0.83663 0.0
H546 H 0.82111 0.76121 0.87618 0.0
H547 H 0.82334 0.78073 0.85246 0.0
H548 H 0.84519 0.7122 0.86573 0.0
H549 H 0.77211 0.72761 0.88961 0.0
H550 H 0.77991 0.73183 0.86794 0.0
H551 H 0.78928 0.74837 0.88786 0.0
C552 C 0.81869 0.73636 0.82644 0.0
C553 C 0.82061 0.75649 0.83063 0.0
C554 C 0.8175 0.72524 0.84009 0.0
C555 C 0.81812 0.73408 0.8581 0.0
C556 C 0.82012 0.75413 0.86233 0.0
H557 H 0.81832 0.68887 0.95902 0.0
H558 H 0.81894 0.71036 0.93659 0.0
C559 C 0.82136 0.76524 0.84874 0.0
C560 C 0.81766 0.72242 0.87258 0.0
H561 H 0.79094 0.71051 0.90711 0.0
C562 C 0.83331 0.71176 0.87475 0.0
C563 C 0.80223 0.72211 0.8844 0.0
C564 C 0.78482 0.73296 0.88232 0.0
C565 C 0.834 0.70079 0.88852 0.0
C566 C 0.81841 0.70021 0.90017 0.0
C567 C 0.80288 0.71107 0.89816 0.0
C568 C 0.81745 0.68747 0.9138 0.0
C569 C 0.85151 0.69005 0.89059 0.0
C570 C 0.81593 0.66759 0.90832 0.0
C571 C 0.81561 0.65538 0.92098 0.0
C572 C 0.81663 0.66279 0.93944 0.0
C573 C 0.81757 0.68274 0.94492 0.0
C574 C 0.81794 0.69501 0.93216 0.0
H575 H 0.86453 0.69624 0.88416 0.0
H576 H 0.85578 0.69021 0.90496 0.0
H577 H 0.84752 0.67488 0.88402 0.0
H578 H 0.81509 0.66149 0.8942 0.0
H579 H 0.81467 0.64009 0.91624 0.0
H580 H 0.0555 0.95441 0.44476 0.0
H581 H 0.03661 0.96536 0.42081 0.0
H582 H 0.09097 0.9883 0.40075 0.0
H583 H 0.10994 0.97732 0.42454 0.0
H584 H 0.04166 0.0069 0.415 0.0
H585 H 0.05656 0.95418 0.356 0.0
H586 H 0.05837 0.94904 0.37861 0.0
H587 H 0.07704 0.9656 0.37144 0.0
C588 C 0.06341 0.96157 0.4351 0.0
C589 C 0.08418 0.9651 0.43657 0.0
C590 C 0.05263 0.96787 0.4215 0.0
C591 C 0.06244 0.97753 0.409 0.0
C592 C 0.08316 0.98074 0.4102 0.0
H593 H 0.00386 0.01576 0.31648 0.0
H594 H 0.03044 0.00997 0.3374 0.0
C595 C 0.09394 0.97459 0.42387 0.0
C596 C 0.05091 0.98508 0.39527 0.0
H597 H 0.03591 0.97719 0.35071 0.0
C598 C 0.04049 1.00051 0.40092 0.0
C599 C 0.04981 0.97697 0.37689 0.0
C600 C 0.06094 0.96047 0.37024 0.0
C601 C 0.02848 0.00771 0.38873 0.0
C602 C 0.02634 0.99883 0.37047 0.0
C603 C 0.0375 0.98395 0.36469 0.0
C604 C 0.01085 0.00321 0.35784 0.0
C605 C 0.01808 0.02469 0.39562 0.0
C606 C 0.99111 0.00108 0.36226 0.0
C607 C 0.97613 0.00454 0.35058 0.0
C608 C 0.98034 0.00988 0.33389 0.0
C609 C 1.00013 0.01182 0.32927 0.0
C610 C 0.01529 0.00848 0.34118 0.0
H611 H 0.02669 0.03397 0.40732 0.0
H612 H 0.01568 0.03352 0.38507 0.0
H613 H 0.0035 0.01945 0.40017 0.0
H614 H 0.98718 0.99641 0.37472 0.0
H615 H 0.96109 0.00261 0.35459 0.0
H616 H 0.29046 0.24232 0.68624 0.0
H617 H 0.29516 0.22416 0.65691 0.0
H618 H 0.28268 0.27204 0.63172 0.0
H619 H 0.27757 0.2903 0.66109 0.0
H620 H 0.26707 0.2149 0.62627 0.0
H621 H 0.33654 0.25853 0.613 0.0
H622 H 0.32761 0.25952 0.63517 0.0
H623 H 0.31609 0.2714 0.61906 0.0
C624 C 0.28845 0.24894 0.67447 0.0
C625 C 0.28352 0.26774 0.676 0.0
C626 C 0.2913 0.23858 0.65774 0.0
C627 C 0.28947 0.24684 0.64222 0.0
C628 C 0.28447 0.26555 0.64361 0.0
H629 H 0.30516 0.19717 0.53102 0.0
H630 H 0.29913 0.21914 0.55805 0.0
C631 C 0.28155 0.27594 0.66038 0.0
C632 C 0.29241 0.23557 0.6246 0.0
H633 H 0.32348 0.2325 0.59049 0.0
C634 C 0.27935 0.21877 0.6184 0.0
C635 C 0.30839 0.24076 0.61437 0.0
C636 C 0.32309 0.25845 0.62072 0.0
C637 C 0.28193 0.20688 0.60227 0.0
C638 C 0.29824 0.21175 0.59228 0.0
C639 C 0.31103 0.22881 0.59823 0.0
C640 C 0.30263 0.19882 0.57602 0.0
C641 C 0.26714 0.18922 0.59603 0.0
C642 C 0.30701 0.18032 0.57729 0.0
C643 C 0.31042 0.16776 0.56194 0.0
C644 C 0.30963 0.1735 0.54502 0.0
C645 C 0.30577 0.19227 0.54385 0.0
C646 C 0.30235 0.20485 0.55925 0.0
H647 H 0.25286 0.19038 0.60234 0.0
H648 H 0.26426 0.18673 0.58122 0.0
H649 H 0.27315 0.17651 0.59984 0.0
H650 H 0.30769 0.17554 0.59018 0.0
H651 H 0.31353 0.15348 0.56336 0.0
H652 H 0.57879 0.52061 0.62 0.0
H653 H 0.56109 0.51824 0.64716 0.0
H654 H 0.50811 0.53054 0.6204 0.0
H655 H 0.52548 0.53238 0.5931 0.0
H656 H 0.54297 0.54657 0.66755 0.0
H657 H 0.48798 0.48313 0.6414 0.0
H658 H 0.50976 0.48947 0.62989 0.0
H659 H 0.48844 0.50176 0.62793 0.0
C660 C 0.56326 0.52243 0.61977 0.0
C661 C 0.55355 0.5266 0.60429 0.0
C662 C 0.5532 0.52123 0.63537 0.0
C663 C 0.53319 0.52398 0.63579 0.0
C664 C 0.52343 0.52802 0.62034 0.0
H665 H 0.44386 0.52958 0.71294 0.0
H666 H 0.46367 0.52989 0.68692 0.0
C667 C 0.53346 0.52925 0.60477 0.0
C668 C 0.52266 0.52338 0.65254 0.0
H669 H 0.48211 0.50133 0.66944 0.0
C670 C 0.52976 0.53657 0.66803 0.0
C671 C 0.50541 0.51034 0.65317 0.0
C672 C 0.49753 0.49525 0.63727 0.0
C673 C 0.51973 0.5375 0.68392 0.0
C674 C 0.5023 0.52463 0.68447 0.0
C675 C 0.4954 0.51125 0.66904 0.0
C676 C 0.49065 0.52506 0.70069 0.0
C677 C 0.52753 0.55271 0.69976 0.0
C678 C 0.49915 0.5222 0.71718 0.0
C679 C 0.48784 0.52213 0.73219 0.0
C680 C 0.46772 0.52472 0.73097 0.0
C681 C 0.45929 0.52756 0.71442 0.0
C682 C 0.4706 0.52771 0.69948 0.0
H683 H 0.53769 0.56446 0.69571 0.0
H684 H 0.51525 0.55901 0.70663 0.0
H685 H 0.53594 0.54611 0.70953 0.0
H686 H 0.51445 0.51969 0.71839 0.0
H687 H 0.49479 0.51975 0.74466 0.0
H688 H 0.82241 0.3106 0.69393 0.0
H689 H 0.82306 0.32946 0.66958 0.0
H690 H 0.80728 0.27757 0.63105 0.0
H691 H 0.8067 0.25855 0.65542 0.0
H692 H 0.83541 0.30462 0.61946 0.0
H693 H 0.7705 0.33767 0.64502 0.0
H694 H 0.79117 0.34062 0.66126 0.0
H695 H 0.77855 0.31698 0.65279 0.0
C696 C 0.8193 0.30319 0.68025 0.0
C697 C 0.81421 0.28314 0.67658 0.0
C698 C 0.81961 0.31398 0.66637 0.0
C699 C 0.81469 0.30495 0.64859 0.0
C700 C 0.81094 0.28482 0.64473 0.0
H701 H 0.77227 0.35686 0.56026 0.0
H702 H 0.77537 0.34019 0.58603 0.0
C703 C 0.81071 0.27397 0.65863 0.0
C704 C 0.8124 0.31659 0.63421 0.0
H705 H 0.78574 0.35026 0.62116 0.0
C706 C 0.82456 0.3146 0.61979 0.0
C707 C 0.79796 0.32932 0.63454 0.0
C708 C 0.78365 0.33119 0.64913 0.0
C709 C 0.82288 0.32523 0.60579 0.0
C710 C 0.80893 0.33852 0.60647 0.0
C711 C 0.79658 0.34027 0.62077 0.0
C712 C 0.80655 0.35032 0.59219 0.0
C713 C 0.83574 0.32172 0.59022 0.0
C714 C 0.82275 0.36233 0.58769 0.0
C715 C 0.82105 0.37166 0.57292 0.0
C716 C 0.80297 0.36956 0.56263 0.0
C717 C 0.78633 0.35882 0.56802 0.0
C718 C 0.78814 0.3492 0.58265 0.0
H719 H 0.84121 0.30754 0.58923 0.0
H720 H 0.82759 0.32237 0.57733 0.0
H721 H 0.84883 0.33292 0.5922 0.0
H722 H 0.83691 0.36398 0.59524 0.0
H723 H 0.83407 0.38001 0.56915 0.0
H724 H 0.48368 0.97372 0.5844 0.0
H725 H 0.50767 0.97544 0.60984 0.0
H726 H 0.55403 0.96789 0.57362 0.0
H727 H 0.53023 0.96668 0.54802 0.0
H728 H 0.55069 0.9442 0.60399 0.0
H729 H 0.55354 0.02318 0.62429 0.0
H730 H 0.52925 0.00976 0.61944 0.0
H731 H 0.54577 0.01095 0.60178 0.0
C732 C 0.49898 0.97243 0.58183 0.0
C733 C 0.50511 0.97022 0.56422 0.0
C734 C 0.51262 0.97339 0.59636 0.0
C735 C 0.53257 0.97207 0.59352 0.0
C736 C 0.53865 0.96903 0.57598 0.0
H737 H 0.62545 0.99937 0.68129 0.0
H738 H 0.60733 0.99766 0.65216 0.0
C739 C 0.52503 0.96819 0.56141 0.0
C740 C 0.54703 0.97415 0.609 0.0
H741 H 0.56844 0.00643 0.64497 0.0
C742 C 0.55478 0.95781 0.61287 0.0
C743 C 0.55244 0.99201 0.62034 0.0
C744 C 0.54498 0.01006 0.61626 0.0
C745 C 0.56725 0.95872 0.62833 0.0
C746 C 0.57182 0.97639 0.6402 0.0
C747 C 0.56478 0.99291 0.63588 0.0
C748 C 0.58279 0.97769 0.65773 0.0
C749 C 0.5752 0.94073 0.63196 0.0
C750 C 0.57469 0.96742 0.67056 0.0
C751 C 0.58491 0.96837 0.68711 0.0
C752 C 0.60341 0.97973 0.69122 0.0
C753 C 0.61127 0.99044 0.6785 0.0
C754 C 0.60099 0.98946 0.66187 0.0
H755 H 0.57512 0.93014 0.61945 0.0
H756 H 0.59052 0.94405 0.63825 0.0
H757 H 0.56571 0.93393 0.64132 0.0
H758 H 0.56042 0.95865 0.66775 0.0
H759 H 0.57831 0.96007 0.69664 0.0
H760 H 0.86917 0.17959 0.71258 0.0
H761 H 0.89895 0.17749 0.73119 0.0
H762 H 0.89493 0.23354 0.76122 0.0
H763 H 0.86488 0.23552 0.74318 0.0
H764 H 0.93611 0.20154 0.73951 0.0
H765 H 0.89262 0.1979 0.79932 0.0
H766 H 0.88117 0.19457 0.77685 0.0
H767 H 0.88986 0.21833 0.78866 0.0
C768 C 0.8747 0.19152 0.72308 0.0
C769 C 0.86451 0.20764 0.72647 0.0
C770 C 0.89175 0.19033 0.73364 0.0
C771 C 0.89889 0.2052 0.74779 0.0
C772 C 0.88945 0.22176 0.75055 0.0
H773 H 0.00757 0.22874 0.81396 0.0
H774 H 0.98041 0.2273 0.79152 0.0
C775 C 0.87239 0.22296 0.74004 0.0
C776 C 0.91557 0.20304 0.76026 0.0
H777 H 0.92758 0.20142 0.80427 0.0
C778 C 0.93426 0.20141 0.75365 0.0
C779 C 0.91301 0.20252 0.77863 0.0
C780 C 0.89305 0.20324 0.78631 0.0
C781 C 0.95063 0.19992 0.76509 0.0
C782 C 0.94823 0.20025 0.78361 0.0
C783 C 0.92941 0.20127 0.79009 0.0
C784 C 0.96517 0.20044 0.79668 0.0
C785 C 0.97035 0.19797 0.75727 0.0
C786 C 0.96549 0.18597 0.80731 0.0
C787 C 0.98096 0.18687 0.82039 0.0
C788 C 0.99622 0.2024 0.82318 0.0
C789 C 0.99593 0.21672 0.81236 0.0
C790 C 0.98052 0.2158 0.79932 0.0
H791 H 0.9686 0.19259 0.7426 0.0
H792 H 0.97947 0.21226 0.75945 0.0
H793 H 0.97848 0.18809 0.76387 0.0
H794 H 0.95369 0.17405 0.80554 0.0
H795 H 0.98081 0.17561 0.82849 0.0
H796 H 0.51261 0.90467 0.46115 0.0
H797 H 0.52014 0.87169 0.45636 0.0
H798 H 0.47635 0.85659 0.49271 0.0
H799 H 0.46844 0.88979 0.49739 0.0
H800 H 0.53216 0.84807 0.48219 0.0
H801 H 0.45979 0.81948 0.44415 0.0
H802 H 0.46871 0.84483 0.44806 0.0
H803 H 0.46001 0.83343 0.46623 0.0
C804 C 0.50453 0.89434 0.46811 0.0
C805 C 0.48974 0.89972 0.47944 0.0
C806 C 0.50898 0.87556 0.46549 0.0
C807 C 0.4987 0.86171 0.47408 0.0
C808 C 0.48432 0.86707 0.48587 0.0
H809 H 0.51112 0.74501 0.4211 0.0
H810 H 0.50303 0.76801 0.44674 0.0
C811 C 0.4799 0.88601 0.48858 0.0
C812 C 0.50262 0.84157 0.46958 0.0
H813 H 0.48517 0.80016 0.44109 0.0
C814 C 0.52171 0.83735 0.47362 0.0
C815 C 0.48889 0.82755 0.45859 0.0
C816 C 0.46818 0.83141 0.45388 0.0
C817 C 0.52796 0.82009 0.4657 0.0
C818 C 0.51488 0.80695 0.45324 0.0
C819 C 0.49519 0.81031 0.45062 0.0
C820 C 0.52222 0.79208 0.44017 0.0
C821 C 0.54889 0.81659 0.46992 0.0
C822 C 0.53582 0.79796 0.42817 0.0
C823 C 0.54021 0.78503 0.41353 0.0
C824 C 0.53117 0.7659 0.4106 0.0
C825 C 0.51842 0.75966 0.42316 0.0
C826 C 0.51377 0.77275 0.43776 0.0
H827 H 0.55424 0.82354 0.4838 0.0
H828 H 0.5501 0.801 0.46841 0.0
H829 H 0.55874 0.82297 0.46058 0.0
H830 H 0.54216 0.81288 0.42951 0.0
H831 H 0.5501 0.79022 0.40407 0.0
H832 H 0.20476 0.26551 0.74542 0.0
H833 H 0.17314 0.26448 0.75955 0.0
H834 H 0.20338 0.26182 0.81029 0.0
H835 H 0.23494 0.26342 0.79643 0.0
H836 H 0.15779 0.2339 0.77431 0.0
H837 H 0.16518 0.29962 0.82546 0.0
H838 H 0.18129 0.29679 0.80722 0.0
H839 H 0.18593 0.28661 0.82708 0.0
C840 C 0.20471 0.26533 0.75971 0.0
C841 C 0.22229 0.26442 0.76981 0.0
C842 C 0.18664 0.26462 0.76773 0.0
C843 C 0.18592 0.26321 0.786 0.0
C844 C 0.20359 0.26327 0.79626 0.0
H845 H 0.09694 0.20737 0.84389 0.0
H846 H 0.12639 0.21735 0.82845 0.0
C847 C 0.2216 0.26397 0.78828 0.0
C848 C 0.16673 0.25937 0.79393 0.0
H849 H 0.14088 0.2736 0.83015 0.0
C850 C 0.15397 0.24272 0.78638 0.0
C851 C 0.16167 0.27097 0.80959 0.0
C852 C 0.17415 0.2896 0.8177 0.0
C853 C 0.13675 0.23692 0.79455 0.0
C854 C 0.13239 0.2479 0.81078 0.0
C855 C 0.14459 0.265 0.8179 0.0
C856 C 0.11496 0.24198 0.82037 0.0
C857 C 0.12335 0.21908 0.78585 0.0
C858 C 0.09908 0.25271 0.82107 0.0
C859 C 0.08235 0.24705 0.82973 0.0
C860 C 0.08125 0.23062 0.83804 0.0
C861 C 0.09736 0.22005 0.83761 0.0
C862 C 0.11411 0.22569 0.82877 0.0
H863 H 0.1268 0.21429 0.77177 0.0
H864 H 0.12514 0.2073 0.79355 0.0
H865 H 0.10762 0.22164 0.78597 0.0
H866 H 0.09953 0.26534 0.81469 0.0
H867 H 0.07023 0.25557 0.82987 0.0
H868 H 0.53274 0.59482 0.51788 0.0
H869 H 0.52851 0.60418 0.48836 0.0
H870 H 0.58489 0.58632 0.47494 0.0
H871 H 0.58914 0.57694 0.50469 0.0
H872 H 0.58211 0.62373 0.47095 0.0
H873 H 0.51614 0.57683 0.43682 0.0
H874 H 0.51185 0.58762 0.45915 0.0
H875 H 0.52979 0.57105 0.45585 0.0
C876 C 0.54391 0.59229 0.50838 0.0
C877 C 0.56118 0.58502 0.51345 0.0
C878 C 0.54147 0.5976 0.49149 0.0
C879 C 0.55628 0.59579 0.47931 0.0
C880 C 0.57318 0.58768 0.48405 0.0
H881 H 0.54282 0.63552 0.37525 0.0
H882 H 0.548 0.6153 0.39803 0.0
C883 C 0.57556 0.5822 0.50096 0.0
C884 C 0.55511 0.60464 0.46279 0.0
H885 H 0.52469 0.60674 0.42612 0.0
C886 C 0.56972 0.61979 0.46099 0.0
C887 C 0.53903 0.59947 0.4497 0.0
C888 C 0.52341 0.58272 0.45035 0.0
C889 C 0.56821 0.63044 0.44698 0.0
C890 C 0.55149 0.62604 0.43453 0.0
C891 C 0.53738 0.61029 0.43579 0.0
C892 C 0.54806 0.63814 0.42063 0.0
C893 C 0.58447 0.64647 0.44575 0.0
C894 C 0.546 0.65761 0.42575 0.0
C895 C 0.54304 0.66918 0.41281 0.0
C896 C 0.54196 0.66153 0.39439 0.0
C897 C 0.54366 0.64191 0.38929 0.0
C898 C 0.5466 0.63032 0.40229 0.0
H899 H 0.59856 0.64439 0.45271 0.0
H900 H 0.58711 0.64755 0.43156 0.0
H901 H 0.58011 0.66029 0.45231 0.0
H902 H 0.54662 0.66388 0.43981 0.0
H903 H 0.54165 0.68416 0.41728 0.0
H904 H 0.84402 0.74247 0.76994 0.0
H905 H 0.86965 0.73667 0.74893 0.0
H906 H 0.88964 0.79747 0.75668 0.0
H907 H 0.86497 0.80329 0.7784 0.0
H908 H 0.87606 0.74836 0.7177 0.0
H909 H 0.94083 0.77674 0.76516 0.0
H910 H 0.9162 0.77202 0.77249 0.0
H911 H 0.92401 0.79416 0.76462 0.0
C912 C 0.85403 0.75458 0.76733 0.0
C913 C 0.85246 0.77334 0.77594 0.0
C914 C 0.8686 0.75125 0.75526 0.0
C915 C 0.88186 0.76659 0.75157 0.0
C916 C 0.87994 0.78536 0.75971 0.0
H917 H 0.94592 0.77622 0.65912 0.0
H918 H 0.92276 0.77579 0.68257 0.0
C919 C 0.86553 0.78869 0.77188 0.0
C920 C 0.89734 0.76317 0.7388 0.0
H921 H 0.94666 0.77397 0.73376 0.0
C922 C 0.89153 0.75373 0.72128 0.0
C923 C 0.91761 0.76975 0.74357 0.0
C924 C 0.92506 0.77853 0.76255 0.0
C925 C 0.90529 0.7516 0.70816 0.0
C926 C 0.92528 0.75962 0.71256 0.0
C927 C 0.93128 0.76813 0.73032 0.0
C928 C 0.93988 0.76028 0.69873 0.0
C929 C 0.89821 0.74083 0.68969 0.0
C930 C 0.95774 0.75258 0.70047 0.0
C931 C 0.97129 0.75312 0.68717 0.0
C932 C 0.9671 0.76134 0.67193 0.0
C933 C 0.94947 0.76953 0.67056 0.0
C934 C 0.93611 0.76916 0.68389 0.0
H935 H 0.88493 0.73028 0.6902 0.0
H936 H 0.89402 0.75116 0.68109 0.0
H937 H 0.90992 0.73311 0.6833 0.0
H938 H 0.96104 0.74588 0.71196 0.0
H939 H 0.98476 0.74671 0.6886 0.0
H940 H 0.06866 0.86198 0.49769 0.0
H941 H 0.0638 0.84968 0.52564 0.0
H942 H 0.11005 0.89272 0.55279 0.0
H943 H 0.11515 0.90516 0.52456 0.0
H944 H 0.09412 0.8355 0.54572 0.0
H945 H 0.06208 0.89595 0.58531 0.0
H946 H 0.06212 0.89292 0.56116 0.0
H947 H 0.08472 0.90121 0.57471 0.0
C948 C 0.07783 0.86887 0.50958 0.0
C949 C 0.09245 0.88441 0.50886 0.0
C950 C 0.075 0.86185 0.52556 0.0
C951 C 0.08659 0.87024 0.54125 0.0
C952 C 0.10085 0.88613 0.54083 0.0
H953 H 0.067 0.79701 0.62484 0.0
H954 H 0.08639 0.81984 0.60912 0.0
C955 C 0.10371 0.89323 0.52473 0.0
C956 C 0.08379 0.86165 0.55771 0.0
H957 H 0.06166 0.86752 0.59736 0.0
C958 C 0.08741 0.84259 0.55724 0.0
C959 C 0.07506 0.871 0.57263 0.0
C960 C 0.07063 0.89138 0.57361 0.0
C961 C 0.0813 0.83215 0.57071 0.0
C962 C 0.07162 0.84119 0.58524 0.0
C963 C 0.06919 0.86067 0.58628 0.0
C964 C 0.06082 0.82986 0.59746 0.0
C965 C 0.08391 0.81115 0.56852 0.0
C966 C 0.04015 0.82872 0.59695 0.0
C967 C 0.02915 0.81596 0.60601 0.0
C968 C 0.03853 0.80395 0.61579 0.0
C969 C 0.05933 0.80599 0.61734 0.0
C970 C 0.07041 0.81891 0.60825 0.0
H971 H 0.08901 0.80575 0.55514 0.0
H972 H 0.0951 0.80903 0.57889 0.0
H973 H 0.06979 0.80233 0.5703 0.0
H974 H 0.0324 0.83703 0.58878 0.0
H975 H 0.01317 0.81496 0.60467 0.0
H976 H 0.20464 0.69291 0.72844 0.0
H977 H 0.1714 0.6951 0.7163 0.0
H978 H 0.15845 0.72595 0.76733 0.0
H979 H 0.19214 0.72418 0.7795 0.0
H980 H 0.13274 0.68471 0.72533 0.0
H981 H 0.15182 0.76413 0.73296 0.0
H982 H 0.17027 0.74856 0.73584 0.0
H983 H 0.1535 0.75371 0.75301 0.0
C984 C 0.19464 0.69998 0.73716 0.0
C985 C 0.20109 0.70871 0.75481 0.0
C986 C 0.17561 0.70113 0.73023 0.0
C987 C 0.16258 0.71105 0.74077 0.0
C988 C 0.16842 0.71856 0.75885 0.0
H989 H 0.05861 0.75072 0.69227 0.0
H990 H 0.08207 0.7435 0.71498 0.0
C991 C 0.18757 0.7174 0.76584 0.0
C992 C 0.1438 0.7148 0.73208 0.0
H993 H 0.12206 0.7505 0.71685 0.0
C994 C 0.13023 0.69912 0.72371 0.0
C995 C 0.1405 0.73362 0.72998 0.0
C996 C 0.1548 0.75101 0.73829 0.0
C997 C 0.11386 0.70169 0.71279 0.0
C998 C 0.11121 0.72041 0.70987 0.0
C999 C 0.12416 0.73616 0.71902 0.0
C1000 C 0.09614 0.7239 0.69635 0.0
C1001 C 0.09971 0.68428 0.70429 0.0
C1002 C 0.09638 0.71548 0.67828 0.0
C1003 C 0.08302 0.71957 0.66528 0.0
C1004 C 0.06924 0.73235 0.67003 0.0
C1005 C 0.06904 0.74083 0.68813 0.0
C1006 C 0.08241 0.73668 0.70115 0.0
H1007 H 0.09969 0.67254 0.71237 0.0
H1008 H 0.08438 0.68781 0.70274 0.0
H1009 H 0.10444 0.67882 0.69081 0.0
H1010 H 0.10718 0.70599 0.67414 0.0
H1011 H 0.08366 0.71284 0.65147 0.0
H1012 H 0.9876 0.62326 0.46357 0.0
H1013 H 0.00149 0.64367 0.49148 0.0
H1014 H 0.00779 0.5934 0.51535 0.0
H1015 H 0.99385 0.5729 0.48742 0.0
H1016 H 0.98431 0.61672 0.53349 0.0
H1017 H 0.05373 0.66007 0.52144 0.0
H1018 H 0.03439 0.66027 0.50459 0.0
H1019 H 0.04367 0.63807 0.50676 0.0
C1020 C 0.9927 0.61655 0.47451 0.0
C1021 C 0.98946 0.59651 0.47341 0.0
C1022 C 0.00069 0.62824 0.49047 0.0
C1023 C 0.00576 0.62006 0.50549 0.0
C1024 C 0.00402 0.6 0.50392 0.0
H1025 H 0.03452 0.70157 0.60711 0.0
H1026 H 0.0369 0.67363 0.58398 0.0
C1027 C 0.996 0.58832 0.48799 0.0
C1028 C 0.00932 0.63226 0.52342 0.0
H1029 H 0.0354 0.67386 0.5459 0.0
C1030 C 0.99581 0.62894 0.53637 0.0
C1031 C 0.02439 0.64811 0.52726 0.0
C1032 C 0.03999 0.65174 0.51433 0.0
C1033 C 0.99609 0.64178 0.55249 0.0
C1034 C 0.01011 0.65847 0.55566 0.0
C1035 C 0.02454 0.66111 0.54335 0.0
C1036 C 0.00844 0.67439 0.57045 0.0
C1037 C 0.98088 0.63773 0.56569 0.0
C1038 C 0.99167 0.68396 0.57045 0.0
C1039 C 0.99029 0.69983 0.5835 0.0
C1040 C 0.0057 0.70655 0.59684 0.0
C1041 C 0.02236 0.69669 0.59707 0.0
C1042 C 0.02378 0.68079 0.58386 0.0
H1043 H 0.97565 0.62212 0.56421 0.0
H1044 H 0.98692 0.64305 0.57972 0.0
H1045 H 0.96789 0.64513 0.56311 0.0
H1046 H 0.97983 0.67944 0.56003 0.0
H1047 H 0.97726 0.70707 0.5829 0.0
H1048 H 0.81553 0.82016 0.24432 0.0
H1049 H 0.83596 0.85139 0.25127 0.0
H1050 H 0.81281 0.86696 0.20242 0.0
H1051 H 0.79174 0.83584 0.19551 0.0
H1052 H 0.86208 0.86936 0.2162 0.0
H1053 H 0.80973 0.90824 0.25786 0.0
H1054 H 0.81125 0.88342 0.25941 0.0
H1055 H 0.80119 0.88948 0.23907 0.0
C1056 C 0.81442 0.83031 0.2352 0.0
C1057 C 0.80188 0.8255 0.2194 0.0
C1058 C 0.82628 0.84806 0.2391 0.0
C1059 C 0.82591 0.86131 0.22729 0.0
C1060 C 0.81332 0.85678 0.21162 0.0
H1061 H 0.90788 0.97027 0.24381 0.0
H1062 H 0.88645 0.94161 0.22796 0.0
C1063 C 0.80135 0.83902 0.20771 0.0
C1064 C 0.83878 0.87987 0.23156 0.0
H1065 H 0.84245 0.92357 0.25839 0.0
C1066 C 0.85778 0.88141 0.22517 0.0
C1067 C 0.83299 0.89538 0.24326 0.0
C1068 C 0.81266 0.89425 0.25033 0.0
C1069 C 0.87156 0.89787 0.23095 0.0
C1070 C 0.86599 0.91312 0.24324 0.0
C1071 C 0.84666 0.91184 0.24895 0.0
C1072 C 0.88042 0.9296 0.252 0.0
C1073 C 0.89223 0.89843 0.22467 0.0
C1074 C 0.88426 0.93218 0.27064 0.0
C1075 C 0.8962 0.94846 0.27963 0.0
C1076 C 0.90467 0.96253 0.2702 0.0
C1077 C 0.9016 0.95959 0.2514 0.0
C1078 C 0.8894 0.94325 0.24235 0.0
H1079 H 0.89498 0.88432 0.21726 0.0
H1080 H 0.89449 0.90921 0.21561 0.0
H1081 H 0.90333 0.90282 0.23626 0.0
H1082 H 0.8776 0.92176 0.27832 0.0
H1083 H 0.89846 0.95019 0.2941 0.0
H1084 H 0.78625 0.15187 0.3292 0.0
H1085 H 0.81178 0.13055 0.32342 0.0
H1086 H 0.83488 0.1633 0.28404 0.0
H1087 H 0.80959 0.18475 0.28979 0.0
H1088 H 0.82035 0.11043 0.28349 0.0
H1089 H 0.88174 0.15895 0.32497 0.0
H1090 H 0.85629 0.15931 0.33045 0.0
H1091 H 0.86465 0.16877 0.31116 0.0
C1092 C 0.79681 0.15456 0.31936 0.0
C1093 C 0.79582 0.16994 0.30989 0.0
C1094 C 0.8113 0.14235 0.31602 0.0
C1095 C 0.82516 0.14542 0.30333 0.0
C1096 C 0.82428 0.16073 0.29388 0.0
H1097 H 0.91851 0.07098 0.27417 0.0
H1098 H 0.89788 0.09702 0.27294 0.0
C1099 C 0.80974 0.17287 0.29711 0.0
C1100 C 0.84057 0.13258 0.29998 0.0
H1101 H 0.88857 0.12834 0.31182 0.0
C1102 C 0.83535 0.11442 0.28943 0.0
C1103 C 0.8601 0.13792 0.30774 0.0
C1104 C 0.86621 0.15727 0.31927 0.0
C1105 C 0.84908 0.10121 0.28688 0.0
C1106 C 0.8684 0.10628 0.29518 0.0
C1107 C 0.87381 0.12466 0.30526 0.0
C1108 C 0.88186 0.0916 0.296 0.0
C1109 C 0.8427 0.08156 0.27599 0.0
C1110 C 0.87982 0.08032 0.30948 0.0
C1111 C 0.89146 0.06569 0.31026 0.0
C1112 C 0.90547 0.06187 0.29751 0.0
C1113 C 0.90789 0.07354 0.28418 0.0
C1114 C 0.89612 0.08836 0.28345 0.0
H1115 H 0.82816 0.0807 0.26846 0.0
H1116 H 0.85393 0.07776 0.26636 0.0
H1117 H 0.84153 0.07074 0.28509 0.0
H1118 H 0.86891 0.08265 0.31928 0.0
H1119 H 0.88914 0.05712 0.32077 0.0
H1120 H 0.43062 0.0251 0.92902 0.0
H1121 H 0.4046 0.00278 0.93864 0.0
H1122 H 0.394 0.04658 0.98212 0.0
H1123 H 0.41968 0.06914 0.97242 0.0
H1124 H 0.40737 0.00225 0.98521 0.0
H1125 H 0.33842 0.01156 0.94692 0.0
H1126 H 0.3617 0.0133 0.93648 0.0
H1127 H 0.35757 0.03144 0.95471 0.0
C1128 C 0.42242 0.03013 0.94035 0.0
C1129 C 0.42731 0.04882 0.95006 0.0
C1130 C 0.40763 0.01737 0.94584 0.0
C1131 C 0.39745 0.02314 0.96102 0.0
C1132 C 0.4017 0.04196 0.97033 0.0
H1133 H 0.30755 0.94846 0.00682 0.0
H1134 H 0.32581 0.97725 0.99814 0.0
C1135 C 0.41645 0.05474 0.96484 0.0
C1136 C 0.38391 0.00889 0.9682 0.0
H1137 H 0.33651 0.98618 0.96381 0.0
C1138 C 0.39183 0.99882 0.98068 0.0
C1139 C 0.36366 0.00479 0.96244 0.0
C1140 C 0.35465 0.01581 0.94943 0.0
C1141 C 0.38012 0.98415 0.98711 0.0
C1142 C 0.36007 0.97921 0.98057 0.0
C1143 C 0.35191 0.98991 0.96869 0.0
C1144 C 0.34803 0.96199 0.98487 0.0
C1145 C 0.38938 0.97393 0.00072 0.0
C1146 C 0.35416 0.94394 0.97979 0.0
C1147 C 0.34398 0.92768 0.98482 0.0
C1148 C 0.32722 0.92904 0.99483 0.0
C1149 C 0.32047 0.94701 0.9992 0.0
C1150 C 0.33086 0.96342 0.99426 0.0
H1151 H 0.4025 0.98296 0.00825 0.0
H1152 H 0.37861 0.96987 0.01044 0.0
H1153 H 0.39439 0.96063 0.99367 0.0
H1154 H 0.36706 0.94246 0.97214 0.0
H1155 H 0.34938 0.91401 0.98094 0.0
H1156 H 0.2538 0.34171 0.29821 0.0
H1157 H 0.23452 0.35917 0.27986 0.0
H1158 H 0.2852 0.37099 0.24949 0.0
H1159 H 0.30454 0.35319 0.26785 0.0
H1160 H 0.26884 0.40382 0.26678 0.0
H1161 H 0.2108 0.35051 0.2274 0.0
H1162 H 0.21373 0.34733 0.25039 0.0
H1163 H 0.23377 0.34407 0.23606 0.0
C1164 C 0.26058 0.34754 0.28724 0.0
C1165 C 0.28051 0.34616 0.2843 0.0
C1166 C 0.24958 0.35741 0.27673 0.0
C1167 C 0.25839 0.36616 0.2632 0.0
C1168 C 0.27812 0.36411 0.25973 0.0
H1169 H 0.20021 0.46076 0.22933 0.0
H1170 H 0.22526 0.4388 0.23005 0.0
C1171 C 0.2891 0.35398 0.27015 0.0
C1172 C 0.24771 0.37968 0.2548 0.0
H1173 H 0.20289 0.38297 0.23458 0.0
C1174 C 0.25465 0.39934 0.25928 0.0
C1175 C 0.22927 0.37368 0.24506 0.0
C1176 C 0.22153 0.35272 0.23929 0.0
C1177 C 0.24277 0.41326 0.25574 0.0
C1178 C 0.22367 0.40723 0.24713 0.0
C1179 C 0.21747 0.38755 0.24133 0.0
C1180 C 0.20889 0.42071 0.24624 0.0
C1181 C 0.25014 0.43416 0.26251 0.0
C1182 C 0.19134 0.41768 0.25489 0.0
C1183 C 0.17702 0.42994 0.2543 0.0
C1184 C 0.17996 0.44564 0.24514 0.0
C1185 C 0.19766 0.4489 0.23666 0.0
C1186 C 0.21197 0.43639 0.23707 0.0
H1187 H 0.26372 0.43608 0.27165 0.0
H1188 H 0.25368 0.44148 0.25095 0.0
H1189 H 0.2386 0.44136 0.26975 0.0
H1190 H 0.18871 0.40576 0.26215 0.0
H1191 H 0.16357 0.42708 0.26101 0.0
H1192 H 0.1272 0.99199 0.50637 0.0
H1193 H 0.15427 0.01857 0.51572 0.0
H1194 H 0.18455 0.99899 0.46888 0.0
H1195 H 0.15762 0.97266 0.45954 0.0
H1196 H 0.20794 0.0138 0.50832 0.0
H1197 H 0.1608 0.06108 0.47845 0.0
H1198 H 0.15037 0.04407 0.4919 0.0
H1199 H 0.15794 0.03564 0.47001 0.0
C1200 C 0.13997 0.99313 0.49845 0.0
C1201 C 0.1406 0.98034 0.48238 0.0
C1202 C 0.15531 0.00826 0.50373 0.0
C1203 C 0.17131 0.01063 0.49296 0.0
C1204 C 0.17237 0.99724 0.47741 0.0
H1205 H 0.26237 0.07934 0.45901 0.0
H1206 H 0.23411 0.05779 0.4657 0.0
C1207 C 0.15707 0.98224 0.47212 0.0
C1208 C 0.18592 0.02809 0.49648 0.0
H1209 H 0.19465 0.07254 0.48469 0.0
C1210 C 0.20495 0.02689 0.50368 0.0
C1211 C 0.1819 0.045 0.49022 0.0
C1212 C 0.16167 0.04672 0.48219 0.0
C1213 C 0.22038 0.04193 0.50395 0.0
C1214 C 0.21659 0.05834 0.49671 0.0
C1215 C 0.19735 0.05996 0.49038 0.0
C1216 C 0.23295 0.07233 0.4929 0.0
C1217 C 0.24093 0.03978 0.51085 0.0
C1218 C 0.24133 0.08782 0.50597 0.0
C1219 C 0.25749 0.10031 0.50217 0.0
C1220 C 0.26548 0.09731 0.48529 0.0
C1221 C 0.25665 0.082 0.47217 0.0
C1222 C 0.2405 0.06968 0.47593 0.0
H1223 H 0.24122 0.02669 0.51709 0.0
H1224 H 0.25084 0.039 0.4996 0.0
H1225 H 0.24694 0.05255 0.52092 0.0
H1226 H 0.23559 0.09003 0.51914 0.0
H1227 H 0.26404 0.11195 0.51256 0.0
H1228 H 0.8138 0.15354 0.69793 0.0
H1229 H 0.78943 0.12585 0.70017 0.0
H1230 H 0.74968 0.164 0.72361 0.0
H1231 H 0.77389 0.19164 0.72157 0.0
H1232 H 0.77386 0.11597 0.73145 0.0
H1233 H 0.71413 0.1283 0.68405 0.0
H1234 H 0.73917 0.1401 0.68463 0.0
H1235 H 0.72262 0.14879 0.70091 0.0
C1236 C 0.79981 0.15602 0.70347 0.0
C1237 C 0.79573 0.17482 0.70942 0.0
C1238 C 0.7859 0.1402 0.70469 0.0
C1239 C 0.76762 0.14288 0.71178 0.0
C1240 C 0.76348 0.16161 0.71767 0.0
H1241 H 0.6657 0.07269 0.74034 0.0
H1242 H 0.6907 0.09843 0.73495 0.0
C1243 C 0.77735 0.17741 0.71645 0.0
C1244 C 0.75325 0.12615 0.71395 0.0
H1245 H 0.70555 0.10533 0.70303 0.0
C1246 C 0.75898 0.11351 0.72511 0.0
C1247 C 0.73383 0.12303 0.70571 0.0
C1248 C 0.72708 0.13566 0.69302 0.0
C1249 C 0.74561 0.09816 0.72869 0.0
C1250 C 0.72611 0.09518 0.72061 0.0
C1251 C 0.72048 0.10767 0.70925 0.0
C1252 C 0.71116 0.07941 0.724 0.0
C1253 C 0.75231 0.0857 0.74157 0.0
C1254 C 0.71428 0.06014 0.71949 0.0
C1255 C 0.70006 0.04537 0.72264 0.0
C1256 C 0.68234 0.0496 0.7302 0.0
C1257 C 0.67918 0.06892 0.73452 0.0
C1258 C 0.69344 0.08366 0.73143 0.0
H1259 H 0.76572 0.09281 0.75006 0.0
H1260 H 0.74044 0.08204 0.75046 0.0
H1261 H 0.756 0.07213 0.73384 0.0
H1262 H 0.72764 0.0565 0.71336 0.0
H1263 H 0.7029 0.03065 0.71903 0.0
H1264 H 0.47875 0.02527 0.5534 0.0
H1265 H 0.46134 0.05332 0.55427 0.0
H1266 H 0.41173 0.01823 0.52295 0.0
H1267 H 0.42856 0.98986 0.52291 0.0
H1268 H 0.4514 0.06861 0.52633 0.0
H1269 H 0.38355 0.04962 0.5599 0.0
H1270 H 0.40457 0.03655 0.56064 0.0
H1271 H 0.38654 0.03091 0.54175 0.0
C1272 C 0.46387 0.02337 0.54719 0.0
C1273 C 0.455 0.00527 0.53814 0.0
C1274 C 0.454 0.03947 0.5476 0.0
C1275 C 0.43512 0.03783 0.53893 0.0
C1276 C 0.42608 0.01976 0.53015 0.0
H1277 H 0.37868 0.10183 0.47689 0.0
H1278 H 0.40245 0.08626 0.49238 0.0
C1279 C 0.43586 0.0036 0.52987 0.0
C1280 C 0.42574 0.05523 0.53735 0.0
H1281 H 0.38137 0.07257 0.5394 0.0
C1282 C 0.43623 0.06971 0.5296 0.0
C1283 C 0.40614 0.05695 0.54199 0.0
C1284 C 0.39466 0.04275 0.55172 0.0
C1285 C 0.42708 0.085 0.52497 0.0
C1286 C 0.40684 0.08555 0.52785 0.0
C1287 C 0.39685 0.07201 0.537 0.0
C1288 C 0.39502 0.09795 0.51906 0.0
C1289 C 0.43896 0.1 0.51643 0.0
C1290 C 0.38304 0.10988 0.52892 0.0
C1291 C 0.36929 0.11882 0.52003 0.0
C1292 C 0.36717 0.11562 0.50118 0.0
C1293 C 0.37994 0.10452 0.49142 0.0
C1294 C 0.39368 0.09573 0.50027 0.0
H1295 H 0.45481 0.1019 0.52131 0.0
H1296 H 0.43812 0.09524 0.50169 0.0
H1297 H 0.43327 0.11407 0.51924 0.0
H1298 H 0.38376 0.11161 0.54343 0.0
H1299 H 0.35956 0.12722 0.52788 0.0
H1300 H 0.59906 0.5058 0.53325 0.0
H1301 H 0.62488 0.48557 0.52473 0.0
H1302 H 0.64195 0.48721 0.5806 0.0
H1303 H 0.61631 0.50731 0.58918 0.0
H1304 H 0.66516 0.49236 0.53168 0.0
H1305 H 0.63496 0.43007 0.56202 0.0
H1306 H 0.62072 0.44918 0.55879 0.0
H1307 H 0.63833 0.45205 0.57781 0.0
C1308 C 0.60833 0.50185 0.54372 0.0
C1309 C 0.6054 0.508 0.56191 0.0
C1310 C 0.62304 0.49024 0.53883 0.0
C1311 C 0.6351 0.48448 0.55201 0.0
C1312 C 0.63247 0.49094 0.57016 0.0
H1313 H 0.74353 0.4362 0.55874 0.0
H1314 H 0.71441 0.45295 0.56264 0.0
C1315 C 0.61777 0.50247 0.57505 0.0
C1316 C 0.65083 0.47221 0.54693 0.0
H1317 H 0.66866 0.43096 0.55417 0.0
C1318 C 0.66576 0.47881 0.53639 0.0
C1319 C 0.6516 0.45444 0.55298 0.0
C1320 C 0.63544 0.4459 0.56337 0.0
C1321 C 0.68179 0.46852 0.53238 0.0
C1322 C 0.68293 0.45121 0.53905 0.0
C1323 C 0.66778 0.44431 0.54915 0.0
C1324 C 0.70031 0.44064 0.5365 0.0
C1325 C 0.69781 0.47642 0.52151 0.0
C1326 C 0.70193 0.428 0.52053 0.0
C1327 C 0.71855 0.41824 0.51827 0.0
C1328 C 0.7339 0.42108 0.53192 0.0
C1329 C 0.73206 0.43368 0.54793 0.0
C1330 C 0.71542 0.44328 0.55021 0.0
H1331 H 0.695 0.49029 0.51757 0.0
H1332 H 0.7123 0.47856 0.52936 0.0
H1333 H 0.69892 0.46591 0.50918 0.0
H1334 H 0.69036 0.42575 0.50981 0.0
H1335 H 0.7195 0.4087 0.50577 0.0
H1336 H 0.79376 0.21929 0.35949 0.0
H1337 H 0.79221 0.24182 0.38724 0.0
H1338 H 0.72881 0.23683 0.3784 0.0
H1339 H 0.7302 0.21408 0.35059 0.0
H1340 H 0.77234 0.27775 0.38427 0.0
H1341 H 0.74269 0.23405 0.43436 0.0
H1342 H 0.75685 0.22418 0.41635 0.0
H1343 H 0.73208 0.22873 0.41154 0.0
C1344 C 0.77941 0.22247 0.36372 0.0
C1345 C 0.76209 0.21491 0.35283 0.0
C1346 C 0.77857 0.23545 0.37952 0.0
C1347 C 0.76041 0.24096 0.38482 0.0
C1348 C 0.74296 0.23265 0.37456 0.0
H1349 H 0.74873 0.34165 0.46765 0.0
H1350 H 0.73924 0.31453 0.44287 0.0
C1351 C 0.74379 0.21973 0.35867 0.0
C1352 C 0.76011 0.25697 0.39989 0.0
H1353 H 0.7508 0.26745 0.4441 0.0
C1354 C 0.76737 0.27556 0.39729 0.0
C1355 C 0.75358 0.25399 0.41679 0.0
C1356 C 0.74588 0.23419 0.42012 0.0
C1357 C 0.76877 0.29122 0.41132 0.0
C1358 C 0.76285 0.2882 0.42838 0.0
C1359 C 0.75507 0.2697 0.4309 0.0
C1360 C 0.7674 0.30361 0.44414 0.0
C1361 C 0.77733 0.31085 0.4081 0.0
C1362 C 0.78622 0.30623 0.45298 0.0
C1363 C 0.79166 0.32155 0.46694 0.0
C1364 C 0.7784 0.33471 0.47241 0.0
C1365 C 0.75929 0.33182 0.46376 0.0
C1366 C 0.75383 0.31634 0.44968 0.0
H1367 H 0.77905 0.31128 0.39364 0.0
H1368 H 0.76771 0.32169 0.41334 0.0
H1369 H 0.79207 0.31498 0.41546 0.0
H1370 H 0.79691 0.29661 0.44881 0.0
H1371 H 0.80649 0.32321 0.47324 0.0
H1372 H 0.51268 0.051 0.88517 0.0
H1373 H 0.54204 0.04379 0.86957 0.0
H1374 H 0.53731 0.09067 0.84055 0.0
H1375 H 0.5081 0.09829 0.85637 0.0
H1376 H 0.53826 0.05532 0.81883 0.0
H1377 H 0.59961 0.06975 0.87183 0.0
H1378 H 0.57804 0.05549 0.8776 0.0
H1379 H 0.57667 0.07984 0.8745 0.0
C1380 C 0.51819 0.06016 0.87587 0.0
C1381 C 0.50796 0.07519 0.87197 0.0
C1382 C 0.53501 0.05602 0.86697 0.0
C1383 C 0.54197 0.06684 0.85407 0.0
C1384 C 0.53222 0.08223 0.85055 0.0
H1385 H 0.62905 0.03816 0.77562 0.0
H1386 H 0.61144 0.05756 0.79781 0.0
C1387 C 0.51544 0.08644 0.85949 0.0
C1388 C 0.55785 0.06058 0.84276 0.0
H1389 H 0.6051 0.04936 0.84442 0.0
C1390 C 0.55301 0.05439 0.82435 0.0
C1391 C 0.57703 0.05933 0.85004 0.0
C1392 C 0.58326 0.06663 0.86955 0.0
C1393 C 0.56655 0.04616 0.81318 0.0
C1394 C 0.58542 0.04418 0.82059 0.0
C1395 C 0.59058 0.05096 0.83885 0.0
C1396 C 0.59905 0.03347 0.80969 0.0
C1397 C 0.56037 0.03878 0.79364 0.0
C1398 C 0.59829 0.01369 0.80952 0.0
C1399 C 0.60814 0.00259 0.79684 0.0
C1400 C 0.61898 0.01111 0.78417 0.0
C1401 C 0.62085 0.03118 0.78522 0.0
C1402 C 0.61082 0.04228 0.79786 0.0
H1403 H 0.54515 0.04149 0.78994 0.0
H1404 H 0.57078 0.04577 0.78509 0.0
H1405 H 0.56104 0.02308 0.79065 0.0
H1406 H 0.58919 0.00669 0.81854 0.0
H1407 H 0.60652 0.98719 0.79646 0.0
H1408 H 0.35024 0.2479 0.32838 0.0
H1409 H 0.34678 0.23025 0.35346 0.0
H1410 H 0.28489 0.23718 0.35381 0.0
H1411 H 0.28806 0.25433 0.32827 0.0
H1412 H 0.33445 0.24512 0.38746 0.0
H1413 H 0.28533 0.1795 0.35434 0.0
H1414 H 0.29882 0.19571 0.34177 0.0
H1415 H 0.27688 0.20203 0.35215 0.0
C1416 C 0.33577 0.24525 0.33348 0.0
C1417 C 0.31939 0.25242 0.32631 0.0
C1418 C 0.33388 0.23537 0.34793 0.0
C1419 C 0.31559 0.23243 0.35542 0.0
C1420 C 0.29908 0.23917 0.34808 0.0
H1421 H 0.30552 0.18982 0.45857 0.0
H1422 H 0.30354 0.21088 0.4359 0.0
C1423 C 0.30095 0.24904 0.33359 0.0
C1424 C 0.31409 0.22279 0.37127 0.0
H1425 H 0.29412 0.18181 0.38514 0.0
C1426 C 0.32553 0.23135 0.38706 0.0
C1427 C 0.30239 0.20487 0.37059 0.0
C1428 C 0.29025 0.19485 0.35379 0.0
C1429 C 0.32604 0.22212 0.4021 0.0
C1430 C 0.31466 0.20402 0.40127 0.0
C1431 C 0.30273 0.19577 0.38569 0.0
C1432 C 0.3166 0.19231 0.41553 0.0
C1433 C 0.3394 0.23133 0.41842 0.0
C1434 C 0.32466 0.17508 0.41152 0.0
C1435 C 0.32569 0.1631 0.42426 0.0
C1436 C 0.31867 0.16809 0.44132 0.0
C1437 C 0.3111 0.18566 0.44555 0.0
C1438 C 0.30997 0.19768 0.43266 0.0
H1439 H 0.3492 0.24418 0.41597 0.0
H1440 H 0.33024 0.23583 0.42968 0.0
H1441 H 0.34872 0.22088 0.42265 0.0
H1442 H 0.32996 0.17079 0.39839 0.0
H1443 H 0.33179 0.14976 0.42061 0.0
H1444 H 0.60966 0.47873 0.92461 0.0
H1445 H 0.59074 0.48924 0.90054 0.0
H1446 H 0.53652 0.46381 0.919 0.0
H1447 H 0.55535 0.4535 0.94335 0.0
H1448 H 0.56278 0.46715 0.87262 0.0
H1449 H 0.52936 0.52113 0.91883 0.0
H1450 H 0.55079 0.51067 0.92549 0.0
H1451 H 0.52648 0.49746 0.92462 0.0
C1452 C 0.59369 0.47545 0.92359 0.0
C1453 C 0.58394 0.46553 0.93602 0.0
C1454 C 0.58294 0.48135 0.90977 0.0
C1455 C 0.56226 0.47754 0.90817 0.0
C1456 C 0.5525 0.46711 0.92019 0.0
H1457 H 0.46154 0.49334 0.84816 0.0
H1458 H 0.48778 0.4869 0.86807 0.0
C1459 C 0.56325 0.46112 0.934 0.0
C1460 C 0.5508 0.48479 0.89419 0.0
H1461 H 0.5155 0.51377 0.88871 0.0
C1462 C 0.55258 0.4775 0.87605 0.0
C1463 C 0.5378 0.49853 0.89876 0.0
C1464 C 0.53608 0.50758 0.91797 0.0
C1465 C 0.54067 0.48267 0.86239 0.0
C1466 C 0.52694 0.4957 0.86706 0.0
C1467 C 0.52599 0.50374 0.88515 0.0
C1468 C 0.51156 0.4993 0.85393 0.0
C1469 C 0.54212 0.47344 0.8432 0.0
C1470 C 0.51618 0.5083 0.83911 0.0
C1471 C 0.50098 0.51195 0.8274 0.0
C1472 C 0.48104 0.50686 0.83058 0.0
C1473 C 0.47668 0.4977 0.84536 0.0
C1474 C 0.49171 0.49395 0.85681 0.0
H1475 H 0.55129 0.46149 0.84218 0.0
H1476 H 0.52717 0.46782 0.83671 0.0
H1477 H 0.54894 0.48436 0.83561 0.0
H1478 H 0.53144 0.51277 0.83677 0.0
H1479 H 0.5048 0.51905 0.81616 0.0
H1480 H 0.79014 0.7399 0.18399 0.0
H1481 H 0.79394 0.72214 0.15428 0.0
H1482 H 0.7811 0.77069 0.13029 0.0
H1483 H 0.77669 0.78851 0.16004 0.0
H1484 H 0.76451 0.71447 0.12305 0.0
H1485 H 0.83587 0.75654 0.11183 0.0
H1486 H 0.8271 0.75635 0.13396 0.0
H1487 H 0.81585 0.76964 0.11893 0.0
C1488 C 0.78775 0.74674 0.17242 0.0
C1489 C 0.78298 0.76562 0.17442 0.0
C1490 C 0.79011 0.73661 0.15546 0.0
C1491 C 0.78797 0.74519 0.14018 0.0
C1492 C 0.78305 0.76394 0.142 0.0
H1493 H 0.80699 0.6955 0.02941 0.0
H1494 H 0.80009 0.71783 0.05589 0.0
C1495 C 0.78056 0.77408 0.15899 0.0
C1496 C 0.79081 0.73429 0.12237 0.0
H1497 H 0.82312 0.73055 0.08928 0.0
C1498 C 0.77723 0.71804 0.11558 0.0
C1499 C 0.80737 0.73912 0.11268 0.0
C1500 C 0.82251 0.75629 0.11967 0.0
C1501 C 0.77994 0.70625 0.09943 0.0
C1502 C 0.79692 0.71062 0.09007 0.0
C1503 C 0.81017 0.72723 0.09655 0.0
C1504 C 0.80165 0.69745 0.07412 0.0
C1505 C 0.76466 0.68915 0.09254 0.0
C1506 C 0.80523 0.67878 0.07572 0.0
C1507 C 0.80916 0.66604 0.0607 0.0
C1508 C 0.80969 0.67174 0.04376 0.0
C1509 C 0.80658 0.69063 0.04225 0.0
C1510 C 0.80266 0.70341 0.05735 0.0
H1511 H 0.75017 0.69088 0.09827 0.0
H1512 H 0.76251 0.68686 0.07768 0.0
H1513 H 0.76974 0.67609 0.09651 0.0
H1514 H 0.80491 0.67404 0.08863 0.0
H1515 H 0.81163 0.65166 0.06238 0.0
H1516 H 0.06093 0.05824 0.11834 0.0
H1517 H 0.04372 0.05513 0.14536 0.0
H1518 H 0.0338 0.99361 0.12942 0.0
H1519 H 0.05033 0.99668 0.10171 0.0
H1520 H 0.00073 0.00729 0.1411 0.0
H1521 H 0.06314 0.03821 0.19045 0.0
H1522 H 0.05863 0.05423 0.17512 0.0
H1523 H 0.06647 0.03135 0.16689 0.0
C1524 C 0.05497 0.04401 0.12043 0.0
C1525 C 0.05691 0.02771 0.10769 0.0
C1526 C 0.04539 0.04224 0.1361 0.0
C1527 C 0.03777 0.02412 0.13966 0.0
C1528 C 0.0397 0.00775 0.12705 0.0
H1529 H 0.99309 0.01187 0.24482 0.0
H1530 H 0.01266 0.01017 0.21842 0.0
C1531 C 0.04926 0.00952 0.11126 0.0
C1532 C 0.02704 0.02249 0.15617 0.0
H1533 H 0.03072 0.03687 0.20166 0.0
C1534 C 0.00737 0.01357 0.15436 0.0
C1535 C 0.03575 0.03038 0.17356 0.0
C1536 C 0.05722 0.03889 0.17666 0.0
C1537 C 0.99597 0.01299 0.16931 0.0
C1538 C 0.00427 0.02201 0.18656 0.0
C1539 C 0.02419 0.03024 0.18845 0.0
C1540 C 0.99249 0.02327 0.20272 0.0
C1541 C 0.97517 0.00254 0.16644 0.0
C1542 C 0.97486 0.03162 0.20293 0.0
C1543 C 0.96358 0.03248 0.21794 0.0
C1544 C 0.96982 0.0253 0.23325 0.0
C1545 C 0.98782 0.01752 0.23326 0.0
C1546 C 0.99902 0.01651 0.21816 0.0
H1547 H 0.97339 0.99146 0.15414 0.0
H1548 H 0.97107 0.99547 0.17806 0.0
H1549 H 0.96468 0.01296 0.16473 0.0
H1550 H 0.96979 0.03752 0.19146 0.0
H1551 H 0.94992 0.03876 0.21751 0.0
H1552 H 0.32113 0.80822 0.19296 0.0
H1553 H 0.32065 0.82761 0.16906 0.0
H1554 H 0.30463 0.77627 0.12991 0.0
H1555 H 0.30498 0.7567 0.15384 0.0
H1556 H 0.33304 0.80392 0.11891 0.0
H1557 H 0.26771 0.83604 0.14473 0.0
H1558 H 0.28829 0.83851 0.16102 0.0
H1559 H 0.2757 0.81503 0.15194 0.0
C1560 C 0.31761 0.80103 0.17924 0.0
C1561 C 0.31279 0.78095 0.17531 0.0
C1562 C 0.31731 0.81214 0.16562 0.0
C1563 C 0.31211 0.8034 0.1478 0.0
C1564 C 0.30849 0.78328 0.14363 0.0
H1565 H 0.27065 0.85673 0.05993 0.0
H1566 H 0.27318 0.83991 0.08568 0.0
C1567 C 0.30881 0.77212 0.15729 0.0
C1568 C 0.30976 0.81533 0.13366 0.0
H1569 H 0.28299 0.8492 0.12116 0.0
C1570 C 0.3221 0.81381 0.11936 0.0
C1571 C 0.29524 0.82799 0.13416 0.0
C1572 C 0.28083 0.82942 0.14868 0.0
C1573 C 0.32051 0.82482 0.10564 0.0
C1574 C 0.30646 0.83802 0.10647 0.0
C1575 C 0.29391 0.83929 0.12065 0.0
C1576 C 0.30424 0.85021 0.09247 0.0
C1577 C 0.33362 0.82182 0.09019 0.0
C1578 C 0.32051 0.86241 0.08837 0.0
C1579 C 0.31914 0.87179 0.07359 0.0
C1580 C 0.30131 0.86958 0.06293 0.0
C1581 C 0.28452 0.85877 0.06799 0.0
C1582 C 0.28601 0.84907 0.08262 0.0
H1583 H 0.33922 0.80767 0.08895 0.0
H1584 H 0.32562 0.82272 0.07729 0.0
H1585 H 0.34663 0.83311 0.0925 0.0
H1586 H 0.33452 0.86407 0.09616 0.0
H1587 H 0.33226 0.88018 0.07006 0.0
H1588 H 0.98733 0.47811 0.0817 0.0
H1589 H 0.00992 0.48007 0.10796 0.0
H1590 H 0.05372 0.45756 0.07418 0.0
H1591 H 0.03183 0.45715 0.04763 0.0
H1592 H 0.02523 0.45459 0.12234 0.0
H1593 H 0.08675 0.50334 0.10247 0.0
H1594 H 0.06286 0.49832 0.09027 0.0
H1595 H 0.08079 0.48176 0.08636 0.0
C1596 C 0.0019 0.47389 0.07977 0.0
C1597 C 0.00783 0.46777 0.06246 0.0
C1598 C 0.01475 0.47485 0.09485 0.0
C1599 C 0.03373 0.46942 0.09304 0.0
C1600 C 0.0394 0.46243 0.07588 0.0
H1601 H 0.10081 0.44441 0.18479 0.0
H1602 H 0.08165 0.44273 0.15638 0.0
C1603 C 0.02668 0.46183 0.06071 0.0
C1604 C 0.04726 0.47069 0.10924 0.0
H1605 H 0.09365 0.48865 0.12787 0.0
C1606 C 0.04016 0.46213 0.12355 0.0
C1607 C 0.06662 0.48086 0.111 0.0
C1608 C 0.07463 0.49177 0.09678 0.0
C1609 C 0.05183 0.46333 0.13952 0.0
C1610 C 0.07156 0.47257 0.14091 0.0
C1611 C 0.07864 0.48131 0.12668 0.0
C1612 C 0.08493 0.4735 0.15713 0.0
C1613 C 0.04261 0.45519 0.15489 0.0
C1614 C 0.09429 0.49127 0.16638 0.0
C1615 C 0.1058 0.49221 0.18236 0.0
C1616 C 0.10784 0.47541 0.18943 0.0
C1617 C 0.09915 0.45761 0.17978 0.0
C1618 C 0.08808 0.45664 0.16363 0.0
H1619 H 0.02623 0.45454 0.15381 0.0
H1620 H 0.04609 0.44032 0.15459 0.0
H1621 H 0.04831 0.46389 0.16804 0.0
H1622 H 0.09223 0.50446 0.16151 0.0
H1623 H 0.1124 0.50611 0.18955 0.0
H1624 H 0.37022 0.67624 0.20837 0.0
H1625 H 0.39743 0.67216 0.22925 0.0
H1626 H 0.39029 0.72589 0.26209 0.0
H1627 H 0.363 0.72994 0.2416 0.0
H1628 H 0.4349 0.70008 0.24596 0.0
H1629 H 0.37873 0.68036 0.29292 0.0
H1630 H 0.3729 0.67874 0.26913 0.0
H1631 H 0.37584 0.70166 0.28357 0.0
C1632 C 0.37472 0.68735 0.21987 0.0
C1633 C 0.36435 0.70336 0.22338 0.0
C1634 C 0.39026 0.685 0.23174 0.0
C1635 C 0.39559 0.69859 0.2473 0.0
C1636 C 0.38624 0.71519 0.25019 0.0
H1637 H 0.46508 0.72974 0.34256 0.0
H1638 H 0.43937 0.72101 0.31814 0.0
C1639 C 0.37076 0.71758 0.23834 0.0
C1640 C 0.40973 0.69488 0.26137 0.0
H1641 H 0.41221 0.68741 0.30482 0.0
C1642 C 0.43001 0.69693 0.25873 0.0
C1643 C 0.40319 0.69062 0.27791 0.0
C1644 C 0.38147 0.68754 0.2811 0.0
C1645 C 0.44406 0.69612 0.27272 0.0
C1646 C 0.43753 0.69289 0.28961 0.0
C1647 C 0.41717 0.68979 0.29186 0.0
C1648 C 0.45144 0.69576 0.30575 0.0
C1649 C 0.46577 0.69994 0.26971 0.0
C1650 C 0.46623 0.68389 0.30741 0.0
C1651 C 0.48092 0.68877 0.3216 0.0
C1652 C 0.48099 0.70565 0.33412 0.0
C1653 C 0.46537 0.71666 0.33307 0.0
C1654 C 0.4507 0.71171 0.3191 0.0
H1655 H 0.46831 0.70448 0.25653 0.0
H1656 H 0.47337 0.71129 0.28048 0.0
H1657 H 0.47268 0.68668 0.27018 0.0
H1658 H 0.46689 0.67136 0.29735 0.0
H1659 H 0.49293 0.68016 0.32201 0.0
H1660 H 0.00883 0.39361 0.00097 0.0
H1661 H 0.01517 0.36001 0.99482 0.0
H1662 H 0.96941 0.34834 0.95173 0.0
H1663 H 0.96258 0.38146 0.95823 0.0
H1664 H 0.97083 0.31766 0.96951 0.0
H1665 H 0.04595 0.3453 0.95123 0.0
H1666 H 0.03982 0.3525 0.97393 0.0
H1667 H 0.0272 0.36084 0.9559 0.0
C1668 C 0.99977 0.38369 0.99055 0.0
C1669 C 0.98549 0.3902 0.97982 0.0
C1670 C 0.00353 0.36457 0.98694 0.0
C1671 C 0.99311 0.35181 0.97252 0.0
C1672 C 0.97774 0.35795 0.96284 0.0
H1673 H 0.99027 0.27112 0.88559 0.0
H1674 H 0.98494 0.29238 0.913 0.0
C1675 C 0.97395 0.37693 0.96647 0.0
C1676 C 0.99928 0.33281 0.96587 0.0
H1677 H 0.03462 0.31294 0.9414 0.0
C1678 C 0.98501 0.31649 0.96382 0.0
C1679 C 0.01782 0.33127 0.95846 0.0
C1680 C 0.0336 0.34837 0.95984 0.0
C1681 C 0.98815 0.29916 0.95331 0.0
C1682 C 0.00597 0.29817 0.94467 0.0
C1683 C 0.02099 0.31382 0.94813 0.0
C1684 C 0.0076 0.28298 0.92924 0.0
C1685 C 0.9719 0.28241 0.9505 0.0
C1686 C 0.02208 0.27056 0.92933 0.0
C1687 C 0.02503 0.25815 0.9136 0.0
C1688 C 0.01387 0.25848 0.89757 0.0
C1689 C 0.99908 0.27058 0.89774 0.0
C1690 C 0.99593 0.28264 0.91343 0.0
H1691 H 0.96205 0.28319 0.96179 0.0
H1692 H 0.96277 0.28264 0.93802 0.0
H1693 H 0.97812 0.26856 0.94904 0.0
H1694 H 0.03141 0.27086 0.94139 0.0
H1695 H 0.03667 0.24908 0.91375 0.0
H1696 H 0.70931 0.75364 0.24469 0.0
H1697 H 0.67793 0.74894 0.25892 0.0
H1698 H 0.70986 0.75344 0.31028 0.0
H1699 H 0.74119 0.75837 0.29626 0.0
H1700 H 0.68166 0.7193 0.29966 0.0
H1701 H 0.64951 0.78644 0.29393 0.0
H1702 H 0.65824 0.77419 0.27375 0.0
H1703 H 0.67558 0.78472 0.29229 0.0
C1704 C 0.70962 0.75409 0.25908 0.0
C1705 C 0.72773 0.75621 0.26933 0.0
C1706 C 0.6917 0.75136 0.26718 0.0
C1707 C 0.69163 0.75083 0.28564 0.0
C1708 C 0.70963 0.75372 0.296 0.0
H1709 H 0.60205 0.72242 0.35926 0.0
H1710 H 0.6332 0.72717 0.34459 0.0
C1711 C 0.7275 0.75648 0.28795 0.0
C1712 C 0.67294 0.74593 0.29404 0.0
H1713 H 0.62939 0.76215 0.30501 0.0
C1714 C 0.6702 0.72865 0.30088 0.0
C1715 C 0.65805 0.75813 0.29547 0.0
C1716 C 0.66044 0.77699 0.28861 0.0
C1717 C 0.65279 0.72307 0.30892 0.0
C1718 C 0.63796 0.73539 0.31061 0.0
C1719 C 0.64076 0.7527 0.30374 0.0
C1720 C 0.61925 0.73062 0.31917 0.0
C1721 C 0.65028 0.70382 0.31508 0.0
C1722 C 0.6011 0.73098 0.30982 0.0
C1723 C 0.58348 0.72865 0.31827 0.0
C1724 C 0.58357 0.72569 0.33619 0.0
C1725 C 0.60159 0.72439 0.34534 0.0
C1726 C 0.61936 0.72708 0.33695 0.0
H1727 H 0.65986 0.69392 0.30802 0.0
H1728 H 0.65459 0.70585 0.32965 0.0
H1729 H 0.63468 0.69692 0.31281 0.0
H1730 H 0.60061 0.73361 0.2961 0.0
H1731 H 0.56975 0.7297 0.3109 0.0
H1732 H 0.04689 0.06696 0.00974 0.0
H1733 H 0.0413 0.07496 0.97961 0.0
H1734 H 0.08749 0.12302 0.99246 0.0
H1735 H 0.09349 0.11477 0.02207 0.0
H1736 H 0.02889 0.10805 0.97269 0.0
H1737 H 0.10045 0.10106 0.94286 0.0
H1738 H 0.09387 0.09086 0.96249 0.0
H1739 H 0.10389 0.1158 0.96458 0.0
C1740 C 0.05623 0.07885 0.00588 0.0
C1741 C 0.07057 0.09028 0.01829 0.0
C1742 C 0.05294 0.0835 0.98873 0.0
C1743 C 0.0641 0.0995 0.98366 0.0
C1744 C 0.07896 0.11038 0.99582 0.0
H1745 H 0.03826 0.18131 0.91807 0.0
H1746 H 0.0425 0.16167 0.94139 0.0
C1747 C 0.08225 0.10575 0.01285 0.0
C1748 C 0.05916 0.10616 0.96651 0.0
H1749 H 0.08022 0.12231 0.93071 0.0
C1750 C 0.04003 0.11084 0.96335 0.0
C1751 C 0.07359 0.10965 0.95416 0.0
C1752 C 0.09403 0.10388 0.9561 0.0
C1753 C 0.03531 0.1199 0.94879 0.0
C1754 C 0.05015 0.12462 0.93723 0.0
C1755 C 0.06893 0.11896 0.93976 0.0
C1756 C 0.04676 0.13618 0.92294 0.0
C1757 C 0.01454 0.1246 0.94599 0.0
C1758 C 0.048 0.12846 0.90484 0.0
C1759 C 0.04557 0.13966 0.89146 0.0
C1760 C 0.0421 0.15889 0.89594 0.0
C1761 C 0.04088 0.16657 0.91412 0.0
C1762 C 0.04319 0.15532 0.92747 0.0
H1763 H 0.00384 0.11599 0.95313 0.0
H1764 H 0.01416 0.14001 0.95126 0.0
H1765 H 0.0097 0.12198 0.93149 0.0
H1766 H 0.05085 0.11375 0.90107 0.0
H1767 H 0.04661 0.13327 0.87761 0.0
H1768 H 0.33742 0.28006 0.2517 0.0
H1769 H 0.36305 0.27588 0.23032 0.0
H1770 H 0.39894 0.25512 0.26957 0.0
H1771 H 0.37361 0.25941 0.29102 0.0
H1772 H 0.40225 0.29409 0.23574 0.0
H1773 H 0.3996 0.2147 0.22445 0.0
H1774 H 0.37989 0.22676 0.23419 0.0
H1775 H 0.4021 0.2259 0.2476 0.0
C1776 C 0.35074 0.27453 0.25573 0.0
C1777 C 0.35343 0.26997 0.27301 0.0
C1778 C 0.3653 0.27207 0.2435 0.0
C1779 C 0.38273 0.26494 0.24831 0.0
C1780 C 0.38539 0.26021 0.26546 0.0
H1781 H 0.49004 0.25002 0.19076 0.0
H1782 H 0.4666 0.25247 0.21449 0.0
C1783 C 0.37087 0.26266 0.27769 0.0
C1784 C 0.3987 0.26362 0.23581 0.0
H1785 H 0.4259 0.23227 0.2122 0.0
C1786 C 0.40741 0.28058 0.23057 0.0
C1787 C 0.40549 0.24598 0.22925 0.0
C1788 C 0.3962 0.22725 0.23401 0.0
C1789 C 0.42272 0.28038 0.21888 0.0
C1790 C 0.42931 0.26273 0.2121 0.0
C1791 C 0.42087 0.24579 0.21756 0.0
C1792 C 0.44372 0.26141 0.19814 0.0
C1793 C 0.43174 0.29907 0.21384 0.0
C1794 C 0.43847 0.26545 0.18119 0.0
C1795 C 0.45167 0.26405 0.16772 0.0
C1796 C 0.47045 0.2585 0.1709 0.0
C1797 C 0.47574 0.25444 0.18794 0.0
C1798 C 0.46238 0.25576 0.20146 0.0
H1799 H 0.42892 0.31162 0.22371 0.0
H1800 H 0.44796 0.29941 0.21287 0.0
H1801 H 0.42507 0.30055 0.20055 0.0
H1802 H 0.42402 0.26954 0.1783 0.0
H1803 H 0.44705 0.26726 0.15476 0.0
H1804 H 0.56708 0.36334 0.99506 0.0
H1805 H 0.56068 0.34981 0.02219 0.0
H1806 H 0.60726 0.39079 0.05171 0.0
H1807 H 0.6138 0.40453 0.02434 0.0
H1808 H 0.59017 0.33374 0.04135 0.0
H1809 H 0.55895 0.39278 0.0839 0.0
H1810 H 0.55934 0.39127 0.05986 0.0
H1811 H 0.58183 0.39849 0.0738 0.0
C1812 C 0.5759 0.36958 0.00734 0.0
C1813 C 0.59108 0.38486 0.00755 0.0
C1814 C 0.57221 0.36185 0.02283 0.0
C1815 C 0.58353 0.36925 0.03892 0.0
C1816 C 0.59826 0.38498 0.03944 0.0
H1817 H 0.56759 0.29459 0.12167 0.0
H1818 H 0.58506 0.31817 0.10546 0.0
C1819 C 0.60195 0.39282 0.02384 0.0
C1820 C 0.58026 0.35957 0.05468 0.0
H1821 H 0.55852 0.36348 0.09459 0.0
C1822 C 0.58363 0.34033 0.05319 0.0
C1823 C 0.57169 0.36825 0.07003 0.0
C1824 C 0.5676 0.38881 0.07211 0.0
C1825 C 0.57769 0.3292 0.06619 0.0
C1826 C 0.56836 0.33763 0.0812 0.0
C1827 C 0.56586 0.35715 0.08314 0.0
C1828 C 0.55837 0.32566 0.0933 0.0
C1829 C 0.58022 0.30817 0.06316 0.0
C1830 C 0.53766 0.32264 0.09232 0.0
C1831 C 0.52772 0.30927 0.10146 0.0
C1832 C 0.53828 0.29866 0.11188 0.0
C1833 C 0.55905 0.30252 0.11373 0.0
C1834 C 0.56904 0.31591 0.10444 0.0
H1835 H 0.58567 0.3034 0.04979 0.0
H1836 H 0.591 0.30544 0.07359 0.0
H1837 H 0.56594 0.29927 0.06431 0.0
H1838 H 0.52915 0.33001 0.08379 0.0
H1839 H 0.51171 0.30679 0.09986 0.0
H1840 H 0.7153 0.2175 0.2304 0.0
H1841 H 0.68229 0.21587 0.21625 0.0
H1842 H 0.6569 0.20743 0.26598 0.0
H1843 H 0.69019 0.21037 0.28067 0.0
H1844 H 0.65045 0.18992 0.20999 0.0
H1845 H 0.6328 0.25372 0.25622 0.0
H1846 H 0.65725 0.24659 0.25609 0.0
H1847 H 0.63806 0.23386 0.26676 0.0
C1848 C 0.70274 0.21548 0.23845 0.0
C1849 C 0.70549 0.21462 0.25684 0.0
C1850 C 0.68381 0.21433 0.23025 0.0
C1851 C 0.66706 0.21203 0.24013 0.0
C1852 C 0.66961 0.20979 0.25819 0.0
H1853 H 0.55038 0.20014 0.1812 0.0
H1854 H 0.57801 0.19377 0.20018 0.0
C1855 C 0.68866 0.2112 0.26652 0.0
C1856 C 0.64725 0.21294 0.23144 0.0
H1857 H 0.60916 0.24011 0.23269 0.0
C1858 C 0.64131 0.20076 0.21506 0.0
C1859 C 0.63539 0.2272 0.23798 0.0
C1860 C 0.6412 0.24121 0.25514 0.0
C1861 C 0.62428 0.20287 0.20476 0.0
C1862 C 0.61263 0.2173 0.2112 0.0
C1863 C 0.61814 0.22905 0.22783 0.0
C1864 C 0.59543 0.2213 0.20029 0.0
C1865 C 0.61946 0.19028 0.18668 0.0
C1866 C 0.59582 0.23908 0.19442 0.0
C1867 C 0.58003 0.24281 0.1836 0.0
C1868 C 0.56346 0.22885 0.17854 0.0
C1869 C 0.56294 0.21119 0.18477 0.0
C1870 C 0.57876 0.20747 0.19556 0.0
H1871 H 0.63205 0.18265 0.18213 0.0
H1872 H 0.60664 0.17934 0.18755 0.0
H1873 H 0.61536 0.1989 0.1764 0.0
H1874 H 0.60853 0.24998 0.19796 0.0
H1875 H 0.58089 0.25658 0.1791 0.0
H1876 H 0.48725 0.07309 0.98737 0.0
H1877 H 0.50077 0.0946 0.01478 0.0
H1878 H 0.50655 0.14223 0.98578 0.0
H1879 H 0.49177 0.12112 0.95859 0.0
H1880 H 0.5331 0.12145 0.02812 0.0
H1881 H 0.46488 0.15563 0.02048 0.0
H1882 H 0.46888 0.13378 0.00631 0.0
H1883 H 0.48057 0.1566 0.0022 0.0
C1884 C 0.49153 0.08813 0.98677 0.0
C1885 C 0.48777 0.0955 0.97092 0.0
C1886 C 0.4995 0.10035 0.00241 0.0
C1887 C 0.50411 0.12008 0.0024 0.0
C1888 C 0.50263 0.12709 0.98613 0.0
H1889 H 0.54336 0.20873 0.09504 0.0
H1890 H 0.54415 0.18278 0.06963 0.0
C1891 C 0.49433 0.11494 0.97054 0.0
C1892 C 0.50745 0.13349 0.01968 0.0
H1893 H 0.48705 0.16905 0.04512 0.0
C1894 C 0.5231 0.13192 0.03189 0.0
C1895 C 0.49407 0.14679 0.02471 0.0
C1896 C 0.47605 0.14823 0.01284 0.0
C1897 C 0.52575 0.1434 0.04901 0.0
C1898 C 0.51258 0.15697 0.05381 0.0
C1899 C 0.4971 0.15858 0.04149 0.0
C1900 C 0.51409 0.16975 0.07147 0.0
C1901 C 0.54221 0.14051 0.06191 0.0
C1902 C 0.49715 0.17081 0.08124 0.0
C1903 C 0.4965 0.1859 0.09531 0.0
C1904 C 0.51298 0.19989 0.10018 0.0
C1905 C 0.53057 0.1979 0.0916 0.0
C1906 C 0.53105 0.18303 0.07714 0.0
H1907 H 0.54704 0.12611 0.05835 0.0
H1908 H 0.55514 0.15144 0.06139 0.0
H1909 H 0.5376 0.14218 0.0759 0.0
H1910 H 0.48391 0.16068 0.07717 0.0
H1911 H 0.48279 0.18722 0.10178 0.0
H1912 H 0.29101 0.33804 0.69671 0.0
H1913 H 0.31285 0.36864 0.70356 0.0
H1914 H 0.33342 0.35351 0.75353 0.0
H1915 H 0.31224 0.32272 0.74655 0.0
H1916 H 0.31532 0.3987 0.73259 0.0
H1917 H 0.3848 0.36566 0.72934 0.0
H1918 H 0.36106 0.35244 0.72081 0.0
H1919 H 0.36816 0.35631 0.74445 0.0
C1920 C 0.30021 0.34124 0.70915 0.0
C1921 C 0.29998 0.32787 0.72102 0.0
C1922 C 0.31263 0.35873 0.71305 0.0
C1923 C 0.32509 0.36311 0.72883 0.0
C1924 C 0.32426 0.35019 0.74106 0.0
H1925 H 0.38624 0.4601 0.79381 0.0
H1926 H 0.36591 0.43125 0.77827 0.0
C1927 C 0.3119 0.33272 0.73718 0.0
C1928 C 0.33894 0.38121 0.73264 0.0
H1929 H 0.38767 0.39878 0.74318 0.0
C1930 C 0.33116 0.39874 0.73461 0.0
C1931 C 0.35965 0.38124 0.73503 0.0
C1932 C 0.36896 0.36291 0.73212 0.0
C1933 C 0.34345 0.41623 0.73995 0.0
C1934 C 0.36396 0.41613 0.74337 0.0
C1935 C 0.3719 0.39874 0.74051 0.0
C1936 C 0.37679 0.43361 0.75227 0.0
C1937 C 0.33445 0.43472 0.74258 0.0
C1938 C 0.3899 0.44431 0.74274 0.0
C1939 C 0.40168 0.461 0.75162 0.0
C1940 C 0.40044 0.46708 0.77012 0.0
C1941 C 0.38745 0.45602 0.77953 0.0
C1942 C 0.3758 0.43948 0.7707 0.0
H1943 H 0.319 0.43275 0.73661 0.0
H1944 H 0.33438 0.44018 0.75716 0.0
H1945 H 0.34344 0.44579 0.7365 0.0
H1946 H 0.39085 0.43986 0.72847 0.0
H1947 H 0.41155 0.46921 0.74403 0.0
H1948 H 0.30808 0.68183 0.78762 0.0
H1949 H 0.33306 0.66001 0.78383 0.0
H1950 H 0.31541 0.63748 0.83111 0.0
H1951 H 0.2897 0.65877 0.83459 0.0
H1952 H 0.36485 0.65674 0.80569 0.0
H1953 H 0.31313 0.58888 0.79441 0.0
H1954 H 0.30484 0.61196 0.79402 0.0
H1955 H 0.31013 0.60425 0.81506 0.0
C1956 C 0.30925 0.67202 0.79708 0.0
C1957 C 0.29661 0.67183 0.81125 0.0
C1958 C 0.32369 0.65967 0.79497 0.0
C1959 C 0.32589 0.64685 0.80697 0.0
C1960 C 0.31369 0.64694 0.82143 0.0
H1961 H 0.40672 0.57048 0.8286 0.0
H1962 H 0.38532 0.59549 0.82865 0.0
C1963 C 0.29914 0.65928 0.82353 0.0
C1964 C 0.34109 0.63355 0.80438 0.0
H1965 H 0.3474 0.58612 0.79902 0.0
C1966 C 0.36101 0.64129 0.80405 0.0
C1967 C 0.33605 0.61337 0.80205 0.0
C1968 C 0.31486 0.60408 0.80121 0.0
C1969 C 0.37605 0.62941 0.80209 0.0
C1970 C 0.37103 0.60936 0.80038 0.0
C1971 C 0.35113 0.60156 0.8003 0.0
C1972 C 0.38628 0.59625 0.80029 0.0
C1973 C 0.3973 0.63825 0.80236 0.0
C1974 C 0.39438 0.58881 0.78433 0.0
C1975 C 0.40677 0.57441 0.78422 0.0
C1976 C 0.41099 0.56723 0.80006 0.0
C1977 C 0.40366 0.57558 0.81614 0.0
C1978 C 0.39141 0.58989 0.81623 0.0
H1979 H 0.3988 0.65413 0.80356 0.0
H1980 H 0.40593 0.6345 0.81382 0.0
H1981 H 0.40386 0.63225 0.78988 0.0
H1982 H 0.39047 0.59357 0.77188 0.0
H1983 H 0.41208 0.56817 0.77163 0.0
H1984 H 0.9221 0.56944 0.47612 0.0
H1985 H 0.89605 0.54709 0.48569 0.0
H1986 H 0.90665 0.50311 0.44233 0.0
H1987 H 0.93282 0.5253 0.43275 0.0
H1988 H 0.86 0.52145 0.46291 0.0
H1989 H 0.91696 0.48418 0.49307 0.0
H1990 H 0.92208 0.50853 0.48888 0.0
H1991 H 0.92047 0.48878 0.47065 0.0
C1992 C 0.91879 0.55502 0.46858 0.0
C1993 C 0.92961 0.54901 0.4538 0.0
C1994 C 0.90384 0.54237 0.47398 0.0
C1995 C 0.89956 0.52351 0.46473 0.0
C1996 C 0.90981 0.51767 0.4496 0.0
H1997 H 0.84047 0.41542 0.47488 0.0
H1998 H 0.85855 0.4441 0.46679 0.0
C1999 C 0.92468 0.53033 0.44413 0.0
C2000 C 0.8855 0.50943 0.47163 0.0
H2001 H 0.88385 0.46934 0.4911 0.0
C2002 C 0.8651 0.5101 0.46922 0.0
C2003 C 0.89235 0.49491 0.48005 0.0
C2004 C 0.91416 0.49403 0.48349 0.0
C2005 C 0.85127 0.49586 0.47417 0.0
C2006 C 0.85816 0.48085 0.48191 0.0
C2007 C 0.8786 0.48079 0.48505 0.0
C2008 C 0.84482 0.464 0.48542 0.0
C2009 C 0.82949 0.49649 0.47038 0.0
C2010 C 0.83057 0.46567 0.49822 0.0
C2011 C 0.81989 0.44914 0.50271 0.0
C2012 C 0.8237 0.43085 0.49468 0.0
C2013 C 0.83739 0.42935 0.48141 0.0
C2014 C 0.84773 0.44572 0.47677 0.0
H2015 H 0.82677 0.50699 0.46144 0.0
H2016 H 0.82195 0.4821 0.46409 0.0
H2017 H 0.82271 0.50075 0.48321 0.0
H2018 H 0.8283 0.47964 0.50524 0.0
H2019 H 0.8095 0.45063 0.51306 0.0
H2020 H 0.79894 0.87961 0.79262 0.0
H2021 H 0.77779 0.89457 0.77363 0.0
H2022 H 0.74466 0.83924 0.75292 0.0
H2023 H 0.76531 0.82421 0.77253 0.0
H2024 H 0.76526 0.89047 0.73713 0.0
H2025 H 0.70404 0.86903 0.779 0.0
H2026 H 0.72942 0.86662 0.7848 0.0
H2027 H 0.71546 0.84986 0.76702 0.0
C2028 C 0.78727 0.87059 0.78389 0.0
C2029 C 0.78344 0.85083 0.7844 0.0
C2030 C 0.77534 0.87913 0.77291 0.0
C2031 C 0.75942 0.86806 0.76218 0.0
C2032 C 0.75667 0.84806 0.76138 0.0
H2033 H 0.65626 0.91633 0.72711 0.0
H2034 H 0.68036 0.89387 0.72846 0.0
C2035 C 0.76857 0.83948 0.77248 0.0
C2036 C 0.74447 0.87795 0.75389 0.0
H2037 H 0.69775 0.88936 0.75877 0.0
C2038 C 0.75037 0.89003 0.7416 0.0
C2039 C 0.7251 0.87738 0.75984 0.0
C2040 C 0.71808 0.86516 0.77348 0.0
C2041 C 0.73753 0.90195 0.73544 0.0
C2042 C 0.71849 0.902 0.74205 0.0
C2043 C 0.71235 0.8893 0.75372 0.0
C2044 C 0.70499 0.91584 0.73815 0.0
C2045 C 0.74454 0.91445 0.72207 0.0
C2046 C 0.71091 0.93571 0.7428 0.0
C2047 C 0.69716 0.94864 0.74184 0.0
C2048 C 0.67722 0.94182 0.73663 0.0
C2049 C 0.6715 0.92198 0.73139 0.0
C2050 C 0.68527 0.90914 0.73207 0.0
H2051 H 0.75594 0.90811 0.71389 0.0
H2052 H 0.7321 0.91664 0.71294 0.0
H2053 H 0.75138 0.92868 0.7294 0.0
H2054 H 0.72592 0.94121 0.74799 0.0
H2055 H 0.70193 0.96386 0.74601 0.0
H2056 H 0.63611 0.48087 0.00964 0.0
H2057 H 0.66407 0.50594 0.02126 0.0
H2058 H 0.67711 0.51171 0.96704 0.0
H2059 H 0.64973 0.48685 0.95548 0.0
H2060 H 0.70882 0.50755 0.0076 0.0
H2061 H 0.66605 0.56702 0.99754 0.0
H2062 H 0.65461 0.54422 0.00228 0.0
H2063 H 0.66192 0.54628 0.98011 0.0
C2064 C 0.64515 0.48739 1.00029 0.0
C2065 C 0.64061 0.48219 0.98169 0.0
C2066 C 0.66099 0.50169 0.00691 0.0
C2067 C 0.67234 0.5108 0.99495 0.0
C2068 C 0.66829 0.50501 0.97644 0.0
H2069 H 0.7742 0.5678 0.9685 0.0
H2070 H 0.74673 0.54664 0.97678 0.0
C2071 C 0.65263 0.49085 0.96988 0.0
C2072 C 0.68839 0.52664 0.0012 0.0
H2073 H 0.70133 0.57346 0.997 0.0
C2074 C 0.70715 0.52213 0.00589 0.0
C2075 C 0.68609 0.54565 0.9991 0.0
C2076 C 0.66605 0.55121 0.99462 0.0
C2077 C 0.72399 0.53582 0.00693 0.0
C2078 C 0.72191 0.55425 0.00288 0.0
C2079 C 0.70293 0.55927 0.99994 0.0
C2080 C 0.7391 0.56724 0.99879 0.0
C2081 C 0.74397 0.53012 0.01141 0.0
C2082 C 0.74354 0.58614 0.00804 0.0
C2083 C 0.75928 0.59845 0.00323 0.0
C2084 C 0.77062 0.59207 0.98894 0.0
C2085 C 0.76587 0.5732 0.97961 0.0
C2086 C 0.75027 0.56098 0.98445 0.0
H2087 H 0.74271 0.51886 0.02007 0.0
H2088 H 0.75031 0.5241 0.99882 0.0
H2089 H 0.75437 0.54265 0.01831 0.0
H2090 H 0.73486 0.59133 0.01897 0.0
H2091 H 0.76256 0.61291 0.01068 0.0
H2092 H 0.28003 0.67313 0.18063 0.0
H2093 H 0.25383 0.64687 0.18302 0.0
H2094 H 0.28169 0.63987 0.23348 0.0
H2095 H 0.3075 0.66615 0.23142 0.0
H2096 H 0.25755 0.60738 0.18736 0.0
H2097 H 0.22399 0.64779 0.24455 0.0
H2098 H 0.24055 0.65943 0.23048 0.0
H2099 H 0.25024 0.64777 0.24775 0.0
C2100 C 0.28053 0.66597 0.19221 0.0
C2101 C 0.2959 0.67164 0.20577 0.0
C2102 C 0.26563 0.65096 0.19353 0.0
C2103 C 0.26576 0.6416 0.20852 0.0
C2104 C 0.28122 0.64705 0.2219 0.0
H2105 H 0.20451 0.53413 0.2282 0.0
H2106 H 0.22855 0.56045 0.22234 0.0
C2107 C 0.29609 0.66194 0.22058 0.0
C2108 C 0.24973 0.62618 0.21039 0.0
H2109 H 0.21332 0.6142 0.23755 0.0
C2110 C 0.24776 0.60888 0.19823 0.0
C2111 C 0.23689 0.6283 0.2245 0.0
C2112 C 0.23784 0.64687 0.23749 0.0
C2113 C 0.23361 0.59338 0.20014 0.0
C2114 C 0.22129 0.59524 0.21467 0.0
C2115 C 0.2229 0.61275 0.22651 0.0
C2116 C 0.20671 0.57916 0.21795 0.0
C2117 C 0.2319 0.57518 0.18654 0.0
C2118 C 0.1865 0.58111 0.21783 0.0
C2119 C 0.17272 0.56614 0.22127 0.0
C2120 C 0.17892 0.54896 0.22502 0.0
C2121 C 0.19922 0.54712 0.22528 0.0
C2122 C 0.21298 0.5621 0.22181 0.0
H2123 H 0.23858 0.57774 0.17389 0.0
H2124 H 0.23985 0.56451 0.19215 0.0
H2125 H 0.21619 0.56888 0.18338 0.0
H2126 H 0.18137 0.59422 0.215 0.0
H2127 H 0.15722 0.56806 0.221 0.0
H2128 H 0.9508 0.50285 0.05822 0.0
H2129 H 0.93243 0.53035 0.05734 0.0
H2130 H 0.94918 0.53304 0.0035 0.0
H2131 H 0.96785 0.50601 0.00435 0.0
H2132 H 0.94779 0.57048 0.04585 0.0
H2133 H 0.88534 0.52419 0.00423 0.0
H2134 H 0.9023 0.51483 0.01861 0.0
H2135 H 0.9097 0.52059 0.99745 0.0
C2136 C 0.95075 0.50947 0.04629 0.0
C2137 C 0.96056 0.50212 0.03126 0.0
C2138 C 0.94028 0.52513 0.04583 0.0
C2139 C 0.93948 0.53356 0.03035 0.0
C2140 C 0.94961 0.52658 0.01553 0.0
H2141 H 0.88596 0.60851 0.97621 0.0
H2142 H 0.909 0.59037 0.98978 0.0
C2143 C 0.96008 0.51103 0.01598 0.0
C2144 C 0.92719 0.54895 0.02896 0.0
H2145 H 0.88647 0.55788 0.00556 0.0
C2146 C 0.93417 0.56779 0.03733 0.0
C2147 C 0.90945 0.54521 0.01791 0.0
C2148 C 0.9011 0.5251 0.00911 0.0
C2149 C 0.9243 0.58324 0.03403 0.0
C2150 C 0.90721 0.57954 0.02214 0.0
C2151 C 0.89973 0.56059 0.01457 0.0
C2152 C 0.89746 0.59495 0.01603 0.0
C2153 C 0.93256 0.60344 0.04248 0.0
C2154 C 0.88408 0.60429 0.02662 0.0
C2155 C 0.87096 0.61485 0.01892 0.0
C2156 C 0.87095 0.6158 1.00049 0.0
C2157 C 0.88559 0.60788 0.99041 0.0
C2158 C 0.89876 0.59756 0.99814 0.0
H2159 H 0.94627 0.60395 0.05116 0.0
H2160 H 0.93585 0.61223 0.03183 0.0
H2161 H 0.92135 0.61006 0.05069 0.0
H2162 H 0.88277 0.60222 0.04042 0.0
H2163 H 0.85972 0.62072 0.02695 0.0
H2164 H 0.12784 0.03154 0.05833 0.0
H2165 H 0.1531 0.01094 0.04926 0.0
H2166 H 0.11359 0.96118 0.05651 0.0
H2167 H 0.088 0.98158 0.06525 0.0
H2168 H 0.16128 0.97507 0.07544 0.0
H2169 H 0.14461 0.9606 0.00134 0.0
H2170 H 0.14197 0.98365 0.01435 0.0
H2171 H 0.12494 0.96301 0.01639 0.0
C2172 C 0.12433 0.01618 0.05769 0.0
C2173 C 0.10581 0.00824 0.06249 0.0
C2174 C 0.13886 0.00446 0.05261 0.0
C2175 C 0.13516 0.98457 0.0522 0.0
C2176 C 0.11668 0.97651 0.05674 0.0
H2177 H 0.20962 0.89353 0.04634 0.0
H2178 H 0.184 0.91447 0.05218 0.0
C2179 C 0.10213 0.98821 0.06182 0.0
C2180 C 0.1509 0.97229 0.04776 0.0
H2181 H 0.17051 0.94594 0.0128 0.0
C2182 C 0.16333 0.96867 0.06176 0.0
C2183 C 0.15363 0.96422 0.0299 0.0
C2184 C 0.14065 0.96797 0.01451 0.0
C2185 C 0.17843 0.95704 0.05838 0.0
C2186 C 0.18086 0.94845 0.04052 0.0
C2187 C 0.16858 0.95238 0.02648 0.0
C2188 C 0.19598 0.93526 0.03624 0.0
C2189 C 0.19187 0.95437 0.07394 0.0
C2190 C 0.21088 0.93955 0.02478 0.0
C2191 C 0.22551 0.92748 0.02127 0.0
C2192 C 0.22549 0.91081 0.0291 0.0
C2193 C 0.21022 0.9063 0.04019 0.0
C2194 C 0.1956 0.91834 0.04364 0.0
H2195 H 0.19176 0.96599 0.08563 0.0
H2196 H 0.1867 0.94052 0.07826 0.0
H2197 H 0.20734 0.95405 0.07008 0.0
H2198 H 0.21142 0.95246 0.01881 0.0
H2199 H 0.237 0.9314 0.01264 0.0
loop_
_geom_bond_atom_site_label_1
_geom_bond_atom_site_label_2
_geom_bond_distance
_geom_bond_site_symmetry_2
_ccdc_geom_bond_type
H0 C1 0.949 . S
C1 H0 0.949 . S
C1 C2 1.395 . S
C1 C3 1.391 . S
C2 C1 1.395 . S
C2 C5 1.390 . S
C3 C1 1.391 . S
C3 C7 1.387 . S
C3 C8 1.491 . S
H4 C5 0.950 . S
C5 C2 1.390 . S
C5 H4 0.950 . S
C5 C6 1.378 . S
C6 C5 1.378 . S
C6 C7 1.409 . S
C7 C3 1.387 . S
C7 C6 1.409 . S
C7 H9 0.951 . S
C8 C3 1.491 . S
C8 C10 1.382 . S
C8 C12 1.404 . S
H9 C7 0.951 . S
C10 C8 1.382 . S
C10 C11 1.390 . S
C10 H15 0.949 . S
C11 C10 1.390 . S
C11 C16 1.399 . S
C12 C8 1.404 . S
C12 H13 0.950 . S
C12 C14 1.375 . S
H13 C12 0.950 . S
C14 C12 1.375 . S
C14 C16 1.382 . S
C14 H18 0.950 . S
H15 C10 0.949 . S
C16 C11 1.399 . S
C16 C14 1.382 . S
C16 H17 0.952 . S
H17 C16 0.952 . S
H18 C14 0.950 . S
H19 C20 0.949 . S
C20 H19 0.949 . S
C20 C21 1.395 . S
C20 C22 1.391 . S
C21 C20 1.395 . S
C21 C24 1.390 . S
C22 C20 1.391 . S
C22 C26 1.387 . S
C22 C27 1.491 . S
H23 C24 0.950 . S
C24 C21 1.390 . S
C24 H23 0.950 . S
C24 C25 1.378 . S
C25 C24 1.378 . S
C25 C26 1.409 . S
C26 C22 1.387 . S
C26 C25 1.409 . S
C26 H28 0.951 . S
C27 C22 1.491 . S
C27 C29 1.382 . S
C27 C31 1.404 . S
H28 C26 0.951 . S
C29 C27 1.382 . S
C29 C30 1.390 . S
C29 H34 0.949 . S
C30 C29 1.390 . S
C30 C35 1.399 . S
C31 C27 1.404 . S
C31 H32 0.950 . S
C31 C33 1.375 . S
H32 C31 0.950 . S
C33 C31 1.375 . S
C33 C35 1.382 . S
C33 H37 0.950 . S
H34 C29 0.949 . S
C35 C30 1.399 . S
C35 C33 1.382 . S
C35 H36 0.952 . S
H36 C35 0.952 . S
H37 C33 0.950 . S
H38 C39 0.949 . S
C39 H38 0.949 . S
C39 C40 1.395 . S
C39 C41 1.391 . S
C40 C39 1.395 . S
C40 C43 1.390 . S
C41 C39 1.391 . S
C41 C45 1.387 . S
C41 C46 1.491 . S
H42 C43 0.950 . S
C43 C40 1.390 . S
C43 H42 0.950 . S
C43 C44 1.378 . S
C44 C43 1.378 . S
C44 C45 1.409 . S
C45 C41 1.387 . S
C45 C44 1.409 . S
C45 H47 0.951 . S
C46 C41 1.491 . S
C46 C48 1.382 . S
C46 C50 1.404 1_554 S
H47 C45 0.951 . S
C48 C46 1.382 . S
C48 C49 1.390 1_554 S
C48 H53 0.949 . S
C49 C48 1.390 1_556 S
C49 C54 1.399 . S
C50 C46 1.404 1_556 S
C50 H51 0.950 . S
C50 C52 1.375 . S
H51 C50 0.950 . S
C52 C50 1.375 . S
C52 C54 1.382 . S
C52 H56 0.950 . S
H53 C48 0.949 . S
C54 C49 1.399 . S
C54 C52 1.382 . S
C54 H55 0.952 . S
H55 C54 0.952 . S
H56 C52 0.950 . S
H57 C58 0.949 . S
C58 H57 0.949 . S
C58 C59 1.395 . S
C58 C60 1.391 . S
C59 C58 1.395 . S
C59 C62 1.390 . S
C60 C58 1.391 . S
C60 C64 1.387 . S
C60 C65 1.491 . S
H61 C62 0.950 . S
C62 C59 1.390 . S
C62 H61 0.950 . S
C62 C63 1.378 . S
C63 C62 1.378 . S
C63 C64 1.409 . S
C64 C60 1.387 . S
C64 C63 1.409 . S
C64 H66 0.951 . S
C65 C60 1.491 . S
C65 C67 1.382 . S
C65 C69 1.404 . S
H66 C64 0.951 . S
C67 C65 1.382 . S
C67 C68 1.390 . S
C67 H72 0.949 . S
C68 C67 1.390 . S
C68 C73 1.399 . S
C69 C65 1.404 . S
C69 H70 0.950 . S
C69 C71 1.375 . S
H70 C69 0.950 . S
C71 C69 1.375 . S
C71 C73 1.382 . S
C71 H75 0.950 . S
H72 C67 0.949 . S
C73 C68 1.399 . S
C73 C71 1.382 . S
C73 H74 0.952 . S
H74 C73 0.952 . S
H75 C71 0.950 . S
H76 C77 0.949 . S
C77 H76 0.949 . S
C77 C78 1.395 . S
C77 C79 1.391 . S
C78 C77 1.395 . S
C78 C81 1.390 . S
C79 C77 1.391 . S
C79 C83 1.387 . S
C79 C84 1.491 . S
H80 C81 0.950 . S
C81 C78 1.390 . S
C81 H80 0.950 . S
C81 C82 1.378 . S
C82 C81 1.378 . S
C82 C83 1.409 . S
C83 C79 1.387 . S
C83 C82 1.409 . S
C83 H85 0.951 . S
C84 C79 1.491 . S
C84 C86 1.382 . S
C84 C88 1.404 . S
H85 C83 0.951 . S
C86 C84 1.382 . S
C86 C87 1.390 . S
C86 H91 0.949 . S
C87 C86 1.390 . S
C87 C92 1.399 . S
C88 C84 1.404 . S
C88 H89 0.950 . S
C88 C90 1.375 . S
H89 C88 0.950 . S
C90 C88 1.375 . S
C90 C92 1.382 . S
C90 H94 0.950 . S
H91 C86 0.949 . S
C92 C87 1.399 . S
C92 C90 1.382 . S
C92 H93 0.952 . S
H93 C92 0.952 . S
H94 C90 0.950 . S
H95 C96 0.949 . S
C96 H95 0.949 . S
C96 C97 1.395 . S
C96 C98 1.391 . S
C97 C96 1.395 . S
C97 C100 1.390 . S
C98 C96 1.391 . S
C98 C102 1.387 . S
C98 C103 1.491 . S
H99 C100 0.950 . S
C100 C97 1.390 . S
C100 H99 0.950 . S
C100 C101 1.378 . S
C101 C100 1.378 . S
C101 C102 1.409 . S
C102 C98 1.387 . S
C102 C101 1.409 . S
C102 H104 0.951 . S
C103 C98 1.491 . S
C103 C105 1.382 . S
C103 C107 1.404 . S
H104 C102 0.951 . S
C105 C103 1.382 . S
C105 C106 1.390 . S
C105 H110 0.949 . S
C106 C105 1.390 . S
C106 C111 1.399 . S
C107 C103 1.404 . S
C107 H108 0.950 . S
C107 C109 1.375 . S
H108 C107 0.950 . S
C109 C107 1.375 . S
C109 C111 1.382 . S
C109 H113 0.950 . S
H110 C105 0.949 . S
C111 C106 1.399 . S
C111 C109 1.382 . S
C111 H112 0.952 . S
H112 C111 0.952 . S
H113 C109 0.950 . S
H114 C115 0.949 . S
C115 H114 0.949 . S
C115 C116 1.395 . S
C115 C117 1.391 . S
C116 C115 1.395 . S
C116 C119 1.390 . S
C117 C115 1.391 . S
C117 C121 1.387 . S
C117 C122 1.491 . S
H118 C119 0.950 . S
C119 C116 1.390 . S
C119 H118 0.950 . S
C119 C120 1.378 . S
C120 C119 1.378 . S
C120 C121 1.409 . S
C121 C117 1.387 . S
C121 C120 1.409 . S
C121 H123 0.951 . S
C122 C117 1.491 . S
C122 C124 1.382 . S
C122 C126 1.404 . S
H123 C121 0.951 . S
C124 C122 1.382 . S
C124 C125 1.390 . S
C124 H129 0.949 1_655 S
C125 C124 1.390 . S
C125 C130 1.399 . S
C126 C122 1.404 . S
C126 H127 0.950 . S
C126 C128 1.375 . S
H127 C126 0.950 . S
C128 C126 1.375 . S
C128 C130 1.382 . S
C128 H132 0.950 . S
H129 C124 0.949 1_455 S
C130 C125 1.399 . S
C130 C128 1.382 . S
C130 H131 0.952 . S
H131 C130 0.952 . S
H132 C128 0.950 . S
H133 C134 0.949 . S
C134 H133 0.949 . S
C134 C135 1.395 . S
C134 C136 1.391 . S
C135 C134 1.395 . S
C135 C138 1.390 . S
C136 C134 1.391 . S
C136 C140 1.387 . S
C136 C141 1.491 . S
H137 C138 0.950 . S
C138 C135 1.390 . S
C138 H137 0.950 . S
C138 C139 1.378 . S
C139 C138 1.378 . S
C139 C140 1.409 . S
C140 C136 1.387 . S
C140 C139 1.409 . S
C140 H142 0.951 . S
C141 C136 1.491 . S
C141 C143 1.382 . S
C141 C145 1.404 . S
H142 C140 0.951 . S
C143 C141 1.382 . S
C143 C144 1.390 . S
C143 H148 0.949 . S
C144 C143 1.390 . S
C144 C149 1.399 . S
C145 C141 1.404 . S
C145 H146 0.950 . S
C145 C147 1.375 . S
H146 C145 0.950 . S
C147 C145 1.375 . S
C147 C149 1.382 . S
C147 H151 0.950 . S
H148 C143 0.949 . S
C149 C144 1.399 . S
C149 C147 1.382 . S
C149 H150 0.952 . S
H150 C149 0.952 . S
H151 C147 0.950 . S
H152 C153 0.949 . S
C153 H152 0.949 . S
C153 C154 1.395 . S
C153 C155 1.391 . S
C154 C153 1.395 . S
C154 C157 1.390 . S
C155 C153 1.391 . S
C155 C159 1.387 . S
C155 C160 1.491 . S
H156 C157 0.950 . S
C157 C154 1.390 . S
C157 H156 0.950 . S
C157 C158 1.378 . S
C158 C157 1.378 . S
C158 C159 1.409 . S
C159 C155 1.387 . S
C159 C158 1.409 . S
C159 H161 0.951 . S
C160 C155 1.491 . S
C160 C162 1.382 . S
C160 C164 1.404 . S
H161 C159 0.951 . S
C162 C160 1.382 . S
C162 C163 1.390 . S
C162 H167 0.949 . S
C163 C162 1.390 . S
C163 C168 1.399 . S
C164 C160 1.404 . S
C164 H165 0.950 . S
C164 C166 1.375 . S
H165 C164 0.950 . S
C166 C164 1.375 . S
C166 C168 1.382 . S
C166 H170 0.950 . S
H167 C162 0.949 . S
C168 C163 1.399 . S
C168 C166 1.382 . S
C168 H169 0.952 . S
H169 C168 0.952 . S
H170 C166 0.950 . S
H171 C172 0.949 . S
C172 H171 0.949 . S
C172 C173 1.395 . S
C172 C174 1.391 . S
C173 C172 1.395 . S
C173 C176 1.390 . S
C174 C172 1.391 . S
C174 C178 1.387 . S
C174 C179 1.491 . S
H175 C176 0.950 . S
C176 C173 1.390 . S
C176 H175 0.950 . S
C176 C177 1.378 . S
C177 C176 1.378 . S
C177 C178 1.409 . S
C178 C174 1.387 . S
C178 C177 1.409 . S
C178 H180 0.951 . S
C179 C174 1.491 . S
C179 C181 1.382 . S
C179 C183 1.404 . S
H180 C178 0.951 . S
C181 C179 1.382 . S
C181 C182 1.390 . S
C181 H186 0.949 . S
C182 C181 1.390 . S
C182 C187 1.399 . S
C183 C179 1.404 . S
C183 H184 0.950 . S
C183 C185 1.375 . S
H184 C183 0.950 . S
C185 C183 1.375 . S
C185 C187 1.382 . S
C185 H189 0.950 . S
H186 C181 0.949 . S
C187 C182 1.399 . S
C187 C185 1.382 . S
C187 H188 0.952 . S
H188 C187 0.952 . S
H189 C185 0.950 . S
H190 C191 0.949 . S
C191 H190 0.949 . S
C191 C192 1.395 . S
C191 C193 1.391 . S
C192 C191 1.395 . S
C192 C195 1.390 . S
C193 C191 1.391 . S
C193 C197 1.387 . S
C193 C198 1.491 . S
H194 C195 0.950 . S
C195 C192 1.390 . S
C195 H194 0.950 . S
C195 C196 1.378 . S
C196 C195 1.378 . S
C196 C197 1.409 . S
C197 C193 1.387 . S
C197 C196 1.409 . S
C197 H199 0.951 . S
C198 C193 1.491 . S
C198 C200 1.382 . S
C198 C202 1.404 . S
H199 C197 0.951 . S
C200 C198 1.382 . S
C200 C201 1.390 . S
C200 H205 0.949 . S
C201 C200 1.390 . S
C201 C206 1.399 . S
C202 C198 1.404 . S
C202 H203 0.950 . S
C202 C204 1.375 . S
H203 C202 0.950 . S
C204 C202 1.375 . S
C204 C206 1.382 . S
C204 H208 0.950 . S
H205 C200 0.949 . S
C206 C201 1.399 . S
C206 C204 1.382 . S
C206 H207 0.952 . S
H207 C206 0.952 . S
H208 C204 0.950 . S
H209 C210 0.949 . S
C210 H209 0.949 . S
C210 C211 1.395 . S
C210 C212 1.391 . S
C211 C210 1.395 . S
C211 C214 1.390 . S
C212 C210 1.391 . S
C212 C216 1.387 . S
C212 C217 1.491 . S
H213 C214 0.950 . S
C214 C211 1.390 . S
C214 H213 0.950 . S
C214 C215 1.378 . S
C215 C214 1.378 . S
C215 C216 1.409 . S
C216 C212 1.387 . S
C216 C215 1.409 . S
C216 H218 0.951 . S
C217 C212 1.491 . S
C217 C219 1.382 . S
C217 C221 1.404 . S
H218 C216 0.951 . S
C219 C217 1.382 . S
C219 C220 1.390 . S
C219 H224 0.949 . S
C220 C219 1.390 . S
C220 C225 1.399 . S
C221 C217 1.404 . S
C221 H222 0.950 . S
C221 C223 1.375 . S
H222 C221 0.950 . S
C223 C221 1.375 . S
C223 C225 1.382 . S
C223 H227 0.950 . S
H224 C219 0.949 . S
C225 C220 1.399 . S
C225 C223 1.382 . S
C225 H226 0.952 . S
H226 C225 0.952 . S
H227 C223 0.950 . S
H228 C229 0.949 . S
C229 H228 0.949 . S
C229 C230 1.395 . S
C229 C231 1.391 . S
C230 C229 1.395 . S
C230 C233 1.390 . S
C231 C229 1.391 . S
C231 C235 1.387 . S
C231 C236 1.491 . S
H232 C233 0.950 . S
C233 C230 1.390 . S
C233 H232 0.950 . S
C233 C234 1.378 . S
C234 C233 1.378 . S
C234 C235 1.409 . S
C235 C231 1.387 . S
C235 C234 1.409 . S
C235 H237 0.951 . S
C236 C231 1.491 . S
C236 C238 1.382 . S
C236 C240 1.404 . S
H237 C235 0.951 . S
C238 C236 1.382 . S
C238 C239 1.390 . S
C238 H243 0.949 . S
C239 C238 1.390 . S
C239 C244 1.399 . S
C240 C236 1.404 . S
C240 H241 0.950 . S
C240 C242 1.375 . S
H241 C240 0.950 . S
C242 C240 1.375 . S
C242 C244 1.382 . S
C242 H246 0.950 . S
H243 C238 0.949 . S
C244 C239 1.399 . S
C244 C242 1.382 . S
C244 H245 0.952 . S
H245 C244 0.952 . S
H246 C242 0.950 . S
H247 C248 0.949 . S
C248 H247 0.949 . S
C248 C249 1.395 . S
C248 C250 1.391 . S
C249 C248 1.395 . S
C249 C252 1.390 . S
C250 C248 1.391 . S
C250 C254 1.387 . S
C250 C255 1.491 . S
H251 C252 0.950 . S
C252 C249 1.390 . S
C252 H251 0.950 . S
C252 C253 1.378 . S
C253 C252 1.378 . S
C253 C254 1.409 . S
C254 C250 1.387 . S
C254 C253 1.409 . S
C254 H256 0.951 . S
C255 C250 1.491 . S
C255 C257 1.387 1_556 S
C255 C259 1.404 . S
H256 C254 0.951 . S
C257 C255 1.387 1_554 S
C257 C258 1.387 . S
C257 H262 0.946 . S
C258 C257 1.387 . S
C258 C263 1.399 1_554 S
C259 C255 1.404 . S
C259 H260 0.950 . S
C259 C261 1.375 . S
H260 C259 0.950 . S
C261 C259 1.375 . S
C261 C263 1.382 . S
C261 H265 0.950 . S
H262 C257 0.946 . S
C263 C258 1.399 1_556 S
C263 C261 1.382 . S
C263 H264 0.952 . S
H264 C263 0.952 . S
H265 C261 0.950 . S
H266 C267 0.949 . S
C267 H266 0.949 . S
C267 C268 1.395 . S
C267 C269 1.391 . S
C268 C267 1.395 . S
C268 C271 1.390 . S
C269 C267 1.391 . S
C269 C273 1.387 . S
C269 C274 1.491 . S
H270 C271 0.950 . S
C271 C268 1.390 . S
C271 H270 0.950 . S
C271 C272 1.378 . S
C272 C271 1.378 . S
C272 C273 1.409 . S
C273 C269 1.387 . S
C273 C272 1.409 . S
C273 H275 0.951 . S
C274 C269 1.491 . S
C274 C276 1.382 . S
C274 C278 1.404 . S
H275 C273 0.951 . S
C276 C274 1.382 . S
C276 C277 1.390 . S
C276 H281 0.949 . S
C277 C276 1.390 . S
C277 C282 1.399 . S
C278 C274 1.404 . S
C278 H279 0.950 . S
C278 C280 1.375 . S
H279 C278 0.950 . S
C280 C278 1.375 . S
C280 C282 1.382 . S
C280 H284 0.950 . S
H281 C276 0.949 . S
C282 C277 1.399 . S
C282 C280 1.382 . S
C282 H283 0.952 . S
H283 C282 0.952 . S
H284 C280 0.950 . S
H285 C286 0.949 . S
C286 H285 0.949 . S
C286 C287 1.395 . S
C286 C288 1.391 . S
C287 C286 1.395 . S
C287 C290 1.390 . S
C288 C286 1.391 . S
C288 C292 1.387 . S
C288 C293 1.491 . S
H289 C290 0.950 . S
C290 C287 1.390 . S
C290 H289 0.950 . S
C290 C291 1.378 . S
C291 C290 1.378 . S
C291 C292 1.409 . S
C292 C288 1.387 . S
C292 C291 1.409 . S
C292 H294 0.951 . S
C293 C288 1.491 . S
C293 C295 1.382 . S
C293 C297 1.404 . S
H294 C292 0.951 . S
C295 C293 1.382 . S
C295 C296 1.390 . S
C295 H300 0.949 . S
C296 C295 1.390 . S
C296 C301 1.399 . S
C297 C293 1.404 . S
C297 H298 0.950 . S
C297 C299 1.375 . S
H298 C297 0.950 . S
C299 C297 1.375 . S
C299 C301 1.382 . S
C299 H303 0.950 . S
H300 C295 0.949 . S
C301 C296 1.399 . S
C301 C299 1.382 . S
C301 H302 0.952 . S
H302 C301 0.952 . S
H303 C299 0.950 . S
Zn304 O307 2.031 . S
Zn304 O309 2.049 . S
Zn304 O314 2.067 . S
Zn305 O306 1.962 . S
Zn305 O308 1.986 . S
Zn305 O310 1.996 . S
Zn305 O313 1.943 . S
O306 Zn305 1.962 . S
O306 C311 1.254 . S
O307 Zn304 2.031 . S
O307 C311 1.269 . S
O308 Zn305 1.986 . S
O308 C315 1.262 . S
O309 Zn304 2.049 . S
O309 C317 1.260 . S
O310 Zn305 1.996 . S
O310 C317 1.257 . S
C311 O306 1.254 . S
C311 O307 1.269 . S
C312 O313 1.249 . S
C312 O314 1.270 . S
O313 Zn305 1.943 . S
O313 C312 1.249 . S
O314 Zn304 2.067 . S
O314 C312 1.270 . S
C315 O308 1.262 . S
C315 O316 1.232 . S
O316 C315 1.232 . S
C317 O309 1.260 . S
C317 O310 1.257 . S
Zn318 O321 2.031 . S
Zn318 O323 2.049 . S
Zn318 O328 2.067 . S
Zn319 O320 1.962 . S
Zn319 O322 1.986 . S
Zn319 O324 1.996 . S
Zn319 O327 1.943 . S
O320 Zn319 1.962 . S
O320 C325 1.254 . S
O321 Zn318 2.031 . S
O321 C325 1.269 . S
O322 Zn319 1.986 . S
O322 C329 1.262 . S
O323 Zn318 2.049 . S
O323 C331 1.260 . S
O324 Zn319 1.996 . S
O324 C331 1.257 . S
C325 O320 1.254 . S
C325 O321 1.269 . S
C326 O327 1.249 . S
C326 O328 1.270 . S
O327 Zn319 1.943 . S
O327 C326 1.249 . S
O328 Zn318 2.067 . S
O328 C326 1.270 . S
C329 O322 1.262 . S
C329 O330 1.232 . S
O330 C329 1.232 . S
C331 O323 1.260 . S
C331 O324 1.257 . S
Zn332 O335 2.031 . S
Zn332 O337 2.049 . S
Zn332 O342 2.067 . S
Zn333 O334 1.962 . S
Zn333 O336 1.986 . S
Zn333 O338 1.996 1_554 S
Zn333 O341 1.943 . S
O334 Zn333 1.962 . S
O334 C339 1.254 . S
O335 Zn332 2.031 . S
O335 C339 1.269 1_556 S
O336 Zn333 1.986 . S
O336 C343 1.262 . S
O337 Zn332 2.049 . S
O337 C345 1.260 . S
O338 Zn333 1.996 1_556 S
O338 C345 1.257 . S
C339 O334 1.254 . S
C339 O335 1.269 1_554 S
C340 O341 1.249 1_556 S
C340 O342 1.270 . S
O341 Zn333 1.943 . S
O341 C340 1.249 1_554 S
O342 Zn332 2.067 . S
O342 C340 1.270 . S
C343 O336 1.262 . S
C343 O344 1.232 . S
O344 C343 1.232 . S
C345 O337 1.260 . S
C345 O338 1.257 . S
Zn346 O349 2.031 . S
Zn346 O351 2.049 . S
Zn346 O356 2.067 1_545 S
Zn347 O348 1.962 . S
Zn347 O350 1.986 . S
Zn347 O352 1.996 . S
Zn347 O355 1.942 . S
O348 Zn347 1.962 . S
O348 C353 1.254 . S
O349 Zn346 2.031 . S
O349 C353 1.269 . S
O350 Zn347 1.986 . S
O350 C357 1.262 . S
O351 Zn346 2.049 . S
O351 C359 1.260 . S
O352 Zn347 1.996 . S
O352 C359 1.257 . S
C353 O348 1.254 . S
C353 O349 1.269 . S
C354 O355 1.249 1_565 S
C354 O356 1.270 . S
O355 Zn347 1.942 . S
O355 C354 1.249 1_545 S
O356 Zn346 2.067 1_565 S
O356 C354 1.270 . S
C357 O350 1.262 . S
C357 O358 1.232 . S
O358 C357 1.232 . S
C359 O351 1.260 . S
C359 O352 1.257 . S
Zn360 O363 2.031 . S
Zn360 O365 2.049 . S
Zn360 O370 2.067 . S
Zn361 O362 1.962 . S
Zn361 O364 1.986 . S
Zn361 O366 1.996 . S
Zn361 O369 1.943 . S
O362 Zn361 1.962 . S
O362 C367 1.254 . S
O363 Zn360 2.031 . S
O363 C367 1.269 . S
O364 Zn361 1.986 . S
O364 C371 1.262 . S
O365 Zn360 2.049 . S
O365 C373 1.260 . S
O366 Zn361 1.996 . S
O366 C373 1.257 . S
C367 O362 1.254 . S
C367 O363 1.269 . S
C368 O369 1.249 . S
C368 O370 1.270 . S
O369 Zn361 1.943 . S
O369 C368 1.249 . S
O370 Zn360 2.067 . S
O370 C368 1.270 . S
C371 O364 1.262 . S
C371 O372 1.232 . S
O372 C371 1.232 . S
C373 O365 1.260 . S
C373 O366 1.257 . S
Zn374 O377 2.031 . S
Zn374 O379 2.049 . S
Zn374 O384 2.067 . S
Zn375 O376 1.962 . S
Zn375 O378 1.986 . S
Zn375 O380 1.996 . S
Zn375 O383 1.943 . S
O376 Zn375 1.962 . S
O376 C381 1.254 . S
O377 Zn374 2.031 . S
O377 C381 1.269 . S
O378 Zn375 1.986 . S
O378 C385 1.262 . S
O379 Zn374 2.049 . S
O379 C387 1.260 . S
O380 Zn375 1.996 . S
O380 C387 1.257 . S
C381 O376 1.254 . S
C381 O377 1.269 . S
C382 O383 1.249 . S
C382 O384 1.270 . S
O383 Zn375 1.943 . S
O383 C382 1.249 . S
O384 Zn374 2.067 . S
O384 C382 1.270 . S
C385 O378 1.262 . S
C385 O386 1.232 . S
O386 C385 1.232 . S
C387 O379 1.260 . S
C387 O380 1.257 . S
Zn388 O391 2.031 . S
Zn388 O393 2.049 . S
Zn388 O398 2.067 . S
Zn389 O390 1.962 . S
Zn389 O392 1.986 . S
Zn389 O394 1.996 . S
Zn389 O397 1.943 . S
O390 Zn389 1.962 . S
O390 C395 1.254 . S
O391 Zn388 2.031 . S
O391 C395 1.269 . S
O392 Zn389 1.986 . S
O392 C399 1.262 . S
O393 Zn388 2.049 . S
O393 C401 1.260 . S
O394 Zn389 1.996 . S
O394 C401 1.257 . S
C395 O390 1.254 . S
C395 O391 1.269 . S
C396 O397 1.249 . S
C396 O398 1.270 . S
O397 Zn389 1.943 . S
O397 C396 1.249 . S
O398 Zn388 2.067 . S
O398 C396 1.270 . S
C399 O392 1.262 . S
C399 O400 1.232 . S
O400 C399 1.232 . S
C401 O393 1.260 . S
C401 O394 1.257 . S
Zn402 O405 2.031 1_565 S
Zn402 O407 2.049 . S
Zn402 O412 2.067 . S
Zn403 O404 1.962 . S
Zn403 O406 1.986 . S
Zn403 O408 2.030 . S
Zn403 O411 1.943 . S
O404 Zn403 1.962 . S
O404 C409 1.254 . S
O405 Zn402 2.031 1_545 S
O405 C409 1.269 . S
O406 Zn403 1.986 . S
O406 C413 1.262 . S
O407 Zn402 2.049 . S
O407 C415 1.260 . S
O408 Zn403 2.030 . S
O408 C415 1.223 1_545 S
C409 O404 1.254 . S
C409 O405 1.269 . S
C410 O411 1.249 . S
C410 O412 1.270 1_545 S
O411 Zn403 1.943 . S
O411 C410 1.249 . S
O412 Zn402 2.067 . S
O412 C410 1.270 1_565 S
C413 O406 1.262 . S
C413 O414 1.232 . S
O414 C413 1.232 . S
C415 O407 1.260 . S
C415 O408 1.223 1_565 S
Zn416 O419 2.031 . S
Zn416 O421 2.049 . S
Zn416 O426 2.067 1_455 S
Zn417 O418 1.962 . S
Zn417 O420 1.986 . S
Zn417 O422 1.996 . S
Zn417 O425 1.943 1_455 S
O418 Zn417 1.962 . S
O418 C423 1.254 . S
O419 Zn416 2.031 . S
O419 C423 1.269 . S
O420 Zn417 1.986 . S
O420 C427 1.262 . S
O421 Zn416 2.049 . S
O421 C429 1.260 . S
O422 Zn417 1.996 . S
O422 C429 1.257 . S
C423 O418 1.254 . S
C423 O419 1.269 . S
C424 O425 1.249 . S
C424 O426 1.270 . S
O425 Zn417 1.943 1_655 S
O425 C424 1.249 . S
O426 Zn416 2.067 1_655 S
O426 C424 1.270 . S
C427 O420 1.262 . S
C427 O428 1.232 . S
O428 C427 1.232 . S
C429 O421 1.260 . S
C429 O422 1.257 . S
Zn430 O433 2.031 . S
Zn430 O435 2.049 . S
Zn430 O440 2.067 . S
Zn431 O432 1.962 . S
Zn431 O434 1.986 . S
Zn431 O436 1.996 . S
Zn431 O439 1.943 . S
O432 Zn431 1.962 . S
O432 C437 1.254 . S
O433 Zn430 2.031 . S
O433 C437 1.269 . S
O434 Zn431 1.986 . S
O434 C441 1.262 . S
O435 Zn430 2.049 . S
O435 C443 1.260 . S
O436 Zn431 1.996 . S
O436 C443 1.257 . S
C437 O432 1.254 . S
C437 O433 1.269 . S
C438 O439 1.249 . S
C438 O440 1.270 . S
O439 Zn431 1.943 . S
O439 C438 1.249 . S
O440 Zn430 2.067 . S
O440 C438 1.270 . S
C441 O434 1.262 . S
C441 O442 1.232 . S
O442 C441 1.232 . S
C443 O435 1.260 . S
C443 O436 1.257 . S
Zn444 O447 2.031 1_655 S
Zn444 O449 2.049 . S
Zn444 O454 2.067 . S
Zn445 O446 1.962 . S
Zn445 O448 1.986 . S
Zn445 O450 1.996 1_455 S
Zn445 O453 1.943 . S
O446 Zn445 1.962 . S
O446 C451 1.254 . S
O447 Zn444 2.031 1_455 S
O447 C451 1.269 . S
O448 Zn445 1.986 . S
O448 C455 1.262 . S
O449 Zn444 2.049 . S
O449 C457 1.260 . S
O450 Zn445 1.996 1_655 S
O450 C457 1.257 . S
C451 O446 1.254 . S
C451 O447 1.269 . S
C452 O453 1.249 . S
C452 O454 1.270 1_455 S
O453 Zn445 1.943 . S
O453 C452 1.249 . S
O454 Zn444 2.067 . S
O454 C452 1.270 1_655 S
C455 O448 1.262 . S
C455 O456 1.232 . S
O456 C455 1.232 . S
C457 O449 1.260 . S
C457 O450 1.257 . S
Zn458 O461 2.031 . S
Zn458 O463 2.049 . S
Zn458 O468 2.067 . S
Zn459 O460 1.962 . S
Zn459 O462 1.986 . S
Zn459 O464 1.996 . S
Zn459 O467 1.943 . S
O460 Zn459 1.962 . S
O460 C465 1.254 . S
O461 Zn458 2.031 . S
O461 C465 1.269 . S
O462 Zn459 1.986 . S
O462 C469 1.262 . S
O463 Zn458 2.049 . S
O463 C471 1.260 . S
O464 Zn459 1.996 . S
O464 C471 1.257 . S
C465 O460 1.254 . S
C465 O461 1.269 . S
C466 O467 1.249 . S
C466 O468 1.270 . S
O467 Zn459 1.943 . S
O467 C466 1.249 . S
O468 Zn458 2.067 . S
O468 C466 1.270 . S
C469 O462 1.262 . S
C469 O470 1.232 . S
O470 C469 1.232 . S
C471 O463 1.260 . S
C471 O464 1.257 . S
H472 C480 0.929 . S
H473 C482 0.930 . S
H474 C484 0.930 . S
H475 C487 0.929 . S
H476 C490 0.930 . S
H477 C492 0.960 . S
H478 C492 0.960 . S
H479 C492 0.960 . S
C480 H472 0.929 . S
C480 C481 1.377 . S
C480 C482 1.384 . S
C481 C480 1.377 . S
C481 C487 1.390 . S
C482 H473 0.930 . S
C482 C480 1.384 . S
C482 C483 1.372 . S
C483 C482 1.372 . S
C483 C484 1.400 . S
C483 C488 1.490 . S
C484 H474 0.930 . S
C484 C483 1.400 . S
C484 C487 1.386 . S
H485 C501 0.930 . S
H486 C502 0.931 . S
C487 H475 0.929 . S
C487 C481 1.390 . S
C487 C484 1.386 . S
C488 C483 1.490 . S
C488 C490 1.395 . S
C488 C491 1.403 . S
H489 C495 0.930 . S
C490 H476 0.930 . S
C490 C488 1.395 . S
C490 C493 1.403 . S
C491 C488 1.403 . S
C491 C492 1.524 . S
C491 C495 1.400 . S
C492 H477 0.960 . S
C492 H478 0.960 . S
C492 H479 0.960 . S
C492 C491 1.524 . S
C493 C490 1.403 . S
C493 C494 1.392 . S
C493 C497 1.495 . S
C494 C493 1.392 . S
C494 C495 1.385 . S
C494 C496 1.478 . S
C495 H489 0.930 . S
C495 C491 1.400 . S
C495 C494 1.385 . S
C496 C494 1.478 . S
C496 C498 1.381 . S
C496 C502 1.383 . S
C497 C493 1.495 . S
C497 H503 0.959 . S
C497 H504 0.961 . S
C497 H505 0.960 . S
C498 C496 1.381 . S
C498 C499 1.394 . S
C498 H506 0.930 . S
C499 C498 1.394 . S
C499 C500 1.383 . S
C499 H507 0.929 . S
C500 C499 1.383 . S
C500 C501 1.377 . S
C501 H485 0.930 . S
C501 C500 1.377 . S
C501 C502 1.379 . S
C502 H486 0.931 . S
C502 C496 1.383 . S
C502 C501 1.379 . S
H503 C497 0.959 . S
H504 C497 0.961 . S
H505 C497 0.960 . S
H506 C498 0.930 . S
H507 C499 0.929 . S
H508 C516 0.967 . S
H509 C518 0.930 . S
H510 C520 0.930 . S
H511 C523 0.929 . S
H512 C526 0.930 . S
H513 C528 0.960 . S
H514 C528 0.960 . S
H515 C528 0.960 . S
C516 H508 0.967 . S
C516 C517 1.377 . S
C516 C518 1.384 . S
C517 C516 1.377 . S
C517 C523 1.390 . S
C518 H509 0.930 . S
C518 C516 1.384 . S
C518 C519 1.372 . S
C519 C518 1.372 . S
C519 C520 1.400 . S
C519 C524 1.490 . S
C520 H510 0.930 . S
C520 C519 1.400 . S
C520 C523 1.386 . S
H521 C537 0.930 . S
H522 C538 0.931 . S
C523 H511 0.929 . S
C523 C517 1.390 . S
C523 C520 1.386 . S
C524 C519 1.490 . S
C524 C526 1.395 . S
C524 C527 1.403 . S
H525 C531 0.930 . S
C526 H512 0.930 . S
C526 C524 1.395 . S
C526 C529 1.403 . S
C527 C524 1.403 . S
C527 C528 1.524 . S
C527 C531 1.400 . S
C528 H513 0.960 . S
C528 H514 0.960 . S
C528 H515 0.960 . S
C528 C527 1.524 . S
C529 C526 1.403 . S
C529 C530 1.392 . S
C529 C533 1.495 . S
C530 C529 1.392 . S
C530 C531 1.385 . S
C530 C532 1.478 . S
C531 H525 0.930 . S
C531 C527 1.400 . S
C531 C530 1.385 . S
C532 C530 1.478 . S
C532 C534 1.381 . S
C532 C538 1.383 . S
C533 C529 1.495 . S
C533 H539 0.959 . S
C533 H540 0.961 . S
C533 H541 0.960 . S
C534 C532 1.381 . S
C534 C535 1.394 . S
C534 H542 0.930 . S
C535 C534 1.394 . S
C535 C536 1.383 . S
C535 H543 0.929 . S
C536 C535 1.383 . S
C536 C537 1.377 . S
C537 H521 0.930 . S
C537 C536 1.377 . S
C537 C538 1.379 . S
C538 H522 0.931 . S
C538 C532 1.383 . S
C538 C537 1.379 . S
H539 C533 0.959 . S
H540 C533 0.961 . S
H541 C533 0.960 . S
H542 C534 0.930 . S
H543 C535 0.929 . S
H544 C552 0.929 . S
H545 C554 0.930 . S
H546 C556 0.930 . S
H547 C559 0.929 . S
H548 C562 0.930 . S
H549 C564 0.960 . S
H550 C564 0.960 . S
H551 C564 0.960 . S
C552 H544 0.929 . S
C552 C553 1.377 . S
C552 C554 1.384 . S
C553 C552 1.377 . S
C553 C559 1.390 . S
C554 H545 0.930 . S
C554 C552 1.384 . S
C554 C555 1.372 . S
C555 C554 1.372 . S
C555 C556 1.400 . S
C555 C560 1.490 . S
C556 H546 0.930 . S
C556 C555 1.400 . S
C556 C559 1.386 . S
H557 C573 0.930 . S
H558 C574 0.931 . S
C559 H547 0.929 . S
C559 C553 1.390 . S
C559 C556 1.386 . S
C560 C555 1.490 . S
C560 C562 1.395 . S
C560 C563 1.403 . S
H561 C567 0.930 . S
C562 H548 0.930 . S
C562 C560 1.395 . S
C562 C565 1.403 . S
C563 C560 1.403 . S
C563 C564 1.524 . S
C563 C567 1.400 . S
C564 H549 0.960 . S
C564 H550 0.960 . S
C564 H551 0.960 . S
C564 C563 1.524 . S
C565 C562 1.403 . S
C565 C566 1.392 . S
C565 C569 1.495 . S
C566 C565 1.392 . S
C566 C567 1.385 . S
C566 C568 1.478 . S
C567 H561 0.930 . S
C567 C563 1.400 . S
C567 C566 1.385 . S
C568 C566 1.478 . S
C568 C570 1.381 . S
C568 C574 1.383 . S
C569 C565 1.495 . S
C569 H575 0.959 . S
C569 H576 0.961 . S
C569 H577 0.960 . S
C570 C568 1.381 . S
C570 C571 1.394 . S
C570 H578 0.930 . S
C571 C570 1.394 . S
C571 C572 1.383 . S
C571 H579 0.929 . S
C572 C571 1.383 . S
C572 C573 1.377 . S
C573 H557 0.930 . S
C573 C572 1.377 . S
C573 C574 1.379 . S
C574 H558 0.931 . S
C574 C568 1.383 . S
C574 C573 1.379 . S
H575 C569 0.959 . S
H576 C569 0.961 . S
H577 C569 0.960 . S
H578 C570 0.930 . S
H579 C571 0.929 . S
H580 C588 0.929 . S
H581 C590 0.930 . S
H582 C592 0.930 . S
H583 C595 0.929 . S
H584 C598 0.930 . S
H585 C600 0.960 . S
H586 C600 0.960 . S
H587 C600 0.960 . S
C588 H580 0.929 . S
C588 C589 1.377 . S
C588 C590 1.384 . S
C589 C588 1.377 . S
C589 C595 1.390 . S
C590 H581 0.930 . S
C590 C588 1.384 . S
C590 C591 1.372 . S
C591 C590 1.372 . S
C591 C592 1.400 . S
C591 C596 1.490 . S
C592 H582 0.930 . S
C592 C591 1.400 . S
C592 C595 1.386 . S
H593 C609 0.930 . S
H594 C610 0.931 . S
C595 H583 0.929 . S
C595 C589 1.390 . S
C595 C592 1.386 . S
C596 C591 1.490 . S
C596 C598 1.395 . S
C596 C599 1.403 . S
H597 C603 0.930 . S
C598 H584 0.930 . S
C598 C596 1.395 . S
C598 C601 1.403 . S
C599 C596 1.403 . S
C599 C600 1.524 . S
C599 C603 1.400 . S
C600 H585 0.960 . S
C600 H586 0.960 . S
C600 H587 0.960 . S
C600 C599 1.524 . S
C601 C598 1.403 . S
C601 C602 1.392 . S
C601 C605 1.495 1_565 S
C602 C601 1.392 . S
C602 C603 1.385 . S
C602 C604 1.474 . S
C603 H597 0.930 . S
C603 C599 1.400 . S
C603 C602 1.385 . S
C604 C602 1.474 . S
C604 C606 1.379 1_455 S
C604 C610 1.388 1_565 S
C605 C601 1.495 1_545 S
C605 H611 0.959 . S
C605 H612 0.961 . S
C605 H613 0.960 1_445 S
C606 C604 1.379 1_655 S
C606 C607 1.394 . S
C606 H614 0.930 . S
C607 C606 1.394 . S
C607 C608 1.383 1_565 S
C607 H615 0.929 . S
C608 C607 1.383 1_545 S
C608 C609 1.377 1_655 S
C609 H593 0.930 . S
C609 C608 1.377 1_455 S
C609 C610 1.379 . S
C610 H594 0.931 . S
C610 C604 1.388 1_545 S
C610 C609 1.379 . S
H611 C605 0.959 . S
H612 C605 0.961 . S
H613 C605 0.960 1_665 S
H614 C606 0.930 . S
H615 C607 0.929 . S
H616 C624 0.929 . S
H617 C626 0.930 . S
H618 C628 0.930 . S
H619 C631 0.929 . S
H620 C634 0.930 . S
H621 C636 0.960 . S
H622 C636 0.960 . S
H623 C636 0.960 . S
C624 H616 0.929 . S
C624 C625 1.377 . S
C624 C626 1.384 . S
C625 C624 1.377 . S
C625 C631 1.390 . S
C626 H617 0.930 . S
C626 C624 1.384 . S
C626 C627 1.372 . S
C627 C626 1.372 . S
C627 C628 1.400 . S
C627 C632 1.490 . S
C628 H618 0.930 . S
C628 C627 1.400 . S
C628 C631 1.386 . S
H629 C645 0.930 . S
H630 C646 0.931 . S
C631 H619 0.929 . S
C631 C625 1.390 . S
C631 C628 1.386 . S
C632 C627 1.490 . S
C632 C634 1.395 . S
C632 C635 1.403 . S
H633 C639 0.930 . S
C634 H620 0.930 . S
C634 C632 1.395 . S
C634 C637 1.403 . S
C635 C632 1.403 . S
C635 C636 1.524 . S
C635 C639 1.400 . S
C636 H621 0.960 . S
C636 H622 0.960 . S
C636 H623 0.960 . S
C636 C635 1.524 . S
C637 C634 1.403 . S
C637 C638 1.392 . S
C637 C641 1.495 . S
C638 C637 1.392 . S
C638 C639 1.385 . S
C638 C640 1.478 . S
C639 H633 0.930 . S
C639 C635 1.400 . S
C639 C638 1.385 . S
C640 C638 1.478 . S
C640 C642 1.381 . S
C640 C646 1.383 . S
C641 C637 1.495 . S
C641 H647 0.959 . S
C641 H648 0.961 . S
C641 H649 0.960 . S
C642 C640 1.381 . S
C642 C643 1.394 . S
C642 H650 0.930 . S
C643 C642 1.394 . S
C643 C644 1.383 . S
C643 H651 0.929 . S
C644 C643 1.383 . S
C644 C645 1.377 . S
C645 H629 0.930 . S
C645 C644 1.377 . S
C645 C646 1.379 . S
C646 H630 0.931 . S
C646 C640 1.383 . S
C646 C645 1.379 . S
H647 C641 0.959 . S
H648 C641 0.961 . S
H649 C641 0.960 . S
H650 C642 0.930 . S
H651 C643 0.929 . S
H652 C660 0.929 . S
H653 C662 0.930 . S
H654 C664 0.930 . S
H655 C667 0.929 . S
H656 C670 0.930 . S
H657 C672 0.960 . S
H658 C672 0.960 . S
H659 C672 0.960 . S
C660 H652 0.929 . S
C660 C661 1.377 . S
C660 C662 1.384 . S
C661 C660 1.377 . S
C661 C667 1.390 . S
C662 H653 0.930 . S
C662 C660 1.384 . S
C662 C663 1.372 . S
C663 C662 1.372 . S
C663 C664 1.400 . S
C663 C668 1.490 . S
C664 H654 0.930 . S
C664 C663 1.400 . S
C664 C667 1.386 . S
H665 C681 0.930 . S
H666 C682 0.931 . S
C667 H655 0.929 . S
C667 C661 1.390 . S
C667 C664 1.386 . S
C668 C663 1.490 . S
C668 C670 1.395 . S
C668 C671 1.403 . S
H669 C675 0.930 . S
C670 H656 0.930 . S
C670 C668 1.395 . S
C670 C673 1.403 . S
C671 C668 1.403 . S
C671 C672 1.524 . S
C671 C675 1.400 . S
C672 H657 0.960 . S
C672 H658 0.960 . S
C672 H659 0.960 . S
C672 C671 1.524 . S
C673 C670 1.403 . S
C673 C674 1.392 . S
C673 C677 1.495 . S
C674 C673 1.392 . S
C674 C675 1.385 . S
C674 C676 1.478 . S
C675 H669 0.930 . S
C675 C671 1.400 . S
C675 C674 1.385 . S
C676 C674 1.478 . S
C676 C678 1.381 . S
C676 C682 1.383 . S
C677 C673 1.495 . S
C677 H683 0.959 . S
C677 H684 0.961 . S
C677 H685 0.960 . S
C678 C676 1.381 . S
C678 C679 1.394 . S
C678 H686 0.930 . S
C679 C678 1.394 . S
C679 C680 1.383 . S
C679 H687 0.929 . S
C680 C679 1.383 . S
C680 C681 1.377 . S
C681 H665 0.930 . S
C681 C680 1.377 . S
C681 C682 1.379 . S
C682 H666 0.931 . S
C682 C676 1.383 . S
C682 C681 1.379 . S
H683 C677 0.959 . S
H684 C677 0.961 . S
H685 C677 0.960 . S
H686 C678 0.930 . S
H687 C679 0.929 . S
H688 C696 0.929 . S
H689 C698 0.930 . S
H690 C700 0.930 . S
H691 C703 0.929 . S
H692 C706 0.930 . S
H693 C708 0.960 . S
H694 C708 0.960 . S
H695 C708 0.960 . S
C696 H688 0.929 . S
C696 C697 1.377 . S
C696 C698 1.384 . S
C697 C696 1.377 . S
C697 C703 1.390 . S
C698 H689 0.930 . S
C698 C696 1.384 . S
C698 C699 1.372 . S
C699 C698 1.372 . S
C699 C700 1.400 . S
C699 C704 1.490 . S
C700 H690 0.930 . S
C700 C699 1.400 . S
C700 C703 1.386 . S
H701 C717 0.930 . S
H702 C718 0.931 . S
C703 H691 0.929 . S
C703 C697 1.390 . S
C703 C700 1.386 . S
C704 C699 1.490 . S
C704 C706 1.395 . S
C704 C707 1.403 . S
H705 C711 0.930 . S
C706 H692 0.930 . S
C706 C704 1.395 . S
C706 C709 1.403 . S
C707 C704 1.403 . S
C707 C708 1.524 . S
C707 C711 1.400 . S
C708 H693 0.960 . S
C708 H694 0.960 . S
C708 H695 0.960 . S
C708 C707 1.524 . S
C709 C706 1.403 . S
C709 C710 1.392 . S
C709 C713 1.495 . S
C710 C709 1.392 . S
C710 C711 1.385 . S
C710 C712 1.478 . S
C711 H705 0.930 . S
C711 C707 1.400 . S
C711 C710 1.385 . S
C712 C710 1.478 . S
C712 C714 1.381 . S
C712 C718 1.383 . S
C713 C709 1.495 . S
C713 H719 0.959 . S
C713 H720 0.961 . S
C713 H721 0.960 . S
C714 C712 1.381 . S
C714 C715 1.394 . S
C714 H722 0.930 . S
C715 C714 1.394 . S
C715 C716 1.383 . S
C715 H723 0.929 . S
C716 C715 1.383 . S
C716 C717 1.377 . S
C717 H701 0.930 . S
C717 C716 1.377 . S
C717 C718 1.379 . S
C718 H702 0.931 . S
C718 C712 1.383 . S
C718 C717 1.379 . S
H719 C713 0.959 . S
H720 C713 0.961 . S
H721 C713 0.960 . S
H722 C714 0.930 . S
H723 C715 0.929 . S
H724 C732 0.929 . S
H725 C734 0.930 . S
H726 C736 0.930 . S
H727 C739 0.929 . S
H728 C742 0.930 . S
H729 C744 0.960 . S
H730 C744 0.960 . S
H731 C744 0.960 . S
C732 H724 0.929 . S
C732 C733 1.377 . S
C732 C734 1.384 . S
C733 C732 1.377 . S
C733 C739 1.390 . S
C734 H725 0.930 . S
C734 C732 1.384 . S
C734 C735 1.372 . S
C735 C734 1.372 . S
C735 C736 1.400 . S
C735 C740 1.490 . S
C736 H726 0.930 . S
C736 C735 1.400 . S
C736 C739 1.386 . S
H737 C753 0.930 . S
H738 C754 0.927 1_545 S
C739 H727 0.929 . S
C739 C733 1.390 . S
C739 C736 1.386 . S
C740 C735 1.490 . S
C740 C742 1.395 . S
C740 C743 1.403 . S
H741 C747 0.903 1_545 S
C742 H728 0.930 . S
C742 C740 1.395 . S
C742 C745 1.403 . S
C743 C740 1.403 . S
C743 C744 1.524 1_565 S
C743 C747 1.398 . S
C744 H729 0.960 . S
C744 H730 0.960 . S
C744 H731 0.960 . S
C744 C743 1.524 1_545 S
C745 C742 1.403 . S
C745 C746 1.392 . S
C745 C749 1.495 . S
C746 C745 1.392 . S
C746 C747 1.414 . S
C746 C748 1.478 . S
C747 H741 0.903 1_565 S
C747 C743 1.398 . S
C747 C746 1.414 . S
C748 C746 1.478 . S
C748 C750 1.381 . S
C748 C754 1.383 . S
C749 C745 1.495 . S
C749 H755 0.959 . S
C749 H756 0.961 . S
C749 H757 0.960 . S
C750 C748 1.381 . S
C750 C751 1.394 . S
C750 H758 0.930 . S
C751 C750 1.394 . S
C751 C752 1.383 1_565 S
C751 H759 0.929 . S
C752 C751 1.383 1_545 S
C752 C753 1.377 . S
C753 H737 0.930 . S
C753 C752 1.377 . S
C753 C754 1.379 1_545 S
C754 H738 0.927 1_565 S
C754 C748 1.383 . S
C754 C753 1.379 1_565 S
H755 C749 0.959 . S
H756 C749 0.961 . S
H757 C749 0.960 . S
H758 C750 0.930 . S
H759 C751 0.929 . S
H760 C768 0.929 . S
H761 C770 0.930 . S
H762 C772 0.930 . S
H763 C775 0.929 . S
H764 C778 0.930 . S
H765 C780 0.960 . S
H766 C780 0.960 . S
H767 C780 0.960 . S
C768 H760 0.929 . S
C768 C769 1.377 . S
C768 C770 1.384 . S
C769 C768 1.377 . S
C769 C775 1.390 . S
C770 H761 0.930 . S
C770 C768 1.384 . S
C770 C771 1.372 . S
C771 C770 1.372 . S
C771 C772 1.400 . S
C771 C776 1.490 . S
C772 H762 0.930 . S
C772 C771 1.400 . S
C772 C775 1.386 . S
H773 C789 0.930 . S
H774 C790 0.931 . S
C775 H763 0.929 . S
C775 C769 1.390 . S
C775 C772 1.386 . S
C776 C771 1.490 . S
C776 C778 1.395 . S
C776 C779 1.403 . S
H777 C783 0.930 . S
C778 H764 0.930 . S
C778 C776 1.395 . S
C778 C781 1.403 . S
C779 C776 1.403 . S
C779 C780 1.524 . S
C779 C783 1.400 . S
C780 H765 0.960 . S
C780 H766 0.960 . S
C780 H767 0.960 . S
C780 C779 1.524 . S
C781 C778 1.403 . S
C781 C782 1.392 . S
C781 C785 1.495 . S
C782 C781 1.392 . S
C782 C783 1.385 . S
C782 C784 1.478 . S
C783 H777 0.930 . S
C783 C779 1.400 . S
C783 C782 1.385 . S
C784 C782 1.478 . S
C784 C786 1.381 . S
C784 C790 1.383 . S
C785 C781 1.495 . S
C785 H791 0.959 . S
C785 H792 0.961 . S
C785 H793 0.960 . S
C786 C784 1.381 . S
C786 C787 1.394 . S
C786 H794 0.930 . S
C787 C786 1.394 . S
C787 C788 1.383 . S
C787 H795 0.929 . S
C788 C787 1.383 . S
C788 C789 1.377 . S
C789 H773 0.930 . S
C789 C788 1.377 . S
C789 C790 1.379 . S
C790 H774 0.931 . S
C790 C784 1.383 . S
C790 C789 1.379 . S
H791 C785 0.959 . S
H792 C785 0.961 . S
H793 C785 0.960 . S
H794 C786 0.930 . S
H795 C787 0.929 . S
H796 C804 0.929 . S
H797 C806 0.930 . S
H798 C808 0.930 . S
H799 C811 0.929 . S
H800 C814 0.930 . S
H801 C816 0.960 . S
H802 C816 0.960 . S
H803 C816 0.960 . S
C804 H796 0.929 . S
C804 C805 1.377 . S
C804 C806 1.384 . S
C805 C804 1.377 . S
C805 C811 1.390 . S
C806 H797 0.930 . S
C806 C804 1.384 . S
C806 C807 1.372 . S
C807 C806 1.372 . S
C807 C808 1.400 . S
C807 C812 1.490 . S
C808 H798 0.930 . S
C808 C807 1.400 . S
C808 C811 1.386 . S
H809 C825 0.930 . S
H810 C826 0.931 . S
C811 H799 0.929 . S
C811 C805 1.390 . S
C811 C808 1.386 . S
C812 C807 1.490 . S
C812 C814 1.395 . S
C812 C815 1.403 . S
H813 C819 0.930 . S
C814 H800 0.930 . S
C814 C812 1.395 . S
C814 C817 1.403 . S
C815 C812 1.403 . S
C815 C816 1.524 . S
C815 C819 1.400 . S
C816 H801 0.960 . S
C816 H802 0.960 . S
C816 H803 0.960 . S
C816 C815 1.524 . S
C817 C814 1.403 . S
C817 C818 1.392 . S
C817 C821 1.495 . S
C818 C817 1.392 . S
C818 C819 1.385 . S
C818 C820 1.478 . S
C819 H813 0.930 . S
C819 C815 1.400 . S
C819 C818 1.385 . S
C820 C818 1.478 . S
C820 C822 1.381 . S
C820 C826 1.383 . S
C821 C817 1.495 . S
C821 H827 0.959 . S
C821 H828 0.961 . S
C821 H829 0.960 . S
C822 C820 1.381 . S
C822 C823 1.394 . S
C822 H830 0.930 . S
C823 C822 1.394 . S
C823 C824 1.383 . S
C823 H831 0.929 . S
C824 C823 1.383 . S
C824 C825 1.377 . S
C825 H809 0.930 . S
C825 C824 1.377 . S
C825 C826 1.379 . S
C826 H810 0.931 . S
C826 C820 1.383 . S
C826 C825 1.379 . S
H827 C821 0.959 . S
H828 C821 0.961 . S
H829 C821 0.960 . S
H830 C822 0.930 . S
H831 C823 0.929 . S
H832 C840 0.929 . S
H833 C842 0.930 . S
H834 C844 0.930 . S
H835 C847 0.929 . S
H836 C850 0.930 . S
H837 C852 0.960 . S
H838 C852 0.960 . S
H839 C852 0.960 . S
C840 H832 0.929 . S
C840 C841 1.377 . S
C840 C842 1.384 . S
C841 C840 1.377 . S
C841 C847 1.390 . S
C842 H833 0.930 . S
C842 C840 1.384 . S
C842 C843 1.372 . S
C843 C842 1.372 . S
C843 C844 1.400 . S
C843 C848 1.490 . S
C844 H834 0.930 . S
C844 C843 1.400 . S
C844 C847 1.386 . S
H845 C861 0.930 . S
H846 C862 0.931 . S
C847 H835 0.929 . S
C847 C841 1.390 . S
C847 C844 1.386 . S
C848 C843 1.490 . S
C848 C850 1.395 . S
C848 C851 1.403 . S
H849 C855 0.930 . S
C850 H836 0.930 . S
C850 C848 1.395 . S
C850 C853 1.403 . S
C851 C848 1.403 . S
C851 C852 1.524 . S
C851 C855 1.400 . S
C852 H837 0.960 . S
C852 H838 0.960 . S
C852 H839 0.960 . S
C852 C851 1.524 . S
C853 C850 1.403 . S
C853 C854 1.392 . S
C853 C857 1.495 . S
C854 C853 1.392 . S
C854 C855 1.385 . S
C854 C856 1.478 . S
C855 H849 0.930 . S
C855 C851 1.400 . S
C855 C854 1.385 . S
C856 C854 1.478 . S
C856 C858 1.381 . S
C856 C862 1.383 . S
C857 C853 1.495 . S
C857 H863 0.959 . S
C857 H864 0.961 . S
C857 H865 0.960 . S
C858 C856 1.381 . S
C858 C859 1.394 . S
C858 H866 0.930 . S
C859 C858 1.394 . S
C859 C860 1.383 . S
C859 H867 0.929 . S
C860 C859 1.383 . S
C860 C861 1.377 . S
C861 H845 0.930 . S
C861 C860 1.377 . S
C861 C862 1.379 . S
C862 H846 0.931 . S
C862 C856 1.383 . S
C862 C861 1.379 . S
H863 C857 0.959 . S
H864 C857 0.961 . S
H865 C857 0.960 . S
H866 C858 0.930 . S
H867 C859 0.929 . S
H868 C876 0.929 . S
H869 C878 0.930 . S
H870 C880 0.930 . S
H871 C883 0.929 . S
H872 C886 0.930 . S
H873 C888 0.960 . S
H874 C888 0.960 . S
H875 C888 0.960 . S
C876 H868 0.929 . S
C876 C877 1.377 . S
C876 C878 1.384 . S
C877 C876 1.377 . S
C877 C883 1.390 . S
C878 H869 0.930 . S
C878 C876 1.384 . S
C878 C879 1.372 . S
C879 C878 1.372 . S
C879 C880 1.400 . S
C879 C884 1.490 . S
C880 H870 0.930 . S
C880 C879 1.400 . S
C880 C883 1.386 . S
H881 C897 0.930 . S
H882 C898 0.931 . S
C883 H871 0.929 . S
C883 C877 1.390 . S
C883 C880 1.386 . S
C884 C879 1.490 . S
C884 C886 1.395 . S
C884 C887 1.403 . S
H885 C891 0.930 . S
C886 H872 0.930 . S
C886 C884 1.395 . S
C886 C889 1.403 . S
C887 C884 1.403 . S
C887 C888 1.524 . S
C887 C891 1.400 . S
C888 H873 0.960 . S
C888 H874 0.960 . S
C888 H875 0.960 . S
C888 C887 1.524 . S
C889 C886 1.403 . S
C889 C890 1.392 . S
C889 C893 1.495 . S
C890 C889 1.392 . S
C890 C891 1.385 . S
C890 C892 1.478 . S
C891 H885 0.930 . S
C891 C887 1.400 . S
C891 C890 1.385 . S
C892 C890 1.478 . S
C892 C894 1.381 . S
C892 C898 1.383 . S
C893 C889 1.495 . S
C893 H899 0.959 . S
C893 H900 0.961 . S
C893 H901 0.960 . S
C894 C892 1.381 . S
C894 C895 1.394 . S
C894 H902 0.930 . S
C895 C894 1.394 . S
C895 C896 1.383 . S
C895 H903 0.929 . S
C896 C895 1.383 . S
C896 C897 1.377 . S
C897 H881 0.930 . S
C897 C896 1.377 . S
C897 C898 1.379 . S
C898 H882 0.931 . S
C898 C892 1.383 . S
C898 C897 1.379 . S
H899 C893 0.959 . S
H900 C893 0.961 . S
H901 C893 0.960 . S
H902 C894 0.930 . S
H903 C895 0.929 . S
H904 C912 0.929 . S
H905 C914 0.930 . S
H906 C916 0.930 . S
H907 C919 0.929 . S
H908 C922 0.930 . S
H909 C924 0.960 . S
H910 C924 0.960 . S
H911 C924 0.960 . S
C912 H904 0.929 . S
C912 C913 1.377 . S
C912 C914 1.384 . S
C913 C912 1.377 . S
C913 C919 1.390 . S
C914 H905 0.930 . S
C914 C912 1.384 . S
C914 C915 1.372 . S
C915 C914 1.372 . S
C915 C916 1.400 . S
C915 C920 1.490 . S
C916 H906 0.930 . S
C916 C915 1.400 . S
C916 C919 1.386 . S
H917 C933 0.930 . S
H918 C934 0.931 . S
C919 H907 0.929 . S
C919 C913 1.390 . S
C919 C916 1.386 . S
C920 C915 1.490 . S
C920 C922 1.395 . S
C920 C923 1.403 . S
H921 C927 0.930 . S
C922 H908 0.930 . S
C922 C920 1.395 . S
C922 C925 1.403 . S
C923 C920 1.403 . S
C923 C924 1.524 . S
C923 C927 1.400 . S
C924 H909 0.960 . S
C924 H910 0.960 . S
C924 H911 0.960 . S
C924 C923 1.524 . S
C925 C922 1.403 . S
C925 C926 1.392 . S
C925 C929 1.495 . S
C926 C925 1.392 . S
C926 C927 1.385 . S
C926 C928 1.478 . S
C927 H921 0.930 . S
C927 C923 1.400 . S
C927 C926 1.385 . S
C928 C926 1.478 . S
C928 C930 1.381 . S
C928 C934 1.383 . S
C929 C925 1.495 . S
C929 H935 0.959 . S
C929 H936 0.961 . S
C929 H937 0.960 . S
C930 C928 1.381 . S
C930 C931 1.394 . S
C930 H938 0.930 . S
C931 C930 1.394 . S
C931 C932 1.383 . S
C931 H939 0.929 . S
C932 C931 1.383 . S
C932 C933 1.377 . S
C933 H917 0.930 . S
C933 C932 1.377 . S
C933 C934 1.379 . S
C934 H918 0.931 . S
C934 C928 1.383 . S
C934 C933 1.379 . S
H935 C929 0.959 . S
H936 C929 0.961 . S
H937 C929 0.960 . S
H938 C930 0.930 . S
H939 C931 0.929 . S
H940 C948 0.929 . S
H941 C950 0.930 . S
H942 C952 0.930 . S
H943 C955 0.929 . S
H944 C958 0.930 . S
H945 C960 0.960 . S
H946 C960 0.960 . S
H947 C960 0.960 . S
C948 H940 0.929 . S
C948 C949 1.377 . S
C948 C950 1.384 . S
C949 C948 1.377 . S
C949 C955 1.390 . S
C950 H941 0.930 . S
C950 C948 1.384 . S
C950 C951 1.372 . S
C951 C950 1.372 . S
C951 C952 1.400 . S
C951 C956 1.490 . S
C952 H942 0.930 . S
C952 C951 1.400 . S
C952 C955 1.386 . S
H953 C969 0.930 . S
H954 C970 0.931 . S
C955 H943 0.929 . S
C955 C949 1.390 . S
C955 C952 1.386 . S
C956 C951 1.490 . S
C956 C958 1.395 . S
C956 C959 1.403 . S
H957 C963 0.930 . S
C958 H944 0.930 . S
C958 C956 1.395 . S
C958 C961 1.403 . S
C959 C956 1.403 . S
C959 C960 1.524 . S
C959 C963 1.400 . S
C960 H945 0.960 . S
C960 H946 0.960 . S
C960 H947 0.960 . S
C960 C959 1.524 . S
C961 C958 1.403 . S
C961 C962 1.392 . S
C961 C965 1.495 . S
C962 C961 1.392 . S
C962 C963 1.385 . S
C962 C964 1.478 . S
C963 H957 0.930 . S
C963 C959 1.400 . S
C963 C962 1.385 . S
C964 C962 1.478 . S
C964 C966 1.381 . S
C964 C970 1.383 . S
C965 C961 1.495 . S
C965 H971 0.959 . S
C965 H972 0.961 . S
C965 H973 0.960 . S
C966 C964 1.381 . S
C966 C967 1.394 . S
C966 H974 0.930 . S
C967 C966 1.394 . S
C967 C968 1.383 . S
C967 H975 0.929 . S
C968 C967 1.383 . S
C968 C969 1.377 . S
C969 H953 0.930 . S
C969 C968 1.377 . S
C969 C970 1.379 . S
C970 H954 0.931 . S
C970 C964 1.383 . S
C970 C969 1.379 . S
H971 C965 0.959 . S
H972 C965 0.961 . S
H973 C965 0.960 . S
H974 C966 0.930 . S
H975 C967 0.929 . S
H976 C984 0.929 . S
H977 C986 0.930 . S
H978 C988 0.930 . S
H979 C991 0.929 . S
H980 C994 0.930 . S
H981 C996 0.960 . S
H982 C996 0.960 . S
H983 C996 0.960 . S
C984 H976 0.929 . S
C984 C985 1.377 . S
C984 C986 1.384 . S
C985 C984 1.377 . S
C985 C991 1.390 . S
C986 H977 0.930 . S
C986 C984 1.384 . S
C986 C987 1.372 . S
C987 C986 1.372 . S
C987 C988 1.400 . S
C987 C992 1.490 . S
C988 H978 0.930 . S
C988 C987 1.400 . S
C988 C991 1.386 . S
H989 C1005 0.930 . S
H990 C1006 0.931 . S
C991 H979 0.929 . S
C991 C985 1.390 . S
C991 C988 1.386 . S
C992 C987 1.490 . S
C992 C994 1.395 . S
C992 C995 1.403 . S
H993 C999 0.930 . S
C994 H980 0.930 . S
C994 C992 1.395 . S
C994 C997 1.403 . S
C995 C992 1.403 . S
C995 C996 1.524 . S
C995 C999 1.400 . S
C996 H981 0.960 . S
C996 H982 0.960 . S
C996 H983 0.960 . S
C996 C995 1.524 . S
C997 C994 1.403 . S
C997 C998 1.392 . S
C997 C1001 1.495 . S
C998 C997 1.392 . S
C998 C999 1.385 . S
C998 C1000 1.478 . S
C999 H993 0.930 . S
C999 C995 1.400 . S
C999 C998 1.385 . S
C1000 C998 1.478 . S
C1000 C1002 1.381 . S
C1000 C1006 1.383 . S
C1001 C997 1.495 . S
C1001 H1007 0.959 . S
C1001 H1008 0.961 . S
C1001 H1009 0.960 . S
C1002 C1000 1.381 . S
C1002 C1003 1.394 . S
C1002 H1010 0.930 . S
C1003 C1002 1.394 . S
C1003 C1004 1.383 . S
C1003 H1011 0.929 . S
C1004 C1003 1.383 . S
C1004 C1005 1.377 . S
C1005 H989 0.930 . S
C1005 C1004 1.377 . S
C1005 C1006 1.379 . S
C1006 H990 0.931 . S
C1006 C1000 1.383 . S
C1006 C1005 1.379 . S
H1007 C1001 0.959 . S
H1008 C1001 0.961 . S
H1009 C1001 0.960 . S
H1010 C1002 0.930 . S
H1011 C1003 0.929 . S
H1012 C1020 0.929 . S
H1013 C1022 0.930 . S
H1014 C1024 0.930 . S
H1015 C1027 0.929 . S
H1016 C1030 0.930 . S
H1017 C1032 0.960 . S
H1018 C1032 0.960 . S
H1019 C1032 0.960 . S
C1020 H1012 0.929 . S
C1020 C1021 1.377 . S
C1020 C1022 1.384 . S
C1021 C1020 1.377 . S
C1021 C1027 1.390 . S
C1022 H1013 0.930 . S
C1022 C1020 1.384 . S
C1022 C1023 1.372 . S
C1023 C1022 1.372 . S
C1023 C1024 1.400 . S
C1023 C1028 1.490 . S
C1024 H1014 0.930 . S
C1024 C1023 1.400 . S
C1024 C1027 1.386 . S
H1025 C1041 0.930 . S
H1026 C1042 0.934 . S
C1027 H1015 0.929 . S
C1027 C1021 1.390 . S
C1027 C1024 1.386 . S
C1028 C1023 1.490 . S
C1028 C1030 1.395 . S
C1028 C1031 1.403 1_655 S
H1029 C1035 0.930 . S
C1030 H1016 0.930 . S
C1030 C1028 1.395 . S
C1030 C1033 1.403 . S
C1031 C1028 1.403 1_455 S
C1031 C1032 1.524 . S
C1031 C1035 1.400 . S
C1032 H1017 0.960 . S
C1032 H1018 0.960 . S
C1032 H1019 0.960 . S
C1032 C1031 1.524 . S
C1033 C1030 1.403 . S
C1033 C1034 1.392 . S
C1033 C1037 1.495 . S
C1034 C1033 1.392 . S
C1034 C1035 1.385 1_655 S
C1034 C1036 1.478 . S
C1035 H1029 0.930 . S
C1035 C1031 1.400 . S
C1035 C1034 1.385 1_455 S
C1036 C1034 1.478 . S
C1036 C1038 1.381 . S
C1036 C1042 1.377 1_655 S
C1037 C1033 1.495 . S
C1037 H1043 0.959 . S
C1037 H1044 0.961 . S
C1037 H1045 0.960 . S
C1038 C1036 1.381 . S
C1038 C1039 1.394 . S
C1038 H1046 0.930 . S
C1039 C1038 1.394 . S
C1039 C1040 1.383 1_655 S
C1039 H1047 0.929 . S
C1040 C1039 1.383 1_455 S
C1040 C1041 1.377 . S
C1041 H1025 0.930 . S
C1041 C1040 1.377 . S
C1041 C1042 1.382 . S
C1042 H1026 0.934 . S
C1042 C1036 1.377 1_455 S
C1042 C1041 1.382 . S
H1043 C1037 0.959 . S
H1044 C1037 0.961 . S
H1045 C1037 0.960 . S
H1046 C1038 0.930 . S
H1047 C1039 0.929 . S
H1048 C1056 0.929 . S
H1049 C1058 0.930 . S
H1050 C1060 0.930 . S
H1051 C1063 0.929 . S
H1052 C1066 0.930 . S
H1053 C1068 0.960 . S
H1054 C1068 0.960 . S
H1055 C1068 0.960 . S
C1056 H1048 0.929 . S
C1056 C1057 1.377 . S
C1056 C1058 1.384 . S
C1057 C1056 1.377 . S
C1057 C1063 1.390 . S
C1058 H1049 0.930 . S
C1058 C1056 1.384 . S
C1058 C1059 1.372 . S
C1059 C1058 1.372 . S
C1059 C1060 1.400 . S
C1059 C1064 1.490 . S
C1060 H1050 0.930 . S
C1060 C1059 1.400 . S
C1060 C1063 1.386 . S
H1061 C1077 0.930 . S
H1062 C1078 0.931 . S
C1063 H1051 0.929 . S
C1063 C1057 1.390 . S
C1063 C1060 1.386 . S
C1064 C1059 1.490 . S
C1064 C1066 1.395 . S
C1064 C1067 1.403 . S
H1065 C1071 0.930 . S
C1066 H1052 0.930 . S
C1066 C1064 1.395 . S
C1066 C1069 1.403 . S
C1067 C1064 1.403 . S
C1067 C1068 1.524 . S
C1067 C1071 1.400 . S
C1068 H1053 0.960 . S
C1068 H1054 0.960 . S
C1068 H1055 0.960 . S
C1068 C1067 1.524 . S
C1069 C1066 1.403 . S
C1069 C1070 1.392 . S
C1069 C1073 1.495 . S
C1070 C1069 1.392 . S
C1070 C1071 1.385 . S
C1070 C1072 1.478 . S
C1071 H1065 0.930 . S
C1071 C1067 1.400 . S
C1071 C1070 1.385 . S
C1072 C1070 1.478 . S
C1072 C1074 1.381 . S
C1072 C1078 1.383 . S
C1073 C1069 1.495 . S
C1073 H1079 0.959 . S
C1073 H1080 0.961 . S
C1073 H1081 0.960 . S
C1074 C1072 1.381 . S
C1074 C1075 1.394 . S
C1074 H1082 0.930 . S
C1075 C1074 1.394 . S
C1075 C1076 1.383 . S
C1075 H1083 0.929 . S
C1076 C1075 1.383 . S
C1076 C1077 1.377 . S
C1077 H1061 0.930 . S
C1077 C1076 1.377 . S
C1077 C1078 1.379 . S
C1078 H1062 0.931 . S
C1078 C1072 1.383 . S
C1078 C1077 1.379 . S
H1079 C1073 0.959 . S
H1080 C1073 0.961 . S
H1081 C1073 0.960 . S
H1082 C1074 0.930 . S
H1083 C1075 0.929 . S
H1084 C1092 0.929 . S
H1085 C1094 0.930 . S
H1086 C1096 0.930 . S
H1087 C1099 0.929 . S
H1088 C1102 0.930 . S
H1089 C1104 0.960 . S
H1090 C1104 0.960 . S
H1091 C1104 0.960 . S
C1092 H1084 0.929 . S
C1092 C1093 1.377 . S
C1092 C1094 1.384 . S
C1093 C1092 1.377 . S
C1093 C1099 1.390 . S
C1094 H1085 0.930 . S
C1094 C1092 1.384 . S
C1094 C1095 1.372 . S
C1095 C1094 1.372 . S
C1095 C1096 1.400 . S
C1095 C1100 1.490 . S
C1096 H1086 0.930 . S
C1096 C1095 1.400 . S
C1096 C1099 1.386 . S
H1097 C1113 0.930 . S
H1098 C1114 0.931 . S
C1099 H1087 0.929 . S
C1099 C1093 1.390 . S
C1099 C1096 1.386 . S
C1100 C1095 1.490 . S
C1100 C1102 1.395 . S
C1100 C1103 1.403 . S
H1101 C1107 0.930 . S
C1102 H1088 0.930 . S
C1102 C1100 1.395 . S
C1102 C1105 1.403 . S
C1103 C1100 1.403 . S
C1103 C1104 1.524 . S
C1103 C1107 1.400 . S
C1104 H1089 0.960 . S
C1104 H1090 0.960 . S
C1104 H1091 0.960 . S
C1104 C1103 1.524 . S
C1105 C1102 1.403 . S
C1105 C1106 1.392 . S
C1105 C1109 1.495 . S
C1106 C1105 1.392 . S
C1106 C1107 1.385 . S
C1106 C1108 1.478 . S
C1107 H1101 0.930 . S
C1107 C1103 1.400 . S
C1107 C1106 1.385 . S
C1108 C1106 1.478 . S
C1108 C1110 1.381 . S
C1108 C1114 1.383 . S
C1109 C1105 1.495 . S
C1109 H1115 0.959 . S
C1109 H1116 0.961 . S
C1109 H1117 0.960 . S
C1110 C1108 1.381 . S
C1110 C1111 1.394 . S
C1110 H1118 0.930 . S
C1111 C1110 1.394 . S
C1111 C1112 1.383 . S
C1111 H1119 0.929 . S
C1112 C1111 1.383 . S
C1112 C1113 1.377 . S
C1113 H1097 0.930 . S
C1113 C1112 1.377 . S
C1113 C1114 1.379 . S
C1114 H1098 0.931 . S
C1114 C1108 1.383 . S
C1114 C1113 1.379 . S
H1115 C1109 0.959 . S
H1116 C1109 0.961 . S
H1117 C1109 0.960 . S
H1118 C1110 0.930 . S
H1119 C1111 0.929 . S
H1120 C1128 0.929 . S
H1121 C1130 0.930 1_565 S
H1122 C1132 0.930 . S
H1123 C1135 0.929 . S
H1124 C1138 0.930 . S
H1125 C1140 0.960 . S
H1126 C1140 0.960 . S
H1127 C1140 0.960 . S
C1128 H1120 0.929 . S
C1128 C1129 1.377 . S
C1128 C1130 1.384 . S
C1129 C1128 1.377 . S
C1129 C1135 1.390 . S
C1130 H1121 0.930 1_545 S
C1130 C1128 1.384 . S
C1130 C1131 1.372 . S
C1131 C1130 1.372 . S
C1131 C1132 1.400 . S
C1131 C1136 1.490 1_545 S
C1132 H1122 0.930 . S
C1132 C1131 1.400 . S
C1132 C1135 1.386 . S
H1133 C1149 0.930 . S
H1134 C1150 0.931 . S
C1135 H1123 0.929 . S
C1135 C1129 1.390 . S
C1135 C1132 1.386 . S
C1136 C1131 1.490 1_565 S
C1136 C1138 1.395 . S
C1136 C1139 1.403 . S
H1137 C1143 0.930 . S
C1138 H1124 0.930 . S
C1138 C1136 1.395 . S
C1138 C1141 1.403 . S
C1139 C1136 1.403 . S
C1139 C1140 1.524 1_565 S
C1139 C1143 1.400 . S
C1140 H1125 0.960 . S
C1140 H1126 0.960 . S
C1140 H1127 0.960 . S
C1140 C1139 1.524 1_545 S
C1141 C1138 1.403 . S
C1141 C1142 1.392 . S
C1141 C1145 1.495 . S
C1142 C1141 1.392 . S
C1142 C1143 1.385 . S
C1142 C1144 1.478 1_556 S
C1143 H1137 0.930 . S
C1143 C1139 1.400 . S
C1143 C1142 1.385 . S
C1144 C1142 1.478 1_554 S
C1144 C1146 1.381 1_554 S
C1144 C1150 1.383 . S
C1145 C1141 1.495 . S
C1145 H1151 0.959 . S
C1145 H1152 0.961 1_556 S
C1145 H1153 0.960 . S
C1146 C1144 1.381 1_556 S
C1146 C1147 1.394 1_556 S
C1146 H1154 0.930 . S
C1147 C1146 1.394 1_554 S
C1147 C1148 1.383 . S
C1147 H1155 0.929 1_554 S
C1148 C1147 1.383 . S
C1148 C1149 1.377 . S
C1149 H1133 0.930 . S
C1149 C1148 1.377 . S
C1149 C1150 1.379 . S
C1150 H1134 0.931 . S
C1150 C1144 1.383 . S
C1150 C1149 1.379 . S
H1151 C1145 0.959 . S
H1152 C1145 0.961 1_554 S
H1153 C1145 0.960 . S
H1154 C1146 0.930 . S
H1155 C1147 0.929 1_556 S
H1156 C1164 0.929 . S
H1157 C1166 0.930 . S
H1158 C1168 0.930 . S
H1159 C1171 0.929 . S
H1160 C1174 0.930 . S
H1161 C1176 0.960 . S
H1162 C1176 0.960 . S
H1163 C1176 0.960 . S
C1164 H1156 0.929 . S
C1164 C1165 1.377 . S
C1164 C1166 1.384 . S
C1165 C1164 1.377 . S
C1165 C1171 1.390 . S
C1166 H1157 0.930 . S
C1166 C1164 1.384 . S
C1166 C1167 1.372 . S
C1167 C1166 1.372 . S
C1167 C1168 1.400 . S
C1167 C1172 1.490 . S
C1168 H1158 0.930 . S
C1168 C1167 1.400 . S
C1168 C1171 1.386 . S
H1169 C1185 0.930 . S
H1170 C1186 0.931 . S
C1171 H1159 0.929 . S
C1171 C1165 1.390 . S
C1171 C1168 1.386 . S
C1172 C1167 1.490 . S
C1172 C1174 1.395 . S
C1172 C1175 1.403 . S
H1173 C1179 0.930 . S
C1174 H1160 0.930 . S
C1174 C1172 1.395 . S
C1174 C1177 1.403 . S
C1175 C1172 1.403 . S
C1175 C1176 1.524 . S
C1175 C1179 1.400 . S
C1176 H1161 0.960 . S
C1176 H1162 0.960 . S
C1176 H1163 0.960 . S
C1176 C1175 1.524 . S
C1177 C1174 1.403 . S
C1177 C1178 1.392 . S
C1177 C1181 1.495 . S
C1178 C1177 1.392 . S
C1178 C1179 1.385 . S
C1178 C1180 1.478 . S
C1179 H1173 0.930 . S
C1179 C1175 1.400 . S
C1179 C1178 1.385 . S
C1180 C1178 1.478 . S
C1180 C1182 1.381 . S
C1180 C1186 1.383 . S
C1181 C1177 1.495 . S
C1181 H1187 0.959 . S
C1181 H1188 0.961 . S
C1181 H1189 0.960 . S
C1182 C1180 1.381 . S
C1182 C1183 1.394 . S
C1182 H1190 0.930 . S
C1183 C1182 1.394 . S
C1183 C1184 1.383 . S
C1183 H1191 0.929 . S
C1184 C1183 1.383 . S
C1184 C1185 1.377 . S
C1185 H1169 0.930 . S
C1185 C1184 1.377 . S
C1185 C1186 1.379 . S
C1186 H1170 0.931 . S
C1186 C1180 1.383 . S
C1186 C1185 1.379 . S
H1187 C1181 0.959 . S
H1188 C1181 0.961 . S
H1189 C1181 0.960 . S
H1190 C1182 0.930 . S
H1191 C1183 0.929 . S
H1192 C1200 0.929 . S
H1193 C1202 0.930 . S
H1194 C1204 0.930 . S
H1195 C1207 0.929 . S
H1196 C1210 0.930 . S
H1197 C1212 0.960 . S
H1198 C1212 0.960 . S
H1199 C1212 0.960 . S
C1200 H1192 0.929 . S
C1200 C1201 1.377 . S
C1200 C1202 1.384 1_565 S
C1201 C1200 1.377 . S
C1201 C1207 1.390 . S
C1202 H1193 0.930 . S
C1202 C1200 1.384 1_545 S
C1202 C1203 1.372 . S
C1203 C1202 1.372 . S
C1203 C1204 1.400 . S
C1203 C1208 1.490 . S
C1204 H1194 0.930 . S
C1204 C1203 1.400 . S
C1204 C1207 1.386 1_545 S
H1205 C1221 0.930 . S
H1206 C1222 0.931 . S
C1207 H1195 0.929 . S
C1207 C1201 1.390 . S
C1207 C1204 1.386 1_565 S
C1208 C1203 1.490 . S
C1208 C1210 1.395 . S
C1208 C1211 1.403 . S
H1209 C1215 0.930 . S
C1210 H1196 0.930 . S
C1210 C1208 1.395 . S
C1210 C1213 1.403 . S
C1211 C1208 1.403 . S
C1211 C1212 1.524 . S
C1211 C1215 1.400 . S
C1212 H1197 0.960 . S
C1212 H1198 0.960 . S
C1212 H1199 0.960 . S
C1212 C1211 1.524 . S
C1213 C1210 1.403 . S
C1213 C1214 1.392 . S
C1213 C1217 1.495 . S
C1214 C1213 1.392 . S
C1214 C1215 1.385 . S
C1214 C1216 1.478 . S
C1215 H1209 0.930 . S
C1215 C1211 1.400 . S
C1215 C1214 1.385 . S
C1216 C1214 1.478 . S
C1216 C1218 1.381 . S
C1216 C1222 1.383 . S
C1217 C1213 1.495 . S
C1217 H1223 0.959 . S
C1217 H1224 0.961 . S
C1217 H1225 0.960 . S
C1218 C1216 1.381 . S
C1218 C1219 1.394 . S
C1218 H1226 0.930 . S
C1219 C1218 1.394 . S
C1219 C1220 1.383 . S
C1219 H1227 0.929 . S
C1220 C1219 1.383 . S
C1220 C1221 1.377 . S
C1221 H1205 0.930 . S
C1221 C1220 1.377 . S
C1221 C1222 1.379 . S
C1222 H1206 0.931 . S
C1222 C1216 1.383 . S
C1222 C1221 1.379 . S
H1223 C1217 0.959 . S
H1224 C1217 0.961 . S
H1225 C1217 0.960 . S
H1226 C1218 0.930 . S
H1227 C1219 0.929 . S
H1228 C1236 0.929 . S
H1229 C1238 0.930 . S
H1230 C1240 0.930 . S
H1231 C1243 0.929 . S
H1232 C1246 0.930 . S
H1233 C1248 0.960 . S
H1234 C1248 0.960 . S
H1235 C1248 0.960 . S
C1236 H1228 0.929 . S
C1236 C1237 1.377 . S
C1236 C1238 1.384 . S
C1237 C1236 1.377 . S
C1237 C1243 1.390 . S
C1238 H1229 0.930 . S
C1238 C1236 1.384 . S
C1238 C1239 1.372 . S
C1239 C1238 1.372 . S
C1239 C1240 1.400 . S
C1239 C1244 1.490 . S
C1240 H1230 0.930 . S
C1240 C1239 1.400 . S
C1240 C1243 1.386 . S
H1241 C1257 0.930 . S
H1242 C1258 0.931 . S
C1243 H1231 0.929 . S
C1243 C1237 1.390 . S
C1243 C1240 1.386 . S
C1244 C1239 1.490 . S
C1244 C1246 1.395 . S
C1244 C1247 1.403 . S
H1245 C1251 0.930 . S
C1246 H1232 0.930 . S
C1246 C1244 1.395 . S
C1246 C1249 1.403 . S
C1247 C1244 1.403 . S
C1247 C1248 1.524 . S
C1247 C1251 1.400 . S
C1248 H1233 0.960 . S
C1248 H1234 0.960 . S
C1248 H1235 0.960 . S
C1248 C1247 1.524 . S
C1249 C1246 1.403 . S
C1249 C1250 1.392 . S
C1249 C1253 1.495 . S
C1250 C1249 1.392 . S
C1250 C1251 1.385 . S
C1250 C1252 1.478 . S
C1251 H1245 0.930 . S
C1251 C1247 1.400 . S
C1251 C1250 1.385 . S
C1252 C1250 1.478 . S
C1252 C1254 1.381 . S
C1252 C1258 1.383 . S
C1253 C1249 1.495 . S
C1253 H1259 0.959 . S
C1253 H1260 0.961 . S
C1253 H1261 0.960 . S
C1254 C1252 1.381 . S
C1254 C1255 1.394 . S
C1254 H1262 0.930 . S
C1255 C1254 1.394 . S
C1255 C1256 1.383 . S
C1255 H1263 0.929 . S
C1256 C1255 1.383 . S
C1256 C1257 1.377 . S
C1257 H1241 0.930 . S
C1257 C1256 1.377 . S
C1257 C1258 1.379 . S
C1258 H1242 0.931 . S
C1258 C1252 1.383 . S
C1258 C1257 1.379 . S
H1259 C1253 0.959 . S
H1260 C1253 0.961 . S
H1261 C1253 0.960 . S
H1262 C1254 0.930 . S
H1263 C1255 0.929 . S
H1264 C1272 0.929 . S
H1265 C1274 0.930 . S
H1266 C1276 0.930 . S
H1267 C1279 0.929 . S
H1268 C1282 0.930 . S
H1269 C1284 0.960 . S
H1270 C1284 0.960 . S
H1271 C1284 0.960 . S
C1272 H1264 0.929 . S
C1272 C1273 1.377 1_545 S
C1272 C1274 1.384 . S
C1273 C1272 1.377 1_565 S
C1273 C1279 1.390 . S
C1274 H1265 0.930 . S
C1274 C1272 1.384 . S
C1274 C1275 1.372 . S
C1275 C1274 1.372 . S
C1275 C1276 1.400 . S
C1275 C1280 1.490 . S
C1276 H1266 0.930 . S
C1276 C1275 1.400 . S
C1276 C1279 1.386 1_545 S
H1277 C1293 0.930 . S
H1278 C1294 0.931 . S
C1279 H1267 0.929 . S
C1279 C1273 1.390 . S
C1279 C1276 1.386 1_565 S
C1280 C1275 1.490 . S
C1280 C1282 1.395 . S
C1280 C1283 1.403 . S
H1281 C1287 0.930 . S
C1282 H1268 0.930 . S
C1282 C1280 1.395 . S
C1282 C1285 1.403 . S
C1283 C1280 1.403 . S
C1283 C1284 1.524 . S
C1283 C1287 1.400 . S
C1284 H1269 0.960 . S
C1284 H1270 0.960 . S
C1284 H1271 0.960 . S
C1284 C1283 1.524 . S
C1285 C1282 1.403 . S
C1285 C1286 1.392 . S
C1285 C1289 1.495 . S
C1286 C1285 1.392 . S
C1286 C1287 1.385 . S
C1286 C1288 1.478 . S
C1287 H1281 0.930 . S
C1287 C1283 1.400 . S
C1287 C1286 1.385 . S
C1288 C1286 1.478 . S
C1288 C1290 1.381 . S
C1288 C1294 1.383 . S
C1289 C1285 1.495 . S
C1289 H1295 0.959 . S
C1289 H1296 0.961 . S
C1289 H1297 0.960 . S
C1290 C1288 1.381 . S
C1290 C1291 1.394 . S
C1290 H1298 0.930 . S
C1291 C1290 1.394 . S
C1291 C1292 1.383 . S
C1291 H1299 0.929 . S
C1292 C1291 1.383 . S
C1292 C1293 1.377 . S
C1293 H1277 0.930 . S
C1293 C1292 1.377 . S
C1293 C1294 1.379 . S
C1294 H1278 0.931 . S
C1294 C1288 1.383 . S
C1294 C1293 1.379 . S
H1295 C1289 0.959 . S
H1296 C1289 0.961 . S
H1297 C1289 0.960 . S
H1298 C1290 0.930 . S
H1299 C1291 0.929 . S
H1300 C1308 0.929 . S
H1301 C1310 0.930 . S
H1302 C1312 0.930 . S
H1303 C1315 0.929 . S
H1304 C1318 0.930 . S
H1305 C1320 0.960 . S
H1306 C1320 0.960 . S
H1307 C1320 0.960 . S
C1308 H1300 0.929 . S
C1308 C1309 1.377 . S
C1308 C1310 1.384 . S
C1309 C1308 1.377 . S
C1309 C1315 1.390 . S
C1310 H1301 0.930 . S
C1310 C1308 1.384 . S
C1310 C1311 1.372 . S
C1311 C1310 1.372 . S
C1311 C1312 1.400 . S
C1311 C1316 1.490 . S
C1312 H1302 0.930 . S
C1312 C1311 1.400 . S
C1312 C1315 1.386 . S
H1313 C1329 0.930 . S
H1314 C1330 0.931 . S
C1315 H1303 0.929 . S
C1315 C1309 1.390 . S
C1315 C1312 1.386 . S
C1316 C1311 1.490 . S
C1316 C1318 1.395 . S
C1316 C1319 1.403 . S
H1317 C1323 0.930 . S
C1318 H1304 0.930 . S
C1318 C1316 1.395 . S
C1318 C1321 1.403 . S
C1319 C1316 1.403 . S
C1319 C1320 1.524 . S
C1319 C1323 1.400 . S
C1320 H1305 0.960 . S
C1320 H1306 0.960 . S
C1320 H1307 0.960 . S
C1320 C1319 1.524 . S
C1321 C1318 1.403 . S
C1321 C1322 1.392 . S
C1321 C1325 1.495 . S
C1322 C1321 1.392 . S
C1322 C1323 1.385 . S
C1322 C1324 1.478 . S
C1323 H1317 0.930 . S
C1323 C1319 1.400 . S
C1323 C1322 1.385 . S
C1324 C1322 1.478 . S
C1324 C1326 1.381 . S
C1324 C1330 1.383 . S
C1325 C1321 1.495 . S
C1325 H1331 0.959 . S
C1325 H1332 0.961 . S
C1325 H1333 0.960 . S
C1326 C1324 1.381 . S
C1326 C1327 1.394 . S
C1326 H1334 0.930 . S
C1327 C1326 1.394 . S
C1327 C1328 1.383 . S
C1327 H1335 0.929 . S
C1328 C1327 1.383 . S
C1328 C1329 1.377 . S
C1329 H1313 0.930 . S
C1329 C1328 1.377 . S
C1329 C1330 1.379 . S
C1330 H1314 0.931 . S
C1330 C1324 1.383 . S
C1330 C1329 1.379 . S
H1331 C1325 0.959 . S
H1332 C1325 0.961 . S
H1333 C1325 0.960 . S
H1334 C1326 0.930 . S
H1335 C1327 0.929 . S
H1336 C1344 0.929 . S
H1337 C1346 0.930 . S
H1338 C1348 0.930 . S
H1339 C1351 0.929 . S
H1340 C1354 0.930 . S
H1341 C1356 0.960 . S
H1342 C1356 0.960 . S
H1343 C1356 0.960 . S
C1344 H1336 0.929 . S
C1344 C1345 1.377 . S
C1344 C1346 1.384 . S
C1345 C1344 1.377 . S
C1345 C1351 1.390 . S
C1346 H1337 0.930 . S
C1346 C1344 1.384 . S
C1346 C1347 1.372 . S
C1347 C1346 1.372 . S
C1347 C1348 1.400 . S
C1347 C1352 1.490 . S
C1348 H1338 0.930 . S
C1348 C1347 1.400 . S
C1348 C1351 1.386 . S
H1349 C1365 0.930 . S
H1350 C1366 0.931 . S
C1351 H1339 0.929 . S
C1351 C1345 1.390 . S
C1351 C1348 1.386 . S
C1352 C1347 1.490 . S
C1352 C1354 1.395 . S
C1352 C1355 1.403 . S
H1353 C1359 0.930 . S
C1354 H1340 0.930 . S
C1354 C1352 1.395 . S
C1354 C1357 1.403 . S
C1355 C1352 1.403 . S
C1355 C1356 1.524 . S
C1355 C1359 1.400 . S
C1356 H1341 0.960 . S
C1356 H1342 0.960 . S
C1356 H1343 0.960 . S
C1356 C1355 1.524 . S
C1357 C1354 1.403 . S
C1357 C1358 1.392 . S
C1357 C1361 1.495 . S
C1358 C1357 1.392 . S
C1358 C1359 1.385 . S
C1358 C1360 1.478 . S
C1359 H1353 0.930 . S
C1359 C1355 1.400 . S
C1359 C1358 1.385 . S
C1360 C1358 1.478 . S
C1360 C1362 1.381 . S
C1360 C1366 1.383 . S
C1361 C1357 1.495 . S
C1361 H1367 0.959 . S
C1361 H1368 0.961 . S
C1361 H1369 0.960 . S
C1362 C1360 1.381 . S
C1362 C1363 1.394 . S
C1362 H1370 0.930 . S
C1363 C1362 1.394 . S
C1363 C1364 1.383 . S
C1363 H1371 0.929 . S
C1364 C1363 1.383 . S
C1364 C1365 1.377 . S
C1365 H1349 0.930 . S
C1365 C1364 1.377 . S
C1365 C1366 1.379 . S
C1366 H1350 0.931 . S
C1366 C1360 1.383 . S
C1366 C1365 1.379 . S
H1367 C1361 0.959 . S
H1368 C1361 0.961 . S
H1369 C1361 0.960 . S
H1370 C1362 0.930 . S
H1371 C1363 0.929 . S
H1372 C1380 0.929 . S
H1373 C1382 0.930 . S
H1374 C1384 0.930 . S
H1375 C1387 0.929 . S
H1376 C1390 0.930 . S
H1377 C1392 0.960 . S
H1378 C1392 0.960 . S
H1379 C1392 0.960 . S
C1380 H1372 0.929 . S
C1380 C1381 1.377 . S
C1380 C1382 1.384 . S
C1381 C1380 1.377 . S
C1381 C1387 1.390 . S
C1382 H1373 0.930 . S
C1382 C1380 1.384 . S
C1382 C1383 1.372 . S
C1383 C1382 1.372 . S
C1383 C1384 1.400 . S
C1383 C1388 1.490 . S
C1384 H1374 0.930 . S
C1384 C1383 1.400 . S
C1384 C1387 1.386 . S
H1385 C1401 0.930 . S
H1386 C1402 0.931 . S
C1387 H1375 0.929 . S
C1387 C1381 1.390 . S
C1387 C1384 1.386 . S
C1388 C1383 1.490 . S
C1388 C1390 1.395 . S
C1388 C1391 1.403 . S
H1389 C1395 0.930 . S
C1390 H1376 0.930 . S
C1390 C1388 1.395 . S
C1390 C1393 1.403 . S
C1391 C1388 1.403 . S
C1391 C1392 1.524 . S
C1391 C1395 1.400 . S
C1392 H1377 0.960 . S
C1392 H1378 0.960 . S
C1392 H1379 0.960 . S
C1392 C1391 1.524 . S
C1393 C1390 1.403 . S
C1393 C1394 1.392 . S
C1393 C1397 1.495 . S
C1394 C1393 1.392 . S
C1394 C1395 1.385 . S
C1394 C1396 1.478 . S
C1395 H1389 0.930 . S
C1395 C1391 1.400 . S
C1395 C1394 1.385 . S
C1396 C1394 1.478 . S
C1396 C1398 1.381 . S
C1396 C1402 1.383 . S
C1397 C1393 1.495 . S
C1397 H1403 0.959 . S
C1397 H1404 0.961 . S
C1397 H1405 0.960 . S
C1398 C1396 1.381 . S
C1398 C1399 1.394 . S
C1398 H1406 0.930 . S
C1399 C1398 1.394 . S
C1399 C1400 1.383 . S
C1399 H1407 0.929 . S
C1400 C1399 1.383 . S
C1400 C1401 1.377 . S
C1401 H1385 0.930 . S
C1401 C1400 1.377 . S
C1401 C1402 1.379 . S
C1402 H1386 0.931 . S
C1402 C1396 1.383 . S
C1402 C1401 1.379 . S
H1403 C1397 0.959 . S
H1404 C1397 0.961 . S
H1405 C1397 0.960 . S
H1406 C1398 0.930 . S
H1407 C1399 0.929 . S
H1408 C1416 0.929 . S
H1409 C1418 0.930 . S
H1410 C1420 0.930 . S
H1411 C1423 0.929 . S
H1412 C1426 0.930 . S
H1413 C1428 0.960 . S
H1414 C1428 0.960 . S
H1415 C1428 0.960 . S
C1416 H1408 0.929 . S
C1416 C1417 1.377 . S
C1416 C1418 1.384 . S
C1417 C1416 1.377 . S
C1417 C1423 1.390 . S
C1418 H1409 0.930 . S
C1418 C1416 1.384 . S
C1418 C1419 1.372 . S
C1419 C1418 1.372 . S
C1419 C1420 1.400 . S
C1419 C1424 1.490 . S
C1420 H1410 0.930 . S
C1420 C1419 1.400 . S
C1420 C1423 1.386 . S
H1421 C1437 0.930 . S
H1422 C1438 0.931 . S
C1423 H1411 0.929 . S
C1423 C1417 1.390 . S
C1423 C1420 1.386 . S
C1424 C1419 1.490 . S
C1424 C1426 1.395 . S
C1424 C1427 1.403 . S
H1425 C1431 0.930 . S
C1426 H1412 0.930 . S
C1426 C1424 1.395 . S
C1426 C1429 1.403 . S
C1427 C1424 1.403 . S
C1427 C1428 1.524 . S
C1427 C1431 1.400 . S
C1428 H1413 0.960 . S
C1428 H1414 0.960 . S
C1428 H1415 0.960 . S
C1428 C1427 1.524 . S
C1429 C1426 1.403 . S
C1429 C1430 1.392 . S
C1429 C1433 1.495 . S
C1430 C1429 1.392 . S
C1430 C1431 1.385 . S
C1430 C1432 1.478 . S
C1431 H1425 0.930 . S
C1431 C1427 1.400 . S
C1431 C1430 1.385 . S
C1432 C1430 1.478 . S
C1432 C1434 1.381 . S
C1432 C1438 1.383 . S
C1433 C1429 1.495 . S
C1433 H1439 0.959 . S
C1433 H1440 0.961 . S
C1433 H1441 0.960 . S
C1434 C1432 1.381 . S
C1434 C1435 1.394 . S
C1434 H1442 0.930 . S
C1435 C1434 1.394 . S
C1435 C1436 1.383 . S
C1435 H1443 0.929 . S
C1436 C1435 1.383 . S
C1436 C1437 1.377 . S
C1437 H1421 0.930 . S
C1437 C1436 1.377 . S
C1437 C1438 1.379 . S
C1438 H1422 0.931 . S
C1438 C1432 1.383 . S
C1438 C1437 1.379 . S
H1439 C1433 0.959 . S
H1440 C1433 0.961 . S
H1441 C1433 0.960 . S
H1442 C1434 0.930 . S
H1443 C1435 0.929 . S
H1444 C1452 0.929 . S
H1445 C1454 0.930 . S
H1446 C1456 0.930 . S
H1447 C1459 0.929 . S
H1448 C1462 0.930 . S
H1449 C1464 0.960 . S
H1450 C1464 0.960 . S
H1451 C1464 0.960 . S
C1452 H1444 0.929 . S
C1452 C1453 1.377 . S
C1452 C1454 1.384 . S
C1453 C1452 1.377 . S
C1453 C1459 1.390 . S
C1454 H1445 0.930 . S
C1454 C1452 1.384 . S
C1454 C1455 1.372 . S
C1455 C1454 1.372 . S
C1455 C1456 1.400 . S
C1455 C1460 1.490 . S
C1456 H1446 0.930 . S
C1456 C1455 1.400 . S
C1456 C1459 1.386 . S
H1457 C1473 0.930 . S
H1458 C1474 0.931 . S
C1459 H1447 0.929 . S
C1459 C1453 1.390 . S
C1459 C1456 1.386 . S
C1460 C1455 1.490 . S
C1460 C1462 1.395 . S
C1460 C1463 1.403 . S
H1461 C1467 0.930 . S
C1462 H1448 0.930 . S
C1462 C1460 1.395 . S
C1462 C1465 1.403 . S
C1463 C1460 1.403 . S
C1463 C1464 1.524 . S
C1463 C1467 1.400 . S
C1464 H1449 0.960 . S
C1464 H1450 0.960 . S
C1464 H1451 0.960 . S
C1464 C1463 1.524 . S
C1465 C1462 1.403 . S
C1465 C1466 1.392 . S
C1465 C1469 1.495 . S
C1466 C1465 1.392 . S
C1466 C1467 1.385 . S
C1466 C1468 1.478 . S
C1467 H1461 0.930 . S
C1467 C1463 1.400 . S
C1467 C1466 1.385 . S
C1468 C1466 1.478 . S
C1468 C1470 1.381 . S
C1468 C1474 1.383 . S
C1469 C1465 1.495 . S
C1469 H1475 0.959 . S
C1469 H1476 0.961 . S
C1469 H1477 0.960 . S
C1470 C1468 1.381 . S
C1470 C1471 1.394 . S
C1470 H1478 0.930 . S
C1471 C1470 1.394 . S
C1471 C1472 1.383 . S
C1471 H1479 0.929 . S
C1472 C1471 1.383 . S
C1472 C1473 1.377 . S
C1473 H1457 0.930 . S
C1473 C1472 1.377 . S
C1473 C1474 1.379 . S
C1474 H1458 0.931 . S
C1474 C1468 1.383 . S
C1474 C1473 1.379 . S
H1475 C1469 0.959 . S
H1476 C1469 0.961 . S
H1477 C1469 0.960 . S
H1478 C1470 0.930 . S
H1479 C1471 0.929 . S
H1480 C1488 0.929 . S
H1481 C1490 0.930 . S
H1482 C1492 0.930 . S
H1483 C1495 0.929 . S
H1484 C1498 0.930 . S
H1485 C1500 0.960 . S
H1486 C1500 0.960 . S
H1487 C1500 0.960 . S
C1488 H1480 0.929 . S
C1488 C1489 1.377 . S
C1488 C1490 1.384 . S
C1489 C1488 1.377 . S
C1489 C1495 1.390 . S
C1490 H1481 0.930 . S
C1490 C1488 1.384 . S
C1490 C1491 1.372 . S
C1491 C1490 1.372 . S
C1491 C1492 1.400 . S
C1491 C1496 1.490 . S
C1492 H1482 0.930 . S
C1492 C1491 1.400 . S
C1492 C1495 1.386 . S
H1493 C1509 0.930 . S
H1494 C1510 0.931 . S
C1495 H1483 0.929 . S
C1495 C1489 1.390 . S
C1495 C1492 1.386 . S
C1496 C1491 1.490 . S
C1496 C1498 1.395 . S
C1496 C1499 1.403 . S
H1497 C1503 0.930 . S
C1498 H1484 0.930 . S
C1498 C1496 1.395 . S
C1498 C1501 1.403 . S
C1499 C1496 1.403 . S
C1499 C1500 1.524 . S
C1499 C1503 1.400 . S
C1500 H1485 0.960 . S
C1500 H1486 0.960 . S
C1500 H1487 0.960 . S
C1500 C1499 1.524 . S
C1501 C1498 1.403 . S
C1501 C1502 1.392 . S
C1501 C1505 1.495 . S
C1502 C1501 1.392 . S
C1502 C1503 1.385 . S
C1502 C1504 1.478 . S
C1503 H1497 0.930 . S
C1503 C1499 1.400 . S
C1503 C1502 1.385 . S
C1504 C1502 1.478 . S
C1504 C1506 1.381 . S
C1504 C1510 1.383 . S
C1505 C1501 1.495 . S
C1505 H1511 0.959 . S
C1505 H1512 0.961 . S
C1505 H1513 0.960 . S
C1506 C1504 1.381 . S
C1506 C1507 1.394 . S
C1506 H1514 0.930 . S
C1507 C1506 1.394 . S
C1507 C1508 1.383 . S
C1507 H1515 0.929 . S
C1508 C1507 1.383 . S
C1508 C1509 1.377 . S
C1509 H1493 0.930 . S
C1509 C1508 1.377 . S
C1509 C1510 1.379 . S
C1510 H1494 0.931 . S
C1510 C1504 1.383 . S
C1510 C1509 1.379 . S
H1511 C1505 0.959 . S
H1512 C1505 0.961 . S
H1513 C1505 0.960 . S
H1514 C1506 0.930 . S
H1515 C1507 0.929 . S
H1516 C1524 0.929 . S
H1517 C1526 0.930 . S
H1518 C1528 0.930 . S
H1519 C1531 0.929 . S
H1520 C1534 0.930 . S
H1521 C1536 0.960 . S
H1522 C1536 0.960 . S
H1523 C1536 0.960 . S
C1524 H1516 0.929 . S
C1524 C1525 1.377 . S
C1524 C1526 1.384 . S
C1525 C1524 1.377 . S
C1525 C1531 1.390 . S
C1526 H1517 0.930 . S
C1526 C1524 1.384 . S
C1526 C1527 1.372 . S
C1527 C1526 1.372 . S
C1527 C1528 1.400 . S
C1527 C1532 1.490 . S
C1528 H1518 0.930 . S
C1528 C1527 1.400 . S
C1528 C1531 1.386 . S
H1529 C1545 0.930 . S
H1530 C1546 0.931 . S
C1531 H1519 0.929 . S
C1531 C1525 1.390 . S
C1531 C1528 1.386 . S
C1532 C1527 1.490 . S
C1532 C1534 1.395 . S
C1532 C1535 1.403 . S
H1533 C1539 0.930 . S
C1534 H1520 0.930 . S
C1534 C1532 1.395 . S
C1534 C1537 1.406 . S
C1535 C1532 1.403 . S
C1535 C1536 1.524 . S
C1535 C1539 1.400 . S
C1536 H1521 0.960 . S
C1536 H1522 0.960 . S
C1536 H1523 0.960 . S
C1536 C1535 1.524 . S
C1537 C1534 1.406 . S
C1537 C1538 1.395 . S
C1537 C1541 1.491 1_455 S
C1538 C1537 1.395 . S
C1538 C1539 1.385 . S
C1538 C1540 1.478 . S
C1539 H1533 0.930 . S
C1539 C1535 1.400 . S
C1539 C1538 1.385 . S
C1540 C1538 1.478 . S
C1540 C1542 1.381 1_455 S
C1540 C1546 1.383 . S
C1541 C1537 1.491 1_655 S
C1541 H1547 0.959 . S
C1541 H1548 0.961 . S
C1541 H1549 0.960 . S
C1542 C1540 1.381 1_655 S
C1542 C1543 1.394 . S
C1542 H1550 0.930 . S
C1543 C1542 1.394 . S
C1543 C1544 1.383 . S
C1543 H1551 0.929 . S
C1544 C1543 1.383 . S
C1544 C1545 1.377 1_655 S
C1545 H1529 0.930 . S
C1545 C1544 1.377 1_455 S
C1545 C1546 1.379 . S
C1546 H1530 0.931 . S
C1546 C1540 1.383 . S
C1546 C1545 1.379 . S
H1547 C1541 0.959 . S
H1548 C1541 0.961 . S
H1549 C1541 0.960 . S
H1550 C1542 0.930 . S
H1551 C1543 0.929 . S
H1552 C1560 0.929 . S
H1553 C1562 0.930 . S
H1554 C1564 0.930 . S
H1555 C1567 0.929 . S
H1556 C1570 0.930 . S
H1557 C1572 0.960 . S
H1558 C1572 0.960 . S
H1559 C1572 0.960 . S
C1560 H1552 0.929 . S
C1560 C1561 1.377 . S
C1560 C1562 1.384 . S
C1561 C1560 1.377 . S
C1561 C1567 1.390 . S
C1562 H1553 0.930 . S
C1562 C1560 1.384 . S
C1562 C1563 1.372 . S
C1563 C1562 1.372 . S
C1563 C1564 1.400 . S
C1563 C1568 1.490 . S
C1564 H1554 0.930 . S
C1564 C1563 1.400 . S
C1564 C1567 1.386 . S
H1565 C1581 0.930 . S
H1566 C1582 0.931 . S
C1567 H1555 0.929 . S
C1567 C1561 1.390 . S
C1567 C1564 1.386 . S
C1568 C1563 1.490 . S
C1568 C1570 1.395 . S
C1568 C1571 1.403 . S
H1569 C1575 0.930 . S
C1570 H1556 0.930 . S
C1570 C1568 1.395 . S
C1570 C1573 1.403 . S
C1571 C1568 1.403 . S
C1571 C1572 1.524 . S
C1571 C1575 1.400 . S
C1572 H1557 0.960 . S
C1572 H1558 0.960 . S
C1572 H1559 0.960 . S
C1572 C1571 1.524 . S
C1573 C1570 1.403 . S
C1573 C1574 1.392 . S
C1573 C1577 1.495 . S
C1574 C1573 1.392 . S
C1574 C1575 1.385 . S
C1574 C1576 1.478 . S
C1575 H1569 0.930 . S
C1575 C1571 1.400 . S
C1575 C1574 1.385 . S
C1576 C1574 1.478 . S
C1576 C1578 1.381 . S
C1576 C1582 1.383 . S
C1577 C1573 1.495 . S
C1577 H1583 0.959 . S
C1577 H1584 0.961 . S
C1577 H1585 0.960 . S
C1578 C1576 1.381 . S
C1578 C1579 1.394 . S
C1578 H1586 0.930 . S
C1579 C1578 1.394 . S
C1579 C1580 1.383 . S
C1579 H1587 0.929 . S
C1580 C1579 1.383 . S
C1580 C1581 1.377 . S
C1581 H1565 0.930 . S
C1581 C1580 1.377 . S
C1581 C1582 1.379 . S
C1582 H1566 0.931 . S
C1582 C1576 1.383 . S
C1582 C1581 1.379 . S
H1583 C1577 0.959 . S
H1584 C1577 0.961 . S
H1585 C1577 0.960 . S
H1586 C1578 0.930 . S
H1587 C1579 0.929 . S
H1588 C1596 0.929 1_655 S
H1589 C1598 0.930 . S
H1590 C1600 0.930 . S
H1591 C1603 0.929 . S
H1592 C1606 0.930 . S
H1593 C1608 0.960 . S
H1594 C1608 0.960 . S
H1595 C1608 0.960 . S
C1596 H1588 0.929 1_455 S
C1596 C1597 1.377 . S
C1596 C1598 1.384 . S
C1597 C1596 1.377 . S
C1597 C1603 1.390 . S
C1598 H1589 0.930 . S
C1598 C1596 1.384 . S
C1598 C1599 1.372 . S
C1599 C1598 1.372 . S
C1599 C1600 1.400 . S
C1599 C1604 1.490 . S
C1600 H1590 0.930 . S
C1600 C1599 1.400 . S
C1600 C1603 1.386 . S
H1601 C1617 0.930 . S
H1602 C1618 0.931 . S
C1603 H1591 0.929 . S
C1603 C1597 1.390 . S
C1603 C1600 1.386 . S
C1604 C1599 1.490 . S
C1604 C1606 1.395 . S
C1604 C1607 1.403 . S
H1605 C1611 0.930 . S
C1606 H1592 0.930 . S
C1606 C1604 1.395 . S
C1606 C1609 1.403 . S
C1607 C1604 1.403 . S
C1607 C1608 1.524 . S
C1607 C1611 1.400 . S
C1608 H1593 0.960 . S
C1608 H1594 0.960 . S
C1608 H1595 0.960 . S
C1608 C1607 1.524 . S
C1609 C1606 1.403 . S
C1609 C1610 1.392 . S
C1609 C1613 1.495 . S
C1610 C1609 1.392 . S
C1610 C1611 1.385 . S
C1610 C1612 1.478 . S
C1611 H1605 0.930 . S
C1611 C1607 1.400 . S
C1611 C1610 1.385 . S
C1612 C1610 1.478 . S
C1612 C1614 1.381 . S
C1612 C1618 1.383 . S
C1613 C1609 1.495 . S
C1613 H1619 0.959 . S
C1613 H1620 0.961 . S
C1613 H1621 0.960 . S
C1614 C1612 1.381 . S
C1614 C1615 1.394 . S
C1614 H1622 0.930 . S
C1615 C1614 1.394 . S
C1615 C1616 1.383 . S
C1615 H1623 0.929 . S
C1616 C1615 1.383 . S
C1616 C1617 1.377 . S
C1617 H1601 0.930 . S
C1617 C1616 1.377 . S
C1617 C1618 1.379 . S
C1618 H1602 0.931 . S
C1618 C1612 1.383 . S
C1618 C1617 1.379 . S
H1619 C1613 0.959 . S
H1620 C1613 0.961 . S
H1621 C1613 0.960 . S
H1622 C1614 0.930 . S
H1623 C1615 0.929 . S
H1624 C1632 0.929 . S
H1625 C1634 0.930 . S
H1626 C1636 0.930 . S
H1627 C1639 0.929 . S
H1628 C1642 0.930 . S
H1629 C1644 0.960 . S
H1630 C1644 0.960 . S
H1631 C1644 0.960 . S
C1632 H1624 0.929 . S
C1632 C1633 1.377 . S
C1632 C1634 1.384 . S
C1633 C1632 1.377 . S
C1633 C1639 1.390 . S
C1634 H1625 0.930 . S
C1634 C1632 1.384 . S
C1634 C1635 1.372 . S
C1635 C1634 1.372 . S
C1635 C1636 1.400 . S
C1635 C1640 1.490 . S
C1636 H1626 0.930 . S
C1636 C1635 1.400 . S
C1636 C1639 1.386 . S
H1637 C1653 0.930 . S
H1638 C1654 0.931 . S
C1639 H1627 0.929 . S
C1639 C1633 1.390 . S
C1639 C1636 1.386 . S
C1640 C1635 1.490 . S
C1640 C1642 1.395 . S
C1640 C1643 1.403 . S
H1641 C1647 0.930 . S
C1642 H1628 0.930 . S
C1642 C1640 1.395 . S
C1642 C1645 1.403 . S
C1643 C1640 1.403 . S
C1643 C1644 1.524 . S
C1643 C1647 1.400 . S
C1644 H1629 0.960 . S
C1644 H1630 0.960 . S
C1644 H1631 0.960 . S
C1644 C1643 1.524 . S
C1645 C1642 1.403 . S
C1645 C1646 1.392 . S
C1645 C1649 1.495 . S
C1646 C1645 1.392 . S
C1646 C1647 1.385 . S
C1646 C1648 1.478 . S
C1647 H1641 0.930 . S
C1647 C1643 1.400 . S
C1647 C1646 1.385 . S
C1648 C1646 1.478 . S
C1648 C1650 1.381 . S
C1648 C1654 1.383 . S
C1649 C1645 1.495 . S
C1649 H1655 0.959 . S
C1649 H1656 0.961 . S
C1649 H1657 0.960 . S
C1650 C1648 1.381 . S
C1650 C1651 1.394 . S
C1650 H1658 0.930 . S
C1651 C1650 1.394 . S
C1651 C1652 1.383 . S
C1651 H1659 0.929 . S
C1652 C1651 1.383 . S
C1652 C1653 1.377 . S
C1653 H1637 0.930 . S
C1653 C1652 1.377 . S
C1653 C1654 1.379 . S
C1654 H1638 0.931 . S
C1654 C1648 1.383 . S
C1654 C1653 1.379 . S
H1655 C1649 0.959 . S
H1656 C1649 0.961 . S
H1657 C1649 0.960 . S
H1658 C1650 0.930 . S
H1659 C1651 0.929 . S
H1660 C1668 0.929 1_554 S
H1661 C1670 0.930 1_455 S
H1662 C1672 0.930 . S
H1663 C1675 0.929 . S
H1664 C1678 0.930 . S
H1665 C1680 0.960 . S
H1666 C1680 0.960 . S
H1667 C1680 0.960 . S
C1668 H1660 0.929 1_556 S
C1668 C1669 1.377 . S
C1668 C1670 1.384 . S
C1669 C1668 1.377 . S
C1669 C1675 1.390 . S
C1670 H1661 0.930 1_655 S
C1670 C1668 1.384 . S
C1670 C1671 1.372 . S
C1671 C1670 1.372 . S
C1671 C1672 1.400 . S
C1671 C1676 1.490 . S
C1672 H1662 0.930 . S
C1672 C1671 1.400 . S
C1672 C1675 1.386 . S
H1673 C1689 0.930 . S
H1674 C1690 0.931 . S
C1675 H1663 0.929 . S
C1675 C1669 1.390 . S
C1675 C1672 1.386 . S
C1676 C1671 1.490 . S
C1676 C1678 1.395 . S
C1676 C1679 1.403 1_655 S
H1677 C1683 0.930 . S
C1678 H1664 0.930 . S
C1678 C1676 1.395 . S
C1678 C1681 1.403 . S
C1679 C1676 1.403 1_455 S
C1679 C1680 1.524 . S
C1679 C1683 1.400 . S
C1680 H1665 0.960 . S
C1680 H1666 0.960 . S
C1680 H1667 0.960 . S
C1680 C1679 1.524 . S
C1681 C1678 1.403 . S
C1681 C1682 1.392 . S
C1681 C1685 1.495 . S
C1682 C1681 1.392 . S
C1682 C1683 1.385 1_655 S
C1682 C1684 1.486 . S
C1683 H1677 0.930 . S
C1683 C1679 1.400 . S
C1683 C1682 1.385 1_455 S
C1684 C1682 1.486 . S
C1684 C1686 1.362 1_655 S
C1684 C1690 1.393 . S
C1685 C1681 1.495 . S
C1685 H1691 0.959 . S
C1685 H1692 0.961 . S
C1685 H1693 0.960 . S
C1686 C1684 1.362 1_455 S
C1686 C1687 1.394 . S
C1686 H1694 0.930 . S
C1687 C1686 1.394 . S
C1687 C1688 1.383 . S
C1687 H1695 0.929 . S
C1688 C1687 1.383 . S
C1688 C1689 1.377 1_455 S
C1689 H1673 0.930 . S
C1689 C1688 1.377 1_655 S
C1689 C1690 1.379 . S
C1690 H1674 0.931 . S
C1690 C1684 1.393 . S
C1690 C1689 1.379 . S
H1691 C1685 0.959 . S
H1692 C1685 0.961 . S
H1693 C1685 0.960 . S
H1694 C1686 0.930 . S
H1695 C1687 0.929 . S
H1696 C1704 0.929 . S
H1697 C1706 0.930 . S
H1698 C1708 0.930 . S
H1699 C1711 0.929 . S
H1700 C1714 0.930 . S
H1701 C1716 0.960 . S
H1702 C1716 0.960 . S
H1703 C1716 0.960 . S
C1704 H1696 0.929 . S
C1704 C1705 1.377 . S
C1704 C1706 1.384 . S
C1705 C1704 1.377 . S
C1705 C1711 1.390 . S
C1706 H1697 0.930 . S
C1706 C1704 1.384 . S
C1706 C1707 1.372 . S
C1707 C1706 1.372 . S
C1707 C1708 1.400 . S
C1707 C1712 1.490 . S
C1708 H1698 0.930 . S
C1708 C1707 1.400 . S
C1708 C1711 1.386 . S
H1709 C1725 0.930 . S
H1710 C1726 0.931 . S
C1711 H1699 0.929 . S
C1711 C1705 1.390 . S
C1711 C1708 1.386 . S
C1712 C1707 1.490 . S
C1712 C1714 1.395 . S
C1712 C1715 1.403 . S
H1713 C1719 0.930 . S
C1714 H1700 0.930 . S
C1714 C1712 1.395 . S
C1714 C1717 1.403 . S
C1715 C1712 1.403 . S
C1715 C1716 1.524 . S
C1715 C1719 1.400 . S
C1716 H1701 0.960 . S
C1716 H1702 0.960 . S
C1716 H1703 0.960 . S
C1716 C1715 1.524 . S
C1717 C1714 1.403 . S
C1717 C1718 1.392 . S
C1717 C1721 1.495 . S
C1718 C1717 1.392 . S
C1718 C1719 1.385 . S
C1718 C1720 1.478 . S
C1719 H1713 0.930 . S
C1719 C1715 1.400 . S
C1719 C1718 1.385 . S
C1720 C1718 1.478 . S
C1720 C1722 1.381 . S
C1720 C1726 1.383 . S
C1721 C1717 1.495 . S
C1721 H1727 0.959 . S
C1721 H1728 0.961 . S
C1721 H1729 0.960 . S
C1722 C1720 1.381 . S
C1722 C1723 1.394 . S
C1722 H1730 0.930 . S
C1723 C1722 1.394 . S
C1723 C1724 1.383 . S
C1723 H1731 0.929 . S
C1724 C1723 1.383 . S
C1724 C1725 1.377 . S
C1725 H1709 0.930 . S
C1725 C1724 1.377 . S
C1725 C1726 1.379 . S
C1726 H1710 0.931 . S
C1726 C1720 1.383 . S
C1726 C1725 1.379 . S
H1727 C1721 0.959 . S
H1728 C1721 0.961 . S
H1729 C1721 0.960 . S
H1730 C1722 0.930 . S
H1731 C1723 0.929 . S
H1732 C1740 0.929 . S
H1733 C1742 0.930 . S
H1734 C1744 0.930 . S
H1735 C1747 0.874 1_554 S
H1736 C1750 0.930 . S
H1737 C1752 0.960 . S
H1738 C1752 0.960 . S
H1739 C1752 0.960 . S
C1740 H1732 0.929 . S
C1740 C1741 1.377 . S
C1740 C1742 1.384 . S
C1741 C1740 1.377 . S
C1741 C1747 1.399 . S
C1742 H1733 0.930 . S
C1742 C1740 1.384 . S
C1742 C1743 1.372 . S
C1743 C1742 1.372 . S
C1743 C1744 1.400 . S
C1743 C1748 1.490 . S
C1744 H1734 0.930 . S
C1744 C1743 1.400 . S
C1744 C1747 1.433 . S
H1745 C1761 0.930 . S
H1746 C1762 0.931 . S
C1747 H1735 0.874 1_556 S
C1747 C1741 1.399 . S
C1747 C1744 1.433 . S
C1748 C1743 1.490 . S
C1748 C1750 1.395 . S
C1748 C1751 1.403 . S
H1749 C1755 0.930 . S
C1750 H1736 0.930 . S
C1750 C1748 1.395 . S
C1750 C1753 1.403 . S
C1751 C1748 1.403 . S
C1751 C1752 1.524 . S
C1751 C1755 1.400 . S
C1752 H1737 0.960 . S
C1752 H1738 0.960 . S
C1752 H1739 0.960 . S
C1752 C1751 1.524 . S
C1753 C1750 1.403 . S
C1753 C1754 1.392 . S
C1753 C1757 1.495 . S
C1754 C1753 1.392 . S
C1754 C1755 1.385 . S
C1754 C1756 1.478 . S
C1755 H1749 0.930 . S
C1755 C1751 1.400 . S
C1755 C1754 1.385 . S
C1756 C1754 1.478 . S
C1756 C1758 1.381 . S
C1756 C1762 1.383 . S
C1757 C1753 1.495 . S
C1757 H1763 0.959 1_455 S
C1757 H1764 0.961 1_455 S
C1757 H1765 0.960 . S
C1758 C1756 1.381 . S
C1758 C1759 1.394 . S
C1758 H1766 0.930 . S
C1759 C1758 1.394 . S
C1759 C1760 1.383 . S
C1759 H1767 0.929 . S
C1760 C1759 1.383 . S
C1760 C1761 1.377 . S
C1761 H1745 0.930 . S
C1761 C1760 1.377 . S
C1761 C1762 1.379 . S
C1762 H1746 0.931 . S
C1762 C1756 1.383 . S
C1762 C1761 1.379 . S
H1763 C1757 0.959 1_655 S
H1764 C1757 0.961 1_655 S
H1765 C1757 0.960 . S
H1766 C1758 0.930 . S
H1767 C1759 0.929 . S
H1768 C1776 0.929 . S
H1769 C1778 0.930 . S
H1770 C1780 0.930 . S
H1771 C1783 0.929 . S
H1772 C1786 0.930 . S
H1773 C1788 0.960 . S
H1774 C1788 0.960 . S
H1775 C1788 0.960 . S
C1776 H1768 0.929 . S
C1776 C1777 1.377 . S
C1776 C1778 1.384 . S
C1777 C1776 1.377 . S
C1777 C1783 1.390 . S
C1778 H1769 0.930 . S
C1778 C1776 1.384 . S
C1778 C1779 1.372 . S
C1779 C1778 1.372 . S
C1779 C1780 1.400 . S
C1779 C1784 1.490 . S
C1780 H1770 0.930 . S
C1780 C1779 1.400 . S
C1780 C1783 1.386 . S
H1781 C1797 0.930 . S
H1782 C1798 0.931 . S
C1783 H1771 0.929 . S
C1783 C1777 1.390 . S
C1783 C1780 1.386 . S
C1784 C1779 1.490 . S
C1784 C1786 1.395 . S
C1784 C1787 1.403 . S
H1785 C1791 0.930 . S
C1786 H1772 0.930 . S
C1786 C1784 1.395 . S
C1786 C1789 1.403 . S
C1787 C1784 1.403 . S
C1787 C1788 1.524 . S
C1787 C1791 1.400 . S
C1788 H1773 0.960 . S
C1788 H1774 0.960 . S
C1788 H1775 0.960 . S
C1788 C1787 1.524 . S
C1789 C1786 1.403 . S
C1789 C1790 1.392 . S
C1789 C1793 1.495 . S
C1790 C1789 1.392 . S
C1790 C1791 1.385 . S
C1790 C1792 1.478 . S
C1791 H1785 0.930 . S
C1791 C1787 1.400 . S
C1791 C1790 1.385 . S
C1792 C1790 1.478 . S
C1792 C1794 1.381 . S
C1792 C1798 1.383 . S
C1793 C1789 1.495 . S
C1793 H1799 0.959 . S
C1793 H1800 0.961 . S
C1793 H1801 0.960 . S
C1794 C1792 1.381 . S
C1794 C1795 1.394 . S
C1794 H1802 0.930 . S
C1795 C1794 1.394 . S
C1795 C1796 1.383 . S
C1795 H1803 0.929 . S
C1796 C1795 1.383 . S
C1796 C1797 1.377 . S
C1797 H1781 0.930 . S
C1797 C1796 1.377 . S
C1797 C1798 1.379 . S
C1798 H1782 0.931 . S
C1798 C1792 1.383 . S
C1798 C1797 1.379 . S
H1799 C1793 0.959 . S
H1800 C1793 0.961 . S
H1801 C1793 0.960 . S
H1802 C1794 0.930 . S
H1803 C1795 0.929 . S
H1804 C1812 0.929 . S
H1805 C1814 0.930 . S
H1806 C1816 0.930 . S
H1807 C1819 0.929 . S
H1808 C1822 0.930 . S
H1809 C1824 0.960 . S
H1810 C1824 0.960 . S
H1811 C1824 0.960 . S
C1812 H1804 0.929 . S
C1812 C1813 1.377 . S
C1812 C1814 1.384 . S
C1813 C1812 1.377 . S
C1813 C1819 1.390 . S
C1814 H1805 0.930 . S
C1814 C1812 1.384 . S
C1814 C1815 1.372 . S
C1815 C1814 1.372 . S
C1815 C1816 1.400 . S
C1815 C1820 1.490 . S
C1816 H1806 0.930 . S
C1816 C1815 1.400 . S
C1816 C1819 1.386 . S
H1817 C1833 0.930 . S
H1818 C1834 0.931 . S
C1819 H1807 0.929 . S
C1819 C1813 1.390 . S
C1819 C1816 1.386 . S
C1820 C1815 1.490 . S
C1820 C1822 1.395 . S
C1820 C1823 1.403 . S
H1821 C1827 0.930 . S
C1822 H1808 0.930 . S
C1822 C1820 1.395 . S
C1822 C1825 1.403 . S
C1823 C1820 1.403 . S
C1823 C1824 1.524 . S
C1823 C1827 1.400 . S
C1824 H1809 0.960 . S
C1824 H1810 0.960 . S
C1824 H1811 0.960 . S
C1824 C1823 1.524 . S
C1825 C1822 1.403 . S
C1825 C1826 1.392 . S
C1825 C1829 1.495 . S
C1826 C1825 1.392 . S
C1826 C1827 1.385 . S
C1826 C1828 1.478 . S
C1827 H1821 0.930 . S
C1827 C1823 1.400 . S
C1827 C1826 1.385 . S
C1828 C1826 1.478 . S
C1828 C1830 1.381 . S
C1828 C1834 1.383 . S
C1829 C1825 1.495 . S
C1829 H1835 0.959 . S
C1829 H1836 0.961 . S
C1829 H1837 0.960 . S
C1830 C1828 1.381 . S
C1830 C1831 1.394 . S
C1830 H1838 0.930 . S
C1831 C1830 1.394 . S
C1831 C1832 1.383 . S
C1831 H1839 0.929 . S
C1832 C1831 1.383 . S
C1832 C1833 1.377 . S
C1833 H1817 0.930 . S
C1833 C1832 1.377 . S
C1833 C1834 1.379 . S
C1834 H1818 0.931 . S
C1834 C1828 1.383 . S
C1834 C1833 1.379 . S
H1835 C1829 0.959 . S
H1836 C1829 0.961 . S
H1837 C1829 0.960 . S
H1838 C1830 0.930 . S
H1839 C1831 0.929 . S
H1840 C1848 0.929 . S
H1841 C1850 0.930 . S
H1842 C1852 0.930 . S
H1843 C1855 0.929 . S
H1844 C1858 0.930 . S
H1845 C1860 0.960 . S
H1846 C1860 0.960 . S
H1847 C1860 0.960 . S
C1848 H1840 0.929 . S
C1848 C1849 1.377 . S
C1848 C1850 1.384 . S
C1849 C1848 1.377 . S
C1849 C1855 1.390 . S
C1850 H1841 0.930 . S
C1850 C1848 1.384 . S
C1850 C1851 1.372 . S
C1851 C1850 1.372 . S
C1851 C1852 1.400 . S
C1851 C1856 1.490 . S
C1852 H1842 0.930 . S
C1852 C1851 1.400 . S
C1852 C1855 1.386 . S
H1853 C1869 0.930 . S
H1854 C1870 0.931 . S
C1855 H1843 0.929 . S
C1855 C1849 1.390 . S
C1855 C1852 1.386 . S
C1856 C1851 1.490 . S
C1856 C1858 1.395 . S
C1856 C1859 1.403 . S
H1857 C1863 0.930 . S
C1858 H1844 0.930 . S
C1858 C1856 1.395 . S
C1858 C1861 1.403 . S
C1859 C1856 1.403 . S
C1859 C1860 1.524 . S
C1859 C1863 1.400 . S
C1860 H1845 0.960 . S
C1860 H1846 0.960 . S
C1860 H1847 0.960 . S
C1860 C1859 1.524 . S
C1861 C1858 1.403 . S
C1861 C1862 1.392 . S
C1861 C1865 1.495 . S
C1862 C1861 1.392 . S
C1862 C1863 1.385 . S
C1862 C1864 1.478 . S
C1863 H1857 0.930 . S
C1863 C1859 1.400 . S
C1863 C1862 1.385 . S
C1864 C1862 1.478 . S
C1864 C1866 1.381 . S
C1864 C1870 1.383 . S
C1865 C1861 1.495 . S
C1865 H1871 0.959 . S
C1865 H1872 0.961 . S
C1865 H1873 0.960 . S
C1866 C1864 1.381 . S
C1866 C1867 1.394 . S
C1866 H1874 0.930 . S
C1867 C1866 1.394 . S
C1867 C1868 1.383 . S
C1867 H1875 0.929 . S
C1868 C1867 1.383 . S
C1868 C1869 1.377 . S
C1869 H1853 0.930 . S
C1869 C1868 1.377 . S
C1869 C1870 1.379 . S
C1870 H1854 0.931 . S
C1870 C1864 1.383 . S
C1870 C1869 1.379 . S
H1871 C1865 0.959 . S
H1872 C1865 0.961 . S
H1873 C1865 0.960 . S
H1874 C1866 0.930 . S
H1875 C1867 0.929 . S
H1876 C1884 0.929 . S
H1877 C1886 0.879 1_554 S
H1878 C1888 0.930 . S
H1879 C1891 0.929 . S
H1880 C1894 0.930 . S
H1881 C1896 0.960 . S
H1882 C1896 0.960 . S
H1883 C1896 0.960 . S
C1884 H1876 0.929 . S
C1884 C1885 1.377 . S
C1884 C1886 1.430 . S
C1885 C1884 1.377 . S
C1885 C1891 1.390 . S
C1886 H1877 0.879 1_556 S
C1886 C1884 1.430 . S
C1886 C1887 1.387 1_556 S
C1887 C1886 1.387 1_554 S
C1887 C1888 1.341 1_554 S
C1887 C1892 1.542 . S
C1888 H1878 0.930 . S
C1888 C1887 1.341 1_556 S
C1888 C1891 1.386 . S
H1889 C1905 0.930 . S
H1890 C1906 0.931 . S
C1891 H1879 0.929 . S
C1891 C1885 1.390 . S
C1891 C1888 1.386 . S
C1892 C1887 1.542 . S
C1892 C1894 1.395 . S
C1892 C1895 1.403 . S
H1893 C1899 0.930 . S
C1894 H1880 0.930 . S
C1894 C1892 1.395 . S
C1894 C1897 1.403 . S
C1895 C1892 1.403 . S
C1895 C1896 1.524 . S
C1895 C1899 1.400 . S
C1896 H1881 0.960 . S
C1896 H1882 0.960 . S
C1896 H1883 0.960 . S
C1896 C1895 1.524 . S
C1897 C1894 1.403 . S
C1897 C1898 1.392 . S
C1897 C1901 1.495 . S
C1898 C1897 1.392 . S
C1898 C1899 1.385 . S
C1898 C1900 1.478 . S
C1899 H1893 0.930 . S
C1899 C1895 1.400 . S
C1899 C1898 1.385 . S
C1900 C1898 1.478 . S
C1900 C1902 1.381 . S
C1900 C1906 1.383 . S
C1901 C1897 1.495 . S
C1901 H1907 0.959 . S
C1901 H1908 0.961 . S
C1901 H1909 0.960 . S
C1902 C1900 1.381 . S
C1902 C1903 1.394 . S
C1902 H1910 0.930 . S
C1903 C1902 1.394 . S
C1903 C1904 1.383 . S
C1903 H1911 0.929 . S
C1904 C1903 1.383 . S
C1904 C1905 1.377 . S
C1905 H1889 0.930 . S
C1905 C1904 1.377 . S
C1905 C1906 1.379 . S
C1906 H1890 0.931 . S
C1906 C1900 1.383 . S
C1906 C1905 1.379 . S
H1907 C1901 0.959 . S
H1908 C1901 0.961 . S
H1909 C1901 0.960 . S
H1910 C1902 0.930 . S
H1911 C1903 0.929 . S
H1912 C1920 0.929 . S
H1913 C1922 0.930 . S
H1914 C1924 0.930 . S
H1915 C1927 0.929 . S
H1916 C1930 0.930 . S
H1917 C1932 0.960 . S
H1918 C1932 0.960 . S
H1919 C1932 0.960 . S
C1920 H1912 0.929 . S
C1920 C1921 1.377 . S
C1920 C1922 1.384 . S
C1921 C1920 1.377 . S
C1921 C1927 1.390 . S
C1922 H1913 0.930 . S
C1922 C1920 1.384 . S
C1922 C1923 1.372 . S
C1923 C1922 1.372 . S
C1923 C1924 1.400 . S
C1923 C1928 1.490 . S
C1924 H1914 0.930 . S
C1924 C1923 1.400 . S
C1924 C1927 1.386 . S
H1925 C1941 0.930 . S
H1926 C1942 0.931 . S
C1927 H1915 0.929 . S
C1927 C1921 1.390 . S
C1927 C1924 1.386 . S
C1928 C1923 1.490 . S
C1928 C1930 1.395 . S
C1928 C1931 1.403 . S
H1929 C1935 0.930 . S
C1930 H1916 0.930 . S
C1930 C1928 1.395 . S
C1930 C1933 1.403 . S
C1931 C1928 1.403 . S
C1931 C1932 1.524 . S
C1931 C1935 1.400 . S
C1932 H1917 0.960 . S
C1932 H1918 0.960 . S
C1932 H1919 0.960 . S
C1932 C1931 1.524 . S
C1933 C1930 1.403 . S
C1933 C1934 1.392 . S
C1933 C1937 1.495 . S
C1934 C1933 1.392 . S
C1934 C1935 1.385 . S
C1934 C1936 1.478 . S
C1935 H1929 0.930 . S
C1935 C1931 1.400 . S
C1935 C1934 1.385 . S
C1936 C1934 1.478 . S
C1936 C1938 1.381 . S
C1936 C1942 1.383 . S
C1937 C1933 1.495 . S
C1937 H1943 0.959 . S
C1937 H1944 0.961 . S
C1937 H1945 0.960 . S
C1938 C1936 1.381 . S
C1938 C1939 1.394 . S
C1938 H1946 0.930 . S
C1939 C1938 1.394 . S
C1939 C1940 1.383 . S
C1939 H1947 0.929 . S
C1940 C1939 1.383 . S
C1940 C1941 1.377 . S
C1941 H1925 0.930 . S
C1941 C1940 1.377 . S
C1941 C1942 1.379 . S
C1942 H1926 0.931 . S
C1942 C1936 1.383 . S
C1942 C1941 1.379 . S
H1943 C1937 0.959 . S
H1944 C1937 0.961 . S
H1945 C1937 0.960 . S
H1946 C1938 0.930 . S
H1947 C1939 0.929 . S
H1948 C1956 0.929 . S
H1949 C1958 0.930 . S
H1950 C1960 0.930 . S
H1951 C1963 0.929 . S
H1952 C1966 0.930 . S
H1953 C1968 0.960 . S
H1954 C1968 0.960 . S
H1955 C1968 0.960 . S
C1956 H1948 0.929 . S
C1956 C1957 1.377 . S
C1956 C1958 1.384 . S
C1957 C1956 1.377 . S
C1957 C1963 1.390 . S
C1958 H1949 0.930 . S
C1958 C1956 1.384 . S
C1958 C1959 1.372 . S
C1959 C1958 1.372 . S
C1959 C1960 1.400 . S
C1959 C1964 1.490 . S
C1960 H1950 0.930 . S
C1960 C1959 1.400 . S
C1960 C1963 1.386 . S
H1961 C1977 0.930 . S
H1962 C1978 0.931 . S
C1963 H1951 0.929 . S
C1963 C1957 1.390 . S
C1963 C1960 1.386 . S
C1964 C1959 1.490 . S
C1964 C1966 1.395 . S
C1964 C1967 1.403 . S
H1965 C1971 0.930 . S
C1966 H1952 0.930 . S
C1966 C1964 1.395 . S
C1966 C1969 1.403 . S
C1967 C1964 1.403 . S
C1967 C1968 1.524 . S
C1967 C1971 1.400 . S
C1968 H1953 0.960 . S
C1968 H1954 0.960 . S
C1968 H1955 0.960 . S
C1968 C1967 1.524 . S
C1969 C1966 1.403 . S
C1969 C1970 1.392 . S
C1969 C1973 1.495 . S
C1970 C1969 1.392 . S
C1970 C1971 1.385 . S
C1970 C1972 1.478 . S
C1971 H1965 0.930 . S
C1971 C1967 1.400 . S
C1971 C1970 1.385 . S
C1972 C1970 1.478 . S
C1972 C1974 1.381 . S
C1972 C1978 1.383 . S
C1973 C1969 1.495 . S
C1973 H1979 0.959 . S
C1973 H1980 0.961 . S
C1973 H1981 0.960 . S
C1974 C1972 1.381 . S
C1974 C1975 1.394 . S
C1974 H1982 0.930 . S
C1975 C1974 1.394 . S
C1975 C1976 1.383 . S
C1975 H1983 0.929 . S
C1976 C1975 1.383 . S
C1976 C1977 1.377 . S
C1977 H1961 0.930 . S
C1977 C1976 1.377 . S
C1977 C1978 1.379 . S
C1978 H1962 0.931 . S
C1978 C1972 1.383 . S
C1978 C1977 1.379 . S
H1979 C1973 0.959 . S
H1980 C1973 0.961 . S
H1981 C1973 0.960 . S
H1982 C1974 0.930 . S
H1983 C1975 0.929 . S
H1984 C1992 0.929 . S
H1985 C1994 0.930 . S
H1986 C1996 0.930 . S
H1987 C1999 0.929 . S
H1988 C2002 0.930 . S
H1989 C2004 0.960 . S
H1990 C2004 0.960 . S
H1991 C2004 0.960 . S
C1992 H1984 0.929 . S
C1992 C1993 1.377 . S
C1992 C1994 1.384 . S
C1993 C1992 1.377 . S
C1993 C1999 1.390 . S
C1994 H1985 0.930 . S
C1994 C1992 1.384 . S
C1994 C1995 1.372 . S
C1995 C1994 1.372 . S
C1995 C1996 1.400 . S
C1995 C2000 1.490 . S
C1996 H1986 0.930 . S
C1996 C1995 1.400 . S
C1996 C1999 1.386 . S
H1997 C2013 0.930 . S
H1998 C2014 0.931 . S
C1999 H1987 0.929 . S
C1999 C1993 1.390 . S
C1999 C1996 1.386 . S
C2000 C1995 1.490 . S
C2000 C2002 1.395 . S
C2000 C2003 1.403 . S
H2001 C2007 0.930 . S
C2002 H1988 0.930 . S
C2002 C2000 1.395 . S
C2002 C2005 1.403 . S
C2003 C2000 1.403 . S
C2003 C2004 1.524 . S
C2003 C2007 1.400 . S
C2004 H1989 0.960 . S
C2004 H1990 0.960 . S
C2004 H1991 0.960 . S
C2004 C2003 1.524 . S
C2005 C2002 1.403 . S
C2005 C2006 1.392 . S
C2005 C2009 1.495 . S
C2006 C2005 1.392 . S
C2006 C2007 1.385 . S
C2006 C2008 1.478 . S
C2007 H2001 0.930 . S
C2007 C2003 1.400 . S
C2007 C2006 1.385 . S
C2008 C2006 1.478 . S
C2008 C2010 1.381 . S
C2008 C2014 1.383 . S
C2009 C2005 1.495 . S
C2009 H2015 0.959 . S
C2009 H2016 0.961 . S
C2009 H2017 0.960 . S
C2010 C2008 1.381 . S
C2010 C2011 1.394 . S
C2010 H2018 0.930 . S
C2011 C2010 1.394 . S
C2011 C2012 1.383 . S
C2011 H2019 0.929 . S
C2012 C2011 1.383 . S
C2012 C2013 1.377 . S
C2013 H1997 0.930 . S
C2013 C2012 1.377 . S
C2013 C2014 1.379 . S
C2014 H1998 0.931 . S
C2014 C2008 1.383 . S
C2014 C2013 1.379 . S
H2015 C2009 0.959 . S
H2016 C2009 0.961 . S
H2017 C2009 0.960 . S
H2018 C2010 0.930 . S
H2019 C2011 0.929 . S
H2020 C2028 0.929 . S
H2021 C2030 0.930 . S
H2022 C2032 0.930 . S
H2023 C2035 0.929 . S
H2024 C2038 0.930 . S
H2025 C2040 0.960 . S
H2026 C2040 0.960 . S
H2027 C2040 0.960 . S
C2028 H2020 0.929 . S
C2028 C2029 1.377 . S
C2028 C2030 1.384 . S
C2029 C2028 1.377 . S
C2029 C2035 1.390 . S
C2030 H2021 0.930 . S
C2030 C2028 1.384 . S
C2030 C2031 1.372 . S
C2031 C2030 1.372 . S
C2031 C2032 1.400 . S
C2031 C2036 1.490 . S
C2032 H2022 0.930 . S
C2032 C2031 1.400 . S
C2032 C2035 1.386 . S
H2033 C2049 0.930 . S
H2034 C2050 0.931 . S
C2035 H2023 0.929 . S
C2035 C2029 1.390 . S
C2035 C2032 1.386 . S
C2036 C2031 1.490 . S
C2036 C2038 1.395 . S
C2036 C2039 1.403 . S
H2037 C2043 0.930 . S
C2038 H2024 0.930 . S
C2038 C2036 1.395 . S
C2038 C2041 1.403 . S
C2039 C2036 1.403 . S
C2039 C2040 1.524 . S
C2039 C2043 1.400 . S
C2040 H2025 0.960 . S
C2040 H2026 0.960 . S
C2040 H2027 0.960 . S
C2040 C2039 1.524 . S
C2041 C2038 1.403 . S
C2041 C2042 1.392 . S
C2041 C2045 1.495 . S
C2042 C2041 1.392 . S
C2042 C2043 1.385 . S
C2042 C2044 1.478 . S
C2043 H2037 0.930 . S
C2043 C2039 1.400 . S
C2043 C2042 1.385 . S
C2044 C2042 1.478 . S
C2044 C2046 1.381 . S
C2044 C2050 1.383 . S
C2045 C2041 1.495 . S
C2045 H2051 0.959 . S
C2045 H2052 0.961 . S
C2045 H2053 0.960 . S
C2046 C2044 1.381 . S
C2046 C2047 1.394 . S
C2046 H2054 0.930 . S
C2047 C2046 1.394 . S
C2047 C2048 1.383 . S
C2047 H2055 0.929 . S
C2048 C2047 1.383 . S
C2048 C2049 1.377 . S
C2049 H2033 0.930 . S
C2049 C2048 1.377 . S
C2049 C2050 1.379 . S
C2050 H2034 0.931 . S
C2050 C2044 1.383 . S
C2050 C2049 1.379 . S
H2051 C2045 0.959 . S
H2052 C2045 0.961 . S
H2053 C2045 0.960 . S
H2054 C2046 0.930 . S
H2055 C2047 0.929 . S
H2056 C2064 0.929 1_554 S
H2057 C2066 0.930 1_554 S
H2058 C2068 0.930 . S
H2059 C2071 0.929 . S
H2060 C2074 0.930 . S
H2061 C2076 0.960 . S
H2062 C2076 0.960 . S
H2063 C2076 0.960 . S
C2064 H2056 0.929 1_556 S
C2064 C2065 1.377 . S
C2064 C2066 1.384 . S
C2065 C2064 1.377 . S
C2065 C2071 1.390 . S
C2066 H2057 0.930 1_556 S
C2066 C2064 1.384 . S
C2066 C2067 1.372 . S
C2067 C2066 1.372 . S
C2067 C2068 1.400 . S
C2067 C2072 1.490 . S
C2068 H2058 0.930 . S
C2068 C2067 1.400 . S
C2068 C2071 1.386 . S
H2069 C2085 0.930 . S
H2070 C2086 0.931 . S
C2071 H2059 0.929 . S
C2071 C2065 1.390 . S
C2071 C2068 1.386 . S
C2072 C2067 1.490 . S
C2072 C2074 1.395 . S
C2072 C2075 1.403 . S
H2073 C2079 0.930 . S
C2074 H2060 0.930 . S
C2074 C2072 1.395 . S
C2074 C2077 1.403 . S
C2075 C2072 1.403 . S
C2075 C2076 1.524 . S
C2075 C2079 1.400 . S
C2076 H2061 0.960 . S
C2076 H2062 0.960 . S
C2076 H2063 0.960 . S
C2076 C2075 1.524 . S
C2077 C2074 1.403 . S
C2077 C2078 1.392 . S
C2077 C2081 1.495 . S
C2078 C2077 1.392 . S
C2078 C2079 1.385 . S
C2078 C2080 1.478 . S
C2079 H2073 0.930 . S
C2079 C2075 1.400 . S
C2079 C2078 1.385 . S
C2080 C2078 1.478 . S
C2080 C2082 1.381 1_556 S
C2080 C2086 1.383 . S
C2081 C2077 1.495 . S
C2081 H2087 0.959 . S
C2081 H2088 0.961 . S
C2081 H2089 0.960 1_556 S
C2082 C2080 1.381 1_554 S
C2082 C2083 1.394 . S
C2082 H2090 0.930 . S
C2083 C2082 1.394 . S
C2083 C2084 1.383 1_554 S
C2083 H2091 0.929 . S
C2084 C2083 1.383 1_556 S
C2084 C2085 1.377 . S
C2085 H2069 0.930 . S
C2085 C2084 1.377 . S
C2085 C2086 1.379 . S
C2086 H2070 0.931 . S
C2086 C2080 1.383 . S
C2086 C2085 1.379 . S
H2087 C2081 0.959 . S
H2088 C2081 0.961 . S
H2089 C2081 0.960 1_554 S
H2090 C2082 0.930 . S
H2091 C2083 0.929 . S
H2092 C2100 0.929 . S
H2093 C2102 0.930 . S
H2094 C2104 0.930 . S
H2095 C2107 0.929 . S
H2096 C2110 0.930 . S
H2097 C2112 0.960 . S
H2098 C2112 0.960 . S
H2099 C2112 0.960 . S
C2100 H2092 0.929 . S
C2100 C2101 1.377 . S
C2100 C2102 1.384 . S
C2101 C2100 1.377 . S
C2101 C2107 1.390 . S
C2102 H2093 0.930 . S
C2102 C2100 1.384 . S
C2102 C2103 1.372 . S
C2103 C2102 1.372 . S
C2103 C2104 1.400 . S
C2103 C2108 1.490 . S
C2104 H2094 0.930 . S
C2104 C2103 1.400 . S
C2104 C2107 1.386 . S
H2105 C2121 0.930 . S
H2106 C2122 0.931 . S
C2107 H2095 0.929 . S
C2107 C2101 1.390 . S
C2107 C2104 1.386 . S
C2108 C2103 1.490 . S
C2108 C2110 1.395 . S
C2108 C2111 1.403 . S
H2109 C2115 0.930 . S
C2110 H2096 0.930 . S
C2110 C2108 1.395 . S
C2110 C2113 1.403 . S
C2111 C2108 1.403 . S
C2111 C2112 1.524 . S
C2111 C2115 1.400 . S
C2112 H2097 0.960 . S
C2112 H2098 0.960 . S
C2112 H2099 0.960 . S
C2112 C2111 1.524 . S
C2113 C2110 1.403 . S
C2113 C2114 1.392 . S
C2113 C2117 1.495 . S
C2114 C2113 1.392 . S
C2114 C2115 1.385 . S
C2114 C2116 1.478 . S
C2115 H2109 0.930 . S
C2115 C2111 1.400 . S
C2115 C2114 1.385 . S
C2116 C2114 1.478 . S
C2116 C2118 1.381 . S
C2116 C2122 1.383 . S
C2117 C2113 1.495 . S
C2117 H2123 0.959 . S
C2117 H2124 0.961 . S
C2117 H2125 0.960 . S
C2118 C2116 1.381 . S
C2118 C2119 1.394 . S
C2118 H2126 0.930 . S
C2119 C2118 1.394 . S
C2119 C2120 1.383 . S
C2119 H2127 0.929 . S
C2120 C2119 1.383 . S
C2120 C2121 1.377 . S
C2121 H2105 0.930 . S
C2121 C2120 1.377 . S
C2121 C2122 1.379 . S
C2122 H2106 0.931 . S
C2122 C2116 1.383 . S
C2122 C2121 1.379 . S
H2123 C2117 0.959 . S
H2124 C2117 0.961 . S
H2125 C2117 0.960 . S
H2126 C2118 0.930 . S
H2127 C2119 0.929 . S
H2128 C2136 0.929 . S
H2129 C2138 0.930 . S
H2130 C2140 0.930 . S
H2131 C2143 0.929 . S
H2132 C2146 0.930 . S
H2133 C2148 0.930 1_556 S
H2134 C2148 0.997 . S
H2135 C2148 0.936 1_556 S
C2136 H2128 0.929 . S
C2136 C2137 1.377 . S
C2136 C2138 1.384 . S
C2137 C2136 1.377 . S
C2137 C2143 1.390 . S
C2138 H2129 0.930 . S
C2138 C2136 1.384 . S
C2138 C2139 1.372 . S
C2139 C2138 1.372 . S
C2139 C2140 1.400 . S
C2139 C2144 1.490 . S
C2140 H2130 0.930 . S
C2140 C2139 1.400 . S
C2140 C2143 1.386 . S
H2141 C2157 0.930 . S
H2142 C2158 0.972 . S
C2143 H2131 0.929 . S
C2143 C2137 1.390 . S
C2143 C2140 1.386 . S
C2144 C2139 1.490 . S
C2144 C2146 1.395 . S
C2144 C2147 1.403 . S
H2145 C2151 0.965 . S
C2146 H2132 0.930 . S
C2146 C2144 1.395 . S
C2146 C2149 1.403 . S
C2147 C2144 1.403 . S
C2147 C2148 1.543 . S
C2147 C2151 1.400 . S
C2148 H2133 0.930 1_554 S
C2148 H2134 0.997 . S
C2148 H2135 0.936 1_554 S
C2148 C2147 1.543 . S
C2149 C2146 1.403 . S
C2149 C2150 1.392 . S
C2149 C2153 1.495 . S
C2150 C2149 1.392 . S
C2150 C2151 1.385 . S
C2150 C2152 1.478 . S
C2151 H2145 0.965 . S
C2151 C2147 1.400 . S
C2151 C2150 1.385 . S
C2152 C2150 1.478 . S
C2152 C2154 1.381 . S
C2152 C2158 1.323 1_554 S
C2153 C2149 1.495 . S
C2153 H2159 0.959 . S
C2153 H2160 0.961 . S
C2153 H2161 0.960 . S
C2154 C2152 1.381 . S
C2154 C2155 1.394 . S
C2154 H2162 0.930 . S
C2155 C2154 1.394 . S
C2155 C2156 1.383 . S
C2155 H2163 0.929 . S
C2156 C2155 1.383 . S
C2156 C2157 1.377 1_554 S
C2157 H2141 0.930 . S
C2157 C2156 1.377 1_556 S
C2157 C2158 1.401 . S
C2158 H2142 0.972 . S
C2158 C2152 1.323 1_556 S
C2158 C2157 1.401 . S
H2159 C2153 0.959 . S
H2160 C2153 0.961 . S
H2161 C2153 0.960 . S
H2162 C2154 0.930 . S
H2163 C2155 0.929 . S
H2164 C2172 0.929 . S
H2165 C2174 0.930 . S
H2166 C2176 0.930 . S
H2167 C2179 0.929 . S
H2168 C2182 0.930 . S
H2169 C2184 0.960 . S
H2170 C2184 0.960 . S
H2171 C2184 0.960 . S
C2172 H2164 0.929 . S
C2172 C2173 1.377 . S
C2172 C2174 1.384 . S
C2173 C2172 1.377 . S
C2173 C2179 1.390 1_545 S
C2174 H2165 0.930 . S
C2174 C2172 1.384 . S
C2174 C2175 1.372 1_545 S
C2175 C2174 1.372 1_565 S
C2175 C2176 1.400 . S
C2175 C2180 1.490 . S
C2176 H2166 0.930 . S
C2176 C2175 1.400 . S
C2176 C2179 1.386 . S
H2177 C2193 0.930 . S
H2178 C2194 0.931 . S
C2179 H2167 0.929 . S
C2179 C2173 1.390 1_565 S
C2179 C2176 1.386 . S
C2180 C2175 1.490 . S
C2180 C2182 1.395 . S
C2180 C2183 1.403 . S
H2181 C2187 0.930 . S
C2182 H2168 0.930 . S
C2182 C2180 1.395 . S
C2182 C2185 1.403 . S
C2183 C2180 1.403 . S
C2183 C2184 1.524 . S
C2183 C2187 1.400 . S
C2184 H2169 0.960 . S
C2184 H2170 0.960 . S
C2184 H2171 0.960 . S
C2184 C2183 1.524 . S
C2185 C2182 1.403 . S
C2185 C2186 1.392 . S
C2185 C2189 1.495 . S
C2186 C2185 1.392 . S
C2186 C2187 1.385 . S
C2186 C2188 1.478 . S
C2187 H2181 0.930 . S
C2187 C2183 1.400 . S
C2187 C2186 1.385 . S
C2188 C2186 1.478 . S
C2188 C2190 1.381 . S
C2188 C2194 1.383 . S
C2189 C2185 1.495 . S
C2189 H2195 0.959 . S
C2189 H2196 0.961 . S
C2189 H2197 0.960 . S
C2190 C2188 1.381 . S
C2190 C2191 1.394 . S
C2190 H2198 0.930 . S
C2191 C2190 1.394 . S
C2191 C2192 1.383 . S
C2191 H2199 0.929 . S
C2192 C2191 1.383 . S
C2192 C2193 1.377 . S
C2193 H2177 0.930 . S
C2193 C2192 1.377 . S
C2193 C2194 1.379 . S
C2194 H2178 0.931 . S
C2194 C2188 1.383 . S
C2194 C2193 1.379 . S
H2195 C2189 0.959 . S
H2196 C2189 0.961 . S
H2197 C2189 0.960 . S
H2198 C2190 0.930 . S
H2199 C2191 0.929 . S
C500 C312 1.921 1_556 S
C481 C101 1.974 . S
C536 C325 1.025 . S
C517 C125 0.985 1_455 S
C553 C139 2.236 . S
C572 C345 2.071 . S
C608 C359 1.558 . S
C589 C82 1.732 . S
C644 C371 1.636 . S
C625 C196 1.665 . S
C680 C385 1.776 . S
C661 C234 1.783 . S
C697 C220 0.685 . S
C716 C395 0.632 . S
C752 C410 1.654 . S
C733 C173 1.694 . S
C769 C211 0.997 . S
C788 C424 0.988 . S
C824 C443 0.865 . S
C805 C182 0.848 . S
C841 C201 1.321 . S
C860 C423 1.434 . S
C896 C441 1.183 . S
C877 C239 1.122 . S
C913 C135 1.831 . S
C932 C457 1.719 . S
C949 C87 1.900 . S
C968 C451 2.048 . S
C985 C106 1.153 . S
C1004 C455 1.301 . S
C1021 C116 1.225 . S
C1040 C452 1.197 . S
C1057 C59 1.946 . S
C1076 C354 1.931 . S
C1093 C268 2.277 . S
C1112 C353 2.272 . S
C1148 C317 1.073 . S
C1129 C291 1.143 . S
C1184 C331 1.537 . S
C1165 C163 1.492 . S
C1201 C78 2.127 . S
C1220 C368 2.140 . S
C1256 C413 1.145 . S
C1237 C215 1.143 . S
C1292 C367 1.513 . S
C1273 C177 1.519 . S
C1328 C399 1.783 . S
C1309 C230 1.771 . S
C1364 C396 1.924 . S
C1345 C272 1.974 . S
C1381 C296 0.990 . S
C1400 C409 1.016 . S
C1417 C158 2.235 . S
C1436 C373 2.111 . S
C1472 C387 1.619 . S
C1453 C253 1.731 . S
C1489 C63 1.665 . S
C1508 C343 1.637 . S
C1544 C357 1.754 . S
C1525 C6 1.780 . S
C1580 C311 0.632 . S
C1561 C30 0.684 . S
C1616 C326 1.666 . S
C1597 C40 1.694 1_455 S
C1633 C21 0.997 . S
C1652 C438 0.990 . S
C1669 C49 0.863 . S
C1688 C429 0.919 . S
C1705 C68 1.310 . S
C1724 C437 1.435 . S
C1741 C11 1.132 1_556 S
C1760 C427 1.218 . S
C1796 C471 1.721 . S
C1777 C154 1.835 . S
C1832 C465 2.047 . S
C1813 C258 1.902 . S
C1868 C469 1.283 . S
C1849 C277 1.146 . S
C1885 C287 1.215 . S
C1904 C466 1.245 . S
C1921 C192 1.942 . S
C1940 C382 1.927 . S
C1976 C381 2.276 . S
C1957 C97 2.278 . S
C2012 C401 1.139 . S
C1993 C120 1.137 . S
C2048 C415 1.544 . S
C2029 C144 1.489 . S
C2065 C249 2.127 . S
C2084 C340 2.138 . S
C2120 C329 1.146 . S
C2101 C25 1.142 . S
C2137 C44 1.519 . S
C2156 C339 1.515 . S
C2192 C315 1.778 . S
C2173 C2 1.770 . S
