# Generated by pormake.
# Topology anh, (6,3)-cn, num edge types: 1
# Building blocks:
#     Node 0, Type 0, BuildingBlock: MIFKUJ_clean_sbu_0, # of connection points: 6
#     Node 1, Type 0, BuildingBlock: MIFKUJ_clean_sbu_0, # of connection points: 6
#     Node 2, Type 0, BuildingBlock: MIFKUJ_clean_sbu_0, # of connection points: 6
#     Node 3, Type 1, BuildingBlock: QEWDON_clean_linker_0, # of connection points: 3
#     Node 4, Type 1, BuildingBlock: QEWDON_clean_linker_0, # of connection points: 3
#     Node 5, Type 1, BuildingBlock: QEWDON_clean_linker_0, # of connection points: 3
#     Node 6, Type 1, BuildingBlock: QEWDON_clean_linker_0, # of connection points: 3
#     Node 7, Type 1, BuildingBlock: QEWDON_clean_linker_0, # of connection points: 3
#     Node 8, Type 1, BuildingBlock: QEWDON_clean_linker_0, # of connection points: 3
#     Edge 9, Type (0, 1), BuildingBlock: ZUJKAS_clean_linker_0, # of connection points: 2
#     Edge 10, Type (0, 1), BuildingBlock: ZUJKAS_clean_linker_0, # of connection points: 2
#     Edge 11, Type (0, 1), BuildingBlock: ZUJKAS_clean_linker_0, # of connection points: 2
#     Edge 12, Type (0, 1), BuildingBlock: ZUJKAS_clean_linker_0, # of connection points: 2
#     Edge 13, Type (0, 1), BuildingBlock: ZUJKAS_clean_linker_0, # of connection points: 2
#     Edge 14, Type (0, 1), BuildingBlock: ZUJKAS_clean_linker_0, # of connection points: 2
#     Edge 15, Type (0, 1), BuildingBlock: ZUJKAS_clean_linker_0, # of connection points: 2
#     Edge 16, Type (0, 1), BuildingBlock: ZUJKAS_clean_linker_0, # of connection points: 2
#     Edge 17, Type (0, 1), BuildingBlock: ZUJKAS_clean_linker_0, # of connection points: 2
#     Edge 18, Type (0, 1), BuildingBlock: ZUJKAS_clean_linker_0, # of connection points: 2
#     Edge 19, Type (0, 1), BuildingBlock: ZUJKAS_clean_linker_0, # of connection points: 2
#     Edge 20, Type (0, 1), BuildingBlock: ZUJKAS_clean_linker_0, # of connection points: 2
#     Edge 21, Type (0, 1), BuildingBlock: ZUJKAS_clean_linker_0, # of connection points: 2
#     Edge 22, Type (0, 1), BuildingBlock: ZUJKAS_clean_linker_0, # of connection points: 2
#     Edge 23, Type (0, 1), BuildingBlock: ZUJKAS_clean_linker_0, # of connection points: 2
#     Edge 24, Type (0, 1), BuildingBlock: ZUJKAS_clean_linker_0, # of connection points: 2
#     Edge 25, Type (0, 1), BuildingBlock: ZUJKAS_clean_linker_0, # of connection points: 2
#     Edge 26, Type (0, 1), BuildingBlock: ZUJKAS_clean_linker_0, # of connection points: 2
# Relax obj value: 0.065
# Max RMSD: 0.126
# Mean RMSD: 0.117
data_MOF--net-anh--node1-MIFKUJ_clean_sbu_0--node2-QEWDON_clean_linker_0--edge1-ZUJKAS_clean_linker_0
_symmetry_space_group_name_H-M    P1
_symmetry_Int_Tables_number       1
_symmetry_cell_setting            triclinic
loop_
_symmetry_equiv_pos_as_xyz
'x, y, z'
_cell_length_a     42.434332
_cell_length_b     42.244282
_cell_length_c     60.30622
_cell_angle_alpha  98.224714
_cell_angle_beta   94.959831
_cell_angle_gamma 120.01434
loop_
_atom_site_label
_atom_site_type_symbol
_atom_site_fract_x
_atom_site_fract_y
_atom_site_fract_z
_atom_type_partial_charge
Zn0 Zn 0.07152 0.62086 0.17 0.0
Zn1 Zn 0.95662 0.55022 0.16327 0.0
C2 C 0.10735 0.57692 0.17068 0.0
O3 O 0.08898 0.56355 0.18685 0.0
C4 C 0.89709 0.55831 0.14916 0.0
O5 O 0.89327 0.53263 0.1322 0.0
O6 O 0.09836 0.67417 0.16674 0.0
O7 O 0.02213 0.59007 0.15155 0.0
O8 O 0.9691 0.54919 0.13124 0.0
C9 C 0.11544 0.67972 0.15006 0.0
O10 O 0.11054 0.65067 0.13551 0.0
O11 O 0.10287 0.59986 0.16142 0.0
C12 C 0.90635 0.49121 0.1819 0.0
O13 O 0.90915 0.51985 0.19575 0.0
O14 O 0.92548 0.49722 0.16624 0.0
O15 O 0.002 0.5778 0.18971 0.0
O16 O 0.06239 0.61572 0.20185 0.0
O17 O 0.92456 0.57248 0.16542 0.0
C18 C 0.00309 0.57186 0.13207 0.0
C19 C 0.03005 0.59486 0.20595 0.0
Zn20 Zn 0.53781 0.09671 0.50414 0.0
Zn21 Zn 0.49549 0.98717 0.49534 0.0
C22 C 0.61427 0.14728 0.50994 0.0
O23 O 0.60797 0.15201 0.53076 0.0
C24 C 0.41516 0.93804 0.47735 0.0
O25 O 0.42349 0.94252 0.4571 0.0
O26 O 0.52641 0.13706 0.50947 0.0
O27 O 0.4981 0.05422 0.47951 0.0
O28 O 0.50798 0.00914 0.46778 0.0
C29 C 0.49936 0.13735 0.49899 0.0
O30 O 0.4737 0.10754 0.48396 0.0
O31 O 0.58764 0.12211 0.49435 0.0
C32 C 0.50602 0.93322 0.51039 0.0
O33 O 0.48504 0.93622 0.52433 0.0
O34 O 0.51447 0.95276 0.49533 0.0
O35 O 0.51916 0.02246 0.52581 0.0
O36 O 0.54326 0.08374 0.5346 0.0
O37 O 0.44068 0.95552 0.49487 0.0
C38 C 0.50712 0.03764 0.46445 0.0
C39 C 0.53512 0.05319 0.54043 0.0
Zn40 Zn 0.60427 0.51689 0.83731 0.0
Zn41 Zn 0.52934 0.53956 0.82714 0.0
C42 C 0.59866 0.45065 0.84454 0.0
O43 O 0.62243 0.47622 0.86233 0.0
C44 C 0.54814 0.60485 0.80762 0.0
O45 O 0.52507 0.57925 0.78963 0.0
O46 O 0.65887 0.53731 0.84203 0.0
O47 O 0.59599 0.53656 0.8098 0.0
O48 O 0.53531 0.50718 0.80227 0.0
C49 C 0.66944 0.52794 0.82449 0.0
O50 O 0.64519 0.50927 0.80542 0.0
O51 O 0.5833 0.46037 0.83006 0.0
C52 C 0.469 0.5417 0.83919 0.0
O53 O 0.49677 0.56933 0.85444 0.0
O54 O 0.47571 0.52294 0.82398 0.0
O55 O 0.54385 0.53767 0.85897 0.0
O56 O 0.59093 0.52976 0.86752 0.0
O57 O 0.55588 0.59441 0.825 0.0
C58 C 0.56611 0.52404 0.79588 0.0
C59 C 0.56567 0.53525 0.87341 0.0
H60 H 0.5343 0.12894 0.22949 0.0
C61 C 0.51303 0.10057 0.221 0.0
C62 C 0.50079 0.07191 0.23325 0.0
C63 C 0.49719 0.09264 0.19791 0.0
H64 H 0.46205 0.01362 0.23202 0.0
C65 C 0.47265 0.03541 0.22232 0.0
C66 C 0.45609 0.02751 0.19954 0.0
C67 C 0.46887 0.05606 0.18737 0.0
C68 C 0.50957 0.1221 0.18449 0.0
H69 H 0.45653 0.04971 0.16959 0.0
C70 C 0.54742 0.14597 0.18473 0.0
C71 C 0.55905 0.17139 0.17026 0.0
C72 C 0.48341 0.12473 0.17012 0.0
H73 H 0.45404 0.10687 0.16979 0.0
C74 C 0.49491 0.15024 0.1559 0.0
H75 H 0.56777 0.14379 0.19551 0.0
C76 C 0.53252 0.17329 0.1558 0.0
H77 H 0.54093 0.19299 0.14468 0.0
H78 H 0.4746 0.152 0.14485 0.0
H79 H 0.55883 0.58422 0.55606 0.0
C80 C 0.56625 0.56426 0.54906 0.0
C81 C 0.57485 0.54518 0.56346 0.0
C82 C 0.56394 0.55497 0.52537 0.0
H83 H 0.58627 0.50122 0.56499 0.0
C84 C 0.58162 0.51727 0.55403 0.0
C85 C 0.57959 0.50801 0.53047 0.0
C86 C 0.57238 0.52817 0.51646 0.0
C87 C 0.54813 0.56908 0.50936 0.0
H88 H 0.57105 0.52131 0.49825 0.0
C89 C 0.55961 0.60715 0.51292 0.0
C90 C 0.54466 0.62 0.49724 0.0
C91 C 0.52101 0.54387 0.49022 0.0
H92 H 0.51098 0.5142 0.48733 0.0
C93 C 0.50612 0.55651 0.47472 0.0
H94 H 0.58055 0.62676 0.52756 0.0
C95 C 0.51786 0.59434 0.47814 0.0
H96 H 0.50531 0.60337 0.46608 0.0
H97 H 0.48519 0.53687 0.46011 0.0
H98 H 0.11176 0.57005 0.89707 0.0
C99 C 0.08326 0.56136 0.89089 0.0
C100 C 0.05886 0.55499 0.90628 0.0
C101 C 0.07098 0.55747 0.86765 0.0
H102 H 0.00366 0.53983 0.9106 0.0
C103 C 0.02226 0.54464 0.89851 0.0
C104 C 0.00977 0.54128 0.87552 0.0
C105 C 0.03418 0.54727 0.86017 0.0
C106 C 0.09641 0.56484 0.85107 0.0
H107 H 0.02477 0.54479 0.84237 0.0
C108 C 0.12022 0.55076 0.85117 0.0
C109 C 0.14316 0.55643 0.83481 0.0
C110 C 0.09617 0.58517 0.83457 0.0
H111 H 0.07858 0.59691 0.8343 0.0
C112 C 0.11881 0.59082 0.81831 0.0
H113 H 0.12026 0.53464 0.86362 0.0
C114 C 0.14212 0.57651 0.81834 0.0
H115 H 0.15993 0.58186 0.80578 0.0
H116 H 0.11845 0.60655 0.80571 0.0
H117 H 0.97169 0.52283 0.44341 0.0
C118 C -0.00099 0.54639 0.45125 0.0
C119 C 0.02512 0.56351 0.4374 0.0
C120 C 0.00777 0.56055 0.47504 0.0
H121 H 0.0796 0.60942 0.43677 0.0
C122 C 0.05987 0.59503 0.44741 0.0
C123 C 0.06878 0.60979 0.47083 0.0
C124 C 0.04308 0.59232 0.48467 0.0
C125 C 0.97952 0.54401 0.4897 0.0
H126 H 0.05046 0.60401 0.50284 0.0
C127 C 0.95489 0.50491 0.48615 0.0
C128 C 0.92867 0.48988 0.5004 0.0
C129 C 0.97694 0.56772 0.50743 0.0
H130 H 0.99459 0.59786 0.51029 0.0
C131 C 0.95109 0.55299 0.52149 0.0
H132 H 0.95664 0.48617 0.47272 0.0
C133 C 0.92718 0.51445 0.51807 0.0
H134 H 0.90695 0.5039 0.52905 0.0
H135 H 0.94936 0.57159 0.53501 0.0
H136 H 0.57132 0.00401 0.78263 0.0
C137 C 0.57556 0.03082 0.79062 0.0
C138 C 0.58339 0.05794 0.77749 0.0
C139 C 0.57225 0.03789 0.81364 0.0
H140 H 0.59196 0.11256 0.77691 0.0
C141 C 0.58738 0.09216 0.78727 0.0
C142 C 0.58293 0.09945 0.80974 0.0
C143 C 0.57586 0.07259 0.82298 0.0
C144 C 0.56343 0.0086 0.82752 0.0
H145 H 0.57343 0.07912 0.84054 0.0
C146 C 0.57537 0.98265 0.82364 0.0
C147 C 0.56636 0.95498 0.83667 0.0
C148 C 0.54211 0.00589 0.84461 0.0
H149 H 0.53113 0.02403 0.8477 0.0
C150 C 0.53372 0.97904 0.85774 0.0
H151 H 0.59206 0.98413 0.81078 0.0
C152 C 0.54571 0.95383 0.85386 0.0
H153 H 0.53785 0.93265 0.86395 0.0
H154 H 0.51726 0.97735 0.87077 0.0
H155 H 0.49115 0.58435 0.1143 0.0
C156 C 0.51193 0.57898 0.12139 0.0
C157 C 0.52787 0.56479 0.10658 0.0
C158 C 0.52334 0.58682 0.14522 0.0
H159 H 0.56959 0.55052 0.10401 0.0
C160 C 0.55593 0.55941 0.11558 0.0
C161 C 0.56832 0.5678 0.13912 0.0
C162 C 0.55145 0.58079 0.15385 0.0
C163 C 0.50682 0.60205 0.16121 0.0
H164 H 0.56034 0.58615 0.17207 0.0
C165 C 0.46893 0.59021 0.15656 0.0
C166 C 0.45336 0.60356 0.17227 0.0
C167 C 0.52891 0.62827 0.18157 0.0
H168 H 0.55833 0.63899 0.18545 0.0
C169 C 0.51344 0.64135 0.19718 0.0
H170 H 0.45124 0.56989 0.14111 0.0
C171 C 0.47585 0.62893 0.19267 0.0
H172 H 0.46445 0.6397 0.20493 0.0
H173 H 0.53071 0.66135 0.2128 0.0
H174 H 0.15043 0.60177 0.1387 0.0
H175 H 0.20485 0.59788 0.13341 0.0
H176 H 0.18608 0.53279 0.18506 0.0
H177 H 0.13146 0.53658 0.19061 0.0
H178 H 0.2655 0.62675 0.17194 0.0
H179 H 0.20971 0.47787 0.13079 0.0
H180 H 0.18308 0.50027 0.12864 0.0
H181 H 0.18965 0.48608 0.15444 0.0
C182 C 0.15743 0.58605 0.1487 0.0
C183 C 0.13679 0.56973 0.16524 0.0
C184 C 0.18851 0.58384 0.1456 0.0
C185 C 0.19927 0.56492 0.15876 0.0
C186 C 0.17783 0.54709 0.17453 0.0
H187 H 0.40198 0.57345 0.19904 0.0
H188 H 0.33849 0.56099 0.19318 0.0
C189 C 0.14674 0.5494 0.17774 0.0
C190 C 0.23508 0.56743 0.15779 0.0
H191 H 0.27468 0.51556 0.14477 0.0
C192 C 0.26755 0.60254 0.16579 0.0
C193 C 0.23746 0.53574 0.14975 0.0
C194 C 0.20319 0.49782 0.14023 0.0
C195 C 0.3025 0.60662 0.16655 0.0
C196 C 0.30492 0.57484 0.15896 0.0
C197 C 0.27252 0.5398 0.15056 0.0
C198 C 0.34118 0.57769 0.1608 0.0
C199 C 0.33676 0.64466 0.17596 0.0
C200 C 0.36314 0.59043 0.14426 0.0
C201 C 0.39923 0.59725 0.14747 0.0
C202 C 0.41385 0.59186 0.16742 0.0
C203 C 0.39131 0.57796 0.18359 0.0
C204 C 0.35513 0.57072 0.18023 0.0
H205 H 0.33005 0.66631 0.18205 0.0
H206 H 0.35383 0.64318 0.19034 0.0
H207 H 0.35378 0.65349 0.16255 0.0
H208 H 0.35277 0.59621 0.12926 0.0
H209 H 0.41626 0.60828 0.13489 0.0
H210 H 0.63201 0.15919 0.46792 0.0
H211 H 0.68958 0.2099 0.46011 0.0
H212 H 0.73493 0.24769 0.53209 0.0
H213 H 0.67796 0.19736 0.54 0.0
H214 H 0.71693 0.28629 0.47738 0.0
H215 H 0.82077 0.25012 0.50443 0.0
H216 H 0.7716 0.21624 0.498 0.0
H217 H 0.79254 0.24826 0.5253 0.0
C218 C 0.65458 0.17781 0.48202 0.0
C219 C 0.65041 0.17425 0.50459 0.0
C220 C 0.6874 0.20681 0.47753 0.0
C221 C 0.71674 0.2323 0.49549 0.0
C222 C 0.71301 0.22793 0.51792 0.0
H223 H 0.90881 0.44785 0.53279 0.0
H224 H 0.85876 0.38288 0.52796 0.0
C225 C 0.68026 0.19923 0.52242 0.0
C226 C 0.7498 0.26572 0.49132 0.0
H227 H 0.84437 0.31467 0.50297 0.0
C228 C 0.74482 0.29222 0.48249 0.0
C229 C 0.78613 0.27342 0.49811 0.0
C230 C 0.79315 0.24534 0.50679 0.0
C231 C 0.77517 0.32717 0.48157 0.0
C232 C 0.81154 0.3355 0.48922 0.0
C233 C 0.81652 0.30829 0.4971 0.0
C234 C 0.84441 0.37352 0.49134 0.0
C235 C 0.76794 0.3557 0.47371 0.0
C236 C 0.85389 0.38956 0.47226 0.0
C237 C 0.88247 0.42695 0.475 0.0
C238 C 0.90204 0.44887 0.49688 0.0
C239 C 0.89381 0.43196 0.51576 0.0
C240 C 0.86535 0.39473 0.51301 0.0
H241 H 0.73847 0.34751 0.47266 0.0
H242 H 0.7855 0.38356 0.48543 0.0
H243 H 0.77492 0.35848 0.45651 0.0
H244 H 0.83856 0.37348 0.45532 0.0
H245 H 0.88813 0.43913 0.46013 0.0
H246 H 0.58167 0.66287 0.84523 0.0
H247 H 0.5931 0.72628 0.84795 0.0
H248 H 0.55406 0.7011 0.77557 0.0
H249 H 0.54179 0.63746 0.77278 0.0
H250 H 0.63488 0.78615 0.82811 0.0
H251 H 0.48486 0.73039 0.80152 0.0
H252 H 0.50238 0.70152 0.80904 0.0
H253 H 0.50394 0.71266 0.7813 0.0
C254 C 0.57592 0.67094 0.82983 0.0
C255 C 0.56029 0.64485 0.80882 0.0
C256 C 0.58248 0.70725 0.83142 0.0
C257 C 0.5736 0.71825 0.81207 0.0
C258 C 0.5602 0.693 0.79086 0.0
H259 H 0.55936 0.91323 0.79527 0.0
H260 H 0.56633 0.85858 0.7882 0.0
C261 C 0.55339 0.65664 0.78927 0.0
C262 C 0.57648 0.75527 0.81427 0.0
H263 H 0.52497 0.79556 0.80611 0.0
C264 C 0.61087 0.78822 0.82327 0.0
C265 C 0.54511 0.75806 0.8081 0.0
C266 C 0.50691 0.72381 0.79966 0.0
C267 C 0.61476 0.82378 0.826 0.0
C268 C 0.58337 0.82648 0.81977 0.0
C269 C 0.54911 0.79356 0.81063 0.0
C270 C 0.58461 0.86277 0.82369 0.0
C271 C 0.65248 0.85817 0.83535 0.0
C272 C 0.59319 0.88376 0.84594 0.0
C273 C 0.58921 0.91494 0.85 0.0
C274 C 0.57645 0.92583 0.83192 0.0
C275 C 0.56956 0.90584 0.80954 0.0
C276 C 0.57334 0.87447 0.8055 0.0
H277 H 0.67495 0.85232 0.83319 0.0
H278 H 0.65687 0.88137 0.82687 0.0
H279 H 0.65467 0.86766 0.85385 0.0
H280 H 0.60133 0.87504 0.86031 0.0
H281 H 0.59497 0.92985 0.86743 0.0
H282 H 0.83311 0.52878 0.11853 0.0
H283 H 0.78065 0.5367 0.12291 0.0
H284 H 0.84083 0.61458 0.18711 0.0
H285 H 0.89373 0.60677 0.183 0.0
H286 H 0.74849 0.52397 0.16865 0.0
H287 H 0.79153 0.66057 0.14439 0.0
H288 H 0.80772 0.63092 0.1322 0.0
H289 H 0.82452 0.65473 0.16154 0.0
C290 C 0.8355 0.548 0.13346 0.0
C291 C 0.86747 0.56689 0.15053 0.0
C292 C 0.80549 0.55246 0.13591 0.0
C293 C 0.80702 0.57611 0.15533 0.0
C294 C 0.83935 0.59629 0.17198 0.0
H295 H 0.62811 0.61914 0.17211 0.0
H296 H 0.68654 0.6212 0.18137 0.0
C297 C 0.86945 0.59175 0.16959 0.0
C298 C 0.77355 0.57714 0.1588 0.0
H299 H 0.73091 0.62602 0.15137 0.0
C300 C 0.74468 0.54645 0.16516 0.0
C301 C 0.76913 0.60677 0.15453 0.0
C302 C 0.79973 0.64026 0.14775 0.0
C303 C 0.71077 0.54398 0.16664 0.0
C304 C 0.70539 0.57254 0.16101 0.0
C305 C 0.735 0.60411 0.15566 0.0
C306 C 0.66847 0.56861 0.15832 0.0
C307 C 0.681 0.51061 0.17402 0.0
C308 C 0.63866 0.53794 0.14272 0.0
C309 C 0.60518 0.53643 0.13768 0.0
C310 C 0.60101 0.5659 0.1478 0.0
C311 C 0.63031 0.5958 0.16421 0.0
C312 C 0.66381 0.59718 0.16937 0.0
H313 H 0.69325 0.49962 0.18549 0.0
H314 H 0.66279 0.51768 0.18295 0.0
H315 H 0.66377 0.48786 0.15877 0.0
H316 H 0.64178 0.51596 0.1336 0.0
H317 H 0.58302 0.51289 0.1251 0.0
H318 H 0.39332 0.9118 0.51555 0.0
H319 H 0.33404 0.85838 0.51839 0.0
H320 H 0.29243 0.84502 0.44775 0.0
H321 H 0.35217 0.89794 0.44455 0.0
H322 H 0.2624 0.84141 0.51176 0.0
H323 H 0.27871 0.74328 0.44914 0.0
H324 H 0.3159 0.79076 0.46099 0.0
H325 H 0.28018 0.78108 0.43802 0.0
C326 C 0.37149 0.89777 0.50063 0.0
C327 C 0.37767 0.90885 0.47971 0.0
C328 C 0.33757 0.8672 0.50231 0.0
C329 C 0.30909 0.84715 0.48316 0.0
C330 C 0.31439 0.85946 0.46259 0.0
H331 H 0.07982 0.67887 0.47286 0.0
H332 H 0.13942 0.73787 0.47955 0.0
C333 C 0.34847 0.88986 0.46082 0.0
C334 C 0.2745 0.81256 0.48455 0.0
H335 H 0.22063 0.719 0.46105 0.0
C336 C 0.2533 0.8146 0.50073 0.0
C337 C 0.26309 0.77742 0.47053 0.0
C338 C 0.28582 0.7728 0.45385 0.0
C339 C 0.22044 0.78262 0.50279 0.0
C340 C 0.20823 0.74785 0.48805 0.0
C341 C 0.22993 0.74569 0.4723 0.0
C342 C 0.17222 0.71358 0.48775 0.0
C343 C 0.19931 0.78626 0.52087 0.0
C344 C 0.17075 0.6803 0.49027 0.0
C345 C 0.13667 0.64657 0.48634 0.0
C346 C 0.10368 0.64575 0.47991 0.0
C347 C 0.105 0.67919 0.47833 0.0
C348 C 0.13901 0.71285 0.48218 0.0
H349 H 0.21737 0.8113 0.53479 0.0
H350 H 0.17659 0.78935 0.51309 0.0
H351 H 0.18688 0.76103 0.52833 0.0
H352 H 0.19605 0.68018 0.49437 0.0
H353 H 0.13616 0.62088 0.48722 0.0
H354 H 0.5426 0.38545 0.81561 0.0
H355 H 0.53398 0.3226 0.81119 0.0
H356 H 0.63407 0.36758 0.86042 0.0
H357 H 0.64211 0.42947 0.86542 0.0
H358 H 0.57662 0.2958 0.79715 0.0
H359 H 0.5642 0.28169 0.88621 0.0
H360 H 0.56195 0.3181 0.87508 0.0
H361 H 0.60607 0.32348 0.88482 0.0
C362 C 0.56254 0.38176 0.82559 0.0
C363 C 0.59269 0.41237 0.84112 0.0
C364 C 0.55762 0.34587 0.82306 0.0
C365 C 0.58283 0.34006 0.83596 0.0
C366 C 0.61347 0.3709 0.85091 0.0
H367 H 0.64009 0.1712 0.81532 0.0
H368 H 0.63729 0.2284 0.82241 0.0
C369 C 0.61813 0.40645 0.85363 0.0
C370 C 0.57826 0.30226 0.83339 0.0
H371 H 0.57816 0.2398 0.86391 0.0
C372 C 0.5765 0.2834 0.81172 0.0
C373 C 0.57769 0.28568 0.85235 0.0
C374 C 0.57718 0.30313 0.87586 0.0
C375 C 0.57589 0.24944 0.80871 0.0
C376 C 0.57732 0.23404 0.82784 0.0
C377 C 0.57754 0.25196 0.84933 0.0
C378 C 0.57969 0.19989 0.82578 0.0
C379 C 0.57401 0.23019 0.78513 0.0
C380 C 0.5486 0.16517 0.82617 0.0
C381 C 0.55032 0.13257 0.82243 0.0
C382 C 0.58316 0.13429 0.81824 0.0
C383 C 0.61459 0.16927 0.8187 0.0
C384 C 0.61293 0.20181 0.82258 0.0
H385 H 0.5687 0.24333 0.77172 0.0
H386 H 0.60061 0.2315 0.78409 0.0
H387 H 0.55179 0.20018 0.78159 0.0
H388 H 0.52268 0.16313 0.82855 0.0
H389 H 0.52553 0.1058 0.82166 0.0
H390 H 0.55302 0.92356 0.48601 0.0
H391 H 0.5704 0.87643 0.48656 0.0
H392 H 0.50503 0.83599 0.53819 0.0
H393 H 0.48751 0.88302 0.5379 0.0
H394 H 0.60052 0.85641 0.53081 0.0
H395 H 0.46494 0.74951 0.47503 0.0
H396 H 0.48597 0.7989 0.47556 0.0
H397 H 0.46523 0.78058 0.49897 0.0
C398 C 0.54263 0.90489 0.49765 0.0
C399 C 0.51861 0.90669 0.51176 0.0
C400 C 0.55279 0.87824 0.49803 0.0
C401 C 0.53896 0.85307 0.51244 0.0
C402 C 0.51599 0.85549 0.52706 0.0
H403 H 0.55256 0.66535 0.53709 0.0
H404 H 0.55939 0.72713 0.5417 0.0
C405 C 0.50594 0.88221 0.52678 0.0
C406 C 0.54562 0.82197 0.51065 0.0
H407 H 0.50412 0.72885 0.48766 0.0
C408 C 0.57961 0.82848 0.52139 0.0
C409 C 0.5182 0.7859 0.49816 0.0
C410 C 0.48151 0.77803 0.48613 0.0
C411 C 0.58663 0.79921 0.52019 0.0
C412 C 0.55896 0.76304 0.50795 0.0
C413 C 0.52523 0.7568 0.49698 0.0
C414 C 0.56354 0.7306 0.50654 0.0
C415 C 0.62341 0.8069 0.53182 0.0
C416 C 0.56457 0.71286 0.48538 0.0
C417 C 0.56076 0.67775 0.4827 0.0
C418 C 0.55545 0.65974 0.5011 0.0
C419 C 0.55686 0.6787 0.52266 0.0
C420 C 0.5608 0.71395 0.52534 0.0
H421 H 0.64382 0.83737 0.53776 0.0
H422 H 0.6194 0.79366 0.54678 0.0
H423 H 0.63492 0.79437 0.52004 0.0
H424 H 0.5665 0.72539 0.47069 0.0
H425 H 0.5604 0.66399 0.46599 0.0
H426 H 0.72431 0.55964 0.86214 0.0
H427 H 0.7818 0.55901 0.86613 0.0
H428 H 0.75509 0.50469 0.7952 0.0
H429 H 0.69781 0.50563 0.79092 0.0
H430 H 0.78161 0.49076 0.85728 0.0
H431 H 0.865 0.58882 0.80416 0.0
H432 H 0.82654 0.58922 0.81461 0.0
H433 H 0.81819 0.55308 0.79109 0.0
C434 C 0.73098 0.54822 0.84728 0.0
C435 C 0.70644 0.5325 0.82625 0.0
C436 C 0.76376 0.5478 0.8496 0.0
C437 C 0.7726 0.53188 0.83094 0.0
C438 C 0.74894 0.51753 0.80971 0.0
H439 H 0.96071 0.49645 0.83574 0.0
H440 H 0.90061 0.48913 0.82242 0.0
C441 C 0.71616 0.51797 0.80735 0.0
C442 C 0.80506 0.52769 0.83433 0.0
H443 H 0.89107 0.55841 0.82148 0.0
C444 C 0.80546 0.50536 0.84935 0.0
C445 C 0.83578 0.54634 0.82365 0.0
C446 C 0.8367 0.57094 0.80757 0.0
C447 C 0.83643 0.50224 0.85462 0.0
C448 C 0.86771 0.52217 0.84474 0.0
C449 C 0.8668 0.54316 0.82894 0.0
C450 C 0.90302 0.52508 0.85271 0.0
C451 C 0.83599 0.47843 0.87114 0.0
C452 C 0.92388 0.54769 0.87406 0.0
C453 C 0.95819 0.55232 0.88158 0.0
C454 C 0.9722 0.53423 0.86789 0.0
C455 C 0.95085 0.51107 0.84657 0.0
C456 C 0.91654 0.5067 0.83897 0.0
H457 H 0.80748 0.45904 0.87367 0.0
H458 H 0.84839 0.46183 0.86501 0.0
H459 H 0.85287 0.49688 0.88789 0.0
H460 H 0.91389 0.56236 0.88474 0.0
H461 H 0.97418 0.57097 0.89785 0.0
H462 H 0.16683 0.69799 0.1226 0.0
H463 H 0.22469 0.75753 0.12739 0.0
H464 H 0.19172 0.80674 0.18131 0.0
H465 H 0.13408 0.74663 0.17721 0.0
H466 H 0.24548 0.82824 0.12555 0.0
H467 H 0.28679 0.82062 0.21353 0.0
H468 H 0.24662 0.78215 0.19419 0.0
H469 H 0.24443 0.82066 0.20947 0.0
C470 C 0.17155 0.72157 0.13528 0.0
C471 C 0.14624 0.71745 0.14986 0.0
C472 C 0.20468 0.7556 0.13798 0.0
C473 C 0.2129 0.78614 0.15514 0.0
C474 C 0.18631 0.78307 0.16843 0.0
H475 H 0.3912 0.01367 0.17651 0.0
H476 H 0.33383 0.95334 0.16314 0.0
C477 C 0.1533 0.74885 0.16594 0.0
C478 C 0.25013 0.82029 0.15992 0.0
H479 H 0.32586 0.87686 0.20188 0.0
C480 C 0.26315 0.83886 0.14221 0.0
C481 C 0.27351 0.83336 0.18148 0.0
C482 C 0.26234 0.81296 0.20068 0.0
C483 C 0.2986 0.87088 0.14568 0.0
C484 C 0.3211 0.88513 0.1676 0.0
C485 C 0.30845 0.86598 0.18512 0.0
C486 C 0.35698 0.92095 0.17325 0.0
C487 C 0.31172 0.88879 0.12578 0.0
C488 C 0.38898 0.92282 0.18362 0.0
C489 C 0.42175 0.95741 0.19159 0.0
C490 C 0.42294 0.99054 0.18919 0.0
C491 C 0.39119 0.98847 0.17819 0.0
C492 C 0.35844 0.95401 0.17045 0.0
H493 H 0.29745 0.86811 0.10931 0.0
H494 H 0.30523 0.91116 0.12562 0.0
H495 H 0.34207 0.90147 0.12699 0.0
H496 H 0.38832 0.89759 0.18605 0.0
H497 H 0.44593 0.95835 0.19996 0.0
H498 H 0.54363 0.20061 0.53154 0.0
H499 H 0.55529 0.26317 0.53122 0.0
H500 H 0.47217 0.21895 0.47039 0.0
H501 H 0.46015 0.1558 0.4705 0.0
H502 H 0.57787 0.29693 0.49097 0.0
H503 H 0.45124 0.28898 0.51645 0.0
H504 H 0.46634 0.25796 0.52353 0.0
H505 H 0.44557 0.25147 0.4948 0.0
C506 C 0.52733 0.20399 0.51828 0.0
C507 C 0.50115 0.17337 0.50094 0.0
C508 C 0.53415 0.23974 0.51811 0.0
C509 C 0.51476 0.24544 0.50071 0.0
C510 C 0.48726 0.21482 0.48398 0.0
H511 H 0.53205 0.45583 0.4928 0.0
H512 H 0.52018 0.39295 0.48038 0.0
C513 C 0.48036 0.17886 0.48413 0.0
C514 C 0.5251 0.28391 0.49964 0.0
H515 H 0.49745 0.34662 0.51046 0.0
C516 C 0.56023 0.30786 0.49498 0.0
C517 C 0.50181 0.29764 0.50479 0.0
C518 C 0.46415 0.2729 0.5103 0.0
C519 C 0.57311 0.34577 0.49586 0.0
C520 C 0.55039 0.35987 0.5019 0.0
C521 C 0.51473 0.33556 0.50577 0.0
C522 C 0.56356 0.40012 0.50593 0.0
C523 C 0.61092 0.37041 0.49053 0.0
C524 C 0.59292 0.42539 0.52388 0.0
C525 C 0.60023 0.46174 0.5309 0.0
C526 C 0.57796 0.47309 0.5202 0.0
C527 C 0.55019 0.44834 0.50123 0.0
C528 C 0.5431 0.41221 0.49417 0.0
H529 H 0.61981 0.35374 0.4798 0.0
H530 H 0.61133 0.39183 0.48161 0.0
H531 H 0.63141 0.38512 0.50669 0.0
H532 H 0.60866 0.41634 0.53339 0.0
H533 H 0.622 0.48029 0.54541 0.0
H534 H 0.4461 0.57291 0.87165 0.0
H535 H 0.38462 0.56397 0.87097 0.0
H536 H 0.34454 0.48428 0.80682 0.0
H537 H 0.40617 0.49276 0.80743 0.0
H538 H 0.35138 0.58016 0.83524 0.0
H539 H 0.26256 0.43358 0.84505 0.0
H540 H 0.3124 0.4594 0.85337 0.0
H541 H 0.29134 0.44043 0.82381 0.0
C542 C 0.42417 0.55313 0.8575 0.0
C543 C 0.43104 0.53378 0.83947 0.0
C544 C 0.38903 0.54796 0.85721 0.0
C545 C 0.36008 0.52329 0.83895 0.0
C546 C 0.36643 0.50298 0.82125 0.0
H547 H 0.15815 0.52207 0.79879 0.0
H548 H 0.20781 0.50821 0.79936 0.0
C549 C 0.40168 0.50806 0.82155 0.0
C550 C 0.32464 0.52221 0.83742 0.0
H551 H 0.23241 0.46666 0.83789 0.0
C552 C 0.32538 0.55534 0.83581 0.0
C553 C 0.29086 0.4897 0.8381 0.0
C554 C 0.28902 0.45374 0.84034 0.0
C555 C 0.2932 0.55696 0.83498 0.0
C556 C 0.25952 0.52466 0.83586 0.0
C557 C 0.25847 0.49129 0.83721 0.0
C558 C 0.2256 0.52612 0.83593 0.0
C559 C 0.29529 0.59327 0.83336 0.0
C560 C 0.21898 0.53997 0.8564 0.0
C561 C 0.19097 0.54823 0.85613 0.0
C562 C 0.16932 0.54288 0.83536 0.0
C563 C 0.1748 0.52702 0.815 0.0
C564 C 0.2028 0.51872 0.8153 0.0
H565 H 0.32335 0.61537 0.83171 0.0
H566 H 0.27505 0.58859 0.81843 0.0
H567 H 0.28781 0.60352 0.84884 0.0
H568 H 0.2367 0.54616 0.87243 0.0
H569 H 0.18761 0.56067 0.87206 0.0
H570 H 0.85634 0.46964 0.21036 0.0
H571 H 0.803 0.40703 0.20754 0.0
H572 H 0.8375 0.36306 0.15208 0.0
H573 H 0.89115 0.42574 0.15465 0.0
H574 H 0.75412 0.36585 0.15558 0.0
H575 H 0.80184 0.29133 0.20541 0.0
H576 H 0.82184 0.3413 0.21412 0.0
H577 H 0.83129 0.32264 0.18872 0.0
C578 C 0.8531 0.4466 0.19785 0.0
C579 C 0.8777 0.45268 0.18254 0.0
C580 C 0.82269 0.41088 0.19634 0.0
C581 C 0.81664 0.38074 0.17967 0.0
C582 C 0.84209 0.38615 0.16514 0.0
H583 H 0.59386 0.18346 0.1337 0.0
H584 H 0.6589 0.22937 0.13386 0.0
C585 C 0.87256 0.42194 0.16661 0.0
C586 C 0.78116 0.34506 0.17561 0.0
H587 H 0.73773 0.26051 0.19069 0.0
C588 C 0.75044 0.3425 0.16294 0.0
C589 C 0.77694 0.31514 0.18542 0.0
C590 C 0.8096 0.31736 0.19922 0.0
C591 C 0.71495 0.31108 0.16047 0.0
C592 C 0.7104 0.28118 0.17061 0.0
C593 C 0.74144 0.28337 0.18279 0.0
C594 C 0.67315 0.24927 0.17051 0.0
C595 C 0.68248 0.31107 0.14803 0.0
C596 C 0.66031 0.24408 0.19114 0.0
C597 C 0.62342 0.2177 0.19109 0.0
C598 C 0.59885 0.19633 0.1704 0.0
C599 C 0.61221 0.20018 0.14983 0.0
C600 C 0.64924 0.22625 0.14991 0.0
H601 H 0.68997 0.33939 0.14554 0.0
H602 H 0.67277 0.29212 0.13096 0.0
H603 H 0.65912 0.30083 0.15746 0.0
H604 H 0.6784 0.26162 0.2072 0.0
H605 H 0.61372 0.2152 0.20715 0.0
H606 H 0.03992 0.63172 0.11298 0.0
H607 H 0.06129 0.63182 0.07634 0.0
H608 H 0.02489 0.51484 0.069 0.0
H609 H 0.00271 0.51458 0.10525 0.0
H610 H 0.11024 0.61288 0.05768 0.0
H611 H 0.96451 0.51666 0.01332 0.0
H612 H 0.97661 0.54038 0.04283 0.0
H613 H 0.97886 0.49896 0.03489 0.0
C614 C 0.03712 0.60629 0.10361 0.0
C615 C 0.0198 0.57314 0.11169 0.0
C616 C 0.0493 0.60635 0.08278 0.0
C617 C 0.04414 0.57318 0.06982 0.0
C618 C 0.02851 0.54054 0.07855 0.0
H619 H 0.05148 0.50246 0.92985 0.0
H620 H 0.0556 0.50877 0.97124 0.0
C621 C 0.01595 0.54039 0.0992 0.0
C622 C 0.05219 0.57178 0.04641 0.0
H623 H 0.01066 0.52912 0.99092 0.0
C624 C 0.08856 0.59457 0.04305 0.0
C625 C 0.02371 0.54822 0.02735 0.0
C626 C 0.98367 0.52494 0.02968 0.0
C627 C 0.09732 0.59367 0.02107 0.0
C628 C 0.06888 0.56955 0.0021 0.0
C629 C 0.03255 0.54709 0.00554 0.0
C630 C 0.07517 0.56801 0.97828 0.0
C631 C 0.13688 0.61814 0.01836 0.0
C632 C 0.08603 0.59947 0.96863 0.0
C633 C 0.08402 0.59589 0.94506 0.0
C634 C 0.07103 0.56082 0.93089 0.0
C635 C 0.06226 0.52986 0.9406 0.0
C636 C 0.06443 0.53346 0.96416 0.0
H637 H 0.15659 0.62687 0.03453 0.0
H638 H 0.14418 0.60348 0.00486 0.0
H639 H 0.14035 0.6438 0.01332 0.0
H640 H 0.09349 0.62615 0.97907 0.0
H641 H 0.09004 0.61987 0.93774 0.0
H642 H 0.53241 0.01135 0.43086 0.0
H643 H 0.53835 0.02575 0.39317 0.0
H644 H 0.50037 0.10229 0.40947 0.0
H645 H 0.49494 0.0885 0.44751 0.0
H646 H 0.4799 0.01286 0.36119 0.0
H647 H 0.59134 0.16316 0.38134 0.0
H648 H 0.58288 0.13369 0.40176 0.0
H649 H 0.55309 0.15143 0.396 0.0
C650 C 0.52566 0.03157 0.42658 0.0
C651 C 0.51302 0.04866 0.44222 0.0
C652 C 0.52914 0.0398 0.40502 0.0
C653 C 0.52015 0.06533 0.39858 0.0
C654 C 0.50816 0.08304 0.41424 0.0
H655 H 0.49805 0.12059 0.2667 0.0
H656 H 0.50598 0.12225 0.30775 0.0
C657 C 0.50485 0.07495 0.43594 0.0
C658 C 0.52078 0.07099 0.3749 0.0
H659 H 0.56188 0.1359 0.34262 0.0
C660 C 0.49792 0.03974 0.35713 0.0
C661 C 0.54397 0.10619 0.36969 0.0
C662 C 0.56946 0.14055 0.38815 0.0
C663 C 0.4976 0.04261 0.33426 0.0
C664 C 0.52154 0.07757 0.32897 0.0
C665 C 0.54391 0.10907 0.34674 0.0
C666 C 0.52309 0.08163 0.30501 0.0
C667 C 0.47102 0.00822 0.31602 0.0
C668 C 0.53197 0.05978 0.29011 0.0
C669 C 0.5271 0.05853 0.26675 0.0
C670 C 0.51411 0.0798 0.258 0.0
C671 C 0.50836 0.10417 0.27312 0.0
C672 C 0.51273 0.10501 0.29651 0.0
H673 H 0.44787 0.98712 0.32293 0.0
H674 H 0.4592 0.01552 0.30185 0.0
H675 H 0.48601 0.995 0.30897 0.0
H676 H 0.54092 0.04226 0.29642 0.0
H677 H 0.53183 0.03966 0.25537 0.0
H678 H 0.62026 0.58457 0.78287 0.0
H679 H 0.6218 0.59845 0.74477 0.0
H680 H 0.51746 0.49495 0.71899 0.0
H681 H 0.51487 0.48216 0.75725 0.0
H682 H 0.62591 0.564 0.70725 0.0
H683 H 0.49507 0.5626 0.69158 0.0
H684 H 0.51462 0.56262 0.71936 0.0
H685 H 0.48665 0.51944 0.69834 0.0
C686 C 0.59753 0.565 0.76906 0.0
C687 C 0.56732 0.5324 0.77296 0.0
C688 C 0.59838 0.57298 0.74733 0.0
C689 C 0.56932 0.54822 0.72905 0.0
C690 C 0.53951 0.51525 0.73292 0.0
H691 H 0.53427 0.4918 0.58621 0.0
H692 H 0.53436 0.49904 0.62715 0.0
C693 C 0.53822 0.50773 0.75474 0.0
C694 C 0.57121 0.55557 0.70569 0.0
H695 H 0.51972 0.55351 0.65808 0.0
C696 C 0.60299 0.56251 0.69669 0.0
C697 C 0.54144 0.55394 0.69188 0.0
C698 C 0.50775 0.54966 0.70091 0.0
C699 C 0.60492 0.56576 0.67394 0.0
C700 C 0.57427 0.56181 0.65985 0.0
C701 C 0.54312 0.5564 0.669 0.0
C702 C 0.57249 0.55894 0.63503 0.0
C703 C 0.63895 0.57158 0.66473 0.0
C704 C 0.59338 0.59047 0.62594 0.0
C705 C 0.59327 0.58643 0.60245 0.0
C706 C 0.57261 0.55075 0.58793 0.0
C707 C 0.55083 0.51954 0.59709 0.0
C708 C 0.55071 0.52363 0.62041 0.0
H709 H 0.65951 0.57177 0.67756 0.0
H710 H 0.63104 0.54912 0.64952 0.0
H711 H 0.65233 0.59869 0.65927 0.0
H712 H 0.61022 0.61797 0.63705 0.0
H713 H 0.61022 0.61086 0.59574 0.0
H714 H 0.53298 0.9961 0.55784 0.0
H715 H 0.54396 0.99391 0.59782 0.0
H716 H 0.56834 0.10709 0.61812 0.0
H717 H 0.55699 0.10949 0.57801 0.0
H718 H 0.60865 0.04183 0.63253 0.0
H719 H 0.48432 0.0446 0.65223 0.0
H720 H 0.49047 0.03407 0.62341 0.0
H721 H 0.51494 0.08164 0.63932 0.0
C722 C 0.54053 0.02053 0.57075 0.0
C723 C 0.54362 0.05282 0.56471 0.0
C724 C 0.54701 0.01927 0.5936 0.0
C725 C 0.55648 0.05014 0.61087 0.0
C726 C 0.56052 0.08278 0.60498 0.0
H727 H 0.63615 0.10152 0.75476 0.0
H728 H 0.631 0.09536 0.71343 0.0
C729 C 0.55418 0.08415 0.58207 0.0
C730 C 0.56146 0.04776 0.63503 0.0
H731 H 0.52501 0.04818 0.68324 0.0
C732 C 0.59037 0.04314 0.64364 0.0
C733 C 0.53716 0.04888 0.6493 0.0
C734 C 0.50475 0.05225 0.64063 0.0
C735 C 0.59613 0.04049 0.66642 0.0
C736 C 0.57244 0.04266 0.68084 0.0
C737 C 0.5431 0.0465 0.67208 0.0
C738 C 0.57846 0.04288 0.7054 0.0
C739 C 0.62733 0.03521 0.67489 0.0
C740 C 0.55095 0.01503 0.71451 0.0
C741 C 0.5539 0.01844 0.73811 0.0
C742 C 0.58416 0.05005 0.75289 0.0
C743 C 0.61257 0.07688 0.74368 0.0
C744 C 0.60974 0.07331 0.72011 0.0
H745 H 0.63712 0.02503 0.6606 0.0
H746 H 0.65098 0.06244 0.68478 0.0
H747 H 0.6186 0.01507 0.68632 0.0
H748 H 0.52649 0.99146 0.70338 0.0
H749 H 0.53143 0.99763 0.7448 0.0
H750 H 0.51733 0.55129 0.89155 0.0
H751 H 0.50729 0.55552 0.93062 0.0
H752 H 0.59107 0.52982 0.94922 0.0
H753 H 0.60196 0.52613 0.90987 0.0
H754 H 0.48444 0.50111 0.95582 0.0
H755 H 0.62255 0.62452 0.99687 0.0
H756 H 0.60668 0.61116 0.96639 0.0
H757 H 0.62365 0.58631 0.98032 0.0
C758 C 0.53395 0.54678 0.90387 0.0
C759 C 0.5607 0.53861 0.89751 0.0
C760 C 0.52801 0.5491 0.92625 0.0
C761 C 0.54864 0.54337 0.94287 0.0
C762 C 0.57529 0.53502 0.93671 0.0
H763 H 0.50639 0.50116 0.07563 0.0
H764 H 0.50631 0.4951 0.03469 0.0
C765 C 0.5814 0.5328 0.91421 0.0
C766 C 0.5415 0.54566 0.9665 0.0
H767 H 0.58155 0.59416 0.02137 0.0
C768 C 0.50564 0.52149 0.97016 0.0
C769 C 0.56905 0.57264 0.9851 0.0
C770 C 0.60758 0.6004 0.98205 0.0
C771 C 0.49675 0.52324 0.99202 0.0
C772 C 0.52455 0.54959 0.01067 0.0
C773 C 0.56026 0.57406 0.00698 0.0
C774 C 0.51798 0.5511 0.03441 0.0
C775 C 0.45765 0.49715 0.99494 0.0
C776 C 0.5237 0.5843 0.04772 0.0
C777 C 0.52359 0.58774 0.07113 0.0
C778 C 0.51827 0.55818 0.08153 0.0
C779 C 0.51034 0.52424 0.06793 0.0
C780 C 0.51023 0.52074 0.04456 0.0
H781 H 0.4377 0.48612 0.9786 0.0
H782 H 0.45619 0.47298 0.00107 0.0
H783 H 0.44899 0.51148 0.00772 0.0
H784 H 0.52988 0.60809 0.04017 0.0
H785 H 0.53025 0.61432 0.08133 0.0
H786 H 0.08259 0.60382 0.23974 0.0
H787 H 0.07509 0.59071 0.2777 0.0
H788 H 0.96064 0.55949 0.26322 0.0
H789 H 0.9679 0.57192 0.22496 0.0
H790 H 0.05792 0.62238 0.31192 0.0
H791 H 0.95031 0.47117 0.28706 0.0
H792 H 0.97515 0.49729 0.26686 0.0
H793 H 0.93708 0.50049 0.27541 0.0
C794 C 0.05579 0.59413 0.24462 0.0
C795 C 0.02566 0.58847 0.22927 0.0
C796 C 0.05151 0.58652 0.26631 0.0
C797 C 0.01709 0.57332 0.27318 0.0
C798 C 0.98714 0.56848 0.25807 0.0
H799 H 0.9654 0.55321 0.40906 0.0
H800 H 0.95948 0.5505 0.36784 0.0
C801 C 0.99133 0.57573 0.23625 0.0
C802 C 0.01333 0.56627 0.29653 0.0
H803 H 0.96544 0.49955 0.32654 0.0
C804 C 0.03773 0.59547 0.31506 0.0
C805 C 0.98694 0.53112 0.30065 0.0
C806 C 0.9611 0.4981 0.28145 0.0
C807 C 0.03652 0.59057 0.33753 0.0
C808 C 0.01027 0.55551 0.34162 0.0
C809 C 0.98546 0.52637 0.32324 0.0
C810 C 0.0092 0.54899 0.36506 0.0
C811 C 0.0634 0.62296 0.35682 0.0
C812 C 0.03808 0.54719 0.37673 0.0
C813 C 0.04143 0.54859 0.40013 0.0
C814 C 0.01591 0.5518 0.4122 0.0
C815 C 0.98524 0.55041 0.40012 0.0
C816 C 0.98194 0.54906 0.37664 0.0
H817 H 0.07742 0.64987 0.35113 0.0
H818 H 0.04895 0.62578 0.37079 0.0
H819 H 0.08493 0.61764 0.36387 0.0
H820 H 0.05923 0.54689 0.368 0.0
H821 H 0.06522 0.54944 0.40905 0.0
loop_
_geom_bond_atom_site_label_1
_geom_bond_atom_site_label_2
_geom_bond_distance
_geom_bond_site_symmetry_2
_ccdc_geom_bond_type
Zn0 O6 1.969 . S
Zn0 O7 1.965 . S
Zn0 O11 2.024 . S
Zn0 O16 1.969 . S
Zn1 O8 1.969 . S
Zn1 O14 1.969 . S
Zn1 O15 1.947 1_655 S
Zn1 O17 2.024 . S
C2 O3 1.229 . S
C2 O11 1.058 . S
O3 C2 1.229 . S
C4 O5 1.229 . S
C4 O17 1.058 . S
O5 C4 1.229 . S
O6 Zn0 1.969 . S
O6 C9 1.267 . S
O7 Zn0 1.965 . S
O7 C18 1.260 . S
O8 Zn1 1.969 . S
O8 C18 1.258 1_655 S
C9 O6 1.267 . S
C9 O10 1.228 . S
O10 C9 1.228 . S
O11 Zn0 2.024 . S
O11 C2 1.058 . S
C12 O13 1.228 . S
C12 O14 1.267 . S
O13 C12 1.228 . S
O14 Zn1 1.969 . S
O14 C12 1.267 . S
O15 Zn1 1.947 1_455 S
O15 C19 1.268 . S
O16 Zn0 1.969 . S
O16 C19 1.258 . S
O17 Zn1 2.024 . S
O17 C4 1.058 . S
C18 O7 1.260 . S
C18 O8 1.258 1_455 S
C19 O15 1.268 . S
C19 O16 1.258 . S
Zn20 O26 1.969 . S
Zn20 O27 1.965 . S
Zn20 O31 2.024 . S
Zn20 O36 1.969 . S
Zn21 O28 1.969 1_565 S
Zn21 O34 1.969 . S
Zn21 O35 1.965 1_565 S
Zn21 O37 2.024 . S
C22 O23 1.229 . S
C22 O31 1.058 . S
O23 C22 1.229 . S
C24 O25 1.229 . S
C24 O37 1.058 . S
O25 C24 1.229 . S
O26 Zn20 1.969 . S
O26 C29 1.267 . S
O27 Zn20 1.965 . S
O27 C38 1.260 . S
O28 Zn21 1.969 1_545 S
O28 C38 1.258 . S
C29 O26 1.267 . S
C29 O30 1.228 . S
O30 C29 1.228 . S
O31 Zn20 2.024 . S
O31 C22 1.058 . S
C32 O33 1.228 . S
C32 O34 1.267 . S
O33 C32 1.228 . S
O34 Zn21 1.969 . S
O34 C32 1.267 . S
O35 Zn21 1.965 1_545 S
O35 C39 1.260 . S
O36 Zn20 1.969 . S
O36 C39 1.258 . S
O37 Zn21 2.024 . S
O37 C24 1.058 . S
C38 O27 1.260 . S
C38 O28 1.258 . S
C39 O35 1.260 . S
C39 O36 1.258 . S
Zn40 O46 1.969 . S
Zn40 O47 1.965 . S
Zn40 O51 2.024 . S
Zn40 O56 1.969 . S
Zn41 O48 1.969 . S
Zn41 O54 1.969 . S
Zn41 O55 1.965 . S
Zn41 O57 2.024 . S
C42 O43 1.229 . S
C42 O51 1.058 . S
O43 C42 1.229 . S
C44 O45 1.229 . S
C44 O57 1.058 . S
O45 C44 1.229 . S
O46 Zn40 1.969 . S
O46 C49 1.267 . S
O47 Zn40 1.965 . S
O47 C58 1.260 . S
O48 Zn41 1.969 . S
O48 C58 1.258 . S
C49 O46 1.267 . S
C49 O50 1.228 . S
O50 C49 1.228 . S
O51 Zn40 2.024 . S
O51 C42 1.058 . S
C52 O53 1.228 . S
C52 O54 1.267 . S
O53 C52 1.228 . S
O54 Zn41 1.969 . S
O54 C52 1.267 . S
O55 Zn41 1.965 . S
O55 C59 1.260 . S
O56 Zn40 1.969 . S
O56 C59 1.258 . S
O57 Zn41 2.024 . S
O57 C44 1.058 . S
C58 O47 1.260 . S
C58 O48 1.258 . S
C59 O55 1.260 . S
C59 O56 1.258 . S
H60 C61 0.949 . S
C61 H60 0.949 . S
C61 C62 1.395 . S
C61 C63 1.391 . S
C62 C61 1.395 . S
C62 C65 1.390 . S
C63 C61 1.391 . S
C63 C67 1.387 . S
C63 C68 1.491 . S
H64 C65 0.950 . S
C65 C62 1.390 . S
C65 H64 0.950 . S
C65 C66 1.378 . S
C66 C65 1.378 . S
C66 C67 1.409 . S
C67 C63 1.387 . S
C67 C66 1.409 . S
C67 H69 0.951 . S
C68 C63 1.491 . S
C68 C70 1.382 . S
C68 C72 1.404 . S
H69 C67 0.951 . S
C70 C68 1.382 . S
C70 C71 1.390 . S
C70 H75 0.949 . S
C71 C70 1.390 . S
C71 C76 1.399 . S
C72 C68 1.404 . S
C72 H73 0.950 . S
C72 C74 1.375 . S
H73 C72 0.950 . S
C74 C72 1.375 . S
C74 C76 1.382 . S
C74 H78 0.950 . S
H75 C70 0.949 . S
C76 C71 1.399 . S
C76 C74 1.382 . S
C76 H77 0.952 . S
H77 C76 0.952 . S
H78 C74 0.950 . S
H79 C80 0.949 . S
C80 H79 0.949 . S
C80 C81 1.395 . S
C80 C82 1.391 . S
C81 C80 1.395 . S
C81 C84 1.390 . S
C82 C80 1.391 . S
C82 C86 1.387 . S
C82 C87 1.491 . S
H83 C84 0.950 . S
C84 C81 1.390 . S
C84 H83 0.950 . S
C84 C85 1.378 . S
C85 C84 1.378 . S
C85 C86 1.409 . S
C86 C82 1.387 . S
C86 C85 1.409 . S
C86 H88 0.951 . S
C87 C82 1.491 . S
C87 C89 1.382 . S
C87 C91 1.404 . S
H88 C86 0.951 . S
C89 C87 1.382 . S
C89 C90 1.390 . S
C89 H94 0.949 . S
C90 C89 1.390 . S
C90 C95 1.399 . S
C91 C87 1.404 . S
C91 H92 0.950 . S
C91 C93 1.375 . S
H92 C91 0.950 . S
C93 C91 1.375 . S
C93 C95 1.382 . S
C93 H97 0.950 . S
H94 C89 0.949 . S
C95 C90 1.399 . S
C95 C93 1.382 . S
C95 H96 0.952 . S
H96 C95 0.952 . S
H97 C93 0.950 . S
H98 C99 0.949 . S
C99 H98 0.949 . S
C99 C100 1.395 . S
C99 C101 1.391 . S
C100 C99 1.395 . S
C100 C103 1.390 . S
C101 C99 1.391 . S
C101 C105 1.387 . S
C101 C106 1.491 . S
H102 C103 0.950 1_655 S
C103 C100 1.390 . S
C103 H102 0.950 1_455 S
C103 C104 1.378 . S
C104 C103 1.378 . S
C104 C105 1.409 . S
C105 C101 1.387 . S
C105 C104 1.409 . S
C105 H107 0.951 . S
C106 C101 1.491 . S
C106 C108 1.382 . S
C106 C110 1.404 . S
H107 C105 0.951 . S
C108 C106 1.382 . S
C108 C109 1.390 . S
C108 H113 0.949 . S
C109 C108 1.390 . S
C109 C114 1.399 . S
C110 C106 1.404 . S
C110 H111 0.950 . S
C110 C112 1.375 . S
H111 C110 0.950 . S
C112 C110 1.375 . S
C112 C114 1.382 . S
C112 H116 0.950 . S
H113 C108 0.949 . S
C114 C109 1.399 . S
C114 C112 1.382 . S
C114 H115 0.952 . S
H115 C114 0.952 . S
H116 C112 0.950 . S
H117 C118 0.949 1_655 S
C118 H117 0.949 1_455 S
C118 C119 1.395 . S
C118 C120 1.391 . S
C119 C118 1.395 . S
C119 C122 1.390 . S
C120 C118 1.391 . S
C120 C124 1.387 . S
C120 C125 1.491 1_455 S
H121 C122 0.950 . S
C122 C119 1.390 . S
C122 H121 0.950 . S
C122 C123 1.378 . S
C123 C122 1.378 . S
C123 C124 1.409 . S
C124 C120 1.387 . S
C124 C123 1.409 . S
C124 H126 0.951 . S
C125 C120 1.491 1_655 S
C125 C127 1.382 . S
C125 C129 1.404 . S
H126 C124 0.951 . S
C127 C125 1.382 . S
C127 C128 1.390 . S
C127 H132 0.949 . S
C128 C127 1.390 . S
C128 C133 1.399 . S
C129 C125 1.404 . S
C129 H130 0.950 1_655 S
C129 C131 1.375 . S
H130 C129 0.950 1_455 S
C131 C129 1.375 . S
C131 C133 1.382 . S
C131 H135 0.950 . S
H132 C127 0.949 . S
C133 C128 1.399 . S
C133 C131 1.382 . S
C133 H134 0.952 . S
H134 C133 0.952 . S
H135 C131 0.950 . S
H136 C137 0.949 . S
C137 H136 0.949 . S
C137 C138 1.395 . S
C137 C139 1.391 . S
C138 C137 1.395 . S
C138 C141 1.390 . S
C139 C137 1.391 . S
C139 C143 1.387 . S
C139 C144 1.491 . S
H140 C141 0.950 . S
C141 C138 1.390 . S
C141 H140 0.950 . S
C141 C142 1.378 . S
C142 C141 1.378 . S
C142 C143 1.409 . S
C143 C139 1.387 . S
C143 C142 1.409 . S
C143 H145 0.951 . S
C144 C139 1.491 . S
C144 C146 1.382 1_545 S
C144 C148 1.404 . S
H145 C143 0.951 . S
C146 C144 1.382 1_565 S
C146 C147 1.390 . S
C146 H151 0.949 . S
C147 C146 1.390 . S
C147 C152 1.399 . S
C148 C144 1.404 . S
C148 H149 0.950 . S
C148 C150 1.375 1_545 S
H149 C148 0.950 . S
C150 C148 1.375 1_565 S
C150 C152 1.382 . S
C150 H154 0.950 . S
H151 C146 0.949 . S
C152 C147 1.399 . S
C152 C150 1.382 . S
C152 H153 0.952 . S
H153 C152 0.952 . S
H154 C150 0.950 . S
H155 C156 0.949 . S
C156 H155 0.949 . S
C156 C157 1.395 . S
C156 C158 1.391 . S
C157 C156 1.395 . S
C157 C160 1.390 . S
C158 C156 1.391 . S
C158 C162 1.387 . S
C158 C163 1.491 . S
H159 C160 0.950 . S
C160 C157 1.390 . S
C160 H159 0.950 . S
C160 C161 1.378 . S
C161 C160 1.378 . S
C161 C162 1.409 . S
C162 C158 1.387 . S
C162 C161 1.409 . S
C162 H164 0.951 . S
C163 C158 1.491 . S
C163 C165 1.382 . S
C163 C167 1.404 . S
H164 C162 0.951 . S
C165 C163 1.382 . S
C165 C166 1.390 . S
C165 H170 0.949 . S
C166 C165 1.390 . S
C166 C171 1.399 . S
C167 C163 1.404 . S
C167 H168 0.950 . S
C167 C169 1.375 . S
H168 C167 0.950 . S
C169 C167 1.375 . S
C169 C171 1.382 . S
C169 H173 0.950 . S
H170 C165 0.949 . S
C171 C166 1.399 . S
C171 C169 1.382 . S
C171 H172 0.952 . S
H172 C171 0.952 . S
H173 C169 0.950 . S
H174 C182 0.929 . S
H175 C184 0.930 . S
H176 C186 0.930 . S
H177 C189 0.929 . S
H178 C192 0.930 . S
H179 C194 0.960 . S
H180 C194 0.960 . S
H181 C194 0.960 . S
C182 H174 0.929 . S
C182 C183 1.377 . S
C182 C184 1.384 . S
C183 C182 1.377 . S
C183 C189 1.390 . S
C184 H175 0.930 . S
C184 C182 1.384 . S
C184 C185 1.372 . S
C185 C184 1.372 . S
C185 C186 1.400 . S
C185 C190 1.490 . S
C186 H176 0.930 . S
C186 C185 1.400 . S
C186 C189 1.386 . S
H187 C203 0.930 . S
H188 C204 0.931 . S
C189 H177 0.929 . S
C189 C183 1.390 . S
C189 C186 1.386 . S
C190 C185 1.490 . S
C190 C192 1.395 . S
C190 C193 1.403 . S
H191 C197 0.930 . S
C192 H178 0.930 . S
C192 C190 1.395 . S
C192 C195 1.403 . S
C193 C190 1.403 . S
C193 C194 1.524 . S
C193 C197 1.400 . S
C194 H179 0.960 . S
C194 H180 0.960 . S
C194 H181 0.960 . S
C194 C193 1.524 . S
C195 C192 1.403 . S
C195 C196 1.392 . S
C195 C199 1.495 . S
C196 C195 1.392 . S
C196 C197 1.385 . S
C196 C198 1.478 . S
C197 H191 0.930 . S
C197 C193 1.400 . S
C197 C196 1.385 . S
C198 C196 1.478 . S
C198 C200 1.381 . S
C198 C204 1.383 . S
C199 C195 1.495 . S
C199 H205 0.959 . S
C199 H206 0.961 . S
C199 H207 0.960 . S
C200 C198 1.381 . S
C200 C201 1.394 . S
C200 H208 0.930 . S
C201 C200 1.394 . S
C201 C202 1.383 . S
C201 H209 0.929 . S
C202 C201 1.383 . S
C202 C203 1.377 . S
C203 H187 0.930 . S
C203 C202 1.377 . S
C203 C204 1.379 . S
C204 H188 0.931 . S
C204 C198 1.383 . S
C204 C203 1.379 . S
H205 C199 0.959 . S
H206 C199 0.961 . S
H207 C199 0.960 . S
H208 C200 0.930 . S
H209 C201 0.929 . S
H210 C218 0.929 . S
H211 C220 0.930 . S
H212 C222 0.930 . S
H213 C225 0.929 . S
H214 C228 0.930 . S
H215 C230 0.960 . S
H216 C230 0.960 . S
H217 C230 0.960 . S
C218 H210 0.929 . S
C218 C219 1.377 . S
C218 C220 1.384 . S
C219 C218 1.377 . S
C219 C225 1.390 . S
C220 H211 0.930 . S
C220 C218 1.384 . S
C220 C221 1.372 . S
C221 C220 1.372 . S
C221 C222 1.400 . S
C221 C226 1.490 . S
C222 H212 0.930 . S
C222 C221 1.400 . S
C222 C225 1.386 . S
H223 C239 0.930 . S
H224 C240 0.931 . S
C225 H213 0.929 . S
C225 C219 1.390 . S
C225 C222 1.386 . S
C226 C221 1.490 . S
C226 C228 1.395 . S
C226 C229 1.403 . S
H227 C233 0.930 . S
C228 H214 0.930 . S
C228 C226 1.395 . S
C228 C231 1.403 . S
C229 C226 1.403 . S
C229 C230 1.524 . S
C229 C233 1.400 . S
C230 H215 0.960 . S
C230 H216 0.960 . S
C230 H217 0.960 . S
C230 C229 1.524 . S
C231 C228 1.403 . S
C231 C232 1.392 . S
C231 C235 1.495 . S
C232 C231 1.392 . S
C232 C233 1.385 . S
C232 C234 1.478 . S
C233 H227 0.930 . S
C233 C229 1.400 . S
C233 C232 1.385 . S
C234 C232 1.478 . S
C234 C236 1.381 . S
C234 C240 1.383 . S
C235 C231 1.495 . S
C235 H241 0.959 . S
C235 H242 0.961 . S
C235 H243 0.960 . S
C236 C234 1.381 . S
C236 C237 1.394 . S
C236 H244 0.930 . S
C237 C236 1.394 . S
C237 C238 1.383 . S
C237 H245 0.929 . S
C238 C237 1.383 . S
C238 C239 1.377 . S
C239 H223 0.930 . S
C239 C238 1.377 . S
C239 C240 1.379 . S
C240 H224 0.931 . S
C240 C234 1.383 . S
C240 C239 1.379 . S
H241 C235 0.959 . S
H242 C235 0.961 . S
H243 C235 0.960 . S
H244 C236 0.930 . S
H245 C237 0.929 . S
H246 C254 0.929 . S
H247 C256 0.930 . S
H248 C258 0.930 . S
H249 C261 0.929 . S
H250 C264 0.930 . S
H251 C266 0.960 . S
H252 C266 0.960 . S
H253 C266 0.960 . S
C254 H246 0.929 . S
C254 C255 1.377 . S
C254 C256 1.384 . S
C255 C254 1.377 . S
C255 C261 1.390 . S
C256 H247 0.930 . S
C256 C254 1.384 . S
C256 C257 1.372 . S
C257 C256 1.372 . S
C257 C258 1.400 . S
C257 C262 1.490 . S
C258 H248 0.930 . S
C258 C257 1.400 . S
C258 C261 1.386 . S
H259 C275 0.930 . S
H260 C276 0.931 . S
C261 H249 0.929 . S
C261 C255 1.390 . S
C261 C258 1.386 . S
C262 C257 1.490 . S
C262 C264 1.395 . S
C262 C265 1.403 . S
H263 C269 0.930 . S
C264 H250 0.930 . S
C264 C262 1.395 . S
C264 C267 1.403 . S
C265 C262 1.403 . S
C265 C266 1.524 . S
C265 C269 1.400 . S
C266 H251 0.960 . S
C266 H252 0.960 . S
C266 H253 0.960 . S
C266 C265 1.524 . S
C267 C264 1.403 . S
C267 C268 1.392 . S
C267 C271 1.495 . S
C268 C267 1.392 . S
C268 C269 1.385 . S
C268 C270 1.478 . S
C269 H263 0.930 . S
C269 C265 1.400 . S
C269 C268 1.385 . S
C270 C268 1.478 . S
C270 C272 1.381 . S
C270 C276 1.383 . S
C271 C267 1.495 . S
C271 H277 0.959 . S
C271 H278 0.961 . S
C271 H279 0.960 . S
C272 C270 1.381 . S
C272 C273 1.394 . S
C272 H280 0.930 . S
C273 C272 1.394 . S
C273 C274 1.383 . S
C273 H281 0.929 . S
C274 C273 1.383 . S
C274 C275 1.377 . S
C275 H259 0.930 . S
C275 C274 1.377 . S
C275 C276 1.379 . S
C276 H260 0.931 . S
C276 C270 1.383 . S
C276 C275 1.379 . S
H277 C271 0.959 . S
H278 C271 0.961 . S
H279 C271 0.960 . S
H280 C272 0.930 . S
H281 C273 0.929 . S
H282 C290 0.929 . S
H283 C292 0.930 . S
H284 C294 0.930 . S
H285 C297 0.929 . S
H286 C300 0.930 . S
H287 C302 0.960 . S
H288 C302 0.960 . S
H289 C302 0.960 . S
C290 H282 0.929 . S
C290 C291 1.377 . S
C290 C292 1.384 . S
C291 C290 1.377 . S
C291 C297 1.390 . S
C292 H283 0.930 . S
C292 C290 1.384 . S
C292 C293 1.372 . S
C293 C292 1.372 . S
C293 C294 1.400 . S
C293 C298 1.490 . S
C294 H284 0.930 . S
C294 C293 1.400 . S
C294 C297 1.386 . S
H295 C311 0.930 . S
H296 C312 0.931 . S
C297 H285 0.929 . S
C297 C291 1.390 . S
C297 C294 1.386 . S
C298 C293 1.490 . S
C298 C300 1.395 . S
C298 C301 1.403 . S
H299 C305 0.930 . S
C300 H286 0.930 . S
C300 C298 1.395 . S
C300 C303 1.403 . S
C301 C298 1.403 . S
C301 C302 1.524 . S
C301 C305 1.400 . S
C302 H287 0.960 . S
C302 H288 0.960 . S
C302 H289 0.960 . S
C302 C301 1.524 . S
C303 C300 1.403 . S
C303 C304 1.392 . S
C303 C307 1.495 . S
C304 C303 1.392 . S
C304 C305 1.385 . S
C304 C306 1.478 . S
C305 H299 0.930 . S
C305 C301 1.400 . S
C305 C304 1.385 . S
C306 C304 1.478 . S
C306 C308 1.381 . S
C306 C312 1.383 . S
C307 C303 1.495 . S
C307 H313 0.959 . S
C307 H314 0.961 . S
C307 H315 0.960 . S
C308 C306 1.381 . S
C308 C309 1.394 . S
C308 H316 0.930 . S
C309 C308 1.394 . S
C309 C310 1.383 . S
C309 H317 0.929 . S
C310 C309 1.383 . S
C310 C311 1.377 . S
C311 H295 0.930 . S
C311 C310 1.377 . S
C311 C312 1.379 . S
C312 H296 0.931 . S
C312 C306 1.383 . S
C312 C311 1.379 . S
H313 C307 0.959 . S
H314 C307 0.961 . S
H315 C307 0.960 . S
H316 C308 0.930 . S
H317 C309 0.929 . S
H318 C326 0.929 . S
H319 C328 0.930 . S
H320 C330 0.930 . S
H321 C333 0.929 . S
H322 C336 0.930 . S
H323 C338 0.960 . S
H324 C338 0.960 . S
H325 C338 0.960 . S
C326 H318 0.929 . S
C326 C327 1.377 . S
C326 C328 1.384 . S
C327 C326 1.377 . S
C327 C333 1.390 . S
C328 H319 0.930 . S
C328 C326 1.384 . S
C328 C329 1.372 . S
C329 C328 1.372 . S
C329 C330 1.400 . S
C329 C334 1.490 . S
C330 H320 0.930 . S
C330 C329 1.400 . S
C330 C333 1.386 . S
H331 C347 0.930 . S
H332 C348 0.931 . S
C333 H321 0.929 . S
C333 C327 1.390 . S
C333 C330 1.386 . S
C334 C329 1.490 . S
C334 C336 1.395 . S
C334 C337 1.403 . S
H335 C341 0.930 . S
C336 H322 0.930 . S
C336 C334 1.395 . S
C336 C339 1.403 . S
C337 C334 1.403 . S
C337 C338 1.524 . S
C337 C341 1.400 . S
C338 H323 0.960 . S
C338 H324 0.960 . S
C338 H325 0.960 . S
C338 C337 1.524 . S
C339 C336 1.403 . S
C339 C340 1.392 . S
C339 C343 1.495 . S
C340 C339 1.392 . S
C340 C341 1.385 . S
C340 C342 1.478 . S
C341 H335 0.930 . S
C341 C337 1.400 . S
C341 C340 1.385 . S
C342 C340 1.478 . S
C342 C344 1.381 . S
C342 C348 1.383 . S
C343 C339 1.495 . S
C343 H349 0.959 . S
C343 H350 0.961 . S
C343 H351 0.960 . S
C344 C342 1.381 . S
C344 C345 1.394 . S
C344 H352 0.930 . S
C345 C344 1.394 . S
C345 C346 1.383 . S
C345 H353 0.929 . S
C346 C345 1.383 . S
C346 C347 1.377 . S
C347 H331 0.930 . S
C347 C346 1.377 . S
C347 C348 1.379 . S
C348 H332 0.931 . S
C348 C342 1.383 . S
C348 C347 1.379 . S
H349 C343 0.959 . S
H350 C343 0.961 . S
H351 C343 0.960 . S
H352 C344 0.930 . S
H353 C345 0.929 . S
H354 C362 0.929 . S
H355 C364 0.930 . S
H356 C366 0.930 . S
H357 C369 0.929 . S
H358 C372 0.930 . S
H359 C374 0.960 . S
H360 C374 0.960 . S
H361 C374 0.960 . S
C362 H354 0.929 . S
C362 C363 1.377 . S
C362 C364 1.384 . S
C363 C362 1.377 . S
C363 C369 1.390 . S
C364 H355 0.930 . S
C364 C362 1.384 . S
C364 C365 1.372 . S
C365 C364 1.372 . S
C365 C366 1.400 . S
C365 C370 1.490 . S
C366 H356 0.930 . S
C366 C365 1.400 . S
C366 C369 1.386 . S
H367 C383 0.930 . S
H368 C384 0.931 . S
C369 H357 0.929 . S
C369 C363 1.390 . S
C369 C366 1.386 . S
C370 C365 1.490 . S
C370 C372 1.395 . S
C370 C373 1.403 . S
H371 C377 0.930 . S
C372 H358 0.930 . S
C372 C370 1.395 . S
C372 C375 1.403 . S
C373 C370 1.403 . S
C373 C374 1.524 . S
C373 C377 1.400 . S
C374 H359 0.960 . S
C374 H360 0.960 . S
C374 H361 0.960 . S
C374 C373 1.524 . S
C375 C372 1.403 . S
C375 C376 1.392 . S
C375 C379 1.495 . S
C376 C375 1.392 . S
C376 C377 1.385 . S
C376 C378 1.478 . S
C377 H371 0.930 . S
C377 C373 1.400 . S
C377 C376 1.385 . S
C378 C376 1.478 . S
C378 C380 1.381 . S
C378 C384 1.383 . S
C379 C375 1.495 . S
C379 H385 0.959 . S
C379 H386 0.961 . S
C379 H387 0.960 . S
C380 C378 1.381 . S
C380 C381 1.394 . S
C380 H388 0.930 . S
C381 C380 1.394 . S
C381 C382 1.383 . S
C381 H389 0.929 . S
C382 C381 1.383 . S
C382 C383 1.377 . S
C383 H367 0.930 . S
C383 C382 1.377 . S
C383 C384 1.379 . S
C384 H368 0.931 . S
C384 C378 1.383 . S
C384 C383 1.379 . S
H385 C379 0.959 . S
H386 C379 0.961 . S
H387 C379 0.960 . S
H388 C380 0.930 . S
H389 C381 0.929 . S
H390 C398 0.929 . S
H391 C400 0.930 . S
H392 C402 0.930 . S
H393 C405 0.929 . S
H394 C408 0.930 . S
H395 C410 0.960 . S
H396 C410 0.960 . S
H397 C410 0.960 . S
C398 H390 0.929 . S
C398 C399 1.377 . S
C398 C400 1.384 . S
C399 C398 1.377 . S
C399 C405 1.390 . S
C400 H391 0.930 . S
C400 C398 1.384 . S
C400 C401 1.372 . S
C401 C400 1.372 . S
C401 C402 1.400 . S
C401 C406 1.490 . S
C402 H392 0.930 . S
C402 C401 1.400 . S
C402 C405 1.386 . S
H403 C419 0.930 . S
H404 C420 0.931 . S
C405 H393 0.929 . S
C405 C399 1.390 . S
C405 C402 1.386 . S
C406 C401 1.490 . S
C406 C408 1.395 . S
C406 C409 1.403 . S
H407 C413 0.930 . S
C408 H394 0.930 . S
C408 C406 1.395 . S
C408 C411 1.403 . S
C409 C406 1.403 . S
C409 C410 1.524 . S
C409 C413 1.400 . S
C410 H395 0.960 . S
C410 H396 0.960 . S
C410 H397 0.960 . S
C410 C409 1.524 . S
C411 C408 1.403 . S
C411 C412 1.392 . S
C411 C415 1.495 . S
C412 C411 1.392 . S
C412 C413 1.385 . S
C412 C414 1.478 . S
C413 H407 0.930 . S
C413 C409 1.400 . S
C413 C412 1.385 . S
C414 C412 1.478 . S
C414 C416 1.381 . S
C414 C420 1.383 . S
C415 C411 1.495 . S
C415 H421 0.959 . S
C415 H422 0.961 . S
C415 H423 0.960 . S
C416 C414 1.381 . S
C416 C417 1.394 . S
C416 H424 0.930 . S
C417 C416 1.394 . S
C417 C418 1.383 . S
C417 H425 0.929 . S
C418 C417 1.383 . S
C418 C419 1.377 . S
C419 H403 0.930 . S
C419 C418 1.377 . S
C419 C420 1.379 . S
C420 H404 0.931 . S
C420 C414 1.383 . S
C420 C419 1.379 . S
H421 C415 0.959 . S
H422 C415 0.961 . S
H423 C415 0.960 . S
H424 C416 0.930 . S
H425 C417 0.929 . S
H426 C434 0.929 . S
H427 C436 0.930 . S
H428 C438 0.930 . S
H429 C441 0.929 . S
H430 C444 0.930 . S
H431 C446 0.960 . S
H432 C446 0.960 . S
H433 C446 0.960 . S
C434 H426 0.929 . S
C434 C435 1.377 . S
C434 C436 1.384 . S
C435 C434 1.377 . S
C435 C441 1.390 . S
C436 H427 0.930 . S
C436 C434 1.384 . S
C436 C437 1.372 . S
C437 C436 1.372 . S
C437 C438 1.400 . S
C437 C442 1.490 . S
C438 H428 0.930 . S
C438 C437 1.400 . S
C438 C441 1.386 . S
H439 C455 0.930 . S
H440 C456 0.931 . S
C441 H429 0.929 . S
C441 C435 1.390 . S
C441 C438 1.386 . S
C442 C437 1.490 . S
C442 C444 1.395 . S
C442 C445 1.403 . S
H443 C449 0.930 . S
C444 H430 0.930 . S
C444 C442 1.395 . S
C444 C447 1.403 . S
C445 C442 1.403 . S
C445 C446 1.524 . S
C445 C449 1.400 . S
C446 H431 0.960 . S
C446 H432 0.960 . S
C446 H433 0.960 . S
C446 C445 1.524 . S
C447 C444 1.403 . S
C447 C448 1.392 . S
C447 C451 1.495 . S
C448 C447 1.392 . S
C448 C449 1.385 . S
C448 C450 1.478 . S
C449 H443 0.930 . S
C449 C445 1.400 . S
C449 C448 1.385 . S
C450 C448 1.478 . S
C450 C452 1.381 . S
C450 C456 1.383 . S
C451 C447 1.495 . S
C451 H457 0.959 . S
C451 H458 0.961 . S
C451 H459 0.960 . S
C452 C450 1.381 . S
C452 C453 1.394 . S
C452 H460 0.930 . S
C453 C452 1.394 . S
C453 C454 1.383 . S
C453 H461 0.929 . S
C454 C453 1.383 . S
C454 C455 1.377 . S
C455 H439 0.930 . S
C455 C454 1.377 . S
C455 C456 1.379 . S
C456 H440 0.931 . S
C456 C450 1.383 . S
C456 C455 1.379 . S
H457 C451 0.959 . S
H458 C451 0.961 . S
H459 C451 0.960 . S
H460 C452 0.930 . S
H461 C453 0.929 . S
H462 C470 0.929 . S
H463 C472 0.930 . S
H464 C474 0.930 . S
H465 C477 0.929 . S
H466 C480 0.930 . S
H467 C482 0.960 . S
H468 C482 0.960 . S
H469 C482 0.960 . S
C470 H462 0.929 . S
C470 C471 1.377 . S
C470 C472 1.384 . S
C471 C470 1.377 . S
C471 C477 1.390 . S
C472 H463 0.930 . S
C472 C470 1.384 . S
C472 C473 1.372 . S
C473 C472 1.372 . S
C473 C474 1.400 . S
C473 C478 1.490 . S
C474 H464 0.930 . S
C474 C473 1.400 . S
C474 C477 1.386 . S
H475 C491 0.930 1_545 S
H476 C492 0.931 . S
C477 H465 0.929 . S
C477 C471 1.390 . S
C477 C474 1.386 . S
C478 C473 1.490 . S
C478 C480 1.395 . S
C478 C481 1.403 . S
H479 C485 0.930 . S
C480 H466 0.930 . S
C480 C478 1.395 . S
C480 C483 1.403 . S
C481 C478 1.403 . S
C481 C482 1.524 . S
C481 C485 1.400 . S
C482 H467 0.960 . S
C482 H468 0.960 . S
C482 H469 0.960 . S
C482 C481 1.524 . S
C483 C480 1.403 . S
C483 C484 1.392 . S
C483 C487 1.495 . S
C484 C483 1.392 . S
C484 C485 1.385 . S
C484 C486 1.478 . S
C485 H479 0.930 . S
C485 C481 1.400 . S
C485 C484 1.385 . S
C486 C484 1.478 . S
C486 C488 1.381 . S
C486 C492 1.383 . S
C487 C483 1.495 . S
C487 H493 0.959 . S
C487 H494 0.961 . S
C487 H495 0.960 . S
C488 C486 1.381 . S
C488 C489 1.394 . S
C488 H496 0.930 . S
C489 C488 1.394 . S
C489 C490 1.383 . S
C489 H497 0.929 . S
C490 C489 1.383 . S
C490 C491 1.377 . S
C491 H475 0.930 1_565 S
C491 C490 1.377 . S
C491 C492 1.379 . S
C492 H476 0.931 . S
C492 C486 1.383 . S
C492 C491 1.379 . S
H493 C487 0.959 . S
H494 C487 0.961 . S
H495 C487 0.960 . S
H496 C488 0.930 . S
H497 C489 0.929 . S
H498 C506 0.929 . S
H499 C508 0.930 . S
H500 C510 0.930 . S
H501 C513 0.929 . S
H502 C516 0.930 . S
H503 C518 0.960 . S
H504 C518 0.960 . S
H505 C518 0.960 . S
C506 H498 0.929 . S
C506 C507 1.377 . S
C506 C508 1.384 . S
C507 C506 1.377 . S
C507 C513 1.390 . S
C508 H499 0.930 . S
C508 C506 1.384 . S
C508 C509 1.372 . S
C509 C508 1.372 . S
C509 C510 1.400 . S
C509 C514 1.490 . S
C510 H500 0.930 . S
C510 C509 1.400 . S
C510 C513 1.386 . S
H511 C527 0.930 . S
H512 C528 0.931 . S
C513 H501 0.929 . S
C513 C507 1.390 . S
C513 C510 1.386 . S
C514 C509 1.490 . S
C514 C516 1.395 . S
C514 C517 1.403 . S
H515 C521 0.930 . S
C516 H502 0.930 . S
C516 C514 1.395 . S
C516 C519 1.403 . S
C517 C514 1.403 . S
C517 C518 1.524 . S
C517 C521 1.400 . S
C518 H503 0.960 . S
C518 H504 0.960 . S
C518 H505 0.960 . S
C518 C517 1.524 . S
C519 C516 1.403 . S
C519 C520 1.392 . S
C519 C523 1.495 . S
C520 C519 1.392 . S
C520 C521 1.385 . S
C520 C522 1.478 . S
C521 H515 0.930 . S
C521 C517 1.400 . S
C521 C520 1.385 . S
C522 C520 1.478 . S
C522 C524 1.381 . S
C522 C528 1.383 . S
C523 C519 1.495 . S
C523 H529 0.959 . S
C523 H530 0.961 . S
C523 H531 0.960 . S
C524 C522 1.381 . S
C524 C525 1.394 . S
C524 H532 0.930 . S
C525 C524 1.394 . S
C525 C526 1.383 . S
C525 H533 0.929 . S
C526 C525 1.383 . S
C526 C527 1.377 . S
C527 H511 0.930 . S
C527 C526 1.377 . S
C527 C528 1.379 . S
C528 H512 0.931 . S
C528 C522 1.383 . S
C528 C527 1.379 . S
H529 C523 0.959 . S
H530 C523 0.961 . S
H531 C523 0.960 . S
H532 C524 0.930 . S
H533 C525 0.929 . S
H534 C542 0.929 . S
H535 C544 0.930 . S
H536 C546 0.930 . S
H537 C549 0.929 . S
H538 C552 0.930 . S
H539 C554 0.960 . S
H540 C554 0.960 . S
H541 C554 0.960 . S
C542 H534 0.929 . S
C542 C543 1.377 . S
C542 C544 1.384 . S
C543 C542 1.377 . S
C543 C549 1.390 . S
C544 H535 0.930 . S
C544 C542 1.384 . S
C544 C545 1.372 . S
C545 C544 1.372 . S
C545 C546 1.400 . S
C545 C550 1.490 . S
C546 H536 0.930 . S
C546 C545 1.400 . S
C546 C549 1.386 . S
H547 C563 0.930 . S
H548 C564 0.931 . S
C549 H537 0.929 . S
C549 C543 1.390 . S
C549 C546 1.386 . S
C550 C545 1.490 . S
C550 C552 1.395 . S
C550 C553 1.403 . S
H551 C557 0.930 . S
C552 H538 0.930 . S
C552 C550 1.395 . S
C552 C555 1.403 . S
C553 C550 1.403 . S
C553 C554 1.524 . S
C553 C557 1.400 . S
C554 H539 0.960 . S
C554 H540 0.960 . S
C554 H541 0.960 . S
C554 C553 1.524 . S
C555 C552 1.403 . S
C555 C556 1.392 . S
C555 C559 1.495 . S
C556 C555 1.392 . S
C556 C557 1.385 . S
C556 C558 1.478 . S
C557 H551 0.930 . S
C557 C553 1.400 . S
C557 C556 1.385 . S
C558 C556 1.478 . S
C558 C560 1.381 . S
C558 C564 1.383 . S
C559 C555 1.495 . S
C559 H565 0.959 . S
C559 H566 0.961 . S
C559 H567 0.960 . S
C560 C558 1.381 . S
C560 C561 1.394 . S
C560 H568 0.930 . S
C561 C560 1.394 . S
C561 C562 1.383 . S
C561 H569 0.929 . S
C562 C561 1.383 . S
C562 C563 1.377 . S
C563 H547 0.930 . S
C563 C562 1.377 . S
C563 C564 1.379 . S
C564 H548 0.931 . S
C564 C558 1.383 . S
C564 C563 1.379 . S
H565 C559 0.959 . S
H566 C559 0.961 . S
H567 C559 0.960 . S
H568 C560 0.930 . S
H569 C561 0.929 . S
H570 C578 0.929 . S
H571 C580 0.930 . S
H572 C582 0.930 . S
H573 C585 0.929 . S
H574 C588 0.930 . S
H575 C590 0.960 . S
H576 C590 0.960 . S
H577 C590 0.960 . S
C578 H570 0.929 . S
C578 C579 1.377 . S
C578 C580 1.384 . S
C579 C578 1.377 . S
C579 C585 1.390 . S
C580 H571 0.930 . S
C580 C578 1.384 . S
C580 C581 1.372 . S
C581 C580 1.372 . S
C581 C582 1.400 . S
C581 C586 1.490 . S
C582 H572 0.930 . S
C582 C581 1.400 . S
C582 C585 1.386 . S
H583 C599 0.930 . S
H584 C600 0.931 . S
C585 H573 0.929 . S
C585 C579 1.390 . S
C585 C582 1.386 . S
C586 C581 1.490 . S
C586 C588 1.395 . S
C586 C589 1.403 . S
H587 C593 0.930 . S
C588 H574 0.930 . S
C588 C586 1.395 . S
C588 C591 1.403 . S
C589 C586 1.403 . S
C589 C590 1.524 . S
C589 C593 1.400 . S
C590 H575 0.960 . S
C590 H576 0.960 . S
C590 H577 0.960 . S
C590 C589 1.524 . S
C591 C588 1.403 . S
C591 C592 1.392 . S
C591 C595 1.495 . S
C592 C591 1.392 . S
C592 C593 1.385 . S
C592 C594 1.478 . S
C593 H587 0.930 . S
C593 C589 1.400 . S
C593 C592 1.385 . S
C594 C592 1.478 . S
C594 C596 1.381 . S
C594 C600 1.383 . S
C595 C591 1.495 . S
C595 H601 0.959 . S
C595 H602 0.961 . S
C595 H603 0.960 . S
C596 C594 1.381 . S
C596 C597 1.394 . S
C596 H604 0.930 . S
C597 C596 1.394 . S
C597 C598 1.383 . S
C597 H605 0.929 . S
C598 C597 1.383 . S
C598 C599 1.377 . S
C599 H583 0.930 . S
C599 C598 1.377 . S
C599 C600 1.379 . S
C600 H584 0.931 . S
C600 C594 1.383 . S
C600 C599 1.379 . S
H601 C595 0.959 . S
H602 C595 0.961 . S
H603 C595 0.960 . S
H604 C596 0.930 . S
H605 C597 0.929 . S
H606 C614 0.929 . S
H607 C616 0.930 . S
H608 C618 0.930 . S
H609 C621 0.929 . S
H610 C624 0.930 . S
H611 C626 0.960 . S
H612 C626 0.960 . S
H613 C626 0.960 . S
C614 H606 0.929 . S
C614 C615 1.377 . S
C614 C616 1.384 . S
C615 C614 1.377 . S
C615 C621 1.390 . S
C616 H607 0.930 . S
C616 C614 1.384 . S
C616 C617 1.372 . S
C617 C616 1.372 . S
C617 C618 1.400 . S
C617 C622 1.490 . S
C618 H608 0.930 . S
C618 C617 1.400 . S
C618 C621 1.386 . S
H619 C635 0.930 . S
H620 C636 0.931 . S
C621 H609 0.929 . S
C621 C615 1.390 . S
C621 C618 1.386 . S
C622 C617 1.490 . S
C622 C624 1.395 . S
C622 C625 1.413 . S
H623 C629 0.930 1_655 S
C624 H610 0.930 . S
C624 C622 1.395 . S
C624 C627 1.403 . S
C625 C622 1.413 . S
C625 C626 1.504 1_455 S
C625 C629 1.411 1_554 S
C626 H611 0.960 . S
C626 H612 0.960 . S
C626 H613 0.960 . S
C626 C625 1.504 1_655 S
C627 C624 1.403 . S
C627 C628 1.392 1_554 S
C627 C631 1.495 . S
C628 C627 1.392 1_556 S
C628 C629 1.385 . S
C628 C630 1.478 . S
C629 H623 0.930 1_455 S
C629 C625 1.411 1_556 S
C629 C628 1.385 . S
C630 C628 1.478 . S
C630 C632 1.381 . S
C630 C636 1.383 . S
C631 C627 1.495 . S
C631 H637 0.959 . S
C631 H638 0.961 1_554 S
C631 H639 0.960 1_554 S
C632 C630 1.381 . S
C632 C633 1.394 . S
C632 H640 0.930 . S
C633 C632 1.394 . S
C633 C634 1.383 . S
C633 H641 0.929 . S
C634 C633 1.383 . S
C634 C635 1.377 . S
C635 H619 0.930 . S
C635 C634 1.377 . S
C635 C636 1.379 . S
C636 H620 0.931 . S
C636 C630 1.383 . S
C636 C635 1.379 . S
H637 C631 0.959 . S
H638 C631 0.961 1_556 S
H639 C631 0.960 1_556 S
H640 C632 0.930 . S
H641 C633 0.929 . S
H642 C650 0.929 . S
H643 C652 0.930 . S
H644 C654 0.930 . S
H645 C657 0.929 . S
H646 C660 0.930 1_565 S
H647 C662 0.960 . S
H648 C662 0.960 . S
H649 C662 0.960 . S
C650 H642 0.929 . S
C650 C651 1.377 . S
C650 C652 1.384 . S
C651 C650 1.377 . S
C651 C657 1.390 . S
C652 H643 0.930 . S
C652 C650 1.384 . S
C652 C653 1.372 . S
C653 C652 1.372 . S
C653 C654 1.400 . S
C653 C658 1.490 . S
C654 H644 0.930 . S
C654 C653 1.400 . S
C654 C657 1.386 . S
H655 C671 0.930 . S
H656 C672 0.931 . S
C657 H645 0.929 . S
C657 C651 1.390 . S
C657 C654 1.386 . S
C658 C653 1.490 . S
C658 C660 1.395 . S
C658 C661 1.403 . S
H659 C665 0.930 . S
C660 H646 0.930 1_545 S
C660 C658 1.395 . S
C660 C663 1.403 . S
C661 C658 1.403 . S
C661 C662 1.524 . S
C661 C665 1.400 . S
C662 H647 0.960 . S
C662 H648 0.960 . S
C662 H649 0.960 . S
C662 C661 1.524 . S
C663 C660 1.403 . S
C663 C664 1.392 . S
C663 C667 1.495 1_545 S
C664 C663 1.392 . S
C664 C665 1.385 . S
C664 C666 1.478 . S
C665 H659 0.930 . S
C665 C661 1.400 . S
C665 C664 1.385 . S
C666 C664 1.478 . S
C666 C668 1.381 . S
C666 C672 1.383 . S
C667 C663 1.495 1_565 S
C667 H673 0.959 . S
C667 H674 0.961 . S
C667 H675 0.960 . S
C668 C666 1.381 . S
C668 C669 1.394 . S
C668 H676 0.930 . S
C669 C668 1.394 . S
C669 C670 1.383 . S
C669 H677 0.929 . S
C670 C669 1.383 . S
C670 C671 1.377 . S
C671 H655 0.930 . S
C671 C670 1.377 . S
C671 C672 1.379 . S
C672 H656 0.931 . S
C672 C666 1.383 . S
C672 C671 1.379 . S
H673 C667 0.959 . S
H674 C667 0.961 . S
H675 C667 0.960 . S
H676 C668 0.930 . S
H677 C669 0.929 . S
H678 C686 0.929 . S
H679 C688 0.930 . S
H680 C690 0.930 . S
H681 C693 0.929 . S
H682 C696 0.930 . S
H683 C698 0.960 . S
H684 C698 0.960 . S
H685 C698 0.960 . S
C686 H678 0.929 . S
C686 C687 1.377 . S
C686 C688 1.384 . S
C687 C686 1.377 . S
C687 C693 1.390 . S
C688 H679 0.930 . S
C688 C686 1.384 . S
C688 C689 1.372 . S
C689 C688 1.372 . S
C689 C690 1.400 . S
C689 C694 1.490 . S
C690 H680 0.930 . S
C690 C689 1.400 . S
C690 C693 1.386 . S
H691 C707 0.930 . S
H692 C708 0.931 . S
C693 H681 0.929 . S
C693 C687 1.390 . S
C693 C690 1.386 . S
C694 C689 1.490 . S
C694 C696 1.395 . S
C694 C697 1.403 . S
H695 C701 0.930 . S
C696 H682 0.930 . S
C696 C694 1.395 . S
C696 C699 1.403 . S
C697 C694 1.403 . S
C697 C698 1.524 . S
C697 C701 1.400 . S
C698 H683 0.960 . S
C698 H684 0.960 . S
C698 H685 0.960 . S
C698 C697 1.524 . S
C699 C696 1.403 . S
C699 C700 1.392 . S
C699 C703 1.495 . S
C700 C699 1.392 . S
C700 C701 1.385 . S
C700 C702 1.478 . S
C701 H695 0.930 . S
C701 C697 1.400 . S
C701 C700 1.385 . S
C702 C700 1.478 . S
C702 C704 1.381 . S
C702 C708 1.383 . S
C703 C699 1.495 . S
C703 H709 0.959 . S
C703 H710 0.961 . S
C703 H711 0.960 . S
C704 C702 1.381 . S
C704 C705 1.394 . S
C704 H712 0.930 . S
C705 C704 1.394 . S
C705 C706 1.383 . S
C705 H713 0.929 . S
C706 C705 1.383 . S
C706 C707 1.377 . S
C707 H691 0.930 . S
C707 C706 1.377 . S
C707 C708 1.379 . S
C708 H692 0.931 . S
C708 C702 1.383 . S
C708 C707 1.379 . S
H709 C703 0.959 . S
H710 C703 0.961 . S
H711 C703 0.960 . S
H712 C704 0.930 . S
H713 C705 0.929 . S
H714 C722 0.929 1_565 S
H715 C724 0.930 1_565 S
H716 C726 0.930 . S
H717 C729 0.929 . S
H718 C732 0.930 . S
H719 C734 0.960 . S
H720 C734 0.960 . S
H721 C734 0.960 . S
C722 H714 0.929 1_545 S
C722 C723 1.377 . S
C722 C724 1.384 . S
C723 C722 1.377 . S
C723 C729 1.390 . S
C724 H715 0.930 1_545 S
C724 C722 1.384 . S
C724 C725 1.372 . S
C725 C724 1.372 . S
C725 C726 1.400 . S
C725 C730 1.490 . S
C726 H716 0.930 . S
C726 C725 1.400 . S
C726 C729 1.386 . S
H727 C743 0.930 . S
H728 C744 0.931 . S
C729 H717 0.929 . S
C729 C723 1.390 . S
C729 C726 1.386 . S
C730 C725 1.490 . S
C730 C732 1.395 . S
C730 C733 1.403 . S
H731 C737 0.930 . S
C732 H718 0.930 . S
C732 C730 1.395 . S
C732 C735 1.403 . S
C733 C730 1.403 . S
C733 C734 1.524 . S
C733 C737 1.400 . S
C734 H719 0.960 . S
C734 H720 0.960 . S
C734 H721 0.960 . S
C734 C733 1.524 . S
C735 C732 1.403 . S
C735 C736 1.392 . S
C735 C739 1.495 . S
C736 C735 1.392 . S
C736 C737 1.385 . S
C736 C738 1.478 . S
C737 H731 0.930 . S
C737 C733 1.400 . S
C737 C736 1.385 . S
C738 C736 1.478 . S
C738 C740 1.381 . S
C738 C744 1.383 . S
C739 C735 1.495 . S
C739 H745 0.959 . S
C739 H746 0.961 . S
C739 H747 0.960 . S
C740 C738 1.381 . S
C740 C741 1.394 . S
C740 H748 0.930 1_545 S
C741 C740 1.394 . S
C741 C742 1.383 . S
C741 H749 0.929 1_545 S
C742 C741 1.383 . S
C742 C743 1.377 . S
C743 H727 0.930 . S
C743 C742 1.377 . S
C743 C744 1.379 . S
C744 H728 0.931 . S
C744 C738 1.383 . S
C744 C743 1.379 . S
H745 C739 0.959 . S
H746 C739 0.961 . S
H747 C739 0.960 . S
H748 C740 0.930 1_565 S
H749 C741 0.929 1_565 S
H750 C758 0.929 . S
H751 C760 0.930 . S
H752 C762 0.930 . S
H753 C765 0.929 . S
H754 C768 0.930 . S
H755 C770 0.960 . S
H756 C770 0.960 . S
H757 C770 0.960 . S
C758 H750 0.929 . S
C758 C759 1.377 . S
C758 C760 1.384 . S
C759 C758 1.377 . S
C759 C765 1.390 . S
C760 H751 0.930 . S
C760 C758 1.384 . S
C760 C761 1.372 . S
C761 C760 1.372 . S
C761 C762 1.400 . S
C761 C766 1.490 . S
C762 H752 0.930 . S
C762 C761 1.400 . S
C762 C765 1.386 . S
H763 C779 0.930 . S
H764 C780 0.931 . S
C765 H753 0.929 . S
C765 C759 1.390 . S
C765 C762 1.386 . S
C766 C761 1.490 . S
C766 C768 1.395 . S
C766 C769 1.403 . S
H767 C773 0.930 . S
C768 H754 0.930 . S
C768 C766 1.395 . S
C768 C771 1.403 . S
C769 C766 1.403 . S
C769 C770 1.524 . S
C769 C773 1.400 1_556 S
C770 H755 0.960 . S
C770 H756 0.960 . S
C770 H757 0.960 . S
C770 C769 1.524 . S
C771 C768 1.403 . S
C771 C772 1.392 1_556 S
C771 C775 1.495 . S
C772 C771 1.392 1_554 S
C772 C773 1.385 . S
C772 C774 1.478 . S
C773 H767 0.930 . S
C773 C769 1.400 1_554 S
C773 C772 1.385 . S
C774 C772 1.478 . S
C774 C776 1.381 . S
C774 C780 1.383 . S
C775 C771 1.495 . S
C775 H781 0.959 . S
C775 H782 0.965 1_556 S
C775 H783 0.975 . S
C776 C774 1.381 . S
C776 C777 1.394 . S
C776 H784 0.930 . S
C777 C776 1.394 . S
C777 C778 1.383 . S
C777 H785 0.929 . S
C778 C777 1.383 . S
C778 C779 1.377 . S
C779 H763 0.930 . S
C779 C778 1.377 . S
C779 C780 1.379 . S
C780 H764 0.931 . S
C780 C774 1.383 . S
C780 C779 1.379 . S
H781 C775 0.959 . S
H782 C775 0.965 1_554 S
H783 C775 0.975 . S
H784 C776 0.930 . S
H785 C777 0.929 . S
H786 C794 0.929 . S
H787 C796 0.930 . S
H788 C798 0.930 . S
H789 C801 0.929 . S
H790 C804 0.930 . S
H791 C806 0.960 . S
H792 C806 0.960 . S
H793 C806 0.960 . S
C794 H786 0.929 . S
C794 C795 1.377 . S
C794 C796 1.384 . S
C795 C794 1.377 . S
C795 C801 1.390 1_455 S
C796 H787 0.930 . S
C796 C794 1.384 . S
C796 C797 1.372 . S
C797 C796 1.372 . S
C797 C798 1.400 1_455 S
C797 C802 1.490 . S
C798 H788 0.930 . S
C798 C797 1.400 1_655 S
C798 C801 1.386 . S
H799 C815 0.930 1_655 S
H800 C816 0.931 1_655 S
C801 H789 0.929 . S
C801 C795 1.390 1_655 S
C801 C798 1.386 . S
C802 C797 1.490 . S
C802 C804 1.395 . S
C802 C805 1.403 1_455 S
H803 C809 0.930 1_655 S
C804 H790 0.930 . S
C804 C802 1.395 . S
C804 C807 1.403 . S
C805 C802 1.403 1_655 S
C805 C806 1.524 . S
C805 C809 1.400 1_655 S
C806 H791 0.960 . S
C806 H792 0.960 . S
C806 H793 0.960 . S
C806 C805 1.524 . S
C807 C804 1.403 . S
C807 C808 1.392 . S
C807 C811 1.495 . S
C808 C807 1.392 . S
C808 C809 1.385 . S
C808 C810 1.478 . S
C809 H803 0.930 1_455 S
C809 C805 1.400 1_455 S
C809 C808 1.385 . S
C810 C808 1.478 . S
C810 C812 1.381 . S
C810 C816 1.383 . S
C811 C807 1.495 . S
C811 H817 0.959 . S
C811 H818 0.961 . S
C811 H819 0.960 . S
C812 C810 1.381 . S
C812 C813 1.394 . S
C812 H820 0.930 . S
C813 C812 1.394 . S
C813 C814 1.383 . S
C813 H821 0.929 . S
C814 C813 1.383 . S
C814 C815 1.377 . S
C815 H799 0.930 1_455 S
C815 C814 1.377 . S
C815 C816 1.379 . S
C816 H800 0.931 1_455 S
C816 C810 1.383 . S
C816 C815 1.379 . S
H817 C811 0.959 . S
H818 C811 0.961 . S
H819 C811 0.960 . S
H820 C812 0.930 . S
H821 C813 0.929 . S
C183 C2 1.462 . S
C202 C166 1.446 . S
C219 C22 1.459 . S
C238 C128 1.454 . S
C255 C44 1.479 . S
C274 C147 1.523 . S
C291 C4 1.406 . S
C310 C161 1.491 . S
C346 C123 1.505 . S
C327 C24 1.409 . S
C382 C142 1.428 . S
C363 C42 1.373 . S
C399 C32 1.487 . S
C418 C90 1.459 . S
C435 C49 1.093 . S
C454 C104 1.085 1_655 S
C471 C9 1.072 . S
C490 C66 1.121 1_565 S
C526 C85 1.128 . S
C507 C29 1.078 . S
C562 C109 1.317 . S
C543 C52 1.345 . S
C579 C12 1.359 . S
C598 C71 1.315 . S
C634 C100 1.557 . S
C615 C18 1.567 . S
C651 C38 1.522 . S
C670 C62 1.491 . S
C687 C58 1.506 . S
C706 C81 1.546 . S
C742 C138 1.555 . S
C723 C39 1.548 . S
C778 C157 1.573 . S
C759 C59 1.572 . S
C795 C19 1.556 . S
C814 C119 1.557 . S
