# Generated by pormake.
# Topology zzz, (3,6)-cn, num edge types: 1
# Building blocks:
#     Node 0, Type 0, BuildingBlock: BETDAH_clean_linker_0, # of connection points: 3
#     Node 1, Type 0, BuildingBlock: BETDAH_clean_linker_0, # of connection points: 3
#     Node 2, Type 0, BuildingBlock: BETDAH_clean_linker_0, # of connection points: 3
#     Node 3, Type 0, BuildingBlock: BETDAH_clean_linker_0, # of connection points: 3
#     Node 4, Type 0, BuildingBlock: BETDAH_clean_linker_0, # of connection points: 3
#     Node 5, Type 0, BuildingBlock: BETDAH_clean_linker_0, # of connection points: 3
#     Node 6, Type 0, BuildingBlock: BETDAH_clean_linker_0, # of connection points: 3
#     Node 7, Type 0, BuildingBlock: BETDAH_clean_linker_0, # of connection points: 3
#     Node 8, Type 1, BuildingBlock: CIFDUS_clean_sbu_1, # of connection points: 6
#     Node 9, Type 1, BuildingBlock: CIFDUS_clean_sbu_1, # of connection points: 6
#     Node 10, Type 1, BuildingBlock: CIFDUS_clean_sbu_1, # of connection points: 6
#     Node 11, Type 1, BuildingBlock: CIFDUS_clean_sbu_1, # of connection points: 6
#     Edge 12, Type (0, 1), BuildingBlock: XUDNAN_clean_linker_2, # of connection points: 2
#     Edge 13, Type (0, 1), BuildingBlock: XUDNAN_clean_linker_2, # of connection points: 2
#     Edge 14, Type (0, 1), BuildingBlock: XUDNAN_clean_linker_2, # of connection points: 2
#     Edge 15, Type (0, 1), BuildingBlock: XUDNAN_clean_linker_2, # of connection points: 2
#     Edge 16, Type (0, 1), BuildingBlock: XUDNAN_clean_linker_2, # of connection points: 2
#     Edge 17, Type (0, 1), BuildingBlock: XUDNAN_clean_linker_2, # of connection points: 2
#     Edge 18, Type (0, 1), BuildingBlock: XUDNAN_clean_linker_2, # of connection points: 2
#     Edge 19, Type (0, 1), BuildingBlock: XUDNAN_clean_linker_2, # of connection points: 2
#     Edge 20, Type (0, 1), BuildingBlock: XUDNAN_clean_linker_2, # of connection points: 2
#     Edge 21, Type (0, 1), BuildingBlock: XUDNAN_clean_linker_2, # of connection points: 2
#     Edge 22, Type (0, 1), BuildingBlock: XUDNAN_clean_linker_2, # of connection points: 2
#     Edge 23, Type (0, 1), BuildingBlock: XUDNAN_clean_linker_2, # of connection points: 2
#     Edge 24, Type (0, 1), BuildingBlock: XUDNAN_clean_linker_2, # of connection points: 2
#     Edge 25, Type (0, 1), BuildingBlock: XUDNAN_clean_linker_2, # of connection points: 2
#     Edge 26, Type (0, 1), BuildingBlock: XUDNAN_clean_linker_2, # of connection points: 2
#     Edge 27, Type (0, 1), BuildingBlock: XUDNAN_clean_linker_2, # of connection points: 2
#     Edge 28, Type (0, 1), BuildingBlock: XUDNAN_clean_linker_2, # of connection points: 2
#     Edge 29, Type (0, 1), BuildingBlock: XUDNAN_clean_linker_2, # of connection points: 2
#     Edge 30, Type (0, 1), BuildingBlock: XUDNAN_clean_linker_2, # of connection points: 2
#     Edge 31, Type (0, 1), BuildingBlock: XUDNAN_clean_linker_2, # of connection points: 2
#     Edge 32, Type (0, 1), BuildingBlock: XUDNAN_clean_linker_2, # of connection points: 2
#     Edge 33, Type (0, 1), BuildingBlock: XUDNAN_clean_linker_2, # of connection points: 2
#     Edge 34, Type (0, 1), BuildingBlock: XUDNAN_clean_linker_2, # of connection points: 2
#     Edge 35, Type (0, 1), BuildingBlock: XUDNAN_clean_linker_2, # of connection points: 2
# Relax obj value: 0.140
# Max RMSD: 0.186
# Mean RMSD: 0.107
data_MOF--net-zzz--node1-CIFDUS_clean_sbu_1--node2-BETDAH_clean_linker_0--edge1-XUDNAN_clean_linker_2
_symmetry_space_group_name_H-M    P1
_symmetry_Int_Tables_number       1
_symmetry_cell_setting            triclinic
loop_
_symmetry_equiv_pos_as_xyz
'x, y, z'
_cell_length_a     49.587896
_cell_length_b     49.612106
_cell_length_c     15.988885
_cell_angle_alpha  89.472801
_cell_angle_beta   89.645897
_cell_angle_gamma 89.826615
loop_
_atom_site_label
_atom_site_type_symbol
_atom_site_fract_x
_atom_site_fract_y
_atom_site_fract_z
_atom_type_partial_charge
H0 H 0.85663 0.5806 0.14389 0.0
H1 H 0.77847 0.57216 0.03419 0.0
H2 H 0.78768 0.56706 0.30077 0.0
C3 C 0.83482 0.58045 0.15134 0.0
C4 C 0.82421 0.57519 0.23083 0.0
C5 C 0.8187 0.57759 0.08016 0.0
C6 C 0.79067 0.57517 0.08928 0.0
C7 C 0.77907 0.57306 0.16958 0.0
C8 C 0.79611 0.57205 0.23991 0.0
N9 N 0.7509 0.56881 0.18119 0.0
C10 C 0.73182 0.56872 0.11728 0.0
H11 H 0.96487 0.8556 0.1661 0.0
H12 H 0.97008 0.78246 0.02323 0.0
H13 H 1.00602 0.78718 0.26748 0.0
C14 C 0.96977 0.8343 0.16215 0.0
C15 C 0.98486 0.82286 0.22641 0.0
C16 C 0.96471 0.82027 0.08789 0.0
C17 C 0.97317 0.79318 0.08108 0.0
C18 C 0.98716 0.78076 0.14783 0.0
C19 C 0.99356 0.79603 0.21895 0.0
N20 N 0.99729 0.7539 0.1439 0.0
C21 C 0.99023 0.7338 0.08751 0.0
H22 H 0.6848 0.96793 0.14038 0.0
H23 H 0.76209 0.96404 0.01646 0.0
H24 H 0.75678 0.98224 0.27943 0.0
C25 C 0.70666 0.96832 0.14367 0.0
C26 C 0.71876 0.97518 0.21878 0.0
C27 C 0.72204 0.96407 0.07082 0.0
C28 C 0.75026 0.96681 0.07291 0.0
C29 C 0.76286 0.97281 0.14936 0.0
C30 C 0.747 0.97693 0.22143 0.0
N31 N 0.79129 0.97469 0.1581 0.0
C32 C 0.81061 0.9775 0.09499 0.0
H33 H 0.58818 0.69016 0.14594 0.0
H34 H 0.55912 0.76516 0.04627 0.0
H35 H 0.57211 0.75608 0.31029 0.0
C36 C 0.58426 0.71155 0.1544 0.0
C37 C 0.58139 0.7211 0.23582 0.0
C38 C 0.57367 0.7264 0.08733 0.0
C39 C 0.56766 0.75376 0.09787 0.0
C40 C 0.56919 0.7652 0.17794 0.0
C41 C 0.5746 0.74834 0.24755 0.0
N42 N 0.56219 0.79259 0.19182 0.0
C43 C 0.5602 0.8124 0.12961 0.0
H44 H 0.19062 0.47114 0.26609 0.0
H45 H 0.26827 0.46767 0.38078 0.0
H46 H 0.26132 0.46365 0.11136 0.0
C47 C 0.21233 0.46884 0.2597 0.0
C48 C 0.22379 0.46763 0.18006 0.0
C49 C 0.22835 0.46938 0.33128 0.0
C50 C 0.25623 0.46673 0.3246 0.0
C51 C 0.26838 0.46405 0.24521 0.0
C52 C 0.25202 0.46459 0.17274 0.0
N53 N 0.29693 0.46201 0.23676 0.0
C54 C 0.31472 0.46441 0.30373 0.0
H55 H 0.04761 0.19336 0.2921 0.0
H56 H 0.0837 0.26423 0.38588 0.0
H57 H 0.06403 0.26027 0.12517 0.0
C58 C 0.05571 0.21303 0.27791 0.0
C59 C 0.05741 0.22287 0.1958 0.0
C60 C 0.06798 0.22656 0.34334 0.0
C61 C 0.07488 0.25359 0.334 0.0
C62 C 0.07078 0.26646 0.25628 0.0
C63 C 0.06405 0.25063 0.18598 0.0
N64 N 0.0743 0.29484 0.24701 0.0
C65 C 0.07206 0.31259 0.31415 0.0
H66 H 0.35871 0.07483 0.29267 0.0
H67 H 0.27934 0.07092 0.39825 0.0
H68 H 0.29016 0.07193 0.13111 0.0
C69 C 0.33707 0.07688 0.28414 0.0
C70 C 0.32678 0.07486 0.20323 0.0
C71 C 0.32006 0.07385 0.35408 0.0
C72 C 0.29212 0.07407 0.34386 0.0
C73 C 0.28099 0.07492 0.26323 0.0
C74 C 0.2985 0.07452 0.19297 0.0
N75 N 0.25257 0.07303 0.25131 0.0
C76 C 0.23372 0.07007 0.31629 0.0
H77 H 0.47479 0.35572 0.30864 0.0
H78 H 0.47788 0.27497 0.39837 0.0
H79 H 0.46308 0.29072 0.13635 0.0
C80 C 0.47194 0.33443 0.29649 0.0
C81 C 0.46659 0.32595 0.21504 0.0
C82 C 0.47623 0.31607 0.36169 0.0
C83 C 0.47484 0.28858 0.34661 0.0
C84 C 0.47056 0.279 0.26522 0.0
C85 C 0.46631 0.29787 0.19925 0.0
N86 N 0.47161 0.25075 0.24843 0.0
C87 C 0.479 0.23139 0.30854 0.0
O88 O 0.03174 0.0507 0.80362 0.0
Mn89 Mn 0.02497 0.02004 0.71634 0.0
O90 O 0.99862 0.08091 0.77542 0.0
Mn91 Mn 0.97924 0.06172 0.69588 0.0
O92 O 0.01873 0.9898 0.62616 0.0
O93 O 0.06552 0.01226 0.71131 0.0
Mn94 Mn 0.06912 0.97784 0.73822 0.0
O95 O 0.0172 0.99185 0.81 0.0
O96 O 0.05217 0.95985 0.65231 0.0
O97 O 0.03184 0.04853 0.62232 0.0
O98 O 0.99193 0.0663 0.58849 0.0
O99 O 0.10346 0.98967 0.71937 0.0
O100 O 0.05527 0.97072 0.84315 0.0
C101 C 0.95933 0.02641 0.74146 0.0
C102 C 0.01996 0.07365 0.81449 0.0
C103 C 0.03165 0.96772 0.61067 0.0
C104 C 0.09154 0.01195 0.6982 0.0
C105 C 0.03032 0.97495 0.85479 0.0
C106 C 0.01715 0.06388 0.57644 0.0
O107 O 0.98479 0.02779 0.72231 0.0
O108 O 0.94583 0.04791 0.72215 0.0
O109 O 0.55094 0.01465 0.80862 0.0
Mn110 Mn 0.52277 0.02215 0.71446 0.0
O111 O 0.56305 0.05333 0.85819 0.0
Mn112 Mn 0.55991 0.06269 0.74792 0.0
O113 O 0.49377 0.02795 0.62083 0.0
O114 O 0.5179 0.98087 0.72471 0.0
Mn115 Mn 0.48488 0.97596 0.68949 0.0
O116 O 0.49183 0.0271 0.80345 0.0
O117 O 0.48466 0.98681 0.58014 0.0
O118 O 0.55372 0.01682 0.62382 0.0
O119 O 0.58347 0.0457 0.67617 0.0
O120 O 0.49649 0.94211 0.71306 0.0
O121 O 0.46304 0.99406 0.76727 0.0
C122 C 0.53344 0.09035 0.70237 0.0
C123 C 0.56292 0.02817 0.86449 0.0
C124 C 0.48253 0.01189 0.56955 0.0
C125 C 0.51775 0.95475 0.73774 0.0
C126 C 0.46935 0.01434 0.81233 0.0
C127 C 0.57717 0.02799 0.62284 0.0
O128 O 0.52679 0.06447 0.70374 0.0
O129 O 0.55677 0.09754 0.7308 0.0
O130 O 0.52391 0.54542 0.80074 0.0
Mn131 Mn 0.52359 0.51777 0.70548 0.0
O132 O 0.49994 0.57918 0.74805 0.0
Mn133 Mn 0.48773 0.5594 0.66007 0.0
O134 O 0.52332 0.48891 0.61043 0.0
O135 O 0.56312 0.51112 0.74423 0.0
Mn136 Mn 0.56503 0.47627 0.72107 0.0
O137 O 0.50915 0.48871 0.79064 0.0
O138 O 0.56466 0.47291 0.60783 0.0
O139 O 0.54003 0.54687 0.61967 0.0
O140 O 0.50479 0.56648 0.56162 0.0
O141 O 0.59738 0.48244 0.76439 0.0
O142 O 0.54037 0.45614 0.78367 0.0
C143 C 0.45772 0.53247 0.65562 0.0
C144 C 0.51515 0.56943 0.80337 0.0
C145 C 0.54172 0.47476 0.57526 0.0
C146 C 0.58813 0.50688 0.7687 0.0
C147 C 0.51784 0.46507 0.81043 0.0
C148 C 0.52982 0.56247 0.56326 0.0
O149 O 0.48258 0.52393 0.67276 0.0
O150 O 0.45267 0.55817 0.65352 0.0
O151 O 0.05083 0.50826 0.79944 0.0
Mn152 Mn 0.02062 0.51751 0.71265 0.0
O153 O 0.08129 0.54178 0.78377 0.0
Mn154 Mn 0.06301 0.5618 0.70257 0.0
O155 O 0.99114 0.52657 0.62182 0.0
O156 O 0.01465 0.4762 0.6964 0.0
Mn157 Mn 0.98048 0.47603 0.72888 0.0
O158 O 0.99212 0.5238 0.80791 0.0
O159 O 0.95961 0.49602 0.65523 0.0
O160 O 0.04925 0.51166 0.62105 0.0
O161 O 0.0693 0.55069 0.59467 0.0
O162 O 0.98568 0.44158 0.70406 0.0
O163 O 0.97842 0.48314 0.84022 0.0
C164 C 0.02857 0.58348 0.74287 0.0
C165 C 0.07352 0.51949 0.81659 0.0
C166 C 0.96784 0.51583 0.61089 0.0
C167 C 0.00975 0.45028 0.68721 0.0
C168 C 0.97975 0.50773 0.8576 0.0
C169 C 0.06638 0.52578 0.58054 0.0
O170 O 0.02839 0.55777 0.72623 0.0
O171 O 0.05103 0.5957 0.72615 0.0
H172 H 0.19484 0.03184 0.3245 0.0
H173 H 0.2267 0.10088 0.45421 0.0
H174 H 0.1904 0.0966 0.5614 0.0
H175 H 0.12469 0.0455 0.35819 0.0
H176 H 0.11566 0.01066 0.37459 0.0
H177 H 0.14416 0.01919 0.30919 0.0
H178 H 0.17535 0.98895 0.39968 0.0
H179 H 0.14685 0.97981 0.46407 0.0
H180 H 0.1765 0.99396 0.51111 0.0
H181 H 0.15004 0.08396 0.65585 0.0
H182 H 0.11281 0.06155 0.73448 0.0
H183 H 0.10727 1.00163 0.54053 0.0
C184 C 0.19408 0.04603 0.37557 0.0
C185 C 0.21327 0.06685 0.38115 0.0
C186 C 0.21196 0.08492 0.44891 0.0
C187 C 0.19138 0.08267 0.50979 0.0
C188 C 0.17227 0.06222 0.50178 0.0
C189 C 0.17371 0.04403 0.43676 0.0
C190 C 0.15138 0.02333 0.44348 0.0
C191 C 0.13288 0.02477 0.3668 0.0
C192 C 0.16323 0.99483 0.45533 0.0
C193 C 0.13689 0.0328 0.52184 0.0
C194 C 0.14915 0.05529 0.55478 0.0
C195 C 0.14006 0.06661 0.62977 0.0
C196 C 0.11863 0.05406 0.67354 0.0
C197 C 0.10645 0.03056 0.64195 0.0
C198 C 0.11544 0.02027 0.56431 0.0
H199 H 0.47347 0.17628 0.3167 0.0
H200 H 0.50468 0.24494 0.45107 0.0
H201 H 0.51428 0.21595 0.57209 0.0
H202 H 0.44588 0.13825 0.49308 0.0
H203 H 0.458 0.1061 0.45528 0.0
H204 H 0.45016 0.13289 0.38249 0.0
H205 H 0.4983 0.12875 0.32091 0.0
H206 H 0.50589 0.10217 0.39459 0.0
H207 H 0.52696 0.13171 0.38906 0.0
H208 H 0.51825 0.18115 0.68072 0.0
H209 H 0.52924 0.14032 0.76053 0.0
H210 H 0.50343 0.09085 0.55326 0.0
C211 C 0.48216 0.18511 0.37201 0.0
C212 C 0.4869 0.21321 0.37612 0.0
C213 C 0.49926 0.22392 0.44792 0.0
C214 C 0.50505 0.20749 0.51713 0.0
C215 C 0.49921 0.18012 0.51271 0.0
C216 C 0.48909 0.16869 0.44115 0.0
C217 C 0.48789 0.13812 0.45074 0.0
C218 C 0.4587 0.12826 0.44511 0.0
C219 C 0.50585 0.12438 0.38495 0.0
C220 C 0.49891 0.13426 0.53902 0.0
C221 C 0.50439 0.15908 0.57368 0.0
C222 C 0.51428 0.16158 0.6542 0.0
C223 C 0.52021 0.13816 0.69938 0.0
C224 C 0.5172 0.11231 0.66362 0.0
C225 C 0.50548 0.11024 0.58308 0.0
H226 H 0.33089 0.51165 0.36838 0.0
H227 H 0.34136 0.42528 0.39018 0.0
H228 H 0.37703 0.43193 0.4967 0.0
H229 H 0.39902 0.52785 0.37828 0.0
H230 H 0.39416 0.55844 0.43641 0.0
H231 H 0.36779 0.54635 0.37006 0.0
H232 H 0.3345 0.54642 0.49598 0.0
H233 H 0.3609 0.55852 0.56263 0.0
H234 H 0.34304 0.52809 0.59012 0.0
H235 H 0.41681 0.44945 0.5877 0.0
H236 H 0.45307 0.47591 0.6566 0.0
H237 H 0.41259 0.5496 0.5783 0.0
C238 C 0.34036 0.49417 0.39696 0.0
C239 C 0.33362 0.46799 0.37154 0.0
C240 C 0.34646 0.44552 0.40923 0.0
C241 C 0.36666 0.44913 0.46979 0.0
C242 C 0.3735 0.47535 0.49234 0.0
C243 C 0.36033 0.49744 0.45762 0.0
C244 C 0.37226 0.52354 0.48752 0.0
C245 C 0.384 0.54 0.41371 0.0
C246 C 0.35143 0.5401 0.53703 0.0
C247 C 0.39432 0.51281 0.54363 0.0
C248 C 0.39514 0.48504 0.5459 0.0
C249 C 0.41596 0.47125 0.58754 0.0
C250 C 0.43651 0.48635 0.62651 0.0
C251 C 0.43573 0.51488 0.62427 0.0
C252 C 0.41388 0.52786 0.5835 0.0
H253 H 0.07706 0.36742 0.3199 0.0
H254 H 0.05627 0.29689 0.46821 0.0
H255 H 0.04629 0.32591 0.58935 0.0
H256 H 0.1061 0.40759 0.4995 0.0
H257 H 0.09269 0.43878 0.45853 0.0
H258 H 0.10259 0.41227 0.38817 0.0
H259 H 0.05472 0.41321 0.32325 0.0
H260 H 0.04498 0.43958 0.39371 0.0
H261 H 0.02568 0.40885 0.39046 0.0
H262 H 0.03565 0.36177 0.69 0.0
H263 H 0.01808 0.4023 0.75856 0.0
H264 H 0.04273 0.45119 0.5456 0.0
C265 C 0.07099 0.3582 0.37868 0.0
C266 C 0.0679 0.32994 0.38574 0.0
C267 C 0.05925 0.31844 0.46238 0.0
C268 C 0.05365 0.33478 0.53152 0.0
C269 C 0.05694 0.3626 0.52308 0.0
C270 C 0.06524 0.37434 0.44861 0.0
C271 C 0.06449 0.40497 0.45452 0.0
C272 C 0.09317 0.41658 0.44987 0.0
C273 C 0.04637 0.41737 0.38648 0.0
C274 C 0.05261 0.40856 0.54168 0.0
C275 C 0.04961 0.38375 0.58099 0.0
C276 C 0.03824 0.3813 0.66034 0.0
C277 C 0.0285 0.40452 0.6991 0.0
C278 C 0.02946 0.42995 0.65817 0.0
C279 C 0.04255 0.4322 0.5795 0.0
H280 H 0.82567 0.96686 0.93154 0.0
H281 H 0.85311 0.9997 0.16624 0.0
H282 H 0.89822 0.00758 0.10483 0.0
H283 H 0.89106 0.93469 0.873 0.0
H284 H 0.88774 0.94287 0.76349 0.0
H285 H 0.85805 0.93706 0.82681 0.0
H286 H 0.83894 0.98401 0.78489 0.0
H287 H 0.8681 0.98934 0.71953 0.0
H288 H 0.85955 0.01351 0.799 0.0
H289 H 0.93937 0.01406 0.01805 0.0
H290 H 0.97118 0.02634 0.9048 0.0
H291 H 0.91788 0.99092 0.72338 0.0
C292 C 0.84134 0.97551 0.96967 0.0
C293 C 0.83622 0.9825 0.05375 0.0
C294 C 0.85689 0.99407 0.10186 0.0
C295 C 0.88261 0.9984 0.06775 0.0
C296 C 0.88741 0.99094 0.98521 0.0
C297 C 0.86731 0.98012 0.93617 0.0
C298 C 0.87744 0.97603 0.84725 0.0
C299 C 0.87863 0.94587 0.82642 0.0
C300 C 0.85998 0.99167 0.78398 0.0
C301 C 0.90569 0.9877 0.85305 0.0
C302 C 0.91133 0.99517 0.9341 0.0
C303 C 0.93541 0.00787 0.95459 0.0
C304 C 0.95359 0.01441 0.88999 0.0
C305 C 0.94757 0.00852 0.80586 0.0
C306 C 0.92362 0.99435 0.78763 0.0
H307 H 0.55776 0.81743 0.95762 0.0
H308 H 0.55801 0.8621 0.18931 0.0
H309 H 0.5542 0.90485 0.10999 0.0
H310 H 0.5962 0.86775 0.83169 0.0
H311 H 0.57651 0.86284 0.73871 0.0
H312 H 0.58128 0.83535 0.81171 0.0
H313 H 0.52956 0.82952 0.82611 0.0
H314 H 0.52482 0.85651 0.75174 0.0
H315 H 0.50901 0.85822 0.85335 0.0
H316 H 0.54419 0.94152 0.01002 0.0
H317 H 0.52922 0.9707 0.89291 0.0
H318 H 0.53881 0.90433 0.72259 0.0
C319 C 0.55733 0.83633 0.99104 0.0
C320 C 0.55834 0.83676 0.07943 0.0
C321 C 0.55739 0.86159 0.1216 0.0
C322 C 0.55534 0.88592 0.07708 0.0
C323 C 0.55445 0.88509 0.9901 0.0
C324 C 0.55542 0.86101 0.94711 0.0
C325 C 0.55255 0.86605 0.85355 0.0
C326 C 0.57817 0.85748 0.80614 0.0
C327 C 0.52749 0.85173 0.81923 0.0
C328 C 0.54912 0.89652 0.85148 0.0
C329 C 0.55046 0.90702 0.93101 0.0
C330 C 0.54447 0.93395 0.94678 0.0
C331 C 0.53662 0.95062 0.87978 0.0
C332 C 0.53509 0.94047 0.79802 0.0
C333 C 0.5417 0.91309 0.7837 0.0
H334 H 0.72689 0.53792 0.97793 0.0
H335 H 0.68625 0.59799 0.12791 0.0
H336 H 0.64574 0.59449 0.03861 0.0
H337 H 0.69603 0.55788 0.77238 0.0
H338 H 0.69339 0.52336 0.73943 0.0
H339 H 0.72046 0.53329 0.80718 0.0
H340 H 0.70626 0.49662 0.91542 0.0
H341 H 0.67956 0.48645 0.84728 0.0
H342 H 0.67193 0.49597 0.95333 0.0
H343 H 0.60726 0.57954 0.94392 0.0
H344 H 0.57536 0.55331 0.85741 0.0
H345 H 0.64222 0.50546 0.76506 0.0
C346 C 0.70968 0.55082 0.99023 0.0
C347 C 0.70959 0.56848 0.0588 0.0
C348 C 0.68663 0.58459 0.07478 0.0
C349 C 0.6636 0.58277 0.0243 0.0
C350 C 0.66398 0.56489 0.95747 0.0
C351 C 0.68658 0.54934 0.93997 0.0
C352 C 0.68112 0.53003 0.86935 0.0
C353 C 0.69881 0.53655 0.79255 0.0
C354 C 0.68493 0.50054 0.89812 0.0
C355 C 0.65176 0.53638 0.85227 0.0
C356 C 0.64213 0.55674 0.90264 0.0
C357 C 0.61476 0.56392 0.90299 0.0
C358 C 0.59673 0.54912 0.85318 0.0
C359 C 0.60627 0.52747 0.80425 0.0
C360 C 0.63428 0.52203 0.80149 0.0
H361 H 0.98745 0.72383 0.91869 0.0
H362 H 0.98774 0.68574 0.16336 0.0
H363 H 0.98835 0.64082 0.0977 0.0
H364 H 0.94576 0.66928 0.81362 0.0
H365 H 0.96471 0.67242 0.71752 0.0
H366 H 0.95956 0.70148 0.78279 0.0
H367 H 0.01128 0.70896 0.78918 0.0
H368 H 0.01632 0.68029 0.72311 0.0
H369 H 0.03276 0.68163 0.82326 0.0
H370 H 0.99497 0.6003 0.00632 0.0
H371 H 0.01113 0.5687 0.89818 0.0
H372 H 1.00613 0.63227 0.71204 0.0
C373 C 0.98675 0.70595 0.95799 0.0
C374 C 0.98697 0.70807 0.04601 0.0
C375 C 0.98698 0.68439 0.09579 0.0
C376 C 0.98727 0.65879 0.05901 0.0
C377 C 0.98723 0.65714 0.97199 0.0
C378 C 0.98685 0.6801 0.92196 0.0
C379 C 0.98948 0.67272 0.83029 0.0
C380 C 0.96332 0.67939 0.78328 0.0
C381 C 0.01392 0.68671 0.78913 0.0
C382 C 0.99345 0.64241 0.83712 0.0
C383 C 0.99112 0.63366 0.91912 0.0
C384 C 0.99613 0.60682 0.94162 0.0
C385 C 1.0049 0.58881 0.87951 0.0
C386 C 0.0088 0.59773 0.79608 0.0
C387 C 1.00212 0.62465 0.77458 0.0
H388 H 0.04265 0.21757 0.49136 0.0
H389 H 0.11148 0.19458 0.34095 0.0
H390 H 0.1074 0.14777 0.39086 0.0
H391 H 0.05809 0.16198 0.66806 0.0
H392 H 0.022 0.16076 0.68557 0.0
H393 H 0.03802 0.19214 0.6581 0.0
H394 H 1.00292 0.19533 0.53818 0.0
H395 H 0.98979 0.16235 0.55982 0.0
H396 H 1.00327 0.17014 0.45739 0.0
H397 H 0.08762 0.10243 0.42361 0.0
H398 H 0.06071 0.06276 0.46983 0.0
H399 H 1.00538 0.1161 0.59938 0.0
C400 C 0.05825 0.20318 0.4752 0.0
C401 C 0.07721 0.20939 0.4125 0.0
C402 C 0.0971 0.19008 0.39046 0.0
C403 C 0.09457 0.16328 0.41705 0.0
C404 C 0.07327 0.15684 0.47036 0.0
C405 C 0.05639 0.17648 0.50312 0.0
C406 C 0.03392 0.16405 0.55423 0.0
C407 C 0.03827 0.17005 0.64709 0.0
C408 C 1.00585 0.17354 0.52548 0.0
C409 C 0.03874 0.1346 0.53589 0.0
C410 C 0.06193 0.13069 0.48933 0.0
C411 C 0.06981 0.10515 0.46207 0.0
C412 C 0.05426 0.08285 0.48706 0.0
C413 C 0.03076 0.08661 0.53583 0.0
C414 C 0.02284 0.1128 0.55964 0.0
H415 H 0.34849 0.09294 0.48854 0.0
H416 H 0.32001 0.02069 0.3683 0.0
H417 H 0.35963 0.99595 0.41803 0.0
H418 H 0.40866 0.09403 0.46048 0.0
H419 H 0.42371 0.09966 0.56178 0.0
H420 H 0.38951 0.10968 0.5434 0.0
H421 H 0.37374 0.08076 0.66976 0.0
H422 H 0.40839 0.07161 0.68908 0.0
H423 H 0.38338 0.04576 0.67628 0.0
H424 H 0.40796 0.98772 0.4206 0.0
H425 H 0.45646 0.98435 0.44879 0.0
H426 H 0.4522 0.05788 0.59419 0.0
C427 C 0.34946 0.07135 0.47976 0.0
C428 C 0.33168 0.05865 0.42414 0.0
C429 C 0.33349 0.03054 0.41148 0.0
C430 C 0.35607 0.01637 0.4387 0.0
C431 C 0.37516 0.03023 0.48452 0.0
C432 C 0.37093 0.05623 0.51259 0.0
C433 C 0.3955 0.06615 0.55937 0.0
C434 C 0.40489 0.09404 0.52909 0.0
C435 C 0.38992 0.06606 0.6542 0.0
C436 C 0.41555 0.04425 0.53712 0.0
C437 C 0.40313 0.02358 0.49505 0.0
C438 C 0.4177 1.0028 0.45836 0.0
C439 C 0.44536 1.00149 0.4728 0.0
C440 C 0.45798 0.02044 0.52549 0.0
C441 C 0.44313 0.04292 0.55436 0.0
H442 H 0.45278 0.34898 0.47575 0.0
H443 H 0.52749 0.309 0.41043 0.0
H444 H 0.5531 0.34763 0.46212 0.0
H445 H 0.46477 0.40556 0.40315 0.0
H446 H 0.45207 0.42853 0.4808 0.0
H447 H 0.43854 0.39507 0.475 0.0
H448 H 0.45085 0.38378 0.62882 0.0
H449 H 0.46177 0.41823 0.63852 0.0
H450 H 0.48432 0.39103 0.6657 0.0
H451 H 0.56783 0.39482 0.4617 0.0
H452 H 0.57525 0.44328 0.48241 0.0
H453 H 0.49139 0.45286 0.55696 0.0
C454 C 0.47453 0.34747 0.47973 0.0
C455 C 0.48833 0.32656 0.4382 0.0
C456 C 0.51673 0.32501 0.44219 0.0
C457 C 0.53142 0.34709 0.47009 0.0
C458 C 0.51712 0.36955 0.49752 0.0
C459 C 0.48941 0.3693 0.50864 0.0
C460 C 0.47887 0.39711 0.53062 0.0
C461 C 0.4573 0.40712 0.46867 0.0
C462 C 0.46834 0.39756 0.6213 0.0
C463 C 0.50448 0.41325 0.52163 0.0
C464 C 0.5262 0.39698 0.50203 0.0
C465 C 0.55133 0.4076 0.48171 0.0
C466 C 0.55513 0.43525 0.49146 0.0
C467 C 0.53413 0.45163 0.52403 0.0
C468 C 0.50798 0.44085 0.53322 0.0
H469 H 0.2075 0.51737 0.35959 0.0
H470 H 0.21678 0.43793 0.46877 0.0
H471 H 0.17672 0.44592 0.55875 0.0
H472 H 0.16996 0.55541 0.52458 0.0
H473 H 0.1477 0.56887 0.44563 0.0
H474 H 0.18227 0.56134 0.41961 0.0
H475 H 0.16536 0.5315 0.29937 0.0
H476 H 0.13067 0.53742 0.32748 0.0
H477 H 0.14346 0.50343 0.32235 0.0
H478 H 0.1301 0.45809 0.60775 0.0
H479 H 0.08428 0.47597 0.62865 0.0
H480 H 0.10289 0.54408 0.466 0.0
C481 C 0.20217 0.50255 0.40712 0.0
C482 C 0.21513 0.47736 0.40921 0.0
C483 C 0.2072 0.45757 0.46826 0.0
C484 C 0.1843 0.46187 0.51851 0.0
C485 C 0.1697 0.4857 0.50654 0.0
C486 C 0.17853 0.50582 0.45257 0.0
C487 C 0.1565 0.52586 0.43282 0.0
C488 C 0.16459 0.55458 0.45727 0.0
C489 C 0.14853 0.52446 0.34007 0.0
C490 C 0.13428 0.51488 0.48716 0.0
C491 C 0.14204 0.49152 0.5284 0.0
C492 C 0.124 0.4766 0.57678 0.0
C493 C 0.09781 0.48665 0.58657 0.0
C494 C 0.09004 0.51143 0.54819 0.0
C495 C 0.10831 0.52515 0.4959 0.0
H496 H 0.99151 0.82537 0.94 0.0
H497 H 0.92191 0.85471 0.07586 0.0
H498 H 0.92861 0.89981 0.01493 0.0
H499 H 0.03267 0.86803 0.96238 0.0
H500 H 0.04731 0.87484 0.86086 0.0
H501 H 0.03137 0.84308 0.88095 0.0
H502 H 0.99861 0.8499 0.75731 0.0
H503 H 0.01551 0.88117 0.73288 0.0
H504 H 0.97953 0.88075 0.7486 0.0
H505 H 0.95413 0.94243 0.99265 0.0
H506 H 0.98715 0.97877 0.96178 0.0
H507 H 0.03726 0.92196 0.82785 0.0
C508 C 0.97623 0.84061 0.95062 0.0
C509 C 0.95681 0.83698 0.01464 0.0
C510 C 0.93715 0.85732 0.02762 0.0
C511 C 0.94099 0.88316 0.99396 0.0
C512 C 0.96315 0.88742 0.94177 0.0
C513 C 0.97918 0.86628 0.91417 0.0
C514 C 1.00309 0.87682 0.86416 0.0
C515 C 0.03018 0.86499 0.89408 0.0
C516 C 0.99894 0.87187 0.77021 0.0
C517 C 1.00077 0.90652 0.88268 0.0
C518 C 0.97712 0.91248 0.9247 0.0
C519 C 0.97202 0.93823 0.95589 0.0
C520 C 0.99087 0.95866 0.93909 0.0
C521 C 0.01441 0.95311 0.89233 0.0
C522 C 0.01955 0.92663 0.86509 0.0
H523 H 0.71604 0.99856 0.93914 0.0
H524 H 0.69132 0.92086 0.03656 0.0
H525 H 0.64566 0.92845 0.98287 0.0
H526 H 0.66948 0.03496 0.98464 0.0
H527 H 0.66192 0.05471 0.89247 0.0
H528 H 0.69488 0.04028 0.90486 0.0
H529 H 0.6915 0.01477 0.76501 0.0
H530 H 0.65914 0.0306 0.74848 0.0
H531 H 0.66224 0.99445 0.74454 0.0
H532 H 0.60264 0.95381 0.98772 0.0
H533 H 0.56407 0.98555 0.97343 0.0
H534 H 0.6153 0.04221 0.84223 0.0
C535 C 0.70176 0.98211 0.94166 0.0
C536 C 0.70672 0.9595 0.99365 0.0
C537 C 0.68765 0.93836 -0.00288 0.0
C538 C 0.6615 0.9427 0.96799 0.0
C539 C 0.65581 0.96724 0.92915 0.0
C540 C 0.67583 0.98561 0.90854 0.0
C541 C 0.66363 0.01113 0.87124 0.0
C542 C 0.67305 0.03675 0.9161 0.0
C543 C 0.66947 0.01283 0.77673 0.0
C544 C 0.63405 1.00577 0.88727 0.0
C545 C 0.62996 0.98034 0.92064 0.0
C546 C 0.60511 0.97279 0.9547 0.0
C547 C 0.58337 0.99068 0.9465 0.0
C548 C 0.58643 0.01508 0.90209 0.0
C549 C 0.61232 0.02328 0.87527 0.0
H550 H 0.58701 0.70462 0.93248 0.0
H551 H 0.52412 0.71006 0.12147 0.0
H552 H 0.50685 0.66583 0.08066 0.0
H553 H 0.53461 0.67257 0.78069 0.0
H554 H 0.56087 0.65424 0.72732 0.0
H555 H 0.56773 0.68705 0.76958 0.0
H556 H 0.60761 0.6661 0.85212 0.0
H557 H 0.59991 0.6331 0.81314 0.0
H558 H 0.60134 0.63861 0.92432 0.0
H559 H 0.50317 0.61809 0.04288 0.0
H560 H 0.49655 0.57654 0.96081 0.0
H561 H 0.55491 0.605 0.7777 0.0
C562 C 0.56871 0.69715 0.96164 0.0
C563 C 0.55717 0.7102 0.03129 0.0
C564 C 0.53314 0.70011 0.06803 0.0
C565 C 0.52355 0.6748 0.04669 0.0
C566 C 0.53685 0.66113 0.98347 0.0
C567 C 0.55727 0.67277 0.93626 0.0
C568 C 0.56508 0.65478 0.86386 0.0
C569 C 0.55657 0.66793 0.78044 0.0
C570 C 0.59529 0.64774 0.86351 0.0
C571 C 0.54785 0.63036 0.884 0.0
C572 C 0.53212 0.63439 0.95424 0.0
C573 C 0.51474 0.61478 0.98627 0.0
C574 C 0.51143 0.59119 0.94054 0.0
C575 C 0.52542 0.58795 0.86449 0.0
C576 C 0.54451 0.60714 0.83714 0.0
H577 H 0.85441 0.60032 0.96702 0.0
H578 H 0.81591 0.52557 0.04281 0.0
H579 H 0.85654 0.50044 0.00334 0.0
H580 H 0.89354 0.56438 0.77962 0.0
H581 H 0.92101 0.5877 0.79176 0.0
H582 H 0.88679 0.5987 0.80952 0.0
H583 H 0.90153 0.61496 0.95615 0.0
H584 H 0.93513 0.60213 0.94099 0.0
H585 H 0.91538 0.59092 0.02967 0.0
H586 H 0.90432 0.48744 0.00876 0.0
H587 H 0.95177 0.47882 0.97351 0.0
H588 H 0.95771 0.55889 0.86227 0.0
C589 C 0.85379 0.57851 0.96853 0.0
C590 C 0.83235 0.56484 0.00905 0.0
C591 C 0.83215 0.53632 0.01157 0.0
C592 C 0.85537 0.5219 0.99113 0.0
C593 C 0.87754 0.53629 0.96217 0.0
C594 C 0.87633 0.5635 0.94329 0.0
C595 C 0.9033 0.57348 0.91007 0.0
C596 C 0.90103 0.58153 0.81723 0.0
C597 C 0.91447 0.59675 0.96243 0.0
C598 C 0.92013 0.54818 0.92095 0.0
C599 C 0.90488 0.52735 0.9536 0.0
C600 C 0.91623 0.50297 0.97836 0.0
C601 C 0.94332 0.49852 0.95957 0.0
C602 C 0.95814 0.51779 0.91231 0.0
C603 C 0.94697 0.54366 0.89784 0.0
H604 H 0.0555 0.16572 0.20085 0.0
H605 H 0.05406 0.23322 0.02318 0.0
H606 H 0.05218 0.20058 0.90934 0.0
H607 H 0.09135 0.11783 0.0792 0.0
H608 H 0.07055 0.09 0.11294 0.0
H609 H 0.07567 0.11822 0.18117 0.0
H610 H 0.02424 0.12538 0.19404 0.0
H611 H 0.01879 0.09695 0.12724 0.0
H612 H 1.00433 0.12929 0.1007 0.0
H613 H 0.05068 0.16112 0.81554 0.0
H614 H 0.03803 0.11884 0.74484 0.0
H615 H 0.03237 0.07802 0.98487 0.0
C616 C 0.054 0.1747 0.13955 0.0
C617 C 0.05461 0.20319 0.12417 0.0
C618 C 0.05391 0.21206 0.03947 0.0
C619 C 0.05289 0.1935 0.97351 0.0
C620 C 0.05211 0.16599 0.99242 0.0
C621 C 0.05188 0.15668 0.07345 0.0
C622 C 0.0479 0.12627 0.07771 0.0
C623 C 0.07286 0.11226 0.11494 0.0
C624 C 0.02228 0.11906 0.12783 0.0
C625 C 0.04493 0.11996 0.98548 0.0
C626 C 0.04866 0.14313 0.93784 0.0
C627 C 0.04721 0.14291 0.85137 0.0
C628 C 0.04009 0.1189 0.81221 0.0
C629 C 0.0339 0.09546 0.85935 0.0
C630 C 0.03719 0.09563 0.94724 0.0
H631 H 0.36187 0.10016 0.08836 0.0
H632 H 0.33515 0.02235 0.18205 0.0
H633 H 0.3713 0.99998 0.10228 0.0
H634 H 0.37853 0.07604 0.87555 0.0
H635 H 0.40758 0.09749 0.86359 0.0
H636 H 0.37972 0.10791 0.92873 0.0
H637 H 0.41253 0.11378 0.05267 0.0
H638 H 0.44038 0.10292 0.98813 0.0
H639 H 0.43323 0.08574 0.08556 0.0
H640 H 0.41005 0.98565 0.01917 0.0
H641 H 0.44635 0.97853 0.91655 0.0
H642 H 0.44903 0.06451 0.86464 0.0
C643 C 0.3633 0.07838 0.08985 0.0
C644 C 0.34524 0.06282 0.1398 0.0
C645 C 0.34822 0.03447 0.14238 0.0
C646 C 0.36894 0.02164 0.0982 0.0
C647 C 0.38653 0.03733 0.05038 0.0
C648 C 0.38374 0.06498 0.04388 0.0
C649 C 0.40517 0.07645 0.98444 0.0
C650 C 0.39196 0.0903 0.90859 0.0
C651 C 0.42394 0.09588 0.03046 0.0
C652 C 0.42015 0.05085 0.95867 0.0
C653 C 0.40911 0.02873 -0.00079 0.0
C654 C 0.41873 1.00274 0.98636 0.0
C655 C 0.43939 0.9989 0.92784 0.0
C656 C 0.45044 0.02083 0.88209 0.0
C657 C 0.44115 0.04736 0.89921 0.0
H658 H 0.48796 0.32737 0.05376 0.0
H659 H 0.43969 0.37396 0.22802 0.0
H660 H 0.44476 0.4141 0.13832 0.0
H661 H 0.5344 0.37415 -0.001 0.0
H662 H 0.53579 0.36757 0.88832 0.0
H663 H 0.52553 0.34137 0.95996 0.0
H664 H 0.48069 0.33565 0.87921 0.0
H665 H 0.49111 0.36171 0.80662 0.0
H666 H 0.45939 0.36461 0.86136 0.0
H667 H 0.46014 0.45091 0.03967 0.0
H668 H 0.48229 0.48034 0.93395 0.0
H669 H 0.51846 0.40992 0.81947 0.0
C670 C 0.47754 0.34569 0.07133 0.0
C671 C 0.46378 0.34741 0.14893 0.0
C672 C 0.45077 0.37207 0.16975 0.0
C673 C 0.45341 0.39508 0.11895 0.0
C674 C 0.4682 0.39309 0.04512 0.0
C675 C 0.47938 0.36886 0.0199 0.0
C676 C 0.49489 0.37257 0.93847 0.0
C677 C 0.5244 0.36338 0.94706 0.0
C678 C 0.48068 0.35775 0.86719 0.0
C679 C 0.49268 0.40289 0.92627 0.0
C680 C 0.47658 0.41429 0.9872 0.0
C681 C 0.47236 0.44212 0.99061 0.0
C682 C 0.48499 0.45871 0.93029 0.0
C683 C 0.50207 0.44749 0.86838 0.0
C684 C 0.50556 0.41914 0.86609 0.0
H685 H 0.19072 0.51056 0.15281 0.0
H686 H 0.21396 0.43357 0.04853 0.0
H687 H 0.17623 0.43716 0.94715 0.0
H688 H 0.1218 0.50149 0.14456 0.0
H689 H 0.11179 0.53489 0.11144 0.0
H690 H 0.14194 0.53035 0.17126 0.0
H691 H 0.17299 0.55229 0.06438 0.0
H692 H 0.14341 0.56094 0.00507 0.0
H693 H 0.17079 0.5429 0.95597 0.0
H694 H 0.13265 0.44797 0.86554 0.0
H695 H 0.09275 0.46841 0.79611 0.0
H696 H 0.10026 0.53905 0.95111 0.0
C697 C 0.18828 0.49475 0.10719 0.0
C698 C 0.20542 0.47186 0.10776 0.0
C699 C 0.20135 0.45142 0.04811 0.0
C700 C 0.17976 0.45318 0.99117 0.0
C701 C 0.16261 0.4756 0.99452 0.0
C702 C 0.16708 0.49629 0.04999 0.0
C703 C 0.14602 0.51832 0.0412 0.0
C704 C 0.12937 0.52135 0.12195 0.0
C705 C 0.15908 0.5452 0.01503 0.0
C706 C 0.12897 0.50697 0.97203 0.0
C707 C 0.13844 0.48207 0.94671 0.0
C708 C 0.12525 0.4675 0.88488 0.0
C709 C 0.10243 0.47908 0.84652 0.0
C710 C 0.09333 0.50509 0.86929 0.0
C711 C 0.10667 0.519 0.93331 0.0
H712 H 0.95771 0.85285 0.34555 0.0
H713 H 0.03711 0.83645 0.24257 0.0
H714 H 0.05538 0.87538 0.31843 0.0
H715 H 0.96154 0.92455 0.34222 0.0
H716 H 0.94481 0.9297 0.44122 0.0
H717 H 0.93729 0.90031 0.38026 0.0
H718 H 0.94978 0.86905 0.50517 0.0
H719 H 0.95648 0.89842 0.56701 0.0
H720 H 0.98209 0.87289 0.55478 0.0
H721 H 0.06425 0.91765 0.39189 0.0
H722 H 0.06732 0.95455 0.49269 0.0
H723 H 0.98356 0.94267 0.56352 0.0
C724 C 0.9791 0.85706 0.34139 0.0
C725 C 0.9962 0.84141 0.28931 0.0
C726 C 0.0239 0.84778 0.28358 0.0
C727 C 0.03431 0.87012 0.3253 0.0
C728 C 0.01685 0.88566 0.3737 0.0
C729 C 0.99006 0.87897 0.38475 0.0
C730 C 0.97624 0.89863 0.4441 0.0
C731 C 0.95362 0.91421 0.39927 0.0
C732 C 0.96552 0.88386 0.52241 0.0
C733 C 0.9996 0.91717 0.46515 0.0
C734 C 0.02249 0.90963 0.42117 0.0
C735 C 0.04664 0.92351 0.4277 0.0
C736 C 0.0481 0.94457 0.48472 0.0
C737 C 0.02577 0.95139 0.53603 0.0
C738 C 1.00083 0.93812 0.52429 0.0
H739 H 0.67303 0.95088 0.28692 0.0
H740 H 0.7245 0.02122 0.306 0.0
H741 H 0.69244 0.0414 0.40522 0.0
H742 H 0.60994 0.98527 0.29648 0.0
H743 H 0.5929 0.96068 0.36134 0.0
H744 H 0.62019 0.9504 0.29371 0.0
H745 H 0.64548 0.92967 0.4199 0.0
H746 H 0.6181 0.93948 0.48786 0.0
H747 H 0.65201 0.95014 0.51009 0.0
H748 H 0.65438 0.05636 0.48622 0.0
H749 H 0.6151 0.06322 0.57459 0.0
H750 H 0.58691 0.98225 0.52021 0.0
C751 C 0.67769 0.97032 0.31344 0.0
C752 C 0.70145 0.98446 0.28919 0.0
C753 C 0.70681 0.00984 0.32466 0.0
C754 C 0.68853 0.02161 0.38029 0.0
C755 C 0.66509 0.00761 0.40094 0.0
C756 C 0.65975 0.98227 0.37082 0.0
C757 C 0.63297 0.97182 0.4059 0.0
C758 C 0.6128 0.96674 0.33514 0.0
C759 C 0.63741 0.94626 0.45912 0.0
C760 C 0.62413 0.99554 0.45983 0.0
C761 C 0.64304 0.01591 0.4538 0.0
C762 C 0.63974 0.04036 0.49339 0.0
C763 C 0.61717 0.04395 0.54387 0.0
C764 C 0.59803 0.02304 0.55702 0.0
C765 C 0.60118 0.99856 0.51237 0.0
H766 H 0.54076 0.68542 0.24863 0.0
H767 H 0.61473 0.70923 0.36943 0.0
H768 H 0.61172 0.66874 0.46245 0.0
H769 H 0.50682 0.6577 0.43177 0.0
H770 H 0.49155 0.63102 0.37293 0.0
H771 H 0.49918 0.66271 0.32262 0.0
H772 H 0.52711 0.63742 0.21053 0.0
H773 H 0.52013 0.60569 0.26156 0.0
H774 H 0.55452 0.61582 0.24258 0.0
H775 H 0.6005 0.62398 0.53914 0.0
H776 H 0.58006 0.58262 0.60034 0.0
H777 H 0.51539 0.58806 0.41958 0.0
C778 C 0.55607 0.68239 0.29582 0.0
C779 C 0.57786 0.7005 0.30281 0.0
C780 C 0.59769 0.69577 0.36432 0.0
C781 C 0.59624 0.6727 0.41652 0.0
C782 C 0.57496 0.65463 0.40557 0.0
C783 C 0.55509 0.6595 0.34706 0.0
C784 C 0.53451 0.63709 0.34569 0.0
C785 C 0.50636 0.64777 0.36974 0.0
C786 C 0.53407 0.62319 0.26001 0.0
C787 C 0.54584 0.61863 0.41269 0.0
C788 C 0.56915 0.62894 0.44678 0.0
C789 C 0.58239 0.61567 0.51232 0.0
C790 C 0.57087 0.59195 0.54598 0.0
C791 C 0.54637 0.58184 0.51403 0.0
C792 C 0.53437 0.595 0.44467 0.0
H793 H 0.86091 0.60095 0.33463 0.0
H794 H 0.83188 0.52261 0.25849 0.0
H795 H 0.86943 0.50066 0.33298 0.0
H796 H 0.9324 0.58528 0.32516 0.0
H797 H 0.94116 0.60366 0.41778 0.0
H798 H 0.91262 0.61411 0.35596 0.0
H799 H 0.88143 0.61056 0.48627 0.0
H800 H 0.91001 0.60066 0.5485 0.0
H801 H 0.88053 0.57952 0.54579 0.0
H802 H 0.91017 0.48707 0.40615 0.0
H803 H 0.94687 0.48033 0.50609 0.0
H804 H 0.94927 0.56638 0.55248 0.0
C805 C 0.86217 0.57917 0.33601 0.0
C806 C 0.84313 0.56333 0.2926 0.0
C807 C 0.84577 0.53495 0.29341 0.0
C808 C 0.8673 0.52237 0.33426 0.0
C809 C 0.88594 0.53839 0.37524 0.0
C810 C 0.88332 0.56606 0.37901 0.0
C811 C 0.90563 0.57795 0.43261 0.0
C812 C 0.92404 0.59635 0.37973 0.0
C813 C 0.89368 0.59306 0.50777 0.0
C814 C 0.92056 0.55247 0.46015 0.0
C815 C 0.90921 0.53016 0.42305 0.0
C816 C 0.91902 0.50428 0.43659 0.0
C817 C 0.93994 0.5007 0.49345 0.0
C818 C 0.95072 0.52271 0.53789 0.0
C819 C 0.94155 0.5492 0.51904 0.0
loop_
_geom_bond_atom_site_label_1
_geom_bond_atom_site_label_2
_geom_bond_distance
_geom_bond_site_symmetry_2
_ccdc_geom_bond_type
H0 C3 0.929 . S
H1 C6 0.929 1_556 S
H2 C8 0.930 . S
C3 H0 0.929 . S
C3 C4 1.398 . S
C3 C5 1.396 . S
C4 C3 1.398 . S
C4 C8 1.407 . S
C5 C3 1.396 . S
C5 C6 1.394 . S
C6 H1 0.929 1_554 S
C6 C5 1.394 . S
C6 C7 1.382 . S
C7 C6 1.382 . S
C7 C8 1.392 . S
C7 N9 1.420 . S
C8 H2 0.930 . S
C8 C4 1.407 . S
C8 C7 1.392 . S
N9 C7 1.420 . S
N9 C10 1.244 . S
C10 N9 1.244 . S
H11 C14 0.929 . S
H12 C17 0.929 1_556 S
H13 C19 0.930 . S
C14 H11 0.929 . S
C14 C15 1.398 . S
C14 C16 1.396 . S
C15 C14 1.398 . S
C15 C19 1.407 . S
C16 C14 1.396 . S
C16 C17 1.394 . S
C17 H12 0.929 1_554 S
C17 C16 1.394 . S
C17 C18 1.382 . S
C18 C17 1.382 . S
C18 C19 1.392 . S
C18 N20 1.420 . S
C19 H13 0.930 . S
C19 C15 1.407 . S
C19 C18 1.392 . S
N20 C18 1.420 . S
N20 C21 1.244 . S
C21 N20 1.244 . S
H22 C25 0.929 . S
H23 C28 0.929 1_556 S
H24 C30 0.930 . S
C25 H22 0.929 . S
C25 C26 1.398 . S
C25 C27 1.396 . S
C26 C25 1.398 . S
C26 C30 1.407 . S
C27 C25 1.396 . S
C27 C28 1.394 . S
C28 H23 0.929 1_554 S
C28 C27 1.394 . S
C28 C29 1.382 . S
C29 C28 1.382 . S
C29 C30 1.392 . S
C29 N31 1.420 . S
C30 H24 0.930 . S
C30 C26 1.407 . S
C30 C29 1.392 . S
N31 C29 1.420 . S
N31 C32 1.244 . S
C32 N31 1.244 . S
H33 C36 0.929 . S
H34 C39 0.929 1_556 S
H35 C41 0.930 . S
C36 H33 0.929 . S
C36 C37 1.398 . S
C36 C38 1.396 . S
C37 C36 1.398 . S
C37 C41 1.407 . S
C38 C36 1.396 . S
C38 C39 1.394 . S
C39 H34 0.929 1_554 S
C39 C38 1.394 . S
C39 C40 1.382 . S
C40 C39 1.382 . S
C40 C41 1.392 . S
C40 N42 1.420 . S
C41 H35 0.930 . S
C41 C37 1.407 . S
C41 C40 1.392 . S
N42 C40 1.420 . S
N42 C43 1.244 . S
C43 N42 1.244 . S
H44 C47 0.929 . S
H45 C50 0.929 . S
H46 C52 0.930 . S
C47 H44 0.929 . S
C47 C48 1.398 . S
C47 C49 1.396 . S
C48 C47 1.398 . S
C48 C52 1.407 . S
C49 C47 1.396 . S
C49 C50 1.394 . S
C50 H45 0.929 . S
C50 C49 1.394 . S
C50 C51 1.382 . S
C51 C50 1.382 . S
C51 C52 1.392 . S
C51 N53 1.420 . S
C52 H46 0.930 . S
C52 C48 1.407 . S
C52 C51 1.392 . S
N53 C51 1.420 . S
N53 C54 1.244 . S
C54 N53 1.244 . S
H55 C58 0.929 . S
H56 C61 0.929 . S
H57 C63 0.930 . S
C58 H55 0.929 . S
C58 C59 1.398 . S
C58 C60 1.396 . S
C59 C58 1.398 . S
C59 C63 1.407 . S
C60 C58 1.396 . S
C60 C61 1.394 . S
C61 H56 0.929 . S
C61 C60 1.394 . S
C61 C62 1.382 . S
C62 C61 1.382 . S
C62 C63 1.392 . S
C62 N64 1.420 . S
C63 H57 0.930 . S
C63 C59 1.407 . S
C63 C62 1.392 . S
N64 C62 1.420 . S
N64 C65 1.244 . S
C65 N64 1.244 . S
H66 C69 0.929 . S
H67 C72 0.929 . S
H68 C74 0.930 . S
C69 H66 0.929 . S
C69 C70 1.398 . S
C69 C71 1.396 . S
C70 C69 1.398 . S
C70 C74 1.407 . S
C71 C69 1.396 . S
C71 C72 1.394 . S
C72 H67 0.929 . S
C72 C71 1.394 . S
C72 C73 1.382 . S
C73 C72 1.382 . S
C73 C74 1.392 . S
C73 N75 1.420 . S
C74 H68 0.930 . S
C74 C70 1.407 . S
C74 C73 1.392 . S
N75 C73 1.420 . S
N75 C76 1.244 . S
C76 N75 1.244 . S
H77 C80 0.929 . S
H78 C83 0.929 . S
H79 C85 0.930 . S
C80 H77 0.929 . S
C80 C81 1.398 . S
C80 C82 1.396 . S
C81 C80 1.398 . S
C81 C85 1.407 . S
C82 C80 1.396 . S
C82 C83 1.394 . S
C83 H78 0.929 . S
C83 C82 1.394 . S
C83 C84 1.382 . S
C84 C83 1.382 . S
C84 C85 1.392 . S
C84 N86 1.420 . S
C85 H79 0.930 . S
C85 C81 1.407 . S
C85 C84 1.392 . S
N86 C84 1.420 . S
N86 C87 1.244 . S
C87 N86 1.244 . S
O88 Mn89 2.163 . S
O88 C102 1.244 . S
Mn89 O88 2.163 . S
Mn89 O92 2.160 1_545 S
Mn89 O93 2.221 . S
Mn89 O95 2.163 1_545 S
Mn89 O97 2.160 . S
Mn89 O107 2.221 1_455 S
O90 Mn91 2.087 1_455 S
O90 C102 1.256 . S
Mn91 O90 2.087 1_655 S
Mn91 O98 2.089 . S
Mn91 O107 2.290 . S
Mn91 O108 2.251 . S
O92 Mn89 2.160 1_565 S
O92 C103 1.239 . S
O93 Mn89 2.221 . S
O93 Mn94 2.290 1_545 S
O93 C104 1.278 . S
Mn94 O93 2.290 1_565 S
Mn94 O96 2.089 . S
Mn94 O99 2.251 . S
Mn94 O100 2.087 . S
O95 Mn89 2.163 1_565 S
O95 C105 1.244 . S
O96 Mn94 2.089 . S
O96 C103 1.256 . S
O97 Mn89 2.160 . S
O97 C106 1.239 . S
O98 Mn91 2.089 . S
O98 C106 1.256 1_655 S
O99 Mn94 2.251 . S
O99 C104 1.241 1_565 S
O100 Mn94 2.087 . S
O100 C105 1.256 . S
C101 O107 1.278 . S
C101 O108 1.241 . S
C102 O88 1.244 . S
C102 O90 1.256 . S
C103 O92 1.239 . S
C103 O96 1.256 . S
C104 O93 1.278 . S
C104 O99 1.241 1_545 S
C105 O95 1.244 . S
C105 O100 1.256 . S
C106 O97 1.239 . S
C106 O98 1.256 1_455 S
O107 Mn89 2.221 1_655 S
O107 Mn91 2.290 . S
O107 C101 1.278 . S
O108 Mn91 2.251 . S
O108 C101 1.241 . S
O109 Mn110 2.163 . S
O109 C123 1.244 . S
Mn110 O109 2.163 . S
Mn110 O113 2.160 . S
Mn110 O114 2.221 1_545 S
Mn110 O116 2.163 . S
Mn110 O118 2.160 1_545 S
Mn110 O128 2.221 . S
O111 Mn112 2.087 . S
O111 C123 1.256 . S
Mn112 O111 2.087 . S
Mn112 O119 2.089 . S
Mn112 O128 2.290 . S
Mn112 O129 2.251 . S
O113 Mn110 2.160 . S
O113 C124 1.239 . S
O114 Mn110 2.221 1_565 S
O114 Mn115 2.290 . S
O114 C125 1.278 . S
Mn115 O114 2.290 . S
Mn115 O117 2.089 . S
Mn115 O120 2.251 . S
Mn115 O121 2.088 . S
O116 Mn110 2.163 . S
O116 C126 1.244 . S
O117 Mn115 2.089 . S
O117 C124 1.256 1_565 S
O118 Mn110 2.160 1_565 S
O118 C127 1.239 1_565 S
O119 Mn112 2.089 . S
O119 C127 1.256 . S
O120 Mn115 2.251 . S
O120 C125 1.241 . S
O121 Mn115 2.088 . S
O121 C126 1.254 1_565 S
C122 O128 1.278 . S
C122 O129 1.241 . S
C123 O109 1.244 . S
C123 O111 1.256 . S
C124 O113 1.239 . S
C124 O117 1.256 1_545 S
C125 O114 1.278 . S
C125 O120 1.241 . S
C126 O116 1.244 . S
C126 O121 1.254 1_545 S
C127 O118 1.239 1_545 S
C127 O119 1.256 . S
O128 Mn110 2.221 . S
O128 Mn112 2.290 . S
O128 C122 1.278 . S
O129 Mn112 2.251 . S
O129 C122 1.241 . S
O130 Mn131 2.163 . S
O130 C144 1.244 . S
Mn131 O130 2.163 . S
Mn131 O134 2.160 . S
Mn131 O135 2.221 . S
Mn131 O137 2.163 . S
Mn131 O139 2.160 . S
Mn131 O149 2.221 . S
O132 Mn133 2.087 . S
O132 C144 1.256 . S
Mn133 O132 2.087 . S
Mn133 O140 2.089 . S
Mn133 O149 2.290 . S
Mn133 O150 2.251 . S
O134 Mn131 2.160 . S
O134 C145 1.239 . S
O135 Mn131 2.221 . S
O135 Mn136 2.290 . S
O135 C146 1.278 . S
Mn136 O135 2.290 . S
Mn136 O138 2.089 . S
Mn136 O141 2.251 . S
Mn136 O142 2.087 . S
O137 Mn131 2.163 . S
O137 C147 1.244 . S
O138 Mn136 2.089 . S
O138 C145 1.256 . S
O139 Mn131 2.160 . S
O139 C148 1.239 . S
O140 Mn133 2.089 . S
O140 C148 1.256 . S
O141 Mn136 2.251 . S
O141 C146 1.241 . S
O142 Mn136 2.087 . S
O142 C147 1.256 . S
C143 O149 1.278 . S
C143 O150 1.241 . S
C144 O130 1.244 . S
C144 O132 1.256 . S
C145 O134 1.239 . S
C145 O138 1.256 . S
C146 O135 1.278 . S
C146 O141 1.241 . S
C147 O137 1.244 . S
C147 O142 1.256 . S
C148 O139 1.239 . S
C148 O140 1.256 . S
O149 Mn131 2.221 . S
O149 Mn133 2.290 . S
O149 C143 1.278 . S
O150 Mn133 2.251 . S
O150 C143 1.241 . S
O151 Mn152 2.163 . S
O151 C165 1.244 . S
Mn152 O151 2.163 . S
Mn152 O155 2.160 1_455 S
Mn152 O156 2.221 . S
Mn152 O158 2.163 1_455 S
Mn152 O160 2.160 . S
Mn152 O170 2.221 . S
O153 Mn154 2.087 . S
O153 C165 1.256 . S
Mn154 O153 2.087 . S
Mn154 O161 2.089 . S
Mn154 O170 2.290 . S
Mn154 O171 2.251 . S
O155 Mn152 2.160 1_655 S
O155 C166 1.239 . S
O156 Mn152 2.221 . S
O156 Mn157 2.290 1_455 S
O156 C167 1.278 . S
Mn157 O156 2.290 1_655 S
Mn157 O159 2.089 . S
Mn157 O162 2.251 . S
Mn157 O163 2.087 . S
O158 Mn152 2.163 1_655 S
O158 C168 1.244 . S
O159 Mn157 2.089 . S
O159 C166 1.256 . S
O160 Mn152 2.160 . S
O160 C169 1.239 . S
O161 Mn154 2.089 . S
O161 C169 1.256 . S
O162 Mn157 2.251 . S
O162 C167 1.241 1_655 S
O163 Mn157 2.087 . S
O163 C168 1.256 . S
C164 O170 1.278 . S
C164 O171 1.241 . S
C165 O151 1.244 . S
C165 O153 1.256 . S
C166 O155 1.239 . S
C166 O159 1.256 . S
C167 O156 1.278 . S
C167 O162 1.241 1_455 S
C168 O158 1.244 . S
C168 O163 1.256 . S
C169 O160 1.239 . S
C169 O161 1.256 . S
O170 Mn152 2.221 . S
O170 Mn154 2.290 . S
O170 C164 1.278 . S
O171 Mn154 2.251 . S
O171 C164 1.241 . S
H172 C184 0.930 . S
H173 C186 0.930 . S
H174 C187 0.930 . S
H175 C191 0.959 . S
H176 C191 0.982 . S
H177 C191 0.961 . S
H178 C192 0.960 . S
H179 C192 0.961 . S
H180 C192 0.959 . S
H181 C195 0.929 . S
H182 C196 0.931 . S
H183 C198 0.930 . S
C184 H172 0.930 . S
C184 C185 1.399 . S
C184 C189 1.399 . S
C185 C184 1.399 . S
C185 C186 1.376 . S
C186 H173 0.930 . S
C186 C185 1.376 . S
C186 C187 1.388 . S
C187 H174 0.930 . S
C187 C186 1.388 . S
C187 C188 1.390 . S
C188 C187 1.390 . S
C188 C189 1.394 . S
C188 C194 1.465 . S
C189 C184 1.399 . S
C189 C188 1.394 . S
C189 C190 1.516 . S
C190 C189 1.516 . S
C190 C191 1.502 . S
C190 C192 1.561 1_545 S
C190 C193 1.526 . S
C191 H175 0.959 . S
C191 H176 0.982 . S
C191 H177 0.961 . S
C191 C190 1.502 . S
C192 H178 0.960 . S
C192 H179 0.961 . S
C192 H180 0.959 . S
C192 C190 1.561 1_565 S
C193 C190 1.526 . S
C193 C194 1.396 . S
C193 C198 1.390 . S
C194 C188 1.465 . S
C194 C193 1.396 . S
C194 C195 1.399 . S
C195 H181 0.929 . S
C195 C194 1.399 . S
C195 C196 1.385 . S
C196 H182 0.931 . S
C196 C195 1.385 . S
C196 C197 1.389 . S
C197 C196 1.389 . S
C197 C198 1.387 . S
C198 H183 0.930 . S
C198 C193 1.390 . S
C198 C197 1.387 . S
H199 C211 0.930 . S
H200 C213 0.930 . S
H201 C214 0.930 . S
H202 C218 0.959 . S
H203 C218 0.959 . S
H204 C218 0.961 . S
H205 C219 0.960 . S
H206 C219 0.961 . S
H207 C219 0.959 . S
H208 C222 0.929 . S
H209 C223 0.931 . S
H210 C225 0.930 . S
C211 H199 0.930 . S
C211 C212 1.399 . S
C211 C216 1.399 . S
C212 C211 1.399 . S
C212 C213 1.376 . S
C213 H200 0.930 . S
C213 C212 1.376 . S
C213 C214 1.388 . S
C214 H201 0.930 . S
C214 C213 1.388 . S
C214 C215 1.390 . S
C215 C214 1.390 . S
C215 C216 1.394 . S
C215 C221 1.465 . S
C216 C211 1.399 . S
C216 C215 1.394 . S
C216 C217 1.516 . S
C217 C216 1.516 . S
C217 C218 1.502 . S
C217 C219 1.561 . S
C217 C220 1.526 . S
C218 H202 0.959 . S
C218 H203 0.959 . S
C218 H204 0.961 . S
C218 C217 1.502 . S
C219 H205 0.960 . S
C219 H206 0.961 . S
C219 H207 0.959 . S
C219 C217 1.561 . S
C220 C217 1.526 . S
C220 C221 1.396 . S
C220 C225 1.390 . S
C221 C215 1.465 . S
C221 C220 1.396 . S
C221 C222 1.399 . S
C222 H208 0.929 . S
C222 C221 1.399 . S
C222 C223 1.385 . S
C223 H209 0.931 . S
C223 C222 1.385 . S
C223 C224 1.389 . S
C224 C223 1.389 . S
C224 C225 1.387 . S
C225 H210 0.930 . S
C225 C220 1.390 . S
C225 C224 1.387 . S
H226 C238 0.930 . S
H227 C240 0.930 . S
H228 C241 0.930 . S
H229 C245 0.959 . S
H230 C245 0.959 . S
H231 C245 0.961 . S
H232 C246 0.960 . S
H233 C246 0.961 . S
H234 C246 0.959 . S
H235 C249 0.929 . S
H236 C250 0.931 . S
H237 C252 0.930 . S
C238 H226 0.930 . S
C238 C239 1.399 . S
C238 C243 1.399 . S
C239 C238 1.399 . S
C239 C240 1.376 . S
C240 H227 0.930 . S
C240 C239 1.376 . S
C240 C241 1.388 . S
C241 H228 0.930 . S
C241 C240 1.388 . S
C241 C242 1.390 . S
C242 C241 1.390 . S
C242 C243 1.394 . S
C242 C248 1.465 . S
C243 C238 1.399 . S
C243 C242 1.394 . S
C243 C244 1.516 . S
C244 C243 1.516 . S
C244 C245 1.502 . S
C244 C246 1.561 . S
C244 C247 1.526 . S
C245 H229 0.959 . S
C245 H230 0.959 . S
C245 H231 0.961 . S
C245 C244 1.502 . S
C246 H232 0.960 . S
C246 H233 0.961 . S
C246 H234 0.959 . S
C246 C244 1.561 . S
C247 C244 1.526 . S
C247 C248 1.396 . S
C247 C252 1.390 . S
C248 C242 1.465 . S
C248 C247 1.396 . S
C248 C249 1.399 . S
C249 H235 0.929 . S
C249 C248 1.399 . S
C249 C250 1.385 . S
C250 H236 0.931 . S
C250 C249 1.385 . S
C250 C251 1.389 . S
C251 C250 1.389 . S
C251 C252 1.387 . S
C252 H237 0.930 . S
C252 C247 1.390 . S
C252 C251 1.387 . S
H253 C265 0.930 . S
H254 C267 0.930 . S
H255 C268 0.930 . S
H256 C272 0.959 . S
H257 C272 0.959 . S
H258 C272 0.961 . S
H259 C273 0.960 . S
H260 C273 0.961 . S
H261 C273 0.959 . S
H262 C276 0.929 . S
H263 C277 0.933 . S
H264 C279 0.930 . S
C265 H253 0.930 . S
C265 C266 1.399 . S
C265 C270 1.399 . S
C266 C265 1.399 . S
C266 C267 1.376 . S
C267 H254 0.930 . S
C267 C266 1.376 . S
C267 C268 1.388 . S
C268 H255 0.930 . S
C268 C267 1.388 . S
C268 C269 1.390 . S
C269 C268 1.390 . S
C269 C270 1.394 . S
C269 C275 1.465 . S
C270 C265 1.399 . S
C270 C269 1.394 . S
C270 C271 1.516 . S
C271 C270 1.516 . S
C271 C272 1.502 . S
C271 C273 1.561 . S
C271 C274 1.526 . S
C272 H256 0.959 . S
C272 H257 0.959 . S
C272 H258 0.961 . S
C272 C271 1.502 . S
C273 H259 0.960 . S
C273 H260 0.961 . S
C273 H261 0.959 . S
C273 C271 1.561 . S
C274 C271 1.526 . S
C274 C275 1.396 . S
C274 C279 1.390 . S
C275 C269 1.465 . S
C275 C274 1.396 . S
C275 C276 1.399 . S
C276 H262 0.929 . S
C276 C275 1.399 . S
C276 C277 1.385 . S
C277 H263 0.933 . S
C277 C276 1.385 . S
C277 C278 1.389 . S
C278 C277 1.389 . S
C278 C279 1.387 . S
C279 H264 0.930 . S
C279 C274 1.390 . S
C279 C278 1.387 . S
H280 C292 0.930 . S
H281 C294 0.929 1_545 S
H282 C295 0.930 . S
H283 C299 0.959 . S
H284 C299 0.959 . S
H285 C299 0.961 . S
H286 C300 0.960 . S
H287 C300 0.961 . S
H288 C300 0.959 1_545 S
H289 C303 0.929 . S
H290 C304 0.931 . S
H291 C306 0.930 . S
C292 H280 0.930 . S
C292 C293 1.399 1_556 S
C292 C297 1.399 . S
C293 C292 1.399 1_554 S
C293 C294 1.379 . S
C294 H281 0.929 1_565 S
C294 C293 1.379 . S
C294 C295 1.387 1_565 S
C295 H282 0.930 . S
C295 C294 1.387 1_545 S
C295 C296 1.390 1_544 S
C296 C295 1.390 1_566 S
C296 C297 1.394 . S
C296 C302 1.465 1_565 S
C297 C292 1.399 . S
C297 C296 1.394 . S
C297 C298 1.516 . S
C298 C297 1.516 . S
C298 C299 1.502 . S
C298 C300 1.561 . S
C298 C301 1.526 . S
C299 H283 0.959 . S
C299 H284 0.959 . S
C299 H285 0.961 . S
C299 C298 1.502 . S
C300 H286 0.960 . S
C300 H287 0.961 . S
C300 H288 0.959 1_565 S
C300 C298 1.561 . S
C301 C298 1.526 . S
C301 C302 1.396 1_565 S
C301 C306 1.390 . S
C302 C296 1.465 1_545 S
C302 C301 1.396 1_545 S
C302 C303 1.399 . S
C303 H289 0.929 . S
C303 C302 1.399 . S
C303 C304 1.385 . S
C304 H290 0.931 . S
C304 C303 1.385 . S
C304 C305 1.389 . S
C305 C304 1.389 . S
C305 C306 1.387 1_545 S
C306 H291 0.930 . S
C306 C301 1.390 . S
C306 C305 1.387 1_565 S
H307 C319 0.930 . S
H308 C321 0.930 . S
H309 C322 0.930 . S
H310 C326 0.959 . S
H311 C326 0.959 . S
H312 C326 0.961 . S
H313 C327 0.960 . S
H314 C327 0.961 . S
H315 C327 0.959 . S
H316 C330 0.929 1_554 S
H317 C331 0.931 . S
H318 C333 0.930 . S
C319 H307 0.930 . S
C319 C320 1.399 1_556 S
C319 C324 1.399 . S
C320 C319 1.399 1_554 S
C320 C321 1.376 . S
C321 H308 0.930 . S
C321 C320 1.376 . S
C321 C322 1.388 . S
C322 H309 0.930 . S
C322 C321 1.388 . S
C322 C323 1.390 1_554 S
C323 C322 1.390 1_556 S
C323 C324 1.394 . S
C323 C329 1.465 . S
C324 C319 1.399 . S
C324 C323 1.394 . S
C324 C325 1.516 . S
C325 C324 1.516 . S
C325 C326 1.502 . S
C325 C327 1.561 . S
C325 C328 1.526 . S
C326 H310 0.959 . S
C326 H311 0.959 . S
C326 H312 0.961 . S
C326 C325 1.502 . S
C327 H313 0.960 . S
C327 H314 0.961 . S
C327 H315 0.959 . S
C327 C325 1.561 . S
C328 C325 1.526 . S
C328 C329 1.396 . S
C328 C333 1.390 . S
C329 C323 1.465 . S
C329 C328 1.396 . S
C329 C330 1.399 . S
C330 H316 0.929 1_556 S
C330 C329 1.399 . S
C330 C331 1.385 . S
C331 H317 0.931 . S
C331 C330 1.385 . S
C331 C332 1.389 . S
C332 C331 1.389 . S
C332 C333 1.387 . S
C333 H318 0.930 . S
C333 C328 1.390 . S
C333 C332 1.387 . S
H334 C346 0.930 . S
H335 C348 0.930 . S
H336 C349 0.930 . S
H337 C353 0.959 . S
H338 C353 0.959 . S
H339 C353 0.961 . S
H340 C354 0.960 . S
H341 C354 0.961 . S
H342 C354 0.959 . S
H343 C357 0.929 . S
H344 C358 0.931 . S
H345 C360 0.930 . S
C346 H334 0.930 . S
C346 C347 1.399 1_556 S
C346 C351 1.399 . S
C347 C346 1.399 1_554 S
C347 C348 1.376 . S
C348 H335 0.930 . S
C348 C347 1.376 . S
C348 C349 1.388 . S
C349 H336 0.930 . S
C349 C348 1.388 . S
C349 C350 1.390 1_554 S
C350 C349 1.390 1_556 S
C350 C351 1.394 . S
C350 C356 1.465 . S
C351 C346 1.399 . S
C351 C350 1.394 . S
C351 C352 1.516 . S
C352 C351 1.516 . S
C352 C353 1.502 . S
C352 C354 1.561 . S
C352 C355 1.526 . S
C353 H337 0.959 . S
C353 H338 0.959 . S
C353 H339 0.961 . S
C353 C352 1.502 . S
C354 H340 0.960 . S
C354 H341 0.961 . S
C354 H342 0.959 . S
C354 C352 1.561 . S
C355 C352 1.526 . S
C355 C356 1.396 . S
C355 C360 1.390 . S
C356 C350 1.465 . S
C356 C355 1.396 . S
C356 C357 1.399 . S
C357 H343 0.929 . S
C357 C356 1.399 . S
C357 C358 1.385 . S
C358 H344 0.931 . S
C358 C357 1.385 . S
C358 C359 1.389 . S
C359 C358 1.389 . S
C359 C360 1.387 . S
C360 H345 0.930 . S
C360 C355 1.390 . S
C360 C359 1.387 . S
H361 C373 0.930 . S
H362 C375 0.930 . S
H363 C376 0.930 . S
H364 C380 0.959 . S
H365 C380 0.959 . S
H366 C380 0.961 . S
H367 C381 0.960 . S
H368 C381 0.961 . S
H369 C381 0.959 . S
H370 C384 0.929 1_554 S
H371 C385 0.931 . S
H372 C387 0.930 . S
C373 H361 0.930 . S
C373 C374 1.399 1_556 S
C373 C378 1.399 . S
C374 C373 1.399 1_554 S
C374 C375 1.376 . S
C375 H362 0.930 . S
C375 C374 1.376 . S
C375 C376 1.388 1_655 S
C376 H363 0.930 . S
C376 C375 1.388 1_455 S
C376 C377 1.390 1_454 S
C377 C376 1.390 1_656 S
C377 C378 1.394 . S
C377 C383 1.465 1_655 S
C378 C373 1.399 . S
C378 C377 1.394 . S
C378 C379 1.516 . S
C379 C378 1.516 . S
C379 C380 1.502 . S
C379 C381 1.561 1_655 S
C379 C382 1.526 . S
C380 H364 0.959 . S
C380 H365 0.959 . S
C380 H366 0.961 . S
C380 C379 1.502 . S
C381 H367 0.960 . S
C381 H368 0.961 . S
C381 H369 0.959 . S
C381 C379 1.561 1_455 S
C382 C379 1.526 . S
C382 C383 1.396 1_655 S
C382 C387 1.390 . S
C383 C377 1.465 1_455 S
C383 C382 1.396 1_455 S
C383 C384 1.399 . S
C384 H370 0.929 1_556 S
C384 C383 1.399 . S
C384 C385 1.385 . S
C385 H371 0.931 . S
C385 C384 1.385 . S
C385 C386 1.389 . S
C386 C385 1.389 . S
C386 C387 1.387 1_455 S
C387 H372 0.930 . S
C387 C382 1.390 . S
C387 C386 1.387 1_655 S
H388 C400 0.930 . S
H389 C402 0.930 . S
H390 C403 0.930 . S
H391 C407 0.959 . S
H392 C407 0.959 . S
H393 C407 0.961 . S
H394 C408 0.960 . S
H395 C408 0.961 1_655 S
H396 C408 0.959 1_655 S
H397 C411 0.929 . S
H398 C412 0.931 . S
H399 C414 0.930 . S
C400 H388 0.930 . S
C400 C401 1.399 . S
C400 C405 1.399 . S
C401 C400 1.399 . S
C401 C402 1.376 . S
C402 H389 0.930 . S
C402 C401 1.376 . S
C402 C403 1.388 . S
C403 H390 0.930 . S
C403 C402 1.388 . S
C403 C404 1.390 . S
C404 C403 1.390 . S
C404 C405 1.394 . S
C404 C410 1.465 . S
C405 C400 1.399 . S
C405 C404 1.394 . S
C405 C406 1.516 . S
C406 C405 1.516 . S
C406 C407 1.502 . S
C406 C408 1.561 . S
C406 C409 1.526 . S
C407 H391 0.959 . S
C407 H392 0.959 . S
C407 H393 0.961 . S
C407 C406 1.502 . S
C408 H394 0.960 . S
C408 H395 0.961 1_455 S
C408 H396 0.959 1_455 S
C408 C406 1.561 . S
C409 C406 1.526 . S
C409 C410 1.396 . S
C409 C414 1.390 . S
C410 C404 1.465 . S
C410 C409 1.396 . S
C410 C411 1.399 . S
C411 H397 0.929 . S
C411 C410 1.399 . S
C411 C412 1.385 . S
C412 H398 0.931 . S
C412 C411 1.385 . S
C412 C413 1.389 . S
C413 C412 1.389 . S
C413 C414 1.387 . S
C414 H399 0.930 . S
C414 C409 1.390 . S
C414 C413 1.387 . S
H415 C427 0.930 . S
H416 C429 0.930 . S
H417 C430 0.930 1_565 S
H418 C434 0.959 . S
H419 C434 0.959 . S
H420 C434 0.961 . S
H421 C435 0.960 . S
H422 C435 0.961 . S
H423 C435 0.959 . S
H424 C438 0.929 . S
H425 C439 0.931 . S
H426 C441 0.930 . S
C427 H415 0.930 . S
C427 C428 1.399 . S
C427 C432 1.399 . S
C428 C427 1.399 . S
C428 C429 1.376 . S
C429 H416 0.930 . S
C429 C428 1.376 . S
C429 C430 1.388 . S
C430 H417 0.930 1_545 S
C430 C429 1.388 . S
C430 C431 1.390 . S
C431 C430 1.390 . S
C431 C432 1.394 . S
C431 C437 1.465 . S
C432 C427 1.399 . S
C432 C431 1.394 . S
C432 C433 1.516 . S
C433 C432 1.516 . S
C433 C434 1.502 . S
C433 C435 1.561 . S
C433 C436 1.526 . S
C434 H418 0.959 . S
C434 H419 0.959 . S
C434 H420 0.961 . S
C434 C433 1.502 . S
C435 H421 0.960 . S
C435 H422 0.961 . S
C435 H423 0.959 . S
C435 C433 1.561 . S
C436 C433 1.526 . S
C436 C437 1.396 . S
C436 C441 1.390 . S
C437 C431 1.465 . S
C437 C436 1.396 . S
C437 C438 1.399 1_545 S
C438 H424 0.929 . S
C438 C437 1.399 1_565 S
C438 C439 1.385 . S
C439 H425 0.931 . S
C439 C438 1.385 . S
C439 C440 1.389 1_565 S
C440 C439 1.389 1_545 S
C440 C441 1.387 . S
C441 H426 0.930 . S
C441 C436 1.390 . S
C441 C440 1.387 . S
H442 C454 0.930 . S
H443 C456 0.930 . S
H444 C457 0.930 . S
H445 C461 0.959 . S
H446 C461 0.959 . S
H447 C461 0.961 . S
H448 C462 0.960 . S
H449 C462 0.961 . S
H450 C462 0.959 . S
H451 C465 0.929 . S
H452 C466 0.931 . S
H453 C468 0.930 . S
C454 H442 0.930 . S
C454 C455 1.399 . S
C454 C459 1.399 . S
C455 C454 1.399 . S
C455 C456 1.376 . S
C456 H443 0.930 . S
C456 C455 1.376 . S
C456 C457 1.388 . S
C457 H444 0.930 . S
C457 C456 1.388 . S
C457 C458 1.390 . S
C458 C457 1.390 . S
C458 C459 1.394 . S
C458 C464 1.465 . S
C459 C454 1.399 . S
C459 C458 1.394 . S
C459 C460 1.516 . S
C460 C459 1.516 . S
C460 C461 1.502 . S
C460 C462 1.561 . S
C460 C463 1.526 . S
C461 H445 0.959 . S
C461 H446 0.959 . S
C461 H447 0.961 . S
C461 C460 1.502 . S
C462 H448 0.960 . S
C462 H449 0.961 . S
C462 H450 0.959 . S
C462 C460 1.561 . S
C463 C460 1.526 . S
C463 C464 1.396 . S
C463 C468 1.390 . S
C464 C458 1.465 . S
C464 C463 1.396 . S
C464 C465 1.399 . S
C465 H451 0.929 . S
C465 C464 1.399 . S
C465 C466 1.385 . S
C466 H452 0.931 . S
C466 C465 1.385 . S
C466 C467 1.389 . S
C467 C466 1.389 . S
C467 C468 1.387 . S
C468 H453 0.930 . S
C468 C463 1.390 . S
C468 C467 1.387 . S
H469 C481 0.930 . S
H470 C483 0.930 . S
H471 C484 0.930 . S
H472 C488 0.959 . S
H473 C488 0.959 . S
H474 C488 0.961 . S
H475 C489 0.960 . S
H476 C489 0.961 . S
H477 C489 0.959 . S
H478 C492 0.929 . S
H479 C493 0.931 . S
H480 C495 0.930 . S
C481 H469 0.930 . S
C481 C482 1.399 . S
C481 C486 1.399 . S
C482 C481 1.399 . S
C482 C483 1.376 . S
C483 H470 0.930 . S
C483 C482 1.376 . S
C483 C484 1.388 . S
C484 H471 0.930 . S
C484 C483 1.388 . S
C484 C485 1.390 . S
C485 C484 1.390 . S
C485 C486 1.394 . S
C485 C491 1.465 . S
C486 C481 1.399 . S
C486 C485 1.394 . S
C486 C487 1.516 . S
C487 C486 1.516 . S
C487 C488 1.502 . S
C487 C489 1.561 . S
C487 C490 1.526 . S
C488 H472 0.959 . S
C488 H473 0.959 . S
C488 H474 0.961 . S
C488 C487 1.502 . S
C489 H475 0.960 . S
C489 H476 0.961 . S
C489 H477 0.959 . S
C489 C487 1.561 . S
C490 C487 1.526 . S
C490 C491 1.396 . S
C490 C495 1.390 . S
C491 C485 1.465 . S
C491 C490 1.396 . S
C491 C492 1.399 . S
C492 H478 0.929 . S
C492 C491 1.399 . S
C492 C493 1.385 . S
C493 H479 0.931 . S
C493 C492 1.385 . S
C493 C494 1.389 . S
C494 C493 1.389 . S
C494 C495 1.387 . S
C495 H480 0.930 . S
C495 C490 1.390 . S
C495 C494 1.387 . S
H496 C508 0.930 . S
H497 C510 0.930 . S
H498 C511 0.930 . S
H499 C515 0.959 . S
H500 C515 0.959 . S
H501 C515 0.961 . S
H502 C516 0.960 . S
H503 C516 0.961 . S
H504 C516 0.959 . S
H505 C519 0.929 1_554 S
H506 C520 0.931 . S
H507 C522 0.930 . S
C508 H496 0.930 . S
C508 C509 1.399 1_556 S
C508 C513 1.399 . S
C509 C508 1.399 1_554 S
C509 C510 1.376 . S
C510 H497 0.930 . S
C510 C509 1.376 . S
C510 C511 1.388 . S
C511 H498 0.930 . S
C511 C510 1.388 . S
C511 C512 1.390 1_554 S
C512 C511 1.390 1_556 S
C512 C513 1.394 . S
C512 C518 1.465 . S
C513 C508 1.399 . S
C513 C512 1.394 . S
C513 C514 1.516 1_655 S
C514 C513 1.516 1_455 S
C514 C515 1.502 . S
C514 C516 1.561 1_455 S
C514 C517 1.526 . S
C515 H499 0.959 . S
C515 H500 0.959 . S
C515 H501 0.961 . S
C515 C514 1.502 . S
C516 H502 0.960 . S
C516 H503 0.961 . S
C516 H504 0.959 . S
C516 C514 1.561 1_655 S
C517 C514 1.526 . S
C517 C518 1.396 1_455 S
C517 C522 1.390 . S
C518 C512 1.465 . S
C518 C517 1.396 1_655 S
C518 C519 1.399 . S
C519 H505 0.929 1_556 S
C519 C518 1.399 . S
C519 C520 1.385 1_655 S
C520 H506 0.931 . S
C520 C519 1.385 1_455 S
C520 C521 1.389 . S
C521 C520 1.389 . S
C521 C522 1.387 . S
C522 H507 0.930 . S
C522 C517 1.390 . S
C522 C521 1.387 . S
H523 C535 0.930 1_545 S
H524 C537 0.930 . S
H525 C538 0.930 . S
H526 C542 0.959 . S
H527 C542 0.959 . S
H528 C542 0.961 . S
H529 C543 0.960 . S
H530 C543 0.961 . S
H531 C543 0.959 1_565 S
H532 C546 0.929 . S
H533 C547 0.931 . S
H534 C549 0.930 . S
C535 H523 0.930 1_565 S
C535 C536 1.399 1_556 S
C535 C540 1.399 . S
C536 C535 1.399 1_554 S
C536 C537 1.376 . S
C537 H524 0.930 . S
C537 C536 1.376 . S
C537 C538 1.388 . S
C538 H525 0.930 . S
C538 C537 1.388 . S
C538 C539 1.390 1_554 S
C539 C538 1.390 1_556 S
C539 C540 1.394 . S
C539 C545 1.465 . S
C540 C535 1.399 . S
C540 C539 1.394 . S
C540 C541 1.516 1_565 S
C541 C540 1.516 1_545 S
C541 C542 1.502 . S
C541 C543 1.561 . S
C541 C544 1.526 . S
C542 H526 0.959 . S
C542 H527 0.959 . S
C542 H528 0.961 . S
C542 C541 1.502 . S
C543 H529 0.960 . S
C543 H530 0.961 . S
C543 H531 0.959 1_545 S
C543 C541 1.561 . S
C544 C541 1.526 . S
C544 C545 1.396 1_545 S
C544 C549 1.390 . S
C545 C539 1.465 . S
C545 C544 1.396 1_565 S
C545 C546 1.399 . S
C546 H532 0.929 . S
C546 C545 1.399 . S
C546 C547 1.385 . S
C547 H533 0.931 . S
C547 C546 1.385 . S
C547 C548 1.389 1_565 S
C548 C547 1.389 1_545 S
C548 C549 1.387 . S
C549 H534 0.930 . S
C549 C544 1.390 . S
C549 C548 1.387 . S
H550 C562 0.930 . S
H551 C564 0.930 . S
H552 C565 0.930 . S
H553 C569 0.959 . S
H554 C569 0.959 . S
H555 C569 0.961 . S
H556 C570 0.960 . S
H557 C570 0.961 . S
H558 C570 0.959 . S
H559 C573 0.929 1_554 S
H560 C574 0.931 . S
H561 C576 0.930 . S
C562 H550 0.930 . S
C562 C563 1.399 1_556 S
C562 C567 1.399 . S
C563 C562 1.399 1_554 S
C563 C564 1.376 . S
C564 H551 0.930 . S
C564 C563 1.376 . S
C564 C565 1.388 . S
C565 H552 0.930 . S
C565 C564 1.388 . S
C565 C566 1.390 1_554 S
C566 C565 1.390 1_556 S
C566 C567 1.394 . S
C566 C572 1.465 . S
C567 C562 1.399 . S
C567 C566 1.394 . S
C567 C568 1.516 . S
C568 C567 1.516 . S
C568 C569 1.502 . S
C568 C570 1.561 . S
C568 C571 1.526 . S
C569 H553 0.959 . S
C569 H554 0.959 . S
C569 H555 0.961 . S
C569 C568 1.502 . S
C570 H556 0.960 . S
C570 H557 0.961 . S
C570 H558 0.959 . S
C570 C568 1.561 . S
C571 C568 1.526 . S
C571 C572 1.396 . S
C571 C576 1.390 . S
C572 C566 1.465 . S
C572 C571 1.396 . S
C572 C573 1.399 . S
C573 H559 0.929 1_556 S
C573 C572 1.399 . S
C573 C574 1.385 . S
C574 H560 0.931 . S
C574 C573 1.385 . S
C574 C575 1.389 . S
C575 C574 1.389 . S
C575 C576 1.387 . S
C576 H561 0.930 . S
C576 C571 1.390 . S
C576 C575 1.387 . S
H577 C589 0.930 . S
H578 C591 0.930 . S
H579 C592 0.930 . S
H580 C596 0.959 . S
H581 C596 0.959 . S
H582 C596 0.961 . S
H583 C597 0.960 . S
H584 C597 0.961 . S
H585 C597 0.959 . S
H586 C600 0.929 . S
H587 C601 0.931 . S
H588 C603 0.930 . S
C589 H577 0.930 . S
C589 C590 1.399 1_556 S
C589 C594 1.399 . S
C590 C589 1.399 1_554 S
C590 C591 1.376 . S
C591 H578 0.930 . S
C591 C590 1.376 . S
C591 C592 1.388 . S
C592 H579 0.930 . S
C592 C591 1.388 . S
C592 C593 1.390 1_554 S
C593 C592 1.390 1_556 S
C593 C594 1.394 . S
C593 C599 1.465 . S
C594 C589 1.399 . S
C594 C593 1.394 . S
C594 C595 1.516 . S
C595 C594 1.516 . S
C595 C596 1.502 . S
C595 C597 1.561 . S
C595 C598 1.526 . S
C596 H580 0.959 . S
C596 H581 0.959 . S
C596 H582 0.961 . S
C596 C595 1.502 . S
C597 H583 0.960 . S
C597 H584 0.961 . S
C597 H585 0.959 . S
C597 C595 1.561 . S
C598 C595 1.526 . S
C598 C599 1.396 . S
C598 C603 1.390 . S
C599 C593 1.465 . S
C599 C598 1.396 . S
C599 C600 1.399 . S
C600 H586 0.929 . S
C600 C599 1.399 . S
C600 C601 1.385 . S
C601 H587 0.931 . S
C601 C600 1.385 . S
C601 C602 1.389 . S
C602 C601 1.389 . S
C602 C603 1.387 . S
C603 H588 0.930 . S
C603 C598 1.390 . S
C603 C602 1.387 . S
H604 C616 0.930 . S
H605 C618 0.930 . S
H606 C619 0.930 1_556 S
H607 C623 0.959 . S
H608 C623 0.959 . S
H609 C623 0.961 . S
H610 C624 0.960 . S
H611 C624 0.961 . S
H612 C624 0.959 . S
H613 C627 0.929 . S
H614 C628 0.931 . S
H615 C630 0.930 1_554 S
C616 H604 0.930 . S
C616 C617 1.399 . S
C616 C621 1.399 . S
C617 C616 1.399 . S
C617 C618 1.376 . S
C618 H605 0.930 . S
C618 C617 1.376 . S
C618 C619 1.388 . S
C619 H606 0.930 1_554 S
C619 C618 1.388 . S
C619 C620 1.390 . S
C620 C619 1.390 . S
C620 C621 1.394 . S
C620 C626 1.465 1_554 S
C621 C616 1.399 . S
C621 C620 1.394 . S
C621 C622 1.516 . S
C622 C621 1.516 . S
C622 C623 1.502 . S
C622 C624 1.561 . S
C622 C625 1.526 . S
C623 H607 0.959 . S
C623 H608 0.959 . S
C623 H609 0.961 . S
C623 C622 1.502 . S
C624 H610 0.960 . S
C624 H611 0.961 . S
C624 H612 0.959 . S
C624 C622 1.561 . S
C625 C622 1.526 . S
C625 C626 1.396 1_554 S
C625 C630 1.390 1_554 S
C626 C620 1.465 1_556 S
C626 C625 1.396 1_556 S
C626 C627 1.399 . S
C627 H613 0.929 . S
C627 C626 1.399 . S
C627 C628 1.385 . S
C628 H614 0.931 . S
C628 C627 1.385 . S
C628 C629 1.389 . S
C629 C628 1.389 . S
C629 C630 1.387 . S
C630 H615 0.930 1_556 S
C630 C625 1.390 1_556 S
C630 C629 1.387 . S
H631 C643 0.930 . S
H632 C645 0.930 . S
H633 C646 0.930 1_565 S
H634 C650 0.959 . S
H635 C650 0.959 . S
H636 C650 0.961 . S
H637 C651 0.960 . S
H638 C651 0.961 . S
H639 C651 0.959 . S
H640 C654 0.930 1_564 S
H641 C655 0.931 1_565 S
H642 C657 0.930 . S
C643 H631 0.930 . S
C643 C644 1.399 . S
C643 C648 1.399 . S
C644 C643 1.399 . S
C644 C645 1.376 . S
C645 H632 0.930 . S
C645 C644 1.376 . S
C645 C646 1.388 . S
C646 H633 0.930 1_545 S
C646 C645 1.388 . S
C646 C647 1.390 . S
C647 C646 1.390 . S
C647 C648 1.394 . S
C647 C653 1.465 . S
C648 C643 1.399 . S
C648 C647 1.394 . S
C648 C649 1.516 . S
C649 C648 1.516 . S
C649 C650 1.502 1_554 S
C649 C651 1.561 . S
C649 C652 1.526 1_554 S
C650 H634 0.959 . S
C650 H635 0.959 . S
C650 H636 0.961 . S
C650 C649 1.502 1_556 S
C651 H637 0.960 . S
C651 H638 0.961 . S
C651 H639 0.959 . S
C651 C649 1.561 . S
C652 C649 1.526 1_556 S
C652 C653 1.396 1_556 S
C652 C657 1.390 . S
C653 C647 1.465 . S
C653 C652 1.396 1_554 S
C653 C654 1.399 1_554 S
C654 H640 0.930 1_546 S
C654 C653 1.399 1_556 S
C654 C655 1.384 . S
C655 H641 0.931 1_545 S
C655 C654 1.384 . S
C655 C656 1.389 . S
C656 C655 1.389 . S
C656 C657 1.387 . S
C657 H642 0.930 . S
C657 C652 1.390 . S
C657 C656 1.387 . S
H658 C670 0.930 . S
H659 C672 0.930 . S
H660 C673 0.930 . S
H661 C677 0.959 . S
H662 C677 0.959 . S
H663 C677 0.961 . S
H664 C678 0.960 . S
H665 C678 0.961 . S
H666 C678 0.959 . S
H667 C681 0.929 . S
H668 C682 0.931 1_554 S
H669 C684 0.930 . S
C670 H658 0.930 . S
C670 C671 1.399 . S
C670 C675 1.399 . S
C671 C670 1.399 . S
C671 C672 1.376 . S
C672 H659 0.930 . S
C672 C671 1.376 . S
C672 C673 1.388 . S
C673 H660 0.930 . S
C673 C672 1.388 . S
C673 C674 1.390 . S
C674 C673 1.390 . S
C674 C675 1.394 . S
C674 C680 1.465 . S
C675 C670 1.399 . S
C675 C674 1.394 . S
C675 C676 1.516 1_554 S
C676 C675 1.516 1_556 S
C676 C677 1.502 . S
C676 C678 1.561 . S
C676 C679 1.526 . S
C677 H661 0.959 . S
C677 H662 0.959 . S
C677 H663 0.961 . S
C677 C676 1.502 . S
C678 H664 0.960 . S
C678 H665 0.961 . S
C678 H666 0.959 . S
C678 C676 1.561 . S
C679 C676 1.526 . S
C679 C680 1.396 1_556 S
C679 C684 1.390 . S
C680 C674 1.465 . S
C680 C679 1.396 1_554 S
C680 C681 1.399 . S
C681 H667 0.929 . S
C681 C680 1.399 . S
C681 C682 1.385 1_554 S
C682 H668 0.931 1_556 S
C682 C681 1.385 1_556 S
C682 C683 1.389 . S
C683 C682 1.389 . S
C683 C684 1.387 . S
C684 H669 0.930 . S
C684 C679 1.390 . S
C684 C683 1.387 . S
H685 C697 0.930 . S
H686 C699 0.930 . S
H687 C700 0.930 1_556 S
H688 C704 0.959 . S
H689 C704 0.959 . S
H690 C704 0.961 . S
H691 C705 0.960 . S
H692 C705 0.961 . S
H693 C705 0.959 . S
H694 C708 0.929 . S
H695 C709 0.931 . S
H696 C711 0.930 . S
C697 H685 0.930 . S
C697 C698 1.399 . S
C697 C702 1.399 . S
C698 C697 1.399 . S
C698 C699 1.376 . S
C699 H686 0.930 . S
C699 C698 1.376 . S
C699 C700 1.388 . S
C700 H687 0.930 1_554 S
C700 C699 1.388 . S
C700 C701 1.390 . S
C701 C700 1.390 . S
C701 C702 1.394 . S
C701 C707 1.465 1_554 S
C702 C697 1.399 . S
C702 C701 1.394 . S
C702 C703 1.516 . S
C703 C702 1.516 . S
C703 C704 1.502 . S
C703 C705 1.561 . S
C703 C706 1.526 . S
C704 H688 0.959 . S
C704 H689 0.959 . S
C704 H690 0.961 . S
C704 C703 1.502 . S
C705 H691 0.960 . S
C705 H692 0.961 . S
C705 H693 0.959 . S
C705 C703 1.561 . S
C706 C703 1.526 . S
C706 C707 1.396 1_554 S
C706 C711 1.390 1_554 S
C707 C701 1.465 1_556 S
C707 C706 1.396 1_556 S
C707 C708 1.399 . S
C708 H694 0.929 . S
C708 C707 1.399 . S
C708 C709 1.385 . S
C709 H695 0.931 . S
C709 C708 1.385 . S
C709 C710 1.389 . S
C710 C709 1.389 . S
C710 C711 1.387 . S
C711 H696 0.930 . S
C711 C706 1.390 1_556 S
C711 C710 1.387 . S
H712 C724 0.930 . S
H713 C726 0.930 . S
H714 C727 0.930 . S
H715 C731 0.959 . S
H716 C731 0.959 . S
H717 C731 0.961 . S
H718 C732 0.960 . S
H719 C732 0.961 . S
H720 C732 0.959 . S
H721 C735 0.929 . S
H722 C736 0.931 . S
H723 C738 0.930 . S
C724 H712 0.930 . S
C724 C725 1.399 . S
C724 C729 1.399 . S
C725 C724 1.399 . S
C725 C726 1.376 1_655 S
C726 H713 0.930 . S
C726 C725 1.376 1_455 S
C726 C727 1.388 . S
C727 H714 0.930 . S
C727 C726 1.388 . S
C727 C728 1.376 1_455 S
C728 C727 1.376 1_655 S
C728 C729 1.414 . S
C728 C734 1.463 1_655 S
C729 C724 1.399 . S
C729 C728 1.414 . S
C729 C730 1.516 . S
C730 C729 1.516 . S
C730 C731 1.502 . S
C730 C732 1.561 . S
C730 C733 1.526 . S
C731 H715 0.959 . S
C731 H716 0.959 . S
C731 H717 0.961 . S
C731 C730 1.502 . S
C732 H718 0.960 . S
C732 H719 0.961 . S
C732 H720 0.959 . S
C732 C730 1.561 . S
C733 C730 1.526 . S
C733 C734 1.396 1_655 S
C733 C738 1.390 . S
C734 C728 1.463 1_455 S
C734 C733 1.396 1_455 S
C734 C735 1.399 . S
C735 H721 0.929 . S
C735 C734 1.399 . S
C735 C736 1.385 . S
C736 H722 0.931 . S
C736 C735 1.385 . S
C736 C737 1.389 1_455 S
C737 C736 1.389 1_655 S
C737 C738 1.387 . S
C738 H723 0.930 . S
C738 C733 1.390 . S
C738 C737 1.387 . S
H739 C751 0.930 . S
H740 C753 0.941 . S
H741 C754 0.930 . S
H742 C758 0.959 . S
H743 C758 0.959 . S
H744 C758 0.961 . S
H745 C759 0.960 . S
H746 C759 0.961 . S
H747 C759 0.959 . S
H748 C762 0.929 . S
H749 C763 0.931 . S
H750 C765 0.930 . S
C751 H739 0.930 . S
C751 C752 1.399 . S
C751 C756 1.399 . S
C752 C751 1.399 . S
C752 C753 1.361 1_565 S
C753 H740 0.941 . S
C753 C752 1.361 1_545 S
C753 C754 1.394 . S
C754 H741 0.930 . S
C754 C753 1.394 . S
C754 C755 1.390 1_545 S
C755 C754 1.390 1_565 S
C755 C756 1.394 . S
C755 C761 1.465 . S
C756 C751 1.399 . S
C756 C755 1.394 . S
C756 C757 1.516 . S
C757 C756 1.516 . S
C757 C758 1.502 . S
C757 C759 1.561 . S
C757 C760 1.526 . S
C758 H742 0.959 . S
C758 H743 0.959 . S
C758 H744 0.961 . S
C758 C757 1.502 . S
C759 H745 0.960 . S
C759 H746 0.961 . S
C759 H747 0.959 . S
C759 C757 1.561 . S
C760 C757 1.526 . S
C760 C761 1.396 . S
C760 C765 1.390 . S
C761 C755 1.465 . S
C761 C760 1.396 . S
C761 C762 1.399 1_565 S
C762 H748 0.929 . S
C762 C761 1.399 1_545 S
C762 C763 1.385 . S
C763 H749 0.931 . S
C763 C762 1.385 . S
C763 C764 1.389 1_545 S
C764 C763 1.389 1_565 S
C764 C765 1.387 . S
C765 H750 0.930 . S
C765 C760 1.390 . S
C765 C764 1.387 . S
H766 C778 0.930 . S
H767 C780 0.930 . S
H768 C781 0.930 . S
H769 C785 0.959 . S
H770 C785 0.959 . S
H771 C785 0.961 . S
H772 C786 0.960 . S
H773 C786 0.961 . S
H774 C786 0.959 . S
H775 C789 0.929 . S
H776 C790 0.931 . S
H777 C792 0.930 . S
C778 H766 0.930 . S
C778 C779 1.399 . S
C778 C783 1.399 . S
C779 C778 1.399 . S
C779 C780 1.376 . S
C780 H767 0.930 . S
C780 C779 1.376 . S
C780 C781 1.388 . S
C781 H768 0.930 . S
C781 C780 1.388 . S
C781 C782 1.390 . S
C782 C781 1.390 . S
C782 C783 1.394 . S
C782 C788 1.465 . S
C783 C778 1.399 . S
C783 C782 1.394 . S
C783 C784 1.516 . S
C784 C783 1.516 . S
C784 C785 1.502 . S
C784 C786 1.561 . S
C784 C787 1.526 . S
C785 H769 0.959 . S
C785 H770 0.959 . S
C785 H771 0.961 . S
C785 C784 1.502 . S
C786 H772 0.960 . S
C786 H773 0.961 . S
C786 H774 0.959 . S
C786 C784 1.561 . S
C787 C784 1.526 . S
C787 C788 1.396 . S
C787 C792 1.390 . S
C788 C782 1.465 . S
C788 C787 1.396 . S
C788 C789 1.399 . S
C789 H775 0.929 . S
C789 C788 1.399 . S
C789 C790 1.385 . S
C790 H776 0.931 . S
C790 C789 1.385 . S
C790 C791 1.389 . S
C791 C790 1.389 . S
C791 C792 1.387 . S
C792 H777 0.930 . S
C792 C787 1.390 . S
C792 C791 1.387 . S
H793 C805 0.930 . S
H794 C807 0.930 . S
H795 C808 0.930 . S
H796 C812 0.959 . S
H797 C812 0.959 . S
H798 C812 0.961 . S
H799 C813 0.960 . S
H800 C813 0.961 . S
H801 C813 0.959 . S
H802 C816 0.929 . S
H803 C817 0.931 . S
H804 C819 0.930 . S
C805 H793 0.930 . S
C805 C806 1.399 . S
C805 C810 1.399 . S
C806 C805 1.399 . S
C806 C807 1.376 . S
C807 H794 0.930 . S
C807 C806 1.376 . S
C807 C808 1.388 . S
C808 H795 0.930 . S
C808 C807 1.388 . S
C808 C809 1.390 . S
C809 C808 1.390 . S
C809 C810 1.394 . S
C809 C815 1.465 . S
C810 C805 1.399 . S
C810 C809 1.394 . S
C810 C811 1.516 . S
C811 C810 1.516 . S
C811 C812 1.502 . S
C811 C813 1.561 . S
C811 C814 1.526 . S
C812 H796 0.959 . S
C812 H797 0.959 . S
C812 H798 0.961 . S
C812 C811 1.502 . S
C813 H799 0.960 . S
C813 H800 0.961 . S
C813 H801 0.959 . S
C813 C811 1.561 . S
C814 C811 1.526 . S
C814 C815 1.396 . S
C814 C819 1.390 . S
C815 C809 1.465 . S
C815 C814 1.396 . S
C815 C816 1.399 . S
C816 H802 0.929 . S
C816 C815 1.399 . S
C816 C817 1.385 . S
C817 H803 0.931 . S
C817 C816 1.385 . S
C817 C818 1.389 . S
C818 C817 1.389 . S
C818 C819 1.387 . S
C819 H804 0.930 . S
C819 C814 1.390 . S
C819 C818 1.387 . S
C185 C76 1.546 . S
C197 C104 1.483 . S
C224 C122 1.402 . S
C212 C87 1.544 . S
C251 C143 1.494 . S
C239 C54 1.563 . S
C278 C167 1.406 . S
C266 C65 1.542 . S
C305 C101 1.287 . S
C293 C32 1.490 . S
C320 C43 1.506 . S
C332 C125 1.310 . S
C347 C10 1.519 . S
C359 C146 1.371 . S
C374 C21 1.502 . S
C386 C164 1.302 . S
C413 C106 0.726 . S
C401 C60 0.550 . S
C440 C124 0.676 . S
C428 C71 0.605 . S
C467 C145 0.644 . S
C455 C82 0.643 . S
C482 C49 0.726 . S
C494 C169 0.592 . S
C509 C16 0.710 . S
C521 C105 0.782 . S
C548 C123 0.777 . S
C536 C27 0.748 . S
C575 C144 0.778 . S
C563 C38 0.672 . S
C590 C5 0.647 . S
C602 C168 0.736 . S
C617 C59 1.616 . S
C629 C102 1.531 . S
C644 C70 1.564 . S
C656 C126 1.518 . S
C683 C147 1.579 . S
C671 C81 1.560 . S
C710 C165 1.571 . S
C698 C48 1.622 . S
C725 C15 1.454 . S
C737 C103 1.380 1_655 S
C764 C127 1.372 1_565 S
C752 C26 1.480 . S
C791 C148 1.450 . S
C779 C37 1.469 . S
C806 C4 1.463 . S
C818 C166 1.375 . S
