# Generated by pormake.
# Topology tsx, (6,3)-cn, num edge types: 1
# Building blocks:
#     Node 0, Type 0, BuildingBlock: JUFBIX_clean_sbu_0, # of connection points: 6
#     Node 1, Type 0, BuildingBlock: JUFBIX_clean_sbu_0, # of connection points: 6
#     Node 2, Type 1, BuildingBlock: ESEHIV_clean_linker_0, # of connection points: 3
#     Node 3, Type 1, BuildingBlock: ESEHIV_clean_linker_0, # of connection points: 3
#     Node 4, Type 1, BuildingBlock: ESEHIV_clean_linker_0, # of connection points: 3
#     Node 5, Type 1, BuildingBlock: ESEHIV_clean_linker_0, # of connection points: 3
#     Edge 6, Type (0, 1), BuildingBlock: FUNLAD_clean_linker_1, # of connection points: 2
#     Edge 7, Type (0, 1), BuildingBlock: FUNLAD_clean_linker_1, # of connection points: 2
#     Edge 8, Type (0, 1), BuildingBlock: FUNLAD_clean_linker_1, # of connection points: 2
#     Edge 9, Type (0, 1), BuildingBlock: FUNLAD_clean_linker_1, # of connection points: 2
#     Edge 10, Type (0, 1), BuildingBlock: FUNLAD_clean_linker_1, # of connection points: 2
#     Edge 11, Type (0, 1), BuildingBlock: FUNLAD_clean_linker_1, # of connection points: 2
#     Edge 12, Type (0, 1), BuildingBlock: FUNLAD_clean_linker_1, # of connection points: 2
#     Edge 13, Type (0, 1), BuildingBlock: FUNLAD_clean_linker_1, # of connection points: 2
#     Edge 14, Type (0, 1), BuildingBlock: FUNLAD_clean_linker_1, # of connection points: 2
#     Edge 15, Type (0, 1), BuildingBlock: FUNLAD_clean_linker_1, # of connection points: 2
#     Edge 16, Type (0, 1), BuildingBlock: FUNLAD_clean_linker_1, # of connection points: 2
#     Edge 17, Type (0, 1), BuildingBlock: FUNLAD_clean_linker_1, # of connection points: 2
# Relax obj value: 0.160
# Max RMSD: 0.168
# Mean RMSD: 0.137
data_MOF--net-tsx--node1-JUFBIX_clean_sbu_0--node2-ESEHIV_clean_linker_0--edge1-FUNLAD_clean_linker_1
_symmetry_space_group_name_H-M    P1
_symmetry_Int_Tables_number       1
_symmetry_cell_setting            triclinic
loop_
_symmetry_equiv_pos_as_xyz
'x, y, z'
_cell_length_a     19.363884
_cell_length_b     23.004186
_cell_length_c     35.171132
_cell_angle_alpha  92.708629
_cell_angle_beta   89.393285
_cell_angle_gamma 99.60814
loop_
_atom_site_label
_atom_site_type_symbol
_atom_site_fract_x
_atom_site_fract_y
_atom_site_fract_z
_atom_type_partial_charge
Co0 Co 0.04944 0.00724 0.00701 0.0
C1 C 0.99538 0.04415 0.94031 0.0
Co2 Co 0.96853 0.06475 0.01592 0.0
C3 C 0.133 0.90995 0.00494 0.0
C4 C 0.17761 0.98579 0.97454 0.0
N5 N 0.12202 0.96452 0.99625 0.0
N6 N 0.19359 0.8973 0.98953 0.0
C7 C 0.2215 0.94505 0.97067 0.0
H8 H 0.09718 0.88024 0.0218 0.0
H9 H 0.18534 0.02811 0.9616 0.0
C10 C 0.02191 0.02757 0.08257 0.0
N11 N 0.89743 0.10881 0.02566 0.0
C12 C 0.87969 0.15269 0.00552 0.0
C13 C 0.8508 0.10246 0.05457 0.0
N14 N 0.82432 0.17408 0.02084 0.0
C15 C 0.80587 0.14251 0.05173 0.0
C16 C 0.91747 0.94286 0.00985 0.0
O17 O 0.05848 0.99942 0.0604 0.0
O18 O 0.98112 0.05897 0.06881 0.0
O19 O 0.90149 0.99406 0.01514 0.0
O20 O 0.98126 0.93728 0.00455 0.0
O21 O 0.95713 0.06973 0.96279 0.0
H22 H 0.84872 0.06999 0.076 0.0
H23 H 0.90645 0.16842 0.97986 0.0
O24 O 0.03925 0.01529 0.95381 0.0
O25 O 0.11637 0.07841 0.01024 0.0
O26 O 0.0361 0.13502 0.01713 0.0
C27 C 0.10022 0.12955 0.0146 0.0
H28 H 0.26981 0.94956 0.95445 0.0
H29 H 0.76179 0.14654 0.07026 0.0
Co30 Co 0.58905 0.48516 0.50702 0.0
C31 C 0.53404 0.52824 0.44282 0.0
Co32 Co 0.50837 0.54144 0.5193 0.0
C33 C 0.66196 0.38368 0.50276 0.0
C34 C 0.71498 0.45773 0.47339 0.0
N35 N 0.65745 0.43973 0.49447 0.0
N36 N 0.72048 0.36654 0.48807 0.0
C37 C 0.75375 0.41304 0.46944 0.0
H38 H 0.62275 0.35569 0.51882 0.0
H39 H 0.72727 0.50031 0.4609 0.0
C40 C 0.56257 0.49742 0.58345 0.0
N41 N 0.44212 0.58885 0.53216 0.0
C42 C 0.38783 0.60024 0.51158 0.0
C43 C 0.4431 0.62457 0.56379 0.0
N44 N 0.35567 0.64206 0.52889 0.0
C45 C 0.39005 0.65718 0.56194 0.0
C46 C 0.45385 0.4227 0.50877 0.0
O47 O 0.59994 0.47313 0.55968 0.0
O48 O 0.52 0.52885 0.57155 0.0
O49 O 0.43798 0.47361 0.51592 0.0
O50 O 0.51763 0.41733 0.50353 0.0
O51 O 0.49752 0.55288 0.46683 0.0
H52 H 0.48171 0.62852 0.58617 0.0
H53 H 0.37403 0.58029 0.48361 0.0
O54 O 0.57739 0.49715 0.4544 0.0
O55 O 0.65932 0.5539 0.51105 0.0
O56 O 0.57896 0.60911 0.52264 0.0
C57 C 0.6429 0.60445 0.51797 0.0
H58 H 0.80113 0.41409 0.45272 0.0
H59 H 0.37954 0.69066 0.58281 0.0
H60 H 0.95404 0.03333 0.37349 0.0
H61 H 0.08036 0.89748 0.3807 0.0
H62 H 0.02148 0.98857 0.48252 0.0
C63 C 0.98169 0.00628 0.39006 0.0
C64 C 0.98289 0.01518 0.42991 0.0
C65 C 0.01796 0.96448 0.37198 0.0
C66 C 0.05182 0.92929 0.39455 0.0
C67 C 0.05214 0.93679 0.43449 0.0
C68 C 0.0196 0.98128 0.45185 0.0
H69 H 0.94802 0.96481 0.64135 0.0
H70 H 0.09954 0.12319 0.63957 0.0
H71 H 0.99338 0.05228 0.53629 0.0
C72 C 0.97691 1.00044 0.6257 0.0
C73 C 0.96628 1.0024 0.58632 0.0
C74 C 0.02432 0.04435 0.64505 0.0
C75 C 0.06302 0.08929 0.62449 0.0
C76 C 0.05261 0.09232 0.58515 0.0
C77 C 1.00246 0.04971 0.56645 0.0
H78 H 0.40207 0.56578 0.88014 0.0
H79 H 0.56304 0.45926 0.88487 0.0
H80 H 0.45059 0.49721 0.98641 0.0
C81 C 0.43282 0.54082 0.89659 0.0
C82 C 0.42264 0.5375 0.93617 0.0
C83 C 0.48189 0.51131 0.87758 0.0
C84 C 0.52162 0.47838 0.89872 0.0
C85 C 0.50979 0.47194 0.93798 0.0
C86 C 0.46004 0.50166 0.95628 0.0
H87 H 0.44767 0.46087 0.14481 0.0
H88 H 0.63006 0.59487 0.13998 0.0
H89 H 0.51123 0.53821 0.03837 0.0
C90 C 0.48327 0.49186 0.12868 0.0
C91 C 0.47318 0.4944 0.08929 0.0
C92 C 0.53902 0.52898 0.14719 0.0
C93 C 0.58563 0.56791 0.12582 0.0
C94 C 0.57546 0.57209 0.08657 0.0
C95 C 0.51899 0.53521 0.06855 0.0
H96 H 0.21044 0.17288 0.01562 0.0
C97 C 0.15686 0.18085 0.01904 0.0
H98 H 0.0926 0.24322 0.03596 0.0
H99 H 0.33245 0.38457 0.14229 0.0
H100 H 0.24872 0.34091 0.18872 0.0
H101 H 0.14452 0.26945 0.16868 0.0
H102 H 0.12302 0.2419 0.10197 0.0
C103 C 0.14553 0.23502 0.03042 0.0
C104 C 0.20559 0.28179 0.04178 0.0
C105 C 0.2173 0.29766 0.08088 0.0
C106 C 0.27828 0.3378 0.09247 0.0
C107 C 0.28804 0.35326 0.13179 0.0
C108 C 0.24014 0.32873 0.15882 0.0
C109 C 0.18142 0.2886 0.14754 0.0
C110 C 0.16976 0.27318 0.1091 0.0
H111 H 0.38338 0.47488 0.04934 0.0
C112 C 0.41323 0.4559 0.0701 0.0
H113 H 0.42562 0.38004 0.09874 0.0
H114 H 0.19374 0.26686 0.9645 0.0
H115 H 0.27904 0.30793 0.9177 0.0
H116 H 0.38911 0.37147 0.93778 0.0
H117 H 0.41442 0.39477 0.00468 0.0
C118 C 0.39475 0.39885 0.07839 0.0
C119 C 0.32817 0.36146 0.06497 0.0
C120 C 0.31568 0.34636 0.02572 0.0
C121 C 0.25355 0.3075 0.01414 0.0
C122 C 0.24103 0.29477 0.9748 0.0
C123 C 0.28935 0.31823 0.94766 0.0
C124 C 0.35118 0.35428 0.95898 0.0
C125 C 0.36471 0.3679 0.9975 0.0
H126 H 0.27663 0.84667 0.97693 0.0
C127 C 0.22505 0.84484 0.98991 0.0
H128 H 0.14003 0.78823 0.01382 0.0
H129 H 0.23802 0.57671 0.9139 0.0
H130 H 0.11989 0.57556 0.8908 0.0
H131 H 0.04942 0.64911 0.91555 0.0
H132 H 0.09635 0.72412 0.9636 0.0
C133 C 0.19289 0.79291 0.00248 0.0
C134 C 0.22693 0.73956 0.99541 0.0
C135 C 0.19788 0.69509 0.96814 0.0
C136 C 0.2387 0.65291 0.95363 0.0
C137 C 0.20932 0.61001 0.92558 0.0
C138 C 0.14162 0.60878 0.91218 0.0
C139 C 0.10193 0.65019 0.92614 0.0
C140 C 0.12952 0.69306 0.9537 0.0
H141 H 0.35381 0.55572 0.98485 0.0
C142 C 0.37334 0.57082 0.9573 0.0
H143 H 0.37632 0.63865 0.91831 0.0
H144 H 0.29085 0.80897 0.05421 0.0
H145 H 0.40774 0.80821 0.07877 0.0
H146 H 0.48039 0.73772 0.05189 0.0
H147 H 0.43656 0.66713 0.00072 0.0
C148 C 0.35576 0.62087 0.94491 0.0
C149 C 0.3082 0.6551 0.96651 0.0
C150 C 0.33474 0.69586 0.99643 0.0
C151 C 0.2936 0.73758 0.01125 0.0
C152 C 0.32093 0.77753 0.04133 0.0
C153 C 0.38762 0.77728 0.05577 0.0
C154 C 0.42849 0.73752 0.04067 0.0
C155 C 0.40269 0.69722 0.0113 0.0
H156 H 0.81045 0.89953 0.02262 0.0
C157 C 0.86203 0.89114 0.01379 0.0
H158 H 0.9259 0.82633 0.00322 0.0
H159 H 0.75979 0.65378 0.11978 0.0
H160 H 0.87554 0.67637 0.14775 0.0
H161 H 0.96735 0.74986 0.12007 0.0
H162 H 0.9443 0.80064 0.06408 0.0
C163 C 0.87401 0.83527 0.01078 0.0
C164 C 0.82058 0.78625 0.02454 0.0
C165 C 0.83515 0.75681 0.05732 0.0
C166 C 0.78173 0.71545 0.07381 0.0
C167 C 0.79791 0.68646 0.10645 0.0
C168 C 0.86428 0.6988 0.12274 0.0
C169 C 0.916 0.74006 0.10711 0.0
C170 C 0.90194 0.76891 0.07486 0.0
H171 H 0.63562 0.59988 0.03456 0.0
C172 C 0.62504 0.61316 0.06384 0.0
H173 H 0.6454 0.68018 0.1073 0.0
H174 H 0.779 0.82665 0.95805 0.0
H175 H 0.66202 0.80645 0.93101 0.0
H176 H 0.56661 0.74112 0.96258 0.0
H177 H 0.58784 0.69462 0.02069 0.0
C178 C 0.65669 0.66596 0.07834 0.0
C179 C 0.71349 0.70414 0.0579 0.0
C180 C 0.69939 0.73225 0.02446 0.0
C181 C 0.75354 0.77223 0.00726 0.0
C182 C 0.73901 0.7978 0.97303 0.0
C183 C 0.67227 0.78629 0.95711 0.0
C184 C 0.61862 0.74933 0.97479 0.0
C185 C 0.63167 0.72261 0.0081 0.0
H186 H 0.79945 0.22807 0.9752 0.0
C187 C 0.78946 0.21789 0.00484 0.0
H188 H 0.73472 0.23675 0.05492 0.0
H189 H 0.70478 0.4541 0.93815 0.0
H190 H 0.83118 0.48105 0.94292 0.0
H191 H 0.90025 0.42096 0.97855 0.0
H192 H 0.84359 0.3333 0.00926 0.0
C193 C 0.74492 0.24619 0.02527 0.0
C194 C 0.70357 0.2869 0.00743 0.0
C195 C 0.7375 0.33907 0.9906 0.0
C196 C 0.6975 0.37466 0.97091 0.0
C197 C 0.73269 0.42571 0.9536 0.0
C198 C 0.80515 0.44176 0.95621 0.0
C199 C 0.84405 0.40787 0.97621 0.0
C200 C 0.8109 0.35728 0.99341 0.0
H201 H 0.55147 0.44398 0.99159 0.0
C202 C 0.55005 0.43606 0.96084 0.0
H203 H 0.58062 0.382 0.91519 0.0
H204 H 0.62084 0.193 0.03951 0.0
H205 H 0.49415 0.16975 0.03748 0.0
H206 H 0.42532 0.23207 0.0035 0.0
H207 H 0.48335 0.31778 0.9712 0.0
C208 C 0.58283 0.39328 0.94547 0.0
C209 C 0.62366 0.35906 0.96899 0.0
C210 C 0.58946 0.30874 0.98744 0.0
C211 C 0.62931 0.2728 0.00688 0.0
C212 C 0.59345 0.22234 0.02463 0.0
C213 C 0.52062 0.2083 0.02359 0.0
C214 C 0.48187 0.24334 0.00447 0.0
C215 C 0.5157 0.29267 0.98627 0.0
H216 H 0.75254 0.65 0.52095 0.0
C217 C 0.69824 0.65662 0.52215 0.0
H218 H 0.62936 0.71803 0.53186 0.0
H219 H 0.84592 0.88467 0.63833 0.0
H220 H 0.76245 0.8403 0.68465 0.0
H221 H 0.66735 0.7592 0.66548 0.0
H222 H 0.65537 0.72207 0.59987 0.0
C223 C 0.6834 0.71104 0.52935 0.0
C224 C 0.73957 0.76121 0.54 0.0
C225 C 0.74572 0.78241 0.57849 0.0
C226 C 0.801 0.82859 0.58956 0.0
C227 C 0.80569 0.84906 0.62828 0.0
C228 C 0.7579 0.8241 0.65523 0.0
C229 C 0.70436 0.7785 0.64444 0.0
C230 C 0.69806 0.75769 0.6066 0.0
H231 H 0.88178 0.96852 0.54485 0.0
C232 C 0.91575 0.95585 0.56628 0.0
H233 H 0.9449 0.88614 0.59589 0.0
H234 H 0.73858 0.73397 0.46344 0.0
H235 H 0.82312 0.77722 0.41695 0.0
H236 H 0.92141 0.85504 0.43637 0.0
H237 H 0.93583 0.89056 0.50239 0.0
C238 C 0.90995 0.89896 0.57502 0.0
C239 C 0.85004 0.85353 0.56209 0.0
C240 C 0.84318 0.833 0.52343 0.0
C241 C 0.78743 0.78702 0.51233 0.0
C242 C 0.78084 0.76789 0.4735 0.0
C243 C 0.82882 0.79249 0.44652 0.0
C244 C 0.88413 0.83646 0.45746 0.0
C245 C 0.89155 0.85663 0.49542 0.0
H246 H 0.69757 0.27088 0.49305 0.0
C247 C 0.73855 0.30826 0.48814 0.0
H248 H 0.84516 0.33594 0.47495 0.0
H249 H 0.86657 0.06083 0.51042 0.0
H250 H 0.84885 0.08923 0.57667 0.0
H251 H 0.81823 0.18677 0.59473 0.0
H252 H 0.80437 0.25623 0.54652 0.0
C253 C 0.80385 0.29894 0.47979 0.0
C254 C 0.8197 0.23912 0.46967 0.0
C255 C 0.82848 0.19951 0.4982 0.0
C256 C 0.84847 0.14404 0.48787 0.0
C257 C 0.85427 0.10438 0.5168 0.0
C258 C 0.84363 0.11996 0.55491 0.0
C259 C 0.82623 0.17483 0.56506 0.0
C260 C 0.81842 0.21426 0.53715 0.0
H261 H 0.9799 0.09173 0.47008 0.0
C262 C 0.95023 0.06301 0.44841 0.0
H263 H 0.85735 0.04398 0.41639 0.0
H264 H 0.80322 0.30367 0.40788 0.0
H265 H 0.82446 0.27686 0.34188 0.0
H266 H 0.86401 0.18274 0.32404 0.0
H267 H 0.88189 0.11481 0.37194 0.0
C268 C 0.88715 0.07334 0.43768 0.0
C269 C 0.86172 0.12926 0.44912 0.0
C270 C 0.85177 0.16865 0.42057 0.0
C271 C 0.83038 0.22342 0.43087 0.0
C272 C 0.82042 0.2618 0.40175 0.0
C273 C 0.83227 0.24695 0.36369 0.0
C274 C 0.8544 0.19394 0.35365 0.0
C275 C 0.86424 0.15517 0.38157 0.0
H276 H 0.41694 0.32669 0.50881 0.0
C277 C 0.39993 0.36947 0.51028 0.0
H278 H 0.31537 0.41541 0.52052 0.0
H279 H 0.16674 0.1309 0.49963 0.0
H280 H 0.19765 0.139 0.4329 0.0
H281 H 0.26675 0.23053 0.40967 0.0
H282 H 0.306 0.31439 0.45327 0.0
C283 C 0.33244 0.37273 0.51765 0.0
C284 C 0.28345 0.32026 0.53009 0.0
C285 C 0.25912 0.27242 0.50408 0.0
C286 C 0.21736 0.22035 0.51731 0.0
C287 C 0.19665 0.17218 0.49103 0.0
C288 C 0.21438 0.17612 0.45264 0.0
C289 C 0.25343 0.22761 0.43957 0.0
C290 C 0.27582 0.2753 0.46488 0.0
H291 H 0.06625 0.16052 0.54182 0.0
C292 C 0.09269 0.14102 0.56385 0.0
H293 H 0.18715 0.14136 0.59321 0.0
H294 H 0.31971 0.405 0.58726 0.0
H295 H 0.28445 0.39888 0.65338 0.0
H296 H 0.20851 0.31016 0.67593 0.0
H297 H 0.16755 0.22704 0.63244 0.0
C298 C 0.16038 0.16169 0.57172 0.0
C299 C 0.19862 0.2171 0.55635 0.0
C300 C 0.22065 0.266 0.58202 0.0
C301 C 0.26333 0.31751 0.56891 0.0
C302 C 0.28627 0.36502 0.59544 0.0
C303 C 0.2665 0.36212 0.63357 0.0
C304 C 0.22387 0.31216 0.64627 0.0
C305 C 0.201 0.2646 0.62097 0.0
H306 H 0.27958 0.65079 0.48517 0.0
C307 C 0.30216 0.66926 0.51219 0.0
H308 H 0.30509 0.73908 0.55396 0.0
H309 H 0.1964 0.85355 0.40028 0.0
H310 H 0.31035 0.84499 0.37362 0.0
H311 H 0.393 0.79596 0.40817 0.0
H312 H 0.36188 0.75464 0.46921 0.0
C313 C 0.28413 0.71969 0.52694 0.0
C314 C 0.23592 0.75164 0.50669 0.0
C315 C 0.256 0.77684 0.47131 0.0
C316 C 0.20925 0.8066 0.45191 0.0
C317 C 0.22998 0.83064 0.41636 0.0
C318 C 0.29536 0.82622 0.40074 0.0
C319 C 0.34181 0.79852 0.42015 0.0
C320 C 0.32287 0.77439 0.45509 0.0
H321 H 0.11255 0.92031 0.48493 0.0
C322 C 0.08946 0.90059 0.45831 0.0
H323 H 0.07222 0.82354 0.42199 0.0
H324 H 0.18264 0.71082 0.5747 0.0
H325 H 0.07038 0.72329 0.60245 0.0
H326 H 0.9902 0.77646 0.56903 0.0
H327 H 0.02196 0.8173 0.50768 0.0
C328 C 0.09619 0.84483 0.44792 0.0
C329 C 0.14385 0.8131 0.46853 0.0
C330 C 0.12452 0.78943 0.5043 0.0
C331 C 0.17069 0.75869 0.52345 0.0
C332 C 0.14981 0.73494 0.55901 0.0
C333 C 0.08543 0.74165 0.57522 0.0
C334 C 0.0403 0.77158 0.55642 0.0
C335 C 0.05923 0.79504 0.5213 0.0
H336 H 0.99813 0.05521 0.14106 0.0
C337 C 0.02483 0.02481 0.12417 0.0
H338 H 0.07924 0.95247 0.12593 0.0
H339 H 0.10589 0.08457 0.30009 0.0
H340 H 0.19093 0.15868 0.27076 0.0
H341 H 0.21354 0.15306 0.20162 0.0
H342 H 0.1514 0.0729 0.16146 0.0
C343 C 0.05529 0.98547 0.14196 0.0
C344 C 0.05015 0.98357 0.18412 0.0
C345 C 0.08772 0.03004 0.20733 0.0
C346 C 0.07461 0.03322 0.24714 0.0
C347 C 0.11299 0.08025 0.2696 0.0
C348 C 0.16224 0.12302 0.25315 0.0
C349 C 0.17498 0.11986 0.21424 0.0
C350 C 0.1386 0.07385 0.19149 0.0
H351 H 0.04631 0.91946 0.31836 0.0
C352 C 0.02407 0.95709 0.32979 0.0
H353 H 0.99032 0.03611 0.31505 0.0
H354 H 0.97376 0.88629 0.14797 0.0
H355 H 0.88672 0.81288 0.17681 0.0
H356 H 0.86048 0.82014 0.24545 0.0
H357 H 0.9209 0.90059 0.28573 0.0
C358 C 1.0082 0.99585 0.30514 0.0
C359 C 0.02406 0.98976 0.26374 0.0
C360 C 0.98776 0.94234 0.24061 0.0
C361 C 1.00175 0.9388 0.20083 0.0
C362 C 0.96475 0.89126 0.17829 0.0
C363 C 0.91474 0.8488 0.19445 0.0
C364 C 0.90001 0.85286 0.23312 0.0
C365 C 0.9356 0.89911 0.25602 0.0
H366 H 0.94716 0.06997 0.88852 0.0
C367 C 0.98797 0.04759 0.89889 0.0
H368 H 0.06947 1.0001 0.88394 0.0
H369 H 0.95666 0.91465 0.72004 0.0
H370 H 0.94055 0.82264 0.75243 0.0
H371 H 0.9593 0.82197 0.82167 0.0
H372 H 0.99471 0.91329 0.85889 0.0
C373 C 0.02969 0.0239 0.87394 0.0
C374 C 0.01905 0.02492 0.83216 0.0
C375 C 0.99778 0.9711 0.81089 0.0
C376 C 0.9859 0.97154 0.77109 0.0
C377 C 0.96558 0.91704 0.75044 0.0
C378 C 0.95624 0.86382 0.76866 0.0
C379 C 0.96687 0.86345 0.80762 0.0
C380 C 0.98733 0.91626 0.82864 0.0
H381 H 0.0863 0.06288 0.69804 0.0
C382 C 0.03495 0.04411 0.6867 0.0
H383 H 0.93051 0.0078 0.70048 0.0
H384 H 0.069 0.13533 0.86336 0.0
H385 H 0.07999 0.2277 0.83165 0.0
H386 H 0.04846 0.22921 0.76396 0.0
H387 H 1.00743 0.1383 0.72744 0.0
C388 C 0.9827 0.02548 0.71097 0.0
C389 C 0.99483 0.02582 0.75268 0.0
C390 C 0.01512 0.07978 0.77407 0.0
C391 C 0.02932 0.07918 0.81362 0.0
C392 C 0.05422 0.13334 0.83371 0.0
C393 C 0.06129 0.18672 0.81578 0.0
C394 C 0.04384 0.18755 0.77764 0.0
C395 C 0.02089 0.1349 0.75691 0.0
H396 H 0.60162 0.45896 0.63389 0.0
C397 C 0.56709 0.4881 0.62448 0.0
H398 H 0.49466 0.54402 0.64118 0.0
H399 H 0.44572 0.38479 0.7902 0.0
H400 H 0.38121 0.3107 0.74681 0.0
H401 H 0.38415 0.32392 0.6776 0.0
H402 H 0.4511 0.41163 0.65136 0.0
C403 C 0.52836 0.51386 0.65006 0.0
C404 C 0.53083 0.50359 0.69132 0.0
C405 C 0.49163 0.45192 0.70612 0.0
C406 C 0.49011 0.44426 0.74603 0.0
C407 C 0.4494 0.39272 0.76012 0.0
C408 C 0.41189 0.34986 0.73553 0.0
C409 C 0.41348 0.35734 0.69656 0.0
C410 C 0.45243 0.40781 0.68187 0.0
H411 H 0.46976 0.5526 0.82292 0.0
C412 C 0.49143 0.51751 0.83579 0.0
H413 H 0.54088 0.44307 0.82377 0.0
H414 H 0.61188 0.60704 0.67182 0.0
H415 H 0.67974 0.67989 0.71487 0.0
H416 H 0.68071 0.66506 0.78385 0.0
H417 H 0.61349 0.57767 0.81028 0.0
C418 C 0.52294 0.48124 0.81287 0.0
C419 C 0.52757 0.48842 0.77101 0.0
C420 C 0.56866 0.53921 0.756 0.0
C421 C 0.56942 0.54715 0.71614 0.0
C422 C 0.60972 0.59873 0.70188 0.0
C423 C 0.649 0.64084 0.72624 0.0
C424 C 0.64948 0.63252 0.76509 0.0
C425 C 0.61016 0.58231 0.77994 0.0
H426 H 0.48485 0.55987 0.39322 0.0
C427 C 0.52412 0.53444 0.40183 0.0
H428 H 0.59806 0.48118 0.38339 0.0
H429 H 0.45924 0.40487 0.22384 0.0
H430 H 0.43578 0.31303 0.2564 0.0
H431 H 0.46127 0.3105 0.32482 0.0
H432 H 0.51076 0.39972 0.36105 0.0
C433 C 0.56041 0.50841 0.37517 0.0
C434 C 0.5451 0.51066 0.33395 0.0
C435 C 0.51572 0.45809 0.31325 0.0
C436 C 0.5001 0.45967 0.27394 0.0
C437 C 0.47149 0.40637 0.25385 0.0
C438 C 0.45782 0.35328 0.27218 0.0
C439 C 0.47223 0.35185 0.31068 0.0
C440 C 0.50079 0.40345 0.33113 0.0
H441 H 0.60435 0.54042 0.1991 0.0
C442 C 0.55104 0.52743 0.18868 0.0
H443 H 0.44489 0.50261 0.2048 0.0
H444 H 0.60808 0.61841 0.3641 0.0
H445 H 0.62628 0.71102 0.33237 0.0
H446 H 0.59019 0.7151 0.26561 0.0
H447 H 0.53709 0.62639 0.23002 0.0
C448 C 0.49892 0.51454 0.21403 0.0
C449 C 0.51365 0.51382 0.25543 0.0
C450 C 0.54166 0.56666 0.27631 0.0
C451 C 0.5591 0.56482 0.31537 0.0
C452 C 0.59101 0.61761 0.33488 0.0
C453 C 0.60222 0.67107 0.31692 0.0
C454 C 0.58217 0.67332 0.2793 0.0
C455 C 0.55218 0.62193 0.25911 0.0
loop_
_geom_bond_atom_site_label_1
_geom_bond_atom_site_label_2
_geom_bond_distance
_geom_bond_site_symmetry_2
_ccdc_geom_bond_type
Co0 N5 2.057 . S
Co0 O17 2.021 . S
Co0 O20 2.062 1_455 S
Co0 O24 2.117 1_554 S
Co0 O25 2.020 1_565 S
C1 O21 1.259 1_455 S
C1 O24 1.258 1_545 S
Co2 N11 2.057 . S
Co2 O18 2.117 . S
Co2 O19 2.020 1_545 S
Co2 O21 2.021 1_554 S
Co2 O26 2.062 1_655 S
C3 N5 1.316 . S
C3 N6 1.347 . S
C3 H8 0.931 . S
C4 N5 1.375 1_556 S
C4 C7 1.350 . S
C4 H9 0.930 . S
N5 Co0 2.057 . S
N5 C3 1.316 . S
N5 C4 1.375 1_554 S
N6 C3 1.347 . S
N6 C7 1.373 1_554 S
C7 C4 1.350 . S
C7 N6 1.373 1_556 S
C7 H28 0.931 . S
H8 C3 0.931 . S
H9 C4 0.930 . S
C10 O17 1.259 1_545 S
C10 O18 1.258 1_455 S
N11 Co2 2.057 . S
N11 C12 1.316 . S
N11 C13 1.375 . S
C12 N11 1.316 . S
C12 N14 1.347 . S
C12 H23 0.931 1_554 S
C13 N11 1.375 . S
C13 C15 1.350 . S
C13 H22 0.930 . S
N14 C12 1.347 . S
N14 C15 1.373 . S
C15 C13 1.350 . S
C15 N14 1.373 . S
C15 H29 0.931 . S
C16 O19 1.256 . S
C16 O20 1.255 . S
O17 Co0 2.021 . S
O17 C10 1.259 1_565 S
O18 Co2 2.117 . S
O18 C10 1.258 1_655 S
O19 Co2 2.020 1_565 S
O19 C16 1.256 . S
O20 Co0 2.062 1_655 S
O20 C16 1.255 . S
O21 C1 1.259 1_655 S
O21 Co2 2.021 1_556 S
H22 C13 0.930 . S
H23 C12 0.931 1_556 S
O24 Co0 2.117 1_556 S
O24 C1 1.258 1_565 S
O25 Co0 2.020 1_545 S
O25 C27 1.256 . S
O26 Co2 2.062 1_455 S
O26 C27 1.255 . S
C27 O25 1.256 . S
C27 O26 1.255 . S
H28 C7 0.931 . S
H29 C15 0.931 . S
Co30 N35 2.057 . S
Co30 O47 2.021 . S
Co30 O50 2.062 . S
Co30 O54 2.117 . S
Co30 O55 2.020 . S
C31 O51 1.259 . S
C31 O54 1.258 . S
Co32 N41 2.057 . S
Co32 O48 2.117 . S
Co32 O49 2.020 . S
Co32 O51 2.021 . S
Co32 O56 2.062 . S
C33 N35 1.316 . S
C33 N36 1.347 . S
C33 H38 0.931 . S
C34 N35 1.375 . S
C34 C37 1.350 . S
C34 H39 0.930 . S
N35 Co30 2.057 . S
N35 C33 1.316 . S
N35 C34 1.375 . S
N36 C33 1.347 . S
N36 C37 1.373 . S
C37 C34 1.350 . S
C37 N36 1.373 . S
C37 H58 0.931 . S
H38 C33 0.931 . S
H39 C34 0.930 . S
C40 O47 1.259 . S
C40 O48 1.258 . S
N41 Co32 2.057 . S
N41 C42 1.316 . S
N41 C43 1.375 . S
C42 N41 1.316 . S
C42 N44 1.347 . S
C42 H53 0.931 . S
C43 N41 1.375 . S
C43 C45 1.350 . S
C43 H52 0.930 . S
N44 C42 1.347 . S
N44 C45 1.373 . S
C45 C43 1.350 . S
C45 N44 1.373 . S
C45 H59 0.931 . S
C46 O49 1.256 . S
C46 O50 1.255 . S
O47 Co30 2.021 . S
O47 C40 1.259 . S
O48 Co32 2.117 . S
O48 C40 1.258 . S
O49 Co32 2.020 . S
O49 C46 1.256 . S
O50 Co30 2.062 . S
O50 C46 1.255 . S
O51 C31 1.259 . S
O51 Co32 2.021 . S
H52 C43 0.930 . S
H53 C42 0.931 . S
O54 Co30 2.117 . S
O54 C31 1.258 . S
O55 Co30 2.020 . S
O55 C57 1.256 . S
O56 Co32 2.062 . S
O56 C57 1.255 . S
C57 O55 1.256 . S
C57 O56 1.255 . S
H58 C37 0.931 . S
H59 C45 0.931 . S
H60 C63 0.931 . S
H61 C66 0.928 . S
H62 C68 0.931 . S
C63 H60 0.931 . S
C63 C64 1.413 . S
C63 C65 1.359 . S
C64 C63 1.413 . S
C64 C68 1.421 1_655 S
C65 C63 1.359 . S
C65 C66 1.372 1_645 S
C66 H61 0.928 . S
C66 C65 1.372 1_465 S
C66 C67 1.404 . S
C67 C66 1.404 . S
C67 C68 1.399 1_565 S
C68 H62 0.931 . S
C68 C64 1.421 1_455 S
C68 C67 1.399 1_545 S
H69 C72 0.931 . S
H70 C75 0.928 . S
H71 C77 0.930 . S
C72 H69 0.931 . S
C72 C73 1.413 . S
C72 C74 1.360 1_665 S
C73 C72 1.413 . S
C73 C77 1.429 1_665 S
C74 C72 1.360 1_445 S
C74 C75 1.372 . S
C75 H70 0.928 . S
C75 C74 1.372 . S
C75 C76 1.404 . S
C76 C75 1.404 . S
C76 C77 1.391 . S
C77 H71 0.930 . S
C77 C73 1.429 1_445 S
C77 C76 1.391 . S
H78 C81 0.931 . S
H79 C84 0.928 . S
H80 C86 0.930 . S
C81 H78 0.931 . S
C81 C82 1.413 . S
C81 C83 1.360 . S
C82 C81 1.413 . S
C82 C86 1.429 . S
C83 C81 1.360 . S
C83 C84 1.372 . S
C84 H79 0.928 . S
C84 C83 1.372 . S
C84 C85 1.404 . S
C85 C84 1.404 . S
C85 C86 1.391 . S
C86 H80 0.930 . S
C86 C82 1.429 . S
C86 C85 1.391 . S
H87 C90 0.931 . S
H88 C93 0.928 . S
H89 C95 0.930 . S
C90 H87 0.931 . S
C90 C91 1.413 . S
C90 C92 1.360 . S
C91 C90 1.413 . S
C91 C95 1.429 . S
C92 C90 1.360 . S
C92 C93 1.372 . S
C93 H88 0.928 . S
C93 C92 1.372 . S
C93 C94 1.404 . S
C94 C93 1.404 . S
C94 C95 1.391 . S
C95 H89 0.930 . S
C95 C91 1.429 . S
C95 C94 1.391 . S
H96 C97 0.951 . S
C97 H96 0.951 . S
C97 C103 1.265 . S
H98 C103 0.950 . S
H99 C107 0.949 . S
H100 C108 0.950 . S
H101 C109 0.951 . S
H102 C110 0.951 . S
C103 C97 1.265 . S
C103 H98 0.950 . S
C103 C104 1.478 . S
C104 C103 1.478 . S
C104 C105 1.397 . S
C104 C121 1.394 . S
C105 C104 1.397 . S
C105 C106 1.438 . S
C105 C110 1.429 . S
C106 C105 1.438 . S
C106 C107 1.428 . S
C106 C119 1.394 . S
C107 H99 0.949 . S
C107 C106 1.428 . S
C107 C108 1.345 . S
C108 H100 0.950 . S
C108 C107 1.345 . S
C108 C109 1.424 . S
C109 H101 0.951 . S
C109 C108 1.424 . S
C109 C110 1.347 . S
C110 H102 0.951 . S
C110 C105 1.429 . S
C110 C109 1.347 . S
H111 C112 0.951 . S
C112 H111 0.951 . S
C112 C118 1.265 . S
H113 C118 0.950 . S
H114 C122 0.949 . S
H115 C123 0.950 . S
H116 C124 0.951 . S
H117 C125 0.951 . S
C118 C112 1.265 . S
C118 H113 0.950 . S
C118 C119 1.478 . S
C119 C106 1.394 . S
C119 C118 1.478 . S
C119 C120 1.397 . S
C120 C119 1.397 . S
C120 C121 1.438 . S
C120 C125 1.429 1_554 S
C121 C104 1.394 . S
C121 C120 1.438 . S
C121 C122 1.428 1_554 S
C122 H114 0.949 . S
C122 C121 1.428 1_556 S
C122 C123 1.345 . S
C123 H115 0.950 . S
C123 C122 1.345 . S
C123 C124 1.424 . S
C124 H116 0.951 . S
C124 C123 1.424 . S
C124 C125 1.347 . S
C125 H117 0.951 . S
C125 C120 1.429 1_556 S
C125 C124 1.347 . S
H126 C127 0.951 1_556 S
C127 H126 0.951 1_554 S
C127 C133 1.265 . S
H128 C133 0.950 . S
H129 C137 0.949 . S
H130 C138 0.950 . S
H131 C139 0.951 . S
H132 C140 0.951 . S
C133 C127 1.265 . S
C133 H128 0.950 . S
C133 C134 1.478 1_554 S
C134 C133 1.478 1_556 S
C134 C135 1.397 . S
C134 C151 1.394 1_556 S
C135 C134 1.397 . S
C135 C136 1.438 . S
C135 C140 1.429 . S
C136 C135 1.438 . S
C136 C137 1.428 . S
C136 C149 1.394 . S
C137 H129 0.949 . S
C137 C136 1.428 . S
C137 C138 1.345 . S
C138 H130 0.950 . S
C138 C137 1.345 . S
C138 C139 1.424 . S
C139 H131 0.951 . S
C139 C138 1.424 . S
C139 C140 1.347 . S
C140 H132 0.951 . S
C140 C135 1.429 . S
C140 C139 1.347 . S
H141 C142 0.951 . S
C142 H141 0.951 . S
C142 C148 1.265 . S
H143 C148 0.950 . S
H144 C152 0.949 . S
H145 C153 0.950 . S
H146 C154 0.951 . S
H147 C155 0.951 . S
C148 C142 1.265 . S
C148 H143 0.950 . S
C148 C149 1.478 . S
C149 C136 1.394 . S
C149 C148 1.478 . S
C149 C150 1.397 . S
C150 C149 1.397 . S
C150 C151 1.438 1_556 S
C150 C155 1.429 1_556 S
C151 C134 1.394 1_554 S
C151 C150 1.438 1_554 S
C151 C152 1.428 . S
C152 H144 0.949 . S
C152 C151 1.428 . S
C152 C153 1.345 . S
C153 H145 0.950 . S
C153 C152 1.345 . S
C153 C154 1.424 . S
C154 H146 0.951 . S
C154 C153 1.424 . S
C154 C155 1.347 . S
C155 H147 0.951 . S
C155 C150 1.429 1_554 S
C155 C154 1.347 . S
H156 C157 0.951 . S
C157 H156 0.951 . S
C157 C163 1.265 . S
H158 C163 0.950 . S
H159 C167 0.949 . S
H160 C168 0.950 . S
H161 C169 0.951 . S
H162 C170 0.951 . S
C163 C157 1.265 . S
C163 H158 0.950 . S
C163 C164 1.478 . S
C164 C163 1.478 . S
C164 C165 1.397 . S
C164 C181 1.394 . S
C165 C164 1.397 . S
C165 C166 1.438 . S
C165 C170 1.429 . S
C166 C165 1.438 . S
C166 C167 1.428 . S
C166 C179 1.394 . S
C167 H159 0.949 . S
C167 C166 1.428 . S
C167 C168 1.345 . S
C168 H160 0.950 . S
C168 C167 1.345 . S
C168 C169 1.424 . S
C169 H161 0.951 . S
C169 C168 1.424 . S
C169 C170 1.347 . S
C170 H162 0.951 . S
C170 C165 1.429 . S
C170 C169 1.347 . S
H171 C172 0.951 . S
C172 H171 0.951 . S
C172 C178 1.265 . S
H173 C178 0.950 . S
H174 C182 0.949 . S
H175 C183 0.950 . S
H176 C184 0.951 . S
H177 C185 0.951 . S
C178 C172 1.265 . S
C178 H173 0.950 . S
C178 C179 1.478 . S
C179 C166 1.394 . S
C179 C178 1.478 . S
C179 C180 1.397 . S
C180 C179 1.397 . S
C180 C181 1.438 . S
C180 C185 1.429 . S
C181 C164 1.394 . S
C181 C180 1.438 . S
C181 C182 1.428 1_554 S
C182 H174 0.949 . S
C182 C181 1.428 1_556 S
C182 C183 1.345 . S
C183 H175 0.950 . S
C183 C182 1.345 . S
C183 C184 1.424 . S
C184 H176 0.951 . S
C184 C183 1.424 . S
C184 C185 1.347 1_556 S
C185 H177 0.951 . S
C185 C180 1.429 . S
C185 C184 1.347 1_554 S
H186 C187 0.951 1_556 S
C187 H186 0.951 1_554 S
C187 C193 1.265 . S
H188 C193 0.950 . S
H189 C197 0.949 . S
H190 C198 0.950 . S
H191 C199 0.951 . S
H192 C200 0.951 . S
C193 C187 1.265 . S
C193 H188 0.950 . S
C193 C194 1.478 1_554 S
C194 C193 1.478 1_556 S
C194 C195 1.397 . S
C194 C211 1.394 1_556 S
C195 C194 1.397 . S
C195 C196 1.438 . S
C195 C200 1.429 . S
C196 C195 1.438 . S
C196 C197 1.428 . S
C196 C209 1.394 . S
C197 H189 0.949 . S
C197 C196 1.428 . S
C197 C198 1.345 . S
C198 H190 0.950 . S
C198 C197 1.345 . S
C198 C199 1.424 . S
C199 H191 0.951 . S
C199 C198 1.424 . S
C199 C200 1.347 . S
C200 H192 0.951 . S
C200 C195 1.429 . S
C200 C199 1.347 . S
H201 C202 0.951 . S
C202 H201 0.951 . S
C202 C208 1.265 . S
H203 C208 0.950 . S
H204 C212 0.949 . S
H205 C213 0.950 . S
H206 C214 0.951 . S
H207 C215 0.951 . S
C208 C202 1.265 . S
C208 H203 0.950 . S
C208 C209 1.478 . S
C209 C196 1.394 . S
C209 C208 1.478 . S
C209 C210 1.397 . S
C210 C209 1.397 . S
C210 C211 1.438 1_556 S
C210 C215 1.429 1_556 S
C211 C194 1.394 1_554 S
C211 C210 1.438 1_554 S
C211 C212 1.428 . S
C212 H204 0.949 . S
C212 C211 1.428 . S
C212 C213 1.345 . S
C213 H205 0.950 . S
C213 C212 1.345 . S
C213 C214 1.424 . S
C214 H206 0.951 . S
C214 C213 1.424 . S
C214 C215 1.347 . S
C215 H207 0.951 . S
C215 C210 1.429 1_554 S
C215 C214 1.347 . S
H216 C217 0.951 . S
C217 H216 0.951 . S
C217 C223 1.265 . S
H218 C223 0.950 . S
H219 C227 0.949 . S
H220 C228 0.950 . S
H221 C229 0.951 . S
H222 C230 0.951 . S
C223 C217 1.265 . S
C223 H218 0.950 . S
C223 C224 1.478 . S
C224 C223 1.478 . S
C224 C225 1.397 . S
C224 C241 1.394 . S
C225 C224 1.397 . S
C225 C226 1.438 . S
C225 C230 1.429 . S
C226 C225 1.438 . S
C226 C227 1.428 . S
C226 C239 1.394 . S
C227 H219 0.949 . S
C227 C226 1.428 . S
C227 C228 1.345 . S
C228 H220 0.950 . S
C228 C227 1.345 . S
C228 C229 1.424 . S
C229 H221 0.951 . S
C229 C228 1.424 . S
C229 C230 1.347 . S
C230 H222 0.951 . S
C230 C225 1.429 . S
C230 C229 1.347 . S
H231 C232 0.951 . S
C232 H231 0.951 . S
C232 C238 1.265 . S
H233 C238 0.950 . S
H234 C242 0.949 . S
H235 C243 0.950 . S
H236 C244 0.951 . S
H237 C245 0.951 . S
C238 C232 1.265 . S
C238 H233 0.950 . S
C238 C239 1.478 . S
C239 C226 1.394 . S
C239 C238 1.478 . S
C239 C240 1.397 . S
C240 C239 1.397 . S
C240 C241 1.438 . S
C240 C245 1.429 . S
C241 C224 1.394 . S
C241 C240 1.438 . S
C241 C242 1.428 . S
C242 H234 0.949 . S
C242 C241 1.428 . S
C242 C243 1.345 . S
C243 H235 0.950 . S
C243 C242 1.345 . S
C243 C244 1.424 . S
C244 H236 0.951 . S
C244 C243 1.424 . S
C244 C245 1.347 . S
C245 H237 0.951 . S
C245 C240 1.429 . S
C245 C244 1.347 . S
H246 C247 0.951 . S
C247 H246 0.951 . S
C247 C253 1.265 . S
H248 C253 0.950 . S
H249 C257 0.949 . S
H250 C258 0.950 . S
H251 C259 0.951 . S
H252 C260 0.951 . S
C253 C247 1.265 . S
C253 H248 0.950 . S
C253 C254 1.478 . S
C254 C253 1.478 . S
C254 C255 1.397 . S
C254 C271 1.394 . S
C255 C254 1.397 . S
C255 C256 1.438 . S
C255 C260 1.429 . S
C256 C255 1.438 . S
C256 C257 1.428 . S
C256 C269 1.394 . S
C257 H249 0.949 . S
C257 C256 1.428 . S
C257 C258 1.345 . S
C258 H250 0.950 . S
C258 C257 1.345 . S
C258 C259 1.424 . S
C259 H251 0.951 . S
C259 C258 1.424 . S
C259 C260 1.347 . S
C260 H252 0.951 . S
C260 C255 1.429 . S
C260 C259 1.347 . S
H261 C262 0.951 . S
C262 H261 0.951 . S
C262 C268 1.265 . S
H263 C268 0.950 . S
H264 C272 0.949 . S
H265 C273 0.950 . S
H266 C274 0.951 . S
H267 C275 0.951 . S
C268 C262 1.265 . S
C268 H263 0.950 . S
C268 C269 1.478 . S
C269 C256 1.394 . S
C269 C268 1.478 . S
C269 C270 1.397 . S
C270 C269 1.397 . S
C270 C271 1.438 . S
C270 C275 1.429 . S
C271 C254 1.394 . S
C271 C270 1.438 . S
C271 C272 1.428 . S
C272 H264 0.949 . S
C272 C271 1.428 . S
C272 C273 1.345 . S
C273 H265 0.950 . S
C273 C272 1.345 . S
C273 C274 1.424 . S
C274 H266 0.951 . S
C274 C273 1.424 . S
C274 C275 1.347 . S
C275 H267 0.951 . S
C275 C270 1.429 . S
C275 C274 1.347 . S
H276 C277 0.951 . S
C277 H276 0.951 . S
C277 C283 1.265 . S
H278 C283 0.950 . S
H279 C287 0.949 . S
H280 C288 0.950 . S
H281 C289 0.951 . S
H282 C290 0.951 . S
C283 C277 1.265 . S
C283 H278 0.950 . S
C283 C284 1.478 . S
C284 C283 1.478 . S
C284 C285 1.397 . S
C284 C301 1.394 . S
C285 C284 1.397 . S
C285 C286 1.438 . S
C285 C290 1.429 . S
C286 C285 1.438 . S
C286 C287 1.428 . S
C286 C299 1.394 . S
C287 H279 0.949 . S
C287 C286 1.428 . S
C287 C288 1.345 . S
C288 H280 0.950 . S
C288 C287 1.345 . S
C288 C289 1.424 . S
C289 H281 0.951 . S
C289 C288 1.424 . S
C289 C290 1.347 . S
C290 H282 0.951 . S
C290 C285 1.429 . S
C290 C289 1.347 . S
H291 C292 0.951 . S
C292 H291 0.951 . S
C292 C298 1.265 . S
H293 C298 0.950 . S
H294 C302 0.949 . S
H295 C303 0.950 . S
H296 C304 0.951 . S
H297 C305 0.951 . S
C298 C292 1.265 . S
C298 H293 0.950 . S
C298 C299 1.478 . S
C299 C286 1.394 . S
C299 C298 1.478 . S
C299 C300 1.397 . S
C300 C299 1.397 . S
C300 C301 1.438 . S
C300 C305 1.429 . S
C301 C284 1.394 . S
C301 C300 1.438 . S
C301 C302 1.428 . S
C302 H294 0.949 . S
C302 C301 1.428 . S
C302 C303 1.345 . S
C303 H295 0.950 . S
C303 C302 1.345 . S
C303 C304 1.424 . S
C304 H296 0.951 . S
C304 C303 1.424 . S
C304 C305 1.347 . S
C305 H297 0.951 . S
C305 C300 1.429 . S
C305 C304 1.347 . S
H306 C307 0.951 . S
C307 H306 0.951 . S
C307 C313 1.265 . S
H308 C313 0.950 . S
H309 C317 0.949 . S
H310 C318 0.950 . S
H311 C319 0.951 . S
H312 C320 0.951 . S
C313 C307 1.265 . S
C313 H308 0.950 . S
C313 C314 1.478 . S
C314 C313 1.478 . S
C314 C315 1.397 . S
C314 C331 1.394 . S
C315 C314 1.397 . S
C315 C316 1.438 . S
C315 C320 1.429 . S
C316 C315 1.438 . S
C316 C317 1.428 . S
C316 C329 1.394 . S
C317 H309 0.949 . S
C317 C316 1.428 . S
C317 C318 1.345 . S
C318 H310 0.950 . S
C318 C317 1.345 . S
C318 C319 1.424 . S
C319 H311 0.951 . S
C319 C318 1.424 . S
C319 C320 1.347 . S
C320 H312 0.951 . S
C320 C315 1.429 . S
C320 C319 1.347 . S
H321 C322 0.951 . S
C322 H321 0.951 . S
C322 C328 1.265 . S
H323 C328 0.950 . S
H324 C332 0.949 . S
H325 C333 0.950 . S
H326 C334 0.951 . S
H327 C335 0.951 . S
C328 C322 1.265 . S
C328 H323 0.950 . S
C328 C329 1.478 . S
C329 C316 1.394 . S
C329 C328 1.478 . S
C329 C330 1.397 . S
C330 C329 1.397 . S
C330 C331 1.438 . S
C330 C335 1.429 . S
C331 C314 1.394 . S
C331 C330 1.438 . S
C331 C332 1.428 . S
C332 H324 0.949 . S
C332 C331 1.428 . S
C332 C333 1.345 . S
C333 H325 0.950 . S
C333 C332 1.345 . S
C333 C334 1.424 . S
C334 H326 0.951 . S
C334 C333 1.424 . S
C334 C335 1.347 . S
C335 H327 0.951 . S
C335 C330 1.429 . S
C335 C334 1.347 . S
H336 C337 0.951 1_565 S
C337 H336 0.951 1_545 S
C337 C343 1.265 1_655 S
H338 C343 0.950 . S
H339 C347 0.949 . S
H340 C348 0.950 . S
H341 C349 0.951 . S
H342 C350 0.951 . S
C343 C337 1.265 1_455 S
C343 H338 0.950 . S
C343 C344 1.478 . S
C344 C343 1.478 . S
C344 C345 1.397 . S
C344 C361 1.394 1_445 S
C345 C344 1.397 . S
C345 C346 1.438 . S
C345 C350 1.429 . S
C346 C345 1.438 . S
C346 C347 1.428 . S
C346 C359 1.394 1_455 S
C347 H339 0.949 . S
C347 C346 1.428 . S
C347 C348 1.345 . S
C348 H340 0.950 . S
C348 C347 1.345 . S
C348 C349 1.424 . S
C349 H341 0.951 . S
C349 C348 1.424 . S
C349 C350 1.347 . S
C350 H342 0.951 . S
C350 C345 1.429 . S
C350 C349 1.347 . S
H351 C352 0.951 . S
C352 H351 0.951 . S
C352 C358 1.265 1_445 S
H353 C358 0.950 . S
H354 C362 0.949 . S
H355 C363 0.950 . S
H356 C364 0.951 . S
H357 C365 0.951 . S
C358 C352 1.265 1_665 S
C358 H353 0.950 . S
C358 C359 1.478 1_565 S
C359 C346 1.394 1_655 S
C359 C358 1.478 1_545 S
C359 C360 1.397 1_545 S
C360 C359 1.397 1_565 S
C360 C361 1.438 . S
C360 C365 1.429 . S
C361 C344 1.394 1_665 S
C361 C360 1.438 . S
C361 C362 1.428 . S
C362 H354 0.949 . S
C362 C361 1.428 . S
C362 C363 1.345 . S
C363 H355 0.950 . S
C363 C362 1.345 . S
C363 C364 1.424 . S
C364 H356 0.951 . S
C364 C363 1.424 . S
C364 C365 1.347 . S
C365 H357 0.951 . S
C365 C360 1.429 . S
C365 C364 1.347 . S
H366 C367 0.951 . S
C367 H366 0.951 . S
C367 C373 1.265 1_655 S
H368 C373 0.950 . S
H369 C377 0.949 . S
H370 C378 0.950 . S
H371 C379 0.951 . S
H372 C380 0.951 . S
C373 C367 1.265 1_455 S
C373 H368 0.950 . S
C373 C374 1.478 . S
C374 C373 1.478 . S
C374 C375 1.397 1_545 S
C374 C391 1.394 1_455 S
C375 C374 1.397 1_565 S
C375 C376 1.438 . S
C375 C380 1.429 . S
C376 C375 1.438 . S
C376 C377 1.428 . S
C376 C389 1.394 1_465 S
C377 H369 0.949 . S
C377 C376 1.428 . S
C377 C378 1.345 . S
C378 H370 0.950 . S
C378 C377 1.345 . S
C378 C379 1.424 . S
C379 H371 0.951 . S
C379 C378 1.424 . S
C379 C380 1.347 . S
C380 H372 0.951 . S
C380 C375 1.429 . S
C380 C379 1.347 . S
H381 C382 0.951 . S
C382 H381 0.951 . S
C382 C388 1.265 1_455 S
H383 C388 0.950 . S
H384 C392 0.949 . S
H385 C393 0.950 . S
H386 C394 0.951 . S
H387 C395 0.951 . S
C388 C382 1.265 1_655 S
C388 H383 0.950 . S
C388 C389 1.478 . S
C389 C376 1.394 1_645 S
C389 C388 1.478 . S
C389 C390 1.397 . S
C390 C389 1.397 . S
C390 C391 1.438 . S
C390 C395 1.429 . S
C391 C374 1.394 1_655 S
C391 C390 1.438 . S
C391 C392 1.428 . S
C392 H384 0.949 . S
C392 C391 1.428 . S
C392 C393 1.345 . S
C393 H385 0.950 . S
C393 C392 1.345 . S
C393 C394 1.424 . S
C394 H386 0.951 . S
C394 C393 1.424 . S
C394 C395 1.347 . S
C395 H387 0.951 . S
C395 C390 1.429 . S
C395 C394 1.347 . S
H396 C397 0.951 . S
C397 H396 0.951 . S
C397 C403 1.265 . S
H398 C403 0.950 . S
H399 C407 0.949 . S
H400 C408 0.950 . S
H401 C409 0.951 . S
H402 C410 0.951 . S
C403 C397 1.265 . S
C403 H398 0.950 . S
C403 C404 1.478 . S
C404 C403 1.478 . S
C404 C405 1.397 . S
C404 C421 1.394 . S
C405 C404 1.397 . S
C405 C406 1.438 . S
C405 C410 1.429 . S
C406 C405 1.438 . S
C406 C407 1.428 . S
C406 C419 1.394 . S
C407 H399 0.949 . S
C407 C406 1.428 . S
C407 C408 1.345 . S
C408 H400 0.950 . S
C408 C407 1.345 . S
C408 C409 1.424 . S
C409 H401 0.951 . S
C409 C408 1.424 . S
C409 C410 1.347 . S
C410 H402 0.951 . S
C410 C405 1.429 . S
C410 C409 1.347 . S
H411 C412 0.951 . S
C412 H411 0.951 . S
C412 C418 1.265 . S
H413 C418 0.950 . S
H414 C422 0.949 . S
H415 C423 0.950 . S
H416 C424 0.951 . S
H417 C425 0.951 . S
C418 C412 1.265 . S
C418 H413 0.950 . S
C418 C419 1.478 . S
C419 C406 1.394 . S
C419 C418 1.478 . S
C419 C420 1.397 . S
C420 C419 1.397 . S
C420 C421 1.438 . S
C420 C425 1.429 . S
C421 C404 1.394 . S
C421 C420 1.438 . S
C421 C422 1.428 . S
C422 H414 0.949 . S
C422 C421 1.428 . S
C422 C423 1.345 . S
C423 H415 0.950 . S
C423 C422 1.345 . S
C423 C424 1.424 . S
C424 H416 0.951 . S
C424 C423 1.424 . S
C424 C425 1.347 . S
C425 H417 0.951 . S
C425 C420 1.429 . S
C425 C424 1.347 . S
H426 C427 0.951 . S
C427 H426 0.951 . S
C427 C433 1.265 . S
H428 C433 0.950 . S
H429 C437 0.949 . S
H430 C438 0.950 . S
H431 C439 0.951 . S
H432 C440 0.951 . S
C433 C427 1.265 . S
C433 H428 0.950 . S
C433 C434 1.478 . S
C434 C433 1.478 . S
C434 C435 1.397 . S
C434 C451 1.394 . S
C435 C434 1.397 . S
C435 C436 1.438 . S
C435 C440 1.429 . S
C436 C435 1.438 . S
C436 C437 1.428 . S
C436 C449 1.394 . S
C437 H429 0.949 . S
C437 C436 1.428 . S
C437 C438 1.345 . S
C438 H430 0.950 . S
C438 C437 1.345 . S
C438 C439 1.424 . S
C439 H431 0.951 . S
C439 C438 1.424 . S
C439 C440 1.347 . S
C440 H432 0.951 . S
C440 C435 1.429 . S
C440 C439 1.347 . S
H441 C442 0.951 . S
C442 H441 0.951 . S
C442 C448 1.265 . S
H443 C448 0.950 . S
H444 C452 0.949 . S
H445 C453 0.950 . S
H446 C454 0.951 . S
H447 C455 0.951 . S
C448 C442 1.265 . S
C448 H443 0.950 . S
C448 C449 1.478 . S
C449 C436 1.394 . S
C449 C448 1.478 . S
C449 C450 1.397 . S
C450 C449 1.397 . S
C450 C451 1.438 . S
C450 C455 1.429 . S
C451 C434 1.394 . S
C451 C450 1.438 . S
C451 C452 1.428 . S
C452 H444 0.949 . S
C452 C451 1.428 . S
C452 C453 1.345 . S
C453 H445 0.950 . S
C453 C452 1.345 . S
C453 C454 1.424 . S
C454 H446 0.951 . S
C454 C453 1.424 . S
C454 C455 1.347 . S
C455 H447 0.951 . S
C455 C450 1.429 . S
C455 C454 1.347 . S
C112 C91 1.361 . S
C97 C27 1.385 . S
C127 N6 1.239 . S
C142 C82 1.362 . S
C157 C16 1.359 . S
C172 C94 1.379 . S
C187 N14 1.330 . S
C202 C85 1.355 . S
C217 C57 1.378 . S
C232 C73 1.371 . S
C247 N36 1.289 . S
C262 C64 1.355 . S
C292 C76 1.377 . S
C277 C46 1.363 . S
C322 C67 1.336 . S
C307 N44 1.319 . S
C337 C10 1.395 1_655 S
C352 C65 1.387 1_455 S
C367 C1 1.512 1_655 S
C382 C74 1.530 . S
C412 C83 1.386 . S
C397 C40 1.372 . S
C427 C31 1.512 . S
C442 C92 1.530 . S
