# Generated by pormake.
# Topology eea, (3,6)-cn, num edge types: 1
# Building blocks:
#     Node 0, Type 0, BuildingBlock: ESEHIV_clean_linker_0, # of connection points: 3
#     Node 1, Type 0, BuildingBlock: ESEHIV_clean_linker_0, # of connection points: 3
#     Node 2, Type 0, BuildingBlock: ESEHIV_clean_linker_0, # of connection points: 3
#     Node 3, Type 0, BuildingBlock: ESEHIV_clean_linker_0, # of connection points: 3
#     Node 4, Type 0, BuildingBlock: ESEHIV_clean_linker_0, # of connection points: 3
#     Node 5, Type 0, BuildingBlock: ESEHIV_clean_linker_0, # of connection points: 3
#     Node 6, Type 0, BuildingBlock: ESEHIV_clean_linker_0, # of connection points: 3
#     Node 7, Type 0, BuildingBlock: ESEHIV_clean_linker_0, # of connection points: 3
#     Node 8, Type 0, BuildingBlock: ESEHIV_clean_linker_0, # of connection points: 3
#     Node 9, Type 0, BuildingBlock: ESEHIV_clean_linker_0, # of connection points: 3
#     Node 10, Type 0, BuildingBlock: ESEHIV_clean_linker_0, # of connection points: 3
#     Node 11, Type 0, BuildingBlock: ESEHIV_clean_linker_0, # of connection points: 3
#     Node 12, Type 0, BuildingBlock: ESEHIV_clean_linker_0, # of connection points: 3
#     Node 13, Type 0, BuildingBlock: ESEHIV_clean_linker_0, # of connection points: 3
#     Node 14, Type 0, BuildingBlock: ESEHIV_clean_linker_0, # of connection points: 3
#     Node 15, Type 0, BuildingBlock: ESEHIV_clean_linker_0, # of connection points: 3
#     Node 16, Type 0, BuildingBlock: ESEHIV_clean_linker_0, # of connection points: 3
#     Node 17, Type 0, BuildingBlock: ESEHIV_clean_linker_0, # of connection points: 3
#     Node 18, Type 1, BuildingBlock: CUKXOW_clean_sbu_0, # of connection points: 6
#     Node 19, Type 1, BuildingBlock: CUKXOW_clean_sbu_0, # of connection points: 6
#     Node 20, Type 1, BuildingBlock: CUKXOW_clean_sbu_0, # of connection points: 6
#     Node 21, Type 1, BuildingBlock: CUKXOW_clean_sbu_0, # of connection points: 6
#     Node 22, Type 1, BuildingBlock: CUKXOW_clean_sbu_0, # of connection points: 6
#     Node 23, Type 1, BuildingBlock: CUKXOW_clean_sbu_0, # of connection points: 6
#     Node 24, Type 1, BuildingBlock: CUKXOW_clean_sbu_0, # of connection points: 6
#     Node 25, Type 1, BuildingBlock: CUKXOW_clean_sbu_0, # of connection points: 6
#     Node 26, Type 1, BuildingBlock: CUKXOW_clean_sbu_0, # of connection points: 6
#     Edge 27, Type (0, 1), BuildingBlock: AJUNOK_clean_linker_0, # of connection points: 2
#     Edge 28, Type (0, 1), BuildingBlock: AJUNOK_clean_linker_0, # of connection points: 2
#     Edge 29, Type (0, 1), BuildingBlock: AJUNOK_clean_linker_0, # of connection points: 2
#     Edge 30, Type (0, 1), BuildingBlock: AJUNOK_clean_linker_0, # of connection points: 2
#     Edge 31, Type (0, 1), BuildingBlock: AJUNOK_clean_linker_0, # of connection points: 2
#     Edge 32, Type (0, 1), BuildingBlock: AJUNOK_clean_linker_0, # of connection points: 2
#     Edge 33, Type (0, 1), BuildingBlock: AJUNOK_clean_linker_0, # of connection points: 2
#     Edge 34, Type (0, 1), BuildingBlock: AJUNOK_clean_linker_0, # of connection points: 2
#     Edge 35, Type (0, 1), BuildingBlock: AJUNOK_clean_linker_0, # of connection points: 2
#     Edge 36, Type (0, 1), BuildingBlock: AJUNOK_clean_linker_0, # of connection points: 2
#     Edge 37, Type (0, 1), BuildingBlock: AJUNOK_clean_linker_0, # of connection points: 2
#     Edge 38, Type (0, 1), BuildingBlock: AJUNOK_clean_linker_0, # of connection points: 2
#     Edge 39, Type (0, 1), BuildingBlock: AJUNOK_clean_linker_0, # of connection points: 2
#     Edge 40, Type (0, 1), BuildingBlock: AJUNOK_clean_linker_0, # of connection points: 2
#     Edge 41, Type (0, 1), BuildingBlock: AJUNOK_clean_linker_0, # of connection points: 2
#     Edge 42, Type (0, 1), BuildingBlock: AJUNOK_clean_linker_0, # of connection points: 2
#     Edge 43, Type (0, 1), BuildingBlock: AJUNOK_clean_linker_0, # of connection points: 2
#     Edge 44, Type (0, 1), BuildingBlock: AJUNOK_clean_linker_0, # of connection points: 2
#     Edge 45, Type (0, 1), BuildingBlock: AJUNOK_clean_linker_0, # of connection points: 2
#     Edge 46, Type (0, 1), BuildingBlock: AJUNOK_clean_linker_0, # of connection points: 2
#     Edge 47, Type (0, 1), BuildingBlock: AJUNOK_clean_linker_0, # of connection points: 2
#     Edge 48, Type (0, 1), BuildingBlock: AJUNOK_clean_linker_0, # of connection points: 2
#     Edge 49, Type (0, 1), BuildingBlock: AJUNOK_clean_linker_0, # of connection points: 2
#     Edge 50, Type (0, 1), BuildingBlock: AJUNOK_clean_linker_0, # of connection points: 2
#     Edge 51, Type (0, 1), BuildingBlock: AJUNOK_clean_linker_0, # of connection points: 2
#     Edge 52, Type (0, 1), BuildingBlock: AJUNOK_clean_linker_0, # of connection points: 2
#     Edge 53, Type (0, 1), BuildingBlock: AJUNOK_clean_linker_0, # of connection points: 2
#     Edge 54, Type (0, 1), BuildingBlock: AJUNOK_clean_linker_0, # of connection points: 2
#     Edge 55, Type (0, 1), BuildingBlock: AJUNOK_clean_linker_0, # of connection points: 2
#     Edge 56, Type (0, 1), BuildingBlock: AJUNOK_clean_linker_0, # of connection points: 2
#     Edge 57, Type (0, 1), BuildingBlock: AJUNOK_clean_linker_0, # of connection points: 2
#     Edge 58, Type (0, 1), BuildingBlock: AJUNOK_clean_linker_0, # of connection points: 2
#     Edge 59, Type (0, 1), BuildingBlock: AJUNOK_clean_linker_0, # of connection points: 2
#     Edge 60, Type (0, 1), BuildingBlock: AJUNOK_clean_linker_0, # of connection points: 2
#     Edge 61, Type (0, 1), BuildingBlock: AJUNOK_clean_linker_0, # of connection points: 2
#     Edge 62, Type (0, 1), BuildingBlock: AJUNOK_clean_linker_0, # of connection points: 2
#     Edge 63, Type (0, 1), BuildingBlock: AJUNOK_clean_linker_0, # of connection points: 2
#     Edge 64, Type (0, 1), BuildingBlock: AJUNOK_clean_linker_0, # of connection points: 2
#     Edge 65, Type (0, 1), BuildingBlock: AJUNOK_clean_linker_0, # of connection points: 2
#     Edge 66, Type (0, 1), BuildingBlock: AJUNOK_clean_linker_0, # of connection points: 2
#     Edge 67, Type (0, 1), BuildingBlock: AJUNOK_clean_linker_0, # of connection points: 2
#     Edge 68, Type (0, 1), BuildingBlock: AJUNOK_clean_linker_0, # of connection points: 2
#     Edge 69, Type (0, 1), BuildingBlock: AJUNOK_clean_linker_0, # of connection points: 2
#     Edge 70, Type (0, 1), BuildingBlock: AJUNOK_clean_linker_0, # of connection points: 2
#     Edge 71, Type (0, 1), BuildingBlock: AJUNOK_clean_linker_0, # of connection points: 2
#     Edge 72, Type (0, 1), BuildingBlock: AJUNOK_clean_linker_0, # of connection points: 2
#     Edge 73, Type (0, 1), BuildingBlock: AJUNOK_clean_linker_0, # of connection points: 2
#     Edge 74, Type (0, 1), BuildingBlock: AJUNOK_clean_linker_0, # of connection points: 2
#     Edge 75, Type (0, 1), BuildingBlock: AJUNOK_clean_linker_0, # of connection points: 2
#     Edge 76, Type (0, 1), BuildingBlock: AJUNOK_clean_linker_0, # of connection points: 2
#     Edge 77, Type (0, 1), BuildingBlock: AJUNOK_clean_linker_0, # of connection points: 2
#     Edge 78, Type (0, 1), BuildingBlock: AJUNOK_clean_linker_0, # of connection points: 2
#     Edge 79, Type (0, 1), BuildingBlock: AJUNOK_clean_linker_0, # of connection points: 2
#     Edge 80, Type (0, 1), BuildingBlock: AJUNOK_clean_linker_0, # of connection points: 2
# Relax obj value: 0.018
# Max RMSD: 0.122
# Mean RMSD: 0.066
data_MOF--net-eea--node1-CUKXOW_clean_sbu_0--node2-ESEHIV_clean_linker_0--edge1-AJUNOK_clean_linker_0
_symmetry_space_group_name_H-M    P1
_symmetry_Int_Tables_number       1
_symmetry_cell_setting            triclinic
loop_
_symmetry_equiv_pos_as_xyz
'x, y, z'
_cell_length_a     38.759697
_cell_length_b     35.290978
_cell_length_c     39.055452
_cell_angle_alpha  93.012095
_cell_angle_beta   93.09837
_cell_angle_gamma 120.07808
loop_
_atom_site_label
_atom_site_type_symbol
_atom_site_fract_x
_atom_site_fract_y
_atom_site_fract_z
_atom_type_partial_charge
H0 H 0.28312 0.21129 0.48364 0.0
H1 H 0.27354 0.08442 0.48064 0.0
H2 H 0.22275 0.11772 0.39488 0.0
C3 C 0.27412 0.17988 0.46969 0.0
C4 C 0.25274 0.16855 0.43697 0.0
C5 C 0.28203 0.14977 0.4853 0.0
C6 C 0.26836 0.1081 0.46817 0.0
C7 C 0.24725 0.09649 0.43541 0.0
C8 C 0.23966 0.12689 0.41992 0.0
H9 H 0.81551 0.0886 0.48288 0.0
H10 H 0.93612 0.19858 0.50654 0.0
H11 H 0.90185 0.1194 0.40974 0.0
C12 C 0.84578 0.10936 0.47617 0.0
C13 C 0.85593 0.09975 0.44433 0.0
C14 C 0.87422 0.1447 0.49944 0.0
C15 C 0.91331 0.17146 0.4893 0.0
C16 C 0.92294 0.16312 0.45642 0.0
C17 C 0.8943 0.12669 0.43465 0.0
H18 H 0.79865 0.6888 0.47784 0.0
H19 H 0.90458 0.67898 0.48018 0.0
H20 H 0.8858 0.75494 0.40655 0.0
C21 C 0.82599 0.69564 0.46671 0.0
C22 C 0.83769 0.72054 0.43816 0.0
C23 C 0.85074 0.68183 0.48243 0.0
C24 C 0.88634 0.6908 0.46826 0.0
C25 C 0.8992 0.71688 0.44036 0.0
C26 C 0.87486 0.73211 0.42616 0.0
H27 H 0.09442 0.30867 0.54388 0.0
H28 H 0.19174 0.28152 0.53932 0.0
H29 H 0.11424 0.23776 0.61978 0.0
C30 C 0.11161 0.29429 0.55283 0.0
C31 C 0.09841 0.26849 0.58081 0.0
C32 C 0.14613 0.30057 0.5372 0.0
C33 C 0.16698 0.28071 0.55144 0.0
C34 C 0.15626 0.25895 0.58148 0.0
C35 C 0.12234 0.25369 0.59615 0.0
H36 H 0.7431 0.92729 0.55957 0.0
H37 H 0.73741 0.80222 0.5541 0.0
H38 H 0.7995 0.89638 0.64246 0.0
C39 C 0.74968 0.90409 0.57121 0.0
C40 C 0.77269 0.91638 0.60299 0.0
C41 C 0.73697 0.8631 0.55343 0.0
C42 C 0.74645 0.83354 0.5682 0.0
C43 C 0.76868 0.8451 0.60067 0.0
C44 C 0.78215 0.88693 0.61761 0.0
H45 H 0.09002 0.80021 0.54453 0.0
H46 H 0.20688 0.91631 0.56262 0.0
H47 H 0.12205 0.88595 0.63762 0.0
C48 C 0.1117 0.82911 0.56083 0.0
C49 C 0.10091 0.84032 0.59208 0.0
C50 C 0.15036 0.85605 0.55027 0.0
C51 C 0.17793 0.89414 0.57132 0.0
C52 C 0.1674 0.90539 0.60241 0.0
C53 C 0.12958 0.87765 0.61307 0.0
H54 H 0.94302 0.54674 0.82163 0.0
H55 H 0.93775 0.42144 0.81601 0.0
H56 H 0.88072 0.45182 0.73374 0.0
C57 C 0.93347 0.51498 0.80808 0.0
C58 C 0.91 0.50247 0.77609 0.0
C59 C 0.9443 0.48606 0.82249 0.0
C60 C 0.9307 0.44456 0.80488 0.0
C61 C 0.90828 0.43251 0.77291 0.0
C62 C 0.89823 0.46148 0.75854 0.0
H63 H 0.46509 0.42032 0.80871 0.0
H64 H 0.58745 0.52782 0.82621 0.0
H65 H 0.54455 0.44373 0.73093 0.0
C66 C 0.49484 0.43984 0.80052 0.0
C67 C 0.50238 0.42733 0.76861 0.0
C68 C 0.52555 0.47454 0.82268 0.0
C69 C 0.56322 0.5008 0.80984 0.0
C70 C 0.57009 0.49034 0.77624 0.0
C71 C 0.5393 0.4534 0.75604 0.0
H72 H 0.47633 0.03463 0.81036 0.0
H73 H 0.59658 0.06323 0.84064 0.0
H74 H 0.56661 0.09174 0.74135 0.0
C75 C 0.50731 0.04785 0.80563 0.0
C76 C 0.51968 0.06742 0.77495 0.0
C77 C 0.53479 0.04698 0.83041 0.0
C78 C 0.57444 0.06231 0.82194 0.0
C79 C 0.58594 0.07793 0.78955 0.0
C80 C 0.55808 0.07968 0.76628 0.0
H81 H 0.7633 0.63913 0.88136 0.0
H82 H 0.87535 0.64183 0.89125 0.0
H83 H 0.79783 0.59875 0.97286 0.0
C84 C 0.78514 0.63522 0.8969 0.0
C85 C 0.77617 0.61817 0.92903 0.0
C86 C 0.8215 0.64516 0.88375 0.0
C87 C 0.84851 0.63678 0.90243 0.0
C88 C 0.83937 0.61848 0.93405 0.0
C89 C 0.80414 0.61128 0.94782 0.0
H90 H 0.41863 0.26465 0.88924 0.0
H91 H 0.41171 0.13855 0.88454 0.0
H92 H 0.47839 0.23535 0.97022 0.0
C93 C 0.42603 0.24174 0.90023 0.0
C94 C 0.44985 0.25438 0.93161 0.0
C95 C 0.41218 0.20006 0.8828 0.0
C96 C 0.42248 0.17097 0.89745 0.0
C97 C 0.44639 0.18373 0.92907 0.0
C98 C 0.46031 0.2256 0.9457 0.0
H99 H 0.75231 0.15687 0.86714 0.0
H100 H 0.87287 0.26671 0.88885 0.0
H101 H 0.78743 0.24096 0.96187 0.0
C102 C 0.77513 0.1845 0.884 0.0
C103 C 0.76511 0.19528 0.91593 0.0
C104 C 0.81414 0.21034 0.87362 0.0
C105 C 0.84261 0.24669 0.89586 0.0
C106 C 0.83269 0.2584 0.92696 0.0
C107 C 0.79425 0.23249 0.93705 0.0
H108 H 0.60956 0.87916 0.14958 0.0
H109 H 0.59242 0.74818 0.15025 0.0
H110 H 0.54372 0.78238 0.06438 0.0
C111 C 0.59726 0.84586 0.13811 0.0
C112 C 0.57398 0.83337 0.1062 0.0
C113 C 0.60408 0.81531 0.1549 0.0
C114 C 0.58843 0.77277 0.13807 0.0
C115 C 0.56799 0.76152 0.10513 0.0
C116 C 0.56044 0.79162 0.08954 0.0
H117 H 0.14858 0.74669 0.15191 0.0
H118 H 0.26185 0.86902 0.16944 0.0
H119 H 0.23127 0.78605 0.07514 0.0
C120 C 0.17733 0.77057 0.14393 0.0
C121 C 0.18753 0.76225 0.11172 0.0
C122 C 0.20353 0.80916 0.16546 0.0
C123 C 0.24033 0.83975 0.15334 0.0
C124 C 0.24978 0.8324 0.12017 0.0
C125 C 0.22343 0.79315 0.09994 0.0
H126 H 0.13862 0.34339 0.14457 0.0
H127 H 0.25925 0.36984 0.1625 0.0
H128 H 0.22751 0.42297 0.07815 0.0
C129 C 0.1689 0.35892 0.13722 0.0
C130 C 0.17967 0.38551 0.10958 0.0
C131 C 0.19763 0.3543 0.15709 0.0
C132 C 0.23684 0.37303 0.14715 0.0
C133 C 0.24749 0.39708 0.11813 0.0
C134 C 0.21883 0.40334 0.09983 0.0
H135 H 0.41524 0.9522 0.19918 0.0
H136 H 0.53255 0.96788 0.22184 0.0
H137 H 0.44429 0.91332 0.29375 0.0
C138 C 0.43705 0.94983 0.21602 0.0
C139 C 0.42613 0.933 0.24815 0.0
C140 C 0.47594 0.96337 0.20604 0.0
C141 C 0.50261 0.95788 0.22855 0.0
C142 C 0.49098 0.93889 0.25966 0.0
C143 C 0.45303 0.92716 0.26936 0.0
H144 H 0.07717 0.58935 0.22666 0.0
H145 H 0.0791 0.46848 0.21732 0.0
H146 H 0.13067 0.556 0.31033 0.0
C147 C 0.08446 0.56642 0.2378 0.0
C148 C 0.10474 0.57704 0.27084 0.0
C149 C 0.07521 0.52747 0.21834 0.0
C150 C 0.086 0.49854 0.23234 0.0
C151 C 0.10524 0.5082 0.2659 0.0
C152 C 0.11499 0.54782 0.28478 0.0
H153 H 0.42695 0.48641 0.20667 0.0
H154 H 0.54232 0.60618 0.22076 0.0
H155 H 0.45826 0.57876 0.29526 0.0
C156 C 0.44874 0.51666 0.2215 0.0
C157 C 0.43959 0.52742 0.25386 0.0
C158 C 0.48573 0.54521 0.20859 0.0
C159 C 0.51301 0.58438 0.22894 0.0
C160 C 0.50266 0.59687 0.25948 0.0
C161 C 0.46598 0.56863 0.27158 0.0
Tb162 Tb 0.55379 0.04023 1.01343 0.0
C163 C 0.52852 0.94852 0.04082 0.0
Tb164 Tb 0.46526 0.98086 0.02742 0.0
O165 O 0.57197 0.04939 0.06885 0.0
O166 O 0.51582 0.03813 0.0513 0.0
O167 O 0.55655 0.98259 0.02642 0.0
C168 C 0.39755 0.93707 0.0579 0.0
O169 O 0.49198 0.94216 0.04409 0.0
C170 C 0.48052 0.97833 0.96263 0.0
C171 C 0.4903 0.07106 0.99966 0.0
O172 O 0.4 0.94048 0.02511 0.0
O173 O 0.43338 0.95743 0.07353 0.0
O174 O 0.44566 0.96851 0.97227 0.0
O175 O 0.50291 0.98341 0.98918 0.0
O176 O 0.46635 0.04209 0.02014 0.0
O177 O 0.52356 0.07261 0.99082 0.0
C178 C 0.61987 0.08822 0.98183 0.0
O179 O 0.60698 0.10315 1.00612 0.0
O180 O 0.59618 0.046 0.97608 0.0
C181 C 0.53733 0.04156 0.07798 0.0
Tb182 Tb 0.98844 0.52796 0.01606 0.0
C183 C 0.08004 0.5937 0.03586 0.0
Tb184 Tb 0.04638 0.49107 0.01909 0.0
O185 O 0.99555 0.54322 0.07224 0.0
O186 O 0.00594 0.49529 0.05092 0.0
O187 O 0.04559 0.58901 0.02303 0.0
C188 C 0.08458 0.45185 0.04403 0.0
O189 O 0.08633 0.56015 0.03849 0.0
C190 C 0.02509 0.50141 0.95673 0.0
C191 C 0.95527 0.42657 0.99556 0.0
O192 O 0.05159 0.44766 0.05384 0.0
O193 O 0.09698 0.47914 0.02023 0.0
O194 O 0.0391 0.47555 0.96302 0.0
O195 O 0.02907 0.52393 0.98438 0.0
O196 O 0.98904 0.43091 1.00957 0.0
O197 O 0.94989 0.46061 0.99239 0.0
C198 C 0.94068 0.55798 0.99547 0.0
O199 O 0.92987 0.52335 1.01208 0.0
O200 O 0.97828 0.57564 0.99067 0.0
C201 C 0.01069 0.51846 0.07841 0.0
Tb202 Tb 0.46435 0.48725 0.02491 0.0
C203 C 0.49442 0.42463 0.99929 0.0
Tb204 Tb 0.55304 0.52837 1.01104 0.0
O205 O 0.44461 0.46592 0.97001 0.0
O206 O 0.50032 0.52049 0.98517 0.0
O207 O 0.46748 0.42785 0.01684 0.0
C208 C 0.62199 0.55686 0.98312 0.0
O209 O 0.52734 0.45962 0.99094 0.0
C210 C 0.5385 0.52012 0.07617 0.0
C211 C 0.52335 0.59085 0.03762 0.0
O212 O 0.60939 0.52928 1.00651 0.0
O213 O 0.59574 0.5683 0.97537 0.0
O214 O 0.57206 0.55006 0.06597 0.0
O215 O 0.51709 0.49482 0.05029 0.0
O216 O 0.54994 0.58775 0.0195 0.0
O217 O 0.49043 0.55579 0.04583 0.0
C218 C 0.39732 0.46009 0.05612 0.0
O219 O 0.40963 0.48876 0.03348 0.0
O220 O 0.42224 0.44604 0.06056 0.0
C221 C 0.47852 0.49481 0.95949 0.0
Tb222 Tb 0.22425 0.37327 0.34519 0.0
C223 C 0.20496 0.28461 0.37635 0.0
Tb224 Tb 0.13545 0.30603 0.35745 0.0
O225 O 0.2408 0.38873 0.40084 0.0
O226 O 0.18254 0.36704 0.38069 0.0
O227 O 0.23151 0.31971 0.36202 0.0
C228 C 0.06938 0.25786 0.38937 0.0
O229 O 0.16694 0.27387 0.37789 0.0
C230 C 0.15397 0.30118 0.294 0.0
C231 C 0.15527 0.39465 0.32747 0.0
O232 O 0.10563 0.26946 0.40094 0.0
O233 O 0.07036 0.27288 0.35956 0.0
O234 O 0.11732 0.28383 0.30211 0.0
O235 O 0.1765 0.31324 0.32163 0.0
O236 O 0.13234 0.36476 0.348 0.0
O237 O 0.19046 0.40025 0.31988 0.0
C238 C 0.29294 0.42004 0.31717 0.0
O239 O 0.27844 0.43601 0.33915 0.0
O240 O 0.26923 0.37794 0.31124 0.0
C241 C 0.2045 0.37601 0.40835 0.0
Tb242 Tb 0.64731 0.86698 0.35326 0.0
C243 C 0.73885 0.93527 0.36793 0.0
Tb244 Tb 0.70658 0.83279 0.35534 0.0
O245 O 0.65437 0.88116 0.40979 0.0
O246 O 0.66565 0.83467 0.38761 0.0
O247 O 0.70355 0.9286 0.35559 0.0
C248 C 0.75052 0.80025 0.38062 0.0
O249 O 0.74634 0.90272 0.37094 0.0
C250 C 0.68369 0.84004 0.29278 0.0
C251 C 0.61625 0.76682 0.33128 0.0
O252 O 0.75653 0.82034 0.35266 0.0
O253 O 0.72041 0.79914 0.39431 0.0
O254 O 0.69768 0.81445 0.30021 0.0
O255 O 0.68791 0.86436 0.31973 0.0
O256 O 0.64993 0.77143 0.34602 0.0
O257 O 0.6106 0.8006 0.32792 0.0
C258 C 0.59596 0.89441 0.33649 0.0
O259 O 0.58602 0.85485 0.34358 0.0
O260 O 0.63463 0.91811 0.33887 0.0
C261 C 0.67032 0.85715 0.41534 0.0
Tb262 Tb 0.12499 0.81744 0.35996 0.0
C263 C 0.15132 0.74936 0.33699 0.0
Tb264 Tb 0.21485 0.85247 0.34866 0.0
O265 O 0.10955 0.79869 0.30439 0.0
O266 O 0.16513 0.8515 0.32306 0.0
O267 O 0.12389 0.75582 0.35064 0.0
C268 C 0.28021 0.87711 0.31493 0.0
O269 O 0.18827 0.78185 0.33348 0.0
C270 C 0.19742 0.84101 0.41301 0.0
C271 C 0.18837 0.91952 0.37234 0.0
O272 O 0.24383 0.84837 0.30302 0.0
O273 O 0.27992 0.89124 0.34627 0.0
O274 O 0.23376 0.86496 0.40449 0.0
O275 O 0.17521 0.8201 0.38594 0.0
O276 O 0.21294 0.91317 0.35356 0.0
O277 O 0.15397 0.88654 0.38073 0.0
C278 C 0.05438 0.78575 0.38582 0.0
O279 O 0.06524 0.81001 0.3601 0.0
O280 O 0.0832 0.77974 0.39695 0.0
C281 C 0.14457 0.82798 0.29621 0.0
Tb282 Tb 0.88056 0.70257 0.68119 0.0
C283 C 0.8571 0.60853 0.70478 0.0
Tb284 Tb 0.78805 0.62949 0.68327 0.0
O285 O 0.89408 0.72201 0.73746 0.0
O286 O 0.83826 0.67431 0.71633 0.0
O287 O 0.88413 0.64388 0.69083 0.0
C288 C 0.71527 0.58572 0.70645 0.0
O289 O 0.81956 0.59919 0.70682 0.0
C290 C 0.81819 0.6357 0.62277 0.0
C291 C 0.81168 0.72661 0.66485 0.0
O292 O 0.7321 0.56823 0.6887 0.0
O293 O 0.7392 0.62804 0.71042 0.0
O294 O 0.78555 0.60117 0.63034 0.0
O295 O 0.82817 0.66435 0.64746 0.0
O296 O 0.78315 0.68687 0.6719 0.0
O297 O 0.85053 0.73899 0.66643 0.0
C298 C 0.94962 0.74525 0.65268 0.0
O299 O 0.9353 0.76343 0.67302 0.0
O300 O 0.92516 0.70296 0.64876 0.0
C301 C 0.85805 0.69341 0.74466 0.0
Tb302 Tb 0.3033 0.17929 0.68491 0.0
C303 C 0.39355 0.25065 0.70556 0.0
Tb304 Tb 0.37031 0.15256 0.68614 0.0
O305 O 0.29975 0.18404 0.7414 0.0
O306 O 0.33717 0.16618 0.71997 0.0
O307 O 0.35914 0.2427 0.68957 0.0
C308 C 0.41731 0.121 0.7052 0.0
O309 O 0.40162 0.21905 0.71147 0.0
C310 C 0.35029 0.17178 0.62608 0.0
C311 C 0.2785 0.07801 0.67144 0.0
O312 O 0.42832 0.15609 0.68917 0.0
O313 O 0.37973 0.10346 0.71014 0.0
O314 O 0.38429 0.17365 0.63365 0.0
O315 O 0.32936 0.15527 0.65034 0.0
O316 O 0.31631 0.08773 0.67796 0.0
O317 O 0.26753 0.10829 0.67157 0.0
C318 C 0.2564 0.20593 0.6562 0.0
O319 O 0.24495 0.17459 0.67665 0.0
O320 O 0.29427 0.22261 0.65255 0.0
C321 C 0.32675 0.17307 0.74839 0.0
Tb322 Tb 0.79943 0.15716 0.69433 0.0
C323 C 0.82453 0.0914 0.666 0.0
Tb324 Tb 0.8881 0.19456 0.68015 0.0
O325 O 0.78039 0.13796 0.63894 0.0
O326 O 0.8366 0.19071 0.65573 0.0
O327 O 0.79847 0.09595 0.68381 0.0
C328 C 0.95437 0.21969 0.64844 0.0
O329 O 0.85894 0.12547 0.6587 0.0
C330 C 0.87278 0.18414 0.745 0.0
C331 C 0.862 0.26015 0.7079 0.0
O332 O 0.94075 0.18968 0.66997 0.0
O333 O 0.93119 0.23612 0.6453 0.0
O334 O 0.90739 0.21293 0.7355 0.0
O335 O 0.85103 0.1609 0.71853 0.0
O336 O 0.88837 0.25575 0.69038 0.0
O337 O 0.82783 0.226 0.71529 0.0
C338 C 0.73391 0.13207 0.72724 0.0
O339 O 0.74443 0.15812 0.70265 0.0
O340 O 0.7598 0.11957 0.73267 0.0
C341 C 0.81495 0.1669 0.62938 0.0
C342 C 0.32485 0.87982 0.12453 0.0
C343 C 0.28739 0.86447 0.10606 0.0
C344 C 0.36061 0.90438 0.10911 0.0
C345 C 0.35997 0.91406 0.07465 0.0
H346 H 0.32652 0.87127 0.1505 0.0
H347 H 0.38883 0.91461 0.12391 0.0
S348 S 0.26989 0.88719 0.01704 0.0
N349 N 0.25211 0.86533 0.05297 0.0
N350 N 0.31901 0.91039 0.02378 0.0
C351 C 0.32283 0.90093 0.05658 0.0
C352 C 0.28662 0.87645 0.07235 0.0
C353 C 0.15348 0.40577 0.05722 0.0
C354 C 0.15172 0.39797 0.09241 0.0
C355 C 0.13179 0.4233 0.04163 0.0
C356 C 0.10587 0.43154 0.06005 0.0
H357 H 0.1723 0.39902 0.04153 0.0
H358 H 0.13516 0.43017 1.01492 0.0
S359 S 0.08725 0.41448 0.15166 0.0
N360 N 0.1216 0.40106 0.14508 0.0
N361 N 0.07661 0.42744 0.11416 0.0
C362 C 0.10149 0.42122 0.09438 0.0
C363 C 0.12534 0.40597 0.11095 0.0
C364 C 0.52558 0.67969 0.09843 0.0
C365 C 0.55532 0.71851 0.08648 0.0
C366 C 0.51404 0.63858 0.08138 0.0
C367 C 0.53267 0.63489 0.05236 0.0
H368 H 0.51129 0.68115 0.12116 0.0
H369 H 0.49133 0.60949 0.09184 0.0
S370 S 0.6113 0.72775 1.01047 0.0
N371 N 0.60201 0.75151 0.04341 0.0
N372 N 0.58129 0.67432 1.0117 0.0
C373 C 0.56199 0.67382 0.03986 0.0
C374 C 0.57312 0.71563 0.05689 0.0
C375 C 0.8547 0.33325 0.95499 0.0
C376 C 0.8626 0.29898 0.94812 0.0
C377 C 0.88455 0.37417 0.97104 0.0
C378 C 0.92321 0.38204 0.98112 0.0
H379 H 0.82571 0.32892 0.94671 0.0
H380 H 0.8774 0.39998 0.97501 0.0
S381 S 0.95755 0.30102 0.97083 0.0
N382 N 0.91056 0.2742 0.954 0.0
N383 N 0.96679 0.35063 0.98428 0.0
C384 C 0.93082 0.34713 0.97548 0.0
C385 C 0.90049 0.30574 0.95893 0.0
C386 C 0.71653 0.5628 0.95634 0.0
C387 C 0.73629 0.60334 0.94183 0.0
C388 C 0.67954 0.54811 0.96956 0.0
C389 C 0.66041 0.57285 0.96813 0.0
H390 H 0.72966 0.54202 0.95742 0.0
H391 H 0.66568 0.51691 0.98074 0.0
S392 S 0.69887 0.68107 0.93311 0.0
N393 N 0.73393 0.66836 0.92754 0.0
N394 N 0.66332 0.63955 0.95108 0.0
C395 C 0.67915 0.61292 0.95315 0.0
C396 C 0.71732 0.62841 0.94025 0.0
C397 C 0.49648 0.16397 0.9506 0.0
C398 C 0.45642 0.15359 0.94599 0.0
C399 C 0.50725 0.1377 0.96879 0.0
C400 C 0.47843 0.10057 0.98368 0.0
H401 H 0.51963 0.19258 0.93995 0.0
H402 H 0.53843 0.14656 0.97106 0.0
S403 S 0.36935 0.06045 0.97943 0.0
N404 N 0.38788 0.10457 0.9579 0.0
N405 N 0.40785 0.05525 0.99264 0.0
C406 C 0.43825 0.09046 0.97979 0.0
C407 C 0.42729 0.11689 0.96072 0.0
C408 C 0.70842 0.12167 0.92843 0.0
C409 C 0.72498 0.16747 0.9285 0.0
C410 C 0.67382 0.09597 0.94508 0.0
C411 C 0.6549 0.11525 0.96273 0.0
H412 H 0.72321 0.10585 0.91666 0.0
H413 H 0.66262 0.06101 0.9451 0.0
S414 S 0.68228 0.23231 0.96571 0.0
N415 N 0.71645 0.22982 0.94379 0.0
N416 N 0.65256 0.18189 0.976 0.0
C417 C 0.66991 0.1605 0.96149 0.0
C418 C 0.70461 0.18649 0.94412 0.0
C419 C 0.90653 0.63033 0.95535 0.0
C420 C 0.86465 0.60315 0.95121 0.0
C421 C 0.93088 0.6156 0.97024 0.0
C422 C 0.91418 0.57334 0.9817 0.0
H423 H 0.92057 0.66316 0.94695 0.0
H424 H 0.96305 0.63746 0.97267 0.0
S425 S 0.8065 0.48838 0.97484 0.0
N426 N 0.8077 0.53099 0.95816 0.0
N427 N 0.85352 0.50402 0.9871 0.0
C428 C 0.87243 0.54586 0.97785 0.0
C429 C 0.84764 0.5606 0.96235 0.0
C430 C 0.43429 0.30414 0.96615 0.0
C431 C 0.46258 0.29718 0.95046 0.0
C432 C 0.44541 0.34488 0.98353 0.0
C433 C 0.48511 0.38034 0.98525 0.0
H434 H 0.40328 0.27801 0.96463 0.0
H435 H 0.42225 0.34899 0.99442 0.0
S436 S 0.57061 0.37723 0.94936 0.0
N437 N 0.5319 0.32736 0.93883 0.0
N438 N 0.55313 0.40456 0.97089 0.0
C439 C 0.51389 0.37313 0.97033 0.0
C440 C 0.50252 0.33137 0.95304 0.0
C441 C 0.15696 0.68112 0.10253 0.0
C442 C 0.16144 0.72011 0.09084 0.0
C443 C 0.13233 0.6406 0.08336 0.0
C444 C 0.11068 0.63753 0.05222 0.0
H445 H 0.17247 0.68199 0.12675 0.0
H446 H 0.12904 0.6114 0.09384 0.0
S447 S 0.11384 0.7308 1.00999 0.0
N448 N 0.14416 0.754 0.04566 0.0
N449 N 0.09658 0.67744 1.01002 0.0
C450 C 0.11553 0.67654 0.04 0.0
C451 C 0.14129 0.71796 0.05922 0.0
C452 C 0.30561 0.38919 0.10218 0.0
C453 C 0.28835 0.4158 0.10637 0.0
C454 C 0.34154 0.4042 0.08667 0.0
C455 C 0.36103 0.44601 0.07433 0.0
H456 H 0.29048 0.35593 0.10973 0.0
H457 H 0.35335 0.38232 0.08321 0.0
S458 S 0.33219 0.53118 0.08434 0.0
N459 N 0.29681 0.4884 0.10131 0.0
N460 N 0.36318 0.51561 0.07074 0.0
C461 C 0.34526 0.47372 0.07985 0.0
C462 C 0.30923 0.45888 0.09626 0.0
C463 C 0.59123 0.90404 0.08099 0.0
C464 C 0.56219 0.86288 0.09028 0.0
C465 C 0.58004 0.93095 0.06409 0.0
C466 C 0.5394 0.91786 0.05625 0.0
H467 H 0.62276 0.91522 0.08641 0.0
H468 H 0.60353 0.96258 0.05769 0.0
S469 S 0.45201 0.81303 0.07637 0.0
N470 N 0.49135 0.81035 0.09117 0.0
N471 N 0.47012 0.86065 0.05967 0.0
C472 C 0.51014 0.87672 0.06578 0.0
C473 C 0.52159 0.84933 0.08271 0.0
C474 C 0.96205 0.20903 0.41105 0.0
C475 C 0.96199 0.19221 0.44296 0.0
C476 C 0.99693 0.23017 0.39413 0.0
C477 C 0.03325 0.23528 0.40833 0.0
H478 H 0.93448 0.20472 0.3986 0.0
H479 H 0.99523 0.24214 0.36947 0.0
S480 S 0.04957 0.19866 0.49203 0.0
N481 N 1.00155 0.18331 0.48875 0.0
N482 N 0.06746 0.22306 0.45691 0.0
C483 C 0.03399 0.21971 0.44073 0.0
C484 C 0.99831 0.19831 0.45811 0.0
C485 C 0.79591 0.75624 0.44393 0.0
C486 C 0.81345 0.73841 0.42266 0.0
C487 C 0.77546 0.77607 0.42999 0.0
C488 C 0.7728 0.77993 0.39445 0.0
H489 H 0.79866 0.75578 0.47162 0.0
H490 H 0.76224 0.78916 0.44728 0.0
S491 S 0.8098 0.73512 0.32717 0.0
N492 N 0.82316 0.72232 0.36367 0.0
N493 N 0.78697 0.76225 0.33799 0.0
C494 C 0.78961 0.76191 0.3728 0.0
C495 C 0.80937 0.7405 0.38679 0.0
C496 C 0.2053 0.01473 0.43451 0.0
C497 C 0.23139 0.05179 0.41809 0.0
C498 C 0.1902 0.97205 0.41881 0.0
C499 C 0.20124 0.96491 0.3864 0.0
H500 H 0.19654 0.0188 0.4597 0.0
H501 H 0.17078 0.94446 0.43271 0.0
S502 S 0.26818 0.05122 0.33255 0.0
N503 N 0.26689 0.07887 0.36745 0.0
N504 N 0.23919 0.99867 0.3381 0.0
C505 C 0.22701 1.00179 0.36958 0.0
C506 C 0.24187 0.04522 0.38537 0.0
C507 C 0.56935 0.65 0.29018 0.0
C508 C 0.53042 0.63973 0.27888 0.0
C509 C 0.59641 0.69069 0.30807 0.0
C510 C 0.58567 0.72285 0.31493 0.0
H511 H 0.57895 0.62637 0.28512 0.0
H512 H 0.6263 0.69724 0.3158 0.0
S513 S 0.48672 0.71142 0.29052 0.0
N514 N 0.48197 0.66418 0.27572 0.0
N515 N 0.53283 0.74102 0.30922 0.0
C516 C 0.54653 0.71268 0.30392 0.0
C517 C 0.51889 0.67102 0.28595 0.0
C518 C 0.38725 0.94411 0.29227 0.0
C519 C 0.38724 0.92199 0.26121 0.0
C520 C 0.35235 0.9297 0.30912 0.0
C521 C 0.31605 0.89258 0.29558 0.0
H522 H 0.41489 0.97199 0.30421 0.0
H523 H 0.35403 0.94737 0.33327 0.0
S524 S 0.30021 0.8228 0.21517 0.0
N525 N 0.34809 0.86106 0.21768 0.0
N526 N 0.28203 0.83427 0.24893 0.0
C527 C 0.31531 0.87084 0.26401 0.0
C528 C 0.35103 0.88548 0.24692 0.0
C529 C 0.14134 0.46596 0.26497 0.0
C530 C 0.11607 0.47757 0.28126 0.0
C531 C 0.15404 0.43937 0.28028 0.0
C532 C 0.14133 0.42276 0.31214 0.0
H533 H 0.15203 0.47828 0.24057 0.0
H534 H 0.17374 0.4315 0.26688 0.0
S535 S 0.07362 0.44228 0.3644 0.0
N536 N 0.07799 0.46982 0.33043 0.0
N537 N 0.1012 0.41922 0.35897 0.0
C538 C 0.11531 0.43339 0.32827 0.0
C539 C 0.1029 0.461 0.31291 0.0
C540 C 0.36516 0.47429 0.24992 0.0
C541 C 0.40252 0.49668 0.26964 0.0
C542 C 0.32968 0.44874 0.26543 0.0
C543 C 0.33037 0.44556 0.30113 0.0
H544 H 0.36312 0.47753 0.22257 0.0
H545 H 0.30146 0.43241 0.24956 0.0
S546 S 0.42006 0.49211 0.36354 0.0
N547 N 0.43792 0.50886 0.32635 0.0
N548 N 0.37089 0.46323 0.35534 0.0
C549 C 0.36727 0.46635 0.32094 0.0
C550 C 0.40344 0.49127 0.3052 0.0
C551 C 0.50337 0.8867 0.29169 0.0
C552 C 0.51769 0.92943 0.28165 0.0
C553 C 0.52839 0.87606 0.31099 0.0
C554 C 0.56856 0.90785 0.32106 0.0
H555 H 0.47291 0.86092 0.28363 0.0
H556 H 0.51655 0.84235 0.31696 0.0
S557 S 0.61942 0.02551 0.30425 0.0
N558 N 0.57363 1.00439 0.2853 0.0
N559 N 0.62078 0.98457 0.32164 0.0
C560 C 0.58275 0.95116 0.31247 0.0
C561 C 0.55733 0.96188 0.29264 0.0
C562 C 0.15629 0.65007 0.30089 0.0
C563 C 0.11591 0.61933 0.29029 0.0
C564 C 0.16762 0.69186 0.31666 0.0
C565 C 0.13885 0.70398 0.32292 0.0
H566 H 0.17936 0.64224 0.29596 0.0
H567 H 0.19914 0.71493 0.32363 0.0
S568 S 0.02881 0.63395 0.3009 0.0
N569 N 0.0471 0.60291 0.28783 0.0
N570 N 0.06782 0.6809 0.31754 0.0
C571 C 0.09817 0.67279 0.31315 0.0
C572 C 0.08686 0.63062 0.29681 0.0
C573 C 0.83681 0.0283 0.4118 0.0
C574 C 0.82691 0.06029 0.42161 0.0
C575 C 0.80876 0.98885 0.39277 0.0
C576 C 0.76986 0.98011 0.38255 0.0
H577 H 0.86601 0.03313 0.42 0.0
H578 H 0.81733 0.9645 0.38702 0.0
S579 S 0.73088 0.05596 0.3991 0.0
N580 N 0.77708 0.08263 0.41786 0.0
N581 N 0.72408 0.00872 0.38186 0.0
C582 C 0.76037 0.01306 0.39079 0.0
C583 C 0.78892 0.05304 0.41048 0.0
C584 C 0.94302 0.73605 0.39142 0.0
C585 C 0.93896 0.73142 0.42694 0.0
C586 C 0.98051 0.75428 0.37836 0.0
C587 C 0.01525 0.76699 0.40004 0.0
H588 H 0.91701 0.72599 0.37345 0.0
H589 H 0.98223 0.75787 0.35102 0.0
S590 S 0.02196 0.76148 0.49443 0.0
N591 N 0.97406 0.74263 0.48352 0.0
N592 N 0.04378 0.77277 0.45823 0.0
C593 C 0.01178 0.76113 0.43522 0.0
C594 C 0.97384 0.74422 0.44884 0.0
C595 C 0.20141 0.18378 0.41006 0.0
C596 C 0.24164 0.19889 0.4214 0.0
C597 C 0.18988 0.21171 0.39557 0.0
C598 C 0.21821 0.25572 0.3914 0.0
H599 H 0.17854 0.15017 0.41282 0.0
H600 H 0.15849 0.19851 0.38738 0.0
S601 S 0.32752 0.3113 0.41711 0.0
N602 N 0.30988 0.26052 0.42761 0.0
N603 N 0.28844 0.31321 0.40033 0.0
C604 C 0.25864 0.27122 0.4026 0.0
C605 C 0.27027 0.2428 0.41766 0.0
C606 C 0.62706 0.56085 0.75882 0.0
C607 C 0.60961 0.51548 0.76194 0.0
C608 C 0.6611 0.58337 0.74062 0.0
C609 C 0.67862 0.56123 0.72462 0.0
H610 H 0.61358 0.57873 0.76956 0.0
H611 H 0.67344 0.61824 0.73866 0.0
S612 S 0.64732 0.44366 0.72898 0.0
N613 N 0.61493 0.4503 0.75048 0.0
N614 N 0.67776 0.49209 0.71562 0.0
C615 C 0.66219 0.51622 0.72856 0.0
C616 C 0.62808 0.49355 0.74745 0.0
C617 C 0.453 0.0505 0.74654 0.0
C618 C 0.49434 0.07991 0.75403 0.0
C619 C 0.42832 0.06369 0.72983 0.0
C620 C 0.44421 0.1065 0.71965 0.0
H621 H 0.43953 0.01729 0.75411 0.0
H622 H 0.39649 0.04037 0.72524 0.0
S623 S 0.54997 0.19663 0.7342 0.0
N624 N 0.54961 0.15451 0.75098 0.0
N625 N 0.50345 0.17835 0.71834 0.0
C626 C 0.48548 0.13592 0.72625 0.0
C627 C 0.51049 0.12286 0.74375 0.0
C628 C 0.86519 0.35096 0.7669 0.0
C629 C 0.89526 0.38926 0.75459 0.0
C630 C 0.85354 0.30941 0.75072 0.0
C631 C 0.87228 0.30471 0.72216 0.0
H632 H 0.85081 0.35319 0.78934 0.0
H633 H 0.83052 0.28077 0.76142 0.0
S634 S 0.95179 0.39587 0.67954 0.0
N635 N 0.94247 0.42073 0.7117 0.0
N636 N 0.92146 0.34264 0.68151 0.0
C637 C 0.902 0.34311 0.70931 0.0
C638 C 0.9133 0.38541 0.7255 0.0
C639 C 0.23431 0.96047 0.63237 0.0
C640 C 0.19448 0.94812 0.62241 0.0
C641 C 0.26071 1.00169 0.64997 0.0
C642 C 0.24834 0.03228 0.65791 0.0
H643 H 0.24522 0.93827 0.6262 0.0
H644 H 0.2914 0.01002 0.65631 0.0
S645 S 0.14623 0.01478 0.63763 0.0
N646 N 0.14346 0.96895 0.62184 0.0
N647 N 0.1926 0.04609 0.65529 0.0
C648 C 0.20805 0.01959 0.64882 0.0
C649 C 0.18127 0.97765 0.63092 0.0
C650 C 0.04807 0.28653 0.60334 0.0
C651 C 0.05919 0.25528 0.59431 0.0
C652 C 0.01333 0.2746 0.62016 0.0
C653 C 0.98928 0.23135 0.62898 0.0
H654 H 0.06699 0.32059 0.59852 0.0
H655 H 0.00606 0.29965 0.62742 0.0
S656 S 1.0015 0.13594 0.60571 0.0
N657 N 0.04003 0.17799 0.59098 0.0
N658 N 0.97618 0.15637 0.62402 0.0
C659 C 0.99896 0.1995 0.61858 0.0
C660 C 0.03354 0.21128 0.60082 0.0
C661 C 0.81845 0.82846 0.62938 0.0
C662 C 0.77868 0.81423 0.61701 0.0
C663 C 0.82861 0.80029 0.64547 0.0
C664 C 0.79935 0.75676 0.65028 0.0
H665 H 0.84206 0.86157 0.62619 0.0
H666 H 0.85981 0.81279 0.65396 0.0
S667 S 0.69032 0.70423 0.62356 0.0
N668 N 0.70968 0.75445 0.61139 0.0
N669 N 0.72832 0.7013 0.6416 0.0
C670 C 0.75923 0.74239 0.63843 0.0
C671 C 0.74905 0.77109 0.62175 0.0
C672 C 0.04118 0.76944 0.60566 0.0
C673 C 0.05968 0.81501 0.60314 0.0
C674 C 1.00507 0.74681 0.62115 0.0
C675 C 0.98655 0.76909 0.63495 0.0
H676 H 0.05547 0.75153 0.59686 0.0
H677 H 0.99224 0.7119 0.62328 0.0
S678 S 0.01952 0.88689 0.62982 0.0
N679 N 0.05388 0.88031 0.61167 0.0
N680 N 0.9872 0.83825 0.64176 0.0
C681 C 1.00371 0.81412 0.63102 0.0
C682 C 0.03991 0.83692 0.61481 0.0
C683 C 0.22306 0.27117 0.60406 0.0
C684 C 0.18131 0.24317 0.59858 0.0
C685 C 0.24708 0.25876 0.62281 0.0
C686 C 0.23016 0.21822 0.63716 0.0
H687 H 0.23723 0.30338 0.59452 0.0
H688 H 0.27909 0.28143 0.62654 0.0
S689 S 0.12314 0.13092 0.62706 0.0
N690 N 0.1246 0.17121 0.6063 0.0
N691 N 0.16968 0.14876 0.64273 0.0
C692 C 0.18865 0.18946 0.63129 0.0
C693 C 0.16425 0.20171 0.61167 0.0
C694 C 0.75927 0.97187 0.6313 0.0
C695 C 0.78706 0.96043 0.62058 0.0
C696 C 0.77191 0.014 0.64672 0.0
C697 C 0.81282 0.04653 0.65143 0.0
H698 H 0.7275 0.94807 0.6276 0.0
H699 H 0.74923 0.02134 0.65422 0.0
S700 S 0.89734 0.03254 0.62721 0.0
N701 N 0.85703 0.98417 0.61562 0.0
N702 N 0.88107 0.06396 0.64407 0.0
C703 C 0.84094 0.03534 0.64075 0.0
C704 C 0.82799 0.9921 0.6255 0.0
C705 C 0.4533 0.37554 0.72 0.0
C706 C 0.47478 0.38259 0.75209 0.0
C707 C 0.42688 0.3326 0.70488 0.0
C708 C 0.42208 0.2957 0.72106 0.0
H709 H 0.45659 0.40326 0.70683 0.0
H710 H 0.41037 0.32826 0.68031 0.0
S711 S 0.47191 0.29745 0.80554 0.0
N712 N 0.4897 0.34976 0.79957 0.0
N713 N 0.44073 0.26944 0.7712 0.0
C714 C 0.44385 0.30267 0.75303 0.0
C715 C 0.47007 0.34608 0.76853 0.0
C716 C 0.64573 0.13335 0.76259 0.0
C717 C 0.62712 0.09434 0.77927 0.0
C718 C 0.68053 0.1455 0.74623 0.0
C719 C 0.69869 0.11971 0.74659 0.0
H720 H 0.63239 0.15391 0.76106 0.0
H721 H 0.69299 0.17502 0.73281 0.0
S722 S 0.66468 0.01709 0.78954 0.0
N723 N 0.63102 0.03145 0.79687 0.0
N724 N 0.6976 0.05533 0.76719 0.0
C725 C 0.68209 0.08223 0.76503 0.0
C726 C 0.6461 0.06938 0.78125 0.0
C727 C 0.92416 0.57176 0.74962 0.0
C728 C 0.89645 0.53085 0.76042 0.0
C729 C 0.91129 0.5962 0.73091 0.0
C730 C 0.87021 0.58074 0.72249 0.0
H731 H 0.95597 0.58444 0.75494 0.0
H732 H 0.93379 0.62762 0.72326 0.0
S733 S 0.78582 0.47561 0.74615 0.0
N734 N 0.82639 0.47625 0.76224 0.0
N735 N 0.802 0.5216 0.72733 0.0
C736 C 0.8423 0.53993 0.7337 0.0
C737 C 0.85546 0.51519 0.75257 0.0
C738 C 0.51612 0.97409 0.15485 0.0
C739 C 0.48952 0.98279 0.17244 0.0
C740 C 0.53228 0.99429 0.12511 0.0
C741 C 0.52129 0.02265 0.1105 0.0
H742 H 0.52475 0.95133 0.16401 0.0
H743 H 0.55297 0.98684 0.11307 0.0
S744 S 0.45254 0.05646 0.14467 0.0
N745 N 0.45386 0.02341 0.17247 0.0
N746 N 0.48181 0.05815 0.11488 0.0
C747 C 0.49405 0.03092 0.12683 0.0
C748 C 0.47856 0.0116 0.15798 0.0
C749 C 0.01916 0.51486 0.17538 0.0
C750 C 0.05705 0.51934 0.18242 0.0
C751 C 1.00389 0.51283 0.14141 0.0
C752 C 0.02581 0.51493 0.11326 0.0
H753 H 1.0017 0.5141 0.19636 0.0
H754 H 0.975 0.51049 0.13719 0.0
S755 S 0.12906 0.53269 0.11915 0.0
N756 N 0.11744 0.52937 0.15931 0.0
N757 N 0.08893 0.52502 0.09574 0.0
C758 C 0.06379 0.51936 0.12024 0.0
C759 C 0.07936 0.52171 0.15479 0.0
C760 C 0.52056 0.57217 0.15501 0.0
C761 C 0.49654 0.5363 0.17383 0.0
C762 C 0.53479 0.56647 0.12418 0.0
C763 C 0.52359 0.52448 0.10931 0.0
H764 H 0.52884 0.60541 0.16408 0.0
H765 H 0.55421 0.59533 0.11153 0.0
S766 S 0.46061 0.41895 0.14596 0.0
N767 N 0.46312 0.45654 0.17466 0.0
N768 N 0.48654 0.44605 0.1145 0.0
C769 C 0.49839 0.48799 0.12656 0.0
C770 C 0.48542 0.49379 0.15914 0.0
C771 C 0.95726 0.50932 0.8863 0.0
C772 C 0.96916 0.49749 0.85605 0.0
C773 C 0.97646 0.51234 0.91889 0.0
C774 C 0.00811 0.50362 0.92235 0.0
H775 H 0.93165 0.51397 0.88495 0.0
H776 H 0.96494 0.51906 0.94151 0.0
S777 S 0.05372 0.47677 0.85087 0.0
N778 N 0.01721 0.48137 0.83155 0.0
N779 N 0.05251 0.48625 0.89251 0.0
C780 C 0.0214 0.49383 0.8922 0.0
C781 C 1.00222 0.49112 0.85916 0.0
C782 C 0.53148 0.52218 0.87664 0.0
C783 C 0.51766 0.48024 0.8594 0.0
C784 C 0.51968 0.52695 0.90948 0.0
C785 C 0.49256 0.49004 0.92567 0.0
H786 H 0.55054 0.5515 0.86431 0.0
H787 H 0.53068 0.55973 0.9217 0.0
S788 S 0.45227 0.3732 0.89429 0.0
N789 N 0.48103 0.40125 0.86468 0.0
N790 N 0.4544 0.41042 0.92304 0.0
C791 C 0.47953 0.44818 0.90922 0.0
C792 C 0.49332 0.44326 0.87707 0.0
C793 C 0.53796 0.00867 0.88279 0.0
C794 C 0.52209 0.03135 0.86516 0.0
C795 C 0.52489 0.99203 0.91455 0.0
C796 C 0.49438 0.99588 0.92925 0.0
H797 H 0.56018 1.00294 0.87182 0.0
H798 H 0.53803 0.97504 0.92723 0.0
S799 S 0.44457 0.05459 0.89571 0.0
N800 N 0.47749 0.06135 0.86817 0.0
N801 N 0.44883 0.02408 0.9243 0.0
C802 C 0.47812 0.01814 0.91206 0.0
C803 C 0.49305 0.03743 0.88102 0.0
C804 C 0.2015 0.34378 0.49937 0.0
C805 C 0.16091 0.32626 0.50598 0.0
C806 C 0.21548 0.3609 0.46825 0.0
C807 C 0.19026 0.36359 0.44269 0.0
H808 H 0.22317 0.3439 0.51804 0.0
H809 H 0.24622 0.37117 0.46396 0.0
S810 S 0.08656 0.3395 0.45071 0.0
N811 N 0.09812 0.32233 0.48564 0.0
N812 N 0.12649 0.35899 0.42904 0.0
C813 C 0.15152 0.35239 0.45035 0.0
C814 C 0.1364 0.33295 0.48155 0.0
C815 C 0.67822 0.84301 0.51084 0.0
C816 C 0.71848 0.85455 0.51765 0.0
C817 C 0.66251 0.84245 0.47731 0.0
C818 C 0.68655 0.85349 0.44958 0.0
H819 H 0.6592 0.8358 0.53174 0.0
H820 H 0.63159 0.83428 0.47319 0.0
S821 S 0.79519 0.89098 0.45547 0.0
N822 N 0.78247 0.87944 0.49485 0.0
N823 N 0.75365 0.87974 0.43247 0.0
C824 C 0.72693 0.86533 0.45642 0.0
C825 C 0.74271 0.86549 0.49034 0.0
C826 C 0.13786 0.8459 0.48603 0.0
C827 C 0.16101 0.8478 0.51569 0.0
C828 C 0.14955 0.84317 0.45301 0.0
C829 C 0.18458 0.84174 0.44815 0.0
H830 H 0.11148 0.84866 0.48842 0.0
H831 H 0.13199 0.84463 0.43144 0.0
S832 S 0.25612 0.84635 0.51751 0.0
N833 N 0.22102 0.84854 0.53824 0.0
N834 N 0.24276 0.84316 0.47608 0.0
C835 C 0.20812 0.84379 0.47763 0.0
C836 C 0.19633 0.84671 0.51135 0.0
C837 C 0.65119 0.80798 0.19742 0.0
C838 C 0.62721 0.8266 0.18971 0.0
C839 C 0.66976 0.81361 0.23054 0.0
C840 C 0.66642 0.83923 0.25755 0.0
H841 H 0.65544 0.78825 0.17779 0.0
H842 H 0.68664 0.79717 0.23501 0.0
S843 S 0.61237 0.90065 0.25043 0.0
N844 N 0.60335 0.8742 0.21201 0.0
N845 N 0.64129 0.8876 0.27343 0.0
C846 C 0.64501 0.86059 0.24988 0.0
C847 C 0.62484 0.85374 0.21623 0.0
C848 C 0.16842 0.77944 0.21859 0.0
C849 C 0.19163 0.81614 0.20024 0.0
C850 C 0.15282 0.78354 0.24919 0.0
C851 C 0.16129 0.82476 0.26382 0.0
H852 H 0.16179 0.74686 0.20921 0.0
H853 H 0.13439 0.75417 0.26173 0.0
S854 S 0.22211 0.93189 0.22866 0.0
N855 N 0.22217 0.89572 0.20008 0.0
N856 N 0.1958 0.90334 0.2594 0.0
C857 C 0.18595 0.86206 0.24715 0.0
C858 C 0.20058 0.85784 0.21508 0.0
C859 C 0.21127 0.36398 0.22077 0.0
C860 C 0.18821 0.3367 0.19122 0.0
C861 C 0.2004 0.35178 0.25374 0.0
C862 C 0.16638 0.31164 0.25879 0.0
H863 H 0.23672 0.3962 0.21834 0.0
H864 H 0.21751 0.37543 0.27512 0.0
S865 S 0.09589 0.2278 0.18977 0.0
N866 N 0.12967 0.26727 0.16883 0.0
N867 N 0.10948 0.24423 0.23117 0.0
C868 C 0.14312 0.28372 0.22943 0.0
C869 C 0.15404 0.29621 0.19562 0.0
C870 C 0.86304 0.69821 0.84232 0.0
C871 C 0.82894 0.65866 0.84844 0.0
C872 C 0.87131 0.70972 0.80858 0.0
C873 C 0.84589 0.682 0.77984 0.0
H874 H 0.88361 0.72012 0.86371 0.0
H875 H 0.89824 0.74023 0.80499 0.0
S876 S 0.75458 0.5729 0.78298 0.0
N877 N 0.77089 0.59081 0.82369 0.0
N878 N 0.78582 0.61231 0.76053 0.0
C879 C 0.81162 0.64241 0.78597 0.0
C880 C 0.80335 0.63075 0.82023 0.0
C881 C 0.39869 0.17439 0.81961 0.0
C882 C 0.3872 0.18783 0.84935 0.0
C883 C 0.37825 0.16829 0.78705 0.0
C884 C 0.34555 0.17524 0.78314 0.0
H885 H 0.42464 0.17036 0.82131 0.0
H886 H 0.38901 0.15954 0.76472 0.0
S887 S 0.3011 0.20593 0.85356 0.0
N888 N 0.3391 0.20433 0.87316 0.0
N889 N 0.30093 0.19309 0.81226 0.0
C890 C 0.33275 0.18672 0.81292 0.0
C891 C 0.35352 0.19297 0.84592 0.0
C892 C 0.85297 0.23737 0.82206 0.0
C893 C 0.82625 0.2015 0.83962 0.0
C894 C 0.86894 0.23132 0.79239 0.0
C895 C 0.85728 0.18912 0.77767 0.0
H896 H 0.86206 0.27079 0.83141 0.0
H897 H 0.88999 0.26006 0.78046 0.0
S898 S 0.78852 0.08382 0.81222 0.0
N899 N 0.78994 0.12175 0.83988 0.0
N900 N 0.81764 0.11062 0.78223 0.0
C901 C 0.82987 0.15276 0.79397 0.0
C902 C 0.81466 0.15886 0.82517 0.0
C903 C 0.3414 0.17794 0.52909 0.0
C904 C 0.29993 0.15936 0.52129 0.0
C905 C 0.35782 0.18339 0.56329 0.0
C906 C 0.33322 0.1703 0.59066 0.0
H907 H 0.36106 0.18738 0.50857 0.0
H908 H 0.38981 0.19696 0.5682 0.0
S909 S 0.22239 0.11982 0.58276 0.0
N910 N 0.23476 0.12843 0.54297 0.0
N911 N 0.26491 0.13801 0.60687 0.0
C912 C 0.29167 0.15243 0.58285 0.0
C913 C 0.2752 0.14707 0.54823 0.0
C914 C 0.83465 0.11565 0.55058 0.0
C915 C 0.86188 0.15218 0.53387 0.0
C916 C 0.81876 0.12074 0.58073 0.0
C917 C 0.83065 0.1626 0.59653 0.0
H918 H 0.82515 0.08246 0.54023 0.0
H919 H 0.79757 0.09155 0.59212 0.0
S920 S 0.90164 0.26931 0.56508 0.0
N921 N 0.89955 0.2322 0.53612 0.0
N922 N 0.87177 0.24138 0.59426 0.0
C923 C 0.85876 0.1995 0.58117 0.0
C924 C 0.87404 0.19443 0.54968 0.0
C925 C 0.81836 0.6249 0.52481 0.0
C926 C 0.84466 0.66844 0.5179 0.0
C927 C 0.81102 0.61401 0.55898 0.0
C928 C 0.8295 0.6464 0.58714 0.0
H929 H 0.80295 0.59941 0.50376 0.0
H930 H 0.79001 0.58027 0.56328 0.0
S931 S 0.89998 0.76561 0.58144 0.0
N932 N 0.88895 0.74382 0.54118 0.0
N933 N 0.8749 0.72419 0.60474 0.0
C934 C 0.85614 0.68996 0.58005 0.0
C935 C 0.86373 0.70076 0.54558 0.0
loop_
_geom_bond_atom_site_label_1
_geom_bond_atom_site_label_2
_geom_bond_distance
_geom_bond_site_symmetry_2
_ccdc_geom_bond_type
H0 C3 0.931 . S
H1 C6 0.928 . S
H2 C8 0.930 . S
C3 H0 0.931 . S
C3 C4 1.413 . S
C3 C5 1.360 . S
C4 C3 1.413 . S
C4 C8 1.429 . S
C5 C3 1.360 . S
C5 C6 1.372 . S
C6 H1 0.928 . S
C6 C5 1.372 . S
C6 C7 1.404 . S
C7 C6 1.404 . S
C7 C8 1.391 . S
C8 H2 0.930 . S
C8 C4 1.429 . S
C8 C7 1.391 . S
H9 C12 0.931 . S
H10 C15 0.928 . S
H11 C17 0.930 . S
C12 H9 0.931 . S
C12 C13 1.413 . S
C12 C14 1.360 . S
C13 C12 1.413 . S
C13 C17 1.429 . S
C14 C12 1.360 . S
C14 C15 1.372 . S
C15 H10 0.928 . S
C15 C14 1.372 . S
C15 C16 1.404 . S
C16 C15 1.404 . S
C16 C17 1.391 . S
C17 H11 0.930 . S
C17 C13 1.429 . S
C17 C16 1.391 . S
H18 C21 0.931 . S
H19 C24 0.928 . S
H20 C26 0.930 . S
C21 H18 0.931 . S
C21 C22 1.413 . S
C21 C23 1.360 . S
C22 C21 1.413 . S
C22 C26 1.429 . S
C23 C21 1.360 . S
C23 C24 1.372 . S
C24 H19 0.928 . S
C24 C23 1.372 . S
C24 C25 1.404 . S
C25 C24 1.404 . S
C25 C26 1.391 . S
C26 H20 0.930 . S
C26 C22 1.429 . S
C26 C25 1.391 . S
H27 C30 0.931 . S
H28 C33 0.928 . S
H29 C35 0.930 . S
C30 H27 0.931 . S
C30 C31 1.413 . S
C30 C32 1.360 . S
C31 C30 1.413 . S
C31 C35 1.429 . S
C32 C30 1.360 . S
C32 C33 1.372 . S
C33 H28 0.928 . S
C33 C32 1.372 . S
C33 C34 1.404 . S
C34 C33 1.404 . S
C34 C35 1.391 . S
C35 H29 0.930 . S
C35 C31 1.429 . S
C35 C34 1.391 . S
H36 C39 0.931 . S
H37 C42 0.928 . S
H38 C44 0.930 . S
C39 H36 0.931 . S
C39 C40 1.413 . S
C39 C41 1.360 . S
C40 C39 1.413 . S
C40 C44 1.429 . S
C41 C39 1.360 . S
C41 C42 1.372 . S
C42 H37 0.928 . S
C42 C41 1.372 . S
C42 C43 1.404 . S
C43 C42 1.404 . S
C43 C44 1.391 . S
C44 H38 0.930 . S
C44 C40 1.429 . S
C44 C43 1.391 . S
H45 C48 0.931 . S
H46 C51 0.928 . S
H47 C53 0.930 . S
C48 H45 0.931 . S
C48 C49 1.413 . S
C48 C50 1.360 . S
C49 C48 1.413 . S
C49 C53 1.429 . S
C50 C48 1.360 . S
C50 C51 1.372 . S
C51 H46 0.928 . S
C51 C50 1.372 . S
C51 C52 1.404 . S
C52 C51 1.404 . S
C52 C53 1.391 . S
C53 H47 0.930 . S
C53 C49 1.429 . S
C53 C52 1.391 . S
H54 C57 0.931 . S
H55 C60 0.928 . S
H56 C62 0.930 . S
C57 H54 0.931 . S
C57 C58 1.413 . S
C57 C59 1.360 . S
C58 C57 1.413 . S
C58 C62 1.429 . S
C59 C57 1.360 . S
C59 C60 1.372 . S
C60 H55 0.928 . S
C60 C59 1.372 . S
C60 C61 1.404 . S
C61 C60 1.404 . S
C61 C62 1.391 . S
C62 H56 0.930 . S
C62 C58 1.429 . S
C62 C61 1.391 . S
H63 C66 0.931 . S
H64 C69 0.928 . S
H65 C71 0.930 . S
C66 H63 0.931 . S
C66 C67 1.413 . S
C66 C68 1.360 . S
C67 C66 1.413 . S
C67 C71 1.429 . S
C68 C66 1.360 . S
C68 C69 1.372 . S
C69 H64 0.928 . S
C69 C68 1.372 . S
C69 C70 1.404 . S
C70 C69 1.404 . S
C70 C71 1.391 . S
C71 H65 0.930 . S
C71 C67 1.429 . S
C71 C70 1.391 . S
H72 C75 0.931 . S
H73 C78 0.928 . S
H74 C80 0.930 . S
C75 H72 0.931 . S
C75 C76 1.413 . S
C75 C77 1.360 . S
C76 C75 1.413 . S
C76 C80 1.429 . S
C77 C75 1.360 . S
C77 C78 1.372 . S
C78 H73 0.928 . S
C78 C77 1.372 . S
C78 C79 1.404 . S
C79 C78 1.404 . S
C79 C80 1.391 . S
C80 H74 0.930 . S
C80 C76 1.429 . S
C80 C79 1.391 . S
H81 C84 0.931 . S
H82 C87 0.928 . S
H83 C89 0.930 . S
C84 H81 0.931 . S
C84 C85 1.413 . S
C84 C86 1.360 . S
C85 C84 1.413 . S
C85 C89 1.429 . S
C86 C84 1.360 . S
C86 C87 1.372 . S
C87 H82 0.928 . S
C87 C86 1.372 . S
C87 C88 1.404 . S
C88 C87 1.404 . S
C88 C89 1.391 . S
C89 H83 0.930 . S
C89 C85 1.429 . S
C89 C88 1.391 . S
H90 C93 0.931 . S
H91 C96 0.928 . S
H92 C98 0.930 . S
C93 H90 0.931 . S
C93 C94 1.413 . S
C93 C95 1.360 . S
C94 C93 1.413 . S
C94 C98 1.429 . S
C95 C93 1.360 . S
C95 C96 1.372 . S
C96 H91 0.928 . S
C96 C95 1.372 . S
C96 C97 1.404 . S
C97 C96 1.404 . S
C97 C98 1.391 . S
C98 H92 0.930 . S
C98 C94 1.429 . S
C98 C97 1.391 . S
H99 C102 0.931 . S
H100 C105 0.928 . S
H101 C107 0.930 . S
C102 H99 0.931 . S
C102 C103 1.413 . S
C102 C104 1.360 . S
C103 C102 1.413 . S
C103 C107 1.429 . S
C104 C102 1.360 . S
C104 C105 1.372 . S
C105 H100 0.928 . S
C105 C104 1.372 . S
C105 C106 1.404 . S
C106 C105 1.404 . S
C106 C107 1.391 . S
C107 H101 0.930 . S
C107 C103 1.429 . S
C107 C106 1.391 . S
H108 C111 0.931 . S
H109 C114 0.928 . S
H110 C116 0.930 . S
C111 H108 0.931 . S
C111 C112 1.413 . S
C111 C113 1.360 . S
C112 C111 1.413 . S
C112 C116 1.429 . S
C113 C111 1.360 . S
C113 C114 1.372 . S
C114 H109 0.928 . S
C114 C113 1.372 . S
C114 C115 1.404 . S
C115 C114 1.404 . S
C115 C116 1.391 . S
C116 H110 0.930 . S
C116 C112 1.429 . S
C116 C115 1.391 . S
H117 C120 0.931 . S
H118 C123 0.928 . S
H119 C125 0.930 . S
C120 H117 0.931 . S
C120 C121 1.413 . S
C120 C122 1.360 . S
C121 C120 1.413 . S
C121 C125 1.429 . S
C122 C120 1.360 . S
C122 C123 1.372 . S
C123 H118 0.928 . S
C123 C122 1.372 . S
C123 C124 1.404 . S
C124 C123 1.404 . S
C124 C125 1.391 . S
C125 H119 0.930 . S
C125 C121 1.429 . S
C125 C124 1.391 . S
H126 C129 0.931 . S
H127 C132 0.928 . S
H128 C134 0.930 . S
C129 H126 0.931 . S
C129 C130 1.413 . S
C129 C131 1.360 . S
C130 C129 1.413 . S
C130 C134 1.429 . S
C131 C129 1.360 . S
C131 C132 1.372 . S
C132 H127 0.928 . S
C132 C131 1.372 . S
C132 C133 1.404 . S
C133 C132 1.404 . S
C133 C134 1.391 . S
C134 H128 0.930 . S
C134 C130 1.429 . S
C134 C133 1.391 . S
H135 C138 0.931 . S
H136 C141 0.928 . S
H137 C143 0.930 . S
C138 H135 0.931 . S
C138 C139 1.413 . S
C138 C140 1.360 . S
C139 C138 1.413 . S
C139 C143 1.429 . S
C140 C138 1.360 . S
C140 C141 1.372 . S
C141 H136 0.928 . S
C141 C140 1.372 . S
C141 C142 1.404 . S
C142 C141 1.404 . S
C142 C143 1.391 . S
C143 H137 0.930 . S
C143 C139 1.429 . S
C143 C142 1.391 . S
H144 C147 0.931 . S
H145 C150 0.928 . S
H146 C152 0.930 . S
C147 H144 0.931 . S
C147 C148 1.413 . S
C147 C149 1.360 . S
C148 C147 1.413 . S
C148 C152 1.429 . S
C149 C147 1.360 . S
C149 C150 1.372 . S
C150 H145 0.928 . S
C150 C149 1.372 . S
C150 C151 1.404 . S
C151 C150 1.404 . S
C151 C152 1.391 . S
C152 H146 0.930 . S
C152 C148 1.429 . S
C152 C151 1.391 . S
H153 C156 0.931 . S
H154 C159 0.928 . S
H155 C161 0.930 . S
C156 H153 0.931 . S
C156 C157 1.413 . S
C156 C158 1.360 . S
C157 C156 1.413 . S
C157 C161 1.429 . S
C158 C156 1.360 . S
C158 C159 1.372 . S
C159 H154 0.928 . S
C159 C158 1.372 . S
C159 C160 1.404 . S
C160 C159 1.404 . S
C160 C161 1.391 . S
C161 H155 0.930 . S
C161 C157 1.429 . S
C161 C160 1.391 . S
Tb162 O165 2.453 . S
Tb162 O166 2.596 1_545 S
Tb162 O167 2.374 1_545 S
Tb162 O175 2.343 1_554 S
Tb162 O177 2.353 . S
Tb162 O179 2.427 1_554 S
Tb162 O180 2.513 1_554 S
C163 O167 1.251 . S
C163 O169 1.248 1_554 S
Tb164 O166 2.343 1_556 S
Tb164 O169 2.360 . S
Tb164 O172 2.427 1_556 S
Tb164 O173 2.513 1_556 S
Tb164 O174 2.453 . S
Tb164 O175 2.596 1_565 S
Tb164 O176 2.374 1_565 S
O165 Tb162 2.453 . S
O165 C181 1.245 . S
O166 Tb162 2.596 1_565 S
O166 Tb164 2.343 1_554 S
O166 C181 1.259 1_565 S
O167 Tb162 2.374 1_565 S
O167 C163 1.251 . S
C168 O172 1.275 . S
C168 O173 1.246 . S
O169 C163 1.248 1_556 S
O169 Tb164 2.360 . S
C170 O174 1.245 . S
C170 O175 1.259 1_565 S
C171 O176 1.250 . S
C171 O177 1.263 1_556 S
O172 Tb164 2.427 1_554 S
O172 C168 1.275 . S
O173 Tb164 2.513 1_554 S
O173 C168 1.246 . S
O174 Tb164 2.453 . S
O174 C170 1.245 . S
O175 Tb162 2.343 1_556 S
O175 Tb164 2.596 1_545 S
O175 C170 1.259 1_545 S
O176 Tb164 2.374 1_545 S
O176 C171 1.250 . S
O177 Tb162 2.353 . S
O177 C171 1.263 1_554 S
C178 O179 1.275 . S
C178 O180 1.246 . S
O179 Tb162 2.427 1_556 S
O179 C178 1.275 . S
O180 Tb162 2.513 1_556 S
O180 C178 1.246 . S
C181 O165 1.245 . S
C181 O166 1.259 1_545 S
Tb182 O185 2.453 . S
Tb182 O186 2.596 1_655 S
Tb182 O187 2.374 1_655 S
Tb182 O195 2.343 1_554 S
Tb182 O197 2.359 . S
Tb182 O199 2.427 1_554 S
Tb182 O200 2.513 1_554 S
C183 O187 1.251 . S
C183 O189 1.263 . S
Tb184 O186 2.343 1_556 S
Tb184 O189 2.353 1_556 S
Tb184 O192 2.427 1_556 S
Tb184 O193 2.513 1_556 S
Tb184 O194 2.453 . S
Tb184 O195 2.596 1_455 S
Tb184 O196 2.374 1_455 S
O185 Tb182 2.453 . S
O185 C201 1.245 1_655 S
O186 Tb182 2.596 1_455 S
O186 Tb184 2.343 1_554 S
O186 C201 1.259 . S
O187 Tb182 2.374 1_455 S
O187 C183 1.251 . S
C188 O192 1.275 . S
C188 O193 1.246 . S
O189 C183 1.263 . S
O189 Tb184 2.353 1_554 S
C190 O194 1.245 1_655 S
C190 O195 1.259 . S
C191 O196 1.250 . S
C191 O197 1.246 1_556 S
O192 Tb184 2.427 1_554 S
O192 C188 1.275 . S
O193 Tb184 2.513 1_554 S
O193 C188 1.246 . S
O194 Tb184 2.453 . S
O194 C190 1.245 1_455 S
O195 Tb182 2.343 1_556 S
O195 Tb184 2.596 1_655 S
O195 C190 1.259 . S
O196 Tb184 2.374 1_655 S
O196 C191 1.250 . S
O197 Tb182 2.359 . S
O197 C191 1.246 1_554 S
C198 O199 1.275 . S
C198 O200 1.246 . S
O199 Tb182 2.427 1_556 S
O199 C198 1.275 . S
O200 Tb182 2.513 1_556 S
O200 C198 1.246 . S
C201 O185 1.245 1_455 S
C201 O186 1.259 . S
Tb202 O205 2.453 . S
Tb202 O206 2.596 . S
Tb202 O207 2.374 . S
Tb202 O215 2.343 1_556 S
Tb202 O217 2.353 1_556 S
Tb202 O219 2.427 1_556 S
Tb202 O220 2.513 1_556 S
C203 O207 1.251 . S
C203 O209 1.263 1_556 S
Tb204 O206 2.343 1_554 S
Tb204 O209 2.353 . S
Tb204 O212 2.427 1_554 S
Tb204 O213 2.513 1_554 S
Tb204 O214 2.453 . S
Tb204 O215 2.596 . S
Tb204 O216 2.374 . S
O205 Tb202 2.453 . S
O205 C221 1.245 . S
O206 Tb202 2.596 . S
O206 Tb204 2.343 1_556 S
O206 C221 1.259 . S
O207 Tb202 2.374 . S
O207 C203 1.251 . S
C208 O212 1.275 . S
C208 O213 1.246 . S
O209 C203 1.263 1_554 S
O209 Tb204 2.353 . S
C210 O214 1.245 . S
C210 O215 1.259 . S
C211 O216 1.250 . S
C211 O217 1.263 . S
O212 Tb204 2.427 1_556 S
O212 C208 1.275 . S
O213 Tb204 2.513 1_556 S
O213 C208 1.246 . S
O214 Tb204 2.453 . S
O214 C210 1.245 . S
O215 Tb202 2.343 1_554 S
O215 Tb204 2.596 . S
O215 C210 1.259 . S
O216 Tb204 2.374 . S
O216 C211 1.250 . S
O217 Tb202 2.353 1_554 S
O217 C211 1.263 . S
C218 O219 1.275 . S
C218 O220 1.246 . S
O219 Tb202 2.427 1_554 S
O219 C218 1.275 . S
O220 Tb202 2.513 1_554 S
O220 C218 1.246 . S
C221 O205 1.245 . S
C221 O206 1.259 . S
Tb222 O225 2.453 . S
Tb222 O226 2.596 . S
Tb222 O227 2.374 . S
Tb222 O235 2.343 . S
Tb222 O237 2.353 . S
Tb222 O239 2.427 . S
Tb222 O240 2.513 . S
C223 O227 1.251 . S
C223 O229 1.263 . S
Tb224 O226 2.343 . S
Tb224 O229 2.353 . S
Tb224 O232 2.427 . S
Tb224 O233 2.513 . S
Tb224 O234 2.453 . S
Tb224 O235 2.596 . S
Tb224 O236 2.374 . S
O225 Tb222 2.453 . S
O225 C241 1.245 . S
O226 Tb222 2.596 . S
O226 Tb224 2.343 . S
O226 C241 1.259 . S
O227 Tb222 2.374 . S
O227 C223 1.251 . S
C228 O232 1.275 . S
C228 O233 1.246 . S
O229 C223 1.263 . S
O229 Tb224 2.353 . S
C230 O234 1.245 . S
C230 O235 1.259 . S
C231 O236 1.250 . S
C231 O237 1.263 . S
O232 Tb224 2.427 . S
O232 C228 1.275 . S
O233 Tb224 2.513 . S
O233 C228 1.246 . S
O234 Tb224 2.453 . S
O234 C230 1.245 . S
O235 Tb222 2.343 . S
O235 Tb224 2.596 . S
O235 C230 1.259 . S
O236 Tb224 2.374 . S
O236 C231 1.250 . S
O237 Tb222 2.353 . S
O237 C231 1.263 . S
C238 O239 1.275 . S
C238 O240 1.246 . S
O239 Tb222 2.427 . S
O239 C238 1.275 . S
O240 Tb222 2.513 . S
O240 C238 1.246 . S
C241 O225 1.245 . S
C241 O226 1.259 . S
Tb242 O245 2.453 . S
Tb242 O246 2.596 . S
Tb242 O247 2.374 . S
Tb242 O255 2.343 . S
Tb242 O257 2.353 . S
Tb242 O259 2.427 . S
Tb242 O260 2.513 . S
C243 O247 1.251 . S
C243 O249 1.263 . S
Tb244 O246 2.343 . S
Tb244 O249 2.353 . S
Tb244 O252 2.427 . S
Tb244 O253 2.513 . S
Tb244 O254 2.453 . S
Tb244 O255 2.596 . S
Tb244 O256 2.374 . S
O245 Tb242 2.453 . S
O245 C261 1.245 . S
O246 Tb242 2.596 . S
O246 Tb244 2.343 . S
O246 C261 1.259 . S
O247 Tb242 2.374 . S
O247 C243 1.251 . S
C248 O252 1.275 . S
C248 O253 1.246 . S
O249 C243 1.263 . S
O249 Tb244 2.353 . S
C250 O254 1.245 . S
C250 O255 1.259 . S
C251 O256 1.250 . S
C251 O257 1.263 . S
O252 Tb244 2.427 . S
O252 C248 1.275 . S
O253 Tb244 2.513 . S
O253 C248 1.246 . S
O254 Tb244 2.453 . S
O254 C250 1.245 . S
O255 Tb242 2.343 . S
O255 Tb244 2.596 . S
O255 C250 1.259 . S
O256 Tb244 2.374 . S
O256 C251 1.250 . S
O257 Tb242 2.353 . S
O257 C251 1.263 . S
C258 O259 1.275 . S
C258 O260 1.246 . S
O259 Tb242 2.427 . S
O259 C258 1.275 . S
O260 Tb242 2.513 . S
O260 C258 1.246 . S
C261 O245 1.245 . S
C261 O246 1.259 . S
Tb262 O265 2.453 . S
Tb262 O266 2.596 . S
Tb262 O267 2.374 . S
Tb262 O275 2.343 . S
Tb262 O277 2.353 . S
Tb262 O279 2.427 . S
Tb262 O280 2.513 . S
C263 O267 1.251 . S
C263 O269 1.263 . S
Tb264 O266 2.343 . S
Tb264 O269 2.353 . S
Tb264 O272 2.427 . S
Tb264 O273 2.513 . S
Tb264 O274 2.453 . S
Tb264 O275 2.596 . S
Tb264 O276 2.374 . S
O265 Tb262 2.453 . S
O265 C281 1.245 . S
O266 Tb262 2.596 . S
O266 Tb264 2.343 . S
O266 C281 1.259 . S
O267 Tb262 2.374 . S
O267 C263 1.251 . S
C268 O272 1.275 . S
C268 O273 1.246 . S
O269 C263 1.263 . S
O269 Tb264 2.353 . S
C270 O274 1.245 . S
C270 O275 1.259 . S
C271 O276 1.250 . S
C271 O277 1.263 . S
O272 Tb264 2.427 . S
O272 C268 1.275 . S
O273 Tb264 2.513 . S
O273 C268 1.246 . S
O274 Tb264 2.453 . S
O274 C270 1.245 . S
O275 Tb262 2.343 . S
O275 Tb264 2.596 . S
O275 C270 1.259 . S
O276 Tb264 2.374 . S
O276 C271 1.250 . S
O277 Tb262 2.353 . S
O277 C271 1.263 . S
C278 O279 1.275 . S
C278 O280 1.246 . S
O279 Tb262 2.427 . S
O279 C278 1.275 . S
O280 Tb262 2.513 . S
O280 C278 1.246 . S
C281 O265 1.245 . S
C281 O266 1.259 . S
Tb282 O285 2.453 . S
Tb282 O286 2.596 . S
Tb282 O287 2.374 . S
Tb282 O295 2.343 . S
Tb282 O297 2.353 . S
Tb282 O299 2.427 . S
Tb282 O300 2.513 . S
C283 O287 1.251 . S
C283 O289 1.263 . S
Tb284 O286 2.343 . S
Tb284 O289 2.353 . S
Tb284 O292 2.427 . S
Tb284 O293 2.513 . S
Tb284 O294 2.453 . S
Tb284 O295 2.596 . S
Tb284 O296 2.374 . S
O285 Tb282 2.453 . S
O285 C301 1.245 . S
O286 Tb282 2.596 . S
O286 Tb284 2.343 . S
O286 C301 1.259 . S
O287 Tb282 2.374 . S
O287 C283 1.251 . S
C288 O292 1.275 . S
C288 O293 1.246 . S
O289 C283 1.263 . S
O289 Tb284 2.353 . S
C290 O294 1.245 . S
C290 O295 1.259 . S
C291 O296 1.250 . S
C291 O297 1.263 . S
O292 Tb284 2.427 . S
O292 C288 1.275 . S
O293 Tb284 2.513 . S
O293 C288 1.246 . S
O294 Tb284 2.453 . S
O294 C290 1.245 . S
O295 Tb282 2.343 . S
O295 Tb284 2.596 . S
O295 C290 1.259 . S
O296 Tb284 2.374 . S
O296 C291 1.250 . S
O297 Tb282 2.353 . S
O297 C291 1.263 . S
C298 O299 1.275 . S
C298 O300 1.246 . S
O299 Tb282 2.427 . S
O299 C298 1.275 . S
O300 Tb282 2.513 . S
O300 C298 1.246 . S
C301 O285 1.245 . S
C301 O286 1.259 . S
Tb302 O305 2.453 . S
Tb302 O306 2.596 . S
Tb302 O307 2.374 . S
Tb302 O315 2.343 . S
Tb302 O317 2.353 . S
Tb302 O319 2.427 . S
Tb302 O320 2.513 . S
C303 O307 1.251 . S
C303 O309 1.263 . S
Tb304 O306 2.343 . S
Tb304 O309 2.353 . S
Tb304 O312 2.427 . S
Tb304 O313 2.513 . S
Tb304 O314 2.453 . S
Tb304 O315 2.596 . S
Tb304 O316 2.374 . S
O305 Tb302 2.453 . S
O305 C321 1.245 . S
O306 Tb302 2.596 . S
O306 Tb304 2.343 . S
O306 C321 1.259 . S
O307 Tb302 2.374 . S
O307 C303 1.251 . S
C308 O312 1.275 . S
C308 O313 1.246 . S
O309 C303 1.263 . S
O309 Tb304 2.353 . S
C310 O314 1.245 . S
C310 O315 1.259 . S
C311 O316 1.250 . S
C311 O317 1.263 . S
O312 Tb304 2.427 . S
O312 C308 1.275 . S
O313 Tb304 2.513 . S
O313 C308 1.246 . S
O314 Tb304 2.453 . S
O314 C310 1.245 . S
O315 Tb302 2.343 . S
O315 Tb304 2.596 . S
O315 C310 1.259 . S
O316 Tb304 2.374 . S
O316 C311 1.250 . S
O317 Tb302 2.353 . S
O317 C311 1.263 . S
C318 O319 1.275 . S
C318 O320 1.246 . S
O319 Tb302 2.427 . S
O319 C318 1.275 . S
O320 Tb302 2.513 . S
O320 C318 1.246 . S
C321 O305 1.245 . S
C321 O306 1.259 . S
Tb322 O325 2.453 . S
Tb322 O326 2.596 . S
Tb322 O327 2.374 . S
Tb322 O335 2.343 . S
Tb322 O337 2.353 . S
Tb322 O339 2.427 . S
Tb322 O340 2.513 . S
C323 O327 1.251 . S
C323 O329 1.263 . S
Tb324 O326 2.343 . S
Tb324 O329 2.353 . S
Tb324 O332 2.427 . S
Tb324 O333 2.513 . S
Tb324 O334 2.453 . S
Tb324 O335 2.596 . S
Tb324 O336 2.374 . S
O325 Tb322 2.453 . S
O325 C341 1.245 . S
O326 Tb322 2.596 . S
O326 Tb324 2.343 . S
O326 C341 1.259 . S
O327 Tb322 2.374 . S
O327 C323 1.251 . S
C328 O332 1.275 . S
C328 O333 1.246 . S
O329 C323 1.263 . S
O329 Tb324 2.353 . S
C330 O334 1.245 . S
C330 O335 1.259 . S
C331 O336 1.250 . S
C331 O337 1.263 . S
O332 Tb324 2.427 . S
O332 C328 1.275 . S
O333 Tb324 2.513 . S
O333 C328 1.246 . S
O334 Tb324 2.453 . S
O334 C330 1.245 . S
O335 Tb322 2.343 . S
O335 Tb324 2.596 . S
O335 C330 1.259 . S
O336 Tb324 2.374 . S
O336 C331 1.250 . S
O337 Tb322 2.353 . S
O337 C331 1.263 . S
C338 O339 1.275 . S
C338 O340 1.246 . S
O339 Tb322 2.427 . S
O339 C338 1.275 . S
O340 Tb322 2.513 . S
O340 C338 1.246 . S
C341 O325 1.245 . S
C341 O326 1.259 . S
C342 C343 1.369 . S
C342 C344 1.419 . S
C342 H346 0.930 . S
C343 C342 1.369 . S
C343 C352 1.429 . S
C344 C342 1.419 . S
C344 C345 1.363 . S
C344 H347 0.929 . S
C345 C344 1.363 . S
C345 C351 1.428 . S
H346 C342 0.930 . S
H347 C344 0.929 . S
S348 N349 1.613 1_556 S
S348 N350 1.610 . S
N349 S348 1.613 1_554 S
N349 C352 1.350 . S
N350 S348 1.610 . S
N350 C351 1.351 1_556 S
C351 C345 1.428 . S
C351 N350 1.351 1_554 S
C351 C352 1.434 . S
C352 C343 1.429 . S
C352 N349 1.350 . S
C352 C351 1.434 . S
C353 C354 1.369 . S
C353 C355 1.419 . S
C353 H357 0.930 . S
C354 C353 1.369 . S
C354 C363 1.429 . S
C355 C353 1.419 . S
C355 C356 1.363 . S
C355 H358 0.929 . S
C356 C355 1.363 . S
C356 C362 1.428 . S
H357 C353 0.930 . S
H358 C355 0.929 . S
S359 N360 1.613 . S
S359 N361 1.610 . S
N360 S359 1.613 . S
N360 C363 1.350 . S
N361 S359 1.610 . S
N361 C362 1.351 . S
C362 C356 1.428 . S
C362 N361 1.351 . S
C362 C363 1.434 . S
C363 C354 1.429 . S
C363 N360 1.350 . S
C363 C362 1.434 . S
C364 C365 1.369 . S
C364 C366 1.419 . S
C364 H368 0.930 . S
C365 C364 1.369 . S
C365 C374 1.429 . S
C366 C364 1.419 . S
C366 C367 1.363 . S
C366 H369 0.929 . S
C367 C366 1.363 . S
C367 C373 1.428 . S
H368 C364 0.930 . S
H369 C366 0.929 . S
S370 N371 1.612 . S
S370 N372 1.610 . S
N371 S370 1.612 . S
N371 C374 1.350 . S
N372 S370 1.610 . S
N372 C373 1.351 . S
C373 C367 1.428 . S
C373 N372 1.351 . S
C373 C374 1.434 . S
C374 C365 1.429 . S
C374 N371 1.350 . S
C374 C373 1.434 . S
C375 C376 1.369 . S
C375 C377 1.419 . S
C375 H379 0.930 . S
C376 C375 1.369 . S
C376 C385 1.429 . S
C377 C375 1.419 . S
C377 C378 1.363 . S
C377 H380 0.929 . S
C378 C377 1.363 . S
C378 C384 1.428 . S
H379 C375 0.930 . S
H380 C377 0.929 . S
S381 N382 1.613 . S
S381 N383 1.610 . S
N382 S381 1.613 . S
N382 C385 1.350 . S
N383 S381 1.610 . S
N383 C384 1.351 . S
C384 C378 1.428 . S
C384 N383 1.351 . S
C384 C385 1.434 . S
C385 C376 1.429 . S
C385 N382 1.350 . S
C385 C384 1.434 . S
C386 C387 1.369 . S
C386 C388 1.419 . S
C386 H390 0.930 . S
C387 C386 1.369 . S
C387 C396 1.429 . S
C388 C386 1.419 . S
C388 C389 1.363 . S
C388 H391 0.929 . S
C389 C388 1.363 . S
C389 C395 1.428 . S
H390 C386 0.930 . S
H391 C388 0.929 . S
S392 N393 1.613 . S
S392 N394 1.610 . S
N393 S392 1.613 . S
N393 C396 1.350 . S
N394 S392 1.610 . S
N394 C395 1.351 . S
C395 C389 1.428 . S
C395 N394 1.351 . S
C395 C396 1.434 . S
C396 C387 1.429 . S
C396 N393 1.350 . S
C396 C395 1.434 . S
C397 C398 1.369 . S
C397 C399 1.419 . S
C397 H401 0.930 . S
C398 C397 1.369 . S
C398 C407 1.429 . S
C399 C397 1.419 . S
C399 C400 1.363 . S
C399 H402 0.929 . S
C400 C399 1.363 . S
C400 C406 1.428 . S
H401 C397 0.930 . S
H402 C399 0.929 . S
S403 N404 1.613 . S
S403 N405 1.610 . S
N404 S403 1.613 . S
N404 C407 1.350 . S
N405 S403 1.610 . S
N405 C406 1.351 . S
C406 C400 1.428 . S
C406 N405 1.351 . S
C406 C407 1.434 . S
C407 C398 1.429 . S
C407 N404 1.350 . S
C407 C406 1.434 . S
C408 C409 1.369 . S
C408 C410 1.419 . S
C408 H412 0.930 . S
C409 C408 1.369 . S
C409 C418 1.429 . S
C410 C408 1.419 . S
C410 C411 1.363 . S
C410 H413 0.929 . S
C411 C410 1.363 . S
C411 C417 1.428 . S
H412 C408 0.930 . S
H413 C410 0.929 . S
S414 N415 1.613 . S
S414 N416 1.610 . S
N415 S414 1.613 . S
N415 C418 1.350 . S
N416 S414 1.610 . S
N416 C417 1.351 . S
C417 C411 1.428 . S
C417 N416 1.351 . S
C417 C418 1.434 . S
C418 C409 1.429 . S
C418 N415 1.350 . S
C418 C417 1.434 . S
C419 C420 1.369 . S
C419 C421 1.419 . S
C419 H423 0.930 . S
C420 C419 1.369 . S
C420 C429 1.429 . S
C421 C419 1.419 . S
C421 C422 1.363 . S
C421 H424 0.929 . S
C422 C421 1.363 . S
C422 C428 1.428 . S
H423 C419 0.930 . S
H424 C421 0.929 . S
S425 N426 1.613 . S
S425 N427 1.610 . S
N426 S425 1.613 . S
N426 C429 1.350 . S
N427 S425 1.610 . S
N427 C428 1.351 . S
C428 C422 1.428 . S
C428 N427 1.351 . S
C428 C429 1.434 . S
C429 C420 1.429 . S
C429 N426 1.350 . S
C429 C428 1.434 . S
C430 C431 1.369 . S
C430 C432 1.419 . S
C430 H434 0.930 . S
C431 C430 1.369 . S
C431 C440 1.429 . S
C432 C430 1.419 . S
C432 C433 1.363 . S
C432 H435 0.929 . S
C433 C432 1.363 . S
C433 C439 1.428 . S
H434 C430 0.930 . S
H435 C432 0.929 . S
S436 N437 1.613 1_554 S
S436 N438 1.610 . S
N437 S436 1.613 1_556 S
N437 C440 1.350 . S
N438 S436 1.610 . S
N438 C439 1.351 1_554 S
C439 C433 1.428 . S
C439 N438 1.351 1_556 S
C439 C440 1.434 . S
C440 C431 1.429 . S
C440 N437 1.350 . S
C440 C439 1.434 . S
C441 C442 1.369 . S
C441 C443 1.419 . S
C441 H445 0.930 . S
C442 C441 1.369 . S
C442 C451 1.429 . S
C443 C441 1.419 . S
C443 C444 1.363 . S
C443 H446 0.929 . S
C444 C443 1.363 . S
C444 C450 1.428 . S
H445 C441 0.930 . S
H446 C443 0.929 . S
S447 N448 1.613 1_556 S
S447 N449 1.610 . S
N448 S447 1.613 1_554 S
N448 C451 1.350 . S
N449 S447 1.610 . S
N449 C450 1.351 1_556 S
C450 C444 1.428 . S
C450 N449 1.351 1_554 S
C450 C451 1.434 . S
C451 C442 1.429 . S
C451 N448 1.350 . S
C451 C450 1.434 . S
C452 C453 1.369 . S
C452 C454 1.419 . S
C452 H456 0.930 . S
C453 C452 1.369 . S
C453 C462 1.429 . S
C454 C452 1.419 . S
C454 C455 1.363 . S
C454 H457 0.929 . S
C455 C454 1.363 . S
C455 C461 1.428 . S
H456 C452 0.930 . S
H457 C454 0.929 . S
S458 N459 1.613 . S
S458 N460 1.610 . S
N459 S458 1.613 . S
N459 C462 1.350 . S
N460 S458 1.610 . S
N460 C461 1.351 . S
C461 C455 1.428 . S
C461 N460 1.351 . S
C461 C462 1.434 . S
C462 C453 1.429 . S
C462 N459 1.350 . S
C462 C461 1.434 . S
C463 C464 1.369 . S
C463 C465 1.419 . S
C463 H467 0.930 . S
C464 C463 1.369 . S
C464 C473 1.429 . S
C465 C463 1.419 . S
C465 C466 1.363 . S
C465 H468 0.929 . S
C466 C465 1.363 . S
C466 C472 1.428 . S
H467 C463 0.930 . S
H468 C465 0.929 . S
S469 N470 1.613 . S
S469 N471 1.610 . S
N470 S469 1.613 . S
N470 C473 1.350 . S
N471 S469 1.610 . S
N471 C472 1.351 . S
C472 C466 1.428 . S
C472 N471 1.351 . S
C472 C473 1.434 . S
C473 C464 1.429 . S
C473 N470 1.350 . S
C473 C472 1.434 . S
C474 C475 1.369 . S
C474 C476 1.419 . S
C474 H478 0.930 . S
C475 C474 1.369 . S
C475 C484 1.429 . S
C476 C474 1.419 . S
C476 C477 1.363 1_655 S
C476 H479 0.929 . S
C477 C476 1.363 1_455 S
C477 C483 1.428 . S
H478 C474 0.930 . S
H479 C476 0.929 . S
S480 N481 1.613 1_455 S
S480 N482 1.610 . S
N481 S480 1.613 1_655 S
N481 C484 1.350 . S
N482 S480 1.610 . S
N482 C483 1.351 . S
C483 C477 1.428 . S
C483 N482 1.351 . S
C483 C484 1.434 1_455 S
C484 C475 1.429 . S
C484 N481 1.350 . S
C484 C483 1.434 1_655 S
C485 C486 1.369 . S
C485 C487 1.419 . S
C485 H489 0.930 . S
C486 C485 1.369 . S
C486 C495 1.429 . S
C487 C485 1.419 . S
C487 C488 1.363 . S
C487 H490 0.929 . S
C488 C487 1.363 . S
C488 C494 1.428 . S
H489 C485 0.930 . S
H490 C487 0.929 . S
S491 N492 1.613 . S
S491 N493 1.610 . S
N492 S491 1.613 . S
N492 C495 1.350 . S
N493 S491 1.610 . S
N493 C494 1.351 . S
C494 C488 1.428 . S
C494 N493 1.351 . S
C494 C495 1.434 . S
C495 C486 1.429 . S
C495 N492 1.350 . S
C495 C494 1.434 . S
C496 C497 1.369 . S
C496 C498 1.419 1_545 S
C496 H500 0.930 . S
C497 C496 1.369 . S
C497 C506 1.429 . S
C498 C496 1.419 1_565 S
C498 C499 1.363 . S
C498 H501 0.929 . S
C499 C498 1.363 . S
C499 C505 1.440 . S
H500 C496 0.930 . S
H501 C498 0.929 . S
S502 N503 1.613 . S
S502 N504 1.610 1_545 S
N503 S502 1.613 . S
N503 C506 1.350 . S
N504 S502 1.610 1_565 S
N504 C505 1.358 . S
C505 C499 1.440 . S
C505 N504 1.358 . S
C505 C506 1.413 1_565 S
C506 C497 1.429 . S
C506 N503 1.350 . S
C506 C505 1.413 1_545 S
C507 C508 1.369 . S
C507 C509 1.419 . S
C507 H511 0.930 . S
C508 C507 1.369 . S
C508 C517 1.429 . S
C509 C507 1.419 . S
C509 C510 1.363 . S
C509 H512 0.929 . S
C510 C509 1.363 . S
C510 C516 1.428 . S
H511 C507 0.930 . S
H512 C509 0.929 . S
S513 N514 1.613 . S
S513 N515 1.610 . S
N514 S513 1.613 . S
N514 C517 1.350 . S
N515 S513 1.610 . S
N515 C516 1.351 . S
C516 C510 1.428 . S
C516 N515 1.351 . S
C516 C517 1.434 . S
C517 C508 1.429 . S
C517 N514 1.350 . S
C517 C516 1.434 . S
C518 C519 1.369 . S
C518 C520 1.419 . S
C518 H522 0.930 . S
C519 C518 1.369 . S
C519 C528 1.429 . S
C520 C518 1.419 . S
C520 C521 1.363 . S
C520 H523 0.929 . S
C521 C520 1.363 . S
C521 C527 1.428 . S
H522 C518 0.930 . S
H523 C520 0.929 . S
S524 N525 1.613 . S
S524 N526 1.610 . S
N525 S524 1.613 . S
N525 C528 1.350 . S
N526 S524 1.610 . S
N526 C527 1.351 . S
C527 C521 1.428 . S
C527 N526 1.351 . S
C527 C528 1.434 . S
C528 C519 1.429 . S
C528 N525 1.350 . S
C528 C527 1.434 . S
C529 C530 1.369 . S
C529 C531 1.419 . S
C529 H533 0.930 . S
C530 C529 1.369 . S
C530 C539 1.429 . S
C531 C529 1.419 . S
C531 C532 1.363 . S
C531 H534 0.929 . S
C532 C531 1.363 . S
C532 C538 1.428 . S
H533 C529 0.930 . S
H534 C531 0.929 . S
S535 N536 1.613 . S
S535 N537 1.610 . S
N536 S535 1.613 . S
N536 C539 1.350 . S
N537 S535 1.610 . S
N537 C538 1.351 . S
C538 C532 1.428 . S
C538 N537 1.351 . S
C538 C539 1.434 . S
C539 C530 1.429 . S
C539 N536 1.350 . S
C539 C538 1.434 . S
C540 C541 1.369 . S
C540 C542 1.419 . S
C540 H544 0.930 . S
C541 C540 1.369 . S
C541 C550 1.429 . S
C542 C540 1.419 . S
C542 C543 1.363 . S
C542 H545 0.929 . S
C543 C542 1.363 . S
C543 C549 1.428 . S
H544 C540 0.930 . S
H545 C542 0.929 . S
S546 N547 1.613 . S
S546 N548 1.610 . S
N547 S546 1.613 . S
N547 C550 1.350 . S
N548 S546 1.610 . S
N548 C549 1.351 . S
C549 C543 1.428 . S
C549 N548 1.351 . S
C549 C550 1.434 . S
C550 C541 1.429 . S
C550 N547 1.350 . S
C550 C549 1.434 . S
C551 C552 1.369 . S
C551 C553 1.419 . S
C551 H555 0.930 . S
C552 C551 1.369 . S
C552 C561 1.429 . S
C553 C551 1.419 . S
C553 C554 1.363 . S
C553 H556 0.929 . S
C554 C553 1.363 . S
C554 C560 1.428 . S
H555 C551 0.930 . S
H556 C553 0.929 . S
S557 N558 1.613 1_545 S
S557 N559 1.610 1_545 S
N558 S557 1.613 1_565 S
N558 C561 1.350 . S
N559 S557 1.610 1_565 S
N559 C560 1.351 . S
C560 C554 1.428 . S
C560 N559 1.351 . S
C560 C561 1.434 . S
C561 C552 1.429 . S
C561 N558 1.350 . S
C561 C560 1.434 . S
C562 C563 1.369 . S
C562 C564 1.419 . S
C562 H566 0.930 . S
C563 C562 1.369 . S
C563 C572 1.429 . S
C564 C562 1.419 . S
C564 C565 1.363 . S
C564 H567 0.929 . S
C565 C564 1.363 . S
C565 C571 1.428 . S
H566 C562 0.930 . S
H567 C564 0.929 . S
S568 N569 1.613 . S
S568 N570 1.610 . S
N569 S568 1.613 . S
N569 C572 1.350 . S
N570 S568 1.610 . S
N570 C571 1.351 . S
C571 C565 1.428 . S
C571 N570 1.351 . S
C571 C572 1.434 . S
C572 C563 1.429 . S
C572 N569 1.350 . S
C572 C571 1.434 . S
C573 C574 1.369 . S
C573 C575 1.419 1_545 S
C573 H577 0.930 . S
C574 C573 1.369 . S
C574 C583 1.429 . S
C575 C573 1.419 1_565 S
C575 C576 1.363 . S
C575 H578 0.929 . S
C576 C575 1.363 . S
C576 C582 1.428 . S
H577 C573 0.930 . S
H578 C575 0.929 . S
S579 N580 1.613 1_565 S
S579 N581 1.610 . S
N580 S579 1.613 1_545 S
N580 C583 1.350 . S
N581 S579 1.610 . S
N581 C582 1.351 . S
C582 C576 1.428 . S
C582 N581 1.351 . S
C582 C583 1.434 1_565 S
C583 C574 1.429 . S
C583 N580 1.350 . S
C583 C582 1.434 1_545 S
C584 C585 1.369 . S
C584 C586 1.419 . S
C584 H588 0.930 . S
C585 C584 1.369 . S
C585 C594 1.429 . S
C586 C584 1.419 . S
C586 C587 1.363 1_655 S
C586 H589 0.929 . S
C587 C586 1.363 1_455 S
C587 C593 1.428 . S
H588 C584 0.930 . S
H589 C586 0.929 . S
S590 N591 1.613 1_455 S
S590 N592 1.610 . S
N591 S590 1.613 1_655 S
N591 C594 1.350 . S
N592 S590 1.610 . S
N592 C593 1.351 . S
C593 C587 1.428 . S
C593 N592 1.351 . S
C593 C594 1.434 1_455 S
C594 C585 1.429 . S
C594 N591 1.350 . S
C594 C593 1.434 1_655 S
C595 C596 1.369 . S
C595 C597 1.419 . S
C595 H599 0.930 . S
C596 C595 1.369 . S
C596 C605 1.429 . S
C597 C595 1.419 . S
C597 C598 1.363 . S
C597 H600 0.929 . S
C598 C597 1.363 . S
C598 C604 1.428 . S
H599 C595 0.930 . S
H600 C597 0.929 . S
S601 N602 1.613 . S
S601 N603 1.610 . S
N602 S601 1.613 . S
N602 C605 1.350 . S
N603 S601 1.610 . S
N603 C604 1.351 . S
C604 C598 1.428 . S
C604 N603 1.351 . S
C604 C605 1.434 . S
C605 C596 1.429 . S
C605 N602 1.350 . S
C605 C604 1.434 . S
C606 C607 1.369 . S
C606 C608 1.419 . S
C606 H610 0.930 . S
C607 C606 1.369 . S
C607 C616 1.429 . S
C608 C606 1.419 . S
C608 C609 1.363 . S
C608 H611 0.929 . S
C609 C608 1.363 . S
C609 C615 1.428 . S
H610 C606 0.930 . S
H611 C608 0.929 . S
S612 N613 1.613 . S
S612 N614 1.610 . S
N613 S612 1.613 . S
N613 C616 1.350 . S
N614 S612 1.610 . S
N614 C615 1.351 . S
C615 C609 1.428 . S
C615 N614 1.351 . S
C615 C616 1.434 . S
C616 C607 1.429 . S
C616 N613 1.350 . S
C616 C615 1.434 . S
C617 C618 1.369 . S
C617 C619 1.419 . S
C617 H621 0.930 . S
C618 C617 1.369 . S
C618 C627 1.429 . S
C619 C617 1.419 . S
C619 C620 1.363 . S
C619 H622 0.929 . S
C620 C619 1.363 . S
C620 C626 1.428 . S
H621 C617 0.930 . S
H622 C619 0.929 . S
S623 N624 1.613 . S
S623 N625 1.610 . S
N624 S623 1.613 . S
N624 C627 1.350 . S
N625 S623 1.610 . S
N625 C626 1.351 . S
C626 C620 1.428 . S
C626 N625 1.351 . S
C626 C627 1.434 . S
C627 C618 1.429 . S
C627 N624 1.350 . S
C627 C626 1.434 . S
C628 C629 1.369 . S
C628 C630 1.419 . S
C628 H632 0.930 . S
C629 C628 1.369 . S
C629 C638 1.429 . S
C630 C628 1.419 . S
C630 C631 1.363 . S
C630 H633 0.929 . S
C631 C630 1.363 . S
C631 C637 1.428 . S
H632 C628 0.930 . S
H633 C630 0.929 . S
S634 N635 1.613 . S
S634 N636 1.610 . S
N635 S634 1.613 . S
N635 C638 1.350 . S
N636 S634 1.610 . S
N636 C637 1.351 . S
C637 C631 1.428 . S
C637 N636 1.351 . S
C637 C638 1.434 . S
C638 C629 1.429 . S
C638 N635 1.350 . S
C638 C637 1.434 . S
C639 C640 1.369 . S
C639 C641 1.419 1_565 S
C639 H643 0.930 . S
C640 C639 1.369 . S
C640 C649 1.429 . S
C641 C639 1.419 1_545 S
C641 C642 1.363 . S
C641 H644 0.929 . S
C642 C641 1.363 . S
C642 C648 1.428 . S
H643 C639 0.930 . S
H644 C641 0.929 . S
S645 N646 1.613 1_545 S
S645 N647 1.610 . S
N646 S645 1.613 1_565 S
N646 C649 1.350 . S
N647 S645 1.610 . S
N647 C648 1.351 . S
C648 C642 1.428 . S
C648 N647 1.351 . S
C648 C649 1.434 1_545 S
C649 C640 1.429 . S
C649 N646 1.350 . S
C649 C648 1.434 1_565 S
C650 C651 1.369 . S
C650 C652 1.419 1_455 S
C650 H654 0.930 . S
C651 C650 1.369 . S
C651 C660 1.429 . S
C652 C650 1.419 1_655 S
C652 C653 1.363 . S
C652 H655 0.929 . S
C653 C652 1.363 . S
C653 C659 1.428 1_655 S
H654 C650 0.930 . S
H655 C652 0.929 . S
S656 N657 1.613 . S
S656 N658 1.610 . S
N657 S656 1.613 . S
N657 C660 1.350 . S
N658 S656 1.610 . S
N658 C659 1.351 . S
C659 C653 1.428 1_455 S
C659 N658 1.351 . S
C659 C660 1.434 . S
C660 C651 1.429 . S
C660 N657 1.350 . S
C660 C659 1.434 . S
C661 C662 1.369 . S
C661 C663 1.419 . S
C661 H665 0.930 . S
C662 C661 1.369 . S
C662 C671 1.429 . S
C663 C661 1.419 . S
C663 C664 1.363 . S
C663 H666 0.929 . S
C664 C663 1.363 . S
C664 C670 1.428 . S
H665 C661 0.930 . S
H666 C663 0.929 . S
S667 N668 1.613 . S
S667 N669 1.610 . S
N668 S667 1.613 . S
N668 C671 1.350 . S
N669 S667 1.610 . S
N669 C670 1.351 . S
C670 C664 1.428 . S
C670 N669 1.351 . S
C670 C671 1.434 . S
C671 C662 1.429 . S
C671 N668 1.350 . S
C671 C670 1.434 . S
C672 C673 1.369 . S
C672 C674 1.419 . S
C672 H676 0.930 . S
C673 C672 1.369 . S
C673 C682 1.429 . S
C674 C672 1.419 . S
C674 C675 1.363 1_455 S
C674 H677 0.929 1_455 S
C675 C674 1.363 1_655 S
C675 C681 1.428 1_655 S
H676 C672 0.930 . S
H677 C674 0.929 1_655 S
S678 N679 1.613 . S
S678 N680 1.610 1_455 S
N679 S678 1.613 . S
N679 C682 1.350 . S
N680 S678 1.610 1_655 S
N680 C681 1.351 1_655 S
C681 C675 1.428 1_455 S
C681 N680 1.351 1_455 S
C681 C682 1.434 . S
C682 C673 1.429 . S
C682 N679 1.350 . S
C682 C681 1.434 . S
C683 C684 1.369 . S
C683 C685 1.419 . S
C683 H687 0.930 . S
C684 C683 1.369 . S
C684 C693 1.429 . S
C685 C683 1.419 . S
C685 C686 1.363 . S
C685 H688 0.929 . S
C686 C685 1.363 . S
C686 C692 1.428 . S
H687 C683 0.930 . S
H688 C685 0.929 . S
S689 N690 1.613 . S
S689 N691 1.610 . S
N690 S689 1.613 . S
N690 C693 1.350 . S
N691 S689 1.610 . S
N691 C692 1.351 . S
C692 C686 1.428 . S
C692 N691 1.351 . S
C692 C693 1.434 . S
C693 C684 1.429 . S
C693 N690 1.350 . S
C693 C692 1.434 . S
C694 C695 1.369 . S
C694 C696 1.419 1_565 S
C694 H698 0.930 . S
C695 C694 1.369 . S
C695 C704 1.429 . S
C696 C694 1.419 1_545 S
C696 C697 1.363 . S
C696 H699 0.929 . S
C697 C696 1.363 . S
C697 C703 1.428 . S
H698 C694 0.930 . S
H699 C696 0.929 . S
S700 N701 1.613 1_545 S
S700 N702 1.610 . S
N701 S700 1.613 1_565 S
N701 C704 1.350 . S
N702 S700 1.610 . S
N702 C703 1.351 . S
C703 C697 1.428 . S
C703 N702 1.351 . S
C703 C704 1.434 1_545 S
C704 C695 1.429 . S
C704 N701 1.350 . S
C704 C703 1.434 1_565 S
C705 C706 1.369 . S
C705 C707 1.419 . S
C705 H709 0.930 . S
C706 C705 1.369 . S
C706 C715 1.429 . S
C707 C705 1.419 . S
C707 C708 1.363 . S
C707 H710 0.929 . S
C708 C707 1.363 . S
C708 C714 1.428 . S
H709 C705 0.930 . S
H710 C707 0.929 . S
S711 N712 1.613 . S
S711 N713 1.610 . S
N712 S711 1.613 . S
N712 C715 1.350 . S
N713 S711 1.610 . S
N713 C714 1.351 . S
C714 C708 1.428 . S
C714 N713 1.351 . S
C714 C715 1.434 . S
C715 C706 1.429 . S
C715 N712 1.350 . S
C715 C714 1.434 . S
C716 C717 1.369 . S
C716 C718 1.419 . S
C716 H720 0.930 . S
C717 C716 1.369 . S
C717 C726 1.429 . S
C718 C716 1.419 . S
C718 C719 1.363 . S
C718 H721 0.929 . S
C719 C718 1.363 . S
C719 C725 1.428 . S
H720 C716 0.930 . S
H721 C718 0.929 . S
S722 N723 1.613 . S
S722 N724 1.610 . S
N723 S722 1.613 . S
N723 C726 1.350 . S
N724 S722 1.610 . S
N724 C725 1.351 . S
C725 C719 1.428 . S
C725 N724 1.351 . S
C725 C726 1.434 . S
C726 C717 1.429 . S
C726 N723 1.350 . S
C726 C725 1.434 . S
C727 C728 1.369 . S
C727 C729 1.419 . S
C727 H731 0.930 . S
C728 C727 1.369 . S
C728 C737 1.429 . S
C729 C727 1.419 . S
C729 C730 1.363 . S
C729 H732 0.929 . S
C730 C729 1.363 . S
C730 C736 1.428 . S
H731 C727 0.930 . S
H732 C729 0.929 . S
S733 N734 1.613 . S
S733 N735 1.610 . S
N734 S733 1.613 . S
N734 C737 1.350 . S
N735 S733 1.610 . S
N735 C736 1.351 . S
C736 C730 1.428 . S
C736 N735 1.351 . S
C736 C737 1.434 . S
C737 C728 1.429 . S
C737 N734 1.350 . S
C737 C736 1.434 . S
C738 C739 1.369 . S
C738 C740 1.419 . S
C738 H742 0.930 . S
C739 C738 1.369 . S
C739 C748 1.429 1_565 S
C740 C738 1.419 . S
C740 C741 1.363 . S
C740 H743 0.929 . S
C741 C740 1.363 . S
C741 C747 1.428 1_565 S
H742 C738 0.930 . S
H743 C740 0.929 . S
S744 N745 1.613 . S
S744 N746 1.610 . S
N745 S744 1.613 . S
N745 C748 1.350 . S
N746 S744 1.610 . S
N746 C747 1.351 . S
C747 C741 1.428 1_545 S
C747 N746 1.351 . S
C747 C748 1.434 . S
C748 C739 1.429 1_545 S
C748 N745 1.350 . S
C748 C747 1.434 . S
C749 C750 1.369 . S
C749 C751 1.419 . S
C749 H753 0.930 1_455 S
C750 C749 1.369 . S
C750 C759 1.429 . S
C751 C749 1.419 . S
C751 C752 1.363 . S
C751 H754 0.929 1_455 S
C752 C751 1.363 . S
C752 C758 1.428 . S
H753 C749 0.930 1_655 S
H754 C751 0.929 1_655 S
S755 N756 1.613 . S
S755 N757 1.610 . S
N756 S755 1.613 . S
N756 C759 1.350 . S
N757 S755 1.610 . S
N757 C758 1.351 . S
C758 C752 1.428 . S
C758 N757 1.351 . S
C758 C759 1.434 . S
C759 C750 1.429 . S
C759 N756 1.350 . S
C759 C758 1.434 . S
C760 C761 1.369 . S
C760 C762 1.419 . S
C760 H764 0.930 . S
C761 C760 1.369 . S
C761 C770 1.429 . S
C762 C760 1.419 . S
C762 C763 1.363 . S
C762 H765 0.929 . S
C763 C762 1.363 . S
C763 C769 1.428 . S
H764 C760 0.930 . S
H765 C762 0.929 . S
S766 N767 1.613 . S
S766 N768 1.610 . S
N767 S766 1.613 . S
N767 C770 1.350 . S
N768 S766 1.610 . S
N768 C769 1.351 . S
C769 C763 1.428 . S
C769 N768 1.351 . S
C769 C770 1.434 . S
C770 C761 1.429 . S
C770 N767 1.350 . S
C770 C769 1.434 . S
C771 C772 1.369 . S
C771 C773 1.419 . S
C771 H775 0.930 . S
C772 C771 1.369 . S
C772 C781 1.429 . S
C773 C771 1.419 . S
C773 C774 1.363 . S
C773 H776 0.929 . S
C774 C773 1.363 . S
C774 C780 1.428 . S
H775 C771 0.930 . S
H776 C773 0.929 . S
S777 N778 1.613 . S
S777 N779 1.610 . S
N778 S777 1.613 . S
N778 C781 1.350 . S
N779 S777 1.610 . S
N779 C780 1.351 . S
C780 C774 1.428 . S
C780 N779 1.351 . S
C780 C781 1.434 . S
C781 C772 1.429 . S
C781 N778 1.350 . S
C781 C780 1.434 . S
C782 C783 1.369 . S
C782 C784 1.419 . S
C782 H786 0.930 . S
C783 C782 1.369 . S
C783 C792 1.429 . S
C784 C782 1.419 . S
C784 C785 1.363 . S
C784 H787 0.929 . S
C785 C784 1.363 . S
C785 C791 1.428 . S
H786 C782 0.930 . S
H787 C784 0.929 . S
S788 N789 1.613 . S
S788 N790 1.610 . S
N789 S788 1.613 . S
N789 C792 1.350 . S
N790 S788 1.610 . S
N790 C791 1.351 . S
C791 C785 1.428 . S
C791 N790 1.351 . S
C791 C792 1.434 . S
C792 C783 1.429 . S
C792 N789 1.350 . S
C792 C791 1.434 . S
C793 C794 1.369 . S
C793 C795 1.419 1_545 S
C793 H797 0.930 1_545 S
C794 C793 1.369 . S
C794 C803 1.429 . S
C795 C793 1.419 1_565 S
C795 C796 1.363 1_565 S
C795 H798 0.929 . S
C796 C795 1.363 1_545 S
C796 C802 1.428 . S
H797 C793 0.930 1_565 S
H798 C795 0.929 . S
S799 N800 1.613 . S
S799 N801 1.610 . S
N800 S799 1.613 . S
N800 C803 1.350 . S
N801 S799 1.610 . S
N801 C802 1.351 . S
C802 C796 1.428 . S
C802 N801 1.351 . S
C802 C803 1.434 . S
C803 C794 1.429 . S
C803 N800 1.350 . S
C803 C802 1.434 . S
C804 C805 1.369 . S
C804 C806 1.419 . S
C804 H808 0.930 . S
C805 C804 1.369 . S
C805 C814 1.429 . S
C806 C804 1.419 . S
C806 C807 1.363 . S
C806 H809 0.929 . S
C807 C806 1.363 . S
C807 C813 1.428 . S
H808 C804 0.930 . S
H809 C806 0.929 . S
S810 N811 1.613 . S
S810 N812 1.610 . S
N811 S810 1.613 . S
N811 C814 1.350 . S
N812 S810 1.610 . S
N812 C813 1.351 . S
C813 C807 1.428 . S
C813 N812 1.351 . S
C813 C814 1.434 . S
C814 C805 1.429 . S
C814 N811 1.350 . S
C814 C813 1.434 . S
C815 C816 1.369 . S
C815 C817 1.419 . S
C815 H819 0.930 . S
C816 C815 1.369 . S
C816 C825 1.429 . S
C817 C815 1.419 . S
C817 C818 1.363 . S
C817 H820 0.929 . S
C818 C817 1.363 . S
C818 C824 1.428 . S
H819 C815 0.930 . S
H820 C817 0.929 . S
S821 N822 1.613 . S
S821 N823 1.610 . S
N822 S821 1.613 . S
N822 C825 1.350 . S
N823 S821 1.610 . S
N823 C824 1.351 . S
C824 C818 1.428 . S
C824 N823 1.351 . S
C824 C825 1.434 . S
C825 C816 1.429 . S
C825 N822 1.350 . S
C825 C824 1.434 . S
C826 C827 1.369 . S
C826 C828 1.419 . S
C826 H830 0.930 . S
C827 C826 1.369 . S
C827 C836 1.429 . S
C828 C826 1.419 . S
C828 C829 1.363 . S
C828 H831 0.929 . S
C829 C828 1.363 . S
C829 C835 1.428 . S
H830 C826 0.930 . S
H831 C828 0.929 . S
S832 N833 1.613 . S
S832 N834 1.610 . S
N833 S832 1.613 . S
N833 C836 1.350 . S
N834 S832 1.610 . S
N834 C835 1.351 . S
C835 C829 1.428 . S
C835 N834 1.351 . S
C835 C836 1.434 . S
C836 C827 1.429 . S
C836 N833 1.350 . S
C836 C835 1.434 . S
C837 C838 1.369 . S
C837 C839 1.419 . S
C837 H841 0.930 . S
C838 C837 1.369 . S
C838 C847 1.429 . S
C839 C837 1.419 . S
C839 C840 1.363 . S
C839 H842 0.929 . S
C840 C839 1.363 . S
C840 C846 1.428 . S
H841 C837 0.930 . S
H842 C839 0.929 . S
S843 N844 1.613 . S
S843 N845 1.610 . S
N844 S843 1.613 . S
N844 C847 1.350 . S
N845 S843 1.610 . S
N845 C846 1.351 . S
C846 C840 1.428 . S
C846 N845 1.351 . S
C846 C847 1.434 . S
C847 C838 1.429 . S
C847 N844 1.350 . S
C847 C846 1.434 . S
C848 C849 1.369 . S
C848 C850 1.419 . S
C848 H852 0.930 . S
C849 C848 1.369 . S
C849 C858 1.429 . S
C850 C848 1.419 . S
C850 C851 1.363 . S
C850 H853 0.929 . S
C851 C850 1.363 . S
C851 C857 1.428 . S
H852 C848 0.930 . S
H853 C850 0.929 . S
S854 N855 1.613 . S
S854 N856 1.610 . S
N855 S854 1.613 . S
N855 C858 1.350 . S
N856 S854 1.610 . S
N856 C857 1.351 . S
C857 C851 1.428 . S
C857 N856 1.351 . S
C857 C858 1.434 . S
C858 C849 1.429 . S
C858 N855 1.350 . S
C858 C857 1.434 . S
C859 C860 1.369 . S
C859 C861 1.419 . S
C859 H863 0.930 . S
C860 C859 1.369 . S
C860 C869 1.429 . S
C861 C859 1.419 . S
C861 C862 1.363 . S
C861 H864 0.929 . S
C862 C861 1.363 . S
C862 C868 1.428 . S
H863 C859 0.930 . S
H864 C861 0.929 . S
S865 N866 1.613 . S
S865 N867 1.610 . S
N866 S865 1.613 . S
N866 C869 1.350 . S
N867 S865 1.610 . S
N867 C868 1.351 . S
C868 C862 1.428 . S
C868 N867 1.351 . S
C868 C869 1.434 . S
C869 C860 1.429 . S
C869 N866 1.350 . S
C869 C868 1.434 . S
C870 C871 1.369 . S
C870 C872 1.419 . S
C870 H874 0.930 . S
C871 C870 1.369 . S
C871 C880 1.429 . S
C872 C870 1.419 . S
C872 C873 1.363 . S
C872 H875 0.929 . S
C873 C872 1.363 . S
C873 C879 1.428 . S
H874 C870 0.930 . S
H875 C872 0.929 . S
S876 N877 1.613 . S
S876 N878 1.610 . S
N877 S876 1.613 . S
N877 C880 1.350 . S
N878 S876 1.610 . S
N878 C879 1.351 . S
C879 C873 1.428 . S
C879 N878 1.351 . S
C879 C880 1.434 . S
C880 C871 1.429 . S
C880 N877 1.350 . S
C880 C879 1.434 . S
C881 C882 1.369 . S
C881 C883 1.419 . S
C881 H885 0.930 . S
C882 C881 1.369 . S
C882 C891 1.429 . S
C883 C881 1.419 . S
C883 C884 1.363 . S
C883 H886 0.929 . S
C884 C883 1.363 . S
C884 C890 1.428 . S
H885 C881 0.930 . S
H886 C883 0.929 . S
S887 N888 1.613 . S
S887 N889 1.610 . S
N888 S887 1.613 . S
N888 C891 1.350 . S
N889 S887 1.610 . S
N889 C890 1.351 . S
C890 C884 1.428 . S
C890 N889 1.351 . S
C890 C891 1.434 . S
C891 C882 1.429 . S
C891 N888 1.350 . S
C891 C890 1.434 . S
C892 C893 1.369 . S
C892 C894 1.419 . S
C892 H896 0.930 . S
C893 C892 1.369 . S
C893 C902 1.429 . S
C894 C892 1.419 . S
C894 C895 1.363 . S
C894 H897 0.929 . S
C895 C894 1.363 . S
C895 C901 1.428 . S
H896 C892 0.930 . S
H897 C894 0.929 . S
S898 N899 1.613 . S
S898 N900 1.610 . S
N899 S898 1.613 . S
N899 C902 1.350 . S
N900 S898 1.610 . S
N900 C901 1.351 . S
C901 C895 1.428 . S
C901 N900 1.351 . S
C901 C902 1.434 . S
C902 C893 1.429 . S
C902 N899 1.350 . S
C902 C901 1.434 . S
C903 C904 1.369 . S
C903 C905 1.419 . S
C903 H907 0.930 . S
C904 C903 1.369 . S
C904 C913 1.429 . S
C905 C903 1.419 . S
C905 C906 1.363 . S
C905 H908 0.929 . S
C906 C905 1.363 . S
C906 C912 1.428 . S
H907 C903 0.930 . S
H908 C905 0.929 . S
S909 N910 1.613 . S
S909 N911 1.610 . S
N910 S909 1.613 . S
N910 C913 1.350 . S
N911 S909 1.610 . S
N911 C912 1.351 . S
C912 C906 1.428 . S
C912 N911 1.351 . S
C912 C913 1.434 . S
C913 C904 1.429 . S
C913 N910 1.350 . S
C913 C912 1.434 . S
C914 C915 1.369 . S
C914 C916 1.419 . S
C914 H918 0.930 . S
C915 C914 1.369 . S
C915 C924 1.429 . S
C916 C914 1.419 . S
C916 C917 1.363 . S
C916 H919 0.929 . S
C917 C916 1.363 . S
C917 C923 1.428 . S
H918 C914 0.930 . S
H919 C916 0.929 . S
S920 N921 1.613 . S
S920 N922 1.610 . S
N921 S920 1.613 . S
N921 C924 1.350 . S
N922 S920 1.610 . S
N922 C923 1.351 . S
C923 C917 1.428 . S
C923 N922 1.351 . S
C923 C924 1.434 . S
C924 C915 1.429 . S
C924 N921 1.350 . S
C924 C923 1.434 . S
C925 C926 1.369 . S
C925 C927 1.419 . S
C925 H929 0.930 . S
C926 C925 1.369 . S
C926 C935 1.429 . S
C927 C925 1.419 . S
C927 C928 1.363 . S
C927 H930 0.929 . S
C928 C927 1.363 . S
C928 C934 1.428 . S
H929 C925 0.930 . S
H930 C927 0.929 . S
S931 N932 1.613 . S
S931 N933 1.610 . S
N932 S931 1.613 . S
N932 C935 1.350 . S
N933 S931 1.610 . S
N933 C934 1.351 . S
C934 C928 1.428 . S
C934 N933 1.351 . S
C934 C935 1.434 . S
C935 C926 1.429 . S
C935 N932 1.350 . S
C935 C934 1.434 . S
C343 C124 1.532 . S
C345 C168 1.510 . S
C354 C130 1.476 . S
C356 C188 1.457 . S
C365 C115 1.503 . S
C367 C211 1.495 . S
C376 C106 1.464 . S
C378 C191 1.457 . S
C389 C208 1.462 . S
C387 C85 1.476 . S
C398 C97 1.501 . S
C400 C171 1.491 . S
C411 C178 1.527 . S
C409 C103 1.541 . S
C422 C198 1.442 . S
C420 C88 1.463 . S
C431 C94 1.502 . S
C433 C203 1.495 . S
C442 C121 1.463 . S
C444 C183 1.456 . S
C453 C133 1.459 . S
C455 C218 1.450 . S
C466 C163 1.510 . S
C464 C112 1.512 . S
C477 C228 1.515 . S
C475 C16 1.530 . S
C486 C22 1.478 . S
C488 C248 1.451 . S
C497 C7 1.503 . S
C499 C271 1.495 . S
C508 C160 1.462 . S
C510 C251 1.460 . S
C519 C139 1.473 . S
C521 C268 1.464 . S
C530 C151 1.499 . S
C532 C231 1.493 . S
C541 C157 1.545 . S
C543 C238 1.524 . S
C552 C142 1.465 . S
C554 C258 1.442 . S
C565 C263 1.495 . S
C563 C148 1.501 . S
C574 C13 1.461 . S
C576 C243 1.458 . S
C587 C278 1.451 . S
C585 C25 1.460 . S
C596 C4 1.516 . S
C598 C223 1.507 . S
C609 C288 1.512 . S
C607 C70 1.530 . S
C618 C76 1.478 . S
C620 C308 1.456 . S
C631 C331 1.496 . S
C629 C61 1.503 . S
C642 C311 1.460 . S
C640 C52 1.461 . S
C653 C328 1.461 . S
C651 C31 1.472 . S
C662 C43 1.501 . S
C664 C291 1.491 . S
C673 C49 1.541 . S
C675 C298 1.527 . S
C684 C34 1.464 . S
C686 C318 1.441 . S
C697 C323 1.496 . S
C695 C40 1.500 . S
C706 C67 1.460 . S
C708 C303 1.459 . S
C717 C79 1.463 . S
C719 C338 1.449 . S
C728 C58 1.513 . S
C730 C283 1.510 . S
C739 C140 1.371 . S
C741 C181 1.342 1_565 S
C752 C201 1.521 . S
C750 C149 1.570 . S
C761 C158 1.494 . S
C763 C210 1.451 . S
C772 C59 1.586 . S
C774 C190 1.534 . S
C783 C68 1.475 . S
C785 C221 1.435 . S
C796 C170 1.340 1_545 S
C794 C77 1.367 . S
C805 C32 1.369 . S
C807 C241 1.345 . S
C816 C41 1.570 . S
C818 C261 1.522 . S
C827 C50 1.493 . S
C829 C270 1.451 . S
C838 C113 1.587 . S
C840 C250 1.537 . S
C851 C281 1.439 . S
C849 C122 1.476 . S
C860 C131 1.369 . S
C862 C230 1.336 . S
C871 C86 1.368 . S
C873 C301 1.345 . S
C882 C95 1.571 . S
C884 C321 1.517 . S
C895 C330 1.454 . S
C893 C104 1.494 . S
C904 C5 1.585 . S
C906 C310 1.539 . S
C915 C14 1.477 . S
C917 C341 1.436 . S
C926 C23 1.367 . S
C928 C290 1.341 . S
