# Generated by pormake.
# Topology bwt, (3,3)-cn, num edge types: 1
# Building blocks:
#     Node 0, Type 0, BuildingBlock: OLANEW_clean_sbu_2, # of connection points: 3
#     Node 1, Type 0, BuildingBlock: OLANEW_clean_sbu_2, # of connection points: 3
#     Node 2, Type 0, BuildingBlock: OLANEW_clean_sbu_2, # of connection points: 3
#     Node 3, Type 0, BuildingBlock: OLANEW_clean_sbu_2, # of connection points: 3
#     Node 4, Type 0, BuildingBlock: OLANEW_clean_sbu_2, # of connection points: 3
#     Node 5, Type 0, BuildingBlock: OLANEW_clean_sbu_2, # of connection points: 3
#     Node 6, Type 0, BuildingBlock: OLANEW_clean_sbu_2, # of connection points: 3
#     Node 7, Type 0, BuildingBlock: OLANEW_clean_sbu_2, # of connection points: 3
#     Node 8, Type 0, BuildingBlock: OLANEW_clean_sbu_2, # of connection points: 3
#     Node 9, Type 0, BuildingBlock: OLANEW_clean_sbu_2, # of connection points: 3
#     Node 10, Type 0, BuildingBlock: OLANEW_clean_sbu_2, # of connection points: 3
#     Node 11, Type 0, BuildingBlock: OLANEW_clean_sbu_2, # of connection points: 3
#     Node 12, Type 0, BuildingBlock: OLANEW_clean_sbu_2, # of connection points: 3
#     Node 13, Type 0, BuildingBlock: OLANEW_clean_sbu_2, # of connection points: 3
#     Node 14, Type 0, BuildingBlock: OLANEW_clean_sbu_2, # of connection points: 3
#     Node 15, Type 0, BuildingBlock: OLANEW_clean_sbu_2, # of connection points: 3
#     Node 16, Type 0, BuildingBlock: OLANEW_clean_sbu_2, # of connection points: 3
#     Node 17, Type 0, BuildingBlock: OLANEW_clean_sbu_2, # of connection points: 3
#     Node 18, Type 0, BuildingBlock: OLANEW_clean_sbu_2, # of connection points: 3
#     Node 19, Type 0, BuildingBlock: OLANEW_clean_sbu_2, # of connection points: 3
#     Node 20, Type 0, BuildingBlock: OLANEW_clean_sbu_2, # of connection points: 3
#     Node 21, Type 0, BuildingBlock: OLANEW_clean_sbu_2, # of connection points: 3
#     Node 22, Type 0, BuildingBlock: OLANEW_clean_sbu_2, # of connection points: 3
#     Node 23, Type 0, BuildingBlock: OLANEW_clean_sbu_2, # of connection points: 3
#     Node 24, Type 1, BuildingBlock: BELTOD_clean_linker_0, # of connection points: 3
#     Node 25, Type 1, BuildingBlock: BELTOD_clean_linker_0, # of connection points: 3
#     Node 26, Type 1, BuildingBlock: BELTOD_clean_linker_0, # of connection points: 3
#     Node 27, Type 1, BuildingBlock: BELTOD_clean_linker_0, # of connection points: 3
#     Node 28, Type 1, BuildingBlock: BELTOD_clean_linker_0, # of connection points: 3
#     Node 29, Type 1, BuildingBlock: BELTOD_clean_linker_0, # of connection points: 3
#     Node 30, Type 1, BuildingBlock: BELTOD_clean_linker_0, # of connection points: 3
#     Node 31, Type 1, BuildingBlock: BELTOD_clean_linker_0, # of connection points: 3
#     Node 32, Type 1, BuildingBlock: BELTOD_clean_linker_0, # of connection points: 3
#     Node 33, Type 1, BuildingBlock: BELTOD_clean_linker_0, # of connection points: 3
#     Node 34, Type 1, BuildingBlock: BELTOD_clean_linker_0, # of connection points: 3
#     Node 35, Type 1, BuildingBlock: BELTOD_clean_linker_0, # of connection points: 3
#     Node 36, Type 1, BuildingBlock: BELTOD_clean_linker_0, # of connection points: 3
#     Node 37, Type 1, BuildingBlock: BELTOD_clean_linker_0, # of connection points: 3
#     Node 38, Type 1, BuildingBlock: BELTOD_clean_linker_0, # of connection points: 3
#     Node 39, Type 1, BuildingBlock: BELTOD_clean_linker_0, # of connection points: 3
#     Node 40, Type 1, BuildingBlock: BELTOD_clean_linker_0, # of connection points: 3
#     Node 41, Type 1, BuildingBlock: BELTOD_clean_linker_0, # of connection points: 3
#     Node 42, Type 1, BuildingBlock: BELTOD_clean_linker_0, # of connection points: 3
#     Node 43, Type 1, BuildingBlock: BELTOD_clean_linker_0, # of connection points: 3
#     Node 44, Type 1, BuildingBlock: BELTOD_clean_linker_0, # of connection points: 3
#     Node 45, Type 1, BuildingBlock: BELTOD_clean_linker_0, # of connection points: 3
#     Node 46, Type 1, BuildingBlock: BELTOD_clean_linker_0, # of connection points: 3
#     Node 47, Type 1, BuildingBlock: BELTOD_clean_linker_0, # of connection points: 3
#     Edge 48, Type (0, 1), BuildingBlock: UVAHIK_clean_linker_0, # of connection points: 2
#     Edge 49, Type (0, 1), BuildingBlock: UVAHIK_clean_linker_0, # of connection points: 2
#     Edge 50, Type (0, 1), BuildingBlock: UVAHIK_clean_linker_0, # of connection points: 2
#     Edge 51, Type (0, 1), BuildingBlock: UVAHIK_clean_linker_0, # of connection points: 2
#     Edge 52, Type (0, 1), BuildingBlock: UVAHIK_clean_linker_0, # of connection points: 2
#     Edge 53, Type (0, 1), BuildingBlock: UVAHIK_clean_linker_0, # of connection points: 2
#     Edge 54, Type (0, 1), BuildingBlock: UVAHIK_clean_linker_0, # of connection points: 2
#     Edge 55, Type (0, 1), BuildingBlock: UVAHIK_clean_linker_0, # of connection points: 2
#     Edge 56, Type (0, 1), BuildingBlock: UVAHIK_clean_linker_0, # of connection points: 2
#     Edge 57, Type (0, 1), BuildingBlock: UVAHIK_clean_linker_0, # of connection points: 2
#     Edge 58, Type (0, 1), BuildingBlock: UVAHIK_clean_linker_0, # of connection points: 2
#     Edge 59, Type (0, 1), BuildingBlock: UVAHIK_clean_linker_0, # of connection points: 2
#     Edge 60, Type (0, 1), BuildingBlock: UVAHIK_clean_linker_0, # of connection points: 2
#     Edge 61, Type (0, 1), BuildingBlock: UVAHIK_clean_linker_0, # of connection points: 2
#     Edge 62, Type (0, 1), BuildingBlock: UVAHIK_clean_linker_0, # of connection points: 2
#     Edge 63, Type (0, 1), BuildingBlock: UVAHIK_clean_linker_0, # of connection points: 2
#     Edge 64, Type (0, 1), BuildingBlock: UVAHIK_clean_linker_0, # of connection points: 2
#     Edge 65, Type (0, 1), BuildingBlock: UVAHIK_clean_linker_0, # of connection points: 2
#     Edge 66, Type (0, 1), BuildingBlock: UVAHIK_clean_linker_0, # of connection points: 2
#     Edge 67, Type (0, 1), BuildingBlock: UVAHIK_clean_linker_0, # of connection points: 2
#     Edge 68, Type (0, 1), BuildingBlock: UVAHIK_clean_linker_0, # of connection points: 2
#     Edge 69, Type (0, 1), BuildingBlock: UVAHIK_clean_linker_0, # of connection points: 2
#     Edge 70, Type (0, 1), BuildingBlock: UVAHIK_clean_linker_0, # of connection points: 2
#     Edge 71, Type (0, 1), BuildingBlock: UVAHIK_clean_linker_0, # of connection points: 2
#     Edge 72, Type (0, 1), BuildingBlock: UVAHIK_clean_linker_0, # of connection points: 2
#     Edge 73, Type (0, 1), BuildingBlock: UVAHIK_clean_linker_0, # of connection points: 2
#     Edge 74, Type (0, 1), BuildingBlock: UVAHIK_clean_linker_0, # of connection points: 2
#     Edge 75, Type (0, 1), BuildingBlock: UVAHIK_clean_linker_0, # of connection points: 2
#     Edge 76, Type (0, 1), BuildingBlock: UVAHIK_clean_linker_0, # of connection points: 2
#     Edge 77, Type (0, 1), BuildingBlock: UVAHIK_clean_linker_0, # of connection points: 2
#     Edge 78, Type (0, 1), BuildingBlock: UVAHIK_clean_linker_0, # of connection points: 2
#     Edge 79, Type (0, 1), BuildingBlock: UVAHIK_clean_linker_0, # of connection points: 2
#     Edge 80, Type (0, 1), BuildingBlock: UVAHIK_clean_linker_0, # of connection points: 2
#     Edge 81, Type (0, 1), BuildingBlock: UVAHIK_clean_linker_0, # of connection points: 2
#     Edge 82, Type (0, 1), BuildingBlock: UVAHIK_clean_linker_0, # of connection points: 2
#     Edge 83, Type (0, 1), BuildingBlock: UVAHIK_clean_linker_0, # of connection points: 2
#     Edge 84, Type (0, 1), BuildingBlock: UVAHIK_clean_linker_0, # of connection points: 2
#     Edge 85, Type (0, 1), BuildingBlock: UVAHIK_clean_linker_0, # of connection points: 2
#     Edge 86, Type (0, 1), BuildingBlock: UVAHIK_clean_linker_0, # of connection points: 2
#     Edge 87, Type (0, 1), BuildingBlock: UVAHIK_clean_linker_0, # of connection points: 2
#     Edge 88, Type (0, 1), BuildingBlock: UVAHIK_clean_linker_0, # of connection points: 2
#     Edge 89, Type (0, 1), BuildingBlock: UVAHIK_clean_linker_0, # of connection points: 2
#     Edge 90, Type (0, 1), BuildingBlock: UVAHIK_clean_linker_0, # of connection points: 2
#     Edge 91, Type (0, 1), BuildingBlock: UVAHIK_clean_linker_0, # of connection points: 2
#     Edge 92, Type (0, 1), BuildingBlock: UVAHIK_clean_linker_0, # of connection points: 2
#     Edge 93, Type (0, 1), BuildingBlock: UVAHIK_clean_linker_0, # of connection points: 2
#     Edge 94, Type (0, 1), BuildingBlock: UVAHIK_clean_linker_0, # of connection points: 2
#     Edge 95, Type (0, 1), BuildingBlock: UVAHIK_clean_linker_0, # of connection points: 2
#     Edge 96, Type (0, 1), BuildingBlock: UVAHIK_clean_linker_0, # of connection points: 2
#     Edge 97, Type (0, 1), BuildingBlock: UVAHIK_clean_linker_0, # of connection points: 2
#     Edge 98, Type (0, 1), BuildingBlock: UVAHIK_clean_linker_0, # of connection points: 2
#     Edge 99, Type (0, 1), BuildingBlock: UVAHIK_clean_linker_0, # of connection points: 2
#     Edge 100, Type (0, 1), BuildingBlock: UVAHIK_clean_linker_0, # of connection points: 2
#     Edge 101, Type (0, 1), BuildingBlock: UVAHIK_clean_linker_0, # of connection points: 2
#     Edge 102, Type (0, 1), BuildingBlock: UVAHIK_clean_linker_0, # of connection points: 2
#     Edge 103, Type (0, 1), BuildingBlock: UVAHIK_clean_linker_0, # of connection points: 2
#     Edge 104, Type (0, 1), BuildingBlock: UVAHIK_clean_linker_0, # of connection points: 2
#     Edge 105, Type (0, 1), BuildingBlock: UVAHIK_clean_linker_0, # of connection points: 2
#     Edge 106, Type (0, 1), BuildingBlock: UVAHIK_clean_linker_0, # of connection points: 2
#     Edge 107, Type (0, 1), BuildingBlock: UVAHIK_clean_linker_0, # of connection points: 2
#     Edge 108, Type (0, 1), BuildingBlock: UVAHIK_clean_linker_0, # of connection points: 2
#     Edge 109, Type (0, 1), BuildingBlock: UVAHIK_clean_linker_0, # of connection points: 2
#     Edge 110, Type (0, 1), BuildingBlock: UVAHIK_clean_linker_0, # of connection points: 2
#     Edge 111, Type (0, 1), BuildingBlock: UVAHIK_clean_linker_0, # of connection points: 2
#     Edge 112, Type (0, 1), BuildingBlock: UVAHIK_clean_linker_0, # of connection points: 2
#     Edge 113, Type (0, 1), BuildingBlock: UVAHIK_clean_linker_0, # of connection points: 2
#     Edge 114, Type (0, 1), BuildingBlock: UVAHIK_clean_linker_0, # of connection points: 2
#     Edge 115, Type (0, 1), BuildingBlock: UVAHIK_clean_linker_0, # of connection points: 2
#     Edge 116, Type (0, 1), BuildingBlock: UVAHIK_clean_linker_0, # of connection points: 2
#     Edge 117, Type (0, 1), BuildingBlock: UVAHIK_clean_linker_0, # of connection points: 2
#     Edge 118, Type (0, 1), BuildingBlock: UVAHIK_clean_linker_0, # of connection points: 2
#     Edge 119, Type (0, 1), BuildingBlock: UVAHIK_clean_linker_0, # of connection points: 2
# Relax obj value: 0.138
# Max RMSD: 0.136
# Mean RMSD: 0.084
data_MOF--net-bwt--node1-OLANEW_clean_sbu_2--node2-BELTOD_clean_linker_0--edge1-UVAHIK_clean_linker_0
_symmetry_space_group_name_H-M    P1
_symmetry_Int_Tables_number       1
_symmetry_cell_setting            triclinic
loop_
_symmetry_equiv_pos_as_xyz
'x, y, z'
_cell_length_a     83.093369
_cell_length_b     83.051621
_cell_length_c     83.070062
_cell_angle_alpha  93.298654
_cell_angle_beta   93.299694
_cell_angle_gamma 93.305508
loop_
_atom_site_label
_atom_site_type_symbol
_atom_site_fract_x
_atom_site_fract_y
_atom_site_fract_z
_atom_type_partial_charge
O0 O 0.27308 0.58863 0.347 0.0
Cd1 Cd 0.2725 0.59411 0.31837 0.0
O2 O 0.28683 0.61131 0.35522 0.0
Cd3 Cd 0.29401 0.61614 0.33102 0.0
O4 O 0.31555 0.615 0.31723 0.0
C5 C 0.31769 0.60259 0.30811 0.0
O6 O 0.30598 0.59123 0.30574 0.0
C7 C 0.27908 0.59836 0.35845 0.0
C8 C 0.24037 0.59176 0.30629 0.0
O9 O 0.2489 0.57939 0.30606 0.0
O10 O 0.24716 0.60535 0.31184 0.0
O11 O 0.21625 0.42332 0.69454 0.0
Cd12 Cd 0.21353 0.41715 0.66528 0.0
O13 O 0.22237 0.39849 0.6989 0.0
Cd14 Cd 0.20937 0.38996 0.67619 0.0
O15 O 0.18323 0.38766 0.67146 0.0
C16 C 0.17603 0.38366 0.68385 0.0
O17 O 0.18481 0.38044 0.69682 0.0
C18 C 0.22144 0.41309 0.70411 0.0
C19 C 0.24489 0.41365 0.65592 0.0
O20 O 0.2386 0.42738 0.65584 0.0
O21 O 0.23606 0.40143 0.65964 0.0
O22 O 0.76643 0.99323 0.68637 0.0
Cd23 Cd 0.76902 0.99377 0.71589 0.0
O24 O 0.77435 0.96851 0.68337 0.0
Cd25 Cd 0.787 0.97141 0.70721 0.0
O26 O 0.81045 0.98285 0.71604 0.0
C27 C 0.81228 0.99807 0.7152 0.0
O28 O 0.79975 0.00602 0.71065 0.0
C29 C 0.76831 0.98069 0.67732 0.0
C30 C 0.73864 0.998 0.72751 0.0
O31 O 0.74844 0.01013 0.72558 0.0
O32 O 0.74339 0.98381 0.72434 0.0
O33 O 0.74467 0.02054 0.31576 0.0
Cd34 Cd 0.75465 0.02056 0.34403 0.0
O35 O 0.71973 0.01433 0.3216 0.0
Cd36 Cd 0.69444 0.00676 0.31485 0.0
O37 O 0.66996 0.99922 0.30528 0.0
C38 C 0.66415 0.98496 0.30697 0.0
O39 O 0.67302 0.97493 0.3147 0.0
C40 C 0.72992 0.01742 0.31117 0.0
C41 C 0.78668 0.01212 0.34532 0.0
O42 O 0.775 0.00132 0.34521 0.0
O43 O 0.7832 0.02695 0.34516 0.0
O44 O 0.3285 0.26666 0.60006 0.0
Cd45 Cd 0.30493 0.26144 0.61572 0.0
O46 O 0.3193 0.28766 0.58825 0.0
Cd47 Cd 0.29911 0.29182 0.60336 0.0
O48 O 0.29046 0.31434 0.61365 0.0
C49 C 0.28001 0.32176 0.60567 0.0
O50 O 0.27321 0.31475 0.59219 0.0
C51 C 0.32999 0.27743 0.58988 0.0
C52 C 0.29733 0.22814 0.61413 0.0
O53 O 0.29064 0.2372 0.60406 0.0
O54 O 0.30733 0.23487 0.62517 0.0
O55 O 0.30947 0.7583 0.01692 0.0
Cd56 Cd 0.33662 0.77147 0.02073 0.0
O57 O 0.31826 0.73382 0.01614 0.0
Cd58 Cd 0.31431 0.70752 0.01224 0.0
O59 O 0.30674 0.68201 0.00699 0.0
C60 C 0.31438 0.67318 0.99743 0.0
O61 O 0.3271 0.67954 0.99089 0.0
C62 C 0.30657 0.74307 0.01571 0.0
C63 C 0.33576 0.8042 0.01489 0.0
O64 O 0.33892 0.79378 0.0037 0.0
O65 O 0.33321 0.79917 0.02888 0.0
O66 O 0.68948 0.21265 0.42417 0.0
Cd67 Cd 0.66138 0.20824 0.41351 0.0
O68 O 0.69755 0.22039 0.40093 0.0
Cd69 Cd 0.67658 0.20735 0.3883 0.0
O70 O 0.67401 0.18131 0.3828 0.0
C71 C 0.68697 0.17571 0.37808 0.0
O72 O 0.69917 0.18593 0.3758 0.0
C73 C 0.70047 0.2188 0.41594 0.0
C74 C 0.64953 0.23865 0.40994 0.0
O75 O 0.64786 0.23138 0.42299 0.0
O76 O 0.65625 0.23128 0.39839 0.0
O77 O 0.69215 0.76696 0.97573 0.0
Cd78 Cd 0.72155 0.7699 0.97512 0.0
O79 O 0.68802 0.77889 0.95304 0.0
Cd80 Cd 0.71256 0.78994 0.95449 0.0
O81 O 0.72355 0.81369 0.96269 0.0
C82 C 0.72814 0.81664 0.97748 0.0
O83 O 0.72791 0.80471 0.98721 0.0
C84 C 0.68252 0.771 0.96441 0.0
C85 C 0.73372 0.74062 0.98304 0.0
O86 O 0.73331 0.75229 0.99377 0.0
O87 O 0.72883 0.74298 0.9685 0.0
O88 O 0.61038 0.33574 0.27317 0.0
Cd89 Cd 0.61844 0.30827 0.2672 0.0
O90 O 0.61618 0.33489 0.29928 0.0
Cd91 Cd 0.62263 0.30984 0.29996 0.0
O92 O 0.62133 0.29316 0.31927 0.0
C93 C 0.60847 0.28436 0.32036 0.0
O94 O 0.59711 0.28401 0.30865 0.0
C95 C 0.61125 0.34255 0.28732 0.0
C96 C 0.61134 0.2992 0.23459 0.0
O97 O 0.60113 0.29618 0.24518 0.0
O98 O 0.625 0.30631 0.23947 0.0
O99 O 0.04168 0.31639 0.75377 0.0
Cd100 Cd 0.0437 0.3436 0.76687 0.0
O101 O 0.0311 0.32476 0.73115 0.0
Cd102 Cd 0.01925 0.32055 0.70694 0.0
O103 O 0.00932 0.31121 0.68311 0.0
C104 C 0.00121 0.2977 0.6818 0.0
O105 O 0.99883 0.28993 0.69488 0.0
C106 C 0.03595 0.31329 0.73934 0.0
C107 C 0.0334 0.34231 0.79816 0.0
O108 O 0.02355 0.3451 0.78634 0.0
O109 O 0.04817 0.34043 0.79521 0.0
O110 O 0.38823 0.69097 0.22169 0.0
Cd111 Cd 0.38237 0.66168 0.21919 0.0
O112 O 0.36637 0.69665 0.20748 0.0
Cd113 Cd 0.36313 0.6719 0.19704 0.0
O114 O 0.37249 0.66215 0.17475 0.0
C115 C 0.38778 0.66283 0.1744 0.0
O116 O 0.39651 0.66736 0.18776 0.0
C117 C 0.37891 0.70135 0.2164 0.0
C118 C 0.38426 0.65064 0.25026 0.0
O119 O 0.39665 0.65123 0.24176 0.0
O120 O 0.37083 0.65475 0.24383 0.0
O121 O 0.9747 0.68461 0.75762 0.0
Cd122 Cd 0.97477 0.7141 0.75977 0.0
O123 O 0.95529 0.68116 0.77421 0.0
Cd124 Cd 0.95746 0.70627 0.78373 0.0
O125 O 0.96675 0.71956 0.80607 0.0
C126 C 0.98133 0.72521 0.80753 0.0
O127 O 0.99009 0.72447 0.79486 0.0
C128 C 0.96484 0.67526 0.76433 0.0
C129 C 0.98276 0.72575 0.73024 0.0
O130 O 0.99361 0.72459 0.74165 0.0
O131 O 0.96807 0.72176 0.73293 0.0
O132 O 0.74125 0.35723 0.64085 0.0
Cd133 Cd 0.7463 0.3456 0.66687 0.0
O134 O 0.71902 0.36603 0.65004 0.0
Cd135 Cd 0.69576 0.37705 0.64858 0.0
O136 O 0.67166 0.38603 0.64943 0.0
C137 C 0.66274 0.38124 0.66034 0.0
O138 O 0.66836 0.37113 0.67056 0.0
C139 C 0.72868 0.36504 0.63874 0.0
C140 C 0.77653 0.35682 0.68055 0.0
O141 O 0.77468 0.3433 0.67221 0.0
O142 O 0.76405 0.3649 0.68258 0.0
O143 O 0.75303 0.66633 0.27646 0.0
Cd144 Cd 0.7506 0.68 0.30295 0.0
O145 O 0.7731 0.65307 0.28624 0.0
Cd146 Cd 0.79245 0.63646 0.28382 0.0
O147 O 0.81366 0.62248 0.28082 0.0
C148 C 0.82732 0.63006 0.28018 0.0
O149 O 0.82812 0.64594 0.28131 0.0
C150 C 0.76331 0.65574 0.2745 0.0
C151 C 0.7226 0.66706 0.31547 0.0
O152 O 0.72236 0.67985 0.30754 0.0
O153 O 0.73616 0.66071 0.31787 0.0
O154 O 0.27303 0.07022 0.32565 0.0
Cd155 Cd 0.27324 0.07335 0.29661 0.0
O156 O 0.24891 0.05812 0.32178 0.0
Cd157 Cd 0.22591 0.04657 0.328 0.0
O158 O 0.20131 0.03567 0.32782 0.0
C159 C 0.19108 0.04037 0.31742 0.0
O160 O 0.19575 0.05153 0.3078 0.0
C161 C 0.26093 0.06299 0.33136 0.0
C162 C 0.29705 0.05512 0.28362 0.0
O163 O 0.3 0.07009 0.28807 0.0
O164 O 0.28279 0.04887 0.28511 0.0
O165 O 0.24038 0.97222 0.71845 0.0
Cd166 Cd 0.23258 0.97185 0.68963 0.0
O167 O 0.26395 0.98388 0.7142 0.0
Cd168 Cd 0.28864 0.99382 0.72065 0.0
O169 O 0.31303 0.00467 0.72635 0.0
C170 C 0.32388 0.99653 0.73283 0.0
O171 O 0.32018 0.98155 0.73619 0.0
C172 C 0.25408 0.97837 0.72399 0.0
C173 C 0.20356 0.98668 0.68483 0.0
O174 O 0.20371 0.9714 0.68624 0.0
O175 O 0.21715 0.99489 0.68551 0.0
O176 O 0.65458 0.74782 0.3673 0.0
Cd177 Cd 0.67943 0.7519 0.35336 0.0
O178 O 0.65993 0.72245 0.36883 0.0
Cd179 Cd 0.65665 0.69794 0.37685 0.0
O180 O 0.65661 0.6728 0.38313 0.0
C181 C 0.66643 0.66383 0.37634 0.0
O182 O 0.67598 0.67004 0.36593 0.0
C183 C 0.65076 0.73385 0.37186 0.0
C184 C 0.69452 0.78206 0.36268 0.0
O185 O 0.68495 0.78008 0.34996 0.0
O186 O 0.69707 0.76973 0.37085 0.0
O187 O 0.70852 0.23999 0.97258 0.0
Cd188 Cd 0.68001 0.23101 0.9723 0.0
O189 O 0.70442 0.26276 0.98597 0.0
Cd190 Cd 0.71154 0.2871 0.99646 0.0
O191 O 0.71786 0.31205 0.00532 0.0
C192 C 0.71419 0.32329 0.99628 0.0
O193 O 0.70687 0.31944 0.98202 0.0
C194 C 0.71406 0.25344 0.97934 0.0
C195 C 0.67661 0.2022 0.98774 0.0
O196 O 0.67926 0.2022 0.9727 0.0
O197 O 0.67535 0.21584 0.99546 0.0
O198 O 0.29887 0.78216 0.64167 0.0
Cd199 Cd 0.32779 0.78124 0.64868 0.0
O200 O 0.30521 0.78727 0.61712 0.0
Cd201 Cd 0.29903 0.78799 0.59116 0.0
O202 O 0.29406 0.78054 0.56553 0.0
C203 C 0.29199 0.78951 0.55375 0.0
O204 O 0.29027 0.78272 0.53903 0.0
C205 C 0.2945 0.78465 0.62716 0.0
C206 C 0.33697 0.74985 0.64206 0.0
O207 O 0.33352 0.75459 0.65634 0.0
O208 O 0.33641 0.76004 0.63106 0.0
O209 O 0.29387 0.23485 0.04004 0.0
Cd210 Cd 0.26484 0.2382 0.03806 0.0
O211 O 0.29299 0.23509 0.01363 0.0
Cd212 Cd 0.30489 0.23716 0.99099 0.0
O213 O 0.31897 0.24013 0.96979 0.0
C214 C 0.32555 0.22908 0.9617 0.0
O215 O 0.3345 0.23321 0.9499 0.0
C216 C 0.30111 0.23429 0.02698 0.0
C217 C 0.25891 0.26774 0.02516 0.0
O218 O 0.26071 0.26656 0.04047 0.0
O219 O 0.2597 0.25491 0.01598 0.0
O220 O 0.3557 0.65427 0.74477 0.0
Cd221 Cd 0.34321 0.67937 0.75206 0.0
O222 O 0.35986 0.66338 0.72107 0.0
Cd223 Cd 0.36765 0.66286 0.69636 0.0
O224 O 0.37565 0.66671 0.67225 0.0
C225 C 0.37562 0.65532 0.66135 0.0
O226 O 0.37057 0.64065 0.6646 0.0
C227 C 0.3615 0.65241 0.73101 0.0
C228 C 0.35543 0.6917 0.78253 0.0
O229 O 0.34205 0.68311 0.78082 0.0
O230 O 0.36289 0.69461 0.76984 0.0
O231 O 0.97758 0.70606 0.23937 0.0
Cd232 Cd 0.98114 0.6777 0.2318 0.0
O233 O 0.99093 0.7045 0.2627 0.0
Cd234 Cd 0.00339 0.71355 0.2857 0.0
O235 O 0.01468 0.72015 0.30977 0.0
C236 C 0.00604 0.72454 0.32118 0.0
O237 O 0.99042 0.72534 0.31816 0.0
C238 C 0.98334 0.71285 0.25274 0.0
C239 C 0.99368 0.67505 0.20137 0.0
O240 O 0.97839 0.67418 0.20289 0.0
O241 O 0.00301 0.67693 0.21426 0.0
O242 O 0.65006 0.28912 0.74636 0.0
Cd243 Cd 0.66147 0.31685 0.74575 0.0
O244 O 0.64161 0.2934 0.77066 0.0
Cd245 Cd 0.62791 0.28785 0.79159 0.0
O246 O 0.61527 0.2838 0.81346 0.0
C247 C 0.62208 0.27683 0.82502 0.0
O248 O 0.63668 0.2719 0.82349 0.0
C249 C 0.64265 0.28397 0.75819 0.0
C250 C 0.64914 0.32947 0.71752 0.0
O251 O 0.66245 0.32241 0.71782 0.0
O252 O 0.64192 0.33098 0.7307 0.0
O253 O 0.06613 0.30297 0.27895 0.0
Cd254 Cd 0.07002 0.27435 0.28186 0.0
O255 O 0.05022 0.29761 0.2571 0.0
Cd256 Cd 0.03539 0.30325 0.23577 0.0
O257 O 0.02163 0.30446 0.21272 0.0
C258 C 0.02697 0.31304 0.20177 0.0
O259 O 0.04073 0.32161 0.20468 0.0
C260 C 0.05709 0.30788 0.26762 0.0
C261 C 0.05169 0.2632 0.30648 0.0
O262 O 0.06595 0.26978 0.30956 0.0
O263 O 0.04617 0.26168 0.29171 0.0
P264 P 0.32872 0.53152 0.56745 0.0
H265 H 0.35359 0.54748 0.5904 0.0
H266 H 0.35638 0.57468 0.60369 0.0
H267 H 0.30845 0.58373 0.58479 0.0
H268 H 0.30568 0.55651 0.57166 0.0
H269 H 0.31337 0.50152 0.55261 0.0
H270 H 0.30042 0.47789 0.56372 0.0
H271 H 0.30604 0.50182 0.61146 0.0
H272 H 0.31907 0.52552 0.60019 0.0
H273 H 0.34462 0.54436 0.54026 0.0
H274 H 0.29609 0.52969 0.55139 0.0
O275 O 0.3474 0.52538 0.56615 0.0
H276 H 0.33451 0.55274 0.51403 0.0
H277 H 0.28585 0.5381 0.52513 0.0
C278 C 0.32956 0.55012 0.57978 0.0
C279 C 0.34358 0.55522 0.58934 0.0
C280 C 0.34515 0.57074 0.59697 0.0
C281 C 0.33273 0.58139 0.59505 0.0
C282 C 0.31832 0.57586 0.58624 0.0
C283 C 0.31671 0.5603 0.57877 0.0
C284 C 0.31681 0.51543 0.5755 0.0
C285 C 0.31141 0.50188 0.5654 0.0
C286 C 0.30398 0.48836 0.57178 0.0
C287 C 0.30209 0.488 0.58847 0.0
C288 C 0.30733 0.50172 0.59856 0.0
C289 C 0.31468 0.51532 0.59211 0.0
C290 C 0.32117 0.53599 0.54756 0.0
C291 C 0.33181 0.54271 0.53694 0.0
C292 C 0.326 0.54765 0.52203 0.0
C293 C 0.30938 0.54606 0.51751 0.0
C294 C 0.29874 0.53925 0.52817 0.0
C295 C 0.30458 0.5344 0.54316 0.0
P296 P 0.22078 0.46483 0.92864 0.0
H297 H 0.20836 0.44998 0.95683 0.0
H298 H 0.21534 0.42592 0.97071 0.0
H299 H 0.25454 0.41937 0.93943 0.0
H300 H 0.24737 0.44337 0.92551 0.0
H301 H 0.20952 0.49692 0.936 0.0
H302 H 0.22335 0.52249 0.94619 0.0
H303 H 0.26869 0.49948 0.94888 0.0
H304 H 0.25472 0.47389 0.93841 0.0
H305 H 0.21259 0.43676 0.90669 0.0
H306 H 0.23607 0.48418 0.90423 0.0
O307 O 0.20093 0.46608 0.93006 0.0
H308 H 0.21651 0.43087 0.87809 0.0
H309 H 0.24023 0.47829 0.87564 0.0
C310 C 0.22711 0.4482 0.93992 0.0
C311 C 0.21851 0.44341 0.95303 0.0
C312 C 0.22258 0.42971 0.96102 0.0
C313 C 0.23538 0.42063 0.95605 0.0
C314 C 0.24443 0.42593 0.94334 0.0
C315 C 0.24037 0.43967 0.93541 0.0
C316 C 0.23106 0.48345 0.93673 0.0
C317 C 0.22241 0.49732 0.93891 0.0
C318 C 0.23033 0.51194 0.94479 0.0
C319 C 0.2471 0.513 0.94848 0.0
C320 C 0.25577 0.49908 0.94609 0.0
C321 C 0.2478 0.48442 0.94023 0.0
C322 C 0.22422 0.4608 0.90763 0.0
C323 C 0.21872 0.44585 0.90001 0.0
C324 C 0.22105 0.44247 0.88368 0.0
C325 C 0.2288 0.45407 0.87462 0.0
C326 C 0.23416 0.46914 0.88228 0.0
C327 C 0.23187 0.47248 0.89866 0.0
P328 P 0.77288 0.98966 0.45016 0.0
H329 H 0.78249 0.97144 0.42154 0.0
H330 H 0.77308 0.94505 0.40853 0.0
H331 H 0.73777 0.93962 0.44432 0.0
H332 H 0.74703 0.96606 0.45709 0.0
H333 H 0.78094 0.01051 0.42445 0.0
H334 H 0.76617 0.03036 0.41022 0.0
H335 H 0.72567 0.02165 0.43974 0.0
H336 H 0.74023 0.00089 0.45305 0.0
H337 H 0.78073 0.96618 0.47343 0.0
H338 H 0.7613 0.01323 0.47439 0.0
O339 O 0.79254 0.99274 0.44745 0.0
H340 H 0.77782 0.96512 0.50236 0.0
H341 H 0.75739 0.01188 0.50315 0.0
C342 C 0.7658 0.97042 0.44055 0.0
C343 C 0.77276 0.96453 0.42659 0.0
C344 C 0.76732 0.94954 0.41913 0.0
C345 C 0.75484 0.94024 0.42556 0.0
C346 C 0.74761 0.94642 0.4393 0.0
C347 C 0.75291 0.96149 0.44661 0.0
C348 C 0.76194 0.00475 0.44029 0.0
C349 C 0.76892 0.01296 0.42793 0.0
C350 C 0.76044 0.02439 0.41983 0.0
C351 C 0.74479 0.02796 0.42401 0.0
C352 C 0.73764 0.01926 0.4361 0.0
C353 C 0.74606 0.00756 0.44395 0.0
C354 C 0.77065 0.98948 0.47161 0.0
C355 C 0.77557 0.97618 0.47984 0.0
C356 C 0.77378 0.97555 0.49639 0.0
C357 C 0.76704 0.98826 0.50512 0.0
C358 C 0.76261 0.00185 0.49688 0.0
C359 C 0.76461 0.00254 0.48032 0.0
P360 P 0.66436 0.00187 0.08719 0.0
H361 H 0.64102 0.0261 0.08092 0.0
H362 H 0.64341 0.05274 0.06986 0.0
H363 H 0.6946 0.04814 0.06614 0.0
H364 H 0.69215 0.02152 0.07735 0.0
H365 H 0.67618 0.9709 0.09557 0.0
H366 H 0.6896 0.95012 0.08043 0.0
H367 H 0.69125 0.9805 0.03987 0.0
H368 H 0.67678 0.00059 0.05468 0.0
H369 H 0.64689 0.99882 0.1166 0.0
H370 H 0.69599 0.0087 0.10414 0.0
O371 O 0.64502 0.99505 0.08499 0.0
H372 H 0.65564 0.0011 0.14522 0.0
H373 H 0.70482 0.01158 0.13281 0.0
C374 C 0.66633 0.02167 0.07953 0.0
C375 C 0.65276 0.03081 0.07772 0.0
C376 C 0.65415 0.04607 0.07151 0.0
C377 C 0.66916 0.05242 0.06701 0.0
C378 C 0.68284 0.04342 0.06929 0.0
C379 C 0.68146 0.02824 0.0757 0.0
C380 C 0.67589 0.98751 0.07646 0.0
C381 C 0.67961 0.97314 0.08348 0.0
C382 C 0.68741 0.96129 0.0748 0.0
C383 C 0.69168 0.96359 0.05889 0.0
C384 C 0.68802 0.97814 0.05199 0.0
C385 C 0.67996 0.98983 0.06058 0.0
C386 C 0.67082 0.0035 0.10827 0.0
C387 C 0.65957 0.00153 0.12003 0.0
C388 C 0.66458 0.00297 0.13642 0.0
C389 C 0.68094 0.00655 0.14135 0.0
C390 C 0.69217 0.00859 0.12946 0.0
C391 C 0.68714 0.00707 0.11306 0.0
P392 P 0.53513 0.33324 0.51527 0.0
H393 H 0.56723 0.34823 0.52428 0.0
H394 H 0.58334 0.35186 0.55009 0.0
H395 H 0.54602 0.32484 0.57304 0.0
H396 H 0.53013 0.32118 0.54741 0.0
H397 H 0.52268 0.32386 0.48272 0.0
H398 H 0.53293 0.3077 0.46055 0.0
H399 H 0.57464 0.29807 0.49121 0.0
H400 H 0.56429 0.31437 0.5134 0.0
H401 H 0.50672 0.35019 0.52376 0.0
H402 H 0.51915 0.30086 0.51529 0.0
O403 O 0.53475 0.35176 0.50852 0.0
H404 H 0.47953 0.3408 0.5301 0.0
H405 H 0.49186 0.29133 0.52137 0.0
C406 C 0.54744 0.33456 0.53392 0.0
C407 C 0.56261 0.343 0.53487 0.0
C408 C 0.57179 0.34504 0.54958 0.0
C409 C 0.56583 0.33879 0.56359 0.0
C410 C 0.55079 0.33003 0.56249 0.0
C411 C 0.54171 0.32786 0.54777 0.0
C412 C 0.54271 0.32035 0.49966 0.0
C413 C 0.53396 0.31815 0.48471 0.0
C414 C 0.53979 0.30881 0.47209 0.0
C415 C 0.55457 0.30152 0.47414 0.0
C416 C 0.56326 0.30361 0.48924 0.0
C417 C 0.55734 0.31291 0.50194 0.0
C418 C 0.5148 0.32623 0.51872 0.0
C419 C 0.5035 0.33734 0.52301 0.0
C420 C 0.48795 0.33194 0.52659 0.0
C421 C 0.4835 0.31531 0.52612 0.0
C422 C 0.49494 0.30421 0.5219 0.0
C423 C 0.51048 0.30964 0.51828 0.0
P424 P 0.08479 0.66952 0.99629 0.0
H425 H 0.05787 0.65116 0.00892 0.0
H426 H 0.04529 0.65269 0.03482 0.0
H427 H 0.07766 0.69383 0.05078 0.0
H428 H 0.09029 0.69208 0.02498 0.0
H429 H 0.09216 0.67424 0.96324 0.0
H430 H 0.07957 0.68903 0.94182 0.0
H431 H 0.04414 0.70496 0.97437 0.0
H432 H 0.05672 0.68991 0.99572 0.0
H433 H 0.1141 0.65214 0.00158 0.0
H434 H 0.10169 0.70146 0.99722 0.0
O435 O 0.08332 0.65015 0.98952 0.0
H436 H 0.14274 0.66095 0.00419 0.0
H437 H 0.13024 0.71049 0.00043 0.0
C438 C 0.07526 0.67125 0.01517 0.0
C439 C 0.06227 0.66048 0.01802 0.0
C440 C 0.05501 0.66145 0.03278 0.0
C441 C 0.06057 0.6733 0.04492 0.0
C442 C 0.07331 0.68437 0.0418 0.0
C443 C 0.08052 0.68341 0.02702 0.0
C444 C 0.07538 0.68097 0.98103 0.0
C445 C 0.08172 0.68098 0.96577 0.0
C446 C 0.07458 0.68954 0.95358 0.0
C447 C 0.0609 0.69826 0.95641 0.0
C448 C 0.0546 0.69828 0.97178 0.0
C449 C 0.06181 0.68971 0.98402 0.0
C450 C 0.10583 0.67613 0.99895 0.0
C451 C 0.11755 0.66489 0.00126 0.0
C452 C 0.13393 0.66997 0.00289 0.0
C453 C 0.13884 0.68644 0.00243 0.0
C454 C 0.12695 0.69769 0.0005 0.0
C455 C 0.1106 0.69257 0.99876 0.0
P456 P 0.9199 0.20416 0.47636 0.0
H457 H 0.95435 0.21311 0.47551 0.0
H458 H 0.97132 0.22039 0.45373 0.0
H459 H 0.92919 0.21667 0.42032 0.0
H460 H 0.9125 0.2086 0.44202 0.0
H461 H 0.93155 0.19044 0.50627 0.0
H462 H 0.94212 0.20271 0.53242 0.0
H463 H 0.93557 0.25016 0.51513 0.0
H464 H 0.92547 0.23773 0.48881 0.0
H465 H 0.88933 0.18692 0.48194 0.0
H466 H 0.90505 0.2329 0.46473 0.0
O467 O 0.92048 0.1841 0.47636 0.0
H468 H 0.86119 0.19343 0.47749 0.0
H469 H 0.87686 0.23957 0.46033 0.0
C470 C 0.93209 0.21082 0.4605 0.0
C471 C 0.94875 0.21405 0.46353 0.0
C472 C 0.95845 0.21827 0.45104 0.0
C473 C 0.95165 0.21928 0.43524 0.0
C474 C 0.9349 0.21589 0.43228 0.0
C475 C 0.92527 0.2115 0.44475 0.0
C476 C 0.92772 0.2132 0.49563 0.0
C477 C 0.93242 0.20348 0.50809 0.0
C478 C 0.93837 0.21052 0.5231 0.0
C479 C 0.93965 0.22743 0.52593 0.0
C480 C 0.93493 0.23711 0.51333 0.0
C481 C 0.92903 0.23004 0.49831 0.0
C482 C 0.89924 0.20925 0.47327 0.0
C483 C 0.88672 0.19842 0.47717 0.0
C484 C 0.87064 0.20222 0.47476 0.0
C485 C 0.8668 0.21699 0.46848 0.0
C486 C 0.87943 0.228 0.46496 0.0
C487 C 0.89553 0.22422 0.46749 0.0
P488 P 0.45657 0.75351 0.98995 0.0
H489 H 0.42469 0.7374 0.98061 0.0
H490 H 0.41089 0.72935 0.95442 0.0
H491 H 0.45132 0.75044 0.93067 0.0
H492 H 0.46536 0.7574 0.9568 0.0
H493 H 0.4571 0.75905 0.02478 0.0
H494 H 0.45157 0.74142 0.04666 0.0
H495 H 0.441 0.70106 0.0118 0.0
H496 H 0.44703 0.71868 0.98992 0.0
H497 H 0.48009 0.78014 0.9853 0.0
H498 H 0.48013 0.72866 0.98971 0.0
O499 O 0.45094 0.77192 0.99536 0.0
H500 H 0.5091 0.7812 0.98155 0.0
H501 H 0.50915 0.72961 0.98593 0.0
C502 C 0.44636 0.74734 0.97068 0.0
C503 C 0.43072 0.73992 0.96975 0.0
C504 C 0.42273 0.73556 0.95471 0.0
C505 C 0.43002 0.73904 0.94031 0.0
C506 C 0.44548 0.74706 0.94141 0.0
C507 C 0.45355 0.75114 0.95642 0.0
C508 C 0.4519 0.74031 0.00571 0.0
C509 C 0.4535 0.74643 0.02182 0.0
C510 C 0.45047 0.73634 0.03431 0.0
C511 C 0.44575 0.71993 0.03087 0.0
C512 C 0.4444 0.71373 0.01472 0.0
C513 C 0.44772 0.7238 0.00224 0.0
C514 C 0.47805 0.75437 0.9881 0.0
C515 C 0.48638 0.76909 0.98562 0.0
C516 C 0.50292 0.76966 0.98334 0.0
C517 C 0.5114 0.75549 0.98349 0.0
C518 C 0.50299 0.74075 0.98599 0.0
C519 C 0.48641 0.74019 0.98815 0.0
P520 P 0.52827 0.54485 0.34474 0.0
H521 H 0.53831 0.57701 0.35931 0.0
H522 H 0.56255 0.59491 0.35701 0.0
H523 H 0.57872 0.56158 0.32043 0.0
H524 H 0.55446 0.54399 0.32246 0.0
H525 H 0.4973 0.52679 0.3401 0.0
H526 H 0.47085 0.53338 0.32897 0.0
H527 H 0.49096 0.58023 0.31753 0.0
H528 H 0.51754 0.57328 0.32822 0.0
H529 H 0.54958 0.52309 0.36008 0.0
H530 H 0.52036 0.52334 0.31552 0.0
O531 O 0.52573 0.54545 0.36454 0.0
H532 H 0.55971 0.4973 0.35119 0.0
H533 H 0.5298 0.49711 0.30679 0.0
C534 C 0.54476 0.55902 0.34132 0.0
C535 C 0.54698 0.57369 0.35065 0.0
C536 C 0.56078 0.58389 0.34932 0.0
C537 C 0.57258 0.57945 0.33874 0.0
C538 C 0.56992 0.56512 0.32888 0.0
C539 C 0.55604 0.55507 0.33004 0.0
C540 C 0.50941 0.54944 0.33482 0.0
C541 C 0.49606 0.53837 0.33494 0.0
C542 C 0.48091 0.54223 0.3287 0.0
C543 C 0.47873 0.5574 0.32245 0.0
C544 C 0.49224 0.56838 0.32207 0.0
C545 C 0.50745 0.56444 0.32826 0.0
C546 C 0.53388 0.52489 0.33868 0.0
C547 C 0.54502 0.51735 0.34855 0.0
C548 C 0.55077 0.50256 0.34344 0.0
C549 C 0.54547 0.49498 0.32831 0.0
C550 C 0.53424 0.50261 0.31846 0.0
C551 C 0.52863 0.51752 0.32354 0.0
P552 P 0.00928 0.09456 0.6555 0.0
H553 H 0.021 0.06531 0.64056 0.0
H554 H 0.04532 0.05066 0.64567 0.0
H555 H 0.06034 0.08488 0.68562 0.0
H556 H 0.03606 0.09949 0.68037 0.0
H557 H 0.97514 0.09437 0.64571 0.0
H558 H 0.95096 0.08177 0.6562 0.0
H559 H 0.98063 0.06046 0.69275 0.0
H560 H 0.00477 0.07349 0.68239 0.0
H561 H 0.03084 0.12142 0.64776 0.0
H562 H 0.99416 0.11288 0.68149 0.0
O563 O 0.00645 0.09492 0.63547 0.0
H564 H 0.03505 0.14945 0.65858 0.0
H565 H 0.99789 0.14093 0.69199 0.0
C566 C 0.02694 0.08366 0.65984 0.0
C567 C 0.02956 0.06964 0.6504 0.0
C568 C 0.04339 0.06123 0.65341 0.0
C569 C 0.05482 0.06669 0.66597 0.0
C570 C 0.05191 0.08054 0.67568 0.0
C571 C 0.03802 0.0889 0.6727 0.0
C572 C 0.99173 0.08454 0.66302 0.0
C573 C 0.97644 0.08686 0.65589 0.0
C574 C 0.96263 0.07961 0.66188 0.0
C575 C 0.96386 0.06994 0.67521 0.0
C576 C 0.97925 0.06787 0.68251 0.0
C577 C 0.99307 0.07518 0.6765 0.0
C578 C 0.0121 0.11513 0.66369 0.0
C579 C 0.02362 0.12563 0.65742 0.0
C580 C 0.02594 0.14167 0.66356 0.0
C581 C 0.01674 0.14749 0.67611 0.0
C582 C 0.00531 0.13682 0.68246 0.0
C583 C 0.00306 0.12077 0.67635 0.0
P584 P 0.45669 0.91953 0.20793 0.0
H585 H 0.44396 0.94896 0.19571 0.0
H586 H 0.42471 0.96759 0.20617 0.0
H587 H 0.42109 0.94019 0.24861 0.0
H588 H 0.44035 0.92164 0.23809 0.0
H589 H 0.48558 0.93653 0.19733 0.0
H590 H 0.51202 0.94433 0.21075 0.0
H591 H 0.4973 0.922 0.25372 0.0
H592 H 0.47089 0.91402 0.24006 0.0
H593 H 0.42412 0.9045 0.2086 0.0
H594 H 0.47295 0.88958 0.2131 0.0
O595 O 0.45739 0.92116 0.18805 0.0
H596 H 0.41381 0.87704 0.21247 0.0
H597 H 0.46271 0.86185 0.21644 0.0
C598 C 0.44325 0.93373 0.21596 0.0
C599 C 0.43904 0.94698 0.20727 0.0
C600 C 0.42813 0.95767 0.2133 0.0
C601 C 0.42128 0.95523 0.22812 0.0
C602 C 0.42596 0.94221 0.23703 0.0
C603 C 0.43698 0.93164 0.23106 0.0
C604 C 0.47642 0.92443 0.21761 0.0
C605 C 0.4881 0.93316 0.20957 0.0
C606 C 0.50316 0.93774 0.21732 0.0
C607 C 0.50678 0.93377 0.23331 0.0
C608 C 0.49498 0.92503 0.24133 0.0
C609 C 0.47988 0.9205 0.23356 0.0
C610 C 0.44932 0.89921 0.21112 0.0
C611 C 0.43265 0.89533 0.21057 0.0
C612 C 0.42675 0.87954 0.21259 0.0
C613 C 0.43742 0.86721 0.21486 0.0
C614 C 0.45416 0.8711 0.21507 0.0
C615 C 0.46004 0.88695 0.21312 0.0
P616 P 0.98278 0.44795 0.75978 0.0
H617 H 0.96289 0.42044 0.7698 0.0
H618 H 0.93698 0.40746 0.75898 0.0
H619 H 0.93607 0.4402 0.72043 0.0
H620 H 0.96208 0.45299 0.73118 0.0
H621 H 0.00287 0.42065 0.76306 0.0
H622 H 0.024 0.40994 0.74693 0.0
H623 H 0.0179 0.4477 0.71386 0.0
H624 H 0.99651 0.4582 0.72992 0.0
H625 H 0.95584 0.46893 0.76219 0.0
H626 H 0.00739 0.47466 0.7585 0.0
O627 O 0.98611 0.44332 0.77892 0.0
H628 H 0.95398 0.49803 0.76172 0.0
H629 H 0.0057 0.50398 0.75847 0.0
C630 C 0.96413 0.43793 0.75152 0.0
C631 C 0.95712 0.4248 0.75902 0.0
C632 C 0.94238 0.41734 0.75278 0.0
C633 C 0.93446 0.42297 0.73899 0.0
C634 C 0.94181 0.43581 0.73123 0.0
C635 C 0.95664 0.4431 0.73734 0.0
C636 C 0.99856 0.44054 0.74799 0.0
C637 C 0.00614 0.42668 0.75239 0.0
C638 C 0.01809 0.42048 0.74309 0.0
C639 C 0.02264 0.42807 0.72921 0.0
C640 C 0.01476 0.44177 0.72463 0.0
C641 C 0.00262 0.44781 0.73383 0.0
C642 C 0.98166 0.46955 0.75967 0.0
C643 C 0.96677 0.47644 0.76113 0.0
C644 C 0.96575 0.49315 0.76107 0.0
C645 C 0.97968 0.50336 0.75991 0.0
C646 C 0.99469 0.49644 0.759 0.0
C647 C 0.99568 0.47968 0.75903 0.0
P648 P 0.70544 0.45204 0.43364 0.0
H649 H 0.71303 0.42159 0.41745 0.0
H650 H 0.69677 0.39669 0.40965 0.0
H651 H 0.6541 0.41937 0.42466 0.0
H652 H 0.67057 0.44431 0.43255 0.0
H653 H 0.70305 0.48272 0.45268 0.0
H654 H 0.69402 0.50897 0.44516 0.0
H655 H 0.68007 0.48864 0.39702 0.0
H656 H 0.68904 0.46243 0.40462 0.0
H657 H 0.73323 0.44254 0.45319 0.0
H658 H 0.68417 0.45414 0.46048 0.0
O659 O 0.72317 0.45228 0.42514 0.0
H660 H 0.73627 0.43436 0.48087 0.0
H661 H 0.68697 0.44559 0.48817 0.0
C662 C 0.69296 0.43485 0.42532 0.0
C663 C 0.70012 0.42134 0.4187 0.0
C664 C 0.69078 0.40712 0.4142 0.0
C665 C 0.67412 0.40608 0.41648 0.0
C666 C 0.66691 0.41979 0.42282 0.0
C667 C 0.67628 0.43406 0.42723 0.0
C668 C 0.6964 0.47057 0.42929 0.0
C669 C 0.69766 0.4838 0.44064 0.0
C670 C 0.69251 0.4988 0.43634 0.0
C671 C 0.68636 0.50083 0.4205 0.0
C672 C 0.68483 0.48743 0.40928 0.0
C673 C 0.68984 0.47244 0.41364 0.0
C674 C 0.70854 0.44913 0.45485 0.0
C675 C 0.72319 0.44362 0.46084 0.0
C676 C 0.72486 0.43878 0.47664 0.0
C677 C 0.71181 0.43918 0.48669 0.0
C678 C 0.6973 0.44528 0.48081 0.0
C679 C 0.69567 0.45015 0.46498 0.0
P680 P 0.71964 0.54139 0.07216 0.0
H681 H 0.70109 0.56655 0.05828 0.0
H682 H 0.70857 0.58964 0.04276 0.0
H683 H 0.75761 0.57511 0.04283 0.0
H684 H 0.74993 0.55157 0.05793 0.0
H685 H 0.72482 0.51192 0.08871 0.0
H686 H 0.72934 0.48446 0.0787 0.0
H687 H 0.7345 0.50123 0.03083 0.0
H688 H 0.72915 0.52841 0.04077 0.0
H689 H 0.70566 0.53671 0.10317 0.0
H690 H 0.74921 0.55924 0.08653 0.0
O691 O 0.69954 0.53878 0.07141 0.0
H692 H 0.7135 0.54738 0.13068 0.0
H693 H 0.75672 0.57058 0.11366 0.0
C694 C 0.72494 0.5573 0.0592 0.0
C695 C 0.71338 0.5681 0.0547 0.0
C696 C 0.71765 0.58129 0.04582 0.0
C697 C 0.73365 0.58409 0.04162 0.0
C698 C 0.7452 0.57318 0.04597 0.0
C699 C 0.74083 0.55978 0.05457 0.0
C700 C 0.72699 0.52231 0.06559 0.0
C701 C 0.72734 0.50975 0.07615 0.0
C702 C 0.72996 0.49402 0.07039 0.0
C703 C 0.73222 0.49056 0.05391 0.0
C704 C 0.73257 0.50338 0.04353 0.0
C705 C 0.72975 0.51903 0.04927 0.0
C706 C 0.72659 0.54755 0.09267 0.0
C707 C 0.7169 0.54396 0.10541 0.0
C708 C 0.72137 0.55016 0.12114 0.0
C709 C 0.73561 0.56013 0.1244 0.0
C710 C 0.74571 0.56292 0.11169 0.0
C711 C 0.7413 0.55656 0.09602 0.0
P712 P 0.31201 0.01346 0.54703 0.0
H713 H 0.33197 0.04015 0.56343 0.0
H714 H 0.32529 0.06497 0.57791 0.0
H715 H 0.2749 0.04834 0.57452 0.0
H716 H 0.28175 0.02334 0.55997 0.0
H717 H 0.29848 0.98541 0.52677 0.0
H718 H 0.29027 0.95796 0.53278 0.0
H719 H 0.29978 0.9705 0.58376 0.0
H720 H 0.30778 0.99833 0.57763 0.0
H721 H 0.32881 0.02593 0.5199 0.0
H722 H 0.27979 0.01294 0.53075 0.0
O723 O 0.33198 0.01201 0.54756 0.0
H724 H 0.31935 0.03318 0.49303 0.0
H725 H 0.27019 0.02038 0.50394 0.0
C726 C 0.30738 0.02983 0.56077 0.0
C727 C 0.31954 0.0416 0.56618 0.0
C728 C 0.3157 0.05582 0.5745 0.0
C729 C 0.29956 0.05864 0.57736 0.0
C730 C 0.28743 0.04655 0.5724 0.0
C731 C 0.29133 0.03224 0.56418 0.0
C732 C 0.30326 0.9941 0.55179 0.0
C733 C 0.29828 0.98251 0.53929 0.0
C734 C 0.29361 0.96674 0.54274 0.0
C735 C 0.29425 0.9621 0.55875 0.0
C736 C 0.29913 0.97376 0.57131 0.0
C737 C 0.30359 0.98966 0.56783 0.0
C738 C 0.30502 0.01862 0.52718 0.0
C739 C 0.31601 0.0246 0.51648 0.0
C740 C 0.31057 0.02886 0.50117 0.0
C741 C 0.29402 0.0273 0.49634 0.0
C742 C 0.28303 0.02151 0.50722 0.0
C743 C 0.28849 0.01731 0.52256 0.0
P744 P 0.27476 0.00654 0.95217 0.0
H745 H 0.2615 0.97879 0.96804 0.0
H746 H 0.27382 0.95566 0.97942 0.0
H747 H 0.32106 0.97606 0.96986 0.0
H748 H 0.30861 0.99941 0.95867 0.0
H749 H 0.28671 0.03242 0.93224 0.0
H750 H 0.29765 0.0599 0.93904 0.0
H751 H 0.2947 0.05221 0.98977 0.0
H752 H 0.28407 0.0243 0.98289 0.0
H753 H 0.24838 0.99894 0.9274 0.0
H754 H 0.30048 0.00215 0.92999 0.0
O755 O 0.25583 0.00755 0.9577 0.0
H756 H 0.24802 0.99285 0.89825 0.0
H757 H 0.30019 0.99598 0.90082 0.0
C758 C 0.28416 0.99089 0.96267 0.0
C759 C 0.27453 0.97849 0.96871 0.0
C760 C 0.28159 0.96527 0.97523 0.0
C761 C 0.2984 0.96407 0.97555 0.0
C762 C 0.30806 0.97665 0.9697 0.0
C763 C 0.30098 0.99 0.96336 0.0
C764 C 0.28488 0.02612 0.95708 0.0
C765 C 0.28884 0.03635 0.94485 0.0
C766 C 0.29508 0.05214 0.94874 0.0
C767 C 0.2971 0.05815 0.96493 0.0
C768 C 0.29327 0.04786 0.97719 0.0
C769 C 0.28728 0.03193 0.97328 0.0
C770 C 0.27446 0.00109 0.93085 0.0
C771 C 0.25975 0.99822 0.92174 0.0
C772 C 0.25955 0.99465 0.90508 0.0
C773 C 0.27408 0.99399 0.89726 0.0
C774 C 0.28881 0.99657 0.9065 0.0
C775 C 0.28899 0.99999 0.92318 0.0
P776 P 0.44612 0.71135 0.45712 0.0
H777 H 0.41852 0.6873 0.45328 0.0
H778 H 0.40773 0.66926 0.43032 0.0
H779 H 0.44667 0.68653 0.40223 0.0
H780 H 0.45747 0.70406 0.42512 0.0
H781 H 0.43342 0.72808 0.48497 0.0
H782 H 0.42582 0.71944 0.51108 0.0
H783 H 0.44188 0.67183 0.49906 0.0
H784 H 0.44872 0.68047 0.47248 0.0
H785 H 0.46524 0.7395 0.44762 0.0
H786 H 0.47392 0.69177 0.46271 0.0
O787 O 0.43669 0.72819 0.4539 0.0
H788 H 0.49329 0.74315 0.44069 0.0
H789 H 0.50204 0.69532 0.4557 0.0
C790 C 0.43906 0.69669 0.4411 0.0
C791 C 0.42492 0.68688 0.44229 0.0
C792 C 0.41869 0.67668 0.42911 0.0
C793 C 0.42642 0.6763 0.41446 0.0
C794 C 0.44064 0.68614 0.41342 0.0
C795 C 0.44682 0.69626 0.42656 0.0
C796 C 0.4415 0.70488 0.47673 0.0
C797 C 0.43529 0.71577 0.48791 0.0
C798 C 0.43109 0.71083 0.50296 0.0
C799 C 0.43325 0.69491 0.50727 0.0
C800 C 0.43983 0.68411 0.4961 0.0
C801 C 0.4439 0.68906 0.48095 0.0
C802 C 0.46751 0.71542 0.45584 0.0
C803 C 0.47327 0.72995 0.44984 0.0
C804 C 0.48928 0.73197 0.44574 0.0
C805 C 0.49983 0.71947 0.44752 0.0
C806 C 0.49425 0.70523 0.45434 0.0
C807 C 0.47817 0.7032 0.45838 0.0
P808 P 0.94241 0.27169 0.98592 0.0
H809 H 0.97423 0.28865 0.98479 0.0
H810 H 0.98714 0.30297 0.96363 0.0
H811 H 0.94356 0.29404 0.93259 0.0
H812 H 0.9306 0.28042 0.95402 0.0
H813 H 0.94795 0.25355 0.0144 0.0
H814 H 0.95664 0.26152 0.04242 0.0
H815 H 0.96003 0.31159 0.03074 0.0
H816 H 0.9514 0.30346 0.00257 0.0
H817 H 0.91637 0.24733 0.97575 0.0
H818 H 0.92093 0.29757 0.9926 0.0
O819 O 0.94741 0.25276 0.98193 0.0
H820 H 0.88701 0.24814 0.97407 0.0
H821 H 0.89148 0.29853 0.99079 0.0
C822 C 0.95129 0.28391 0.97118 0.0
C823 C 0.96733 0.29018 0.97359 0.0
C824 C 0.97476 0.29818 0.96137 0.0
C825 C 0.9664 0.29972 0.94636 0.0
C826 C 0.95028 0.29344 0.94408 0.0
C827 C 0.94284 0.28558 0.95634 0.0
C828 C 0.94946 0.27787 0.00634 0.0
C829 C 0.95071 0.26623 0.01782 0.0
C830 C 0.95552 0.27082 0.03388 0.0
C831 C 0.95905 0.28719 0.03879 0.0
C832 C 0.95761 0.29887 0.02727 0.0
C833 C 0.95269 0.29425 0.01118 0.0
C834 C 0.92079 0.27235 0.98446 0.0
C835 C 0.91105 0.25855 0.97907 0.0
C836 C 0.89426 0.25906 0.978 0.0
C837 C 0.88692 0.2734 0.98231 0.0
C838 C 0.89677 0.28726 0.98758 0.0
C839 C 0.91358 0.28674 0.98859 0.0
P840 P 0.0839 0.72276 0.53886 0.0
H841 H 0.05523 0.70569 0.54997 0.0
H842 H 0.03722 0.71239 0.5713 0.0
H843 H 0.06137 0.75995 0.57869 0.0
H844 H 0.07937 0.75313 0.55735 0.0
H845 H 0.09235 0.70847 0.50801 0.0
H846 H 0.0843 0.71329 0.48008 0.0
H847 H 0.05613 0.75243 0.4967 0.0
H848 H 0.06409 0.74733 0.52471 0.0
H849 H 0.10022 0.72489 0.57072 0.0
H850 H 0.11028 0.74048 0.52347 0.0
O851 O 0.08512 0.7028 0.53928 0.0
H852 H 0.1265 0.73668 0.5815 0.0
H853 H 0.13669 0.7523 0.53422 0.0
C854 C 0.06888 0.72876 0.55241 0.0
C855 C 0.0565 0.71763 0.55602 0.0
C856 C 0.04614 0.72152 0.56815 0.0
C857 C 0.04803 0.73663 0.57682 0.0
C858 C 0.05981 0.74812 0.57241 0.0
C859 C 0.07008 0.74424 0.56021 0.0
C860 C 0.07856 0.72732 0.5184 0.0
C861 C 0.08446 0.7181 0.50564 0.0
C862 C 0.07995 0.72097 0.48966 0.0
C863 C 0.0695 0.73321 0.48614 0.0
C864 C 0.06399 0.74276 0.49901 0.0
C865 C 0.06856 0.73989 0.51502 0.0
C866 C 0.10321 0.73198 0.54636 0.0
C867 C 0.10805 0.73098 0.56269 0.0
C868 C 0.12304 0.73778 0.56886 0.0
C869 C 0.13361 0.74553 0.55873 0.0
C870 C 0.12881 0.74637 0.54229 0.0
C871 C 0.11369 0.73966 0.53616 0.0
P872 P 0.52132 0.29568 0.02311 0.0
H873 H 0.54537 0.31589 0.0431 0.0
H874 H 0.5611 0.31149 0.06803 0.0
H875 H 0.54159 0.262 0.06595 0.0
H876 H 0.52582 0.26652 0.04095 0.0
H877 H 0.52578 0.31393 0.99455 0.0
H878 H 0.53854 0.30802 0.96937 0.0
H879 H 0.55107 0.2617 0.98593 0.0
H880 H 0.53844 0.26787 0.01134 0.0
H881 H 0.50022 0.28708 0.04859 0.0
H882 H 0.49974 0.28028 0.99667 0.0
O883 O 0.51751 0.31521 0.02445 0.0
H884 H 0.47324 0.27363 0.04809 0.0
H885 H 0.47273 0.26687 0.99611 0.0
C886 C 0.53411 0.29167 0.04046 0.0
C887 C 0.54455 0.30406 0.04795 0.0
C888 C 0.55364 0.30149 0.06214 0.0
C889 C 0.55247 0.28643 0.06904 0.0
C890 C 0.54254 0.2738 0.06106 0.0
C891 C 0.53354 0.27636 0.04678 0.0
C892 C 0.53141 0.29145 0.0049 0.0
C893 C 0.53139 0.30256 0.99285 0.0
C894 C 0.53856 0.29909 0.97837 0.0
C895 C 0.54579 0.28437 0.97562 0.0
C896 C 0.54578 0.27323 0.98776 0.0
C897 C 0.53856 0.27672 0.00227 0.0
C898 C 0.50219 0.2843 0.02272 0.0
C899 C 0.49446 0.28239 0.03712 0.0
C900 C 0.47904 0.2747 0.03682 0.0
C901 C 0.47092 0.2691 0.02207 0.0
C902 C 0.47869 0.27107 0.00765 0.0
C903 C 0.49418 0.27864 0.00798 0.0
P904 P 0.4618 0.45581 0.71296 0.0
H905 H 0.43822 0.43281 0.7255 0.0
H906 H 0.4122 0.42072 0.7144 0.0
H907 H 0.41836 0.44525 0.67042 0.0
H908 H 0.44472 0.45658 0.68134 0.0
H909 H 0.49227 0.47276 0.70545 0.0
H910 H 0.51655 0.46304 0.69364 0.0
H911 H 0.4928 0.41542 0.68522 0.0
H912 H 0.46861 0.42518 0.69691 0.0
H913 H 0.45272 0.4782 0.73859 0.0
H914 H 0.4635 0.48007 0.68856 0.0
O915 O 0.46524 0.45028 0.73179 0.0
H916 H 0.44468 0.50595 0.73882 0.0
H917 H 0.45538 0.508 0.68866 0.0
C918 C 0.4433 0.44575 0.7043 0.0
C919 C 0.43406 0.43543 0.7134 0.0
C920 C 0.4191 0.42861 0.70706 0.0
C921 C 0.41304 0.43214 0.69156 0.0
C922 C 0.42266 0.44211 0.68231 0.0
C923 C 0.43768 0.44877 0.68861 0.0
C924 C 0.47851 0.44978 0.7017 0.0
C925 C 0.49213 0.46035 0.70064 0.0
C926 C 0.506 0.45479 0.69392 0.0
C927 C 0.50654 0.43847 0.68853 0.0
C928 C 0.49274 0.42803 0.68934 0.0
C929 C 0.47887 0.43363 0.6959 0.0
C930 C 0.45893 0.47715 0.71363 0.0
C931 C 0.45374 0.48473 0.72775 0.0
C932 C 0.44915 0.50063 0.72786 0.0
C933 C 0.44942 0.5092 0.71376 0.0
C934 C 0.45496 0.50168 0.69969 0.0
C935 C 0.45969 0.48577 0.69964 0.0
P936 P 0.98023 0.94133 0.27179 0.0
H937 H 0.96399 0.97136 0.27192 0.0
H938 H 0.94226 0.98166 0.28739 0.0
H939 H 0.94242 0.93935 0.31538 0.0
H940 H 0.96398 0.92901 0.2996 0.0
H941 H 0.00814 0.94909 0.25352 0.0
H942 H 0.035 0.96162 0.26119 0.0
H943 H 0.02298 0.9653 0.31114 0.0
H944 H 0.99604 0.95262 0.30334 0.0
H945 H 0.96 0.9161 0.25363 0.0
H946 H 0.99886 0.91895 0.29058 0.0
O947 O 0.97559 0.94616 0.25292 0.0
H948 H 0.95903 0.88663 0.25325 0.0
H949 H 0.99812 0.88941 0.29012 0.0
C950 C 0.96531 0.94929 0.28438 0.0
C951 C 0.95938 0.96435 0.28144 0.0
C952 C 0.94705 0.97028 0.2904 0.0
C953 C 0.94051 0.96127 0.30256 0.0
C954 C 0.94699 0.94644 0.30591 0.0
C955 C 0.95935 0.94054 0.29692 0.0
C956 C 2e-05 0.95028 0.27781 0.0
C957 C 0.01125 0.95267 0.26611 0.0
C958 C 0.02658 0.95986 0.27051 0.0
C959 C 0.03103 0.96463 0.28674 0.0
C960 C 0.01989 0.96175 0.29854 0.0
C961 C 0.00448 0.95461 0.29409 0.0
C962 C 0.97975 0.91967 0.27184 0.0
C963 C 0.96842 0.91036 0.26157 0.0
C964 C 0.9679 0.89352 0.26134 0.0
C965 C 0.97863 0.88568 0.27153 0.0
C966 C 0.98968 0.89509 0.28217 0.0
C967 C 0.99021 0.91197 0.28234 0.0
P968 P 0.53705 0.07613 0.71559 0.0
H969 H 0.54452 0.0438 0.70376 0.0
H970 H 0.56664 0.02674 0.71065 0.0
H971 H 0.58404 0.06172 0.7492 0.0
H972 H 0.56165 0.07834 0.74259 0.0
H973 H 0.50475 0.08314 0.7041 0.0
H974 H 0.47799 0.07519 0.71258 0.0
H975 H 0.49983 0.05219 0.75309 0.0
H976 H 0.52664 0.05989 0.7442 0.0
H977 H 0.56057 0.0967 0.7009 0.0
H978 H 0.53159 0.09985 0.74225 0.0
O979 O 0.53487 0.07377 0.69548 0.0
H980 H 0.57376 0.12316 0.70897 0.0
H981 H 0.54494 0.1264 0.75058 0.0
C982 C 0.55173 0.06251 0.72237 0.0
C983 C 0.55299 0.04765 0.71384 0.0
C984 C 0.56568 0.03796 0.71775 0.0
C985 C 0.5773 0.04299 0.7303 0.0
C986 C 0.57531 0.05742 0.73951 0.0
C987 C 0.56257 0.06705 0.73562 0.0
C988 C 0.51761 0.07181 0.72333 0.0
C989 C 0.50376 0.07648 0.71487 0.0
C990 C 0.48846 0.07203 0.71983 0.0
C991 C 0.48672 0.06294 0.73348 0.0
C992 C 0.50073 0.05893 0.74237 0.0
C993 C 0.51606 0.06338 0.73734 0.0
C994 C 0.54491 0.09649 0.7208 0.0
C995 C 0.55689 0.10323 0.71161 0.0
C996 C 0.56455 0.11827 0.71634 0.0
C997 C 0.56047 0.12683 0.73048 0.0
C998 C 0.54823 0.12016 0.73956 0.0
C999 C 0.54058 0.10502 0.7348 0.0
P1000 P 0.02257 0.52945 0.30883 0.0
H1001 H 0.03901 0.55973 0.32182 0.0
H1002 H 0.06495 0.57333 0.31676 0.0
H1003 H 0.07166 0.53682 0.27892 0.0
H1004 H 0.04555 0.52357 0.28378 0.0
H1005 H 0.98891 0.52049 0.31251 0.0
H1006 H 0.96382 0.53173 0.30307 0.0
H1007 H 0.99106 0.56596 0.27635 0.0
H1008 H 0.01617 0.55482 0.28617 0.0
H1009 H 0.03762 0.50376 0.32529 0.0
H1010 H 0.01086 0.5089 0.28004 0.0
O1011 O 0.02175 0.5316 0.32886 0.0
H1012 H 0.04041 0.47525 0.31784 0.0
H1013 H 0.01339 0.48021 0.27254 0.0
C1014 C 0.04057 0.54044 0.30346 0.0
C1015 C 0.04601 0.55476 0.31233 0.0
C1016 C 0.06086 0.56248 0.30946 0.0
C1017 C 0.07051 0.55602 0.29761 0.0
C1018 C 0.06453 0.54216 0.2881 0.0
C1019 C 0.04964 0.53447 0.29097 0.0
C1020 C 0.00435 0.53688 0.30012 0.0
C1021 C 0.98945 0.53032 0.30449 0.0
C1022 C 0.97511 0.5367 0.29898 0.0
C1023 C 0.97542 0.54978 0.28896 0.0
C1024 C 0.99042 0.55603 0.28422 0.0
C1025 C 0.00478 0.54962 0.28977 0.0
C1026 C 0.02371 0.5083 0.30339 0.0
C1027 C 0.03213 0.49867 0.31384 0.0
C1028 C 0.03369 0.48236 0.30957 0.0
C1029 C 0.02697 0.47542 0.29467 0.0
C1030 C 0.01872 0.48521 0.28409 0.0
C1031 C 0.01714 0.50155 0.28842 0.0
C1032 C 0.2152 0.57489 0.29715 0.0
C1033 C 0.22294 0.59019 0.30121 0.0
C1034 C 0.19848 0.57318 0.29395 0.0
C1035 C 0.16331 0.57292 0.28194 0.0
H1036 H 0.13822 0.59762 0.31137 0.0
C1037 C 0.09365 0.56403 0.28081 0.0
C1038 C 0.08721 0.56294 0.29603 0.0
C1039 C 0.10978 0.56941 0.27958 0.0
C1040 C 0.14504 0.59062 0.30305 0.0
H1041 H 0.2193 0.6158 0.30431 0.0
H1042 H 0.19014 0.61286 0.29847 0.0
H1043 H 0.16738 0.60274 0.31215 0.0
H1044 H 0.09272 0.56668 0.32187 0.0
H1045 H 0.1207 0.57598 0.31974 0.0
H1046 H 0.14102 0.56022 0.27344 0.0
C1047 C 0.19695 0.60213 0.29808 0.0
C1048 C 0.16176 0.5937 0.30335 0.0
C1049 C 0.21368 0.60383 0.30134 0.0
C1050 C 0.09717 0.56767 0.30995 0.0
C1051 C 0.11326 0.57302 0.30872 0.0
C1052 C 0.14657 0.5698 0.28168 0.0
C1053 C 0.1891 0.58674 0.29468 0.0
C1054 C 0.17116 0.58466 0.29303 0.0
C1055 C 0.11982 0.5738 0.29354 0.0
C1056 C 0.13729 0.57838 0.29248 0.0
H1057 H 0.22198 0.56412 0.29696 0.0
H1058 H 0.19284 0.56112 0.29158 0.0
H1059 H 0.17015 0.5659 0.27366 0.0
H1060 H 0.08624 0.56065 0.26985 0.0
H1061 H 0.11441 0.57006 0.26769 0.0
C1062 C 0.27223 0.42613 0.65123 0.0
C1063 C 0.26229 0.41231 0.65359 0.0
C1064 C 0.28901 0.42547 0.65193 0.0
C1065 C 0.32028 0.40258 0.67133 0.0
H1066 H 0.34902 0.42942 0.64748 0.0
C1067 C 0.3838 0.42579 0.69603 0.0
C1068 C 0.39642 0.42626 0.68545 0.0
C1069 C 0.36798 0.42134 0.69024 0.0
C1070 C 0.34118 0.42166 0.65409 0.0
H1071 H 0.26212 0.38664 0.65726 0.0
H1072 H 0.2914 0.38549 0.65845 0.0
H1073 H 0.32026 0.42669 0.63948 0.0
H1074 H 0.40228 0.42182 0.66051 0.0
H1075 H 0.37449 0.41438 0.65037 0.0
H1076 H 0.34117 0.398 0.68629 0.0
C1077 C 0.28623 0.39691 0.65632 0.0
C1078 C 0.32468 0.42018 0.64957 0.0
C1079 C 0.26944 0.39756 0.65556 0.0
C1080 C 0.39283 0.42185 0.66896 0.0
C1081 C 0.37694 0.41753 0.66315 0.0
C1082 C 0.33675 0.40415 0.67592 0.0
C1083 C 0.29622 0.41095 0.65499 0.0
C1084 C 0.31398 0.41088 0.65833 0.0
C1085 C 0.36435 0.41736 0.67372 0.0
C1086 C 0.34731 0.414 0.66757 0.0
H1087 H 0.2671 0.43767 0.64958 0.0
H1088 H 0.29633 0.43655 0.65097 0.0
H1089 H 0.31239 0.39547 0.67849 0.0
H1090 H 0.386 0.42942 0.70873 0.0
H1091 H 0.35849 0.42159 0.69864 0.0
C1092 C 0.71094 0.98703 0.73326 0.0
C1093 C 0.72202 0.00035 0.73232 0.0
C1094 C 0.69481 0.98935 0.7362 0.0
C1095 C 0.66027 0.99846 0.72951 0.0
H1096 H 0.64746 0.03401 0.7573 0.0
C1097 C 0.60013 0.02811 0.71944 0.0
C1098 C 0.59219 0.03411 0.73282 0.0
C1099 C 0.61507 0.02143 0.72154 0.0
C1100 C 0.65078 0.02385 0.74968 0.0
H1101 H 0.72499 0.02652 0.7344 0.0
H1102 H 0.69689 0.03056 0.73935 0.0
H1103 H 0.67567 0.02731 0.75802 0.0
H1104 H 0.59342 0.03697 0.75899 0.0
H1105 H 0.61964 0.02534 0.76266 0.0
H1106 H 0.63542 0.99514 0.72102 0.0
C1107 C 0.70066 0.01831 0.73799 0.0
C1108 C 0.66698 0.02014 0.74996 0.0
C1109 C 0.71677 0.016 0.73504 0.0
C1110 C 0.59932 0.03269 0.74842 0.0
C1111 C 0.61433 0.02602 0.75052 0.0
C1112 C 0.64407 0.00218 0.72923 0.0
C1113 C 0.68941 0.00503 0.7383 0.0
C1114 C 0.67198 0.00765 0.73959 0.0
C1115 C 0.6225 0.02058 0.73708 0.0
C1116 C 0.63921 0.01518 0.73901 0.0
H1117 H 0.71462 0.97481 0.7313 0.0
H1118 H 0.68649 0.97886 0.73658 0.0
H1119 H 0.6637 0.98884 0.72129 0.0
H1120 H 0.59518 0.02927 0.70724 0.0
H1121 H 0.62115 0.01761 0.71091 0.0
C1122 C 0.80715 0.9912 0.34356 0.0
C1123 C 0.80361 0.00755 0.34485 0.0
C1124 C 0.82299 0.98686 0.3418 0.0
C1125 C 0.86146 0.00284 0.32739 0.0
H1126 H 0.87833 0.96504 0.34603 0.0
C1127 C 0.92533 0.98343 0.31547 0.0
C1128 C 0.92641 0.96694 0.31104 0.0
C1129 C 0.91137 0.98893 0.32201 0.0
C1130 C 0.87376 0.97559 0.3407 0.0
H1131 H 0.81402 0.03218 0.34596 0.0
H1132 H 0.84168 0.02461 0.34311 0.0
H1133 H 0.85198 0.97378 0.35325 0.0
H1134 H 0.9138 0.94328 0.31038 0.0
H1135 H 0.88951 0.95288 0.32182 0.0
H1136 H 0.88306 0.00451 0.31463 0.0
C1137 C 0.83217 0.01513 0.34316 0.0
C1138 C 0.85866 0.9806 0.34482 0.0
C1139 C 0.81633 0.01947 0.34489 0.0
C1140 C 0.91346 0.95602 0.31386 0.0
C1141 C 0.89952 0.96153 0.32042 0.0
C1142 C 0.87654 0.99787 0.32331 0.0
C1143 C 0.83566 0.99878 0.34133 0.0
C1144 C 0.85223 0.99415 0.33803 0.0
C1145 C 0.8982 0.97808 0.32429 0.0
C1146 C 0.88278 0.98406 0.32974 0.0
H1147 H 0.79764 0.98171 0.34348 0.0
H1148 H 0.8252 0.97416 0.34023 0.0
H1149 H 0.85678 0.01317 0.32173 0.0
H1150 H 0.9352 0.99211 0.31371 0.0
H1151 H 0.91083 0.00173 0.32512 0.0
C1152 C 0.30332 0.20037 0.62219 0.0
C1153 C 0.29419 0.21035 0.6126 0.0
C1154 C 0.30128 0.18355 0.61987 0.0
C1155 C 0.28683 0.1518 0.58858 0.0
H1156 H 0.29191 0.12342 0.62376 0.0
C1157 C 0.28266 0.0827 0.57691 0.0
C1158 C 0.29542 0.07473 0.58414 0.0
C1159 C 0.28013 0.09871 0.58175 0.0
C1160 C 0.29049 0.13121 0.61382 0.0
H1161 H 0.27527 0.21048 0.59351 0.0
H1162 H 0.27148 0.18116 0.58968 0.0
H1163 H 0.2917 0.15257 0.62966 0.0
H1164 H 0.31492 0.07699 0.60277 0.0
H1165 H 0.31057 0.10498 0.61117 0.0
H1166 H 0.28581 0.1305 0.57273 0.0
C1167 C 0.28048 0.18631 0.59876 0.0
C1168 C 0.29041 0.14791 0.61718 0.0
C1169 C 0.28259 0.20314 0.60102 0.0
C1170 C 0.30508 0.08286 0.59687 0.0
C1171 C 0.3025 0.09885 0.60177 0.0
C1172 C 0.28682 0.13513 0.58523 0.0
C1173 C 0.29 0.1763 0.60796 0.0
C1174 C 0.28881 0.15844 0.60458 0.0
C1175 C 0.29026 0.10709 0.59399 0.0
C1176 C 0.28886 0.12465 0.59778 0.0
H1177 H 0.31239 0.20554 0.6312 0.0
H1178 H 0.30897 0.17626 0.62704 0.0
H1179 H 0.28586 0.15952 0.57854 0.0
H1180 H 0.27508 0.07683 0.56698 0.0
H1181 H 0.27048 0.10467 0.57565 0.0
C1182 C 0.33978 0.82732 0.99714 0.0
C1183 C 0.33465 0.82145 0.01165 0.0
C1184 C 0.33809 0.84347 0.9938 0.0
C1185 C 0.32982 0.88371 0.01292 0.0
H1186 H 0.31635 0.89255 0.969 0.0
C1187 C 0.3007 0.94232 0.99515 0.0
C1188 C 0.30559 0.94924 0.98104 0.0
C1189 C 0.30631 0.92753 0.99948 0.0
C1190 C 0.32032 0.89031 0.98128 0.0
H1191 H 0.32388 0.82795 0.03409 0.0
H1192 H 0.32048 0.85593 0.02809 0.0
H1193 H 0.32207 0.86513 0.97533 0.0
H1194 H 0.32042 0.94627 0.96057 0.0
H1195 H 0.33017 0.92035 0.96811 0.0
H1196 H 0.32743 0.90889 0.01888 0.0
C1197 C 0.32617 0.84822 0.01942 0.0
C1198 C 0.32365 0.87459 0.98492 0.0
C1199 C 0.32802 0.83212 0.02284 0.0
C1200 C 0.31655 0.94128 0.97158 0.0
C1201 C 0.32201 0.92639 0.97581 0.0
C1202 C 0.32631 0.89942 0.00929 0.0
C1203 C 0.33108 0.85409 0.0048 0.0
C1204 C 0.32833 0.87103 0.00082 0.0
C1205 C 0.31677 0.91926 0.98968 0.0
C1206 C 0.32143 0.90285 0.99345 0.0
H1207 H 0.34506 0.81943 0.98833 0.0
H1208 H 0.34229 0.84761 0.98256 0.0
H1209 H 0.33368 0.88151 0.02523 0.0
H1210 H 0.29233 0.94824 0.0027 0.0
H1211 H 0.30198 0.92227 0.01018 0.0
C1212 C 0.64937 0.26419 0.39541 0.0
C1213 C 0.64509 0.25556 0.40873 0.0
C1214 C 0.6473 0.28075 0.39525 0.0
C1215 C 0.64522 0.31585 0.42383 0.0
H1216 H 0.63843 0.33837 0.38462 0.0
C1217 C 0.65426 0.38481 0.42499 0.0
C1218 C 0.66472 0.39033 0.4135 0.0
C1219 C 0.6473 0.36903 0.42347 0.0
C1220 C 0.64029 0.33224 0.39567 0.0
H1221 H 0.63421 0.25728 0.43184 0.0
H1222 H 0.63016 0.2861 0.43136 0.0
H1223 H 0.6341 0.30899 0.38374 0.0
H1224 H 0.67513 0.38404 0.39082 0.0
H1225 H 0.66318 0.35644 0.38828 0.0
H1226 H 0.65189 0.33898 0.43566 0.0
C1227 C 0.63558 0.28017 0.42124 0.0
C1228 C 0.63784 0.31541 0.39518 0.0
C1229 C 0.63781 0.26363 0.42147 0.0
C1230 C 0.66728 0.38006 0.39997 0.0
C1231 C 0.66028 0.3643 0.39842 0.0
C1232 C 0.64759 0.33264 0.42433 0.0
C1233 C 0.6407 0.28903 0.40833 0.0
C1234 C 0.64073 0.30697 0.40917 0.0
C1235 C 0.65061 0.35846 0.41042 0.0
C1236 C 0.64558 0.34099 0.41018 0.0
H1237 H 0.655 0.25834 0.38539 0.0
H1238 H 0.65156 0.28717 0.38519 0.0
H1239 H 0.64782 0.30979 0.4348 0.0
H1240 H 0.65211 0.39239 0.43561 0.0
H1241 H 0.63975 0.36493 0.43281 0.0
C1242 C 0.73372 0.71074 0.97755 0.0
C1243 C 0.73864 0.72458 0.98751 0.0
C1244 C 0.73672 0.69537 0.98256 0.0
C1245 C 0.74559 0.67451 0.02012 0.0
H1246 H 0.74899 0.63778 0.98976 0.0
C1247 C 0.7508 0.60968 0.04052 0.0
C1248 C 0.73831 0.59893 0.03357 0.0
C1249 C 0.75387 0.62468 0.03412 0.0
C1250 C 0.74814 0.64797 0.99835 0.0
H1251 H 0.75143 0.73328 0.01008 0.0
H1252 H 0.75737 0.70652 0.01853 0.0
H1253 H 0.74961 0.66502 0.98009 0.0
H1254 H 0.71977 0.59496 0.01411 0.0
H1255 H 0.7254 0.62108 0.00265 0.0
H1256 H 0.74426 0.65736 0.03836 0.0
C1257 C 0.75063 0.70743 0.00711 0.0
C1258 C 0.74836 0.66357 0.99283 0.0
C1259 C 0.74734 0.7228 0.00223 0.0
C1260 C 0.72945 0.60308 0.01967 0.0
C1261 C 0.73272 0.61794 0.01309 0.0
C1262 C 0.74567 0.65896 0.02565 0.0
C1263 C 0.74499 0.69347 0.99754 0.0
C1264 C 0.7467 0.67704 0.00359 0.0
C1265 C 0.7447 0.62902 0.02049 0.0
C1266 C 0.74659 0.64553 0.01478 0.0
H1267 H 0.7269 0.71172 0.96617 0.0
H1268 H 0.73193 0.68499 0.97493 0.0
H1269 H 0.74397 0.68445 0.02877 0.0
H1270 H 0.7577 0.60678 0.05133 0.0
H1271 H 0.76317 0.63303 0.04001 0.0
C1272 C 0.59232 0.28719 0.21197 0.0
C1273 C 0.60726 0.29513 0.21719 0.0
C1274 C 0.58807 0.28423 0.19549 0.0
C1275 C 0.59654 0.29987 0.15626 0.0
H1276 H 0.57329 0.26027 0.13886 0.0
C1277 C 0.57665 0.29083 0.0887 0.0
C1278 C 0.56079 0.28434 0.08502 0.0
C1279 C 0.58385 0.29031 0.10428 0.0
C1280 C 0.57969 0.27144 0.14355 0.0
H1281 H 0.62967 0.30577 0.20919 0.0
H1282 H 0.62225 0.30057 0.18044 0.0
H1283 H 0.583 0.2628 0.16726 0.0
H1284 H 0.54018 0.27188 0.09469 0.0
H1285 H 0.55263 0.2711 0.12187 0.0
H1286 H 0.59289 0.30873 0.13277 0.0
C1287 C 0.61376 0.29678 0.1891 0.0
C1288 C 0.58526 0.27287 0.15981 0.0
C1289 C 0.61803 0.29969 0.20558 0.0
C1290 C 0.55249 0.27681 0.09709 0.0
C1291 C 0.55965 0.27636 0.11269 0.0
C1292 C 0.59092 0.29847 0.14004 0.0
C1293 C 0.59865 0.28919 0.18387 0.0
C1294 C 0.59361 0.28717 0.16638 0.0
C1295 C 0.57531 0.28337 0.11655 0.0
C1296 C 0.58228 0.2843 0.13351 0.0
H1297 H 0.58375 0.28352 0.2206 0.0
H1298 H 0.57628 0.27851 0.19185 0.0
H1299 H 0.60271 0.31114 0.16101 0.0
H1300 H 0.58343 0.29651 0.07958 0.0
H1301 H 0.59604 0.29555 0.10675 0.0
C1302 C 0.01182 0.3438 0.81799 0.0
C1303 C 0.02776 0.34066 0.8146 0.0
C1304 C 0.00622 0.34126 0.83325 0.0
C1305 C 0.01349 0.31683 0.86787 0.0
H1306 H 0.98649 0.34644 0.88994 0.0
C1307 C 0.99082 0.3039 0.93021 0.0
C1308 C 0.97466 0.30694 0.93281 0.0
C1309 C 0.99821 0.30958 0.91678 0.0
C1310 C 0.99389 0.33797 0.88387 0.0
H1311 H 0.05045 0.33278 0.8247 0.0
H1312 H 0.04062 0.32827 0.85129 0.0
H1313 H 0.99762 0.35351 0.86451 0.0
H1314 H 0.95388 0.319 0.92358 0.0
H1315 H 0.96656 0.32837 0.89986 0.0
H1316 H 0.00944 0.30104 0.88683 0.0
C1317 C 0.03245 0.33262 0.84211 0.0
C1318 C 0.00029 0.34205 0.86933 0.0
C1319 C 0.03808 0.33528 0.8269 0.0
C1320 C 0.96625 0.31621 0.92184 0.0
C1321 C 0.97361 0.32178 0.90833 0.0
C1322 C 0.007 0.31269 0.88231 0.0
C1323 C 0.0164 0.3354 0.84539 0.0
C1324 C 0.0101 0.33149 0.86115 0.0
C1325 C 0.98962 0.31833 0.9055 0.0
C1326 C 0.99706 0.32316 0.89048 0.0
H1327 H 0.00357 0.34798 0.80879 0.0
H1328 H 0.99376 0.34338 0.83539 0.0
H1329 H 0.0208 0.30832 0.86171 0.0
H1330 H 0.99765 0.29667 0.93828 0.0
H1331 H 0.01064 0.30693 0.91515 0.0
C1332 C 0.37232 0.64712 0.27695 0.0
C1333 C 0.38573 0.64662 0.26739 0.0
C1334 C 0.3742 0.64562 0.29361 0.0
C1335 C 0.40247 0.63412 0.32667 0.0
H1336 H 0.38409 0.66879 0.35137 0.0
C1337 C 0.42919 0.65932 0.38889 0.0
C1338 C 0.41922 0.66676 0.39984 0.0
C1339 C 0.42281 0.65276 0.37385 0.0
C1340 C 0.38901 0.65875 0.34481 0.0
H1341 H 0.41142 0.64313 0.26768 0.0
H1342 H 0.41469 0.64065 0.29673 0.0
H1343 H 0.37703 0.66461 0.32264 0.0
H1344 H 0.39447 0.67202 0.40401 0.0
H1345 H 0.38326 0.66006 0.37802 0.0
H1346 H 0.41475 0.6285 0.34882 0.0
C1347 C 0.40273 0.64215 0.29136 0.0
C1348 C 0.38497 0.65639 0.32827 0.0
C1349 C 0.40085 0.64364 0.2747 0.0
C1350 C 0.40251 0.66638 0.39589 0.0
C1351 C 0.39611 0.6597 0.38088 0.0
C1352 C 0.40641 0.63639 0.34328 0.0
C1353 C 0.3895 0.64356 0.30105 0.0
C1354 C 0.39201 0.64435 0.31893 0.0
C1355 C 0.40627 0.65335 0.36944 0.0
C1356 C 0.4001 0.64905 0.35246 0.0
H1357 H 0.36047 0.64926 0.27167 0.0
H1358 H 0.36374 0.64649 0.30075 0.0
H1359 H 0.4079 0.62458 0.31983 0.0
H1360 H 0.44206 0.65912 0.39168 0.0
H1361 H 0.43106 0.64807 0.36537 0.0
C1362 C 0.97583 0.72896 0.70088 0.0
C1363 C 0.98717 0.73077 0.71418 0.0
C1364 C 0.9804 0.73231 0.68543 0.0
C1365 C 0.01177 0.75328 0.6632 0.0
H1366 H 0.00079 0.71923 0.62981 0.0
C1367 C 0.04682 0.74642 0.60575 0.0
C1368 C 0.03879 0.73976 0.59134 0.0
C1369 C 0.03872 0.74769 0.61999 0.0
C1370 C 0.00369 0.72905 0.63884 0.0
H1371 H 0.01204 0.73817 0.7218 0.0
H1372 H 0.01997 0.74412 0.69485 0.0
H1373 H 0.98979 0.71736 0.6562 0.0
H1374 H 0.01574 0.72998 0.58035 0.0
H1375 H 0.00144 0.73248 0.60518 0.0
H1376 H 0.0258 0.76492 0.64592 0.0
C1377 C 0.00754 0.74011 0.69638 0.0
C1378 C 0.99741 0.72794 0.65401 0.0
C1379 C 0.00302 0.73661 0.7118 0.0
C1380 C 0.02229 0.73499 0.59133 0.0
C1381 C 0.01413 0.73638 0.60556 0.0
C1382 C 0.01795 0.75447 0.64798 0.0
C1383 C 0.99636 0.73772 0.68299 0.0
C1384 C 0.00165 0.73987 0.66644 0.0
C1385 C 0.02233 0.74242 0.62016 0.0
C1386 C 0.01427 0.74219 0.63571 0.0
H1387 H 0.96351 0.72451 0.70232 0.0
H1388 H 0.97149 0.73049 0.67534 0.0
H1389 H 0.01506 0.76276 0.67251 0.0
H1390 H 0.0596 0.74996 0.60622 0.0
H1391 H 0.04553 0.75214 0.631 0.0
C1392 C 0.79526 0.37938 0.69301 0.0
C1393 C 0.79267 0.36312 0.68731 0.0
C1394 C 0.81064 0.38555 0.69874 0.0
C1395 C 0.84946 0.37428 0.7161 0.0
H1396 H 0.86643 0.41396 0.69923 0.0
C1397 C 0.91544 0.39896 0.73089 0.0
C1398 C 0.91838 0.41579 0.73295 0.0
C1399 C 0.9002 0.39227 0.72522 0.0
C1400 C 0.86181 0.40301 0.70428 0.0
H1401 H 0.80409 0.34049 0.68349 0.0
H1402 H 0.83096 0.35126 0.69381 0.0
H1403 H 0.83947 0.40287 0.69006 0.0
H1404 H 0.90766 0.43882 0.73113 0.0
H1405 H 0.88096 0.42723 0.72173 0.0
H1406 H 0.87157 0.37457 0.73064 0.0
C1407 C 0.82107 0.3592 0.69373 0.0
C1408 C 0.84639 0.39664 0.69895 0.0
C1409 C 0.80572 0.35308 0.68777 0.0
C1410 C 0.90577 0.4258 0.7294 0.0
C1411 C 0.89049 0.41914 0.72395 0.0
C1412 C 0.86483 0.38076 0.7216 0.0
C1413 C 0.8237 0.37554 0.69911 0.0
C1414 C 0.84007 0.38222 0.70481 0.0
C1415 C 0.8875 0.40228 0.72171 0.0
C1416 C 0.87121 0.39523 0.71577 0.0
H1417 H 0.78545 0.38743 0.69279 0.0
H1418 H 0.81234 0.39816 0.70296 0.0
H1419 H 0.84479 0.36321 0.7209 0.0
H1420 H 0.92502 0.39098 0.73342 0.0
H1421 H 0.89845 0.37926 0.7234 0.0
C1422 C 0.69283 0.66682 0.31914 0.0
C1423 C 0.70751 0.65929 0.32083 0.0
C1424 C 0.67838 0.6588 0.32287 0.0
C1425 C 0.6603 0.61773 0.32509 0.0
H1426 H 0.62684 0.63873 0.34754 0.0
C1427 C 0.60268 0.58172 0.34009 0.0
C1428 C 0.58802 0.58921 0.33849 0.0
C1429 C 0.61734 0.59067 0.33949 0.0
C1430 C 0.63597 0.63273 0.34108 0.0
H1431 H 0.71861 0.63768 0.32829 0.0
H1432 H 0.69341 0.62371 0.33472 0.0
H1433 H 0.65217 0.65387 0.34343 0.0
H1434 H 0.57708 0.61192 0.33528 0.0
H1435 H 0.60271 0.62757 0.33359 0.0
H1436 H 0.64401 0.59684 0.32203 0.0
C1437 C 0.69305 0.63573 0.33035 0.0
C1438 C 0.65052 0.6414 0.33881 0.0
C1439 C 0.7075 0.6438 0.32679 0.0
C1440 C 0.58826 0.6059 0.33657 0.0
C1441 C 0.60295 0.61484 0.33571 0.0
C1442 C 0.6457 0.60916 0.32712 0.0
C1443 C 0.6783 0.64305 0.32821 0.0
C1444 C 0.66287 0.63395 0.33086 0.0
C1445 C 0.61769 0.6073 0.337 0.0
C1446 C 0.63333 0.61651 0.33517 0.0
H1447 H 0.69245 0.67877 0.31462 0.0
H1448 H 0.66719 0.66472 0.32102 0.0
H1449 H 0.66944 0.61175 0.31861 0.0
H1450 H 0.60281 0.56891 0.34189 0.0
H1451 H 0.62842 0.5845 0.34097 0.0
C1452 C 0.30731 0.02836 0.27521 0.0
C1453 C 0.30982 0.04524 0.27732 0.0
C1454 C 0.31957 0.01894 0.26987 0.0
C1455 C 0.35653 0.02026 0.2478 0.0
H1456 H 0.36616 0.98222 0.27067 0.0
C1457 C 0.41108 0.98277 0.2336 0.0
C1458 C 0.40891 0.96591 0.23405 0.0
C1459 C 0.39928 0.99275 0.23907 0.0
C1460 C 0.36351 0.99267 0.26399 0.0
H1461 H 0.32707 0.06552 0.27519 0.0
H1462 H 0.34845 0.04903 0.26566 0.0
H1463 H 0.34479 0.99896 0.27944 0.0
H1464 H 0.39257 0.94624 0.24023 0.0
H1465 H 0.37185 0.96355 0.24943 0.0
H1466 H 0.37499 0.01384 0.23213 0.0
C1467 C 0.33698 0.04311 0.26818 0.0
C1468 C 0.35128 0.00228 0.26906 0.0
C1469 C 0.32477 0.05253 0.2737 0.0
C1470 C 0.39469 0.95922 0.23999 0.0
C1471 C 0.38283 0.96916 0.2453 0.0
C1472 C 0.36867 0.01056 0.24262 0.0
C1473 C 0.33455 0.02621 0.26635 0.0
C1474 C 0.34764 0.01614 0.261 0.0
C1475 C 0.38498 0.98607 0.24495 0.0
C1476 C 0.37228 0.99661 0.25062 0.0
H1477 H 0.29593 0.02237 0.27789 0.0
H1478 H 0.31731 0.00594 0.26839 0.0
H1479 H 0.35387 0.0308 0.24127 0.0
H1480 H 0.42201 0.98826 0.22922 0.0
H1481 H 0.40147 0.00571 0.23885 0.0
C1482 C 0.17334 0.98544 0.68111 0.0
C1483 C 0.18816 0.99464 0.68273 0.0
C1484 C 0.15879 0.99301 0.67944 0.0
C1485 C 0.14088 0.03194 0.6877 0.0
H1486 H 0.10722 0.01484 0.65599 0.0
C1487 C 0.08481 0.06701 0.67166 0.0
C1488 C 0.06989 0.05819 0.66868 0.0
C1489 C 0.09908 0.05906 0.6737 0.0
C1490 C 0.1164 0.01965 0.66507 0.0
H1491 H 0.1993 0.01898 0.68379 0.0
H1492 H 0.1739 0.03216 0.68086 0.0
H1493 H 0.13242 0.0013 0.6588 0.0
H1494 H 0.05819 0.03409 0.66591 0.0
H1495 H 0.08309 0.02018 0.66965 0.0
H1496 H 0.12487 0.05022 0.69405 0.0
C1497 C 0.17355 0.01911 0.68101 0.0
C1498 C 0.13085 0.0119 0.66664 0.0
C1499 C 0.1881 0.01155 0.68259 0.0
C1500 C 0.06953 0.04122 0.66797 0.0
C1501 C 0.0838 0.03326 0.67008 0.0
C1502 C 0.1264 0.03964 0.68618 0.0
C1503 C 0.15873 0.00993 0.67945 0.0
C1504 C 0.14328 0.01801 0.67792 0.0
C1505 C 0.09876 0.04208 0.6729 0.0
C1506 C 0.11401 0.03364 0.67479 0.0
H1507 H 0.17297 0.97239 0.68119 0.0
H1508 H 0.14756 0.98562 0.67841 0.0
H1509 H 0.15012 0.03678 0.69668 0.0
H1510 H 0.0855 0.0801 0.67203 0.0
H1511 H 0.1104 0.06624 0.67558 0.0
C1512 C 0.70967 0.80092 0.38354 0.0
C1513 C 0.70209 0.79817 0.368 0.0
C1514 C 0.71624 0.81629 0.38887 0.0
C1515 C 0.71419 0.85949 0.38027 0.0
H1516 H 0.75262 0.86442 0.40934 0.0
C1517 C 0.74618 0.92162 0.4014 0.0
C1518 C 0.74955 0.92403 0.41816 0.0
C1519 C 0.74101 0.90631 0.39451 0.0
C1520 C 0.74185 0.8632 0.40126 0.0
H1521 H 0.69582 0.80927 0.34568 0.0
H1522 H 0.70773 0.83599 0.35476 0.0
H1523 H 0.74282 0.83754 0.39837 0.0
H1524 H 0.75049 0.91233 0.44082 0.0
H1525 H 0.7416 0.88553 0.42877 0.0
H1526 H 0.71343 0.88525 0.38307 0.0
C1527 C 0.70824 0.82639 0.36303 0.0
C1528 C 0.73618 0.84781 0.39503 0.0
C1529 C 0.70149 0.81104 0.35777 0.0
C1530 C 0.74784 0.91082 0.42788 0.0
C1531 C 0.7429 0.89548 0.42098 0.0
C1532 C 0.71999 0.8749 0.38636 0.0
C1533 C 0.71557 0.82925 0.3787 0.0
C1534 C 0.72215 0.84572 0.38461 0.0
C1535 C 0.73936 0.89309 0.40425 0.0
C1536 C 0.73375 0.87687 0.39707 0.0
H1537 H 0.71024 0.79127 0.39176 0.0
H1538 H 0.72152 0.81806 0.40111 0.0
H1539 H 0.70322 0.85837 0.3725 0.0
H1540 H 0.74733 0.93164 0.39365 0.0
H1541 H 0.73842 0.90475 0.38157 0.0
C1542 C 0.68012 0.17252 0.98846 0.0
C1543 C 0.6754 0.18692 0.99602 0.0
C1544 C 0.67952 0.15818 0.99646 0.0
C1545 C 0.65977 0.13767 0.02847 0.0
H1546 H 0.69715 0.11179 0.02912 0.0
C1547 C 0.66308 0.08161 0.06624 0.0
C1548 C 0.67044 0.06819 0.05955 0.0
C1549 C 0.66395 0.09635 0.05892 0.0
C1550 C 0.68651 0.11873 0.02888 0.0
H1551 H 0.66609 0.19753 0.01781 0.0
H1552 H 0.66481 0.17236 0.0317 0.0
H1553 H 0.69779 0.13683 0.01519 0.0
H1554 H 0.68432 0.05958 0.03986 0.0
H1555 H 0.68552 0.08512 0.02683 0.0
H1556 H 0.64829 0.11945 0.04177 0.0
C1557 C 0.66903 0.17223 0.0196 0.0
C1558 C 0.68692 0.13311 0.02094 0.0
C1559 C 0.66983 0.18663 0.01167 0.0
C1560 C 0.67872 0.0698 0.04541 0.0
C1561 C 0.67944 0.08447 0.03798 0.0
C1562 C 0.65928 0.12319 0.03626 0.0
C1563 C 0.674 0.1579 0.01212 0.0
C1564 C 0.67355 0.14271 0.02064 0.0
C1565 C 0.67205 0.09794 0.04462 0.0
C1566 C 0.67265 0.11351 0.03655 0.0
H1567 H 0.68448 0.17235 0.97641 0.0
H1568 H 0.68327 0.14727 0.99036 0.0
H1569 H 0.64924 0.14478 0.02828 0.0
H1570 H 0.65675 0.08073 0.07724 0.0
H1571 H 0.65837 0.10652 0.06456 0.0
C1572 C 0.34436 0.72256 0.65048 0.0
C1573 C 0.34062 0.73289 0.63817 0.0
C1574 C 0.34658 0.70621 0.64675 0.0
C1575 C 0.35128 0.67636 0.61198 0.0
H1576 H 0.33272 0.64589 0.64045 0.0
C1577 C 0.33147 0.61083 0.59083 0.0
C1578 C 0.33523 0.59855 0.6011 0.0
C1579 C 0.33424 0.62705 0.59614 0.0
C1580 C 0.33812 0.65425 0.63248 0.0
H1581 H 0.33659 0.73429 0.61229 0.0
H1582 H 0.33974 0.70584 0.60582 0.0
H1583 H 0.33428 0.67466 0.64831 0.0
H1584 H 0.34479 0.59358 0.62501 0.0
H1585 H 0.34936 0.6221 0.63445 0.0
H1586 H 0.3545 0.6559 0.59588 0.0
C1587 C 0.34149 0.71031 0.61834 0.0
C1588 C 0.33911 0.67077 0.637 0.0
C1589 C 0.33954 0.72666 0.62205 0.0
C1590 C 0.34179 0.60282 0.61685 0.0
C1591 C 0.34436 0.61911 0.62225 0.0
C1592 C 0.35008 0.65988 0.60738 0.0
C1593 C 0.34482 0.69979 0.63064 0.0
C1594 C 0.34542 0.68209 0.62666 0.0
C1595 C 0.34071 0.63138 0.61189 0.0
C1596 C 0.34323 0.64868 0.61745 0.0
H1597 H 0.34542 0.72706 0.66302 0.0
H1598 H 0.34949 0.6986 0.65652 0.0
H1599 H 0.35667 0.68461 0.60391 0.0
H1600 H 0.32659 0.60789 0.57857 0.0
H1601 H 0.33111 0.63623 0.58795 0.0
C1602 C 0.25449 0.29734 0.02843 0.0
C1603 C 0.25626 0.2835 0.01828 0.0
C1604 C 0.25227 0.31226 0.02192 0.0
C1605 C 0.23987 0.33063 0.98387 0.0
H1606 H 0.26152 0.36951 0.00495 0.0
C1607 C 0.2418 0.39149 0.95384 0.0
C1608 C 0.23877 0.40527 0.96355 0.0
C1609 C 0.24417 0.37678 0.96071 0.0
C1610 C 0.25528 0.35878 0.99901 0.0
H1611 H 0.25713 0.27449 0.99333 0.0
H1612 H 0.25351 0.30053 0.982 0.0
H1613 H 0.26503 0.3435 0.01654 0.0
H1614 H 0.23623 0.41452 0.98816 0.0
H1615 H 0.24029 0.38877 0.00018 0.0
H1616 H 0.23024 0.3459 0.96628 0.0
C1617 C 0.25355 0.29983 0.99498 0.0
C1618 C 0.25726 0.34387 0.00566 0.0
C1619 C 0.25572 0.2849 0.00148 0.0
C1620 C 0.23842 0.40408 0.98034 0.0
C1621 C 0.24088 0.38937 0.98724 0.0
C1622 C 0.23795 0.34551 0.97719 0.0
C1623 C 0.25182 0.31371 0.00511 0.0
C1624 C 0.2496 0.32961 0.99816 0.0
C1625 C 0.24363 0.37553 0.97747 0.0
C1626 C 0.24566 0.35975 0.98467 0.0
H1627 H 0.2548 0.29666 0.04142 0.0
H1628 H 0.25074 0.32265 0.03006 0.0
H1629 H 0.23356 0.31995 0.97792 0.0
H1630 H 0.24197 0.39195 0.94084 0.0
H1631 H 0.24644 0.36638 0.95288 0.0
C1632 C 0.37872 0.70277 0.80107 0.0
C1633 C 0.36229 0.69773 0.79872 0.0
C1634 C 0.38541 0.70785 0.81646 0.0
C1635 C 0.37753 0.70613 0.86006 0.0
H1636 H 0.41304 0.73879 0.86501 0.0
C1637 C 0.4047 0.73493 0.92189 0.0
C1638 C 0.42159 0.73449 0.92422 0.0
C1639 C 0.3969 0.73078 0.90672 0.0
C1640 C 0.40315 0.72963 0.86377 0.0
H1641 H 0.33986 0.69448 0.81055 0.0
H1642 H 0.35133 0.704 0.8373 0.0
H1643 H 0.40015 0.73158 0.83827 0.0
H1644 H 0.44338 0.7289 0.91229 0.0
H1645 H 0.42978 0.72234 0.88578 0.0
H1646 H 0.38039 0.70461 0.88575 0.0
C1647 C 0.35923 0.70354 0.82739 0.0
C1648 C 0.39581 0.7254 0.84844 0.0
C1649 C 0.3526 0.69818 0.81202 0.0
C1650 C 0.43043 0.72978 0.91095 0.0
C1651 C 0.42266 0.72592 0.89576 0.0
C1652 C 0.3847 0.71059 0.87543 0.0
C1653 C 0.37577 0.70831 0.82986 0.0
C1654 C 0.38303 0.71343 0.84633 0.0
C1655 C 0.40584 0.72638 0.89351 0.0
C1656 C 0.3977 0.72223 0.87738 0.0
H1657 H 0.38652 0.70243 0.79106 0.0
H1658 H 0.39824 0.71109 0.81786 0.0
H1659 H 0.36794 0.69668 0.85895 0.0
H1660 H 0.39748 0.73875 0.93169 0.0
H1661 H 0.38391 0.73132 0.90524 0.0
C1662 C 0.01711 0.67605 0.18371 0.0
C1663 C 0.00036 0.67427 0.18522 0.0
C1664 C 0.02341 0.67587 0.16846 0.0
C1665 C 0.0137 0.66296 0.12557 0.0
H1666 H 0.04837 0.69443 0.11812 0.0
C1667 C 0.03659 0.67153 0.06201 0.0
C1668 C 0.05337 0.67387 0.0609 0.0
C1669 C 0.0299 0.67173 0.07708 0.0
C1670 C 0.03881 0.68545 0.12004 0.0
H1671 H 0.97707 0.67073 0.17188 0.0
H1672 H 0.98808 0.67047 0.14527 0.0
H1673 H 0.0372 0.69419 0.14459 0.0
H1674 H 0.0763 0.67804 0.07477 0.0
H1675 H 0.06466 0.67835 0.10103 0.0
H1676 H 0.01538 0.65415 0.10103 0.0
C1677 C 0.99635 0.67188 0.15589 0.0
C1678 C 0.03241 0.68531 0.13522 0.0
C1679 C 0.99004 0.67211 0.17114 0.0
C1680 C 0.0633 0.67647 0.0752 0.0
C1681 C 0.05662 0.67665 0.09025 0.0
C1682 C 0.02013 0.66307 0.11038 0.0
C1683 C 0.0131 0.67387 0.15438 0.0
C1684 C 0.01981 0.67404 0.13818 0.0
C1685 C 0.03984 0.67426 0.09139 0.0
C1686 C 0.0328 0.67429 0.10745 0.0
H1687 H 0.0254 0.6777 0.19431 0.0
H1688 H 0.03639 0.67721 0.16771 0.0
H1689 H 0.00414 0.65399 0.12752 0.0
H1690 H 0.02859 0.6697 0.05121 0.0
H1691 H 0.01691 0.6701 0.07751 0.0
C1692 C 0.64947 0.33247 0.68768 0.0
C1693 C 0.64178 0.33477 0.70221 0.0
C1694 C 0.64172 0.33584 0.67298 0.0
C1695 C 0.60083 0.33847 0.65438 0.0
H1696 H 0.62341 0.35578 0.619 0.0
C1697 C 0.56726 0.34635 0.59326 0.0
C1698 C 0.57509 0.3415 0.5794 0.0
C1699 C 0.57568 0.34811 0.60835 0.0
C1700 C 0.61695 0.35083 0.62873 0.0
H1701 H 0.62028 0.34322 0.71276 0.0
H1702 H 0.60686 0.34925 0.68714 0.0
H1703 H 0.63778 0.35416 0.64526 0.0
H1704 H 0.59795 0.33504 0.5704 0.0
H1705 H 0.61264 0.33773 0.59682 0.0
H1706 H 0.58019 0.33453 0.63781 0.0
C1707 C 0.61873 0.34451 0.68708 0.0
C1708 C 0.62518 0.34995 0.6438 0.0
C1709 C 0.62648 0.34118 0.70178 0.0
C1710 C 0.59164 0.33888 0.58087 0.0
C1711 C 0.60005 0.34049 0.59601 0.0
C1712 C 0.59265 0.33922 0.63932 0.0
C1713 C 0.62612 0.34156 0.67248 0.0
C1714 C 0.61724 0.34362 0.65675 0.0
C1715 C 0.59211 0.34491 0.60997 0.0
C1716 C 0.60064 0.34524 0.62625 0.0
H1717 H 0.66127 0.32759 0.6876 0.0
H1718 H 0.64773 0.33335 0.66195 0.0
H1719 H 0.59441 0.33326 0.664 0.0
H1720 H 0.55457 0.34876 0.59242 0.0
H1721 H 0.56926 0.35187 0.61877 0.0
C1722 C 0.04648 0.26253 0.33582 0.0
C1723 C 0.04177 0.25786 0.31964 0.0
C1724 C 0.03684 0.25799 0.34824 0.0
C1725 C 0.99497 0.24333 0.35568 0.0
H1726 H 0.0147 0.2335 0.39714 0.0
C1727 C 0.95885 0.2162 0.40623 0.0
C1728 C 0.962 0.22357 0.42187 0.0
C1729 C 0.96857 0.22021 0.3937 0.0
C1730 C 0.00904 0.23632 0.38565 0.0
H1731 H 0.02342 0.24447 0.30379 0.0
H1732 H 0.00684 0.23611 0.32545 0.0
H1733 H 0.03179 0.2403 0.37531 0.0
H1734 H 0.97782 0.24116 0.43643 0.0
H1735 H 0.995 0.24781 0.41462 0.0
H1736 H 0.97221 0.239 0.36604 0.0
C1737 C 0.01776 0.24365 0.32857 0.0
C1738 C 0.01882 0.24028 0.37314 0.0
C1739 C 0.02733 0.24835 0.31614 0.0
C1740 C 0.97519 0.23501 0.42464 0.0
C1741 C 0.98501 0.23888 0.41214 0.0
C1742 C 0.98521 0.23919 0.36814 0.0
C1743 C 0.02233 0.24852 0.34478 0.0
C1744 C 0.01192 0.24392 0.35801 0.0
C1745 C 0.98178 0.23155 0.39655 0.0
C1746 C 0.99214 0.23573 0.38327 0.0
H1747 H 0.05749 0.26996 0.33891 0.0
H1748 H 0.04063 0.26221 0.36052 0.0
H1749 H 0.9892 0.24635 0.34432 0.0
H1750 H 0.94903 0.20711 0.40369 0.0
H1751 H 0.96593 0.21423 0.38183 0.0
C1752 C 0.2698 0.57965 0.37919 0.0
C1753 C 0.27809 0.59407 0.37545 0.0
C1754 C 0.27026 0.57482 0.39506 0.0
C1755 C 0.28111 0.58928 0.43777 0.0
H1756 H 0.28928 0.54433 0.44307 0.0
C1757 C 0.30914 0.56676 0.49672 0.0
C1758 C 0.30323 0.55183 0.50187 0.0
C1759 C 0.30377 0.57206 0.48181 0.0
C1760 C 0.28674 0.55686 0.44182 0.0
H1761 H 0.29287 0.61501 0.3856 0.0
H1762 H 0.29387 0.6065 0.41313 0.0
H1763 H 0.28372 0.55348 0.41609 0.0
H1764 H 0.28689 0.53085 0.49549 0.0
H1765 H 0.27746 0.54014 0.46937 0.0
H1766 H 0.28463 0.59271 0.46351 0.0
C1767 C 0.28683 0.59899 0.40387 0.0
C1768 C 0.28353 0.56212 0.42635 0.0
C1769 C 0.28634 0.60384 0.38804 0.0
C1770 C 0.29162 0.54243 0.49188 0.0
C1771 C 0.28631 0.54769 0.47688 0.0
C1772 C 0.28439 0.58404 0.45324 0.0
C1773 C 0.27904 0.58428 0.40754 0.0
C1774 C 0.28093 0.57845 0.42411 0.0
C1775 C 0.2924 0.56253 0.47166 0.0
C1776 C 0.2875 0.56782 0.45541 0.0
H1777 H 0.26324 0.57188 0.36981 0.0
H1778 H 0.2639 0.56356 0.39751 0.0
H1779 H 0.27887 0.60188 0.43651 0.0
H1780 H 0.31795 0.57436 0.50424 0.0
H1781 H 0.30882 0.58346 0.47807 0.0
C1782 C 0.23077 0.40654 0.73209 0.0
C1783 C 0.22545 0.41791 0.72139 0.0
C1784 C 0.23331 0.41072 0.74862 0.0
C1785 C 0.23873 0.44555 0.77888 0.0
H1786 H 0.22148 0.41464 0.80766 0.0
C1787 C 0.2279 0.46208 0.84588 0.0
C1788 C 0.23095 0.45048 0.85717 0.0
C1789 C 0.22897 0.45832 0.82936 0.0
C1790 C 0.22659 0.42332 0.79984 0.0
H1791 H 0.21913 0.44277 0.71964 0.0
H1792 H 0.22339 0.44999 0.74848 0.0
H1793 H 0.22045 0.4077 0.77876 0.0
H1794 H 0.23822 0.4261 0.86002 0.0
H1795 H 0.24012 0.41956 0.83124 0.0
H1796 H 0.24465 0.46126 0.80002 0.0
C1797 C 0.22575 0.43788 0.74407 0.0
C1798 C 0.22601 0.41933 0.78325 0.0
C1799 C 0.22323 0.4337 0.72754 0.0
C1800 C 0.23551 0.4352 0.85161 0.0
C1801 C 0.23659 0.43145 0.83511 0.0
C1802 C 0.23932 0.44954 0.79551 0.0
C1803 C 0.23057 0.42636 0.75484 0.0
C1804 C 0.23198 0.43042 0.77255 0.0
C1805 C 0.23312 0.44289 0.82377 0.0
C1806 C 0.23317 0.4385 0.80617 0.0
H1807 H 0.2327 0.39429 0.72776 0.0
H1808 H 0.23728 0.40164 0.75655 0.0
H1809 H 0.24362 0.45428 0.77099 0.0
H1810 H 0.22419 0.4739 0.84975 0.0
H1811 H 0.22602 0.46734 0.82093 0.0
C1812 C 0.76304 0.99543 0.65231 0.0
C1813 C 0.76468 0.98075 0.65967 0.0
C1814 C 0.76126 0.99573 0.6355 0.0
C1815 C 0.76893 0.97101 0.59839 0.0
H1816 H 0.74522 0.0036 0.57728 0.0
C1817 C 0.76042 0.9724 0.52904 0.0
C1818 C 0.76476 0.9873 0.52271 0.0
C1819 C 0.75895 0.97129 0.54561 0.0
C1820 C 0.75191 0.99447 0.58305 0.0
H1821 H 0.76491 0.9548 0.65524 0.0
H1822 H 0.76116 0.95522 0.62597 0.0
H1823 H 0.74451 0.00176 0.60646 0.0
H1824 H 0.7707 0.01278 0.52901 0.0
H1825 H 0.76764 0.01085 0.55789 0.0
H1826 H 0.77609 0.96361 0.57487 0.0
C1827 C 0.76181 0.96659 0.63311 0.0
C1828 C 0.75157 0.99343 0.59977 0.0
C1829 C 0.76383 0.96632 0.64991 0.0
C1830 C 0.76713 0.00114 0.53337 0.0
C1831 C 0.76543 6e-05 0.54993 0.0
C1832 C 0.76905 0.97191 0.58166 0.0
C1833 C 0.76085 0.98134 0.62565 0.0
C1834 C 0.76025 0.9818 0.6077 0.0
C1835 C 0.76152 0.98509 0.55622 0.0
C1836 C 0.7607 0.98375 0.57386 0.0
H1837 H 0.76374 0.00679 0.65948 0.0
H1838 H 0.76082 0.00735 0.63027 0.0
H1839 H 0.77604 0.96212 0.60403 0.0
H1840 H 0.75811 0.96154 0.5212 0.0
H1841 H 0.75572 0.95964 0.55014 0.0
C1842 C 0.73535 0.01083 0.28238 0.0
C1843 C 0.72496 0.01675 0.29377 0.0
C1844 C 0.7307 0.00994 0.2659 0.0
C1845 C 0.70333 0.02694 0.23582 0.0
H1846 H 0.71038 0.988 0.20979 0.0
C1847 C 0.6767 0.01567 0.17011 0.0
C1848 C 0.68625 0.00812 0.15882 0.0
C1849 C 0.68155 0.01693 0.18654 0.0
C1850 C 0.70852 0.99905 0.21682 0.0
H1851 H 0.70201 0.02729 0.29683 0.0
H1852 H 0.69372 0.02548 0.26805 0.0
H1853 H 0.71866 0.98992 0.23849 0.0
H1854 H 0.70843 0.99595 0.15604 0.0
H1855 H 0.71712 0.99858 0.18461 0.0
H1856 H 0.69332 0.03615 0.21415 0.0
C1857 C 0.7054 0.02138 0.27187 0.0
C1858 C 0.71324 0.00013 0.23328 0.0
C1859 C 0.71002 0.02217 0.28836 0.0
C1860 C 0.70085 0.00198 0.16436 0.0
C1861 C 0.70574 0.0033 0.18079 0.0
C1862 C 0.69868 0.0259 0.21933 0.0
C1863 C 0.71565 0.01515 0.26047 0.0
C1864 C 0.71067 0.01407 0.24297 0.0
C1865 C 0.69612 0.01074 0.1921 0.0
C1866 C 0.7012 0.01193 0.20962 0.0
H1867 H 0.74701 0.00669 0.28623 0.0
H1868 H 0.73896 0.00531 0.2574 0.0
H1869 H 0.70139 0.03793 0.24293 0.0
H1870 H 0.66549 0.02072 0.16625 0.0
H1871 H 0.67376 0.02258 0.19491 0.0
C1872 C 0.34602 0.29041 0.56897 0.0
C1873 C 0.34468 0.27886 0.58063 0.0
C1874 C 0.36041 0.29297 0.56136 0.0
C1875 C 0.39958 0.27572 0.55345 0.0
H1876 H 0.41383 0.32066 0.55031 0.0
C1877 C 0.46501 0.29662 0.54036 0.0
C1878 C 0.46711 0.30964 0.53043 0.0
C1879 C 0.44968 0.29189 0.54515 0.0
C1880 C 0.40994 0.30804 0.55086 0.0
H1881 H 0.35727 0.26048 0.59293 0.0
H1882 H 0.38248 0.26511 0.57976 0.0
H1883 H 0.38775 0.31396 0.56084 0.0
H1884 H 0.45464 0.32744 0.51718 0.0
H1885 H 0.4279 0.31918 0.52551 0.0
H1886 H 0.42197 0.26986 0.54365 0.0
C1887 C 0.37233 0.27209 0.57642 0.0
C1888 C 0.39497 0.30419 0.5569 0.0
C1889 C 0.35789 0.26948 0.58402 0.0
C1890 C 0.45347 0.31755 0.52507 0.0
C1891 C 0.43815 0.31282 0.52985 0.0
C1892 C 0.4146 0.27958 0.5474 0.0
C1893 C 0.37385 0.2841 0.56524 0.0
C1894 C 0.38961 0.288 0.5583 0.0
C1895 C 0.4361 0.30007 0.54012 0.0
C1896 C 0.41997 0.2958 0.54607 0.0
H1897 H 0.33605 0.29774 0.56594 0.0
H1898 H 0.36108 0.30209 0.55257 0.0
H1899 H 0.39573 0.26312 0.55423 0.0
H1900 H 0.4753 0.2904 0.54485 0.0
H1901 H 0.44855 0.28216 0.55323 0.0
C1902 C 0.28478 0.72253 0.02152 0.0
C1903 C 0.2897 0.73635 0.01369 0.0
C1904 C 0.26865 0.71658 0.02007 0.0
C1905 C 0.2311 0.71709 0.99445 0.0
H1906 H 0.21014 0.70562 0.03308 0.0
C1907 C 0.16218 0.70421 0.99436 0.0
C1908 C 0.15629 0.69184 0.00374 0.0
C1909 C 0.17855 0.70926 0.9955 0.0
C1910 C 0.21585 0.70853 0.02213 0.0
H1911 H 0.28166 0.75496 0.99842 0.0
H1912 H 0.25344 0.74453 0.99579 0.0
H1913 H 0.23862 0.71483 0.03501 0.0
H1914 H 0.1631 0.6752 0.02178 0.0
H1915 H 0.19173 0.68363 0.02336 0.0
H1916 H 0.20844 0.71066 0.98151 0.0
C1917 C 0.26208 0.73817 0.00288 0.0
C1918 C 0.23217 0.71384 0.02326 0.0
C1919 C 0.27819 0.74419 0.00446 0.0
C1920 C 0.16722 0.68463 0.01425 0.0
C1921 C 0.18363 0.68962 0.01531 0.0
C1922 C 0.21482 0.71166 0.9933 0.0
C1923 C 0.25713 0.72434 0.01073 0.0
C1924 C 0.23993 0.71826 0.00945 0.0
C1925 C 0.1895 0.70201 0.00596 0.0
C1926 C 0.20695 0.70742 0.00714 0.0
H1927 H 0.2933 0.71656 0.02914 0.0
H1928 H 0.26518 0.7059 0.02624 0.0
H1929 H 0.23683 0.72021 0.98357 0.0
H1930 H 0.15417 0.70989 0.98597 0.0
H1931 H 0.18259 0.71898 0.98827 0.0
C1932 C 0.7294 0.2286 0.41415 0.0
C1933 C 0.71693 0.2228 0.42344 0.0
C1934 C 0.7453 0.2306 0.42072 0.0
C1935 C 0.77165 0.21444 0.45198 0.0
H1936 H 0.80202 0.24909 0.4419 0.0
C1937 C 0.83806 0.21691 0.47625 0.0
C1938 C 0.84968 0.2206 0.46517 0.0
C1939 C 0.82176 0.21923 0.47263 0.0
C1940 C 0.7937 0.23928 0.44474 0.0
H1941 H 0.71131 0.21536 0.44721 0.0
H1942 H 0.73905 0.21897 0.45868 0.0
H1943 H 0.77353 0.24976 0.433 0.0
H1944 H 0.85335 0.22989 0.44172 0.0
H1945 H 0.82489 0.23379 0.4353 0.0
H1946 H 0.79177 0.20371 0.46333 0.0
C1947 C 0.73654 0.22172 0.44623 0.0
C1948 C 0.77739 0.23968 0.43966 0.0
C1949 C 0.72063 0.21974 0.43967 0.0
C1950 C 0.8447 0.2271 0.45058 0.0
C1951 C 0.82838 0.22936 0.44692 0.0
C1952 C 0.78794 0.21401 0.45701 0.0
C1953 C 0.74911 0.22684 0.43673 0.0
C1954 C 0.76621 0.22717 0.4431 0.0
C1955 C 0.81668 0.22523 0.4578 0.0
C1956 C 0.7992 0.22634 0.45332 0.0
H1957 H 0.72698 0.23109 0.40161 0.0
H1958 H 0.75471 0.23444 0.41304 0.0
H1959 H 0.76342 0.20446 0.45458 0.0
H1960 H 0.84156 0.21214 0.48771 0.0
H1961 H 0.8131 0.21622 0.48142 0.0
C1962 C 0.65869 0.75836 0.97726 0.0
C1963 C 0.6649 0.76738 0.96495 0.0
C1964 C 0.64201 0.756 0.97846 0.0
C1965 C 0.60426 0.77471 0.96781 0.0
H1966 H 0.58372 0.73365 0.97772 0.0
C1967 C 0.53514 0.76516 0.96858 0.0
C1968 C 0.52893 0.75608 0.98083 0.0
C1969 C 0.55165 0.76587 0.96614 0.0
C1970 C 0.58929 0.74524 0.97513 0.0
H1971 H 0.65843 0.78058 0.94396 0.0
H1972 H 0.62938 0.77645 0.94608 0.0
H1973 H 0.61273 0.73582 0.97421 0.0
H1974 H 0.53513 0.74068 0.00016 0.0
H1975 H 0.56402 0.7421 0.99607 0.0
H1976 H 0.58099 0.78426 0.969 0.0
C1977 C 0.63741 0.77134 0.95489 0.0
C1978 C 0.6059 0.74647 0.97308 0.0
C1979 C 0.65407 0.77362 0.95363 0.0
C1980 C 0.53956 0.74764 0.99052 0.0
C1981 C 0.5561 0.74843 0.98814 0.0
C1982 C 0.5877 0.77352 0.96994 0.0
C1983 C 0.63121 0.76269 0.96744 0.0
C1984 C 0.61355 0.76121 0.96937 0.0
C1985 C 0.56236 0.7576 0.97595 0.0
C1986 C 0.58 0.75877 0.97362 0.0
H1987 H 0.66669 0.75337 0.98618 0.0
H1988 H 0.63759 0.74938 0.98833 0.0
H1989 H 0.60986 0.78631 0.96524 0.0
H1990 H 0.5272 0.77157 0.96075 0.0
H1991 H 0.55599 0.77279 0.95644 0.0
C1992 C 0.60123 0.36843 0.27727 0.0
C1993 C 0.60589 0.35913 0.29018 0.0
C1994 C 0.59555 0.38382 0.28024 0.0
C1995 C 0.5942 0.4164 0.31282 0.0
H1996 H 0.55736 0.42927 0.28687 0.0
C1997 C 0.55542 0.4677 0.33386 0.0
C1998 C 0.55201 0.47942 0.32277 0.0
C1999 C 0.56239 0.45349 0.32891 0.0
C2000 C 0.56775 0.42588 0.29411 0.0
H2001 H 0.60825 0.35877 0.31632 0.0
H2002 H 0.59808 0.3852 0.32144 0.0
H2003 H 0.56926 0.40374 0.2799 0.0
H2004 H 0.55312 0.48512 0.29765 0.0
H2005 H 0.56489 0.46001 0.28898 0.0
H2006 H 0.59231 0.43829 0.32732 0.0
C2007 C 0.59913 0.38088 0.30902 0.0
C2008 C 0.57462 0.4113 0.29009 0.0
C2009 C 0.60488 0.36561 0.30607 0.0
C2010 C 0.55536 0.47631 0.30649 0.0
C2011 C 0.56217 0.46197 0.30151 0.0
C2012 C 0.58722 0.43085 0.31692 0.0
C2013 C 0.59436 0.39019 0.29617 0.0
C2014 C 0.5878 0.40627 0.29955 0.0
C2015 C 0.56595 0.45054 0.31273 0.0
C2016 C 0.5738 0.43563 0.30774 0.0
H2017 H 0.60189 0.3638 0.26488 0.0
H2018 H 0.59216 0.39073 0.27005 0.0
H2019 H 0.60457 0.41313 0.32015 0.0
H2020 H 0.55267 0.46948 0.3464 0.0
H2021 H 0.56493 0.44474 0.33776 0.0
C2022 C 0.03639 0.29259 0.71617 0.0
C2023 C 0.03434 0.29638 0.73259 0.0
C2024 C 0.03451 0.27658 0.70986 0.0
C2025 C 0.01654 0.23635 0.71861 0.0
H2026 H 0.04496 0.22073 0.68654 0.0
C2027 C 0.01847 0.1687 0.69911 0.0
C2028 C 0.01899 0.16464 0.68248 0.0
C2029 C 0.02036 0.18482 0.70506 0.0
C2030 C 0.03683 0.22496 0.69538 0.0
H2031 H 0.02947 0.28636 0.75544 0.0
H2032 H 0.02657 0.25837 0.74457 0.0
H2033 H 0.04835 0.24877 0.69725 0.0
H2034 H 0.02177 0.17445 0.65908 0.0
H2035 H 0.02526 0.20256 0.66952 0.0
H2036 H 0.00514 0.21248 0.71684 0.0
C2037 C 0.02912 0.26779 0.73642 0.0
C2038 C 0.03875 0.24104 0.7015 0.0
C2039 C 0.03093 0.2838 0.74269 0.0
C2040 C 0.02156 0.17711 0.67198 0.0
C2041 C 0.02353 0.19322 0.67795 0.0
C2042 C 0.01468 0.22027 0.71254 0.0
C2043 C 0.03076 0.26398 0.7199 0.0
C2044 C 0.02864 0.24693 0.71322 0.0
C2045 C 0.02289 0.19726 0.69455 0.0
C2046 C 0.02482 0.21439 0.70089 0.0
H2047 H 0.03971 0.30195 0.70823 0.0
H2048 H 0.03584 0.2741 0.69708 0.0
H2049 H 0.00834 0.24055 0.72739 0.0
H2050 H 0.01679 0.1594 0.70758 0.0
H2051 H 0.02005 0.18753 0.71795 0.0
C2052 C 0.37477 0.73035 0.21139 0.0
C2053 C 0.38336 0.71883 0.2195 0.0
C2054 C 0.38004 0.74668 0.21293 0.0
C2055 C 0.41708 0.77286 0.22303 0.0
H2056 H 0.3874 0.80719 0.2222 0.0
C2057 C 0.43876 0.84057 0.22774 0.0
C2058 C 0.43107 0.85034 0.21674 0.0
C2059 C 0.43272 0.82473 0.22948 0.0
C2060 C 0.39583 0.79772 0.22235 0.0
H2061 H 0.40378 0.71558 0.23624 0.0
H2062 H 0.41276 0.74411 0.23917 0.0
H2063 H 0.37691 0.77926 0.22338 0.0
H2064 H 0.41114 0.85095 0.19875 0.0
H2065 H 0.40055 0.82344 0.20193 0.0
H2066 H 0.43597 0.79134 0.22192 0.0
C2067 C 0.40217 0.74047 0.23132 0.0
C2068 C 0.38983 0.78171 0.22301 0.0
C2069 C 0.39695 0.72412 0.22972 0.0
C2070 C 0.41719 0.84389 0.20756 0.0
C2071 C 0.41112 0.82811 0.20936 0.0
C2072 C 0.42308 0.78887 0.22245 0.0
C2073 C 0.39397 0.75191 0.22268 0.0
C2074 C 0.40036 0.76905 0.22316 0.0
C2075 C 0.41881 0.81835 0.22032 0.0
C2076 C 0.4125 0.80145 0.2219 0.0
H2077 H 0.36428 0.7267 0.20339 0.0
H2078 H 0.37352 0.75511 0.20596 0.0
H2079 H 0.42554 0.76341 0.22285 0.0
H2080 H 0.44932 0.84521 0.23517 0.0
H2081 H 0.43882 0.81754 0.23814 0.0
C2082 C 0.97594 0.65075 0.75096 0.0
C2083 C 0.96514 0.6575 0.7615 0.0
C2084 C 0.9771 0.63401 0.74931 0.0
C2085 C 0.95587 0.59499 0.75734 0.0
H2086 H 0.99878 0.57893 0.75714 0.0
C2087 C 0.96785 0.5291 0.76951 0.0
C2088 C 0.97845 0.52114 0.75961 0.0
C2089 C 0.9662 0.54568 0.76882 0.0
C2090 C 0.98671 0.58322 0.75699 0.0
H2091 H 0.94682 0.65189 0.77828 0.0
H2092 H 0.94901 0.62281 0.77554 0.0
H2093 H 0.99557 0.60793 0.75709 0.0
H2094 H 0.99569 0.52444 0.74125 0.0
H2095 H 0.99292 0.55348 0.74018 0.0
H2096 H 0.94706 0.57028 0.75753 0.0
C2097 C 0.95644 0.6304 0.76839 0.0
C2098 C 0.98485 0.59984 0.75692 0.0
C2099 C 0.95525 0.64711 0.77001 0.0
C2100 C 0.98757 0.53023 0.74919 0.0
C2101 C 0.98596 0.54686 0.74854 0.0
C2102 C 0.95774 0.57839 0.75747 0.0
C2103 C 0.96751 0.62365 0.75816 0.0
C2104 C 0.96942 0.60593 0.75725 0.0
C2105 C 0.97516 0.55473 0.75826 0.0
C2106 C 0.97318 0.57233 0.75745 0.0
H2107 H 0.98369 0.65839 0.74417 0.0
H2108 H 0.98559 0.62919 0.74114 0.0
H2109 H 0.9438 0.59925 0.7573 0.0
H2110 H 0.96089 0.52253 0.77791 0.0
H2111 H 0.95801 0.55146 0.77669 0.0
C2112 C 0.73102 0.3658 0.60897 0.0
C2113 C 0.72547 0.37264 0.62332 0.0
C2114 C 0.72854 0.37317 0.59441 0.0
C2115 C 0.72075 0.41246 0.5779 0.0
H2116 H 0.70914 0.38618 0.53839 0.0
C2117 C 0.70641 0.43976 0.51624 0.0
C2118 C 0.71303 0.43222 0.50277 0.0
C2119 C 0.70723 0.4328 0.53121 0.0
C2120 C 0.71251 0.39368 0.5493 0.0
H2121 H 0.71372 0.39302 0.6338 0.0
H2122 H 0.7089 0.40565 0.6083 0.0
H2123 H 0.71165 0.37336 0.56399 0.0
H2124 H 0.7255 0.41136 0.49441 0.0
H2125 H 0.7272 0.39945 0.52047 0.0
H2126 H 0.72171 0.43277 0.56313 0.0
C2127 C 0.7151 0.39452 0.60829 0.0
C2128 C 0.71395 0.38633 0.56397 0.0
C2129 C 0.71757 0.38712 0.62285 0.0
C2130 C 0.72049 0.41761 0.50459 0.0
C2131 C 0.72127 0.41066 0.51949 0.0
C2132 C 0.7193 0.41982 0.5632 0.0
C2133 C 0.72056 0.38763 0.59389 0.0
C2134 C 0.71826 0.3956 0.57842 0.0
C2135 C 0.71459 0.41811 0.53296 0.0
C2136 C 0.71534 0.41049 0.54871 0.0
H2137 H 0.73731 0.35473 0.609 0.0
H2138 H 0.73315 0.36769 0.5836 0.0
H2139 H 0.72427 0.41992 0.58879 0.0
H2140 H 0.70065 0.45106 0.51524 0.0
H2141 H 0.70189 0.43879 0.54134 0.0
C2142 C 0.75954 0.65349 0.24441 0.0
C2143 C 0.76329 0.64629 0.25891 0.0
C2144 C 0.75806 0.64422 0.22976 0.0
C2145 C 0.76626 0.604 0.21057 0.0
H2146 H 0.73164 0.61392 0.18013 0.0
C2147 C 0.75545 0.57126 0.14699 0.0
C2148 C 0.73939 0.56846 0.14065 0.0
C2149 C 0.759 0.5804 0.16156 0.0
C2150 C 0.74125 0.61084 0.18856 0.0
H2151 H 0.76802 0.62371 0.26957 0.0
H2152 H 0.76528 0.60748 0.24412 0.0
H2153 H 0.73695 0.63062 0.205 0.0
H2154 H 0.71446 0.57285 0.14503 0.0
H2155 H 0.72057 0.58804 0.17068 0.0
H2156 H 0.77006 0.58378 0.19438 0.0
C2157 C 0.76403 0.62037 0.24389 0.0
C2158 C 0.7445 0.62063 0.20273 0.0
C2159 C 0.76567 0.62969 0.25851 0.0
C2160 C 0.72695 0.57456 0.14956 0.0
C2161 C 0.73049 0.58355 0.16419 0.0
C2162 C 0.76291 0.59412 0.19643 0.0
C2163 C 0.76 0.62748 0.22934 0.0
C2164 C 0.75702 0.61733 0.21396 0.0
C2165 C 0.74657 0.58686 0.17024 0.0
C2166 C 0.7503 0.59737 0.18528 0.0
H2167 H 0.75761 0.66629 0.24442 0.0
H2168 H 0.75524 0.65018 0.21878 0.0
H2169 H 0.77611 0.6012 0.21884 0.0
H2170 H 0.76533 0.56656 0.14059 0.0
H2171 H 0.77153 0.58276 0.16579 0.0
C2172 C 0.2531 0.04656 0.35442 0.0
C2173 C 0.26122 0.06024 0.34879 0.0
C2174 C 0.25451 0.04342 0.37079 0.0
C2175 C 0.26751 0.06221 0.41148 0.0
H2176 H 0.27456 0.0181 0.42171 0.0
C2177 C 0.29473 0.04558 0.47334 0.0
C2178 C 0.28831 0.03158 0.47996 0.0
C2179 C 0.28974 0.04934 0.45772 0.0
C2180 C 0.27237 0.03044 0.41909 0.0
H2181 H 0.2772 0.08132 0.35586 0.0
H2182 H 0.27986 0.07574 0.38433 0.0
H2183 H 0.26865 0.02425 0.39375 0.0
H2184 H 0.27155 0.01059 0.47541 0.0
H2185 H 0.26274 0.01725 0.44817 0.0
H2186 H 0.2716 0.06842 0.43682 0.0
C2187 C 0.27211 0.06761 0.37621 0.0
C2188 C 0.26895 0.03397 0.40305 0.0
C2189 C 0.27069 0.07075 0.35987 0.0
C2190 C 0.27663 0.02153 0.47069 0.0
C2191 C 0.2717 0.02526 0.45504 0.0
C2192 C 0.27097 0.05868 0.42751 0.0
C2193 C 0.26417 0.05382 0.38185 0.0
C2194 C 0.26666 0.04993 0.39903 0.0
C2195 C 0.27827 0.03916 0.44835 0.0
C2196 C 0.27362 0.04278 0.43147 0.0
H2197 H 0.2462 0.03791 0.34614 0.0
H2198 H 0.24818 0.03272 0.37474 0.0
H2199 H 0.26554 0.07459 0.40883 0.0
H2200 H 0.30361 0.05365 0.48024 0.0
H2201 H 0.29516 0.06006 0.45286 0.0
C2202 C 0.25113 0.96746 0.75113 0.0
C2203 C 0.25818 0.97904 0.74159 0.0
C2204 C 0.25421 0.96846 0.76788 0.0
C2205 C 0.26778 0.99789 0.80176 0.0
H2206 H 0.27123 0.95943 0.82578 0.0
C2207 C 0.28379 0.001 0.87039 0.0
C2208 C 0.27384 0.99122 0.87945 0.0
C2209 C 0.28297 0.99901 0.85354 0.0
C2210 C 0.27021 0.97026 0.81922 0.0
H2211 H 0.27337 0.00121 0.74229 0.0
H2212 H 0.27949 0.00249 0.77132 0.0
H2213 H 0.26813 0.95689 0.79632 0.0
H2214 H 0.25558 0.97139 0.87803 0.0
H2215 H 0.25416 0.96789 0.84854 0.0
H2216 H 0.26995 0.01124 0.82468 0.0
C2217 C 0.27153 0.99262 0.7659 0.0
C2218 C 0.26839 0.96882 0.80235 0.0
C2219 C 0.26834 0.99168 0.74916 0.0
C2220 C 0.2633 0.97917 0.87134 0.0
C2221 C 0.26259 0.97708 0.85449 0.0
C2222 C 0.26974 0.99933 0.8186 0.0
C2223 C 0.26439 0.9811 0.7755 0.0
C2224 C 0.26703 0.98262 0.79341 0.0
C2225 C 0.27229 0.98711 0.84541 0.0
C2226 C 0.27085 0.98553 0.82751 0.0
H2227 H 0.2431 0.95767 0.74565 0.0
H2228 H 0.24825 0.95954 0.77489 0.0
H2229 H 0.26646 0.00876 0.79533 0.0
H2230 H 0.29193 0.01047 0.8763 0.0
H2231 H 0.29068 0.00682 0.84686 0.0
C2232 C 0.63105 0.7436 0.39119 0.0
C2233 C 0.6361 0.73118 0.38082 0.0
C2234 C 0.61698 0.74135 0.39943 0.0
C2235 C 0.57815 0.71793 0.39662 0.0
H2236 H 0.57595 0.73314 0.44144 0.0
C2237 C 0.51784 0.72648 0.42553 0.0
C2238 C 0.51606 0.72073 0.44095 0.0
C2239 C 0.53286 0.72703 0.41885 0.0
C2240 C 0.57642 0.72872 0.42896 0.0
H2241 H 0.63009 0.70688 0.37047 0.0
H2242 H 0.6056 0.70284 0.38502 0.0
H2243 H 0.60178 0.73507 0.42872 0.0
H2244 H 0.5287 0.71123 0.46155 0.0
H2245 H 0.55513 0.71229 0.44984 0.0
H2246 H 0.55281 0.71171 0.39679 0.0
C2247 C 0.61262 0.71427 0.3869 0.0
C2248 C 0.59116 0.72995 0.42165 0.0
C2249 C 0.62676 0.71649 0.37875 0.0
C2250 C 0.52971 0.71568 0.44963 0.0
C2251 C 0.54482 0.71638 0.44297 0.0
C2252 C 0.56342 0.71684 0.40388 0.0
C2253 C 0.60756 0.72669 0.3973 0.0
C2254 C 0.59215 0.72467 0.40536 0.0
C2255 C 0.54651 0.72192 0.42744 0.0
C2256 C 0.56236 0.72235 0.42008 0.0
H2257 H 0.63799 0.75508 0.39293 0.0
H2258 H 0.61326 0.75123 0.40717 0.0
H2259 H 0.5785 0.71389 0.38402 0.0
H2260 H 0.50752 0.73025 0.41845 0.0
H2261 H 0.53382 0.73153 0.40693 0.0
C2262 C 0.73966 0.26699 0.99238 0.0
C2263 C 0.7315 0.25801 0.97924 0.0
C2264 C 0.75632 0.27056 0.99251 0.0
C2265 C 0.79077 0.27194 0.96602 0.0
H2266 H 0.81625 0.26686 0.0058 0.0
C2267 C 0.85968 0.26603 0.96835 0.0
C2268 C 0.86905 0.27377 0.9815 0.0
C2269 C 0.84284 0.26575 0.96791 0.0
C2270 C 0.8093 0.26857 0.99466 0.0
H2271 H 0.73435 0.2455 0.95605 0.0
H2272 H 0.76345 0.2515 0.95637 0.0
H2273 H 0.78691 0.26342 0.00535 0.0
H2274 H 0.86807 0.28742 0.00444 0.0
H2275 H 0.83863 0.28708 0.00359 0.0
H2276 H 0.81322 0.27679 0.95528 0.0
C2277 C 0.75696 0.25614 0.9664 0.0
C2278 C 0.79248 0.26661 0.9944 0.0
C2279 C 0.74032 0.25259 0.96628 0.0
C2280 C 0.86119 0.28146 0.99408 0.0
C2281 C 0.84434 0.28113 0.99367 0.0
C2282 C 0.8076 0.27387 0.96628 0.0
C2283 C 0.76518 0.2651 0.97957 0.0
C2284 C 0.78301 0.26812 0.98004 0.0
C2285 C 0.83497 0.27315 0.98064 0.0
C2286 C 0.81706 0.27205 0.98056 0.0
H2287 H 0.73332 0.27079 0.00282 0.0
H2288 H 0.76228 0.27751 0.00282 0.0
H2289 H 0.78382 0.27344 0.95483 0.0
H2290 H 0.86539 0.26015 0.95838 0.0
H2291 H 0.83598 0.25938 0.95777 0.0
C2292 C 0.26702 0.77082 0.62699 0.0
C2293 C 0.27727 0.78316 0.62167 0.0
C2294 C 0.25104 0.76851 0.62066 0.0
C2295 C 0.22505 0.77716 0.58493 0.0
H2296 H 0.19068 0.76224 0.61107 0.0
C2297 C 0.15135 0.76114 0.58036 0.0
C2298 C 0.14972 0.75231 0.56535 0.0
C2299 C 0.1666 0.76656 0.58717 0.0
C2300 C 0.20007 0.7666 0.60361 0.0
H2301 H 0.27867 0.80362 0.60679 0.0
H2302 H 0.25072 0.7997 0.59565 0.0
H2303 H 0.21752 0.76916 0.62369 0.0
H2304 H 0.16277 0.74244 0.5456 0.0
H2305 H 0.18943 0.7517 0.55754 0.0
H2306 H 0.20752 0.77484 0.56489 0.0
C2307 C 0.25511 0.79142 0.60427 0.0
C2308 C 0.21553 0.77037 0.61083 0.0
C2309 C 0.27109 0.79366 0.61056 0.0
C2310 C 0.16364 0.74936 0.5571 0.0
C2311 C 0.17892 0.7547 0.56395 0.0
C2312 C 0.20956 0.77346 0.57772 0.0
C2313 C 0.24495 0.77864 0.60903 0.0
C2314 C 0.22827 0.77553 0.60155 0.0
C2315 C 0.1806 0.7632 0.57917 0.0
C2316 C 0.19691 0.76797 0.58694 0.0
H2317 H 0.27153 0.76257 0.63558 0.0
H2318 H 0.24363 0.75845 0.62451 0.0
H2319 H 0.2346 0.78094 0.57737 0.0
H2320 H 0.14081 0.76381 0.58689 0.0
H2321 H 0.16742 0.77335 0.59874 0.0
C2322 C 0.32838 0.24331 0.03939 0.0
C2323 C 0.31885 0.23403 0.02739 0.0
C2324 C 0.34519 0.24433 0.03898 0.0
C2325 C 0.37725 0.23924 0.01038 0.0
H2326 H 0.40514 0.24553 0.04955 0.0
C2327 C 0.44951 0.25081 0.03285 0.0
C2328 C 0.45408 0.26207 0.02171 0.0
C2329 C 0.43341 0.24498 0.03311 0.0
C2330 C 0.3976 0.24354 0.03846 0.0
H2331 H 0.31932 0.21743 0.00638 0.0
H2332 H 0.3487 0.21904 0.00566 0.0
H2333 H 0.37644 0.23891 0.05135 0.0
H2334 H 0.4454 0.27598 0.00207 0.0
H2335 H 0.41732 0.26611 0.0027 0.0
H2336 H 0.39845 0.2436 0.99747 0.0
C2337 C 0.34323 0.22601 0.01508 0.0
C2338 C 0.38107 0.23997 0.03951 0.0
C2339 C 0.32641 0.2251 0.01545 0.0
C2340 C 0.44228 0.26714 0.01064 0.0
C2341 C 0.42618 0.26143 0.01099 0.0
C2342 C 0.3938 0.24268 0.00932 0.0
C2343 C 0.35283 0.23589 0.02667 0.0
C2344 C 0.37063 0.2381 0.0255 0.0
C2345 C 0.42149 0.25039 0.02233 0.0
C2346 C 0.40414 0.2452 0.02336 0.0
H2347 H 0.32282 0.2503 0.04874 0.0
H2348 H 0.35214 0.25222 0.04799 0.0
H2349 H 0.3696 0.23801 0.99932 0.0
H2350 H 0.4584 0.24655 0.0414 0.0
H2351 H 0.4303 0.23628 0.04182 0.0
C2352 C 0.36618 0.62333 0.73416 0.0
C2353 C 0.37023 0.63782 0.72703 0.0
C2354 C 0.37516 0.60981 0.73157 0.0
C2355 C 0.40469 0.59192 0.70511 0.0
H2356 H 0.41426 0.56722 0.74233 0.0
C2357 C 0.43209 0.52928 0.70089 0.0
C2358 C 0.44285 0.52545 0.7136 0.0
C2359 C 0.42436 0.5438 0.70168 0.0
C2360 C 0.41188 0.57408 0.73184 0.0
H2361 H 0.38721 0.64964 0.712 0.0
H2362 H 0.40277 0.626 0.70728 0.0
H2363 H 0.39826 0.59069 0.74521 0.0
H2364 H 0.45467 0.53428 0.73662 0.0
H2365 H 0.44133 0.55968 0.73792 0.0
H2366 H 0.41856 0.57536 0.69181 0.0
C2367 C 0.3924 0.62496 0.71456 0.0
C2368 C 0.40248 0.58741 0.73344 0.0
C2369 C 0.38338 0.63849 0.71714 0.0
C2370 C 0.44625 0.53678 0.72676 0.0
C2371 C 0.43856 0.5513 0.72752 0.0
C2372 C 0.41411 0.57854 0.7035 0.0
C2373 C 0.38851 0.61052 0.72191 0.0
C2374 C 0.39867 0.59643 0.72009 0.0
C2375 C 0.42723 0.55482 0.71518 0.0
C2376 C 0.41777 0.56943 0.71685 0.0
H2377 H 0.35611 0.62247 0.74186 0.0
H2378 H 0.37167 0.59881 0.73721 0.0
H2379 H 0.40191 0.59857 0.69456 0.0
H2380 H 0.42908 0.52072 0.69068 0.0
H2381 H 0.41559 0.54604 0.69204 0.0
C2382 C 0.98066 0.74043 0.24298 0.0
C2383 C 0.98182 0.73038 0.25598 0.0
C2384 C 0.97936 0.75703 0.24573 0.0
C2385 C 0.98808 0.79053 0.27624 0.0
H2386 H 0.95856 0.81268 0.24857 0.0
C2387 C 0.97972 0.85931 0.28491 0.0
C2388 C 0.97843 0.86776 0.27075 0.0
C2389 C 0.97937 0.84241 0.28404 0.0
C2390 C 0.96698 0.80671 0.25631 0.0
H2391 H 0.9814 0.72974 0.282 0.0
H2392 H 0.97964 0.75887 0.28685 0.0
H2393 H 0.9592 0.78339 0.2454 0.0
H2394 H 0.97622 0.86513 0.24458 0.0
H2395 H 0.97574 0.83577 0.24304 0.0
H2396 H 0.9961 0.81391 0.28694 0.0
C2397 C 0.98009 0.7539 0.27455 0.0
C2398 C 0.96731 0.78992 0.25451 0.0
C2399 C 0.98129 0.73724 0.27179 0.0
C2400 C 0.97693 0.85897 0.25572 0.0
C2401 C 0.97663 0.84213 0.25485 0.0
C2402 C 0.9878 0.80737 0.278 0.0
C2403 C 0.97913 0.76396 0.26153 0.0
C2404 C 0.97802 0.78167 0.26429 0.0
C2405 C 0.97776 0.83362 0.26899 0.0
C2406 C 0.9774 0.81567 0.26789 0.0
H2407 H 0.981 0.73551 0.23065 0.0
H2408 H 0.97882 0.76448 0.23545 0.0
H2409 H 0.99656 0.78451 0.28387 0.0
H2410 H 0.98072 0.86575 0.29668 0.0
H2411 H 0.9801 0.83623 0.29516 0.0
C2412 C 0.62881 0.26082 0.74148 0.0
C2413 C 0.63459 0.26756 0.75676 0.0
C2414 C 0.62109 0.24539 0.7398 0.0
C2415 C 0.59952 0.21468 0.76213 0.0
H2416 H 0.60915 0.18618 0.72577 0.0
C2417 C 0.561 0.15579 0.74134 0.0
C2418 C 0.56928 0.14248 0.73576 0.0
C2419 C 0.56932 0.17076 0.7453 0.0
C2420 C 0.60642 0.19391 0.73608 0.0
H2421 H 0.63761 0.26301 0.78216 0.0
H2422 H 0.62381 0.23611 0.77928 0.0
H2423 H 0.62328 0.21269 0.73002 0.0
H2424 H 0.59289 0.13419 0.73088 0.0
H2425 H 0.60737 0.16022 0.73777 0.0
H2426 H 0.58269 0.19575 0.76821 0.0
C2427 C 0.62493 0.24296 0.76865 0.0
C2428 C 0.61439 0.20918 0.73841 0.0
C2429 C 0.63271 0.25843 0.77033 0.0
C2430 C 0.58611 0.14431 0.73478 0.0
C2431 C 0.59441 0.15922 0.73874 0.0
C2432 C 0.59147 0.19936 0.75977 0.0
C2433 C 0.61905 0.23627 0.75335 0.0
C2434 C 0.61096 0.2198 0.75138 0.0
C2435 C 0.58609 0.1727 0.74377 0.0
C2436 C 0.59481 0.18883 0.74668 0.0
H2437 H 0.63007 0.26757 0.7308 0.0
H2438 H 0.61654 0.24068 0.72787 0.0
H2439 H 0.59654 0.22263 0.77218 0.0
H2440 H 0.54802 0.15477 0.74214 0.0
H2441 H 0.56254 0.18095 0.74901 0.0
C2442 C 0.03962 0.33073 0.2617 0.0
C2443 C 0.05457 0.32531 0.26714 0.0
C2444 C 0.03682 0.3472 0.26295 0.0
C2445 C 0.05087 0.38419 0.28731 0.0
H2446 H 0.02583 0.40587 0.25518 0.0
C2447 C 0.02712 0.44652 0.3018 0.0
C2448 C 0.02882 0.45808 0.29021 0.0
C2449 C 0.02984 0.43035 0.29801 0.0
C2450 C 0.03293 0.4 0.26421 0.0
H2451 H 0.07844 0.33285 0.27775 0.0
H2452 H 0.07366 0.36157 0.27975 0.0
H2453 H 0.03221 0.37776 0.24966 0.0
H2454 H 0.03439 0.46165 0.26543 0.0
H2455 H 0.03916 0.43333 0.25881 0.0
H2456 H 0.05177 0.40636 0.30181 0.0
C2457 C 0.06402 0.35312 0.27469 0.0
C2458 C 0.03646 0.38388 0.26111 0.0
C2459 C 0.06678 0.33669 0.27348 0.0
C2460 C 0.03285 0.45301 0.27459 0.0
C2461 C 0.03558 0.43679 0.27079 0.0
C2462 C 0.04731 0.40024 0.29042 0.0
C2463 C 0.0489 0.35854 0.26974 0.0
C2464 C 0.04546 0.37579 0.27265 0.0
C2465 C 0.03434 0.42534 0.28255 0.0
C2466 C 0.03823 0.40832 0.27897 0.0
H2467 H 0.02979 0.32223 0.25729 0.0
H2468 H 0.02496 0.35095 0.25927 0.0
H2469 H 0.05763 0.37828 0.29656 0.0
H2470 H 0.02371 0.44998 0.31385 0.0
H2471 H 0.02844 0.42177 0.30724 0.0
C2472 C 0.34734 0.6101 0.30846 0.0
C2473 C 0.33406 0.5996 0.30288 0.0
C2474 C 0.36308 0.6058 0.30613 0.0
C2475 C 0.38527 0.56933 0.30179 0.0
H2476 H 0.42167 0.59988 0.29757 0.0
C2477 C 0.44903 0.55762 0.32613 0.0
C2478 C 0.46228 0.56196 0.31718 0.0
C2479 C 0.43355 0.56191 0.32144 0.0
C2480 C 0.41164 0.59113 0.29853 0.0
H2481 H 0.32688 0.577 0.28927 0.0
H2482 H 0.35439 0.56969 0.28491 0.0
H2483 H 0.39414 0.60828 0.29297 0.0
H2484 H 0.4696 0.57427 0.29621 0.0
H2485 H 0.44243 0.5819 0.28804 0.0
H2486 H 0.40265 0.55218 0.30743 0.0
C2487 C 0.35261 0.58105 0.29144 0.0
C2488 C 0.39589 0.596 0.29606 0.0
C2489 C 0.33685 0.58529 0.29387 0.0
C2490 C 0.45967 0.57084 0.30344 0.0
C2491 C 0.44412 0.57519 0.29875 0.0
C2492 C 0.40097 0.56446 0.30423 0.0
C2493 C 0.36591 0.59101 0.29801 0.0
C2494 C 0.38254 0.58529 0.29809 0.0
C2495 C 0.43088 0.5707 0.30768 0.0
C2496 C 0.41434 0.57541 0.30307 0.0
H2497 H 0.34566 0.62123 0.31544 0.0
H2498 H 0.37302 0.6136 0.31159 0.0
H2499 H 0.37528 0.56079 0.30358 0.0
H2500 H 0.45064 0.55113 0.337 0.0
H2501 H 0.4237 0.5586 0.32882 0.0
C2502 C 0.14877 0.3894 0.67145 0.0
C2503 C 0.15833 0.38443 0.68456 0.0
C2504 C 0.13235 0.39173 0.67297 0.0
C2505 C 0.09851 0.38396 0.69979 0.0
H2506 H 0.08294 0.4233 0.68332 0.0
C2507 C 0.03649 0.40535 0.7158 0.0
C2508 C 0.03594 0.42194 0.71992 0.0
C2509 C 0.04973 0.39943 0.70823 0.0
C2510 C 0.0871 0.41229 0.68805 0.0
H2511 H 0.15799 0.37741 0.70931 0.0
H2512 H 0.12971 0.38178 0.71206 0.0
H2513 H 0.10935 0.41477 0.67644 0.0
H2514 H 0.04857 0.44539 0.71908 0.0
H2515 H 0.0719 0.4351 0.70636 0.0
H2516 H 0.07683 0.38203 0.7123 0.0
C2517 C 0.13468 0.38364 0.70049 0.0
C2518 C 0.10217 0.40726 0.68389 0.0
C2519 C 0.151 0.38125 0.69896 0.0
C2520 C 0.04863 0.43256 0.7159 0.0
C2521 C 0.06197 0.42663 0.70852 0.0
C2522 C 0.08354 0.38908 0.70408 0.0
C2523 C 0.12518 0.38916 0.68763 0.0
C2524 C 0.10824 0.39324 0.69006 0.0
C2525 C 0.06282 0.40995 0.70482 0.0
C2526 C 0.0778 0.40352 0.69859 0.0
H2527 H 0.15405 0.39188 0.66016 0.0
H2528 H 0.12534 0.39578 0.66274 0.0
H2529 H 0.10265 0.37293 0.70451 0.0
H2530 H 0.02674 0.39694 0.71858 0.0
H2531 H 0.04978 0.38657 0.70526 0.0
C2532 C 0.8425 0.99742 0.71721 0.0
C2533 C 0.82862 0.00634 0.71648 0.0
C2534 C 0.85776 0.00501 0.7156 0.0
C2535 C 0.87542 0.03984 0.69636 0.0
H2536 H 0.91563 0.02862 0.71769 0.0
C2537 C 0.93649 0.0555 0.67061 0.0
C2538 C 0.94909 0.06216 0.68142 0.0
C2539 C 0.92226 0.04886 0.67632 0.0
C2540 C 0.90449 0.03196 0.71173 0.0
H2541 H 0.82001 0.03039 0.71486 0.0
H2542 H 0.84658 0.04361 0.71228 0.0
H2543 H 0.8899 0.01738 0.72646 0.0
H2544 H 0.95666 0.06678 0.70678 0.0
H2545 H 0.93177 0.05502 0.71677 0.0
H2546 H 0.88988 0.05434 0.68161 0.0
C2547 C 0.84565 0.03071 0.71369 0.0
C2548 C 0.88978 0.02544 0.71667 0.0
C2549 C 0.83043 0.02314 0.71525 0.0
C2550 C 0.94726 0.06162 0.69813 0.0
C2551 C 0.933 0.05491 0.70385 0.0
C2552 C 0.89007 0.04626 0.69139 0.0
C2553 C 0.85942 0.02165 0.71328 0.0
C2554 C 0.87508 0.02925 0.70896 0.0
C2555 C 0.92027 0.04866 0.69299 0.0
C2556 C 0.90477 0.04227 0.69889 0.0
H2557 H 0.84153 0.98446 0.71818 0.0
H2558 H 0.86811 0.99768 0.71528 0.0
H2559 H 0.86436 0.04286 0.69 0.0
H2560 H 0.93764 0.05538 0.65768 0.0
H2561 H 0.9128 0.04383 0.66765 0.0
C2562 C 0.63851 0.99015 0.29123 0.0
C2563 C 0.64772 0.97967 0.30011 0.0
C2564 C 0.62309 0.98508 0.28458 0.0
C2565 C 0.59717 0.94831 0.27212 0.0
H2566 H 0.56272 0.97786 0.27287 0.0
C2567 C 0.53104 0.92836 0.25122 0.0
C2568 C 0.52271 0.93893 0.24161 0.0
C2569 C 0.54613 0.9332 0.25885 0.0
C2570 C 0.57225 0.96951 0.27244 0.0
H2571 H 0.64789 0.95565 0.30908 0.0
H2572 H 0.62093 0.94688 0.29763 0.0
H2573 H 0.58933 0.98655 0.28531 0.0
H2574 H 0.52355 0.963 0.23274 0.0
H2575 H 0.54995 0.97136 0.24584 0.0
H2576 H 0.58008 0.93128 0.25922 0.0
C2577 C 0.62571 0.95895 0.29562 0.0
C2578 C 0.58751 0.97449 0.27956 0.0
C2579 C 0.64114 0.96402 0.30226 0.0
C2580 C 0.52974 0.9545 0.23991 0.0
C2581 C 0.54479 0.95936 0.24757 0.0
C2582 C 0.5819 0.94332 0.26503 0.0
C2583 C 0.61651 0.96941 0.28667 0.0
C2584 C 0.60018 0.96398 0.27942 0.0
C2585 C 0.55318 0.94875 0.25709 0.0
C2586 C 0.56929 0.95389 0.26503 0.0
H2587 H 0.64323 0.00227 0.28929 0.0
H2588 H 0.61643 0.99338 0.27756 0.0
H2589 H 0.60672 0.93998 0.27159 0.0
H2590 H 0.52601 0.91624 0.25268 0.0
H2591 H 0.55223 0.9248 0.26622 0.0
C2592 C 0.2882 0.34774 0.6217 0.0
C2593 C 0.27795 0.33911 0.60974 0.0
C2594 C 0.28836 0.36459 0.62348 0.0
C2595 C 0.26698 0.40061 0.61139 0.0
H2596 H 0.31041 0.42028 0.61119 0.0
C2597 C 0.28306 0.46325 0.58742 0.0
C2598 C 0.296 0.47283 0.59532 0.0
C2599 C 0.27887 0.4479 0.59253 0.0
C2600 C 0.29821 0.41507 0.61163 0.0
H2601 H 0.2589 0.34133 0.59116 0.0
H2602 H 0.25916 0.37069 0.5943 0.0
H2603 H 0.3065 0.39155 0.61482 0.0
H2604 H 0.31414 0.47409 0.61527 0.0
H2605 H 0.30673 0.44737 0.62423 0.0
H2606 H 0.25877 0.42425 0.60777 0.0
C2607 C 0.2671 0.36446 0.6023 0.0
C2608 C 0.29595 0.39856 0.61367 0.0
C2609 C 0.26701 0.34761 0.60043 0.0
C2610 C 0.30406 0.46707 0.60897 0.0
C2611 C 0.29992 0.45169 0.61402 0.0
C2612 C 0.26925 0.41721 0.6094 0.0
C2613 C 0.27818 0.37318 0.61345 0.0
C2614 C 0.28032 0.39106 0.61329 0.0
C2615 C 0.28758 0.44176 0.60558 0.0
C2616 C 0.28491 0.42456 0.60929 0.0
H2617 H 0.29672 0.34158 0.62915 0.0
H2618 H 0.29693 0.37093 0.63229 0.0
H2619 H 0.25479 0.39522 0.61123 0.0
H2620 H 0.2765 0.46744 0.57697 0.0
H2621 H 0.26935 0.44051 0.58572 0.0
C2622 C 0.31709 0.64634 0.9827 0.0
C2623 C 0.30873 0.6561 0.99335 0.0
C2624 C 0.3115 0.63036 0.97849 0.0
C2625 C 0.28467 0.59692 0.99139 0.0
H2626 H 0.28472 0.58119 0.94652 0.0
C2627 C 0.2484 0.53872 0.96607 0.0
C2628 C 0.25546 0.52866 0.95461 0.0
C2629 C 0.25587 0.55374 0.97137 0.0
C2630 C 0.28483 0.5853 0.95914 0.0
H2631 H 0.28798 0.65666 0.00804 0.0
H2632 H 0.27815 0.62889 0.00058 0.0
H2633 H 0.29594 0.60838 0.9547 0.0
H2634 H 0.27601 0.52646 0.93986 0.0
H2635 H 0.28918 0.55261 0.9493 0.0
H2636 H 0.27338 0.57389 0.99578 0.0
C2637 C 0.28915 0.6335 0.99563 0.0
C2638 C 0.29127 0.6009 0.96383 0.0
C2639 C 0.29474 0.64947 0.99983 0.0
C2640 C 0.27031 0.53386 0.94878 0.0
C2641 C 0.27777 0.54892 0.95406 0.0
C2642 C 0.27823 0.58132 0.98669 0.0
C2643 C 0.29741 0.62378 0.98484 0.0
C2644 C 0.29115 0.60695 0.97999 0.0
C2645 C 0.27058 0.55908 0.96534 0.0
C2646 C 0.27812 0.57537 0.97049 0.0
H2647 H 0.32794 0.65105 0.97753 0.0
H2648 H 0.31827 0.62314 0.97032 0.0
H2649 H 0.28464 0.6011 0.00398 0.0
H2650 H 0.23705 0.53498 0.97094 0.0
H2651 H 0.24992 0.56132 0.97994 0.0
C2652 C 0.70446 0.15255 0.37421 0.0
C2653 C 0.68929 0.15815 0.37752 0.0
C2654 C 0.70762 0.13641 0.37585 0.0
C2655 C 0.69393 0.10152 0.39805 0.0
H2656 H 0.72645 0.08075 0.37396 0.0
C2657 C 0.71927 0.03985 0.41322 0.0
C2658 C 0.7362 0.04094 0.41603 0.0
C2659 C 0.71133 0.05236 0.40621 0.0
C2660 C 0.71727 0.08637 0.3807 0.0
H2661 H 0.66519 0.15093 0.38417 0.0
H2662 H 0.67059 0.12253 0.38666 0.0
H2663 H 0.71572 0.10559 0.36477 0.0
H2664 H 0.75791 0.05633 0.41369 0.0
H2665 H 0.74411 0.07767 0.40091 0.0
H2666 H 0.69567 0.08222 0.41403 0.0
C2667 C 0.68018 0.13076 0.38317 0.0
C2668 C 0.71117 0.10064 0.37551 0.0
C2669 C 0.67704 0.14701 0.38163 0.0
C2670 C 0.74494 0.05477 0.41139 0.0
C2671 C 0.73704 0.06708 0.40412 0.0
C2672 C 0.69987 0.08709 0.40309 0.0
C2673 C 0.69564 0.12535 0.3807 0.0
C2674 C 0.69987 0.10873 0.38446 0.0
C2675 C 0.72017 0.06605 0.40156 0.0
C2676 C 0.71197 0.07971 0.39476 0.0
H2677 H 0.71418 0.16078 0.371 0.0
H2678 H 0.71975 0.13283 0.37408 0.0
H2679 H 0.68538 0.10745 0.40535 0.0
H2680 H 0.71212 0.02931 0.41636 0.0
H2681 H 0.69829 0.05131 0.40431 0.0
C2682 C 0.72663 0.84635 0.97454 0.0
C2683 C 0.73046 0.83358 0.98419 0.0
C2684 C 0.72577 0.86197 0.98148 0.0
C2685 C 0.73588 0.88917 0.01775 0.0
H2686 H 0.69401 0.9056 0.00749 0.0
C2687 C 0.70971 0.94021 0.05678 0.0
C2688 C 0.69914 0.95055 0.04929 0.0
C2689 C 0.71566 0.92722 0.04796 0.0
C2690 C 0.70592 0.90147 0.01028 0.0
H2691 H 0.73774 0.82748 0.00849 0.0
H2692 H 0.73636 0.85484 0.02058 0.0
H2693 H 0.70162 0.88109 0.99335 0.0
H2694 H 0.68698 0.95542 0.02638 0.0
H2695 H 0.69804 0.93352 0.01095 0.0
H2696 H 0.74022 0.90961 0.03467 0.0
C2697 C 0.73393 0.8527 0.00766 0.0
C2698 C 0.71025 0.88735 0.00218 0.0
C2699 C 0.73465 0.83702 0.00073 0.0
C2700 C 0.69521 0.94791 0.03261 0.0
C2701 C 0.70136 0.9351 0.02376 0.0
C2702 C 0.73164 0.90348 0.02573 0.0
C2703 C 0.72889 0.86518 0.99819 0.0
C2704 C 0.72518 0.88095 0.00594 0.0
C2705 C 0.71136 0.92434 0.03137 0.0
C2706 C 0.7165 0.90972 0.02223 0.0
H2707 H 0.72344 0.84416 0.96174 0.0
H2708 H 0.72206 0.87143 0.97388 0.0
H2709 H 0.74749 0.8845 0.02083 0.0
H2710 H 0.7133 0.94201 0.06952 0.0
H2711 H 0.72321 0.91916 0.05432 0.0
C2712 C 0.61534 0.28149 0.34978 0.0
C2713 C 0.60489 0.27764 0.336 0.0
C2714 C 0.61043 0.27818 0.36511 0.0
C2715 C 0.57282 0.27506 0.38562 0.0
H2716 H 0.60115 0.26739 0.42277 0.0
C2717 C 0.55087 0.28246 0.44948 0.0
C2718 C 0.56115 0.2926 0.46021 0.0
C2719 C 0.55647 0.27593 0.43513 0.0
C2720 C 0.59312 0.26954 0.41249 0.0
H2721 H 0.58178 0.26584 0.32738 0.0
H2722 H 0.57335 0.25982 0.35414 0.0
H2723 H 0.61066 0.26358 0.3955 0.0
H2724 H 0.58561 0.30311 0.4647 0.0
H2725 H 0.59538 0.29174 0.43961 0.0
H2726 H 0.55547 0.28153 0.40245 0.0
C2727 C 0.58516 0.26578 0.35311 0.0
C2728 C 0.59855 0.26736 0.39691 0.0
C2729 C 0.59003 0.26916 0.33777 0.0
C2730 C 0.57742 0.29525 0.45674 0.0
C2731 C 0.58302 0.28871 0.44236 0.0
C2732 C 0.5674 0.2772 0.40113 0.0
C2733 C 0.59503 0.27086 0.367 0.0
C2734 C 0.5886 0.27051 0.38333 0.0
C2735 C 0.57246 0.27939 0.43117 0.0
C2736 C 0.57761 0.27486 0.41477 0.0
H2737 H 0.6269 0.28798 0.34887 0.0
H2738 H 0.61825 0.28238 0.37554 0.0
H2739 H 0.56491 0.27787 0.37548 0.0
H2740 H 0.53836 0.27993 0.45198 0.0
H2741 H 0.54812 0.26855 0.42688 0.0
C2742 C 0.99818 0.29841 0.65164 0.0
C2743 C 0.99472 0.2907 0.66578 0.0
C2744 C 0.99219 0.29168 0.63651 0.0
C2745 C 0.97577 0.25308 0.61566 0.0
H2746 H 0.96033 0.28085 0.58287 0.0
C2747 C 0.94152 0.22795 0.55626 0.0
C2748 C 0.94585 0.2349 0.54196 0.0
C2749 C 0.94746 0.23484 0.57133 0.0
C2750 C 0.96474 0.27295 0.59185 0.0
H2751 H 0.98217 0.26992 0.67511 0.0
H2752 H 0.97151 0.25835 0.64878 0.0
H2753 H 0.97062 0.29271 0.60927 0.0
H2754 H 0.95997 0.25453 0.53235 0.0
H2755 H 0.97021 0.26664 0.55867 0.0
H2756 H 0.96975 0.23332 0.59826 0.0
C2757 C 0.97907 0.26945 0.64934 0.0
C2758 C 0.97066 0.27975 0.60698 0.0
C2759 C 0.9851 0.27615 0.66446 0.0
C2760 C 0.95619 0.24899 0.54312 0.0
C2761 C 0.96208 0.25593 0.5582 0.0
C2762 C 0.96978 0.24629 0.60056 0.0
C2763 C 0.98257 0.27711 0.63517 0.0
C2764 C 0.97626 0.2699 0.61907 0.0
C2765 C 0.95782 0.2489 0.57247 0.0
C2766 C 0.9642 0.25615 0.58849 0.0
H2767 H 0.00562 0.3096 0.65223 0.0
H2768 H 0.99532 0.29778 0.62585 0.0
H2769 H 0.98024 0.24516 0.62457 0.0
H2770 H 0.93335 0.21727 0.55584 0.0
H2771 H 0.94376 0.22928 0.58211 0.0
C2772 C 0.41233 0.66467 0.15843 0.0
C2773 C 0.39551 0.6619 0.15878 0.0
C2774 C 0.41943 0.66704 0.14385 0.0
C2775 C 0.41289 0.6641 0.09927 0.0
H2776 H 0.43978 0.70402 0.10238 0.0
C2777 C 0.42732 0.70026 0.0438 0.0
C2778 C 0.44205 0.70949 0.04419 0.0
C2779 C 0.42309 0.69179 0.05716 0.0
C2780 C 0.43262 0.69266 0.10125 0.0
H2781 H 0.37312 0.65807 0.14392 0.0
H2782 H 0.38555 0.66223 0.11845 0.0
H2783 H 0.43006 0.6931 0.1267 0.0
H2784 H 0.46436 0.7163 0.05831 0.0
H2785 H 0.45731 0.7011 0.08141 0.0
H2786 H 0.41536 0.66378 0.07373 0.0
C2787 C 0.39323 0.66259 0.12947 0.0
C2788 C 0.42701 0.6864 0.11525 0.0
C2789 C 0.3861 0.66026 0.14408 0.0
C2790 C 0.45282 0.70946 0.05783 0.0
C2791 C 0.44872 0.70081 0.07107 0.0
C2792 C 0.41865 0.67029 0.08522 0.0
C2793 C 0.40988 0.66662 0.1293 0.0
C2794 C 0.41693 0.67217 0.11442 0.0
C2795 C 0.43361 0.69222 0.07111 0.0
C2796 C 0.42843 0.68478 0.08602 0.0
H2797 H 0.41997 0.66583 0.1695 0.0
H2798 H 0.43234 0.66984 0.14404 0.0
H2799 H 0.4052 0.65306 0.09829 0.0
H2800 H 0.41877 0.70018 0.03344 0.0
H2801 H 0.41129 0.68548 0.05679 0.0
C2802 C 0.0055 0.735 0.82564 0.0
C2803 C 0.98912 0.72961 0.82381 0.0
C2804 C 0.0136 0.73643 0.84093 0.0
C2805 C 0.00781 0.73525 0.88517 0.0
H2806 H 0.04892 0.71541 0.88554 0.0
C2807 C 0.03606 0.70563 0.94046 0.0
C2808 C 0.05297 0.70671 0.9431 0.0
C2809 C 0.02872 0.71212 0.92692 0.0
C2810 C 0.03762 0.72127 0.88569 0.0
H2811 H 0.96811 0.7226 0.83673 0.0
H2812 H 0.98226 0.72476 0.86326 0.0
H2813 H 0.03528 0.7207 0.85995 0.0
H2814 H 0.07533 0.71641 0.93417 0.0
H2815 H 0.06251 0.72766 0.91053 0.0
H2816 H 0.00996 0.73515 0.91101 0.0
C2817 C 0.98887 0.72806 0.85297 0.0
C2818 C 0.02978 0.72435 0.87098 0.0
C2819 C 0.98075 0.72673 0.8377 0.0
C2820 C 0.0623 0.71508 0.9323 0.0
C2821 C 0.05496 0.72155 0.91878 0.0
C2822 C 0.01564 0.73209 0.89992 0.0
C2823 C 0.00551 0.73241 0.85471 0.0
C2824 C 0.01464 0.73111 0.87049 0.0
C2825 C 0.03812 0.71982 0.91574 0.0
C2826 C 0.0305 0.72481 0.90032 0.0
H2827 H 0.01226 0.73749 0.8152 0.0
H2828 H 0.02634 0.74017 0.84188 0.0
H2829 H 0.99628 0.74068 0.88525 0.0
H2830 H 0.02854 0.69914 0.94845 0.0
H2831 H 0.01573 0.71042 0.92484 0.0
C2832 C 0.63992 0.39724 0.65026 0.0
C2833 C 0.64623 0.38683 0.66147 0.0
C2834 C 0.6243 0.40245 0.65139 0.0
C2835 C 0.58507 0.39196 0.66682 0.0
H2836 H 0.57933 0.43803 0.66923 0.0
C2837 C 0.52731 0.41791 0.68958 0.0
C2838 C 0.52178 0.43205 0.68324 0.0
C2839 C 0.54198 0.41208 0.68527 0.0
C2840 C 0.58059 0.42512 0.66825 0.0
H2841 H 0.64114 0.37387 0.68272 0.0
H2842 H 0.61371 0.3826 0.68436 0.0
H2843 H 0.60584 0.42826 0.66441 0.0
H2844 H 0.52708 0.45101 0.66717 0.0
H2845 H 0.55256 0.44059 0.65919 0.0
H2846 H 0.55987 0.38869 0.67041 0.0
C2847 C 0.62087 0.38669 0.67472 0.0
C2848 C 0.59582 0.41955 0.66556 0.0
C2849 C 0.63658 0.38172 0.67378 0.0
C2850 C 0.53113 0.44014 0.67231 0.0
C2851 C 0.54575 0.43419 0.66782 0.0
C2852 C 0.56979 0.39751 0.66926 0.0
C2853 C 0.61463 0.39717 0.66359 0.0
C2854 C 0.59824 0.40295 0.66511 0.0
C2855 C 0.55144 0.42014 0.67435 0.0
C2856 C 0.5674 0.41418 0.67033 0.0
H2857 H 0.64705 0.40141 0.64064 0.0
H2858 H 0.61972 0.41052 0.64265 0.0
H2859 H 0.58662 0.37908 0.6663 0.0
H2860 H 0.52048 0.41158 0.69825 0.0
H2861 H 0.54607 0.40148 0.69087 0.0
C2862 C 0.84135 0.60424 0.27671 0.0
C2863 C 0.84216 0.6212 0.27858 0.0
C2864 C 0.85545 0.59591 0.27565 0.0
C2865 C 0.89897 0.60142 0.26791 0.0
H2866 H 0.90253 0.56305 0.29203 0.0
C2867 C 0.95975 0.57431 0.28464 0.0
C2868 C 0.9602 0.5574 0.28431 0.0
C2869 C 0.94516 0.58154 0.28181 0.0
C2870 C 0.90165 0.5736 0.28502 0.0
H2871 H 0.85842 0.64272 0.28062 0.0
H2872 H 0.88296 0.62822 0.27906 0.0
H2873 H 0.87736 0.57668 0.29124 0.0
H2874 H 0.94573 0.53481 0.2799 0.0
H2875 H 0.92024 0.54744 0.27507 0.0
H2876 H 0.92345 0.59851 0.26204 0.0
C2877 C 0.87143 0.62133 0.27814 0.0
C2878 C 0.88721 0.58142 0.28456 0.0
C2879 C 0.85735 0.62965 0.27915 0.0
C2880 C 0.94577 0.54788 0.28053 0.0
C2881 C 0.93117 0.5551 0.27776 0.0
C2882 C 0.91345 0.59363 0.26843 0.0
C2883 C 0.87067 0.60436 0.27647 0.0
C2884 C 0.88574 0.59553 0.27614 0.0
C2885 C 0.93066 0.57201 0.27863 0.0
C2886 C 0.915 0.57972 0.27712 0.0
H2887 H 0.82983 0.59736 0.27613 0.0
H2888 H 0.8544 0.58285 0.27414 0.0
H2889 H 0.89817 0.6121 0.26108 0.0
H2890 H 0.97058 0.58202 0.28774 0.0
H2891 H 0.94515 0.5946 0.28276 0.0
C2892 C 0.16349 0.03776 0.30346 0.0
C2893 C 0.17437 0.03299 0.31561 0.0
C2894 C 0.14793 0.0304 0.30119 0.0
C2895 C 0.11682 0.00648 0.32091 0.0
H2896 H 0.10074 0.99476 0.2768 0.0
C2897 C 0.0566 0.9684 0.30464 0.0
C2898 C 0.04718 0.97278 0.29118 0.0
C2899 C 0.07209 0.97571 0.30831 0.0
C2900 C 0.10494 0.99813 0.28918 0.0
H2901 H 0.17729 0.01694 0.33514 0.0
H2902 H 0.15005 0.00403 0.33112 0.0
H2903 H 0.12771 0.00764 0.28201 0.0
H2904 H 0.04628 0.98875 0.27145 0.0
H2905 H 0.07312 0.00159 0.27789 0.0
H2906 H 0.09394 0.99703 0.32805 0.0
C2907 C 0.15358 0.01354 0.32341 0.0
C2908 C 0.12042 0.0055 0.29217 0.0
C2909 C 0.16921 0.02089 0.32566 0.0
C2910 C 0.05338 0.98488 0.28171 0.0
C2911 C 0.06878 0.99222 0.28539 0.0
C2912 C 0.10126 0.99914 0.31791 0.0
C2913 C 0.14285 0.0181 0.31102 0.0
C2914 C 0.1265 0.00988 0.30804 0.0
C2915 C 0.07842 0.98759 0.29861 0.0
C2916 C 0.09509 0.995 0.30199 0.0
H2917 H 0.16702 0.0471 0.29556 0.0
H2918 H 0.13985 0.03436 0.29171 0.0
H2919 H 0.12113 0.00983 0.33327 0.0
H2920 H 0.05218 0.95903 0.3121 0.0
H2921 H 0.07924 0.97176 0.31849 0.0
C2922 C 0.34445 0.01987 0.73295 0.0
C2923 C 0.34061 0.00365 0.73596 0.0
C2924 C 0.36036 0.02639 0.73525 0.0
C2925 C 0.40213 0.01431 0.73599 0.0
H2926 H 0.41251 0.0579 0.75442 0.0
C2927 C 0.46779 0.04097 0.74243 0.0
C2928 C 0.47039 0.05685 0.73769 0.0
C2929 C 0.45219 0.03462 0.74466 0.0
C2930 C 0.40981 0.04574 0.74915 0.0
H2931 H 0.35045 0.98168 0.74412 0.0
H2932 H 0.37821 0.99308 0.74811 0.0
H2933 H 0.3847 0.0465 0.75358 0.0
H2934 H 0.45864 0.07879 0.73247 0.0
H2935 H 0.43142 0.06758 0.73589 0.0
H2936 H 0.42706 0.01363 0.73112 0.0
C2937 C 0.36891 0.0007 0.74384 0.0
C2938 C 0.39387 0.03922 0.74869 0.0
C2939 C 0.35299 0.99419 0.74162 0.0
C2940 C 0.45706 0.06643 0.73588 0.0
C2941 C 0.44145 0.06006 0.73804 0.0
C2942 C 0.41803 0.02085 0.73638 0.0
C2943 C 0.3728 0.01683 0.74055 0.0
C2944 C 0.38984 0.02348 0.74196 0.0
C2945 C 0.43878 0.04397 0.74214 0.0
C2946 C 0.42205 0.0367 0.74282 0.0
H2947 H 0.3352 0.0275 0.7286 0.0
H2948 H 0.36298 0.03881 0.73245 0.0
H2949 H 0.39938 0.00224 0.73052 0.0
H2950 H 0.47774 0.0332 0.74382 0.0
H2951 H 0.45061 0.02227 0.74809 0.0
C2952 C 0.65757 0.64011 0.39178 0.0
C2953 C 0.66723 0.64669 0.38016 0.0
C2954 C 0.65874 0.62403 0.39564 0.0
C2955 C 0.68659 0.59072 0.39283 0.0
H2956 H 0.64935 0.5645 0.40438 0.0
C2957 C 0.68867 0.52257 0.40103 0.0
C2958 C 0.68269 0.51708 0.41535 0.0
C2959 C 0.68604 0.53816 0.39647 0.0
C2960 C 0.65985 0.57175 0.40126 0.0
H2961 H 0.68551 0.64152 0.36335 0.0
H2962 H 0.687 0.61337 0.36943 0.0
H2963 H 0.64596 0.59201 0.39633 0.0
H2964 H 0.66896 0.52344 0.43594 0.0
H2965 H 0.66417 0.55077 0.42781 0.0
H2966 H 0.70037 0.57031 0.39744 0.0
C2967 C 0.67884 0.62067 0.37595 0.0
C2968 C 0.65795 0.58752 0.39671 0.0
C2969 C 0.67786 0.63679 0.3723 0.0
C2970 C 0.67375 0.5274 0.42488 0.0
C2971 C 0.67093 0.54296 0.42018 0.0
C2972 C 0.68843 0.57492 0.39717 0.0
C2973 C 0.66948 0.61413 0.38785 0.0
C2974 C 0.67131 0.59723 0.39245 0.0
C2975 C 0.67722 0.54853 0.40603 0.0
C2976 C 0.6751 0.56529 0.40144 0.0
H2977 H 0.64928 0.64743 0.39809 0.0
H2978 H 0.6515 0.61951 0.40502 0.0
H2979 H 0.69723 0.59792 0.39002 0.0
H2980 H 0.69575 0.51494 0.39355 0.0
H2981 H 0.69093 0.54212 0.38545 0.0
C2982 C 0.71231 0.35278 0.99236 0.0
C2983 C 0.71762 0.34046 0.00189 0.0
C2984 C 0.71498 0.36898 0.99783 0.0
C2985 C 0.74 0.39685 0.02648 0.0
H2986 H 0.70403 0.42424 0.02149 0.0
C2987 C 0.74035 0.46193 0.05622 0.0
C2988 C 0.73269 0.47354 0.04733 0.0
C2989 C 0.73952 0.4457 0.05051 0.0
C2990 C 0.71429 0.41684 0.02278 0.0
H2991 H 0.73022 0.3355 0.02451 0.0
H2992 H 0.73486 0.36386 0.03407 0.0
H2993 H 0.70076 0.39599 0.01181 0.0
H2994 H 0.71831 0.47708 0.02528 0.0
H2995 H 0.7174 0.44907 0.01512 0.0
H2996 H 0.75356 0.41779 0.0374 0.0
C2997 C 0.72869 0.36095 0.02233 0.0
C2998 C 0.71239 0.40063 0.01725 0.0
C2999 C 0.72594 0.34471 0.01689 0.0
C3000 C 0.72456 0.46858 0.03239 0.0
C3001 C 0.72381 0.45242 0.02666 0.0
C3002 C 0.74194 0.41314 0.03196 0.0
C3003 C 0.72307 0.37325 0.01293 0.0
C3004 C 0.72523 0.39046 0.01897 0.0
C3005 C 0.73101 0.44071 0.03577 0.0
C3006 C 0.72911 0.42335 0.0301 0.0
H3007 H 0.70592 0.34994 0.98072 0.0
H3008 H 0.71071 0.3782 0.99021 0.0
H3009 H 0.75015 0.38932 0.02786 0.0
H3010 H 0.74686 0.46535 0.06769 0.0
H3011 H 0.74514 0.43699 0.05788 0.0
C3012 C 0.29718 0.81712 0.54422 0.0
C3013 C 0.29184 0.80725 0.55624 0.0
C3014 C 0.29639 0.83387 0.54602 0.0
C3015 C 0.2924 0.86781 0.57612 0.0
H3016 H 0.28021 0.89005 0.53791 0.0
C3017 C 0.278 0.93571 0.55391 0.0
C3018 C 0.2911 0.94485 0.56198 0.0
C3019 C 0.27636 0.91899 0.55505 0.0
C3020 C 0.2834 0.88406 0.54878 0.0
H3021 H 0.28092 0.80706 0.57921 0.0
H3022 H 0.27961 0.8364 0.58253 0.0
H3023 H 0.28077 0.86082 0.53617 0.0
H3024 H 0.3124 0.94373 0.5781 0.0
H3025 H 0.30971 0.91451 0.57993 0.0
H3026 H 0.29484 0.89114 0.58876 0.0
C3027 C 0.2848 0.83124 0.57189 0.0
C3028 C 0.28397 0.86727 0.54771 0.0
C3029 C 0.28566 0.81445 0.57009 0.0
C3030 C 0.30209 0.93702 0.57187 0.0
C3031 C 0.30053 0.92026 0.57292 0.0
C3032 C 0.2918 0.88465 0.5772 0.0
C3033 C 0.29005 0.84114 0.5598 0.0
C3034 C 0.2887 0.85895 0.5613 0.0
C3035 C 0.28788 0.91098 0.56416 0.0
C3036 C 0.28744 0.893 0.56349 0.0
H3037 H 0.30201 0.8119 0.5334 0.0
H3038 H 0.3008 0.84113 0.53659 0.0
H3039 H 0.29616 0.86178 0.5868 0.0
H3040 H 0.26922 0.94146 0.54638 0.0
H3041 H 0.26627 0.91227 0.54845 0.0
C3042 C 0.3096 0.20575 0.9723 0.0
C3043 C 0.32355 0.21189 0.96542 0.0
C3044 C 0.30758 0.18934 0.9751 0.0
C3045 C 0.32957 0.15127 0.97613 0.0
H3046 H 0.28643 0.13101 0.96794 0.0
C3047 C 0.31512 0.08278 0.96133 0.0
C3048 C 0.30206 0.07544 0.96875 0.0
C3049 C 0.31865 0.09945 0.96351 0.0
C3050 C 0.29851 0.13653 0.97048 0.0
H3051 H 0.34619 0.20555 0.95579 0.0
H3052 H 0.34239 0.17687 0.95995 0.0
H3053 H 0.29069 0.16011 0.96661 0.0
H3054 H 0.28267 0.07967 0.98454 0.0
H3055 H 0.28872 0.1089 0.98819 0.0
H3056 H 0.33739 0.12739 0.97919 0.0
C3057 C 0.33325 0.18477 0.96382 0.0
C3058 C 0.30098 0.15325 0.96979 0.0
C3059 C 0.33536 0.20122 0.96125 0.0
C3060 C 0.29289 0.08501 0.97879 0.0
C3061 C 0.29627 0.10171 0.98077 0.0
C3062 C 0.32712 0.1345 0.97658 0.0
C3063 C 0.31928 0.17857 0.9707 0.0
C3064 C 0.31656 0.16086 0.97247 0.0
C3065 C 0.30902 0.10912 0.97295 0.0
C3066 C 0.31158 0.12697 0.97365 0.0
H3067 H 0.29994 0.21344 0.97501 0.0
H3068 H 0.29672 0.18509 0.98054 0.0
H3069 H 0.34169 0.15669 0.97857 0.0
H3070 H 0.3224 0.07565 0.95358 0.0
H3071 H 0.32849 0.10486 0.95726 0.0
C3072 C 0.38614 0.67447 0.6417 0.0
C3073 C 0.38136 0.65863 0.64525 0.0
C3074 C 0.39165 0.67767 0.62659 0.0
C3075 C 0.40761 0.6579 0.59003 0.0
H3076 H 0.39746 0.6982 0.57153 0.0
C3077 C 0.42097 0.67411 0.52463 0.0
C3078 C 0.42825 0.68965 0.52318 0.0
C3079 C 0.41539 0.6696 0.5394 0.0
C3080 C 0.40046 0.68694 0.5766 0.0
H3081 H 0.37859 0.63372 0.63567 0.0
H3082 H 0.3877 0.63936 0.6091 0.0
H3083 H 0.38684 0.6916 0.59721 0.0
H3084 H 0.43604 0.71232 0.53646 0.0
H3085 H 0.42589 0.70457 0.56201 0.0
H3086 H 0.42096 0.6532 0.56909 0.0
C3087 C 0.38757 0.64928 0.61812 0.0
C3088 C 0.39443 0.68316 0.59136 0.0
C3089 C 0.38218 0.64606 0.63332 0.0
C3090 C 0.43014 0.7004 0.53698 0.0
C3091 C 0.42439 0.69597 0.55165 0.0
C3092 C 0.41346 0.6616 0.57514 0.0
C3093 C 0.39237 0.66515 0.61455 0.0
C3094 C 0.39811 0.66871 0.5984 0.0
C3095 C 0.41682 0.68059 0.55297 0.0
C3096 C 0.41012 0.67626 0.5684 0.0
H3097 H 0.38568 0.68445 0.65062 0.0
H3098 H 0.3955 0.68999 0.62443 0.0
H3099 H 0.41086 0.64676 0.59515 0.0
H3100 H 0.41912 0.66557 0.51424 0.0
H3101 H 0.40952 0.65769 0.54008 0.0
C3102 C 0.00363 0.73159 0.35067 0.0
C3103 C 0.01335 0.72793 0.33781 0.0
C3104 C 0.0104 0.73398 0.36649 0.0
C3105 C 0.04586 0.72402 0.39194 0.0
H3106 H 0.03083 0.75615 0.42237 0.0
C3107 C 0.07468 0.73425 0.4567 0.0
C3108 C 0.06394 0.73548 0.46913 0.0
C3109 C 0.06916 0.735 0.44056 0.0
C3110 C 0.03508 0.74706 0.41403 0.0
H3111 H 0.03792 0.72439 0.33146 0.0
H3112 H 0.04975 0.72876 0.35901 0.0
H3113 H 0.02002 0.7544 0.39431 0.0
H3114 H 0.03903 0.73882 0.47433 0.0
H3115 H 0.02941 0.74016 0.44618 0.0
H3116 H 0.06077 0.71656 0.41165 0.0
C3117 C 0.03683 0.7295 0.3569 0.0
C3118 C 0.02888 0.74604 0.39796 0.0
C3119 C 0.03006 0.72708 0.34109 0.0
C3120 C 0.04766 0.73802 0.46507 0.0
C3121 C 0.04214 0.73878 0.44893 0.0
C3122 C 0.05206 0.72506 0.40798 0.0
C3123 C 0.02706 0.7328 0.36982 0.0
C3124 C 0.03412 0.73443 0.38675 0.0
C3125 C 0.05278 0.73701 0.43646 0.0
C3126 C 0.04668 0.73651 0.41925 0.0
H3127 H 0.99071 0.73232 0.34857 0.0
H3128 H 0.00249 0.73632 0.37616 0.0
H3129 H 0.04996 0.71475 0.38372 0.0
H3130 H 0.08735 0.73257 0.45943 0.0
H3131 H 0.07773 0.7339 0.43127 0.0
C3132 C 0.59825 0.28013 0.84184 0.0
C3133 C 0.61391 0.27492 0.84025 0.0
C3134 C 0.5908 0.27896 0.85641 0.0
C3135 C 0.60022 0.27681 0.89998 0.0
H3136 H 0.55445 0.26493 0.9007 0.0
C3137 C 0.56818 0.27361 0.95978 0.0
C3138 C 0.55325 0.28073 0.96008 0.0
C3139 C 0.57551 0.27098 0.94519 0.0
C3140 C 0.56722 0.26837 0.9007 0.0
H3141 H 0.63389 0.26409 0.85265 0.0
H3142 H 0.62083 0.262 0.87808 0.0
H3143 H 0.5674 0.26384 0.87508 0.0
H3144 H 0.53403 0.2901 0.94523 0.0
H3145 H 0.54693 0.28582 0.9199 0.0
H3146 H 0.59999 0.28164 0.92554 0.0
C3147 C 0.61439 0.26714 0.86808 0.0
C3148 C 0.57464 0.26774 0.88602 0.0
C3149 C 0.62184 0.26827 0.85348 0.0
C3150 C 0.54564 0.28479 0.94544 0.0
C3151 C 0.55295 0.28215 0.93088 0.0
C3152 C 0.59279 0.27746 0.91466 0.0
C3153 C 0.59883 0.27258 0.86974 0.0
C3154 C 0.59118 0.27216 0.88546 0.0
C3155 C 0.56804 0.27535 0.93059 0.0
C3156 C 0.57616 0.27346 0.91517 0.0
H3157 H 0.5918 0.28532 0.83188 0.0
H3158 H 0.57888 0.28344 0.85735 0.0
H3159 H 0.61293 0.28048 0.89994 0.0
H3160 H 0.57439 0.27042 0.97086 0.0
H3161 H 0.58707 0.26556 0.94536 0.0
C3162 C 0.00391 0.30289 0.18238 0.0
C3163 C 0.01835 0.3125 0.18562 0.0
C3164 C 0.99633 0.30149 0.16687 0.0
C3165 C 0.99442 0.32021 0.12744 0.0
H3166 H 0.97944 0.27696 0.11103 0.0
C3167 C 0.97736 0.30329 0.0597 0.0
C3168 C 0.96431 0.29192 0.05588 0.0
C3169 C 0.98297 0.30688 0.07578 0.0
C3170 C 0.98333 0.28916 0.11548 0.0
H3171 H 0.03588 0.32856 0.17519 0.0
H3172 H 0.02271 0.32599 0.14808 0.0
H3173 H 0.99088 0.28135 0.13864 0.0
H3174 H 0.9464 0.27604 0.06595 0.0
H3175 H 0.95609 0.28237 0.09397 0.0
H3176 H 0.98698 0.32796 0.10415 0.0
C3177 C 0.01718 0.31965 0.15757 0.0
C3178 C 0.98989 0.29168 0.13133 0.0
C3179 C 0.02478 0.32104 0.1731 0.0
C3180 C 0.95668 0.28461 0.0685 0.0
C3181 C 0.96224 0.28823 0.08455 0.0
C3182 C 0.98782 0.31769 0.11155 0.0
C3183 C 0.003 0.30966 0.15423 0.0
C3184 C 0.99556 0.30721 0.1375 0.0
C3185 C 0.97561 0.29921 0.08838 0.0
C3186 C 0.98223 0.30212 0.10538 0.0
H3187 H 0.99856 0.29622 0.19177 0.0
H3188 H 0.98527 0.29391 0.16476 0.0
H3189 H 0.99853 0.33235 0.13189 0.0
H3190 H 0.98358 0.30901 0.05023 0.0
H3191 H 0.9934 0.31527 0.0783 0.0
loop_
_geom_bond_atom_site_label_1
_geom_bond_atom_site_label_2
_geom_bond_distance
_geom_bond_site_symmetry_2
_ccdc_geom_bond_type
O0 Cd1 2.300 . S
O0 C7 1.275 . S
Cd1 O0 2.300 . S
Cd1 O9 2.381 . S
Cd1 O10 2.378 . S
O2 Cd3 2.385 . S
O2 C7 1.255 . S
Cd3 O2 2.385 . S
Cd3 O4 2.317 . S
O4 Cd3 2.317 . S
O4 C5 1.232 . S
C5 O4 1.232 . S
C5 O6 1.218 . S
O6 C5 1.218 . S
C7 O0 1.275 . S
C7 O2 1.255 . S
C8 O9 1.258 . S
C8 O10 1.256 . S
O9 Cd1 2.381 . S
O9 C8 1.258 . S
O10 Cd1 2.378 . S
O10 C8 1.256 . S
O11 Cd12 2.300 . S
O11 C18 1.275 . S
Cd12 O11 2.300 . S
Cd12 O20 2.381 . S
Cd12 O21 2.378 . S
O13 Cd14 2.385 . S
O13 C18 1.255 . S
Cd14 O13 2.385 . S
Cd14 O15 2.317 . S
O15 Cd14 2.317 . S
O15 C16 1.232 . S
C16 O15 1.232 . S
C16 O17 1.218 . S
O17 C16 1.218 . S
C18 O11 1.275 . S
C18 O13 1.255 . S
C19 O20 1.258 . S
C19 O21 1.256 . S
O20 Cd12 2.381 . S
O20 C19 1.258 . S
O21 Cd12 2.378 . S
O21 C19 1.256 . S
O22 Cd23 2.300 . S
O22 C29 1.275 . S
Cd23 O22 2.300 . S
Cd23 O31 2.381 1_565 S
Cd23 O32 2.378 . S
O24 Cd25 2.385 . S
O24 C29 1.255 . S
Cd25 O24 2.385 . S
Cd25 O26 2.317 . S
O26 Cd25 2.317 . S
O26 C27 1.232 . S
C27 O26 1.232 . S
C27 O28 1.218 . S
O28 C27 1.218 . S
C29 O22 1.275 . S
C29 O24 1.255 . S
C30 O31 1.258 . S
C30 O32 1.256 1_545 S
O31 Cd23 2.381 1_545 S
O31 C30 1.258 . S
O32 Cd23 2.378 . S
O32 C30 1.256 1_565 S
O33 Cd34 2.300 . S
O33 C40 1.275 . S
Cd34 O33 2.300 . S
Cd34 O42 2.381 1_545 S
Cd34 O43 2.378 . S
O35 Cd36 2.385 . S
O35 C40 1.255 . S
Cd36 O35 2.385 . S
Cd36 O37 2.317 . S
O37 Cd36 2.317 . S
O37 C38 1.232 . S
C38 O37 1.232 . S
C38 O39 1.218 . S
O39 C38 1.218 . S
C40 O33 1.275 . S
C40 O35 1.255 . S
C41 O42 1.258 . S
C41 O43 1.256 1_565 S
O42 Cd34 2.381 1_565 S
O42 C41 1.258 . S
O43 Cd34 2.378 . S
O43 C41 1.256 1_545 S
O44 Cd45 2.300 . S
O44 C51 1.275 . S
Cd45 O44 2.300 . S
Cd45 O53 2.381 . S
Cd45 O54 2.378 . S
O46 Cd47 2.385 . S
O46 C51 1.255 . S
Cd47 O46 2.385 . S
Cd47 O48 2.317 . S
O48 Cd47 2.317 . S
O48 C49 1.232 . S
C49 O48 1.232 . S
C49 O50 1.218 . S
O50 C49 1.218 . S
C51 O44 1.275 . S
C51 O46 1.255 . S
C52 O53 1.258 . S
C52 O54 1.256 . S
O53 Cd45 2.381 . S
O53 C52 1.258 . S
O54 Cd45 2.378 . S
O54 C52 1.256 . S
O55 Cd56 2.300 . S
O55 C62 1.275 . S
Cd56 O55 2.300 . S
Cd56 O64 2.381 1_554 S
Cd56 O65 2.378 . S
O57 Cd58 2.385 . S
O57 C62 1.255 . S
Cd58 O57 2.385 . S
Cd58 O59 2.317 . S
O59 Cd58 2.317 . S
O59 C60 1.232 . S
C60 O59 1.232 . S
C60 O61 1.218 . S
O61 C60 1.218 . S
C62 O55 1.275 . S
C62 O57 1.255 . S
C63 O64 1.258 . S
C63 O65 1.256 1_556 S
O64 Cd56 2.381 1_556 S
O64 C63 1.258 . S
O65 Cd56 2.378 . S
O65 C63 1.256 1_554 S
O66 Cd67 2.300 . S
O66 C73 1.275 . S
Cd67 O66 2.300 . S
Cd67 O75 2.381 . S
Cd67 O76 2.378 . S
O68 Cd69 2.385 . S
O68 C73 1.255 . S
Cd69 O68 2.385 . S
Cd69 O70 2.317 . S
O70 Cd69 2.317 . S
O70 C71 1.232 . S
C71 O70 1.232 . S
C71 O72 1.218 . S
O72 C71 1.218 . S
C73 O66 1.275 . S
C73 O68 1.255 . S
C74 O75 1.258 . S
C74 O76 1.256 . S
O75 Cd67 2.381 . S
O75 C74 1.258 . S
O76 Cd67 2.378 . S
O76 C74 1.256 . S
O77 Cd78 2.300 . S
O77 C84 1.275 . S
Cd78 O77 2.300 . S
Cd78 O86 2.381 1_556 S
Cd78 O87 2.378 . S
O79 Cd80 2.385 . S
O79 C84 1.255 . S
Cd80 O79 2.385 . S
Cd80 O81 2.317 . S
O81 Cd80 2.317 . S
O81 C82 1.232 . S
C82 O81 1.232 . S
C82 O83 1.218 . S
O83 C82 1.218 . S
C84 O77 1.275 . S
C84 O79 1.255 . S
C85 O86 1.258 . S
C85 O87 1.256 1_554 S
O86 Cd78 2.381 1_554 S
O86 C85 1.258 . S
O87 Cd78 2.378 . S
O87 C85 1.256 1_556 S
O88 Cd89 2.300 . S
O88 C95 1.275 . S
Cd89 O88 2.300 . S
Cd89 O97 2.381 . S
Cd89 O98 2.378 . S
O90 Cd91 2.385 . S
O90 C95 1.255 . S
Cd91 O90 2.385 . S
Cd91 O92 2.317 . S
O92 Cd91 2.317 . S
O92 C93 1.232 . S
C93 O92 1.232 . S
C93 O94 1.218 . S
O94 C93 1.218 . S
C95 O88 1.275 . S
C95 O90 1.255 . S
C96 O97 1.258 . S
C96 O98 1.256 . S
O97 Cd89 2.381 . S
O97 C96 1.258 . S
O98 Cd89 2.378 . S
O98 C96 1.256 . S
O99 Cd100 2.300 . S
O99 C106 1.275 . S
Cd100 O99 2.300 . S
Cd100 O108 2.381 1_455 S
Cd100 O109 2.378 . S
O101 Cd102 2.385 . S
O101 C106 1.255 . S
Cd102 O101 2.385 . S
Cd102 O103 2.317 . S
O103 Cd102 2.317 . S
O103 C104 1.232 . S
C104 O103 1.232 . S
C104 O105 1.218 . S
O105 C104 1.218 . S
C106 O99 1.275 . S
C106 O101 1.255 . S
C107 O108 1.258 . S
C107 O109 1.256 1_655 S
O108 Cd100 2.381 1_655 S
O108 C107 1.258 . S
O109 Cd100 2.378 . S
O109 C107 1.256 1_455 S
O110 Cd111 2.300 . S
O110 C117 1.275 . S
Cd111 O110 2.300 . S
Cd111 O119 2.381 . S
Cd111 O120 2.378 . S
O112 Cd113 2.385 . S
O112 C117 1.255 . S
Cd113 O112 2.385 . S
Cd113 O114 2.317 . S
O114 Cd113 2.317 . S
O114 C115 1.232 . S
C115 O114 1.232 . S
C115 O116 1.218 . S
O116 C115 1.218 . S
C117 O110 1.275 . S
C117 O112 1.255 . S
C118 O119 1.258 . S
C118 O120 1.256 . S
O119 Cd111 2.381 . S
O119 C118 1.258 . S
O120 Cd111 2.378 . S
O120 C118 1.256 . S
O121 Cd122 2.300 . S
O121 C128 1.275 . S
Cd122 O121 2.300 . S
Cd122 O130 2.381 1_655 S
Cd122 O131 2.378 . S
O123 Cd124 2.385 . S
O123 C128 1.255 . S
Cd124 O123 2.385 . S
Cd124 O125 2.317 . S
O125 Cd124 2.317 . S
O125 C126 1.232 . S
C126 O125 1.232 . S
C126 O127 1.218 . S
O127 C126 1.218 . S
C128 O121 1.275 . S
C128 O123 1.255 . S
C129 O130 1.258 . S
C129 O131 1.256 1_455 S
O130 Cd122 2.381 1_455 S
O130 C129 1.258 . S
O131 Cd122 2.378 . S
O131 C129 1.256 1_655 S
O132 Cd133 2.300 . S
O132 C139 1.275 . S
Cd133 O132 2.300 . S
Cd133 O141 2.381 . S
Cd133 O142 2.378 . S
O134 Cd135 2.385 . S
O134 C139 1.255 . S
Cd135 O134 2.385 . S
Cd135 O136 2.317 . S
O136 Cd135 2.317 . S
O136 C137 1.232 . S
C137 O136 1.232 . S
C137 O138 1.218 . S
O138 C137 1.218 . S
C139 O132 1.275 . S
C139 O134 1.255 . S
C140 O141 1.258 . S
C140 O142 1.256 . S
O141 Cd133 2.381 . S
O141 C140 1.258 . S
O142 Cd133 2.378 . S
O142 C140 1.256 . S
O143 Cd144 2.300 . S
O143 C150 1.275 . S
Cd144 O143 2.300 . S
Cd144 O152 2.381 . S
Cd144 O153 2.378 . S
O145 Cd146 2.385 . S
O145 C150 1.255 . S
Cd146 O145 2.385 . S
Cd146 O147 2.317 . S
O147 Cd146 2.317 . S
O147 C148 1.232 . S
C148 O147 1.232 . S
C148 O149 1.218 . S
O149 C148 1.218 . S
C150 O143 1.275 . S
C150 O145 1.255 . S
C151 O152 1.258 . S
C151 O153 1.256 . S
O152 Cd144 2.381 . S
O152 C151 1.258 . S
O153 Cd144 2.378 . S
O153 C151 1.256 . S
O154 Cd155 2.300 1_545 S
O154 C161 1.275 . S
Cd155 O154 2.300 1_565 S
Cd155 O163 2.381 1_565 S
Cd155 O164 2.378 . S
O156 Cd157 2.385 . S
O156 C161 1.255 1_565 S
Cd157 O156 2.385 . S
Cd157 O158 2.317 . S
O158 Cd157 2.317 . S
O158 C159 1.232 . S
C159 O158 1.232 . S
C159 O160 1.218 . S
O160 C159 1.218 . S
C161 O154 1.275 . S
C161 O156 1.255 1_545 S
C162 O163 1.258 1_565 S
C162 O164 1.256 . S
O163 Cd155 2.381 1_545 S
O163 C162 1.258 1_545 S
O164 Cd155 2.378 . S
O164 C162 1.256 . S
O165 Cd166 2.300 1_565 S
O165 C172 1.275 . S
Cd166 O165 2.300 1_545 S
Cd166 O174 2.381 1_545 S
Cd166 O175 2.378 . S
O167 Cd168 2.385 . S
O167 C172 1.255 1_545 S
Cd168 O167 2.385 . S
Cd168 O169 2.317 . S
O169 Cd168 2.317 . S
O169 C170 1.232 . S
C170 O169 1.232 . S
C170 O171 1.218 . S
O171 C170 1.218 . S
C172 O165 1.275 . S
C172 O167 1.255 1_565 S
C173 O174 1.258 1_545 S
C173 O175 1.256 . S
O174 Cd166 2.381 1_565 S
O174 C173 1.258 1_565 S
O175 Cd166 2.378 . S
O175 C173 1.256 . S
O176 Cd177 2.300 . S
O176 C183 1.275 . S
Cd177 O176 2.300 . S
Cd177 O185 2.381 . S
Cd177 O186 2.378 . S
O178 Cd179 2.385 . S
O178 C183 1.255 . S
Cd179 O178 2.385 . S
Cd179 O180 2.317 . S
O180 Cd179 2.317 . S
O180 C181 1.232 . S
C181 O180 1.232 . S
C181 O182 1.218 . S
O182 C181 1.218 . S
C183 O176 1.275 . S
C183 O178 1.255 . S
C184 O185 1.258 . S
C184 O186 1.256 . S
O185 Cd177 2.381 . S
O185 C184 1.258 . S
O186 Cd177 2.378 . S
O186 C184 1.256 . S
O187 Cd188 2.300 1_556 S
O187 C194 1.275 . S
Cd188 O187 2.300 1_554 S
Cd188 O196 2.381 1_554 S
Cd188 O197 2.378 . S
O189 Cd190 2.385 . S
O189 C194 1.255 1_554 S
Cd190 O189 2.385 . S
Cd190 O191 2.317 . S
O191 Cd190 2.317 . S
O191 C192 1.232 . S
C192 O191 1.232 . S
C192 O193 1.218 . S
O193 C192 1.218 . S
C194 O187 1.275 . S
C194 O189 1.255 1_556 S
C195 O196 1.258 1_554 S
C195 O197 1.256 . S
O196 Cd188 2.381 1_556 S
O196 C195 1.258 1_556 S
O197 Cd188 2.378 . S
O197 C195 1.256 . S
O198 Cd199 2.300 . S
O198 C205 1.275 . S
Cd199 O198 2.300 . S
Cd199 O207 2.381 . S
Cd199 O208 2.378 . S
O200 Cd201 2.385 . S
O200 C205 1.255 . S
Cd201 O200 2.385 . S
Cd201 O202 2.317 . S
O202 Cd201 2.317 . S
O202 C203 1.232 . S
C203 O202 1.232 . S
C203 O204 1.218 . S
O204 C203 1.218 . S
C205 O198 1.275 . S
C205 O200 1.255 . S
C206 O207 1.258 . S
C206 O208 1.256 . S
O207 Cd199 2.381 . S
O207 C206 1.258 . S
O208 Cd199 2.378 . S
O208 C206 1.256 . S
O209 Cd210 2.300 1_554 S
O209 C216 1.275 . S
Cd210 O209 2.300 1_556 S
Cd210 O218 2.381 1_556 S
Cd210 O219 2.378 . S
O211 Cd212 2.385 . S
O211 C216 1.255 1_556 S
Cd212 O211 2.385 . S
Cd212 O213 2.317 . S
O213 Cd212 2.317 . S
O213 C214 1.232 . S
C214 O213 1.232 . S
C214 O215 1.218 . S
O215 C214 1.218 . S
C216 O209 1.275 . S
C216 O211 1.255 1_554 S
C217 O218 1.258 1_556 S
C217 O219 1.256 . S
O218 Cd210 2.381 1_554 S
O218 C217 1.258 1_554 S
O219 Cd210 2.378 . S
O219 C217 1.256 . S
O220 Cd221 2.300 . S
O220 C227 1.275 . S
Cd221 O220 2.300 . S
Cd221 O229 2.381 . S
Cd221 O230 2.378 . S
O222 Cd223 2.385 . S
O222 C227 1.255 . S
Cd223 O222 2.385 . S
Cd223 O224 2.317 . S
O224 Cd223 2.317 . S
O224 C225 1.232 . S
C225 O224 1.232 . S
C225 O226 1.218 . S
O226 C225 1.218 . S
C227 O220 1.275 . S
C227 O222 1.255 . S
C228 O229 1.258 . S
C228 O230 1.256 . S
O229 Cd221 2.381 . S
O229 C228 1.258 . S
O230 Cd221 2.378 . S
O230 C228 1.256 . S
O231 Cd232 2.300 1_655 S
O231 C238 1.275 . S
Cd232 O231 2.300 1_455 S
Cd232 O240 2.381 1_455 S
Cd232 O241 2.378 . S
O233 Cd234 2.385 . S
O233 C238 1.255 1_455 S
Cd234 O233 2.385 . S
Cd234 O235 2.317 . S
O235 Cd234 2.317 . S
O235 C236 1.232 . S
C236 O235 1.232 . S
C236 O237 1.218 . S
O237 C236 1.218 . S
C238 O231 1.275 . S
C238 O233 1.255 1_655 S
C239 O240 1.258 1_455 S
C239 O241 1.256 . S
O240 Cd232 2.381 1_655 S
O240 C239 1.258 1_655 S
O241 Cd232 2.378 . S
O241 C239 1.256 . S
O242 Cd243 2.300 . S
O242 C249 1.275 . S
Cd243 O242 2.300 . S
Cd243 O251 2.381 . S
Cd243 O252 2.378 . S
O244 Cd245 2.385 . S
O244 C249 1.255 . S
Cd245 O244 2.385 . S
Cd245 O246 2.317 . S
O246 Cd245 2.317 . S
O246 C247 1.232 . S
C247 O246 1.232 . S
C247 O248 1.218 . S
O248 C247 1.218 . S
C249 O242 1.275 . S
C249 O244 1.255 . S
C250 O251 1.258 . S
C250 O252 1.256 . S
O251 Cd243 2.381 . S
O251 C250 1.258 . S
O252 Cd243 2.378 . S
O252 C250 1.256 . S
O253 Cd254 2.300 1_455 S
O253 C260 1.275 . S
Cd254 O253 2.300 1_655 S
Cd254 O262 2.381 1_655 S
Cd254 O263 2.378 . S
O255 Cd256 2.385 . S
O255 C260 1.255 1_655 S
Cd256 O255 2.385 . S
Cd256 O257 2.317 . S
O257 Cd256 2.317 . S
O257 C258 1.232 . S
C258 O257 1.232 . S
C258 O259 1.218 . S
O259 C258 1.218 . S
C260 O253 1.275 . S
C260 O255 1.255 1_455 S
C261 O262 1.258 1_655 S
C261 O263 1.256 . S
O262 Cd254 2.381 1_455 S
O262 C261 1.258 1_455 S
O263 Cd254 2.378 . S
O263 C261 1.256 . S
P264 O275 1.490 . S
P264 C278 1.812 . S
P264 C284 1.803 . S
P264 C290 1.819 . S
H265 C279 0.941 . S
H266 C280 0.939 . S
H267 C282 0.940 . S
H268 C283 0.940 . S
H269 C285 0.939 . S
H270 C286 0.942 . S
H271 C288 0.940 . S
H272 C289 0.939 . S
H273 C291 0.941 . S
H274 C295 0.939 . S
O275 P264 1.490 . S
H276 C292 0.939 . S
H277 C294 0.940 . S
C278 P264 1.812 . S
C278 C279 1.389 . S
C278 C283 1.391 . S
C279 H265 0.941 . S
C279 C278 1.389 . S
C279 C280 1.397 . S
C280 H266 0.939 . S
C280 C279 1.397 . S
C280 C281 1.378 . S
C281 C280 1.378 . S
C281 C282 1.378 . S
C282 H267 0.940 . S
C282 C281 1.378 . S
C282 C283 1.396 . S
C283 H268 0.940 . S
C283 C278 1.391 . S
C283 C282 1.396 . S
C284 P264 1.803 . S
C284 C285 1.378 . S
C284 C289 1.400 . S
C285 H269 0.939 . S
C285 C284 1.378 . S
C285 C286 1.361 . S
C286 H270 0.942 . S
C286 C285 1.361 . S
C286 C287 1.369 . S
C287 C286 1.369 . S
C287 C288 1.404 . S
C288 H271 0.940 . S
C288 C287 1.404 . S
C288 C289 1.389 . S
C289 H272 0.939 . S
C289 C284 1.400 . S
C289 C288 1.389 . S
C290 P264 1.819 . S
C290 C291 1.391 . S
C290 C295 1.391 . S
C291 H273 0.941 . S
C291 C290 1.391 . S
C291 C292 1.396 . S
C292 H276 0.939 . S
C292 C291 1.396 . S
C292 C293 1.397 . S
C293 C292 1.397 . S
C293 C294 1.385 . S
C294 H277 0.940 . S
C294 C293 1.385 . S
C294 C295 1.388 . S
C295 H274 0.939 . S
C295 C290 1.391 . S
C295 C294 1.388 . S
P296 O307 1.490 . S
P296 C310 1.812 . S
P296 C316 1.803 . S
P296 C322 1.819 . S
H297 C311 0.941 . S
H298 C312 0.939 . S
H299 C314 0.940 . S
H300 C315 0.940 . S
H301 C317 0.939 . S
H302 C318 0.942 . S
H303 C320 0.940 . S
H304 C321 0.939 . S
H305 C323 0.941 . S
H306 C327 0.939 . S
O307 P296 1.490 . S
H308 C324 0.939 . S
H309 C326 0.940 . S
C310 P296 1.812 . S
C310 C311 1.389 . S
C310 C315 1.391 . S
C311 H297 0.941 . S
C311 C310 1.389 . S
C311 C312 1.397 . S
C312 H298 0.939 . S
C312 C311 1.397 . S
C312 C313 1.378 . S
C313 C312 1.378 . S
C313 C314 1.378 . S
C314 H299 0.940 . S
C314 C313 1.378 . S
C314 C315 1.396 . S
C315 H300 0.940 . S
C315 C310 1.391 . S
C315 C314 1.396 . S
C316 P296 1.803 . S
C316 C317 1.378 . S
C316 C321 1.400 . S
C317 H301 0.939 . S
C317 C316 1.378 . S
C317 C318 1.361 . S
C318 H302 0.942 . S
C318 C317 1.361 . S
C318 C319 1.369 . S
C319 C318 1.369 . S
C319 C320 1.404 . S
C320 H303 0.940 . S
C320 C319 1.404 . S
C320 C321 1.389 . S
C321 H304 0.939 . S
C321 C316 1.400 . S
C321 C320 1.389 . S
C322 P296 1.819 . S
C322 C323 1.391 . S
C322 C327 1.391 . S
C323 H305 0.941 . S
C323 C322 1.391 . S
C323 C324 1.396 . S
C324 H308 0.939 . S
C324 C323 1.396 . S
C324 C325 1.397 . S
C325 C324 1.397 . S
C325 C326 1.385 . S
C326 H309 0.940 . S
C326 C325 1.385 . S
C326 C327 1.388 . S
C327 H306 0.939 . S
C327 C322 1.391 . S
C327 C326 1.388 . S
P328 O339 1.488 . S
P328 C342 1.769 1_545 S
P328 C348 1.846 . S
P328 C354 1.823 . S
H329 C343 0.941 . S
H330 C344 0.939 . S
H331 C346 0.940 . S
H332 C347 0.940 . S
H333 C349 0.939 . S
H334 C350 0.942 . S
H335 C352 0.940 . S
H336 C353 0.939 . S
H337 C355 0.941 . S
H338 C359 0.939 . S
O339 P328 1.488 . S
H340 C356 0.939 . S
H341 C358 0.940 . S
C342 P328 1.769 1_565 S
C342 C343 1.389 . S
C342 C347 1.391 . S
C343 H329 0.941 . S
C343 C342 1.389 . S
C343 C344 1.397 . S
C344 H330 0.939 . S
C344 C343 1.397 . S
C344 C345 1.378 . S
C345 C344 1.378 . S
C345 C346 1.378 . S
C346 H331 0.940 . S
C346 C345 1.378 . S
C346 C347 1.396 . S
C347 H332 0.940 . S
C347 C342 1.391 . S
C347 C346 1.396 . S
C348 P328 1.846 . S
C348 C349 1.378 . S
C348 C353 1.400 . S
C349 H333 0.939 . S
C349 C348 1.378 . S
C349 C350 1.361 . S
C350 H334 0.942 . S
C350 C349 1.361 . S
C350 C351 1.369 . S
C351 C350 1.369 . S
C351 C352 1.404 . S
C352 H335 0.940 . S
C352 C351 1.404 . S
C352 C353 1.389 . S
C353 H336 0.939 . S
C353 C348 1.400 . S
C353 C352 1.389 . S
C354 P328 1.823 . S
C354 C355 1.391 1_545 S
C354 C359 1.391 . S
C355 H337 0.941 . S
C355 C354 1.391 1_565 S
C355 C356 1.396 . S
C356 H340 0.939 . S
C356 C355 1.396 . S
C356 C357 1.397 1_565 S
C357 C356 1.397 1_545 S
C357 C358 1.385 . S
C358 H341 0.940 . S
C358 C357 1.385 . S
C358 C359 1.388 . S
C359 H338 0.939 . S
C359 C354 1.391 . S
C359 C358 1.388 . S
P360 O371 1.490 . S
P360 C374 1.812 1_565 S
P360 C380 1.803 . S
P360 C386 1.819 . S
H361 C375 0.941 . S
H362 C376 0.939 . S
H363 C378 0.940 . S
H364 C379 0.940 . S
H365 C381 0.939 . S
H366 C382 0.942 . S
H367 C384 0.940 . S
H368 C385 0.939 . S
H369 C387 0.941 . S
H370 C391 0.939 . S
O371 P360 1.490 . S
H372 C388 0.939 . S
H373 C390 0.940 . S
C374 P360 1.812 1_545 S
C374 C375 1.389 . S
C374 C379 1.391 . S
C375 H361 0.941 . S
C375 C374 1.389 . S
C375 C376 1.397 . S
C376 H362 0.939 . S
C376 C375 1.397 . S
C376 C377 1.378 . S
C377 C376 1.378 . S
C377 C378 1.378 . S
C378 H363 0.940 . S
C378 C377 1.378 . S
C378 C379 1.396 . S
C379 H364 0.940 . S
C379 C374 1.391 . S
C379 C378 1.396 . S
C380 P360 1.803 . S
C380 C381 1.378 . S
C380 C385 1.400 . S
C381 H365 0.939 . S
C381 C380 1.378 . S
C381 C382 1.361 . S
C382 H366 0.942 . S
C382 C381 1.361 . S
C382 C383 1.369 . S
C383 C382 1.369 . S
C383 C384 1.404 . S
C384 H367 0.940 . S
C384 C383 1.404 . S
C384 C385 1.389 . S
C385 H368 0.939 . S
C385 C380 1.400 . S
C385 C384 1.389 . S
C386 P360 1.819 . S
C386 C387 1.391 1_565 S
C386 C391 1.391 . S
C387 H369 0.941 . S
C387 C386 1.391 1_545 S
C387 C388 1.396 . S
C388 H372 0.939 . S
C388 C387 1.396 . S
C388 C389 1.446 . S
C389 C388 1.446 . S
C389 C390 1.338 1_545 S
C390 H373 0.940 . S
C390 C389 1.338 1_565 S
C390 C391 1.388 . S
C391 H370 0.939 . S
C391 C386 1.391 . S
C391 C390 1.388 . S
P392 O403 1.490 . S
P392 C406 1.812 . S
P392 C412 1.803 . S
P392 C418 1.819 . S
H393 C407 0.941 . S
H394 C408 0.939 . S
H395 C410 0.940 . S
H396 C411 0.940 . S
H397 C413 0.939 . S
H398 C414 0.942 . S
H399 C416 0.940 . S
H400 C417 0.939 . S
H401 C419 0.941 . S
H402 C423 0.939 . S
O403 P392 1.490 . S
H404 C420 0.939 . S
H405 C422 0.940 . S
C406 P392 1.812 . S
C406 C407 1.389 . S
C406 C411 1.391 . S
C407 H393 0.941 . S
C407 C406 1.389 . S
C407 C408 1.397 . S
C408 H394 0.939 . S
C408 C407 1.397 . S
C408 C409 1.378 . S
C409 C408 1.378 . S
C409 C410 1.378 . S
C410 H395 0.940 . S
C410 C409 1.378 . S
C410 C411 1.396 . S
C411 H396 0.940 . S
C411 C406 1.391 . S
C411 C410 1.396 . S
C412 P392 1.803 . S
C412 C413 1.378 . S
C412 C417 1.400 . S
C413 H397 0.939 . S
C413 C412 1.378 . S
C413 C414 1.361 . S
C414 H398 0.942 . S
C414 C413 1.361 . S
C414 C415 1.369 . S
C415 C414 1.369 . S
C415 C416 1.404 . S
C416 H399 0.940 . S
C416 C415 1.404 . S
C416 C417 1.389 . S
C417 H400 0.939 . S
C417 C412 1.400 . S
C417 C416 1.389 . S
C418 P392 1.819 . S
C418 C419 1.391 . S
C418 C423 1.391 . S
C419 H401 0.941 . S
C419 C418 1.391 . S
C419 C420 1.396 . S
C420 H404 0.939 . S
C420 C419 1.396 . S
C420 C421 1.397 . S
C421 C420 1.397 . S
C421 C422 1.385 . S
C422 H405 0.940 . S
C422 C421 1.385 . S
C422 C423 1.388 . S
C423 H402 0.939 . S
C423 C418 1.391 . S
C423 C422 1.388 . S
P424 O435 1.490 . S
P424 C438 1.812 1_556 S
P424 C444 1.803 . S
P424 C450 1.819 . S
H425 C439 0.941 . S
H426 C440 0.939 . S
H427 C442 0.940 . S
H428 C443 0.940 . S
H429 C445 0.939 . S
H430 C446 0.942 . S
H431 C448 0.940 . S
H432 C449 0.939 . S
H433 C451 0.941 . S
H434 C455 0.939 . S
O435 P424 1.490 . S
H436 C452 0.939 . S
H437 C454 0.940 . S
C438 P424 1.812 1_554 S
C438 C439 1.389 . S
C438 C443 1.391 . S
C439 H425 0.941 . S
C439 C438 1.389 . S
C439 C440 1.397 . S
C440 H426 0.939 . S
C440 C439 1.397 . S
C440 C441 1.378 . S
C441 C440 1.378 . S
C441 C442 1.378 . S
C442 H427 0.940 . S
C442 C441 1.378 . S
C442 C443 1.396 . S
C443 H428 0.940 . S
C443 C438 1.391 . S
C443 C442 1.396 . S
C444 P424 1.803 . S
C444 C445 1.378 . S
C444 C449 1.400 . S
C445 H429 0.939 . S
C445 C444 1.378 . S
C445 C446 1.361 . S
C446 H430 0.942 . S
C446 C445 1.361 . S
C446 C447 1.369 . S
C447 C446 1.369 . S
C447 C448 1.404 . S
C448 H431 0.940 . S
C448 C447 1.404 . S
C448 C449 1.389 . S
C449 H432 0.939 . S
C449 C444 1.400 . S
C449 C448 1.389 . S
C450 P424 1.819 . S
C450 C451 1.391 1_556 S
C450 C455 1.391 . S
C451 H433 0.941 . S
C451 C450 1.391 1_554 S
C451 C452 1.396 . S
C452 H436 0.939 . S
C452 C451 1.396 . S
C452 C453 1.446 . S
C453 C452 1.446 . S
C453 C454 1.338 1_554 S
C454 H437 0.940 . S
C454 C453 1.338 1_556 S
C454 C455 1.388 . S
C455 H434 0.939 . S
C455 C450 1.391 . S
C455 C454 1.388 . S
P456 O467 1.490 . S
P456 C470 1.812 . S
P456 C476 1.803 . S
P456 C482 1.819 . S
H457 C471 0.941 . S
H458 C472 0.939 . S
H459 C474 0.940 . S
H460 C475 0.940 . S
H461 C477 0.939 . S
H462 C478 0.942 . S
H463 C480 0.940 . S
H464 C481 0.939 . S
H465 C483 0.941 . S
H466 C487 0.939 . S
O467 P456 1.490 . S
H468 C484 0.939 . S
H469 C486 0.940 . S
C470 P456 1.812 . S
C470 C471 1.389 . S
C470 C475 1.391 . S
C471 H457 0.941 . S
C471 C470 1.389 . S
C471 C472 1.397 . S
C472 H458 0.939 . S
C472 C471 1.397 . S
C472 C473 1.378 . S
C473 C472 1.378 . S
C473 C474 1.378 . S
C474 H459 0.940 . S
C474 C473 1.378 . S
C474 C475 1.396 . S
C475 H460 0.940 . S
C475 C470 1.391 . S
C475 C474 1.396 . S
C476 P456 1.803 . S
C476 C477 1.378 . S
C476 C481 1.400 . S
C477 H461 0.939 . S
C477 C476 1.378 . S
C477 C478 1.361 . S
C478 H462 0.942 . S
C478 C477 1.361 . S
C478 C479 1.369 . S
C479 C478 1.369 . S
C479 C480 1.404 . S
C480 H463 0.940 . S
C480 C479 1.404 . S
C480 C481 1.389 . S
C481 H464 0.939 . S
C481 C476 1.400 . S
C481 C480 1.389 . S
C482 P456 1.819 . S
C482 C483 1.391 . S
C482 C487 1.391 . S
C483 H465 0.941 . S
C483 C482 1.391 . S
C483 C484 1.396 . S
C484 H468 0.939 . S
C484 C483 1.396 . S
C484 C485 1.397 . S
C485 C484 1.397 . S
C485 C486 1.385 . S
C486 H469 0.940 . S
C486 C485 1.385 . S
C486 C487 1.388 . S
C487 H466 0.939 . S
C487 C482 1.391 . S
C487 C486 1.388 . S
P488 O499 1.488 . S
P488 C502 1.769 1_554 S
P488 C508 1.846 . S
P488 C514 1.823 . S
H489 C503 0.941 . S
H490 C504 0.939 . S
H491 C506 0.940 . S
H492 C507 0.940 . S
H493 C509 0.939 . S
H494 C510 0.942 . S
H495 C512 0.940 . S
H496 C513 0.939 . S
H497 C515 0.941 . S
H498 C519 0.939 . S
O499 P488 1.488 . S
H500 C516 0.939 . S
H501 C518 0.940 . S
C502 P488 1.769 1_556 S
C502 C503 1.389 . S
C502 C507 1.391 . S
C503 H489 0.941 . S
C503 C502 1.389 . S
C503 C504 1.397 . S
C504 H490 0.939 . S
C504 C503 1.397 . S
C504 C505 1.378 . S
C505 C504 1.378 . S
C505 C506 1.378 . S
C506 H491 0.940 . S
C506 C505 1.378 . S
C506 C507 1.396 . S
C507 H492 0.940 . S
C507 C502 1.391 . S
C507 C506 1.396 . S
C508 P488 1.846 . S
C508 C509 1.378 . S
C508 C513 1.400 . S
C509 H493 0.939 . S
C509 C508 1.378 . S
C509 C510 1.361 . S
C510 H494 0.942 . S
C510 C509 1.361 . S
C510 C511 1.369 . S
C511 C510 1.369 . S
C511 C512 1.404 . S
C512 H495 0.940 . S
C512 C511 1.404 . S
C512 C513 1.389 . S
C513 H496 0.939 . S
C513 C508 1.400 . S
C513 C512 1.389 . S
C514 P488 1.823 . S
C514 C515 1.391 1_554 S
C514 C519 1.391 . S
C515 H497 0.941 . S
C515 C514 1.391 1_556 S
C515 C516 1.396 . S
C516 H500 0.939 . S
C516 C515 1.396 . S
C516 C517 1.397 1_556 S
C517 C516 1.397 1_554 S
C517 C518 1.385 . S
C518 H501 0.940 . S
C518 C517 1.385 . S
C518 C519 1.388 . S
C519 H498 0.939 . S
C519 C514 1.391 . S
C519 C518 1.388 . S
P520 O531 1.490 . S
P520 C534 1.812 . S
P520 C540 1.803 . S
P520 C546 1.819 . S
H521 C535 0.941 . S
H522 C536 0.939 . S
H523 C538 0.940 . S
H524 C539 0.940 . S
H525 C541 0.939 . S
H526 C542 0.942 . S
H527 C544 0.940 . S
H528 C545 0.939 . S
H529 C547 0.941 . S
H530 C551 0.939 . S
O531 P520 1.490 . S
H532 C548 0.939 . S
H533 C550 0.940 . S
C534 P520 1.812 . S
C534 C535 1.389 . S
C534 C539 1.391 . S
C535 H521 0.941 . S
C535 C534 1.389 . S
C535 C536 1.397 . S
C536 H522 0.939 . S
C536 C535 1.397 . S
C536 C537 1.378 . S
C537 C536 1.378 . S
C537 C538 1.378 . S
C538 H523 0.940 . S
C538 C537 1.378 . S
C538 C539 1.396 . S
C539 H524 0.940 . S
C539 C534 1.391 . S
C539 C538 1.396 . S
C540 P520 1.803 . S
C540 C541 1.378 . S
C540 C545 1.400 . S
C541 H525 0.939 . S
C541 C540 1.378 . S
C541 C542 1.361 . S
C542 H526 0.942 . S
C542 C541 1.361 . S
C542 C543 1.369 . S
C543 C542 1.369 . S
C543 C544 1.404 . S
C544 H527 0.940 . S
C544 C543 1.404 . S
C544 C545 1.389 . S
C545 H528 0.939 . S
C545 C540 1.400 . S
C545 C544 1.389 . S
C546 P520 1.819 . S
C546 C547 1.391 . S
C546 C551 1.391 . S
C547 H529 0.941 . S
C547 C546 1.391 . S
C547 C548 1.396 . S
C548 H532 0.939 . S
C548 C547 1.396 . S
C548 C549 1.397 . S
C549 C548 1.397 . S
C549 C550 1.385 . S
C550 H533 0.940 . S
C550 C549 1.385 . S
C550 C551 1.388 . S
C551 H530 0.939 . S
C551 C546 1.391 . S
C551 C550 1.388 . S
P552 O563 1.490 . S
P552 C566 1.812 1_655 S
P552 C572 1.803 . S
P552 C578 1.819 . S
H553 C567 0.941 . S
H554 C568 0.939 . S
H555 C570 0.940 . S
H556 C571 0.940 . S
H557 C573 0.939 . S
H558 C574 0.942 . S
H559 C576 0.940 . S
H560 C577 0.939 . S
H561 C579 0.941 . S
H562 C583 0.939 . S
O563 P552 1.490 . S
H564 C580 0.939 . S
H565 C582 0.940 . S
C566 P552 1.812 1_455 S
C566 C567 1.389 . S
C566 C571 1.391 . S
C567 H553 0.941 . S
C567 C566 1.389 . S
C567 C568 1.397 . S
C568 H554 0.939 . S
C568 C567 1.397 . S
C568 C569 1.378 . S
C569 C568 1.378 . S
C569 C570 1.378 . S
C570 H555 0.940 . S
C570 C569 1.378 . S
C570 C571 1.396 . S
C571 H556 0.940 . S
C571 C566 1.391 . S
C571 C570 1.396 . S
C572 P552 1.803 . S
C572 C573 1.378 . S
C572 C577 1.400 . S
C573 H557 0.939 . S
C573 C572 1.378 . S
C573 C574 1.361 . S
C574 H558 0.942 . S
C574 C573 1.361 . S
C574 C575 1.369 . S
C575 C574 1.369 . S
C575 C576 1.404 . S
C576 H559 0.940 . S
C576 C575 1.404 . S
C576 C577 1.389 . S
C577 H560 0.939 . S
C577 C572 1.400 . S
C577 C576 1.389 . S
C578 P552 1.819 . S
C578 C579 1.391 1_655 S
C578 C583 1.391 . S
C579 H561 0.941 . S
C579 C578 1.391 1_455 S
C579 C580 1.396 . S
C580 H564 0.939 . S
C580 C579 1.396 . S
C580 C581 1.446 . S
C581 C580 1.446 . S
C581 C582 1.338 1_455 S
C582 H565 0.940 . S
C582 C581 1.338 1_655 S
C582 C583 1.388 . S
C583 H562 0.939 . S
C583 C578 1.391 . S
C583 C582 1.388 . S
P584 O595 1.490 . S
P584 C598 1.812 . S
P584 C604 1.803 . S
P584 C610 1.819 . S
H585 C599 0.941 . S
H586 C600 0.939 . S
H587 C602 0.940 . S
H588 C603 0.940 . S
H589 C605 0.939 . S
H590 C606 0.942 . S
H591 C608 0.940 . S
H592 C609 0.939 . S
H593 C611 0.941 . S
H594 C615 0.939 . S
O595 P584 1.490 . S
H596 C612 0.939 . S
H597 C614 0.940 . S
C598 P584 1.812 . S
C598 C599 1.389 . S
C598 C603 1.391 . S
C599 H585 0.941 . S
C599 C598 1.389 . S
C599 C600 1.397 . S
C600 H586 0.939 . S
C600 C599 1.397 . S
C600 C601 1.378 . S
C601 C600 1.378 . S
C601 C602 1.378 . S
C602 H587 0.940 . S
C602 C601 1.378 . S
C602 C603 1.396 . S
C603 H588 0.940 . S
C603 C598 1.391 . S
C603 C602 1.396 . S
C604 P584 1.803 . S
C604 C605 1.378 . S
C604 C609 1.400 . S
C605 H589 0.939 . S
C605 C604 1.378 . S
C605 C606 1.361 . S
C606 H590 0.942 . S
C606 C605 1.361 . S
C606 C607 1.369 . S
C607 C606 1.369 . S
C607 C608 1.404 . S
C608 H591 0.940 . S
C608 C607 1.404 . S
C608 C609 1.389 . S
C609 H592 0.939 . S
C609 C604 1.400 . S
C609 C608 1.389 . S
C610 P584 1.819 . S
C610 C611 1.391 . S
C610 C615 1.391 . S
C611 H593 0.941 . S
C611 C610 1.391 . S
C611 C612 1.396 . S
C612 H596 0.939 . S
C612 C611 1.396 . S
C612 C613 1.397 . S
C613 C612 1.397 . S
C613 C614 1.385 . S
C614 H597 0.940 . S
C614 C613 1.385 . S
C614 C615 1.388 . S
C615 H594 0.939 . S
C615 C610 1.391 . S
C615 C614 1.388 . S
P616 O627 1.488 . S
P616 C630 1.769 1_455 S
P616 C636 1.846 . S
P616 C642 1.823 . S
H617 C631 0.941 . S
H618 C632 0.939 . S
H619 C634 0.940 . S
H620 C635 0.940 . S
H621 C637 0.939 . S
H622 C638 0.942 . S
H623 C640 0.940 . S
H624 C641 0.939 . S
H625 C643 0.941 . S
H626 C647 0.939 . S
O627 P616 1.488 . S
H628 C644 0.939 . S
H629 C646 0.940 . S
C630 P616 1.769 1_655 S
C630 C631 1.389 . S
C630 C635 1.391 . S
C631 H617 0.941 . S
C631 C630 1.389 . S
C631 C632 1.397 . S
C632 H618 0.939 . S
C632 C631 1.397 . S
C632 C633 1.378 . S
C633 C632 1.378 . S
C633 C634 1.378 . S
C634 H619 0.940 . S
C634 C633 1.378 . S
C634 C635 1.396 . S
C635 H620 0.940 . S
C635 C630 1.391 . S
C635 C634 1.396 . S
C636 P616 1.846 . S
C636 C637 1.378 . S
C636 C641 1.400 . S
C637 H621 0.939 . S
C637 C636 1.378 . S
C637 C638 1.361 . S
C638 H622 0.942 . S
C638 C637 1.361 . S
C638 C639 1.369 . S
C639 C638 1.369 . S
C639 C640 1.404 . S
C640 H623 0.940 . S
C640 C639 1.404 . S
C640 C641 1.389 . S
C641 H624 0.939 . S
C641 C636 1.400 . S
C641 C640 1.389 . S
C642 P616 1.823 . S
C642 C643 1.391 1_455 S
C642 C647 1.391 . S
C643 H625 0.941 . S
C643 C642 1.391 1_655 S
C643 C644 1.396 . S
C644 H628 0.939 . S
C644 C643 1.396 . S
C644 C645 1.397 1_655 S
C645 C644 1.397 1_455 S
C645 C646 1.385 . S
C646 H629 0.940 . S
C646 C645 1.385 . S
C646 C647 1.388 . S
C647 H626 0.939 . S
C647 C642 1.391 . S
C647 C646 1.388 . S
P648 O659 1.490 . S
P648 C662 1.812 . S
P648 C668 1.803 . S
P648 C674 1.819 . S
H649 C663 0.941 . S
H650 C664 0.939 . S
H651 C666 0.940 . S
H652 C667 0.940 . S
H653 C669 0.939 . S
H654 C670 0.942 . S
H655 C672 0.940 . S
H656 C673 0.939 . S
H657 C675 0.941 . S
H658 C679 0.939 . S
O659 P648 1.490 . S
H660 C676 0.939 . S
H661 C678 0.940 . S
C662 P648 1.812 . S
C662 C663 1.389 . S
C662 C667 1.391 . S
C663 H649 0.941 . S
C663 C662 1.389 . S
C663 C664 1.397 . S
C664 H650 0.939 . S
C664 C663 1.397 . S
C664 C665 1.378 . S
C665 C664 1.378 . S
C665 C666 1.378 . S
C666 H651 0.940 . S
C666 C665 1.378 . S
C666 C667 1.396 . S
C667 H652 0.940 . S
C667 C662 1.391 . S
C667 C666 1.396 . S
C668 P648 1.803 . S
C668 C669 1.378 . S
C668 C673 1.400 . S
C669 H653 0.939 . S
C669 C668 1.378 . S
C669 C670 1.361 . S
C670 H654 0.942 . S
C670 C669 1.361 . S
C670 C671 1.369 . S
C671 C670 1.369 . S
C671 C672 1.404 . S
C672 H655 0.940 . S
C672 C671 1.404 . S
C672 C673 1.389 . S
C673 H656 0.939 . S
C673 C668 1.400 . S
C673 C672 1.389 . S
C674 P648 1.819 . S
C674 C675 1.391 . S
C674 C679 1.391 . S
C675 H657 0.941 . S
C675 C674 1.391 . S
C675 C676 1.396 . S
C676 H660 0.939 . S
C676 C675 1.396 . S
C676 C677 1.397 . S
C677 C676 1.397 . S
C677 C678 1.385 . S
C678 H661 0.940 . S
C678 C677 1.385 . S
C678 C679 1.388 . S
C679 H658 0.939 . S
C679 C674 1.391 . S
C679 C678 1.388 . S
P680 O691 1.490 . S
P680 C694 1.812 . S
P680 C700 1.803 . S
P680 C706 1.819 . S
H681 C695 0.941 . S
H682 C696 0.939 . S
H683 C698 0.940 . S
H684 C699 0.940 . S
H685 C701 0.939 . S
H686 C702 0.942 . S
H687 C704 0.940 . S
H688 C705 0.939 . S
H689 C707 0.941 . S
H690 C711 0.939 . S
O691 P680 1.490 . S
H692 C708 0.939 . S
H693 C710 0.940 . S
C694 P680 1.812 . S
C694 C695 1.389 . S
C694 C699 1.391 . S
C695 H681 0.941 . S
C695 C694 1.389 . S
C695 C696 1.397 . S
C696 H682 0.939 . S
C696 C695 1.397 . S
C696 C697 1.378 . S
C697 C696 1.378 . S
C697 C698 1.378 . S
C698 H683 0.940 . S
C698 C697 1.378 . S
C698 C699 1.396 . S
C699 H684 0.940 . S
C699 C694 1.391 . S
C699 C698 1.396 . S
C700 P680 1.803 . S
C700 C701 1.378 . S
C700 C705 1.400 . S
C701 H685 0.939 . S
C701 C700 1.378 . S
C701 C702 1.361 . S
C702 H686 0.942 . S
C702 C701 1.361 . S
C702 C703 1.369 . S
C703 C702 1.369 . S
C703 C704 1.404 . S
C704 H687 0.940 . S
C704 C703 1.404 . S
C704 C705 1.389 . S
C705 H688 0.939 . S
C705 C700 1.400 . S
C705 C704 1.389 . S
C706 P680 1.819 . S
C706 C707 1.391 . S
C706 C711 1.391 . S
C707 H689 0.941 . S
C707 C706 1.391 . S
C707 C708 1.396 . S
C708 H692 0.939 . S
C708 C707 1.396 . S
C708 C709 1.397 . S
C709 C708 1.397 . S
C709 C710 1.385 . S
C710 H693 0.940 . S
C710 C709 1.385 . S
C710 C711 1.388 . S
C711 H690 0.939 . S
C711 C706 1.391 . S
C711 C710 1.388 . S
P712 O723 1.490 . S
P712 C726 1.752 1_565 S
P712 C732 1.858 . S
P712 C738 1.822 . S
H713 C727 0.941 . S
H714 C728 0.939 . S
H715 C730 0.940 . S
H716 C731 0.940 . S
H717 C733 0.939 . S
H718 C734 0.942 . S
H719 C736 0.940 . S
H720 C737 0.939 . S
H721 C739 0.941 . S
H722 C743 0.939 . S
O723 P712 1.490 . S
H724 C740 0.939 . S
H725 C742 0.940 . S
C726 P712 1.752 1_545 S
C726 C727 1.389 . S
C726 C731 1.391 . S
C727 H713 0.941 . S
C727 C726 1.389 . S
C727 C728 1.397 . S
C728 H714 0.939 . S
C728 C727 1.397 . S
C728 C729 1.378 . S
C729 C728 1.378 . S
C729 C730 1.378 . S
C730 H715 0.940 . S
C730 C729 1.378 . S
C730 C731 1.396 . S
C731 H716 0.940 . S
C731 C726 1.391 . S
C731 C730 1.396 . S
C732 P712 1.858 . S
C732 C733 1.378 . S
C732 C737 1.400 . S
C733 H717 0.939 . S
C733 C732 1.378 . S
C733 C734 1.361 . S
C734 H718 0.942 . S
C734 C733 1.361 . S
C734 C735 1.369 . S
C735 C734 1.369 . S
C735 C736 1.404 . S
C736 H719 0.940 . S
C736 C735 1.404 . S
C736 C737 1.389 . S
C737 H720 0.939 . S
C737 C732 1.400 . S
C737 C736 1.389 . S
C738 P712 1.822 . S
C738 C739 1.391 1_565 S
C738 C743 1.391 . S
C739 H721 0.941 . S
C739 C738 1.391 1_545 S
C739 C740 1.396 . S
C740 H724 0.939 . S
C740 C739 1.396 . S
C740 C741 1.397 1_545 S
C741 C740 1.397 1_565 S
C741 C742 1.385 . S
C742 H725 0.940 . S
C742 C741 1.385 . S
C742 C743 1.388 . S
C743 H722 0.939 . S
C743 C738 1.391 . S
C743 C742 1.388 . S
P744 O755 1.491 1_545 S
P744 C758 1.811 1_545 S
P744 C764 1.804 . S
P744 C770 1.818 . S
H745 C759 0.941 . S
H746 C760 0.939 . S
H747 C762 0.940 . S
H748 C763 0.940 . S
H749 C765 0.939 . S
H750 C766 0.942 . S
H751 C768 0.940 . S
H752 C769 0.939 . S
H753 C771 0.941 . S
H754 C775 0.939 . S
O755 P744 1.491 1_565 S
H756 C772 0.939 . S
H757 C774 0.940 . S
C758 P744 1.811 1_565 S
C758 C759 1.389 . S
C758 C763 1.391 . S
C759 H745 0.941 . S
C759 C758 1.389 . S
C759 C760 1.397 . S
C760 H746 0.939 . S
C760 C759 1.397 . S
C760 C761 1.378 . S
C761 C760 1.378 . S
C761 C762 1.378 . S
C762 H747 0.940 . S
C762 C761 1.378 . S
C762 C763 1.396 . S
C763 H748 0.940 . S
C763 C758 1.391 . S
C763 C762 1.396 . S
C764 P744 1.804 . S
C764 C765 1.378 . S
C764 C769 1.400 . S
C765 H749 0.939 . S
C765 C764 1.378 . S
C765 C766 1.361 . S
C766 H750 0.942 . S
C766 C765 1.361 . S
C766 C767 1.369 . S
C767 C766 1.369 . S
C767 C768 1.404 . S
C768 H751 0.940 . S
C768 C767 1.404 . S
C768 C769 1.389 . S
C769 H752 0.939 . S
C769 C764 1.400 . S
C769 C768 1.389 . S
C770 P744 1.818 . S
C770 C771 1.383 1_545 S
C770 C775 1.400 . S
C771 H753 0.941 . S
C771 C770 1.383 1_565 S
C771 C772 1.396 . S
C772 H756 0.939 . S
C772 C771 1.396 . S
C772 C773 1.397 . S
C773 C772 1.397 . S
C773 C774 1.385 1_565 S
C774 H757 0.940 . S
C774 C773 1.385 1_545 S
C774 C775 1.388 . S
C775 H754 0.939 . S
C775 C770 1.400 . S
C775 C774 1.388 . S
P776 O787 1.490 . S
P776 C790 1.812 . S
P776 C796 1.803 . S
P776 C802 1.819 . S
H777 C791 0.941 . S
H778 C792 0.939 . S
H779 C794 0.940 . S
H780 C795 0.940 . S
H781 C797 0.939 . S
H782 C798 0.942 . S
H783 C800 0.940 . S
H784 C801 0.939 . S
H785 C803 0.941 . S
H786 C807 0.939 . S
O787 P776 1.490 . S
H788 C804 0.939 . S
H789 C806 0.940 . S
C790 P776 1.812 . S
C790 C791 1.389 . S
C790 C795 1.391 . S
C791 H777 0.941 . S
C791 C790 1.389 . S
C791 C792 1.397 . S
C792 H778 0.939 . S
C792 C791 1.397 . S
C792 C793 1.378 . S
C793 C792 1.378 . S
C793 C794 1.378 . S
C794 H779 0.940 . S
C794 C793 1.378 . S
C794 C795 1.396 . S
C795 H780 0.940 . S
C795 C790 1.391 . S
C795 C794 1.396 . S
C796 P776 1.803 . S
C796 C797 1.378 . S
C796 C801 1.400 . S
C797 H781 0.939 . S
C797 C796 1.378 . S
C797 C798 1.361 . S
C798 H782 0.942 . S
C798 C797 1.361 . S
C798 C799 1.369 . S
C799 C798 1.369 . S
C799 C800 1.404 . S
C800 H783 0.940 . S
C800 C799 1.404 . S
C800 C801 1.389 . S
C801 H784 0.939 . S
C801 C796 1.400 . S
C801 C800 1.389 . S
C802 P776 1.819 . S
C802 C803 1.391 . S
C802 C807 1.391 . S
C803 H785 0.941 . S
C803 C802 1.391 . S
C803 C804 1.396 . S
C804 H788 0.939 . S
C804 C803 1.396 . S
C804 C805 1.397 . S
C805 C804 1.397 . S
C805 C806 1.385 . S
C806 H789 0.940 . S
C806 C805 1.385 . S
C806 C807 1.388 . S
C807 H786 0.939 . S
C807 C802 1.391 . S
C807 C806 1.388 . S
P808 O819 1.491 1_554 S
P808 C822 1.811 1_554 S
P808 C828 1.804 . S
P808 C834 1.818 . S
H809 C823 0.941 . S
H810 C824 0.939 . S
H811 C826 0.940 . S
H812 C827 0.940 . S
H813 C829 0.939 . S
H814 C830 0.942 . S
H815 C832 0.940 . S
H816 C833 0.939 . S
H817 C835 0.941 . S
H818 C839 0.939 . S
O819 P808 1.491 1_556 S
H820 C836 0.939 . S
H821 C838 0.940 . S
C822 P808 1.811 1_556 S
C822 C823 1.389 . S
C822 C827 1.391 . S
C823 H809 0.941 . S
C823 C822 1.389 . S
C823 C824 1.397 . S
C824 H810 0.939 . S
C824 C823 1.397 . S
C824 C825 1.378 . S
C825 C824 1.378 . S
C825 C826 1.378 . S
C826 H811 0.940 . S
C826 C825 1.378 . S
C826 C827 1.396 . S
C827 H812 0.940 . S
C827 C822 1.391 . S
C827 C826 1.396 . S
C828 P808 1.804 . S
C828 C829 1.378 . S
C828 C833 1.400 . S
C829 H813 0.939 . S
C829 C828 1.378 . S
C829 C830 1.361 . S
C830 H814 0.942 . S
C830 C829 1.361 . S
C830 C831 1.369 . S
C831 C830 1.369 . S
C831 C832 1.404 . S
C832 H815 0.940 . S
C832 C831 1.404 . S
C832 C833 1.389 . S
C833 H816 0.939 . S
C833 C828 1.400 . S
C833 C832 1.389 . S
C834 P808 1.818 . S
C834 C835 1.383 1_554 S
C834 C839 1.400 . S
C835 H817 0.941 . S
C835 C834 1.383 1_556 S
C835 C836 1.396 . S
C836 H820 0.939 . S
C836 C835 1.396 . S
C836 C837 1.397 . S
C837 C836 1.397 . S
C837 C838 1.385 1_556 S
C838 H821 0.940 . S
C838 C837 1.385 1_554 S
C838 C839 1.388 . S
C839 H818 0.939 . S
C839 C834 1.400 . S
C839 C838 1.388 . S
P840 O851 1.490 . S
P840 C854 1.812 . S
P840 C860 1.803 . S
P840 C866 1.819 . S
H841 C855 0.941 . S
H842 C856 0.939 . S
H843 C858 0.940 . S
H844 C859 0.940 . S
H845 C861 0.939 . S
H846 C862 0.942 . S
H847 C864 0.940 . S
H848 C865 0.939 . S
H849 C867 0.941 . S
H850 C871 0.939 . S
O851 P840 1.490 . S
H852 C868 0.939 . S
H853 C870 0.940 . S
C854 P840 1.812 . S
C854 C855 1.389 . S
C854 C859 1.391 . S
C855 H841 0.941 . S
C855 C854 1.389 . S
C855 C856 1.397 . S
C856 H842 0.939 . S
C856 C855 1.397 . S
C856 C857 1.378 . S
C857 C856 1.378 . S
C857 C858 1.378 . S
C858 H843 0.940 . S
C858 C857 1.378 . S
C858 C859 1.396 . S
C859 H844 0.940 . S
C859 C854 1.391 . S
C859 C858 1.396 . S
C860 P840 1.803 . S
C860 C861 1.378 . S
C860 C865 1.400 . S
C861 H845 0.939 . S
C861 C860 1.378 . S
C861 C862 1.361 . S
C862 H846 0.942 . S
C862 C861 1.361 . S
C862 C863 1.369 . S
C863 C862 1.369 . S
C863 C864 1.404 . S
C864 H847 0.940 . S
C864 C863 1.404 . S
C864 C865 1.389 . S
C865 H848 0.939 . S
C865 C860 1.400 . S
C865 C864 1.389 . S
C866 P840 1.819 . S
C866 C867 1.391 . S
C866 C871 1.391 . S
C867 H849 0.941 . S
C867 C866 1.391 . S
C867 C868 1.396 . S
C868 H852 0.939 . S
C868 C867 1.396 . S
C868 C869 1.397 . S
C869 C868 1.397 . S
C869 C870 1.385 . S
C870 H853 0.940 . S
C870 C869 1.385 . S
C870 C871 1.388 . S
C871 H850 0.939 . S
C871 C866 1.391 . S
C871 C870 1.388 . S
P872 O883 1.490 . S
P872 C886 1.752 1_556 S
P872 C892 1.858 . S
P872 C898 1.822 . S
H873 C887 0.941 . S
H874 C888 0.939 . S
H875 C890 0.940 . S
H876 C891 0.940 . S
H877 C893 0.939 . S
H878 C894 0.942 . S
H879 C896 0.940 . S
H880 C897 0.939 . S
H881 C899 0.941 . S
H882 C903 0.939 . S
O883 P872 1.490 . S
H884 C900 0.939 . S
H885 C902 0.940 . S
C886 P872 1.752 1_554 S
C886 C887 1.389 . S
C886 C891 1.391 . S
C887 H873 0.941 . S
C887 C886 1.389 . S
C887 C888 1.397 . S
C888 H874 0.939 . S
C888 C887 1.397 . S
C888 C889 1.378 . S
C889 C888 1.378 . S
C889 C890 1.378 . S
C890 H875 0.940 . S
C890 C889 1.378 . S
C890 C891 1.396 . S
C891 H876 0.940 . S
C891 C886 1.391 . S
C891 C890 1.396 . S
C892 P872 1.858 . S
C892 C893 1.378 . S
C892 C897 1.400 . S
C893 H877 0.939 . S
C893 C892 1.378 . S
C893 C894 1.361 . S
C894 H878 0.942 . S
C894 C893 1.361 . S
C894 C895 1.369 . S
C895 C894 1.369 . S
C895 C896 1.404 . S
C896 H879 0.940 . S
C896 C895 1.404 . S
C896 C897 1.389 . S
C897 H880 0.939 . S
C897 C892 1.400 . S
C897 C896 1.389 . S
C898 P872 1.822 . S
C898 C899 1.391 1_556 S
C898 C903 1.391 . S
C899 H881 0.941 . S
C899 C898 1.391 1_554 S
C899 C900 1.396 . S
C900 H884 0.939 . S
C900 C899 1.396 . S
C900 C901 1.397 1_554 S
C901 C900 1.397 1_556 S
C901 C902 1.385 . S
C902 H885 0.940 . S
C902 C901 1.385 . S
C902 C903 1.388 . S
C903 H882 0.939 . S
C903 C898 1.391 . S
C903 C902 1.388 . S
P904 O915 1.490 . S
P904 C918 1.812 . S
P904 C924 1.803 . S
P904 C930 1.819 . S
H905 C919 0.941 . S
H906 C920 0.939 . S
H907 C922 0.940 . S
H908 C923 0.940 . S
H909 C925 0.939 . S
H910 C926 0.942 . S
H911 C928 0.940 . S
H912 C929 0.939 . S
H913 C931 0.941 . S
H914 C935 0.939 . S
O915 P904 1.490 . S
H916 C932 0.939 . S
H917 C934 0.940 . S
C918 P904 1.812 . S
C918 C919 1.389 . S
C918 C923 1.391 . S
C919 H905 0.941 . S
C919 C918 1.389 . S
C919 C920 1.397 . S
C920 H906 0.939 . S
C920 C919 1.397 . S
C920 C921 1.378 . S
C921 C920 1.378 . S
C921 C922 1.378 . S
C922 H907 0.940 . S
C922 C921 1.378 . S
C922 C923 1.396 . S
C923 H908 0.940 . S
C923 C918 1.391 . S
C923 C922 1.396 . S
C924 P904 1.803 . S
C924 C925 1.378 . S
C924 C929 1.400 . S
C925 H909 0.939 . S
C925 C924 1.378 . S
C925 C926 1.361 . S
C926 H910 0.942 . S
C926 C925 1.361 . S
C926 C927 1.369 . S
C927 C926 1.369 . S
C927 C928 1.404 . S
C928 H911 0.940 . S
C928 C927 1.404 . S
C928 C929 1.389 . S
C929 H912 0.939 . S
C929 C924 1.400 . S
C929 C928 1.389 . S
C930 P904 1.819 . S
C930 C931 1.391 . S
C930 C935 1.391 . S
C931 H913 0.941 . S
C931 C930 1.391 . S
C931 C932 1.396 . S
C932 H916 0.939 . S
C932 C931 1.396 . S
C932 C933 1.397 . S
C933 C932 1.397 . S
C933 C934 1.385 . S
C934 H917 0.940 . S
C934 C933 1.385 . S
C934 C935 1.388 . S
C935 H914 0.939 . S
C935 C930 1.391 . S
C935 C934 1.388 . S
P936 O947 1.491 1_455 S
P936 C950 1.811 1_455 S
P936 C956 1.804 . S
P936 C962 1.818 . S
H937 C951 0.941 . S
H938 C952 0.939 . S
H939 C954 0.940 . S
H940 C955 0.940 . S
H941 C957 0.939 . S
H942 C958 0.942 . S
H943 C960 0.940 . S
H944 C961 0.939 . S
H945 C963 0.941 . S
H946 C967 0.939 . S
O947 P936 1.491 1_655 S
H948 C964 0.939 . S
H949 C966 0.940 . S
C950 P936 1.811 1_655 S
C950 C951 1.389 . S
C950 C955 1.391 . S
C951 H937 0.941 . S
C951 C950 1.389 . S
C951 C952 1.397 . S
C952 H938 0.939 . S
C952 C951 1.397 . S
C952 C953 1.378 . S
C953 C952 1.378 . S
C953 C954 1.378 . S
C954 H939 0.940 . S
C954 C953 1.378 . S
C954 C955 1.396 . S
C955 H940 0.940 . S
C955 C950 1.391 . S
C955 C954 1.396 . S
C956 P936 1.804 . S
C956 C957 1.378 . S
C956 C961 1.400 . S
C957 H941 0.939 . S
C957 C956 1.378 . S
C957 C958 1.361 . S
C958 H942 0.942 . S
C958 C957 1.361 . S
C958 C959 1.369 . S
C959 C958 1.369 . S
C959 C960 1.404 . S
C960 H943 0.940 . S
C960 C959 1.404 . S
C960 C961 1.389 . S
C961 H944 0.939 . S
C961 C956 1.400 . S
C961 C960 1.389 . S
C962 P936 1.818 . S
C962 C963 1.383 1_455 S
C962 C967 1.400 . S
C963 H945 0.941 . S
C963 C962 1.383 1_655 S
C963 C964 1.396 . S
C964 H948 0.939 . S
C964 C963 1.396 . S
C964 C965 1.397 . S
C965 C964 1.397 . S
C965 C966 1.385 1_655 S
C966 H949 0.940 . S
C966 C965 1.385 1_455 S
C966 C967 1.388 . S
C967 H946 0.939 . S
C967 C962 1.400 . S
C967 C966 1.388 . S
P968 O979 1.490 . S
P968 C982 1.812 . S
P968 C988 1.803 . S
P968 C994 1.819 . S
H969 C983 0.941 . S
H970 C984 0.939 . S
H971 C986 0.940 . S
H972 C987 0.940 . S
H973 C989 0.939 . S
H974 C990 0.942 . S
H975 C992 0.940 . S
H976 C993 0.939 . S
H977 C995 0.941 . S
H978 C999 0.939 . S
O979 P968 1.490 . S
H980 C996 0.939 . S
H981 C998 0.940 . S
C982 P968 1.812 . S
C982 C983 1.389 . S
C982 C987 1.391 . S
C983 H969 0.941 . S
C983 C982 1.389 . S
C983 C984 1.397 . S
C984 H970 0.939 . S
C984 C983 1.397 . S
C984 C985 1.378 . S
C985 C984 1.378 . S
C985 C986 1.378 . S
C986 H971 0.940 . S
C986 C985 1.378 . S
C986 C987 1.396 . S
C987 H972 0.940 . S
C987 C982 1.391 . S
C987 C986 1.396 . S
C988 P968 1.803 . S
C988 C989 1.378 . S
C988 C993 1.400 . S
C989 H973 0.939 . S
C989 C988 1.378 . S
C989 C990 1.361 . S
C990 H974 0.942 . S
C990 C989 1.361 . S
C990 C991 1.369 . S
C991 C990 1.369 . S
C991 C992 1.404 . S
C992 H975 0.940 . S
C992 C991 1.404 . S
C992 C993 1.389 . S
C993 H976 0.939 . S
C993 C988 1.400 . S
C993 C992 1.389 . S
C994 P968 1.819 . S
C994 C995 1.391 . S
C994 C999 1.391 . S
C995 H977 0.941 . S
C995 C994 1.391 . S
C995 C996 1.396 . S
C996 H980 0.939 . S
C996 C995 1.396 . S
C996 C997 1.397 . S
C997 C996 1.397 . S
C997 C998 1.385 . S
C998 H981 0.940 . S
C998 C997 1.385 . S
C998 C999 1.388 . S
C999 H978 0.939 . S
C999 C994 1.391 . S
C999 C998 1.388 . S
P1000 O1011 1.490 . S
P1000 C1014 1.752 1_655 S
P1000 C1020 1.858 . S
P1000 C1026 1.822 . S
H1001 C1015 0.941 . S
H1002 C1016 0.939 . S
H1003 C1018 0.940 . S
H1004 C1019 0.940 . S
H1005 C1021 0.939 . S
H1006 C1022 0.942 . S
H1007 C1024 0.940 . S
H1008 C1025 0.939 . S
H1009 C1027 0.941 . S
H1010 C1031 0.939 . S
O1011 P1000 1.490 . S
H1012 C1028 0.939 . S
H1013 C1030 0.940 . S
C1014 P1000 1.752 1_455 S
C1014 C1015 1.389 . S
C1014 C1019 1.391 . S
C1015 H1001 0.941 . S
C1015 C1014 1.389 . S
C1015 C1016 1.397 . S
C1016 H1002 0.939 . S
C1016 C1015 1.397 . S
C1016 C1017 1.378 . S
C1017 C1016 1.378 . S
C1017 C1018 1.378 . S
C1018 H1003 0.940 . S
C1018 C1017 1.378 . S
C1018 C1019 1.396 . S
C1019 H1004 0.940 . S
C1019 C1014 1.391 . S
C1019 C1018 1.396 . S
C1020 P1000 1.858 . S
C1020 C1021 1.378 . S
C1020 C1025 1.400 . S
C1021 H1005 0.939 . S
C1021 C1020 1.378 . S
C1021 C1022 1.361 . S
C1022 H1006 0.942 . S
C1022 C1021 1.361 . S
C1022 C1023 1.369 . S
C1023 C1022 1.369 . S
C1023 C1024 1.404 . S
C1024 H1007 0.940 . S
C1024 C1023 1.404 . S
C1024 C1025 1.389 . S
C1025 H1008 0.939 . S
C1025 C1020 1.400 . S
C1025 C1024 1.389 . S
C1026 P1000 1.822 . S
C1026 C1027 1.391 1_655 S
C1026 C1031 1.391 . S
C1027 H1009 0.941 . S
C1027 C1026 1.391 1_455 S
C1027 C1028 1.396 . S
C1028 H1012 0.939 . S
C1028 C1027 1.396 . S
C1028 C1029 1.397 1_455 S
C1029 C1028 1.397 1_655 S
C1029 C1030 1.385 . S
C1030 H1013 0.940 . S
C1030 C1029 1.385 . S
C1030 C1031 1.388 . S
C1031 H1010 0.939 . S
C1031 C1026 1.391 . S
C1031 C1030 1.388 . S
C1032 C1033 1.349 . S
C1032 C1034 1.327 . S
C1032 H1057 0.950 . S
C1033 C1032 1.349 . S
C1033 C1049 1.349 . S
C1034 C1032 1.327 . S
C1034 C1053 1.429 . S
C1034 H1058 0.950 . S
C1035 C1052 1.574 . S
C1035 C1054 1.368 . S
C1035 H1059 0.949 . S
H1036 C1040 0.949 . S
C1037 C1038 1.349 . S
C1037 C1039 1.327 . S
C1037 H1060 0.950 . S
C1038 C1037 1.349 . S
C1038 C1050 1.349 . S
C1039 C1037 1.327 . S
C1039 C1055 1.429 . S
C1039 H1061 0.950 . S
C1040 H1036 0.949 . S
C1040 C1048 1.574 . S
C1040 C1056 1.368 . S
H1041 C1049 0.950 . S
H1042 C1047 0.950 . S
H1043 C1048 0.949 . S
H1044 C1050 0.950 . S
H1045 C1051 0.950 . S
H1046 C1052 0.949 . S
C1047 H1042 0.950 . S
C1047 C1049 1.327 . S
C1047 C1053 1.429 . S
C1048 C1040 1.574 . S
C1048 H1043 0.949 . S
C1048 C1054 1.368 . S
C1049 C1033 1.349 . S
C1049 H1041 0.950 . S
C1049 C1047 1.327 . S
C1050 C1038 1.349 . S
C1050 H1044 0.950 . S
C1050 C1051 1.327 . S
C1051 H1045 0.950 . S
C1051 C1050 1.327 . S
C1051 C1055 1.429 . S
C1052 C1035 1.574 . S
C1052 H1046 0.949 . S
C1052 C1056 1.368 . S
C1053 C1034 1.429 . S
C1053 C1047 1.429 . S
C1053 C1054 1.523 . S
C1054 C1035 1.368 . S
C1054 C1048 1.368 . S
C1054 C1053 1.523 . S
C1055 C1039 1.429 . S
C1055 C1051 1.429 . S
C1055 C1056 1.523 . S
C1056 C1040 1.368 . S
C1056 C1052 1.368 . S
C1056 C1055 1.523 . S
H1057 C1032 0.950 . S
H1058 C1034 0.950 . S
H1059 C1035 0.949 . S
H1060 C1037 0.950 . S
H1061 C1039 0.950 . S
C1062 C1063 1.349 . S
C1062 C1064 1.327 . S
C1062 H1087 0.950 . S
C1063 C1062 1.349 . S
C1063 C1079 1.349 . S
C1064 C1062 1.327 . S
C1064 C1083 1.429 . S
C1064 H1088 0.950 . S
C1065 C1082 1.574 . S
C1065 C1084 1.368 . S
C1065 H1089 0.949 . S
H1066 C1070 0.949 . S
C1067 C1068 1.349 . S
C1067 C1069 1.327 . S
C1067 H1090 0.950 . S
C1068 C1067 1.349 . S
C1068 C1080 1.349 . S
C1069 C1067 1.327 . S
C1069 C1085 1.429 . S
C1069 H1091 0.950 . S
C1070 H1066 0.949 . S
C1070 C1078 1.574 . S
C1070 C1086 1.368 . S
H1071 C1079 0.950 . S
H1072 C1077 0.950 . S
H1073 C1078 0.949 . S
H1074 C1080 0.950 . S
H1075 C1081 0.950 . S
H1076 C1082 0.949 . S
C1077 H1072 0.950 . S
C1077 C1079 1.327 . S
C1077 C1083 1.429 . S
C1078 C1070 1.574 . S
C1078 H1073 0.949 . S
C1078 C1084 1.368 . S
C1079 C1063 1.349 . S
C1079 H1071 0.950 . S
C1079 C1077 1.327 . S
C1080 C1068 1.349 . S
C1080 H1074 0.950 . S
C1080 C1081 1.327 . S
C1081 H1075 0.950 . S
C1081 C1080 1.327 . S
C1081 C1085 1.429 . S
C1082 C1065 1.574 . S
C1082 H1076 0.949 . S
C1082 C1086 1.368 . S
C1083 C1064 1.429 . S
C1083 C1077 1.429 . S
C1083 C1084 1.523 . S
C1084 C1065 1.368 . S
C1084 C1078 1.368 . S
C1084 C1083 1.523 . S
C1085 C1069 1.429 . S
C1085 C1081 1.429 . S
C1085 C1086 1.523 . S
C1086 C1070 1.368 . S
C1086 C1082 1.368 . S
C1086 C1085 1.523 . S
H1087 C1062 0.950 . S
H1088 C1064 0.950 . S
H1089 C1065 0.949 . S
H1090 C1067 0.950 . S
H1091 C1069 0.950 . S
C1092 C1093 1.349 . S
C1092 C1094 1.327 . S
C1092 H1117 0.950 . S
C1093 C1092 1.349 . S
C1093 C1109 1.349 . S
C1094 C1092 1.327 . S
C1094 C1113 1.429 . S
C1094 H1118 0.950 . S
C1095 C1112 1.574 . S
C1095 C1114 1.368 . S
C1095 H1119 0.949 . S
H1096 C1100 0.949 . S
C1097 C1098 1.349 . S
C1097 C1099 1.327 . S
C1097 H1120 0.950 . S
C1098 C1097 1.349 . S
C1098 C1110 1.349 . S
C1099 C1097 1.327 . S
C1099 C1115 1.429 . S
C1099 H1121 0.950 . S
C1100 H1096 0.949 . S
C1100 C1108 1.574 . S
C1100 C1116 1.368 . S
H1101 C1109 0.950 . S
H1102 C1107 0.950 . S
H1103 C1108 0.949 . S
H1104 C1110 0.950 . S
H1105 C1111 0.950 . S
H1106 C1112 0.949 . S
C1107 H1102 0.950 . S
C1107 C1109 1.327 . S
C1107 C1113 1.429 . S
C1108 C1100 1.574 . S
C1108 H1103 0.949 . S
C1108 C1114 1.368 . S
C1109 C1093 1.349 . S
C1109 H1101 0.950 . S
C1109 C1107 1.327 . S
C1110 C1098 1.349 . S
C1110 H1104 0.950 . S
C1110 C1111 1.327 . S
C1111 H1105 0.950 . S
C1111 C1110 1.327 . S
C1111 C1115 1.429 . S
C1112 C1095 1.574 . S
C1112 H1106 0.949 . S
C1112 C1116 1.368 . S
C1113 C1094 1.429 . S
C1113 C1107 1.429 . S
C1113 C1114 1.523 . S
C1114 C1095 1.368 . S
C1114 C1108 1.368 . S
C1114 C1113 1.523 . S
C1115 C1099 1.429 . S
C1115 C1111 1.429 . S
C1115 C1116 1.523 . S
C1116 C1100 1.368 . S
C1116 C1112 1.368 . S
C1116 C1115 1.523 . S
H1117 C1092 0.950 . S
H1118 C1094 0.950 . S
H1119 C1095 0.949 . S
H1120 C1097 0.950 . S
H1121 C1099 0.950 . S
C1122 C1123 1.349 . S
C1122 C1124 1.327 . S
C1122 H1147 0.950 . S
C1123 C1122 1.349 . S
C1123 C1139 1.349 . S
C1124 C1122 1.327 . S
C1124 C1143 1.429 . S
C1124 H1148 0.950 . S
C1125 C1142 1.574 . S
C1125 C1144 1.368 . S
C1125 H1149 0.949 . S
H1126 C1130 0.949 . S
C1127 C1128 1.349 . S
C1127 C1129 1.327 . S
C1127 H1150 0.950 . S
C1128 C1127 1.349 . S
C1128 C1140 1.349 . S
C1129 C1127 1.327 . S
C1129 C1145 1.429 . S
C1129 H1151 0.950 . S
C1130 H1126 0.949 . S
C1130 C1138 1.574 . S
C1130 C1146 1.368 . S
H1131 C1139 0.950 1_545 S
H1132 C1137 0.950 . S
H1133 C1138 0.949 . S
H1134 C1140 0.950 . S
H1135 C1141 0.950 . S
H1136 C1142 0.949 . S
C1137 H1132 0.950 . S
C1137 C1139 1.327 . S
C1137 C1143 1.429 . S
C1138 C1130 1.574 . S
C1138 H1133 0.949 . S
C1138 C1144 1.368 . S
C1139 C1123 1.349 . S
C1139 H1131 0.950 1_565 S
C1139 C1137 1.327 . S
C1140 C1128 1.349 . S
C1140 H1134 0.950 . S
C1140 C1141 1.327 . S
C1141 H1135 0.950 . S
C1141 C1140 1.327 . S
C1141 C1145 1.429 . S
C1142 C1125 1.574 . S
C1142 H1136 0.949 . S
C1142 C1146 1.368 . S
C1143 C1124 1.429 . S
C1143 C1137 1.429 . S
C1143 C1144 1.523 . S
C1144 C1125 1.368 . S
C1144 C1138 1.368 . S
C1144 C1143 1.523 . S
C1145 C1129 1.429 . S
C1145 C1141 1.429 . S
C1145 C1146 1.523 . S
C1146 C1130 1.368 . S
C1146 C1142 1.368 . S
C1146 C1145 1.523 . S
H1147 C1122 0.950 . S
H1148 C1124 0.950 . S
H1149 C1125 0.949 . S
H1150 C1127 0.950 . S
H1151 C1129 0.950 . S
C1152 C1153 1.349 . S
C1152 C1154 1.327 . S
C1152 H1177 0.950 . S
C1153 C1152 1.349 . S
C1153 C1169 1.349 . S
C1154 C1152 1.327 . S
C1154 C1173 1.429 . S
C1154 H1178 0.950 . S
C1155 C1172 1.574 . S
C1155 C1174 1.368 . S
C1155 H1179 0.949 . S
H1156 C1160 0.949 . S
C1157 C1158 1.349 . S
C1157 C1159 1.327 . S
C1157 H1180 0.950 . S
C1158 C1157 1.349 . S
C1158 C1170 1.349 . S
C1159 C1157 1.327 . S
C1159 C1175 1.429 . S
C1159 H1181 0.950 . S
C1160 H1156 0.949 . S
C1160 C1168 1.574 . S
C1160 C1176 1.368 . S
H1161 C1169 0.950 . S
H1162 C1167 0.950 . S
H1163 C1168 0.949 . S
H1164 C1170 0.950 . S
H1165 C1171 0.950 . S
H1166 C1172 0.949 . S
C1167 H1162 0.950 . S
C1167 C1169 1.327 . S
C1167 C1173 1.429 . S
C1168 C1160 1.574 . S
C1168 H1163 0.949 . S
C1168 C1174 1.368 . S
C1169 C1153 1.349 . S
C1169 H1161 0.950 . S
C1169 C1167 1.327 . S
C1170 C1158 1.349 . S
C1170 H1164 0.950 . S
C1170 C1171 1.327 . S
C1171 H1165 0.950 . S
C1171 C1170 1.327 . S
C1171 C1175 1.429 . S
C1172 C1155 1.574 . S
C1172 H1166 0.949 . S
C1172 C1176 1.368 . S
C1173 C1154 1.429 . S
C1173 C1167 1.429 . S
C1173 C1174 1.523 . S
C1174 C1155 1.368 . S
C1174 C1168 1.368 . S
C1174 C1173 1.523 . S
C1175 C1159 1.429 . S
C1175 C1171 1.429 . S
C1175 C1176 1.523 . S
C1176 C1160 1.368 . S
C1176 C1172 1.368 . S
C1176 C1175 1.523 . S
H1177 C1152 0.950 . S
H1178 C1154 0.950 . S
H1179 C1155 0.949 . S
H1180 C1157 0.950 . S
H1181 C1159 0.950 . S
C1182 C1183 1.349 . S
C1182 C1184 1.327 . S
C1182 H1207 0.950 . S
C1183 C1182 1.349 . S
C1183 C1199 1.349 1_556 S
C1184 C1182 1.327 . S
C1184 C1203 1.429 . S
C1184 H1208 0.950 . S
C1185 C1202 1.574 . S
C1185 C1204 1.368 . S
C1185 H1209 0.949 1_556 S
H1186 C1190 0.949 . S
C1187 C1188 1.349 . S
C1187 C1189 1.327 . S
C1187 H1210 0.950 . S
C1188 C1187 1.349 . S
C1188 C1200 1.349 . S
C1189 C1187 1.327 . S
C1189 C1205 1.429 . S
C1189 H1211 0.950 . S
C1190 H1186 0.949 . S
C1190 C1198 1.574 . S
C1190 C1206 1.368 . S
H1191 C1199 0.950 . S
H1192 C1197 0.950 1_554 S
H1193 C1198 0.949 . S
H1194 C1200 0.950 . S
H1195 C1201 0.950 . S
H1196 C1202 0.949 . S
C1197 H1192 0.950 1_556 S
C1197 C1199 1.327 1_556 S
C1197 C1203 1.429 . S
C1198 C1190 1.574 . S
C1198 H1193 0.949 . S
C1198 C1204 1.368 . S
C1199 C1183 1.349 1_554 S
C1199 H1191 0.950 . S
C1199 C1197 1.327 1_554 S
C1200 C1188 1.349 . S
C1200 H1194 0.950 . S
C1200 C1201 1.327 . S
C1201 H1195 0.950 . S
C1201 C1200 1.327 . S
C1201 C1205 1.429 . S
C1202 C1185 1.574 . S
C1202 H1196 0.949 . S
C1202 C1206 1.368 . S
C1203 C1184 1.429 . S
C1203 C1197 1.429 . S
C1203 C1204 1.523 . S
C1204 C1185 1.368 . S
C1204 C1198 1.368 . S
C1204 C1203 1.523 . S
C1205 C1189 1.429 . S
C1205 C1201 1.429 . S
C1205 C1206 1.523 . S
C1206 C1190 1.368 . S
C1206 C1202 1.368 . S
C1206 C1205 1.523 . S
H1207 C1182 0.950 . S
H1208 C1184 0.950 . S
H1209 C1185 0.949 1_554 S
H1210 C1187 0.950 . S
H1211 C1189 0.950 . S
C1212 C1213 1.349 . S
C1212 C1214 1.327 . S
C1212 H1237 0.950 . S
C1213 C1212 1.349 . S
C1213 C1229 1.349 . S
C1214 C1212 1.327 . S
C1214 C1233 1.429 . S
C1214 H1238 0.950 . S
C1215 C1232 1.574 . S
C1215 C1234 1.368 . S
C1215 H1239 0.949 . S
H1216 C1220 0.949 . S
C1217 C1218 1.349 . S
C1217 C1219 1.327 . S
C1217 H1240 0.950 . S
C1218 C1217 1.349 . S
C1218 C1230 1.349 . S
C1219 C1217 1.327 . S
C1219 C1235 1.429 . S
C1219 H1241 0.950 . S
C1220 H1216 0.949 . S
C1220 C1228 1.574 . S
C1220 C1236 1.368 . S
H1221 C1229 0.950 . S
H1222 C1227 0.950 . S
H1223 C1228 0.949 . S
H1224 C1230 0.950 . S
H1225 C1231 0.950 . S
H1226 C1232 0.949 . S
C1227 H1222 0.950 . S
C1227 C1229 1.327 . S
C1227 C1233 1.429 . S
C1228 C1220 1.574 . S
C1228 H1223 0.949 . S
C1228 C1234 1.368 . S
C1229 C1213 1.349 . S
C1229 H1221 0.950 . S
C1229 C1227 1.327 . S
C1230 C1218 1.349 . S
C1230 H1224 0.950 . S
C1230 C1231 1.327 . S
C1231 H1225 0.950 . S
C1231 C1230 1.327 . S
C1231 C1235 1.429 . S
C1232 C1215 1.574 . S
C1232 H1226 0.949 . S
C1232 C1236 1.368 . S
C1233 C1214 1.429 . S
C1233 C1227 1.429 . S
C1233 C1234 1.523 . S
C1234 C1215 1.368 . S
C1234 C1228 1.368 . S
C1234 C1233 1.523 . S
C1235 C1219 1.429 . S
C1235 C1231 1.429 . S
C1235 C1236 1.523 . S
C1236 C1220 1.368 . S
C1236 C1232 1.368 . S
C1236 C1235 1.523 . S
H1237 C1212 0.950 . S
H1238 C1214 0.950 . S
H1239 C1215 0.949 . S
H1240 C1217 0.950 . S
H1241 C1219 0.950 . S
C1242 C1243 1.349 1_556 S
C1242 C1244 1.348 . S
C1242 H1267 0.950 . S
C1243 C1242 1.349 1_554 S
C1243 C1259 1.349 . S
C1244 C1242 1.348 . S
C1244 C1263 1.359 1_556 S
C1244 H1268 1.003 . S
C1245 C1262 1.574 . S
C1245 C1264 1.368 . S
C1245 H1269 0.949 . S
H1246 C1250 0.949 . S
C1247 C1248 1.349 . S
C1247 C1249 1.327 . S
C1247 H1270 0.950 . S
C1248 C1247 1.349 . S
C1248 C1260 1.349 . S
C1249 C1247 1.327 . S
C1249 C1265 1.429 . S
C1249 H1271 0.950 . S
C1250 H1246 0.949 . S
C1250 C1258 1.574 . S
C1250 C1266 1.368 . S
H1251 C1259 0.950 . S
H1252 C1257 0.950 . S
H1253 C1258 0.949 1_556 S
H1254 C1260 0.950 . S
H1255 C1261 0.950 . S
H1256 C1262 0.949 . S
C1257 H1252 0.950 . S
C1257 C1259 1.327 . S
C1257 C1263 1.429 . S
C1258 C1250 1.574 . S
C1258 H1253 0.949 1_554 S
C1258 C1264 1.368 . S
C1259 C1243 1.349 . S
C1259 H1251 0.950 . S
C1259 C1257 1.327 . S
C1260 C1248 1.349 . S
C1260 H1254 0.950 . S
C1260 C1261 1.327 . S
C1261 H1255 0.950 . S
C1261 C1260 1.327 . S
C1261 C1265 1.429 . S
C1262 C1245 1.574 . S
C1262 H1256 0.949 . S
C1262 C1266 1.368 . S
C1263 C1244 1.359 1_554 S
C1263 C1257 1.429 . S
C1263 C1264 1.523 . S
C1264 C1245 1.368 . S
C1264 C1258 1.368 . S
C1264 C1263 1.523 . S
C1265 C1249 1.429 . S
C1265 C1261 1.429 . S
C1265 C1266 1.523 . S
C1266 C1250 1.368 . S
C1266 C1262 1.368 . S
C1266 C1265 1.523 . S
H1267 C1242 0.950 . S
H1268 C1244 1.003 . S
H1269 C1245 0.949 . S
H1270 C1247 0.950 . S
H1271 C1249 0.950 . S
C1272 C1273 1.349 . S
C1272 C1274 1.327 . S
C1272 H1297 0.950 . S
C1273 C1272 1.349 . S
C1273 C1289 1.349 . S
C1274 C1272 1.327 . S
C1274 C1293 1.429 . S
C1274 H1298 0.950 . S
C1275 C1292 1.574 . S
C1275 C1294 1.368 . S
C1275 H1299 0.949 . S
H1276 C1280 0.949 . S
C1277 C1278 1.349 . S
C1277 C1279 1.327 . S
C1277 H1300 0.950 . S
C1278 C1277 1.349 . S
C1278 C1290 1.349 . S
C1279 C1277 1.327 . S
C1279 C1295 1.429 . S
C1279 H1301 0.950 . S
C1280 H1276 0.949 . S
C1280 C1288 1.574 . S
C1280 C1296 1.368 . S
H1281 C1289 0.950 . S
H1282 C1287 0.950 . S
H1283 C1288 0.949 . S
H1284 C1290 0.950 . S
H1285 C1291 0.950 . S
H1286 C1292 0.949 . S
C1287 H1282 0.950 . S
C1287 C1289 1.327 . S
C1287 C1293 1.429 . S
C1288 C1280 1.574 . S
C1288 H1283 0.949 . S
C1288 C1294 1.368 . S
C1289 C1273 1.349 . S
C1289 H1281 0.950 . S
C1289 C1287 1.327 . S
C1290 C1278 1.349 . S
C1290 H1284 0.950 . S
C1290 C1291 1.327 . S
C1291 H1285 0.950 . S
C1291 C1290 1.327 . S
C1291 C1295 1.429 . S
C1292 C1275 1.574 . S
C1292 H1286 0.949 . S
C1292 C1296 1.368 . S
C1293 C1274 1.429 . S
C1293 C1287 1.429 . S
C1293 C1294 1.523 . S
C1294 C1275 1.368 . S
C1294 C1288 1.368 . S
C1294 C1293 1.523 . S
C1295 C1279 1.429 . S
C1295 C1291 1.429 . S
C1295 C1296 1.523 . S
C1296 C1280 1.368 . S
C1296 C1292 1.368 . S
C1296 C1295 1.523 . S
H1297 C1272 0.950 . S
H1298 C1274 0.950 . S
H1299 C1275 0.949 . S
H1300 C1277 0.950 . S
H1301 C1279 0.950 . S
C1302 C1303 1.349 . S
C1302 C1304 1.327 . S
C1302 H1327 0.950 . S
C1303 C1302 1.349 . S
C1303 C1319 1.349 . S
C1304 C1302 1.327 . S
C1304 C1323 1.429 . S
C1304 H1328 0.950 . S
C1305 C1322 1.574 . S
C1305 C1324 1.368 . S
C1305 H1329 0.949 . S
H1306 C1310 0.949 . S
C1307 C1308 1.349 . S
C1307 C1309 1.327 . S
C1307 H1330 0.950 . S
C1308 C1307 1.349 . S
C1308 C1320 1.349 . S
C1309 C1307 1.327 . S
C1309 C1325 1.429 . S
C1309 H1331 0.950 . S
C1310 H1306 0.949 . S
C1310 C1318 1.574 . S
C1310 C1326 1.368 . S
H1311 C1319 0.950 1_455 S
H1312 C1317 0.950 . S
H1313 C1318 0.949 . S
H1314 C1320 0.950 . S
H1315 C1321 0.950 . S
H1316 C1322 0.949 . S
C1317 H1312 0.950 . S
C1317 C1319 1.327 . S
C1317 C1323 1.429 . S
C1318 C1310 1.574 . S
C1318 H1313 0.949 . S
C1318 C1324 1.368 . S
C1319 C1303 1.349 . S
C1319 H1311 0.950 1_655 S
C1319 C1317 1.327 . S
C1320 C1308 1.349 . S
C1320 H1314 0.950 . S
C1320 C1321 1.327 . S
C1321 H1315 0.950 . S
C1321 C1320 1.327 . S
C1321 C1325 1.429 . S
C1322 C1305 1.574 . S
C1322 H1316 0.949 . S
C1322 C1326 1.368 . S
C1323 C1304 1.429 . S
C1323 C1317 1.429 . S
C1323 C1324 1.523 . S
C1324 C1305 1.368 . S
C1324 C1318 1.368 . S
C1324 C1323 1.523 . S
C1325 C1309 1.429 . S
C1325 C1321 1.429 . S
C1325 C1326 1.523 . S
C1326 C1310 1.368 . S
C1326 C1322 1.368 . S
C1326 C1325 1.523 . S
H1327 C1302 0.950 . S
H1328 C1304 0.950 . S
H1329 C1305 0.949 . S
H1330 C1307 0.950 . S
H1331 C1309 0.950 . S
C1332 C1333 1.349 . S
C1332 C1334 1.327 . S
C1332 H1357 0.950 . S
C1333 C1332 1.349 . S
C1333 C1349 1.349 . S
C1334 C1332 1.327 . S
C1334 C1353 1.429 . S
C1334 H1358 0.950 . S
C1335 C1352 1.574 . S
C1335 C1354 1.368 . S
C1335 H1359 0.949 . S
H1336 C1340 0.949 . S
C1337 C1338 1.349 . S
C1337 C1339 1.327 . S
C1337 H1360 0.950 . S
C1338 C1337 1.349 . S
C1338 C1350 1.349 . S
C1339 C1337 1.327 . S
C1339 C1355 1.429 . S
C1339 H1361 0.950 . S
C1340 H1336 0.949 . S
C1340 C1348 1.574 . S
C1340 C1356 1.368 . S
H1341 C1349 0.950 . S
H1342 C1347 0.950 . S
H1343 C1348 0.949 . S
H1344 C1350 0.950 . S
H1345 C1351 0.950 . S
H1346 C1352 0.949 . S
C1347 H1342 0.950 . S
C1347 C1349 1.327 . S
C1347 C1353 1.429 . S
C1348 C1340 1.574 . S
C1348 H1343 0.949 . S
C1348 C1354 1.368 . S
C1349 C1333 1.349 . S
C1349 H1341 0.950 . S
C1349 C1347 1.327 . S
C1350 C1338 1.349 . S
C1350 H1344 0.950 . S
C1350 C1351 1.327 . S
C1351 H1345 0.950 . S
C1351 C1350 1.327 . S
C1351 C1355 1.429 . S
C1352 C1335 1.574 . S
C1352 H1346 0.949 . S
C1352 C1356 1.368 . S
C1353 C1334 1.429 . S
C1353 C1347 1.429 . S
C1353 C1354 1.523 . S
C1354 C1335 1.368 . S
C1354 C1348 1.368 . S
C1354 C1353 1.523 . S
C1355 C1339 1.429 . S
C1355 C1351 1.429 . S
C1355 C1356 1.523 . S
C1356 C1340 1.368 . S
C1356 C1352 1.368 . S
C1356 C1355 1.523 . S
H1357 C1332 0.950 . S
H1358 C1334 0.950 . S
H1359 C1335 0.949 . S
H1360 C1337 0.950 . S
H1361 C1339 0.950 . S
C1362 C1363 1.349 1_655 S
C1362 C1364 1.328 1_655 S
C1362 H1387 0.949 . S
C1363 C1362 1.349 1_455 S
C1363 C1379 1.349 . S
C1364 C1362 1.328 1_455 S
C1364 C1383 1.429 . S
C1364 H1388 0.950 1_455 S
C1365 C1382 1.574 . S
C1365 C1384 1.368 . S
C1365 H1389 0.949 . S
H1366 C1370 0.949 . S
C1367 C1368 1.349 . S
C1367 C1369 1.327 . S
C1367 H1390 0.950 . S
C1368 C1367 1.349 . S
C1368 C1380 1.349 . S
C1369 C1367 1.327 . S
C1369 C1385 1.429 . S
C1369 H1391 0.950 . S
C1370 H1366 0.949 . S
C1370 C1378 1.574 . S
C1370 C1386 1.368 . S
H1371 C1379 0.950 . S
H1372 C1377 0.950 . S
H1373 C1378 0.949 . S
H1374 C1380 0.950 . S
H1375 C1381 0.950 . S
H1376 C1382 0.949 . S
C1377 H1372 0.950 . S
C1377 C1379 1.327 . S
C1377 C1383 1.429 . S
C1378 C1370 1.574 . S
C1378 H1373 0.949 . S
C1378 C1384 1.368 . S
C1379 C1363 1.349 . S
C1379 H1371 0.950 . S
C1379 C1377 1.327 . S
C1380 C1368 1.349 . S
C1380 H1374 0.950 . S
C1380 C1381 1.327 . S
C1381 H1375 0.950 . S
C1381 C1380 1.327 . S
C1381 C1385 1.429 . S
C1382 C1365 1.574 . S
C1382 H1376 0.949 . S
C1382 C1386 1.368 . S
C1383 C1364 1.429 . S
C1383 C1377 1.429 . S
C1383 C1384 1.523 . S
C1384 C1365 1.368 . S
C1384 C1378 1.368 . S
C1384 C1383 1.523 . S
C1385 C1369 1.429 . S
C1385 C1381 1.429 . S
C1385 C1386 1.523 . S
C1386 C1370 1.368 . S
C1386 C1382 1.368 . S
C1386 C1385 1.523 . S
H1387 C1362 0.949 . S
H1388 C1364 0.950 1_655 S
H1389 C1365 0.949 . S
H1390 C1367 0.950 . S
H1391 C1369 0.950 . S
C1392 C1393 1.349 . S
C1392 C1394 1.327 . S
C1392 H1417 0.950 . S
C1393 C1392 1.349 . S
C1393 C1409 1.349 . S
C1394 C1392 1.327 . S
C1394 C1413 1.429 . S
C1394 H1418 0.950 . S
C1395 C1412 1.574 . S
C1395 C1414 1.368 . S
C1395 H1419 0.949 . S
H1396 C1400 0.949 . S
C1397 C1398 1.349 . S
C1397 C1399 1.327 . S
C1397 H1420 0.950 . S
C1398 C1397 1.349 . S
C1398 C1410 1.349 . S
C1399 C1397 1.327 . S
C1399 C1415 1.429 . S
C1399 H1421 0.950 . S
C1400 H1396 0.949 . S
C1400 C1408 1.574 . S
C1400 C1416 1.368 . S
H1401 C1409 0.950 . S
H1402 C1407 0.950 . S
H1403 C1408 0.949 . S
H1404 C1410 0.950 . S
H1405 C1411 0.950 . S
H1406 C1412 0.949 . S
C1407 H1402 0.950 . S
C1407 C1409 1.327 . S
C1407 C1413 1.429 . S
C1408 C1400 1.574 . S
C1408 H1403 0.949 . S
C1408 C1414 1.368 . S
C1409 C1393 1.349 . S
C1409 H1401 0.950 . S
C1409 C1407 1.327 . S
C1410 C1398 1.349 . S
C1410 H1404 0.950 . S
C1410 C1411 1.327 . S
C1411 H1405 0.950 . S
C1411 C1410 1.327 . S
C1411 C1415 1.429 . S
C1412 C1395 1.574 . S
C1412 H1406 0.949 . S
C1412 C1416 1.368 . S
C1413 C1394 1.429 . S
C1413 C1407 1.429 . S
C1413 C1414 1.523 . S
C1414 C1395 1.368 . S
C1414 C1408 1.368 . S
C1414 C1413 1.523 . S
C1415 C1399 1.429 . S
C1415 C1411 1.429 . S
C1415 C1416 1.523 . S
C1416 C1400 1.368 . S
C1416 C1412 1.368 . S
C1416 C1415 1.523 . S
H1417 C1392 0.950 . S
H1418 C1394 0.950 . S
H1419 C1395 0.949 . S
H1420 C1397 0.950 . S
H1421 C1399 0.950 . S
C1422 C1423 1.349 . S
C1422 C1424 1.327 . S
C1422 H1447 0.950 . S
C1423 C1422 1.349 . S
C1423 C1439 1.349 . S
C1424 C1422 1.327 . S
C1424 C1443 1.429 . S
C1424 H1448 0.950 . S
C1425 C1442 1.574 . S
C1425 C1444 1.368 . S
C1425 H1449 0.949 . S
H1426 C1430 0.949 . S
C1427 C1428 1.349 . S
C1427 C1429 1.327 . S
C1427 H1450 0.950 . S
C1428 C1427 1.349 . S
C1428 C1440 1.349 . S
C1429 C1427 1.327 . S
C1429 C1445 1.429 . S
C1429 H1451 0.950 . S
C1430 H1426 0.949 . S
C1430 C1438 1.574 . S
C1430 C1446 1.368 . S
H1431 C1439 0.950 . S
H1432 C1437 0.950 . S
H1433 C1438 0.949 . S
H1434 C1440 0.950 . S
H1435 C1441 0.950 . S
H1436 C1442 0.949 . S
C1437 H1432 0.950 . S
C1437 C1439 1.327 . S
C1437 C1443 1.429 . S
C1438 C1430 1.574 . S
C1438 H1433 0.949 . S
C1438 C1444 1.368 . S
C1439 C1423 1.349 . S
C1439 H1431 0.950 . S
C1439 C1437 1.327 . S
C1440 C1428 1.349 . S
C1440 H1434 0.950 . S
C1440 C1441 1.327 . S
C1441 H1435 0.950 . S
C1441 C1440 1.327 . S
C1441 C1445 1.429 . S
C1442 C1425 1.574 . S
C1442 H1436 0.949 . S
C1442 C1446 1.368 . S
C1443 C1424 1.429 . S
C1443 C1437 1.429 . S
C1443 C1444 1.523 . S
C1444 C1425 1.368 . S
C1444 C1438 1.368 . S
C1444 C1443 1.523 . S
C1445 C1429 1.429 . S
C1445 C1441 1.429 . S
C1445 C1446 1.523 . S
C1446 C1430 1.368 . S
C1446 C1442 1.368 . S
C1446 C1445 1.523 . S
H1447 C1422 0.950 . S
H1448 C1424 0.950 . S
H1449 C1425 0.949 . S
H1450 C1427 0.950 . S
H1451 C1429 0.950 . S
C1452 C1453 1.349 . S
C1452 C1454 1.327 . S
C1452 H1477 0.950 . S
C1453 C1452 1.349 . S
C1453 C1469 1.349 1_565 S
C1454 C1452 1.327 . S
C1454 C1473 1.429 . S
C1454 H1478 0.950 . S
C1455 C1472 1.574 . S
C1455 C1474 1.368 . S
C1455 H1479 0.949 1_565 S
H1456 C1460 0.949 . S
C1457 C1458 1.349 . S
C1457 C1459 1.327 . S
C1457 H1480 0.950 . S
C1458 C1457 1.349 . S
C1458 C1470 1.349 . S
C1459 C1457 1.327 . S
C1459 C1475 1.429 . S
C1459 H1481 0.950 . S
C1460 H1456 0.949 . S
C1460 C1468 1.574 . S
C1460 C1476 1.368 . S
H1461 C1469 0.950 . S
H1462 C1467 0.950 . S
H1463 C1468 0.949 . S
H1464 C1470 0.950 . S
H1465 C1471 0.950 . S
H1466 C1472 0.949 . S
C1467 H1462 0.950 . S
C1467 C1469 1.327 . S
C1467 C1473 1.429 1_545 S
C1468 C1460 1.574 . S
C1468 H1463 0.949 . S
C1468 C1474 1.368 . S
C1469 C1453 1.349 1_545 S
C1469 H1461 0.950 . S
C1469 C1467 1.327 . S
C1470 C1458 1.349 . S
C1470 H1464 0.950 . S
C1470 C1471 1.327 . S
C1471 H1465 0.950 . S
C1471 C1470 1.327 . S
C1471 C1475 1.429 . S
C1472 C1455 1.574 . S
C1472 H1466 0.949 . S
C1472 C1476 1.368 . S
C1473 C1454 1.429 . S
C1473 C1467 1.429 1_565 S
C1473 C1474 1.523 . S
C1474 C1455 1.368 . S
C1474 C1468 1.368 . S
C1474 C1473 1.523 . S
C1475 C1459 1.429 . S
C1475 C1471 1.429 . S
C1475 C1476 1.523 . S
C1476 C1460 1.368 . S
C1476 C1472 1.368 . S
C1476 C1475 1.523 . S
H1477 C1452 0.950 . S
H1478 C1454 0.950 . S
H1479 C1455 0.949 1_545 S
H1480 C1457 0.950 . S
H1481 C1459 0.950 . S
C1482 C1483 1.349 . S
C1482 C1484 1.327 . S
C1482 H1507 0.950 1_545 S
C1483 C1482 1.349 . S
C1483 C1499 1.349 . S
C1484 C1482 1.327 . S
C1484 C1503 1.429 . S
C1484 H1508 0.950 . S
C1485 C1502 1.574 . S
C1485 C1504 1.368 . S
C1485 H1509 0.949 . S
H1486 C1490 0.949 . S
C1487 C1488 1.349 . S
C1487 C1489 1.327 . S
C1487 H1510 0.950 . S
C1488 C1487 1.349 . S
C1488 C1500 1.349 . S
C1489 C1487 1.327 . S
C1489 C1505 1.429 . S
C1489 H1511 0.950 . S
C1490 H1486 0.949 . S
C1490 C1498 1.574 . S
C1490 C1506 1.368 . S
H1491 C1499 0.950 . S
H1492 C1497 0.950 . S
H1493 C1498 0.949 . S
H1494 C1500 0.950 . S
H1495 C1501 0.950 . S
H1496 C1502 0.949 . S
C1497 H1492 0.950 . S
C1497 C1499 1.327 . S
C1497 C1503 1.429 . S
C1498 C1490 1.574 . S
C1498 H1493 0.949 . S
C1498 C1504 1.368 . S
C1499 C1483 1.349 . S
C1499 H1491 0.950 . S
C1499 C1497 1.327 . S
C1500 C1488 1.349 . S
C1500 H1494 0.950 . S
C1500 C1501 1.327 . S
C1501 H1495 0.950 . S
C1501 C1500 1.327 . S
C1501 C1505 1.429 . S
C1502 C1485 1.574 . S
C1502 H1496 0.949 . S
C1502 C1506 1.368 . S
C1503 C1484 1.429 . S
C1503 C1497 1.429 . S
C1503 C1504 1.523 . S
C1504 C1485 1.368 . S
C1504 C1498 1.368 . S
C1504 C1503 1.523 . S
C1505 C1489 1.429 . S
C1505 C1501 1.429 . S
C1505 C1506 1.523 . S
C1506 C1490 1.368 . S
C1506 C1502 1.368 . S
C1506 C1505 1.523 . S
H1507 C1482 0.950 1_565 S
H1508 C1484 0.950 . S
H1509 C1485 0.949 . S
H1510 C1487 0.950 . S
H1511 C1489 0.950 . S
C1512 C1513 1.349 . S
C1512 C1514 1.327 . S
C1512 H1537 0.950 . S
C1513 C1512 1.349 . S
C1513 C1529 1.349 . S
C1514 C1512 1.327 . S
C1514 C1533 1.429 . S
C1514 H1538 0.950 . S
C1515 C1532 1.574 . S
C1515 C1534 1.368 . S
C1515 H1539 0.949 . S
H1516 C1520 0.949 . S
C1517 C1518 1.349 . S
C1517 C1519 1.327 . S
C1517 H1540 0.950 . S
C1518 C1517 1.349 . S
C1518 C1530 1.349 . S
C1519 C1517 1.327 . S
C1519 C1535 1.429 . S
C1519 H1541 0.950 . S
C1520 H1516 0.949 . S
C1520 C1528 1.574 . S
C1520 C1536 1.368 . S
H1521 C1529 0.950 . S
H1522 C1527 0.950 . S
H1523 C1528 0.949 . S
H1524 C1530 0.950 . S
H1525 C1531 0.950 . S
H1526 C1532 0.949 . S
C1527 H1522 0.950 . S
C1527 C1529 1.327 . S
C1527 C1533 1.429 . S
C1528 C1520 1.574 . S
C1528 H1523 0.949 . S
C1528 C1534 1.368 . S
C1529 C1513 1.349 . S
C1529 H1521 0.950 . S
C1529 C1527 1.327 . S
C1530 C1518 1.349 . S
C1530 H1524 0.950 . S
C1530 C1531 1.327 . S
C1531 H1525 0.950 . S
C1531 C1530 1.327 . S
C1531 C1535 1.429 . S
C1532 C1515 1.574 . S
C1532 H1526 0.949 . S
C1532 C1536 1.368 . S
C1533 C1514 1.429 . S
C1533 C1527 1.429 . S
C1533 C1534 1.523 . S
C1534 C1515 1.368 . S
C1534 C1528 1.368 . S
C1534 C1533 1.523 . S
C1535 C1519 1.429 . S
C1535 C1531 1.429 . S
C1535 C1536 1.523 . S
C1536 C1520 1.368 . S
C1536 C1532 1.368 . S
C1536 C1535 1.523 . S
H1537 C1512 0.950 . S
H1538 C1514 0.950 . S
H1539 C1515 0.949 . S
H1540 C1517 0.950 . S
H1541 C1519 0.950 . S
C1542 C1543 1.349 . S
C1542 C1544 1.327 . S
C1542 H1567 0.956 . S
C1543 C1542 1.349 . S
C1543 C1559 1.349 . S
C1544 C1542 1.327 . S
C1544 C1563 1.429 . S
C1544 H1568 0.950 . S
C1545 C1562 1.574 . S
C1545 C1564 1.368 . S
C1545 H1569 0.949 . S
H1546 C1550 0.949 . S
C1547 C1548 1.349 . S
C1547 C1549 1.327 . S
C1547 H1570 0.950 . S
C1548 C1547 1.349 . S
C1548 C1560 1.349 . S
C1549 C1547 1.327 . S
C1549 C1565 1.429 . S
C1549 H1571 0.950 . S
C1550 H1546 0.949 . S
C1550 C1558 1.574 . S
C1550 C1566 1.368 . S
H1551 C1559 0.950 . S
H1552 C1557 0.950 . S
H1553 C1558 0.949 . S
H1554 C1560 0.950 . S
H1555 C1561 0.950 . S
H1556 C1562 0.949 . S
C1557 H1552 0.950 . S
C1557 C1559 1.327 . S
C1557 C1563 1.429 . S
C1558 C1550 1.574 . S
C1558 H1553 0.949 . S
C1558 C1564 1.368 . S
C1559 C1543 1.349 . S
C1559 H1551 0.950 . S
C1559 C1557 1.327 . S
C1560 C1548 1.349 . S
C1560 H1554 0.950 . S
C1560 C1561 1.327 . S
C1561 H1555 0.950 . S
C1561 C1560 1.327 . S
C1561 C1565 1.429 . S
C1562 C1545 1.574 . S
C1562 H1556 0.949 . S
C1562 C1566 1.368 . S
C1563 C1544 1.429 . S
C1563 C1557 1.429 . S
C1563 C1564 1.523 . S
C1564 C1545 1.368 . S
C1564 C1558 1.368 . S
C1564 C1563 1.523 . S
C1565 C1549 1.429 . S
C1565 C1561 1.429 . S
C1565 C1566 1.523 . S
C1566 C1550 1.368 . S
C1566 C1562 1.368 . S
C1566 C1565 1.523 . S
H1567 C1542 0.956 . S
H1568 C1544 0.950 . S
H1569 C1545 0.949 . S
H1570 C1547 0.950 . S
H1571 C1549 0.950 . S
C1572 C1573 1.349 . S
C1572 C1574 1.327 . S
C1572 H1597 0.950 . S
C1573 C1572 1.349 . S
C1573 C1589 1.349 . S
C1574 C1572 1.327 . S
C1574 C1593 1.429 . S
C1574 H1598 0.950 . S
C1575 C1592 1.574 . S
C1575 C1594 1.368 . S
C1575 H1599 0.949 . S
H1576 C1580 0.949 . S
C1577 C1578 1.349 . S
C1577 C1579 1.327 . S
C1577 H1600 0.950 . S
C1578 C1577 1.349 . S
C1578 C1590 1.349 . S
C1579 C1577 1.327 . S
C1579 C1595 1.429 . S
C1579 H1601 0.950 . S
C1580 H1576 0.949 . S
C1580 C1588 1.574 . S
C1580 C1596 1.368 . S
H1581 C1589 0.950 . S
H1582 C1587 0.950 . S
H1583 C1588 0.949 . S
H1584 C1590 0.950 . S
H1585 C1591 0.950 . S
H1586 C1592 0.949 . S
C1587 H1582 0.950 . S
C1587 C1589 1.327 . S
C1587 C1593 1.429 . S
C1588 C1580 1.574 . S
C1588 H1583 0.949 . S
C1588 C1594 1.368 . S
C1589 C1573 1.349 . S
C1589 H1581 0.950 . S
C1589 C1587 1.327 . S
C1590 C1578 1.349 . S
C1590 H1584 0.950 . S
C1590 C1591 1.327 . S
C1591 H1585 0.950 . S
C1591 C1590 1.327 . S
C1591 C1595 1.429 . S
C1592 C1575 1.574 . S
C1592 H1586 0.949 . S
C1592 C1596 1.368 . S
C1593 C1574 1.429 . S
C1593 C1587 1.429 . S
C1593 C1594 1.523 . S
C1594 C1575 1.368 . S
C1594 C1588 1.368 . S
C1594 C1593 1.523 . S
C1595 C1579 1.429 . S
C1595 C1591 1.429 . S
C1595 C1596 1.523 . S
C1596 C1580 1.368 . S
C1596 C1592 1.368 . S
C1596 C1595 1.523 . S
H1597 C1572 0.950 . S
H1598 C1574 0.950 . S
H1599 C1575 0.949 . S
H1600 C1577 0.950 . S
H1601 C1579 0.950 . S
C1602 C1603 1.343 1_554 S
C1602 C1604 1.323 1_554 S
C1602 H1627 0.961 . S
C1603 C1602 1.343 1_556 S
C1603 C1619 1.349 . S
C1604 C1602 1.323 1_556 S
C1604 C1623 1.429 . S
C1604 H1628 0.950 1_556 S
C1605 C1622 1.574 . S
C1605 C1624 1.368 . S
C1605 H1629 0.949 . S
H1606 C1610 0.949 . S
C1607 C1608 1.349 . S
C1607 C1609 1.327 . S
C1607 H1630 0.950 . S
C1608 C1607 1.349 . S
C1608 C1620 1.349 . S
C1609 C1607 1.327 . S
C1609 C1625 1.429 . S
C1609 H1631 0.950 . S
C1610 H1606 0.949 . S
C1610 C1618 1.574 . S
C1610 C1626 1.368 . S
H1611 C1619 0.950 . S
H1612 C1617 0.950 . S
H1613 C1618 0.949 . S
H1614 C1620 0.950 . S
H1615 C1621 0.950 . S
H1616 C1622 0.949 . S
C1617 H1612 0.950 . S
C1617 C1619 1.327 . S
C1617 C1623 1.429 . S
C1618 C1610 1.574 . S
C1618 H1613 0.949 . S
C1618 C1624 1.368 . S
C1619 C1603 1.349 . S
C1619 H1611 0.950 . S
C1619 C1617 1.327 . S
C1620 C1608 1.349 . S
C1620 H1614 0.950 . S
C1620 C1621 1.327 . S
C1621 H1615 0.950 . S
C1621 C1620 1.327 . S
C1621 C1625 1.429 . S
C1622 C1605 1.574 . S
C1622 H1616 0.949 . S
C1622 C1626 1.368 . S
C1623 C1604 1.429 . S
C1623 C1617 1.429 . S
C1623 C1624 1.523 . S
C1624 C1605 1.368 . S
C1624 C1618 1.368 . S
C1624 C1623 1.523 . S
C1625 C1609 1.429 . S
C1625 C1621 1.429 . S
C1625 C1626 1.523 . S
C1626 C1610 1.368 . S
C1626 C1622 1.368 . S
C1626 C1625 1.523 . S
H1627 C1602 0.961 . S
H1628 C1604 0.950 1_554 S
H1629 C1605 0.949 . S
H1630 C1607 0.950 . S
H1631 C1609 0.950 . S
C1632 C1633 1.349 . S
C1632 C1634 1.327 . S
C1632 H1657 0.950 . S
C1633 C1632 1.349 . S
C1633 C1649 1.349 . S
C1634 C1632 1.327 . S
C1634 C1653 1.429 . S
C1634 H1658 0.950 . S
C1635 C1652 1.574 . S
C1635 C1654 1.368 . S
C1635 H1659 0.949 . S
H1636 C1640 0.949 . S
C1637 C1638 1.349 . S
C1637 C1639 1.327 . S
C1637 H1660 0.950 . S
C1638 C1637 1.349 . S
C1638 C1650 1.349 . S
C1639 C1637 1.327 . S
C1639 C1655 1.429 . S
C1639 H1661 0.950 . S
C1640 H1636 0.949 . S
C1640 C1648 1.574 . S
C1640 C1656 1.368 . S
H1641 C1649 0.950 . S
H1642 C1647 0.950 . S
H1643 C1648 0.949 . S
H1644 C1650 0.950 . S
H1645 C1651 0.950 . S
H1646 C1652 0.949 . S
C1647 H1642 0.950 . S
C1647 C1649 1.327 . S
C1647 C1653 1.429 . S
C1648 C1640 1.574 . S
C1648 H1643 0.949 . S
C1648 C1654 1.368 . S
C1649 C1633 1.349 . S
C1649 H1641 0.950 . S
C1649 C1647 1.327 . S
C1650 C1638 1.349 . S
C1650 H1644 0.950 . S
C1650 C1651 1.327 . S
C1651 H1645 0.950 . S
C1651 C1650 1.327 . S
C1651 C1655 1.429 . S
C1652 C1635 1.574 . S
C1652 H1646 0.949 . S
C1652 C1656 1.368 . S
C1653 C1634 1.429 . S
C1653 C1647 1.429 . S
C1653 C1654 1.523 . S
C1654 C1635 1.368 . S
C1654 C1648 1.368 . S
C1654 C1653 1.523 . S
C1655 C1639 1.429 . S
C1655 C1651 1.429 . S
C1655 C1656 1.523 . S
C1656 C1640 1.368 . S
C1656 C1652 1.368 . S
C1656 C1655 1.523 . S
H1657 C1632 0.950 . S
H1658 C1634 0.950 . S
H1659 C1635 0.949 . S
H1660 C1637 0.950 . S
H1661 C1639 0.950 . S
C1662 C1663 1.349 . S
C1662 C1664 1.327 . S
C1662 H1687 0.950 . S
C1663 C1662 1.349 . S
C1663 C1679 1.349 . S
C1664 C1662 1.327 . S
C1664 C1683 1.429 . S
C1664 H1688 0.950 . S
C1665 C1682 1.574 . S
C1665 C1684 1.368 . S
C1665 H1689 0.949 . S
H1666 C1670 0.949 . S
C1667 C1668 1.349 . S
C1667 C1669 1.327 . S
C1667 H1690 0.950 . S
C1668 C1667 1.349 . S
C1668 C1680 1.349 . S
C1669 C1667 1.327 . S
C1669 C1685 1.429 . S
C1669 H1691 0.950 . S
C1670 H1666 0.949 . S
C1670 C1678 1.574 . S
C1670 C1686 1.368 . S
H1671 C1679 0.950 1_655 S
H1672 C1677 0.950 . S
H1673 C1678 0.949 . S
H1674 C1680 0.950 . S
H1675 C1681 0.950 . S
H1676 C1682 0.949 . S
C1677 H1672 0.950 . S
C1677 C1679 1.327 . S
C1677 C1683 1.429 . S
C1678 C1670 1.574 . S
C1678 H1673 0.949 . S
C1678 C1684 1.368 . S
C1679 C1663 1.349 . S
C1679 H1671 0.950 1_455 S
C1679 C1677 1.327 . S
C1680 C1668 1.349 . S
C1680 H1674 0.950 . S
C1680 C1681 1.327 . S
C1681 H1675 0.950 . S
C1681 C1680 1.327 . S
C1681 C1685 1.429 . S
C1682 C1665 1.574 . S
C1682 H1676 0.949 . S
C1682 C1686 1.368 . S
C1683 C1664 1.429 . S
C1683 C1677 1.429 . S
C1683 C1684 1.523 . S
C1684 C1665 1.368 . S
C1684 C1678 1.368 . S
C1684 C1683 1.523 . S
C1685 C1669 1.429 . S
C1685 C1681 1.429 . S
C1685 C1686 1.523 . S
C1686 C1670 1.368 . S
C1686 C1682 1.368 . S
C1686 C1685 1.523 . S
H1687 C1662 0.950 . S
H1688 C1664 0.950 . S
H1689 C1665 0.949 . S
H1690 C1667 0.950 . S
H1691 C1669 0.950 . S
C1692 C1693 1.349 . S
C1692 C1694 1.327 . S
C1692 H1717 0.950 . S
C1693 C1692 1.349 . S
C1693 C1709 1.349 . S
C1694 C1692 1.327 . S
C1694 C1713 1.429 . S
C1694 H1718 0.950 . S
C1695 C1712 1.574 . S
C1695 C1714 1.368 . S
C1695 H1719 0.949 . S
H1696 C1700 0.949 . S
C1697 C1698 1.349 . S
C1697 C1699 1.327 . S
C1697 H1720 0.950 . S
C1698 C1697 1.349 . S
C1698 C1710 1.349 . S
C1699 C1697 1.327 . S
C1699 C1715 1.429 . S
C1699 H1721 0.950 . S
C1700 H1696 0.949 . S
C1700 C1708 1.574 . S
C1700 C1716 1.368 . S
H1701 C1709 0.950 . S
H1702 C1707 0.950 . S
H1703 C1708 0.949 . S
H1704 C1710 0.950 . S
H1705 C1711 0.950 . S
H1706 C1712 0.949 . S
C1707 H1702 0.950 . S
C1707 C1709 1.327 . S
C1707 C1713 1.429 . S
C1708 C1700 1.574 . S
C1708 H1703 0.949 . S
C1708 C1714 1.368 . S
C1709 C1693 1.349 . S
C1709 H1701 0.950 . S
C1709 C1707 1.327 . S
C1710 C1698 1.349 . S
C1710 H1704 0.950 . S
C1710 C1711 1.327 . S
C1711 H1705 0.950 . S
C1711 C1710 1.327 . S
C1711 C1715 1.429 . S
C1712 C1695 1.574 . S
C1712 H1706 0.949 . S
C1712 C1716 1.368 . S
C1713 C1694 1.429 . S
C1713 C1707 1.429 . S
C1713 C1714 1.523 . S
C1714 C1695 1.368 . S
C1714 C1708 1.368 . S
C1714 C1713 1.523 . S
C1715 C1699 1.429 . S
C1715 C1711 1.429 . S
C1715 C1716 1.523 . S
C1716 C1700 1.368 . S
C1716 C1712 1.368 . S
C1716 C1715 1.523 . S
H1717 C1692 0.950 . S
H1718 C1694 0.950 . S
H1719 C1695 0.949 . S
H1720 C1697 0.950 . S
H1721 C1699 0.950 . S
C1722 C1723 1.330 1_455 S
C1722 C1724 1.317 1_455 S
C1722 H1747 0.981 . S
C1723 C1722 1.330 1_655 S
C1723 C1739 1.349 . S
C1724 C1722 1.317 1_655 S
C1724 C1743 1.429 . S
C1724 H1748 0.950 1_655 S
C1725 C1742 1.574 . S
C1725 C1744 1.368 . S
C1725 H1749 0.949 . S
H1726 C1730 0.949 . S
C1727 C1728 1.349 . S
C1727 C1729 1.327 . S
C1727 H1750 0.950 . S
C1728 C1727 1.349 . S
C1728 C1740 1.349 . S
C1729 C1727 1.327 . S
C1729 C1745 1.429 . S
C1729 H1751 0.950 . S
C1730 H1726 0.949 . S
C1730 C1738 1.574 . S
C1730 C1746 1.368 . S
H1731 C1739 0.950 . S
H1732 C1737 0.950 . S
H1733 C1738 0.949 . S
H1734 C1740 0.950 . S
H1735 C1741 0.950 . S
H1736 C1742 0.949 . S
C1737 H1732 0.950 . S
C1737 C1739 1.327 . S
C1737 C1743 1.429 . S
C1738 C1730 1.574 . S
C1738 H1733 0.949 . S
C1738 C1744 1.368 . S
C1739 C1723 1.349 . S
C1739 H1731 0.950 . S
C1739 C1737 1.327 . S
C1740 C1728 1.349 . S
C1740 H1734 0.950 . S
C1740 C1741 1.327 . S
C1741 H1735 0.950 . S
C1741 C1740 1.327 . S
C1741 C1745 1.429 . S
C1742 C1725 1.574 . S
C1742 H1736 0.949 . S
C1742 C1746 1.368 . S
C1743 C1724 1.429 . S
C1743 C1737 1.429 . S
C1743 C1744 1.523 . S
C1744 C1725 1.368 . S
C1744 C1738 1.368 . S
C1744 C1743 1.523 . S
C1745 C1729 1.429 . S
C1745 C1741 1.429 . S
C1745 C1746 1.523 . S
C1746 C1730 1.368 . S
C1746 C1742 1.368 . S
C1746 C1745 1.523 . S
H1747 C1722 0.981 . S
H1748 C1724 0.950 1_455 S
H1749 C1725 0.949 . S
H1750 C1727 0.950 . S
H1751 C1729 0.950 . S
C1752 C1753 1.349 . S
C1752 C1754 1.327 . S
C1752 H1777 0.950 . S
C1753 C1752 1.349 . S
C1753 C1769 1.349 . S
C1754 C1752 1.327 . S
C1754 C1773 1.429 . S
C1754 H1778 0.950 . S
C1755 C1772 1.574 . S
C1755 C1774 1.368 . S
C1755 H1779 0.949 . S
H1756 C1760 0.949 . S
C1757 C1758 1.349 . S
C1757 C1759 1.327 . S
C1757 H1780 0.950 . S
C1758 C1757 1.349 . S
C1758 C1770 1.349 . S
C1759 C1757 1.327 . S
C1759 C1775 1.429 . S
C1759 H1781 0.950 . S
C1760 H1756 0.949 . S
C1760 C1768 1.574 . S
C1760 C1776 1.368 . S
H1761 C1769 0.950 . S
H1762 C1767 0.950 . S
H1763 C1768 0.949 . S
H1764 C1770 0.950 . S
H1765 C1771 0.950 . S
H1766 C1772 0.949 . S
C1767 H1762 0.950 . S
C1767 C1769 1.327 . S
C1767 C1773 1.429 . S
C1768 C1760 1.574 . S
C1768 H1763 0.949 . S
C1768 C1774 1.368 . S
C1769 C1753 1.349 . S
C1769 H1761 0.950 . S
C1769 C1767 1.327 . S
C1770 C1758 1.349 . S
C1770 H1764 0.950 . S
C1770 C1771 1.327 . S
C1771 H1765 0.950 . S
C1771 C1770 1.327 . S
C1771 C1775 1.429 . S
C1772 C1755 1.574 . S
C1772 H1766 0.949 . S
C1772 C1776 1.368 . S
C1773 C1754 1.429 . S
C1773 C1767 1.429 . S
C1773 C1774 1.523 . S
C1774 C1755 1.368 . S
C1774 C1768 1.368 . S
C1774 C1773 1.523 . S
C1775 C1759 1.429 . S
C1775 C1771 1.429 . S
C1775 C1776 1.523 . S
C1776 C1760 1.368 . S
C1776 C1772 1.368 . S
C1776 C1775 1.523 . S
H1777 C1752 0.950 . S
H1778 C1754 0.950 . S
H1779 C1755 0.949 . S
H1780 C1757 0.950 . S
H1781 C1759 0.950 . S
C1782 C1783 1.349 . S
C1782 C1784 1.327 . S
C1782 H1807 0.950 . S
C1783 C1782 1.349 . S
C1783 C1799 1.349 . S
C1784 C1782 1.327 . S
C1784 C1803 1.429 . S
C1784 H1808 0.950 . S
C1785 C1802 1.574 . S
C1785 C1804 1.368 . S
C1785 H1809 0.949 . S
H1786 C1790 0.949 . S
C1787 C1788 1.349 . S
C1787 C1789 1.327 . S
C1787 H1810 0.950 . S
C1788 C1787 1.349 . S
C1788 C1800 1.349 . S
C1789 C1787 1.327 . S
C1789 C1805 1.429 . S
C1789 H1811 0.950 . S
C1790 H1786 0.949 . S
C1790 C1798 1.574 . S
C1790 C1806 1.368 . S
H1791 C1799 0.950 . S
H1792 C1797 0.950 . S
H1793 C1798 0.949 . S
H1794 C1800 0.950 . S
H1795 C1801 0.950 . S
H1796 C1802 0.949 . S
C1797 H1792 0.950 . S
C1797 C1799 1.327 . S
C1797 C1803 1.429 . S
C1798 C1790 1.574 . S
C1798 H1793 0.949 . S
C1798 C1804 1.368 . S
C1799 C1783 1.349 . S
C1799 H1791 0.950 . S
C1799 C1797 1.327 . S
C1800 C1788 1.349 . S
C1800 H1794 0.950 . S
C1800 C1801 1.327 . S
C1801 H1795 0.950 . S
C1801 C1800 1.327 . S
C1801 C1805 1.429 . S
C1802 C1785 1.574 . S
C1802 H1796 0.949 . S
C1802 C1806 1.368 . S
C1803 C1784 1.429 . S
C1803 C1797 1.429 . S
C1803 C1804 1.523 . S
C1804 C1785 1.368 . S
C1804 C1798 1.368 . S
C1804 C1803 1.523 . S
C1805 C1789 1.429 . S
C1805 C1801 1.429 . S
C1805 C1806 1.523 . S
C1806 C1790 1.368 . S
C1806 C1802 1.368 . S
C1806 C1805 1.523 . S
H1807 C1782 0.950 . S
H1808 C1784 0.950 . S
H1809 C1785 0.949 . S
H1810 C1787 0.950 . S
H1811 C1789 0.950 . S
C1812 C1813 1.349 1_545 S
C1812 C1814 1.327 . S
C1812 H1837 0.950 . S
C1813 C1812 1.349 1_565 S
C1813 C1829 1.349 . S
C1814 C1812 1.327 . S
C1814 C1833 1.429 1_545 S
C1814 H1838 0.950 . S
C1815 C1832 1.574 . S
C1815 C1834 1.368 . S
C1815 H1839 0.949 . S
H1816 C1820 0.949 . S
C1817 C1818 1.349 1_565 S
C1817 C1819 1.327 . S
C1817 H1840 0.950 . S
C1818 C1817 1.349 1_545 S
C1818 C1830 1.349 . S
C1819 C1817 1.327 . S
C1819 C1835 1.429 1_565 S
C1819 H1841 0.950 . S
C1820 H1816 0.949 . S
C1820 C1828 1.574 . S
C1820 C1836 1.324 1_545 S
H1821 C1829 0.950 . S
H1822 C1827 0.950 . S
H1823 C1828 0.949 . S
H1824 C1830 0.950 . S
H1825 C1831 0.950 . S
H1826 C1832 0.949 . S
C1827 H1822 0.950 . S
C1827 C1829 1.327 . S
C1827 C1833 1.429 . S
C1828 C1820 1.574 . S
C1828 H1823 0.949 . S
C1828 C1834 1.368 1_545 S
C1829 C1813 1.349 . S
C1829 H1821 0.950 . S
C1829 C1827 1.327 . S
C1830 C1818 1.349 . S
C1830 H1824 0.950 . S
C1830 C1831 1.327 . S
C1831 H1825 0.950 . S
C1831 C1830 1.327 . S
C1831 C1835 1.429 . S
C1832 C1815 1.574 . S
C1832 H1826 0.949 . S
C1832 C1836 1.420 . S
C1833 C1814 1.429 1_565 S
C1833 C1827 1.429 . S
C1833 C1834 1.523 . S
C1834 C1815 1.368 . S
C1834 C1828 1.368 1_565 S
C1834 C1833 1.523 . S
C1835 C1819 1.429 1_545 S
C1835 C1831 1.429 . S
C1835 C1836 1.516 1_545 S
C1836 C1820 1.324 1_565 S
C1836 C1832 1.420 . S
C1836 C1835 1.516 1_565 S
H1837 C1812 0.950 . S
H1838 C1814 0.950 . S
H1839 C1815 0.949 . S
H1840 C1817 0.950 . S
H1841 C1819 0.950 . S
C1842 C1843 1.344 1_565 S
C1842 C1844 1.327 . S
C1842 H1867 0.954 . S
C1843 C1842 1.344 1_545 S
C1843 C1859 1.349 . S
C1844 C1842 1.327 . S
C1844 C1863 1.429 1_565 S
C1844 H1868 0.950 . S
C1845 C1862 1.574 . S
C1845 C1864 1.368 . S
C1845 H1869 0.949 . S
H1846 C1850 0.949 . S
C1847 C1848 1.349 . S
C1847 C1849 1.327 . S
C1847 H1870 0.950 . S
C1848 C1847 1.349 . S
C1848 C1860 1.349 1_545 S
C1849 C1847 1.327 . S
C1849 C1865 1.429 . S
C1849 H1871 0.950 . S
C1850 H1846 0.949 . S
C1850 C1858 1.574 . S
C1850 C1866 1.368 1_565 S
H1851 C1859 0.950 . S
H1852 C1857 0.950 . S
H1853 C1858 0.949 . S
H1854 C1860 0.950 . S
H1855 C1861 0.950 . S
H1856 C1862 0.949 . S
C1857 H1852 0.950 . S
C1857 C1859 1.327 . S
C1857 C1863 1.429 . S
C1858 C1850 1.574 . S
C1858 H1853 0.949 . S
C1858 C1864 1.368 1_565 S
C1859 C1843 1.349 . S
C1859 H1851 0.950 . S
C1859 C1857 1.327 . S
C1860 C1848 1.349 1_565 S
C1860 H1854 0.950 . S
C1860 C1861 1.327 . S
C1861 H1855 0.950 . S
C1861 C1860 1.327 . S
C1861 C1865 1.429 1_565 S
C1862 C1845 1.574 . S
C1862 H1856 0.949 . S
C1862 C1866 1.368 . S
C1863 C1844 1.429 1_545 S
C1863 C1857 1.429 . S
C1863 C1864 1.523 . S
C1864 C1845 1.368 . S
C1864 C1858 1.368 1_545 S
C1864 C1863 1.523 . S
C1865 C1849 1.429 . S
C1865 C1861 1.429 1_545 S
C1865 C1866 1.523 . S
C1866 C1850 1.368 1_545 S
C1866 C1862 1.368 . S
C1866 C1865 1.523 . S
H1867 C1842 0.954 . S
H1868 C1844 0.950 . S
H1869 C1845 0.949 . S
H1870 C1847 0.950 . S
H1871 C1849 0.950 . S
C1872 C1873 1.349 . S
C1872 C1874 1.327 . S
C1872 H1897 0.950 . S
C1873 C1872 1.349 . S
C1873 C1889 1.349 . S
C1874 C1872 1.327 . S
C1874 C1893 1.429 . S
C1874 H1898 0.950 . S
C1875 C1892 1.574 . S
C1875 C1894 1.368 . S
C1875 H1899 0.949 . S
H1876 C1880 0.949 . S
C1877 C1878 1.349 . S
C1877 C1879 1.327 . S
C1877 H1900 0.950 . S
C1878 C1877 1.349 . S
C1878 C1890 1.349 . S
C1879 C1877 1.327 . S
C1879 C1895 1.429 . S
C1879 H1901 0.950 . S
C1880 H1876 0.949 . S
C1880 C1888 1.574 . S
C1880 C1896 1.368 . S
H1881 C1889 0.950 . S
H1882 C1887 0.950 . S
H1883 C1888 0.949 . S
H1884 C1890 0.950 . S
H1885 C1891 0.950 . S
H1886 C1892 0.949 . S
C1887 H1882 0.950 . S
C1887 C1889 1.327 . S
C1887 C1893 1.429 . S
C1888 C1880 1.574 . S
C1888 H1883 0.949 . S
C1888 C1894 1.368 . S
C1889 C1873 1.349 . S
C1889 H1881 0.950 . S
C1889 C1887 1.327 . S
C1890 C1878 1.349 . S
C1890 H1884 0.950 . S
C1890 C1891 1.327 . S
C1891 H1885 0.950 . S
C1891 C1890 1.327 . S
C1891 C1895 1.429 . S
C1892 C1875 1.574 . S
C1892 H1886 0.949 . S
C1892 C1896 1.368 . S
C1893 C1874 1.429 . S
C1893 C1887 1.429 . S
C1893 C1894 1.523 . S
C1894 C1875 1.368 . S
C1894 C1888 1.368 . S
C1894 C1893 1.523 . S
C1895 C1879 1.429 . S
C1895 C1891 1.429 . S
C1895 C1896 1.523 . S
C1896 C1880 1.368 . S
C1896 C1892 1.368 . S
C1896 C1895 1.523 . S
H1897 C1872 0.950 . S
H1898 C1874 0.950 . S
H1899 C1875 0.949 . S
H1900 C1877 0.950 . S
H1901 C1879 0.950 . S
C1902 C1903 1.349 . S
C1902 C1904 1.327 . S
C1902 H1927 0.950 . S
C1903 C1902 1.349 . S
C1903 C1919 1.349 . S
C1904 C1902 1.327 . S
C1904 C1923 1.429 . S
C1904 H1928 0.950 . S
C1905 C1922 1.574 . S
C1905 C1924 1.368 1_556 S
C1905 H1929 0.949 . S
H1906 C1910 0.949 . S
C1907 C1908 1.349 1_556 S
C1907 C1909 1.327 . S
C1907 H1930 0.950 . S
C1908 C1907 1.349 1_554 S
C1908 C1920 1.349 . S
C1909 C1907 1.327 . S
C1909 C1925 1.429 1_556 S
C1909 H1931 0.950 . S
C1910 H1906 0.949 . S
C1910 C1918 1.574 . S
C1910 C1926 1.368 . S
H1911 C1919 0.950 1_556 S
H1912 C1917 0.946 . S
H1913 C1918 0.949 . S
H1914 C1920 0.950 . S
H1915 C1921 0.950 . S
H1916 C1922 0.949 . S
C1917 H1912 0.946 . S
C1917 C1919 1.327 1_556 S
C1917 C1923 1.432 1_556 S
C1918 C1910 1.574 . S
C1918 H1913 0.949 . S
C1918 C1924 1.368 . S
C1919 C1903 1.349 . S
C1919 H1911 0.950 1_554 S
C1919 C1917 1.327 1_554 S
C1920 C1908 1.349 . S
C1920 H1914 0.950 . S
C1920 C1921 1.327 . S
C1921 H1915 0.950 . S
C1921 C1920 1.327 . S
C1921 C1925 1.429 . S
C1922 C1905 1.574 . S
C1922 H1916 0.949 . S
C1922 C1926 1.368 1_556 S
C1923 C1904 1.429 . S
C1923 C1917 1.432 1_554 S
C1923 C1924 1.523 . S
C1924 C1905 1.368 1_554 S
C1924 C1918 1.368 . S
C1924 C1923 1.523 . S
C1925 C1909 1.429 1_554 S
C1925 C1921 1.429 . S
C1925 C1926 1.523 . S
C1926 C1910 1.368 . S
C1926 C1922 1.368 1_554 S
C1926 C1925 1.523 . S
H1927 C1902 0.950 . S
H1928 C1904 0.950 . S
H1929 C1905 0.949 . S
H1930 C1907 0.950 . S
H1931 C1909 0.950 . S
C1932 C1933 1.349 . S
C1932 C1934 1.327 . S
C1932 H1957 0.950 . S
C1933 C1932 1.349 . S
C1933 C1949 1.349 . S
C1934 C1932 1.327 . S
C1934 C1953 1.429 . S
C1934 H1958 0.950 . S
C1935 C1952 1.574 . S
C1935 C1954 1.368 . S
C1935 H1959 0.949 . S
H1936 C1940 0.949 . S
C1937 C1938 1.349 . S
C1937 C1939 1.327 . S
C1937 H1960 0.950 . S
C1938 C1937 1.349 . S
C1938 C1950 1.349 . S
C1939 C1937 1.327 . S
C1939 C1955 1.429 . S
C1939 H1961 0.950 . S
C1940 H1936 0.949 . S
C1940 C1948 1.574 . S
C1940 C1956 1.368 . S
H1941 C1949 0.950 . S
H1942 C1947 0.950 . S
H1943 C1948 0.949 . S
H1944 C1950 0.950 . S
H1945 C1951 0.950 . S
H1946 C1952 0.949 . S
C1947 H1942 0.950 . S
C1947 C1949 1.327 . S
C1947 C1953 1.429 . S
C1948 C1940 1.574 . S
C1948 H1943 0.949 . S
C1948 C1954 1.368 . S
C1949 C1933 1.349 . S
C1949 H1941 0.950 . S
C1949 C1947 1.327 . S
C1950 C1938 1.349 . S
C1950 H1944 0.950 . S
C1950 C1951 1.327 . S
C1951 H1945 0.950 . S
C1951 C1950 1.327 . S
C1951 C1955 1.429 . S
C1952 C1935 1.574 . S
C1952 H1946 0.949 . S
C1952 C1956 1.368 . S
C1953 C1934 1.429 . S
C1953 C1947 1.429 . S
C1953 C1954 1.523 . S
C1954 C1935 1.368 . S
C1954 C1948 1.368 . S
C1954 C1953 1.523 . S
C1955 C1939 1.429 . S
C1955 C1951 1.429 . S
C1955 C1956 1.523 . S
C1956 C1940 1.368 . S
C1956 C1952 1.368 . S
C1956 C1955 1.523 . S
H1957 C1932 0.950 . S
H1958 C1934 0.950 . S
H1959 C1935 0.949 . S
H1960 C1937 0.950 . S
H1961 C1939 0.950 . S
C1962 C1963 1.349 1_554 S
C1962 C1964 1.327 . S
C1962 H1987 0.950 . S
C1963 C1962 1.349 1_556 S
C1963 C1979 1.349 . S
C1964 C1962 1.327 . S
C1964 C1983 1.429 1_554 S
C1964 H1988 0.950 . S
C1965 C1982 1.574 . S
C1965 C1984 1.368 . S
C1965 H1989 0.949 . S
H1966 C1970 0.949 . S
C1967 C1968 1.349 1_556 S
C1967 C1969 1.327 . S
C1967 H1990 0.950 . S
C1968 C1967 1.349 1_554 S
C1968 C1980 1.349 . S
C1969 C1967 1.327 . S
C1969 C1985 1.429 1_556 S
C1969 H1991 0.950 . S
C1970 H1966 0.949 . S
C1970 C1978 1.574 . S
C1970 C1986 1.328 1_554 S
H1971 C1979 0.950 . S
H1972 C1977 0.950 . S
H1973 C1978 0.949 . S
H1974 C1980 0.950 . S
H1975 C1981 0.950 . S
H1976 C1982 0.949 . S
C1977 H1972 0.950 . S
C1977 C1979 1.327 . S
C1977 C1983 1.429 . S
C1978 C1970 1.574 . S
C1978 H1973 0.949 . S
C1978 C1984 1.368 1_554 S
C1979 C1963 1.349 . S
C1979 H1971 0.950 . S
C1979 C1977 1.327 . S
C1980 C1968 1.349 . S
C1980 H1974 0.950 . S
C1980 C1981 1.327 . S
C1981 H1975 0.950 . S
C1981 C1980 1.327 . S
C1981 C1985 1.429 . S
C1982 C1965 1.574 . S
C1982 H1976 0.949 . S
C1982 C1986 1.416 . S
C1983 C1964 1.429 1_556 S
C1983 C1977 1.429 . S
C1983 C1984 1.523 . S
C1984 C1965 1.368 . S
C1984 C1978 1.368 1_556 S
C1984 C1983 1.523 . S
C1985 C1969 1.429 1_554 S
C1985 C1981 1.429 . S
C1985 C1986 1.516 1_554 S
C1986 C1970 1.328 1_556 S
C1986 C1982 1.416 . S
C1986 C1985 1.516 1_556 S
H1987 C1962 0.950 . S
H1988 C1964 0.950 . S
H1989 C1965 0.949 . S
H1990 C1967 0.950 . S
H1991 C1969 0.950 . S
C1992 C1993 1.349 . S
C1992 C1994 1.327 . S
C1992 H2017 0.950 . S
C1993 C1992 1.349 . S
C1993 C2009 1.349 . S
C1994 C1992 1.327 . S
C1994 C2013 1.429 . S
C1994 H2018 0.950 . S
C1995 C2012 1.574 . S
C1995 C2014 1.368 . S
C1995 H2019 0.949 . S
H1996 C2000 0.949 . S
C1997 C1998 1.349 . S
C1997 C1999 1.327 . S
C1997 H2020 0.950 . S
C1998 C1997 1.349 . S
C1998 C2010 1.349 . S
C1999 C1997 1.327 . S
C1999 C2015 1.429 . S
C1999 H2021 0.950 . S
C2000 H1996 0.949 . S
C2000 C2008 1.574 . S
C2000 C2016 1.368 . S
H2001 C2009 0.950 . S
H2002 C2007 0.950 . S
H2003 C2008 0.949 . S
H2004 C2010 0.950 . S
H2005 C2011 0.950 . S
H2006 C2012 0.949 . S
C2007 H2002 0.950 . S
C2007 C2009 1.327 . S
C2007 C2013 1.429 . S
C2008 C2000 1.574 . S
C2008 H2003 0.949 . S
C2008 C2014 1.368 . S
C2009 C1993 1.349 . S
C2009 H2001 0.950 . S
C2009 C2007 1.327 . S
C2010 C1998 1.349 . S
C2010 H2004 0.950 . S
C2010 C2011 1.327 . S
C2011 H2005 0.950 . S
C2011 C2010 1.327 . S
C2011 C2015 1.429 . S
C2012 C1995 1.574 . S
C2012 H2006 0.949 . S
C2012 C2016 1.368 . S
C2013 C1994 1.429 . S
C2013 C2007 1.429 . S
C2013 C2014 1.523 . S
C2014 C1995 1.368 . S
C2014 C2008 1.368 . S
C2014 C2013 1.523 . S
C2015 C1999 1.429 . S
C2015 C2011 1.429 . S
C2015 C2016 1.523 . S
C2016 C2000 1.368 . S
C2016 C2012 1.368 . S
C2016 C2015 1.523 . S
H2017 C1992 0.950 . S
H2018 C1994 0.950 . S
H2019 C1995 0.949 . S
H2020 C1997 0.950 . S
H2021 C1999 0.950 . S
C2022 C2023 1.349 . S
C2022 C2024 1.327 . S
C2022 H2047 0.950 . S
C2023 C2022 1.349 . S
C2023 C2039 1.349 . S
C2024 C2022 1.327 . S
C2024 C2043 1.429 . S
C2024 H2048 0.950 . S
C2025 C2042 1.575 . S
C2025 C2044 1.337 1_655 S
C2025 H2049 0.980 . S
H2026 C2030 0.949 . S
C2027 C2028 1.349 1_655 S
C2027 C2029 1.327 . S
C2027 H2050 0.950 . S
C2028 C2027 1.349 1_455 S
C2028 C2040 1.349 . S
C2029 C2027 1.327 . S
C2029 C2045 1.429 1_655 S
C2029 H2051 0.950 . S
C2030 H2026 0.949 . S
C2030 C2038 1.574 . S
C2030 C2046 1.368 . S
H2031 C2039 0.950 1_655 S
H2032 C2037 0.950 1_655 S
H2033 C2038 0.949 . S
H2034 C2040 0.950 . S
H2035 C2041 0.950 . S
H2036 C2042 0.949 . S
C2037 H2032 0.950 1_455 S
C2037 C2039 1.327 . S
C2037 C2043 1.429 . S
C2038 C2030 1.574 . S
C2038 H2033 0.949 . S
C2038 C2044 1.368 . S
C2039 C2023 1.349 . S
C2039 H2031 0.950 1_455 S
C2039 C2037 1.327 . S
C2040 C2028 1.349 . S
C2040 H2034 0.950 . S
C2040 C2041 1.327 . S
C2041 H2035 0.950 . S
C2041 C2040 1.327 . S
C2041 C2045 1.429 . S
C2042 C2025 1.575 . S
C2042 H2036 0.949 . S
C2042 C2046 1.368 1_655 S
C2043 C2024 1.429 . S
C2043 C2037 1.429 . S
C2043 C2044 1.523 . S
C2044 C2025 1.337 1_455 S
C2044 C2038 1.368 . S
C2044 C2043 1.523 . S
C2045 C2029 1.429 1_455 S
C2045 C2041 1.429 . S
C2045 C2046 1.523 . S
C2046 C2030 1.368 . S
C2046 C2042 1.368 1_455 S
C2046 C2045 1.523 . S
H2047 C2022 0.950 . S
H2048 C2024 0.950 . S
H2049 C2025 0.980 . S
H2050 C2027 0.950 . S
H2051 C2029 0.950 . S
C2052 C2053 1.349 . S
C2052 C2054 1.327 . S
C2052 H2077 0.950 . S
C2053 C2052 1.349 . S
C2053 C2069 1.349 . S
C2054 C2052 1.327 . S
C2054 C2073 1.429 . S
C2054 H2078 0.950 . S
C2055 C2072 1.574 . S
C2055 C2074 1.368 . S
C2055 H2079 0.949 . S
H2056 C2060 0.949 . S
C2057 C2058 1.349 . S
C2057 C2059 1.327 . S
C2057 H2080 0.950 . S
C2058 C2057 1.349 . S
C2058 C2070 1.349 . S
C2059 C2057 1.327 . S
C2059 C2075 1.429 . S
C2059 H2081 0.950 . S
C2060 H2056 0.949 . S
C2060 C2068 1.574 . S
C2060 C2076 1.368 . S
H2061 C2069 0.950 . S
H2062 C2067 0.950 . S
H2063 C2068 0.949 . S
H2064 C2070 0.950 . S
H2065 C2071 0.950 . S
H2066 C2072 0.949 . S
C2067 H2062 0.950 . S
C2067 C2069 1.327 . S
C2067 C2073 1.429 . S
C2068 C2060 1.574 . S
C2068 H2063 0.949 . S
C2068 C2074 1.368 . S
C2069 C2053 1.349 . S
C2069 H2061 0.950 . S
C2069 C2067 1.327 . S
C2070 C2058 1.349 . S
C2070 H2064 0.950 . S
C2070 C2071 1.327 . S
C2071 H2065 0.950 . S
C2071 C2070 1.327 . S
C2071 C2075 1.429 . S
C2072 C2055 1.574 . S
C2072 H2066 0.949 . S
C2072 C2076 1.368 . S
C2073 C2054 1.429 . S
C2073 C2067 1.429 . S
C2073 C2074 1.523 . S
C2074 C2055 1.368 . S
C2074 C2068 1.368 . S
C2074 C2073 1.523 . S
C2075 C2059 1.429 . S
C2075 C2071 1.429 . S
C2075 C2076 1.523 . S
C2076 C2060 1.368 . S
C2076 C2072 1.368 . S
C2076 C2075 1.523 . S
H2077 C2052 0.950 . S
H2078 C2054 0.950 . S
H2079 C2055 0.949 . S
H2080 C2057 0.950 . S
H2081 C2059 0.950 . S
C2082 C2083 1.385 . S
C2082 C2084 1.311 1_655 S
C2082 H2107 0.926 1_655 S
C2083 C2082 1.385 . S
C2083 C2099 1.349 . S
C2084 C2082 1.311 1_455 S
C2084 C2103 1.402 1_455 S
C2084 H2108 0.993 . S
C2085 C2102 1.574 . S
C2085 C2104 1.368 . S
C2085 H2109 0.949 . S
H2086 C2090 0.949 . S
C2087 C2088 1.349 1_655 S
C2087 C2089 1.327 . S
C2087 H2110 0.950 . S
C2088 C2087 1.349 1_455 S
C2088 C2100 1.349 . S
C2089 C2087 1.327 . S
C2089 C2105 1.429 1_655 S
C2089 H2111 0.950 . S
C2090 H2086 0.949 . S
C2090 C2098 1.574 . S
C2090 C2106 1.344 1_455 S
H2091 C2099 0.950 . S
H2092 C2097 0.950 . S
H2093 C2098 0.949 . S
H2094 C2100 0.950 . S
H2095 C2101 0.950 . S
H2096 C2102 0.949 . S
C2097 H2092 0.950 . S
C2097 C2099 1.327 . S
C2097 C2103 1.429 . S
C2098 C2090 1.574 . S
C2098 H2093 0.949 . S
C2098 C2104 1.368 1_455 S
C2099 C2083 1.349 . S
C2099 H2091 0.950 . S
C2099 C2097 1.327 . S
C2100 C2088 1.349 . S
C2100 H2094 0.950 . S
C2100 C2101 1.327 . S
C2101 H2095 0.950 . S
C2101 C2100 1.327 . S
C2101 C2105 1.429 . S
C2102 C2085 1.574 . S
C2102 H2096 0.949 . S
C2102 C2106 1.400 . S
C2103 C2084 1.402 1_655 S
C2103 C2097 1.429 . S
C2103 C2104 1.523 . S
C2104 C2085 1.368 . S
C2104 C2098 1.368 1_655 S
C2104 C2103 1.523 . S
C2105 C2089 1.429 1_455 S
C2105 C2101 1.429 . S
C2105 C2106 1.516 1_455 S
C2106 C2090 1.344 1_655 S
C2106 C2102 1.400 . S
C2106 C2105 1.516 1_655 S
H2107 C2082 0.926 1_455 S
H2108 C2084 0.993 . S
H2109 C2085 0.949 . S
H2110 C2087 0.950 . S
H2111 C2089 0.950 . S
C2112 C2113 1.349 . S
C2112 C2114 1.327 . S
C2112 H2137 0.950 . S
C2113 C2112 1.349 . S
C2113 C2129 1.349 . S
C2114 C2112 1.327 . S
C2114 C2133 1.429 . S
C2114 H2138 0.950 . S
C2115 C2132 1.574 . S
C2115 C2134 1.368 . S
C2115 H2139 0.949 . S
H2116 C2120 0.949 . S
C2117 C2118 1.349 . S
C2117 C2119 1.327 . S
C2117 H2140 0.950 . S
C2118 C2117 1.349 . S
C2118 C2130 1.349 . S
C2119 C2117 1.327 . S
C2119 C2135 1.429 . S
C2119 H2141 0.950 . S
C2120 H2116 0.949 . S
C2120 C2128 1.574 . S
C2120 C2136 1.368 . S
H2121 C2129 0.950 . S
H2122 C2127 0.950 . S
H2123 C2128 0.949 . S
H2124 C2130 0.950 . S
H2125 C2131 0.950 . S
H2126 C2132 0.949 . S
C2127 H2122 0.950 . S
C2127 C2129 1.327 . S
C2127 C2133 1.429 . S
C2128 C2120 1.574 . S
C2128 H2123 0.949 . S
C2128 C2134 1.368 . S
C2129 C2113 1.349 . S
C2129 H2121 0.950 . S
C2129 C2127 1.327 . S
C2130 C2118 1.349 . S
C2130 H2124 0.950 . S
C2130 C2131 1.327 . S
C2131 H2125 0.950 . S
C2131 C2130 1.327 . S
C2131 C2135 1.429 . S
C2132 C2115 1.574 . S
C2132 H2126 0.949 . S
C2132 C2136 1.368 . S
C2133 C2114 1.429 . S
C2133 C2127 1.429 . S
C2133 C2134 1.523 . S
C2134 C2115 1.368 . S
C2134 C2128 1.368 . S
C2134 C2133 1.523 . S
C2135 C2119 1.429 . S
C2135 C2131 1.429 . S
C2135 C2136 1.523 . S
C2136 C2120 1.368 . S
C2136 C2132 1.368 . S
C2136 C2135 1.523 . S
H2137 C2112 0.950 . S
H2138 C2114 0.950 . S
H2139 C2115 0.949 . S
H2140 C2117 0.950 . S
H2141 C2119 0.950 . S
C2142 C2143 1.349 . S
C2142 C2144 1.327 . S
C2142 H2167 0.950 . S
C2143 C2142 1.349 . S
C2143 C2159 1.349 . S
C2144 C2142 1.327 . S
C2144 C2163 1.429 . S
C2144 H2168 0.950 . S
C2145 C2162 1.574 . S
C2145 C2164 1.368 . S
C2145 H2169 0.949 . S
H2146 C2150 0.949 . S
C2147 C2148 1.349 . S
C2147 C2149 1.327 . S
C2147 H2170 0.950 . S
C2148 C2147 1.349 . S
C2148 C2160 1.349 . S
C2149 C2147 1.327 . S
C2149 C2165 1.429 . S
C2149 H2171 0.950 . S
C2150 H2146 0.949 . S
C2150 C2158 1.574 . S
C2150 C2166 1.368 . S
H2151 C2159 0.950 . S
H2152 C2157 0.950 . S
H2153 C2158 0.949 . S
H2154 C2160 0.950 . S
H2155 C2161 0.950 . S
H2156 C2162 0.949 . S
C2157 H2152 0.950 . S
C2157 C2159 1.327 . S
C2157 C2163 1.429 . S
C2158 C2150 1.574 . S
C2158 H2153 0.949 . S
C2158 C2164 1.368 . S
C2159 C2143 1.349 . S
C2159 H2151 0.950 . S
C2159 C2157 1.327 . S
C2160 C2148 1.349 . S
C2160 H2154 0.950 . S
C2160 C2161 1.327 . S
C2161 H2155 0.950 . S
C2161 C2160 1.327 . S
C2161 C2165 1.429 . S
C2162 C2145 1.574 . S
C2162 H2156 0.949 . S
C2162 C2166 1.368 . S
C2163 C2144 1.429 . S
C2163 C2157 1.429 . S
C2163 C2164 1.523 . S
C2164 C2145 1.368 . S
C2164 C2158 1.368 . S
C2164 C2163 1.523 . S
C2165 C2149 1.429 . S
C2165 C2161 1.429 . S
C2165 C2166 1.523 . S
C2166 C2150 1.368 . S
C2166 C2162 1.368 . S
C2166 C2165 1.523 . S
H2167 C2142 0.950 . S
H2168 C2144 0.950 . S
H2169 C2145 0.949 . S
H2170 C2147 0.950 . S
H2171 C2149 0.950 . S
C2172 C2173 1.349 . S
C2172 C2174 1.319 1_545 S
C2172 H2197 0.950 1_545 S
C2173 C2172 1.349 . S
C2173 C2189 1.349 . S
C2174 C2172 1.319 1_565 S
C2174 C2193 1.409 1_565 S
C2174 H2198 0.981 . S
C2175 C2192 1.574 . S
C2175 C2194 1.368 . S
C2175 H2199 0.949 . S
H2176 C2180 0.949 . S
C2177 C2178 1.349 1_545 S
C2177 C2179 1.327 . S
C2177 H2200 0.950 . S
C2178 C2177 1.349 1_565 S
C2178 C2190 1.349 . S
C2179 C2177 1.327 . S
C2179 C2195 1.429 1_545 S
C2179 H2201 0.950 . S
C2180 H2176 0.949 . S
C2180 C2188 1.574 . S
C2180 C2196 1.345 1_565 S
H2181 C2189 0.950 . S
H2182 C2187 0.950 . S
H2183 C2188 0.949 . S
H2184 C2190 0.950 . S
H2185 C2191 0.950 . S
H2186 C2192 0.949 . S
C2187 H2182 0.950 . S
C2187 C2189 1.327 . S
C2187 C2193 1.429 . S
C2188 C2180 1.574 . S
C2188 H2183 0.949 . S
C2188 C2194 1.368 1_565 S
C2189 C2173 1.349 . S
C2189 H2181 0.950 . S
C2189 C2187 1.327 . S
C2190 C2178 1.349 . S
C2190 H2184 0.950 . S
C2190 C2191 1.327 . S
C2191 H2185 0.950 . S
C2191 C2190 1.327 . S
C2191 C2195 1.429 . S
C2192 C2175 1.574 . S
C2192 H2186 0.949 . S
C2192 C2196 1.400 . S
C2193 C2174 1.409 1_545 S
C2193 C2187 1.429 . S
C2193 C2194 1.523 . S
C2194 C2175 1.368 . S
C2194 C2188 1.368 1_545 S
C2194 C2193 1.523 . S
C2195 C2179 1.429 1_565 S
C2195 C2191 1.429 . S
C2195 C2196 1.516 1_565 S
C2196 C2180 1.345 1_545 S
C2196 C2192 1.400 . S
C2196 C2195 1.516 1_545 S
H2197 C2172 0.950 1_565 S
H2198 C2174 0.981 . S
H2199 C2175 0.949 . S
H2200 C2177 0.950 . S
H2201 C2179 0.950 . S
C2202 C2203 1.349 . S
C2202 C2204 1.327 . S
C2202 H2227 0.950 . S
C2203 C2202 1.349 . S
C2203 C2219 1.323 1_565 S
C2204 C2202 1.327 . S
C2204 C2223 1.429 . S
C2204 H2228 0.950 . S
C2205 C2222 1.574 . S
C2205 C2224 1.368 1_545 S
C2205 H2229 0.949 . S
H2206 C2210 0.949 . S
C2207 C2208 1.349 1_545 S
C2207 C2209 1.327 . S
C2207 H2230 0.950 . S
C2208 C2207 1.349 1_565 S
C2208 C2220 1.349 . S
C2209 C2207 1.327 . S
C2209 C2225 1.429 1_545 S
C2209 H2231 0.950 . S
C2210 H2206 0.949 . S
C2210 C2218 1.574 . S
C2210 C2226 1.368 . S
H2211 C2219 0.976 . S
H2212 C2217 0.950 . S
H2213 C2218 0.949 . S
H2214 C2220 0.950 . S
H2215 C2221 0.950 . S
H2216 C2222 0.949 . S
C2217 H2212 0.950 . S
C2217 C2219 1.328 . S
C2217 C2223 1.429 1_545 S
C2218 C2210 1.574 . S
C2218 H2213 0.949 . S
C2218 C2224 1.368 . S
C2219 C2203 1.323 1_545 S
C2219 H2211 0.976 . S
C2219 C2217 1.328 . S
C2220 C2208 1.349 . S
C2220 H2214 0.950 . S
C2220 C2221 1.327 . S
C2221 H2215 0.950 . S
C2221 C2220 1.327 . S
C2221 C2225 1.429 . S
C2222 C2205 1.574 . S
C2222 H2216 0.949 . S
C2222 C2226 1.368 1_545 S
C2223 C2204 1.429 . S
C2223 C2217 1.429 1_565 S
C2223 C2224 1.523 . S
C2224 C2205 1.368 1_565 S
C2224 C2218 1.368 . S
C2224 C2223 1.523 . S
C2225 C2209 1.429 1_565 S
C2225 C2221 1.429 . S
C2225 C2226 1.523 . S
C2226 C2210 1.368 . S
C2226 C2222 1.368 1_565 S
C2226 C2225 1.523 . S
H2227 C2202 0.950 . S
H2228 C2204 0.950 . S
H2229 C2205 0.949 . S
H2230 C2207 0.950 . S
H2231 C2209 0.950 . S
C2232 C2233 1.349 . S
C2232 C2234 1.327 . S
C2232 H2257 0.950 . S
C2233 C2232 1.349 . S
C2233 C2249 1.349 . S
C2234 C2232 1.327 . S
C2234 C2253 1.429 . S
C2234 H2258 0.950 . S
C2235 C2252 1.574 . S
C2235 C2254 1.368 . S
C2235 H2259 0.949 . S
H2236 C2240 0.949 . S
C2237 C2238 1.349 . S
C2237 C2239 1.327 . S
C2237 H2260 0.950 . S
C2238 C2237 1.349 . S
C2238 C2250 1.349 . S
C2239 C2237 1.327 . S
C2239 C2255 1.429 . S
C2239 H2261 0.950 . S
C2240 H2236 0.949 . S
C2240 C2248 1.574 . S
C2240 C2256 1.368 . S
H2241 C2249 0.950 . S
H2242 C2247 0.950 . S
H2243 C2248 0.949 . S
H2244 C2250 0.950 . S
H2245 C2251 0.950 . S
H2246 C2252 0.949 . S
C2247 H2242 0.950 . S
C2247 C2249 1.327 . S
C2247 C2253 1.429 . S
C2248 C2240 1.574 . S
C2248 H2243 0.949 . S
C2248 C2254 1.368 . S
C2249 C2233 1.349 . S
C2249 H2241 0.950 . S
C2249 C2247 1.327 . S
C2250 C2238 1.349 . S
C2250 H2244 0.950 . S
C2250 C2251 1.327 . S
C2251 H2245 0.950 . S
C2251 C2250 1.327 . S
C2251 C2255 1.429 . S
C2252 C2235 1.574 . S
C2252 H2246 0.949 . S
C2252 C2256 1.368 . S
C2253 C2234 1.429 . S
C2253 C2247 1.429 . S
C2253 C2254 1.523 . S
C2254 C2235 1.368 . S
C2254 C2248 1.368 . S
C2254 C2253 1.523 . S
C2255 C2239 1.429 . S
C2255 C2251 1.429 . S
C2255 C2256 1.523 . S
C2256 C2240 1.368 . S
C2256 C2252 1.368 . S
C2256 C2255 1.523 . S
H2257 C2232 0.950 . S
H2258 C2234 0.950 . S
H2259 C2235 0.949 . S
H2260 C2237 0.950 . S
H2261 C2239 0.950 . S
C2262 C2263 1.349 . S
C2262 C2264 1.327 . S
C2262 H2287 0.950 1_556 S
C2263 C2262 1.349 . S
C2263 C2279 1.349 . S
C2264 C2262 1.327 . S
C2264 C2283 1.429 . S
C2264 H2288 0.950 1_556 S
C2265 C2282 1.574 . S
C2265 C2284 1.368 . S
C2265 H2289 0.949 . S
H2266 C2270 0.949 . S
C2267 C2268 1.349 . S
C2267 C2269 1.327 . S
C2267 H2290 0.950 . S
C2268 C2267 1.349 . S
C2268 C2280 1.349 1_556 S
C2269 C2267 1.327 . S
C2269 C2285 1.429 . S
C2269 H2291 0.950 . S
C2270 H2266 0.949 . S
C2270 C2278 1.574 . S
C2270 C2286 1.368 1_554 S
H2271 C2279 0.950 . S
H2272 C2277 0.950 . S
H2273 C2278 0.949 . S
H2274 C2280 0.950 . S
H2275 C2281 0.950 . S
H2276 C2282 0.949 . S
C2277 H2272 0.950 . S
C2277 C2279 1.327 . S
C2277 C2283 1.429 . S
C2278 C2270 1.574 . S
C2278 H2273 0.949 . S
C2278 C2284 1.368 1_554 S
C2279 C2263 1.349 . S
C2279 H2271 0.950 . S
C2279 C2277 1.327 . S
C2280 C2268 1.349 1_554 S
C2280 H2274 0.950 . S
C2280 C2281 1.327 . S
C2281 H2275 0.950 . S
C2281 C2280 1.327 . S
C2281 C2285 1.429 1_554 S
C2282 C2265 1.574 . S
C2282 H2276 0.949 . S
C2282 C2286 1.368 . S
C2283 C2264 1.429 . S
C2283 C2277 1.429 . S
C2283 C2284 1.523 . S
C2284 C2265 1.368 . S
C2284 C2278 1.368 1_556 S
C2284 C2283 1.523 . S
C2285 C2269 1.429 . S
C2285 C2281 1.429 1_556 S
C2285 C2286 1.523 . S
C2286 C2270 1.368 1_556 S
C2286 C2282 1.368 . S
C2286 C2285 1.523 . S
H2287 C2262 0.950 1_554 S
H2288 C2264 0.950 1_554 S
H2289 C2265 0.949 . S
H2290 C2267 0.950 . S
H2291 C2269 0.950 . S
C2292 C2293 1.349 . S
C2292 C2294 1.327 . S
C2292 H2317 0.950 . S
C2293 C2292 1.349 . S
C2293 C2309 1.349 . S
C2294 C2292 1.327 . S
C2294 C2313 1.429 . S
C2294 H2318 0.950 . S
C2295 C2312 1.574 . S
C2295 C2314 1.368 . S
C2295 H2319 0.949 . S
H2296 C2300 0.949 . S
C2297 C2298 1.349 . S
C2297 C2299 1.327 . S
C2297 H2320 0.950 . S
C2298 C2297 1.349 . S
C2298 C2310 1.349 . S
C2299 C2297 1.327 . S
C2299 C2315 1.429 . S
C2299 H2321 0.950 . S
C2300 H2296 0.949 . S
C2300 C2308 1.574 . S
C2300 C2316 1.368 . S
H2301 C2309 0.950 . S
H2302 C2307 0.950 . S
H2303 C2308 0.949 . S
H2304 C2310 0.950 . S
H2305 C2311 0.950 . S
H2306 C2312 0.949 . S
C2307 H2302 0.950 . S
C2307 C2309 1.327 . S
C2307 C2313 1.429 . S
C2308 C2300 1.574 . S
C2308 H2303 0.949 . S
C2308 C2314 1.368 . S
C2309 C2293 1.349 . S
C2309 H2301 0.950 . S
C2309 C2307 1.327 . S
C2310 C2298 1.349 . S
C2310 H2304 0.950 . S
C2310 C2311 1.327 . S
C2311 H2305 0.950 . S
C2311 C2310 1.327 . S
C2311 C2315 1.429 . S
C2312 C2295 1.574 . S
C2312 H2306 0.949 . S
C2312 C2316 1.368 . S
C2313 C2294 1.429 . S
C2313 C2307 1.429 . S
C2313 C2314 1.523 . S
C2314 C2295 1.368 . S
C2314 C2308 1.368 . S
C2314 C2313 1.523 . S
C2315 C2299 1.429 . S
C2315 C2311 1.429 . S
C2315 C2316 1.523 . S
C2316 C2300 1.368 . S
C2316 C2312 1.368 . S
C2316 C2315 1.523 . S
H2317 C2292 0.950 . S
H2318 C2294 0.950 . S
H2319 C2295 0.949 . S
H2320 C2297 0.950 . S
H2321 C2299 0.950 . S
C2322 C2323 1.349 . S
C2322 C2324 1.327 . S
C2322 H2347 0.950 . S
C2323 C2322 1.349 . S
C2323 C2339 1.349 . S
C2324 C2322 1.327 . S
C2324 C2343 1.429 . S
C2324 H2348 0.950 . S
C2325 C2342 1.575 . S
C2325 C2344 1.367 1_556 S
C2325 H2349 0.950 . S
H2326 C2330 0.949 . S
C2327 C2328 1.349 . S
C2327 C2329 1.327 . S
C2327 H2350 0.950 . S
C2328 C2327 1.349 . S
C2328 C2340 1.355 . S
C2329 C2327 1.327 . S
C2329 C2345 1.429 . S
C2329 H2351 0.950 . S
C2330 H2326 0.949 . S
C2330 C2338 1.574 . S
C2330 C2346 1.380 . S
H2331 C2339 0.950 . S
H2332 C2337 0.959 . S
H2333 C2338 0.949 . S
H2334 C2340 0.948 1_554 S
H2335 C2341 0.950 . S
H2336 C2342 0.949 . S
C2337 H2332 0.959 . S
C2337 C2339 1.327 . S
C2337 C2343 1.429 . S
C2338 C2330 1.574 . S
C2338 H2333 0.949 . S
C2338 C2344 1.368 . S
C2339 C2323 1.349 . S
C2339 H2331 0.950 . S
C2339 C2337 1.327 . S
C2340 C2328 1.355 . S
C2340 H2334 0.948 1_556 S
C2340 C2341 1.323 1_556 S
C2341 H2335 0.950 . S
C2341 C2340 1.323 1_554 S
C2341 C2345 1.429 1_554 S
C2342 C2325 1.575 . S
C2342 H2336 0.949 . S
C2342 C2346 1.364 1_556 S
C2343 C2324 1.429 . S
C2343 C2337 1.429 . S
C2343 C2344 1.523 . S
C2344 C2325 1.367 1_554 S
C2344 C2338 1.368 . S
C2344 C2343 1.523 . S
C2345 C2329 1.429 . S
C2345 C2341 1.429 1_556 S
C2345 C2346 1.516 1_556 S
C2346 C2330 1.380 . S
C2346 C2342 1.364 1_554 S
C2346 C2345 1.516 1_554 S
H2347 C2322 0.950 . S
H2348 C2324 0.950 . S
H2349 C2325 0.950 . S
H2350 C2327 0.950 . S
H2351 C2329 0.950 . S
C2352 C2353 1.349 . S
C2352 C2354 1.327 . S
C2352 H2377 0.950 . S
C2353 C2352 1.349 . S
C2353 C2369 1.349 . S
C2354 C2352 1.327 . S
C2354 C2373 1.429 . S
C2354 H2378 0.950 . S
C2355 C2372 1.574 . S
C2355 C2374 1.368 . S
C2355 H2379 0.949 . S
H2356 C2360 0.949 . S
C2357 C2358 1.349 . S
C2357 C2359 1.327 . S
C2357 H2380 0.950 . S
C2358 C2357 1.349 . S
C2358 C2370 1.349 . S
C2359 C2357 1.327 . S
C2359 C2375 1.429 . S
C2359 H2381 0.950 . S
C2360 H2356 0.949 . S
C2360 C2368 1.574 . S
C2360 C2376 1.368 . S
H2361 C2369 0.950 . S
H2362 C2367 0.950 . S
H2363 C2368 0.949 . S
H2364 C2370 0.950 . S
H2365 C2371 0.950 . S
H2366 C2372 0.949 . S
C2367 H2362 0.950 . S
C2367 C2369 1.327 . S
C2367 C2373 1.429 . S
C2368 C2360 1.574 . S
C2368 H2363 0.949 . S
C2368 C2374 1.368 . S
C2369 C2353 1.349 . S
C2369 H2361 0.950 . S
C2369 C2367 1.327 . S
C2370 C2358 1.349 . S
C2370 H2364 0.950 . S
C2370 C2371 1.327 . S
C2371 H2365 0.950 . S
C2371 C2370 1.327 . S
C2371 C2375 1.429 . S
C2372 C2355 1.574 . S
C2372 H2366 0.949 . S
C2372 C2376 1.368 . S
C2373 C2354 1.429 . S
C2373 C2367 1.429 . S
C2373 C2374 1.523 . S
C2374 C2355 1.368 . S
C2374 C2368 1.368 . S
C2374 C2373 1.523 . S
C2375 C2359 1.429 . S
C2375 C2371 1.429 . S
C2375 C2376 1.523 . S
C2376 C2360 1.368 . S
C2376 C2372 1.368 . S
C2376 C2375 1.523 . S
H2377 C2352 0.950 . S
H2378 C2354 0.950 . S
H2379 C2355 0.949 . S
H2380 C2357 0.950 . S
H2381 C2359 0.950 . S
C2382 C2383 1.349 . S
C2382 C2384 1.327 . S
C2382 H2407 0.950 . S
C2383 C2382 1.349 . S
C2383 C2399 1.349 . S
C2384 C2382 1.327 . S
C2384 C2403 1.429 . S
C2384 H2408 0.950 . S
C2385 C2402 1.574 . S
C2385 C2404 1.363 1_455 S
C2385 H2409 0.954 . S
H2386 C2390 0.949 . S
C2387 C2388 1.349 1_455 S
C2387 C2389 1.327 . S
C2387 H2410 0.950 . S
C2388 C2387 1.349 1_655 S
C2388 C2400 1.349 . S
C2389 C2387 1.327 . S
C2389 C2405 1.429 1_455 S
C2389 H2411 0.950 . S
C2390 H2386 0.949 . S
C2390 C2398 1.574 . S
C2390 C2406 1.368 . S
H2391 C2399 0.928 1_455 S
H2392 C2397 0.950 1_455 S
H2393 C2398 0.949 . S
H2394 C2400 0.950 . S
H2395 C2401 0.950 . S
H2396 C2402 0.949 . S
C2397 H2392 0.950 1_655 S
C2397 C2399 1.327 . S
C2397 C2403 1.429 . S
C2398 C2390 1.574 . S
C2398 H2393 0.949 . S
C2398 C2404 1.368 . S
C2399 C2383 1.349 . S
C2399 H2391 0.928 1_655 S
C2399 C2397 1.327 . S
C2400 C2388 1.349 . S
C2400 H2394 0.950 . S
C2400 C2401 1.327 . S
C2401 H2395 0.950 . S
C2401 C2400 1.327 . S
C2401 C2405 1.429 . S
C2402 C2385 1.574 . S
C2402 H2396 0.949 . S
C2402 C2406 1.368 1_455 S
C2403 C2384 1.429 . S
C2403 C2397 1.429 . S
C2403 C2404 1.523 . S
C2404 C2385 1.363 1_655 S
C2404 C2398 1.368 . S
C2404 C2403 1.523 . S
C2405 C2389 1.429 1_655 S
C2405 C2401 1.429 . S
C2405 C2406 1.523 . S
C2406 C2390 1.368 . S
C2406 C2402 1.368 1_655 S
C2406 C2405 1.523 . S
H2407 C2382 0.950 . S
H2408 C2384 0.950 . S
H2409 C2385 0.954 . S
H2410 C2387 0.950 . S
H2411 C2389 0.950 . S
C2412 C2413 1.349 . S
C2412 C2414 1.327 . S
C2412 H2437 0.950 . S
C2413 C2412 1.349 . S
C2413 C2429 1.349 . S
C2414 C2412 1.327 . S
C2414 C2433 1.429 . S
C2414 H2438 0.950 . S
C2415 C2432 1.574 . S
C2415 C2434 1.368 . S
C2415 H2439 0.949 . S
H2416 C2420 0.949 . S
C2417 C2418 1.349 . S
C2417 C2419 1.327 . S
C2417 H2440 0.950 . S
C2418 C2417 1.349 . S
C2418 C2430 1.349 . S
C2419 C2417 1.327 . S
C2419 C2435 1.429 . S
C2419 H2441 0.950 . S
C2420 H2416 0.949 . S
C2420 C2428 1.574 . S
C2420 C2436 1.368 . S
H2421 C2429 0.950 . S
H2422 C2427 0.950 . S
H2423 C2428 0.949 . S
H2424 C2430 0.950 . S
H2425 C2431 0.950 . S
H2426 C2432 0.949 . S
C2427 H2422 0.950 . S
C2427 C2429 1.327 . S
C2427 C2433 1.429 . S
C2428 C2420 1.574 . S
C2428 H2423 0.949 . S
C2428 C2434 1.368 . S
C2429 C2413 1.349 . S
C2429 H2421 0.950 . S
C2429 C2427 1.327 . S
C2430 C2418 1.349 . S
C2430 H2424 0.950 . S
C2430 C2431 1.327 . S
C2431 H2425 0.950 . S
C2431 C2430 1.327 . S
C2431 C2435 1.429 . S
C2432 C2415 1.574 . S
C2432 H2426 0.949 . S
C2432 C2436 1.368 . S
C2433 C2414 1.429 . S
C2433 C2427 1.429 . S
C2433 C2434 1.523 . S
C2434 C2415 1.368 . S
C2434 C2428 1.368 . S
C2434 C2433 1.523 . S
C2435 C2419 1.429 . S
C2435 C2431 1.429 . S
C2435 C2436 1.523 . S
C2436 C2420 1.368 . S
C2436 C2432 1.368 . S
C2436 C2435 1.523 . S
H2437 C2412 0.950 . S
H2438 C2414 0.950 . S
H2439 C2415 0.949 . S
H2440 C2417 0.950 . S
H2441 C2419 0.950 . S
C2442 C2443 1.340 1_655 S
C2442 C2444 1.330 . S
C2442 H2467 0.956 . S
C2443 C2442 1.340 1_455 S
C2443 C2459 1.349 . S
C2444 C2442 1.330 . S
C2444 C2463 1.429 1_655 S
C2444 H2468 0.950 . S
C2445 C2462 1.574 . S
C2445 C2464 1.368 . S
C2445 H2469 0.949 . S
H2446 C2450 0.949 . S
C2447 C2448 1.349 1_455 S
C2447 C2449 1.327 . S
C2447 H2470 0.950 . S
C2448 C2447 1.349 1_655 S
C2448 C2460 1.349 . S
C2449 C2447 1.327 . S
C2449 C2465 1.429 1_455 S
C2449 H2471 0.950 . S
C2450 H2446 0.949 . S
C2450 C2458 1.574 . S
C2450 C2466 1.345 1_655 S
H2451 C2459 0.950 . S
H2452 C2457 0.950 . S
H2453 C2458 0.949 . S
H2454 C2460 0.950 . S
H2455 C2461 0.950 . S
H2456 C2462 0.949 . S
C2457 H2452 0.950 . S
C2457 C2459 1.327 . S
C2457 C2463 1.429 . S
C2458 C2450 1.574 . S
C2458 H2453 0.949 . S
C2458 C2464 1.368 1_655 S
C2459 C2443 1.349 . S
C2459 H2451 0.950 . S
C2459 C2457 1.327 . S
C2460 C2448 1.349 . S
C2460 H2454 0.950 . S
C2460 C2461 1.327 . S
C2461 H2455 0.950 . S
C2461 C2460 1.327 . S
C2461 C2465 1.429 . S
C2462 C2445 1.574 . S
C2462 H2456 0.949 . S
C2462 C2466 1.399 . S
C2463 C2444 1.429 1_455 S
C2463 C2457 1.429 . S
C2463 C2464 1.523 . S
C2464 C2445 1.368 . S
C2464 C2458 1.368 1_455 S
C2464 C2463 1.523 . S
C2465 C2449 1.429 1_655 S
C2465 C2461 1.429 . S
C2465 C2466 1.516 1_655 S
C2466 C2450 1.345 1_455 S
C2466 C2462 1.399 . S
C2466 C2465 1.516 1_455 S
H2467 C2442 0.956 . S
H2468 C2444 0.950 . S
H2469 C2445 0.949 . S
H2470 C2447 0.950 . S
H2471 C2449 0.950 . S
C2472 C2473 1.349 . S
C2472 C2474 1.327 . S
C2472 H2497 0.950 . S
C2473 C2472 1.349 . S
C2473 C2489 1.349 . S
C2474 C2472 1.327 . S
C2474 C2493 1.429 . S
C2474 H2498 0.950 . S
C2475 C2492 1.574 . S
C2475 C2494 1.368 . S
C2475 H2499 0.949 . S
H2476 C2480 0.949 . S
C2477 C2478 1.349 . S
C2477 C2479 1.327 . S
C2477 H2500 0.950 . S
C2478 C2477 1.349 . S
C2478 C2490 1.349 . S
C2479 C2477 1.327 . S
C2479 C2495 1.429 . S
C2479 H2501 0.950 . S
C2480 H2476 0.949 . S
C2480 C2488 1.574 . S
C2480 C2496 1.368 . S
H2481 C2489 0.950 . S
H2482 C2487 0.950 . S
H2483 C2488 0.949 . S
H2484 C2490 0.950 . S
H2485 C2491 0.950 . S
H2486 C2492 0.949 . S
C2487 H2482 0.950 . S
C2487 C2489 1.327 . S
C2487 C2493 1.429 . S
C2488 C2480 1.574 . S
C2488 H2483 0.949 . S
C2488 C2494 1.368 . S
C2489 C2473 1.349 . S
C2489 H2481 0.950 . S
C2489 C2487 1.327 . S
C2490 C2478 1.349 . S
C2490 H2484 0.950 . S
C2490 C2491 1.327 . S
C2491 H2485 0.950 . S
C2491 C2490 1.327 . S
C2491 C2495 1.429 . S
C2492 C2475 1.574 . S
C2492 H2486 0.949 . S
C2492 C2496 1.368 . S
C2493 C2474 1.429 . S
C2493 C2487 1.429 . S
C2493 C2494 1.523 . S
C2494 C2475 1.368 . S
C2494 C2488 1.368 . S
C2494 C2493 1.523 . S
C2495 C2479 1.429 . S
C2495 C2491 1.429 . S
C2495 C2496 1.523 . S
C2496 C2480 1.368 . S
C2496 C2492 1.368 . S
C2496 C2495 1.523 . S
H2497 C2472 0.950 . S
H2498 C2474 0.950 . S
H2499 C2475 0.949 . S
H2500 C2477 0.950 . S
H2501 C2479 0.950 . S
C2502 C2503 1.349 . S
C2502 C2504 1.327 . S
C2502 H2527 0.950 . S
C2503 C2502 1.349 . S
C2503 C2519 1.349 . S
C2504 C2502 1.327 . S
C2504 C2523 1.429 . S
C2504 H2528 0.950 . S
C2505 C2522 1.574 . S
C2505 C2524 1.368 . S
C2505 H2529 0.949 . S
H2506 C2510 0.949 . S
C2507 C2508 1.349 . S
C2507 C2509 1.327 . S
C2507 H2530 0.950 . S
C2508 C2507 1.349 . S
C2508 C2520 1.349 . S
C2509 C2507 1.327 . S
C2509 C2525 1.429 . S
C2509 H2531 0.950 . S
C2510 H2506 0.949 . S
C2510 C2518 1.574 . S
C2510 C2526 1.368 . S
H2511 C2519 0.950 . S
H2512 C2517 0.950 . S
H2513 C2518 0.949 . S
H2514 C2520 0.950 . S
H2515 C2521 0.950 . S
H2516 C2522 0.949 . S
C2517 H2512 0.950 . S
C2517 C2519 1.327 . S
C2517 C2523 1.429 . S
C2518 C2510 1.574 . S
C2518 H2513 0.949 . S
C2518 C2524 1.368 . S
C2519 C2503 1.349 . S
C2519 H2511 0.950 . S
C2519 C2517 1.327 . S
C2520 C2508 1.349 . S
C2520 H2514 0.950 . S
C2520 C2521 1.327 . S
C2521 H2515 0.950 . S
C2521 C2520 1.327 . S
C2521 C2525 1.429 . S
C2522 C2505 1.574 . S
C2522 H2516 0.949 . S
C2522 C2526 1.368 . S
C2523 C2504 1.429 . S
C2523 C2517 1.429 . S
C2523 C2524 1.523 . S
C2524 C2505 1.368 . S
C2524 C2518 1.368 . S
C2524 C2523 1.523 . S
C2525 C2509 1.429 . S
C2525 C2521 1.429 . S
C2525 C2526 1.523 . S
C2526 C2510 1.368 . S
C2526 C2522 1.368 . S
C2526 C2525 1.523 . S
H2527 C2502 0.950 . S
H2528 C2504 0.950 . S
H2529 C2505 0.949 . S
H2530 C2507 0.950 . S
H2531 C2509 0.950 . S
C2532 C2533 1.349 . S
C2532 C2534 1.327 . S
C2532 H2557 0.950 . S
C2533 C2532 1.349 . S
C2533 C2549 1.349 . S
C2534 C2532 1.327 . S
C2534 C2553 1.429 . S
C2534 H2558 0.950 . S
C2535 C2552 1.574 . S
C2535 C2554 1.368 . S
C2535 H2559 0.949 . S
H2536 C2540 0.949 . S
C2537 C2538 1.349 . S
C2537 C2539 1.327 . S
C2537 H2560 0.950 . S
C2538 C2537 1.349 . S
C2538 C2550 1.349 . S
C2539 C2537 1.327 . S
C2539 C2555 1.429 . S
C2539 H2561 0.950 . S
C2540 H2536 0.949 . S
C2540 C2548 1.574 . S
C2540 C2556 1.368 . S
H2541 C2549 0.950 1_565 S
H2542 C2547 0.950 . S
H2543 C2548 0.949 . S
H2544 C2550 0.950 . S
H2545 C2551 0.950 . S
H2546 C2552 0.949 . S
C2547 H2542 0.950 . S
C2547 C2549 1.327 . S
C2547 C2553 1.429 . S
C2548 C2540 1.574 . S
C2548 H2543 0.949 . S
C2548 C2554 1.368 . S
C2549 C2533 1.349 . S
C2549 H2541 0.950 1_545 S
C2549 C2547 1.327 . S
C2550 C2538 1.349 . S
C2550 H2544 0.950 . S
C2550 C2551 1.327 . S
C2551 H2545 0.950 . S
C2551 C2550 1.327 . S
C2551 C2555 1.429 . S
C2552 C2535 1.574 . S
C2552 H2546 0.949 . S
C2552 C2556 1.368 . S
C2553 C2534 1.429 . S
C2553 C2547 1.429 . S
C2553 C2554 1.523 . S
C2554 C2535 1.368 . S
C2554 C2548 1.368 . S
C2554 C2553 1.523 . S
C2555 C2539 1.429 . S
C2555 C2551 1.429 . S
C2555 C2556 1.523 . S
C2556 C2540 1.368 . S
C2556 C2552 1.368 . S
C2556 C2555 1.523 . S
H2557 C2532 0.950 . S
H2558 C2534 0.950 . S
H2559 C2535 0.949 . S
H2560 C2537 0.950 . S
H2561 C2539 0.950 . S
C2562 C2563 1.349 . S
C2562 C2564 1.327 . S
C2562 H2587 0.950 1_565 S
C2563 C2562 1.349 . S
C2563 C2579 1.349 . S
C2564 C2562 1.327 . S
C2564 C2583 1.429 . S
C2564 H2588 0.950 . S
C2565 C2582 1.574 . S
C2565 C2584 1.368 . S
C2565 H2589 0.949 . S
H2566 C2570 0.949 . S
C2567 C2568 1.349 . S
C2567 C2569 1.327 . S
C2567 H2590 0.950 . S
C2568 C2567 1.349 . S
C2568 C2580 1.349 . S
C2569 C2567 1.327 . S
C2569 C2585 1.429 . S
C2569 H2591 0.950 . S
C2570 H2566 0.949 . S
C2570 C2578 1.574 . S
C2570 C2586 1.368 . S
H2571 C2579 0.950 . S
H2572 C2577 0.950 . S
H2573 C2578 0.949 . S
H2574 C2580 0.950 . S
H2575 C2581 0.950 . S
H2576 C2582 0.949 . S
C2577 H2572 0.950 . S
C2577 C2579 1.327 . S
C2577 C2583 1.429 . S
C2578 C2570 1.574 . S
C2578 H2573 0.949 . S
C2578 C2584 1.368 . S
C2579 C2563 1.349 . S
C2579 H2571 0.950 . S
C2579 C2577 1.327 . S
C2580 C2568 1.349 . S
C2580 H2574 0.950 . S
C2580 C2581 1.327 . S
C2581 H2575 0.950 . S
C2581 C2580 1.327 . S
C2581 C2585 1.429 . S
C2582 C2565 1.574 . S
C2582 H2576 0.949 . S
C2582 C2586 1.368 . S
C2583 C2564 1.429 . S
C2583 C2577 1.429 . S
C2583 C2584 1.523 . S
C2584 C2565 1.368 . S
C2584 C2578 1.368 . S
C2584 C2583 1.523 . S
C2585 C2569 1.429 . S
C2585 C2581 1.429 . S
C2585 C2586 1.523 . S
C2586 C2570 1.368 . S
C2586 C2582 1.368 . S
C2586 C2585 1.523 . S
H2587 C2562 0.950 1_545 S
H2588 C2564 0.950 . S
H2589 C2565 0.949 . S
H2590 C2567 0.950 . S
H2591 C2569 0.950 . S
C2592 C2593 1.349 . S
C2592 C2594 1.327 . S
C2592 H2617 0.950 . S
C2593 C2592 1.349 . S
C2593 C2609 1.349 . S
C2594 C2592 1.327 . S
C2594 C2613 1.429 . S
C2594 H2618 0.950 . S
C2595 C2612 1.574 . S
C2595 C2614 1.368 . S
C2595 H2619 0.949 . S
H2596 C2600 0.949 . S
C2597 C2598 1.349 . S
C2597 C2599 1.327 . S
C2597 H2620 0.950 . S
C2598 C2597 1.349 . S
C2598 C2610 1.349 . S
C2599 C2597 1.327 . S
C2599 C2615 1.429 . S
C2599 H2621 0.950 . S
C2600 H2596 0.949 . S
C2600 C2608 1.574 . S
C2600 C2616 1.368 . S
H2601 C2609 0.950 . S
H2602 C2607 0.950 . S
H2603 C2608 0.949 . S
H2604 C2610 0.950 . S
H2605 C2611 0.950 . S
H2606 C2612 0.949 . S
C2607 H2602 0.950 . S
C2607 C2609 1.327 . S
C2607 C2613 1.429 . S
C2608 C2600 1.574 . S
C2608 H2603 0.949 . S
C2608 C2614 1.368 . S
C2609 C2593 1.349 . S
C2609 H2601 0.950 . S
C2609 C2607 1.327 . S
C2610 C2598 1.349 . S
C2610 H2604 0.950 . S
C2610 C2611 1.327 . S
C2611 H2605 0.950 . S
C2611 C2610 1.327 . S
C2611 C2615 1.429 . S
C2612 C2595 1.574 . S
C2612 H2606 0.949 . S
C2612 C2616 1.368 . S
C2613 C2594 1.429 . S
C2613 C2607 1.429 . S
C2613 C2614 1.523 . S
C2614 C2595 1.368 . S
C2614 C2608 1.368 . S
C2614 C2613 1.523 . S
C2615 C2599 1.429 . S
C2615 C2611 1.429 . S
C2615 C2616 1.523 . S
C2616 C2600 1.368 . S
C2616 C2612 1.368 . S
C2616 C2615 1.523 . S
H2617 C2592 0.950 . S
H2618 C2594 0.950 . S
H2619 C2595 0.949 . S
H2620 C2597 0.950 . S
H2621 C2599 0.950 . S
C2622 C2623 1.349 . S
C2622 C2624 1.327 . S
C2622 H2647 0.950 . S
C2623 C2622 1.349 . S
C2623 C2639 1.349 . S
C2624 C2622 1.327 . S
C2624 C2643 1.429 . S
C2624 H2648 0.950 . S
C2625 C2642 1.574 . S
C2625 C2644 1.368 . S
C2625 H2649 0.949 . S
H2626 C2630 0.949 . S
C2627 C2628 1.349 . S
C2627 C2629 1.327 . S
C2627 H2650 0.950 . S
C2628 C2627 1.349 . S
C2628 C2640 1.349 . S
C2629 C2627 1.327 . S
C2629 C2645 1.429 . S
C2629 H2651 0.950 . S
C2630 H2626 0.949 . S
C2630 C2638 1.574 . S
C2630 C2646 1.368 . S
H2631 C2639 0.950 1_554 S
H2632 C2637 0.950 . S
H2633 C2638 0.949 . S
H2634 C2640 0.950 . S
H2635 C2641 0.950 . S
H2636 C2642 0.949 . S
C2637 H2632 0.950 . S
C2637 C2639 1.327 . S
C2637 C2643 1.429 . S
C2638 C2630 1.574 . S
C2638 H2633 0.949 . S
C2638 C2644 1.368 . S
C2639 C2623 1.349 . S
C2639 H2631 0.950 1_556 S
C2639 C2637 1.327 . S
C2640 C2628 1.349 . S
C2640 H2634 0.950 . S
C2640 C2641 1.327 . S
C2641 H2635 0.950 . S
C2641 C2640 1.327 . S
C2641 C2645 1.429 . S
C2642 C2625 1.574 . S
C2642 H2636 0.949 . S
C2642 C2646 1.368 . S
C2643 C2624 1.429 . S
C2643 C2637 1.429 . S
C2643 C2644 1.523 . S
C2644 C2625 1.368 . S
C2644 C2638 1.368 . S
C2644 C2643 1.523 . S
C2645 C2629 1.429 . S
C2645 C2641 1.429 . S
C2645 C2646 1.523 . S
C2646 C2630 1.368 . S
C2646 C2642 1.368 . S
C2646 C2645 1.523 . S
H2647 C2622 0.950 . S
H2648 C2624 0.950 . S
H2649 C2625 0.949 . S
H2650 C2627 0.950 . S
H2651 C2629 0.950 . S
C2652 C2653 1.349 . S
C2652 C2654 1.327 . S
C2652 H2677 0.950 . S
C2653 C2652 1.349 . S
C2653 C2669 1.349 . S
C2654 C2652 1.327 . S
C2654 C2673 1.429 . S
C2654 H2678 0.950 . S
C2655 C2672 1.574 . S
C2655 C2674 1.368 . S
C2655 H2679 0.949 . S
H2656 C2660 0.949 . S
C2657 C2658 1.349 . S
C2657 C2659 1.327 . S
C2657 H2680 0.950 . S
C2658 C2657 1.349 . S
C2658 C2670 1.349 . S
C2659 C2657 1.327 . S
C2659 C2675 1.429 . S
C2659 H2681 0.950 . S
C2660 H2656 0.949 . S
C2660 C2668 1.574 . S
C2660 C2676 1.368 . S
H2661 C2669 0.950 . S
H2662 C2667 0.950 . S
H2663 C2668 0.949 . S
H2664 C2670 0.950 . S
H2665 C2671 0.950 . S
H2666 C2672 0.949 . S
C2667 H2662 0.950 . S
C2667 C2669 1.327 . S
C2667 C2673 1.429 . S
C2668 C2660 1.574 . S
C2668 H2663 0.949 . S
C2668 C2674 1.368 . S
C2669 C2653 1.349 . S
C2669 H2661 0.950 . S
C2669 C2667 1.327 . S
C2670 C2658 1.349 . S
C2670 H2664 0.950 . S
C2670 C2671 1.327 . S
C2671 H2665 0.950 . S
C2671 C2670 1.327 . S
C2671 C2675 1.429 . S
C2672 C2655 1.574 . S
C2672 H2666 0.949 . S
C2672 C2676 1.368 . S
C2673 C2654 1.429 . S
C2673 C2667 1.429 . S
C2673 C2674 1.523 . S
C2674 C2655 1.368 . S
C2674 C2668 1.368 . S
C2674 C2673 1.523 . S
C2675 C2659 1.429 . S
C2675 C2671 1.429 . S
C2675 C2676 1.523 . S
C2676 C2660 1.368 . S
C2676 C2672 1.368 . S
C2676 C2675 1.523 . S
H2677 C2652 0.950 . S
H2678 C2654 0.950 . S
H2679 C2655 0.949 . S
H2680 C2657 0.950 . S
H2681 C2659 0.950 . S
C2682 C2683 1.349 1_556 S
C2682 C2684 1.335 . S
C2682 H2707 0.950 . S
C2683 C2682 1.349 1_554 S
C2683 C2699 1.349 . S
C2684 C2682 1.335 . S
C2684 C2703 1.397 1_556 S
C2684 H2708 0.976 . S
C2685 C2702 1.574 . S
C2685 C2704 1.368 . S
C2685 H2709 0.949 . S
H2686 C2690 0.949 . S
C2687 C2688 1.349 . S
C2687 C2689 1.327 . S
C2687 H2710 0.950 . S
C2688 C2687 1.349 . S
C2688 C2700 1.349 . S
C2689 C2687 1.327 . S
C2689 C2705 1.429 . S
C2689 H2711 0.950 . S
C2690 H2686 0.949 . S
C2690 C2698 1.574 . S
C2690 C2706 1.368 . S
H2691 C2699 0.950 . S
H2692 C2697 0.950 . S
H2693 C2698 0.949 1_556 S
H2694 C2700 0.950 . S
H2695 C2701 0.950 . S
H2696 C2702 0.949 . S
C2697 H2692 0.950 . S
C2697 C2699 1.327 . S
C2697 C2703 1.429 . S
C2698 C2690 1.574 . S
C2698 H2693 0.949 1_554 S
C2698 C2704 1.368 . S
C2699 C2683 1.349 . S
C2699 H2691 0.950 . S
C2699 C2697 1.327 . S
C2700 C2688 1.349 . S
C2700 H2694 0.950 . S
C2700 C2701 1.327 . S
C2701 H2695 0.950 . S
C2701 C2700 1.327 . S
C2701 C2705 1.429 . S
C2702 C2685 1.574 . S
C2702 H2696 0.949 . S
C2702 C2706 1.368 . S
C2703 C2684 1.397 1_554 S
C2703 C2697 1.429 . S
C2703 C2704 1.523 . S
C2704 C2685 1.368 . S
C2704 C2698 1.368 . S
C2704 C2703 1.523 . S
C2705 C2689 1.429 . S
C2705 C2701 1.429 . S
C2705 C2706 1.523 . S
C2706 C2690 1.368 . S
C2706 C2702 1.368 . S
C2706 C2705 1.523 . S
H2707 C2682 0.950 . S
H2708 C2684 0.976 . S
H2709 C2685 0.949 . S
H2710 C2687 0.950 . S
H2711 C2689 0.950 . S
C2712 C2713 1.349 . S
C2712 C2714 1.327 . S
C2712 H2737 0.950 . S
C2713 C2712 1.349 . S
C2713 C2729 1.349 . S
C2714 C2712 1.327 . S
C2714 C2733 1.429 . S
C2714 H2738 0.950 . S
C2715 C2732 1.574 . S
C2715 C2734 1.368 . S
C2715 H2739 0.949 . S
H2716 C2720 0.949 . S
C2717 C2718 1.349 . S
C2717 C2719 1.327 . S
C2717 H2740 0.950 . S
C2718 C2717 1.349 . S
C2718 C2730 1.349 . S
C2719 C2717 1.327 . S
C2719 C2735 1.429 . S
C2719 H2741 0.950 . S
C2720 H2716 0.949 . S
C2720 C2728 1.574 . S
C2720 C2736 1.368 . S
H2721 C2729 0.950 . S
H2722 C2727 0.950 . S
H2723 C2728 0.949 . S
H2724 C2730 0.950 . S
H2725 C2731 0.950 . S
H2726 C2732 0.949 . S
C2727 H2722 0.950 . S
C2727 C2729 1.327 . S
C2727 C2733 1.429 . S
C2728 C2720 1.574 . S
C2728 H2723 0.949 . S
C2728 C2734 1.368 . S
C2729 C2713 1.349 . S
C2729 H2721 0.950 . S
C2729 C2727 1.327 . S
C2730 C2718 1.349 . S
C2730 H2724 0.950 . S
C2730 C2731 1.327 . S
C2731 H2725 0.950 . S
C2731 C2730 1.327 . S
C2731 C2735 1.429 . S
C2732 C2715 1.574 . S
C2732 H2726 0.949 . S
C2732 C2736 1.368 . S
C2733 C2714 1.429 . S
C2733 C2727 1.429 . S
C2733 C2734 1.523 . S
C2734 C2715 1.368 . S
C2734 C2728 1.368 . S
C2734 C2733 1.523 . S
C2735 C2719 1.429 . S
C2735 C2731 1.429 . S
C2735 C2736 1.523 . S
C2736 C2720 1.368 . S
C2736 C2732 1.368 . S
C2736 C2735 1.523 . S
H2737 C2712 0.950 . S
H2738 C2714 0.950 . S
H2739 C2715 0.949 . S
H2740 C2717 0.950 . S
H2741 C2719 0.950 . S
C2742 C2743 1.349 . S
C2742 C2744 1.327 . S
C2742 H2767 0.953 . S
C2743 C2742 1.349 . S
C2743 C2759 1.349 . S
C2744 C2742 1.327 . S
C2744 C2763 1.429 . S
C2744 H2768 0.950 . S
C2745 C2762 1.574 . S
C2745 C2764 1.368 . S
C2745 H2769 0.949 . S
H2746 C2750 0.949 . S
C2747 C2748 1.349 . S
C2747 C2749 1.327 . S
C2747 H2770 0.950 . S
C2748 C2747 1.349 . S
C2748 C2760 1.349 . S
C2749 C2747 1.327 . S
C2749 C2765 1.429 . S
C2749 H2771 0.950 . S
C2750 H2746 0.949 . S
C2750 C2758 1.574 . S
C2750 C2766 1.368 . S
H2751 C2759 0.950 . S
H2752 C2757 0.950 . S
H2753 C2758 0.949 . S
H2754 C2760 0.950 . S
H2755 C2761 0.950 . S
H2756 C2762 0.949 . S
C2757 H2752 0.950 . S
C2757 C2759 1.327 . S
C2757 C2763 1.429 . S
C2758 C2750 1.574 . S
C2758 H2753 0.949 . S
C2758 C2764 1.368 . S
C2759 C2743 1.349 . S
C2759 H2751 0.950 . S
C2759 C2757 1.327 . S
C2760 C2748 1.349 . S
C2760 H2754 0.950 . S
C2760 C2761 1.327 . S
C2761 H2755 0.950 . S
C2761 C2760 1.327 . S
C2761 C2765 1.429 . S
C2762 C2745 1.574 . S
C2762 H2756 0.949 . S
C2762 C2766 1.368 . S
C2763 C2744 1.429 . S
C2763 C2757 1.429 . S
C2763 C2764 1.523 . S
C2764 C2745 1.368 . S
C2764 C2758 1.368 . S
C2764 C2763 1.523 . S
C2765 C2749 1.429 . S
C2765 C2761 1.429 . S
C2765 C2766 1.523 . S
C2766 C2750 1.368 . S
C2766 C2762 1.368 . S
C2766 C2765 1.523 . S
H2767 C2742 0.953 . S
H2768 C2744 0.950 . S
H2769 C2745 0.949 . S
H2770 C2747 0.950 . S
H2771 C2749 0.950 . S
C2772 C2773 1.349 . S
C2772 C2774 1.327 . S
C2772 H2797 0.950 . S
C2773 C2772 1.349 . S
C2773 C2789 1.349 . S
C2774 C2772 1.327 . S
C2774 C2793 1.429 . S
C2774 H2798 0.950 . S
C2775 C2792 1.574 . S
C2775 C2794 1.368 . S
C2775 H2799 0.949 . S
H2776 C2780 0.949 . S
C2777 C2778 1.349 . S
C2777 C2779 1.327 . S
C2777 H2800 0.950 . S
C2778 C2777 1.349 . S
C2778 C2790 1.349 . S
C2779 C2777 1.327 . S
C2779 C2795 1.429 . S
C2779 H2801 0.950 . S
C2780 H2776 0.949 . S
C2780 C2788 1.574 . S
C2780 C2796 1.368 . S
H2781 C2789 0.950 . S
H2782 C2787 0.950 . S
H2783 C2788 0.949 . S
H2784 C2790 0.950 . S
H2785 C2791 0.950 . S
H2786 C2792 0.949 . S
C2787 H2782 0.950 . S
C2787 C2789 1.327 . S
C2787 C2793 1.429 . S
C2788 C2780 1.574 . S
C2788 H2783 0.949 . S
C2788 C2794 1.368 . S
C2789 C2773 1.349 . S
C2789 H2781 0.950 . S
C2789 C2787 1.327 . S
C2790 C2778 1.349 . S
C2790 H2784 0.950 . S
C2790 C2791 1.327 . S
C2791 H2785 0.950 . S
C2791 C2790 1.327 . S
C2791 C2795 1.429 . S
C2792 C2775 1.574 . S
C2792 H2786 0.949 . S
C2792 C2796 1.368 . S
C2793 C2774 1.429 . S
C2793 C2787 1.429 . S
C2793 C2794 1.523 . S
C2794 C2775 1.368 . S
C2794 C2788 1.368 . S
C2794 C2793 1.523 . S
C2795 C2779 1.429 . S
C2795 C2791 1.429 . S
C2795 C2796 1.523 . S
C2796 C2780 1.368 . S
C2796 C2792 1.368 . S
C2796 C2795 1.523 . S
H2797 C2772 0.950 . S
H2798 C2774 0.950 . S
H2799 C2775 0.949 . S
H2800 C2777 0.950 . S
H2801 C2779 0.950 . S
C2802 C2803 1.349 . S
C2802 C2804 1.327 . S
C2802 H2827 0.950 . S
C2803 C2802 1.349 . S
C2803 C2819 1.351 1_455 S
C2804 C2802 1.327 . S
C2804 C2823 1.429 . S
C2804 H2828 0.950 . S
C2805 C2822 1.574 . S
C2805 C2824 1.368 . S
C2805 H2829 0.949 . S
H2806 C2810 0.949 . S
C2807 C2808 1.349 . S
C2807 C2809 1.327 . S
C2807 H2830 0.950 . S
C2808 C2807 1.349 . S
C2808 C2820 1.349 . S
C2809 C2807 1.327 . S
C2809 C2825 1.429 . S
C2809 H2831 0.950 . S
C2810 H2806 0.949 . S
C2810 C2818 1.574 . S
C2810 C2826 1.368 . S
H2811 C2819 0.946 . S
H2812 C2817 0.930 1_655 S
H2813 C2818 0.949 . S
H2814 C2820 0.950 . S
H2815 C2821 0.950 . S
H2816 C2822 0.949 . S
C2817 H2812 0.930 1_455 S
C2817 C2819 1.328 1_455 S
C2817 C2823 1.429 . S
C2818 C2810 1.574 . S
C2818 H2813 0.949 . S
C2818 C2824 1.368 . S
C2819 C2803 1.351 1_655 S
C2819 H2811 0.946 . S
C2819 C2817 1.328 1_655 S
C2820 C2808 1.349 . S
C2820 H2814 0.950 . S
C2820 C2821 1.327 . S
C2821 H2815 0.950 . S
C2821 C2820 1.327 . S
C2821 C2825 1.429 . S
C2822 C2805 1.574 . S
C2822 H2816 0.949 . S
C2822 C2826 1.368 . S
C2823 C2804 1.429 . S
C2823 C2817 1.429 . S
C2823 C2824 1.523 . S
C2824 C2805 1.368 . S
C2824 C2818 1.368 . S
C2824 C2823 1.523 . S
C2825 C2809 1.429 . S
C2825 C2821 1.429 . S
C2825 C2826 1.523 . S
C2826 C2810 1.368 . S
C2826 C2822 1.368 . S
C2826 C2825 1.523 . S
H2827 C2802 0.950 . S
H2828 C2804 0.950 . S
H2829 C2805 0.949 . S
H2830 C2807 0.950 . S
H2831 C2809 0.950 . S
C2832 C2833 1.349 . S
C2832 C2834 1.327 . S
C2832 H2857 0.950 . S
C2833 C2832 1.349 . S
C2833 C2849 1.349 . S
C2834 C2832 1.327 . S
C2834 C2853 1.429 . S
C2834 H2858 0.950 . S
C2835 C2852 1.574 . S
C2835 C2854 1.368 . S
C2835 H2859 0.949 . S
H2836 C2840 0.949 . S
C2837 C2838 1.349 . S
C2837 C2839 1.327 . S
C2837 H2860 0.950 . S
C2838 C2837 1.349 . S
C2838 C2850 1.349 . S
C2839 C2837 1.327 . S
C2839 C2855 1.429 . S
C2839 H2861 0.950 . S
C2840 H2836 0.949 . S
C2840 C2848 1.574 . S
C2840 C2856 1.368 . S
H2841 C2849 0.950 . S
H2842 C2847 0.950 . S
H2843 C2848 0.949 . S
H2844 C2850 0.950 . S
H2845 C2851 0.950 . S
H2846 C2852 0.949 . S
C2847 H2842 0.950 . S
C2847 C2849 1.327 . S
C2847 C2853 1.429 . S
C2848 C2840 1.574 . S
C2848 H2843 0.949 . S
C2848 C2854 1.368 . S
C2849 C2833 1.349 . S
C2849 H2841 0.950 . S
C2849 C2847 1.327 . S
C2850 C2838 1.349 . S
C2850 H2844 0.950 . S
C2850 C2851 1.327 . S
C2851 H2845 0.950 . S
C2851 C2850 1.327 . S
C2851 C2855 1.429 . S
C2852 C2835 1.574 . S
C2852 H2846 0.949 . S
C2852 C2856 1.368 . S
C2853 C2834 1.429 . S
C2853 C2847 1.429 . S
C2853 C2854 1.523 . S
C2854 C2835 1.368 . S
C2854 C2848 1.368 . S
C2854 C2853 1.523 . S
C2855 C2839 1.429 . S
C2855 C2851 1.429 . S
C2855 C2856 1.523 . S
C2856 C2840 1.368 . S
C2856 C2852 1.368 . S
C2856 C2855 1.523 . S
H2857 C2832 0.950 . S
H2858 C2834 0.950 . S
H2859 C2835 0.949 . S
H2860 C2837 0.950 . S
H2861 C2839 0.950 . S
C2862 C2863 1.349 . S
C2862 C2864 1.327 . S
C2862 H2887 0.950 . S
C2863 C2862 1.349 . S
C2863 C2879 1.349 . S
C2864 C2862 1.327 . S
C2864 C2883 1.429 . S
C2864 H2888 0.950 . S
C2865 C2882 1.574 . S
C2865 C2884 1.368 . S
C2865 H2889 0.949 . S
H2866 C2870 0.949 . S
C2867 C2868 1.349 . S
C2867 C2869 1.327 . S
C2867 H2890 0.950 . S
C2868 C2867 1.349 . S
C2868 C2880 1.349 . S
C2869 C2867 1.327 . S
C2869 C2885 1.429 . S
C2869 H2891 0.950 . S
C2870 H2866 0.949 . S
C2870 C2878 1.574 . S
C2870 C2886 1.368 . S
H2871 C2879 0.950 . S
H2872 C2877 0.950 . S
H2873 C2878 0.949 . S
H2874 C2880 0.950 . S
H2875 C2881 0.950 . S
H2876 C2882 0.949 . S
C2877 H2872 0.950 . S
C2877 C2879 1.327 . S
C2877 C2883 1.429 . S
C2878 C2870 1.574 . S
C2878 H2873 0.949 . S
C2878 C2884 1.368 . S
C2879 C2863 1.349 . S
C2879 H2871 0.950 . S
C2879 C2877 1.327 . S
C2880 C2868 1.349 . S
C2880 H2874 0.950 . S
C2880 C2881 1.327 . S
C2881 H2875 0.950 . S
C2881 C2880 1.327 . S
C2881 C2885 1.429 . S
C2882 C2865 1.574 . S
C2882 H2876 0.949 . S
C2882 C2886 1.368 . S
C2883 C2864 1.429 . S
C2883 C2877 1.429 . S
C2883 C2884 1.523 . S
C2884 C2865 1.368 . S
C2884 C2878 1.368 . S
C2884 C2883 1.523 . S
C2885 C2869 1.429 . S
C2885 C2881 1.429 . S
C2885 C2886 1.523 . S
C2886 C2870 1.368 . S
C2886 C2882 1.368 . S
C2886 C2885 1.523 . S
H2887 C2862 0.950 . S
H2888 C2864 0.950 . S
H2889 C2865 0.949 . S
H2890 C2867 0.950 . S
H2891 C2869 0.950 . S
C2892 C2893 1.349 1_545 S
C2892 C2894 1.340 . S
C2892 H2917 0.950 . S
C2893 C2892 1.349 1_565 S
C2893 C2909 1.349 . S
C2894 C2892 1.340 . S
C2894 C2913 1.372 1_545 S
C2894 H2918 0.997 . S
C2895 C2912 1.574 . S
C2895 C2914 1.368 . S
C2895 H2919 0.949 . S
H2896 C2900 0.949 . S
C2897 C2898 1.349 . S
C2897 C2899 1.327 . S
C2897 H2920 0.950 . S
C2898 C2897 1.349 . S
C2898 C2910 1.349 . S
C2899 C2897 1.327 . S
C2899 C2915 1.429 . S
C2899 H2921 0.950 . S
C2900 H2896 0.949 . S
C2900 C2908 1.574 . S
C2900 C2916 1.368 . S
H2901 C2909 0.950 . S
H2902 C2907 0.950 . S
H2903 C2908 0.949 1_545 S
H2904 C2910 0.950 . S
H2905 C2911 0.950 . S
H2906 C2912 0.949 . S
C2907 H2902 0.950 . S
C2907 C2909 1.327 . S
C2907 C2913 1.429 . S
C2908 C2900 1.574 . S
C2908 H2903 0.949 1_565 S
C2908 C2914 1.368 . S
C2909 C2893 1.349 . S
C2909 H2901 0.950 . S
C2909 C2907 1.327 . S
C2910 C2898 1.349 . S
C2910 H2904 0.950 . S
C2910 C2911 1.327 . S
C2911 H2905 0.950 . S
C2911 C2910 1.327 . S
C2911 C2915 1.429 . S
C2912 C2895 1.574 . S
C2912 H2906 0.949 . S
C2912 C2916 1.368 . S
C2913 C2894 1.372 1_565 S
C2913 C2907 1.429 . S
C2913 C2914 1.523 . S
C2914 C2895 1.368 . S
C2914 C2908 1.368 . S
C2914 C2913 1.523 . S
C2915 C2899 1.429 . S
C2915 C2911 1.429 . S
C2915 C2916 1.523 . S
C2916 C2900 1.368 . S
C2916 C2912 1.368 . S
C2916 C2915 1.523 . S
H2917 C2892 0.950 . S
H2918 C2894 0.997 . S
H2919 C2895 0.949 . S
H2920 C2897 0.950 . S
H2921 C2899 0.950 . S
C2922 C2923 1.349 . S
C2922 C2924 1.327 . S
C2922 H2947 0.950 . S
C2923 C2922 1.349 . S
C2923 C2939 1.349 . S
C2924 C2922 1.327 . S
C2924 C2943 1.429 . S
C2924 H2948 0.950 . S
C2925 C2942 1.574 . S
C2925 C2944 1.368 . S
C2925 H2949 0.949 . S
H2926 C2930 0.949 . S
C2927 C2928 1.349 . S
C2927 C2929 1.327 . S
C2927 H2950 0.950 . S
C2928 C2927 1.349 . S
C2928 C2940 1.349 . S
C2929 C2927 1.327 . S
C2929 C2945 1.429 . S
C2929 H2951 0.950 . S
C2930 H2926 0.949 . S
C2930 C2938 1.574 . S
C2930 C2946 1.368 . S
H2931 C2939 0.950 1_565 S
H2932 C2937 0.950 1_565 S
H2933 C2938 0.949 . S
H2934 C2940 0.950 . S
H2935 C2941 0.950 . S
H2936 C2942 0.949 . S
C2937 H2932 0.950 1_545 S
C2937 C2939 1.327 . S
C2937 C2943 1.429 . S
C2938 C2930 1.574 . S
C2938 H2933 0.949 . S
C2938 C2944 1.368 . S
C2939 C2923 1.349 . S
C2939 H2931 0.950 1_545 S
C2939 C2937 1.327 . S
C2940 C2928 1.349 . S
C2940 H2934 0.950 . S
C2940 C2941 1.327 . S
C2941 H2935 0.950 . S
C2941 C2940 1.327 . S
C2941 C2945 1.429 . S
C2942 C2925 1.574 . S
C2942 H2936 0.949 . S
C2942 C2946 1.368 . S
C2943 C2924 1.429 . S
C2943 C2937 1.429 . S
C2943 C2944 1.523 . S
C2944 C2925 1.368 . S
C2944 C2938 1.368 . S
C2944 C2943 1.523 . S
C2945 C2929 1.429 . S
C2945 C2941 1.429 . S
C2945 C2946 1.523 . S
C2946 C2930 1.368 . S
C2946 C2942 1.368 . S
C2946 C2945 1.523 . S
H2947 C2922 0.950 . S
H2948 C2924 0.950 . S
H2949 C2925 0.949 . S
H2950 C2927 0.950 . S
H2951 C2929 0.950 . S
C2952 C2953 1.349 . S
C2952 C2954 1.327 . S
C2952 H2977 0.950 . S
C2953 C2952 1.349 . S
C2953 C2969 1.349 . S
C2954 C2952 1.327 . S
C2954 C2973 1.429 . S
C2954 H2978 0.950 . S
C2955 C2972 1.574 . S
C2955 C2974 1.368 . S
C2955 H2979 0.949 . S
H2956 C2960 0.949 . S
C2957 C2958 1.349 . S
C2957 C2959 1.327 . S
C2957 H2980 0.950 . S
C2958 C2957 1.349 . S
C2958 C2970 1.349 . S
C2959 C2957 1.327 . S
C2959 C2975 1.429 . S
C2959 H2981 0.950 . S
C2960 H2956 0.949 . S
C2960 C2968 1.574 . S
C2960 C2976 1.368 . S
H2961 C2969 0.950 . S
H2962 C2967 0.950 . S
H2963 C2968 0.949 . S
H2964 C2970 0.950 . S
H2965 C2971 0.950 . S
H2966 C2972 0.949 . S
C2967 H2962 0.950 . S
C2967 C2969 1.327 . S
C2967 C2973 1.429 . S
C2968 C2960 1.574 . S
C2968 H2963 0.949 . S
C2968 C2974 1.368 . S
C2969 C2953 1.349 . S
C2969 H2961 0.950 . S
C2969 C2967 1.327 . S
C2970 C2958 1.349 . S
C2970 H2964 0.950 . S
C2970 C2971 1.327 . S
C2971 H2965 0.950 . S
C2971 C2970 1.327 . S
C2971 C2975 1.429 . S
C2972 C2955 1.574 . S
C2972 H2966 0.949 . S
C2972 C2976 1.368 . S
C2973 C2954 1.429 . S
C2973 C2967 1.429 . S
C2973 C2974 1.523 . S
C2974 C2955 1.368 . S
C2974 C2968 1.368 . S
C2974 C2973 1.523 . S
C2975 C2959 1.429 . S
C2975 C2971 1.429 . S
C2975 C2976 1.523 . S
C2976 C2960 1.368 . S
C2976 C2972 1.368 . S
C2976 C2975 1.523 . S
H2977 C2952 0.950 . S
H2978 C2954 0.950 . S
H2979 C2955 0.949 . S
H2980 C2957 0.950 . S
H2981 C2959 0.950 . S
C2982 C2983 1.349 . S
C2982 C2984 1.327 . S
C2982 H3007 0.950 1_554 S
C2983 C2982 1.349 . S
C2983 C2999 1.349 . S
C2984 C2982 1.327 . S
C2984 C3003 1.429 . S
C2984 H3008 0.959 . S
C2985 C3002 1.574 . S
C2985 C3004 1.368 . S
C2985 H3009 0.949 . S
H2986 C2990 0.949 . S
C2987 C2988 1.349 . S
C2987 C2989 1.327 . S
C2987 H3010 0.950 . S
C2988 C2987 1.349 . S
C2988 C3000 1.349 . S
C2989 C2987 1.327 . S
C2989 C3005 1.429 . S
C2989 H3011 0.950 . S
C2990 H2986 0.949 . S
C2990 C2998 1.574 . S
C2990 C3006 1.368 . S
H2991 C2999 0.950 . S
H2992 C2997 0.950 . S
H2993 C2998 0.949 . S
H2994 C3000 0.950 . S
H2995 C3001 0.950 . S
H2996 C3002 0.949 . S
C2997 H2992 0.950 . S
C2997 C2999 1.327 . S
C2997 C3003 1.429 . S
C2998 C2990 1.574 . S
C2998 H2993 0.949 . S
C2998 C3004 1.368 . S
C2999 C2983 1.349 . S
C2999 H2991 0.950 . S
C2999 C2997 1.327 . S
C3000 C2988 1.349 . S
C3000 H2994 0.950 . S
C3000 C3001 1.327 . S
C3001 H2995 0.950 . S
C3001 C3000 1.327 . S
C3001 C3005 1.429 . S
C3002 C2985 1.574 . S
C3002 H2996 0.949 . S
C3002 C3006 1.368 . S
C3003 C2984 1.429 . S
C3003 C2997 1.429 . S
C3003 C3004 1.523 . S
C3004 C2985 1.368 . S
C3004 C2998 1.368 . S
C3004 C3003 1.523 . S
C3005 C2989 1.429 . S
C3005 C3001 1.429 . S
C3005 C3006 1.523 . S
C3006 C2990 1.368 . S
C3006 C3002 1.368 . S
C3006 C3005 1.523 . S
H3007 C2982 0.950 1_556 S
H3008 C2984 0.959 . S
H3009 C2985 0.949 . S
H3010 C2987 0.950 . S
H3011 C2989 0.950 . S
C3012 C3013 1.349 . S
C3012 C3014 1.327 . S
C3012 H3037 0.950 . S
C3013 C3012 1.349 . S
C3013 C3029 1.349 . S
C3014 C3012 1.327 . S
C3014 C3033 1.429 . S
C3014 H3038 0.950 . S
C3015 C3032 1.574 . S
C3015 C3034 1.368 . S
C3015 H3039 0.949 . S
H3016 C3020 0.949 . S
C3017 C3018 1.349 . S
C3017 C3019 1.327 . S
C3017 H3040 0.950 . S
C3018 C3017 1.349 . S
C3018 C3030 1.349 . S
C3019 C3017 1.327 . S
C3019 C3035 1.429 . S
C3019 H3041 0.950 . S
C3020 H3016 0.949 . S
C3020 C3028 1.574 . S
C3020 C3036 1.368 . S
H3021 C3029 0.950 . S
H3022 C3027 0.950 . S
H3023 C3028 0.949 . S
H3024 C3030 0.950 . S
H3025 C3031 0.950 . S
H3026 C3032 0.949 . S
C3027 H3022 0.950 . S
C3027 C3029 1.327 . S
C3027 C3033 1.429 . S
C3028 C3020 1.574 . S
C3028 H3023 0.949 . S
C3028 C3034 1.368 . S
C3029 C3013 1.349 . S
C3029 H3021 0.950 . S
C3029 C3027 1.327 . S
C3030 C3018 1.349 . S
C3030 H3024 0.950 . S
C3030 C3031 1.327 . S
C3031 H3025 0.950 . S
C3031 C3030 1.327 . S
C3031 C3035 1.429 . S
C3032 C3015 1.574 . S
C3032 H3026 0.949 . S
C3032 C3036 1.368 . S
C3033 C3014 1.429 . S
C3033 C3027 1.429 . S
C3033 C3034 1.523 . S
C3034 C3015 1.368 . S
C3034 C3028 1.368 . S
C3034 C3033 1.523 . S
C3035 C3019 1.429 . S
C3035 C3031 1.429 . S
C3035 C3036 1.523 . S
C3036 C3020 1.368 . S
C3036 C3032 1.368 . S
C3036 C3035 1.523 . S
H3037 C3012 0.950 . S
H3038 C3014 0.950 . S
H3039 C3015 0.949 . S
H3040 C3017 0.950 . S
H3041 C3019 0.950 . S
C3042 C3043 1.349 1_554 S
C3042 C3044 1.327 1_554 S
C3042 H3067 0.950 . S
C3043 C3042 1.349 1_556 S
C3043 C3059 1.349 . S
C3044 C3042 1.327 1_556 S
C3044 C3063 1.429 . S
C3044 H3068 0.950 1_556 S
C3045 C3062 1.574 . S
C3045 C3064 1.368 . S
C3045 H3069 0.949 . S
H3046 C3050 0.949 . S
C3047 C3048 1.349 . S
C3047 C3049 1.327 . S
C3047 H3070 0.950 . S
C3048 C3047 1.349 . S
C3048 C3060 1.349 . S
C3049 C3047 1.327 . S
C3049 C3065 1.429 . S
C3049 H3071 0.950 . S
C3050 H3046 0.949 . S
C3050 C3058 1.574 . S
C3050 C3066 1.368 . S
H3051 C3059 0.950 . S
H3052 C3057 0.950 . S
H3053 C3058 0.968 . S
H3054 C3060 0.950 . S
H3055 C3061 0.950 . S
H3056 C3062 0.949 . S
C3057 H3052 0.950 . S
C3057 C3059 1.327 . S
C3057 C3063 1.429 . S
C3058 C3050 1.574 . S
C3058 H3053 0.968 . S
C3058 C3064 1.368 . S
C3059 C3043 1.349 . S
C3059 H3051 0.950 . S
C3059 C3057 1.327 . S
C3060 C3048 1.349 . S
C3060 H3054 0.950 . S
C3060 C3061 1.327 . S
C3061 H3055 0.950 . S
C3061 C3060 1.327 . S
C3061 C3065 1.429 . S
C3062 C3045 1.574 . S
C3062 H3056 0.949 . S
C3062 C3066 1.368 . S
C3063 C3044 1.429 . S
C3063 C3057 1.429 . S
C3063 C3064 1.523 . S
C3064 C3045 1.368 . S
C3064 C3058 1.368 . S
C3064 C3063 1.523 . S
C3065 C3049 1.429 . S
C3065 C3061 1.429 . S
C3065 C3066 1.523 . S
C3066 C3050 1.368 . S
C3066 C3062 1.368 . S
C3066 C3065 1.523 . S
H3067 C3042 0.950 . S
H3068 C3044 0.950 1_554 S
H3069 C3045 0.949 . S
H3070 C3047 0.950 . S
H3071 C3049 0.950 . S
C3072 C3073 1.349 . S
C3072 C3074 1.327 . S
C3072 H3097 0.950 . S
C3073 C3072 1.349 . S
C3073 C3089 1.349 . S
C3074 C3072 1.327 . S
C3074 C3093 1.429 . S
C3074 H3098 0.950 . S
C3075 C3092 1.574 . S
C3075 C3094 1.368 . S
C3075 H3099 0.949 . S
H3076 C3080 0.949 . S
C3077 C3078 1.349 . S
C3077 C3079 1.327 . S
C3077 H3100 0.950 . S
C3078 C3077 1.349 . S
C3078 C3090 1.349 . S
C3079 C3077 1.327 . S
C3079 C3095 1.429 . S
C3079 H3101 0.950 . S
C3080 H3076 0.949 . S
C3080 C3088 1.574 . S
C3080 C3096 1.368 . S
H3081 C3089 0.950 . S
H3082 C3087 0.950 . S
H3083 C3088 0.949 . S
H3084 C3090 0.950 . S
H3085 C3091 0.950 . S
H3086 C3092 0.949 . S
C3087 H3082 0.950 . S
C3087 C3089 1.327 . S
C3087 C3093 1.429 . S
C3088 C3080 1.574 . S
C3088 H3083 0.949 . S
C3088 C3094 1.368 . S
C3089 C3073 1.349 . S
C3089 H3081 0.950 . S
C3089 C3087 1.327 . S
C3090 C3078 1.349 . S
C3090 H3084 0.950 . S
C3090 C3091 1.327 . S
C3091 H3085 0.950 . S
C3091 C3090 1.327 . S
C3091 C3095 1.429 . S
C3092 C3075 1.574 . S
C3092 H3086 0.949 . S
C3092 C3096 1.368 . S
C3093 C3074 1.429 . S
C3093 C3087 1.429 . S
C3093 C3094 1.523 . S
C3094 C3075 1.368 . S
C3094 C3088 1.368 . S
C3094 C3093 1.523 . S
C3095 C3079 1.429 . S
C3095 C3091 1.429 . S
C3095 C3096 1.523 . S
C3096 C3080 1.368 . S
C3096 C3092 1.368 . S
C3096 C3095 1.523 . S
H3097 C3072 0.950 . S
H3098 C3074 0.950 . S
H3099 C3075 0.949 . S
H3100 C3077 0.950 . S
H3101 C3079 0.950 . S
C3102 C3103 1.349 . S
C3102 C3104 1.327 . S
C3102 H3127 0.950 1_455 S
C3103 C3102 1.349 . S
C3103 C3119 1.349 . S
C3104 C3102 1.327 . S
C3104 C3123 1.429 . S
C3104 H3128 0.939 1_455 S
C3105 C3122 1.574 . S
C3105 C3124 1.368 . S
C3105 H3129 0.949 . S
H3106 C3110 0.949 . S
C3107 C3108 1.349 . S
C3107 C3109 1.327 . S
C3107 H3130 0.950 . S
C3108 C3107 1.349 . S
C3108 C3120 1.349 . S
C3109 C3107 1.327 . S
C3109 C3125 1.429 . S
C3109 H3131 0.950 . S
C3110 H3106 0.949 . S
C3110 C3118 1.574 . S
C3110 C3126 1.368 . S
H3111 C3119 0.950 . S
H3112 C3117 0.950 . S
H3113 C3118 0.949 . S
H3114 C3120 0.950 . S
H3115 C3121 0.950 . S
H3116 C3122 0.949 . S
C3117 H3112 0.950 . S
C3117 C3119 1.327 . S
C3117 C3123 1.429 . S
C3118 C3110 1.574 . S
C3118 H3113 0.949 . S
C3118 C3124 1.368 . S
C3119 C3103 1.349 . S
C3119 H3111 0.950 . S
C3119 C3117 1.327 . S
C3120 C3108 1.349 . S
C3120 H3114 0.950 . S
C3120 C3121 1.327 . S
C3121 H3115 0.950 . S
C3121 C3120 1.327 . S
C3121 C3125 1.429 . S
C3122 C3105 1.574 . S
C3122 H3116 0.949 . S
C3122 C3126 1.368 . S
C3123 C3104 1.429 . S
C3123 C3117 1.429 . S
C3123 C3124 1.523 . S
C3124 C3105 1.368 . S
C3124 C3118 1.368 . S
C3124 C3123 1.523 . S
C3125 C3109 1.429 . S
C3125 C3121 1.429 . S
C3125 C3126 1.523 . S
C3126 C3110 1.368 . S
C3126 C3122 1.368 . S
C3126 C3125 1.523 . S
H3127 C3102 0.950 1_655 S
H3128 C3104 0.939 1_655 S
H3129 C3105 0.949 . S
H3130 C3107 0.950 . S
H3131 C3109 0.950 . S
C3132 C3133 1.349 . S
C3132 C3134 1.327 . S
C3132 H3157 0.950 . S
C3133 C3132 1.349 . S
C3133 C3149 1.349 . S
C3134 C3132 1.327 . S
C3134 C3153 1.429 . S
C3134 H3158 0.950 . S
C3135 C3152 1.574 . S
C3135 C3154 1.368 . S
C3135 H3159 0.949 . S
H3136 C3140 0.949 . S
C3137 C3138 1.349 . S
C3137 C3139 1.327 . S
C3137 H3160 0.950 . S
C3138 C3137 1.349 . S
C3138 C3150 1.349 . S
C3139 C3137 1.327 . S
C3139 C3155 1.429 . S
C3139 H3161 0.950 . S
C3140 H3136 0.949 . S
C3140 C3148 1.574 . S
C3140 C3156 1.368 . S
H3141 C3149 0.950 . S
H3142 C3147 0.950 . S
H3143 C3148 0.949 . S
H3144 C3150 0.950 . S
H3145 C3151 0.950 . S
H3146 C3152 0.949 . S
C3147 H3142 0.950 . S
C3147 C3149 1.327 . S
C3147 C3153 1.429 . S
C3148 C3140 1.574 . S
C3148 H3143 0.949 . S
C3148 C3154 1.368 . S
C3149 C3133 1.349 . S
C3149 H3141 0.950 . S
C3149 C3147 1.327 . S
C3150 C3138 1.349 . S
C3150 H3144 0.950 . S
C3150 C3151 1.327 . S
C3151 H3145 0.950 . S
C3151 C3150 1.327 . S
C3151 C3155 1.429 . S
C3152 C3135 1.574 . S
C3152 H3146 0.949 . S
C3152 C3156 1.368 . S
C3153 C3134 1.429 . S
C3153 C3147 1.429 . S
C3153 C3154 1.523 . S
C3154 C3135 1.368 . S
C3154 C3148 1.368 . S
C3154 C3153 1.523 . S
C3155 C3139 1.429 . S
C3155 C3151 1.429 . S
C3155 C3156 1.523 . S
C3156 C3140 1.368 . S
C3156 C3152 1.368 . S
C3156 C3155 1.523 . S
H3157 C3132 0.950 . S
H3158 C3134 0.950 . S
H3159 C3135 0.949 . S
H3160 C3137 0.950 . S
H3161 C3139 0.950 . S
C3162 C3163 1.349 . S
C3162 C3164 1.327 . S
C3162 H3187 0.950 . S
C3163 C3162 1.349 . S
C3163 C3179 1.349 1_655 S
C3164 C3162 1.327 . S
C3164 C3183 1.429 . S
C3164 H3188 0.950 . S
C3165 C3182 1.574 . S
C3165 C3184 1.368 . S
C3165 H3189 0.949 1_655 S
H3166 C3170 0.949 . S
C3167 C3168 1.349 . S
C3167 C3169 1.327 . S
C3167 H3190 0.950 . S
C3168 C3167 1.349 . S
C3168 C3180 1.349 . S
C3169 C3167 1.327 . S
C3169 C3185 1.429 . S
C3169 H3191 0.950 . S
C3170 H3166 0.949 . S
C3170 C3178 1.574 . S
C3170 C3186 1.368 . S
H3171 C3179 0.950 . S
H3172 C3177 0.969 . S
H3173 C3178 0.949 . S
H3174 C3180 0.950 . S
H3175 C3181 0.950 . S
H3176 C3182 0.949 . S
C3177 H3172 0.969 . S
C3177 C3179 1.333 . S
C3177 C3183 1.405 1_455 S
C3178 C3170 1.574 . S
C3178 H3173 0.949 . S
C3178 C3184 1.368 . S
C3179 C3163 1.349 1_455 S
C3179 H3171 0.950 . S
C3179 C3177 1.333 . S
C3180 C3168 1.349 . S
C3180 H3174 0.950 . S
C3180 C3181 1.327 . S
C3181 H3175 0.950 . S
C3181 C3180 1.327 . S
C3181 C3185 1.429 . S
C3182 C3165 1.574 . S
C3182 H3176 0.949 . S
C3182 C3186 1.368 . S
C3183 C3164 1.429 . S
C3183 C3177 1.405 1_655 S
C3183 C3184 1.523 . S
C3184 C3165 1.368 . S
C3184 C3178 1.368 . S
C3184 C3183 1.523 . S
C3185 C3169 1.429 . S
C3185 C3181 1.429 . S
C3185 C3186 1.523 . S
C3186 C3170 1.368 . S
C3186 C3182 1.368 . S
C3186 C3185 1.523 . S
H3187 C3162 0.950 . S
H3188 C3164 0.950 . S
H3189 C3165 0.949 1_455 S
H3190 C3167 0.950 . S
H3191 C3169 0.950 . S
C1038 C1017 1.831 . S
C1033 C8 1.870 . S
C1068 C921 1.377 . S
C1063 C19 1.360 . S
C1098 C985 1.255 . S
C1093 C30 1.284 . S
C1128 C953 2.057 . S
C1123 C41 2.056 . S
C1158 C729 1.831 . S
C1153 C52 1.870 . S
C1183 C63 2.051 . S
C1188 C761 2.062 . S
C1218 C665 1.377 . S
C1213 C74 1.360 . S
C1243 C85 1.287 . S
C1248 C697 1.251 . S
C1278 C889 1.831 . S
C1273 C96 1.870 . S
C1303 C107 2.051 . S
C1308 C825 2.062 . S
C1333 C118 1.360 . S
C1338 C793 1.377 . S
C1368 C857 1.255 . S
C1363 C129 1.284 . S
C1398 C633 1.864 . S
C1393 C140 1.842 . S
C1423 C151 1.316 . S
C1428 C537 1.373 . S
C1458 C601 1.286 . S
C1453 C162 1.257 . S
C1483 C173 1.993 . S
C1488 C569 2.064 . S
C1518 C345 1.864 . S
C1513 C184 1.842 . S
C1548 C377 2.059 . S
C1543 C195 1.999 . S
C1573 C206 1.316 . S
C1578 C281 1.373 . S
C1603 C217 1.258 . S
C1608 C313 1.283 . S
C1633 C228 1.834 . S
C1638 C505 1.872 . S
C1663 C239 1.993 . S
C1668 C441 2.064 . S
C1698 C409 1.373 . S
C1693 C250 1.316 . S
C1723 C261 1.258 . S
C1728 C473 1.283 . S
C1758 C293 1.107 . S
C1753 C7 1.114 . S
C1788 C325 0.992 . S
C1783 C18 0.993 . S
C1813 C29 1.031 . S
C1818 C357 1.034 . S
C1843 C40 0.725 . S
C1848 C389 0.733 . S
C1878 C421 1.106 . S
C1873 C51 1.114 . S
C1903 C62 0.725 . S
C1908 C453 0.732 . S
C1938 C485 0.992 . S
C1933 C73 0.993 . S
C1968 C517 1.034 . S
C1963 C84 1.031 . S
C1998 C549 1.107 . S
C1993 C95 1.114 . S
C2023 C106 0.725 . S
C2028 C581 0.732 . S
C2053 C117 0.993 . S
C2058 C613 0.992 . S
C2083 C128 1.031 . S
C2088 C645 1.034 . S
C2113 C139 1.061 . S
C2118 C677 1.083 . S
C2143 C150 0.930 . S
C2148 C709 0.954 . S
C2173 C161 0.980 . S
C2178 C741 0.998 . S
C2203 C172 0.732 . S
C2208 C773 0.728 . S
C2233 C183 1.061 . S
C2238 C805 1.083 . S
C2268 C837 0.728 . S
C2263 C194 0.732 . S
C2298 C869 0.954 . S
C2293 C205 0.931 . S
C2328 C901 0.998 . S
C2323 C216 0.980 . S
C2358 C933 1.083 . S
C2353 C227 1.061 . S
C2383 C238 0.732 . S
C2388 C965 0.728 . S
C2413 C249 0.930 . S
C2418 C997 0.954 . S
C2443 C260 0.980 . S
C2448 C1029 0.998 . S
C2473 C5 1.409 . S
C2478 C543 1.628 . S
C2508 C639 1.494 . S
C2503 C16 1.293 . S
C2533 C27 1.125 1_545 S
C2538 C575 1.240 . S
C2568 C607 2.100 . S
C2563 C38 1.854 1_565 S
C2593 C49 1.409 . S
C2598 C287 1.628 . S
C2623 C60 1.858 1_556 S
C2628 C319 2.099 . S
C2653 C71 1.300 . S
C2658 C351 1.487 . S
C2683 C82 1.125 1_554 S
C2688 C383 1.240 . S
C2718 C415 1.628 . S
C2713 C93 1.409 . S
C2748 C479 2.100 . S
C2743 C104 1.854 1_655 S
C2773 C115 1.300 . S
C2778 C511 1.487 . S
C2803 C126 1.125 1_455 S
C2808 C447 1.240 . S
C2838 C927 1.571 . S
C2833 C137 1.265 . S
C2868 C1023 1.413 . S
C2863 C148 1.057 . S
C2893 C159 0.982 . S
C2898 C959 1.194 . S
C2928 C991 1.983 . S
C2923 C170 1.544 . S
C2953 C181 1.265 . S
C2958 C671 1.571 . S
C2983 C192 1.543 . S
C2988 C703 1.981 . S
C3013 C203 1.065 . S
C3018 C735 1.406 . S
C3048 C767 1.204 . S
C3043 C214 0.978 . S
C3078 C799 1.571 . S
C3073 C225 1.265 . S
C3108 C863 1.983 . S
C3103 C236 1.544 . S
C3133 C247 1.065 . S
C3138 C895 1.406 . S
C3168 C831 1.204 . S
C3163 C258 0.978 . S
