# Generated by pormake.
# Topology hwx, (6,3)-cn, num edge types: 1
# Building blocks:
#     Node 0, Type 0, BuildingBlock: IZENUY_clean_sbu_0, # of connection points: 6
#     Node 1, Type 0, BuildingBlock: IZENUY_clean_sbu_0, # of connection points: 6
#     Node 2, Type 0, BuildingBlock: IZENUY_clean_sbu_0, # of connection points: 6
#     Node 3, Type 0, BuildingBlock: IZENUY_clean_sbu_0, # of connection points: 6
#     Node 4, Type 1, BuildingBlock: BELTOD_clean_linker_0, # of connection points: 3
#     Node 5, Type 1, BuildingBlock: BELTOD_clean_linker_0, # of connection points: 3
#     Node 6, Type 1, BuildingBlock: BELTOD_clean_linker_0, # of connection points: 3
#     Node 7, Type 1, BuildingBlock: BELTOD_clean_linker_0, # of connection points: 3
#     Node 8, Type 1, BuildingBlock: BELTOD_clean_linker_0, # of connection points: 3
#     Node 9, Type 1, BuildingBlock: BELTOD_clean_linker_0, # of connection points: 3
#     Node 10, Type 1, BuildingBlock: BELTOD_clean_linker_0, # of connection points: 3
#     Node 11, Type 1, BuildingBlock: BELTOD_clean_linker_0, # of connection points: 3
#     Edge 12, Type (0, 1), BuildingBlock: EZIPEK_clean_linker_0, # of connection points: 2
#     Edge 13, Type (0, 1), BuildingBlock: EZIPEK_clean_linker_0, # of connection points: 2
#     Edge 14, Type (0, 1), BuildingBlock: EZIPEK_clean_linker_0, # of connection points: 2
#     Edge 15, Type (0, 1), BuildingBlock: EZIPEK_clean_linker_0, # of connection points: 2
#     Edge 16, Type (0, 1), BuildingBlock: EZIPEK_clean_linker_0, # of connection points: 2
#     Edge 17, Type (0, 1), BuildingBlock: EZIPEK_clean_linker_0, # of connection points: 2
#     Edge 18, Type (0, 1), BuildingBlock: EZIPEK_clean_linker_0, # of connection points: 2
#     Edge 19, Type (0, 1), BuildingBlock: EZIPEK_clean_linker_0, # of connection points: 2
#     Edge 20, Type (0, 1), BuildingBlock: EZIPEK_clean_linker_0, # of connection points: 2
#     Edge 21, Type (0, 1), BuildingBlock: EZIPEK_clean_linker_0, # of connection points: 2
#     Edge 22, Type (0, 1), BuildingBlock: EZIPEK_clean_linker_0, # of connection points: 2
#     Edge 23, Type (0, 1), BuildingBlock: EZIPEK_clean_linker_0, # of connection points: 2
#     Edge 24, Type (0, 1), BuildingBlock: EZIPEK_clean_linker_0, # of connection points: 2
#     Edge 25, Type (0, 1), BuildingBlock: EZIPEK_clean_linker_0, # of connection points: 2
#     Edge 26, Type (0, 1), BuildingBlock: EZIPEK_clean_linker_0, # of connection points: 2
#     Edge 27, Type (0, 1), BuildingBlock: EZIPEK_clean_linker_0, # of connection points: 2
#     Edge 28, Type (0, 1), BuildingBlock: EZIPEK_clean_linker_0, # of connection points: 2
#     Edge 29, Type (0, 1), BuildingBlock: EZIPEK_clean_linker_0, # of connection points: 2
#     Edge 30, Type (0, 1), BuildingBlock: EZIPEK_clean_linker_0, # of connection points: 2
#     Edge 31, Type (0, 1), BuildingBlock: EZIPEK_clean_linker_0, # of connection points: 2
#     Edge 32, Type (0, 1), BuildingBlock: EZIPEK_clean_linker_0, # of connection points: 2
#     Edge 33, Type (0, 1), BuildingBlock: EZIPEK_clean_linker_0, # of connection points: 2
#     Edge 34, Type (0, 1), BuildingBlock: EZIPEK_clean_linker_0, # of connection points: 2
#     Edge 35, Type (0, 1), BuildingBlock: EZIPEK_clean_linker_0, # of connection points: 2
# Relax obj value: 0.046
# Max RMSD: 0.072
# Mean RMSD: 0.062
data_MOF--net-hwx--node1-IZENUY_clean_sbu_0--node2-BELTOD_clean_linker_0--edge1-EZIPEK_clean_linker_0
_symmetry_space_group_name_H-M    P1
_symmetry_Int_Tables_number       1
_symmetry_cell_setting            triclinic
loop_
_symmetry_equiv_pos_as_xyz
'x, y, z'
_cell_length_a     41.433656
_cell_length_b     41.559752
_cell_length_c     19.724249
_cell_angle_alpha  89.294071
_cell_angle_beta   90.724888
_cell_angle_gamma 90.012236
loop_
_atom_site_label
_atom_site_type_symbol
_atom_site_fract_x
_atom_site_fract_y
_atom_site_fract_z
_atom_type_partial_charge
Fe0 Fe 0.23884 0.1978 0.06938 0.0
Fe1 Fe 0.2399 0.20218 0.91388 0.0
O2 O 0.22766 0.18204 0.98918 0.0
Fe3 Fe 0.20415 0.14616 0.98424 0.0
O4 O 0.18125 0.15362 0.0623 0.0
O5 O 0.19724 0.20171 0.09383 0.0
O6 O 0.23683 0.24025 0.04206 0.0
C7 C 0.22388 0.25372 0.99069 0.0
C8 C 0.24628 0.13044 0.08712 0.0
O9 O 0.21939 0.23876 0.93643 0.0
C10 C 0.24886 0.13983 0.87673 0.0
O11 O 0.28147 0.1952 0.05133 0.0
O12 O 0.27859 0.2165 0.94899 0.0
O13 O 0.23469 0.12311 0.03004 0.0
O14 O 0.24287 0.15831 0.11111 0.0
C15 C 0.17573 0.18288 0.88432 0.0
O16 O 0.26127 0.16715 0.88488 0.0
O17 O 0.2227 0.13206 0.90531 0.0
C18 C 0.29472 0.20882 0.00164 0.0
O19 O 0.20338 0.19192 0.8656 0.0
O20 O 0.17191 0.16668 0.93802 0.0
C21 C 0.17686 0.17932 0.09485 0.0
Fe22 Fe 0.25441 0.71716 0.59865 0.0
Fe23 Fe 0.29243 0.65983 0.54304 0.0
O24 O 0.2687 0.69501 0.52861 0.0
Fe25 Fe 0.25928 0.70787 0.44452 0.0
O26 O 0.26101 0.75117 0.46354 0.0
O27 O 0.27516 0.75313 0.57147 0.0
O28 O 0.28983 0.70861 0.65271 0.0
C29 C 0.31809 0.69982 0.63793 0.0
C30 C 0.20186 0.72024 0.50492 0.0
O31 O 0.32334 0.68239 0.58749 0.0
C32 C 0.25374 0.63962 0.43942 0.0
O33 O 0.23247 0.68276 0.63139 0.0
O34 O 0.27251 0.64844 0.62234 0.0
O35 O 0.21632 0.70572 0.45879 0.0
O36 O 0.21668 0.73009 0.55707 0.0
C37 C 0.32182 0.68896 0.42891 0.0
O38 O 0.26311 0.6349 0.4997 0.0
O39 O 0.25637 0.66695 0.41082 0.0
C40 C 0.24533 0.65608 0.64575 0.0
O41 O 0.31696 0.66457 0.46631 0.0
O42 O 0.30126 0.71103 0.42308 0.0
C43 C 0.27291 0.76608 0.51364 0.0
Fe44 Fe 0.75639 0.78523 0.91981 0.0
Fe45 Fe 0.76208 0.79455 0.07413 0.0
O46 O 0.76937 0.80839 0.99016 0.0
Fe47 Fe 0.78925 0.84563 0.97651 0.0
O48 O 0.76709 0.85567 0.89802 0.0
O49 O 0.73082 0.81744 0.88732 0.0
O50 O 0.72025 0.76916 0.96142 0.0
C51 C 0.70501 0.77943 0.0119 0.0
C52 C 0.81725 0.80993 0.87822 0.0
O53 O 0.71908 0.794 0.0592 0.0
C54 C 0.82256 0.8191 0.09172 0.0
O55 O 0.7809 0.7513 0.94726 0.0
O56 O 0.76608 0.75143 0.05406 0.0
O57 O 0.82158 0.82652 0.93067 0.0
O58 O 0.79004 0.79739 0.8649 0.0
C59 C 0.75065 0.86197 0.08112 0.0
O60 O 0.80469 0.79463 0.09553 0.0
O61 O 0.81512 0.84266 0.05319 0.0
C62 C 0.7788 0.73741 0.00423 0.0
O63 O 0.7566 0.83498 0.10925 0.0
O64 O 0.75813 0.86731 0.02048 0.0
C65 C 0.74077 0.84531 0.87342 0.0
Fe66 Fe 0.7045 0.35647 0.50962 0.0
Fe67 Fe 0.7363 0.30064 0.59087 0.0
O68 O 0.72537 0.319 0.51199 0.0
Fe69 Fe 0.73509 0.2997 0.43489 0.0
O70 O 0.74087 0.33727 0.38636 0.0
O71 O 0.7362 0.37567 0.46122 0.0
O72 O 0.72446 0.37246 0.58627 0.0
C73 C 0.7492 0.36353 0.61996 0.0
C74 C 0.67479 0.32107 0.40223 0.0
O75 O 0.75946 0.33513 0.61733 0.0
C76 C 0.71815 0.24728 0.52089 0.0
O77 O 0.67112 0.34037 0.55814 0.0
O78 O 0.70031 0.31447 0.63534 0.0
O79 O 0.69299 0.29703 0.41025 0.0
O80 O 0.68083 0.34731 0.43212 0.0
C81 C 0.79091 0.29019 0.50756 0.0
O82 O 0.71383 0.2644 0.57202 0.0
O83 O 0.73158 0.25852 0.46859 0.0
C84 C 0.67371 0.32614 0.61472 0.0
O85 O 0.77458 0.28387 0.56002 0.0
O86 O 0.77779 0.30092 0.45403 0.0
C87 C 0.74646 0.36566 0.40554 0.0
P88 P 0.24743 0.49584 0.03254 0.0
H89 H 0.26317 0.56055 0.07105 0.0
H90 H 0.25673 0.59003 0.17663 0.0
H91 H 0.20211 0.51102 0.26048 0.0
H92 H 0.20871 0.48118 0.1545 0.0
H93 H 0.26534 0.43952 0.11111 0.0
H94 H 0.25183 0.3825 0.0995 0.0
H95 H 0.18096 0.4066 0.94515 0.0
H96 H 0.19482 0.46387 0.95591 0.0
H97 H 0.28347 0.5121 0.91097 0.0
H98 H 0.18819 0.52922 0.98878 0.0
O99 O 0.28757 0.4924 0.03547 0.0
H100 H 0.27286 0.55024 0.81808 0.0
H101 H 0.17725 0.56704 0.89393 0.0
C102 C 0.2366 0.51871 0.10525 0.0
C103 C 0.24924 0.54979 0.11154 0.0
C104 C 0.24556 0.56659 0.17155 0.0
C105 C 0.2291 0.55253 0.22598 0.0
C106 C 0.21481 0.52213 0.21863 0.0
C107 C 0.21869 0.50516 0.15839 0.0
C108 C 0.23156 0.4557 0.03341 0.0
C109 C 0.24644 0.43265 0.07569 0.0
C110 C 0.23867 0.40023 0.06938 0.0
C111 C 0.21566 0.39056 0.02118 0.0
C112 C 0.19877 0.41383 0.98264 0.0
C113 C 0.20681 0.44639 0.98858 0.0
C114 C 0.23679 0.51835 0.95726 0.0
C115 C 0.26005 0.52357 0.9074 0.0
C116 C 0.25401 0.54523 0.8543 0.0
C117 C 0.22449 0.56161 0.84997 0.0
C118 C 0.20021 0.55462 0.89693 0.0
C119 C 0.20646 0.53317 0.95079 0.0
P120 P 0.9828 0.83603 0.49599 0.0
H121 H 0.95658 0.87809 0.59937 0.0
H122 H 0.9203 0.86789 0.69421 0.0
H123 H 0.92251 0.76624 0.65327 0.0
H124 H 0.95924 0.77637 0.55834 0.0
H125 H 0.04782 0.8469 0.5475 0.0
H126 H 0.09716 0.81437 0.54584 0.0
H127 H 0.04517 0.73823 0.44571 0.0
H128 H 0.99561 0.7709 0.44704 0.0
H129 H 0.91365 0.82197 0.4761 0.0
H130 H 0.99767 0.83613 0.35191 0.0
O131 O 0.99396 0.87463 0.49414 0.0
H132 H 0.8801 0.81677 0.37424 0.0
H133 H 0.9636 0.83145 0.24932 0.0
C134 C 0.96069 0.82795 0.57213 0.0
C135 C 0.94998 0.85351 0.61165 0.0
C136 C 0.92937 0.84773 0.66583 0.0
C137 C 0.91901 0.81633 0.68078 0.0
C138 C 0.93065 0.79056 0.64287 0.0
C139 C 0.95148 0.79636 0.58882 0.0
C140 C 0.01839 0.81153 0.496 0.0
C141 C 0.04699 0.82325 0.5251 0.0
C142 C 0.07502 0.80471 0.5245 0.0
C143 C 0.0746 0.77409 0.49555 0.0
C144 C 0.04576 0.76187 0.46821 0.0
C145 C 0.01768 0.78052 0.46869 0.0
C146 C 0.95832 0.82901 0.42162 0.0
C147 C 0.92507 0.82339 0.42716 0.0
C148 C 0.90584 0.82044 0.36901 0.0
C149 C 0.91948 0.82344 0.3045 0.0
C150 C 0.95279 0.82868 0.29877 0.0
C151 C 0.97211 0.83142 0.35712 0.0
P152 P 0.8473 0.49667 0.01091 0.0
H153 H 0.87749 0.45615 0.9089 0.0
H154 H 0.85535 0.42787 0.81012 0.0
H155 H 0.76226 0.47064 0.84393 0.0
H156 H 0.78432 0.49908 0.94243 0.0
H157 H 0.87901 0.55594 0.96682 0.0
H158 H 0.86234 0.61269 0.9679 0.0
H159 H 0.77253 0.58541 0.06054 0.0
H160 H 0.78918 0.52869 0.05985 0.0
H161 H 0.85067 0.50825 0.15631 0.0
H162 H 0.80969 0.43657 0.02398 0.0
O163 O 0.88749 0.49429 0.01424 0.0
H164 H 0.82843 0.4794 0.25497 0.0
H165 H 0.78744 0.40817 0.12221 0.0
C166 C 0.83262 0.47999 0.93253 0.0
C167 C 0.85254 0.46013 0.89414 0.0
C168 C 0.84 0.44408 0.83775 0.0
C169 C 0.80733 0.44752 0.81961 0.0
C170 C 0.78764 0.46812 0.85676 0.0
C171 C 0.80023 0.48428 0.9129 0.0
C172 C 0.83557 0.53826 0.01439 0.0
C173 C 0.85589 0.56218 0.988 0.0
C174 C 0.84641 0.59445 0.98847 0.0
C175 C 0.81635 0.60305 0.01464 0.0
C176 C 0.79589 0.57911 0.04054 0.0
C177 C 0.80543 0.54687 0.04026 0.0
C178 C 0.83151 0.47485 0.08275 0.0
C179 C 0.83696 0.48639 0.14848 0.0
C180 C 0.82437 0.46999 0.20461 0.0
C181 C 0.80633 0.44177 0.19553 0.0
C182 C 0.8013 0.42995 0.12995 0.0
C183 C 0.81393 0.44629 0.07392 0.0
P184 P 0.03883 0.26303 0.4796 0.0
H185 H 0.07995 0.28887 0.37261 0.0
H186 H 0.10711 0.2636 0.27764 0.0
H187 H 0.05991 0.17366 0.32396 0.0
H188 H 0.03256 0.19905 0.4199 0.0
H189 H 0.99162 0.30825 0.42485 0.0
H190 H 0.93271 0.31132 0.43208 0.0
H191 H 0.93134 0.22016 0.53889 0.0
H192 H 0.99045 0.21663 0.53002 0.0
H193 H 0.09929 0.22776 0.50073 0.0
H194 H 0.0181 0.25644 0.62104 0.0
O195 O 0.0507 0.30134 0.48375 0.0
H196 H 0.12637 0.20658 0.60268 0.0
H197 H 0.04502 0.23429 0.72297 0.0
C198 C 0.0542 0.24581 0.40319 0.0
C199 C 0.07487 0.26389 0.36185 0.0
C200 C 0.09039 0.24951 0.30764 0.0
C201 C 0.08554 0.21683 0.29413 0.0
C202 C 0.06382 0.19896 0.33369 0.0
C203 C 0.04826 0.21341 0.38813 0.0
C204 C 0.9954 0.26269 0.47868 0.0
C205 C 0.97869 0.28876 0.44931 0.0
C206 C 0.94514 0.29051 0.45333 0.0
C207 C 0.92782 0.26616 0.48672 0.0
C208 C 0.94439 0.23926 0.51334 0.0
C209 C 0.97802 0.23734 0.50852 0.0
C210 C 0.05617 0.24283 0.55277 0.0
C211 C 0.08683 0.22871 0.54857 0.0
C212 C 0.10238 0.2167 0.60675 0.0
C213 C 0.08762 0.21881 0.67013 0.0
C214 C 0.05664 0.23228 0.67433 0.0
C215 C 0.04126 0.24469 0.61613 0.0
P216 P 0.7452 0.00539 0.49048 0.0
H217 H 0.77486 0.94852 0.43778 0.0
H218 H 0.76739 0.91871 0.33253 0.0
H219 H 0.68968 0.98238 0.27258 0.0
H220 H 0.6972 0.01253 0.37863 0.0
H221 H 0.75763 0.06098 0.406 0.0
H222 H 0.74346 0.11787 0.41694 0.0
H223 H 0.68002 0.09396 0.58168 0.0
H224 H 0.69491 0.037 0.57222 0.0
H225 H 0.78214 0.98031 0.60615 0.0
H226 H 0.68391 0.97586 0.53133 0.0
O227 O 0.78509 0.01097 0.49394 0.0
H228 H 0.76923 0.94155 0.69562 0.0
H229 H 0.67069 0.93738 0.62325 0.0
C230 C 0.73702 0.983 0.41512 0.0
C231 C 0.7561 0.95602 0.40225 0.0
C232 C 0.75178 0.93897 0.34254 0.0
C233 C 0.72811 0.94852 0.29511 0.0
C234 C 0.70805 0.9748 0.30891 0.0
C235 C 0.71246 0.99199 0.36901 0.0
C236 C 0.72761 0.04489 0.4887 0.0
C237 C 0.74011 0.06783 0.4435 0.0
C238 C 0.73202 0.10021 0.4496 0.0
C239 C 0.711 0.10997 0.50049 0.0
C240 C 0.69631 0.08672 0.54215 0.0
C241 C 0.70486 0.05427 0.53673 0.0
C242 C 0.73395 0.98093 0.56211 0.0
C243 C 0.75766 0.97143 0.60951 0.0
C244 C 0.75034 0.94928 0.66057 0.0
C245 C 0.71916 0.93647 0.66536 0.0
C246 C 0.69493 0.94698 0.61987 0.0
C247 C 0.70243 0.96889 0.56786 0.0
P248 P 0.50931 0.33534 0.0023 0.0
H249 H 0.51093 0.36876 0.87105 0.0
H250 H 0.5469 0.3641 0.77378 0.0
H251 H 0.59382 0.28257 0.86965 0.0
H252 H 0.55792 0.28729 0.96742 0.0
H253 H 0.44029 0.34823 0.99 0.0
H254 H 0.39276 0.31344 0.99097 0.0
H255 H 0.45389 0.23003 0.01547 0.0
H256 H 0.50194 0.26505 0.01328 0.0
H257 H 0.57099 0.3639 0.03571 0.0
H258 H 0.50483 0.29768 0.13108 0.0
O259 O 0.49674 0.3735 0.0016 0.0
H260 H 0.60749 0.3592 0.13404 0.0
H261 H 0.54194 0.29227 0.22871 0.0
C262 C 0.53226 0.32876 0.92689 0.0
C263 C 0.52862 0.34959 0.87085 0.0
C264 C 0.54895 0.34684 0.81522 0.0
C265 C 0.5729 0.323 0.81478 0.0
C266 C 0.57531 0.30097 0.86911 0.0
C267 C 0.55498 0.30378 0.92485 0.0
C268 C 0.47463 0.30924 0.00261 0.0
C269 C 0.44366 0.32251 0.99547 0.0
C270 C 0.41651 0.30267 0.99575 0.0
C271 C 0.41988 0.26924 0.00318 0.0
C272 C 0.45089 0.25579 0.00943 0.0
C273 C 0.47818 0.27572 0.00845 0.0
C274 C 0.53552 0.33069 0.0754 0.0
C275 C 0.5644 0.34823 0.0776 0.0
C276 C 0.58514 0.34567 0.13369 0.0
C277 C 0.57737 0.32542 0.18855 0.0
C278 C 0.54828 0.30806 0.18684 0.0
C279 C 0.52729 0.31094 0.13082 0.0
P280 P 0.34603 0.00485 0.49077 0.0
H281 H 0.37667 0.04118 0.60103 0.0
H282 H 0.35421 0.07088 0.69652 0.0
H283 H 0.25831 0.04143 0.63682 0.0
H284 H 0.28065 0.01184 0.54128 0.0
H285 H 0.3743 0.94641 0.5496 0.0
H286 H 0.35579 0.89025 0.55391 0.0
H287 H 0.26953 0.91697 0.44222 0.0
H288 H 0.2876 0.97316 0.43921 0.0
H289 H 0.32081 0.06988 0.4631 0.0
H290 H 0.34143 0.98424 0.34974 0.0
O291 O 0.38629 0.00595 0.49227 0.0
H292 H 0.29904 0.09573 0.35995 0.0
H293 H 0.31915 0.01014 0.24664 0.0
C294 C 0.33029 0.02421 0.56438 0.0
C295 C 0.35088 0.04071 0.60897 0.0
C296 C 0.33814 0.05754 0.66347 0.0
C297 C 0.3047 0.05805 0.67369 0.0
C298 C 0.2842 0.04098 0.62992 0.0
C299 C 0.29694 0.02417 0.57553 0.0
C300 C 0.33274 0.96369 0.49249 0.0
C301 C 0.35151 0.94016 0.52574 0.0
C302 C 0.34095 0.90825 0.52838 0.0
C303 C 0.31146 0.8996 0.49792 0.0
C304 C 0.29244 0.92326 0.46558 0.0
C305 C 0.30286 0.95519 0.46359 0.0
C306 C 0.33189 0.02478 0.41444 0.0
C307 C 0.32061 0.05658 0.41626 0.0
C308 C 0.30831 0.0714 0.35748 0.0
C309 C 0.30734 0.05466 0.29619 0.0
C310 C 0.31961 0.02327 0.29374 0.0
C311 C 0.33218 0.00855 0.35246 0.0
P312 P 0.45657 0.77579 0.04282 0.0
H313 H 0.40963 0.79742 0.14125 0.0
H314 H 0.38396 0.77041 0.2375 0.0
H315 H 0.442 0.68599 0.20514 0.0
H316 H 0.46777 0.71306 0.10807 0.0
H317 H 0.50805 0.811 0.10935 0.0
H318 H 0.56701 0.80779 0.10341 0.0
H319 H 0.55877 0.72643 0.97058 0.0
H320 H 0.49969 0.72879 0.97877 0.0
H321 H 0.39492 0.74242 0.02284 0.0
H322 H 0.47405 0.77508 0.89931 0.0
O323 O 0.4485 0.81512 0.04327 0.0
H324 H 0.36655 0.72366 0.9214 0.0
H325 H 0.44593 0.75513 0.79777 0.0
C326 C 0.44087 0.75735 0.11829 0.0
C327 C 0.41731 0.77334 0.15543 0.0
C328 C 0.40264 0.75796 0.21018 0.0
C329 C 0.4112 0.72634 0.22812 0.0
C330 C 0.4353 0.71049 0.19197 0.0
C331 C 0.44995 0.72591 0.13692 0.0
C332 C 0.49962 0.77092 0.04244 0.0
C333 C 0.5189 0.79229 0.07944 0.0
C334 C 0.55244 0.79038 0.07634 0.0
C335 C 0.56707 0.7671 0.03599 0.0
C336 C 0.5478 0.74464 0.00165 0.0
C337 C 0.51418 0.74623 0.00578 0.0
C338 C 0.43708 0.75931 0.96893 0.0
C339 C 0.40654 0.745 0.97426 0.0
C340 C 0.39026 0.73435 0.91639 0.0
C341 C 0.40425 0.73792 0.85236 0.0
C342 C 0.43489 0.75206 0.84692 0.0
C343 C 0.45094 0.76322 0.90479 0.0
C344 C 0.12145 0.19907 0.12253 0.0
C345 C 0.14974 0.18208 0.14262 0.0
C346 C 0.13356 0.18386 0.26159 0.0
C347 C 0.10541 0.20121 0.24168 0.0
N348 N 0.06869 0.21927 0.15374 0.0
N349 N 0.17908 0.15146 0.2275 0.0
C350 C 0.09809 0.2068 0.1721 0.0
C351 C 0.15447 0.1721 0.21101 0.0
N352 N 0.11754 0.20873 0.05647 0.0
N353 N 0.14131 0.18028 0.32889 0.0
H354 H 0.19503 0.14285 0.19165 0.0
H355 H 0.18196 0.14061 0.27504 0.0
H356 H 0.1265 0.18815 0.36769 0.0
H357 H 0.16341 0.17146 0.34656 0.0
H358 H 0.09965 0.2246 0.03966 0.0
H359 H 0.13333 0.20187 0.01855 0.0
H360 H 0.06055 0.22137 0.10376 0.0
H361 H 0.0512 0.22511 0.18916 0.0
C362 C 0.21765 0.60544 0.68046 0.0
C363 C 0.23134 0.63533 0.69904 0.0
C364 C 0.22922 0.6198 0.81907 0.0
C365 C 0.22089 0.5881 0.79951 0.0
N366 N 0.20565 0.55024 0.71349 0.0
N367 N 0.24959 0.67212 0.78501 0.0
C368 C 0.21416 0.58088 0.73069 0.0
C369 C 0.2363 0.64313 0.76821 0.0
N370 N 0.20788 0.60086 0.61482 0.0
N371 N 0.23077 0.6274 0.88632 0.0
H372 H 0.25326 0.69057 0.74979 0.0
H373 H 0.25826 0.6776 0.83325 0.0
H374 H 0.22697 0.61064 0.92513 0.0
H375 H 0.23335 0.65077 0.90396 0.0
H376 H 0.19549 0.58058 0.59831 0.0
H377 H 0.20973 0.61886 0.57768 0.0
H378 H 0.20399 0.54223 0.6638 0.0
H379 H 0.20137 0.53226 0.74967 0.0
C380 C 0.85072 0.84788 0.1877 0.0
C381 C 0.84989 0.82207 0.14097 0.0
C382 C 0.89634 0.79725 0.19986 0.0
C383 C 0.898 0.82398 0.24373 0.0
N384 N 0.8827 0.87862 0.26733 0.0
N385 N 0.87666 0.77635 0.09286 0.0
C386 C 0.87716 0.85061 0.23344 0.0
C387 C 0.8742 0.79798 0.1441 0.0
N388 N 0.82523 0.86852 0.19221 0.0
N389 N 0.91494 0.77069 0.21289 0.0
H390 H 0.86111 0.77661 0.05093 0.0
H391 H 0.89572 0.76018 0.0889 0.0
H392 H 0.93168 0.76947 0.25278 0.0
H393 H 0.9121 0.7491 0.18724 0.0
H394 H 0.82315 0.88552 0.2303 0.0
H395 H 0.80449 0.86642 0.16267 0.0
H396 H 0.87017 0.89985 0.25662 0.0
H397 H 0.90201 0.88153 0.30118 0.0
C398 C 0.76168 0.37783 0.7409 0.0
C399 C 0.764 0.38541 0.67059 0.0
C400 C 0.79306 0.43521 0.69811 0.0
C401 C 0.79271 0.42627 0.76772 0.0
N402 N 0.78157 0.38683 0.85506 0.0
N403 N 0.78653 0.41825 0.58139 0.0
C404 C 0.77843 0.39692 0.78898 0.0
C405 C 0.78088 0.41336 0.64886 0.0
N406 N 0.74244 0.35309 0.76225 0.0
N407 N 0.80456 0.46478 0.6793 0.0
H408 H 0.77843 0.40249 0.54417 0.0
H409 H 0.80153 0.43629 0.56268 0.0
H410 H 0.81436 0.48095 0.71399 0.0
H411 H 0.80231 0.47421 0.63033 0.0
H412 H 0.73636 0.34915 0.81274 0.0
H413 H 0.73017 0.338 0.72925 0.0
H414 H 0.77531 0.36384 0.87184 0.0
H415 H 0.79287 0.40045 0.89256 0.0
C416 C 0.65628 0.30996 0.28236 0.0
C417 C 0.64894 0.32009 0.34913 0.0
C418 C 0.59405 0.33416 0.31071 0.0
C419 C 0.60079 0.32152 0.24589 0.0
N420 N 0.63548 0.28969 0.176 0.0
N421 N 0.60844 0.33462 0.43013 0.0
C422 C 0.63101 0.30691 0.23374 0.0
C423 C 0.61708 0.3301 0.36433 0.0
N424 N 0.68754 0.30519 0.26353 0.0
N425 N 0.56626 0.35108 0.32055 0.0
H426 H 0.62429 0.33074 0.47083 0.0
H427 H 0.58476 0.3389 0.44472 0.0
H428 H 0.54885 0.35464 0.28258 0.0
H429 H 0.56178 0.36382 0.3646 0.0
H430 H 0.69416 0.30124 0.21353 0.0
H431 H 0.70727 0.30858 0.29573 0.0
H432 H 0.65598 0.2758 0.16788 0.0
H433 H 0.61734 0.28656 0.13948 0.0
C434 C 0.26034 0.1271 0.75541 0.0
C435 C 0.26283 0.11841 0.82517 0.0
C436 C 0.29094 0.06867 0.79533 0.0
C437 C 0.29079 0.07885 0.72643 0.0
N438 N 0.28087 0.12032 0.64211 0.0
N439 N 0.28514 0.08384 0.91292 0.0
C440 C 0.27708 0.10883 0.70683 0.0
C441 C 0.27937 0.08993 0.84561 0.0
N442 N 0.24101 0.15213 0.73507 0.0
N443 N 0.30146 0.03844 0.81245 0.0
H444 H 0.27737 0.09908 0.95093 0.0
H445 H 0.29995 0.06529 0.93083 0.0
H446 H 0.31055 0.02248 0.777 0.0
H447 H 0.29893 0.0283 0.86062 0.0
H448 H 0.23525 0.15717 0.6845 0.0
H449 H 0.22826 0.16615 0.76878 0.0
H450 H 0.27472 0.14365 0.62703 0.0
H451 H 0.29283 0.1076 0.60471 0.0
C452 C 0.37696 0.70923 0.40154 0.0
C453 C 0.34982 0.69027 0.3835 0.0
C454 C 0.36687 0.68935 0.2653 0.0
C455 C 0.3932 0.70964 0.28259 0.0
N456 N 0.42821 0.73246 0.36752 0.0
N457 N 0.32367 0.65471 0.3047 0.0
C458 C 0.39991 0.71736 0.35114 0.0
C459 C 0.3465 0.67766 0.31743 0.0
N460 N 0.37998 0.72038 0.46621 0.0
N461 N 0.36019 0.68292 0.19874 0.0
H462 H 0.30845 0.64582 0.34217 0.0
H463 H 0.3218 0.64232 0.25926 0.0
H464 H 0.37483 0.69057 0.15908 0.0
H465 H 0.33913 0.67165 0.18218 0.0
H466 H 0.3969 0.73747 0.48117 0.0
H467 H 0.36441 0.71335 0.50478 0.0
H468 H 0.43595 0.73659 0.41704 0.0
H469 H 0.44535 0.73861 0.33127 0.0
C470 C 0.72433 0.85548 0.75165 0.0
C471 C 0.72424 0.86515 0.82058 0.0
C472 C 0.71023 0.92027 0.78618 0.0
C473 C 0.71315 0.91126 0.71751 0.0
N474 N 0.71362 0.86968 0.63365 0.0
N475 N 0.70739 0.90307 0.90408 0.0
C476 C 0.71674 0.87851 0.69995 0.0
C477 C 0.71385 0.89643 0.83795 0.0
N478 N 0.73408 0.82515 0.73521 0.0
N479 N 0.70546 0.95187 0.80158 0.0
H480 H 0.70927 0.88565 0.94241 0.0
H481 H 0.69739 0.92461 0.92011 0.0
H482 H 0.70098 0.96947 0.76443 0.0
H483 H 0.70703 0.9609 0.85049 0.0
H484 H 0.73903 0.81806 0.68602 0.0
H485 H 0.73916 0.80722 0.77104 0.0
H486 H 0.71275 0.84588 0.61792 0.0
H487 H 0.70907 0.88617 0.59446 0.0
C488 C 0.83737 0.82398 0.76182 0.0
C489 C 0.84292 0.80934 0.82641 0.0
C490 C 0.8991 0.79864 0.79576 0.0
C491 C 0.89266 0.81138 0.72995 0.0
N492 N 0.85373 0.82837 0.64486 0.0
N493 N 0.87678 0.77663 0.89963 0.0
C494 C 0.86112 0.82149 0.71125 0.0
C495 C 0.87319 0.79486 0.84194 0.0
N496 N 0.81034 0.84203 0.7498 0.0
N497 N 0.93002 0.79103 0.81469 0.0
H498 H 0.85785 0.77257 0.93301 0.0
H499 H 0.89733 0.76308 0.91095 0.0
H500 H 0.94942 0.79301 0.78167 0.0
H501 H 0.93677 0.78494 0.86425 0.0
H502 H 0.80678 0.85605 0.70619 0.0
H503 H 0.79301 0.84578 0.78634 0.0
H504 H 0.83024 0.83257 0.62741 0.0
H505 H 0.8705 0.82672 0.60604 0.0
C506 C 0.79621 0.38701 0.35044 0.0
C507 C 0.76225 0.38833 0.35796 0.0
C508 C 0.75854 0.42942 0.2679 0.0
C509 C 0.79176 0.42485 0.25439 0.0
N510 N 0.84212 0.39772 0.27843 0.0
N511 N 0.71034 0.40896 0.32176 0.0
C512 C 0.81067 0.40335 0.29478 0.0
C513 C 0.7432 0.40924 0.31648 0.0
N514 N 0.81462 0.37071 0.39749 0.0
N515 N 0.74185 0.45348 0.23506 0.0
H516 H 0.69829 0.39551 0.35845 0.0
H517 H 0.69485 0.42049 0.28732 0.0
H518 H 0.75227 0.46854 0.19872 0.0
H519 H 0.71854 0.46033 0.24769 0.0
H520 H 0.83974 0.37119 0.39865 0.0
H521 H 0.80468 0.35909 0.43949 0.0
H522 H 0.85612 0.37964 0.30096 0.0
H523 H 0.85368 0.4097 0.23881 0.0
C524 C 0.13657 0.2222 0.83479 0.0
C525 C 0.14795 0.19012 0.839 0.0
C526 C 0.11286 0.17556 0.7433 0.0
C527 C 0.10578 0.20864 0.73222 0.0
N528 N 0.11381 0.26422 0.76308 0.0
N529 N 0.14863 0.13611 0.79598 0.0
C530 C 0.11808 0.2322 0.77727 0.0
C531 C 0.13628 0.16659 0.7934 0.0
N532 N 0.1433 0.24301 0.88618 0.0
N533 N 0.09687 0.15279 0.70643 0.0
H534 H 0.16504 0.12845 0.83332 0.0
H535 H 0.1441 0.11899 0.75895 0.0
H536 H 0.07943 0.15865 0.6697 0.0
H537 H 0.09871 0.12818 0.71636 0.0
H538 H 0.13321 0.26589 0.88921 0.0
H539 H 0.15632 0.23607 0.9295 0.0
H540 H 0.12539 0.28239 0.78996 0.0
H541 H 0.1009 0.27278 0.72091 0.0
C542 C 0.21332 0.61326 0.36357 0.0
C543 C 0.24368 0.612 0.3975 0.0
C544 C 0.25752 0.56347 0.33498 0.0
C545 C 0.2303 0.5688 0.29223 0.0
N546 N 0.18158 0.5979 0.26486 0.0
N547 N 0.29587 0.58651 0.41372 0.0
C548 C 0.20769 0.5932 0.3068 0.0
C549 C 0.26586 0.58683 0.38399 0.0
N550 N 0.18985 0.63335 0.38648 0.0
N551 N 0.27571 0.5363 0.32778 0.0
H552 H 0.30338 0.60283 0.45019 0.0
H553 H 0.31441 0.5714 0.3986 0.0
H554 H 0.27067 0.51905 0.29118 0.0
H555 H 0.29383 0.52934 0.36197 0.0
H556 H 0.16631 0.63368 0.36742 0.0
H557 H 0.19315 0.64743 0.42945 0.0
H558 H 0.16624 0.61766 0.26783 0.0
H559 H 0.17614 0.58262 0.2247 0.0
C560 C 0.35639 0.68478 0.73259 0.0
C561 C 0.34477 0.70794 0.6849 0.0
C562 C 0.37363 0.75067 0.74435 0.0
C563 C 0.3861 0.72744 0.79114 0.0
N564 N 0.39603 0.67175 0.82014 0.0
N565 N 0.34955 0.7605 0.63344 0.0
C566 C 0.3796 0.69422 0.78212 0.0
C567 C 0.35577 0.74015 0.68695 0.0
N568 N 0.34429 0.65419 0.73244 0.0
N569 N 0.37724 0.78279 0.75653 0.0
H570 H 0.33751 0.75296 0.5897 0.0
H571 H 0.35934 0.78352 0.62926 0.0
H572 H 0.38959 0.79167 0.79868 0.0
H573 H 0.36557 0.80065 0.72794 0.0
H574 H 0.34885 0.63742 0.77104 0.0
H575 H 0.32794 0.64613 0.69579 0.0
H576 H 0.39458 0.64711 0.81148 0.0
H577 H 0.4135 0.67789 0.85629 0.0
C578 C 0.75788 0.91759 0.13001 0.0
C579 C 0.73936 0.88881 0.12381 0.0
C580 C 0.70741 0.90376 0.2223 0.0
C581 C 0.72656 0.93173 0.22942 0.0
N582 N 0.76232 0.97061 0.17934 0.0
N583 N 0.69033 0.86023 0.14937 0.0
C584 C 0.749 0.94052 0.1791 0.0
C585 C 0.71204 0.88379 0.16531 0.0
N586 N 0.78549 0.92199 0.09375 0.0
N587 N 0.68581 0.89566 0.27139 0.0
H588 H 0.69259 0.84618 0.10627 0.0
H589 H 0.66856 0.85698 0.17435 0.0
H590 H 0.68098 0.91057 0.31223 0.0
H591 H 0.67392 0.87359 0.27337 0.0
H592 H 0.80184 0.94049 0.10318 0.0
H593 H 0.79402 0.90587 0.05834 0.0
H594 H 0.77638 0.97965 0.14006 0.0
H595 H 0.75657 0.9877 0.21557 0.0
C596 C 0.62093 0.30394 0.65606 0.0
C597 C 0.64633 0.32668 0.66225 0.0
C598 C 0.62449 0.34524 0.76981 0.0
C599 C 0.59805 0.32389 0.76188 0.0
N600 N 0.56823 0.286 0.69418 0.0
N601 N 0.66829 0.37378 0.71618 0.0
C602 C 0.59539 0.30412 0.7039 0.0
C603 C 0.64696 0.3487 0.71664 0.0
N604 N 0.62176 0.28168 0.60564 0.0
N605 N 0.62862 0.36162 0.82905 0.0
H606 H 0.68451 0.37763 0.67715 0.0
H607 H 0.66777 0.39254 0.75064 0.0
H608 H 0.61239 0.36033 0.86898 0.0
H609 H 0.64949 0.37443 0.84103 0.0
H610 H 0.60599 0.26224 0.60249 0.0
H611 H 0.6396 0.28151 0.56877 0.0
H612 H 0.56317 0.2736 0.64978 0.0
H613 H 0.54951 0.28512 0.72907 0.0
C614 C 0.29651 0.10601 0.13658 0.0
C615 C 0.26238 0.10566 0.12997 0.0
C616 C 0.2582 0.06825 0.22627 0.0
C617 C 0.29222 0.06985 0.23522 0.0
N618 N 0.34457 0.08512 0.19397 0.0
N619 N 0.21141 0.08083 0.15539 0.0
C620 C 0.31168 0.08706 0.18849 0.0
C621 C 0.24343 0.08486 0.17062 0.0
N622 N 0.31415 0.12495 0.09363 0.0
N623 N 0.23999 0.0518 0.27255 0.0
H624 H 0.19994 0.0928 0.11506 0.0
H625 H 0.19672 0.06384 0.17887 0.0
H626 H 0.25004 0.03814 0.3122 0.0
H627 H 0.21492 0.0529 0.27411 0.0
H628 H 0.33866 0.12964 0.09966 0.0
H629 H 0.30389 0.13651 0.05136 0.0
H630 H 0.36044 0.09487 0.15884 0.0
H631 H 0.35632 0.07203 0.23238 0.0
C632 C 0.19424 0.30167 0.03376 0.0
C633 C 0.21829 0.28884 0.99123 0.0
C634 C 0.23374 0.34328 0.95539 0.0
C635 C 0.21309 0.35596 0.00521 0.0
N636 N 0.17428 0.34817 0.0937 0.0
N637 N 0.26286 0.29713 0.91498 0.0
C638 C 0.19329 0.33542 0.04467 0.0
C639 C 0.23826 0.30953 0.95215 0.0
N640 N 0.17186 0.28161 0.0621 0.0
N641 N 0.24917 0.36356 0.91126 0.0
H642 H 0.26675 0.27261 0.90941 0.0
H643 H 0.28095 0.31111 0.8933 0.0
H644 H 0.24758 0.38856 0.91352 0.0
H645 H 0.26142 0.35569 0.86878 0.0
H646 H 0.15192 0.28963 0.08866 0.0
H647 H 0.1716 0.2569 0.05367 0.0
H648 H 0.16214 0.33433 0.12958 0.0
H649 H 0.17199 0.37291 0.1007 0.0
C650 C 0.15927 0.75279 0.44381 0.0
C651 C 0.16774 0.72964 0.49462 0.0
C652 C 0.11352 0.73289 0.54211 0.0
C653 C 0.10511 0.75582 0.49113 0.0
N654 N 0.11655 0.78175 0.38423 0.0
N655 N 0.15118 0.69159 0.58037 0.0
C656 C 0.12691 0.76378 0.43882 0.0
C657 C 0.14425 0.71778 0.5402 0.0
N658 N 0.18242 0.76571 0.40287 0.0
N659 N 0.0926 0.72645 0.59357 0.0
H660 H 0.1732 0.6795 0.57839 0.0
H661 H 0.13421 0.67995 0.61047 0.0
H662 H 0.06951 0.73639 0.59538 0.0
H663 H 0.09877 0.71285 0.63648 0.0
H664 H 0.17849 0.78565 0.37136 0.0
H665 H 0.20631 0.75802 0.40339 0.0
H666 H 0.13028 0.78551 0.34098 0.0
H667 H 0.09303 0.79054 0.37942 0.0
C668 C 0.81024 0.69167 0.05917 0.0
C669 C 0.7873 0.70265 0.00984 0.0
C670 C 0.78475 0.64846 0.96183 0.0
C671 C 0.806 0.6372 0.01368 0.0
N672 N 0.8346 0.64621 0.11881 0.0
N673 N 0.74676 0.68945 0.92542 0.0
C674 C 0.81742 0.65826 0.06456 0.0
C675 C 0.77289 0.68047 0.96419 0.0
N676 N 0.82628 0.71322 0.09893 0.0
N677 N 0.77646 0.62879 0.90933 0.0
H678 H 0.73641 0.71223 0.92735 0.0
H679 H 0.73319 0.67336 0.89672 0.0
H680 H 0.7842 0.60497 0.90634 0.0
H681 H 0.76414 0.63685 0.86601 0.0
H682 H 0.84603 0.70721 0.12973 0.0
H683 H 0.82153 0.73774 0.09722 0.0
H684 H 0.84046 0.65965 0.16144 0.0
H685 H 0.84076 0.62195 0.12385 0.0
C686 C 0.84827 0.30298 0.53908 0.0
C687 C 0.82575 0.28237 0.5067 0.0
C688 C 0.87017 0.25078 0.46037 0.0
C689 C 0.89255 0.27008 0.49669 0.0
N690 N 0.90263 0.30951 0.58321 0.0
N691 N 0.81471 0.23295 0.44794 0.0
C692 C 0.88148 0.29463 0.54004 0.0
C693 C 0.83655 0.25508 0.47083 0.0
N694 N 0.83821 0.33132 0.56611 0.0
N695 N 0.88094 0.22934 0.41379 0.0
H696 H 0.78994 0.2353 0.45492 0.0
H697 H 0.8213 0.21093 0.42765 0.0
H698 H 0.90537 0.22553 0.40462 0.0
H699 H 0.86568 0.21722 0.38039 0.0
H700 H 0.85401 0.3489 0.58388 0.0
H701 H 0.81421 0.3387 0.56471 0.0
H702 H 0.89536 0.32527 0.62073 0.0
H703 H 0.92711 0.3037 0.58605 0.0
C704 C 0.68804 0.19844 0.48266 0.0
C705 C 0.71198 0.21224 0.52531 0.0
C706 C 0.7287 0.15848 0.56451 0.0
C707 C 0.70802 0.14478 0.51475 0.0
N708 N 0.66822 0.15076 0.42552 0.0
N709 N 0.75638 0.20586 0.605 0.0
C710 C 0.68751 0.1645 0.47388 0.0
C711 C 0.73229 0.19242 0.56668 0.0
N712 N 0.66545 0.21787 0.45193 0.0
N713 N 0.74514 0.139 0.60946 0.0
H714 H 0.75912 0.23053 0.61091 0.0
H715 H 0.77493 0.19268 0.62807 0.0
H716 H 0.74469 0.11396 0.60749 0.0
H717 H 0.75735 0.1475 0.65208 0.0
H718 H 0.64562 0.2093 0.42474 0.0
H719 H 0.66493 0.24271 0.45886 0.0
H720 H 0.65552 0.16385 0.38861 0.0
H721 H 0.66612 0.12589 0.42024 0.0
C722 C 0.35098 0.21229 0.9565 0.0
C723 C 0.32868 0.22001 0.00789 0.0
C724 C 0.37046 0.25196 0.06496 0.0
C725 C 0.39041 0.24897 0.00763 0.0
N726 N 0.39884 0.2284 0.89539 0.0
N727 N 0.31608 0.2514 0.107 0.0
C728 C 0.38062 0.22945 0.95258 0.0
C729 C 0.33818 0.24065 0.06165 0.0
N730 N 0.34415 0.188 0.91254 0.0
N731 N 0.38246 0.26555 0.12279 0.0
H732 H 0.29189 0.24474 0.10628 0.0
H733 H 0.32109 0.26943 0.14181 0.0
H734 H 0.40614 0.27394 0.12699 0.0
H735 H 0.37007 0.26546 0.16844 0.0
H736 H 0.36068 0.17932 0.87786 0.0
H737 H 0.32318 0.17421 0.91578 0.0
H738 H 0.39103 0.21753 0.85079 0.0
H739 H 0.42079 0.24045 0.89075 0.0
C740 C 0.31001 0.80932 0.47078 0.0
C741 C 0.28174 0.80043 0.50627 0.0
C742 C 0.27403 0.8564 0.54009 0.0
C743 C 0.30062 0.8656 0.49956 0.0
N744 N 0.33973 0.85198 0.41496 0.0
N745 N 0.23329 0.81616 0.56377 0.0
C746 C 0.31735 0.84239 0.46137 0.0
C747 C 0.26266 0.82419 0.53771 0.0
N748 N 0.33073 0.78623 0.44896 0.0
N749 N 0.26046 0.87806 0.58285 0.0
H750 H 0.22404 0.79284 0.56244 0.0
H751 H 0.21684 0.83307 0.5809 0.0
H752 H 0.2683 0.90183 0.58656 0.0
H753 H 0.24336 0.87176 0.61892 0.0
H754 H 0.35337 0.79132 0.42913 0.0
H755 H 0.32668 0.76182 0.45712 0.0
H756 H 0.35022 0.83633 0.38076 0.0
H757 H 0.34559 0.87608 0.40619 0.0
C758 C 0.65678 0.74616 0.0424 0.0
C759 C 0.6698 0.77497 0.01494 0.0
C760 C 0.61551 0.79516 0.99006 0.0
C761 C 0.60242 0.76836 0.02544 0.0
N762 N 0.61031 0.71996 0.09239 0.0
N763 N 0.66202 0.82919 0.97258 0.0
C764 C 0.62295 0.7441 0.05322 0.0
C765 C 0.6493 0.80014 0.99153 0.0
N766 N 0.67672 0.72084 0.05785 0.0
N767 N 0.5957 0.81533 0.95337 0.0
H768 H 0.68672 0.83388 0.9734 0.0
H769 H 0.64802 0.84951 0.9621 0.0
H770 H 0.57078 0.81204 0.94976 0.0
H771 H 0.60426 0.83332 0.92107 0.0
H772 H 0.66835 0.69806 0.0714 0.0
H773 H 0.7017 0.72193 0.05209 0.0
H774 H 0.62439 0.70354 0.11996 0.0
H775 H 0.58568 0.71778 0.10165 0.0
loop_
_geom_bond_atom_site_label_1
_geom_bond_atom_site_label_2
_geom_bond_distance
_geom_bond_site_symmetry_2
_ccdc_geom_bond_type
Fe0 O2 1.918 . S
Fe0 O5 1.997 . S
Fe0 O6 2.002 . S
Fe0 O11 1.976 . S
Fe0 O14 1.996 . S
Fe1 O2 1.918 1_556 S
Fe1 O9 1.997 . S
Fe1 O12 1.996 . S
Fe1 O16 1.976 . S
Fe1 O19 2.002 . S
O2 Fe0 1.918 . S
O2 Fe1 1.918 1_554 S
O2 Fe3 1.918 . S
Fe3 O2 1.918 . S
Fe3 O4 2.002 . S
Fe3 O13 1.976 . S
Fe3 O17 1.996 1_554 S
Fe3 O20 1.997 1_554 S
O4 Fe3 2.002 . S
O4 C21 1.295 . S
O5 Fe0 1.997 . S
O5 C21 1.235 . S
O6 Fe0 2.002 . S
O6 C7 1.295 . S
C7 O6 1.295 . S
C7 O9 1.235 1_554 S
C8 O13 1.287 . S
C8 O14 1.255 . S
O9 Fe1 1.997 . S
O9 C7 1.235 1_556 S
C10 O16 1.287 . S
C10 O17 1.255 . S
O11 Fe0 1.976 . S
O11 C18 1.287 . S
O12 Fe1 1.996 . S
O12 C18 1.255 1_556 S
O13 Fe3 1.976 . S
O13 C8 1.287 . S
O14 Fe0 1.996 . S
O14 C8 1.255 . S
C15 O19 1.295 . S
C15 O20 1.235 . S
O16 Fe1 1.976 . S
O16 C10 1.287 . S
O17 Fe3 1.996 1_556 S
O17 C10 1.255 . S
C18 O11 1.287 . S
C18 O12 1.255 1_554 S
O19 Fe1 2.002 . S
O19 C15 1.295 . S
O20 Fe3 1.997 1_556 S
O20 C15 1.235 . S
C21 O4 1.295 . S
C21 O5 1.235 . S
Fe22 O24 1.918 . S
Fe22 O27 1.997 . S
Fe22 O28 2.002 . S
Fe22 O33 1.976 . S
Fe22 O36 1.996 . S
Fe23 O24 1.918 . S
Fe23 O31 1.997 . S
Fe23 O34 1.996 . S
Fe23 O38 1.976 . S
Fe23 O41 2.002 . S
O24 Fe22 1.918 . S
O24 Fe23 1.918 . S
O24 Fe25 1.918 . S
Fe25 O24 1.918 . S
Fe25 O26 2.002 . S
Fe25 O35 1.976 . S
Fe25 O39 1.996 . S
Fe25 O42 1.997 . S
O26 Fe25 2.002 . S
O26 C43 1.295 . S
O27 Fe22 1.997 . S
O27 C43 1.235 . S
O28 Fe22 2.002 . S
O28 C29 1.295 . S
C29 O28 1.295 . S
C29 O31 1.235 . S
C30 O35 1.287 . S
C30 O36 1.255 . S
O31 Fe23 1.997 . S
O31 C29 1.235 . S
C32 O38 1.287 . S
C32 O39 1.255 . S
O33 Fe22 1.976 . S
O33 C40 1.287 . S
O34 Fe23 1.996 . S
O34 C40 1.255 . S
O35 Fe25 1.976 . S
O35 C30 1.287 . S
O36 Fe22 1.996 . S
O36 C30 1.255 . S
C37 O41 1.295 . S
C37 O42 1.235 . S
O38 Fe23 1.976 . S
O38 C32 1.287 . S
O39 Fe25 1.996 . S
O39 C32 1.255 . S
C40 O33 1.287 . S
C40 O34 1.255 . S
O41 Fe23 2.002 . S
O41 C37 1.295 . S
O42 Fe25 1.997 . S
O42 C37 1.235 . S
C43 O26 1.295 . S
C43 O27 1.235 . S
Fe44 O46 1.918 1_556 S
Fe44 O49 1.997 . S
Fe44 O50 2.002 . S
Fe44 O55 1.976 . S
Fe44 O58 1.996 . S
Fe45 O46 1.918 . S
Fe45 O53 1.997 . S
Fe45 O56 1.996 . S
Fe45 O60 1.976 . S
Fe45 O63 2.002 . S
O46 Fe44 1.918 1_554 S
O46 Fe45 1.918 . S
O46 Fe47 1.918 . S
Fe47 O46 1.918 . S
Fe47 O48 2.002 1_554 S
Fe47 O57 1.976 1_554 S
Fe47 O61 1.996 . S
Fe47 O64 1.997 . S
O48 Fe47 2.002 1_556 S
O48 C65 1.295 . S
O49 Fe44 1.997 . S
O49 C65 1.235 . S
O50 Fe44 2.002 . S
O50 C51 1.295 1_556 S
C51 O50 1.295 1_554 S
C51 O53 1.235 . S
C52 O57 1.287 . S
C52 O58 1.255 . S
O53 Fe45 1.997 . S
O53 C51 1.235 . S
C54 O60 1.287 . S
C54 O61 1.255 . S
O55 Fe44 1.976 . S
O55 C62 1.287 1_556 S
O56 Fe45 1.996 . S
O56 C62 1.255 . S
O57 Fe47 1.976 1_556 S
O57 C52 1.287 . S
O58 Fe44 1.996 . S
O58 C52 1.255 . S
C59 O63 1.295 . S
C59 O64 1.235 . S
O60 Fe45 1.976 . S
O60 C54 1.287 . S
O61 Fe47 1.996 . S
O61 C54 1.255 . S
C62 O55 1.287 1_554 S
C62 O56 1.255 . S
O63 Fe45 2.002 . S
O63 C59 1.295 . S
O64 Fe47 1.997 . S
O64 C59 1.235 . S
C65 O48 1.295 . S
C65 O49 1.235 . S
Fe66 O68 1.918 . S
Fe66 O71 1.997 . S
Fe66 O72 2.002 . S
Fe66 O77 1.976 . S
Fe66 O80 1.996 . S
Fe67 O68 1.918 . S
Fe67 O75 1.997 . S
Fe67 O78 1.996 . S
Fe67 O82 1.976 . S
Fe67 O85 2.002 . S
O68 Fe66 1.918 . S
O68 Fe67 1.918 . S
O68 Fe69 1.918 . S
Fe69 O68 1.918 . S
Fe69 O70 2.002 . S
Fe69 O79 1.976 . S
Fe69 O83 1.996 . S
Fe69 O86 1.997 . S
O70 Fe69 2.002 . S
O70 C87 1.295 . S
O71 Fe66 1.997 . S
O71 C87 1.235 . S
O72 Fe66 2.002 . S
O72 C73 1.295 . S
C73 O72 1.295 . S
C73 O75 1.235 . S
C74 O79 1.287 . S
C74 O80 1.255 . S
O75 Fe67 1.997 . S
O75 C73 1.235 . S
C76 O82 1.287 . S
C76 O83 1.255 . S
O77 Fe66 1.976 . S
O77 C84 1.287 . S
O78 Fe67 1.996 . S
O78 C84 1.255 . S
O79 Fe69 1.976 . S
O79 C74 1.287 . S
O80 Fe66 1.996 . S
O80 C74 1.255 . S
C81 O85 1.295 . S
C81 O86 1.235 . S
O82 Fe67 1.976 . S
O82 C76 1.287 . S
O83 Fe69 1.996 . S
O83 C76 1.255 . S
C84 O77 1.287 . S
C84 O78 1.255 . S
O85 Fe67 2.002 . S
O85 C81 1.295 . S
O86 Fe69 1.997 . S
O86 C81 1.235 . S
C87 O70 1.295 . S
C87 O71 1.235 . S
P88 O99 1.490 . S
P88 C102 1.812 . S
P88 C108 1.803 . S
P88 C114 1.819 1_554 S
H89 C103 0.941 . S
H90 C104 0.939 . S
H91 C106 0.940 . S
H92 C107 0.940 . S
H93 C109 0.939 . S
H94 C110 0.942 . S
H95 C112 0.940 . S
H96 C113 0.939 . S
H97 C115 0.941 . S
H98 C119 0.939 . S
O99 P88 1.490 . S
H100 C116 0.939 . S
H101 C118 0.940 . S
C102 P88 1.812 . S
C102 C103 1.389 . S
C102 C107 1.391 . S
C103 H89 0.941 . S
C103 C102 1.389 . S
C103 C104 1.397 . S
C104 H90 0.939 . S
C104 C103 1.397 . S
C104 C105 1.378 . S
C105 C104 1.378 . S
C105 C106 1.378 . S
C106 H91 0.940 . S
C106 C105 1.378 . S
C106 C107 1.396 . S
C107 H92 0.940 . S
C107 C102 1.391 . S
C107 C106 1.396 . S
C108 P88 1.803 . S
C108 C109 1.378 1_554 S
C108 C113 1.400 . S
C109 H93 0.939 . S
C109 C108 1.378 1_556 S
C109 C110 1.361 . S
C110 H94 0.942 . S
C110 C109 1.361 . S
C110 C111 1.369 1_556 S
C111 C110 1.369 1_554 S
C111 C112 1.404 . S
C112 H95 0.940 . S
C112 C111 1.404 . S
C112 C113 1.389 . S
C113 H96 0.939 . S
C113 C108 1.400 . S
C113 C112 1.389 . S
C114 P88 1.819 1_556 S
C114 C115 1.391 . S
C114 C119 1.391 . S
C115 H97 0.941 . S
C115 C114 1.391 . S
C115 C116 1.396 . S
C116 H100 0.939 . S
C116 C115 1.396 . S
C116 C117 1.397 . S
C117 C116 1.397 . S
C117 C118 1.385 . S
C118 H101 0.940 . S
C118 C117 1.385 . S
C118 C119 1.388 . S
C119 H98 0.939 . S
C119 C114 1.391 . S
C119 C118 1.388 . S
P120 O131 1.490 1_655 S
P120 C134 1.812 . S
P120 C140 1.803 1_655 S
P120 C146 1.819 . S
H121 C135 0.941 . S
H122 C136 0.939 . S
H123 C138 0.940 . S
H124 C139 0.940 . S
H125 C141 0.939 . S
H126 C142 0.942 . S
H127 C144 0.940 . S
H128 C145 0.939 . S
H129 C147 0.941 . S
H130 C151 0.939 . S
O131 P120 1.490 1_455 S
H132 C148 0.939 . S
H133 C150 0.940 . S
C134 P120 1.812 . S
C134 C135 1.389 . S
C134 C139 1.391 . S
C135 H121 0.941 . S
C135 C134 1.389 . S
C135 C136 1.397 . S
C136 H122 0.939 . S
C136 C135 1.397 . S
C136 C137 1.378 . S
C137 C136 1.378 . S
C137 C138 1.378 . S
C138 H123 0.940 . S
C138 C137 1.378 . S
C138 C139 1.396 . S
C139 H124 0.940 . S
C139 C134 1.391 . S
C139 C138 1.396 . S
C140 P120 1.803 1_455 S
C140 C141 1.378 . S
C140 C145 1.400 . S
C141 H125 0.939 . S
C141 C140 1.378 . S
C141 C142 1.361 . S
C142 H126 0.942 . S
C142 C141 1.361 . S
C142 C143 1.369 . S
C143 C142 1.369 . S
C143 C144 1.404 . S
C144 H127 0.940 . S
C144 C143 1.404 . S
C144 C145 1.389 . S
C145 H128 0.939 . S
C145 C140 1.400 . S
C145 C144 1.389 . S
C146 P120 1.819 . S
C146 C147 1.391 . S
C146 C151 1.391 . S
C147 H129 0.941 . S
C147 C146 1.391 . S
C147 C148 1.396 . S
C148 H132 0.939 . S
C148 C147 1.396 . S
C148 C149 1.397 . S
C149 C148 1.397 . S
C149 C150 1.385 . S
C150 H133 0.940 . S
C150 C149 1.385 . S
C150 C151 1.388 . S
C151 H130 0.939 . S
C151 C146 1.391 . S
C151 C150 1.388 . S
P152 O163 1.490 . S
P152 C166 1.812 1_554 S
P152 C172 1.803 . S
P152 C178 1.819 . S
H153 C167 0.941 . S
H154 C168 0.939 . S
H155 C170 0.940 . S
H156 C171 0.940 . S
H157 C173 0.939 . S
H158 C174 0.942 . S
H159 C176 0.940 . S
H160 C177 0.939 . S
H161 C179 0.941 . S
H162 C183 0.939 . S
O163 P152 1.490 . S
H164 C180 0.939 . S
H165 C182 0.940 . S
C166 P152 1.812 1_556 S
C166 C167 1.389 . S
C166 C171 1.391 . S
C167 H153 0.941 . S
C167 C166 1.389 . S
C167 C168 1.397 . S
C168 H154 0.939 . S
C168 C167 1.397 . S
C168 C169 1.378 . S
C169 C168 1.378 . S
C169 C170 1.378 . S
C170 H155 0.940 . S
C170 C169 1.378 . S
C170 C171 1.396 . S
C171 H156 0.940 . S
C171 C166 1.391 . S
C171 C170 1.396 . S
C172 P152 1.803 . S
C172 C173 1.379 . S
C172 C177 1.399 1_554 S
C173 H157 0.939 . S
C173 C172 1.379 . S
C173 C174 1.361 . S
C174 H158 0.942 . S
C174 C173 1.361 . S
C174 C175 1.369 . S
C175 C174 1.369 . S
C175 C176 1.404 1_554 S
C176 H159 0.940 . S
C176 C175 1.404 1_556 S
C176 C177 1.389 . S
C177 H160 0.939 . S
C177 C172 1.399 1_556 S
C177 C176 1.389 . S
C178 P152 1.819 . S
C178 C179 1.391 . S
C178 C183 1.391 . S
C179 H161 0.941 . S
C179 C178 1.391 . S
C179 C180 1.396 . S
C180 H164 0.939 . S
C180 C179 1.396 . S
C180 C181 1.397 . S
C181 C180 1.397 . S
C181 C182 1.385 . S
C182 H165 0.940 . S
C182 C181 1.385 . S
C182 C183 1.388 . S
C183 H162 0.939 . S
C183 C178 1.391 . S
C183 C182 1.388 . S
P184 O195 1.490 . S
P184 C198 1.812 . S
P184 C204 1.803 1_455 S
P184 C210 1.819 . S
H185 C199 0.941 . S
H186 C200 0.939 . S
H187 C202 0.940 . S
H188 C203 0.940 . S
H189 C205 0.939 . S
H190 C206 0.942 . S
H191 C208 0.940 . S
H192 C209 0.939 . S
H193 C211 0.941 . S
H194 C215 0.939 . S
O195 P184 1.490 . S
H196 C212 0.939 . S
H197 C214 0.940 . S
C198 P184 1.812 . S
C198 C199 1.389 . S
C198 C203 1.391 . S
C199 H185 0.941 . S
C199 C198 1.389 . S
C199 C200 1.397 . S
C200 H186 0.939 . S
C200 C199 1.397 . S
C200 C201 1.378 . S
C201 C200 1.378 . S
C201 C202 1.378 . S
C202 H187 0.940 . S
C202 C201 1.378 . S
C202 C203 1.396 . S
C203 H188 0.940 . S
C203 C198 1.391 . S
C203 C202 1.396 . S
C204 P184 1.803 1_655 S
C204 C205 1.378 . S
C204 C209 1.400 . S
C205 H189 0.939 . S
C205 C204 1.378 . S
C205 C206 1.361 . S
C206 H190 0.942 . S
C206 C205 1.361 . S
C206 C207 1.369 . S
C207 C206 1.369 . S
C207 C208 1.404 . S
C208 H191 0.940 . S
C208 C207 1.404 . S
C208 C209 1.389 . S
C209 H192 0.939 . S
C209 C204 1.400 . S
C209 C208 1.389 . S
C210 P184 1.819 . S
C210 C211 1.391 . S
C210 C215 1.391 . S
C211 H193 0.941 . S
C211 C210 1.391 . S
C211 C212 1.396 . S
C212 H196 0.939 . S
C212 C211 1.396 . S
C212 C213 1.397 . S
C213 C212 1.397 . S
C213 C214 1.385 . S
C214 H197 0.940 . S
C214 C213 1.385 . S
C214 C215 1.388 . S
C215 H194 0.939 . S
C215 C210 1.391 . S
C215 C214 1.388 . S
P216 O227 1.489 . S
P216 C230 1.813 1_545 S
P216 C236 1.801 . S
P216 C242 1.820 1_545 S
H217 C231 0.941 . S
H218 C232 0.939 . S
H219 C234 0.940 . S
H220 C235 0.940 . S
H221 C237 0.939 . S
H222 C238 0.942 . S
H223 C240 0.940 . S
H224 C241 0.939 . S
H225 C243 0.941 . S
H226 C247 0.939 1_545 S
O227 P216 1.489 . S
H228 C244 0.939 . S
H229 C246 0.940 . S
C230 P216 1.813 1_565 S
C230 C231 1.389 . S
C230 C235 1.391 . S
C231 H217 0.941 . S
C231 C230 1.389 . S
C231 C232 1.397 . S
C232 H218 0.939 . S
C232 C231 1.397 . S
C232 C233 1.378 . S
C233 C232 1.378 . S
C233 C234 1.378 . S
C234 H219 0.940 . S
C234 C233 1.378 . S
C234 C235 1.396 . S
C235 H220 0.940 . S
C235 C230 1.391 . S
C235 C234 1.396 . S
C236 P216 1.801 . S
C236 C237 1.378 . S
C236 C241 1.400 . S
C237 H221 0.939 . S
C237 C236 1.378 . S
C237 C238 1.361 . S
C238 H222 0.942 . S
C238 C237 1.361 . S
C238 C239 1.369 . S
C239 C238 1.369 . S
C239 C240 1.404 . S
C240 H223 0.940 . S
C240 C239 1.404 . S
C240 C241 1.389 . S
C241 H224 0.939 . S
C241 C236 1.400 . S
C241 C240 1.389 . S
C242 P216 1.820 1_565 S
C242 C243 1.391 . S
C242 C247 1.391 . S
C243 H225 0.941 . S
C243 C242 1.391 . S
C243 C244 1.396 . S
C244 H228 0.939 . S
C244 C243 1.396 . S
C244 C245 1.397 . S
C245 C244 1.397 . S
C245 C246 1.385 . S
C246 H229 0.940 . S
C246 C245 1.385 . S
C246 C247 1.388 . S
C247 H226 0.939 1_565 S
C247 C242 1.391 . S
C247 C246 1.388 . S
P248 O259 1.490 . S
P248 C262 1.812 . S
P248 C268 1.803 . S
P248 C274 1.819 1_556 S
H249 C263 0.941 . S
H250 C264 0.939 . S
H251 C266 0.940 . S
H252 C267 0.940 . S
H253 C269 0.939 . S
H254 C270 0.942 . S
H255 C272 0.940 . S
H256 C273 0.939 . S
H257 C275 0.941 . S
H258 C279 0.939 . S
O259 P248 1.490 . S
H260 C276 0.939 . S
H261 C278 0.940 . S
C262 P248 1.812 . S
C262 C263 1.389 . S
C262 C267 1.391 . S
C263 H249 0.941 . S
C263 C262 1.389 . S
C263 C264 1.397 . S
C264 H250 0.939 . S
C264 C263 1.397 . S
C264 C265 1.378 . S
C265 C264 1.378 . S
C265 C266 1.378 . S
C266 H251 0.940 . S
C266 C265 1.378 . S
C266 C267 1.396 . S
C267 H252 0.940 . S
C267 C262 1.391 . S
C267 C266 1.396 . S
C268 P248 1.803 . S
C268 C269 1.378 1_556 S
C268 C273 1.400 . S
C269 H253 0.939 . S
C269 C268 1.378 1_554 S
C269 C270 1.361 . S
C270 H254 0.942 . S
C270 C269 1.361 . S
C270 C271 1.369 . S
C271 C270 1.369 . S
C271 C272 1.404 1_554 S
C272 H255 0.940 . S
C272 C271 1.404 1_556 S
C272 C273 1.389 . S
C273 H256 0.939 . S
C273 C268 1.400 . S
C273 C272 1.389 . S
C274 P248 1.819 1_554 S
C274 C275 1.391 . S
C274 C279 1.391 . S
C275 H257 0.941 . S
C275 C274 1.391 . S
C275 C276 1.396 . S
C276 H260 0.939 . S
C276 C275 1.396 . S
C276 C277 1.397 . S
C277 C276 1.397 . S
C277 C278 1.385 . S
C278 H261 0.940 . S
C278 C277 1.385 . S
C278 C279 1.388 . S
C279 H258 0.939 . S
C279 C274 1.391 . S
C279 C278 1.388 . S
P280 O291 1.490 . S
P280 C294 1.812 . S
P280 C300 1.803 1_545 S
P280 C306 1.819 . S
H281 C295 0.941 . S
H282 C296 0.939 . S
H283 C298 0.940 . S
H284 C299 0.940 . S
H285 C301 0.939 . S
H286 C302 0.942 . S
H287 C304 0.940 . S
H288 C305 0.939 . S
H289 C307 0.941 . S
H290 C311 0.939 1_565 S
O291 P280 1.490 . S
H292 C308 0.939 . S
H293 C310 0.940 . S
C294 P280 1.812 . S
C294 C295 1.389 . S
C294 C299 1.391 . S
C295 H281 0.941 . S
C295 C294 1.389 . S
C295 C296 1.397 . S
C296 H282 0.939 . S
C296 C295 1.397 . S
C296 C297 1.378 . S
C297 C296 1.378 . S
C297 C298 1.378 . S
C298 H283 0.940 . S
C298 C297 1.378 . S
C298 C299 1.396 . S
C299 H284 0.940 . S
C299 C294 1.391 . S
C299 C298 1.396 . S
C300 P280 1.803 1_565 S
C300 C301 1.378 . S
C300 C305 1.400 . S
C301 H285 0.939 . S
C301 C300 1.378 . S
C301 C302 1.361 . S
C302 H286 0.942 . S
C302 C301 1.361 . S
C302 C303 1.369 . S
C303 C302 1.369 . S
C303 C304 1.404 . S
C304 H287 0.940 . S
C304 C303 1.404 . S
C304 C305 1.389 . S
C305 H288 0.939 . S
C305 C300 1.400 . S
C305 C304 1.389 . S
C306 P280 1.819 . S
C306 C307 1.391 . S
C306 C311 1.391 . S
C307 H289 0.941 . S
C307 C306 1.391 . S
C307 C308 1.396 . S
C308 H292 0.939 . S
C308 C307 1.396 . S
C308 C309 1.397 . S
C309 C308 1.397 . S
C309 C310 1.385 . S
C310 H293 0.940 . S
C310 C309 1.385 . S
C310 C311 1.388 . S
C311 H290 0.939 1_545 S
C311 C306 1.391 . S
C311 C310 1.388 . S
P312 O323 1.490 . S
P312 C326 1.812 . S
P312 C332 1.803 . S
P312 C338 1.819 1_554 S
H313 C327 0.941 . S
H314 C328 0.939 . S
H315 C330 0.940 . S
H316 C331 0.940 . S
H317 C333 0.939 . S
H318 C334 0.942 . S
H319 C336 0.940 . S
H320 C337 0.939 . S
H321 C339 0.941 . S
H322 C343 0.939 . S
O323 P312 1.490 . S
H324 C340 0.939 . S
H325 C342 0.940 . S
C326 P312 1.812 . S
C326 C327 1.389 . S
C326 C331 1.391 . S
C327 H313 0.941 . S
C327 C326 1.389 . S
C327 C328 1.397 . S
C328 H314 0.939 . S
C328 C327 1.397 . S
C328 C329 1.378 . S
C329 C328 1.378 . S
C329 C330 1.378 . S
C330 H315 0.940 . S
C330 C329 1.378 . S
C330 C331 1.396 . S
C331 H316 0.940 . S
C331 C326 1.391 . S
C331 C330 1.396 . S
C332 P312 1.803 . S
C332 C333 1.378 1_554 S
C332 C337 1.400 . S
C333 H317 0.939 . S
C333 C332 1.378 1_556 S
C333 C334 1.361 . S
C334 H318 0.942 . S
C334 C333 1.361 . S
C334 C335 1.369 1_556 S
C335 C334 1.369 1_554 S
C335 C336 1.404 . S
C336 H319 0.940 . S
C336 C335 1.404 . S
C336 C337 1.389 . S
C337 H320 0.939 . S
C337 C332 1.400 . S
C337 C336 1.389 . S
C338 P312 1.819 1_556 S
C338 C339 1.391 . S
C338 C343 1.391 . S
C339 H321 0.941 . S
C339 C338 1.391 . S
C339 C340 1.396 . S
C340 H324 0.939 . S
C340 C339 1.396 . S
C340 C341 1.397 . S
C341 C340 1.397 . S
C341 C342 1.385 . S
C342 H325 0.940 . S
C342 C341 1.385 . S
C342 C343 1.388 . S
C343 H322 0.939 . S
C343 C338 1.391 . S
C343 C342 1.388 . S
C344 C345 1.363 . S
C344 C350 1.379 . S
C344 N352 1.356 . S
C345 C344 1.363 . S
C345 C351 1.363 . S
C346 C347 1.363 . S
C346 C351 1.379 . S
C346 N353 1.356 . S
C347 C346 1.363 . S
C347 C350 1.363 . S
N348 C350 1.356 . S
N348 H360 0.984 . S
N348 H361 0.985 . S
N349 C351 1.356 . S
N349 H354 0.984 . S
N349 H355 0.985 . S
C350 C344 1.379 . S
C350 C347 1.363 . S
C350 N348 1.356 . S
C351 C345 1.363 . S
C351 C346 1.379 . S
C351 N349 1.356 . S
N352 C344 1.356 . S
N352 H358 0.984 . S
N352 H359 0.984 . S
N353 C346 1.356 . S
N353 H356 0.984 . S
N353 H357 0.985 . S
H354 N349 0.984 . S
H355 N349 0.985 . S
H356 N353 0.984 . S
H357 N353 0.985 . S
H358 N352 0.984 . S
H359 N352 0.984 . S
H360 N348 0.984 . S
H361 N348 0.985 . S
C362 C363 1.363 . S
C362 C368 1.379 . S
C362 N370 1.356 . S
C363 C362 1.363 . S
C363 C369 1.363 . S
C364 C365 1.363 . S
C364 C369 1.379 . S
C364 N371 1.356 . S
C365 C364 1.363 . S
C365 C368 1.363 . S
N366 C368 1.356 . S
N366 H378 0.984 . S
N366 H379 0.985 . S
N367 C369 1.356 . S
N367 H372 0.984 . S
N367 H373 0.985 . S
C368 C362 1.379 . S
C368 C365 1.363 . S
C368 N366 1.356 . S
C369 C363 1.363 . S
C369 C364 1.379 . S
C369 N367 1.356 . S
N370 C362 1.356 . S
N370 H376 0.984 . S
N370 H377 0.984 . S
N371 C364 1.356 . S
N371 H374 0.984 . S
N371 H375 0.985 . S
H372 N367 0.984 . S
H373 N367 0.985 . S
H374 N371 0.984 . S
H375 N371 0.985 . S
H376 N370 0.984 . S
H377 N370 0.984 . S
H378 N366 0.984 . S
H379 N366 0.985 . S
C380 C381 1.363 . S
C380 C386 1.379 . S
C380 N388 1.356 . S
C381 C380 1.363 . S
C381 C387 1.363 . S
C382 C383 1.363 . S
C382 C387 1.379 . S
C382 N389 1.356 . S
C383 C382 1.363 . S
C383 C386 1.363 . S
N384 C386 1.356 . S
N384 H396 0.984 . S
N384 H397 0.985 . S
N385 C387 1.356 . S
N385 H390 0.984 . S
N385 H391 0.985 . S
C386 C380 1.379 . S
C386 C383 1.363 . S
C386 N384 1.356 . S
C387 C381 1.363 . S
C387 C382 1.379 . S
C387 N385 1.356 . S
N388 C380 1.356 . S
N388 H394 0.984 . S
N388 H395 0.984 . S
N389 C382 1.356 . S
N389 H392 0.984 . S
N389 H393 0.985 . S
H390 N385 0.984 . S
H391 N385 0.985 . S
H392 N389 0.984 . S
H393 N389 0.985 . S
H394 N388 0.984 . S
H395 N388 0.984 . S
H396 N384 0.984 . S
H397 N384 0.985 . S
C398 C399 1.363 . S
C398 C404 1.379 . S
C398 N406 1.356 . S
C399 C398 1.363 . S
C399 C405 1.363 . S
C400 C401 1.363 . S
C400 C405 1.379 . S
C400 N407 1.356 . S
C401 C400 1.363 . S
C401 C404 1.363 . S
N402 C404 1.356 . S
N402 H414 0.984 . S
N402 H415 0.985 . S
N403 C405 1.356 . S
N403 H408 0.984 . S
N403 H409 0.985 . S
C404 C398 1.379 . S
C404 C401 1.363 . S
C404 N402 1.356 . S
C405 C399 1.363 . S
C405 C400 1.379 . S
C405 N403 1.356 . S
N406 C398 1.356 . S
N406 H412 0.984 . S
N406 H413 0.984 . S
N407 C400 1.356 . S
N407 H410 0.984 . S
N407 H411 0.985 . S
H408 N403 0.984 . S
H409 N403 0.985 . S
H410 N407 0.984 . S
H411 N407 0.985 . S
H412 N406 0.984 . S
H413 N406 0.984 . S
H414 N402 0.984 . S
H415 N402 0.985 . S
C416 C417 1.363 . S
C416 C422 1.379 . S
C416 N424 1.356 . S
C417 C416 1.363 . S
C417 C423 1.363 . S
C418 C419 1.363 . S
C418 C423 1.379 . S
C418 N425 1.356 . S
C419 C418 1.363 . S
C419 C422 1.363 . S
N420 C422 1.356 . S
N420 H432 0.984 . S
N420 H433 0.985 . S
N421 C423 1.356 . S
N421 H426 0.984 . S
N421 H427 0.985 . S
C422 C416 1.379 . S
C422 C419 1.363 . S
C422 N420 1.356 . S
C423 C417 1.363 . S
C423 C418 1.379 . S
C423 N421 1.356 . S
N424 C416 1.356 . S
N424 H430 0.984 . S
N424 H431 0.984 . S
N425 C418 1.356 . S
N425 H428 0.984 . S
N425 H429 0.985 . S
H426 N421 0.984 . S
H427 N421 0.985 . S
H428 N425 0.984 . S
H429 N425 0.985 . S
H430 N424 0.984 . S
H431 N424 0.984 . S
H432 N420 0.984 . S
H433 N420 0.985 . S
C434 C435 1.363 . S
C434 C440 1.379 . S
C434 N442 1.356 . S
C435 C434 1.363 . S
C435 C441 1.363 . S
C436 C437 1.363 . S
C436 C441 1.379 . S
C436 N443 1.356 . S
C437 C436 1.363 . S
C437 C440 1.363 . S
N438 C440 1.356 . S
N438 H450 0.984 . S
N438 H451 0.985 . S
N439 C441 1.356 . S
N439 H444 0.984 . S
N439 H445 0.985 . S
C440 C434 1.379 . S
C440 C437 1.363 . S
C440 N438 1.356 . S
C441 C435 1.363 . S
C441 C436 1.379 . S
C441 N439 1.356 . S
N442 C434 1.356 . S
N442 H448 0.984 . S
N442 H449 0.984 . S
N443 C436 1.356 . S
N443 H446 0.984 . S
N443 H447 0.985 . S
H444 N439 0.984 . S
H445 N439 0.985 . S
H446 N443 0.984 . S
H447 N443 0.985 . S
H448 N442 0.984 . S
H449 N442 0.984 . S
H450 N438 0.984 . S
H451 N438 0.985 . S
C452 C453 1.363 . S
C452 C458 1.379 . S
C452 N460 1.356 . S
C453 C452 1.363 . S
C453 C459 1.363 . S
C454 C455 1.363 . S
C454 C459 1.379 . S
C454 N461 1.356 . S
C455 C454 1.363 . S
C455 C458 1.363 . S
N456 C458 1.356 . S
N456 H468 0.984 . S
N456 H469 0.985 . S
N457 C459 1.356 . S
N457 H462 0.984 . S
N457 H463 0.985 . S
C458 C452 1.379 . S
C458 C455 1.363 . S
C458 N456 1.356 . S
C459 C453 1.363 . S
C459 C454 1.379 . S
C459 N457 1.356 . S
N460 C452 1.356 . S
N460 H466 0.984 . S
N460 H467 0.984 . S
N461 C454 1.356 . S
N461 H464 0.984 . S
N461 H465 0.985 . S
H462 N457 0.984 . S
H463 N457 0.985 . S
H464 N461 0.984 . S
H465 N461 0.985 . S
H466 N460 0.984 . S
H467 N460 0.984 . S
H468 N456 0.984 . S
H469 N456 0.985 . S
C470 C471 1.363 . S
C470 C476 1.379 . S
C470 N478 1.356 . S
C471 C470 1.363 . S
C471 C477 1.363 . S
C472 C473 1.363 . S
C472 C477 1.379 . S
C472 N479 1.356 . S
C473 C472 1.363 . S
C473 C476 1.363 . S
N474 C476 1.356 . S
N474 H486 0.984 . S
N474 H487 0.985 . S
N475 C477 1.356 . S
N475 H480 0.984 . S
N475 H481 0.985 . S
C476 C470 1.379 . S
C476 C473 1.363 . S
C476 N474 1.356 . S
C477 C471 1.363 . S
C477 C472 1.379 . S
C477 N475 1.356 . S
N478 C470 1.356 . S
N478 H484 0.984 . S
N478 H485 0.984 . S
N479 C472 1.356 . S
N479 H482 0.984 . S
N479 H483 0.985 . S
H480 N475 0.984 . S
H481 N475 0.985 . S
H482 N479 0.984 . S
H483 N479 0.985 . S
H484 N478 0.984 . S
H485 N478 0.984 . S
H486 N474 0.984 . S
H487 N474 0.985 . S
C488 C489 1.363 . S
C488 C494 1.379 . S
C488 N496 1.356 . S
C489 C488 1.363 . S
C489 C495 1.363 . S
C490 C491 1.363 . S
C490 C495 1.379 . S
C490 N497 1.356 . S
C491 C490 1.363 . S
C491 C494 1.363 . S
N492 C494 1.356 . S
N492 H504 0.984 . S
N492 H505 0.985 . S
N493 C495 1.356 . S
N493 H498 0.984 . S
N493 H499 0.985 . S
C494 C488 1.379 . S
C494 C491 1.363 . S
C494 N492 1.356 . S
C495 C489 1.363 . S
C495 C490 1.379 . S
C495 N493 1.356 . S
N496 C488 1.356 . S
N496 H502 0.984 . S
N496 H503 0.984 . S
N497 C490 1.356 . S
N497 H500 0.984 . S
N497 H501 0.985 . S
H498 N493 0.984 . S
H499 N493 0.985 . S
H500 N497 0.984 . S
H501 N497 0.985 . S
H502 N496 0.984 . S
H503 N496 0.984 . S
H504 N492 0.984 . S
H505 N492 0.985 . S
C506 C507 1.363 . S
C506 C512 1.379 . S
C506 N514 1.356 . S
C507 C506 1.363 . S
C507 C513 1.363 . S
C508 C509 1.363 . S
C508 C513 1.379 . S
C508 N515 1.356 . S
C509 C508 1.363 . S
C509 C512 1.363 . S
N510 C512 1.356 . S
N510 H522 0.984 . S
N510 H523 0.985 . S
N511 C513 1.356 . S
N511 H516 0.984 . S
N511 H517 0.985 . S
C512 C506 1.379 . S
C512 C509 1.363 . S
C512 N510 1.356 . S
C513 C507 1.363 . S
C513 C508 1.379 . S
C513 N511 1.356 . S
N514 C506 1.356 . S
N514 H520 0.984 . S
N514 H521 0.984 . S
N515 C508 1.356 . S
N515 H518 0.984 . S
N515 H519 0.985 . S
H516 N511 0.984 . S
H517 N511 0.985 . S
H518 N515 0.984 . S
H519 N515 0.985 . S
H520 N514 0.984 . S
H521 N514 0.984 . S
H522 N510 0.984 . S
H523 N510 0.985 . S
C524 C525 1.363 . S
C524 C530 1.379 . S
C524 N532 1.356 . S
C525 C524 1.363 . S
C525 C531 1.363 . S
C526 C527 1.363 . S
C526 C531 1.379 . S
C526 N533 1.356 . S
C527 C526 1.363 . S
C527 C530 1.363 . S
N528 C530 1.356 . S
N528 H540 0.984 . S
N528 H541 0.985 . S
N529 C531 1.356 . S
N529 H534 0.984 . S
N529 H535 0.985 . S
C530 C524 1.379 . S
C530 C527 1.363 . S
C530 N528 1.356 . S
C531 C525 1.363 . S
C531 C526 1.379 . S
C531 N529 1.356 . S
N532 C524 1.356 . S
N532 H538 0.984 . S
N532 H539 0.984 . S
N533 C526 1.356 . S
N533 H536 0.984 . S
N533 H537 0.985 . S
H534 N529 0.984 . S
H535 N529 0.985 . S
H536 N533 0.984 . S
H537 N533 0.985 . S
H538 N532 0.984 . S
H539 N532 0.984 . S
H540 N528 0.984 . S
H541 N528 0.985 . S
C542 C543 1.363 . S
C542 C548 1.379 . S
C542 N550 1.356 . S
C543 C542 1.363 . S
C543 C549 1.363 . S
C544 C545 1.363 . S
C544 C549 1.379 . S
C544 N551 1.356 . S
C545 C544 1.363 . S
C545 C548 1.363 . S
N546 C548 1.356 . S
N546 H558 0.984 . S
N546 H559 0.985 . S
N547 C549 1.356 . S
N547 H552 0.984 . S
N547 H553 0.985 . S
C548 C542 1.379 . S
C548 C545 1.363 . S
C548 N546 1.356 . S
C549 C543 1.363 . S
C549 C544 1.379 . S
C549 N547 1.356 . S
N550 C542 1.356 . S
N550 H556 0.984 . S
N550 H557 0.984 . S
N551 C544 1.356 . S
N551 H554 0.984 . S
N551 H555 0.985 . S
H552 N547 0.984 . S
H553 N547 0.985 . S
H554 N551 0.984 . S
H555 N551 0.985 . S
H556 N550 0.984 . S
H557 N550 0.984 . S
H558 N546 0.984 . S
H559 N546 0.985 . S
C560 C561 1.363 . S
C560 C566 1.379 . S
C560 N568 1.356 . S
C561 C560 1.363 . S
C561 C567 1.363 . S
C562 C563 1.363 . S
C562 C567 1.379 . S
C562 N569 1.356 . S
C563 C562 1.363 . S
C563 C566 1.363 . S
N564 C566 1.356 . S
N564 H576 0.984 . S
N564 H577 0.985 . S
N565 C567 1.356 . S
N565 H570 0.984 . S
N565 H571 0.985 . S
C566 C560 1.379 . S
C566 C563 1.363 . S
C566 N564 1.356 . S
C567 C561 1.363 . S
C567 C562 1.379 . S
C567 N565 1.356 . S
N568 C560 1.356 . S
N568 H574 0.984 . S
N568 H575 0.984 . S
N569 C562 1.356 . S
N569 H572 0.984 . S
N569 H573 0.985 . S
H570 N565 0.984 . S
H571 N565 0.985 . S
H572 N569 0.984 . S
H573 N569 0.985 . S
H574 N568 0.984 . S
H575 N568 0.984 . S
H576 N564 0.984 . S
H577 N564 0.985 . S
C578 C579 1.363 . S
C578 C584 1.379 . S
C578 N586 1.356 . S
C579 C578 1.363 . S
C579 C585 1.363 . S
C580 C581 1.363 . S
C580 C585 1.379 . S
C580 N587 1.356 . S
C581 C580 1.363 . S
C581 C584 1.363 . S
N582 C584 1.356 . S
N582 H594 0.984 . S
N582 H595 0.985 . S
N583 C585 1.356 . S
N583 H588 0.984 . S
N583 H589 0.985 . S
C584 C578 1.379 . S
C584 C581 1.363 . S
C584 N582 1.356 . S
C585 C579 1.363 . S
C585 C580 1.379 . S
C585 N583 1.356 . S
N586 C578 1.356 . S
N586 H592 0.984 . S
N586 H593 0.984 . S
N587 C580 1.356 . S
N587 H590 0.984 . S
N587 H591 0.985 . S
H588 N583 0.984 . S
H589 N583 0.985 . S
H590 N587 0.984 . S
H591 N587 0.985 . S
H592 N586 0.984 . S
H593 N586 0.984 . S
H594 N582 0.984 . S
H595 N582 0.985 . S
C596 C597 1.363 . S
C596 C602 1.379 . S
C596 N604 1.356 . S
C597 C596 1.363 . S
C597 C603 1.363 . S
C598 C599 1.363 . S
C598 C603 1.379 . S
C598 N605 1.356 . S
C599 C598 1.363 . S
C599 C602 1.363 . S
N600 C602 1.356 . S
N600 H612 0.984 . S
N600 H613 0.985 . S
N601 C603 1.356 . S
N601 H606 0.984 . S
N601 H607 0.985 . S
C602 C596 1.379 . S
C602 C599 1.363 . S
C602 N600 1.356 . S
C603 C597 1.363 . S
C603 C598 1.379 . S
C603 N601 1.356 . S
N604 C596 1.356 . S
N604 H610 0.984 . S
N604 H611 0.984 . S
N605 C598 1.356 . S
N605 H608 0.984 . S
N605 H609 0.985 . S
H606 N601 0.984 . S
H607 N601 0.985 . S
H608 N605 0.984 . S
H609 N605 0.985 . S
H610 N604 0.984 . S
H611 N604 0.984 . S
H612 N600 0.984 . S
H613 N600 0.985 . S
C614 C615 1.363 . S
C614 C620 1.379 . S
C614 N622 1.356 . S
C615 C614 1.363 . S
C615 C621 1.363 . S
C616 C617 1.363 . S
C616 C621 1.379 . S
C616 N623 1.356 . S
C617 C616 1.363 . S
C617 C620 1.363 . S
N618 C620 1.356 . S
N618 H630 0.984 . S
N618 H631 0.985 . S
N619 C621 1.356 . S
N619 H624 0.984 . S
N619 H625 0.985 . S
C620 C614 1.379 . S
C620 C617 1.363 . S
C620 N618 1.356 . S
C621 C615 1.363 . S
C621 C616 1.379 . S
C621 N619 1.356 . S
N622 C614 1.356 . S
N622 H628 0.984 . S
N622 H629 0.984 . S
N623 C616 1.356 . S
N623 H626 0.984 . S
N623 H627 0.985 . S
H624 N619 0.984 . S
H625 N619 0.985 . S
H626 N623 0.984 . S
H627 N623 0.985 . S
H628 N622 0.984 . S
H629 N622 0.984 . S
H630 N618 0.984 . S
H631 N618 0.985 . S
C632 C633 1.363 . S
C632 C638 1.379 . S
C632 N640 1.356 . S
C633 C632 1.363 . S
C633 C639 1.363 1_554 S
C634 C635 1.363 1_556 S
C634 C639 1.379 . S
C634 N641 1.356 . S
C635 C634 1.363 1_554 S
C635 C638 1.363 . S
N636 C638 1.356 . S
N636 H648 0.984 . S
N636 H649 0.985 . S
N637 C639 1.356 . S
N637 H642 0.984 . S
N637 H643 0.985 . S
C638 C632 1.379 . S
C638 C635 1.363 . S
C638 N636 1.356 . S
C639 C633 1.363 1_556 S
C639 C634 1.379 . S
C639 N637 1.356 . S
N640 C632 1.356 . S
N640 H646 0.984 . S
N640 H647 0.984 . S
N641 C634 1.356 . S
N641 H644 0.984 . S
N641 H645 0.985 . S
H642 N637 0.984 . S
H643 N637 0.985 . S
H644 N641 0.984 . S
H645 N641 0.985 . S
H646 N640 0.984 . S
H647 N640 0.984 . S
H648 N636 0.984 . S
H649 N636 0.985 . S
C650 C651 1.363 . S
C650 C656 1.379 . S
C650 N658 1.356 . S
C651 C650 1.363 . S
C651 C657 1.363 . S
C652 C653 1.363 . S
C652 C657 1.379 . S
C652 N659 1.356 . S
C653 C652 1.363 . S
C653 C656 1.363 . S
N654 C656 1.356 . S
N654 H666 0.984 . S
N654 H667 0.985 . S
N655 C657 1.356 . S
N655 H660 0.984 . S
N655 H661 0.985 . S
C656 C650 1.379 . S
C656 C653 1.363 . S
C656 N654 1.356 . S
C657 C651 1.363 . S
C657 C652 1.379 . S
C657 N655 1.356 . S
N658 C650 1.356 . S
N658 H664 0.984 . S
N658 H665 0.984 . S
N659 C652 1.356 . S
N659 H662 0.984 . S
N659 H663 0.985 . S
H660 N655 0.984 . S
H661 N655 0.985 . S
H662 N659 0.984 . S
H663 N659 0.985 . S
H664 N658 0.984 . S
H665 N658 0.984 . S
H666 N654 0.984 . S
H667 N654 0.985 . S
C668 C669 1.363 . S
C668 C674 1.379 . S
C668 N676 1.356 . S
C669 C668 1.363 . S
C669 C675 1.363 1_554 S
C670 C671 1.363 1_556 S
C670 C675 1.379 . S
C670 N677 1.356 . S
C671 C670 1.363 1_554 S
C671 C674 1.363 . S
N672 C674 1.356 . S
N672 H684 0.984 . S
N672 H685 0.985 . S
N673 C675 1.356 . S
N673 H678 0.984 . S
N673 H679 0.985 . S
C674 C668 1.379 . S
C674 C671 1.363 . S
C674 N672 1.356 . S
C675 C669 1.363 1_556 S
C675 C670 1.379 . S
C675 N673 1.356 . S
N676 C668 1.356 . S
N676 H682 0.984 . S
N676 H683 0.984 . S
N677 C670 1.356 . S
N677 H680 0.984 . S
N677 H681 0.985 . S
H678 N673 0.984 . S
H679 N673 0.985 . S
H680 N677 0.984 . S
H681 N677 0.985 . S
H682 N676 0.984 . S
H683 N676 0.984 . S
H684 N672 0.984 . S
H685 N672 0.985 . S
C686 C687 1.363 . S
C686 C692 1.379 . S
C686 N694 1.356 . S
C687 C686 1.363 . S
C687 C693 1.363 . S
C688 C689 1.363 . S
C688 C693 1.379 . S
C688 N695 1.356 . S
C689 C688 1.363 . S
C689 C692 1.363 . S
N690 C692 1.356 . S
N690 H702 0.984 . S
N690 H703 0.985 . S
N691 C693 1.356 . S
N691 H696 0.984 . S
N691 H697 0.985 . S
C692 C686 1.379 . S
C692 C689 1.363 . S
C692 N690 1.356 . S
C693 C687 1.363 . S
C693 C688 1.379 . S
C693 N691 1.356 . S
N694 C686 1.356 . S
N694 H700 0.984 . S
N694 H701 0.984 . S
N695 C688 1.356 . S
N695 H698 0.984 . S
N695 H699 0.985 . S
H696 N691 0.984 . S
H697 N691 0.985 . S
H698 N695 0.984 . S
H699 N695 0.985 . S
H700 N694 0.984 . S
H701 N694 0.984 . S
H702 N690 0.984 . S
H703 N690 0.985 . S
C704 C705 1.363 . S
C704 C710 1.379 . S
C704 N712 1.356 . S
C705 C704 1.363 . S
C705 C711 1.363 . S
C706 C707 1.363 . S
C706 C711 1.379 . S
C706 N713 1.356 . S
C707 C706 1.363 . S
C707 C710 1.363 . S
N708 C710 1.356 . S
N708 H720 0.984 . S
N708 H721 0.985 . S
N709 C711 1.356 . S
N709 H714 0.984 . S
N709 H715 0.985 . S
C710 C704 1.379 . S
C710 C707 1.363 . S
C710 N708 1.356 . S
C711 C705 1.363 . S
C711 C706 1.379 . S
C711 N709 1.356 . S
N712 C704 1.356 . S
N712 H718 0.984 . S
N712 H719 0.984 . S
N713 C706 1.356 . S
N713 H716 0.984 . S
N713 H717 0.985 . S
H714 N709 0.984 . S
H715 N709 0.985 . S
H716 N713 0.984 . S
H717 N713 0.985 . S
H718 N712 0.984 . S
H719 N712 0.984 . S
H720 N708 0.984 . S
H721 N708 0.985 . S
C722 C723 1.363 1_556 S
C722 C728 1.379 . S
C722 N730 1.356 . S
C723 C722 1.363 1_554 S
C723 C729 1.363 . S
C724 C725 1.363 . S
C724 C729 1.379 . S
C724 N731 1.356 . S
C725 C724 1.363 . S
C725 C728 1.363 1_554 S
N726 C728 1.356 . S
N726 H738 0.984 . S
N726 H739 0.985 . S
N727 C729 1.356 . S
N727 H732 0.984 . S
N727 H733 0.985 . S
C728 C722 1.379 . S
C728 C725 1.363 1_556 S
C728 N726 1.356 . S
C729 C723 1.363 . S
C729 C724 1.379 . S
C729 N727 1.356 . S
N730 C722 1.356 . S
N730 H736 0.984 . S
N730 H737 0.984 . S
N731 C724 1.356 . S
N731 H734 0.984 . S
N731 H735 0.985 . S
H732 N727 0.984 . S
H733 N727 0.985 . S
H734 N731 0.984 . S
H735 N731 0.985 . S
H736 N730 0.984 . S
H737 N730 0.984 . S
H738 N726 0.984 . S
H739 N726 0.985 . S
C740 C741 1.363 . S
C740 C746 1.379 . S
C740 N748 1.356 . S
C741 C740 1.363 . S
C741 C747 1.363 . S
C742 C743 1.363 . S
C742 C747 1.379 . S
C742 N749 1.356 . S
C743 C742 1.363 . S
C743 C746 1.363 . S
N744 C746 1.356 . S
N744 H756 0.984 . S
N744 H757 0.985 . S
N745 C747 1.356 . S
N745 H750 0.984 . S
N745 H751 0.985 . S
C746 C740 1.379 . S
C746 C743 1.363 . S
C746 N744 1.356 . S
C747 C741 1.363 . S
C747 C742 1.379 . S
C747 N745 1.356 . S
N748 C740 1.356 . S
N748 H754 0.984 . S
N748 H755 0.984 . S
N749 C742 1.356 . S
N749 H752 0.984 . S
N749 H753 0.985 . S
H750 N745 0.984 . S
H751 N745 0.985 . S
H752 N749 0.984 . S
H753 N749 0.985 . S
H754 N748 0.984 . S
H755 N748 0.984 . S
H756 N744 0.984 . S
H757 N744 0.985 . S
C758 C759 1.363 . S
C758 C764 1.379 . S
C758 N766 1.356 . S
C759 C758 1.363 . S
C759 C765 1.363 1_554 S
C760 C761 1.363 1_556 S
C760 C765 1.379 . S
C760 N767 1.356 . S
C761 C760 1.363 1_554 S
C761 C764 1.363 . S
N762 C764 1.356 . S
N762 H774 0.984 . S
N762 H775 0.985 . S
N763 C765 1.356 . S
N763 H768 0.984 . S
N763 H769 0.985 . S
C764 C758 1.379 . S
C764 C761 1.363 . S
C764 N762 1.356 . S
C765 C759 1.363 1_556 S
C765 C760 1.379 . S
C765 N763 1.356 . S
N766 C758 1.356 . S
N766 H772 0.984 . S
N766 H773 0.984 . S
N767 C760 1.356 . S
N767 H770 0.984 . S
N767 H771 0.985 . S
H768 N763 0.984 . S
H769 N763 0.985 . S
H770 N767 0.984 . S
H771 N767 0.985 . S
H772 N766 0.984 . S
H773 N766 0.984 . S
H774 N762 0.984 . S
H775 N762 0.985 . S
C345 C21 1.590 . S
C347 C201 1.502 . S
C363 C40 1.706 . S
C365 C117 1.508 . S
C383 C149 1.591 . S
C381 C54 1.578 . S
C399 C73 1.729 . S
C401 C169 1.721 . S
C419 C277 1.592 . S
C417 C74 1.581 . S
C437 C297 1.692 . S
C435 C10 1.699 . S
C455 C329 1.499 . S
C453 C37 1.587 . S
C473 C245 1.537 . S
C471 C65 1.735 . S
C489 C52 1.578 . S
C491 C137 1.585 . S
C507 C87 1.737 . S
C509 C181 1.736 . S
C525 C15 1.602 . S
C527 C213 1.488 . S
C545 C105 1.518 . S
C543 C32 1.687 . S
C561 C29 1.605 . S
C563 C341 1.492 . S
C581 C233 1.557 . S
C579 C59 1.730 . S
C599 C265 1.584 . S
C597 C84 1.576 . S
C615 C8 1.695 . S
C617 C309 1.694 . S
C635 C111 1.591 . S
C633 C7 1.785 . S
C653 C143 1.659 . S
C651 C30 1.637 . S
C669 C62 1.793 . S
C671 C175 1.791 . S
C687 C81 1.614 . S
C689 C207 1.524 . S
C707 C239 1.600 . S
C705 C76 1.793 . S
C723 C18 1.637 . S
C725 C271 1.659 . S
C741 C43 1.785 . S
C743 C303 1.775 . S
C759 C51 1.614 . S
C761 C335 1.524 . S
