# Generated by pormake.
# Topology pyr, (3,6)-cn, num edge types: 1
# Building blocks:
#     Node 0, Type 0, BuildingBlock: KAKCAD_clean_linker_0, # of connection points: 3
#     Node 1, Type 0, BuildingBlock: KAKCAD_clean_linker_0, # of connection points: 3
#     Node 2, Type 0, BuildingBlock: KAKCAD_clean_linker_0, # of connection points: 3
#     Node 3, Type 0, BuildingBlock: KAKCAD_clean_linker_0, # of connection points: 3
#     Node 4, Type 0, BuildingBlock: KAKCAD_clean_linker_0, # of connection points: 3
#     Node 5, Type 0, BuildingBlock: KAKCAD_clean_linker_0, # of connection points: 3
#     Node 6, Type 0, BuildingBlock: KAKCAD_clean_linker_0, # of connection points: 3
#     Node 7, Type 0, BuildingBlock: KAKCAD_clean_linker_0, # of connection points: 3
#     Node 8, Type 1, BuildingBlock: JUFBIX_clean_sbu_0, # of connection points: 6
#     Node 9, Type 1, BuildingBlock: JUFBIX_clean_sbu_0, # of connection points: 6
#     Node 10, Type 1, BuildingBlock: JUFBIX_clean_sbu_0, # of connection points: 6
#     Node 11, Type 1, BuildingBlock: JUFBIX_clean_sbu_0, # of connection points: 6
#     Edge 12, Type (0, 1), BuildingBlock: OJICUG_clean_linker_0, # of connection points: 2
#     Edge 13, Type (0, 1), BuildingBlock: OJICUG_clean_linker_0, # of connection points: 2
#     Edge 14, Type (0, 1), BuildingBlock: OJICUG_clean_linker_0, # of connection points: 2
#     Edge 15, Type (0, 1), BuildingBlock: OJICUG_clean_linker_0, # of connection points: 2
#     Edge 16, Type (0, 1), BuildingBlock: OJICUG_clean_linker_0, # of connection points: 2
#     Edge 17, Type (0, 1), BuildingBlock: OJICUG_clean_linker_0, # of connection points: 2
#     Edge 18, Type (0, 1), BuildingBlock: OJICUG_clean_linker_0, # of connection points: 2
#     Edge 19, Type (0, 1), BuildingBlock: OJICUG_clean_linker_0, # of connection points: 2
#     Edge 20, Type (0, 1), BuildingBlock: OJICUG_clean_linker_0, # of connection points: 2
#     Edge 21, Type (0, 1), BuildingBlock: OJICUG_clean_linker_0, # of connection points: 2
#     Edge 22, Type (0, 1), BuildingBlock: OJICUG_clean_linker_0, # of connection points: 2
#     Edge 23, Type (0, 1), BuildingBlock: OJICUG_clean_linker_0, # of connection points: 2
#     Edge 24, Type (0, 1), BuildingBlock: OJICUG_clean_linker_0, # of connection points: 2
#     Edge 25, Type (0, 1), BuildingBlock: OJICUG_clean_linker_0, # of connection points: 2
#     Edge 26, Type (0, 1), BuildingBlock: OJICUG_clean_linker_0, # of connection points: 2
#     Edge 27, Type (0, 1), BuildingBlock: OJICUG_clean_linker_0, # of connection points: 2
#     Edge 28, Type (0, 1), BuildingBlock: OJICUG_clean_linker_0, # of connection points: 2
#     Edge 29, Type (0, 1), BuildingBlock: OJICUG_clean_linker_0, # of connection points: 2
#     Edge 30, Type (0, 1), BuildingBlock: OJICUG_clean_linker_0, # of connection points: 2
#     Edge 31, Type (0, 1), BuildingBlock: OJICUG_clean_linker_0, # of connection points: 2
#     Edge 32, Type (0, 1), BuildingBlock: OJICUG_clean_linker_0, # of connection points: 2
#     Edge 33, Type (0, 1), BuildingBlock: OJICUG_clean_linker_0, # of connection points: 2
#     Edge 34, Type (0, 1), BuildingBlock: OJICUG_clean_linker_0, # of connection points: 2
#     Edge 35, Type (0, 1), BuildingBlock: OJICUG_clean_linker_0, # of connection points: 2
# Relax obj value: 0.067
# Max RMSD: 0.101
# Mean RMSD: 0.036
data_MOF--net-pry--node1-JUFBIX_clean_sbu_0--node2-KAKCAD_clean_linker_0--edge1-OJICUG_clean_linker_0
_symmetry_space_group_name_H-M    P1
_symmetry_Int_Tables_number       1
_symmetry_cell_setting            triclinic
loop_
_symmetry_equiv_pos_as_xyz
'x, y, z'
_cell_length_a     35.868001
_cell_length_b     34.168724
_cell_length_c     35.754361
_cell_angle_alpha  82.066763
_cell_angle_beta   89.527199
_cell_angle_gamma 91.322339
loop_
_atom_site_label
_atom_site_type_symbol
_atom_site_fract_x
_atom_site_fract_y
_atom_site_fract_z
_atom_type_partial_charge
C0 C 0.11036 0.10532 0.28883 0.0
C1 C 0.1311 0.08667 0.31921 0.0
C2 C 0.12778 0.12167 0.25494 0.0
C3 C 0.1668 0.12104 0.25032 0.0
C4 C 0.18768 0.10207 0.28046 0.0
C5 C 0.17008 0.08497 0.31429 0.0
C6 C 0.18521 0.14123 0.21463 0.0
C7 C 0.16989 0.17581 0.1954 0.0
C8 C 0.18507 0.19464 0.16103 0.0
C9 C 0.21754 0.17952 0.14662 0.0
C10 C 0.23417 0.14528 0.1654 0.0
C11 C 0.21748 0.12625 0.1993 0.0
C12 C 0.26858 0.12929 0.14921 0.0
C13 C 0.27394 0.13182 0.10985 0.0
C14 C 0.29667 0.11182 0.1728 0.0
C15 C 0.32901 0.0975 0.15754 0.0
C16 C 0.33452 0.10043 0.11815 0.0
C17 C 0.16623 0.22967 0.14022 0.0
C18 C 0.12702 0.23056 0.13895 0.0
C19 C 0.1868 0.2626 0.1221 0.0
C20 C 0.16859 0.29588 0.10412 0.0
C21 C 0.12938 0.29709 0.10393 0.0
C22 C 0.1089 0.26378 0.1212 0.0
C23 C 0.3064 0.11791 0.09461 0.0
H24 H 0.08047 0.10811 0.2912 0.0
H25 H 0.11036 0.135 0.23232 0.0
H26 H 0.21775 0.10103 0.2783 0.0
H27 H 0.18722 0.07037 0.33651 0.0
H28 H 0.14611 0.18869 0.2075 0.0
H29 H 0.22898 0.09909 0.21319 0.0
H30 H 0.22973 0.19443 0.12055 0.0
H31 H 0.2529 0.14434 0.09054 0.0
H32 H 0.29398 0.10961 0.20321 0.0
H33 H 0.34954 0.08377 0.1768 0.0
H34 H 0.11018 0.20544 0.1517 0.0
H35 H 0.21698 0.26316 0.1227 0.0
H36 H 0.30951 0.12136 0.06419 0.0
H37 H 0.0787 0.26333 0.12097 0.0
H38 H 0.18523 0.32115 0.09136 0.0
C39 C 0.4337 0.93624 0.73932 0.0
C40 C 0.46973 0.94507 0.75135 0.0
C41 C 0.42845 0.92152 0.70536 0.0
C42 C 0.45905 0.91504 0.68249 0.0
C43 C 0.49528 0.92233 0.6949 0.0
C44 C 0.5006 0.93738 0.72912 0.0
C45 C 0.45215 0.90125 0.64564 0.0
C46 C 0.42493 0.91992 0.62199 0.0
C47 C 0.412 0.90333 0.59066 0.0
C48 C 0.42821 0.86881 0.58184 0.0
C49 C 0.45527 0.84941 0.60534 0.0
C50 C 0.4678 0.86629 0.63686 0.0
C51 C 0.46588 0.8089 0.59987 0.0
C52 C 0.43806 0.78153 0.59227 0.0
C53 C 0.50307 0.79693 0.60275 0.0
C54 C 0.51227 0.75847 0.5973 0.0
C55 C 0.48434 0.73132 0.58928 0.0
C56 C 0.37687 0.91756 0.57248 0.0
C57 C 0.34806 0.8902 0.56752 0.0
C58 C 0.36951 0.95814 0.56593 0.0
C59 C 0.33335 0.97088 0.55794 0.0
C60 C 0.30394 0.94326 0.55631 0.0
C61 C 0.31199 0.90292 0.55949 0.0
C62 C 0.44718 0.74333 0.58691 0.0
H63 H 0.40937 0.9405 0.75631 0.0
H64 H 0.40025 0.91512 0.69694 0.0
H65 H 0.51929 0.91733 0.67777 0.0
H66 H 0.52871 0.94375 0.73774 0.0
H67 H 0.41167 0.94584 0.62988 0.0
H68 H 0.48727 0.85061 0.6562 0.0
H69 H 0.41816 0.85574 0.55774 0.0
H70 H 0.40902 0.78956 0.59067 0.0
H71 H 0.52502 0.8174 0.60872 0.0
H72 H 0.54114 0.74992 0.59956 0.0
H73 H 0.35259 0.8587 0.57285 0.0
H74 H 0.39129 0.97991 0.56904 0.0
H75 H 0.42506 0.72336 0.5803 0.0
H76 H 0.28993 0.88086 0.55872 0.0
H77 H 0.32806 1.00224 0.55488 0.0
C78 C 0.81392 0.44211 0.90499 0.0
C79 C 0.83712 0.41547 0.92662 0.0
C80 C 0.78113 0.4287 0.88938 0.0
C81 C 0.77115 0.38815 0.89438 0.0
C82 C 0.79516 0.36151 0.91535 0.0
C83 C 0.82745 0.37508 0.93166 0.0
C84 C 0.73558 0.37373 0.87866 0.0
C85 C 0.72097 0.39273 0.8445 0.0
C86 C 0.68689 0.37983 0.83073 0.0
C87 C 0.66809 0.34672 0.85034 0.0
C88 C 0.68229 0.32679 0.88395 0.0
C89 C 0.71564 0.34097 0.89822 0.0
C90 C 0.66262 0.29067 0.9035 0.0
C91 C 0.62339 0.2879 0.90477 0.0
C92 C 0.68294 0.25801 0.91974 0.0
C93 C 0.66453 0.22336 0.93637 0.0
C94 C 0.62538 0.22041 0.9369 0.0
C95 C 0.67017 0.40058 0.79591 0.0
C96 C 0.63284 0.41193 0.79645 0.0
C97 C 0.69023 0.40676 0.76164 0.0
C98 C 0.67267 0.42244 0.72818 0.0
C99 C 0.63482 0.43265 0.72845 0.0
C100 C 0.61547 0.42803 0.76324 0.0
C101 C 0.605 0.2531 0.92108 0.0
H102 H 0.82072 0.47348 0.90093 0.0
H103 H 0.76328 0.45034 0.87412 0.0
H104 H 0.78922 0.33 0.91913 0.0
H105 H 0.84517 0.35392 0.94786 0.0
H106 H 0.73577 0.41771 0.82865 0.0
H107 H 0.72561 0.32681 0.92512 0.0
H108 H 0.64267 0.33589 0.83868 0.0
H109 H 0.6068 0.31267 0.8932 0.0
H110 H 0.71314 0.25879 0.91875 0.0
H111 H 0.68099 0.19849 0.94799 0.0
H112 H 0.6169 0.40791 0.82264 0.0
H113 H 0.719 0.39799 0.76048 0.0
H114 H 0.57479 0.25187 0.92159 0.0
H115 H 0.58667 0.43653 0.76488 0.0
H116 H 0.68844 0.42522 0.70196 0.0
C117 C 0.9961 0.60452 0.30337 0.0
C118 C 0.99636 0.56388 0.30084 0.0
C119 C 0.99265 0.61767 0.33854 0.0
C120 C 0.98965 0.59037 0.37175 0.0
C121 C 0.99358 0.54996 0.3693 0.0
C122 C 0.99664 0.53682 0.33416 0.0
C123 C 0.97526 0.6032 0.40707 0.0
C124 C 0.94462 0.58242 0.42555 0.0
C125 C 0.92388 0.59839 0.45299 0.0
C126 C 0.93641 0.63416 0.46436 0.0
C127 C 0.96786 0.65488 0.44719 0.0
C128 C 0.98715 0.63916 0.41848 0.0
C129 C 0.97769 0.69505 0.45615 0.0
C130 C 0.94935 0.72188 0.46036 0.0
C131 C 1.01507 0.70736 0.45952 0.0
C132 C 0.02382 0.74575 0.46684 0.0
C133 C 0.99535 0.7726 0.47065 0.0
C134 C 0.88637 0.58114 0.4652 0.0
C135 C 0.86351 0.56465 0.43922 0.0
C136 C 0.87146 0.58458 0.50115 0.0
C137 C 0.83406 0.57436 0.5098 0.0
C138 C 0.8112 0.55951 0.48307 0.0
C139 C 0.82657 0.55356 0.44824 0.0
C140 C 0.95805 0.76 0.4677 0.0
H141 H 0.99581 0.62599 0.27808 0.0
H142 H 0.98932 0.64896 0.33936 0.0
H143 H 0.99196 0.52828 0.39445 0.0
H144 H 0.99753 0.50534 0.33295 0.0
H145 H 0.93514 0.55499 0.41642 0.0
H146 H 1.01014 0.65586 0.40365 0.0
H147 H 0.92056 0.64716 0.48519 0.0
H148 H 0.92029 0.71373 0.45728 0.0
H149 H 0.03751 0.6873 0.45654 0.0
H150 H 0.05284 0.75464 0.46878 0.0
H151 H 0.87322 0.56239 0.41088 0.0
H152 H 0.88825 0.5964 0.52219 0.0
H153 H 0.93539 0.77968 0.47107 0.0
H154 H 0.80927 0.54282 0.42693 0.0
H155 H 0.82266 0.57914 0.53691 0.0
C156 C 0.88542 0.88248 0.72854 0.0
C157 C 0.90295 0.92008 0.72404 0.0
C158 C 0.86902 0.86657 0.76319 0.0
C159 C 0.86896 0.88825 0.79386 0.0
C160 C 0.88539 0.92637 0.78911 0.0
C161 C 0.90261 0.94195 0.75466 0.0
C162 C 0.8542 0.86975 0.83134 0.0
C163 C 0.87021 0.835 0.84912 0.0
C164 C 0.85679 0.81615 0.8843 0.0
C165 C 0.82608 0.83216 0.90119 0.0
C166 C 0.80944 0.86692 0.88379 0.0
C167 C 0.82423 0.88601 0.84914 0.0
C168 C 0.776 0.88246 0.90148 0.0
C169 C 0.74499 0.85741 0.91244 0.0
C170 C 0.77481 0.92214 0.90778 0.0
C171 C 0.74353 0.93628 0.92513 0.0
C172 C 0.71237 0.91128 0.93576 0.0
C173 C 0.8753 0.78004 0.90327 0.0
C174 C 0.88737 0.75081 0.88213 0.0
C175 C 0.88236 0.77513 0.9423 0.0
C176 C 0.90176 0.74234 0.9595 0.0
C177 C 0.91459 0.7136 0.93812 0.0
C178 C 0.90668 0.7181 0.89929 0.0
C179 C 0.71342 0.87175 0.92899 0.0
H180 H 0.88544 0.86485 0.70558 0.0
H181 H 0.85665 0.83705 0.76619 0.0
H182 H 0.88595 0.94354 0.8124 0.0
H183 H 0.91579 0.97106 0.75196 0.0
H184 H 0.89391 0.8232 0.83577 0.0
H185 H 0.81157 0.91263 0.83536 0.0
H186 H 0.81496 0.8175 0.9279 0.0
H187 H 0.74499 0.82675 0.90778 0.0
H188 H 0.79832 0.94209 0.89976 0.0
H189 H 0.74346 0.96694 0.92977 0.0
H190 H 0.88182 0.75315 0.85219 0.0
H191 H 0.87383 0.79723 0.9594 0.0
H192 H 0.68994 0.85174 0.93697 0.0
H193 H 0.91527 0.69617 0.88202 0.0
H194 H 0.90757 0.7401 0.98938 0.0
C195 C 0.56387 0.04107 0.3409 0.0
C196 C 0.55749 0.06564 0.30687 0.0
C197 C 0.56812 0.0572 0.37447 0.0
C198 C 0.56667 0.09831 0.37456 0.0
C199 C 0.55778 0.12252 0.34091 0.0
C200 C 0.55309 0.1063 0.30742 0.0
C201 C 0.57943 0.11624 0.40797 0.0
C202 C 0.61142 0.10173 0.42709 0.0
C203 C 0.62776 0.12152 0.45485 0.0
C204 C 0.6111 0.15535 0.46468 0.0
C205 C 0.57908 0.17028 0.44608 0.0
C206 C 0.56328 0.15063 0.41778 0.0
C207 C 0.5652 0.20885 0.45356 0.0
C208 C 0.55919 0.21602 0.49083 0.0
C209 C 0.56184 0.23996 0.42379 0.0
C210 C 0.55411 0.27803 0.43133 0.0
C211 C 0.5491 0.28541 0.4687 0.0
C212 C 0.66541 0.11056 0.46842 0.0
C213 C 0.67383 0.07085 0.48025 0.0
C214 C 0.69433 0.13931 0.46452 0.0
C215 C 0.73128 0.1282 0.46975 0.0
C216 C 0.73985 0.08826 0.47944 0.0
C217 C 0.71083 0.05981 0.48602 0.0
C218 C 0.55095 0.25391 0.49831 0.0
H219 H 0.56684 0.00953 0.34129 0.0
H220 H 0.5742 0.03764 0.40008 0.0
H221 H 0.55688 0.15432 0.33978 0.0
H222 H 0.54843 0.12596 0.2815 0.0
H223 H 0.62561 0.07688 0.41812 0.0
H224 H 0.53897 0.16262 0.40293 0.0
H225 H 0.62434 0.17138 0.48534 0.0
H226 H 0.56175 0.19247 0.51421 0.0
H227 H 0.5668 0.23521 0.39485 0.0
H228 H 0.55253 0.30179 0.40801 0.0
H229 H 0.65194 0.04822 0.48341 0.0
H230 H 0.68864 0.17006 0.455 0.0
H231 H 0.54741 0.25888 0.5274 0.0
H232 H 0.7169 0.02879 0.49331 0.0
H233 H 0.7533 0.1506 0.46465 0.0
C234 C 0.21577 0.59167 0.16151 0.0
C235 C 0.21234 0.59826 0.12192 0.0
C236 C 0.24764 0.60479 0.17903 0.0
C237 C 0.27712 0.62457 0.15743 0.0
C238 C 0.27373 0.63082 0.11786 0.0
C239 C 0.24177 0.6182 0.10043 0.0
C240 C 0.31144 0.63856 0.17562 0.0
C241 C 0.32654 0.61647 0.20799 0.0
C242 C 0.36025 0.62859 0.22311 0.0
C243 C 0.37906 0.66277 0.20557 0.0
C244 C 0.3639 0.68629 0.17428 0.0
C245 C 0.32981 0.67403 0.1599 0.0
C246 C 0.38364 0.72354 0.15686 0.0
C247 C 0.40539 0.74611 0.17903 0.0
C248 C 0.38125 0.73681 0.11791 0.0
C249 C 0.39965 0.7717 0.10178 0.0
C250 C 0.42194 0.79389 0.12386 0.0
C251 C 0.37602 0.60667 0.25788 0.0
C252 C 0.35522 0.60091 0.2917 0.0
C253 C 0.41344 0.59547 0.2584 0.0
C254 C 0.43022 0.58035 0.2923 0.0
C255 C 0.41018 0.57666 0.32669 0.0
C256 C 0.37216 0.58625 0.32581 0.0
C257 C 0.42469 0.78028 0.16272 0.0
H258 H 0.19402 0.57595 0.1791 0.0
H259 H 0.24895 0.59969 0.20955 0.0
H260 H 0.29601 0.64523 0.10007 0.0
H261 H 0.24014 0.62444 0.06997 0.0
H262 H 0.31286 0.58927 0.22086 0.0
H263 H 0.31708 0.69248 0.13666 0.0
H264 H 0.40556 0.67113 0.21685 0.0
H265 H 0.4075 0.73769 0.20922 0.0
H266 H 0.3654 0.72017 0.09956 0.0
H267 H 0.39599 0.78126 0.07194 0.0
H268 H 0.32641 0.6097 0.29207 0.0
H269 H 0.42999 0.59934 0.23261 0.0
H270 H 0.44201 0.79573 0.18083 0.0
H271 H 0.35582 0.58415 0.35164 0.0
H272 H 0.4592 0.57224 0.29157 0.0
C273 C 0.03537 0.23514 0.61852 0.0
C274 C 0.02906 0.22841 0.58117 0.0
C275 C 0.0471 0.27241 0.62622 0.0
C276 C 0.05285 0.30368 0.59668 0.0
C277 C 0.04393 0.29767 0.55965 0.0
C278 C 0.03204 0.26039 0.55196 0.0
C279 C 0.07305 0.34024 0.60384 0.0
C280 C 0.10417 0.35377 0.58106 0.0
C281 C 0.12739 0.38439 0.59042 0.0
C282 C 0.11879 0.40225 0.62228 0.0
C283 C 0.08853 0.38854 0.64596 0.0
C284 C 0.0652 0.35803 0.63621 0.0
C285 C 0.08477 0.4029 0.68304 0.0
C286 C 0.11646 0.40515 0.70555 0.0
C287 C 0.05038 0.41493 0.69599 0.0
C288 C 0.04814 0.43043 0.73024 0.0
C289 C 0.08025 0.43391 0.75207 0.0
C290 C 0.16435 0.39284 0.57205 0.0
C291 C 0.18902 0.36174 0.5705 0.0
C292 C 0.1776 0.432 0.56268 0.0
C293 C 0.21548 0.43999 0.55503 0.0
C294 C 0.24067 0.40891 0.55711 0.0
C295 C 0.22692 0.36973 0.5633 0.0
C296 C 0.11424 0.42044 0.7396 0.0
H297 H 0.03282 0.2111 0.64163 0.0
H298 H 0.054 0.27598 0.65501 0.0
H299 H 0.04785 0.32136 0.53639 0.0
H300 H 0.02747 0.25606 0.52289 0.0
H301 H 0.1118 0.33881 0.55737 0.0
H302 H 0.04229 0.3467 0.65485 0.0
H303 H 0.1374 0.42507 0.63029 0.0
H304 H 0.14316 0.39508 0.69676 0.0
H305 H 0.02554 0.41338 0.67918 0.0
H306 H 0.02156 0.44066 0.7391 0.0
H307 H 0.17961 0.33128 0.57796 0.0
H308 H 0.15906 0.45644 0.56368 0.0
H309 H 0.13925 0.42171 0.7562 0.0
H310 H 0.24584 0.3453 0.5648 0.0
H311 H 0.22544 0.47046 0.55049 0.0
Co312 Co 0.99129 0.00774 0.50747 0.0
C313 C 1.01731 0.93214 0.50415 0.0
Co314 Co 0.04437 0.99541 0.53661 0.0
C315 C 0.91528 0.03042 0.49537 0.0
C316 C 0.9399 0.01148 0.44632 0.0
N317 N 0.94707 0.01661 0.48233 0.0
N318 N 0.88872 0.03443 0.4688 0.0
C319 C 0.90404 0.02268 0.43784 0.0
H320 H 0.91193 0.03823 0.52352 0.0
H321 H 0.95955 1.00048 0.4274 0.0
C322 C 1.01797 0.07094 0.54001 0.0
N323 N 0.08885 0.9871 0.56156 0.0
C324 C 0.12161 0.97683 0.54742 0.0
C325 C 0.0965 0.99436 0.59685 0.0
N326 N 0.14957 0.97793 0.57228 0.0
C327 C 0.1338 0.98873 0.60353 0.0
C328 C 0.0537 0.02711 0.46075 0.0
O329 O 0.99124 0.05981 0.52059 0.0
O330 O 0.04406 0.04726 0.54963 0.0
O331 O 0.07119 0.01486 0.4907 0.0
O332 O 1.01829 0.02674 0.4619 0.0
O333 O 0.04429 0.94301 0.52351 0.0
H334 H 0.0765 0.00439 0.61602 0.0
H335 H 0.12519 0.97039 0.51883 0.0
O336 O 0.99148 0.95615 0.49446 0.0
O337 O 0.96444 0.98834 0.55332 0.0
O338 O 1.01737 0.97648 0.58228 0.0
C339 C 0.98192 0.97619 0.58335 0.0
H340 H 0.89019 0.02199 0.41114 0.0
H341 H 0.14822 0.99273 0.62925 0.0
Co342 Co 0.51008 0.00386 1.00217 0.0
C343 C 0.49722 0.93922 0.05699 0.0
Co344 Co 0.53973 0.00807 0.05538 0.0
C345 C 0.49839 0.99682 0.92312 0.0
C346 C 0.44715 0.99853 0.95391 0.0
N347 N 0.48454 1.00019 0.95779 0.0
N348 N 0.47111 0.99339 0.89796 0.0
C349 C 0.43885 0.99461 0.9172 0.0
H350 H 0.52786 0.99652 0.91643 0.0
H351 H 0.42703 0.99897 0.97651 0.0
C352 C 0.55268 0.07291 1.00085 0.0
N353 N 0.5647 0.01167 0.09993 0.0
C354 C 0.54933 0.01361 0.13419 0.0
C355 C 0.60176 0.01566 0.10491 0.0
N356 N 0.5752 0.01903 0.16022 0.0
C357 C 0.60831 0.02005 0.14201 0.0
C358 C 0.5813 0.97261 1.00299 0.0
O359 O 0.53032 0.05455 0.98147 0.0
O360 O 0.56054 0.05755 0.03417 0.0
O361 O 0.58168 0.98228 0.03612 0.0
O362 O 0.55226 0.97911 0.98319 0.0
O363 O 0.51849 0.95845 0.07655 0.0
H364 H 0.62262 0.01673 0.08275 0.0
H365 H 0.51962 0.01179 0.13989 0.0
O366 O 0.49027 0.95341 0.02308 0.0
O367 O 0.46797 0.02858 0.02188 0.0
O368 O 0.49779 0.03402 0.07394 0.0
C369 C 0.46842 0.03935 0.05449 0.0
H370 H 0.41125 0.99123 0.90586 0.0
H371 H 0.63515 0.02555 0.15417 0.0
Co372 Co 0.54789 0.51973 0.51524 0.0
C373 C 0.4863 0.5314 0.46847 0.0
Co374 Co 0.49486 0.49843 0.5433 0.0
C375 C 0.627 0.52753 0.49866 0.0
C376 C 0.59568 0.57481 0.46959 0.0
N377 N 0.59184 0.53981 0.49209 0.0
N378 N 0.65246 0.55398 0.48181 0.0
C379 C 0.63293 0.58369 0.4634 0.0
H380 H 0.63389 0.50115 0.51749 0.0
H381 H 0.57291 0.59381 0.46018 0.0
C382 C 0.55666 0.48637 0.58979 0.0
N383 N 0.4507 0.47945 0.56681 0.0
C384 C 0.42011 0.46561 0.55069 0.0
C385 C 0.44195 0.47674 0.60387 0.0
N386 N 0.39277 0.45431 0.57621 0.0
C387 C 0.40639 0.46106 0.60976 0.0
C388 C 0.53069 0.44224 0.50783 0.0
O389 O 0.57407 0.50336 0.56074 0.0
O390 O 0.52159 0.481 0.58816 0.0
O391 O 0.50208 0.44913 0.52684 0.0
O392 O 0.55537 0.46949 0.49925 0.0
O393 O 0.46864 0.51585 0.49794 0.0
H394 H 0.46005 0.486 0.62522 0.0
H395 H 0.4179 0.46364 0.52083 0.0
O396 O 0.52149 0.53596 0.46991 0.0
O397 O 0.54 0.56958 0.53141 0.0
O398 O 0.48776 0.54794 0.55993 0.0
C399 C 0.51172 0.57569 0.55117 0.0
H400 H 0.64485 0.61052 0.44775 0.0
H401 H 0.39131 0.45606 0.63641 0.0
Co402 Co 0.04024 0.50957 0.99529 0.0
C403 C 0.96865 0.47494 0.99513 0.0
Co404 Co 1.00972 0.50595 0.04941 0.0
C405 C 0.06019 0.48902 0.9226 0.0
C406 C 0.08435 0.54478 0.93155 0.0
N407 N 0.06348 0.51399 0.94856 0.0
N408 N 0.07784 0.50313 0.88985 0.0
C409 C 0.0933 0.53816 0.8955 0.0
H410 H 0.0446 0.46127 0.9275 0.0
H411 H 0.09146 0.57099 0.94409 0.0
C412 C 0.08137 0.54057 0.04956 0.0
N413 N 0.98674 0.50137 0.09634 0.0
C414 C 0.99169 0.52529 0.12301 0.0
C415 C 0.9673 0.46976 0.11378 0.0
N416 N 0.977 0.50949 0.15681 0.0
C417 C 0.96126 0.47464 0.15087 0.0
C418 C 0.05432 0.44065 0.04246 0.0
O419 O 0.08261 0.53365 1.01557 0.0
O420 O 0.05181 0.53153 0.06889 0.0
O421 O 0.03213 0.45607 0.06385 0.0
O422 O 0.06165 0.45888 1.00964 0.0
O423 O 0.96795 0.48033 0.02959 0.0
H424 H 0.96014 0.44368 0.10106 0.0
H425 H 1.00728 0.553 0.11796 0.0
O426 O 0.99762 0.4855 0.97529 0.0
O427 O 1.01878 0.56009 0.98129 0.0
O428 O 0.9873 0.55597 0.03456 0.0
C429 C 0.99552 0.57481 1.00218 0.0
H430 H 0.1087 0.55834 0.87463 0.0
H431 H 0.94837 0.45289 0.1722 0.0
C432 C 0.0749 0.05496 0.35605 0.0
C433 C 0.11197 0.06978 0.35573 0.0
H434 H 0.02758 0.0306 0.38901 0.0
C435 C 0.12996 0.06923 0.39075 0.0
H436 H 0.06014 0.05355 0.32998 0.0
C437 C 0.11139 0.05479 0.42478 0.0
C438 C 0.07407 0.04124 0.42483 0.0
H439 H 0.15818 0.0808 0.39214 0.0
H440 H 0.12599 0.05512 0.45114 0.0
C441 C 0.05614 0.0414 0.39004 0.0
C442 C 0.44894 0.98984 0.79678 0.0
C443 C 0.47423 0.96185 0.78725 0.0
H444 H 0.42836 0.02188 0.83967 0.0
C445 C 0.50153 0.94799 0.8135 0.0
H446 H 0.42822 1.00196 0.77683 0.0
C447 C 0.50189 0.96001 0.8494 0.0
C448 C 0.4748 0.98579 0.85961 0.0
H449 H 0.52132 0.92634 0.80706 0.0
H450 H 0.52194 0.94745 0.86985 0.0
C451 C 0.44905 1.00141 0.83263 0.0
C452 C 0.63324 0.47117 0.66282 0.0
C453 C 0.61504 0.44668 0.69267 0.0
H454 H 0.6292 0.50287 0.60696 0.0
C455 C 0.57756 0.43529 0.68802 0.0
H456 H 0.66191 0.48094 0.66546 0.0
C457 C 0.55869 0.44837 0.65478 0.0
C458 C 0.57687 0.4728 0.62503 0.0
H459 H 0.56278 0.41572 0.70989 0.0
H460 H 0.52988 0.43894 0.65229 0.0
C461 C 0.61441 0.48395 0.62933 0.0
C462 C 1.01428 0.5657 0.2326 0.0
C463 C 0.99223 0.54965 0.26379 0.0
H464 H 0.02746 0.56514 0.17445 0.0
C465 C 0.96462 0.52098 0.25912 0.0
H466 H 0.03576 0.58786 0.2355 0.0
C467 C 0.95918 0.50847 0.224 0.0
C468 C 0.98154 0.52396 0.19268 0.0
H469 H 0.94663 0.50876 0.28255 0.0
H470 H 0.9372 0.48684 0.22147 0.0
C471 C 1.00921 0.55281 0.19749 0.0
C472 C 0.40391 0.08699 0.11961 0.0
C473 C 0.36917 0.08525 0.10163 0.0
H474 H 0.46219 0.07408 0.11907 0.0
C475 C 0.36787 0.06878 0.06759 0.0
H476 H 0.40647 0.09998 0.14545 0.0
C477 C 0.4001 0.05468 0.05206 0.0
C478 C 0.43462 0.05611 0.07025 0.0
H479 H 0.34176 0.06603 0.0531 0.0
H480 H 0.39775 0.04196 0.02603 0.0
C481 C 0.43609 0.07244 0.10426 0.0
C482 C 0.25352 0.98236 0.58085 0.0
C483 C 0.2646 0.95561 0.55661 0.0
H484 H 0.20831 0.01057 0.60465 0.0
C485 C 0.23729 0.93783 0.53608 0.0
H486 H 0.27378 0.99615 0.5975 0.0
C487 C 0.19958 0.94568 0.54066 0.0
C488 C 0.18846 0.97131 0.566 0.0
H489 H 0.24502 0.91721 0.51707 0.0
H490 H 0.1791 0.93071 0.52528 0.0
C491 C 0.2159 0.9901 0.58549 0.0
C492 C 0.8985 0.45238 0.92183 0.0
C493 C 0.87121 0.42983 0.94413 0.0
H494 H 0.95111 0.48355 0.92043 0.0
C495 C 0.8765 0.42137 0.98329 0.0
H496 H 0.89509 0.45911 0.89156 0.0
C497 C 0.90817 0.43595 0.99997 0.0
C498 C 0.93557 0.45845 0.97766 0.0
H499 H 0.85574 0.40412 1.00105 0.0
H500 H 0.91128 0.42951 0.03029 0.0
C501 C 0.93058 0.46615 0.93836 0.0
C502 C 0.75025 0.58856 0.49543 0.0
C503 C 0.77043 0.55547 0.48878 0.0
H504 H 0.6964 0.61396 0.49787 0.0
C505 C 0.75108 0.52075 0.48258 0.0
H506 H 0.76458 0.6158 0.4998 0.0
C507 C 0.71207 0.5196 0.48195 0.0
C508 C 0.6921 0.55349 0.48643 0.0
H509 H 0.76619 0.49498 0.47717 0.0
H510 H 0.69754 0.49298 0.4762 0.0
C511 C 0.71142 0.58769 0.4939 0.0
C512 C 0.1213 0.3549 0.05245 0.0
C513 C 0.1097 0.33332 0.08717 0.0
H514 H 0.11263 0.40531 1.0107 0.0
C515 C 0.07913 0.34683 0.10624 0.0
H516 H 0.14455 0.34515 0.03687 0.0
C517 C 0.06093 0.38118 0.09134 0.0
C518 C 0.07259 0.40293 0.05677 0.0
H519 H 0.0697 0.33129 0.13324 0.0
H520 H 0.03784 0.39087 0.1072 0.0
C521 C 0.10282 0.3892 0.03731 0.0
C522 C 0.61725 0.16318 0.98849 0.0
C523 C 0.60595 0.18317 0.95362 0.0
H524 H 0.60911 0.11302 0.03084 0.0
C525 C 0.57641 0.16702 0.9346 0.0
H526 H 0.63968 0.1751 1.00396 0.0
C527 C 0.55891 0.13127 0.9499 0.0
C528 C 0.57036 0.1112 0.98473 0.0
H529 H 0.56731 0.18163 0.9075 0.0
H530 H 0.53653 0.11933 0.93439 0.0
C531 C 0.59956 0.12771 1.00395 0.0
C532 C 0.98324 0.84498 0.45849 0.0
C533 C 1.00393 0.81388 0.47713 0.0
H534 H 0.97139 0.9064 0.45229 0.0
C535 C 0.03135 0.82248 0.50292 0.0
H536 H 0.96257 0.83958 0.43776 0.0
C537 C 0.03676 0.8612 0.51103 0.0
C538 C 1.01473 0.89184 0.49357 0.0
H539 H 0.04769 0.79913 0.51781 0.0
H540 H 0.05728 0.86687 0.53181 0.0
C541 C 0.98844 0.88338 0.46671 0.0
C542 C 0.4701 0.65852 0.5965 0.0
C543 C 0.49352 0.69082 0.58232 0.0
H544 H 0.45743 0.59689 0.59781 0.0
C545 C 0.52427 0.68448 0.5595 0.0
H546 H 0.44655 0.66233 0.61471 0.0
C547 C 0.53065 0.64686 0.54999 0.0
C548 C 0.50638 0.6149 0.56307 0.0
H549 H 0.54262 0.70883 0.54788 0.0
H550 H 0.55409 0.64308 0.53163 0.0
C551 C 0.47639 0.621 0.58691 0.0
C552 C 0.96004 0.94897 0.68817 0.0
C553 C 0.92268 0.93563 0.68798 0.0
H554 H 1.00817 0.97149 0.65539 0.0
C555 C 0.90479 0.93607 0.65306 0.0
H556 H 0.97464 0.94869 0.71461 0.0
C557 C 0.92379 0.94975 0.61912 0.0
C558 C 0.9614 0.96238 0.61928 0.0
H559 H 0.876 0.92604 0.65205 0.0
H560 H 0.90918 0.94984 0.59271 0.0
C561 C 0.97929 0.96177 0.65423 0.0
C562 C 0.53313 0.06044 0.24218 0.0
C563 C 0.55944 0.04986 0.2704 0.0
H564 H 0.51745 0.05857 0.18481 0.0
C565 C 0.58971 0.02679 0.2625 0.0
H566 H 0.50955 0.07818 0.24759 0.0
C567 C 0.5944 0.01586 0.22657 0.0
C568 C 0.56866 0.02733 0.19803 0.0
H569 H 0.61064 0.0186 0.28363 0.0
H570 H 0.61844 0.99893 0.22089 0.0
C571 C 0.53754 0.04901 0.20639 0.0
C572 C 0.41099 0.54155 0.3938 0.0
C573 C 0.42944 0.56478 0.36328 0.0
H574 H 0.4143 0.51296 0.45094 0.0
C575 C 0.46654 0.57735 0.36817 0.0
H576 H 0.3826 0.53094 0.39108 0.0
C577 C 0.48483 0.56656 0.40227 0.0
C578 C 0.46643 0.54333 0.43265 0.0
H579 H 0.48148 0.59607 0.3458 0.0
H580 H 0.5134 0.57675 0.40488 0.0
C581 C 0.42922 0.5311 0.42813 0.0
C582 C 0.10776 0.47825 0.7954 0.0
C583 C 0.07893 0.45219 0.78738 0.0
H584 H 0.1303 0.51432 0.8344 0.0
C585 C 0.04948 0.44337 0.81355 0.0
H586 H 0.13061 0.4861 0.77559 0.0
C587 C 0.04915 0.45991 0.84722 0.0
C588 C 0.0782 0.48573 0.85535 0.0
H589 H 0.02698 0.42323 0.80828 0.0
H590 H 0.02591 0.45278 0.86663 0.0
C591 C 0.10741 0.49478 0.82896 0.0
C592 C 0.68213 0.94707 0.9848 0.0
C593 C 0.67876 0.92638 0.95355 0.0
H594 H 0.65405 0.97707 0.02546 0.0
C595 C 0.64298 0.92022 0.93933 0.0
H596 H 0.7093 0.95208 0.99653 0.0
C597 C 0.61141 0.93503 0.95548 0.0
C598 C 0.61472 0.95561 0.98684 0.0
H599 H 0.63948 0.90456 0.91518 0.0
H600 H 0.58435 0.93031 0.9434 0.0
C601 C 0.65045 0.96113 1.00152 0.0
C602 C 0.80028 0.08731 0.44516 0.0
C603 C 0.77888 0.07589 0.47808 0.0
H604 H 0.85222 0.08256 0.41643 0.0
C605 C 0.79437 0.05125 0.50836 0.0
H606 H 0.78871 0.10597 0.4213 0.0
C607 C 0.83086 0.03828 0.50568 0.0
C608 C 0.85189 0.04902 0.47237 0.0
H609 H 0.77823 0.04204 0.53393 0.0
H610 H 0.84235 0.01905 0.52917 0.0
C611 C 0.83635 0.07371 0.44222 0.0
C612 C 0.1814 0.57056 0.06768 0.0
C613 C 0.17847 0.58423 0.10299 0.0
H614 H 0.15324 0.54664 0.023 0.0
C615 C 0.14291 0.58432 0.11996 0.0
H616 H 0.20826 0.56925 0.05393 0.0
C617 C 0.11137 0.57062 0.10242 0.0
C618 C 0.11447 0.55693 0.06722 0.0
H619 H 0.13926 0.59525 0.14674 0.0
H620 H 0.08452 0.57078 0.11649 0.0
C621 C 0.1498 0.55737 0.04992 0.0
C622 C 0.30137 0.39943 0.58988 0.0
C623 C 0.28115 0.41739 0.55892 0.0
H624 H 0.35299 0.3975 0.61967 0.0
C625 C 0.29898 0.44601 0.53236 0.0
H626 H 0.28811 0.37768 0.61105 0.0
C627 C 0.33625 0.45702 0.53718 0.0
C628 C 0.35586 0.44023 0.56907 0.0
H629 H 0.28387 0.46035 0.50837 0.0
H630 H 0.34925 0.47984 0.51691 0.0
C631 C 0.33828 0.41098 0.59505 0.0
C632 C 0.92733 0.65947 0.99206 0.0
C633 C 0.93653 0.67929 0.95585 0.0
H634 H 0.93866 0.61113 0.03521 0.0
C635 C 0.96668 0.66562 0.93622 0.0
H636 H 0.90417 0.66893 1.00795 0.0
C637 C 0.98632 0.63248 0.95177 0.0
C638 C 0.97652 0.61201 0.98749 0.0
H639 H 0.97516 0.68054 0.90866 0.0
H640 H 1.00895 0.62259 0.93543 0.0
C641 C 0.94707 0.62622 1.00769 0.0
C642 C 0.44915 0.86205 0.12808 0.0
C643 C 0.44196 0.83106 0.10664 0.0
H644 H 0.47293 0.91996 0.12936 0.0
C645 C 0.45401 0.83615 0.06857 0.0
H646 H 0.43962 0.86015 0.15707 0.0
C647 C 0.47186 0.87133 0.05236 0.0
C648 C 0.4792 0.90173 0.0741 0.0
H649 H 0.45002 0.81292 0.05117 0.0
H650 H 0.48041 0.87455 0.02294 0.0
C651 C 0.46805 0.89664 0.11216 0.0
C652 C 0.99745 0.17842 0.54573 0.0
C653 C 0.02383 0.18754 0.57227 0.0
H654 H 0.97454 0.1341 0.51489 0.0
C655 C 0.04732 0.15778 0.58874 0.0
H656 H 0.97896 0.20081 0.53266 0.0
C657 C 0.04506 0.11994 0.57841 0.0
C658 C 1.01907 0.11084 0.55154 0.0
H659 H 0.06835 0.16406 0.6088 0.0
H660 H 0.06399 0.09791 0.59131 0.0
C661 C 0.9949 0.14029 0.53563 0.0
C662 C 0.56698 0.35743 0.46104 0.0
C663 C 0.54338 0.32604 0.47712 0.0
H664 H 0.58181 0.4189 0.45846 0.0
C665 C 0.51528 0.33335 0.50258 0.0
H666 H 0.58911 0.35243 0.44158 0.0
C667 C 0.51098 0.37123 0.51207 0.0
C668 C 0.535 0.40255 0.49663 0.0
H669 H 0.4966 0.30971 0.51517 0.0
H670 H 0.48909 0.37579 0.53197 0.0
C671 C 0.56297 0.39534 0.47089 0.0
loop_
_geom_bond_atom_site_label_1
_geom_bond_atom_site_label_2
_geom_bond_distance
_geom_bond_site_symmetry_2
_ccdc_geom_bond_type
C0 C1 1.386 . S
C0 C2 1.397 . S
C0 H24 0.931 . S
C1 C0 1.386 . S
C1 C5 1.397 . S
C2 C0 1.397 . S
C2 C3 1.384 . S
C2 H25 0.930 . S
C3 C2 1.384 . S
C3 C4 1.377 . S
C3 C6 1.481 . S
C4 C3 1.377 . S
C4 C5 1.389 . S
C4 H26 0.929 . S
C5 C1 1.397 . S
C5 C4 1.389 . S
C5 H27 0.931 . S
C6 C3 1.481 . S
C6 C7 1.387 . S
C6 C11 1.390 . S
C7 C6 1.387 . S
C7 C8 1.401 . S
C7 H28 0.930 . S
C8 C7 1.401 . S
C8 C9 1.376 . S
C8 C17 1.511 . S
C9 C8 1.376 . S
C9 C10 1.392 . S
C9 H30 0.931 . S
C10 C9 1.392 . S
C10 C11 1.361 . S
C10 C12 1.500 . S
C11 C6 1.390 . S
C11 C10 1.361 . S
C11 H29 0.931 . S
C12 C10 1.500 . S
C12 C13 1.371 . S
C12 C14 1.365 . S
C13 C12 1.371 . S
C13 C23 1.386 . S
C13 H31 0.931 . S
C14 C12 1.365 . S
C14 C15 1.409 . S
C14 H32 0.929 . S
C15 C14 1.409 . S
C15 C16 1.380 . S
C15 H33 0.930 . S
C16 C15 1.380 . S
C16 C23 1.357 . S
C17 C8 1.511 . S
C17 C18 1.341 . S
C17 C19 1.371 . S
C18 C17 1.341 . S
C18 C22 1.394 . S
C18 H34 0.930 . S
C19 C17 1.371 . S
C19 C20 1.392 . S
C19 H35 0.931 . S
C20 C19 1.392 . S
C20 C21 1.331 . S
C20 H38 0.932 . S
C21 C20 1.331 . S
C21 C22 1.336 . S
C22 C18 1.394 . S
C22 C21 1.336 . S
C22 H37 0.929 . S
C23 C13 1.386 . S
C23 C16 1.357 . S
C23 H36 0.928 . S
H24 C0 0.931 . S
H25 C2 0.930 . S
H26 C4 0.929 . S
H27 C5 0.931 . S
H28 C7 0.930 . S
H29 C11 0.931 . S
H30 C9 0.931 . S
H31 C13 0.931 . S
H32 C14 0.929 . S
H33 C15 0.930 . S
H34 C18 0.930 . S
H35 C19 0.931 . S
H36 C23 0.928 . S
H37 C22 0.929 . S
H38 C20 0.932 . S
C39 C40 1.386 . S
C39 C41 1.397 . S
C39 H63 0.931 . S
C40 C39 1.386 . S
C40 C44 1.397 . S
C41 C39 1.397 . S
C41 C42 1.384 . S
C41 H64 0.930 . S
C42 C41 1.384 . S
C42 C43 1.377 . S
C42 C45 1.481 . S
C43 C42 1.377 . S
C43 C44 1.389 . S
C43 H65 0.929 . S
C44 C40 1.397 . S
C44 C43 1.389 . S
C44 H66 0.931 . S
C45 C42 1.481 . S
C45 C46 1.387 . S
C45 C50 1.390 . S
C46 C45 1.387 . S
C46 C47 1.401 . S
C46 H67 0.930 . S
C47 C46 1.401 . S
C47 C48 1.376 . S
C47 C56 1.511 . S
C48 C47 1.376 . S
C48 C49 1.392 . S
C48 H69 0.931 . S
C49 C48 1.392 . S
C49 C50 1.361 . S
C49 C51 1.500 . S
C50 C45 1.390 . S
C50 C49 1.361 . S
C50 H68 0.931 . S
C51 C49 1.500 . S
C51 C52 1.371 . S
C51 C53 1.365 . S
C52 C51 1.371 . S
C52 C62 1.386 . S
C52 H70 0.931 . S
C53 C51 1.365 . S
C53 C54 1.409 . S
C53 H71 0.929 . S
C54 C53 1.409 . S
C54 C55 1.380 . S
C54 H72 0.930 . S
C55 C54 1.380 . S
C55 C62 1.357 . S
C56 C47 1.511 . S
C56 C57 1.341 . S
C56 C58 1.371 . S
C57 C56 1.341 . S
C57 C61 1.394 . S
C57 H73 0.930 . S
C58 C56 1.371 . S
C58 C59 1.392 . S
C58 H74 0.931 . S
C59 C58 1.392 . S
C59 C60 1.331 . S
C59 H77 0.932 . S
C60 C59 1.331 . S
C60 C61 1.336 . S
C61 C57 1.394 . S
C61 C60 1.336 . S
C61 H76 0.929 . S
C62 C52 1.386 . S
C62 C55 1.357 . S
C62 H75 0.928 . S
H63 C39 0.931 . S
H64 C41 0.930 . S
H65 C43 0.929 . S
H66 C44 0.931 . S
H67 C46 0.930 . S
H68 C50 0.931 . S
H69 C48 0.931 . S
H70 C52 0.931 . S
H71 C53 0.929 . S
H72 C54 0.930 . S
H73 C57 0.930 . S
H74 C58 0.931 . S
H75 C62 0.928 . S
H76 C61 0.929 . S
H77 C59 0.932 . S
C78 C79 1.386 . S
C78 C80 1.397 . S
C78 H102 0.931 . S
C79 C78 1.386 . S
C79 C83 1.397 . S
C80 C78 1.397 . S
C80 C81 1.384 . S
C80 H103 0.930 . S
C81 C80 1.384 . S
C81 C82 1.377 . S
C81 C84 1.481 . S
C82 C81 1.377 . S
C82 C83 1.389 . S
C82 H104 0.929 . S
C83 C79 1.397 . S
C83 C82 1.389 . S
C83 H105 0.931 . S
C84 C81 1.481 . S
C84 C85 1.387 . S
C84 C89 1.390 . S
C85 C84 1.387 . S
C85 C86 1.401 . S
C85 H106 0.930 . S
C86 C85 1.401 . S
C86 C87 1.376 . S
C86 C95 1.511 . S
C87 C86 1.376 . S
C87 C88 1.392 . S
C87 H108 0.931 . S
C88 C87 1.392 . S
C88 C89 1.361 . S
C88 C90 1.500 . S
C89 C84 1.390 . S
C89 C88 1.361 . S
C89 H107 0.931 . S
C90 C88 1.500 . S
C90 C91 1.371 . S
C90 C92 1.365 . S
C91 C90 1.371 . S
C91 C101 1.386 . S
C91 H109 0.931 . S
C92 C90 1.365 . S
C92 C93 1.409 . S
C92 H110 0.929 . S
C93 C92 1.409 . S
C93 C94 1.380 . S
C93 H111 0.930 . S
C94 C93 1.380 . S
C94 C101 1.357 . S
C95 C86 1.511 . S
C95 C96 1.341 . S
C95 C97 1.371 . S
C96 C95 1.341 . S
C96 C100 1.394 . S
C96 H112 0.930 . S
C97 C95 1.371 . S
C97 C98 1.392 . S
C97 H113 0.931 . S
C98 C97 1.392 . S
C98 C99 1.331 . S
C98 H116 0.932 . S
C99 C98 1.331 . S
C99 C100 1.336 . S
C100 C96 1.394 . S
C100 C99 1.336 . S
C100 H115 0.929 . S
C101 C91 1.386 . S
C101 C94 1.357 . S
C101 H114 0.928 . S
H102 C78 0.931 . S
H103 C80 0.930 . S
H104 C82 0.929 . S
H105 C83 0.931 . S
H106 C85 0.930 . S
H107 C89 0.931 . S
H108 C87 0.931 . S
H109 C91 0.931 . S
H110 C92 0.929 . S
H111 C93 0.930 . S
H112 C96 0.930 . S
H113 C97 0.931 . S
H114 C101 0.928 . S
H115 C100 0.929 . S
H116 C98 0.932 . S
C117 C118 1.386 . S
C117 C119 1.397 . S
C117 H141 0.931 . S
C118 C117 1.386 . S
C118 C122 1.397 . S
C119 C117 1.397 . S
C119 C120 1.384 . S
C119 H142 0.930 . S
C120 C119 1.384 . S
C120 C121 1.377 . S
C120 C123 1.481 . S
C121 C120 1.377 . S
C121 C122 1.389 . S
C121 H143 0.929 . S
C122 C118 1.397 . S
C122 C121 1.389 . S
C122 H144 0.931 1_655 S
C123 C120 1.481 . S
C123 C124 1.387 . S
C123 C128 1.390 . S
C124 C123 1.387 . S
C124 C125 1.401 . S
C124 H145 0.930 . S
C125 C124 1.401 . S
C125 C126 1.376 . S
C125 C134 1.511 . S
C126 C125 1.376 . S
C126 C127 1.392 . S
C126 H147 0.931 . S
C127 C126 1.392 . S
C127 C128 1.361 . S
C127 C129 1.500 . S
C128 C123 1.390 . S
C128 C127 1.361 . S
C128 H146 0.931 . S
C129 C127 1.500 . S
C129 C130 1.371 . S
C129 C131 1.365 . S
C130 C129 1.371 . S
C130 C140 1.386 . S
C130 H148 0.931 . S
C131 C129 1.365 . S
C131 C132 1.409 . S
C131 H149 0.929 . S
C132 C131 1.409 . S
C132 C133 1.380 . S
C132 H150 0.930 1_655 S
C133 C132 1.380 . S
C133 C140 1.357 . S
C134 C125 1.511 . S
C134 C135 1.341 . S
C134 C136 1.371 . S
C135 C134 1.341 . S
C135 C139 1.394 . S
C135 H151 0.930 . S
C136 C134 1.371 . S
C136 C137 1.392 . S
C136 H152 0.931 . S
C137 C136 1.392 . S
C137 C138 1.331 . S
C137 H155 0.932 . S
C138 C137 1.331 . S
C138 C139 1.336 . S
C139 C135 1.394 . S
C139 C138 1.336 . S
C139 H154 0.929 . S
C140 C130 1.386 . S
C140 C133 1.357 . S
C140 H153 0.928 . S
H141 C117 0.931 . S
H142 C119 0.930 . S
H143 C121 0.929 . S
H144 C122 0.931 1_455 S
H145 C124 0.930 . S
H146 C128 0.931 . S
H147 C126 0.931 . S
H148 C130 0.931 . S
H149 C131 0.929 . S
H150 C132 0.930 1_455 S
H151 C135 0.930 . S
H152 C136 0.931 . S
H153 C140 0.928 . S
H154 C139 0.929 . S
H155 C137 0.932 . S
C156 C157 1.386 . S
C156 C158 1.397 . S
C156 H180 0.931 . S
C157 C156 1.386 . S
C157 C161 1.397 . S
C158 C156 1.397 . S
C158 C159 1.384 . S
C158 H181 0.930 . S
C159 C158 1.384 . S
C159 C160 1.377 . S
C159 C162 1.481 . S
C160 C159 1.377 . S
C160 C161 1.389 . S
C160 H182 0.929 . S
C161 C157 1.397 . S
C161 C160 1.389 . S
C161 H183 0.931 . S
C162 C159 1.481 . S
C162 C163 1.387 . S
C162 C167 1.390 . S
C163 C162 1.387 . S
C163 C164 1.401 . S
C163 H184 0.930 . S
C164 C163 1.401 . S
C164 C165 1.376 . S
C164 C173 1.511 . S
C165 C164 1.376 . S
C165 C166 1.392 . S
C165 H186 0.931 . S
C166 C165 1.392 . S
C166 C167 1.361 . S
C166 C168 1.500 . S
C167 C162 1.390 . S
C167 C166 1.361 . S
C167 H185 0.931 . S
C168 C166 1.500 . S
C168 C169 1.371 . S
C168 C170 1.365 . S
C169 C168 1.371 . S
C169 C179 1.386 . S
C169 H187 0.931 . S
C170 C168 1.365 . S
C170 C171 1.409 . S
C170 H188 0.929 . S
C171 C170 1.409 . S
C171 C172 1.380 . S
C171 H189 0.930 . S
C172 C171 1.380 . S
C172 C179 1.357 . S
C173 C164 1.511 . S
C173 C174 1.341 . S
C173 C175 1.371 . S
C174 C173 1.341 . S
C174 C178 1.394 . S
C174 H190 0.930 . S
C175 C173 1.371 . S
C175 C176 1.392 . S
C175 H191 0.931 . S
C176 C175 1.392 . S
C176 C177 1.331 . S
C176 H194 0.932 . S
C177 C176 1.331 . S
C177 C178 1.336 . S
C178 C174 1.394 . S
C178 C177 1.336 . S
C178 H193 0.929 . S
C179 C169 1.386 . S
C179 C172 1.357 . S
C179 H192 0.928 . S
H180 C156 0.931 . S
H181 C158 0.930 . S
H182 C160 0.929 . S
H183 C161 0.931 . S
H184 C163 0.930 . S
H185 C167 0.931 . S
H186 C165 0.931 . S
H187 C169 0.931 . S
H188 C170 0.929 . S
H189 C171 0.930 . S
H190 C174 0.930 . S
H191 C175 0.931 . S
H192 C179 0.928 . S
H193 C178 0.929 . S
H194 C176 0.932 . S
C195 C196 1.386 . S
C195 C197 1.397 . S
C195 H219 0.931 . S
C196 C195 1.386 . S
C196 C200 1.397 . S
C197 C195 1.397 . S
C197 C198 1.384 . S
C197 H220 0.930 . S
C198 C197 1.384 . S
C198 C199 1.377 . S
C198 C201 1.481 . S
C199 C198 1.377 . S
C199 C200 1.389 . S
C199 H221 0.929 . S
C200 C196 1.397 . S
C200 C199 1.389 . S
C200 H222 0.931 . S
C201 C198 1.481 . S
C201 C202 1.387 . S
C201 C206 1.390 . S
C202 C201 1.387 . S
C202 C203 1.401 . S
C202 H223 0.930 . S
C203 C202 1.401 . S
C203 C204 1.376 . S
C203 C212 1.511 . S
C204 C203 1.376 . S
C204 C205 1.392 . S
C204 H225 0.931 . S
C205 C204 1.392 . S
C205 C206 1.361 . S
C205 C207 1.500 . S
C206 C201 1.390 . S
C206 C205 1.361 . S
C206 H224 0.931 . S
C207 C205 1.500 . S
C207 C208 1.371 . S
C207 C209 1.365 . S
C208 C207 1.371 . S
C208 C218 1.386 . S
C208 H226 0.931 . S
C209 C207 1.365 . S
C209 C210 1.409 . S
C209 H227 0.929 . S
C210 C209 1.409 . S
C210 C211 1.380 . S
C210 H228 0.930 . S
C211 C210 1.380 . S
C211 C218 1.357 . S
C212 C203 1.511 . S
C212 C213 1.341 . S
C212 C214 1.371 . S
C213 C212 1.341 . S
C213 C217 1.394 . S
C213 H229 0.930 . S
C214 C212 1.371 . S
C214 C215 1.392 . S
C214 H230 0.931 . S
C215 C214 1.392 . S
C215 C216 1.331 . S
C215 H233 0.932 . S
C216 C215 1.331 . S
C216 C217 1.336 . S
C217 C213 1.394 . S
C217 C216 1.336 . S
C217 H232 0.929 . S
C218 C208 1.386 . S
C218 C211 1.357 . S
C218 H231 0.928 . S
H219 C195 0.931 . S
H220 C197 0.930 . S
H221 C199 0.929 . S
H222 C200 0.931 . S
H223 C202 0.930 . S
H224 C206 0.931 . S
H225 C204 0.931 . S
H226 C208 0.931 . S
H227 C209 0.929 . S
H228 C210 0.930 . S
H229 C213 0.930 . S
H230 C214 0.931 . S
H231 C218 0.928 . S
H232 C217 0.929 . S
H233 C215 0.932 . S
C234 C235 1.386 . S
C234 C236 1.397 . S
C234 H258 0.931 . S
C235 C234 1.386 . S
C235 C239 1.397 . S
C236 C234 1.397 . S
C236 C237 1.384 . S
C236 H259 0.930 . S
C237 C236 1.384 . S
C237 C238 1.377 . S
C237 C240 1.481 . S
C238 C237 1.377 . S
C238 C239 1.389 . S
C238 H260 0.929 . S
C239 C235 1.397 . S
C239 C238 1.389 . S
C239 H261 0.931 . S
C240 C237 1.481 . S
C240 C241 1.387 . S
C240 C245 1.390 . S
C241 C240 1.387 . S
C241 C242 1.401 . S
C241 H262 0.930 . S
C242 C241 1.401 . S
C242 C243 1.376 . S
C242 C251 1.511 . S
C243 C242 1.376 . S
C243 C244 1.392 . S
C243 H264 0.931 . S
C244 C243 1.392 . S
C244 C245 1.361 . S
C244 C246 1.500 . S
C245 C240 1.390 . S
C245 C244 1.361 . S
C245 H263 0.931 . S
C246 C244 1.500 . S
C246 C247 1.371 . S
C246 C248 1.365 . S
C247 C246 1.371 . S
C247 C257 1.386 . S
C247 H265 0.931 . S
C248 C246 1.365 . S
C248 C249 1.409 . S
C248 H266 0.929 . S
C249 C248 1.409 . S
C249 C250 1.380 . S
C249 H267 0.930 . S
C250 C249 1.380 . S
C250 C257 1.357 . S
C251 C242 1.511 . S
C251 C252 1.341 . S
C251 C253 1.371 . S
C252 C251 1.341 . S
C252 C256 1.394 . S
C252 H268 0.930 . S
C253 C251 1.371 . S
C253 C254 1.392 . S
C253 H269 0.931 . S
C254 C253 1.392 . S
C254 C255 1.331 . S
C254 H272 0.932 . S
C255 C254 1.331 . S
C255 C256 1.336 . S
C256 C252 1.394 . S
C256 C255 1.336 . S
C256 H271 0.929 . S
C257 C247 1.386 . S
C257 C250 1.357 . S
C257 H270 0.928 . S
H258 C234 0.931 . S
H259 C236 0.930 . S
H260 C238 0.929 . S
H261 C239 0.931 . S
H262 C241 0.930 . S
H263 C245 0.931 . S
H264 C243 0.931 . S
H265 C247 0.931 . S
H266 C248 0.929 . S
H267 C249 0.930 . S
H268 C252 0.930 . S
H269 C253 0.931 . S
H270 C257 0.928 . S
H271 C256 0.929 . S
H272 C254 0.932 . S
C273 C274 1.386 . S
C273 C275 1.397 . S
C273 H297 0.931 . S
C274 C273 1.386 . S
C274 C278 1.397 . S
C275 C273 1.397 . S
C275 C276 1.384 . S
C275 H298 0.930 . S
C276 C275 1.384 . S
C276 C277 1.377 . S
C276 C279 1.481 . S
C277 C276 1.377 . S
C277 C278 1.389 . S
C277 H299 0.929 . S
C278 C274 1.397 . S
C278 C277 1.389 . S
C278 H300 0.931 1_455 S
C279 C276 1.481 . S
C279 C280 1.387 . S
C279 C284 1.390 . S
C280 C279 1.387 . S
C280 C281 1.401 . S
C280 H301 0.930 . S
C281 C280 1.401 . S
C281 C282 1.376 . S
C281 C290 1.511 . S
C282 C281 1.376 . S
C282 C283 1.392 . S
C282 H303 0.931 . S
C283 C282 1.392 . S
C283 C284 1.361 . S
C283 C285 1.500 . S
C284 C279 1.390 . S
C284 C283 1.361 . S
C284 H302 0.931 . S
C285 C283 1.500 . S
C285 C286 1.371 . S
C285 C287 1.365 . S
C286 C285 1.371 . S
C286 C296 1.386 . S
C286 H304 0.931 . S
C287 C285 1.365 . S
C287 C288 1.409 . S
C287 H305 0.929 . S
C288 C287 1.409 . S
C288 C289 1.380 . S
C288 H306 0.930 1_455 S
C289 C288 1.380 . S
C289 C296 1.357 . S
C290 C281 1.511 . S
C290 C291 1.341 . S
C290 C292 1.371 . S
C291 C290 1.341 . S
C291 C295 1.394 . S
C291 H307 0.930 . S
C292 C290 1.371 . S
C292 C293 1.392 . S
C292 H308 0.931 . S
C293 C292 1.392 . S
C293 C294 1.331 . S
C293 H311 0.932 . S
C294 C293 1.331 . S
C294 C295 1.336 . S
C295 C291 1.394 . S
C295 C294 1.336 . S
C295 H310 0.929 . S
C296 C286 1.386 . S
C296 C289 1.357 . S
C296 H309 0.928 . S
H297 C273 0.931 . S
H298 C275 0.930 . S
H299 C277 0.929 . S
H300 C278 0.931 1_655 S
H301 C280 0.930 . S
H302 C284 0.931 . S
H303 C282 0.931 . S
H304 C286 0.931 . S
H305 C287 0.929 . S
H306 C288 0.930 1_655 S
H307 C291 0.930 . S
H308 C292 0.931 . S
H309 C296 0.928 . S
H310 C295 0.929 . S
H311 C293 0.932 . S
Co312 N317 2.057 . S
Co312 O329 2.021 . S
Co312 O332 2.062 . S
Co312 O336 2.117 1_545 S
Co312 O337 2.020 1_545 S
C313 O333 1.259 1_655 S
C313 O336 1.258 . S
Co314 N323 2.057 . S
Co314 O330 2.117 1_565 S
Co314 O331 2.020 1_565 S
Co314 O333 2.021 . S
Co314 O338 2.062 . S
C315 N317 1.316 . S
C315 N318 1.347 . S
C315 H320 0.931 . S
C316 N317 1.375 1_565 S
C316 C319 1.350 1_565 S
C316 H321 0.930 . S
N317 Co312 2.057 . S
N317 C315 1.316 . S
N317 C316 1.375 1_545 S
N318 C315 1.347 . S
N318 C319 1.373 . S
C319 C316 1.350 1_545 S
C319 N318 1.373 . S
C319 H340 0.931 1_545 S
H320 C315 0.931 . S
H321 C316 0.930 . S
C322 O329 1.259 1_455 S
C322 O330 1.258 . S
N323 Co314 2.057 . S
N323 C324 1.316 . S
N323 C325 1.375 1_565 S
C324 N323 1.316 . S
C324 N326 1.347 . S
C324 H335 0.931 . S
C325 N323 1.375 1_545 S
C325 C327 1.350 1_545 S
C325 H334 0.930 . S
N326 C324 1.347 . S
N326 C327 1.373 . S
C327 C325 1.350 1_565 S
C327 N326 1.373 . S
C327 H341 0.931 1_565 S
C328 O331 1.256 . S
C328 O332 1.255 1_455 S
O329 Co312 2.021 . S
O329 C322 1.259 1_655 S
O330 Co314 2.117 1_545 S
O330 C322 1.258 . S
O331 Co314 2.020 1_545 S
O331 C328 1.256 . S
O332 Co312 2.062 . S
O332 C328 1.255 1_655 S
O333 C313 1.259 1_455 S
O333 Co314 2.021 . S
H334 C325 0.930 . S
H335 C324 0.931 . S
O336 Co312 2.117 1_565 S
O336 C313 1.258 . S
O337 Co312 2.020 1_565 S
O337 C339 1.256 . S
O338 Co314 2.062 . S
O338 C339 1.255 1_455 S
C339 O337 1.256 . S
C339 O338 1.255 1_655 S
H340 C319 0.931 1_565 S
H341 C327 0.931 1_545 S
Co342 N347 2.057 . S
Co342 O359 2.021 1_565 S
Co342 O362 2.062 . S
Co342 O366 2.103 1_556 S
Co342 O367 2.020 1_565 S
C343 O363 1.259 . S
C343 O366 1.282 . S
Co344 N353 2.057 . S
Co344 O360 2.117 . S
Co344 O361 2.020 1_545 S
Co344 O363 2.021 1_545 S
Co344 O368 2.062 . S
C345 N347 1.316 . S
C345 N348 1.347 . S
C345 H350 0.931 1_565 S
C346 N347 1.375 . S
C346 C349 1.350 . S
C346 H351 0.930 . S
N347 Co342 2.057 . S
N347 C345 1.316 . S
N347 C346 1.375 . S
N348 C345 1.347 . S
N348 C349 1.373 . S
C349 C346 1.350 . S
C349 N348 1.373 . S
C349 H370 0.931 . S
H350 C345 0.931 1_545 S
H351 C346 0.930 . S
C352 O359 1.259 . S
C352 O360 1.258 1_556 S
N353 Co344 2.057 . S
N353 C354 1.316 . S
N353 C355 1.375 . S
C354 N353 1.316 . S
C354 N356 1.347 . S
C354 H365 0.931 1_545 S
C355 N353 1.375 . S
C355 C357 1.350 . S
C355 H364 0.930 . S
N356 C354 1.347 . S
N356 C357 1.373 . S
C357 C355 1.350 . S
C357 N356 1.373 . S
C357 H371 0.931 . S
C358 O361 1.256 1_556 S
C358 O362 1.255 . S
O359 Co342 2.021 1_545 S
O359 C352 1.259 . S
O360 Co344 2.117 . S
O360 C352 1.258 1_554 S
O361 Co344 2.020 1_565 S
O361 C358 1.256 1_554 S
O362 Co342 2.062 . S
O362 C358 1.255 . S
O363 C343 1.259 . S
O363 Co344 2.021 1_565 S
H364 C355 0.930 . S
H365 C354 0.931 1_565 S
O366 Co342 2.103 1_554 S
O366 C343 1.282 . S
O367 Co342 2.020 1_545 S
O367 C369 1.256 1_556 S
O368 Co344 2.062 . S
O368 C369 1.255 . S
C369 O367 1.256 1_554 S
C369 O368 1.255 . S
H370 C349 0.931 . S
H371 C357 0.931 . S
Co372 N377 2.057 . S
Co372 O389 2.021 . S
Co372 O392 2.062 . S
Co372 O396 2.117 . S
Co372 O397 2.020 . S
C373 O393 1.259 . S
C373 O396 1.258 . S
Co374 N383 2.057 . S
Co374 O390 2.117 . S
Co374 O391 2.020 . S
Co374 O393 2.021 . S
Co374 O398 2.062 . S
C375 N377 1.316 . S
C375 N378 1.347 . S
C375 H380 0.931 . S
C376 N377 1.375 . S
C376 C379 1.350 . S
C376 H381 0.930 . S
N377 Co372 2.057 . S
N377 C375 1.316 . S
N377 C376 1.375 . S
N378 C375 1.347 . S
N378 C379 1.373 . S
C379 C376 1.350 . S
C379 N378 1.373 . S
C379 H400 0.931 . S
H380 C375 0.931 . S
H381 C376 0.930 . S
C382 O389 1.259 . S
C382 O390 1.258 . S
N383 Co374 2.057 . S
N383 C384 1.316 . S
N383 C385 1.375 . S
C384 N383 1.316 . S
C384 N386 1.347 . S
C384 H395 0.931 . S
C385 N383 1.375 . S
C385 C387 1.350 . S
C385 H394 0.930 . S
N386 C384 1.347 . S
N386 C387 1.373 . S
C387 C385 1.350 . S
C387 N386 1.373 . S
C387 H401 0.931 . S
C388 O391 1.256 . S
C388 O392 1.255 . S
O389 Co372 2.021 . S
O389 C382 1.259 . S
O390 Co374 2.117 . S
O390 C382 1.258 . S
O391 Co374 2.020 . S
O391 C388 1.256 . S
O392 Co372 2.062 . S
O392 C388 1.255 . S
O393 C373 1.259 . S
O393 Co374 2.021 . S
H394 C385 0.930 . S
H395 C384 0.931 . S
O396 Co372 2.117 . S
O396 C373 1.258 . S
O397 Co372 2.020 . S
O397 C399 1.256 . S
O398 Co374 2.062 . S
O398 C399 1.255 . S
C399 O397 1.256 . S
C399 O398 1.255 . S
H400 C379 0.931 . S
H401 C387 0.931 . S
Co402 N407 2.057 . S
Co402 O419 2.021 . S
Co402 O422 2.062 . S
Co402 O426 2.117 1_455 S
Co402 O427 2.020 1_455 S
C403 O423 1.259 1_556 S
C403 O426 1.258 . S
Co404 N413 2.057 . S
Co404 O420 2.117 1_655 S
Co404 O421 2.020 1_655 S
Co404 O423 2.021 . S
Co404 O428 2.062 . S
C405 N407 1.316 . S
C405 N408 1.347 . S
C405 H410 0.931 . S
C406 N407 1.375 1_655 S
C406 C409 1.350 1_655 S
C406 H411 0.930 . S
N407 Co402 2.057 . S
N407 C405 1.316 . S
N407 C406 1.375 1_455 S
N408 C405 1.347 . S
N408 C409 1.373 . S
C409 C406 1.350 1_455 S
C409 N408 1.373 . S
C409 H430 0.931 1_455 S
H410 C405 0.931 . S
H411 C406 0.930 . S
C412 O419 1.259 1_554 S
C412 O420 1.258 . S
N413 Co404 2.057 . S
N413 C414 1.316 . S
N413 C415 1.375 1_655 S
C414 N413 1.316 . S
C414 N416 1.347 . S
C414 H425 0.931 . S
C415 N413 1.375 1_455 S
C415 C417 1.350 1_455 S
C415 H424 0.930 . S
N416 C414 1.347 . S
N416 C417 1.373 . S
C417 C415 1.350 1_655 S
C417 N416 1.373 . S
C417 H431 0.931 1_655 S
C418 O421 1.256 . S
C418 O422 1.255 1_554 S
O419 Co402 2.021 . S
O419 C412 1.259 1_556 S
O420 Co404 2.117 1_455 S
O420 C412 1.258 . S
O421 Co404 2.020 1_455 S
O421 C418 1.256 . S
O422 Co402 2.062 . S
O422 C418 1.255 1_556 S
O423 C403 1.259 1_554 S
O423 Co404 2.021 . S
H424 C415 0.930 . S
H425 C414 0.931 . S
O426 Co402 2.117 1_655 S
O426 C403 1.258 . S
O427 Co402 2.020 1_655 S
O427 C429 1.256 . S
O428 Co404 2.062 . S
O428 C429 1.255 1_554 S
C429 O427 1.256 . S
C429 O428 1.255 1_556 S
H430 C409 0.931 1_655 S
H431 C417 0.931 1_455 S
C432 C433 1.387 . S
C432 H436 0.950 . S
C432 C441 1.390 . S
C433 C432 1.387 . S
C433 C435 1.387 . S
H434 C441 0.950 . S
C435 C433 1.387 . S
C435 C437 1.390 . S
C435 H439 0.950 1_545 S
H436 C432 0.950 . S
C437 C435 1.390 . S
C437 C438 1.387 . S
C437 H440 0.950 1_545 S
C438 C437 1.387 . S
C438 C441 1.387 . S
H439 C435 0.950 1_565 S
H440 C437 0.950 1_565 S
C441 C432 1.390 . S
C441 H434 0.950 . S
C441 C438 1.387 . S
C442 C443 1.387 . S
C442 H446 0.950 . S
C442 C451 1.390 . S
C443 C442 1.387 . S
C443 C445 1.387 . S
H444 C451 0.950 . S
C445 C443 1.387 . S
C445 C447 1.390 . S
C445 H449 0.950 . S
H446 C442 0.950 . S
C447 C445 1.390 . S
C447 C448 1.387 . S
C447 H450 0.950 . S
C448 C447 1.387 . S
C448 C451 1.387 . S
H449 C445 0.950 . S
H450 C447 0.950 . S
C451 C442 1.390 . S
C451 H444 0.950 . S
C451 C448 1.387 . S
C452 C453 1.387 . S
C452 H456 0.950 . S
C452 C461 1.390 . S
C453 C452 1.387 . S
C453 C455 1.387 . S
H454 C461 0.950 . S
C455 C453 1.387 . S
C455 C457 1.390 . S
C455 H459 0.950 . S
H456 C452 0.950 . S
C457 C455 1.390 . S
C457 C458 1.387 . S
C457 H460 0.950 . S
C458 C457 1.387 . S
C458 C461 1.387 . S
H459 C455 0.950 . S
H460 C457 0.950 . S
C461 C452 1.390 . S
C461 H454 0.950 . S
C461 C458 1.387 . S
C462 C463 1.387 . S
C462 H466 0.950 . S
C462 C471 1.390 . S
C463 C462 1.387 . S
C463 C465 1.387 . S
H464 C471 0.950 . S
C465 C463 1.387 . S
C465 C467 1.390 . S
C465 H469 0.950 . S
H466 C462 0.950 . S
C467 C465 1.390 . S
C467 C468 1.387 . S
C467 H470 0.950 . S
C468 C467 1.387 . S
C468 C471 1.387 . S
H469 C465 0.950 . S
H470 C467 0.950 . S
C471 C462 1.390 . S
C471 H464 0.950 . S
C471 C468 1.387 . S
C472 C473 1.387 . S
C472 H476 0.950 1_545 S
C472 C481 1.390 . S
C473 C472 1.387 . S
C473 C475 1.387 . S
H474 C481 0.950 1_565 S
C475 C473 1.387 . S
C475 C477 1.390 . S
C475 H479 0.950 . S
H476 C472 0.950 1_565 S
C477 C475 1.390 . S
C477 C478 1.387 . S
C477 H480 0.950 . S
C478 C477 1.387 . S
C478 C481 1.387 . S
H479 C475 0.950 . S
H480 C477 0.950 . S
C481 C472 1.390 . S
C481 H474 0.950 1_545 S
C481 C478 1.387 . S
C482 C483 1.387 . S
C482 H486 0.950 . S
C482 C491 1.390 . S
C483 C482 1.387 . S
C483 C485 1.387 . S
H484 C491 0.950 . S
C485 C483 1.387 . S
C485 C487 1.390 . S
C485 H489 0.950 . S
H486 C482 0.950 . S
C487 C485 1.390 . S
C487 C488 1.387 . S
C487 H490 0.950 . S
C488 C487 1.387 . S
C488 C491 1.387 . S
H489 C485 0.950 . S
H490 C487 0.950 . S
C491 C482 1.390 . S
C491 H484 0.950 . S
C491 C488 1.387 . S
C492 C493 1.387 . S
C492 H496 0.950 . S
C492 C501 1.390 . S
C493 C492 1.387 . S
C493 C495 1.387 . S
H494 C501 0.950 . S
C495 C493 1.387 . S
C495 C497 1.390 . S
C495 H499 0.950 . S
H496 C492 0.950 . S
C497 C495 1.390 . S
C497 C498 1.387 . S
C497 H500 0.950 . S
C498 C497 1.387 . S
C498 C501 1.387 . S
H499 C495 0.950 . S
H500 C497 0.950 . S
C501 C492 1.390 . S
C501 H494 0.950 . S
C501 C498 1.387 . S
C502 C503 1.387 . S
C502 H506 0.950 . S
C502 C511 1.390 . S
C503 C502 1.387 . S
C503 C505 1.387 . S
H504 C511 0.950 . S
C505 C503 1.387 . S
C505 C507 1.390 . S
C505 H509 0.950 . S
H506 C502 0.950 . S
C507 C505 1.390 . S
C507 C508 1.387 . S
C507 H510 0.950 . S
C508 C507 1.387 . S
C508 C511 1.387 . S
H509 C505 0.950 . S
H510 C507 0.950 . S
C511 C502 1.390 . S
C511 H504 0.950 . S
C511 C508 1.387 . S
C512 C513 1.387 . S
C512 H516 0.950 1_554 S
C512 C521 1.390 . S
C513 C512 1.387 . S
C513 C515 1.387 . S
H514 C521 0.950 1_556 S
C515 C513 1.387 . S
C515 C517 1.390 . S
C515 H519 0.950 . S
H516 C512 0.950 1_556 S
C517 C515 1.390 . S
C517 C518 1.387 . S
C517 H520 0.950 . S
C518 C517 1.387 . S
C518 C521 1.387 . S
H519 C515 0.950 . S
H520 C517 0.950 . S
C521 C512 1.390 . S
C521 H514 0.950 1_554 S
C521 C518 1.387 . S
C522 C523 1.387 . S
C522 H526 0.950 1_556 S
C522 C531 1.390 . S
C523 C522 1.387 . S
C523 C525 1.387 . S
H524 C531 0.950 1_554 S
C525 C523 1.387 . S
C525 C527 1.390 . S
C525 H529 0.950 . S
H526 C522 0.950 1_554 S
C527 C525 1.390 . S
C527 C528 1.387 . S
C527 H530 0.950 . S
C528 C527 1.387 . S
C528 C531 1.387 . S
H529 C525 0.950 . S
H530 C527 0.950 . S
C531 C522 1.390 . S
C531 H524 0.950 1_556 S
C531 C528 1.387 . S
C532 C533 1.387 . S
C532 H536 0.950 . S
C532 C541 1.390 . S
C533 C532 1.387 . S
C533 C535 1.387 . S
H534 C541 0.950 . S
C535 C533 1.387 . S
C535 C537 1.390 . S
C535 H539 0.950 1_655 S
H536 C532 0.950 . S
C537 C535 1.390 . S
C537 C538 1.387 . S
C537 H540 0.950 1_655 S
C538 C537 1.387 . S
C538 C541 1.387 . S
H539 C535 0.950 1_455 S
H540 C537 0.950 1_455 S
C541 C532 1.390 . S
C541 H534 0.950 . S
C541 C538 1.387 . S
C542 C543 1.387 . S
C542 H546 0.950 . S
C542 C551 1.390 . S
C543 C542 1.387 . S
C543 C545 1.387 . S
H544 C551 0.950 . S
C545 C543 1.387 . S
C545 C547 1.390 . S
C545 H549 0.950 . S
H546 C542 0.950 . S
C547 C545 1.390 . S
C547 C548 1.387 . S
C547 H550 0.950 . S
C548 C547 1.387 . S
C548 C551 1.387 . S
H549 C545 0.950 . S
H550 C547 0.950 . S
C551 C542 1.390 . S
C551 H544 0.950 . S
C551 C548 1.387 . S
C552 C553 1.387 . S
C552 H556 0.950 1_565 S
C552 C561 1.390 1_565 S
C553 C552 1.387 . S
C553 C555 1.387 . S
H554 C561 0.972 . S
C555 C553 1.387 . S
C555 C557 1.390 . S
C555 H559 0.950 . S
H556 C552 0.950 1_545 S
C557 C555 1.390 . S
C557 C558 1.387 . S
C557 H560 0.950 . S
C558 C557 1.387 . S
C558 C561 1.366 1_565 S
H559 C555 0.950 . S
H560 C557 0.950 . S
C561 C552 1.390 1_545 S
C561 H554 0.972 . S
C561 C558 1.366 1_545 S
C562 C563 1.387 . S
C562 H566 0.950 . S
C562 C571 1.390 . S
C563 C562 1.387 . S
C563 C565 1.387 . S
H564 C571 0.950 . S
C565 C563 1.387 . S
C565 C567 1.390 . S
C565 H569 0.950 . S
H566 C562 0.950 . S
C567 C565 1.390 . S
C567 C568 1.387 . S
C567 H570 0.950 . S
C568 C567 1.387 . S
C568 C571 1.387 . S
H569 C565 0.950 . S
H570 C567 0.950 . S
C571 C562 1.390 . S
C571 H564 0.950 . S
C571 C568 1.387 . S
C572 C573 1.387 . S
C572 H576 0.950 . S
C572 C581 1.390 . S
C573 C572 1.387 . S
C573 C575 1.387 . S
H574 C581 0.950 . S
C575 C573 1.387 . S
C575 C577 1.390 . S
C575 H579 0.950 . S
H576 C572 0.950 . S
C577 C575 1.390 . S
C577 C578 1.387 . S
C577 H580 0.950 . S
C578 C577 1.387 . S
C578 C581 1.387 . S
H579 C575 0.950 . S
H580 C577 0.950 . S
C581 C572 1.390 . S
C581 H574 0.950 . S
C581 C578 1.387 . S
C582 C583 1.387 . S
C582 H586 0.950 . S
C582 C591 1.390 . S
C583 C582 1.387 . S
C583 C585 1.387 . S
H584 C591 0.950 . S
C585 C583 1.387 . S
C585 C587 1.390 . S
C585 H589 0.950 . S
H586 C582 0.950 . S
C587 C585 1.390 . S
C587 C588 1.387 . S
C587 H590 0.950 . S
C588 C587 1.387 . S
C588 C591 1.387 . S
H589 C585 0.950 . S
H590 C587 0.950 . S
C591 C582 1.390 . S
C591 H584 0.950 . S
C591 C588 1.387 . S
C592 C593 1.387 . S
C592 H596 0.950 1_565 S
C592 C601 1.390 . S
C593 C592 1.387 . S
C593 C595 1.387 . S
H594 C601 0.950 1_545 S
C595 C593 1.387 . S
C595 C597 1.390 . S
C595 H599 0.950 . S
H596 C592 0.950 1_545 S
C597 C595 1.390 . S
C597 C598 1.387 . S
C597 H600 0.950 . S
C598 C597 1.387 . S
C598 C601 1.387 . S
H599 C595 0.950 . S
H600 C597 0.950 . S
C601 C592 1.390 . S
C601 H594 0.950 1_565 S
C601 C598 1.387 . S
C602 C603 1.387 . S
C602 H606 0.950 . S
C602 C611 1.390 . S
C603 C602 1.387 . S
C603 C605 1.387 . S
H604 C611 0.950 . S
C605 C603 1.387 . S
C605 C607 1.390 . S
C605 H609 0.950 . S
H606 C602 0.950 . S
C607 C605 1.390 . S
C607 C608 1.387 . S
C607 H610 0.950 . S
C608 C607 1.387 . S
C608 C611 1.387 . S
H609 C605 0.950 . S
H610 C607 0.950 . S
C611 C602 1.390 . S
C611 H604 0.950 . S
C611 C608 1.387 . S
C612 C613 1.387 . S
C612 H616 0.950 . S
C612 C621 1.390 . S
C613 C612 1.387 . S
C613 C615 1.387 . S
H614 C621 0.950 . S
C615 C613 1.387 . S
C615 C617 1.390 . S
C615 H619 0.950 . S
H616 C612 0.950 . S
C617 C615 1.390 . S
C617 C618 1.387 . S
C617 H620 0.950 . S
C618 C617 1.387 . S
C618 C621 1.387 . S
H619 C615 0.950 . S
H620 C617 0.950 . S
C621 C612 1.390 . S
C621 H614 0.950 . S
C621 C618 1.387 . S
C622 C623 1.387 . S
C622 H626 0.950 . S
C622 C631 1.390 . S
C623 C622 1.387 . S
C623 C625 1.387 . S
H624 C631 0.950 . S
C625 C623 1.387 . S
C625 C627 1.390 . S
C625 H629 0.950 . S
H626 C622 0.950 . S
C627 C625 1.390 . S
C627 C628 1.387 . S
C627 H630 0.950 . S
C628 C627 1.387 . S
C628 C631 1.387 . S
H629 C625 0.950 . S
H630 C627 0.950 . S
C631 C622 1.390 . S
C631 H624 0.950 . S
C631 C628 1.387 . S
C632 C633 1.387 . S
C632 H636 0.950 1_556 S
C632 C641 1.390 1_556 S
C633 C632 1.387 . S
C633 C635 1.387 . S
H634 C641 0.950 . S
C635 C633 1.387 . S
C635 C637 1.390 . S
C635 H639 0.950 . S
H636 C632 0.950 1_554 S
C637 C635 1.390 . S
C637 C638 1.387 . S
C637 H640 0.950 . S
C638 C637 1.387 . S
C638 C641 1.387 1_556 S
H639 C635 0.950 . S
H640 C637 0.950 . S
C641 C632 1.390 1_554 S
C641 H634 0.950 . S
C641 C638 1.387 1_554 S
C642 C643 1.387 . S
C642 H646 0.950 . S
C642 C651 1.390 . S
C643 C642 1.387 . S
C643 C645 1.387 . S
H644 C651 0.950 . S
C645 C643 1.387 . S
C645 C647 1.390 . S
C645 H649 0.950 1_554 S
H646 C642 0.950 . S
C647 C645 1.390 . S
C647 C648 1.387 . S
C647 H650 0.950 1_554 S
C648 C647 1.387 . S
C648 C651 1.387 . S
H649 C645 0.950 1_556 S
H650 C647 0.950 1_556 S
C651 C642 1.390 . S
C651 H644 0.950 . S
C651 C648 1.387 . S
C652 C653 1.403 . S
C652 H656 0.933 1_455 S
C652 C661 1.392 . S
C653 C652 1.403 . S
C653 C655 1.387 . S
H654 C661 0.950 1_655 S
C655 C653 1.387 . S
C655 C657 1.390 . S
C655 H659 0.950 . S
H656 C652 0.933 1_655 S
C657 C655 1.390 . S
C657 C658 1.387 . S
C657 H660 0.950 . S
C658 C657 1.387 . S
C658 C661 1.387 . S
H659 C655 0.950 . S
H660 C657 0.950 . S
C661 C652 1.392 . S
C661 H654 0.950 1_455 S
C661 C658 1.387 . S
C662 C663 1.387 . S
C662 H666 0.950 . S
C662 C671 1.390 . S
C663 C662 1.387 . S
C663 C665 1.387 . S
H664 C671 0.950 . S
C665 C663 1.387 . S
C665 C667 1.390 . S
C665 H669 0.950 . S
H666 C662 0.950 . S
C667 C665 1.390 . S
C667 C668 1.387 . S
C667 H670 0.950 . S
C668 C667 1.387 . S
C668 C671 1.387 . S
H669 C665 0.950 . S
H670 C667 0.950 . S
C671 C662 1.390 . S
C671 H664 0.950 . S
C671 C668 1.387 . S
C433 C1 2.169 . S
C438 C328 2.195 . S
C443 C40 1.180 . S
C448 N348 1.198 . S
C458 C382 2.037 . S
C453 C99 2.024 . S
C463 C118 1.416 . S
C468 N416 1.321 . S
C478 C369 2.340 . S
C473 C16 2.317 . S
C488 N326 1.223 . S
C483 C60 1.270 . S
C498 C403 2.068 . S
C493 C79 2.052 . S
C508 N378 1.152 . S
C503 C138 1.101 . S
C513 C21 1.837 . S
C518 C418 1.861 . S
C528 C352 1.781 . S
C523 C94 1.750 . S
C533 C133 1.508 . S
C538 C313 1.540 . S
C543 C55 1.482 . S
C548 C399 1.508 . S
C558 C339 2.198 . S
C553 C157 2.165 . S
C563 C196 1.182 . S
C568 N356 1.196 . S
C573 C255 2.007 . S
C578 C373 2.033 . S
C583 C289 1.422 . S
C588 N408 1.319 . S
C593 C172 2.322 . S
C598 C358 2.339 . S
C608 N318 1.224 . S
C603 C216 1.287 . S
C618 C412 2.069 . S
C613 C235 2.047 . S
C628 N386 1.152 . S
C623 C294 1.098 . S
C633 C177 1.824 . S
C638 C429 1.861 . S
C648 C343 1.782 . S
C643 C250 1.755 . S
C658 C322 1.540 . S
C653 C274 1.500 . S
C663 C211 1.472 . S
C668 C388 1.503 . S
