# Generated by pormake.
# Topology pts, (4,4)-cn, num edge types: 1
# Building blocks:
#     Node 0, Type 0, BuildingBlock: NAHDIM_clean_linker_0, # of connection points: 4
#     Node 1, Type 0, BuildingBlock: NAHDIM_clean_linker_0, # of connection points: 4
#     Node 2, Type 1, BuildingBlock: QUQFOY_clean_sbu_1, # of connection points: 4
#     Node 3, Type 1, BuildingBlock: QUQFOY_clean_sbu_1, # of connection points: 4
#     Edge 4, Type (0, 1), BuildingBlock: OJICUG_clean_linker_0, # of connection points: 2
#     Edge 5, Type (0, 1), BuildingBlock: OJICUG_clean_linker_0, # of connection points: 2
#     Edge 6, Type (0, 1), BuildingBlock: OJICUG_clean_linker_0, # of connection points: 2
#     Edge 7, Type (0, 1), BuildingBlock: OJICUG_clean_linker_0, # of connection points: 2
#     Edge 8, Type (0, 1), BuildingBlock: OJICUG_clean_linker_0, # of connection points: 2
#     Edge 9, Type (0, 1), BuildingBlock: OJICUG_clean_linker_0, # of connection points: 2
#     Edge 10, Type (0, 1), BuildingBlock: OJICUG_clean_linker_0, # of connection points: 2
#     Edge 11, Type (0, 1), BuildingBlock: OJICUG_clean_linker_0, # of connection points: 2
# Relax obj value: 0.113
# Max RMSD: 0.243
# Mean RMSD: 0.150
data_MOF--net-pts--node1-QUQFOY_clean_sbu_1--node2-NAHDIM_clean_linker_0--edge1-OJICUG_clean_linker_0
_symmetry_space_group_name_H-M    P1
_symmetry_Int_Tables_number       1
_symmetry_cell_setting            triclinic
loop_
_symmetry_equiv_pos_as_xyz
'x, y, z'
_cell_length_a     24.245179
_cell_length_b     27.09658
_cell_length_c     44.857943
_cell_angle_alpha  90.351279
_cell_angle_beta   89.15976
_cell_angle_gamma 90.039685
loop_
_atom_site_label
_atom_site_type_symbol
_atom_site_fract_x
_atom_site_fract_y
_atom_site_fract_z
_atom_type_partial_charge
C0 C 0.69495 0.15476 0.20338 0.0
C1 C 0.71285 0.11126 0.1836 0.0
C2 C 0.6812 0.10331 0.13298 0.0
C3 C 0.68224 0.05201 0.12898 0.0
C4 C 0.64651 0.02889 0.1089 0.0
C5 C 0.60822 0.05775 0.09302 0.0
C6 C 0.60838 0.1098 0.09645 0.0
C7 C 0.64591 0.13198 0.11595 0.0
C8 C 0.64859 0.97351 0.10537 0.0
C9 C 0.56737 0.14187 0.08059 0.0
C10 C 0.34109 0.88387 0.21059 0.0
C11 C 0.32569 0.92441 0.18863 0.0
C12 C 0.35953 0.92579 0.13763 0.0
C13 C 0.35862 0.97664 0.13216 0.0
C14 C 0.39438 0.99761 0.11087 0.0
C15 C 0.43249 0.96709 0.0952 0.0
C16 C 0.43197 0.91543 0.09997 0.0
C17 C 0.39449 0.89534 0.12075 0.0
C18 C 0.39264 0.0526 0.10587 0.0
C19 C 0.47264 0.88173 0.08422 0.0
C20 C 0.33817 0.9247 0.90365 0.0
C21 C 0.33799 0.97512 0.91114 0.0
C22 C 0.38279 0.99658 0.92582 0.0
C23 C 0.42879 0.96707 0.93293 0.0
C24 C 0.43018 0.91683 0.92418 0.0
C25 C 0.38486 0.89637 0.90941 0.0
C26 C 0.38071 0.05061 0.93413 0.0
C27 C 0.47903 0.88459 0.93104 0.0
C28 C 0.82071 0.15987 0.91 0.0
C29 C 0.79661 0.11325 0.89569 0.0
C30 C 0.69809 0.09793 0.90116 0.0
C31 C 0.65049 0.12504 0.90777 0.0
C32 C 0.60563 0.10329 0.92283 0.0
C33 C 0.60844 0.05298 0.93092 0.0
C34 C 0.65523 0.0246 0.92271 0.0
C35 C 0.69959 0.04737 0.90781 0.0
C36 C 0.55588 0.13433 0.93083 0.0
C37 C 0.65876 0.97052 0.93026 0.0
C38 C 0.56454 0.03322 0.07534 0.0
C39 C 0.52064 0.01182 0.0911 0.0
C40 C 0.47653 0.98975 0.0764 0.0
C41 C 0.47551 0.98947 0.0449 0.0
C42 C 0.43094 0.96914 0.02933 0.0
C43 C 0.43069 0.96858 0.9983 0.0
C44 C 0.47479 0.98874 0.98165 0.0
C45 C 0.47488 0.98853 0.9501 0.0
C46 C 0.51897 0.00944 0.93425 0.0
C47 C 0.56347 0.03061 0.94907 0.0
C48 C 0.56453 0.03076 0.9806 0.0
C49 C 0.60906 0.05126 0.9962 0.0
C50 C 0.60949 0.05161 0.02721 0.0
C51 C 0.56517 0.03195 0.04383 0.0
C52 C 0.52022 0.01037 0.02857 0.0
C53 C 0.51988 0.00989 0.99692 0.0
C54 C 0.20826 0.86795 0.90708 0.0
C55 C 0.23929 0.91417 0.89669 0.0
O56 O 0.71231 0.12563 0.154 0.0
O57 O 0.74196 0.12162 0.88868 0.0
O58 O 0.29405 0.90223 0.8911 0.0
O59 O 0.32861 0.90561 0.15984 0.0
H60 H 0.68186 0.0815 0.18769 0.0
H61 H 0.65212 0.16567 0.19794 0.0
H62 H 0.72229 0.18717 0.19982 0.0
H63 H 0.69587 0.14418 0.22727 0.0
H64 H 0.71055 0.03011 0.14188 0.0
H65 H 0.64583 0.17165 0.11919 0.0
H66 H 0.61254 0.95692 0.11712 0.0
H67 H 0.68675 0.95765 0.11482 0.0
H68 H 0.64627 0.96294 0.08146 0.0
H69 H 0.56892 0.1809 0.08827 0.0
H70 H 0.52484 0.12764 0.08421 0.0
H71 H 0.57617 0.14094 0.05625 0.0
H72 H 0.35685 0.9543 0.19161 0.0
H73 H 0.33838 0.89806 0.23386 0.0
H74 H 0.38415 0.87162 0.20609 0.0
H75 H 0.31344 0.8514 0.20833 0.0
H76 H 0.33045 0.99994 0.14486 0.0
H77 H 0.3944 0.85603 0.12508 0.0
H78 H 0.39483 0.06086 0.08166 0.0
H79 H 0.42889 0.07006 0.11649 0.0
H80 H 0.35467 0.06958 0.11555 0.0
H81 H 0.4698 0.84312 0.0923 0.0
H82 H 0.51537 0.89529 0.08752 0.0
H83 H 0.46482 0.88174 0.05992 0.0
H84 H 0.2354 0.94068 0.91568 0.0
H85 H 0.30296 0.9978 0.90558 0.0
H86 H 0.38496 0.8577 0.9031 0.0
H87 H 0.38266 0.05473 0.95874 0.0
H88 H 0.34261 0.06887 0.92628 0.0
H89 H 0.41707 0.06995 0.92441 0.0
H90 H 0.47411 0.84639 0.92234 0.0
H91 H 0.48465 0.88303 0.95554 0.0
H92 H 0.51711 0.90083 0.92114 0.0
H93 H 0.80025 0.08426 0.91306 0.0
H94 H 0.86563 0.15526 0.9137 0.0
H95 H 0.80016 0.16663 0.93195 0.0
H96 H 0.81387 0.19282 0.89595 0.0
H97 H 0.6494 0.16382 0.90204 0.0
H98 H 0.73542 0.0257 0.90151 0.0
H99 H 0.55035 0.13565 0.95544 0.0
H100 H 0.51824 0.11726 0.92143 0.0
H101 H 0.55963 0.17268 0.92242 0.0
H102 H 0.69684 0.95301 0.92107 0.0
H103 H 0.62235 0.95068 0.92141 0.0
H104 H 0.6581 0.96609 0.95486 0.0
H105 H 0.52069 0.01254 0.1153 0.0
H106 H 0.39577 0.95338 0.04099 0.0
H107 H 0.39537 0.95223 0.98752 0.0
H108 H 0.51854 0.00944 0.91006 0.0
H109 H 0.64414 0.0673 0.9846 0.0
H110 H 0.64492 0.06768 0.03804 0.0
H111 H 0.16359 0.87606 0.9101 0.0
H112 H 0.22466 0.85577 0.92883 0.0
H113 H 0.21349 0.83705 0.89092 0.0
C114 C 0.15918 0.26377 0.61925 0.0
C115 C 0.12323 0.28356 0.6451 0.0
C116 C 0.06412 0.34632 0.62189 0.0
C117 C 0.01026 0.35691 0.61331 0.0
C118 C 0.99731 0.40145 0.59921 0.0
C119 C 0.03956 0.43627 0.59338 0.0
C120 C 0.09401 0.4264 0.60252 0.0
C121 C 0.1058 0.38161 0.61672 0.0
C122 C 0.93869 0.41089 0.58996 0.0
C123 C 0.13998 0.46278 0.59662 0.0
C124 C 0.90271 0.81095 0.60772 0.0
C125 C 0.95182 0.79271 0.6256 0.0
C126 C 0.95676 0.70266 0.62244 0.0
C127 C 0.01084 0.6955 0.61173 0.0
C128 C 0.02618 0.65099 0.59769 0.0
C129 C 0.98642 0.61316 0.59407 0.0
C130 C 0.93245 0.61971 0.60587 0.0
C131 C 0.91859 0.66423 0.6203 0.0
C132 C 0.08465 0.64464 0.58632 0.0
C133 C 0.88907 0.58016 0.60261 0.0
C134 C 0.96357 0.70145 0.40331 0.0
C135 C 0.01673 0.69431 0.41445 0.0
C136 C 0.03048 0.65029 0.42896 0.0
C137 C 0.99003 0.61298 0.43262 0.0
C138 C 0.93696 0.61958 0.42057 0.0
C139 C 0.92471 0.66356 0.40568 0.0
C140 C 0.08812 0.64378 0.44057 0.0
C141 C 0.89289 0.58057 0.42389 0.0
C142 C 0.12114 0.23998 0.4151 0.0
C143 C 0.0733 0.25822 0.39623 0.0
C144 C 0.06978 0.34799 0.40143 0.0
C145 C 0.10888 0.38553 0.40422 0.0
C146 C 0.09628 0.4294 0.41967 0.0
C147 C 0.04264 0.43624 0.43186 0.0
C148 C 0.00206 0.39927 0.42781 0.0
C149 C 0.01615 0.35536 0.41274 0.0
C150 C 0.1405 0.46806 0.42342 0.0
C151 C 0.94389 0.40606 0.43955 0.0
C152 C 0.02737 0.48149 0.57606 0.0
C153 C 0.01376 0.52486 0.5916 0.0
C154 C 0.00033 0.56811 0.57641 0.0
C155 C -2e-05 0.56815 0.54486 0.0
C156 C 0.98506 0.61049 0.52888 0.0
C157 C 0.98562 0.61046 0.49788 0.0
C158 C 0.00109 0.56806 0.48157 0.0
C159 C 0.00262 0.56794 0.45002 0.0
C160 C 0.01642 0.52463 0.43449 0.0
C161 C 0.02946 0.48129 0.44965 0.0
C162 C 0.02962 0.48116 0.48121 0.0
C163 C 0.044 0.43866 0.49717 0.0
C164 C 0.04334 0.43867 0.52818 0.0
C165 C 0.02856 0.48127 0.5445 0.0
C166 C 0.01461 0.5247 0.52888 0.0
C167 C 0.01513 0.52464 0.49719 0.0
C168 C 0.91278 0.80942 0.41878 0.0
C169 C 0.96024 0.79133 0.39869 0.0
O170 O 0.07372 0.30161 0.63458 0.0
O171 O 0.08453 0.30593 0.38679 0.0
O172 O 0.94905 0.74355 0.38919 0.0
O173 O 0.94062 0.74543 0.63583 0.0
H174 H 0.14619 0.31364 0.65649 0.0
H175 H 0.17084 0.29406 0.60387 0.0
H176 H 0.13677 0.2353 0.60625 0.0
H177 H 0.19771 0.2474 0.62793 0.0
H178 H 0.97828 0.32971 0.61744 0.0
H179 H 0.14776 0.37443 0.62322 0.0
H180 H 0.9245 0.44716 0.59882 0.0
H181 H 0.90989 0.38177 0.59795 0.0
H182 H 0.93687 0.41247 0.56527 0.0
H183 H 0.18004 0.45017 0.60556 0.0
H184 H 0.1294 0.49901 0.60688 0.0
H185 H 0.14481 0.46853 0.57223 0.0
H186 H 0.98869 0.79285 0.61055 0.0
H187 H 0.91093 0.84852 0.59889 0.0
H188 H 0.86474 0.81194 0.6219 0.0
H189 H 0.89559 0.78574 0.58853 0.0
H190 H 0.04127 0.72432 0.61464 0.0
H191 H 0.87727 0.66982 0.62922 0.0
H192 H 0.10132 0.60852 0.5935 0.0
H193 H 0.11227 0.6745 0.59431 0.0
H194 H 0.08511 0.64489 0.56158 0.0
H195 H 0.84837 0.59181 0.61192 0.0
H196 H 0.90239 0.54628 0.61428 0.0
H197 H 0.88424 0.57053 0.57869 0.0
H198 H -0.00129 0.79258 0.41186 0.0
H199 H 0.04782 0.72257 0.4114 0.0
H200 H 0.88414 0.66913 0.39645 0.0
H201 H 0.0869 0.64439 0.46531 0.0
H202 H 0.11653 0.67334 0.43276 0.0
H203 H 0.10501 0.60745 0.43338 0.0
H204 H 0.8528 0.59249 0.41466 0.0
H205 H 0.8868 0.57139 0.44781 0.0
H206 H 0.9063 0.54634 0.41214 0.0
H207 H 0.03518 0.25721 0.4103 0.0
H208 H 0.11283 0.20202 0.42326 0.0
H209 H 0.12625 0.2646 0.43476 0.0
H210 H 0.16024 0.23994 0.40184 0.0
H211 H 0.14987 0.37978 0.39488 0.0
H212 H 0.98502 0.32729 0.40939 0.0
H213 H 0.1455 0.47684 0.44744 0.0
H214 H 0.12795 0.50255 0.41214 0.0
H215 H 0.18095 0.45599 0.41398 0.0
H216 H 0.9157 0.37659 0.43162 0.0
H217 H 0.92754 0.44243 0.4326 0.0
H218 H 0.94391 0.40559 0.46429 0.0
H219 H 0.01339 0.5249 0.61578 0.0
H220 H 0.97275 0.64427 0.54014 0.0
H221 H 0.97374 0.64418 0.48688 0.0
H222 H 0.01695 0.52463 0.4103 0.0
H223 H 0.05592 0.4048 0.48588 0.0
H224 H 0.0547 0.4048 0.53919 0.0
H225 H 0.87336 0.80922 0.40643 0.0
H226 H 0.92109 0.84745 0.42698 0.0
H227 H 0.90832 0.78485 0.4384 0.0
O228 O 0.93203 0.00463 0.23651 0.0
Cd229 Cd 0.00021 0.97455 0.25655 0.0
Cd230 Cd 0.03451 0.07119 0.25498 0.0
O231 O 0.96358 0.08038 0.23064 0.0
O232 O 0.97634 0.90859 0.27131 0.0
O233 O 0.00368 0.96894 0.30114 0.0
C234 C 0.98625 0.92416 0.29793 0.0
C235 C 0.0464 0.12356 0.29581 0.0
C236 C 0.92596 0.04831 0.22692 0.0
C237 C 0.11013 0.99459 0.22756 0.0
O238 O 0.10373 0.03926 0.23569 0.0
O239 O 0.07224 0.96307 0.23238 0.0
O240 O 0.05753 0.13792 0.26903 0.0
O241 O 0.02866 0.07898 0.29947 0.0
O242 O 0.97689 0.08595 0.79104 0.0
Cd243 Cd 0.05054 0.07337 0.76904 0.0
Cd244 Cd 0.01104 0.97905 0.76501 0.0
O245 O 0.94704 0.00898 0.79019 0.0
O246 O 0.08051 0.14036 0.76033 0.0
O247 O 0.05731 0.08728 0.72503 0.0
C248 C 0.07558 0.13043 0.73236 0.0
C249 C 0.99099 0.92837 0.72423 0.0
C250 C 0.94116 0.05374 0.7983 0.0
C251 C 0.11541 0.99308 0.79882 0.0
O252 O 0.08117 0.9625 0.7881 0.0
O253 O 0.11062 0.03904 0.79388 0.0
O254 O 0.98239 0.91397 0.75122 0.0
O255 O 0.01043 0.9723 0.72023 0.0
C256 C 0.26187 0.99254 0.20644 0.0
C257 C 0.26852 0.94422 0.19549 0.0
H258 H 0.20662 0.04659 0.22476 0.0
C259 C 0.22181 0.91383 0.19288 0.0
H260 H 0.29712 0.01682 0.2086 0.0
C261 C 0.16993 0.93065 0.20244 0.0
C262 C 0.16363 0.97842 0.21446 0.0
H263 H 0.22578 0.87653 0.1843 0.0
H264 H 0.13502 0.90584 0.20101 0.0
C265 C 0.20997 0.00957 0.21567 0.0
C266 C 0.08111 0.2008 0.65949 0.0
C267 C 0.11136 0.24309 0.66753 0.0
H268 H 0.04686 0.13157 0.67352 0.0
C269 C 0.13043 0.24737 0.69686 0.0
H270 H 0.06549 0.19668 0.63712 0.0
C271 C 0.11918 0.21052 0.71773 0.0
C272 C 0.08913 0.16822 0.7097 0.0
H273 H 0.1538 0.27945 0.70374 0.0
H274 H 0.13411 0.21524 0.74021 0.0
C275 C 0.07052 0.16353 0.6803 0.0
C276 C 0.81615 0.12382 0.1887 0.0
C277 C 0.76962 0.09322 0.19192 0.0
H278 H 0.90212 0.13378 0.19732 0.0
C279 C 0.77591 0.04642 0.20471 0.0
H280 H 0.81249 0.15992 0.17869 0.0
C281 C 0.82717 0.03118 0.21505 0.0
C282 C 0.87323 0.06263 0.21311 0.0
H283 H 0.74082 0.02199 0.20737 0.0
H284 H 0.83017 0.99534 0.22545 0.0
C285 C 0.86738 0.10882 0.19937 0.0
C286 C 0.99369 0.87061 0.64699 0.0
C287 C 0.96236 0.82751 0.65152 0.0
H288 H 0.02709 0.93655 0.66633 0.0
C289 C 0.93857 0.81918 0.67982 0.0
H290 H 0.0115 0.87844 0.62524 0.0
C291 C 0.94784 0.85209 0.70332 0.0
C292 C 0.97991 0.89474 0.69891 0.0
H293 H 0.91292 0.78713 0.6839 0.0
H294 H 0.92956 0.8442 0.72495 0.0
C295 C 0.00228 0.90397 0.67042 0.0
C296 C 0.19823 0.98616 0.86906 0.0
C297 C 0.21388 0.93623 0.86913 0.0
H298 H 0.15589 0.04368 0.84627 0.0
C299 C 0.20394 0.9072 0.84365 0.0
H300 H 0.20613 0.00968 0.88814 0.0
C301 C 0.17415 0.9264 0.81993 0.0
C302 C 0.15562 0.9755 0.82074 0.0
H303 H 0.2171 0.86907 0.84258 0.0
H304 H 0.16419 0.90244 0.80135 0.0
C305 C 0.16979 0.00573 0.84499 0.0
C306 C 0.03504 0.18022 0.37316 0.0
C307 C 0.06542 0.2241 0.3697 0.0
H308 H 0.00536 0.11386 0.35263 0.0
C309 C 0.09081 0.23378 0.34194 0.0
H310 H 0.01598 0.17138 0.39446 0.0
C311 C 0.08429 0.20121 0.31798 0.0
C312 C 0.05348 0.15759 0.32139 0.0
H313 H 0.11573 0.26653 0.33868 0.0
H314 H 0.10397 0.20998 0.29683 0.0
C315 C 0.02924 0.14723 0.34929 0.0
C316 C 0.84413 0.13103 0.84579 0.0
C317 C 0.82865 0.09713 0.86805 0.0
H318 H 0.89276 0.1439 0.8063 0.0
C319 C 0.84395 0.0474 0.86449 0.0
H320 H 0.83124 0.1692 0.84716 0.0
C321 C 0.87749 0.03259 0.84049 0.0
C322 C 0.89696 0.06737 0.81977 0.0
H323 H 0.83163 0.0202 0.88087 0.0
H324 H 0.89076 0.99446 0.83918 0.0
C325 C 0.87888 0.11647 0.8222 0.0
C326 C 0.99741 0.86944 0.37519 0.0
C327 C 0.96726 0.82537 0.37219 0.0
H328 H 0.02684 0.93547 0.35417 0.0
C329 C 0.94157 0.81523 0.34491 0.0
H330 H 0.01668 0.87864 0.39614 0.0
C331 C 0.94783 0.84739 0.32087 0.0
C332 C 0.97866 0.89105 0.32376 0.0
H333 H 0.91677 0.78234 0.34204 0.0
H334 H 0.92812 0.83816 0.30005 0.0
C335 C 0.00293 0.90204 0.35125 0.0
loop_
_geom_bond_atom_site_label_1
_geom_bond_atom_site_label_2
_geom_bond_distance
_geom_bond_site_symmetry_2
_ccdc_geom_bond_type
C0 C1 1.560 . S
C0 H61 0.959 . S
C0 H62 0.959 . S
C0 H63 0.960 . S
C1 C0 1.560 . S
C1 O56 1.426 . S
C1 H60 0.980 . S
C2 C3 1.407 1_545 S
C2 C7 1.418 . S
C2 O56 1.334 . S
C3 C2 1.407 1_565 S
C3 C4 1.360 . S
C3 H64 0.929 . S
C4 C3 1.360 . S
C4 C5 1.401 1_565 S
C4 C8 1.527 . S
C5 C4 1.401 1_545 S
C5 C6 1.405 . S
C5 C38 1.587 1_545 S
C6 C5 1.405 . S
C6 C7 1.332 . S
C6 C9 1.496 . S
C7 C2 1.418 . S
C7 C6 1.332 . S
C7 H65 0.929 . S
C8 C4 1.527 . S
C8 H66 0.959 . S
C8 H67 0.961 . S
C8 H68 0.961 . S
C9 C6 1.496 . S
C9 H69 0.960 . S
C9 H70 0.960 . S
C9 H71 0.961 . S
C10 C11 1.517 . S
C10 H73 0.961 1_565 S
C10 H74 0.960 . S
C10 H75 0.959 . S
C11 C10 1.517 . S
C11 O59 1.468 . S
C11 H72 0.980 1_565 S
C12 C13 1.349 1_565 S
C12 C17 1.367 . S
C12 O59 1.408 . S
C13 C12 1.349 1_545 S
C13 C14 1.407 . S
C13 H76 0.930 . S
C14 C13 1.407 . S
C14 C15 1.449 1_545 S
C14 C18 1.535 . S
C15 C14 1.449 1_565 S
C15 C16 1.384 . S
C15 C40 1.553 . S
C16 C15 1.384 . S
C16 C17 1.364 . S
C16 C19 1.450 . S
C17 C12 1.367 . S
C17 C16 1.364 . S
C17 H77 0.931 . S
C18 C14 1.535 . S
C18 H78 0.959 . S
C18 H79 0.961 . S
C18 H80 0.959 . S
C19 C16 1.450 . S
C19 H81 0.960 . S
C19 H82 0.960 . S
C19 H83 0.960 . S
C20 C21 1.309 1_565 S
C20 C25 1.304 . S
C20 O58 1.435 . S
C21 C20 1.309 1_545 S
C21 C22 1.476 . S
C21 H85 0.930 . S
C22 C21 1.476 . S
C22 C23 1.400 1_545 S
C22 C26 1.567 . S
C23 C22 1.400 1_565 S
C23 C24 1.373 . S
C23 C45 1.432 . S
C24 C23 1.373 . S
C24 C25 1.339 . S
C24 C27 1.530 . S
C25 C20 1.304 . S
C25 C24 1.339 . S
C25 H86 0.930 . S
C26 C22 1.567 . S
C26 H87 0.961 . S
C26 H88 0.960 . S
C26 H89 0.958 . S
C27 C24 1.530 . S
C27 H90 0.961 . S
C27 H91 0.960 . S
C27 H92 0.960 . S
C28 C29 1.530 . S
C28 H94 0.961 . S
C28 H95 0.961 . S
C28 H96 0.959 . S
C29 C28 1.530 . S
C29 O57 1.412 . S
C29 H93 0.980 . S
C30 C31 1.288 . S
C30 C35 1.377 1_545 S
C30 O57 1.393 . S
C31 C30 1.288 . S
C31 C32 1.369 . S
C31 H97 0.932 . S
C32 C31 1.369 . S
C32 C33 1.398 . S
C32 C36 1.527 . S
C33 C32 1.398 . S
C33 C34 1.380 1_545 S
C33 C47 1.497 . S
C34 C33 1.380 1_565 S
C34 C35 1.383 . S
C34 C37 1.603 . S
C35 C30 1.377 1_565 S
C35 C34 1.383 . S
C35 H98 0.929 . S
C36 C32 1.527 . S
C36 H99 0.961 . S
C36 H100 0.959 . S
C36 H101 0.959 . S
C37 C34 1.603 . S
C37 H102 0.960 . S
C37 H103 0.962 . S
C37 H104 0.961 . S
C38 C5 1.587 1_565 S
C38 C39 1.360 . S
C38 C51 1.412 . S
C39 C38 1.360 . S
C39 C40 1.365 . S
C39 H105 0.929 . S
C40 C15 1.553 . S
C40 C39 1.365 . S
C40 C41 1.404 . S
C41 C40 1.404 . S
C41 C42 1.395 . S
C41 C52 1.451 . S
C42 C41 1.395 . S
C42 C43 1.322 . S
C42 H106 0.930 . S
C43 C42 1.322 . S
C43 C44 1.459 1_554 S
C43 H107 0.929 1_554 S
C44 C43 1.459 1_556 S
C44 C45 1.445 . S
C44 C53 1.395 1_556 S
C45 C23 1.432 . S
C45 C44 1.445 . S
C45 C46 1.370 . S
C46 C45 1.370 . S
C46 C47 1.438 1_565 S
C46 H108 0.930 . S
C47 C33 1.497 . S
C47 C46 1.438 1_545 S
C47 C48 1.359 1_545 S
C48 C47 1.359 1_565 S
C48 C49 1.399 1_566 S
C48 C53 1.448 1_556 S
C49 C48 1.399 1_544 S
C49 C50 1.347 . S
C49 H109 0.929 1_554 S
C50 C49 1.347 . S
C50 C51 1.455 1_545 S
C50 H110 0.930 . S
C51 C38 1.412 . S
C51 C50 1.455 1_565 S
C51 C52 1.331 . S
C52 C41 1.451 . S
C52 C51 1.331 . S
C52 C53 1.497 . S
C53 C44 1.395 1_554 S
C53 C48 1.448 1_554 S
C53 C52 1.497 . S
C54 C55 1.582 1_565 S
C54 H111 0.962 . S
C54 H112 0.959 . S
C54 H113 0.958 . S
C55 C54 1.582 1_545 S
C55 O58 1.458 1_545 S
C55 H84 0.980 . S
O56 C1 1.426 . S
O56 C2 1.334 . S
O57 C29 1.412 . S
O57 C30 1.393 . S
O58 C20 1.435 . S
O58 C55 1.458 1_565 S
O59 C11 1.468 . S
O59 C12 1.408 . S
H60 C1 0.980 . S
H61 C0 0.959 . S
H62 C0 0.959 . S
H63 C0 0.960 . S
H64 C3 0.929 . S
H65 C7 0.929 . S
H66 C8 0.959 . S
H67 C8 0.961 . S
H68 C8 0.961 . S
H69 C9 0.960 . S
H70 C9 0.960 . S
H71 C9 0.961 . S
H72 C11 0.980 1_545 S
H73 C10 0.961 1_545 S
H74 C10 0.960 . S
H75 C10 0.959 . S
H76 C13 0.930 . S
H77 C17 0.931 . S
H78 C18 0.959 . S
H79 C18 0.961 . S
H80 C18 0.959 . S
H81 C19 0.960 . S
H82 C19 0.960 . S
H83 C19 0.960 . S
H84 C55 0.980 . S
H85 C21 0.930 . S
H86 C25 0.930 . S
H87 C26 0.961 . S
H88 C26 0.960 . S
H89 C26 0.958 . S
H90 C27 0.961 . S
H91 C27 0.960 . S
H92 C27 0.960 . S
H93 C29 0.980 . S
H94 C28 0.961 . S
H95 C28 0.961 . S
H96 C28 0.959 . S
H97 C31 0.932 . S
H98 C35 0.929 . S
H99 C36 0.961 . S
H100 C36 0.959 . S
H101 C36 0.959 . S
H102 C37 0.960 . S
H103 C37 0.962 . S
H104 C37 0.961 . S
H105 C39 0.929 . S
H106 C42 0.930 . S
H107 C43 0.929 1_556 S
H108 C46 0.930 . S
H109 C49 0.929 1_556 S
H110 C50 0.930 . S
H111 C54 0.962 . S
H112 C54 0.959 . S
H113 C54 0.958 . S
C114 C115 1.560 . S
C114 H175 0.959 . S
C114 H176 0.959 . S
C114 H177 0.960 . S
C115 C114 1.560 . S
C115 O170 1.426 . S
C115 H174 0.980 . S
C116 C117 1.407 . S
C116 C121 1.418 . S
C116 O170 1.334 . S
C117 C116 1.407 . S
C117 C118 1.360 1_455 S
C117 H178 0.929 1_455 S
C118 C117 1.360 1_655 S
C118 C119 1.401 1_655 S
C118 C122 1.527 . S
C119 C118 1.401 1_455 S
C119 C120 1.405 . S
C119 C152 1.587 . S
C120 C119 1.405 . S
C120 C121 1.332 . S
C120 C123 1.496 . S
C121 C116 1.418 . S
C121 C120 1.332 . S
C121 H179 0.929 . S
C122 C118 1.527 . S
C122 H180 0.959 . S
C122 H181 0.961 . S
C122 H182 0.961 . S
C123 C120 1.496 . S
C123 H183 0.960 . S
C123 H184 0.960 . S
C123 H185 0.961 . S
C124 C125 1.517 1_655 S
C124 H187 0.961 1_655 S
C124 H188 0.960 . S
C124 H189 0.959 . S
C125 C124 1.517 1_455 S
C125 O173 1.468 1_455 S
C125 H186 0.980 . S
C126 C127 1.349 1_655 S
C126 C131 1.367 . S
C126 O173 1.408 . S
C127 C126 1.349 1_455 S
C127 C128 1.407 . S
C127 H190 0.930 . S
C128 C127 1.407 . S
C128 C129 1.449 1_455 S
C128 C132 1.535 . S
C129 C128 1.449 1_655 S
C129 C130 1.384 . S
C129 C154 1.553 . S
C130 C129 1.384 . S
C130 C131 1.364 . S
C130 C133 1.450 . S
C131 C126 1.367 . S
C131 C130 1.364 . S
C131 H191 0.931 . S
C132 C128 1.535 . S
C132 H192 0.959 . S
C132 H193 0.961 . S
C132 H194 0.959 . S
C133 C130 1.450 . S
C133 H195 0.960 . S
C133 H196 0.960 . S
C133 H197 0.960 . S
C134 C135 1.309 1_655 S
C134 C139 1.304 . S
C134 O172 1.435 . S
C135 C134 1.309 1_455 S
C135 C136 1.476 . S
C135 H199 0.930 . S
C136 C135 1.476 . S
C136 C137 1.400 1_455 S
C136 C140 1.567 . S
C137 C136 1.400 1_655 S
C137 C138 1.373 . S
C137 C159 1.432 1_655 S
C138 C137 1.373 . S
C138 C139 1.339 . S
C138 C141 1.530 . S
C139 C134 1.304 . S
C139 C138 1.339 . S
C139 H200 0.930 . S
C140 C136 1.567 . S
C140 H201 0.961 . S
C140 H202 0.960 . S
C140 H203 0.958 . S
C141 C138 1.530 . S
C141 H204 0.961 . S
C141 H205 0.960 . S
C141 H206 0.960 . S
C142 C143 1.530 . S
C142 H208 0.961 . S
C142 H209 0.961 . S
C142 H210 0.959 . S
C143 C142 1.530 . S
C143 O171 1.412 . S
C143 H207 0.980 . S
C144 C145 1.288 . S
C144 C149 1.377 . S
C144 O171 1.393 . S
C145 C144 1.288 . S
C145 C146 1.369 . S
C145 H211 0.932 . S
C146 C145 1.369 . S
C146 C147 1.398 . S
C146 C150 1.527 . S
C147 C146 1.398 . S
C147 C148 1.380 1_455 S
C147 C161 1.497 . S
C148 C147 1.380 1_655 S
C148 C149 1.383 1_655 S
C148 C151 1.603 . S
C149 C144 1.377 . S
C149 C148 1.383 1_455 S
C149 H212 0.929 1_455 S
C150 C146 1.527 . S
C150 H213 0.961 . S
C150 H214 0.959 . S
C150 H215 0.959 . S
C151 C148 1.603 . S
C151 H216 0.960 . S
C151 H217 0.962 . S
C151 H218 0.961 . S
C152 C119 1.587 . S
C152 C153 1.360 1_455 S
C152 C165 1.412 . S
C153 C152 1.360 1_655 S
C153 C154 1.365 . S
C153 H219 0.929 . S
C154 C129 1.553 . S
C154 C153 1.365 . S
C154 C155 1.404 . S
C155 C154 1.404 . S
C155 C156 1.395 . S
C155 C166 1.451 . S
C156 C155 1.395 . S
C156 C157 1.322 . S
C156 H220 0.930 . S
C157 C156 1.322 . S
C157 C158 1.459 . S
C157 H221 0.929 . S
C158 C157 1.459 . S
C158 C159 1.445 1_655 S
C158 C167 1.395 1_655 S
C159 C137 1.432 1_455 S
C159 C158 1.445 1_455 S
C159 C160 1.370 . S
C160 C159 1.370 . S
C160 C161 1.438 . S
C160 H222 0.930 . S
C161 C147 1.497 . S
C161 C160 1.438 . S
C161 C162 1.360 . S
C162 C161 1.360 . S
C162 C163 1.401 . S
C162 C167 1.446 . S
C163 C162 1.401 . S
C163 C164 1.347 . S
C163 H223 0.929 . S
C164 C163 1.347 . S
C164 C165 1.455 . S
C164 H224 0.930 . S
C165 C152 1.412 . S
C165 C164 1.455 . S
C165 C166 1.331 1_455 S
C166 C155 1.451 . S
C166 C165 1.331 1_655 S
C166 C167 1.497 1_655 S
C167 C158 1.395 1_455 S
C167 C162 1.446 . S
C167 C166 1.497 1_455 S
C168 C169 1.582 1_655 S
C168 H225 0.962 1_655 S
C168 H226 0.959 . S
C168 H227 0.958 . S
C169 C168 1.582 1_455 S
C169 O172 1.458 1_455 S
C169 H198 0.980 . S
O170 C115 1.426 . S
O170 C116 1.334 . S
O171 C143 1.412 . S
O171 C144 1.393 . S
O172 C134 1.435 . S
O172 C169 1.458 1_655 S
O173 C125 1.468 1_655 S
O173 C126 1.408 . S
H174 C115 0.980 . S
H175 C114 0.959 . S
H176 C114 0.959 . S
H177 C114 0.960 . S
H178 C117 0.929 1_655 S
H179 C121 0.929 . S
H180 C122 0.959 . S
H181 C122 0.961 . S
H182 C122 0.961 . S
H183 C123 0.960 . S
H184 C123 0.960 . S
H185 C123 0.961 . S
H186 C125 0.980 . S
H187 C124 0.961 1_455 S
H188 C124 0.960 . S
H189 C124 0.959 . S
H190 C127 0.930 . S
H191 C131 0.931 . S
H192 C132 0.959 . S
H193 C132 0.961 . S
H194 C132 0.959 . S
H195 C133 0.960 . S
H196 C133 0.960 . S
H197 C133 0.960 . S
H198 C169 0.980 . S
H199 C135 0.930 . S
H200 C139 0.930 . S
H201 C140 0.961 . S
H202 C140 0.960 . S
H203 C140 0.958 . S
H204 C141 0.961 . S
H205 C141 0.960 . S
H206 C141 0.960 . S
H207 C143 0.980 . S
H208 C142 0.961 . S
H209 C142 0.961 . S
H210 C142 0.959 . S
H211 C145 0.932 . S
H212 C149 0.929 1_655 S
H213 C150 0.961 . S
H214 C150 0.959 . S
H215 C150 0.959 . S
H216 C151 0.960 . S
H217 C151 0.962 . S
H218 C151 0.961 . S
H219 C153 0.929 . S
H220 C156 0.930 . S
H221 C157 0.929 . S
H222 C160 0.930 . S
H223 C163 0.929 . S
H224 C164 0.930 . S
H225 C168 0.962 1_455 S
H226 C168 0.959 . S
H227 C168 0.958 . S
O228 Cd229 2.223 . S
O228 C236 1.315 1_455 S
Cd229 O228 2.223 . S
Cd229 O232 2.297 . S
Cd229 O233 2.439 . S
Cd229 O239 2.240 1_565 S
Cd230 O231 2.241 1_455 S
Cd230 O238 2.222 . S
Cd230 O240 2.296 . S
Cd230 O241 2.438 . S
O231 Cd230 2.241 1_655 S
O231 C236 1.279 1_545 S
O232 Cd229 2.297 . S
O232 C234 1.247 . S
O233 Cd229 2.439 . S
O233 C234 1.208 . S
C234 O232 1.247 . S
C234 O233 1.208 . S
C235 O240 1.247 . S
C235 O241 1.208 . S
C236 O228 1.315 1_655 S
C236 O231 1.279 1_565 S
C237 O238 1.315 . S
C237 O239 1.279 . S
O238 Cd230 2.222 . S
O238 C237 1.315 . S
O239 Cd229 2.240 1_545 S
O239 C237 1.279 . S
O240 Cd230 2.296 . S
O240 C235 1.247 . S
O241 Cd230 2.438 . S
O241 C235 1.208 . S
O242 Cd243 2.223 . S
O242 C250 1.315 1_455 S
Cd243 O242 2.223 . S
Cd243 O246 2.297 . S
Cd243 O247 2.439 . S
Cd243 O253 2.240 . S
Cd244 O245 2.241 1_565 S
Cd244 O252 2.221 1_655 S
Cd244 O254 2.296 1_655 S
Cd244 O255 2.437 1_655 S
O245 Cd244 2.241 1_545 S
O245 C250 1.279 . S
O246 Cd243 2.297 . S
O246 C248 1.247 . S
O247 Cd243 2.439 . S
O247 C248 1.208 . S
C248 O246 1.247 . S
C248 O247 1.208 . S
C249 O254 1.247 . S
C249 O255 1.208 . S
C250 O242 1.315 1_655 S
C250 O245 1.279 . S
C251 O252 1.315 . S
C251 O253 1.279 1_565 S
O252 Cd244 2.221 1_455 S
O252 C251 1.315 . S
O253 Cd243 2.240 . S
O253 C251 1.279 1_545 S
O254 Cd244 2.296 1_455 S
O254 C249 1.247 . S
O255 Cd244 2.437 1_455 S
O255 C249 1.208 . S
C256 C257 1.387 . S
C256 H260 0.950 . S
C256 C265 1.390 . S
C257 C256 1.387 . S
C257 C259 1.387 1_545 S
H258 C265 0.950 . S
C259 C257 1.387 1_565 S
C259 C261 1.390 . S
C259 H263 0.950 . S
H260 C256 0.950 . S
C261 C259 1.390 . S
C261 C262 1.387 1_565 S
C261 H264 0.950 . S
C262 C261 1.387 1_545 S
C262 C265 1.387 . S
H263 C259 0.950 . S
H264 C261 0.950 . S
C265 C256 1.390 . S
C265 H258 0.950 . S
C265 C262 1.387 . S
C266 C267 1.387 . S
C266 H270 0.950 . S
C266 C275 1.390 1_455 S
C267 C266 1.387 . S
C267 C269 1.387 . S
H268 C275 0.950 . S
C269 C267 1.387 . S
C269 C271 1.390 . S
C269 H273 0.950 . S
H270 C266 0.950 . S
C271 C269 1.390 . S
C271 C272 1.387 . S
C271 H274 0.950 . S
C272 C271 1.387 . S
C272 C275 1.387 1_455 S
H273 C269 0.950 . S
H274 C271 0.950 . S
C275 C266 1.390 1_655 S
C275 H268 0.950 . S
C275 C272 1.387 1_655 S
C276 C277 1.387 . S
C276 H280 0.950 . S
C276 C285 1.390 . S
C277 C276 1.387 . S
C277 C279 1.387 1_545 S
H278 C285 0.950 . S
C279 C277 1.387 1_565 S
C279 C281 1.390 . S
C279 H283 0.950 . S
H280 C276 0.950 . S
C281 C279 1.390 . S
C281 C282 1.387 1_565 S
C281 H284 0.950 . S
C282 C281 1.387 1_545 S
C282 C285 1.387 . S
H283 C279 0.950 . S
H284 C281 0.950 . S
C285 C276 1.390 . S
C285 H278 0.950 . S
C285 C282 1.387 . S
C286 C287 1.387 . S
C286 H290 0.950 . S
C286 C295 1.390 . S
C287 C286 1.387 . S
C287 C289 1.387 . S
H288 C295 0.950 . S
C289 C287 1.387 . S
C289 C291 1.390 . S
C289 H293 0.950 1_455 S
H290 C286 0.950 . S
C291 C289 1.390 . S
C291 C292 1.387 . S
C291 H294 0.950 1_455 S
C292 C291 1.387 . S
C292 C295 1.387 . S
H293 C289 0.950 1_655 S
H294 C291 0.950 1_655 S
C295 C286 1.390 . S
C295 H288 0.950 . S
C295 C292 1.387 . S
C296 C297 1.387 . S
C296 H300 0.950 . S
C296 C305 1.390 . S
C297 C296 1.387 . S
C297 C299 1.387 1_545 S
H298 C305 0.950 . S
C299 C297 1.387 1_565 S
C299 C301 1.390 . S
C299 H303 0.950 . S
H300 C296 0.950 . S
C301 C299 1.390 . S
C301 C302 1.387 . S
C301 H304 0.950 . S
C302 C301 1.387 . S
C302 C305 1.387 1_565 S
H303 C299 0.950 . S
H304 C301 0.950 . S
C305 C296 1.390 . S
C305 H298 0.950 . S
C305 C302 1.387 1_545 S
C306 C307 1.387 1_655 S
C306 H310 0.950 . S
C306 C315 1.390 1_655 S
C307 C306 1.387 1_455 S
C307 C309 1.387 . S
H308 C315 0.950 1_655 S
C309 C307 1.387 . S
C309 C311 1.390 . S
C309 H313 0.950 . S
H310 C306 0.950 . S
C311 C309 1.390 . S
C311 C312 1.387 . S
C311 H314 0.950 . S
C312 C311 1.387 . S
C312 C315 1.387 . S
H313 C309 0.950 . S
H314 C311 0.950 . S
C315 C306 1.390 1_455 S
C315 H308 0.950 1_455 S
C315 C312 1.387 . S
C316 C317 1.387 . S
C316 H320 0.950 . S
C316 C325 1.390 . S
C317 C316 1.387 . S
C317 C319 1.387 1_545 S
H318 C325 0.950 . S
C319 C317 1.387 1_565 S
C319 C321 1.390 . S
C319 H323 0.950 . S
H320 C316 0.950 . S
C321 C319 1.390 . S
C321 C322 1.387 1_565 S
C321 H324 0.950 . S
C322 C321 1.387 1_545 S
C322 C325 1.387 . S
H323 C319 0.950 . S
H324 C321 0.950 . S
C325 C316 1.390 . S
C325 H318 0.950 . S
C325 C322 1.387 . S
C326 C327 1.387 . S
C326 H330 0.950 . S
C326 C335 1.390 . S
C327 C326 1.387 . S
C327 C329 1.387 1_455 S
H328 C335 0.950 . S
C329 C327 1.387 1_655 S
C329 C331 1.390 . S
C329 H333 0.950 . S
H330 C326 0.950 . S
C331 C329 1.390 . S
C331 C332 1.387 1_655 S
C331 H334 0.950 . S
C332 C331 1.387 1_455 S
C332 C335 1.387 . S
H333 C329 0.950 . S
H334 C331 0.950 . S
C335 C326 1.390 . S
C335 H328 0.950 . S
C335 C332 1.387 . S
C262 C237 1.647 . S
C257 C11 1.061 1_545 S
C272 C248 1.420 . S
C267 C115 1.299 . S
C282 C236 1.471 1_545 S
C277 C1 1.200 . S
C292 C249 1.548 . S
C287 C125 1.098 . S
C302 C251 1.674 . S
C297 C55 1.178 . S
C312 C235 1.495 . S
C307 C143 1.158 . S
C322 C250 1.576 . S
C317 C29 1.169 . S
C327 C169 1.141 . S
C332 C234 1.620 . S
