# Generated by pormake.
# Topology ssa, (4,4)-cn, num edge types: 1
# Building blocks:
#     Node 0, Type 0, BuildingBlock: NAWXER_clean_sbu_0, # of connection points: 4
#     Node 1, Type 0, BuildingBlock: NAWXER_clean_sbu_0, # of connection points: 4
#     Node 2, Type 0, BuildingBlock: NAWXER_clean_sbu_0, # of connection points: 4
#     Node 3, Type 0, BuildingBlock: NAWXER_clean_sbu_0, # of connection points: 4
#     Node 4, Type 0, BuildingBlock: NAWXER_clean_sbu_0, # of connection points: 4
#     Node 5, Type 0, BuildingBlock: NAWXER_clean_sbu_0, # of connection points: 4
#     Node 6, Type 1, BuildingBlock: MUDLON_clean_linker_0, # of connection points: 4
#     Node 7, Type 1, BuildingBlock: MUDLON_clean_linker_0, # of connection points: 4
#     Node 8, Type 1, BuildingBlock: MUDLON_clean_linker_0, # of connection points: 4
#     Node 9, Type 1, BuildingBlock: MUDLON_clean_linker_0, # of connection points: 4
#     Node 10, Type 1, BuildingBlock: MUDLON_clean_linker_0, # of connection points: 4
#     Node 11, Type 1, BuildingBlock: MUDLON_clean_linker_0, # of connection points: 4
#     Edge 12, Type (0, 1), BuildingBlock: ZUJKAS_clean_linker_0, # of connection points: 2
#     Edge 13, Type (0, 1), BuildingBlock: ZUJKAS_clean_linker_0, # of connection points: 2
#     Edge 14, Type (0, 1), BuildingBlock: ZUJKAS_clean_linker_0, # of connection points: 2
#     Edge 15, Type (0, 1), BuildingBlock: ZUJKAS_clean_linker_0, # of connection points: 2
#     Edge 16, Type (0, 1), BuildingBlock: ZUJKAS_clean_linker_0, # of connection points: 2
#     Edge 17, Type (0, 1), BuildingBlock: ZUJKAS_clean_linker_0, # of connection points: 2
#     Edge 18, Type (0, 1), BuildingBlock: ZUJKAS_clean_linker_0, # of connection points: 2
#     Edge 19, Type (0, 1), BuildingBlock: ZUJKAS_clean_linker_0, # of connection points: 2
#     Edge 20, Type (0, 1), BuildingBlock: ZUJKAS_clean_linker_0, # of connection points: 2
#     Edge 21, Type (0, 1), BuildingBlock: ZUJKAS_clean_linker_0, # of connection points: 2
#     Edge 22, Type (0, 1), BuildingBlock: ZUJKAS_clean_linker_0, # of connection points: 2
#     Edge 23, Type (0, 1), BuildingBlock: ZUJKAS_clean_linker_0, # of connection points: 2
#     Edge 24, Type (0, 1), BuildingBlock: ZUJKAS_clean_linker_0, # of connection points: 2
#     Edge 25, Type (0, 1), BuildingBlock: ZUJKAS_clean_linker_0, # of connection points: 2
#     Edge 26, Type (0, 1), BuildingBlock: ZUJKAS_clean_linker_0, # of connection points: 2
#     Edge 27, Type (0, 1), BuildingBlock: ZUJKAS_clean_linker_0, # of connection points: 2
#     Edge 28, Type (0, 1), BuildingBlock: ZUJKAS_clean_linker_0, # of connection points: 2
#     Edge 29, Type (0, 1), BuildingBlock: ZUJKAS_clean_linker_0, # of connection points: 2
#     Edge 30, Type (0, 1), BuildingBlock: ZUJKAS_clean_linker_0, # of connection points: 2
#     Edge 31, Type (0, 1), BuildingBlock: ZUJKAS_clean_linker_0, # of connection points: 2
#     Edge 32, Type (0, 1), BuildingBlock: ZUJKAS_clean_linker_0, # of connection points: 2
#     Edge 33, Type (0, 1), BuildingBlock: ZUJKAS_clean_linker_0, # of connection points: 2
#     Edge 34, Type (0, 1), BuildingBlock: ZUJKAS_clean_linker_0, # of connection points: 2
#     Edge 35, Type (0, 1), BuildingBlock: ZUJKAS_clean_linker_0, # of connection points: 2
# Relax obj value: 0.009
# Max RMSD: 0.047
# Mean RMSD: 0.033
data_MOF--net-ssa--node1-NAWXER_clean_sbu_0--node2-MUDLON_clean_linker_0--edge1-ZUJKAS_clean_linker_0
_symmetry_space_group_name_H-M    P1
_symmetry_Int_Tables_number       1
_symmetry_cell_setting            triclinic
loop_
_symmetry_equiv_pos_as_xyz
'x, y, z'
_cell_length_a     83.907483
_cell_length_b     83.969231
_cell_length_c     46.142016
_cell_angle_alpha  89.970439
_cell_angle_beta   89.911811
_cell_angle_gamma 120.02784
loop_
_atom_site_label
_atom_site_type_symbol
_atom_site_fract_x
_atom_site_fract_y
_atom_site_fract_z
_atom_type_partial_charge
C0 C 0.04262 0.54113 0.04524 0.0
C1 C 0.00432 0.4827 0.99596 0.0
O2 O 0.02826 0.5301 0.05984 0.0
Zn3 Zn 0.00503 0.50296 0.05577 0.0
O4 O 0.04539 0.53621 0.02059 0.0
Zn5 Zn 0.02357 0.51207 0.01972 0.0
O6 O 0.00139 0.51768 0.01676 0.0
O7 O 0.98425 0.50713 0.05614 0.0
O8 O 0.01919 0.49632 0.98667 0.0
O9 O 0.99788 0.48365 0.02074 0.0
O10 O 0.00876 0.48999 0.08775 0.0
O11 O 0.02898 0.49739 0.0523 0.0
C12 C 0.98737 0.51511 0.03164 0.0
C13 C 0.02254 0.48969 0.07685 0.0
C14 C 0.53132 0.04039 0.50978 0.0
C15 C 0.55346 0.00145 0.46866 0.0
O16 O 0.52906 0.02738 0.52693 0.0
Zn17 Zn 0.5345 0.0049 0.52719 0.0
O18 O 0.53884 0.04197 0.48522 0.0
Zn19 Zn 0.54272 0.02124 0.48917 0.0
O20 O 0.51499 0.99835 0.48906 0.0
O21 O 0.5101 0.98378 0.5308 0.0
O22 O 0.55384 0.01543 0.45732 0.0
O23 O 0.54677 0.99633 0.49421 0.0
O24 O 0.55113 0.01092 0.55932 0.0
O25 O 0.56331 0.03016 0.52259 0.0
C26 C 0.50427 0.98521 0.50608 0.0
C27 C 0.56472 0.02505 0.54822 0.0
C28 C 0.51633 0.47069 -0.00013 0.0
C29 C 0.53966 0.53034 0.04737 0.0
O30 O 0.51359 0.48209 0.98522 0.0
Zn31 Zn 0.51856 0.50966 0.989 0.0
O32 O 0.524 0.47541 0.02457 0.0
Zn33 Zn 0.52746 0.50005 0.02501 0.0
O34 O 0.49998 0.49529 0.02827 0.0
O35 O 0.49412 0.50674 0.98935 0.0
O36 O 0.53954 0.51624 0.05775 0.0
O37 O 0.53233 0.52934 0.0226 0.0
O38 O 0.53488 0.52179 0.95657 0.0
O39 O 0.54735 0.51333 0.99106 0.0
C40 C 0.48893 0.49852 0.0136 0.0
C41 C 0.54863 0.521 0.96645 0.0
C42 C 0.06589 0.55197 0.5389 0.0
C43 C 0.02365 0.49203 0.58197 0.0
O44 O 0.06678 0.54677 0.56444 0.0
Zn45 Zn 0.04483 0.52244 0.56187 0.0
O46 O 0.05251 0.54134 0.52236 0.0
Zn47 Zn 0.02858 0.51476 0.52321 0.0
O48 O 0.00851 0.51984 0.51984 0.0
O49 O 0.02308 0.52871 0.56161 0.0
O50 O 0.01912 0.49413 0.55632 0.0
O51 O 0.03778 0.50518 0.5939 0.0
O52 O 0.05223 0.50898 0.52923 0.0
O53 O 0.0338 0.50304 0.49159 0.0
C54 C 0.01027 0.52711 0.54464 0.0
C55 C 0.04708 0.5024 0.50367 0.0
C56 C 0.52855 0.97844 0.01096 0.0
C57 C 0.50647 0.016 0.96461 0.0
O58 O 0.53078 0.99195 0.02683 0.0
Zn59 Zn 0.52556 0.01457 0.02418 0.0
O60 O 0.5214 0.9763 0.98598 0.0
Zn61 Zn 0.51757 0.99712 0.98748 0.0
O62 O 0.54527 0.02 0.98635 0.0
O63 O 0.54991 0.03595 0.02652 0.0
O64 O 0.50633 0.00185 0.95455 0.0
O65 O 0.51314 0.02189 0.9899 0.0
O66 O 0.50877 0.00955 0.05597 0.0
O67 O 0.49691 0.98908 0.02084 0.0
C68 C 0.55586 0.03374 0.0024 0.0
C69 C 0.49532 0.99496 0.04574 0.0
C70 C 0.54635 0.51618 0.54874 0.0
C71 C 0.48752 0.49985 0.5034 0.0
O72 O 0.53283 0.51666 0.56035 0.0
Zn73 Zn 0.51645 0.50752 0.52729 0.0
O74 O 0.54495 0.5104 0.52264 0.0
Zn75 Zn 0.5251 0.50017 0.48841 0.0
O76 O 0.53757 0.51804 0.45808 0.0
O77 O 0.53074 0.52938 0.49633 0.0
O78 O 0.49845 0.49757 0.48675 0.0
O79 O 0.49219 0.50515 0.52938 0.0
O80 O 0.5099 0.47948 0.52503 0.0
O81 O 0.5203 0.47518 0.48355 0.0
C82 C 0.53794 0.53159 0.47104 0.0
C83 C 0.51207 0.46886 0.50755 0.0
H84 H 0.3226 0.46532 0.27074 0.0
N85 N 0.29357 0.43103 0.25841 0.0
H86 H 0.34235 0.47385 0.31292 0.0
H87 H 0.28828 0.41101 0.30598 0.0
H88 H 0.30716 0.41986 0.34977 0.0
H89 H 0.30937 0.41369 0.23451 0.0
H90 H 0.33051 0.42364 0.19338 0.0
H91 H 0.3025 0.46086 0.22368 0.0
H92 H 0.32311 0.47065 0.18167 0.0
H93 H 0.28665 0.45726 0.28114 0.0
H94 H 0.26245 0.40633 0.23352 0.0
H95 H 0.25691 0.45565 0.28331 0.0
H96 H 0.23288 0.40528 0.23345 0.0
H97 H 0.17698 0.45759 0.28042 0.0
H98 H 0.16588 0.46831 0.31996 0.0
H99 H 0.14872 0.41726 0.36587 0.0
H100 H 0.1587 0.40609 0.32467 0.0
H101 H 0.13542 0.39902 0.26181 0.0
H102 H 0.11547 0.40422 0.22925 0.0
H103 H 0.16276 0.45387 0.19788 0.0
H104 H 0.18252 0.44867 0.23029 0.0
H105 H 0.20341 0.45479 0.26787 0.0
H106 H 0.23357 0.45786 0.26047 0.0
H107 H 0.20865 0.39861 0.26409 0.0
N108 N 0.17049 0.42241 0.27346 0.0
H109 H 0.17844 0.39579 0.26923 0.0
C110 C 0.30421 0.43727 0.2848 0.0
C111 C 0.31915 0.45526 0.28777 0.0
C112 C 0.33034 0.46023 0.31233 0.0
C113 C 0.3266 0.44751 0.3349 0.0
C114 C 0.31088 0.4299 0.3326 0.0
C115 C 0.29993 0.42483 0.30771 0.0
C116 C 0.3043 0.43641 0.23206 0.0
C117 C 0.31214 0.42599 0.22275 0.0
C118 C 0.32414 0.43168 0.1991 0.0
C119 C 0.32853 0.44796 0.18405 0.0
C120 C 0.32021 0.45815 0.19291 0.0
C121 C 0.30827 0.45248 0.21676 0.0
C122 C 0.27666 0.43158 0.25777 0.0
C123 C 0.27497 0.4458 0.27087 0.0
C124 C 0.25789 0.44496 0.27175 0.0
C125 C 0.24225 0.43018 0.25891 0.0
C126 C 0.24436 0.41658 0.24442 0.0
C127 C 0.26131 0.41722 0.24414 0.0
C128 C 0.16825 0.43078 0.29928 0.0
C129 C 0.17108 0.44876 0.29909 0.0
C130 C 0.16481 0.45498 0.32206 0.0
C131 C 0.15598 0.44355 0.34609 0.0
C132 C 0.15487 0.42625 0.34738 0.0
C133 C 0.16079 0.4199 0.32406 0.0
C134 C 0.16044 0.42342 0.24881 0.0
C135 C 0.14155 0.41067 0.24715 0.0
C136 C 0.13017 0.41369 0.2286 0.0
C137 C 0.13753 0.42963 0.21141 0.0
C138 C 0.15667 0.44163 0.2113 0.0
C139 C 0.16805 0.43855 0.22975 0.0
C140 C 0.18857 0.42495 0.26854 0.0
C141 C 0.20438 0.44246 0.26641 0.0
C142 C 0.22174 0.44419 0.26259 0.0
C143 C 0.22372 0.42849 0.26155 0.0
C144 C 0.20779 0.41104 0.26397 0.0
C145 C 0.19046 0.40935 0.26717 0.0
H146 H 0.74847 0.12472 0.81699 0.0
N147 N 0.76426 0.15651 0.78905 0.0
H148 H 0.72627 0.11519 0.85649 0.0
H149 H 0.75618 0.17942 0.82058 0.0
H150 H 0.7347 0.17034 0.86109 0.0
H151 H 0.73892 0.16598 0.77162 0.0
H152 H 0.71637 0.15134 0.73313 0.0
H153 H 0.76365 0.13333 0.74934 0.0
H154 H 0.74138 0.11889 0.71 0.0
H155 H 0.79705 0.16082 0.80071 0.0
H156 H 0.77035 0.19058 0.77254 0.0
H157 H 0.82703 0.18889 0.7969 0.0
H158 H 0.80015 0.21884 0.76946 0.0
H159 H 0.92113 0.28637 0.79879 0.0
H160 H 0.93445 0.31042 0.83549 0.0
H161 H 0.88113 0.30545 0.84912 0.0
H162 H 0.86819 0.28203 0.81142 0.0
H163 H 0.87262 0.29299 0.76066 0.0
H164 H 0.88684 0.31967 0.72855 0.0
H165 H 0.92865 0.30625 0.70537 0.0
H166 H 0.91411 0.27939 0.73726 0.0
H167 H 0.87544 0.24536 0.81602 0.0
H168 H 0.84524 0.21792 0.81997 0.0
H169 H 0.82835 0.23306 0.74121 0.0
N170 N 0.88768 0.27177 0.77581 0.0
H171 H 0.85822 0.26059 0.7375 0.0
C172 C 0.75405 0.15271 0.8158 0.0
C173 C 0.7458 0.13482 0.82699 0.0
C174 C 0.73314 0.12945 0.84972 0.0
C175 C 0.72855 0.14196 0.86206 0.0
C176 C 0.73763 0.16023 0.85184 0.0
C177 C 0.75015 0.16553 0.8288 0.0
C178 C 0.75294 0.15063 0.76344 0.0
C179 C 0.73983 0.15602 0.75792 0.0
C180 C 0.72693 0.14763 0.73578 0.0
C181 C 0.72692 0.13377 0.71865 0.0
C182 C 0.74077 0.12925 0.72314 0.0
C183 C 0.75362 0.1376 0.74537 0.0
C184 C 0.7815 0.17356 0.78703 0.0
C185 C 0.79769 0.17348 0.79393 0.0
C186 C 0.81478 0.18956 0.79188 0.0
C187 C 0.81603 0.20618 0.78298 0.0
C188 C 0.79972 0.20625 0.77606 0.0
C189 C 0.78262 0.19009 0.77801 0.0
C190 C 0.89375 0.28244 0.80222 0.0
C191 C 0.91225 0.29015 0.81028 0.0
C192 C 0.91981 0.3039 0.83134 0.0
C193 C 0.90893 0.3101 0.84503 0.0
C194 C 0.89002 0.30132 0.83853 0.0
C195 C 0.88252 0.28774 0.8172 0.0
C196 C 0.89233 0.28413 0.75137 0.0
C197 C 0.88449 0.29544 0.74797 0.0
C198 C 0.89276 0.31081 0.72982 0.0
C199 C 0.90909 0.31529 0.71482 0.0
C200 C 0.91604 0.30316 0.71646 0.0
C201 C 0.90772 0.28775 0.73459 0.0
C202 C 0.86927 0.25575 0.77725 0.0
C203 C 0.86517 0.24298 0.79979 0.0
C204 C 0.84791 0.22714 0.80187 0.0
C205 C 0.83428 0.22332 0.78102 0.0
C206 C 0.83838 0.2358 0.75805 0.0
C207 C 0.85566 0.25174 0.75601 0.0
H208 H 0.5783 0.85135 0.25695 0.0
N209 N 0.61175 0.8588 0.23503 0.0
H210 H 0.57312 0.86886 0.29391 0.0
H211 H 0.63693 0.88481 0.26889 0.0
H212 H 0.63186 0.90221 0.30688 0.0
H213 H 0.62975 0.88668 0.19874 0.0
H214 H 0.61717 0.89489 0.15727 0.0
H215 H 0.57761 0.83717 0.21146 0.0
H216 H 0.56475 0.8454 0.17016 0.0
H217 H 0.58688 0.82832 0.26631 0.0
H218 H 0.63464 0.84962 0.21093 0.0
H219 H 0.58768 0.79999 0.27287 0.0
H220 H 0.63486 0.82083 0.21571 0.0
H221 H 0.58065 0.71467 0.26863 0.0
H222 H 0.57068 0.6915 0.30609 0.0
H223 H 0.62372 0.72245 0.3479 0.0
H224 H 0.63406 0.74494 0.3085 0.0
H225 H 0.63826 0.72996 0.24293 0.0
H226 H 0.63117 0.70535 0.20802 0.0
H227 H 0.58122 0.70503 0.18451 0.0
H228 H 0.58832 0.72946 0.21923 0.0
H229 H 0.5846 0.74469 0.25951 0.0
H230 H 0.58277 0.77249 0.25227 0.0
H231 H 0.64223 0.80452 0.24824 0.0
N232 N 0.61617 0.74235 0.25963 0.0
H233 H 0.64372 0.77639 0.25349 0.0
C234 C 0.6081 0.86682 0.26002 0.0
C235 C 0.59009 0.86221 0.26796 0.0
C236 C 0.58713 0.87223 0.28932 0.0
C237 C 0.60208 0.88706 0.30328 0.0
C238 C 0.62004 0.89107 0.29624 0.0
C239 C 0.62298 0.88104 0.27479 0.0
C240 C 0.60462 0.86149 0.20825 0.0
C241 C 0.61569 0.87741 0.19212 0.0
C242 C 0.60848 0.88203 0.16843 0.0
C243 C 0.58994 0.87082 0.16057 0.0
C244 C 0.57904 0.85436 0.17591 0.0
C245 C 0.58637 0.84965 0.19946 0.0
C246 C 0.61101 0.84136 0.23851 0.0
C247 C 0.59751 0.82693 0.25538 0.0
C248 C 0.59787 0.81054 0.25887 0.0
C249 C 0.61147 0.80806 0.2451 0.0
C250 C 0.62449 0.82232 0.22739 0.0
C251 C 0.62431 0.83877 0.22437 0.0
C252 C 0.60834 0.7314 0.28537 0.0
C253 C 0.59008 0.7167 0.28603 0.0
C254 C 0.58431 0.7034 0.30783 0.0
C255 C 0.5965 0.70474 0.32991 0.0
C256 C 0.61412 0.72054 0.33077 0.0
C257 C 0.62001 0.73361 0.30854 0.0
C258 C 0.61388 0.73157 0.23397 0.0
C259 C 0.62612 0.725 0.2295 0.0
C260 C 0.62202 0.71092 0.20962 0.0
C261 C 0.60549 0.70308 0.1939 0.0
C262 C 0.59392 0.71062 0.19671 0.0
C263 C 0.59808 0.72477 0.21647 0.0
C264 C 0.61437 0.75845 0.25651 0.0
C265 C 0.59722 0.75764 0.25668 0.0
C266 C 0.59622 0.77367 0.25288 0.0
C267 C 0.61235 0.79087 0.24939 0.0
C268 C 0.62946 0.79156 0.25002 0.0
C269 C 0.6304 0.77552 0.2533 0.0
H270 H 0.9061 0.60981 0.8048 0.0
N271 N 0.87494 0.59155 0.77553 0.0
H272 H 0.9157 0.59934 0.84735 0.0
H273 H 0.85311 0.5603 0.80691 0.0
H274 H 0.8627 0.54951 0.84923 0.0
H275 H 0.86511 0.55631 0.75991 0.0
H276 H 0.87773 0.54726 0.71973 0.0
H277 H 0.8978 0.61317 0.73443 0.0
H278 H 0.91085 0.60425 0.69427 0.0
H279 H 0.86872 0.61732 0.7964 0.0
H280 H 0.84201 0.56526 0.75182 0.0
H281 H 0.84044 0.61878 0.79378 0.0
H282 H 0.81419 0.56716 0.74723 0.0
H283 H 0.75216 0.62552 0.77383 0.0
H284 H 0.72912 0.62201 0.80975 0.0
H285 H 0.7225 0.56947 0.83501 0.0
H286 H 0.74571 0.57331 0.79995 0.0
H287 H 0.73346 0.56409 0.75073 0.0
H288 H 0.70875 0.55285 0.71554 0.0
H289 H 0.7347 0.60634 0.67461 0.0
H290 H 0.75942 0.61765 0.71059 0.0
H291 H 0.79503 0.62689 0.75721 0.0
H292 H 0.8227 0.62443 0.76145 0.0
H293 H 0.78872 0.56539 0.77029 0.0
N294 N 0.76034 0.60013 0.75786 0.0
H295 H 0.76139 0.56797 0.76392 0.0
C296 C 0.87901 0.58587 0.80267 0.0
C297 C 0.89647 0.5968 0.81477 0.0
C298 C 0.90195 0.59073 0.8389 0.0
C299 C 0.89003 0.5735 0.85144 0.0
C300 C 0.87215 0.56289 0.84016 0.0
C301 C 0.86668 0.569 0.81591 0.0
C302 C 0.88059 0.58552 0.75023 0.0
C303 C 0.87488 0.56686 0.74551 0.0
C304 C 0.8822 0.5617 0.72258 0.0
C305 C 0.89543 0.57504 0.70393 0.0
C306 C 0.90056 0.5936 0.70804 0.0
C307 C 0.8932 0.59875 0.731 0.0
C308 C 0.8577 0.59143 0.77399 0.0
C309 C 0.85678 0.60629 0.78583 0.0
C310 C 0.84062 0.60716 0.78402 0.0
C311 C 0.82498 0.59323 0.76986 0.0
C312 C 0.82582 0.57809 0.75852 0.0
C313 C 0.84191 0.57708 0.76084 0.0
C314 C 0.75066 0.59973 0.78394 0.0
C315 C 0.7462 0.61359 0.7879 0.0
C316 C 0.73288 0.61144 0.80817 0.0
C317 C 0.72373 0.59531 0.82488 0.0
C318 C 0.72933 0.58212 0.82262 0.0
C319 C 0.74267 0.5843 0.80237 0.0
C320 C 0.74841 0.59182 0.73332 0.0
C321 C 0.73431 0.57328 0.73365 0.0
C322 C 0.72005 0.56683 0.71342 0.0
C323 C 0.71958 0.57877 0.69249 0.0
C324 C 0.73448 0.59689 0.69079 0.0
C325 C 0.74872 0.60332 0.71106 0.0
C326 C 0.77613 0.59776 0.76058 0.0
C327 C 0.79364 0.61344 0.75998 0.0
C328 C 0.80943 0.61198 0.76271 0.0
C329 C 0.80806 0.5947 0.76658 0.0
C330 C 0.79042 0.57892 0.76705 0.0
C331 C 0.77463 0.5804 0.76377 0.0
H332 H 0.18349 0.70728 0.29459 0.0
N333 N 0.1809 0.73807 0.28333 0.0
H334 H 0.17482 0.68962 0.33914 0.0
H335 H 0.17182 0.747 0.33351 0.0
H336 H 0.16465 0.73027 0.37937 0.0
H337 H 0.14653 0.72216 0.26425 0.0
H338 H 0.13282 0.70019 0.22459 0.0
H339 H 0.19942 0.72776 0.24533 0.0
H340 H 0.1861 0.70653 0.20486 0.0
H341 H 0.21494 0.74212 0.29265 0.0
H342 H 0.18666 0.77103 0.26831 0.0
H343 H 0.24441 0.77096 0.29092 0.0
H344 H 0.21598 0.80002 0.26706 0.0
H345 H 0.32098 0.84631 0.3007 0.0
H346 H 0.34366 0.85611 0.33957 0.0
H347 H 0.32382 0.89095 0.37375 0.0
H348 H 0.30097 0.88081 0.33486 0.0
H349 H 0.30742 0.89315 0.27216 0.0
H350 H 0.32962 0.91084 0.23402 0.0
H351 H 0.33495 0.8635 0.2135 0.0
H352 H 0.31237 0.84582 0.25113 0.0
H353 H 0.28669 0.8286 0.3252 0.0
H354 H 0.25948 0.79889 0.31986 0.0
H355 H 0.24509 0.8173 0.24201 0.0
N356 N 0.29747 0.85937 0.29011 0.0
H357 H 0.27241 0.84752 0.24744 0.0
C358 C 0.17774 0.72824 0.31039 0.0
C359 C 0.17926 0.71236 0.31286 0.0
C360 C 0.17455 0.70236 0.33875 0.0
C361 C 0.16877 0.70829 0.36312 0.0
C362 C 0.16844 0.72487 0.36099 0.0
C363 C 0.1727 0.73458 0.33486 0.0
C364 C 0.17395 0.72673 0.25775 0.0
C365 C 0.15525 0.71895 0.25109 0.0
C366 C 0.14749 0.70647 0.22827 0.0
C367 C 0.15835 0.70156 0.21139 0.0
C368 C 0.17726 0.70979 0.21759 0.0
C369 C 0.18498 0.72215 0.24062 0.0
C370 C 0.19861 0.75452 0.2807 0.0
C371 C 0.21511 0.75468 0.28678 0.0
C372 C 0.23192 0.77119 0.2859 0.0
C373 C 0.23256 0.78782 0.27894 0.0
C374 C 0.21604 0.78746 0.27211 0.0
C375 C 0.19927 0.77096 0.27298 0.0
C376 C 0.30931 0.86293 0.31487 0.0
C377 C 0.3214 0.85591 0.3167 0.0
C378 C 0.33437 0.86155 0.33893 0.0
C379 C 0.33565 0.87443 0.35963 0.0
C380 C 0.32307 0.88086 0.35838 0.0
C381 C 0.31005 0.87515 0.33616 0.0
C382 C 0.30831 0.86826 0.26458 0.0
C383 C 0.31311 0.88652 0.25896 0.0
C384 C 0.32592 0.89663 0.23739 0.0
C385 C 0.33425 0.88866 0.22098 0.0
C386 C 0.32873 0.87003 0.22563 0.0
C387 C 0.31589 0.85992 0.24725 0.0
C388 C 0.28239 0.84062 0.28602 0.0
C389 C 0.27823 0.82645 0.30635 0.0
C390 C 0.26245 0.8092 0.30338 0.0
C391 C 0.25016 0.80563 0.2804 0.0
C392 C 0.25424 0.81961 0.26004 0.0
C393 C 0.27003 0.83687 0.26297 0.0
H394 H 0.42731 0.12911 0.69327 0.0
N395 N 0.44585 0.15679 0.72957 0.0
H396 H 0.43925 0.12125 0.65051 0.0
H397 H 0.47954 0.1788 0.70416 0.0
H398 H 0.49159 0.17106 0.66149 0.0
H399 H 0.47947 0.16278 0.7482 0.0
H400 H 0.48482 0.14492 0.78424 0.0
H401 H 0.42109 0.13123 0.76464 0.0
H402 H 0.42639 0.1134 0.80162 0.0
H403 H 0.42059 0.1656 0.71613 0.0
H404 H 0.47452 0.1879 0.75396 0.0
H405 H 0.42194 0.19512 0.7229 0.0
H406 H 0.47578 0.21722 0.76168 0.0
H407 H 0.42629 0.27694 0.71314 0.0
H408 H 0.43336 0.29668 0.67024 0.0
H409 H 0.49139 0.32156 0.68899 0.0
H410 H 0.48423 0.30202 0.73175 0.0
H411 H 0.48239 0.29173 0.78161 0.0
H412 H 0.49158 0.31327 0.82222 0.0
H413 H 0.43766 0.30804 0.82223 0.0
H414 H 0.42878 0.28683 0.78121 0.0
H415 H 0.42179 0.24403 0.76311 0.0
H416 H 0.42107 0.21459 0.75995 0.0
H417 H 0.47855 0.24327 0.73544 0.0
N418 N 0.44979 0.27726 0.75189 0.0
H419 H 0.47923 0.27254 0.73966 0.0
C420 C 0.45248 0.15441 0.70199 0.0
C421 C 0.44121 0.13852 0.68597 0.0
C422 C 0.44804 0.13411 0.66153 0.0
C423 C 0.46641 0.1455 0.65274 0.0
C424 C 0.47744 0.16193 0.66794 0.0
C425 C 0.47053 0.1664 0.6923 0.0
C426 C 0.44978 0.14832 0.75364 0.0
C427 C 0.46779 0.15228 0.76001 0.0
C428 C 0.47086 0.14204 0.78082 0.0
C429 C 0.45603 0.12764 0.79577 0.0
C430 C 0.4381 0.12422 0.7902 0.0
C431 C 0.43505 0.13448 0.76932 0.0
C432 C 0.44729 0.17441 0.73463 0.0
C433 C 0.43264 0.17684 0.72613 0.0
C434 C 0.43341 0.19368 0.73023 0.0
C435 C 0.44893 0.20855 0.74305 0.0
C436 C 0.46369 0.20613 0.75152 0.0
C437 C 0.46292 0.18925 0.74729 0.0
C438 C 0.45464 0.28788 0.72552 0.0
C439 C 0.44052 0.2865 0.70769 0.0
C440 C 0.44458 0.29781 0.68334 0.0
C441 C 0.46293 0.31065 0.67629 0.0
C442 C 0.47714 0.31162 0.69367 0.0
C443 C 0.47304 0.30043 0.71818 0.0
C444 C 0.45487 0.28777 0.77829 0.0
C445 C 0.47248 0.29501 0.79059 0.0
C446 C 0.47768 0.30727 0.81393 0.0
C447 C 0.46541 0.31252 0.82524 0.0
C448 C 0.44754 0.30452 0.81371 0.0
C449 C 0.44238 0.29231 0.79047 0.0
C450 C 0.45043 0.26044 0.75145 0.0
C451 C 0.43425 0.2439 0.75734 0.0
C452 C 0.43385 0.22712 0.75527 0.0
C453 C 0.44971 0.22652 0.74711 0.0
C454 C 0.46612 0.24321 0.742 0.0
C455 C 0.4665 0.26002 0.74422 0.0
H456 H 0.04173 0.47542 0.0516 0.0
H457 H 0.05881 0.46263 0.07503 0.0
H458 H 0.04132 0.47106 0.15881 0.0
H459 H 0.02351 0.48337 0.13518 0.0
H460 H 0.08726 0.48071 0.10944 0.0
H461 H 0.0334 0.41983 0.1683 0.0
H462 H 0.02796 0.43174 0.14095 0.0
H463 H 0.03373 0.44081 0.17713 0.0
C464 C 0.0413 0.47434 0.07502 0.0
C465 C 0.03137 0.48049 0.0916 0.0
C466 C 0.05107 0.467 0.08838 0.0
C467 C 0.05131 0.46578 0.11867 0.0
C468 C 0.04104 0.4715 0.13537 0.0
H469 H 0.13954 0.46297 0.21128 0.0
H470 H 0.11841 0.47129 0.18881 0.0
C471 C 0.03096 0.47863 0.1219 0.0
C472 C 0.06354 0.45989 0.13237 0.0
H473 H 0.06457 0.42889 0.17918 0.0
C474 C 0.08224 0.46932 0.1246 0.0
C475 C 0.05699 0.4449 0.15187 0.0
C476 C 0.03689 0.43361 0.15987 0.0
C477 C 0.09459 0.46426 0.13581 0.0
C478 C 0.0882 0.44971 0.15614 0.0
C479 C 0.06946 0.44014 0.16376 0.0
C480 C 0.10086 0.44447 0.16997 0.0
C481 C 0.11428 0.47433 0.12528 0.0
C482 C 0.09775 0.42646 0.16751 0.0
C483 C 0.10979 0.42161 0.18054 0.0
C484 C 0.12516 0.43473 0.19616 0.0
C485 C 0.12812 0.45269 0.19872 0.0
C486 C 0.11602 0.45747 0.18594 0.0
H487 H 0.11552 0.48088 0.10383 0.0
H488 H 0.12283 0.48539 0.14089 0.0
H489 H 0.11995 0.46493 0.12349 0.0
H490 H 0.08608 0.41619 0.15537 0.0
H491 H 0.10714 0.40765 0.17831 0.0
H492 H 0.59691 0.05438 0.52921 0.0
H493 H 0.6252 0.07271 0.55671 0.0
H494 H 0.60009 0.0387 0.63193 0.0
H495 H 0.57162 0.02025 0.60463 0.0
H496 H 0.61809 0.07767 0.64196 0.0
H497 H 0.66263 0.05694 0.58299 0.0
H498 H 0.65032 0.06464 0.56051 0.0
H499 H 0.6378 0.04387 0.58128 0.0
C500 C 0.5974 0.0507 0.55156 0.0
C501 C 0.582 0.03581 0.56471 0.0
C502 C 0.61362 0.06116 0.56718 0.0
C503 C 0.61478 0.05691 0.59621 0.0
C504 C 0.59947 0.04211 0.60947 0.0
H505 H 0.70905 0.09668 0.70891 0.0
H506 H 0.68239 0.07864 0.67797 0.0
C507 C 0.58324 0.03158 0.59383 0.0
C508 C 0.63179 0.06829 0.61299 0.0
H509 H 0.67732 0.08122 0.61694 0.0
C510 C 0.63105 0.07846 0.63655 0.0
C511 C 0.6486 0.06914 0.60592 0.0
C512 C 0.64996 0.05797 0.58146 0.0
C513 C 0.64676 0.08963 0.65311 0.0
C514 C 0.66367 0.09078 0.64569 0.0
C515 C 0.66437 0.08045 0.62233 0.0
C516 C 0.6806 0.10204 0.66274 0.0
C517 C 0.6451 0.09986 0.67875 0.0
C518 C 0.68869 0.12125 0.66382 0.0
C519 C 0.70407 0.13167 0.6813 0.0
C520 C 0.71165 0.12305 0.69796 0.0
C521 C 0.70378 0.10383 0.69607 0.0
C522 C 0.68845 0.09345 0.67854 0.0
H523 H 0.63052 0.09454 0.68513 0.0
H524 H 0.6527 0.09885 0.69769 0.0
H525 H 0.65121 0.11462 0.67308 0.0
H526 H 0.68299 0.12815 0.65135 0.0
H527 H 0.70995 0.14646 0.68193 0.0
H528 H 0.55149 0.5641 0.02418 0.0
H529 H 0.56458 0.5935 0.04912 0.0
H530 H 0.56014 0.56642 0.1307 0.0
H531 H 0.54752 0.53679 0.10551 0.0
H532 H 0.54847 0.60353 0.08805 0.0
H533 H 0.61179 0.60944 0.13591 0.0
H534 H 0.59845 0.59249 0.10878 0.0
H535 H 0.59121 0.58871 0.14609 0.0
C536 C 0.55343 0.56437 0.04742 0.0
C537 C 0.54841 0.5481 0.06293 0.0
C538 C 0.56095 0.58122 0.06165 0.0
C539 C 0.56351 0.58224 0.09175 0.0
C540 C 0.55869 0.56605 0.10737 0.0
H541 H 0.57179 0.67216 0.19513 0.0
H542 H 0.56196 0.64311 0.17014 0.0
C543 C 0.55136 0.54911 0.09301 0.0
C544 C 0.57015 0.60016 0.10661 0.0
H545 H 0.60349 0.63138 0.15147 0.0
C546 C 0.56055 0.60964 0.10183 0.0
C547 C 0.58606 0.60826 0.12425 0.0
C548 C 0.5976 0.5993 0.12887 0.0
C549 C 0.56632 0.6269 0.11428 0.0
C550 C 0.58179 0.63468 0.13284 0.0
C551 C 0.59154 0.62532 0.13742 0.0
C552 C 0.5879 0.65239 0.14797 0.0
C553 C 0.55596 0.63677 0.10689 0.0
C554 C 0.60593 0.66714 0.14445 0.0
C555 C 0.61166 0.68377 0.15896 0.0
C556 C 0.5994 0.68593 0.17713 0.0
C557 C 0.5814 0.67109 0.18067 0.0
C558 C 0.57576 0.65446 0.16643 0.0
H559 H 0.5485 0.63189 0.08599 0.0
H560 H 0.54561 0.634 0.12404 0.0
H561 H 0.56538 0.65187 0.10544 0.0
H562 H 0.61555 0.6658 0.13041 0.0
H563 H 0.62563 0.69496 0.15592 0.0
H564 H 0.01173 0.54415 0.59553 0.0
H565 H 0.99002 0.55289 0.614 0.0
H566 H 0.95819 0.53325 0.53551 0.0
H567 H 0.97988 0.52414 0.51679 0.0
H568 H 0.97918 0.57696 0.59144 0.0
H569 H 0.92049 0.5052 0.60035 0.0
H570 H 0.94387 0.51028 0.59483 0.0
H571 H 0.93116 0.51241 0.56531 0.0
C572 C 1.00016 0.54169 0.58204 0.0
C573 C 0.99748 0.53329 0.55473 0.0
C574 C 0.98778 0.54676 0.59265 0.0
C575 C 0.9724 0.54354 0.57628 0.0
C576 C 0.96985 0.5356 0.54866 0.0
H577 H 0.90458 0.58772 0.64798 0.0
H578 H 0.92174 0.58021 0.61272 0.0
C579 C 0.98229 0.53049 0.53796 0.0
C580 C 0.95898 0.54817 0.58894 0.0
H581 H 0.91585 0.52873 0.61826 0.0
C582 C 0.96522 0.56649 0.59693 0.0
C583 C 0.94086 0.53441 0.59626 0.0
C584 C 0.93363 0.51443 0.58898 0.0
C585 C 0.95409 0.57133 0.61306 0.0
C586 C 0.93611 0.5575 0.62096 0.0
C587 C 0.92961 0.5393 0.612 0.0
C588 C 0.92461 0.56127 0.64109 0.0
C589 C 0.96202 0.591 0.62289 0.0
C590 C 0.92009 0.55272 0.66835 0.0
C591 C 0.9103 0.55693 0.68843 0.0
C592 C 0.90474 0.56976 0.68164 0.0
C593 C 0.90888 0.57797 0.654 0.0
C594 C 0.91866 0.5737 0.63384 0.0
H595 H 0.97715 0.59917 0.61955 0.0
H596 H 0.9556 0.5976 0.61034 0.0
H597 H 0.95903 0.59156 0.64621 0.0
H598 H 0.9246 0.54314 0.67442 0.0
H599 H 0.9076 0.55055 0.70963 0.0
H600 H 0.48666 0.00344 0.09874 0.0
H601 H 0.45829 0.98537 0.1267 0.0
H602 H 0.4365 0.9449 0.05856 0.0
H603 H 0.46474 0.96271 0.03056 0.0
H604 H 0.42079 0.97343 0.11002 0.0
H605 H 0.43237 0.91493 0.13231 0.0
H606 H 0.45053 0.93712 0.12019 0.0
H607 H 0.43387 0.92139 0.09484 0.0
C608 C 0.47583 0.9907 0.08969 0.0
C609 C 0.47803 0.98447 0.06248 0.0
C610 C 0.45964 0.98042 0.10567 0.0
C611 C 0.44544 0.96369 0.09484 0.0
C612 C 0.44743 0.95762 0.0675 0.0
H613 H 0.34066 0.8794 0.16684 0.0
H614 H 0.3669 0.89788 0.1348 0.0
C615 C 0.46357 0.96788 0.05149 0.0
C616 C 0.42851 0.95257 0.1121 0.0
H617 H 0.40373 0.91136 0.14686 0.0
C618 C 0.41705 0.95987 0.11815 0.0
C619 C 0.42366 0.93486 0.12249 0.0
C620 C 0.43579 0.92661 0.11739 0.0
C621 C 0.40072 0.94983 0.13414 0.0
C622 C 0.39597 0.93219 0.14482 0.0
C623 C 0.40738 0.92485 0.13856 0.0
C624 C 0.3796 0.92138 0.16348 0.0
C625 C 0.38857 0.95808 0.13905 0.0
C626 C 0.37812 0.92842 0.19026 0.0
C627 C 0.3632 0.91792 0.20857 0.0
C628 C 0.34951 0.90007 0.20059 0.0
C629 C 0.35101 0.89305 0.17369 0.0
C630 C 0.36595 0.90361 0.15533 0.0
H631 H 0.39119 0.96884 0.12267 0.0
H632 H 0.37378 0.94738 0.13828 0.0
H633 H 0.39152 0.96463 0.16075 0.0
H634 H 0.38874 0.94189 0.19735 0.0
H635 H 0.3627 0.92359 0.22941 0.0
H636 H 0.52399 0.44562 0.48831 0.0
H637 H 0.51524 0.41501 0.50774 0.0
H638 H 0.47686 0.41837 0.56611 0.0
H639 H 0.48561 0.44883 0.54725 0.0
H640 H 0.51821 0.40946 0.57155 0.0
H641 H 0.44793 0.3658 0.52729 0.0
H642 H 0.4649 0.38694 0.51012 0.0
H643 H 0.45257 0.38765 0.5415 0.0
C644 C 0.51346 0.43966 0.50492 0.0
C645 C 0.50552 0.44962 0.51635 0.0
C646 C 0.50851 0.42223 0.516 0.0
C647 C 0.49529 0.41442 0.53813 0.0
C648 C 0.48691 0.42408 0.54876 0.0
H649 H 0.4464 0.33072 0.66422 0.0
H650 H 0.45494 0.35434 0.62701 0.0
C651 C 0.49201 0.44152 0.53807 0.0
C652 C 0.49131 0.39701 0.55233 0.0
H653 H 0.45602 0.35404 0.56841 0.0
C654 C 0.50476 0.39716 0.57048 0.0
C655 C 0.4737 0.38113 0.55096 0.0
C656 C 0.45895 0.38022 0.53125 0.0
C657 C 0.50072 0.38221 0.58875 0.0
C658 C 0.48285 0.3665 0.58815 0.0
C659 C 0.46969 0.36606 0.56889 0.0
C660 C 0.47705 0.35115 0.60914 0.0
C661 C 0.51525 0.38391 0.60978 0.0
C662 C 0.48637 0.34119 0.61108 0.0
C663 C 0.48161 0.32778 0.63258 0.0
C664 C 0.46722 0.32386 0.65211 0.0
C665 C 0.45744 0.33332 0.64932 0.0
C666 C 0.46233 0.34685 0.62809 0.0
H667 H 0.52658 0.39837 0.61209 0.0
H668 H 0.50921 0.37865 0.63153 0.0
H669 H 0.52133 0.37565 0.6018 0.0
H670 H 0.49746 0.34394 0.59623 0.0
H671 H 0.48922 0.32052 0.63401 0.0
H672 H 0.5642 0.0052 0.4117 0.0
H673 H 0.57382 0.98627 0.38472 0.0
H674 H 0.56745 0.95456 0.4618 0.0
H675 H 0.55784 0.97333 0.48894 0.0
H676 H 0.60135 0.96635 0.4286 0.0
H677 H 0.5375 0.93119 0.36245 0.0
H678 H 0.54907 0.95592 0.36299 0.0
H679 H 0.53885 0.94321 0.39563 0.0
C680 C 0.56493 0.99426 0.42295 0.0
C681 C 0.56016 0.99071 0.45244 0.0
C682 C 0.57036 0.98342 0.40748 0.0
C683 C 0.57115 0.96893 0.42125 0.0
C684 C 0.56686 0.96566 0.4508 0.0
H685 H 0.5748 0.87664 0.34418 0.0
H686 H 0.568 0.89662 0.37398 0.0
C687 C 0.56134 0.97639 0.46623 0.0
C688 C 0.57616 0.95693 0.40481 0.0
H689 H 0.561 0.92442 0.35153 0.0
C690 C 0.59257 0.95719 0.41172 0.0
C691 C 0.56452 0.94485 0.3831 0.0
C692 C 0.54641 0.94358 0.37563 0.0
C693 C 0.59778 0.94582 0.39714 0.0
C694 C 0.58631 0.93399 0.37506 0.0
C695 C 0.56979 0.93357 0.36842 0.0
C696 C 0.59118 0.92195 0.3584 0.0
C697 C 0.61537 0.94633 0.40572 0.0
C698 C 0.6065 0.9296 0.33986 0.0
C699 C 0.61034 0.91824 0.32262 0.0
C700 C 0.59891 0.89899 0.32355 0.0
C701 C 0.58377 0.89139 0.34265 0.0
C702 C 0.57991 0.90277 0.35979 0.0
H703 H 0.62044 0.95298 0.42715 0.0
H704 H 0.61337 0.93222 0.40651 0.0
H705 H 0.62616 0.95431 0.38932 0.0
H706 H 0.61518 0.94439 0.3381 0.0
H707 H 0.62189 0.9246 0.30779 0.0
H708 H 0.55793 0.5406 0.91536 0.0
H709 H 0.58775 0.55454 0.8902 0.0
H710 H 0.60902 0.53417 0.95668 0.0
H711 H 0.57951 0.52014 0.98166 0.0
H712 H 0.62324 0.58105 0.91252 0.0
H713 H 0.62043 0.51596 0.881 0.0
H714 H 0.60029 0.51689 0.89219 0.0
H715 H 0.61607 0.51719 0.9188 0.0
C716 C 0.56893 0.53899 0.92447 0.0
C717 C 0.56629 0.52917 0.95043 0.0
C718 C 0.58594 0.547 0.91014 0.0
C719 C 0.60047 0.54515 0.92142 0.0
C720 C 0.59788 0.53546 0.94734 0.0
H721 H 0.71318 0.5789 0.87838 0.0
H722 H 0.68352 0.56822 0.90257 0.0
C723 C 0.58098 0.52751 0.96165 0.0
C724 C 0.61855 0.5536 0.90663 0.0
H725 H 0.64955 0.54332 0.87684 0.0
C726 C 0.62896 0.57284 0.90444 0.0
C727 C 0.62594 0.54281 0.89624 0.0
C728 C 0.61505 0.52206 0.89689 0.0
C729 C 0.64686 0.58161 0.89286 0.0
C730 C 0.65436 0.5708 0.88294 0.0
C731 C 0.64382 0.55157 0.88476 0.0
C732 C 0.67297 0.57904 0.86997 0.0
C733 C 0.65778 0.60234 0.89203 0.0
C734 C 0.6769 0.58882 0.84383 0.0
C735 C 0.69376 0.59486 0.82993 0.0
C736 C 0.70701 0.59115 0.84184 0.0
C737 C 0.70324 0.58185 0.86854 0.0
C738 C 0.68634 0.5758 0.88241 0.0
H739 H 0.65196 0.60856 0.90687 0.0
H740 H 0.67237 0.60747 0.89801 0.0
H741 H 0.65752 0.60711 0.8697 0.0
H742 H 0.66662 0.59112 0.83354 0.0
H743 H 0.69602 0.60162 0.8091 0.0
H744 H 0.08742 0.58427 0.56858 0.0
H745 H 0.10768 0.61482 0.54706 0.0
H746 H 0.09667 0.59036 0.46198 0.0
H747 H 0.07623 0.56027 0.48301 0.0
H748 H 0.13898 0.63008 0.51065 0.0
H749 H 0.0796 0.62781 0.45517 0.0
H750 H 0.07688 0.61187 0.48359 0.0
H751 H 0.08133 0.60787 0.44687 0.0
C752 C 0.08953 0.58548 0.54534 0.0
C753 C 0.08001 0.57 0.52739 0.0
C754 C 0.10105 0.60288 0.5331 0.0
C755 C 0.10325 0.60489 0.50286 0.0
C756 C 0.09474 0.58921 0.48527 0.0
H757 H 0.1801 0.6852 0.38617 0.0
H758 H 0.1653 0.66257 0.42449 0.0
C759 C 0.0831 0.57201 0.49734 0.0
C760 C 0.11363 0.62326 0.48901 0.0
H761 H 0.10939 0.64886 0.43553 0.0
C762 C 0.13251 0.63442 0.49456 0.0
C763 C 0.10508 0.62915 0.46863 0.0
C764 C 0.08456 0.61864 0.46345 0.0
C765 C 0.14329 0.65078 0.47889 0.0
C766 C 0.13501 0.65575 0.45655 0.0
C767 C 0.11591 0.64507 0.45233 0.0
C768 C 0.14573 0.6712 0.43601 0.0
C769 C 0.16338 0.66248 0.48648 0.0
C770 C 0.13962 0.68356 0.42921 0.0
C771 C 0.14748 0.69598 0.40628 0.0
C772 C 0.16194 0.6966 0.38978 0.0
C773 C 0.16875 0.68493 0.39779 0.0
C774 C 0.16055 0.67219 0.4203 0.0
H775 H 0.16573 0.66108 0.5098 0.0
H776 H 0.17148 0.65775 0.47379 0.0
H777 H 0.16862 0.67723 0.48162 0.0
H778 H 0.12817 0.68307 0.44088 0.0
H779 H 0.14155 0.70442 0.40073 0.0
H780 H 0.4949 0.01019 0.90798 0.0
H781 H 0.48449 0.02788 0.87936 0.0
H782 H 0.49169 0.06208 0.95347 0.0
H783 H 0.50203 0.04454 0.98222 0.0
H784 H 0.45753 0.04926 0.92213 0.0
H785 H 0.51971 0.0818 0.8515 0.0
H786 H 0.50798 0.05713 0.85414 0.0
H787 H 0.51912 0.07085 0.88549 0.0
C788 C 0.4942 0.02142 0.91821 0.0
C789 C 0.49941 0.02602 0.94733 0.0
C790 C 0.48831 0.03155 0.90181 0.0
C791 C 0.48752 0.04638 0.91427 0.0
C792 C 0.49226 0.0507 0.94347 0.0
H793 H 0.4841 0.13772 0.83479 0.0
H794 H 0.49082 0.11752 0.86412 0.0
C795 C 0.49822 0.04068 0.95982 0.0
C796 C 0.48209 0.05771 0.89689 0.0
H797 H 0.49632 0.08878 0.84141 0.0
C798 C 0.46594 0.05785 0.90439 0.0
C799 C 0.49325 0.06906 0.87404 0.0
C800 C 0.51107 0.0699 0.86583 0.0
C801 C 0.4606 0.06902 0.88949 0.0
C802 C 0.47167 0.08022 0.86646 0.0
C803 C 0.48784 0.08011 0.85904 0.0
C804 C 0.4669 0.09238 0.84996 0.0
C805 C 0.44339 0.06907 0.89886 0.0
C806 C 0.45118 0.08491 0.83239 0.0
C807 C 0.44736 0.0964 0.81544 0.0
C808 C 0.45924 0.11558 0.81569 0.0
C809 C 0.47479 0.12301 0.83381 0.0
C810 C 0.47862 0.1115 0.85067 0.0
H811 H 0.4386 0.06274 0.9206 0.0
H812 H 0.44576 0.08332 0.89937 0.0
H813 H 0.43225 0.06109 0.88305 0.0
H814 H 0.44213 0.07015 0.83119 0.0
H815 H 0.43545 0.09018 0.80136 0.0
H816 H 0.48117 0.5068 0.44888 0.0
H817 H 0.45174 0.49869 0.42674 0.0
H818 H 0.42419 0.47605 0.50816 0.0
H819 H 0.45403 0.48512 0.53087 0.0
H820 H 0.42495 0.46554 0.41905 0.0
H821 H 0.39836 0.50302 0.48359 0.0
H822 H 0.42184 0.50792 0.4863 0.0
H823 H 0.40369 0.48844 0.50496 0.0
C824 C 0.46887 0.50039 0.4622 0.0
C825 C 0.46981 0.49652 0.49153 0.0
C826 C 0.45204 0.49574 0.44953 0.0
C827 C 0.43568 0.48679 0.46573 0.0
C828 C 0.43662 0.4833 0.49533 0.0
H829 H 0.33522 0.42446 0.36484 0.0
H830 H 0.35922 0.43273 0.4008 0.0
C831 C 0.45363 0.48838 0.50826 0.0
C832 C 0.41778 0.47983 0.45058 0.0
H833 H 0.37784 0.48136 0.44931 0.0
C834 C 0.41467 0.46905 0.42571 0.0
C835 C 0.40439 0.48445 0.45914 0.0
C836 C 0.40727 0.49673 0.48479 0.0
C837 C 0.39889 0.46315 0.40872 0.0
C838 C 0.38526 0.46738 0.41758 0.0
C839 C 0.38817 0.47793 0.44273 0.0
C840 C 0.36849 0.46185 0.39995 0.0
C841 C 0.39747 0.45317 0.38075 0.0
C842 C 0.3647 0.47523 0.38919 0.0
C843 C 0.35043 0.47045 0.36933 0.0
C844 C 0.3398 0.45219 0.35946 0.0
C845 C 0.34295 0.43865 0.37179 0.0
C846 C 0.35694 0.4434 0.39211 0.0
H847 H 0.41115 0.45577 0.37321 0.0
H848 H 0.38867 0.43814 0.38427 0.0
H849 H 0.39128 0.45741 0.36328 0.0
H850 H 0.37325 0.48954 0.39524 0.0
H851 H 0.3481 0.4812 0.36117 0.0
H852 H 0.01732 0.47153 0.9503 0.0
H853 H 0.00135 0.44198 0.92491 0.0
H854 H 0.95319 0.42568 0.9779 0.0
H855 H 0.96917 0.45482 0.00383 0.0
H856 H 0.9615 0.3989 0.97494 0.0
H857 H 0.96161 0.42486 0.86431 0.0
H858 H 0.98417 0.43433 0.87975 0.0
H859 H 0.96764 0.43933 0.89596 0.0
C860 C 0.00327 0.46171 0.95631 0.0
C861 C 0.9945 0.46551 0.97903 0.0
C862 C 0.99413 0.44486 0.94172 0.0
C863 C 0.97599 0.4317 0.94927 0.0
C864 C 0.96718 0.43561 0.97171 0.0
H865 H 0.90069 0.33774 0.84761 0.0
H866 H 0.9165 0.36635 0.87484 0.0
C867 C 0.97634 0.4523 0.98648 0.0
C868 C 0.96625 0.41358 0.93461 0.0
H869 H 0.95145 0.39303 0.8687 0.0
C870 C 0.95927 0.39761 0.9517 0.0
C871 C 0.96316 0.41192 0.90436 0.0
C872 C 0.96937 0.42851 0.88503 0.0
C873 C 0.94926 0.38003 0.93939 0.0
C874 C 0.9466 0.37837 0.90904 0.0
C875 C 0.9536 0.39433 0.89195 0.0
C876 C 0.93623 0.36025 0.89451 0.0
C877 C 0.94121 0.36346 0.95914 0.0
C878 C 0.94191 0.34716 0.8968 0.0
C879 C 0.93261 0.33053 0.88172 0.0
C880 C 0.91762 0.32679 0.86367 0.0
C881 C 0.91188 0.3399 0.86175 0.0
C882 C 0.92106 0.3564 0.87704 0.0
H883 H 0.93989 0.36717 0.98177 0.0
H884 H 0.92743 0.35269 0.95152 0.0
H885 H 0.95044 0.35754 0.95938 0.0
H886 H 0.9538 0.34996 0.90971 0.0
H887 H 0.93734 0.32072 0.88389 0.0
H888 H 0.99203 0.53418 0.98175 0.0
H889 H 0.97047 0.54148 0.95849 0.0
H890 H 0.93218 0.51608 0.02908 0.0
H891 H 0.95388 0.50864 0.05288 0.0
H892 H 0.93243 0.51283 0.94353 0.0
H893 H 0.93698 0.56848 0.0151 0.0
H894 H 0.95535 0.56318 0.01342 0.0
H895 H 0.93413 0.54761 0.03111 0.0
C896 C 0.97912 0.53024 0.9926 0.0
C897 C 0.97466 0.52074 0.01918 0.0
C898 C 0.9668 0.53444 0.97921 0.0
C899 C 0.94978 0.52934 0.99208 0.0
C900 C 0.94535 0.52025 0.01895 0.0
H901 H 0.87237 0.55539 0.90155 0.0
H902 H 0.88381 0.54254 0.93869 0.0
C903 C 0.95774 0.516 0.03246 0.0
C904 C 0.93658 0.53289 0.97612 0.0
H905 H 0.92064 0.5631 0.97136 0.0
C906 C 0.92953 0.52357 0.94988 0.0
C907 C 0.93278 0.54683 0.98458 0.0
C908 C 0.94019 0.55722 0.01254 0.0
C909 C 0.91958 0.52848 0.93112 0.0
C910 C 0.91682 0.54323 0.93865 0.0
C911 C 0.92285 0.55181 0.9657 0.0
C912 C 0.90981 0.55129 0.91714 0.0
C913 C 0.91271 0.51836 0.9028 0.0
C914 C 0.92076 0.5606 0.89309 0.0
C915 C 0.91435 0.56793 0.87206 0.0
C916 C 0.89682 0.56612 0.87463 0.0
C917 C 0.88588 0.5569 0.89893 0.0
C918 C 0.89241 0.54964 0.92017 0.0
H919 H 0.91169 0.50465 0.9035 0.0
H920 H 0.899 0.51651 0.89727 0.0
H921 H 0.92246 0.52651 0.88524 0.0
H922 H 0.93427 0.56207 0.89049 0.0
H923 H 0.923 0.5747 0.85344 0.0
H924 H 0.47759 0.95499 0.53531 0.0
H925 H 0.4463 0.93325 0.51863 0.0
H926 H 0.45695 0.96381 0.43893 0.0
H927 H 0.48796 0.98555 0.45532 0.0
H928 H 0.42297 0.95463 0.46613 0.0
H929 H 0.43313 0.89431 0.45372 0.0
H930 H 0.43877 0.90578 0.48825 0.0
H931 H 0.45222 0.91751 0.45688 0.0
C932 C 0.47325 0.95706 0.51423 0.0
C933 C 0.4853 0.97197 0.49661 0.0
C934 C 0.45541 0.9446 0.50472 0.0
C935 C 0.4494 0.94687 0.47746 0.0
C936 C 0.46134 0.96183 0.46004 0.0
H937 H 0.37161 0.88468 0.35009 0.0
H938 H 0.39741 0.90018 0.38346 0.0
C939 C 0.47909 0.97422 0.46945 0.0
C940 C 0.43075 0.93381 0.46658 0.0
H941 H 0.40476 0.89065 0.43866 0.0
C942 C 0.41881 0.94054 0.46052 0.0
C943 C 0.42552 0.9155 0.45917 0.0
C944 C 0.43806 0.90777 0.46461 0.0
C945 C 0.40206 0.92968 0.44615 0.0
C946 C 0.39703 0.91152 0.43804 0.0
C947 C 0.40864 0.90454 0.4451 0.0
C948 C 0.38088 0.90038 0.41933 0.0
C949 C 0.39039 0.93809 0.43831 0.0
C950 C 0.36294 0.89495 0.42868 0.0
C951 C 0.3481 0.88602 0.40961 0.0
C952 C 0.35095 0.88227 0.38094 0.0
C953 C 0.36887 0.88711 0.3721 0.0
C954 C 0.38366 0.89605 0.39112 0.0
H955 H 0.3978 0.95322 0.44171 0.0
H956 H 0.38599 0.93523 0.41531 0.0
H957 H 0.37784 0.93191 0.45205 0.0
H958 H 0.36049 0.89792 0.45054 0.0
H959 H 0.33442 0.88223 0.41718 0.0
H960 H 0.49715 0.45605 0.95016 0.0
H961 H 0.49049 0.42747 0.92655 0.0
H962 H 0.5174 0.41567 0.99594 0.0
H963 H 0.52405 0.44441 0.02013 0.0
H964 H 0.51777 0.4191 0.90834 0.0
H965 H 0.46768 0.36693 0.98555 0.0
H966 H 0.47278 0.39053 0.98562 0.0
H967 H 0.48911 0.38481 9e-05 0.0
C968 C 0.50154 0.44735 0.96066 0.0
C969 C 0.51119 0.45257 0.98704 0.0
C970 C 0.49772 0.431 0.94707 0.0
C971 C 0.50338 0.41942 0.95952 0.0
C972 C 0.5127 0.42431 0.98616 0.0
H973 H 0.48617 0.31759 0.87417 0.0
H974 H 0.49717 0.34305 0.90912 0.0
C975 C 0.51653 0.44075 -0.00011 0.0
C976 C 0.50021 0.40281 0.94344 0.0
H977 H 0.47402 0.3559 0.94265 0.0
C978 C 0.50838 0.40527 0.91601 0.0
C979 C 0.48806 0.38479 0.95359 0.0
C980 C 0.47876 0.38146 0.98274 0.0
C981 C 0.50418 0.39025 0.89797 0.0
C982 C 0.49133 0.37232 0.90749 0.0
C983 C 0.48384 0.36971 0.93548 0.0
C984 C 0.48424 0.35648 0.88745 0.0
C985 C 0.51312 0.39369 0.86849 0.0
C986 C 0.47318 0.35556 0.86407 0.0
C987 C 0.46691 0.34115 0.84423 0.0
C988 C 0.47156 0.32731 0.84736 0.0
C989 C 0.48248 0.32812 0.87108 0.0
C990 C 0.48868 0.34256 0.89111 0.0
H991 H 0.5258 0.4074 0.86723 0.0
H992 H 0.51666 0.38294 0.8631 0.0
H993 H 0.50333 0.39321 0.85188 0.0
H994 H 0.46955 0.36615 0.861 0.0
H995 H 0.45876 0.34111 0.82601 0.0
H996 H 0.05168 0.50072 0.4453 0.0
H997 H 0.07033 0.48976 0.42093 0.0
H998 H 0.08294 0.47473 0.50368 0.0
H999 H 0.06518 0.48658 0.52811 0.0
H1000 H 0.11265 0.4915 0.47363 0.0
H1001 H 0.05905 0.4391 0.40265 0.0
H1002 H 0.06175 0.46138 0.39639 0.0
H1003 H 0.05365 0.45035 0.43111 0.0
C1004 C 0.05829 0.49489 0.45819 0.0
C1005 C 0.05697 0.49445 0.48854 0.0
C1006 C 0.06885 0.48852 0.44426 0.0
C1007 C 0.07779 0.48108 0.4604 0.0
C1008 C 0.07619 0.48038 0.49073 0.0
H1009 H 0.1237 0.421 0.37487 0.0
H1010 H 0.10609 0.42983 0.40605 0.0
C1011 C 0.066 0.48712 0.50466 0.0
C1012 C 0.08952 0.47479 0.44596 0.0
H1013 H 0.09016 0.44779 0.39131 0.0
C1014 C 0.10766 0.48179 0.45581 0.0
C1015 C 0.08297 0.46188 0.42304 0.0
C1016 C 0.06323 0.4526 0.41291 0.0
C1017 C 0.11949 0.47647 0.44312 0.0
C1018 C 0.11327 0.46439 0.4191 0.0
C1019 C 0.09504 0.45719 0.40955 0.0
C1020 C 0.12534 0.45908 0.40325 0.0
C1021 C 0.13836 0.48358 0.45608 0.0
C1022 C 0.14233 0.47252 0.39183 0.0
C1023 C 0.15285 0.46746 0.37474 0.0
C1024 C 0.14633 0.44886 0.36791 0.0
C1025 C 0.12947 0.43542 0.37998 0.0
C1026 C 0.11918 0.44048 0.39756 0.0
H1027 H 0.13852 0.48696 0.4794 0.0
H1028 H 0.14307 0.47342 0.45398 0.0
H1029 H 0.14834 0.49641 0.44473 0.0
H1030 H 0.14724 0.48699 0.39529 0.0
H1031 H 0.16587 0.47821 0.3663 0.0
H1032 H 0.57978 0.06814 0.0238 0.0
H1033 H 0.6102 0.09046 0.00448 0.0
H1034 H 0.60508 0.05122 0.9396 0.0
H1035 H 0.57466 0.02917 0.95813 0.0
H1036 H 0.64219 0.08986 0.99768 0.0
H1037 H 0.61601 0.0953 0.89048 0.0
H1038 H 0.60096 0.0842 0.92094 0.0
H1039 H 0.60907 0.07189 0.89913 0.0
C1040 C 0.58517 0.06429 0.00543 0.0
C1041 C 0.57471 0.04697 0.99226 0.0
C1042 C 0.60254 0.07705 0.99443 0.0
C1043 C 0.60971 0.07267 0.97015 0.0
C1044 C 0.59959 0.05512 0.95778 0.0
H1045 H 0.71921 0.11611 0.90521 0.0
H1046 H 0.69115 0.10182 0.93415 0.0
C1047 C 0.58222 0.04247 0.96853 0.0
C1048 C 0.62775 0.0863 0.95751 0.0
H1049 H 0.64835 0.10595 0.89325 0.0
C1050 C 0.64355 0.09359 0.97494 0.0
C1051 C 0.62948 0.09155 0.92801 0.0
C1052 C 0.61294 0.08548 0.90866 0.0
C1053 C 0.66114 0.10526 0.96327 0.0
C1054 C 0.66298 0.10932 0.93324 0.0
C1055 C 0.64705 0.10271 0.9162 0.0
C1056 C 0.68115 0.11954 0.91848 0.0
C1057 C 0.67752 0.1131 0.98331 0.0
C1058 C 0.68494 0.13421 0.89974 0.0
C1059 C 0.70073 0.14204 0.88239 0.0
C1060 C 0.71319 0.13544 0.88349 0.0
C1061 C 0.70982 0.12137 0.90339 0.0
C1062 C 0.69389 0.11337 0.92042 0.0
H1063 H 0.6735 0.11444 0.00574 0.0
H1064 H 0.68315 0.10364 0.98409 0.0
H1065 H 0.68855 0.12681 0.97584 0.0
H1066 H 0.67529 0.13917 0.89773 0.0
H1067 H 0.70262 0.15263 0.86709 0.0
H1068 H 0.53916 0.53959 0.41339 0.0
H1069 H 0.55037 0.56995 0.39152 0.0
H1070 H 0.56722 0.59512 0.47586 0.0
H1071 H 0.555 0.56475 0.49785 0.0
H1072 H 0.55067 0.60942 0.45001 0.0
H1073 H 0.60053 0.6094 0.37166 0.0
H1074 H 0.57792 0.59028 0.36557 0.0
H1075 H 0.58967 0.59188 0.39908 0.0
C1076 C 0.54547 0.55165 0.42712 0.0
C1077 C 0.54627 0.54987 0.45725 0.0
C1078 C 0.55199 0.56902 0.41462 0.0
C1079 C 0.55998 0.58494 0.43193 0.0
C1080 C 0.56112 0.58311 0.46199 0.0
H1081 H 0.61932 0.69325 0.35265 0.0
H1082 H 0.61089 0.66569 0.38074 0.0
C1083 C 0.55419 0.56575 0.47455 0.0
C1084 C 0.56625 0.60342 0.41911 0.0
H1085 H 0.59196 0.63235 0.3645 0.0
C1086 C 0.55987 0.6145 0.43149 0.0
C1087 C 0.5785 0.61026 0.39525 0.0
C1088 C 0.5872 0.5999 0.38235 0.0
C1089 C 0.56517 0.63206 0.4205 0.0
C1090 C 0.57652 0.63842 0.39556 0.0
C1091 C 0.58311 0.62745 0.38343 0.0
C1092 C 0.58172 0.65632 0.38146 0.0
C1093 C 0.55885 0.64368 0.43625 0.0
C1094 C 0.56822 0.66059 0.373 0.0
C1095 C 0.57309 0.67681 0.3578 0.0
C1096 C 0.59153 0.68888 0.34982 0.0
C1097 C 0.60504 0.68465 0.3588 0.0
C1098 C 0.6002 0.66866 0.37457 0.0
H1099 H 0.55621 0.63986 0.45954 0.0
H1100 H 0.56917 0.65855 0.43468 0.0
H1101 H 0.54574 0.64132 0.42662 0.0
H1102 H 0.55381 0.65114 0.37737 0.0
H1103 H 0.56228 0.67963 0.35176 0.0
H1104 H 0.51681 0.04159 0.56202 0.0
H1105 H 0.50562 0.06203 0.57711 0.0
H1106 H 0.51974 0.08855 0.49346 0.0
H1107 H 0.53134 0.06819 0.47814 0.0
H1108 H 0.53044 0.11333 0.53912 0.0
H1109 H 0.4577 0.05898 0.55206 0.0
H1110 H 0.47286 0.05365 0.57175 0.0
H1111 H 0.47428 0.05521 0.5328 0.0
C1112 C 0.51753 0.05172 0.54671 0.0
C1113 C 0.52487 0.05316 0.51877 0.0
C1114 C 0.511 0.06333 0.55534 0.0
C1115 C 0.51147 0.07653 0.53619 0.0
C1116 C 0.5191 0.07831 0.50846 0.0
H1117 H 0.45136 0.12983 0.60031 0.0
H1118 H 0.46284 0.11561 0.56601 0.0
C1119 C 0.52571 0.06668 0.49977 0.0
C1120 C 0.50434 0.08864 0.54578 0.0
H1121 H 0.46701 0.08724 0.57782 0.0
C1122 C 0.51648 0.10769 0.54713 0.0
C1123 C 0.48601 0.08135 0.55558 0.0
C1124 C 0.47191 0.06119 0.55269 0.0
C1125 C 0.5111 0.11949 0.55982 0.0
C1126 C 0.49326 0.11194 0.57198 0.0
C1127 C 0.48077 0.09305 0.56886 0.0
C1128 C 0.48767 0.12291 0.59017 0.0
C1129 C 0.52467 0.13986 0.56039 0.0
C1130 C 0.49789 0.13195 0.61495 0.0
C1131 C 0.49142 0.14014 0.63444 0.0
C1132 C 0.47442 0.13922 0.62979 0.0
C1133 C 0.46446 0.13067 0.60452 0.0
C1134 C 0.47103 0.1226 0.58489 0.0
H1135 H 0.53433 0.14402 0.54173 0.0
H1136 H 0.51759 0.14804 0.5599 0.0
H1137 H 0.53297 0.14327 0.58051 0.0
H1138 H 0.51047 0.13191 0.62002 0.0
H1139 H 0.49924 0.14629 0.65397 0.0
H1140 H 0.47142 0.47459 0.05776 0.0
H1141 H 0.44247 0.46735 0.08097 0.0
H1142 H 0.43618 0.50346 0.02145 0.0
H1143 H 0.46511 0.51046 0.99748 0.0
H1144 H 0.4357 0.49154 0.10873 0.0
H1145 H 0.38517 0.45797 0.01978 0.0
H1146 H 0.40831 0.46175 0.018 0.0
H1147 H 0.4041 0.48042 0.01135 0.0
C1148 C 0.4638 0.48085 0.04932 0.0
C1149 C 0.47059 0.49314 0.0258 0.0
C1150 C 0.44723 0.47669 0.06264 0.0
C1151 C 0.43708 0.48477 0.05289 0.0
C1152 C 0.4436 0.49679 0.02902 0.0
H1153 H 0.35514 0.48359 0.17222 0.0
H1154 H 0.38041 0.49421 0.13745 0.0
C1155 C 0.46017 0.50084 0.01543 0.0
C1156 C 0.42036 0.48134 0.06914 0.0
H1157 H 0.37379 0.46286 0.06385 0.0
C1158 C 0.42217 0.48535 0.09888 0.0
C1159 C 0.40272 0.47316 0.05627 0.0
C1160 C 0.39984 0.46791 0.02466 0.0
C1161 C 0.40682 0.48102 0.1163 0.0
C1162 C 0.38916 0.47294 0.10345 0.0
C1163 C 0.38736 0.46922 0.07358 0.0
C1164 C 0.37233 0.46704 0.12119 0.0
C1165 C 0.40962 0.4844 0.14853 0.0
C1166 C 0.35877 0.44838 0.12235 0.0
C1167 C 0.34405 0.4423 0.14176 0.0
C1168 C 0.34264 0.45474 0.16055 0.0
C1169 C 0.3557 0.47359 0.15809 0.0
C1170 C 0.37031 0.47968 0.13845 0.0
H1171 H 0.42312 0.48636 0.15568 0.0
H1172 H 0.40924 0.49707 0.15403 0.0
H1173 H 0.39858 0.47277 0.16096 0.0
H1174 H 0.35994 0.4384 0.10903 0.0
H1175 H 0.33402 0.42775 0.14253 0.0
H1176 H 0.02802 0.48189 0.6369 0.0
H1177 H 0.00879 0.45207 0.66074 0.0
H1178 H 0.97473 0.4321 0.58449 0.0
H1179 H 0.99353 0.46166 0.5608 0.0
H1180 H 0.9546 0.4247 0.6351 0.0
H1181 H 0.00734 0.40333 0.64339 0.0
H1182 H 0.01376 0.42536 0.65892 0.0
H1183 H 0.0103 0.42206 0.62049 0.0
C1184 C 0.01646 0.47112 0.62523 0.0
C1185 C 0.01235 0.47418 0.59693 0.0
C1186 C 0.00555 0.45407 0.63881 0.0
C1187 C 0.99046 0.43981 0.62423 0.0
C1188 C 0.98632 0.4429 0.59611 0.0
H1189 H 0.9276 0.32302 0.66286 0.0
H1190 H 0.9471 0.35336 0.64093 0.0
C1191 C 0.99714 0.45985 0.58259 0.0
C1192 C 0.97858 0.42172 0.63819 0.0
H1193 H 0.97833 0.38364 0.66483 0.0
C1194 C 0.95979 0.41573 0.64168 0.0
C1195 C 0.98535 0.40996 0.64634 0.0
C1196 C 0.00525 0.41537 0.64192 0.0
C1197 C 0.94756 0.39831 0.65315 0.0
C1198 C 0.95438 0.38668 0.66182 0.0
C1199 C 0.97317 0.39263 0.65825 0.0
C1200 C 0.94223 0.3683 0.67471 0.0
C1201 C 0.92738 0.39234 0.65529 0.0
C1202 C 0.9331 0.36668 0.70096 0.0
C1203 C 0.92197 0.34942 0.71348 0.0
C1204 C 0.91982 0.3334 0.7001 0.0
C1205 C 0.92899 0.33508 0.67374 0.0
C1206 C 0.94012 0.35238 0.6612 0.0
H1207 H 0.92372 0.40064 0.64091 0.0
H1208 H 0.91866 0.3776 0.64953 0.0
H1209 H 0.92411 0.3942 0.67791 0.0
H1210 H 0.93486 0.37881 0.71208 0.0
H1211 H 0.91551 0.3487 0.73415 0.0
H1212 H 0.52932 0.9502 0.98204 0.0
H1213 H 0.53921 0.92925 0.00109 0.0
H1214 H 0.55013 0.95627 0.08411 0.0
H1215 H 0.5407 0.97739 0.06524 0.0
H1216 H 0.57831 0.95149 0.06575 0.0
H1217 H 0.51157 0.8861 0.05674 0.0
H1218 H 0.52 0.89905 0.02371 0.0
H1219 H 0.51337 0.90836 0.05337 0.0
C1220 C 0.53377 0.95162 0.00438 0.0
C1221 C 0.53421 0.96547 0.02212 0.0
C1222 C 0.53931 0.93957 0.01527 0.0
C1223 C 0.54519 0.94106 0.04413 0.0
C1224 C 0.54562 0.95486 0.06179 0.0
H1225 H 0.55768 0.87113 0.16437 0.0
H1226 H 0.54669 0.88659 0.13196 0.0
C1227 C 0.54021 0.96693 0.05093 0.0
C1228 C 0.55143 0.9287 0.0561 0.0
H1229 H 0.53687 0.88405 0.07442 0.0
C1230 C 0.5693 0.93672 0.06745 0.0
C1231 C 0.53958 0.90946 0.05847 0.0
C1232 C 0.52001 0.90018 0.04767 0.0
C1233 C 0.57553 0.92614 0.08181 0.0
C1234 C 0.56371 0.90688 0.08419 0.0
C1235 C 0.54596 0.89878 0.07228 0.0
C1236 C 0.56903 0.89527 0.10119 0.0
C1237 C 0.5944 0.93584 0.09548 0.0
C1238 C 0.58482 0.89436 0.09404 0.0
C1239 C 0.5912 0.88563 0.11264 0.0
C1240 C 0.58171 0.87739 0.13847 0.0
C1241 C 0.56521 0.87722 0.14453 0.0
C1242 C 0.55894 0.8861 0.12607 0.0
H1243 H 0.5999 0.95089 0.09741 0.0
H1244 H 0.59409 0.93023 0.1174 0.0
H1245 H 0.60409 0.93374 0.08182 0.0
H1246 H 0.59257 0.90096 0.07458 0.0
H1247 H 0.60383 0.88574 0.10725 0.0
H1248 H 0.55542 0.53052 0.6038 0.0
H1249 H 0.58509 0.54194 0.62845 0.0
H1250 H 0.60633 0.52747 0.55406 0.0
H1251 H 0.57703 0.51623 0.5293 0.0
H1252 H 0.60454 0.52307 0.64171 0.0
H1253 H 0.64433 0.58208 0.5676 0.0
H1254 H 0.61949 0.56984 0.56919 0.0
H1255 H 0.63133 0.5604 0.5494 0.0
C1256 C 0.56641 0.52977 0.59272 0.0
C1257 C 0.56388 0.52258 0.56451 0.0
C1258 C 0.58333 0.5363 0.60682 0.0
C1259 C 0.59797 0.53583 0.59284 0.0
C1260 C 0.59533 0.5283 0.56498 0.0
H1261 H 0.69778 0.54549 0.66592 0.0
H1262 H 0.66824 0.53512 0.64168 0.0
C1263 C 0.57851 0.5218 0.55093 0.0
C1264 C 0.61603 0.543 0.60728 0.0
H1265 H 0.6617 0.57457 0.5999 0.0
C1266 C 0.61704 0.53439 0.63271 0.0
C1267 C 0.63226 0.5579 0.59559 0.0
C1268 C 0.63185 0.56823 0.5691 0.0
C1269 C 0.63396 0.54001 0.64642 0.0
C1270 C 0.65028 0.55444 0.63408 0.0
C1271 C 0.6492 0.56334 0.60906 0.0
C1272 C 0.66857 0.56087 0.64734 0.0
C1273 C 0.63421 0.53062 0.67416 0.0
C1274 C 0.67884 0.57897 0.65753 0.0
C1275 C 0.69571 0.58494 0.67127 0.0
C1276 C 0.70271 0.57294 0.67493 0.0
C1277 C 0.69267 0.55499 0.66376 0.0
C1278 C 0.67577 0.54903 0.65001 0.0
H1279 H 0.62036 0.5231 0.68438 0.0
H1280 H 0.63871 0.52052 0.66936 0.0
H1281 H 0.64402 0.54074 0.68996 0.0
H1282 H 0.67355 0.58834 0.65559 0.0
H1283 H 0.70291 0.59876 0.68 0.0
H1284 H 0.07758 0.56567 0.02618 0.0
H1285 H 0.1003 0.59422 0.05005 0.0
H1286 H 0.06051 0.5859 0.11624 0.0
H1287 H 0.03797 0.55738 0.09303 0.0
H1288 H 0.10023 0.62644 0.06468 0.0
H1289 H 0.10374 0.59055 0.16302 0.0
H1290 H 0.09301 0.57852 0.12994 0.0
H1291 H 0.08064 0.585 0.15472 0.0
C1292 C 0.07367 0.56999 0.04575 0.0
C1293 C 0.05604 0.55913 0.0579 0.0
C1294 C 0.08665 0.58628 0.05934 0.0
C1295 C 0.08221 0.59194 0.08526 0.0
C1296 C 0.06439 0.58154 0.09668 0.0
H1297 H 0.13042 0.6955 0.17392 0.0
H1298 H 0.11397 0.66967 0.14086 0.0
C1299 C 0.05148 0.56526 0.08328 0.0
C1300 C 0.09613 0.60854 0.10084 0.0
H1301 H 0.11617 0.62303 0.16711 0.0
C1302 C 0.10391 0.62572 0.08697 0.0
C1303 C 0.10121 0.60753 0.12971 0.0
C1304 C 0.09437 0.58938 0.14512 0.0
C1305 C 0.11602 0.64201 0.1017 0.0
C1306 C 0.1201 0.64108 0.13121 0.0
C1307 C 0.11291 0.62381 0.1446 0.0
C1308 C 0.1312 0.65774 0.14913 0.0
C1309 C 0.12432 0.66001 0.08544 0.0
C1310 C 0.14621 0.65955 0.16519 0.0
C1311 C 0.15536 0.67405 0.18473 0.0
C1312 C 0.14971 0.68713 0.18862 0.0
C1313 C 0.13502 0.68559 0.17179 0.0
C1314 C 0.12577 0.67097 0.15247 0.0
H1315 H 0.12501 0.65791 0.0618 0.0
H1316 H 0.11555 0.6663 0.08861 0.0
H1317 H 0.1384 0.6698 0.09333 0.0
H1318 H 0.15056 0.64943 0.16317 0.0
H1319 H 0.16639 0.67457 0.19758 0.0
loop_
_geom_bond_atom_site_label_1
_geom_bond_atom_site_label_2
_geom_bond_distance
_geom_bond_site_symmetry_2
_ccdc_geom_bond_type
C0 O2 1.247 . S
C0 O4 1.258 . S
C1 O8 1.247 . S
C1 O9 1.258 . S
O2 C0 1.247 . S
O2 Zn3 2.028 1_455 S
Zn3 O2 2.028 1_655 S
Zn3 O7 2.035 . S
Zn3 O9 2.035 . S
Zn3 O10 2.028 1_655 S
O4 C0 1.258 . S
O4 Zn5 2.035 . S
Zn5 O4 2.035 . S
Zn5 O6 2.028 1_455 S
Zn5 O8 2.028 1_455 S
Zn5 O11 2.035 . S
O6 Zn5 2.028 1_655 S
O6 C12 1.247 . S
O7 Zn3 2.035 . S
O7 C12 1.258 . S
O8 C1 1.247 . S
O8 Zn5 2.028 1_655 S
O9 C1 1.258 . S
O9 Zn3 2.035 . S
O10 Zn3 2.028 1_455 S
O10 C13 1.247 . S
O11 Zn5 2.035 . S
O11 C13 1.258 . S
C12 O6 1.247 . S
C12 O7 1.258 . S
C13 O10 1.247 . S
C13 O11 1.258 . S
C14 O16 1.247 . S
C14 O18 1.258 . S
C15 O22 1.239 1_565 S
C15 O23 1.258 . S
O16 C14 1.247 . S
O16 Zn17 2.028 1_545 S
Zn17 O16 2.028 1_565 S
Zn17 O21 2.035 . S
Zn17 O23 2.035 . S
Zn17 O24 2.028 1_565 S
O18 C14 1.258 . S
O18 Zn19 2.035 . S
Zn19 O18 2.035 . S
Zn19 O20 2.033 . S
Zn19 O22 2.036 . S
Zn19 O25 2.035 . S
O20 Zn19 2.033 . S
O20 C26 1.235 1_545 S
O21 Zn17 2.035 . S
O21 C26 1.258 . S
O22 C15 1.239 1_545 S
O22 Zn19 2.036 . S
O23 C15 1.258 . S
O23 Zn17 2.035 . S
O24 Zn17 2.028 1_545 S
O24 C27 1.247 . S
O25 Zn19 2.035 . S
O25 C27 1.258 . S
C26 O20 1.235 1_565 S
C26 O21 1.258 . S
C27 O24 1.247 . S
C27 O25 1.258 . S
C28 O30 1.247 . S
C28 O32 1.258 1_556 S
C29 O36 1.247 . S
C29 O37 1.258 . S
O30 C28 1.247 . S
O30 Zn31 2.028 . S
Zn31 O30 2.028 . S
Zn31 O35 2.035 1_556 S
Zn31 O37 2.035 1_556 S
Zn31 O38 2.028 . S
O32 C28 1.258 1_554 S
O32 Zn33 2.035 . S
Zn33 O32 2.035 . S
Zn33 O34 2.028 . S
Zn33 O36 2.028 . S
Zn33 O39 2.035 . S
O34 Zn33 2.028 . S
O34 C40 1.247 . S
O35 Zn31 2.035 1_554 S
O35 C40 1.258 . S
O36 C29 1.247 . S
O36 Zn33 2.028 . S
O37 C29 1.258 . S
O37 Zn31 2.035 1_554 S
O38 Zn31 2.028 . S
O38 C41 1.247 . S
O39 Zn33 2.035 . S
O39 C41 1.258 1_554 S
C40 O34 1.247 . S
C40 O35 1.258 . S
C41 O38 1.247 . S
C41 O39 1.258 1_556 S
C42 O44 1.247 . S
C42 O46 1.258 . S
C43 O50 1.247 . S
C43 O51 1.258 . S
O44 C42 1.247 . S
O44 Zn45 2.028 . S
Zn45 O44 2.028 . S
Zn45 O49 2.035 . S
Zn45 O51 2.035 . S
Zn45 O52 2.028 . S
O46 C42 1.258 . S
O46 Zn47 2.035 . S
Zn47 O46 2.035 . S
Zn47 O48 2.028 . S
Zn47 O50 2.028 . S
Zn47 O53 2.035 . S
O48 Zn47 2.028 . S
O48 C54 1.247 . S
O49 Zn45 2.035 . S
O49 C54 1.258 . S
O50 C43 1.247 . S
O50 Zn47 2.028 . S
O51 C43 1.258 . S
O51 Zn45 2.035 . S
O52 Zn45 2.028 . S
O52 C55 1.247 . S
O53 Zn47 2.035 . S
O53 C55 1.258 . S
C54 O48 1.247 . S
C54 O49 1.258 . S
C55 O52 1.247 . S
C55 O53 1.258 . S
C56 O58 1.247 1_565 S
C56 O60 1.258 . S
C57 O64 1.247 . S
C57 O65 1.258 1_556 S
O58 C56 1.247 1_545 S
O58 Zn59 2.028 . S
Zn59 O58 2.028 . S
Zn59 O63 2.035 . S
Zn59 O65 2.035 . S
Zn59 O66 2.028 . S
O60 C56 1.258 . S
O60 Zn61 2.035 1_554 S
Zn61 O60 2.035 1_556 S
Zn61 O62 2.028 1_565 S
Zn61 O64 2.028 1_565 S
Zn61 O67 2.035 1_556 S
O62 Zn61 2.028 1_545 S
O62 C68 1.247 . S
O63 Zn59 2.035 . S
O63 C68 1.258 1_554 S
O64 C57 1.247 . S
O64 Zn61 2.028 1_545 S
O65 C57 1.258 1_554 S
O65 Zn59 2.035 . S
O66 Zn59 2.028 . S
O66 C69 1.247 1_545 S
O67 Zn61 2.035 1_554 S
O67 C69 1.258 . S
C68 O62 1.247 . S
C68 O63 1.258 1_556 S
C69 O66 1.247 1_565 S
C69 O67 1.258 . S
C70 O72 1.247 . S
C70 O74 1.258 . S
C71 O78 1.247 . S
C71 O79 1.258 . S
O72 C70 1.247 . S
O72 Zn73 2.028 . S
Zn73 O72 2.028 . S
Zn73 O77 2.035 . S
Zn73 O79 2.035 . S
Zn73 O80 2.028 . S
O74 C70 1.258 . S
O74 Zn75 2.035 . S
Zn75 O74 2.035 . S
Zn75 O76 2.028 . S
Zn75 O78 2.028 . S
Zn75 O81 2.035 . S
O76 Zn75 2.028 . S
O76 C82 1.247 . S
O77 Zn73 2.035 . S
O77 C82 1.258 . S
O78 C71 1.247 . S
O78 Zn75 2.028 . S
O79 C71 1.258 . S
O79 Zn73 2.035 . S
O80 Zn73 2.028 . S
O80 C83 1.247 . S
O81 Zn75 2.035 . S
O81 C83 1.258 . S
C82 O76 1.247 . S
C82 O77 1.258 . S
C83 O80 1.247 . S
C83 O81 1.258 . S
H84 C111 0.929 . S
N85 C110 1.433 . S
N85 C116 1.435 . S
N85 C122 1.423 . S
H86 C112 0.930 . S
H87 C115 0.931 . S
H88 C114 0.929 . S
H89 C117 0.930 . S
H90 C118 0.932 . S
H91 C121 0.929 . S
H92 C120 0.931 . S
H93 C123 0.929 . S
H94 C127 0.932 . S
H95 C124 0.931 . S
H96 C126 0.929 . S
H97 C129 0.929 . S
H98 C130 0.930 . S
H99 C132 0.929 . S
H100 C133 0.931 . S
H101 C135 0.930 . S
H102 C136 0.932 . S
H103 C138 0.931 . S
H104 C139 0.929 . S
H105 C141 0.929 . S
H106 C142 0.931 . S
H107 C144 0.929 . S
N108 C128 1.433 . S
N108 C134 1.435 . S
N108 C140 1.423 . S
H109 C145 0.932 . S
C110 N85 1.433 . S
C110 C111 1.363 . S
C110 C115 1.370 . S
C111 H84 0.929 . S
C111 C110 1.363 . S
C111 C112 1.385 . S
C112 H86 0.930 . S
C112 C111 1.385 . S
C112 C113 1.357 . S
C113 C112 1.357 . S
C113 C114 1.406 . S
C114 H88 0.929 . S
C114 C113 1.406 . S
C114 C115 1.391 . S
C115 H87 0.931 . S
C115 C110 1.370 . S
C115 C114 1.391 . S
C116 N85 1.435 . S
C116 C117 1.358 . S
C116 C121 1.371 . S
C117 H89 0.930 . S
C117 C116 1.358 . S
C117 C118 1.405 . S
C118 H90 0.932 . S
C118 C117 1.405 . S
C118 C119 1.383 . S
C119 C118 1.383 . S
C119 C120 1.393 . S
C120 H92 0.931 . S
C120 C119 1.393 . S
C120 C121 1.382 . S
C121 H91 0.929 . S
C121 C116 1.371 . S
C121 C120 1.382 . S
C122 N85 1.423 . S
C122 C123 1.362 . S
C122 C127 1.388 . S
C123 H93 0.929 . S
C123 C122 1.362 . S
C123 C124 1.376 . S
C124 H95 0.931 . S
C124 C123 1.376 . S
C124 C125 1.396 . S
C125 C124 1.396 . S
C125 C126 1.348 . S
C125 C143 1.472 . S
C126 H96 0.929 . S
C126 C125 1.348 . S
C126 C127 1.443 . S
C127 H94 0.932 . S
C127 C122 1.388 . S
C127 C126 1.443 . S
C128 N108 1.433 . S
C128 C129 1.363 . S
C128 C133 1.370 . S
C129 H97 0.929 . S
C129 C128 1.363 . S
C129 C130 1.385 . S
C130 H98 0.930 . S
C130 C129 1.385 . S
C130 C131 1.357 . S
C131 C130 1.357 . S
C131 C132 1.406 . S
C132 H99 0.929 . S
C132 C131 1.406 . S
C132 C133 1.391 . S
C133 H100 0.931 . S
C133 C128 1.370 . S
C133 C132 1.391 . S
C134 N108 1.435 . S
C134 C135 1.358 . S
C134 C139 1.371 . S
C135 H101 0.930 . S
C135 C134 1.358 . S
C135 C136 1.405 . S
C136 H102 0.932 . S
C136 C135 1.405 . S
C136 C137 1.383 . S
C137 C136 1.383 . S
C137 C138 1.393 . S
C138 H103 0.931 . S
C138 C137 1.393 . S
C138 C139 1.382 . S
C139 H104 0.929 . S
C139 C134 1.371 . S
C139 C138 1.382 . S
C140 N108 1.423 . S
C140 C141 1.362 . S
C140 C145 1.388 . S
C141 H105 0.929 . S
C141 C140 1.362 . S
C141 C142 1.376 . S
C142 H106 0.931 . S
C142 C141 1.376 . S
C142 C143 1.396 . S
C143 C125 1.472 . S
C143 C142 1.396 . S
C143 C144 1.348 . S
C144 H107 0.929 . S
C144 C143 1.348 . S
C144 C145 1.443 . S
C145 H109 0.932 . S
C145 C140 1.388 . S
C145 C144 1.443 . S
H146 C173 0.929 . S
N147 C172 1.433 . S
N147 C178 1.435 . S
N147 C184 1.423 . S
H148 C174 0.930 . S
H149 C177 0.931 . S
H150 C176 0.929 . S
H151 C179 0.930 . S
H152 C180 0.932 . S
H153 C183 0.929 . S
H154 C182 0.931 . S
H155 C185 0.929 . S
H156 C189 0.932 . S
H157 C186 0.931 . S
H158 C188 0.929 . S
H159 C191 0.929 . S
H160 C192 0.930 . S
H161 C194 0.929 . S
H162 C195 0.931 . S
H163 C197 0.930 . S
H164 C198 0.932 . S
H165 C200 0.931 . S
H166 C201 0.929 . S
H167 C203 0.929 . S
H168 C204 0.931 . S
H169 C206 0.929 . S
N170 C190 1.433 . S
N170 C196 1.435 . S
N170 C202 1.423 . S
H171 C207 0.932 . S
C172 N147 1.433 . S
C172 C173 1.363 . S
C172 C177 1.370 . S
C173 H146 0.929 . S
C173 C172 1.363 . S
C173 C174 1.385 . S
C174 H148 0.930 . S
C174 C173 1.385 . S
C174 C175 1.357 . S
C175 C174 1.357 . S
C175 C176 1.406 . S
C176 H150 0.929 . S
C176 C175 1.406 . S
C176 C177 1.391 . S
C177 H149 0.931 . S
C177 C172 1.370 . S
C177 C176 1.391 . S
C178 N147 1.435 . S
C178 C179 1.358 . S
C178 C183 1.371 . S
C179 H151 0.930 . S
C179 C178 1.358 . S
C179 C180 1.405 . S
C180 H152 0.932 . S
C180 C179 1.405 . S
C180 C181 1.383 . S
C181 C180 1.383 . S
C181 C182 1.393 . S
C182 H154 0.931 . S
C182 C181 1.393 . S
C182 C183 1.382 . S
C183 H153 0.929 . S
C183 C178 1.371 . S
C183 C182 1.382 . S
C184 N147 1.423 . S
C184 C185 1.362 . S
C184 C189 1.388 . S
C185 H155 0.929 . S
C185 C184 1.362 . S
C185 C186 1.376 . S
C186 H157 0.931 . S
C186 C185 1.376 . S
C186 C187 1.396 . S
C187 C186 1.396 . S
C187 C188 1.348 . S
C187 C205 1.472 . S
C188 H158 0.929 . S
C188 C187 1.348 . S
C188 C189 1.443 . S
C189 H156 0.932 . S
C189 C184 1.388 . S
C189 C188 1.443 . S
C190 N170 1.433 . S
C190 C191 1.363 . S
C190 C195 1.370 . S
C191 H159 0.929 . S
C191 C190 1.363 . S
C191 C192 1.385 . S
C192 H160 0.930 . S
C192 C191 1.385 . S
C192 C193 1.357 . S
C193 C192 1.357 . S
C193 C194 1.406 . S
C194 H161 0.929 . S
C194 C193 1.406 . S
C194 C195 1.391 . S
C195 H162 0.931 . S
C195 C190 1.370 . S
C195 C194 1.391 . S
C196 N170 1.435 . S
C196 C197 1.358 . S
C196 C201 1.371 . S
C197 H163 0.930 . S
C197 C196 1.358 . S
C197 C198 1.405 . S
C198 H164 0.932 . S
C198 C197 1.405 . S
C198 C199 1.383 . S
C199 C198 1.383 . S
C199 C200 1.393 . S
C200 H165 0.931 . S
C200 C199 1.393 . S
C200 C201 1.382 . S
C201 H166 0.929 . S
C201 C196 1.371 . S
C201 C200 1.382 . S
C202 N170 1.423 . S
C202 C203 1.362 . S
C202 C207 1.388 . S
C203 H167 0.929 . S
C203 C202 1.362 . S
C203 C204 1.376 . S
C204 H168 0.931 . S
C204 C203 1.376 . S
C204 C205 1.396 . S
C205 C187 1.472 . S
C205 C204 1.396 . S
C205 C206 1.348 . S
C206 H169 0.929 . S
C206 C205 1.348 . S
C206 C207 1.443 . S
C207 H171 0.932 . S
C207 C202 1.388 . S
C207 C206 1.443 . S
H208 C235 0.929 . S
N209 C234 1.433 . S
N209 C240 1.435 . S
N209 C246 1.423 . S
H210 C236 0.930 . S
H211 C239 0.931 . S
H212 C238 0.929 . S
H213 C241 0.930 . S
H214 C242 0.932 . S
H215 C245 0.929 . S
H216 C244 0.931 . S
H217 C247 0.929 . S
H218 C251 0.932 . S
H219 C248 0.931 . S
H220 C250 0.929 . S
H221 C253 0.929 . S
H222 C254 0.930 . S
H223 C256 0.929 . S
H224 C257 0.931 . S
H225 C259 0.930 . S
H226 C260 0.932 . S
H227 C262 0.931 . S
H228 C263 0.929 . S
H229 C265 0.929 . S
H230 C266 0.931 . S
H231 C268 0.929 . S
N232 C252 1.433 . S
N232 C258 1.435 . S
N232 C264 1.423 . S
H233 C269 0.932 . S
C234 N209 1.433 . S
C234 C235 1.363 . S
C234 C239 1.370 . S
C235 H208 0.929 . S
C235 C234 1.363 . S
C235 C236 1.385 . S
C236 H210 0.930 . S
C236 C235 1.385 . S
C236 C237 1.357 . S
C237 C236 1.357 . S
C237 C238 1.406 . S
C238 H212 0.929 . S
C238 C237 1.406 . S
C238 C239 1.391 . S
C239 H211 0.931 . S
C239 C234 1.370 . S
C239 C238 1.391 . S
C240 N209 1.435 . S
C240 C241 1.358 . S
C240 C245 1.371 . S
C241 H213 0.930 . S
C241 C240 1.358 . S
C241 C242 1.405 . S
C242 H214 0.932 . S
C242 C241 1.405 . S
C242 C243 1.383 . S
C243 C242 1.383 . S
C243 C244 1.393 . S
C244 H216 0.931 . S
C244 C243 1.393 . S
C244 C245 1.382 . S
C245 H215 0.929 . S
C245 C240 1.371 . S
C245 C244 1.382 . S
C246 N209 1.423 . S
C246 C247 1.362 . S
C246 C251 1.388 . S
C247 H217 0.929 . S
C247 C246 1.362 . S
C247 C248 1.376 . S
C248 H219 0.931 . S
C248 C247 1.376 . S
C248 C249 1.396 . S
C249 C248 1.396 . S
C249 C250 1.348 . S
C249 C267 1.472 . S
C250 H220 0.929 . S
C250 C249 1.348 . S
C250 C251 1.443 . S
C251 H218 0.932 . S
C251 C246 1.388 . S
C251 C250 1.443 . S
C252 N232 1.433 . S
C252 C253 1.363 . S
C252 C257 1.370 . S
C253 H221 0.929 . S
C253 C252 1.363 . S
C253 C254 1.385 . S
C254 H222 0.930 . S
C254 C253 1.385 . S
C254 C255 1.357 . S
C255 C254 1.357 . S
C255 C256 1.406 . S
C256 H223 0.929 . S
C256 C255 1.406 . S
C256 C257 1.391 . S
C257 H224 0.931 . S
C257 C252 1.370 . S
C257 C256 1.391 . S
C258 N232 1.435 . S
C258 C259 1.358 . S
C258 C263 1.371 . S
C259 H225 0.930 . S
C259 C258 1.358 . S
C259 C260 1.405 . S
C260 H226 0.932 . S
C260 C259 1.405 . S
C260 C261 1.383 . S
C261 C260 1.383 . S
C261 C262 1.393 . S
C262 H227 0.931 . S
C262 C261 1.393 . S
C262 C263 1.382 . S
C263 H228 0.929 . S
C263 C258 1.371 . S
C263 C262 1.382 . S
C264 N232 1.423 . S
C264 C265 1.362 . S
C264 C269 1.388 . S
C265 H229 0.929 . S
C265 C264 1.362 . S
C265 C266 1.376 . S
C266 H230 0.931 . S
C266 C265 1.376 . S
C266 C267 1.396 . S
C267 C249 1.472 . S
C267 C266 1.396 . S
C267 C268 1.348 . S
C268 H231 0.929 . S
C268 C267 1.348 . S
C268 C269 1.443 . S
C269 H233 0.932 . S
C269 C264 1.388 . S
C269 C268 1.443 . S
H270 C297 0.929 . S
N271 C296 1.433 . S
N271 C302 1.435 . S
N271 C308 1.423 . S
H272 C298 0.930 . S
H273 C301 0.931 . S
H274 C300 0.929 . S
H275 C303 0.930 . S
H276 C304 0.932 . S
H277 C307 0.929 . S
H278 C306 0.931 . S
H279 C309 0.929 . S
H280 C313 0.932 . S
H281 C310 0.931 . S
H282 C312 0.929 . S
H283 C315 0.929 . S
H284 C316 0.930 . S
H285 C318 0.929 . S
H286 C319 0.931 . S
H287 C321 0.930 . S
H288 C322 0.932 . S
H289 C324 0.931 . S
H290 C325 0.929 . S
H291 C327 0.929 . S
H292 C328 0.931 . S
H293 C330 0.929 . S
N294 C314 1.433 . S
N294 C320 1.435 . S
N294 C326 1.423 . S
H295 C331 0.932 . S
C296 N271 1.433 . S
C296 C297 1.363 . S
C296 C301 1.370 . S
C297 H270 0.929 . S
C297 C296 1.363 . S
C297 C298 1.385 . S
C298 H272 0.930 . S
C298 C297 1.385 . S
C298 C299 1.357 . S
C299 C298 1.357 . S
C299 C300 1.406 . S
C300 H274 0.929 . S
C300 C299 1.406 . S
C300 C301 1.391 . S
C301 H273 0.931 . S
C301 C296 1.370 . S
C301 C300 1.391 . S
C302 N271 1.435 . S
C302 C303 1.358 . S
C302 C307 1.371 . S
C303 H275 0.930 . S
C303 C302 1.358 . S
C303 C304 1.405 . S
C304 H276 0.932 . S
C304 C303 1.405 . S
C304 C305 1.383 . S
C305 C304 1.383 . S
C305 C306 1.393 . S
C306 H278 0.931 . S
C306 C305 1.393 . S
C306 C307 1.382 . S
C307 H277 0.929 . S
C307 C302 1.371 . S
C307 C306 1.382 . S
C308 N271 1.423 . S
C308 C309 1.362 . S
C308 C313 1.388 . S
C309 H279 0.929 . S
C309 C308 1.362 . S
C309 C310 1.376 . S
C310 H281 0.931 . S
C310 C309 1.376 . S
C310 C311 1.396 . S
C311 C310 1.396 . S
C311 C312 1.348 . S
C311 C329 1.472 . S
C312 H282 0.929 . S
C312 C311 1.348 . S
C312 C313 1.443 . S
C313 H280 0.932 . S
C313 C308 1.388 . S
C313 C312 1.443 . S
C314 N294 1.433 . S
C314 C315 1.363 . S
C314 C319 1.370 . S
C315 H283 0.929 . S
C315 C314 1.363 . S
C315 C316 1.385 . S
C316 H284 0.930 . S
C316 C315 1.385 . S
C316 C317 1.357 . S
C317 C316 1.357 . S
C317 C318 1.406 . S
C318 H285 0.929 . S
C318 C317 1.406 . S
C318 C319 1.391 . S
C319 H286 0.931 . S
C319 C314 1.370 . S
C319 C318 1.391 . S
C320 N294 1.435 . S
C320 C321 1.358 . S
C320 C325 1.371 . S
C321 H287 0.930 . S
C321 C320 1.358 . S
C321 C322 1.405 . S
C322 H288 0.932 . S
C322 C321 1.405 . S
C322 C323 1.383 . S
C323 C322 1.383 . S
C323 C324 1.393 . S
C324 H289 0.931 . S
C324 C323 1.393 . S
C324 C325 1.382 . S
C325 H290 0.929 . S
C325 C320 1.371 . S
C325 C324 1.382 . S
C326 N294 1.423 . S
C326 C327 1.362 . S
C326 C331 1.388 . S
C327 H291 0.929 . S
C327 C326 1.362 . S
C327 C328 1.376 . S
C328 H292 0.931 . S
C328 C327 1.376 . S
C328 C329 1.396 . S
C329 C311 1.472 . S
C329 C328 1.396 . S
C329 C330 1.348 . S
C330 H293 0.929 . S
C330 C329 1.348 . S
C330 C331 1.443 . S
C331 H295 0.932 . S
C331 C326 1.388 . S
C331 C330 1.443 . S
H332 C359 0.929 . S
N333 C358 1.433 . S
N333 C364 1.435 . S
N333 C370 1.423 . S
H334 C360 0.930 . S
H335 C363 0.931 . S
H336 C362 0.929 . S
H337 C365 0.930 . S
H338 C366 0.932 . S
H339 C369 0.929 . S
H340 C368 0.931 . S
H341 C371 0.929 . S
H342 C375 0.932 . S
H343 C372 0.931 . S
H344 C374 0.929 . S
H345 C377 0.929 . S
H346 C378 0.930 . S
H347 C380 0.929 . S
H348 C381 0.931 . S
H349 C383 0.930 . S
H350 C384 0.932 . S
H351 C386 0.931 . S
H352 C387 0.929 . S
H353 C389 0.929 . S
H354 C390 0.931 . S
H355 C392 0.929 . S
N356 C376 1.433 . S
N356 C382 1.435 . S
N356 C388 1.423 . S
H357 C393 0.932 . S
C358 N333 1.433 . S
C358 C359 1.363 . S
C358 C363 1.370 . S
C359 H332 0.929 . S
C359 C358 1.363 . S
C359 C360 1.385 . S
C360 H334 0.930 . S
C360 C359 1.385 . S
C360 C361 1.357 . S
C361 C360 1.357 . S
C361 C362 1.406 . S
C362 H336 0.929 . S
C362 C361 1.406 . S
C362 C363 1.391 . S
C363 H335 0.931 . S
C363 C358 1.370 . S
C363 C362 1.391 . S
C364 N333 1.435 . S
C364 C365 1.358 . S
C364 C369 1.371 . S
C365 H337 0.930 . S
C365 C364 1.358 . S
C365 C366 1.405 . S
C366 H338 0.932 . S
C366 C365 1.405 . S
C366 C367 1.383 . S
C367 C366 1.383 . S
C367 C368 1.393 . S
C368 H340 0.931 . S
C368 C367 1.393 . S
C368 C369 1.382 . S
C369 H339 0.929 . S
C369 C364 1.371 . S
C369 C368 1.382 . S
C370 N333 1.423 . S
C370 C371 1.362 . S
C370 C375 1.388 . S
C371 H341 0.929 . S
C371 C370 1.362 . S
C371 C372 1.376 . S
C372 H343 0.931 . S
C372 C371 1.376 . S
C372 C373 1.396 . S
C373 C372 1.396 . S
C373 C374 1.348 . S
C373 C391 1.472 . S
C374 H344 0.929 . S
C374 C373 1.348 . S
C374 C375 1.443 . S
C375 H342 0.932 . S
C375 C370 1.388 . S
C375 C374 1.443 . S
C376 N356 1.433 . S
C376 C377 1.363 . S
C376 C381 1.370 . S
C377 H345 0.929 . S
C377 C376 1.363 . S
C377 C378 1.385 . S
C378 H346 0.930 . S
C378 C377 1.385 . S
C378 C379 1.357 . S
C379 C378 1.357 . S
C379 C380 1.406 . S
C380 H347 0.929 . S
C380 C379 1.406 . S
C380 C381 1.391 . S
C381 H348 0.931 . S
C381 C376 1.370 . S
C381 C380 1.391 . S
C382 N356 1.435 . S
C382 C383 1.358 . S
C382 C387 1.371 . S
C383 H349 0.930 . S
C383 C382 1.358 . S
C383 C384 1.405 . S
C384 H350 0.932 . S
C384 C383 1.405 . S
C384 C385 1.383 . S
C385 C384 1.383 . S
C385 C386 1.393 . S
C386 H351 0.931 . S
C386 C385 1.393 . S
C386 C387 1.382 . S
C387 H352 0.929 . S
C387 C382 1.371 . S
C387 C386 1.382 . S
C388 N356 1.423 . S
C388 C389 1.362 . S
C388 C393 1.388 . S
C389 H353 0.929 . S
C389 C388 1.362 . S
C389 C390 1.376 . S
C390 H354 0.931 . S
C390 C389 1.376 . S
C390 C391 1.396 . S
C391 C373 1.472 . S
C391 C390 1.396 . S
C391 C392 1.348 . S
C392 H355 0.929 . S
C392 C391 1.348 . S
C392 C393 1.443 . S
C393 H357 0.932 . S
C393 C388 1.388 . S
C393 C392 1.443 . S
H394 C421 0.929 . S
N395 C420 1.433 . S
N395 C426 1.435 . S
N395 C432 1.423 . S
H396 C422 0.930 . S
H397 C425 0.931 . S
H398 C424 0.929 . S
H399 C427 0.930 . S
H400 C428 0.932 . S
H401 C431 0.929 . S
H402 C430 0.931 . S
H403 C433 0.929 . S
H404 C437 0.932 . S
H405 C434 0.931 . S
H406 C436 0.929 . S
H407 C439 0.929 . S
H408 C440 0.930 . S
H409 C442 0.929 . S
H410 C443 0.931 . S
H411 C445 0.930 . S
H412 C446 0.932 . S
H413 C448 0.931 . S
H414 C449 0.929 . S
H415 C451 0.929 . S
H416 C452 0.931 . S
H417 C454 0.929 . S
N418 C438 1.433 . S
N418 C444 1.435 . S
N418 C450 1.423 . S
H419 C455 0.932 . S
C420 N395 1.433 . S
C420 C421 1.363 . S
C420 C425 1.370 . S
C421 H394 0.929 . S
C421 C420 1.363 . S
C421 C422 1.385 . S
C422 H396 0.930 . S
C422 C421 1.385 . S
C422 C423 1.357 . S
C423 C422 1.357 . S
C423 C424 1.406 . S
C424 H398 0.929 . S
C424 C423 1.406 . S
C424 C425 1.391 . S
C425 H397 0.931 . S
C425 C420 1.370 . S
C425 C424 1.391 . S
C426 N395 1.435 . S
C426 C427 1.358 . S
C426 C431 1.371 . S
C427 H399 0.930 . S
C427 C426 1.358 . S
C427 C428 1.405 . S
C428 H400 0.932 . S
C428 C427 1.405 . S
C428 C429 1.383 . S
C429 C428 1.383 . S
C429 C430 1.393 . S
C430 H402 0.931 . S
C430 C429 1.393 . S
C430 C431 1.382 . S
C431 H401 0.929 . S
C431 C426 1.371 . S
C431 C430 1.382 . S
C432 N395 1.423 . S
C432 C433 1.362 . S
C432 C437 1.388 . S
C433 H403 0.929 . S
C433 C432 1.362 . S
C433 C434 1.376 . S
C434 H405 0.931 . S
C434 C433 1.376 . S
C434 C435 1.396 . S
C435 C434 1.396 . S
C435 C436 1.348 . S
C435 C453 1.472 . S
C436 H406 0.929 . S
C436 C435 1.348 . S
C436 C437 1.443 . S
C437 H404 0.932 . S
C437 C432 1.388 . S
C437 C436 1.443 . S
C438 N418 1.433 . S
C438 C439 1.363 . S
C438 C443 1.370 . S
C439 H407 0.929 . S
C439 C438 1.363 . S
C439 C440 1.385 . S
C440 H408 0.930 . S
C440 C439 1.385 . S
C440 C441 1.357 . S
C441 C440 1.357 . S
C441 C442 1.406 . S
C442 H409 0.929 . S
C442 C441 1.406 . S
C442 C443 1.391 . S
C443 H410 0.931 . S
C443 C438 1.370 . S
C443 C442 1.391 . S
C444 N418 1.435 . S
C444 C445 1.358 . S
C444 C449 1.371 . S
C445 H411 0.930 . S
C445 C444 1.358 . S
C445 C446 1.405 . S
C446 H412 0.932 . S
C446 C445 1.405 . S
C446 C447 1.383 . S
C447 C446 1.383 . S
C447 C448 1.393 . S
C448 H413 0.931 . S
C448 C447 1.393 . S
C448 C449 1.382 . S
C449 H414 0.929 . S
C449 C444 1.371 . S
C449 C448 1.382 . S
C450 N418 1.423 . S
C450 C451 1.362 . S
C450 C455 1.388 . S
C451 H415 0.929 . S
C451 C450 1.362 . S
C451 C452 1.376 . S
C452 H416 0.931 . S
C452 C451 1.376 . S
C452 C453 1.396 . S
C453 C435 1.472 . S
C453 C452 1.396 . S
C453 C454 1.348 . S
C454 H417 0.929 . S
C454 C453 1.348 . S
C454 C455 1.443 . S
C455 H419 0.932 . S
C455 C450 1.388 . S
C455 C454 1.443 . S
H456 C464 0.929 . S
H457 C466 0.930 . S
H458 C468 0.930 . S
H459 C471 0.929 . S
H460 C474 0.930 . S
H461 C476 0.960 . S
H462 C476 0.960 . S
H463 C476 0.960 . S
C464 H456 0.929 . S
C464 C465 1.377 . S
C464 C466 1.384 . S
C465 C464 1.377 . S
C465 C471 1.390 . S
C466 H457 0.930 . S
C466 C464 1.384 . S
C466 C467 1.372 . S
C467 C466 1.372 . S
C467 C468 1.400 . S
C467 C472 1.490 . S
C468 H458 0.930 . S
C468 C467 1.400 . S
C468 C471 1.386 . S
H469 C485 0.930 . S
H470 C486 0.931 . S
C471 H459 0.929 . S
C471 C465 1.390 . S
C471 C468 1.386 . S
C472 C467 1.490 . S
C472 C474 1.395 . S
C472 C475 1.403 . S
H473 C479 0.930 . S
C474 H460 0.930 . S
C474 C472 1.395 . S
C474 C477 1.403 . S
C475 C472 1.403 . S
C475 C476 1.524 . S
C475 C479 1.400 . S
C476 H461 0.960 . S
C476 H462 0.960 . S
C476 H463 0.960 . S
C476 C475 1.524 . S
C477 C474 1.403 . S
C477 C478 1.392 . S
C477 C481 1.495 . S
C478 C477 1.392 . S
C478 C479 1.385 . S
C478 C480 1.478 . S
C479 H473 0.930 . S
C479 C475 1.400 . S
C479 C478 1.385 . S
C480 C478 1.478 . S
C480 C482 1.381 . S
C480 C486 1.383 . S
C481 C477 1.495 . S
C481 H487 0.959 . S
C481 H488 0.961 . S
C481 H489 0.960 . S
C482 C480 1.381 . S
C482 C483 1.394 . S
C482 H490 0.930 . S
C483 C482 1.394 . S
C483 C484 1.383 . S
C483 H491 0.929 . S
C484 C483 1.383 . S
C484 C485 1.377 . S
C485 H469 0.930 . S
C485 C484 1.377 . S
C485 C486 1.379 . S
C486 H470 0.931 . S
C486 C480 1.383 . S
C486 C485 1.379 . S
H487 C481 0.959 . S
H488 C481 0.961 . S
H489 C481 0.960 . S
H490 C482 0.930 . S
H491 C483 0.929 . S
H492 C500 0.929 . S
H493 C502 0.930 . S
H494 C504 0.930 . S
H495 C507 0.929 . S
H496 C510 0.930 . S
H497 C512 0.960 . S
H498 C512 0.960 . S
H499 C512 0.960 . S
C500 H492 0.929 . S
C500 C501 1.377 . S
C500 C502 1.384 . S
C501 C500 1.377 . S
C501 C507 1.390 . S
C502 H493 0.930 . S
C502 C500 1.384 . S
C502 C503 1.372 . S
C503 C502 1.372 . S
C503 C504 1.400 . S
C503 C508 1.490 . S
C504 H494 0.930 . S
C504 C503 1.400 . S
C504 C507 1.386 . S
H505 C521 0.930 . S
H506 C522 0.931 . S
C507 H495 0.929 . S
C507 C501 1.390 . S
C507 C504 1.386 . S
C508 C503 1.490 . S
C508 C510 1.395 . S
C508 C511 1.403 . S
H509 C515 0.930 . S
C510 H496 0.930 . S
C510 C508 1.395 . S
C510 C513 1.403 . S
C511 C508 1.403 . S
C511 C512 1.524 . S
C511 C515 1.400 . S
C512 H497 0.960 . S
C512 H498 0.960 . S
C512 H499 0.960 . S
C512 C511 1.524 . S
C513 C510 1.403 . S
C513 C514 1.392 . S
C513 C517 1.495 . S
C514 C513 1.392 . S
C514 C515 1.385 . S
C514 C516 1.478 . S
C515 H509 0.930 . S
C515 C511 1.400 . S
C515 C514 1.385 . S
C516 C514 1.478 . S
C516 C518 1.381 . S
C516 C522 1.383 . S
C517 C513 1.495 . S
C517 H523 0.959 . S
C517 H524 0.961 . S
C517 H525 0.960 . S
C518 C516 1.381 . S
C518 C519 1.394 . S
C518 H526 0.930 . S
C519 C518 1.394 . S
C519 C520 1.383 . S
C519 H527 0.929 . S
C520 C519 1.383 . S
C520 C521 1.377 . S
C521 H505 0.930 . S
C521 C520 1.377 . S
C521 C522 1.379 . S
C522 H506 0.931 . S
C522 C516 1.383 . S
C522 C521 1.379 . S
H523 C517 0.959 . S
H524 C517 0.961 . S
H525 C517 0.960 . S
H526 C518 0.930 . S
H527 C519 0.929 . S
H528 C536 0.929 . S
H529 C538 0.930 . S
H530 C540 0.930 . S
H531 C543 0.929 . S
H532 C546 0.930 . S
H533 C548 0.960 . S
H534 C548 0.960 . S
H535 C548 0.960 . S
C536 H528 0.929 . S
C536 C537 1.377 . S
C536 C538 1.384 . S
C537 C536 1.377 . S
C537 C543 1.390 . S
C538 H529 0.930 . S
C538 C536 1.384 . S
C538 C539 1.372 . S
C539 C538 1.372 . S
C539 C540 1.400 . S
C539 C544 1.490 . S
C540 H530 0.930 . S
C540 C539 1.400 . S
C540 C543 1.386 . S
H541 C557 0.930 . S
H542 C558 0.931 . S
C543 H531 0.929 . S
C543 C537 1.390 . S
C543 C540 1.386 . S
C544 C539 1.490 . S
C544 C546 1.395 . S
C544 C547 1.403 . S
H545 C551 0.930 . S
C546 H532 0.930 . S
C546 C544 1.395 . S
C546 C549 1.403 . S
C547 C544 1.403 . S
C547 C548 1.524 . S
C547 C551 1.400 . S
C548 H533 0.960 . S
C548 H534 0.960 . S
C548 H535 0.960 . S
C548 C547 1.524 . S
C549 C546 1.403 . S
C549 C550 1.392 . S
C549 C553 1.495 . S
C550 C549 1.392 . S
C550 C551 1.385 . S
C550 C552 1.478 . S
C551 H545 0.930 . S
C551 C547 1.400 . S
C551 C550 1.385 . S
C552 C550 1.478 . S
C552 C554 1.381 . S
C552 C558 1.383 . S
C553 C549 1.495 . S
C553 H559 0.959 . S
C553 H560 0.961 . S
C553 H561 0.960 . S
C554 C552 1.381 . S
C554 C555 1.394 . S
C554 H562 0.930 . S
C555 C554 1.394 . S
C555 C556 1.383 . S
C555 H563 0.929 . S
C556 C555 1.383 . S
C556 C557 1.377 . S
C557 H541 0.930 . S
C557 C556 1.377 . S
C557 C558 1.379 . S
C558 H542 0.931 . S
C558 C552 1.383 . S
C558 C557 1.379 . S
H559 C553 0.959 . S
H560 C553 0.961 . S
H561 C553 0.960 . S
H562 C554 0.930 . S
H563 C555 0.929 . S
H564 C572 0.929 . S
H565 C574 0.930 . S
H566 C576 0.930 . S
H567 C579 0.929 . S
H568 C582 0.930 1_455 S
H569 C584 0.960 . S
H570 C584 0.960 . S
H571 C584 0.960 . S
C572 H564 0.929 . S
C572 C573 1.377 . S
C572 C574 1.384 . S
C573 C572 1.377 . S
C573 C579 1.390 . S
C574 H565 0.930 . S
C574 C572 1.384 . S
C574 C575 1.372 1_455 S
C575 C574 1.372 1_655 S
C575 C576 1.400 . S
C575 C580 1.490 . S
C576 H566 0.930 . S
C576 C575 1.400 . S
C576 C579 1.386 1_655 S
H577 C593 0.930 . S
H578 C594 0.931 . S
C579 H567 0.929 . S
C579 C573 1.390 . S
C579 C576 1.386 1_455 S
C580 C575 1.490 . S
C580 C582 1.395 . S
C580 C583 1.403 . S
H581 C587 0.930 . S
C582 H568 0.930 1_655 S
C582 C580 1.395 . S
C582 C585 1.403 . S
C583 C580 1.403 . S
C583 C584 1.524 . S
C583 C587 1.400 . S
C584 H569 0.960 . S
C584 H570 0.960 . S
C584 H571 0.960 . S
C584 C583 1.524 . S
C585 C582 1.403 . S
C585 C586 1.392 . S
C585 C589 1.495 . S
C586 C585 1.392 . S
C586 C587 1.385 . S
C586 C588 1.478 . S
C587 H581 0.930 . S
C587 C583 1.400 . S
C587 C586 1.385 . S
C588 C586 1.478 . S
C588 C590 1.381 . S
C588 C594 1.383 . S
C589 C585 1.495 . S
C589 H595 0.959 1_655 S
C589 H596 0.961 . S
C589 H597 0.960 . S
C590 C588 1.381 . S
C590 C591 1.394 . S
C590 H598 0.930 . S
C591 C590 1.394 . S
C591 C592 1.383 . S
C591 H599 0.929 . S
C592 C591 1.383 . S
C592 C593 1.377 . S
C593 H577 0.930 . S
C593 C592 1.377 . S
C593 C594 1.379 . S
C594 H578 0.931 . S
C594 C588 1.383 . S
C594 C593 1.379 . S
H595 C589 0.959 1_455 S
H596 C589 0.961 . S
H597 C589 0.960 . S
H598 C590 0.930 . S
H599 C591 0.929 . S
H600 C608 0.929 . S
H601 C610 0.930 . S
H602 C612 0.930 . S
H603 C615 0.929 . S
H604 C618 0.930 . S
H605 C620 0.960 . S
H606 C620 0.960 . S
H607 C620 0.960 . S
C608 H600 0.929 . S
C608 C609 1.377 . S
C608 C610 1.384 . S
C609 C608 1.377 . S
C609 C615 1.390 . S
C610 H601 0.930 . S
C610 C608 1.384 . S
C610 C611 1.372 . S
C611 C610 1.372 . S
C611 C612 1.400 . S
C611 C616 1.490 . S
C612 H602 0.930 . S
C612 C611 1.400 . S
C612 C615 1.386 . S
H613 C629 0.930 . S
H614 C630 0.931 . S
C615 H603 0.929 . S
C615 C609 1.390 . S
C615 C612 1.386 . S
C616 C611 1.490 . S
C616 C618 1.395 . S
C616 C619 1.403 . S
H617 C623 0.930 . S
C618 H604 0.930 . S
C618 C616 1.395 . S
C618 C621 1.403 . S
C619 C616 1.403 . S
C619 C620 1.524 . S
C619 C623 1.400 . S
C620 H605 0.960 . S
C620 H606 0.960 . S
C620 H607 0.960 . S
C620 C619 1.524 . S
C621 C618 1.403 . S
C621 C622 1.392 . S
C621 C625 1.495 . S
C622 C621 1.392 . S
C622 C623 1.385 . S
C622 C624 1.478 . S
C623 H617 0.930 . S
C623 C619 1.400 . S
C623 C622 1.385 . S
C624 C622 1.478 . S
C624 C626 1.381 . S
C624 C630 1.383 . S
C625 C621 1.495 . S
C625 H631 0.959 . S
C625 H632 0.961 . S
C625 H633 0.960 . S
C626 C624 1.381 . S
C626 C627 1.394 . S
C626 H634 0.930 . S
C627 C626 1.394 . S
C627 C628 1.383 . S
C627 H635 0.929 . S
C628 C627 1.383 . S
C628 C629 1.377 . S
C629 H613 0.930 . S
C629 C628 1.377 . S
C629 C630 1.379 . S
C630 H614 0.931 . S
C630 C624 1.383 . S
C630 C629 1.379 . S
H631 C625 0.959 . S
H632 C625 0.961 . S
H633 C625 0.960 . S
H634 C626 0.930 . S
H635 C627 0.929 . S
H636 C644 0.929 . S
H637 C646 0.930 . S
H638 C648 0.930 . S
H639 C651 0.929 . S
H640 C654 0.930 . S
H641 C656 0.960 . S
H642 C656 0.960 . S
H643 C656 0.960 . S
C644 H636 0.929 . S
C644 C645 1.377 . S
C644 C646 1.384 . S
C645 C644 1.377 . S
C645 C651 1.390 . S
C646 H637 0.930 . S
C646 C644 1.384 . S
C646 C647 1.372 . S
C647 C646 1.372 . S
C647 C648 1.400 . S
C647 C652 1.490 . S
C648 H638 0.930 . S
C648 C647 1.400 . S
C648 C651 1.386 . S
H649 C665 0.930 . S
H650 C666 0.931 . S
C651 H639 0.929 . S
C651 C645 1.390 . S
C651 C648 1.386 . S
C652 C647 1.490 . S
C652 C654 1.395 . S
C652 C655 1.403 . S
H653 C659 0.930 . S
C654 H640 0.930 . S
C654 C652 1.395 . S
C654 C657 1.403 . S
C655 C652 1.403 . S
C655 C656 1.524 . S
C655 C659 1.400 . S
C656 H641 0.960 . S
C656 H642 0.960 . S
C656 H643 0.960 . S
C656 C655 1.524 . S
C657 C654 1.403 . S
C657 C658 1.392 . S
C657 C661 1.495 . S
C658 C657 1.392 . S
C658 C659 1.385 . S
C658 C660 1.478 . S
C659 H653 0.930 . S
C659 C655 1.400 . S
C659 C658 1.385 . S
C660 C658 1.478 . S
C660 C662 1.381 . S
C660 C666 1.383 . S
C661 C657 1.495 . S
C661 H667 0.959 . S
C661 H668 0.961 . S
C661 H669 0.960 . S
C662 C660 1.381 . S
C662 C663 1.394 . S
C662 H670 0.930 . S
C663 C662 1.394 . S
C663 C664 1.383 . S
C663 H671 0.929 . S
C664 C663 1.383 . S
C664 C665 1.377 . S
C665 H649 0.930 . S
C665 C664 1.377 . S
C665 C666 1.379 . S
C666 H650 0.931 . S
C666 C660 1.383 . S
C666 C665 1.379 . S
H667 C661 0.959 . S
H668 C661 0.961 . S
H669 C661 0.960 . S
H670 C662 0.930 . S
H671 C663 0.929 . S
H672 C680 0.929 . S
H673 C682 0.930 . S
H674 C684 0.930 . S
H675 C687 0.929 . S
H676 C690 0.930 . S
H677 C692 0.960 . S
H678 C692 0.960 . S
H679 C692 0.960 . S
C680 H672 0.929 . S
C680 C681 1.377 . S
C680 C682 1.384 . S
C681 C680 1.377 . S
C681 C687 1.390 . S
C682 H673 0.930 . S
C682 C680 1.384 . S
C682 C683 1.372 . S
C683 C682 1.372 . S
C683 C684 1.400 . S
C683 C688 1.490 . S
C684 H674 0.930 . S
C684 C683 1.400 . S
C684 C687 1.386 . S
H685 C701 0.930 . S
H686 C702 0.931 . S
C687 H675 0.929 . S
C687 C681 1.390 . S
C687 C684 1.386 . S
C688 C683 1.490 . S
C688 C690 1.395 . S
C688 C691 1.403 . S
H689 C695 0.930 . S
C690 H676 0.930 . S
C690 C688 1.395 . S
C690 C693 1.403 . S
C691 C688 1.403 . S
C691 C692 1.524 . S
C691 C695 1.400 . S
C692 H677 0.960 . S
C692 H678 0.960 . S
C692 H679 0.960 . S
C692 C691 1.524 . S
C693 C690 1.403 . S
C693 C694 1.392 . S
C693 C697 1.495 . S
C694 C693 1.392 . S
C694 C695 1.385 . S
C694 C696 1.478 . S
C695 H689 0.930 . S
C695 C691 1.400 . S
C695 C694 1.385 . S
C696 C694 1.478 . S
C696 C698 1.381 . S
C696 C702 1.383 . S
C697 C693 1.495 . S
C697 H703 0.959 . S
C697 H704 0.961 . S
C697 H705 0.960 . S
C698 C696 1.381 . S
C698 C699 1.394 . S
C698 H706 0.930 . S
C699 C698 1.394 . S
C699 C700 1.383 . S
C699 H707 0.929 . S
C700 C699 1.383 . S
C700 C701 1.377 . S
C701 H685 0.930 . S
C701 C700 1.377 . S
C701 C702 1.379 . S
C702 H686 0.931 . S
C702 C696 1.383 . S
C702 C701 1.379 . S
H703 C697 0.959 . S
H704 C697 0.961 . S
H705 C697 0.960 . S
H706 C698 0.930 . S
H707 C699 0.929 . S
H708 C716 0.929 . S
H709 C718 0.930 . S
H710 C720 0.930 . S
H711 C723 0.929 . S
H712 C726 0.930 . S
H713 C728 0.960 . S
H714 C728 0.960 . S
H715 C728 0.960 . S
C716 H708 0.929 . S
C716 C717 1.377 . S
C716 C718 1.384 . S
C717 C716 1.377 . S
C717 C723 1.390 . S
C718 H709 0.930 . S
C718 C716 1.384 . S
C718 C719 1.372 . S
C719 C718 1.372 . S
C719 C720 1.400 . S
C719 C724 1.490 . S
C720 H710 0.930 . S
C720 C719 1.400 . S
C720 C723 1.386 . S
H721 C737 0.930 . S
H722 C738 0.931 . S
C723 H711 0.929 . S
C723 C717 1.390 . S
C723 C720 1.386 . S
C724 C719 1.490 . S
C724 C726 1.395 . S
C724 C727 1.403 . S
H725 C731 0.930 . S
C726 H712 0.930 . S
C726 C724 1.395 . S
C726 C729 1.403 . S
C727 C724 1.403 . S
C727 C728 1.524 . S
C727 C731 1.400 . S
C728 H713 0.960 . S
C728 H714 0.960 . S
C728 H715 0.960 . S
C728 C727 1.524 . S
C729 C726 1.403 . S
C729 C730 1.392 . S
C729 C733 1.495 . S
C730 C729 1.392 . S
C730 C731 1.385 . S
C730 C732 1.478 . S
C731 H725 0.930 . S
C731 C727 1.400 . S
C731 C730 1.385 . S
C732 C730 1.478 . S
C732 C734 1.381 . S
C732 C738 1.383 . S
C733 C729 1.495 . S
C733 H739 0.959 . S
C733 H740 0.961 . S
C733 H741 0.960 . S
C734 C732 1.381 . S
C734 C735 1.394 . S
C734 H742 0.930 . S
C735 C734 1.394 . S
C735 C736 1.383 . S
C735 H743 0.929 . S
C736 C735 1.383 . S
C736 C737 1.377 . S
C737 H721 0.930 . S
C737 C736 1.377 . S
C737 C738 1.379 . S
C738 H722 0.931 . S
C738 C732 1.383 . S
C738 C737 1.379 . S
H739 C733 0.959 . S
H740 C733 0.961 . S
H741 C733 0.960 . S
H742 C734 0.930 . S
H743 C735 0.929 . S
H744 C752 0.929 . S
H745 C754 0.930 . S
H746 C756 0.930 . S
H747 C759 0.929 . S
H748 C762 0.930 . S
H749 C764 0.960 . S
H750 C764 0.960 . S
H751 C764 0.960 . S
C752 H744 0.929 . S
C752 C753 1.377 . S
C752 C754 1.384 . S
C753 C752 1.377 . S
C753 C759 1.390 . S
C754 H745 0.930 . S
C754 C752 1.384 . S
C754 C755 1.372 . S
C755 C754 1.372 . S
C755 C756 1.400 . S
C755 C760 1.490 . S
C756 H746 0.930 . S
C756 C755 1.400 . S
C756 C759 1.386 . S
H757 C773 0.930 . S
H758 C774 0.931 . S
C759 H747 0.929 . S
C759 C753 1.390 . S
C759 C756 1.386 . S
C760 C755 1.490 . S
C760 C762 1.395 . S
C760 C763 1.403 . S
H761 C767 0.930 . S
C762 H748 0.930 . S
C762 C760 1.395 . S
C762 C765 1.403 . S
C763 C760 1.403 . S
C763 C764 1.524 . S
C763 C767 1.400 . S
C764 H749 0.960 . S
C764 H750 0.960 . S
C764 H751 0.960 . S
C764 C763 1.524 . S
C765 C762 1.403 . S
C765 C766 1.392 . S
C765 C769 1.495 . S
C766 C765 1.392 . S
C766 C767 1.385 . S
C766 C768 1.478 . S
C767 H761 0.930 . S
C767 C763 1.400 . S
C767 C766 1.385 . S
C768 C766 1.478 . S
C768 C770 1.381 . S
C768 C774 1.383 . S
C769 C765 1.495 . S
C769 H775 0.959 . S
C769 H776 0.961 . S
C769 H777 0.960 . S
C770 C768 1.381 . S
C770 C771 1.394 . S
C770 H778 0.930 . S
C771 C770 1.394 . S
C771 C772 1.383 . S
C771 H779 0.929 . S
C772 C771 1.383 . S
C772 C773 1.377 . S
C773 H757 0.930 . S
C773 C772 1.377 . S
C773 C774 1.379 . S
C774 H758 0.931 . S
C774 C768 1.383 . S
C774 C773 1.379 . S
H775 C769 0.959 . S
H776 C769 0.961 . S
H777 C769 0.960 . S
H778 C770 0.930 . S
H779 C771 0.929 . S
H780 C788 0.929 . S
H781 C790 0.930 . S
H782 C792 0.930 . S
H783 C795 0.929 . S
H784 C798 0.930 . S
H785 C800 0.960 . S
H786 C800 0.960 . S
H787 C800 0.960 . S
C788 H780 0.929 . S
C788 C789 1.377 . S
C788 C790 1.384 . S
C789 C788 1.377 . S
C789 C795 1.390 . S
C790 H781 0.930 . S
C790 C788 1.384 . S
C790 C791 1.372 . S
C791 C790 1.372 . S
C791 C792 1.400 . S
C791 C796 1.490 . S
C792 H782 0.930 . S
C792 C791 1.400 . S
C792 C795 1.386 . S
H793 C809 0.930 . S
H794 C810 0.931 . S
C795 H783 0.929 . S
C795 C789 1.390 . S
C795 C792 1.386 . S
C796 C791 1.490 . S
C796 C798 1.395 . S
C796 C799 1.403 . S
H797 C803 0.930 . S
C798 H784 0.930 . S
C798 C796 1.395 . S
C798 C801 1.403 . S
C799 C796 1.403 . S
C799 C800 1.524 . S
C799 C803 1.400 . S
C800 H785 0.960 . S
C800 H786 0.960 . S
C800 H787 0.960 . S
C800 C799 1.524 . S
C801 C798 1.403 . S
C801 C802 1.392 . S
C801 C805 1.495 . S
C802 C801 1.392 . S
C802 C803 1.385 . S
C802 C804 1.478 . S
C803 H797 0.930 . S
C803 C799 1.400 . S
C803 C802 1.385 . S
C804 C802 1.478 . S
C804 C806 1.381 . S
C804 C810 1.383 . S
C805 C801 1.495 . S
C805 H811 0.959 . S
C805 H812 0.961 . S
C805 H813 0.960 . S
C806 C804 1.381 . S
C806 C807 1.394 . S
C806 H814 0.930 . S
C807 C806 1.394 . S
C807 C808 1.383 . S
C807 H815 0.929 . S
C808 C807 1.383 . S
C808 C809 1.377 . S
C809 H793 0.930 . S
C809 C808 1.377 . S
C809 C810 1.379 . S
C810 H794 0.931 . S
C810 C804 1.383 . S
C810 C809 1.379 . S
H811 C805 0.959 . S
H812 C805 0.961 . S
H813 C805 0.960 . S
H814 C806 0.930 . S
H815 C807 0.929 . S
H816 C824 0.929 . S
H817 C826 0.930 . S
H818 C828 0.930 . S
H819 C831 0.929 . S
H820 C834 0.930 . S
H821 C836 0.960 . S
H822 C836 0.960 . S
H823 C836 0.960 . S
C824 H816 0.929 . S
C824 C825 1.377 . S
C824 C826 1.384 . S
C825 C824 1.377 . S
C825 C831 1.390 . S
C826 H817 0.930 . S
C826 C824 1.384 . S
C826 C827 1.372 . S
C827 C826 1.372 . S
C827 C828 1.400 . S
C827 C832 1.490 . S
C828 H818 0.930 . S
C828 C827 1.400 . S
C828 C831 1.386 . S
H829 C845 0.930 . S
H830 C846 0.931 . S
C831 H819 0.929 . S
C831 C825 1.390 . S
C831 C828 1.386 . S
C832 C827 1.490 . S
C832 C834 1.395 . S
C832 C835 1.403 . S
H833 C839 0.930 . S
C834 H820 0.930 . S
C834 C832 1.395 . S
C834 C837 1.403 . S
C835 C832 1.403 . S
C835 C836 1.524 . S
C835 C839 1.400 . S
C836 H821 0.960 . S
C836 H822 0.960 . S
C836 H823 0.960 . S
C836 C835 1.524 . S
C837 C834 1.403 . S
C837 C838 1.392 . S
C837 C841 1.495 . S
C838 C837 1.392 . S
C838 C839 1.385 . S
C838 C840 1.478 . S
C839 H833 0.930 . S
C839 C835 1.400 . S
C839 C838 1.385 . S
C840 C838 1.478 . S
C840 C842 1.381 . S
C840 C846 1.383 . S
C841 C837 1.495 . S
C841 H847 0.959 . S
C841 H848 0.961 . S
C841 H849 0.960 . S
C842 C840 1.381 . S
C842 C843 1.394 . S
C842 H850 0.930 . S
C843 C842 1.394 . S
C843 C844 1.383 . S
C843 H851 0.929 . S
C844 C843 1.383 . S
C844 C845 1.377 . S
C845 H829 0.930 . S
C845 C844 1.377 . S
C845 C846 1.379 . S
C846 H830 0.931 . S
C846 C840 1.383 . S
C846 C845 1.379 . S
H847 C841 0.959 . S
H848 C841 0.961 . S
H849 C841 0.960 . S
H850 C842 0.930 . S
H851 C843 0.929 . S
H852 C860 0.929 . S
H853 C862 0.930 . S
H854 C864 0.930 . S
H855 C867 0.929 . S
H856 C870 0.917 1_554 S
H857 C872 0.960 . S
H858 C872 0.960 . S
H859 C872 0.960 . S
C860 H852 0.929 . S
C860 C861 1.377 . S
C860 C862 1.384 1_554 S
C861 C860 1.377 . S
C861 C867 1.390 1_554 S
C862 H853 0.930 . S
C862 C860 1.384 1_556 S
C862 C863 1.372 . S
C863 C862 1.372 . S
C863 C864 1.400 . S
C863 C868 1.490 . S
C864 H854 0.930 . S
C864 C863 1.400 . S
C864 C867 1.386 . S
H865 C881 0.930 . S
H866 C882 0.931 . S
C867 H855 0.929 . S
C867 C861 1.390 1_556 S
C867 C864 1.386 . S
C868 C863 1.490 . S
C868 C870 1.395 . S
C868 C871 1.403 . S
H869 C875 0.930 . S
C870 H856 0.917 1_556 S
C870 C868 1.395 . S
C870 C873 1.403 . S
C871 C868 1.403 . S
C871 C872 1.524 . S
C871 C875 1.400 . S
C872 H857 0.960 . S
C872 H858 0.960 . S
C872 H859 0.960 . S
C872 C871 1.524 . S
C873 C870 1.403 . S
C873 C874 1.392 . S
C873 C877 1.495 . S
C874 C873 1.392 . S
C874 C875 1.385 . S
C874 C876 1.478 . S
C875 H869 0.930 . S
C875 C871 1.400 . S
C875 C874 1.385 . S
C876 C874 1.478 . S
C876 C878 1.381 . S
C876 C882 1.383 . S
C877 C873 1.495 . S
C877 H883 0.959 1_556 S
C877 H884 0.961 . S
C877 H885 0.960 . S
C878 C876 1.381 . S
C878 C879 1.394 . S
C878 H886 0.930 . S
C879 C878 1.394 . S
C879 C880 1.383 . S
C879 H887 0.929 . S
C880 C879 1.383 . S
C880 C881 1.377 . S
C881 H865 0.930 . S
C881 C880 1.377 . S
C881 C882 1.379 . S
C882 H866 0.931 . S
C882 C876 1.383 . S
C882 C881 1.379 . S
H883 C877 0.959 1_554 S
H884 C877 0.961 . S
H885 C877 0.960 . S
H886 C878 0.930 . S
H887 C879 0.929 . S
H888 C896 0.929 . S
H889 C898 0.930 . S
H890 C900 0.927 1_554 S
H891 C903 0.929 . S
H892 C906 0.930 . S
H893 C908 0.960 . S
H894 C908 0.960 . S
H895 C908 0.960 . S
C896 H888 0.929 . S
C896 C897 1.377 1_556 S
C896 C898 1.384 . S
C897 C896 1.377 1_554 S
C897 C903 1.390 . S
C898 H889 0.930 . S
C898 C896 1.384 . S
C898 C899 1.372 . S
C899 C898 1.372 . S
C899 C900 1.412 . S
C899 C904 1.490 . S
C900 H890 0.927 1_556 S
C900 C899 1.412 . S
C900 C903 1.377 1_556 S
H901 C917 0.930 . S
H902 C918 0.931 . S
C903 H891 0.929 . S
C903 C897 1.390 . S
C903 C900 1.377 1_554 S
C904 C899 1.490 . S
C904 C906 1.395 . S
C904 C907 1.403 . S
H905 C911 0.930 . S
C906 H892 0.930 . S
C906 C904 1.395 . S
C906 C909 1.403 . S
C907 C904 1.403 . S
C907 C908 1.524 1_556 S
C907 C911 1.400 . S
C908 H893 0.960 . S
C908 H894 0.960 . S
C908 H895 0.960 . S
C908 C907 1.524 1_554 S
C909 C906 1.403 . S
C909 C910 1.392 . S
C909 C913 1.495 . S
C910 C909 1.392 . S
C910 C911 1.385 . S
C910 C912 1.478 . S
C911 H905 0.930 . S
C911 C907 1.400 . S
C911 C910 1.385 . S
C912 C910 1.478 . S
C912 C914 1.381 . S
C912 C918 1.383 . S
C913 C909 1.495 . S
C913 H919 0.959 . S
C913 H920 0.961 . S
C913 H921 0.960 . S
C914 C912 1.381 . S
C914 C915 1.394 . S
C914 H922 0.930 . S
C915 C914 1.394 . S
C915 C916 1.383 . S
C915 H923 0.929 . S
C916 C915 1.383 . S
C916 C917 1.377 . S
C917 H901 0.930 . S
C917 C916 1.377 . S
C917 C918 1.379 . S
C918 H902 0.931 . S
C918 C912 1.383 . S
C918 C917 1.379 . S
H919 C913 0.959 . S
H920 C913 0.961 . S
H921 C913 0.960 . S
H922 C914 0.930 . S
H923 C915 0.929 . S
H924 C932 0.929 . S
H925 C934 0.930 . S
H926 C936 0.930 . S
H927 C939 0.929 . S
H928 C942 0.930 . S
H929 C944 0.960 . S
H930 C944 0.960 . S
H931 C944 0.960 . S
C932 H924 0.929 . S
C932 C933 1.377 . S
C932 C934 1.384 . S
C933 C932 1.377 . S
C933 C939 1.390 . S
C934 H925 0.930 . S
C934 C932 1.384 . S
C934 C935 1.372 . S
C935 C934 1.372 . S
C935 C936 1.400 . S
C935 C940 1.490 . S
C936 H926 0.930 . S
C936 C935 1.400 . S
C936 C939 1.386 . S
H937 C953 0.930 . S
H938 C954 0.931 . S
C939 H927 0.929 . S
C939 C933 1.390 . S
C939 C936 1.386 . S
C940 C935 1.490 . S
C940 C942 1.395 . S
C940 C943 1.403 . S
H941 C947 0.930 . S
C942 H928 0.930 . S
C942 C940 1.395 . S
C942 C945 1.403 . S
C943 C940 1.403 . S
C943 C944 1.524 . S
C943 C947 1.400 . S
C944 H929 0.960 . S
C944 H930 0.960 . S
C944 H931 0.960 . S
C944 C943 1.524 . S
C945 C942 1.403 . S
C945 C946 1.392 . S
C945 C949 1.495 . S
C946 C945 1.392 . S
C946 C947 1.385 . S
C946 C948 1.478 . S
C947 H941 0.930 . S
C947 C943 1.400 . S
C947 C946 1.385 . S
C948 C946 1.478 . S
C948 C950 1.381 . S
C948 C954 1.383 . S
C949 C945 1.495 . S
C949 H955 0.959 . S
C949 H956 0.961 . S
C949 H957 0.960 . S
C950 C948 1.381 . S
C950 C951 1.394 . S
C950 H958 0.930 . S
C951 C950 1.394 . S
C951 C952 1.383 . S
C951 H959 0.929 . S
C952 C951 1.383 . S
C952 C953 1.377 . S
C953 H937 0.930 . S
C953 C952 1.377 . S
C953 C954 1.379 . S
C954 H938 0.931 . S
C954 C948 1.383 . S
C954 C953 1.379 . S
H955 C949 0.959 . S
H956 C949 0.961 . S
H957 C949 0.960 . S
H958 C950 0.930 . S
H959 C951 0.929 . S
H960 C968 0.929 . S
H961 C970 0.930 . S
H962 C972 0.930 . S
H963 C975 0.929 . S
H964 C978 0.930 . S
H965 C980 0.960 . S
H966 C980 0.960 . S
H967 C980 0.960 . S
C968 H960 0.929 . S
C968 C969 1.377 . S
C968 C970 1.384 . S
C969 C968 1.377 . S
C969 C975 1.390 . S
C970 H961 0.930 . S
C970 C968 1.384 . S
C970 C971 1.372 . S
C971 C970 1.372 . S
C971 C972 1.400 . S
C971 C976 1.490 . S
C972 H962 0.930 . S
C972 C971 1.400 . S
C972 C975 1.386 . S
H973 C989 0.930 . S
H974 C990 0.931 . S
C975 H963 0.929 . S
C975 C969 1.390 . S
C975 C972 1.386 . S
C976 C971 1.490 . S
C976 C978 1.395 . S
C976 C979 1.403 . S
H977 C983 0.930 . S
C978 H964 0.930 . S
C978 C976 1.395 . S
C978 C981 1.403 . S
C979 C976 1.403 . S
C979 C980 1.524 . S
C979 C983 1.400 . S
C980 H965 0.960 . S
C980 H966 0.960 . S
C980 H967 0.960 . S
C980 C979 1.524 . S
C981 C978 1.403 . S
C981 C982 1.392 . S
C981 C985 1.495 . S
C982 C981 1.392 . S
C982 C983 1.385 . S
C982 C984 1.478 . S
C983 H977 0.930 . S
C983 C979 1.400 . S
C983 C982 1.385 . S
C984 C982 1.478 . S
C984 C986 1.381 . S
C984 C990 1.383 . S
C985 C981 1.495 . S
C985 H991 0.959 . S
C985 H992 0.961 . S
C985 H993 0.960 . S
C986 C984 1.381 . S
C986 C987 1.394 . S
C986 H994 0.930 . S
C987 C986 1.394 . S
C987 C988 1.383 . S
C987 H995 0.929 . S
C988 C987 1.383 . S
C988 C989 1.377 . S
C989 H973 0.930 . S
C989 C988 1.377 . S
C989 C990 1.379 . S
C990 H974 0.931 . S
C990 C984 1.383 . S
C990 C989 1.379 . S
H991 C985 0.959 . S
H992 C985 0.961 . S
H993 C985 0.960 . S
H994 C986 0.930 . S
H995 C987 0.929 . S
H996 C1004 0.929 . S
H997 C1006 0.930 . S
H998 C1008 0.930 . S
H999 C1011 0.929 . S
H1000 C1014 0.930 . S
H1001 C1016 0.960 . S
H1002 C1016 0.960 . S
H1003 C1016 0.960 . S
C1004 H996 0.929 . S
C1004 C1005 1.377 . S
C1004 C1006 1.384 . S
C1005 C1004 1.377 . S
C1005 C1011 1.390 . S
C1006 H997 0.930 . S
C1006 C1004 1.384 . S
C1006 C1007 1.372 . S
C1007 C1006 1.372 . S
C1007 C1008 1.400 . S
C1007 C1012 1.490 . S
C1008 H998 0.930 . S
C1008 C1007 1.400 . S
C1008 C1011 1.386 . S
H1009 C1025 0.930 . S
H1010 C1026 0.931 . S
C1011 H999 0.929 . S
C1011 C1005 1.390 . S
C1011 C1008 1.386 . S
C1012 C1007 1.490 . S
C1012 C1014 1.395 . S
C1012 C1015 1.403 . S
H1013 C1019 0.930 . S
C1014 H1000 0.930 . S
C1014 C1012 1.395 . S
C1014 C1017 1.403 . S
C1015 C1012 1.403 . S
C1015 C1016 1.524 . S
C1015 C1019 1.400 . S
C1016 H1001 0.960 . S
C1016 H1002 0.960 . S
C1016 H1003 0.960 . S
C1016 C1015 1.524 . S
C1017 C1014 1.403 . S
C1017 C1018 1.392 . S
C1017 C1021 1.495 . S
C1018 C1017 1.392 . S
C1018 C1019 1.385 . S
C1018 C1020 1.478 . S
C1019 H1013 0.930 . S
C1019 C1015 1.400 . S
C1019 C1018 1.385 . S
C1020 C1018 1.478 . S
C1020 C1022 1.381 . S
C1020 C1026 1.383 . S
C1021 C1017 1.495 . S
C1021 H1027 0.959 . S
C1021 H1028 0.961 . S
C1021 H1029 0.960 . S
C1022 C1020 1.381 . S
C1022 C1023 1.394 . S
C1022 H1030 0.930 . S
C1023 C1022 1.394 . S
C1023 C1024 1.383 . S
C1023 H1031 0.929 . S
C1024 C1023 1.383 . S
C1024 C1025 1.377 . S
C1025 H1009 0.930 . S
C1025 C1024 1.377 . S
C1025 C1026 1.379 . S
C1026 H1010 0.931 . S
C1026 C1020 1.383 . S
C1026 C1025 1.379 . S
H1027 C1021 0.959 . S
H1028 C1021 0.961 . S
H1029 C1021 0.960 . S
H1030 C1022 0.930 . S
H1031 C1023 0.929 . S
H1032 C1040 0.929 . S
H1033 C1042 0.930 . S
H1034 C1044 0.930 . S
H1035 C1047 0.929 . S
H1036 C1050 0.930 . S
H1037 C1052 0.960 . S
H1038 C1052 0.960 . S
H1039 C1052 0.960 . S
C1040 H1032 0.929 . S
C1040 C1041 1.377 . S
C1040 C1042 1.384 . S
C1041 C1040 1.377 . S
C1041 C1047 1.390 . S
C1042 H1033 0.930 . S
C1042 C1040 1.384 . S
C1042 C1043 1.372 . S
C1043 C1042 1.372 . S
C1043 C1044 1.400 . S
C1043 C1048 1.490 . S
C1044 H1034 0.930 . S
C1044 C1043 1.400 . S
C1044 C1047 1.386 . S
H1045 C1061 0.930 . S
H1046 C1062 0.931 . S
C1047 H1035 0.929 . S
C1047 C1041 1.390 . S
C1047 C1044 1.386 . S
C1048 C1043 1.490 . S
C1048 C1050 1.395 . S
C1048 C1051 1.403 . S
H1049 C1055 0.930 . S
C1050 H1036 0.930 . S
C1050 C1048 1.395 . S
C1050 C1053 1.403 . S
C1051 C1048 1.403 . S
C1051 C1052 1.524 . S
C1051 C1055 1.400 . S
C1052 H1037 0.960 . S
C1052 H1038 0.960 . S
C1052 H1039 0.960 . S
C1052 C1051 1.524 . S
C1053 C1050 1.403 . S
C1053 C1054 1.392 . S
C1053 C1057 1.495 . S
C1054 C1053 1.392 . S
C1054 C1055 1.385 . S
C1054 C1056 1.478 . S
C1055 H1049 0.930 . S
C1055 C1051 1.400 . S
C1055 C1054 1.385 . S
C1056 C1054 1.478 . S
C1056 C1058 1.381 . S
C1056 C1062 1.383 . S
C1057 C1053 1.495 . S
C1057 H1063 0.959 . S
C1057 H1064 0.961 . S
C1057 H1065 0.960 . S
C1058 C1056 1.381 . S
C1058 C1059 1.394 . S
C1058 H1066 0.930 . S
C1059 C1058 1.394 . S
C1059 C1060 1.383 . S
C1059 H1067 0.929 . S
C1060 C1059 1.383 . S
C1060 C1061 1.377 . S
C1061 H1045 0.930 . S
C1061 C1060 1.377 . S
C1061 C1062 1.379 . S
C1062 H1046 0.931 . S
C1062 C1056 1.383 . S
C1062 C1061 1.379 . S
H1063 C1057 0.959 . S
H1064 C1057 0.961 . S
H1065 C1057 0.960 . S
H1066 C1058 0.930 . S
H1067 C1059 0.929 . S
H1068 C1076 0.929 . S
H1069 C1078 0.930 . S
H1070 C1080 0.930 . S
H1071 C1083 0.929 . S
H1072 C1086 0.930 . S
H1073 C1088 0.960 . S
H1074 C1088 0.960 . S
H1075 C1088 0.960 . S
C1076 H1068 0.929 . S
C1076 C1077 1.377 . S
C1076 C1078 1.384 . S
C1077 C1076 1.377 . S
C1077 C1083 1.390 . S
C1078 H1069 0.930 . S
C1078 C1076 1.384 . S
C1078 C1079 1.372 . S
C1079 C1078 1.372 . S
C1079 C1080 1.400 . S
C1079 C1084 1.490 . S
C1080 H1070 0.930 . S
C1080 C1079 1.400 . S
C1080 C1083 1.386 . S
H1081 C1097 0.930 . S
H1082 C1098 0.931 . S
C1083 H1071 0.929 . S
C1083 C1077 1.390 . S
C1083 C1080 1.386 . S
C1084 C1079 1.490 . S
C1084 C1086 1.395 . S
C1084 C1087 1.403 . S
H1085 C1091 0.930 . S
C1086 H1072 0.930 . S
C1086 C1084 1.395 . S
C1086 C1089 1.403 . S
C1087 C1084 1.403 . S
C1087 C1088 1.524 . S
C1087 C1091 1.400 . S
C1088 H1073 0.960 . S
C1088 H1074 0.960 . S
C1088 H1075 0.960 . S
C1088 C1087 1.524 . S
C1089 C1086 1.403 . S
C1089 C1090 1.392 . S
C1089 C1093 1.495 . S
C1090 C1089 1.392 . S
C1090 C1091 1.385 . S
C1090 C1092 1.478 . S
C1091 H1085 0.930 . S
C1091 C1087 1.400 . S
C1091 C1090 1.385 . S
C1092 C1090 1.478 . S
C1092 C1094 1.381 . S
C1092 C1098 1.383 . S
C1093 C1089 1.495 . S
C1093 H1099 0.959 . S
C1093 H1100 0.961 . S
C1093 H1101 0.960 . S
C1094 C1092 1.381 . S
C1094 C1095 1.394 . S
C1094 H1102 0.930 . S
C1095 C1094 1.394 . S
C1095 C1096 1.383 . S
C1095 H1103 0.929 . S
C1096 C1095 1.383 . S
C1096 C1097 1.377 . S
C1097 H1081 0.930 . S
C1097 C1096 1.377 . S
C1097 C1098 1.379 . S
C1098 H1082 0.931 . S
C1098 C1092 1.383 . S
C1098 C1097 1.379 . S
H1099 C1093 0.959 . S
H1100 C1093 0.961 . S
H1101 C1093 0.960 . S
H1102 C1094 0.930 . S
H1103 C1095 0.929 . S
H1104 C1112 0.929 . S
H1105 C1114 0.930 . S
H1106 C1116 0.930 . S
H1107 C1119 0.929 . S
H1108 C1122 0.930 . S
H1109 C1124 0.960 . S
H1110 C1124 0.960 . S
H1111 C1124 0.960 . S
C1112 H1104 0.929 . S
C1112 C1113 1.377 . S
C1112 C1114 1.384 . S
C1113 C1112 1.377 . S
C1113 C1119 1.390 . S
C1114 H1105 0.930 . S
C1114 C1112 1.384 . S
C1114 C1115 1.372 . S
C1115 C1114 1.372 . S
C1115 C1116 1.400 . S
C1115 C1120 1.490 . S
C1116 H1106 0.930 . S
C1116 C1115 1.400 . S
C1116 C1119 1.386 . S
H1117 C1133 0.930 . S
H1118 C1134 0.931 . S
C1119 H1107 0.929 . S
C1119 C1113 1.390 . S
C1119 C1116 1.386 . S
C1120 C1115 1.490 . S
C1120 C1122 1.395 . S
C1120 C1123 1.403 . S
H1121 C1127 0.930 . S
C1122 H1108 0.930 . S
C1122 C1120 1.395 . S
C1122 C1125 1.403 . S
C1123 C1120 1.403 . S
C1123 C1124 1.524 . S
C1123 C1127 1.400 . S
C1124 H1109 0.960 . S
C1124 H1110 0.960 . S
C1124 H1111 0.960 . S
C1124 C1123 1.524 . S
C1125 C1122 1.403 . S
C1125 C1126 1.392 . S
C1125 C1129 1.495 . S
C1126 C1125 1.392 . S
C1126 C1127 1.385 . S
C1126 C1128 1.478 . S
C1127 H1121 0.930 . S
C1127 C1123 1.400 . S
C1127 C1126 1.385 . S
C1128 C1126 1.478 . S
C1128 C1130 1.381 . S
C1128 C1134 1.383 . S
C1129 C1125 1.495 . S
C1129 H1135 0.959 . S
C1129 H1136 0.961 . S
C1129 H1137 0.960 . S
C1130 C1128 1.381 . S
C1130 C1131 1.394 . S
C1130 H1138 0.930 . S
C1131 C1130 1.394 . S
C1131 C1132 1.383 . S
C1131 H1139 0.929 . S
C1132 C1131 1.383 . S
C1132 C1133 1.377 . S
C1133 H1117 0.930 . S
C1133 C1132 1.377 . S
C1133 C1134 1.379 . S
C1134 H1118 0.931 . S
C1134 C1128 1.383 . S
C1134 C1133 1.379 . S
H1135 C1129 0.959 . S
H1136 C1129 0.961 . S
H1137 C1129 0.960 . S
H1138 C1130 0.930 . S
H1139 C1131 0.929 . S
H1140 C1148 0.929 . S
H1141 C1150 0.930 . S
H1142 C1152 0.930 . S
H1143 C1155 0.929 . S
H1144 C1158 0.930 . S
H1145 C1160 0.960 . S
H1146 C1160 0.960 . S
H1147 C1160 0.960 . S
C1148 H1140 0.929 . S
C1148 C1149 1.377 . S
C1148 C1150 1.384 . S
C1149 C1148 1.377 . S
C1149 C1155 1.390 . S
C1150 H1141 0.930 . S
C1150 C1148 1.384 . S
C1150 C1151 1.372 . S
C1151 C1150 1.372 . S
C1151 C1152 1.400 . S
C1151 C1156 1.490 . S
C1152 H1142 0.930 . S
C1152 C1151 1.400 . S
C1152 C1155 1.386 . S
H1153 C1169 0.930 . S
H1154 C1170 0.931 . S
C1155 H1143 0.929 . S
C1155 C1149 1.390 . S
C1155 C1152 1.386 . S
C1156 C1151 1.490 . S
C1156 C1158 1.395 . S
C1156 C1159 1.403 . S
H1157 C1163 0.930 . S
C1158 H1144 0.930 . S
C1158 C1156 1.395 . S
C1158 C1161 1.403 . S
C1159 C1156 1.403 . S
C1159 C1160 1.524 . S
C1159 C1163 1.400 . S
C1160 H1145 0.960 . S
C1160 H1146 0.960 . S
C1160 H1147 0.960 . S
C1160 C1159 1.524 . S
C1161 C1158 1.403 . S
C1161 C1162 1.392 . S
C1161 C1165 1.495 . S
C1162 C1161 1.392 . S
C1162 C1163 1.385 . S
C1162 C1164 1.478 . S
C1163 H1157 0.930 . S
C1163 C1159 1.400 . S
C1163 C1162 1.385 . S
C1164 C1162 1.478 . S
C1164 C1166 1.381 . S
C1164 C1170 1.383 . S
C1165 C1161 1.495 . S
C1165 H1171 0.959 . S
C1165 H1172 0.961 . S
C1165 H1173 0.960 . S
C1166 C1164 1.381 . S
C1166 C1167 1.394 . S
C1166 H1174 0.930 . S
C1167 C1166 1.394 . S
C1167 C1168 1.383 . S
C1167 H1175 0.929 . S
C1168 C1167 1.383 . S
C1168 C1169 1.377 . S
C1169 H1153 0.930 . S
C1169 C1168 1.377 . S
C1169 C1170 1.379 . S
C1170 H1154 0.931 . S
C1170 C1164 1.383 . S
C1170 C1169 1.379 . S
H1171 C1165 0.959 . S
H1172 C1165 0.961 . S
H1173 C1165 0.960 . S
H1174 C1166 0.930 . S
H1175 C1167 0.929 . S
H1176 C1184 0.929 . S
H1177 C1186 0.930 . S
H1178 C1188 0.944 1_655 S
H1179 C1191 0.929 . S
H1180 C1194 0.930 . S
H1181 C1196 0.960 . S
H1182 C1196 0.960 . S
H1183 C1196 0.960 . S
C1184 H1176 0.929 . S
C1184 C1185 1.377 . S
C1184 C1186 1.384 1_455 S
C1185 C1184 1.377 . S
C1185 C1191 1.390 . S
C1186 H1177 0.930 . S
C1186 C1184 1.384 1_655 S
C1186 C1187 1.372 . S
C1187 C1186 1.372 . S
C1187 C1188 1.400 1_655 S
C1187 C1192 1.490 . S
C1188 H1178 0.944 1_455 S
C1188 C1187 1.400 1_455 S
C1188 C1191 1.386 . S
H1189 C1205 0.930 . S
H1190 C1206 0.931 . S
C1191 H1179 0.929 . S
C1191 C1185 1.390 . S
C1191 C1188 1.386 . S
C1192 C1187 1.490 . S
C1192 C1194 1.395 . S
C1192 C1195 1.403 . S
H1193 C1199 0.930 . S
C1194 H1180 0.930 . S
C1194 C1192 1.395 . S
C1194 C1197 1.403 . S
C1195 C1192 1.403 . S
C1195 C1196 1.524 1_655 S
C1195 C1199 1.400 . S
C1196 H1181 0.960 . S
C1196 H1182 0.960 . S
C1196 H1183 0.960 . S
C1196 C1195 1.524 1_455 S
C1197 C1194 1.403 . S
C1197 C1198 1.392 . S
C1197 C1201 1.495 . S
C1198 C1197 1.392 . S
C1198 C1199 1.385 . S
C1198 C1200 1.478 . S
C1199 H1193 0.930 . S
C1199 C1195 1.400 . S
C1199 C1198 1.385 . S
C1200 C1198 1.478 . S
C1200 C1202 1.381 . S
C1200 C1206 1.383 . S
C1201 C1197 1.495 . S
C1201 H1207 0.959 . S
C1201 H1208 0.961 . S
C1201 H1209 0.960 . S
C1202 C1200 1.381 . S
C1202 C1203 1.394 . S
C1202 H1210 0.930 . S
C1203 C1202 1.394 . S
C1203 C1204 1.383 . S
C1203 H1211 0.929 . S
C1204 C1203 1.383 . S
C1204 C1205 1.377 . S
C1205 H1189 0.930 . S
C1205 C1204 1.377 . S
C1205 C1206 1.379 . S
C1206 H1190 0.931 . S
C1206 C1200 1.383 . S
C1206 C1205 1.379 . S
H1207 C1201 0.959 . S
H1208 C1201 0.961 . S
H1209 C1201 0.960 . S
H1210 C1202 0.930 . S
H1211 C1203 0.929 . S
H1212 C1220 0.929 . S
H1213 C1222 0.930 . S
H1214 C1224 0.930 . S
H1215 C1227 0.929 . S
H1216 C1230 0.930 . S
H1217 C1232 0.960 . S
H1218 C1232 0.960 . S
H1219 C1232 0.960 . S
C1220 H1212 0.929 . S
C1220 C1221 1.377 . S
C1220 C1222 1.384 . S
C1221 C1220 1.377 . S
C1221 C1227 1.390 . S
C1222 H1213 0.930 . S
C1222 C1220 1.384 . S
C1222 C1223 1.372 . S
C1223 C1222 1.372 . S
C1223 C1224 1.400 . S
C1223 C1228 1.490 . S
C1224 H1214 0.930 . S
C1224 C1223 1.400 . S
C1224 C1227 1.386 . S
H1225 C1241 0.930 . S
H1226 C1242 0.931 . S
C1227 H1215 0.929 . S
C1227 C1221 1.390 . S
C1227 C1224 1.386 . S
C1228 C1223 1.490 . S
C1228 C1230 1.395 . S
C1228 C1231 1.403 . S
H1229 C1235 0.930 . S
C1230 H1216 0.930 . S
C1230 C1228 1.395 . S
C1230 C1233 1.403 . S
C1231 C1228 1.403 . S
C1231 C1232 1.524 . S
C1231 C1235 1.400 . S
C1232 H1217 0.960 . S
C1232 H1218 0.960 . S
C1232 H1219 0.960 . S
C1232 C1231 1.524 . S
C1233 C1230 1.403 . S
C1233 C1234 1.392 . S
C1233 C1237 1.495 . S
C1234 C1233 1.392 . S
C1234 C1235 1.385 . S
C1234 C1236 1.478 . S
C1235 H1229 0.930 . S
C1235 C1231 1.400 . S
C1235 C1234 1.385 . S
C1236 C1234 1.478 . S
C1236 C1238 1.381 . S
C1236 C1242 1.383 . S
C1237 C1233 1.495 . S
C1237 H1243 0.959 . S
C1237 H1244 0.961 . S
C1237 H1245 0.960 . S
C1238 C1236 1.381 . S
C1238 C1239 1.394 . S
C1238 H1246 0.930 . S
C1239 C1238 1.394 . S
C1239 C1240 1.383 . S
C1239 H1247 0.929 . S
C1240 C1239 1.383 . S
C1240 C1241 1.377 . S
C1241 H1225 0.930 . S
C1241 C1240 1.377 . S
C1241 C1242 1.379 . S
C1242 H1226 0.931 . S
C1242 C1236 1.383 . S
C1242 C1241 1.379 . S
H1243 C1237 0.959 . S
H1244 C1237 0.961 . S
H1245 C1237 0.960 . S
H1246 C1238 0.930 . S
H1247 C1239 0.929 . S
H1248 C1256 0.929 . S
H1249 C1258 0.930 . S
H1250 C1260 0.930 . S
H1251 C1263 0.929 . S
H1252 C1266 0.930 . S
H1253 C1268 0.960 . S
H1254 C1268 0.960 . S
H1255 C1268 0.960 . S
C1256 H1248 0.929 . S
C1256 C1257 1.377 . S
C1256 C1258 1.384 . S
C1257 C1256 1.377 . S
C1257 C1263 1.390 . S
C1258 H1249 0.930 . S
C1258 C1256 1.384 . S
C1258 C1259 1.372 . S
C1259 C1258 1.372 . S
C1259 C1260 1.400 . S
C1259 C1264 1.490 . S
C1260 H1250 0.930 . S
C1260 C1259 1.400 . S
C1260 C1263 1.386 . S
H1261 C1277 0.930 . S
H1262 C1278 0.931 . S
C1263 H1251 0.929 . S
C1263 C1257 1.390 . S
C1263 C1260 1.386 . S
C1264 C1259 1.490 . S
C1264 C1266 1.395 . S
C1264 C1267 1.403 . S
H1265 C1271 0.930 . S
C1266 H1252 0.930 . S
C1266 C1264 1.395 . S
C1266 C1269 1.403 . S
C1267 C1264 1.403 . S
C1267 C1268 1.524 . S
C1267 C1271 1.400 . S
C1268 H1253 0.960 . S
C1268 H1254 0.960 . S
C1268 H1255 0.960 . S
C1268 C1267 1.524 . S
C1269 C1266 1.403 . S
C1269 C1270 1.392 . S
C1269 C1273 1.495 . S
C1270 C1269 1.392 . S
C1270 C1271 1.385 . S
C1270 C1272 1.478 . S
C1271 H1265 0.930 . S
C1271 C1267 1.400 . S
C1271 C1270 1.385 . S
C1272 C1270 1.478 . S
C1272 C1274 1.381 . S
C1272 C1278 1.383 . S
C1273 C1269 1.495 . S
C1273 H1279 0.959 . S
C1273 H1280 0.961 . S
C1273 H1281 0.960 . S
C1274 C1272 1.381 . S
C1274 C1275 1.394 . S
C1274 H1282 0.930 . S
C1275 C1274 1.394 . S
C1275 C1276 1.383 . S
C1275 H1283 0.929 . S
C1276 C1275 1.383 . S
C1276 C1277 1.377 . S
C1277 H1261 0.930 . S
C1277 C1276 1.377 . S
C1277 C1278 1.379 . S
C1278 H1262 0.931 . S
C1278 C1272 1.383 . S
C1278 C1277 1.379 . S
H1279 C1273 0.959 . S
H1280 C1273 0.961 . S
H1281 C1273 0.960 . S
H1282 C1274 0.930 . S
H1283 C1275 0.929 . S
H1284 C1292 0.929 . S
H1285 C1294 0.930 . S
H1286 C1296 0.930 . S
H1287 C1299 0.929 . S
H1288 C1302 0.930 . S
H1289 C1304 0.960 . S
H1290 C1304 0.960 . S
H1291 C1304 0.960 . S
C1292 H1284 0.929 . S
C1292 C1293 1.377 . S
C1292 C1294 1.384 . S
C1293 C1292 1.377 . S
C1293 C1299 1.390 . S
C1294 H1285 0.930 . S
C1294 C1292 1.384 . S
C1294 C1295 1.372 . S
C1295 C1294 1.372 . S
C1295 C1296 1.400 . S
C1295 C1300 1.490 . S
C1296 H1286 0.930 . S
C1296 C1295 1.400 . S
C1296 C1299 1.386 . S
H1297 C1313 0.930 . S
H1298 C1314 0.931 . S
C1299 H1287 0.929 . S
C1299 C1293 1.390 . S
C1299 C1296 1.386 . S
C1300 C1295 1.490 . S
C1300 C1302 1.395 . S
C1300 C1303 1.403 . S
H1301 C1307 0.930 . S
C1302 H1288 0.930 . S
C1302 C1300 1.395 . S
C1302 C1305 1.403 . S
C1303 C1300 1.403 . S
C1303 C1304 1.524 . S
C1303 C1307 1.400 . S
C1304 H1289 0.960 . S
C1304 H1290 0.960 . S
C1304 H1291 0.960 . S
C1304 C1303 1.524 . S
C1305 C1302 1.403 . S
C1305 C1306 1.392 . S
C1305 C1309 1.495 . S
C1306 C1305 1.392 . S
C1306 C1307 1.385 . S
C1306 C1308 1.478 . S
C1307 H1301 0.930 . S
C1307 C1303 1.400 . S
C1307 C1306 1.385 . S
C1308 C1306 1.478 . S
C1308 C1310 1.381 . S
C1308 C1314 1.383 . S
C1309 C1305 1.495 . S
C1309 H1315 0.959 . S
C1309 H1316 0.961 . S
C1309 H1317 0.960 . S
C1310 C1308 1.381 . S
C1310 C1311 1.394 . S
C1310 H1318 0.930 . S
C1311 C1310 1.394 . S
C1311 C1312 1.383 . S
C1311 H1319 0.929 . S
C1312 C1311 1.383 . S
C1312 C1313 1.377 . S
C1313 H1297 0.930 . S
C1313 C1312 1.377 . S
C1313 C1314 1.379 . S
C1314 H1298 0.931 . S
C1314 C1308 1.383 . S
C1314 C1313 1.379 . S
H1315 C1309 0.959 . S
H1316 C1309 0.961 . S
H1317 C1309 0.960 . S
H1318 C1310 0.930 . S
H1319 C1311 0.929 . S
C465 C13 1.717 . S
C484 C137 1.640 . S
C501 C27 1.830 . S
C520 C181 1.750 . S
C556 C261 1.557 . S
C537 C29 1.615 . S
C592 C305 1.648 . S
C573 C54 1.715 . S
C628 C385 1.725 . S
C609 C69 1.807 . S
C664 C441 1.772 . S
C645 C83 1.930 . S
C681 C15 1.965 . S
C700 C237 1.761 . S
C717 C41 1.726 . S
C736 C317 1.615 . S
C772 C361 1.742 . S
C753 C42 1.902 . S
C808 C429 1.631 . S
C789 C57 1.652 . S
C825 C71 1.755 . S
C844 C113 1.571 . S
C880 C193 1.826 . S
C861 C1 1.901 . S
C916 C299 1.771 . S
C897 C12 1.901 . S
C933 C26 1.754 . S
C952 C379 1.614 . S
C988 C447 1.590 . S
C969 C28 1.651 . S
C1005 C55 1.905 . S
C1024 C131 1.727 . S
C1041 C68 1.726 . S
C1060 C175 1.643 . S
C1077 C82 1.964 . S
C1096 C255 1.749 . S
C1113 C14 1.932 . S
C1132 C423 1.799 . S
C1168 C119 1.682 . S
C1149 C40 1.805 . S
C1185 C43 1.714 . S
C1204 C199 1.643 . S
C1221 C56 1.617 . S
C1240 C243 1.548 . S
C1257 C70 1.830 . S
C1276 C323 1.748 . S
C1293 C0 1.719 . S
C1312 C367 1.630 . S
