# Generated by pormake.
# Topology pts, (4,4)-cn, num edge types: 1
# Building blocks:
#     Node 0, Type 0, BuildingBlock: MIFKUJ_clean_linker_1, # of connection points: 4
#     Node 1, Type 0, BuildingBlock: MIFKUJ_clean_linker_1, # of connection points: 4
#     Node 2, Type 1, BuildingBlock: QUQFOY_clean_sbu_1, # of connection points: 4
#     Node 3, Type 1, BuildingBlock: QUQFOY_clean_sbu_1, # of connection points: 4
#     Edge 4, Type (0, 1), BuildingBlock: FUNLAD_clean_linker_0, # of connection points: 2
#     Edge 5, Type (0, 1), BuildingBlock: FUNLAD_clean_linker_0, # of connection points: 2
#     Edge 6, Type (0, 1), BuildingBlock: FUNLAD_clean_linker_0, # of connection points: 2
#     Edge 7, Type (0, 1), BuildingBlock: FUNLAD_clean_linker_0, # of connection points: 2
#     Edge 8, Type (0, 1), BuildingBlock: FUNLAD_clean_linker_0, # of connection points: 2
#     Edge 9, Type (0, 1), BuildingBlock: FUNLAD_clean_linker_0, # of connection points: 2
#     Edge 10, Type (0, 1), BuildingBlock: FUNLAD_clean_linker_0, # of connection points: 2
#     Edge 11, Type (0, 1), BuildingBlock: FUNLAD_clean_linker_0, # of connection points: 2
# Relax obj value: 0.096
# Max RMSD: 0.260
# Mean RMSD: 0.154
data_MOF--net-pts--node1-QUQFOY_clean_sbu_1--node2-MIFKUJ_clean_linker_1--edge1-FUNLAD_clean_linker_0
_symmetry_space_group_name_H-M    P1
_symmetry_Int_Tables_number       1
_symmetry_cell_setting            triclinic
loop_
_symmetry_equiv_pos_as_xyz
'x, y, z'
_cell_length_a     32.318495
_cell_length_b     35.504847
_cell_length_c     50.105976
_cell_angle_alpha  89.952961
_cell_angle_beta   90.040154
_cell_angle_gamma 90.091421
loop_
_atom_site_label
_atom_site_type_symbol
_atom_site_fract_x
_atom_site_fract_y
_atom_site_fract_z
_atom_type_partial_charge
H0 H 0.56015 0.94221 0.04292 0.0
H1 H 0.61995 0.93868 0.07263 0.0
H2 H 0.65665 0.05074 0.04845 0.0
H3 H 0.59595 0.05457 0.01943 0.0
H4 H 0.49711 0.98914 0.04721 0.0
H5 H 0.59772 0.96166 0.97975 0.0
H6 H 0.65859 0.96734 0.95108 0.0
H7 H 0.61859 0.0783 0.92677 0.0
H8 H 0.55854 0.07293 0.95613 0.0
H9 H 0.43168 0.07094 0.95675 0.0
H10 H 0.37113 0.07336 0.92742 0.0
H11 H 0.34022 0.95901 0.94931 0.0
H12 H 0.40107 0.95662 0.97839 0.0
H13 H 0.49711 0.02403 0.95139 0.0
H14 H 0.40009 0.05425 0.0199 0.0
H15 H 0.33951 0.05085 0.04911 0.0
H16 H 0.37229 0.93696 0.07083 0.0
H17 H 0.43267 0.9404 0.04141 0.0
C18 C 0.57366 0.99857 0.02886 0.0
C19 C 0.58126 0.96591 0.04388 0.0
C20 C 0.61562 0.96384 0.06072 0.0
C21 C 0.64301 0.99448 0.06296 0.0
C22 C 0.63587 0.02683 0.0474 0.0
C23 C 0.60145 0.02889 0.03057 0.0
C24 C 0.53507 0.00187 0.01303 0.0
C25 C 0.49721 0.99611 0.02612 0.0
C26 C 0.53506 0.01244 0.9858 0.0
C27 C 0.57372 0.01697 0.97021 0.0
C28 C 0.60251 0.98751 0.96867 0.0
C29 C 0.63703 0.99062 0.95204 0.0
C30 C 0.64329 0.02319 0.93653 0.0
C31 C 0.61492 0.05302 0.93865 0.0
C32 C 0.58043 0.04988 0.95527 0.0
C33 C 0.42073 0.01368 0.96982 0.0
C34 C 0.4116 0.04655 0.95542 0.0
C35 C 0.37692 0.04796 0.9388 0.0
C36 C 0.35105 0.01633 0.93606 0.0
C37 C 0.35983 0.98368 0.95089 0.0
C38 C 0.39433 0.9824 0.96767 0.0
C39 C 0.45939 0.01113 0.98558 0.0
C40 C 0.49718 0.01702 0.97248 0.0
C41 C 0.45941 0.00088 0.0128 0.0
C42 C 0.42071 0.9975 0.02841 0.0
C43 C 0.39381 0.02833 0.03059 0.0
C44 C 0.35946 0.02647 0.04744 0.0
C45 C 0.35134 0.99369 0.0623 0.0
C46 C 0.37762 0.96245 0.05945 0.0
C47 C 0.41217 0.96444 0.04277 0.0
H48 H 0.0574 0.44969 0.45145 0.0
H49 H 0.05834 0.39059 0.42639 0.0
H50 H 0.94254 0.35812 0.46284 0.0
H51 H 0.94151 0.41739 0.48763 0.0
H52 H 0.00471 0.50709 0.45085 0.0
H53 H 0.05277 0.41948 0.5177 0.0
H54 H 0.05135 0.36287 0.54552 0.0
H55 H 0.93161 0.39559 0.57609 0.0
H56 H 0.93371 0.45243 0.54861 0.0
H57 H 0.93643 0.56635 0.54903 0.0
H58 H 0.93628 0.6232 0.57647 0.0
H59 H 0.05111 0.65864 0.54017 0.0
H60 H 0.05142 0.6014 0.51291 0.0
H61 H 0.98927 0.51042 0.54928 0.0
H62 H 0.94349 0.6006 0.48441 0.0
H63 H 0.94473 0.65686 0.45617 0.0
H64 H 0.05898 0.61903 0.42051 0.0
H65 H 0.0579 0.56309 0.44899 0.0
C66 C -0.00038 0.43785 0.47162 0.0
C67 C 0.03217 0.42987 0.454 0.0
C68 C 0.03267 0.39611 0.4397 0.0
C69 C 0.00058 0.36965 0.44273 0.0
C70 C 0.96803 0.37766 0.46041 0.0
C71 C 0.9674 0.41155 0.47457 0.0
C72 C -0.0009 0.47388 0.48665 0.0
C73 C 0.00195 0.50789 0.47242 0.0
C74 C 0.99446 0.4749 0.51469 0.0
C75 C 0.9933 0.44009 0.53106 0.0
C76 C 0.02612 0.41427 0.53028 0.0
C77 C 0.02515 0.38183 0.54611 0.0
C78 C 0.99137 0.37466 0.56308 0.0
C79 C 0.95839 0.40049 0.56358 0.0
C80 C 0.95947 0.43295 0.54784 0.0
C81 C 0.99383 0.57962 0.52882 0.0
C82 C 0.96153 0.58639 0.5469 0.0
C83 C 0.96149 0.61885 0.56258 0.0
C84 C 0.99375 0.64529 0.5605 0.0
C85 C 0.02562 0.63896 0.54197 0.0
C86 C 0.02581 0.60627 0.5264 0.0
C87 C 0.99481 0.54383 0.51351 0.0
C88 C 0.9921 0.50978 0.5277 0.0
C89 C -0.00039 0.54289 0.48543 0.0
C90 C 0.00079 0.57771 0.46899 0.0
C91 C 0.96916 0.6047 0.47083 0.0
C92 C 0.96989 0.63685 0.45469 0.0
C93 C 0.00194 0.64233 0.43613 0.0
C94 C 0.03367 0.61539 0.43444 0.0
C95 C 0.03309 0.58343 0.4507 0.0
O96 O 0.94187 0.97711 0.23586 0.0
Cd97 Cd -0.00277 0.9701 0.25579 0.0
Cd98 Cd 0.99476 0.04889 0.25616 0.0
O99 O 0.93835 0.0391 0.23823 0.0
O100 O -0.00058 0.91538 0.26404 0.0
O101 O -0.00172 0.95917 0.29535 0.0
C102 C -0.00035 0.92393 0.28902 0.0
C103 C -0.00147 0.09855 0.28675 0.0
C104 C 0.923 0.00775 0.23099 0.0
C105 C 0.06525 0.01091 0.22699 0.0
O106 O 0.04717 0.04133 0.23337 0.0
O107 O 0.05088 0.97936 0.23458 0.0
O108 O -0.00474 0.10436 0.26149 0.0
O109 O -0.00104 0.06408 0.295 0.0
O110 O 0.94308 0.04314 0.76415 0.0
Cd111 Cd -0.00193 0.04788 0.74355 0.0
Cd112 Cd 0.99228 0.97092 0.74159 0.0
O113 O 0.93678 0.98154 0.76035 0.0
O114 O 0.00286 0.10219 0.73455 0.0
O115 O -0.00195 0.05762 0.70389 0.0
C116 C 0.00141 0.09295 0.7097 0.0
C117 C 0.99148 0.92578 0.70767 0.0
C118 C 0.92297 0.01298 0.76849 0.0
C119 C 0.06498 0.00387 0.77101 0.0
O120 O 0.04547 0.97426 0.7643 0.0
O121 O 0.05179 0.03609 0.76402 0.0
O122 O 0.98808 0.91663 0.73244 0.0
O123 O -0.00455 0.96108 0.70192 0.0
C124 C 0.3111 0.02284 0.09952 0.0
C125 C 0.31685 0.99276 0.08175 0.0
C126 C 0.27963 0.02166 0.11858 0.0
C127 C 0.25267 0.99048 0.12003 0.0
C128 C 0.25865 0.96037 0.10225 0.0
C129 C 0.29042 0.96143 0.08334 0.0
C130 C 0.21871 0.98767 0.14003 0.0
C131 C 0.20426 0.01715 0.15419 0.0
C132 C 0.16959 0.01448 0.17363 0.0
C133 C 0.14879 0.04765 0.18079 0.0
C134 C 0.11547 0.04659 0.19849 0.0
C135 C 0.10218 0.01224 0.20954 0.0
H136 H 0.17319 0.95417 0.18125 0.0
C137 C 0.12368 0.97913 0.203 0.0
C138 C 0.15716 0.98022 0.18537 0.0
H139 H 0.11455 0.95225 0.21141 0.0
H140 H 0.33164 0.04698 0.09912 0.0
H141 H 0.27741 0.04498 0.13232 0.0
H142 H 0.23863 0.93588 0.10294 0.0
H143 H 0.29414 0.93785 0.06986 0.0
H144 H 0.20405 0.96034 0.1422 0.0
H145 H 0.21656 0.04511 0.15055 0.0
H146 H 0.15794 0.07451 0.17234 0.0
H147 H 0.09974 0.07267 0.20314 0.0
C148 C 0.00619 0.30612 0.57203 0.0
C149 C 0.99107 0.34108 0.58087 0.0
C150 C 0.00679 0.27492 0.58914 0.0
C151 C 0.99197 0.278 0.6155 0.0
C152 C 0.97678 0.31294 0.62418 0.0
C153 C 0.97634 0.34405 0.60715 0.0
C154 C 0.99306 0.24643 0.6351 0.0
C155 C 0.00157 0.21018 0.62917 0.0
C156 C 0.0029 0.18012 0.64991 0.0
C157 C 0.99501 0.14256 0.64264 0.0
C158 C 0.99501 0.11393 0.66191 0.0
C159 C 0.00309 0.12238 0.68881 0.0
H160 H 0.02066 0.21638 0.68302 0.0
C161 C 0.01227 0.15974 0.6959 0.0
C162 C 0.01252 0.18819 0.6767 0.0
H163 H 0.01936 0.16713 0.71637 0.0
H164 H 0.01751 0.3028 0.55183 0.0
H165 H 0.01944 0.24888 0.58161 0.0
H166 H 0.9655 0.31639 0.64439 0.0
H167 H 0.96519 0.37066 0.61483 0.0
H168 H 0.98535 0.25363 0.65555 0.0
H169 H 0.00601 0.20163 0.60861 0.0
H170 H 0.98811 0.13543 0.62209 0.0
H171 H 0.98808 0.08535 0.65581 0.0
C172 C 0.68702 0.02478 0.09819 0.0
C173 C 0.67777 0.99323 0.08234 0.0
C174 C 0.71862 0.02328 0.11719 0.0
C175 C 0.74155 0.98999 0.12093 0.0
C176 C 0.73284 0.95875 0.10469 0.0
C177 C 0.70121 0.96025 0.08569 0.0
C178 C 0.77561 0.98707 0.1408 0.0
C179 C 0.77921 0.00971 0.16227 0.0
C180 C 0.81461 0.00773 0.18112 0.0
C181 C 0.82702 0.04064 0.19439 0.0
C182 C 0.86162 0.04049 0.21111 0.0
C183 C 0.88423 0.00719 0.21522 0.0
H184 H 0.82664 0.94779 0.17695 0.0
C185 C 0.87064 0.9738 0.20292 0.0
C186 C 0.83619 0.97404 0.18604 0.0
H187 H 0.88711 0.94758 0.20585 0.0
H188 H 0.66939 0.05055 0.09622 0.0
H189 H 0.7251 0.04847 0.12856 0.0
H190 H 0.75036 0.93293 0.10684 0.0
H191 H 0.69526 0.93563 0.07352 0.0
H192 H 0.79858 0.96531 0.13741 0.0
H193 H 0.75656 0.03166 0.16579 0.0
H194 H 0.81059 0.06686 0.19122 0.0
H195 H 0.87102 0.06665 0.22044 0.0
C196 C 0.00483 0.71445 0.56907 0.0
C197 C -0.00493 0.67827 0.57865 0.0
C198 C 0.00605 0.74529 0.5865 0.0
C199 C -0.00223 0.74035 0.61387 0.0
C200 C 0.98867 0.70407 0.62336 0.0
C201 C 0.98707 0.67346 0.60598 0.0
C202 C -0.00073 0.77166 0.6335 0.0
C203 C 0.99331 0.80827 0.62741 0.0
C204 C 0.99216 0.83836 0.64811 0.0
C205 C 0.00131 0.87575 0.64096 0.0
C206 C 0.00079 0.90447 0.66014 0.0
C207 C 0.99094 0.89627 0.68684 0.0
H208 H 0.97177 0.80264 0.68095 0.0
C209 C 0.98075 0.85909 0.69381 0.0
C210 C 0.981 0.83057 0.67471 0.0
H211 H 0.97229 0.85189 0.7141 0.0
H212 H 0.01121 0.71893 0.54809 0.0
H213 H 0.01419 0.77262 0.5785 0.0
H214 H 0.98253 0.69936 0.64436 0.0
H215 H 0.98017 0.64583 0.61404 0.0
H216 H 0.00431 0.76359 0.65414 0.0
H217 H 0.98903 0.81673 0.60678 0.0
H218 H 0.00939 0.88268 0.62055 0.0
H219 H 0.00855 0.93293 0.65413 0.0
C220 C 0.31006 0.98664 0.89924 0.0
C221 C 0.31615 0.01688 0.91686 0.0
C222 C 0.27836 0.98767 0.88028 0.0
C223 C 0.25158 0.0189 0.87877 0.0
C224 C 0.25775 0.04905 0.89652 0.0
C225 C 0.28968 0.04811 0.91531 0.0
C226 C 0.21773 0.02191 0.85868 0.0
C227 C 0.20375 0.99292 0.84378 0.0
C228 C 0.16937 0.99647 0.82419 0.0
C229 C 0.14728 0.96398 0.81689 0.0
C230 C 0.11396 0.96619 0.79918 0.0
C231 C 0.10208 0.00101 0.78825 0.0
H232 H 0.17563 0.05661 0.81662 0.0
C233 C 0.12505 0.03335 0.79482 0.0
C234 C 0.15846 0.03112 0.81246 0.0
H235 H 0.11708 0.06055 0.78648 0.0
H236 H 0.33055 0.96252 0.89963 0.0
H237 H 0.27585 0.96423 0.86666 0.0
H238 H 0.23783 0.07355 0.89581 0.0
H239 H 0.29357 0.07177 0.92872 0.0
H240 H 0.20278 0.04915 0.85694 0.0
H241 H 0.2161 0.96489 0.84684 0.0
H242 H 0.15532 0.93684 0.82532 0.0
H243 H 0.09707 0.94067 0.79446 0.0
C244 C 0.01031 0.33524 0.3996 0.0
C245 C 0.00047 0.33434 0.42687 0.0
C246 C 0.00946 0.30235 0.38437 0.0
C247 C -0.00073 0.26748 0.39616 0.0
C248 C 0.98915 0.26669 0.42342 0.0
C249 C 0.98977 0.29972 0.43864 0.0
C250 C -0.003 0.23186 0.38047 0.0
C251 C 0.01586 0.22723 0.35672 0.0
C252 C 0.01083 0.19332 0.3397 0.0
C253 C 0.01492 0.19767 0.31202 0.0
C254 C 0.01049 0.1669 0.29499 0.0
C255 C 0.00257 0.13078 0.30527 0.0
H256 H 0.0007 0.15258 0.37145 0.0
C257 C -0.00089 0.1261 0.33304 0.0
C258 C 0.00303 0.15715 0.35015 0.0
H259 H 0.99327 0.09854 0.34154 0.0
H260 H 0.01771 0.36163 0.38982 0.0
H261 H 0.01578 0.30486 0.36327 0.0
H262 H 0.9808 0.24039 0.43301 0.0
H263 H 0.98218 0.29812 0.45966 0.0
H264 H 0.97858 0.20903 0.38869 0.0
H265 H 0.03452 0.24981 0.34848 0.0
H266 H 0.02118 0.22513 0.30345 0.0
H267 H 0.01367 0.17148 0.27372 0.0
C268 C 0.68824 0.99414 0.9014 0.0
C269 C 0.6781 0.02541 0.91727 0.0
C270 C 0.71989 0.99646 0.88251 0.0
C271 C 0.74199 0.03029 0.87891 0.0
C272 C 0.73243 0.06126 0.89516 0.0
C273 C 0.7007 0.05895 0.91404 0.0
C274 C 0.7761 0.0339 0.85917 0.0
C275 C 0.77941 0.01198 0.83732 0.0
C276 C 0.81493 0.01393 0.81859 0.0
C277 C 0.82587 0.98139 0.80441 0.0
C278 C 0.8604 0.9813 0.78768 0.0
C279 C 0.88447 0.014 0.78447 0.0
H280 H 0.8297 0.07313 0.82446 0.0
C281 C 0.87245 0.0471 0.79774 0.0
C282 C 0.83804 0.0471 0.81464 0.0
H283 H 0.89009 0.07288 0.79552 0.0
H284 H 0.67127 0.96794 0.90327 0.0
H285 H 0.72713 0.97147 0.87113 0.0
H286 H 0.74934 0.08748 0.8931 0.0
H287 H 0.69403 0.08338 0.92623 0.0
H288 H 0.79926 0.0554 0.86302 0.0
H289 H 0.75627 0.9905 0.83341 0.0
H290 H 0.8083 0.95559 0.80684 0.0
H291 H 0.86857 0.95539 0.77759 0.0
C292 C 0.99192 0.71147 0.42708 0.0
C293 C 0.00146 0.67515 0.41776 0.0
C294 C 0.99096 0.74212 0.40947 0.0
C295 C -0.00065 0.73692 0.38215 0.0
C296 C 0.00848 0.70056 0.37292 0.0
C297 C 0.00979 0.67009 0.3905 0.0
C298 C -0.00253 0.76804 0.36233 0.0
C299 C 0.00342 0.80473 0.36823 0.0
C300 C 0.00307 0.83509 0.34765 0.0
C301 C -0.00408 0.87253 0.35552 0.0
C302 C -0.00492 0.90166 0.33663 0.0
C303 C 0.00145 0.89386 0.30945 0.0
H304 H 0.01822 0.7997 0.31351 0.0
C305 C 0.00951 0.8566 0.30167 0.0
C306 C 0.01068 0.82765 0.32049 0.0
H307 H 0.01528 0.84969 0.28095 0.0
H308 H 0.98535 0.71618 0.448 0.0
H309 H 0.98278 0.76951 0.41728 0.0
H310 H 0.01471 0.69565 0.35196 0.0
H311 H 0.01658 0.64237 0.38263 0.0
H312 H 0.99175 0.75973 0.34183 0.0
H313 H 0.00867 0.81311 0.38878 0.0
H314 H 0.99051 0.87923 0.37632 0.0
H315 H 0.98901 0.93014 0.34326 0.0
loop_
_geom_bond_atom_site_label_1
_geom_bond_atom_site_label_2
_geom_bond_distance
_geom_bond_site_symmetry_2
_ccdc_geom_bond_type
H0 C19 0.949 . S
H1 C20 0.950 . S
H2 C22 0.950 . S
H3 C23 0.950 . S
H4 C25 0.950 1_565 S
H5 C28 0.950 . S
H6 C29 0.950 . S
H7 C31 0.951 . S
H8 C32 0.949 . S
H9 C34 0.949 . S
H10 C35 0.950 . S
H11 C37 0.950 . S
H12 C38 0.950 . S
H13 C40 0.950 . S
H14 C43 0.950 . S
H15 C44 0.950 . S
H16 C46 0.951 . S
H17 C47 0.949 . S
C18 C19 1.376 1_545 S
C18 C23 1.386 . S
C18 C24 1.483 . S
C19 H0 0.949 . S
C19 C18 1.376 1_565 S
C19 C20 1.397 . S
C20 H1 0.950 . S
C20 C19 1.397 . S
C20 C21 1.391 1_565 S
C21 C20 1.391 1_545 S
C21 C22 1.405 . S
C22 H2 0.950 . S
C22 C21 1.405 . S
C22 C23 1.367 . S
C23 H3 0.950 . S
C23 C18 1.386 . S
C23 C22 1.367 . S
C24 C18 1.483 . S
C24 C25 1.382 . S
C24 C26 1.403 1_554 S
C25 H4 0.950 1_545 S
C25 C24 1.382 . S
C25 C41 1.411 . S
C26 C24 1.403 1_556 S
C26 C27 1.489 . S
C26 C40 1.411 . S
C27 C26 1.489 . S
C27 C28 1.383 1_545 S
C27 C32 1.382 . S
C28 H5 0.950 . S
C28 C27 1.383 1_565 S
C28 C29 1.395 . S
C29 H6 0.950 . S
C29 C28 1.395 . S
C29 C30 1.288 1_565 S
C30 C29 1.288 1_545 S
C30 C31 1.392 . S
C31 H7 0.951 . S
C31 C30 1.392 . S
C31 C32 1.392 . S
C32 H8 0.949 . S
C32 C27 1.382 . S
C32 C31 1.392 . S
C33 C34 1.376 . S
C33 C38 1.386 1_545 S
C33 C39 1.483 . S
C34 H9 0.949 . S
C34 C33 1.376 . S
C34 C35 1.397 . S
C35 H10 0.950 . S
C35 C34 1.397 . S
C35 C36 1.391 . S
C36 C35 1.391 . S
C36 C37 1.405 1_545 S
C37 H11 0.950 . S
C37 C36 1.405 1_565 S
C37 C38 1.367 . S
C38 H12 0.950 . S
C38 C33 1.386 1_565 S
C38 C37 1.367 . S
C39 C33 1.483 . S
C39 C40 1.382 . S
C39 C41 1.403 1_556 S
C40 H13 0.950 . S
C40 C26 1.411 . S
C40 C39 1.382 . S
C41 C25 1.411 . S
C41 C39 1.403 1_554 S
C41 C42 1.489 . S
C42 C41 1.489 . S
C42 C43 1.383 . S
C42 C47 1.382 1_545 S
C43 H14 0.950 . S
C43 C42 1.383 . S
C43 C44 1.395 . S
C44 H15 0.950 . S
C44 C43 1.395 . S
C44 C45 1.288 . S
C45 C44 1.288 . S
C45 C46 1.392 1_545 S
C46 H16 0.951 . S
C46 C45 1.392 1_565 S
C46 C47 1.392 . S
C47 H17 0.949 . S
C47 C42 1.382 1_565 S
C47 C46 1.392 . S
H48 C67 0.949 . S
H49 C68 0.950 . S
H50 C70 0.950 . S
H51 C71 0.950 . S
H52 C73 0.950 . S
H53 C76 0.950 . S
H54 C77 0.950 . S
H55 C79 0.951 . S
H56 C80 0.949 . S
H57 C82 0.949 . S
H58 C83 0.950 . S
H59 C85 0.950 . S
H60 C86 0.950 . S
H61 C88 0.950 . S
H62 C91 0.950 . S
H63 C92 0.950 . S
H64 C94 0.951 . S
H65 C95 0.949 . S
C66 C67 1.376 . S
C66 C71 1.386 1_455 S
C66 C72 1.483 . S
C67 H48 0.949 . S
C67 C66 1.376 . S
C67 C68 1.397 . S
C68 H49 0.950 . S
C68 C67 1.397 . S
C68 C69 1.391 . S
C69 C68 1.391 . S
C69 C70 1.405 1_455 S
C70 H50 0.950 . S
C70 C69 1.405 1_655 S
C70 C71 1.367 . S
C71 H51 0.950 . S
C71 C66 1.386 1_655 S
C71 C70 1.367 . S
C72 C66 1.483 . S
C72 C73 1.382 . S
C72 C74 1.403 1_455 S
C73 H52 0.950 . S
C73 C72 1.382 . S
C73 C89 1.411 . S
C74 C72 1.403 1_655 S
C74 C75 1.489 . S
C74 C88 1.411 . S
C75 C74 1.489 . S
C75 C76 1.383 1_655 S
C75 C80 1.382 . S
C76 H53 0.950 . S
C76 C75 1.383 1_455 S
C76 C77 1.395 . S
C77 H54 0.950 . S
C77 C76 1.395 . S
C77 C78 1.288 1_455 S
C78 C77 1.288 1_655 S
C78 C79 1.392 . S
C79 H55 0.951 . S
C79 C78 1.392 . S
C79 C80 1.392 . S
C80 H56 0.949 . S
C80 C75 1.382 . S
C80 C79 1.392 . S
C81 C82 1.376 . S
C81 C86 1.386 1_655 S
C81 C87 1.483 . S
C82 H57 0.949 . S
C82 C81 1.376 . S
C82 C83 1.397 . S
C83 H58 0.950 . S
C83 C82 1.397 . S
C83 C84 1.379 1_655 S
C84 C83 1.379 1_455 S
C84 C85 1.417 . S
C85 H59 0.950 . S
C85 C84 1.417 . S
C85 C86 1.367 . S
C86 H60 0.950 . S
C86 C81 1.386 1_455 S
C86 C85 1.367 . S
C87 C81 1.483 . S
C87 C88 1.382 . S
C87 C89 1.403 1_655 S
C88 H61 0.950 . S
C88 C74 1.411 . S
C88 C87 1.382 . S
C89 C73 1.411 . S
C89 C87 1.403 1_455 S
C89 C90 1.489 . S
C90 C89 1.489 . S
C90 C91 1.383 1_455 S
C90 C95 1.382 . S
C91 H62 0.950 . S
C91 C90 1.383 1_655 S
C91 C92 1.395 . S
C92 H63 0.950 . S
C92 C91 1.395 . S
C92 C93 1.288 1_655 S
C93 C92 1.288 1_455 S
C93 C94 1.392 . S
C94 H64 0.951 . S
C94 C93 1.392 . S
C94 C95 1.392 . S
C95 H65 0.949 . S
C95 C90 1.382 . S
C95 C94 1.392 . S
O96 Cd97 2.223 1_655 S
O96 C104 1.315 . S
Cd97 O96 2.223 1_455 S
Cd97 O100 2.297 1_455 S
Cd97 O101 2.439 1_455 S
Cd97 O107 2.240 1_565 S
Cd98 O99 2.240 . S
Cd98 O106 2.223 1_655 S
Cd98 O108 2.297 1_655 S
Cd98 O109 2.439 1_655 S
O99 Cd98 2.240 . S
O99 C104 1.279 1_545 S
O100 Cd97 2.297 1_655 S
O100 C102 1.247 . S
O101 Cd97 2.439 1_655 S
O101 C102 1.208 . S
C102 O100 1.247 . S
C102 O101 1.208 . S
C103 O108 1.247 . S
C103 O109 1.208 . S
C104 O96 1.315 . S
C104 O99 1.279 1_565 S
C105 O106 1.315 . S
C105 O107 1.279 . S
O106 Cd98 2.223 1_455 S
O106 C105 1.315 . S
O107 Cd97 2.240 1_545 S
O107 C105 1.279 . S
O108 Cd98 2.297 1_455 S
O108 C103 1.247 . S
O109 Cd98 2.439 1_455 S
O109 C103 1.208 . S
O110 Cd111 2.223 1_655 S
O110 C118 1.315 . S
Cd111 O110 2.223 1_455 S
Cd111 O114 2.297 1_455 S
Cd111 O115 2.439 1_455 S
Cd111 O121 2.240 . S
Cd112 O113 2.240 1_565 S
Cd112 O120 2.223 1_655 S
Cd112 O122 2.297 1_655 S
Cd112 O123 2.439 1_655 S
O113 Cd112 2.240 1_545 S
O113 C118 1.279 . S
O114 Cd111 2.297 1_655 S
O114 C116 1.247 . S
O115 Cd111 2.439 1_655 S
O115 C116 1.208 . S
C116 O114 1.247 . S
C116 O115 1.208 . S
C117 O122 1.247 . S
C117 O123 1.208 . S
C118 O110 1.315 . S
C118 O113 1.279 . S
C119 O120 1.315 . S
C119 O121 1.279 1_565 S
O120 Cd112 2.223 1_455 S
O120 C119 1.315 . S
O121 Cd111 2.240 . S
O121 C119 1.279 1_545 S
O122 Cd112 2.297 1_455 S
O122 C117 1.247 . S
O123 Cd112 2.439 1_455 S
O123 C117 1.208 . S
C124 C125 1.386 . S
C124 C126 1.383 . S
C124 H140 0.951 . S
C125 C124 1.386 . S
C125 C129 1.383 1_545 S
C126 C124 1.383 . S
C126 C127 1.402 . S
C126 H141 0.951 . S
C127 C126 1.402 . S
C127 C128 1.375 1_545 S
C127 C130 1.481 1_545 S
C128 C127 1.375 1_565 S
C128 C129 1.367 . S
C128 H142 0.951 . S
C129 C125 1.383 1_565 S
C129 C128 1.367 . S
C129 H143 0.950 . S
C130 C127 1.481 1_565 S
C130 C131 1.297 1_565 S
C130 H144 0.950 . S
C131 C130 1.297 1_545 S
C131 C132 1.479 . S
C131 H145 0.950 . S
C132 C131 1.479 . S
C132 C133 1.375 . S
C132 C138 1.404 1_545 S
C133 C132 1.375 . S
C133 C134 1.369 . S
C133 H146 0.950 . S
C134 C133 1.369 . S
C134 C135 1.392 . S
C134 H147 0.951 . S
C135 C134 1.392 . S
C135 C137 1.384 1_545 S
H136 C138 0.949 . S
C137 C135 1.384 1_565 S
C137 C138 1.385 . S
C137 H139 0.950 . S
C138 C132 1.404 1_565 S
C138 H136 0.949 . S
C138 C137 1.385 . S
H139 C137 0.950 . S
H140 C124 0.951 . S
H141 C126 0.951 . S
H142 C128 0.951 . S
H143 C129 0.950 . S
H144 C130 0.950 . S
H145 C131 0.950 . S
H146 C133 0.950 . S
H147 C134 0.951 . S
C148 C149 1.386 1_655 S
C148 C150 1.383 . S
C148 H164 0.951 . S
C149 C148 1.386 1_455 S
C149 C153 1.383 . S
C150 C148 1.383 . S
C150 C151 1.402 1_655 S
C150 H165 0.951 . S
C151 C150 1.402 1_455 S
C151 C152 1.375 . S
C151 C154 1.481 . S
C152 C151 1.375 . S
C152 C153 1.367 . S
C152 H166 0.951 . S
C153 C149 1.383 . S
C153 C152 1.367 . S
C153 H167 0.950 . S
C154 C151 1.481 . S
C154 C155 1.293 1_455 S
C154 H168 0.950 . S
C155 C154 1.293 1_655 S
C155 C156 1.481 . S
C155 H169 0.954 . S
C156 C155 1.481 . S
C156 C157 1.375 . S
C156 C162 1.404 1_655 S
C157 C156 1.375 . S
C157 C158 1.369 . S
C157 H170 0.950 . S
C158 C157 1.369 . S
C158 C159 1.392 . S
C158 H171 0.951 . S
C159 C158 1.392 . S
C159 C161 1.384 1_655 S
H160 C162 0.949 . S
C161 C159 1.384 1_455 S
C161 C162 1.385 . S
C161 H163 0.950 . S
C162 C156 1.404 1_455 S
C162 H160 0.949 . S
C162 C161 1.385 . S
H163 C161 0.950 . S
H164 C148 0.951 . S
H165 C150 0.951 . S
H166 C152 0.951 . S
H167 C153 0.950 . S
H168 C154 0.950 . S
H169 C155 0.954 . S
H170 C157 0.950 . S
H171 C158 0.951 . S
C172 C173 1.386 . S
C172 C174 1.383 . S
C172 H188 0.951 . S
C173 C172 1.386 . S
C173 C177 1.383 1_545 S
C174 C172 1.383 . S
C174 C175 1.402 1_545 S
C174 H189 0.951 . S
C175 C174 1.402 1_565 S
C175 C176 1.375 . S
C175 C178 1.481 . S
C176 C175 1.375 . S
C176 C177 1.367 . S
C176 H190 0.951 . S
C177 C173 1.383 1_565 S
C177 C176 1.367 . S
C177 H191 0.950 . S
C178 C175 1.481 . S
C178 C179 1.297 . S
C178 H192 0.950 . S
C179 C178 1.297 . S
C179 C180 1.479 . S
C179 H193 0.950 . S
C180 C179 1.479 . S
C180 C181 1.368 1_565 S
C180 C186 1.404 . S
C181 C180 1.368 1_545 S
C181 C182 1.369 . S
C181 H194 0.957 . S
C182 C181 1.369 . S
C182 C183 1.392 1_545 S
C182 H195 0.951 . S
C183 C182 1.392 1_565 S
C183 C185 1.384 . S
H184 C186 0.949 . S
C185 C183 1.384 . S
C185 C186 1.385 . S
C185 H187 0.950 . S
C186 C180 1.404 . S
C186 H184 0.949 . S
C186 C185 1.385 . S
H187 C185 0.950 . S
H188 C172 0.951 . S
H189 C174 0.951 . S
H190 C176 0.951 . S
H191 C177 0.950 . S
H192 C178 0.950 . S
H193 C179 0.950 . S
H194 C181 0.957 . S
H195 C182 0.951 . S
C196 C197 1.386 . S
C196 C198 1.383 . S
C196 H212 0.951 . S
C197 C196 1.386 . S
C197 C201 1.383 1_455 S
C198 C196 1.383 . S
C198 C199 1.399 1_455 S
C198 H213 0.951 . S
C199 C198 1.399 1_655 S
C199 C200 1.378 . S
C199 C202 1.481 . S
C200 C199 1.378 . S
C200 C201 1.367 . S
C200 H214 0.951 . S
C201 C197 1.383 1_655 S
C201 C200 1.367 . S
C201 H215 0.950 . S
C202 C199 1.481 . S
C202 C203 1.296 1_655 S
C202 H216 0.950 . S
C203 C202 1.296 1_455 S
C203 C204 1.481 . S
C203 H217 0.949 1_455 S
C204 C203 1.481 . S
C204 C205 1.375 . S
C204 C210 1.401 1_455 S
C205 C204 1.375 . S
C205 C206 1.369 . S
C205 H218 0.950 . S
C206 C205 1.369 . S
C206 C207 1.392 . S
C206 H219 0.951 . S
C207 C206 1.392 . S
C207 C209 1.384 . S
H208 C210 0.958 . S
C209 C207 1.384 . S
C209 C210 1.380 1_455 S
C209 H211 0.950 . S
C210 C204 1.401 1_655 S
C210 H208 0.958 . S
C210 C209 1.380 1_655 S
H211 C209 0.950 . S
H212 C196 0.951 . S
H213 C198 0.951 . S
H214 C200 0.951 . S
H215 C201 0.950 . S
H216 C202 0.950 . S
H217 C203 0.949 1_655 S
H218 C205 0.950 . S
H219 C206 0.951 . S
C220 C221 1.386 1_565 S
C220 C222 1.383 . S
C220 H236 0.951 . S
C221 C220 1.386 1_545 S
C221 C225 1.383 . S
C222 C220 1.383 . S
C222 C223 1.402 1_565 S
C222 H237 0.951 . S
C223 C222 1.402 1_545 S
C223 C224 1.375 . S
C223 C226 1.481 . S
C224 C223 1.375 . S
C224 C225 1.367 . S
C224 H238 0.951 . S
C225 C221 1.383 . S
C225 C224 1.367 . S
C225 H239 0.950 . S
C226 C223 1.481 . S
C226 C227 1.297 1_545 S
C226 H240 0.950 . S
C227 C226 1.297 1_565 S
C227 C228 1.479 . S
C227 H241 0.950 . S
C228 C227 1.479 . S
C228 C229 1.375 . S
C228 C234 1.404 1_565 S
C229 C228 1.375 . S
C229 C230 1.369 . S
C229 H242 0.950 . S
C230 C229 1.369 . S
C230 C231 1.392 . S
C230 H243 0.951 . S
C231 C230 1.392 . S
C231 C233 1.384 1_565 S
H232 C234 0.949 . S
C233 C231 1.384 1_545 S
C233 C234 1.385 . S
C233 H235 0.950 . S
C234 C228 1.404 1_545 S
C234 H232 0.949 . S
C234 C233 1.385 . S
H235 C233 0.950 . S
H236 C220 0.951 . S
H237 C222 0.951 . S
H238 C224 0.951 . S
H239 C225 0.950 . S
H240 C226 0.950 . S
H241 C227 0.950 . S
H242 C229 0.950 . S
H243 C230 0.951 . S
C244 C245 1.386 . S
C244 C246 1.383 . S
C244 H260 0.951 . S
C245 C244 1.386 . S
C245 C249 1.383 1_455 S
C246 C244 1.383 . S
C246 C247 1.402 . S
C246 H261 0.951 . S
C247 C246 1.402 . S
C247 C248 1.375 . S
C247 C250 1.481 . S
C248 C247 1.375 . S
C248 C249 1.367 1_455 S
C248 H262 0.951 1_455 S
C249 C245 1.383 1_655 S
C249 C248 1.367 1_655 S
C249 H263 0.950 . S
C250 C247 1.481 . S
C250 C251 1.297 . S
C250 H264 0.950 . S
C251 C250 1.297 . S
C251 C252 1.479 . S
C251 H265 0.950 . S
C252 C251 1.479 . S
C252 C253 1.375 . S
C252 C258 1.404 . S
C253 C252 1.375 . S
C253 C254 1.369 . S
C253 H266 0.950 . S
C254 C253 1.369 . S
C254 C255 1.392 . S
C254 H267 0.951 . S
C255 C254 1.392 . S
C255 C257 1.384 . S
H256 C258 0.949 . S
C257 C255 1.384 . S
C257 C258 1.385 . S
C257 H259 0.950 . S
C258 C252 1.404 . S
C258 H256 0.949 . S
C258 C257 1.385 . S
H259 C257 0.950 . S
H260 C244 0.951 . S
H261 C246 0.951 . S
H262 C248 0.951 1_655 S
H263 C249 0.950 . S
H264 C250 0.950 . S
H265 C251 0.950 . S
H266 C253 0.950 . S
H267 C254 0.951 . S
C268 C269 1.386 1_565 S
C268 C270 1.383 1_565 S
C268 H284 0.951 . S
C269 C268 1.386 1_545 S
C269 C273 1.383 . S
C270 C268 1.383 1_545 S
C270 C271 1.402 . S
C270 H285 0.951 1_545 S
C271 C270 1.402 . S
C271 C272 1.375 . S
C271 C274 1.481 . S
C272 C271 1.375 . S
C272 C273 1.367 . S
C272 H286 0.951 . S
C273 C269 1.383 . S
C273 C272 1.367 . S
C273 H287 0.950 . S
C274 C271 1.481 . S
C274 C275 1.297 . S
C274 H288 0.950 . S
C275 C274 1.297 . S
C275 C276 1.479 . S
C275 H289 0.950 . S
C276 C275 1.479 . S
C276 C277 1.375 . S
C276 C282 1.404 . S
C277 C276 1.375 . S
C277 C278 1.369 . S
C277 H290 0.950 1_545 S
C278 C277 1.369 . S
C278 C279 1.392 . S
C278 H291 0.951 1_545 S
C279 C278 1.392 . S
C279 C281 1.384 . S
H280 C282 0.949 . S
C281 C279 1.384 . S
C281 C282 1.385 . S
C281 H283 0.950 . S
C282 C276 1.404 . S
C282 H280 0.949 . S
C282 C281 1.385 . S
H283 C281 0.950 . S
H284 C268 0.951 . S
H285 C270 0.951 1_565 S
H286 C272 0.951 . S
H287 C273 0.950 . S
H288 C274 0.950 . S
H289 C275 0.950 . S
H290 C277 0.950 1_565 S
H291 C278 0.951 1_565 S
C292 C293 1.386 1_655 S
C292 C294 1.383 . S
C292 H308 0.951 . S
C293 C292 1.386 1_455 S
C293 C297 1.383 . S
C294 C292 1.383 . S
C294 C295 1.402 1_655 S
C294 H309 0.951 . S
C295 C294 1.402 1_455 S
C295 C296 1.375 . S
C295 C298 1.481 . S
C296 C295 1.375 . S
C296 C297 1.367 . S
C296 H310 0.951 . S
C297 C293 1.383 . S
C297 C296 1.367 . S
C297 H311 0.950 . S
C298 C295 1.481 . S
C298 C299 1.297 1_455 S
C298 H312 0.950 . S
C299 C298 1.297 1_655 S
C299 C300 1.479 . S
C299 H313 0.950 . S
C300 C299 1.479 . S
C300 C301 1.375 . S
C300 C306 1.404 1_655 S
C301 C300 1.375 . S
C301 C302 1.369 . S
C301 H314 0.950 . S
C302 C301 1.369 . S
C302 C303 1.392 . S
C302 H315 0.951 . S
C303 C302 1.392 . S
C303 C305 1.384 1_655 S
H304 C306 0.949 . S
C305 C303 1.384 1_455 S
C305 C306 1.385 . S
C305 H307 0.950 . S
C306 C300 1.404 1_455 S
C306 H304 0.949 . S
C306 C305 1.385 . S
H307 C305 0.950 . S
H308 C292 0.951 . S
H309 C294 0.951 . S
H310 C296 0.951 . S
H311 C297 0.950 . S
H312 C298 0.950 . S
H313 C299 0.950 . S
H314 C301 0.950 . S
H315 C302 0.951 . S
C135 C105 1.630 . S
C125 C45 1.623 . S
C159 C116 1.521 . S
C149 C78 1.616 1_455 S
C183 C104 1.614 . S
C173 C21 1.622 . S
C207 C117 1.510 . S
C197 C84 1.622 . S
C231 C119 1.630 . S
C221 C36 1.636 . S
C255 C103 1.587 . S
C245 C69 1.609 . S
C279 C118 1.613 . S
C269 C30 1.611 . S
C293 C93 1.613 . S
C303 C102 1.540 . S
