# Generated by pormake.
# Topology anh, (6,3)-cn, num edge types: 1
# Building blocks:
#     Node 0, Type 0, BuildingBlock: INOVEN_clean_sbu_0, # of connection points: 6
#     Node 1, Type 0, BuildingBlock: INOVEN_clean_sbu_0, # of connection points: 6
#     Node 2, Type 0, BuildingBlock: INOVEN_clean_sbu_0, # of connection points: 6
#     Node 3, Type 1, BuildingBlock: VETTIZ_charged_linker_0, # of connection points: 3
#     Node 4, Type 1, BuildingBlock: VETTIZ_charged_linker_0, # of connection points: 3
#     Node 5, Type 1, BuildingBlock: VETTIZ_charged_linker_0, # of connection points: 3
#     Node 6, Type 1, BuildingBlock: VETTIZ_charged_linker_0, # of connection points: 3
#     Node 7, Type 1, BuildingBlock: VETTIZ_charged_linker_0, # of connection points: 3
#     Node 8, Type 1, BuildingBlock: VETTIZ_charged_linker_0, # of connection points: 3
#     Edge 9, Type (0, 1), BuildingBlock: TEMPAE_clean_linker_10, # of connection points: 2
#     Edge 10, Type (0, 1), BuildingBlock: TEMPAE_clean_linker_10, # of connection points: 2
#     Edge 11, Type (0, 1), BuildingBlock: TEMPAE_clean_linker_10, # of connection points: 2
#     Edge 12, Type (0, 1), BuildingBlock: TEMPAE_clean_linker_10, # of connection points: 2
#     Edge 13, Type (0, 1), BuildingBlock: TEMPAE_clean_linker_10, # of connection points: 2
#     Edge 14, Type (0, 1), BuildingBlock: TEMPAE_clean_linker_10, # of connection points: 2
#     Edge 15, Type (0, 1), BuildingBlock: TEMPAE_clean_linker_10, # of connection points: 2
#     Edge 16, Type (0, 1), BuildingBlock: TEMPAE_clean_linker_10, # of connection points: 2
#     Edge 17, Type (0, 1), BuildingBlock: TEMPAE_clean_linker_10, # of connection points: 2
#     Edge 18, Type (0, 1), BuildingBlock: TEMPAE_clean_linker_10, # of connection points: 2
#     Edge 19, Type (0, 1), BuildingBlock: TEMPAE_clean_linker_10, # of connection points: 2
#     Edge 20, Type (0, 1), BuildingBlock: TEMPAE_clean_linker_10, # of connection points: 2
#     Edge 21, Type (0, 1), BuildingBlock: TEMPAE_clean_linker_10, # of connection points: 2
#     Edge 22, Type (0, 1), BuildingBlock: TEMPAE_clean_linker_10, # of connection points: 2
#     Edge 23, Type (0, 1), BuildingBlock: TEMPAE_clean_linker_10, # of connection points: 2
#     Edge 24, Type (0, 1), BuildingBlock: TEMPAE_clean_linker_10, # of connection points: 2
#     Edge 25, Type (0, 1), BuildingBlock: TEMPAE_clean_linker_10, # of connection points: 2
#     Edge 26, Type (0, 1), BuildingBlock: TEMPAE_clean_linker_10, # of connection points: 2
# Relax obj value: 0.182
# Max RMSD: 0.214
# Mean RMSD: 0.160
data_MOF--net-anh--node1-INOVEN_clean_sbu_0--node2-VETTIZ_charged_linker_0--edge1-TEMPAE_clean_linker_10
_symmetry_space_group_name_H-M    P1
_symmetry_Int_Tables_number       1
_symmetry_cell_setting            triclinic
loop_
_symmetry_equiv_pos_as_xyz
'x, y, z'
_cell_length_a     37.725671
_cell_length_b     43.930452
_cell_length_c     67.514043
_cell_angle_alpha  93.324521
_cell_angle_beta   88.804829
_cell_angle_gamma 128.95576
loop_
_atom_site_label
_atom_site_type_symbol
_atom_site_fract_x
_atom_site_fract_y
_atom_site_fract_z
_atom_type_partial_charge
Gd0 Gd 0.1236 0.5349 0.14205 0.0
Gd1 Gd 0.06741 0.55802 0.15727 0.0
C2 C 0.17566 0.62784 0.15219 0.0
C3 C 0.17858 0.52749 0.12354 0.0
C4 C 0.22136 0.53648 0.12974 0.0
C5 C 0.2292 0.53459 0.1497 0.0
C6 C 0.25469 0.54713 0.11575 0.0
C7 C 0.30149 0.54986 0.14123 0.0
C8 C 0.29461 0.55397 0.12145 0.0
C9 C 0.26884 0.54101 0.15539 0.0
C10 C 0.11099 0.53027 0.1816 0.0
C11 C 1.01837 0.46712 0.14908 0.0
C12 C 1.02057 0.57297 0.17689 0.0
C13 C 0.97053 0.54615 0.1792 0.0
C14 C 0.94352 0.55147 0.16847 0.0
C15 C 0.94903 0.51147 0.1893 0.0
C16 C 0.87569 0.48541 0.17507 0.0
C17 C 0.90211 0.48141 0.18721 0.0
C18 C 0.89656 0.52135 0.16637 0.0
C19 C 0.05882 0.53911 0.11758 0.0
O20 O 0.17963 0.60027 0.14784 0.0
O21 O 0.13554 0.61893 0.15606 0.0
O22 O 0.14204 0.49885 0.13229 0.0
O23 O 0.17998 0.55767 0.12204 0.0
O24 O 0.11508 0.50731 0.17089 0.0
O25 O 0.11813 0.55644 0.17129 0.0
O26 O 1.02203 0.49318 0.16165 0.0
O27 O 0.05109 0.47855 0.13619 0.0
O28 O 1.03496 0.58496 0.15896 0.0
O29 O 1.04239 0.56281 0.18536 0.0
O30 O 1.02507 0.5302 0.12846 0.0
O31 O 0.09452 0.5584 0.12801 0.0
H32 H 0.2041 0.52709 0.16081 0.0
H33 H 0.24948 0.54945 0.10036 0.0
H34 H 0.31958 0.56151 0.11028 0.0
H35 H 0.27287 0.5373 0.17068 0.0
H36 H 0.95909 0.57783 0.16058 0.0
H37 H 0.96865 0.50638 0.19786 0.0
H38 H 0.88684 0.45437 0.1944 0.0
H39 H 0.8772 0.52531 0.15681 0.0
Gd40 Gd 0.60862 0.02534 0.48412 0.0
Gd41 Gd 0.55076 0.04786 0.47312 0.0
C42 C 0.49854 0.95677 0.47585 0.0
C43 C 0.64135 0.99537 0.50022 0.0
C44 C 0.62918 0.95645 0.50211 0.0
C45 C 0.61804 0.93091 0.48547 0.0
C46 C 0.62988 0.94508 0.52098 0.0
C47 C 0.61054 0.88396 0.50659 0.0
C48 C 0.6205 0.90923 0.52322 0.0
C49 C 0.60889 0.89506 0.48769 0.0
C50 C 0.60436 0.03246 0.44506 0.0
C51 C 0.66175 0.11625 0.47974 0.0
C52 C 0.51829 0.079 0.45823 0.0
C53 C 0.52631 0.11618 0.46246 0.0
C54 C 0.54434 0.13672 0.48097 0.0
C55 C 0.51585 0.13133 0.44806 0.0
C56 C 0.53969 0.1865 0.4709 0.0
C57 C 0.52262 0.1663 0.45221 0.0
C58 C 0.55075 0.17143 0.48518 0.0
C59 C 0.55822 0.04405 0.5125 0.0
O60 O 0.53591 0.96778 0.48514 0.0
O61 O 0.49826 0.98254 0.46677 0.0
O62 O 0.65282 0.00972 0.48266 0.0
O63 O 0.61597 1.00191 0.50974 0.0
O64 O 0.64034 0.0419 0.45404 0.0
O65 O 0.57138 0.01698 0.45673 0.0
O66 O 0.62337 0.10505 0.47142 0.0
O67 O 0.66315 0.09095 0.48868 0.0
O68 O 0.49833 0.05408 0.47222 0.0
O69 O 0.5523 0.08187 0.45049 0.0
O70 O 0.52195 0.03479 0.50397 0.0
O71 O 0.58961 0.05777 0.50017 0.0
H72 H 0.61699 0.93881 0.47072 0.0
H73 H 0.63808 0.96416 0.53404 0.0
H74 H 0.6211 0.90134 0.53804 0.0
H75 H 0.60163 0.87649 0.47455 0.0
H76 H 0.55316 0.12575 0.49221 0.0
H77 H 0.50211 0.11595 0.43367 0.0
H78 H 0.51363 0.17711 0.44096 0.0
H79 H 0.56462 0.18664 0.49959 0.0
Gd80 Gd 0.60317 0.56408 0.83456 0.0
Gd81 Gd 0.53786 0.47683 0.83459 0.0
C82 C 0.49011 0.51848 0.83616 0.0
C83 C 0.64585 0.63568 0.82516 0.0
C84 C 0.63678 0.66332 0.82174 0.0
C85 C 0.62629 0.67895 0.83736 0.0
C86 C 0.64082 0.67576 0.80254 0.0
C87 C 0.62509 0.71955 0.81461 0.0
C88 C 0.63484 0.70332 0.799 0.0
C89 C 0.62047 0.70672 0.83383 0.0
C90 C 0.58589 0.53531 0.87048 0.0
C91 C 0.65113 0.52261 0.83427 0.0
C92 C 0.4981 0.40531 0.84296 0.0
C93 C 0.50855 0.3781 0.84 0.0
C94 C 0.52531 0.37489 0.82189 0.0
C95 C 0.50193 0.35511 0.85549 0.0
C96 C 0.52672 0.32482 0.83453 0.0
C97 C 0.51111 0.32881 0.85282 0.0
C98 C 0.53404 0.34837 0.81915 0.0
C99 C 0.55664 0.505 0.79827 0.0
O100 O 0.53266 0.55134 0.8334 0.0
O101 O 0.48354 0.48535 0.83866 0.0
O102 O 0.64384 0.62594 0.84336 0.0
O103 O 0.62866 0.60623 0.81202 0.0
O104 O 0.62608 0.56586 0.86542 0.0
O105 O 0.55682 0.52299 0.85681 0.0
O106 O 0.60819 0.4894 0.83555 0.0
O107 O 0.65825 0.5562 0.83262 0.0
O108 O 0.48845 0.41462 0.82701 0.0
O109 O 0.52446 0.43527 0.85565 0.0
O110 O 0.51658 0.47442 0.80331 0.0
O111 O 0.58511 0.51771 0.81228 0.0
H112 H 0.62316 0.67018 0.85238 0.0
H113 H 0.64902 0.66436 0.79022 0.0
H114 H 0.6378 0.71187 0.78395 0.0
H115 H 0.61339 0.7188 0.84624 0.0
H116 H 0.53147 0.39273 0.80978 0.0
H117 H 0.48934 0.35731 0.86963 0.0
H118 H 0.50503 0.31097 0.86491 0.0
H119 H 0.54672 0.34637 0.805 0.0
C120 C 0.71211 0.15623 0.17218 0.0
C121 C 0.74855 0.19222 0.1821 0.0
C122 C 0.74742 0.19604 0.20291 0.0
C123 C 0.67696 0.12944 0.20394 0.0
C124 C 0.67664 0.12501 0.18348 0.0
C125 C 0.63538 0.08387 0.17613 0.0
H126 H 0.44046 0.90399 0.2025 0.0
C127 C 0.63652 0.09252 0.21169 0.0
C128 C 0.61113 0.06521 0.19552 0.0
H129 H 0.49077 0.93336 0.14299 0.0
H130 H 0.55417 1.00035 0.15531 0.0
H131 H 0.53023 0.93772 0.22129 0.0
H132 H 0.4581 0.98256 0.21565 0.0
H133 H 0.48238 0.99842 0.23964 0.0
H134 H 0.44273 0.94655 0.23283 0.0
H135 H 0.48495 0.92473 0.23749 0.0
H136 H 0.54364 0.96614 0.24334 0.0
C137 C 0.65243 0.06308 0.16585 0.0
C138 C 0.60594 0.08703 0.16233 0.0
C139 C 0.61749 0.08077 0.28673 0.0
C140 C 0.58409 0.04957 0.29827 0.0
C141 C 0.54504 0.01545 0.28877 0.0
C142 C 0.54011 0.01155 0.26814 0.0
C143 C 0.57475 0.04194 0.25666 0.0
C144 C 0.61212 0.07619 0.26594 0.0
C145 C 0.64499 0.10532 0.25115 0.0
C146 C 0.62181 0.08217 0.23151 0.0
C147 C 0.58101 0.04516 0.23496 0.0
C148 C 0.69126 0.11403 0.25429 0.0
C149 C 0.64701 0.14172 0.25398 0.0
C150 C 0.4651 0.92441 0.19195 0.0
C151 C 0.46074 0.91274 0.17182 0.0
C152 C 0.49327 0.94127 0.15869 0.0
C153 C 0.53022 0.98005 0.16587 0.0
C154 C 0.53474 0.99047 0.18639 0.0
C155 C 0.50184 0.96238 0.19881 0.0
C156 C 0.51112 0.97624 0.22015 0.0
C157 C 0.55507 0.01753 0.21891 0.0
C158 C 0.56955 0.02675 0.19916 0.0
C159 C 0.51756 0.94992 0.2313 0.0
C160 C 0.47156 0.97575 0.22764 0.0
H161 H 0.71412 0.17061 0.22951 0.0
H162 H 0.71177 0.15232 0.15619 0.0
H163 H 0.59901 0.10616 0.16957 0.0
H164 H 0.57256 0.05829 0.15874 0.0
H165 H 0.62369 0.09989 0.14822 0.0
H166 H 0.67854 0.06638 0.17533 0.0
H167 H 0.66817 0.07588 0.15144 0.0
H168 H 0.62488 0.03132 0.16314 0.0
H169 H 0.64781 0.10744 0.29365 0.0
H170 H 0.51843 0.99138 0.29736 0.0
H171 H 0.5098 0.98448 0.26198 0.0
H172 H 0.68583 0.08678 0.2574 0.0
H173 H 0.71073 0.13547 0.26707 0.0
H174 H 0.71287 0.12501 0.24109 0.0
H175 H 0.61533 0.13414 0.26068 0.0
H176 H 0.64945 0.15413 0.23972 0.0
H177 H 0.67602 0.16499 0.26388 0.0
H178 H 0.77409 0.22334 0.21095 0.0
C179 C 0.71219 0.16525 0.21375 0.0
C180 C 0.57114 0.61782 0.53168 0.0
C181 C 0.57063 0.64577 0.54278 0.0
C182 C 0.57376 0.6476 0.56365 0.0
C183 C 0.57851 0.59513 0.56215 0.0
C184 C 0.57496 0.59273 0.54169 0.0
C185 C 0.57579 0.56099 0.53249 0.0
H186 H 0.59859 0.42151 0.54573 0.0
C187 C 0.5839 0.56642 0.56806 0.0
C188 C 0.58264 0.54632 0.55078 0.0
H189 H 0.5681 0.44753 0.49091 0.0
H190 H 0.5713 0.49923 0.50824 0.0
H191 H 0.67385 0.50913 0.56251 0.0
H192 H 0.52949 0.42555 0.57179 0.0
H193 H 0.55659 0.44766 0.59502 0.0
H194 H 0.56979 0.42027 0.58069 0.0
H195 H 0.65037 0.47016 0.57893 0.0
H196 H 0.66534 0.51681 0.58736 0.0
C197 C 0.61678 0.58005 0.51848 0.0
C198 C 0.52904 0.52908 0.52209 0.0
C199 C 0.59926 0.55448 0.64124 0.0
C200 C 0.60808 0.53276 0.65149 0.0
C201 C 0.61654 0.50977 0.64032 0.0
C202 C 0.61426 0.50714 0.61952 0.0
C203 C 0.60383 0.52796 0.60961 0.0
C204 C 0.59789 0.55201 0.62046 0.0
C205 C 0.59034 0.57414 0.60741 0.0
C206 C 0.59079 0.55807 0.58694 0.0
C207 C 0.59802 0.53064 0.58835 0.0
C208 C 0.63095 0.61857 0.61084 0.0
C209 C 0.54299 0.56258 0.61206 0.0
C210 C 0.59324 0.43871 0.5374 0.0
C211 C 0.58351 0.43073 0.51692 0.0
C212 C 0.5756 0.45314 0.50671 0.0
C213 C 0.57744 0.48307 0.5168 0.0
C214 C 0.58663 0.49029 0.53738 0.0
C215 C 0.59421 0.4681 0.54728 0.0
C216 C 0.60124 0.47817 0.56922 0.0
C217 C 0.59639 0.50995 0.57098 0.0
C218 C 0.58826 0.51734 0.55229 0.0
C219 C 0.65003 0.49417 0.57498 0.0
C220 C 0.56259 0.44111 0.5799 0.0
H221 H 0.57999 0.62571 0.58921 0.0
H222 H 0.56847 0.61547 0.51564 0.0
H223 H 0.5011 0.52611 0.53019 0.0
H224 H 0.5195 0.49959 0.52182 0.0
H225 H 0.52853 0.53641 0.50668 0.0
H226 H 0.64771 0.60743 0.52572 0.0
H227 H 0.60974 0.58779 0.50453 0.0
H228 H 0.62602 0.56111 0.51465 0.0
H229 H 0.59249 0.57246 0.64912 0.0
H230 H 0.62488 0.49364 0.64762 0.0
H231 H 0.62041 0.48873 0.61197 0.0
H232 H 0.66195 0.6237 0.61644 0.0
H233 H 0.62264 0.63287 0.62189 0.0
H234 H 0.64189 0.6343 0.59697 0.0
H235 H 0.51755 0.53061 0.61423 0.0
H236 H 0.52877 0.56796 0.5999 0.0
H237 H 0.54452 0.57847 0.62586 0.0
H238 H 0.5743 0.66919 0.57258 0.0
C239 C 0.5776 0.62253 0.57333 0.0
C240 C 0.17852 0.51924 0.84394 0.0
C241 C 0.21525 0.52503 0.85523 0.0
C242 C 0.21917 0.53754 0.8753 0.0
C243 C 0.15093 0.53258 0.87389 0.0
C244 C 0.14672 0.52374 0.85371 0.0
C245 C 0.10531 0.52036 0.84585 0.0
H246 H 0.93451 0.53661 0.87759 0.0
C247 C 0.11354 0.53327 0.881 0.0
C248 C 0.08597 0.52744 0.86475 0.0
H249 H 0.94458 0.51015 0.81633 0.0
H250 H 1.01089 0.51332 0.8254 0.0
H251 H 0.93694 0.47415 0.89187 0.0
H252 H 1.03423 0.59846 0.88824 0.0
H253 H 1.04646 0.58993 0.91119 0.0
H254 H 0.99065 0.57542 0.90651 0.0
H255 H 0.93995 0.50726 0.9099 0.0
H256 H 0.971 0.48907 0.91309 0.0
C257 C 0.06905 0.47926 0.83614 0.0
C258 C 0.1221 0.55201 0.83108 0.0
C259 C 0.09596 0.53827 0.9562 0.0
C260 C 0.06622 0.53996 0.96818 0.0
C261 C 1.03509 0.54255 0.95908 0.0
C262 C 1.03276 0.54249 0.93845 0.0
C263 C 0.06175 0.53967 0.92646 0.0
C264 C 0.09333 0.53855 0.93545 0.0
C265 C 0.12394 0.53922 0.92055 0.0
C266 C 0.10256 0.53692 0.90088 0.0
C267 C 0.06646 0.53746 0.90456 0.0
C268 C 0.12011 0.5024 0.92317 0.0
C269 C 0.17259 0.57914 0.92418 0.0
C270 C 0.94914 0.53051 0.86566 0.0
C271 C 0.93147 0.52216 0.84621 0.0
C272 C 0.95576 0.51653 0.83171 0.0
C273 C 0.99441 0.51826 0.83692 0.0
C274 C 1.01004 0.52561 0.85697 0.0
C275 C 0.98598 0.53116 0.87054 0.0
C276 C 1.00135 0.53577 0.89127 0.0
C277 C 1.03992 0.53403 0.88869 0.0
C278 C 1.04756 0.5284 0.86852 0.0
C279 C 0.96044 0.5001 0.90226 0.0
C280 C 1.01882 0.57679 0.89993 0.0
H281 H 0.19427 0.5492 0.8998 0.0
H282 H 0.17421 0.51088 0.82825 0.0
H283 H 0.14855 0.58165 0.8382 0.0
H284 H 0.09354 0.55086 0.82588 0.0
H285 H 0.13722 0.5478 0.81797 0.0
H286 H 0.05744 0.45654 0.84689 0.0
H287 H 0.0831 0.47375 0.82308 0.0
H288 H 1.03897 0.47611 0.83116 0.0
H289 H 0.12115 0.53737 0.96285 0.0
H290 H 1.01189 0.54399 0.96798 0.0
H291 H 1.00807 0.5445 0.93278 0.0
H292 H 0.08398 0.47629 0.92527 0.0
H293 H 0.14013 0.50662 0.93638 0.0
H294 H 0.13122 0.49416 0.91018 0.0
H295 H 0.17237 0.60094 0.93331 0.0
H296 H 0.18869 0.59365 0.91015 0.0
H297 H 0.19517 0.5755 0.93206 0.0
H298 H 0.24696 0.54479 0.88454 0.0
C299 C 0.1881 0.54084 0.88439 0.0
C300 C 0.97363 0.42405 0.45626 0.0
C301 C 0.93802 0.38778 0.44628 0.0
C302 C 0.93349 0.38657 0.42555 0.0
C303 C 1.00014 0.45484 0.4246 0.0
C304 C 1.00456 0.45736 0.44503 0.0
C305 C 1.04543 0.49862 0.45242 0.0
H306 H 0.22916 0.68389 0.42606 0.0
C307 C 1.03748 0.49315 0.41685 0.0
C308 C 0.06459 0.51966 0.43301 0.0
H309 H 0.1946 0.6463 0.48592 0.0
H310 H 0.12733 0.58127 0.47332 0.0
H311 H 0.2143 0.61128 0.40816 0.0
H312 H 0.1304 0.6458 0.41154 0.0
H313 H 0.1194 0.6227 0.38783 0.0
H314 H 0.17658 0.66593 0.39465 0.0
H315 H 0.22125 0.64553 0.39196 0.0
H316 H 0.1839 0.5935 0.38557 0.0
C317 C 0.0794 0.49637 0.46308 0.0
C318 C 1.02824 0.51627 0.46588 0.0
C319 C 0.0534 0.50489 0.34186 0.0
C320 C 0.08597 0.53603 0.33011 0.0
C321 C 0.12019 0.57302 0.33945 0.0
C322 C 0.12295 0.57874 0.3601 0.0
C323 C 0.09128 0.54712 0.37174 0.0
C324 C 0.05688 0.51112 0.36261 0.0
C325 C 1.02648 0.48107 0.37747 0.0
C326 C 1.04895 0.50492 0.39702 0.0
C327 C 0.0868 0.54336 0.39347 0.0
C328 C 1.02971 0.44762 0.37438 0.0
C329 C 0.97782 0.46802 0.3747 0.0
C330 C 0.2076 0.66179 0.43661 0.0
C331 C 0.21797 0.67029 0.45696 0.0
C332 C 0.1877 0.64059 0.47008 0.0
C333 C 0.1488 0.60284 0.46275 0.0
C334 C 0.13984 0.59479 0.4421 0.0
C335 C 0.16931 0.62461 0.42963 0.0
C336 C 0.1564 0.61253 0.40823 0.0
C337 C 0.11413 0.57041 0.4095 0.0
C338 C 0.1037 0.55925 0.42931 0.0
C339 C 0.19586 0.61603 0.39777 0.0
C340 C 0.14537 0.63808 0.39995 0.0
H341 H 0.95822 0.4159 0.39907 0.0
H342 H 0.9778 0.42615 0.47222 0.0
H343 H 0.99938 0.51232 0.45852 0.0
H344 H 0.0548 0.54805 0.46913 0.0
H345 H 1.01606 0.50164 0.48015 0.0
H346 H 0.08618 0.47892 0.45371 0.0
H347 H 0.06551 0.48211 0.47737 0.0
H348 H 0.11263 0.52553 0.46612 0.0
H349 H 1.02668 0.4761 0.33509 0.0
H350 H 0.1451 0.59766 0.33072 0.0
H351 H 0.15017 0.60759 0.36614 0.0
H352 H 0.06515 0.45963 0.37081 0.0
H353 H 1.0071 0.42675 0.36191 0.0
H354 H 1.02156 0.43114 0.38775 0.0
H355 H 0.97871 0.49115 0.36814 0.0
H356 H 0.9603 0.46292 0.38896 0.0
H357 H 0.95636 0.44115 0.3647 0.0
H358 H 0.90596 0.3597 0.4175 0.0
C359 C 0.96396 0.41953 0.41478 0.0
C360 C 0.58962 0.94302 0.78129 0.0
C361 C 0.59221 0.91619 0.77027 0.0
C362 C 0.59487 0.91757 0.74943 0.0
C363 C 0.5908 0.97048 0.75077 0.0
C364 C 0.58885 0.96981 0.77123 0.0
C365 C 0.5854 1.00007 0.78038 0.0
H366 H 0.57884 0.14893 0.76646 0.0
C367 C 0.58849 1.00098 0.74474 0.0
C368 C 0.58533 0.01862 0.76201 0.0
H369 H 0.57355 0.10326 0.82231 0.0
H370 H 0.57726 0.05519 0.80498 0.0
H371 H 0.65481 0.14531 0.7456 0.0
H372 H 0.50857 0.06937 0.74514 0.0
H373 H 0.52267 0.06112 0.72163 0.0
H374 H 0.54104 0.10933 0.72913 0.0
H375 H 0.6215 0.15625 0.73439 0.0
H376 H 0.63568 0.12883 0.72082 0.0
C377 C 0.62815 0.02958 0.79372 0.0
C378 C 0.5399 0.97853 0.7915 0.0
C379 C 0.59079 0.02329 0.67131 0.0
C380 C 0.5863 0.04783 0.66107 0.0
C381 C 0.58111 0.07297 0.67222 0.0
C382 C 0.58108 0.07415 0.69297 0.0
C383 C 0.58563 0.04956 0.70292 0.0
C384 C 0.5899 0.02439 0.69212 0.0
C385 C 0.59204 0.99903 0.70528 0.0
C386 C 0.5886 0.01338 0.72573 0.0
C387 C 0.5854 0.04323 0.7242 0.0
C388 C 0.63884 0.00846 0.7024 0.0
C389 C 0.55022 0.95565 0.70013 0.0
C390 C 0.57916 0.12896 0.775 0.0
C391 C 0.57679 0.13027 0.79574 0.0
C392 C 0.57569 0.10289 0.80628 0.0
C393 C 0.57792 0.07513 0.7962 0.0
C394 C 0.58062 0.07444 0.77534 0.0
C395 C 0.58071 0.10094 0.76519 0.0
C396 C 0.58135 0.09521 0.74312 0.0
C397 C 0.58301 0.06162 0.74156 0.0
C398 C 0.58278 0.04943 0.76042 0.0
C399 C 0.62539 0.13334 0.7354 0.0
C400 C 0.53638 0.0834 0.73415 0.0
H401 H 0.59623 0.9437 0.72383 0.0
H402 H 0.58748 0.94273 0.79731 0.0
H403 H 0.51218 0.95098 0.78303 0.0
H404 H 0.52786 0.9958 0.79327 0.0
H405 H 0.54288 0.97062 0.80635 0.0
H406 H 0.65926 0.03741 0.78625 0.0
H407 H 0.62534 0.01688 0.80799 0.0
H408 H 0.63453 0.05756 0.79692 0.0
H409 H 0.59501 1.00365 0.66339 0.0
H410 H 0.57624 0.09144 0.66493 0.0
H411 H 0.5772 0.09407 0.70043 0.0
H412 H 0.6661 0.04026 0.70033 0.0
H413 H 0.63816 0.99196 0.68911 0.0
H414 H 0.65029 1.00241 0.71544 0.0
H415 H 0.52038 0.95312 0.69532 0.0
H416 H 0.53799 0.93716 0.71299 0.0
H417 H 0.55778 0.94263 0.68788 0.0
H418 H 0.59796 0.89799 0.74058 0.0
C419 C 0.59416 0.9444 0.73969 0.0
C420 C 0.56672 0.34135 0.11908 0.0
C421 C 0.58633 0.32845 0.10709 0.0
C422 C 0.57905 0.32416 0.08635 0.0
C423 C 0.54183 0.3533 0.08986 0.0
C424 C 0.54545 0.35415 0.11024 0.0
C425 C 0.53108 0.37558 0.12097 0.0
H426 H 0.48043 0.49705 0.11739 0.0
C427 C 0.52506 0.37491 0.08546 0.0
C428 C 0.51842 0.38772 0.10369 0.0
H429 H 0.49653 0.45413 0.16955 0.0
H430 H 0.50655 0.41314 0.14873 0.0
H431 H 0.5603 0.50454 0.08934 0.0
H432 H 0.41544 0.41964 0.09607 0.0
H433 H 0.42548 0.40954 0.07196 0.0
H434 H 0.43896 0.45639 0.07834 0.0
H435 H 0.51941 0.51205 0.08525 0.0
H436 H 0.53174 0.49043 0.06606 0.0
C437 C 0.57285 0.41141 0.1331 0.0
C438 C 0.48913 0.34616 0.13357 0.0
C439 C 0.52596 0.4107 0.01485 0.0
C440 C 0.51323 0.4316 0.00683 0.0
C441 C 0.49112 0.44192 0.01911 0.0
C442 C 0.48543 0.43476 0.03926 0.0
C443 C 0.5018 0.41697 0.04735 0.0
C444 C 0.51933 0.40326 0.03509 0.0
C445 C 0.53094 0.38179 0.04633 0.0
C446 C 0.51916 0.38649 0.0674 0.0
C447 C 0.50367 0.40836 0.06786 0.0
C448 C 0.58257 0.40331 0.04415 0.0
C449 C 0.49979 0.33834 0.03838 0.0
C450 C 0.48747 0.47963 0.12429 0.0
C451 C 0.48971 0.47983 0.14501 0.0
C452 C 0.496 0.45507 0.15357 0.0
C453 C 0.50141 0.4312 0.14145 0.0
C454 C 0.50005 0.432 0.12065 0.0
C455 C 0.49233 0.45545 0.11246 0.0
C456 C 0.48888 0.45089 0.09021 0.0
C457 C 0.49794 0.42197 0.08625 0.0
C458 C 0.50491 0.4114 0.10409 0.0
C459 C 0.5269 0.49151 0.08214 0.0
C460 C 0.43986 0.43344 0.0837 0.0
H461 H 0.55395 0.33409 0.06178 0.0
H462 H 0.57234 0.34582 0.13502 0.0
H463 H 0.4669 0.31652 0.12583 0.0
H464 H 0.46683 0.3542 0.13607 0.0
H465 H 0.4997 0.34328 0.14811 0.0
H466 H 0.60517 0.42365 0.12524 0.0
H467 H 0.57556 0.40307 0.14788 0.0
H468 H 0.57251 0.43629 0.1352 0.0
H469 H 0.54224 0.40161 0.00583 0.0
H470 H 0.47887 0.45628 0.01323 0.0
H471 H 0.46949 0.44423 0.04788 0.0
H472 H 0.60237 0.4356 0.04616 0.0
H473 H 0.58992 0.3968 0.02919 0.0
H474 H 0.59651 0.39592 0.05534 0.0
H475 H 0.46612 0.3287 0.03323 0.0
H476 H 0.49161 0.31809 0.04995 0.0
H477 H 0.51541 0.3338 0.02564 0.0
H478 H 0.59348 0.31394 0.07679 0.0
C479 C 0.55656 0.33628 0.07767 0.0
C480 C 0.36313 0.5672 0.16495 0.0
C481 C 0.33981 0.55045 0.14661 0.0
C482 C 0.39607 0.56389 0.1708 0.0
C483 C 0.40536 0.54306 0.15806 0.0
C484 C 0.38302 0.52734 0.13924 0.0
C485 C 0.35054 0.53117 0.13382 0.0
C486 C 0.41929 0.58137 0.19087 0.0
C487 C 0.39214 0.50517 0.12499 0.0
C488 C 0.50231 0.54175 0.15311 0.0
C489 C 0.47952 0.50248 0.15701 0.0
C490 C 0.48129 0.55872 0.15675 0.0
C491 C 0.43653 0.53542 0.16413 0.0
C492 C 0.41746 0.49854 0.17154 0.0
C493 C 0.43933 0.48229 0.16782 0.0
C494 C 0.50373 0.59896 0.14961 0.0
C495 C 0.3706 0.47354 0.18032 0.0
H496 H 0.35522 0.58244 0.17484 0.0
H497 H 0.33212 0.51751 0.11982 0.0
H498 H 0.40006 0.55867 0.20191 0.0
H499 H 0.45473 0.5917 0.19082 0.0
H500 H 0.41994 0.60628 0.19584 0.0
H501 H 0.37244 0.49555 0.11082 0.0
H502 H 0.42891 0.52387 0.1215 0.0
H503 H 0.38303 0.4788 0.13189 0.0
H504 H 0.534 0.55757 0.14509 0.0
H505 H 0.42203 0.45205 0.17106 0.0
H506 H 0.49536 0.61489 0.15927 0.0
H507 H 0.49102 0.59599 0.13436 0.0
H508 H 0.54137 0.61666 0.14916 0.0
H509 H 0.36552 0.4917 0.19004 0.0
H510 H 0.36491 0.45017 0.18904 0.0
H511 H 0.34456 0.45936 0.16816 0.0
C512 C 0.74377 0.17336 0.48945 0.0
C513 C 0.70392 0.15802 0.47849 0.0
C514 C 0.78411 0.21223 0.48746 0.0
C515 C 0.78512 0.23632 0.47394 0.0
C516 C 0.74467 0.22119 0.4632 0.0
C517 C 0.70475 0.18258 0.4657 0.0
C518 C 0.826 0.22719 0.4995 0.0
C519 C 0.74395 0.24531 0.44841 0.0
C520 C 0.87895 0.34782 0.47246 0.0
C521 C 0.90487 0.35031 0.45646 0.0
C522 C 0.8413 0.31098 0.47914 0.0
C523 C 0.82906 0.27581 0.46951 0.0
C524 C 0.85696 0.27846 0.45419 0.0
C525 C 0.89448 0.31543 0.44803 0.0
C526 C 0.81321 0.30969 0.4958 0.0
C527 C 0.84556 0.24213 0.44335 0.0
H528 H 0.74362 0.15491 0.49949 0.0
H529 H 0.67437 0.17127 0.45711 0.0
H530 H 0.85229 0.23128 0.48954 0.0
H531 H 0.84082 0.2562 0.50696 0.0
H532 H 0.81849 0.20672 0.51092 0.0
H533 H 0.70936 0.23012 0.44193 0.0
H534 H 0.75612 0.27382 0.45559 0.0
H535 H 0.76747 0.25173 0.43616 0.0
H536 H 0.8865 0.37447 0.47904 0.0
H537 H 0.91465 0.31702 0.43584 0.0
H538 H 0.80577 0.28845 0.50669 0.0
H539 H 0.78007 0.29961 0.48974 0.0
H540 H 0.83062 0.3389 0.50364 0.0
H541 H 0.84124 0.22184 0.45404 0.0
H542 H 0.87223 0.24907 0.43268 0.0
H543 H 0.81274 0.22637 0.43505 0.0
C544 C 0.58656 0.74984 0.82004 0.0
C545 C 0.62038 0.75002 0.81077 0.0
C546 C 0.58074 0.77745 0.81575 0.0
C547 C 0.60918 0.8058 0.80177 0.0
C548 C 0.64408 0.80675 0.79277 0.0
C549 C 0.64937 0.77905 0.79743 0.0
C550 C 0.54332 0.77559 0.82577 0.0
C551 C 0.67516 0.83641 0.77776 0.0
C552 C 0.56751 0.84841 0.77154 0.0
C553 C 0.59255 0.88679 0.78003 0.0
C554 C 0.57136 0.8214 0.77895 0.0
C555 C 0.60074 0.83279 0.79541 0.0
C556 C 0.62436 0.87083 0.80472 0.0
C557 C 0.62002 0.89741 0.79691 0.0
C558 C 0.54541 0.78115 0.76859 0.0
C559 C 0.6557 0.884 0.82241 0.0
H560 H 0.56376 0.72742 0.83025 0.0
H561 H 0.67627 0.78008 0.79052 0.0
H562 H 0.55712 0.80488 0.83246 0.0
H563 H 0.5169 0.76704 0.8146 0.0
H564 H 0.52681 0.75415 0.83753 0.0
H565 H 0.70182 0.83433 0.77272 0.0
H566 H 0.65482 0.83186 0.76461 0.0
H567 H 0.6921 0.86655 0.78418 0.0
H568 H 0.54545 0.83968 0.75876 0.0
H569 H 0.6396 0.92702 0.80352 0.0
H570 H 0.52536 0.75817 0.77944 0.0
H571 H 0.56979 0.77768 0.76177 0.0
H572 H 0.52185 0.77603 0.75678 0.0
H573 H 0.63816 0.86195 0.83384 0.0
H574 H 0.66774 0.91277 0.82921 0.0
H575 H 0.68585 0.88662 0.81775 0.0
C576 C 0.79493 0.45599 0.16754 0.0
C577 C 0.82795 0.45114 0.16958 0.0
C578 C 0.75228 0.42598 0.15876 0.0
C579 C 0.74231 0.39012 0.15201 0.0
C580 C 0.7739 0.38377 0.15563 0.0
C581 C 0.81661 0.41452 0.16422 0.0
C582 C 0.71917 0.43376 0.15543 0.0
C583 C 0.76431 0.34577 0.14913 0.0
C584 C 0.61931 0.31861 0.13542 0.0
C585 C 0.62302 0.32989 0.11595 0.0
C586 C 0.65845 0.3347 0.14705 0.0
C587 C 0.70182 0.36225 0.13885 0.0
C588 C 0.70544 0.36861 0.11835 0.0
C589 C 0.66587 0.35229 0.1071 0.0
C590 C 0.65335 0.32567 0.16862 0.0
C591 C 0.75121 0.39667 0.10886 0.0
H592 H 0.80319 0.48392 0.17205 0.0
H593 H 0.84199 0.4105 0.16562 0.0
H594 H 0.71539 0.43492 0.13929 0.0
H595 H 0.68503 0.40965 0.16096 0.0
H596 H 0.73061 0.46186 0.16295 0.0
H597 H 0.78174 0.33962 0.15919 0.0
H598 H 0.72732 0.32052 0.14874 0.0
H599 H 0.7776 0.34822 0.13399 0.0
H600 H 0.58609 0.30037 0.14217 0.0
H601 H 0.6692 0.36096 0.09203 0.0
H602 H 0.65828 0.34985 0.17784 0.0
H603 H 0.67952 0.32334 0.17337 0.0
H604 H 0.61897 0.29797 0.17154 0.0
H605 H 0.76666 0.42719 0.11407 0.0
H606 H 0.7483 0.3943 0.09241 0.0
H607 H 0.77475 0.39108 0.11325 0.0
C608 C 0.41886 0.90056 0.46319 0.0
C609 C 0.45681 0.91447 0.47523 0.0
C610 C 0.3799 0.86059 0.46211 0.0
C611 C 0.37827 0.83356 0.47348 0.0
C612 C 0.41604 0.84757 0.486 0.0
C613 C 0.45475 0.88762 0.48665 0.0
C614 C 0.34084 0.8471 0.44837 0.0
C615 C 0.41591 0.82011 0.4985 0.0
C616 C 0.26048 0.73325 0.47887 0.0
C617 C 0.26064 0.71021 0.46362 0.0
C618 C 0.29895 0.77306 0.48275 0.0
C619 C 0.33854 0.79037 0.47109 0.0
C620 C 0.33948 0.76661 0.45635 0.0
C621 C 0.30091 0.72706 0.45292 0.0
C622 C 0.2966 0.79701 0.49882 0.0
C623 C 0.38065 0.78337 0.44354 0.0
H624 H 0.41982 0.92082 0.4543 0.0
H625 H 0.48357 0.89785 0.49612 0.0
H626 H 0.3363 0.82604 0.43666 0.0
H627 H 0.30864 0.8315 0.45669 0.0
H628 H 0.34642 0.87183 0.44112 0.0
H629 H 0.4464 0.83588 0.50849 0.0
H630 H 0.38488 0.80346 0.50763 0.0
H631 H 0.41503 0.79842 0.48875 0.0
H632 H 0.22962 0.72069 0.48717 0.0
H633 H 0.30179 0.70942 0.44133 0.0
H634 H 0.29671 0.81948 0.49204 0.0
H635 H 0.327 0.81277 0.50884 0.0
H636 H 0.26545 0.77864 0.5078 0.0
H637 H 0.38629 0.80645 0.4346 0.0
H638 H 0.37677 0.7607 0.43328 0.0
H639 H 0.41163 0.79737 0.45296 0.0
C640 C 0.51717 0.27073 0.81398 0.0
C641 C 0.53443 0.29562 0.83124 0.0
C642 C 0.52468 0.24342 0.81034 0.0
C643 C 0.55056 0.24115 0.82418 0.0
C644 C 0.56772 0.26594 0.84175 0.0
C645 C 0.55921 0.29273 0.84513 0.0
C646 C 0.50534 0.2173 0.79151 0.0
C647 C 0.59595 0.26478 0.85673 0.0
C648 C 0.53807 0.14802 0.81846 0.0
C649 C 0.57415 0.15971 0.80586 0.0
C650 C 0.53104 0.1747 0.82534 0.0
C651 C 0.56113 0.21399 0.81964 0.0
C652 C 0.59923 0.22639 0.80793 0.0
C653 C 0.60509 0.19906 0.80109 0.0
C654 C 0.48992 0.16025 0.83771 0.0
C655 C 0.63253 0.26808 0.80174 0.0
H656 H 0.49746 0.27247 0.80334 0.0
H657 H 0.57288 0.3121 0.85843 0.0
H658 H 0.5335 0.22356 0.78212 0.0
H659 H 0.48408 0.18607 0.79511 0.0
H660 H 0.48421 0.22144 0.78273 0.0
H661 H 0.60506 0.28468 0.87004 0.0
H662 H 0.57714 0.23451 0.86152 0.0
H663 H 0.62784 0.27347 0.84981 0.0
H664 H 0.51393 0.11754 0.82203 0.0
H665 H 0.63323 0.2082 0.79147 0.0
H666 H 0.46513 0.15986 0.8289 0.0
H667 H 0.49984 0.18034 0.851 0.0
H668 H 0.47266 0.13023 0.84262 0.0
H669 H 0.61542 0.2738 0.79118 0.0
H670 H 0.66286 0.27403 0.79446 0.0
H671 H 0.64415 0.28904 0.81478 0.0
C672 C 0.62959 0.84572 0.52276 0.0
C673 C 0.60293 0.8467 0.50904 0.0
C674 C 0.622 0.81078 0.52594 0.0
C675 C 0.58718 0.7758 0.51497 0.0
C676 C 0.56097 0.77669 0.50066 0.0
C677 C 0.56901 0.81209 0.49792 0.0
C678 C 0.65072 0.81117 0.54139 0.0
C679 C 0.52379 0.7401 0.48858 0.0
C680 C 0.59706 0.69503 0.51713 0.0
C681 C 0.56886 0.67441 0.5331 0.0
C682 C 0.60129 0.72675 0.51017 0.0
C683 C 0.57693 0.73816 0.51948 0.0
C684 C 0.54618 0.71579 0.53471 0.0
C685 C 0.54236 0.68412 0.54124 0.0
C686 C 0.63389 0.74946 0.49368 0.0
C687 C 0.51944 0.7268 0.54503 0.0
H688 H 0.65658 0.87242 0.53109 0.0
H689 H 0.54799 0.81241 0.48738 0.0
H690 H 0.6286 0.79146 0.55325 0.0
H691 H 0.66782 0.79994 0.53461 0.0
H692 H 0.67717 0.84099 0.5483 0.0
H693 H 0.50907 0.7463 0.47693 0.0
H694 H 0.53724 0.72595 0.48139 0.0
H695 H 0.49603 0.71871 0.49845 0.0
H696 H 0.61772 0.68778 0.51078 0.0
H697 H 0.51975 0.66777 0.5533 0.0
H698 H 0.66447 0.77831 0.49985 0.0
H699 H 0.61787 0.75517 0.48249 0.0
H700 H 0.64513 0.73373 0.48615 0.0
H701 H 0.54318 0.75513 0.55372 0.0
H702 H 0.49392 0.70435 0.55526 0.0
H703 H 0.50151 0.73082 0.534 0.0
C704 C 0.73756 0.55631 0.83836 0.0
C705 C 0.69204 0.52194 0.83453 0.0
C706 C 0.77544 0.55601 0.83922 0.0
C707 C 0.76957 0.52064 0.83567 0.0
C708 C 0.72378 0.48596 0.83138 0.0
C709 C 0.68633 0.48693 0.83112 0.0
C710 C 0.82214 0.59394 0.84442 0.0
C711 C 0.71404 0.44729 0.82696 0.0
C712 C 0.87812 0.52722 0.82416 0.0
C713 C 0.88844 0.51951 0.84239 0.0
C714 C 0.84 0.52704 0.82163 0.0
C715 C 0.81031 0.51961 0.83763 0.0
C716 C 0.82013 0.51125 0.85585 0.0
C717 C 0.85736 0.51054 0.85782 0.0
C718 C 0.83161 0.53509 0.8016 0.0
C719 C 0.79134 0.50343 0.87372 0.0
H720 H 0.74372 0.58382 0.84117 0.0
H721 H 0.65219 0.45984 0.82803 0.0
H722 H 0.83543 0.59109 0.85811 0.0
H723 H 0.84611 0.60049 0.83239 0.0
H724 H 0.82195 0.61906 0.84684 0.0
H725 H 0.6781 0.42363 0.82208 0.0
H726 H 0.73692 0.45028 0.81522 0.0
H727 H 0.72102 0.43834 0.84041 0.0
H728 H 0.9003 0.53407 0.81179 0.0
H729 H 0.86164 0.50252 0.87188 0.0
H730 H 0.83719 0.56312 0.80263 0.0
H731 H 0.79563 0.51164 0.79673 0.0
H732 H 0.8544 0.537 0.79014 0.0
H733 H 0.79058 0.52809 0.87686 0.0
H734 H 0.8042 0.49953 0.8872 0.0
H735 H 0.75572 0.47661 0.87066 0.0
C736 C 0.25794 0.681 0.14384 0.0
C737 C 0.21776 0.66997 0.15288 0.0
C738 C 0.29811 0.72043 0.14453 0.0
C739 C 0.29879 0.74985 0.15486 0.0
C740 C 0.25818 0.73896 0.16383 0.0
C741 C 0.21822 0.69939 0.16258 0.0
C742 C 0.34013 0.73051 0.13446 0.0
C743 C 0.2573 0.76899 0.17531 0.0
C744 C 0.41131 0.84076 0.17766 0.0
C745 C 0.42259 0.87058 0.16548 0.0
C746 C 0.37179 0.80164 0.17417 0.0
C747 C 0.3427 0.79124 0.15775 0.0
C748 C 0.35511 0.82065 0.14468 0.0
C749 C 0.39474 0.85995 0.14873 0.0
C750 C 0.36032 0.77169 0.1886 0.0
C751 C 0.32575 0.81081 0.12674 0.0
H752 H 0.25805 0.65873 0.1361 0.0
H753 H 0.18755 0.69138 0.16964 0.0
H754 H 0.35407 0.75491 0.12457 0.0
H755 H 0.36694 0.74064 0.14576 0.0
H756 H 0.33309 0.70508 0.12557 0.0
H757 H 0.22275 0.75629 0.18074 0.0
H758 H 0.28116 0.78154 0.18826 0.0
H759 H 0.26901 0.79351 0.16588 0.0
H760 H 0.43303 0.84825 0.19038 0.0
H761 H 0.4029 0.88255 0.13922 0.0
H762 H 0.35641 0.74689 0.18065 0.0
H763 H 0.32728 0.75951 0.19563 0.0
H764 H 0.3868 0.7843 0.20048 0.0
H765 H 0.31859 0.78531 0.11791 0.0
H766 H 0.342 0.83586 0.11704 0.0
H767 H 0.29251 0.8024 0.13157 0.0
C768 C 0.53043 0.2278 0.49389 0.0
C769 C 0.54542 0.22287 0.47571 0.0
C770 C 0.5365 0.26227 0.49898 0.0
C771 C 0.55847 0.2928 0.48565 0.0
C772 C 0.5732 0.28783 0.46716 0.0
C773 C 0.56629 0.25282 0.46237 0.0
C774 C 0.51983 0.26617 0.51876 0.0
C775 C 0.59712 0.31981 0.45264 0.0
C776 C 0.54134 0.36908 0.49488 0.0
C777 C 0.57976 0.39787 0.50672 0.0
C778 C 0.53464 0.33525 0.4873 0.0
C779 C 0.56738 0.33035 0.49153 0.0
C780 C 0.60729 0.36029 0.50268 0.0
C781 C 0.61287 0.39356 0.51021 0.0
C782 C 0.4915 0.30392 0.4756 0.0
C783 C 0.64331 0.3565 0.50732 0.0
H784 H 0.51367 0.20451 0.50413 0.0
H785 H 0.57822 0.24926 0.44836 0.0
H786 H 0.5491 0.29092 0.52799 0.0
H787 H 0.49635 0.27285 0.51654 0.0
H788 H 0.50179 0.23913 0.52708 0.0
H789 H 0.60491 0.31082 0.43858 0.0
H790 H 0.57576 0.32817 0.44913 0.0
H791 H 0.62951 0.34634 0.45941 0.0
H792 H 0.51548 0.37214 0.49229 0.0
H793 H 0.64284 0.41597 0.5192 0.0
H794 H 0.47001 0.27725 0.4842 0.0
H795 H 0.49967 0.29554 0.46147 0.0
H796 H 0.47133 0.31354 0.47219 0.0
H797 H 0.62913 0.33209 0.51723 0.0
H798 H 0.67402 0.38374 0.5147 0.0
H799 H 0.6538 0.34935 0.49352 0.0
C800 C 0.40395 0.48531 0.83156 0.0
C801 C 0.44904 0.51898 0.83684 0.0
C802 C 0.36573 0.48526 0.83203 0.0
C803 C 0.37059 0.51923 0.83879 0.0
C804 C 0.41606 0.55326 0.84425 0.0
C805 C 0.45401 0.55295 0.84285 0.0
C806 C 0.31968 0.44836 0.82507 0.0
C807 C 0.42472 0.59025 0.85213 0.0
C808 C 0.2761 0.53205 0.83087 0.0
C809 C 0.25048 0.51867 0.84847 0.0
C810 C 0.31364 0.53142 0.82721 0.0
C811 C 0.3283 0.51826 0.84156 0.0
C812 C 0.3019 0.50404 0.85902 0.0
C813 C 0.2638 0.50349 0.8619 0.0
C814 C 0.33826 0.54572 0.80791 0.0
C815 C 0.31491 0.49049 0.87536 0.0
H816 H 0.39841 0.45866 0.82667 0.0
H817 H 0.48783 0.57946 0.84707 0.0
H818 H 0.29726 0.43442 0.83797 0.0
H819 H 0.30314 0.45537 0.81497 0.0
H820 H 0.32207 0.4268 0.81721 0.0
H821 H 0.46098 0.61381 0.85659 0.0
H822 H 0.41519 0.60114 0.84065 0.0
H823 H 0.40307 0.58397 0.86517 0.0
H824 H 0.2678 0.54417 0.82011 0.0
H825 H 0.24485 0.49191 0.87542 0.0
H826 H 0.34615 0.52659 0.80183 0.0
H827 H 0.37102 0.57573 0.8105 0.0
H828 H 0.31796 0.54672 0.79667 0.0
H829 H 0.3114 0.46439 0.86995 0.0
H830 H 0.29353 0.48284 0.88866 0.0
H831 H 0.35117 0.51386 0.87986 0.0
C832 C 0.94422 0.41366 0.16456 0.0
C833 C 0.97748 0.4247 0.15026 0.0
C834 C 0.90668 0.37406 0.16696 0.0
C835 C 0.90153 0.34407 0.15475 0.0
C836 C 0.9342 0.35494 0.1399 0.0
C837 C 0.97173 0.39499 0.13785 0.0
C838 C 0.8733 0.36432 0.18313 0.0
C839 C 0.92998 0.32415 0.12644 0.0
C840 C 0.83276 0.24646 0.17946 0.0
C841 C 0.78844 0.22669 0.17175 0.0
C842 C 0.87012 0.28343 0.17317 0.0
C843 C 0.86358 0.30163 0.15867 0.0
C844 C 0.81952 0.28061 0.14976 0.0
C845 C 0.78255 0.24336 0.15634 0.0
C846 C 0.91624 0.30399 0.18293 0.0
C847 C 0.81103 0.29777 0.1336 0.0
H848 H 0.94783 0.43603 0.17427 0.0
H849 H 0.9969 0.40295 0.1267 0.0
H850 H 0.83775 0.34271 0.17737 0.0
H851 H 0.87758 0.35078 0.19523 0.0
H852 H 0.87833 0.3907 0.18953 0.0
H853 H 0.95756 0.33717 0.1154 0.0
H854 H 0.93107 0.30433 0.13538 0.0
H855 H 0.89661 0.30591 0.11841 0.0
H856 H 0.83789 0.23361 0.19116 0.0
H857 H 0.74861 0.22835 0.1502 0.0
H858 H 0.92525 0.32951 0.19245 0.0
H859 H 0.9429 0.31534 0.17157 0.0
H860 H 0.91692 0.28438 0.19229 0.0
H861 H 0.8293 0.32952 0.13685 0.0
H862 H 0.77413 0.28261 0.13145 0.0
H863 H 0.82416 0.29461 0.11944 0.0
C864 C 1.0179 0.51445 0.08452 0.0
C865 C 0.05854 0.53516 0.09568 0.0
C866 C 1.01841 0.51279 0.06364 0.0
C867 C 0.06059 0.53274 0.05379 0.0
C868 C 0.10156 0.55294 0.06506 0.0
C869 C 0.09999 0.55367 0.08583 0.0
C870 C 0.97395 0.49046 0.05212 0.0
C871 C 0.14729 0.57494 0.05521 0.0
C872 C 0.06431 0.50948 -0.00112 0.0
C873 C 0.06703 0.53902 0.9901 0.0
C874 C 0.06156 0.50668 0.01959 0.0
C875 C 0.06235 0.5345 0.03177 0.0
C876 C 0.06602 0.56483 0.02294 0.0
C877 C 0.06799 0.56654 0.00223 0.0
C878 C 0.05722 0.47372 0.02843 0.0
C879 C 0.06794 0.59555 0.03539 0.0
H880 H 0.98582 0.49993 0.0921 0.0
H881 H 0.13154 0.5697 0.0944 0.0
H882 H 0.97306 0.5111 0.04387 0.0
H883 H 0.97102 0.46932 0.041 0.0
H884 H 0.94395 0.47419 0.0619 0.0
H885 H 0.17577 0.58774 0.06608 0.0
H886 H 0.14746 0.55516 0.0443 0.0
H887 H 0.15366 0.59901 0.04694 0.0
H888 H 0.06306 0.48793 0.9895 0.0
H889 H 0.07044 0.58957 -0.00454 0.0
H890 H 1.0255 0.45587 0.03707 0.0
H891 H 0.08615 0.4858 0.03887 0.0
H892 H 0.05653 0.45421 0.01692 0.0
H893 H 1.03663 0.58137 0.04426 0.0
H894 H 0.07126 0.61741 0.02624 0.0
H895 H 0.09732 0.61123 0.046 0.0
C896 C 0.64215 0.05779 0.41272 0.0
C897 C 0.60264 0.03895 0.42402 0.0
C898 C 0.64114 0.06314 0.39252 0.0
C899 C 0.59956 0.04924 0.38341 0.0
C900 C 0.55983 0.03127 0.39493 0.0
C901 C 0.56185 0.02632 0.41514 0.0
C902 C 0.68423 0.08247 0.38078 0.0
C903 C 0.51489 0.01615 0.38577 0.0
C904 C 0.60197 0.08304 0.3323 0.0
C905 C 0.59023 0.05097 0.32002 0.0
C906 C 0.60508 0.08299 0.35304 0.0
C907 C 0.59677 0.05032 0.36154 0.0
C908 C 0.58591 0.01832 0.3491 0.0
C909 C 0.5827 0.01903 0.32853 0.0
C910 C 0.61658 0.11754 0.36587 0.0
C911 C 0.5774 0.98315 0.35752 0.0
H912 H 0.67386 0.06792 0.41961 0.0
H913 H 0.53133 0.012 0.42391 0.0
H914 H 0.68009 0.06086 0.36959 0.0
H915 H 0.69091 0.10675 0.3726 0.0
H916 H 0.71444 0.09433 0.39037 0.0
H917 H 0.48817 1.00585 0.39704 0.0
H918 H 0.51914 0.03942 0.3776 0.0
H919 H 0.50287 0.99138 0.37488 0.0
H920 H 0.60758 0.10766 0.32573 0.0
H921 H 0.57429 0.99445 0.31903 0.0
H922 H 0.64742 0.13024 0.37514 0.0
H923 H 0.58827 0.10773 0.37613 0.0
H924 H 0.62272 0.14089 0.35695 0.0
H925 H 0.60771 0.99255 0.36624 0.0
H926 H 0.56975 0.96087 0.34578 0.0
H927 H 0.54831 0.96915 0.36777 0.0
C928 C 0.53552 0.50662 0.76399 0.0
C929 C 0.5689 0.51568 0.77755 0.0
C930 C 0.54524 0.51336 0.74382 0.0
C931 C 0.58903 0.52846 0.73701 0.0
C932 C 0.62325 0.53861 0.75077 0.0
C933 C 0.61292 0.53258 0.77099 0.0
C934 C 0.50819 0.50319 0.72972 0.0
C935 C 0.66999 0.55393 0.74404 0.0
C936 C 0.58966 0.49867 0.68324 0.0
C937 C 0.60668 0.53286 0.67362 0.0
C938 C 0.58568 0.49749 0.70393 0.0
C939 C 0.5977 0.53092 0.71534 0.0
C940 C 0.61551 0.56572 0.70587 0.0
C941 C 0.6204 0.56645 0.68518 0.0
C942 C 0.56736 0.46 0.71352 0.0
C943 C 0.62801 0.60177 0.71751 0.0
H944 H 0.50159 0.49385 0.76915 0.0
H945 H 0.63869 0.53944 0.7815 0.0
H946 H 0.52109 0.52824 0.72047 0.0
H947 H 0.49778 0.47798 0.71952 0.0
H948 H 0.47758 0.49538 0.73763 0.0
H949 H 0.69368 0.56301 0.75672 0.0
H950 H 0.66708 0.53076 0.73472 0.0
H951 H 0.68505 0.57931 0.73475 0.0
H952 H 0.57811 0.47226 0.6746 0.0
H953 H 0.63458 0.59335 0.67807 0.0
H954 H 0.5335 0.44707 0.71986 0.0
H955 H 0.5903 0.46618 0.72592 0.0
H956 H 0.56365 0.43792 0.70283 0.0
H957 H 0.59715 0.59509 0.72457 0.0
H958 H 0.64296 0.62696 0.70803 0.0
H959 H 0.65277 0.6106 0.7296 0.0
C960 C 0.60362 0.05263 0.54184 0.0
C961 C 0.56365 0.04353 0.53402 0.0
C962 C 0.60883 0.0518 0.56229 0.0
C963 C 0.5739 0.04307 0.57525 0.0
C964 C 0.53363 0.03424 0.56741 0.0
C965 C 0.52877 0.03409 0.54685 0.0
C966 C 0.65175 0.06041 0.57001 0.0
C967 C 0.49606 0.0257 0.58077 0.0
C968 C 0.56542 0.01155 0.62756 0.0
C969 C 0.5859 0.04688 0.63893 0.0
C970 C 0.5628 0.01013 0.60675 0.0
C971 C 0.57999 0.04462 0.59709 0.0
C972 C 0.60134 0.08045 0.6084 0.0
C973 C 0.60467 0.08125 0.6291 0.0
C974 C 0.54073 0.97154 0.59514 0.0
C975 C 0.61955 0.1178 0.59868 0.0
H976 H 0.63086 0.06038 0.53197 0.0
H977 H 0.4979 0.02721 0.54085 0.0
H978 H 0.67139 0.08787 0.57961 0.0
H979 H 0.64297 0.03653 0.57927 0.0
H980 H 0.67398 0.06361 0.55784 0.0
H981 H 0.46701 0.01952 0.57233 0.0
H982 H 0.48314 1.00009 0.58955 0.0
H983 H 0.50963 0.0511 0.59146 0.0
H984 H 0.55031 0.98467 0.63489 0.0
H985 H 0.62171 0.10894 0.6376 0.0
H986 H 0.56338 0.97513 0.5831 0.0
H987 H 0.50852 0.96159 0.58803 0.0
H988 H 0.53291 0.94828 0.60467 0.0
H989 H 0.64532 0.12459 0.58755 0.0
H990 H 0.63541 0.14329 0.60959 0.0
H991 H 0.59144 0.11393 0.59068 0.0
C992 C 0.61066 0.52541 0.90169 0.0
C993 C 0.5755 0.51698 0.88956 0.0
C994 C 0.60119 0.50867 0.92008 0.0
C995 C 0.55563 0.48371 0.92661 0.0
C996 C 0.51992 0.47451 0.91418 0.0
C997 C 0.53028 0.49097 0.89567 0.0
C998 C 0.64004 0.51847 0.93274 0.0
C999 C 0.47103 0.44863 0.92077 0.0
C1000 C 0.52275 0.42089 0.97062 0.0
C1001 C 0.52469 0.4446 0.98616 0.0
C1002 C 0.53354 0.43346 0.95115 0.0
C1003 C 0.54576 0.47023 0.94713 0.0
C1004 C 0.54801 0.49431 0.96274 0.0
C1005 C 0.53811 0.48147 0.98204 0.0
C1006 C 0.53168 0.40739 0.93488 0.0
C1007 C 0.5605 0.5336 0.95904 0.0
H1008 H 0.64559 0.54513 0.89679 0.0
H1009 H 0.50308 0.48436 0.88622 0.0
H1010 H 0.64475 0.53658 0.94615 0.0
H1011 H 0.63213 0.49126 0.93785 0.0
H1012 H 0.67266 0.53487 0.92465 0.0
H1013 H 0.44704 0.44258 0.9089 0.0
H1014 H 0.46082 0.42032 0.92537 0.0
H1015 H 0.46759 0.46304 0.93386 0.0
H1016 H 0.51223 0.39231 0.97358 0.0
H1017 H 0.54117 0.50062 0.99398 0.0
H1018 H 0.56485 0.42369 0.92727 0.0
H1019 H 0.50541 0.39856 0.92357 0.0
H1020 H 0.52365 0.38051 0.94061 0.0
H1021 H 0.59523 0.5532 0.9529 0.0
H1022 H 0.55961 0.54833 0.97276 0.0
H1023 H 0.5366 0.52978 0.94789 0.0
C1024 C 0.09163 0.49574 0.21288 0.0
C1025 C 0.10294 0.528 0.20311 0.0
C1026 C 0.08501 0.49363 0.23345 0.0
C1027 C 0.0899 0.52457 0.24443 0.0
C1028 C 0.10026 0.55677 0.23451 0.0
C1029 C 0.10682 0.55815 0.21395 0.0
C1030 C 0.07399 0.45883 0.2435 0.0
C1031 C 0.10572 0.59033 0.24568 0.0
C1032 C 1.04542 0.5113 0.29693 0.0
C1033 C 0.08569 0.53035 0.30823 0.0
C1034 C 1.04597 0.50848 0.27609 0.0
C1035 C 0.08771 0.52487 0.26645 0.0
C1036 C 0.12812 0.543 0.27785 0.0
C1037 C 0.12659 0.54552 0.29858 0.0
C1038 C 1.00224 0.48897 0.26439 0.0
C1039 C 0.17323 0.56051 0.26815 0.0
H1040 H 0.08835 0.47227 0.20447 0.0
H1041 H 0.11584 0.58324 0.20643 0.0
H1042 H 0.10244 0.46861 0.25374 0.0
H1043 H 1.04306 0.44543 0.25256 0.0
H1044 H 0.06832 0.43602 0.23269 0.0
H1045 H 0.11065 0.61177 0.2356 0.0
H1046 H 0.07531 0.57906 0.25478 0.0
H1047 H 0.1356 0.60589 0.256 0.0
H1048 H 1.01379 0.49968 0.30437 0.0
H1049 H 0.15764 0.55965 0.3073 0.0
H1050 H 0.99609 0.46562 0.2539 0.0
H1051 H 1.00513 0.51078 0.2554 0.0
H1052 H 0.97229 0.47587 0.27411 0.0
H1053 H 0.17033 0.5381 0.25812 0.0
H1054 H 0.20114 0.57225 0.27917 0.0
H1055 H 0.18276 0.5847 0.25894 0.0
loop_
_geom_bond_atom_site_label_1
_geom_bond_atom_site_label_2
_geom_bond_distance
_geom_bond_site_symmetry_2
_ccdc_geom_bond_type
Gd0 C3 2.818 . S
Gd0 O20 2.377 . S
Gd0 O22 2.448 . S
Gd0 O23 2.506 . S
Gd0 O24 2.435 . S
Gd0 O25 2.717 . S
Gd0 O27 2.395 1_455 S
Gd0 O31 2.327 . S
Gd1 C12 2.818 1_455 S
Gd1 O21 2.395 . S
Gd1 O25 2.327 . S
Gd1 O26 2.377 1_455 S
Gd1 O28 2.448 1_455 S
Gd1 O29 2.506 1_455 S
Gd1 O30 2.435 . S
Gd1 O31 2.717 . S
C2 O20 1.240 . S
C2 O21 1.240 . S
C3 Gd0 2.818 . S
C3 C4 1.510 . S
C3 O22 1.249 . S
C3 O23 1.252 . S
C4 C3 1.510 . S
C4 C5 1.404 . S
C4 C6 1.352 . S
C5 C4 1.404 . S
C5 C9 1.389 . S
C5 H32 0.930 . S
C6 C4 1.352 . S
C6 C8 1.374 . S
C6 H33 0.931 . S
C7 C8 1.359 . S
C7 C9 1.364 . S
C8 C6 1.374 . S
C8 C7 1.359 . S
C8 H34 0.931 . S
C9 C5 1.389 . S
C9 C7 1.364 . S
C9 H35 0.931 . S
C10 O24 1.256 . S
C10 O25 1.257 . S
C11 O26 1.240 . S
C11 O27 1.240 . S
C12 Gd1 2.818 1_655 S
C12 C13 1.510 . S
C12 O28 1.249 . S
C12 O29 1.252 . S
C13 C12 1.510 . S
C13 C14 1.404 . S
C13 C15 1.352 . S
C14 C13 1.404 . S
C14 C18 1.389 . S
C14 H36 0.930 . S
C15 C13 1.352 . S
C15 C17 1.374 . S
C15 H37 0.931 . S
C16 C17 1.359 . S
C16 C18 1.364 . S
C17 C15 1.374 . S
C17 C16 1.359 . S
C17 H38 0.931 . S
C18 C14 1.389 . S
C18 C16 1.364 . S
C18 H39 0.931 . S
C19 O30 1.256 . S
C19 O31 1.257 . S
O20 Gd0 2.377 . S
O20 C2 1.240 . S
O21 Gd1 2.395 . S
O21 C2 1.240 . S
O22 Gd0 2.448 . S
O22 C3 1.249 . S
O23 Gd0 2.506 . S
O23 C3 1.252 . S
O24 Gd0 2.435 . S
O24 C10 1.256 . S
O25 Gd0 2.717 . S
O25 Gd1 2.327 . S
O25 C10 1.257 . S
O26 Gd1 2.377 1_655 S
O26 C11 1.240 . S
O27 Gd0 2.395 1_655 S
O27 C11 1.240 . S
O28 Gd1 2.448 1_655 S
O28 C12 1.249 . S
O29 Gd1 2.506 1_655 S
O29 C12 1.252 . S
O30 Gd1 2.435 . S
O30 C19 1.256 . S
O31 Gd0 2.327 . S
O31 Gd1 2.717 . S
O31 C19 1.257 . S
H32 C5 0.930 . S
H33 C6 0.931 . S
H34 C8 0.931 . S
H35 C9 0.931 . S
H36 C14 0.930 . S
H37 C15 0.931 . S
H38 C17 0.931 . S
H39 C18 0.931 . S
Gd40 C43 2.818 . S
Gd40 O60 2.377 . S
Gd40 O62 2.448 . S
Gd40 O63 2.506 . S
Gd40 O64 2.435 . S
Gd40 O65 2.717 1_565 S
Gd40 O67 2.395 1_565 S
Gd40 O71 2.327 1_565 S
Gd41 C52 2.818 . S
Gd41 O61 2.395 1_545 S
Gd41 O65 2.327 . S
Gd41 O66 2.377 . S
Gd41 O68 2.448 . S
Gd41 O69 2.506 . S
Gd41 O70 2.435 . S
Gd41 O71 2.717 . S
C42 O60 1.240 . S
C42 O61 1.240 . S
C43 Gd40 2.818 . S
C43 C44 1.510 . S
C43 O62 1.249 . S
C43 O63 1.252 . S
C44 C43 1.510 . S
C44 C45 1.404 . S
C44 C46 1.352 . S
C45 C44 1.404 . S
C45 C49 1.389 . S
C45 H72 0.930 . S
C46 C44 1.352 . S
C46 C48 1.374 . S
C46 H73 0.931 . S
C47 C48 1.359 . S
C47 C49 1.364 . S
C48 C46 1.374 . S
C48 C47 1.359 . S
C48 H74 0.931 . S
C49 C45 1.389 . S
C49 C47 1.364 . S
C49 H75 0.931 . S
C50 O64 1.256 1_545 S
C50 O65 1.257 . S
C51 O66 1.240 . S
C51 O67 1.240 . S
C52 Gd41 2.818 . S
C52 C53 1.510 . S
C52 O68 1.249 . S
C52 O69 1.252 . S
C53 C52 1.510 . S
C53 C54 1.404 . S
C53 C55 1.352 . S
C54 C53 1.404 . S
C54 C58 1.389 . S
C54 H76 0.930 . S
C55 C53 1.352 . S
C55 C57 1.374 . S
C55 H77 0.931 . S
C56 C57 1.359 . S
C56 C58 1.364 . S
C57 C55 1.374 . S
C57 C56 1.359 . S
C57 H78 0.931 . S
C58 C54 1.389 . S
C58 C56 1.364 . S
C58 H79 0.931 . S
C59 O70 1.256 . S
C59 O71 1.257 . S
O60 Gd40 2.377 . S
O60 C42 1.240 . S
O61 Gd41 2.395 1_565 S
O61 C42 1.240 . S
O62 Gd40 2.448 . S
O62 C43 1.249 . S
O63 Gd40 2.506 . S
O63 C43 1.252 . S
O64 Gd40 2.435 . S
O64 C50 1.256 1_565 S
O65 Gd40 2.717 1_545 S
O65 Gd41 2.327 . S
O65 C50 1.257 . S
O66 Gd41 2.377 . S
O66 C51 1.240 . S
O67 Gd40 2.395 1_545 S
O67 C51 1.240 . S
O68 Gd41 2.448 . S
O68 C52 1.249 . S
O69 Gd41 2.506 . S
O69 C52 1.252 . S
O70 Gd41 2.435 . S
O70 C59 1.256 . S
O71 Gd40 2.327 1_545 S
O71 Gd41 2.717 . S
O71 C59 1.257 . S
H72 C45 0.930 . S
H73 C46 0.931 . S
H74 C48 0.931 . S
H75 C49 0.931 . S
H76 C54 0.930 . S
H77 C55 0.931 . S
H78 C57 0.931 . S
H79 C58 0.931 . S
Gd80 C83 2.818 . S
Gd80 O100 2.377 . S
Gd80 O102 2.448 . S
Gd80 O103 2.506 . S
Gd80 O104 2.435 . S
Gd80 O105 2.717 . S
Gd80 O107 2.395 . S
Gd80 O111 2.327 . S
Gd81 C92 2.818 . S
Gd81 O101 2.395 . S
Gd81 O105 2.327 . S
Gd81 O106 2.377 . S
Gd81 O108 2.448 . S
Gd81 O109 2.506 . S
Gd81 O110 2.435 . S
Gd81 O111 2.717 . S
C82 O100 1.240 . S
C82 O101 1.240 . S
C83 Gd80 2.818 . S
C83 C84 1.510 . S
C83 O102 1.249 . S
C83 O103 1.252 . S
C84 C83 1.510 . S
C84 C85 1.404 . S
C84 C86 1.352 . S
C85 C84 1.404 . S
C85 C89 1.389 . S
C85 H112 0.930 . S
C86 C84 1.352 . S
C86 C88 1.374 . S
C86 H113 0.931 . S
C87 C88 1.359 . S
C87 C89 1.364 . S
C88 C86 1.374 . S
C88 C87 1.359 . S
C88 H114 0.931 . S
C89 C85 1.389 . S
C89 C87 1.364 . S
C89 H115 0.931 . S
C90 O104 1.256 . S
C90 O105 1.257 . S
C91 O106 1.240 . S
C91 O107 1.240 . S
C92 Gd81 2.818 . S
C92 C93 1.510 . S
C92 O108 1.249 . S
C92 O109 1.252 . S
C93 C92 1.510 . S
C93 C94 1.404 . S
C93 C95 1.352 . S
C94 C93 1.404 . S
C94 C98 1.389 . S
C94 H116 0.930 . S
C95 C93 1.352 . S
C95 C97 1.374 . S
C95 H117 0.931 . S
C96 C97 1.359 . S
C96 C98 1.364 . S
C97 C95 1.374 . S
C97 C96 1.359 . S
C97 H118 0.931 . S
C98 C94 1.389 . S
C98 C96 1.364 . S
C98 H119 0.931 . S
C99 O110 1.256 . S
C99 O111 1.257 . S
O100 Gd80 2.377 . S
O100 C82 1.240 . S
O101 Gd81 2.395 . S
O101 C82 1.240 . S
O102 Gd80 2.448 . S
O102 C83 1.249 . S
O103 Gd80 2.506 . S
O103 C83 1.252 . S
O104 Gd80 2.435 . S
O104 C90 1.256 . S
O105 Gd80 2.717 . S
O105 Gd81 2.327 . S
O105 C90 1.257 . S
O106 Gd81 2.377 . S
O106 C91 1.240 . S
O107 Gd80 2.395 . S
O107 C91 1.240 . S
O108 Gd81 2.448 . S
O108 C92 1.249 . S
O109 Gd81 2.506 . S
O109 C92 1.252 . S
O110 Gd81 2.435 . S
O110 C99 1.256 . S
O111 Gd80 2.327 . S
O111 Gd81 2.717 . S
O111 C99 1.257 . S
H112 C85 0.930 . S
H113 C86 0.931 . S
H114 C88 0.931 . S
H115 C89 0.931 . S
H116 C94 0.930 . S
H117 C95 0.931 . S
H118 C97 0.931 . S
H119 C98 0.931 . S
C120 C121 1.391 . S
C120 C124 1.391 . S
C120 H162 0.948 . S
C121 C120 1.391 . S
C121 C122 1.391 . S
C122 C121 1.391 . S
C122 H178 0.947 . S
C122 C179 1.392 . S
C123 C124 1.391 . S
C123 C127 1.397 . S
C123 C179 1.419 . S
C124 C120 1.391 . S
C124 C123 1.391 . S
C124 C125 1.399 . S
C125 C124 1.399 . S
C125 C128 1.396 . S
C125 C137 1.453 . S
C125 C138 1.684 . S
H126 C150 0.948 . S
C127 C123 1.397 . S
C127 C128 1.394 . S
C127 C146 1.723 . S
C128 C125 1.396 . S
C128 C127 1.394 . S
C128 C158 1.723 1_545 S
H129 C152 0.947 . S
H130 C153 0.948 . S
H131 C159 0.982 . S
H132 C160 0.979 . S
H133 C160 0.980 . S
H134 C160 0.983 . S
H135 C159 0.979 . S
H136 C159 0.977 . S
C137 C125 1.453 . S
C137 H166 0.982 . S
C137 H167 0.979 . S
C137 H168 0.977 . S
C138 C125 1.684 . S
C138 H163 0.979 . S
C138 H164 0.980 . S
C138 H165 0.983 . S
C139 C140 1.391 . S
C139 C144 1.391 . S
C139 H169 0.948 . S
C140 C139 1.391 . S
C140 C141 1.391 1_545 S
C141 C140 1.391 1_565 S
C141 C142 1.392 . S
C141 H170 0.947 . S
C142 C141 1.392 . S
C142 C143 1.419 1_565 S
C142 H171 0.948 . S
C143 C142 1.419 1_545 S
C143 C144 1.391 . S
C143 C147 1.397 . S
C144 C139 1.391 . S
C144 C143 1.391 . S
C144 C145 1.399 . S
C145 C144 1.399 . S
C145 C146 1.396 . S
C145 C148 1.453 . S
C145 C149 1.684 . S
C146 C127 1.723 . S
C146 C145 1.396 . S
C146 C147 1.394 . S
C147 C143 1.397 . S
C147 C146 1.394 . S
C147 C157 1.723 1_545 S
C148 C145 1.453 . S
C148 H172 0.982 . S
C148 H173 0.979 . S
C148 H174 0.977 . S
C149 C145 1.684 . S
C149 H175 0.979 . S
C149 H176 0.980 . S
C149 H177 0.983 . S
C150 H126 0.948 . S
C150 C151 1.391 . S
C150 C155 1.391 . S
C151 C150 1.391 . S
C151 C152 1.391 . S
C152 H129 0.947 . S
C152 C151 1.391 . S
C152 C153 1.392 . S
C153 H130 0.948 . S
C153 C152 1.392 . S
C153 C154 1.419 . S
C154 C153 1.419 . S
C154 C155 1.391 . S
C154 C158 1.397 . S
C155 C150 1.391 . S
C155 C154 1.391 . S
C155 C156 1.399 . S
C156 C155 1.399 . S
C156 C157 1.396 . S
C156 C159 1.453 . S
C156 C160 1.684 . S
C157 C147 1.723 1_565 S
C157 C156 1.396 . S
C157 C158 1.394 . S
C158 C128 1.723 1_565 S
C158 C154 1.397 . S
C158 C157 1.394 . S
C159 H131 0.982 . S
C159 H135 0.979 . S
C159 H136 0.977 . S
C159 C156 1.453 . S
C160 H132 0.979 . S
C160 H133 0.980 . S
C160 H134 0.983 . S
C160 C156 1.684 . S
H161 C179 0.948 . S
H162 C120 0.948 . S
H163 C138 0.979 . S
H164 C138 0.980 . S
H165 C138 0.983 . S
H166 C137 0.982 . S
H167 C137 0.979 . S
H168 C137 0.977 . S
H169 C139 0.948 . S
H170 C141 0.947 . S
H171 C142 0.948 . S
H172 C148 0.982 . S
H173 C148 0.979 . S
H174 C148 0.977 . S
H175 C149 0.979 . S
H176 C149 0.980 . S
H177 C149 0.983 . S
H178 C122 0.947 . S
C179 C122 1.392 . S
C179 C123 1.419 . S
C179 H161 0.948 . S
C180 C181 1.391 . S
C180 C184 1.391 . S
C180 H222 0.948 . S
C181 C180 1.391 . S
C181 C182 1.391 . S
C182 C181 1.391 . S
C182 H238 0.947 . S
C182 C239 1.392 . S
C183 C184 1.391 . S
C183 C187 1.397 . S
C183 C239 1.419 . S
C184 C180 1.391 . S
C184 C183 1.391 . S
C184 C185 1.399 . S
C185 C184 1.399 . S
C185 C188 1.396 . S
C185 C197 1.453 . S
C185 C198 1.684 . S
H186 C210 0.948 . S
C187 C183 1.397 . S
C187 C188 1.394 . S
C187 C206 1.723 . S
C188 C185 1.396 . S
C188 C187 1.394 . S
C188 C218 1.723 . S
H189 C212 0.947 . S
H190 C213 0.948 . S
H191 C219 0.982 . S
H192 C220 0.979 . S
H193 C220 0.980 . S
H194 C220 0.983 . S
H195 C219 0.979 . S
H196 C219 0.977 . S
C197 C185 1.453 . S
C197 H226 0.982 . S
C197 H227 0.979 . S
C197 H228 0.977 . S
C198 C185 1.684 . S
C198 H223 0.979 . S
C198 H224 0.980 . S
C198 H225 0.983 . S
C199 C200 1.391 . S
C199 C204 1.391 . S
C199 H229 0.948 . S
C200 C199 1.391 . S
C200 C201 1.391 . S
C201 C200 1.391 . S
C201 C202 1.392 . S
C201 H230 0.947 . S
C202 C201 1.392 . S
C202 C203 1.419 . S
C202 H231 0.948 . S
C203 C202 1.419 . S
C203 C204 1.391 . S
C203 C207 1.397 . S
C204 C199 1.391 . S
C204 C203 1.391 . S
C204 C205 1.399 . S
C205 C204 1.399 . S
C205 C206 1.396 . S
C205 C208 1.453 . S
C205 C209 1.684 . S
C206 C187 1.723 . S
C206 C205 1.396 . S
C206 C207 1.394 . S
C207 C203 1.397 . S
C207 C206 1.394 . S
C207 C217 1.723 . S
C208 C205 1.453 . S
C208 H232 0.982 . S
C208 H233 0.979 . S
C208 H234 0.977 . S
C209 C205 1.684 . S
C209 H235 0.979 . S
C209 H236 0.980 . S
C209 H237 0.983 . S
C210 H186 0.948 . S
C210 C211 1.391 . S
C210 C215 1.391 . S
C211 C210 1.391 . S
C211 C212 1.391 . S
C212 H189 0.947 . S
C212 C211 1.391 . S
C212 C213 1.392 . S
C213 H190 0.948 . S
C213 C212 1.392 . S
C213 C214 1.419 . S
C214 C213 1.419 . S
C214 C215 1.391 . S
C214 C218 1.397 . S
C215 C210 1.391 . S
C215 C214 1.391 . S
C215 C216 1.399 . S
C216 C215 1.399 . S
C216 C217 1.396 . S
C216 C219 1.453 . S
C216 C220 1.684 . S
C217 C207 1.723 . S
C217 C216 1.396 . S
C217 C218 1.394 . S
C218 C188 1.723 . S
C218 C214 1.397 . S
C218 C217 1.394 . S
C219 H191 0.982 . S
C219 H195 0.979 . S
C219 H196 0.977 . S
C219 C216 1.453 . S
C220 H192 0.979 . S
C220 H193 0.980 . S
C220 H194 0.983 . S
C220 C216 1.684 . S
H221 C239 0.948 . S
H222 C180 0.948 . S
H223 C198 0.979 . S
H224 C198 0.980 . S
H225 C198 0.983 . S
H226 C197 0.982 . S
H227 C197 0.979 . S
H228 C197 0.977 . S
H229 C199 0.948 . S
H230 C201 0.947 . S
H231 C202 0.948 . S
H232 C208 0.982 . S
H233 C208 0.979 . S
H234 C208 0.977 . S
H235 C209 0.979 . S
H236 C209 0.980 . S
H237 C209 0.983 . S
H238 C182 0.947 . S
C239 C182 1.392 . S
C239 C183 1.419 . S
C239 H221 0.948 . S
C240 C241 1.391 . S
C240 C244 1.391 . S
C240 H282 0.948 . S
C241 C240 1.391 . S
C241 C242 1.391 . S
C242 C241 1.391 . S
C242 H298 0.947 . S
C242 C299 1.392 . S
C243 C244 1.391 . S
C243 C247 1.397 . S
C243 C299 1.419 . S
C244 C240 1.391 . S
C244 C243 1.391 . S
C244 C245 1.399 . S
C245 C244 1.399 . S
C245 C248 1.396 . S
C245 C257 1.453 . S
C245 C258 1.684 . S
H246 C270 0.948 . S
C247 C243 1.397 . S
C247 C248 1.394 . S
C247 C266 1.723 . S
C248 C245 1.396 . S
C248 C247 1.394 . S
C248 C278 1.723 . S
H249 C272 0.947 . S
H250 C273 0.948 . S
H251 C279 0.982 . S
H252 C280 0.979 1_455 S
H253 C280 0.980 . S
H254 C280 0.983 . S
H255 C279 0.979 . S
H256 C279 0.977 . S
C257 C245 1.453 . S
C257 H286 0.982 . S
C257 H287 0.979 . S
C257 H288 0.977 . S
C258 C245 1.684 . S
C258 H283 0.979 . S
C258 H284 0.980 . S
C258 H285 0.983 . S
C259 C260 1.391 . S
C259 C264 1.391 . S
C259 H289 0.948 . S
C260 C259 1.391 . S
C260 C261 1.391 . S
C261 C260 1.391 . S
C261 C262 1.392 . S
C261 H290 0.947 . S
C262 C261 1.392 . S
C262 C263 1.419 . S
C262 H291 0.948 . S
C263 C262 1.419 . S
C263 C264 1.391 . S
C263 C267 1.397 . S
C264 C259 1.391 . S
C264 C263 1.391 . S
C264 C265 1.399 . S
C265 C264 1.399 . S
C265 C266 1.396 . S
C265 C268 1.453 . S
C265 C269 1.684 . S
C266 C247 1.723 . S
C266 C265 1.396 . S
C266 C267 1.394 . S
C267 C263 1.397 . S
C267 C266 1.394 . S
C267 C277 1.723 . S
C268 C265 1.453 . S
C268 H292 0.982 . S
C268 H293 0.979 . S
C268 H294 0.977 . S
C269 C265 1.684 . S
C269 H295 0.979 . S
C269 H296 0.980 . S
C269 H297 0.983 . S
C270 H246 0.948 . S
C270 C271 1.391 . S
C270 C275 1.391 . S
C271 C270 1.391 . S
C271 C272 1.391 . S
C272 H249 0.947 . S
C272 C271 1.391 . S
C272 C273 1.392 1_655 S
C273 H250 0.948 . S
C273 C272 1.392 1_455 S
C273 C274 1.419 . S
C274 C273 1.419 . S
C274 C275 1.391 1_455 S
C274 C278 1.397 . S
C275 C270 1.391 . S
C275 C274 1.391 1_655 S
C275 C276 1.399 . S
C276 C275 1.399 . S
C276 C277 1.396 1_655 S
C276 C279 1.453 . S
C276 C280 1.684 . S
C277 C267 1.723 . S
C277 C276 1.396 1_455 S
C277 C278 1.394 . S
C278 C248 1.723 . S
C278 C274 1.397 . S
C278 C277 1.394 . S
C279 H251 0.982 . S
C279 H255 0.979 . S
C279 H256 0.977 . S
C279 C276 1.453 . S
C280 H252 0.979 1_655 S
C280 H253 0.980 . S
C280 H254 0.983 . S
C280 C276 1.684 . S
H281 C299 0.948 . S
H282 C240 0.948 . S
H283 C258 0.979 . S
H284 C258 0.980 . S
H285 C258 0.983 . S
H286 C257 0.982 . S
H287 C257 0.979 . S
H288 C257 0.977 . S
H289 C259 0.948 . S
H290 C261 0.947 . S
H291 C262 0.948 . S
H292 C268 0.982 . S
H293 C268 0.979 . S
H294 C268 0.977 . S
H295 C269 0.979 . S
H296 C269 0.980 . S
H297 C269 0.983 . S
H298 C242 0.947 . S
C299 C242 1.392 . S
C299 C243 1.419 . S
C299 H281 0.948 . S
C300 C301 1.391 . S
C300 C304 1.391 . S
C300 H342 0.948 . S
C301 C300 1.391 . S
C301 C302 1.391 . S
C302 C301 1.391 . S
C302 H358 0.947 . S
C302 C359 1.392 . S
C303 C304 1.391 . S
C303 C307 1.397 . S
C303 C359 1.419 . S
C304 C300 1.391 . S
C304 C303 1.391 . S
C304 C305 1.399 . S
C305 C304 1.399 . S
C305 C308 1.396 . S
C305 C317 1.453 . S
C305 C318 1.684 . S
H306 C330 0.948 . S
C307 C303 1.397 . S
C307 C308 1.394 . S
C307 C326 1.723 . S
C308 C305 1.396 . S
C308 C307 1.394 . S
C308 C338 1.723 1_655 S
H309 C332 0.947 . S
H310 C333 0.948 . S
H311 C339 0.982 . S
H312 C340 0.979 . S
H313 C340 0.980 . S
H314 C340 0.983 . S
H315 C339 0.979 . S
H316 C339 0.977 . S
C317 C305 1.453 . S
C317 H346 0.982 1_655 S
C317 H347 0.979 . S
C317 H348 0.977 1_655 S
C318 C305 1.684 . S
C318 H343 0.979 . S
C318 H344 0.980 . S
C318 H345 0.983 . S
C319 C320 1.391 1_655 S
C319 C324 1.391 . S
C319 H349 0.948 . S
C320 C319 1.391 1_455 S
C320 C321 1.391 . S
C321 C320 1.391 . S
C321 C322 1.392 . S
C321 H350 0.947 . S
C322 C321 1.392 . S
C322 C323 1.419 . S
C322 H351 0.948 . S
C323 C322 1.419 . S
C323 C324 1.391 1_455 S
C323 C327 1.397 . S
C324 C319 1.391 . S
C324 C323 1.391 1_655 S
C324 C325 1.399 . S
C325 C324 1.399 . S
C325 C326 1.396 . S
C325 C328 1.453 . S
C325 C329 1.684 . S
C326 C307 1.723 . S
C326 C325 1.396 . S
C326 C327 1.394 1_655 S
C327 C323 1.397 . S
C327 C326 1.394 1_455 S
C327 C337 1.723 . S
C328 C325 1.453 . S
C328 H352 0.982 . S
C328 H353 0.979 . S
C328 H354 0.977 . S
C329 C325 1.684 . S
C329 H355 0.979 . S
C329 H356 0.980 . S
C329 H357 0.983 . S
C330 H306 0.948 . S
C330 C331 1.391 . S
C330 C335 1.391 . S
C331 C330 1.391 . S
C331 C332 1.391 . S
C332 H309 0.947 . S
C332 C331 1.391 . S
C332 C333 1.392 . S
C333 H310 0.948 . S
C333 C332 1.392 . S
C333 C334 1.419 . S
C334 C333 1.419 . S
C334 C335 1.391 . S
C334 C338 1.397 . S
C335 C330 1.391 . S
C335 C334 1.391 . S
C335 C336 1.399 . S
C336 C335 1.399 . S
C336 C337 1.396 . S
C336 C339 1.453 . S
C336 C340 1.684 . S
C337 C327 1.723 . S
C337 C336 1.396 . S
C337 C338 1.394 . S
C338 C308 1.723 1_455 S
C338 C334 1.397 . S
C338 C337 1.394 . S
C339 H311 0.982 . S
C339 H315 0.979 . S
C339 H316 0.977 . S
C339 C336 1.453 . S
C340 H312 0.979 . S
C340 H313 0.980 . S
C340 H314 0.983 . S
C340 C336 1.684 . S
H341 C359 0.948 . S
H342 C300 0.948 . S
H343 C318 0.979 . S
H344 C318 0.980 . S
H345 C318 0.983 . S
H346 C317 0.982 1_455 S
H347 C317 0.979 . S
H348 C317 0.977 1_455 S
H349 C319 0.948 . S
H350 C321 0.947 . S
H351 C322 0.948 . S
H352 C328 0.982 . S
H353 C328 0.979 . S
H354 C328 0.977 . S
H355 C329 0.979 . S
H356 C329 0.980 . S
H357 C329 0.983 . S
H358 C302 0.947 . S
C359 C302 1.392 . S
C359 C303 1.419 . S
C359 H341 0.948 . S
C360 C361 1.391 . S
C360 C364 1.391 . S
C360 H402 0.948 . S
C361 C360 1.391 . S
C361 C362 1.391 . S
C362 C361 1.391 . S
C362 H418 0.947 . S
C362 C419 1.392 . S
C363 C364 1.391 . S
C363 C367 1.397 . S
C363 C419 1.419 . S
C364 C360 1.391 . S
C364 C363 1.391 . S
C364 C365 1.399 . S
C365 C364 1.399 . S
C365 C368 1.396 . S
C365 C377 1.453 1_565 S
C365 C378 1.684 . S
H366 C390 0.948 . S
C367 C363 1.397 . S
C367 C368 1.394 . S
C367 C386 1.723 . S
C368 C365 1.396 . S
C368 C367 1.394 . S
C368 C398 1.723 1_565 S
H369 C392 0.947 . S
H370 C393 0.948 . S
H371 C399 0.982 . S
H372 C400 0.979 . S
H373 C400 0.980 . S
H374 C400 0.983 . S
H375 C399 0.979 . S
H376 C399 0.977 . S
C377 C365 1.453 1_545 S
C377 H406 0.982 . S
C377 H407 0.971 1_545 S
C377 H408 0.977 . S
C378 C365 1.684 . S
C378 H403 0.979 . S
C378 H404 0.980 . S
C378 H405 0.983 . S
C379 C380 1.391 . S
C379 C384 1.391 . S
C379 H409 0.948 . S
C380 C379 1.391 . S
C380 C381 1.391 1_565 S
C381 C380 1.391 1_545 S
C381 C382 1.392 . S
C381 H410 0.947 . S
C382 C381 1.392 . S
C382 C383 1.419 . S
C382 H411 0.948 . S
C383 C382 1.419 . S
C383 C384 1.391 1_545 S
C383 C387 1.397 . S
C384 C379 1.391 . S
C384 C383 1.391 1_565 S
C384 C385 1.399 . S
C385 C384 1.399 . S
C385 C386 1.396 . S
C385 C388 1.453 . S
C385 C389 1.684 . S
C386 C367 1.723 . S
C386 C385 1.396 . S
C386 C387 1.394 1_565 S
C387 C383 1.397 . S
C387 C386 1.394 1_545 S
C387 C397 1.723 . S
C388 C385 1.453 . S
C388 H412 0.982 . S
C388 H413 0.979 . S
C388 H414 0.977 . S
C389 C385 1.684 . S
C389 H415 0.979 . S
C389 H416 0.980 . S
C389 H417 0.983 . S
C390 H366 0.948 . S
C390 C391 1.391 . S
C390 C395 1.391 . S
C391 C390 1.391 . S
C391 C392 1.391 . S
C392 H369 0.947 . S
C392 C391 1.391 . S
C392 C393 1.392 . S
C393 H370 0.948 . S
C393 C392 1.392 . S
C393 C394 1.419 . S
C394 C393 1.419 . S
C394 C395 1.391 . S
C394 C398 1.397 . S
C395 C390 1.391 . S
C395 C394 1.391 . S
C395 C396 1.399 . S
C396 C395 1.399 . S
C396 C397 1.396 . S
C396 C399 1.453 . S
C396 C400 1.684 . S
C397 C387 1.723 . S
C397 C396 1.396 . S
C397 C398 1.394 . S
C398 C368 1.723 1_545 S
C398 C394 1.397 . S
C398 C397 1.394 . S
C399 H371 0.982 . S
C399 H375 0.979 . S
C399 H376 0.977 . S
C399 C396 1.453 . S
C400 H372 0.979 . S
C400 H373 0.980 . S
C400 H374 0.983 . S
C400 C396 1.684 . S
H401 C419 0.948 . S
H402 C360 0.948 . S
H403 C378 0.979 . S
H404 C378 0.980 . S
H405 C378 0.983 . S
H406 C377 0.982 . S
H407 C377 0.971 1_565 S
H408 C377 0.977 . S
H409 C379 0.948 . S
H410 C381 0.947 . S
H411 C382 0.948 . S
H412 C388 0.982 . S
H413 C388 0.979 . S
H414 C388 0.977 . S
H415 C389 0.979 . S
H416 C389 0.980 . S
H417 C389 0.983 . S
H418 C362 0.947 . S
C419 C362 1.392 . S
C419 C363 1.419 . S
C419 H401 0.948 . S
C420 C421 1.391 . S
C420 C424 1.391 . S
C420 H462 0.948 . S
C421 C420 1.391 . S
C421 C422 1.391 . S
C422 C421 1.391 . S
C422 H478 0.947 . S
C422 C479 1.392 . S
C423 C424 1.391 . S
C423 C427 1.397 . S
C423 C479 1.419 . S
C424 C420 1.391 . S
C424 C423 1.391 . S
C424 C425 1.399 . S
C425 C424 1.399 . S
C425 C428 1.396 . S
C425 C437 1.453 . S
C425 C438 1.684 . S
H426 C450 0.948 . S
C427 C423 1.397 . S
C427 C428 1.394 . S
C427 C446 1.723 . S
C428 C425 1.396 . S
C428 C427 1.394 . S
C428 C458 1.723 . S
H429 C452 0.947 . S
H430 C453 0.948 . S
H431 C459 0.982 . S
H432 C460 0.979 . S
H433 C460 0.980 . S
H434 C460 0.983 . S
H435 C459 0.979 . S
H436 C459 0.977 . S
C437 C425 1.453 . S
C437 H466 0.982 . S
C437 H467 0.979 . S
C437 H468 0.977 . S
C438 C425 1.684 . S
C438 H463 0.979 . S
C438 H464 0.980 . S
C438 H465 0.983 . S
C439 C440 1.391 . S
C439 C444 1.391 . S
C439 H469 0.948 . S
C440 C439 1.391 . S
C440 C441 1.391 . S
C441 C440 1.391 . S
C441 C442 1.392 . S
C441 H470 0.947 . S
C442 C441 1.392 . S
C442 C443 1.419 . S
C442 H471 0.948 . S
C443 C442 1.419 . S
C443 C444 1.391 . S
C443 C447 1.397 . S
C444 C439 1.391 . S
C444 C443 1.391 . S
C444 C445 1.399 . S
C445 C444 1.399 . S
C445 C446 1.396 . S
C445 C448 1.453 . S
C445 C449 1.684 . S
C446 C427 1.723 . S
C446 C445 1.396 . S
C446 C447 1.394 . S
C447 C443 1.397 . S
C447 C446 1.394 . S
C447 C457 1.723 . S
C448 C445 1.453 . S
C448 H472 0.982 . S
C448 H473 0.979 . S
C448 H474 0.977 . S
C449 C445 1.684 . S
C449 H475 0.979 . S
C449 H476 0.980 . S
C449 H477 0.983 . S
C450 H426 0.948 . S
C450 C451 1.391 . S
C450 C455 1.391 . S
C451 C450 1.391 . S
C451 C452 1.391 . S
C452 H429 0.947 . S
C452 C451 1.391 . S
C452 C453 1.392 . S
C453 H430 0.948 . S
C453 C452 1.392 . S
C453 C454 1.419 . S
C454 C453 1.419 . S
C454 C455 1.391 . S
C454 C458 1.397 . S
C455 C450 1.391 . S
C455 C454 1.391 . S
C455 C456 1.399 . S
C456 C455 1.399 . S
C456 C457 1.396 . S
C456 C459 1.453 . S
C456 C460 1.684 . S
C457 C447 1.723 . S
C457 C456 1.396 . S
C457 C458 1.394 . S
C458 C428 1.723 . S
C458 C454 1.397 . S
C458 C457 1.394 . S
C459 H431 0.982 . S
C459 H435 0.979 . S
C459 H436 0.977 . S
C459 C456 1.453 . S
C460 H432 0.979 . S
C460 H433 0.980 . S
C460 H434 0.983 . S
C460 C456 1.684 . S
H461 C479 0.948 . S
H462 C420 0.948 . S
H463 C438 0.979 . S
H464 C438 0.980 . S
H465 C438 0.983 . S
H466 C437 0.982 . S
H467 C437 0.979 . S
H468 C437 0.977 . S
H469 C439 0.948 . S
H470 C441 0.947 . S
H471 C442 0.948 . S
H472 C448 0.982 . S
H473 C448 0.979 . S
H474 C448 0.977 . S
H475 C449 0.979 . S
H476 C449 0.980 . S
H477 C449 0.983 . S
H478 C422 0.947 . S
C479 C422 1.392 . S
C479 C423 1.419 . S
C479 H461 0.948 . S
C480 C481 1.391 . S
C480 C482 1.394 . S
C480 H496 0.931 . S
C481 C480 1.391 . S
C481 C485 1.376 . S
C482 C480 1.394 . S
C482 C483 1.369 . S
C482 C486 1.531 . S
C483 C482 1.369 . S
C483 C484 1.410 . S
C483 C491 1.503 . S
C484 C483 1.410 . S
C484 C485 1.392 . S
C484 C487 1.511 . S
C485 C481 1.376 . S
C485 C484 1.392 . S
C485 H497 0.929 . S
C486 C482 1.531 . S
C486 H498 0.960 . S
C486 H499 0.962 . S
C486 H500 0.960 . S
C487 C484 1.511 . S
C487 H501 0.961 . S
C487 H502 0.961 . S
C487 H503 0.961 . S
C488 C489 1.370 . S
C488 C490 1.363 . S
C488 H504 0.931 . S
C489 C488 1.370 . S
C489 C493 1.408 . S
C490 C488 1.363 . S
C490 C491 1.370 . S
C490 C494 1.524 . S
C491 C483 1.503 . S
C491 C490 1.370 . S
C491 C492 1.403 . S
C492 C491 1.403 . S
C492 C493 1.404 . S
C492 C495 1.539 . S
C493 C489 1.408 . S
C493 C492 1.404 . S
C493 H505 0.930 . S
C494 C490 1.524 . S
C494 H506 0.956 . S
C494 H507 0.961 . S
C494 H508 0.961 . S
C495 C492 1.539 . S
C495 H509 0.958 . S
C495 H510 0.961 . S
C495 H511 0.960 . S
H496 C480 0.931 . S
H497 C485 0.929 . S
H498 C486 0.960 . S
H499 C486 0.962 . S
H500 C486 0.960 . S
H501 C487 0.961 . S
H502 C487 0.961 . S
H503 C487 0.961 . S
H504 C488 0.931 . S
H505 C493 0.930 . S
H506 C494 0.956 . S
H507 C494 0.961 . S
H508 C494 0.961 . S
H509 C495 0.958 . S
H510 C495 0.961 . S
H511 C495 0.960 . S
C512 C513 1.391 . S
C512 C514 1.394 . S
C512 H528 0.931 . S
C513 C512 1.391 . S
C513 C517 1.376 . S
C514 C512 1.394 . S
C514 C515 1.369 . S
C514 C518 1.531 . S
C515 C514 1.369 . S
C515 C516 1.410 . S
C515 C523 1.503 . S
C516 C515 1.410 . S
C516 C517 1.392 . S
C516 C519 1.511 . S
C517 C513 1.376 . S
C517 C516 1.392 . S
C517 H529 0.929 . S
C518 C514 1.531 . S
C518 H530 0.960 . S
C518 H531 0.962 . S
C518 H532 0.960 . S
C519 C516 1.511 . S
C519 H533 0.961 . S
C519 H534 0.961 . S
C519 H535 0.961 . S
C520 C521 1.370 . S
C520 C522 1.363 . S
C520 H536 0.931 . S
C521 C520 1.370 . S
C521 C525 1.408 . S
C522 C520 1.363 . S
C522 C523 1.370 . S
C522 C526 1.524 . S
C523 C515 1.503 . S
C523 C522 1.370 . S
C523 C524 1.403 . S
C524 C523 1.403 . S
C524 C525 1.404 . S
C524 C527 1.539 . S
C525 C521 1.408 . S
C525 C524 1.404 . S
C525 H537 0.930 . S
C526 C522 1.524 . S
C526 H538 0.956 . S
C526 H539 0.961 . S
C526 H540 0.961 . S
C527 C524 1.539 . S
C527 H541 0.958 . S
C527 H542 0.961 . S
C527 H543 0.960 . S
H528 C512 0.931 . S
H529 C517 0.929 . S
H530 C518 0.960 . S
H531 C518 0.962 . S
H532 C518 0.960 . S
H533 C519 0.961 . S
H534 C519 0.961 . S
H535 C519 0.961 . S
H536 C520 0.931 . S
H537 C525 0.930 . S
H538 C526 0.956 . S
H539 C526 0.961 . S
H540 C526 0.961 . S
H541 C527 0.958 . S
H542 C527 0.961 . S
H543 C527 0.960 . S
C544 C545 1.391 . S
C544 C546 1.394 . S
C544 H560 0.931 . S
C545 C544 1.391 . S
C545 C549 1.376 . S
C546 C544 1.394 . S
C546 C547 1.369 . S
C546 C550 1.531 . S
C547 C546 1.369 . S
C547 C548 1.410 . S
C547 C555 1.503 . S
C548 C547 1.410 . S
C548 C549 1.392 . S
C548 C551 1.511 . S
C549 C545 1.376 . S
C549 C548 1.392 . S
C549 H561 0.929 . S
C550 C546 1.531 . S
C550 H562 0.960 . S
C550 H563 0.962 . S
C550 H564 0.960 . S
C551 C548 1.511 . S
C551 H565 0.961 . S
C551 H566 0.961 . S
C551 H567 0.961 . S
C552 C553 1.370 . S
C552 C554 1.363 . S
C552 H568 0.931 . S
C553 C552 1.370 . S
C553 C557 1.408 . S
C554 C552 1.363 . S
C554 C555 1.370 . S
C554 C558 1.524 . S
C555 C547 1.503 . S
C555 C554 1.370 . S
C555 C556 1.403 . S
C556 C555 1.403 . S
C556 C557 1.404 . S
C556 C559 1.539 . S
C557 C553 1.408 . S
C557 C556 1.404 . S
C557 H569 0.930 . S
C558 C554 1.524 . S
C558 H570 0.956 . S
C558 H571 0.961 . S
C558 H572 0.961 . S
C559 C556 1.539 . S
C559 H573 0.958 . S
C559 H574 0.961 . S
C559 H575 0.960 . S
H560 C544 0.931 . S
H561 C549 0.929 . S
H562 C550 0.960 . S
H563 C550 0.962 . S
H564 C550 0.960 . S
H565 C551 0.961 . S
H566 C551 0.961 . S
H567 C551 0.961 . S
H568 C552 0.931 . S
H569 C557 0.930 . S
H570 C558 0.956 . S
H571 C558 0.961 . S
H572 C558 0.961 . S
H573 C559 0.958 . S
H574 C559 0.961 . S
H575 C559 0.960 . S
C576 C577 1.391 . S
C576 C578 1.394 . S
C576 H592 0.931 . S
C577 C576 1.391 . S
C577 C581 1.376 . S
C578 C576 1.394 . S
C578 C579 1.369 . S
C578 C582 1.531 . S
C579 C578 1.369 . S
C579 C580 1.410 . S
C579 C587 1.503 . S
C580 C579 1.410 . S
C580 C581 1.392 . S
C580 C583 1.511 . S
C581 C577 1.376 . S
C581 C580 1.392 . S
C581 H593 0.929 . S
C582 C578 1.531 . S
C582 H594 0.960 . S
C582 H595 0.962 . S
C582 H596 0.960 . S
C583 C580 1.511 . S
C583 H597 0.961 . S
C583 H598 0.961 . S
C583 H599 0.961 . S
C584 C585 1.370 . S
C584 C586 1.363 . S
C584 H600 0.931 . S
C585 C584 1.370 . S
C585 C589 1.408 . S
C586 C584 1.363 . S
C586 C587 1.370 . S
C586 C590 1.524 . S
C587 C579 1.503 . S
C587 C586 1.370 . S
C587 C588 1.403 . S
C588 C587 1.403 . S
C588 C589 1.404 . S
C588 C591 1.539 . S
C589 C585 1.408 . S
C589 C588 1.404 . S
C589 H601 0.930 . S
C590 C586 1.524 . S
C590 H602 0.956 . S
C590 H603 0.961 . S
C590 H604 0.961 . S
C591 C588 1.539 . S
C591 H605 0.958 . S
C591 H606 0.961 . S
C591 H607 0.960 . S
H592 C576 0.931 . S
H593 C581 0.929 . S
H594 C582 0.960 . S
H595 C582 0.962 . S
H596 C582 0.960 . S
H597 C583 0.961 . S
H598 C583 0.961 . S
H599 C583 0.961 . S
H600 C584 0.931 . S
H601 C589 0.930 . S
H602 C590 0.956 . S
H603 C590 0.961 . S
H604 C590 0.961 . S
H605 C591 0.958 . S
H606 C591 0.961 . S
H607 C591 0.960 . S
C608 C609 1.391 . S
C608 C610 1.394 . S
C608 H624 0.931 . S
C609 C608 1.391 . S
C609 C613 1.376 . S
C610 C608 1.394 . S
C610 C611 1.369 . S
C610 C614 1.531 . S
C611 C610 1.369 . S
C611 C612 1.410 . S
C611 C619 1.503 . S
C612 C611 1.410 . S
C612 C613 1.392 . S
C612 C615 1.511 . S
C613 C609 1.376 . S
C613 C612 1.392 . S
C613 H625 0.929 . S
C614 C610 1.531 . S
C614 H626 0.960 . S
C614 H627 0.962 . S
C614 H628 0.960 . S
C615 C612 1.511 . S
C615 H629 0.961 . S
C615 H630 0.961 . S
C615 H631 0.961 . S
C616 C617 1.370 . S
C616 C618 1.363 . S
C616 H632 0.931 . S
C617 C616 1.370 . S
C617 C621 1.408 . S
C618 C616 1.363 . S
C618 C619 1.370 . S
C618 C622 1.524 . S
C619 C611 1.503 . S
C619 C618 1.370 . S
C619 C620 1.403 . S
C620 C619 1.403 . S
C620 C621 1.404 . S
C620 C623 1.539 . S
C621 C617 1.408 . S
C621 C620 1.404 . S
C621 H633 0.930 . S
C622 C618 1.524 . S
C622 H634 0.956 . S
C622 H635 0.961 . S
C622 H636 0.961 . S
C623 C620 1.539 . S
C623 H637 0.958 . S
C623 H638 0.961 . S
C623 H639 0.960 . S
H624 C608 0.931 . S
H625 C613 0.929 . S
H626 C614 0.960 . S
H627 C614 0.962 . S
H628 C614 0.960 . S
H629 C615 0.961 . S
H630 C615 0.961 . S
H631 C615 0.961 . S
H632 C616 0.931 . S
H633 C621 0.930 . S
H634 C622 0.956 . S
H635 C622 0.961 . S
H636 C622 0.961 . S
H637 C623 0.958 . S
H638 C623 0.961 . S
H639 C623 0.960 . S
C640 C641 1.391 . S
C640 C642 1.394 . S
C640 H656 0.931 . S
C641 C640 1.391 . S
C641 C645 1.376 . S
C642 C640 1.394 . S
C642 C643 1.369 . S
C642 C646 1.531 . S
C643 C642 1.369 . S
C643 C644 1.410 . S
C643 C651 1.503 . S
C644 C643 1.410 . S
C644 C645 1.392 . S
C644 C647 1.511 . S
C645 C641 1.376 . S
C645 C644 1.392 . S
C645 H657 0.929 . S
C646 C642 1.531 . S
C646 H658 0.960 . S
C646 H659 0.962 . S
C646 H660 0.960 . S
C647 C644 1.511 . S
C647 H661 0.961 . S
C647 H662 0.961 . S
C647 H663 0.961 . S
C648 C649 1.370 . S
C648 C650 1.363 . S
C648 H664 0.931 . S
C649 C648 1.370 . S
C649 C653 1.408 . S
C650 C648 1.363 . S
C650 C651 1.370 . S
C650 C654 1.524 . S
C651 C643 1.503 . S
C651 C650 1.370 . S
C651 C652 1.403 . S
C652 C651 1.403 . S
C652 C653 1.404 . S
C652 C655 1.539 . S
C653 C649 1.408 . S
C653 C652 1.404 . S
C653 H665 0.930 . S
C654 C650 1.524 . S
C654 H666 0.956 . S
C654 H667 0.961 . S
C654 H668 0.961 . S
C655 C652 1.539 . S
C655 H669 0.958 . S
C655 H670 0.961 . S
C655 H671 0.960 . S
H656 C640 0.931 . S
H657 C645 0.929 . S
H658 C646 0.960 . S
H659 C646 0.962 . S
H660 C646 0.960 . S
H661 C647 0.961 . S
H662 C647 0.961 . S
H663 C647 0.961 . S
H664 C648 0.931 . S
H665 C653 0.930 . S
H666 C654 0.956 . S
H667 C654 0.961 . S
H668 C654 0.961 . S
H669 C655 0.958 . S
H670 C655 0.961 . S
H671 C655 0.960 . S
C672 C673 1.391 . S
C672 C674 1.394 . S
C672 H688 0.931 . S
C673 C672 1.391 . S
C673 C677 1.376 . S
C674 C672 1.394 . S
C674 C675 1.369 . S
C674 C678 1.531 . S
C675 C674 1.369 . S
C675 C676 1.410 . S
C675 C683 1.503 . S
C676 C675 1.410 . S
C676 C677 1.392 . S
C676 C679 1.511 . S
C677 C673 1.376 . S
C677 C676 1.392 . S
C677 H689 0.929 . S
C678 C674 1.531 . S
C678 H690 0.960 . S
C678 H691 0.962 . S
C678 H692 0.960 . S
C679 C676 1.511 . S
C679 H693 0.961 . S
C679 H694 0.961 . S
C679 H695 0.961 . S
C680 C681 1.370 . S
C680 C682 1.363 . S
C680 H696 0.931 . S
C681 C680 1.370 . S
C681 C685 1.408 . S
C682 C680 1.363 . S
C682 C683 1.370 . S
C682 C686 1.524 . S
C683 C675 1.503 . S
C683 C682 1.370 . S
C683 C684 1.403 . S
C684 C683 1.403 . S
C684 C685 1.404 . S
C684 C687 1.539 . S
C685 C681 1.408 . S
C685 C684 1.404 . S
C685 H697 0.930 . S
C686 C682 1.524 . S
C686 H698 0.956 . S
C686 H699 0.961 . S
C686 H700 0.961 . S
C687 C684 1.539 . S
C687 H701 0.958 . S
C687 H702 0.961 . S
C687 H703 0.960 . S
H688 C672 0.931 . S
H689 C677 0.929 . S
H690 C678 0.960 . S
H691 C678 0.962 . S
H692 C678 0.960 . S
H693 C679 0.961 . S
H694 C679 0.961 . S
H695 C679 0.961 . S
H696 C680 0.931 . S
H697 C685 0.930 . S
H698 C686 0.956 . S
H699 C686 0.961 . S
H700 C686 0.961 . S
H701 C687 0.958 . S
H702 C687 0.961 . S
H703 C687 0.960 . S
C704 C705 1.391 . S
C704 C706 1.394 . S
C704 H720 0.931 . S
C705 C704 1.391 . S
C705 C709 1.376 . S
C706 C704 1.394 . S
C706 C707 1.369 . S
C706 C710 1.531 . S
C707 C706 1.369 . S
C707 C708 1.410 . S
C707 C715 1.503 . S
C708 C707 1.410 . S
C708 C709 1.392 . S
C708 C711 1.511 . S
C709 C705 1.376 . S
C709 C708 1.392 . S
C709 H721 0.929 . S
C710 C706 1.531 . S
C710 H722 0.960 . S
C710 H723 0.962 . S
C710 H724 0.960 . S
C711 C708 1.511 . S
C711 H725 0.961 . S
C711 H726 0.961 . S
C711 H727 0.961 . S
C712 C713 1.370 . S
C712 C714 1.363 . S
C712 H728 0.931 . S
C713 C712 1.370 . S
C713 C717 1.408 . S
C714 C712 1.363 . S
C714 C715 1.370 . S
C714 C718 1.524 . S
C715 C707 1.503 . S
C715 C714 1.370 . S
C715 C716 1.403 . S
C716 C715 1.403 . S
C716 C717 1.404 . S
C716 C719 1.539 . S
C717 C713 1.408 . S
C717 C716 1.404 . S
C717 H729 0.930 . S
C718 C714 1.524 . S
C718 H730 0.956 . S
C718 H731 0.961 . S
C718 H732 0.961 . S
C719 C716 1.539 . S
C719 H733 0.958 . S
C719 H734 0.961 . S
C719 H735 0.960 . S
H720 C704 0.931 . S
H721 C709 0.929 . S
H722 C710 0.960 . S
H723 C710 0.962 . S
H724 C710 0.960 . S
H725 C711 0.961 . S
H726 C711 0.961 . S
H727 C711 0.961 . S
H728 C712 0.931 . S
H729 C717 0.930 . S
H730 C718 0.956 . S
H731 C718 0.961 . S
H732 C718 0.961 . S
H733 C719 0.958 . S
H734 C719 0.961 . S
H735 C719 0.960 . S
C736 C737 1.391 . S
C736 C738 1.394 . S
C736 H752 0.931 . S
C737 C736 1.391 . S
C737 C741 1.376 . S
C738 C736 1.394 . S
C738 C739 1.369 . S
C738 C742 1.531 . S
C739 C738 1.369 . S
C739 C740 1.410 . S
C739 C747 1.503 . S
C740 C739 1.410 . S
C740 C741 1.392 . S
C740 C743 1.511 . S
C741 C737 1.376 . S
C741 C740 1.392 . S
C741 H753 0.929 . S
C742 C738 1.531 . S
C742 H754 0.960 . S
C742 H755 0.962 . S
C742 H756 0.960 . S
C743 C740 1.511 . S
C743 H757 0.961 . S
C743 H758 0.961 . S
C743 H759 0.961 . S
C744 C745 1.370 . S
C744 C746 1.363 . S
C744 H760 0.931 . S
C745 C744 1.370 . S
C745 C749 1.408 . S
C746 C744 1.363 . S
C746 C747 1.370 . S
C746 C750 1.524 . S
C747 C739 1.503 . S
C747 C746 1.370 . S
C747 C748 1.403 . S
C748 C747 1.403 . S
C748 C749 1.404 . S
C748 C751 1.539 . S
C749 C745 1.408 . S
C749 C748 1.404 . S
C749 H761 0.930 . S
C750 C746 1.524 . S
C750 H762 0.956 . S
C750 H763 0.961 . S
C750 H764 0.961 . S
C751 C748 1.539 . S
C751 H765 0.958 . S
C751 H766 0.961 . S
C751 H767 0.960 . S
H752 C736 0.931 . S
H753 C741 0.929 . S
H754 C742 0.960 . S
H755 C742 0.962 . S
H756 C742 0.960 . S
H757 C743 0.961 . S
H758 C743 0.961 . S
H759 C743 0.961 . S
H760 C744 0.931 . S
H761 C749 0.930 . S
H762 C750 0.956 . S
H763 C750 0.961 . S
H764 C750 0.961 . S
H765 C751 0.958 . S
H766 C751 0.961 . S
H767 C751 0.960 . S
C768 C769 1.391 . S
C768 C770 1.394 . S
C768 H784 0.931 . S
C769 C768 1.391 . S
C769 C773 1.376 . S
C770 C768 1.394 . S
C770 C771 1.369 . S
C770 C774 1.531 . S
C771 C770 1.369 . S
C771 C772 1.410 . S
C771 C779 1.503 . S
C772 C771 1.410 . S
C772 C773 1.392 . S
C772 C775 1.511 . S
C773 C769 1.376 . S
C773 C772 1.392 . S
C773 H785 0.929 . S
C774 C770 1.531 . S
C774 H786 0.960 . S
C774 H787 0.962 . S
C774 H788 0.960 . S
C775 C772 1.511 . S
C775 H789 0.961 . S
C775 H790 0.961 . S
C775 H791 0.961 . S
C776 C777 1.370 . S
C776 C778 1.363 . S
C776 H792 0.931 . S
C777 C776 1.370 . S
C777 C781 1.408 . S
C778 C776 1.363 . S
C778 C779 1.370 . S
C778 C782 1.524 . S
C779 C771 1.503 . S
C779 C778 1.370 . S
C779 C780 1.403 . S
C780 C779 1.403 . S
C780 C781 1.404 . S
C780 C783 1.539 . S
C781 C777 1.408 . S
C781 C780 1.404 . S
C781 H793 0.930 . S
C782 C778 1.524 . S
C782 H794 0.956 . S
C782 H795 0.961 . S
C782 H796 0.961 . S
C783 C780 1.539 . S
C783 H797 0.958 . S
C783 H798 0.961 . S
C783 H799 0.960 . S
H784 C768 0.931 . S
H785 C773 0.929 . S
H786 C774 0.960 . S
H787 C774 0.962 . S
H788 C774 0.960 . S
H789 C775 0.961 . S
H790 C775 0.961 . S
H791 C775 0.961 . S
H792 C776 0.931 . S
H793 C781 0.930 . S
H794 C782 0.956 . S
H795 C782 0.961 . S
H796 C782 0.961 . S
H797 C783 0.958 . S
H798 C783 0.961 . S
H799 C783 0.960 . S
C800 C801 1.391 . S
C800 C802 1.394 . S
C800 H816 0.931 . S
C801 C800 1.391 . S
C801 C805 1.376 . S
C802 C800 1.394 . S
C802 C803 1.369 . S
C802 C806 1.531 . S
C803 C802 1.369 . S
C803 C804 1.410 . S
C803 C811 1.503 . S
C804 C803 1.410 . S
C804 C805 1.392 . S
C804 C807 1.511 . S
C805 C801 1.376 . S
C805 C804 1.392 . S
C805 H817 0.929 . S
C806 C802 1.531 . S
C806 H818 0.960 . S
C806 H819 0.962 . S
C806 H820 0.960 . S
C807 C804 1.511 . S
C807 H821 0.961 . S
C807 H822 0.961 . S
C807 H823 0.961 . S
C808 C809 1.370 . S
C808 C810 1.363 . S
C808 H824 0.931 . S
C809 C808 1.370 . S
C809 C813 1.408 . S
C810 C808 1.363 . S
C810 C811 1.370 . S
C810 C814 1.524 . S
C811 C803 1.503 . S
C811 C810 1.370 . S
C811 C812 1.403 . S
C812 C811 1.403 . S
C812 C813 1.404 . S
C812 C815 1.539 . S
C813 C809 1.408 . S
C813 C812 1.404 . S
C813 H825 0.930 . S
C814 C810 1.524 . S
C814 H826 0.956 . S
C814 H827 0.961 . S
C814 H828 0.961 . S
C815 C812 1.539 . S
C815 H829 0.958 . S
C815 H830 0.961 . S
C815 H831 0.960 . S
H816 C800 0.931 . S
H817 C805 0.929 . S
H818 C806 0.960 . S
H819 C806 0.962 . S
H820 C806 0.960 . S
H821 C807 0.961 . S
H822 C807 0.961 . S
H823 C807 0.961 . S
H824 C808 0.931 . S
H825 C813 0.930 . S
H826 C814 0.956 . S
H827 C814 0.961 . S
H828 C814 0.961 . S
H829 C815 0.958 . S
H830 C815 0.961 . S
H831 C815 0.960 . S
C832 C833 1.391 . S
C832 C834 1.394 . S
C832 H848 0.931 . S
C833 C832 1.391 . S
C833 C837 1.376 . S
C834 C832 1.394 . S
C834 C835 1.369 . S
C834 C838 1.531 . S
C835 C834 1.369 . S
C835 C836 1.410 . S
C835 C843 1.503 . S
C836 C835 1.410 . S
C836 C837 1.392 . S
C836 C839 1.511 . S
C837 C833 1.376 . S
C837 C836 1.392 . S
C837 H849 0.929 . S
C838 C834 1.531 . S
C838 H850 0.960 . S
C838 H851 0.962 . S
C838 H852 0.960 . S
C839 C836 1.511 . S
C839 H853 0.961 . S
C839 H854 0.961 . S
C839 H855 0.961 . S
C840 C841 1.370 . S
C840 C842 1.363 . S
C840 H856 0.931 . S
C841 C840 1.370 . S
C841 C845 1.408 . S
C842 C840 1.363 . S
C842 C843 1.370 . S
C842 C846 1.524 . S
C843 C835 1.503 . S
C843 C842 1.370 . S
C843 C844 1.403 . S
C844 C843 1.403 . S
C844 C845 1.404 . S
C844 C847 1.539 . S
C845 C841 1.408 . S
C845 C844 1.404 . S
C845 H857 0.930 . S
C846 C842 1.524 . S
C846 H858 0.956 . S
C846 H859 0.961 . S
C846 H860 0.961 . S
C847 C844 1.539 . S
C847 H861 0.958 . S
C847 H862 0.961 . S
C847 H863 0.960 . S
H848 C832 0.931 . S
H849 C837 0.929 . S
H850 C838 0.960 . S
H851 C838 0.962 . S
H852 C838 0.960 . S
H853 C839 0.961 . S
H854 C839 0.961 . S
H855 C839 0.961 . S
H856 C840 0.931 . S
H857 C845 0.930 . S
H858 C846 0.956 . S
H859 C846 0.961 . S
H860 C846 0.961 . S
H861 C847 0.958 . S
H862 C847 0.961 . S
H863 C847 0.960 . S
C864 C865 1.381 1_655 S
C864 C866 1.394 1_655 S
C864 H880 0.940 . S
C865 C864 1.381 1_455 S
C865 C869 1.376 . S
C866 C864 1.394 1_455 S
C866 C867 1.369 . S
C866 C870 1.531 1_455 S
C867 C866 1.369 . S
C867 C868 1.410 . S
C867 C875 1.503 . S
C868 C867 1.410 . S
C868 C869 1.392 . S
C868 C871 1.511 . S
C869 C865 1.376 . S
C869 C868 1.392 . S
C869 H881 0.929 . S
C870 C866 1.531 1_655 S
C870 H882 0.960 . S
C870 H883 0.962 . S
C870 H884 0.960 . S
C871 C868 1.511 . S
C871 H885 0.961 . S
C871 H886 0.961 . S
C871 H887 0.961 . S
C872 C873 1.370 . S
C872 C874 1.363 . S
C872 H888 0.931 . S
C873 C872 1.370 . S
C873 C877 1.408 . S
C874 C872 1.363 . S
C874 C875 1.370 . S
C874 C878 1.524 . S
C875 C867 1.503 . S
C875 C874 1.370 . S
C875 C876 1.403 . S
C876 C875 1.403 . S
C876 C877 1.404 . S
C876 C879 1.539 . S
C877 C873 1.408 . S
C877 C876 1.404 . S
C877 H889 0.930 . S
C878 C874 1.524 . S
C878 H890 0.956 . S
C878 H891 0.961 . S
C878 H892 0.961 . S
C879 C876 1.539 . S
C879 H893 0.958 1_455 S
C879 H894 0.961 . S
C879 H895 0.960 . S
H880 C864 0.940 . S
H881 C869 0.929 . S
H882 C870 0.960 . S
H883 C870 0.962 . S
H884 C870 0.960 . S
H885 C871 0.961 . S
H886 C871 0.961 . S
H887 C871 0.961 . S
H888 C872 0.931 . S
H889 C877 0.930 . S
H890 C878 0.956 . S
H891 C878 0.961 . S
H892 C878 0.961 . S
H893 C879 0.958 1_655 S
H894 C879 0.961 . S
H895 C879 0.960 . S
C896 C897 1.391 . S
C896 C898 1.394 . S
C896 H912 0.931 . S
C897 C896 1.391 . S
C897 C901 1.376 1_545 S
C898 C896 1.394 . S
C898 C899 1.369 . S
C898 C902 1.531 . S
C899 C898 1.369 . S
C899 C900 1.416 . S
C899 C907 1.503 . S
C900 C899 1.416 . S
C900 C901 1.392 1_545 S
C900 C903 1.505 1_545 S
C901 C897 1.376 1_565 S
C901 C900 1.392 1_565 S
C901 H913 0.929 . S
C902 C898 1.531 . S
C902 H914 0.960 . S
C902 H915 0.962 . S
C902 H916 0.960 . S
C903 C900 1.505 1_565 S
C903 H917 0.961 . S
C903 H918 0.961 . S
C903 H919 0.961 . S
C904 C905 1.370 . S
C904 C906 1.363 . S
C904 H920 0.931 1_545 S
C905 C904 1.370 . S
C905 C909 1.408 . S
C906 C904 1.363 . S
C906 C907 1.370 . S
C906 C910 1.524 1_545 S
C907 C899 1.503 . S
C907 C906 1.370 . S
C907 C908 1.403 . S
C908 C907 1.403 . S
C908 C909 1.404 . S
C908 C911 1.539 . S
C909 C905 1.408 . S
C909 C908 1.404 . S
C909 H921 0.930 . S
C910 C906 1.524 1_565 S
C910 H922 0.956 . S
C910 H923 0.961 . S
C910 H924 0.961 . S
C911 C908 1.539 . S
C911 H925 0.958 . S
C911 H926 0.961 . S
C911 H927 0.960 . S
H912 C896 0.931 . S
H913 C901 0.929 . S
H914 C902 0.960 . S
H915 C902 0.962 . S
H916 C902 0.960 . S
H917 C903 0.961 . S
H918 C903 0.961 . S
H919 C903 0.961 . S
H920 C904 0.931 1_565 S
H921 C909 0.930 . S
H922 C910 0.956 . S
H923 C910 0.961 . S
H924 C910 0.961 . S
H925 C911 0.958 . S
H926 C911 0.961 . S
H927 C911 0.960 . S
C928 C929 1.391 . S
C928 C930 1.394 . S
C928 H944 0.931 . S
C929 C928 1.391 . S
C929 C933 1.376 . S
C930 C928 1.394 . S
C930 C931 1.369 . S
C930 C934 1.531 . S
C931 C930 1.369 . S
C931 C932 1.410 . S
C931 C939 1.503 . S
C932 C931 1.410 . S
C932 C933 1.392 . S
C932 C935 1.511 . S
C933 C929 1.376 . S
C933 C932 1.392 . S
C933 H945 0.929 . S
C934 C930 1.531 . S
C934 H946 0.960 . S
C934 H947 0.962 . S
C934 H948 0.960 . S
C935 C932 1.511 . S
C935 H949 0.961 . S
C935 H950 0.961 . S
C935 H951 0.961 . S
C936 C937 1.370 . S
C936 C938 1.363 . S
C936 H952 0.931 . S
C937 C936 1.370 . S
C937 C941 1.408 . S
C938 C936 1.363 . S
C938 C939 1.370 . S
C938 C942 1.524 . S
C939 C931 1.503 . S
C939 C938 1.370 . S
C939 C940 1.403 . S
C940 C939 1.403 . S
C940 C941 1.404 . S
C940 C943 1.539 . S
C941 C937 1.408 . S
C941 C940 1.404 . S
C941 H953 0.930 . S
C942 C938 1.524 . S
C942 H954 0.956 . S
C942 H955 0.961 . S
C942 H956 0.961 . S
C943 C940 1.539 . S
C943 H957 0.958 . S
C943 H958 0.961 . S
C943 H959 0.960 . S
H944 C928 0.931 . S
H945 C933 0.929 . S
H946 C934 0.960 . S
H947 C934 0.962 . S
H948 C934 0.960 . S
H949 C935 0.961 . S
H950 C935 0.961 . S
H951 C935 0.961 . S
H952 C936 0.931 . S
H953 C941 0.930 . S
H954 C942 0.956 . S
H955 C942 0.961 . S
H956 C942 0.961 . S
H957 C943 0.958 . S
H958 C943 0.961 . S
H959 C943 0.960 . S
C960 C961 1.391 . S
C960 C962 1.394 . S
C960 H976 0.931 . S
C961 C960 1.391 . S
C961 C965 1.376 1_545 S
C962 C960 1.394 . S
C962 C963 1.369 . S
C962 C966 1.531 . S
C963 C962 1.369 . S
C963 C964 1.410 1_545 S
C963 C971 1.503 . S
C964 C963 1.410 1_565 S
C964 C965 1.392 . S
C964 C967 1.511 . S
C965 C961 1.376 1_565 S
C965 C964 1.392 . S
C965 H977 0.929 . S
C966 C962 1.531 . S
C966 H978 0.960 . S
C966 H979 0.962 . S
C966 H980 0.960 . S
C967 C964 1.511 . S
C967 H981 0.961 . S
C967 H982 0.961 . S
C967 H983 0.961 1_565 S
C968 C969 1.370 . S
C968 C970 1.363 . S
C968 H984 0.931 . S
C969 C968 1.370 . S
C969 C973 1.408 1_565 S
C970 C968 1.363 . S
C970 C971 1.370 1_565 S
C970 C974 1.524 . S
C971 C963 1.503 . S
C971 C970 1.370 1_545 S
C971 C972 1.403 . S
C972 C971 1.403 . S
C972 C973 1.404 . S
C972 C975 1.539 . S
C973 C969 1.408 1_545 S
C973 C972 1.404 . S
C973 H985 0.930 . S
C974 C970 1.524 . S
C974 H986 0.956 . S
C974 H987 0.961 . S
C974 H988 0.961 . S
C975 C972 1.539 . S
C975 H989 0.958 . S
C975 H990 0.961 . S
C975 H991 0.960 . S
H976 C960 0.931 . S
H977 C965 0.929 . S
H978 C966 0.960 . S
H979 C966 0.962 . S
H980 C966 0.960 . S
H981 C967 0.961 . S
H982 C967 0.961 . S
H983 C967 0.961 1_545 S
H984 C968 0.931 . S
H985 C973 0.930 . S
H986 C974 0.956 . S
H987 C974 0.961 . S
H988 C974 0.961 . S
H989 C975 0.958 . S
H990 C975 0.961 . S
H991 C975 0.960 . S
C992 C993 1.391 . S
C992 C994 1.394 . S
C992 H1008 0.931 . S
C993 C992 1.391 . S
C993 C997 1.376 . S
C994 C992 1.394 . S
C994 C995 1.369 . S
C994 C998 1.531 . S
C995 C994 1.369 . S
C995 C996 1.410 . S
C995 C1003 1.503 . S
C996 C995 1.410 . S
C996 C997 1.392 . S
C996 C999 1.511 . S
C997 C993 1.376 . S
C997 C996 1.392 . S
C997 H1009 0.929 . S
C998 C994 1.531 . S
C998 H1010 0.960 . S
C998 H1011 0.962 . S
C998 H1012 0.960 . S
C999 C996 1.511 . S
C999 H1013 0.961 . S
C999 H1014 0.961 . S
C999 H1015 0.961 . S
C1000 C1001 1.370 . S
C1000 C1002 1.363 . S
C1000 H1016 0.931 . S
C1001 C1000 1.370 . S
C1001 C1005 1.408 . S
C1002 C1000 1.363 . S
C1002 C1003 1.370 . S
C1002 C1006 1.524 . S
C1003 C995 1.503 . S
C1003 C1002 1.370 . S
C1003 C1004 1.403 . S
C1004 C1003 1.403 . S
C1004 C1005 1.404 . S
C1004 C1007 1.539 . S
C1005 C1001 1.408 . S
C1005 C1004 1.404 . S
C1005 H1017 0.930 . S
C1006 C1002 1.524 . S
C1006 H1018 0.956 . S
C1006 H1019 0.961 . S
C1006 H1020 0.961 . S
C1007 C1004 1.539 . S
C1007 H1021 0.958 . S
C1007 H1022 0.961 . S
C1007 H1023 0.960 . S
H1008 C992 0.931 . S
H1009 C997 0.929 . S
H1010 C998 0.960 . S
H1011 C998 0.962 . S
H1012 C998 0.960 . S
H1013 C999 0.961 . S
H1014 C999 0.961 . S
H1015 C999 0.961 . S
H1016 C1000 0.931 . S
H1017 C1005 0.930 . S
H1018 C1006 0.956 . S
H1019 C1006 0.961 . S
H1020 C1006 0.961 . S
H1021 C1007 0.958 . S
H1022 C1007 0.961 . S
H1023 C1007 0.960 . S
C1024 C1025 1.391 1_655 S
C1024 C1026 1.394 . S
C1024 H1040 0.931 . S
C1025 C1024 1.391 1_455 S
C1025 C1029 1.376 . S
C1026 C1024 1.394 . S
C1026 C1027 1.369 1_655 S
C1026 C1030 1.531 . S
C1027 C1026 1.369 1_455 S
C1027 C1028 1.410 . S
C1027 C1035 1.503 . S
C1028 C1027 1.410 . S
C1028 C1029 1.392 . S
C1028 C1031 1.511 . S
C1029 C1025 1.376 . S
C1029 C1028 1.392 . S
C1029 H1041 0.929 . S
C1030 C1026 1.531 . S
C1030 H1042 0.960 . S
C1030 H1043 0.962 . S
C1030 H1044 0.960 . S
C1031 C1028 1.511 . S
C1031 H1045 0.961 . S
C1031 H1046 0.961 . S
C1031 H1047 0.961 . S
C1032 C1033 1.377 1_455 S
C1032 C1034 1.363 . S
C1032 H1048 0.931 . S
C1033 C1032 1.377 1_655 S
C1033 C1037 1.399 . S
C1034 C1032 1.363 . S
C1034 C1035 1.370 . S
C1034 C1038 1.524 . S
C1035 C1027 1.503 . S
C1035 C1034 1.370 . S
C1035 C1036 1.403 1_455 S
C1036 C1035 1.403 1_655 S
C1036 C1037 1.404 . S
C1036 C1039 1.539 . S
C1037 C1033 1.399 . S
C1037 C1036 1.404 . S
C1037 H1049 0.930 . S
C1038 C1034 1.524 . S
C1038 H1050 0.956 1_455 S
C1038 H1051 0.961 . S
C1038 H1052 0.961 . S
C1039 C1036 1.539 . S
C1039 H1053 0.958 . S
C1039 H1054 0.961 1_655 S
C1039 H1055 0.960 1_655 S
H1040 C1024 0.931 . S
H1041 C1029 0.929 . S
H1042 C1030 0.960 . S
H1043 C1030 0.962 . S
H1044 C1030 0.960 . S
H1045 C1031 0.961 . S
H1046 C1031 0.961 . S
H1047 C1031 0.961 . S
H1048 C1032 0.931 . S
H1049 C1037 0.930 . S
H1050 C1038 0.956 1_655 S
H1051 C1038 0.961 . S
H1052 C1038 0.961 . S
H1053 C1039 0.958 . S
H1054 C1039 0.961 1_455 S
H1055 C1039 0.960 1_455 S
C481 C7 0.626 . S
C489 C451 0.639 . S
C513 C51 1.909 . S
C521 C301 1.769 . S
C545 C87 1.231 . S
C553 C361 1.213 . S
C577 C16 0.406 . S
C585 C421 0.436 . S
C617 C331 2.054 . S
C609 C42 2.054 . S
C649 C391 1.358 . S
C641 C96 1.334 . S
C673 C47 1.187 . S
C681 C181 1.150 . S
C705 C91 3.116 . S
C713 C271 3.104 . S
C737 C2 2.087 . S
C745 C151 2.109 . S
C777 C211 1.338 . S
C769 C56 1.299 . S
C809 C241 2.831 . S
C801 C82 2.979 . S
C833 C11 1.910 . S
C841 C121 1.770 . S
C873 C260 1.743 1_554 S
C865 C19 1.677 . S
C897 C50 1.324 . S
C905 C140 1.363 . S
C929 C99 1.489 . S
C937 C200 1.492 . S
C969 C380 1.454 . S
C961 C59 1.430 . S
C1001 C440 1.113 1_556 S
C993 C90 1.083 . S
C1025 C10 1.309 . S
C1033 C320 1.354 1_655 S
