# Generated by pormake.
# Topology zzz, (3,6)-cn, num edge types: 1
# Building blocks:
#     Node 0, Type 0, BuildingBlock: BELTOD_clean_linker_0, # of connection points: 3
#     Node 1, Type 0, BuildingBlock: BELTOD_clean_linker_0, # of connection points: 3
#     Node 2, Type 0, BuildingBlock: BELTOD_clean_linker_0, # of connection points: 3
#     Node 3, Type 0, BuildingBlock: BELTOD_clean_linker_0, # of connection points: 3
#     Node 4, Type 0, BuildingBlock: BELTOD_clean_linker_0, # of connection points: 3
#     Node 5, Type 0, BuildingBlock: BELTOD_clean_linker_0, # of connection points: 3
#     Node 6, Type 0, BuildingBlock: BELTOD_clean_linker_0, # of connection points: 3
#     Node 7, Type 0, BuildingBlock: BELTOD_clean_linker_0, # of connection points: 3
#     Node 8, Type 1, BuildingBlock: CUWYAW_clean_sbu_0, # of connection points: 6
#     Node 9, Type 1, BuildingBlock: CUWYAW_clean_sbu_0, # of connection points: 6
#     Node 10, Type 1, BuildingBlock: CUWYAW_clean_sbu_0, # of connection points: 6
#     Node 11, Type 1, BuildingBlock: CUWYAW_clean_sbu_0, # of connection points: 6
#     Edge 12, Type (0, 1), BuildingBlock: KIFKEQ_clean_linker_1, # of connection points: 2
#     Edge 13, Type (0, 1), BuildingBlock: KIFKEQ_clean_linker_1, # of connection points: 2
#     Edge 14, Type (0, 1), BuildingBlock: KIFKEQ_clean_linker_1, # of connection points: 2
#     Edge 15, Type (0, 1), BuildingBlock: KIFKEQ_clean_linker_1, # of connection points: 2
#     Edge 16, Type (0, 1), BuildingBlock: KIFKEQ_clean_linker_1, # of connection points: 2
#     Edge 17, Type (0, 1), BuildingBlock: KIFKEQ_clean_linker_1, # of connection points: 2
#     Edge 18, Type (0, 1), BuildingBlock: KIFKEQ_clean_linker_1, # of connection points: 2
#     Edge 19, Type (0, 1), BuildingBlock: KIFKEQ_clean_linker_1, # of connection points: 2
#     Edge 20, Type (0, 1), BuildingBlock: KIFKEQ_clean_linker_1, # of connection points: 2
#     Edge 21, Type (0, 1), BuildingBlock: KIFKEQ_clean_linker_1, # of connection points: 2
#     Edge 22, Type (0, 1), BuildingBlock: KIFKEQ_clean_linker_1, # of connection points: 2
#     Edge 23, Type (0, 1), BuildingBlock: KIFKEQ_clean_linker_1, # of connection points: 2
#     Edge 24, Type (0, 1), BuildingBlock: KIFKEQ_clean_linker_1, # of connection points: 2
#     Edge 25, Type (0, 1), BuildingBlock: KIFKEQ_clean_linker_1, # of connection points: 2
#     Edge 26, Type (0, 1), BuildingBlock: KIFKEQ_clean_linker_1, # of connection points: 2
#     Edge 27, Type (0, 1), BuildingBlock: KIFKEQ_clean_linker_1, # of connection points: 2
#     Edge 28, Type (0, 1), BuildingBlock: KIFKEQ_clean_linker_1, # of connection points: 2
#     Edge 29, Type (0, 1), BuildingBlock: KIFKEQ_clean_linker_1, # of connection points: 2
#     Edge 30, Type (0, 1), BuildingBlock: KIFKEQ_clean_linker_1, # of connection points: 2
#     Edge 31, Type (0, 1), BuildingBlock: KIFKEQ_clean_linker_1, # of connection points: 2
#     Edge 32, Type (0, 1), BuildingBlock: KIFKEQ_clean_linker_1, # of connection points: 2
#     Edge 33, Type (0, 1), BuildingBlock: KIFKEQ_clean_linker_1, # of connection points: 2
#     Edge 34, Type (0, 1), BuildingBlock: KIFKEQ_clean_linker_1, # of connection points: 2
#     Edge 35, Type (0, 1), BuildingBlock: KIFKEQ_clean_linker_1, # of connection points: 2
# Relax obj value: 0.413
# Max RMSD: 0.236
# Mean RMSD: 0.221
data_MOF--net-zzz--node1-CUWYAW_clean_sbu_0--node2-BELTOD_clean_linker_0--edge1-KIFKEQ_clean_linker_1
_symmetry_space_group_name_H-M    P1
_symmetry_Int_Tables_number       1
_symmetry_cell_setting            triclinic
loop_
_symmetry_equiv_pos_as_xyz
'x, y, z'
_cell_length_a     56.023508
_cell_length_b     56.09091
_cell_length_c     18.135305
_cell_angle_alpha  89.938421
_cell_angle_beta   90.048544
_cell_angle_gamma 89.925828
loop_
_atom_site_label
_atom_site_type_symbol
_atom_site_fract_x
_atom_site_fract_y
_atom_site_fract_z
_atom_type_partial_charge
P0 P 0.72659 0.4738 0.34419 0.0
H1 H 0.73895 0.48867 0.49444 0.0
H2 H 0.77675 0.50137 0.54668 0.0
H3 H 0.8042 0.51363 0.32728 0.0
H4 H 0.76638 0.49988 0.27529 0.0
H5 H 0.67761 0.45966 0.31972 0.0
H6 H 0.64897 0.46796 0.22195 0.0
H7 H 0.69653 0.52069 0.13082 0.0
H8 H 0.72567 0.51203 0.22938 0.0
H9 H 0.76719 0.445 0.38815 0.0
H10 H 0.7222 0.45168 0.1959 0.0
O11 O 0.71281 0.46089 0.41533 0.0
H12 H 0.7953 0.42121 0.31803 0.0
H13 H 0.74951 0.42662 0.12642 0.0
C14 C 0.74957 0.49337 0.38063 0.0
C15 C 0.75272 0.4949 0.45732 0.0
C16 C 0.77459 0.50215 0.48741 0.0
C17 C 0.79396 0.50814 0.44151 0.0
C18 C 0.79 0.50862 0.36464 0.0
C19 C 0.76809 0.50127 0.33461 0.0
C20 C 0.7037 0.48554 0.28317 0.0
C21 C 0.68173 0.47356 0.28028 0.0
C22 C 0.66539 0.47813 0.22378 0.0
C23 C 0.67051 0.49489 0.16851 0.0
C24 C 0.69203 0.5078 0.17306 0.0
C25 C 0.70865 0.50295 0.22954 0.0
C26 C 0.74299 0.4508 0.29689 0.0
C27 C 0.76299 0.44074 0.33135 0.0
C28 C 0.77898 0.42683 0.29112 0.0
C29 C 0.775 0.4223 0.21576 0.0
C30 C 0.75354 0.43033 0.18367 0.0
C31 C 0.73778 0.44465 0.22369 0.0
P32 P 0.03144 0.72725 0.34733 0.0
H33 H 0.03262 0.74405 0.49889 0.0
H34 H 0.02161 0.78168 0.5527 0.0
H35 H 0.98114 0.79916 0.35636 0.0
H36 H 0.99423 0.76176 0.30054 0.0
H37 H 0.0187 0.67653 0.35263 0.0
H38 H 0.0081 0.64824 0.25608 0.0
H39 H 1.00015 0.70641 0.10175 0.0
H40 H 0.01112 0.73469 0.19885 0.0
H41 H 0.05362 0.77414 0.36984 0.0
H42 H 0.06176 0.7151 0.21939 0.0
O43 O 0.04506 0.71011 0.40985 0.0
H44 H 0.07879 0.79833 0.29379 0.0
H45 H 0.08844 0.73928 0.14321 0.0
C46 C 0.01406 0.7497 0.39572 0.0
C47 C 0.02067 0.75553 0.46812 0.0
C48 C 0.01428 0.77746 0.49914 0.0
C49 C 1.00058 0.79423 0.45931 0.0
C50 C 0.99229 0.78737 0.38871 0.0
C51 C 0.99925 0.76554 0.35697 0.0
C52 C 0.01591 0.70782 0.28315 0.0
C53 C 0.01405 0.68335 0.29863 0.0
C54 C 0.00796 0.66708 0.24306 0.0
C55 C 1.00366 0.6749 0.17047 0.0
C56 C 1.0038 0.69966 0.15657 0.0
C57 C 0.00974 0.71593 0.21241 0.0
C58 C 0.05451 0.74317 0.29823 0.0
C59 C 0.06099 0.76616 0.32068 0.0
C60 C 0.07602 0.78001 0.27732 0.0
C61 C 0.0855 0.77103 0.21107 0.0
C62 C 0.08095 0.74706 0.19266 0.0
C63 C 0.06564 0.73321 0.23617 0.0
P64 P 0.78657 0.0342 0.36041 0.0
H65 H 0.77594 1.00525 0.49176 0.0
H66 H 0.73804 0.99124 0.54134 0.0
H67 H 0.70343 0.00986 0.33581 0.0
H68 H 0.74163 0.02194 0.28538 0.0
H69 H 0.83181 0.05414 0.31846 0.0
H70 H 0.8611 0.04455 0.22469 0.0
H71 H 0.82026 0.98211 0.16459 0.0
H72 H 0.7902 0.99272 0.25784 0.0
H73 H 0.7605 0.07315 0.42905 0.0
H74 H 0.77979 0.05142 0.20896 0.0
O75 O 0.80065 0.04215 0.43769 0.0
H76 H 0.73061 0.10039 0.37824 0.0
H77 H 0.74997 0.07819 0.15815 0.0
C78 C 0.76172 0.01503 0.38508 0.0
C79 C 0.76036 1.00543 0.45638 0.0
C80 C 0.73841 0.99785 0.48529 0.0
C81 C 0.71714 1.00014 0.44403 0.0
C82 C 0.7191 0.00771 0.37005 0.0
C83 C 0.74116 0.01474 0.34076 0.0
C84 C 0.80903 0.02395 0.29609 0.0
C85 C 0.82931 0.03815 0.28591 0.0
C86 C 0.84621 0.03251 0.23215 0.0
C87 C 0.84343 0.01232 0.1869 0.0
C88 C 0.82305 0.99788 0.19778 0.0
C89 C 0.80592 1.00375 0.25164 0.0
C90 C 0.77246 0.06035 0.32288 0.0
C91 C 0.75908 0.07503 0.36976 0.0
C92 C 0.74187 0.09046 0.34067 0.0
C93 C 0.7377 0.09124 0.26423 0.0
C94 C 0.75286 0.07827 0.2172 0.0
C95 C 0.77 0.06284 0.24635 0.0
P96 P 0.48049 0.78203 0.36189 0.0
H97 H 0.49559 0.76753 0.5103 0.0
H98 H 0.50908 0.72913 0.55648 0.0
H99 H 0.52188 0.7057 0.33309 0.0
H100 H 0.50748 0.74407 0.28716 0.0
H101 H 0.46563 0.83087 0.33872 0.0
H102 H 0.47526 0.86062 0.24668 0.0
H103 H 0.53093 0.8148 0.16153 0.0
H104 H 0.52019 0.78444 0.25279 0.0
H105 H 0.45557 0.73775 0.39283 0.0
H106 H 0.45418 0.79146 0.22241 0.0
O107 O 0.46751 0.79487 0.43454 0.0
H108 H 0.43279 0.71125 0.31551 0.0
H109 H 0.42929 0.76585 0.14665 0.0
C110 C 0.50059 0.75894 0.39503 0.0
C111 C 0.50215 0.75455 0.47112 0.0
C112 C 0.50985 0.73235 0.49767 0.0
C113 C 0.51618 0.71394 0.44866 0.0
C114 C 0.51667 0.71918 0.3726 0.0
C115 C 0.50893 0.74142 0.34614 0.0
C116 C 0.49244 0.8055 0.30388 0.0
C117 C 0.48035 0.82739 0.30154 0.0
C118 C 0.48596 0.84456 0.24843 0.0
C119 C 0.50401 0.84042 0.19595 0.0
C120 C 0.5167 0.81866 0.20003 0.0
C121 C 0.5108 0.8013 0.253 0.0
C122 C 0.45763 0.76612 0.3122 0.0
C123 C 0.44979 0.74411 0.3393 0.0
C124 C 0.43629 0.72901 0.29492 0.0
C125 C 0.42956 0.73595 0.22312 0.0
C126 C 0.43494 0.75936 0.2001 0.0
C127 C 0.44911 0.7742 0.24388 0.0
P128 P 0.29244 0.45173 0.06576 0.0
H129 H 0.27697 0.4569 0.91222 0.0
H130 H 0.23906 0.47029 0.86034 0.0
H131 H 0.21973 0.50102 0.06964 0.0
H132 H 0.25743 0.48671 0.12275 0.0
H133 H 0.34028 0.4347 0.09594 0.0
H134 H 0.3704 0.44549 0.18578 0.0
H135 H 0.32828 0.50678 0.24901 0.0
H136 H 0.29756 0.49512 0.15985 0.0
H137 H 0.24839 0.42587 0.03991 0.0
H138 H 0.29711 0.43583 0.22167 0.0
O139 O 0.30448 0.43422 1.00134 0.0
H140 H 0.2176 0.41342 0.12458 0.0
H141 H 0.26694 0.4214 0.30673 0.0
C142 C 0.27056 0.4711 0.02147 0.0
C143 C 0.26515 0.46732 0.94667 0.0
C144 C 0.24326 0.47476 0.91699 0.0
C145 C 0.22633 0.48654 0.961 0.0
C146 C 0.2325 0.49214 0.0342 0.0
C147 C 0.2543 0.48428 0.06436 0.0
C148 C 0.31675 0.46434 0.11949 0.0
C149 C 0.33773 0.45087 0.12753 0.0
C150 C 0.35509 0.45711 0.17949 0.0
C151 C 0.35205 0.47711 0.22539 0.0
C152 C 0.33125 0.49107 0.21567 0.0
C153 C 0.31372 0.48463 0.1637 0.0
C154 C 0.27458 0.43308 0.12469 0.0
C155 C 0.25278 0.42449 0.09793 0.0
C156 C 0.23515 0.41699 0.14687 0.0
C157 C 0.23933 0.41739 0.22347 0.0
C158 C 0.26269 0.42201 0.24851 0.0
C159 C 0.28009 0.43021 0.19959 0.0
P160 P 0.06031 0.29405 0.07164 0.0
H161 H 0.05605 0.27775 0.91869 0.0
H162 H 0.04334 0.23954 0.86773 0.0
H163 H 0.01253 0.22034 0.077 0.0
H164 H 0.0262 0.2583 0.12938 0.0
H165 H 0.07468 0.3431 0.09556 0.0
H166 H 0.06337 0.37303 0.18516 0.0
H167 H 1.00532 0.32812 0.25809 0.0
H168 H 0.01758 0.29764 0.16936 0.0
H169 H 0.08615 0.24951 0.05189 0.0
H170 H 0.07799 0.3018 0.22445 0.0
O171 O 0.07752 0.30634 0.00689 0.0
H172 H 0.10057 0.22084 0.14082 0.0
H173 H 0.09417 0.2737 0.31344 0.0
C174 C 0.04172 0.27144 0.02791 0.0
C175 C 0.04576 0.26588 0.95334 0.0
C176 C 0.03869 0.24385 0.92414 0.0
C177 C 0.027 0.22696 0.96839 0.0
C178 C 0.0213 0.23314 0.04143 0.0
C179 C 0.02879 0.25508 0.07113 0.0
C180 C 0.04674 0.31815 0.12409 0.0
C181 C 0.05906 0.33987 0.1292 0.0
C182 C 0.05252 0.35714 0.18109 0.0
C183 C 0.03336 0.35327 0.22983 0.0
C184 C 0.02042 0.33177 0.22268 0.0
C185 C 0.02717 0.31434 0.17087 0.0
C186 C 0.07959 0.27728 0.1321 0.0
C187 C 0.08822 0.25511 0.10866 0.0
C188 C 0.09689 0.23873 0.15994 0.0
C189 C 0.09764 0.24453 0.23547 0.0
C190 C 0.0928 0.26823 0.25635 0.0
C191 C 0.08351 0.28441 0.20519 0.0
P192 P 0.22299 0.06012 0.08802 0.0
H193 H 0.23723 0.0523 0.93493 0.0
H194 H 0.27426 0.03765 0.88422 0.0
H195 H 0.29268 0.00738 0.09632 0.0
H196 H 0.25602 0.0239 0.14794 0.0
H197 H 0.17941 0.08313 0.13375 0.0
H198 H 0.14884 0.07371 0.22463 0.0
H199 H 0.18259 1.00579 0.2659 0.0
H200 H 0.21355 0.01545 0.17411 0.0
H201 H 0.26599 0.08555 0.04769 0.0
H202 H 0.22377 0.07599 0.24434 0.0
O203 O 0.21093 0.07693 0.02172 0.0
H204 H 0.29884 0.10013 0.12112 0.0
H205 H 0.25575 0.09286 0.31803 0.0
C206 C 0.24343 0.03906 0.04541 0.0
C207 C 0.24873 0.04176 0.97022 0.0
C208 C 0.27027 0.0333 0.94099 0.0
C209 C 0.28715 0.02154 0.98593 0.0
C210 C 0.2807 0.0169 0.05989 0.0
C211 C 0.25924 0.02576 0.08936 0.0
C212 C 0.19867 0.0499 0.14608 0.0
C213 C 0.18007 0.06596 0.16105 0.0
C214 C 0.16267 0.06066 0.21371 0.0
C215 C 0.16332 0.03907 0.25292 0.0
C216 C 0.18152 0.02253 0.23627 0.0
C217 C 0.19923 0.02802 0.18378 0.0
C218 C 0.24272 0.0789 0.14052 0.0
C219 C 0.26345 0.08747 0.10659 0.0
C220 C 0.28227 0.09615 0.14905 0.0
C221 C 0.28044 0.09708 0.22646 0.0
C222 C 0.2583 0.09146 0.25904 0.0
C223 C 0.23975 0.08201 0.21662 0.0
P224 P 0.45985 0.21935 0.08524 0.0
H225 H 0.48181 0.22797 0.94075 0.0
H226 H 0.49618 0.26494 0.88635 0.0
H227 H 0.49651 0.29769 0.10193 0.0
H228 H 0.48339 0.26014 0.15626 0.0
H229 H 0.43106 0.18683 0.1704 0.0
H230 H 0.43957 0.15796 0.2671 0.0
H231 H 0.51439 0.17649 0.2568 0.0
H232 H 0.50535 0.20618 0.1607 0.0
H233 H 0.42652 0.24832 1.00169 0.0
H234 H 0.44266 0.2348 0.23053 0.0
O235 O 0.4504 0.20305 0.01408 0.0
H236 H 0.40842 0.28643 0.03536 0.0
H237 H 0.42417 0.27236 0.26432 0.0
C238 C 0.48141 0.2411 0.05285 0.0
C239 C 0.48603 0.24271 0.97697 0.0
C240 C 0.49379 0.26418 0.94554 0.0
C241 C 0.49679 0.28477 0.98908 0.0
C242 C 0.49444 0.28239 0.06617 0.0
C243 C 0.48705 0.26073 0.09766 0.0
C244 C 0.4675 0.19887 0.15891 0.0
C245 C 0.44931 0.18481 0.18926 0.0
C246 C 0.45428 0.16805 0.24423 0.0
C247 C 0.47774 0.16457 0.26991 0.0
C248 C 0.49606 0.17876 0.23919 0.0
C249 C 0.49098 0.19572 0.184 0.0
C250 C 0.4359 0.23865 0.11351 0.0
C251 C 0.42481 0.25278 0.05956 0.0
C252 C 0.41461 0.27464 0.07873 0.0
C253 C 0.41514 0.28242 0.15227 0.0
C254 C 0.4233 0.26673 0.20726 0.0
C255 C 0.43386 0.24508 0.18791 0.0
C256 C 0.98365 0.04239 0.51689 0.0
Eu257 Eu 0.98926 0.02175 0.64322 0.0
C258 C 0.99682 0.06245 0.48322 0.0
C259 C 0.98957 0.08599 0.49718 0.0
C260 C 1.0037 0.10508 0.47504 0.0
C261 C 0.02528 0.10116 0.43745 0.0
C262 C 0.03214 0.07767 0.42089 0.0
C263 C 0.01798 0.05848 0.44328 0.0
C264 C 0.9588 0.01134 0.75712 0.0
C265 C 0.00781 0.05796 0.77384 0.0
C266 C 0.02926 0.98061 0.91268 0.0
Eu267 Eu 0.01756 1.00128 0.79023 0.0
C268 C 0.04467 0.95994 0.92672 0.0
C269 C 0.05419 0.95586 0.99705 0.0
C270 C 0.06773 0.93534 0.01072 0.0
C271 C 0.07168 0.91862 0.95425 0.0
C272 C 0.06289 0.92328 0.88321 0.0
C273 C 0.04964 0.94387 0.86943 0.0
C274 C 0.04756 0.01097 0.67389 0.0
C275 C 0.99863 0.96454 0.6598 0.0
O276 O 0.99548 0.02234 0.52476 0.0
O277 O 0.97072 0.04766 0.57495 0.0
O278 O 0.9516 0.01793 0.69188 0.0
O279 O 0.9812 0.01008 0.75516 0.0
O280 O 1.00315 0.05488 0.70247 0.0
O281 O 0.01073 0.03987 0.82037 0.0
O282 O 0.00944 0.97587 0.87695 0.0
O283 O 0.04013 0.99971 0.88806 0.0
O284 O 0.05498 1.00296 0.73705 0.0
O285 O 0.02537 0.01319 0.67865 0.0
O286 O 0.00745 0.96752 0.72739 0.0
O287 O 0.99157 0.98237 0.61659 0.0
H288 H 0.97334 0.08971 0.52755 0.0
H289 H 0.998 0.12294 0.48943 0.0
H290 H 0.04847 0.0741 0.3909 0.0
H291 H 0.02392 0.04056 0.43088 0.0
H292 H 0.05067 0.9682 0.04165 0.0
H293 H 0.07413 0.93197 0.06615 0.0
H294 H 0.06578 0.9107 0.8388 0.0
H295 H 0.04274 0.94693 0.81441 0.0
C296 C 0.47337 0.98405 0.52618 0.0
Eu297 Eu 0.49308 0.98803 0.65428 0.0
C298 C 0.45593 1.00027 0.49093 0.0
C299 C 0.43343 1.00396 0.52323 0.0
C300 C 0.41837 0.02185 0.49727 0.0
C301 C 0.42541 0.03665 0.43864 0.0
C302 C 0.4475 0.0324 0.40429 0.0
C303 C 0.46262 0.01434 0.43023 0.0
C304 C 0.50269 0.95669 0.76652 0.0
C305 C 0.45683 1.00566 0.78449 0.0
C306 C 0.53313 0.02437 0.92859 0.0
Eu307 Eu 0.51361 0.01516 0.80214 0.0
C308 C 0.55249 0.03999 0.95586 0.0
C309 C 0.54728 0.06233 0.98719 0.0
C310 C 0.56563 0.07694 0.01357 0.0
C311 C 0.58955 0.06944 0.00932 0.0
C312 C 0.59467 0.04708 0.97812 0.0
C313 C 0.5764 0.03254 0.95182 0.0
C314 C 0.50356 0.04656 0.68985 0.0
C315 C 0.55051 0.99753 0.67076 0.0
O316 O 0.49493 0.99269 0.53498 0.0
O317 O 0.46583 0.97231 0.58431 0.0
O318 O 0.49536 0.95009 0.70151 0.0
O319 O 0.50503 0.97899 0.76532 0.0
O320 O 0.45992 1.00185 0.71282 0.0
O321 O 0.47494 0.00802 0.83117 0.0
O322 O 0.53957 1.00639 0.88672 0.0
O323 O 0.51352 0.03487 0.90558 0.0
O324 O 0.51212 0.053 0.75339 0.0
O325 O 0.50098 0.02429 0.6918 0.0
O326 O 0.54743 0.00753 0.73664 0.0
O327 O 0.53272 0.98902 0.62998 0.0
H328 H 0.42758 0.99348 0.57003 0.0
H329 H 0.40114 0.02408 0.52344 0.0
H330 H 0.45339 0.04345 0.35883 0.0
H331 H 0.47994 0.01199 0.40468 0.0
H332 H 0.52901 0.0685 0.99162 0.0
H333 H 0.5611 0.09406 0.0373 0.0
H334 H 0.61282 0.04044 0.97573 0.0
H335 H 0.58109 0.01533 0.92895 0.0
C336 C 0.52579 0.47127 0.4968 0.0
Eu337 Eu 0.52213 0.48699 0.63059 0.0
C338 C 0.51093 0.45497 0.45219 0.0
C339 C 0.50951 0.43061 0.46949 0.0
C340 C 0.49355 0.41587 0.43216 0.0
C341 C 0.47844 0.42512 0.37705 0.0
C342 C 0.48054 0.44932 0.35781 0.0
C343 C 0.49663 0.46408 0.39499 0.0
C344 C 0.55555 0.4971 0.73669 0.0
C345 C 0.50685 0.45055 0.75959 0.0
C346 C 0.47905 0.52192 0.89539 0.0
Eu347 Eu 0.49665 0.50786 0.77053 0.0
C348 C 0.46549 0.54336 0.91476 0.0
C349 C 0.45502 0.54566 0.98449 0.0
C350 C 0.44355 0.56692 1.004 0.0
C351 C 0.44262 0.5861 0.95404 0.0
C352 C 0.45232 0.58328 0.88319 0.0
C353 C 0.46359 0.56205 0.86363 0.0
C354 C 0.46947 0.50335 0.64654 0.0
C355 C 0.5176 0.54505 0.65293 0.0
O356 O 0.5159 0.4918 0.51313 0.0
O357 O 0.53751 0.46189 0.55252 0.0
O358 O 0.56078 0.48821 0.67251 0.0
O359 O 0.53336 0.50031 0.73882 0.0
O360 O 0.5109 0.45294 0.688 0.0
O361 O 0.50357 0.46927 0.80304 0.0
O362 O 0.50123 0.52577 0.87573 0.0
O363 O 0.46804 0.50693 0.85176 0.0
O364 O 0.46773 0.52095 0.69247 0.0
O365 O 0.48476 0.48858 0.6697 0.0
O366 O 0.51144 0.54193 0.72273 0.0
O367 O 0.52039 0.52688 0.60692 0.0
H368 H 0.52039 0.42292 0.51283 0.0
H369 H 0.4931 0.39716 0.44678 0.0
H370 H 0.46926 0.45707 0.31564 0.0
H371 H 0.49738 0.48281 0.38048 0.0
H372 H 0.45627 0.53132 0.02436 0.0
H373 H 0.43642 0.56875 0.05921 0.0
H374 H 0.4517 0.59774 0.84357 0.0
H375 H 0.4714 0.56043 0.80921 0.0
C376 C 0.03516 0.52983 0.51289 0.0
Eu377 Eu 0.01849 0.52268 0.64402 0.0
C378 C 0.05533 0.51855 0.47374 0.0
C379 C 0.07894 0.52443 0.49251 0.0
C380 C 0.09793 0.51126 0.46449 0.0
C381 C 0.0938 0.492 0.41673 0.0
C382 C 0.07032 0.48678 0.39505 0.0
C383 C 0.05123 0.50005 0.42303 0.0
C384 C 1.00645 0.55411 0.75355 0.0
C385 C 0.05698 0.50622 0.76723 0.0
C386 C 0.98761 0.47543 0.90599 0.0
Eu387 Eu 0.99981 0.4942 0.7807 0.0
C388 C 0.96745 0.46075 0.93032 0.0
C389 C 0.97018 0.44508 0.98993 0.0
C390 C 0.95091 0.43127 0.01385 0.0
C391 C 0.92857 0.43301 0.97856 0.0
C392 C 0.9262 0.44836 0.91749 0.0
C393 C 0.94549 0.46198 0.89337 0.0
C394 C 1.00498 0.46883 0.65403 0.0
C395 C 0.96101 0.51377 0.66384 0.0
O396 O 0.01673 0.51603 0.52587 0.0
O397 O 0.0407 0.54327 0.56954 0.0
O398 O 0.01397 0.56054 0.68884 0.0
O399 O 1.00499 0.53173 0.75452 0.0
O400 O 0.05374 0.5135 0.69849 0.0
O401 O 0.0389 0.49998 0.8102 0.0
O402 O 0.9825 0.49747 0.88742 0.0
O403 O 1.00232 0.4651 0.85993 0.0
O404 O 0.98787 0.46554 0.70111 0.0
O405 O 0.01914 0.48464 0.67768 0.0
O406 O 0.96449 0.50669 0.73284 0.0
O407 O 0.97899 0.51873 0.61893 0.0
H408 H 0.08281 0.53862 0.53115 0.0
H409 H 0.11583 0.51561 0.48255 0.0
H410 H 0.06671 0.47225 0.35737 0.0
H411 H 0.03322 0.49521 0.40724 0.0
H412 H 0.98714 0.44368 0.01834 0.0
H413 H 0.95344 0.41942 0.06039 0.0
H414 H 0.90922 0.45052 0.8897 0.0
H415 H 0.94313 0.47378 0.84657 0.0
H416 H 0.15073 0.06942 0.36366 0.0
H417 H 0.13605 0.99907 0.27901 0.0
H418 H 0.12171 0.06318 0.46224 0.0
H419 H 0.10667 0.9929 0.37794 0.0
H420 H 0.03807 1.00481 0.52631 0.0
H421 H 0.06543 0.01154 0.42225 0.0
H422 H 0.11993 0.03466 0.57436 0.0
H423 H 0.09273 0.02777 0.67759 0.0
C424 C 0.1412 0.05264 0.36589 0.0
C425 C 0.14573 0.03474 0.3134 0.0
C426 C 0.12464 0.04905 0.42258 0.0
C427 C 0.11185 0.02758 0.42786 0.0
C428 C 0.11612 0.00971 0.37498 0.0
C429 C 0.13307 0.01315 0.3188 0.0
C430 C 0.05572 0.01178 0.53708 0.0
C431 C 0.06312 0.01623 0.6098 0.0
C432 C 0.07149 0.01529 0.47775 0.0
C433 C 0.09484 0.0237 0.49008 0.0
C434 C 0.10203 0.02837 0.56292 0.0
C435 C 0.08647 0.0244 0.62203 0.0
H436 H 0.45699 0.12047 0.28862 0.0
H437 H 0.50979 0.16707 0.38512 0.0
H438 H 0.46271 0.09222 0.38883 0.0
H439 H 0.51654 0.13811 0.48319 0.0
H440 H 0.50431 0.09492 0.69267 0.0
H441 H 0.49853 0.12276 0.59106 0.0
H442 H 0.4887 0.06357 0.44193 0.0
H443 H 0.49351 0.03593 0.54513 0.0
C444 C 0.4699 0.12474 0.33105 0.0
C445 C 0.48272 0.14635 0.32869 0.0
C446 C 0.47343 0.10827 0.38827 0.0
C447 C 0.49003 0.11278 0.44486 0.0
C448 C 0.50328 0.13411 0.44154 0.0
C449 C 0.49966 0.15064 0.38445 0.0
C450 C 0.50077 0.08784 0.63821 0.0
C451 C 0.49929 0.06309 0.62695 0.0
C452 C 0.49766 0.10384 0.57958 0.0
C453 C 0.4932 0.09557 0.5076 0.0
C454 C 0.49165 0.07074 0.49654 0.0
C455 C 0.49454 0.05476 0.55559 0.0
H456 H 0.344 0.49562 0.36419 0.0
H457 H 0.40098 0.47042 0.22369 0.0
H458 H 0.3727 0.50222 0.46311 0.0
H459 H 0.4294 0.47634 0.32373 0.0
H460 H 0.46719 0.46528 0.55107 0.0
H461 H 0.43907 0.45946 0.44878 0.0
H462 H 0.40722 0.52794 0.49477 0.0
H463 H 0.43498 0.53357 0.59708 0.0
C464 C 0.36262 0.49174 0.3537 0.0
C465 C 0.36993 0.48243 0.28518 0.0
C466 C 0.37911 0.49541 0.41089 0.0
C467 C 0.4034 0.48968 0.40171 0.0
C468 C 0.4108 0.48057 0.33325 0.0
C469 C 0.39438 0.47715 0.27575 0.0
C470 C 0.45429 0.47913 0.53891 0.0
C471 C 0.45333 0.49988 0.58221 0.0
C472 C 0.43825 0.47586 0.48008 0.0
C473 C 0.42088 0.49325 0.46328 0.0
C474 C 0.42014 0.51406 0.50647 0.0
C475 C 0.43617 0.51734 0.56495 0.0
H476 H 0.03789 0.40245 0.22714 0.0
H477 H 0.01693 0.3446 0.37079 0.0
H478 H 0.03179 0.43065 0.32768 0.0
H479 H 0.01 0.37299 0.46992 0.0
H480 H 0.9762 0.43329 0.60505 0.0
H481 H 0.98257 0.40614 0.50205 0.0
H482 H 0.04909 0.44132 0.45222 0.0
H483 H 0.04264 0.46872 0.55606 0.0
C484 C 0.03205 0.39561 0.27993 0.0
C485 C 0.02798 0.37097 0.29004 0.0
C486 C 0.02851 0.4119 0.33769 0.0
C487 C 0.02041 0.40415 0.40705 0.0
C488 C 0.01597 0.37966 0.417 0.0
C489 C 0.01981 0.36333 0.35964 0.0
C490 C 0.99218 0.43534 0.57206 0.0
C491 C 0.00891 0.45321 0.58881 0.0
C492 C 0.99588 0.41966 0.51312 0.0
C493 C 0.01637 0.42145 0.46874 0.0
C494 C 0.03298 0.43961 0.48469 0.0
C495 C 0.02934 0.45526 0.54426 0.0
H496 H 0.83561 0.99329 0.04858 0.0
H497 H 0.89206 0.01994 0.18836 0.0
H498 H 0.86394 0.9887 0.94822 0.0
H499 H 0.91988 0.01728 0.08645 0.0
H500 H 0.97052 0.9998 0.90067 0.0
H501 H 0.94337 0.9955 0.00543 0.0
H502 H 0.88369 0.01176 0.86242 0.0
H503 H 0.91064 0.01451 0.75831 0.0
C504 C 0.85406 0.99805 0.05838 0.0
C505 C 0.86126 0.00733 0.12695 0.0
C506 C 0.87036 0.99579 1.00005 0.0
C507 C 0.89433 1.00303 0.00799 0.0
C508 C 0.90173 0.01137 0.07753 0.0
C509 C 0.88553 0.0133 0.13608 0.0
C510 C 0.95155 1.00186 0.89166 0.0
C511 C 0.94275 0.00721 0.82106 0.0
C512 C 0.93591 0.99974 0.95193 0.0
C513 C 0.91109 1.00327 0.94321 0.0
C514 C 0.90246 0.00835 0.87192 0.0
C515 C 0.91802 0.01015 0.8119 0.0
H516 H 0.50012 0.88953 0.20038 0.0
H517 H 0.5175 0.83183 0.05199 0.0
H518 H 0.50141 0.91743 0.0983 0.0
H519 H 0.52096 0.86005 0.95125 0.0
H520 H 0.49459 0.90915 0.76923 0.0
H521 H 0.49732 0.88187 0.87262 0.0
H522 H 0.52209 0.93945 0.01137 0.0
H523 H 0.51773 0.96704 0.90781 0.0
C524 C 0.50444 0.88271 0.14619 0.0
C525 C 0.50825 0.85812 0.135 0.0
C526 C 0.50559 0.89893 0.08739 0.0
C527 C 0.51101 0.8912 0.01546 0.0
C528 C 0.5161 0.8668 0.00508 0.0
C529 C 0.51455 0.85052 0.06364 0.0
C530 C 0.50074 0.91599 0.82176 0.0
C531 C 0.50612 0.94029 0.83009 0.0
C532 C 0.50255 0.90022 0.88132 0.0
C533 C 0.51014 0.90816 0.95118 0.0
C534 C 0.5159 0.93254 0.95908 0.0
C535 C 0.51371 0.94842 0.89941 0.0
H536 H 0.65468 0.45924 0.0801 0.0
H537 H 0.64947 0.53531 0.11079 0.0
H538 H 0.62719 0.46168 0.9758 0.0
H539 H 0.62138 0.53774 0.0063 0.0
H540 H 0.54927 0.51939 0.87085 0.0
H541 H 0.57764 0.52084 0.97452 0.0
H542 H 0.6287 0.48097 0.84613 0.0
H543 H 0.60073 0.47987 0.74296 0.0
C544 C 0.64758 0.47651 0.06453 0.0
C545 C 0.65422 0.49708 0.10369 0.0
C546 C 0.6319 0.47792 0.00461 0.0
C547 C 0.62207 0.49989 0.98279 0.0
C548 C 0.62857 0.52054 0.0221 0.0
C549 C 0.64473 0.51919 0.08145 0.0
C550 C 0.56662 0.51112 0.86481 0.0
C551 C 0.5727 0.49941 0.79889 0.0
C552 C 0.5829 0.51205 0.92391 0.0
C553 C 0.60537 0.50091 0.91861 0.0
C554 C 0.61148 0.48956 0.85219 0.0
C555 C 0.59545 0.489 0.79299 0.0
H556 H 0.02337 0.67725 0.03272 0.0
H557 H 0.97912 0.63217 0.16865 0.0
H558 H 0.02202 0.64788 0.93472 0.0
H559 H 0.97739 0.60268 0.06949 0.0
H560 H 1.00245 0.54441 0.9023 0.0
H561 H 1.00001 0.5734 1.0033 0.0
H562 H 0.99786 0.63075 0.84403 0.0
H563 H 1.00119 0.60196 0.74455 0.0
C564 C 0.0129 0.66127 0.04124 0.0
C565 C 1.0012 0.65729 0.10873 0.0
C566 C 0.01211 0.64429 0.98472 0.0
C567 C 0.99945 0.62277 0.99336 0.0
C568 C 0.98757 0.61883 0.06075 0.0
C569 C 0.98848 0.63582 0.11766 0.0
C570 C 1.00118 0.56321 0.88923 0.0
C571 C 1.00214 0.5709 0.81551 0.0
C572 C 0.99974 0.57989 0.94707 0.0
C573 C 0.99907 0.60462 0.93238 0.0
C574 C 0.999 0.61202 0.85816 0.0
C575 C 1.00069 0.59545 0.8008 0.0
H576 H 0.12143 0.20119 0.23271 0.0
H577 H 0.0726 0.24305 0.3649 0.0
H578 H 0.10763 0.16513 0.29496 0.0
H579 H 0.06021 0.20747 0.42887 0.0
H580 H 0.01058 0.1438 0.38234 0.0
H581 H 0.03458 0.17858 0.3548 0.0
H582 H 0.09854 0.14002 0.41413 0.0
H583 H 0.07424 0.10491 0.44413 0.0
C584 C 0.10846 0.20291 0.27661 0.0
C585 C 0.09745 0.22501 0.29126 0.0
C586 C 0.10076 0.18225 0.31273 0.0
C587 C 0.08228 0.18356 0.36471 0.0
C588 C 0.07409 0.206 0.38753 0.0
C589 C 0.08151 0.22652 0.35108 0.0
C590 C 0.0297 0.14274 0.39073 0.0
C591 C 0.04044 0.1217 0.41639 0.0
C592 C 0.04346 0.1627 0.37513 0.0
C593 C 0.06835 0.16212 0.38415 0.0
C594 C 0.07934 0.14093 0.40754 0.0
C595 C 0.06546 0.12086 0.42402 0.0
H596 H 0.32153 0.12297 0.19725 0.0
H597 H 0.28994 0.07602 0.3599 0.0
H598 H 0.36059 0.11661 0.25403 0.0
H599 H 0.32828 0.07132 0.41821 0.0
H600 H 0.39831 0.06683 0.52235 0.0
H601 H 0.36489 0.09126 0.48025 0.0
H602 H 0.38254 0.07476 0.2544 0.0
H603 H 0.4155 0.04973 0.2962 0.0
C604 C 0.32264 0.11182 0.24588 0.0
C605 C 0.30243 0.09953 0.27239 0.0
C606 C 0.34501 0.10842 0.27866 0.0
C607 C 0.34741 0.09335 0.33999 0.0
C608 C 0.3269 0.08323 0.37132 0.0
C609 C 0.30474 0.0861 0.33769 0.0
C610 C 0.39528 0.06869 0.46362 0.0
C611 C 0.40907 0.05574 0.41263 0.0
C612 C 0.37632 0.08287 0.43968 0.0
C613 C 0.37105 0.08466 0.36427 0.0
C614 C 0.38636 0.07381 0.3129 0.0
C615 C 0.4052 0.05939 0.33689 0.0
H616 H 0.38985 0.30402 0.26326 0.0
H617 H 0.43789 0.31842 0.0828 0.0
H618 H 0.39686 0.34408 0.31143 0.0
H619 H 0.44594 0.35756 0.13203 0.0
H620 H 0.46413 0.4255 0.23166 0.0
H621 H 0.43912 0.39642 0.16923 0.0
H622 H 0.42919 0.35904 0.37574 0.0
H623 H 0.45221 0.38917 0.43864 0.0
C624 C 0.40137 0.31603 0.23289 0.0
C625 C 0.41339 0.30813 0.16962 0.0
C626 C 0.40564 0.33887 0.26077 0.0
C627 C 0.42249 0.35396 0.22692 0.0
C628 C 0.4327 0.34673 0.15966 0.0
C629 C 0.42808 0.32414 0.13116 0.0
C630 C 0.456 0.41149 0.26412 0.0
C631 C 0.46081 0.40932 0.33995 0.0
C632 C 0.44183 0.39461 0.22808 0.0
C633 C 0.43247 0.37495 0.26679 0.0
C634 C 0.43587 0.37387 0.3436 0.0
C635 C 0.44963 0.39094 0.3797 0.0
H636 H 0.23595 0.44408 0.34937 0.0
H637 H 0.19531 0.39502 0.21454 0.0
H638 H 0.19966 0.45758 0.40687 0.0
H639 H 0.15853 0.41011 0.26959 0.0
H640 H 0.09662 0.44321 0.4107 0.0
H641 H 0.13185 0.41911 0.38 0.0
H642 H 0.17165 0.48359 0.33733 0.0
H643 H 0.13679 0.50741 0.36721 0.0
C644 C 0.21949 0.43545 0.33339 0.0
C645 C 0.21868 0.41893 0.27501 0.0
C646 C 0.19853 0.44357 0.3659 0.0
C647 C 0.1763 0.43563 0.34035 0.0
C648 C 0.17548 0.41685 0.28936 0.0
C649 C 0.19657 0.40839 0.25736 0.0
C650 C 0.11288 0.45212 0.39391 0.0
C651 C 0.1141 0.47718 0.39199 0.0
C652 C 0.133 0.43836 0.37693 0.0
C653 C 0.1546 0.44951 0.35827 0.0
C654 C 0.15546 0.47451 0.35401 0.0
C655 C 0.13547 0.48817 0.37064 0.0
H656 H 0.1139 0.80997 0.23981 0.0
H657 H 0.08256 0.77045 0.05966 0.0
H658 H 0.11777 0.84443 0.16102 0.0
H659 H 0.08921 0.80396 0.97822 0.0
H660 H 0.05319 0.87542 0.9223 0.0
H661 H 0.06601 0.83709 0.9679 0.0
H662 H 0.12781 0.87011 0.06873 0.0
H663 H 0.11369 0.90902 0.02611 0.0
C664 C 0.10853 0.80834 0.18267 0.0
C665 C 0.09663 0.78783 0.15751 0.0
C666 C 0.11116 0.82812 0.13668 0.0
C667 C 0.1027 0.82752 0.0636 0.0
C668 C 0.09475 0.80556 0.0352 0.0
C669 C 0.09137 0.78604 0.08188 0.0
C670 C 0.06979 0.87439 0.95287 0.0
C671 C 0.08231 0.89514 0.9715 0.0
C672 C 0.07739 0.85226 0.9787 0.0
C673 C 0.09799 0.85022 0.02296 0.0
C674 C 0.11155 0.87092 0.03654 0.0
C675 C 0.10359 0.89322 0.01192 0.0
H676 H 0.73046 0.11708 0.1371 0.0
H677 H 0.69341 0.08638 0.32307 0.0
H678 H 0.69237 0.12233 0.07329 0.0
H679 H 0.65582 0.09113 0.25973 0.0
H680 H 0.58952 0.09462 0.13886 0.0
H681 H 0.62397 0.11157 0.20189 0.0
H682 H 0.66861 0.0925 0.01666 0.0
H683 H 0.63403 0.07698 0.95231 0.0
C684 C 0.71415 0.11207 0.16512 0.0
C685 C 0.715 0.10102 0.23466 0.0
C686 C 0.69234 0.11498 0.12853 0.0
C687 C 0.67103 0.10668 0.16059 0.0
C688 C 0.67174 0.09794 0.23327 0.0
C689 C 0.69345 0.09519 0.26989 0.0
C690 C 0.60653 0.09484 0.11056 0.0
C691 C 0.60917 0.08392 0.04131 0.0
C692 C 0.62634 0.10436 0.14701 0.0
C693 C 0.64921 0.10297 0.1152 0.0
C694 C 0.65135 0.09403 0.04306 0.0
C695 C 0.63154 0.08472 0.00648 0.0
H696 H 0.43657 0.73426 0.07284 0.0
H697 H 0.40221 0.69583 0.25049 0.0
H698 H 0.43164 0.70025 0.99338 0.0
H699 H 0.40014 0.66073 0.1734 0.0
H700 H 0.40109 0.59715 0.02668 0.0
H701 H 0.38947 0.63601 0.07651 0.0
H702 H 0.45463 0.66641 0.98937 0.0
H703 H 0.46528 0.62826 0.93744 0.0
C704 C 0.42754 0.71883 0.09513 0.0
C705 C 0.42068 0.71772 0.16974 0.0
C706 C 0.42516 0.69898 0.04948 0.0
C707 C 0.41664 0.67724 0.07773 0.0
C708 C 0.40717 0.67696 0.14954 0.0
C709 C 0.40881 0.69709 0.19455 0.0
C710 C 0.41258 0.61238 0.01738 0.0
C711 C 0.43405 0.60978 0.97827 0.0
C712 C 0.40602 0.63461 0.04604 0.0
C713 C 0.42105 0.65454 0.03728 0.0
C714 C 0.44214 0.65185 0.9959 0.0
C715 C 0.44844 0.62983 0.9664 0.0
H716 H 0.78652 0.4354 0.07495 0.0
H717 H 0.80882 0.3883 0.2512 0.0
H718 H 0.82365 0.42805 0.01129 0.0
H719 H 0.84673 0.38176 0.18783 0.0
H720 H 0.89172 0.41212 0.90226 0.0
H721 H 0.85311 0.39995 0.952 0.0
H722 H 0.87869 0.41348 0.17262 0.0
H723 H 0.91686 0.42623 0.12342 0.0
C724 C 0.79888 0.42275 0.0991 0.0
C725 C 0.79473 0.41282 0.16921 0.0
C726 C 0.82031 0.41858 0.06235 0.0
C727 C 0.83821 0.4046 0.09511 0.0
C728 C 0.83331 0.39289 0.16188 0.0
C729 C 0.81167 0.39679 0.19829 0.0
C730 C 0.88921 0.41219 0.96146 0.0
C731 C 0.90724 0.42066 0.00872 0.0
C732 C 0.86717 0.40504 0.98984 0.0
C733 C 0.86286 0.40594 0.06604 0.0
C734 C 0.88157 0.41232 0.11367 0.0
C735 C 0.90351 0.41968 0.08532 0.0
H736 H 0.06113 0.19436 0.93463 0.0
H737 H 0.98478 0.20372 0.93976 0.0
H738 H 0.05596 0.15352 0.88915 0.0
H739 H 0.97954 0.16295 0.89182 0.0
H740 H 0.9884 0.0992 0.7175 0.0
H741 H 0.99197 0.13987 0.76602 0.0
H742 H 0.03631 0.11384 0.94315 0.0
H743 H 0.03223 0.07313 0.8962 0.0
C744 C 0.04323 0.18765 0.9257 0.0
C745 C 0.02336 0.20219 0.94068 0.0
C746 C 0.04026 0.16427 0.8999 0.0
C747 C 0.01734 0.15498 0.88677 0.0
C748 C 0.99742 0.16963 0.90105 0.0
C749 C 1.00039 0.19289 0.92867 0.0
C750 C 0.99886 0.10211 0.76694 0.0
C751 C 0.01002 0.08281 0.80289 0.0
C752 C 1.00078 0.12541 0.79492 0.0
C753 C 0.01441 0.1301 0.85846 0.0
C754 C 0.02573 0.11084 0.89401 0.0
C755 C 0.02333 0.08749 0.86715 0.0
H756 H 0.30147 0.01105 0.8431 0.0
H757 H 0.32981 0.02021 0.06304 0.0
H758 H 0.34159 0.0079 0.79519 0.0
H759 H 0.36976 0.01436 0.0163 0.0
H760 H 0.44128 0.02853 0.90895 0.0
H761 H 0.40084 0.03137 0.95648 0.0
H762 H 0.37582 0.98734 0.77654 0.0
H763 H 0.4161 0.98609 0.72673 0.0
C764 C 0.31614 0.0122 0.88176 0.0
C765 C 0.31191 0.01624 0.95739 0.0
C766 C 0.33943 0.00992 0.85412 0.0
C767 C 0.35945 0.011 0.9012 0.0
C768 C 0.35515 0.01401 0.97727 0.0
C769 C 0.33189 0.01684 0.00468 0.0
C770 C 0.4271 0.01952 0.87947 0.0
C771 C 0.432 0.00715 0.81385 0.0
C772 C 0.40375 0.02093 0.90719 0.0
C773 C 0.38456 0.00949 0.87118 0.0
C774 C 0.38968 0.99688 0.80568 0.0
C775 C 0.41296 0.99599 0.77706 0.0
H776 H 0.47729 0.30131 0.85961 0.0
H777 H 0.52309 0.32336 0.03875 0.0
H778 H 0.48069 0.34063 0.80447 0.0
H779 H 0.52612 0.36302 0.98372 0.0
H780 H 0.50294 0.43827 0.90582 0.0
H781 H 0.50172 0.39846 0.95997 0.0
H782 H 0.50836 0.36747 0.74315 0.0
H783 H 0.50931 0.40727 0.68876 0.0
C784 C 0.48848 0.31434 0.88682 0.0
C785 C 0.50008 0.30881 0.95373 0.0
C786 C 0.49033 0.33706 0.85509 0.0
C787 C 0.50369 0.35514 0.88937 0.0
C788 C 0.51541 0.34968 0.95609 0.0
C789 C 0.51367 0.32686 0.98772 0.0
C790 C 0.50413 0.423 0.8695 0.0
C791 C 0.50614 0.42613 0.79266 0.0
C792 C 0.50362 0.4001 0.90076 0.0
C793 C 0.50496 0.37962 0.85615 0.0
C794 C 0.50702 0.38276 0.77932 0.0
C795 C 0.50767 0.40566 0.74806 0.0
H796 H 0.20087 0.52853 0.9521 0.0
H797 H 0.19573 0.45326 0.90696 0.0
H798 H 0.15999 0.53423 0.90485 0.0
H799 H 0.15482 0.4588 0.8622 0.0
H800 H 0.07317 0.47789 0.87985 0.0
H801 H 0.114 0.4739 0.92657 0.0
H802 H 0.13793 0.52674 0.77059 0.0
H803 H 0.09715 0.53028 0.72196 0.0
C804 C 0.19099 0.51324 0.93228 0.0
C805 C 0.20156 0.49048 0.93278 0.0
C806 C 0.16766 0.5165 0.90507 0.0
C807 C 0.15418 0.49695 0.87986 0.0
C808 C 0.1647 0.47418 0.88141 0.0
C809 C 0.18815 0.47104 0.90672 0.0
C810 C 0.08708 0.48872 0.85549 0.0
C811 C 0.08181 0.50438 0.79696 0.0
C812 C 0.11049 0.48637 0.88219 0.0
C813 C 0.12918 0.50004 0.8524 0.0
C814 C 0.12389 0.51607 0.79494 0.0
C815 C 0.10055 0.518 0.7669 0.0
H816 H 0.99314 0.83648 0.38237 0.0
H817 H 0.99931 0.80951 0.60508 0.0
H818 H 0.9896 0.87643 0.42966 0.0
H819 H 0.99921 0.8496 0.65151 0.0
H820 H 0.98563 0.92399 0.73324 0.0
H821 H 0.98263 0.88367 0.68519 0.0
H822 H 0.00746 0.90884 0.47272 0.0
H823 H 0.00808 0.9493 0.52004 0.0
C824 C 0.99375 0.83882 0.44151 0.0
C825 C 0.99677 0.81914 0.48911 0.0
C826 C 0.99232 0.86219 0.46899 0.0
C827 C 0.99459 0.86699 0.54509 0.0
C828 C 0.9971 0.84724 0.59273 0.0
C829 C 0.99774 0.82385 0.56547 0.0
C830 C 0.99023 0.92079 0.67608 0.0
C831 C 0.99698 0.93984 0.6304 0.0
C832 C 0.98878 0.89748 0.64823 0.0
C833 C 0.99491 0.89229 0.57431 0.0
C834 C 1.00191 0.91162 0.52913 0.0
C835 C 1.00253 0.93502 0.55643 0.0
H836 H 0.67471 0.98493 0.38061 0.0
H837 H 0.70423 0.00811 0.58884 0.0
H838 H 0.63522 0.98418 0.43515 0.0
H839 H 0.66525 1.00508 0.64492 0.0
H840 H 0.58939 0.0244 0.70909 0.0
H841 H 0.62909 0.02383 0.65533 0.0
H842 H 0.60774 0.96625 0.51129 0.0
H843 H 0.56761 0.9679 0.56252 0.0
C844 C 0.67297 0.98967 0.43818 0.0
C845 C 0.69306 0.99676 0.47954 0.0
C846 C 0.65015 0.98886 0.47009 0.0
C847 C 0.64663 0.99471 0.54491 0.0
C848 C 0.66685 1.00094 0.58686 0.0
C849 C 0.68956 1.00218 0.55469 0.0
C850 C 0.59318 0.01156 0.66607 0.0
C851 C 0.5752 0.99625 0.64016 0.0
C852 C 0.61614 0.01108 0.63532 0.0
C853 C 0.62203 0.99493 0.57853 0.0
C854 C 0.60404 0.97931 0.55363 0.0
C855 C 0.58094 0.98012 0.58351 0.0
H856 H 0.53807 0.69883 0.57721 0.0
H857 H 0.50181 0.6721 0.384 0.0
H858 H 0.54029 0.65837 0.62666 0.0
H859 H 0.50426 0.63183 0.43299 0.0
H860 H 0.52883 0.55903 0.51206 0.0
H861 H 0.531 0.59936 0.46258 0.0
H862 H 0.51404 0.62784 0.67737 0.0
H863 H 0.5122 0.58747 0.7273 0.0
C864 C 0.53063 0.68439 0.54504 0.0
C865 C 0.5198 0.68894 0.47628 0.0
C866 C 0.53188 0.66113 0.57355 0.0
C867 C 0.52241 0.64171 0.53407 0.0
C868 C 0.51209 0.64619 0.46462 0.0
C869 C 0.51077 0.66941 0.43627 0.0
C870 C 0.52573 0.57385 0.54907 0.0
C871 C 0.52029 0.56983 0.62385 0.0
C872 C 0.52683 0.59705 0.52045 0.0
C873 C 0.52259 0.61699 0.56571 0.0
C874 C 0.51768 0.61301 0.64089 0.0
C875 C 0.5165 0.58977 0.66952 0.0
H876 H 0.80693 0.52916 0.57377 0.0
H877 H 0.83706 0.49434 0.38284 0.0
H878 H 0.84665 0.53158 0.62893 0.0
H879 H 0.87659 0.49721 0.43732 0.0
H880 H 0.9473 0.52531 0.52321 0.0
H881 H 0.90735 0.52576 0.47084 0.0
H882 H 0.87805 0.50558 0.68189 0.0
H883 H 0.91824 0.5053 0.73499 0.0
C884 C 0.82193 0.52204 0.54332 0.0
C885 C 0.81853 0.51162 0.47334 0.0
C886 C 0.84477 0.52342 0.57515 0.0
C887 C 0.86495 0.5146 0.53777 0.0
C888 C 0.86161 0.50455 0.46742 0.0
C889 C 0.83881 0.50302 0.43585 0.0
C890 C 0.93241 0.52108 0.55893 0.0
C891 C 0.93619 0.51521 0.6336 0.0
C892 C 0.90941 0.5212 0.52854 0.0
C893 C 0.88936 0.51556 0.57178 0.0
C894 C 0.893 0.51021 0.64693 0.0
C895 C 0.91611 0.50995 0.67738 0.0
loop_
_geom_bond_atom_site_label_1
_geom_bond_atom_site_label_2
_geom_bond_distance
_geom_bond_site_symmetry_2
_ccdc_geom_bond_type
P0 O11 1.490 . S
P0 C14 1.812 . S
P0 C20 1.803 . S
P0 C26 1.819 . S
H1 C15 0.941 . S
H2 C16 0.939 . S
H3 C18 0.940 . S
H4 C19 0.940 . S
H5 C21 0.939 . S
H6 C22 0.942 . S
H7 C24 0.940 . S
H8 C25 0.939 . S
H9 C27 0.941 . S
H10 C31 0.939 . S
O11 P0 1.490 . S
H12 C28 0.939 . S
H13 C30 0.940 . S
C14 P0 1.812 . S
C14 C15 1.389 . S
C14 C19 1.391 . S
C15 H1 0.941 . S
C15 C14 1.389 . S
C15 C16 1.397 . S
C16 H2 0.939 . S
C16 C15 1.397 . S
C16 C17 1.378 . S
C17 C16 1.378 . S
C17 C18 1.378 . S
C18 H3 0.940 . S
C18 C17 1.378 . S
C18 C19 1.396 . S
C19 H4 0.940 . S
C19 C14 1.391 . S
C19 C18 1.396 . S
C20 P0 1.803 . S
C20 C21 1.378 . S
C20 C25 1.400 . S
C21 H5 0.939 . S
C21 C20 1.378 . S
C21 C22 1.361 . S
C22 H6 0.942 . S
C22 C21 1.361 . S
C22 C23 1.369 . S
C23 C22 1.369 . S
C23 C24 1.404 . S
C24 H7 0.940 . S
C24 C23 1.404 . S
C24 C25 1.389 . S
C25 H8 0.939 . S
C25 C20 1.400 . S
C25 C24 1.389 . S
C26 P0 1.819 . S
C26 C27 1.391 . S
C26 C31 1.391 . S
C27 H9 0.941 . S
C27 C26 1.391 . S
C27 C28 1.396 . S
C28 H12 0.939 . S
C28 C27 1.396 . S
C28 C29 1.397 . S
C29 C28 1.397 . S
C29 C30 1.385 . S
C30 H13 0.940 . S
C30 C29 1.385 . S
C30 C31 1.388 . S
C31 H10 0.939 . S
C31 C26 1.391 . S
C31 C30 1.388 . S
P32 O43 1.490 . S
P32 C46 1.812 . S
P32 C52 1.803 . S
P32 C58 1.819 . S
H33 C47 0.941 . S
H34 C48 0.939 . S
H35 C50 0.940 . S
H36 C51 0.950 . S
H37 C53 0.939 . S
H38 C54 0.942 . S
H39 C56 0.940 . S
H40 C57 0.959 . S
H41 C59 0.941 . S
H42 C63 0.929 1_655 S
O43 P32 1.490 . S
H44 C60 0.939 . S
H45 C62 0.940 . S
C46 P32 1.812 . S
C46 C47 1.389 . S
C46 C51 1.375 1_455 S
C47 H33 0.941 . S
C47 C46 1.389 . S
C47 C48 1.397 . S
C48 H34 0.939 . S
C48 C47 1.397 . S
C48 C49 1.378 . S
C49 C48 1.378 . S
C49 C50 1.378 1_455 S
C50 H35 0.940 . S
C50 C49 1.378 1_655 S
C50 C51 1.403 . S
C51 H36 0.950 . S
C51 C46 1.375 1_655 S
C51 C50 1.403 . S
C52 P32 1.803 . S
C52 C53 1.378 . S
C52 C57 1.368 1_455 S
C53 H37 0.939 . S
C53 C52 1.378 . S
C53 C54 1.361 . S
C54 H38 0.942 . S
C54 C53 1.361 . S
C54 C55 1.369 . S
C55 C54 1.369 . S
C55 C56 1.404 1_455 S
C56 H39 0.940 . S
C56 C55 1.404 1_655 S
C56 C57 1.402 . S
C57 H40 0.959 . S
C57 C52 1.368 1_655 S
C57 C56 1.402 . S
C58 P32 1.819 . S
C58 C59 1.391 . S
C58 C63 1.391 . S
C59 H41 0.941 . S
C59 C58 1.391 . S
C59 C60 1.396 . S
C60 H44 0.939 . S
C60 C59 1.396 . S
C60 C61 1.397 . S
C61 C60 1.397 . S
C61 C62 1.385 1_455 S
C62 H45 0.940 . S
C62 C61 1.385 1_655 S
C62 C63 1.388 1_655 S
C63 H42 0.929 1_455 S
C63 C58 1.391 . S
C63 C62 1.388 1_455 S
P64 O75 1.490 . S
P64 C78 1.812 . S
P64 C84 1.803 . S
P64 C90 1.819 . S
H65 C79 0.941 . S
H66 C80 0.939 . S
H67 C82 0.940 . S
H68 C83 0.950 . S
H69 C85 0.939 . S
H70 C86 0.942 . S
H71 C88 0.940 . S
H72 C89 0.959 . S
H73 C91 0.941 . S
H74 C95 0.929 1_565 S
O75 P64 1.490 . S
H76 C92 0.939 . S
H77 C94 0.940 . S
C78 P64 1.812 . S
C78 C79 1.389 . S
C78 C83 1.375 1_545 S
C79 H65 0.941 . S
C79 C78 1.389 . S
C79 C80 1.397 . S
C80 H66 0.939 . S
C80 C79 1.397 . S
C80 C81 1.378 . S
C81 C80 1.378 . S
C81 C82 1.378 1_545 S
C82 H67 0.940 . S
C82 C81 1.378 1_565 S
C82 C83 1.403 . S
C83 H68 0.950 . S
C83 C78 1.375 1_565 S
C83 C82 1.403 . S
C84 P64 1.803 . S
C84 C85 1.378 . S
C84 C89 1.368 1_545 S
C85 H69 0.939 . S
C85 C84 1.378 . S
C85 C86 1.361 . S
C86 H70 0.942 . S
C86 C85 1.361 . S
C86 C87 1.369 . S
C87 C86 1.369 . S
C87 C88 1.404 1_545 S
C88 H71 0.940 . S
C88 C87 1.404 1_565 S
C88 C89 1.402 . S
C89 H72 0.959 . S
C89 C84 1.368 1_565 S
C89 C88 1.402 . S
C90 P64 1.819 . S
C90 C91 1.391 . S
C90 C95 1.391 . S
C91 H73 0.941 . S
C91 C90 1.391 . S
C91 C92 1.396 . S
C92 H76 0.939 . S
C92 C91 1.396 . S
C92 C93 1.397 . S
C93 C92 1.397 . S
C93 C94 1.385 1_545 S
C94 H77 0.940 . S
C94 C93 1.385 1_565 S
C94 C95 1.388 1_565 S
C95 H74 0.929 1_545 S
C95 C90 1.391 . S
C95 C94 1.388 1_545 S
P96 O107 1.490 . S
P96 C110 1.812 . S
P96 C116 1.803 . S
P96 C122 1.819 . S
H97 C111 0.941 . S
H98 C112 0.939 . S
H99 C114 0.940 . S
H100 C115 0.940 . S
H101 C117 0.939 . S
H102 C118 0.942 . S
H103 C120 0.940 . S
H104 C121 0.939 . S
H105 C123 0.941 . S
H106 C127 0.939 . S
O107 P96 1.490 . S
H108 C124 0.939 . S
H109 C126 0.940 . S
C110 P96 1.812 . S
C110 C111 1.389 . S
C110 C115 1.391 . S
C111 H97 0.941 . S
C111 C110 1.389 . S
C111 C112 1.397 . S
C112 H98 0.939 . S
C112 C111 1.397 . S
C112 C113 1.378 . S
C113 C112 1.378 . S
C113 C114 1.378 . S
C114 H99 0.940 . S
C114 C113 1.378 . S
C114 C115 1.396 . S
C115 H100 0.940 . S
C115 C110 1.391 . S
C115 C114 1.396 . S
C116 P96 1.803 . S
C116 C117 1.378 . S
C116 C121 1.400 . S
C117 H101 0.939 . S
C117 C116 1.378 . S
C117 C118 1.361 . S
C118 H102 0.942 . S
C118 C117 1.361 . S
C118 C119 1.369 . S
C119 C118 1.369 . S
C119 C120 1.404 . S
C120 H103 0.940 . S
C120 C119 1.404 . S
C120 C121 1.389 . S
C121 H104 0.939 . S
C121 C116 1.400 . S
C121 C120 1.389 . S
C122 P96 1.819 . S
C122 C123 1.391 . S
C122 C127 1.391 . S
C123 H105 0.941 . S
C123 C122 1.391 . S
C123 C124 1.396 . S
C124 H108 0.939 . S
C124 C123 1.396 . S
C124 C125 1.397 . S
C125 C124 1.397 . S
C125 C126 1.385 . S
C126 H109 0.940 . S
C126 C125 1.385 . S
C126 C127 1.388 . S
C127 H106 0.939 . S
C127 C122 1.391 . S
C127 C126 1.388 . S
P128 O139 1.490 . S
P128 C142 1.812 1_554 S
P128 C148 1.803 . S
P128 C154 1.819 . S
H129 C143 0.941 . S
H130 C144 0.939 . S
H131 C146 0.940 . S
H132 C147 0.940 1_554 S
H133 C149 0.939 . S
H134 C150 0.942 . S
H135 C152 0.940 . S
H136 C153 0.939 . S
H137 C155 0.941 . S
H138 C159 0.939 . S
O139 P128 1.490 . S
H140 C156 0.939 . S
H141 C158 0.940 . S
C142 P128 1.812 1_556 S
C142 C143 1.389 . S
C142 C147 1.391 . S
C143 H129 0.941 . S
C143 C142 1.389 . S
C143 C144 1.397 . S
C144 H130 0.939 . S
C144 C143 1.397 . S
C144 C145 1.378 . S
C145 C144 1.378 . S
C145 C146 1.378 . S
C146 H131 0.940 . S
C146 C145 1.378 . S
C146 C147 1.396 . S
C147 H132 0.940 1_556 S
C147 C142 1.391 . S
C147 C146 1.396 . S
C148 P128 1.803 . S
C148 C149 1.378 . S
C148 C153 1.400 . S
C149 H133 0.939 . S
C149 C148 1.378 . S
C149 C150 1.361 . S
C150 H134 0.942 . S
C150 C149 1.361 . S
C150 C151 1.369 . S
C151 C150 1.369 . S
C151 C152 1.404 . S
C152 H135 0.940 . S
C152 C151 1.404 . S
C152 C153 1.389 . S
C153 H136 0.939 . S
C153 C148 1.400 . S
C153 C152 1.389 . S
C154 P128 1.819 . S
C154 C155 1.391 . S
C154 C159 1.391 . S
C155 H137 0.941 . S
C155 C154 1.391 . S
C155 C156 1.396 . S
C156 H140 0.939 . S
C156 C155 1.396 . S
C156 C157 1.397 . S
C157 C156 1.397 . S
C157 C158 1.385 . S
C158 H141 0.940 . S
C158 C157 1.385 . S
C158 C159 1.388 . S
C159 H138 0.939 . S
C159 C154 1.391 . S
C159 C158 1.388 . S
P160 O171 1.490 . S
P160 C174 1.812 1_554 S
P160 C180 1.803 . S
P160 C186 1.819 . S
H161 C175 0.941 . S
H162 C176 0.939 . S
H163 C178 0.940 . S
H164 C179 0.944 1_554 S
H165 C181 0.939 . S
H166 C182 0.942 . S
H167 C184 0.940 . S
H168 C185 0.953 . S
H169 C187 0.941 . S
H170 C191 0.933 1_655 S
O171 P160 1.490 . S
H172 C188 0.939 . S
H173 C190 0.940 . S
C174 P160 1.812 1_556 S
C174 C175 1.389 . S
C174 C179 1.385 1_455 S
C175 H161 0.941 . S
C175 C174 1.389 . S
C175 C176 1.397 . S
C176 H162 0.939 . S
C176 C175 1.397 . S
C176 C177 1.378 . S
C177 C176 1.378 . S
C177 C178 1.378 1_455 S
C178 H163 0.940 . S
C178 C177 1.378 1_655 S
C178 C179 1.399 . S
C179 H164 0.944 1_556 S
C179 C174 1.385 1_655 S
C179 C178 1.399 . S
C180 P160 1.803 . S
C180 C181 1.378 . S
C180 C185 1.379 1_455 S
C181 H165 0.939 . S
C181 C180 1.378 . S
C181 C182 1.361 . S
C182 H166 0.942 . S
C182 C181 1.361 . S
C182 C183 1.369 . S
C183 C182 1.369 . S
C183 C184 1.404 1_455 S
C184 H167 0.940 . S
C184 C183 1.404 1_655 S
C184 C185 1.398 . S
C185 H168 0.953 . S
C185 C180 1.379 1_655 S
C185 C184 1.398 . S
C186 P160 1.819 . S
C186 C187 1.391 . S
C186 C191 1.391 . S
C187 H169 0.941 . S
C187 C186 1.391 . S
C187 C188 1.396 . S
C188 H172 0.939 . S
C188 C187 1.396 . S
C188 C189 1.397 . S
C189 C188 1.397 . S
C189 C190 1.385 1_455 S
C190 H173 0.940 . S
C190 C189 1.385 1_655 S
C190 C191 1.388 1_655 S
C191 H170 0.933 1_455 S
C191 C186 1.391 . S
C191 C190 1.388 1_455 S
P192 O203 1.490 . S
P192 C206 1.812 1_554 S
P192 C212 1.803 . S
P192 C218 1.819 . S
H193 C207 0.941 . S
H194 C208 0.939 . S
H195 C210 0.940 . S
H196 C211 0.944 1_554 S
H197 C213 0.939 . S
H198 C214 0.942 . S
H199 C216 0.940 . S
H200 C217 0.953 . S
H201 C219 0.941 . S
H202 C223 0.933 1_565 S
O203 P192 1.490 . S
H204 C220 0.939 . S
H205 C222 0.940 . S
C206 P192 1.812 1_556 S
C206 C207 1.389 . S
C206 C211 1.385 1_545 S
C207 H193 0.941 . S
C207 C206 1.389 . S
C207 C208 1.397 . S
C208 H194 0.939 . S
C208 C207 1.397 . S
C208 C209 1.378 . S
C209 C208 1.378 . S
C209 C210 1.378 1_545 S
C210 H195 0.940 . S
C210 C209 1.378 1_565 S
C210 C211 1.399 . S
C211 H196 0.944 1_556 S
C211 C206 1.385 1_565 S
C211 C210 1.399 . S
C212 P192 1.803 . S
C212 C213 1.378 . S
C212 C217 1.379 1_545 S
C213 H197 0.939 . S
C213 C212 1.378 . S
C213 C214 1.361 . S
C214 H198 0.942 . S
C214 C213 1.361 . S
C214 C215 1.369 . S
C215 C214 1.369 . S
C215 C216 1.404 1_545 S
C216 H199 0.940 . S
C216 C215 1.404 1_565 S
C216 C217 1.398 . S
C217 H200 0.953 . S
C217 C212 1.379 1_565 S
C217 C216 1.398 . S
C218 P192 1.819 . S
C218 C219 1.391 . S
C218 C223 1.391 . S
C219 H201 0.941 . S
C219 C218 1.391 . S
C219 C220 1.396 . S
C220 H204 0.939 . S
C220 C219 1.396 . S
C220 C221 1.397 . S
C221 C220 1.397 . S
C221 C222 1.385 1_545 S
C222 H205 0.940 . S
C222 C221 1.385 1_565 S
C222 C223 1.388 1_565 S
C223 H202 0.933 1_545 S
C223 C218 1.391 . S
C223 C222 1.388 1_545 S
P224 O235 1.490 . S
P224 C238 1.812 1_554 S
P224 C244 1.803 . S
P224 C250 1.819 . S
H225 C239 0.941 . S
H226 C240 0.939 . S
H227 C242 0.940 . S
H228 C243 0.940 1_554 S
H229 C245 0.939 . S
H230 C246 0.942 . S
H231 C248 0.940 . S
H232 C249 0.939 . S
H233 C251 0.941 . S
H234 C255 0.939 . S
O235 P224 1.490 . S
H236 C252 0.939 . S
H237 C254 0.940 . S
C238 P224 1.812 1_556 S
C238 C239 1.389 . S
C238 C243 1.391 . S
C239 H225 0.941 . S
C239 C238 1.389 . S
C239 C240 1.397 . S
C240 H226 0.939 . S
C240 C239 1.397 . S
C240 C241 1.378 . S
C241 C240 1.378 . S
C241 C242 1.378 . S
C242 H227 0.940 . S
C242 C241 1.378 . S
C242 C243 1.396 . S
C243 H228 0.940 1_556 S
C243 C238 1.391 . S
C243 C242 1.396 . S
C244 P224 1.803 . S
C244 C245 1.378 . S
C244 C249 1.400 . S
C245 H229 0.939 . S
C245 C244 1.378 . S
C245 C246 1.361 . S
C246 H230 0.942 . S
C246 C245 1.361 . S
C246 C247 1.369 . S
C247 C246 1.369 . S
C247 C248 1.404 . S
C248 H231 0.940 . S
C248 C247 1.404 . S
C248 C249 1.389 . S
C249 H232 0.939 . S
C249 C244 1.400 . S
C249 C248 1.389 . S
C250 P224 1.819 . S
C250 C251 1.391 . S
C250 C255 1.391 . S
C251 H233 0.941 . S
C251 C250 1.391 . S
C251 C252 1.396 . S
C252 H236 0.939 . S
C252 C251 1.396 . S
C252 C253 1.397 . S
C253 C252 1.397 . S
C253 C254 1.385 . S
C254 H237 0.940 . S
C254 C253 1.385 . S
C254 C255 1.388 . S
C255 H234 0.939 . S
C255 C250 1.391 . S
C255 C254 1.388 . S
C256 Eu257 2.835 . S
C256 C258 1.500 . S
C256 O276 1.257 . S
C256 O277 1.260 . S
Eu257 C256 2.835 . S
Eu257 O276 2.473 . S
Eu257 O277 2.480 . S
Eu257 O278 2.430 . S
Eu257 O279 2.670 1_545 S
Eu257 O280 2.394 . S
Eu257 O285 2.355 1_655 S
Eu257 O287 2.374 1_545 S
C258 C256 1.500 . S
C258 C259 1.377 . S
C258 C263 1.377 . S
C259 C258 1.377 . S
C259 C260 1.395 . S
C259 H288 0.931 . S
C260 C259 1.395 . S
C260 C261 1.383 . S
C260 H289 0.931 . S
C261 C260 1.383 . S
C261 C262 1.394 . S
C262 C261 1.394 . S
C262 C263 1.378 . S
C262 H290 0.931 1_655 S
C263 C258 1.377 . S
C263 C262 1.378 . S
C263 H291 0.931 1_655 S
C264 O278 1.259 . S
C264 O279 1.270 1_545 S
C265 O280 1.251 1_455 S
C265 O281 1.251 . S
C266 Eu267 2.835 . S
C266 C268 1.500 . S
C266 O282 1.257 . S
C266 O283 1.260 . S
Eu267 C266 2.835 . S
Eu267 O279 2.355 1_455 S
Eu267 O281 2.374 1_565 S
Eu267 O282 2.473 . S
Eu267 O283 2.480 . S
Eu267 O284 2.430 . S
Eu267 O285 2.670 1_565 S
Eu267 O286 2.394 . S
C268 C266 1.500 . S
C268 C269 1.377 . S
C268 C273 1.377 . S
C269 C268 1.377 . S
C269 C270 1.395 . S
C269 H292 0.931 . S
C270 C269 1.395 . S
C270 C271 1.383 . S
C270 H293 0.931 . S
C271 C270 1.383 . S
C271 C272 1.394 . S
C272 C271 1.394 . S
C272 C273 1.378 . S
C272 H294 0.931 1_455 S
C273 C268 1.377 . S
C273 C272 1.378 . S
C273 H295 0.931 1_455 S
C274 O284 1.281 . S
C274 O285 1.254 1_565 S
C275 O286 1.251 1_655 S
C275 O287 1.251 . S
O276 C256 1.257 . S
O276 Eu257 2.473 . S
O277 C256 1.260 . S
O277 Eu257 2.480 . S
O278 Eu257 2.430 . S
O278 C264 1.259 . S
O279 Eu257 2.670 1_565 S
O279 C264 1.270 1_565 S
O279 Eu267 2.355 1_655 S
O280 Eu257 2.394 . S
O280 C265 1.251 1_655 S
O281 C265 1.251 . S
O281 Eu267 2.374 1_545 S
O282 C266 1.257 . S
O282 Eu267 2.473 . S
O283 C266 1.260 . S
O283 Eu267 2.480 . S
O284 Eu267 2.430 . S
O284 C274 1.281 . S
O285 Eu257 2.355 1_455 S
O285 Eu267 2.670 1_545 S
O285 C274 1.254 1_545 S
O286 Eu267 2.394 . S
O286 C275 1.251 1_455 S
O287 Eu257 2.374 1_565 S
O287 C275 1.251 . S
H288 C259 0.931 . S
H289 C260 0.931 . S
H290 C262 0.931 1_455 S
H291 C263 0.931 1_455 S
H292 C269 0.931 . S
H293 C270 0.931 . S
H294 C272 0.931 1_655 S
H295 C273 0.931 1_655 S
C296 Eu297 2.835 . S
C296 C298 1.500 . S
C296 O316 1.257 . S
C296 O317 1.260 . S
Eu297 C296 2.835 . S
Eu297 O316 2.473 . S
Eu297 O317 2.480 . S
Eu297 O318 2.430 . S
Eu297 O319 2.670 . S
Eu297 O320 2.394 . S
Eu297 O325 2.355 1_565 S
Eu297 O327 2.374 . S
C298 C296 1.500 . S
C298 C299 1.377 . S
C298 C303 1.377 . S
C299 C298 1.377 . S
C299 C300 1.395 . S
C299 H328 0.931 . S
C300 C299 1.395 . S
C300 C301 1.383 . S
C300 H329 0.931 . S
C301 C300 1.383 . S
C301 C302 1.394 . S
C302 C301 1.394 . S
C302 C303 1.378 . S
C302 H330 0.931 1_565 S
C303 C298 1.377 . S
C303 C302 1.378 . S
C303 H331 0.931 1_565 S
C304 O318 1.259 . S
C304 O319 1.270 . S
C305 O320 1.251 1_545 S
C305 O321 1.251 . S
C306 Eu307 2.835 . S
C306 C308 1.500 . S
C306 O322 1.257 . S
C306 O323 1.260 . S
Eu307 C306 2.835 . S
Eu307 O319 2.355 1_545 S
Eu307 O321 2.374 . S
Eu307 O322 2.473 . S
Eu307 O323 2.480 . S
Eu307 O324 2.430 . S
Eu307 O325 2.670 . S
Eu307 O326 2.394 . S
C308 C306 1.500 . S
C308 C309 1.377 . S
C308 C313 1.377 . S
C309 C308 1.377 . S
C309 C310 1.395 . S
C309 H332 0.931 . S
C310 C309 1.395 . S
C310 C311 1.383 . S
C310 H333 0.931 . S
C311 C310 1.383 . S
C311 C312 1.394 . S
C312 C311 1.394 . S
C312 C313 1.378 . S
C312 H334 0.931 1_545 S
C313 C308 1.377 . S
C313 C312 1.378 . S
C313 H335 0.931 1_545 S
C314 O324 1.259 . S
C314 O325 1.270 . S
C315 O326 1.251 1_565 S
C315 O327 1.251 . S
O316 C296 1.257 . S
O316 Eu297 2.473 . S
O317 C296 1.260 . S
O317 Eu297 2.480 . S
O318 Eu297 2.430 . S
O318 C304 1.259 . S
O319 Eu297 2.670 . S
O319 C304 1.270 . S
O319 Eu307 2.355 1_565 S
O320 Eu297 2.394 . S
O320 C305 1.251 1_565 S
O321 C305 1.251 . S
O321 Eu307 2.374 . S
O322 C306 1.257 . S
O322 Eu307 2.473 . S
O323 C306 1.260 . S
O323 Eu307 2.480 . S
O324 Eu307 2.430 . S
O324 C314 1.259 . S
O325 Eu297 2.355 1_545 S
O325 Eu307 2.670 . S
O325 C314 1.270 . S
O326 Eu307 2.394 . S
O326 C315 1.251 1_545 S
O327 Eu297 2.374 . S
O327 C315 1.251 . S
H328 C299 0.931 . S
H329 C300 0.931 . S
H330 C302 0.931 1_545 S
H331 C303 0.931 1_545 S
H332 C309 0.931 . S
H333 C310 0.931 . S
H334 C312 0.931 1_565 S
H335 C313 0.931 1_565 S
C336 Eu337 2.835 . S
C336 C338 1.500 . S
C336 O356 1.257 . S
C336 O357 1.260 . S
Eu337 C336 2.835 . S
Eu337 O356 2.473 . S
Eu337 O357 2.480 . S
Eu337 O358 2.430 . S
Eu337 O359 2.670 . S
Eu337 O360 2.394 . S
Eu337 O365 2.355 . S
Eu337 O367 2.374 . S
C338 C336 1.500 . S
C338 C339 1.377 . S
C338 C343 1.377 . S
C339 C338 1.377 . S
C339 C340 1.395 . S
C339 H368 0.931 . S
C340 C339 1.395 . S
C340 C341 1.383 . S
C340 H369 0.931 . S
C341 C340 1.383 . S
C341 C342 1.394 . S
C342 C341 1.394 . S
C342 C343 1.378 . S
C342 H370 0.931 . S
C343 C338 1.377 . S
C343 C342 1.378 . S
C343 H371 0.931 . S
C344 O358 1.259 . S
C344 O359 1.270 . S
C345 O360 1.251 . S
C345 O361 1.251 . S
C346 Eu347 2.835 . S
C346 C348 1.500 . S
C346 O362 1.257 . S
C346 O363 1.260 . S
Eu347 C346 2.835 . S
Eu347 O359 2.355 . S
Eu347 O361 2.374 . S
Eu347 O362 2.473 . S
Eu347 O363 2.480 . S
Eu347 O364 2.430 . S
Eu347 O365 2.670 . S
Eu347 O366 2.394 . S
C348 C346 1.500 . S
C348 C349 1.377 . S
C348 C353 1.377 . S
C349 C348 1.377 . S
C349 C350 1.395 . S
C349 H372 0.931 . S
C350 C349 1.395 . S
C350 C351 1.383 . S
C350 H373 0.931 . S
C351 C350 1.383 . S
C351 C352 1.394 . S
C352 C351 1.394 . S
C352 C353 1.378 . S
C352 H374 0.931 . S
C353 C348 1.377 . S
C353 C352 1.378 . S
C353 H375 0.931 . S
C354 O364 1.259 . S
C354 O365 1.270 . S
C355 O366 1.251 . S
C355 O367 1.251 . S
O356 C336 1.257 . S
O356 Eu337 2.473 . S
O357 C336 1.260 . S
O357 Eu337 2.480 . S
O358 Eu337 2.430 . S
O358 C344 1.259 . S
O359 Eu337 2.670 . S
O359 C344 1.270 . S
O359 Eu347 2.355 . S
O360 Eu337 2.394 . S
O360 C345 1.251 . S
O361 C345 1.251 . S
O361 Eu347 2.374 . S
O362 C346 1.257 . S
O362 Eu347 2.473 . S
O363 C346 1.260 . S
O363 Eu347 2.480 . S
O364 Eu347 2.430 . S
O364 C354 1.259 . S
O365 Eu337 2.355 . S
O365 Eu347 2.670 . S
O365 C354 1.270 . S
O366 Eu347 2.394 . S
O366 C355 1.251 . S
O367 Eu337 2.374 . S
O367 C355 1.251 . S
H368 C339 0.931 . S
H369 C340 0.931 . S
H370 C342 0.931 . S
H371 C343 0.931 . S
H372 C349 0.931 . S
H373 C350 0.931 . S
H374 C352 0.931 . S
H375 C353 0.931 . S
C376 Eu377 2.835 . S
C376 C378 1.500 . S
C376 O396 1.257 . S
C376 O397 1.260 . S
Eu377 C376 2.835 . S
Eu377 O396 2.473 . S
Eu377 O397 2.480 . S
Eu377 O398 2.430 . S
Eu377 O399 2.670 1_455 S
Eu377 O400 2.394 . S
Eu377 O405 2.355 . S
Eu377 O407 2.374 1_455 S
C378 C376 1.500 . S
C378 C379 1.377 . S
C378 C383 1.377 . S
C379 C378 1.377 . S
C379 C380 1.395 . S
C379 H408 0.931 . S
C380 C379 1.395 . S
C380 C381 1.383 . S
C380 H409 0.931 . S
C381 C380 1.383 . S
C381 C382 1.394 . S
C382 C381 1.394 . S
C382 C383 1.378 . S
C382 H410 0.931 . S
C383 C378 1.377 . S
C383 C382 1.378 . S
C383 H411 0.931 . S
C384 O398 1.267 . S
C384 O399 1.264 1_455 S
C385 O400 1.251 . S
C385 O401 1.251 . S
C386 Eu387 2.835 . S
C386 C388 1.500 . S
C386 O402 1.257 . S
C386 O403 1.260 . S
Eu387 C386 2.835 . S
Eu387 O399 2.355 . S
Eu387 O401 2.374 1_655 S
Eu387 O402 2.473 . S
Eu387 O403 2.480 . S
Eu387 O404 2.430 . S
Eu387 O405 2.670 1_655 S
Eu387 O406 2.394 . S
C388 C386 1.500 . S
C388 C389 1.377 . S
C388 C393 1.377 . S
C389 C388 1.377 . S
C389 C390 1.395 . S
C389 H412 0.931 . S
C390 C389 1.395 . S
C390 C391 1.383 . S
C390 H413 0.931 . S
C391 C390 1.383 . S
C391 C392 1.394 . S
C392 C391 1.394 . S
C392 C393 1.378 . S
C392 H414 0.931 . S
C393 C388 1.377 . S
C393 C392 1.378 . S
C393 H415 0.931 . S
C394 O404 1.261 . S
C394 O405 1.268 1_655 S
C395 O406 1.251 . S
C395 O407 1.251 . S
O396 C376 1.257 . S
O396 Eu377 2.473 . S
O397 C376 1.260 . S
O397 Eu377 2.480 . S
O398 Eu377 2.430 . S
O398 C384 1.267 . S
O399 Eu377 2.670 1_655 S
O399 C384 1.264 1_655 S
O399 Eu387 2.355 . S
O400 Eu377 2.394 . S
O400 C385 1.251 . S
O401 C385 1.251 . S
O401 Eu387 2.374 1_455 S
O402 C386 1.257 . S
O402 Eu387 2.473 . S
O403 C386 1.260 . S
O403 Eu387 2.480 . S
O404 Eu387 2.430 . S
O404 C394 1.261 . S
O405 Eu377 2.355 . S
O405 Eu387 2.670 1_455 S
O405 C394 1.268 1_455 S
O406 Eu387 2.394 . S
O406 C395 1.251 . S
O407 Eu377 2.374 1_655 S
O407 C395 1.251 . S
H408 C379 0.931 . S
H409 C380 0.931 . S
H410 C382 0.931 . S
H411 C383 0.931 . S
H412 C389 0.931 . S
H413 C390 0.931 . S
H414 C392 0.931 . S
H415 C393 0.931 . S
H416 C424 0.950 . S
H417 C429 0.950 . S
H418 C426 0.950 . S
H419 C428 0.950 . S
H420 C430 0.950 . S
H421 C432 0.950 . S
H422 C434 0.950 . S
H423 C435 0.950 . S
C424 H416 0.950 . S
C424 C425 1.403 . S
C424 C426 1.391 . S
C425 C424 1.403 . S
C425 C429 1.377 1_545 S
C426 H418 0.950 . S
C426 C424 1.391 . S
C426 C427 1.412 . S
C427 C426 1.412 . S
C427 C428 1.388 1_545 S
C427 C433 1.490 1_545 S
C428 H419 0.950 . S
C428 C427 1.388 1_565 S
C428 C429 1.391 . S
C429 H417 0.950 . S
C429 C425 1.377 1_565 S
C429 C428 1.391 . S
C430 H420 0.950 . S
C430 C431 1.390 . S
C430 C432 1.391 . S
C431 C430 1.390 . S
C431 C435 1.389 1_565 S
C432 H421 0.950 . S
C432 C430 1.391 . S
C432 C433 1.399 . S
C433 C427 1.490 1_565 S
C433 C432 1.399 . S
C433 C434 1.399 1_565 S
C434 H422 0.950 . S
C434 C433 1.399 1_545 S
C434 C435 1.391 . S
C435 H423 0.950 . S
C435 C431 1.389 1_545 S
C435 C434 1.391 . S
H436 C444 0.950 . S
H437 C449 0.950 . S
H438 C446 0.950 . S
H439 C448 0.950 . S
H440 C450 0.950 . S
H441 C452 0.950 . S
H442 C454 0.950 . S
H443 C455 0.950 . S
C444 H436 0.950 . S
C444 C445 1.386 . S
C444 C446 1.391 . S
C445 C444 1.386 . S
C445 C449 1.393 . S
C446 H438 0.950 . S
C446 C444 1.391 . S
C446 C447 1.400 . S
C447 C446 1.400 . S
C447 C448 1.398 . S
C447 C453 1.491 . S
C448 H439 0.950 . S
C448 C447 1.398 . S
C448 C449 1.391 . S
C449 H437 0.950 . S
C449 C445 1.393 . S
C449 C448 1.391 . S
C450 H440 0.950 . S
C450 C451 1.386 . S
C450 C452 1.391 . S
C451 C450 1.386 . S
C451 C455 1.393 . S
C452 H441 0.950 . S
C452 C450 1.391 . S
C452 C453 1.400 . S
C453 C447 1.491 . S
C453 C452 1.400 . S
C453 C454 1.398 . S
C454 H442 0.950 . S
C454 C453 1.398 . S
C454 C455 1.391 . S
C455 H443 0.950 . S
C455 C451 1.393 . S
C455 C454 1.391 . S
H456 C464 0.950 . S
H457 C469 0.950 . S
H458 C466 0.950 . S
H459 C468 0.950 . S
H460 C470 0.950 . S
H461 C472 0.950 . S
H462 C474 0.950 . S
H463 C475 0.950 . S
C464 H456 0.950 . S
C464 C465 1.386 . S
C464 C466 1.391 . S
C465 C464 1.386 . S
C465 C469 1.393 . S
C466 H458 0.950 . S
C466 C464 1.391 . S
C466 C467 1.400 . S
C467 C466 1.400 . S
C467 C468 1.398 . S
C467 C473 1.491 . S
C468 H459 0.950 . S
C468 C467 1.398 . S
C468 C469 1.391 . S
C469 H457 0.950 . S
C469 C465 1.393 . S
C469 C468 1.391 . S
C470 H460 0.950 . S
C470 C471 1.386 . S
C470 C472 1.391 . S
C471 C470 1.386 . S
C471 C475 1.393 . S
C472 H461 0.950 . S
C472 C470 1.391 . S
C472 C473 1.400 . S
C473 C467 1.491 . S
C473 C472 1.400 . S
C473 C474 1.398 . S
C474 H462 0.950 . S
C474 C473 1.398 . S
C474 C475 1.391 . S
C475 H463 0.950 . S
C475 C471 1.393 . S
C475 C474 1.391 . S
H476 C484 0.950 . S
H477 C489 0.950 . S
H478 C486 0.950 . S
H479 C488 0.950 . S
H480 C490 0.950 . S
H481 C492 0.950 . S
H482 C494 0.950 . S
H483 C495 0.950 . S
C484 H476 0.950 . S
C484 C485 1.387 1_455 S
C484 C486 1.391 . S
C485 C484 1.387 1_655 S
C485 C489 1.392 . S
C486 H478 0.950 . S
C486 C484 1.391 . S
C486 C487 1.415 . S
C487 C486 1.415 . S
C487 C488 1.383 1_455 S
C487 C493 1.490 . S
C488 H479 0.950 . S
C488 C487 1.383 1_655 S
C488 C489 1.391 . S
C489 H477 0.950 . S
C489 C485 1.392 . S
C489 C488 1.391 . S
C490 H480 0.950 . S
C490 C491 1.386 1_655 S
C490 C492 1.391 . S
C491 C490 1.386 1_455 S
C491 C495 1.393 . S
C492 H481 0.950 . S
C492 C490 1.391 . S
C492 C493 1.362 1_655 S
C493 C487 1.490 . S
C493 C492 1.362 1_455 S
C493 C494 1.438 . S
C494 H482 0.950 . S
C494 C493 1.438 . S
C494 C495 1.391 . S
C495 H483 0.950 . S
C495 C491 1.393 . S
C495 C494 1.391 . S
H496 C504 0.954 . S
H497 C509 0.950 . S
H498 C506 0.950 . S
H499 C508 0.950 . S
H500 C510 0.953 . S
H501 C512 0.950 . S
H502 C514 0.950 . S
H503 C515 0.950 . S
C504 H496 0.954 . S
C504 C505 1.381 1_565 S
C504 C506 1.393 . S
C505 C504 1.381 1_545 S
C505 C509 1.398 . S
C506 H498 0.950 . S
C506 C504 1.393 . S
C506 C507 1.399 1_565 S
C507 C506 1.399 1_545 S
C507 C508 1.400 . S
C507 C513 1.489 1_545 S
C508 H499 0.950 . S
C508 C507 1.400 . S
C508 C509 1.391 . S
C509 H497 0.950 . S
C509 C505 1.398 . S
C509 C508 1.391 . S
C510 H500 0.953 . S
C510 C511 1.383 1_545 S
C510 C512 1.393 1_556 S
C511 C510 1.383 1_565 S
C511 C515 1.393 . S
C512 H501 0.950 . S
C512 C510 1.393 1_554 S
C512 C513 1.399 1_545 S
C513 C507 1.489 1_565 S
C513 C512 1.399 1_565 S
C513 C514 1.402 1_554 S
C514 H502 0.950 . S
C514 C513 1.402 1_556 S
C514 C515 1.391 . S
C515 H503 0.950 . S
C515 C511 1.393 . S
C515 C514 1.391 . S
H516 C524 0.950 . S
H517 C529 0.950 . S
H518 C526 0.950 . S
H519 C528 0.950 . S
H520 C530 0.950 . S
H521 C532 0.950 . S
H522 C534 0.950 . S
H523 C535 0.950 . S
C524 H516 0.950 . S
C524 C525 1.386 . S
C524 C526 1.391 . S
C525 C524 1.386 . S
C525 C529 1.393 . S
C526 H518 0.950 . S
C526 C524 1.391 . S
C526 C527 1.400 . S
C527 C526 1.400 . S
C527 C528 1.398 . S
C527 C533 1.491 . S
C528 H519 0.950 . S
C528 C527 1.398 . S
C528 C529 1.391 . S
C529 H517 0.950 . S
C529 C525 1.393 . S
C529 C528 1.391 . S
C530 H520 0.950 . S
C530 C531 1.386 . S
C530 C532 1.391 . S
C531 C530 1.386 . S
C531 C535 1.393 . S
C532 H521 0.950 . S
C532 C530 1.391 . S
C532 C533 1.400 1_556 S
C533 C527 1.491 . S
C533 C532 1.400 1_554 S
C533 C534 1.398 . S
C534 H522 0.950 . S
C534 C533 1.398 . S
C534 C535 1.391 1_554 S
C535 H523 0.950 . S
C535 C531 1.393 . S
C535 C534 1.391 1_556 S
H536 C544 0.950 . S
H537 C549 0.950 . S
H538 C546 0.950 . S
H539 C548 0.950 . S
H540 C550 0.950 . S
H541 C552 0.963 . S
H542 C554 0.950 . S
H543 C555 0.950 . S
C544 H536 0.950 . S
C544 C545 1.386 . S
C544 C546 1.391 . S
C545 C544 1.386 . S
C545 C549 1.393 . S
C546 H538 0.950 . S
C546 C544 1.391 . S
C546 C547 1.400 . S
C547 C546 1.400 . S
C547 C548 1.398 . S
C547 C553 1.491 . S
C548 H539 0.950 . S
C548 C547 1.398 . S
C548 C549 1.391 . S
C549 H537 0.950 . S
C549 C545 1.393 . S
C549 C548 1.391 . S
C550 H540 0.950 . S
C550 C551 1.386 . S
C550 C552 1.377 1_556 S
C551 C550 1.386 . S
C551 C555 1.393 . S
C552 H541 0.963 . S
C552 C550 1.377 1_554 S
C552 C553 1.402 . S
C553 C547 1.491 . S
C553 C552 1.402 . S
C553 C554 1.398 1_554 S
C554 H542 0.950 . S
C554 C553 1.398 1_556 S
C554 C555 1.391 . S
C555 H543 0.950 . S
C555 C551 1.393 . S
C555 C554 1.391 . S
H556 C564 0.950 . S
H557 C569 0.950 . S
H558 C566 0.950 . S
H559 C568 0.950 . S
H560 C570 0.950 . S
H561 C572 0.950 . S
H562 C574 0.948 1_554 S
H563 C575 0.950 . S
C564 H556 0.950 . S
C564 C565 1.388 . S
C564 C566 1.391 . S
C565 C564 1.388 . S
C565 C569 1.390 1_655 S
C566 H558 0.950 . S
C566 C564 1.391 . S
C566 C567 1.421 . S
C567 C566 1.421 . S
C567 C568 1.377 1_655 S
C567 C573 1.490 . S
C568 H559 0.950 . S
C568 C567 1.377 1_455 S
C568 C569 1.391 . S
C569 H557 0.950 . S
C569 C565 1.390 1_455 S
C569 C568 1.391 . S
C570 H560 0.950 . S
C570 C571 1.386 1_455 S
C570 C572 1.391 . S
C571 C570 1.386 1_655 S
C571 C575 1.393 . S
C572 H561 0.950 . S
C572 C570 1.391 . S
C572 C573 1.366 1_456 S
C573 C567 1.490 . S
C573 C572 1.366 1_654 S
C573 C574 1.433 1_554 S
C574 H562 0.948 1_556 S
C574 C573 1.433 1_556 S
C574 C575 1.391 . S
C575 H563 0.950 . S
C575 C571 1.393 . S
C575 C574 1.391 . S
H576 C584 0.950 . S
H577 C589 0.950 . S
H578 C586 0.950 . S
H579 C588 0.950 . S
H580 C590 0.950 . S
H581 C592 0.950 . S
H582 C594 0.950 1_455 S
H583 C595 0.933 1_455 S
C584 H576 0.950 . S
C584 C585 1.386 . S
C584 C586 1.391 . S
C585 C584 1.386 . S
C585 C589 1.393 1_455 S
C586 H578 0.950 . S
C586 C584 1.391 . S
C586 C587 1.400 1_455 S
C587 C586 1.400 1_655 S
C587 C588 1.398 . S
C587 C593 1.491 . S
C588 H579 0.950 . S
C588 C587 1.398 . S
C588 C589 1.391 . S
C589 H577 0.950 . S
C589 C585 1.393 1_655 S
C589 C588 1.391 . S
C590 H580 0.950 . S
C590 C591 1.386 . S
C590 C592 1.391 . S
C591 C590 1.386 . S
C591 C595 1.393 . S
C592 H581 0.950 . S
C592 C590 1.391 . S
C592 C593 1.400 . S
C593 C587 1.491 . S
C593 C592 1.400 . S
C593 C594 1.398 . S
C594 H582 0.950 1_655 S
C594 C593 1.398 . S
C594 C595 1.391 . S
C595 H583 0.933 1_655 S
C595 C591 1.393 . S
C595 C594 1.391 . S
H596 C604 0.950 . S
H597 C609 0.950 . S
H598 C606 0.950 . S
H599 C608 0.950 . S
H600 C610 0.950 . S
H601 C612 0.950 . S
H602 C614 0.950 1_545 S
H603 C615 0.950 . S
C604 H596 0.950 . S
C604 C605 1.386 . S
C604 C606 1.391 . S
C605 C604 1.386 . S
C605 C609 1.393 1_545 S
C606 H598 0.950 . S
C606 C604 1.391 . S
C606 C607 1.400 1_545 S
C607 C606 1.400 1_565 S
C607 C608 1.398 . S
C607 C613 1.491 . S
C608 H599 0.950 . S
C608 C607 1.398 . S
C608 C609 1.391 . S
C609 H597 0.950 . S
C609 C605 1.393 1_565 S
C609 C608 1.391 . S
C610 H600 0.950 . S
C610 C611 1.386 . S
C610 C612 1.391 . S
C611 C610 1.386 . S
C611 C615 1.393 . S
C612 H601 0.950 . S
C612 C610 1.391 . S
C612 C613 1.400 . S
C613 C607 1.491 . S
C613 C612 1.400 . S
C613 C614 1.398 . S
C614 H602 0.950 1_565 S
C614 C613 1.398 . S
C614 C615 1.391 . S
C615 H603 0.950 . S
C615 C611 1.393 . S
C615 C614 1.391 . S
H616 C624 0.950 . S
H617 C629 0.950 . S
H618 C626 0.950 . S
H619 C628 0.950 . S
H620 C630 0.950 . S
H621 C632 0.950 . S
H622 C634 0.950 . S
H623 C635 0.950 . S
C624 H616 0.950 . S
C624 C625 1.386 . S
C624 C626 1.391 . S
C625 C624 1.386 . S
C625 C629 1.393 . S
C626 H618 0.950 . S
C626 C624 1.391 . S
C626 C627 1.400 . S
C627 C626 1.400 . S
C627 C628 1.398 . S
C627 C633 1.491 . S
C628 H619 0.950 . S
C628 C627 1.398 . S
C628 C629 1.391 . S
C629 H617 0.950 . S
C629 C625 1.393 . S
C629 C628 1.391 . S
C630 H620 0.950 . S
C630 C631 1.386 . S
C630 C632 1.391 . S
C631 C630 1.386 . S
C631 C635 1.393 . S
C632 H621 0.950 . S
C632 C630 1.391 . S
C632 C633 1.400 . S
C633 C627 1.491 . S
C633 C632 1.400 . S
C633 C634 1.398 . S
C634 H622 0.950 . S
C634 C633 1.398 . S
C634 C635 1.391 . S
C635 H623 0.950 . S
C635 C631 1.393 . S
C635 C634 1.391 . S
H636 C644 0.950 . S
H637 C649 0.950 . S
H638 C646 0.950 . S
H639 C648 0.950 . S
H640 C650 0.950 . S
H641 C652 0.950 . S
H642 C654 0.950 . S
H643 C655 0.950 . S
C644 H636 0.950 . S
C644 C645 1.386 . S
C644 C646 1.391 . S
C645 C644 1.386 . S
C645 C649 1.393 . S
C646 H638 0.950 . S
C646 C644 1.391 . S
C646 C647 1.400 . S
C647 C646 1.400 . S
C647 C648 1.398 . S
C647 C653 1.491 . S
C648 H639 0.950 . S
C648 C647 1.398 . S
C648 C649 1.391 . S
C649 H637 0.950 . S
C649 C645 1.393 . S
C649 C648 1.391 . S
C650 H640 0.950 . S
C650 C651 1.386 . S
C650 C652 1.391 . S
C651 C650 1.386 . S
C651 C655 1.393 . S
C652 H641 0.950 . S
C652 C650 1.391 . S
C652 C653 1.400 . S
C653 C647 1.491 . S
C653 C652 1.400 . S
C653 C654 1.398 . S
C654 H642 0.950 . S
C654 C653 1.398 . S
C654 C655 1.391 . S
C655 H643 0.950 . S
C655 C651 1.393 . S
C655 C654 1.391 . S
H656 C664 0.950 . S
H657 C669 0.950 . S
H658 C666 0.950 . S
H659 C668 0.950 . S
H660 C670 0.950 . S
H661 C672 0.950 1_655 S
H662 C674 0.950 1_556 S
H663 C675 0.950 . S
C664 H656 0.950 . S
C664 C665 1.386 1_455 S
C664 C666 1.391 . S
C665 C664 1.386 1_655 S
C665 C669 1.393 . S
C666 H658 0.950 . S
C666 C664 1.391 . S
C666 C667 1.400 . S
C667 C666 1.400 . S
C667 C668 1.398 1_455 S
C667 C673 1.491 . S
C668 H659 0.950 . S
C668 C667 1.398 1_655 S
C668 C669 1.391 . S
C669 H657 0.950 . S
C669 C665 1.393 . S
C669 C668 1.391 . S
C670 H660 0.950 . S
C670 C671 1.386 1_554 S
C670 C672 1.391 . S
C671 C670 1.386 1_556 S
C671 C675 1.393 . S
C672 H661 0.950 1_455 S
C672 C670 1.391 . S
C672 C673 1.400 . S
C673 C667 1.491 . S
C673 C672 1.400 . S
C673 C674 1.398 . S
C674 H662 0.950 1_554 S
C674 C673 1.398 . S
C674 C675 1.391 1_554 S
C675 H663 0.950 . S
C675 C671 1.393 . S
C675 C674 1.391 1_556 S
H676 C684 0.950 . S
H677 C689 0.950 . S
H678 C686 0.950 1_565 S
H679 C688 0.950 . S
H680 C690 0.950 . S
H681 C692 0.950 . S
H682 C694 0.950 . S
H683 C695 0.950 . S
C684 H676 0.950 . S
C684 C685 1.386 . S
C684 C686 1.391 1_565 S
C685 C684 1.386 . S
C685 C689 1.393 1_565 S
C686 H678 0.950 1_545 S
C686 C684 1.391 1_545 S
C686 C687 1.400 . S
C687 C686 1.400 . S
C687 C688 1.398 . S
C687 C693 1.491 . S
C688 H679 0.950 . S
C688 C687 1.398 . S
C688 C689 1.391 . S
C689 H677 0.950 . S
C689 C685 1.393 1_545 S
C689 C688 1.391 . S
C690 H680 0.950 . S
C690 C691 1.386 1_554 S
C690 C692 1.391 . S
C691 C690 1.386 1_556 S
C691 C695 1.393 . S
C692 H681 0.950 . S
C692 C690 1.391 . S
C692 C693 1.400 . S
C693 C687 1.491 . S
C693 C692 1.400 . S
C693 C694 1.398 1_554 S
C694 H682 0.950 . S
C694 C693 1.398 1_556 S
C694 C695 1.391 . S
C695 H683 0.950 . S
C695 C691 1.393 . S
C695 C694 1.391 . S
H696 C704 0.950 . S
H697 C709 0.950 . S
H698 C706 0.950 . S
H699 C708 0.950 . S
H700 C710 0.950 . S
H701 C712 0.950 . S
H702 C714 0.950 . S
H703 C715 0.950 . S
C704 H696 0.950 . S
C704 C705 1.386 . S
C704 C706 1.391 . S
C705 C704 1.386 . S
C705 C709 1.393 . S
C706 H698 0.950 . S
C706 C704 1.391 . S
C706 C707 1.400 . S
C707 C706 1.400 . S
C707 C708 1.398 . S
C707 C713 1.491 . S
C708 H699 0.950 . S
C708 C707 1.398 . S
C708 C709 1.391 . S
C709 H697 0.950 . S
C709 C705 1.393 . S
C709 C708 1.391 . S
C710 H700 0.950 . S
C710 C711 1.386 . S
C710 C712 1.391 . S
C711 C710 1.386 . S
C711 C715 1.393 1_556 S
C712 H701 0.950 . S
C712 C710 1.391 . S
C712 C713 1.400 1_556 S
C713 C707 1.491 . S
C713 C712 1.400 1_554 S
C713 C714 1.398 . S
C714 H702 0.950 . S
C714 C713 1.398 . S
C714 C715 1.391 . S
C715 H703 0.950 . S
C715 C711 1.393 1_554 S
C715 C714 1.391 . S
H716 C724 0.950 . S
H717 C729 0.950 . S
H718 C726 0.950 . S
H719 C728 0.950 . S
H720 C730 0.950 . S
H721 C732 0.950 . S
H722 C734 0.950 . S
H723 C735 0.950 . S
C724 H716 0.950 . S
C724 C725 1.386 . S
C724 C726 1.391 . S
C725 C724 1.386 . S
C725 C729 1.393 . S
C726 H718 0.950 . S
C726 C724 1.391 . S
C726 C727 1.400 . S
C727 C726 1.400 . S
C727 C728 1.398 . S
C727 C733 1.491 . S
C728 H719 0.950 . S
C728 C727 1.398 . S
C728 C729 1.391 . S
C729 H717 0.950 . S
C729 C725 1.393 . S
C729 C728 1.391 . S
C730 H720 0.950 . S
C730 C731 1.386 . S
C730 C732 1.391 . S
C731 C730 1.386 . S
C731 C735 1.393 1_556 S
C732 H721 0.950 . S
C732 C730 1.391 . S
C732 C733 1.400 1_556 S
C733 C727 1.491 . S
C733 C732 1.400 1_554 S
C733 C734 1.398 . S
C734 H722 0.950 . S
C734 C733 1.398 . S
C734 C735 1.391 . S
C735 H723 0.950 . S
C735 C731 1.393 1_554 S
C735 C734 1.391 . S
H736 C744 0.950 . S
H737 C749 0.950 . S
H738 C746 0.950 . S
H739 C748 0.950 . S
H740 C750 0.950 . S
H741 C752 0.950 . S
H742 C754 0.950 . S
H743 C755 0.950 . S
C744 H736 0.950 . S
C744 C745 1.386 . S
C744 C746 1.391 . S
C745 C744 1.386 . S
C745 C749 1.393 1_455 S
C746 H738 0.950 . S
C746 C744 1.391 . S
C746 C747 1.400 . S
C747 C746 1.400 . S
C747 C748 1.398 1_455 S
C747 C753 1.491 . S
C748 H739 0.950 . S
C748 C747 1.398 1_655 S
C748 C749 1.391 . S
C749 H737 0.950 . S
C749 C745 1.393 1_655 S
C749 C748 1.391 . S
C750 H740 0.950 . S
C750 C751 1.386 1_655 S
C750 C752 1.391 . S
C751 C750 1.386 1_455 S
C751 C755 1.393 . S
C752 H741 0.950 . S
C752 C750 1.391 . S
C752 C753 1.400 1_655 S
C753 C747 1.491 . S
C753 C752 1.400 1_455 S
C753 C754 1.398 . S
C754 H742 0.950 . S
C754 C753 1.398 . S
C754 C755 1.391 . S
C755 H743 0.950 . S
C755 C751 1.393 . S
C755 C754 1.391 . S
H756 C764 0.950 . S
H757 C769 0.950 . S
H758 C766 0.950 . S
H759 C768 0.950 . S
H760 C770 0.950 . S
H761 C772 0.950 . S
H762 C774 0.950 . S
H763 C775 0.950 . S
C764 H756 0.950 . S
C764 C765 1.386 1_565 S
C764 C766 1.391 . S
C765 C764 1.386 1_545 S
C765 C769 1.393 . S
C766 H758 0.950 . S
C766 C764 1.391 . S
C766 C767 1.400 1_565 S
C767 C766 1.400 1_545 S
C767 C768 1.398 . S
C767 C773 1.491 . S
C768 H759 0.950 . S
C768 C767 1.398 . S
C768 C769 1.391 . S
C769 H757 0.950 . S
C769 C765 1.393 . S
C769 C768 1.391 . S
C770 H760 0.950 . S
C770 C771 1.386 . S
C770 C772 1.391 . S
C771 C770 1.386 . S
C771 C775 1.393 1_545 S
C772 H761 0.950 . S
C772 C770 1.391 . S
C772 C773 1.400 . S
C773 C767 1.491 . S
C773 C772 1.400 . S
C773 C774 1.398 1_545 S
C774 H762 0.950 . S
C774 C773 1.398 1_565 S
C774 C775 1.391 . S
C775 H763 0.950 . S
C775 C771 1.393 1_565 S
C775 C774 1.391 . S
H776 C784 0.950 . S
H777 C789 0.950 . S
H778 C786 0.950 . S
H779 C788 0.950 . S
H780 C790 0.950 . S
H781 C792 0.950 . S
H782 C794 0.950 . S
H783 C795 0.950 . S
C784 H776 0.950 . S
C784 C785 1.386 . S
C784 C786 1.391 . S
C785 C784 1.386 . S
C785 C789 1.393 . S
C786 H778 0.950 . S
C786 C784 1.391 . S
C786 C787 1.400 . S
C787 C786 1.400 . S
C787 C788 1.398 . S
C787 C793 1.491 . S
C788 H779 0.950 . S
C788 C787 1.398 . S
C788 C789 1.391 . S
C789 H777 0.950 . S
C789 C785 1.393 . S
C789 C788 1.391 . S
C790 H780 0.950 . S
C790 C791 1.386 . S
C790 C792 1.391 . S
C791 C790 1.386 . S
C791 C795 1.393 . S
C792 H781 0.950 . S
C792 C790 1.391 . S
C792 C793 1.400 . S
C793 C787 1.491 . S
C793 C792 1.400 . S
C793 C794 1.398 . S
C794 H782 0.950 . S
C794 C793 1.398 . S
C794 C795 1.391 . S
C795 H783 0.950 . S
C795 C791 1.393 . S
C795 C794 1.391 . S
H796 C804 0.950 . S
H797 C809 0.950 . S
H798 C806 0.950 . S
H799 C808 0.950 . S
H800 C810 0.950 . S
H801 C812 0.950 . S
H802 C814 0.950 . S
H803 C815 0.950 . S
C804 H796 0.950 . S
C804 C805 1.386 . S
C804 C806 1.391 . S
C805 C804 1.386 . S
C805 C809 1.393 . S
C806 H798 0.950 . S
C806 C804 1.391 . S
C806 C807 1.400 . S
C807 C806 1.400 . S
C807 C808 1.398 . S
C807 C813 1.491 . S
C808 H799 0.950 . S
C808 C807 1.398 . S
C808 C809 1.391 . S
C809 H797 0.950 . S
C809 C805 1.393 . S
C809 C808 1.391 . S
C810 H800 0.950 . S
C810 C811 1.386 . S
C810 C812 1.391 . S
C811 C810 1.386 . S
C811 C815 1.393 . S
C812 H801 0.950 . S
C812 C810 1.391 . S
C812 C813 1.400 . S
C813 C807 1.491 . S
C813 C812 1.400 . S
C813 C814 1.398 . S
C814 H802 0.950 . S
C814 C813 1.398 . S
C814 C815 1.391 . S
C815 H803 0.950 . S
C815 C811 1.393 . S
C815 C814 1.391 . S
H816 C824 0.950 . S
H817 C829 0.950 . S
H818 C826 0.950 . S
H819 C828 0.950 . S
H820 C830 0.950 . S
H821 C832 0.950 . S
H822 C834 0.950 . S
H823 C835 0.950 . S
C824 H816 0.950 . S
C824 C825 1.386 . S
C824 C826 1.391 . S
C825 C824 1.386 . S
C825 C829 1.393 1_655 S
C826 H818 0.950 . S
C826 C824 1.391 . S
C826 C827 1.400 . S
C827 C826 1.400 . S
C827 C828 1.398 1_655 S
C827 C833 1.491 . S
C828 H819 0.950 . S
C828 C827 1.398 1_455 S
C828 C829 1.391 . S
C829 H817 0.950 . S
C829 C825 1.393 1_455 S
C829 C828 1.391 . S
C830 H820 0.950 . S
C830 C831 1.386 1_455 S
C830 C832 1.391 . S
C831 C830 1.386 1_655 S
C831 C835 1.393 . S
C832 H821 0.950 . S
C832 C830 1.391 . S
C832 C833 1.400 1_455 S
C833 C827 1.491 . S
C833 C832 1.400 1_655 S
C833 C834 1.398 . S
C834 H822 0.950 . S
C834 C833 1.398 . S
C834 C835 1.391 . S
C835 H823 0.950 . S
C835 C831 1.393 . S
C835 C834 1.391 . S
H836 C844 0.950 . S
H837 C849 0.950 . S
H838 C846 0.950 . S
H839 C848 0.950 . S
H840 C850 0.950 . S
H841 C852 0.950 . S
H842 C854 0.950 . S
H843 C855 0.950 . S
C844 H836 0.950 . S
C844 C845 1.386 . S
C844 C846 1.391 . S
C845 C844 1.386 . S
C845 C849 1.393 1_565 S
C846 H838 0.950 . S
C846 C844 1.391 . S
C846 C847 1.400 . S
C847 C846 1.400 . S
C847 C848 1.398 1_565 S
C847 C853 1.491 . S
C848 H839 0.950 . S
C848 C847 1.398 1_545 S
C848 C849 1.391 . S
C849 H837 0.950 . S
C849 C845 1.393 1_545 S
C849 C848 1.391 . S
C850 H840 0.950 . S
C850 C851 1.386 1_545 S
C850 C852 1.391 . S
C851 C850 1.386 1_565 S
C851 C855 1.393 . S
C852 H841 0.950 . S
C852 C850 1.391 . S
C852 C853 1.400 1_545 S
C853 C847 1.491 . S
C853 C852 1.400 1_565 S
C853 C854 1.398 . S
C854 H842 0.950 . S
C854 C853 1.398 . S
C854 C855 1.391 . S
C855 H843 0.950 . S
C855 C851 1.393 . S
C855 C854 1.391 . S
H856 C864 0.950 . S
H857 C869 0.950 . S
H858 C866 0.950 . S
H859 C868 0.950 . S
H860 C870 0.950 . S
H861 C872 0.950 . S
H862 C874 0.950 . S
H863 C875 0.950 . S
C864 H856 0.950 . S
C864 C865 1.386 . S
C864 C866 1.391 . S
C865 C864 1.386 . S
C865 C869 1.393 . S
C866 H858 0.950 . S
C866 C864 1.391 . S
C866 C867 1.400 . S
C867 C866 1.400 . S
C867 C868 1.398 . S
C867 C873 1.491 . S
C868 H859 0.950 . S
C868 C867 1.398 . S
C868 C869 1.391 . S
C869 H857 0.950 . S
C869 C865 1.393 . S
C869 C868 1.391 . S
C870 H860 0.950 . S
C870 C871 1.386 . S
C870 C872 1.391 . S
C871 C870 1.386 . S
C871 C875 1.393 . S
C872 H861 0.950 . S
C872 C870 1.391 . S
C872 C873 1.400 . S
C873 C867 1.491 . S
C873 C872 1.400 . S
C873 C874 1.398 . S
C874 H862 0.950 . S
C874 C873 1.398 . S
C874 C875 1.391 . S
C875 H863 0.950 . S
C875 C871 1.393 . S
C875 C874 1.391 . S
H876 C884 0.950 . S
H877 C889 0.950 . S
H878 C886 0.950 . S
H879 C888 0.950 . S
H880 C890 0.950 . S
H881 C892 0.950 . S
H882 C894 0.950 . S
H883 C895 0.950 . S
C884 H876 0.950 . S
C884 C885 1.386 . S
C884 C886 1.391 . S
C885 C884 1.386 . S
C885 C889 1.393 . S
C886 H878 0.950 . S
C886 C884 1.391 . S
C886 C887 1.400 . S
C887 C886 1.400 . S
C887 C888 1.398 . S
C887 C893 1.491 . S
C888 H879 0.950 . S
C888 C887 1.398 . S
C888 C889 1.391 . S
C889 H877 0.950 . S
C889 C885 1.393 . S
C889 C888 1.391 . S
C890 H880 0.950 . S
C890 C891 1.386 . S
C890 C892 1.391 . S
C891 C890 1.386 . S
C891 C895 1.393 . S
C892 H881 0.950 . S
C892 C890 1.391 . S
C892 C893 1.400 . S
C893 C887 1.491 . S
C893 C892 1.400 . S
C893 C894 1.398 . S
C894 H882 0.950 . S
C894 C893 1.398 . S
C894 C895 1.391 . S
C895 H883 0.950 . S
C895 C891 1.393 . S
C895 C894 1.391 . S
C425 C215 2.035 . S
C431 C274 2.201 . S
C451 C314 2.221 . S
C445 C247 2.044 . S
C471 C354 2.223 . S
C465 C151 2.026 . S
C491 C394 2.211 1_455 S
C485 C183 2.048 1_655 S
C511 C264 2.207 1_565 S
C505 C87 2.031 . S
C525 C119 2.049 . S
C531 C304 2.220 . S
C545 C23 2.061 . S
C551 C344 2.225 . S
C565 C55 2.023 1_655 S
C571 C384 2.210 1_655 S
C591 C261 0.410 . S
C585 C189 0.359 . S
C611 C301 0.431 . S
C605 C221 0.368 . S
C631 C341 0.386 . S
C625 C253 0.363 . S
C645 C157 0.331 . S
C651 C381 0.407 . S
C665 C61 0.559 1_655 S
C671 C271 0.439 . S
C691 C311 0.447 . S
C685 C93 0.543 1_565 S
C711 C351 0.375 . S
C705 C125 0.455 . S
C725 C29 0.454 . S
C731 C391 0.370 . S
C745 C177 2.489 . S
C751 C265 2.788 . S
C765 C209 2.463 . S
C771 C305 2.754 . S
C791 C345 2.741 . S
C785 C241 2.428 . S
C811 C385 2.777 . S
C805 C145 2.480 . S
C825 C49 2.529 1_655 S
C831 C275 2.793 . S
C851 C315 2.762 . S
C845 C81 2.493 1_565 S
C871 C355 2.749 . S
C865 C113 2.482 . S
C885 C17 2.511 . S
C891 C395 2.786 . S
