# Generated by pormake.
# Topology pyr, (3,6)-cn, num edge types: 1
# Building blocks:
#     Node 0, Type 0, BuildingBlock: BETDIP_clean_linker_0, # of connection points: 3
#     Node 1, Type 0, BuildingBlock: BETDIP_clean_linker_0, # of connection points: 3
#     Node 2, Type 0, BuildingBlock: BETDIP_clean_linker_0, # of connection points: 3
#     Node 3, Type 0, BuildingBlock: BETDIP_clean_linker_0, # of connection points: 3
#     Node 4, Type 0, BuildingBlock: BETDIP_clean_linker_0, # of connection points: 3
#     Node 5, Type 0, BuildingBlock: BETDIP_clean_linker_0, # of connection points: 3
#     Node 6, Type 0, BuildingBlock: BETDIP_clean_linker_0, # of connection points: 3
#     Node 7, Type 0, BuildingBlock: BETDIP_clean_linker_0, # of connection points: 3
#     Node 8, Type 1, BuildingBlock: INOVEN_clean_sbu_0, # of connection points: 6
#     Node 9, Type 1, BuildingBlock: INOVEN_clean_sbu_0, # of connection points: 6
#     Node 10, Type 1, BuildingBlock: INOVEN_clean_sbu_0, # of connection points: 6
#     Node 11, Type 1, BuildingBlock: INOVEN_clean_sbu_0, # of connection points: 6
#     Edge 12, Type (0, 1), BuildingBlock: ZUJKAS_clean_linker_0, # of connection points: 2
#     Edge 13, Type (0, 1), BuildingBlock: ZUJKAS_clean_linker_0, # of connection points: 2
#     Edge 14, Type (0, 1), BuildingBlock: ZUJKAS_clean_linker_0, # of connection points: 2
#     Edge 15, Type (0, 1), BuildingBlock: ZUJKAS_clean_linker_0, # of connection points: 2
#     Edge 16, Type (0, 1), BuildingBlock: ZUJKAS_clean_linker_0, # of connection points: 2
#     Edge 17, Type (0, 1), BuildingBlock: ZUJKAS_clean_linker_0, # of connection points: 2
#     Edge 18, Type (0, 1), BuildingBlock: ZUJKAS_clean_linker_0, # of connection points: 2
#     Edge 19, Type (0, 1), BuildingBlock: ZUJKAS_clean_linker_0, # of connection points: 2
#     Edge 20, Type (0, 1), BuildingBlock: ZUJKAS_clean_linker_0, # of connection points: 2
#     Edge 21, Type (0, 1), BuildingBlock: ZUJKAS_clean_linker_0, # of connection points: 2
#     Edge 22, Type (0, 1), BuildingBlock: ZUJKAS_clean_linker_0, # of connection points: 2
#     Edge 23, Type (0, 1), BuildingBlock: ZUJKAS_clean_linker_0, # of connection points: 2
#     Edge 24, Type (0, 1), BuildingBlock: ZUJKAS_clean_linker_0, # of connection points: 2
#     Edge 25, Type (0, 1), BuildingBlock: ZUJKAS_clean_linker_0, # of connection points: 2
#     Edge 26, Type (0, 1), BuildingBlock: ZUJKAS_clean_linker_0, # of connection points: 2
#     Edge 27, Type (0, 1), BuildingBlock: ZUJKAS_clean_linker_0, # of connection points: 2
#     Edge 28, Type (0, 1), BuildingBlock: ZUJKAS_clean_linker_0, # of connection points: 2
#     Edge 29, Type (0, 1), BuildingBlock: ZUJKAS_clean_linker_0, # of connection points: 2
#     Edge 30, Type (0, 1), BuildingBlock: ZUJKAS_clean_linker_0, # of connection points: 2
#     Edge 31, Type (0, 1), BuildingBlock: ZUJKAS_clean_linker_0, # of connection points: 2
#     Edge 32, Type (0, 1), BuildingBlock: ZUJKAS_clean_linker_0, # of connection points: 2
#     Edge 33, Type (0, 1), BuildingBlock: ZUJKAS_clean_linker_0, # of connection points: 2
#     Edge 34, Type (0, 1), BuildingBlock: ZUJKAS_clean_linker_0, # of connection points: 2
#     Edge 35, Type (0, 1), BuildingBlock: ZUJKAS_clean_linker_0, # of connection points: 2
# Relax obj value: 0.098
# Max RMSD: 0.175
# Mean RMSD: 0.138
data_MOF--net-pyr--node1-INOVEN_clean_sbu_0--node2-BETDIP_clean_linker_0--edge1-ZUJKAS_clean_linker_0
_symmetry_space_group_name_H-M    P1
_symmetry_Int_Tables_number       1
_symmetry_cell_setting            triclinic
loop_
_symmetry_equiv_pos_as_xyz
'x, y, z'
_cell_length_a     51.24261
_cell_length_b     49.439071
_cell_length_c     46.5431
_cell_angle_alpha  90.633616
_cell_angle_beta   86.796412
_cell_angle_gamma 105.04695
loop_
_atom_site_label
_atom_site_type_symbol
_atom_site_fract_x
_atom_site_fract_y
_atom_site_fract_z
_atom_type_partial_charge
H0 H 0.28773 0.32983 0.22752 0.0
H1 H 0.34453 0.31182 0.1636 0.0
H2 H 0.32004 0.25893 0.2385 0.0
H3 H 0.31015 0.37636 0.20957 0.0
C4 C 0.30549 0.36969 0.18768 0.0
C5 C 0.30127 0.31732 0.22016 0.0
C6 C 0.30236 0.2939 0.23634 0.0
C7 C 0.31657 0.32394 0.19399 0.0
C8 C 0.3331 0.30688 0.18402 0.0
C9 C 0.33502 0.28371 0.20029 0.0
C10 C 0.31967 0.2775 0.22652 0.0
N11 N 0.31382 0.34625 0.17639 0.0
H12 H 0.20087 0.84392 0.7118 0.0
H13 H 0.20328 0.80116 0.63095 0.0
H14 H 0.27678 0.83636 0.67286 0.0
H15 H 0.15829 0.79072 0.63528 0.0
C16 C 0.15386 0.80761 0.64812 0.0
C17 C 0.21232 0.83661 0.69449 0.0
C18 C 0.24055 0.84192 0.69519 0.0
C19 C 0.19859 0.82201 0.67153 0.0
C20 C 0.21332 0.81233 0.64903 0.0
C21 C 0.24153 0.81751 0.6495 0.0
C22 C 0.25497 0.83241 0.6725 0.0
N23 N 0.17033 0.81923 0.67104 0.0
H24 H 0.68904 0.42719 0.85282 0.0
H25 H 0.62034 0.35552 0.8519 0.0
H26 H 0.68281 0.358 0.91042 0.0
H27 H 0.60123 0.38432 0.82976 0.0
C28 C 0.61704 0.39921 0.81739 0.0
C29 C 0.67835 0.40667 0.86109 0.0
C30 C 0.6889 0.39459 0.88358 0.0
C31 C 0.6536 0.39297 0.84955 0.0
C32 C 0.63931 0.36643 0.86059 0.0
C33 C 0.64944 0.35375 0.88299 0.0
C34 C 0.67435 0.368 0.89401 0.0
N35 N 0.64407 0.40636 0.82668 0.0
H36 H 0.79374 0.66136 0.35402 0.0
H37 H 0.86365 0.7319 0.34739 0.0
H38 H 0.80219 0.72914 0.41452 0.0
H39 H 0.86991 0.71647 0.30374 0.0
C40 C 0.86024 0.6942 0.3031 0.0
C41 C 0.80487 0.68161 0.36173 0.0
C42 C 0.79499 0.69345 0.38621 0.0
C43 C 0.82928 0.6954 0.34719 0.0
C44 C 0.84425 0.72137 0.35756 0.0
C45 C 0.83467 0.73351 0.38205 0.0
C46 C 0.80999 0.71948 0.3961 0.0
N47 N 0.83843 0.68187 0.32298 0.0
H48 H 0.64508 0.79262 0.92114 0.0
H49 H 0.70333 0.77533 0.85857 0.0
H50 H 0.67228 0.847 0.84758 0.0
H51 H 0.67559 0.72721 0.87409 0.0
C52 C 0.68171 0.73351 0.89568 0.0
C53 C 0.65688 0.79779 0.90097 0.0
C54 C 0.65607 0.82175 0.88529 0.0
C55 C 0.67335 0.78062 0.89108 0.0
C56 C 0.68979 0.78792 0.86573 0.0
C57 C 0.68977 0.81204 0.85018 0.0
C58 C 0.67241 0.82846 0.8597 0.0
N59 N 0.67496 0.75742 0.90799 0.0
H60 H 0.75463 0.21726 0.40122 0.0
H61 H 0.75938 0.26484 0.47949 0.0
H62 H 0.70144 0.2708 0.41835 0.0
H63 H 0.77532 0.22989 0.49598 0.0
C64 C 0.7865 0.22336 0.47788 0.0
C65 C 0.74745 0.23196 0.41495 0.0
C66 C 0.72659 0.24319 0.40636 0.0
C67 C 0.75893 0.23906 0.44146 0.0
C68 C 0.75014 0.25844 0.45932 0.0
C69 C 0.72975 0.27033 0.45075 0.0
C70 C 0.718 0.26251 0.42436 0.0
N71 N 0.77926 0.22624 0.4493 0.0
H72 H 0.29538 0.67043 0.22242 0.0
H73 H 0.36333 0.74275 0.22569 0.0
H74 H 0.30504 0.73777 0.16162 0.0
H75 H 0.38278 0.71291 0.24642 0.0
C76 C 0.36686 0.69845 0.25911 0.0
C77 C 0.30659 0.69074 0.21403 0.0
C78 C 0.29716 0.70239 0.19047 0.0
C79 C 0.33088 0.70459 0.22637 0.0
C80 C 0.34536 0.73114 0.21554 0.0
C81 C 0.33616 0.74344 0.19223 0.0
C82 C 0.31217 0.72869 0.17974 0.0
N83 N 0.33983 0.69149 0.24986 0.0
H84 H 0.12311 0.35156 0.72974 0.0
H85 H 0.18937 0.42594 0.72386 0.0
H86 H 0.1893 0.35746 0.66679 0.0
H87 H 0.17746 0.43141 0.76933 0.0
C88 C 0.15566 0.42315 0.77167 0.0
C89 C 0.14242 0.36301 0.71987 0.0
C90 C 0.15443 0.3513 0.69662 0.0
C91 C 0.15507 0.38962 0.73042 0.0
C92 C 0.17967 0.40499 0.7169 0.0
C93 C 0.19212 0.39328 0.69417 0.0
C94 C 0.17952 0.36646 0.68431 0.0
N95 N 0.14233 0.4005 0.7542 0.0
Gd96 Gd 0.0162 0.05058 0.51036 0.0
Gd97 Gd -0.00647 1.02526 0.56912 0.0
C98 C 0.03796 0.08508 0.5677 0.0
C99 C 0.03405 0.0805 0.46484 0.0
C100 C 0.05108 0.10849 0.4567 0.0
C101 C 0.07521 0.12023 0.47033 0.0
C102 C 0.0451 0.12183 0.43248 0.0
C103 C 0.08923 0.15556 0.43262 0.0
C104 C 0.06392 0.14529 0.42064 0.0
C105 C 0.09417 0.1435 0.45833 0.0
C106 C 0.0374 1.01005 0.52956 0.0
C107 C 0.97214 0.99236 0.51186 0.0
C108 C 0.98176 1.00138 0.61875 0.0
C109 C 0.95718 0.98271 0.63257 0.0
C110 C 0.93188 0.98861 0.63133 0.0
C111 C 0.95885 0.95837 0.64669 0.0
C112 C 0.91031 0.94636 0.65884 0.0
C113 C 0.93564 0.94031 0.65964 0.0
C114 C 0.90874 0.97072 0.64447 0.0
C115 C 0.96102 0.05059 0.54206 0.0
O116 O 0.0382 0.08475 0.53927 0.0
O117 O 0.0235 0.06395 0.58365 0.0
O118 O 0.04659 0.06361 0.47609 0.0
O119 O 0.00998 0.07865 0.4771 0.0
O120 O 0.03208 1.01233 0.50296 0.0
O121 O 0.03184 1.0294 0.54438 0.0
O122 O 0.97882 0.98969 0.53854 0.0
O123 O 0.98037 1.01648 0.49783 0.0
O124 O 0.98093 1.02723 0.61394 0.0
O125 O -0.00667 0.99057 0.5973 0.0
O126 O 0.95215 1.02849 0.55807 0.0
O127 O 0.98633 0.05902 0.54263 0.0
H128 H 0.08019 0.11041 0.48924 0.0
H129 H 0.02651 0.11323 0.42179 0.0
H130 H 0.05917 0.15453 0.40126 0.0
H131 H 0.11342 0.15073 0.46814 0.0
H132 H 0.92994 1.00713 0.62034 0.0
H133 H 0.97812 0.95329 0.64762 0.0
H134 H 0.93755 0.92152 0.67012 0.0
H135 H 0.88971 0.97631 0.64377 0.0
Gd136 Gd 0.52021 0.06137 0.0547 0.0
Gd137 Gd 0.46601 0.03947 1.03044 0.0
C138 C 0.46954 0.08389 0.08015 0.0
C139 C 0.56558 0.09087 0.07301 0.0
C140 C 0.5759 0.10528 0.09945 0.0
C141 C 0.60057 0.10247 0.10884 0.0
C142 C 0.56143 0.12122 0.11573 0.0
C143 C 0.59618 0.13107 0.15074 0.0
C144 C 0.57158 0.13416 0.14113 0.0
C145 C 0.6106 0.11518 0.13429 0.0
C146 C 0.48962 1.01338 0.07984 0.0
C147 C 0.51685 1.01695 1.00508 0.0
C148 C 0.42026 1.00956 1.01338 0.0
C149 C 0.40876 0.99604 0.98716 0.0
C150 C 0.42298 1.00172 0.96035 0.0
C151 C 0.3827 0.978 0.98891 0.0
C152 C 0.38453 0.97198 0.93698 0.0
C153 C 0.37066 0.96604 0.96404 0.0
C154 C 0.41091 0.98981 0.93539 0.0
C155 C 0.49655 0.08725 1.00484 0.0
O156 O 0.49607 0.08955 0.07542 0.0
O157 O 0.45347 0.06146 0.06898 0.0
O158 O 0.55797 0.06356 0.07446 0.0
O159 O 0.54931 0.10153 0.05871 0.0
O160 O 0.51566 1.01928 0.0757 0.0
O161 O 0.48117 1.03391 0.07249 0.0
O162 O 0.49027 1.01143 1.00955 0.0
O163 O 0.53295 0.03926 1.01641 0.0
O164 O 0.42726 1.03692 1.01304 0.0
O165 O 0.43788 0.99881 1.02517 0.0
O166 O 0.47046 0.08113 1.00856 0.0
O167 O 0.50504 0.06686 1.01252 0.0
H168 H 0.61202 0.09027 0.09654 0.0
H169 H 0.54223 0.12351 0.10898 0.0
H170 H 0.55996 0.14612 0.15353 0.0
H171 H 0.62977 0.11274 0.141 0.0
H172 H 0.44321 1.0156 0.95873 0.0
H173 H 0.37147 0.97353 1.00949 0.0
H174 H 0.35021 0.9527 0.96594 0.0
H175 H 0.42218 0.99452 0.91487 0.0
Gd176 Gd 0.49651 0.52877 0.51866 0.0
Gd177 Gd 0.487 0.57213 0.56072 0.0
C178 C 0.51496 0.52795 0.58518 0.0
C179 C 0.51674 0.4941 0.48897 0.0
C180 C 0.53391 0.4757 0.4961 0.0
C181 C 0.52545 0.44708 0.48984 0.0
C182 C 0.55796 0.48605 0.51033 0.0
C183 C 0.56524 0.43937 0.51119 0.0
C184 C 0.57353 0.46808 0.51767 0.0
C185 C 0.54086 0.42905 0.49743 0.0
C186 C 0.44653 0.51746 0.54427 0.0
C187 C 0.46905 0.5731 0.49388 0.0
C188 C 0.46632 0.60618 0.59095 0.0
C189 C 0.44919 0.62466 0.58422 0.0
C190 C 0.45441 0.65152 0.59615 0.0
C191 C 0.42841 0.61624 0.565 0.0
C192 C 0.41801 0.66134 0.57011 0.0
C193 C 0.4129 0.63442 0.55807 0.0
C194 C 0.43897 0.66974 0.58917 0.0
C195 C 0.5371 0.58347 0.53534 0.0
O196 O 0.51866 0.52128 0.55784 0.0
O197 O 0.50014 0.5454 0.59259 0.0
O198 O 0.49218 0.48728 0.50086 0.0
O199 O 0.52796 0.52111 0.48924 0.0
O200 O 0.45124 0.51226 0.51737 0.0
O201 O 0.46831 0.52732 0.5564 0.0
O202 O 0.46535 0.57993 0.52119 0.0
O203 O 0.4837 0.55546 0.48661 0.0
O204 O 0.49094 0.6133 0.57924 0.0
O205 O 0.45508 0.57921 0.58982 0.0
O206 O 0.53222 0.58897 0.56213 0.0
O207 O 0.51536 0.57358 0.52313 0.0
H208 H 0.50677 0.43862 0.47925 0.0
H209 H 0.56479 0.50803 0.51579 0.0
H210 H 0.59233 0.47682 0.52791 0.0
H211 H 0.53359 0.40698 0.4926 0.0
H212 H 0.47045 0.65841 0.61089 0.0
H213 H 0.42419 0.59566 0.55528 0.0
H214 H 0.39701 0.62748 0.54319 0.0
H215 H 0.44309 0.69021 0.59914 0.0
Gd216 Gd -0.00399 0.5185 0.04316 0.0
Gd217 Gd -0.00797 0.57731 1.02811 0.0
C218 C 0.04511 0.57354 0.05816 0.0
C219 C 0.01203 0.47344 0.04842 0.0
C220 C 0.03695 0.46665 0.0566 0.0
C221 C 0.03502 0.44241 0.07276 0.0
C222 C 0.0626 0.48425 0.04894 0.0
C223 C 0.08417 0.45326 0.07354 0.0
C224 C 0.086 0.4776 0.0573 0.0
C225 C 0.05838 0.43578 0.08118 0.0
C226 C 0.96934 0.54274 0.08289 0.0
C227 C 0.94264 0.52208 1.01322 0.0
C228 C 0.97634 0.62266 1.02334 0.0
C229 C 0.95289 0.63029 1.0123 0.0
C230 C 0.93677 0.61334 0.9922 0.0
C231 C 0.94587 0.65421 1.02291 0.0
C232 C 0.90661 0.64424 0.99355 0.0
C233 C 0.92297 0.66118 1.01359 0.0
C234 C 0.91378 0.62023 0.98293 0.0
C235 C 0.01911 0.55322 0.98868 0.0
O236 O 0.03787 0.54639 0.0521 0.0
O237 O 0.02883 0.58981 0.05404 0.0
O238 O -0.00151 0.48307 0.06898 0.0
O239 O 0.01344 0.48672 1.02397 0.0
O240 O 0.96226 0.5161 0.0773 0.0
O241 O 0.99062 0.5546 0.06843 0.0
O242 O 0.95072 0.54957 1.0173 0.0
O243 O 0.95804 0.50537 1.01915 0.0
O244 O -0.00728 0.6149 1.00429 0.0
O245 O 0.97125 0.60692 0.04643 0.0
O246 O 0.02612 0.57984 0.9944 0.0
O247 O -0.00237 0.54132 1.00282 0.0
H248 H 0.0154 0.42868 0.07904 0.0
H249 H 0.06458 0.50312 0.03648 0.0
H250 H 0.10551 0.49139 0.05079 0.0
H251 H 0.05617 0.41715 0.09409 0.0
H252 H 0.94192 0.59478 0.98376 0.0
H253 H 0.95796 0.66737 0.03864 0.0
H254 H 0.91782 0.67958 1.02248 0.0
H255 H 0.90179 0.6069 0.96726 0.0
H256 H 0.31353 0.27577 0.2887 0.0
H257 H 0.28131 0.25808 0.32947 0.0
H258 H 0.21678 0.27415 0.28229 0.0
H259 H 0.24867 0.29187 0.24176 0.0
H260 H 0.2141 0.28905 0.34038 0.0
H261 H 0.22717 0.18124 0.32609 0.0
H262 H 0.25732 0.2083 0.33226 0.0
H263 H 0.24021 0.20848 0.29964 0.0
C264 C 0.29248 0.27562 0.28714 0.0
C265 C 0.28362 0.28514 0.26201 0.0
C266 C 0.27413 0.26555 0.31041 0.0
C267 C 0.24662 0.26453 0.30874 0.0
C268 C 0.23794 0.27487 0.28407 0.0
H269 H 0.10087 0.15773 0.3747 0.0
H270 H 0.14005 0.18724 0.34832 0.0
C271 C 0.25622 0.28504 0.26093 0.0
C272 C 0.22629 0.25111 0.33164 0.0
H273 H 0.19446 0.18733 0.361 0.0
C274 C 0.21001 0.2669 0.34526 0.0
C275 C 0.22092 0.22215 0.33773 0.0
C276 C 0.23713 0.20391 0.32307 0.0
C277 C 0.1879 0.25426 0.36408 0.0
C278 C 0.18215 0.2252 0.36947 0.0
C279 C 0.19905 0.20966 0.35677 0.0
C280 C 0.15722 0.20978 0.38578 0.0
C281 C 0.17003 0.27168 0.37693 0.0
C282 C 0.15362 0.21311 0.41558 0.0
C283 C 0.1309 0.1964 0.43084 0.0
C284 C 0.11152 0.17606 0.41648 0.0
C285 C 0.11497 0.1735 0.38646 0.0
C286 C 0.13755 0.19016 0.37133 0.0
H287 H 0.17544 0.29326 0.36793 0.0
H288 H 0.1485 0.26159 0.37305 0.0
H289 H 0.172 0.27308 0.40056 0.0
H290 H 0.16874 0.228 0.42714 0.0
H291 H 0.1288 0.19902 0.45391 0.0
H292 H 0.23322 0.88942 0.72153 0.0
H293 H 0.25838 0.91524 0.76093 0.0
H294 H 0.30575 0.85488 0.76305 0.0
H295 H 0.28071 0.82896 0.72389 0.0
H296 H 0.26325 0.89677 0.81605 0.0
H297 H 0.36351 0.92968 0.75731 0.0
H298 H 0.33247 0.91649 0.73924 0.0
H299 H 0.34851 0.89265 0.75559 0.0
C300 C 0.24891 0.8816 0.73052 0.0
C301 C 0.25514 0.85728 0.71951 0.0
C302 C 0.26334 0.89644 0.75287 0.0
C303 C 0.28427 0.88726 0.76444 0.0
C304 C 0.29017 0.86272 0.75386 0.0
H305 H 0.35412 0.9186 0.9285 0.0
H306 H 0.3296 0.89994 0.88601 0.0
C307 C 0.2758 0.84792 0.73155 0.0
C308 C 0.29937 0.90265 0.78833 0.0
H309 H 0.36315 0.93393 0.8086 0.0
C310 C 0.28505 0.90515 0.81437 0.0
C311 C 0.32775 0.91393 0.78589 0.0
C312 C 0.34396 0.91334 0.75791 0.0
C313 C 0.29853 0.91767 0.83846 0.0
C314 C 0.32708 0.92747 0.83649 0.0
C315 C 0.34129 0.92602 0.81012 0.0
C316 C 0.34256 0.93867 0.86179 0.0
C317 C 0.2821 0.92028 0.86579 0.0
C318 C 0.35871 0.96633 0.86179 0.0
C319 C 0.37282 0.97704 0.88601 0.0
C320 C 0.37106 0.96019 0.91057 0.0
C321 C 0.35546 0.93224 0.91012 0.0
C322 C 0.34142 0.92156 0.88591 0.0
H323 H 0.26073 0.91915 0.86149 0.0
H324 H 0.28211 0.90279 0.88052 0.0
H325 H 0.29085 0.9403 0.87692 0.0
H326 H 0.35996 0.97978 0.84327 0.0
H327 H 0.3845 0.99871 0.88581 0.0
H328 H 0.56663 0.39139 0.79847 0.0
H329 H 0.55221 0.41354 0.75762 0.0
H330 H 0.63473 0.46036 0.73822 0.0
H331 H 0.64922 0.43852 0.77956 0.0
H332 H 0.5998 0.49333 0.73513 0.0
H333 H 0.56116 0.39647 0.67316 0.0
H334 H 0.54593 0.39427 0.70899 0.0
H335 H 0.5817 0.39756 0.70362 0.0
C336 C 0.58174 0.40634 0.78544 0.0
C337 C 0.60907 0.41307 0.79223 0.0
C338 C 0.57349 0.41886 0.76192 0.0
C339 C 0.5924 0.43826 0.74434 0.0
C340 C 0.61974 0.44532 0.75127 0.0
H341 H 0.54958 0.4938 0.5785 0.0
H342 H 0.57012 0.47329 0.6161 0.0
C343 C 0.62802 0.43279 0.77492 0.0
C344 C 0.58338 0.45164 0.71932 0.0
H345 H 0.54777 0.43688 0.65849 0.0
C346 C 0.58861 0.48097 0.71826 0.0
C347 C 0.56915 0.43568 0.69691 0.0
C348 C 0.56439 0.40428 0.6955 0.0
C349 C 0.57927 0.49463 0.6961 0.0
C350 C 0.56372 0.47856 0.67458 0.0
C351 C 0.55931 0.44929 0.6751 0.0
C352 C 0.55159 0.4916 0.65159 0.0
C353 C 0.58646 0.52622 0.69584 0.0
C354 C 0.53399 0.50851 0.6588 0.0
C355 C 0.5223 0.5204 0.63731 0.0
C356 C 0.52763 0.51543 0.60799 0.0
C357 C 0.54501 0.4982 0.6008 0.0
C358 C 0.55679 0.4864 0.62233 0.0
H359 H 0.60495 0.53524 0.70769 0.0
H360 H 0.58982 0.53458 0.67351 0.0
H361 H 0.56961 0.53342 0.70662 0.0
H362 H 0.52897 0.51228 0.68113 0.0
H363 H 0.50885 0.5333 0.64377 0.0
H364 H 0.90211 0.71153 0.26379 0.0
H365 H 0.91868 0.68357 0.22663 0.0
H366 H 0.8565 0.61039 0.25465 0.0
H367 H 0.83978 0.63818 0.29173 0.0
H368 H 0.93677 0.63391 0.23627 0.0
H369 H 0.84927 0.61403 0.16625 0.0
H370 H 0.85548 0.64174 0.1926 0.0
H371 H 0.84138 0.60607 0.20385 0.0
C372 C 0.89192 0.68951 0.26189 0.0
C373 C 0.86967 0.67707 0.28056 0.0
C374 C 0.90139 0.67359 0.24073 0.0
C375 C 0.88861 0.64502 0.23773 0.0
C376 C 0.86636 0.63251 0.25635 0.0
H377 H 0.92335 0.52059 0.11644 0.0
H378 H 0.90322 0.54415 0.15517 0.0
C379 C 0.85694 0.6484 0.2776 0.0
C380 C 0.89916 0.62821 0.21566 0.0
H381 H 0.88399 0.59208 0.1532 0.0
C382 C 0.92526 0.62475 0.2181 0.0
C383 C 0.88395 0.6161 0.19218 0.0
C384 C 0.85603 0.61975 0.18829 0.0
C385 C 0.93662 0.6095 0.19761 0.0
C386 C 0.9217 0.59798 0.17369 0.0
C387 C 0.89539 0.60099 0.17154 0.0
C388 C 0.93353 0.58371 0.15015 0.0
C389 C 0.96441 0.60563 0.20193 0.0
C390 C 0.9569 0.5983 0.13423 0.0
C391 C 0.96842 0.58492 0.11233 0.0
C392 C 0.95659 0.55677 0.10567 0.0
C393 C 0.93289 0.54228 0.12122 0.0
C394 C 0.92139 0.5557 0.14326 0.0
H395 H 0.9695 0.60825 0.22486 0.0
H396 H 0.96594 0.5846 0.19465 0.0
H397 H 0.97971 0.62165 0.18916 0.0
H398 H 0.96626 0.6201 0.13876 0.0
H399 H 0.98671 0.59661 0.10072 0.0
H400 H 0.33884 0.26368 0.1456 0.0
H401 H 0.36421 0.23054 0.12829 0.0
H402 H 0.3944 0.22818 0.21264 0.0
H403 H 0.36891 0.26122 0.23016 0.0
H404 H 0.41855 0.23334 0.1262 0.0
H405 H 0.36103 0.14568 0.19669 0.0
H406 H 0.34998 0.17704 0.19178 0.0
H407 H 0.37641 0.17711 0.21562 0.0
C408 C 0.35111 0.25635 0.16039 0.0
C409 C 0.35176 0.26496 0.1893 0.0
C410 C 0.36551 0.23732 0.1505 0.0
C411 C 0.38081 0.2265 0.1693 0.0
C412 C 0.38219 0.23572 0.19794 0.0
H413 H 0.49581 0.13213 0.10706 0.0
H414 H 0.47561 0.16679 0.13086 0.0
C415 C 0.36768 0.25464 0.20789 0.0
C416 C 0.39512 0.20545 0.15883 0.0
H417 H 0.39837 0.13804 0.16862 0.0
C418 C 0.41422 0.21252 0.13551 0.0
C419 C 0.38918 0.1782 0.17082 0.0
C420 C 0.36786 0.16887 0.19493 0.0
C421 C 0.42749 0.19307 0.12376 0.0
C422 C 0.42188 0.16597 0.13607 0.0
C423 C 0.40285 0.15893 0.15945 0.0
C424 C 0.4343 0.14408 0.12384 0.0
C425 C 0.44668 0.20143 0.09768 0.0
C426 C 0.41775 0.11923 0.11315 0.0
C427 C 0.4292 0.09922 0.09988 0.0
C428 C 0.45747 0.10366 0.09702 0.0
C429 C 0.47399 0.1281 0.10875 0.0
C430 C 0.46248 0.14806 0.12216 0.0
H431 H 0.44374 0.22025 0.08684 0.0
H432 H 0.46782 0.20641 0.10444 0.0
H433 H 0.44401 0.18409 0.08184 0.0
H434 H 0.39594 0.11565 0.11436 0.0
H435 H 0.41585 0.08064 0.09115 0.0
H436 H 0.13139 0.80203 0.59618 0.0
H437 H 0.10679 0.83298 0.57537 0.0
H438 H 0.10957 0.87819 0.65539 0.0
H439 H 0.13425 0.84772 0.67613 0.0
H440 H 0.0576 0.85026 0.5935 0.0
H441 H 0.15212 0.93631 0.59424 0.0
H442 H 0.15171 0.9 0.5989 0.0
H443 H 0.14145 0.91935 0.62842 0.0
C444 C 0.12624 0.81825 0.60943 0.0
C445 C 0.13507 0.82282 0.63752 0.0
C446 C 0.11225 0.83586 0.59756 0.0
C447 C 0.10691 0.85811 0.61374 0.0
C448 C 0.11397 0.86139 0.64247 0.0
H449 H 0.05119 1.00434 0.58422 0.0
H450 H 0.06609 0.96555 0.60404 0.0
C451 C 0.12804 0.84395 0.65427 0.0
C452 C 0.09606 0.87937 0.60007 0.0
H453 H 0.11241 0.9487 0.58231 0.0
C454 C 0.06954 0.87176 0.59086 0.0
C455 C 0.11189 0.90729 0.59653 0.0
C456 C 0.14096 0.91627 0.60478 0.0
C457 C 0.0581 0.89174 0.579 0.0
C458 C 0.07379 0.91977 0.57606 0.0
C459 C 0.10043 0.92719 0.58482 0.0
C460 C 0.06302 0.94203 0.56432 0.0
C461 C 0.02916 0.88297 0.57041 0.0
C462 C 0.05651 0.9416 0.53542 0.0
C463 C 0.04805 0.96375 0.52404 0.0
C464 C 0.0461 0.9866 0.54144 0.0
C465 C 0.05248 0.9869 0.57039 0.0
C466 C 0.06095 0.9648 0.58172 0.0
H467 H 0.0182 0.86217 0.57948 0.0
H468 H 0.01814 0.89864 0.57766 0.0
H469 H 0.0289 0.88166 0.54661 0.0
H470 H 0.05848 0.92442 0.52155 0.0
H471 H 0.04321 0.96307 0.50164 0.0
H472 H 0.70162 0.39595 0.94032 0.0
H473 H 0.74434 0.41875 0.96119 0.0
H474 H 0.77783 0.45139 0.87776 0.0
H475 H 0.73549 0.42734 0.85632 0.0
H476 H 0.8134 0.43124 0.90469 0.0
H477 H 0.77369 0.49972 0.98052 0.0
H478 H 0.75636 0.4635 0.98579 0.0
H479 H 0.75391 0.48057 0.95243 0.0
C480 C 0.71807 0.40776 0.92624 0.0
C481 C 0.7149 0.40964 0.89649 0.0
C482 C 0.74246 0.42121 0.93837 0.0
C483 C 0.76429 0.43735 0.92125 0.0
C484 C 0.76127 0.43929 0.89155 0.0
H485 H 0.90708 0.54976 0.99325 0.0
H486 H 0.86473 0.52982 0.97006 0.0
C487 C 0.73689 0.42568 0.87933 0.0
C488 C 0.7905 0.45129 0.93417 0.0
H489 H 0.81806 0.49507 0.98829 0.0
C490 C 0.8144 0.44534 0.92285 0.0
C491 C 0.79208 0.47011 0.9576 0.0
C492 C 0.76769 0.4791 0.9696 0.0
C493 C 0.83956 0.45705 0.93468 0.0
C494 C 0.8409 0.47471 0.95907 0.0
C495 C 0.81711 0.48124 0.96991 0.0
C496 C 0.86674 0.48678 0.97349 0.0
C497 C 0.86452 0.45074 0.92049 0.0
C498 C 0.88193 0.46935 0.98378 0.0
C499 C 0.90638 0.48075 0.99683 0.0
C500 C 0.9161 0.50991 1.00033 0.0
C501 C 0.90044 0.52727 0.99079 0.0
C502 C 0.8761 0.51585 0.97752 0.0
H503 H 0.86154 0.44458 0.89763 0.0
H504 H 0.88236 0.46909 0.92132 0.0
H505 H 0.86897 0.43298 0.93187 0.0
H506 H 0.87486 0.44682 0.9818 0.0
H507 H 0.91765 0.46664 1.00414 0.0
H508 H 0.7836 0.68801 0.4443 0.0
H509 H 0.74015 0.66618 0.46944 0.0
H510 H 0.70419 0.64396 0.38804 0.0
H511 H 0.74751 0.66604 0.36267 0.0
H512 H 0.69156 0.68184 0.46329 0.0
H513 H 0.68075 0.57022 0.43459 0.0
H514 H 0.71274 0.59642 0.43101 0.0
H515 H 0.68793 0.5942 0.40469 0.0
C516 C 0.76645 0.67849 0.43173 0.0
C517 C 0.76898 0.67883 0.40147 0.0
C518 C 0.7417 0.66589 0.44613 0.0
C519 C 0.71908 0.65319 0.4306 0.0
C520 C 0.72157 0.65315 0.40042 0.0
H521 H 0.54935 0.58044 0.47782 0.0
H522 H 0.59393 0.59667 0.45261 0.0
C523 C 0.74632 0.66579 0.38597 0.0
C524 C 0.69254 0.64153 0.446 0.0
H525 H 0.64265 0.58127 0.45838 0.0
C526 C 0.68092 0.65983 0.46237 0.0
C527 C 0.6787 0.61285 0.44456 0.0
C528 C 0.6907 0.59217 0.42797 0.0
C529 C 0.65557 0.6503 0.47705 0.0
C530 C 0.64177 0.62158 0.47579 0.0
C531 C 0.65335 0.60326 0.45935 0.0
C532 C 0.61517 0.6103 0.49124 0.0
C533 C 0.64352 0.67121 0.49323 0.0
C534 C 0.61252 0.61199 0.52134 0.0
C535 C 0.58713 0.60283 0.53574 0.0
C536 C 0.56404 0.59164 0.52027 0.0
C537 C 0.56685 0.58906 0.49024 0.0
C538 C 0.59225 0.59829 0.47584 0.0
H539 H 0.65321 0.69303 0.48603 0.0
H540 H 0.62142 0.66672 0.49045 0.0
H541 H 0.64663 0.66984 0.51651 0.0
H542 H 0.63007 0.62066 0.53366 0.0
H543 H 0.58553 0.60478 0.55894 0.0
H544 H 0.28605 0.35699 0.13383 0.0
H545 H 0.251 0.37427 0.11197 0.0
H546 H 0.24673 0.42657 0.18594 0.0
H547 H 0.28167 0.4093 0.20796 0.0
H548 H 0.19627 0.39098 0.17062 0.0
H549 H 0.25338 0.45213 0.07716 0.0
H550 H 0.25748 0.41732 0.08094 0.0
H551 H 0.26983 0.44323 0.1077 0.0
C552 C 0.27793 0.37248 0.14523 0.0
C553 C 0.28652 0.38185 0.17262 0.0
C554 C 0.258 0.38242 0.13266 0.0
C555 C 0.24645 0.40186 0.14726 0.0
C556 C 0.25548 0.41166 0.17429 0.0
H557 H 0.13034 0.48897 0.09271 0.0
H558 H 0.17031 0.47684 0.10955 0.0
C559 C 0.27544 0.40184 0.18679 0.0
C560 C 0.22354 0.41039 0.13545 0.0
H561 H 0.20559 0.44461 0.07946 0.0
C562 C 0.19831 0.40277 0.15073 0.0
C563 C 0.22636 0.42591 0.10961 0.0
C564 C 0.25325 0.43538 0.09293 0.0
C565 C 0.17568 0.40991 0.14064 0.0
C566 C 0.17834 0.42489 0.11449 0.0
C567 C 0.20365 0.43294 0.0994 0.0
C568 C 0.15492 0.43235 0.10263 0.0
C569 C 0.14912 0.40161 0.15813 0.0
C570 C 0.13333 0.41137 0.0927 0.0
C571 C 0.11058 0.41821 0.08284 0.0
C572 C 0.10897 0.4462 0.08278 0.0
C573 C 0.13099 0.46725 0.09217 0.0
C574 C 0.1538 0.46037 0.10192 0.0
H575 H 0.15173 0.3952 0.18037 0.0
H576 H 0.13929 0.41917 0.15928 0.0
H577 H 0.13529 0.38367 0.1476 0.0
H578 H 0.13402 0.38965 0.09274 0.0
H579 H 0.09427 0.40154 0.07522 0.0
H580 H 0.64426 0.33614 0.93935 0.0
H581 H 0.62065 0.29034 0.95918 0.0
H582 H 0.5944 0.26243 0.87495 0.0
H583 H 0.61942 0.30769 0.85455 0.0
H584 H 0.56935 0.26389 0.96299 0.0
H585 H 0.62285 0.19831 0.89811 0.0
H586 H 0.63447 0.23601 0.89859 0.0
H587 H 0.60758 0.21887 0.87615 0.0
C588 C 0.63396 0.32015 0.92482 0.0
C589 C 0.63414 0.32577 0.89517 0.0
C590 C 0.6202 0.29394 0.93631 0.0
C591 C 0.60608 0.27255 0.91857 0.0
C592 C 0.6057 0.2782 0.88907 0.0
H593 H 0.4789 0.12939 0.98236 0.0
H594 H 0.50584 0.17364 0.9615 0.0
C595 C 0.6197 0.30438 0.87747 0.0
C596 C 0.59106 0.24481 0.93127 0.0
H597 H 0.5828 0.17404 0.92512 0.0
C598 C 0.57244 0.24429 0.95474 0.0
C599 C 0.59532 0.21909 0.921 0.0
C600 C 0.61634 0.21804 0.89728 0.0
C601 C 0.55769 0.21898 0.96779 0.0
C602 C 0.56094 0.19319 0.9566 0.0
C603 C 0.57997 0.1937 0.93353 0.0
C604 C 0.54459 0.16559 0.96837 0.0
C605 C 0.53919 0.22026 0.99388 0.0
C606 C 0.55722 0.14555 0.97814 0.0
C607 C 0.54174 0.11987 0.98967 0.0
C608 C 0.51332 0.11376 0.99169 0.0
C609 C 0.50075 0.13356 0.98137 0.0
C610 C 0.51618 0.15903 0.96963 0.0
H611 H 0.54547 0.24073 1.00504 0.0
H612 H 0.51832 0.21784 0.98699 0.0
H613 H 0.53882 0.20332 1.00949 0.0
H614 H 0.57909 0.14995 0.97722 0.0
H615 H 0.55199 0.10496 0.99729 0.0
H616 H 0.85921 0.78138 0.35169 0.0
H617 H 0.88399 0.82668 0.37087 0.0
H618 H 0.86988 0.79243 0.45684 0.0
H619 H 0.84548 0.74715 0.43788 0.0
H620 H 0.863 0.85999 0.41409 0.0
H621 H 0.95291 0.82831 0.44823 0.0
H622 H 0.93038 0.80858 0.42248 0.0
H623 H 0.92093 0.80543 0.4603 0.0
C624 C 0.86169 0.78346 0.37463 0.0
C625 C 0.85043 0.76074 0.3933 0.0
C626 C 0.87569 0.80934 0.38554 0.0
C627 C 0.87895 0.81276 0.41521 0.0
C628 C 0.86786 0.79009 0.43384 0.0
H629 H 0.94911 0.94052 0.53482 0.0
H630 H 0.92599 0.89823 0.50975 0.0
C631 C 0.85375 0.76433 0.423 0.0
C632 C 0.89326 0.84018 0.427 0.0
H633 H 0.94751 0.87206 0.46547 0.0
C634 C 0.88163 0.86281 0.42509 0.0
C635 C 0.91751 0.84365 0.44132 0.0
C636 C 0.93136 0.8203 0.44306 0.0
C637 C 0.8931 0.88861 0.43812 0.0
C638 C 0.91711 0.89192 0.45293 0.0
C639 C 0.92904 0.86944 0.45423 0.0
C640 C 0.92985 0.9182 0.46804 0.0
C641 C 0.87889 0.91171 0.43685 0.0
C642 C 0.93962 0.94355 0.45292 0.0
C643 C 0.95275 0.9679 0.46725 0.0
C644 C 0.95659 0.96722 0.4969 0.0
C645 C 0.94653 0.94182 0.51198 0.0
C646 C 0.93333 0.91758 0.49768 0.0
H647 H 0.85754 0.90364 0.431 0.0
H648 H 0.87915 0.92269 0.45782 0.0
H649 H 0.88951 0.92725 0.42027 0.0
H650 H 0.93764 0.94438 0.42992 0.0
H651 H 0.96042 0.98705 0.45494 0.0
H652 H 0.23165 0.76372 0.63073 0.0
H653 H 0.2629 0.74291 0.60201 0.0
H654 H 0.31787 0.82473 0.589 0.0
H655 H 0.28692 0.84555 0.61829 0.0
H656 H 0.29135 0.75026 0.54682 0.0
H657 H 0.35913 0.78273 0.63753 0.0
H658 H 0.32443 0.78463 0.63967 0.0
H659 H 0.3498 0.81047 0.61952 0.0
C660 C 0.25004 0.77731 0.62104 0.0
C661 C 0.25718 0.80611 0.62704 0.0
C662 C 0.26785 0.76545 0.60464 0.0
C663 C 0.29289 0.78226 0.59393 0.0
C664 C 0.29884 0.81138 0.59756 0.0
H665 H 0.43396 0.71742 0.55806 0.0
H666 H 0.40494 0.74953 0.55556 0.0
C667 C 0.28121 0.82322 0.61424 0.0
C668 C 0.31403 0.76883 0.58287 0.0
H669 H 0.37288 0.7555 0.60151 0.0
C670 C 0.30941 0.75167 0.55847 0.0
C671 C 0.33751 0.77073 0.59822 0.0
C672 C 0.34304 0.78793 0.62531 0.0
C673 C 0.32739 0.73573 0.54944 0.0
C674 C 0.35022 0.73676 0.56553 0.0
C675 C 0.35543 0.75489 0.58911 0.0
C676 C 0.3674 0.71709 0.56074 0.0
C677 C 0.32155 0.71764 0.52307 0.0
C678 C 0.3559 0.68818 0.56392 0.0
C679 C 0.3724 0.66985 0.56544 0.0
C680 C 0.40071 0.68018 0.56416 0.0
C681 C 0.41219 0.70896 0.5595 0.0
C682 C 0.39566 0.72726 0.55783 0.0
H683 H 0.30971 0.7263 0.50797 0.0
H684 H 0.34052 0.71559 0.51157 0.0
H685 H 0.30932 0.69643 0.52966 0.0
H686 H 0.33418 0.67994 0.56703 0.0
H687 H 0.36299 0.64783 0.56937 0.0
H688 H 0.74351 0.81458 0.8476 0.0
H689 H 0.77713 0.83321 0.80874 0.0
H690 H 0.71471 0.84931 0.75816 0.0
H691 H 0.68086 0.83096 0.79735 0.0
H692 H 0.78269 0.81829 0.7524 0.0
H693 H 0.768 0.92581 0.7605 0.0
H694 H 0.75361 0.89912 0.78715 0.0
H695 H 0.73819 0.89872 0.75334 0.0
C696 C 0.73686 0.82174 0.82806 0.0
C697 C 0.70957 0.8214 0.82552 0.0
C698 C 0.75611 0.83245 0.8059 0.0
C699 C 0.74849 0.84304 0.78075 0.0
C700 C 0.7211 0.84183 0.77766 0.0
H701 H 0.85831 0.93184 0.64093 0.0
H702 H 0.81752 0.9045 0.66734 0.0
C703 C 0.70181 0.83129 0.79999 0.0
C704 C 0.76961 0.85612 0.75841 0.0
H705 H 0.80084 0.91867 0.72599 0.0
C706 C 0.78652 0.84018 0.74644 0.0
C707 C 0.77457 0.8847 0.75069 0.0
C708 C 0.75782 0.90321 0.76371 0.0
C709 C 0.80864 0.85223 0.72747 0.0
C710 C 0.81399 0.88092 0.72044 0.0
C711 C 0.79654 0.89662 0.73147 0.0
C712 C 0.83874 0.89565 0.70348 0.0
C713 C 0.82638 0.83434 0.71536 0.0
C714 C 0.86409 0.89972 0.71519 0.0
C715 C 0.88737 0.9157 0.70045 0.0
C716 C 0.88574 0.92787 0.67364 0.0
C717 C 0.86028 0.92317 0.66171 0.0
C718 C 0.83697 0.90738 0.67663 0.0
H719 H 0.81607 0.81165 0.71723 0.0
H720 H 0.83242 0.83954 0.69238 0.0
H721 H 0.84507 0.83847 0.72745 0.0
H722 H 0.86575 0.89123 0.73617 0.0
H723 H 0.90649 0.91926 0.71054 0.0
H724 H 0.71197 0.19002 0.38493 0.0
H725 H 0.68849 0.17426 0.34115 0.0
H726 H 0.68521 0.25879 0.32374 0.0
H727 H 0.70977 0.27499 0.36692 0.0
H728 H 0.63758 0.17794 0.32799 0.0
H729 H 0.71593 0.23565 0.24745 0.0
H730 H 0.72304 0.23154 0.28446 0.0
H731 H 0.70559 0.25706 0.27495 0.0
C732 C 0.70676 0.20538 0.37151 0.0
C733 C 0.71295 0.23381 0.37931 0.0
C734 C 0.69311 0.19629 0.34664 0.0
C735 C 0.68539 0.2154 0.32906 0.0
C736 C 0.69141 0.24378 0.33676 0.0
H737 H 0.5998 0.18458 0.16925 0.0
H738 H 0.61923 0.20642 0.21355 0.0
C739 C 0.70518 0.25293 0.3616 0.0
C740 C 0.67043 0.20531 0.30309 0.0
H741 H 0.67439 0.21005 0.22977 0.0
C742 C 0.64559 0.185 0.30651 0.0
C743 C 0.68089 0.2147 0.27514 0.0
C744 C 0.70793 0.23576 0.27012 0.0
C745 C 0.63106 0.17357 0.28267 0.0
C746 C 0.64181 0.18252 0.25475 0.0
C747 C 0.66625 0.20335 0.2513 0.0
C748 C 0.62889 0.16917 0.22877 0.0
C749 C 0.60438 0.15192 0.28749 0.0
C750 C 0.62806 0.14112 0.22278 0.0
C751 C 0.61711 0.12869 0.1976 0.0
C752 C 0.60681 0.14411 0.17795 0.0
C753 C 0.60738 0.17215 0.18416 0.0
C754 C 0.61854 0.18466 0.20932 0.0
H755 H 0.59576 0.15251 0.30986 0.0
H756 H 0.58947 0.15511 0.2723 0.0
H757 H 0.6075 0.13076 0.28365 0.0
H758 H 0.63628 0.12897 0.2374 0.0
H759 H 0.61672 0.10698 0.19347 0.0
H760 H 0.41735 0.70574 0.27749 0.0
H761 H 0.43184 0.68371 0.31838 0.0
H762 H 0.34902 0.63874 0.33942 0.0
H763 H 0.33447 0.66042 0.29803 0.0
H764 H 0.41954 0.68594 0.37539 0.0
H765 H 0.3864 0.57584 0.33842 0.0
H766 H 0.3878 0.60522 0.31519 0.0
H767 H 0.35995 0.59362 0.34124 0.0
C768 C 0.40221 0.69105 0.29076 0.0
C769 C 0.3748 0.68471 0.28437 0.0
C770 C 0.41052 0.6785 0.3142 0.0
C771 C 0.39165 0.65919 0.33189 0.0
C772 C 0.36411 0.65306 0.3258 0.0
H773 H 0.43443 0.60732 0.49998 0.0
H774 H 0.41432 0.62778 0.46205 0.0
C775 C 0.35577 0.66561 0.3022 0.0
C776 C 0.40104 0.64598 0.35678 0.0
H777 H 0.40371 0.58307 0.38474 0.0
C778 C 0.41598 0.66343 0.37746 0.0
C779 C 0.39675 0.6166 0.35942 0.0
C780 C 0.38208 0.59668 0.33728 0.0
C781 C 0.42681 0.65243 0.40047 0.0
C782 C 0.42216 0.62303 0.40337 0.0
C783 C 0.40713 0.60557 0.38275 0.0
C784 C 0.43373 0.61001 0.42682 0.0
C785 C 0.44391 0.67253 0.42088 0.0
C786 C 0.45074 0.59243 0.41993 0.0
C787 C 0.46206 0.58042 0.44163 0.0
C788 C 0.45664 0.58564 0.47088 0.0
C789 C 0.43929 0.60297 0.47777 0.0
C790 C 0.42786 0.61487 0.45602 0.0
H791 H 0.45144 0.69387 0.41143 0.0
H792 H 0.4315 0.67416 0.44082 0.0
H793 H 0.46155 0.6651 0.42684 0.0
H794 H 0.45557 0.58822 0.39764 0.0
H795 H 0.47525 0.56719 0.4354 0.0
H796 H 0.1018 0.40537 0.78984 0.0
H797 H 0.07791 0.42681 0.82715 0.0
H798 H 0.1517 0.49007 0.84104 0.0
H799 H 0.17575 0.46867 0.80401 0.0
H800 H 0.09667 0.44036 0.88952 0.0
H801 H 0.08973 0.53108 0.82327 0.0
H802 H 0.09312 0.49854 0.80743 0.0
H803 H 0.12177 0.52234 0.82226 0.0
C804 C 0.11291 0.42384 0.80083 0.0
C805 C 0.14062 0.43546 0.79403 0.0
C806 C 0.09926 0.43601 0.82213 0.0
C807 C 0.11307 0.46007 0.83661 0.0
C808 C 0.14071 0.47161 0.82991 0.0
H809 H 0.06842 0.57423 0.961 0.0
H810 H 0.09142 0.5507 0.9249 0.0
C811 C 0.15439 0.45936 0.80884 0.0
C812 C 0.09873 0.47321 0.85889 0.0
H813 H 0.07532 0.53097 0.87231 0.0
C814 C 0.09182 0.46009 0.88581 0.0
C815 C 0.09275 0.49903 0.85391 0.0
C816 C 0.09953 0.51364 0.82513 0.0
C817 C 0.07944 0.47244 0.9082 0.0
C818 C 0.07323 0.49822 0.90317 0.0
C819 C 0.0801 0.51124 0.87613 0.0
C820 C 0.05956 0.51208 0.9256 0.0
C821 C 0.07387 0.45815 0.93722 0.0
C822 C 0.03393 0.4983 0.93778 0.0
C823 C 0.02089 0.51163 0.95848 0.0
C824 C 0.03311 0.53911 0.96711 0.0
C825 C 0.0586 0.55303 0.95473 0.0
C826 C 0.07172 0.53961 0.93414 0.0
H827 H 0.08672 0.44348 0.93988 0.0
H828 H 0.07742 0.47368 0.95495 0.0
H829 H 0.0524 0.44584 0.93926 0.0
H830 H 0.02384 0.47735 0.931 0.0
H831 H 0.00109 0.50055 0.96745 0.0
H832 H 0.60471 0.80694 0.91099 0.0
H833 H 0.57728 0.83816 0.9288 0.0
H834 H 0.64146 0.90991 0.90161 0.0
H835 H 0.66926 0.87912 0.88455 0.0
H836 H 0.59258 0.88276 0.97102 0.0
H837 H 0.57238 0.92167 0.86518 0.0
H838 H 0.58283 0.88975 0.86908 0.0
H839 H 0.60727 0.92314 0.87009 0.0
C840 C 0.61306 0.82937 0.90895 0.0
C841 C 0.63914 0.84047 0.89609 0.0
C842 C 0.59729 0.84714 0.91896 0.0
C843 C 0.60719 0.87628 0.91603 0.0
C844 C 0.63322 0.88744 0.90346 0.0
H845 H 0.57047 1.01885 0.99654 0.0
H846 H 0.59025 0.98347 0.97379 0.0
C847 C 0.64905 0.86976 0.89365 0.0
C848 C 0.5909 0.89525 0.92715 0.0
H849 H 0.56199 0.94651 0.9067 0.0
C850 C 0.58561 0.89647 0.95697 0.0
C851 C 0.58176 0.913 0.9087 0.0
C852 C 0.5861 0.91176 0.87644 0.0
C853 C 0.57228 0.91577 0.9689 0.0
C854 C 0.56407 0.93421 0.95052 0.0
C855 C 0.56849 0.93237 0.92066 0.0
C856 C 0.55196 0.95634 0.96228 0.0
C857 C 0.56744 0.91679 1.00111 0.0
C858 C 0.52392 0.95295 0.96271 0.0
C859 C 0.51245 0.97311 0.97581 0.0
C860 C 0.52894 0.99704 0.98848 0.0
C861 C 0.55715 1.00074 0.98699 0.0
C862 C 0.56853 0.98052 0.97407 0.0
H863 H 0.57167 0.89865 1.01207 0.0
H864 H 0.5808 0.93633 1.00949 0.0
H865 H 0.54618 0.91716 1.00668 0.0
H866 H 0.51088 0.93438 0.95362 0.0
H867 H 0.49067 0.96962 0.97656 0.0
H868 H 0.82059 0.20574 0.43886 0.0
H869 H 0.8513 0.17687 0.44835 0.0
H870 H 0.82725 0.17519 0.53878 0.0
H871 H 0.79679 0.20467 0.52947 0.0
H872 H 0.88218 0.18445 0.52877 0.0
H873 H 0.82742 0.09335 0.46586 0.0
H874 H 0.83762 0.12539 0.44557 0.0
H875 H 0.81321 0.12222 0.47548 0.0
C876 C 0.82184 0.19925 0.46077 0.0
C877 C 0.80613 0.20715 0.48347 0.0
C878 C 0.83928 0.18263 0.46612 0.0
C879 C 0.84106 0.1734 0.49415 0.0
C880 C 0.82598 0.18194 0.51695 0.0
H881 H 0.9061 1.03833 0.54661 0.0
H882 H 0.87746 0.06857 0.534 0.0
C883 C 0.80864 0.19873 0.51165 0.0
C884 C 0.85872 0.15489 0.49972 0.0
H885 H 0.8698 0.09134 0.48261 0.0
C886 C 0.87949 0.16407 0.51873 0.0
C887 C 0.85486 0.12818 0.48685 0.0
C888 C 0.83191 0.11653 0.46752 0.0
C889 C 0.89672 0.14733 0.52506 0.0
C890 C 0.8934 0.121 0.51148 0.0
C891 C 0.87248 0.11171 0.49267 0.0
C892 C 0.91075 0.10228 0.51745 0.0
C893 C 0.91786 0.1577 0.54676 0.0
C894 C 0.93885 0.11095 0.51158 0.0
C895 C 0.95524 0.0938 0.51892 0.0
C896 C 0.9437 0.06762 0.53195 0.0
C897 C 0.91549 0.05849 0.53669 0.0
C898 C 0.89913 0.0757 0.5295 0.0
H899 H 0.91321 0.17459 0.56045 0.0
H900 H 0.91957 0.14038 0.56092 0.0
H901 H 0.9378 0.16632 0.53524 0.0
H902 H 0.94812 0.13113 0.50168 0.0
H903 H 0.97695 0.10127 0.51497 0.0
H904 H 0.28882 0.69399 0.13306 0.0
H905 H 0.24688 0.67069 0.11056 0.0
H906 H 0.20573 0.6536 0.19435 0.0
H907 H 0.24794 0.67626 0.217 0.0
H908 H 0.19025 0.60941 0.16059 0.0
H909 H 0.1844 0.70312 0.1 0.0
H910 H 0.21523 0.69337 0.09128 0.0
H911 H 0.20846 0.70475 0.12719 0.0
C912 C 0.27081 0.68536 0.14671 0.0
C913 C 0.27171 0.68725 0.17685 0.0
C914 C 0.24675 0.67213 0.13379 0.0
C915 C 0.22279 0.66094 0.15063 0.0
C916 C 0.22381 0.66218 0.18079 0.0
H917 H 0.06151 0.62406 0.08521 0.0
H918 H 0.10405 0.64376 0.10797 0.0
C919 C 0.24799 0.67512 0.19374 0.0
C920 C 0.19675 0.64794 0.13687 0.0
H921 H 0.15379 0.6601 0.0878 0.0
C922 C 0.18224 0.62056 0.14475 0.0
C923 C 0.1859 0.66251 0.11648 0.0
C924 C 0.19915 0.69265 0.10845 0.0
C925 C 0.15752 0.60733 0.1327 0.0
C926 C 0.14723 0.62151 0.11145 0.0
C927 C 0.16166 0.64898 0.10378 0.0
C928 C 0.12111 0.60887 0.09766 0.0
C929 C 0.14234 0.57859 0.14357 0.0
C930 C 0.11632 0.58269 0.08386 0.0
C931 C 0.0917 0.57114 0.07108 0.0
C932 C 0.0715 0.58577 0.07125 0.0
C933 C 0.07657 0.6122 0.08453 0.0
C934 C 0.10098 0.62352 0.09761 0.0
H935 H 0.1484 0.57446 0.16531 0.0
H936 H 0.12014 0.57606 0.1446 0.0
H937 H 0.14704 0.56253 0.12877 0.0
H938 H 0.13169 0.57122 0.08271 0.0
H939 H 0.08863 0.55086 0.06084 0.0
H940 H 0.23784 0.37541 0.68652 0.0
H941 H 0.28093 0.40007 0.66231 0.0
H942 H 0.24822 0.47018 0.64575 0.0
H943 H 0.20539 0.44588 0.67102 0.0
H944 H 0.29086 0.41543 0.60841 0.0
H945 H 0.31934 0.51035 0.6761 0.0
H946 H 0.29214 0.48036 0.68674 0.0
H947 H 0.28675 0.50556 0.66163 0.0
C948 C 0.24002 0.39621 0.67795 0.0
C949 C 0.21845 0.40885 0.68065 0.0
C950 C 0.26459 0.41028 0.66414 0.0
C951 C 0.26798 0.43715 0.65251 0.0
C952 C 0.24638 0.44982 0.65521 0.0
H953 H 0.3973 0.50182 0.52102 0.0
H954 H 0.35306 0.48451 0.54662 0.0
C955 C 0.2219 0.4359 0.66948 0.0
C956 C 0.29365 0.45103 0.63628 0.0
H957 H 0.34551 0.51059 0.63218 0.0
C958 C 0.30285 0.43621 0.61369 0.0
C959 C 0.30942 0.47804 0.64333 0.0
C960 C 0.30157 0.4944 0.66846 0.0
C961 C 0.3274 0.44749 0.59808 0.0
C962 C 0.34276 0.47487 0.6045 0.0
C963 C 0.33355 0.48976 0.62704 0.0
C964 C 0.36907 0.48782 0.589 0.0
C965 C 0.33702 0.4295 0.57557 0.0
C966 C 0.39256 0.49687 0.60438 0.0
C967 C 0.41771 0.50733 0.58984 0.0
C968 C 0.41979 0.50865 0.55965 0.0
C969 C 0.39622 0.50058 0.5443 0.0
C970 C 0.371 0.49054 0.55888 0.0
H971 H 0.32712 0.40689 0.57912 0.0
H972 H 0.33187 0.43523 0.55402 0.0
H973 H 0.35928 0.43261 0.57549 0.0
H974 H 0.39154 0.49515 0.62763 0.0
H975 H 0.4356 0.51358 0.60219 0.0
H976 H 0.70053 0.69083 0.87415 0.0
H977 H 0.73611 0.67194 0.89248 0.0
H978 H 0.74313 0.72878 0.96431 0.0
H979 H 0.7073 0.74746 0.9463 0.0
H980 H 0.78851 0.70265 0.8995 0.0
H981 H 0.74102 0.65419 1.003 0.0
H982 H 0.72168 0.66352 0.97521 0.0
H983 H 0.73994 0.68995 0.99875 0.0
C984 C 0.70936 0.69892 0.89413 0.0
C985 C 0.70115 0.72053 0.90881 0.0
C986 C 0.7297 0.68818 0.90453 0.0
C987 C 0.7421 0.69876 0.92989 0.0
C988 C 0.73348 0.71993 0.945 0.0
H989 H 0.90137 0.69613 0.97965 0.0
H990 H 0.86104 0.7084 0.96428 0.0
C991 C 0.71309 0.73068 0.9346 0.0
C992 C 0.76541 0.68914 0.93924 0.0
H993 H 0.78849 0.65948 0.99522 0.0
C994 C 0.78844 0.69306 0.92037 0.0
C995 C 0.76517 0.67639 0.96634 0.0
C996 C 0.74055 0.67049 0.98692 0.0
C997 C 0.81147 0.68512 0.9281 0.0
C998 C 0.81162 0.67332 0.9556 0.0
C999 C 0.78838 0.66878 0.97424 0.0
C1000 C 0.83585 0.66584 0.96545 0.0
C1001 C 0.8354 0.68924 0.90667 0.0
C1002 C 0.83488 0.6379 0.97179 0.0
C1003 C 0.85787 0.63083 0.98077 0.0
C1004 C 0.88218 0.65163 0.98382 0.0
C1005 C 0.88293 0.67964 0.97773 0.0
C1006 C 0.85998 0.68666 0.96869 0.0
H1007 H 0.82961 0.6917 0.88438 0.0
H1008 H 0.85095 0.70849 0.91222 0.0
H1009 H 0.84467 0.6713 0.9072 0.0
H1010 H 0.81638 0.62155 0.96957 0.0
H1011 H 0.85651 0.60913 0.98568 0.0
H1012 H 0.31585 0.78663 0.17512 0.0
H1013 H 0.34085 0.83237 0.15556 0.0
H1014 H 0.41611 0.81061 0.16503 0.0
H1015 H 0.39125 0.76454 0.18387 0.0
H1016 H 0.38008 0.87513 0.18034 0.0
H1017 H 0.42257 0.83593 0.08095 0.0
H1018 H 0.39515 0.81425 0.10302 0.0
H1019 H 0.42946 0.82048 0.11347 0.0
C1020 C 0.33771 0.7914 0.17275 0.0
C1021 C 0.35147 0.77169 0.18091 0.0
C1022 C 0.352 0.81769 0.16173 0.0
C1023 C 0.38037 0.82486 0.15837 0.0
C1024 C 0.39421 0.80543 0.16689 0.0
H1025 H 0.50663 0.96872 0.09706 0.0
H1026 H 0.47923 0.92386 0.11634 0.0
C1027 C 0.37995 0.77916 0.17798 0.0
C1028 C 0.39548 0.85275 0.14631 0.0
H1029 H 0.43977 0.88417 0.09143 0.0
C1030 C 0.39301 0.87713 0.1608 0.0
C1031 C 0.41234 0.85541 0.12078 0.0
C1032 C 0.41491 0.83017 0.10345 0.0
C1033 C 0.40749 0.90397 0.15095 0.0
C1034 C 0.42455 0.90662 0.12555 0.0
C1035 C 0.42677 0.88223 0.11091 0.0
C1036 C 0.44094 0.93437 0.1142 0.0
C1037 C 0.40504 0.92919 0.16839 0.0
C1038 C 0.42863 0.95533 0.10629 0.0
C1039 C 0.44435 0.98117 0.09535 0.0
C1040 C 0.47266 0.98644 0.09189 0.0
C1041 C 0.48488 0.96537 0.09959 0.0
C1042 C 0.46921 0.93966 0.11056 0.0
H1043 H 0.39695 0.92333 0.19074 0.0
H1044 H 0.42495 0.94481 0.16926 0.0
H1045 H 0.39092 0.93929 0.15816 0.0
H1046 H 0.40683 0.95161 0.10824 0.0
H1047 H 0.43434 0.99691 0.0894 0.0
H1048 H 0.12895 0.30322 0.7265 0.0
H1049 H 0.10991 0.2565 0.70661 0.0
H1050 H 0.13095 0.28956 0.62066 0.0
H1051 H 0.1497 0.33617 0.64022 0.0
H1052 H 0.06847 0.23848 0.66654 0.0
H1053 H 0.16728 0.22434 0.62359 0.0
H1054 H 0.16458 0.25077 0.64987 0.0
H1055 H 0.16037 0.25634 0.61249 0.0
C1056 C 0.12925 0.30056 0.70337 0.0
C1057 C 0.14113 0.32332 0.68494 0.0
C1058 C 0.11852 0.27387 0.69206 0.0
C1059 C 0.1196 0.26951 0.66221 0.0
C1060 C 0.13056 0.29235 0.64378 0.0
H1061 H 0.0676 0.13437 0.54293 0.0
H1062 H 0.08794 0.17823 0.56728 0.0
C1063 C 0.14125 0.31896 0.65501 0.0
C1064 C 0.10915 0.24118 0.6501 0.0
H1065 H 0.12786 0.19136 0.60837 0.0
C1066 C 0.08145 0.22801 0.65407 0.0
C1067 C 0.12619 0.22766 0.6338 0.0
C1068 C 0.15631 0.24034 0.62985 0.0
C1069 C 0.07014 0.20202 0.64134 0.0
C1070 C 0.08713 0.18868 0.6247 0.0
C1071 C 0.1149 0.20167 0.62111 0.0
C1072 C 0.07629 0.16155 0.61023 0.0
C1073 C 0.03997 0.18952 0.64501 0.0
C1074 C 0.06374 0.13743 0.62636 0.0
C1075 C 0.05209 0.11231 0.61255 0.0
C1076 C 0.05289 0.1108 0.5823 0.0
C1077 C 0.06651 0.13475 0.56624 0.0
C1078 C 0.07814 0.15987 0.5801 0.0
H1079 H 0.02913 0.20527 0.65254 0.0
H1080 H 0.03165 0.18044 0.62447 0.0
H1081 H 0.03574 0.17245 0.66125 0.0
H1082 H 0.06263 0.13814 0.64965 0.0
H1083 H 0.04194 0.09426 0.62562 0.0
H1084 H 0.72242 0.32056 0.43548 0.0
H1085 H 0.69999 0.35038 0.46421 0.0
H1086 H 0.69197 0.29496 0.537 0.0
H1087 H 0.71432 0.26472 0.50803 0.0
H1088 H 0.64368 0.30354 0.52231 0.0
H1089 H 0.71846 0.40563 0.52999 0.0
H1090 H 0.71836 0.39296 0.49375 0.0
H1091 H 0.72819 0.3736 0.522 0.0
C1092 C 0.71634 0.31504 0.45778 0.0
C1093 C 0.7199 0.29031 0.46953 0.0
C1094 C 0.70385 0.33226 0.47429 0.0
C1095 C 0.69472 0.32512 0.50289 0.0
C1096 C 0.69922 0.301 0.51509 0.0
H1097 H 0.59539 0.43948 0.55842 0.0
H1098 H 0.62646 0.41028 0.56628 0.0
C1099 C 0.71196 0.28381 0.49857 0.0
C1100 C 0.67694 0.34061 0.5179 0.0
H1101 H 0.67109 0.40731 0.52706 0.0
C1102 C 0.64985 0.32616 0.52433 0.0
C1103 C 0.68503 0.37002 0.52109 0.0
C1104 C 0.71421 0.38637 0.51664 0.0
C1105 C 0.63012 0.3407 0.53055 0.0
C1106 C 0.63775 0.37027 0.53002 0.0
C1107 C 0.66524 0.38459 0.52697 0.0
C1108 C 0.6175 0.38641 0.52721 0.0
C1109 C 0.60102 0.32435 0.53573 0.0
C1110 C 0.60251 0.38275 0.50253 0.0
C1111 C 0.58525 0.39961 0.49768 0.0
C1112 C 0.58252 0.42049 0.5175 0.0
C1113 C 0.59726 0.4238 0.54255 0.0
C1114 C 0.61481 0.40702 0.54724 0.0
H1115 H 0.59958 0.30335 0.54496 0.0
H1116 H 0.58978 0.33572 0.55048 0.0
H1117 H 0.59108 0.32123 0.51492 0.0
H1118 H 0.60489 0.36743 0.48644 0.0
H1119 H 0.57478 0.39686 0.47786 0.0
loop_
_geom_bond_atom_site_label_1
_geom_bond_atom_site_label_2
_geom_bond_distance
_geom_bond_site_symmetry_2
_ccdc_geom_bond_type
H0 C5 0.930 . S
H1 C8 0.930 . S
H2 C10 0.930 . S
H3 C4 1.016 . S
C4 H3 1.016 . S
C4 N11 1.286 . S
C5 H0 0.930 . S
C5 C6 1.397 . S
C5 C7 1.361 . S
C6 C5 1.397 . S
C6 C10 1.390 . S
C7 C5 1.361 . S
C7 C8 1.393 . S
C7 N11 1.413 . S
C8 H1 0.930 . S
C8 C7 1.393 . S
C8 C9 1.399 . S
C9 C8 1.399 . S
C9 C10 1.381 . S
C10 H2 0.930 . S
C10 C6 1.390 . S
C10 C9 1.381 . S
N11 C4 1.286 . S
N11 C7 1.413 . S
H12 C17 0.930 . S
H13 C20 0.930 . S
H14 C22 0.930 . S
H15 C16 1.016 . S
C16 H15 1.016 . S
C16 N23 1.286 . S
C17 H12 0.930 . S
C17 C18 1.397 . S
C17 C19 1.361 . S
C18 C17 1.397 . S
C18 C22 1.390 . S
C19 C17 1.361 . S
C19 C20 1.393 . S
C19 N23 1.413 . S
C20 H13 0.930 . S
C20 C19 1.393 . S
C20 C21 1.399 . S
C21 C20 1.399 . S
C21 C22 1.381 . S
C22 H14 0.930 . S
C22 C18 1.390 . S
C22 C21 1.381 . S
N23 C16 1.286 . S
N23 C19 1.413 . S
H24 C29 0.930 . S
H25 C32 0.930 . S
H26 C34 0.930 . S
H27 C28 1.016 . S
C28 H27 1.016 . S
C28 N35 1.286 . S
C29 H24 0.930 . S
C29 C30 1.397 . S
C29 C31 1.361 . S
C30 C29 1.397 . S
C30 C34 1.390 . S
C31 C29 1.361 . S
C31 C32 1.393 . S
C31 N35 1.413 . S
C32 H25 0.930 . S
C32 C31 1.393 . S
C32 C33 1.399 . S
C33 C32 1.399 . S
C33 C34 1.381 . S
C34 H26 0.930 . S
C34 C30 1.390 . S
C34 C33 1.381 . S
N35 C28 1.286 . S
N35 C31 1.413 . S
H36 C41 0.930 . S
H37 C44 0.930 . S
H38 C46 0.930 . S
H39 C40 1.016 . S
C40 H39 1.016 . S
C40 N47 1.286 . S
C41 H36 0.930 . S
C41 C42 1.397 . S
C41 C43 1.361 . S
C42 C41 1.397 . S
C42 C46 1.390 . S
C43 C41 1.361 . S
C43 C44 1.393 . S
C43 N47 1.413 . S
C44 H37 0.930 . S
C44 C43 1.393 . S
C44 C45 1.399 . S
C45 C44 1.399 . S
C45 C46 1.381 . S
C46 H38 0.930 . S
C46 C42 1.390 . S
C46 C45 1.381 . S
N47 C40 1.286 . S
N47 C43 1.413 . S
H48 C53 0.930 . S
H49 C56 0.930 . S
H50 C58 0.930 . S
H51 C52 1.016 . S
C52 H51 1.016 . S
C52 N59 1.286 . S
C53 H48 0.930 . S
C53 C54 1.397 . S
C53 C55 1.361 . S
C54 C53 1.397 . S
C54 C58 1.390 . S
C55 C53 1.361 . S
C55 C56 1.393 . S
C55 N59 1.413 . S
C56 H49 0.930 . S
C56 C55 1.393 . S
C56 C57 1.399 . S
C57 C56 1.399 . S
C57 C58 1.381 . S
C58 H50 0.930 . S
C58 C54 1.390 . S
C58 C57 1.381 . S
N59 C52 1.286 . S
N59 C55 1.413 . S
H60 C65 0.930 . S
H61 C68 0.930 . S
H62 C70 0.930 . S
H63 C64 1.016 . S
C64 H63 1.016 . S
C64 N71 1.286 . S
C65 H60 0.930 . S
C65 C66 1.397 . S
C65 C67 1.361 . S
C66 C65 1.397 . S
C66 C70 1.390 . S
C67 C65 1.361 . S
C67 C68 1.393 . S
C67 N71 1.413 . S
C68 H61 0.930 . S
C68 C67 1.393 . S
C68 C69 1.399 . S
C69 C68 1.399 . S
C69 C70 1.381 . S
C70 H62 0.930 . S
C70 C66 1.390 . S
C70 C69 1.381 . S
N71 C64 1.286 . S
N71 C67 1.413 . S
H72 C77 0.930 . S
H73 C80 0.930 . S
H74 C82 0.930 . S
H75 C76 1.016 . S
C76 H75 1.016 . S
C76 N83 1.286 . S
C77 H72 0.930 . S
C77 C78 1.397 . S
C77 C79 1.361 . S
C78 C77 1.397 . S
C78 C82 1.390 . S
C79 C77 1.361 . S
C79 C80 1.393 . S
C79 N83 1.413 . S
C80 H73 0.930 . S
C80 C79 1.393 . S
C80 C81 1.399 . S
C81 C80 1.399 . S
C81 C82 1.381 . S
C82 H74 0.930 . S
C82 C78 1.390 . S
C82 C81 1.381 . S
N83 C76 1.286 . S
N83 C79 1.413 . S
H84 C89 0.930 . S
H85 C92 0.930 . S
H86 C94 0.930 . S
H87 C88 1.016 . S
C88 H87 1.016 . S
C88 N95 1.286 . S
C89 H84 0.930 . S
C89 C90 1.397 . S
C89 C91 1.361 . S
C90 C89 1.397 . S
C90 C94 1.390 . S
C91 C89 1.361 . S
C91 C92 1.393 . S
C91 N95 1.413 . S
C92 H85 0.930 . S
C92 C91 1.393 . S
C92 C93 1.399 . S
C93 C92 1.399 . S
C93 C94 1.381 . S
C94 H86 0.930 . S
C94 C90 1.390 . S
C94 C93 1.381 . S
N95 C88 1.286 . S
N95 C91 1.413 . S
Gd96 C99 2.818 . S
Gd96 O116 2.377 . S
Gd96 O118 2.448 . S
Gd96 O119 2.506 . S
Gd96 O120 2.435 1_545 S
Gd96 O121 2.717 1_545 S
Gd96 O123 2.395 1_445 S
Gd96 O127 2.327 1_455 S
Gd97 C108 2.818 . S
Gd97 O117 2.395 1_665 S
Gd97 O121 2.327 1_655 S
Gd97 O122 2.377 . S
Gd97 O124 2.448 . S
Gd97 O125 2.506 . S
Gd97 O126 2.435 1_565 S
Gd97 O127 2.717 1_565 S
C98 O116 1.240 . S
C98 O117 1.240 . S
C99 Gd96 2.818 . S
C99 C100 1.510 . S
C99 O118 1.249 . S
C99 O119 1.252 . S
C100 C99 1.510 . S
C100 C101 1.404 . S
C100 C102 1.352 . S
C101 C100 1.404 . S
C101 C105 1.389 . S
C101 H128 0.930 . S
C102 C100 1.352 . S
C102 C104 1.374 . S
C102 H129 0.931 . S
C103 C104 1.359 . S
C103 C105 1.364 . S
C104 C102 1.374 . S
C104 C103 1.359 . S
C104 H130 0.931 . S
C105 C101 1.389 . S
C105 C103 1.364 . S
C105 H131 0.931 . S
C106 O120 1.256 . S
C106 O121 1.257 . S
C107 O122 1.240 . S
C107 O123 1.240 . S
C108 Gd97 2.818 . S
C108 C109 1.510 . S
C108 O124 1.249 . S
C108 O125 1.252 . S
C109 C108 1.510 . S
C109 C110 1.404 . S
C109 C111 1.352 . S
C110 C109 1.404 . S
C110 C114 1.389 . S
C110 H132 0.930 . S
C111 C109 1.352 . S
C111 C113 1.374 . S
C111 H133 0.931 . S
C112 C113 1.359 . S
C112 C114 1.364 . S
C113 C111 1.374 . S
C113 C112 1.359 . S
C113 H134 0.931 . S
C114 C110 1.389 . S
C114 C112 1.364 . S
C114 H135 0.931 . S
C115 O126 1.256 . S
C115 O127 1.257 . S
O116 Gd96 2.377 . S
O116 C98 1.240 . S
O117 Gd97 2.395 1_445 S
O117 C98 1.240 . S
O118 Gd96 2.448 . S
O118 C99 1.249 . S
O119 Gd96 2.506 . S
O119 C99 1.252 . S
O120 Gd96 2.435 1_565 S
O120 C106 1.256 . S
O121 Gd96 2.717 1_565 S
O121 Gd97 2.327 1_455 S
O121 C106 1.257 . S
O122 Gd97 2.377 . S
O122 C107 1.240 . S
O123 Gd96 2.395 1_665 S
O123 C107 1.240 . S
O124 Gd97 2.448 . S
O124 C108 1.249 . S
O125 Gd97 2.506 . S
O125 C108 1.252 . S
O126 Gd97 2.435 1_545 S
O126 C115 1.256 . S
O127 Gd96 2.327 1_655 S
O127 Gd97 2.717 1_545 S
O127 C115 1.257 . S
H128 C101 0.930 . S
H129 C102 0.931 . S
H130 C104 0.931 . S
H131 C105 0.931 . S
H132 C110 0.930 . S
H133 C111 0.931 . S
H134 C113 0.931 . S
H135 C114 0.931 . S
Gd136 C139 2.818 . S
Gd136 O156 2.377 . S
Gd136 O158 2.448 . S
Gd136 O159 2.506 . S
Gd136 O160 2.435 1_545 S
Gd136 O161 2.717 1_545 S
Gd136 O163 2.395 1_544 S
Gd136 O167 2.295 1_554 S
Gd137 C148 2.818 1_545 S
Gd137 O157 2.395 1_556 S
Gd137 O161 2.327 1_546 S
Gd137 O162 2.377 1_545 S
Gd137 O164 2.448 1_545 S
Gd137 O165 2.506 1_545 S
Gd137 O166 2.435 . S
Gd137 O167 2.732 . S
C138 O156 1.240 . S
C138 O157 1.240 . S
C139 Gd136 2.818 . S
C139 C140 1.510 . S
C139 O158 1.249 . S
C139 O159 1.252 . S
C140 C139 1.510 . S
C140 C141 1.404 . S
C140 C142 1.352 . S
C141 C140 1.404 . S
C141 C145 1.389 . S
C141 H168 0.930 . S
C142 C140 1.352 . S
C142 C144 1.374 . S
C142 H169 0.931 . S
C143 C144 1.359 . S
C143 C145 1.364 . S
C144 C142 1.374 . S
C144 C143 1.359 . S
C144 H170 0.931 . S
C145 C141 1.389 . S
C145 C143 1.364 . S
C145 H171 0.931 . S
C146 O160 1.256 . S
C146 O161 1.257 . S
C147 O162 1.240 . S
C147 O163 1.240 . S
C148 Gd137 2.818 1_565 S
C148 C149 1.510 . S
C148 O164 1.249 . S
C148 O165 1.252 . S
C149 C148 1.510 . S
C149 C150 1.404 . S
C149 C151 1.352 . S
C150 C149 1.404 . S
C150 C154 1.389 . S
C150 H172 0.930 . S
C151 C149 1.352 . S
C151 C153 1.374 . S
C151 H173 0.931 . S
C152 C153 1.359 . S
C152 C154 1.364 . S
C153 C151 1.374 . S
C153 C152 1.359 . S
C153 H174 0.931 . S
C154 C150 1.389 . S
C154 C152 1.364 . S
C154 H175 0.931 . S
C155 O166 1.256 . S
C155 O167 1.292 . S
O156 Gd136 2.377 . S
O156 C138 1.240 . S
O157 Gd137 2.395 1_554 S
O157 C138 1.240 . S
O158 Gd136 2.448 . S
O158 C139 1.249 . S
O159 Gd136 2.506 . S
O159 C139 1.252 . S
O160 Gd136 2.435 1_565 S
O160 C146 1.256 . S
O161 Gd136 2.717 1_565 S
O161 Gd137 2.327 1_564 S
O161 C146 1.257 . S
O162 Gd137 2.377 1_565 S
O162 C147 1.240 . S
O163 Gd136 2.395 1_566 S
O163 C147 1.240 . S
O164 Gd137 2.448 1_565 S
O164 C148 1.249 . S
O165 Gd137 2.506 1_565 S
O165 C148 1.252 . S
O166 Gd137 2.435 . S
O166 C155 1.256 . S
O167 Gd136 2.295 1_556 S
O167 Gd137 2.732 . S
O167 C155 1.292 . S
H168 C141 0.930 . S
H169 C142 0.931 . S
H170 C144 0.931 . S
H171 C145 0.931 . S
H172 C150 0.930 . S
H173 C151 0.931 . S
H174 C153 0.931 . S
H175 C154 0.931 . S
Gd176 C179 2.818 . S
Gd176 O196 2.377 . S
Gd176 O198 2.448 . S
Gd176 O199 2.506 . S
Gd176 O200 2.435 . S
Gd176 O201 2.717 . S
Gd176 O203 2.395 . S
Gd176 O207 2.327 . S
Gd177 C188 2.818 . S
Gd177 O197 2.395 . S
Gd177 O201 2.327 . S
Gd177 O202 2.377 . S
Gd177 O204 2.448 . S
Gd177 O205 2.506 . S
Gd177 O206 2.435 . S
Gd177 O207 2.717 . S
C178 O196 1.240 . S
C178 O197 1.240 . S
C179 Gd176 2.818 . S
C179 C180 1.510 . S
C179 O198 1.249 . S
C179 O199 1.252 . S
C180 C179 1.510 . S
C180 C181 1.404 . S
C180 C182 1.352 . S
C181 C180 1.404 . S
C181 C185 1.389 . S
C181 H208 0.930 . S
C182 C180 1.352 . S
C182 C184 1.374 . S
C182 H209 0.931 . S
C183 C184 1.359 . S
C183 C185 1.364 . S
C184 C182 1.374 . S
C184 C183 1.359 . S
C184 H210 0.931 . S
C185 C181 1.389 . S
C185 C183 1.364 . S
C185 H211 0.931 . S
C186 O200 1.256 . S
C186 O201 1.257 . S
C187 O202 1.240 . S
C187 O203 1.240 . S
C188 Gd177 2.818 . S
C188 C189 1.510 . S
C188 O204 1.249 . S
C188 O205 1.252 . S
C189 C188 1.510 . S
C189 C190 1.404 . S
C189 C191 1.352 . S
C190 C189 1.404 . S
C190 C194 1.389 . S
C190 H212 0.930 . S
C191 C189 1.352 . S
C191 C193 1.374 . S
C191 H213 0.931 . S
C192 C193 1.359 . S
C192 C194 1.364 . S
C193 C191 1.374 . S
C193 C192 1.359 . S
C193 H214 0.931 . S
C194 C190 1.389 . S
C194 C192 1.364 . S
C194 H215 0.931 . S
C195 O206 1.256 . S
C195 O207 1.257 . S
O196 Gd176 2.377 . S
O196 C178 1.240 . S
O197 Gd177 2.395 . S
O197 C178 1.240 . S
O198 Gd176 2.448 . S
O198 C179 1.249 . S
O199 Gd176 2.506 . S
O199 C179 1.252 . S
O200 Gd176 2.435 . S
O200 C186 1.256 . S
O201 Gd176 2.717 . S
O201 Gd177 2.327 . S
O201 C186 1.257 . S
O202 Gd177 2.377 . S
O202 C187 1.240 . S
O203 Gd176 2.395 . S
O203 C187 1.240 . S
O204 Gd177 2.448 . S
O204 C188 1.249 . S
O205 Gd177 2.506 . S
O205 C188 1.252 . S
O206 Gd177 2.435 . S
O206 C195 1.256 . S
O207 Gd176 2.327 . S
O207 Gd177 2.717 . S
O207 C195 1.257 . S
H208 C181 0.930 . S
H209 C182 0.931 . S
H210 C184 0.931 . S
H211 C185 0.931 . S
H212 C190 0.930 . S
H213 C191 0.931 . S
H214 C193 0.931 . S
H215 C194 0.931 . S
Gd216 C219 2.818 . S
Gd216 O236 2.377 . S
Gd216 O238 2.448 . S
Gd216 O239 2.506 . S
Gd216 O240 2.435 1_455 S
Gd216 O241 2.717 1_455 S
Gd216 O243 2.395 1_454 S
Gd216 O247 2.327 1_554 S
Gd217 C228 2.818 1_455 S
Gd217 O237 2.395 1_556 S
Gd217 O241 2.327 1_456 S
Gd217 O242 2.377 1_455 S
Gd217 O244 2.448 1_455 S
Gd217 O245 2.506 1_455 S
Gd217 O246 2.435 . S
Gd217 O247 2.717 . S
C218 O236 1.240 . S
C218 O237 1.240 . S
C219 Gd216 2.818 . S
C219 C220 1.510 . S
C219 O238 1.249 . S
C219 O239 1.252 . S
C220 C219 1.510 . S
C220 C221 1.404 . S
C220 C222 1.352 . S
C221 C220 1.404 . S
C221 C225 1.389 . S
C221 H248 0.930 . S
C222 C220 1.352 . S
C222 C224 1.374 . S
C222 H249 0.931 . S
C223 C224 1.359 . S
C223 C225 1.364 . S
C224 C222 1.374 . S
C224 C223 1.359 . S
C224 H250 0.931 . S
C225 C221 1.389 . S
C225 C223 1.364 . S
C225 H251 0.931 . S
C226 O240 1.256 . S
C226 O241 1.257 . S
C227 O242 1.240 . S
C227 O243 1.240 . S
C228 Gd217 2.818 1_655 S
C228 C229 1.510 . S
C228 O244 1.249 . S
C228 O245 1.252 . S
C229 C228 1.510 . S
C229 C230 1.404 . S
C229 C231 1.352 . S
C230 C229 1.404 . S
C230 C234 1.389 . S
C230 H252 0.930 . S
C231 C229 1.352 . S
C231 C233 1.374 . S
C231 H253 0.931 . S
C232 C233 1.359 . S
C232 C234 1.364 . S
C233 C231 1.374 . S
C233 C232 1.359 . S
C233 H254 0.931 . S
C234 C230 1.389 . S
C234 C232 1.364 . S
C234 H255 0.931 . S
C235 O246 1.256 . S
C235 O247 1.257 . S
O236 Gd216 2.377 . S
O236 C218 1.240 . S
O237 Gd217 2.395 1_554 S
O237 C218 1.240 . S
O238 Gd216 2.448 . S
O238 C219 1.249 . S
O239 Gd216 2.506 . S
O239 C219 1.252 . S
O240 Gd216 2.435 1_655 S
O240 C226 1.256 . S
O241 Gd216 2.717 1_655 S
O241 Gd217 2.327 1_654 S
O241 C226 1.257 . S
O242 Gd217 2.377 1_655 S
O242 C227 1.240 . S
O243 Gd216 2.395 1_656 S
O243 C227 1.240 . S
O244 Gd217 2.448 1_655 S
O244 C228 1.249 . S
O245 Gd217 2.506 1_655 S
O245 C228 1.252 . S
O246 Gd217 2.435 . S
O246 C235 1.256 . S
O247 Gd216 2.327 1_556 S
O247 Gd217 2.717 . S
O247 C235 1.257 . S
H248 C221 0.930 . S
H249 C222 0.931 . S
H250 C224 0.931 . S
H251 C225 0.931 . S
H252 C230 0.930 . S
H253 C231 0.931 . S
H254 C233 0.931 . S
H255 C234 0.931 . S
H256 C264 0.929 . S
H257 C266 0.930 . S
H258 C268 0.930 . S
H259 C271 0.929 . S
H260 C274 0.930 . S
H261 C276 0.960 . S
H262 C276 0.960 . S
H263 C276 0.960 . S
C264 H256 0.929 . S
C264 C265 1.377 . S
C264 C266 1.384 . S
C265 C264 1.377 . S
C265 C271 1.390 . S
C266 H257 0.930 . S
C266 C264 1.384 . S
C266 C267 1.372 . S
C267 C266 1.372 . S
C267 C268 1.400 . S
C267 C272 1.490 . S
C268 H258 0.930 . S
C268 C267 1.400 . S
C268 C271 1.386 . S
H269 C285 0.930 . S
H270 C286 0.931 . S
C271 H259 0.929 . S
C271 C265 1.390 . S
C271 C268 1.386 . S
C272 C267 1.490 . S
C272 C274 1.395 . S
C272 C275 1.403 . S
H273 C279 0.930 . S
C274 H260 0.930 . S
C274 C272 1.395 . S
C274 C277 1.403 . S
C275 C272 1.403 . S
C275 C276 1.524 . S
C275 C279 1.400 . S
C276 H261 0.960 . S
C276 H262 0.960 . S
C276 H263 0.960 . S
C276 C275 1.524 . S
C277 C274 1.403 . S
C277 C278 1.392 . S
C277 C281 1.495 . S
C278 C277 1.392 . S
C278 C279 1.385 . S
C278 C280 1.478 . S
C279 H273 0.930 . S
C279 C275 1.400 . S
C279 C278 1.385 . S
C280 C278 1.478 . S
C280 C282 1.381 . S
C280 C286 1.383 . S
C281 C277 1.495 . S
C281 H287 0.959 . S
C281 H288 0.961 . S
C281 H289 0.960 . S
C282 C280 1.381 . S
C282 C283 1.394 . S
C282 H290 0.930 . S
C283 C282 1.394 . S
C283 C284 1.383 . S
C283 H291 0.929 . S
C284 C283 1.383 . S
C284 C285 1.377 . S
C285 H269 0.930 . S
C285 C284 1.377 . S
C285 C286 1.379 . S
C286 H270 0.931 . S
C286 C280 1.383 . S
C286 C285 1.379 . S
H287 C281 0.959 . S
H288 C281 0.961 . S
H289 C281 0.960 . S
H290 C282 0.930 . S
H291 C283 0.929 . S
H292 C300 0.929 . S
H293 C302 0.930 . S
H294 C304 0.930 . S
H295 C307 0.929 . S
H296 C310 0.930 . S
H297 C312 0.960 . S
H298 C312 0.960 . S
H299 C312 0.960 . S
C300 H292 0.929 . S
C300 C301 1.377 . S
C300 C302 1.384 . S
C301 C300 1.377 . S
C301 C307 1.390 . S
C302 H293 0.930 . S
C302 C300 1.384 . S
C302 C303 1.372 . S
C303 C302 1.372 . S
C303 C304 1.400 . S
C303 C308 1.490 . S
C304 H294 0.930 . S
C304 C303 1.400 . S
C304 C307 1.386 . S
H305 C321 0.930 . S
H306 C322 0.931 . S
C307 H295 0.929 . S
C307 C301 1.390 . S
C307 C304 1.386 . S
C308 C303 1.490 . S
C308 C310 1.395 . S
C308 C311 1.403 . S
H309 C315 0.930 . S
C310 H296 0.930 . S
C310 C308 1.395 . S
C310 C313 1.403 . S
C311 C308 1.403 . S
C311 C312 1.524 . S
C311 C315 1.400 . S
C312 H297 0.960 . S
C312 H298 0.960 . S
C312 H299 0.960 . S
C312 C311 1.524 . S
C313 C310 1.403 . S
C313 C314 1.392 . S
C313 C317 1.495 . S
C314 C313 1.392 . S
C314 C315 1.385 . S
C314 C316 1.478 . S
C315 H309 0.930 . S
C315 C311 1.400 . S
C315 C314 1.385 . S
C316 C314 1.478 . S
C316 C318 1.381 . S
C316 C322 1.383 . S
C317 C313 1.495 . S
C317 H323 0.959 . S
C317 H324 0.961 . S
C317 H325 0.960 . S
C318 C316 1.381 . S
C318 C319 1.394 . S
C318 H326 0.930 . S
C319 C318 1.394 . S
C319 C320 1.383 . S
C319 H327 0.929 . S
C320 C319 1.383 . S
C320 C321 1.377 . S
C321 H305 0.930 . S
C321 C320 1.377 . S
C321 C322 1.379 . S
C322 H306 0.931 . S
C322 C316 1.383 . S
C322 C321 1.379 . S
H323 C317 0.959 . S
H324 C317 0.961 . S
H325 C317 0.960 . S
H326 C318 0.930 . S
H327 C319 0.929 . S
H328 C336 0.929 . S
H329 C338 0.930 . S
H330 C340 0.930 . S
H331 C343 0.929 . S
H332 C346 0.930 . S
H333 C348 0.960 . S
H334 C348 0.960 . S
H335 C348 0.960 . S
C336 H328 0.929 . S
C336 C337 1.377 . S
C336 C338 1.384 . S
C337 C336 1.377 . S
C337 C343 1.390 . S
C338 H329 0.930 . S
C338 C336 1.384 . S
C338 C339 1.372 . S
C339 C338 1.372 . S
C339 C340 1.400 . S
C339 C344 1.490 . S
C340 H330 0.930 . S
C340 C339 1.400 . S
C340 C343 1.386 . S
H341 C357 0.930 . S
H342 C358 0.931 . S
C343 H331 0.929 . S
C343 C337 1.390 . S
C343 C340 1.386 . S
C344 C339 1.490 . S
C344 C346 1.395 . S
C344 C347 1.403 . S
H345 C351 0.930 . S
C346 H332 0.930 . S
C346 C344 1.395 . S
C346 C349 1.403 . S
C347 C344 1.403 . S
C347 C348 1.524 . S
C347 C351 1.400 . S
C348 H333 0.960 . S
C348 H334 0.960 . S
C348 H335 0.960 . S
C348 C347 1.524 . S
C349 C346 1.403 . S
C349 C350 1.392 . S
C349 C353 1.495 . S
C350 C349 1.392 . S
C350 C351 1.385 . S
C350 C352 1.478 . S
C351 H345 0.930 . S
C351 C347 1.400 . S
C351 C350 1.385 . S
C352 C350 1.478 . S
C352 C354 1.381 . S
C352 C358 1.383 . S
C353 C349 1.495 . S
C353 H359 0.959 . S
C353 H360 0.961 . S
C353 H361 0.960 . S
C354 C352 1.381 . S
C354 C355 1.394 . S
C354 H362 0.930 . S
C355 C354 1.394 . S
C355 C356 1.383 . S
C355 H363 0.929 . S
C356 C355 1.383 . S
C356 C357 1.377 . S
C357 H341 0.930 . S
C357 C356 1.377 . S
C357 C358 1.379 . S
C358 H342 0.931 . S
C358 C352 1.383 . S
C358 C357 1.379 . S
H359 C353 0.959 . S
H360 C353 0.961 . S
H361 C353 0.960 . S
H362 C354 0.930 . S
H363 C355 0.929 . S
H364 C372 0.929 . S
H365 C374 0.930 . S
H366 C376 0.930 . S
H367 C379 0.929 . S
H368 C382 0.930 . S
H369 C384 0.960 . S
H370 C384 0.960 . S
H371 C384 0.960 . S
C372 H364 0.929 . S
C372 C373 1.377 . S
C372 C374 1.384 . S
C373 C372 1.377 . S
C373 C379 1.390 . S
C374 H365 0.930 . S
C374 C372 1.384 . S
C374 C375 1.372 . S
C375 C374 1.372 . S
C375 C376 1.400 . S
C375 C380 1.490 . S
C376 H366 0.930 . S
C376 C375 1.400 . S
C376 C379 1.386 . S
H377 C393 0.930 . S
H378 C394 0.931 . S
C379 H367 0.929 . S
C379 C373 1.390 . S
C379 C376 1.386 . S
C380 C375 1.490 . S
C380 C382 1.395 . S
C380 C383 1.403 . S
H381 C387 0.930 . S
C382 H368 0.930 . S
C382 C380 1.395 . S
C382 C385 1.403 . S
C383 C380 1.403 . S
C383 C384 1.524 . S
C383 C387 1.400 . S
C384 H369 0.960 . S
C384 H370 0.960 . S
C384 H371 0.960 . S
C384 C383 1.524 . S
C385 C382 1.403 . S
C385 C386 1.392 . S
C385 C389 1.495 . S
C386 C385 1.392 . S
C386 C387 1.385 . S
C386 C388 1.478 . S
C387 H381 0.930 . S
C387 C383 1.400 . S
C387 C386 1.385 . S
C388 C386 1.478 . S
C388 C390 1.381 . S
C388 C394 1.383 . S
C389 C385 1.495 . S
C389 H395 0.959 . S
C389 H396 0.961 . S
C389 H397 0.960 . S
C390 C388 1.381 . S
C390 C391 1.394 . S
C390 H398 0.930 . S
C391 C390 1.394 . S
C391 C392 1.383 . S
C391 H399 0.929 . S
C392 C391 1.383 . S
C392 C393 1.377 . S
C393 H377 0.930 . S
C393 C392 1.377 . S
C393 C394 1.379 . S
C394 H378 0.931 . S
C394 C388 1.383 . S
C394 C393 1.379 . S
H395 C389 0.959 . S
H396 C389 0.961 . S
H397 C389 0.960 . S
H398 C390 0.930 . S
H399 C391 0.929 . S
H400 C408 0.929 . S
H401 C410 0.930 . S
H402 C412 0.930 . S
H403 C415 0.929 . S
H404 C418 0.930 . S
H405 C420 0.960 . S
H406 C420 0.960 . S
H407 C420 0.960 . S
C408 H400 0.929 . S
C408 C409 1.377 . S
C408 C410 1.384 . S
C409 C408 1.377 . S
C409 C415 1.390 . S
C410 H401 0.930 . S
C410 C408 1.384 . S
C410 C411 1.372 . S
C411 C410 1.372 . S
C411 C412 1.400 . S
C411 C416 1.490 . S
C412 H402 0.930 . S
C412 C411 1.400 . S
C412 C415 1.386 . S
H413 C429 0.930 . S
H414 C430 0.931 . S
C415 H403 0.929 . S
C415 C409 1.390 . S
C415 C412 1.386 . S
C416 C411 1.490 . S
C416 C418 1.395 . S
C416 C419 1.403 . S
H417 C423 0.930 . S
C418 H404 0.930 . S
C418 C416 1.395 . S
C418 C421 1.403 . S
C419 C416 1.403 . S
C419 C420 1.524 . S
C419 C423 1.400 . S
C420 H405 0.960 . S
C420 H406 0.960 . S
C420 H407 0.960 . S
C420 C419 1.524 . S
C421 C418 1.403 . S
C421 C422 1.392 . S
C421 C425 1.495 . S
C422 C421 1.392 . S
C422 C423 1.385 . S
C422 C424 1.478 . S
C423 H417 0.930 . S
C423 C419 1.400 . S
C423 C422 1.385 . S
C424 C422 1.478 . S
C424 C426 1.381 . S
C424 C430 1.383 . S
C425 C421 1.495 . S
C425 H431 0.959 . S
C425 H432 0.961 . S
C425 H433 0.960 . S
C426 C424 1.381 . S
C426 C427 1.394 . S
C426 H434 0.930 . S
C427 C426 1.394 . S
C427 C428 1.383 . S
C427 H435 0.929 . S
C428 C427 1.383 . S
C428 C429 1.377 . S
C429 H413 0.930 . S
C429 C428 1.377 . S
C429 C430 1.379 . S
C430 H414 0.931 . S
C430 C424 1.383 . S
C430 C429 1.379 . S
H431 C425 0.959 . S
H432 C425 0.961 . S
H433 C425 0.960 . S
H434 C426 0.930 . S
H435 C427 0.929 . S
H436 C444 0.929 . S
H437 C446 0.930 . S
H438 C448 0.930 . S
H439 C451 0.929 . S
H440 C454 0.930 . S
H441 C456 0.960 . S
H442 C456 0.960 . S
H443 C456 0.960 . S
C444 H436 0.929 . S
C444 C445 1.377 . S
C444 C446 1.384 . S
C445 C444 1.377 . S
C445 C451 1.390 . S
C446 H437 0.930 . S
C446 C444 1.384 . S
C446 C447 1.372 . S
C447 C446 1.372 . S
C447 C448 1.400 . S
C447 C452 1.490 . S
C448 H438 0.930 . S
C448 C447 1.400 . S
C448 C451 1.386 . S
H449 C465 0.930 . S
H450 C466 0.931 . S
C451 H439 0.929 . S
C451 C445 1.390 . S
C451 C448 1.386 . S
C452 C447 1.490 . S
C452 C454 1.395 . S
C452 C455 1.403 . S
H453 C459 0.930 . S
C454 H440 0.930 . S
C454 C452 1.395 . S
C454 C457 1.403 . S
C455 C452 1.403 . S
C455 C456 1.524 . S
C455 C459 1.400 . S
C456 H441 0.960 . S
C456 H442 0.960 . S
C456 H443 0.960 . S
C456 C455 1.524 . S
C457 C454 1.403 . S
C457 C458 1.392 . S
C457 C461 1.495 . S
C458 C457 1.392 . S
C458 C459 1.385 . S
C458 C460 1.478 . S
C459 H453 0.930 . S
C459 C455 1.400 . S
C459 C458 1.385 . S
C460 C458 1.478 . S
C460 C462 1.381 . S
C460 C466 1.383 . S
C461 C457 1.495 . S
C461 H467 0.959 . S
C461 H468 0.961 . S
C461 H469 0.960 . S
C462 C460 1.381 . S
C462 C463 1.394 . S
C462 H470 0.930 . S
C463 C462 1.394 . S
C463 C464 1.383 . S
C463 H471 0.929 . S
C464 C463 1.383 . S
C464 C465 1.377 . S
C465 H449 0.930 . S
C465 C464 1.377 . S
C465 C466 1.379 . S
C466 H450 0.931 . S
C466 C460 1.383 . S
C466 C465 1.379 . S
H467 C461 0.959 . S
H468 C461 0.961 . S
H469 C461 0.960 . S
H470 C462 0.930 . S
H471 C463 0.929 . S
H472 C480 0.929 . S
H473 C482 0.930 . S
H474 C484 0.930 . S
H475 C487 0.929 . S
H476 C490 0.930 . S
H477 C492 0.960 . S
H478 C492 0.960 . S
H479 C492 0.960 . S
C480 H472 0.929 . S
C480 C481 1.377 . S
C480 C482 1.384 . S
C481 C480 1.377 . S
C481 C487 1.390 . S
C482 H473 0.930 . S
C482 C480 1.384 . S
C482 C483 1.372 . S
C483 C482 1.372 . S
C483 C484 1.400 . S
C483 C488 1.490 . S
C484 H474 0.930 . S
C484 C483 1.400 . S
C484 C487 1.386 . S
H485 C501 0.930 . S
H486 C502 0.931 . S
C487 H475 0.929 . S
C487 C481 1.390 . S
C487 C484 1.386 . S
C488 C483 1.490 . S
C488 C490 1.395 . S
C488 C491 1.403 . S
H489 C495 0.930 . S
C490 H476 0.930 . S
C490 C488 1.395 . S
C490 C493 1.403 . S
C491 C488 1.403 . S
C491 C492 1.524 . S
C491 C495 1.400 . S
C492 H477 0.960 . S
C492 H478 0.960 . S
C492 H479 0.960 . S
C492 C491 1.524 . S
C493 C490 1.403 . S
C493 C494 1.392 . S
C493 C497 1.495 . S
C494 C493 1.392 . S
C494 C495 1.385 . S
C494 C496 1.478 . S
C495 H489 0.930 . S
C495 C491 1.400 . S
C495 C494 1.385 . S
C496 C494 1.478 . S
C496 C498 1.381 . S
C496 C502 1.383 . S
C497 C493 1.495 . S
C497 H503 0.959 . S
C497 H504 0.961 . S
C497 H505 0.960 . S
C498 C496 1.381 . S
C498 C499 1.394 . S
C498 H506 0.930 . S
C499 C498 1.394 . S
C499 C500 1.383 . S
C499 H507 0.932 . S
C500 C499 1.383 . S
C500 C501 1.377 . S
C501 H485 0.930 . S
C501 C500 1.377 . S
C501 C502 1.379 . S
C502 H486 0.931 . S
C502 C496 1.383 . S
C502 C501 1.379 . S
H503 C497 0.959 . S
H504 C497 0.961 . S
H505 C497 0.960 . S
H506 C498 0.930 . S
H507 C499 0.932 . S
H508 C516 0.929 . S
H509 C518 0.930 . S
H510 C520 0.930 . S
H511 C523 0.929 . S
H512 C526 0.930 . S
H513 C528 0.960 . S
H514 C528 0.960 . S
H515 C528 0.960 . S
C516 H508 0.929 . S
C516 C517 1.377 . S
C516 C518 1.384 . S
C517 C516 1.377 . S
C517 C523 1.390 . S
C518 H509 0.930 . S
C518 C516 1.384 . S
C518 C519 1.372 . S
C519 C518 1.372 . S
C519 C520 1.400 . S
C519 C524 1.490 . S
C520 H510 0.930 . S
C520 C519 1.400 . S
C520 C523 1.386 . S
H521 C537 0.930 . S
H522 C538 0.931 . S
C523 H511 0.929 . S
C523 C517 1.390 . S
C523 C520 1.386 . S
C524 C519 1.490 . S
C524 C526 1.395 . S
C524 C527 1.403 . S
H525 C531 0.930 . S
C526 H512 0.930 . S
C526 C524 1.395 . S
C526 C529 1.403 . S
C527 C524 1.403 . S
C527 C528 1.524 . S
C527 C531 1.400 . S
C528 H513 0.960 . S
C528 H514 0.960 . S
C528 H515 0.960 . S
C528 C527 1.524 . S
C529 C526 1.403 . S
C529 C530 1.392 . S
C529 C533 1.495 . S
C530 C529 1.392 . S
C530 C531 1.385 . S
C530 C532 1.478 . S
C531 H525 0.930 . S
C531 C527 1.400 . S
C531 C530 1.385 . S
C532 C530 1.478 . S
C532 C534 1.381 . S
C532 C538 1.383 . S
C533 C529 1.495 . S
C533 H539 0.959 . S
C533 H540 0.961 . S
C533 H541 0.960 . S
C534 C532 1.381 . S
C534 C535 1.394 . S
C534 H542 0.930 . S
C535 C534 1.394 . S
C535 C536 1.383 . S
C535 H543 0.929 . S
C536 C535 1.383 . S
C536 C537 1.377 . S
C537 H521 0.930 . S
C537 C536 1.377 . S
C537 C538 1.379 . S
C538 H522 0.931 . S
C538 C532 1.383 . S
C538 C537 1.379 . S
H539 C533 0.959 . S
H540 C533 0.961 . S
H541 C533 0.960 . S
H542 C534 0.930 . S
H543 C535 0.929 . S
H544 C552 0.929 . S
H545 C554 0.930 . S
H546 C556 0.930 . S
H547 C559 0.929 . S
H548 C562 0.930 . S
H549 C564 0.960 . S
H550 C564 0.960 . S
H551 C564 0.960 . S
C552 H544 0.929 . S
C552 C553 1.377 . S
C552 C554 1.384 . S
C553 C552 1.377 . S
C553 C559 1.390 . S
C554 H545 0.930 . S
C554 C552 1.384 . S
C554 C555 1.372 . S
C555 C554 1.372 . S
C555 C556 1.400 . S
C555 C560 1.490 . S
C556 H546 0.930 . S
C556 C555 1.400 . S
C556 C559 1.386 . S
H557 C573 0.930 . S
H558 C574 0.931 . S
C559 H547 0.929 . S
C559 C553 1.390 . S
C559 C556 1.386 . S
C560 C555 1.490 . S
C560 C562 1.395 . S
C560 C563 1.403 . S
H561 C567 0.930 . S
C562 H548 0.930 . S
C562 C560 1.395 . S
C562 C565 1.403 . S
C563 C560 1.403 . S
C563 C564 1.524 . S
C563 C567 1.400 . S
C564 H549 0.960 . S
C564 H550 0.960 . S
C564 H551 0.960 . S
C564 C563 1.524 . S
C565 C562 1.403 . S
C565 C566 1.392 . S
C565 C569 1.495 . S
C566 C565 1.392 . S
C566 C567 1.385 . S
C566 C568 1.478 . S
C567 H561 0.930 . S
C567 C563 1.400 . S
C567 C566 1.385 . S
C568 C566 1.478 . S
C568 C570 1.381 . S
C568 C574 1.383 . S
C569 C565 1.495 . S
C569 H575 0.959 . S
C569 H576 0.961 . S
C569 H577 0.960 . S
C570 C568 1.381 . S
C570 C571 1.394 . S
C570 H578 0.930 . S
C571 C570 1.394 . S
C571 C572 1.383 . S
C571 H579 0.929 . S
C572 C571 1.383 . S
C572 C573 1.377 . S
C573 H557 0.930 . S
C573 C572 1.377 . S
C573 C574 1.379 . S
C574 H558 0.931 . S
C574 C568 1.383 . S
C574 C573 1.379 . S
H575 C569 0.959 . S
H576 C569 0.961 . S
H577 C569 0.960 . S
H578 C570 0.930 . S
H579 C571 0.929 . S
H580 C588 0.929 . S
H581 C590 0.930 . S
H582 C592 0.930 . S
H583 C595 0.929 . S
H584 C598 0.930 . S
H585 C600 0.960 . S
H586 C600 0.960 . S
H587 C600 0.960 . S
C588 H580 0.929 . S
C588 C589 1.377 . S
C588 C590 1.384 . S
C589 C588 1.377 . S
C589 C595 1.390 . S
C590 H581 0.930 . S
C590 C588 1.384 . S
C590 C591 1.372 . S
C591 C590 1.372 . S
C591 C592 1.400 . S
C591 C596 1.490 . S
C592 H582 0.930 . S
C592 C591 1.400 . S
C592 C595 1.386 . S
H593 C609 0.930 . S
H594 C610 0.931 . S
C595 H583 0.929 . S
C595 C589 1.390 . S
C595 C592 1.386 . S
C596 C591 1.490 . S
C596 C598 1.395 . S
C596 C599 1.403 . S
H597 C603 0.930 . S
C598 H584 0.930 . S
C598 C596 1.395 . S
C598 C601 1.403 . S
C599 C596 1.403 . S
C599 C600 1.524 . S
C599 C603 1.400 . S
C600 H585 0.960 . S
C600 H586 0.960 . S
C600 H587 0.960 . S
C600 C599 1.524 . S
C601 C598 1.403 . S
C601 C602 1.392 . S
C601 C605 1.495 . S
C602 C601 1.392 . S
C602 C603 1.385 . S
C602 C604 1.478 . S
C603 H597 0.930 . S
C603 C599 1.400 . S
C603 C602 1.385 . S
C604 C602 1.478 . S
C604 C606 1.381 . S
C604 C610 1.383 . S
C605 C601 1.495 . S
C605 H611 0.959 . S
C605 H612 0.961 . S
C605 H613 0.960 . S
C606 C604 1.381 . S
C606 C607 1.394 . S
C606 H614 0.930 . S
C607 C606 1.394 . S
C607 C608 1.383 . S
C607 H615 0.929 . S
C608 C607 1.383 . S
C608 C609 1.377 . S
C609 H593 0.930 . S
C609 C608 1.377 . S
C609 C610 1.379 . S
C610 H594 0.931 . S
C610 C604 1.383 . S
C610 C609 1.379 . S
H611 C605 0.959 . S
H612 C605 0.961 . S
H613 C605 0.960 . S
H614 C606 0.930 . S
H615 C607 0.929 . S
H616 C624 0.929 . S
H617 C626 0.930 . S
H618 C628 0.930 . S
H619 C631 0.929 . S
H620 C634 0.930 . S
H621 C636 0.960 . S
H622 C636 0.960 . S
H623 C636 0.960 . S
C624 H616 0.929 . S
C624 C625 1.377 . S
C624 C626 1.384 . S
C625 C624 1.377 . S
C625 C631 1.390 . S
C626 H617 0.930 . S
C626 C624 1.384 . S
C626 C627 1.372 . S
C627 C626 1.372 . S
C627 C628 1.400 . S
C627 C632 1.490 . S
C628 H618 0.930 . S
C628 C627 1.400 . S
C628 C631 1.386 . S
H629 C645 0.930 . S
H630 C646 0.931 . S
C631 H619 0.929 . S
C631 C625 1.390 . S
C631 C628 1.386 . S
C632 C627 1.490 . S
C632 C634 1.395 . S
C632 C635 1.403 . S
H633 C639 0.930 . S
C634 H620 0.930 . S
C634 C632 1.395 . S
C634 C637 1.403 . S
C635 C632 1.403 . S
C635 C636 1.524 . S
C635 C639 1.400 . S
C636 H621 0.960 . S
C636 H622 0.960 . S
C636 H623 0.960 . S
C636 C635 1.524 . S
C637 C634 1.403 . S
C637 C638 1.392 . S
C637 C641 1.495 . S
C638 C637 1.392 . S
C638 C639 1.385 . S
C638 C640 1.478 . S
C639 H633 0.930 . S
C639 C635 1.400 . S
C639 C638 1.385 . S
C640 C638 1.478 . S
C640 C642 1.381 . S
C640 C646 1.383 . S
C641 C637 1.495 . S
C641 H647 0.959 . S
C641 H648 0.961 . S
C641 H649 0.960 . S
C642 C640 1.381 . S
C642 C643 1.394 . S
C642 H650 0.930 . S
C643 C642 1.394 . S
C643 C644 1.383 . S
C643 H651 0.929 . S
C644 C643 1.383 . S
C644 C645 1.377 . S
C645 H629 0.930 . S
C645 C644 1.377 . S
C645 C646 1.379 . S
C646 H630 0.931 . S
C646 C640 1.383 . S
C646 C645 1.379 . S
H647 C641 0.959 . S
H648 C641 0.961 . S
H649 C641 0.960 . S
H650 C642 0.930 . S
H651 C643 0.929 . S
H652 C660 0.929 . S
H653 C662 0.930 . S
H654 C664 0.930 . S
H655 C667 0.929 . S
H656 C670 0.930 . S
H657 C672 0.960 . S
H658 C672 0.960 . S
H659 C672 0.960 . S
C660 H652 0.929 . S
C660 C661 1.377 . S
C660 C662 1.384 . S
C661 C660 1.377 . S
C661 C667 1.390 . S
C662 H653 0.930 . S
C662 C660 1.384 . S
C662 C663 1.372 . S
C663 C662 1.372 . S
C663 C664 1.400 . S
C663 C668 1.490 . S
C664 H654 0.930 . S
C664 C663 1.400 . S
C664 C667 1.386 . S
H665 C681 0.930 . S
H666 C682 0.931 . S
C667 H655 0.929 . S
C667 C661 1.390 . S
C667 C664 1.386 . S
C668 C663 1.490 . S
C668 C670 1.395 . S
C668 C671 1.403 . S
H669 C675 0.930 . S
C670 H656 0.930 . S
C670 C668 1.395 . S
C670 C673 1.403 . S
C671 C668 1.403 . S
C671 C672 1.524 . S
C671 C675 1.400 . S
C672 H657 0.960 . S
C672 H658 0.960 . S
C672 H659 0.960 . S
C672 C671 1.524 . S
C673 C670 1.403 . S
C673 C674 1.392 . S
C673 C677 1.495 . S
C674 C673 1.392 . S
C674 C675 1.385 . S
C674 C676 1.478 . S
C675 H669 0.930 . S
C675 C671 1.400 . S
C675 C674 1.385 . S
C676 C674 1.478 . S
C676 C678 1.381 . S
C676 C682 1.383 . S
C677 C673 1.495 . S
C677 H683 0.959 . S
C677 H684 0.961 . S
C677 H685 0.960 . S
C678 C676 1.381 . S
C678 C679 1.394 . S
C678 H686 0.930 . S
C679 C678 1.394 . S
C679 C680 1.383 . S
C679 H687 0.929 . S
C680 C679 1.383 . S
C680 C681 1.377 . S
C681 H665 0.930 . S
C681 C680 1.377 . S
C681 C682 1.379 . S
C682 H666 0.931 . S
C682 C676 1.383 . S
C682 C681 1.379 . S
H683 C677 0.959 . S
H684 C677 0.961 . S
H685 C677 0.960 . S
H686 C678 0.930 . S
H687 C679 0.929 . S
H688 C696 0.929 . S
H689 C698 0.930 . S
H690 C700 0.930 . S
H691 C703 0.929 . S
H692 C706 0.930 . S
H693 C708 0.960 . S
H694 C708 0.960 . S
H695 C708 0.960 . S
C696 H688 0.929 . S
C696 C697 1.377 . S
C696 C698 1.384 . S
C697 C696 1.377 . S
C697 C703 1.390 . S
C698 H689 0.930 . S
C698 C696 1.384 . S
C698 C699 1.372 . S
C699 C698 1.372 . S
C699 C700 1.400 . S
C699 C704 1.490 . S
C700 H690 0.930 . S
C700 C699 1.400 . S
C700 C703 1.386 . S
H701 C717 0.930 . S
H702 C718 0.931 . S
C703 H691 0.929 . S
C703 C697 1.390 . S
C703 C700 1.386 . S
C704 C699 1.490 . S
C704 C706 1.395 . S
C704 C707 1.403 . S
H705 C711 0.930 . S
C706 H692 0.930 . S
C706 C704 1.395 . S
C706 C709 1.403 . S
C707 C704 1.403 . S
C707 C708 1.524 . S
C707 C711 1.400 . S
C708 H693 0.960 . S
C708 H694 0.960 . S
C708 H695 0.960 . S
C708 C707 1.524 . S
C709 C706 1.403 . S
C709 C710 1.392 . S
C709 C713 1.495 . S
C710 C709 1.392 . S
C710 C711 1.385 . S
C710 C712 1.478 . S
C711 H705 0.930 . S
C711 C707 1.400 . S
C711 C710 1.385 . S
C712 C710 1.478 . S
C712 C714 1.381 . S
C712 C718 1.383 . S
C713 C709 1.495 . S
C713 H719 0.959 . S
C713 H720 0.961 . S
C713 H721 0.960 . S
C714 C712 1.381 . S
C714 C715 1.394 . S
C714 H722 0.930 . S
C715 C714 1.394 . S
C715 C716 1.383 . S
C715 H723 0.929 . S
C716 C715 1.383 . S
C716 C717 1.377 . S
C717 H701 0.930 . S
C717 C716 1.377 . S
C717 C718 1.379 . S
C718 H702 0.931 . S
C718 C712 1.383 . S
C718 C717 1.379 . S
H719 C713 0.959 . S
H720 C713 0.961 . S
H721 C713 0.960 . S
H722 C714 0.930 . S
H723 C715 0.929 . S
H724 C732 0.929 . S
H725 C734 0.930 . S
H726 C736 0.930 . S
H727 C739 0.929 . S
H728 C742 0.930 . S
H729 C744 0.960 . S
H730 C744 0.960 . S
H731 C744 0.960 . S
C732 H724 0.929 . S
C732 C733 1.377 . S
C732 C734 1.384 . S
C733 C732 1.377 . S
C733 C739 1.390 . S
C734 H725 0.930 . S
C734 C732 1.384 . S
C734 C735 1.372 . S
C735 C734 1.372 . S
C735 C736 1.400 . S
C735 C740 1.490 . S
C736 H726 0.930 . S
C736 C735 1.400 . S
C736 C739 1.386 . S
H737 C753 0.930 . S
H738 C754 0.931 . S
C739 H727 0.929 . S
C739 C733 1.390 . S
C739 C736 1.386 . S
C740 C735 1.490 . S
C740 C742 1.395 . S
C740 C743 1.403 . S
H741 C747 0.930 . S
C742 H728 0.930 . S
C742 C740 1.395 . S
C742 C745 1.403 . S
C743 C740 1.403 . S
C743 C744 1.524 . S
C743 C747 1.400 . S
C744 H729 0.960 . S
C744 H730 0.960 . S
C744 H731 0.960 . S
C744 C743 1.524 . S
C745 C742 1.403 . S
C745 C746 1.392 . S
C745 C749 1.495 . S
C746 C745 1.392 . S
C746 C747 1.385 . S
C746 C748 1.478 . S
C747 H741 0.930 . S
C747 C743 1.400 . S
C747 C746 1.385 . S
C748 C746 1.478 . S
C748 C750 1.381 . S
C748 C754 1.383 . S
C749 C745 1.495 . S
C749 H755 0.959 . S
C749 H756 0.961 . S
C749 H757 0.960 . S
C750 C748 1.381 . S
C750 C751 1.394 . S
C750 H758 0.930 . S
C751 C750 1.394 . S
C751 C752 1.383 . S
C751 H759 0.929 . S
C752 C751 1.383 . S
C752 C753 1.377 . S
C753 H737 0.930 . S
C753 C752 1.377 . S
C753 C754 1.379 . S
C754 H738 0.931 . S
C754 C748 1.383 . S
C754 C753 1.379 . S
H755 C749 0.959 . S
H756 C749 0.961 . S
H757 C749 0.960 . S
H758 C750 0.930 . S
H759 C751 0.929 . S
H760 C768 0.929 . S
H761 C770 0.930 . S
H762 C772 0.930 . S
H763 C775 0.929 . S
H764 C778 0.930 . S
H765 C780 0.960 . S
H766 C780 0.960 . S
H767 C780 0.960 . S
C768 H760 0.929 . S
C768 C769 1.377 . S
C768 C770 1.384 . S
C769 C768 1.377 . S
C769 C775 1.390 . S
C770 H761 0.930 . S
C770 C768 1.384 . S
C770 C771 1.372 . S
C771 C770 1.372 . S
C771 C772 1.400 . S
C771 C776 1.490 . S
C772 H762 0.930 . S
C772 C771 1.400 . S
C772 C775 1.386 . S
H773 C789 0.930 . S
H774 C790 0.931 . S
C775 H763 0.929 . S
C775 C769 1.390 . S
C775 C772 1.386 . S
C776 C771 1.490 . S
C776 C778 1.395 . S
C776 C779 1.403 . S
H777 C783 0.930 . S
C778 H764 0.930 . S
C778 C776 1.395 . S
C778 C781 1.403 . S
C779 C776 1.403 . S
C779 C780 1.524 . S
C779 C783 1.400 . S
C780 H765 0.960 . S
C780 H766 0.960 . S
C780 H767 0.960 . S
C780 C779 1.524 . S
C781 C778 1.403 . S
C781 C782 1.392 . S
C781 C785 1.495 . S
C782 C781 1.392 . S
C782 C783 1.385 . S
C782 C784 1.478 . S
C783 H777 0.930 . S
C783 C779 1.400 . S
C783 C782 1.385 . S
C784 C782 1.478 . S
C784 C786 1.381 . S
C784 C790 1.383 . S
C785 C781 1.495 . S
C785 H791 0.959 . S
C785 H792 0.961 . S
C785 H793 0.960 . S
C786 C784 1.381 . S
C786 C787 1.394 . S
C786 H794 0.930 . S
C787 C786 1.394 . S
C787 C788 1.383 . S
C787 H795 0.929 . S
C788 C787 1.383 . S
C788 C789 1.377 . S
C789 H773 0.930 . S
C789 C788 1.377 . S
C789 C790 1.379 . S
C790 H774 0.931 . S
C790 C784 1.383 . S
C790 C789 1.379 . S
H791 C785 0.959 . S
H792 C785 0.961 . S
H793 C785 0.960 . S
H794 C786 0.930 . S
H795 C787 0.929 . S
H796 C804 0.929 . S
H797 C806 0.930 . S
H798 C808 0.930 . S
H799 C811 0.929 . S
H800 C814 0.930 . S
H801 C816 0.960 . S
H802 C816 0.960 . S
H803 C816 0.960 . S
C804 H796 0.929 . S
C804 C805 1.377 . S
C804 C806 1.384 . S
C805 C804 1.377 . S
C805 C811 1.390 . S
C806 H797 0.930 . S
C806 C804 1.384 . S
C806 C807 1.372 . S
C807 C806 1.372 . S
C807 C808 1.400 . S
C807 C812 1.490 . S
C808 H798 0.930 . S
C808 C807 1.400 . S
C808 C811 1.386 . S
H809 C825 0.930 . S
H810 C826 0.931 . S
C811 H799 0.929 . S
C811 C805 1.390 . S
C811 C808 1.386 . S
C812 C807 1.490 . S
C812 C814 1.395 . S
C812 C815 1.403 . S
H813 C819 0.930 . S
C814 H800 0.930 . S
C814 C812 1.395 . S
C814 C817 1.403 . S
C815 C812 1.403 . S
C815 C816 1.524 . S
C815 C819 1.400 . S
C816 H801 0.960 . S
C816 H802 0.960 . S
C816 H803 0.960 . S
C816 C815 1.524 . S
C817 C814 1.403 . S
C817 C818 1.392 . S
C817 C821 1.495 . S
C818 C817 1.392 . S
C818 C819 1.385 . S
C818 C820 1.478 . S
C819 H813 0.930 . S
C819 C815 1.400 . S
C819 C818 1.385 . S
C820 C818 1.478 . S
C820 C822 1.381 . S
C820 C826 1.383 . S
C821 C817 1.495 . S
C821 H827 0.959 . S
C821 H828 0.961 . S
C821 H829 0.960 . S
C822 C820 1.381 . S
C822 C823 1.394 . S
C822 H830 0.930 . S
C823 C822 1.394 . S
C823 C824 1.383 . S
C823 H831 0.929 . S
C824 C823 1.383 . S
C824 C825 1.377 . S
C825 H809 0.930 . S
C825 C824 1.377 . S
C825 C826 1.379 . S
C826 H810 0.931 . S
C826 C820 1.383 . S
C826 C825 1.379 . S
H827 C821 0.959 . S
H828 C821 0.961 . S
H829 C821 0.960 . S
H830 C822 0.930 . S
H831 C823 0.929 . S
H832 C840 0.929 . S
H833 C842 0.930 . S
H834 C844 0.930 . S
H835 C847 0.929 . S
H836 C850 0.930 . S
H837 C852 0.960 . S
H838 C852 0.960 . S
H839 C852 0.960 . S
C840 H832 0.929 . S
C840 C841 1.377 . S
C840 C842 1.384 . S
C841 C840 1.377 . S
C841 C847 1.390 . S
C842 H833 0.930 . S
C842 C840 1.384 . S
C842 C843 1.372 . S
C843 C842 1.372 . S
C843 C844 1.400 . S
C843 C848 1.490 . S
C844 H834 0.930 . S
C844 C843 1.400 . S
C844 C847 1.386 . S
H845 C861 0.930 . S
H846 C862 0.931 . S
C847 H835 0.929 . S
C847 C841 1.390 . S
C847 C844 1.386 . S
C848 C843 1.490 . S
C848 C850 1.395 . S
C848 C851 1.403 . S
H849 C855 0.930 . S
C850 H836 0.930 . S
C850 C848 1.395 . S
C850 C853 1.403 . S
C851 C848 1.403 . S
C851 C852 1.524 . S
C851 C855 1.400 . S
C852 H837 0.960 . S
C852 H838 0.960 . S
C852 H839 0.960 . S
C852 C851 1.524 . S
C853 C850 1.403 . S
C853 C854 1.392 . S
C853 C857 1.495 . S
C854 C853 1.392 . S
C854 C855 1.385 . S
C854 C856 1.478 . S
C855 H849 0.930 . S
C855 C851 1.400 . S
C855 C854 1.385 . S
C856 C854 1.478 . S
C856 C858 1.381 . S
C856 C862 1.383 . S
C857 C853 1.495 . S
C857 H863 0.959 . S
C857 H864 0.961 . S
C857 H865 0.960 . S
C858 C856 1.381 . S
C858 C859 1.394 . S
C858 H866 0.930 . S
C859 C858 1.394 . S
C859 C860 1.383 . S
C859 H867 0.929 . S
C860 C859 1.383 . S
C860 C861 1.377 . S
C861 H845 0.930 . S
C861 C860 1.377 . S
C861 C862 1.379 . S
C862 H846 0.931 . S
C862 C856 1.383 . S
C862 C861 1.379 . S
H863 C857 0.959 . S
H864 C857 0.961 . S
H865 C857 0.960 . S
H866 C858 0.930 . S
H867 C859 0.929 . S
H868 C876 0.929 . S
H869 C878 0.930 . S
H870 C880 0.930 . S
H871 C883 0.929 . S
H872 C886 0.930 . S
H873 C888 0.960 . S
H874 C888 0.960 . S
H875 C888 0.960 . S
C876 H868 0.929 . S
C876 C877 1.377 . S
C876 C878 1.384 . S
C877 C876 1.377 . S
C877 C883 1.390 . S
C878 H869 0.930 . S
C878 C876 1.384 . S
C878 C879 1.372 . S
C879 C878 1.372 . S
C879 C880 1.400 . S
C879 C884 1.490 . S
C880 H870 0.930 . S
C880 C879 1.400 . S
C880 C883 1.386 . S
H881 C897 0.930 . S
H882 C898 0.931 . S
C883 H871 0.929 . S
C883 C877 1.390 . S
C883 C880 1.386 . S
C884 C879 1.490 . S
C884 C886 1.395 . S
C884 C887 1.403 . S
H885 C891 0.930 . S
C886 H872 0.930 . S
C886 C884 1.395 . S
C886 C889 1.403 . S
C887 C884 1.403 . S
C887 C888 1.524 . S
C887 C891 1.400 . S
C888 H873 0.960 . S
C888 H874 0.960 . S
C888 H875 0.960 . S
C888 C887 1.524 . S
C889 C886 1.403 . S
C889 C890 1.392 . S
C889 C893 1.495 . S
C890 C889 1.392 . S
C890 C891 1.385 . S
C890 C892 1.478 . S
C891 H885 0.930 . S
C891 C887 1.400 . S
C891 C890 1.385 . S
C892 C890 1.478 . S
C892 C894 1.381 . S
C892 C898 1.383 . S
C893 C889 1.495 . S
C893 H899 0.959 . S
C893 H900 0.961 . S
C893 H901 0.960 . S
C894 C892 1.381 . S
C894 C895 1.394 . S
C894 H902 0.930 . S
C895 C894 1.394 . S
C895 C896 1.383 . S
C895 H903 0.929 . S
C896 C895 1.383 . S
C896 C897 1.377 . S
C897 H881 0.930 . S
C897 C896 1.377 . S
C897 C898 1.379 . S
C898 H882 0.931 . S
C898 C892 1.383 . S
C898 C897 1.379 . S
H899 C893 0.959 . S
H900 C893 0.961 . S
H901 C893 0.960 . S
H902 C894 0.930 . S
H903 C895 0.929 . S
H904 C912 0.929 . S
H905 C914 0.930 . S
H906 C916 0.930 . S
H907 C919 0.929 . S
H908 C922 0.930 . S
H909 C924 0.960 . S
H910 C924 0.960 . S
H911 C924 0.960 . S
C912 H904 0.929 . S
C912 C913 1.377 . S
C912 C914 1.384 . S
C913 C912 1.377 . S
C913 C919 1.390 . S
C914 H905 0.930 . S
C914 C912 1.384 . S
C914 C915 1.372 . S
C915 C914 1.372 . S
C915 C916 1.400 . S
C915 C920 1.490 . S
C916 H906 0.930 . S
C916 C915 1.400 . S
C916 C919 1.386 . S
H917 C933 0.930 . S
H918 C934 0.931 . S
C919 H907 0.929 . S
C919 C913 1.390 . S
C919 C916 1.386 . S
C920 C915 1.490 . S
C920 C922 1.395 . S
C920 C923 1.403 . S
H921 C927 0.930 . S
C922 H908 0.930 . S
C922 C920 1.395 . S
C922 C925 1.403 . S
C923 C920 1.403 . S
C923 C924 1.524 . S
C923 C927 1.400 . S
C924 H909 0.960 . S
C924 H910 0.960 . S
C924 H911 0.960 . S
C924 C923 1.524 . S
C925 C922 1.403 . S
C925 C926 1.392 . S
C925 C929 1.495 . S
C926 C925 1.392 . S
C926 C927 1.385 . S
C926 C928 1.478 . S
C927 H921 0.930 . S
C927 C923 1.400 . S
C927 C926 1.385 . S
C928 C926 1.478 . S
C928 C930 1.381 . S
C928 C934 1.383 . S
C929 C925 1.495 . S
C929 H935 0.959 . S
C929 H936 0.961 . S
C929 H937 0.960 . S
C930 C928 1.381 . S
C930 C931 1.394 . S
C930 H938 0.930 . S
C931 C930 1.394 . S
C931 C932 1.383 . S
C931 H939 0.929 . S
C932 C931 1.383 . S
C932 C933 1.377 . S
C933 H917 0.930 . S
C933 C932 1.377 . S
C933 C934 1.379 . S
C934 H918 0.931 . S
C934 C928 1.383 . S
C934 C933 1.379 . S
H935 C929 0.959 . S
H936 C929 0.961 . S
H937 C929 0.960 . S
H938 C930 0.930 . S
H939 C931 0.929 . S
H940 C948 0.929 . S
H941 C950 0.930 . S
H942 C952 0.930 . S
H943 C955 0.929 . S
H944 C958 0.930 . S
H945 C960 0.960 . S
H946 C960 0.960 . S
H947 C960 0.960 . S
C948 H940 0.929 . S
C948 C949 1.377 . S
C948 C950 1.384 . S
C949 C948 1.377 . S
C949 C955 1.390 . S
C950 H941 0.930 . S
C950 C948 1.384 . S
C950 C951 1.372 . S
C951 C950 1.372 . S
C951 C952 1.400 . S
C951 C956 1.490 . S
C952 H942 0.930 . S
C952 C951 1.400 . S
C952 C955 1.386 . S
H953 C969 0.930 . S
H954 C970 0.931 . S
C955 H943 0.929 . S
C955 C949 1.390 . S
C955 C952 1.386 . S
C956 C951 1.490 . S
C956 C958 1.395 . S
C956 C959 1.403 . S
H957 C963 0.930 . S
C958 H944 0.930 . S
C958 C956 1.395 . S
C958 C961 1.403 . S
C959 C956 1.403 . S
C959 C960 1.524 . S
C959 C963 1.400 . S
C960 H945 0.960 . S
C960 H946 0.960 . S
C960 H947 0.960 . S
C960 C959 1.524 . S
C961 C958 1.403 . S
C961 C962 1.392 . S
C961 C965 1.495 . S
C962 C961 1.392 . S
C962 C963 1.385 . S
C962 C964 1.478 . S
C963 H957 0.930 . S
C963 C959 1.400 . S
C963 C962 1.385 . S
C964 C962 1.478 . S
C964 C966 1.381 . S
C964 C970 1.383 . S
C965 C961 1.495 . S
C965 H971 0.959 . S
C965 H972 0.961 . S
C965 H973 0.960 . S
C966 C964 1.381 . S
C966 C967 1.394 . S
C966 H974 0.930 . S
C967 C966 1.394 . S
C967 C968 1.383 . S
C967 H975 0.929 . S
C968 C967 1.383 . S
C968 C969 1.377 . S
C969 H953 0.930 . S
C969 C968 1.377 . S
C969 C970 1.379 . S
C970 H954 0.931 . S
C970 C964 1.383 . S
C970 C969 1.379 . S
H971 C965 0.959 . S
H972 C965 0.961 . S
H973 C965 0.960 . S
H974 C966 0.930 . S
H975 C967 0.929 . S
H976 C984 0.929 . S
H977 C986 0.930 . S
H978 C988 0.930 . S
H979 C991 0.929 . S
H980 C994 0.930 . S
H981 C996 0.960 . S
H982 C996 0.960 . S
H983 C996 0.960 . S
C984 H976 0.929 . S
C984 C985 1.377 . S
C984 C986 1.384 . S
C985 C984 1.377 . S
C985 C991 1.390 . S
C986 H977 0.930 . S
C986 C984 1.384 . S
C986 C987 1.372 . S
C987 C986 1.372 . S
C987 C988 1.400 . S
C987 C992 1.490 . S
C988 H978 0.930 . S
C988 C987 1.400 . S
C988 C991 1.386 . S
H989 C1005 0.930 . S
H990 C1006 0.931 . S
C991 H979 0.929 . S
C991 C985 1.390 . S
C991 C988 1.386 . S
C992 C987 1.490 . S
C992 C994 1.395 . S
C992 C995 1.403 . S
H993 C999 0.930 . S
C994 H980 0.930 . S
C994 C992 1.395 . S
C994 C997 1.403 . S
C995 C992 1.403 . S
C995 C996 1.524 . S
C995 C999 1.400 . S
C996 H981 0.960 . S
C996 H982 0.960 . S
C996 H983 0.960 . S
C996 C995 1.524 . S
C997 C994 1.403 . S
C997 C998 1.392 . S
C997 C1001 1.495 . S
C998 C997 1.392 . S
C998 C999 1.385 . S
C998 C1000 1.478 . S
C999 H993 0.930 . S
C999 C995 1.400 . S
C999 C998 1.385 . S
C1000 C998 1.478 . S
C1000 C1002 1.381 . S
C1000 C1006 1.383 . S
C1001 C997 1.495 . S
C1001 H1007 0.959 . S
C1001 H1008 0.961 . S
C1001 H1009 0.960 . S
C1002 C1000 1.381 . S
C1002 C1003 1.394 . S
C1002 H1010 0.930 . S
C1003 C1002 1.394 . S
C1003 C1004 1.383 . S
C1003 H1011 0.929 . S
C1004 C1003 1.383 . S
C1004 C1005 1.377 . S
C1005 H989 0.930 . S
C1005 C1004 1.377 . S
C1005 C1006 1.379 . S
C1006 H990 0.931 . S
C1006 C1000 1.383 . S
C1006 C1005 1.379 . S
H1007 C1001 0.959 . S
H1008 C1001 0.961 . S
H1009 C1001 0.960 . S
H1010 C1002 0.930 . S
H1011 C1003 0.929 . S
H1012 C1020 0.929 . S
H1013 C1022 0.930 . S
H1014 C1024 0.930 . S
H1015 C1027 0.929 . S
H1016 C1030 0.930 . S
H1017 C1032 0.960 . S
H1018 C1032 0.960 . S
H1019 C1032 0.960 . S
C1020 H1012 0.929 . S
C1020 C1021 1.377 . S
C1020 C1022 1.384 . S
C1021 C1020 1.377 . S
C1021 C1027 1.390 . S
C1022 H1013 0.930 . S
C1022 C1020 1.384 . S
C1022 C1023 1.372 . S
C1023 C1022 1.372 . S
C1023 C1024 1.400 . S
C1023 C1028 1.490 . S
C1024 H1014 0.930 . S
C1024 C1023 1.400 . S
C1024 C1027 1.386 . S
H1025 C1041 0.930 . S
H1026 C1042 0.931 . S
C1027 H1015 0.929 . S
C1027 C1021 1.390 . S
C1027 C1024 1.386 . S
C1028 C1023 1.490 . S
C1028 C1030 1.395 . S
C1028 C1031 1.403 . S
H1029 C1035 0.930 . S
C1030 H1016 0.930 . S
C1030 C1028 1.395 . S
C1030 C1033 1.403 . S
C1031 C1028 1.403 . S
C1031 C1032 1.524 . S
C1031 C1035 1.400 . S
C1032 H1017 0.960 . S
C1032 H1018 0.960 . S
C1032 H1019 0.960 . S
C1032 C1031 1.524 . S
C1033 C1030 1.403 . S
C1033 C1034 1.392 . S
C1033 C1037 1.495 . S
C1034 C1033 1.392 . S
C1034 C1035 1.385 . S
C1034 C1036 1.478 . S
C1035 H1029 0.930 . S
C1035 C1031 1.400 . S
C1035 C1034 1.385 . S
C1036 C1034 1.478 . S
C1036 C1038 1.381 . S
C1036 C1042 1.383 . S
C1037 C1033 1.495 . S
C1037 H1043 0.959 . S
C1037 H1044 0.961 . S
C1037 H1045 0.960 . S
C1038 C1036 1.381 . S
C1038 C1039 1.394 . S
C1038 H1046 0.930 . S
C1039 C1038 1.394 . S
C1039 C1040 1.383 . S
C1039 H1047 0.929 . S
C1040 C1039 1.383 . S
C1040 C1041 1.377 . S
C1041 H1025 0.930 . S
C1041 C1040 1.377 . S
C1041 C1042 1.379 . S
C1042 H1026 0.931 . S
C1042 C1036 1.383 . S
C1042 C1041 1.379 . S
H1043 C1037 0.959 . S
H1044 C1037 0.961 . S
H1045 C1037 0.960 . S
H1046 C1038 0.930 . S
H1047 C1039 0.929 . S
H1048 C1056 0.929 . S
H1049 C1058 0.930 . S
H1050 C1060 0.930 . S
H1051 C1063 0.929 . S
H1052 C1066 0.930 . S
H1053 C1068 0.960 . S
H1054 C1068 0.960 . S
H1055 C1068 0.960 . S
C1056 H1048 0.929 . S
C1056 C1057 1.377 . S
C1056 C1058 1.384 . S
C1057 C1056 1.377 . S
C1057 C1063 1.390 . S
C1058 H1049 0.930 . S
C1058 C1056 1.384 . S
C1058 C1059 1.372 . S
C1059 C1058 1.372 . S
C1059 C1060 1.400 . S
C1059 C1064 1.490 . S
C1060 H1050 0.930 . S
C1060 C1059 1.400 . S
C1060 C1063 1.386 . S
H1061 C1077 0.930 . S
H1062 C1078 0.931 . S
C1063 H1051 0.929 . S
C1063 C1057 1.390 . S
C1063 C1060 1.386 . S
C1064 C1059 1.490 . S
C1064 C1066 1.395 . S
C1064 C1067 1.403 . S
H1065 C1071 0.930 . S
C1066 H1052 0.930 . S
C1066 C1064 1.395 . S
C1066 C1069 1.403 . S
C1067 C1064 1.403 . S
C1067 C1068 1.524 . S
C1067 C1071 1.400 . S
C1068 H1053 0.960 . S
C1068 H1054 0.960 . S
C1068 H1055 0.960 . S
C1068 C1067 1.524 . S
C1069 C1066 1.403 . S
C1069 C1070 1.392 . S
C1069 C1073 1.495 . S
C1070 C1069 1.392 . S
C1070 C1071 1.385 . S
C1070 C1072 1.478 . S
C1071 H1065 0.930 . S
C1071 C1067 1.400 . S
C1071 C1070 1.385 . S
C1072 C1070 1.478 . S
C1072 C1074 1.381 . S
C1072 C1078 1.383 . S
C1073 C1069 1.495 . S
C1073 H1079 0.959 . S
C1073 H1080 0.961 . S
C1073 H1081 0.960 . S
C1074 C1072 1.381 . S
C1074 C1075 1.394 . S
C1074 H1082 0.930 . S
C1075 C1074 1.394 . S
C1075 C1076 1.383 . S
C1075 H1083 0.929 . S
C1076 C1075 1.383 . S
C1076 C1077 1.377 . S
C1077 H1061 0.930 . S
C1077 C1076 1.377 . S
C1077 C1078 1.379 . S
C1078 H1062 0.931 . S
C1078 C1072 1.383 . S
C1078 C1077 1.379 . S
H1079 C1073 0.959 . S
H1080 C1073 0.961 . S
H1081 C1073 0.960 . S
H1082 C1074 0.930 . S
H1083 C1075 0.929 . S
H1084 C1092 0.929 . S
H1085 C1094 0.930 . S
H1086 C1096 0.930 . S
H1087 C1099 0.929 . S
H1088 C1102 0.930 . S
H1089 C1104 0.960 . S
H1090 C1104 0.960 . S
H1091 C1104 0.960 . S
C1092 H1084 0.929 . S
C1092 C1093 1.377 . S
C1092 C1094 1.384 . S
C1093 C1092 1.377 . S
C1093 C1099 1.390 . S
C1094 H1085 0.930 . S
C1094 C1092 1.384 . S
C1094 C1095 1.372 . S
C1095 C1094 1.372 . S
C1095 C1096 1.400 . S
C1095 C1100 1.490 . S
C1096 H1086 0.930 . S
C1096 C1095 1.400 . S
C1096 C1099 1.386 . S
H1097 C1113 0.930 . S
H1098 C1114 0.931 . S
C1099 H1087 0.929 . S
C1099 C1093 1.390 . S
C1099 C1096 1.386 . S
C1100 C1095 1.490 . S
C1100 C1102 1.395 . S
C1100 C1103 1.403 . S
H1101 C1107 0.930 . S
C1102 H1088 0.930 . S
C1102 C1100 1.395 . S
C1102 C1105 1.403 . S
C1103 C1100 1.403 . S
C1103 C1104 1.524 . S
C1103 C1107 1.400 . S
C1104 H1089 0.960 . S
C1104 H1090 0.960 . S
C1104 H1091 0.960 . S
C1104 C1103 1.524 . S
C1105 C1102 1.403 . S
C1105 C1106 1.392 . S
C1105 C1109 1.495 . S
C1106 C1105 1.392 . S
C1106 C1107 1.385 . S
C1106 C1108 1.478 . S
C1107 H1101 0.930 . S
C1107 C1103 1.400 . S
C1107 C1106 1.385 . S
C1108 C1106 1.478 . S
C1108 C1110 1.381 . S
C1108 C1114 1.383 . S
C1109 C1105 1.495 . S
C1109 H1115 0.959 . S
C1109 H1116 0.961 . S
C1109 H1117 0.960 . S
C1110 C1108 1.381 . S
C1110 C1111 1.394 . S
C1110 H1118 0.930 . S
C1111 C1110 1.394 . S
C1111 C1112 1.383 . S
C1111 H1119 0.929 . S
C1112 C1111 1.383 . S
C1112 C1113 1.377 . S
C1113 H1097 0.930 . S
C1113 C1112 1.377 . S
C1113 C1114 1.379 . S
C1114 H1098 0.931 . S
C1114 C1108 1.383 . S
C1114 C1113 1.379 . S
H1115 C1109 0.959 . S
H1116 C1109 0.961 . S
H1117 C1109 0.960 . S
H1118 C1110 0.930 . S
H1119 C1111 0.929 . S
C265 C6 1.104 . S
C284 C103 1.135 . S
C301 C18 1.314 . S
C320 C152 1.290 . S
C356 C178 2.531 . S
C337 C28 2.560 . S
C373 C40 1.597 . S
C392 C226 1.543 . S
C428 C138 2.492 . S
C409 C9 2.416 . S
C464 C106 0.892 . S
C445 C16 0.934 . S
C500 C227 1.812 . S
C481 C30 1.839 . S
C536 C195 1.067 . S
C517 C42 1.110 . S
C553 C4 1.541 . S
C572 C223 1.569 . S
C608 C155 2.509 . S
C589 C33 2.575 . S
C625 C45 2.037 . S
C644 C107 2.018 . S
C661 C21 0.975 . S
C680 C192 0.980 . S
C716 C112 1.156 . S
C697 C57 1.124 . S
C733 C66 1.327 . S
C752 C143 1.318 . S
C769 C76 2.614 . S
C788 C187 2.575 . S
C805 C88 1.523 . S
C824 C235 1.492 . S
C841 C54 2.404 . S
C860 C147 2.468 . S
C896 C115 1.051 . S
C877 C64 1.057 . S
C932 C218 1.718 . S
C913 C78 1.739 . S
C968 C186 1.099 . S
C949 C93 1.148 . S
C985 C52 1.503 . S
C1004 C232 1.557 . S
C1040 C146 2.485 . S
C1021 C81 2.562 . S
C1076 C98 2.002 . S
C1057 C90 2.007 . S
C1093 C69 0.995 . S
C1112 C183 1.015 . S
