# Generated by pormake.
# Topology dag, (6,3)-cn, num edge types: 1
# Building blocks:
#     Node 0, Type 0, BuildingBlock: IZENUY_clean_sbu_0, # of connection points: 6
#     Node 1, Type 0, BuildingBlock: IZENUY_clean_sbu_0, # of connection points: 6
#     Node 2, Type 0, BuildingBlock: IZENUY_clean_sbu_0, # of connection points: 6
#     Node 3, Type 0, BuildingBlock: IZENUY_clean_sbu_0, # of connection points: 6
#     Node 4, Type 1, BuildingBlock: QEWDON_clean_linker_0, # of connection points: 3
#     Node 5, Type 1, BuildingBlock: QEWDON_clean_linker_0, # of connection points: 3
#     Node 6, Type 1, BuildingBlock: QEWDON_clean_linker_0, # of connection points: 3
#     Node 7, Type 1, BuildingBlock: QEWDON_clean_linker_0, # of connection points: 3
#     Node 8, Type 1, BuildingBlock: QEWDON_clean_linker_0, # of connection points: 3
#     Node 9, Type 1, BuildingBlock: QEWDON_clean_linker_0, # of connection points: 3
#     Node 10, Type 1, BuildingBlock: QEWDON_clean_linker_0, # of connection points: 3
#     Node 11, Type 1, BuildingBlock: QEWDON_clean_linker_0, # of connection points: 3
#     Edge 12, Type (0, 1), BuildingBlock: XIVTED_clean_linker_0, # of connection points: 2
#     Edge 13, Type (0, 1), BuildingBlock: XIVTED_clean_linker_0, # of connection points: 2
#     Edge 14, Type (0, 1), BuildingBlock: XIVTED_clean_linker_0, # of connection points: 2
#     Edge 15, Type (0, 1), BuildingBlock: XIVTED_clean_linker_0, # of connection points: 2
#     Edge 16, Type (0, 1), BuildingBlock: XIVTED_clean_linker_0, # of connection points: 2
#     Edge 17, Type (0, 1), BuildingBlock: XIVTED_clean_linker_0, # of connection points: 2
#     Edge 18, Type (0, 1), BuildingBlock: XIVTED_clean_linker_0, # of connection points: 2
#     Edge 19, Type (0, 1), BuildingBlock: XIVTED_clean_linker_0, # of connection points: 2
#     Edge 20, Type (0, 1), BuildingBlock: XIVTED_clean_linker_0, # of connection points: 2
#     Edge 21, Type (0, 1), BuildingBlock: XIVTED_clean_linker_0, # of connection points: 2
#     Edge 22, Type (0, 1), BuildingBlock: XIVTED_clean_linker_0, # of connection points: 2
#     Edge 23, Type (0, 1), BuildingBlock: XIVTED_clean_linker_0, # of connection points: 2
#     Edge 24, Type (0, 1), BuildingBlock: XIVTED_clean_linker_0, # of connection points: 2
#     Edge 25, Type (0, 1), BuildingBlock: XIVTED_clean_linker_0, # of connection points: 2
#     Edge 26, Type (0, 1), BuildingBlock: XIVTED_clean_linker_0, # of connection points: 2
#     Edge 27, Type (0, 1), BuildingBlock: XIVTED_clean_linker_0, # of connection points: 2
#     Edge 28, Type (0, 1), BuildingBlock: XIVTED_clean_linker_0, # of connection points: 2
#     Edge 29, Type (0, 1), BuildingBlock: XIVTED_clean_linker_0, # of connection points: 2
#     Edge 30, Type (0, 1), BuildingBlock: XIVTED_clean_linker_0, # of connection points: 2
#     Edge 31, Type (0, 1), BuildingBlock: XIVTED_clean_linker_0, # of connection points: 2
#     Edge 32, Type (0, 1), BuildingBlock: XIVTED_clean_linker_0, # of connection points: 2
#     Edge 33, Type (0, 1), BuildingBlock: XIVTED_clean_linker_0, # of connection points: 2
#     Edge 34, Type (0, 1), BuildingBlock: XIVTED_clean_linker_0, # of connection points: 2
#     Edge 35, Type (0, 1), BuildingBlock: XIVTED_clean_linker_0, # of connection points: 2
# Relax obj value: 0.042
# Max RMSD: 0.066
# Mean RMSD: 0.060
data_MOF--net-dag--node1-IZENUY_clean_sbu_0--node2-QEWDON_clean_linker_0--edge1-XIVTED_clean_linker_0
_symmetry_space_group_name_H-M    P1
_symmetry_Int_Tables_number       1
_symmetry_cell_setting            triclinic
loop_
_symmetry_equiv_pos_as_xyz
'x, y, z'
_cell_length_a     41.519851
_cell_length_b     41.80151
_cell_length_c     37.98978
_cell_angle_alpha  91.348055
_cell_angle_beta   90.147073
_cell_angle_gamma 89.957064
loop_
_atom_site_label
_atom_site_type_symbol
_atom_site_fract_x
_atom_site_fract_y
_atom_site_fract_z
_atom_type_partial_charge
Fe0 Fe 0.1937 0.85789 0.02222 0.0
Fe1 Fe 0.1235 0.87832 0.01437 0.0
O2 O 0.1522 0.84814 0.02185 0.0
Fe3 Fe 0.13931 0.8085 0.02918 0.0
O4 O 0.15829 0.80889 0.07215 0.0
O5 O 0.20491 0.82803 0.05514 0.0
O6 O 0.18843 0.88649 0.05875 0.0
C7 C 0.1697 0.91021 0.05723 0.0
C8 C 0.19495 0.80063 0.98615 0.0
O9 O 0.14746 0.91084 0.03444 0.0
C10 C 0.09711 0.82473 0.97764 0.0
O11 O 0.18996 0.88952 0.98921 0.0
O12 O 0.13981 0.88543 0.97116 0.0
O13 O 0.17474 0.78967 0.00785 0.0
O14 O 0.20144 0.8301 0.98599 0.0
C15 C 0.09349 0.8468 0.06676 0.0
O16 O 0.09398 0.85165 0.99309 0.0
O17 O 0.11904 0.80563 0.98654 0.0
C18 C 0.16831 0.89471 0.96632 0.0
O19 O 0.10569 0.87279 0.0571 0.0
O20 O 0.10168 0.82045 0.05198 0.0
C21 C 0.18767 0.81454 0.07792 0.0
Fe22 Fe 0.69369 0.63014 0.49363 0.0
Fe23 Fe 0.64369 0.68473 0.49988 0.0
O24 O 0.65318 0.64318 0.4984 0.0
Fe25 Fe 0.6222 0.61447 0.50155 0.0
O26 O 0.64678 0.58532 0.52464 0.0
O27 O 0.69293 0.60949 0.53531 0.0
O28 O 0.71107 0.6647 0.51748 0.0
C29 C 0.69903 0.68458 0.53943 0.0
C30 C 0.65915 0.58564 0.45074 0.0
O31 O 0.66948 0.69164 0.53815 0.0
C32 C 0.59423 0.66148 0.45878 0.0
O33 O 0.69698 0.6497 0.45177 0.0
O34 O 0.67594 0.69581 0.46916 0.0
O35 O 0.63198 0.5971 0.45868 0.0
O36 O 0.68386 0.59308 0.46874 0.0
C37 C 0.60233 0.65846 0.55122 0.0
O38 O 0.61715 0.68114 0.46172 0.0
O39 O 0.59174 0.63823 0.47923 0.0
C40 C 0.69156 0.67898 0.44678 0.0
O41 O 0.6096 0.68078 0.53063 0.0
O42 O 0.61055 0.62997 0.54447 0.0
C43 C 0.67213 0.58875 0.54283 0.0
Fe44 Fe 0.86633 0.18647 0.00504 0.0
Fe45 Fe 0.88508 0.11648 0.0144 0.0
O46 O 0.85532 0.14557 0.00616 0.0
Fe47 Fe 0.81473 0.13371 0.99895 0.0
O48 O 0.81437 0.15079 0.95552 0.0
O49 O 0.83613 0.19687 0.97161 0.0
O50 O 0.89414 0.17905 0.96882 0.0
C51 C 0.91734 0.15969 0.97038 0.0
C52 C 0.80924 0.19106 0.04022 0.0
O53 O 0.91796 0.1382 0.99327 0.0
C54 C 0.83147 0.09487 0.05286 0.0
O55 O 0.89889 0.18343 0.03814 0.0
O56 O 0.89423 0.13444 0.05705 0.0
O57 O 0.79745 0.17035 0.01895 0.0
O58 O 0.83913 0.19654 0.04105 0.0
C59 C 0.8507 0.08577 0.96244 0.0
O60 O 0.85793 0.08955 0.03736 0.0
O61 O 0.81212 0.11573 0.04199 0.0
C62 C 0.9043 0.16268 0.06131 0.0
O63 O 0.87765 0.09677 0.97215 0.0
O64 O 0.82496 0.09498 0.97749 0.0
C65 C 0.82088 0.17959 0.94932 0.0
Fe66 Fe 0.38685 0.37947 0.52502 0.0
Fe67 Fe 0.31551 0.36223 0.53143 0.0
O68 O 0.35645 0.3501 0.5275 0.0
Fe69 Fe 0.36695 0.30882 0.52602 0.0
O70 O 0.39288 0.31281 0.56461 0.0
O71 O 0.41754 0.35633 0.54777 0.0
O72 O 0.37603 0.39638 0.56772 0.0
C73 C 0.34854 0.4074 0.57507 0.0
C74 C 0.40834 0.33611 0.47557 0.0
O75 O 0.32421 0.39944 0.55668 0.0
C76 C 0.31216 0.30765 0.48553 0.0
O77 O 0.36202 0.40819 0.50166 0.0
O78 O 0.31664 0.38302 0.48982 0.0
O79 O 0.40131 0.3136 0.49595 0.0
O80 O 0.39946 0.36442 0.48225 0.0
C81 C 0.31812 0.31327 0.57812 0.0
O82 O 0.29931 0.32737 0.50708 0.0
O83 O 0.34188 0.30143 0.48731 0.0
C84 C 0.33716 0.40419 0.48281 0.0
O85 O 0.31167 0.34236 0.57313 0.0
O86 O 0.33467 0.29702 0.55607 0.0
C87 C 0.41538 0.33288 0.56799 0.0
H88 H 0.16863 0.09775 0.25414 0.0
C89 C 0.14905 0.11041 0.24166 0.0
C90 C 0.14139 0.1038 0.20613 0.0
C91 C 0.13058 0.13239 0.26158 0.0
H92 H 0.1084 0.11414 0.16384 0.0
C93 C 0.11542 0.12002 0.19073 0.0
C94 C 0.0964 0.14151 0.21055 0.0
C95 C 0.10407 0.14756 0.24607 0.0
C96 C 0.13606 0.13624 0.29979 0.0
H97 H 0.08898 0.16343 0.26189 0.0
C98 C 0.15835 0.15867 0.3135 0.0
C99 C 0.16158 0.16327 0.35022 0.0
C100 C 0.11767 0.11797 0.3228 0.0
H101 H 0.10041 0.10066 0.31258 0.0
C102 C 0.12123 0.12207 0.35911 0.0
H103 H 0.1723 0.17308 0.29575 0.0
C104 C 0.14288 0.14466 0.37279 0.0
H105 H 0.1451 0.14755 0.40111 0.0
H106 H 0.10696 0.1079 0.37673 0.0
H107 H 0.43229 0.66958 0.76541 0.0
C108 C 0.41708 0.65162 0.75274 0.0
C109 C 0.42195 0.64325 0.71715 0.0
C110 C 0.39302 0.63642 0.77222 0.0
H111 H 0.40763 0.61163 0.67435 0.0
C112 C 0.40277 0.61931 0.7013 0.0
C113 C 0.37982 0.60284 0.72093 0.0
C114 C 0.37464 0.61184 0.75631 0.0
C115 C 0.38939 0.64387 0.81017 0.0
H116 H 0.35734 0.59885 0.77182 0.0
C117 C 0.36133 0.65875 0.82327 0.0
C118 C 0.358 0.66538 0.85963 0.0
C119 C 0.4141 0.63563 0.8335 0.0
H120 H 0.43585 0.62414 0.82381 0.0
C121 C 0.41074 0.64175 0.86955 0.0
H122 H 0.34227 0.66522 0.80522 0.0
C123 C 0.3829 0.65647 0.8826 0.0
H124 H 0.38115 0.66154 0.91063 0.0
H125 H 0.42986 0.63523 0.88744 0.0
H126 H 0.86334 0.81604 0.17818 0.0
C127 C 0.8548 0.84042 0.18148 0.0
C128 C 0.87586 0.86621 0.17636 0.0
C129 C 0.82205 0.84591 0.18882 0.0
H130 H 0.87966 0.91764 0.17651 0.0
C131 C 0.8637 0.8975 0.18006 0.0
C132 C 0.83075 0.90334 0.18535 0.0
C133 C 0.80996 0.87732 0.19002 0.0
C134 C 0.79985 0.81853 0.1909 0.0
H135 H 0.78436 0.88141 0.19346 0.0
C136 C 0.79042 0.80666 0.22363 0.0
C137 C 0.77037 0.77952 0.22519 0.0
C138 C 0.78884 0.80359 0.15973 0.0
H139 H 0.79599 0.81247 0.13435 0.0
C140 C 0.76861 0.77705 0.16111 0.0
H141 H 0.79938 0.81799 0.24767 0.0
C142 C 0.75947 0.765 0.19354 0.0
H143 H 0.74366 0.74441 0.19387 0.0
H144 H 0.76009 0.76567 0.13695 0.0
H145 H 0.71768 0.3723 0.67692 0.0
C146 C 0.69259 0.36517 0.67741 0.0
C147 C 0.66842 0.38773 0.67075 0.0
C148 C 0.68466 0.33323 0.68424 0.0
H149 H 0.61742 0.39466 0.66405 0.0
C150 C 0.63611 0.37782 0.67103 0.0
C151 C 0.62768 0.34592 0.67744 0.0
C152 C 0.6522 0.32363 0.68425 0.0
C153 C 0.71083 0.30963 0.68805 0.0
H154 H 0.64618 0.29881 0.68855 0.0
C155 C 0.71789 0.29624 0.72084 0.0
C156 C 0.74523 0.27661 0.72464 0.0
C157 C 0.7305 0.30236 0.65895 0.0
H158 H 0.72545 0.31258 0.63357 0.0
C159 C 0.75703 0.28221 0.66246 0.0
H160 H 0.70314 0.30228 0.74355 0.0
C161 C 0.76457 0.26963 0.69515 0.0
H162 H 0.78562 0.25448 0.69747 0.0
H163 H 0.77211 0.27675 0.63991 0.0
H164 H 0.64897 0.39623 0.24895 0.0
C165 C 0.63282 0.38314 0.26575 0.0
C166 C 0.62934 0.39248 0.30134 0.0
C167 C 0.61403 0.35804 0.25143 0.0
H168 H 0.60382 0.38422 0.3496 0.0
C169 C 0.60757 0.37608 0.32258 0.0
C170 C 0.588 0.35174 0.3083 0.0
C171 C 0.59146 0.34271 0.27277 0.0
C172 C 0.61523 0.34966 0.21345 0.0
H173 H 0.57602 0.32422 0.26147 0.0
C174 C 0.64347 0.33732 0.19782 0.0
C175 C 0.64335 0.32672 0.16222 0.0
C176 C 0.58713 0.35235 0.19317 0.0
H177 H 0.56518 0.36182 0.20477 0.0
C178 C 0.58696 0.34256 0.1579 0.0
H179 H 0.66512 0.3354 0.2136 0.0
C180 C 0.61465 0.32957 0.1426 0.0
H181 H 0.61316 0.32098 0.11554 0.0
H182 H 0.56509 0.34446 0.14252 0.0
H183 H 0.21382 0.1126 0.83612 0.0
C184 C 0.18934 0.12121 0.83937 0.0
C185 C 0.16445 0.09961 0.8466 0.0
C186 C 0.18316 0.15415 0.83771 0.0
H187 H 0.11384 0.09533 0.85849 0.0
C188 C 0.133 0.11146 0.85116 0.0
C189 C 0.12658 0.14441 0.85013 0.0
C190 C 0.15181 0.16573 0.84325 0.0
C191 C 0.2104 0.17648 0.83472 0.0
H192 H 0.14733 0.19129 0.84361 0.0
C193 C 0.21744 0.19101 0.80265 0.0
C194 C 0.24533 0.20985 0.79951 0.0
C195 C 0.23074 0.18164 0.86384 0.0
H196 H 0.22565 0.17048 0.88868 0.0
C197 C 0.25797 0.20091 0.86101 0.0
H198 H 0.20205 0.18659 0.77995 0.0
C199 C 0.26542 0.21474 0.82898 0.0
H200 H 0.28692 0.22928 0.82718 0.0
H201 H 0.27359 0.20477 0.88357 0.0
H202 H 0.3624 0.69473 0.33783 0.0
C203 C 0.35682 0.66977 0.34194 0.0
C204 C 0.38169 0.64803 0.34936 0.0
C205 C 0.32455 0.6595 0.34125 0.0
H206 H 0.39275 0.59953 0.36311 0.0
C207 C 0.37385 0.61594 0.35563 0.0
C208 C 0.34177 0.60532 0.35511 0.0
C209 C 0.31728 0.62731 0.34775 0.0
C210 C 0.29782 0.68252 0.33688 0.0
H211 H 0.29238 0.61952 0.34742 0.0
C212 C 0.29456 0.70043 0.30611 0.0
C213 C 0.26727 0.72012 0.30119 0.0
C214 C 0.27428 0.68515 0.36323 0.0
H215 H 0.2764 0.67163 0.38712 0.0
C216 C 0.24767 0.70493 0.3589 0.0
H217 H 0.31286 0.6984 0.28592 0.0
C218 C 0.24395 0.72199 0.3281 0.0
H219 H 0.22221 0.73598 0.32512 0.0
H220 H 0.22948 0.70655 0.37924 0.0
H221 H 0.91873 0.81323 0.77417 0.0
C222 C 0.90602 0.83309 0.78669 0.0
C223 C 0.91177 0.84086 0.82235 0.0
C224 C 0.88491 0.85175 0.76671 0.0
H225 H 0.90095 0.8742 0.86494 0.0
C226 C 0.89569 0.86718 0.83787 0.0
C227 C 0.87539 0.88657 0.81793 0.0
C228 C 0.87007 0.87877 0.78226 0.0
C229 C 0.88202 0.84569 0.72845 0.0
H230 H 0.85517 0.89418 0.7664 0.0
C231 C 0.85881 0.82439 0.71438 0.0
C232 C 0.8574 0.81816 0.67777 0.0
C233 C 0.90335 0.86109 0.70587 0.0
H234 H 0.9213 0.87755 0.71637 0.0
C235 C 0.90183 0.8552 0.66964 0.0
H236 H 0.84245 0.81233 0.73185 0.0
C237 C 0.87914 0.83381 0.65564 0.0
H238 H 0.8784 0.82969 0.62739 0.0
H239 H 0.91838 0.86715 0.65235 0.0
H240 H 0.19179 0.91437 0.12556 0.0
H241 H 0.16096 0.10352 0.13735 0.0
H242 H 0.15976 0.97182 0.03937 0.0
H243 H 0.15771 0.04377 0.22836 0.0
H244 H 0.17624 0.05688 0.10121 0.0
H245 H 0.19397 0.9631 0.16338 0.0
C246 C 0.18579 0.93727 0.1145 0.0
C247 C 0.17523 0.93913 0.07949 0.0
C248 C 0.17265 0.05406 0.1292 0.0
C249 C 0.17801 0.99457 0.12211 0.0
C250 C 0.16394 0.08067 0.14984 0.0
C251 C 0.15746 0.07746 0.18582 0.0
C252 C 0.17496 0.02392 0.14456 0.0
C253 C 0.16241 0.04737 0.20073 0.0
C254 C 0.1869 0.96495 0.13604 0.0
C255 C 0.16759 0.9693 0.06638 0.0
N256 N 0.17043 0.02161 0.17993 0.0
N257 N 0.16906 0.99575 0.08768 0.0
H258 H 0.60058 0.6285 0.61395 0.0
H259 H 0.42129 0.67153 0.65299 0.0
H260 H 0.55221 0.70108 0.55467 0.0
H261 H 0.48534 0.64223 0.7357 0.0
H262 H 0.46816 0.68283 0.61604 0.0
H263 H 0.55848 0.63274 0.65879 0.0
C264 C 0.58129 0.64567 0.61068 0.0
C265 C 0.57974 0.6644 0.58059 0.0
C266 C 0.47196 0.67461 0.64255 0.0
C267 C 0.53121 0.66887 0.63129 0.0
C268 C 0.44529 0.66816 0.66356 0.0
C269 C 0.44959 0.65599 0.69735 0.0
C270 C 0.50303 0.66797 0.65512 0.0
C271 C 0.48108 0.65181 0.70986 0.0
C272 C 0.55736 0.64816 0.6363 0.0
C273 C 0.5543 0.68631 0.5776 0.0
N274 N 0.50663 0.65719 0.68848 0.0
N275 N 0.53062 0.6875 0.60231 0.0
H276 H 0.77434 0.06331 0.06292 0.0
H277 H 0.85326 0.95947 0.21457 0.0
H278 H 0.86881 0.07802 0.10766 0.0
H279 H 0.78153 0.92209 0.14241 0.0
H280 H 0.84553 0.01262 0.19036 0.0
H281 H 0.76478 0.02076 0.10557 0.0
C282 C 0.79265 0.05815 0.08234 0.0
C283 C 0.82249 0.07381 0.08177 0.0
C284 C 0.83087 0.99295 0.18045 0.0
C285 C 0.8117 0.02591 0.13043 0.0
C286 C 0.83514 0.96267 0.19438 0.0
C287 C 0.81849 0.93625 0.17997 0.0
C288 C 0.80981 0.99683 0.1519 0.0
C289 C 0.795 0.9418 0.15413 0.0
C290 C 0.78726 0.03388 0.10648 0.0
C291 C 0.84561 0.06619 0.10715 0.0
N292 N 0.79182 0.97141 0.14034 0.0
N293 N 0.83979 0.04269 0.13032 0.0
H294 H 0.4502 0.27842 0.58108 0.0
H295 H 0.57439 0.37619 0.70399 0.0
H296 H 0.44036 0.3777 0.61237 0.0
H297 H 0.60286 0.29403 0.64065 0.0
H298 H 0.51861 0.36766 0.68547 0.0
H299 H 0.49984 0.27549 0.61678 0.0
C300 C 0.45806 0.29929 0.5962 0.0
C301 C 0.44145 0.32839 0.5938 0.0
C302 C 0.53697 0.35115 0.67609 0.0
C303 C 0.49753 0.32521 0.63449 0.0
C304 C 0.56879 0.35596 0.68669 0.0
C305 C 0.5934 0.33616 0.6733 0.0
C306 C 0.52956 0.32633 0.6519 0.0
C307 C 0.58466 0.30994 0.65149 0.0
C308 C 0.48638 0.29768 0.61631 0.0
C309 C 0.45269 0.3549 0.61344 0.0
N310 N 0.55347 0.30606 0.64097 0.0
N311 N 0.48004 0.3527 0.63285 0.0
H312 H 0.70379 0.53757 0.44548 0.0
H313 H 0.62108 0.45274 0.27757 0.0
H314 H 0.61911 0.57467 0.39446 0.0
H315 H 0.66855 0.39993 0.35882 0.0
H316 H 0.63377 0.50279 0.30982 0.0
H317 H 0.7036 0.49199 0.40362 0.0
C318 C 0.68545 0.53638 0.42516 0.0
C319 C 0.6612 0.55975 0.42363 0.0
C320 C 0.64202 0.48026 0.32013 0.0
C321 C 0.66123 0.50806 0.37554 0.0
C322 C 0.63513 0.45182 0.3016 0.0
C323 C 0.64392 0.42233 0.31562 0.0
C324 C 0.65814 0.47911 0.3526 0.0
C325 C 0.6615 0.42228 0.3472 0.0
C326 C 0.68534 0.51036 0.40141 0.0
C327 C 0.638 0.55697 0.3968 0.0
N328 N 0.66792 0.45027 0.36478 0.0
N329 N 0.63856 0.53155 0.37381 0.0
H330 H 0.92248 0.16426 0.89886 0.0
H331 H 0.11356 0.18635 0.90402 0.0
H332 H 0.9782 0.16677 0.99477 0.0
H333 H 0.06725 0.12793 0.82376 0.0
H334 H 0.06081 0.19686 0.93087 0.0
H335 H 0.97296 0.16742 0.86485 0.0
C336 C 0.94531 0.16605 0.91264 0.0
C337 C 0.94649 0.16506 0.94947 0.0
C338 C 0.06219 0.18232 0.90694 0.0
C339 C 1.00356 0.16936 0.91125 0.0
C340 C 0.09215 0.17655 0.89148 0.0
C341 C 0.09462 0.15623 0.86173 0.0
C342 C 0.03453 0.16806 0.8922 0.0
C343 C 0.06623 0.14367 0.84678 0.0
C344 C 0.97393 0.16774 0.89335 0.0
C345 C 0.97648 0.16723 0.96632 0.0
N346 N 0.03727 0.14966 0.86228 0.0
N347 N 0.00387 0.16937 0.94708 0.0
H348 H 0.37927 0.4209 0.43275 0.0
H349 H 0.29256 0.58452 0.39725 0.0
H350 H 0.28333 0.44055 0.47043 0.0
H351 H 0.37378 0.55003 0.33664 0.0
H352 H 0.28567 0.53093 0.42062 0.0
H353 H 0.3752 0.46625 0.39374 0.0
C354 C 0.35704 0.43449 0.43215 0.0
C355 C 0.33158 0.42712 0.45466 0.0
C356 C 0.30465 0.53497 0.40174 0.0
C357 C 0.32703 0.47975 0.41098 0.0
C358 C 0.30854 0.56557 0.38825 0.0
C359 C 0.33414 0.57198 0.36531 0.0
C360 C 0.32668 0.5107 0.39252 0.0
C361 C 0.35422 0.54644 0.35491 0.0
C362 C 0.3547 0.46042 0.40995 0.0
C363 C 0.30335 0.44545 0.45318 0.0
N364 N 0.35035 0.51712 0.36896 0.0
N365 N 0.30204 0.47142 0.43217 0.0
H366 H 0.10013 0.80514 0.90822 0.0
H367 H 0.90868 0.81953 0.88974 0.0
H368 H 0.03424 0.82145 0.9942 0.0
H369 H 0.97346 0.82636 0.80169 0.0
H370 H 0.95405 0.80472 0.92703 0.0
H371 H 0.05376 0.79823 0.868 0.0
C372 C 0.0759 0.80635 0.91868 0.0
C373 C 0.07075 0.81393 0.95434 0.0
C374 C 0.95832 0.80892 0.89942 0.0
C375 C 0.01804 0.80628 0.90901 0.0
C376 C 0.93241 0.8173 0.87812 0.0
C377 C 0.93739 0.82465 0.84272 0.0
C378 C 0.98959 0.80811 0.88535 0.0
C379 C 0.96857 0.82094 0.82888 0.0
C380 C 0.04952 0.80263 0.89581 0.0
C381 C 0.03906 0.81573 0.96675 0.0
N382 N 0.99363 0.81347 0.85038 0.0
N383 N 0.01394 0.81215 0.94412 0.0
H384 H 0.89335 0.07267 0.90946 0.0
H385 H 0.83817 0.89505 0.87658 0.0
H386 H 0.80631 0.03745 0.9567 0.0
H387 H 0.88765 0.94698 0.79637 0.0
H388 H 0.82741 0.94582 0.90828 0.0
H389 H 0.89389 0.02573 0.8696 0.0
C390 C 0.87425 0.05514 0.91127 0.0
C391 C 0.84982 0.05885 0.93649 0.0
C392 C 0.84006 0.94615 0.8834 0.0
C393 C 0.85055 0.00499 0.89138 0.0
C394 C 0.84613 0.91727 0.86535 0.0
C395 C 0.8636 0.91702 0.8338 0.0
C396 C 0.85239 0.97477 0.87027 0.0
C397 C 0.8738 0.94631 0.82045 0.0
C398 C 0.87447 0.02849 0.88842 0.0
C399 C 0.82554 0.03552 0.93758 0.0
N400 N 0.86855 0.974 0.83908 0.0
N401 N 0.8268 0.00928 0.91573 0.0
H402 H 0.4098 0.36564 0.41262 0.0
H403 H 0.58995 0.32663 0.37421 0.0
H404 H 0.45954 0.29489 0.47325 0.0
H405 H 0.52452 0.35058 0.29053 0.0
H406 H 0.54359 0.31544 0.41204 0.0
H407 H 0.45218 0.36176 0.36806 0.0
C408 C 0.42948 0.34898 0.41625 0.0
C409 C 0.43132 0.33061 0.44657 0.0
C410 C 0.53944 0.32248 0.38515 0.0
C411 C 0.48009 0.32657 0.39627 0.0
C412 C 0.5658 0.32891 0.36367 0.0
C413 C 0.56092 0.3395 0.32931 0.0
C414 C 0.50813 0.32758 0.3724 0.0
C415 C 0.52924 0.34224 0.31682 0.0
C416 C 0.45354 0.34669 0.39081 0.0
C417 C 0.45724 0.30935 0.45009 0.0
N418 N 0.504 0.33691 0.33858 0.0
N419 N 0.48104 0.30835 0.42553 0.0
H420 H 0.12972 0.90847 0.91012 0.0
H421 H 0.21581 0.0754 0.88297 0.0
H422 H 0.21963 0.93548 0.95976 0.0
H423 H 0.1291 0.04611 0.82821 0.0
H424 H 0.22251 0.02098 0.90337 0.0
H425 H 0.13394 0.9547 0.87237 0.0
C426 C 0.15065 0.92382 0.91269 0.0
C427 C 0.17406 0.91838 0.93862 0.0
C428 C 0.20228 0.02628 0.88644 0.0
C429 C 0.17883 0.97168 0.89571 0.0
C430 C 0.19854 0.05739 0.8745 0.0
C431 C 0.17161 0.06553 0.8541 0.0
C432 C 0.17878 0.00311 0.87824 0.0
C433 C 0.14986 0.04111 0.84449 0.0
C434 C 0.15302 0.95027 0.89112 0.0
C435 C 0.20084 0.93887 0.94039 0.0
N436 N 0.15368 0.01115 0.85702 0.0
N437 N 0.2022 0.96492 0.91967 0.0
H438 H 0.57312 0.61783 0.4109 0.0
H439 H 0.4046 0.70034 0.38687 0.0
H440 H 0.55592 0.71419 0.44895 0.0
H441 H 0.43617 0.61905 0.32401 0.0
H442 H 0.4605 0.70954 0.40562 0.0
H443 H 0.52442 0.62053 0.37506 0.0
C444 C 0.55927 0.63983 0.41107 0.0
C445 C 0.56842 0.66584 0.43269 0.0
C446 C 0.45528 0.69013 0.38711 0.0
C447 C 0.51197 0.6689 0.39265 0.0
C448 C 0.42339 0.68498 0.37624 0.0
C449 C 0.41566 0.65856 0.3543 0.0
C450 C 0.47943 0.66853 0.37617 0.0
C451 C 0.44097 0.6393 0.34153 0.0
C452 C 0.53145 0.64141 0.39065 0.0
C453 C 0.54966 0.69375 0.4323 0.0
N454 N 0.47155 0.64433 0.3531 0.0
N455 N 0.52187 0.69436 0.41309 0.0
H456 H 0.30567 0.45715 0.57636 0.0
H457 H 0.38324 0.54276 0.74657 0.0
H458 H 0.38596 0.41791 0.63338 0.0
H459 H 0.34547 0.59574 0.65965 0.0
H460 H 0.36966 0.49267 0.71496 0.0
H461 H 0.30626 0.50406 0.61651 0.0
C462 C 0.32302 0.45814 0.59771 0.0
C463 C 0.34599 0.43379 0.60146 0.0
C464 C 0.36377 0.51529 0.70318 0.0
C465 C 0.34643 0.48693 0.64747 0.0
C466 C 0.3712 0.5438 0.72128 0.0
C467 C 0.36541 0.57329 0.70559 0.0
C468 C 0.35004 0.51639 0.66944 0.0
C469 C 0.35029 0.5734 0.67253 0.0
C470 C 0.3234 0.48491 0.62043 0.0
C471 C 0.36805 0.43633 0.62942 0.0
N472 N 0.34321 0.54533 0.65542 0.0
N473 N 0.36774 0.46247 0.65138 0.0
H474 H 0.06436 0.9002 0.0945 0.0
H475 H 0.91907 0.8178 0.19255 0.0
H476 H 0.05726 0.79704 0.09225 0.0
H477 H 0.90964 0.90229 0.12981 0.0
H478 H 0.97443 0.81113 0.1703 0.0
H479 H 0.01298 0.90324 0.12505 0.0
C480 C 0.05229 0.87811 0.10082 0.0
C481 C 0.06498 0.84829 0.09017 0.0
C482 C 0.96004 0.83118 0.16186 0.0
C483 C 0.00606 0.85182 0.12547 0.0
C484 C 0.92846 0.83498 0.17434 0.0
C485 C 0.90959 0.86109 0.16376 0.0
C486 C 0.97288 0.85395 0.13927 0.0
C487 C 0.92331 0.88254 0.14007 0.0
C488 C 0.02288 0.87994 0.11818 0.0
C489 C 0.04818 0.82054 0.09959 0.0
N490 N 0.95407 0.87865 0.129 0.0
N491 N 0.01936 0.82295 0.11657 0.0
H492 H 0.63059 0.57181 0.59341 0.0
H493 H 0.71679 0.40779 0.62701 0.0
H494 H 0.72601 0.55217 0.55416 0.0
H495 H 0.63808 0.44351 0.69071 0.0
H496 H 0.72364 0.46129 0.60328 0.0
H497 H 0.63522 0.52644 0.63233 0.0
C498 C 0.65281 0.55819 0.59361 0.0
C499 C 0.67796 0.56558 0.5707 0.0
C500 C 0.70526 0.45752 0.62292 0.0
C501 C 0.68316 0.51297 0.61433 0.0
C502 C 0.70139 0.42699 0.63661 0.0
C503 C 0.67644 0.42096 0.6605 0.0
C504 C 0.68382 0.48209 0.63291 0.0
C505 C 0.6571 0.4468 0.67169 0.0
C506 C 0.65548 0.53228 0.61578 0.0
C507 C 0.70622 0.54724 0.57171 0.0
N508 N 0.66088 0.47604 0.65744 0.0
N509 N 0.70785 0.52128 0.59271 0.0
H510 H 0.95454 0.20506 0.06065 0.0
H511 H 0.03501 0.13749 0.23566 0.0
H512 H 0.91009 0.13361 0.12467 0.0
H513 H 0.08986 0.17334 0.14885 0.0
H514 H 0.98513 0.14999 0.20394 0.0
H515 H 1.00009 0.20741 0.10188 0.0
C516 C 0.95396 0.19048 0.08385 0.0
C517 C 0.92862 0.16893 0.08916 0.0
C518 C 0.0081 0.15564 0.19216 0.0
C519 C 0.98053 0.17154 0.13625 0.0
C520 C 0.0365 0.14875 0.21032 0.0
C521 C 0.0665 0.15431 0.19471 0.0
C522 C 0.00978 0.16853 0.15841 0.0
C523 C 0.06715 0.16855 0.16163 0.0
C524 C 0.98006 0.19167 0.10717 0.0
C525 C 0.92929 0.15036 0.11948 0.0
N526 N 0.0392 0.17503 0.14447 0.0
N527 N 0.95492 0.15196 0.14179 0.0
H528 H 0.16033 0.81396 0.14272 0.0
H529 H 0.28375 0.70131 0.23322 0.0
H530 H 0.248 0.78934 0.08777 0.0
H531 H 0.23783 0.77841 0.29202 0.0
H532 H 0.26808 0.72709 0.1785 0.0
H533 H 0.18394 0.79394 0.19715 0.0
C534 C 0.18457 0.80432 0.14218 0.0
C535 C 0.2023 0.80328 0.11084 0.0
C536 C 0.26179 0.73836 0.20351 0.0
C537 C 0.22912 0.77989 0.17266 0.0
C538 C 0.27087 0.72381 0.23484 0.0
C539 C 0.26169 0.73729 0.26762 0.0
C540 C 0.24285 0.76615 0.20494 0.0
C541 C 0.24458 0.76638 0.26761 0.0
C542 C 0.19804 0.7931 0.1732 0.0
C543 C 0.23367 0.79069 0.11153 0.0
N544 N 0.23522 0.77947 0.23684 0.0
N545 N 0.24598 0.77898 0.14192 0.0
H546 H 0.68427 0.73204 0.58871 0.0
H547 H 0.86936 0.76935 0.63095 0.0
H548 H 0.76406 0.67712 0.54659 0.0
H549 H 0.79195 0.81498 0.68854 0.0
H550 H 0.8303 0.7349 0.60065 0.0
H551 H 0.72223 0.76233 0.6263 0.0
C552 C 0.70967 0.72621 0.58745 0.0
C553 C 0.72094 0.70213 0.56413 0.0
C554 C 0.82172 0.75224 0.62007 0.0
C555 C 0.76444 0.73673 0.607 0.0
C556 C 0.84405 0.77197 0.63731 0.0
C557 C 0.83384 0.79518 0.66209 0.0
C558 C 0.78872 0.75588 0.62724 0.0
C559 C 0.80079 0.79731 0.66965 0.0
C560 C 0.73131 0.74348 0.60897 0.0
C561 C 0.75414 0.69557 0.56385 0.0
N562 N 0.77932 0.77814 0.65199 0.0
N563 N 0.77461 0.71286 0.58469 0.0
H564 H 0.81804 0.21904 0.10571 0.0
H565 H 0.66399 0.33007 0.09367 0.0
H566 H 0.75048 0.21207 0.01941 0.0
H567 H 0.68885 0.28763 0.1928 0.0
H568 H 0.70608 0.29822 0.06507 0.0
H569 H 0.78018 0.25498 0.13736 0.0
C570 C 0.79534 0.22516 0.09346 0.0
C571 C 0.78718 0.21247 0.06007 0.0
C572 C 0.70238 0.29616 0.09315 0.0
C573 C 0.74468 0.25389 0.09538 0.0
C574 C 0.67824 0.31417 0.10956 0.0
C575 C 0.67213 0.31109 0.14571 0.0
C576 C 0.72123 0.27543 0.11302 0.0
C577 C 0.69253 0.29095 0.16494 0.0
C578 C 0.77386 0.2455 0.11148 0.0
C579 C 0.75752 0.22107 0.04526 0.0
N580 N 0.71614 0.27376 0.14833 0.0
N581 N 0.73749 0.24148 0.06286 0.0
H582 H 0.26816 0.33264 0.62098 0.0
H583 H 0.30241 0.20263 0.7654 0.0
H584 H 0.33885 0.25767 0.60682 0.0
H585 H 0.20943 0.24769 0.75631 0.0
H586 H 0.31879 0.22684 0.71023 0.0
H587 H 0.24858 0.30607 0.67373 0.0
C588 C 0.27952 0.3106 0.6289 0.0
C589 C 0.30519 0.29734 0.60946 0.0
C590 C 0.29474 0.23131 0.72017 0.0
C591 C 0.28315 0.26717 0.6698 0.0
C592 C 0.28546 0.21764 0.75166 0.0
C593 C 0.25459 0.2233 0.76531 0.0
C594 C 0.2732 0.25129 0.70249 0.0
C595 C 0.23341 0.24272 0.74646 0.0
C596 C 0.26823 0.29541 0.65887 0.0
C597 C 0.31892 0.26868 0.62089 0.0
N598 N 0.24322 0.25635 0.7161 0.0
N599 N 0.30793 0.25473 0.65046 0.0
H600 H 0.72331 0.64993 0.39159 0.0
H601 H 0.75022 0.81125 0.28547 0.0
H602 H 0.69076 0.74257 0.42962 0.0
H603 H 0.76942 0.71654 0.24299 0.0
H604 H 0.73268 0.78745 0.34065 0.0
H605 H 0.74438 0.67485 0.33906 0.0
C606 C 0.72067 0.67555 0.389 0.0
C607 C 0.70515 0.69414 0.41515 0.0
C608 C 0.74079 0.77192 0.31925 0.0
C609 C 0.72931 0.72291 0.35476 0.0
C610 C 0.75098 0.78549 0.28785 0.0
C611 C 0.76107 0.76584 0.25948 0.0
C612 C 0.74095 0.73847 0.32238 0.0
C613 C 0.76134 0.73259 0.26394 0.0
C614 C 0.73269 0.68977 0.3589 0.0
C615 C 0.70246 0.72725 0.41016 0.0
N616 N 0.75142 0.72 0.2947 0.0
N617 N 0.7144 0.74057 0.38056 0.0
H618 H 0.77143 0.15856 0.90652 0.0
H619 H 0.80255 0.28545 0.75806 0.0
H620 H 0.84176 0.23407 0.91825 0.0
H621 H 0.71015 0.24008 0.76975 0.0
H622 H 0.82006 0.26271 0.81376 0.0
H623 H 0.75127 0.18369 0.85306 0.0
C624 C 0.78267 0.18036 0.89784 0.0
C625 C 0.80835 0.19424 0.91689 0.0
C626 C 0.79588 0.25787 0.80429 0.0
C627 C 0.78555 0.22287 0.85572 0.0
C628 C 0.78594 0.27075 0.77253 0.0
C629 C 0.75491 0.26455 0.75944 0.0
C630 C 0.77487 0.2381 0.8228 0.0
C631 C 0.73422 0.24548 0.77916 0.0
C632 C 0.77102 0.19477 0.86748 0.0
C633 C 0.82186 0.22261 0.90449 0.0
N634 N 0.74469 0.23258 0.80975 0.0
N635 N 0.81048 0.23583 0.87456 0.0
H636 H 0.3293 0.26147 0.43581 0.0
H637 H 0.14721 0.20937 0.39936 0.0
H638 H 0.24669 0.31114 0.4792 0.0
H639 H 0.22584 0.17283 0.33635 0.0
H640 H 0.1841 0.24676 0.42876 0.0
H641 H 0.2929 0.22871 0.3989 0.0
C642 C 0.3036 0.26566 0.43746 0.0
C643 C 0.29109 0.28897 0.46097 0.0
C644 C 0.19338 0.23079 0.40834 0.0
C645 C 0.24938 0.25147 0.41893 0.0
C646 C 0.17231 0.20938 0.39163 0.0
C647 C 0.18356 0.18788 0.36558 0.0
C648 C 0.22619 0.23053 0.39936 0.0
C649 C 0.21624 0.18911 0.35628 0.0
C650 C 0.28285 0.24698 0.41633 0.0
C651 C 0.25755 0.29337 0.46176 0.0
N652 N 0.23655 0.20985 0.37346 0.0
N653 N 0.23796 0.27468 0.44135 0.0
H654 H 0.20254 0.73573 0.99249 0.0
H655 H 0.32973 0.71956 0.83469 0.0
H656 H 0.23189 0.81489 0.92907 0.0
H657 H 0.32159 0.65084 0.91711 0.0
H658 H 0.28619 0.75085 0.86216 0.0
H659 H 0.23861 0.7006 0.95832 0.0
C660 C 0.21628 0.74567 0.97116 0.0
C661 C 0.21439 0.77839 0.96386 0.0
C662 C 0.29377 0.72879 0.87406 0.0
C663 C 0.2556 0.73828 0.92462 0.0
C664 C 0.31843 0.71082 0.85826 0.0
C665 C 0.32941 0.68269 0.87379 0.0
C666 C 0.27976 0.71838 0.90542 0.0
C667 C 0.31411 0.67261 0.90454 0.0
C668 C 0.23695 0.72562 0.95177 0.0
C669 C 0.23282 0.7899 0.93588 0.0
N670 N 0.29014 0.69047 0.91939 0.0
N671 N 0.25268 0.76991 0.91736 0.0
loop_
_geom_bond_atom_site_label_1
_geom_bond_atom_site_label_2
_geom_bond_distance
_geom_bond_site_symmetry_2
_ccdc_geom_bond_type
Fe0 O2 1.918 . S
Fe0 O5 1.997 . S
Fe0 O6 2.002 . S
Fe0 O11 1.976 1_554 S
Fe0 O14 1.996 1_554 S
Fe1 O2 1.918 . S
Fe1 O9 1.997 . S
Fe1 O12 1.996 1_554 S
Fe1 O16 1.976 1_554 S
Fe1 O19 2.002 . S
O2 Fe0 1.918 . S
O2 Fe1 1.918 . S
O2 Fe3 1.918 . S
Fe3 O2 1.918 . S
Fe3 O4 2.002 . S
Fe3 O13 1.976 1_554 S
Fe3 O17 1.996 1_554 S
Fe3 O20 1.997 . S
O4 Fe3 2.002 . S
O4 C21 1.295 . S
O5 Fe0 1.997 . S
O5 C21 1.235 . S
O6 Fe0 2.002 . S
O6 C7 1.295 . S
C7 O6 1.295 . S
C7 O9 1.235 . S
C8 O13 1.287 . S
C8 O14 1.255 . S
O9 Fe1 1.997 . S
O9 C7 1.235 . S
C10 O16 1.287 . S
C10 O17 1.255 . S
O11 Fe0 1.976 1_556 S
O11 C18 1.287 . S
O12 Fe1 1.996 1_556 S
O12 C18 1.255 . S
O13 Fe3 1.976 1_556 S
O13 C8 1.287 . S
O14 Fe0 1.996 1_556 S
O14 C8 1.255 . S
C15 O19 1.295 . S
C15 O20 1.235 . S
O16 Fe1 1.976 1_556 S
O16 C10 1.287 . S
O17 Fe3 1.996 1_556 S
O17 C10 1.255 . S
C18 O11 1.287 . S
C18 O12 1.255 . S
O19 Fe1 2.002 . S
O19 C15 1.295 . S
O20 Fe3 1.997 . S
O20 C15 1.235 . S
C21 O4 1.295 . S
C21 O5 1.235 . S
Fe22 O24 1.918 . S
Fe22 O27 1.997 . S
Fe22 O28 2.002 . S
Fe22 O33 1.976 . S
Fe22 O36 1.996 . S
Fe23 O24 1.918 . S
Fe23 O31 1.997 . S
Fe23 O34 1.996 . S
Fe23 O38 1.976 . S
Fe23 O41 2.002 . S
O24 Fe22 1.918 . S
O24 Fe23 1.918 . S
O24 Fe25 1.918 . S
Fe25 O24 1.918 . S
Fe25 O26 2.002 . S
Fe25 O35 1.976 . S
Fe25 O39 1.996 . S
Fe25 O42 1.997 . S
O26 Fe25 2.002 . S
O26 C43 1.295 . S
O27 Fe22 1.997 . S
O27 C43 1.235 . S
O28 Fe22 2.002 . S
O28 C29 1.295 . S
C29 O28 1.295 . S
C29 O31 1.235 . S
C30 O35 1.287 . S
C30 O36 1.255 . S
O31 Fe23 1.997 . S
O31 C29 1.235 . S
C32 O38 1.287 . S
C32 O39 1.255 . S
O33 Fe22 1.976 . S
O33 C40 1.287 . S
O34 Fe23 1.996 . S
O34 C40 1.255 . S
O35 Fe25 1.976 . S
O35 C30 1.287 . S
O36 Fe22 1.996 . S
O36 C30 1.255 . S
C37 O41 1.295 . S
C37 O42 1.235 . S
O38 Fe23 1.976 . S
O38 C32 1.287 . S
O39 Fe25 1.996 . S
O39 C32 1.255 . S
C40 O33 1.287 . S
C40 O34 1.255 . S
O41 Fe23 2.002 . S
O41 C37 1.295 . S
O42 Fe25 1.997 . S
O42 C37 1.235 . S
C43 O26 1.295 . S
C43 O27 1.235 . S
Fe44 O46 1.918 . S
Fe44 O49 1.997 1_554 S
Fe44 O50 2.002 1_554 S
Fe44 O55 1.976 . S
Fe44 O58 1.996 . S
Fe45 O46 1.918 . S
Fe45 O53 1.997 1_554 S
Fe45 O56 1.996 . S
Fe45 O60 1.976 . S
Fe45 O63 2.002 1_554 S
O46 Fe44 1.918 . S
O46 Fe45 1.918 . S
O46 Fe47 1.918 1_554 S
Fe47 O46 1.918 1_556 S
Fe47 O48 2.002 . S
Fe47 O57 1.976 1_556 S
Fe47 O61 1.996 1_556 S
Fe47 O64 1.997 . S
O48 Fe47 2.002 . S
O48 C65 1.295 . S
O49 Fe44 1.997 1_556 S
O49 C65 1.235 . S
O50 Fe44 2.002 1_556 S
O50 C51 1.295 . S
C51 O50 1.295 . S
C51 O53 1.235 . S
C52 O57 1.287 . S
C52 O58 1.255 . S
O53 Fe45 1.997 1_556 S
O53 C51 1.235 . S
C54 O60 1.287 . S
C54 O61 1.255 . S
O55 Fe44 1.976 . S
O55 C62 1.287 . S
O56 Fe45 1.996 . S
O56 C62 1.255 . S
O57 Fe47 1.976 1_554 S
O57 C52 1.287 . S
O58 Fe44 1.996 . S
O58 C52 1.255 . S
C59 O63 1.295 . S
C59 O64 1.235 . S
O60 Fe45 1.976 . S
O60 C54 1.287 . S
O61 Fe47 1.996 1_554 S
O61 C54 1.255 . S
C62 O55 1.287 . S
C62 O56 1.255 . S
O63 Fe45 2.002 1_556 S
O63 C59 1.295 . S
O64 Fe47 1.997 . S
O64 C59 1.235 . S
C65 O48 1.295 . S
C65 O49 1.235 . S
Fe66 O68 1.918 . S
Fe66 O71 1.997 . S
Fe66 O72 2.002 . S
Fe66 O77 1.976 . S
Fe66 O80 1.996 . S
Fe67 O68 1.918 . S
Fe67 O75 1.997 . S
Fe67 O78 1.996 . S
Fe67 O82 1.976 . S
Fe67 O85 2.002 . S
O68 Fe66 1.918 . S
O68 Fe67 1.918 . S
O68 Fe69 1.918 . S
Fe69 O68 1.918 . S
Fe69 O70 2.002 . S
Fe69 O79 1.976 . S
Fe69 O83 1.996 . S
Fe69 O86 1.997 . S
O70 Fe69 2.002 . S
O70 C87 1.295 . S
O71 Fe66 1.997 . S
O71 C87 1.235 . S
O72 Fe66 2.002 . S
O72 C73 1.295 . S
C73 O72 1.295 . S
C73 O75 1.235 . S
C74 O79 1.287 . S
C74 O80 1.255 . S
O75 Fe67 1.997 . S
O75 C73 1.235 . S
C76 O82 1.287 . S
C76 O83 1.255 . S
O77 Fe66 1.976 . S
O77 C84 1.287 . S
O78 Fe67 1.996 . S
O78 C84 1.255 . S
O79 Fe69 1.976 . S
O79 C74 1.287 . S
O80 Fe66 1.996 . S
O80 C74 1.255 . S
C81 O85 1.295 . S
C81 O86 1.235 . S
O82 Fe67 1.976 . S
O82 C76 1.287 . S
O83 Fe69 1.996 . S
O83 C76 1.255 . S
C84 O77 1.287 . S
C84 O78 1.255 . S
O85 Fe67 2.002 . S
O85 C81 1.295 . S
O86 Fe69 1.997 . S
O86 C81 1.235 . S
C87 O70 1.295 . S
C87 O71 1.235 . S
H88 C89 0.949 . S
C89 H88 0.949 . S
C89 C90 1.395 . S
C89 C91 1.391 . S
C90 C89 1.395 . S
C90 C93 1.390 . S
C91 C89 1.391 . S
C91 C95 1.387 . S
C91 C96 1.491 . S
H92 C93 0.950 . S
C93 C90 1.390 . S
C93 H92 0.950 . S
C93 C94 1.378 . S
C94 C93 1.378 . S
C94 C95 1.409 . S
C95 C91 1.387 . S
C95 C94 1.409 . S
C95 H97 0.951 . S
C96 C91 1.491 . S
C96 C98 1.382 . S
C96 C100 1.404 . S
H97 C95 0.951 . S
C98 C96 1.382 . S
C98 C99 1.390 . S
C98 H103 0.949 . S
C99 C98 1.390 . S
C99 C104 1.399 . S
C100 C96 1.404 . S
C100 H101 0.950 . S
C100 C102 1.375 . S
H101 C100 0.950 . S
C102 C100 1.375 . S
C102 C104 1.382 . S
C102 H106 0.950 . S
H103 C98 0.949 . S
C104 C99 1.399 . S
C104 C102 1.382 . S
C104 H105 0.952 . S
H105 C104 0.952 . S
H106 C102 0.950 . S
H107 C108 0.949 . S
C108 H107 0.949 . S
C108 C109 1.395 . S
C108 C110 1.391 . S
C109 C108 1.395 . S
C109 C112 1.390 . S
C110 C108 1.391 . S
C110 C114 1.387 . S
C110 C115 1.491 . S
H111 C112 0.950 . S
C112 C109 1.390 . S
C112 H111 0.950 . S
C112 C113 1.378 . S
C113 C112 1.378 . S
C113 C114 1.409 . S
C114 C110 1.387 . S
C114 C113 1.409 . S
C114 H116 0.951 . S
C115 C110 1.491 . S
C115 C117 1.382 . S
C115 C119 1.404 . S
H116 C114 0.951 . S
C117 C115 1.382 . S
C117 C118 1.390 . S
C117 H122 0.949 . S
C118 C117 1.390 . S
C118 C123 1.399 . S
C119 C115 1.404 . S
C119 H120 0.950 . S
C119 C121 1.375 . S
H120 C119 0.950 . S
C121 C119 1.375 . S
C121 C123 1.382 . S
C121 H125 0.950 . S
H122 C117 0.949 . S
C123 C118 1.399 . S
C123 C121 1.382 . S
C123 H124 0.952 . S
H124 C123 0.952 . S
H125 C121 0.950 . S
H126 C127 0.949 . S
C127 H126 0.949 . S
C127 C128 1.395 . S
C127 C129 1.391 . S
C128 C127 1.395 . S
C128 C131 1.390 . S
C129 C127 1.391 . S
C129 C133 1.387 . S
C129 C134 1.491 . S
H130 C131 0.950 . S
C131 C128 1.390 . S
C131 H130 0.950 . S
C131 C132 1.378 . S
C132 C131 1.378 . S
C132 C133 1.409 . S
C133 C129 1.387 . S
C133 C132 1.409 . S
C133 H135 0.951 . S
C134 C129 1.491 . S
C134 C136 1.382 . S
C134 C138 1.404 . S
H135 C133 0.951 . S
C136 C134 1.382 . S
C136 C137 1.390 . S
C136 H141 0.949 . S
C137 C136 1.390 . S
C137 C142 1.399 . S
C138 C134 1.404 . S
C138 H139 0.950 . S
C138 C140 1.375 . S
H139 C138 0.950 . S
C140 C138 1.375 . S
C140 C142 1.382 . S
C140 H144 0.950 . S
H141 C136 0.949 . S
C142 C137 1.399 . S
C142 C140 1.382 . S
C142 H143 0.952 . S
H143 C142 0.952 . S
H144 C140 0.950 . S
H145 C146 0.949 . S
C146 H145 0.949 . S
C146 C147 1.395 . S
C146 C148 1.391 . S
C147 C146 1.395 . S
C147 C150 1.390 . S
C148 C146 1.391 . S
C148 C152 1.387 . S
C148 C153 1.491 . S
H149 C150 0.950 . S
C150 C147 1.390 . S
C150 H149 0.950 . S
C150 C151 1.378 . S
C151 C150 1.378 . S
C151 C152 1.409 . S
C152 C148 1.387 . S
C152 C151 1.409 . S
C152 H154 0.951 . S
C153 C148 1.491 . S
C153 C155 1.382 . S
C153 C157 1.404 . S
H154 C152 0.951 . S
C155 C153 1.382 . S
C155 C156 1.390 . S
C155 H160 0.949 . S
C156 C155 1.390 . S
C156 C161 1.399 . S
C157 C153 1.404 . S
C157 H158 0.950 . S
C157 C159 1.375 . S
H158 C157 0.950 . S
C159 C157 1.375 . S
C159 C161 1.382 . S
C159 H163 0.950 . S
H160 C155 0.949 . S
C161 C156 1.399 . S
C161 C159 1.382 . S
C161 H162 0.952 . S
H162 C161 0.952 . S
H163 C159 0.950 . S
H164 C165 0.949 . S
C165 H164 0.949 . S
C165 C166 1.395 . S
C165 C167 1.391 . S
C166 C165 1.395 . S
C166 C169 1.390 . S
C167 C165 1.391 . S
C167 C171 1.387 . S
C167 C172 1.491 . S
H168 C169 0.950 . S
C169 C166 1.390 . S
C169 H168 0.950 . S
C169 C170 1.378 . S
C170 C169 1.378 . S
C170 C171 1.409 . S
C171 C167 1.387 . S
C171 C170 1.409 . S
C171 H173 0.951 . S
C172 C167 1.491 . S
C172 C174 1.382 . S
C172 C176 1.404 . S
H173 C171 0.951 . S
C174 C172 1.382 . S
C174 C175 1.390 . S
C174 H179 0.949 . S
C175 C174 1.390 . S
C175 C180 1.399 . S
C176 C172 1.404 . S
C176 H177 0.950 . S
C176 C178 1.375 . S
H177 C176 0.950 . S
C178 C176 1.375 . S
C178 C180 1.382 . S
C178 H182 0.950 . S
H179 C174 0.949 . S
C180 C175 1.399 . S
C180 C178 1.382 . S
C180 H181 0.952 . S
H181 C180 0.952 . S
H182 C178 0.950 . S
H183 C184 0.949 . S
C184 H183 0.949 . S
C184 C185 1.395 . S
C184 C186 1.391 . S
C185 C184 1.395 . S
C185 C188 1.390 . S
C186 C184 1.391 . S
C186 C190 1.387 . S
C186 C191 1.491 . S
H187 C188 0.950 . S
C188 C185 1.390 . S
C188 H187 0.950 . S
C188 C189 1.378 . S
C189 C188 1.378 . S
C189 C190 1.409 . S
C190 C186 1.387 . S
C190 C189 1.409 . S
C190 H192 0.951 . S
C191 C186 1.491 . S
C191 C193 1.382 . S
C191 C195 1.404 . S
H192 C190 0.951 . S
C193 C191 1.382 . S
C193 C194 1.390 . S
C193 H198 0.949 . S
C194 C193 1.390 . S
C194 C199 1.399 . S
C195 C191 1.404 . S
C195 H196 0.950 . S
C195 C197 1.375 . S
H196 C195 0.950 . S
C197 C195 1.375 . S
C197 C199 1.382 . S
C197 H201 0.950 . S
H198 C193 0.949 . S
C199 C194 1.399 . S
C199 C197 1.382 . S
C199 H200 0.952 . S
H200 C199 0.952 . S
H201 C197 0.950 . S
H202 C203 0.949 . S
C203 H202 0.949 . S
C203 C204 1.395 . S
C203 C205 1.391 . S
C204 C203 1.395 . S
C204 C207 1.390 . S
C205 C203 1.391 . S
C205 C209 1.387 . S
C205 C210 1.491 . S
H206 C207 0.950 . S
C207 C204 1.390 . S
C207 H206 0.950 . S
C207 C208 1.378 . S
C208 C207 1.378 . S
C208 C209 1.409 . S
C209 C205 1.387 . S
C209 C208 1.409 . S
C209 H211 0.951 . S
C210 C205 1.491 . S
C210 C212 1.382 . S
C210 C214 1.404 . S
H211 C209 0.951 . S
C212 C210 1.382 . S
C212 C213 1.390 . S
C212 H217 0.949 . S
C213 C212 1.390 . S
C213 C218 1.399 . S
C214 C210 1.404 . S
C214 H215 0.950 . S
C214 C216 1.375 . S
H215 C214 0.950 . S
C216 C214 1.375 . S
C216 C218 1.382 . S
C216 H220 0.950 . S
H217 C212 0.949 . S
C218 C213 1.399 . S
C218 C216 1.382 . S
C218 H219 0.952 . S
H219 C218 0.952 . S
H220 C216 0.950 . S
H221 C222 0.949 . S
C222 H221 0.949 . S
C222 C223 1.395 . S
C222 C224 1.391 . S
C223 C222 1.395 . S
C223 C226 1.390 . S
C224 C222 1.391 . S
C224 C228 1.387 . S
C224 C229 1.491 . S
H225 C226 0.950 . S
C226 C223 1.390 . S
C226 H225 0.950 . S
C226 C227 1.378 . S
C227 C226 1.378 . S
C227 C228 1.409 . S
C228 C224 1.387 . S
C228 C227 1.409 . S
C228 H230 0.951 . S
C229 C224 1.491 . S
C229 C231 1.382 . S
C229 C233 1.404 . S
H230 C228 0.951 . S
C231 C229 1.382 . S
C231 C232 1.390 . S
C231 H236 0.949 . S
C232 C231 1.390 . S
C232 C237 1.399 . S
C233 C229 1.404 . S
C233 H234 0.950 . S
C233 C235 1.375 . S
H234 C233 0.950 . S
C235 C233 1.375 . S
C235 C237 1.382 . S
C235 H239 0.950 . S
H236 C231 0.949 . S
C237 C232 1.399 . S
C237 C235 1.382 . S
C237 H238 0.952 . S
H238 C237 0.952 . S
H239 C235 0.950 . S
H240 C246 0.930 . S
H241 C250 0.930 . S
H242 C255 0.929 . S
H243 C253 0.929 . S
H244 C248 0.929 . S
H245 C254 0.929 . S
C246 H240 0.930 . S
C246 C247 1.367 . S
C246 C254 1.378 . S
C247 C246 1.367 . S
C247 C255 1.433 . S
C248 H244 0.929 . S
C248 C250 1.378 . S
C248 C252 1.350 . S
C249 C252 1.463 . S
C249 C254 1.350 1_545 S
C249 N257 1.427 . S
C250 H241 0.930 . S
C250 C248 1.378 . S
C250 C251 1.367 . S
C251 C250 1.367 . S
C251 C253 1.433 . S
C252 C248 1.350 . S
C252 C249 1.463 . S
C252 N256 1.427 . S
C253 H243 0.929 . S
C253 C251 1.433 . S
C253 N256 1.384 . S
C254 H245 0.929 . S
C254 C246 1.378 . S
C254 C249 1.350 1_565 S
C255 H242 0.929 . S
C255 C247 1.433 . S
C255 N257 1.384 1_565 S
N256 C252 1.427 . S
N256 C253 1.384 . S
N257 C249 1.427 . S
N257 C255 1.384 1_545 S
H258 C264 0.930 . S
H259 C268 0.930 . S
H260 C273 0.929 . S
H261 C271 0.929 . S
H262 C266 0.929 . S
H263 C272 0.929 . S
C264 H258 0.930 . S
C264 C265 1.367 . S
C264 C272 1.378 . S
C265 C264 1.367 . S
C265 C273 1.433 . S
C266 H262 0.929 . S
C266 C268 1.378 . S
C266 C270 1.350 . S
C267 C270 1.463 . S
C267 C272 1.350 . S
C267 N275 1.427 . S
C268 H259 0.930 . S
C268 C266 1.378 . S
C268 C269 1.367 . S
C269 C268 1.367 . S
C269 C271 1.433 . S
C270 C266 1.350 . S
C270 C267 1.463 . S
C270 N274 1.427 . S
C271 H261 0.929 . S
C271 C269 1.433 . S
C271 N274 1.384 . S
C272 H263 0.929 . S
C272 C264 1.378 . S
C272 C267 1.350 . S
C273 H260 0.929 . S
C273 C265 1.433 . S
C273 N275 1.384 . S
N274 C270 1.427 . S
N274 C271 1.384 . S
N275 C267 1.427 . S
N275 C273 1.384 . S
H276 C282 0.930 . S
H277 C286 0.930 . S
H278 C291 0.929 . S
H279 C289 0.929 . S
H280 C284 0.929 . S
H281 C290 0.929 . S
C282 H276 0.930 . S
C282 C283 1.367 . S
C282 C290 1.378 1_545 S
C283 C282 1.367 . S
C283 C291 1.433 . S
C284 H280 0.929 . S
C284 C286 1.378 . S
C284 C288 1.350 . S
C285 C288 1.463 . S
C285 C290 1.350 . S
C285 N293 1.427 1_565 S
C286 H277 0.930 . S
C286 C284 1.378 . S
C286 C287 1.367 . S
C287 C286 1.367 . S
C287 C289 1.433 . S
C288 C284 1.350 . S
C288 C285 1.463 . S
C288 N292 1.427 . S
C289 H279 0.929 . S
C289 C287 1.433 . S
C289 N292 1.384 . S
C290 H281 0.929 . S
C290 C282 1.378 1_565 S
C290 C285 1.350 . S
C291 H278 0.929 . S
C291 C283 1.433 . S
C291 N293 1.384 . S
N292 C288 1.427 . S
N292 C289 1.384 . S
N293 C285 1.427 1_545 S
N293 C291 1.384 . S
H294 C300 0.930 . S
H295 C304 0.930 . S
H296 C309 0.929 . S
H297 C307 0.929 . S
H298 C302 0.929 . S
H299 C308 0.929 . S
C300 H294 0.930 . S
C300 C301 1.367 . S
C300 C308 1.378 . S
C301 C300 1.367 . S
C301 C309 1.433 . S
C302 H298 0.929 . S
C302 C304 1.378 . S
C302 C306 1.350 . S
C303 C306 1.463 . S
C303 C308 1.350 . S
C303 N311 1.427 . S
C304 H295 0.930 . S
C304 C302 1.378 . S
C304 C305 1.367 . S
C305 C304 1.367 . S
C305 C307 1.433 . S
C306 C302 1.350 . S
C306 C303 1.463 . S
C306 N310 1.427 . S
C307 H297 0.929 . S
C307 C305 1.433 . S
C307 N310 1.384 . S
C308 H299 0.929 . S
C308 C300 1.378 . S
C308 C303 1.350 . S
C309 H296 0.929 . S
C309 C301 1.433 . S
C309 N311 1.384 . S
N310 C306 1.427 . S
N310 C307 1.384 . S
N311 C303 1.427 . S
N311 C309 1.384 . S
H312 C318 0.930 . S
H313 C322 0.930 . S
H314 C327 0.929 . S
H315 C325 0.929 . S
H316 C320 0.929 . S
H317 C326 0.929 . S
C318 H312 0.930 . S
C318 C319 1.367 . S
C318 C326 1.378 . S
C319 C318 1.367 . S
C319 C327 1.433 . S
C320 H316 0.929 . S
C320 C322 1.378 . S
C320 C324 1.350 . S
C321 C324 1.463 . S
C321 C326 1.350 . S
C321 N329 1.427 . S
C322 H313 0.930 . S
C322 C320 1.378 . S
C322 C323 1.367 . S
C323 C322 1.367 . S
C323 C325 1.433 . S
C324 C320 1.350 . S
C324 C321 1.463 . S
C324 N328 1.427 . S
C325 H315 0.929 . S
C325 C323 1.433 . S
C325 N328 1.384 . S
C326 H317 0.929 . S
C326 C318 1.378 . S
C326 C321 1.350 . S
C327 H314 0.929 . S
C327 C319 1.433 . S
C327 N329 1.384 . S
N328 C324 1.427 . S
N328 C325 1.384 . S
N329 C321 1.427 . S
N329 C327 1.384 . S
H330 C336 0.930 . S
H331 C340 0.930 . S
H332 C345 0.929 . S
H333 C343 0.929 . S
H334 C338 0.929 . S
H335 C344 0.930 . S
C336 H330 0.930 . S
C336 C337 1.367 . S
C336 C344 1.378 . S
C337 C336 1.367 . S
C337 C345 1.433 . S
C338 H334 0.929 . S
C338 C340 1.378 . S
C338 C342 1.350 . S
C339 C342 1.463 . S
C339 C344 1.350 1_455 S
C339 N347 1.427 . S
C340 H331 0.930 . S
C340 C338 1.378 . S
C340 C341 1.367 . S
C341 C340 1.367 . S
C341 C343 1.433 . S
C342 C338 1.350 . S
C342 C339 1.463 . S
C342 N346 1.427 . S
C343 H333 0.929 . S
C343 C341 1.433 . S
C343 N346 1.384 . S
C344 H335 0.930 . S
C344 C336 1.378 . S
C344 C339 1.350 1_655 S
C345 H332 0.929 . S
C345 C337 1.433 . S
C345 N347 1.384 1_655 S
N346 C342 1.427 . S
N346 C343 1.384 . S
N347 C339 1.427 . S
N347 C345 1.384 1_455 S
H348 C354 0.930 . S
H349 C358 0.930 . S
H350 C363 0.929 . S
H351 C361 0.929 . S
H352 C356 0.929 . S
H353 C362 0.929 . S
C354 H348 0.930 . S
C354 C355 1.367 . S
C354 C362 1.378 . S
C355 C354 1.367 . S
C355 C363 1.433 . S
C356 H352 0.929 . S
C356 C358 1.378 . S
C356 C360 1.350 . S
C357 C360 1.463 . S
C357 C362 1.350 . S
C357 N365 1.427 . S
C358 H349 0.930 . S
C358 C356 1.378 . S
C358 C359 1.367 . S
C359 C358 1.367 . S
C359 C361 1.433 . S
C360 C356 1.350 . S
C360 C357 1.463 . S
C360 N364 1.427 . S
C361 H351 0.929 . S
C361 C359 1.433 . S
C361 N364 1.384 . S
C362 H353 0.929 . S
C362 C354 1.378 . S
C362 C357 1.350 . S
C363 H350 0.929 . S
C363 C355 1.433 . S
C363 N365 1.384 . S
N364 C360 1.427 . S
N364 C361 1.384 . S
N365 C357 1.427 . S
N365 C363 1.384 . S
H366 C372 0.930 . S
H367 C376 0.930 . S
H368 C381 0.929 . S
H369 C379 0.929 . S
H370 C374 0.929 . S
H371 C380 0.929 1_655 S
C372 H366 0.930 . S
C372 C373 1.367 . S
C372 C380 1.378 . S
C373 C372 1.367 . S
C373 C381 1.433 . S
C374 H370 0.929 . S
C374 C376 1.378 . S
C374 C378 1.350 . S
C375 C378 1.463 . S
C375 C380 1.350 1_655 S
C375 N383 1.427 1_655 S
C376 H367 0.930 . S
C376 C374 1.378 . S
C376 C377 1.367 . S
C377 C376 1.367 . S
C377 C379 1.433 . S
C378 C374 1.350 . S
C378 C375 1.463 . S
C378 N382 1.427 . S
C379 H369 0.929 . S
C379 C377 1.433 . S
C379 N382 1.384 . S
C380 H371 0.929 1_455 S
C380 C372 1.378 . S
C380 C375 1.350 1_455 S
C381 H368 0.929 . S
C381 C373 1.433 . S
C381 N383 1.384 . S
N382 C378 1.427 . S
N382 C379 1.384 . S
N383 C375 1.427 1_455 S
N383 C381 1.384 . S
H384 C390 0.930 . S
H385 C394 0.930 . S
H386 C399 0.929 . S
H387 C397 0.929 . S
H388 C392 0.929 . S
H389 C398 0.929 1_565 S
C390 H384 0.930 . S
C390 C391 1.367 . S
C390 C398 1.378 . S
C391 C390 1.367 . S
C391 C399 1.433 . S
C392 H388 0.929 . S
C392 C394 1.378 . S
C392 C396 1.350 . S
C393 C396 1.463 . S
C393 C398 1.350 1_565 S
C393 N401 1.427 . S
C394 H385 0.930 . S
C394 C392 1.378 . S
C394 C395 1.367 . S
C395 C394 1.367 . S
C395 C397 1.433 . S
C396 C392 1.350 . S
C396 C393 1.463 . S
C396 N400 1.427 . S
C397 H387 0.929 . S
C397 C395 1.433 . S
C397 N400 1.384 . S
C398 H389 0.929 1_545 S
C398 C390 1.378 . S
C398 C393 1.350 1_545 S
C399 H386 0.929 . S
C399 C391 1.433 . S
C399 N401 1.384 1_545 S
N400 C396 1.427 . S
N400 C397 1.384 . S
N401 C393 1.427 . S
N401 C399 1.384 1_565 S
H402 C408 0.930 . S
H403 C412 0.930 . S
H404 C417 0.929 . S
H405 C415 0.929 . S
H406 C410 0.929 . S
H407 C416 0.929 . S
C408 H402 0.930 . S
C408 C409 1.367 . S
C408 C416 1.378 . S
C409 C408 1.367 . S
C409 C417 1.433 . S
C410 H406 0.929 . S
C410 C412 1.378 . S
C410 C414 1.350 . S
C411 C414 1.463 . S
C411 C416 1.350 . S
C411 N419 1.427 . S
C412 H403 0.930 . S
C412 C410 1.378 . S
C412 C413 1.367 . S
C413 C412 1.367 . S
C413 C415 1.433 . S
C414 C410 1.350 . S
C414 C411 1.463 . S
C414 N418 1.427 . S
C415 H405 0.929 . S
C415 C413 1.433 . S
C415 N418 1.384 . S
C416 H407 0.929 . S
C416 C408 1.378 . S
C416 C411 1.350 . S
C417 H404 0.929 . S
C417 C409 1.433 . S
C417 N419 1.384 . S
N418 C414 1.427 . S
N418 C415 1.384 . S
N419 C411 1.427 . S
N419 C417 1.384 . S
H420 C426 0.930 . S
H421 C430 0.930 . S
H422 C435 0.929 . S
H423 C433 0.929 . S
H424 C428 0.929 . S
H425 C434 0.929 . S
C426 H420 0.930 . S
C426 C427 1.367 . S
C426 C434 1.378 . S
C427 C426 1.367 . S
C427 C435 1.433 . S
C428 H424 0.929 . S
C428 C430 1.378 . S
C428 C432 1.350 . S
C429 C432 1.463 . S
C429 C434 1.350 1_545 S
C429 N437 1.427 . S
C430 H421 0.930 . S
C430 C428 1.378 . S
C430 C431 1.367 . S
C431 C430 1.367 . S
C431 C433 1.433 . S
C432 C428 1.350 . S
C432 C429 1.463 . S
C432 N436 1.427 . S
C433 H423 0.929 . S
C433 C431 1.433 . S
C433 N436 1.384 . S
C434 H425 0.929 . S
C434 C426 1.378 . S
C434 C429 1.350 1_565 S
C435 H422 0.929 . S
C435 C427 1.433 . S
C435 N437 1.384 1_565 S
N436 C432 1.427 . S
N436 C433 1.384 . S
N437 C429 1.427 . S
N437 C435 1.384 1_545 S
H438 C444 0.930 . S
H439 C448 0.930 . S
H440 C453 0.929 . S
H441 C451 0.929 . S
H442 C446 0.929 . S
H443 C452 0.929 . S
C444 H438 0.930 . S
C444 C445 1.367 . S
C444 C452 1.378 . S
C445 C444 1.367 . S
C445 C453 1.433 . S
C446 H442 0.929 . S
C446 C448 1.378 . S
C446 C450 1.350 . S
C447 C450 1.463 . S
C447 C452 1.350 . S
C447 N455 1.427 . S
C448 H439 0.930 . S
C448 C446 1.378 . S
C448 C449 1.367 . S
C449 C448 1.367 . S
C449 C451 1.433 . S
C450 C446 1.350 . S
C450 C447 1.463 . S
C450 N454 1.427 . S
C451 H441 0.929 . S
C451 C449 1.433 . S
C451 N454 1.384 . S
C452 H443 0.929 . S
C452 C444 1.378 . S
C452 C447 1.350 . S
C453 H440 0.929 . S
C453 C445 1.433 . S
C453 N455 1.384 . S
N454 C450 1.427 . S
N454 C451 1.384 . S
N455 C447 1.427 . S
N455 C453 1.384 . S
H456 C462 0.930 . S
H457 C466 0.930 . S
H458 C471 0.929 . S
H459 C469 0.929 . S
H460 C464 0.929 . S
H461 C470 0.929 . S
C462 H456 0.930 . S
C462 C463 1.367 . S
C462 C470 1.378 . S
C463 C462 1.367 . S
C463 C471 1.433 . S
C464 H460 0.929 . S
C464 C466 1.378 . S
C464 C468 1.350 . S
C465 C468 1.463 . S
C465 C470 1.350 . S
C465 N473 1.427 . S
C466 H457 0.930 . S
C466 C464 1.378 . S
C466 C467 1.367 . S
C467 C466 1.367 . S
C467 C469 1.433 . S
C468 C464 1.350 . S
C468 C465 1.463 . S
C468 N472 1.427 . S
C469 H459 0.929 . S
C469 C467 1.433 . S
C469 N472 1.384 . S
C470 H461 0.929 . S
C470 C462 1.378 . S
C470 C465 1.350 . S
C471 H458 0.929 . S
C471 C463 1.433 . S
C471 N473 1.384 . S
N472 C468 1.427 . S
N472 C469 1.384 . S
N473 C465 1.427 . S
N473 C471 1.384 . S
H474 C480 0.930 . S
H475 C484 0.930 . S
H476 C489 0.929 . S
H477 C487 0.929 . S
H478 C482 0.929 . S
H479 C488 0.929 . S
C480 H474 0.930 . S
C480 C481 1.367 . S
C480 C488 1.378 1_455 S
C481 C480 1.367 . S
C481 C489 1.433 . S
C482 H478 0.929 . S
C482 C484 1.378 . S
C482 C486 1.350 . S
C483 C486 1.463 . S
C483 C488 1.350 . S
C483 N491 1.427 1_655 S
C484 H475 0.930 . S
C484 C482 1.378 . S
C484 C485 1.367 . S
C485 C484 1.367 . S
C485 C487 1.433 . S
C486 C482 1.350 . S
C486 C483 1.463 . S
C486 N490 1.427 . S
C487 H477 0.929 . S
C487 C485 1.433 . S
C487 N490 1.384 . S
C488 H479 0.929 . S
C488 C480 1.378 1_655 S
C488 C483 1.350 . S
C489 H476 0.929 . S
C489 C481 1.433 . S
C489 N491 1.384 . S
N490 C486 1.427 . S
N490 C487 1.384 . S
N491 C483 1.427 1_455 S
N491 C489 1.384 . S
H492 C498 0.930 . S
H493 C502 0.930 . S
H494 C507 0.929 . S
H495 C505 0.929 . S
H496 C500 0.929 . S
H497 C506 0.929 . S
C498 H492 0.930 . S
C498 C499 1.367 . S
C498 C506 1.378 . S
C499 C498 1.367 . S
C499 C507 1.433 . S
C500 H496 0.929 . S
C500 C502 1.378 . S
C500 C504 1.350 . S
C501 C504 1.463 . S
C501 C506 1.350 . S
C501 N509 1.427 . S
C502 H493 0.930 . S
C502 C500 1.378 . S
C502 C503 1.367 . S
C503 C502 1.367 . S
C503 C505 1.433 . S
C504 C500 1.350 . S
C504 C501 1.463 . S
C504 N508 1.427 . S
C505 H495 0.929 . S
C505 C503 1.433 . S
C505 N508 1.384 . S
C506 H497 0.929 . S
C506 C498 1.378 . S
C506 C501 1.350 . S
C507 H494 0.929 . S
C507 C499 1.433 . S
C507 N509 1.384 . S
N508 C504 1.427 . S
N508 C505 1.384 . S
N509 C501 1.427 . S
N509 C507 1.384 . S
H510 C516 0.930 . S
H511 C520 0.930 . S
H512 C525 0.929 . S
H513 C523 0.929 . S
H514 C518 0.929 . S
H515 C524 0.929 . S
C516 H510 0.930 . S
C516 C517 1.367 . S
C516 C524 1.378 . S
C517 C516 1.367 . S
C517 C525 1.433 . S
C518 H514 0.929 . S
C518 C520 1.378 . S
C518 C522 1.350 . S
C519 C522 1.463 . S
C519 C524 1.350 1_455 S
C519 N527 1.427 1_455 S
C520 H511 0.930 . S
C520 C518 1.378 . S
C520 C521 1.367 . S
C521 C520 1.367 . S
C521 C523 1.433 . S
C522 C518 1.350 . S
C522 C519 1.463 . S
C522 N526 1.427 . S
C523 H513 0.929 . S
C523 C521 1.433 . S
C523 N526 1.384 . S
C524 H515 0.929 . S
C524 C516 1.378 . S
C524 C519 1.350 1_655 S
C525 H512 0.929 . S
C525 C517 1.433 . S
C525 N527 1.384 . S
N526 C522 1.427 . S
N526 C523 1.384 . S
N527 C519 1.427 1_655 S
N527 C525 1.384 . S
H528 C534 0.930 . S
H529 C538 0.930 . S
H530 C543 0.929 . S
H531 C541 0.929 . S
H532 C536 0.929 . S
H533 C542 0.929 . S
C534 H528 0.930 . S
C534 C535 1.367 . S
C534 C542 1.378 . S
C535 C534 1.367 . S
C535 C543 1.433 . S
C536 H532 0.929 . S
C536 C538 1.378 . S
C536 C540 1.350 . S
C537 C540 1.463 . S
C537 C542 1.350 . S
C537 N545 1.427 . S
C538 H529 0.930 . S
C538 C536 1.378 . S
C538 C539 1.367 . S
C539 C538 1.367 . S
C539 C541 1.433 . S
C540 C536 1.350 . S
C540 C537 1.463 . S
C540 N544 1.427 . S
C541 H531 0.929 . S
C541 C539 1.433 . S
C541 N544 1.384 . S
C542 H533 0.929 . S
C542 C534 1.378 . S
C542 C537 1.350 . S
C543 H530 0.929 . S
C543 C535 1.433 . S
C543 N545 1.384 . S
N544 C540 1.427 . S
N544 C541 1.384 . S
N545 C537 1.427 . S
N545 C543 1.384 . S
H546 C552 0.930 . S
H547 C556 0.930 . S
H548 C561 0.929 . S
H549 C559 0.929 . S
H550 C554 0.929 . S
H551 C560 0.929 . S
C552 H546 0.930 . S
C552 C553 1.367 . S
C552 C560 1.378 . S
C553 C552 1.367 . S
C553 C561 1.433 . S
C554 H550 0.929 . S
C554 C556 1.378 . S
C554 C558 1.350 . S
C555 C558 1.463 . S
C555 C560 1.350 . S
C555 N563 1.427 . S
C556 H547 0.930 . S
C556 C554 1.378 . S
C556 C557 1.367 . S
C557 C556 1.367 . S
C557 C559 1.433 . S
C558 C554 1.350 . S
C558 C555 1.463 . S
C558 N562 1.427 . S
C559 H549 0.929 . S
C559 C557 1.433 . S
C559 N562 1.384 . S
C560 H551 0.929 . S
C560 C552 1.378 . S
C560 C555 1.350 . S
C561 H548 0.929 . S
C561 C553 1.433 . S
C561 N563 1.384 . S
N562 C558 1.427 . S
N562 C559 1.384 . S
N563 C555 1.427 . S
N563 C561 1.384 . S
H564 C570 0.930 . S
H565 C574 0.930 . S
H566 C579 0.929 . S
H567 C577 0.929 . S
H568 C572 0.929 . S
H569 C578 0.929 . S
C570 H564 0.930 . S
C570 C571 1.367 . S
C570 C578 1.378 . S
C571 C570 1.367 . S
C571 C579 1.433 . S
C572 H568 0.929 . S
C572 C574 1.378 . S
C572 C576 1.350 . S
C573 C576 1.463 . S
C573 C578 1.350 . S
C573 N581 1.427 . S
C574 H565 0.930 . S
C574 C572 1.378 . S
C574 C575 1.367 . S
C575 C574 1.367 . S
C575 C577 1.433 . S
C576 C572 1.350 . S
C576 C573 1.463 . S
C576 N580 1.427 . S
C577 H567 0.929 . S
C577 C575 1.433 . S
C577 N580 1.384 . S
C578 H569 0.929 . S
C578 C570 1.378 . S
C578 C573 1.350 . S
C579 H566 0.929 . S
C579 C571 1.433 . S
C579 N581 1.384 . S
N580 C576 1.427 . S
N580 C577 1.384 . S
N581 C573 1.427 . S
N581 C579 1.384 . S
H582 C588 0.930 . S
H583 C592 0.930 . S
H584 C597 0.929 . S
H585 C595 0.929 . S
H586 C590 0.929 . S
H587 C596 0.929 . S
C588 H582 0.930 . S
C588 C589 1.367 . S
C588 C596 1.378 . S
C589 C588 1.367 . S
C589 C597 1.433 . S
C590 H586 0.929 . S
C590 C592 1.378 . S
C590 C594 1.350 . S
C591 C594 1.463 . S
C591 C596 1.350 . S
C591 N599 1.427 . S
C592 H583 0.930 . S
C592 C590 1.378 . S
C592 C593 1.367 . S
C593 C592 1.367 . S
C593 C595 1.433 . S
C594 C590 1.350 . S
C594 C591 1.463 . S
C594 N598 1.427 . S
C595 H585 0.929 . S
C595 C593 1.433 . S
C595 N598 1.384 . S
C596 H587 0.929 . S
C596 C588 1.378 . S
C596 C591 1.350 . S
C597 H584 0.929 . S
C597 C589 1.433 . S
C597 N599 1.384 . S
N598 C594 1.427 . S
N598 C595 1.384 . S
N599 C591 1.427 . S
N599 C597 1.384 . S
H600 C606 0.930 . S
H601 C610 0.930 . S
H602 C615 0.929 . S
H603 C613 0.929 . S
H604 C608 0.929 . S
H605 C614 0.929 . S
C606 H600 0.930 . S
C606 C607 1.367 . S
C606 C614 1.378 . S
C607 C606 1.367 . S
C607 C615 1.433 . S
C608 H604 0.929 . S
C608 C610 1.378 . S
C608 C612 1.350 . S
C609 C612 1.463 . S
C609 C614 1.350 . S
C609 N617 1.427 . S
C610 H601 0.930 . S
C610 C608 1.378 . S
C610 C611 1.367 . S
C611 C610 1.367 . S
C611 C613 1.433 . S
C612 C608 1.350 . S
C612 C609 1.463 . S
C612 N616 1.427 . S
C613 H603 0.929 . S
C613 C611 1.433 . S
C613 N616 1.384 . S
C614 H605 0.929 . S
C614 C606 1.378 . S
C614 C609 1.350 . S
C615 H602 0.929 . S
C615 C607 1.433 . S
C615 N617 1.384 . S
N616 C612 1.427 . S
N616 C613 1.384 . S
N617 C609 1.427 . S
N617 C615 1.384 . S
H618 C624 0.930 . S
H619 C628 0.930 . S
H620 C633 0.929 . S
H621 C631 0.929 . S
H622 C626 0.929 . S
H623 C632 0.929 . S
C624 H618 0.930 . S
C624 C625 1.367 . S
C624 C632 1.378 . S
C625 C624 1.367 . S
C625 C633 1.433 . S
C626 H622 0.929 . S
C626 C628 1.378 . S
C626 C630 1.350 . S
C627 C630 1.463 . S
C627 C632 1.350 . S
C627 N635 1.427 . S
C628 H619 0.930 . S
C628 C626 1.378 . S
C628 C629 1.367 . S
C629 C628 1.367 . S
C629 C631 1.433 . S
C630 C626 1.350 . S
C630 C627 1.463 . S
C630 N634 1.427 . S
C631 H621 0.929 . S
C631 C629 1.433 . S
C631 N634 1.384 . S
C632 H623 0.929 . S
C632 C624 1.378 . S
C632 C627 1.350 . S
C633 H620 0.929 . S
C633 C625 1.433 . S
C633 N635 1.384 . S
N634 C630 1.427 . S
N634 C631 1.384 . S
N635 C627 1.427 . S
N635 C633 1.384 . S
H636 C642 0.930 . S
H637 C646 0.930 . S
H638 C651 0.929 . S
H639 C649 0.929 . S
H640 C644 0.929 . S
H641 C650 0.929 . S
C642 H636 0.930 . S
C642 C643 1.367 . S
C642 C650 1.378 . S
C643 C642 1.367 . S
C643 C651 1.433 . S
C644 H640 0.929 . S
C644 C646 1.378 . S
C644 C648 1.350 . S
C645 C648 1.463 . S
C645 C650 1.350 . S
C645 N653 1.427 . S
C646 H637 0.930 . S
C646 C644 1.378 . S
C646 C647 1.367 . S
C647 C646 1.367 . S
C647 C649 1.433 . S
C648 C644 1.350 . S
C648 C645 1.463 . S
C648 N652 1.427 . S
C649 H639 0.929 . S
C649 C647 1.433 . S
C649 N652 1.384 . S
C650 H641 0.929 . S
C650 C642 1.378 . S
C650 C645 1.350 . S
C651 H638 0.929 . S
C651 C643 1.433 . S
C651 N653 1.384 . S
N652 C648 1.427 . S
N652 C649 1.384 . S
N653 C645 1.427 . S
N653 C651 1.384 . S
H654 C660 0.930 . S
H655 C664 0.930 . S
H656 C669 0.929 . S
H657 C667 0.929 . S
H658 C662 0.929 . S
H659 C668 0.929 . S
C660 H654 0.930 . S
C660 C661 1.367 . S
C660 C668 1.378 . S
C661 C660 1.367 . S
C661 C669 1.433 . S
C662 H658 0.929 . S
C662 C664 1.378 . S
C662 C666 1.350 . S
C663 C666 1.463 . S
C663 C668 1.350 . S
C663 N671 1.427 . S
C664 H655 0.930 . S
C664 C662 1.378 . S
C664 C665 1.367 . S
C665 C664 1.367 . S
C665 C667 1.433 . S
C666 C662 1.350 . S
C666 C663 1.463 . S
C666 N670 1.427 . S
C667 H657 0.929 . S
C667 C665 1.433 . S
C667 N670 1.384 . S
C668 H659 0.929 . S
C668 C660 1.378 . S
C668 C663 1.350 . S
C669 H656 0.929 . S
C669 C661 1.433 . S
C669 N671 1.384 . S
N670 C666 1.427 . S
N670 C667 1.384 . S
N671 C663 1.427 . S
N671 C669 1.384 . S
C247 C7 1.473 . S
C251 C90 1.385 . S
C265 C37 1.495 . S
C269 C109 1.395 . S
C283 C54 1.207 . S
C287 C132 1.191 . S
C305 C151 1.228 . S
C301 C87 1.230 . S
C323 C166 1.351 . S
C319 C30 1.441 . S
C337 C51 1.245 . S
C341 C189 1.235 . S
C355 C84 1.254 . S
C359 C208 1.219 . S
C373 C10 1.462 . S
C377 C223 1.364 . S
C391 C59 1.302 . S
C395 C227 1.298 . S
C413 C170 1.158 . S
C409 C74 1.170 . S
C431 C185 1.325 . S
C427 C18 1.429 . S
C445 C32 1.531 . S
C449 C204 1.434 . S
C467 C113 1.282 . S
C463 C73 1.291 . S
C481 C15 1.527 . S
C485 C128 1.467 . S
C503 C147 1.382 . S
C499 C43 1.466 . S
C521 C94 1.129 . S
C517 C62 1.160 . S
C539 C213 1.370 . S
C535 C21 1.454 . S
C557 C232 1.360 . S
C553 C29 1.456 . S
C571 C52 1.338 . S
C575 C175 1.246 . S
C593 C194 1.268 . S
C589 C81 1.373 . S
C611 C137 1.339 . S
C607 C40 1.425 . S
C625 C65 1.389 . S
C629 C156 1.291 . S
C647 C99 1.241 . S
C643 C76 1.332 . S
C665 C118 1.378 . S
C661 C8 1.475 . S
