# Generated by pormake.
# Topology ptr, (4,4)-cn, num edge types: 1
# Building blocks:
#     Node 0, Type 0, BuildingBlock: QUQFOY_clean_sbu_1, # of connection points: 4
#     Node 1, Type 0, BuildingBlock: QUQFOY_clean_sbu_1, # of connection points: 4
#     Node 2, Type 0, BuildingBlock: QUQFOY_clean_sbu_1, # of connection points: 4
#     Node 3, Type 0, BuildingBlock: QUQFOY_clean_sbu_1, # of connection points: 4
#     Node 4, Type 0, BuildingBlock: QUQFOY_clean_sbu_1, # of connection points: 4
#     Node 5, Type 0, BuildingBlock: QUQFOY_clean_sbu_1, # of connection points: 4
#     Node 6, Type 0, BuildingBlock: QUQFOY_clean_sbu_1, # of connection points: 4
#     Node 7, Type 0, BuildingBlock: QUQFOY_clean_sbu_1, # of connection points: 4
#     Node 8, Type 0, BuildingBlock: QUQFOY_clean_sbu_1, # of connection points: 4
#     Node 9, Type 0, BuildingBlock: QUQFOY_clean_sbu_1, # of connection points: 4
#     Node 10, Type 0, BuildingBlock: QUQFOY_clean_sbu_1, # of connection points: 4
#     Node 11, Type 0, BuildingBlock: QUQFOY_clean_sbu_1, # of connection points: 4
#     Node 12, Type 0, BuildingBlock: QUQFOY_clean_sbu_1, # of connection points: 4
#     Node 13, Type 0, BuildingBlock: QUQFOY_clean_sbu_1, # of connection points: 4
#     Node 14, Type 0, BuildingBlock: QUQFOY_clean_sbu_1, # of connection points: 4
#     Node 15, Type 0, BuildingBlock: QUQFOY_clean_sbu_1, # of connection points: 4
#     Node 16, Type 0, BuildingBlock: QUQFOY_clean_sbu_1, # of connection points: 4
#     Node 17, Type 0, BuildingBlock: QUQFOY_clean_sbu_1, # of connection points: 4
#     Node 18, Type 1, BuildingBlock: MIFKUJ_clean_linker_1, # of connection points: 4
#     Node 19, Type 1, BuildingBlock: MIFKUJ_clean_linker_1, # of connection points: 4
#     Node 20, Type 1, BuildingBlock: MIFKUJ_clean_linker_1, # of connection points: 4
#     Node 21, Type 1, BuildingBlock: MIFKUJ_clean_linker_1, # of connection points: 4
#     Node 22, Type 1, BuildingBlock: MIFKUJ_clean_linker_1, # of connection points: 4
#     Node 23, Type 1, BuildingBlock: MIFKUJ_clean_linker_1, # of connection points: 4
#     Node 24, Type 1, BuildingBlock: MIFKUJ_clean_linker_1, # of connection points: 4
#     Node 25, Type 1, BuildingBlock: MIFKUJ_clean_linker_1, # of connection points: 4
#     Node 26, Type 1, BuildingBlock: MIFKUJ_clean_linker_1, # of connection points: 4
#     Node 27, Type 1, BuildingBlock: MIFKUJ_clean_linker_1, # of connection points: 4
#     Node 28, Type 1, BuildingBlock: MIFKUJ_clean_linker_1, # of connection points: 4
#     Node 29, Type 1, BuildingBlock: MIFKUJ_clean_linker_1, # of connection points: 4
#     Node 30, Type 1, BuildingBlock: MIFKUJ_clean_linker_1, # of connection points: 4
#     Node 31, Type 1, BuildingBlock: MIFKUJ_clean_linker_1, # of connection points: 4
#     Node 32, Type 1, BuildingBlock: MIFKUJ_clean_linker_1, # of connection points: 4
#     Node 33, Type 1, BuildingBlock: MIFKUJ_clean_linker_1, # of connection points: 4
#     Node 34, Type 1, BuildingBlock: MIFKUJ_clean_linker_1, # of connection points: 4
#     Node 35, Type 1, BuildingBlock: MIFKUJ_clean_linker_1, # of connection points: 4
#     Edge 36, Type (0, 1), BuildingBlock: KIFKEQ_clean_linker_1, # of connection points: 2
#     Edge 37, Type (0, 1), BuildingBlock: KIFKEQ_clean_linker_1, # of connection points: 2
#     Edge 38, Type (0, 1), BuildingBlock: KIFKEQ_clean_linker_1, # of connection points: 2
#     Edge 39, Type (0, 1), BuildingBlock: KIFKEQ_clean_linker_1, # of connection points: 2
#     Edge 40, Type (0, 1), BuildingBlock: KIFKEQ_clean_linker_1, # of connection points: 2
#     Edge 41, Type (0, 1), BuildingBlock: KIFKEQ_clean_linker_1, # of connection points: 2
#     Edge 42, Type (0, 1), BuildingBlock: KIFKEQ_clean_linker_1, # of connection points: 2
#     Edge 43, Type (0, 1), BuildingBlock: KIFKEQ_clean_linker_1, # of connection points: 2
#     Edge 44, Type (0, 1), BuildingBlock: KIFKEQ_clean_linker_1, # of connection points: 2
#     Edge 45, Type (0, 1), BuildingBlock: KIFKEQ_clean_linker_1, # of connection points: 2
#     Edge 46, Type (0, 1), BuildingBlock: KIFKEQ_clean_linker_1, # of connection points: 2
#     Edge 47, Type (0, 1), BuildingBlock: KIFKEQ_clean_linker_1, # of connection points: 2
#     Edge 48, Type (0, 1), BuildingBlock: KIFKEQ_clean_linker_1, # of connection points: 2
#     Edge 49, Type (0, 1), BuildingBlock: KIFKEQ_clean_linker_1, # of connection points: 2
#     Edge 50, Type (0, 1), BuildingBlock: KIFKEQ_clean_linker_1, # of connection points: 2
#     Edge 51, Type (0, 1), BuildingBlock: KIFKEQ_clean_linker_1, # of connection points: 2
#     Edge 52, Type (0, 1), BuildingBlock: KIFKEQ_clean_linker_1, # of connection points: 2
#     Edge 53, Type (0, 1), BuildingBlock: KIFKEQ_clean_linker_1, # of connection points: 2
#     Edge 54, Type (0, 1), BuildingBlock: KIFKEQ_clean_linker_1, # of connection points: 2
#     Edge 55, Type (0, 1), BuildingBlock: KIFKEQ_clean_linker_1, # of connection points: 2
#     Edge 56, Type (0, 1), BuildingBlock: KIFKEQ_clean_linker_1, # of connection points: 2
#     Edge 57, Type (0, 1), BuildingBlock: KIFKEQ_clean_linker_1, # of connection points: 2
#     Edge 58, Type (0, 1), BuildingBlock: KIFKEQ_clean_linker_1, # of connection points: 2
#     Edge 59, Type (0, 1), BuildingBlock: KIFKEQ_clean_linker_1, # of connection points: 2
#     Edge 60, Type (0, 1), BuildingBlock: KIFKEQ_clean_linker_1, # of connection points: 2
#     Edge 61, Type (0, 1), BuildingBlock: KIFKEQ_clean_linker_1, # of connection points: 2
#     Edge 62, Type (0, 1), BuildingBlock: KIFKEQ_clean_linker_1, # of connection points: 2
#     Edge 63, Type (0, 1), BuildingBlock: KIFKEQ_clean_linker_1, # of connection points: 2
#     Edge 64, Type (0, 1), BuildingBlock: KIFKEQ_clean_linker_1, # of connection points: 2
#     Edge 65, Type (0, 1), BuildingBlock: KIFKEQ_clean_linker_1, # of connection points: 2
#     Edge 66, Type (0, 1), BuildingBlock: KIFKEQ_clean_linker_1, # of connection points: 2
#     Edge 67, Type (0, 1), BuildingBlock: KIFKEQ_clean_linker_1, # of connection points: 2
#     Edge 68, Type (0, 1), BuildingBlock: KIFKEQ_clean_linker_1, # of connection points: 2
#     Edge 69, Type (0, 1), BuildingBlock: KIFKEQ_clean_linker_1, # of connection points: 2
#     Edge 70, Type (0, 1), BuildingBlock: KIFKEQ_clean_linker_1, # of connection points: 2
#     Edge 71, Type (0, 1), BuildingBlock: KIFKEQ_clean_linker_1, # of connection points: 2
#     Edge 72, Type (0, 1), BuildingBlock: KIFKEQ_clean_linker_1, # of connection points: 2
#     Edge 73, Type (0, 1), BuildingBlock: KIFKEQ_clean_linker_1, # of connection points: 2
#     Edge 74, Type (0, 1), BuildingBlock: KIFKEQ_clean_linker_1, # of connection points: 2
#     Edge 75, Type (0, 1), BuildingBlock: KIFKEQ_clean_linker_1, # of connection points: 2
#     Edge 76, Type (0, 1), BuildingBlock: KIFKEQ_clean_linker_1, # of connection points: 2
#     Edge 77, Type (0, 1), BuildingBlock: KIFKEQ_clean_linker_1, # of connection points: 2
#     Edge 78, Type (0, 1), BuildingBlock: KIFKEQ_clean_linker_1, # of connection points: 2
#     Edge 79, Type (0, 1), BuildingBlock: KIFKEQ_clean_linker_1, # of connection points: 2
#     Edge 80, Type (0, 1), BuildingBlock: KIFKEQ_clean_linker_1, # of connection points: 2
#     Edge 81, Type (0, 1), BuildingBlock: KIFKEQ_clean_linker_1, # of connection points: 2
#     Edge 82, Type (0, 1), BuildingBlock: KIFKEQ_clean_linker_1, # of connection points: 2
#     Edge 83, Type (0, 1), BuildingBlock: KIFKEQ_clean_linker_1, # of connection points: 2
#     Edge 84, Type (0, 1), BuildingBlock: KIFKEQ_clean_linker_1, # of connection points: 2
#     Edge 85, Type (0, 1), BuildingBlock: KIFKEQ_clean_linker_1, # of connection points: 2
#     Edge 86, Type (0, 1), BuildingBlock: KIFKEQ_clean_linker_1, # of connection points: 2
#     Edge 87, Type (0, 1), BuildingBlock: KIFKEQ_clean_linker_1, # of connection points: 2
#     Edge 88, Type (0, 1), BuildingBlock: KIFKEQ_clean_linker_1, # of connection points: 2
#     Edge 89, Type (0, 1), BuildingBlock: KIFKEQ_clean_linker_1, # of connection points: 2
#     Edge 90, Type (0, 1), BuildingBlock: KIFKEQ_clean_linker_1, # of connection points: 2
#     Edge 91, Type (0, 1), BuildingBlock: KIFKEQ_clean_linker_1, # of connection points: 2
#     Edge 92, Type (0, 1), BuildingBlock: KIFKEQ_clean_linker_1, # of connection points: 2
#     Edge 93, Type (0, 1), BuildingBlock: KIFKEQ_clean_linker_1, # of connection points: 2
#     Edge 94, Type (0, 1), BuildingBlock: KIFKEQ_clean_linker_1, # of connection points: 2
#     Edge 95, Type (0, 1), BuildingBlock: KIFKEQ_clean_linker_1, # of connection points: 2
#     Edge 96, Type (0, 1), BuildingBlock: KIFKEQ_clean_linker_1, # of connection points: 2
#     Edge 97, Type (0, 1), BuildingBlock: KIFKEQ_clean_linker_1, # of connection points: 2
#     Edge 98, Type (0, 1), BuildingBlock: KIFKEQ_clean_linker_1, # of connection points: 2
#     Edge 99, Type (0, 1), BuildingBlock: KIFKEQ_clean_linker_1, # of connection points: 2
#     Edge 100, Type (0, 1), BuildingBlock: KIFKEQ_clean_linker_1, # of connection points: 2
#     Edge 101, Type (0, 1), BuildingBlock: KIFKEQ_clean_linker_1, # of connection points: 2
#     Edge 102, Type (0, 1), BuildingBlock: KIFKEQ_clean_linker_1, # of connection points: 2
#     Edge 103, Type (0, 1), BuildingBlock: KIFKEQ_clean_linker_1, # of connection points: 2
#     Edge 104, Type (0, 1), BuildingBlock: KIFKEQ_clean_linker_1, # of connection points: 2
#     Edge 105, Type (0, 1), BuildingBlock: KIFKEQ_clean_linker_1, # of connection points: 2
#     Edge 106, Type (0, 1), BuildingBlock: KIFKEQ_clean_linker_1, # of connection points: 2
#     Edge 107, Type (0, 1), BuildingBlock: KIFKEQ_clean_linker_1, # of connection points: 2
# Relax obj value: 0.012
# Max RMSD: 0.044
# Mean RMSD: 0.040
data_MOF--net-ptr--node1-QUQFOY_clean_sbu_1--node2-MIFKUJ_clean_linker_1--edge1-KIFKEQ_clean_linker_1
_symmetry_space_group_name_H-M    P1
_symmetry_Int_Tables_number       1
_symmetry_cell_setting            triclinic
loop_
_symmetry_equiv_pos_as_xyz
'x, y, z'
_cell_length_a     92.992271
_cell_length_b     92.965296
_cell_length_c     63.726896
_cell_angle_alpha  90.057199
_cell_angle_beta   89.920237
_cell_angle_gamma 119.9468
loop_
_atom_site_label
_atom_site_type_symbol
_atom_site_fract_x
_atom_site_fract_y
_atom_site_fract_z
_atom_type_partial_charge
O0 O 0.01467 0.38087 0.05116 0.0
Cd1 Cd 0.0215 0.37158 0.026 0.0
Cd2 Cd 0.98797 0.35585 0.01875 0.0
O3 O 0.98746 0.36615 0.04748 0.0
O4 O 0.04445 0.37631 0.03252 0.0
O5 O 0.02289 0.35086 0.03089 0.0
C6 C 0.03852 0.36054 0.03452 0.0
C7 C 0.96905 0.32818 0.01026 0.0
C8 C 1.00016 0.37676 0.05759 0.0
C9 C 0.01058 0.38091 0.98662 0.0
O10 O 0.99587 0.37152 0.9932 0.0
O11 O 0.02288 0.38215 0.99686 0.0
O12 O 0.96458 0.33924 0.01146 0.0
O13 O 0.98422 0.33264 0.01499 0.0
O14 O 0.62724 0.63343 0.04965 0.0
Cd15 Cd 0.63499 0.64993 0.02493 0.0
Cd16 Cd 0.65157 0.63304 0.01475 0.0
O17 O 0.64214 0.62143 0.04328 0.0
O18 O 0.62863 0.66661 0.03357 0.0
O19 O 0.65472 0.67281 0.02955 0.0
C20 C 0.6442 0.67744 0.03473 0.0
C21 C 0.67903 0.64147 1.00543 0.0
C22 C 0.63185 0.62312 0.05471 0.0
C23 C 0.62535 0.63086 0.98456 0.0
O24 O 0.63545 0.626 0.98966 0.0
O25 O 0.6237 0.6411 0.9961 0.0
O26 O 0.66767 0.62605 1.0057 0.0
O27 O 0.67496 0.65227 0.0113 0.0
O28 O 0.3823 0.014 0.9925 0.0
Cd29 Cd 0.37423 0.02119 0.0185 0.0
Cd30 Cd 0.35866 0.98759 0.02592 0.0
O31 O 0.36833 0.98683 0.9969 0.0
O32 O 0.38042 0.04453 0.01187 0.0
O33 O 0.35439 0.02431 0.01468 0.0
C34 C 0.36483 0.03967 0.01047 0.0
C35 C 0.33083 0.96959 0.03438 0.0
C36 C 0.37824 0.99949 0.98619 0.0
C37 C 0.38424 0.01007 0.0574 0.0
O38 O 0.37461 0.99532 0.05114 0.0
O39 O 0.38544 0.02236 0.04712 0.0
O40 O 0.34133 0.96441 0.03287 0.0
O41 O 0.33601 0.98502 0.03022 0.0
O42 O 0.99834 0.62729 0.98919 0.0
Cd43 Cd 0.99 0.63496 0.0145 0.0
Cd44 Cd 0.02351 0.65189 0.02316 0.0
O45 O 0.02532 0.64263 0.9943 0.0
O46 O 0.96676 0.6281 0.00646 0.0
O47 O 0.98609 0.65434 0.01085 0.0
C48 C 0.97103 0.64358 1.00573 0.0
C49 C 0.04176 0.67954 0.03231 0.0
C50 C 0.01315 0.63209 0.98341 0.0
C51 C 1.00076 0.62564 0.05406 0.0
O52 O 0.01552 0.63576 0.04825 0.0
O53 O 0.98849 0.62386 0.04324 0.0
O54 O 0.04665 0.66881 0.03087 0.0
O55 O 0.0265 0.67473 0.02767 0.0
O56 O 0.38273 0.37398 0.99159 0.0
Cd57 Cd 0.37517 0.35752 0.01638 0.0
Cd58 Cd 0.35867 0.37457 0.02677 0.0
O59 O 0.36793 0.38606 0.99811 0.0
O60 O 0.38116 0.34057 0.00761 0.0
O61 O 0.35522 0.33472 0.01215 0.0
C62 C 0.36553 0.32987 0.00679 0.0
C63 C 0.33139 0.36639 0.03684 0.0
C64 C 0.37814 0.38431 0.9866 0.0
C65 C 0.38519 0.37681 0.05658 0.0
O66 O 0.37506 0.38164 0.05157 0.0
O67 O 0.38675 0.36649 0.04506 0.0
O68 O 0.34281 0.38179 0.03628 0.0
O69 O 0.33525 0.35549 0.03072 0.0
O70 O 0.62907 0.99388 0.05148 0.0
Cd71 Cd 0.63843 0.98755 0.02586 0.0
Cd72 Cd 0.655 0.0208 0.02103 0.0
O73 O 0.64547 0.02104 0.0503 0.0
O74 O 0.63271 0.96421 0.03152 0.0
O75 O 0.65855 0.9851 0.0305 0.0
C76 C 0.64835 0.9695 0.03373 0.0
C77 C 0.68294 0.03821 0.01254 0.0
C78 C 0.63405 0.00819 0.0593 0.0
C79 C 0.6297 1.00044 0.98808 0.0
O80 O 0.63893 0.01468 0.9961 0.0
O81 O 0.62859 0.98757 0.99665 0.0
O82 O 0.67297 0.04393 0.01508 0.0
O83 O 0.6772 0.02255 0.01576 0.0
O84 O 0.68223 0.71453 0.38257 0.0
Cd85 Cd 0.68912 0.70542 0.3573 0.0
Cd86 Cd 0.65587 0.69002 0.34947 0.0
O87 O 0.65507 0.69989 0.37837 0.0
O88 O 0.71197 0.70991 0.36394 0.0
O89 O 0.69029 0.68456 0.36187 0.0
C90 C 0.70591 0.69411 0.36568 0.0
C91 C 0.63757 0.66224 0.3409 0.0
C92 C 0.66765 0.71035 0.38879 0.0
C93 C 0.67868 0.7153 0.3179 0.0
O94 O 0.66387 0.70595 0.32416 0.0
O95 O 0.6908 0.71629 0.32832 0.0
O96 O 0.63261 0.67292 0.34234 0.0
O97 O 0.65292 0.66718 0.34525 0.0
O98 O 0.29311 0.96746 0.38365 0.0
Cd99 Cd 0.30128 0.98375 0.3587 0.0
Cd100 Cd 0.31764 0.9667 0.3494 0.0
O101 O 0.30834 0.95568 0.37826 0.0
O102 O 0.29519 1.00075 0.36672 0.0
O103 O 0.32119 0.00649 0.36336 0.0
C104 C 0.3108 0.01138 0.36817 0.0
C105 C 0.34528 0.97592 0.34032 0.0
C106 C 0.29785 0.95737 0.38927 0.0
C107 C 0.29164 0.96405 0.31874 0.0
O108 O 0.30145 0.95896 0.32435 0.0
O109 O 0.29025 0.97471 0.32977 0.0
O110 O 0.33446 0.96034 0.34148 0.0
O111 O 0.34055 0.98643 0.3451 0.0
O112 O 0.04933 0.34742 0.32866 0.0
Cd113 Cd 0.03991 0.35473 0.35303 0.0
Cd114 Cd 0.02404 0.32127 0.36093 0.0
O115 O 0.03377 0.32027 0.33193 0.0
O116 O 0.0464 0.37799 0.34558 0.0
O117 O 0.02027 0.35784 0.34729 0.0
C118 C 0.03089 0.37318 0.34325 0.0
C119 C 0.99644 0.30248 0.36961 0.0
C120 C 0.04482 0.33287 0.32209 0.0
C121 C 0.04916 0.34433 0.39272 0.0
O122 O 0.03993 0.3295 0.38641 0.0
O123 O 0.05024 0.35645 0.38222 0.0
O124 O 0.0074 0.29791 0.36818 0.0
O125 O 1.00098 0.31773 0.3652 0.0
O126 O 0.66472 0.959 0.32444 0.0
Cd127 Cd 0.65621 0.96674 0.34948 0.0
Cd128 Cd 0.6897 0.98408 0.3584 0.0
O129 O 0.69165 0.97488 0.32956 0.0
O130 O 0.63282 0.95965 0.34183 0.0
O131 O 0.65226 0.986 0.34486 0.0
C132 C 0.6371 0.97511 0.34035 0.0
C133 C 0.70741 0.01191 0.36737 0.0
C134 C 0.6796 0.96411 0.31869 0.0
C135 C 0.66713 0.95783 0.38932 0.0
O136 O 0.68188 0.96797 0.38353 0.0
O137 O 0.65486 0.95601 0.37845 0.0
O138 O 0.71268 1.00148 0.3661 0.0
O139 O 0.69206 0.00669 0.36271 0.0
O140 O 0.04771 0.70971 0.32341 0.0
Cd141 Cd 0.04003 0.69375 0.34888 0.0
Cd142 Cd 0.02285 0.71004 0.35591 0.0
O143 O 0.03075 0.71972 0.32627 0.0
O144 O 0.04816 0.67833 0.34069 0.0
O145 O 0.02154 0.67003 0.34481 0.0
C146 C 0.03292 0.66662 0.33947 0.0
C147 C 0.99507 0.69834 0.36599 0.0
C148 C 0.04204 0.71867 0.31633 0.0
C149 C 0.04954 0.71548 0.3869 0.0
O150 O 0.04008 0.7205 0.37965 0.0
O151 O 0.05037 0.70364 0.378 0.0
O152 O 1.00435 0.71413 0.36332 0.0
O153 O 1.00145 0.68901 0.36229 0.0
O154 O 0.29617 0.32717 0.38317 0.0
Cd155 Cd 0.30379 0.31948 0.35726 0.0
Cd156 Cd 0.31954 0.35308 0.34866 0.0
O157 O 0.30985 0.35421 0.37757 0.0
O158 O 0.29809 0.29636 0.36446 0.0
O159 O 0.32392 0.31681 0.36058 0.0
C160 C 0.31376 0.30147 0.36528 0.0
C161 C 0.34713 0.37182 0.33987 0.0
C162 C 0.30019 0.34181 0.38884 0.0
C163 C 0.29361 0.32985 0.31788 0.0
O164 O 0.30364 0.34471 0.32336 0.0
O165 O 0.29205 0.31775 0.32892 0.0
O166 O 0.33617 0.3764 0.3412 0.0
O167 O 0.34258 0.35659 0.34443 0.0
O168 O 0.34727 0.04843 0.71944 0.0
Cd169 Cd 0.35658 0.04158 0.69434 0.0
Cd170 Cd 0.32295 0.02428 0.68426 0.0
O171 O 0.32045 0.03308 0.71316 0.0
O172 O 0.37979 0.04908 0.70333 0.0
O173 O 0.36131 0.02271 0.69786 0.0
C174 C 0.37607 0.03375 0.70368 0.0
C175 C 0.30472 0.99675 0.67438 0.0
C176 C 0.33231 0.04343 0.72464 0.0
C177 C 0.34645 0.0513 0.65448 0.0
O178 O 0.33159 0.04087 0.65959 0.0
O179 O 0.3585 0.05312 0.66581 0.0
O180 O 0.29994 0.00755 0.6757 0.0
O181 O 0.31988 1.00141 0.67944 0.0
O182 O 0.96426 0.29882 0.72005 0.0
Cd183 Cd 0.97006 0.31415 0.69429 0.0
Cd184 Cd 0.98608 0.29651 0.68384 0.0
O185 O 0.97766 0.28542 0.71284 0.0
O186 O 0.96185 0.32914 0.70402 0.0
O187 O 0.98827 0.33815 0.697 0.0
C188 C 0.97696 0.34118 0.70381 0.0
C189 C 0.01378 0.3074 0.674 0.0
C190 C 0.96849 0.28823 0.72499 0.0
C191 C 0.95894 0.29335 0.65488 0.0
O192 O 0.96922 0.28861 0.65956 0.0
O193 O 0.95768 0.30391 0.6663 0.0
O194 O 1.00378 0.29161 0.67513 0.0
O195 O 0.00817 0.31715 0.67911 0.0
O196 O 0.71654 0.67968 0.66137 0.0
Cd197 Cd 0.7071 0.68662 0.6861 0.0
Cd198 Cd 0.69079 0.65323 0.69301 0.0
O199 O 0.70052 0.65253 0.66387 0.0
O200 O 0.71323 0.70989 0.67924 0.0
O201 O 0.68723 0.68939 0.68065 0.0
C202 C 0.69766 0.70483 0.67687 0.0
C203 C 0.6629 0.63524 0.70118 0.0
C204 C 0.71176 0.66519 0.65432 0.0
C205 C 0.71587 0.67534 0.7254 0.0
O206 O 0.70649 0.66067 0.71868 0.0
O207 O 0.71725 0.68774 0.71527 0.0
O208 O 0.67335 0.63002 0.69965 0.0
O209 O 0.66814 0.65071 0.69716 0.0
O210 O 0.33073 0.29342 0.65824 0.0
Cd211 Cd 0.32182 0.3006 0.68341 0.0
Cd212 Cd 0.35548 0.31692 0.69307 0.0
O213 O 0.35766 0.30778 0.66427 0.0
O214 O 0.29859 0.29303 0.67446 0.0
O215 O 0.31707 0.31944 0.67958 0.0
C216 C 0.30231 0.30835 0.6738 0.0
C217 C 0.37342 0.34459 0.70242 0.0
C218 C 0.34552 0.29779 0.65289 0.0
C219 C 0.33174 0.29051 0.72319 0.0
O220 O 0.34667 0.30054 0.71792 0.0
O221 O 0.31978 0.28907 0.71199 0.0
O222 O 0.37843 0.33394 0.70148 0.0
O223 O 0.35822 0.33967 0.69727 0.0
O224 O 0.71584 0.0412 0.65843 0.0
Cd225 Cd 0.70916 0.02509 0.68347 0.0
Cd226 Cd 0.69188 0.04118 0.69364 0.0
O227 O 0.70039 0.05256 0.66478 0.0
O228 O 0.71682 0.00965 0.67369 0.0
O229 O 0.69044 1.00143 0.67988 0.0
C230 C 0.70153 0.99798 0.67334 0.0
C231 C 0.66401 0.02999 0.70295 0.0
C232 C 0.71073 0.05107 0.65323 0.0
C233 C 0.7189 0.04498 0.7234 0.0
O234 O 0.70845 0.0494 0.71835 0.0
O235 O 0.72072 0.03472 0.71203 0.0
O236 O 0.67389 0.0458 0.7019 0.0
O237 O 0.66983 0.02037 0.69809 0.0
O238 O 0.9593 0.65725 0.71426 0.0
Cd239 Cd 0.96922 0.65096 0.68925 0.0
Cd240 Cd 0.98578 0.68436 0.68507 0.0
O241 O 0.97636 0.68431 0.71455 0.0
O242 O 0.96374 0.62775 0.69534 0.0
O243 O 0.98947 0.64887 0.69464 0.0
C244 C 0.97938 0.63326 0.69794 0.0
C245 C 0.01304 0.70368 0.67563 0.0
C246 C 0.96445 0.67137 0.72277 0.0
C247 C 0.9605 0.66357 0.65175 0.0
O248 O 0.96943 0.67766 0.66028 0.0
O249 O 0.95963 0.65067 0.65983 0.0
O250 O 1.00187 0.70788 0.67795 0.0
O251 O 0.00903 0.68854 0.67989 0.0
H252 H 0.15608 0.34992 0.19311 0.0
H253 H 0.13561 0.34963 0.21717 0.0
H254 H 0.09903 0.30136 0.19369 0.0
H255 H 0.11963 0.30218 0.16878 0.0
H256 H 0.16485 0.32434 0.19393 0.0
H257 H 0.14166 0.34892 0.15026 0.0
H258 H 0.12039 0.35112 0.13046 0.0
H259 H 0.11512 0.31201 0.08912 0.0
H260 H 0.13582 0.30912 0.10972 0.0
H261 H 0.18228 0.30853 0.11375 0.0
H262 H 0.20727 0.31334 0.09491 0.0
H263 H 0.23576 0.3597 0.12831 0.0
H264 H 0.21093 0.35436 0.14759 0.0
H265 H 0.16724 0.32902 0.11639 0.0
H266 H 0.19396 0.30746 0.16087 0.0
H267 H 0.21453 0.30618 0.1837 0.0
H268 H 0.21425 0.34328 0.22412 0.0
H269 H 0.19442 0.34521 0.20089 0.0
C270 C 0.13937 0.32606 0.17924 0.0
C271 C 0.14359 0.33936 0.19298 0.0
C272 C 0.13188 0.33907 0.20689 0.0
C273 C 0.11572 0.32529 0.20776 0.0
C274 C 0.11133 0.31218 0.19343 0.0
C275 C 0.12307 0.3126 0.17923 0.0
C276 C 0.15257 0.32598 0.1663 0.0
C277 C 0.16548 0.32549 0.17696 0.0
C278 C 0.15298 0.32704 0.14412 0.0
C279 C 0.14006 0.32848 0.13197 0.0
C280 C 0.13562 0.34043 0.13738 0.0
C281 C 0.12356 0.3418 0.12592 0.0
C282 C 0.11603 0.33163 0.10839 0.0
C283 C 0.12073 0.31997 0.1026 0.0
C284 C 0.13255 0.31834 0.11436 0.0
C285 C 0.19481 0.331 0.13221 0.0
C286 C 0.19396 0.3197 0.11696 0.0
C287 C 0.20826 0.32254 0.10614 0.0
C288 C 0.22366 0.33688 0.11012 0.0
C289 C 0.22429 0.34832 0.12513 0.0
C290 C 0.21006 0.34536 0.1361 0.0
C291 C 0.17983 0.32789 0.14417 0.0
C292 C 0.16654 0.32769 0.13333 0.0
C293 C 0.17921 0.3266 0.16632 0.0
C294 C 0.19262 0.3265 0.17903 0.0
C295 C 0.19863 0.31565 0.17431 0.0
C296 C 0.21029 0.31482 0.18742 0.0
C297 C 0.21581 0.32453 0.20571 0.0
C298 C 0.21003 0.33555 0.21022 0.0
C299 C 0.19869 0.33662 0.19695 0.0
H300 H 0.71601 0.88141 0.18585 0.0
H301 H 0.71726 0.90313 0.20877 0.0
H302 H 0.66634 0.88774 0.19323 0.0
H303 H 0.66535 0.86635 0.17008 0.0
H304 H 0.69537 0.84812 0.19039 0.0
H305 H 0.70632 0.8889 0.13686 0.0
H306 H 0.70228 0.90887 0.11643 0.0
H307 H 0.65277 0.87009 0.10032 0.0
H308 H 0.65697 0.85021 0.12054 0.0
H309 H 0.6556 0.80734 0.12232 0.0
H310 H 0.64994 0.78226 0.10317 0.0
H311 H 0.69925 0.79161 0.11762 0.0
H312 H 0.70494 0.81689 0.13654 0.0
H313 H 0.67805 0.83933 0.11575 0.0
H314 H 0.6643 0.80002 0.17113 0.0
H315 H 0.66502 0.77944 0.19414 0.0
H316 H 0.71651 0.81391 0.20829 0.0
H317 H 0.71555 0.83458 0.18551 0.0
C318 C 0.69065 0.87235 0.1761 0.0
C319 C 0.7052 0.88287 0.18722 0.0
C320 C 0.70585 0.89522 0.20042 0.0
C321 C 0.69189 0.89719 0.20294 0.0
C322 C 0.67743 0.88681 0.19143 0.0
C323 C 0.67682 0.87452 0.17818 0.0
C324 C 0.68945 0.8583 0.16361 0.0
C325 C 0.69197 0.8464 0.17392 0.0
C326 C 0.68441 0.85576 0.14233 0.0
C327 C 0.68192 0.86806 0.13032 0.0
C328 C 0.69456 0.88474 0.12905 0.0
C329 C 0.69222 0.89615 0.11737 0.0
C330 C 0.67721 0.8911 0.10664 0.0
C331 C 0.66458 0.87438 0.10804 0.0
C332 C 0.66694 0.86299 0.11968 0.0
C333 C 0.68065 0.81395 0.13097 0.0
C334 C 0.66522 0.80403 0.12131 0.0
C335 C 0.66196 0.78963 0.1105 0.0
C336 C 0.67413 0.78491 0.10896 0.0
C337 C 0.68967 0.79497 0.11843 0.0
C338 C 0.69288 0.80934 0.12937 0.0
C339 C 0.6839 0.82914 0.14259 0.0
C340 C 0.68174 0.84122 0.13212 0.0
C341 C 0.68901 0.83173 0.16382 0.0
C342 C 0.68991 0.8188 0.17646 0.0
C343 C 0.67582 0.80305 0.17892 0.0
C344 C 0.67627 0.79126 0.19208 0.0
C345 C 0.69083 0.79497 0.20312 0.0
C346 C 0.70502 0.81068 0.20028 0.0
C347 C 0.70453 0.82249 0.18718 0.0
H348 H 0.12666 0.83646 0.18328 0.0
H349 H 0.10458 0.81602 0.20577 0.0
H350 H 0.1213 0.78104 0.1929 0.0
H351 H 0.14302 0.80139 0.17011 0.0
H352 H 0.1603 0.84955 0.18905 0.0
H353 H 0.12006 0.81861 0.13477 0.0
H354 H 0.10055 0.79347 0.11563 0.0
H355 H 0.14038 0.78373 0.10172 0.0
H356 H 0.1597 0.80862 0.12117 0.0
H357 H 0.20154 0.85104 0.1204 0.0
H358 H 0.22602 0.8707 0.10062 0.0
H359 H 0.21548 0.90988 0.11551 0.0
H360 H 0.1911 0.89014 0.13558 0.0
H361 H 0.16965 0.84058 0.11472 0.0
H362 H 0.20872 0.86715 0.16953 0.0
H363 H 0.229 0.88835 0.19289 0.0
H364 H 0.19379 0.90436 0.2078 0.0
H365 H 0.17343 0.88284 0.18463 0.0
C366 C 0.13639 0.82041 0.17487 0.0
C367 C 0.12542 0.82431 0.18516 0.0
C368 C 0.11286 0.81263 0.19811 0.0
C369 C 0.11114 0.79685 0.20124 0.0
C370 C 0.12202 0.79293 0.19061 0.0
C371 C 0.13451 0.80458 0.17759 0.0
C372 C 0.15048 0.83321 0.16242 0.0
C373 C 0.16216 0.8478 0.17264 0.0
C374 C 0.15322 0.83056 0.14128 0.0
C375 C 0.14132 0.81544 0.12955 0.0
C376 C 0.12455 0.811 0.1277 0.0
C377 C 0.11345 0.79671 0.11661 0.0
C378 C 0.11891 0.78658 0.10721 0.0
C379 C 0.13573 0.79114 0.109 0.0
C380 C 0.14682 0.80544 0.11998 0.0
C381 C 0.19451 0.86911 0.12957 0.0
C382 C 0.20448 0.86386 0.11938 0.0
C383 C 0.21845 0.87512 0.10797 0.0
C384 C 0.22272 0.89189 0.10635 0.0
C385 C 0.2127 0.89712 0.11663 0.0
C386 C 0.19874 0.88584 0.12809 0.0
C387 C 0.17951 0.85696 0.14136 0.0
C388 C 0.16767 0.84251 0.13102 0.0
C389 C 0.17679 0.85955 0.16254 0.0
C390 C 0.18959 0.87349 0.17519 0.0
C391 C 0.20547 0.87542 0.17753 0.0
C392 C 0.21708 0.8876 0.1909 0.0
C393 C 0.21305 0.8981 0.20228 0.0
C394 C 0.19724 0.89635 0.19952 0.0
C395 C 0.18561 0.88412 0.1862 0.0
H396 H 0.29469 0.17182 0.85686 0.0
H397 H 0.29345 0.19215 0.83368 0.0
H398 H 0.34448 0.22758 0.84878 0.0
H399 H 0.3455 0.20733 0.8721 0.0
H400 H 0.31506 0.15891 0.85251 0.0
H401 H 0.30493 0.18965 0.9062 0.0
H402 H 0.30966 0.21416 0.92607 0.0
H403 H 0.35947 0.22481 0.94035 0.0
H404 H 0.35451 0.20016 0.92084 0.0
H405 H 0.35473 0.15814 0.92121 0.0
H406 H 0.36004 0.1388 0.94101 0.0
H407 H 0.31083 0.09893 0.92602 0.0
H408 H 0.30545 0.11847 0.90654 0.0
H409 H 0.33285 0.16813 0.92697 0.0
H410 H 0.34575 0.14128 0.87248 0.0
H411 H 0.34483 0.11985 0.84946 0.0
H412 H 0.29376 0.104 0.83424 0.0
H413 H 0.29489 0.12569 0.85712 0.0
C414 C 0.32012 0.1881 0.86638 0.0
C415 C 0.30554 0.18405 0.85533 0.0
C416 C 0.30489 0.19566 0.842 0.0
C417 C 0.31888 0.21152 0.8393 0.0
C418 C 0.33337 0.21562 0.85073 0.0
C419 C 0.33399 0.20402 0.86408 0.0
C420 C 0.3213 0.17532 0.87905 0.0
C421 C 0.31856 0.16072 0.86895 0.0
C422 C 0.32651 0.17803 0.90025 0.0
C423 C 0.32938 0.19307 0.91197 0.0
C424 C 0.31689 0.19732 0.91354 0.0
C425 C 0.31964 0.21138 0.92488 0.0
C426 C 0.33494 0.22148 0.93492 0.0
C427 C 0.34743 0.21718 0.9332 0.0
C428 C 0.34465 0.20312 0.92195 0.0
C429 C 0.32974 0.13976 0.91226 0.0
C430 C 0.34506 0.14525 0.92223 0.0
C431 C 0.34812 0.13414 0.93342 0.0
C432 C 0.33588 0.1173 0.93502 0.0
C433 C 0.32047 0.11184 0.9252 0.0
C434 C 0.31743 0.12297 0.91391 0.0
C435 C 0.32665 0.15172 0.9004 0.0
C436 C 0.32906 0.16616 0.91064 0.0
C437 C 0.32143 0.14902 0.8792 0.0
C438 C 0.32034 0.13501 0.86669 0.0
C439 C 0.33426 0.13299 0.8645 0.0
C440 C 0.33369 0.12069 0.85131 0.0
C441 C 0.31921 0.11016 0.83994 0.0
C442 C 0.30518 0.11201 0.84252 0.0
C443 C 0.30577 0.12435 0.85568 0.0
H444 H 0.8373 0.12538 0.85729 0.0
H445 H 0.81677 0.10434 0.83386 0.0
H446 H 0.78133 0.11932 0.85197 0.0
H447 H 0.80181 0.13998 0.87577 0.0
H448 H 0.84886 0.15916 0.85301 0.0
H449 H 0.82059 0.11653 0.90658 0.0
H450 H 0.79666 0.09668 0.92728 0.0
H451 H 0.78799 0.13629 0.94666 0.0
H452 H 0.81199 0.15602 0.92626 0.0
H453 H 0.85849 0.20551 0.90452 0.0
H454 H 0.87734 0.23035 0.92473 0.0
H455 H 0.90457 0.20641 0.94485 0.0
H456 H 0.88545 0.18148 0.92486 0.0
H457 H 0.84409 0.16566 0.9295 0.0
H458 H 0.85584 0.1906 0.84701 0.0
H459 H 0.8769 0.21131 0.824 0.0
H460 H 0.91525 0.20995 0.86076 0.0
H461 H 0.8939 0.18854 0.88323 0.0
C462 C 0.82106 0.13417 0.86837 0.0
C463 C 0.82501 0.12393 0.85642 0.0
C464 C 0.81329 0.112 0.84291 0.0
C465 C 0.79739 0.11018 0.84084 0.0
C466 C 0.79333 0.12017 0.85333 0.0
C467 C 0.80505 0.13203 0.86695 0.0
C468 C 0.83415 0.1481 0.88071 0.0
C469 C 0.84792 0.16045 0.8698 0.0
C470 C 0.83267 0.15 0.90251 0.0
C471 C 0.81808 0.13777 0.91482 0.0
C472 C 0.81347 0.1209 0.91523 0.0
C473 C 0.79976 0.10956 0.92705 0.0
C474 C 0.79041 0.11487 0.93875 0.0
C475 C 0.79507 0.13178 0.93821 0.0
C476 C 0.80876 0.14309 0.92646 0.0
C477 C 0.87067 0.19176 0.91317 0.0
C478 C 0.86855 0.20566 0.91325 0.0
C479 C 0.87926 0.21978 0.92486 0.0
C480 C 0.8924 0.22029 0.93639 0.0
C481 C 0.89463 0.2064 0.936 0.0
C482 C 0.88372 0.19217 0.92467 0.0
C483 C 0.85878 0.17655 0.90177 0.0
C484 C 0.84516 0.16413 0.9128 0.0
C485 C 0.86009 0.1748 0.87995 0.0
C486 C 0.87328 0.18813 0.86699 0.0
C487 C 0.86879 0.19479 0.85017 0.0
C488 C 0.88089 0.20676 0.83712 0.0
C489 C 0.89783 0.21243 0.8406 0.0
C490 C 0.90233 0.2058 0.85755 0.0
C491 C 0.89015 0.19372 0.8706 0.0
H492 H 0.81535 0.66119 0.84372 0.0
H493 H 0.795 0.66225 0.82055 0.0
H494 H 0.79532 0.70058 0.85905 0.0
H495 H 0.81647 0.70026 0.88172 0.0
H496 H 0.84491 0.68162 0.84969 0.0
H497 H 0.79999 0.65375 0.89788 0.0
H498 H 0.77554 0.6485 0.91838 0.0
H499 H 0.80409 0.696 0.94895 0.0
H500 H 0.82868 0.70113 0.92853 0.0
H501 H 0.88226 0.70325 0.92483 0.0
H502 H 0.90206 0.69876 0.94543 0.0
H503 H 0.87922 0.64842 0.92233 0.0
H504 H 0.85968 0.65303 0.90171 0.0
H505 H 0.84387 0.68038 0.92749 0.0
H506 H 0.89024 0.70407 0.87335 0.0
H507 H 0.91031 0.70306 0.84923 0.0
H508 H 0.87315 0.65345 0.83059 0.0
H509 H 0.85314 0.65494 0.85391 0.0
C510 C 0.81753 0.68063 0.86458 0.0
C511 C 0.81113 0.66989 0.84725 0.0
C512 C 0.79946 0.67043 0.83404 0.0
C513 C 0.79369 0.6815 0.83808 0.0
C514 C 0.79956 0.69187 0.85576 0.0
C515 C 0.81155 0.69159 0.86877 0.0
C516 C 0.83112 0.68095 0.87731 0.0
C517 C 0.84454 0.68129 0.86671 0.0
C518 C 0.8309 0.68065 0.89955 0.0
C519 C 0.8161 0.67786 0.91162 0.0
C520 C 0.80097 0.66306 0.90894 0.0
C521 C 0.78706 0.66004 0.92072 0.0
C522 C 0.78797 0.67184 0.93526 0.0
C523 C 0.80307 0.68675 0.93777 0.0
C524 C 0.81709 0.68966 0.92621 0.0
C525 C 0.86959 0.67848 0.91175 0.0
C526 C 0.88161 0.6913 0.92419 0.0
C527 C 0.89291 0.68874 0.93585 0.0
C528 C 0.89209 0.67322 0.93554 0.0
C529 C 0.88002 0.66045 0.92303 0.0
C530 C 0.86893 0.66308 0.91117 0.0
C531 C 0.85733 0.68084 0.89971 0.0
C532 C 0.84425 0.68106 0.91048 0.0
C533 C 0.8574 0.68086 0.8776 0.0
C534 C 0.87022 0.67962 0.86524 0.0
C535 C 0.88655 0.69295 0.86417 0.0
C536 C 0.89801 0.69231 0.85043 0.0
C537 C 0.8933 0.67827 0.83766 0.0
C538 C 0.87711 0.66465 0.83968 0.0
C539 C 0.86567 0.6654 0.85315 0.0
H540 H 0.82128 0.683 0.52557 0.0
H541 H 0.79938 0.68223 0.5477 0.0
H542 H 0.76436 0.63427 0.52214 0.0
H543 H 0.78636 0.63527 0.49955 0.0
H544 H 0.83157 0.6589 0.52641 0.0
H545 H 0.80842 0.68236 0.48155 0.0
H546 H 0.7872 0.68443 0.46145 0.0
H547 H 0.78163 0.64468 0.4211 0.0
H548 H 0.80227 0.64192 0.44203 0.0
H549 H 0.8461 0.6426 0.44268 0.0
H550 H 0.87002 0.64613 0.42223 0.0
H551 H 0.90289 0.68603 0.46323 0.0
H552 H 0.87906 0.68316 0.48291 0.0
H553 H 0.83356 0.66144 0.44869 0.0
H554 H 0.85546 0.63674 0.50005 0.0
H555 H 0.87548 0.63583 0.52427 0.0
H556 H 0.88552 0.68285 0.55063 0.0
H557 H 0.86509 0.68322 0.52715 0.0
C558 C 0.8054 0.65923 0.51088 0.0
C559 C 0.80885 0.67239 0.52458 0.0
C560 C 0.79634 0.67197 0.53712 0.0
C561 C 0.7802 0.65821 0.53655 0.0
C562 C 0.77672 0.645 0.52285 0.0
C563 C 0.78922 0.64559 0.50993 0.0
C564 C 0.81905 0.65959 0.49842 0.0
C565 C 0.83202 0.65947 0.50939 0.0
C566 C 0.81948 0.66023 0.47622 0.0
C567 C 0.80667 0.66163 0.46378 0.0
C568 C 0.80234 0.67372 0.4688 0.0
C569 C 0.7903 0.67501 0.45719 0.0
C570 C 0.7827 0.66461 0.43987 0.0
C571 C 0.7873 0.65281 0.43443 0.0
C572 C 0.7991 0.65126 0.44636 0.0
C573 C 0.8607 0.66234 0.46472 0.0
C574 C 0.85844 0.65214 0.44728 0.0
C575 C 0.87209 0.65413 0.43561 0.0
C576 C 0.88828 0.66622 0.44133 0.0
C577 C 0.89056 0.67641 0.45874 0.0
C578 C 0.87691 0.67466 0.4701 0.0
C579 C 0.84612 0.66058 0.4767 0.0
C580 C 0.83294 0.66048 0.46567 0.0
C581 C 0.84552 0.65996 0.49891 0.0
C582 C 0.85874 0.66 0.51192 0.0
C583 C 0.8621 0.64687 0.511 0.0
C584 C 0.87359 0.64641 0.52481 0.0
C585 C 0.88197 0.65914 0.53968 0.0
C586 C 0.87899 0.67257 0.53987 0.0
C587 C 0.8674 0.6729 0.52632 0.0
H588 H 0.3814 0.21492 0.52146 0.0
H589 H 0.38097 0.23546 0.54514 0.0
H590 H 0.33125 0.22077 0.52457 0.0
H591 H 0.33154 0.19994 0.50153 0.0
H592 H 0.36189 0.18219 0.52419 0.0
H593 H 0.3729 0.22275 0.47019 0.0
H594 H 0.36871 0.24242 0.44929 0.0
H595 H 0.31949 0.20313 0.43294 0.0
H596 H 0.32391 0.18355 0.45349 0.0
H597 H 0.32285 0.14126 0.45613 0.0
H598 H 0.3172 0.11614 0.43712 0.0
H599 H 0.36637 0.12531 0.45208 0.0
H600 H 0.37207 0.15066 0.47086 0.0
H601 H 0.34538 0.17309 0.44928 0.0
H602 H 0.33172 0.13389 0.505 0.0
H603 H 0.33265 0.11375 0.52865 0.0
H604 H 0.38374 0.14913 0.54352 0.0
H605 H 0.38259 0.16933 0.52004 0.0
C606 C 0.35656 0.20596 0.50957 0.0
C607 C 0.37048 0.21626 0.5219 0.0
C608 C 0.37025 0.22807 0.53534 0.0
C609 C 0.35604 0.2297 0.53683 0.0
C610 C 0.34232 0.2197 0.52399 0.0
C611 C 0.34255 0.20791 0.51059 0.0
C612 C 0.35604 0.19217 0.49712 0.0
C613 C 0.35871 0.18043 0.50765 0.0
C614 C 0.35129 0.18956 0.47574 0.0
C615 C 0.34871 0.20167 0.46345 0.0
C616 C 0.36119 0.21842 0.46218 0.0
C617 C 0.35875 0.22966 0.45024 0.0
C618 C 0.34378 0.22437 0.43932 0.0
C619 C 0.3313 0.20759 0.44077 0.0
C620 C 0.33377 0.19638 0.45261 0.0
C621 C 0.34785 0.1478 0.46502 0.0
C622 C 0.33244 0.13789 0.45528 0.0
C623 C 0.32919 0.12347 0.44455 0.0
C624 C 0.34132 0.11869 0.44317 0.0
C625 C 0.35682 0.12871 0.45276 0.0
C626 C 0.36004 0.14312 0.46363 0.0
C627 C 0.35109 0.16308 0.47642 0.0
C628 C 0.34892 0.17506 0.4657 0.0
C629 C 0.35607 0.16581 0.49771 0.0
C630 C 0.35714 0.15308 0.51059 0.0
C631 C 0.34322 0.13721 0.51305 0.0
C632 C 0.34379 0.12568 0.52659 0.0
C633 C 0.35828 0.12979 0.53804 0.0
C634 C 0.37231 0.14561 0.53519 0.0
C635 C 0.37171 0.15714 0.52168 0.0
H636 H 0.79278 0.16901 0.51916 0.0
H637 H 0.7708 0.14883 0.542 0.0
H638 H 0.78561 0.11271 0.527 0.0
H639 H 0.80732 0.13284 0.504 0.0
H640 H 0.82586 0.18111 0.5244 0.0
H641 H 0.78559 0.15129 0.46982 0.0
H642 H 0.76601 0.1271 0.44933 0.0
H643 H 0.80519 0.11641 0.43509 0.0
H644 H 0.82467 0.14069 0.45528 0.0
H645 H 0.86714 0.18244 0.45617 0.0
H646 H 0.89208 0.20202 0.43695 0.0
H647 H 0.88259 0.24177 0.45248 0.0
H648 H 0.85744 0.22203 0.47143 0.0
H649 H 0.83531 0.17274 0.4499 0.0
H650 H 0.87429 0.19815 0.50501 0.0
H651 H 0.8947 0.21883 0.52875 0.0
H652 H 0.86002 0.23532 0.54458 0.0
H653 H 0.83954 0.21436 0.52094 0.0
C654 C 0.80161 0.1524 0.50972 0.0
C655 C 0.79113 0.15667 0.52062 0.0
C656 C 0.77863 0.14514 0.53376 0.0
C657 C 0.77644 0.12913 0.53642 0.0
C658 C 0.78673 0.1248 0.52508 0.0
C659 C 0.79919 0.13632 0.51192 0.0
C660 C 0.81589 0.16514 0.49745 0.0
C661 C 0.82773 0.17948 0.50795 0.0
C662 C 0.81866 0.16263 0.47626 0.0
C663 C 0.8066 0.14779 0.46416 0.0
C664 C 0.78992 0.14367 0.46237 0.0
C665 C 0.77873 0.12981 0.45067 0.0
C666 C 0.78401 0.11981 0.44046 0.0
C667 C 0.80073 0.12398 0.44238 0.0
C668 C 0.81189 0.13783 0.45402 0.0
C669 C 0.86047 0.20077 0.46535 0.0
C670 C 0.8704 0.19537 0.45539 0.0
C671 C 0.88472 0.20659 0.44454 0.0
C672 C 0.88935 0.22347 0.44325 0.0
C673 C 0.87929 0.22884 0.45306 0.0
C674 C 0.865 0.2176 0.46404 0.0
C675 C 0.84527 0.18872 0.47686 0.0
C676 C 0.83329 0.17451 0.46624 0.0
C677 C 0.84252 0.19115 0.49809 0.0
C678 C 0.85543 0.20479 0.51102 0.0
C679 C 0.87119 0.20643 0.51327 0.0
C680 C 0.88287 0.2183 0.52687 0.0
C681 C 0.87903 0.22877 0.53862 0.0
C682 C 0.86333 0.22732 0.536 0.0
C683 C 0.85164 0.21541 0.52241 0.0
H684 H 0.96614 0.5088 0.18902 0.0
H685 H 0.96515 0.52906 0.16557 0.0
H686 H 0.01626 0.56427 0.18062 0.0
H687 H 0.01697 0.54404 0.20445 0.0
H688 H 0.98744 0.49635 0.18443 0.0
H689 H 0.97776 0.5297 0.23384 0.0
H690 H 0.98366 0.55499 0.25221 0.0
H691 H 0.02688 0.55684 0.28039 0.0
H692 H 0.022 0.53281 0.26005 0.0
H693 H 0.0236 0.49371 0.25575 0.0
H694 H 0.0282 0.4738 0.27536 0.0
H695 H 0.97974 0.43433 0.25681 0.0
H696 H 0.97508 0.45442 0.23746 0.0
H697 H 1.00118 0.50331 0.26021 0.0
H698 H 0.01725 0.47841 0.20674 0.0
H699 H 0.01765 0.45757 0.18371 0.0
H700 H 0.96769 0.4423 0.16365 0.0
H701 H 0.96724 0.46297 0.1871 0.0
C702 C 0.99159 0.52495 0.19856 0.0
C703 C 0.97707 0.52096 0.18741 0.0
C704 C 0.97656 0.53253 0.17392 0.0
C705 C 0.99066 0.5483 0.17108 0.0
C706 C 1.0051 0.55236 0.18263 0.0
C707 C 0.00556 0.54079 0.19622 0.0
C708 C 0.99245 0.51211 0.21143 0.0
C709 C 0.99014 0.49774 0.20111 0.0
C710 C 0.99664 0.51433 0.23305 0.0
C711 C 0.99962 0.52942 0.24502 0.0
C712 C 0.98877 0.5358 0.24352 0.0
C713 C 0.99199 0.55017 0.2545 0.0
C714 C 0.00587 0.55826 0.26787 0.0
C715 C 0.01635 0.55144 0.26987 0.0
C716 C 0.0134 0.5374 0.25843 0.0
C717 C 0.99904 0.47556 0.24504 0.0
C718 C 0.01393 0.48079 0.25597 0.0
C719 C 0.01659 0.46937 0.26704 0.0
C720 C 1.00436 0.45247 0.26755 0.0
C721 C 0.98935 0.44728 0.25682 0.0
C722 C 0.98673 0.45872 0.24563 0.0
C723 C 0.99647 0.48781 0.23308 0.0
C724 C 0.99835 0.50195 0.24357 0.0
C725 C 0.99246 0.48575 0.21149 0.0
C726 C 0.99215 0.47216 0.19882 0.0
C727 C 0.00626 0.47036 0.19771 0.0
C728 C 0.00653 0.45856 0.18436 0.0
C729 C 0.99272 0.44832 0.17177 0.0
C730 C 0.97846 0.44987 0.17328 0.0
C731 C 0.97822 0.46174 0.18659 0.0
H732 H 0.50451 0.45945 0.18908 0.0
H733 H 0.48416 0.43778 0.16605 0.0
H734 H 0.44868 0.45339 0.18117 0.0
H735 H 0.46898 0.47482 0.20429 0.0
H736 H 0.5175 0.49261 0.18476 0.0
H737 H 0.48647 0.45205 0.23856 0.0
H738 H 0.46134 0.43234 0.25757 0.0
H739 H 0.45137 0.47194 0.27204 0.0
H740 H 0.47628 0.49148 0.25275 0.0
H741 H 0.51881 0.53355 0.25353 0.0
H742 H 0.53839 0.55798 0.27345 0.0
H743 H 0.57753 0.54728 0.25897 0.0
H744 H 0.55787 0.52299 0.23873 0.0
H745 H 0.50825 0.50152 0.25913 0.0
H746 H 0.53545 0.54099 0.20462 0.0
H747 H 0.55675 0.56115 0.18123 0.0
H748 H 0.57221 0.52552 0.16625 0.0
H749 H 0.55062 0.50529 0.18948 0.0
C750 C 0.48823 0.46866 0.19859 0.0
C751 C 0.49228 0.45807 0.18757 0.0
C752 C 0.48065 0.44574 0.17434 0.0
C753 C 0.46476 0.44382 0.17171 0.0
C754 C 0.46067 0.45429 0.18307 0.0
C755 C 0.47229 0.46659 0.19631 0.0
C756 C 0.50102 0.48263 0.21125 0.0
C757 C 0.51567 0.49436 0.20118 0.0
C758 C 0.49831 0.48525 0.23243 0.0
C759 C 0.48319 0.47323 0.24409 0.0
C760 C 0.47881 0.45645 0.24574 0.0
C761 C 0.46453 0.44523 0.25675 0.0
C762 C 0.45434 0.45057 0.26626 0.0
C763 C 0.45884 0.46739 0.26467 0.0
C764 C 0.47314 0.4786 0.25379 0.0
C765 C 0.53686 0.52646 0.24454 0.0
C766 C 0.5316 0.53645 0.25468 0.0
C767 C 0.54283 0.55039 0.26616 0.0
C768 C 0.55957 0.5546 0.26794 0.0
C769 C 0.5648 0.54456 0.25773 0.0
C770 C 0.55356 0.53063 0.24617 0.0
C771 C 0.52475 0.51152 0.23262 0.0
C772 C 0.51023 0.49963 0.24282 0.0
C773 C 0.52744 0.50889 0.21144 0.0
C774 C 0.54151 0.52166 0.19893 0.0
C775 C 0.54363 0.53763 0.19662 0.0
C776 C 0.55586 0.54916 0.18323 0.0
C777 C 0.56621 0.54497 0.17179 0.0
C778 C 0.56432 0.52909 0.17457 0.0
C779 C 0.55204 0.51754 0.18793 0.0
H780 H 0.54785 0.04068 0.18888 0.0
H781 H 0.56871 0.04024 0.16575 0.0
H782 H 0.55155 0.98937 0.18353 0.0
H783 H 0.53058 0.98979 0.20625 0.0
H784 H 0.5143 0.02133 0.18522 0.0
H785 H 0.55495 0.03161 0.23871 0.0
H786 H 0.57479 0.02649 0.25787 0.0
H787 H 0.53517 0.97754 0.27445 0.0
H788 H 0.51547 0.98262 0.25504 0.0
H789 H 0.47338 0.98354 0.25456 0.0
H790 H 0.44907 0.97932 0.27427 0.0
H791 H 0.46058 0.02926 0.25901 0.0
H792 H 0.48476 0.03326 0.23896 0.0
H793 H 0.50565 0.00495 0.26022 0.0
H794 H 0.46608 0.99227 0.20521 0.0
H795 H 0.44604 0.99385 0.18206 0.0
H796 H 0.48221 0.04472 0.16715 0.0
H797 H 0.50233 0.04286 0.19002 0.0
C798 C 0.53773 0.01532 0.19942 0.0
C799 C 0.5487 0.02949 0.18792 0.0
C800 C 0.56067 0.02925 0.17482 0.0
C801 C 0.56175 0.01475 0.17278 0.0
C802 C 0.55094 1.00068 0.18461 0.0
C803 C 0.53905 1.00096 0.19777 0.0
C804 C 0.52418 0.01509 0.21203 0.0
C805 C 0.51262 0.01815 0.20176 0.0
C806 C 0.5217 0.01038 0.23342 0.0
C807 C 0.53374 0.00745 0.24531 0.0
C808 C 0.55056 0.01975 0.24641 0.0
C809 C 0.56186 0.01686 0.2575 0.0
C810 C 0.55655 1.00159 0.26763 0.0
C811 C 0.53968 0.98936 0.26662 0.0
C812 C 0.52838 0.99229 0.25566 0.0
C813 C 0.48086 0.00868 0.24519 0.0
C814 C 0.47068 0.99359 0.25549 0.0
C815 C 0.45681 0.99124 0.26686 0.0
C816 C 0.45287 0.00398 0.26836 0.0
C817 C 0.4631 0.01911 0.25799 0.0
C818 C 0.47696 0.02143 0.24655 0.0
C819 C 0.4957 0.01109 0.23336 0.0
C820 C 0.50748 0.00843 0.24378 0.0
C821 C 0.49829 0.01598 0.21203 0.0
C822 C 0.48567 0.01749 0.19947 0.0
C823 C 0.4696 0.00385 0.19722 0.0
C824 C 0.45812 0.0048 0.18398 0.0
C825 C 0.46248 0.01942 0.17266 0.0
C826 C 0.47849 0.03319 0.17534 0.0
C827 C 0.48999 0.03219 0.18851 0.0
H828 H 0.49313 0.01696 0.86524 0.0
H829 H 0.47193 0.01694 0.88759 0.0
H830 H 0.43381 0.97744 0.8503 0.0
H831 H 0.45528 0.97685 0.82871 0.0
H832 H 0.50106 0.9946 0.86112 0.0
H833 H 0.48605 0.02383 0.81159 0.0
H834 H 0.46692 0.02896 0.79082 0.0
H835 H 0.44788 0.98108 0.76116 0.0
H836 H 0.46725 0.97608 0.78187 0.0
H837 H 0.51492 0.97693 0.77789 0.0
H838 H 0.53858 0.97964 0.75754 0.0
H839 H 0.57217 0.01933 0.79826 0.0
H840 H 0.54864 0.01733 0.81777 0.0
H841 H 0.50337 0.99678 0.78341 0.0
H842 H 0.52428 0.97139 0.83601 0.0
H843 H 0.54423 0.97066 0.86058 0.0
H844 H 0.55498 0.01837 0.88524 0.0
H845 H 0.53466 0.0186 0.86144 0.0
C846 C 0.47586 0.99696 0.8452 0.0
C847 C 0.48021 0.00829 0.86183 0.0
C848 C 0.46801 0.00838 0.87449 0.0
C849 C 0.45108 0.99723 0.87076 0.0
C850 C 0.44671 0.98609 0.85381 0.0
C851 C 0.45898 0.98589 0.84123 0.0
C852 C 0.48912 0.99617 0.833 0.0
C853 C 0.50159 0.99516 0.84411 0.0
C854 C 0.48975 0.99666 0.81082 0.0
C855 C 0.478 0.99955 0.79831 0.0
C856 C 0.47775 0.01444 0.80063 0.0
C857 C 0.46689 0.01738 0.78869 0.0
C858 C 0.45595 0.00542 0.77437 0.0
C859 C 0.45612 0.99046 0.77217 0.0
C860 C 0.4672 0.98763 0.78389 0.0
C861 C 0.52992 0.99662 0.79978 0.0
C862 C 0.52737 0.98623 0.78246 0.0
C863 C 0.54086 0.98775 0.77085 0.0
C864 C 0.55716 0.99954 0.77654 0.0
C865 C 0.55973 0.00992 0.79383 0.0
C866 C 0.54625 0.00866 0.80511 0.0
C867 C 0.51553 0.99545 0.8116 0.0
C868 C 0.50272 0.99594 0.8004 0.0
C869 C 0.51485 0.99501 0.83381 0.0
C870 C 0.52793 0.99499 0.84705 0.0
C871 C 0.53105 0.98169 0.84667 0.0
C872 C 0.54249 0.98134 0.86067 0.0
C873 C 0.55104 0.99433 0.87518 0.0
C874 C 0.5483 0.00791 0.87479 0.0
C875 C 0.53677 0.00814 0.86106 0.0
H876 H 0.0466 0.54589 0.85299 0.0
H877 H 0.04829 0.56805 0.87541 0.0
H878 H 0.99765 0.55353 0.85944 0.0
H879 H 0.99623 0.5317 0.83673 0.0
H880 H 0.02505 0.51256 0.85795 0.0
H881 H 0.03734 0.55379 0.804 0.0
H882 H 0.03344 0.57372 0.7832 0.0
H883 H 0.98414 0.53483 0.76648 0.0
H884 H 0.98819 0.51502 0.78706 0.0
H885 H 0.98851 0.475 0.78382 0.0
H886 H 0.98325 0.45077 0.76358 0.0
H887 H 0.02699 0.45286 0.79042 0.0
H888 H 0.03317 0.47826 0.80877 0.0
H889 H 0.00973 0.50451 0.78266 0.0
H890 H 0.99409 0.46449 0.83885 0.0
H891 H 0.9946 0.44402 0.86238 0.0
H892 H 0.04603 0.47853 0.87681 0.0
H893 H 0.04524 0.49906 0.85365 0.0
C894 C 0.02135 0.53723 0.84306 0.0
C895 C 0.03594 0.54763 0.85417 0.0
C896 C 0.03684 0.56023 0.86707 0.0
C897 C 0.02309 0.56258 0.86933 0.0
C898 C 0.00859 0.5523 0.85784 0.0
C899 C 0.00773 0.53976 0.84486 0.0
C900 C 0.01994 0.523 0.83079 0.0
C901 C 0.02197 0.5109 0.84138 0.0
C902 C 0.01537 0.52061 0.80937 0.0
C903 C 0.01303 0.53291 0.79716 0.0
C904 C 0.02565 0.5496 0.79596 0.0
C905 C 0.02339 0.56098 0.78408 0.0
C906 C 0.0085 0.55587 0.77307 0.0
C907 C 0.99588 0.53915 0.77441 0.0
C908 C 0.99815 0.5278 0.78627 0.0
C909 C 0.01113 0.47846 0.79817 0.0
C910 C 0.99712 0.47039 0.78518 0.0
C911 C 0.99396 0.45627 0.77379 0.0
C912 C 1.00452 0.44952 0.77542 0.0
C913 C 0.01861 0.45767 0.78843 0.0
C914 C 0.022 0.47209 0.79938 0.0
C915 C 0.01444 0.49372 0.80991 0.0
C916 C 0.01287 0.50611 0.79921 0.0
C917 C 0.019 0.49618 0.8314 0.0
C918 C 0.01965 0.48327 0.84442 0.0
C919 C 0.00552 0.46755 0.8469 0.0
C920 C 0.00587 0.45583 0.86033 0.0
C921 C 0.02036 0.4596 0.87157 0.0
C922 C 0.03458 0.47527 0.8687 0.0
C923 C 0.03419 0.48701 0.85537 0.0
H924 H 0.46019 0.50265 0.85265 0.0
H925 H 0.43864 0.48244 0.87594 0.0
H926 H 0.45393 0.44673 0.86066 0.0
H927 H 0.47521 0.46689 0.83724 0.0
H928 H 0.49334 0.5154 0.85685 0.0
H929 H 0.4525 0.48463 0.80329 0.0
H930 H 0.4328 0.46016 0.78335 0.0
H931 H 0.47202 0.44958 0.76884 0.0
H932 H 0.49164 0.47419 0.78843 0.0
H933 H 0.53384 0.51674 0.78744 0.0
H934 H 0.55817 0.53638 0.76741 0.0
H935 H 0.54767 0.57555 0.78261 0.0
H936 H 0.52345 0.55582 0.80292 0.0
H937 H 0.50183 0.50624 0.78229 0.0
H938 H 0.54163 0.53332 0.83643 0.0
H939 H 0.56206 0.55479 0.8594 0.0
H940 H 0.52659 0.57031 0.87506 0.0
H941 H 0.50611 0.54855 0.85225 0.0
C942 C 0.46922 0.48625 0.84304 0.0
C943 C 0.45875 0.49039 0.85416 0.0
C944 C 0.4465 0.47885 0.86755 0.0
C945 C 0.44454 0.46294 0.87024 0.0
C946 C 0.45486 0.45874 0.85873 0.0
C947 C 0.46707 0.47027 0.84532 0.0
C948 C 0.48318 0.49898 0.83034 0.0
C949 C 0.495 0.51359 0.84039 0.0
C950 C 0.48568 0.49627 0.80911 0.0
C951 C 0.47355 0.48123 0.79741 0.0
C952 C 0.45681 0.47697 0.79589 0.0
C953 C 0.44555 0.46295 0.78451 0.0
C954 C 0.4508 0.45289 0.77438 0.0
C955 C 0.46758 0.45718 0.77606 0.0
C956 C 0.47881 0.47122 0.78736 0.0
C957 C 0.52685 0.5348 0.79679 0.0
C958 C 0.53676 0.52955 0.78642 0.0
C959 C 0.55064 0.5408 0.77487 0.0
C960 C 0.55488 0.55757 0.77328 0.0
C961 C 0.54492 0.5628 0.7837 0.0
C962 C 0.53104 0.55152 0.7953 0.0
C963 C 0.51199 0.52268 0.80881 0.0
C964 C 0.50003 0.50819 0.79865 0.0
C965 C 0.5095 0.52534 0.83006 0.0
C966 C 0.52237 0.5394 0.84248 0.0
C967 C 0.53835 0.54154 0.84451 0.0
C968 C 0.55004 0.55387 0.85765 0.0
C969 C 0.54599 0.5643 0.86914 0.0
C970 C 0.53007 0.56236 0.86669 0.0
C971 C 0.51837 0.54998 0.85358 0.0
H972 H 0.63151 0.83984 0.52283 0.0
H973 H 0.6308 0.86038 0.49962 0.0
H974 H 0.68201 0.89508 0.51485 0.0
H975 H 0.68245 0.87458 0.53842 0.0
H976 H 0.65261 0.82707 0.51813 0.0
H977 H 0.64328 0.86054 0.56798 0.0
H978 H 0.64963 0.88598 0.58637 0.0
H979 H 0.69287 0.88738 0.6138 0.0
H980 H 0.68748 0.86316 0.59352 0.0
H981 H 0.68874 0.82435 0.58939 0.0
H982 H 0.69353 0.80454 0.60892 0.0
H983 H 0.6453 0.76481 0.59009 0.0
H984 H 0.64044 0.78481 0.5708 0.0
H985 H 0.66631 0.83371 0.59392 0.0
H986 H 0.68254 0.80926 0.54031 0.0
H987 H 0.68328 0.78882 0.51688 0.0
H988 H 0.63335 0.7734 0.49651 0.0
H989 H 0.63255 0.79366 0.52039 0.0
C990 C 0.65699 0.85572 0.53245 0.0
C991 C 0.64252 0.85194 0.52131 0.0
C992 C 0.64218 0.86368 0.50795 0.0
C993 C 0.65638 0.87939 0.50524 0.0
C994 C 0.67077 0.88322 0.51676 0.0
C995 C 0.67107 0.8715 0.53021 0.0
C996 C 0.65767 0.84274 0.54523 0.0
C997 C 0.65528 0.82837 0.53482 0.0
C998 C 0.66187 0.84487 0.56684 0.0
C999 C 0.66508 0.86 0.57885 0.0
C1000 C 0.65436 0.86655 0.57753 0.0
C1001 C 0.65786 0.88101 0.58849 0.0
C1002 C 0.67189 0.88902 0.60162 0.0
C1003 C 0.68223 0.88202 0.60346 0.0
C1004 C 0.67899 0.86788 0.59206 0.0
C1005 C 0.66427 0.80607 0.57854 0.0
C1006 C 0.67916 0.81139 0.58953 0.0
C1007 C 0.68193 0.80003 0.60055 0.0
C1008 C 0.66983 0.78309 0.60097 0.0
C1009 C 0.65482 0.77779 0.59017 0.0
C1010 C 0.65208 0.78918 0.57902 0.0
C1011 C 0.66159 0.8183 0.5667 0.0
C1012 C 0.66347 0.8324 0.57729 0.0
C1013 C 0.65759 0.81633 0.5451 0.0
C1014 C 0.65742 0.80288 0.53229 0.0
C1015 C 0.67162 0.80124 0.53114 0.0
C1016 C 0.67209 0.78967 0.51756 0.0
C1017 C 0.6584 0.77953 0.50475 0.0
C1018 C 0.64404 0.7809 0.50631 0.0
C1019 C 0.6436 0.79253 0.51986 0.0
H1020 H 0.16854 0.79745 0.51681 0.0
H1021 H 0.14751 0.7783 0.49266 0.0
H1022 H 0.11113 0.78748 0.52285 0.0
H1023 H 0.1327 0.80795 0.54543 0.0
H1024 H 0.18116 0.8283 0.51873 0.0
H1025 H 0.14887 0.78485 0.56787 0.0
H1026 H 0.12398 0.76536 0.58691 0.0
H1027 H 0.1236 0.80656 0.61812 0.0
H1028 H 0.1471 0.8258 0.59722 0.0
H1029 H 0.1852 0.86673 0.58967 0.0
H1030 H 0.20513 0.89171 0.60848 0.0
H1031 H 0.24466 0.8825 0.59068 0.0
H1032 H 0.22454 0.8573 0.57202 0.0
H1033 H 0.17626 0.83437 0.59522 0.0
H1034 H 0.20084 0.87551 0.53986 0.0
H1035 H 0.22197 0.89573 0.51625 0.0
H1036 H 0.23669 0.85979 0.49973 0.0
H1037 H 0.21522 0.83952 0.523 0.0
C1038 C 0.15229 0.80414 0.53316 0.0
C1039 C 0.15602 0.79536 0.51823 0.0
C1040 C 0.14383 0.78416 0.50453 0.0
C1041 C 0.12743 0.78117 0.5056 0.0
C1042 C 0.12361 0.78959 0.5211 0.0
C1043 C 0.13593 0.80114 0.53442 0.0
C1044 C 0.16581 0.81736 0.54609 0.0
C1045 C 0.18014 0.82932 0.53556 0.0
C1046 C 0.16439 0.81907 0.56806 0.0
C1047 C 0.14977 0.8069 0.58062 0.0
C1048 C 0.1432 0.78969 0.57848 0.0
C1049 C 0.12906 0.77849 0.58977 0.0
C1050 C 0.12145 0.78422 0.60409 0.0
C1051 C 0.12859 0.80149 0.60685 0.0
C1052 C 0.14235 0.81263 0.59508 0.0
C1053 C 0.20338 0.86019 0.57934 0.0
C1054 C 0.19814 0.87003 0.58989 0.0
C1055 C 0.20957 0.88438 0.6005 0.0
C1056 C 0.22649 0.88914 0.60096 0.0
C1057 C 0.2317 0.87911 0.59069 0.0
C1058 C 0.22024 0.86479 0.57991 0.0
C1059 C 0.19107 0.84523 0.56766 0.0
C1060 C 0.17715 0.83298 0.57844 0.0
C1061 C 0.19266 0.84326 0.54596 0.0
C1062 C 0.20653 0.85605 0.53326 0.0
C1063 C 0.20881 0.87209 0.53139 0.0
C1064 C 0.22094 0.88366 0.51791 0.0
C1065 C 0.23104 0.8794 0.50599 0.0
C1066 C 0.22898 0.86343 0.50837 0.0
C1067 C 0.21678 0.85185 0.52177 0.0
H1068 H 0.14989 0.33119 0.50666 0.0
H1069 H 0.13015 0.33378 0.48402 0.0
H1070 H 0.13063 0.37058 0.52571 0.0
H1071 H 0.15121 0.3687 0.54797 0.0
H1072 H 0.17953 0.35099 0.51469 0.0
H1073 H 0.13077 0.32465 0.55612 0.0
H1074 H 0.1066 0.32091 0.57591 0.0
H1075 H 0.13887 0.3581 0.62032 0.0
H1076 H 0.16311 0.36248 0.59992 0.0
H1077 H 0.21183 0.36586 0.59371 0.0
H1078 H 0.23115 0.36067 0.61422 0.0
H1079 H 0.21288 0.31351 0.58294 0.0
H1080 H 0.19381 0.31885 0.5623 0.0
H1081 H 0.17532 0.34368 0.59188 0.0
H1082 H 0.22455 0.36632 0.54674 0.0
H1083 H 0.24586 0.36566 0.52479 0.0
H1084 H 0.20741 0.32733 0.48657 0.0
H1085 H 0.18637 0.32746 0.50909 0.0
C1086 C 0.1521 0.34973 0.52912 0.0
C1087 C 0.14591 0.33994 0.51094 0.0
C1088 C 0.13459 0.34136 0.49803 0.0
C1089 C 0.12896 0.35238 0.50319 0.0
C1090 C 0.13479 0.36195 0.52154 0.0
C1091 C 0.14646 0.36081 0.53427 0.0
C1092 C 0.16483 0.34856 0.54203 0.0
C1093 C 0.17844 0.3492 0.53156 0.0
C1094 C 0.16361 0.34649 0.56416 0.0
C1095 C 0.14883 0.34414 0.5762 0.0
C1096 C 0.1327 0.3323 0.56983 0.0
C1097 C 0.11888 0.3301 0.58119 0.0
C1098 C 0.1209 0.3393 0.59954 0.0
C1099 C 0.137 0.35086 0.60622 0.0
C1100 C 0.15083 0.35333 0.59459 0.0
C1101 C 0.20148 0.34277 0.57646 0.0
C1102 C 0.21207 0.35445 0.59125 0.0
C1103 C 0.22311 0.35151 0.60286 0.0
C1104 C 0.22346 0.33668 0.60018 0.0
C1105 C 0.21278 0.32498 0.58541 0.0
C1106 C 0.20195 0.32805 0.57357 0.0
C1107 C 0.18963 0.34574 0.56434 0.0
C1108 C 0.1763 0.34555 0.57502 0.0
C1109 C 0.19064 0.34743 0.54228 0.0
C1110 C 0.20383 0.34683 0.52972 0.0
C1111 C 0.22075 0.35755 0.53388 0.0
C1112 C 0.23292 0.35731 0.52114 0.0
C1113 C 0.2284 0.34641 0.5039 0.0
C1114 C 0.21143 0.33567 0.4999 0.0
C1115 C 0.19933 0.33585 0.51268 0.0
H1116 H 0.97227 0.3771 0.07106 0.0
H1117 H 0.02384 0.39572 0.08638 0.0
H1118 H 0.9702 0.39351 0.0996 0.0
H1119 H 0.02164 0.41164 0.11523 0.0
H1120 H 0.01832 0.4543 0.14552 0.0
H1121 H 0.01956 0.43591 0.11939 0.0
H1122 H 0.97019 0.39754 0.13684 0.0
H1123 H 0.96888 0.41619 0.16287 0.0
C1124 C 0.98309 0.38447 0.08073 0.0
C1125 C 0.99826 0.38521 0.07628 0.0
C1126 C 0.98189 0.39385 0.09716 0.0
C1127 C 0.99581 0.40409 0.10962 0.0
C1128 C 0.01077 0.40423 0.10568 0.0
C1129 C 0.012 0.39499 0.08919 0.0
C1130 C 0.0078 0.44187 0.14398 0.0
C1131 C 0.99353 0.4367 0.15636 0.0
C1132 C 0.00851 0.43127 0.12899 0.0
C1133 C 0.99501 0.41515 0.12602 0.0
C1134 C 0.98075 0.40992 0.13849 0.0
C1135 C 0.98 0.42059 0.15345 0.0
H1136 H 0.61265 0.62612 0.0849 0.0
H1137 H 0.63438 0.59621 0.0672 0.0
H1138 H 0.59875 0.60768 0.11433 0.0
H1139 H 0.62051 0.57779 0.09692 0.0
H1140 H 0.57352 0.53792 0.13278 0.0
H1141 H 0.5914 0.55736 0.10607 0.0
H1142 H 0.60374 0.59826 0.14828 0.0
H1143 H 0.58599 0.57879 0.1752 0.0
C1144 C 0.61461 0.61571 0.08739 0.0
C1145 C 0.62456 0.6126 0.07358 0.0
C1146 C 0.60672 0.60519 0.10439 0.0
C1147 C 0.6085 0.59125 0.10795 0.0
C1148 C 0.61877 0.58834 0.09446 0.0
C1149 C 0.62678 0.59895 0.07751 0.0
C1150 C 0.58031 0.55102 0.13658 0.0
C1151 C 0.57823 0.55678 0.15616 0.0
C1152 C 0.59056 0.56218 0.12122 0.0
C1153 C 0.59893 0.57936 0.12501 0.0
C1154 C 0.59726 0.58511 0.14478 0.0
C1155 C 0.58706 0.57395 0.16018 0.0
H1156 H 0.411 0.03915 0.07099 0.0
H1157 H 0.38119 0.98708 0.08634 0.0
H1158 H 0.42948 0.04287 0.10034 0.0
H1159 H 0.39965 0.99081 0.11547 0.0
H1160 H 0.42868 0.00563 0.17648 0.0
H1161 H 0.40916 0.00459 0.15012 0.0
H1162 H 0.44989 0.03352 0.1079 0.0
H1163 H 0.46939 0.03432 0.13398 0.0
C1164 C 0.40828 0.02855 0.08074 0.0
C1165 C 0.39466 0.0128 0.07624 0.0
C1166 C 0.41892 0.03066 0.09746 0.0
C1167 C 0.41605 0.01712 0.11018 0.0
C1168 C 0.40211 1.00152 0.10611 0.0
C1169 C 0.39159 0.99937 0.0893 0.0
C1170 C 0.43349 0.01175 0.16157 0.0
C1171 C 0.45064 0.01997 0.15736 0.0
C1172 C 0.4223 0.01119 0.1465 0.0
C1173 C 0.42798 0.01894 0.12691 0.0
C1174 C 0.44514 0.02762 0.12294 0.0
C1175 C 0.45632 0.02809 0.13795 0.0
H1176 H 0.38349 0.97396 0.97547 0.0
H1177 H 0.39053 0.0209 0.95325 0.0
H1178 H 0.39947 0.97284 0.94579 0.0
H1179 H 0.4057 0.01942 0.92298 0.0
H1180 H 0.45085 0.02366 0.88956 0.0
H1181 H 0.43177 0.02313 0.91581 0.0
H1182 H 0.40218 0.96978 0.90969 0.0
H1183 H 0.42211 0.97021 0.88452 0.0
C1184 C 0.38813 0.98385 0.96396 0.0
C1185 C 0.38594 0.99761 0.96681 0.0
C1186 C 0.39725 0.98319 0.94684 0.0
C1187 C 0.40413 0.99615 0.93201 0.0
C1188 C 0.40105 0.00944 0.93434 0.0
C1189 C 0.39223 0.01024 0.95162 0.0
C1190 C 0.44037 0.01177 0.89389 0.0
C1191 C 0.43822 0.99696 0.88504 0.0
C1192 C 0.42919 0.01148 0.90877 0.0
C1193 C 0.41534 0.9964 0.91502 0.0
C1194 C 0.41282 0.98162 0.90557 0.0
C1195 C 0.42415 0.98189 0.89085 0.0
H1196 H 0.98736 0.37798 0.95814 0.0
H1197 H 0.0397 0.40716 0.97219 0.0
H1198 H 0.99093 0.39643 0.92905 0.0
H1199 H 0.04327 0.42561 0.94286 0.0
H1200 H 0.00529 0.42565 0.86798 0.0
H1201 H 1.00402 0.40587 0.89414 0.0
H1202 H 0.03443 0.44637 0.93594 0.0
H1203 H 0.03547 0.46612 0.91007 0.0
C1204 C 0.99968 0.38822 0.95488 0.0
C1205 C 0.01322 0.39115 0.96761 0.0
C1206 C 1.00174 0.39874 0.9381 0.0
C1207 C 0.01737 0.41253 0.93369 0.0
C1208 C 0.03104 0.41519 0.946 0.0
C1209 C 0.029 0.40456 0.96272 0.0
C1210 C 0.01167 0.43035 0.88277 0.0
C1211 C 0.02043 0.44751 0.88689 0.0
C1212 C 0.01098 0.41901 0.89772 0.0
C1213 C 0.01913 0.42455 0.91711 0.0
C1214 C 0.02823 0.44171 0.92103 0.0
C1215 C 0.02884 0.45304 0.90615 0.0
H1216 H 0.59851 0.63354 0.97224 0.0
H1217 H 0.62829 0.61177 0.95413 0.0
H1218 H 0.57983 0.61952 0.94282 0.0
H1219 H 0.60959 0.59771 0.92499 0.0
H1220 H 0.57975 0.58408 0.86487 0.0
H1221 H 0.5996 0.6022 0.89119 0.0
H1222 H 0.55934 0.59031 0.93434 0.0
H1223 H 0.53953 0.57206 0.90822 0.0
C1224 C 0.60118 0.62592 0.96188 0.0
C1225 C 0.61485 0.62371 0.96564 0.0
C1226 C 0.59042 0.61782 0.9451 0.0
C1227 C 0.59318 0.60745 0.93161 0.0
C1228 C 0.60719 0.60574 0.93494 0.0
C1229 C 0.61786 0.61373 0.95176 0.0
C1230 C 0.57513 0.58532 0.87997 0.0
C1231 C 0.55802 0.57651 0.88442 0.0
C1232 C 0.58651 0.59574 0.89503 0.0
C1233 C 0.58106 0.59766 0.91489 0.0
C1234 C 0.56394 0.58929 0.9191 0.0
C1235 C 0.55256 0.57883 0.90408 0.0
H1236 H 0.99049 0.61269 0.95382 0.0
H1237 H 0.04224 0.6341 0.97039 0.0
H1238 H 0.99436 0.59784 0.92489 0.0
H1239 H 0.0461 0.61924 0.94124 0.0
H1240 H 0.00956 0.58277 0.86471 0.0
H1241 H 0.00842 0.60153 0.89064 0.0
H1242 H 0.03656 0.58954 0.93393 0.0
H1243 H 0.03747 0.5706 0.90827 0.0
C1244 C 1.00275 0.61439 0.95115 0.0
C1245 C 0.01603 0.62451 0.96453 0.0
C1246 C 1.00498 0.60594 0.93446 0.0
C1247 C 0.02052 0.60731 0.93082 0.0
C1248 C 0.03394 0.61781 0.94379 0.0
C1249 C 0.03174 0.62639 0.96041 0.0
C1250 C 0.01548 0.58411 0.87976 0.0
C1251 C 0.02353 0.57508 0.88439 0.0
C1252 C 0.01487 0.5949 0.89459 0.0
C1253 C 0.02238 0.597 0.91435 0.0
C1254 C 0.03086 0.58838 0.91874 0.0
C1255 C 0.03139 0.57752 0.90398 0.0
H1256 H 0.39717 0.3812 0.95625 0.0
H1257 H 0.37589 0.41143 0.97434 0.0
H1258 H 0.41128 0.39978 0.92701 0.0
H1259 H 0.38997 0.43 0.94481 0.0
H1260 H 0.4372 0.46982 0.90933 0.0
H1261 H 0.41912 0.45028 0.93583 0.0
H1262 H 0.40667 0.40959 0.89321 0.0
H1263 H 0.42462 0.42916 0.86652 0.0
C1264 C 0.39535 0.39171 0.95387 0.0
C1265 C 0.38546 0.39486 0.96775 0.0
C1266 C 0.40336 0.40232 0.93699 0.0
C1267 C 0.40178 0.4164 0.93359 0.0
C1268 C 0.39156 0.41934 0.94713 0.0
C1269 C 0.38343 0.40865 0.96398 0.0
C1270 C 0.43035 0.45675 0.9054 0.0
C1271 C 0.43246 0.45108 0.88578 0.0
C1272 C 0.41998 0.44553 0.92064 0.0
C1273 C 0.41151 0.42837 0.91667 0.0
C1274 C 0.41322 0.42272 0.89686 0.0
C1275 C 0.42354 0.43394 0.88158 0.0
H1276 H 0.61017 0.97274 0.9641 0.0
H1277 H 0.62574 0.02484 0.97023 0.0
H1278 H 0.5913 0.97027 0.93564 0.0
H1279 H 0.60688 0.02222 0.94219 0.0
H1280 H 0.55476 0.00446 0.91604 0.0
H1281 H 0.57452 0.00544 0.9417 0.0
H1282 H 0.59232 0.98293 0.89717 0.0
H1283 H 0.57286 0.98249 0.87086 0.0
C1284 C 0.6097 0.98366 0.95929 0.0
C1285 C 0.61938 0.99895 0.96957 0.0
C1286 C 0.59895 0.98224 0.94297 0.0
C1287 C 0.59755 0.99602 0.93692 0.0
C1288 C 0.6076 0.01137 0.94673 0.0
C1289 C 0.61844 0.01284 0.96276 0.0
C1290 C 0.563 0.9999 0.91149 0.0
C1291 C 0.56241 0.9937 0.89117 0.0
C1292 C 0.57425 1.00038 0.92629 0.0
C1293 C 0.58505 0.99444 0.92131 0.0
C1294 C 0.58409 0.98758 0.90136 0.0
C1295 C 0.57292 0.98729 0.88636 0.0
H1296 H 0.63504 0.03622 0.0747 0.0
H1297 H 0.61383 0.98373 0.08652 0.0
H1298 H 0.61848 0.03802 0.10322 0.0
H1299 H 0.59777 0.98562 0.11545 0.0
H1300 H 0.5555 0.98993 0.14513 0.0
H1301 H 0.57418 0.98879 0.11936 0.0
H1302 H 0.61338 0.03671 0.14021 0.0
H1303 H 0.59443 0.03794 0.16583 0.0
C1304 C 0.62708 0.02513 0.08364 0.0
C1305 C 0.62563 0.0098 0.07819 0.0
C1306 C 0.61762 0.02616 0.10007 0.0
C1307 C 0.6066 0.01192 0.11152 0.0
C1308 C 0.60579 0.99677 0.10666 0.0
C1309 C 0.6151 0.9957 0.09014 0.0
C1310 C 0.56817 1.00014 0.1444 0.0
C1311 C 0.5735 0.014 0.15759 0.0
C1312 C 0.57893 0.99948 0.12963 0.0
C1313 C 0.59538 0.01261 0.12774 0.0
C1314 C 0.60076 0.02645 0.14104 0.0
C1315 C 0.58992 0.02716 0.15576 0.0
H1316 H 0.02373 0.62908 0.08328 0.0
H1317 H 0.97174 0.59887 0.06779 0.0
H1318 H 0.02003 0.61092 0.11275 0.0
H1319 H 0.96805 0.58073 0.09752 0.0
H1320 H 0.97615 0.54119 0.13222 0.0
H1321 H 0.97727 0.56051 0.10567 0.0
H1322 H 0.00641 0.60158 0.14733 0.0
H1323 H 1.00509 0.58222 0.17415 0.0
C1324 C 0.01146 0.61866 0.08628 0.0
C1325 C 0.99806 0.61538 0.07306 0.0
C1326 C 0.00932 0.60831 0.10328 0.0
C1327 C 0.99376 0.59435 0.10743 0.0
C1328 C 0.98023 0.5913 0.09458 0.0
C1329 C 0.98234 0.60174 0.07762 0.0
C1330 C 0.98252 0.5543 0.13595 0.0
C1331 C 0.99056 0.56012 0.15537 0.0
C1332 C 0.98316 0.56539 0.12068 0.0
C1333 C 0.99194 0.58258 0.12438 0.0
C1334 C 0.99971 0.58841 0.14392 0.0
C1335 C 0.99899 0.57731 0.15926 0.0
H1336 H 0.41225 0.37437 0.06863 0.0
H1337 H 0.38233 0.39591 0.08702 0.0
H1338 H 0.43106 0.38853 0.09793 0.0
H1339 H 0.40113 0.4101 0.116 0.0
H1340 H 0.43102 0.42399 0.17595 0.0
H1341 H 0.4112 0.40578 0.14966 0.0
H1342 H 0.4515 0.41767 0.10657 0.0
H1343 H 0.47129 0.43599 0.13269 0.0
C1344 C 0.40958 0.38197 0.07902 0.0
C1345 C 0.39582 0.38406 0.07539 0.0
C1346 C 0.42041 0.39016 0.09572 0.0
C1347 C 0.41763 0.40049 0.10926 0.0
C1348 C 0.40355 0.40211 0.10603 0.0
C1349 C 0.39282 0.39403 0.08929 0.0
C1350 C 0.43566 0.42273 0.16087 0.0
C1351 C 0.45276 0.43157 0.15642 0.0
C1352 C 0.4243 0.41226 0.14582 0.0
C1353 C 0.42976 0.41033 0.12598 0.0
C1354 C 0.44689 0.41871 0.12179 0.0
C1355 C 0.45825 0.42922 0.1368 0.0
H1356 H 0.69102 0.72904 0.41805 0.0
H1357 H 0.63952 0.71022 0.40217 0.0
H1358 H 0.68839 0.74438 0.44729 0.0
H1359 H 0.63701 0.72605 0.43111 0.0
H1360 H 0.63488 0.74746 0.49502 0.0
H1361 H 0.63664 0.72937 0.46848 0.0
H1362 H 0.68595 0.76842 0.452 0.0
H1363 H 0.68425 0.78625 0.47861 0.0
C1364 C 0.67911 0.72815 0.42081 0.0
C1365 C 0.66552 0.71848 0.40765 0.0
C1366 C 0.67762 0.73705 0.43753 0.0
C1367 C 0.66254 0.73667 0.44144 0.0
C1368 C 0.64878 0.72655 0.4287 0.0
C1369 C 0.65023 0.71752 0.41204 0.0
C1370 C 0.64608 0.75213 0.4857 0.0
C1371 C 0.65947 0.76825 0.48902 0.0
C1372 C 0.64709 0.74179 0.47046 0.0
C1373 C 0.66147 0.74737 0.45812 0.0
C1374 C 0.67482 0.76352 0.46149 0.0
C1375 C 0.67385 0.77379 0.47676 0.0
H1376 H 0.30008 0.93043 0.4023 0.0
H1377 H 0.27858 0.96072 0.41906 0.0
H1378 H 0.2858 0.91209 0.43194 0.0
H1379 H 0.2643 0.94238 0.44848 0.0
H1380 H 0.25097 0.91324 0.50956 0.0
H1381 H 0.26893 0.93273 0.48278 0.0
H1382 H 0.25629 0.89193 0.44029 0.0
H1383 H 0.23814 0.87248 0.46678 0.0
C1384 C 0.29246 0.93328 0.4124 0.0
C1385 C 0.2904 0.947 0.40821 0.0
C1386 C 0.28421 0.92273 0.4293 0.0
C1387 C 0.27388 0.92575 0.4425 0.0
C1388 C 0.27229 0.93979 0.43874 0.0
C1389 C 0.28041 0.95025 0.42176 0.0
C1390 C 0.25199 0.90841 0.4945 0.0
C1391 C 0.24302 0.89126 0.49035 0.0
C1392 C 0.26232 0.91959 0.47918 0.0
C1393 C 0.26401 0.91387 0.45941 0.0
C1394 C 0.25544 0.89671 0.45546 0.0
C1395 C 0.24504 0.88555 0.47071 0.0
H1396 H 0.0775 0.3729 0.4033 0.0
H1397 H 0.04465 0.32275 0.4245 0.0
H1398 H 0.09662 0.37688 0.43197 0.0
H1399 H 0.06367 0.3269 0.45333 0.0
H1400 H 0.09758 0.346 0.51192 0.0
H1401 H 0.07726 0.34567 0.48696 0.0
H1402 H 0.11398 0.36193 0.43767 0.0
H1403 H 0.13404 0.36189 0.46244 0.0
C1404 C 0.0742 0.36284 0.4143 0.0
C1405 C 0.05963 0.34746 0.41155 0.0
C1406 C 0.08517 0.36512 0.43064 0.0
C1407 C 0.08161 0.35218 0.44479 0.0
C1408 C 0.06664 0.3371 0.44271 0.0
C1409 C 0.05582 0.33471 0.42615 0.0
C1410 C 0.10129 0.34971 0.49581 0.0
C1411 C 0.11728 0.35395 0.48899 0.0
C1412 C 0.0897 0.34946 0.48157 0.0
C1413 C 0.0941 0.35381 0.46044 0.0
C1414 C 0.11033 0.35869 0.4539 0.0
C1415 C 0.12176 0.3586 0.468 0.0
H1416 H 0.03685 0.3043 0.30004 0.0
H1417 H 0.07238 0.35687 0.30244 0.0
H1418 H 0.05276 0.30117 0.27133 0.0
H1419 H 0.08814 0.3536 0.27424 0.0
H1420 H 0.12272 0.33586 0.24839 0.0
H1421 H 0.10426 0.33689 0.2746 0.0
H1422 H 0.06319 0.31322 0.23149 0.0
H1423 H 0.08188 0.31275 0.20459 0.0
C1424 C 0.04793 0.31517 0.29438 0.0
C1425 C 0.05339 0.33081 0.30365 0.0
C1426 C 0.05696 0.31337 0.27793 0.0
C1427 C 0.07171 0.32713 0.27077 0.0
C1428 C 0.07689 0.34278 0.27964 0.0
C1429 C 0.0678 0.34463 0.29576 0.0
C1430 C 0.10982 0.33105 0.24427 0.0
C1431 C 0.1039 0.32456 0.22414 0.0
C1432 C 0.09923 0.33153 0.25939 0.0
C1433 C 0.08238 0.3253 0.25496 0.0
C1434 C 0.07617 0.31809 0.23525 0.0
C1435 C 0.08686 0.31781 0.21991 0.0
H1436 H 0.70821 0.7413 0.30407 0.0
H1437 H 0.65596 0.71312 0.28909 0.0
H1438 H 0.71253 0.76001 0.27478 0.0
H1439 H 0.6603 0.73183 0.26001 0.0
H1440 H 0.67576 0.76107 0.19915 0.0
H1441 H 0.67397 0.74108 0.22532 0.0
H1442 H 0.70436 0.78128 0.26751 0.0
H1443 H 0.70593 0.80125 0.24161 0.0
C1444 C 0.69769 0.73898 0.29441 0.0
C1445 C 0.68172 0.72576 0.29901 0.0
C1446 C 0.70016 0.74976 0.27772 0.0
C1447 C 0.68675 0.74744 0.26513 0.0
C1448 C 0.67091 0.73387 0.26928 0.0
C1449 C 0.66842 0.7232 0.28605 0.0
C1450 C 0.68204 0.76567 0.21402 0.0
C1451 C 0.6909 0.78281 0.21828 0.0
C1452 C 0.68105 0.7542 0.22898 0.0
C1453 C 0.68898 0.7596 0.2485 0.0
C1454 C 0.69829 0.77673 0.25251 0.0
C1455 C 0.6992 0.78819 0.23762 0.0
H1456 H 0.26519 0.96714 0.3057 0.0
H1457 H 0.29433 0.94434 0.28901 0.0
H1458 H 0.2467 0.95316 0.2761 0.0
H1459 H 0.27583 0.93036 0.25965 0.0
H1460 H 0.20628 0.9059 0.24117 0.0
H1461 H 0.2259 0.9239 0.26763 0.0
H1462 H 0.26656 0.93529 0.22539 0.0
H1463 H 0.24691 0.91747 0.1987 0.0
C1464 C 0.26776 0.95929 0.29562 0.0
C1465 C 0.2812 0.9568 0.29981 0.0
C1466 C 0.25711 0.95122 0.27874 0.0
C1467 C 0.25977 0.94061 0.26557 0.0
C1468 C 0.27353 0.93857 0.26936 0.0
C1469 C 0.28408 0.94652 0.2863 0.0
C1470 C 0.21937 0.91251 0.2373 0.0
C1471 C 0.22499 0.91015 0.21778 0.0
C1472 C 0.23063 0.92282 0.25252 0.0
C1473 C 0.24779 0.93096 0.24865 0.0
C1474 C 0.25342 0.92899 0.22895 0.0
C1475 C 0.24215 0.91875 0.21368 0.0
H1476 H 0.70905 0.96694 0.30567 0.0
H1477 H 0.6572 0.9444 0.28905 0.0
H1478 H 0.71348 0.95272 0.27622 0.0
H1479 H 0.66164 0.93018 0.25982 0.0
H1480 H 0.67768 0.91683 0.19903 0.0
H1481 H 0.67592 0.93487 0.22552 0.0
H1482 H 0.70475 0.92326 0.26813 0.0
H1483 H 0.70628 0.90502 0.24189 0.0
C1484 C 0.69864 0.95911 0.29563 0.0
C1485 C 0.68275 0.95675 0.2998 0.0
C1486 C 0.70117 0.95089 0.27884 0.0
C1487 C 0.6879 0.94028 0.26574 0.0
C1488 C 0.67216 0.93839 0.26949 0.0
C1489 C 0.66959 0.94647 0.28635 0.0
C1490 C 0.68363 0.9181 0.21405 0.0
C1491 C 0.69204 0.90936 0.21832 0.0
C1492 C 0.68266 0.92848 0.2292 0.0
C1493 C 0.69016 0.93046 0.24894 0.0
C1494 C 0.69903 0.92218 0.25298 0.0
C1495 C 0.69992 0.91172 0.23789 0.0
H1496 H 0.06273 0.71591 0.28822 0.0
H1497 H 0.03853 0.74437 0.3012 0.0
H1498 H 0.07743 0.7342 0.25891 0.0
H1499 H 0.05326 0.76266 0.27169 0.0
H1500 H 0.1018 0.80348 0.23922 0.0
H1501 H 0.08291 0.78377 0.26499 0.0
H1502 H 0.07355 0.74319 0.22366 0.0
H1503 H 0.09221 0.76292 0.19758 0.0
C1504 C 0.06038 0.72595 0.28467 0.0
C1505 C 0.04952 0.72873 0.29716 0.0
C1506 C 0.06875 0.73638 0.26777 0.0
C1507 C 0.06657 0.74992 0.26303 0.0
C1508 C 0.05532 0.75242 0.2751 0.0
C1509 C 0.04682 0.74188 0.29192 0.0
C1510 C 0.09545 0.79039 0.23536 0.0
C1511 C 0.09862 0.78483 0.2163 0.0
C1512 C 0.08463 0.77908 0.25019 0.0
C1513 C 0.07678 0.76192 0.2464 0.0
C1514 C 0.07958 0.75634 0.22714 0.0
C1515 C 0.09033 0.76766 0.21224 0.0
H1516 H 0.29967 0.3505 0.28456 0.0
H1517 H 0.26355 0.30253 0.30912 0.0
H1518 H 0.28092 0.34702 0.25571 0.0
H1519 H 0.24467 0.29923 0.28037 0.0
H1520 H 0.21062 0.31727 0.2472 0.0
H1521 H 0.22981 0.31635 0.27265 0.0
H1522 H 0.2658 0.32757 0.22339 0.0
H1523 H 0.24636 0.32818 0.19777 0.0
C1524 C 0.28781 0.33913 0.28366 0.0
C1525 C 0.28304 0.32683 0.29917 0.0
C1526 C 0.27713 0.33711 0.26707 0.0
C1527 C 0.26135 0.32289 0.26587 0.0
C1528 C 0.25676 0.31034 0.281 0.0
C1529 C 0.26758 0.31221 0.29738 0.0
C1530 C 0.22257 0.31936 0.24181 0.0
C1531 C 0.22709 0.32286 0.2206 0.0
C1532 C 0.23348 0.31872 0.25631 0.0
C1533 C 0.24926 0.32187 0.24996 0.0
C1534 C 0.2537 0.32512 0.22866 0.0
C1535 C 0.24261 0.32542 0.21404 0.0
H1536 H 0.288 0.32097 0.42235 0.0
H1537 H 0.29538 0.36775 0.39896 0.0
H1538 H 0.27311 0.32308 0.45252 0.0
H1539 H 0.27973 0.36953 0.42862 0.0
H1540 H 0.25764 0.37309 0.49017 0.0
H1541 H 0.27737 0.37304 0.46497 0.0
H1542 H 0.24699 0.31974 0.45912 0.0
H1543 H 0.22804 0.3197 0.48524 0.0
C1544 C 0.28645 0.33174 0.4237 0.0
C1545 C 0.29273 0.34412 0.40819 0.0
C1546 C 0.2778 0.33291 0.44093 0.0
C1547 C 0.2749 0.34633 0.44292 0.0
C1548 C 0.2818 0.35908 0.4278 0.0
C1549 C 0.29073 0.35804 0.4107 0.0
C1550 C 0.25539 0.36132 0.48386 0.0
C1551 C 0.24114 0.34641 0.48967 0.0
C1552 C 0.2666 0.36132 0.46915 0.0
C1553 C 0.2638 0.34641 0.45982 0.0
C1554 C 0.24977 0.33148 0.46609 0.0
C1555 C 0.23869 0.33147 0.48089 0.0
H1556 H 0.69008 0.96097 0.41842 0.0
H1557 H 0.63803 0.93117 0.40301 0.0
H1558 H 0.68628 0.94256 0.44765 0.0
H1559 H 0.63424 0.9128 0.43249 0.0
H1560 H 0.64188 0.87272 0.46639 0.0
H1561 H 0.64321 0.89234 0.44016 0.0
H1562 H 0.67269 0.93299 0.48223 0.0
H1563 H 0.67115 0.91332 0.50874 0.0
C1564 C 0.67778 0.9506 0.42139 0.0
C1565 C 0.66438 0.9475 0.40826 0.0
C1566 C 0.67558 0.9401 0.43826 0.0
C1567 C 0.65997 0.92618 0.44234 0.0
C1568 C 0.64646 0.92333 0.42959 0.0
C1569 C 0.64862 0.93391 0.41279 0.0
C1570 C 0.64837 0.8858 0.47028 0.0
C1571 C 0.65643 0.89141 0.48972 0.0
C1572 C 0.64914 0.89707 0.45519 0.0
C1573 C 0.65807 0.91423 0.45909 0.0
C1574 C 0.66588 0.91985 0.47866 0.0
C1575 C 0.66503 0.90857 0.49382 0.0
H1576 H 0.06242 0.70325 0.41603 0.0
H1577 H 0.0608 0.74733 0.39898 0.0
H1578 H 0.07977 0.71781 0.44624 0.0
H1579 H 0.07894 0.76223 0.42801 0.0
H1580 H 0.10119 0.78357 0.48957 0.0
H1581 H 0.08132 0.76645 0.4633 0.0
H1582 H 0.10578 0.73743 0.45759 0.0
H1583 H 0.12451 0.75339 0.48569 0.0
C1584 C 0.0659 0.7161 0.41867 0.0
C1585 C 0.06016 0.72411 0.40523 0.0
C1586 C 0.07596 0.72453 0.43592 0.0
C1587 C 0.08083 0.74129 0.43984 0.0
C1588 C 0.07517 0.74926 0.42609 0.0
C1589 C 0.06483 0.74073 0.40923 0.0
C1590 C 0.10213 0.77327 0.48325 0.0
C1591 C 0.11469 0.77007 0.48993 0.0
C1592 C 0.09085 0.76359 0.46769 0.0
C1593 C 0.092 0.75064 0.45781 0.0
C1594 C 0.10431 0.74717 0.46478 0.0
C1595 C 0.11535 0.75661 0.48075 0.0
H1596 H 0.30273 0.04067 0.73703 0.0
H1597 H 0.35425 0.06262 0.75497 0.0
H1598 H 0.298 0.05475 0.76642 0.0
H1599 H 0.34955 0.07673 0.78406 0.0
H1600 H 0.30488 0.10219 0.80097 0.0
H1601 H 0.30651 0.0839 0.77488 0.0
H1602 H 0.33519 0.07238 0.81787 0.0
H1603 H 0.33341 0.09055 0.84415 0.0
C1604 C 0.313 0.04833 0.74735 0.0
C1605 C 0.32889 0.05058 0.74355 0.0
C1606 C 0.31031 0.05648 0.7641 0.0
C1607 C 0.32341 0.06691 0.77753 0.0
C1608 C 0.33914 0.06866 0.77416 0.0
C1609 C 0.34186 0.06063 0.75737 0.0
C1610 C 0.31124 0.0955 0.80507 0.0
C1611 C 0.31908 0.09794 0.82467 0.0
C1612 C 0.31218 0.08501 0.79007 0.0
C1613 C 0.32104 0.07674 0.79425 0.0
C1614 C 0.32847 0.07877 0.81405 0.0
C1615 C 0.32748 0.08921 0.82909 0.0
H1616 H 0.96298 0.25705 0.73386 0.0
H1617 H 0.95842 0.29743 0.76005 0.0
H1618 H 0.94773 0.23963 0.76372 0.0
H1619 H 0.94395 0.28042 0.79034 0.0
H1620 H 0.89833 0.23949 0.82301 0.0
H1621 H 0.91731 0.25825 0.79683 0.0
H1622 H 0.94593 0.23327 0.80008 0.0
H1623 H 0.92617 0.21372 0.82545 0.0
C1624 C 0.95908 0.26232 0.74626 0.0
C1625 C 0.96169 0.27851 0.74449 0.0
C1626 C 0.95038 0.25236 0.76345 0.0
C1627 C 0.94433 0.25849 0.77936 0.0
C1628 C 0.94796 0.27509 0.77814 0.0
C1629 C 0.95638 0.2849 0.76083 0.0
C1630 C 0.9086 0.2379 0.81809 0.0
C1631 C 0.91057 0.22494 0.8262 0.0
C1632 C 0.9197 0.24888 0.80326 0.0
C1633 C 0.93325 0.24736 0.79626 0.0
C1634 C 0.93554 0.23471 0.80487 0.0
C1635 C 0.92432 0.22362 0.81964 0.0
H1636 H 0.71033 0.65326 0.75693 0.0
H1637 H 0.74471 0.70321 0.73642 0.0
H1638 H 0.72883 0.65655 0.78609 0.0
H1639 H 0.76332 0.7063 0.76536 0.0
H1640 H 0.79902 0.68952 0.79688 0.0
H1641 H 0.7795 0.6898 0.77137 0.0
H1642 H 0.74257 0.67567 0.8201 0.0
H1643 H 0.76237 0.67581 0.84581 0.0
C1644 C 0.72174 0.66499 0.75879 0.0
C1645 C 0.72611 0.67795 0.74432 0.0
C1646 C 0.73226 0.66689 0.77552 0.0
C1647 C 0.74748 0.68165 0.77787 0.0
C1648 C 0.75165 0.69478 0.76381 0.0
C1649 C 0.74097 0.69302 0.74732 0.0
C1650 C 0.78679 0.68667 0.80213 0.0
C1651 C 0.78212 0.68263 0.8232 0.0
C1652 C 0.77568 0.68691 0.78762 0.0
C1653 C 0.75957 0.68278 0.79382 0.0
C1654 C 0.75493 0.67889 0.81497 0.0
C1655 C 0.76621 0.67901 0.82962 0.0
H1656 H 0.70325 0.63685 0.63156 0.0
H1657 H 0.73896 0.68931 0.63417 0.0
H1658 H 0.71754 0.6341 0.60088 0.0
H1659 H 0.75347 0.6865 0.60434 0.0
H1660 H 0.77107 0.68161 0.54163 0.0
H1661 H 0.75241 0.68227 0.56801 0.0
H1662 H 0.74247 0.63443 0.59111 0.0
H1663 H 0.76064 0.63357 0.56399 0.0
C1664 C 0.71412 0.64778 0.62561 0.0
C1665 C 0.71992 0.6633 0.63532 0.0
C1666 C 0.72238 0.6462 0.60808 0.0
C1667 C 0.73666 0.66009 0.59998 0.0
C1668 C 0.74233 0.67558 0.60972 0.0
C1669 C 0.73404 0.67717 0.62703 0.0
C1670 C 0.76469 0.67116 0.55219 0.0
C1671 C 0.76736 0.6576 0.5509 0.0
C1672 C 0.75409 0.67156 0.56743 0.0
C1673 C 0.74612 0.65854 0.58202 0.0
C1674 C 0.74825 0.64462 0.58008 0.0
C1675 C 0.7587 0.64413 0.56459 0.0
H1676 H 0.32408 0.04827 0.6246 0.0
H1677 H 0.37569 0.07838 0.64188 0.0
H1678 H 0.32834 0.06681 0.59539 0.0
H1679 H 0.37998 0.0969 0.61238 0.0
H1680 H 0.37262 0.13675 0.57702 0.0
H1681 H 0.37115 0.11725 0.60359 0.0
H1682 H 0.3425 0.07643 0.56136 0.0
H1683 H 0.34412 0.09595 0.5346 0.0
C1684 C 0.33639 0.05875 0.62206 0.0
C1685 C 0.34952 0.06188 0.63569 0.0
C1686 C 0.33886 0.06933 0.60519 0.0
C1687 C 0.35449 0.08336 0.60157 0.0
C1688 C 0.36774 0.08629 0.61489 0.0
C1689 C 0.3653 0.07562 0.63171 0.0
C1690 C 0.36629 0.12365 0.57319 0.0
C1691 C 0.35843 0.11794 0.55365 0.0
C1692 C 0.36544 0.11246 0.58847 0.0
C1693 C 0.35665 0.09528 0.58463 0.0
C1694 C 0.34916 0.08958 0.56492 0.0
C1695 C 0.35007 0.10077 0.5496 0.0
H1696 H 0.93203 0.29618 0.64324 0.0
H1697 H 0.96101 0.27365 0.6246 0.0
H1698 H 0.91312 0.28243 0.61391 0.0
H1699 H 0.94209 0.25987 0.59556 0.0
H1700 H 0.91288 0.24795 0.53502 0.0
H1701 H 0.93267 0.26525 0.56191 0.0
H1702 H 0.8922 0.2535 0.60463 0.0
H1703 H 0.87243 0.23606 0.57792 0.0
C1704 C 0.93445 0.28841 0.63283 0.0
C1705 C 0.94801 0.28597 0.63635 0.0
C1706 C 0.92356 0.28047 0.6161 0.0
C1707 C 0.92608 0.27004 0.60242 0.0
C1708 C 0.93989 0.26797 0.60564 0.0
C1709 C 0.95068 0.27579 0.62241 0.0
C1710 C 0.90819 0.24904 0.55015 0.0
C1711 C 0.89104 0.2405 0.55431 0.0
C1712 C 0.91954 0.25898 0.56554 0.0
C1713 C 0.91401 0.26069 0.58544 0.0
C1714 C 0.89685 0.25262 0.58938 0.0
C1715 C 0.88551 0.24262 0.57403 0.0
H1716 H 0.32338 0.28086 0.62176 0.0
H1717 H 0.37384 0.29758 0.641 0.0
H1718 H 0.32662 0.26597 0.59248 0.0
H1719 H 0.37695 0.28222 0.61186 0.0
H1720 H 0.38002 0.26148 0.54733 0.0
H1721 H 0.37831 0.27958 0.57394 0.0
H1722 H 0.32833 0.24124 0.58887 0.0
H1723 H 0.33 0.22335 0.56238 0.0
C1724 C 0.33521 0.28141 0.6197 0.0
C1725 C 0.3483 0.29028 0.63387 0.0
C1726 C 0.33704 0.27277 0.60295 0.0
C1727 C 0.35195 0.27265 0.59998 0.0
C1728 C 0.36532 0.28211 0.61361 0.0
C1729 C 0.36352 0.29088 0.63036 0.0
C1730 C 0.36868 0.25696 0.55633 0.0
C1731 C 0.35509 0.24102 0.55259 0.0
C1732 C 0.36771 0.26731 0.57159 0.0
C1733 C 0.35314 0.26194 0.58345 0.0
C1734 C 0.33961 0.24597 0.57971 0.0
C1735 C 0.34056 0.23568 0.56449 0.0
H1736 H 0.72936 0.04781 0.62251 0.0
H1737 H 0.70795 0.07787 0.64082 0.0
H1738 H 0.74306 0.0662 0.593 0.0
H1739 H 0.72162 0.09627 0.61099 0.0
H1740 H 0.75625 0.0954 0.53257 0.0
H1741 H 0.73818 0.07586 0.55922 0.0
H1742 H 0.75078 0.11659 0.60184 0.0
H1743 H 0.76898 0.13609 0.57539 0.0
C1744 C 0.72741 0.05824 0.62011 0.0
C1745 C 0.71764 0.06142 0.63415 0.0
C1746 C 0.73518 0.06873 0.60307 0.0
C1747 C 0.73347 0.08273 0.59966 0.0
C1748 C 0.72331 0.08567 0.61332 0.0
C1749 C 0.71541 0.07507 0.63034 0.0
C1750 C 0.75516 0.10019 0.54761 0.0
C1751 C 0.76417 0.11733 0.55184 0.0
C1752 C 0.74477 0.089 0.56287 0.0
C1753 C 0.74309 0.09467 0.58268 0.0
C1754 C 0.75162 0.11183 0.58665 0.0
C1755 C 0.76206 0.12302 0.57144 0.0
H1756 H 0.94103 0.6362 0.62716 0.0
H1757 H 0.95657 0.6882 0.63462 0.0
H1758 H 0.92219 0.63415 0.59885 0.0
H1759 H 0.93776 0.68599 0.60676 0.0
H1760 H 0.88563 0.66859 0.58085 0.0
H1761 H 0.90534 0.66914 0.60627 0.0
H1762 H 0.92334 0.64754 0.56069 0.0
H1763 H 0.90396 0.64756 0.53463 0.0
C1764 C 0.94056 0.64719 0.62267 0.0
C1765 C 0.95022 0.66232 0.63329 0.0
C1766 C 0.92983 0.64601 0.60645 0.0
C1767 C 0.92843 0.65988 0.60083 0.0
C1768 C 0.93847 0.67507 0.61097 0.0
C1769 C 0.94929 0.67631 0.6269 0.0
C1770 C 0.89391 0.66416 0.57601 0.0
C1771 C 0.89338 0.65834 0.55547 0.0
C1772 C 0.90512 0.66437 0.59067 0.0
C1773 C 0.91595 0.65854 0.58535 0.0
C1774 C 0.91508 0.65208 0.56516 0.0
C1775 C 0.90395 0.65207 0.5503 0.0
H1776 H 0.93664 0.6466 0.74126 0.0
H1777 H 0.97222 0.69899 0.7467 0.0
H1778 H 0.92057 0.64886 0.76988 0.0
H1779 H 0.95597 0.70115 0.77562 0.0
H1780 H 0.9272 0.69114 0.84028 0.0
H1781 H 0.94564 0.6901 0.81355 0.0
H1782 H 0.90384 0.66361 0.77209 0.0
H1783 H 0.88558 0.66506 0.7982 0.0
C1784 C 0.94115 0.6586 0.74867 0.0
C1785 C 0.95568 0.67266 0.74152 0.0
C1786 C 0.93187 0.65987 0.76503 0.0
C1787 C 0.93694 0.6752 0.77482 0.0
C1788 C 0.95181 0.68916 0.76836 0.0
C1789 C 0.96107 0.68793 0.75177 0.0
C1790 C 0.92197 0.68525 0.82538 0.0
C1791 C 0.90482 0.67797 0.82157 0.0
C1792 C 0.93254 0.68464 0.81012 0.0
C1793 C 0.92612 0.67659 0.79088 0.0
C1794 C 0.90908 0.66959 0.78696 0.0
C1795 C 0.89859 0.67036 0.80202 0.0
H1796 H 0.30225 0.26372 0.73569 0.0
H1797 H 0.35388 0.29321 0.75322 0.0
H1798 H 0.2976 0.24508 0.76518 0.0
H1799 H 0.34924 0.27456 0.78245 0.0
H1800 H 0.33298 0.24533 0.84308 0.0
H1801 H 0.33479 0.26502 0.81644 0.0
H1802 H 0.3062 0.22444 0.77387 0.0
H1803 H 0.30457 0.20478 0.80031 0.0
C1804 C 0.31256 0.26633 0.74592 0.0
C1805 C 0.32846 0.27992 0.74201 0.0
C1806 C 0.30991 0.25559 0.76274 0.0
C1807 C 0.32306 0.25831 0.77612 0.0
C1808 C 0.33881 0.2722 0.77259 0.0
C1809 C 0.34149 0.28284 0.75572 0.0
C1810 C 0.32708 0.2406 0.82804 0.0
C1811 C 0.31871 0.22345 0.82383 0.0
C1812 C 0.32809 0.25188 0.8128 0.0
C1813 C 0.32069 0.24629 0.79301 0.0
C1814 C 0.31185 0.22913 0.78905 0.0
C1815 C 0.3109 0.21785 0.80425 0.0
H1816 H 0.71577 0.06412 0.75362 0.0
H1817 H 0.74611 0.04293 0.73571 0.0
H1818 H 0.73425 0.07821 0.78298 0.0
H1819 H 0.76457 0.057 0.76529 0.0
H1820 H 0.76347 0.09059 0.84409 0.0
H1821 H 0.74395 0.07327 0.81696 0.0
H1822 H 0.78476 0.08624 0.77434 0.0
H1823 H 0.80423 0.10375 0.8012 0.0
C1824 C 0.72629 0.06233 0.75604 0.0
C1825 C 0.72949 0.05245 0.7422 0.0
C1826 C 0.73684 0.07034 0.77298 0.0
C1827 C 0.75091 0.06876 0.77645 0.0
C1828 C 0.75392 0.05859 0.76291 0.0
C1829 C 0.74328 0.05046 0.74603 0.0
C1830 C 0.76829 0.08979 0.82893 0.0
C1831 C 0.78546 0.09864 0.82489 0.0
C1832 C 0.7571 0.07983 0.81339 0.0
C1833 C 0.7628 0.07838 0.79349 0.0
C1834 C 0.77997 0.08688 0.78961 0.0
C1835 C 0.79115 0.09691 0.80507 0.0
H1836 H 0.07221 0.37549 0.03209 0.0
H1837 H 0.02904 0.3312 0.05477 0.0
H1838 H 0.09019 0.36647 0.04832 0.0
H1839 H 0.04713 0.32237 0.07143 0.0
H1840 H 0.08819 0.33121 0.12273 0.0
H1841 H 0.0686 0.33612 0.10265 0.0
H1842 H 0.09657 0.34181 0.04614 0.0
H1843 H 0.11602 0.33658 0.06618 0.0
C1844 C 0.06656 0.36373 0.04033 0.0
C1845 C 0.04922 0.35405 0.04217 0.0
C1846 C 0.07686 0.35855 0.04955 0.0
C1847 C 0.07004 0.34376 0.06118 0.0
C1848 C 0.05269 0.33386 0.06261 0.0
C1849 C 0.04236 0.33887 0.05298 0.0
C1850 C 0.09003 0.33335 0.10598 0.0
C1851 C 0.1036 0.33354 0.09598 0.0
C1852 C 0.07878 0.33605 0.09449 0.0
C1853 C 0.08108 0.33932 0.07286 0.0
C1854 C 0.09454 0.33933 0.0628 0.0
C1855 C 0.1056 0.33628 0.07422 0.0
H1856 H 0.67532 0.70107 0.04768 0.0
H1857 H 0.62518 0.69176 0.04092 0.0
H1858 H 0.68313 0.72737 0.06522 0.0
H1859 H 0.63303 0.71813 0.05776 0.0
H1860 H 0.64609 0.75456 0.11135 0.0
H1861 H 0.63964 0.72936 0.09229 0.0
H1862 H 0.68743 0.75511 0.06156 0.0
H1863 H 0.69397 0.78034 0.08101 0.0
C1864 C 0.66604 0.70477 0.04961 0.0
C1865 C 0.6496 0.69427 0.04306 0.0
C1866 C 0.67052 0.71986 0.05963 0.0
C1867 C 0.65865 0.7248 0.06319 0.0
C1868 C 0.6424 0.71457 0.05579 0.0
C1869 C 0.63792 0.69948 0.04595 0.0
C1870 C 0.65518 0.75488 0.10043 0.0
C1871 C 0.67049 0.76948 0.0976 0.0
C1872 C 0.65147 0.74043 0.08943 0.0
C1873 C 0.66293 0.74021 0.07517 0.0
C1874 C 0.67836 0.75477 0.07254 0.0
C1875 C 0.68211 0.76924 0.08367 0.0
H1876 H 0.31567 0.93605 0.03946 0.0
H1877 H 0.30748 0.9776 0.047 0.0
H1878 H 0.28879 0.91774 0.05537 0.0
H1879 H 0.28039 0.95914 0.06288 0.0
H1880 H 0.2454 0.92429 0.11585 0.0
H1881 H 0.27036 0.9433 0.09636 0.0
H1882 H 0.25875 0.90546 0.04954 0.0
H1883 H 0.23369 0.88652 0.06881 0.0
C1884 C 0.30804 0.94125 0.04427 0.0
C1885 C 0.31374 0.9583 0.042 0.0
C1886 C 0.29258 0.93072 0.05332 0.0
C1887 C 0.28246 0.93698 0.06045 0.0
C1888 C 0.28798 0.95397 0.05773 0.0
C1889 C 0.30342 0.96451 0.04849 0.0
C1890 C 0.24801 0.9201 0.10123 0.0
C1891 C 0.23757 0.9038 0.09402 0.0
C1892 C 0.26233 0.93101 0.09005 0.0
C1893 C 0.26658 0.92587 0.07144 0.0
C1894 C 0.25596 0.90972 0.06398 0.0
C1895 C 0.24162 0.89884 0.07509 0.0
H1896 H 0.38361 0.07319 1.00587 0.0
H1897 H 0.33387 0.03219 0.99685 0.0
H1898 H 0.37592 0.09179 0.98893 0.0
H1899 H 0.32624 0.05079 0.97928 0.0
H1900 H 0.31549 0.09287 0.9626 0.0
H1901 H 0.32168 0.07423 0.9827 0.0
H1902 H 0.37016 0.09641 0.9538 0.0
H1903 H 0.36404 0.11506 0.93401 0.0
C1904 C 0.37098 0.06815 1.00038 0.0
C1905 C 0.35938 0.05118 1.00259 0.0
C1906 C 0.3666 0.07881 0.99049 0.0
C1907 C 0.35054 0.07276 0.98238 0.0
C1908 C 0.3387 0.0559 0.9854 0.0
C1909 C 0.34307 0.04522 0.99545 0.0
C1910 C 0.32742 0.09367 0.96047 0.0
C1911 C 0.33932 0.10554 0.94682 0.0
C1912 C 0.33097 0.08298 0.97199 0.0
C1913 C 0.34649 0.08391 0.97007 0.0
C1914 C 0.35824 0.09561 0.95611 0.0
C1915 C 0.35472 0.10629 0.94469 0.0
H1916 H 0.93771 0.3168 0.99556 0.0
H1917 H 0.97398 0.3015 1.00622 0.0
H1918 H 0.91942 0.29037 0.97898 0.0
H1919 H 0.95529 0.27458 0.99026 0.0
H1920 H 0.92635 0.23707 0.93749 0.0
H1921 H 0.94463 0.26232 0.95703 0.0
H1922 H 0.90172 0.26187 0.98404 0.0
H1923 H 0.88359 0.23705 0.96387 0.0
C1924 C 0.94168 0.30766 0.99471 0.0
C1925 C 0.95735 0.31131 1.00221 0.0
C1926 C 0.9311 0.29239 0.98526 0.0
C1927 C 0.9358 0.28023 0.98321 0.0
C1928 C 0.95132 0.28371 0.99124 0.0
C1929 C 0.96199 0.29909 1.00058 0.0
C1930 C 0.92088 0.24236 0.94771 0.0
C1931 C 0.90356 0.2352 0.94901 0.0
C1932 C 0.93134 0.25679 0.95903 0.0
C1933 C 0.92471 0.26428 0.97211 0.0
C1934 C 0.90733 0.25675 0.9738 0.0
C1935 C 0.89691 0.24247 0.96229 0.0
H1936 H 0.68897 0.62186 0.98603 0.0
H1937 H 0.70706 0.67235 0.00638 0.0
H1938 H 0.71572 0.62987 0.97055 0.0
H1939 H 0.73434 0.68035 0.9916 0.0
H1940 H 0.77425 0.69164 0.94071 0.0
H1941 H 0.74859 0.68485 0.95925 0.0
H1942 H 0.74322 0.63761 0.97756 0.0
H1943 H 0.76838 0.64421 0.95824 0.0
C1944 C 0.69878 0.63466 0.98752 0.0
C1945 C 0.69587 0.64646 0.99747 0.0
C1946 C 0.71424 0.63926 0.97873 0.0
C1947 C 0.72734 0.65578 0.97986 0.0
C1948 C 0.72451 0.66757 0.99015 0.0
C1949 C 0.70891 0.66297 0.99878 0.0
C1950 C 0.76758 0.67988 0.94885 0.0
C1951 C 0.77316 0.66837 0.94787 0.0
C1952 C 0.75292 0.67599 0.95958 0.0
C1953 C 0.74365 0.66058 0.96979 0.0
C1954 C 0.74971 0.6494 0.96945 0.0
C1955 C 0.76419 0.65319 0.95847 0.0
H1956 H 0.97495 0.67492 1.00427 0.0
H1957 H 0.94034 0.62366 0.98935 0.0
H1958 H 0.95571 0.68299 0.98958 0.0
H1959 H 0.92156 0.63168 0.97404 0.0
H1960 H 0.88419 0.64729 0.96186 0.0
H1961 H 0.90296 0.64109 0.98129 0.0
H1962 H 0.9449 0.68574 0.95686 0.0
H1963 H 0.92591 0.6922 0.93807 0.0
C1964 C 0.96323 0.66538 0.99792 0.0
C1965 C 0.95917 0.64865 0.99805 0.0
C1966 C 0.95225 0.67001 0.98935 0.0
C1967 C 0.93701 0.65801 0.9806 0.0
C1968 C 0.93297 0.64127 0.98099 0.0
C1969 C 0.94383 0.63665 0.98968 0.0
C1970 C 0.89742 0.65581 0.96076 0.0
C1971 C 0.90361 0.67014 0.94832 0.0
C1972 C 0.90822 0.65223 0.97181 0.0
C1973 C 0.92552 0.66278 0.97047 0.0
C1974 C 0.93168 0.67741 0.95848 0.0
C1975 C 0.92082 0.68109 0.94762 0.0
H1976 H 0.38417 0.31514 1.00024 0.0
H1977 H 0.33408 0.30628 0.99489 0.0
H1978 H 0.37562 0.28828 0.98424 0.0
H1979 H 0.32549 0.27921 0.97885 0.0
H1980 H 0.3518 0.23291 0.97202 0.0
H1981 H 0.35808 0.25815 0.991 0.0
H1982 H 0.33094 0.26909 0.94486 0.0
H1983 H 0.32488 0.24397 0.92558 0.0
C1984 C 0.37128 0.30738 0.99584 0.0
C1985 C 0.35981 0.31287 0.99882 0.0
C1986 C 0.36636 0.29193 0.98675 0.0
C1987 C 0.34988 0.28161 0.98024 0.0
C1988 C 0.33831 0.28695 0.98354 0.0
C1989 C 0.34321 0.30238 0.99286 0.0
C1990 C 0.34725 0.24073 0.9658 0.0
C1991 C 0.33796 0.23644 0.94712 0.0
C1992 C 0.3508 0.25517 0.97675 0.0
C1993 C 0.34506 0.26565 0.9694 0.0
C1994 C 0.33538 0.26117 0.95106 0.0
C1995 C 0.3319 0.24676 0.94002 0.0
H1996 H 0.69931 0.07193 0.00925 0.0
H1997 H 0.7051 0.0293 0.99766 0.0
H1998 H 0.7261 0.08985 0.99289 0.0
H1999 H 0.7321 0.04736 0.98132 0.0
H2000 H 0.76671 0.08299 0.9285 0.0
H2001 H 0.74195 0.06408 0.94843 0.0
H2002 H 0.7561 0.1008 0.99741 0.0
H2003 H 0.78094 0.11963 0.9777 0.0
C2004 C 0.70641 0.0664 1.00346 0.0
C2005 C 0.70005 0.04917 1.00472 0.0
C2006 C 0.72182 0.0767 0.99415 0.0
C2007 C 0.73122 0.07003 0.98574 0.0
C2008 C 0.72507 0.05285 0.98747 0.0
C2009 C 0.70967 0.04253 0.99697 0.0
C2010 C 0.7647 0.08694 0.94368 0.0
C2011 C 0.77578 0.10291 0.95138 0.0
C2012 C 0.7505 0.07608 0.95511 0.0
C2013 C 0.74701 0.08097 0.97446 0.0
C2014 C 0.7583 0.09676 0.9824 0.0
C2015 C 0.77251 0.10757 0.97105 0.0
H2016 H 0.67942 0.97747 0.0474 0.0
H2017 H 0.63015 0.93586 0.03754 0.0
H2018 H 0.6878 0.95886 0.0634 0.0
H2019 H 0.63844 0.9174 0.05361 0.0
H2020 H 0.68677 0.92344 0.11627 0.0
H2021 H 0.68131 0.94265 0.09643 0.0
H2022 H 0.6563 0.90522 0.0488 0.0
H2023 H 0.66188 0.88607 0.06848 0.0
C2024 C 0.67045 0.96434 0.0484 0.0
C2025 C 0.65411 0.95815 0.04124 0.0
C2026 C 0.67521 0.95371 0.05771 0.0
C2027 C 0.66377 0.93666 0.05987 0.0
C2028 C 0.64762 0.93042 0.05202 0.0
C2029 C 0.64284 0.94104 0.04287 0.0
C2030 C 0.68034 0.91939 0.10141 0.0
C2031 C 0.67465 0.90314 0.09408 0.0
C2032 C 0.67722 0.93041 0.09002 0.0
C2033 C 0.66831 0.92544 0.07107 0.0
C2034 C 0.66298 0.90935 0.0635 0.0
C2035 C 0.66613 0.89836 0.07483 0.0
H2036 H 0.03416 0.70307 0.04552 0.0
H2037 H 0.07515 0.69404 0.03794 0.0
H2038 H 0.05259 0.72934 0.06311 0.0
H2039 H 0.09358 0.72036 0.0549 0.0
H2040 H 0.11652 0.75615 0.10925 0.0
H2041 H 0.09791 0.73114 0.08984 0.0
H2042 H 0.0761 0.75722 0.05945 0.0
H2043 H 0.09469 0.78229 0.07919 0.0
C2044 C 0.04715 0.70683 0.04727 0.0
C2045 C 0.05316 0.69641 0.04049 0.0
C2046 C 0.05773 0.7219 0.05732 0.0
C2047 C 0.07454 0.72687 0.06072 0.0
C2048 C 0.08063 0.71675 0.05305 0.0
C2049 C 0.07008 0.70169 0.04315 0.0
C2050 C 0.10783 0.75659 0.09833 0.0
C2051 C 0.10717 0.77125 0.09567 0.0
C2052 C 0.09717 0.74225 0.08713 0.0
C2053 C 0.0856 0.74218 0.07287 0.0
C2054 C 0.08476 0.75678 0.07042 0.0
C2055 C 0.09541 0.77115 0.08172 0.0
H2056 H 0.30295 0.33581 0.03569 0.0
H2057 H 0.32241 0.38601 0.05823 0.0
H2058 H 0.27628 0.32782 0.05272 0.0
H2059 H 0.29603 0.37795 0.07534 0.0
H2060 H 0.25545 0.3513 0.12542 0.0
H2061 H 0.28078 0.35802 0.10649 0.0
H2062 H 0.25235 0.33557 0.05046 0.0
H2063 H 0.22689 0.32943 0.06905 0.0
C2064 C 0.30152 0.34514 0.04413 0.0
C2065 C 0.31481 0.36153 0.04563 0.0
C2066 C 0.28627 0.34057 0.05382 0.0
C2067 C 0.28418 0.35225 0.06548 0.0
C2068 C 0.29736 0.36866 0.06664 0.0
C2069 C 0.31245 0.37328 0.05672 0.0
C2070 C 0.25451 0.34796 0.109 0.0
C2071 C 0.23903 0.34 0.09877 0.0
C2072 C 0.26906 0.35173 0.0982 0.0
C2073 C 0.26852 0.34741 0.07699 0.0
C2074 C 0.25308 0.33896 0.06685 0.0
C2075 C 0.2385 0.3354 0.07757 0.0
H2076 H 0.73957 0.7088 0.36335 0.0
H2077 H 0.69611 0.6646 0.38562 0.0
H2078 H 0.75733 0.69949 0.37956 0.0
H2079 H 0.71397 0.65548 0.40228 0.0
H2080 H 0.75486 0.66425 0.45397 0.0
H2081 H 0.73537 0.66919 0.43369 0.0
H2082 H 0.76343 0.67458 0.37735 0.0
H2083 H 0.78277 0.66931 0.3976 0.0
C2084 C 0.73382 0.69699 0.37149 0.0
C2085 C 0.71646 0.68743 0.37324 0.0
C2086 C 0.74398 0.69165 0.38069 0.0
C2087 C 0.73701 0.6768 0.39221 0.0
C2088 C 0.71964 0.66701 0.39353 0.0
C2089 C 0.70944 0.67218 0.38391 0.0
C2090 C 0.75672 0.66631 0.43721 0.0
C2091 C 0.77029 0.66643 0.42732 0.0
C2092 C 0.74554 0.66902 0.42561 0.0
C2093 C 0.74791 0.67224 0.40397 0.0
C2094 C 0.76135 0.67214 0.39402 0.0
C2095 C 0.77234 0.66907 0.40555 0.0
H2096 H 0.34194 0.03465 0.3815 0.0
H2097 H 0.29213 0.02613 0.37404 0.0
H2098 H 0.34994 0.06092 0.39926 0.0
H2099 H 0.30018 0.05246 0.39113 0.0
H2100 H 0.31314 0.08842 0.44524 0.0
H2101 H 0.3066 0.06329 0.42594 0.0
H2102 H 0.35464 0.08887 0.39581 0.0
H2103 H 0.36127 0.11404 0.41548 0.0
C2104 C 0.33279 0.03852 0.38332 0.0
C2105 C 0.31637 0.02824 0.37651 0.0
C2106 C 0.33737 0.05359 0.39346 0.0
C2107 C 0.32565 0.05872 0.39692 0.0
C2108 C 0.30944 0.04873 0.38924 0.0
C2109 C 0.30485 0.03367 0.37926 0.0
C2110 C 0.32228 0.08871 0.43441 0.0
C2111 C 0.33768 0.10326 0.43179 0.0
C2112 C 0.31851 0.07431 0.42327 0.0
C2113 C 0.33 0.07407 0.40909 0.0
C2114 C 0.34554 0.08856 0.40671 0.0
C2115 C 0.34934 0.10298 0.41797 0.0
H2116 H 0.9725 0.30942 0.38304 0.0
H2117 H 0.98235 0.26904 0.3745 0.0
H2118 H 0.94624 0.29047 0.40027 0.0
H2119 H 0.95601 0.25006 0.39106 0.0
H2120 H 0.91978 0.22583 0.44482 0.0
H2121 H 0.94481 0.24483 0.42568 0.0
H2122 H 0.91863 0.26697 0.39634 0.0
H2123 H 0.89358 0.24803 0.41585 0.0
C2124 C 0.96892 0.29644 0.38449 0.0
C2125 C 0.97957 0.29076 0.37756 0.0
C2126 C 0.95385 0.28556 0.39434 0.0
C2127 C 0.94908 0.26876 0.39735 0.0
C2128 C 0.95944 0.26299 0.38951 0.0
C2129 C 0.97451 0.27386 0.37984 0.0
C2130 C 0.91933 0.23468 0.43418 0.0
C2131 C 0.90467 0.23536 0.43178 0.0
C2132 C 0.93368 0.24556 0.42313 0.0
C2133 C 0.93374 0.25736 0.40925 0.0
C2134 C 0.9191 0.25816 0.40702 0.0
C2135 C 0.90474 0.2473 0.41819 0.0
H2136 H 1.00043 0.36592 0.32787 0.0
H2137 H 0.0499 0.4067 0.33929 0.0
H2138 H 0.99337 0.38484 0.31 0.0
H2139 H 0.04275 0.42561 0.32209 0.0
H2140 H 0.03249 0.45023 0.26742 0.0
H2141 H 0.03801 0.43102 0.28692 0.0
H2142 H 0.98871 0.40816 0.31358 0.0
H2143 H 0.98313 0.42734 0.29371 0.0
C2144 C 0.00969 0.37896 0.3269 0.0
C2145 C 0.02576 0.38478 0.33483 0.0
C2146 C 0.00564 0.38982 0.31669 0.0
C2147 C 0.01757 0.40673 0.31431 0.0
C2148 C 0.03339 0.41261 0.32314 0.0
C2149 C 0.03745 0.40178 0.33317 0.0
C2150 C 0.02286 0.44117 0.27754 0.0
C2151 C 0.00742 0.44038 0.27913 0.0
C2152 C 0.02603 0.43017 0.28879 0.0
C2153 C 0.01387 0.41814 0.30205 0.0
C2154 C 0.99831 0.41718 0.30341 0.0
C2155 C 0.99511 0.42816 0.29203 0.0
H2156 H 0.60411 0.64751 0.33531 0.0
H2157 H 0.64524 0.63861 0.32838 0.0
H2158 H 0.58567 0.62079 0.31911 0.0
H2159 H 0.62666 0.61169 0.31219 0.0
H2160 H 0.55401 0.56569 0.3053 0.0
H2161 H 0.57294 0.59065 0.32473 0.0
H2162 H 0.61112 0.60198 0.27849 0.0
H2163 H 0.59211 0.57713 0.25882 0.0
C2164 C 0.60919 0.63976 0.33057 0.0
C2165 C 0.62616 0.64522 0.33311 0.0
C2166 C 0.59858 0.62439 0.32135 0.0
C2167 C 0.6047 0.61412 0.31429 0.0
C2168 C 0.62161 0.61939 0.31727 0.0
C2169 C 0.63222 0.63475 0.32669 0.0
C2170 C 0.5664 0.57354 0.29917 0.0
C2171 C 0.57145 0.56943 0.28036 0.0
C2172 C 0.57727 0.58782 0.31037 0.0
C2173 C 0.59353 0.59833 0.30314 0.0
C2174 C 0.59875 0.59403 0.28464 0.0
C2175 C 0.58784 0.57977 0.27335 0.0
H2176 H 0.36913 0.0071 0.32785 0.0
H2177 H 0.3597 0.9569 0.33473 0.0
H2178 H 0.39608 0.01516 0.31189 0.0
H2179 H 0.38645 0.9649 0.31878 0.0
H2180 H 0.44157 0.98778 0.3059 0.0
H2181 H 0.4166 0.98219 0.32504 0.0
H2182 H 0.40586 0.00901 0.27818 0.0
H2183 H 0.43071 0.0144 0.25877 0.0
C2184 C 0.37288 0.99784 0.32619 0.0
C2185 C 0.36226 0.98136 0.33253 0.0
C2186 C 0.38825 1.00243 0.31691 0.0
C2187 C 0.39338 0.99066 0.31402 0.0
C2188 C 0.38296 0.97431 0.32097 0.0
C2189 C 0.36757 0.9697 0.33003 0.0
C2190 C 0.43385 0.99241 0.29957 0.0
C2191 C 0.43811 1.00141 0.28065 0.0
C2192 C 0.41957 0.98926 0.31061 0.0
C2193 C 0.40922 0.99511 0.3031 0.0
C2194 C 0.41369 0.0045 0.28452 0.0
C2195 C 0.42794 0.00759 0.27339 0.0
H2196 H 0.60371 0.95535 0.33571 0.0
H2197 H 0.64349 0.00572 0.32663 0.0
H2198 H 0.58432 0.96228 0.31943 0.0
H2199 H 0.62413 0.01258 0.30963 0.0
H2200 H 0.58129 0.02222 0.2946 0.0
H2201 H 0.60059 0.01645 0.31382 0.0
H2202 H 0.57838 0.96787 0.28516 0.0
H2203 H 0.559 0.97355 0.26637 0.0
C2204 C 0.60831 0.96794 0.33029 0.0
C2205 C 0.62516 0.97996 0.33237 0.0
C2206 C 0.5972 0.97189 0.32077 0.0
C2207 C 0.60267 0.98793 0.31288 0.0
C2208 C 0.61944 1.00013 0.31563 0.0
C2209 C 0.63056 0.99619 0.32533 0.0
C2210 C 0.58062 0.01034 0.29237 0.0
C2211 C 0.56855 0.9983 0.27906 0.0
C2212 C 0.59168 0.00704 0.30337 0.0
C2213 C 0.59099 0.99164 0.30121 0.0
C2214 C 0.57905 0.97971 0.28765 0.0
C2215 C 0.56795 0.98298 0.27679 0.0
H2216 H 0.0517 0.66015 0.31287 0.0
H2217 H 1.00474 0.63637 0.34542 0.0
H2218 H 0.0448 0.63423 0.2959 0.0
H2219 H 0.99816 0.6098 0.32965 0.0
H2220 H 0.98389 0.5678 0.28283 0.0
H2221 H 0.99018 0.59355 0.30003 0.0
H2222 H 0.04242 0.60897 0.29883 0.0
H2223 H 0.03635 0.58434 0.27945 0.0
C2224 C 0.04 0.64922 0.31676 0.0
C2225 C 0.0288 0.65029 0.33057 0.0
C2226 C 0.03604 0.63421 0.30711 0.0
C2227 C 0.02093 0.61963 0.31141 0.0
C2228 C 0.0098 0.6207 0.32556 0.0
C2229 C 0.01361 0.6359 0.33481 0.0
C2230 C 0.99677 0.57681 0.28578 0.0
C2231 C 0.00955 0.57378 0.27947 0.0
C2232 C 1.00038 0.59155 0.29613 0.0
C2233 C 0.01687 0.60359 0.30092 0.0
C2234 C 0.02958 0.60033 0.29509 0.0
C2235 C 0.02602 0.58585 0.28427 0.0
H2236 H 0.36116 0.40521 0.33451 0.0
H2237 H 0.37113 0.36484 0.32683 0.0
H2238 H 0.38752 0.4241 0.31793 0.0
H2239 H 0.39742 0.38371 0.30959 0.0
H2240 H 0.45012 0.42624 0.29407 0.0
H2241 H 0.42502 0.40733 0.31353 0.0
H2242 H 0.39876 0.42903 0.2833 0.0
H2243 H 0.42383 0.44798 0.2642 0.0
C2244 C 0.36903 0.40037 0.32936 0.0
C2245 C 0.364 0.38349 0.33189 0.0
C2246 C 0.38411 0.41119 0.31967 0.0
C2247 C 0.39451 0.4054 0.31208 0.0
C2248 C 0.38977 0.38863 0.31533 0.0
C2249 C 0.37469 0.37779 0.32518 0.0
C2250 C 0.43894 0.42687 0.29152 0.0
C2251 C 0.43899 0.43869 0.2777 0.0
C2252 C 0.42455 0.41604 0.30267 0.0
C2253 C 0.40988 0.41674 0.30017 0.0
C2254 C 0.40992 0.42839 0.28605 0.0
C2255 C 0.42429 0.43924 0.27502 0.0
H2256 H 0.34513 0.30967 0.3779 0.0
H2257 H 0.29559 0.26795 0.37034 0.0
H2258 H 0.35381 0.29136 0.39419 0.0
H2259 H 0.30422 0.24979 0.3866 0.0
H2260 H 0.32823 0.21886 0.40121 0.0
H2261 H 0.32232 0.23766 0.38126 0.0
H2262 H 0.34756 0.27571 0.42809 0.0
H2263 H 0.35326 0.25683 0.4483 0.0
C2264 C 0.33617 0.29657 0.37943 0.0
C2265 C 0.31967 0.29026 0.37286 0.0
C2266 C 0.3411 0.28613 0.38891 0.0
C2267 C 0.32969 0.26914 0.39175 0.0
C2268 C 0.31336 0.26277 0.38447 0.0
C2269 C 0.3084 0.27321 0.37522 0.0
C2270 C 0.33245 0.2312 0.40735 0.0
C2271 C 0.34109 0.23624 0.42651 0.0
C2272 C 0.32912 0.24199 0.39585 0.0
C2273 C 0.33442 0.25815 0.40311 0.0
C2274 C 0.34349 0.2634 0.42193 0.0
C2275 C 0.34674 0.25256 0.43352 0.0
H2276 H 0.74086 0.02719 0.37316 0.0
H2277 H 0.69906 0.03509 0.37975 0.0
H2278 H 0.75886 0.05403 0.38932 0.0
H2279 H 0.71722 0.06216 0.39589 0.0
H2280 H 0.75149 0.09712 0.44939 0.0
H2281 H 0.73271 0.07221 0.42964 0.0
H2282 H 0.77105 0.08407 0.38346 0.0
H2283 H 0.78976 0.10906 0.40299 0.0
C2284 C 0.73554 0.03475 0.37783 0.0
C2285 C 0.71851 0.02898 0.3752 0.0
C2286 C 0.74589 0.0502 0.38701 0.0
C2287 C 0.73948 0.06023 0.39394 0.0
C2288 C 0.72251 0.05464 0.39089 0.0
C2289 C 0.71214 0.0392 0.38151 0.0
C2290 C 0.75584 0.09457 0.43485 0.0
C2291 C 0.77221 0.10505 0.42791 0.0
C2292 C 0.74506 0.08029 0.42352 0.0
C2293 C 0.75042 0.07611 0.40503 0.0
C2294 C 0.76663 0.0868 0.39782 0.0
C2295 C 0.77737 0.1011 0.40907 0.0
H2296 H 0.97531 0.71219 0.36391 0.0
H2297 H 0.97648 0.66917 0.3872 0.0
H2298 H 0.94835 0.70241 0.38068 0.0
H2299 H 0.94959 0.65959 0.4044 0.0
H2300 H 0.91637 0.66719 0.45566 0.0
H2301 H 0.94113 0.67293 0.43547 0.0
H2302 H 0.91787 0.67689 0.37891 0.0
H2303 H 0.89297 0.67085 0.39906 0.0
C2304 C 0.96972 0.70056 0.37244 0.0
C2305 C 0.978 0.69145 0.37426 0.0
C2306 C 0.95427 0.69494 0.38196 0.0
C2307 C 0.94693 0.68028 0.39387 0.0
C2308 C 0.95503 0.67097 0.39536 0.0
C2309 C 0.97034 0.6764 0.38543 0.0
C2310 C 0.91652 0.66912 0.43888 0.0
C2311 C 0.9028 0.6686 0.42889 0.0
C2312 C 0.93061 0.6723 0.42733 0.0
C2313 C 0.93138 0.67534 0.40565 0.0
C2314 C 0.91758 0.67461 0.39561 0.0
C2315 C 0.90335 0.6711 0.4071 0.0
H2316 H 0.4055 0.0539 0.72294 0.0
H2317 H 0.37395 1.00317 0.70301 0.0
H2318 H 0.4246 0.04645 0.73858 0.0
H2319 H 0.39358 0.99573 0.71795 0.0
H2320 H 0.42251 0.98528 0.76902 0.0
H2321 H 0.40341 0.99164 0.75039 0.0
H2322 H 0.44475 0.03912 0.73191 0.0
H2323 H 0.46358 0.03296 0.7513 0.0
C2324 C 0.40277 0.04117 0.72157 0.0
C2325 C 0.38818 0.02913 0.7117 0.0
C2326 C 0.41383 0.03689 0.73046 0.0
C2327 C 0.41076 0.02047 0.72951 0.0
C2328 C 0.39628 0.00845 0.71927 0.0
C2329 C 0.38507 0.01272 0.71055 0.0
C2330 C 0.42746 0.99701 0.76082 0.0
C2331 C 0.44448 0.0087 0.76176 0.0
C2332 C 0.41654 1.00065 0.75004 0.0
C2333 C 0.42245 0.01598 0.73973 0.0
C2334 C 0.43962 0.02737 0.74008 0.0
C2335 C 0.45046 0.02383 0.7511 0.0
H2336 H 0.95895 0.34742 0.73198 0.0
H2337 H 1.00444 0.37166 0.69626 0.0
H2338 H 0.96598 0.37341 0.74885 0.0
H2339 H 0.01109 0.39825 0.71207 0.0
H2340 H 0.02638 0.44034 0.7592 0.0
H2341 H 0.01994 0.41458 0.74185 0.0
H2342 H 0.96761 0.39846 0.74565 0.0
H2343 H 0.97391 0.42317 0.76506 0.0
C2344 C 0.97033 0.35845 0.72739 0.0
C2345 C 0.9811 0.35751 0.71271 0.0
C2346 C 0.97435 0.37348 0.73699 0.0
C2347 C 0.98908 0.38818 0.7318 0.0
C2348 C 0.99977 0.38725 0.71681 0.0
C2349 C 0.99591 0.37203 0.70755 0.0
C2350 C 0.01346 0.43117 0.75676 0.0
C2351 C 1.00071 0.434 0.7638 0.0
C2352 C 0.00976 0.41644 0.74635 0.0
C2353 C 0.99321 0.40422 0.74227 0.0
C2354 C 0.98051 0.40727 0.74883 0.0
C2355 C 0.98418 0.42176 0.75968 0.0
H2356 H 0.64761 0.60168 0.70597 0.0
H2357 H 0.6396 0.64331 0.7139 0.0
H2358 H 0.62073 0.58338 0.72187 0.0
H2359 H 0.6125 0.62486 0.72977 0.0
H2360 H 0.56569 0.55223 0.73559 0.0
H2361 H 0.59069 0.57117 0.71622 0.0
H2362 H 0.60251 0.60897 0.76318 0.0
H2363 H 0.5776 0.58996 0.78277 0.0
C2364 C 0.64001 0.6069 0.71086 0.0
C2365 C 0.64577 0.62397 0.70871 0.0
C2366 C 0.62455 0.59638 0.7199 0.0
C2367 C 0.61449 0.60267 0.72715 0.0
C2368 C 0.62005 0.61968 0.72453 0.0
C2369 C 0.6355 0.63021 0.7153 0.0
C2370 C 0.57365 0.56455 0.74188 0.0
C2371 C 0.56967 0.56949 0.76087 0.0
C2372 C 0.58795 0.57542 0.73071 0.0
C2373 C 0.59862 0.59156 0.73818 0.0
C2374 C 0.59444 0.59669 0.75686 0.0
C2375 C 0.58015 0.58578 0.76809 0.0
H2376 H 0.66709 0.69711 0.66143 0.0
H2377 H 0.71619 0.73843 0.6732 0.0
H2378 H 0.65967 0.71575 0.64353 0.0
H2379 H 0.70868 0.75705 0.65595 0.0
H2380 H 0.69817 0.78123 0.60101 0.0
H2381 H 0.70396 0.76228 0.62065 0.0
H2382 H 0.65453 0.73881 0.64697 0.0
H2383 H 0.64868 0.75775 0.62697 0.0
C2384 C 0.67619 0.71021 0.66054 0.0
C2385 C 0.69227 0.71626 0.66857 0.0
C2386 C 0.67193 0.72091 0.65031 0.0
C2387 C 0.68366 0.73788 0.648 0.0
C2388 C 0.69947 0.74399 0.65695 0.0
C2389 C 0.70374 0.73332 0.66701 0.0
C2390 C 0.68857 0.7721 0.61108 0.0
C2391 C 0.67301 0.77108 0.61254 0.0
C2392 C 0.69189 0.76124 0.62241 0.0
C2393 C 0.67978 0.74912 0.63563 0.0
C2394 C 0.6641 0.74791 0.63684 0.0
C2395 C 0.66074 0.75876 0.62539 0.0
H2396 H 0.31231 0.97331 0.66063 0.0
H2397 H 0.27132 0.98221 0.66901 0.0
H2398 H 0.29379 0.94701 0.64314 0.0
H2399 H 0.25277 0.95585 0.65226 0.0
H2400 H 0.22863 0.91943 0.5991 0.0
H2401 H 0.24765 0.94468 0.61781 0.0
H2402 H 0.27065 0.91917 0.64673 0.0
H2403 H 0.25171 0.8939 0.62755 0.0
C2404 C 0.2993 0.96952 0.65906 0.0
C2405 C 0.29332 0.97991 0.66605 0.0
C2406 C 0.28866 0.95443 0.64907 0.0
C2407 C 0.2718 0.94938 0.64598 0.0
C2408 C 0.26575 0.9595 0.65383 0.0
C2409 C 0.27637 0.97459 0.66362 0.0
C2410 C 0.2377 0.91919 0.60953 0.0
C2411 C 0.23857 0.90463 0.61196 0.0
C2412 C 0.24859 0.93366 0.62034 0.0
C2413 C 0.26059 0.93396 0.63405 0.0
C2414 C 0.26167 0.91945 0.63621 0.0
C2415 C 0.2508 0.90496 0.62524 0.0
H2416 H 0.03382 0.33742 0.65534 0.0
H2417 H 0.03206 0.29189 0.67388 0.0
H2418 H 0.06073 0.34667 0.63833 0.0
H2419 H 0.05905 0.30132 0.65735 0.0
H2420 H 0.11514 0.33222 0.64125 0.0
H2421 H 0.0901 0.32597 0.66121 0.0
H2422 H 0.06865 0.33402 0.60558 0.0
H2423 H 0.09355 0.33996 0.58554 0.0
C2424 C 0.03932 0.32954 0.65611 0.0
C2425 C 0.03084 0.31392 0.66589 0.0
C2426 C 0.05464 0.33479 0.6463 0.0
C2427 C 0.06191 0.32468 0.64653 0.0
C2428 C 0.05375 0.30938 0.65705 0.0
C2429 C 0.0383 0.30398 0.66645 0.0
C2430 C 0.10512 0.33279 0.63339 0.0
C2431 C 0.10621 0.33652 0.61188 0.0
C2432 C 0.09082 0.32917 0.64475 0.0
C2433 C 0.07751 0.32957 0.63492 0.0
C2434 C 0.07881 0.33377 0.61355 0.0
C2435 C 0.09296 0.33705 0.60209 0.0
H2436 H 0.30423 0.33885 0.67417 0.0
H2437 H 0.27327 0.28813 0.65382 0.0
H2438 H 0.28481 0.34619 0.65836 0.0
H2439 H 0.25442 0.2955 0.63727 0.0
H2440 H 0.21555 0.30882 0.62266 0.0
H2441 H 0.23405 0.3026 0.64272 0.0
H2442 H 0.27559 0.3504 0.62566 0.0
H2443 H 0.25679 0.35681 0.6064 0.0
C2444 C 0.29328 0.32928 0.66635 0.0
C2445 C 0.29027 0.3129 0.66534 0.0
C2446 C 0.2822 0.3335 0.65712 0.0
C2447 C 0.26796 0.32146 0.64647 0.0
C2448 C 0.26498 0.30507 0.64568 0.0
C2449 C 0.2759 0.30084 0.6551 0.0
C2450 C 0.22864 0.31799 0.62329 0.0
C2451 C 0.23476 0.33324 0.61288 0.0
C2452 C 0.2393 0.31442 0.63471 0.0
C2453 C 0.25643 0.3259 0.6357 0.0
C2454 C 0.26248 0.34132 0.62554 0.0
C2455 C 0.25174 0.34498 0.61439 0.0
H2456 H 0.67339 0.96788 0.68023 0.0
H2457 H 0.71929 0.99127 0.64532 0.0
H2458 H 0.66615 0.94119 0.66424 0.0
H2459 H 0.71171 0.9652 0.62824 0.0
H2460 H 0.70268 0.91501 0.61216 0.0
H2461 H 0.70936 0.93987 0.63141 0.0
H2462 H 0.65726 0.92486 0.6345 0.0
H2463 H 0.6504 0.89891 0.61732 0.0
C2464 C 0.68188 0.9673 0.66906 0.0
C2465 C 0.69698 0.98161 0.66421 0.0
C2466 C 0.67769 0.95203 0.6597 0.0
C2467 C 0.68834 0.95082 0.64489 0.0
C2468 C 0.70334 0.96532 0.63996 0.0
C2469 C 0.70768 0.9804 0.64968 0.0
C2470 C 0.69253 0.91668 0.61735 0.0
C2471 C 0.67593 0.90467 0.61311 0.0
C2472 C 0.69643 0.93128 0.6281 0.0
C2473 C 0.68393 0.93469 0.63443 0.0
C2474 C 0.6673 0.92272 0.63018 0.0
C2475 C 0.66336 0.90787 0.61987 0.0
H2476 H 0.04279 0.70439 0.68023 0.0
H2477 H 0.02003 0.7296 0.65018 0.0
H2478 H 0.06946 0.7241 0.66443 0.0
H2479 H 0.04598 0.74833 0.63315 0.0
H2480 H 0.09607 0.78917 0.61739 0.0
H2481 H 0.07151 0.77065 0.63677 0.0
H2482 H 0.08555 0.73277 0.63456 0.0
H2483 H 0.11134 0.75218 0.61737 0.0
C2484 C 0.0435 0.71411 0.67016 0.0
C2485 C 0.0294 0.7156 0.66665 0.0
C2486 C 0.05875 0.72534 0.6609 0.0
C2487 C 0.06011 0.73804 0.64748 0.0
C2488 C 0.04579 0.7392 0.64384 0.0
C2489 C 0.03076 0.72832 0.65352 0.0
C2490 C 0.09429 0.7771 0.62147 0.0
C2491 C 0.10599 0.77239 0.61573 0.0
C2492 C 0.07983 0.7662 0.63228 0.0
C2493 C 0.07619 0.74995 0.63711 0.0
C2494 C 0.08786 0.74519 0.63141 0.0
C2495 C 0.10261 0.75629 0.62108 0.0
H2496 H 0.96148 0.59963 0.70198 0.0
H2497 H 0.01039 0.64168 0.71243 0.0
H2498 H 0.9699 0.58148 0.71866 0.0
H2499 H 0.0189 0.62337 0.72904 0.0
H2500 H 0.01774 0.58819 0.78241 0.0
H2501 H 0.01226 0.60721 0.76214 0.0
H2502 H 0.98808 0.56965 0.71444 0.0
H2503 H 0.99367 0.5507 0.73456 0.0
C2504 C 0.97412 0.60497 0.70758 0.0
C2505 C 0.98525 0.62212 0.70591 0.0
C2506 C 0.97897 0.59453 0.71707 0.0
C2507 C 0.99506 0.60097 0.72525 0.0
C2508 C 0.00636 0.61806 0.72309 0.0
C2509 C 1.00153 0.62852 0.71343 0.0
C2510 C 0.01149 0.58408 0.76745 0.0
C2511 C 0.00602 0.56785 0.76023 0.0
C2512 C 0.00837 0.59499 0.75582 0.0
C2513 C 0.99966 0.58992 0.73673 0.0
C2514 C 0.99458 0.57385 0.72925 0.0
C2515 C 0.99774 0.56297 0.74083 0.0
H2516 H 0.36544 0.36811 0.71445 0.0
H2517 H 0.40679 0.35944 0.70865 0.0
H2518 H 0.38381 0.39518 0.73047 0.0
H2519 H 0.42502 0.38632 0.72464 0.0
H2520 H 0.41831 0.43032 0.78375 0.0
H2521 H 0.39936 0.40525 0.76439 0.0
H2522 H 0.43744 0.41644 0.71807 0.0
H2523 H 0.45631 0.44163 0.73714 0.0
C2524 C 0.37846 0.37205 0.71637 0.0
C2525 C 0.38465 0.36162 0.71031 0.0
C2526 C 0.38894 0.38748 0.72568 0.0
C2527 C 0.40586 0.39287 0.72886 0.0
C2528 C 0.4121 0.38262 0.72222 0.0
C2529 C 0.40162 0.36717 0.71313 0.0
C2530 C 0.42258 0.4276 0.76925 0.0
C2531 C 0.43892 0.43797 0.76213 0.0
C2532 C 0.4117 0.41322 0.75816 0.0
C2533 C 0.41693 0.40881 0.73975 0.0
C2534 C 0.43312 0.41936 0.73237 0.0
C2535 C 0.44396 0.43377 0.74337 0.0
H2536 H 0.6453 0.04501 0.70175 0.0
H2537 H 0.64414 1.00014 0.72209 0.0
H2538 H 0.61815 0.03548 0.71787 0.0
H2539 H 0.61708 0.99082 0.73871 0.0
H2540 H 0.58449 0.99903 0.79088 0.0
H2541 H 0.60917 0.00426 0.77084 0.0
H2542 H 0.5871 0.0103 0.71444 0.0
H2543 H 0.56224 0.00471 0.73442 0.0
C2544 C 0.63915 0.03303 0.70948 0.0
C2545 C 0.64683 0.02332 0.71068 0.0
C2546 C 0.62361 0.02757 0.71862 0.0
C2547 C 0.61558 0.01245 0.72955 0.0
C2548 C 0.62306 1.00254 0.7304 0.0
C2549 C 0.63847 0.00784 0.72082 0.0
C2550 C 0.58486 1.00128 0.77415 0.0
C2551 C 0.57152 1.00148 0.76415 0.0
C2552 C 0.5989 0.00417 0.7627 0.0
C2553 C 0.59999 0.00766 0.74112 0.0
C2554 C 0.58654 0.00764 0.73106 0.0
C2555 C 0.57234 0.00439 0.74244 0.0
loop_
_geom_bond_atom_site_label_1
_geom_bond_atom_site_label_2
_geom_bond_distance
_geom_bond_site_symmetry_2
_ccdc_geom_bond_type
O0 Cd1 2.223 . S
O0 C8 1.315 . S
Cd1 O0 2.223 . S
Cd1 O4 2.297 . S
Cd1 O5 2.439 . S
Cd1 O11 2.240 1_554 S
Cd2 O3 2.240 . S
Cd2 O10 2.223 1_554 S
Cd2 O12 2.297 1_554 S
Cd2 O13 2.429 1_554 S
O3 Cd2 2.240 . S
O3 C8 1.279 1_655 S
O4 Cd1 2.297 . S
O4 C6 1.247 . S
O5 Cd1 2.439 . S
O5 C6 1.208 . S
C6 O4 1.247 . S
C6 O5 1.208 . S
C7 O12 1.247 . S
C7 O13 1.222 . S
C8 O0 1.315 . S
C8 O3 1.279 1_455 S
C9 O10 1.315 . S
C9 O11 1.279 1_655 S
O10 Cd2 2.223 1_556 S
O10 C9 1.315 . S
O11 Cd1 2.240 1_556 S
O11 C9 1.279 1_455 S
O12 Cd2 2.297 1_556 S
O12 C7 1.247 . S
O13 Cd2 2.429 1_556 S
O13 C7 1.222 . S
O14 Cd15 2.223 . S
O14 C22 1.315 . S
Cd15 O14 2.223 . S
Cd15 O18 2.297 . S
Cd15 O19 2.439 . S
Cd15 O25 2.240 1_554 S
Cd16 O17 2.240 . S
Cd16 O24 2.223 1_554 S
Cd16 O26 2.297 1_554 S
Cd16 O27 2.439 1_554 S
O17 Cd16 2.240 . S
O17 C22 1.279 . S
O18 Cd15 2.297 . S
O18 C20 1.247 . S
O19 Cd15 2.439 . S
O19 C20 1.208 . S
C20 O18 1.247 . S
C20 O19 1.208 . S
C21 O26 1.247 . S
C21 O27 1.208 . S
C22 O14 1.315 . S
C22 O17 1.279 . S
C23 O24 1.315 . S
C23 O25 1.279 . S
O24 Cd16 2.223 1_556 S
O24 C23 1.315 . S
O25 Cd15 2.240 1_556 S
O25 C23 1.279 . S
O26 Cd16 2.297 1_556 S
O26 C21 1.247 . S
O27 Cd16 2.439 1_556 S
O27 C21 1.208 . S
O28 Cd29 2.223 1_556 S
O28 C36 1.315 . S
Cd29 O28 2.223 1_554 S
Cd29 O32 2.297 1_554 S
Cd29 O33 2.424 1_554 S
Cd29 O39 2.240 . S
Cd30 O31 2.240 1_554 S
Cd30 O38 2.223 . S
Cd30 O40 2.297 . S
Cd30 O41 2.439 . S
O31 Cd30 2.240 1_556 S
O31 C36 1.279 1_565 S
O32 Cd29 2.297 1_556 S
O32 C34 1.247 . S
O33 Cd29 2.424 1_556 S
O33 C34 1.229 . S
C34 O32 1.247 . S
C34 O33 1.229 . S
C35 O40 1.247 . S
C35 O41 1.208 . S
C36 O28 1.315 . S
C36 O31 1.279 1_545 S
C37 O38 1.315 . S
C37 O39 1.279 1_565 S
O38 Cd30 2.223 . S
O38 C37 1.315 . S
O39 Cd29 2.240 . S
O39 C37 1.279 1_545 S
O40 Cd30 2.297 . S
O40 C35 1.247 . S
O41 Cd30 2.439 . S
O41 C35 1.208 . S
O42 Cd43 2.223 1_556 S
O42 C50 1.315 . S
Cd43 O42 2.223 1_554 S
Cd43 O46 2.297 1_554 S
Cd43 O47 2.419 1_554 S
Cd43 O53 2.240 . S
Cd44 O45 2.240 1_554 S
Cd44 O52 2.223 . S
Cd44 O54 2.297 . S
Cd44 O55 2.439 . S
O45 Cd44 2.240 1_556 S
O45 C50 1.279 1_455 S
O46 Cd43 2.297 1_556 S
O46 C48 1.247 . S
O47 Cd43 2.419 1_556 S
O47 C48 1.237 . S
C48 O46 1.247 . S
C48 O47 1.237 . S
C49 O54 1.247 . S
C49 O55 1.208 . S
C50 O42 1.315 . S
C50 O45 1.279 1_655 S
C51 O52 1.315 . S
C51 O53 1.279 1_455 S
O52 Cd44 2.223 . S
O52 C51 1.315 . S
O53 Cd43 2.240 . S
O53 C51 1.279 1_655 S
O54 Cd44 2.297 . S
O54 C49 1.247 . S
O55 Cd44 2.439 . S
O55 C49 1.208 . S
O56 Cd57 2.223 1_556 S
O56 C64 1.315 . S
Cd57 O56 2.223 1_554 S
Cd57 O60 2.297 1_554 S
Cd57 O61 2.439 1_554 S
Cd57 O67 2.240 . S
Cd58 O59 2.240 1_554 S
Cd58 O66 2.223 . S
Cd58 O68 2.297 . S
Cd58 O69 2.439 . S
O59 Cd58 2.240 1_556 S
O59 C64 1.279 . S
O60 Cd57 2.297 1_556 S
O60 C62 1.247 . S
O61 Cd57 2.439 1_556 S
O61 C62 1.208 . S
C62 O60 1.247 . S
C62 O61 1.208 . S
C63 O68 1.247 . S
C63 O69 1.208 . S
C64 O56 1.315 . S
C64 O59 1.279 . S
C65 O66 1.315 . S
C65 O67 1.279 . S
O66 Cd58 2.223 . S
O66 C65 1.315 . S
O67 Cd57 2.240 . S
O67 C65 1.279 . S
O68 Cd58 2.297 . S
O68 C63 1.247 . S
O69 Cd58 2.439 . S
O69 C63 1.208 . S
O70 Cd71 2.223 . S
O70 C78 1.315 . S
Cd71 O70 2.223 . S
Cd71 O74 2.297 . S
Cd71 O75 2.439 . S
Cd71 O81 2.240 1_554 S
Cd72 O73 2.240 . S
Cd72 O80 2.223 1_554 S
Cd72 O82 2.297 1_554 S
Cd72 O83 2.438 1_554 S
O73 Cd72 2.240 . S
O73 C78 1.279 1_545 S
O74 Cd71 2.297 . S
O74 C76 1.247 . S
O75 Cd71 2.439 . S
O75 C76 1.208 . S
C76 O74 1.247 . S
C76 O75 1.208 . S
C77 O82 1.247 . S
C77 O83 1.209 . S
C78 O70 1.315 . S
C78 O73 1.279 1_565 S
C79 O80 1.315 . S
C79 O81 1.279 1_545 S
O80 Cd72 2.223 1_556 S
O80 C79 1.315 . S
O81 Cd71 2.240 1_556 S
O81 C79 1.279 1_565 S
O82 Cd72 2.297 1_556 S
O82 C77 1.247 . S
O83 Cd72 2.438 1_556 S
O83 C77 1.209 . S
O84 Cd85 2.223 . S
O84 C92 1.315 . S
Cd85 O84 2.223 . S
Cd85 O88 2.297 . S
Cd85 O89 2.439 . S
Cd85 O95 2.240 . S
Cd86 O87 2.240 . S
Cd86 O94 2.223 . S
Cd86 O96 2.297 . S
Cd86 O97 2.439 . S
O87 Cd86 2.240 . S
O87 C92 1.279 . S
O88 Cd85 2.297 . S
O88 C90 1.247 . S
O89 Cd85 2.439 . S
O89 C90 1.208 . S
C90 O88 1.247 . S
C90 O89 1.208 . S
C91 O96 1.247 . S
C91 O97 1.208 . S
C92 O84 1.315 . S
C92 O87 1.279 . S
C93 O94 1.315 . S
C93 O95 1.279 . S
O94 Cd86 2.223 . S
O94 C93 1.315 . S
O95 Cd85 2.240 . S
O95 C93 1.279 . S
O96 Cd86 2.297 . S
O96 C91 1.247 . S
O97 Cd86 2.439 . S
O97 C91 1.208 . S
O98 Cd99 2.223 . S
O98 C106 1.315 . S
Cd99 O98 2.223 . S
Cd99 O102 2.297 1_565 S
Cd99 O103 2.439 1_565 S
Cd99 O109 2.240 . S
Cd100 O101 2.240 . S
Cd100 O108 2.223 . S
Cd100 O110 2.297 . S
Cd100 O111 2.439 . S
O101 Cd100 2.240 . S
O101 C106 1.279 . S
O102 Cd99 2.297 1_545 S
O102 C104 1.247 . S
O103 Cd99 2.439 1_545 S
O103 C104 1.208 . S
C104 O102 1.247 . S
C104 O103 1.208 . S
C105 O110 1.247 . S
C105 O111 1.208 . S
C106 O98 1.315 . S
C106 O101 1.279 . S
C107 O108 1.315 . S
C107 O109 1.279 . S
O108 Cd100 2.223 . S
O108 C107 1.315 . S
O109 Cd99 2.240 . S
O109 C107 1.279 . S
O110 Cd100 2.297 . S
O110 C105 1.247 . S
O111 Cd100 2.439 . S
O111 C105 1.208 . S
O112 Cd113 2.223 . S
O112 C120 1.315 . S
Cd113 O112 2.223 . S
Cd113 O116 2.297 . S
Cd113 O117 2.439 . S
Cd113 O123 2.240 . S
Cd114 O115 2.240 . S
Cd114 O122 2.223 . S
Cd114 O124 2.297 1_455 S
Cd114 O125 2.439 1_455 S
O115 Cd114 2.240 . S
O115 C120 1.279 . S
O116 Cd113 2.297 . S
O116 C118 1.247 . S
O117 Cd113 2.439 . S
O117 C118 1.208 . S
C118 O116 1.247 . S
C118 O117 1.208 . S
C119 O124 1.247 . S
C119 O125 1.208 . S
C120 O112 1.315 . S
C120 O115 1.279 . S
C121 O122 1.315 . S
C121 O123 1.279 . S
O122 Cd114 2.223 . S
O122 C121 1.315 . S
O123 Cd113 2.240 . S
O123 C121 1.279 . S
O124 Cd114 2.297 1_655 S
O124 C119 1.247 . S
O125 Cd114 2.439 1_655 S
O125 C119 1.208 . S
O126 Cd127 2.223 . S
O126 C134 1.315 . S
Cd127 O126 2.223 . S
Cd127 O130 2.297 . S
Cd127 O131 2.439 . S
Cd127 O137 2.240 . S
Cd128 O129 2.240 . S
Cd128 O136 2.223 . S
Cd128 O138 2.297 1_565 S
Cd128 O139 2.439 1_565 S
O129 Cd128 2.240 . S
O129 C134 1.279 . S
O130 Cd127 2.297 . S
O130 C132 1.247 . S
O131 Cd127 2.439 . S
O131 C132 1.208 . S
C132 O130 1.247 . S
C132 O131 1.208 . S
C133 O138 1.247 . S
C133 O139 1.208 . S
C134 O126 1.315 . S
C134 O129 1.279 . S
C135 O136 1.315 . S
C135 O137 1.279 . S
O136 Cd128 2.223 . S
O136 C135 1.315 . S
O137 Cd127 2.240 . S
O137 C135 1.279 . S
O138 Cd128 2.297 1_545 S
O138 C133 1.247 . S
O139 Cd128 2.439 1_545 S
O139 C133 1.208 . S
O140 Cd141 2.223 . S
O140 C148 1.315 . S
Cd141 O140 2.223 . S
Cd141 O144 2.297 . S
Cd141 O145 2.439 . S
Cd141 O151 2.240 . S
Cd142 O143 2.240 . S
Cd142 O150 2.223 . S
Cd142 O152 2.297 1_455 S
Cd142 O153 2.439 1_455 S
O143 Cd142 2.240 . S
O143 C148 1.279 . S
O144 Cd141 2.297 . S
O144 C146 1.247 . S
O145 Cd141 2.439 . S
O145 C146 1.208 . S
C146 O144 1.247 . S
C146 O145 1.208 . S
C147 O152 1.247 . S
C147 O153 1.208 . S
C148 O140 1.315 . S
C148 O143 1.279 . S
C149 O150 1.315 . S
C149 O151 1.279 . S
O150 Cd142 2.223 . S
O150 C149 1.315 . S
O151 Cd141 2.240 . S
O151 C149 1.279 . S
O152 Cd142 2.297 1_655 S
O152 C147 1.247 . S
O153 Cd142 2.439 1_655 S
O153 C147 1.208 . S
O154 Cd155 2.223 . S
O154 C162 1.315 . S
Cd155 O154 2.223 . S
Cd155 O158 2.297 . S
Cd155 O159 2.439 . S
Cd155 O165 2.240 . S
Cd156 O157 2.240 . S
Cd156 O164 2.223 . S
Cd156 O166 2.297 . S
Cd156 O167 2.439 . S
O157 Cd156 2.240 . S
O157 C162 1.279 . S
O158 Cd155 2.297 . S
O158 C160 1.247 . S
O159 Cd155 2.439 . S
O159 C160 1.208 . S
C160 O158 1.247 . S
C160 O159 1.208 . S
C161 O166 1.247 . S
C161 O167 1.208 . S
C162 O154 1.315 . S
C162 O157 1.279 . S
C163 O164 1.315 . S
C163 O165 1.279 . S
O164 Cd156 2.223 . S
O164 C163 1.315 . S
O165 Cd155 2.240 . S
O165 C163 1.279 . S
O166 Cd156 2.297 . S
O166 C161 1.247 . S
O167 Cd156 2.439 . S
O167 C161 1.208 . S
O168 Cd169 2.223 . S
O168 C176 1.315 . S
Cd169 O168 2.223 . S
Cd169 O172 2.297 . S
Cd169 O173 2.439 . S
Cd169 O179 2.240 . S
Cd170 O171 2.240 . S
Cd170 O178 2.223 . S
Cd170 O180 2.297 1_545 S
Cd170 O181 2.439 1_545 S
O171 Cd170 2.240 . S
O171 C176 1.279 . S
O172 Cd169 2.297 . S
O172 C174 1.247 . S
O173 Cd169 2.439 . S
O173 C174 1.208 . S
C174 O172 1.247 . S
C174 O173 1.208 . S
C175 O180 1.247 . S
C175 O181 1.208 . S
C176 O168 1.315 . S
C176 O171 1.279 . S
C177 O178 1.315 . S
C177 O179 1.279 . S
O178 Cd170 2.223 . S
O178 C177 1.315 . S
O179 Cd169 2.240 . S
O179 C177 1.279 . S
O180 Cd170 2.297 1_565 S
O180 C175 1.247 . S
O181 Cd170 2.439 1_565 S
O181 C175 1.208 . S
O182 Cd183 2.223 . S
O182 C190 1.315 . S
Cd183 O182 2.223 . S
Cd183 O186 2.297 . S
Cd183 O187 2.439 . S
Cd183 O193 2.240 . S
Cd184 O185 2.240 . S
Cd184 O192 2.223 . S
Cd184 O194 2.297 1_655 S
Cd184 O195 2.439 1_655 S
O185 Cd184 2.240 . S
O185 C190 1.279 . S
O186 Cd183 2.297 . S
O186 C188 1.247 . S
O187 Cd183 2.439 . S
O187 C188 1.208 . S
C188 O186 1.247 . S
C188 O187 1.208 . S
C189 O194 1.247 . S
C189 O195 1.208 . S
C190 O182 1.315 . S
C190 O185 1.279 . S
C191 O192 1.315 . S
C191 O193 1.279 . S
O192 Cd184 2.223 . S
O192 C191 1.315 . S
O193 Cd183 2.240 . S
O193 C191 1.279 . S
O194 Cd184 2.297 1_455 S
O194 C189 1.247 . S
O195 Cd184 2.439 1_455 S
O195 C189 1.208 . S
O196 Cd197 2.223 . S
O196 C204 1.315 . S
Cd197 O196 2.223 . S
Cd197 O200 2.297 . S
Cd197 O201 2.439 . S
Cd197 O207 2.240 . S
Cd198 O199 2.240 . S
Cd198 O206 2.223 . S
Cd198 O208 2.297 . S
Cd198 O209 2.439 . S
O199 Cd198 2.240 . S
O199 C204 1.279 . S
O200 Cd197 2.297 . S
O200 C202 1.247 . S
O201 Cd197 2.439 . S
O201 C202 1.208 . S
C202 O200 1.247 . S
C202 O201 1.208 . S
C203 O208 1.247 . S
C203 O209 1.208 . S
C204 O196 1.315 . S
C204 O199 1.279 . S
C205 O206 1.315 . S
C205 O207 1.279 . S
O206 Cd198 2.223 . S
O206 C205 1.315 . S
O207 Cd197 2.240 . S
O207 C205 1.279 . S
O208 Cd198 2.297 . S
O208 C203 1.247 . S
O209 Cd198 2.439 . S
O209 C203 1.208 . S
O210 Cd211 2.223 . S
O210 C218 1.315 . S
Cd211 O210 2.223 . S
Cd211 O214 2.297 . S
Cd211 O215 2.439 . S
Cd211 O221 2.240 . S
Cd212 O213 2.240 . S
Cd212 O220 2.223 . S
Cd212 O222 2.297 . S
Cd212 O223 2.439 . S
O213 Cd212 2.240 . S
O213 C218 1.279 . S
O214 Cd211 2.297 . S
O214 C216 1.247 . S
O215 Cd211 2.439 . S
O215 C216 1.208 . S
C216 O214 1.247 . S
C216 O215 1.208 . S
C217 O222 1.247 . S
C217 O223 1.208 . S
C218 O210 1.315 . S
C218 O213 1.279 . S
C219 O220 1.315 . S
C219 O221 1.279 . S
O220 Cd212 2.223 . S
O220 C219 1.315 . S
O221 Cd211 2.240 . S
O221 C219 1.279 . S
O222 Cd212 2.297 . S
O222 C217 1.247 . S
O223 Cd212 2.439 . S
O223 C217 1.208 . S
O224 Cd225 2.223 . S
O224 C232 1.315 . S
Cd225 O224 2.223 . S
Cd225 O228 2.297 1_545 S
Cd225 O229 2.439 1_545 S
Cd225 O235 2.240 . S
Cd226 O227 2.240 . S
Cd226 O234 2.223 . S
Cd226 O236 2.297 . S
Cd226 O237 2.439 . S
O227 Cd226 2.240 . S
O227 C232 1.279 . S
O228 Cd225 2.297 1_565 S
O228 C230 1.247 . S
O229 Cd225 2.439 1_565 S
O229 C230 1.208 . S
C230 O228 1.247 . S
C230 O229 1.208 . S
C231 O236 1.247 . S
C231 O237 1.208 . S
C232 O224 1.315 . S
C232 O227 1.279 . S
C233 O234 1.315 . S
C233 O235 1.279 . S
O234 Cd226 2.223 . S
O234 C233 1.315 . S
O235 Cd225 2.240 . S
O235 C233 1.279 . S
O236 Cd226 2.297 . S
O236 C231 1.247 . S
O237 Cd226 2.439 . S
O237 C231 1.208 . S
O238 Cd239 2.223 . S
O238 C246 1.315 . S
Cd239 O238 2.223 . S
Cd239 O242 2.297 . S
Cd239 O243 2.439 . S
Cd239 O249 2.240 . S
Cd240 O241 2.240 . S
Cd240 O248 2.223 . S
Cd240 O250 2.297 1_655 S
Cd240 O251 2.439 1_655 S
O241 Cd240 2.240 . S
O241 C246 1.279 . S
O242 Cd239 2.297 . S
O242 C244 1.247 . S
O243 Cd239 2.439 . S
O243 C244 1.208 . S
C244 O242 1.247 . S
C244 O243 1.208 . S
C245 O250 1.247 . S
C245 O251 1.208 . S
C246 O238 1.315 . S
C246 O241 1.279 . S
C247 O248 1.315 . S
C247 O249 1.279 . S
O248 Cd240 2.223 . S
O248 C247 1.315 . S
O249 Cd239 2.240 . S
O249 C247 1.279 . S
O250 Cd240 2.297 1_455 S
O250 C245 1.247 . S
O251 Cd240 2.439 1_455 S
O251 C245 1.208 . S
H252 C271 0.949 . S
H253 C272 0.950 . S
H254 C274 0.950 . S
H255 C275 0.950 . S
H256 C277 0.950 . S
H257 C280 0.950 . S
H258 C281 0.950 . S
H259 C283 0.951 . S
H260 C284 0.949 . S
H261 C286 0.949 . S
H262 C287 0.950 . S
H263 C289 0.950 . S
H264 C290 0.950 . S
H265 C292 0.950 . S
H266 C295 0.950 . S
H267 C296 0.950 . S
H268 C298 0.951 . S
H269 C299 0.949 . S
C270 C271 1.376 . S
C270 C275 1.386 . S
C270 C276 1.483 . S
C271 H252 0.949 . S
C271 C270 1.376 . S
C271 C272 1.397 . S
C272 H253 0.950 . S
C272 C271 1.397 . S
C272 C273 1.391 . S
C273 C272 1.391 . S
C273 C274 1.405 . S
C274 H254 0.950 . S
C274 C273 1.405 . S
C274 C275 1.367 . S
C275 H255 0.950 . S
C275 C270 1.386 . S
C275 C274 1.367 . S
C276 C270 1.483 . S
C276 C277 1.382 . S
C276 C278 1.403 . S
C277 H256 0.950 . S
C277 C276 1.382 . S
C277 C293 1.411 . S
C278 C276 1.403 . S
C278 C279 1.489 . S
C278 C292 1.411 . S
C279 C278 1.489 . S
C279 C280 1.383 . S
C279 C284 1.382 . S
C280 H257 0.950 . S
C280 C279 1.383 . S
C280 C281 1.395 . S
C281 H258 0.950 . S
C281 C280 1.395 . S
C281 C282 1.288 . S
C282 C281 1.288 . S
C282 C283 1.392 . S
C283 H259 0.951 . S
C283 C282 1.392 . S
C283 C284 1.392 . S
C284 H260 0.949 . S
C284 C279 1.382 . S
C284 C283 1.392 . S
C285 C286 1.376 . S
C285 C290 1.386 . S
C285 C291 1.483 . S
C286 H261 0.949 . S
C286 C285 1.376 . S
C286 C287 1.397 . S
C287 H262 0.950 . S
C287 C286 1.397 . S
C287 C288 1.391 . S
C288 C287 1.391 . S
C288 C289 1.405 . S
C289 H263 0.950 . S
C289 C288 1.405 . S
C289 C290 1.367 . S
C290 H264 0.950 . S
C290 C285 1.386 . S
C290 C289 1.367 . S
C291 C285 1.483 . S
C291 C292 1.382 . S
C291 C293 1.403 . S
C292 H265 0.950 . S
C292 C278 1.411 . S
C292 C291 1.382 . S
C293 C277 1.411 . S
C293 C291 1.403 . S
C293 C294 1.489 . S
C294 C293 1.489 . S
C294 C295 1.383 . S
C294 C299 1.382 . S
C295 H266 0.950 . S
C295 C294 1.383 . S
C295 C296 1.395 . S
C296 H267 0.950 . S
C296 C295 1.395 . S
C296 C297 1.288 . S
C297 C296 1.288 . S
C297 C298 1.392 . S
C298 H268 0.951 . S
C298 C297 1.392 . S
C298 C299 1.392 . S
C299 H269 0.949 . S
C299 C294 1.382 . S
C299 C298 1.392 . S
H300 C319 0.949 . S
H301 C320 0.950 . S
H302 C322 0.950 . S
H303 C323 0.950 . S
H304 C325 0.950 . S
H305 C328 0.950 . S
H306 C329 0.950 . S
H307 C331 0.951 . S
H308 C332 0.949 . S
H309 C334 0.949 . S
H310 C335 0.950 . S
H311 C337 0.950 . S
H312 C338 0.950 . S
H313 C340 0.950 . S
H314 C343 0.950 . S
H315 C344 0.950 . S
H316 C346 0.951 . S
H317 C347 0.949 . S
C318 C319 1.376 . S
C318 C323 1.386 . S
C318 C324 1.483 . S
C319 H300 0.949 . S
C319 C318 1.376 . S
C319 C320 1.397 . S
C320 H301 0.950 . S
C320 C319 1.397 . S
C320 C321 1.391 . S
C321 C320 1.391 . S
C321 C322 1.405 . S
C322 H302 0.950 . S
C322 C321 1.405 . S
C322 C323 1.367 . S
C323 H303 0.950 . S
C323 C318 1.386 . S
C323 C322 1.367 . S
C324 C318 1.483 . S
C324 C325 1.382 . S
C324 C326 1.403 . S
C325 H304 0.950 . S
C325 C324 1.382 . S
C325 C341 1.411 . S
C326 C324 1.403 . S
C326 C327 1.489 . S
C326 C340 1.411 . S
C327 C326 1.489 . S
C327 C328 1.383 . S
C327 C332 1.382 . S
C328 H305 0.950 . S
C328 C327 1.383 . S
C328 C329 1.395 . S
C329 H306 0.950 . S
C329 C328 1.395 . S
C329 C330 1.288 . S
C330 C329 1.288 . S
C330 C331 1.392 . S
C331 H307 0.951 . S
C331 C330 1.392 . S
C331 C332 1.392 . S
C332 H308 0.949 . S
C332 C327 1.382 . S
C332 C331 1.392 . S
C333 C334 1.376 . S
C333 C338 1.386 . S
C333 C339 1.483 . S
C334 H309 0.949 . S
C334 C333 1.376 . S
C334 C335 1.397 . S
C335 H310 0.950 . S
C335 C334 1.397 . S
C335 C336 1.391 . S
C336 C335 1.391 . S
C336 C337 1.405 . S
C337 H311 0.950 . S
C337 C336 1.405 . S
C337 C338 1.367 . S
C338 H312 0.950 . S
C338 C333 1.386 . S
C338 C337 1.367 . S
C339 C333 1.483 . S
C339 C340 1.382 . S
C339 C341 1.403 . S
C340 H313 0.950 . S
C340 C326 1.411 . S
C340 C339 1.382 . S
C341 C325 1.411 . S
C341 C339 1.403 . S
C341 C342 1.489 . S
C342 C341 1.489 . S
C342 C343 1.383 . S
C342 C347 1.382 . S
C343 H314 0.950 . S
C343 C342 1.383 . S
C343 C344 1.395 . S
C344 H315 0.950 . S
C344 C343 1.395 . S
C344 C345 1.288 . S
C345 C344 1.288 . S
C345 C346 1.392 . S
C346 H316 0.951 . S
C346 C345 1.392 . S
C346 C347 1.392 . S
C347 H317 0.949 . S
C347 C342 1.382 . S
C347 C346 1.392 . S
H348 C367 0.949 . S
H349 C368 0.950 . S
H350 C370 0.950 . S
H351 C371 0.950 . S
H352 C373 0.950 . S
H353 C376 0.950 . S
H354 C377 0.950 . S
H355 C379 0.951 . S
H356 C380 0.949 . S
H357 C382 0.949 . S
H358 C383 0.950 . S
H359 C385 0.950 . S
H360 C386 0.950 . S
H361 C388 0.950 . S
H362 C391 0.950 . S
H363 C392 0.950 . S
H364 C394 0.951 . S
H365 C395 0.949 . S
C366 C367 1.376 . S
C366 C371 1.386 . S
C366 C372 1.483 . S
C367 H348 0.949 . S
C367 C366 1.376 . S
C367 C368 1.397 . S
C368 H349 0.950 . S
C368 C367 1.397 . S
C368 C369 1.391 . S
C369 C368 1.391 . S
C369 C370 1.405 . S
C370 H350 0.950 . S
C370 C369 1.405 . S
C370 C371 1.367 . S
C371 H351 0.950 . S
C371 C366 1.386 . S
C371 C370 1.367 . S
C372 C366 1.483 . S
C372 C373 1.382 . S
C372 C374 1.403 . S
C373 H352 0.950 . S
C373 C372 1.382 . S
C373 C389 1.411 . S
C374 C372 1.403 . S
C374 C375 1.489 . S
C374 C388 1.411 . S
C375 C374 1.489 . S
C375 C376 1.383 . S
C375 C380 1.382 . S
C376 H353 0.950 . S
C376 C375 1.383 . S
C376 C377 1.395 . S
C377 H354 0.950 . S
C377 C376 1.395 . S
C377 C378 1.288 . S
C378 C377 1.288 . S
C378 C379 1.392 . S
C379 H355 0.951 . S
C379 C378 1.392 . S
C379 C380 1.392 . S
C380 H356 0.949 . S
C380 C375 1.382 . S
C380 C379 1.392 . S
C381 C382 1.376 . S
C381 C386 1.386 . S
C381 C387 1.483 . S
C382 H357 0.949 . S
C382 C381 1.376 . S
C382 C383 1.397 . S
C383 H358 0.950 . S
C383 C382 1.397 . S
C383 C384 1.391 . S
C384 C383 1.391 . S
C384 C385 1.405 . S
C385 H359 0.950 . S
C385 C384 1.405 . S
C385 C386 1.367 . S
C386 H360 0.950 . S
C386 C381 1.386 . S
C386 C385 1.367 . S
C387 C381 1.483 . S
C387 C388 1.382 . S
C387 C389 1.403 . S
C388 H361 0.950 . S
C388 C374 1.411 . S
C388 C387 1.382 . S
C389 C373 1.411 . S
C389 C387 1.403 . S
C389 C390 1.489 . S
C390 C389 1.489 . S
C390 C391 1.383 . S
C390 C395 1.382 . S
C391 H362 0.950 . S
C391 C390 1.383 . S
C391 C392 1.395 . S
C392 H363 0.950 . S
C392 C391 1.395 . S
C392 C393 1.288 . S
C393 C392 1.288 . S
C393 C394 1.392 . S
C394 H364 0.951 . S
C394 C393 1.392 . S
C394 C395 1.392 . S
C395 H365 0.949 . S
C395 C390 1.382 . S
C395 C394 1.392 . S
H396 C415 0.949 . S
H397 C416 0.950 . S
H398 C418 0.950 . S
H399 C419 0.950 . S
H400 C421 0.950 . S
H401 C424 0.950 . S
H402 C425 0.950 . S
H403 C427 0.951 . S
H404 C428 0.949 . S
H405 C430 0.949 . S
H406 C431 0.950 . S
H407 C433 0.950 . S
H408 C434 0.950 . S
H409 C436 0.950 . S
H410 C439 0.950 . S
H411 C440 0.950 . S
H412 C442 0.951 . S
H413 C443 0.949 . S
C414 C415 1.376 . S
C414 C419 1.386 . S
C414 C420 1.483 . S
C415 H396 0.949 . S
C415 C414 1.376 . S
C415 C416 1.397 . S
C416 H397 0.950 . S
C416 C415 1.397 . S
C416 C417 1.391 . S
C417 C416 1.391 . S
C417 C418 1.405 . S
C418 H398 0.950 . S
C418 C417 1.405 . S
C418 C419 1.367 . S
C419 H399 0.950 . S
C419 C414 1.386 . S
C419 C418 1.367 . S
C420 C414 1.483 . S
C420 C421 1.382 . S
C420 C422 1.403 . S
C421 H400 0.950 . S
C421 C420 1.382 . S
C421 C437 1.411 . S
C422 C420 1.403 . S
C422 C423 1.489 . S
C422 C436 1.411 . S
C423 C422 1.489 . S
C423 C424 1.383 . S
C423 C428 1.382 . S
C424 H401 0.950 . S
C424 C423 1.383 . S
C424 C425 1.395 . S
C425 H402 0.950 . S
C425 C424 1.395 . S
C425 C426 1.288 . S
C426 C425 1.288 . S
C426 C427 1.392 . S
C427 H403 0.951 . S
C427 C426 1.392 . S
C427 C428 1.392 . S
C428 H404 0.949 . S
C428 C423 1.382 . S
C428 C427 1.392 . S
C429 C430 1.376 . S
C429 C434 1.386 . S
C429 C435 1.483 . S
C430 H405 0.949 . S
C430 C429 1.376 . S
C430 C431 1.397 . S
C431 H406 0.950 . S
C431 C430 1.397 . S
C431 C432 1.391 . S
C432 C431 1.391 . S
C432 C433 1.405 . S
C433 H407 0.950 . S
C433 C432 1.405 . S
C433 C434 1.367 . S
C434 H408 0.950 . S
C434 C429 1.386 . S
C434 C433 1.367 . S
C435 C429 1.483 . S
C435 C436 1.382 . S
C435 C437 1.403 . S
C436 H409 0.950 . S
C436 C422 1.411 . S
C436 C435 1.382 . S
C437 C421 1.411 . S
C437 C435 1.403 . S
C437 C438 1.489 . S
C438 C437 1.489 . S
C438 C439 1.383 . S
C438 C443 1.382 . S
C439 H410 0.950 . S
C439 C438 1.383 . S
C439 C440 1.395 . S
C440 H411 0.950 . S
C440 C439 1.395 . S
C440 C441 1.288 . S
C441 C440 1.288 . S
C441 C442 1.392 . S
C442 H412 0.951 . S
C442 C441 1.392 . S
C442 C443 1.392 . S
C443 H413 0.949 . S
C443 C438 1.382 . S
C443 C442 1.392 . S
H444 C463 0.949 . S
H445 C464 0.950 . S
H446 C466 0.950 . S
H447 C467 0.950 . S
H448 C469 0.950 . S
H449 C472 0.950 . S
H450 C473 0.950 . S
H451 C475 0.951 . S
H452 C476 0.949 . S
H453 C478 0.949 . S
H454 C479 0.950 . S
H455 C481 0.950 . S
H456 C482 0.950 . S
H457 C484 0.950 . S
H458 C487 0.950 . S
H459 C488 0.950 . S
H460 C490 0.951 . S
H461 C491 0.949 . S
C462 C463 1.376 . S
C462 C467 1.386 . S
C462 C468 1.483 . S
C463 H444 0.949 . S
C463 C462 1.376 . S
C463 C464 1.397 . S
C464 H445 0.950 . S
C464 C463 1.397 . S
C464 C465 1.391 . S
C465 C464 1.391 . S
C465 C466 1.405 . S
C466 H446 0.950 . S
C466 C465 1.405 . S
C466 C467 1.367 . S
C467 H447 0.950 . S
C467 C462 1.386 . S
C467 C466 1.367 . S
C468 C462 1.483 . S
C468 C469 1.382 . S
C468 C470 1.403 . S
C469 H448 0.950 . S
C469 C468 1.382 . S
C469 C485 1.411 . S
C470 C468 1.403 . S
C470 C471 1.489 . S
C470 C484 1.411 . S
C471 C470 1.489 . S
C471 C472 1.383 . S
C471 C476 1.382 . S
C472 H449 0.950 . S
C472 C471 1.383 . S
C472 C473 1.395 . S
C473 H450 0.950 . S
C473 C472 1.395 . S
C473 C474 1.288 . S
C474 C473 1.288 . S
C474 C475 1.392 . S
C475 H451 0.951 . S
C475 C474 1.392 . S
C475 C476 1.392 . S
C476 H452 0.949 . S
C476 C471 1.382 . S
C476 C475 1.392 . S
C477 C478 1.376 . S
C477 C482 1.386 . S
C477 C483 1.483 . S
C478 H453 0.949 . S
C478 C477 1.376 . S
C478 C479 1.397 . S
C479 H454 0.950 . S
C479 C478 1.397 . S
C479 C480 1.391 . S
C480 C479 1.391 . S
C480 C481 1.405 . S
C481 H455 0.950 . S
C481 C480 1.405 . S
C481 C482 1.367 . S
C482 H456 0.950 . S
C482 C477 1.386 . S
C482 C481 1.367 . S
C483 C477 1.483 . S
C483 C484 1.382 . S
C483 C485 1.403 . S
C484 H457 0.950 . S
C484 C470 1.411 . S
C484 C483 1.382 . S
C485 C469 1.411 . S
C485 C483 1.403 . S
C485 C486 1.489 . S
C486 C485 1.489 . S
C486 C487 1.383 . S
C486 C491 1.382 . S
C487 H458 0.950 . S
C487 C486 1.383 . S
C487 C488 1.395 . S
C488 H459 0.950 . S
C488 C487 1.395 . S
C488 C489 1.288 . S
C489 C488 1.288 . S
C489 C490 1.392 . S
C490 H460 0.951 . S
C490 C489 1.392 . S
C490 C491 1.392 . S
C491 H461 0.949 . S
C491 C486 1.382 . S
C491 C490 1.392 . S
H492 C511 0.949 . S
H493 C512 0.950 . S
H494 C514 0.950 . S
H495 C515 0.950 . S
H496 C517 0.950 . S
H497 C520 0.950 . S
H498 C521 0.950 . S
H499 C523 0.951 . S
H500 C524 0.949 . S
H501 C526 0.949 . S
H502 C527 0.950 . S
H503 C529 0.950 . S
H504 C530 0.950 . S
H505 C532 0.950 . S
H506 C535 0.950 . S
H507 C536 0.950 . S
H508 C538 0.951 . S
H509 C539 0.949 . S
C510 C511 1.376 . S
C510 C515 1.386 . S
C510 C516 1.483 . S
C511 H492 0.949 . S
C511 C510 1.376 . S
C511 C512 1.397 . S
C512 H493 0.950 . S
C512 C511 1.397 . S
C512 C513 1.391 . S
C513 C512 1.391 . S
C513 C514 1.405 . S
C514 H494 0.950 . S
C514 C513 1.405 . S
C514 C515 1.367 . S
C515 H495 0.950 . S
C515 C510 1.386 . S
C515 C514 1.367 . S
C516 C510 1.483 . S
C516 C517 1.382 . S
C516 C518 1.403 . S
C517 H496 0.950 . S
C517 C516 1.382 . S
C517 C533 1.411 . S
C518 C516 1.403 . S
C518 C519 1.489 . S
C518 C532 1.411 . S
C519 C518 1.489 . S
C519 C520 1.383 . S
C519 C524 1.382 . S
C520 H497 0.950 . S
C520 C519 1.383 . S
C520 C521 1.395 . S
C521 H498 0.950 . S
C521 C520 1.395 . S
C521 C522 1.288 . S
C522 C521 1.288 . S
C522 C523 1.392 . S
C523 H499 0.951 . S
C523 C522 1.392 . S
C523 C524 1.392 . S
C524 H500 0.949 . S
C524 C519 1.382 . S
C524 C523 1.392 . S
C525 C526 1.376 . S
C525 C530 1.386 . S
C525 C531 1.483 . S
C526 H501 0.949 . S
C526 C525 1.376 . S
C526 C527 1.397 . S
C527 H502 0.950 . S
C527 C526 1.397 . S
C527 C528 1.391 . S
C528 C527 1.391 . S
C528 C529 1.405 . S
C529 H503 0.950 . S
C529 C528 1.405 . S
C529 C530 1.367 . S
C530 H504 0.950 . S
C530 C525 1.386 . S
C530 C529 1.367 . S
C531 C525 1.483 . S
C531 C532 1.382 . S
C531 C533 1.403 . S
C532 H505 0.950 . S
C532 C518 1.411 . S
C532 C531 1.382 . S
C533 C517 1.411 . S
C533 C531 1.403 . S
C533 C534 1.489 . S
C534 C533 1.489 . S
C534 C535 1.383 . S
C534 C539 1.382 . S
C535 H506 0.950 . S
C535 C534 1.383 . S
C535 C536 1.395 . S
C536 H507 0.950 . S
C536 C535 1.395 . S
C536 C537 1.288 . S
C537 C536 1.288 . S
C537 C538 1.392 . S
C538 H508 0.951 . S
C538 C537 1.392 . S
C538 C539 1.392 . S
C539 H509 0.949 . S
C539 C534 1.382 . S
C539 C538 1.392 . S
H540 C559 0.949 . S
H541 C560 0.950 . S
H542 C562 0.950 . S
H543 C563 0.950 . S
H544 C565 0.950 . S
H545 C568 0.950 . S
H546 C569 0.950 . S
H547 C571 0.951 . S
H548 C572 0.949 . S
H549 C574 0.949 . S
H550 C575 0.950 . S
H551 C577 0.950 . S
H552 C578 0.950 . S
H553 C580 0.950 . S
H554 C583 0.950 . S
H555 C584 0.950 . S
H556 C586 0.951 . S
H557 C587 0.949 . S
C558 C559 1.376 . S
C558 C563 1.386 . S
C558 C564 1.483 . S
C559 H540 0.949 . S
C559 C558 1.376 . S
C559 C560 1.397 . S
C560 H541 0.950 . S
C560 C559 1.397 . S
C560 C561 1.391 . S
C561 C560 1.391 . S
C561 C562 1.405 . S
C562 H542 0.950 . S
C562 C561 1.405 . S
C562 C563 1.367 . S
C563 H543 0.950 . S
C563 C558 1.386 . S
C563 C562 1.367 . S
C564 C558 1.483 . S
C564 C565 1.382 . S
C564 C566 1.403 . S
C565 H544 0.950 . S
C565 C564 1.382 . S
C565 C581 1.411 . S
C566 C564 1.403 . S
C566 C567 1.489 . S
C566 C580 1.411 . S
C567 C566 1.489 . S
C567 C568 1.383 . S
C567 C572 1.382 . S
C568 H545 0.950 . S
C568 C567 1.383 . S
C568 C569 1.395 . S
C569 H546 0.950 . S
C569 C568 1.395 . S
C569 C570 1.288 . S
C570 C569 1.288 . S
C570 C571 1.392 . S
C571 H547 0.951 . S
C571 C570 1.392 . S
C571 C572 1.392 . S
C572 H548 0.949 . S
C572 C567 1.382 . S
C572 C571 1.392 . S
C573 C574 1.376 . S
C573 C578 1.386 . S
C573 C579 1.483 . S
C574 H549 0.949 . S
C574 C573 1.376 . S
C574 C575 1.397 . S
C575 H550 0.950 . S
C575 C574 1.397 . S
C575 C576 1.391 . S
C576 C575 1.391 . S
C576 C577 1.405 . S
C577 H551 0.950 . S
C577 C576 1.405 . S
C577 C578 1.367 . S
C578 H552 0.950 . S
C578 C573 1.386 . S
C578 C577 1.367 . S
C579 C573 1.483 . S
C579 C580 1.382 . S
C579 C581 1.403 . S
C580 H553 0.950 . S
C580 C566 1.411 . S
C580 C579 1.382 . S
C581 C565 1.411 . S
C581 C579 1.403 . S
C581 C582 1.489 . S
C582 C581 1.489 . S
C582 C583 1.383 . S
C582 C587 1.382 . S
C583 H554 0.950 . S
C583 C582 1.383 . S
C583 C584 1.395 . S
C584 H555 0.950 . S
C584 C583 1.395 . S
C584 C585 1.288 . S
C585 C584 1.288 . S
C585 C586 1.392 . S
C586 H556 0.951 . S
C586 C585 1.392 . S
C586 C587 1.392 . S
C587 H557 0.949 . S
C587 C582 1.382 . S
C587 C586 1.392 . S
H588 C607 0.949 . S
H589 C608 0.950 . S
H590 C610 0.950 . S
H591 C611 0.950 . S
H592 C613 0.950 . S
H593 C616 0.950 . S
H594 C617 0.950 . S
H595 C619 0.951 . S
H596 C620 0.949 . S
H597 C622 0.949 . S
H598 C623 0.950 . S
H599 C625 0.950 . S
H600 C626 0.950 . S
H601 C628 0.950 . S
H602 C631 0.950 . S
H603 C632 0.950 . S
H604 C634 0.951 . S
H605 C635 0.949 . S
C606 C607 1.376 . S
C606 C611 1.386 . S
C606 C612 1.483 . S
C607 H588 0.949 . S
C607 C606 1.376 . S
C607 C608 1.397 . S
C608 H589 0.950 . S
C608 C607 1.397 . S
C608 C609 1.391 . S
C609 C608 1.391 . S
C609 C610 1.405 . S
C610 H590 0.950 . S
C610 C609 1.405 . S
C610 C611 1.367 . S
C611 H591 0.950 . S
C611 C606 1.386 . S
C611 C610 1.367 . S
C612 C606 1.483 . S
C612 C613 1.382 . S
C612 C614 1.403 . S
C613 H592 0.950 . S
C613 C612 1.382 . S
C613 C629 1.411 . S
C614 C612 1.403 . S
C614 C615 1.489 . S
C614 C628 1.411 . S
C615 C614 1.489 . S
C615 C616 1.383 . S
C615 C620 1.382 . S
C616 H593 0.950 . S
C616 C615 1.383 . S
C616 C617 1.395 . S
C617 H594 0.950 . S
C617 C616 1.395 . S
C617 C618 1.288 . S
C618 C617 1.288 . S
C618 C619 1.392 . S
C619 H595 0.951 . S
C619 C618 1.392 . S
C619 C620 1.392 . S
C620 H596 0.949 . S
C620 C615 1.382 . S
C620 C619 1.392 . S
C621 C622 1.376 . S
C621 C626 1.386 . S
C621 C627 1.483 . S
C622 H597 0.949 . S
C622 C621 1.376 . S
C622 C623 1.397 . S
C623 H598 0.950 . S
C623 C622 1.397 . S
C623 C624 1.391 . S
C624 C623 1.391 . S
C624 C625 1.405 . S
C625 H599 0.950 . S
C625 C624 1.405 . S
C625 C626 1.367 . S
C626 H600 0.950 . S
C626 C621 1.386 . S
C626 C625 1.367 . S
C627 C621 1.483 . S
C627 C628 1.382 . S
C627 C629 1.403 . S
C628 H601 0.950 . S
C628 C614 1.411 . S
C628 C627 1.382 . S
C629 C613 1.411 . S
C629 C627 1.403 . S
C629 C630 1.489 . S
C630 C629 1.489 . S
C630 C631 1.383 . S
C630 C635 1.382 . S
C631 H602 0.950 . S
C631 C630 1.383 . S
C631 C632 1.395 . S
C632 H603 0.950 . S
C632 C631 1.395 . S
C632 C633 1.288 . S
C633 C632 1.288 . S
C633 C634 1.392 . S
C634 H604 0.951 . S
C634 C633 1.392 . S
C634 C635 1.392 . S
C635 H605 0.949 . S
C635 C630 1.382 . S
C635 C634 1.392 . S
H636 C655 0.949 . S
H637 C656 0.950 . S
H638 C658 0.950 . S
H639 C659 0.950 . S
H640 C661 0.950 . S
H641 C664 0.950 . S
H642 C665 0.950 . S
H643 C667 0.951 . S
H644 C668 0.949 . S
H645 C670 0.949 . S
H646 C671 0.950 . S
H647 C673 0.950 . S
H648 C674 0.950 . S
H649 C676 0.950 . S
H650 C679 0.950 . S
H651 C680 0.950 . S
H652 C682 0.951 . S
H653 C683 0.949 . S
C654 C655 1.376 . S
C654 C659 1.386 . S
C654 C660 1.483 . S
C655 H636 0.949 . S
C655 C654 1.376 . S
C655 C656 1.397 . S
C656 H637 0.950 . S
C656 C655 1.397 . S
C656 C657 1.391 . S
C657 C656 1.391 . S
C657 C658 1.405 . S
C658 H638 0.950 . S
C658 C657 1.405 . S
C658 C659 1.367 . S
C659 H639 0.950 . S
C659 C654 1.386 . S
C659 C658 1.367 . S
C660 C654 1.483 . S
C660 C661 1.382 . S
C660 C662 1.403 . S
C661 H640 0.950 . S
C661 C660 1.382 . S
C661 C677 1.411 . S
C662 C660 1.403 . S
C662 C663 1.489 . S
C662 C676 1.411 . S
C663 C662 1.489 . S
C663 C664 1.383 . S
C663 C668 1.382 . S
C664 H641 0.950 . S
C664 C663 1.383 . S
C664 C665 1.395 . S
C665 H642 0.950 . S
C665 C664 1.395 . S
C665 C666 1.288 . S
C666 C665 1.288 . S
C666 C667 1.392 . S
C667 H643 0.951 . S
C667 C666 1.392 . S
C667 C668 1.392 . S
C668 H644 0.949 . S
C668 C663 1.382 . S
C668 C667 1.392 . S
C669 C670 1.376 . S
C669 C674 1.386 . S
C669 C675 1.483 . S
C670 H645 0.949 . S
C670 C669 1.376 . S
C670 C671 1.397 . S
C671 H646 0.950 . S
C671 C670 1.397 . S
C671 C672 1.391 . S
C672 C671 1.391 . S
C672 C673 1.405 . S
C673 H647 0.950 . S
C673 C672 1.405 . S
C673 C674 1.367 . S
C674 H648 0.950 . S
C674 C669 1.386 . S
C674 C673 1.367 . S
C675 C669 1.483 . S
C675 C676 1.382 . S
C675 C677 1.403 . S
C676 H649 0.950 . S
C676 C662 1.411 . S
C676 C675 1.382 . S
C677 C661 1.411 . S
C677 C675 1.403 . S
C677 C678 1.489 . S
C678 C677 1.489 . S
C678 C679 1.383 . S
C678 C683 1.382 . S
C679 H650 0.950 . S
C679 C678 1.383 . S
C679 C680 1.395 . S
C680 H651 0.950 . S
C680 C679 1.395 . S
C680 C681 1.288 . S
C681 C680 1.288 . S
C681 C682 1.392 . S
C682 H652 0.951 . S
C682 C681 1.392 . S
C682 C683 1.392 . S
C683 H653 0.949 . S
C683 C678 1.382 . S
C683 C682 1.392 . S
H684 C703 0.949 . S
H685 C704 0.950 . S
H686 C706 0.950 . S
H687 C707 0.950 . S
H688 C709 0.950 . S
H689 C712 0.950 . S
H690 C713 0.950 . S
H691 C715 0.951 . S
H692 C716 0.949 . S
H693 C718 0.949 . S
H694 C719 0.950 . S
H695 C721 0.950 . S
H696 C722 0.950 . S
H697 C724 0.950 . S
H698 C727 0.950 . S
H699 C728 0.950 . S
H700 C730 0.951 . S
H701 C731 0.949 . S
C702 C703 1.376 . S
C702 C707 1.386 1_655 S
C702 C708 1.483 . S
C703 H684 0.949 . S
C703 C702 1.376 . S
C703 C704 1.397 . S
C704 H685 0.950 . S
C704 C703 1.397 . S
C704 C705 1.391 . S
C705 C704 1.391 . S
C705 C706 1.405 1_655 S
C706 H686 0.950 . S
C706 C705 1.405 1_455 S
C706 C707 1.367 . S
C707 H687 0.950 . S
C707 C702 1.386 1_455 S
C707 C706 1.367 . S
C708 C702 1.483 . S
C708 C709 1.382 . S
C708 C710 1.403 1_655 S
C709 H688 0.950 . S
C709 C708 1.382 . S
C709 C725 1.411 . S
C710 C708 1.403 1_455 S
C710 C711 1.489 . S
C710 C724 1.411 . S
C711 C710 1.489 . S
C711 C712 1.383 1_455 S
C711 C716 1.382 . S
C712 H689 0.950 . S
C712 C711 1.383 1_655 S
C712 C713 1.395 . S
C713 H690 0.950 . S
C713 C712 1.395 . S
C713 C714 1.288 1_655 S
C714 C713 1.288 1_455 S
C714 C715 1.392 . S
C715 H691 0.951 . S
C715 C714 1.392 . S
C715 C716 1.392 . S
C716 H692 0.949 . S
C716 C711 1.382 . S
C716 C715 1.392 . S
C717 C718 1.376 . S
C717 C722 1.386 1_455 S
C717 C723 1.483 . S
C718 H693 0.949 . S
C718 C717 1.376 . S
C718 C719 1.397 . S
C719 H694 0.950 . S
C719 C718 1.397 . S
C719 C720 1.391 . S
C720 C719 1.391 . S
C720 C721 1.405 1_455 S
C721 H695 0.950 . S
C721 C720 1.405 1_655 S
C721 C722 1.367 . S
C722 H696 0.950 . S
C722 C717 1.386 1_655 S
C722 C721 1.367 . S
C723 C717 1.483 . S
C723 C724 1.382 . S
C723 C725 1.403 1_455 S
C724 H697 0.950 . S
C724 C710 1.411 . S
C724 C723 1.382 . S
C725 C709 1.411 . S
C725 C723 1.403 1_655 S
C725 C726 1.489 . S
C726 C725 1.489 . S
C726 C727 1.383 1_655 S
C726 C731 1.382 . S
C727 H698 0.950 . S
C727 C726 1.383 1_455 S
C727 C728 1.395 . S
C728 H699 0.950 . S
C728 C727 1.395 . S
C728 C729 1.288 1_455 S
C729 C728 1.288 1_655 S
C729 C730 1.392 . S
C730 H700 0.951 . S
C730 C729 1.392 . S
C730 C731 1.392 . S
C731 H701 0.949 . S
C731 C726 1.382 . S
C731 C730 1.392 . S
H732 C751 0.949 . S
H733 C752 0.950 . S
H734 C754 0.950 . S
H735 C755 0.950 . S
H736 C757 0.950 . S
H737 C760 0.950 . S
H738 C761 0.950 . S
H739 C763 0.951 . S
H740 C764 0.949 . S
H741 C766 0.949 . S
H742 C767 0.950 . S
H743 C769 0.950 . S
H744 C770 0.950 . S
H745 C772 0.950 . S
H746 C775 0.950 . S
H747 C776 0.950 . S
H748 C778 0.951 . S
H749 C779 0.949 . S
C750 C751 1.376 . S
C750 C755 1.386 . S
C750 C756 1.483 . S
C751 H732 0.949 . S
C751 C750 1.376 . S
C751 C752 1.397 . S
C752 H733 0.950 . S
C752 C751 1.397 . S
C752 C753 1.391 . S
C753 C752 1.391 . S
C753 C754 1.405 . S
C754 H734 0.950 . S
C754 C753 1.405 . S
C754 C755 1.367 . S
C755 H735 0.950 . S
C755 C750 1.386 . S
C755 C754 1.367 . S
C756 C750 1.483 . S
C756 C757 1.382 . S
C756 C758 1.403 . S
C757 H736 0.950 . S
C757 C756 1.382 . S
C757 C773 1.411 . S
C758 C756 1.403 . S
C758 C759 1.489 . S
C758 C772 1.411 . S
C759 C758 1.489 . S
C759 C760 1.383 . S
C759 C764 1.382 . S
C760 H737 0.950 . S
C760 C759 1.383 . S
C760 C761 1.395 . S
C761 H738 0.950 . S
C761 C760 1.395 . S
C761 C762 1.288 . S
C762 C761 1.288 . S
C762 C763 1.392 . S
C763 H739 0.951 . S
C763 C762 1.392 . S
C763 C764 1.392 . S
C764 H740 0.949 . S
C764 C759 1.382 . S
C764 C763 1.392 . S
C765 C766 1.376 . S
C765 C770 1.386 . S
C765 C771 1.483 . S
C766 H741 0.949 . S
C766 C765 1.376 . S
C766 C767 1.397 . S
C767 H742 0.950 . S
C767 C766 1.397 . S
C767 C768 1.391 . S
C768 C767 1.391 . S
C768 C769 1.405 . S
C769 H743 0.950 . S
C769 C768 1.405 . S
C769 C770 1.367 . S
C770 H744 0.950 . S
C770 C765 1.386 . S
C770 C769 1.367 . S
C771 C765 1.483 . S
C771 C772 1.382 . S
C771 C773 1.403 . S
C772 H745 0.950 . S
C772 C758 1.411 . S
C772 C771 1.382 . S
C773 C757 1.411 . S
C773 C771 1.403 . S
C773 C774 1.489 . S
C774 C773 1.489 . S
C774 C775 1.383 . S
C774 C779 1.382 . S
C775 H746 0.950 . S
C775 C774 1.383 . S
C775 C776 1.395 . S
C776 H747 0.950 . S
C776 C775 1.395 . S
C776 C777 1.288 . S
C777 C776 1.288 . S
C777 C778 1.392 . S
C778 H748 0.951 . S
C778 C777 1.392 . S
C778 C779 1.392 . S
C779 H749 0.949 . S
C779 C774 1.382 . S
C779 C778 1.392 . S
H780 C799 0.949 . S
H781 C800 0.950 . S
H782 C802 0.950 . S
H783 C803 0.950 . S
H784 C805 0.950 . S
H785 C808 0.950 . S
H786 C809 0.950 . S
H787 C811 0.951 . S
H788 C812 0.949 . S
H789 C814 0.949 . S
H790 C815 0.950 . S
H791 C817 0.950 . S
H792 C818 0.950 . S
H793 C820 0.950 . S
H794 C823 0.950 . S
H795 C824 0.950 . S
H796 C826 0.951 . S
H797 C827 0.949 . S
C798 C799 1.376 . S
C798 C803 1.386 1_545 S
C798 C804 1.483 . S
C799 H780 0.949 . S
C799 C798 1.376 . S
C799 C800 1.397 . S
C800 H781 0.950 . S
C800 C799 1.397 . S
C800 C801 1.391 . S
C801 C800 1.391 . S
C801 C802 1.405 1_545 S
C802 H782 0.950 . S
C802 C801 1.405 1_565 S
C802 C803 1.367 . S
C803 H783 0.950 . S
C803 C798 1.386 1_565 S
C803 C802 1.367 . S
C804 C798 1.483 . S
C804 C805 1.382 . S
C804 C806 1.403 1_545 S
C805 H784 0.950 . S
C805 C804 1.382 . S
C805 C821 1.411 . S
C806 C804 1.403 1_565 S
C806 C807 1.489 . S
C806 C820 1.411 . S
C807 C806 1.489 . S
C807 C808 1.383 1_565 S
C807 C812 1.382 . S
C808 H785 0.950 . S
C808 C807 1.383 1_545 S
C808 C809 1.395 . S
C809 H786 0.950 . S
C809 C808 1.395 . S
C809 C810 1.288 1_545 S
C810 C809 1.288 1_565 S
C810 C811 1.392 . S
C811 H787 0.951 . S
C811 C810 1.392 . S
C811 C812 1.392 . S
C812 H788 0.949 . S
C812 C807 1.382 . S
C812 C811 1.392 . S
C813 C814 1.376 . S
C813 C818 1.386 1_565 S
C813 C819 1.483 . S
C814 H789 0.949 . S
C814 C813 1.376 . S
C814 C815 1.397 . S
C815 H790 0.950 . S
C815 C814 1.397 . S
C815 C816 1.391 . S
C816 C815 1.391 . S
C816 C817 1.405 1_565 S
C817 H791 0.950 . S
C817 C816 1.405 1_545 S
C817 C818 1.367 . S
C818 H792 0.950 . S
C818 C813 1.386 1_545 S
C818 C817 1.367 . S
C819 C813 1.483 . S
C819 C820 1.382 . S
C819 C821 1.403 1_565 S
C820 H793 0.950 . S
C820 C806 1.411 . S
C820 C819 1.382 . S
C821 C805 1.411 . S
C821 C819 1.403 1_545 S
C821 C822 1.489 . S
C822 C821 1.489 . S
C822 C823 1.383 1_545 S
C822 C827 1.382 . S
C823 H794 0.950 . S
C823 C822 1.383 1_565 S
C823 C824 1.395 . S
C824 H795 0.950 . S
C824 C823 1.395 . S
C824 C825 1.288 1_565 S
C825 C824 1.288 1_545 S
C825 C826 1.392 . S
C826 H796 0.951 . S
C826 C825 1.392 . S
C826 C827 1.392 . S
C827 H797 0.949 . S
C827 C822 1.382 . S
C827 C826 1.392 . S
H828 C847 0.949 . S
H829 C848 0.950 . S
H830 C850 0.950 . S
H831 C851 0.950 . S
H832 C853 0.950 . S
H833 C856 0.950 . S
H834 C857 0.950 . S
H835 C859 0.951 . S
H836 C860 0.949 . S
H837 C862 0.949 . S
H838 C863 0.950 . S
H839 C865 0.950 . S
H840 C866 0.950 . S
H841 C868 0.950 . S
H842 C871 0.950 . S
H843 C872 0.950 . S
H844 C874 0.951 . S
H845 C875 0.949 . S
C846 C847 1.391 . S
C846 C851 1.379 1_545 S
C846 C852 1.502 . S
C847 H828 0.949 . S
C847 C846 1.391 . S
C847 C848 1.397 . S
C848 H829 0.950 . S
C848 C847 1.397 . S
C848 C849 1.391 1_545 S
C849 C848 1.391 1_565 S
C849 C850 1.405 . S
C850 H830 0.950 . S
C850 C849 1.405 . S
C850 C851 1.367 . S
C851 H831 0.950 . S
C851 C846 1.379 1_565 S
C851 C850 1.367 . S
C852 C846 1.502 . S
C852 C853 1.357 . S
C852 C854 1.398 1_545 S
C853 H832 0.950 . S
C853 C852 1.357 . S
C853 C869 1.448 . S
C854 C852 1.398 1_565 S
C854 C855 1.487 . S
C854 C868 1.438 . S
C855 C854 1.487 . S
C855 C856 1.335 1_565 S
C855 C860 1.408 . S
C856 H833 0.950 . S
C856 C855 1.335 1_545 S
C856 C857 1.395 . S
C857 H834 0.950 . S
C857 C856 1.395 . S
C857 C858 1.326 . S
C858 C857 1.326 . S
C858 C859 1.319 1_545 S
C859 H835 0.951 . S
C859 C858 1.319 1_565 S
C859 C860 1.392 . S
C860 H836 0.949 . S
C860 C855 1.408 . S
C860 C859 1.392 . S
C861 C862 1.377 . S
C861 C866 1.386 1_565 S
C861 C867 1.502 . S
C862 H837 0.949 . S
C862 C861 1.377 . S
C862 C863 1.397 . S
C863 H838 0.950 . S
C863 C862 1.397 . S
C863 C864 1.391 1_565 S
C864 C863 1.391 1_545 S
C864 C865 1.405 . S
C865 H839 0.950 . S
C865 C864 1.405 . S
C865 C866 1.367 . S
C866 H840 0.950 . S
C866 C861 1.386 1_545 S
C866 C865 1.367 . S
C867 C861 1.502 . S
C867 C868 1.364 . S
C867 C869 1.398 1_565 S
C868 H841 0.950 . S
C868 C854 1.438 . S
C868 C867 1.364 . S
C869 C853 1.448 . S
C869 C867 1.398 1_545 S
C869 C870 1.487 . S
C870 C869 1.487 . S
C870 C871 1.317 1_545 S
C870 C875 1.419 . S
C871 H842 0.950 . S
C871 C870 1.317 1_565 S
C871 C872 1.395 . S
C872 H843 0.950 . S
C872 C871 1.395 . S
C872 C873 1.316 . S
C873 C872 1.316 . S
C873 C874 1.337 1_565 S
C874 H844 0.951 . S
C874 C873 1.337 1_545 S
C874 C875 1.392 . S
C875 H845 0.949 . S
C875 C870 1.419 . S
C875 C874 1.392 . S
H876 C895 0.949 . S
H877 C896 0.950 . S
H878 C898 0.950 . S
H879 C899 0.950 . S
H880 C901 0.950 . S
H881 C904 0.950 . S
H882 C905 0.950 . S
H883 C907 0.951 . S
H884 C908 0.949 . S
H885 C910 0.949 . S
H886 C911 0.950 . S
H887 C913 0.950 . S
H888 C914 0.950 . S
H889 C916 0.950 . S
H890 C919 0.950 . S
H891 C920 0.950 . S
H892 C922 0.951 . S
H893 C923 0.949 . S
C894 C895 1.376 . S
C894 C899 1.386 1_455 S
C894 C900 1.483 . S
C895 H876 0.949 . S
C895 C894 1.376 . S
C895 C896 1.397 . S
C896 H877 0.950 . S
C896 C895 1.397 . S
C896 C897 1.391 . S
C897 C896 1.391 . S
C897 C898 1.405 1_455 S
C898 H878 0.950 . S
C898 C897 1.405 1_655 S
C898 C899 1.367 . S
C899 H879 0.950 . S
C899 C894 1.386 1_655 S
C899 C898 1.367 . S
C900 C894 1.483 . S
C900 C901 1.382 . S
C900 C902 1.403 1_455 S
C901 H880 0.950 . S
C901 C900 1.382 . S
C901 C917 1.411 . S
C902 C900 1.403 1_655 S
C902 C903 1.489 . S
C902 C916 1.411 . S
C903 C902 1.489 . S
C903 C904 1.383 1_655 S
C903 C908 1.382 . S
C904 H881 0.950 . S
C904 C903 1.383 1_455 S
C904 C905 1.395 . S
C905 H882 0.950 . S
C905 C904 1.395 . S
C905 C906 1.288 1_455 S
C906 C905 1.288 1_655 S
C906 C907 1.392 . S
C907 H883 0.951 . S
C907 C906 1.392 . S
C907 C908 1.392 . S
C908 H884 0.949 . S
C908 C903 1.382 . S
C908 C907 1.392 . S
C909 C910 1.376 . S
C909 C914 1.386 1_655 S
C909 C915 1.483 . S
C910 H885 0.949 . S
C910 C909 1.376 . S
C910 C911 1.397 . S
C911 H886 0.950 . S
C911 C910 1.397 . S
C911 C912 1.391 . S
C912 C911 1.391 . S
C912 C913 1.405 1_655 S
C913 H887 0.950 . S
C913 C912 1.405 1_455 S
C913 C914 1.367 . S
C914 H888 0.950 . S
C914 C909 1.386 1_455 S
C914 C913 1.367 . S
C915 C909 1.483 . S
C915 C916 1.382 . S
C915 C917 1.403 1_655 S
C916 H889 0.950 . S
C916 C902 1.411 . S
C916 C915 1.382 . S
C917 C901 1.411 . S
C917 C915 1.403 1_455 S
C917 C918 1.489 . S
C918 C917 1.489 . S
C918 C919 1.383 1_455 S
C918 C923 1.382 . S
C919 H890 0.950 . S
C919 C918 1.383 1_655 S
C919 C920 1.395 . S
C920 H891 0.950 . S
C920 C919 1.395 . S
C920 C921 1.288 1_655 S
C921 C920 1.288 1_455 S
C921 C922 1.392 . S
C922 H892 0.951 . S
C922 C921 1.392 . S
C922 C923 1.392 . S
C923 H893 0.949 . S
C923 C918 1.382 . S
C923 C922 1.392 . S
H924 C943 0.949 . S
H925 C944 0.950 . S
H926 C946 0.950 . S
H927 C947 0.950 . S
H928 C949 0.950 . S
H929 C952 0.950 . S
H930 C953 0.950 . S
H931 C955 0.951 . S
H932 C956 0.949 . S
H933 C958 0.949 . S
H934 C959 0.950 . S
H935 C961 0.950 . S
H936 C962 0.950 . S
H937 C964 0.950 . S
H938 C967 0.950 . S
H939 C968 0.950 . S
H940 C970 0.951 . S
H941 C971 0.949 . S
C942 C943 1.376 . S
C942 C947 1.386 . S
C942 C948 1.483 . S
C943 H924 0.949 . S
C943 C942 1.376 . S
C943 C944 1.397 . S
C944 H925 0.950 . S
C944 C943 1.397 . S
C944 C945 1.391 . S
C945 C944 1.391 . S
C945 C946 1.405 . S
C946 H926 0.950 . S
C946 C945 1.405 . S
C946 C947 1.367 . S
C947 H927 0.950 . S
C947 C942 1.386 . S
C947 C946 1.367 . S
C948 C942 1.483 . S
C948 C949 1.382 . S
C948 C950 1.403 . S
C949 H928 0.950 . S
C949 C948 1.382 . S
C949 C965 1.411 . S
C950 C948 1.403 . S
C950 C951 1.489 . S
C950 C964 1.411 . S
C951 C950 1.489 . S
C951 C952 1.383 . S
C951 C956 1.382 . S
C952 H929 0.950 . S
C952 C951 1.383 . S
C952 C953 1.395 . S
C953 H930 0.950 . S
C953 C952 1.395 . S
C953 C954 1.288 . S
C954 C953 1.288 . S
C954 C955 1.392 . S
C955 H931 0.951 . S
C955 C954 1.392 . S
C955 C956 1.392 . S
C956 H932 0.949 . S
C956 C951 1.382 . S
C956 C955 1.392 . S
C957 C958 1.376 . S
C957 C962 1.386 . S
C957 C963 1.483 . S
C958 H933 0.949 . S
C958 C957 1.376 . S
C958 C959 1.397 . S
C959 H934 0.950 . S
C959 C958 1.397 . S
C959 C960 1.391 . S
C960 C959 1.391 . S
C960 C961 1.405 . S
C961 H935 0.950 . S
C961 C960 1.405 . S
C961 C962 1.367 . S
C962 H936 0.950 . S
C962 C957 1.386 . S
C962 C961 1.367 . S
C963 C957 1.483 . S
C963 C964 1.382 . S
C963 C965 1.403 . S
C964 H937 0.950 . S
C964 C950 1.411 . S
C964 C963 1.382 . S
C965 C949 1.411 . S
C965 C963 1.403 . S
C965 C966 1.489 . S
C966 C965 1.489 . S
C966 C967 1.383 . S
C966 C971 1.382 . S
C967 H938 0.950 . S
C967 C966 1.383 . S
C967 C968 1.395 . S
C968 H939 0.950 . S
C968 C967 1.395 . S
C968 C969 1.288 . S
C969 C968 1.288 . S
C969 C970 1.392 . S
C970 H940 0.951 . S
C970 C969 1.392 . S
C970 C971 1.392 . S
C971 H941 0.949 . S
C971 C966 1.382 . S
C971 C970 1.392 . S
H972 C991 0.949 . S
H973 C992 0.950 . S
H974 C994 0.950 . S
H975 C995 0.950 . S
H976 C997 0.950 . S
H977 C1000 0.950 . S
H978 C1001 0.950 . S
H979 C1003 0.951 . S
H980 C1004 0.949 . S
H981 C1006 0.949 . S
H982 C1007 0.950 . S
H983 C1009 0.950 . S
H984 C1010 0.950 . S
H985 C1012 0.950 . S
H986 C1015 0.950 . S
H987 C1016 0.950 . S
H988 C1018 0.951 . S
H989 C1019 0.949 . S
C990 C991 1.376 . S
C990 C995 1.386 . S
C990 C996 1.483 . S
C991 H972 0.949 . S
C991 C990 1.376 . S
C991 C992 1.397 . S
C992 H973 0.950 . S
C992 C991 1.397 . S
C992 C993 1.391 . S
C993 C992 1.391 . S
C993 C994 1.405 . S
C994 H974 0.950 . S
C994 C993 1.405 . S
C994 C995 1.367 . S
C995 H975 0.950 . S
C995 C990 1.386 . S
C995 C994 1.367 . S
C996 C990 1.483 . S
C996 C997 1.382 . S
C996 C998 1.403 . S
C997 H976 0.950 . S
C997 C996 1.382 . S
C997 C1013 1.411 . S
C998 C996 1.403 . S
C998 C999 1.489 . S
C998 C1012 1.411 . S
C999 C998 1.489 . S
C999 C1000 1.383 . S
C999 C1004 1.382 . S
C1000 H977 0.950 . S
C1000 C999 1.383 . S
C1000 C1001 1.395 . S
C1001 H978 0.950 . S
C1001 C1000 1.395 . S
C1001 C1002 1.288 . S
C1002 C1001 1.288 . S
C1002 C1003 1.392 . S
C1003 H979 0.951 . S
C1003 C1002 1.392 . S
C1003 C1004 1.392 . S
C1004 H980 0.949 . S
C1004 C999 1.382 . S
C1004 C1003 1.392 . S
C1005 C1006 1.376 . S
C1005 C1010 1.386 . S
C1005 C1011 1.483 . S
C1006 H981 0.949 . S
C1006 C1005 1.376 . S
C1006 C1007 1.397 . S
C1007 H982 0.950 . S
C1007 C1006 1.397 . S
C1007 C1008 1.391 . S
C1008 C1007 1.391 . S
C1008 C1009 1.405 . S
C1009 H983 0.950 . S
C1009 C1008 1.405 . S
C1009 C1010 1.367 . S
C1010 H984 0.950 . S
C1010 C1005 1.386 . S
C1010 C1009 1.367 . S
C1011 C1005 1.483 . S
C1011 C1012 1.382 . S
C1011 C1013 1.403 . S
C1012 H985 0.950 . S
C1012 C998 1.411 . S
C1012 C1011 1.382 . S
C1013 C997 1.411 . S
C1013 C1011 1.403 . S
C1013 C1014 1.489 . S
C1014 C1013 1.489 . S
C1014 C1015 1.383 . S
C1014 C1019 1.382 . S
C1015 H986 0.950 . S
C1015 C1014 1.383 . S
C1015 C1016 1.395 . S
C1016 H987 0.950 . S
C1016 C1015 1.395 . S
C1016 C1017 1.288 . S
C1017 C1016 1.288 . S
C1017 C1018 1.392 . S
C1018 H988 0.951 . S
C1018 C1017 1.392 . S
C1018 C1019 1.392 . S
C1019 H989 0.949 . S
C1019 C1014 1.382 . S
C1019 C1018 1.392 . S
H1020 C1039 0.949 . S
H1021 C1040 0.950 . S
H1022 C1042 0.950 . S
H1023 C1043 0.950 . S
H1024 C1045 0.950 . S
H1025 C1048 0.950 . S
H1026 C1049 0.950 . S
H1027 C1051 0.951 . S
H1028 C1052 0.949 . S
H1029 C1054 0.949 . S
H1030 C1055 0.950 . S
H1031 C1057 0.950 . S
H1032 C1058 0.950 . S
H1033 C1060 0.950 . S
H1034 C1063 0.950 . S
H1035 C1064 0.950 . S
H1036 C1066 0.951 . S
H1037 C1067 0.949 . S
C1038 C1039 1.376 . S
C1038 C1043 1.386 . S
C1038 C1044 1.483 . S
C1039 H1020 0.949 . S
C1039 C1038 1.376 . S
C1039 C1040 1.397 . S
C1040 H1021 0.950 . S
C1040 C1039 1.397 . S
C1040 C1041 1.391 . S
C1041 C1040 1.391 . S
C1041 C1042 1.405 . S
C1042 H1022 0.950 . S
C1042 C1041 1.405 . S
C1042 C1043 1.367 . S
C1043 H1023 0.950 . S
C1043 C1038 1.386 . S
C1043 C1042 1.367 . S
C1044 C1038 1.483 . S
C1044 C1045 1.382 . S
C1044 C1046 1.403 . S
C1045 H1024 0.950 . S
C1045 C1044 1.382 . S
C1045 C1061 1.411 . S
C1046 C1044 1.403 . S
C1046 C1047 1.489 . S
C1046 C1060 1.411 . S
C1047 C1046 1.489 . S
C1047 C1048 1.383 . S
C1047 C1052 1.382 . S
C1048 H1025 0.950 . S
C1048 C1047 1.383 . S
C1048 C1049 1.395 . S
C1049 H1026 0.950 . S
C1049 C1048 1.395 . S
C1049 C1050 1.288 . S
C1050 C1049 1.288 . S
C1050 C1051 1.392 . S
C1051 H1027 0.951 . S
C1051 C1050 1.392 . S
C1051 C1052 1.392 . S
C1052 H1028 0.949 . S
C1052 C1047 1.382 . S
C1052 C1051 1.392 . S
C1053 C1054 1.376 . S
C1053 C1058 1.386 . S
C1053 C1059 1.483 . S
C1054 H1029 0.949 . S
C1054 C1053 1.376 . S
C1054 C1055 1.397 . S
C1055 H1030 0.950 . S
C1055 C1054 1.397 . S
C1055 C1056 1.391 . S
C1056 C1055 1.391 . S
C1056 C1057 1.405 . S
C1057 H1031 0.950 . S
C1057 C1056 1.405 . S
C1057 C1058 1.367 . S
C1058 H1032 0.950 . S
C1058 C1053 1.386 . S
C1058 C1057 1.367 . S
C1059 C1053 1.483 . S
C1059 C1060 1.382 . S
C1059 C1061 1.403 . S
C1060 H1033 0.950 . S
C1060 C1046 1.411 . S
C1060 C1059 1.382 . S
C1061 C1045 1.411 . S
C1061 C1059 1.403 . S
C1061 C1062 1.489 . S
C1062 C1061 1.489 . S
C1062 C1063 1.383 . S
C1062 C1067 1.382 . S
C1063 H1034 0.950 . S
C1063 C1062 1.383 . S
C1063 C1064 1.395 . S
C1064 H1035 0.950 . S
C1064 C1063 1.395 . S
C1064 C1065 1.288 . S
C1065 C1064 1.288 . S
C1065 C1066 1.392 . S
C1066 H1036 0.951 . S
C1066 C1065 1.392 . S
C1066 C1067 1.392 . S
C1067 H1037 0.949 . S
C1067 C1062 1.382 . S
C1067 C1066 1.392 . S
H1068 C1087 0.949 . S
H1069 C1088 0.950 . S
H1070 C1090 0.950 . S
H1071 C1091 0.950 . S
H1072 C1093 0.950 . S
H1073 C1096 0.950 . S
H1074 C1097 0.950 . S
H1075 C1099 0.951 . S
H1076 C1100 0.949 . S
H1077 C1102 0.949 . S
H1078 C1103 0.950 . S
H1079 C1105 0.950 . S
H1080 C1106 0.950 . S
H1081 C1108 0.950 . S
H1082 C1111 0.950 . S
H1083 C1112 0.950 . S
H1084 C1114 0.951 . S
H1085 C1115 0.949 . S
C1086 C1087 1.376 . S
C1086 C1091 1.386 . S
C1086 C1092 1.483 . S
C1087 H1068 0.949 . S
C1087 C1086 1.376 . S
C1087 C1088 1.397 . S
C1088 H1069 0.950 . S
C1088 C1087 1.397 . S
C1088 C1089 1.391 . S
C1089 C1088 1.391 . S
C1089 C1090 1.405 . S
C1090 H1070 0.950 . S
C1090 C1089 1.405 . S
C1090 C1091 1.367 . S
C1091 H1071 0.950 . S
C1091 C1086 1.386 . S
C1091 C1090 1.367 . S
C1092 C1086 1.483 . S
C1092 C1093 1.382 . S
C1092 C1094 1.403 . S
C1093 H1072 0.950 . S
C1093 C1092 1.382 . S
C1093 C1109 1.411 . S
C1094 C1092 1.403 . S
C1094 C1095 1.489 . S
C1094 C1108 1.411 . S
C1095 C1094 1.489 . S
C1095 C1096 1.383 . S
C1095 C1100 1.382 . S
C1096 H1073 0.950 . S
C1096 C1095 1.383 . S
C1096 C1097 1.395 . S
C1097 H1074 0.950 . S
C1097 C1096 1.395 . S
C1097 C1098 1.288 . S
C1098 C1097 1.288 . S
C1098 C1099 1.392 . S
C1099 H1075 0.951 . S
C1099 C1098 1.392 . S
C1099 C1100 1.392 . S
C1100 H1076 0.949 . S
C1100 C1095 1.382 . S
C1100 C1099 1.392 . S
C1101 C1102 1.376 . S
C1101 C1106 1.386 . S
C1101 C1107 1.483 . S
C1102 H1077 0.949 . S
C1102 C1101 1.376 . S
C1102 C1103 1.397 . S
C1103 H1078 0.950 . S
C1103 C1102 1.397 . S
C1103 C1104 1.391 . S
C1104 C1103 1.391 . S
C1104 C1105 1.405 . S
C1105 H1079 0.950 . S
C1105 C1104 1.405 . S
C1105 C1106 1.367 . S
C1106 H1080 0.950 . S
C1106 C1101 1.386 . S
C1106 C1105 1.367 . S
C1107 C1101 1.483 . S
C1107 C1108 1.382 . S
C1107 C1109 1.403 . S
C1108 H1081 0.950 . S
C1108 C1094 1.411 . S
C1108 C1107 1.382 . S
C1109 C1093 1.411 . S
C1109 C1107 1.403 . S
C1109 C1110 1.489 . S
C1110 C1109 1.489 . S
C1110 C1111 1.383 . S
C1110 C1115 1.382 . S
C1111 H1082 0.950 . S
C1111 C1110 1.383 . S
C1111 C1112 1.395 . S
C1112 H1083 0.950 . S
C1112 C1111 1.395 . S
C1112 C1113 1.288 . S
C1113 C1112 1.288 . S
C1113 C1114 1.392 . S
C1114 H1084 0.951 . S
C1114 C1113 1.392 . S
C1114 C1115 1.392 . S
C1115 H1085 0.949 . S
C1115 C1110 1.382 . S
C1115 C1114 1.392 . S
H1116 C1124 0.950 . S
H1117 C1129 0.950 . S
H1118 C1126 0.950 . S
H1119 C1128 0.950 . S
H1120 C1130 0.950 . S
H1121 C1132 0.950 . S
H1122 C1134 0.950 . S
H1123 C1135 0.950 . S
C1124 H1116 0.950 . S
C1124 C1125 1.395 . S
C1124 C1126 1.391 . S
C1125 C1124 1.395 . S
C1125 C1129 1.387 1_655 S
C1126 H1118 0.950 . S
C1126 C1124 1.391 . S
C1126 C1127 1.400 . S
C1127 C1126 1.400 . S
C1127 C1128 1.398 1_655 S
C1127 C1133 1.491 . S
C1128 H1119 0.950 . S
C1128 C1127 1.398 1_455 S
C1128 C1129 1.391 . S
C1129 H1117 0.950 . S
C1129 C1125 1.387 1_455 S
C1129 C1128 1.391 . S
C1130 H1120 0.950 . S
C1130 C1131 1.386 1_455 S
C1130 C1132 1.391 . S
C1131 C1130 1.386 1_655 S
C1131 C1135 1.393 . S
C1132 H1121 0.950 . S
C1132 C1130 1.391 . S
C1132 C1133 1.400 1_455 S
C1133 C1127 1.491 . S
C1133 C1132 1.400 1_655 S
C1133 C1134 1.398 . S
C1134 H1122 0.950 . S
C1134 C1133 1.398 . S
C1134 C1135 1.391 . S
C1135 H1123 0.950 . S
C1135 C1131 1.393 . S
C1135 C1134 1.391 . S
H1136 C1144 0.950 . S
H1137 C1149 0.950 . S
H1138 C1146 0.950 . S
H1139 C1148 0.950 . S
H1140 C1150 0.950 . S
H1141 C1152 0.950 . S
H1142 C1154 0.950 . S
H1143 C1155 0.950 . S
C1144 H1136 0.950 . S
C1144 C1145 1.386 . S
C1144 C1146 1.391 . S
C1145 C1144 1.386 . S
C1145 C1149 1.393 . S
C1146 H1138 0.950 . S
C1146 C1144 1.391 . S
C1146 C1147 1.400 . S
C1147 C1146 1.400 . S
C1147 C1148 1.398 . S
C1147 C1153 1.491 . S
C1148 H1139 0.950 . S
C1148 C1147 1.398 . S
C1148 C1149 1.391 . S
C1149 H1137 0.950 . S
C1149 C1145 1.393 . S
C1149 C1148 1.391 . S
C1150 H1140 0.950 . S
C1150 C1151 1.386 . S
C1150 C1152 1.391 . S
C1151 C1150 1.386 . S
C1151 C1155 1.393 . S
C1152 H1141 0.950 . S
C1152 C1150 1.391 . S
C1152 C1153 1.400 . S
C1153 C1147 1.491 . S
C1153 C1152 1.400 . S
C1153 C1154 1.398 . S
C1154 H1142 0.950 . S
C1154 C1153 1.398 . S
C1154 C1155 1.391 . S
C1155 H1143 0.950 . S
C1155 C1151 1.393 . S
C1155 C1154 1.391 . S
H1156 C1164 0.950 . S
H1157 C1169 0.950 . S
H1158 C1166 0.950 . S
H1159 C1168 0.950 . S
H1160 C1170 0.950 . S
H1161 C1172 0.950 . S
H1162 C1174 0.950 . S
H1163 C1175 0.950 . S
C1164 H1156 0.950 . S
C1164 C1165 1.386 . S
C1164 C1166 1.391 . S
C1165 C1164 1.386 . S
C1165 C1169 1.393 1_545 S
C1166 H1158 0.950 . S
C1166 C1164 1.391 . S
C1166 C1167 1.400 . S
C1167 C1166 1.400 . S
C1167 C1168 1.398 1_545 S
C1167 C1173 1.491 . S
C1168 H1159 0.950 . S
C1168 C1167 1.398 1_565 S
C1168 C1169 1.391 . S
C1169 H1157 0.950 . S
C1169 C1165 1.393 1_565 S
C1169 C1168 1.391 . S
C1170 H1160 0.950 . S
C1170 C1171 1.386 1_565 S
C1170 C1172 1.391 . S
C1171 C1170 1.386 1_545 S
C1171 C1175 1.393 . S
C1172 H1161 0.950 . S
C1172 C1170 1.391 . S
C1172 C1173 1.400 1_565 S
C1173 C1167 1.491 . S
C1173 C1172 1.400 1_545 S
C1173 C1174 1.398 . S
C1174 H1162 0.950 . S
C1174 C1173 1.398 . S
C1174 C1175 1.391 . S
C1175 H1163 0.950 . S
C1175 C1171 1.393 . S
C1175 C1174 1.391 . S
H1176 C1184 0.950 . S
H1177 C1189 0.950 . S
H1178 C1186 0.950 . S
H1179 C1188 0.950 . S
H1180 C1190 0.950 . S
H1181 C1192 0.950 . S
H1182 C1194 0.950 . S
H1183 C1195 0.950 . S
C1184 H1176 0.950 . S
C1184 C1185 1.424 . S
C1184 C1186 1.391 . S
C1185 C1184 1.424 . S
C1185 C1189 1.371 1_565 S
C1186 H1178 0.950 . S
C1186 C1184 1.391 . S
C1186 C1187 1.400 . S
C1187 C1186 1.400 . S
C1187 C1188 1.398 1_565 S
C1187 C1193 1.491 . S
C1188 H1179 0.950 . S
C1188 C1187 1.398 1_545 S
C1188 C1189 1.391 . S
C1189 H1177 0.950 . S
C1189 C1185 1.371 1_545 S
C1189 C1188 1.391 . S
C1190 H1180 0.950 . S
C1190 C1191 1.386 1_545 S
C1190 C1192 1.391 . S
C1191 C1190 1.386 1_565 S
C1191 C1195 1.393 . S
C1192 H1181 0.950 . S
C1192 C1190 1.391 . S
C1192 C1193 1.400 1_545 S
C1193 C1187 1.491 . S
C1193 C1192 1.400 1_565 S
C1193 C1194 1.398 . S
C1194 H1182 0.950 . S
C1194 C1193 1.398 . S
C1194 C1195 1.391 . S
C1195 H1183 0.950 . S
C1195 C1191 1.393 . S
C1195 C1194 1.391 . S
H1196 C1204 0.938 1_655 S
H1197 C1209 0.950 . S
H1198 C1206 0.896 1_655 S
H1199 C1208 0.950 . S
H1200 C1210 0.950 . S
H1201 C1212 0.950 . S
H1202 C1214 0.959 . S
H1203 C1215 0.955 . S
C1204 H1196 0.938 1_455 S
C1204 C1205 1.407 . S
C1204 C1206 1.390 . S
C1205 C1204 1.407 . S
C1205 C1209 1.393 . S
C1206 H1198 0.896 1_455 S
C1206 C1204 1.390 . S
C1206 C1207 1.406 . S
C1207 C1206 1.406 . S
C1207 C1208 1.398 . S
C1207 C1213 1.491 . S
C1208 H1199 0.950 . S
C1208 C1207 1.398 . S
C1208 C1209 1.391 . S
C1209 H1197 0.950 . S
C1209 C1205 1.393 . S
C1209 C1208 1.391 . S
C1210 H1200 0.950 . S
C1210 C1211 1.386 . S
C1210 C1212 1.391 . S
C1211 C1210 1.386 . S
C1211 C1215 1.391 1_455 S
C1212 H1201 0.950 . S
C1212 C1210 1.391 . S
C1212 C1213 1.400 . S
C1213 C1207 1.491 . S
C1213 C1212 1.400 . S
C1213 C1214 1.377 1_455 S
C1214 H1202 0.959 . S
C1214 C1213 1.377 1_655 S
C1214 C1215 1.401 . S
C1215 H1203 0.955 . S
C1215 C1211 1.391 1_655 S
C1215 C1214 1.401 . S
H1216 C1224 0.950 . S
H1217 C1229 0.950 . S
H1218 C1226 0.950 . S
H1219 C1228 0.950 . S
H1220 C1230 0.950 . S
H1221 C1232 0.950 . S
H1222 C1234 0.950 . S
H1223 C1235 0.950 . S
C1224 H1216 0.950 . S
C1224 C1225 1.386 . S
C1224 C1226 1.391 . S
C1225 C1224 1.386 . S
C1225 C1229 1.393 . S
C1226 H1218 0.950 . S
C1226 C1224 1.391 . S
C1226 C1227 1.400 . S
C1227 C1226 1.400 . S
C1227 C1228 1.398 . S
C1227 C1233 1.491 . S
C1228 H1219 0.950 . S
C1228 C1227 1.398 . S
C1228 C1229 1.391 . S
C1229 H1217 0.950 . S
C1229 C1225 1.393 . S
C1229 C1228 1.391 . S
C1230 H1220 0.950 . S
C1230 C1231 1.386 . S
C1230 C1232 1.391 . S
C1231 C1230 1.386 . S
C1231 C1235 1.393 . S
C1232 H1221 0.950 . S
C1232 C1230 1.391 . S
C1232 C1233 1.400 . S
C1233 C1227 1.491 . S
C1233 C1232 1.400 . S
C1233 C1234 1.398 . S
C1234 H1222 0.950 . S
C1234 C1233 1.398 . S
C1234 C1235 1.391 . S
C1235 H1223 0.950 . S
C1235 C1231 1.393 . S
C1235 C1234 1.391 . S
H1236 C1244 0.951 1_655 S
H1237 C1249 0.954 . S
H1238 C1246 0.953 . S
H1239 C1248 0.948 . S
H1240 C1250 0.950 . S
H1241 C1252 0.950 . S
H1242 C1254 0.950 . S
H1243 C1255 0.950 . S
C1244 H1236 0.951 1_455 S
C1244 C1245 1.396 . S
C1244 C1246 1.374 . S
C1245 C1244 1.396 . S
C1245 C1249 1.395 . S
C1246 H1238 0.953 . S
C1246 C1244 1.374 . S
C1246 C1247 1.399 . S
C1247 C1246 1.399 . S
C1247 C1248 1.439 . S
C1247 C1253 1.491 . S
C1248 H1239 0.948 . S
C1248 C1247 1.439 . S
C1248 C1249 1.386 . S
C1249 H1237 0.954 . S
C1249 C1245 1.395 . S
C1249 C1248 1.386 . S
C1250 H1240 0.950 . S
C1250 C1251 1.386 . S
C1250 C1252 1.391 . S
C1251 C1250 1.386 . S
C1251 C1255 1.393 . S
C1252 H1241 0.950 . S
C1252 C1250 1.391 . S
C1252 C1253 1.400 . S
C1253 C1247 1.491 . S
C1253 C1252 1.400 . S
C1253 C1254 1.398 . S
C1254 H1242 0.950 . S
C1254 C1253 1.398 . S
C1254 C1255 1.391 . S
C1255 H1243 0.950 . S
C1255 C1251 1.393 . S
C1255 C1254 1.391 . S
H1256 C1264 0.950 . S
H1257 C1269 0.950 . S
H1258 C1266 0.950 . S
H1259 C1268 0.950 . S
H1260 C1270 0.950 . S
H1261 C1272 0.950 . S
H1262 C1274 0.950 . S
H1263 C1275 0.950 . S
C1264 H1256 0.950 . S
C1264 C1265 1.386 . S
C1264 C1266 1.391 . S
C1265 C1264 1.386 . S
C1265 C1269 1.393 . S
C1266 H1258 0.950 . S
C1266 C1264 1.391 . S
C1266 C1267 1.400 . S
C1267 C1266 1.400 . S
C1267 C1268 1.398 . S
C1267 C1273 1.491 . S
C1268 H1259 0.950 . S
C1268 C1267 1.398 . S
C1268 C1269 1.391 . S
C1269 H1257 0.950 . S
C1269 C1265 1.393 . S
C1269 C1268 1.391 . S
C1270 H1260 0.950 . S
C1270 C1271 1.386 . S
C1270 C1272 1.391 . S
C1271 C1270 1.386 . S
C1271 C1275 1.393 . S
C1272 H1261 0.950 . S
C1272 C1270 1.391 . S
C1272 C1273 1.400 . S
C1273 C1267 1.491 . S
C1273 C1272 1.400 . S
C1273 C1274 1.398 . S
C1274 H1262 0.950 . S
C1274 C1273 1.398 . S
C1274 C1275 1.391 . S
C1275 H1263 0.950 . S
C1275 C1271 1.393 . S
C1275 C1274 1.391 . S
H1276 C1284 0.950 . S
H1277 C1289 0.950 . S
H1278 C1286 0.950 . S
H1279 C1288 0.950 . S
H1280 C1290 0.950 . S
H1281 C1292 0.950 . S
H1282 C1294 0.950 . S
H1283 C1295 0.950 . S
C1284 H1276 0.950 . S
C1284 C1285 1.386 . S
C1284 C1286 1.391 . S
C1285 C1284 1.386 . S
C1285 C1289 1.393 1_565 S
C1286 H1278 0.950 . S
C1286 C1284 1.391 . S
C1286 C1287 1.400 . S
C1287 C1286 1.400 . S
C1287 C1288 1.398 1_565 S
C1287 C1293 1.491 . S
C1288 H1279 0.950 . S
C1288 C1287 1.398 1_545 S
C1288 C1289 1.391 . S
C1289 H1277 0.950 . S
C1289 C1285 1.393 1_545 S
C1289 C1288 1.391 . S
C1290 H1280 0.950 . S
C1290 C1291 1.386 1_545 S
C1290 C1292 1.391 . S
C1291 C1290 1.386 1_565 S
C1291 C1295 1.393 . S
C1292 H1281 0.950 . S
C1292 C1290 1.391 . S
C1292 C1293 1.400 1_545 S
C1293 C1287 1.491 . S
C1293 C1292 1.400 1_565 S
C1293 C1294 1.398 . S
C1294 H1282 0.950 . S
C1294 C1293 1.398 . S
C1294 C1295 1.391 . S
C1295 H1283 0.950 . S
C1295 C1291 1.393 . S
C1295 C1294 1.391 . S
H1296 C1304 0.950 . S
H1297 C1309 0.950 . S
H1298 C1306 0.950 . S
H1299 C1308 0.950 . S
H1300 C1310 0.950 . S
H1301 C1312 0.950 . S
H1302 C1314 0.950 . S
H1303 C1315 0.950 . S
C1304 H1296 0.950 . S
C1304 C1305 1.386 . S
C1304 C1306 1.391 . S
C1305 C1304 1.386 . S
C1305 C1309 1.393 1_545 S
C1306 H1298 0.950 . S
C1306 C1304 1.391 . S
C1306 C1307 1.400 . S
C1307 C1306 1.400 . S
C1307 C1308 1.398 1_545 S
C1307 C1313 1.491 . S
C1308 H1299 0.950 . S
C1308 C1307 1.398 1_565 S
C1308 C1309 1.391 . S
C1309 H1297 0.950 . S
C1309 C1305 1.393 1_565 S
C1309 C1308 1.391 . S
C1310 H1300 0.950 . S
C1310 C1311 1.386 1_565 S
C1310 C1312 1.391 . S
C1311 C1310 1.386 1_545 S
C1311 C1315 1.393 . S
C1312 H1301 0.950 . S
C1312 C1310 1.391 . S
C1312 C1313 1.400 1_565 S
C1313 C1307 1.491 . S
C1313 C1312 1.400 1_545 S
C1313 C1314 1.398 . S
C1314 H1302 0.950 . S
C1314 C1313 1.398 . S
C1314 C1315 1.391 . S
C1315 H1303 0.950 . S
C1315 C1311 1.393 . S
C1315 C1314 1.391 . S
H1316 C1324 0.950 . S
H1317 C1329 0.950 . S
H1318 C1326 0.950 . S
H1319 C1328 0.950 . S
H1320 C1330 0.950 . S
H1321 C1332 0.950 . S
H1322 C1334 0.950 . S
H1323 C1335 0.950 . S
C1324 H1316 0.950 . S
C1324 C1325 1.386 1_455 S
C1324 C1326 1.391 . S
C1325 C1324 1.386 1_655 S
C1325 C1329 1.393 . S
C1326 H1318 0.950 . S
C1326 C1324 1.391 . S
C1326 C1327 1.400 1_455 S
C1327 C1326 1.400 1_655 S
C1327 C1328 1.398 . S
C1327 C1333 1.491 . S
C1328 H1319 0.950 . S
C1328 C1327 1.398 . S
C1328 C1329 1.391 . S
C1329 H1317 0.950 . S
C1329 C1325 1.393 . S
C1329 C1328 1.391 . S
C1330 H1320 0.950 . S
C1330 C1331 1.386 . S
C1330 C1332 1.391 . S
C1331 C1330 1.386 . S
C1331 C1335 1.393 1_655 S
C1332 H1321 0.950 . S
C1332 C1330 1.391 . S
C1332 C1333 1.400 . S
C1333 C1327 1.491 . S
C1333 C1332 1.400 . S
C1333 C1334 1.398 1_655 S
C1334 H1322 0.950 . S
C1334 C1333 1.398 1_455 S
C1334 C1335 1.391 . S
C1335 H1323 0.950 . S
C1335 C1331 1.393 1_455 S
C1335 C1334 1.391 . S
H1336 C1344 0.950 . S
H1337 C1349 0.950 . S
H1338 C1346 0.950 . S
H1339 C1348 0.950 . S
H1340 C1350 0.950 . S
H1341 C1352 0.950 . S
H1342 C1354 0.950 . S
H1343 C1355 0.950 . S
C1344 H1336 0.950 . S
C1344 C1345 1.386 . S
C1344 C1346 1.391 . S
C1345 C1344 1.386 . S
C1345 C1349 1.393 . S
C1346 H1338 0.950 . S
C1346 C1344 1.391 . S
C1346 C1347 1.400 . S
C1347 C1346 1.400 . S
C1347 C1348 1.398 . S
C1347 C1353 1.491 . S
C1348 H1339 0.950 . S
C1348 C1347 1.398 . S
C1348 C1349 1.391 . S
C1349 H1337 0.950 . S
C1349 C1345 1.393 . S
C1349 C1348 1.391 . S
C1350 H1340 0.950 . S
C1350 C1351 1.386 . S
C1350 C1352 1.391 . S
C1351 C1350 1.386 . S
C1351 C1355 1.393 . S
C1352 H1341 0.950 . S
C1352 C1350 1.391 . S
C1352 C1353 1.400 . S
C1353 C1347 1.491 . S
C1353 C1352 1.400 . S
C1353 C1354 1.398 . S
C1354 H1342 0.950 . S
C1354 C1353 1.398 . S
C1354 C1355 1.391 . S
C1355 H1343 0.950 . S
C1355 C1351 1.393 . S
C1355 C1354 1.391 . S
H1356 C1364 0.950 . S
H1357 C1369 0.950 . S
H1358 C1366 0.950 . S
H1359 C1368 0.950 . S
H1360 C1370 0.950 . S
H1361 C1372 0.950 . S
H1362 C1374 0.950 . S
H1363 C1375 0.950 . S
C1364 H1356 0.950 . S
C1364 C1365 1.386 . S
C1364 C1366 1.391 . S
C1365 C1364 1.386 . S
C1365 C1369 1.393 . S
C1366 H1358 0.950 . S
C1366 C1364 1.391 . S
C1366 C1367 1.400 . S
C1367 C1366 1.400 . S
C1367 C1368 1.398 . S
C1367 C1373 1.491 . S
C1368 H1359 0.950 . S
C1368 C1367 1.398 . S
C1368 C1369 1.391 . S
C1369 H1357 0.950 . S
C1369 C1365 1.393 . S
C1369 C1368 1.391 . S
C1370 H1360 0.950 . S
C1370 C1371 1.386 . S
C1370 C1372 1.391 . S
C1371 C1370 1.386 . S
C1371 C1375 1.393 . S
C1372 H1361 0.950 . S
C1372 C1370 1.391 . S
C1372 C1373 1.400 . S
C1373 C1367 1.491 . S
C1373 C1372 1.400 . S
C1373 C1374 1.398 . S
C1374 H1362 0.950 . S
C1374 C1373 1.398 . S
C1374 C1375 1.391 . S
C1375 H1363 0.950 . S
C1375 C1371 1.393 . S
C1375 C1374 1.391 . S
H1376 C1384 0.950 . S
H1377 C1389 0.950 . S
H1378 C1386 0.950 . S
H1379 C1388 0.950 . S
H1380 C1390 0.950 . S
H1381 C1392 0.950 . S
H1382 C1394 0.950 . S
H1383 C1395 0.950 . S
C1384 H1376 0.950 . S
C1384 C1385 1.386 . S
C1384 C1386 1.391 . S
C1385 C1384 1.386 . S
C1385 C1389 1.393 . S
C1386 H1378 0.950 . S
C1386 C1384 1.391 . S
C1386 C1387 1.400 . S
C1387 C1386 1.400 . S
C1387 C1388 1.398 . S
C1387 C1393 1.491 . S
C1388 H1379 0.950 . S
C1388 C1387 1.398 . S
C1388 C1389 1.391 . S
C1389 H1377 0.950 . S
C1389 C1385 1.393 . S
C1389 C1388 1.391 . S
C1390 H1380 0.950 . S
C1390 C1391 1.386 . S
C1390 C1392 1.391 . S
C1391 C1390 1.386 . S
C1391 C1395 1.393 . S
C1392 H1381 0.950 . S
C1392 C1390 1.391 . S
C1392 C1393 1.400 . S
C1393 C1387 1.491 . S
C1393 C1392 1.400 . S
C1393 C1394 1.398 . S
C1394 H1382 0.950 . S
C1394 C1393 1.398 . S
C1394 C1395 1.391 . S
C1395 H1383 0.950 . S
C1395 C1391 1.393 . S
C1395 C1394 1.391 . S
H1396 C1404 0.950 . S
H1397 C1409 0.950 . S
H1398 C1406 0.950 . S
H1399 C1408 0.950 . S
H1400 C1410 0.950 . S
H1401 C1412 0.950 . S
H1402 C1414 0.950 . S
H1403 C1415 0.950 . S
C1404 H1396 0.950 . S
C1404 C1405 1.386 . S
C1404 C1406 1.391 . S
C1405 C1404 1.386 . S
C1405 C1409 1.393 . S
C1406 H1398 0.950 . S
C1406 C1404 1.391 . S
C1406 C1407 1.400 . S
C1407 C1406 1.400 . S
C1407 C1408 1.398 . S
C1407 C1413 1.491 . S
C1408 H1399 0.950 . S
C1408 C1407 1.398 . S
C1408 C1409 1.391 . S
C1409 H1397 0.950 . S
C1409 C1405 1.393 . S
C1409 C1408 1.391 . S
C1410 H1400 0.950 . S
C1410 C1411 1.386 . S
C1410 C1412 1.391 . S
C1411 C1410 1.386 . S
C1411 C1415 1.393 . S
C1412 H1401 0.950 . S
C1412 C1410 1.391 . S
C1412 C1413 1.400 . S
C1413 C1407 1.491 . S
C1413 C1412 1.400 . S
C1413 C1414 1.398 . S
C1414 H1402 0.950 . S
C1414 C1413 1.398 . S
C1414 C1415 1.391 . S
C1415 H1403 0.950 . S
C1415 C1411 1.393 . S
C1415 C1414 1.391 . S
H1416 C1424 0.950 . S
H1417 C1429 0.950 . S
H1418 C1426 0.950 . S
H1419 C1428 0.950 . S
H1420 C1430 0.950 . S
H1421 C1432 0.950 . S
H1422 C1434 0.950 . S
H1423 C1435 0.950 . S
C1424 H1416 0.950 . S
C1424 C1425 1.386 . S
C1424 C1426 1.391 . S
C1425 C1424 1.386 . S
C1425 C1429 1.393 . S
C1426 H1418 0.950 . S
C1426 C1424 1.391 . S
C1426 C1427 1.400 . S
C1427 C1426 1.400 . S
C1427 C1428 1.398 . S
C1427 C1433 1.491 . S
C1428 H1419 0.950 . S
C1428 C1427 1.398 . S
C1428 C1429 1.391 . S
C1429 H1417 0.950 . S
C1429 C1425 1.393 . S
C1429 C1428 1.391 . S
C1430 H1420 0.950 . S
C1430 C1431 1.386 . S
C1430 C1432 1.391 . S
C1431 C1430 1.386 . S
C1431 C1435 1.393 . S
C1432 H1421 0.950 . S
C1432 C1430 1.391 . S
C1432 C1433 1.400 . S
C1433 C1427 1.491 . S
C1433 C1432 1.400 . S
C1433 C1434 1.398 . S
C1434 H1422 0.950 . S
C1434 C1433 1.398 . S
C1434 C1435 1.391 . S
C1435 H1423 0.950 . S
C1435 C1431 1.393 . S
C1435 C1434 1.391 . S
H1436 C1444 0.950 . S
H1437 C1449 0.950 . S
H1438 C1446 0.950 . S
H1439 C1448 0.950 . S
H1440 C1450 0.950 . S
H1441 C1452 0.950 . S
H1442 C1454 0.950 . S
H1443 C1455 0.950 . S
C1444 H1436 0.950 . S
C1444 C1445 1.386 . S
C1444 C1446 1.391 . S
C1445 C1444 1.386 . S
C1445 C1449 1.393 . S
C1446 H1438 0.950 . S
C1446 C1444 1.391 . S
C1446 C1447 1.400 . S
C1447 C1446 1.400 . S
C1447 C1448 1.398 . S
C1447 C1453 1.491 . S
C1448 H1439 0.950 . S
C1448 C1447 1.398 . S
C1448 C1449 1.391 . S
C1449 H1437 0.950 . S
C1449 C1445 1.393 . S
C1449 C1448 1.391 . S
C1450 H1440 0.950 . S
C1450 C1451 1.386 . S
C1450 C1452 1.391 . S
C1451 C1450 1.386 . S
C1451 C1455 1.393 . S
C1452 H1441 0.950 . S
C1452 C1450 1.391 . S
C1452 C1453 1.400 . S
C1453 C1447 1.491 . S
C1453 C1452 1.400 . S
C1453 C1454 1.398 . S
C1454 H1442 0.950 . S
C1454 C1453 1.398 . S
C1454 C1455 1.391 . S
C1455 H1443 0.950 . S
C1455 C1451 1.393 . S
C1455 C1454 1.391 . S
H1456 C1464 0.950 . S
H1457 C1469 0.950 . S
H1458 C1466 0.950 . S
H1459 C1468 0.950 . S
H1460 C1470 0.950 . S
H1461 C1472 0.950 . S
H1462 C1474 0.950 . S
H1463 C1475 0.950 . S
C1464 H1456 0.950 . S
C1464 C1465 1.386 . S
C1464 C1466 1.391 . S
C1465 C1464 1.386 . S
C1465 C1469 1.393 . S
C1466 H1458 0.950 . S
C1466 C1464 1.391 . S
C1466 C1467 1.400 . S
C1467 C1466 1.400 . S
C1467 C1468 1.398 . S
C1467 C1473 1.491 . S
C1468 H1459 0.950 . S
C1468 C1467 1.398 . S
C1468 C1469 1.391 . S
C1469 H1457 0.950 . S
C1469 C1465 1.393 . S
C1469 C1468 1.391 . S
C1470 H1460 0.950 . S
C1470 C1471 1.386 . S
C1470 C1472 1.391 . S
C1471 C1470 1.386 . S
C1471 C1475 1.393 . S
C1472 H1461 0.950 . S
C1472 C1470 1.391 . S
C1472 C1473 1.400 . S
C1473 C1467 1.491 . S
C1473 C1472 1.400 . S
C1473 C1474 1.398 . S
C1474 H1462 0.950 . S
C1474 C1473 1.398 . S
C1474 C1475 1.391 . S
C1475 H1463 0.950 . S
C1475 C1471 1.393 . S
C1475 C1474 1.391 . S
H1476 C1484 0.950 . S
H1477 C1489 0.950 . S
H1478 C1486 0.950 . S
H1479 C1488 0.950 . S
H1480 C1490 0.950 . S
H1481 C1492 0.950 . S
H1482 C1494 0.950 . S
H1483 C1495 0.950 . S
C1484 H1476 0.950 . S
C1484 C1485 1.386 . S
C1484 C1486 1.391 . S
C1485 C1484 1.386 . S
C1485 C1489 1.393 . S
C1486 H1478 0.950 . S
C1486 C1484 1.391 . S
C1486 C1487 1.400 . S
C1487 C1486 1.400 . S
C1487 C1488 1.398 . S
C1487 C1493 1.491 . S
C1488 H1479 0.950 . S
C1488 C1487 1.398 . S
C1488 C1489 1.391 . S
C1489 H1477 0.950 . S
C1489 C1485 1.393 . S
C1489 C1488 1.391 . S
C1490 H1480 0.950 . S
C1490 C1491 1.386 . S
C1490 C1492 1.391 . S
C1491 C1490 1.386 . S
C1491 C1495 1.393 . S
C1492 H1481 0.950 . S
C1492 C1490 1.391 . S
C1492 C1493 1.400 . S
C1493 C1487 1.491 . S
C1493 C1492 1.400 . S
C1493 C1494 1.398 . S
C1494 H1482 0.950 . S
C1494 C1493 1.398 . S
C1494 C1495 1.391 . S
C1495 H1483 0.950 . S
C1495 C1491 1.393 . S
C1495 C1494 1.391 . S
H1496 C1504 0.950 . S
H1497 C1509 0.950 . S
H1498 C1506 0.950 . S
H1499 C1508 0.950 . S
H1500 C1510 0.950 . S
H1501 C1512 0.950 . S
H1502 C1514 0.950 . S
H1503 C1515 0.950 . S
C1504 H1496 0.950 . S
C1504 C1505 1.386 . S
C1504 C1506 1.391 . S
C1505 C1504 1.386 . S
C1505 C1509 1.393 . S
C1506 H1498 0.950 . S
C1506 C1504 1.391 . S
C1506 C1507 1.400 . S
C1507 C1506 1.400 . S
C1507 C1508 1.398 . S
C1507 C1513 1.491 . S
C1508 H1499 0.950 . S
C1508 C1507 1.398 . S
C1508 C1509 1.391 . S
C1509 H1497 0.950 . S
C1509 C1505 1.393 . S
C1509 C1508 1.391 . S
C1510 H1500 0.950 . S
C1510 C1511 1.386 . S
C1510 C1512 1.391 . S
C1511 C1510 1.386 . S
C1511 C1515 1.393 . S
C1512 H1501 0.950 . S
C1512 C1510 1.391 . S
C1512 C1513 1.400 . S
C1513 C1507 1.491 . S
C1513 C1512 1.400 . S
C1513 C1514 1.398 . S
C1514 H1502 0.950 . S
C1514 C1513 1.398 . S
C1514 C1515 1.391 . S
C1515 H1503 0.950 . S
C1515 C1511 1.393 . S
C1515 C1514 1.391 . S
H1516 C1524 0.950 . S
H1517 C1529 0.950 . S
H1518 C1526 0.950 . S
H1519 C1528 0.950 . S
H1520 C1530 0.950 . S
H1521 C1532 0.950 . S
H1522 C1534 0.950 . S
H1523 C1535 0.950 . S
C1524 H1516 0.950 . S
C1524 C1525 1.386 . S
C1524 C1526 1.391 . S
C1525 C1524 1.386 . S
C1525 C1529 1.393 . S
C1526 H1518 0.950 . S
C1526 C1524 1.391 . S
C1526 C1527 1.400 . S
C1527 C1526 1.400 . S
C1527 C1528 1.398 . S
C1527 C1533 1.491 . S
C1528 H1519 0.950 . S
C1528 C1527 1.398 . S
C1528 C1529 1.391 . S
C1529 H1517 0.950 . S
C1529 C1525 1.393 . S
C1529 C1528 1.391 . S
C1530 H1520 0.950 . S
C1530 C1531 1.386 . S
C1530 C1532 1.391 . S
C1531 C1530 1.386 . S
C1531 C1535 1.393 . S
C1532 H1521 0.950 . S
C1532 C1530 1.391 . S
C1532 C1533 1.400 . S
C1533 C1527 1.491 . S
C1533 C1532 1.400 . S
C1533 C1534 1.398 . S
C1534 H1522 0.950 . S
C1534 C1533 1.398 . S
C1534 C1535 1.391 . S
C1535 H1523 0.950 . S
C1535 C1531 1.393 . S
C1535 C1534 1.391 . S
H1536 C1544 0.950 . S
H1537 C1549 0.950 . S
H1538 C1546 0.950 . S
H1539 C1548 0.950 . S
H1540 C1550 0.950 . S
H1541 C1552 0.950 . S
H1542 C1554 0.950 . S
H1543 C1555 0.950 . S
C1544 H1536 0.950 . S
C1544 C1545 1.386 . S
C1544 C1546 1.391 . S
C1545 C1544 1.386 . S
C1545 C1549 1.393 . S
C1546 H1538 0.950 . S
C1546 C1544 1.391 . S
C1546 C1547 1.400 . S
C1547 C1546 1.400 . S
C1547 C1548 1.398 . S
C1547 C1553 1.491 . S
C1548 H1539 0.950 . S
C1548 C1547 1.398 . S
C1548 C1549 1.391 . S
C1549 H1537 0.950 . S
C1549 C1545 1.393 . S
C1549 C1548 1.391 . S
C1550 H1540 0.950 . S
C1550 C1551 1.386 . S
C1550 C1552 1.391 . S
C1551 C1550 1.386 . S
C1551 C1555 1.393 . S
C1552 H1541 0.950 . S
C1552 C1550 1.391 . S
C1552 C1553 1.400 . S
C1553 C1547 1.491 . S
C1553 C1552 1.400 . S
C1553 C1554 1.398 . S
C1554 H1542 0.950 . S
C1554 C1553 1.398 . S
C1554 C1555 1.391 . S
C1555 H1543 0.950 . S
C1555 C1551 1.393 . S
C1555 C1554 1.391 . S
H1556 C1564 0.950 . S
H1557 C1569 0.950 . S
H1558 C1566 0.950 . S
H1559 C1568 0.950 . S
H1560 C1570 0.950 . S
H1561 C1572 0.950 . S
H1562 C1574 0.950 . S
H1563 C1575 0.950 . S
C1564 H1556 0.950 . S
C1564 C1565 1.386 . S
C1564 C1566 1.391 . S
C1565 C1564 1.386 . S
C1565 C1569 1.393 . S
C1566 H1558 0.950 . S
C1566 C1564 1.391 . S
C1566 C1567 1.400 . S
C1567 C1566 1.400 . S
C1567 C1568 1.398 . S
C1567 C1573 1.491 . S
C1568 H1559 0.950 . S
C1568 C1567 1.398 . S
C1568 C1569 1.391 . S
C1569 H1557 0.950 . S
C1569 C1565 1.393 . S
C1569 C1568 1.391 . S
C1570 H1560 0.950 . S
C1570 C1571 1.386 . S
C1570 C1572 1.391 . S
C1571 C1570 1.386 . S
C1571 C1575 1.393 . S
C1572 H1561 0.950 . S
C1572 C1570 1.391 . S
C1572 C1573 1.400 . S
C1573 C1567 1.491 . S
C1573 C1572 1.400 . S
C1573 C1574 1.398 . S
C1574 H1562 0.950 . S
C1574 C1573 1.398 . S
C1574 C1575 1.391 . S
C1575 H1563 0.950 . S
C1575 C1571 1.393 . S
C1575 C1574 1.391 . S
H1576 C1584 0.950 . S
H1577 C1589 0.950 . S
H1578 C1586 0.950 . S
H1579 C1588 0.950 . S
H1580 C1590 0.950 . S
H1581 C1592 0.950 . S
H1582 C1594 0.950 . S
H1583 C1595 0.950 . S
C1584 H1576 0.950 . S
C1584 C1585 1.386 . S
C1584 C1586 1.391 . S
C1585 C1584 1.386 . S
C1585 C1589 1.393 . S
C1586 H1578 0.950 . S
C1586 C1584 1.391 . S
C1586 C1587 1.400 . S
C1587 C1586 1.400 . S
C1587 C1588 1.398 . S
C1587 C1593 1.491 . S
C1588 H1579 0.950 . S
C1588 C1587 1.398 . S
C1588 C1589 1.391 . S
C1589 H1577 0.950 . S
C1589 C1585 1.393 . S
C1589 C1588 1.391 . S
C1590 H1580 0.950 . S
C1590 C1591 1.386 . S
C1590 C1592 1.391 . S
C1591 C1590 1.386 . S
C1591 C1595 1.393 . S
C1592 H1581 0.950 . S
C1592 C1590 1.391 . S
C1592 C1593 1.400 . S
C1593 C1587 1.491 . S
C1593 C1592 1.400 . S
C1593 C1594 1.398 . S
C1594 H1582 0.950 . S
C1594 C1593 1.398 . S
C1594 C1595 1.391 . S
C1595 H1583 0.950 . S
C1595 C1591 1.393 . S
C1595 C1594 1.391 . S
H1596 C1604 0.950 . S
H1597 C1609 0.950 . S
H1598 C1606 0.950 . S
H1599 C1608 0.950 . S
H1600 C1610 0.950 . S
H1601 C1612 0.950 . S
H1602 C1614 0.950 . S
H1603 C1615 0.950 . S
C1604 H1596 0.950 . S
C1604 C1605 1.386 . S
C1604 C1606 1.391 . S
C1605 C1604 1.386 . S
C1605 C1609 1.393 . S
C1606 H1598 0.950 . S
C1606 C1604 1.391 . S
C1606 C1607 1.400 . S
C1607 C1606 1.400 . S
C1607 C1608 1.398 . S
C1607 C1613 1.491 . S
C1608 H1599 0.950 . S
C1608 C1607 1.398 . S
C1608 C1609 1.391 . S
C1609 H1597 0.950 . S
C1609 C1605 1.393 . S
C1609 C1608 1.391 . S
C1610 H1600 0.950 . S
C1610 C1611 1.386 . S
C1610 C1612 1.391 . S
C1611 C1610 1.386 . S
C1611 C1615 1.393 . S
C1612 H1601 0.950 . S
C1612 C1610 1.391 . S
C1612 C1613 1.400 . S
C1613 C1607 1.491 . S
C1613 C1612 1.400 . S
C1613 C1614 1.398 . S
C1614 H1602 0.950 . S
C1614 C1613 1.398 . S
C1614 C1615 1.391 . S
C1615 H1603 0.950 . S
C1615 C1611 1.393 . S
C1615 C1614 1.391 . S
H1616 C1624 0.950 . S
H1617 C1629 0.950 . S
H1618 C1626 0.950 . S
H1619 C1628 0.950 . S
H1620 C1630 0.950 . S
H1621 C1632 0.950 . S
H1622 C1634 0.950 . S
H1623 C1635 0.950 . S
C1624 H1616 0.950 . S
C1624 C1625 1.386 . S
C1624 C1626 1.391 . S
C1625 C1624 1.386 . S
C1625 C1629 1.393 . S
C1626 H1618 0.950 . S
C1626 C1624 1.391 . S
C1626 C1627 1.400 . S
C1627 C1626 1.400 . S
C1627 C1628 1.398 . S
C1627 C1633 1.491 . S
C1628 H1619 0.950 . S
C1628 C1627 1.398 . S
C1628 C1629 1.391 . S
C1629 H1617 0.950 . S
C1629 C1625 1.393 . S
C1629 C1628 1.391 . S
C1630 H1620 0.950 . S
C1630 C1631 1.386 . S
C1630 C1632 1.391 . S
C1631 C1630 1.386 . S
C1631 C1635 1.393 . S
C1632 H1621 0.950 . S
C1632 C1630 1.391 . S
C1632 C1633 1.400 . S
C1633 C1627 1.491 . S
C1633 C1632 1.400 . S
C1633 C1634 1.398 . S
C1634 H1622 0.950 . S
C1634 C1633 1.398 . S
C1634 C1635 1.391 . S
C1635 H1623 0.950 . S
C1635 C1631 1.393 . S
C1635 C1634 1.391 . S
H1636 C1644 0.950 . S
H1637 C1649 0.950 . S
H1638 C1646 0.950 . S
H1639 C1648 0.950 . S
H1640 C1650 0.950 . S
H1641 C1652 0.950 . S
H1642 C1654 0.950 . S
H1643 C1655 0.950 . S
C1644 H1636 0.950 . S
C1644 C1645 1.386 . S
C1644 C1646 1.391 . S
C1645 C1644 1.386 . S
C1645 C1649 1.393 . S
C1646 H1638 0.950 . S
C1646 C1644 1.391 . S
C1646 C1647 1.400 . S
C1647 C1646 1.400 . S
C1647 C1648 1.398 . S
C1647 C1653 1.491 . S
C1648 H1639 0.950 . S
C1648 C1647 1.398 . S
C1648 C1649 1.391 . S
C1649 H1637 0.950 . S
C1649 C1645 1.393 . S
C1649 C1648 1.391 . S
C1650 H1640 0.950 . S
C1650 C1651 1.386 . S
C1650 C1652 1.391 . S
C1651 C1650 1.386 . S
C1651 C1655 1.393 . S
C1652 H1641 0.950 . S
C1652 C1650 1.391 . S
C1652 C1653 1.400 . S
C1653 C1647 1.491 . S
C1653 C1652 1.400 . S
C1653 C1654 1.398 . S
C1654 H1642 0.950 . S
C1654 C1653 1.398 . S
C1654 C1655 1.391 . S
C1655 H1643 0.950 . S
C1655 C1651 1.393 . S
C1655 C1654 1.391 . S
H1656 C1664 0.950 . S
H1657 C1669 0.950 . S
H1658 C1666 0.950 . S
H1659 C1668 0.950 . S
H1660 C1670 0.950 . S
H1661 C1672 0.950 . S
H1662 C1674 0.950 . S
H1663 C1675 0.950 . S
C1664 H1656 0.950 . S
C1664 C1665 1.386 . S
C1664 C1666 1.391 . S
C1665 C1664 1.386 . S
C1665 C1669 1.393 . S
C1666 H1658 0.950 . S
C1666 C1664 1.391 . S
C1666 C1667 1.400 . S
C1667 C1666 1.400 . S
C1667 C1668 1.398 . S
C1667 C1673 1.491 . S
C1668 H1659 0.950 . S
C1668 C1667 1.398 . S
C1668 C1669 1.391 . S
C1669 H1657 0.950 . S
C1669 C1665 1.393 . S
C1669 C1668 1.391 . S
C1670 H1660 0.950 . S
C1670 C1671 1.386 . S
C1670 C1672 1.391 . S
C1671 C1670 1.386 . S
C1671 C1675 1.393 . S
C1672 H1661 0.950 . S
C1672 C1670 1.391 . S
C1672 C1673 1.400 . S
C1673 C1667 1.491 . S
C1673 C1672 1.400 . S
C1673 C1674 1.398 . S
C1674 H1662 0.950 . S
C1674 C1673 1.398 . S
C1674 C1675 1.391 . S
C1675 H1663 0.950 . S
C1675 C1671 1.393 . S
C1675 C1674 1.391 . S
H1676 C1684 0.950 . S
H1677 C1689 0.950 . S
H1678 C1686 0.950 . S
H1679 C1688 0.950 . S
H1680 C1690 0.950 . S
H1681 C1692 0.950 . S
H1682 C1694 0.950 . S
H1683 C1695 0.950 . S
C1684 H1676 0.950 . S
C1684 C1685 1.386 . S
C1684 C1686 1.391 . S
C1685 C1684 1.386 . S
C1685 C1689 1.393 . S
C1686 H1678 0.950 . S
C1686 C1684 1.391 . S
C1686 C1687 1.400 . S
C1687 C1686 1.400 . S
C1687 C1688 1.398 . S
C1687 C1693 1.491 . S
C1688 H1679 0.950 . S
C1688 C1687 1.398 . S
C1688 C1689 1.391 . S
C1689 H1677 0.950 . S
C1689 C1685 1.393 . S
C1689 C1688 1.391 . S
C1690 H1680 0.950 . S
C1690 C1691 1.386 . S
C1690 C1692 1.391 . S
C1691 C1690 1.386 . S
C1691 C1695 1.393 . S
C1692 H1681 0.950 . S
C1692 C1690 1.391 . S
C1692 C1693 1.400 . S
C1693 C1687 1.491 . S
C1693 C1692 1.400 . S
C1693 C1694 1.398 . S
C1694 H1682 0.950 . S
C1694 C1693 1.398 . S
C1694 C1695 1.391 . S
C1695 H1683 0.950 . S
C1695 C1691 1.393 . S
C1695 C1694 1.391 . S
H1696 C1704 0.950 . S
H1697 C1709 0.950 . S
H1698 C1706 0.950 . S
H1699 C1708 0.950 . S
H1700 C1710 0.950 . S
H1701 C1712 0.950 . S
H1702 C1714 0.950 . S
H1703 C1715 0.950 . S
C1704 H1696 0.950 . S
C1704 C1705 1.386 . S
C1704 C1706 1.391 . S
C1705 C1704 1.386 . S
C1705 C1709 1.393 . S
C1706 H1698 0.950 . S
C1706 C1704 1.391 . S
C1706 C1707 1.400 . S
C1707 C1706 1.400 . S
C1707 C1708 1.398 . S
C1707 C1713 1.491 . S
C1708 H1699 0.950 . S
C1708 C1707 1.398 . S
C1708 C1709 1.391 . S
C1709 H1697 0.950 . S
C1709 C1705 1.393 . S
C1709 C1708 1.391 . S
C1710 H1700 0.950 . S
C1710 C1711 1.386 . S
C1710 C1712 1.391 . S
C1711 C1710 1.386 . S
C1711 C1715 1.393 . S
C1712 H1701 0.950 . S
C1712 C1710 1.391 . S
C1712 C1713 1.400 . S
C1713 C1707 1.491 . S
C1713 C1712 1.400 . S
C1713 C1714 1.398 . S
C1714 H1702 0.950 . S
C1714 C1713 1.398 . S
C1714 C1715 1.391 . S
C1715 H1703 0.950 . S
C1715 C1711 1.393 . S
C1715 C1714 1.391 . S
H1716 C1724 0.950 . S
H1717 C1729 0.950 . S
H1718 C1726 0.950 . S
H1719 C1728 0.950 . S
H1720 C1730 0.950 . S
H1721 C1732 0.950 . S
H1722 C1734 0.950 . S
H1723 C1735 0.950 . S
C1724 H1716 0.950 . S
C1724 C1725 1.386 . S
C1724 C1726 1.391 . S
C1725 C1724 1.386 . S
C1725 C1729 1.393 . S
C1726 H1718 0.950 . S
C1726 C1724 1.391 . S
C1726 C1727 1.400 . S
C1727 C1726 1.400 . S
C1727 C1728 1.398 . S
C1727 C1733 1.491 . S
C1728 H1719 0.950 . S
C1728 C1727 1.398 . S
C1728 C1729 1.391 . S
C1729 H1717 0.950 . S
C1729 C1725 1.393 . S
C1729 C1728 1.391 . S
C1730 H1720 0.950 . S
C1730 C1731 1.386 . S
C1730 C1732 1.391 . S
C1731 C1730 1.386 . S
C1731 C1735 1.393 . S
C1732 H1721 0.950 . S
C1732 C1730 1.391 . S
C1732 C1733 1.400 . S
C1733 C1727 1.491 . S
C1733 C1732 1.400 . S
C1733 C1734 1.398 . S
C1734 H1722 0.950 . S
C1734 C1733 1.398 . S
C1734 C1735 1.391 . S
C1735 H1723 0.950 . S
C1735 C1731 1.393 . S
C1735 C1734 1.391 . S
H1736 C1744 0.950 . S
H1737 C1749 0.950 . S
H1738 C1746 0.950 . S
H1739 C1748 0.950 . S
H1740 C1750 0.950 . S
H1741 C1752 0.950 . S
H1742 C1754 0.950 . S
H1743 C1755 0.950 . S
C1744 H1736 0.950 . S
C1744 C1745 1.386 . S
C1744 C1746 1.391 . S
C1745 C1744 1.386 . S
C1745 C1749 1.393 . S
C1746 H1738 0.950 . S
C1746 C1744 1.391 . S
C1746 C1747 1.400 . S
C1747 C1746 1.400 . S
C1747 C1748 1.398 . S
C1747 C1753 1.491 . S
C1748 H1739 0.950 . S
C1748 C1747 1.398 . S
C1748 C1749 1.391 . S
C1749 H1737 0.950 . S
C1749 C1745 1.393 . S
C1749 C1748 1.391 . S
C1750 H1740 0.950 . S
C1750 C1751 1.386 . S
C1750 C1752 1.391 . S
C1751 C1750 1.386 . S
C1751 C1755 1.393 . S
C1752 H1741 0.950 . S
C1752 C1750 1.391 . S
C1752 C1753 1.400 . S
C1753 C1747 1.491 . S
C1753 C1752 1.400 . S
C1753 C1754 1.398 . S
C1754 H1742 0.950 . S
C1754 C1753 1.398 . S
C1754 C1755 1.391 . S
C1755 H1743 0.950 . S
C1755 C1751 1.393 . S
C1755 C1754 1.391 . S
H1756 C1764 0.950 . S
H1757 C1769 0.950 . S
H1758 C1766 0.950 . S
H1759 C1768 0.950 . S
H1760 C1770 0.950 . S
H1761 C1772 0.950 . S
H1762 C1774 0.950 . S
H1763 C1775 0.950 . S
C1764 H1756 0.950 . S
C1764 C1765 1.386 . S
C1764 C1766 1.391 . S
C1765 C1764 1.386 . S
C1765 C1769 1.393 . S
C1766 H1758 0.950 . S
C1766 C1764 1.391 . S
C1766 C1767 1.400 . S
C1767 C1766 1.400 . S
C1767 C1768 1.398 . S
C1767 C1773 1.491 . S
C1768 H1759 0.950 . S
C1768 C1767 1.398 . S
C1768 C1769 1.391 . S
C1769 H1757 0.950 . S
C1769 C1765 1.393 . S
C1769 C1768 1.391 . S
C1770 H1760 0.950 . S
C1770 C1771 1.386 . S
C1770 C1772 1.391 . S
C1771 C1770 1.386 . S
C1771 C1775 1.393 . S
C1772 H1761 0.950 . S
C1772 C1770 1.391 . S
C1772 C1773 1.400 . S
C1773 C1767 1.491 . S
C1773 C1772 1.400 . S
C1773 C1774 1.398 . S
C1774 H1762 0.950 . S
C1774 C1773 1.398 . S
C1774 C1775 1.391 . S
C1775 H1763 0.950 . S
C1775 C1771 1.393 . S
C1775 C1774 1.391 . S
H1776 C1784 0.950 . S
H1777 C1789 0.950 . S
H1778 C1786 0.950 . S
H1779 C1788 0.950 . S
H1780 C1790 0.950 . S
H1781 C1792 0.950 . S
H1782 C1794 0.950 . S
H1783 C1795 0.950 . S
C1784 H1776 0.950 . S
C1784 C1785 1.386 . S
C1784 C1786 1.391 . S
C1785 C1784 1.386 . S
C1785 C1789 1.393 . S
C1786 H1778 0.950 . S
C1786 C1784 1.391 . S
C1786 C1787 1.400 . S
C1787 C1786 1.400 . S
C1787 C1788 1.398 . S
C1787 C1793 1.491 . S
C1788 H1779 0.950 . S
C1788 C1787 1.398 . S
C1788 C1789 1.391 . S
C1789 H1777 0.950 . S
C1789 C1785 1.393 . S
C1789 C1788 1.391 . S
C1790 H1780 0.950 . S
C1790 C1791 1.386 . S
C1790 C1792 1.391 . S
C1791 C1790 1.386 . S
C1791 C1795 1.393 . S
C1792 H1781 0.950 . S
C1792 C1790 1.391 . S
C1792 C1793 1.400 . S
C1793 C1787 1.491 . S
C1793 C1792 1.400 . S
C1793 C1794 1.398 . S
C1794 H1782 0.950 . S
C1794 C1793 1.398 . S
C1794 C1795 1.391 . S
C1795 H1783 0.950 . S
C1795 C1791 1.393 . S
C1795 C1794 1.391 . S
H1796 C1804 0.950 . S
H1797 C1809 0.950 . S
H1798 C1806 0.950 . S
H1799 C1808 0.950 . S
H1800 C1810 0.950 . S
H1801 C1812 0.950 . S
H1802 C1814 0.950 . S
H1803 C1815 0.950 . S
C1804 H1796 0.950 . S
C1804 C1805 1.386 . S
C1804 C1806 1.391 . S
C1805 C1804 1.386 . S
C1805 C1809 1.393 . S
C1806 H1798 0.950 . S
C1806 C1804 1.391 . S
C1806 C1807 1.400 . S
C1807 C1806 1.400 . S
C1807 C1808 1.398 . S
C1807 C1813 1.491 . S
C1808 H1799 0.950 . S
C1808 C1807 1.398 . S
C1808 C1809 1.391 . S
C1809 H1797 0.950 . S
C1809 C1805 1.393 . S
C1809 C1808 1.391 . S
C1810 H1800 0.950 . S
C1810 C1811 1.386 . S
C1810 C1812 1.391 . S
C1811 C1810 1.386 . S
C1811 C1815 1.393 . S
C1812 H1801 0.950 . S
C1812 C1810 1.391 . S
C1812 C1813 1.400 . S
C1813 C1807 1.491 . S
C1813 C1812 1.400 . S
C1813 C1814 1.398 . S
C1814 H1802 0.950 . S
C1814 C1813 1.398 . S
C1814 C1815 1.391 . S
C1815 H1803 0.950 . S
C1815 C1811 1.393 . S
C1815 C1814 1.391 . S
H1816 C1824 0.950 . S
H1817 C1829 0.950 . S
H1818 C1826 0.950 . S
H1819 C1828 0.950 . S
H1820 C1830 0.950 . S
H1821 C1832 0.950 . S
H1822 C1834 0.950 . S
H1823 C1835 0.950 . S
C1824 H1816 0.950 . S
C1824 C1825 1.386 . S
C1824 C1826 1.391 . S
C1825 C1824 1.386 . S
C1825 C1829 1.393 . S
C1826 H1818 0.950 . S
C1826 C1824 1.391 . S
C1826 C1827 1.400 . S
C1827 C1826 1.400 . S
C1827 C1828 1.398 . S
C1827 C1833 1.491 . S
C1828 H1819 0.950 . S
C1828 C1827 1.398 . S
C1828 C1829 1.391 . S
C1829 H1817 0.950 . S
C1829 C1825 1.393 . S
C1829 C1828 1.391 . S
C1830 H1820 0.950 . S
C1830 C1831 1.386 . S
C1830 C1832 1.391 . S
C1831 C1830 1.386 . S
C1831 C1835 1.393 . S
C1832 H1821 0.950 . S
C1832 C1830 1.391 . S
C1832 C1833 1.400 . S
C1833 C1827 1.491 . S
C1833 C1832 1.400 . S
C1833 C1834 1.398 . S
C1834 H1822 0.950 . S
C1834 C1833 1.398 . S
C1834 C1835 1.391 . S
C1835 H1823 0.950 . S
C1835 C1831 1.393 . S
C1835 C1834 1.391 . S
H1836 C1844 0.950 . S
H1837 C1849 0.950 . S
H1838 C1846 0.950 . S
H1839 C1848 0.950 . S
H1840 C1850 0.950 . S
H1841 C1852 0.950 . S
H1842 C1854 0.950 . S
H1843 C1855 0.950 . S
C1844 H1836 0.950 . S
C1844 C1845 1.386 . S
C1844 C1846 1.391 . S
C1845 C1844 1.386 . S
C1845 C1849 1.393 . S
C1846 H1838 0.950 . S
C1846 C1844 1.391 . S
C1846 C1847 1.400 . S
C1847 C1846 1.400 . S
C1847 C1848 1.398 . S
C1847 C1853 1.491 . S
C1848 H1839 0.950 . S
C1848 C1847 1.398 . S
C1848 C1849 1.391 . S
C1849 H1837 0.950 . S
C1849 C1845 1.393 . S
C1849 C1848 1.391 . S
C1850 H1840 0.950 . S
C1850 C1851 1.386 . S
C1850 C1852 1.391 . S
C1851 C1850 1.386 . S
C1851 C1855 1.393 . S
C1852 H1841 0.950 . S
C1852 C1850 1.391 . S
C1852 C1853 1.400 . S
C1853 C1847 1.491 . S
C1853 C1852 1.400 . S
C1853 C1854 1.398 . S
C1854 H1842 0.950 . S
C1854 C1853 1.398 . S
C1854 C1855 1.391 . S
C1855 H1843 0.950 . S
C1855 C1851 1.393 . S
C1855 C1854 1.391 . S
H1856 C1864 0.950 . S
H1857 C1869 0.950 . S
H1858 C1866 0.950 . S
H1859 C1868 0.950 . S
H1860 C1870 0.950 . S
H1861 C1872 0.950 . S
H1862 C1874 0.950 . S
H1863 C1875 0.950 . S
C1864 H1856 0.950 . S
C1864 C1865 1.386 . S
C1864 C1866 1.391 . S
C1865 C1864 1.386 . S
C1865 C1869 1.393 . S
C1866 H1858 0.950 . S
C1866 C1864 1.391 . S
C1866 C1867 1.400 . S
C1867 C1866 1.400 . S
C1867 C1868 1.398 . S
C1867 C1873 1.491 . S
C1868 H1859 0.950 . S
C1868 C1867 1.398 . S
C1868 C1869 1.391 . S
C1869 H1857 0.950 . S
C1869 C1865 1.393 . S
C1869 C1868 1.391 . S
C1870 H1860 0.950 . S
C1870 C1871 1.386 . S
C1870 C1872 1.391 . S
C1871 C1870 1.386 . S
C1871 C1875 1.393 . S
C1872 H1861 0.950 . S
C1872 C1870 1.391 . S
C1872 C1873 1.400 . S
C1873 C1867 1.491 . S
C1873 C1872 1.400 . S
C1873 C1874 1.398 . S
C1874 H1862 0.950 . S
C1874 C1873 1.398 . S
C1874 C1875 1.391 . S
C1875 H1863 0.950 . S
C1875 C1871 1.393 . S
C1875 C1874 1.391 . S
H1876 C1884 0.950 . S
H1877 C1889 0.950 . S
H1878 C1886 0.950 . S
H1879 C1888 0.950 . S
H1880 C1890 0.950 . S
H1881 C1892 0.950 . S
H1882 C1894 0.950 . S
H1883 C1895 0.950 . S
C1884 H1876 0.950 . S
C1884 C1885 1.386 . S
C1884 C1886 1.391 . S
C1885 C1884 1.386 . S
C1885 C1889 1.393 . S
C1886 H1878 0.950 . S
C1886 C1884 1.391 . S
C1886 C1887 1.400 . S
C1887 C1886 1.400 . S
C1887 C1888 1.398 . S
C1887 C1893 1.491 . S
C1888 H1879 0.950 . S
C1888 C1887 1.398 . S
C1888 C1889 1.391 . S
C1889 H1877 0.950 . S
C1889 C1885 1.393 . S
C1889 C1888 1.391 . S
C1890 H1880 0.950 . S
C1890 C1891 1.386 . S
C1890 C1892 1.391 . S
C1891 C1890 1.386 . S
C1891 C1895 1.393 . S
C1892 H1881 0.950 . S
C1892 C1890 1.391 . S
C1892 C1893 1.400 . S
C1893 C1887 1.491 . S
C1893 C1892 1.400 . S
C1893 C1894 1.398 . S
C1894 H1882 0.950 . S
C1894 C1893 1.398 . S
C1894 C1895 1.391 . S
C1895 H1883 0.950 . S
C1895 C1891 1.393 . S
C1895 C1894 1.391 . S
H1896 C1904 0.950 . S
H1897 C1909 0.950 . S
H1898 C1906 0.950 . S
H1899 C1908 0.950 . S
H1900 C1910 0.950 . S
H1901 C1912 0.950 . S
H1902 C1914 0.950 . S
H1903 C1915 0.950 . S
C1904 H1896 0.950 . S
C1904 C1905 1.386 . S
C1904 C1906 1.391 . S
C1905 C1904 1.386 . S
C1905 C1909 1.393 . S
C1906 H1898 0.950 . S
C1906 C1904 1.391 . S
C1906 C1907 1.400 . S
C1907 C1906 1.400 . S
C1907 C1908 1.398 . S
C1907 C1913 1.491 . S
C1908 H1899 0.950 . S
C1908 C1907 1.398 . S
C1908 C1909 1.391 . S
C1909 H1897 0.950 . S
C1909 C1905 1.393 . S
C1909 C1908 1.391 . S
C1910 H1900 0.950 . S
C1910 C1911 1.386 . S
C1910 C1912 1.391 . S
C1911 C1910 1.386 . S
C1911 C1915 1.393 . S
C1912 H1901 0.950 . S
C1912 C1910 1.391 . S
C1912 C1913 1.400 . S
C1913 C1907 1.491 . S
C1913 C1912 1.400 . S
C1913 C1914 1.398 . S
C1914 H1902 0.950 . S
C1914 C1913 1.398 . S
C1914 C1915 1.391 . S
C1915 H1903 0.950 . S
C1915 C1911 1.393 . S
C1915 C1914 1.391 . S
H1916 C1924 0.950 . S
H1917 C1929 0.950 . S
H1918 C1926 0.950 . S
H1919 C1928 0.950 . S
H1920 C1930 0.950 . S
H1921 C1932 0.950 . S
H1922 C1934 0.950 . S
H1923 C1935 0.950 . S
C1924 H1916 0.950 . S
C1924 C1925 1.386 . S
C1924 C1926 1.391 . S
C1925 C1924 1.386 . S
C1925 C1929 1.393 . S
C1926 H1918 0.950 . S
C1926 C1924 1.391 . S
C1926 C1927 1.400 . S
C1927 C1926 1.400 . S
C1927 C1928 1.398 . S
C1927 C1933 1.491 . S
C1928 H1919 0.950 . S
C1928 C1927 1.398 . S
C1928 C1929 1.391 . S
C1929 H1917 0.950 . S
C1929 C1925 1.393 . S
C1929 C1928 1.391 . S
C1930 H1920 0.950 . S
C1930 C1931 1.386 . S
C1930 C1932 1.391 . S
C1931 C1930 1.386 . S
C1931 C1935 1.393 . S
C1932 H1921 0.950 . S
C1932 C1930 1.391 . S
C1932 C1933 1.400 . S
C1933 C1927 1.491 . S
C1933 C1932 1.400 . S
C1933 C1934 1.398 . S
C1934 H1922 0.950 . S
C1934 C1933 1.398 . S
C1934 C1935 1.391 . S
C1935 H1923 0.950 . S
C1935 C1931 1.393 . S
C1935 C1934 1.391 . S
H1936 C1944 0.950 . S
H1937 C1949 0.950 . S
H1938 C1946 0.950 . S
H1939 C1948 0.950 . S
H1940 C1950 0.950 . S
H1941 C1952 0.950 . S
H1942 C1954 0.950 . S
H1943 C1955 0.950 . S
C1944 H1936 0.950 . S
C1944 C1945 1.386 . S
C1944 C1946 1.391 . S
C1945 C1944 1.386 . S
C1945 C1949 1.393 . S
C1946 H1938 0.950 . S
C1946 C1944 1.391 . S
C1946 C1947 1.400 . S
C1947 C1946 1.400 . S
C1947 C1948 1.398 . S
C1947 C1953 1.491 . S
C1948 H1939 0.950 . S
C1948 C1947 1.398 . S
C1948 C1949 1.391 . S
C1949 H1937 0.950 . S
C1949 C1945 1.393 . S
C1949 C1948 1.391 . S
C1950 H1940 0.950 . S
C1950 C1951 1.386 . S
C1950 C1952 1.391 . S
C1951 C1950 1.386 . S
C1951 C1955 1.393 . S
C1952 H1941 0.950 . S
C1952 C1950 1.391 . S
C1952 C1953 1.400 . S
C1953 C1947 1.491 . S
C1953 C1952 1.400 . S
C1953 C1954 1.398 . S
C1954 H1942 0.950 . S
C1954 C1953 1.398 . S
C1954 C1955 1.391 . S
C1955 H1943 0.950 . S
C1955 C1951 1.393 . S
C1955 C1954 1.391 . S
H1956 C1964 0.950 . S
H1957 C1969 0.950 . S
H1958 C1966 0.950 . S
H1959 C1968 0.950 . S
H1960 C1970 0.950 . S
H1961 C1972 0.950 . S
H1962 C1974 0.950 . S
H1963 C1975 0.950 . S
C1964 H1956 0.950 . S
C1964 C1965 1.386 . S
C1964 C1966 1.391 . S
C1965 C1964 1.386 . S
C1965 C1969 1.393 . S
C1966 H1958 0.950 . S
C1966 C1964 1.391 . S
C1966 C1967 1.400 . S
C1967 C1966 1.400 . S
C1967 C1968 1.398 . S
C1967 C1973 1.491 . S
C1968 H1959 0.950 . S
C1968 C1967 1.398 . S
C1968 C1969 1.391 . S
C1969 H1957 0.950 . S
C1969 C1965 1.393 . S
C1969 C1968 1.391 . S
C1970 H1960 0.950 . S
C1970 C1971 1.386 . S
C1970 C1972 1.391 . S
C1971 C1970 1.386 . S
C1971 C1975 1.393 . S
C1972 H1961 0.950 . S
C1972 C1970 1.391 . S
C1972 C1973 1.400 . S
C1973 C1967 1.491 . S
C1973 C1972 1.400 . S
C1973 C1974 1.398 . S
C1974 H1962 0.950 . S
C1974 C1973 1.398 . S
C1974 C1975 1.391 . S
C1975 H1963 0.950 . S
C1975 C1971 1.393 . S
C1975 C1974 1.391 . S
H1976 C1984 0.950 . S
H1977 C1989 0.955 1_554 S
H1978 C1986 0.950 . S
H1979 C1988 0.950 . S
H1980 C1990 0.950 . S
H1981 C1992 0.950 . S
H1982 C1994 0.950 . S
H1983 C1995 0.950 . S
C1984 H1976 0.950 . S
C1984 C1985 1.386 . S
C1984 C1986 1.391 . S
C1985 C1984 1.386 . S
C1985 C1989 1.393 . S
C1986 H1978 0.950 . S
C1986 C1984 1.391 . S
C1986 C1987 1.400 . S
C1987 C1986 1.400 . S
C1987 C1988 1.398 . S
C1987 C1993 1.491 . S
C1988 H1979 0.950 . S
C1988 C1987 1.398 . S
C1988 C1989 1.391 . S
C1989 H1977 0.955 1_556 S
C1989 C1985 1.393 . S
C1989 C1988 1.391 . S
C1990 H1980 0.950 . S
C1990 C1991 1.386 . S
C1990 C1992 1.391 . S
C1991 C1990 1.386 . S
C1991 C1995 1.393 . S
C1992 H1981 0.950 . S
C1992 C1990 1.391 . S
C1992 C1993 1.400 . S
C1993 C1987 1.491 . S
C1993 C1992 1.400 . S
C1993 C1994 1.398 . S
C1994 H1982 0.950 . S
C1994 C1993 1.398 . S
C1994 C1995 1.391 . S
C1995 H1983 0.950 . S
C1995 C1991 1.393 . S
C1995 C1994 1.391 . S
H1996 C2004 0.950 . S
H1997 C2009 0.950 . S
H1998 C2006 0.950 . S
H1999 C2008 0.950 . S
H2000 C2010 0.950 . S
H2001 C2012 0.950 . S
H2002 C2014 0.950 . S
H2003 C2015 0.950 . S
C2004 H1996 0.950 . S
C2004 C2005 1.386 . S
C2004 C2006 1.391 . S
C2005 C2004 1.386 . S
C2005 C2009 1.393 . S
C2006 H1998 0.950 . S
C2006 C2004 1.391 . S
C2006 C2007 1.400 . S
C2007 C2006 1.400 . S
C2007 C2008 1.398 . S
C2007 C2013 1.491 . S
C2008 H1999 0.950 . S
C2008 C2007 1.398 . S
C2008 C2009 1.391 . S
C2009 H1997 0.950 . S
C2009 C2005 1.393 . S
C2009 C2008 1.391 . S
C2010 H2000 0.950 . S
C2010 C2011 1.386 . S
C2010 C2012 1.391 . S
C2011 C2010 1.386 . S
C2011 C2015 1.393 . S
C2012 H2001 0.950 . S
C2012 C2010 1.391 . S
C2012 C2013 1.400 . S
C2013 C2007 1.491 . S
C2013 C2012 1.400 . S
C2013 C2014 1.398 . S
C2014 H2002 0.950 . S
C2014 C2013 1.398 . S
C2014 C2015 1.391 . S
C2015 H2003 0.950 . S
C2015 C2011 1.393 . S
C2015 C2014 1.391 . S
H2016 C2024 0.950 . S
H2017 C2029 0.950 . S
H2018 C2026 0.950 . S
H2019 C2028 0.950 . S
H2020 C2030 0.950 . S
H2021 C2032 0.950 . S
H2022 C2034 0.950 . S
H2023 C2035 0.950 . S
C2024 H2016 0.950 . S
C2024 C2025 1.386 . S
C2024 C2026 1.391 . S
C2025 C2024 1.386 . S
C2025 C2029 1.393 . S
C2026 H2018 0.950 . S
C2026 C2024 1.391 . S
C2026 C2027 1.400 . S
C2027 C2026 1.400 . S
C2027 C2028 1.398 . S
C2027 C2033 1.491 . S
C2028 H2019 0.950 . S
C2028 C2027 1.398 . S
C2028 C2029 1.391 . S
C2029 H2017 0.950 . S
C2029 C2025 1.393 . S
C2029 C2028 1.391 . S
C2030 H2020 0.950 . S
C2030 C2031 1.386 . S
C2030 C2032 1.391 . S
C2031 C2030 1.386 . S
C2031 C2035 1.393 . S
C2032 H2021 0.950 . S
C2032 C2030 1.391 . S
C2032 C2033 1.400 . S
C2033 C2027 1.491 . S
C2033 C2032 1.400 . S
C2033 C2034 1.398 . S
C2034 H2022 0.950 . S
C2034 C2033 1.398 . S
C2034 C2035 1.391 . S
C2035 H2023 0.950 . S
C2035 C2031 1.393 . S
C2035 C2034 1.391 . S
H2036 C2044 0.950 . S
H2037 C2049 0.950 . S
H2038 C2046 0.950 . S
H2039 C2048 0.950 . S
H2040 C2050 0.950 . S
H2041 C2052 0.950 . S
H2042 C2054 0.950 . S
H2043 C2055 0.950 . S
C2044 H2036 0.950 . S
C2044 C2045 1.386 . S
C2044 C2046 1.391 . S
C2045 C2044 1.386 . S
C2045 C2049 1.393 . S
C2046 H2038 0.950 . S
C2046 C2044 1.391 . S
C2046 C2047 1.400 . S
C2047 C2046 1.400 . S
C2047 C2048 1.398 . S
C2047 C2053 1.491 . S
C2048 H2039 0.950 . S
C2048 C2047 1.398 . S
C2048 C2049 1.391 . S
C2049 H2037 0.950 . S
C2049 C2045 1.393 . S
C2049 C2048 1.391 . S
C2050 H2040 0.950 . S
C2050 C2051 1.386 . S
C2050 C2052 1.391 . S
C2051 C2050 1.386 . S
C2051 C2055 1.393 . S
C2052 H2041 0.950 . S
C2052 C2050 1.391 . S
C2052 C2053 1.400 . S
C2053 C2047 1.491 . S
C2053 C2052 1.400 . S
C2053 C2054 1.398 . S
C2054 H2042 0.950 . S
C2054 C2053 1.398 . S
C2054 C2055 1.391 . S
C2055 H2043 0.950 . S
C2055 C2051 1.393 . S
C2055 C2054 1.391 . S
H2056 C2064 0.950 . S
H2057 C2069 0.950 . S
H2058 C2066 0.950 . S
H2059 C2068 0.950 . S
H2060 C2070 0.950 . S
H2061 C2072 0.950 . S
H2062 C2074 0.950 . S
H2063 C2075 0.950 . S
C2064 H2056 0.950 . S
C2064 C2065 1.386 . S
C2064 C2066 1.391 . S
C2065 C2064 1.386 . S
C2065 C2069 1.393 . S
C2066 H2058 0.950 . S
C2066 C2064 1.391 . S
C2066 C2067 1.400 . S
C2067 C2066 1.400 . S
C2067 C2068 1.398 . S
C2067 C2073 1.491 . S
C2068 H2059 0.950 . S
C2068 C2067 1.398 . S
C2068 C2069 1.391 . S
C2069 H2057 0.950 . S
C2069 C2065 1.393 . S
C2069 C2068 1.391 . S
C2070 H2060 0.950 . S
C2070 C2071 1.386 . S
C2070 C2072 1.391 . S
C2071 C2070 1.386 . S
C2071 C2075 1.393 . S
C2072 H2061 0.950 . S
C2072 C2070 1.391 . S
C2072 C2073 1.400 . S
C2073 C2067 1.491 . S
C2073 C2072 1.400 . S
C2073 C2074 1.398 . S
C2074 H2062 0.950 . S
C2074 C2073 1.398 . S
C2074 C2075 1.391 . S
C2075 H2063 0.950 . S
C2075 C2071 1.393 . S
C2075 C2074 1.391 . S
H2076 C2084 0.950 . S
H2077 C2089 0.950 . S
H2078 C2086 0.950 . S
H2079 C2088 0.950 . S
H2080 C2090 0.950 . S
H2081 C2092 0.950 . S
H2082 C2094 0.950 . S
H2083 C2095 0.950 . S
C2084 H2076 0.950 . S
C2084 C2085 1.386 . S
C2084 C2086 1.391 . S
C2085 C2084 1.386 . S
C2085 C2089 1.393 . S
C2086 H2078 0.950 . S
C2086 C2084 1.391 . S
C2086 C2087 1.400 . S
C2087 C2086 1.400 . S
C2087 C2088 1.398 . S
C2087 C2093 1.491 . S
C2088 H2079 0.950 . S
C2088 C2087 1.398 . S
C2088 C2089 1.391 . S
C2089 H2077 0.950 . S
C2089 C2085 1.393 . S
C2089 C2088 1.391 . S
C2090 H2080 0.950 . S
C2090 C2091 1.386 . S
C2090 C2092 1.391 . S
C2091 C2090 1.386 . S
C2091 C2095 1.393 . S
C2092 H2081 0.950 . S
C2092 C2090 1.391 . S
C2092 C2093 1.400 . S
C2093 C2087 1.491 . S
C2093 C2092 1.400 . S
C2093 C2094 1.398 . S
C2094 H2082 0.950 . S
C2094 C2093 1.398 . S
C2094 C2095 1.391 . S
C2095 H2083 0.950 . S
C2095 C2091 1.393 . S
C2095 C2094 1.391 . S
H2096 C2104 0.950 . S
H2097 C2109 0.950 . S
H2098 C2106 0.950 . S
H2099 C2108 0.950 . S
H2100 C2110 0.950 . S
H2101 C2112 0.950 . S
H2102 C2114 0.950 . S
H2103 C2115 0.950 . S
C2104 H2096 0.950 . S
C2104 C2105 1.386 . S
C2104 C2106 1.391 . S
C2105 C2104 1.386 . S
C2105 C2109 1.393 . S
C2106 H2098 0.950 . S
C2106 C2104 1.391 . S
C2106 C2107 1.400 . S
C2107 C2106 1.400 . S
C2107 C2108 1.398 . S
C2107 C2113 1.491 . S
C2108 H2099 0.950 . S
C2108 C2107 1.398 . S
C2108 C2109 1.391 . S
C2109 H2097 0.950 . S
C2109 C2105 1.393 . S
C2109 C2108 1.391 . S
C2110 H2100 0.950 . S
C2110 C2111 1.386 . S
C2110 C2112 1.391 . S
C2111 C2110 1.386 . S
C2111 C2115 1.393 . S
C2112 H2101 0.950 . S
C2112 C2110 1.391 . S
C2112 C2113 1.400 . S
C2113 C2107 1.491 . S
C2113 C2112 1.400 . S
C2113 C2114 1.398 . S
C2114 H2102 0.950 . S
C2114 C2113 1.398 . S
C2114 C2115 1.391 . S
C2115 H2103 0.950 . S
C2115 C2111 1.393 . S
C2115 C2114 1.391 . S
H2116 C2124 0.950 . S
H2117 C2129 0.950 . S
H2118 C2126 0.950 . S
H2119 C2128 0.950 . S
H2120 C2130 0.950 . S
H2121 C2132 0.950 . S
H2122 C2134 0.950 . S
H2123 C2135 0.950 . S
C2124 H2116 0.950 . S
C2124 C2125 1.386 . S
C2124 C2126 1.391 . S
C2125 C2124 1.386 . S
C2125 C2129 1.393 . S
C2126 H2118 0.950 . S
C2126 C2124 1.391 . S
C2126 C2127 1.400 . S
C2127 C2126 1.400 . S
C2127 C2128 1.398 . S
C2127 C2133 1.491 . S
C2128 H2119 0.950 . S
C2128 C2127 1.398 . S
C2128 C2129 1.391 . S
C2129 H2117 0.950 . S
C2129 C2125 1.393 . S
C2129 C2128 1.391 . S
C2130 H2120 0.950 . S
C2130 C2131 1.386 . S
C2130 C2132 1.391 . S
C2131 C2130 1.386 . S
C2131 C2135 1.393 . S
C2132 H2121 0.950 . S
C2132 C2130 1.391 . S
C2132 C2133 1.400 . S
C2133 C2127 1.491 . S
C2133 C2132 1.400 . S
C2133 C2134 1.398 . S
C2134 H2122 0.950 . S
C2134 C2133 1.398 . S
C2134 C2135 1.391 . S
C2135 H2123 0.950 . S
C2135 C2131 1.393 . S
C2135 C2134 1.391 . S
H2136 C2144 0.950 . S
H2137 C2149 0.950 . S
H2138 C2146 0.950 . S
H2139 C2148 0.950 . S
H2140 C2150 0.950 . S
H2141 C2152 0.950 . S
H2142 C2154 0.950 . S
H2143 C2155 0.950 . S
C2144 H2136 0.950 . S
C2144 C2145 1.386 1_655 S
C2144 C2146 1.391 . S
C2145 C2144 1.386 1_455 S
C2145 C2149 1.393 . S
C2146 H2138 0.950 . S
C2146 C2144 1.391 . S
C2146 C2147 1.400 1_655 S
C2147 C2146 1.400 1_455 S
C2147 C2148 1.398 . S
C2147 C2153 1.491 . S
C2148 H2139 0.950 . S
C2148 C2147 1.398 . S
C2148 C2149 1.391 . S
C2149 H2137 0.950 . S
C2149 C2145 1.393 . S
C2149 C2148 1.391 . S
C2150 H2140 0.950 . S
C2150 C2151 1.386 . S
C2150 C2152 1.391 . S
C2151 C2150 1.386 . S
C2151 C2155 1.393 1_455 S
C2152 H2141 0.950 . S
C2152 C2150 1.391 . S
C2152 C2153 1.400 . S
C2153 C2147 1.491 . S
C2153 C2152 1.400 . S
C2153 C2154 1.398 1_455 S
C2154 H2142 0.950 . S
C2154 C2153 1.398 1_655 S
C2154 C2155 1.391 . S
C2155 H2143 0.950 . S
C2155 C2151 1.393 1_655 S
C2155 C2154 1.391 . S
H2156 C2164 0.950 . S
H2157 C2169 0.950 . S
H2158 C2166 0.950 . S
H2159 C2168 0.950 . S
H2160 C2170 0.950 . S
H2161 C2172 0.950 . S
H2162 C2174 0.950 . S
H2163 C2175 0.950 . S
C2164 H2156 0.950 . S
C2164 C2165 1.386 . S
C2164 C2166 1.391 . S
C2165 C2164 1.386 . S
C2165 C2169 1.393 . S
C2166 H2158 0.950 . S
C2166 C2164 1.391 . S
C2166 C2167 1.400 . S
C2167 C2166 1.400 . S
C2167 C2168 1.398 . S
C2167 C2173 1.491 . S
C2168 H2159 0.950 . S
C2168 C2167 1.398 . S
C2168 C2169 1.391 . S
C2169 H2157 0.950 . S
C2169 C2165 1.393 . S
C2169 C2168 1.391 . S
C2170 H2160 0.950 . S
C2170 C2171 1.386 . S
C2170 C2172 1.391 . S
C2171 C2170 1.386 . S
C2171 C2175 1.393 . S
C2172 H2161 0.950 . S
C2172 C2170 1.391 . S
C2172 C2173 1.400 . S
C2173 C2167 1.491 . S
C2173 C2172 1.400 . S
C2173 C2174 1.398 . S
C2174 H2162 0.950 . S
C2174 C2173 1.398 . S
C2174 C2175 1.391 . S
C2175 H2163 0.950 . S
C2175 C2171 1.393 . S
C2175 C2174 1.391 . S
H2176 C2184 0.950 . S
H2177 C2189 0.950 . S
H2178 C2186 0.950 . S
H2179 C2188 0.950 . S
H2180 C2190 0.950 . S
H2181 C2192 0.950 . S
H2182 C2194 0.950 . S
H2183 C2195 0.950 . S
C2184 H2176 0.950 . S
C2184 C2185 1.386 1_545 S
C2184 C2186 1.391 . S
C2185 C2184 1.386 1_565 S
C2185 C2189 1.393 . S
C2186 H2178 0.950 . S
C2186 C2184 1.391 . S
C2186 C2187 1.400 1_545 S
C2187 C2186 1.400 1_565 S
C2187 C2188 1.398 . S
C2187 C2193 1.491 . S
C2188 H2179 0.950 . S
C2188 C2187 1.398 . S
C2188 C2189 1.391 . S
C2189 H2177 0.950 . S
C2189 C2185 1.393 . S
C2189 C2188 1.391 . S
C2190 H2180 0.950 . S
C2190 C2191 1.386 . S
C2190 C2192 1.391 . S
C2191 C2190 1.386 . S
C2191 C2195 1.393 1_565 S
C2192 H2181 0.950 . S
C2192 C2190 1.391 . S
C2192 C2193 1.400 . S
C2193 C2187 1.491 . S
C2193 C2192 1.400 . S
C2193 C2194 1.398 1_565 S
C2194 H2182 0.950 . S
C2194 C2193 1.398 1_545 S
C2194 C2195 1.391 . S
C2195 H2183 0.950 . S
C2195 C2191 1.393 1_545 S
C2195 C2194 1.391 . S
H2196 C2204 0.950 . S
H2197 C2209 0.950 . S
H2198 C2206 0.950 . S
H2199 C2208 0.950 . S
H2200 C2210 0.950 . S
H2201 C2212 0.950 . S
H2202 C2214 0.950 . S
H2203 C2215 0.950 . S
C2204 H2196 0.950 . S
C2204 C2205 1.386 . S
C2204 C2206 1.391 . S
C2205 C2204 1.386 . S
C2205 C2209 1.393 1_565 S
C2206 H2198 0.950 . S
C2206 C2204 1.391 . S
C2206 C2207 1.400 . S
C2207 C2206 1.400 . S
C2207 C2208 1.398 1_565 S
C2207 C2213 1.491 . S
C2208 H2199 0.950 . S
C2208 C2207 1.398 1_545 S
C2208 C2209 1.391 . S
C2209 H2197 0.950 . S
C2209 C2205 1.393 1_545 S
C2209 C2208 1.391 . S
C2210 H2200 0.950 . S
C2210 C2211 1.386 1_545 S
C2210 C2212 1.391 . S
C2211 C2210 1.386 1_565 S
C2211 C2215 1.393 . S
C2212 H2201 0.950 . S
C2212 C2210 1.391 . S
C2212 C2213 1.400 1_545 S
C2213 C2207 1.491 . S
C2213 C2212 1.400 1_565 S
C2213 C2214 1.398 . S
C2214 H2202 0.950 . S
C2214 C2213 1.398 . S
C2214 C2215 1.391 . S
C2215 H2203 0.950 . S
C2215 C2211 1.393 . S
C2215 C2214 1.391 . S
H2216 C2224 0.950 . S
H2217 C2229 0.950 . S
H2218 C2226 0.950 . S
H2219 C2228 0.950 . S
H2220 C2230 0.950 . S
H2221 C2232 0.950 . S
H2222 C2234 0.950 . S
H2223 C2235 0.950 . S
C2224 H2216 0.950 . S
C2224 C2225 1.386 . S
C2224 C2226 1.391 . S
C2225 C2224 1.386 . S
C2225 C2229 1.393 1_455 S
C2226 H2218 0.950 . S
C2226 C2224 1.391 . S
C2226 C2227 1.400 . S
C2227 C2226 1.400 . S
C2227 C2228 1.398 1_455 S
C2227 C2233 1.491 . S
C2228 H2219 0.950 . S
C2228 C2227 1.398 1_655 S
C2228 C2229 1.391 . S
C2229 H2217 0.950 . S
C2229 C2225 1.393 1_655 S
C2229 C2228 1.391 . S
C2230 H2220 0.950 . S
C2230 C2231 1.386 1_655 S
C2230 C2232 1.391 . S
C2231 C2230 1.386 1_455 S
C2231 C2235 1.393 . S
C2232 H2221 0.950 . S
C2232 C2230 1.391 . S
C2232 C2233 1.400 1_655 S
C2233 C2227 1.491 . S
C2233 C2232 1.400 1_455 S
C2233 C2234 1.398 . S
C2234 H2222 0.950 . S
C2234 C2233 1.398 . S
C2234 C2235 1.391 . S
C2235 H2223 0.950 . S
C2235 C2231 1.393 . S
C2235 C2234 1.391 . S
H2236 C2244 0.950 . S
H2237 C2249 0.950 . S
H2238 C2246 0.950 . S
H2239 C2248 0.950 . S
H2240 C2250 0.950 . S
H2241 C2252 0.950 . S
H2242 C2254 0.950 . S
H2243 C2255 0.950 . S
C2244 H2236 0.950 . S
C2244 C2245 1.386 . S
C2244 C2246 1.391 . S
C2245 C2244 1.386 . S
C2245 C2249 1.393 . S
C2246 H2238 0.950 . S
C2246 C2244 1.391 . S
C2246 C2247 1.400 . S
C2247 C2246 1.400 . S
C2247 C2248 1.398 . S
C2247 C2253 1.491 . S
C2248 H2239 0.950 . S
C2248 C2247 1.398 . S
C2248 C2249 1.391 . S
C2249 H2237 0.950 . S
C2249 C2245 1.393 . S
C2249 C2248 1.391 . S
C2250 H2240 0.950 . S
C2250 C2251 1.386 . S
C2250 C2252 1.391 . S
C2251 C2250 1.386 . S
C2251 C2255 1.393 . S
C2252 H2241 0.950 . S
C2252 C2250 1.391 . S
C2252 C2253 1.400 . S
C2253 C2247 1.491 . S
C2253 C2252 1.400 . S
C2253 C2254 1.398 . S
C2254 H2242 0.950 . S
C2254 C2253 1.398 . S
C2254 C2255 1.391 . S
C2255 H2243 0.950 . S
C2255 C2251 1.393 . S
C2255 C2254 1.391 . S
H2256 C2264 0.950 . S
H2257 C2269 0.950 . S
H2258 C2266 0.950 . S
H2259 C2268 0.950 . S
H2260 C2270 0.950 . S
H2261 C2272 0.950 . S
H2262 C2274 0.950 . S
H2263 C2275 0.950 . S
C2264 H2256 0.950 . S
C2264 C2265 1.386 . S
C2264 C2266 1.391 . S
C2265 C2264 1.386 . S
C2265 C2269 1.393 . S
C2266 H2258 0.950 . S
C2266 C2264 1.391 . S
C2266 C2267 1.400 . S
C2267 C2266 1.400 . S
C2267 C2268 1.398 . S
C2267 C2273 1.491 . S
C2268 H2259 0.950 . S
C2268 C2267 1.398 . S
C2268 C2269 1.391 . S
C2269 H2257 0.950 . S
C2269 C2265 1.393 . S
C2269 C2268 1.391 . S
C2270 H2260 0.950 . S
C2270 C2271 1.386 . S
C2270 C2272 1.391 . S
C2271 C2270 1.386 . S
C2271 C2275 1.393 . S
C2272 H2261 0.950 . S
C2272 C2270 1.391 . S
C2272 C2273 1.400 . S
C2273 C2267 1.491 . S
C2273 C2272 1.400 . S
C2273 C2274 1.398 . S
C2274 H2262 0.950 . S
C2274 C2273 1.398 . S
C2274 C2275 1.391 . S
C2275 H2263 0.950 . S
C2275 C2271 1.393 . S
C2275 C2274 1.391 . S
H2276 C2284 0.950 . S
H2277 C2289 0.950 . S
H2278 C2286 0.950 . S
H2279 C2288 0.950 . S
H2280 C2290 0.950 . S
H2281 C2292 0.950 . S
H2282 C2294 0.950 . S
H2283 C2295 0.950 . S
C2284 H2276 0.950 . S
C2284 C2285 1.386 . S
C2284 C2286 1.391 . S
C2285 C2284 1.386 . S
C2285 C2289 1.393 . S
C2286 H2278 0.950 . S
C2286 C2284 1.391 . S
C2286 C2287 1.400 . S
C2287 C2286 1.400 . S
C2287 C2288 1.398 . S
C2287 C2293 1.491 . S
C2288 H2279 0.950 . S
C2288 C2287 1.398 . S
C2288 C2289 1.391 . S
C2289 H2277 0.950 . S
C2289 C2285 1.393 . S
C2289 C2288 1.391 . S
C2290 H2280 0.950 . S
C2290 C2291 1.386 . S
C2290 C2292 1.391 . S
C2291 C2290 1.386 . S
C2291 C2295 1.393 . S
C2292 H2281 0.950 . S
C2292 C2290 1.391 . S
C2292 C2293 1.400 . S
C2293 C2287 1.491 . S
C2293 C2292 1.400 . S
C2293 C2294 1.398 . S
C2294 H2282 0.950 . S
C2294 C2293 1.398 . S
C2294 C2295 1.391 . S
C2295 H2283 0.950 . S
C2295 C2291 1.393 . S
C2295 C2294 1.391 . S
H2296 C2304 0.950 . S
H2297 C2309 0.950 . S
H2298 C2306 0.950 . S
H2299 C2308 0.950 . S
H2300 C2310 0.950 . S
H2301 C2312 0.950 . S
H2302 C2314 0.950 . S
H2303 C2315 0.950 . S
C2304 H2296 0.950 . S
C2304 C2305 1.386 . S
C2304 C2306 1.391 . S
C2305 C2304 1.386 . S
C2305 C2309 1.393 . S
C2306 H2298 0.950 . S
C2306 C2304 1.391 . S
C2306 C2307 1.400 . S
C2307 C2306 1.400 . S
C2307 C2308 1.398 . S
C2307 C2313 1.491 . S
C2308 H2299 0.950 . S
C2308 C2307 1.398 . S
C2308 C2309 1.391 . S
C2309 H2297 0.950 . S
C2309 C2305 1.393 . S
C2309 C2308 1.391 . S
C2310 H2300 0.950 . S
C2310 C2311 1.386 . S
C2310 C2312 1.391 . S
C2311 C2310 1.386 . S
C2311 C2315 1.393 . S
C2312 H2301 0.950 . S
C2312 C2310 1.391 . S
C2312 C2313 1.400 . S
C2313 C2307 1.491 . S
C2313 C2312 1.400 . S
C2313 C2314 1.398 . S
C2314 H2302 0.950 . S
C2314 C2313 1.398 . S
C2314 C2315 1.391 . S
C2315 H2303 0.950 . S
C2315 C2311 1.393 . S
C2315 C2314 1.391 . S
H2316 C2324 0.950 . S
H2317 C2329 0.950 . S
H2318 C2326 0.950 . S
H2319 C2328 0.950 . S
H2320 C2330 0.950 . S
H2321 C2332 0.950 . S
H2322 C2334 0.950 . S
H2323 C2335 0.950 . S
C2324 H2316 0.950 . S
C2324 C2325 1.386 . S
C2324 C2326 1.391 . S
C2325 C2324 1.386 . S
C2325 C2329 1.393 1_545 S
C2326 H2318 0.950 . S
C2326 C2324 1.391 . S
C2326 C2327 1.400 . S
C2327 C2326 1.400 . S
C2327 C2328 1.398 1_545 S
C2327 C2333 1.491 . S
C2328 H2319 0.950 . S
C2328 C2327 1.398 1_565 S
C2328 C2329 1.391 . S
C2329 H2317 0.950 . S
C2329 C2325 1.393 1_565 S
C2329 C2328 1.391 . S
C2330 H2320 0.950 . S
C2330 C2331 1.386 1_565 S
C2330 C2332 1.391 . S
C2331 C2330 1.386 1_545 S
C2331 C2335 1.393 . S
C2332 H2321 0.950 . S
C2332 C2330 1.391 . S
C2332 C2333 1.400 1_565 S
C2333 C2327 1.491 . S
C2333 C2332 1.400 1_545 S
C2333 C2334 1.398 . S
C2334 H2322 0.950 . S
C2334 C2333 1.398 . S
C2334 C2335 1.391 . S
C2335 H2323 0.950 . S
C2335 C2331 1.393 . S
C2335 C2334 1.391 . S
H2336 C2344 0.950 . S
H2337 C2349 0.950 . S
H2338 C2346 0.950 . S
H2339 C2348 0.950 . S
H2340 C2350 0.950 . S
H2341 C2352 0.950 . S
H2342 C2354 0.950 . S
H2343 C2355 0.950 . S
C2344 H2336 0.950 . S
C2344 C2345 1.386 . S
C2344 C2346 1.391 . S
C2345 C2344 1.386 . S
C2345 C2349 1.393 1_655 S
C2346 H2338 0.950 . S
C2346 C2344 1.391 . S
C2346 C2347 1.400 . S
C2347 C2346 1.400 . S
C2347 C2348 1.398 1_655 S
C2347 C2353 1.491 . S
C2348 H2339 0.950 . S
C2348 C2347 1.398 1_455 S
C2348 C2349 1.391 . S
C2349 H2337 0.950 . S
C2349 C2345 1.393 1_455 S
C2349 C2348 1.391 . S
C2350 H2340 0.950 . S
C2350 C2351 1.386 1_455 S
C2350 C2352 1.391 . S
C2351 C2350 1.386 1_655 S
C2351 C2355 1.393 . S
C2352 H2341 0.950 . S
C2352 C2350 1.391 . S
C2352 C2353 1.400 1_455 S
C2353 C2347 1.491 . S
C2353 C2352 1.400 1_655 S
C2353 C2354 1.398 . S
C2354 H2342 0.950 . S
C2354 C2353 1.398 . S
C2354 C2355 1.391 . S
C2355 H2343 0.950 . S
C2355 C2351 1.393 . S
C2355 C2354 1.391 . S
H2356 C2364 0.950 . S
H2357 C2369 0.950 . S
H2358 C2366 0.950 . S
H2359 C2368 0.950 . S
H2360 C2370 0.950 . S
H2361 C2372 0.950 . S
H2362 C2374 0.950 . S
H2363 C2375 0.950 . S
C2364 H2356 0.950 . S
C2364 C2365 1.386 . S
C2364 C2366 1.391 . S
C2365 C2364 1.386 . S
C2365 C2369 1.393 . S
C2366 H2358 0.950 . S
C2366 C2364 1.391 . S
C2366 C2367 1.400 . S
C2367 C2366 1.400 . S
C2367 C2368 1.398 . S
C2367 C2373 1.491 . S
C2368 H2359 0.950 . S
C2368 C2367 1.398 . S
C2368 C2369 1.391 . S
C2369 H2357 0.950 . S
C2369 C2365 1.393 . S
C2369 C2368 1.391 . S
C2370 H2360 0.950 . S
C2370 C2371 1.386 . S
C2370 C2372 1.391 . S
C2371 C2370 1.386 . S
C2371 C2375 1.393 . S
C2372 H2361 0.950 . S
C2372 C2370 1.391 . S
C2372 C2373 1.400 . S
C2373 C2367 1.491 . S
C2373 C2372 1.400 . S
C2373 C2374 1.398 . S
C2374 H2362 0.950 . S
C2374 C2373 1.398 . S
C2374 C2375 1.391 . S
C2375 H2363 0.950 . S
C2375 C2371 1.393 . S
C2375 C2374 1.391 . S
H2376 C2384 0.950 . S
H2377 C2389 0.950 . S
H2378 C2386 0.950 . S
H2379 C2388 0.950 . S
H2380 C2390 0.950 . S
H2381 C2392 0.950 . S
H2382 C2394 0.950 . S
H2383 C2395 0.950 . S
C2384 H2376 0.950 . S
C2384 C2385 1.386 . S
C2384 C2386 1.391 . S
C2385 C2384 1.386 . S
C2385 C2389 1.393 . S
C2386 H2378 0.950 . S
C2386 C2384 1.391 . S
C2386 C2387 1.400 . S
C2387 C2386 1.400 . S
C2387 C2388 1.398 . S
C2387 C2393 1.491 . S
C2388 H2379 0.950 . S
C2388 C2387 1.398 . S
C2388 C2389 1.391 . S
C2389 H2377 0.950 . S
C2389 C2385 1.393 . S
C2389 C2388 1.391 . S
C2390 H2380 0.950 . S
C2390 C2391 1.386 . S
C2390 C2392 1.391 . S
C2391 C2390 1.386 . S
C2391 C2395 1.393 . S
C2392 H2381 0.950 . S
C2392 C2390 1.391 . S
C2392 C2393 1.400 . S
C2393 C2387 1.491 . S
C2393 C2392 1.400 . S
C2393 C2394 1.398 . S
C2394 H2382 0.950 . S
C2394 C2393 1.398 . S
C2394 C2395 1.391 . S
C2395 H2383 0.950 . S
C2395 C2391 1.393 . S
C2395 C2394 1.391 . S
H2396 C2404 0.950 . S
H2397 C2409 0.950 . S
H2398 C2406 0.950 . S
H2399 C2408 0.950 . S
H2400 C2410 0.950 . S
H2401 C2412 0.950 . S
H2402 C2414 0.950 . S
H2403 C2415 0.950 . S
C2404 H2396 0.950 . S
C2404 C2405 1.386 . S
C2404 C2406 1.391 . S
C2405 C2404 1.386 . S
C2405 C2409 1.393 . S
C2406 H2398 0.950 . S
C2406 C2404 1.391 . S
C2406 C2407 1.400 . S
C2407 C2406 1.400 . S
C2407 C2408 1.398 . S
C2407 C2413 1.491 . S
C2408 H2399 0.950 . S
C2408 C2407 1.398 . S
C2408 C2409 1.391 . S
C2409 H2397 0.950 . S
C2409 C2405 1.393 . S
C2409 C2408 1.391 . S
C2410 H2400 0.950 . S
C2410 C2411 1.386 . S
C2410 C2412 1.391 . S
C2411 C2410 1.386 . S
C2411 C2415 1.393 . S
C2412 H2401 0.950 . S
C2412 C2410 1.391 . S
C2412 C2413 1.400 . S
C2413 C2407 1.491 . S
C2413 C2412 1.400 . S
C2413 C2414 1.398 . S
C2414 H2402 0.950 . S
C2414 C2413 1.398 . S
C2414 C2415 1.391 . S
C2415 H2403 0.950 . S
C2415 C2411 1.393 . S
C2415 C2414 1.391 . S
H2416 C2424 0.950 . S
H2417 C2429 0.950 . S
H2418 C2426 0.950 . S
H2419 C2428 0.950 . S
H2420 C2430 0.950 . S
H2421 C2432 0.950 . S
H2422 C2434 0.950 . S
H2423 C2435 0.950 . S
C2424 H2416 0.950 . S
C2424 C2425 1.386 . S
C2424 C2426 1.391 . S
C2425 C2424 1.386 . S
C2425 C2429 1.393 . S
C2426 H2418 0.950 . S
C2426 C2424 1.391 . S
C2426 C2427 1.400 . S
C2427 C2426 1.400 . S
C2427 C2428 1.398 . S
C2427 C2433 1.491 . S
C2428 H2419 0.950 . S
C2428 C2427 1.398 . S
C2428 C2429 1.391 . S
C2429 H2417 0.950 . S
C2429 C2425 1.393 . S
C2429 C2428 1.391 . S
C2430 H2420 0.950 . S
C2430 C2431 1.386 . S
C2430 C2432 1.391 . S
C2431 C2430 1.386 . S
C2431 C2435 1.393 . S
C2432 H2421 0.950 . S
C2432 C2430 1.391 . S
C2432 C2433 1.400 . S
C2433 C2427 1.491 . S
C2433 C2432 1.400 . S
C2433 C2434 1.398 . S
C2434 H2422 0.950 . S
C2434 C2433 1.398 . S
C2434 C2435 1.391 . S
C2435 H2423 0.950 . S
C2435 C2431 1.393 . S
C2435 C2434 1.391 . S
H2436 C2444 0.950 . S
H2437 C2449 0.950 . S
H2438 C2446 0.950 . S
H2439 C2448 0.950 . S
H2440 C2450 0.950 . S
H2441 C2452 0.950 . S
H2442 C2454 0.950 . S
H2443 C2455 0.950 . S
C2444 H2436 0.950 . S
C2444 C2445 1.386 . S
C2444 C2446 1.391 . S
C2445 C2444 1.386 . S
C2445 C2449 1.393 . S
C2446 H2438 0.950 . S
C2446 C2444 1.391 . S
C2446 C2447 1.400 . S
C2447 C2446 1.400 . S
C2447 C2448 1.398 . S
C2447 C2453 1.491 . S
C2448 H2439 0.950 . S
C2448 C2447 1.398 . S
C2448 C2449 1.391 . S
C2449 H2437 0.950 . S
C2449 C2445 1.393 . S
C2449 C2448 1.391 . S
C2450 H2440 0.950 . S
C2450 C2451 1.386 . S
C2450 C2452 1.391 . S
C2451 C2450 1.386 . S
C2451 C2455 1.393 . S
C2452 H2441 0.950 . S
C2452 C2450 1.391 . S
C2452 C2453 1.400 . S
C2453 C2447 1.491 . S
C2453 C2452 1.400 . S
C2453 C2454 1.398 . S
C2454 H2442 0.950 . S
C2454 C2453 1.398 . S
C2454 C2455 1.391 . S
C2455 H2443 0.950 . S
C2455 C2451 1.393 . S
C2455 C2454 1.391 . S
H2456 C2464 0.950 . S
H2457 C2469 0.950 . S
H2458 C2466 0.950 . S
H2459 C2468 0.950 . S
H2460 C2470 0.950 . S
H2461 C2472 0.950 . S
H2462 C2474 0.950 . S
H2463 C2475 0.950 . S
C2464 H2456 0.950 . S
C2464 C2465 1.386 . S
C2464 C2466 1.391 . S
C2465 C2464 1.386 . S
C2465 C2469 1.393 . S
C2466 H2458 0.950 . S
C2466 C2464 1.391 . S
C2466 C2467 1.400 . S
C2467 C2466 1.400 . S
C2467 C2468 1.398 . S
C2467 C2473 1.491 . S
C2468 H2459 0.950 . S
C2468 C2467 1.398 . S
C2468 C2469 1.391 . S
C2469 H2457 0.950 . S
C2469 C2465 1.393 . S
C2469 C2468 1.391 . S
C2470 H2460 0.950 . S
C2470 C2471 1.386 . S
C2470 C2472 1.391 . S
C2471 C2470 1.386 . S
C2471 C2475 1.393 . S
C2472 H2461 0.950 . S
C2472 C2470 1.391 . S
C2472 C2473 1.400 . S
C2473 C2467 1.491 . S
C2473 C2472 1.400 . S
C2473 C2474 1.398 . S
C2474 H2462 0.950 . S
C2474 C2473 1.398 . S
C2474 C2475 1.391 . S
C2475 H2463 0.950 . S
C2475 C2471 1.393 . S
C2475 C2474 1.391 . S
H2476 C2484 0.950 . S
H2477 C2489 0.950 . S
H2478 C2486 0.950 . S
H2479 C2488 0.950 . S
H2480 C2490 0.950 . S
H2481 C2492 0.950 . S
H2482 C2494 0.950 . S
H2483 C2495 0.950 . S
C2484 H2476 0.950 . S
C2484 C2485 1.386 . S
C2484 C2486 1.391 . S
C2485 C2484 1.386 . S
C2485 C2489 1.393 . S
C2486 H2478 0.950 . S
C2486 C2484 1.391 . S
C2486 C2487 1.400 . S
C2487 C2486 1.400 . S
C2487 C2488 1.398 . S
C2487 C2493 1.491 . S
C2488 H2479 0.950 . S
C2488 C2487 1.398 . S
C2488 C2489 1.391 . S
C2489 H2477 0.950 . S
C2489 C2485 1.393 . S
C2489 C2488 1.391 . S
C2490 H2480 0.950 . S
C2490 C2491 1.386 . S
C2490 C2492 1.391 . S
C2491 C2490 1.386 . S
C2491 C2495 1.393 . S
C2492 H2481 0.950 . S
C2492 C2490 1.391 . S
C2492 C2493 1.400 . S
C2493 C2487 1.491 . S
C2493 C2492 1.400 . S
C2493 C2494 1.398 . S
C2494 H2482 0.950 . S
C2494 C2493 1.398 . S
C2494 C2495 1.391 . S
C2495 H2483 0.950 . S
C2495 C2491 1.393 . S
C2495 C2494 1.391 . S
H2496 C2504 0.950 . S
H2497 C2509 0.950 . S
H2498 C2506 0.950 . S
H2499 C2508 0.950 . S
H2500 C2510 0.950 . S
H2501 C2512 0.950 . S
H2502 C2514 0.950 . S
H2503 C2515 0.950 . S
C2504 H2496 0.950 . S
C2504 C2505 1.386 . S
C2504 C2506 1.391 . S
C2505 C2504 1.386 . S
C2505 C2509 1.393 1_655 S
C2506 H2498 0.950 . S
C2506 C2504 1.391 . S
C2506 C2507 1.400 . S
C2507 C2506 1.400 . S
C2507 C2508 1.398 1_655 S
C2507 C2513 1.491 . S
C2508 H2499 0.950 . S
C2508 C2507 1.398 1_455 S
C2508 C2509 1.391 . S
C2509 H2497 0.950 . S
C2509 C2505 1.393 1_455 S
C2509 C2508 1.391 . S
C2510 H2500 0.950 . S
C2510 C2511 1.386 1_455 S
C2510 C2512 1.391 . S
C2511 C2510 1.386 1_655 S
C2511 C2515 1.393 . S
C2512 H2501 0.950 . S
C2512 C2510 1.391 . S
C2512 C2513 1.400 1_455 S
C2513 C2507 1.491 . S
C2513 C2512 1.400 1_655 S
C2513 C2514 1.398 . S
C2514 H2502 0.950 . S
C2514 C2513 1.398 . S
C2514 C2515 1.391 . S
C2515 H2503 0.950 . S
C2515 C2511 1.393 . S
C2515 C2514 1.391 . S
H2516 C2524 0.950 . S
H2517 C2529 0.950 . S
H2518 C2526 0.950 . S
H2519 C2528 0.950 . S
H2520 C2530 0.950 . S
H2521 C2532 0.950 . S
H2522 C2534 0.950 . S
H2523 C2535 0.950 . S
C2524 H2516 0.950 . S
C2524 C2525 1.386 . S
C2524 C2526 1.391 . S
C2525 C2524 1.386 . S
C2525 C2529 1.393 . S
C2526 H2518 0.950 . S
C2526 C2524 1.391 . S
C2526 C2527 1.400 . S
C2527 C2526 1.400 . S
C2527 C2528 1.398 . S
C2527 C2533 1.491 . S
C2528 H2519 0.950 . S
C2528 C2527 1.398 . S
C2528 C2529 1.391 . S
C2529 H2517 0.950 . S
C2529 C2525 1.393 . S
C2529 C2528 1.391 . S
C2530 H2520 0.950 . S
C2530 C2531 1.386 . S
C2530 C2532 1.391 . S
C2531 C2530 1.386 . S
C2531 C2535 1.393 . S
C2532 H2521 0.950 . S
C2532 C2530 1.391 . S
C2532 C2533 1.400 . S
C2533 C2527 1.491 . S
C2533 C2532 1.400 . S
C2533 C2534 1.398 . S
C2534 H2522 0.950 . S
C2534 C2533 1.398 . S
C2534 C2535 1.391 . S
C2535 H2523 0.950 . S
C2535 C2531 1.393 . S
C2535 C2534 1.391 . S
H2536 C2544 0.950 . S
H2537 C2549 0.950 . S
H2538 C2546 0.950 . S
H2539 C2548 0.948 . S
H2540 C2550 0.939 1_565 S
H2541 C2552 0.961 . S
H2542 C2554 0.950 . S
H2543 C2555 0.950 . S
C2544 H2536 0.950 . S
C2544 C2545 1.386 . S
C2544 C2546 1.391 . S
C2545 C2544 1.386 . S
C2545 C2549 1.393 . S
C2546 H2538 0.950 . S
C2546 C2544 1.391 . S
C2546 C2547 1.400 . S
C2547 C2546 1.400 . S
C2547 C2548 1.398 . S
C2547 C2553 1.491 . S
C2548 H2539 0.948 . S
C2548 C2547 1.398 . S
C2548 C2549 1.391 . S
C2549 H2537 0.950 . S
C2549 C2545 1.393 . S
C2549 C2548 1.391 . S
C2550 H2540 0.939 1_545 S
C2550 C2551 1.386 . S
C2550 C2552 1.391 . S
C2551 C2550 1.386 . S
C2551 C2555 1.393 . S
C2552 H2541 0.961 . S
C2552 C2550 1.391 . S
C2552 C2553 1.400 . S
C2553 C2547 1.491 . S
C2553 C2552 1.400 . S
C2553 C2554 1.398 . S
C2554 H2542 0.950 . S
C2554 C2553 1.398 . S
C2554 C2555 1.391 . S
C2555 H2543 0.950 . S
C2555 C2551 1.393 . S
C2555 C2554 1.391 . S
C1125 C8 1.481 1_655 S
C1131 C729 1.500 . S
C1145 C22 1.548 . S
C1151 C777 1.566 . S
C1171 C825 1.513 . S
C1165 C37 1.501 1_545 S
C1185 C36 1.473 1_565 S
C1191 C849 1.508 . S
C1205 C9 1.499 1_455 S
C1211 C921 1.517 . S
C1225 C23 1.558 . S
C1231 C969 1.562 . S
C1245 C50 1.454 1_455 S
C1251 C897 1.503 . S
C1271 C945 1.565 . S
C1265 C64 1.559 . S
C1291 C873 1.533 . S
C1285 C79 1.503 1_565 S
C1305 C78 1.484 1_545 S
C1311 C801 1.502 . S
C1331 C705 1.525 . S
C1325 C51 1.508 1_655 S
C1345 C65 1.549 . S
C1351 C753 1.570 . S
C1365 C92 1.594 . S
C1371 C1017 1.601 . S
C1385 C106 1.602 . S
C1391 C1065 1.603 . S
C1411 C1089 1.573 . S
C1405 C121 1.582 . S
C1425 C120 1.538 . S
C1431 C273 1.551 . S
C1445 C93 1.566 . S
C1451 C345 1.570 . S
C1465 C107 1.563 . S
C1471 C393 1.579 . S
C1485 C134 1.533 . S
C1491 C321 1.555 . S
C1505 C148 1.579 . S
C1511 C369 1.580 . S
C1531 C297 1.541 . S
C1525 C163 1.567 . S
C1551 C1113 1.570 . S
C1545 C162 1.591 . S
C1571 C993 1.580 . S
C1565 C135 1.578 . S
C1591 C1041 1.612 . S
C1585 C149 1.599 . S
C1605 C176 1.533 . S
C1611 C441 1.552 . S
C1625 C190 1.574 . S
C1631 C489 1.576 . S
C1645 C205 1.562 . S
C1651 C513 1.574 . S
C1665 C204 1.591 . S
C1671 C561 1.594 . S
C1691 C633 1.584 . S
C1685 C177 1.569 . S
C1711 C681 1.604 . S
C1705 C191 1.603 . S
C1731 C609 1.605 . S
C1725 C218 1.588 . S
C1751 C657 1.613 . S
C1745 C232 1.596 . S
C1765 C247 1.575 . S
C1771 C585 1.552 . S
C1791 C537 1.532 . S
C1785 C246 1.531 . S
C1805 C219 1.558 . S
C1811 C417 1.580 . S
C1831 C465 1.584 . S
C1825 C233 1.567 . S
C1851 C282 1.542 . S
C1845 C6 1.515 . S
C1865 C20 1.480 . S
C1871 C336 1.498 . S
C1891 C384 1.541 . S
C1885 C35 1.518 . S
C1911 C432 1.534 . S
C1905 C34 1.530 . S
C1931 C480 1.539 . S
C1925 C7 1.518 . S
C1951 C522 1.511 . S
C1945 C21 1.484 . S
C1965 C48 1.531 . S
C1971 C528 1.555 . S
C1985 C62 1.476 . S
C1991 C426 1.500 . S
C2005 C77 1.523 . S
C2011 C474 1.509 . S
C2025 C76 1.530 . S
C2031 C330 1.530 . S
C2051 C378 1.524 . S
C2045 C49 1.521 . S
C2065 C63 1.495 . S
C2071 C288 1.509 . S
C2091 C570 1.535 . S
C2085 C90 1.499 . S
C2105 C104 1.534 . S
C2111 C624 1.557 . S
C2125 C119 1.538 . S
C2131 C672 1.565 . S
C2151 C720 1.498 . S
C2145 C118 1.447 . S
C2165 C91 1.523 . S
C2171 C768 1.528 . S
C2185 C105 1.460 . S
C2191 C816 1.496 . S
C2205 C132 1.461 . S
C2211 C810 1.485 . S
C2225 C146 1.454 . S
C2231 C714 1.501 . S
C2251 C762 1.518 . S
C2245 C161 1.515 . S
C2265 C160 1.506 . S
C2271 C618 1.524 . S
C2285 C133 1.550 . S
C2291 C666 1.547 . S
C2311 C576 1.564 . S
C2305 C147 1.545 . S
C2331 C858 1.534 . S
C2325 C174 1.448 . S
C2345 C188 1.470 . S
C2351 C912 1.499 . S
C2365 C203 1.525 . S
C2371 C960 1.531 . S
C2391 C1008 1.528 . S
C2385 C202 1.502 . S
C2411 C1056 1.559 . S
C2405 C175 1.538 . S
C2425 C189 1.545 . S
C2431 C1098 1.570 . S
C2445 C216 1.512 . S
C2451 C1104 1.540 . S
C2465 C230 1.544 . S
C2471 C1002 1.552 . S
C2491 C1050 1.555 . S
C2485 C245 1.541 . S
C2511 C906 1.486 . S
C2505 C244 1.453 . S
C2531 C954 1.522 . S
C2525 C217 1.525 . S
C2545 C231 1.474 . S
C2551 C864 1.504 . S
