# Generated by pormake.
# Topology ssa, (4,4)-cn, num edge types: 1
# Building blocks:
#     Node 0, Type 0, BuildingBlock: NAWXER_clean_sbu_0, # of connection points: 4
#     Node 1, Type 0, BuildingBlock: NAWXER_clean_sbu_0, # of connection points: 4
#     Node 2, Type 0, BuildingBlock: NAWXER_clean_sbu_0, # of connection points: 4
#     Node 3, Type 0, BuildingBlock: NAWXER_clean_sbu_0, # of connection points: 4
#     Node 4, Type 0, BuildingBlock: NAWXER_clean_sbu_0, # of connection points: 4
#     Node 5, Type 0, BuildingBlock: NAWXER_clean_sbu_0, # of connection points: 4
#     Node 6, Type 1, BuildingBlock: AZAVOO_clean_linker_0, # of connection points: 4
#     Node 7, Type 1, BuildingBlock: AZAVOO_clean_linker_0, # of connection points: 4
#     Node 8, Type 1, BuildingBlock: AZAVOO_clean_linker_0, # of connection points: 4
#     Node 9, Type 1, BuildingBlock: AZAVOO_clean_linker_0, # of connection points: 4
#     Node 10, Type 1, BuildingBlock: AZAVOO_clean_linker_0, # of connection points: 4
#     Node 11, Type 1, BuildingBlock: AZAVOO_clean_linker_0, # of connection points: 4
#     Edge 12, Type (0, 1), BuildingBlock: OJICUG_clean_linker_0, # of connection points: 2
#     Edge 13, Type (0, 1), BuildingBlock: OJICUG_clean_linker_0, # of connection points: 2
#     Edge 14, Type (0, 1), BuildingBlock: OJICUG_clean_linker_0, # of connection points: 2
#     Edge 15, Type (0, 1), BuildingBlock: OJICUG_clean_linker_0, # of connection points: 2
#     Edge 16, Type (0, 1), BuildingBlock: OJICUG_clean_linker_0, # of connection points: 2
#     Edge 17, Type (0, 1), BuildingBlock: OJICUG_clean_linker_0, # of connection points: 2
#     Edge 18, Type (0, 1), BuildingBlock: OJICUG_clean_linker_0, # of connection points: 2
#     Edge 19, Type (0, 1), BuildingBlock: OJICUG_clean_linker_0, # of connection points: 2
#     Edge 20, Type (0, 1), BuildingBlock: OJICUG_clean_linker_0, # of connection points: 2
#     Edge 21, Type (0, 1), BuildingBlock: OJICUG_clean_linker_0, # of connection points: 2
#     Edge 22, Type (0, 1), BuildingBlock: OJICUG_clean_linker_0, # of connection points: 2
#     Edge 23, Type (0, 1), BuildingBlock: OJICUG_clean_linker_0, # of connection points: 2
#     Edge 24, Type (0, 1), BuildingBlock: OJICUG_clean_linker_0, # of connection points: 2
#     Edge 25, Type (0, 1), BuildingBlock: OJICUG_clean_linker_0, # of connection points: 2
#     Edge 26, Type (0, 1), BuildingBlock: OJICUG_clean_linker_0, # of connection points: 2
#     Edge 27, Type (0, 1), BuildingBlock: OJICUG_clean_linker_0, # of connection points: 2
#     Edge 28, Type (0, 1), BuildingBlock: OJICUG_clean_linker_0, # of connection points: 2
#     Edge 29, Type (0, 1), BuildingBlock: OJICUG_clean_linker_0, # of connection points: 2
#     Edge 30, Type (0, 1), BuildingBlock: OJICUG_clean_linker_0, # of connection points: 2
#     Edge 31, Type (0, 1), BuildingBlock: OJICUG_clean_linker_0, # of connection points: 2
#     Edge 32, Type (0, 1), BuildingBlock: OJICUG_clean_linker_0, # of connection points: 2
#     Edge 33, Type (0, 1), BuildingBlock: OJICUG_clean_linker_0, # of connection points: 2
#     Edge 34, Type (0, 1), BuildingBlock: OJICUG_clean_linker_0, # of connection points: 2
#     Edge 35, Type (0, 1), BuildingBlock: OJICUG_clean_linker_0, # of connection points: 2
# Relax obj value: 0.094
# Max RMSD: 0.237
# Mean RMSD: 0.131
data_MOF--net-ssa--node1-NAWXER_clean_sbu_0--node2-AZAVOO_clean_linker_0--edge1-OJICUG_clean_linker_0
_symmetry_space_group_name_H-M    P1
_symmetry_Int_Tables_number       1
_symmetry_cell_setting            triclinic
loop_
_symmetry_equiv_pos_as_xyz
'x, y, z'
_cell_length_a     37.599676
_cell_length_b     37.958756
_cell_length_c     35.538265
_cell_angle_alpha  89.558172
_cell_angle_beta   93.499548
_cell_angle_gamma 120.33115
loop_
_atom_site_label
_atom_site_type_symbol
_atom_site_fract_x
_atom_site_fract_y
_atom_site_fract_z
_atom_type_partial_charge
C0 C 0.17614 0.60304 0.04959 0.0
C1 C 0.1087 0.50351 0.94596 0.0
O2 O 0.1426 0.57116 0.05785 0.0
Zn3 Zn 0.0946 0.51623 0.03154 0.0
O4 O 0.18792 0.60722 0.01622 0.0
Zn5 Zn 0.14318 0.55488 0.99634 0.0
O6 O 0.09085 0.56369 0.99393 0.0
O7 O 0.0464 0.52135 0.03335 0.0
O8 O 0.14303 0.53673 0.94514 0.0
O9 O 0.08886 0.49369 0.97589 0.0
O10 O 0.0982 0.47535 0.06107 0.0
O11 O 0.15317 0.51237 0.02898 0.0
C12 C 0.05629 0.54919 0.00928 0.0
C13 C 0.13385 0.48379 0.05214 0.0
C14 C 0.54256 0.03792 0.60481 0.0
C15 C 0.58984 0.95903 0.53977 0.0
O16 O 0.53358 0.00127 0.60974 0.0
Zn17 Zn 0.56545 0.99823 0.57122 0.0
O18 O 0.56713 0.05876 0.57939 0.0
Zn19 Zn 0.60151 0.04915 0.53841 0.0
O20 O 0.58014 0.05724 0.49074 0.0
O21 O 0.53481 0.00265 0.51978 0.0
O22 O 0.60573 0.99558 0.52782 0.0
O23 O 0.56342 0.94707 0.56452 0.0
O24 O 0.6286 0.03753 0.59285 0.0
O25 O 0.65753 0.08853 0.5537 0.0
C26 C 0.54408 0.02649 0.4917 0.0
C27 C 0.66024 0.07068 0.58316 0.0
C28 C 0.59267 0.46083 0.056 0.0
C29 C 0.66005 0.57435 0.14801 0.0
O30 O 0.58703 0.49072 0.04808 0.0
Zn31 Zn 0.60508 0.55025 0.06972 0.0
O32 O 0.61543 0.46323 0.08506 0.0
Zn33 Zn 0.62848 0.51719 0.10194 0.0
O34 O 0.56911 0.50555 0.11526 0.0
O35 O 0.55153 0.54332 0.08021 0.0
O36 O 0.66065 0.54118 0.14915 0.0
O37 O 0.64131 0.581 0.12 0.0
O38 O 0.63686 0.5845 0.02916 0.0
O39 O 0.66642 0.55361 0.05866 0.0
C40 C 0.5431 0.51683 0.10557 0.0
C41 C 0.66634 0.5771 0.03258 0.0
C42 C 0.12907 0.55944 0.53123 0.0
C43 C 0.06446 0.43227 0.59907 0.0
O44 O 0.14535 0.5491 0.55824 0.0
Zn45 Zn 0.09771 0.49638 0.56613 0.0
O46 O 0.09182 0.53489 0.51868 0.0
Zn47 Zn 0.04321 0.47459 0.5294 0.0
O48 O 0.99897 0.48282 0.54279 0.0
O49 O 0.05297 0.51079 0.58424 0.0
O50 O 0.04132 0.43343 0.57166 0.0
O51 O 0.10028 0.46301 0.60644 0.0
O52 O 0.09501 0.46228 0.51751 0.0
O53 O 0.03747 0.44517 0.48292 0.0
C54 C 0.01677 0.50348 0.57305 0.0
C55 C 0.07094 0.44462 0.48815 0.0
C56 C 0.65828 0.04033 0.14537 0.0
C57 C 0.59205 0.09934 0.06602 0.0
O58 O 0.65918 0.07369 0.15188 0.0
Zn59 Zn 0.62579 0.07114 0.10684 0.0
O60 O 0.63759 0.01822 0.1162 0.0
Zn61 Zn 0.59975 0.01883 0.06931 0.0
O62 O 0.62986 0.01798 0.02744 0.0
O63 O 0.66347 0.0745 0.06265 0.0
O64 O 0.58425 0.0642 0.05412 0.0
O65 O 0.61572 0.11562 0.09557 0.0
O66 O 0.56621 0.02242 0.11952 0.0
O67 O 0.54656 0.97185 0.07812 0.0
C68 C 0.66195 0.05269 0.03455 0.0
C69 C 0.53945 0.98648 0.1069 0.0
C70 C 0.60629 0.53411 0.60909 0.0
C71 C 0.50139 0.44823 0.51122 0.0
O72 O 0.57129 0.53132 0.61271 0.0
Zn73 Zn 0.51114 0.50282 0.5843 0.0
O74 O 0.61093 0.5159 0.58154 0.0
Zn75 Zn 0.55462 0.48994 0.56022 0.0
O76 O 0.55232 0.54035 0.53765 0.0
O77 O 0.5078 0.55028 0.56702 0.0
O78 O 0.5381 0.45487 0.51578 0.0
O79 O 0.48807 0.46349 0.53489 0.0
O80 O 0.47796 0.46863 0.62421 0.0
O81 O 0.52161 0.4511 0.60459 0.0
C82 C 0.53395 0.56042 0.54208 0.0
C83 C 0.49418 0.44622 0.62712 0.0
H84 H 0.33835 0.4252 0.53304 0.0
H85 H 0.01859 0.34129 0.18649 0.0
H86 H 0.37652 0.46772 0.32226 0.0
H87 H 0.43022 0.47129 0.36729 0.0
H88 H 0.36296 0.34004 0.37388 0.0
H89 H 0.3103 0.33641 0.32717 0.0
H90 H 0.31109 0.45798 0.37604 0.0
H91 H 0.32752 0.45664 0.44359 0.0
H92 H 0.26124 0.32463 0.43735 0.0
H93 H 0.2453 0.3265 0.36976 0.0
H94 H 0.22243 0.45551 0.3215 0.0
H95 H 0.17346 0.45952 0.36089 0.0
H96 H 0.13106 0.33633 0.39658 0.0
H97 H 0.17902 0.33173 0.35543 0.0
H98 H 0.21804 0.45545 0.24307 0.0
H99 H 0.15525 0.44993 0.21261 0.0
H100 H 0.08896 0.32056 0.2338 0.0
H101 H 0.15224 0.32643 0.26369 0.0
H102 H 0.29599 0.47258 0.2114 0.0
H103 H 0.26862 0.48589 0.15273 0.0
H104 H 0.18129 0.3569 0.13672 0.0
H105 H 0.20996 0.3436 0.19525 0.0
H106 H 0.35951 0.4838 0.25772 0.0
H107 H 0.4163 0.50968 0.21585 0.0
H108 H 0.37198 0.38662 0.17479 0.0
H109 H 0.31522 0.36095 0.21715 0.0
O110 O 0.33057 0.42501 0.50655 0.0
O111 O 0.29476 0.35718 0.50219 0.0
O112 O 0.07937 0.41098 0.18833 0.0
O113 O 0.04373 0.34442 0.19883 0.0
C114 C 0.30206 0.40005 0.30337 0.0
C115 C 0.27018 0.39353 0.32676 0.0
C116 C 0.23398 0.39182 0.31104 0.0
C117 C 0.22852 0.39418 0.27173 0.0
C118 C 0.26055 0.4013 0.24836 0.0
C119 C 0.29804 0.40599 0.2644 0.0
C120 C 0.33977 0.40178 0.32095 0.0
C121 C 0.37456 0.43962 0.33158 0.0
C122 C 0.40502 0.44162 0.35756 0.0
C123 C 0.40055 0.4059 0.37388 0.0
C124 C 0.36713 0.3679 0.3614 0.0
C125 C 0.33725 0.36584 0.33467 0.0
C126 C 0.27674 0.39235 0.36823 0.0
C127 C 0.29977 0.42883 0.38948 0.0
C128 C 0.30924 0.42796 0.42798 0.0
C129 C 0.29573 0.39052 0.44587 0.0
C130 C 0.27206 0.35398 0.42447 0.0
C131 C 0.26271 0.35492 0.38595 0.0
C132 C 0.20438 0.3934 0.33574 0.0
C133 C 0.20219 0.42916 0.33741 0.0
C134 C 0.1741 0.43133 0.35967 0.0
C135 C 0.14832 0.39807 0.38134 0.0
C136 C 0.15058 0.36226 0.37989 0.0
C137 C 0.17812 0.35975 0.3568 0.0
C138 C 0.18976 0.39124 0.25516 0.0
C139 C 0.18995 0.42593 0.241 0.0
C140 C 0.15401 0.42271 0.22373 0.0
C141 C 0.1171 0.38474 0.22063 0.0
C142 C 0.11687 0.35021 0.23561 0.0
C143 C 0.15291 0.35348 0.25278 0.0
C144 C 0.25506 0.40713 0.20758 0.0
C145 C 0.27284 0.4469 0.19412 0.0
C146 C 0.25681 0.45449 0.16066 0.0
C147 C 0.22242 0.42243 0.14053 0.0
C148 C 0.20758 0.38213 0.15194 0.0
C149 C 0.22415 0.37448 0.18512 0.0
C150 C 0.33378 0.42047 0.24088 0.0
C151 C 0.36242 0.4624 0.24002 0.0
C152 C 0.39442 0.47718 0.2157 0.0
C153 C 0.39845 0.45022 0.19189 0.0
C154 C 0.36977 0.40809 0.193 0.0
C155 C 0.33749 0.39335 0.21719 0.0
C156 C 0.30683 0.38973 0.48655 0.0
C157 C 0.07903 0.38102 0.20165 0.0
H158 H 0.00263 0.33123 0.0429 0.0
H159 H 0.68142 0.95084 0.77922 0.0
H160 H 0.93442 0.30152 0.80376 0.0
H161 H 0.98272 0.37324 0.81817 0.0
H162 H 0.0675 0.34168 0.87474 0.0
H163 H 0.02006 0.26956 0.85711 0.0
H164 H 0.92478 0.2812 0.89033 0.0
H165 H 0.9545 0.31113 0.95314 0.0
H166 H 0.98548 0.21706 0.97383 0.0
H167 H 0.95621 0.18777 0.91061 0.0
H168 H 0.84928 0.21039 0.89234 0.0
H169 H 0.79857 0.1786 0.93936 0.0
H170 H 0.80732 0.06972 0.93179 0.0
H171 H 0.85939 0.10246 0.88494 0.0
H172 H 0.79071 0.14966 0.8253 0.0
H173 H 0.72384 0.08662 0.81602 0.0
H174 H 0.78594 0.022 0.78632 0.0
H175 H 0.85263 0.08522 0.79606 0.0
H176 H 0.83094 0.20381 0.76088 0.0
H177 H 0.78279 0.17875 0.70521 0.0
H178 H 0.83306 0.10409 0.67303 0.0
H179 H 0.88312 0.1311 0.72845 0.0
H180 H 0.89686 0.25962 0.74119 0.0
H181 H 0.93327 0.30522 0.6912 0.0
H182 H 0.03538 0.28465 0.71395 0.0
H183 H 0.99744 0.23688 0.76339 0.0
O184 O 0.99094 0.31881 0.01819 0.0
O185 O 0.00529 0.2692 0.02778 0.0
O186 O 0.67704 0.01066 0.79922 0.0
O187 O 0.70745 0.97613 0.78338 0.0
C188 C 0.94086 0.23655 0.82494 0.0
C189 C 0.92157 0.21481 0.85725 0.0
C190 C 0.88427 0.1769 0.853 0.0
C191 C 0.86697 0.16027 0.81656 0.0
C192 C 0.88596 0.18215 0.78443 0.0
C193 C 0.92352 0.21967 0.78851 0.0
C194 C 0.97377 0.28022 0.82912 0.0
C195 C 0.96426 0.31011 0.81758 0.0
C196 C 0.99172 0.35113 0.82628 0.0
C197 C 0.02862 0.36308 0.84811 0.0
C198 C 0.03947 0.33347 0.85758 0.0
C199 C 0.01226 0.29224 0.84793 0.0
C200 C 0.93892 0.23267 0.8957 0.0
C201 C 0.93832 0.2673 0.90833 0.0
C202 C 0.95516 0.28424 0.9443 0.0
C203 C 0.97253 0.26659 0.96847 0.0
C204 C 0.97248 0.2315 0.95588 0.0
C205 C 0.95576 0.21468 0.91982 0.0
C206 C 0.85866 0.15908 0.88572 0.0
C207 C 0.84147 0.18025 0.90176 0.0
C208 C 0.81224 0.16191 0.92841 0.0
C209 C 0.79909 0.12173 0.93922 0.0
C210 C 0.81687 0.10069 0.92377 0.0
C211 C 0.84675 0.1194 0.89736 0.0
C212 C 0.82643 0.12181 0.81169 0.0
C213 C 0.78977 0.12175 0.81709 0.0
C214 C 0.75164 0.08576 0.81164 0.0
C215 C 0.74955 0.04923 0.80046 0.0
C216 C 0.78644 0.04954 0.79498 0.0
C217 C 0.82456 0.08556 0.80054 0.0
C218 C 0.86125 0.17018 0.74796 0.0
C219 C 0.83266 0.18323 0.74107 0.0
C220 C 0.80518 0.16887 0.70943 0.0
C221 C 0.8048 0.14004 0.68481 0.0
C222 C 0.83337 0.1268 0.69155 0.0
C223 C 0.86187 0.14218 0.7229 0.0
C224 C 0.94356 0.24336 0.75497 0.0
C225 C 0.92594 0.26294 0.73418 0.0
C226 C 0.94717 0.28962 0.70598 0.0
C227 C 0.98692 0.29806 0.69851 0.0
C228 C 0.00466 0.27842 0.71912 0.0
C229 C 0.98296 0.25102 0.74705 0.0
C230 C 0.99058 0.2848 0.00661 0.0
C231 C 0.70911 0.01095 0.79437 0.0
H232 H 0.70023 0.76573 0.09673 0.0
H233 H 0.73909 0.05887 0.43131 0.0
H234 H 0.61705 0.70741 0.3012 0.0
H235 H 0.61977 0.65374 0.26611 0.0
H236 H 0.75283 0.72422 0.27532 0.0
H237 H 0.75011 0.7769 0.31261 0.0
H238 H 0.63837 0.77049 0.24253 0.0
H239 H 0.65209 0.76128 0.17799 0.0
H240 H 0.7826 0.84366 0.20406 0.0
H241 H 0.76843 0.85213 0.26869 0.0
H242 H 0.63118 0.85671 0.28299 0.0
H243 H 0.63261 0.91185 0.24576 0.0
H244 H 0.76523 0.97076 0.24522 0.0
H245 H 0.7639 0.916 0.28426 0.0
H246 H 0.62437 0.86884 0.36022 0.0
H247 H 0.62903 0.93061 0.38629 0.0
H248 H 0.76216 0.98823 0.39671 0.0
H249 H 0.75696 0.92597 0.37107 0.0
H250 H 0.59588 0.79016 0.39459 0.0
H251 H 0.57575 0.81635 0.44664 0.0
H252 H 0.70346 0.88684 0.48875 0.0
H253 H 0.72335 0.86037 0.43642 0.0
H254 H 0.59013 0.72422 0.35301 0.0
H255 H 0.55194 0.67095 0.3977 0.0
H256 H 0.66461 0.71158 0.46757 0.0
H257 H 0.70276 0.76468 0.42222 0.0
O258 O 0.69546 0.77021 0.12225 0.0
O259 O 0.76213 0.81351 0.13679 0.0
O260 O 0.66784 0.00316 0.41464 0.0
O261 O 0.73639 0.03427 0.42043 0.0
C262 C 0.68232 0.78209 0.32398 0.0
C263 C 0.69414 0.81562 0.2998 0.0
C264 C 0.69543 0.85131 0.3127 0.0
C265 C 0.6874 0.85457 0.35026 0.0
C266 C 0.67409 0.82073 0.3739 0.0
C267 C 0.67002 0.78395 0.3604 0.0
C268 C 0.68336 0.74572 0.3104 0.0
C269 C 0.64677 0.71029 0.29775 0.0
C270 C 0.64836 0.67984 0.27733 0.0
C271 C 0.68652 0.68492 0.26844 0.0
C272 C 0.72313 0.71953 0.28234 0.0
C273 C 0.72154 0.74946 0.30362 0.0
C274 C 0.7024 0.81213 0.26013 0.0
C275 C 0.66986 0.78666 0.23415 0.0
C276 C 0.6778 0.78142 0.19734 0.0
C277 C 0.71845 0.80173 0.18585 0.0
C278 C 0.75093 0.82762 0.21196 0.0
C279 C 0.74294 0.83271 0.2488 0.0
C280 C 0.69737 0.88219 0.28589 0.0
C281 C 0.66055 0.88132 0.27462 0.0
C282 C 0.66142 0.91291 0.25381 0.0
C283 C 0.69906 0.94552 0.24331 0.0
C284 C 0.73596 0.9459 0.25343 0.0
C285 C 0.73517 0.91456 0.27517 0.0
C286 C 0.69032 0.89287 0.36415 0.0
C287 C 0.65449 0.89483 0.36821 0.0
C288 C 0.65725 0.93018 0.38301 0.0
C289 C 0.69599 0.96434 0.3937 0.0
C290 C 0.73186 0.96246 0.38886 0.0
C291 C 0.72902 0.92701 0.37416 0.0
C292 C 0.66108 0.82369 0.41166 0.0
C293 C 0.61922 0.80942 0.41621 0.0
C294 C 0.60778 0.82455 0.44594 0.0
C295 C 0.6382 0.85425 0.47121 0.0
C296 C 0.67953 0.86438 0.46928 0.0
C297 C 0.69091 0.84911 0.43963 0.0
C298 C 0.64949 0.7473 0.38365 0.0
C299 C 0.60687 0.72056 0.37717 0.0
C300 C 0.58499 0.6906 0.40303 0.0
C301 C 0.60523 0.68731 0.43624 0.0
C302 C 0.64812 0.71376 0.44243 0.0
C303 C 0.67008 0.74355 0.4163 0.0
C304 C 0.72683 0.79564 0.14687 0.0
C305 C 0.69905 0.00168 0.41015 0.0
H306 H 0.82503 0.62867 0.55278 0.0
H307 H 0.05176 0.51747 0.8581 0.0
H308 H 0.83512 0.66581 0.74986 0.0
H309 H 0.77681 0.65857 0.70892 0.0
H310 H 0.69736 0.54172 0.75694 0.0
H311 H 0.75587 0.5482 0.79641 0.0
H312 H 0.89969 0.65374 0.70678 0.0
H313 H 0.87898 0.65387 0.64013 0.0
H314 H 0.76609 0.53936 0.65326 0.0
H315 H 0.78725 0.53953 0.71973 0.0
H316 H 0.96989 0.62943 0.74826 0.0
H317 H -0.00033 0.60857 0.70026 0.0
H318 H 0.87889 0.50381 0.67081 0.0
H319 H 0.85105 0.52238 0.72185 0.0
H320 H 0.97974 0.64526 0.8344 0.0
H321 H 0.03548 0.63295 0.85594 0.0
H322 H 0.95768 0.50522 0.8241 0.0
H323 H 0.90189 0.51786 0.80328 0.0
H324 H 0.93027 0.65671 0.88542 0.0
H325 H 0.96958 0.65085 0.94033 0.0
H326 H 0.8986 0.51942 0.92709 0.0
H327 H 0.85987 0.52563 0.87255 0.0
H328 H 0.83624 0.66441 0.84707 0.0
H329 H 0.7948 0.66505 0.89795 0.0
H330 H 0.75913 0.54017 0.92172 0.0
H331 H 0.79918 0.53932 0.87062 0.0
O332 O 0.8328 0.62785 0.57911 0.0
O333 O 0.77489 0.56939 0.58758 0.0
O334 O 0.06668 0.58771 0.87041 0.0
O335 O 0.02998 0.52295 0.85016 0.0
C336 C 0.83627 0.60339 0.78723 0.0
C337 C 0.85748 0.59708 0.75867 0.0
C338 C 0.88982 0.58936 0.76842 0.0
C339 C 0.90222 0.58971 0.8067 0.0
C340 C 0.88049 0.59499 0.83525 0.0
C341 C 0.84701 0.60118 0.82567 0.0
C342 C 0.79984 0.60726 0.77569 0.0
C343 C 0.80472 0.63951 0.75274 0.0
C344 C 0.77157 0.63525 0.72921 0.0
C345 C 0.73295 0.59934 0.72948 0.0
C346 C 0.72687 0.56974 0.7563 0.0
C347 C 0.76022 0.57355 0.77914 0.0
C348 C 0.84478 0.59688 0.71814 0.0
C349 C 0.87051 0.62874 0.69516 0.0
C350 C 0.8586 0.62872 0.65713 0.0
C351 C 0.8208 0.59669 0.6414 0.0
C352 C 0.79534 0.56454 0.66449 0.0
C353 C 0.80724 0.56467 0.7025 0.0
C354 C 0.90824 0.57757 0.73853 0.0
C355 C 0.95012 0.60167 0.73172 0.0
C356 C 0.96691 0.58994 0.70369 0.0
C357 C 0.94184 0.55442 0.68106 0.0
C358 C 0.89967 0.5308 0.68785 0.0
C359 C 0.88336 0.54178 0.71671 0.0
C360 C 0.93683 0.58246 0.81732 0.0
C361 C 0.97485 0.61467 0.83204 0.0
C362 C 0.0066 0.60754 0.84435 0.0
C363 C 0.001 0.56806 0.84181 0.0
C364 C 0.96301 0.53597 0.82646 0.0
C365 C 0.93117 0.54311 0.81439 0.0
C366 C 0.89239 0.5916 0.87505 0.0
C367 C 0.9219 0.6267 0.89562 0.0
C368 C 0.94454 0.62329 0.92669 0.0
C369 C 0.93754 0.58469 0.93763 0.0
C370 C 0.90454 0.54954 0.9196 0.0
C371 C 0.88224 0.553 0.88844 0.0
C372 C 0.82152 0.60209 0.85567 0.0
C373 C 0.81933 0.63721 0.86324 0.0
C374 C 0.79567 0.63753 0.89217 0.0
C375 C 0.77435 0.60288 0.91412 0.0
C376 C 0.77596 0.5676 0.9058 0.0
C377 C 0.79897 0.56712 0.87671 0.0
C378 C 0.80799 0.59698 0.60111 0.0
C379 C 0.03459 0.56032 0.85507 0.0
H380 H 0.31078 0.91673 0.53748 0.0
H381 H 0.12965 0.53148 0.28807 0.0
H382 H 0.32275 0.90981 0.3424 0.0
H383 H 0.37847 0.97016 0.37679 0.0
H384 H 0.46423 0.93055 0.35274 0.0
H385 H 0.40848 0.86978 0.32011 0.0
H386 H 0.25244 0.83634 0.38846 0.0
H387 H 0.26555 0.86911 0.45083 0.0
H388 H 0.38482 0.87753 0.46184 0.0
H389 H 0.37114 0.8444 0.39967 0.0
H390 H 0.19097 0.73475 0.35701 0.0
H391 H 0.15781 0.68566 0.40595 0.0
H392 H 0.27811 0.71693 0.45701 0.0
H393 H 0.31038 0.762 0.40538 0.0
H394 H 0.19253 0.72893 0.26682 0.0
H395 H 0.14084 0.6571 0.25359 0.0
H396 H 0.2164 0.62115 0.321 0.0
H397 H 0.26807 0.69309 0.33359 0.0
H398 H 0.25703 0.79726 0.21318 0.0
H399 H 0.23809 0.75788 0.15345 0.0
H400 H 0.2885 0.68584 0.20066 0.0
H401 H 0.30747 0.72532 0.25997 0.0
H402 H 0.32846 0.89146 0.2482 0.0
H403 H 0.37669 0.92974 0.19987 0.0
H404 H 0.42294 0.84609 0.20644 0.0
H405 H 0.37512 0.80842 0.25468 0.0
O406 O 0.30599 0.90333 0.51311 0.0
O407 O 0.36744 0.90787 0.51688 0.0
O408 O 0.11193 0.58022 0.25845 0.0
O409 O 0.14952 0.56012 0.29293 0.0
C410 C 0.32673 0.84294 0.32101 0.0
C411 C 0.30328 0.81953 0.35101 0.0
C412 C 0.27341 0.7778 0.34491 0.0
C413 C 0.26565 0.75992 0.30837 0.0
C414 C 0.28922 0.78325 0.27855 0.0
C415 C 0.32024 0.82447 0.28496 0.0
C416 C 0.36146 0.88513 0.32923 0.0
C417 C 0.35392 0.91506 0.34328 0.0
C418 C 0.38566 0.94944 0.36287 0.0
C419 C 0.42544 0.9547 0.3676 0.0
C420 C 0.43393 0.92741 0.3492 0.0
C421 C 0.40206 0.89265 0.33043 0.0
C422 C 0.31097 0.83834 0.38942 0.0
C423 C 0.28129 0.84515 0.40448 0.0
C424 C 0.28891 0.86394 0.44007 0.0
C425 C 0.32633 0.87613 0.46125 0.0
C426 C 0.35574 0.86865 0.44624 0.0
C427 C 0.34807 0.84986 0.41069 0.0
C428 C 0.25311 0.75192 0.37743 0.0
C429 C 0.21006 0.73084 0.37878 0.0
C430 C 0.19119 0.70312 0.40726 0.0
C431 C 0.21509 0.69683 0.43576 0.0
C432 C 0.25841 0.71984 0.43525 0.0
C433 C 0.27709 0.7464 0.40605 0.0
C434 C 0.23389 0.71619 0.30134 0.0
C435 C 0.1978 0.70548 0.27872 0.0
C436 C 0.16835 0.66444 0.27123 0.0
C437 C 0.17447 0.63336 0.28629 0.0
C438 C 0.21068 0.64428 0.30901 0.0
C439 C 0.24017 0.68534 0.31637 0.0
C440 C 0.2828 0.76348 0.24099 0.0
C441 C 0.26469 0.77351 0.21025 0.0
C442 C 0.25419 0.75127 0.1762 0.0
C443 C 0.2616 0.71871 0.17272 0.0
C444 C 0.28215 0.71058 0.20283 0.0
C445 C 0.29281 0.7329 0.23665 0.0
C446 C 0.34815 0.84707 0.25475 0.0
C447 C 0.34889 0.88138 0.23898 0.0
C448 C 0.37637 0.90312 0.21145 0.0
C449 C 0.40336 0.8907 0.19921 0.0
C450 C 0.40199 0.85592 0.21472 0.0
C451 C 0.37481 0.83447 0.24237 0.0
C452 C 0.33463 0.89671 0.49876 0.0
C453 C 0.14334 0.58971 0.27831 0.0
H454 H 0.4631 0.29179 0.58862 0.0
H455 H 0.4784 0.98757 0.89395 0.0
H456 H 0.5425 0.32659 0.81036 0.0
H457 H 0.54334 0.37918 0.76986 0.0
H458 H 0.41085 0.30704 0.75045 0.0
H459 H 0.41008 0.25467 0.79175 0.0
H460 H 0.52624 0.27831 0.73915 0.0
H461 H 0.51187 0.29228 0.67444 0.0
H462 H 0.38534 0.19403 0.67793 0.0
H463 H 0.40016 0.18047 0.74279 0.0
H464 H 0.54143 0.21434 0.75036 0.0
H465 H 0.55216 0.17638 0.70179 0.0
H466 H 0.43361 0.07038 0.72042 0.0
H467 H 0.42334 0.10897 0.76967 0.0
H468 H 0.55387 0.1745 0.82532 0.0
H469 H 0.56318 0.11692 0.84256 0.0
H470 H 0.43768 0.05042 0.8765 0.0
H471 H 0.4288 0.10814 0.85891 0.0
H472 H 0.57062 0.23684 0.88843 0.0
H473 H 0.59283 0.21602 0.94629 0.0
H474 H 0.46592 0.14521 0.97522 0.0
H475 H 0.444 0.1669 0.9174 0.0
H476 H 0.56723 0.3015 0.87465 0.0
H477 H 0.58978 0.3504 0.92766 0.0
H478 H 0.46234 0.30699 0.94863 0.0
H479 H 0.44001 0.25765 0.8955 0.0
O480 O 0.46825 0.28519 0.61398 0.0
O481 O 0.40418 0.23281 0.61627 0.0
O482 O 0.53958 0.04584 0.86824 0.0
O483 O 0.47544 0.01058 0.88649 0.0
C484 C 0.47788 0.24957 0.81461 0.0
C485 C 0.47243 0.22149 0.78562 0.0
C486 C 0.47744 0.18785 0.79408 0.0
C487 C 0.48558 0.18077 0.8317 0.0
C488 C 0.49211 0.20917 0.86051 0.0
C489 C 0.48935 0.24413 0.85186 0.0
C490 C 0.47626 0.28669 0.80397 0.0
C491 C 0.51339 0.32311 0.79925 0.0
C492 C 0.51387 0.35288 0.77563 0.0
C493 C 0.47723 0.34667 0.75644 0.0
C494 C 0.43948 0.31258 0.76492 0.0
C495 C 0.43901 0.28275 0.78865 0.0
C496 C 0.46409 0.22871 0.74573 0.0
C497 C 0.49542 0.25991 0.7259 0.0
C498 C 0.48713 0.26781 0.68895 0.0
C499 C 0.44736 0.24452 0.67112 0.0
C500 C 0.41625 0.21268 0.69089 0.0
C501 C 0.42462 0.2048 0.72787 0.0
C502 C 0.48146 0.16448 0.76315 0.0
C503 C 0.51748 0.18312 0.74353 0.0
C504 C 0.52347 0.1614 0.71572 0.0
C505 C 0.49355 0.12047 0.70702 0.0
C506 C 0.45724 0.10183 0.72663 0.0
C507 C 0.45122 0.12377 0.75455 0.0
C508 C 0.49063 0.14527 0.84074 0.0
C509 C 0.52839 0.14731 0.83622 0.0
C510 C 0.53363 0.11446 0.84619 0.0
C511 C 0.50116 0.07905 0.86096 0.0
C512 C 0.46329 0.07718 0.86523 0.0
C513 C 0.45809 0.11003 0.85516 0.0
C514 C 0.50578 0.20365 0.899 0.0
C515 C 0.54782 0.21817 0.90802 0.0
C516 C 0.56043 0.20624 0.94104 0.0
C517 C 0.53107 0.17899 0.96517 0.0
C518 C 0.48914 0.16624 0.95704 0.0
C519 C 0.4766 0.17868 0.92423 0.0
C520 C 0.50206 0.27623 0.88134 0.0
C521 C 0.54422 0.3027 0.89064 0.0
C522 C 0.55701 0.33025 0.92108 0.0
C523 C 0.5278 0.33208 0.94251 0.0
C524 C 0.48547 0.30615 0.93254 0.0
C525 C 0.47268 0.27821 0.90221 0.0
C526 C 0.43848 0.25364 0.63215 0.0
C527 C 0.50671 0.04426 0.87204 0.0
C528 C 0.19644 0.47739 0.06471 0.0
C529 C 0.15465 0.46323 0.07029 0.0
H530 H 0.2507 0.47501 0.08231 0.0
C531 C 0.13415 0.43148 0.0954 0.0
H532 H 0.2131 0.50163 0.04535 0.0
C533 C 0.15569 0.41597 0.1162 0.0
C534 C 0.19815 0.43216 0.11248 0.0
H535 H 0.10193 0.41973 0.10015 0.0
H536 H 0.13969 0.39312 0.13691 0.0
C537 C 0.21803 0.46215 0.08577 0.0
C538 C 0.72958 0.12924 0.60448 0.0
C539 C 0.69949 0.08775 0.60634 0.0
H540 H 0.78709 0.17845 0.62824 0.0
C541 C 0.7067 0.06283 0.63137 0.0
H542 H 0.72486 0.1491 0.58537 0.0
C543 C 0.74265 0.07944 0.65517 0.0
C544 C 0.77158 0.1213 0.65467 0.0
H545 H 0.6842 0.03064 0.63309 0.0
H546 H 0.74681 0.06005 0.67534 0.0
C547 C 0.76517 0.14598 0.62879 0.0
C548 C 0.69349 0.64527 0.17428 0.0
C549 C 0.67567 0.60329 0.18049 0.0
H550 H 0.71188 0.70424 0.19804 0.0
C551 C 0.66613 0.58893 0.21719 0.0
H552 H 0.70072 0.65695 0.14616 0.0
C553 C 0.67144 0.61583 0.24664 0.0
C554 C 0.68753 0.65749 0.2399 0.0
H555 H 0.65168 0.55658 0.22249 0.0
H556 H 0.66146 0.60392 0.27423 0.0
C557 C 0.69985 0.67224 0.20386 0.0
C558 C 0.01228 0.55827 0.60637 0.0
C559 C 0.99525 0.51681 0.59712 0.0
H560 H 0.00768 0.603 0.6383 0.0
C561 C 0.95999 0.48775 0.61426 0.0
H562 H 0.03971 0.58109 0.59344 0.0
C563 C 0.94269 0.4999 0.64139 0.0
C564 C 0.95961 0.54158 0.65114 0.0
H565 H 0.94699 0.45549 0.60799 0.0
H566 H 0.91686 0.47629 0.65546 0.0
C567 C 0.99421 0.57064 0.63256 0.0
C568 C 0.47686 0.91975 0.12095 0.0
C569 C 0.50172 0.96212 0.12733 0.0
H570 H 0.42582 0.8638 0.13863 0.0
C571 C 0.49175 0.98104 0.15536 0.0
H572 H 0.48371 0.90432 0.09951 0.0
C573 C 0.45871 0.95797 0.17759 0.0
C574 C 0.435 0.9154 0.17244 0.0
H575 H 0.51013 0.01369 0.16085 0.0
H576 H 0.45288 0.97332 0.1999 0.0
C577 C 0.4439 0.89657 0.14345 0.0
C578 C 0.45806 0.4125 0.68599 0.0
C579 C 0.48606 0.418 0.65881 0.0
H580 H 0.43306 0.38531 0.73855 0.0
C581 C 0.50963 0.39881 0.66375 0.0
H582 H 0.43951 0.42691 0.68304 0.0
C583 C 0.50659 0.3761 0.69554 0.0
C584 C 0.47954 0.37138 0.72318 0.0
H585 H 0.53144 0.40212 0.64349 0.0
H586 H 0.52556 0.36211 0.6985 0.0
C587 C 0.45452 0.38896 0.71779 0.0
C588 C 0.63985 0.94833 0.50618 0.0
C589 C 0.60333 0.93172 0.52515 0.0
H590 H 0.67972 0.93674 0.47503 0.0
C591 C 0.58 0.88924 0.52936 0.0
H592 H 0.6587 0.98098 0.50274 0.0
C593 C 0.59213 0.86371 0.51331 0.0
C594 C 0.62814 0.88041 0.49349 0.0
H595 H 0.55177 0.87566 0.54398 0.0
H596 H 0.57297 0.83095 0.51566 0.0
C597 C 0.65222 0.92299 0.49072 0.0
C598 C 0.69425 0.60821 0.97032 0.0
C599 C 0.69805 0.59086 0.0044 0.0
H600 H 0.71577 0.62585 0.91476 0.0
C601 C 0.73018 0.58216 0.00974 0.0
H602 H 0.66984 0.61525 0.96529 0.0
C603 C 0.75602 0.58792 0.98093 0.0
C604 C 0.75067 0.60282 0.94607 0.0
H605 H 0.7344 0.56919 0.03571 0.0
H606 H 0.77949 0.5795 0.98551 0.0
C607 C 0.7205 0.61427 0.9414 0.0
C608 C 0.19359 0.61045 0.50272 0.0
C609 C 0.15331 0.59801 0.51192 0.0
H610 H 0.24391 0.64984 0.47023 0.0
C611 C 0.13462 0.6201 0.49873 0.0
H612 H 0.20834 0.59342 0.51217 0.0
C613 C 0.15548 0.65353 0.47574 0.0
C614 C 0.19497 0.6647 0.46431 0.0
H615 H 0.10353 0.61105 0.50572 0.0
H616 H 0.14014 0.66998 0.46637 0.0
C617 C 0.214 0.64305 0.47873 0.0
C618 C 0.5935 0.16326 0.04455 0.0
C619 C 0.57394 0.12045 0.04427 0.0
H620 H 0.5952 0.21569 0.01935 0.0
C621 C 0.53805 0.09744 0.02059 0.0
H622 H 0.62126 0.18171 0.06247 0.0
C623 C 0.52293 0.11672 0.99652 0.0
C624 C 0.54363 0.15947 0.99523 0.0
H625 H 0.52216 0.06438 0.01993 0.0
H626 H 0.49621 0.09808 0.97748 0.0
C627 C 0.57869 0.18265 0.01988 0.0
C628 C 0.43276 0.40719 0.47636 0.0
C629 C 0.476 0.42904 0.47602 0.0
H630 H 0.37498 0.38171 0.44368 0.0
C631 C 0.49429 0.43864 0.44125 0.0
H632 H 0.41796 0.39979 0.50281 0.0
C633 C 0.4697 0.42931 0.40748 0.0
C634 C 0.42654 0.40915 0.40804 0.0
H635 H 0.52757 0.45609 0.44028 0.0
H636 H 0.48437 0.43931 0.38109 0.0
C637 C 0.40823 0.39686 0.44261 0.0
C638 C 0.04795 0.45389 0.90657 0.0
C639 C 0.09088 0.47453 0.91378 0.0
H640 H 0.99488 0.40278 0.88025 0.0
C641 C 0.11437 0.46158 0.89524 0.0
H642 H 0.02925 0.46329 0.92076 0.0
C643 C 0.09453 0.42629 0.87195 0.0
C644 C 0.05115 0.40417 0.86662 0.0
H645 H 0.14754 0.47684 0.90092 0.0
H646 H 0.11285 0.41537 0.85944 0.0
C647 C 0.02832 0.41928 0.88315 0.0
C648 C 0.03939 0.59523 0.97158 0.0
C649 C 0.02699 0.56264 0.99637 0.0
H650 H 0.02077 0.62793 0.93394 0.0
C651 C 0.9856 0.54097 0.00579 0.0
H652 H 0.07107 0.61268 0.96384 0.0
C653 C 0.95666 0.54989 0.98866 0.0
C654 C 0.9687 0.58088 0.96212 0.0
H655 H 0.97511 0.51579 0.02491 0.0
H656 H 0.92456 0.53143 0.99493 0.0
C657 C 0.01059 0.60429 0.95471 0.0
C658 C 0.47131 0.99387 0.4654 0.0
C659 C 0.51362 0.01595 0.45954 0.0
H660 H 0.40997 0.95853 0.44025 0.0
C661 C 0.52634 0.02372 0.42253 0.0
H662 H 0.46077 0.98775 0.49369 0.0
C663 C 0.49725 0.00637 0.39187 0.0
C664 C 0.45508 0.982 0.39789 0.0
H665 H 0.55886 0.04064 0.41735 0.0
H666 H 0.5078 0.01009 0.36364 0.0
C667 C 0.44226 0.97746 0.43481 0.0
C668 C 0.58954 0.39864 0.02826 0.0
C669 C 0.57348 0.42484 0.03008 0.0
H670 H 0.58753 0.34847 -0.00117 0.0
C671 C 0.54031 0.41825 0.00477 0.0
H672 H 0.61509 0.40302 0.04739 0.0
C673 C 0.52449 0.38711 0.97728 0.0
C674 C 0.54176 0.36212 0.97424 0.0
H675 H 0.52707 0.43779 0.00564 0.0
H676 H 0.49983 0.38366 0.95742 0.0
C677 C 0.57397 0.36768 0.00037 0.0
C678 C 0.0764 0.4283 0.42147 0.0
C679 C 0.08399 0.42571 0.46025 0.0
H680 H 0.09145 0.42165 0.36564 0.0
C681 C 0.10856 0.4091 0.47243 0.0
H682 H 0.05773 0.44121 0.41145 0.0
C683 C 0.1271 0.39728 0.44638 0.0
C684 C 0.12203 0.40266 0.40777 0.0
H685 H 0.1147 0.40665 0.50224 0.0
H686 H 0.14746 0.38635 0.45658 0.0
C687 C 0.09574 0.4173 0.39538 0.0
C688 C 0.69754 0.0464 0.97942 0.0
C689 C 0.6978 0.06857 0.01105 0.0
H690 H 0.72979 0.04589 0.9318 0.0
C691 C 0.73288 0.10688 0.02018 0.0
H692 H 0.67106 0.01672 0.97176 0.0
C693 C 0.76632 0.1233 0.99759 0.0
C694 C 0.7656 0.10183 0.96534 0.0
H695 H 0.73438 0.12466 0.04456 0.0
H696 H 0.7926 0.15319 0.00505 0.0
C697 C 0.73124 0.0629 0.95676 0.0
C698 C 0.53481 0.5849 0.47769 0.0
C699 C 0.54333 0.594 0.51651 0.0
H700 H 0.54777 0.60735 0.42187 0.0
C701 C 0.56952 0.63453 0.52908 0.0
H702 H 0.51549 0.55356 0.46751 0.0
C703 C 0.58872 0.66532 0.50296 0.0
C704 C 0.58176 0.65589 0.464 0.0
H705 H 0.5773 0.6419 0.55894 0.0
H706 H 0.60997 0.69625 0.51322 0.0
C707 C 0.55354 0.6156 0.45165 0.0
C708 C 0.53293 0.0963 0.62118 0.0
C709 C 0.52624 0.05718 0.62908 0.0
H710 H 0.52673 0.14645 0.63906 0.0
C711 C 0.50546 0.03754 0.6612 0.0
H712 H 0.54838 0.11205 0.59641 0.0
C713 C 0.49332 0.05745 0.68585 0.0
C714 C 0.50161 0.09728 0.67874 0.0
H715 H 0.49977 0.00734 0.66801 0.0
H716 H 0.47904 0.04231 0.71125 0.0
C717 C 0.52062 0.11606 0.64567 0.0
C718 C 0.48018 0.51758 0.12507 0.0
C719 C 0.50405 0.49868 0.12477 0.0
H720 H 0.4278 0.51698 0.14669 0.0
C721 C 0.49151 0.46264 0.14491 0.0
H722 H 0.48908 0.54535 0.10985 0.0
C723 C 0.45662 0.44641 0.16571 0.0
C724 C 0.43351 0.46596 0.16718 0.0
H725 H 0.50906 0.44713 0.14509 0.0
H726 H 0.44854 0.41925 0.18169 0.0
C727 C 0.44533 0.50149 0.14633 0.0
C728 C 0.0093 0.36148 0.61184 0.0
C729 C 0.04793 0.39573 0.62255 0.0
H730 H 0.96015 0.3034 0.62733 0.0
C731 C 0.06866 0.39533 0.65669 0.0
H732 H 0.99271 0.36047 0.58548 0.0
C733 C 0.04987 0.36227 0.68066 0.0
C734 C 0.01013 0.32932 0.67079 0.0
H735 H 0.09852 0.42119 0.66561 0.0
H736 H 0.06541 0.3635 0.70773 0.0
C737 C 0.9906 0.3287 0.63572 0.0
C738 C 0.67475 0.02614 0.21084 0.0
C739 C 0.67821 0.0246 0.17189 0.0
H740 H 0.6786 0.00136 0.26446 0.0
C741 C 0.69491 0.00193 0.15777 0.0
H742 H 0.66156 0.04306 0.22225 0.0
C743 C 0.7054 0.97893 0.18188 0.0
C744 C 0.69857 0.97767 0.22027 0.0
H745 H 0.69781 0.00033 0.12777 0.0
H746 H 0.71591 0.95978 0.1701 0.0
C747 C 0.68438 0.00232 0.23487 0.0
C748 C 0.62936 0.55771 0.67595 0.0
C749 C 0.63951 0.5555 0.63892 0.0
H750 H 0.65127 0.57337 0.73397 0.0
C751 C 0.68109 0.57194 0.63146 0.0
H752 H 0.59748 0.54514 0.68252 0.0
C753 C 0.71186 0.58917 0.66079 0.0
C754 C 0.70142 0.58912 0.69813 0.0
H755 H 0.68972 0.57086 0.60314 0.0
H756 H 0.74363 0.60064 0.65456 0.0
C757 C 0.66001 0.57388 0.70539 0.0
C758 C 0.19758 0.62013 0.11727 0.0
C759 C 0.20099 0.63327 0.07994 0.0
H760 H 0.2143 0.63694 0.17554 0.0
C761 C 0.22648 0.67489 0.07278 0.0
H762 H 0.17838 0.58817 0.12361 0.0
C763 C 0.24697 0.7031 0.10286 0.0
C764 C 0.2429 0.68973 0.1402 0.0
H765 H 0.22947 0.68569 0.04421 0.0
H766 H 0.26568 0.73524 0.09705 0.0
C767 C 0.21843 0.64798 0.14701 0.0
loop_
_geom_bond_atom_site_label_1
_geom_bond_atom_site_label_2
_geom_bond_distance
_geom_bond_site_symmetry_2
_ccdc_geom_bond_type
C0 O2 1.247 . S
C0 O4 1.258 . S
C1 O8 1.247 . S
C1 O9 1.258 . S
O2 C0 1.247 . S
O2 Zn3 2.028 . S
Zn3 O2 2.028 . S
Zn3 O7 2.035 1_554 S
Zn3 O9 2.035 1_554 S
Zn3 O10 2.028 . S
O4 C0 1.258 . S
O4 Zn5 2.035 1_554 S
Zn5 O4 2.035 1_556 S
Zn5 O6 2.028 . S
Zn5 O8 2.028 . S
Zn5 O11 2.035 1_556 S
O6 Zn5 2.028 . S
O6 C12 1.247 . S
O7 Zn3 2.035 1_556 S
O7 C12 1.258 . S
O8 C1 1.247 . S
O8 Zn5 2.028 . S
O9 C1 1.258 . S
O9 Zn3 2.035 1_556 S
O10 Zn3 2.028 . S
O10 C13 1.247 . S
O11 Zn5 2.035 1_554 S
O11 C13 1.258 . S
C12 O6 1.247 . S
C12 O7 1.258 . S
C13 O10 1.247 . S
C13 O11 1.258 . S
C14 O16 1.247 1_545 S
C14 O18 1.258 . S
C15 O22 1.247 1_565 S
C15 O23 1.258 . S
O16 C14 1.247 1_565 S
O16 Zn17 2.028 . S
Zn17 O16 2.028 . S
Zn17 O21 2.035 . S
Zn17 O23 2.035 . S
Zn17 O24 2.028 . S
O18 C14 1.258 . S
O18 Zn19 2.035 . S
Zn19 O18 2.035 . S
Zn19 O20 2.028 . S
Zn19 O22 2.028 . S
Zn19 O25 2.035 . S
O20 Zn19 2.028 . S
O20 C26 1.247 1_545 S
O21 Zn17 2.035 . S
O21 C26 1.258 . S
O22 C15 1.247 1_545 S
O22 Zn19 2.028 . S
O23 C15 1.258 . S
O23 Zn17 2.035 . S
O24 Zn17 2.028 . S
O24 C27 1.247 1_565 S
O25 Zn19 2.035 . S
O25 C27 1.258 . S
C26 O20 1.247 1_565 S
C26 O21 1.258 . S
C27 O24 1.247 1_545 S
C27 O25 1.258 . S
C28 O30 1.247 . S
C28 O32 1.258 . S
C29 O36 1.247 . S
C29 O37 1.258 . S
O30 C28 1.247 . S
O30 Zn31 2.028 . S
Zn31 O30 2.028 . S
Zn31 O35 2.035 . S
Zn31 O37 2.035 . S
Zn31 O38 2.028 . S
O32 C28 1.258 . S
O32 Zn33 2.035 . S
Zn33 O32 2.035 . S
Zn33 O34 2.028 . S
Zn33 O36 2.028 . S
Zn33 O39 2.035 . S
O34 Zn33 2.028 . S
O34 C40 1.247 . S
O35 Zn31 2.035 . S
O35 C40 1.258 . S
O36 C29 1.247 . S
O36 Zn33 2.028 . S
O37 C29 1.258 . S
O37 Zn31 2.035 . S
O38 Zn31 2.028 . S
O38 C41 1.247 . S
O39 Zn33 2.035 . S
O39 C41 1.258 . S
C40 O34 1.247 . S
C40 O35 1.258 . S
C41 O38 1.247 . S
C41 O39 1.258 . S
C42 O44 1.247 . S
C42 O46 1.258 1_455 S
C43 O50 1.247 . S
C43 O51 1.258 1_655 S
O44 C42 1.247 . S
O44 Zn45 2.028 . S
Zn45 O44 2.028 . S
Zn45 O49 2.035 . S
Zn45 O51 2.035 . S
Zn45 O52 2.028 . S
O46 C42 1.258 1_655 S
O46 Zn47 2.035 . S
Zn47 O46 2.035 . S
Zn47 O48 2.028 . S
Zn47 O50 2.028 . S
Zn47 O53 2.042 . S
O48 Zn47 2.028 . S
O48 C54 1.247 . S
O49 Zn45 2.035 . S
O49 C54 1.258 1_455 S
O50 C43 1.247 . S
O50 Zn47 2.028 . S
O51 C43 1.258 1_455 S
O51 Zn45 2.035 . S
O52 Zn45 2.028 . S
O52 C55 1.247 . S
O53 Zn47 2.042 . S
O53 C55 1.251 1_655 S
C54 O48 1.247 . S
C54 O49 1.258 1_655 S
C55 O52 1.247 . S
C55 O53 1.251 1_455 S
C56 O58 1.247 . S
C56 O60 1.258 . S
C57 O64 1.247 . S
C57 O65 1.258 . S
O58 C56 1.247 . S
O58 Zn59 2.028 . S
Zn59 O58 2.028 . S
Zn59 O63 2.035 . S
Zn59 O65 2.035 . S
Zn59 O66 2.028 . S
O60 C56 1.258 . S
O60 Zn61 2.035 . S
Zn61 O60 2.035 . S
Zn61 O62 2.028 . S
Zn61 O64 2.028 . S
Zn61 O67 2.035 . S
O62 Zn61 2.028 . S
O62 C68 1.247 . S
O63 Zn59 2.035 . S
O63 C68 1.258 . S
O64 C57 1.247 . S
O64 Zn61 2.028 . S
O65 C57 1.258 . S
O65 Zn59 2.035 . S
O66 Zn59 2.028 . S
O66 C69 1.247 . S
O67 Zn61 2.035 . S
O67 C69 1.258 . S
C68 O62 1.247 . S
C68 O63 1.258 . S
C69 O66 1.247 . S
C69 O67 1.258 . S
C70 O72 1.247 . S
C70 O74 1.258 . S
C71 O78 1.247 . S
C71 O79 1.258 . S
O72 C70 1.247 . S
O72 Zn73 2.028 . S
Zn73 O72 2.028 . S
Zn73 O77 2.035 . S
Zn73 O79 2.035 . S
Zn73 O80 2.028 . S
O74 C70 1.258 . S
O74 Zn75 2.035 . S
Zn75 O74 2.035 . S
Zn75 O76 2.028 . S
Zn75 O78 2.028 . S
Zn75 O81 2.035 . S
O76 Zn75 2.028 . S
O76 C82 1.247 . S
O77 Zn73 2.035 . S
O77 C82 1.258 . S
O78 C71 1.247 . S
O78 Zn75 2.028 . S
O79 C71 1.258 . S
O79 Zn73 2.035 . S
O80 Zn73 2.028 . S
O80 C83 1.247 . S
O81 Zn75 2.035 . S
O81 C83 1.258 . S
C82 O76 1.247 . S
C82 O77 1.258 . S
C83 O80 1.247 . S
C83 O81 1.258 . S
H84 O110 0.856 . S
H85 O113 0.854 . S
H86 C121 0.930 . S
H87 C122 0.930 . S
H88 C124 0.930 . S
H89 C125 0.930 . S
H90 C127 0.931 . S
H91 C128 0.930 . S
H92 C130 0.930 . S
H93 C131 0.929 . S
H94 C133 0.930 . S
H95 C134 0.931 . S
H96 C136 0.930 . S
H97 C137 0.929 . S
H98 C139 0.931 . S
H99 C140 0.930 . S
H100 C142 0.930 . S
H101 C143 0.932 . S
H102 C145 0.930 . S
H103 C146 0.929 . S
H104 C148 0.931 . S
H105 C149 0.930 . S
H106 C151 0.929 . S
H107 C152 0.931 . S
H108 C154 0.930 . S
H109 C155 0.929 . S
O110 H84 0.856 . S
O110 C156 1.300 . S
O111 C156 1.209 . S
O112 C157 1.199 . S
O113 H85 0.854 . S
O113 C157 1.297 . S
C114 C115 1.404 . S
C114 C119 1.397 . S
C114 C120 1.492 . S
C115 C114 1.404 . S
C115 C116 1.396 . S
C115 C126 1.492 . S
C116 C115 1.396 . S
C116 C117 1.397 . S
C116 C132 1.509 . S
C117 C116 1.397 . S
C117 C118 1.412 . S
C117 C138 1.485 . S
C118 C117 1.412 . S
C118 C119 1.388 . S
C118 C144 1.490 . S
C119 C114 1.397 . S
C119 C118 1.388 . S
C119 C150 1.519 . S
C120 C114 1.492 . S
C120 C121 1.363 . S
C120 C125 1.390 . S
C121 H86 0.930 . S
C121 C120 1.363 . S
C121 C122 1.372 . S
C122 H87 0.930 . S
C122 C121 1.372 . S
C122 C123 1.383 . S
C123 C122 1.383 . S
C123 C124 1.395 . S
C124 H88 0.930 . S
C124 C123 1.395 . S
C124 C125 1.362 . S
C125 H89 0.930 . S
C125 C120 1.390 . S
C125 C124 1.362 . S
C126 C115 1.492 . S
C126 C127 1.377 . S
C126 C131 1.397 . S
C127 H90 0.931 . S
C127 C126 1.377 . S
C127 C128 1.376 . S
C128 H91 0.930 . S
C128 C127 1.376 . S
C128 C129 1.376 . S
C129 C128 1.376 . S
C129 C130 1.378 . S
C129 C156 1.486 . S
C130 H92 0.930 . S
C130 C129 1.378 . S
C130 C131 1.376 . S
C131 H93 0.929 . S
C131 C126 1.397 . S
C131 C130 1.376 . S
C132 C116 1.509 . S
C132 C133 1.391 . S
C132 C137 1.386 . S
C133 H94 0.930 . S
C133 C132 1.391 . S
C133 C134 1.375 . S
C134 H95 0.931 . S
C134 C133 1.375 . S
C134 C135 1.375 . S
C135 C134 1.375 . S
C135 C136 1.361 . S
C136 H96 0.930 . S
C136 C135 1.361 . S
C136 C137 1.399 . S
C137 H97 0.929 . S
C137 C132 1.386 . S
C137 C136 1.399 . S
C138 C117 1.485 . S
C138 C139 1.394 . S
C138 C143 1.360 . S
C139 H98 0.931 . S
C139 C138 1.394 . S
C139 C140 1.372 . S
C140 H99 0.930 . S
C140 C139 1.372 . S
C140 C141 1.397 . S
C141 C140 1.397 . S
C141 C142 1.390 . S
C141 C157 1.476 . S
C142 H100 0.930 . S
C142 C141 1.390 . S
C142 C143 1.366 . S
C143 H101 0.932 . S
C143 C138 1.360 . S
C143 C142 1.366 . S
C144 C118 1.490 . S
C144 C145 1.380 . S
C144 C149 1.386 . S
C145 H102 0.930 . S
C145 C144 1.380 . S
C145 C146 1.381 . S
C146 H103 0.929 . S
C146 C145 1.381 . S
C146 C147 1.371 . S
C147 C146 1.371 . S
C147 C148 1.380 . S
C148 H104 0.931 . S
C148 C147 1.380 . S
C148 C149 1.387 . S
C149 H105 0.930 . S
C149 C144 1.386 . S
C149 C148 1.387 . S
C150 C119 1.519 . S
C150 C151 1.377 . S
C150 C155 1.361 . S
C151 H106 0.929 . S
C151 C150 1.377 . S
C151 C152 1.386 . S
C152 H107 0.931 . S
C152 C151 1.386 . S
C152 C153 1.363 . S
C153 C152 1.363 . S
C153 C154 1.385 . S
C154 H108 0.930 . S
C154 C153 1.385 . S
C154 C155 1.396 . S
C155 H109 0.929 . S
C155 C150 1.361 . S
C155 C154 1.396 . S
C156 O110 1.300 . S
C156 O111 1.209 . S
C156 C129 1.486 . S
C157 O112 1.199 . S
C157 O113 1.297 . S
C157 C141 1.476 . S
H158 O184 0.856 . S
H159 O187 0.854 . S
H160 C195 0.930 . S
H161 C196 0.930 . S
H162 C198 0.930 . S
H163 C199 0.930 . S
H164 C201 0.931 . S
H165 C202 0.930 . S
H166 C204 0.930 1_455 S
H167 C205 0.929 . S
H168 C207 0.930 . S
H169 C208 0.931 . S
H170 C210 0.930 . S
H171 C211 0.929 . S
H172 C213 0.931 . S
H173 C214 0.930 . S
H174 C216 0.930 . S
H175 C217 0.932 . S
H176 C219 0.930 . S
H177 C220 0.929 . S
H178 C222 0.931 . S
H179 C223 0.930 . S
H180 C225 0.929 . S
H181 C226 0.931 . S
H182 C228 0.930 . S
H183 C229 0.929 . S
O184 H158 0.856 . S
O184 C230 1.300 . S
O185 C230 1.209 1_455 S
O186 C231 1.199 . S
O187 H159 0.854 . S
O187 C231 1.297 . S
C188 C189 1.404 . S
C188 C193 1.397 . S
C188 C194 1.492 . S
C189 C188 1.404 . S
C189 C190 1.396 . S
C189 C200 1.492 . S
C190 C189 1.396 . S
C190 C191 1.397 . S
C190 C206 1.509 . S
C191 C190 1.397 . S
C191 C192 1.412 . S
C191 C212 1.485 . S
C192 C191 1.412 . S
C192 C193 1.388 . S
C192 C218 1.490 . S
C193 C188 1.397 . S
C193 C192 1.388 . S
C193 C224 1.519 . S
C194 C188 1.492 . S
C194 C195 1.363 . S
C194 C199 1.390 1_655 S
C195 H160 0.930 . S
C195 C194 1.363 . S
C195 C196 1.372 . S
C196 H161 0.930 . S
C196 C195 1.372 . S
C196 C197 1.383 1_655 S
C197 C196 1.383 1_455 S
C197 C198 1.395 . S
C198 H162 0.930 . S
C198 C197 1.395 . S
C198 C199 1.362 . S
C199 H163 0.930 . S
C199 C194 1.390 1_455 S
C199 C198 1.362 . S
C200 C189 1.492 . S
C200 C201 1.377 . S
C200 C205 1.397 . S
C201 H164 0.931 . S
C201 C200 1.377 . S
C201 C202 1.376 . S
C202 H165 0.930 . S
C202 C201 1.376 . S
C202 C203 1.376 . S
C203 C202 1.376 . S
C203 C204 1.378 . S
C203 C230 1.486 1_556 S
C204 H166 0.930 1_655 S
C204 C203 1.378 . S
C204 C205 1.376 . S
C205 H167 0.929 . S
C205 C200 1.397 . S
C205 C204 1.376 . S
C206 C190 1.509 . S
C206 C207 1.391 . S
C206 C211 1.386 . S
C207 H168 0.930 . S
C207 C206 1.391 . S
C207 C208 1.375 . S
C208 H169 0.931 . S
C208 C207 1.375 . S
C208 C209 1.375 . S
C209 C208 1.375 . S
C209 C210 1.361 . S
C210 H170 0.930 . S
C210 C209 1.361 . S
C210 C211 1.399 . S
C211 H171 0.929 . S
C211 C206 1.386 . S
C211 C210 1.399 . S
C212 C191 1.485 . S
C212 C213 1.394 . S
C212 C217 1.360 . S
C213 H172 0.931 . S
C213 C212 1.394 . S
C213 C214 1.372 . S
C214 H173 0.930 . S
C214 C213 1.372 . S
C214 C215 1.397 . S
C215 C214 1.397 . S
C215 C216 1.390 . S
C215 C231 1.476 1_545 S
C216 H174 0.930 . S
C216 C215 1.390 . S
C216 C217 1.366 . S
C217 H175 0.932 . S
C217 C212 1.360 . S
C217 C216 1.366 . S
C218 C192 1.490 . S
C218 C219 1.380 . S
C218 C223 1.386 . S
C219 H176 0.930 . S
C219 C218 1.380 . S
C219 C220 1.381 . S
C220 H177 0.929 . S
C220 C219 1.381 . S
C220 C221 1.371 . S
C221 C220 1.371 . S
C221 C222 1.380 . S
C222 H178 0.931 . S
C222 C221 1.380 . S
C222 C223 1.387 . S
C223 H179 0.930 . S
C223 C218 1.386 . S
C223 C222 1.387 . S
C224 C193 1.519 . S
C224 C225 1.377 . S
C224 C229 1.361 . S
C225 H180 0.929 . S
C225 C224 1.377 . S
C225 C226 1.386 . S
C226 H181 0.931 . S
C226 C225 1.386 . S
C226 C227 1.363 . S
C227 C226 1.363 . S
C227 C228 1.385 . S
C228 H182 0.930 . S
C228 C227 1.385 . S
C228 C229 1.396 . S
C229 H183 0.929 . S
C229 C224 1.361 . S
C229 C228 1.396 . S
C230 O184 1.300 . S
C230 O185 1.209 1_655 S
C230 C203 1.486 1_554 S
C231 O186 1.199 . S
C231 O187 1.297 . S
C231 C215 1.476 1_565 S
H232 O258 0.856 . S
H233 O261 0.854 . S
H234 C269 0.930 . S
H235 C270 0.930 . S
H236 C272 0.930 . S
H237 C273 0.930 . S
H238 C275 0.931 . S
H239 C276 0.930 . S
H240 C278 0.930 . S
H241 C279 0.929 . S
H242 C281 0.930 . S
H243 C282 0.931 . S
H244 C284 0.930 . S
H245 C285 0.929 . S
H246 C287 0.931 . S
H247 C288 0.930 . S
H248 C290 0.930 . S
H249 C291 0.932 . S
H250 C293 0.930 . S
H251 C294 0.929 . S
H252 C296 0.931 . S
H253 C297 0.930 . S
H254 C299 0.929 . S
H255 C300 0.931 . S
H256 C302 0.930 . S
H257 C303 0.929 . S
O258 H232 0.856 . S
O258 C304 1.300 . S
O259 C304 1.209 . S
O260 C305 1.199 . S
O261 H233 0.854 . S
O261 C305 1.297 . S
C262 C263 1.404 . S
C262 C267 1.397 . S
C262 C268 1.492 . S
C263 C262 1.404 . S
C263 C264 1.396 . S
C263 C274 1.492 . S
C264 C263 1.396 . S
C264 C265 1.397 . S
C264 C280 1.509 . S
C265 C264 1.397 . S
C265 C266 1.412 . S
C265 C286 1.485 . S
C266 C265 1.412 . S
C266 C267 1.388 . S
C266 C292 1.490 . S
C267 C262 1.397 . S
C267 C266 1.388 . S
C267 C298 1.519 . S
C268 C262 1.492 . S
C268 C269 1.363 . S
C268 C273 1.390 . S
C269 H234 0.930 . S
C269 C268 1.363 . S
C269 C270 1.372 . S
C270 H235 0.930 . S
C270 C269 1.372 . S
C270 C271 1.383 . S
C271 C270 1.383 . S
C271 C272 1.395 . S
C272 H236 0.930 . S
C272 C271 1.395 . S
C272 C273 1.362 . S
C273 H237 0.930 . S
C273 C268 1.390 . S
C273 C272 1.362 . S
C274 C263 1.492 . S
C274 C275 1.377 . S
C274 C279 1.397 . S
C275 H238 0.931 . S
C275 C274 1.377 . S
C275 C276 1.376 . S
C276 H239 0.930 . S
C276 C275 1.376 . S
C276 C277 1.376 . S
C277 C276 1.376 . S
C277 C278 1.378 . S
C277 C304 1.486 . S
C278 H240 0.930 . S
C278 C277 1.378 . S
C278 C279 1.376 . S
C279 H241 0.929 . S
C279 C274 1.397 . S
C279 C278 1.376 . S
C280 C264 1.509 . S
C280 C281 1.391 . S
C280 C285 1.386 . S
C281 H242 0.930 . S
C281 C280 1.391 . S
C281 C282 1.375 . S
C282 H243 0.931 . S
C282 C281 1.375 . S
C282 C283 1.375 . S
C283 C282 1.375 . S
C283 C284 1.361 . S
C284 H244 0.930 . S
C284 C283 1.361 . S
C284 C285 1.399 . S
C285 H245 0.929 . S
C285 C280 1.386 . S
C285 C284 1.399 . S
C286 C265 1.485 . S
C286 C287 1.394 . S
C286 C291 1.360 . S
C287 H246 0.931 . S
C287 C286 1.394 . S
C287 C288 1.372 . S
C288 H247 0.930 . S
C288 C287 1.372 . S
C288 C289 1.397 1_565 S
C289 C288 1.397 1_545 S
C289 C290 1.390 . S
C289 C305 1.476 . S
C290 H248 0.930 . S
C290 C289 1.390 . S
C290 C291 1.366 1_545 S
C291 H249 0.932 . S
C291 C286 1.360 . S
C291 C290 1.366 1_565 S
C292 C266 1.490 . S
C292 C293 1.380 . S
C292 C297 1.386 . S
C293 H250 0.930 . S
C293 C292 1.380 . S
C293 C294 1.381 . S
C294 H251 0.929 . S
C294 C293 1.381 . S
C294 C295 1.371 . S
C295 C294 1.371 . S
C295 C296 1.380 . S
C296 H252 0.931 . S
C296 C295 1.380 . S
C296 C297 1.387 . S
C297 H253 0.930 . S
C297 C292 1.386 . S
C297 C296 1.387 . S
C298 C267 1.519 . S
C298 C299 1.377 . S
C298 C303 1.361 . S
C299 H254 0.929 . S
C299 C298 1.377 . S
C299 C300 1.386 . S
C300 H255 0.931 . S
C300 C299 1.386 . S
C300 C301 1.363 . S
C301 C300 1.363 . S
C301 C302 1.385 . S
C302 H256 0.930 . S
C302 C301 1.385 . S
C302 C303 1.396 . S
C303 H257 0.929 . S
C303 C298 1.361 . S
C303 C302 1.396 . S
C304 O258 1.300 . S
C304 O259 1.209 . S
C304 C277 1.486 . S
C305 O260 1.199 . S
C305 O261 1.297 . S
C305 C289 1.476 . S
H306 O332 0.856 . S
H307 O335 0.854 . S
H308 C343 0.930 . S
H309 C344 0.930 . S
H310 C346 0.930 . S
H311 C347 0.930 . S
H312 C349 0.931 . S
H313 C350 0.930 . S
H314 C352 0.930 . S
H315 C353 0.929 . S
H316 C355 0.930 1_455 S
H317 C356 0.931 . S
H318 C358 0.930 . S
H319 C359 0.929 . S
H320 C361 0.931 . S
H321 C362 0.930 . S
H322 C364 0.930 . S
H323 C365 0.932 . S
H324 C367 0.930 . S
H325 C368 0.929 1_455 S
H326 C370 0.931 . S
H327 C371 0.930 . S
H328 C373 0.929 . S
H329 C374 0.931 . S
H330 C376 0.930 . S
H331 C377 0.929 . S
O332 H306 0.856 . S
O332 C378 1.300 . S
O333 C378 1.209 . S
O334 C379 1.199 . S
O335 H307 0.854 . S
O335 C379 1.297 . S
C336 C337 1.404 . S
C336 C341 1.397 . S
C336 C342 1.492 . S
C337 C336 1.404 . S
C337 C338 1.396 . S
C337 C348 1.492 . S
C338 C337 1.396 . S
C338 C339 1.397 . S
C338 C354 1.509 . S
C339 C338 1.397 . S
C339 C340 1.412 . S
C339 C360 1.485 . S
C340 C339 1.412 . S
C340 C341 1.388 . S
C340 C366 1.490 . S
C341 C336 1.397 . S
C341 C340 1.388 . S
C341 C372 1.519 . S
C342 C336 1.492 . S
C342 C343 1.363 . S
C342 C347 1.390 . S
C343 H308 0.930 . S
C343 C342 1.363 . S
C343 C344 1.372 . S
C344 H309 0.930 . S
C344 C343 1.372 . S
C344 C345 1.383 . S
C345 C344 1.383 . S
C345 C346 1.395 . S
C346 H310 0.930 . S
C346 C345 1.395 . S
C346 C347 1.362 . S
C347 H311 0.930 . S
C347 C342 1.390 . S
C347 C346 1.362 . S
C348 C337 1.492 . S
C348 C349 1.377 . S
C348 C353 1.397 . S
C349 H312 0.931 . S
C349 C348 1.377 . S
C349 C350 1.376 . S
C350 H313 0.930 . S
C350 C349 1.376 . S
C350 C351 1.376 . S
C351 C350 1.376 . S
C351 C352 1.378 . S
C351 C378 1.486 . S
C352 H314 0.930 . S
C352 C351 1.378 . S
C352 C353 1.376 . S
C353 H315 0.929 . S
C353 C348 1.397 . S
C353 C352 1.376 . S
C354 C338 1.509 . S
C354 C355 1.391 . S
C354 C359 1.386 . S
C355 H316 0.930 1_655 S
C355 C354 1.391 . S
C355 C356 1.375 1_655 S
C356 H317 0.931 . S
C356 C355 1.375 1_455 S
C356 C357 1.375 1_455 S
C357 C356 1.375 1_655 S
C357 C358 1.361 . S
C358 H318 0.930 . S
C358 C357 1.361 . S
C358 C359 1.399 . S
C359 H319 0.929 . S
C359 C354 1.386 . S
C359 C358 1.399 . S
C360 C339 1.485 . S
C360 C361 1.394 1_655 S
C360 C365 1.360 . S
C361 H320 0.931 . S
C361 C360 1.394 1_455 S
C361 C362 1.372 . S
C362 H321 0.930 . S
C362 C361 1.372 . S
C362 C363 1.397 . S
C363 C362 1.397 . S
C363 C364 1.390 . S
C363 C379 1.476 . S
C364 H322 0.930 . S
C364 C363 1.390 . S
C364 C365 1.366 1_455 S
C365 H323 0.932 . S
C365 C360 1.360 . S
C365 C364 1.366 1_655 S
C366 C340 1.490 . S
C366 C367 1.380 . S
C366 C371 1.386 . S
C367 H324 0.930 . S
C367 C366 1.380 . S
C367 C368 1.381 . S
C368 H325 0.929 1_655 S
C368 C367 1.381 . S
C368 C369 1.371 1_655 S
C369 C368 1.371 1_455 S
C369 C370 1.380 1_455 S
C370 H326 0.931 . S
C370 C369 1.380 1_655 S
C370 C371 1.387 . S
C371 H327 0.930 . S
C371 C366 1.386 . S
C371 C370 1.387 . S
C372 C341 1.519 . S
C372 C373 1.377 . S
C372 C377 1.361 . S
C373 H328 0.929 . S
C373 C372 1.377 . S
C373 C374 1.386 . S
C374 H329 0.931 . S
C374 C373 1.386 . S
C374 C375 1.363 . S
C375 C374 1.363 . S
C375 C376 1.385 . S
C376 H330 0.930 . S
C376 C375 1.385 . S
C376 C377 1.396 . S
C377 H331 0.929 . S
C377 C372 1.361 . S
C377 C376 1.396 . S
C378 O332 1.300 . S
C378 O333 1.209 . S
C378 C351 1.486 . S
C379 O334 1.199 . S
C379 O335 1.297 . S
C379 C363 1.476 . S
H380 O406 0.856 . S
H381 O409 0.854 . S
H382 C417 0.930 . S
H383 C418 0.930 . S
H384 C420 0.930 . S
H385 C421 0.930 . S
H386 C423 0.931 . S
H387 C424 0.930 . S
H388 C426 0.930 . S
H389 C427 0.929 . S
H390 C429 0.930 . S
H391 C430 0.931 . S
H392 C432 0.930 . S
H393 C433 0.929 . S
H394 C435 0.931 . S
H395 C436 0.930 . S
H396 C438 0.930 . S
H397 C439 0.932 . S
H398 C441 0.930 . S
H399 C442 0.929 . S
H400 C444 0.931 . S
H401 C445 0.930 . S
H402 C447 0.929 . S
H403 C448 0.931 . S
H404 C450 0.930 . S
H405 C451 0.929 . S
O406 H380 0.856 . S
O406 C452 1.300 . S
O407 C452 1.209 . S
O408 C453 1.199 . S
O409 H381 0.854 . S
O409 C453 1.297 . S
C410 C411 1.404 . S
C410 C415 1.397 . S
C410 C416 1.492 . S
C411 C410 1.404 . S
C411 C412 1.396 . S
C411 C422 1.492 . S
C412 C411 1.396 . S
C412 C413 1.397 . S
C412 C428 1.509 . S
C413 C412 1.397 . S
C413 C414 1.412 . S
C413 C434 1.485 . S
C414 C413 1.412 . S
C414 C415 1.388 . S
C414 C440 1.490 . S
C415 C410 1.397 . S
C415 C414 1.388 . S
C415 C446 1.519 . S
C416 C410 1.492 . S
C416 C417 1.363 . S
C416 C421 1.390 . S
C417 H382 0.930 . S
C417 C416 1.363 . S
C417 C418 1.372 . S
C418 H383 0.930 . S
C418 C417 1.372 . S
C418 C419 1.383 . S
C419 C418 1.383 . S
C419 C420 1.395 . S
C420 H384 0.930 . S
C420 C419 1.395 . S
C420 C421 1.362 . S
C421 H385 0.930 . S
C421 C416 1.390 . S
C421 C420 1.362 . S
C422 C411 1.492 . S
C422 C423 1.377 . S
C422 C427 1.397 . S
C423 H386 0.931 . S
C423 C422 1.377 . S
C423 C424 1.376 . S
C424 H387 0.930 . S
C424 C423 1.376 . S
C424 C425 1.376 . S
C425 C424 1.376 . S
C425 C426 1.378 . S
C425 C452 1.486 . S
C426 H388 0.930 . S
C426 C425 1.378 . S
C426 C427 1.376 . S
C427 H389 0.929 . S
C427 C422 1.397 . S
C427 C426 1.376 . S
C428 C412 1.509 . S
C428 C429 1.391 . S
C428 C433 1.386 . S
C429 H390 0.930 . S
C429 C428 1.391 . S
C429 C430 1.375 . S
C430 H391 0.931 . S
C430 C429 1.375 . S
C430 C431 1.375 . S
C431 C430 1.375 . S
C431 C432 1.361 . S
C432 H392 0.930 . S
C432 C431 1.361 . S
C432 C433 1.399 . S
C433 H393 0.929 . S
C433 C428 1.386 . S
C433 C432 1.399 . S
C434 C413 1.485 . S
C434 C435 1.394 . S
C434 C439 1.360 . S
C435 H394 0.931 . S
C435 C434 1.394 . S
C435 C436 1.372 . S
C436 H395 0.930 . S
C436 C435 1.372 . S
C436 C437 1.397 . S
C437 C436 1.397 . S
C437 C438 1.390 . S
C437 C453 1.476 . S
C438 H396 0.930 . S
C438 C437 1.390 . S
C438 C439 1.366 . S
C439 H397 0.932 . S
C439 C434 1.360 . S
C439 C438 1.366 . S
C440 C414 1.490 . S
C440 C441 1.380 . S
C440 C445 1.386 . S
C441 H398 0.930 . S
C441 C440 1.380 . S
C441 C442 1.381 . S
C442 H399 0.929 . S
C442 C441 1.381 . S
C442 C443 1.371 . S
C443 C442 1.371 . S
C443 C444 1.380 . S
C444 H400 0.931 . S
C444 C443 1.380 . S
C444 C445 1.387 . S
C445 H401 0.930 . S
C445 C440 1.386 . S
C445 C444 1.387 . S
C446 C415 1.519 . S
C446 C447 1.377 . S
C446 C451 1.361 . S
C447 H402 0.929 . S
C447 C446 1.377 . S
C447 C448 1.386 . S
C448 H403 0.931 . S
C448 C447 1.386 . S
C448 C449 1.363 . S
C449 C448 1.363 . S
C449 C450 1.385 . S
C450 H404 0.930 . S
C450 C449 1.385 . S
C450 C451 1.396 . S
C451 H405 0.929 . S
C451 C446 1.361 . S
C451 C450 1.396 . S
C452 O406 1.300 . S
C452 O407 1.209 . S
C452 C425 1.486 . S
C453 O408 1.199 . S
C453 O409 1.297 . S
C453 C437 1.476 . S
H454 O480 0.856 . S
H455 O483 0.854 . S
H456 C491 0.930 . S
H457 C492 0.930 . S
H458 C494 0.930 . S
H459 C495 0.930 . S
H460 C497 0.931 . S
H461 C498 0.930 . S
H462 C500 0.930 . S
H463 C501 0.929 . S
H464 C503 0.930 . S
H465 C504 0.931 . S
H466 C506 0.930 . S
H467 C507 0.929 . S
H468 C509 0.931 . S
H469 C510 0.930 . S
H470 C512 0.930 . S
H471 C513 0.932 . S
H472 C515 0.930 . S
H473 C516 0.929 . S
H474 C518 0.931 . S
H475 C519 0.930 . S
H476 C521 0.929 . S
H477 C522 0.931 . S
H478 C524 0.930 . S
H479 C525 0.929 . S
O480 H454 0.856 . S
O480 C526 1.300 . S
O481 C526 1.209 . S
O482 C527 1.199 . S
O483 H455 0.854 . S
O483 C527 1.297 . S
C484 C485 1.404 . S
C484 C489 1.397 . S
C484 C490 1.492 . S
C485 C484 1.404 . S
C485 C486 1.396 . S
C485 C496 1.492 . S
C486 C485 1.396 . S
C486 C487 1.397 . S
C486 C502 1.509 . S
C487 C486 1.397 . S
C487 C488 1.412 . S
C487 C508 1.485 . S
C488 C487 1.412 . S
C488 C489 1.388 . S
C488 C514 1.490 . S
C489 C484 1.397 . S
C489 C488 1.388 . S
C489 C520 1.519 . S
C490 C484 1.492 . S
C490 C491 1.363 . S
C490 C495 1.390 . S
C491 H456 0.930 . S
C491 C490 1.363 . S
C491 C492 1.372 . S
C492 H457 0.930 . S
C492 C491 1.372 . S
C492 C493 1.383 . S
C493 C492 1.383 . S
C493 C494 1.395 . S
C494 H458 0.930 . S
C494 C493 1.395 . S
C494 C495 1.362 . S
C495 H459 0.930 . S
C495 C490 1.390 . S
C495 C494 1.362 . S
C496 C485 1.492 . S
C496 C497 1.377 . S
C496 C501 1.397 . S
C497 H460 0.931 . S
C497 C496 1.377 . S
C497 C498 1.376 . S
C498 H461 0.930 . S
C498 C497 1.376 . S
C498 C499 1.376 . S
C499 C498 1.376 . S
C499 C500 1.378 . S
C499 C526 1.486 . S
C500 H462 0.930 . S
C500 C499 1.378 . S
C500 C501 1.376 . S
C501 H463 0.929 . S
C501 C496 1.397 . S
C501 C500 1.376 . S
C502 C486 1.509 . S
C502 C503 1.391 . S
C502 C507 1.386 . S
C503 H464 0.930 . S
C503 C502 1.391 . S
C503 C504 1.375 . S
C504 H465 0.931 . S
C504 C503 1.375 . S
C504 C505 1.375 . S
C505 C504 1.375 . S
C505 C506 1.361 . S
C506 H466 0.930 . S
C506 C505 1.361 . S
C506 C507 1.399 . S
C507 H467 0.929 . S
C507 C502 1.386 . S
C507 C506 1.399 . S
C508 C487 1.485 . S
C508 C509 1.394 . S
C508 C513 1.360 . S
C509 H468 0.931 . S
C509 C508 1.394 . S
C509 C510 1.372 . S
C510 H469 0.930 . S
C510 C509 1.372 . S
C510 C511 1.397 . S
C511 C510 1.397 . S
C511 C512 1.390 . S
C511 C527 1.476 1_545 S
C512 H470 0.930 . S
C512 C511 1.390 . S
C512 C513 1.366 . S
C513 H471 0.932 . S
C513 C508 1.360 . S
C513 C512 1.366 . S
C514 C488 1.490 . S
C514 C515 1.380 . S
C514 C519 1.386 . S
C515 H472 0.930 . S
C515 C514 1.380 . S
C515 C516 1.381 . S
C516 H473 0.929 . S
C516 C515 1.381 . S
C516 C517 1.371 . S
C517 C516 1.371 . S
C517 C518 1.380 . S
C518 H474 0.931 . S
C518 C517 1.380 . S
C518 C519 1.387 . S
C519 H475 0.930 . S
C519 C514 1.386 . S
C519 C518 1.387 . S
C520 C489 1.519 . S
C520 C521 1.377 . S
C520 C525 1.361 . S
C521 H476 0.929 . S
C521 C520 1.377 . S
C521 C522 1.386 . S
C522 H477 0.931 . S
C522 C521 1.386 . S
C522 C523 1.363 . S
C523 C522 1.363 . S
C523 C524 1.385 . S
C524 H478 0.930 . S
C524 C523 1.385 . S
C524 C525 1.396 . S
C525 H479 0.929 . S
C525 C520 1.361 . S
C525 C524 1.396 . S
C526 O480 1.300 . S
C526 O481 1.209 . S
C526 C499 1.486 . S
C527 O482 1.199 . S
C527 O483 1.297 . S
C527 C511 1.476 1_565 S
C528 C529 1.387 . S
C528 H532 0.950 . S
C528 C537 1.390 . S
C529 C528 1.387 . S
C529 C531 1.387 . S
H530 C537 0.950 . S
C531 C529 1.387 . S
C531 C533 1.390 . S
C531 H535 0.950 . S
H532 C528 0.950 . S
C533 C531 1.390 . S
C533 C534 1.387 . S
C533 H536 0.950 . S
C534 C533 1.387 . S
C534 C537 1.387 . S
H535 C531 0.950 . S
H536 C533 0.950 . S
C537 C528 1.390 . S
C537 H530 0.950 . S
C537 C534 1.387 . S
C538 C539 1.387 . S
C538 H542 0.950 . S
C538 C547 1.390 . S
C539 C538 1.387 . S
C539 C541 1.387 . S
H540 C547 0.950 . S
C541 C539 1.387 . S
C541 C543 1.390 . S
C541 H545 0.950 . S
H542 C538 0.950 . S
C543 C541 1.390 . S
C543 C544 1.387 . S
C543 H546 0.950 . S
C544 C543 1.387 . S
C544 C547 1.387 . S
H545 C541 0.950 . S
H546 C543 0.950 . S
C547 C538 1.390 . S
C547 H540 0.950 . S
C547 C544 1.387 . S
C548 C549 1.387 . S
C548 H552 0.950 . S
C548 C557 1.390 . S
C549 C548 1.387 . S
C549 C551 1.387 . S
H550 C557 0.950 . S
C551 C549 1.387 . S
C551 C553 1.390 . S
C551 H555 0.950 . S
H552 C548 0.950 . S
C553 C551 1.390 . S
C553 C554 1.387 . S
C553 H556 0.950 . S
C554 C553 1.387 . S
C554 C557 1.387 . S
H555 C551 0.950 . S
H556 C553 0.950 . S
C557 C548 1.390 . S
C557 H550 0.950 . S
C557 C554 1.387 . S
C558 C559 1.387 . S
C558 H562 0.950 1_655 S
C558 C567 1.388 . S
C559 C558 1.387 . S
C559 C561 1.387 . S
H560 C567 0.949 1_455 S
C561 C559 1.387 . S
C561 C563 1.390 . S
C561 H565 0.950 . S
H562 C558 0.950 1_455 S
C563 C561 1.390 . S
C563 C564 1.387 . S
C563 H566 0.950 . S
C564 C563 1.387 . S
C564 C567 1.390 . S
H565 C561 0.950 . S
H566 C563 0.950 . S
C567 C558 1.388 . S
C567 H560 0.949 1_655 S
C567 C564 1.390 . S
C568 C569 1.384 1_565 S
C568 H572 0.950 . S
C568 C577 1.390 . S
C569 C568 1.384 1_545 S
C569 C571 1.389 . S
H570 C577 0.950 . S
C571 C569 1.389 . S
C571 C573 1.390 1_545 S
C571 H575 0.950 . S
H572 C568 0.950 . S
C573 C571 1.390 1_565 S
C573 C574 1.387 . S
C573 H576 0.950 . S
C574 C573 1.387 . S
C574 C577 1.387 . S
H575 C571 0.950 . S
H576 C573 0.950 . S
C577 C568 1.390 . S
C577 H570 0.950 . S
C577 C574 1.387 . S
C578 C579 1.387 . S
C578 H582 0.950 . S
C578 C587 1.390 . S
C579 C578 1.387 . S
C579 C581 1.387 . S
H580 C587 0.950 . S
C581 C579 1.387 . S
C581 C583 1.390 . S
C581 H585 0.950 . S
H582 C578 0.950 . S
C583 C581 1.390 . S
C583 C584 1.387 . S
C583 H586 0.950 . S
C584 C583 1.387 . S
C584 C587 1.387 . S
H585 C581 0.950 . S
H586 C583 0.950 . S
C587 C578 1.390 . S
C587 H580 0.950 . S
C587 C584 1.387 . S
C588 C589 1.387 . S
C588 H592 0.950 . S
C588 C597 1.390 . S
C589 C588 1.387 . S
C589 C591 1.387 . S
H590 C597 0.950 . S
C591 C589 1.387 . S
C591 C593 1.390 . S
C591 H595 0.950 . S
H592 C588 0.950 . S
C593 C591 1.390 . S
C593 C594 1.387 . S
C593 H596 0.950 . S
C594 C593 1.387 . S
C594 C597 1.387 . S
H595 C591 0.950 . S
H596 C593 0.950 . S
C597 C588 1.390 . S
C597 H590 0.950 . S
C597 C594 1.387 . S
C598 C599 1.387 1_556 S
C598 H602 0.950 . S
C598 C607 1.390 . S
C599 C598 1.387 1_554 S
C599 C601 1.387 . S
H600 C607 0.950 . S
C601 C599 1.387 . S
C601 C603 1.390 . S
C601 H605 0.950 . S
H602 C598 0.950 . S
C603 C601 1.390 . S
C603 C604 1.387 1_554 S
C603 H606 0.950 . S
C604 C603 1.387 1_556 S
C604 C607 1.387 . S
H605 C601 0.950 . S
H606 C603 0.950 . S
C607 C598 1.390 . S
C607 H600 0.950 . S
C607 C604 1.387 . S
C608 C609 1.387 . S
C608 H612 0.950 . S
C608 C617 1.390 . S
C609 C608 1.387 . S
C609 C611 1.387 . S
H610 C617 0.950 . S
C611 C609 1.387 . S
C611 C613 1.390 . S
C611 H615 0.950 . S
H612 C608 0.950 . S
C613 C611 1.390 . S
C613 C614 1.387 . S
C613 H616 0.950 . S
C614 C613 1.387 . S
C614 C617 1.387 . S
H615 C611 0.950 . S
H616 C613 0.950 . S
C617 C608 1.390 . S
C617 H610 0.950 . S
C617 C614 1.387 . S
C618 C619 1.387 . S
C618 H622 0.950 . S
C618 C627 1.390 . S
C619 C618 1.387 . S
C619 C621 1.387 . S
H620 C627 0.949 1_556 S
C621 C619 1.387 . S
C621 C623 1.390 1_554 S
C621 H625 0.950 . S
H622 C618 0.950 . S
C623 C621 1.390 1_556 S
C623 C624 1.387 . S
C623 H626 0.950 . S
C624 C623 1.387 . S
C624 C627 1.387 1_556 S
H625 C621 0.950 . S
H626 C623 0.950 . S
C627 C618 1.390 . S
C627 H620 0.949 1_554 S
C627 C624 1.387 1_554 S
C628 C629 1.387 . S
C628 H632 0.950 . S
C628 C637 1.390 . S
C629 C628 1.387 . S
C629 C631 1.387 . S
H630 C637 0.950 . S
C631 C629 1.387 . S
C631 C633 1.390 . S
C631 H635 0.950 . S
H632 C628 0.950 . S
C633 C631 1.390 . S
C633 C634 1.387 . S
C633 H636 0.950 . S
C634 C633 1.387 . S
C634 C637 1.387 . S
H635 C631 0.950 . S
H636 C633 0.950 . S
C637 C628 1.390 . S
C637 H630 0.950 . S
C637 C634 1.387 . S
C638 C639 1.387 . S
C638 H642 0.950 . S
C638 C647 1.390 . S
C639 C638 1.387 . S
C639 C641 1.387 . S
H640 C647 0.950 . S
C641 C639 1.387 . S
C641 C643 1.390 . S
C641 H645 0.950 . S
H642 C638 0.950 . S
C643 C641 1.390 . S
C643 C644 1.387 . S
C643 H646 0.950 . S
C644 C643 1.387 . S
C644 C647 1.387 . S
H645 C641 0.950 . S
H646 C643 0.950 . S
C647 C638 1.390 . S
C647 H640 0.950 . S
C647 C644 1.387 . S
C648 C649 1.387 . S
C648 H652 0.950 . S
C648 C657 1.390 . S
C649 C648 1.387 . S
C649 C651 1.387 . S
H650 C657 0.950 . S
C651 C649 1.387 . S
C651 C653 1.390 . S
C651 H655 0.950 1_556 S
H652 C648 0.950 . S
C653 C651 1.390 . S
C653 C654 1.387 . S
C653 H656 0.950 1_556 S
C654 C653 1.387 . S
C654 C657 1.387 . S
H655 C651 0.950 1_554 S
H656 C653 0.950 1_554 S
C657 C648 1.390 . S
C657 H650 0.950 . S
C657 C654 1.387 . S
C658 C659 1.387 . S
C658 H662 0.950 . S
C658 C667 1.390 . S
C659 C658 1.387 . S
C659 C661 1.387 . S
H660 C667 0.950 . S
C661 C659 1.387 . S
C661 C663 1.390 . S
C661 H665 0.938 1_565 S
H662 C658 0.950 . S
C663 C661 1.390 . S
C663 C664 1.387 . S
C663 H666 0.950 1_565 S
C664 C663 1.387 . S
C664 C667 1.387 . S
H665 C661 0.938 1_545 S
H666 C663 0.950 1_545 S
C667 C658 1.390 . S
C667 H660 0.950 . S
C667 C664 1.387 . S
C668 C669 1.387 1_556 S
C668 H672 0.950 . S
C668 C677 1.390 . S
C669 C668 1.387 1_554 S
C669 C671 1.387 . S
H670 C677 0.950 . S
C671 C669 1.387 . S
C671 C673 1.390 1_554 S
C671 H675 0.950 . S
H672 C668 0.950 . S
C673 C671 1.390 1_556 S
C673 C674 1.387 . S
C673 H676 0.950 . S
C674 C673 1.387 . S
C674 C677 1.387 . S
H675 C671 0.950 . S
H676 C673 0.950 . S
C677 C668 1.390 . S
C677 H670 0.950 . S
C677 C674 1.387 . S
C678 C679 1.387 . S
C678 H682 0.950 . S
C678 C687 1.390 . S
C679 C678 1.387 . S
C679 C681 1.387 . S
H680 C687 0.950 . S
C681 C679 1.387 . S
C681 C683 1.390 . S
C681 H685 0.950 . S
H682 C678 0.950 . S
C683 C681 1.390 . S
C683 C684 1.387 . S
C683 H686 0.950 . S
C684 C683 1.387 . S
C684 C687 1.387 . S
H685 C681 0.950 . S
H686 C683 0.950 . S
C687 C678 1.390 . S
C687 H680 0.950 . S
C687 C684 1.387 . S
C688 C689 1.387 . S
C688 H692 0.950 . S
C688 C697 1.390 . S
C689 C688 1.387 . S
C689 C691 1.387 . S
H690 C697 0.950 . S
C691 C689 1.387 . S
C691 C693 1.390 1_554 S
C691 H695 0.950 . S
H692 C688 0.950 . S
C693 C691 1.390 1_556 S
C693 C694 1.387 1_556 S
C693 H696 0.950 . S
C694 C693 1.387 1_554 S
C694 C697 1.387 . S
H695 C691 0.950 . S
H696 C693 0.950 . S
C697 C688 1.390 . S
C697 H690 0.950 . S
C697 C694 1.387 . S
C698 C699 1.387 . S
C698 H702 0.950 . S
C698 C707 1.390 . S
C699 C698 1.387 . S
C699 C701 1.387 . S
H700 C707 0.950 . S
C701 C699 1.387 . S
C701 C703 1.390 . S
C701 H705 0.950 . S
H702 C698 0.950 . S
C703 C701 1.390 . S
C703 C704 1.387 . S
C703 H706 0.950 . S
C704 C703 1.387 . S
C704 C707 1.387 . S
H705 C701 0.950 . S
H706 C703 0.950 . S
C707 C698 1.390 . S
C707 H700 0.950 . S
C707 C704 1.387 . S
C708 C709 1.387 . S
C708 H712 0.950 . S
C708 C717 1.390 . S
C709 C708 1.387 . S
C709 C711 1.387 . S
H710 C717 0.950 . S
C711 C709 1.387 . S
C711 C713 1.390 . S
C711 H715 0.950 1_545 S
H712 C708 0.950 . S
C713 C711 1.390 . S
C713 C714 1.387 . S
C713 H716 0.950 1_545 S
C714 C713 1.387 . S
C714 C717 1.387 . S
H715 C711 0.950 1_565 S
H716 C713 0.950 1_565 S
C717 C708 1.390 . S
C717 H710 0.950 . S
C717 C714 1.387 . S
C718 C719 1.387 . S
C718 H722 0.950 . S
C718 C727 1.390 . S
C719 C718 1.387 . S
C719 C721 1.387 . S
H720 C727 0.950 . S
C721 C719 1.387 . S
C721 C723 1.390 . S
C721 H725 0.950 . S
H722 C718 0.950 . S
C723 C721 1.390 . S
C723 C724 1.387 . S
C723 H726 0.950 . S
C724 C723 1.387 . S
C724 C727 1.387 . S
H725 C721 0.950 . S
H726 C723 0.950 . S
C727 C718 1.390 . S
C727 H720 0.950 . S
C727 C724 1.387 . S
C728 C729 1.387 . S
C728 H732 0.950 . S
C728 C737 1.390 . S
C729 C728 1.387 . S
C729 C731 1.387 . S
H730 C737 0.950 . S
C731 C729 1.387 . S
C731 C733 1.390 . S
C731 H735 0.950 . S
H732 C728 0.950 . S
C733 C731 1.390 . S
C733 C734 1.387 . S
C733 H736 0.950 1_655 S
C734 C733 1.387 . S
C734 C737 1.387 . S
H735 C731 0.950 . S
H736 C733 0.950 1_455 S
C737 C728 1.390 . S
C737 H730 0.950 . S
C737 C734 1.387 . S
C738 C739 1.387 . S
C738 H742 0.950 . S
C738 C747 1.390 . S
C739 C738 1.387 . S
C739 C741 1.387 1_545 S
H740 C747 0.950 . S
C741 C739 1.387 1_565 S
C741 C743 1.390 . S
C741 H745 0.950 . S
H742 C738 0.950 . S
C743 C741 1.390 . S
C743 C744 1.387 . S
C743 H746 0.950 . S
C744 C743 1.387 . S
C744 C747 1.387 1_565 S
H745 C741 0.950 . S
H746 C743 0.950 . S
C747 C738 1.390 . S
C747 H740 0.950 . S
C747 C744 1.387 1_545 S
C748 C749 1.387 . S
C748 H752 0.950 . S
C748 C757 1.390 . S
C749 C748 1.387 . S
C749 C751 1.387 . S
H750 C757 0.950 . S
C751 C749 1.387 . S
C751 C753 1.390 . S
C751 H755 0.950 . S
H752 C748 0.950 . S
C753 C751 1.390 . S
C753 C754 1.387 . S
C753 H756 0.950 . S
C754 C753 1.387 . S
C754 C757 1.387 . S
H755 C751 0.950 . S
H756 C753 0.950 . S
C757 C748 1.390 . S
C757 H750 0.950 . S
C757 C754 1.387 . S
C758 C759 1.387 . S
C758 H762 0.950 . S
C758 C767 1.390 . S
C759 C758 1.387 . S
C759 C761 1.387 . S
H760 C767 0.950 . S
C761 C759 1.387 . S
C761 C763 1.390 . S
C761 H765 0.950 . S
H762 C758 0.950 . S
C763 C761 1.390 . S
C763 C764 1.387 . S
C763 H766 0.950 . S
C764 C763 1.387 . S
C764 C767 1.387 . S
H765 C761 0.950 . S
H766 C763 0.950 . S
C767 C758 1.390 . S
C767 H760 0.950 . S
C767 C764 1.387 . S
C529 C13 2.231 . S
C534 C147 2.148 . S
C539 C27 1.465 . S
C544 C221 1.402 . S
C554 C271 1.760 . S
C549 C29 1.852 . S
C564 C357 1.468 . S
C559 C54 1.484 . S
C574 C449 1.833 . S
C569 C69 1.826 . S
C584 C493 1.790 . S
C579 C83 1.871 . S
C589 C15 1.502 . S
C594 C295 1.376 . S
C599 C41 2.413 . S
C604 C375 2.357 . S
C614 C431 1.440 . S
C609 C42 1.441 . S
C624 C517 1.517 . S
C619 C57 1.573 . S
C629 C71 2.234 . S
C634 C123 2.094 . S
C644 C197 1.825 . S
C639 C1 1.865 . S
C654 C369 2.046 . S
C649 C12 2.303 . S
C659 C26 2.332 . S
C664 C419 2.096 . S
C674 C523 2.269 . S
C669 C28 2.424 . S
C679 C55 1.586 . S
C684 C135 1.501 . S
C689 C68 2.184 . S
C694 C209 2.040 1_554 S
C699 C82 2.413 . S
C704 C301 2.262 . S
C709 C14 2.123 . S
C714 C505 1.975 . S
C724 C153 2.063 . S
C719 C40 2.113 . S
C729 C43 2.443 . S
C734 C227 2.272 . S
C739 C56 2.065 . S
C744 C283 1.885 . S
C749 C70 1.836 . S
C754 C345 1.588 . S
C759 C0 2.293 . S
C764 C443 2.077 . S
