# Generated by pormake.
# Topology llj, (12,3)-cn, num edge types: 1
# Building blocks:
#     Node 0, Type 0, BuildingBlock: QEWDON_clean_sbu_0, # of connection points: 12
#     Node 1, Type 0, BuildingBlock: QEWDON_clean_sbu_0, # of connection points: 12
#     Node 2, Type 1, BuildingBlock: PAMTOO_clean_linker_0, # of connection points: 3
#     Node 3, Type 1, BuildingBlock: PAMTOO_clean_linker_0, # of connection points: 3
#     Node 4, Type 1, BuildingBlock: PAMTOO_clean_linker_0, # of connection points: 3
#     Node 5, Type 1, BuildingBlock: PAMTOO_clean_linker_0, # of connection points: 3
#     Node 6, Type 1, BuildingBlock: PAMTOO_clean_linker_0, # of connection points: 3
#     Node 7, Type 1, BuildingBlock: PAMTOO_clean_linker_0, # of connection points: 3
#     Node 8, Type 1, BuildingBlock: PAMTOO_clean_linker_0, # of connection points: 3
#     Node 9, Type 1, BuildingBlock: PAMTOO_clean_linker_0, # of connection points: 3
#     Edge 10, Type (0, 1), BuildingBlock: UVAHIK_clean_linker_0, # of connection points: 2
#     Edge 11, Type (0, 1), BuildingBlock: UVAHIK_clean_linker_0, # of connection points: 2
#     Edge 12, Type (0, 1), BuildingBlock: UVAHIK_clean_linker_0, # of connection points: 2
#     Edge 13, Type (0, 1), BuildingBlock: UVAHIK_clean_linker_0, # of connection points: 2
#     Edge 14, Type (0, 1), BuildingBlock: UVAHIK_clean_linker_0, # of connection points: 2
#     Edge 15, Type (0, 1), BuildingBlock: UVAHIK_clean_linker_0, # of connection points: 2
#     Edge 16, Type (0, 1), BuildingBlock: UVAHIK_clean_linker_0, # of connection points: 2
#     Edge 17, Type (0, 1), BuildingBlock: UVAHIK_clean_linker_0, # of connection points: 2
#     Edge 18, Type (0, 1), BuildingBlock: UVAHIK_clean_linker_0, # of connection points: 2
#     Edge 19, Type (0, 1), BuildingBlock: UVAHIK_clean_linker_0, # of connection points: 2
#     Edge 20, Type (0, 1), BuildingBlock: UVAHIK_clean_linker_0, # of connection points: 2
#     Edge 21, Type (0, 1), BuildingBlock: UVAHIK_clean_linker_0, # of connection points: 2
#     Edge 22, Type (0, 1), BuildingBlock: UVAHIK_clean_linker_0, # of connection points: 2
#     Edge 23, Type (0, 1), BuildingBlock: UVAHIK_clean_linker_0, # of connection points: 2
#     Edge 24, Type (0, 1), BuildingBlock: UVAHIK_clean_linker_0, # of connection points: 2
#     Edge 25, Type (0, 1), BuildingBlock: UVAHIK_clean_linker_0, # of connection points: 2
#     Edge 26, Type (0, 1), BuildingBlock: UVAHIK_clean_linker_0, # of connection points: 2
#     Edge 27, Type (0, 1), BuildingBlock: UVAHIK_clean_linker_0, # of connection points: 2
#     Edge 28, Type (0, 1), BuildingBlock: UVAHIK_clean_linker_0, # of connection points: 2
#     Edge 29, Type (0, 1), BuildingBlock: UVAHIK_clean_linker_0, # of connection points: 2
#     Edge 30, Type (0, 1), BuildingBlock: UVAHIK_clean_linker_0, # of connection points: 2
#     Edge 31, Type (0, 1), BuildingBlock: UVAHIK_clean_linker_0, # of connection points: 2
#     Edge 32, Type (0, 1), BuildingBlock: UVAHIK_clean_linker_0, # of connection points: 2
#     Edge 33, Type (0, 1), BuildingBlock: UVAHIK_clean_linker_0, # of connection points: 2
# Relax obj value: 0.009
# Max RMSD: 0.108
# Mean RMSD: 0.091
data_MOF--net-llj--node1-QEWDON_clean_sbu_0--node2-PAMTOO_clean_linker_0--edge1-UVAHIK_clean_linker_0
_symmetry_space_group_name_H-M    P1
_symmetry_Int_Tables_number       1
_symmetry_cell_setting            triclinic
loop_
_symmetry_equiv_pos_as_xyz
'x, y, z'
_cell_length_a     49.621753
_cell_length_b     49.596872
_cell_length_c     31.124924
_cell_angle_alpha  91.265703
_cell_angle_beta   90.309141
_cell_angle_gamma 90.164146
loop_
_atom_site_label
_atom_site_type_symbol
_atom_site_fract_x
_atom_site_fract_y
_atom_site_fract_z
_atom_type_partial_charge
Zn0 Zn 0.95721 0.05168 0.95245 0.0
Zn1 Zn 0.96172 0.05204 0.05477 0.0
O2 O 0.98309 0.04586 0.00167 0.0
H3 H -0.00056 0.03539 -0.00049 0.0
C4 C 0.92357 0.98578 0.91636 0.0
O5 O 0.92307 -0.0015 0.95383 0.0
Zn6 Zn 0.04759 0.94342 0.07426 0.0
Zn7 Zn 0.05074 0.93562 0.97162 0.0
O8 O 0.02649 0.94756 0.02014 0.0
H9 H 0.01242 0.96071 0.01655 0.0
Zn10 Zn 0.94667 0.9464 0.97111 0.0
O11 O 0.9579 0.97422 0.01575 0.0
Zn12 Zn 0.95336 0.95684 0.07231 0.0
H13 H 0.97036 0.98862 0.00969 0.0
Zn14 Zn 0.05318 0.0469 0.97523 0.0
O15 O 0.05961 0.01709 0.01771 0.0
H16 H 0.05528 -0.00176 0.01294 0.0
Zn17 Zn 0.05674 0.03928 0.07141 0.0
C18 C 0.04707 0.01508 0.8962 0.0
O19 O 0.02933 0.00256 0.91988 0.0
O20 O 0.92228 0.07085 0.97111 0.0
O21 O 0.92642 0.07127 0.04237 0.0
O22 O 0.08585 0.91796 0.99169 0.0
O23 O 0.08213 0.92235 0.06279 0.0
O24 O 0.92632 0.91445 0.99664 0.0
O25 O 0.92994 0.9232 0.06692 0.0
C26 C 0.00862 0.06765 0.10007 0.0
O27 O 0.06974 0.08322 0.99557 0.0
O28 O 0.07646 0.07488 0.06463 0.0
O29 O 0.03244 0.92303 0.91463 0.0
C30 C 0.91336 0.0771 0.00834 0.0
O31 O 0.97476 0.06186 0.89489 0.0
C32 C -0.00103 0.92978 0.11607 0.0
O33 O 0.93286 0.96197 0.91414 0.0
C34 C 0.09491 0.91418 0.02948 0.0
O35 O 0.05949 0.0354 0.91208 0.0
C36 C 0.94014 0.00819 0.10799 0.0
O37 O 0.98406 0.07423 0.09635 0.0
O38 O 0.01733 0.04734 0.07892 0.0
C39 C 0.92122 0.90863 0.03546 0.0
O40 O 0.0239 0.92421 0.11726 0.0
O41 O 0.99096 0.94723 0.08976 0.0
C42 C 0.07137 0.99339 0.12139 0.0
O43 O 0.93622 0.98329 0.114 0.0
O44 O 0.95449 0.01516 0.07661 0.0
C45 C 0.07884 0.09027 0.03253 0.0
O46 O 0.07352 0.01889 0.1201 0.0
O47 O 0.05676 0.98159 0.09298 0.0
C48 C 0.00724 0.91848 0.91543 0.0
O49 O 0.99438 0.92131 0.95201 0.0
C50 C -0.00153 0.07152 0.89756 0.0
O51 O 0.00973 0.07462 0.93564 0.0
Zn52 Zn 0.45138 0.5649 0.45685 0.0
Zn53 Zn 0.45309 0.55387 0.55781 0.0
O54 O 0.47397 0.54939 0.50374 0.0
H55 H 0.48899 0.53738 0.49907 0.0
C56 C 0.42751 0.49871 0.4127 0.0
O57 O 0.43076 0.5113 0.44995 0.0
Zn58 Zn 0.54695 0.44001 0.55873 0.0
Zn59 Zn 0.55091 0.43387 0.4579 0.0
O60 O 0.52381 0.43751 0.50617 0.0
H61 H 0.50531 0.44316 0.50299 0.0
Zn62 Zn 0.44894 0.4542 0.46158 0.0
O63 O 0.46151 0.47752 0.51226 0.0
Zn64 Zn 0.45509 0.45565 0.56409 0.0
H65 H 0.47533 0.49113 0.51036 0.0
Zn66 Zn 0.55402 0.53977 0.45863 0.0
O67 O 0.54271 0.51601 0.5072 0.0
H68 H 0.53031 0.50107 0.50342 0.0
Zn69 Zn 0.54695 0.53858 0.5607 0.0
C70 C 0.57568 0.49603 0.40688 0.0
O71 O 0.57308 0.48408 0.44388 0.0
O72 O 0.41673 0.58328 0.47777 0.0
O73 O 0.41751 0.57367 0.54733 0.0
O74 O 0.58593 0.41567 0.47756 0.0
O75 O 0.58146 0.41919 0.54851 0.0
O76 O 0.42738 0.42069 0.47856 0.0
O77 O 0.43074 0.42367 0.5497 0.0
C78 C 0.50137 0.56914 0.59978 0.0
O79 O 0.57355 0.57417 0.4795 0.0
O80 O 0.57048 0.57178 0.55065 0.0
O81 O 0.53521 0.42151 0.39904 0.0
C82 C 0.40611 0.58436 0.51496 0.0
O83 O 0.47026 0.57629 0.4011 0.0
C84 C 0.50212 0.42763 0.61056 0.0
O85 O 0.43412 0.47407 0.40901 0.0
C86 C 0.59447 0.41115 0.5154 0.0
O87 O 0.56868 0.52054 0.40399 0.0
C88 C 0.43565 0.50411 0.60866 0.0
O89 O 0.47657 0.57527 0.59966 0.0
O90 O 0.50928 0.55013 0.57506 0.0
C91 C 0.42171 0.41201 0.51563 0.0
O92 O 0.52733 0.42355 0.60847 0.0
O93 O 0.49173 0.44288 0.5827 0.0
C94 C 0.56333 0.49058 0.60385 0.0
O95 O 0.43691 0.47856 0.60985 0.0
O96 O 0.44735 0.51585 0.57797 0.0
C97 C 0.57881 0.58356 0.51707 0.0
O98 O 0.56325 0.51611 0.60765 0.0
O99 O 0.55328 0.4795 0.57033 0.0
C100 C 0.51266 0.43097 0.3873 0.0
O101 O 0.50075 0.44911 0.41199 0.0
C102 C 0.49586 0.57683 0.40138 0.0
O103 O 0.5088 0.57067 0.43673 0.0
H104 H 0.39545 0.32302 0.99175 0.0
H105 H 0.3301 0.29491 0.06944 0.0
H106 H 0.32324 0.29119 0.93203 0.0
H107 H 0.27359 0.30924 0.97898 0.0
C108 C 0.27656 0.29757 0.00876 0.0
O109 O 0.29901 0.28142 0.00456 0.0
H110 H 0.27933 0.3122 0.03609 0.0
C111 C 0.37583 0.31354 0.9943 0.0
C112 C 0.36106 0.30712 0.9568 0.0
C113 C 0.36485 0.30943 0.0351 0.0
C114 C 0.33892 0.29831 0.03824 0.0
C115 C 0.32403 0.29184 0.00111 0.0
C116 C 0.33502 0.29624 0.9605 0.0
H117 H 0.66388 0.38463 -0.00231 0.0
H118 H 0.70123 0.32033 0.06728 0.0
H119 H 0.69586 0.31548 0.92984 0.0
H120 H 0.68392 0.26426 0.97409 0.0
C121 C 0.69706 0.26738 0.00287 0.0
O122 O 0.71164 0.2909 -0.00088 0.0
H123 H 0.68388 0.26865 0.03169 0.0
C124 C 0.67458 0.36562 -0.00186 0.0
C125 C 0.67958 0.35185 0.95913 0.0
C126 C 0.68203 0.35448 0.03759 0.0
C127 C 0.69494 0.32929 0.03744 0.0
C128 C 0.69964 0.31526 -0.0013 0.0
C129 C 0.69199 0.32648 0.95964 0.0
H130 H 0.61076 0.65662 0.98812 0.0
H131 H 0.66831 0.71226 0.93656 0.0
H132 H 0.66185 0.70426 0.07284 0.0
H133 H 0.66781 0.7592 0.04414 0.0
C134 C 0.68214 0.7557 0.0172 0.0
O135 O 0.68691 0.72852 0.01155 0.0
H136 H 0.67305 0.76391 0.98747 0.0
C137 C 0.62673 0.67136 0.99305 0.0
C138 C 0.63462 0.67898 0.03502 0.0
C139 C 0.6387 0.68327 0.95729 0.0
C140 C 0.65869 0.70302 0.96375 0.0
C141 C 0.66686 0.71045 0.00543 0.0
C142 C 0.65496 0.69847 0.04085 0.0
H143 H 0.33176 0.60464 0.00833 0.0
H144 H 0.29991 0.67108 0.08362 0.0
H145 H 0.30038 0.67476 0.94642 0.0
H146 H 0.31918 0.72461 0.99269 0.0
C147 C 0.30664 0.72291 0.02207 0.0
O148 O 0.28972 0.7009 0.01798 0.0
H149 H 0.32044 0.72054 0.05006 0.0
C150 C 0.32176 0.62402 0.01037 0.0
C151 C 0.31593 0.63771 0.97238 0.0
C152 C 0.31623 0.63576 0.05089 0.0
C153 C 0.30458 0.66153 0.05293 0.0
C154 C 0.29939 0.67557 0.01536 0.0
C155 C 0.30478 0.66366 0.97521 0.0
H156 H 0.88215 0.85051 0.49341 0.0
H157 H 0.82901 0.80764 0.57747 0.0
H158 H 0.81705 0.80242 0.44103 0.0
H159 H 0.76824 0.81343 0.4961 0.0
C160 C 0.77332 0.79964 0.52269 0.0
O161 O 0.79834 0.78834 0.51594 0.0
H162 H 0.77348 0.81174 0.55324 0.0
C163 C 0.86509 0.83724 0.49825 0.0
C164 C 0.85077 0.82708 0.46237 0.0
C165 C 0.85765 0.8303 0.54012 0.0
C166 C 0.83516 0.81343 0.54562 0.0
C167 C 0.82042 0.80376 0.51003 0.0
C168 C 0.82846 0.81019 0.46843 0.0
H169 H 0.16768 0.89748 0.51002 0.0
H170 H 0.19164 0.83513 0.59617 0.0
H171 H 0.20465 0.82488 0.46053 0.0
H172 H 0.18221 0.77738 0.51237 0.0
C173 C 0.19619 0.77993 0.5403 0.0
O174 O 0.21102 0.80328 0.53598 0.0
H175 H 0.18417 0.78119 0.57032 0.0
C176 C 0.17715 0.87817 0.51551 0.0
C177 C 0.18644 0.8627 0.48034 0.0
C178 C 0.17855 0.86833 0.55734 0.0
C179 C 0.19007 0.84295 0.56402 0.0
C180 C 0.19946 0.82739 0.52913 0.0
C181 C 0.19741 0.83711 0.48732 0.0
H182 H 0.11113 0.15907 0.48404 0.0
H183 H 0.16798 0.21739 0.43787 0.0
H184 H 0.15618 0.20948 0.57324 0.0
H185 H 0.16485 0.2653 0.54772 0.0
C186 C 0.17711 0.26149 0.51838 0.0
O187 O 0.18293 0.23445 0.51432 0.0
H188 H 0.16531 0.26822 0.49005 0.0
C189 C 0.12611 0.17464 0.49029 0.0
C190 C 0.13196 0.18275 0.53284 0.0
C191 C 0.13882 0.18717 0.45572 0.0
C192 C 0.15769 0.20776 0.46407 0.0
C193 C 0.16383 0.21564 0.5064 0.0
C194 C 0.15098 0.20328 0.54062 0.0
H195 H 0.85044 0.1062 0.50286 0.0
H196 H 0.79515 0.16374 0.45047 0.0
H197 H 0.79263 0.14636 0.58469 0.0
H198 H 0.73926 0.1558 0.54735 0.0
C199 C 0.74519 0.16919 0.52075 0.0
O200 O 0.77219 0.17534 0.52394 0.0
H201 H 0.7408 0.15846 0.48968 0.0
C202 C 0.83421 0.12057 0.50734 0.0
C203 C 0.8227 0.12433 0.54813 0.0
C204 C 0.82429 0.13455 0.4719 0.0
C205 C 0.80283 0.15257 0.47744 0.0
C206 C 0.79162 0.15676 0.51815 0.0
C207 C 0.8014 0.14265 0.5533 0.0
C208 C 0.09759 0.13247 0.0017 0.0
C209 C 0.09383 0.11603 0.03741 0.0
C210 C 0.11392 0.15537 0.00481 0.0
C211 C 0.17157 0.18212 0.0661 0.0
H212 H 0.15725 0.24647 0.00129 0.0
C213 C 0.24807 0.27002 0.05821 0.0
C214 C 0.25244 0.28012 0.01705 0.0
C215 C 0.22651 0.25254 0.06557 0.0
C216 C 0.16156 0.22859 0.01945 0.0
H217 H 0.10316 0.11165 0.10513 0.0
H218 H 0.13163 0.15186 0.11055 0.0
H219 H 0.12242 0.21191 0.00678 0.0
H220 H 0.23834 0.27957 0.95112 0.0
H221 H 0.20064 0.24899 0.96378 0.0
H222 H 0.21092 0.19851 0.07792 0.0
C223 C 0.12223 0.1467 0.07996 0.0
C224 C 0.14161 0.20882 0.02264 0.0
C225 C 0.10583 0.12373 0.07688 0.0
C226 C 0.23504 0.2724 0.98329 0.0
C227 C 0.21344 0.25501 0.99064 0.0
C228 C 0.1915 0.20193 0.06297 0.0
C229 C 0.12687 0.16247 0.04371 0.0
C230 C 0.1466 0.18507 0.04517 0.0
C231 C 0.20901 0.24477 0.03182 0.0
C232 C 0.18692 0.22511 0.03882 0.0
H233 H 0.08859 0.12724 0.97083 0.0
H234 H 0.11729 0.16686 0.97613 0.0
H235 H 0.1762 0.16393 0.08324 0.0
H236 H 0.26151 0.27549 0.08454 0.0
H237 H 0.22357 0.24508 0.09766 0.0
C238 C 0.87313 0.09865 0.97469 0.0
C239 C 0.88787 0.09244 0.01187 0.0
C240 C 0.85013 0.1147 0.9774 0.0
C241 C 0.81929 0.16716 0.04558 0.0
H242 H 0.75711 0.15413 0.97192 0.0
C243 C 0.72677 0.23767 0.04739 0.0
C244 C 0.71627 0.24425 0.00701 0.0
C245 C 0.74584 0.21716 0.05102 0.0
C246 C 0.7744 0.15811 0.99251 0.0
H247 H 0.88934 0.09742 0.08133 0.0
H248 H 0.84902 0.12542 0.08598 0.0
H249 H 0.79343 0.12111 0.97342 0.0
H250 H 0.71792 0.23544 0.9387 0.0
H251 H 0.75138 0.19962 0.94478 0.0
H252 H 0.80054 0.20441 0.06403 0.0
C253 C 0.85555 0.11811 0.05469 0.0
C254 C 0.79518 0.13919 0.99341 0.0
C255 C 0.87857 0.10197 0.05201 0.0
C256 C 0.72535 0.23027 0.97024 0.0
C257 C 0.7444 0.20974 0.97382 0.0
C258 C 0.79851 0.18609 0.04468 0.0
C259 C 0.84128 0.12492 0.01733 0.0
C260 C 0.81806 0.14371 0.01944 0.0
C261 C 0.75493 0.20301 0.01423 0.0
C262 C 0.77602 0.18197 0.01762 0.0
H263 H 0.87963 0.09159 0.94324 0.0
H264 H 0.83979 0.11981 0.94796 0.0
H265 H 0.83681 0.17141 0.06555 0.0
H266 H 0.72031 0.24855 0.07608 0.0
H267 H 0.75348 0.21238 0.0826 0.0
C268 C 0.89413 0.86906 0.00933 0.0
C269 C 0.90274 0.88589 0.04364 0.0
C270 C 0.87361 0.8503 0.01507 0.0
C271 C 0.81372 0.84151 0.08014 0.0
H272 H 0.80848 0.77418 0.01482 0.0
C273 C 0.71563 0.77764 0.06849 0.0
C274 C 0.70851 0.76953 0.02643 0.0
C275 C 0.74099 0.78896 0.07707 0.0
C276 C 0.80967 0.79293 0.03326 0.0
H277 H 0.89797 0.89477 0.11181 0.0
H278 H 0.86193 0.86181 0.12178 0.0
H279 H 0.85173 0.79755 0.02051 0.0
H280 H 0.72212 0.76609 0.96065 0.0
H281 H 0.76642 0.78604 0.9754 0.0
H282 H 0.77144 0.83723 0.0918 0.0
C283 C 0.87089 0.86351 0.09029 0.0
C284 C 0.83441 0.80627 0.0366 0.0
C285 C 0.89159 0.88228 0.08459 0.0
C286 C 0.72716 0.77256 0.9932 0.0
C287 C 0.75252 0.78366 0.00178 0.0
C288 C 0.78897 0.82809 0.07695 0.0
C289 C 0.86119 0.84786 0.05526 0.0
C290 C 0.8365 0.83116 0.05885 0.0
C291 C 0.75973 0.79191 0.0438 0.0
C292 C 0.78655 0.80414 0.05229 0.0
H293 H 0.90243 0.87113 0.97744 0.0
H294 H 0.86647 0.83877 0.98729 0.0
H295 H 0.81458 0.86079 0.09714 0.0
H296 H 0.70168 0.77503 0.09473 0.0
H297 H 0.7461 0.795 0.10977 0.0
C298 C 0.13572 0.89198 -0.0017 0.0
C299 C 0.12057 0.89948 0.03464 0.0
C300 C 0.15921 0.87695 0.00258 0.0
C301 C 0.19058 0.82817 0.07263 0.0
H302 H 0.25277 0.83999 0.00036 0.0
C303 C 0.28086 0.75517 0.06972 0.0
C304 C 0.28986 0.7477 0.02849 0.0
C305 C 0.26322 0.77685 0.0753 0.0
C306 C 0.23553 0.83642 0.02069 0.0
H307 H 0.11872 0.89776 0.10423 0.0
H308 H 0.15988 0.87127 0.11158 0.0
H309 H 0.21637 0.87297 0.00202 0.0
H310 H 0.28726 0.75631 0.96076 0.0
H311 H 0.25631 0.79415 0.97027 0.0
H312 H 0.20927 0.79118 0.09021 0.0
C313 C 0.15335 0.87696 0.07979 0.0
C314 C 0.21474 0.85529 0.02168 0.0
C315 C 0.12985 0.89217 0.07554 0.0
C316 C 0.28099 0.76216 0.99293 0.0
C317 C 0.2634 0.78383 -0.00154 0.0
C318 C 0.21137 0.80926 0.0716 0.0
C319 C 0.16811 0.869 0.04327 0.0
C320 C 0.19176 0.85102 0.04684 0.0
C321 C 0.25412 0.79126 0.03967 0.0
C322 C 0.23375 0.81287 0.04481 0.0
H323 H 0.12923 0.89734 0.96632 0.0
H324 H 0.16994 0.8708 0.97379 0.0
H325 H 0.17299 0.82419 0.09198 0.0
H326 H 0.28715 0.74394 0.09747 0.0
H327 H 0.25649 0.78215 0.10743 0.0
C328 C 0.60451 0.62117 0.4842 0.0
C329 C 0.59625 0.60778 0.52127 0.0
C330 C 0.62294 0.64238 0.48704 0.0
C331 C 0.65446 0.69266 0.56046 0.0
H332 H 0.7108 0.69126 0.4745 0.0
C333 C 0.74531 0.7667 0.56427 0.0
C334 C 0.75252 0.77765 0.52472 0.0
C335 C 0.72626 0.7459 0.56589 0.0
C336 C 0.69507 0.69212 0.49848 0.0
H337 H 0.59997 0.60716 0.59077 0.0
H338 H 0.6325 0.64431 0.59563 0.0
H339 H 0.67693 0.65572 0.47421 0.0
H340 H 0.74643 0.77508 0.45589 0.0
H341 H 0.71292 0.73894 0.45853 0.0
H342 H 0.67271 0.72923 0.58458 0.0
C343 C 0.62459 0.63826 0.56437 0.0
C344 C 0.67565 0.67174 0.49833 0.0
C345 C 0.60603 0.61693 0.56155 0.0
C346 C 0.74088 0.76712 0.48676 0.0
C347 C 0.7219 0.74634 0.48833 0.0
C348 C 0.67396 0.71313 0.56062 0.0
C349 C 0.63367 0.65079 0.52698 0.0
C350 C 0.6549 0.67196 0.52892 0.0
C351 C 0.71435 0.73548 0.52791 0.0
C352 C 0.69429 0.71323 0.52926 0.0
H353 H 0.59714 0.61495 0.45267 0.0
H354 H 0.629 0.65205 0.45775 0.0
H355 H 0.63865 0.69345 0.58431 0.0
H356 H 0.75443 0.77424 0.59388 0.0
H357 H 0.72119 0.73769 0.59679 0.0
C358 C 0.36946 0.61342 0.48618 0.0
C359 C 0.38055 0.59933 0.52071 0.0
C360 C 0.34636 0.62899 0.49172 0.0
C361 C 0.30747 0.66485 0.57561 0.0
H362 H 0.25764 0.67439 0.48083 0.0
C363 C 0.23973 0.75823 0.56405 0.0
C364 C 0.21476 0.75603 0.54276 0.0
C365 C 0.25713 0.7362 0.56537 0.0
C366 C 0.271 0.67171 0.50801 0.0
H367 H 0.37542 0.58981 0.58791 0.0
H368 H 0.33461 0.61666 0.59736 0.0
H369 H 0.29206 0.63984 0.4755 0.0
H370 H 0.18733 0.72853 0.5097 0.0
H371 H 0.21741 0.68971 0.5129 0.0
H372 H 0.28607 0.69641 0.60843 0.0
C373 C 0.34418 0.61606 0.56617 0.0
C374 C 0.29105 0.6521 0.50467 0.0
C375 C 0.3675 0.60056 0.5607 0.0
C376 C 0.20682 0.73093 0.52519 0.0
C377 C 0.2241 0.70876 0.52694 0.0
C378 C 0.28721 0.68428 0.57915 0.0
C379 C 0.33351 0.63071 0.53183 0.0
C380 C 0.31002 0.64895 0.5379 0.0
C381 C 0.24969 0.71124 0.54638 0.0
C382 C 0.26916 0.68846 0.54492 0.0
H383 H 0.37898 0.61301 0.45493 0.0
H384 H 0.3391 0.64037 0.46474 0.0
H385 H 0.32178 0.6631 0.60178 0.0
H386 H 0.24607 0.77718 0.57891 0.0
H387 H 0.27673 0.73903 0.58027 0.0
C388 C 0.39004 0.37818 0.48227 0.0
C389 C 0.402 0.38977 0.51934 0.0
C390 C 0.36844 0.36032 0.48562 0.0
C391 C 0.31286 0.34622 0.55829 0.0
H392 H 0.29904 0.2867 0.47825 0.0
C393 C 0.21524 0.28225 0.56144 0.0
C394 C 0.20321 0.27668 0.5213 0.0
C395 C 0.24082 0.29402 0.56393 0.0
C396 C 0.30258 0.30337 0.50066 0.0
H397 H 0.40192 0.39012 0.58914 0.0
H398 H 0.36429 0.3587 0.59488 0.0
H399 H 0.34295 0.30899 0.47863 0.0
H400 H 0.20844 0.27811 0.45243 0.0
H401 H 0.25303 0.29916 0.45658 0.0
H402 H 0.27233 0.34094 0.57975 0.0
C403 C 0.37134 0.36389 0.56323 0.0
C404 C 0.32773 0.31606 0.50096 0.0
C405 C 0.39299 0.38177 0.5599 0.0
C406 C 0.2172 0.28276 0.4837 0.0
C407 C 0.24278 0.29445 0.48614 0.0
C408 C 0.28774 0.33349 0.55804 0.0
C409 C 0.35834 0.35361 0.52611 0.0
C410 C 0.33297 0.33794 0.52924 0.0
C411 C 0.25492 0.30006 0.52628 0.0
C412 C 0.28218 0.31227 0.52868 0.0
H413 H 0.39655 0.38379 0.45052 0.0
H414 H 0.35876 0.35292 0.45639 0.0
H415 H 0.31611 0.36329 0.58002 0.0
H416 H 0.20501 0.27708 0.59081 0.0
H417 H 0.24981 0.29782 0.59528 0.0
C418 C 0.62513 0.38423 0.56192 0.0
C419 C 0.61792 0.39322 0.5209 0.0
C420 C 0.64353 0.36321 0.56631 0.0
C421 C 0.69316 0.32049 0.50759 0.0
H422 H 0.66477 0.26384 0.5786 0.0
C423 C 0.72546 0.20995 0.48619 0.0
C424 C 0.72983 0.1951 0.52339 0.0
C425 C 0.71403 0.23559 0.48904 0.0
C426 C 0.67321 0.27958 0.55915 0.0
H427 H 0.62623 0.38889 0.45268 0.0
H428 H 0.65802 0.35217 0.46035 0.0
H429 H 0.64322 0.30786 0.5794 0.0
H430 H 0.72661 0.19539 0.59271 0.0
H431 H 0.70637 0.24028 0.59787 0.0
H432 H 0.72274 0.29188 0.48652 0.0
C433 C 0.64953 0.36131 0.48914 0.0
C434 C 0.66095 0.30486 0.55973 0.0
C435 C 0.63115 0.3823 0.48472 0.0
C436 C 0.72274 0.20628 0.56354 0.0
C437 C 0.71127 0.23193 0.56643 0.0
C438 C 0.70543 0.29519 0.507 0.0
C439 C 0.65512 0.35086 0.52981 0.0
C440 C 0.67049 0.32543 0.53337 0.0
C441 C 0.70703 0.24694 0.52923 0.0
C442 C 0.69525 0.27433 0.53216 0.0
H443 H 0.61553 0.3924 0.59052 0.0
H444 H 0.64787 0.3559 0.59815 0.0
H445 H 0.70116 0.33606 0.48734 0.0
H446 H 0.73133 0.20187 0.45501 0.0
H447 H 0.71069 0.24654 0.45976 0.0
C448 C 0.04313 0.07069 0.15758 0.0
C449 C 0.02688 0.08369 0.12764 0.0
C450 C 0.06027 0.08556 0.18464 0.0
C451 C 0.06676 0.15212 0.23569 0.0
H452 H 0.13542 0.12331 0.27293 0.0
C453 C 0.12575 0.19799 0.38019 0.0
C454 C 0.13216 0.17874 0.41105 0.0
C455 C 0.11749 0.1898 0.3389 0.0
C456 C 0.11636 0.13168 0.26263 0.0
H457 H 0.01529 0.12223 0.10215 0.0
H458 H 0.04544 0.14861 0.14981 0.0
H459 H 0.11233 0.10291 0.21075 0.0
H460 H 0.13628 0.13603 0.4226 0.0
H461 H 0.1219 0.1217 0.35059 0.0
H462 H 0.07041 0.18033 0.28845 0.0
C463 C 0.04501 0.12686 0.15227 0.0
C464 C 0.10314 0.12001 0.22716 0.0
C465 C 0.02779 0.11187 0.12513 0.0
C466 C 0.1312 0.15125 0.39948 0.0
C467 C 0.12326 0.14309 0.35816 0.0
C468 C 0.08009 0.16391 0.27103 0.0
C469 C 0.06132 0.11383 0.18251 0.0
C470 C 0.0777 0.12943 0.21437 0.0
C471 C 0.11591 0.16225 0.32768 0.0
C472 C 0.10452 0.15315 0.28576 0.0
H473 H 0.04175 0.04909 0.16119 0.0
H474 H 0.07192 0.07494 0.20841 0.0
H475 H 0.04711 0.15974 0.22685 0.0
H476 H 0.12625 0.21933 0.38843 0.0
H477 H 0.11198 0.20497 0.31595 0.0
C478 C 0.94535 0.04557 0.16139 0.0
C479 C 0.92842 0.02835 0.1373 0.0
C480 C 0.93461 0.06295 0.19262 0.0
C481 C 0.87213 0.0939 0.23374 0.0
H482 H 0.90664 0.08611 0.34482 0.0
C483 C 0.82014 0.12155 0.39419 0.0
C484 C 0.83629 0.12987 0.42917 0.0
C485 C 0.83197 0.1141 0.35507 0.0
C486 C 0.89704 0.08913 0.31398 0.0
H487 H 0.88722 0.01563 0.12583 0.0
H488 H 0.86818 0.04617 0.18073 0.0
H489 H 0.92634 0.06473 0.28172 0.0
H490 H 0.87701 0.13882 0.45038 0.0
H491 H 0.89769 0.12685 0.38169 0.0
H492 H 0.84265 0.11819 0.26622 0.0
C493 C 0.88969 0.04658 0.17505 0.0
C494 C 0.90834 0.07676 0.27779 0.0
C495 C 0.90052 0.02904 0.14399 0.0
C496 C 0.86424 0.13208 0.42388 0.0
C497 C 0.87602 0.12509 0.38465 0.0
C498 C 0.86093 0.10659 0.27001 0.0
C499 C 0.90673 0.06326 0.2003 0.0
C500 C 0.89582 0.07869 0.23745 0.0
C501 C 0.86013 0.1152 0.35015 0.0
C502 C 0.87306 0.10401 0.3107 0.0
H503 H 0.967 0.04457 0.15762 0.0
H504 H 0.94817 0.07557 0.2117 0.0
H505 H 0.86221 0.09581 0.20288 0.0
H506 H 0.79852 0.11961 0.39773 0.0
H507 H 0.81911 0.10631 0.32944 0.0
C508 C 0.98111 0.88769 0.14826 0.0
C509 C 0.97972 0.9157 0.14354 0.0
C510 C 0.96313 0.87459 0.17536 0.0
C511 C 0.89984 0.88542 0.23842 0.0
H512 H 0.93003 0.83032 0.31074 0.0
C513 C 0.86212 0.86137 0.40785 0.0
C514 C 0.85949 0.83419 0.41874 0.0
C515 C 0.87271 0.8683 0.36812 0.0
C516 C 0.92117 0.84535 0.29029 0.0
H517 H 0.95954 0.95215 0.16435 0.0
H518 H 0.92844 0.92972 0.21208 0.0
H519 H 0.95673 0.84801 0.25224 0.0
H520 H 0.86528 0.7929 0.39681 0.0
H521 H 0.88464 0.80508 0.32735 0.0
H522 H 0.86491 0.8838 0.27859 0.0
C523 C 0.94248 0.91748 0.1937 0.0
C524 C 0.93642 0.85547 0.25661 0.0
C525 C 0.96024 0.93044 0.16629 0.0
C526 C 0.86702 0.81399 0.38889 0.0
C527 C 0.87814 0.82094 0.3494 0.0
C528 C 0.88478 0.87559 0.27253 0.0
C529 C 0.94376 0.88939 0.19885 0.0
C530 C 0.92621 0.87612 0.23088 0.0
C531 C 0.88133 0.84817 0.3389 0.0
C532 C 0.89554 0.85587 0.2993 0.0
H533 H 0.99603 0.87593 0.13087 0.0
H534 H 0.96453 0.85292 0.17809 0.0
H535 H 0.89103 0.9008 0.21862 0.0
H536 H 0.85641 0.87725 0.43045 0.0
H537 H 0.87522 0.88944 0.36099 0.0
C538 C 0.10535 0.99257 0.18082 0.0
C539 C 0.0869 0.97853 0.15406 0.0
C540 C 0.11999 0.97914 0.21212 0.0
C541 C 0.14176 0.91165 0.24672 0.0
H542 H 0.14571 0.94711 0.35884 0.0
C543 C 0.16952 0.85799 0.40464 0.0
C544 C 0.18316 0.87321 0.43655 0.0
C545 C 0.16196 0.86987 0.36606 0.0
C546 C 0.14528 0.93709 0.32756 0.0
H547 H 0.06975 0.93922 0.13959 0.0
H548 H 0.09505 0.91574 0.19428 0.0
H549 H 0.12394 0.96977 0.29982 0.0
H550 H 0.20174 0.9118 0.45199 0.0
H551 H 0.18914 0.93239 0.38437 0.0
H552 H 0.16275 0.87868 0.27509 0.0
C553 C 0.09843 0.93714 0.19051 0.0
C554 C 0.13273 0.95009 0.2937 0.0
C555 C 0.08376 0.95065 0.15917 0.0
C556 C 0.19088 0.8998 0.42805 0.0
C557 C 0.18354 0.91158 0.38948 0.0
C558 C 0.15438 0.89858 0.28075 0.0
C559 C 0.11651 0.95132 0.21763 0.0
C560 C 0.13072 0.93752 0.25294 0.0
C561 C 0.16808 0.8971 0.35877 0.0
C562 C 0.15621 0.91117 0.32159 0.0
H563 H 0.10851 0.01406 0.17773 0.0
H564 H 0.13405 0.9906 0.2321 0.0
H565 H 0.14074 0.90157 0.21552 0.0
H566 H 0.16324 0.83748 0.4106 0.0
H567 H 0.14996 0.85821 0.34315 0.0
C568 C 0.04749 0.97719 0.8419 0.0
C569 C 0.05565 0.00334 0.85447 0.0
C570 C 0.05916 0.96431 0.80628 0.0
C571 C 0.12191 0.9663 0.74348 0.0
H572 H 0.08485 0.91323 0.67125 0.0
C573 C 0.17115 0.91194 0.59753 0.0
C574 C 0.16644 0.88406 0.59325 0.0
C575 C 0.1576 0.92728 0.6287 0.0
C576 C 0.09547 0.92787 0.69143 0.0
H577 H 0.08047 0.03749 0.83727 0.0
H578 H 0.10024 0.0153 0.77441 0.0
H579 H 0.05933 0.94004 0.72351 0.0
H580 H 0.14429 0.85026 0.61855 0.0
H581 H 0.12062 0.8771 0.67325 0.0
H582 H 0.15801 0.95417 0.71108 0.0
C583 C 0.08562 0.00433 0.79299 0.0
C584 C 0.08087 0.94324 0.72133 0.0
C585 C 0.07414 0.01712 0.82884 0.0
C586 C 0.14845 0.87168 0.62142 0.0
C587 C 0.13469 0.88707 0.65232 0.0
C588 C 0.13644 0.9511 0.71332 0.0
C589 C 0.07897 0.97743 0.78218 0.0
C590 C 0.09396 0.96248 0.74803 0.0
C591 C 0.13889 0.91506 0.65589 0.0
C592 C 0.12341 0.93155 0.68732 0.0
H593 H 0.03307 0.96616 0.86072 0.0
H594 H 0.0536 0.9436 0.79897 0.0
H595 H 0.13278 0.98052 0.76407 0.0
H596 H 0.18503 0.92194 0.57631 0.0
H597 H 0.16116 0.94883 0.63068 0.0
C598 C 0.03989 0.08872 0.86208 0.0
C599 C 0.01305 0.07981 0.85878 0.0
C600 C 0.05351 0.09757 0.82594 0.0
C601 C 0.05079 0.09837 0.70668 0.0
H602 H 0.09627 0.16145 0.7237 0.0
C603 C 0.11587 0.14173 0.57075 0.0
C604 C 0.11815 0.16992 0.56913 0.0
C605 C 0.1033 0.12968 0.60554 0.0
C606 C 0.08345 0.14399 0.71825 0.0
H607 H 0.97957 0.07273 0.81485 0.0
H608 H 0.00306 0.0891 0.75193 0.0
H609 H 0.07376 0.14211 0.78481 0.0
H610 H 0.10842 0.20766 0.60172 0.0
H611 H 0.08596 0.18677 0.66195 0.0
H612 H 0.05966 0.10103 0.6397 0.0
C613 C 0.0138 0.08867 0.78228 0.0
C614 C 0.07086 0.1326 0.75346 0.0
C615 C 0.00025 0.07949 0.81841 0.0
C616 C 0.1073 0.18586 0.60254 0.0
C617 C 0.09452 0.17386 0.63708 0.0
C618 C 0.06324 0.10991 0.67132 0.0
C619 C 0.0405 0.09814 0.78575 0.0
C620 C 0.05436 0.10967 0.74815 0.0
C621 C 0.09256 0.14562 0.63921 0.0
C622 C 0.07962 0.13294 0.67669 0.0
H623 H 0.0504 0.08907 0.89268 0.0
H624 H 0.07425 0.10414 0.82962 0.0
H625 H 0.03844 0.08054 0.7015 0.0
H626 H 0.1243 0.12899 0.54554 0.0
H627 H 0.10248 0.10788 0.60642 0.0
C628 C 0.91308 0.98546 0.8375 0.0
C629 C 0.9134 -0.00092 0.87758 0.0
C630 C 0.90313 -0.00184 0.80108 0.0
C631 C 0.85951 0.05462 0.76906 0.0
H632 H 0.89547 0.0459 0.65937 0.0
C633 C 0.81484 0.09699 0.61352 0.0
C634 C 0.83289 0.10912 0.58517 0.0
C635 C 0.82443 0.08255 0.64837 0.0
C636 C 0.88531 0.04868 0.68985 0.0
H637 H 0.90379 0.0367 0.9108 0.0
H638 H 0.88711 0.05902 0.84735 0.0
H639 H 0.91315 0.02306 0.72206 0.0
H640 H 0.87508 0.11594 0.57121 0.0
H641 H 0.89189 0.09106 0.63247 0.0
H642 H 0.8322 0.0809 0.73732 0.0
C643 C 0.89401 0.03838 0.84409 0.0
C644 C 0.89525 0.03533 0.72563 0.0
C645 C 0.9038 0.02566 0.88044 0.0
C646 C 0.86072 0.10651 0.5923 0.0
C647 C 0.87033 0.0922 0.62729 0.0
C648 C 0.84965 0.06803 0.73337 0.0
C649 C 0.8934 0.02474 0.80405 0.0
C650 C 0.88253 0.03828 0.76569 0.0
C651 C 0.85229 0.08008 0.65575 0.0
C652 C 0.86249 0.0653 0.69339 0.0
H653 H 0.92032 0.96492 0.83427 0.0
H654 H 0.90268 0.98701 0.77077 0.0
H655 H 0.84903 0.05702 0.79933 0.0
H656 H 0.79328 0.09836 0.60839 0.0
H657 H 0.81001 0.07309 0.66929 0.0
C658 C 0.00618 0.90615 0.83691 0.0
C659 C 0.99242 0.91059 0.87576 0.0
C660 C 0.99205 0.89878 0.79948 0.0
C661 C 0.92463 0.90003 0.74965 0.0
H662 H 0.95124 0.84018 0.67988 0.0
C663 C 0.86033 0.84896 0.61578 0.0
C664 C 0.87339 0.84057 0.57784 0.0
C665 C 0.87519 0.85849 0.65126 0.0
C666 C 0.94372 0.85719 0.6986 0.0
H667 H 0.95309 0.91056 0.90588 0.0
H668 H 0.92846 0.89795 0.84053 0.0
H669 H 0.97681 0.85557 0.74288 0.0
H670 H 0.91242 0.83544 0.54767 0.0
H671 H 0.93824 0.85281 0.60898 0.0
H672 H 0.8916 0.90178 0.70535 0.0
C673 C 0.95013 0.90041 0.83893 0.0
C674 C 0.95837 0.86597 0.73473 0.0
C675 C 0.96427 0.90755 0.87639 0.0
C676 C 0.90167 0.84204 0.57619 0.0
C677 C 0.91652 0.85168 0.61157 0.0
C678 C 0.91005 0.89137 0.71335 0.0
C679 C 0.96388 0.89584 0.80013 0.0
C680 C 0.94888 0.88734 0.7608 0.0
C681 C 0.90347 0.85995 0.64959 0.0
C682 C 0.91932 0.86971 0.68755 0.0
H683 H 0.02788 0.90818 0.83544 0.0
H684 H 0.00315 0.89556 0.76994 0.0
H685 H 0.91703 0.9168 0.76886 0.0
H686 H 0.83856 0.84839 0.618 0.0
H687 H 0.86449 0.86438 0.6802 0.0
C688 C 0.53809 0.57007 0.65411 0.0
C689 C 0.52047 0.5841 0.6275 0.0
C690 C 0.55519 0.58402 0.68256 0.0
C691 C 0.5601 0.6487 0.74193 0.0
H692 H 0.62986 0.62038 0.77463 0.0
C693 C 0.62287 0.69416 0.8831 0.0
C694 C 0.63023 0.67489 0.91337 0.0
C695 C 0.61315 0.68599 0.8426 0.0
C696 C 0.61047 0.62858 0.76564 0.0
H697 H 0.50667 0.62355 0.60903 0.0
H698 H 0.53696 0.64826 0.6584 0.0
H699 H 0.6063 0.60114 0.71201 0.0
H700 H 0.63436 0.63216 0.92473 0.0
H701 H 0.61761 0.61787 0.8539 0.0
H702 H 0.56417 0.67584 0.79606 0.0
C703 C 0.53751 0.62643 0.65761 0.0
C704 C 0.59692 0.61753 0.72994 0.0
C705 C 0.52025 0.61237 0.62933 0.0
C706 C 0.62861 0.64739 0.90201 0.0
C707 C 0.61928 0.63924 0.86141 0.0
C708 C 0.57379 0.65993 0.77737 0.0
C709 C 0.55494 0.61238 0.685 0.0
C710 C 0.57119 0.62688 0.71849 0.0
C711 C 0.61109 0.65844 0.83154 0.0
C712 C 0.59871 0.64942 0.79029 0.0
H713 H 0.53764 0.54828 0.65453 0.0
H714 H 0.56772 0.57248 0.70398 0.0
H715 H 0.5402 0.65622 0.73439 0.0
H716 H 0.62386 0.7155 0.89123 0.0
H717 H 0.60699 0.70117 0.82007 0.0
C718 C 0.4205 0.5472 0.64568 0.0
C719 C 0.42049 0.51893 0.64257 0.0
C720 C 0.40658 0.5606 0.67869 0.0
C721 C 0.38015 0.54896 0.78715 0.0
H722 H 0.34144 0.61572 0.76988 0.0
C723 C 0.31815 0.59765 0.92223 0.0
C724 C 0.32291 0.62525 0.93018 0.0
C725 C 0.32728 0.58517 0.88448 0.0
C726 C 0.35228 0.59714 0.77512 0.0
H727 H 0.40496 0.48251 0.67128 0.0
H728 H 0.38052 0.50575 0.72817 0.0
H729 H 0.363 0.59283 0.70873 0.0
H730 H 0.34002 0.66165 0.90403 0.0
H731 H 0.35588 0.63979 0.83784 0.0
H732 H 0.36958 0.55321 0.85338 0.0
C733 C 0.39176 0.51767 0.70562 0.0
C734 C 0.36468 0.58409 0.74021 0.0
C735 C 0.40573 0.50435 0.6728 0.0
C736 C 0.33585 0.64039 0.89865 0.0
C737 C 0.34495 0.62789 0.86077 0.0
C738 C 0.36769 0.56189 0.82187 0.0
C739 C 0.39229 0.54593 0.70931 0.0
C740 C 0.37876 0.55985 0.7459 0.0
C741 C 0.3413 0.60003 0.85382 0.0
C742 C 0.35365 0.58611 0.81627 0.0
H743 H 0.4315 0.55908 0.62323 0.0
H744 H 0.4076 0.5824 0.68083 0.0
H745 H 0.39133 0.53065 0.79286 0.0
H746 H 0.30777 0.58558 0.94558 0.0
H747 H 0.32375 0.56375 0.87958 0.0
C748 C 0.45786 0.41741 0.64599 0.0
C749 C 0.4858 0.41358 0.64308 0.0
C750 C 0.44262 0.40355 0.67599 0.0
C751 C 0.4442 0.3442 0.74596 0.0
H752 H 0.38942 0.3834 0.8098 0.0
C753 C 0.39974 0.30817 0.90551 0.0
C754 C 0.3725 0.31352 0.9143 0.0
C755 C 0.4116 0.31746 0.86805 0.0
C756 C 0.40429 0.372 0.79173 0.0
H757 H 0.51977 0.39219 0.67029 0.0
H758 H 0.49331 0.36841 0.72317 0.0
H759 H 0.41428 0.40595 0.75371 0.0
H760 H 0.336 0.33169 0.88978 0.0
H761 H 0.35666 0.34762 0.8239 0.0
H762 H 0.43453 0.31041 0.78476 0.0
C763 C 0.48303 0.38178 0.70149 0.0
C764 C 0.41859 0.38495 0.75962 0.0
C765 C 0.49823 0.39562 0.67136 0.0
C766 C 0.35701 0.32716 0.88379 0.0
C767 C 0.36891 0.33653 0.84632 0.0
C768 C 0.4299 0.33125 0.77815 0.0
C769 C 0.45503 0.38557 0.70411 0.0
C770 C 0.43893 0.37131 0.73671 0.0
C771 C 0.39649 0.33233 0.83856 0.0
C772 C 0.41 0.34511 0.80173 0.0
H773 H 0.4476 0.43101 0.62521 0.0
H774 H 0.42105 0.40677 0.67685 0.0
H775 H 0.45942 0.33299 0.72837 0.0
H776 H 0.41209 0.29745 0.92826 0.0
H777 H 0.43293 0.31403 0.8632 0.0
C778 C 0.59557 0.45632 0.62985 0.0
C779 C 0.57441 0.47424 0.63835 0.0
C780 C 0.60704 0.44163 0.66303 0.0
C781 C 0.61444 0.44305 0.78129 0.0
H782 H 0.6397 0.36979 0.76311 0.0
C783 C 0.677 0.39097 0.91021 0.0
C784 C 0.6709 0.36392 0.9183 0.0
C785 C 0.66659 0.40337 0.87395 0.0
C786 C 0.63257 0.39016 0.76882 0.0
H787 H 0.5484 0.49118 0.6874 0.0
H788 H 0.56783 0.465 0.74552 0.0
H789 H 0.61696 0.39282 0.7048 0.0
H790 H 0.64982 0.32832 0.89442 0.0
H791 H 0.63102 0.3501 0.83133 0.0
H792 H 0.62911 0.44019 0.84558 0.0
C793 C 0.57597 0.46247 0.71349 0.0
C794 C 0.6198 0.40348 0.73524 0.0
C795 C 0.56472 0.47733 0.68032 0.0
C796 C 0.65496 0.34917 0.88867 0.0
C797 C 0.64426 0.36166 0.85255 0.0
C798 C 0.627 0.4297 0.81486 0.0
C799 C 0.59749 0.44465 0.70534 0.0
C800 C 0.6106 0.43012 0.74109 0.0
C801 C 0.64953 0.38908 0.84522 0.0
C802 C 0.63635 0.40314 0.80904 0.0
H803 H 0.60393 0.45448 0.59788 0.0
H804 H 0.62395 0.42859 0.65572 0.0
H805 H 0.60802 0.46368 0.78682 0.0
H806 H 0.68957 0.40266 0.93232 0.0
H807 H 0.67165 0.42429 0.86874 0.0
C808 C 0.59222 0.45349 0.37158 0.0
C809 C 0.58717 0.4813 0.36954 0.0
C810 C 0.60331 0.43953 0.33655 0.0
C811 C 0.64523 0.44854 0.24216 0.0
H812 H 0.61232 0.38193 0.2003 0.0
C813 C 0.67611 0.39693 0.08207 0.0
C814 C 0.67499 0.36863 0.07861 0.0
C815 C 0.66694 0.41039 0.11902 0.0
C816 C 0.62209 0.40023 0.21201 0.0
H817 H 0.58996 0.51634 0.32921 0.0
H818 H 0.60984 0.49192 0.26819 0.0
H819 H 0.59282 0.406 0.26168 0.0
H820 H 0.6642 0.33228 0.11217 0.0
H821 H 0.64944 0.35567 0.17731 0.0
H822 H 0.67479 0.44266 0.19316 0.0
C823 C 0.60506 0.48099 0.29694 0.0
C824 C 0.61079 0.41407 0.24702 0.0
C825 C 0.59358 0.4949 0.33177 0.0
C826 C 0.66557 0.35408 0.11377 0.0
C827 C 0.65667 0.36753 0.15093 0.0
C828 C 0.65675 0.43454 0.20746 0.0
C829 C 0.61 0.45318 0.29903 0.0
C830 C 0.62216 0.43842 0.26222 0.0
C831 C 0.65673 0.39588 0.15368 0.0
C832 C 0.64523 0.41027 0.19177 0.0
H833 H 0.58767 0.44247 0.40027 0.0
H834 H 0.60711 0.41812 0.33907 0.0
H835 H 0.65456 0.46712 0.25367 0.0
H836 H 0.68369 0.40878 0.05592 0.0
H837 H 0.66712 0.43223 0.11977 0.0
C838 C 0.49719 0.59162 0.32506 0.0
C839 C 0.51092 0.58473 0.36285 0.0
C840 C 0.51147 0.59986 0.28909 0.0
C841 C 0.57618 0.62977 0.2588 0.0
H842 H 0.5547 0.60735 0.14342 0.0
C843 C 0.61445 0.68307 0.10848 0.0
C844 C 0.62145 0.66687 0.07268 0.0
C845 C 0.60182 0.67181 0.14381 0.0
C846 C 0.56109 0.6136 0.17546 0.0
H847 H 0.55041 0.58041 0.39221 0.0
H848 H 0.57529 0.59463 0.32932 0.0
H849 H 0.53129 0.58896 0.20508 0.0
H850 H 0.62106 0.62606 0.04614 0.0
H851 H 0.5989 0.60637 0.10793 0.0
H852 H 0.60607 0.65427 0.22927 0.0
C853 C 0.55349 0.59402 0.32773 0.0
C854 C 0.54751 0.60329 0.21072 0.0
C855 C 0.53922 0.58577 0.36368 0.0
C856 C 0.61558 0.63913 0.07301 0.0
C857 C 0.60291 0.62786 0.10837 0.0
C858 C 0.5897 0.64012 0.22357 0.0
C859 C 0.53976 0.60137 0.29019 0.0
C860 C 0.55481 0.6114 0.25275 0.0
C861 C 0.5959 0.64409 0.14413 0.0
C862 C 0.58218 0.6323 0.18152 0.0
H863 H 0.47538 0.59097 0.32338 0.0
H864 H 0.50031 0.60566 0.26077 0.0
H865 H 0.5821 0.63661 0.29078 0.0
H866 H 0.61829 0.70458 0.10889 0.0
H867 H 0.59625 0.68492 0.17059 0.0
C868 C 0.40865 0.49838 0.33792 0.0
C869 C 0.41559 0.51275 0.37586 0.0
C870 C 0.39677 0.51161 0.30352 0.0
C871 C 0.39138 0.57724 0.25459 0.0
H872 H 0.32555 0.54925 0.20249 0.0
C873 C 0.33523 0.63649 0.12582 0.0
C874 C 0.32426 0.6218 0.09072 0.0
C875 C 0.34473 0.62325 0.16194 0.0
C876 C 0.34411 0.55715 0.21627 0.0
H877 H 0.41553 0.55217 0.4073 0.0
H878 H 0.39547 0.57536 0.34685 0.0
H879 H 0.34638 0.52549 0.26193 0.0
H880 H 0.31366 0.58165 0.06704 0.0
H881 H 0.33141 0.55849 0.12905 0.0
H882 H 0.38982 0.60838 0.20843 0.0
C883 C 0.39916 0.55388 0.34391 0.0
C884 C 0.35595 0.54358 0.25035 0.0
C885 C 0.41063 0.54059 0.37851 0.0
C886 C 0.3224 0.59358 0.09316 0.0
C887 C 0.33225 0.5803 0.12906 0.0
C888 C 0.37978 0.5906 0.22017 0.0
C889 C 0.39201 0.53948 0.30623 0.0
C890 C 0.37962 0.55358 0.26984 0.0
C891 C 0.34388 0.59496 0.16365 0.0
C892 C 0.35594 0.5808 0.20066 0.0
H893 H 0.41218 0.47688 0.33488 0.0
H894 H 0.39159 0.50013 0.27462 0.0
H895 H 0.40983 0.58514 0.26883 0.0
H896 H 0.33728 0.65822 0.12499 0.0
H897 H 0.35304 0.63525 0.18834 0.0
C898 C 0.51201 0.40143 0.32094 0.0
C899 C 0.4988 0.41972 0.34874 0.0
C900 C 0.49811 0.3891 0.28659 0.0
C901 C 0.42975 0.36974 0.25318 0.0
H902 H 0.46033 0.3627 0.13914 0.0
C903 C 0.36716 0.33422 0.10591 0.0
C904 C 0.37994 0.31851 0.074 0.0
C905 C 0.38196 0.34518 0.14039 0.0
C906 C 0.45167 0.3641 0.17097 0.0
H907 H 0.46099 0.44007 0.36142 0.0
H908 H 0.43676 0.4186 0.30157 0.0
H909 H 0.486 0.38549 0.19636 0.0
H910 H 0.41789 0.30088 0.05407 0.0
H911 H 0.4437 0.31953 0.11478 0.0
H912 H 0.39555 0.34818 0.22813 0.0
C913 C 0.45776 0.41357 0.30664 0.0
C914 C 0.46634 0.37726 0.20365 0.0
C915 C 0.47169 0.42602 0.34073 0.0
C916 C 0.40762 0.31319 0.078 0.0
C917 C 0.42239 0.32399 0.11264 0.0
C918 C 0.41516 0.35642 0.22061 0.0
C919 C 0.47071 0.3947 0.2796 0.0
C920 C 0.45543 0.3804 0.24498 0.0
C921 C 0.40983 0.3405 0.14385 0.0
C922 C 0.42585 0.3536 0.17902 0.0
H923 H 0.53295 0.39625 0.32614 0.0
H924 H 0.50858 0.37457 0.26629 0.0
H925 H 0.42105 0.37147 0.28496 0.0
H926 H 0.34592 0.33895 0.10331 0.0
H927 H 0.3717 0.3581 0.16349 0.0
loop_
_geom_bond_atom_site_label_1
_geom_bond_atom_site_label_2
_geom_bond_distance
_geom_bond_site_symmetry_2
_ccdc_geom_bond_type
Zn0 O2 1.933 1_556 S
Zn0 O20 1.985 . S
Zn0 O31 1.955 . S
Zn1 O2 1.911 . S
Zn1 O21 1.970 . S
Zn1 O37 1.945 . S
Zn1 O44 1.981 . S
O2 Zn0 1.933 1_554 S
O2 Zn1 1.911 . S
O2 H3 0.841 1_655 S
H3 O2 0.841 1_455 S
C4 O5 1.246 . S
C4 O33 1.244 1_545 S
O5 C4 1.246 . S
Zn6 O8 1.911 . S
Zn6 O23 1.970 . S
Zn6 O40 1.945 . S
Zn6 O47 1.981 . S
Zn7 O8 1.933 1_556 S
Zn7 O22 1.985 . S
Zn7 O29 1.955 . S
O8 Zn6 1.911 . S
O8 Zn7 1.933 1_554 S
O8 H9 0.841 1_455 S
H9 O8 0.841 1_655 S
Zn10 O11 1.933 1_556 S
Zn10 O24 1.985 . S
Zn10 O33 1.968 . S
O11 Zn10 1.933 1_554 S
O11 Zn12 1.911 . S
O11 H13 0.841 1_565 S
Zn12 O11 1.911 . S
Zn12 O25 1.970 . S
Zn12 O41 1.981 . S
Zn12 O43 1.945 . S
H13 O11 0.841 1_545 S
Zn14 O15 1.933 1_556 S
Zn14 O27 1.985 . S
Zn14 O35 1.955 . S
O15 Zn14 1.933 1_554 S
O15 H16 0.841 1_545 S
O15 Zn17 1.911 . S
H16 O15 0.841 1_565 S
Zn17 O15 1.911 . S
Zn17 O28 1.970 . S
Zn17 O38 1.981 . S
Zn17 O46 1.945 . S
C18 O19 1.246 . S
C18 O35 1.276 1_565 S
O19 C18 1.246 . S
O20 Zn0 1.985 . S
O20 C30 1.245 1_556 S
O21 Zn1 1.970 . S
O21 C30 1.263 . S
O22 Zn7 1.985 . S
O22 C34 1.245 1_556 S
O23 Zn6 1.970 . S
O23 C34 1.263 . S
O24 Zn10 1.985 . S
O24 C39 1.245 1_556 S
O25 Zn12 1.970 . S
O25 C39 1.263 . S
C26 O37 1.262 1_455 S
C26 O38 1.245 . S
O27 Zn14 1.985 . S
O27 C45 1.245 1_556 S
O28 Zn17 1.970 . S
O28 C45 1.263 . S
O29 Zn7 1.955 . S
O29 C48 1.276 1_455 S
C30 O20 1.245 1_554 S
C30 O21 1.263 . S
O31 Zn0 1.955 . S
O31 C50 1.276 1_655 S
C32 O40 1.262 1_655 S
C32 O41 1.245 . S
O33 C4 1.244 1_565 S
O33 Zn10 1.968 . S
C34 O22 1.245 1_554 S
C34 O23 1.263 . S
O35 Zn14 1.955 . S
O35 C18 1.276 1_545 S
C36 O43 1.262 1_545 S
C36 O44 1.245 . S
O37 Zn1 1.945 . S
O37 C26 1.262 1_655 S
O38 Zn17 1.981 . S
O38 C26 1.245 . S
C39 O24 1.245 1_554 S
C39 O25 1.263 . S
O40 Zn6 1.945 . S
O40 C32 1.262 1_455 S
O41 Zn12 1.981 . S
O41 C32 1.245 . S
C42 O46 1.262 1_565 S
C42 O47 1.245 . S
O43 Zn12 1.945 . S
O43 C36 1.262 1_565 S
O44 Zn1 1.981 . S
O44 C36 1.245 . S
C45 O27 1.245 1_554 S
C45 O28 1.263 . S
O46 Zn17 1.945 . S
O46 C42 1.262 1_545 S
O47 Zn6 1.981 . S
O47 C42 1.245 . S
C48 O29 1.276 1_655 S
C48 O49 1.246 . S
O49 C48 1.246 . S
C50 O31 1.276 1_455 S
C50 O51 1.246 . S
O51 C50 1.246 . S
Zn52 O54 1.933 . S
Zn52 O72 1.985 . S
Zn52 O83 1.955 . S
Zn53 O54 1.911 . S
Zn53 O73 1.970 . S
Zn53 O89 1.945 . S
Zn53 O96 1.981 . S
O54 Zn52 1.933 . S
O54 Zn53 1.911 . S
O54 H55 0.841 . S
H55 O54 0.841 . S
C56 O57 1.246 . S
C56 O85 1.276 . S
O57 C56 1.246 . S
Zn58 O60 1.911 . S
Zn58 O75 1.970 . S
Zn58 O92 1.945 . S
Zn58 O99 1.981 . S
Zn59 O60 1.933 . S
Zn59 O74 1.985 . S
Zn59 O81 1.955 . S
O60 Zn58 1.911 . S
O60 Zn59 1.933 . S
O60 H61 0.841 . S
H61 O60 0.841 . S
Zn62 O63 1.933 . S
Zn62 O76 1.985 . S
Zn62 O85 1.955 . S
O63 Zn62 1.933 . S
O63 Zn64 1.911 . S
O63 H65 0.841 . S
Zn64 O63 1.911 . S
Zn64 O77 1.970 . S
Zn64 O93 1.981 . S
Zn64 O95 1.945 . S
H65 O63 0.841 . S
Zn66 O67 1.933 . S
Zn66 O79 1.985 . S
Zn66 O87 1.955 . S
O67 Zn66 1.933 . S
O67 H68 0.841 . S
O67 Zn69 1.911 . S
H68 O67 0.841 . S
Zn69 O67 1.911 . S
Zn69 O80 1.970 . S
Zn69 O90 1.981 . S
Zn69 O98 1.945 . S
C70 O71 1.246 . S
C70 O87 1.276 . S
O71 C70 1.246 . S
O72 Zn52 1.985 . S
O72 C82 1.245 . S
O73 Zn53 1.970 . S
O73 C82 1.263 . S
O74 Zn59 1.985 . S
O74 C86 1.245 . S
O75 Zn58 1.970 . S
O75 C86 1.263 . S
O76 Zn62 1.985 . S
O76 C91 1.245 . S
O77 Zn64 1.970 . S
O77 C91 1.263 . S
C78 O89 1.262 . S
C78 O90 1.245 . S
O79 Zn66 1.985 . S
O79 C97 1.245 . S
O80 Zn69 1.970 . S
O80 C97 1.263 . S
O81 Zn59 1.955 . S
O81 C100 1.276 . S
C82 O72 1.245 . S
C82 O73 1.263 . S
O83 Zn52 1.955 . S
O83 C102 1.276 . S
C84 O92 1.262 . S
C84 O93 1.245 . S
O85 C56 1.276 . S
O85 Zn62 1.955 . S
C86 O74 1.245 . S
C86 O75 1.263 . S
O87 Zn66 1.955 . S
O87 C70 1.276 . S
C88 O95 1.262 . S
C88 O96 1.245 . S
O89 Zn53 1.945 . S
O89 C78 1.262 . S
O90 Zn69 1.981 . S
O90 C78 1.245 . S
C91 O76 1.245 . S
C91 O77 1.263 . S
O92 Zn58 1.945 . S
O92 C84 1.262 . S
O93 Zn64 1.981 . S
O93 C84 1.245 . S
C94 O98 1.262 . S
C94 O99 1.245 . S
O95 Zn64 1.945 . S
O95 C88 1.262 . S
O96 Zn53 1.981 . S
O96 C88 1.245 . S
C97 O79 1.245 . S
C97 O80 1.263 . S
O98 Zn69 1.945 . S
O98 C94 1.262 . S
O99 Zn58 1.981 . S
O99 C94 1.245 . S
C100 O81 1.276 . S
C100 O101 1.246 . S
O101 C100 1.246 . S
C102 O83 1.276 . S
C102 O103 1.246 . S
O103 C102 1.246 . S
H104 C111 0.929 . S
H105 C114 0.930 . S
H106 C116 0.929 . S
H107 C108 0.969 . S
C108 H107 0.969 . S
C108 O109 1.550 1_554 S
C108 H110 0.973 . S
O109 C108 1.550 1_556 S
O109 C115 1.412 . S
H110 C108 0.973 . S
C111 H104 0.929 . S
C111 C112 1.400 1_554 S
C111 C113 1.364 . S
C112 C111 1.400 1_556 S
C112 C116 1.377 . S
C113 C111 1.364 . S
C113 C114 1.374 . S
C114 H105 0.930 . S
C114 C113 1.374 . S
C114 C115 1.383 1_554 S
C115 O109 1.412 . S
C115 C114 1.383 1_556 S
C115 C116 1.394 . S
C116 H106 0.929 . S
C116 C112 1.377 . S
C116 C115 1.394 . S
H117 C124 0.929 . S
H118 C127 0.930 . S
H119 C129 0.929 . S
H120 C121 0.969 . S
C121 H120 0.969 . S
C121 O122 1.550 1_554 S
C121 H123 0.973 . S
O122 C121 1.550 1_556 S
O122 C128 1.412 1_556 S
H123 C121 0.973 . S
C124 H117 0.929 . S
C124 C125 1.400 1_554 S
C124 C126 1.364 . S
C125 C124 1.400 1_556 S
C125 C129 1.377 . S
C126 C124 1.364 . S
C126 C127 1.374 . S
C127 H118 0.930 . S
C127 C126 1.374 . S
C127 C128 1.383 . S
C128 O122 1.412 1_554 S
C128 C127 1.383 . S
C128 C129 1.394 1_554 S
C129 H119 0.929 . S
C129 C125 1.377 . S
C129 C128 1.394 1_556 S
H130 C137 0.929 . S
H131 C140 0.930 . S
H132 C142 0.929 . S
H133 C134 0.969 . S
C134 H133 0.969 . S
C134 O135 1.550 1_556 S
C134 H136 0.973 . S
O135 C134 1.550 1_554 S
O135 C141 1.412 . S
H136 C134 0.973 . S
C137 H130 0.929 . S
C137 C138 1.400 . S
C137 C139 1.364 1_554 S
C138 C137 1.400 . S
C138 C142 1.377 . S
C139 C137 1.364 1_556 S
C139 C140 1.374 . S
C140 H131 0.930 . S
C140 C139 1.374 . S
C140 C141 1.383 1_556 S
C141 O135 1.412 . S
C141 C140 1.383 1_554 S
C141 C142 1.394 . S
C142 H132 0.929 . S
C142 C138 1.377 . S
C142 C141 1.394 . S
H143 C150 0.929 . S
H144 C153 0.930 . S
H145 C155 0.929 . S
H146 C147 0.969 . S
C147 H146 0.969 . S
C147 O148 1.550 1_554 S
C147 H149 0.973 . S
O148 C147 1.550 1_556 S
O148 C154 1.411 1_556 S
H149 C147 0.973 . S
C150 H143 0.929 . S
C150 C151 1.400 1_554 S
C150 C152 1.364 . S
C151 C150 1.400 1_556 S
C151 C155 1.377 . S
C152 C150 1.364 . S
C152 C153 1.374 . S
C153 H144 0.930 . S
C153 C152 1.374 . S
C153 C154 1.390 . S
C154 O148 1.411 1_554 S
C154 C153 1.390 . S
C154 C155 1.388 1_554 S
C155 H145 0.929 . S
C155 C151 1.377 . S
C155 C154 1.388 1_556 S
H156 C163 0.929 . S
H157 C166 0.930 . S
H158 C168 0.929 . S
H159 C160 0.969 . S
C160 H159 0.969 . S
C160 O161 1.550 . S
C160 H162 0.973 . S
O161 C160 1.550 . S
O161 C167 1.412 . S
H162 C160 0.973 . S
C163 H156 0.929 . S
C163 C164 1.400 . S
C163 C165 1.364 . S
C164 C163 1.400 . S
C164 C168 1.377 . S
C165 C163 1.364 . S
C165 C166 1.374 . S
C166 H157 0.930 . S
C166 C165 1.374 . S
C166 C167 1.383 . S
C167 O161 1.412 . S
C167 C166 1.383 . S
C167 C168 1.394 . S
C168 H158 0.929 . S
C168 C164 1.377 . S
C168 C167 1.394 . S
H169 C176 0.929 . S
H170 C179 0.930 . S
H171 C181 0.929 . S
H172 C173 0.969 . S
C173 H172 0.969 . S
C173 O174 1.550 . S
C173 H175 0.973 . S
O174 C173 1.550 . S
O174 C180 1.412 . S
H175 C173 0.973 . S
C176 H169 0.929 . S
C176 C177 1.400 . S
C176 C178 1.364 . S
C177 C176 1.400 . S
C177 C181 1.377 . S
C178 C176 1.364 . S
C178 C179 1.374 . S
C179 H170 0.930 . S
C179 C178 1.374 . S
C179 C180 1.383 . S
C180 O174 1.412 . S
C180 C179 1.383 . S
C180 C181 1.394 . S
C181 H171 0.929 . S
C181 C177 1.377 . S
C181 C180 1.394 . S
H182 C189 0.929 . S
H183 C192 0.930 . S
H184 C194 0.929 . S
H185 C186 0.969 . S
C186 H185 0.969 . S
C186 O187 1.550 . S
C186 H188 0.973 . S
O187 C186 1.550 . S
O187 C193 1.412 . S
H188 C186 0.973 . S
C189 H182 0.929 . S
C189 C190 1.400 . S
C189 C191 1.364 . S
C190 C189 1.400 . S
C190 C194 1.377 . S
C191 C189 1.364 . S
C191 C192 1.374 . S
C192 H183 0.930 . S
C192 C191 1.374 . S
C192 C193 1.383 . S
C193 O187 1.412 . S
C193 C192 1.383 . S
C193 C194 1.394 . S
C194 H184 0.929 . S
C194 C190 1.377 . S
C194 C193 1.394 . S
H195 C202 0.929 . S
H196 C205 0.930 . S
H197 C207 0.929 . S
H198 C199 0.969 . S
C199 H198 0.969 . S
C199 O200 1.550 . S
C199 H201 0.973 . S
O200 C199 1.550 . S
O200 C206 1.412 . S
H201 C199 0.973 . S
C202 H195 0.929 . S
C202 C203 1.400 . S
C202 C204 1.364 . S
C203 C202 1.400 . S
C203 C207 1.377 . S
C204 C202 1.364 . S
C204 C205 1.374 . S
C205 H196 0.930 . S
C205 C204 1.374 . S
C205 C206 1.383 . S
C206 O200 1.412 . S
C206 C205 1.383 . S
C206 C207 1.394 . S
C207 H197 0.929 . S
C207 C203 1.377 . S
C207 C206 1.394 . S
C208 C209 1.349 1_556 S
C208 C210 1.327 . S
C208 H233 0.950 . S
C209 C208 1.349 1_554 S
C209 C225 1.349 . S
C210 C208 1.327 . S
C210 C229 1.429 1_556 S
C210 H234 0.950 . S
C211 C228 1.574 . S
C211 C230 1.368 . S
C211 H235 0.949 . S
H212 C216 0.949 . S
C213 C214 1.349 . S
C213 C215 1.327 . S
C213 H236 0.950 . S
C214 C213 1.349 . S
C214 C226 1.349 1_554 S
C215 C213 1.327 . S
C215 C231 1.429 . S
C215 H237 0.950 . S
C216 H212 0.949 . S
C216 C224 1.574 . S
C216 C232 1.368 1_556 S
H217 C225 0.950 . S
H218 C223 0.950 . S
H219 C224 0.949 . S
H220 C226 0.950 . S
H221 C227 0.950 . S
H222 C228 0.949 . S
C223 H218 0.950 . S
C223 C225 1.327 . S
C223 C229 1.429 . S
C224 C216 1.574 . S
C224 H219 0.949 . S
C224 C230 1.368 1_556 S
C225 C209 1.349 . S
C225 H217 0.950 . S
C225 C223 1.327 . S
C226 C214 1.349 1_556 S
C226 H220 0.950 . S
C226 C227 1.327 . S
C227 H221 0.950 . S
C227 C226 1.327 . S
C227 C231 1.429 1_556 S
C228 C211 1.574 . S
C228 H222 0.949 . S
C228 C232 1.368 . S
C229 C210 1.429 1_554 S
C229 C223 1.429 . S
C229 C230 1.523 . S
C230 C211 1.368 . S
C230 C224 1.368 1_554 S
C230 C229 1.523 . S
C231 C215 1.429 . S
C231 C227 1.429 1_554 S
C231 C232 1.523 . S
C232 C216 1.368 1_554 S
C232 C228 1.368 . S
C232 C231 1.523 . S
H233 C208 0.950 . S
H234 C210 0.950 . S
H235 C211 0.949 . S
H236 C213 0.950 . S
H237 C215 0.950 . S
C238 C239 1.349 1_556 S
C238 C240 1.327 . S
C238 H263 0.950 . S
C239 C238 1.349 1_554 S
C239 C255 1.349 . S
C240 C238 1.327 . S
C240 C259 1.429 1_556 S
C240 H264 0.950 . S
C241 C258 1.574 . S
C241 C260 1.368 . S
C241 H265 0.949 . S
H242 C246 0.949 . S
C243 C244 1.349 . S
C243 C245 1.327 . S
C243 H266 0.950 . S
C244 C243 1.349 . S
C244 C256 1.349 1_554 S
C245 C243 1.327 . S
C245 C261 1.429 . S
C245 H267 0.950 . S
C246 H242 0.949 . S
C246 C254 1.574 . S
C246 C262 1.368 1_556 S
H247 C255 0.950 . S
H248 C253 0.950 . S
H249 C254 0.949 . S
H250 C256 0.950 . S
H251 C257 0.950 . S
H252 C258 0.949 . S
C253 H248 0.950 . S
C253 C255 1.327 . S
C253 C259 1.429 . S
C254 C246 1.574 . S
C254 H249 0.949 . S
C254 C260 1.368 1_556 S
C255 C239 1.349 . S
C255 H247 0.950 . S
C255 C253 1.327 . S
C256 C244 1.349 1_556 S
C256 H250 0.950 . S
C256 C257 1.327 . S
C257 H251 0.950 . S
C257 C256 1.327 . S
C257 C261 1.429 1_556 S
C258 C241 1.574 . S
C258 H252 0.949 . S
C258 C262 1.368 . S
C259 C240 1.429 1_554 S
C259 C253 1.429 . S
C259 C260 1.523 . S
C260 C241 1.368 . S
C260 C254 1.368 1_554 S
C260 C259 1.523 . S
C261 C245 1.429 . S
C261 C257 1.429 1_554 S
C261 C262 1.523 . S
C262 C246 1.368 1_554 S
C262 C258 1.368 . S
C262 C261 1.523 . S
H263 C238 0.950 . S
H264 C240 0.950 . S
H265 C241 0.949 . S
H266 C243 0.950 . S
H267 C245 0.950 . S
C268 C269 1.349 1_556 S
C268 C270 1.327 . S
C268 H293 0.950 . S
C269 C268 1.349 1_554 S
C269 C285 1.349 . S
C270 C268 1.327 . S
C270 C289 1.429 1_556 S
C270 H294 0.950 . S
C271 C288 1.574 . S
C271 C290 1.368 . S
C271 H295 0.949 . S
H272 C276 0.949 . S
C273 C274 1.349 . S
C273 C275 1.327 . S
C273 H296 0.950 . S
C274 C273 1.349 . S
C274 C286 1.349 1_554 S
C275 C273 1.327 . S
C275 C291 1.429 . S
C275 H297 0.950 . S
C276 H272 0.949 . S
C276 C284 1.574 . S
C276 C292 1.368 1_556 S
H277 C285 0.950 . S
H278 C283 0.950 . S
H279 C284 0.949 . S
H280 C286 0.950 . S
H281 C287 0.950 . S
H282 C288 0.949 . S
C283 H278 0.950 . S
C283 C285 1.327 . S
C283 C289 1.429 . S
C284 C276 1.574 . S
C284 H279 0.949 . S
C284 C290 1.368 1_556 S
C285 C269 1.349 . S
C285 H277 0.950 . S
C285 C283 1.327 . S
C286 C274 1.349 1_556 S
C286 H280 0.950 . S
C286 C287 1.327 . S
C287 H281 0.950 . S
C287 C286 1.327 . S
C287 C291 1.429 1_556 S
C288 C271 1.574 . S
C288 H282 0.949 . S
C288 C292 1.368 . S
C289 C270 1.429 1_554 S
C289 C283 1.429 . S
C289 C290 1.523 . S
C290 C271 1.368 . S
C290 C284 1.368 1_554 S
C290 C289 1.523 . S
C291 C275 1.429 . S
C291 C287 1.429 1_554 S
C291 C292 1.523 . S
C292 C276 1.368 1_554 S
C292 C288 1.368 . S
C292 C291 1.523 . S
H293 C268 0.950 . S
H294 C270 0.950 . S
H295 C271 0.949 . S
H296 C273 0.950 . S
H297 C275 0.950 . S
C298 C299 1.349 1_556 S
C298 C300 1.327 . S
C298 H323 0.950 . S
C299 C298 1.349 1_554 S
C299 C315 1.349 . S
C300 C298 1.327 . S
C300 C319 1.429 1_556 S
C300 H324 0.950 . S
C301 C318 1.574 . S
C301 C320 1.368 . S
C301 H325 0.949 . S
H302 C306 0.949 . S
C303 C304 1.349 . S
C303 C305 1.327 . S
C303 H326 0.950 . S
C304 C303 1.349 . S
C304 C316 1.349 1_554 S
C305 C303 1.327 . S
C305 C321 1.429 . S
C305 H327 0.950 . S
C306 H302 0.949 . S
C306 C314 1.574 . S
C306 C322 1.368 1_556 S
H307 C315 0.950 . S
H308 C313 0.950 . S
H309 C314 0.949 . S
H310 C316 0.950 . S
H311 C317 0.950 . S
H312 C318 0.949 . S
C313 H308 0.950 . S
C313 C315 1.327 . S
C313 C319 1.429 . S
C314 C306 1.574 . S
C314 H309 0.949 . S
C314 C320 1.368 1_556 S
C315 C299 1.349 . S
C315 H307 0.950 . S
C315 C313 1.327 . S
C316 C304 1.349 1_556 S
C316 H310 0.950 . S
C316 C317 1.327 . S
C317 H311 0.950 . S
C317 C316 1.327 . S
C317 C321 1.429 1_556 S
C318 C301 1.574 . S
C318 H312 0.949 . S
C318 C322 1.368 . S
C319 C300 1.429 1_554 S
C319 C313 1.429 . S
C319 C320 1.523 . S
C320 C301 1.368 . S
C320 C314 1.368 1_554 S
C320 C319 1.523 . S
C321 C305 1.429 . S
C321 C317 1.429 1_554 S
C321 C322 1.523 . S
C322 C306 1.368 1_554 S
C322 C318 1.368 . S
C322 C321 1.523 . S
H323 C298 0.950 . S
H324 C300 0.950 . S
H325 C301 0.949 . S
H326 C303 0.950 . S
H327 C305 0.950 . S
C328 C329 1.349 . S
C328 C330 1.327 . S
C328 H353 0.950 . S
C329 C328 1.349 . S
C329 C345 1.349 . S
C330 C328 1.327 . S
C330 C349 1.429 . S
C330 H354 0.950 . S
C331 C348 1.574 . S
C331 C350 1.368 . S
C331 H355 0.949 . S
H332 C336 0.949 . S
C333 C334 1.349 . S
C333 C335 1.327 . S
C333 H356 0.950 . S
C334 C333 1.349 . S
C334 C346 1.349 . S
C335 C333 1.327 . S
C335 C351 1.429 . S
C335 H357 0.950 . S
C336 H332 0.949 . S
C336 C344 1.574 . S
C336 C352 1.368 . S
H337 C345 0.950 . S
H338 C343 0.950 . S
H339 C344 0.949 . S
H340 C346 0.950 . S
H341 C347 0.950 . S
H342 C348 0.949 . S
C343 H338 0.950 . S
C343 C345 1.327 . S
C343 C349 1.429 . S
C344 C336 1.574 . S
C344 H339 0.949 . S
C344 C350 1.368 . S
C345 C329 1.349 . S
C345 H337 0.950 . S
C345 C343 1.327 . S
C346 C334 1.349 . S
C346 H340 0.950 . S
C346 C347 1.327 . S
C347 H341 0.950 . S
C347 C346 1.327 . S
C347 C351 1.429 . S
C348 C331 1.574 . S
C348 H342 0.949 . S
C348 C352 1.368 . S
C349 C330 1.429 . S
C349 C343 1.429 . S
C349 C350 1.523 . S
C350 C331 1.368 . S
C350 C344 1.368 . S
C350 C349 1.523 . S
C351 C335 1.429 . S
C351 C347 1.429 . S
C351 C352 1.523 . S
C352 C336 1.368 . S
C352 C348 1.368 . S
C352 C351 1.523 . S
H353 C328 0.950 . S
H354 C330 0.950 . S
H355 C331 0.949 . S
H356 C333 0.950 . S
H357 C335 0.950 . S
C358 C359 1.349 . S
C358 C360 1.327 . S
C358 H383 0.950 . S
C359 C358 1.349 . S
C359 C375 1.349 . S
C360 C358 1.327 . S
C360 C379 1.429 . S
C360 H384 0.950 . S
C361 C378 1.574 . S
C361 C380 1.368 . S
C361 H385 0.949 . S
H362 C366 0.949 . S
C363 C364 1.349 . S
C363 C365 1.327 . S
C363 H386 0.950 . S
C364 C363 1.349 . S
C364 C376 1.349 . S
C365 C363 1.327 . S
C365 C381 1.429 . S
C365 H387 0.950 . S
C366 H362 0.949 . S
C366 C374 1.574 . S
C366 C382 1.368 . S
H367 C375 0.950 . S
H368 C373 0.950 . S
H369 C374 0.949 . S
H370 C376 0.950 . S
H371 C377 0.950 . S
H372 C378 0.949 . S
C373 H368 0.950 . S
C373 C375 1.327 . S
C373 C379 1.429 . S
C374 C366 1.574 . S
C374 H369 0.949 . S
C374 C380 1.368 . S
C375 C359 1.349 . S
C375 H367 0.950 . S
C375 C373 1.327 . S
C376 C364 1.349 . S
C376 H370 0.950 . S
C376 C377 1.327 . S
C377 H371 0.950 . S
C377 C376 1.327 . S
C377 C381 1.429 . S
C378 C361 1.574 . S
C378 H372 0.949 . S
C378 C382 1.368 . S
C379 C360 1.429 . S
C379 C373 1.429 . S
C379 C380 1.523 . S
C380 C361 1.368 . S
C380 C374 1.368 . S
C380 C379 1.523 . S
C381 C365 1.429 . S
C381 C377 1.429 . S
C381 C382 1.523 . S
C382 C366 1.368 . S
C382 C378 1.368 . S
C382 C381 1.523 . S
H383 C358 0.950 . S
H384 C360 0.950 . S
H385 C361 0.949 . S
H386 C363 0.950 . S
H387 C365 0.950 . S
C388 C389 1.349 . S
C388 C390 1.327 . S
C388 H413 0.950 . S
C389 C388 1.349 . S
C389 C405 1.349 . S
C390 C388 1.327 . S
C390 C409 1.429 . S
C390 H414 0.950 . S
C391 C408 1.574 . S
C391 C410 1.368 . S
C391 H415 0.949 . S
H392 C396 0.949 . S
C393 C394 1.349 . S
C393 C395 1.327 . S
C393 H416 0.950 . S
C394 C393 1.349 . S
C394 C406 1.349 . S
C395 C393 1.327 . S
C395 C411 1.429 . S
C395 H417 0.950 . S
C396 H392 0.949 . S
C396 C404 1.574 . S
C396 C412 1.368 . S
H397 C405 0.950 . S
H398 C403 0.950 . S
H399 C404 0.949 . S
H400 C406 0.950 . S
H401 C407 0.950 . S
H402 C408 0.949 . S
C403 H398 0.950 . S
C403 C405 1.327 . S
C403 C409 1.429 . S
C404 C396 1.574 . S
C404 H399 0.949 . S
C404 C410 1.368 . S
C405 C389 1.349 . S
C405 H397 0.950 . S
C405 C403 1.327 . S
C406 C394 1.349 . S
C406 H400 0.950 . S
C406 C407 1.327 . S
C407 H401 0.950 . S
C407 C406 1.327 . S
C407 C411 1.429 . S
C408 C391 1.574 . S
C408 H402 0.949 . S
C408 C412 1.368 . S
C409 C390 1.429 . S
C409 C403 1.429 . S
C409 C410 1.523 . S
C410 C391 1.368 . S
C410 C404 1.368 . S
C410 C409 1.523 . S
C411 C395 1.429 . S
C411 C407 1.429 . S
C411 C412 1.523 . S
C412 C396 1.368 . S
C412 C408 1.368 . S
C412 C411 1.523 . S
H413 C388 0.950 . S
H414 C390 0.950 . S
H415 C391 0.949 . S
H416 C393 0.950 . S
H417 C395 0.950 . S
C418 C419 1.349 . S
C418 C420 1.327 . S
C418 H443 0.950 . S
C419 C418 1.349 . S
C419 C435 1.349 . S
C420 C418 1.327 . S
C420 C439 1.429 . S
C420 H444 0.950 . S
C421 C438 1.574 . S
C421 C440 1.368 . S
C421 H445 0.949 . S
H422 C426 0.949 . S
C423 C424 1.349 . S
C423 C425 1.327 . S
C423 H446 0.950 . S
C424 C423 1.349 . S
C424 C436 1.349 . S
C425 C423 1.327 . S
C425 C441 1.429 . S
C425 H447 0.950 . S
C426 H422 0.949 . S
C426 C434 1.574 . S
C426 C442 1.368 . S
H427 C435 0.950 . S
H428 C433 0.950 . S
H429 C434 0.949 . S
H430 C436 0.950 . S
H431 C437 0.950 . S
H432 C438 0.949 . S
C433 H428 0.950 . S
C433 C435 1.327 . S
C433 C439 1.429 . S
C434 C426 1.574 . S
C434 H429 0.949 . S
C434 C440 1.368 . S
C435 C419 1.349 . S
C435 H427 0.950 . S
C435 C433 1.327 . S
C436 C424 1.349 . S
C436 H430 0.950 . S
C436 C437 1.327 . S
C437 H431 0.950 . S
C437 C436 1.327 . S
C437 C441 1.429 . S
C438 C421 1.574 . S
C438 H432 0.949 . S
C438 C442 1.368 . S
C439 C420 1.429 . S
C439 C433 1.429 . S
C439 C440 1.523 . S
C440 C421 1.368 . S
C440 C434 1.368 . S
C440 C439 1.523 . S
C441 C425 1.429 . S
C441 C437 1.429 . S
C441 C442 1.523 . S
C442 C426 1.368 . S
C442 C438 1.368 . S
C442 C441 1.523 . S
H443 C418 0.950 . S
H444 C420 0.950 . S
H445 C421 0.949 . S
H446 C423 0.950 . S
H447 C425 0.950 . S
C448 C449 1.349 . S
C448 C450 1.327 . S
C448 H473 0.950 . S
C449 C448 1.349 . S
C449 C465 1.349 . S
C450 C448 1.327 . S
C450 C469 1.429 . S
C450 H474 0.950 . S
C451 C468 1.574 . S
C451 C470 1.368 . S
C451 H475 0.949 . S
H452 C456 0.949 . S
C453 C454 1.349 . S
C453 C455 1.327 . S
C453 H476 0.950 . S
C454 C453 1.349 . S
C454 C466 1.349 . S
C455 C453 1.327 . S
C455 C471 1.429 . S
C455 H477 0.950 . S
C456 H452 0.949 . S
C456 C464 1.574 . S
C456 C472 1.368 . S
H457 C465 0.950 . S
H458 C463 0.950 . S
H459 C464 0.949 . S
H460 C466 0.950 . S
H461 C467 0.950 . S
H462 C468 0.949 . S
C463 H458 0.950 . S
C463 C465 1.327 . S
C463 C469 1.429 . S
C464 C456 1.574 . S
C464 H459 0.949 . S
C464 C470 1.368 . S
C465 C449 1.349 . S
C465 H457 0.950 . S
C465 C463 1.327 . S
C466 C454 1.349 . S
C466 H460 0.950 . S
C466 C467 1.327 . S
C467 H461 0.950 . S
C467 C466 1.327 . S
C467 C471 1.429 . S
C468 C451 1.574 . S
C468 H462 0.949 . S
C468 C472 1.368 . S
C469 C450 1.429 . S
C469 C463 1.429 . S
C469 C470 1.523 . S
C470 C451 1.368 . S
C470 C464 1.368 . S
C470 C469 1.523 . S
C471 C455 1.429 . S
C471 C467 1.429 . S
C471 C472 1.523 . S
C472 C456 1.368 . S
C472 C468 1.368 . S
C472 C471 1.523 . S
H473 C448 0.950 . S
H474 C450 0.950 . S
H475 C451 0.949 . S
H476 C453 0.950 . S
H477 C455 0.950 . S
C478 C479 1.349 . S
C478 C480 1.327 . S
C478 H503 0.950 . S
C479 C478 1.349 . S
C479 C495 1.349 . S
C480 C478 1.327 . S
C480 C499 1.429 . S
C480 H504 0.950 . S
C481 C498 1.574 . S
C481 C500 1.368 . S
C481 H505 0.949 . S
H482 C486 0.949 . S
C483 C484 1.349 . S
C483 C485 1.327 . S
C483 H506 0.950 . S
C484 C483 1.349 . S
C484 C496 1.349 . S
C485 C483 1.327 . S
C485 C501 1.429 . S
C485 H507 0.950 . S
C486 H482 0.949 . S
C486 C494 1.574 . S
C486 C502 1.368 . S
H487 C495 0.950 . S
H488 C493 0.950 . S
H489 C494 0.949 . S
H490 C496 0.950 . S
H491 C497 0.950 . S
H492 C498 0.949 . S
C493 H488 0.950 . S
C493 C495 1.327 . S
C493 C499 1.429 . S
C494 C486 1.574 . S
C494 H489 0.949 . S
C494 C500 1.368 . S
C495 C479 1.349 . S
C495 H487 0.950 . S
C495 C493 1.327 . S
C496 C484 1.349 . S
C496 H490 0.950 . S
C496 C497 1.327 . S
C497 H491 0.950 . S
C497 C496 1.327 . S
C497 C501 1.429 . S
C498 C481 1.574 . S
C498 H492 0.949 . S
C498 C502 1.368 . S
C499 C480 1.429 . S
C499 C493 1.429 . S
C499 C500 1.523 . S
C500 C481 1.368 . S
C500 C494 1.368 . S
C500 C499 1.523 . S
C501 C485 1.429 . S
C501 C497 1.429 . S
C501 C502 1.523 . S
C502 C486 1.368 . S
C502 C498 1.368 . S
C502 C501 1.523 . S
H503 C478 0.950 . S
H504 C480 0.950 . S
H505 C481 0.949 . S
H506 C483 0.950 . S
H507 C485 0.950 . S
C508 C509 1.349 . S
C508 C510 1.327 . S
C508 H533 0.919 1_655 S
C509 C508 1.349 . S
C509 C525 1.349 . S
C510 C508 1.327 . S
C510 C529 1.429 . S
C510 H534 0.950 . S
C511 C528 1.574 . S
C511 C530 1.368 . S
C511 H535 0.949 . S
H512 C516 0.949 . S
C513 C514 1.349 . S
C513 C515 1.327 . S
C513 H536 0.950 . S
C514 C513 1.349 . S
C514 C526 1.349 . S
C515 C513 1.327 . S
C515 C531 1.429 . S
C515 H537 0.950 . S
C516 H512 0.949 . S
C516 C524 1.574 . S
C516 C532 1.368 . S
H517 C525 0.950 . S
H518 C523 0.950 . S
H519 C524 0.949 . S
H520 C526 0.950 . S
H521 C527 0.950 . S
H522 C528 0.949 . S
C523 H518 0.950 . S
C523 C525 1.327 . S
C523 C529 1.429 . S
C524 C516 1.574 . S
C524 H519 0.949 . S
C524 C530 1.368 . S
C525 C509 1.349 . S
C525 H517 0.950 . S
C525 C523 1.327 . S
C526 C514 1.349 . S
C526 H520 0.950 . S
C526 C527 1.327 . S
C527 H521 0.950 . S
C527 C526 1.327 . S
C527 C531 1.429 . S
C528 C511 1.574 . S
C528 H522 0.949 . S
C528 C532 1.368 . S
C529 C510 1.429 . S
C529 C523 1.429 . S
C529 C530 1.523 . S
C530 C511 1.368 . S
C530 C524 1.368 . S
C530 C529 1.523 . S
C531 C515 1.429 . S
C531 C527 1.429 . S
C531 C532 1.523 . S
C532 C516 1.368 . S
C532 C528 1.368 . S
C532 C531 1.523 . S
H533 C508 0.919 1_455 S
H534 C510 0.950 . S
H535 C511 0.949 . S
H536 C513 0.950 . S
H537 C515 0.950 . S
C538 C539 1.349 . S
C538 C540 1.327 . S
C538 H563 0.950 1_565 S
C539 C538 1.349 . S
C539 C555 1.349 . S
C540 C538 1.327 . S
C540 C559 1.429 . S
C540 H564 0.950 . S
C541 C558 1.574 . S
C541 C560 1.368 . S
C541 H565 0.949 . S
H542 C546 0.949 . S
C543 C544 1.349 . S
C543 C545 1.327 . S
C543 H566 0.950 . S
C544 C543 1.349 . S
C544 C556 1.349 . S
C545 C543 1.327 . S
C545 C561 1.429 . S
C545 H567 0.950 . S
C546 H542 0.949 . S
C546 C554 1.574 . S
C546 C562 1.368 . S
H547 C555 0.950 . S
H548 C553 0.950 . S
H549 C554 0.949 . S
H550 C556 0.950 . S
H551 C557 0.950 . S
H552 C558 0.949 . S
C553 H548 0.950 . S
C553 C555 1.327 . S
C553 C559 1.429 . S
C554 C546 1.574 . S
C554 H549 0.949 . S
C554 C560 1.368 . S
C555 C539 1.349 . S
C555 H547 0.950 . S
C555 C553 1.327 . S
C556 C544 1.349 . S
C556 H550 0.950 . S
C556 C557 1.327 . S
C557 H551 0.950 . S
C557 C556 1.327 . S
C557 C561 1.429 . S
C558 C541 1.574 . S
C558 H552 0.949 . S
C558 C562 1.368 . S
C559 C540 1.429 . S
C559 C553 1.429 . S
C559 C560 1.523 . S
C560 C541 1.368 . S
C560 C554 1.368 . S
C560 C559 1.523 . S
C561 C545 1.429 . S
C561 C557 1.429 . S
C561 C562 1.523 . S
C562 C546 1.368 . S
C562 C558 1.368 . S
C562 C561 1.523 . S
H563 C538 0.950 1_545 S
H564 C540 0.950 . S
H565 C541 0.949 . S
H566 C543 0.950 . S
H567 C545 0.950 . S
C568 C569 1.349 . S
C568 C570 1.327 . S
C568 H593 0.950 . S
C569 C568 1.349 . S
C569 C585 1.349 . S
C570 C568 1.327 . S
C570 C589 1.429 . S
C570 H594 0.950 . S
C571 C588 1.574 . S
C571 C590 1.368 . S
C571 H595 0.949 . S
H572 C576 0.949 . S
C573 C574 1.349 . S
C573 C575 1.327 . S
C573 H596 0.950 . S
C574 C573 1.349 . S
C574 C586 1.349 . S
C575 C573 1.327 . S
C575 C591 1.429 . S
C575 H597 0.950 . S
C576 H572 0.949 . S
C576 C584 1.574 . S
C576 C592 1.368 . S
H577 C585 0.932 1_545 S
H578 C583 0.950 . S
H579 C584 0.949 . S
H580 C586 0.950 . S
H581 C587 0.950 . S
H582 C588 0.949 . S
C583 H578 0.950 . S
C583 C585 1.327 . S
C583 C589 1.429 . S
C584 C576 1.574 . S
C584 H579 0.949 . S
C584 C590 1.368 . S
C585 C569 1.349 . S
C585 H577 0.932 1_565 S
C585 C583 1.327 . S
C586 C574 1.349 . S
C586 H580 0.950 . S
C586 C587 1.327 . S
C587 H581 0.950 . S
C587 C586 1.327 . S
C587 C591 1.429 . S
C588 C571 1.574 . S
C588 H582 0.949 . S
C588 C592 1.368 . S
C589 C570 1.429 . S
C589 C583 1.429 . S
C589 C590 1.523 . S
C590 C571 1.368 . S
C590 C584 1.368 . S
C590 C589 1.523 . S
C591 C575 1.429 . S
C591 C587 1.429 . S
C591 C592 1.523 . S
C592 C576 1.368 . S
C592 C588 1.368 . S
C592 C591 1.523 . S
H593 C568 0.950 . S
H594 C570 0.950 . S
H595 C571 0.949 . S
H596 C573 0.950 . S
H597 C575 0.950 . S
C598 C599 1.349 . S
C598 C600 1.327 . S
C598 H623 0.950 . S
C599 C598 1.349 . S
C599 C615 1.349 . S
C600 C598 1.327 . S
C600 C619 1.429 . S
C600 H624 0.950 . S
C601 C618 1.574 . S
C601 C620 1.368 . S
C601 H625 0.949 . S
H602 C606 0.949 . S
C603 C604 1.349 . S
C603 C605 1.327 . S
C603 H626 0.950 . S
C604 C603 1.349 . S
C604 C616 1.349 . S
C605 C603 1.327 . S
C605 C621 1.429 . S
C605 H627 0.950 . S
C606 H602 0.949 . S
C606 C614 1.574 . S
C606 C622 1.368 . S
H607 C615 0.950 . S
H608 C613 0.950 . S
H609 C614 0.949 . S
H610 C616 0.950 . S
H611 C617 0.950 . S
H612 C618 0.949 . S
C613 H608 0.950 . S
C613 C615 1.327 . S
C613 C619 1.429 . S
C614 C606 1.574 . S
C614 H609 0.949 . S
C614 C620 1.368 . S
C615 C599 1.349 . S
C615 H607 0.950 . S
C615 C613 1.327 . S
C616 C604 1.349 . S
C616 H610 0.950 . S
C616 C617 1.327 . S
C617 H611 0.950 . S
C617 C616 1.327 . S
C617 C621 1.429 . S
C618 C601 1.574 . S
C618 H612 0.949 . S
C618 C622 1.368 . S
C619 C600 1.429 . S
C619 C613 1.429 . S
C619 C620 1.523 . S
C620 C601 1.368 . S
C620 C614 1.368 . S
C620 C619 1.523 . S
C621 C605 1.429 . S
C621 C617 1.429 . S
C621 C622 1.523 . S
C622 C606 1.368 . S
C622 C618 1.368 . S
C622 C621 1.523 . S
H623 C598 0.950 . S
H624 C600 0.950 . S
H625 C601 0.949 . S
H626 C603 0.950 . S
H627 C605 0.950 . S
C628 C629 1.349 . S
C628 C630 1.327 . S
C628 H653 0.950 . S
C629 C628 1.349 . S
C629 C645 1.349 . S
C630 C628 1.327 . S
C630 C649 1.429 . S
C630 H654 0.950 . S
C631 C648 1.574 . S
C631 C650 1.368 . S
C631 H655 0.949 . S
H632 C636 0.949 . S
C633 C634 1.349 . S
C633 C635 1.327 . S
C633 H656 0.950 . S
C634 C633 1.349 . S
C634 C646 1.349 . S
C635 C633 1.327 . S
C635 C651 1.429 . S
C635 H657 0.950 . S
C636 H632 0.949 . S
C636 C644 1.574 . S
C636 C652 1.368 . S
H637 C645 0.950 . S
H638 C643 0.950 . S
H639 C644 0.949 . S
H640 C646 0.950 . S
H641 C647 0.950 . S
H642 C648 0.949 . S
C643 H638 0.950 . S
C643 C645 1.327 . S
C643 C649 1.429 . S
C644 C636 1.574 . S
C644 H639 0.949 . S
C644 C650 1.368 . S
C645 C629 1.349 . S
C645 H637 0.950 . S
C645 C643 1.327 . S
C646 C634 1.349 . S
C646 H640 0.950 . S
C646 C647 1.327 . S
C647 H641 0.950 . S
C647 C646 1.327 . S
C647 C651 1.429 . S
C648 C631 1.574 . S
C648 H642 0.949 . S
C648 C652 1.368 . S
C649 C630 1.429 . S
C649 C643 1.429 . S
C649 C650 1.523 . S
C650 C631 1.368 . S
C650 C644 1.368 . S
C650 C649 1.523 . S
C651 C635 1.429 . S
C651 C647 1.429 . S
C651 C652 1.523 . S
C652 C636 1.368 . S
C652 C648 1.368 . S
C652 C651 1.523 . S
H653 C628 0.950 . S
H654 C630 0.950 . S
H655 C631 0.949 . S
H656 C633 0.950 . S
H657 C635 0.950 . S
C658 C659 1.349 . S
C658 C660 1.327 . S
C658 H683 0.950 1_655 S
C659 C658 1.349 . S
C659 C675 1.349 . S
C660 C658 1.327 . S
C660 C679 1.429 . S
C660 H684 0.950 . S
C661 C678 1.574 . S
C661 C680 1.368 . S
C661 H685 0.949 . S
H662 C666 0.949 . S
C663 C664 1.349 . S
C663 C665 1.327 . S
C663 H686 0.950 . S
C664 C663 1.349 . S
C664 C676 1.349 . S
C665 C663 1.327 . S
C665 C681 1.429 . S
C665 H687 0.950 . S
C666 H662 0.949 . S
C666 C674 1.574 . S
C666 C682 1.368 . S
H667 C675 0.950 . S
H668 C673 0.950 . S
H669 C674 0.949 . S
H670 C676 0.950 . S
H671 C677 0.950 . S
H672 C678 0.949 . S
C673 H668 0.950 . S
C673 C675 1.327 . S
C673 C679 1.429 . S
C674 C666 1.574 . S
C674 H669 0.949 . S
C674 C680 1.368 . S
C675 C659 1.349 . S
C675 H667 0.950 . S
C675 C673 1.327 . S
C676 C664 1.349 . S
C676 H670 0.950 . S
C676 C677 1.327 . S
C677 H671 0.950 . S
C677 C676 1.327 . S
C677 C681 1.429 . S
C678 C661 1.574 . S
C678 H672 0.949 . S
C678 C682 1.368 . S
C679 C660 1.429 . S
C679 C673 1.429 . S
C679 C680 1.523 . S
C680 C661 1.368 . S
C680 C674 1.368 . S
C680 C679 1.523 . S
C681 C665 1.429 . S
C681 C677 1.429 . S
C681 C682 1.523 . S
C682 C666 1.368 . S
C682 C678 1.368 . S
C682 C681 1.523 . S
H683 C658 0.950 1_455 S
H684 C660 0.950 . S
H685 C661 0.949 . S
H686 C663 0.950 . S
H687 C665 0.950 . S
C688 C689 1.349 . S
C688 C690 1.327 . S
C688 H713 0.950 . S
C689 C688 1.349 . S
C689 C705 1.349 . S
C690 C688 1.327 . S
C690 C709 1.429 . S
C690 H714 0.950 . S
C691 C708 1.574 . S
C691 C710 1.368 . S
C691 H715 0.949 . S
H692 C696 0.949 . S
C693 C694 1.349 . S
C693 C695 1.327 . S
C693 H716 0.950 . S
C694 C693 1.349 . S
C694 C706 1.349 . S
C695 C693 1.327 . S
C695 C711 1.429 . S
C695 H717 0.950 . S
C696 H692 0.949 . S
C696 C704 1.574 . S
C696 C712 1.368 . S
H697 C705 0.950 . S
H698 C703 0.950 . S
H699 C704 0.949 . S
H700 C706 0.950 . S
H701 C707 0.950 . S
H702 C708 0.949 . S
C703 H698 0.950 . S
C703 C705 1.327 . S
C703 C709 1.429 . S
C704 C696 1.574 . S
C704 H699 0.949 . S
C704 C710 1.368 . S
C705 C689 1.349 . S
C705 H697 0.950 . S
C705 C703 1.327 . S
C706 C694 1.349 . S
C706 H700 0.950 . S
C706 C707 1.327 . S
C707 H701 0.950 . S
C707 C706 1.327 . S
C707 C711 1.429 . S
C708 C691 1.574 . S
C708 H702 0.949 . S
C708 C712 1.368 . S
C709 C690 1.429 . S
C709 C703 1.429 . S
C709 C710 1.523 . S
C710 C691 1.368 . S
C710 C704 1.368 . S
C710 C709 1.523 . S
C711 C695 1.429 . S
C711 C707 1.429 . S
C711 C712 1.523 . S
C712 C696 1.368 . S
C712 C708 1.368 . S
C712 C711 1.523 . S
H713 C688 0.950 . S
H714 C690 0.950 . S
H715 C691 0.949 . S
H716 C693 0.950 . S
H717 C695 0.950 . S
C718 C719 1.349 . S
C718 C720 1.327 . S
C718 H743 0.950 . S
C719 C718 1.349 . S
C719 C735 1.349 . S
C720 C718 1.327 . S
C720 C739 1.429 . S
C720 H744 0.950 . S
C721 C738 1.574 . S
C721 C740 1.368 . S
C721 H745 0.949 . S
H722 C726 0.949 . S
C723 C724 1.349 . S
C723 C725 1.327 . S
C723 H746 0.950 . S
C724 C723 1.349 . S
C724 C736 1.349 . S
C725 C723 1.327 . S
C725 C741 1.429 . S
C725 H747 0.950 . S
C726 H722 0.949 . S
C726 C734 1.574 . S
C726 C742 1.368 . S
H727 C735 0.950 . S
H728 C733 0.950 . S
H729 C734 0.949 . S
H730 C736 0.950 . S
H731 C737 0.950 . S
H732 C738 0.949 . S
C733 H728 0.950 . S
C733 C735 1.327 . S
C733 C739 1.429 . S
C734 C726 1.574 . S
C734 H729 0.949 . S
C734 C740 1.368 . S
C735 C719 1.349 . S
C735 H727 0.950 . S
C735 C733 1.327 . S
C736 C724 1.349 . S
C736 H730 0.950 . S
C736 C737 1.327 . S
C737 H731 0.950 . S
C737 C736 1.327 . S
C737 C741 1.429 . S
C738 C721 1.574 . S
C738 H732 0.949 . S
C738 C742 1.368 . S
C739 C720 1.429 . S
C739 C733 1.429 . S
C739 C740 1.523 . S
C740 C721 1.368 . S
C740 C734 1.368 . S
C740 C739 1.523 . S
C741 C725 1.429 . S
C741 C737 1.429 . S
C741 C742 1.523 . S
C742 C726 1.368 . S
C742 C738 1.368 . S
C742 C741 1.523 . S
H743 C718 0.950 . S
H744 C720 0.950 . S
H745 C721 0.949 . S
H746 C723 0.950 . S
H747 C725 0.950 . S
C748 C749 1.349 . S
C748 C750 1.327 . S
C748 H773 0.950 . S
C749 C748 1.349 . S
C749 C765 1.349 . S
C750 C748 1.327 . S
C750 C769 1.429 . S
C750 H774 0.950 . S
C751 C768 1.574 . S
C751 C770 1.368 . S
C751 H775 0.949 . S
H752 C756 0.949 . S
C753 C754 1.349 . S
C753 C755 1.327 . S
C753 H776 0.950 . S
C754 C753 1.349 . S
C754 C766 1.349 . S
C755 C753 1.327 . S
C755 C771 1.429 . S
C755 H777 0.950 . S
C756 H752 0.949 . S
C756 C764 1.574 . S
C756 C772 1.368 . S
H757 C765 0.950 . S
H758 C763 0.950 . S
H759 C764 0.949 . S
H760 C766 0.950 . S
H761 C767 0.950 . S
H762 C768 0.949 . S
C763 H758 0.950 . S
C763 C765 1.327 . S
C763 C769 1.429 . S
C764 C756 1.574 . S
C764 H759 0.949 . S
C764 C770 1.368 . S
C765 C749 1.349 . S
C765 H757 0.950 . S
C765 C763 1.327 . S
C766 C754 1.349 . S
C766 H760 0.950 . S
C766 C767 1.327 . S
C767 H761 0.950 . S
C767 C766 1.327 . S
C767 C771 1.429 . S
C768 C751 1.574 . S
C768 H762 0.949 . S
C768 C772 1.368 . S
C769 C750 1.429 . S
C769 C763 1.429 . S
C769 C770 1.523 . S
C770 C751 1.368 . S
C770 C764 1.368 . S
C770 C769 1.523 . S
C771 C755 1.429 . S
C771 C767 1.429 . S
C771 C772 1.523 . S
C772 C756 1.368 . S
C772 C768 1.368 . S
C772 C771 1.523 . S
H773 C748 0.950 . S
H774 C750 0.950 . S
H775 C751 0.949 . S
H776 C753 0.950 . S
H777 C755 0.950 . S
C778 C779 1.349 . S
C778 C780 1.327 . S
C778 H803 0.950 . S
C779 C778 1.349 . S
C779 C795 1.349 . S
C780 C778 1.327 . S
C780 C799 1.429 . S
C780 H804 0.950 . S
C781 C798 1.574 . S
C781 C800 1.368 . S
C781 H805 0.949 . S
H782 C786 0.949 . S
C783 C784 1.349 . S
C783 C785 1.327 . S
C783 H806 0.950 . S
C784 C783 1.349 . S
C784 C796 1.349 . S
C785 C783 1.327 . S
C785 C801 1.429 . S
C785 H807 0.950 . S
C786 H782 0.949 . S
C786 C794 1.574 . S
C786 C802 1.368 . S
H787 C795 0.950 . S
H788 C793 0.950 . S
H789 C794 0.949 . S
H790 C796 0.950 . S
H791 C797 0.950 . S
H792 C798 0.949 . S
C793 H788 0.950 . S
C793 C795 1.327 . S
C793 C799 1.429 . S
C794 C786 1.574 . S
C794 H789 0.949 . S
C794 C800 1.368 . S
C795 C779 1.349 . S
C795 H787 0.950 . S
C795 C793 1.327 . S
C796 C784 1.349 . S
C796 H790 0.950 . S
C796 C797 1.327 . S
C797 H791 0.950 . S
C797 C796 1.327 . S
C797 C801 1.429 . S
C798 C781 1.574 . S
C798 H792 0.949 . S
C798 C802 1.368 . S
C799 C780 1.429 . S
C799 C793 1.429 . S
C799 C800 1.523 . S
C800 C781 1.368 . S
C800 C794 1.368 . S
C800 C799 1.523 . S
C801 C785 1.429 . S
C801 C797 1.429 . S
C801 C802 1.523 . S
C802 C786 1.368 . S
C802 C798 1.368 . S
C802 C801 1.523 . S
H803 C778 0.950 . S
H804 C780 0.950 . S
H805 C781 0.949 . S
H806 C783 0.950 . S
H807 C785 0.950 . S
C808 C809 1.349 . S
C808 C810 1.327 . S
C808 H833 0.950 . S
C809 C808 1.349 . S
C809 C825 1.349 . S
C810 C808 1.327 . S
C810 C829 1.429 . S
C810 H834 0.950 . S
C811 C828 1.574 . S
C811 C830 1.368 . S
C811 H835 0.949 . S
H812 C816 0.949 . S
C813 C814 1.349 . S
C813 C815 1.327 . S
C813 H836 0.950 . S
C814 C813 1.349 . S
C814 C826 1.349 . S
C815 C813 1.327 . S
C815 C831 1.429 . S
C815 H837 0.950 . S
C816 H812 0.949 . S
C816 C824 1.574 . S
C816 C832 1.368 . S
H817 C825 0.950 . S
H818 C823 0.950 . S
H819 C824 0.949 . S
H820 C826 0.950 . S
H821 C827 0.950 . S
H822 C828 0.949 . S
C823 H818 0.950 . S
C823 C825 1.327 . S
C823 C829 1.429 . S
C824 C816 1.574 . S
C824 H819 0.949 . S
C824 C830 1.368 . S
C825 C809 1.349 . S
C825 H817 0.950 . S
C825 C823 1.327 . S
C826 C814 1.349 . S
C826 H820 0.950 . S
C826 C827 1.327 . S
C827 H821 0.950 . S
C827 C826 1.327 . S
C827 C831 1.429 . S
C828 C811 1.574 . S
C828 H822 0.949 . S
C828 C832 1.368 . S
C829 C810 1.429 . S
C829 C823 1.429 . S
C829 C830 1.523 . S
C830 C811 1.368 . S
C830 C824 1.368 . S
C830 C829 1.523 . S
C831 C815 1.429 . S
C831 C827 1.429 . S
C831 C832 1.523 . S
C832 C816 1.368 . S
C832 C828 1.368 . S
C832 C831 1.523 . S
H833 C808 0.950 . S
H834 C810 0.950 . S
H835 C811 0.949 . S
H836 C813 0.950 . S
H837 C815 0.950 . S
C838 C839 1.349 . S
C838 C840 1.327 . S
C838 H863 0.950 . S
C839 C838 1.349 . S
C839 C855 1.349 . S
C840 C838 1.327 . S
C840 C859 1.429 . S
C840 H864 0.950 . S
C841 C858 1.574 . S
C841 C860 1.368 . S
C841 H865 0.949 . S
H842 C846 0.949 . S
C843 C844 1.349 . S
C843 C845 1.327 . S
C843 H866 0.950 . S
C844 C843 1.349 . S
C844 C856 1.349 . S
C845 C843 1.327 . S
C845 C861 1.429 . S
C845 H867 0.950 . S
C846 H842 0.949 . S
C846 C854 1.574 . S
C846 C862 1.368 . S
H847 C855 0.950 . S
H848 C853 0.950 . S
H849 C854 0.949 . S
H850 C856 0.950 . S
H851 C857 0.950 . S
H852 C858 0.949 . S
C853 H848 0.950 . S
C853 C855 1.327 . S
C853 C859 1.429 . S
C854 C846 1.574 . S
C854 H849 0.949 . S
C854 C860 1.368 . S
C855 C839 1.349 . S
C855 H847 0.950 . S
C855 C853 1.327 . S
C856 C844 1.349 . S
C856 H850 0.950 . S
C856 C857 1.327 . S
C857 H851 0.950 . S
C857 C856 1.327 . S
C857 C861 1.429 . S
C858 C841 1.574 . S
C858 H852 0.949 . S
C858 C862 1.368 . S
C859 C840 1.429 . S
C859 C853 1.429 . S
C859 C860 1.523 . S
C860 C841 1.368 . S
C860 C854 1.368 . S
C860 C859 1.523 . S
C861 C845 1.429 . S
C861 C857 1.429 . S
C861 C862 1.523 . S
C862 C846 1.368 . S
C862 C858 1.368 . S
C862 C861 1.523 . S
H863 C838 0.950 . S
H864 C840 0.950 . S
H865 C841 0.949 . S
H866 C843 0.950 . S
H867 C845 0.950 . S
C868 C869 1.349 . S
C868 C870 1.327 . S
C868 H893 0.950 . S
C869 C868 1.349 . S
C869 C885 1.349 . S
C870 C868 1.327 . S
C870 C889 1.429 . S
C870 H894 0.950 . S
C871 C888 1.574 . S
C871 C890 1.368 . S
C871 H895 0.949 . S
H872 C876 0.949 . S
C873 C874 1.349 . S
C873 C875 1.327 . S
C873 H896 0.950 . S
C874 C873 1.349 . S
C874 C886 1.349 . S
C875 C873 1.327 . S
C875 C891 1.429 . S
C875 H897 0.950 . S
C876 H872 0.949 . S
C876 C884 1.574 . S
C876 C892 1.368 . S
H877 C885 0.950 . S
H878 C883 0.950 . S
H879 C884 0.949 . S
H880 C886 0.950 . S
H881 C887 0.950 . S
H882 C888 0.949 . S
C883 H878 0.950 . S
C883 C885 1.327 . S
C883 C889 1.429 . S
C884 C876 1.574 . S
C884 H879 0.949 . S
C884 C890 1.368 . S
C885 C869 1.349 . S
C885 H877 0.950 . S
C885 C883 1.327 . S
C886 C874 1.349 . S
C886 H880 0.950 . S
C886 C887 1.327 . S
C887 H881 0.950 . S
C887 C886 1.327 . S
C887 C891 1.429 . S
C888 C871 1.574 . S
C888 H882 0.949 . S
C888 C892 1.368 . S
C889 C870 1.429 . S
C889 C883 1.429 . S
C889 C890 1.523 . S
C890 C871 1.368 . S
C890 C884 1.368 . S
C890 C889 1.523 . S
C891 C875 1.429 . S
C891 C887 1.429 . S
C891 C892 1.523 . S
C892 C876 1.368 . S
C892 C888 1.368 . S
C892 C891 1.523 . S
H893 C868 0.950 . S
H894 C870 0.950 . S
H895 C871 0.949 . S
H896 C873 0.950 . S
H897 C875 0.950 . S
C898 C899 1.349 . S
C898 C900 1.327 . S
C898 H923 0.950 . S
C899 C898 1.349 . S
C899 C915 1.349 . S
C900 C898 1.327 . S
C900 C919 1.429 . S
C900 H924 0.950 . S
C901 C918 1.574 . S
C901 C920 1.368 . S
C901 H925 0.949 . S
H902 C906 0.949 . S
C903 C904 1.349 . S
C903 C905 1.327 . S
C903 H926 0.950 . S
C904 C903 1.349 . S
C904 C916 1.349 . S
C905 C903 1.327 . S
C905 C921 1.429 . S
C905 H927 0.950 . S
C906 H902 0.949 . S
C906 C914 1.574 . S
C906 C922 1.368 . S
H907 C915 0.950 . S
H908 C913 0.950 . S
H909 C914 0.949 . S
H910 C916 0.950 . S
H911 C917 0.950 . S
H912 C918 0.949 . S
C913 H908 0.950 . S
C913 C915 1.327 . S
C913 C919 1.429 . S
C914 C906 1.574 . S
C914 H909 0.949 . S
C914 C920 1.368 . S
C915 C899 1.349 . S
C915 H907 0.950 . S
C915 C913 1.327 . S
C916 C904 1.349 . S
C916 H910 0.950 . S
C916 C917 1.327 . S
C917 H911 0.950 . S
C917 C916 1.327 . S
C917 C921 1.429 . S
C918 C901 1.574 . S
C918 H912 0.949 . S
C918 C922 1.368 . S
C919 C900 1.429 . S
C919 C913 1.429 . S
C919 C920 1.523 . S
C920 C901 1.368 . S
C920 C914 1.368 . S
C920 C919 1.523 . S
C921 C905 1.429 . S
C921 C917 1.429 . S
C921 C922 1.523 . S
C922 C906 1.368 . S
C922 C918 1.368 . S
C922 C921 1.523 . S
H923 C898 0.950 . S
H924 C900 0.950 . S
H925 C901 0.949 . S
H926 C903 0.950 . S
H927 C905 0.950 . S
C209 C45 1.577 . S
C214 C108 1.505 . S
C239 C30 1.576 . S
C244 C121 1.505 . S
C269 C39 1.576 . S
C274 C134 1.561 1_554 S
C304 C147 1.511 . S
C299 C34 1.578 . S
C329 C97 1.576 . S
C334 C160 1.506 . S
C364 C173 1.509 . S
C359 C82 1.577 . S
C394 C186 1.560 . S
C389 C91 1.576 . S
C424 C199 1.561 . S
C419 C86 1.576 . S
C454 C191 1.537 . S
C449 C26 1.503 . S
C484 C204 1.564 . S
C479 C36 1.527 . S
C514 C164 1.527 . S
C509 C32 1.484 . S
C544 C177 1.500 . S
C539 C42 1.461 . S
C569 C18 1.634 . S
C574 C178 1.682 . S
C604 C190 1.653 . S
C599 C50 1.589 . S
C629 C4 1.565 . S
C634 C203 1.625 . S
C659 C48 1.609 . S
C664 C165 1.654 . S
C694 C139 1.564 . S
C689 C78 1.530 . S
C719 C88 1.421 . S
C724 C151 1.462 . S
C754 C112 1.562 . S
C749 C84 1.519 . S
C784 C125 1.517 . S
C779 C94 1.478 . S
C814 C126 1.666 . S
C809 C70 1.617 . S
C844 C138 1.626 . S
C839 C102 1.563 . S
C869 C56 1.675 . S
C874 C152 1.720 . S
C899 C100 1.574 . S
C904 C113 1.619 . S
