# Generated by pormake.
# Topology pth, (4,4)-cn, num edge types: 1
# Building blocks:
#     Node 0, Type 0, BuildingBlock: GALJAG_clean_sbu_0, # of connection points: 4
#     Node 1, Type 0, BuildingBlock: GALJAG_clean_sbu_0, # of connection points: 4
#     Node 2, Type 0, BuildingBlock: GALJAG_clean_sbu_0, # of connection points: 4
#     Node 3, Type 1, BuildingBlock: NAHDIM_clean_linker_0, # of connection points: 4
#     Node 4, Type 1, BuildingBlock: NAHDIM_clean_linker_0, # of connection points: 4
#     Node 5, Type 1, BuildingBlock: NAHDIM_clean_linker_0, # of connection points: 4
#     Edge 6, Type (0, 1), BuildingBlock: KIFKEQ_clean_linker_1, # of connection points: 2
#     Edge 7, Type (0, 1), BuildingBlock: KIFKEQ_clean_linker_1, # of connection points: 2
#     Edge 8, Type (0, 1), BuildingBlock: KIFKEQ_clean_linker_1, # of connection points: 2
#     Edge 9, Type (0, 1), BuildingBlock: KIFKEQ_clean_linker_1, # of connection points: 2
#     Edge 10, Type (0, 1), BuildingBlock: KIFKEQ_clean_linker_1, # of connection points: 2
#     Edge 11, Type (0, 1), BuildingBlock: KIFKEQ_clean_linker_1, # of connection points: 2
#     Edge 12, Type (0, 1), BuildingBlock: KIFKEQ_clean_linker_1, # of connection points: 2
#     Edge 13, Type (0, 1), BuildingBlock: KIFKEQ_clean_linker_1, # of connection points: 2
#     Edge 14, Type (0, 1), BuildingBlock: KIFKEQ_clean_linker_1, # of connection points: 2
#     Edge 15, Type (0, 1), BuildingBlock: KIFKEQ_clean_linker_1, # of connection points: 2
#     Edge 16, Type (0, 1), BuildingBlock: KIFKEQ_clean_linker_1, # of connection points: 2
#     Edge 17, Type (0, 1), BuildingBlock: KIFKEQ_clean_linker_1, # of connection points: 2
# Relax obj value: 0.024
# Max RMSD: 0.068
# Mean RMSD: 0.066
data_MOF--net-pth--node1-GALJAG_clean_sbu_0--node2-NAHDIM_clean_linker_0--edge1-KIFKEQ_clean_linker_1
_symmetry_space_group_name_H-M    P1
_symmetry_Int_Tables_number       1
_symmetry_cell_setting            triclinic
loop_
_symmetry_equiv_pos_as_xyz
'x, y, z'
_cell_length_a     32.90221
_cell_length_b     32.857288
_cell_length_c     79.893585
_cell_angle_alpha  89.838625
_cell_angle_beta   90.816682
_cell_angle_gamma 119.97948
loop_
_atom_site_label
_atom_site_type_symbol
_atom_site_fract_x
_atom_site_fract_y
_atom_site_fract_z
_atom_type_partial_charge
In0 In 0.02802 0.03321 0.05257 0.0
O1 O 0.00093 0.08114 0.0619 0.0
O2 O 0.06475 0.08968 0.0723 0.0
C3 C 0.95592 0.97119 0.03334 0.0
C4 C 0.09131 0.08631 0.02944 0.0
C5 C 0.02564 0.97095 0.07506 0.0
O6 O 0.95231 -1e-05 0.04283 0.0
O7 O 0.99545 0.97367 0.03377 0.0
O8 O 0.05366 0.98446 0.06291 0.0
O9 O -0.00016 0.98913 0.07577 0.0
C10 C 0.03481 0.10299 0.07211 0.0
O11 O 0.10287 0.07091 0.04209 0.0
O12 O 0.04862 0.07473 0.0286 0.0
In13 In 0.00663 0.04361 0.37235 0.0
O14 O 0.06032 0.11385 0.36105 0.0
O15 O 0.98885 0.08607 0.35398 0.0
C16 C 0.06682 0.03693 0.39394 0.0
C17 C 0.94682 0.04989 0.39367 0.0
C18 C 0.98642 0.96991 0.35203 0.0
O19 O 0.07813 0.07343 0.38542 0.0
O20 O 0.02532 0.0039 0.39149 0.0
O21 O 0.9583 0.96863 0.36287 0.0
O22 O 0.02402 0.00875 0.35111 0.0
C23 C 0.03055 0.11926 0.3527 0.0
O24 O 0.9329 0.02658 0.3802 0.0
O25 O 0.99045 0.06973 0.39629 0.0
In26 In 0.02558 0.03429 0.70949 0.0
O27 O 0.98787 0.959 0.71934 0.0
O28 O 0.96663 0.00595 0.7285 0.0
C29 C 0.08737 0.01363 0.69534 0.0
C30 C 0.97156 0.04911 0.68725 0.0
C31 C 0.08416 0.11369 0.7265 0.0
O32 O 0.08403 0.01608 0.71096 0.0
O33 O 0.05901 0.02081 0.68683 0.0
O34 O 0.08298 0.11101 0.71074 0.0
O35 O 0.05565 0.07618 0.73378 0.0
C36 C 0.96063 0.96494 0.72866 0.0
O37 O 0.99944 0.08016 0.6974 0.0
O38 O 0.97096 0.0105 0.68823 0.0
C39 C 0.92212 0.63228 0.32333 0.0
C40 C 0.95253 0.66676 0.30982 0.0
C41 C 0.94948 0.6313 0.28289 0.0
C42 C 0.997 0.65515 0.27859 0.0
C43 C 0.01468 0.63486 0.26752 0.0
C44 C 0.98416 0.5897 0.26073 0.0
C45 C 0.93586 0.56628 0.26466 0.0
C46 C 0.91901 0.58787 0.2755 0.0
C47 C 0.06609 0.66131 0.26329 0.0
C48 C 0.90235 0.51793 0.25779 0.0
C49 C 0.16244 0.47119 0.32024 0.0
C50 C 0.1204 0.44003 0.30888 0.0
C51 C 0.11085 0.46487 0.28121 0.0
C52 C 0.06179 0.44103 0.27978 0.0
C53 C 0.03911 0.45735 0.26895 0.0
C54 C 0.06618 0.49885 0.25963 0.0
C55 C 0.11582 0.52223 0.26077 0.0
C56 C 0.13752 0.5042 0.2713 0.0
C57 C 0.98622 0.43082 0.26778 0.0
C58 C 0.14599 0.56715 0.25136 0.0
C59 C 0.07287 0.43065 0.15032 0.0
C60 C 0.02962 0.40783 0.15838 0.0
C61 C 0.01372 0.43357 0.16745 0.0
C62 C 0.04238 0.48304 0.16874 0.0
C63 C 0.0857 0.50613 0.1603 0.0
C64 C 0.10003 0.47955 0.15094 0.0
C65 C 0.96643 0.40789 0.17566 0.0
C66 C 0.11712 0.55875 0.16135 0.0
C67 C 0.86792 0.69251 0.15496 0.0
C68 C 0.91711 0.69939 0.15299 0.0
C69 C 0.93388 0.63528 0.15376 0.0
C70 C 0.90807 0.58639 0.15483 0.0
C71 C 0.92666 0.56135 0.16303 0.0
C72 C 0.97283 0.58598 0.16979 0.0
C73 C 0.00019 0.6353 0.16776 0.0
C74 C 0.98016 0.65954 0.15993 0.0
C75 C 0.89654 0.5088 0.16484 0.0
C76 C 0.0503 0.66252 0.17407 0.0
C77 C 0.0032 0.56586 0.25032 0.0
C78 C 0.02467 0.5439 0.2586 0.0
C79 C 0.04258 0.51979 0.24977 0.0
C80 C 0.03855 0.51691 0.23211 0.0
C81 C 0.05488 0.49181 0.22283 0.0
C82 C 0.05145 0.48988 0.20543 0.0
C83 C 0.03109 0.51257 0.19664 0.0
C84 C 0.02711 0.51055 0.17896 0.0
C85 C 0.00804 0.53476 0.17062 0.0
C86 C 0.99192 0.56044 0.17946 0.0
C87 C 0.99418 0.56161 0.19717 0.0
C88 C 0.97678 0.58574 0.20649 0.0
C89 C 0.97981 0.58732 0.22388 0.0
C90 C 4e-05 0.56454 0.23264 0.0
C91 C 0.01761 0.53979 0.22352 0.0
C92 C 0.01429 0.53798 0.20576 0.0
C93 C 0.14794 0.39192 0.15289 0.0
C94 C 0.0957 0.37132 0.14883 0.0
O95 O 0.9323 0.64928 0.29423 0.0
O96 O 0.91313 0.65815 0.14682 0.0
O97 O 0.08883 0.40605 0.14177 0.0
O98 O 0.13324 0.45127 0.29232 0.0
H99 H 0.98766 0.66958 0.31092 0.0
H100 H 0.92025 0.5979 0.32142 0.0
H101 H 0.88587 0.62659 0.32278 0.0
H102 H 0.93757 0.64581 0.33595 0.0
H103 H 0.02023 0.68955 0.28393 0.0
H104 H 0.88226 0.57009 0.27878 0.0
H105 H 0.08371 0.64312 0.26892 0.0
H106 H 0.08395 0.69808 0.26802 0.0
H107 H 0.07044 0.66177 0.24952 0.0
H108 H 0.86646 0.50336 0.26285 0.0
H109 H 0.9155 0.49352 0.26087 0.0
H110 H 0.90025 0.51947 0.24395 0.0
H111 H 0.09224 0.44803 0.31211 0.0
H112 H 0.15296 0.4628 0.33361 0.0
H113 H 0.1733 0.5087 0.31817 0.0
H114 H 0.19271 0.46623 0.31751 0.0
H115 H 0.04129 0.40983 0.2872 0.0
H116 H 0.17543 0.52204 0.27245 0.0
H117 H 0.97439 0.42667 0.25449 0.0
H118 H 0.97241 0.45108 0.27431 0.0
H119 H 0.97084 0.39552 0.2736 0.0
H120 H 0.18361 0.58369 0.25508 0.0
H121 H 0.13387 0.59271 0.2536 0.0
H122 H 0.14281 0.55967 0.23773 0.0
H123 H 0.07625 0.3588 0.16078 0.0
H124 H 0.00823 0.36993 0.15745 0.0
H125 H 0.13318 0.4967 0.14447 0.0
H126 H 0.97136 0.40864 0.18945 0.0
H127 H 0.94582 0.37062 0.17153 0.0
H128 H 0.94586 0.42554 0.17279 0.0
H129 H 0.1516 0.57075 0.15542 0.0
H130 H 0.12315 0.57038 0.17464 0.0
H131 H 0.09968 0.57613 0.15497 0.0
H132 H 0.93375 0.70738 0.16572 0.0
H133 H 0.86995 0.72481 0.16019 0.0
H134 H 0.8475 0.66306 0.16369 0.0
H135 H 0.84904 0.68412 0.14269 0.0
H136 H 0.87257 0.56806 0.14978 0.0
H137 H 0.00059 0.69736 0.1586 0.0
H138 H 0.89523 0.4988 0.1782 0.0
H139 H 0.91225 0.49116 0.15777 0.0
H140 H 0.86013 0.49549 0.16011 0.0
H141 H 0.06901 0.69888 0.16909 0.0
H142 H 0.06976 0.64436 0.17053 0.0
H143 H 0.0507 0.66457 0.18794 0.0
H144 H 0.02757 0.54568 0.27216 0.0
H145 H 0.07061 0.47345 0.22893 0.0
H146 H 0.06502 0.47039 0.19896 0.0
H147 H 0.00565 0.53355 0.15705 0.0
H148 H 0.9606 0.60374 0.20045 0.0
H149 H 0.96614 0.6067 0.23038 0.0
H150 H 0.16897 0.40467 0.14132 0.0
H151 H 0.15436 0.36504 0.15888 0.0
H152 H 0.15987 0.42193 0.16172 0.0
C153 C 0.3435 0.9295 0.65453 0.0
C154 C 0.34332 0.96968 0.64488 0.0
C155 C 0.37184 0.97651 0.61659 0.0
C156 C 0.4018 0.02506 0.61501 0.0
C157 C 0.43851 0.04299 0.60348 0.0
C158 C 0.44563 0.01155 0.59352 0.0
C159 C 0.41477 0.96249 0.59493 0.0
C160 C 0.37762 0.94569 0.60625 0.0
C161 C 0.46999 0.09548 0.60211 0.0
C162 C 0.42157 0.92771 0.58479 0.0
C163 C 0.82212 0.16268 0.5927 0.0
C164 C 0.78537 0.11773 0.6012 0.0
C165 C 0.70682 0.10795 0.6017 0.0
C166 C 0.67974 0.06114 0.59629 0.0
C167 C 0.63452 0.04439 0.58949 0.0
C168 C 0.6163 0.07522 0.58803 0.0
C169 C 0.6429 0.12189 0.59409 0.0
C170 C 0.68767 0.13745 0.60106 0.0
C171 C 0.60647 0.994 0.58364 0.0
C172 C 0.62441 0.1556 0.59288 0.0
C173 C 0.6703 0.09139 0.47841 0.0
C174 C 0.64451 0.04706 0.48576 0.0
C175 C 0.60471 0.03577 0.49525 0.0
C176 C 0.59114 0.07001 0.49769 0.0
C177 C 0.61639 0.11431 0.48981 0.0
C178 C 0.65538 0.12416 0.48004 0.0
C179 C 0.57762 0.98748 0.50286 0.0
C180 C 0.60291 0.1516 0.49205 0.0
C181 C 0.23455 0.98443 0.49954 0.0
C182 C 0.26896 0.0168 0.48638 0.0
C183 C 0.33928 0.0094 0.48842 0.0
C184 C 0.34973 0.97329 0.49021 0.0
C185 C 0.39209 0.98165 0.4977 0.0
C186 C 0.42499 0.02751 0.50327 0.0
C187 C 0.41543 0.06461 0.50089 0.0
C188 C 0.37273 0.05523 0.49341 0.0
C189 C 0.40149 0.94145 0.49988 0.0
C190 C 0.45038 0.11418 0.50627 0.0
C191 C 0.4865 0.02975 0.58221 0.0
C192 C 0.53054 0.0435 0.58941 0.0
C193 C 0.57034 0.05943 0.57954 0.0
C194 C 0.5662 0.06071 0.56193 0.0
C195 C 0.60536 0.07556 0.5516 0.0
C196 C 0.60075 0.07551 0.53427 0.0
C197 C 0.55691 0.0612 0.52658 0.0
C198 C 0.55167 0.05997 0.50895 0.0
C199 C 0.50815 0.04818 0.50175 0.0
C200 C 0.46931 0.03684 0.5117 0.0
C201 C 0.47332 0.0356 0.52933 0.0
C202 C 0.4345 0.02251 0.53969 0.0
C203 C 0.43872 0.02077 0.55701 0.0
C204 C 0.48198 0.03234 0.56465 0.0
C205 C 0.52184 0.047 0.55447 0.0
C206 C 0.51735 0.04793 0.53678 0.0
C207 C 0.78301 0.15145 0.48358 0.0
C208 C 0.74853 0.10269 0.47653 0.0
O209 O 0.33699 0.95862 0.62796 0.0
O210 O 0.29727 0.99897 0.48142 0.0
O211 O 0.70974 0.10316 0.46974 0.0
O212 O 0.75111 0.1255 0.60786 0.0
H213 H 0.37789 0.00189 0.64728 0.0
H214 H 0.37253 0.92443 0.6501 0.0
H215 H 0.3098 0.89618 0.65256 0.0
H216 H 0.34896 0.93776 0.66813 0.0
H217 H 0.39629 0.04887 0.62274 0.0
H218 H 0.35385 0.90825 0.60749 0.0
H219 H 0.50475 0.10566 0.60782 0.0
H220 H 0.45538 0.11506 0.60862 0.0
H221 H 0.47555 0.10622 0.58876 0.0
H222 H 0.39807 0.8909 0.58882 0.0
H223 H 0.45852 0.93565 0.58588 0.0
H224 H 0.41415 0.93058 0.57138 0.0
H225 H 0.77027 0.08976 0.59142 0.0
H226 H 0.84987 0.15729 0.58715 0.0
H227 H 0.83858 0.19223 0.60183 0.0
H228 H 0.80525 0.17233 0.5825 0.0
H229 H 0.69374 0.03761 0.59748 0.0
H230 H 0.70861 0.17326 0.60558 0.0
H231 H 0.57089 0.97692 0.58912 0.0
H232 H 0.62368 0.97336 0.58708 0.0
H233 H 0.60208 0.99304 0.56982 0.0
H234 H 0.65014 0.19122 0.59764 0.0
H235 H 0.59179 0.1419 0.60021 0.0
H236 H 0.61538 0.1585 0.57965 0.0
H237 H 0.73788 0.07717 0.48704 0.0
H238 H 0.65556 0.02135 0.48402 0.0
H239 H 0.67537 0.1581 0.4741 0.0
H240 H 0.58431 0.99005 0.51658 0.0
H241 H 0.58793 0.96276 0.49759 0.0
H242 H 0.53933 0.97273 0.50079 0.0
H243 H 0.62846 0.1855 0.48625 0.0
H244 H 0.60042 0.15757 0.50558 0.0
H245 H 0.56783 0.13948 0.48625 0.0
H246 H 0.29004 0.05202 0.49226 0.0
H247 H 0.21117 0.9979 0.50349 0.0
H248 H 0.25426 0.98311 0.51074 0.0
H249 H 0.21275 0.94817 0.49452 0.0
H250 H 0.32407 0.93823 0.48601 0.0
H251 H 0.36618 0.08397 0.49125 0.0
H252 H 0.40706 0.93716 0.51336 0.0
H253 H 0.43413 0.94944 0.49329 0.0
H254 H 0.37221 0.90776 0.49496 0.0
H255 H 0.43831 0.13942 0.50311 0.0
H256 H 0.48452 0.12577 0.50014 0.0
H257 H 0.45651 0.11525 0.52 0.0
H258 H 0.5339 0.04179 0.60289 0.0
H259 H 0.64001 0.08694 0.55678 0.0
H260 H 0.63209 0.08697 0.52698 0.0
H261 H 0.5045 0.04802 0.48823 0.0
H262 H 0.40029 0.01302 0.53451 0.0
H263 H 0.40764 0.01024 0.56435 0.0
H264 H 0.79469 0.17831 0.47354 0.0
H265 H 0.8142 0.15174 0.48925 0.0
H266 H 0.7658 0.16099 0.49347 0.0
C267 C 0.66381 0.65088 0.7682 0.0
C268 C 0.67909 0.6908 0.78095 0.0
C269 C 0.6527 0.65255 0.80783 0.0
C270 C 0.62184 0.66798 0.81272 0.0
C271 C 0.58553 0.64159 0.82392 0.0
C272 C 0.5801 0.59896 0.8303 0.0
C273 C 0.61232 0.58429 0.82585 0.0
C274 C 0.6487 0.61175 0.81482 0.0
C275 C 0.55261 0.65891 0.82876 0.0
C276 C 0.60752 0.53899 0.8324 0.0
C277 C 0.28269 0.4575 0.77522 0.0
C278 C 0.29782 0.42476 0.78325 0.0
C279 C 0.33104 0.44248 0.81127 0.0
C280 C 0.3628 0.42587 0.8109 0.0
C281 C 0.4027 0.44553 0.82141 0.0
C282 C 0.41134 0.48323 0.83221 0.0
C283 C 0.37852 0.49923 0.83282 0.0
C284 C 0.33813 0.47773 0.82259 0.0
C285 C 0.43613 0.42673 0.82067 0.0
C286 C 0.38686 0.54021 0.84375 0.0
C287 C 0.35292 0.40162 0.94128 0.0
C288 C 0.3832 0.38919 0.9336 0.0
C289 C 0.42159 0.4223 0.9244 0.0
C290 C 0.42925 0.46852 0.92267 0.0
C291 C 0.3992 0.48132 0.93075 0.0
C292 C 0.36173 0.44773 0.94019 0.0
C293 C 0.45387 0.40785 0.91649 0.0
C294 C 0.40623 0.53021 0.9292 0.0
C295 C 0.73705 0.78995 0.92976 0.0
C296 C 0.71197 0.76951 0.9463 0.0
C297 C 0.66038 0.68633 0.93864 0.0
C298 C 0.65678 0.6421 0.93862 0.0
C299 C 0.62043 0.60408 0.92982 0.0
C300 C 0.58626 0.61038 0.92112 0.0
C301 C 0.58887 0.65471 0.92147 0.0
C302 C 0.6262 0.69234 0.93 0.0
C303 C 0.6188 0.55738 0.9297 0.0
C304 C 0.55218 0.66251 0.91283 0.0
C305 C 0.53925 0.5684 0.84084 0.0
C306 C 0.49645 0.5393 0.83271 0.0
C307 C 0.45648 0.50879 0.84168 0.0
C308 C 0.45957 0.50585 0.85927 0.0
C309 C 0.42098 0.47342 0.86862 0.0
C310 C 0.42393 0.47207 0.88599 0.0
C311 C 0.46548 0.5034 0.89468 0.0
C312 C 0.46852 0.5033 0.91236 0.0
C313 C 0.5091 0.53735 0.92061 0.0
C314 C 0.54749 0.57091 0.91165 0.0
C315 C 0.54648 0.56921 0.89396 0.0
C316 C 0.58574 0.60027 0.88457 0.0
C317 C 0.58376 0.59958 0.86716 0.0
C318 C 0.5422 0.56836 0.8585 0.0
C319 C 0.5023 0.53656 0.86773 0.0
C320 C 0.50487 0.53613 0.88546 0.0
C321 C 0.24128 0.334 0.93589 0.0
C322 C 0.28054 0.32731 0.94346 0.0
O323 O 0.68665 0.67638 0.79644 0.0
O324 O 0.6972 0.72191 0.94708 0.0
O325 O 0.31533 0.3698 0.94998 0.0
O326 O 0.29399 0.42584 0.80048 0.0
H327 H 0.65046 0.6994 0.78161 0.0
H328 H 0.63032 0.61998 0.77213 0.0
H329 H 0.69078 0.6401 0.76724 0.0
H330 H 0.65813 0.66214 0.75567 0.0
H331 H 0.62618 0.70069 0.80786 0.0
H332 H 0.67322 0.6006 0.81113 0.0
H333 H 0.5171 0.63491 0.82347 0.0
H334 H 0.56443 0.695 0.82414 0.0
H335 H 0.54953 0.65863 0.84259 0.0
H336 H 0.63461 0.53181 0.82733 0.0
H337 H 0.57226 0.5092 0.82905 0.0
H338 H 0.61063 0.54057 0.84627 0.0
H339 H 0.3351 0.43832 0.77973 0.0
H340 H 0.28569 0.45736 0.76139 0.0
H341 H 0.30576 0.49397 0.77985 0.0
H342 H 0.24585 0.44647 0.77842 0.0
H343 H 0.35645 0.39779 0.80229 0.0
H344 H 0.31304 0.48995 0.82277 0.0
H345 H 0.44726 0.42285 0.83349 0.0
H346 H 0.46802 0.45195 0.81382 0.0
H347 H 0.42023 0.39222 0.81414 0.0
H348 H 0.36172 0.55262 0.84086 0.0
H349 H 0.42309 0.57004 0.84217 0.0
H350 H 0.38288 0.52957 0.85708 0.0
H351 H 0.29468 0.31494 0.93331 0.0
H352 H 0.37704 0.35374 0.93496 0.0
H353 H 0.33832 0.45694 0.94639 0.0
H354 H 0.44958 0.40704 0.90267 0.0
H355 H 0.4465 0.37256 0.92068 0.0
H356 H 0.49102 0.43387 0.91956 0.0
H357 H 0.37706 0.53312 0.93479 0.0
H358 H 0.40921 0.54045 0.91582 0.0
H359 H 0.43949 0.55561 0.93563 0.0
H360 H 0.68132 0.77489 0.94728 0.0
H361 H 0.7491 0.8281 0.92908 0.0
H362 H 0.71288 0.77232 0.91899 0.0
H363 H 0.76787 0.7849 0.92861 0.0
H364 H 0.68314 0.63766 0.94535 0.0
H365 H 0.62803 0.72608 0.92983 0.0
H366 H 0.61564 0.54458 0.91663 0.0
H367 H 0.58735 0.53109 0.9365 0.0
H368 H 0.65044 0.55944 0.9357 0.0
H369 H 0.55487 0.69631 0.91659 0.0
H370 H 0.51637 0.63348 0.91569 0.0
H371 H 0.55665 0.66299 0.89908 0.0
H372 H 0.49403 0.54102 0.81919 0.0
H373 H 0.38805 0.44878 0.86258 0.0
H374 H 0.39298 0.44664 0.89255 0.0
H375 H 0.51036 0.53845 0.93419 0.0
H376 H 0.61846 0.6254 0.89061 0.0
H377 H 0.61496 0.62438 0.86056 0.0
H378 H 0.22585 0.34615 0.94561 0.0
H379 H 0.21319 0.30052 0.93036 0.0
H380 H 0.25552 0.3607 0.92581 0.0
H381 H 0.98946 0.1537 0.06961 0.0
H382 H 0.0907 0.13779 0.09971 0.0
H383 H 0.99942 0.21791 0.08804 0.0
H384 H 0.09998 0.201 0.11812 0.0
H385 H 0.06608 0.28039 0.15708 0.0
H386 H 0.04709 0.21398 0.13852 0.0
H387 H 0.0706 0.30245 0.09552 0.0
H388 H 0.09046 0.36921 0.11406 0.0
C389 C 0.01355 0.16373 0.0802 0.0
C390 C 0.03935 0.14087 0.08324 0.0
C391 C 0.01934 0.20046 0.09067 0.0
C392 C 0.05028 0.21413 0.10452 0.0
C393 C 0.07554 0.19081 0.10763 0.0
C394 C 0.07041 0.15482 0.09704 0.0
C395 C 0.06643 0.28541 0.14366 0.0
C396 C 0.07899 0.32977 0.13705 0.0
C397 C 0.05581 0.24756 0.13307 0.0
C398 C 0.05729 0.25318 0.11562 0.0
C399 C 0.06863 0.29713 0.10894 0.0
C400 C 0.07997 0.33526 0.11956 0.0
H401 H 0.85477 0.02518 0.38862 0.0
H402 H 0.96729 0.08446 0.42542 0.0
H403 H 0.80329 0.03437 0.40828 0.0
H404 H 0.916 0.0933 0.44498 0.0
H405 H 0.79753 0.05679 0.4814 0.0
H406 H 0.84278 0.04067 0.46117 0.0
H407 H 0.80072 0.10372 0.42213 0.0
H408 H 0.75573 0.12024 0.44242 0.0
C409 C 0.86838 0.03994 0.40091 0.0
C410 C 0.915 0.05413 0.4055 0.0
C411 C 0.83904 0.04537 0.41211 0.0
C412 C 0.85564 0.06439 0.42816 0.0
C413 C 0.9021 0.07805 0.43276 0.0
C414 C 0.93153 0.07322 0.42153 0.0
C415 C 0.79738 0.06651 0.46844 0.0
C416 C 0.77235 0.08891 0.46344 0.0
C417 C 0.82349 0.05759 0.4569 0.0
C418 C 0.82516 0.07087 0.44008 0.0
C419 C 0.7995 0.09253 0.43497 0.0
C420 C 0.77376 0.10195 0.44657 0.0
H421 H 0.89724 0.9696 0.74902 0.0
H422 H 0.93887 0.87319 0.72994 0.0
H423 H 0.83171 0.90499 0.76336 0.0
H424 H 0.87282 0.80838 0.74403 0.0
H425 H 0.77001 0.70771 0.78228 0.0
H426 H 0.84063 0.77539 0.77136 0.0
H427 H 0.75753 0.83681 0.7549 0.0
H428 H 0.68742 0.76969 0.76607 0.0
C429 C 0.89252 0.93463 0.74796 0.0
C430 C 0.92303 0.92639 0.7383 0.0
C431 C 0.85484 0.89758 0.7561 0.0
C432 C 0.84685 0.85148 0.75475 0.0
C433 C 0.87824 0.84352 0.74547 0.0
C434 C 0.91594 0.8806 0.73732 0.0
C435 C 0.76714 0.73609 0.77654 0.0
C436 C 0.7234 0.73385 0.77525 0.0
C437 C 0.80741 0.77461 0.77017 0.0
C438 C 0.80473 0.81158 0.76232 0.0
C439 C 0.76099 0.80938 0.76115 0.0
C440 C 0.72079 0.77088 0.76748 0.0
H441 H 0.98804 0.95614 0.10589 0.0
H442 H 0.05177 0.90423 0.07145 0.0
H443 H 0.97156 0.89195 0.12493 0.0
H444 H 0.03473 0.83912 0.0906 0.0
H445 H 0.92013 0.69981 0.11842 0.0
H446 H 0.95654 0.76816 0.10001 0.0
H447 H 0.01174 0.8595 0.14319 0.0
H448 H 0.9755 0.79119 0.16157 0.0
C449 C 0.99907 0.93126 0.10251 0.0
C450 C 0.02102 0.93501 0.08719 0.0
C451 C 0.9899 0.89466 0.11346 0.0
C452 C 0.0019 0.86058 0.10925 0.0
C453 C 0.02502 0.86491 0.09411 0.0
C454 C 0.03495 0.90218 0.08322 0.0
C455 C 0.94117 0.7344 0.12393 0.0
C456 C 0.94546 0.74021 0.14143 0.0
C457 C 0.96206 0.77348 0.11341 0.0
C458 C 0.9869 0.81909 0.12018 0.0
C459 C 0.99263 0.82473 0.13764 0.0
C460 C 0.97211 0.7857 0.14814 0.0
H461 H 0.05028 0.96144 0.41303 0.0
H462 H 0.15569 0.10499 0.40277 0.0
H463 H 0.10145 0.957 0.43445 0.0
H464 H 0.20725 0.10035 0.42406 0.0
H465 H 0.25566 0.09028 0.47787 0.0
H466 H 0.20907 0.0951 0.45471 0.0
H467 H 0.17524 0.95645 0.43815 0.0
H468 H 0.22144 0.95151 0.46151 0.0
C469 C 0.08457 0.99192 0.41526 0.0
C470 C 0.09893 0.03363 0.40627 0.0
C471 C 0.114 0.98928 0.42746 0.0
C472 C 0.1584 0.02834 0.43097 0.0
C473 C 0.17303 0.06984 0.42178 0.0
C474 C 0.14363 0.07242 0.40953 0.0
C475 C 0.23866 0.06109 0.46917 0.0
C476 C 0.24254 0.02072 0.47138 0.0
C477 C 0.21214 0.06389 0.45587 0.0
C478 C 0.18855 0.0262 0.44457 0.0
C479 C 0.19268 0.98592 0.44672 0.0
C480 C 0.21935 0.98318 0.46 0.0
H481 H 0.14932 0.19692 0.71318 0.0
H482 H 0.09151 0.12945 0.76032 0.0
H483 H 0.20169 0.26984 0.7279 0.0
H484 H 0.14464 0.20253 0.77515 0.0
H485 H 0.20728 0.35914 0.7916 0.0
H486 H 0.15649 0.28239 0.7786 0.0
H487 H 0.27 0.30318 0.74659 0.0
H488 H 0.32028 0.38005 0.7594 0.0
C489 C 0.148 0.19762 0.72671 0.0
C490 C 0.11632 0.1575 0.7356 0.0
C491 C 0.17825 0.23932 0.73516 0.0
C492 C 0.1775 0.24191 0.7527 0.0
C493 C 0.1458 0.20173 0.76162 0.0
C494 C 0.11555 0.15987 0.75314 0.0
C495 C 0.22145 0.34684 0.78197 0.0
C496 C 0.26782 0.37528 0.77661 0.0
C497 C 0.19247 0.30293 0.77455 0.0
C498 C 0.20919 0.28679 0.76152 0.0
C499 C 0.2559 0.31487 0.75644 0.0
C500 C 0.28481 0.35868 0.76386 0.0
H501 H 0.97288 0.13142 0.68126 0.0
H502 H 0.90385 0.98572 0.666 0.0
H503 H 0.92573 0.14598 0.66096 0.0
H504 H 0.85549 -0.00016 0.646 0.0
H505 H 0.8189 0.05679 0.5989 0.0
H506 H 0.86226 0.03906 0.61993 0.0
H507 H 0.84784 0.13053 0.65515 0.0
H508 H 0.806 0.14941 0.63388 0.0
C509 C 0.94733 0.10241 0.67364 0.0
C510 C 0.94215 0.05748 0.67517 0.0
C511 C 0.92002 0.11065 0.66208 0.0
C512 C 0.88668 0.07406 0.65185 0.0
C513 C 0.88126 0.02897 0.65351 0.0
C514 C 0.90879 0.0208 0.66502 0.0
C515 C 0.82454 0.07256 0.61122 0.0
C516 C 0.80831 0.10374 0.61485 0.0
C517 C 0.84924 0.06233 0.62329 0.0
C518 C 0.85847 0.08325 0.63927 0.0
C519 C 0.84182 0.11417 0.64293 0.0
C520 C 0.81736 0.12459 0.63082 0.0
H521 H 0.96095 0.91555 0.00932 0.0
H522 H 0.86515 0.95291 0.03161 0.0
H523 H 0.90036 0.86484 0.98936 0.0
H524 H 0.80352 0.90052 0.01198 0.0
H525 H 0.72662 0.8503 0.96126 0.0
H526 H 0.78349 0.89666 0.98309 0.0
H527 H 0.82871 0.79378 0.98577 0.0
H528 H 0.77332 0.74875 0.96338 0.0
C529 C 0.92664 0.9124 0.01009 0.0
C530 C 0.91782 0.93835 0.02198 0.0
C531 C 0.89172 0.883 0.99871 0.0
C532 C 0.84691 0.87845 0.99903 0.0
C533 C 0.83782 0.90371 0.0112 0.0
C534 C 0.873 0.93351 0.02251 0.0
C535 C 0.7484 0.83742 0.96669 0.0
C536 C 0.74482 0.79545 0.96084 0.0
C537 C 0.78084 0.86382 0.97926 0.0
C538 C 0.81059 0.8489 0.9863 0.0
C539 C 0.80671 0.80663 0.98054 0.0
C540 C 0.77458 0.78047 0.96782 0.0
H541 H 0.9092 0.88209 0.35252 0.0
H542 H 0.04551 0.96283 0.33015 0.0
H543 H 0.90027 0.8107 0.33968 0.0
H544 H 0.03636 0.89152 0.31715 0.0
H545 H 0.03001 0.74705 0.32111 0.0
H546 H 0.03636 0.82189 0.32864 0.0
H547 H 0.89222 0.76877 0.31305 0.0
H548 H 0.88589 0.69352 0.30558 0.0
C549 C 0.93688 0.8847 0.34461 0.0
C550 C 0.9782 0.92797 0.34245 0.0
C551 C 0.93167 0.84384 0.33719 0.0
C552 C 0.96778 0.84541 0.3275 0.0
C553 C 0.00821 0.88908 0.32474 0.0
C554 C 0.01333 0.92995 0.33211 0.0
C555 C -7e-05 0.75164 0.31905 0.0
C556 C 0.95751 0.71455 0.31272 0.0
C557 C 0.00359 0.79456 0.32329 0.0
C558 C 0.96479 0.80127 0.32143 0.0
C559 C 0.92261 0.76453 0.31473 0.0
C560 C 0.91905 0.72162 0.31038 0.0
H561 H 0.15717 0.00596 0.71116 0.0
H562 H 0.09831 0.00239 0.66214 0.0
H563 H 0.21825 0.99535 0.69844 0.0
H564 H 0.15971 0.99205 0.64939 0.0
H565 H 0.24927 0.9234 0.63589 0.0
H566 H 0.18653 0.9331 0.64782 0.0
H567 H 0.28749 0.04187 0.68072 0.0
H568 H 0.35004 0.03203 0.66882 0.0
C569 C 0.1572 0.00275 0.69767 0.0
C570 C 0.12302 0.00507 0.68764 0.0
C571 C 0.19236 0.99699 0.69038 0.0
C572 C 0.19395 0.99316 0.67291 0.0
C573 C 0.15921 0.9946 0.66289 0.0
C574 C 0.12419 0.00068 0.67019 0.0
C575 C 0.25807 0.94988 0.64548 0.0
C576 C 0.3047 0.97769 0.65119 0.0
C577 C 0.2222 0.95539 0.65232 0.0
C578 C 0.23209 0.98824 0.6652 0.0
C579 C 0.2787 0.01598 0.67091 0.0
C580 C 0.31456 0.01068 0.664 0.0
H581 H 0.18599 0.14629 0.03303 0.0
H582 H 0.07115 0.09597 0.99728 0.0
H583 H 0.23834 0.20365 0.01241 0.0
H584 H 0.12327 0.15216 0.97674 0.0
H585 H 0.23851 0.23245 0.93935 0.0
H586 H 0.19806 0.17084 0.96017 0.0
H587 H 0.23628 0.27649 0.99855 0.0
H588 H 0.27591 0.33816 0.97772 0.0
C589 C 0.17227 0.14692 0.02069 0.0
C590 C 0.12463 0.11693 0.01672 0.0
C591 C 0.20203 0.17976 0.00897 0.0
C592 C 0.18474 0.18215 0.99302 0.0
C593 C 0.13757 0.15074 0.98888 0.0
C594 C 0.10775 0.11878 0.00066 0.0
C595 C 0.23901 0.24243 0.9523 0.0
C596 C 0.261 0.29008 0.95692 0.0
C597 C 0.21583 0.20727 0.96417 0.0
C598 C 0.21441 0.21903 0.98094 0.0
C599 C 0.23759 0.26656 0.98573 0.0
C600 C 0.26019 0.3018 0.9738 0.0
H601 H 0.97137 0.14171 0.33611 0.0
H602 H 0.11785 0.19474 0.34803 0.0
H603 H 0.99122 0.21628 0.3228 0.0
H604 H 0.13763 0.26942 0.33491 0.0
H605 H 0.1625 0.38884 0.30016 0.0
H606 H 0.13963 0.30827 0.30818 0.0
H607 H 0.01896 0.29622 0.33351 0.0
H608 H 0.04168 0.37632 0.32538 0.0
C609 C 0.00785 0.16912 0.33573 0.0
C610 C 0.04303 0.16252 0.3432 0.0
C611 C 0.01918 0.21188 0.32818 0.0
C612 C 0.06595 0.24885 0.32788 0.0
C613 C 0.10132 0.24151 0.33478 0.0
C614 C 0.08997 0.19882 0.34238 0.0
C615 C 0.13072 0.36856 0.30721 0.0
C616 C 0.10373 0.38869 0.31209 0.0
C617 C 0.11778 0.32264 0.31189 0.0
C618 C 0.07753 0.2959 0.3215 0.0
C619 C 0.0498 0.31561 0.32591 0.0
C620 C 0.06288 0.36155 0.32132 0.0
loop_
_geom_bond_atom_site_label_1
_geom_bond_atom_site_label_2
_geom_bond_distance
_geom_bond_site_symmetry_2
_ccdc_geom_bond_type
In0 O1 2.294 1_455 S
In0 O2 2.326 . S
In0 O6 2.266 1_445 S
In0 O7 2.326 1_445 S
In0 O8 2.266 1_545 S
In0 O9 2.326 1_445 S
In0 O11 2.294 . S
In0 O12 2.326 . S
O1 In0 2.294 1_655 S
O1 C10 1.240 1_655 S
O2 In0 2.326 . S
O2 C10 1.252 . S
C3 O6 1.252 . S
C3 O7 1.260 . S
C4 O11 1.240 . S
C4 O12 1.252 . S
C5 O8 1.252 . S
C5 O9 1.260 1_455 S
O6 In0 2.266 1_665 S
O6 C3 1.252 . S
O7 In0 2.326 1_665 S
O7 C3 1.260 . S
O8 In0 2.266 1_565 S
O8 C5 1.252 . S
O9 In0 2.326 1_665 S
O9 C5 1.260 1_655 S
C10 O1 1.240 1_455 S
C10 O2 1.252 . S
O11 In0 2.294 . S
O11 C4 1.240 . S
O12 In0 2.326 . S
O12 C4 1.252 . S
In13 O14 2.294 . S
In13 O15 2.326 1_455 S
In13 O19 2.266 . S
In13 O20 2.326 . S
In13 O21 2.266 1_445 S
In13 O22 2.326 . S
In13 O24 2.294 1_455 S
In13 O25 2.326 1_455 S
O14 In13 2.294 . S
O14 C23 1.240 . S
O15 In13 2.326 1_655 S
O15 C23 1.252 1_655 S
C16 O19 1.252 . S
C16 O20 1.260 . S
C17 O24 1.240 . S
C17 O25 1.252 . S
C18 O21 1.252 1_455 S
C18 O22 1.260 1_565 S
O19 In13 2.266 . S
O19 C16 1.252 . S
O20 In13 2.326 . S
O20 C16 1.260 . S
O21 In13 2.266 1_665 S
O21 C18 1.252 1_655 S
O22 In13 2.326 . S
O22 C18 1.260 1_545 S
C23 O14 1.240 . S
C23 O15 1.252 1_455 S
O24 In13 2.294 1_655 S
O24 C17 1.240 . S
O25 In13 2.326 1_655 S
O25 C17 1.252 . S
In26 O27 2.294 1_445 S
In26 O28 2.326 1_455 S
In26 O32 2.266 . S
In26 O33 2.326 . S
In26 O34 2.266 . S
In26 O35 2.326 . S
In26 O37 2.294 1_455 S
In26 O38 2.326 1_445 S
O27 In26 2.294 1_665 S
O27 C36 1.240 . S
O28 In26 2.326 1_655 S
O28 C36 1.252 1_545 S
C29 O32 1.252 . S
C29 O33 1.260 . S
C30 O37 1.240 . S
C30 O38 1.252 1_545 S
C31 O34 1.252 . S
C31 O35 1.260 . S
O32 In26 2.266 . S
O32 C29 1.252 . S
O33 In26 2.326 . S
O33 C29 1.260 . S
O34 In26 2.266 . S
O34 C31 1.252 . S
O35 In26 2.326 . S
O35 C31 1.260 . S
C36 O27 1.240 . S
C36 O28 1.252 1_565 S
O37 In26 2.294 1_655 S
O37 C30 1.240 . S
O38 In26 2.326 1_665 S
O38 C30 1.252 1_565 S
C39 C40 1.560 . S
C39 H100 0.959 . S
C39 H101 0.959 . S
C39 H102 0.960 . S
C40 C39 1.560 . S
C40 O95 1.426 . S
C40 H99 0.980 1_655 S
C41 C42 1.407 1_655 S
C41 C46 1.418 . S
C41 O95 1.334 . S
C42 C41 1.407 1_455 S
C42 C43 1.360 . S
C42 H103 0.929 . S
C43 C42 1.360 . S
C43 C44 1.401 . S
C43 C47 1.527 . S
C44 C43 1.401 . S
C44 C45 1.405 1_455 S
C44 C77 1.587 . S
C45 C44 1.405 1_655 S
C45 C46 1.332 . S
C45 C48 1.496 . S
C46 C41 1.418 . S
C46 C45 1.332 . S
C46 H104 0.929 . S
C47 C43 1.527 . S
C47 H105 0.959 . S
C47 H106 0.961 . S
C47 H107 0.961 . S
C48 C45 1.496 . S
C48 H108 0.960 . S
C48 H109 0.960 . S
C48 H110 0.961 . S
C49 C50 1.517 . S
C49 H112 0.961 . S
C49 H113 0.960 . S
C49 H114 0.959 . S
C50 C49 1.517 . S
C50 O98 1.468 . S
C50 H111 0.980 . S
C51 C52 1.349 . S
C51 C56 1.367 . S
C51 O98 1.408 . S
C52 C51 1.349 . S
C52 C53 1.407 . S
C52 H115 0.930 . S
C53 C52 1.407 . S
C53 C54 1.449 . S
C53 C57 1.535 1_455 S
C54 C53 1.449 . S
C54 C55 1.384 . S
C54 C79 1.553 . S
C55 C54 1.384 . S
C55 C56 1.364 . S
C55 C58 1.450 . S
C56 C51 1.367 . S
C56 C55 1.364 . S
C56 H116 0.931 . S
C57 C53 1.535 1_655 S
C57 H117 0.959 . S
C57 H118 0.961 . S
C57 H119 0.959 . S
C58 C55 1.450 . S
C58 H120 0.960 . S
C58 H121 0.960 . S
C58 H122 0.960 . S
C59 C60 1.309 . S
C59 C64 1.304 . S
C59 O97 1.435 . S
C60 C59 1.309 . S
C60 C61 1.476 . S
C60 H124 0.930 1_455 S
C61 C60 1.476 . S
C61 C62 1.400 . S
C61 C65 1.567 1_455 S
C62 C61 1.400 . S
C62 C63 1.373 . S
C62 C84 1.432 . S
C63 C62 1.373 . S
C63 C64 1.339 . S
C63 C66 1.530 . S
C64 C59 1.304 . S
C64 C63 1.339 . S
C64 H125 0.930 . S
C65 C61 1.567 1_655 S
C65 H126 0.961 . S
C65 H127 0.960 . S
C65 H128 0.958 . S
C66 C63 1.530 . S
C66 H129 0.961 . S
C66 H130 0.960 . S
C66 H131 0.960 . S
C67 C68 1.530 1_655 S
C67 H133 0.961 . S
C67 H134 0.961 . S
C67 H135 0.959 . S
C68 C67 1.530 1_455 S
C68 O96 1.412 1_455 S
C68 H132 0.980 . S
C69 C70 1.288 . S
C69 C74 1.377 1_655 S
C69 O96 1.393 . S
C70 C69 1.288 . S
C70 C71 1.369 . S
C70 H136 0.932 . S
C71 C70 1.369 . S
C71 C72 1.398 1_655 S
C71 C75 1.527 . S
C72 C71 1.398 1_455 S
C72 C73 1.380 . S
C72 C86 1.497 . S
C73 C72 1.380 . S
C73 C74 1.383 . S
C73 C76 1.603 . S
C74 C69 1.377 1_455 S
C74 C73 1.383 . S
C74 H137 0.929 . S
C75 C71 1.527 . S
C75 H138 0.961 . S
C75 H139 0.959 . S
C75 H140 0.959 . S
C76 C73 1.603 . S
C76 H141 0.960 . S
C76 H142 0.962 . S
C76 H143 0.961 . S
C77 C44 1.587 . S
C77 C78 1.360 . S
C77 C90 1.412 . S
C78 C77 1.360 . S
C78 C79 1.365 . S
C78 H144 0.929 . S
C79 C54 1.553 . S
C79 C78 1.365 . S
C79 C80 1.404 . S
C80 C79 1.404 . S
C80 C81 1.395 . S
C80 C91 1.451 . S
C81 C80 1.395 . S
C81 C82 1.322 . S
C81 H145 0.930 . S
C82 C81 1.322 . S
C82 C83 1.459 . S
C82 H146 0.929 . S
C83 C82 1.459 . S
C83 C84 1.445 . S
C83 C92 1.395 . S
C84 C62 1.432 . S
C84 C83 1.445 . S
C84 C85 1.370 . S
C85 C84 1.370 . S
C85 C86 1.438 . S
C85 H147 0.930 . S
C86 C72 1.497 . S
C86 C85 1.438 . S
C86 C87 1.360 . S
C87 C86 1.360 . S
C87 C88 1.401 . S
C87 C92 1.446 . S
C88 C87 1.401 . S
C88 C89 1.347 . S
C88 H148 0.929 . S
C89 C88 1.347 . S
C89 C90 1.455 . S
C89 H149 0.930 . S
C90 C77 1.412 . S
C90 C89 1.455 . S
C90 C91 1.331 . S
C91 C80 1.451 . S
C91 C90 1.331 . S
C91 C92 1.497 . S
C92 C83 1.395 . S
C92 C87 1.446 . S
C92 C91 1.497 . S
C93 C94 1.582 . S
C93 H150 0.962 . S
C93 H151 0.959 . S
C93 H152 0.958 . S
C94 C93 1.582 . S
C94 O97 1.458 . S
C94 H123 0.980 . S
O95 C40 1.426 . S
O95 C41 1.334 . S
O96 C68 1.412 1_655 S
O96 C69 1.393 . S
O97 C59 1.435 . S
O97 C94 1.458 . S
O98 C50 1.468 . S
O98 C51 1.408 . S
H99 C40 0.980 1_455 S
H100 C39 0.959 . S
H101 C39 0.959 . S
H102 C39 0.960 . S
H103 C42 0.929 . S
H104 C46 0.929 . S
H105 C47 0.959 . S
H106 C47 0.961 . S
H107 C47 0.961 . S
H108 C48 0.960 . S
H109 C48 0.960 . S
H110 C48 0.961 . S
H111 C50 0.980 . S
H112 C49 0.961 . S
H113 C49 0.960 . S
H114 C49 0.959 . S
H115 C52 0.930 . S
H116 C56 0.931 . S
H117 C57 0.959 . S
H118 C57 0.961 . S
H119 C57 0.959 . S
H120 C58 0.960 . S
H121 C58 0.960 . S
H122 C58 0.960 . S
H123 C94 0.980 . S
H124 C60 0.930 1_655 S
H125 C64 0.930 . S
H126 C65 0.961 . S
H127 C65 0.960 . S
H128 C65 0.958 . S
H129 C66 0.961 . S
H130 C66 0.960 . S
H131 C66 0.960 . S
H132 C68 0.980 . S
H133 C67 0.961 . S
H134 C67 0.961 . S
H135 C67 0.959 . S
H136 C70 0.932 . S
H137 C74 0.929 . S
H138 C75 0.961 . S
H139 C75 0.959 . S
H140 C75 0.959 . S
H141 C76 0.960 . S
H142 C76 0.962 . S
H143 C76 0.961 . S
H144 C78 0.929 . S
H145 C81 0.930 . S
H146 C82 0.929 . S
H147 C85 0.930 . S
H148 C88 0.929 . S
H149 C89 0.930 . S
H150 C93 0.962 . S
H151 C93 0.959 . S
H152 C93 0.958 . S
C153 C154 1.560 1_565 S
C153 H214 0.959 . S
C153 H215 0.959 . S
C153 H216 0.960 . S
C154 C153 1.560 1_545 S
C154 O209 1.426 1_545 S
C154 H213 0.980 . S
C155 C156 1.407 . S
C155 C160 1.418 1_545 S
C155 O209 1.334 1_545 S
C156 C155 1.407 . S
C156 C157 1.360 . S
C156 H217 0.929 . S
C157 C156 1.360 . S
C157 C158 1.401 . S
C157 C161 1.527 . S
C158 C157 1.401 . S
C158 C159 1.384 1_545 S
C158 C191 1.587 . S
C159 C158 1.384 1_565 S
C159 C160 1.329 . S
C159 C162 1.519 . S
C160 C155 1.418 1_565 S
C160 C159 1.329 . S
C160 H218 0.929 . S
C161 C157 1.527 . S
C161 H219 0.959 . S
C161 H220 0.961 . S
C161 H221 0.961 . S
C162 C159 1.519 . S
C162 H222 0.960 . S
C162 H223 0.960 . S
C162 H224 0.961 . S
C163 C164 1.517 . S
C163 H226 0.961 . S
C163 H227 0.960 . S
C163 H228 0.959 . S
C164 C163 1.517 . S
C164 O212 1.468 . S
C164 H225 0.980 . S
C165 C166 1.349 . S
C165 C170 1.367 . S
C165 O212 1.408 . S
C166 C165 1.349 . S
C166 C167 1.407 . S
C166 H229 0.930 . S
C167 C166 1.407 . S
C167 C168 1.449 . S
C167 C171 1.526 1_545 S
C168 C167 1.449 . S
C168 C169 1.384 . S
C168 C193 1.553 . S
C169 C168 1.384 . S
C169 C170 1.364 . S
C169 C172 1.450 . S
C170 C165 1.367 . S
C170 C169 1.364 . S
C170 H230 0.931 . S
C171 C167 1.526 1_565 S
C171 H231 0.952 1_565 S
C171 H232 0.967 . S
C171 H233 0.970 . S
C172 C169 1.450 . S
C172 H234 0.960 . S
C172 H235 0.960 . S
C172 H236 0.960 . S
C173 C174 1.309 . S
C173 C178 1.304 . S
C173 O211 1.435 . S
C174 C173 1.309 . S
C174 C175 1.476 . S
C174 H238 0.930 . S
C175 C174 1.476 . S
C175 C176 1.400 . S
C175 C179 1.567 1_545 S
C176 C175 1.400 . S
C176 C177 1.373 . S
C176 C198 1.432 . S
C177 C176 1.373 . S
C177 C178 1.339 . S
C177 C180 1.530 . S
C178 C173 1.304 . S
C178 C177 1.339 . S
C178 H239 0.930 . S
C179 C175 1.567 1_565 S
C179 H240 0.961 . S
C179 H241 0.960 . S
C179 H242 0.958 . S
C180 C177 1.530 . S
C180 H243 0.961 . S
C180 H244 0.960 . S
C180 H245 0.960 . S
C181 C182 1.530 . S
C181 H247 0.961 . S
C181 H248 0.961 1_545 S
C181 H249 0.959 1_545 S
C182 C181 1.530 . S
C182 O210 1.412 . S
C182 H246 0.980 . S
C183 C184 1.288 1_545 S
C183 C188 1.377 . S
C183 O210 1.393 . S
C184 C183 1.288 1_565 S
C184 C185 1.369 . S
C184 H250 0.932 . S
C185 C184 1.369 . S
C185 C186 1.398 1_565 S
C185 C189 1.527 . S
C186 C185 1.398 1_545 S
C186 C187 1.380 . S
C186 C200 1.497 . S
C187 C186 1.380 . S
C187 C188 1.383 . S
C187 C190 1.603 . S
C188 C183 1.377 . S
C188 C187 1.383 . S
C188 H251 0.929 . S
C189 C185 1.527 . S
C189 H252 0.961 . S
C189 H253 0.959 . S
C189 H254 0.959 . S
C190 C187 1.603 . S
C190 H255 0.960 . S
C190 H256 0.962 . S
C190 H257 0.961 . S
C191 C158 1.587 . S
C191 C192 1.360 . S
C191 C204 1.412 . S
C192 C191 1.360 . S
C192 C193 1.365 . S
C192 H258 0.929 . S
C193 C168 1.553 . S
C193 C192 1.365 . S
C193 C194 1.404 . S
C194 C193 1.404 . S
C194 C195 1.395 . S
C194 C205 1.451 . S
C195 C194 1.395 . S
C195 C196 1.322 . S
C195 H259 0.930 . S
C196 C195 1.322 . S
C196 C197 1.459 . S
C196 H260 0.929 . S
C197 C196 1.459 . S
C197 C198 1.445 . S
C197 C206 1.395 . S
C198 C176 1.432 . S
C198 C197 1.445 . S
C198 C199 1.370 . S
C199 C198 1.370 . S
C199 C200 1.438 . S
C199 H261 0.930 . S
C200 C186 1.497 . S
C200 C199 1.438 . S
C200 C201 1.360 . S
C201 C200 1.360 . S
C201 C202 1.401 . S
C201 C206 1.446 . S
C202 C201 1.401 . S
C202 C203 1.347 . S
C202 H262 0.929 . S
C203 C202 1.347 . S
C203 C204 1.455 . S
C203 H263 0.930 . S
C204 C191 1.412 . S
C204 C203 1.455 . S
C204 C205 1.331 . S
C205 C194 1.451 . S
C205 C204 1.331 . S
C205 C206 1.497 . S
C206 C197 1.395 . S
C206 C201 1.446 . S
C206 C205 1.497 . S
C207 C208 1.582 . S
C207 H264 0.962 . S
C207 H265 0.959 . S
C207 H266 0.958 . S
C208 C207 1.582 . S
C208 O211 1.458 . S
C208 H237 0.980 . S
O209 C154 1.426 1_565 S
O209 C155 1.334 1_565 S
O210 C182 1.412 . S
O210 C183 1.393 . S
O211 C173 1.435 . S
O211 C208 1.458 . S
O212 C164 1.468 . S
O212 C165 1.408 . S
H213 C154 0.980 . S
H214 C153 0.959 . S
H215 C153 0.959 . S
H216 C153 0.960 . S
H217 C156 0.929 . S
H218 C160 0.929 . S
H219 C161 0.959 . S
H220 C161 0.961 . S
H221 C161 0.961 . S
H222 C162 0.960 . S
H223 C162 0.960 . S
H224 C162 0.961 . S
H225 C164 0.980 . S
H226 C163 0.961 . S
H227 C163 0.960 . S
H228 C163 0.959 . S
H229 C166 0.930 . S
H230 C170 0.931 . S
H231 C171 0.952 1_545 S
H232 C171 0.967 . S
H233 C171 0.970 . S
H234 C172 0.960 . S
H235 C172 0.960 . S
H236 C172 0.960 . S
H237 C208 0.980 . S
H238 C174 0.930 . S
H239 C178 0.930 . S
H240 C179 0.961 . S
H241 C179 0.960 . S
H242 C179 0.958 . S
H243 C180 0.961 . S
H244 C180 0.960 . S
H245 C180 0.960 . S
H246 C182 0.980 . S
H247 C181 0.961 . S
H248 C181 0.961 1_565 S
H249 C181 0.959 1_565 S
H250 C184 0.932 . S
H251 C188 0.929 . S
H252 C189 0.961 . S
H253 C189 0.959 . S
H254 C189 0.959 . S
H255 C190 0.960 . S
H256 C190 0.962 . S
H257 C190 0.961 . S
H258 C192 0.929 . S
H259 C195 0.930 . S
H260 C196 0.929 . S
H261 C199 0.930 . S
H262 C202 0.929 . S
H263 C203 0.930 . S
H264 C207 0.962 . S
H265 C207 0.959 . S
H266 C207 0.958 . S
C267 C268 1.560 . S
C267 H328 0.959 . S
C267 H329 0.959 . S
C267 H330 0.960 . S
C268 C267 1.560 . S
C268 O323 1.426 . S
C268 H327 0.980 . S
C269 C270 1.407 . S
C269 C274 1.418 . S
C269 O323 1.334 . S
C270 C269 1.407 . S
C270 C271 1.360 . S
C270 H331 0.929 . S
C271 C270 1.360 . S
C271 C272 1.401 . S
C271 C275 1.527 . S
C272 C271 1.401 . S
C272 C273 1.405 . S
C272 C305 1.587 . S
C273 C272 1.405 . S
C273 C274 1.332 . S
C273 C276 1.496 . S
C274 C269 1.418 . S
C274 C273 1.332 . S
C274 H332 0.929 . S
C275 C271 1.527 . S
C275 H333 0.959 . S
C275 H334 0.961 . S
C275 H335 0.961 . S
C276 C273 1.496 . S
C276 H336 0.960 . S
C276 H337 0.960 . S
C276 H338 0.961 . S
C277 C278 1.517 . S
C277 H340 0.961 . S
C277 H341 0.960 . S
C277 H342 0.959 . S
C278 C277 1.517 . S
C278 O326 1.468 . S
C278 H339 0.980 . S
C279 C280 1.349 . S
C279 C284 1.367 . S
C279 O326 1.408 . S
C280 C279 1.349 . S
C280 C281 1.407 . S
C280 H343 0.930 . S
C281 C280 1.407 . S
C281 C282 1.449 . S
C281 C285 1.535 . S
C282 C281 1.449 . S
C282 C283 1.384 . S
C282 C307 1.553 . S
C283 C282 1.384 . S
C283 C284 1.364 . S
C283 C286 1.450 . S
C284 C279 1.367 . S
C284 C283 1.364 . S
C284 H344 0.931 . S
C285 C281 1.535 . S
C285 H345 0.959 . S
C285 H346 0.961 . S
C285 H347 0.959 . S
C286 C283 1.450 . S
C286 H348 0.960 . S
C286 H349 0.960 . S
C286 H350 0.960 . S
C287 C288 1.309 . S
C287 C292 1.304 . S
C287 O325 1.435 . S
C288 C287 1.309 . S
C288 C289 1.476 . S
C288 H352 0.930 . S
C289 C288 1.476 . S
C289 C290 1.400 . S
C289 C293 1.567 . S
C290 C289 1.400 . S
C290 C291 1.373 . S
C290 C312 1.432 . S
C291 C290 1.373 . S
C291 C292 1.339 . S
C291 C294 1.530 . S
C292 C287 1.304 . S
C292 C291 1.339 . S
C292 H353 0.930 . S
C293 C289 1.567 . S
C293 H354 0.961 . S
C293 H355 0.960 . S
C293 H356 0.958 . S
C294 C291 1.530 . S
C294 H357 0.961 . S
C294 H358 0.960 . S
C294 H359 0.960 . S
C295 C296 1.530 . S
C295 H361 0.961 . S
C295 H362 0.961 . S
C295 H363 0.959 . S
C296 C295 1.530 . S
C296 O324 1.412 . S
C296 H360 0.980 . S
C297 C298 1.288 . S
C297 C302 1.377 . S
C297 O324 1.393 . S
C298 C297 1.288 . S
C298 C299 1.369 . S
C298 H364 0.932 . S
C299 C298 1.369 . S
C299 C300 1.398 . S
C299 C303 1.527 . S
C300 C299 1.398 . S
C300 C301 1.380 . S
C300 C314 1.497 . S
C301 C300 1.380 . S
C301 C302 1.383 . S
C301 C304 1.603 . S
C302 C297 1.377 . S
C302 C301 1.383 . S
C302 H365 0.929 . S
C303 C299 1.527 . S
C303 H366 0.961 . S
C303 H367 0.959 . S
C303 H368 0.959 . S
C304 C301 1.603 . S
C304 H369 0.960 . S
C304 H370 0.962 . S
C304 H371 0.961 . S
C305 C272 1.587 . S
C305 C306 1.360 . S
C305 C318 1.412 . S
C306 C305 1.360 . S
C306 C307 1.365 . S
C306 H372 0.929 . S
C307 C282 1.553 . S
C307 C306 1.365 . S
C307 C308 1.404 . S
C308 C307 1.404 . S
C308 C309 1.395 . S
C308 C319 1.451 . S
C309 C308 1.395 . S
C309 C310 1.322 . S
C309 H373 0.930 . S
C310 C309 1.322 . S
C310 C311 1.459 . S
C310 H374 0.929 . S
C311 C310 1.459 . S
C311 C312 1.445 . S
C311 C320 1.395 . S
C312 C290 1.432 . S
C312 C311 1.445 . S
C312 C313 1.370 . S
C313 C312 1.370 . S
C313 C314 1.438 . S
C313 H375 0.930 . S
C314 C300 1.497 . S
C314 C313 1.438 . S
C314 C315 1.360 . S
C315 C314 1.360 . S
C315 C316 1.401 . S
C315 C320 1.446 . S
C316 C315 1.401 . S
C316 C317 1.347 . S
C316 H376 0.929 . S
C317 C316 1.347 . S
C317 C318 1.455 . S
C317 H377 0.930 . S
C318 C305 1.412 . S
C318 C317 1.455 . S
C318 C319 1.331 . S
C319 C308 1.451 . S
C319 C318 1.331 . S
C319 C320 1.497 . S
C320 C311 1.395 . S
C320 C315 1.446 . S
C320 C319 1.497 . S
C321 C322 1.582 . S
C321 H378 0.962 . S
C321 H379 0.959 . S
C321 H380 0.958 . S
C322 C321 1.582 . S
C322 O325 1.458 . S
C322 H351 0.980 . S
O323 C268 1.426 . S
O323 C269 1.334 . S
O324 C296 1.412 . S
O324 C297 1.393 . S
O325 C287 1.435 . S
O325 C322 1.458 . S
O326 C278 1.468 . S
O326 C279 1.408 . S
H327 C268 0.980 . S
H328 C267 0.959 . S
H329 C267 0.959 . S
H330 C267 0.960 . S
H331 C270 0.929 . S
H332 C274 0.929 . S
H333 C275 0.959 . S
H334 C275 0.961 . S
H335 C275 0.961 . S
H336 C276 0.960 . S
H337 C276 0.960 . S
H338 C276 0.961 . S
H339 C278 0.980 . S
H340 C277 0.961 . S
H341 C277 0.960 . S
H342 C277 0.959 . S
H343 C280 0.930 . S
H344 C284 0.931 . S
H345 C285 0.959 . S
H346 C285 0.961 . S
H347 C285 0.959 . S
H348 C286 0.960 . S
H349 C286 0.960 . S
H350 C286 0.960 . S
H351 C322 0.980 . S
H352 C288 0.930 . S
H353 C292 0.930 . S
H354 C293 0.961 . S
H355 C293 0.960 . S
H356 C293 0.958 . S
H357 C294 0.961 . S
H358 C294 0.960 . S
H359 C294 0.960 . S
H360 C296 0.980 . S
H361 C295 0.961 . S
H362 C295 0.961 . S
H363 C295 0.959 . S
H364 C298 0.932 . S
H365 C302 0.929 . S
H366 C303 0.961 . S
H367 C303 0.959 . S
H368 C303 0.959 . S
H369 C304 0.960 . S
H370 C304 0.962 . S
H371 C304 0.961 . S
H372 C306 0.929 . S
H373 C309 0.930 . S
H374 C310 0.929 . S
H375 C313 0.930 . S
H376 C316 0.929 . S
H377 C317 0.930 . S
H378 C321 0.962 . S
H379 C321 0.959 . S
H380 C321 0.958 . S
H381 C389 0.950 . S
H382 C394 0.950 . S
H383 C391 0.950 . S
H384 C393 0.950 . S
H385 C395 0.950 . S
H386 C397 0.950 . S
H387 C399 0.950 . S
H388 C400 0.950 . S
C389 H381 0.950 . S
C389 C390 1.386 1_655 S
C389 C391 1.391 . S
C390 C389 1.386 1_455 S
C390 C394 1.393 . S
C391 H383 0.950 . S
C391 C389 1.391 . S
C391 C392 1.400 1_655 S
C392 C391 1.400 1_455 S
C392 C393 1.398 . S
C392 C398 1.491 . S
C393 H384 0.950 . S
C393 C392 1.398 . S
C393 C394 1.391 . S
C394 H382 0.950 . S
C394 C390 1.393 . S
C394 C393 1.391 . S
C395 H385 0.950 . S
C395 C396 1.386 . S
C395 C397 1.391 . S
C396 C395 1.386 . S
C396 C400 1.393 1_455 S
C397 H386 0.950 . S
C397 C395 1.391 . S
C397 C398 1.400 . S
C398 C392 1.491 . S
C398 C397 1.400 . S
C398 C399 1.398 1_455 S
C399 H387 0.950 . S
C399 C398 1.398 1_655 S
C399 C400 1.391 . S
C400 H388 0.950 . S
C400 C396 1.393 1_655 S
C400 C399 1.391 . S
H401 C409 0.950 . S
H402 C414 0.950 . S
H403 C411 0.950 . S
H404 C413 0.950 . S
H405 C415 0.950 . S
H406 C417 0.950 . S
H407 C419 0.950 . S
H408 C420 0.950 . S
C409 H401 0.950 . S
C409 C410 1.386 . S
C409 C411 1.391 . S
C410 C409 1.386 . S
C410 C414 1.393 . S
C411 H403 0.950 . S
C411 C409 1.391 . S
C411 C412 1.400 . S
C412 C411 1.400 . S
C412 C413 1.398 . S
C412 C418 1.491 . S
C413 H404 0.950 . S
C413 C412 1.398 . S
C413 C414 1.391 . S
C414 H402 0.950 . S
C414 C410 1.393 . S
C414 C413 1.391 . S
C415 H405 0.950 . S
C415 C416 1.386 . S
C415 C417 1.391 . S
C416 C415 1.386 . S
C416 C420 1.393 . S
C417 H406 0.950 . S
C417 C415 1.391 . S
C417 C418 1.400 . S
C418 C412 1.491 . S
C418 C417 1.400 . S
C418 C419 1.398 . S
C419 H407 0.950 . S
C419 C418 1.398 . S
C419 C420 1.391 . S
C420 H408 0.950 . S
C420 C416 1.393 . S
C420 C419 1.391 . S
H421 C429 0.950 . S
H422 C434 0.950 . S
H423 C431 0.950 . S
H424 C433 0.950 . S
H425 C435 0.950 . S
H426 C437 0.950 . S
H427 C439 0.950 . S
H428 C440 0.950 . S
C429 H421 0.950 . S
C429 C430 1.386 . S
C429 C431 1.391 . S
C430 C429 1.386 . S
C430 C434 1.393 . S
C431 H423 0.950 . S
C431 C429 1.391 . S
C431 C432 1.400 . S
C432 C431 1.400 . S
C432 C433 1.398 . S
C432 C438 1.491 . S
C433 H424 0.950 . S
C433 C432 1.398 . S
C433 C434 1.391 . S
C434 H422 0.950 . S
C434 C430 1.393 . S
C434 C433 1.391 . S
C435 H425 0.950 . S
C435 C436 1.386 . S
C435 C437 1.391 . S
C436 C435 1.386 . S
C436 C440 1.393 . S
C437 H426 0.950 . S
C437 C435 1.391 . S
C437 C438 1.400 . S
C438 C432 1.491 . S
C438 C437 1.400 . S
C438 C439 1.398 . S
C439 H427 0.950 . S
C439 C438 1.398 . S
C439 C440 1.391 . S
C440 H428 0.950 . S
C440 C436 1.393 . S
C440 C439 1.391 . S
H441 C449 0.950 1_655 S
H442 C454 0.950 . S
H443 C451 0.950 . S
H444 C453 0.950 . S
H445 C455 0.950 . S
H446 C457 0.950 . S
H447 C459 0.950 . S
H448 C460 0.950 . S
C449 H441 0.950 1_455 S
C449 C450 1.386 . S
C449 C451 1.391 . S
C450 C449 1.386 . S
C450 C454 1.393 . S
C451 H443 0.950 . S
C451 C449 1.391 . S
C451 C452 1.400 . S
C452 C451 1.400 . S
C452 C453 1.398 . S
C452 C458 1.491 . S
C453 H444 0.950 . S
C453 C452 1.398 . S
C453 C454 1.391 . S
C454 H442 0.950 . S
C454 C450 1.393 . S
C454 C453 1.391 . S
C455 H445 0.950 . S
C455 C456 1.386 . S
C455 C457 1.391 . S
C456 C455 1.386 . S
C456 C460 1.393 . S
C457 H446 0.950 . S
C457 C455 1.391 . S
C457 C458 1.400 . S
C458 C452 1.491 . S
C458 C457 1.400 . S
C458 C459 1.398 . S
C459 H447 0.950 . S
C459 C458 1.398 . S
C459 C460 1.391 . S
C460 H448 0.950 . S
C460 C456 1.393 . S
C460 C459 1.391 . S
H461 C469 0.950 1_565 S
H462 C474 0.950 . S
H463 C471 0.950 1_565 S
H464 C473 0.950 . S
H465 C475 0.950 . S
H466 C477 0.950 . S
H467 C479 0.950 1_565 S
H468 C480 0.950 1_565 S
C469 H461 0.950 1_545 S
C469 C470 1.386 . S
C469 C471 1.391 . S
C470 C469 1.386 . S
C470 C474 1.393 . S
C471 H463 0.950 1_545 S
C471 C469 1.391 . S
C471 C472 1.400 . S
C472 C471 1.400 . S
C472 C473 1.398 . S
C472 C478 1.491 . S
C473 H464 0.950 . S
C473 C472 1.398 . S
C473 C474 1.391 . S
C474 H462 0.950 . S
C474 C470 1.393 . S
C474 C473 1.391 . S
C475 H465 0.950 . S
C475 C476 1.386 . S
C475 C477 1.391 . S
C476 C475 1.386 . S
C476 C480 1.393 . S
C477 H466 0.950 . S
C477 C475 1.391 . S
C477 C478 1.400 . S
C478 C472 1.491 . S
C478 C477 1.400 . S
C478 C479 1.398 . S
C479 H467 0.950 1_545 S
C479 C478 1.398 . S
C479 C480 1.391 . S
C480 H468 0.950 1_545 S
C480 C476 1.393 . S
C480 C479 1.391 . S
H481 C489 0.950 . S
H482 C494 0.950 . S
H483 C491 0.950 . S
H484 C493 0.950 . S
H485 C495 0.950 . S
H486 C497 0.950 . S
H487 C499 0.950 . S
H488 C500 0.950 . S
C489 H481 0.950 . S
C489 C490 1.386 . S
C489 C491 1.391 . S
C490 C489 1.386 . S
C490 C494 1.393 . S
C491 H483 0.950 . S
C491 C489 1.391 . S
C491 C492 1.400 . S
C492 C491 1.400 . S
C492 C493 1.398 . S
C492 C498 1.491 . S
C493 H484 0.950 . S
C493 C492 1.398 . S
C493 C494 1.391 . S
C494 H482 0.950 . S
C494 C490 1.393 . S
C494 C493 1.391 . S
C495 H485 0.950 . S
C495 C496 1.386 . S
C495 C497 1.391 . S
C496 C495 1.386 . S
C496 C500 1.393 . S
C497 H486 0.950 . S
C497 C495 1.391 . S
C497 C498 1.400 . S
C498 C492 1.491 . S
C498 C497 1.400 . S
C498 C499 1.398 . S
C499 H487 0.950 . S
C499 C498 1.398 . S
C499 C500 1.391 . S
C500 H488 0.950 . S
C500 C496 1.393 . S
C500 C499 1.391 . S
H501 C509 0.950 . S
H502 C514 0.950 1_565 S
H503 C511 0.950 . S
H504 C513 0.950 1_565 S
H505 C515 0.950 1_565 S
H506 C517 0.950 1_565 S
H507 C519 0.950 . S
H508 C520 0.950 . S
C509 H501 0.950 . S
C509 C510 1.386 . S
C509 C511 1.391 . S
C510 C509 1.386 . S
C510 C514 1.393 . S
C511 H503 0.950 . S
C511 C509 1.391 . S
C511 C512 1.400 . S
C512 C511 1.400 . S
C512 C513 1.398 . S
C512 C518 1.491 . S
C513 H504 0.950 1_545 S
C513 C512 1.398 . S
C513 C514 1.391 . S
C514 H502 0.950 1_545 S
C514 C510 1.393 . S
C514 C513 1.391 . S
C515 H505 0.950 1_545 S
C515 C516 1.386 . S
C515 C517 1.391 . S
C516 C515 1.386 . S
C516 C520 1.393 . S
C517 H506 0.950 1_545 S
C517 C515 1.391 . S
C517 C518 1.400 . S
C518 C512 1.491 . S
C518 C517 1.400 . S
C518 C519 1.398 . S
C519 H507 0.950 . S
C519 C518 1.398 . S
C519 C520 1.391 . S
C520 H508 0.950 . S
C520 C516 1.393 . S
C520 C519 1.391 . S
H521 C529 0.950 . S
H522 C534 0.950 . S
H523 C531 0.950 . S
H524 C533 0.950 . S
H525 C535 0.950 . S
H526 C537 0.950 . S
H527 C539 0.950 . S
H528 C540 0.950 . S
C529 H521 0.950 . S
C529 C530 1.386 . S
C529 C531 1.391 1_554 S
C530 C529 1.386 . S
C530 C534 1.393 . S
C531 H523 0.950 . S
C531 C529 1.391 1_556 S
C531 C532 1.400 . S
C532 C531 1.400 . S
C532 C533 1.398 1_556 S
C532 C538 1.491 . S
C533 H524 0.950 . S
C533 C532 1.398 1_554 S
C533 C534 1.391 . S
C534 H522 0.950 . S
C534 C530 1.393 . S
C534 C533 1.391 . S
C535 H525 0.950 . S
C535 C536 1.386 . S
C535 C537 1.391 . S
C536 C535 1.386 . S
C536 C540 1.393 . S
C537 H526 0.950 . S
C537 C535 1.391 . S
C537 C538 1.400 . S
C538 C532 1.491 . S
C538 C537 1.400 . S
C538 C539 1.398 . S
C539 H527 0.950 . S
C539 C538 1.398 . S
C539 C540 1.391 . S
C540 H528 0.950 . S
C540 C536 1.393 . S
C540 C539 1.391 . S
H541 C549 0.950 . S
H542 C554 0.950 . S
H543 C551 0.950 . S
H544 C553 0.950 . S
H545 C555 0.950 . S
H546 C557 0.950 . S
H547 C559 0.950 . S
H548 C560 0.950 . S
C549 H541 0.950 . S
C549 C550 1.386 1_655 S
C549 C551 1.391 . S
C550 C549 1.386 1_455 S
C550 C554 1.393 . S
C551 H543 0.950 . S
C551 C549 1.391 . S
C551 C552 1.400 1_655 S
C552 C551 1.400 1_455 S
C552 C553 1.398 . S
C552 C558 1.491 . S
C553 H544 0.950 . S
C553 C552 1.398 . S
C553 C554 1.391 . S
C554 H542 0.950 . S
C554 C550 1.393 . S
C554 C553 1.391 . S
C555 H545 0.950 . S
C555 C556 1.386 . S
C555 C557 1.391 . S
C556 C555 1.386 . S
C556 C560 1.393 1_455 S
C557 H546 0.950 . S
C557 C555 1.391 . S
C557 C558 1.400 . S
C558 C552 1.491 . S
C558 C557 1.400 . S
C558 C559 1.398 1_455 S
C559 H547 0.950 . S
C559 C558 1.398 1_655 S
C559 C560 1.391 . S
C560 H548 0.950 . S
C560 C556 1.393 1_655 S
C560 C559 1.391 . S
H561 C569 0.950 1_565 S
H562 C574 0.950 . S
H563 C571 0.950 1_565 S
H564 C573 0.950 . S
H565 C575 0.950 . S
H566 C577 0.950 . S
H567 C579 0.950 1_565 S
H568 C580 0.950 1_565 S
C569 H561 0.950 1_545 S
C569 C570 1.386 . S
C569 C571 1.391 . S
C570 C569 1.386 . S
C570 C574 1.393 . S
C571 H563 0.950 1_545 S
C571 C569 1.391 . S
C571 C572 1.400 . S
C572 C571 1.400 . S
C572 C573 1.398 . S
C572 C578 1.491 . S
C573 H564 0.950 . S
C573 C572 1.398 . S
C573 C574 1.391 . S
C574 H562 0.950 . S
C574 C570 1.393 . S
C574 C573 1.391 . S
C575 H565 0.950 . S
C575 C576 1.386 . S
C575 C577 1.391 . S
C576 C575 1.386 . S
C576 C580 1.393 . S
C577 H566 0.950 . S
C577 C575 1.391 . S
C577 C578 1.400 . S
C578 C572 1.491 . S
C578 C577 1.400 . S
C578 C579 1.398 . S
C579 H567 0.950 1_545 S
C579 C578 1.398 . S
C579 C580 1.391 . S
C580 H568 0.950 1_545 S
C580 C576 1.393 . S
C580 C579 1.391 . S
H581 C589 0.950 . S
H582 C594 0.950 . S
H583 C591 0.950 . S
H584 C593 0.950 . S
H585 C595 0.950 . S
H586 C597 0.950 . S
H587 C599 0.950 . S
H588 C600 0.950 . S
C589 H581 0.950 . S
C589 C590 1.386 . S
C589 C591 1.391 . S
C590 C589 1.386 . S
C590 C594 1.393 1_554 S
C591 H583 0.950 . S
C591 C589 1.391 . S
C591 C592 1.400 1_554 S
C592 C591 1.400 1_556 S
C592 C593 1.398 . S
C592 C598 1.491 . S
C593 H584 0.950 . S
C593 C592 1.398 . S
C593 C594 1.391 . S
C594 H582 0.950 . S
C594 C590 1.393 1_556 S
C594 C593 1.391 . S
C595 H585 0.950 . S
C595 C596 1.386 . S
C595 C597 1.391 . S
C596 C595 1.386 . S
C596 C600 1.393 . S
C597 H586 0.950 . S
C597 C595 1.391 . S
C597 C598 1.400 . S
C598 C592 1.491 . S
C598 C597 1.400 . S
C598 C599 1.398 . S
C599 H587 0.950 . S
C599 C598 1.398 . S
C599 C600 1.391 . S
C600 H588 0.950 . S
C600 C596 1.393 . S
C600 C599 1.391 . S
H601 C609 0.950 . S
H602 C614 0.950 . S
H603 C611 0.950 . S
H604 C613 0.950 . S
H605 C615 0.950 . S
H606 C617 0.950 . S
H607 C619 0.950 . S
H608 C620 0.950 . S
C609 H601 0.950 . S
C609 C610 1.386 1_655 S
C609 C611 1.391 . S
C610 C609 1.386 1_455 S
C610 C614 1.393 . S
C611 H603 0.950 . S
C611 C609 1.391 . S
C611 C612 1.400 1_655 S
C612 C611 1.400 1_455 S
C612 C613 1.398 . S
C612 C618 1.491 . S
C613 H604 0.950 . S
C613 C612 1.398 . S
C613 C614 1.391 . S
C614 H602 0.950 . S
C614 C610 1.393 . S
C614 C613 1.391 . S
C615 H605 0.950 . S
C615 C616 1.386 . S
C615 C617 1.391 . S
C616 C615 1.386 . S
C616 C620 1.393 1_455 S
C617 H606 0.950 . S
C617 C615 1.391 . S
C617 C618 1.400 . S
C618 C612 1.491 . S
C618 C617 1.400 . S
C618 C619 1.398 1_455 S
C619 H607 0.950 . S
C619 C618 1.398 1_655 S
C619 C620 1.391 . S
C620 H608 0.950 . S
C620 C616 1.393 1_655 S
C620 C619 1.391 . S
C396 C94 1.159 . S
C390 C10 1.611 . S
C410 C17 1.618 . S
C416 C208 1.160 . S
C430 C36 1.386 . S
C436 C268 1.154 . S
C450 C5 1.480 . S
C456 C68 1.170 . S
C476 C182 1.126 . S
C470 C16 1.487 . S
C490 C31 1.529 . S
C496 C278 0.986 . S
C516 C164 0.958 . S
C510 C30 1.533 . S
C530 C3 1.482 . S
C536 C296 1.140 . S
C556 C40 1.095 1_455 S
C550 C18 1.389 . S
C576 C154 1.118 . S
C570 C29 1.391 . S
C596 C322 1.150 . S
C590 C4 1.615 . S
C610 C23 1.521 . S
C616 C50 0.994 . S
