# Generated by pormake.
# Topology pto, (3,4)-cn, num edge types: 1
# Building blocks:
#     Node 0, Type 0, BuildingBlock: VETTIZ_charged_linker_0, # of connection points: 3
#     Node 1, Type 0, BuildingBlock: VETTIZ_charged_linker_0, # of connection points: 3
#     Node 2, Type 0, BuildingBlock: VETTIZ_charged_linker_0, # of connection points: 3
#     Node 3, Type 0, BuildingBlock: VETTIZ_charged_linker_0, # of connection points: 3
#     Node 4, Type 0, BuildingBlock: VETTIZ_charged_linker_0, # of connection points: 3
#     Node 5, Type 0, BuildingBlock: VETTIZ_charged_linker_0, # of connection points: 3
#     Node 6, Type 0, BuildingBlock: VETTIZ_charged_linker_0, # of connection points: 3
#     Node 7, Type 0, BuildingBlock: VETTIZ_charged_linker_0, # of connection points: 3
#     Node 8, Type 1, BuildingBlock: NAWXER_clean_sbu_0, # of connection points: 4
#     Node 9, Type 1, BuildingBlock: NAWXER_clean_sbu_0, # of connection points: 4
#     Node 10, Type 1, BuildingBlock: NAWXER_clean_sbu_0, # of connection points: 4
#     Node 11, Type 1, BuildingBlock: NAWXER_clean_sbu_0, # of connection points: 4
#     Node 12, Type 1, BuildingBlock: NAWXER_clean_sbu_0, # of connection points: 4
#     Node 13, Type 1, BuildingBlock: NAWXER_clean_sbu_0, # of connection points: 4
#     Edge 14, Type (0, 1), BuildingBlock: UVAHIK_clean_linker_0, # of connection points: 2
#     Edge 15, Type (0, 1), BuildingBlock: UVAHIK_clean_linker_0, # of connection points: 2
#     Edge 16, Type (0, 1), BuildingBlock: UVAHIK_clean_linker_0, # of connection points: 2
#     Edge 17, Type (0, 1), BuildingBlock: UVAHIK_clean_linker_0, # of connection points: 2
#     Edge 18, Type (0, 1), BuildingBlock: UVAHIK_clean_linker_0, # of connection points: 2
#     Edge 19, Type (0, 1), BuildingBlock: UVAHIK_clean_linker_0, # of connection points: 2
#     Edge 20, Type (0, 1), BuildingBlock: UVAHIK_clean_linker_0, # of connection points: 2
#     Edge 21, Type (0, 1), BuildingBlock: UVAHIK_clean_linker_0, # of connection points: 2
#     Edge 22, Type (0, 1), BuildingBlock: UVAHIK_clean_linker_0, # of connection points: 2
#     Edge 23, Type (0, 1), BuildingBlock: UVAHIK_clean_linker_0, # of connection points: 2
#     Edge 24, Type (0, 1), BuildingBlock: UVAHIK_clean_linker_0, # of connection points: 2
#     Edge 25, Type (0, 1), BuildingBlock: UVAHIK_clean_linker_0, # of connection points: 2
#     Edge 26, Type (0, 1), BuildingBlock: UVAHIK_clean_linker_0, # of connection points: 2
#     Edge 27, Type (0, 1), BuildingBlock: UVAHIK_clean_linker_0, # of connection points: 2
#     Edge 28, Type (0, 1), BuildingBlock: UVAHIK_clean_linker_0, # of connection points: 2
#     Edge 29, Type (0, 1), BuildingBlock: UVAHIK_clean_linker_0, # of connection points: 2
#     Edge 30, Type (0, 1), BuildingBlock: UVAHIK_clean_linker_0, # of connection points: 2
#     Edge 31, Type (0, 1), BuildingBlock: UVAHIK_clean_linker_0, # of connection points: 2
#     Edge 32, Type (0, 1), BuildingBlock: UVAHIK_clean_linker_0, # of connection points: 2
#     Edge 33, Type (0, 1), BuildingBlock: UVAHIK_clean_linker_0, # of connection points: 2
#     Edge 34, Type (0, 1), BuildingBlock: UVAHIK_clean_linker_0, # of connection points: 2
#     Edge 35, Type (0, 1), BuildingBlock: UVAHIK_clean_linker_0, # of connection points: 2
#     Edge 36, Type (0, 1), BuildingBlock: UVAHIK_clean_linker_0, # of connection points: 2
#     Edge 37, Type (0, 1), BuildingBlock: UVAHIK_clean_linker_0, # of connection points: 2
# Relax obj value: 0.000
# Max RMSD: 0.000
# Mean RMSD: 0.000
data_MOF--net-pto--node1-NAWXER_clean_sbu_0--node2-VETTIZ_charged_linker_0--edge1-UVAHIK_clean_linker_0
_symmetry_space_group_name_H-M    P1
_symmetry_Int_Tables_number       1
_symmetry_cell_setting            triclinic
loop_
_symmetry_equiv_pos_as_xyz
'x, y, z'
_cell_length_a     67.108537
_cell_length_b     62.963481
_cell_length_c     58.761628
_cell_angle_alpha  90.003988
_cell_angle_beta   89.990135
_cell_angle_gamma 90.00189
loop_
_atom_site_label
_atom_site_type_symbol
_atom_site_fract_x
_atom_site_fract_y
_atom_site_fract_z
_atom_type_partial_charge
C0 C 0.23268 0.2099 0.30538 0.0
C1 C 0.24521 0.192 0.30596 0.0
C2 C 0.26218 0.19166 0.29172 0.0
C3 C 0.25352 0.22625 0.27653 0.0
C4 C 0.23721 0.22679 0.29083 0.0
C5 C 0.22573 0.24717 0.28888 0.0
H6 H 0.21163 0.34221 0.23818 0.0
C7 C 0.25371 0.2462 0.26328 0.0
C8 C 0.23758 0.2586 0.27061 0.0
H9 H 0.17836 0.31378 0.29343 0.0
H10 H 0.20008 0.28355 0.29306 0.0
H11 H 0.21668 0.29884 0.20899 0.0
H12 H 0.25566 0.32913 0.25752 0.0
H13 H 0.27009 0.32046 0.23433 0.0
H14 H 0.25096 0.34012 0.22984 0.0
H15 H 0.22963 0.32309 0.20268 0.0
H16 H 0.24116 0.29753 0.19843 0.0
C17 C 0.20435 0.24173 0.28076 0.0
C18 C 0.22677 0.25881 0.31215 0.0
C19 C 0.30569 0.25701 0.20165 0.0
C20 C 0.30929 0.27334 0.18584 0.0
C21 C 0.29674 0.29134 0.18596 0.0
C22 C 0.28092 0.293 0.20151 0.0
C23 C 0.27754 0.27649 0.21714 0.0
C24 C 0.28983 0.25888 0.21697 0.0
C25 C 0.28402 0.24278 0.23465 0.0
C26 C 0.26619 0.2536 0.24546 0.0
C27 C 0.26244 0.27338 0.23521 0.0
C28 C 0.27812 0.22202 0.22219 0.0
C29 C 0.30154 0.24034 0.25165 0.0
C30 C 0.20908 0.32943 0.25017 0.0
C31 C 0.1933 0.33048 0.26597 0.0
C32 C 0.19058 0.31359 0.28138 0.0
C33 C 0.20315 0.29591 0.28103 0.0
C34 C 0.21871 0.29497 0.2651 0.0
C35 C 0.22163 0.31159 0.25012 0.0
C36 C 0.23917 0.30772 0.23461 0.0
C37 C 0.24624 0.28609 0.24287 0.0
C38 C 0.23403 0.27872 0.26059 0.0
C39 C 0.23144 0.30686 0.2098 0.0
C40 C 0.25484 0.32528 0.23906 0.0
H41 H 0.27944 0.20735 0.26661 0.0
H42 H 0.21944 0.21078 0.31586 0.0
H43 H 0.24035 0.25426 0.32188 0.0
H44 H 0.22794 0.27625 0.31032 0.0
H45 H 0.21366 0.25495 0.32293 0.0
H46 H 0.20469 0.22894 0.26769 0.0
H47 H 0.19502 0.23606 0.29514 0.0
H48 H 0.19674 0.25519 0.27244 0.0
H49 H 0.31519 0.24312 0.20233 0.0
H50 H 0.29899 0.30406 0.17383 0.0
H51 H 0.2719 0.30705 0.20069 0.0
H52 H 0.2696 0.22561 0.2064 0.0
H53 H 0.29153 0.21278 0.21722 0.0
H54 H 0.2682 0.21173 0.23231 0.0
H55 H 0.30979 0.25555 0.25365 0.0
H56 H 0.29652 0.23629 0.26903 0.0
H57 H 0.31234 0.22816 0.24573 0.0
H58 H 0.27243 0.17839 0.29212 0.0
C59 C 0.26635 0.20862 0.277 0.0
C60 C 0.20719 0.67358 0.75328 0.0
C61 C 0.19123 0.67269 0.73772 0.0
C62 C 0.18812 0.68991 0.72282 0.0
C63 C 0.21654 0.70829 0.73877 0.0
C64 C 0.21967 0.69148 0.75344 0.0
C65 C 0.23744 0.69513 0.76865 0.0
H66 H 0.31445 0.75881 0.79986 0.0
C67 C 0.23208 0.72436 0.74303 0.0
C68 C 0.24451 0.71677 0.76043 0.0
H69 H 0.29773 0.69819 0.82875 0.0
H70 H 0.2704 0.69549 0.80219 0.0
H71 H 0.26904 0.77706 0.79606 0.0
H72 H 0.30853 0.74617 0.74874 0.0
H73 H 0.29522 0.76526 0.73317 0.0
H74 H 0.31133 0.77367 0.75609 0.0
H75 H 0.29124 0.7893 0.78515 0.0
H76 H 0.26793 0.79092 0.7701 0.0
C77 C 0.23004 0.69587 0.7936 0.0
C78 C 0.25296 0.67751 0.76379 0.0
C79 C 0.23149 0.79284 0.69758 0.0
C80 C 0.24446 0.81036 0.69647 0.0
C81 C 0.2616 0.81044 0.71043 0.0
C82 C 0.26553 0.79359 0.72538 0.0
C83 C 0.25231 0.77632 0.72634 0.0
C84 C 0.2358 0.77603 0.71232 0.0
C85 C 0.22395 0.75592 0.71469 0.0
C86 C 0.23582 0.74438 0.73285 0.0
C87 C 0.25227 0.75648 0.73978 0.0
C88 C 0.2028 0.7619 0.72316 0.0
C89 C 0.22443 0.74409 0.69151 0.0
C90 C 0.30479 0.74505 0.80069 0.0
C91 C 0.30829 0.72873 0.81653 0.0
C92 C 0.29553 0.7109 0.8166 0.0
C93 C 0.27957 0.70941 0.80124 0.0
C94 C 0.27626 0.72592 0.78559 0.0
C95 C 0.28878 0.74336 0.78554 0.0
C96 C 0.28303 0.75946 0.76785 0.0
C97 C 0.26489 0.74892 0.75739 0.0
C98 C 0.261 0.72923 0.76776 0.0
C99 C 0.27761 0.7804 0.78024 0.0
C100 C 0.30039 0.76148 0.75057 0.0
H101 H 0.19735 0.72019 0.71154 0.0
H102 H 0.21003 0.66058 0.76489 0.0
H103 H 0.25366 0.67396 0.74526 0.0
H104 H 0.26827 0.68212 0.76853 0.0
H105 H 0.24901 0.66257 0.77278 0.0
H106 H 0.21519 0.70366 0.79471 0.0
H107 H 0.22854 0.67961 0.80076 0.0
H108 H 0.23978 0.70537 0.8048 0.0
H109 H 0.2181 0.79216 0.68733 0.0
H110 H 0.27218 0.82339 0.70964 0.0
H111 H 0.27878 0.79464 0.73553 0.0
H112 H 0.20355 0.77491 0.73596 0.0
H113 H 0.19331 0.76749 0.70888 0.0
H114 H 0.19514 0.74872 0.73193 0.0
H115 H 0.23808 0.74807 0.68163 0.0
H116 H 0.22503 0.72663 0.69346 0.0
H117 H 0.21139 0.74837 0.68082 0.0
H118 H 0.17573 0.68985 0.71101 0.0
C119 C 0.20064 0.70763 0.72326 0.0
C120 C 0.80214 0.68128 0.26418 0.0
C121 C 0.8015 0.66331 0.25006 0.0
C122 C 0.78656 0.66198 0.23322 0.0
C123 C 0.77365 0.69642 0.24453 0.0
C124 C 0.78823 0.69754 0.2611 0.0
C125 C 0.78761 0.71802 0.27413 0.0
H126 H 0.74721 0.81491 0.29061 0.0
C127 C 0.76202 0.71639 0.24544 0.0
C128 C 0.77022 0.72906 0.26274 0.0
H129 H 0.79616 0.78566 0.32689 0.0
H130 H 0.79292 0.7542 0.30397 0.0
H131 H 0.71956 0.77411 0.29104 0.0
H132 H 0.7598 0.79885 0.24065 0.0
H133 H 0.73812 0.7906 0.22641 0.0
H134 H 0.73648 0.81126 0.24756 0.0
H135 H 0.71305 0.7962 0.27328 0.0
H136 H 0.70848 0.76913 0.26454 0.0
C137 C 0.78314 0.71275 0.2994 0.0
C138 C 0.80756 0.7299 0.27006 0.0
C139 C 0.70409 0.72882 0.19097 0.0
C140 C 0.69065 0.74582 0.18817 0.0
C141 C 0.69249 0.76374 0.20242 0.0
C142 C 0.70742 0.76481 0.21901 0.0
C143 C 0.72073 0.74777 0.22155 0.0
C144 C 0.71892 0.73011 0.20774 0.0
C145 C 0.73433 0.71345 0.21316 0.0
C146 C 0.74556 0.72401 0.23256 0.0
C147 C 0.73755 0.74416 0.23726 0.0
C148 C 0.72337 0.6931 0.22103 0.0
C149 C 0.74765 0.71036 0.19189 0.0
C150 C 0.75715 0.80167 0.29374 0.0
C151 C 0.77207 0.80289 0.31053 0.0
C152 C 0.78478 0.78533 0.31382 0.0
C153 C 0.78278 0.76698 0.30058 0.0
C154 C 0.76789 0.76606 0.2838 0.0
C155 C 0.75532 0.78318 0.28068 0.0
C156 C 0.74022 0.77923 0.26224 0.0
C157 C 0.74597 0.757 0.25465 0.0
C158 C 0.76218 0.74944 0.26732 0.0
C159 C 0.71917 0.77981 0.27313 0.0
C160 C 0.74361 0.79586 0.24318 0.0
H161 H 0.76164 0.67651 0.21729 0.0
H162 H 0.81366 0.68305 0.27695 0.0
H163 H 0.81338 0.72678 0.25265 0.0
H164 H 0.80603 0.74734 0.27092 0.0
H165 H 0.81913 0.72473 0.28238 0.0
H166 H 0.7729 0.69891 0.30081 0.0
H167 H 0.79702 0.70872 0.30876 0.0
H168 H 0.77538 0.72575 0.3084 0.0
H169 H 0.70324 0.71488 0.18022 0.0
H170 H 0.68215 0.77688 0.20102 0.0
H171 H 0.70794 0.77887 0.22928 0.0
H172 H 0.7103 0.69719 0.23183 0.0
H173 H 0.71785 0.68384 0.20623 0.0
H174 H 0.73272 0.68271 0.23174 0.0
H175 H 0.75022 0.72577 0.18308 0.0
H176 H 0.76269 0.70443 0.19608 0.0
H177 H 0.74057 0.69938 0.17951 0.0
H178 H 0.7857 0.64823 0.22218 0.0
C179 C 0.77259 0.67839 0.23044 0.0
C180 C 0.70187 0.27195 0.8076 0.0
C181 C 0.6881 0.25512 0.80926 0.0
C182 C 0.68978 0.23789 0.79404 0.0
C183 C 0.71871 0.25401 0.77646 0.0
C184 C 0.71698 0.27107 0.79112 0.0
C185 C 0.73289 0.28754 0.78703 0.0
H186 H 0.81494 0.31814 0.72792 0.0
C187 C 0.7362 0.25769 0.76171 0.0
C188 C 0.7446 0.27734 0.76776 0.0
H189 H 0.78489 0.35265 0.78145 0.0
H190 H 0.76074 0.32426 0.78506 0.0
H191 H 0.77443 0.30181 0.70183 0.0
H192 H 0.8144 0.27515 0.75124 0.0
H193 H 0.80606 0.25355 0.735 0.0
H194 H 0.82 0.27457 0.72142 0.0
H195 H 0.79975 0.29449 0.69581 0.0
H196 H 0.77975 0.27556 0.6935 0.0
C197 C 0.7226 0.30837 0.77944 0.0
C198 C 0.74552 0.28966 0.80895 0.0
C199 C 0.75612 0.20205 0.7032 0.0
C200 C 0.77251 0.20022 0.68832 0.0
C201 C 0.78679 0.21668 0.68794 0.0
C202 C 0.78469 0.23462 0.7018 0.0
C203 C 0.76827 0.23615 0.71651 0.0
C204 C 0.75444 0.21994 0.71724 0.0
C205 C 0.73854 0.22382 0.73482 0.0
C206 C 0.74504 0.24517 0.74432 0.0
C207 C 0.7623 0.25237 0.73332 0.0
C208 C 0.71821 0.22532 0.72244 0.0
C209 C 0.73985 0.2059 0.75287 0.0
C210 C 0.80295 0.3198 0.74014 0.0
C211 C 0.80171 0.33776 0.75424 0.0
C212 C 0.7862 0.33894 0.77041 0.0
C213 C 0.77217 0.32248 0.77243 0.0
C214 C 0.77371 0.30457 0.75821 0.0
C215 C 0.78895 0.30353 0.74242 0.0
C216 C 0.78875 0.28322 0.72908 0.0
C217 C 0.77066 0.27231 0.73915 0.0
C218 C 0.76187 0.2848 0.75623 0.0
C219 C 0.78564 0.28889 0.70366 0.0
C220 C 0.80831 0.27094 0.73422 0.0
H221 H 0.70536 0.22369 0.76668 0.0
H222 H 0.70111 0.28539 0.81907 0.0
H223 H 0.74794 0.27384 0.81693 0.0
H224 H 0.7606 0.29597 0.80574 0.0
H225 H 0.73795 0.29993 0.82166 0.0
H226 H 0.70954 0.30493 0.76835 0.0
H227 H 0.71715 0.31753 0.79435 0.0
H228 H 0.73235 0.31864 0.76907 0.0
H229 H 0.74472 0.18991 0.70394 0.0
H230 H 0.79983 0.21562 0.67715 0.0
H231 H 0.79606 0.24652 0.7006 0.0
H232 H 0.71982 0.23373 0.70588 0.0
H233 H 0.71207 0.20928 0.71888 0.0
H234 H 0.70705 0.23462 0.732 0.0
H235 H 0.75548 0.20033 0.75502 0.0
H236 H 0.73532 0.21115 0.77004 0.0
H237 H 0.73072 0.19196 0.74784 0.0
H238 H 0.67918 0.22493 0.79457 0.0
C239 C 0.70496 0.23725 0.77771 0.0
C240 C 0.75696 0.78268 0.69087 0.0
C241 C 0.74057 0.79635 0.68748 0.0
C242 C 0.7235 0.79365 0.70121 0.0
C243 C 0.7392 0.76439 0.72113 0.0
C244 C 0.75598 0.76694 0.70777 0.0
C245 C 0.77213 0.7513 0.7139 0.0
H246 H 0.80489 0.67328 0.78429 0.0
C247 C 0.74301 0.74692 0.73737 0.0
C248 C 0.76236 0.73922 0.73335 0.0
H249 H 0.83534 0.69981 0.72586 0.0
H250 H 0.80744 0.72302 0.71884 0.0
H251 H 0.78552 0.71637 0.80334 0.0
H252 H 0.76458 0.66725 0.75856 0.0
H253 H 0.7438 0.6753 0.77442 0.0
H254 H 0.765 0.66389 0.78885 0.0
H255 H 0.77931 0.69011 0.81288 0.0
H256 H 0.76076 0.71074 0.81104 0.0
C257 C 0.7906 0.76396 0.72194 0.0
C258 C 0.776 0.73684 0.69304 0.0
C259 C 0.68914 0.72505 0.79372 0.0
C260 C 0.68849 0.70974 0.81118 0.0
C261 C 0.70558 0.6973 0.81536 0.0
C262 C 0.7229 0.69995 0.80238 0.0
C263 C 0.72327 0.71522 0.78494 0.0
C264 C 0.70661 0.72751 0.7809 0.0
C265 C 0.70987 0.74316 0.76189 0.0
C266 C 0.73112 0.73791 0.75491 0.0
C267 C 0.73886 0.72156 0.7685 0.0
C268 C 0.70809 0.76589 0.77186 0.0
C269 C 0.69479 0.7381 0.74268 0.0
C270 C 0.80564 0.68387 0.76981 0.0
C271 C 0.82263 0.6846 0.75577 0.0
C272 C 0.82276 0.69906 0.73735 0.0
C273 C 0.80641 0.71245 0.73312 0.0
C274 C 0.78957 0.71134 0.74729 0.0
C275 C 0.78935 0.69703 0.7651 0.0
C276 C 0.76986 0.69704 0.77766 0.0
C277 C 0.75849 0.71397 0.76472 0.0
C278 C 0.77013 0.72253 0.74708 0.0
C279 C 0.77392 0.70376 0.80261 0.0
C280 C 0.76025 0.67475 0.77498 0.0
H281 H 0.70931 0.77669 0.72775 0.0
H282 H 0.77025 0.78409 0.68053 0.0
H283 H 0.762 0.73399 0.68336 0.0
H284 H 0.7813 0.72085 0.69784 0.0
H285 H 0.7869 0.7442 0.6812 0.0
H286 H 0.78604 0.77729 0.73323 0.0
H287 H 0.79875 0.77084 0.70722 0.0
H288 H 0.80107 0.75436 0.73208 0.0
H289 H 0.67627 0.73481 0.78991 0.0
H290 H 0.70569 0.68569 0.82895 0.0
H291 H 0.73538 0.69003 0.80652 0.0
H292 H 0.71286 0.76633 0.78999 0.0
H293 H 0.69248 0.77171 0.77112 0.0
H294 H 0.71793 0.77744 0.76325 0.0
H295 H 0.69314 0.72064 0.74049 0.0
H296 H 0.69956 0.74405 0.72588 0.0
H297 H 0.67985 0.7447 0.74668 0.0
H298 H 0.71079 0.80411 0.69939 0.0
C299 C 0.72272 0.77779 0.71789 0.0
C300 C 0.75592 0.21515 0.30696 0.0
C301 C 0.73912 0.20215 0.31055 0.0
C302 C 0.72191 0.20563 0.29729 0.0
C303 C 0.7383 0.23446 0.27732 0.0
C304 C 0.75521 0.23108 0.29025 0.0
C305 C 0.77184 0.24603 0.28384 0.0
H306 H 0.8045 0.32785 0.2184 0.0
C307 C 0.74239 0.25211 0.26138 0.0
C308 C 0.76207 0.25896 0.26505 0.0
H309 H 0.83739 0.29343 0.26984 0.0
H310 H 0.80869 0.27131 0.27709 0.0
H311 H 0.76372 0.33093 0.24589 0.0
H312 H 0.78516 0.28697 0.19551 0.0
H313 H 0.75982 0.2911 0.18964 0.0
H314 H 0.7769 0.31322 0.18829 0.0
H315 H 0.76606 0.33778 0.21636 0.0
H316 H 0.74375 0.32562 0.22745 0.0
C317 C 0.77686 0.25983 0.30487 0.0
C318 C 0.78953 0.23265 0.27482 0.0
C319 C 0.68836 0.27682 0.20666 0.0
C320 C 0.68783 0.29253 0.1896 0.0
C321 C 0.70494 0.30509 0.18596 0.0
C322 C 0.72222 0.30203 0.19893 0.0
C323 C 0.72255 0.28617 0.21576 0.0
C324 C 0.7058 0.27389 0.2194 0.0
C325 C 0.70897 0.2576 0.2378 0.0
C326 C 0.73039 0.26216 0.2446 0.0
C327 C 0.73823 0.27892 0.23165 0.0
C328 C 0.6942 0.2624 0.2574 0.0
C329 C 0.70665 0.23524 0.22706 0.0
C330 C 0.80567 0.3154 0.23105 0.0
C331 C 0.82334 0.31247 0.24353 0.0
C332 C 0.82394 0.29626 0.26014 0.0
C333 C 0.80726 0.28333 0.26426 0.0
C334 C 0.78972 0.28654 0.25164 0.0
C335 C 0.7892 0.30234 0.23532 0.0
C336 C 0.76943 0.3035 0.22341 0.0
C337 C 0.75811 0.28584 0.23527 0.0
C338 C 0.77 0.27593 0.25185 0.0
C339 C 0.76018 0.32561 0.22828 0.0
C340 C 0.77285 0.29862 0.19783 0.0
H341 H 0.70783 0.22349 0.27135 0.0
H342 H 0.76945 0.21275 0.31667 0.0
H343 H 0.7841 0.21871 0.26499 0.0
H344 H 0.7991 0.24149 0.26283 0.0
H345 H 0.79883 0.22659 0.28905 0.0
H346 H 0.76303 0.2644 0.31411 0.0
H347 H 0.78654 0.25105 0.31697 0.0
H348 H 0.78412 0.27499 0.3004 0.0
H349 H 0.67546 0.267 0.21013 0.0
H350 H 0.70514 0.31707 0.17274 0.0
H351 H 0.73473 0.31206 0.19521 0.0
H352 H 0.69239 0.27983 0.25977 0.0
H353 H 0.67924 0.25565 0.25374 0.0
H354 H 0.69936 0.25647 0.27406 0.0
H355 H 0.71202 0.23512 0.20914 0.0
H356 H 0.7157 0.22301 0.2357 0.0
H357 H 0.6908 0.23014 0.22694 0.0
H358 H 0.7087 0.19604 0.29987 0.0
C359 C 0.7214 0.22167 0.28079 0.0
C360 C 0.26376 0.21338 0.69651 0.0
C361 C 0.24765 0.20761 0.68248 0.0
C362 C 0.22967 0.21916 0.68433 0.0
C363 C 0.2439 0.24126 0.71403 0.0
C364 C 0.26158 0.23015 0.71201 0.0
C365 C 0.27727 0.23808 0.72819 0.0
H366 H 0.3038 0.30357 0.81432 0.0
C367 C 0.24649 0.25746 0.73208 0.0
C368 C 0.26607 0.25567 0.74037 0.0
H369 H 0.3401 0.2567 0.77992 0.0
H370 H 0.31268 0.24802 0.7552 0.0
H371 H 0.26409 0.276 0.81639 0.0
H372 H 0.28505 0.32295 0.769 0.0
H373 H 0.25928 0.32695 0.77158 0.0
H374 H 0.27504 0.32999 0.79628 0.0
H375 H 0.26504 0.30381 0.823 0.0
H376 H 0.24361 0.29209 0.80942 0.0
C377 C 0.28281 0.21967 0.7445 0.0
C378 C 0.29494 0.2468 0.71398 0.0
C379 C 0.18889 0.30608 0.75451 0.0
C380 C 0.18705 0.32237 0.77087 0.0
C381 C 0.20368 0.32734 0.78454 0.0
C382 C 0.22169 0.31636 0.78213 0.0
C383 C 0.22327 0.30015 0.76581 0.0
C384 C 0.20707 0.29524 0.75229 0.0
C385 C 0.21168 0.27756 0.73579 0.0
C386 C 0.23331 0.27278 0.74162 0.0
C387 C 0.23994 0.28608 0.75927 0.0
C388 C 0.19781 0.25859 0.7413 0.0
C389 C 0.20944 0.28635 0.71131 0.0
C390 C 0.30596 0.29161 0.8013 0.0
C391 C 0.32419 0.28073 0.79928 0.0
C392 C 0.32615 0.26509 0.7822 0.0
C393 C 0.31022 0.26014 0.76773 0.0
C394 C 0.29202 0.27092 0.77022 0.0
C395 C 0.29019 0.2865 0.78665 0.0
C396 C 0.26985 0.2965 0.78665 0.0
C397 C 0.25973 0.28425 0.76762 0.0
C398 C 0.27274 0.26923 0.75813 0.0
C399 C 0.26004 0.29209 0.81007 0.0
C400 C 0.27227 0.32038 0.78075 0.0
H401 H 0.21366 0.24398 0.70055 0.0
H402 H 0.27772 0.20478 0.69581 0.0
H403 H 0.28965 0.25383 0.69769 0.0
H404 H 0.30292 0.25988 0.72259 0.0
H405 H 0.3057 0.23401 0.70971 0.0
H406 H 0.26935 0.21032 0.74919 0.0
H407 H 0.29359 0.20862 0.7364 0.0
H408 H 0.28903 0.22518 0.76084 0.0
H409 H 0.17641 0.30172 0.74381 0.0
H410 H 0.20291 0.34004 0.79694 0.0
H411 H 0.23372 0.32101 0.79306 0.0
H412 H 0.1959 0.25682 0.76002 0.0
H413 H 0.1828 0.26094 0.73374 0.0
H414 H 0.20383 0.24322 0.7355 0.0
H415 H 0.2147 0.30309 0.71034 0.0
H416 H 0.21859 0.27769 0.69876 0.0
H417 H 0.19362 0.28606 0.70576 0.0
H418 H 0.21709 0.21536 0.67354 0.0
C419 C 0.22772 0.23589 0.69998 0.0
C420 C 0.18863 0.69415 0.24614 0.0
C421 C 0.18704 0.67717 0.23058 0.0
C422 C 0.20386 0.67166 0.21745 0.0
C423 C 0.22301 0.69999 0.23476 0.0
C424 C 0.20669 0.7053 0.24793 0.0
C425 C 0.21103 0.72379 0.26348 0.0
H426 H 0.27581 0.79985 0.299 0.0
C427 C 0.23933 0.71488 0.24023 0.0
C428 C 0.23246 0.72894 0.25705 0.0
H429 H 0.21633 0.78742 0.3241 0.0
H430 H 0.21287 0.75842 0.29755 0.0
H431 H 0.26622 0.7942 0.24731 0.0
H432 H 0.28916 0.74977 0.29644 0.0
H433 H 0.30334 0.74737 0.27139 0.0
H434 H 0.30302 0.77229 0.28641 0.0
H435 H 0.29178 0.79469 0.25622 0.0
H436 H 0.28352 0.77821 0.2329 0.0
C437 C 0.19665 0.74212 0.25732 0.0
C438 C 0.20929 0.71597 0.2884 0.0
C439 C 0.30519 0.70869 0.19807 0.0
C440 C 0.32261 0.72117 0.19775 0.0
C441 C 0.32359 0.7391 0.21218 0.0
C442 C 0.30771 0.74437 0.22664 0.0
C443 C 0.29045 0.73176 0.22663 0.0
C444 C 0.28934 0.71439 0.21233 0.0
C445 C 0.26944 0.7035 0.21361 0.0
C446 C 0.25889 0.71701 0.23131 0.0
C447 C 0.27133 0.7334 0.23905 0.0
C448 C 0.25939 0.70512 0.18988 0.0
C449 C 0.27286 0.6805 0.22214 0.0
C450 C 0.26211 0.79075 0.29903 0.0
C451 C 0.24634 0.79607 0.31376 0.0
C452 C 0.22865 0.78395 0.31278 0.0
C453 C 0.22669 0.76698 0.29744 0.0
C454 C 0.24259 0.76193 0.28284 0.0
C455 C 0.25995 0.77371 0.28388 0.0
C456 C 0.27538 0.76603 0.26722 0.0
C457 C 0.2645 0.74758 0.25617 0.0
C458 C 0.24524 0.74529 0.26526 0.0
C459 C 0.27966 0.78416 0.25004 0.0
C460 C 0.29382 0.75855 0.2809 0.0
H461 H 0.23391 0.67786 0.20894 0.0
H462 H 0.17602 0.69887 0.25648 0.0
H463 H 0.21434 0.69921 0.28999 0.0
H464 H 0.2189 0.72495 0.30024 0.0
H465 H 0.19363 0.71674 0.29446 0.0
H466 H 0.19498 0.74346 0.23853 0.0
H467 H 0.18161 0.73934 0.26464 0.0
H468 H 0.20204 0.7578 0.26297 0.0
H469 H 0.30379 0.69472 0.18745 0.0
H470 H 0.33651 0.7494 0.21204 0.0
H471 H 0.30943 0.75821 0.2371 0.0
H472 H 0.26415 0.71975 0.18074 0.0
H473 H 0.26335 0.69134 0.17899 0.0
H474 H 0.243 0.70646 0.19088 0.0
H475 H 0.28475 0.68007 0.23534 0.0
H476 H 0.25961 0.67361 0.23049 0.0
H477 H 0.27756 0.66993 0.20799 0.0
H478 H 0.2033 0.65839 0.20573 0.0
C479 C 0.22174 0.68293 0.21944 0.0
C480 C 0.97769 0.46955 0.22602 0.0
C481 C 0.02359 0.53043 0.22444 0.0
O482 O 0.98265 0.47658 0.24569 0.0
Zn483 Zn 1.00044 0.50096 0.26059 0.0
O484 O 0.98462 0.47851 0.20827 0.0
Zn485 Zn 1.00054 0.50006 0.22387 0.0
O486 O 0.02291 0.48148 0.2401 0.0
O487 O 0.02024 0.48465 0.27739 0.0
O488 O 0.01663 0.5207 0.20719 0.0
O489 O 0.01849 0.52445 0.24446 0.0
O490 O 0.98051 0.51809 0.27624 0.0
O491 O 0.9781 0.51945 0.23881 0.0
C492 C 0.02907 0.47684 0.26013 0.0
C493 C 0.97182 0.52508 0.2585 0.0
C494 C 0.97157 0.47691 0.74752 0.0
C495 C 0.02967 0.52389 0.74517 0.0
O496 O 0.97843 0.48188 0.76714 0.0
Zn497 Zn 0.00151 0.50046 0.78182 0.0
O498 O 0.97998 0.48417 0.72974 0.0
Zn499 Zn 1.00066 0.50046 0.74523 0.0
O500 O 0.0188 0.47631 0.76022 0.0
O501 O 0.01753 0.47924 0.7976 0.0
O502 O 0.02027 0.51649 0.7281 0.0
O503 O 0.02395 0.51909 0.76535 0.0
O504 O 0.98611 0.52155 0.79857 0.0
O505 O 0.98407 0.5253 0.76124 0.0
C506 C 0.02415 0.46983 0.77997 0.0
C507 C 0.97955 0.53157 0.78133 0.0
C508 C 0.221 0.97612 0.53204 0.0
C509 C 0.22004 0.025 0.46797 0.0
O510 O 0.20568 0.98288 0.5216 0.0
Zn511 Zn 0.21982 1.00058 0.50002 0.0
O512 O 0.23845 0.98171 0.5255 0.0
Zn513 Zn 0.2518 0.00073 0.49954 0.0
O514 O 0.26616 0.022 0.51736 0.0
O515 O 0.23353 0.02397 0.52131 0.0
O516 O 0.23768 0.01959 0.47398 0.0
O517 O 0.20501 0.01812 0.47887 0.0
O518 O 0.23326 0.97737 0.47825 0.0
O519 O 0.26595 0.97968 0.48123 0.0
C520 C 0.25099 0.03068 0.52645 0.0
C521 C 0.25066 0.97086 0.47255 0.0
C522 C 0.52828 0.73318 0.02799 0.0
C523 C 0.47347 0.73193 0.97302 0.0
O524 O 0.52279 0.71437 0.02237 0.0
Zn525 Zn 0.50149 0.69935 1.00032 0.0
O526 O 0.51961 0.74917 0.01917 0.0
Zn527 Zn 0.5009 0.73337 0.00062 0.0
O528 O 0.48294 0.7183 0.02598 0.0
O529 O 0.48483 0.6835 0.0214 0.0
O530 O 0.48138 0.74825 0.982 0.0
O531 O 0.47979 0.71343 0.97853 0.0
O532 O 0.5186 0.68451 0.97888 0.0
O533 O 0.52023 0.7194 0.97588 0.0
C534 C 0.47797 0.69949 0.03206 0.0
C535 C 0.52577 0.70092 0.96925 0.0
C536 C 0.74816 0.97176 0.52887 0.0
C537 C 0.74724 0.03052 0.47378 0.0
O538 O 0.73286 0.98081 0.52054 0.0
Zn539 Zn 0.74691 0.00112 0.50146 0.0
O540 O 0.76558 0.97792 0.52271 0.0
Zn541 Zn 0.77874 0.00096 0.50021 0.0
O542 O 0.79399 0.01875 0.52057 0.0
O543 O 0.76146 0.02065 0.52621 0.0
O544 O 0.76479 0.024 0.47879 0.0
O545 O 0.73224 0.02182 0.4832 0.0
O546 O 0.75981 0.98081 0.47625 0.0
O547 O 0.79257 0.98323 0.47849 0.0
C548 C 0.77924 0.02609 0.53162 0.0
C549 C 0.77715 0.97532 0.46921 0.0
C550 C 0.52602 0.29929 0.03039 0.0
C551 C 0.47689 0.29822 0.96865 0.0
O552 O 0.52049 0.2806 0.02446 0.0
Zn553 Zn 0.501 0.26567 0.00064 0.0
O554 O 0.51866 0.31538 0.02032 0.0
Zn555 Zn 0.50133 0.29979 0.99962 0.0
O556 O 0.48001 0.28607 0.02233 0.0
O557 O 0.48208 0.25115 0.02027 0.0
O558 O 0.48436 0.31467 0.97792 0.0
O559 O 0.48203 0.27977 0.97574 0.0
O560 O 0.51955 0.24965 0.9819 0.0
O561 O 0.52235 0.28436 0.97778 0.0
C562 C 0.47404 0.26767 0.02871 0.0
C563 C 0.52793 0.26552 0.97249 0.0
C564 C 0.17204 0.357 0.28664 0.0
C565 C 0.17904 0.3485 0.26599 0.0
C566 C 0.15682 0.37213 0.28681 0.0
C567 C 0.11454 0.38951 0.25191 0.0
H568 H 0.11275 0.43769 0.29302 0.0
C569 C 0.05566 0.45449 0.24275 0.0
C570 C 0.0465 0.46256 0.26247 0.0
C571 C 0.07203 0.44101 0.24427 0.0
C572 C 0.11295 0.42415 0.28166 0.0
H573 H 0.17611 0.34989 0.22929 0.0
H574 H 0.14977 0.3766 0.22954 0.0
H575 H 0.14187 0.41428 0.29301 0.0
H576 H 0.04758 0.46289 0.29934 0.0
H577 H 0.07638 0.43899 0.30202 0.0
H578 H 0.08571 0.39921 0.24058 0.0
C579 C 0.15586 0.37129 0.24563 0.0
C580 C 0.12963 0.4108 0.28159 0.0
C581 C 0.17112 0.35619 0.24546 0.0
C582 C 0.05427 0.45691 0.28384 0.0
C583 C 0.0708 0.44333 0.28537 0.0
C584 C 0.09792 0.40279 0.25201 0.0
C585 C 0.14823 0.37907 0.26633 0.0
C586 C 0.13068 0.39344 0.26654 0.0
C587 C 0.07974 0.43513 0.26555 0.0
C588 C 0.097 0.4204 0.26669 0.0
H589 H 0.17805 0.35158 0.30274 0.0
H590 H 0.15125 0.37775 0.30303 0.0
H591 H 0.11464 0.37598 0.24053 0.0
H592 H 0.05021 0.45858 0.22596 0.0
H593 H 0.07879 0.43533 0.22867 0.0
C594 C 0.17013 0.64537 0.75744 0.0
C595 C 0.17742 0.65427 0.73717 0.0
C596 C 0.15572 0.62934 0.75682 0.0
C597 C 0.11594 0.60843 0.71999 0.0
H598 H 0.11591 0.56168 0.76289 0.0
C599 C 0.05457 0.54331 0.72067 0.0
C600 C 0.04736 0.53772 0.74232 0.0
C601 C 0.07149 0.5562 0.71852 0.0
C602 C 0.11565 0.57471 0.75087 0.0
H603 H 0.17613 0.65252 0.70033 0.0
H604 H 0.15101 0.62456 0.69925 0.0
H605 H 0.14396 0.58628 0.76218 0.0
H606 H 0.05223 0.54144 0.77867 0.0
H607 H 0.08134 0.5639 0.77488 0.0
H608 H 0.08744 0.59708 0.70896 0.0
C609 C 0.15612 0.63026 0.71563 0.0
C610 C 0.13172 0.58881 0.75048 0.0
C611 C 0.17052 0.64626 0.71626 0.0
C612 C 0.05738 0.54532 0.7617 0.0
C613 C 0.07422 0.5581 0.75955 0.0
C614 C 0.09984 0.59434 0.72039 0.0
C615 C 0.14832 0.62185 0.73589 0.0
C616 C 0.13192 0.606 0.73526 0.0
C617 C 0.08154 0.56365 0.73798 0.0
C618 C 0.09938 0.57752 0.73609 0.0
H619 H 0.17499 0.65134 0.77381 0.0
H620 H 0.14985 0.62335 0.77275 0.0
H621 H 0.11552 0.62167 0.70823 0.0
H622 H 0.0472 0.53768 0.70542 0.0
H623 H 0.07685 0.56013 0.70166 0.0
C624 C 0.82663 0.6387 0.23271 0.0
C625 C 0.81715 0.64677 0.25219 0.0
C626 C 0.84291 0.625 0.23478 0.0
C627 C 0.86954 0.58918 0.27423 0.0
H628 H 0.91456 0.60171 0.23511 0.0
C629 C 0.94594 0.54542 0.28084 0.0
C630 C 0.95437 0.53944 0.25989 0.0
C631 C 0.92922 0.5588 0.28146 0.0
C632 C 0.90207 0.59789 0.24605 0.0
H633 H 0.81664 0.64591 0.28909 0.0
H634 H 0.84519 0.62208 0.29268 0.0
H635 H 0.88467 0.62344 0.23272 0.0
H636 H 0.95176 0.54279 0.2232 0.0
H637 H 0.92286 0.56568 0.22433 0.0
H638 H 0.88702 0.56343 0.28739 0.0
C639 C 0.84003 0.62636 0.27583 0.0
C640 C 0.88492 0.61031 0.24462 0.0
C641 C 0.82379 0.64013 0.27376 0.0
C642 C 0.94577 0.54711 0.23968 0.0
C643 C 0.92921 0.5604 0.2403 0.0
C644 C 0.88675 0.57666 0.27562 0.0
C645 C 0.85003 0.61902 0.25636 0.0
C646 C 0.86835 0.60594 0.25846 0.0
C647 C 0.92076 0.56649 0.26115 0.0
C648 C 0.90309 0.58071 0.26128 0.0
H649 H 0.82198 0.64362 0.21587 0.0
H650 H 0.85012 0.61934 0.21944 0.0
H651 H 0.85698 0.58541 0.28508 0.0
H652 H 0.9522 0.53975 0.29671 0.0
H653 H 0.92307 0.56331 0.2978 0.0
C654 C 0.82601 0.36291 0.77228 0.0
C655 C 0.81715 0.35457 0.75256 0.0
C656 C 0.84207 0.37695 0.77064 0.0
C657 C 0.869 0.41305 0.73161 0.0
H658 H 0.91343 0.40155 0.77192 0.0
C659 C 0.94542 0.4568 0.72534 0.0
C660 C 0.95382 0.46295 0.74625 0.0
C661 C 0.92858 0.4436 0.72482 0.0
C662 C 0.9011 0.40511 0.76067 0.0
H663 H 0.81747 0.35531 0.71565 0.0
H664 H 0.84562 0.37971 0.71281 0.0
H665 H 0.88371 0.37953 0.77399 0.0
H666 H 0.95091 0.46023 0.78298 0.0
H667 H 0.92178 0.43765 0.782 0.0
H668 H 0.88648 0.43878 0.7184 0.0
C669 C 0.84016 0.37539 0.72952 0.0
C670 C 0.88404 0.39252 0.76191 0.0
C671 C 0.82415 0.36128 0.73116 0.0
C672 C 0.94498 0.45573 0.76652 0.0
C673 C 0.92829 0.44263 0.766 0.0
C674 C 0.88611 0.42574 0.73041 0.0
C675 C 0.84957 0.38303 0.74925 0.0
C676 C 0.8677 0.39647 0.74758 0.0
C677 C 0.91993 0.43627 0.74519 0.0
C678 C 0.90225 0.42205 0.74513 0.0
H679 H 0.82104 0.35795 0.78899 0.0
H680 H 0.84882 0.38282 0.78615 0.0
H681 H 0.85662 0.41652 0.72039 0.0
H682 H 0.95186 0.46213 0.70943 0.0
H683 H 0.92252 0.43888 0.70851 0.0
C684 C 0.24487 0.15285 0.31466 0.0
C685 C 0.24063 0.17385 0.32133 0.0
C686 C 0.24075 0.13587 0.32919 0.0
C687 C 0.20949 0.11839 0.37602 0.0
H688 H 0.25359 0.08152 0.39182 0.0
C689 C 0.20563 0.05744 0.44988 0.0
C690 C 0.2178 0.0394 0.44849 0.0
C691 C 0.20645 0.07295 0.43282 0.0
C692 C 0.24093 0.09128 0.38725 0.0
H693 H 0.22874 0.19324 0.34879 0.0
H694 H 0.22088 0.16341 0.37367 0.0
H695 H 0.2587 0.11014 0.36474 0.0
H696 H 0.23912 0.02237 0.42775 0.0
H697 H 0.2396 0.04852 0.39732 0.0
H698 H 0.19152 0.09931 0.39809 0.0
C699 C 0.2274 0.16028 0.35714 0.0
C700 C 0.24396 0.10779 0.37184 0.0
C701 C 0.23186 0.17732 0.3428 0.0
C702 C 0.22975 0.03633 0.42922 0.0
C703 C 0.23018 0.05147 0.41194 0.0
C704 C 0.20631 0.10157 0.39115 0.0
C705 C 0.23196 0.13945 0.35051 0.0
C706 C 0.22833 0.12156 0.36621 0.0
C707 C 0.21917 0.0704 0.4139 0.0
C708 C 0.22204 0.08783 0.39706 0.0
H709 H 0.25122 0.14947 0.29812 0.0
H710 H 0.24428 0.11987 0.32371 0.0
H711 H 0.19719 0.12882 0.37179 0.0
H712 H 0.19643 0.06016 0.46475 0.0
H713 H 0.19786 0.08734 0.43507 0.0
C714 C 0.33014 0.7498 0.843 0.0
C715 C 0.32527 0.73029 0.83272 0.0
C716 C 0.34645 0.75141 0.85771 0.0
C717 C 0.39357 0.72432 0.87269 0.0
H718 H 0.39005 0.75728 0.92832 0.0
C719 C 0.45029 0.7154 0.94493 0.0
C720 C 0.45708 0.73373 0.95621 0.0
C721 C 0.43477 0.71655 0.92923 0.0
C722 C 0.39136 0.74827 0.91269 0.0
H723 H 0.33379 0.69717 0.82994 0.0
H724 H 0.36191 0.69985 0.85598 0.0
H725 H 0.36158 0.75595 0.90243 0.0
H726 H 0.4528 0.7677 0.95978 0.0
H727 H 0.42544 0.76969 0.93218 0.0
H728 H 0.42319 0.71636 0.88308 0.0
C729 C 0.35329 0.714 0.85241 0.0
C730 C 0.37504 0.74748 0.89786 0.0
C731 C 0.33699 0.71239 0.83771 0.0
C732 C 0.44793 0.7533 0.95137 0.0
C733 C 0.43222 0.75442 0.93566 0.0
C734 C 0.40982 0.72507 0.88751 0.0
C735 C 0.3583 0.73355 0.86249 0.0
C736 C 0.37587 0.73525 0.87783 0.0
C737 C 0.42553 0.73603 0.92438 0.0
C738 C 0.40881 0.7368 0.90783 0.0
H739 H 0.32128 0.76385 0.83976 0.0
H740 H 0.34995 0.76674 0.86505 0.0
H741 H 0.3949 0.71515 0.85717 0.0
H742 H 0.45695 0.70003 0.94823 0.0
H743 H 0.42978 0.70204 0.92113 0.0
C744 C 0.75735 0.83305 0.3328 0.0
C745 C 0.77426 0.82225 0.32474 0.0
C746 C 0.75938 0.85103 0.34648 0.0
C747 C 0.79392 0.87711 0.38587 0.0
H748 H 0.75919 0.92561 0.37692 0.0
C749 C 0.7974 0.95195 0.44328 0.0
C750 C 0.77879 0.9596 0.4506 0.0
C751 C 0.79853 0.93653 0.42615 0.0
C752 C 0.76894 0.91215 0.3797 0.0
H753 H 0.8066 0.82218 0.32436 0.0
H754 H 0.81011 0.85349 0.34854 0.0
H755 H 0.75785 0.89594 0.3503 0.0
H756 H 0.74681 0.95721 0.44549 0.0
H757 H 0.74879 0.93036 0.41605 0.0
H758 H 0.80465 0.89309 0.41561 0.0
C759 C 0.7953 0.84788 0.34438 0.0
C760 C 0.76816 0.89517 0.36446 0.0
C761 C 0.79326 0.82993 0.33059 0.0
C762 C 0.76141 0.95173 0.44027 0.0
C763 C 0.76254 0.93642 0.42321 0.0
C764 C 0.79466 0.89408 0.40118 0.0
C765 C 0.77837 0.85859 0.35249 0.0
C766 C 0.78039 0.87731 0.36762 0.0
C767 C 0.78107 0.92857 0.416 0.0
C768 C 0.7819 0.9116 0.39849 0.0
H769 H 0.7425 0.82735 0.32894 0.0
H770 H 0.74605 0.85875 0.3528 0.0
H771 H 0.80341 0.86347 0.38882 0.0
H772 H 0.81106 0.95772 0.45089 0.0
H773 H 0.81304 0.93088 0.42083 0.0
C774 C 0.6664 0.23673 0.83806 0.0
C775 C 0.67193 0.25544 0.8266 0.0
C776 C 0.65074 0.23681 0.85375 0.0
C777 C 0.60602 0.26763 0.86999 0.0
H778 H 0.6094 0.23551 0.92619 0.0
C779 C 0.5514 0.28062 0.94379 0.0
C780 C 0.544 0.26277 0.95544 0.0
C781 C 0.56659 0.27853 0.92777 0.0
C782 C 0.60814 0.24433 0.91043 0.0
H783 H 0.66538 0.28899 0.82288 0.0
H784 H 0.63841 0.28927 0.85065 0.0
H785 H 0.6371 0.23459 0.89922 0.0
H786 H 0.54686 0.22866 0.95935 0.0
H787 H 0.57362 0.22501 0.93119 0.0
H788 H 0.5772 0.27759 0.88132 0.0
C789 C 0.64598 0.27442 0.84722 0.0
C790 C 0.62401 0.24383 0.89497 0.0
C791 C 0.66162 0.27433 0.8315 0.0
C792 C 0.55222 0.24271 0.95066 0.0
C793 C 0.56759 0.24064 0.93463 0.0
C794 C 0.59022 0.26818 0.88545 0.0
C795 C 0.64023 0.25563 0.85841 0.0
C796 C 0.62321 0.25565 0.87466 0.0
C797 C 0.57487 0.25856 0.92296 0.0
C798 C 0.59117 0.25672 0.90595 0.0
H799 H 0.67421 0.22195 0.83494 0.0
H800 H 0.64664 0.22203 0.86192 0.0
H801 H 0.6047 0.27654 0.8543 0.0
H802 H 0.54548 0.29633 0.94702 0.0
H803 H 0.57207 0.29269 0.91935 0.0
C804 C 0.23104 0.82476 0.65952 0.0
C805 C 0.24021 0.82836 0.68075 0.0
C806 C 0.22696 0.84165 0.64483 0.0
C807 C 0.24515 0.89287 0.62817 0.0
H808 H 0.19238 0.90363 0.60384 0.0
C809 C 0.23218 0.96422 0.5701 0.0
C810 C 0.21927 0.96167 0.55157 0.0
C811 C 0.23271 0.94917 0.58746 0.0
C812 C 0.20726 0.90071 0.61021 0.0
H813 H 0.25192 0.85283 0.70315 0.0
H814 H 0.24567 0.88209 0.6769 0.0
H815 H 0.19749 0.87438 0.63059 0.0
H816 H 0.19637 0.94188 0.53672 0.0
H817 H 0.19791 0.91481 0.56649 0.0
H818 H 0.25536 0.91818 0.60716 0.0
C819 C 0.24151 0.86613 0.6719 0.0
C820 C 0.21012 0.88404 0.62562 0.0
C821 C 0.24524 0.84932 0.68681 0.0
C822 C 0.20633 0.9442 0.551 0.0
C823 C 0.20722 0.92876 0.56812 0.0
C824 C 0.24241 0.90921 0.61246 0.0
C825 C 0.23232 0.86242 0.65084 0.0
C826 C 0.22907 0.8801 0.63477 0.0
C827 C 0.22078 0.93081 0.58633 0.0
C828 C 0.22341 0.91347 0.60334 0.0
H829 H 0.22731 0.80886 0.65398 0.0
H830 H 0.2201 0.83842 0.62851 0.0
H831 H 0.25996 0.88989 0.63477 0.0
H832 H 0.24214 0.97775 0.57098 0.0
H833 H 0.24282 0.95176 0.60154 0.0
C834 C 0.66912 0.76316 0.15847 0.0
C835 C 0.67453 0.74489 0.1708 0.0
C836 C 0.65335 0.7626 0.14296 0.0
C837 C 0.60819 0.73155 0.12869 0.0
H838 H 0.61091 0.76226 0.07155 0.0
C839 C 0.55202 0.71797 0.05635 0.0
C840 C 0.54461 0.73582 0.04472 0.0
C841 C 0.56754 0.72001 0.07198 0.0
C842 C 0.60985 0.75382 0.08757 0.0
H843 H 0.66765 0.71161 0.1762 0.0
H844 H 0.64055 0.71045 0.14866 0.0
H845 H 0.63907 0.76351 0.09783 0.0
H846 H 0.54775 0.76986 0.04041 0.0
H847 H 0.57508 0.77341 0.06781 0.0
H848 H 0.57911 0.7216 0.11827 0.0
C849 C 0.64828 0.72535 0.1513 0.0
C850 C 0.62598 0.75452 0.10264 0.0
C851 C 0.66402 0.72593 0.16688 0.0
C852 C 0.55311 0.75581 0.04911 0.0
C853 C 0.56881 0.75783 0.06468 0.0
C854 C 0.59214 0.73077 0.1136 0.0
C855 C 0.64261 0.74373 0.13931 0.0
C856 C 0.6254 0.74327 0.12332 0.0
C857 C 0.57615 0.73993 0.07631 0.0
C858 C 0.59284 0.74176 0.0928 0.0
H859 H 0.67708 0.77796 0.1608 0.0
H860 H 0.64932 0.77709 0.13416 0.0
H861 H 0.60703 0.72308 0.14468 0.0
H862 H 0.54585 0.70232 0.05341 0.0
H863 H 0.57303 0.70588 0.08042 0.0
C864 C 0.7834 0.18314 0.6516 0.0
C865 C 0.77485 0.18125 0.6734 0.0
C866 C 0.78565 0.16534 0.63764 0.0
C867 C 0.76322 0.11534 0.62421 0.0
H868 H 0.81435 0.09867 0.59914 0.0
C869 C 0.76919 0.0408 0.56906 0.0
C870 C 0.78207 0.04135 0.55029 0.0
C871 C 0.77007 0.05658 0.58567 0.0
C872 C 0.7999 0.10324 0.60571 0.0
H873 H 0.7623 0.15881 0.69761 0.0
H874 H 0.76533 0.12803 0.67264 0.0
H875 H 0.81225 0.12934 0.62454 0.0
H876 H 0.80628 0.05838 0.53423 0.0
H877 H 0.80723 0.0867 0.5626 0.0
H878 H 0.75049 0.09029 0.60469 0.0
C879 C 0.77043 0.14336 0.66663 0.0
C880 C 0.79877 0.12072 0.62035 0.0
C881 C 0.76855 0.16106 0.68079 0.0
C882 C 0.7963 0.05757 0.5487 0.0
C883 C 0.79685 0.07374 0.56504 0.0
C884 C 0.76424 0.0982 0.60923 0.0
C885 C 0.77903 0.14538 0.64499 0.0
C886 C 0.78043 0.12681 0.62975 0.0
C887 C 0.78345 0.07368 0.58352 0.0
C888 C 0.78261 0.09181 0.59982 0.0
H889 H 0.78805 0.19843 0.64506 0.0
H890 H 0.7921 0.16727 0.62086 0.0
H891 H 0.74887 0.11998 0.63106 0.0
H892 H 0.75823 0.02825 0.57076 0.0
H893 H 0.75997 0.0555 0.59999 0.0
C894 C 0.33802 0.28942 0.16444 0.0
C895 C 0.32617 0.27163 0.16952 0.0
C896 C 0.35427 0.28764 0.14968 0.0
C897 C 0.37578 0.25371 0.10438 0.0
H898 H 0.42411 0.28466 0.11881 0.0
C899 C 0.44862 0.24673 0.05101 0.0
C900 C 0.45782 0.26619 0.04577 0.0
C901 C 0.43296 0.24591 0.06679 0.0
C902 C 0.41068 0.27599 0.11449 0.0
H903 H 0.3219 0.23809 0.16253 0.0
H904 H 0.3505 0.2349 0.1372 0.0
H905 H 0.39582 0.28629 0.14472 0.0
H906 H 0.45788 0.29999 0.0532 0.0
H907 H 0.43079 0.29851 0.08047 0.0
H908 H 0.39076 0.2435 0.07405 0.0
C909 C 0.34713 0.25028 0.1445 0.0
C910 C 0.39444 0.27699 0.1293 0.0
C911 C 0.33086 0.25206 0.15924 0.0
C912 C 0.45117 0.2847 0.05679 0.0
C913 C 0.4357 0.28386 0.07259 0.0
C914 C 0.3921 0.25266 0.08958 0.0
C915 C 0.35912 0.26802 0.13964 0.0
C916 C 0.37668 0.26612 0.12429 0.0
C917 C 0.42637 0.2645 0.07777 0.0
C918 C 0.40962 0.26405 0.09431 0.0
H919 H 0.33497 0.30468 0.1722 0.0
H920 H 0.36299 0.30171 0.14606 0.0
H921 H 0.36228 0.24528 0.09989 0.0
H922 H 0.45339 0.23219 0.0428 0.0
H923 H 0.42611 0.23073 0.07054 0.0
C924 C 0.85956 0.67655 0.75532 0.0
C925 C 0.8399 0.67014 0.76018 0.0
C926 C 0.87563 0.66288 0.75934 0.0
C927 C 0.89254 0.61857 0.7939 0.0
H928 H 0.92652 0.60396 0.74296 0.0
C929 C 0.94956 0.54932 0.79811 0.0
C930 C 0.96621 0.55003 0.78371 0.0
C931 C 0.93508 0.56535 0.79709 0.0
C932 C 0.91758 0.60816 0.75761 0.0
H933 H 0.82202 0.64384 0.77286 0.0
H934 H 0.85015 0.62061 0.78081 0.0
H935 H 0.89986 0.6296 0.73777 0.0
H936 H 0.98164 0.56853 0.75818 0.0
H937 H 0.95736 0.59718 0.75753 0.0
H938 H 0.91047 0.59768 0.81401 0.0
C939 C 0.85298 0.63626 0.77387 0.0
C940 C 0.90216 0.62278 0.7545 0.0
C941 C 0.83687 0.64971 0.7694 0.0
C942 C 0.96881 0.56759 0.76934 0.0
C943 C 0.95469 0.58386 0.76877 0.0
C944 C 0.90827 0.60427 0.79719 0.0
C945 C 0.87248 0.64267 0.76875 0.0
C946 C 0.88939 0.62797 0.77253 0.0
C947 C 0.93722 0.58265 0.782 0.0
C948 C 0.92095 0.59869 0.77903 0.0
H949 H 0.86265 0.69223 0.74863 0.0
H950 H 0.89058 0.66819 0.75533 0.0
H951 H 0.88291 0.62244 0.8081 0.0
H952 H 0.94714 0.53577 0.80913 0.0
H953 H 0.92182 0.5636 0.80741 0.0
C954 C 0.85255 0.33376 0.25773 0.0
C955 C 0.84089 0.32649 0.23944 0.0
C956 C 0.86858 0.34752 0.25399 0.0
C957 C 0.88788 0.38693 0.2132 0.0
H958 H 0.93669 0.3803 0.24774 0.0
C959 C 0.95529 0.44468 0.20395 0.0
C960 C 0.96373 0.45131 0.22467 0.0
C961 C 0.94143 0.42797 0.20348 0.0
C962 C 0.92313 0.38244 0.23802 0.0
H963 H 0.83738 0.32765 0.20274 0.0
H964 H 0.86524 0.35183 0.19629 0.0
H965 H 0.91028 0.35397 0.25147 0.0
H966 H 0.96439 0.4453 0.26107 0.0
H967 H 0.94041 0.41663 0.26023 0.0
H968 H 0.90061 0.4157 0.20015 0.0
C969 C 0.86181 0.34704 0.21356 0.0
C970 C 0.90798 0.36735 0.24019 0.0
C971 C 0.84582 0.33319 0.21728 0.0
C972 C 0.95825 0.44067 0.24477 0.0
C973 C 0.94456 0.42404 0.24429 0.0
C974 C 0.90305 0.40209 0.21107 0.0
C975 C 0.87334 0.35442 0.23188 0.0
C976 C 0.89003 0.36961 0.22814 0.0
C977 C 0.93589 0.41749 0.2237 0.0
C978 C 0.9207 0.40024 0.22382 0.0
H979 H 0.84901 0.32925 0.27505 0.0
H980 H 0.87695 0.35317 0.26854 0.0
H981 H 0.87418 0.38922 0.20379 0.0
H982 H 0.95918 0.45255 0.18817 0.0
H983 H 0.93509 0.42322 0.18732 0.0
C984 C 0.157 0.34073 0.75439 0.0
C985 C 0.16814 0.33452 0.77353 0.0
C986 C 0.13992 0.35327 0.75688 0.0
C987 C 0.11675 0.39169 0.79608 0.0
H988 H 0.06989 0.3825 0.7588 0.0
C989 C 0.04684 0.44575 0.80255 0.0
C990 C 0.03853 0.45198 0.78162 0.0
C991 C 0.06131 0.42968 0.80339 0.0
C992 C 0.0829 0.38537 0.76926 0.0
H993 H 0.16946 0.3359 0.81041 0.0
H994 H 0.1398 0.35791 0.81469 0.0
H995 H 0.09771 0.35769 0.7565 0.0
H996 H 0.03869 0.44585 0.74524 0.0
H997 H 0.06383 0.4183 0.74671 0.0
H998 H 0.10215 0.41965 0.80844 0.0
C999 C 0.14446 0.35334 0.79773 0.0
C1000 C 0.09885 0.37114 0.76792 0.0
C1001 C 0.16148 0.34074 0.79525 0.0
C1002 C 0.04471 0.4415 0.7617 0.0
C1003 C 0.05907 0.42551 0.76254 0.0
C1004 C 0.10081 0.40598 0.79736 0.0
C1005 C 0.13358 0.35994 0.77856 0.0
C1006 C 0.11608 0.37429 0.78107 0.0
C1007 C 0.06769 0.41947 0.78334 0.0
C1008 C 0.08381 0.40319 0.78369 0.0
H1009 H 0.16181 0.33647 0.7374 0.0
H1010 H 0.13202 0.35829 0.74174 0.0
H1011 H 0.12989 0.3947 0.80628 0.0
H1012 H 0.0424 0.45349 0.81821 0.0
H1013 H 0.06752 0.42528 0.81973 0.0
C1014 C 0.16185 0.65801 0.20642 0.0
C1015 C 0.16814 0.66498 0.22802 0.0
C1016 C 0.1448 0.64545 0.20405 0.0
C1017 C 0.0985 0.62916 0.23341 0.0
H1018 H 0.10213 0.57916 0.19505 0.0
C1019 C 0.04401 0.5594 0.24167 0.0
C1020 C 0.03802 0.54817 0.22214 0.0
C1021 C 0.05842 0.5753 0.24033 0.0
C1022 C 0.10071 0.59325 0.2055 0.0
H1023 H 0.16113 0.6644 0.26404 0.0
H1024 H 0.13128 0.64262 0.25989 0.0
H1025 H 0.13005 0.60393 0.19685 0.0
H1026 H 0.04228 0.54524 0.18571 0.0
H1027 H 0.06753 0.5733 0.18331 0.0
H1028 H 0.06927 0.6184 0.24229 0.0
C1029 C 0.1395 0.64703 0.24475 0.0
C1030 C 0.11674 0.60743 0.20658 0.0
C1031 C 0.15662 0.65954 0.24713 0.0
C1032 C 0.04656 0.55358 0.20107 0.0
C1033 C 0.06111 0.56956 0.19973 0.0
C1034 C 0.08245 0.61503 0.23227 0.0
C1035 C 0.13352 0.63963 0.22321 0.0
C1036 C 0.11595 0.62537 0.22085 0.0
C1037 C 0.06729 0.58051 0.21942 0.0
C1038 C 0.08349 0.59668 0.21864 0.0
H1039 H 0.17013 0.66226 0.19126 0.0
H1040 H 0.14042 0.64031 0.18719 0.0
H1041 H 0.09726 0.64302 0.24423 0.0
H1042 H 0.0378 0.55571 0.25822 0.0
H1043 H 0.06302 0.58309 0.25591 0.0
C1044 C 0.75878 0.82543 0.66654 0.0
C1045 C 0.74124 0.81366 0.67013 0.0
C1046 C 0.75908 0.84235 0.65109 0.0
C1047 C 0.73128 0.86604 0.6024 0.0
H1048 H 0.76146 0.91639 0.61836 0.0
C1049 C 0.72784 0.94442 0.55003 0.0
C1050 C 0.74631 0.95412 0.54552 0.0
C1051 C 0.72655 0.9274 0.56537 0.0
C1052 C 0.75306 0.90239 0.61358 0.0
H1053 H 0.71043 0.81016 0.65956 0.0
H1054 H 0.7108 0.83997 0.63325 0.0
H1055 H 0.76078 0.8863 0.64438 0.0
H1056 H 0.77783 0.95363 0.55384 0.0
H1057 H 0.77552 0.92421 0.58048 0.0
H1058 H 0.72345 0.88236 0.57164 0.0
C1059 C 0.72441 0.83602 0.64218 0.0
C1060 C 0.75273 0.88507 0.62846 0.0
C1061 C 0.72413 0.81904 0.65754 0.0
C1062 C 0.76335 0.94657 0.55687 0.0
C1063 C 0.76203 0.92975 0.57228 0.0
C1064 C 0.73151 0.88345 0.58756 0.0
C1065 C 0.74184 0.84803 0.63887 0.0
C1066 C 0.74197 0.86657 0.62302 0.0
C1067 C 0.74365 0.91991 0.57669 0.0
C1068 C 0.74254 0.90176 0.5929 0.0
H1069 H 0.7722 0.8219 0.67604 0.0
H1070 H 0.77289 0.85098 0.64874 0.0
H1071 H 0.72304 0.852 0.59746 0.0
H1072 H 0.71444 0.94983 0.54157 0.0
H1073 H 0.71214 0.92024 0.56854 0.0
C1074 C 0.66363 0.31593 0.16843 0.0
C1075 C 0.66973 0.29551 0.17528 0.0
C1076 C 0.64695 0.31859 0.15443 0.0
C1077 C 0.60103 0.2916 0.13557 0.0
H1078 H 0.60481 0.32808 0.08256 0.0
C1079 C 0.54778 0.28329 0.06021 0.0
C1080 C 0.54104 0.30152 0.04874 0.0
C1081 C 0.56225 0.28475 0.07712 0.0
C1082 C 0.60337 0.31814 0.09751 0.0
H1083 H 0.66306 0.26188 0.17249 0.0
H1084 H 0.63389 0.26657 0.1484 0.0
H1085 H 0.63251 0.32646 0.10953 0.0
H1086 H 0.5442 0.33572 0.04626 0.0
H1087 H 0.56964 0.3383 0.07611 0.0
H1088 H 0.57207 0.28304 0.12352 0.0
C1089 C 0.64189 0.28054 0.15409 0.0
C1090 C 0.61925 0.31717 0.11293 0.0
C1091 C 0.65861 0.27786 0.16795 0.0
C1092 C 0.54907 0.32137 0.05477 0.0
C1093 C 0.56369 0.32283 0.07177 0.0
C1094 C 0.58516 0.29262 0.12025 0.0
C1095 C 0.6359 0.30092 0.1471 0.0
C1096 C 0.61841 0.30352 0.13186 0.0
C1097 C 0.57042 0.3045 0.08313 0.0
C1098 C 0.58632 0.30551 0.10074 0.0
H1099 H 0.67165 0.32991 0.17404 0.0
H1100 H 0.64258 0.33451 0.14953 0.0
H1101 H 0.59976 0.28127 0.15025 0.0
H1102 H 0.542 0.26771 0.05603 0.0
H1103 H 0.56733 0.27026 0.08517 0.0
C1104 C 0.23342 0.17531 0.66316 0.0
C1105 C 0.24944 0.18939 0.66637 0.0
C1106 C 0.2352 0.15792 0.64849 0.0
C1107 C 0.26508 0.13672 0.60037 0.0
H1108 H 0.23969 0.08376 0.61747 0.0
C1109 C 0.27115 0.05889 0.54665 0.0
C1110 C 0.25295 0.0483 0.54311 0.0
C1111 C 0.27239 0.07578 0.5622 0.0
C1112 C 0.2468 0.09846 0.6124 0.0
H1113 H 0.27985 0.19629 0.65619 0.0
H1114 H 0.2831 0.16567 0.63104 0.0
H1115 H 0.23859 0.11387 0.64343 0.0
H1116 H 0.22188 0.04706 0.55339 0.0
H1117 H 0.2241 0.07617 0.5803 0.0
H1118 H 0.27324 0.12113 0.56925 0.0
C1119 C 0.26906 0.16821 0.63972 0.0
C1120 C 0.2461 0.11578 0.62725 0.0
C1121 C 0.26727 0.18566 0.65437 0.0
C1122 C 0.23615 0.05482 0.55561 0.0
C1123 C 0.23744 0.07146 0.57121 0.0
C1124 C 0.26586 0.11931 0.58553 0.0
C1125 C 0.25308 0.15404 0.63667 0.0
C1126 C 0.25492 0.13527 0.62129 0.0
C1127 C 0.25553 0.08218 0.57472 0.0
C1128 C 0.25642 0.1001 0.59122 0.0
H1129 H 0.21955 0.17749 0.67227 0.0
H1130 H 0.22245 0.14757 0.64632 0.0
H1131 H 0.27191 0.15151 0.59512 0.0
H1132 H 0.28435 0.05428 0.53727 0.0
H1133 H 0.28656 0.08369 0.56461 0.0
C1134 C 0.3593 0.72011 0.18846 0.0
C1135 C 0.33945 0.71587 0.18213 0.0
C1136 C 0.37497 0.71613 0.17339 0.0
C1137 C 0.39112 0.68474 0.12502 0.0
H1138 H 0.42364 0.7334 0.10921 0.0
C1139 C 0.44783 0.68331 0.05026 0.0
C1140 C 0.46427 0.69701 0.05143 0.0
C1141 C 0.43327 0.6837 0.06737 0.0
C1142 C 0.41511 0.71944 0.11373 0.0
H1143 H 0.3208 0.70376 0.15477 0.0
H1144 H 0.34834 0.69602 0.129 0.0
H1145 H 0.39732 0.73722 0.13725 0.0
H1146 H 0.47931 0.72067 0.07187 0.0
H1147 H 0.45487 0.72035 0.10238 0.0
H1148 H 0.40919 0.66672 0.10205 0.0
C1149 C 0.35158 0.70254 0.14566 0.0
C1150 C 0.39988 0.72175 0.12971 0.0
C1151 C 0.33583 0.70691 0.16053 0.0
C1152 C 0.46659 0.71012 0.07052 0.0
C1153 C 0.45242 0.7101 0.08786 0.0
C1154 C 0.40667 0.68227 0.10934 0.0
C1155 C 0.37123 0.7074 0.15184 0.0
C1156 C 0.3877 0.70449 0.13541 0.0
C1157 C 0.43516 0.69747 0.0862 0.0
C1158 C 0.41887 0.69964 0.1034 0.0
H1159 H 0.36281 0.72651 0.20508 0.0
H1160 H 0.39006 0.71987 0.17857 0.0
H1161 H 0.3819 0.67118 0.12925 0.0
H1162 H 0.44568 0.67319 0.03555 0.0
H1163 H 0.42017 0.67386 0.06529 0.0
C1164 C 0.73126 0.16489 0.32302 0.0
C1165 C 0.7394 0.18495 0.32794 0.0
C1166 C 0.73123 0.14877 0.3394 0.0
C1167 C 0.75585 0.13241 0.3932 0.0
H1168 H 0.71168 0.09281 0.39664 0.0
C1169 C 0.72655 0.05828 0.45363 0.0
C1170 C 0.74497 0.04817 0.45721 0.0
C1171 C 0.72502 0.0754 0.43842 0.0
C1172 C 0.72404 0.10385 0.3961 0.0
H1173 H 0.75367 0.20387 0.35407 0.0
H1174 H 0.75341 0.17588 0.38278 0.0
H1175 H 0.71042 0.12221 0.36966 0.0
H1176 H 0.77609 0.04781 0.44708 0.0
H1177 H 0.77333 0.07704 0.42046 0.0
H1178 H 0.76927 0.11444 0.41996 0.0
C1179 C 0.74738 0.17242 0.3661 0.0
C1180 C 0.72345 0.12058 0.38039 0.0
C1181 C 0.74752 0.1885 0.34965 0.0
C1182 C 0.76168 0.05532 0.44497 0.0
C1183 C 0.76014 0.07226 0.42976 0.0
C1184 C 0.75639 0.11579 0.40895 0.0
C1185 C 0.73925 0.15231 0.3612 0.0
C1186 C 0.73945 0.13497 0.37856 0.0
C1187 C 0.74187 0.08271 0.42642 0.0
C1188 C 0.74062 0.10111 0.41044 0.0
H1189 H 0.72514 0.16153 0.30635 0.0
H1190 H 0.72522 0.1334 0.3348 0.0
H1191 H 0.76853 0.143 0.3922 0.0
H1192 H 0.7134 0.05319 0.46281 0.0
H1193 H 0.71073 0.08315 0.4364 0.0
C1194 C 0.35281 0.26859 0.82351 0.0
C1195 C 0.34094 0.28525 0.81517 0.0
C1196 C 0.36846 0.27266 0.83852 0.0
C1197 C 0.38672 0.31116 0.88062 0.0
H1198 H 0.43617 0.28006 0.87325 0.0
C1199 C 0.4542 0.31928 0.94279 0.0
C1200 C 0.46243 0.29976 0.94965 0.0
C1201 C 0.44026 0.32006 0.92499 0.0
C1202 C 0.42244 0.28884 0.87558 0.0
H1203 H 0.33638 0.31937 0.81609 0.0
H1204 H 0.36366 0.32642 0.84261 0.0
H1205 H 0.41002 0.27654 0.84477 0.0
H1206 H 0.46253 0.2658 0.94303 0.0
H1207 H 0.43847 0.2672 0.91241 0.0
H1208 H 0.39908 0.32305 0.9118 0.0
C1209 C 0.36072 0.31019 0.83753 0.0
C1210 C 0.40745 0.28679 0.85928 0.0
C1211 C 0.34508 0.30612 0.82237 0.0
C1212 C 0.45656 0.28115 0.93824 0.0
C1213 C 0.44284 0.28194 0.9205 0.0
C1214 C 0.40176 0.31319 0.89701 0.0
C1215 C 0.37263 0.29349 0.84569 0.0
C1216 C 0.38923 0.29751 0.86188 0.0
C1217 C 0.43452 0.30136 0.91361 0.0
C1218 C 0.41959 0.30161 0.89493 0.0
H1219 H 0.3498 0.25228 0.81876 0.0
H1220 H 0.3771 0.25939 0.84487 0.0
H1221 H 0.37281 0.31956 0.88314 0.0
H1222 H 0.45839 0.33389 0.95126 0.0
H1223 H 0.43412 0.33527 0.92 0.0
C1224 C 0.232 0.82784 0.334 0.0
C1225 C 0.24825 0.81428 0.32988 0.0
C1226 C 0.23382 0.84507 0.34888 0.0
C1227 C 0.26472 0.8663 0.39612 0.0
H1228 H 0.23739 0.91877 0.38136 0.0
C1229 C 0.27071 0.94334 0.45115 0.0
C1230 C 0.25241 0.95341 0.45566 0.0
C1231 C 0.2718 0.92672 0.43526 0.0
C1232 C 0.24505 0.9042 0.38578 0.0
H1233 H 0.27915 0.80816 0.33858 0.0
H1234 H 0.28246 0.83852 0.36407 0.0
H1235 H 0.23619 0.88913 0.35479 0.0
H1236 H 0.22099 0.95394 0.44682 0.0
H1237 H 0.22295 0.92528 0.41935 0.0
H1238 H 0.27353 0.88155 0.4272 0.0
C1239 C 0.26821 0.83569 0.35597 0.0
C1240 C 0.2443 0.88715 0.37058 0.0
C1241 C 0.26637 0.8184 0.34111 0.0
C1242 C 0.23535 0.94659 0.44384 0.0
C1243 C 0.23647 0.93022 0.42791 0.0
C1244 C 0.26555 0.88345 0.41131 0.0
C1245 C 0.25197 0.8493 0.35999 0.0
C1246 C 0.25383 0.86784 0.37569 0.0
C1247 C 0.25467 0.92006 0.42339 0.0
C1248 C 0.25543 0.90247 0.40648 0.0
H1249 H 0.21788 0.82534 0.3255 0.0
H1250 H 0.22089 0.85499 0.3518 0.0
H1251 H 0.27211 0.85163 0.40074 0.0
H1252 H 0.28412 0.9482 0.45997 0.0
H1253 H 0.28606 0.91924 0.43206 0.0
C1254 C 0.65903 0.72459 0.83229 0.0
C1255 C 0.67023 0.7069 0.82525 0.0
C1256 C 0.64219 0.72197 0.84599 0.0
C1257 C 0.61934 0.6852 0.887 0.0
H1258 H 0.57222 0.71945 0.87651 0.0
C1259 C 0.54888 0.67959 0.94426 0.0
C1260 C 0.5407 0.69924 0.95074 0.0
C1261 C 0.56355 0.67859 0.9273 0.0
C1262 C 0.5853 0.70984 0.87974 0.0
H1263 H 0.67214 0.67252 0.82669 0.0
H1264 H 0.64284 0.66802 0.85082 0.0
H1265 H 0.60009 0.72155 0.85002 0.0
H1266 H 0.54137 0.73319 0.94423 0.0
H1267 H 0.56683 0.73145 0.91509 0.0
H1268 H 0.60469 0.67387 0.91704 0.0
C1269 C 0.64725 0.68392 0.8459 0.0
C1270 C 0.60127 0.71106 0.86456 0.0
C1271 C 0.66406 0.68652 0.83211 0.0
C1272 C 0.54729 0.71776 0.93969 0.0
C1273 C 0.56182 0.71676 0.9228 0.0
C1274 C 0.60335 0.68402 0.90225 0.0
C1275 C 0.63616 0.70162 0.85304 0.0
C1276 C 0.61861 0.69904 0.86823 0.0
C1277 C 0.57021 0.69721 0.91642 0.0
C1278 C 0.5863 0.69664 0.89902 0.0
H1279 H 0.66352 0.74053 0.82765 0.0
H1280 H 0.63415 0.73597 0.85151 0.0
H1281 H 0.63256 0.67586 0.89039 0.0
H1282 H 0.54412 0.66503 0.95244 0.0
H1283 H 0.56964 0.66326 0.92265 0.0
loop_
_geom_bond_atom_site_label_1
_geom_bond_atom_site_label_2
_geom_bond_distance
_geom_bond_site_symmetry_2
_ccdc_geom_bond_type
C0 C1 1.391 . S
C0 C4 1.391 . S
C0 H42 0.948 . S
C1 C0 1.391 . S
C1 C2 1.391 . S
C2 C1 1.391 . S
C2 H58 0.947 . S
C2 C59 1.392 . S
C3 C4 1.391 . S
C3 C7 1.397 . S
C3 C59 1.419 . S
C4 C0 1.391 . S
C4 C3 1.391 . S
C4 C5 1.399 . S
C5 C4 1.399 . S
C5 C8 1.396 . S
C5 C17 1.453 . S
C5 C18 1.684 . S
H6 C30 0.948 . S
C7 C3 1.397 . S
C7 C8 1.394 . S
C7 C26 1.723 . S
C8 C5 1.396 . S
C8 C7 1.394 . S
C8 C38 1.723 . S
H9 C32 0.947 . S
H10 C33 0.948 . S
H11 C39 0.982 . S
H12 C40 0.979 . S
H13 C40 0.980 . S
H14 C40 0.983 . S
H15 C39 0.979 . S
H16 C39 0.977 . S
C17 C5 1.453 . S
C17 H46 0.982 . S
C17 H47 0.979 . S
C17 H48 0.977 . S
C18 C5 1.684 . S
C18 H43 0.979 . S
C18 H44 0.980 . S
C18 H45 0.983 . S
C19 C20 1.391 . S
C19 C24 1.391 . S
C19 H49 0.948 . S
C20 C19 1.391 . S
C20 C21 1.391 . S
C21 C20 1.391 . S
C21 C22 1.392 . S
C21 H50 0.947 . S
C22 C21 1.392 . S
C22 C23 1.419 . S
C22 H51 0.948 . S
C23 C22 1.419 . S
C23 C24 1.391 . S
C23 C27 1.397 . S
C24 C19 1.391 . S
C24 C23 1.391 . S
C24 C25 1.399 . S
C25 C24 1.399 . S
C25 C26 1.396 . S
C25 C28 1.453 . S
C25 C29 1.684 . S
C26 C7 1.723 . S
C26 C25 1.396 . S
C26 C27 1.394 . S
C27 C23 1.397 . S
C27 C26 1.394 . S
C27 C37 1.723 . S
C28 C25 1.453 . S
C28 H52 0.982 . S
C28 H53 0.979 . S
C28 H54 0.977 . S
C29 C25 1.684 . S
C29 H55 0.979 . S
C29 H56 0.980 . S
C29 H57 0.983 . S
C30 H6 0.948 . S
C30 C31 1.391 . S
C30 C35 1.391 . S
C31 C30 1.391 . S
C31 C32 1.391 . S
C32 H9 0.947 . S
C32 C31 1.391 . S
C32 C33 1.392 . S
C33 H10 0.948 . S
C33 C32 1.392 . S
C33 C34 1.419 . S
C34 C33 1.419 . S
C34 C35 1.391 . S
C34 C38 1.397 . S
C35 C30 1.391 . S
C35 C34 1.391 . S
C35 C36 1.399 . S
C36 C35 1.399 . S
C36 C37 1.396 . S
C36 C39 1.453 . S
C36 C40 1.684 . S
C37 C27 1.723 . S
C37 C36 1.396 . S
C37 C38 1.394 . S
C38 C8 1.723 . S
C38 C34 1.397 . S
C38 C37 1.394 . S
C39 H11 0.982 . S
C39 H15 0.979 . S
C39 H16 0.977 . S
C39 C36 1.453 . S
C40 H12 0.979 . S
C40 H13 0.980 . S
C40 H14 0.983 . S
C40 C36 1.684 . S
H41 C59 0.948 . S
H42 C0 0.948 . S
H43 C18 0.979 . S
H44 C18 0.980 . S
H45 C18 0.983 . S
H46 C17 0.982 . S
H47 C17 0.979 . S
H48 C17 0.977 . S
H49 C19 0.948 . S
H50 C21 0.947 . S
H51 C22 0.948 . S
H52 C28 0.982 . S
H53 C28 0.979 . S
H54 C28 0.977 . S
H55 C29 0.979 . S
H56 C29 0.980 . S
H57 C29 0.983 . S
H58 C2 0.947 . S
C59 C2 1.392 . S
C59 C3 1.419 . S
C59 H41 0.948 . S
C60 C61 1.391 . S
C60 C64 1.391 . S
C60 H102 0.948 . S
C61 C60 1.391 . S
C61 C62 1.391 . S
C62 C61 1.391 . S
C62 H118 0.947 . S
C62 C119 1.392 . S
C63 C64 1.391 . S
C63 C67 1.397 . S
C63 C119 1.419 . S
C64 C60 1.391 . S
C64 C63 1.391 . S
C64 C65 1.399 . S
C65 C64 1.399 . S
C65 C68 1.396 . S
C65 C77 1.453 . S
C65 C78 1.684 . S
H66 C90 0.948 . S
C67 C63 1.397 . S
C67 C68 1.394 . S
C67 C86 1.723 . S
C68 C65 1.396 . S
C68 C67 1.394 . S
C68 C98 1.723 . S
H69 C92 0.947 . S
H70 C93 0.948 . S
H71 C99 0.982 . S
H72 C100 0.979 . S
H73 C100 0.980 . S
H74 C100 0.983 . S
H75 C99 0.979 . S
H76 C99 0.977 . S
C77 C65 1.453 . S
C77 H106 0.982 . S
C77 H107 0.979 . S
C77 H108 0.977 . S
C78 C65 1.684 . S
C78 H103 0.979 . S
C78 H104 0.980 . S
C78 H105 0.983 . S
C79 C80 1.391 . S
C79 C84 1.391 . S
C79 H109 0.948 . S
C80 C79 1.391 . S
C80 C81 1.391 . S
C81 C80 1.391 . S
C81 C82 1.392 . S
C81 H110 0.947 . S
C82 C81 1.392 . S
C82 C83 1.419 . S
C82 H111 0.948 . S
C83 C82 1.419 . S
C83 C84 1.391 . S
C83 C87 1.397 . S
C84 C79 1.391 . S
C84 C83 1.391 . S
C84 C85 1.399 . S
C85 C84 1.399 . S
C85 C86 1.396 . S
C85 C88 1.453 . S
C85 C89 1.684 . S
C86 C67 1.723 . S
C86 C85 1.396 . S
C86 C87 1.394 . S
C87 C83 1.397 . S
C87 C86 1.394 . S
C87 C97 1.723 . S
C88 C85 1.453 . S
C88 H112 0.982 . S
C88 H113 0.979 . S
C88 H114 0.977 . S
C89 C85 1.684 . S
C89 H115 0.979 . S
C89 H116 0.980 . S
C89 H117 0.983 . S
C90 H66 0.948 . S
C90 C91 1.391 . S
C90 C95 1.391 . S
C91 C90 1.391 . S
C91 C92 1.391 . S
C92 H69 0.947 . S
C92 C91 1.391 . S
C92 C93 1.392 . S
C93 H70 0.948 . S
C93 C92 1.392 . S
C93 C94 1.419 . S
C94 C93 1.419 . S
C94 C95 1.391 . S
C94 C98 1.397 . S
C95 C90 1.391 . S
C95 C94 1.391 . S
C95 C96 1.399 . S
C96 C95 1.399 . S
C96 C97 1.396 . S
C96 C99 1.453 . S
C96 C100 1.684 . S
C97 C87 1.723 . S
C97 C96 1.396 . S
C97 C98 1.394 . S
C98 C68 1.723 . S
C98 C94 1.397 . S
C98 C97 1.394 . S
C99 H71 0.982 . S
C99 H75 0.979 . S
C99 H76 0.977 . S
C99 C96 1.453 . S
C100 H72 0.979 . S
C100 H73 0.980 . S
C100 H74 0.983 . S
C100 C96 1.684 . S
H101 C119 0.948 . S
H102 C60 0.948 . S
H103 C78 0.979 . S
H104 C78 0.980 . S
H105 C78 0.983 . S
H106 C77 0.982 . S
H107 C77 0.979 . S
H108 C77 0.977 . S
H109 C79 0.948 . S
H110 C81 0.947 . S
H111 C82 0.948 . S
H112 C88 0.982 . S
H113 C88 0.979 . S
H114 C88 0.977 . S
H115 C89 0.979 . S
H116 C89 0.980 . S
H117 C89 0.983 . S
H118 C62 0.947 . S
C119 C62 1.392 . S
C119 C63 1.419 . S
C119 H101 0.948 . S
C120 C121 1.391 . S
C120 C124 1.391 . S
C120 H162 0.948 . S
C121 C120 1.391 . S
C121 C122 1.391 . S
C122 C121 1.391 . S
C122 H178 0.947 . S
C122 C179 1.392 . S
C123 C124 1.391 . S
C123 C127 1.397 . S
C123 C179 1.419 . S
C124 C120 1.391 . S
C124 C123 1.391 . S
C124 C125 1.399 . S
C125 C124 1.399 . S
C125 C128 1.396 . S
C125 C137 1.453 . S
C125 C138 1.684 . S
H126 C150 0.948 . S
C127 C123 1.397 . S
C127 C128 1.394 . S
C127 C146 1.723 . S
C128 C125 1.396 . S
C128 C127 1.394 . S
C128 C158 1.723 . S
H129 C152 0.947 . S
H130 C153 0.948 . S
H131 C159 0.982 . S
H132 C160 0.979 . S
H133 C160 0.980 . S
H134 C160 0.983 . S
H135 C159 0.979 . S
H136 C159 0.977 . S
C137 C125 1.453 . S
C137 H166 0.982 . S
C137 H167 0.979 . S
C137 H168 0.977 . S
C138 C125 1.684 . S
C138 H163 0.979 . S
C138 H164 0.980 . S
C138 H165 0.983 . S
C139 C140 1.391 . S
C139 C144 1.391 . S
C139 H169 0.948 . S
C140 C139 1.391 . S
C140 C141 1.391 . S
C141 C140 1.391 . S
C141 C142 1.392 . S
C141 H170 0.947 . S
C142 C141 1.392 . S
C142 C143 1.419 . S
C142 H171 0.948 . S
C143 C142 1.419 . S
C143 C144 1.391 . S
C143 C147 1.397 . S
C144 C139 1.391 . S
C144 C143 1.391 . S
C144 C145 1.399 . S
C145 C144 1.399 . S
C145 C146 1.396 . S
C145 C148 1.453 . S
C145 C149 1.684 . S
C146 C127 1.723 . S
C146 C145 1.396 . S
C146 C147 1.394 . S
C147 C143 1.397 . S
C147 C146 1.394 . S
C147 C157 1.723 . S
C148 C145 1.453 . S
C148 H172 0.982 . S
C148 H173 0.979 . S
C148 H174 0.977 . S
C149 C145 1.684 . S
C149 H175 0.979 . S
C149 H176 0.980 . S
C149 H177 0.983 . S
C150 H126 0.948 . S
C150 C151 1.391 . S
C150 C155 1.391 . S
C151 C150 1.391 . S
C151 C152 1.391 . S
C152 H129 0.947 . S
C152 C151 1.391 . S
C152 C153 1.392 . S
C153 H130 0.948 . S
C153 C152 1.392 . S
C153 C154 1.419 . S
C154 C153 1.419 . S
C154 C155 1.391 . S
C154 C158 1.397 . S
C155 C150 1.391 . S
C155 C154 1.391 . S
C155 C156 1.399 . S
C156 C155 1.399 . S
C156 C157 1.396 . S
C156 C159 1.453 . S
C156 C160 1.684 . S
C157 C147 1.723 . S
C157 C156 1.396 . S
C157 C158 1.394 . S
C158 C128 1.723 . S
C158 C154 1.397 . S
C158 C157 1.394 . S
C159 H131 0.982 . S
C159 H135 0.979 . S
C159 H136 0.977 . S
C159 C156 1.453 . S
C160 H132 0.979 . S
C160 H133 0.980 . S
C160 H134 0.983 . S
C160 C156 1.684 . S
H161 C179 0.948 . S
H162 C120 0.948 . S
H163 C138 0.979 . S
H164 C138 0.980 . S
H165 C138 0.983 . S
H166 C137 0.982 . S
H167 C137 0.979 . S
H168 C137 0.977 . S
H169 C139 0.948 . S
H170 C141 0.947 . S
H171 C142 0.948 . S
H172 C148 0.982 . S
H173 C148 0.979 . S
H174 C148 0.977 . S
H175 C149 0.979 . S
H176 C149 0.980 . S
H177 C149 0.983 . S
H178 C122 0.947 . S
C179 C122 1.392 . S
C179 C123 1.419 . S
C179 H161 0.948 . S
C180 C181 1.391 . S
C180 C184 1.391 . S
C180 H222 0.948 . S
C181 C180 1.391 . S
C181 C182 1.391 . S
C182 C181 1.391 . S
C182 H238 0.947 . S
C182 C239 1.392 . S
C183 C184 1.391 . S
C183 C187 1.397 . S
C183 C239 1.419 . S
C184 C180 1.391 . S
C184 C183 1.391 . S
C184 C185 1.399 . S
C185 C184 1.399 . S
C185 C188 1.396 . S
C185 C197 1.453 . S
C185 C198 1.684 . S
H186 C210 0.948 . S
C187 C183 1.397 . S
C187 C188 1.394 . S
C187 C206 1.723 . S
C188 C185 1.396 . S
C188 C187 1.394 . S
C188 C218 1.723 . S
H189 C212 0.947 . S
H190 C213 0.948 . S
H191 C219 0.982 . S
H192 C220 0.979 . S
H193 C220 0.980 . S
H194 C220 0.983 . S
H195 C219 0.979 . S
H196 C219 0.977 . S
C197 C185 1.453 . S
C197 H226 0.982 . S
C197 H227 0.979 . S
C197 H228 0.977 . S
C198 C185 1.684 . S
C198 H223 0.979 . S
C198 H224 0.980 . S
C198 H225 0.983 . S
C199 C200 1.391 . S
C199 C204 1.391 . S
C199 H229 0.948 . S
C200 C199 1.391 . S
C200 C201 1.391 . S
C201 C200 1.391 . S
C201 C202 1.392 . S
C201 H230 0.947 . S
C202 C201 1.392 . S
C202 C203 1.419 . S
C202 H231 0.948 . S
C203 C202 1.419 . S
C203 C204 1.391 . S
C203 C207 1.397 . S
C204 C199 1.391 . S
C204 C203 1.391 . S
C204 C205 1.399 . S
C205 C204 1.399 . S
C205 C206 1.396 . S
C205 C208 1.453 . S
C205 C209 1.684 . S
C206 C187 1.723 . S
C206 C205 1.396 . S
C206 C207 1.394 . S
C207 C203 1.397 . S
C207 C206 1.394 . S
C207 C217 1.723 . S
C208 C205 1.453 . S
C208 H232 0.982 . S
C208 H233 0.979 . S
C208 H234 0.977 . S
C209 C205 1.684 . S
C209 H235 0.979 . S
C209 H236 0.980 . S
C209 H237 0.983 . S
C210 H186 0.948 . S
C210 C211 1.391 . S
C210 C215 1.391 . S
C211 C210 1.391 . S
C211 C212 1.391 . S
C212 H189 0.947 . S
C212 C211 1.391 . S
C212 C213 1.392 . S
C213 H190 0.948 . S
C213 C212 1.392 . S
C213 C214 1.419 . S
C214 C213 1.419 . S
C214 C215 1.391 . S
C214 C218 1.397 . S
C215 C210 1.391 . S
C215 C214 1.391 . S
C215 C216 1.399 . S
C216 C215 1.399 . S
C216 C217 1.396 . S
C216 C219 1.453 . S
C216 C220 1.684 . S
C217 C207 1.723 . S
C217 C216 1.396 . S
C217 C218 1.394 . S
C218 C188 1.723 . S
C218 C214 1.397 . S
C218 C217 1.394 . S
C219 H191 0.982 . S
C219 H195 0.979 . S
C219 H196 0.977 . S
C219 C216 1.453 . S
C220 H192 0.979 . S
C220 H193 0.980 . S
C220 H194 0.983 . S
C220 C216 1.684 . S
H221 C239 0.948 . S
H222 C180 0.948 . S
H223 C198 0.979 . S
H224 C198 0.980 . S
H225 C198 0.983 . S
H226 C197 0.982 . S
H227 C197 0.979 . S
H228 C197 0.977 . S
H229 C199 0.948 . S
H230 C201 0.947 . S
H231 C202 0.948 . S
H232 C208 0.982 . S
H233 C208 0.979 . S
H234 C208 0.977 . S
H235 C209 0.979 . S
H236 C209 0.980 . S
H237 C209 0.983 . S
H238 C182 0.947 . S
C239 C182 1.392 . S
C239 C183 1.419 . S
C239 H221 0.948 . S
C240 C241 1.391 . S
C240 C244 1.391 . S
C240 H282 0.948 . S
C241 C240 1.391 . S
C241 C242 1.391 . S
C242 C241 1.391 . S
C242 H298 0.947 . S
C242 C299 1.392 . S
C243 C244 1.391 . S
C243 C247 1.397 . S
C243 C299 1.419 . S
C244 C240 1.391 . S
C244 C243 1.391 . S
C244 C245 1.399 . S
C245 C244 1.399 . S
C245 C248 1.396 . S
C245 C257 1.453 . S
C245 C258 1.684 . S
H246 C270 0.948 . S
C247 C243 1.397 . S
C247 C248 1.394 . S
C247 C266 1.723 . S
C248 C245 1.396 . S
C248 C247 1.394 . S
C248 C278 1.723 . S
H249 C272 0.947 . S
H250 C273 0.948 . S
H251 C279 0.982 . S
H252 C280 0.979 . S
H253 C280 0.980 . S
H254 C280 0.983 . S
H255 C279 0.979 . S
H256 C279 0.977 . S
C257 C245 1.453 . S
C257 H286 0.982 . S
C257 H287 0.979 . S
C257 H288 0.977 . S
C258 C245 1.684 . S
C258 H283 0.979 . S
C258 H284 0.980 . S
C258 H285 0.983 . S
C259 C260 1.391 . S
C259 C264 1.391 . S
C259 H289 0.948 . S
C260 C259 1.391 . S
C260 C261 1.391 . S
C261 C260 1.391 . S
C261 C262 1.392 . S
C261 H290 0.947 . S
C262 C261 1.392 . S
C262 C263 1.419 . S
C262 H291 0.948 . S
C263 C262 1.419 . S
C263 C264 1.391 . S
C263 C267 1.397 . S
C264 C259 1.391 . S
C264 C263 1.391 . S
C264 C265 1.399 . S
C265 C264 1.399 . S
C265 C266 1.396 . S
C265 C268 1.453 . S
C265 C269 1.684 . S
C266 C247 1.723 . S
C266 C265 1.396 . S
C266 C267 1.394 . S
C267 C263 1.397 . S
C267 C266 1.394 . S
C267 C277 1.723 . S
C268 C265 1.453 . S
C268 H292 0.982 . S
C268 H293 0.979 . S
C268 H294 0.977 . S
C269 C265 1.684 . S
C269 H295 0.979 . S
C269 H296 0.980 . S
C269 H297 0.983 . S
C270 H246 0.948 . S
C270 C271 1.391 . S
C270 C275 1.391 . S
C271 C270 1.391 . S
C271 C272 1.391 . S
C272 H249 0.947 . S
C272 C271 1.391 . S
C272 C273 1.392 . S
C273 H250 0.948 . S
C273 C272 1.392 . S
C273 C274 1.419 . S
C274 C273 1.419 . S
C274 C275 1.391 . S
C274 C278 1.397 . S
C275 C270 1.391 . S
C275 C274 1.391 . S
C275 C276 1.399 . S
C276 C275 1.399 . S
C276 C277 1.396 . S
C276 C279 1.453 . S
C276 C280 1.684 . S
C277 C267 1.723 . S
C277 C276 1.396 . S
C277 C278 1.394 . S
C278 C248 1.723 . S
C278 C274 1.397 . S
C278 C277 1.394 . S
C279 H251 0.982 . S
C279 H255 0.979 . S
C279 H256 0.977 . S
C279 C276 1.453 . S
C280 H252 0.979 . S
C280 H253 0.980 . S
C280 H254 0.983 . S
C280 C276 1.684 . S
H281 C299 0.948 . S
H282 C240 0.948 . S
H283 C258 0.979 . S
H284 C258 0.980 . S
H285 C258 0.983 . S
H286 C257 0.982 . S
H287 C257 0.979 . S
H288 C257 0.977 . S
H289 C259 0.948 . S
H290 C261 0.947 . S
H291 C262 0.948 . S
H292 C268 0.982 . S
H293 C268 0.979 . S
H294 C268 0.977 . S
H295 C269 0.979 . S
H296 C269 0.980 . S
H297 C269 0.983 . S
H298 C242 0.947 . S
C299 C242 1.392 . S
C299 C243 1.419 . S
C299 H281 0.948 . S
C300 C301 1.391 . S
C300 C304 1.391 . S
C300 H342 0.948 . S
C301 C300 1.391 . S
C301 C302 1.391 . S
C302 C301 1.391 . S
C302 H358 0.947 . S
C302 C359 1.392 . S
C303 C304 1.391 . S
C303 C307 1.397 . S
C303 C359 1.419 . S
C304 C300 1.391 . S
C304 C303 1.391 . S
C304 C305 1.399 . S
C305 C304 1.399 . S
C305 C308 1.396 . S
C305 C317 1.453 . S
C305 C318 1.684 . S
H306 C330 0.948 . S
C307 C303 1.397 . S
C307 C308 1.394 . S
C307 C326 1.723 . S
C308 C305 1.396 . S
C308 C307 1.394 . S
C308 C338 1.723 . S
H309 C332 0.947 . S
H310 C333 0.948 . S
H311 C339 0.982 . S
H312 C340 0.979 . S
H313 C340 0.980 . S
H314 C340 0.983 . S
H315 C339 0.979 . S
H316 C339 0.977 . S
C317 C305 1.453 . S
C317 H346 0.982 . S
C317 H347 0.979 . S
C317 H348 0.977 . S
C318 C305 1.684 . S
C318 H343 0.979 . S
C318 H344 0.980 . S
C318 H345 0.983 . S
C319 C320 1.391 . S
C319 C324 1.391 . S
C319 H349 0.948 . S
C320 C319 1.391 . S
C320 C321 1.391 . S
C321 C320 1.391 . S
C321 C322 1.392 . S
C321 H350 0.947 . S
C322 C321 1.392 . S
C322 C323 1.419 . S
C322 H351 0.948 . S
C323 C322 1.419 . S
C323 C324 1.391 . S
C323 C327 1.397 . S
C324 C319 1.391 . S
C324 C323 1.391 . S
C324 C325 1.399 . S
C325 C324 1.399 . S
C325 C326 1.396 . S
C325 C328 1.453 . S
C325 C329 1.684 . S
C326 C307 1.723 . S
C326 C325 1.396 . S
C326 C327 1.394 . S
C327 C323 1.397 . S
C327 C326 1.394 . S
C327 C337 1.723 . S
C328 C325 1.453 . S
C328 H352 0.982 . S
C328 H353 0.979 . S
C328 H354 0.977 . S
C329 C325 1.684 . S
C329 H355 0.979 . S
C329 H356 0.980 . S
C329 H357 0.983 . S
C330 H306 0.948 . S
C330 C331 1.391 . S
C330 C335 1.391 . S
C331 C330 1.391 . S
C331 C332 1.391 . S
C332 H309 0.947 . S
C332 C331 1.391 . S
C332 C333 1.392 . S
C333 H310 0.948 . S
C333 C332 1.392 . S
C333 C334 1.419 . S
C334 C333 1.419 . S
C334 C335 1.391 . S
C334 C338 1.397 . S
C335 C330 1.391 . S
C335 C334 1.391 . S
C335 C336 1.399 . S
C336 C335 1.399 . S
C336 C337 1.396 . S
C336 C339 1.453 . S
C336 C340 1.684 . S
C337 C327 1.723 . S
C337 C336 1.396 . S
C337 C338 1.394 . S
C338 C308 1.723 . S
C338 C334 1.397 . S
C338 C337 1.394 . S
C339 H311 0.982 . S
C339 H315 0.979 . S
C339 H316 0.977 . S
C339 C336 1.453 . S
C340 H312 0.979 . S
C340 H313 0.980 . S
C340 H314 0.983 . S
C340 C336 1.684 . S
H341 C359 0.948 . S
H342 C300 0.948 . S
H343 C318 0.979 . S
H344 C318 0.980 . S
H345 C318 0.983 . S
H346 C317 0.982 . S
H347 C317 0.979 . S
H348 C317 0.977 . S
H349 C319 0.948 . S
H350 C321 0.947 . S
H351 C322 0.948 . S
H352 C328 0.982 . S
H353 C328 0.979 . S
H354 C328 0.977 . S
H355 C329 0.979 . S
H356 C329 0.980 . S
H357 C329 0.983 . S
H358 C302 0.947 . S
C359 C302 1.392 . S
C359 C303 1.419 . S
C359 H341 0.948 . S
C360 C361 1.391 . S
C360 C364 1.391 . S
C360 H402 0.948 . S
C361 C360 1.391 . S
C361 C362 1.391 . S
C362 C361 1.391 . S
C362 H418 0.947 . S
C362 C419 1.392 . S
C363 C364 1.391 . S
C363 C367 1.397 . S
C363 C419 1.419 . S
C364 C360 1.391 . S
C364 C363 1.391 . S
C364 C365 1.399 . S
C365 C364 1.399 . S
C365 C368 1.396 . S
C365 C377 1.453 . S
C365 C378 1.684 . S
H366 C390 0.948 . S
C367 C363 1.397 . S
C367 C368 1.394 . S
C367 C386 1.723 . S
C368 C365 1.396 . S
C368 C367 1.394 . S
C368 C398 1.723 . S
H369 C392 0.947 . S
H370 C393 0.948 . S
H371 C399 0.982 . S
H372 C400 0.979 . S
H373 C400 0.980 . S
H374 C400 0.983 . S
H375 C399 0.979 . S
H376 C399 0.977 . S
C377 C365 1.453 . S
C377 H406 0.982 . S
C377 H407 0.979 . S
C377 H408 0.977 . S
C378 C365 1.684 . S
C378 H403 0.979 . S
C378 H404 0.980 . S
C378 H405 0.983 . S
C379 C380 1.391 . S
C379 C384 1.391 . S
C379 H409 0.948 . S
C380 C379 1.391 . S
C380 C381 1.391 . S
C381 C380 1.391 . S
C381 C382 1.392 . S
C381 H410 0.947 . S
C382 C381 1.392 . S
C382 C383 1.419 . S
C382 H411 0.948 . S
C383 C382 1.419 . S
C383 C384 1.391 . S
C383 C387 1.397 . S
C384 C379 1.391 . S
C384 C383 1.391 . S
C384 C385 1.399 . S
C385 C384 1.399 . S
C385 C386 1.396 . S
C385 C388 1.453 . S
C385 C389 1.684 . S
C386 C367 1.723 . S
C386 C385 1.396 . S
C386 C387 1.394 . S
C387 C383 1.397 . S
C387 C386 1.394 . S
C387 C397 1.723 . S
C388 C385 1.453 . S
C388 H412 0.982 . S
C388 H413 0.979 . S
C388 H414 0.977 . S
C389 C385 1.684 . S
C389 H415 0.979 . S
C389 H416 0.980 . S
C389 H417 0.983 . S
C390 H366 0.948 . S
C390 C391 1.391 . S
C390 C395 1.391 . S
C391 C390 1.391 . S
C391 C392 1.391 . S
C392 H369 0.947 . S
C392 C391 1.391 . S
C392 C393 1.392 . S
C393 H370 0.948 . S
C393 C392 1.392 . S
C393 C394 1.419 . S
C394 C393 1.419 . S
C394 C395 1.391 . S
C394 C398 1.397 . S
C395 C390 1.391 . S
C395 C394 1.391 . S
C395 C396 1.399 . S
C396 C395 1.399 . S
C396 C397 1.396 . S
C396 C399 1.453 . S
C396 C400 1.684 . S
C397 C387 1.723 . S
C397 C396 1.396 . S
C397 C398 1.394 . S
C398 C368 1.723 . S
C398 C394 1.397 . S
C398 C397 1.394 . S
C399 H371 0.982 . S
C399 H375 0.979 . S
C399 H376 0.977 . S
C399 C396 1.453 . S
C400 H372 0.979 . S
C400 H373 0.980 . S
C400 H374 0.983 . S
C400 C396 1.684 . S
H401 C419 0.948 . S
H402 C360 0.948 . S
H403 C378 0.979 . S
H404 C378 0.980 . S
H405 C378 0.983 . S
H406 C377 0.982 . S
H407 C377 0.979 . S
H408 C377 0.977 . S
H409 C379 0.948 . S
H410 C381 0.947 . S
H411 C382 0.948 . S
H412 C388 0.982 . S
H413 C388 0.979 . S
H414 C388 0.977 . S
H415 C389 0.979 . S
H416 C389 0.980 . S
H417 C389 0.983 . S
H418 C362 0.947 . S
C419 C362 1.392 . S
C419 C363 1.419 . S
C419 H401 0.948 . S
C420 C421 1.391 . S
C420 C424 1.391 . S
C420 H462 0.948 . S
C421 C420 1.391 . S
C421 C422 1.391 . S
C422 C421 1.391 . S
C422 H478 0.947 . S
C422 C479 1.392 . S
C423 C424 1.391 . S
C423 C427 1.397 . S
C423 C479 1.419 . S
C424 C420 1.391 . S
C424 C423 1.391 . S
C424 C425 1.399 . S
C425 C424 1.399 . S
C425 C428 1.396 . S
C425 C437 1.453 . S
C425 C438 1.684 . S
H426 C450 0.948 . S
C427 C423 1.397 . S
C427 C428 1.394 . S
C427 C446 1.723 . S
C428 C425 1.396 . S
C428 C427 1.394 . S
C428 C458 1.723 . S
H429 C452 0.947 . S
H430 C453 0.948 . S
H431 C459 0.982 . S
H432 C460 0.979 . S
H433 C460 0.980 . S
H434 C460 0.983 . S
H435 C459 0.979 . S
H436 C459 0.977 . S
C437 C425 1.453 . S
C437 H466 0.982 . S
C437 H467 0.979 . S
C437 H468 0.977 . S
C438 C425 1.684 . S
C438 H463 0.979 . S
C438 H464 0.980 . S
C438 H465 0.983 . S
C439 C440 1.391 . S
C439 C444 1.391 . S
C439 H469 0.948 . S
C440 C439 1.391 . S
C440 C441 1.391 . S
C441 C440 1.391 . S
C441 C442 1.392 . S
C441 H470 0.947 . S
C442 C441 1.392 . S
C442 C443 1.419 . S
C442 H471 0.948 . S
C443 C442 1.419 . S
C443 C444 1.391 . S
C443 C447 1.397 . S
C444 C439 1.391 . S
C444 C443 1.391 . S
C444 C445 1.399 . S
C445 C444 1.399 . S
C445 C446 1.396 . S
C445 C448 1.453 . S
C445 C449 1.684 . S
C446 C427 1.723 . S
C446 C445 1.396 . S
C446 C447 1.394 . S
C447 C443 1.397 . S
C447 C446 1.394 . S
C447 C457 1.723 . S
C448 C445 1.453 . S
C448 H472 0.982 . S
C448 H473 0.979 . S
C448 H474 0.977 . S
C449 C445 1.684 . S
C449 H475 0.979 . S
C449 H476 0.980 . S
C449 H477 0.983 . S
C450 H426 0.948 . S
C450 C451 1.391 . S
C450 C455 1.391 . S
C451 C450 1.391 . S
C451 C452 1.391 . S
C452 H429 0.947 . S
C452 C451 1.391 . S
C452 C453 1.392 . S
C453 H430 0.948 . S
C453 C452 1.392 . S
C453 C454 1.419 . S
C454 C453 1.419 . S
C454 C455 1.391 . S
C454 C458 1.397 . S
C455 C450 1.391 . S
C455 C454 1.391 . S
C455 C456 1.399 . S
C456 C455 1.399 . S
C456 C457 1.396 . S
C456 C459 1.453 . S
C456 C460 1.684 . S
C457 C447 1.723 . S
C457 C456 1.396 . S
C457 C458 1.394 . S
C458 C428 1.723 . S
C458 C454 1.397 . S
C458 C457 1.394 . S
C459 H431 0.982 . S
C459 H435 0.979 . S
C459 H436 0.977 . S
C459 C456 1.453 . S
C460 H432 0.979 . S
C460 H433 0.980 . S
C460 H434 0.983 . S
C460 C456 1.684 . S
H461 C479 0.948 . S
H462 C420 0.948 . S
H463 C438 0.979 . S
H464 C438 0.980 . S
H465 C438 0.983 . S
H466 C437 0.982 . S
H467 C437 0.979 . S
H468 C437 0.977 . S
H469 C439 0.948 . S
H470 C441 0.947 . S
H471 C442 0.948 . S
H472 C448 0.982 . S
H473 C448 0.979 . S
H474 C448 0.977 . S
H475 C449 0.979 . S
H476 C449 0.980 . S
H477 C449 0.983 . S
H478 C422 0.947 . S
C479 C422 1.392 . S
C479 C423 1.419 . S
C479 H461 0.948 . S
C480 O482 1.247 . S
C480 O484 1.258 . S
C481 O488 1.247 . S
C481 O489 1.258 . S
O482 C480 1.247 . S
O482 Zn483 2.026 . S
Zn483 O482 2.026 . S
Zn483 O487 2.037 1_655 S
Zn483 O489 2.037 1_655 S
Zn483 O490 2.026 . S
O484 C480 1.258 . S
O484 Zn485 2.028 1_655 S
Zn485 O484 2.028 1_455 S
Zn485 O486 2.035 . S
Zn485 O488 2.035 . S
Zn485 O491 2.028 1_455 S
O486 Zn485 2.035 . S
O486 C492 1.247 . S
O487 Zn483 2.037 1_455 S
O487 C492 1.258 . S
O488 C481 1.247 . S
O488 Zn485 2.035 . S
O489 C481 1.258 . S
O489 Zn483 2.037 1_455 S
O490 Zn483 2.026 . S
O490 C493 1.247 . S
O491 Zn485 2.028 1_655 S
O491 C493 1.258 . S
C492 O486 1.247 . S
C492 O487 1.258 . S
C493 O490 1.247 . S
C493 O491 1.258 . S
C494 O496 1.247 . S
C494 O498 1.258 . S
C495 O502 1.247 . S
C495 O503 1.258 . S
O496 C494 1.247 . S
O496 Zn497 2.026 . S
Zn497 O496 2.026 . S
Zn497 O501 2.037 1_655 S
Zn497 O503 2.037 1_655 S
Zn497 O504 2.026 . S
O498 C494 1.258 . S
O498 Zn499 2.028 1_655 S
Zn499 O498 2.028 1_455 S
Zn499 O500 2.035 . S
Zn499 O502 2.035 . S
Zn499 O505 2.028 1_455 S
O500 Zn499 2.035 . S
O500 C506 1.247 . S
O501 Zn497 2.037 1_455 S
O501 C506 1.258 . S
O502 C495 1.247 . S
O502 Zn499 2.035 . S
O503 C495 1.258 . S
O503 Zn497 2.037 1_455 S
O504 Zn497 2.026 . S
O504 C507 1.247 . S
O505 Zn499 2.028 1_655 S
O505 C507 1.258 . S
C506 O500 1.247 . S
C506 O501 1.258 . S
C507 O504 1.247 . S
C507 O505 1.258 . S
C508 O510 1.247 . S
C508 O512 1.258 . S
C509 O516 1.247 . S
C509 O517 1.258 . S
O510 C508 1.247 . S
O510 Zn511 2.026 . S
Zn511 O510 2.026 . S
Zn511 O515 2.037 1_565 S
Zn511 O517 2.037 1_565 S
Zn511 O518 2.026 . S
O512 C508 1.258 . S
O512 Zn513 2.028 1_565 S
Zn513 O512 2.028 1_545 S
Zn513 O514 2.035 . S
Zn513 O516 2.035 . S
Zn513 O519 2.028 1_545 S
O514 Zn513 2.035 . S
O514 C520 1.247 . S
O515 Zn511 2.037 1_545 S
O515 C520 1.258 . S
O516 C509 1.247 . S
O516 Zn513 2.035 . S
O517 C509 1.258 . S
O517 Zn511 2.037 1_545 S
O518 Zn511 2.026 . S
O518 C521 1.247 . S
O519 Zn513 2.028 1_565 S
O519 C521 1.258 . S
C520 O514 1.247 . S
C520 O515 1.258 . S
C521 O518 1.247 . S
C521 O519 1.258 . S
C522 O524 1.247 . S
C522 O526 1.258 . S
C523 O530 1.247 . S
C523 O531 1.258 . S
O524 C522 1.247 . S
O524 Zn525 2.028 . S
Zn525 O524 2.028 . S
Zn525 O529 2.035 . S
Zn525 O531 2.035 1_554 S
Zn525 O532 2.028 1_554 S
O526 C522 1.258 . S
O526 Zn527 2.035 . S
Zn527 O526 2.035 . S
Zn527 O528 2.028 . S
Zn527 O530 2.028 1_554 S
Zn527 O533 2.035 1_554 S
O528 Zn527 2.028 . S
O528 C534 1.247 . S
O529 Zn525 2.035 . S
O529 C534 1.258 . S
O530 C523 1.247 . S
O530 Zn527 2.028 1_556 S
O531 C523 1.258 . S
O531 Zn525 2.035 1_556 S
O532 Zn525 2.028 1_556 S
O532 C535 1.247 . S
O533 Zn527 2.035 1_556 S
O533 C535 1.258 . S
C534 O528 1.247 . S
C534 O529 1.258 . S
C535 O532 1.247 . S
C535 O533 1.258 . S
C536 O538 1.247 . S
C536 O540 1.258 . S
C537 O544 1.247 . S
C537 O545 1.258 . S
O538 C536 1.247 . S
O538 Zn539 2.026 . S
Zn539 O538 2.026 . S
Zn539 O543 2.037 1_565 S
Zn539 O545 2.037 1_565 S
Zn539 O546 2.026 . S
O540 C536 1.258 . S
O540 Zn541 2.028 1_565 S
Zn541 O540 2.028 1_545 S
Zn541 O542 2.035 . S
Zn541 O544 2.035 . S
Zn541 O547 2.028 1_545 S
O542 Zn541 2.035 . S
O542 C548 1.247 . S
O543 Zn539 2.037 1_545 S
O543 C548 1.258 . S
O544 C537 1.247 . S
O544 Zn541 2.035 . S
O545 C537 1.258 . S
O545 Zn539 2.037 1_545 S
O546 Zn539 2.026 . S
O546 C549 1.247 . S
O547 Zn541 2.028 1_565 S
O547 C549 1.258 . S
C548 O542 1.247 . S
C548 O543 1.258 . S
C549 O546 1.247 . S
C549 O547 1.258 . S
C550 O552 1.247 . S
C550 O554 1.258 . S
C551 O558 1.247 . S
C551 O559 1.258 . S
O552 C550 1.247 . S
O552 Zn553 2.028 . S
Zn553 O552 2.028 . S
Zn553 O557 2.035 . S
Zn553 O559 2.035 1_554 S
Zn553 O560 2.028 1_554 S
O554 C550 1.258 . S
O554 Zn555 2.035 . S
Zn555 O554 2.035 . S
Zn555 O556 2.028 . S
Zn555 O558 2.028 1_554 S
Zn555 O561 2.035 1_554 S
O556 Zn555 2.028 . S
O556 C562 1.247 . S
O557 Zn553 2.035 . S
O557 C562 1.258 . S
O558 C551 1.247 . S
O558 Zn555 2.028 1_556 S
O559 C551 1.258 . S
O559 Zn553 2.035 1_556 S
O560 Zn553 2.028 1_556 S
O560 C563 1.247 . S
O561 Zn555 2.035 1_556 S
O561 C563 1.258 . S
C562 O556 1.247 . S
C562 O557 1.258 . S
C563 O560 1.247 . S
C563 O561 1.258 . S
C564 C565 1.349 . S
C564 C566 1.327 . S
C564 H589 0.950 . S
C565 C564 1.349 . S
C565 C581 1.349 . S
C566 C564 1.327 . S
C566 C585 1.429 . S
C566 H590 0.950 . S
C567 C584 1.574 . S
C567 C586 1.368 . S
C567 H591 0.949 . S
H568 C572 0.949 . S
C569 C570 1.349 . S
C569 C571 1.327 . S
C569 H592 0.950 . S
C570 C569 1.349 . S
C570 C582 1.349 . S
C571 C569 1.327 . S
C571 C587 1.429 . S
C571 H593 0.950 . S
C572 H568 0.949 . S
C572 C580 1.574 . S
C572 C588 1.368 . S
H573 C581 0.950 . S
H574 C579 0.950 . S
H575 C580 0.949 . S
H576 C582 0.950 . S
H577 C583 0.950 . S
H578 C584 0.949 . S
C579 H574 0.950 . S
C579 C581 1.327 . S
C579 C585 1.429 . S
C580 C572 1.574 . S
C580 H575 0.949 . S
C580 C586 1.368 . S
C581 C565 1.349 . S
C581 H573 0.950 . S
C581 C579 1.327 . S
C582 C570 1.349 . S
C582 H576 0.950 . S
C582 C583 1.327 . S
C583 H577 0.950 . S
C583 C582 1.327 . S
C583 C587 1.429 . S
C584 C567 1.574 . S
C584 H578 0.949 . S
C584 C588 1.368 . S
C585 C566 1.429 . S
C585 C579 1.429 . S
C585 C586 1.523 . S
C586 C567 1.368 . S
C586 C580 1.368 . S
C586 C585 1.523 . S
C587 C571 1.429 . S
C587 C583 1.429 . S
C587 C588 1.523 . S
C588 C572 1.368 . S
C588 C584 1.368 . S
C588 C587 1.523 . S
H589 C564 0.950 . S
H590 C566 0.950 . S
H591 C567 0.949 . S
H592 C569 0.950 . S
H593 C571 0.950 . S
C594 C595 1.349 . S
C594 C596 1.327 . S
C594 H619 0.950 . S
C595 C594 1.349 . S
C595 C611 1.349 . S
C596 C594 1.327 . S
C596 C615 1.429 . S
C596 H620 0.950 . S
C597 C614 1.574 . S
C597 C616 1.368 . S
C597 H621 0.949 . S
H598 C602 0.949 . S
C599 C600 1.349 . S
C599 C601 1.327 . S
C599 H622 0.950 . S
C600 C599 1.349 . S
C600 C612 1.349 . S
C601 C599 1.327 . S
C601 C617 1.429 . S
C601 H623 0.950 . S
C602 H598 0.949 . S
C602 C610 1.574 . S
C602 C618 1.368 . S
H603 C611 0.950 . S
H604 C609 0.950 . S
H605 C610 0.949 . S
H606 C612 0.950 . S
H607 C613 0.950 . S
H608 C614 0.949 . S
C609 H604 0.950 . S
C609 C611 1.327 . S
C609 C615 1.429 . S
C610 C602 1.574 . S
C610 H605 0.949 . S
C610 C616 1.368 . S
C611 C595 1.349 . S
C611 H603 0.950 . S
C611 C609 1.327 . S
C612 C600 1.349 . S
C612 H606 0.950 . S
C612 C613 1.327 . S
C613 H607 0.950 . S
C613 C612 1.327 . S
C613 C617 1.429 . S
C614 C597 1.574 . S
C614 H608 0.949 . S
C614 C618 1.368 . S
C615 C596 1.429 . S
C615 C609 1.429 . S
C615 C616 1.523 . S
C616 C597 1.368 . S
C616 C610 1.368 . S
C616 C615 1.523 . S
C617 C601 1.429 . S
C617 C613 1.429 . S
C617 C618 1.523 . S
C618 C602 1.368 . S
C618 C614 1.368 . S
C618 C617 1.523 . S
H619 C594 0.950 . S
H620 C596 0.950 . S
H621 C597 0.949 . S
H622 C599 0.950 . S
H623 C601 0.950 . S
C624 C625 1.349 . S
C624 C626 1.327 . S
C624 H649 0.950 . S
C625 C624 1.349 . S
C625 C641 1.349 . S
C626 C624 1.327 . S
C626 C645 1.429 . S
C626 H650 0.950 . S
C627 C644 1.574 . S
C627 C646 1.368 . S
C627 H651 0.949 . S
H628 C632 0.949 . S
C629 C630 1.349 . S
C629 C631 1.327 . S
C629 H652 0.950 . S
C630 C629 1.349 . S
C630 C642 1.349 . S
C631 C629 1.327 . S
C631 C647 1.429 . S
C631 H653 0.950 . S
C632 H628 0.949 . S
C632 C640 1.574 . S
C632 C648 1.368 . S
H633 C641 0.950 . S
H634 C639 0.950 . S
H635 C640 0.949 . S
H636 C642 0.950 . S
H637 C643 0.950 . S
H638 C644 0.949 . S
C639 H634 0.950 . S
C639 C641 1.327 . S
C639 C645 1.429 . S
C640 C632 1.574 . S
C640 H635 0.949 . S
C640 C646 1.368 . S
C641 C625 1.349 . S
C641 H633 0.950 . S
C641 C639 1.327 . S
C642 C630 1.349 . S
C642 H636 0.950 . S
C642 C643 1.327 . S
C643 H637 0.950 . S
C643 C642 1.327 . S
C643 C647 1.429 . S
C644 C627 1.574 . S
C644 H638 0.949 . S
C644 C648 1.368 . S
C645 C626 1.429 . S
C645 C639 1.429 . S
C645 C646 1.523 . S
C646 C627 1.368 . S
C646 C640 1.368 . S
C646 C645 1.523 . S
C647 C631 1.429 . S
C647 C643 1.429 . S
C647 C648 1.523 . S
C648 C632 1.368 . S
C648 C644 1.368 . S
C648 C647 1.523 . S
H649 C624 0.950 . S
H650 C626 0.950 . S
H651 C627 0.949 . S
H652 C629 0.950 . S
H653 C631 0.950 . S
C654 C655 1.349 . S
C654 C656 1.327 . S
C654 H679 0.950 . S
C655 C654 1.349 . S
C655 C671 1.349 . S
C656 C654 1.327 . S
C656 C675 1.429 . S
C656 H680 0.950 . S
C657 C674 1.574 . S
C657 C676 1.368 . S
C657 H681 0.949 . S
H658 C662 0.949 . S
C659 C660 1.349 . S
C659 C661 1.327 . S
C659 H682 0.950 . S
C660 C659 1.349 . S
C660 C672 1.349 . S
C661 C659 1.327 . S
C661 C677 1.429 . S
C661 H683 0.950 . S
C662 H658 0.949 . S
C662 C670 1.574 . S
C662 C678 1.368 . S
H663 C671 0.950 . S
H664 C669 0.950 . S
H665 C670 0.949 . S
H666 C672 0.950 . S
H667 C673 0.950 . S
H668 C674 0.949 . S
C669 H664 0.950 . S
C669 C671 1.327 . S
C669 C675 1.429 . S
C670 C662 1.574 . S
C670 H665 0.949 . S
C670 C676 1.368 . S
C671 C655 1.349 . S
C671 H663 0.950 . S
C671 C669 1.327 . S
C672 C660 1.349 . S
C672 H666 0.950 . S
C672 C673 1.327 . S
C673 H667 0.950 . S
C673 C672 1.327 . S
C673 C677 1.429 . S
C674 C657 1.574 . S
C674 H668 0.949 . S
C674 C678 1.368 . S
C675 C656 1.429 . S
C675 C669 1.429 . S
C675 C676 1.523 . S
C676 C657 1.368 . S
C676 C670 1.368 . S
C676 C675 1.523 . S
C677 C661 1.429 . S
C677 C673 1.429 . S
C677 C678 1.523 . S
C678 C662 1.368 . S
C678 C674 1.368 . S
C678 C677 1.523 . S
H679 C654 0.950 . S
H680 C656 0.950 . S
H681 C657 0.949 . S
H682 C659 0.950 . S
H683 C661 0.950 . S
C684 C685 1.349 . S
C684 C686 1.327 . S
C684 H709 0.950 . S
C685 C684 1.349 . S
C685 C701 1.349 . S
C686 C684 1.327 . S
C686 C705 1.429 . S
C686 H710 0.950 . S
C687 C704 1.574 . S
C687 C706 1.368 . S
C687 H711 0.949 . S
H688 C692 0.949 . S
C689 C690 1.349 . S
C689 C691 1.327 . S
C689 H712 0.950 . S
C690 C689 1.349 . S
C690 C702 1.349 . S
C691 C689 1.327 . S
C691 C707 1.429 . S
C691 H713 0.950 . S
C692 H688 0.949 . S
C692 C700 1.574 . S
C692 C708 1.368 . S
H693 C701 0.950 . S
H694 C699 0.950 . S
H695 C700 0.949 . S
H696 C702 0.950 . S
H697 C703 0.950 . S
H698 C704 0.949 . S
C699 H694 0.950 . S
C699 C701 1.327 . S
C699 C705 1.429 . S
C700 C692 1.574 . S
C700 H695 0.949 . S
C700 C706 1.368 . S
C701 C685 1.349 . S
C701 H693 0.950 . S
C701 C699 1.327 . S
C702 C690 1.349 . S
C702 H696 0.950 . S
C702 C703 1.327 . S
C703 H697 0.950 . S
C703 C702 1.327 . S
C703 C707 1.429 . S
C704 C687 1.574 . S
C704 H698 0.949 . S
C704 C708 1.368 . S
C705 C686 1.429 . S
C705 C699 1.429 . S
C705 C706 1.523 . S
C706 C687 1.368 . S
C706 C700 1.368 . S
C706 C705 1.523 . S
C707 C691 1.429 . S
C707 C703 1.429 . S
C707 C708 1.523 . S
C708 C692 1.368 . S
C708 C704 1.368 . S
C708 C707 1.523 . S
H709 C684 0.950 . S
H710 C686 0.950 . S
H711 C687 0.949 . S
H712 C689 0.950 . S
H713 C691 0.950 . S
C714 C715 1.349 . S
C714 C716 1.327 . S
C714 H739 0.950 . S
C715 C714 1.349 . S
C715 C731 1.349 . S
C716 C714 1.327 . S
C716 C735 1.429 . S
C716 H740 0.950 . S
C717 C734 1.574 . S
C717 C736 1.368 . S
C717 H741 0.949 . S
H718 C722 0.949 . S
C719 C720 1.349 . S
C719 C721 1.327 . S
C719 H742 0.950 . S
C720 C719 1.349 . S
C720 C732 1.349 . S
C721 C719 1.327 . S
C721 C737 1.429 . S
C721 H743 0.950 . S
C722 H718 0.949 . S
C722 C730 1.574 . S
C722 C738 1.368 . S
H723 C731 0.950 . S
H724 C729 0.950 . S
H725 C730 0.949 . S
H726 C732 0.950 . S
H727 C733 0.950 . S
H728 C734 0.949 . S
C729 H724 0.950 . S
C729 C731 1.327 . S
C729 C735 1.429 . S
C730 C722 1.574 . S
C730 H725 0.949 . S
C730 C736 1.368 . S
C731 C715 1.349 . S
C731 H723 0.950 . S
C731 C729 1.327 . S
C732 C720 1.349 . S
C732 H726 0.950 . S
C732 C733 1.327 . S
C733 H727 0.950 . S
C733 C732 1.327 . S
C733 C737 1.429 . S
C734 C717 1.574 . S
C734 H728 0.949 . S
C734 C738 1.368 . S
C735 C716 1.429 . S
C735 C729 1.429 . S
C735 C736 1.523 . S
C736 C717 1.368 . S
C736 C730 1.368 . S
C736 C735 1.523 . S
C737 C721 1.429 . S
C737 C733 1.429 . S
C737 C738 1.523 . S
C738 C722 1.368 . S
C738 C734 1.368 . S
C738 C737 1.523 . S
H739 C714 0.950 . S
H740 C716 0.950 . S
H741 C717 0.949 . S
H742 C719 0.950 . S
H743 C721 0.950 . S
C744 C745 1.349 . S
C744 C746 1.327 . S
C744 H769 0.950 . S
C745 C744 1.349 . S
C745 C761 1.349 . S
C746 C744 1.327 . S
C746 C765 1.429 . S
C746 H770 0.950 . S
C747 C764 1.574 . S
C747 C766 1.368 . S
C747 H771 0.949 . S
H748 C752 0.949 . S
C749 C750 1.349 . S
C749 C751 1.327 . S
C749 H772 0.950 . S
C750 C749 1.349 . S
C750 C762 1.349 . S
C751 C749 1.327 . S
C751 C767 1.429 . S
C751 H773 0.950 . S
C752 H748 0.949 . S
C752 C760 1.574 . S
C752 C768 1.368 . S
H753 C761 0.950 . S
H754 C759 0.950 . S
H755 C760 0.949 . S
H756 C762 0.950 . S
H757 C763 0.950 . S
H758 C764 0.949 . S
C759 H754 0.950 . S
C759 C761 1.327 . S
C759 C765 1.429 . S
C760 C752 1.574 . S
C760 H755 0.949 . S
C760 C766 1.368 . S
C761 C745 1.349 . S
C761 H753 0.950 . S
C761 C759 1.327 . S
C762 C750 1.349 . S
C762 H756 0.950 . S
C762 C763 1.327 . S
C763 H757 0.950 . S
C763 C762 1.327 . S
C763 C767 1.429 . S
C764 C747 1.574 . S
C764 H758 0.949 . S
C764 C768 1.368 . S
C765 C746 1.429 . S
C765 C759 1.429 . S
C765 C766 1.523 . S
C766 C747 1.368 . S
C766 C760 1.368 . S
C766 C765 1.523 . S
C767 C751 1.429 . S
C767 C763 1.429 . S
C767 C768 1.523 . S
C768 C752 1.368 . S
C768 C764 1.368 . S
C768 C767 1.523 . S
H769 C744 0.950 . S
H770 C746 0.950 . S
H771 C747 0.949 . S
H772 C749 0.950 . S
H773 C751 0.950 . S
C774 C775 1.349 . S
C774 C776 1.327 . S
C774 H799 0.950 . S
C775 C774 1.349 . S
C775 C791 1.349 . S
C776 C774 1.327 . S
C776 C795 1.429 . S
C776 H800 0.950 . S
C777 C794 1.574 . S
C777 C796 1.368 . S
C777 H801 0.949 . S
H778 C782 0.949 . S
C779 C780 1.349 . S
C779 C781 1.327 . S
C779 H802 0.950 . S
C780 C779 1.349 . S
C780 C792 1.349 . S
C781 C779 1.327 . S
C781 C797 1.429 . S
C781 H803 0.950 . S
C782 H778 0.949 . S
C782 C790 1.574 . S
C782 C798 1.368 . S
H783 C791 0.950 . S
H784 C789 0.950 . S
H785 C790 0.949 . S
H786 C792 0.950 . S
H787 C793 0.950 . S
H788 C794 0.949 . S
C789 H784 0.950 . S
C789 C791 1.327 . S
C789 C795 1.429 . S
C790 C782 1.574 . S
C790 H785 0.949 . S
C790 C796 1.368 . S
C791 C775 1.349 . S
C791 H783 0.950 . S
C791 C789 1.327 . S
C792 C780 1.349 . S
C792 H786 0.950 . S
C792 C793 1.327 . S
C793 H787 0.950 . S
C793 C792 1.327 . S
C793 C797 1.429 . S
C794 C777 1.574 . S
C794 H788 0.949 . S
C794 C798 1.368 . S
C795 C776 1.429 . S
C795 C789 1.429 . S
C795 C796 1.523 . S
C796 C777 1.368 . S
C796 C790 1.368 . S
C796 C795 1.523 . S
C797 C781 1.429 . S
C797 C793 1.429 . S
C797 C798 1.523 . S
C798 C782 1.368 . S
C798 C794 1.368 . S
C798 C797 1.523 . S
H799 C774 0.950 . S
H800 C776 0.950 . S
H801 C777 0.949 . S
H802 C779 0.950 . S
H803 C781 0.950 . S
C804 C805 1.349 . S
C804 C806 1.327 . S
C804 H829 0.950 . S
C805 C804 1.349 . S
C805 C821 1.349 . S
C806 C804 1.327 . S
C806 C825 1.429 . S
C806 H830 0.950 . S
C807 C824 1.574 . S
C807 C826 1.368 . S
C807 H831 0.949 . S
H808 C812 0.949 . S
C809 C810 1.349 . S
C809 C811 1.327 . S
C809 H832 0.950 . S
C810 C809 1.349 . S
C810 C822 1.349 . S
C811 C809 1.327 . S
C811 C827 1.429 . S
C811 H833 0.950 . S
C812 H808 0.949 . S
C812 C820 1.574 . S
C812 C828 1.368 . S
H813 C821 0.950 . S
H814 C819 0.950 . S
H815 C820 0.949 . S
H816 C822 0.950 . S
H817 C823 0.950 . S
H818 C824 0.949 . S
C819 H814 0.950 . S
C819 C821 1.327 . S
C819 C825 1.429 . S
C820 C812 1.574 . S
C820 H815 0.949 . S
C820 C826 1.368 . S
C821 C805 1.349 . S
C821 H813 0.950 . S
C821 C819 1.327 . S
C822 C810 1.349 . S
C822 H816 0.950 . S
C822 C823 1.327 . S
C823 H817 0.950 . S
C823 C822 1.327 . S
C823 C827 1.429 . S
C824 C807 1.574 . S
C824 H818 0.949 . S
C824 C828 1.368 . S
C825 C806 1.429 . S
C825 C819 1.429 . S
C825 C826 1.523 . S
C826 C807 1.368 . S
C826 C820 1.368 . S
C826 C825 1.523 . S
C827 C811 1.429 . S
C827 C823 1.429 . S
C827 C828 1.523 . S
C828 C812 1.368 . S
C828 C824 1.368 . S
C828 C827 1.523 . S
H829 C804 0.950 . S
H830 C806 0.950 . S
H831 C807 0.949 . S
H832 C809 0.950 . S
H833 C811 0.950 . S
C834 C835 1.349 . S
C834 C836 1.327 . S
C834 H859 0.950 . S
C835 C834 1.349 . S
C835 C851 1.349 . S
C836 C834 1.327 . S
C836 C855 1.429 . S
C836 H860 0.950 . S
C837 C854 1.574 . S
C837 C856 1.368 . S
C837 H861 0.949 . S
H838 C842 0.949 . S
C839 C840 1.349 . S
C839 C841 1.327 . S
C839 H862 0.950 . S
C840 C839 1.349 . S
C840 C852 1.349 . S
C841 C839 1.327 . S
C841 C857 1.429 . S
C841 H863 0.950 . S
C842 H838 0.949 . S
C842 C850 1.574 . S
C842 C858 1.368 . S
H843 C851 0.950 . S
H844 C849 0.950 . S
H845 C850 0.949 . S
H846 C852 0.950 . S
H847 C853 0.950 . S
H848 C854 0.949 . S
C849 H844 0.950 . S
C849 C851 1.327 . S
C849 C855 1.429 . S
C850 C842 1.574 . S
C850 H845 0.949 . S
C850 C856 1.368 . S
C851 C835 1.349 . S
C851 H843 0.950 . S
C851 C849 1.327 . S
C852 C840 1.349 . S
C852 H846 0.950 . S
C852 C853 1.327 . S
C853 H847 0.950 . S
C853 C852 1.327 . S
C853 C857 1.429 . S
C854 C837 1.574 . S
C854 H848 0.949 . S
C854 C858 1.368 . S
C855 C836 1.429 . S
C855 C849 1.429 . S
C855 C856 1.523 . S
C856 C837 1.368 . S
C856 C850 1.368 . S
C856 C855 1.523 . S
C857 C841 1.429 . S
C857 C853 1.429 . S
C857 C858 1.523 . S
C858 C842 1.368 . S
C858 C854 1.368 . S
C858 C857 1.523 . S
H859 C834 0.950 . S
H860 C836 0.950 . S
H861 C837 0.949 . S
H862 C839 0.950 . S
H863 C841 0.950 . S
C864 C865 1.349 . S
C864 C866 1.327 . S
C864 H889 0.950 . S
C865 C864 1.349 . S
C865 C881 1.349 . S
C866 C864 1.327 . S
C866 C885 1.429 . S
C866 H890 0.950 . S
C867 C884 1.574 . S
C867 C886 1.368 . S
C867 H891 0.949 . S
H868 C872 0.949 . S
C869 C870 1.349 . S
C869 C871 1.327 . S
C869 H892 0.950 . S
C870 C869 1.349 . S
C870 C882 1.349 . S
C871 C869 1.327 . S
C871 C887 1.429 . S
C871 H893 0.950 . S
C872 H868 0.949 . S
C872 C880 1.574 . S
C872 C888 1.368 . S
H873 C881 0.950 . S
H874 C879 0.950 . S
H875 C880 0.949 . S
H876 C882 0.950 . S
H877 C883 0.950 . S
H878 C884 0.949 . S
C879 H874 0.950 . S
C879 C881 1.327 . S
C879 C885 1.429 . S
C880 C872 1.574 . S
C880 H875 0.949 . S
C880 C886 1.368 . S
C881 C865 1.349 . S
C881 H873 0.950 . S
C881 C879 1.327 . S
C882 C870 1.349 . S
C882 H876 0.950 . S
C882 C883 1.327 . S
C883 H877 0.950 . S
C883 C882 1.327 . S
C883 C887 1.429 . S
C884 C867 1.574 . S
C884 H878 0.949 . S
C884 C888 1.368 . S
C885 C866 1.429 . S
C885 C879 1.429 . S
C885 C886 1.523 . S
C886 C867 1.368 . S
C886 C880 1.368 . S
C886 C885 1.523 . S
C887 C871 1.429 . S
C887 C883 1.429 . S
C887 C888 1.523 . S
C888 C872 1.368 . S
C888 C884 1.368 . S
C888 C887 1.523 . S
H889 C864 0.950 . S
H890 C866 0.950 . S
H891 C867 0.949 . S
H892 C869 0.950 . S
H893 C871 0.950 . S
C894 C895 1.349 . S
C894 C896 1.327 . S
C894 H919 0.950 . S
C895 C894 1.349 . S
C895 C911 1.349 . S
C896 C894 1.327 . S
C896 C915 1.429 . S
C896 H920 0.950 . S
C897 C914 1.574 . S
C897 C916 1.368 . S
C897 H921 0.949 . S
H898 C902 0.949 . S
C899 C900 1.349 . S
C899 C901 1.327 . S
C899 H922 0.950 . S
C900 C899 1.349 . S
C900 C912 1.349 . S
C901 C899 1.327 . S
C901 C917 1.429 . S
C901 H923 0.950 . S
C902 H898 0.949 . S
C902 C910 1.574 . S
C902 C918 1.368 . S
H903 C911 0.950 . S
H904 C909 0.950 . S
H905 C910 0.949 . S
H906 C912 0.950 . S
H907 C913 0.950 . S
H908 C914 0.949 . S
C909 H904 0.950 . S
C909 C911 1.327 . S
C909 C915 1.429 . S
C910 C902 1.574 . S
C910 H905 0.949 . S
C910 C916 1.368 . S
C911 C895 1.349 . S
C911 H903 0.950 . S
C911 C909 1.327 . S
C912 C900 1.349 . S
C912 H906 0.950 . S
C912 C913 1.327 . S
C913 H907 0.950 . S
C913 C912 1.327 . S
C913 C917 1.429 . S
C914 C897 1.574 . S
C914 H908 0.949 . S
C914 C918 1.368 . S
C915 C896 1.429 . S
C915 C909 1.429 . S
C915 C916 1.523 . S
C916 C897 1.368 . S
C916 C910 1.368 . S
C916 C915 1.523 . S
C917 C901 1.429 . S
C917 C913 1.429 . S
C917 C918 1.523 . S
C918 C902 1.368 . S
C918 C914 1.368 . S
C918 C917 1.523 . S
H919 C894 0.950 . S
H920 C896 0.950 . S
H921 C897 0.949 . S
H922 C899 0.950 . S
H923 C901 0.950 . S
C924 C925 1.349 . S
C924 C926 1.327 . S
C924 H949 0.950 . S
C925 C924 1.349 . S
C925 C941 1.349 . S
C926 C924 1.327 . S
C926 C945 1.429 . S
C926 H950 0.950 . S
C927 C944 1.574 . S
C927 C946 1.368 . S
C927 H951 0.949 . S
H928 C932 0.949 . S
C929 C930 1.349 . S
C929 C931 1.327 . S
C929 H952 0.950 . S
C930 C929 1.349 . S
C930 C942 1.349 . S
C931 C929 1.327 . S
C931 C947 1.429 . S
C931 H953 0.950 . S
C932 H928 0.949 . S
C932 C940 1.574 . S
C932 C948 1.368 . S
H933 C941 0.950 . S
H934 C939 0.950 . S
H935 C940 0.949 . S
H936 C942 0.950 . S
H937 C943 0.950 . S
H938 C944 0.949 . S
C939 H934 0.950 . S
C939 C941 1.327 . S
C939 C945 1.429 . S
C940 C932 1.574 . S
C940 H935 0.949 . S
C940 C946 1.368 . S
C941 C925 1.349 . S
C941 H933 0.950 . S
C941 C939 1.327 . S
C942 C930 1.349 . S
C942 H936 0.950 . S
C942 C943 1.327 . S
C943 H937 0.950 . S
C943 C942 1.327 . S
C943 C947 1.429 . S
C944 C927 1.574 . S
C944 H938 0.949 . S
C944 C948 1.368 . S
C945 C926 1.429 . S
C945 C939 1.429 . S
C945 C946 1.523 . S
C946 C927 1.368 . S
C946 C940 1.368 . S
C946 C945 1.523 . S
C947 C931 1.429 . S
C947 C943 1.429 . S
C947 C948 1.523 . S
C948 C932 1.368 . S
C948 C944 1.368 . S
C948 C947 1.523 . S
H949 C924 0.950 . S
H950 C926 0.950 . S
H951 C927 0.949 . S
H952 C929 0.950 . S
H953 C931 0.950 . S
C954 C955 1.349 . S
C954 C956 1.327 . S
C954 H979 0.950 . S
C955 C954 1.349 . S
C955 C971 1.349 . S
C956 C954 1.327 . S
C956 C975 1.429 . S
C956 H980 0.950 . S
C957 C974 1.574 . S
C957 C976 1.368 . S
C957 H981 0.949 . S
H958 C962 0.949 . S
C959 C960 1.349 . S
C959 C961 1.327 . S
C959 H982 0.950 . S
C960 C959 1.349 . S
C960 C972 1.349 . S
C961 C959 1.327 . S
C961 C977 1.429 . S
C961 H983 0.950 . S
C962 H958 0.949 . S
C962 C970 1.574 . S
C962 C978 1.368 . S
H963 C971 0.950 . S
H964 C969 0.950 . S
H965 C970 0.949 . S
H966 C972 0.950 . S
H967 C973 0.950 . S
H968 C974 0.949 . S
C969 H964 0.950 . S
C969 C971 1.327 . S
C969 C975 1.429 . S
C970 C962 1.574 . S
C970 H965 0.949 . S
C970 C976 1.368 . S
C971 C955 1.349 . S
C971 H963 0.950 . S
C971 C969 1.327 . S
C972 C960 1.349 . S
C972 H966 0.950 . S
C972 C973 1.327 . S
C973 H967 0.950 . S
C973 C972 1.327 . S
C973 C977 1.429 . S
C974 C957 1.574 . S
C974 H968 0.949 . S
C974 C978 1.368 . S
C975 C956 1.429 . S
C975 C969 1.429 . S
C975 C976 1.523 . S
C976 C957 1.368 . S
C976 C970 1.368 . S
C976 C975 1.523 . S
C977 C961 1.429 . S
C977 C973 1.429 . S
C977 C978 1.523 . S
C978 C962 1.368 . S
C978 C974 1.368 . S
C978 C977 1.523 . S
H979 C954 0.950 . S
H980 C956 0.950 . S
H981 C957 0.949 . S
H982 C959 0.950 . S
H983 C961 0.950 . S
C984 C985 1.349 . S
C984 C986 1.327 . S
C984 H1009 0.950 . S
C985 C984 1.349 . S
C985 C1001 1.349 . S
C986 C984 1.327 . S
C986 C1005 1.429 . S
C986 H1010 0.950 . S
C987 C1004 1.574 . S
C987 C1006 1.368 . S
C987 H1011 0.949 . S
H988 C992 0.949 . S
C989 C990 1.349 . S
C989 C991 1.327 . S
C989 H1012 0.950 . S
C990 C989 1.349 . S
C990 C1002 1.349 . S
C991 C989 1.327 . S
C991 C1007 1.429 . S
C991 H1013 0.950 . S
C992 H988 0.949 . S
C992 C1000 1.574 . S
C992 C1008 1.368 . S
H993 C1001 0.950 . S
H994 C999 0.950 . S
H995 C1000 0.949 . S
H996 C1002 0.950 . S
H997 C1003 0.950 . S
H998 C1004 0.949 . S
C999 H994 0.950 . S
C999 C1001 1.327 . S
C999 C1005 1.429 . S
C1000 C992 1.574 . S
C1000 H995 0.949 . S
C1000 C1006 1.368 . S
C1001 C985 1.349 . S
C1001 H993 0.950 . S
C1001 C999 1.327 . S
C1002 C990 1.349 . S
C1002 H996 0.950 . S
C1002 C1003 1.327 . S
C1003 H997 0.950 . S
C1003 C1002 1.327 . S
C1003 C1007 1.429 . S
C1004 C987 1.574 . S
C1004 H998 0.949 . S
C1004 C1008 1.368 . S
C1005 C986 1.429 . S
C1005 C999 1.429 . S
C1005 C1006 1.523 . S
C1006 C987 1.368 . S
C1006 C1000 1.368 . S
C1006 C1005 1.523 . S
C1007 C991 1.429 . S
C1007 C1003 1.429 . S
C1007 C1008 1.523 . S
C1008 C992 1.368 . S
C1008 C1004 1.368 . S
C1008 C1007 1.523 . S
H1009 C984 0.950 . S
H1010 C986 0.950 . S
H1011 C987 0.949 . S
H1012 C989 0.950 . S
H1013 C991 0.950 . S
C1014 C1015 1.349 . S
C1014 C1016 1.327 . S
C1014 H1039 0.950 . S
C1015 C1014 1.349 . S
C1015 C1031 1.349 . S
C1016 C1014 1.327 . S
C1016 C1035 1.429 . S
C1016 H1040 0.950 . S
C1017 C1034 1.574 . S
C1017 C1036 1.368 . S
C1017 H1041 0.949 . S
H1018 C1022 0.949 . S
C1019 C1020 1.349 . S
C1019 C1021 1.327 . S
C1019 H1042 0.950 . S
C1020 C1019 1.349 . S
C1020 C1032 1.349 . S
C1021 C1019 1.327 . S
C1021 C1037 1.429 . S
C1021 H1043 0.950 . S
C1022 H1018 0.949 . S
C1022 C1030 1.574 . S
C1022 C1038 1.368 . S
H1023 C1031 0.950 . S
H1024 C1029 0.950 . S
H1025 C1030 0.949 . S
H1026 C1032 0.950 . S
H1027 C1033 0.950 . S
H1028 C1034 0.949 . S
C1029 H1024 0.950 . S
C1029 C1031 1.327 . S
C1029 C1035 1.429 . S
C1030 C1022 1.574 . S
C1030 H1025 0.949 . S
C1030 C1036 1.368 . S
C1031 C1015 1.349 . S
C1031 H1023 0.950 . S
C1031 C1029 1.327 . S
C1032 C1020 1.349 . S
C1032 H1026 0.950 . S
C1032 C1033 1.327 . S
C1033 H1027 0.950 . S
C1033 C1032 1.327 . S
C1033 C1037 1.429 . S
C1034 C1017 1.574 . S
C1034 H1028 0.949 . S
C1034 C1038 1.368 . S
C1035 C1016 1.429 . S
C1035 C1029 1.429 . S
C1035 C1036 1.523 . S
C1036 C1017 1.368 . S
C1036 C1030 1.368 . S
C1036 C1035 1.523 . S
C1037 C1021 1.429 . S
C1037 C1033 1.429 . S
C1037 C1038 1.523 . S
C1038 C1022 1.368 . S
C1038 C1034 1.368 . S
C1038 C1037 1.523 . S
H1039 C1014 0.950 . S
H1040 C1016 0.950 . S
H1041 C1017 0.949 . S
H1042 C1019 0.950 . S
H1043 C1021 0.950 . S
C1044 C1045 1.349 . S
C1044 C1046 1.327 . S
C1044 H1069 0.950 . S
C1045 C1044 1.349 . S
C1045 C1061 1.349 . S
C1046 C1044 1.327 . S
C1046 C1065 1.429 . S
C1046 H1070 0.950 . S
C1047 C1064 1.574 . S
C1047 C1066 1.368 . S
C1047 H1071 0.949 . S
H1048 C1052 0.949 . S
C1049 C1050 1.349 . S
C1049 C1051 1.327 . S
C1049 H1072 0.950 . S
C1050 C1049 1.349 . S
C1050 C1062 1.349 . S
C1051 C1049 1.327 . S
C1051 C1067 1.429 . S
C1051 H1073 0.950 . S
C1052 H1048 0.949 . S
C1052 C1060 1.574 . S
C1052 C1068 1.368 . S
H1053 C1061 0.950 . S
H1054 C1059 0.950 . S
H1055 C1060 0.949 . S
H1056 C1062 0.950 . S
H1057 C1063 0.950 . S
H1058 C1064 0.949 . S
C1059 H1054 0.950 . S
C1059 C1061 1.327 . S
C1059 C1065 1.429 . S
C1060 C1052 1.574 . S
C1060 H1055 0.949 . S
C1060 C1066 1.368 . S
C1061 C1045 1.349 . S
C1061 H1053 0.950 . S
C1061 C1059 1.327 . S
C1062 C1050 1.349 . S
C1062 H1056 0.950 . S
C1062 C1063 1.327 . S
C1063 H1057 0.950 . S
C1063 C1062 1.327 . S
C1063 C1067 1.429 . S
C1064 C1047 1.574 . S
C1064 H1058 0.949 . S
C1064 C1068 1.368 . S
C1065 C1046 1.429 . S
C1065 C1059 1.429 . S
C1065 C1066 1.523 . S
C1066 C1047 1.368 . S
C1066 C1060 1.368 . S
C1066 C1065 1.523 . S
C1067 C1051 1.429 . S
C1067 C1063 1.429 . S
C1067 C1068 1.523 . S
C1068 C1052 1.368 . S
C1068 C1064 1.368 . S
C1068 C1067 1.523 . S
H1069 C1044 0.950 . S
H1070 C1046 0.950 . S
H1071 C1047 0.949 . S
H1072 C1049 0.950 . S
H1073 C1051 0.950 . S
C1074 C1075 1.349 . S
C1074 C1076 1.327 . S
C1074 H1099 0.950 . S
C1075 C1074 1.349 . S
C1075 C1091 1.349 . S
C1076 C1074 1.327 . S
C1076 C1095 1.429 . S
C1076 H1100 0.950 . S
C1077 C1094 1.574 . S
C1077 C1096 1.368 . S
C1077 H1101 0.949 . S
H1078 C1082 0.949 . S
C1079 C1080 1.349 . S
C1079 C1081 1.327 . S
C1079 H1102 0.950 . S
C1080 C1079 1.349 . S
C1080 C1092 1.349 . S
C1081 C1079 1.327 . S
C1081 C1097 1.429 . S
C1081 H1103 0.950 . S
C1082 H1078 0.949 . S
C1082 C1090 1.574 . S
C1082 C1098 1.368 . S
H1083 C1091 0.950 . S
H1084 C1089 0.950 . S
H1085 C1090 0.949 . S
H1086 C1092 0.950 . S
H1087 C1093 0.950 . S
H1088 C1094 0.949 . S
C1089 H1084 0.950 . S
C1089 C1091 1.327 . S
C1089 C1095 1.429 . S
C1090 C1082 1.574 . S
C1090 H1085 0.949 . S
C1090 C1096 1.368 . S
C1091 C1075 1.349 . S
C1091 H1083 0.950 . S
C1091 C1089 1.327 . S
C1092 C1080 1.349 . S
C1092 H1086 0.950 . S
C1092 C1093 1.327 . S
C1093 H1087 0.950 . S
C1093 C1092 1.327 . S
C1093 C1097 1.429 . S
C1094 C1077 1.574 . S
C1094 H1088 0.949 . S
C1094 C1098 1.368 . S
C1095 C1076 1.429 . S
C1095 C1089 1.429 . S
C1095 C1096 1.523 . S
C1096 C1077 1.368 . S
C1096 C1090 1.368 . S
C1096 C1095 1.523 . S
C1097 C1081 1.429 . S
C1097 C1093 1.429 . S
C1097 C1098 1.523 . S
C1098 C1082 1.368 . S
C1098 C1094 1.368 . S
C1098 C1097 1.523 . S
H1099 C1074 0.950 . S
H1100 C1076 0.950 . S
H1101 C1077 0.949 . S
H1102 C1079 0.950 . S
H1103 C1081 0.950 . S
C1104 C1105 1.349 . S
C1104 C1106 1.327 . S
C1104 H1129 0.950 . S
C1105 C1104 1.349 . S
C1105 C1121 1.349 . S
C1106 C1104 1.327 . S
C1106 C1125 1.429 . S
C1106 H1130 0.950 . S
C1107 C1124 1.574 . S
C1107 C1126 1.368 . S
C1107 H1131 0.949 . S
H1108 C1112 0.949 . S
C1109 C1110 1.349 . S
C1109 C1111 1.327 . S
C1109 H1132 0.950 . S
C1110 C1109 1.349 . S
C1110 C1122 1.349 . S
C1111 C1109 1.327 . S
C1111 C1127 1.429 . S
C1111 H1133 0.950 . S
C1112 H1108 0.949 . S
C1112 C1120 1.574 . S
C1112 C1128 1.368 . S
H1113 C1121 0.950 . S
H1114 C1119 0.950 . S
H1115 C1120 0.949 . S
H1116 C1122 0.950 . S
H1117 C1123 0.950 . S
H1118 C1124 0.949 . S
C1119 H1114 0.950 . S
C1119 C1121 1.327 . S
C1119 C1125 1.429 . S
C1120 C1112 1.574 . S
C1120 H1115 0.949 . S
C1120 C1126 1.368 . S
C1121 C1105 1.349 . S
C1121 H1113 0.950 . S
C1121 C1119 1.327 . S
C1122 C1110 1.349 . S
C1122 H1116 0.950 . S
C1122 C1123 1.327 . S
C1123 H1117 0.950 . S
C1123 C1122 1.327 . S
C1123 C1127 1.429 . S
C1124 C1107 1.574 . S
C1124 H1118 0.949 . S
C1124 C1128 1.368 . S
C1125 C1106 1.429 . S
C1125 C1119 1.429 . S
C1125 C1126 1.523 . S
C1126 C1107 1.368 . S
C1126 C1120 1.368 . S
C1126 C1125 1.523 . S
C1127 C1111 1.429 . S
C1127 C1123 1.429 . S
C1127 C1128 1.523 . S
C1128 C1112 1.368 . S
C1128 C1124 1.368 . S
C1128 C1127 1.523 . S
H1129 C1104 0.950 . S
H1130 C1106 0.950 . S
H1131 C1107 0.949 . S
H1132 C1109 0.950 . S
H1133 C1111 0.950 . S
C1134 C1135 1.349 . S
C1134 C1136 1.327 . S
C1134 H1159 0.950 . S
C1135 C1134 1.349 . S
C1135 C1151 1.349 . S
C1136 C1134 1.327 . S
C1136 C1155 1.429 . S
C1136 H1160 0.950 . S
C1137 C1154 1.574 . S
C1137 C1156 1.368 . S
C1137 H1161 0.949 . S
H1138 C1142 0.949 . S
C1139 C1140 1.349 . S
C1139 C1141 1.327 . S
C1139 H1162 0.950 . S
C1140 C1139 1.349 . S
C1140 C1152 1.349 . S
C1141 C1139 1.327 . S
C1141 C1157 1.429 . S
C1141 H1163 0.950 . S
C1142 H1138 0.949 . S
C1142 C1150 1.574 . S
C1142 C1158 1.368 . S
H1143 C1151 0.950 . S
H1144 C1149 0.950 . S
H1145 C1150 0.949 . S
H1146 C1152 0.950 . S
H1147 C1153 0.950 . S
H1148 C1154 0.949 . S
C1149 H1144 0.950 . S
C1149 C1151 1.327 . S
C1149 C1155 1.429 . S
C1150 C1142 1.574 . S
C1150 H1145 0.949 . S
C1150 C1156 1.368 . S
C1151 C1135 1.349 . S
C1151 H1143 0.950 . S
C1151 C1149 1.327 . S
C1152 C1140 1.349 . S
C1152 H1146 0.950 . S
C1152 C1153 1.327 . S
C1153 H1147 0.950 . S
C1153 C1152 1.327 . S
C1153 C1157 1.429 . S
C1154 C1137 1.574 . S
C1154 H1148 0.949 . S
C1154 C1158 1.368 . S
C1155 C1136 1.429 . S
C1155 C1149 1.429 . S
C1155 C1156 1.523 . S
C1156 C1137 1.368 . S
C1156 C1150 1.368 . S
C1156 C1155 1.523 . S
C1157 C1141 1.429 . S
C1157 C1153 1.429 . S
C1157 C1158 1.523 . S
C1158 C1142 1.368 . S
C1158 C1154 1.368 . S
C1158 C1157 1.523 . S
H1159 C1134 0.950 . S
H1160 C1136 0.950 . S
H1161 C1137 0.949 . S
H1162 C1139 0.950 . S
H1163 C1141 0.950 . S
C1164 C1165 1.349 . S
C1164 C1166 1.327 . S
C1164 H1189 0.950 . S
C1165 C1164 1.349 . S
C1165 C1181 1.349 . S
C1166 C1164 1.327 . S
C1166 C1185 1.429 . S
C1166 H1190 0.950 . S
C1167 C1184 1.574 . S
C1167 C1186 1.368 . S
C1167 H1191 0.949 . S
H1168 C1172 0.949 . S
C1169 C1170 1.349 . S
C1169 C1171 1.327 . S
C1169 H1192 0.950 . S
C1170 C1169 1.349 . S
C1170 C1182 1.349 . S
C1171 C1169 1.327 . S
C1171 C1187 1.429 . S
C1171 H1193 0.950 . S
C1172 H1168 0.949 . S
C1172 C1180 1.574 . S
C1172 C1188 1.368 . S
H1173 C1181 0.950 . S
H1174 C1179 0.950 . S
H1175 C1180 0.949 . S
H1176 C1182 0.950 . S
H1177 C1183 0.950 . S
H1178 C1184 0.949 . S
C1179 H1174 0.950 . S
C1179 C1181 1.327 . S
C1179 C1185 1.429 . S
C1180 C1172 1.574 . S
C1180 H1175 0.949 . S
C1180 C1186 1.368 . S
C1181 C1165 1.349 . S
C1181 H1173 0.950 . S
C1181 C1179 1.327 . S
C1182 C1170 1.349 . S
C1182 H1176 0.950 . S
C1182 C1183 1.327 . S
C1183 H1177 0.950 . S
C1183 C1182 1.327 . S
C1183 C1187 1.429 . S
C1184 C1167 1.574 . S
C1184 H1178 0.949 . S
C1184 C1188 1.368 . S
C1185 C1166 1.429 . S
C1185 C1179 1.429 . S
C1185 C1186 1.523 . S
C1186 C1167 1.368 . S
C1186 C1180 1.368 . S
C1186 C1185 1.523 . S
C1187 C1171 1.429 . S
C1187 C1183 1.429 . S
C1187 C1188 1.523 . S
C1188 C1172 1.368 . S
C1188 C1184 1.368 . S
C1188 C1187 1.523 . S
H1189 C1164 0.950 . S
H1190 C1166 0.950 . S
H1191 C1167 0.949 . S
H1192 C1169 0.950 . S
H1193 C1171 0.950 . S
C1194 C1195 1.349 . S
C1194 C1196 1.327 . S
C1194 H1219 0.950 . S
C1195 C1194 1.349 . S
C1195 C1211 1.349 . S
C1196 C1194 1.327 . S
C1196 C1215 1.429 . S
C1196 H1220 0.950 . S
C1197 C1214 1.574 . S
C1197 C1216 1.368 . S
C1197 H1221 0.949 . S
H1198 C1202 0.949 . S
C1199 C1200 1.349 . S
C1199 C1201 1.327 . S
C1199 H1222 0.950 . S
C1200 C1199 1.349 . S
C1200 C1212 1.349 . S
C1201 C1199 1.327 . S
C1201 C1217 1.429 . S
C1201 H1223 0.950 . S
C1202 H1198 0.949 . S
C1202 C1210 1.574 . S
C1202 C1218 1.368 . S
H1203 C1211 0.950 . S
H1204 C1209 0.950 . S
H1205 C1210 0.949 . S
H1206 C1212 0.950 . S
H1207 C1213 0.950 . S
H1208 C1214 0.949 . S
C1209 H1204 0.950 . S
C1209 C1211 1.327 . S
C1209 C1215 1.429 . S
C1210 C1202 1.574 . S
C1210 H1205 0.949 . S
C1210 C1216 1.368 . S
C1211 C1195 1.349 . S
C1211 H1203 0.950 . S
C1211 C1209 1.327 . S
C1212 C1200 1.349 . S
C1212 H1206 0.950 . S
C1212 C1213 1.327 . S
C1213 H1207 0.950 . S
C1213 C1212 1.327 . S
C1213 C1217 1.429 . S
C1214 C1197 1.574 . S
C1214 H1208 0.949 . S
C1214 C1218 1.368 . S
C1215 C1196 1.429 . S
C1215 C1209 1.429 . S
C1215 C1216 1.523 . S
C1216 C1197 1.368 . S
C1216 C1210 1.368 . S
C1216 C1215 1.523 . S
C1217 C1201 1.429 . S
C1217 C1213 1.429 . S
C1217 C1218 1.523 . S
C1218 C1202 1.368 . S
C1218 C1214 1.368 . S
C1218 C1217 1.523 . S
H1219 C1194 0.950 . S
H1220 C1196 0.950 . S
H1221 C1197 0.949 . S
H1222 C1199 0.950 . S
H1223 C1201 0.950 . S
C1224 C1225 1.349 . S
C1224 C1226 1.327 . S
C1224 H1249 0.950 . S
C1225 C1224 1.349 . S
C1225 C1241 1.349 . S
C1226 C1224 1.327 . S
C1226 C1245 1.429 . S
C1226 H1250 0.950 . S
C1227 C1244 1.574 . S
C1227 C1246 1.368 . S
C1227 H1251 0.949 . S
H1228 C1232 0.949 . S
C1229 C1230 1.349 . S
C1229 C1231 1.327 . S
C1229 H1252 0.950 . S
C1230 C1229 1.349 . S
C1230 C1242 1.349 . S
C1231 C1229 1.327 . S
C1231 C1247 1.429 . S
C1231 H1253 0.950 . S
C1232 H1228 0.949 . S
C1232 C1240 1.574 . S
C1232 C1248 1.368 . S
H1233 C1241 0.950 . S
H1234 C1239 0.950 . S
H1235 C1240 0.949 . S
H1236 C1242 0.950 . S
H1237 C1243 0.950 . S
H1238 C1244 0.949 . S
C1239 H1234 0.950 . S
C1239 C1241 1.327 . S
C1239 C1245 1.429 . S
C1240 C1232 1.574 . S
C1240 H1235 0.949 . S
C1240 C1246 1.368 . S
C1241 C1225 1.349 . S
C1241 H1233 0.950 . S
C1241 C1239 1.327 . S
C1242 C1230 1.349 . S
C1242 H1236 0.950 . S
C1242 C1243 1.327 . S
C1243 H1237 0.950 . S
C1243 C1242 1.327 . S
C1243 C1247 1.429 . S
C1244 C1227 1.574 . S
C1244 H1238 0.949 . S
C1244 C1248 1.368 . S
C1245 C1226 1.429 . S
C1245 C1239 1.429 . S
C1245 C1246 1.523 . S
C1246 C1227 1.368 . S
C1246 C1240 1.368 . S
C1246 C1245 1.523 . S
C1247 C1231 1.429 . S
C1247 C1243 1.429 . S
C1247 C1248 1.523 . S
C1248 C1232 1.368 . S
C1248 C1244 1.368 . S
C1248 C1247 1.523 . S
H1249 C1224 0.950 . S
H1250 C1226 0.950 . S
H1251 C1227 0.949 . S
H1252 C1229 0.950 . S
H1253 C1231 0.950 . S
C1254 C1255 1.349 . S
C1254 C1256 1.327 . S
C1254 H1279 0.950 . S
C1255 C1254 1.349 . S
C1255 C1271 1.349 . S
C1256 C1254 1.327 . S
C1256 C1275 1.429 . S
C1256 H1280 0.950 . S
C1257 C1274 1.574 . S
C1257 C1276 1.368 . S
C1257 H1281 0.949 . S
H1258 C1262 0.949 . S
C1259 C1260 1.349 . S
C1259 C1261 1.327 . S
C1259 H1282 0.950 . S
C1260 C1259 1.349 . S
C1260 C1272 1.349 . S
C1261 C1259 1.327 . S
C1261 C1277 1.429 . S
C1261 H1283 0.950 . S
C1262 H1258 0.949 . S
C1262 C1270 1.574 . S
C1262 C1278 1.368 . S
H1263 C1271 0.950 . S
H1264 C1269 0.950 . S
H1265 C1270 0.949 . S
H1266 C1272 0.950 . S
H1267 C1273 0.950 . S
H1268 C1274 0.949 . S
C1269 H1264 0.950 . S
C1269 C1271 1.327 . S
C1269 C1275 1.429 . S
C1270 C1262 1.574 . S
C1270 H1265 0.949 . S
C1270 C1276 1.368 . S
C1271 C1255 1.349 . S
C1271 H1263 0.950 . S
C1271 C1269 1.327 . S
C1272 C1260 1.349 . S
C1272 H1266 0.950 . S
C1272 C1273 1.327 . S
C1273 H1267 0.950 . S
C1273 C1272 1.327 . S
C1273 C1277 1.429 . S
C1274 C1257 1.574 . S
C1274 H1268 0.949 . S
C1274 C1278 1.368 . S
C1275 C1256 1.429 . S
C1275 C1269 1.429 . S
C1275 C1276 1.523 . S
C1276 C1257 1.368 . S
C1276 C1270 1.368 . S
C1276 C1275 1.523 . S
C1277 C1261 1.429 . S
C1277 C1273 1.429 . S
C1277 C1278 1.523 . S
C1278 C1262 1.368 . S
C1278 C1274 1.368 . S
C1278 C1277 1.523 . S
H1279 C1254 0.950 . S
H1280 C1256 0.950 . S
H1281 C1257 0.949 . S
H1282 C1259 0.950 . S
H1283 C1261 0.950 . S
C570 C492 1.507 . S
C565 C31 1.486 . S
C600 C495 1.507 . S
C595 C61 1.486 . S
C630 C493 1.507 . S
C625 C121 1.483 . S
C660 C494 1.507 . S
C655 C211 1.483 . S
C690 C509 1.505 . S
C685 C1 1.485 . S
C720 C523 1.508 . S
C715 C91 1.489 . S
C745 C151 1.478 . S
C750 C549 1.506 . S
C780 C563 1.508 . S
C775 C181 1.487 . S
C810 C508 1.505 . S
C805 C80 1.487 . S
C835 C140 1.485 . S
C840 C522 1.506 . S
C870 C548 1.505 . S
C865 C200 1.477 . S
C900 C562 1.508 . S
C895 C20 1.485 . S
C925 C271 1.489 . S
C930 C507 1.510 . S
C960 C480 1.507 . S
C955 C331 1.485 . S
C985 C380 1.487 . S
C990 C506 1.504 . S
C1015 C421 1.487 . S
C1020 C481 1.505 . S
C1050 C536 1.505 . S
C1045 C241 1.487 . S
C1080 C550 1.508 . S
C1075 C320 1.481 . S
C1110 C520 1.505 . S
C1105 C361 1.483 . S
C1135 C440 1.489 . S
C1140 C534 1.506 . S
C1170 C537 1.505 . S
C1165 C301 1.479 . S
C1200 C551 1.508 . S
C1195 C391 1.492 . S
C1230 C521 1.505 . S
C1225 C451 1.485 . S
C1255 C260 1.487 . S
C1260 C535 1.510 . S
