# Generated by pormake.
# Topology cml, (3,6)-cn, num edge types: 1
# Building blocks:
#     Node 0, Type 0, BuildingBlock: BETDAH_clean_linker_0, # of connection points: 3
#     Node 1, Type 0, BuildingBlock: BETDAH_clean_linker_0, # of connection points: 3
#     Node 2, Type 0, BuildingBlock: BETDAH_clean_linker_0, # of connection points: 3
#     Node 3, Type 0, BuildingBlock: BETDAH_clean_linker_0, # of connection points: 3
#     Node 4, Type 0, BuildingBlock: BETDAH_clean_linker_0, # of connection points: 3
#     Node 5, Type 0, BuildingBlock: BETDAH_clean_linker_0, # of connection points: 3
#     Node 6, Type 0, BuildingBlock: BETDAH_clean_linker_0, # of connection points: 3
#     Node 7, Type 0, BuildingBlock: BETDAH_clean_linker_0, # of connection points: 3
#     Node 8, Type 1, BuildingBlock: IZENUY_clean_sbu_0, # of connection points: 6
#     Node 9, Type 1, BuildingBlock: IZENUY_clean_sbu_0, # of connection points: 6
#     Node 10, Type 1, BuildingBlock: IZENUY_clean_sbu_0, # of connection points: 6
#     Node 11, Type 1, BuildingBlock: IZENUY_clean_sbu_0, # of connection points: 6
#     Edge 12, Type (0, 1), BuildingBlock: XUDNAN_clean_linker_2, # of connection points: 2
#     Edge 13, Type (0, 1), BuildingBlock: XUDNAN_clean_linker_2, # of connection points: 2
#     Edge 14, Type (0, 1), BuildingBlock: XUDNAN_clean_linker_2, # of connection points: 2
#     Edge 15, Type (0, 1), BuildingBlock: XUDNAN_clean_linker_2, # of connection points: 2
#     Edge 16, Type (0, 1), BuildingBlock: XUDNAN_clean_linker_2, # of connection points: 2
#     Edge 17, Type (0, 1), BuildingBlock: XUDNAN_clean_linker_2, # of connection points: 2
#     Edge 18, Type (0, 1), BuildingBlock: XUDNAN_clean_linker_2, # of connection points: 2
#     Edge 19, Type (0, 1), BuildingBlock: XUDNAN_clean_linker_2, # of connection points: 2
#     Edge 20, Type (0, 1), BuildingBlock: XUDNAN_clean_linker_2, # of connection points: 2
#     Edge 21, Type (0, 1), BuildingBlock: XUDNAN_clean_linker_2, # of connection points: 2
#     Edge 22, Type (0, 1), BuildingBlock: XUDNAN_clean_linker_2, # of connection points: 2
#     Edge 23, Type (0, 1), BuildingBlock: XUDNAN_clean_linker_2, # of connection points: 2
#     Edge 24, Type (0, 1), BuildingBlock: XUDNAN_clean_linker_2, # of connection points: 2
#     Edge 25, Type (0, 1), BuildingBlock: XUDNAN_clean_linker_2, # of connection points: 2
#     Edge 26, Type (0, 1), BuildingBlock: XUDNAN_clean_linker_2, # of connection points: 2
#     Edge 27, Type (0, 1), BuildingBlock: XUDNAN_clean_linker_2, # of connection points: 2
#     Edge 28, Type (0, 1), BuildingBlock: XUDNAN_clean_linker_2, # of connection points: 2
#     Edge 29, Type (0, 1), BuildingBlock: XUDNAN_clean_linker_2, # of connection points: 2
#     Edge 30, Type (0, 1), BuildingBlock: XUDNAN_clean_linker_2, # of connection points: 2
#     Edge 31, Type (0, 1), BuildingBlock: XUDNAN_clean_linker_2, # of connection points: 2
#     Edge 32, Type (0, 1), BuildingBlock: XUDNAN_clean_linker_2, # of connection points: 2
#     Edge 33, Type (0, 1), BuildingBlock: XUDNAN_clean_linker_2, # of connection points: 2
#     Edge 34, Type (0, 1), BuildingBlock: XUDNAN_clean_linker_2, # of connection points: 2
#     Edge 35, Type (0, 1), BuildingBlock: XUDNAN_clean_linker_2, # of connection points: 2
# Relax obj value: 0.003
# Max RMSD: 0.065
# Mean RMSD: 0.051
data_MOF--net-cml--node1-IZENUY_clean_sbu_0--node2-BETDAH_clean_linker_0--edge1-XUDNAN_clean_linker_2
_symmetry_space_group_name_H-M    P1
_symmetry_Int_Tables_number       1
_symmetry_cell_setting            triclinic
loop_
_symmetry_equiv_pos_as_xyz
'x, y, z'
_cell_length_a     36.99561
_cell_length_b     41.234415
_cell_length_c     36.11813
_cell_angle_alpha  89.372164
_cell_angle_beta   90.941399
_cell_angle_gamma 90.631179
loop_
_atom_site_label
_atom_site_type_symbol
_atom_site_fract_x
_atom_site_fract_y
_atom_site_fract_z
_atom_type_partial_charge
H0 H 0.35602 0.42983 0.06098 0.0
H1 H 0.29835 0.41694 0.95858 0.0
H2 H 0.29055 0.34354 0.0433 0.0
C3 C 0.33707 0.41568 0.04448 0.0
C4 C 0.32401 0.38542 0.05757 0.0
C5 C 0.32769 0.42729 0.00911 0.0
C6 C 0.30551 0.40832 0.98619 0.0
C7 C 0.29214 0.37832 0.99817 0.0
C8 C 0.301 0.36683 0.03408 0.0
N9 N 0.27111 0.36042 0.97218 0.0
C10 C 0.25005 0.33303 0.97897 0.0
H11 H 0.66058 0.58418 0.51827 0.0
H12 H 0.761 0.61024 0.46661 0.0
H13 H 0.72916 0.658 0.56598 0.0
C14 C 0.68496 0.59899 0.51759 0.0
C15 C 0.69114 0.62225 0.54509 0.0
C16 C 0.70986 0.59427 0.48926 0.0
C17 C 0.74136 0.61379 0.48807 0.0
C18 C 0.74842 0.63647 0.51631 0.0
C19 C 0.72348 0.64029 0.54466 0.0
N20 N 0.78166 0.65376 0.5191 0.0
C21 C 0.79825 0.67009 0.49001 0.0
H22 H 0.63947 0.39985 0.03217 0.0
H23 H 0.69947 0.39605 0.93137 0.0
H24 H 0.73118 0.33714 0.02543 0.0
C25 C 0.66099 0.38975 0.01601 0.0
C26 C 0.68409 0.36691 0.03275 0.0
C27 C 0.66614 0.40066 0.9795 0.0
C28 C 0.69518 0.38821 0.95971 0.0
C29 C 0.71849 0.36506 0.97569 0.0
C30 C 0.7131 0.35457 0.01255 0.0
N31 N 0.74709 0.35362 0.95356 0.0
C32 C 0.77006 0.32779 0.9615 0.0
H33 H 0.35824 0.58457 0.52781 0.0
H34 H 0.30878 0.67854 0.52099 0.0
H35 H 0.32734 0.62539 0.42175 0.0
C36 C 0.34631 0.60387 0.51123 0.0
C37 C 0.34376 0.60096 0.47252 0.0
C38 C 0.33414 0.63187 0.5288 0.0
C39 C 0.31797 0.65679 0.50762 0.0
C40 C 0.31497 0.65396 0.46893 0.0
C41 C 0.32856 0.62653 0.45171 0.0
N42 N 0.30094 0.67919 0.44612 0.0
C43 C 0.26969 0.69622 0.45345 0.0
H44 H 0.87056 0.90984 0.03141 0.0
H45 H 0.7797 0.90002 0.9557 0.0
H46 H 0.77309 0.86181 0.06627 0.0
C47 C 0.84363 0.9007 0.02498 0.0
C48 C 0.82415 0.88449 0.05272 0.0
C49 C 0.82772 0.90718 0.98998 0.0
C50 C 0.79285 0.89477 0.98208 0.0
C51 C 0.77345 0.87796 0.00947 0.0
C52 C 0.78885 0.87355 0.04482 0.0
N53 N 0.73671 0.86935 1.00348 0.0
C54 C 0.7258 0.84506 0.97929 0.0
H55 H 0.17016 0.09711 0.55224 0.0
H56 H 0.2208 0.12704 0.45115 0.0
H57 H 0.22538 0.18988 0.54447 0.0
C58 C 0.18638 0.11455 0.53706 0.0
C59 C 0.19642 0.14431 0.55358 0.0
C60 C 0.19582 0.10755 0.50043 0.0
C61 C 0.21517 0.13097 0.48011 0.0
C62 C 0.22633 0.16021 0.49599 0.0
C63 C 0.21741 0.16675 0.53283 0.0
N64 N 0.24093 0.18453 0.4723 0.0
C65 C 0.27398 0.20034 0.47771 0.0
H66 H 0.17043 0.92075 0.03998 0.0
H67 H 0.26417 0.91914 0.97075 0.0
H68 H 0.26602 0.86987 0.07581 0.0
C69 C 0.19791 0.91319 0.03526 0.0
C70 C 0.21571 0.89367 0.06188 0.0
C71 C 0.21511 0.92289 1.0024 0.0
C72 C 0.25016 0.91154 0.99554 0.0
C73 C 0.26822 0.89215 0.022 0.0
C74 C 0.25117 0.88378 0.0551 0.0
N75 N 0.305 0.884 0.01789 0.0
C76 C 0.31717 0.86424 0.9899 0.0
H77 H 0.86436 0.09373 0.55163 0.0
H78 H 0.76536 0.14637 0.5668 0.0
H79 H 0.77654 0.08362 0.47373 0.0
C80 C 0.83737 0.10057 0.54276 0.0
C81 C 0.8233 0.08719 0.51 0.0
C82 C 0.81691 0.12189 0.56406 0.0
C83 C 0.78171 0.12966 0.55155 0.0
C84 C 0.76708 0.11552 0.51935 0.0
C85 C 0.78774 0.09403 0.4989 0.0
N86 N 0.73105 0.12186 0.50803 0.0
C87 C 0.72105 0.15161 0.49292 0.0
Fe88 Fe 0.01803 0.83918 0.32517 0.0
Fe89 Fe 0.01136 0.87834 0.39729 0.0
O90 O 0.01701 0.87674 0.34861 0.0
Fe91 Fe 0.0217 0.9133 0.323 0.0
O92 O 0.98004 0.90493 0.29775 0.0
O93 O 0.9941 0.85478 0.2833 0.0
O94 O 0.97407 0.82728 0.34201 0.0
C95 C 0.96435 0.8264 0.37525 0.0
C96 C 0.06889 0.87184 0.28545 0.0
O97 O 0.98145 0.8423 0.39992 0.0
C98 C 0.06521 0.92652 0.38242 0.0
O99 O 0.04189 0.81736 0.363 0.0
O100 O 0.05118 0.8543 0.40586 0.0
O101 O 0.04889 0.89642 0.28603 0.0
O102 O 0.06227 0.84783 0.30612 0.0
C103 C 0.97174 0.93097 0.37789 0.0
O104 O 0.04094 0.91442 0.40312 0.0
O105 O 0.06349 0.92323 0.34765 0.0
C106 C 0.05862 0.82745 0.39168 0.0
O107 O 0.97086 0.90314 0.39275 0.0
O108 O 0.99561 0.93792 0.35444 0.0
C109 C 0.97428 0.8796 0.27912 0.0
Fe110 Fe 0.01287 0.12999 0.89947 0.0
Fe111 Fe 0.01578 0.10704 0.81857 0.0
O112 O 0.01357 0.13883 0.85127 0.0
Fe113 Fe 0.01182 0.17978 0.83576 0.0
O114 O 0.05379 0.18953 0.8602 0.0
O115 O 0.03819 0.16667 0.91295 0.0
O116 O 0.05592 0.10921 0.89815 0.0
C117 C 0.06298 0.08598 0.87701 0.0
C118 C 0.96325 0.17893 0.89568 0.0
O119 O 0.04414 0.08074 0.84803 0.0
C120 C 0.9658 0.15103 0.7859 0.0
O121 O 0.98783 0.09179 0.89471 0.0
O122 O 0.97444 0.08798 0.83538 0.0
O123 O 0.98436 0.19413 0.8742 0.0
O124 O 0.96944 0.1498 0.90453 0.0
C125 C 0.06035 0.15138 0.78508 0.0
O126 O 0.98782 0.12787 0.78335 0.0
O127 O 0.96971 0.17234 0.81048 0.0
C128 C 0.96895 0.07984 0.86863 0.0
O129 O 0.05728 0.12328 0.79891 0.0
O130 O 0.03881 0.17353 0.7941 0.0
C131 C 0.05902 0.18508 0.89453 0.0
Fe132 Fe 0.52316 0.32874 0.32351 0.0
Fe133 Fe 0.53243 0.37528 0.38934 0.0
O134 O 0.52697 0.36872 0.34103 0.0
Fe135 Fe 0.52556 0.40228 0.3101 0.0
O136 O 0.49486 0.38276 0.27625 0.0
O137 O 0.47929 0.33646 0.30244 0.0
O138 O 0.49872 0.31213 0.36403 0.0
C139 C 0.48187 0.32616 0.38962 0.0
C140 C 0.56823 0.36125 0.2717 0.0
O141 O 0.49027 0.35463 0.39905 0.0
C142 C 0.57882 0.4218 0.36324 0.0
O143 O 0.56689 0.3182 0.34294 0.0
O144 O 0.55874 0.33818 0.39835 0.0
O145 O 0.56549 0.3886 0.2866 0.0
O146 O 0.54672 0.33815 0.27979 0.0
C147 C 0.48385 0.42452 0.36585 0.0
O148 O 0.57511 0.39675 0.38325 0.0
O149 O 0.55583 0.42835 0.33796 0.0
C150 C 0.5762 0.32058 0.37649 0.0
O151 O 0.50683 0.41345 0.38906 0.0
O152 O 0.48567 0.4178 0.33194 0.0
C153 C 0.47326 0.35885 0.27922 0.0
Fe154 Fe 0.50426 0.64934 0.88579 0.0
Fe155 Fe 0.4937 0.60813 0.81646 0.0
O156 O 0.50176 0.64628 0.83699 0.0
Fe157 Fe 0.50722 0.68136 0.80874 0.0
O158 O 0.53954 0.7017 0.84067 0.0
O159 O 0.55012 0.66489 0.8839 0.0
O160 O 0.52345 0.60869 0.89325 0.0
C161 C 0.53962 0.58953 0.87202 0.0
C162 C 0.4654 0.70543 0.86361 0.0
O163 O 0.53464 0.59128 0.83739 0.0
C164 C 0.45096 0.64586 0.77188 0.0
O165 O 0.45859 0.6336 0.89091 0.0
O166 O 0.4659 0.59219 0.85421 0.0
O167 O 0.46884 0.70052 0.82948 0.0
O168 O 0.48495 0.69043 0.88722 0.0
C169 C 0.54375 0.63835 0.76761 0.0
O170 O 0.4523 0.62232 0.79448 0.0
O171 O 0.47577 0.66738 0.77179 0.0
C172 C 0.44883 0.60594 0.87968 0.0
O173 O 0.51962 0.61731 0.77471 0.0
O174 O 0.54588 0.66431 0.78569 0.0
C175 C 0.55953 0.69009 0.86632 0.0
H176 H 0.22137 0.31283 0.91514 0.0
H177 H 0.22043 0.29534 0.03355 0.0
H178 H 0.1724 0.25323 0.02467 0.0
H179 H 0.12727 0.3067 0.90012 0.0
H180 H 0.13021 0.2872 0.85587 0.0
H181 H 0.16615 0.3137 0.87154 0.0
H182 H 0.21247 0.26768 0.86359 0.0
H183 H 0.17668 0.24107 0.84765 0.0
H184 H 0.20505 0.22911 0.88637 0.0
H185 H 0.12245 0.21509 1.0022 0.0
H186 H 0.07497 0.184 0.96897 0.0
H187 H 0.10874 0.22775 0.86504 0.0
C188 C 0.21137 0.29967 0.93909 0.0
C189 C 0.22447 0.30671 0.97494 0.0
C190 C 0.21069 0.28975 0.00587 0.0
C191 C 0.18351 0.26595 1.00101 0.0
C192 C 0.17071 0.25974 0.9651 0.0
C193 C 0.18433 0.27609 0.93468 0.0
C194 C 0.16511 0.26611 0.89922 0.0
C195 C 0.14605 0.29516 0.88061 0.0
C196 C 0.1914 0.25003 0.87265 0.0
C197 C 0.13811 0.2418 0.91434 0.0
C198 C 0.14187 0.23829 0.95233 0.0
C199 C 0.11942 0.21757 0.97246 0.0
C200 C 0.09245 0.20005 0.95327 0.0
C201 C 0.08798 0.20345 0.91432 0.0
C202 C 0.11135 0.22457 0.89476 0.0
H203 H 0.84855 0.71354 0.51147 0.0
H204 H 0.79353 0.67441 0.4148 0.0
H205 H 0.82867 0.71207 0.37449 0.0
H206 H 0.85258 0.79695 0.47976 0.0
H207 H 0.89677 0.80447 0.49985 0.0
H208 H 0.86701 0.77485 0.52064 0.0
H209 H 0.91633 0.73105 0.51538 0.0
H210 H 0.94628 0.76056 0.49475 0.0
H211 H 0.93578 0.72337 0.47092 0.0
H212 H 0.87087 0.75352 0.34528 0.0
H213 H 0.9173 0.7943 0.32875 0.0
H214 H 0.94441 0.80657 0.44524 0.0
C215 C 0.84401 0.713 0.48176 0.0
C216 C 0.81865 0.69128 0.46589 0.0
C217 C 0.81307 0.69099 0.42715 0.0
C218 C 0.8328 0.7123 0.40422 0.0
C219 C 0.85773 0.73361 0.42071 0.0
C220 C 0.86339 0.73407 0.45863 0.0
C221 C 0.89205 0.7589 0.46948 0.0
C222 C 0.87614 0.78536 0.49387 0.0
C223 C 0.92453 0.74248 0.48876 0.0
C224 C 0.90195 0.77227 0.43175 0.0
C225 C 0.88178 0.75746 0.40399 0.0
C226 C 0.88671 0.7653 0.36681 0.0
C227 C 0.91321 0.78853 0.35772 0.0
C228 C 0.93459 0.80375 0.38568 0.0
C229 C 0.92842 0.79565 0.4232 0.0
H230 H 0.83088 0.3287 0.92203 0.0
H231 H 0.7686 0.26936 0.99786 0.0
H232 H 0.81244 0.22453 0.99111 0.0
H233 H 0.85227 0.26607 0.86016 0.0
H234 H 0.8971 0.28121 0.85071 0.0
H235 H 0.86227 0.30883 0.86364 0.0
H236 H 0.90252 0.32952 0.91804 0.0
H237 H 0.93759 0.30208 0.90511 0.0
H238 H 0.92036 0.30088 0.9515 0.0
H239 H 0.8625 0.18525 0.97286 0.0
H240 H 0.91385 0.15586 0.94632 0.0
H241 H 0.94248 0.24178 0.88229 0.0
C242 C 0.8269 0.30641 0.93767 0.0
C243 C 0.79683 0.30238 0.96082 0.0
C244 C 0.79185 0.27284 0.98036 0.0
C245 C 0.81654 0.24733 0.97657 0.0
C246 C 0.84591 0.25188 0.95308 0.0
C247 C 0.85118 0.28083 0.93411 0.0
C248 C 0.88399 0.27945 0.90965 0.0
C249 C 0.87325 0.28416 0.86862 0.0
C250 C 0.91282 0.30446 0.92182 0.0
C251 C 0.89638 0.24513 0.91748 0.0
C252 C 0.8742 0.22955 0.94262 0.0
C253 C 0.8801 0.19738 0.95335 0.0
C254 C 0.90936 0.18084 0.93807 0.0
C255 C 0.93247 0.19643 0.91227 0.0
C256 C 0.92563 0.22906 0.90205 0.0
H257 H 0.2197 0.69983 0.39877 0.0
H258 H 0.24658 0.73472 0.50857 0.0
H259 H 0.19234 0.76976 0.50645 0.0
H260 H 0.19099 0.7745 0.36125 0.0
H261 H 0.15483 0.75768 0.3332 0.0
H262 H 0.19367 0.73349 0.3448 0.0
H263 H 0.15202 0.68905 0.37297 0.0
H264 H 0.11298 0.71309 0.36132 0.0
H265 H 0.12068 0.6997 0.40843 0.0
H266 H 0.13809 0.80381 0.48999 0.0
H267 H 0.08751 0.83401 0.46144 0.0
H268 H 0.09548 0.77635 0.3621 0.0
C269 C 0.21365 0.71447 0.42257 0.0
C270 C 0.23673 0.7146 0.45402 0.0
C271 C 0.22875 0.73427 0.48447 0.0
C272 C 0.19811 0.75416 0.48343 0.0
C273 C 0.17592 0.75384 0.45175 0.0
C274 C 0.18321 0.73437 0.42194 0.0
C275 C 0.15614 0.73965 0.39051 0.0
C276 C 0.17504 0.75207 0.35538 0.0
C277 C 0.13415 0.70852 0.38287 0.0
C278 C 0.1328 0.76559 0.40697 0.0
C279 C 0.14457 0.77332 0.44236 0.0
C280 C 0.12842 0.79769 0.46247 0.0
C281 C 0.09972 0.81478 0.44592 0.0
C282 C 0.08729 0.80746 0.40956 0.0
C283 C 0.10392 0.78223 0.39011 0.0
H284 H 0.6699 0.84738 0.93006 0.0
H285 H 0.74668 0.78279 0.98341 0.0
H286 H 0.71548 0.73559 0.95478 0.0
H287 H 0.59371 0.79921 0.94342 0.0
H288 H 0.57192 0.80841 0.89962 0.0
H289 H 0.6029 0.83723 0.9201 0.0
H290 H 0.64108 0.83768 0.86059 0.0
H291 H 0.61001 0.80897 0.83976 0.0
H292 H 0.65754 0.79999 0.84289 0.0
H293 H 0.6715 0.69557 0.92736 0.0
H294 H 0.61953 0.66532 0.90053 0.0
H295 H 0.57203 0.75583 0.86292 0.0
C296 C 0.68064 0.82331 0.93468 0.0
C297 C 0.71086 0.8184 0.95828 0.0
C298 C 0.72382 0.78677 0.96483 0.0
C299 C 0.70626 0.75992 0.94875 0.0
C300 C 0.67597 0.76535 0.92608 0.0
C301 C 0.66348 0.79628 0.91867 0.0
C302 C 0.62897 0.79529 0.89543 0.0
C303 C 0.59753 0.81095 0.91588 0.0
C304 C 0.63476 0.81144 0.85741 0.0
C305 C 0.62338 0.75898 0.8919 0.0
C306 C 0.65089 0.74216 0.90965 0.0
C307 C 0.65019 0.70845 0.91275 0.0
C308 C 0.62051 0.69149 0.89757 0.0
C309 C 0.592 0.70821 0.8793 0.0
C310 C 0.59383 0.74237 0.87598 0.0
H311 H 0.32244 0.19633 0.42305 0.0
H312 H 0.29955 0.24648 0.52459 0.0
H313 H 0.35301 0.28233 0.51486 0.0
H314 H 0.42229 0.20107 0.43089 0.0
H315 H 0.42752 0.20744 0.38181 0.0
H316 H 0.38968 0.18405 0.39873 0.0
H317 H 0.34571 0.2221 0.36308 0.0
H318 H 0.38333 0.24574 0.3463 0.0
H319 H 0.3479 0.26514 0.37126 0.0
H320 H 0.40545 0.31548 0.49099 0.0
H321 H 0.45434 0.34258 0.45657 0.0
H322 H 0.44403 0.27044 0.37025 0.0
C323 C 0.32934 0.21439 0.44363 0.0
C324 C 0.30752 0.21853 0.47489 0.0
C325 C 0.31647 0.24279 0.50084 0.0
C326 C 0.34666 0.26323 0.49542 0.0
C327 C 0.36747 0.25893 0.46394 0.0
C328 C 0.35938 0.23493 0.4386 0.0
C329 C 0.38497 0.23647 0.40616 0.0
C330 C 0.40745 0.20541 0.40431 0.0
C331 C 0.36423 0.24274 0.36954 0.0
C332 C 0.40837 0.26544 0.4168 0.0
C333 C 0.39783 0.27796 0.45027 0.0
C334 C 0.41417 0.30563 0.465 0.0
C335 C 0.4419 0.32094 0.44509 0.0
C336 C 0.4533 0.3086 0.4107 0.0
C337 C 0.43635 0.28026 0.39664 0.0
H338 H 0.36487 0.81779 0.00821 0.0
H339 H 0.30756 0.86169 0.91529 0.0
H340 H 0.33873 0.82494 0.87236 0.0
H341 H 0.44928 0.80828 0.96345 0.0
H342 H 0.45931 0.76989 0.9854 0.0
H343 H 0.43155 0.79872 0.00851 0.0
H344 H 0.38059 0.75543 0.01456 0.0
H345 H 0.40827 0.72643 0.99157 0.0
H346 H 0.36365 0.73527 0.97366 0.0
H347 H 0.37755 0.78417 0.83994 0.0
H348 H 0.42019 0.74249 0.82007 0.0
H349 H 0.45234 0.72529 0.93475 0.0
C350 C 0.35879 0.81939 0.9788 0.0
C351 C 0.33392 0.84223 0.96472 0.0
C352 C 0.32655 0.84409 0.9263 0.0
C353 C 0.34411 0.82338 0.90186 0.0
C354 C 0.36882 0.8011 0.91654 0.0
C355 C 0.37606 0.79893 0.95415 0.0
C356 C 0.40414 0.77333 0.96284 0.0
C357 C 0.43807 0.78847 0.98112 0.0
C358 C 0.3882 0.746 0.98709 0.0
C359 C 0.41185 0.76155 0.92424 0.0
C360 C 0.39115 0.7778 0.89793 0.0
C361 C 0.39382 0.77128 0.86033 0.0
C362 C 0.41822 0.74755 0.84932 0.0
C363 C 0.4398 0.73056 0.8758 0.0
C364 C 0.43635 0.73777 0.91376 0.0
H365 H 0.66816 0.19217 0.51403 0.0
H366 H 0.7457 0.17475 0.42816 0.0
H367 H 0.7204 0.22029 0.39105 0.0
H368 H 0.59474 0.20859 0.45561 0.0
H369 H 0.57589 0.24014 0.48327 0.0
H370 H 0.60276 0.20896 0.50498 0.0
H371 H 0.64558 0.25265 0.53316 0.0
H372 H 0.61866 0.28403 0.51166 0.0
H373 H 0.66648 0.28237 0.50317 0.0
H374 H 0.68205 0.26256 0.36034 0.0
H375 H 0.63499 0.30078 0.33895 0.0
H376 H 0.58329 0.29268 0.44562 0.0
C377 C 0.68026 0.19863 0.48782 0.0
C378 C 0.70899 0.18052 0.47383 0.0
C379 C 0.72389 0.18882 0.43924 0.0
C380 C 0.7097 0.21457 0.41808 0.0
C381 C 0.68083 0.23176 0.4322 0.0
C382 C 0.66649 0.22442 0.46646 0.0
C383 C 0.6341 0.24541 0.47414 0.0
C384 C 0.59986 0.22452 0.47982 0.0
C385 C 0.64167 0.26742 0.50751 0.0
C386 C 0.63177 0.26497 0.43841 0.0
C387 C 0.65909 0.25678 0.41469 0.0
C388 C 0.66095 0.26962 0.37892 0.0
C389 C 0.63404 0.29118 0.36696 0.0
C390 C 0.60579 0.2999 0.39077 0.0
C391 C 0.60504 0.28698 0.42715 0.0
H392 H 0.35988 0.43933 0.94296 0.0
H393 H 0.32836 0.48583 0.04438 0.0
H394 H 0.35158 0.53848 0.02031 0.0
H395 H 0.44246 0.48352 0.93246 0.0
H396 H 0.43895 0.48519 0.88267 0.0
H397 H 0.41849 0.45199 0.9077 0.0
H398 H 0.35664 0.46483 0.87615 0.0
H399 H 0.37691 0.49833 0.85134 0.0
H400 H 0.33821 0.50494 0.87987 0.0
H401 H 0.37979 0.5858 0.985 0.0
H402 H 0.41451 0.62254 0.94387 0.0
H403 H 0.42637 0.544 0.866 0.0
C404 C 0.35749 0.46068 0.95992 0.0
C405 C 0.34207 0.45873 0.99533 0.0
C406 C 0.34018 0.48696 0.01716 0.0
C407 C 0.35304 0.51691 1.00362 0.0
C408 C 0.36781 0.51805 0.96835 0.0
C409 C 0.37035 0.49057 0.94698 0.0
C410 C 0.38902 0.49773 0.91088 0.0
C411 C 0.42431 0.47847 0.9083 0.0
C412 C 0.36367 0.49107 0.8776 0.0
C413 C 0.39656 0.53357 0.91513 0.0
C414 C 0.38405 0.545 0.94831 0.0
C415 C 0.3895 0.57715 0.95883 0.0
C416 C 0.40912 0.59787 0.93523 0.0
C417 C 0.42314 0.58622 0.90165 0.0
C418 C 0.41585 0.55384 0.89129 0.0
H419 H 0.69087 0.53147 0.50368 0.0
H420 H 0.70904 0.59935 0.41333 0.0
H421 H 0.6838 0.55909 0.36906 0.0
H422 H 0.70813 0.45539 0.45147 0.0
H423 H 0.67275 0.43384 0.47547 0.0
H424 H 0.69781 0.46572 0.49848 0.0
H425 H 0.63782 0.4948 0.51221 0.0
H426 H 0.61264 0.46327 0.48904 0.0
H427 H 0.60741 0.50491 0.47442 0.0
H428 H 0.64725 0.51494 0.33679 0.0
H429 H 0.60624 0.46988 0.31868 0.0
H430 H 0.61304 0.43063 0.43044 0.0
C431 C 0.69049 0.53748 0.47441 0.0
C432 C 0.702 0.56844 0.4618 0.0
C433 C 0.70082 0.57561 0.42342 0.0
C434 C 0.68637 0.55293 0.39818 0.0
C435 C 0.67378 0.52309 0.4118 0.0
C436 C 0.67628 0.51518 0.44902 0.0
C437 C 0.65814 0.48285 0.4573 0.0
C438 C 0.68587 0.45798 0.47151 0.0
C439 C 0.62718 0.48671 0.48485 0.0
C440 C 0.64386 0.47416 0.41914 0.0
C441 C 0.65333 0.49753 0.39317 0.0
C442 C 0.6404 0.49618 0.35674 0.0
C443 C 0.617 0.47055 0.34674 0.0
C444 C 0.60676 0.44651 0.37301 0.0
C445 C 0.62102 0.44816 0.40948 0.0
H446 H 0.6824 0.45309 0.93359 0.0
H447 H 0.59274 0.40355 0.98702 0.0
H448 H 0.55143 0.44584 0.96407 0.0
H449 H 0.655 0.53339 0.95107 0.0
H450 H 0.66835 0.5499 0.90688 0.0
H451 H 0.69126 0.51514 0.92618 0.0
H452 H 0.67655 0.48266 0.86676 0.0
H453 H 0.65379 0.51741 0.84714 0.0
H454 H 0.63029 0.479 0.85073 0.0
H455 H 0.52049 0.4949 0.93983 0.0
H456 H 0.50062 0.54654 0.91147 0.0
H457 H 0.60836 0.56364 0.86941 0.0
C458 C 0.65398 0.4508 0.93991 0.0
C459 C 0.64102 0.42504 0.9626 0.0
C460 C 0.60361 0.4233 0.97047 0.0
C461 C 0.5798 0.44712 0.95732 0.0
C462 C 0.59355 0.47245 0.93581 0.0
C463 C 0.62962 0.47434 0.92667 0.0
C464 C 0.63721 0.50452 0.90336 0.0
C465 C 0.66457 0.52707 0.92306 0.0
C466 C 0.65023 0.49534 0.8647 0.0
C467 C 0.59986 0.51947 0.90136 0.0
C468 C 0.57521 0.5005 0.92049 0.0
C469 C 0.53941 0.50976 0.92442 0.0
C470 C 0.52843 0.53916 0.90837 0.0
C471 C 0.55295 0.55883 0.88824 0.0
C472 C 0.58908 0.54878 0.88439 0.0
H473 H 0.40552 0.56633 0.48906 0.0
H474 H 0.31365 0.56957 0.41272 0.0
H475 H 0.33864 0.52388 0.37833 0.0
H476 H 0.47186 0.54811 0.42384 0.0
H477 H 0.49669 0.52071 0.45373 0.0
H478 H 0.47101 0.55292 0.47338 0.0
H479 H 0.43573 0.51114 0.51335 0.0
H480 H 0.46147 0.47878 0.49397 0.0
H481 H 0.41278 0.47758 0.49123 0.0
H482 H 0.3755 0.48037 0.34971 0.0
H483 H 0.42024 0.43996 0.33084 0.0
H484 H 0.48637 0.46276 0.42768 0.0
C485 C 0.39024 0.55708 0.46556 0.0
C486 C 0.35767 0.57182 0.45351 0.0
C487 C 0.33896 0.55917 0.42216 0.0
C488 C 0.3528 0.53304 0.40257 0.0
C489 C 0.38519 0.51947 0.41485 0.0
C490 C 0.4035 0.53079 0.44584 0.0
C491 C 0.43812 0.51218 0.45279 0.0
C492 C 0.47138 0.53483 0.4508 0.0
C493 C 0.43694 0.49383 0.49005 0.0
C494 C 0.43666 0.48899 0.42052 0.0
C495 C 0.40593 0.49365 0.39894 0.0
C496 C 0.39945 0.47622 0.36662 0.0
C497 C 0.42507 0.45342 0.35606 0.0
C498 C 0.45665 0.44807 0.37789 0.0
C499 C 0.46226 0.46598 0.41069 0.0
H500 H 0.8647 0.96289 0.00704 0.0
H501 H 0.83122 0.9038 0.91363 0.0
H502 H 0.86081 0.94311 0.87105 0.0
H503 H 0.85348 0.04037 0.96331 0.0
H504 H 0.89276 0.05792 0.98585 0.0
H505 H 0.86795 0.02565 0.00829 0.0
H506 H 0.92645 0.99176 0.01436 0.0
H507 H 0.95148 0.02404 0.99229 0.0
H508 H 0.95218 0.98371 0.97358 0.0
H509 H 0.89601 0.98954 0.83895 0.0
H510 H 0.93477 0.03652 0.82132 0.0
H511 H 0.94484 0.06294 0.93705 0.0
C512 C 0.86391 0.9578 0.97769 0.0
C513 C 0.84592 0.92998 0.96377 0.0
C514 C 0.84474 0.92497 0.92498 0.0
C515 C 0.86152 0.94715 0.90061 0.0
C516 C 0.8792 0.97424 0.91547 0.0
C517 C 0.88048 0.97947 0.9532 0.0
C518 C 0.90168 0.00985 0.96267 0.0
C519 C 0.87751 0.03493 0.98111 0.0
C520 C 0.93492 1.00185 0.98716 0.0
C521 C 0.91254 0.02092 0.92442 0.0
C522 C 0.89922 1.00036 0.89738 0.0
C523 C 0.90649 1.00579 0.85998 0.0
C524 C 0.92842 0.03258 0.85019 0.0
C525 C 0.94298 0.05339 0.87777 0.0
C526 C 0.93432 0.04752 0.91521 0.0
H527 H 0.13067 0.0746 0.50732 0.0
H528 H 0.23388 0.07074 0.45198 0.0
H529 H 0.21261 0.02278 0.41744 0.0
H530 H 0.11846 0.98617 0.51643 0.0
H531 H 0.07027 0.98819 0.50873 0.0
H532 H 0.09412 0.0216 0.53014 0.0
H533 H 0.06839 0.06062 0.47978 0.0
H534 H 0.0447 0.02734 0.45808 0.0
H535 H 0.07558 0.05208 0.43162 0.0
H536 H 0.17814 0.97832 0.38462 0.0
H537 H 0.13435 0.93787 0.35974 0.0
H538 H 0.05577 0.96784 0.43994 0.0
C539 C 0.1492 0.0633 0.48862 0.0
C540 C 0.18396 0.07676 0.4823 0.0
C541 C 0.20691 0.06137 0.45691 0.0
C542 C 0.19517 0.03394 0.43729 0.0
C543 C 0.16058 0.02174 0.4437 0.0
C544 C 0.13809 0.03563 0.46912 0.0
C545 C 0.10191 0.01805 0.47034 0.0
C546 C 0.09585 1.00258 0.50869 0.0
C547 C 0.07082 0.04089 0.45929 0.0
C548 C 0.10742 0.99246 0.44123 0.0
C549 C 0.14136 0.99511 0.42602 0.0
C550 C 0.15173 0.97561 0.39679 0.0
C551 C 0.12672 0.95281 0.38277 0.0
C552 C 0.09204 0.94942 0.39836 0.0
C553 C 0.08247 0.96937 0.42814 0.0
H554 H 0.17701 0.97722 0.01971 0.0
H555 H 0.21174 0.92081 0.92629 0.0
H556 H 0.17955 0.95842 0.88358 0.0
H557 H 0.0885 0.9937 0.98522 0.0
H558 H 0.08743 0.0342 1.00344 0.0
H559 H 0.11466 1.00376 0.02614 0.0
H560 H 0.17116 0.04105 0.02017 0.0
H561 H 0.14411 0.07157 0.99727 0.0
H562 H 0.18374 0.05635 0.97518 0.0
H563 H 0.14012 1.00033 0.85154 0.0
H564 H 0.09783 0.04362 0.83255 0.0
H565 H 0.09 0.07322 0.94704 0.0
C566 C 0.17783 0.9727 0.99026 0.0
C567 C 0.1968 0.94593 0.97634 0.0
C568 C 0.19763 0.94124 0.93757 0.0
C569 C 0.17934 0.96243 0.91313 0.0
C570 C 0.16063 0.98838 0.92787 0.0
C571 C 0.15993 0.99366 0.96555 0.0
C572 C 0.13726 0.02287 0.97446 0.0
C573 C 0.10506 0.01303 0.99874 0.0
C574 C 0.16046 0.04954 0.99285 0.0
C575 C 0.12484 0.03304 0.93593 0.0
C576 C 0.13862 0.01284 0.90943 0.0
C577 C 0.1295 0.01647 0.87204 0.0
C578 C 0.10541 0.04112 0.86153 0.0
C579 C 0.0908 0.062 0.88824 0.0
C580 C 0.10115 0.05806 0.92587 0.0
H581 H 0.8178 0.02265 0.49086 0.0
H582 H 0.88327 0.10962 0.47668 0.0
H583 H 0.92634 0.07911 0.43933 0.0
H584 H 0.892 0.96848 0.50235 0.0
H585 H 0.87102 0.93533 0.47762 0.0
H586 H 0.84344 0.96424 0.50087 0.0
H587 H 0.80861 0.97613 0.4395 0.0
H588 H 0.83604 0.94715 0.41607 0.0
H589 H 0.83335 0.9883 0.39897 0.0
H590 H 0.96239 0.04029 0.40524 0.0
H591 H 0.99238 0.99409 0.37747 0.0
H592 H 0.90646 0.92972 0.41534 0.0
C593 C 0.84099 0.03516 0.47934 0.0
C594 C 0.84729 0.06846 0.48615 0.0
C595 C 0.87812 0.08414 0.47145 0.0
C596 C 0.9026 0.06705 0.45023 0.0
C597 C 0.89599 0.03421 0.44424 0.0
C598 C 0.86615 0.01824 0.4584 0.0
C599 C 0.86686 0.98234 0.44918 0.0
C600 C 0.86843 0.96136 0.48462 0.0
C601 C 0.83427 0.97293 0.42446 0.0
C602 C 0.90195 0.98072 0.42804 0.0
C603 C 0.91784 0.01113 0.42523 0.0
C604 C 0.95018 0.01637 0.40705 0.0
C605 C 0.96692 0.98985 0.39121 0.0
C606 C 0.95166 0.9582 0.39394 0.0
C607 C 0.91872 0.95359 0.41277 0.0
H608 H 0.34061 0.42075 0.12013 0.0
H609 H 0.33805 0.32208 0.07906 0.0
H610 H 0.36815 0.30341 0.13672 0.0
H611 H 0.42912 0.41703 0.15083 0.0
H612 H 0.42345 0.44274 0.19031 0.0
H613 H 0.39423 0.44722 0.15038 0.0
H614 H 0.33812 0.43863 0.19156 0.0
H615 H 0.36725 0.43419 0.23176 0.0
H616 H 0.33478 0.40279 0.22039 0.0
H617 H 0.40486 0.29639 0.19621 0.0
H618 H 0.44811 0.30229 0.24881 0.0
H619 H 0.43328 0.40642 0.24585 0.0
C620 C 0.346 0.39511 0.1231 0.0
C621 C 0.33682 0.37301 0.09458 0.0
C622 C 0.34399 0.3396 0.10047 0.0
C623 C 0.36135 0.32872 0.13317 0.0
C624 C 0.37161 0.35152 0.15973 0.0
C625 C 0.36425 0.38406 0.15489 0.0
C626 C 0.38225 0.40435 0.18479 0.0
C627 C 0.40884 0.42929 0.16807 0.0
C628 C 0.3539 0.42097 0.20853 0.0
C629 C 0.4019 0.37829 0.20665 0.0
C630 C 0.3946 0.34784 0.19249 0.0
C631 C 0.41051 0.32009 0.20764 0.0
C632 C 0.43498 0.32366 0.23753 0.0
C633 C 0.444 0.35482 0.25124 0.0
C634 C 0.42682 0.38234 0.23586 0.0
H635 H 0.70218 0.63393 0.61978 0.0
H636 H 0.61762 0.62244 0.53586 0.0
H637 H 0.57151 0.62662 0.58379 0.0
H638 H 0.66037 0.58901 0.69095 0.0
H639 H 0.67435 0.61554 0.72798 0.0
H640 H 0.70128 0.6129 0.68708 0.0
H641 H 0.69697 0.67505 0.67708 0.0
H642 H 0.67024 0.67794 0.71816 0.0
H643 H 0.65316 0.69374 0.67463 0.0
H644 H 0.53484 0.62748 0.64026 0.0
H645 H 0.50891 0.62941 0.70262 0.0
H646 H 0.61594 0.64485 0.75052 0.0
C647 C 0.67398 0.63289 0.61135 0.0
C648 C 0.66362 0.62737 0.574 0.0
C649 C 0.62635 0.62583 0.56433 0.0
C650 C 0.59989 0.62845 0.59131 0.0
C651 C 0.61103 0.63318 0.62784 0.0
C652 C 0.64709 0.63589 0.63794 0.0
C653 C 0.65149 0.64068 0.67941 0.0
C654 C 0.67315 0.61287 0.6974 0.0
C655 C 0.669 0.67383 0.6878 0.0
C656 C 0.61227 0.63953 0.691 0.0
C657 C 0.58951 0.63505 0.66067 0.0
C658 C 0.5523 0.63136 0.66418 0.0
C659 C 0.53788 0.63228 0.69966 0.0
C660 C 0.56054 0.63726 0.73108 0.0
C661 C 0.59816 0.64128 0.72675 0.0
H662 H 0.6233 0.33964 0.06199 0.0
H663 H 0.72967 0.37664 0.09187 0.0
H664 H 0.71354 0.37411 0.1582 0.0
H665 H 0.57522 0.38309 0.12369 0.0
H666 H 0.54273 0.35185 0.13521 0.0
H667 H 0.56434 0.35158 0.091 0.0
H668 H 0.5871 0.29327 0.10371 0.0
H669 H 0.56503 0.29312 0.14785 0.0
H670 H 0.61263 0.28463 0.14553 0.0
H671 H 0.68154 0.37753 0.21935 0.0
H672 H 0.63905 0.37974 0.27157 0.0
H673 H 0.5549 0.33651 0.20281 0.0
C674 C 0.6436 0.34598 0.0827 0.0
C675 C 0.6779 0.35792 0.07204 0.0
C676 C 0.70357 0.36681 0.09963 0.0
C677 C 0.6945 0.36565 0.1373 0.0
C678 C 0.6599 0.35492 0.14685 0.0
C679 C 0.63515 0.34445 0.12036 0.0
C680 C 0.59908 0.3359 0.13753 0.0
C681 C 0.56857 0.35686 0.12086 0.0
C682 C 0.59046 0.29956 0.13341 0.0
C683 C 0.60686 0.34441 0.1776 0.0
C684 C 0.64208 0.35542 0.18243 0.0
C685 C 0.6543 0.36803 0.21613 0.0
C686 C 0.63 0.36935 0.24556 0.0
C687 C 0.59409 0.35765 0.24131 0.0
C688 C 0.58258 0.34466 0.20704 0.0
H689 H 0.38344 0.67136 0.56307 0.0
H690 H 0.30135 0.59819 0.58432 0.0
H691 H 0.31803 0.59833 0.65109 0.0
H692 H 0.44894 0.63737 0.62191 0.0
H693 H 0.46813 0.67528 0.63747 0.0
H694 H 0.44628 0.67303 0.59269 0.0
H695 H 0.40335 0.71948 0.61034 0.0
H696 H 0.42524 0.72197 0.6552 0.0
H697 H 0.37701 0.71573 0.65175 0.0
H698 H 0.34781 0.60237 0.71389 0.0
H699 H 0.3889 0.60911 0.76787 0.0
H700 H 0.45263 0.67916 0.7056 0.0
C701 C 0.3683 0.65621 0.58213 0.0
C702 C 0.34056 0.63533 0.56906 0.0
C703 C 0.32218 0.61476 0.59422 0.0
C704 C 0.33151 0.6147 0.63205 0.0
C705 C 0.35948 0.63518 0.64412 0.0
C706 C 0.37763 0.65558 0.61991 0.0
C707 C 0.40892 0.67282 0.63927 0.0
C708 C 0.44519 0.66409 0.62179 0.0
C709 C 0.40328 0.70969 0.63913 0.0
C710 C 0.40587 0.65861 0.67798 0.0
C711 C 0.37701 0.63715 0.68027 0.0
C712 C 0.37017 0.61945 0.71255 0.0
C713 C 0.39372 0.62341 0.74307 0.0
C714 C 0.42386 0.64486 0.74115 0.0
C715 C 0.42948 0.66305 0.70827 0.0
H716 H 0.89016 0.8606 0.07516 0.0
H717 H 0.7928 0.90445 0.11604 0.0
H718 H 0.81978 0.90584 0.17908 0.0
H719 H 0.90783 0.80982 0.15805 0.0
H720 H 0.95617 0.81486 0.15524 0.0
H721 H 0.92857 0.816 0.11367 0.0
H722 H 0.9556 0.8724 0.09692 0.0
H723 H 0.98311 0.87152 0.13849 0.0
H724 H 0.953 0.9049 0.12972 0.0
H725 H 0.85954 0.90788 0.23577 0.0
H726 H 0.90739 0.90521 0.28434 0.0
H727 H 0.97743 0.85611 0.20845 0.0
C728 C 0.87445 0.87009 0.09757 0.0
C729 C 0.83936 0.88231 0.0909 0.0
C730 C 0.81953 0.89462 0.12074 0.0
C731 C 0.8347 0.89565 0.15655 0.0
C732 C 0.86951 0.88379 0.16216 0.0
C733 C 0.88895 0.87074 0.13367 0.0
C734 C 0.92594 0.85981 0.14722 0.0
C735 C 0.92984 0.82293 0.14332 0.0
C736 C 0.95619 0.87827 0.12688 0.0
C737 C 0.92453 0.86942 0.18757 0.0
C738 C 0.89181 0.88344 0.19549 0.0
C739 C 0.885 0.8964 0.23013 0.0
C740 C 0.91231 0.8949 0.25745 0.0
C741 C 0.94572 0.88008 0.25017 0.0
C742 C 0.95177 0.86694 0.21488 0.0
H743 H 0.1827 0.10363 0.61382 0.0
H744 H 0.17536 0.20431 0.57777 0.0
H745 H 0.14579 0.21762 0.63602 0.0
H746 H 0.09529 0.09963 0.65059 0.0
H747 H 0.10714 0.07308 0.68876 0.0
H748 H 0.13251 0.07207 0.64671 0.0
H749 H 0.1917 0.08305 0.68405 0.0
H750 H 0.16646 0.0841 0.72627 0.0
H751 H 0.19495 0.11802 0.71351 0.0
H752 H 0.11193 0.21948 0.69559 0.0
H753 H 0.07551 0.2095 0.75115 0.0
H754 H 0.10151 0.10714 0.74751 0.0
C755 C 0.17516 0.12857 0.61806 0.0
C756 C 0.18193 0.15288 0.5908 0.0
C757 C 0.17162 0.18522 0.59818 0.0
C758 C 0.15443 0.19306 0.63124 0.0
C759 C 0.14744 0.16837 0.65688 0.0
C760 C 0.15748 0.13677 0.65071 0.0
C761 C 0.14427 0.11435 0.6814 0.0
C762 C 0.11826 0.08825 0.66594 0.0
C763 C 0.17626 0.09897 0.70256 0.0
C764 C 0.12462 0.1382 0.70543 0.0
C765 C 0.12717 0.16929 0.69096 0.0
C766 C 0.11002 0.19527 0.70732 0.0
C767 C 0.08931 0.18931 0.73894 0.0
C768 C 0.08557 0.15753 0.75395 0.0
C769 C 0.10404 0.13178 0.7371 0.0
H770 H 0.17155 0.93092 0.1044 0.0
H771 H 0.21888 0.83521 0.09918 0.0
H772 H 0.18943 0.82001 0.15784 0.0
H773 H 0.17772 0.94022 0.20309 0.0
H774 H 0.1348 0.9602 0.20606 0.0
H775 H 0.1608 0.96395 0.16447 0.0
H776 H 0.10626 0.94231 0.12566 0.0
H777 H 0.08003 0.93877 0.16708 0.0
H778 H 0.08568 0.90396 0.13807 0.0
H779 H 0.15336 0.81493 0.2168 0.0
H780 H 0.11184 0.81982 0.2694 0.0
H781 H 0.08744 0.9184 0.23444 0.0
C782 C 0.17558 0.90665 0.11534 0.0
C783 C 0.1977 0.88432 0.0971 0.0
C784 C 0.20255 0.85297 0.11286 0.0
C785 C 0.18581 0.84404 0.14611 0.0
C786 C 0.16421 0.86669 0.1633 0.0
C787 C 0.15896 0.89729 0.14833 0.0
C788 C 0.13364 0.91684 0.17157 0.0
C789 C 0.1529 0.94709 0.18722 0.0
C790 C 0.09938 0.92599 0.14926 0.0
C791 C 0.12529 0.89241 0.20188 0.0
C792 C 0.1433 0.86367 0.19682 0.0
C793 C 0.13918 0.83737 0.22107 0.0
C794 C 0.11559 0.8404 0.25091 0.0
C795 C 0.0963 0.86947 0.25611 0.0
C796 C 0.10177 0.89584 0.2314 0.0
H797 H 0.88825 0.13619 0.58158 0.0
H798 H 0.78065 0.13622 0.62815 0.0
H799 H 0.80702 0.15161 0.68859 0.0
H800 H 0.92702 0.09454 0.65558 0.0
H801 H 0.97021 0.11509 0.6534 0.0
H802 H 0.94262 0.11117 0.61223 0.0
H803 H 0.94445 0.17355 0.60259 0.0
H804 H 0.97216 0.17767 0.64382 0.0
H805 H 0.93039 0.19957 0.63934 0.0
H806 H 0.84599 0.16235 0.74591 0.0
H807 H 0.89388 0.16245 0.79495 0.0
H808 H 0.97492 0.14768 0.71178 0.0
C809 C 0.86994 0.13943 0.60425 0.0
C810 C 0.83216 0.13484 0.59964 0.0
C811 C 0.80956 0.14016 0.63035 0.0
C812 C 0.82434 0.14878 0.66501 0.0
C813 C 0.86179 0.15177 0.66875 0.0
C814 C 0.88425 0.14704 0.63915 0.0
C815 C 0.92364 0.14756 0.6511 0.0
C816 C 0.94192 0.11516 0.64258 0.0
C817 C 0.94384 0.17631 0.63315 0.0
C818 C 0.91986 0.15227 0.69229 0.0
C819 C 0.88408 0.15568 0.70189 0.0
C820 C 0.87407 0.15984 0.73864 0.0
C821 C 0.90132 0.15991 0.76625 0.0
C822 C 0.93777 0.15489 0.75689 0.0
C823 C 0.94711 0.15144 0.71949 0.0
loop_
_geom_bond_atom_site_label_1
_geom_bond_atom_site_label_2
_geom_bond_distance
_geom_bond_site_symmetry_2
_ccdc_geom_bond_type
H0 C3 0.929 . S
H1 C6 0.929 . S
H2 C8 0.930 . S
C3 H0 0.929 . S
C3 C4 1.398 . S
C3 C5 1.396 1_554 S
C4 C3 1.398 . S
C4 C8 1.407 . S
C5 C3 1.396 1_556 S
C5 C6 1.394 . S
C6 H1 0.929 . S
C6 C5 1.394 . S
C6 C7 1.382 1_556 S
C7 C6 1.382 1_554 S
C7 C8 1.392 . S
C7 N9 1.420 1_554 S
C8 H2 0.930 . S
C8 C4 1.407 . S
C8 C7 1.392 . S
N9 C7 1.420 1_556 S
N9 C10 1.244 . S
C10 N9 1.244 . S
H11 C14 0.929 . S
H12 C17 0.929 . S
H13 C19 0.930 . S
C14 H11 0.929 . S
C14 C15 1.398 . S
C14 C16 1.396 . S
C15 C14 1.398 . S
C15 C19 1.407 . S
C16 C14 1.396 . S
C16 C17 1.394 . S
C17 H12 0.929 . S
C17 C16 1.394 . S
C17 C18 1.382 . S
C18 C17 1.382 . S
C18 C19 1.392 . S
C18 N20 1.420 . S
C19 H13 0.930 . S
C19 C15 1.407 . S
C19 C18 1.392 . S
N20 C18 1.420 . S
N20 C21 1.244 . S
C21 N20 1.244 . S
H22 C25 0.929 . S
H23 C28 0.929 . S
H24 C30 0.930 . S
C25 H22 0.929 . S
C25 C26 1.398 . S
C25 C27 1.396 1_554 S
C26 C25 1.398 . S
C26 C30 1.407 . S
C27 C25 1.396 1_556 S
C27 C28 1.394 . S
C28 H23 0.929 . S
C28 C27 1.394 . S
C28 C29 1.382 1_556 S
C29 C28 1.382 1_554 S
C29 C30 1.392 . S
C29 N31 1.420 . S
C30 H24 0.930 . S
C30 C26 1.407 . S
C30 C29 1.392 . S
N31 C29 1.420 . S
N31 C32 1.244 1_554 S
C32 N31 1.244 1_556 S
H33 C36 0.929 . S
H34 C39 0.929 . S
H35 C41 0.930 . S
C36 H33 0.929 . S
C36 C37 1.398 . S
C36 C38 1.396 . S
C37 C36 1.398 . S
C37 C41 1.407 . S
C38 C36 1.396 . S
C38 C39 1.394 . S
C39 H34 0.929 . S
C39 C38 1.394 . S
C39 C40 1.382 . S
C40 C39 1.382 . S
C40 C41 1.392 . S
C40 N42 1.420 . S
C41 H35 0.930 . S
C41 C37 1.407 . S
C41 C40 1.392 . S
N42 C40 1.420 . S
N42 C43 1.244 . S
C43 N42 1.244 . S
H44 C47 0.929 . S
H45 C50 0.929 . S
H46 C52 0.930 . S
C47 H44 0.929 . S
C47 C48 1.398 . S
C47 C49 1.396 1_554 S
C48 C47 1.398 . S
C48 C52 1.407 . S
C49 C47 1.396 1_556 S
C49 C50 1.394 . S
C50 H45 0.929 . S
C50 C49 1.394 . S
C50 C51 1.382 1_556 S
C51 C50 1.382 1_554 S
C51 C52 1.392 . S
C51 N53 1.420 1_554 S
C52 H46 0.930 . S
C52 C48 1.407 . S
C52 C51 1.392 . S
N53 C51 1.420 1_556 S
N53 C54 1.244 . S
C54 N53 1.244 . S
H55 C58 0.929 . S
H56 C61 0.929 . S
H57 C63 0.930 . S
C58 H55 0.929 . S
C58 C59 1.398 . S
C58 C60 1.396 . S
C59 C58 1.398 . S
C59 C63 1.407 . S
C60 C58 1.396 . S
C60 C61 1.394 . S
C61 H56 0.929 . S
C61 C60 1.394 . S
C61 C62 1.382 . S
C62 C61 1.382 . S
C62 C63 1.392 . S
C62 N64 1.420 . S
C63 H57 0.930 . S
C63 C59 1.407 . S
C63 C62 1.392 . S
N64 C62 1.420 . S
N64 C65 1.244 . S
C65 N64 1.244 . S
H66 C69 0.929 . S
H67 C72 0.929 . S
H68 C74 0.930 . S
C69 H66 0.929 . S
C69 C70 1.398 . S
C69 C71 1.396 1_554 S
C70 C69 1.398 . S
C70 C74 1.407 . S
C71 C69 1.396 1_556 S
C71 C72 1.394 . S
C72 H67 0.929 . S
C72 C71 1.394 . S
C72 C73 1.382 1_556 S
C73 C72 1.382 1_554 S
C73 C74 1.392 . S
C73 N75 1.420 . S
C74 H68 0.930 . S
C74 C70 1.407 . S
C74 C73 1.392 . S
N75 C73 1.420 . S
N75 C76 1.244 1_554 S
C76 N75 1.244 1_556 S
H77 C80 0.929 . S
H78 C83 0.929 . S
H79 C85 0.930 . S
C80 H77 0.929 . S
C80 C81 1.398 . S
C80 C82 1.396 . S
C81 C80 1.398 . S
C81 C85 1.407 . S
C82 C80 1.396 . S
C82 C83 1.394 . S
C83 H78 0.929 . S
C83 C82 1.394 . S
C83 C84 1.382 . S
C84 C83 1.382 . S
C84 C85 1.392 . S
C84 N86 1.420 . S
C85 H79 0.930 . S
C85 C81 1.407 . S
C85 C84 1.392 . S
N86 C84 1.420 . S
N86 C87 1.244 . S
C87 N86 1.244 . S
Fe88 O90 1.918 . S
Fe88 O93 1.997 1_455 S
Fe88 O94 2.002 1_455 S
Fe88 O99 1.976 . S
Fe88 O102 1.996 . S
Fe89 O90 1.918 . S
Fe89 O97 1.997 1_455 S
Fe89 O100 1.996 . S
Fe89 O104 1.976 . S
Fe89 O107 2.002 1_455 S
O90 Fe88 1.918 . S
O90 Fe89 1.918 . S
O90 Fe91 1.918 . S
Fe91 O90 1.918 . S
Fe91 O92 2.002 1_455 S
Fe91 O101 1.976 . S
Fe91 O105 1.996 . S
Fe91 O108 1.997 1_455 S
O92 Fe91 2.002 1_655 S
O92 C109 1.295 . S
O93 Fe88 1.997 1_655 S
O93 C109 1.235 . S
O94 Fe88 2.002 1_655 S
O94 C95 1.295 . S
C95 O94 1.295 . S
C95 O97 1.235 . S
C96 O101 1.287 . S
C96 O102 1.255 . S
O97 Fe89 1.997 1_655 S
O97 C95 1.235 . S
C98 O104 1.287 . S
C98 O105 1.255 . S
O99 Fe88 1.976 . S
O99 C106 1.287 . S
O100 Fe89 1.996 . S
O100 C106 1.255 . S
O101 Fe91 1.976 . S
O101 C96 1.287 . S
O102 Fe88 1.996 . S
O102 C96 1.255 . S
C103 O107 1.295 . S
C103 O108 1.235 . S
O104 Fe89 1.976 . S
O104 C98 1.287 . S
O105 Fe91 1.996 . S
O105 C98 1.255 . S
C106 O99 1.287 . S
C106 O100 1.255 . S
O107 Fe89 2.002 1_655 S
O107 C103 1.295 . S
O108 Fe91 1.997 1_655 S
O108 C103 1.235 . S
C109 O92 1.295 . S
C109 O93 1.235 . S
Fe110 O112 1.918 1_455 S
Fe110 O115 2.006 . S
Fe110 O116 2.012 . S
Fe110 O121 1.966 1_455 S
Fe110 O124 1.986 1_455 S
Fe111 O112 1.918 . S
Fe111 O119 1.997 1_655 S
Fe111 O122 1.995 . S
Fe111 O126 1.976 . S
Fe111 O129 2.003 1_655 S
O112 Fe110 1.918 1_655 S
O112 Fe111 1.918 . S
O112 Fe113 1.918 1_655 S
Fe113 O112 1.918 1_455 S
Fe113 O114 2.008 . S
Fe113 O123 1.970 1_455 S
Fe113 O127 1.990 1_455 S
Fe113 O130 2.002 . S
O114 Fe113 2.008 . S
O114 C131 1.295 . S
O115 Fe110 2.006 . S
O115 C131 1.235 . S
O116 Fe110 2.012 . S
O116 C117 1.295 . S
C117 O116 1.295 . S
C117 O119 1.235 . S
C118 O123 1.287 . S
C118 O124 1.255 . S
O119 Fe111 1.997 1_455 S
O119 C117 1.235 . S
C120 O126 1.287 . S
C120 O127 1.255 . S
O121 Fe110 1.966 1_655 S
O121 C128 1.287 . S
O122 Fe111 1.995 . S
O122 C128 1.255 . S
O123 Fe113 1.970 1_655 S
O123 C118 1.287 . S
O124 Fe110 1.986 1_655 S
O124 C118 1.255 . S
C125 O129 1.295 . S
C125 O130 1.235 . S
O126 Fe111 1.976 . S
O126 C120 1.287 . S
O127 Fe113 1.990 1_655 S
O127 C120 1.255 . S
C128 O121 1.287 . S
C128 O122 1.255 . S
O129 Fe111 2.003 1_455 S
O129 C125 1.295 . S
O130 Fe113 2.002 . S
O130 C125 1.235 . S
C131 O114 1.295 . S
C131 O115 1.235 . S
Fe132 O134 1.918 . S
Fe132 O137 1.997 . S
Fe132 O138 2.002 . S
Fe132 O143 1.976 . S
Fe132 O146 1.996 . S
Fe133 O134 1.918 . S
Fe133 O141 1.997 . S
Fe133 O144 1.996 . S
Fe133 O148 1.976 . S
Fe133 O151 2.002 . S
O134 Fe132 1.918 . S
O134 Fe133 1.918 . S
O134 Fe135 1.918 . S
Fe135 O134 1.918 . S
Fe135 O136 2.002 . S
Fe135 O145 1.976 . S
Fe135 O149 1.996 . S
Fe135 O152 1.997 . S
O136 Fe135 2.002 . S
O136 C153 1.295 . S
O137 Fe132 1.997 . S
O137 C153 1.235 . S
O138 Fe132 2.002 . S
O138 C139 1.295 . S
C139 O138 1.295 . S
C139 O141 1.235 . S
C140 O145 1.287 . S
C140 O146 1.255 . S
O141 Fe133 1.997 . S
O141 C139 1.235 . S
C142 O148 1.287 . S
C142 O149 1.255 . S
O143 Fe132 1.976 . S
O143 C150 1.287 . S
O144 Fe133 1.996 . S
O144 C150 1.255 . S
O145 Fe135 1.976 . S
O145 C140 1.287 . S
O146 Fe132 1.996 . S
O146 C140 1.255 . S
C147 O151 1.295 . S
C147 O152 1.235 . S
O148 Fe133 1.976 . S
O148 C142 1.287 . S
O149 Fe135 1.996 . S
O149 C142 1.255 . S
C150 O143 1.287 . S
C150 O144 1.255 . S
O151 Fe133 2.002 . S
O151 C147 1.295 . S
O152 Fe135 1.997 . S
O152 C147 1.235 . S
C153 O136 1.295 . S
C153 O137 1.235 . S
Fe154 O156 1.918 . S
Fe154 O159 1.997 . S
Fe154 O160 2.002 . S
Fe154 O165 1.976 . S
Fe154 O168 1.996 . S
Fe155 O156 1.918 . S
Fe155 O163 1.997 . S
Fe155 O166 1.996 . S
Fe155 O170 1.976 . S
Fe155 O173 2.002 . S
O156 Fe154 1.918 . S
O156 Fe155 1.918 . S
O156 Fe157 1.918 . S
Fe157 O156 1.918 . S
Fe157 O158 2.002 . S
Fe157 O167 1.976 . S
Fe157 O171 1.996 . S
Fe157 O174 1.997 . S
O158 Fe157 2.002 . S
O158 C175 1.295 . S
O159 Fe154 1.997 . S
O159 C175 1.235 . S
O160 Fe154 2.002 . S
O160 C161 1.295 . S
C161 O160 1.295 . S
C161 O163 1.235 . S
C162 O167 1.287 . S
C162 O168 1.255 . S
O163 Fe155 1.997 . S
O163 C161 1.235 . S
C164 O170 1.287 . S
C164 O171 1.255 . S
O165 Fe154 1.976 . S
O165 C172 1.287 . S
O166 Fe155 1.996 . S
O166 C172 1.255 . S
O167 Fe157 1.976 . S
O167 C162 1.287 . S
O168 Fe154 1.996 . S
O168 C162 1.255 . S
C169 O173 1.295 . S
C169 O174 1.235 . S
O170 Fe155 1.976 . S
O170 C164 1.287 . S
O171 Fe157 1.996 . S
O171 C164 1.255 . S
C172 O165 1.287 . S
C172 O166 1.255 . S
O173 Fe155 2.002 . S
O173 C169 1.295 . S
O174 Fe157 1.997 . S
O174 C169 1.235 . S
C175 O158 1.295 . S
C175 O159 1.235 . S
H176 C188 0.930 . S
H177 C190 0.930 1_554 S
H178 C191 0.930 1_554 S
H179 C195 0.959 . S
H180 C195 0.959 . S
H181 C195 0.961 . S
H182 C196 0.960 . S
H183 C196 0.961 . S
H184 C196 0.959 . S
H185 C199 0.929 . S
H186 C200 0.931 . S
H187 C202 0.930 . S
C188 H176 0.930 . S
C188 C189 1.399 . S
C188 C193 1.399 . S
C189 C188 1.399 . S
C189 C190 1.376 . S
C190 H177 0.930 1_556 S
C190 C189 1.376 . S
C190 C191 1.388 . S
C191 H178 0.930 1_556 S
C191 C190 1.388 . S
C191 C192 1.390 . S
C192 C191 1.390 . S
C192 C193 1.394 . S
C192 C198 1.465 . S
C193 C188 1.399 . S
C193 C192 1.394 . S
C193 C194 1.516 . S
C194 C193 1.516 . S
C194 C195 1.502 . S
C194 C196 1.561 . S
C194 C197 1.526 . S
C195 H179 0.959 . S
C195 H180 0.959 . S
C195 H181 0.961 . S
C195 C194 1.502 . S
C196 H182 0.960 . S
C196 H183 0.961 . S
C196 H184 0.959 . S
C196 C194 1.561 . S
C197 C194 1.526 . S
C197 C198 1.396 . S
C197 C202 1.390 . S
C198 C192 1.465 . S
C198 C197 1.396 . S
C198 C199 1.399 . S
C199 H185 0.929 . S
C199 C198 1.399 . S
C199 C200 1.385 . S
C200 H186 0.931 . S
C200 C199 1.385 . S
C200 C201 1.389 . S
C201 C200 1.389 . S
C201 C202 1.387 . S
C202 H187 0.930 . S
C202 C197 1.390 . S
C202 C201 1.387 . S
H203 C215 0.930 . S
H204 C217 0.930 . S
H205 C218 0.930 . S
H206 C222 0.959 . S
H207 C222 0.959 . S
H208 C222 0.961 . S
H209 C223 0.960 . S
H210 C223 0.961 . S
H211 C223 0.959 . S
H212 C226 0.929 . S
H213 C227 0.931 . S
H214 C229 0.930 . S
C215 H203 0.930 . S
C215 C216 1.399 . S
C215 C220 1.399 . S
C216 C215 1.399 . S
C216 C217 1.376 . S
C217 H204 0.930 . S
C217 C216 1.376 . S
C217 C218 1.388 . S
C218 H205 0.930 . S
C218 C217 1.388 . S
C218 C219 1.390 . S
C219 C218 1.390 . S
C219 C220 1.394 . S
C219 C225 1.465 . S
C220 C215 1.399 . S
C220 C219 1.394 . S
C220 C221 1.516 . S
C221 C220 1.516 . S
C221 C222 1.502 . S
C221 C223 1.561 . S
C221 C224 1.526 . S
C222 H206 0.959 . S
C222 H207 0.959 . S
C222 H208 0.961 . S
C222 C221 1.502 . S
C223 H209 0.960 . S
C223 H210 0.961 . S
C223 H211 0.959 . S
C223 C221 1.561 . S
C224 C221 1.526 . S
C224 C225 1.396 . S
C224 C229 1.390 . S
C225 C219 1.465 . S
C225 C224 1.396 . S
C225 C226 1.399 . S
C226 H212 0.929 . S
C226 C225 1.399 . S
C226 C227 1.385 . S
C227 H213 0.931 . S
C227 C226 1.385 . S
C227 C228 1.389 . S
C228 C227 1.389 . S
C228 C229 1.387 . S
C229 H214 0.930 . S
C229 C224 1.390 . S
C229 C228 1.387 . S
H230 C242 0.930 . S
H231 C244 0.930 1_554 S
H232 C245 0.930 1_554 S
H233 C249 0.959 . S
H234 C249 0.959 . S
H235 C249 0.961 . S
H236 C250 0.960 . S
H237 C250 0.961 . S
H238 C250 0.959 . S
H239 C253 0.929 . S
H240 C254 0.931 . S
H241 C256 0.930 . S
C242 H230 0.930 . S
C242 C243 1.399 . S
C242 C247 1.399 . S
C243 C242 1.399 . S
C243 C244 1.376 . S
C244 H231 0.930 1_556 S
C244 C243 1.376 . S
C244 C245 1.388 . S
C245 H232 0.930 1_556 S
C245 C244 1.388 . S
C245 C246 1.390 . S
C246 C245 1.390 . S
C246 C247 1.394 . S
C246 C252 1.465 . S
C247 C242 1.399 . S
C247 C246 1.394 . S
C247 C248 1.516 . S
C248 C247 1.516 . S
C248 C249 1.502 . S
C248 C250 1.561 . S
C248 C251 1.526 . S
C249 H233 0.959 . S
C249 H234 0.959 . S
C249 H235 0.961 . S
C249 C248 1.502 . S
C250 H236 0.960 . S
C250 H237 0.961 . S
C250 H238 0.959 . S
C250 C248 1.561 . S
C251 C248 1.526 . S
C251 C252 1.396 . S
C251 C256 1.390 . S
C252 C246 1.465 . S
C252 C251 1.396 . S
C252 C253 1.399 . S
C253 H239 0.929 . S
C253 C252 1.399 . S
C253 C254 1.385 . S
C254 H240 0.931 . S
C254 C253 1.385 . S
C254 C255 1.389 . S
C255 C254 1.389 . S
C255 C256 1.387 . S
C256 H241 0.930 . S
C256 C251 1.390 . S
C256 C255 1.387 . S
H257 C269 0.930 . S
H258 C271 0.930 . S
H259 C272 0.930 . S
H260 C276 0.959 . S
H261 C276 0.959 . S
H262 C276 0.961 . S
H263 C277 0.960 . S
H264 C277 0.961 . S
H265 C277 0.959 . S
H266 C280 0.929 . S
H267 C281 0.931 . S
H268 C283 0.930 . S
C269 H257 0.930 . S
C269 C270 1.399 . S
C269 C274 1.399 . S
C270 C269 1.399 . S
C270 C271 1.376 . S
C271 H258 0.930 . S
C271 C270 1.376 . S
C271 C272 1.388 . S
C272 H259 0.930 . S
C272 C271 1.388 . S
C272 C273 1.390 . S
C273 C272 1.390 . S
C273 C274 1.394 . S
C273 C279 1.465 . S
C274 C269 1.399 . S
C274 C273 1.394 . S
C274 C275 1.516 . S
C275 C274 1.516 . S
C275 C276 1.502 . S
C275 C277 1.561 . S
C275 C278 1.526 . S
C276 H260 0.959 . S
C276 H261 0.959 . S
C276 H262 0.961 . S
C276 C275 1.502 . S
C277 H263 0.960 . S
C277 H264 0.961 . S
C277 H265 0.959 . S
C277 C275 1.561 . S
C278 C275 1.526 . S
C278 C279 1.396 . S
C278 C283 1.390 . S
C279 C273 1.465 . S
C279 C278 1.396 . S
C279 C280 1.399 . S
C280 H266 0.929 . S
C280 C279 1.399 . S
C280 C281 1.385 . S
C281 H267 0.931 . S
C281 C280 1.385 . S
C281 C282 1.389 . S
C282 C281 1.389 . S
C282 C283 1.387 . S
C283 H268 0.930 . S
C283 C278 1.390 . S
C283 C282 1.387 . S
H284 C296 0.930 . S
H285 C298 0.930 1_554 S
H286 C299 0.930 . S
H287 C303 0.959 . S
H288 C303 0.959 . S
H289 C303 0.961 . S
H290 C304 0.960 . S
H291 C304 0.961 . S
H292 C304 0.959 . S
H293 C307 0.929 . S
H294 C308 0.931 . S
H295 C310 0.930 . S
C296 H284 0.930 . S
C296 C297 1.399 . S
C296 C301 1.399 . S
C297 C296 1.399 . S
C297 C298 1.376 . S
C298 H285 0.930 1_556 S
C298 C297 1.376 . S
C298 C299 1.388 . S
C299 H286 0.930 . S
C299 C298 1.388 . S
C299 C300 1.390 . S
C300 C299 1.390 . S
C300 C301 1.394 . S
C300 C306 1.465 . S
C301 C296 1.399 . S
C301 C300 1.394 . S
C301 C302 1.516 . S
C302 C301 1.516 . S
C302 C303 1.502 . S
C302 C304 1.561 . S
C302 C305 1.526 . S
C303 H287 0.959 . S
C303 H288 0.959 . S
C303 H289 0.961 . S
C303 C302 1.502 . S
C304 H290 0.960 . S
C304 H291 0.961 . S
C304 H292 0.959 . S
C304 C302 1.561 . S
C305 C302 1.526 . S
C305 C306 1.396 . S
C305 C310 1.390 . S
C306 C300 1.465 . S
C306 C305 1.396 . S
C306 C307 1.399 . S
C307 H293 0.929 . S
C307 C306 1.399 . S
C307 C308 1.385 . S
C308 H294 0.931 . S
C308 C307 1.385 . S
C308 C309 1.389 . S
C309 C308 1.389 . S
C309 C310 1.387 . S
C310 H295 0.930 . S
C310 C305 1.390 . S
C310 C309 1.387 . S
H311 C323 0.930 . S
H312 C325 0.930 . S
H313 C326 0.930 . S
H314 C330 0.959 . S
H315 C330 0.959 . S
H316 C330 0.961 . S
H317 C331 0.960 . S
H318 C331 0.961 . S
H319 C331 0.959 . S
H320 C334 0.929 . S
H321 C335 0.931 . S
H322 C337 0.930 . S
C323 H311 0.930 . S
C323 C324 1.399 . S
C323 C328 1.399 . S
C324 C323 1.399 . S
C324 C325 1.376 . S
C325 H312 0.930 . S
C325 C324 1.376 . S
C325 C326 1.388 . S
C326 H313 0.930 . S
C326 C325 1.388 . S
C326 C327 1.390 . S
C327 C326 1.390 . S
C327 C328 1.394 . S
C327 C333 1.465 . S
C328 C323 1.399 . S
C328 C327 1.394 . S
C328 C329 1.516 . S
C329 C328 1.516 . S
C329 C330 1.502 . S
C329 C331 1.561 . S
C329 C332 1.526 . S
C330 H314 0.959 . S
C330 H315 0.959 . S
C330 H316 0.961 . S
C330 C329 1.502 . S
C331 H317 0.960 . S
C331 H318 0.961 . S
C331 H319 0.959 . S
C331 C329 1.561 . S
C332 C329 1.526 . S
C332 C333 1.396 . S
C332 C337 1.390 . S
C333 C327 1.465 . S
C333 C332 1.396 . S
C333 C334 1.399 . S
C334 H320 0.929 . S
C334 C333 1.399 . S
C334 C335 1.385 . S
C335 H321 0.931 . S
C335 C334 1.385 . S
C335 C336 1.389 . S
C336 C335 1.389 . S
C336 C337 1.387 . S
C337 H322 0.930 . S
C337 C332 1.390 . S
C337 C336 1.387 . S
H338 C350 0.930 . S
H339 C352 0.930 . S
H340 C353 0.930 . S
H341 C357 0.959 . S
H342 C357 0.959 . S
H343 C357 0.977 . S
H344 C358 0.960 1_554 S
H345 C358 0.961 . S
H346 C358 0.959 . S
H347 C361 0.929 . S
H348 C362 0.931 . S
H349 C364 0.930 . S
C350 H338 0.930 . S
C350 C351 1.399 . S
C350 C355 1.399 . S
C351 C350 1.399 . S
C351 C352 1.376 . S
C352 H339 0.930 . S
C352 C351 1.376 . S
C352 C353 1.388 . S
C353 H340 0.930 . S
C353 C352 1.388 . S
C353 C354 1.390 . S
C354 C353 1.390 . S
C354 C355 1.394 . S
C354 C360 1.465 . S
C355 C350 1.399 . S
C355 C354 1.394 . S
C355 C356 1.516 . S
C356 C355 1.516 . S
C356 C357 1.502 . S
C356 C358 1.561 . S
C356 C359 1.526 . S
C357 H341 0.959 . S
C357 H342 0.959 . S
C357 H343 0.977 . S
C357 C356 1.502 . S
C358 H344 0.960 1_556 S
C358 H345 0.961 . S
C358 H346 0.959 . S
C358 C356 1.561 . S
C359 C356 1.526 . S
C359 C360 1.396 . S
C359 C364 1.390 . S
C360 C354 1.465 . S
C360 C359 1.396 . S
C360 C361 1.399 . S
C361 H347 0.929 . S
C361 C360 1.399 . S
C361 C362 1.385 . S
C362 H348 0.931 . S
C362 C361 1.385 . S
C362 C363 1.389 . S
C363 C362 1.389 . S
C363 C364 1.387 . S
C364 H349 0.930 . S
C364 C359 1.390 . S
C364 C363 1.387 . S
H365 C377 0.930 . S
H366 C379 0.930 . S
H367 C380 0.930 . S
H368 C384 0.959 . S
H369 C384 0.959 . S
H370 C384 0.961 . S
H371 C385 0.960 . S
H372 C385 0.961 . S
H373 C385 0.959 . S
H374 C388 0.929 . S
H375 C389 0.931 . S
H376 C391 0.930 . S
C377 H365 0.930 . S
C377 C378 1.399 . S
C377 C382 1.399 . S
C378 C377 1.399 . S
C378 C379 1.376 . S
C379 H366 0.930 . S
C379 C378 1.376 . S
C379 C380 1.388 . S
C380 H367 0.930 . S
C380 C379 1.388 . S
C380 C381 1.390 . S
C381 C380 1.390 . S
C381 C382 1.394 . S
C381 C387 1.465 . S
C382 C377 1.399 . S
C382 C381 1.394 . S
C382 C383 1.516 . S
C383 C382 1.516 . S
C383 C384 1.502 . S
C383 C385 1.561 . S
C383 C386 1.526 . S
C384 H368 0.959 . S
C384 H369 0.959 . S
C384 H370 0.961 . S
C384 C383 1.502 . S
C385 H371 0.960 . S
C385 H372 0.961 . S
C385 H373 0.959 . S
C385 C383 1.561 . S
C386 C383 1.526 . S
C386 C387 1.396 . S
C386 C391 1.390 . S
C387 C381 1.465 . S
C387 C386 1.396 . S
C387 C388 1.399 . S
C388 H374 0.929 . S
C388 C387 1.399 . S
C388 C389 1.385 . S
C389 H375 0.931 . S
C389 C388 1.385 . S
C389 C390 1.389 . S
C390 C389 1.389 . S
C390 C391 1.387 . S
C391 H376 0.930 . S
C391 C386 1.390 . S
C391 C390 1.387 . S
H392 C404 0.930 . S
H393 C406 0.953 . S
H394 C407 0.930 1_554 S
H395 C411 0.959 . S
H396 C411 0.959 . S
H397 C411 0.961 . S
H398 C412 0.960 . S
H399 C412 0.961 . S
H400 C412 0.959 . S
H401 C415 0.929 . S
H402 C416 0.931 . S
H403 C418 0.930 . S
C404 H392 0.930 . S
C404 C405 1.399 . S
C404 C409 1.399 . S
C405 C404 1.399 . S
C405 C406 1.360 1_556 S
C406 H393 0.953 . S
C406 C405 1.360 1_554 S
C406 C407 1.383 1_554 S
C407 H394 0.930 1_556 S
C407 C406 1.383 1_556 S
C407 C408 1.390 . S
C408 C407 1.390 . S
C408 C409 1.394 . S
C408 C414 1.465 . S
C409 C404 1.399 . S
C409 C408 1.394 . S
C409 C410 1.516 . S
C410 C409 1.516 . S
C410 C411 1.502 . S
C410 C412 1.561 . S
C410 C413 1.526 . S
C411 H395 0.959 . S
C411 H396 0.959 . S
C411 H397 0.961 . S
C411 C410 1.502 . S
C412 H398 0.960 . S
C412 H399 0.961 . S
C412 H400 0.959 . S
C412 C410 1.561 . S
C413 C410 1.526 . S
C413 C414 1.396 . S
C413 C418 1.390 . S
C414 C408 1.465 . S
C414 C413 1.396 . S
C414 C415 1.399 . S
C415 H401 0.929 . S
C415 C414 1.399 . S
C415 C416 1.385 . S
C416 H402 0.931 . S
C416 C415 1.385 . S
C416 C417 1.389 . S
C417 C416 1.389 . S
C417 C418 1.387 . S
C418 H403 0.930 . S
C418 C413 1.390 . S
C418 C417 1.387 . S
H419 C431 0.930 . S
H420 C433 0.930 . S
H421 C434 0.930 . S
H422 C438 0.959 . S
H423 C438 0.959 . S
H424 C438 0.961 . S
H425 C439 0.960 . S
H426 C439 0.961 . S
H427 C439 0.959 . S
H428 C442 0.929 . S
H429 C443 0.931 . S
H430 C445 0.930 . S
C431 H419 0.930 . S
C431 C432 1.399 . S
C431 C436 1.399 . S
C432 C431 1.399 . S
C432 C433 1.376 . S
C433 H420 0.930 . S
C433 C432 1.376 . S
C433 C434 1.388 . S
C434 H421 0.930 . S
C434 C433 1.388 . S
C434 C435 1.390 . S
C435 C434 1.390 . S
C435 C436 1.394 . S
C435 C441 1.465 . S
C436 C431 1.399 . S
C436 C435 1.394 . S
C436 C437 1.516 . S
C437 C436 1.516 . S
C437 C438 1.502 . S
C437 C439 1.561 . S
C437 C440 1.526 . S
C438 H422 0.959 . S
C438 H423 0.959 . S
C438 H424 0.961 . S
C438 C437 1.502 . S
C439 H425 0.960 . S
C439 H426 0.961 . S
C439 H427 0.959 . S
C439 C437 1.561 . S
C440 C437 1.526 . S
C440 C441 1.396 . S
C440 C445 1.390 . S
C441 C435 1.465 . S
C441 C440 1.396 . S
C441 C442 1.399 . S
C442 H428 0.929 . S
C442 C441 1.399 . S
C442 C443 1.385 . S
C443 H429 0.931 . S
C443 C442 1.385 . S
C443 C444 1.389 . S
C444 C443 1.389 . S
C444 C445 1.387 . S
C445 H430 0.930 . S
C445 C440 1.390 . S
C445 C444 1.387 . S
H446 C458 0.930 . S
H447 C460 0.930 1_554 S
H448 C461 0.930 1_554 S
H449 C465 0.959 . S
H450 C465 0.959 . S
H451 C465 0.961 . S
H452 C466 0.960 . S
H453 C466 0.961 . S
H454 C466 0.959 . S
H455 C469 0.929 . S
H456 C470 0.931 . S
H457 C472 0.930 . S
C458 H446 0.930 . S
C458 C459 1.399 . S
C458 C463 1.399 . S
C459 C458 1.399 . S
C459 C460 1.376 . S
C460 H447 0.930 1_556 S
C460 C459 1.376 . S
C460 C461 1.388 . S
C461 H448 0.930 1_556 S
C461 C460 1.388 . S
C461 C462 1.390 . S
C462 C461 1.390 . S
C462 C463 1.394 . S
C462 C468 1.465 . S
C463 C458 1.399 . S
C463 C462 1.394 . S
C463 C464 1.516 . S
C464 C463 1.516 . S
C464 C465 1.502 . S
C464 C466 1.561 . S
C464 C467 1.526 . S
C465 H449 0.959 . S
C465 H450 0.959 . S
C465 H451 0.961 . S
C465 C464 1.502 . S
C466 H452 0.960 . S
C466 H453 0.961 . S
C466 H454 0.959 . S
C466 C464 1.561 . S
C467 C464 1.526 . S
C467 C468 1.396 . S
C467 C472 1.390 . S
C468 C462 1.465 . S
C468 C467 1.396 . S
C468 C469 1.399 . S
C469 H455 0.929 . S
C469 C468 1.399 . S
C469 C470 1.385 . S
C470 H456 0.931 . S
C470 C469 1.385 . S
C470 C471 1.389 . S
C471 C470 1.389 . S
C471 C472 1.387 . S
C472 H457 0.930 . S
C472 C467 1.390 . S
C472 C471 1.387 . S
H473 C485 0.930 . S
H474 C487 0.930 . S
H475 C488 0.930 . S
H476 C492 0.959 . S
H477 C492 0.959 . S
H478 C492 0.961 . S
H479 C493 0.960 . S
H480 C493 0.961 . S
H481 C493 0.959 . S
H482 C496 0.929 . S
H483 C497 0.931 . S
H484 C499 0.930 . S
C485 H473 0.930 . S
C485 C486 1.399 . S
C485 C490 1.399 . S
C486 C485 1.399 . S
C486 C487 1.376 . S
C487 H474 0.930 . S
C487 C486 1.376 . S
C487 C488 1.388 . S
C488 H475 0.930 . S
C488 C487 1.388 . S
C488 C489 1.390 . S
C489 C488 1.390 . S
C489 C490 1.394 . S
C489 C495 1.465 . S
C490 C485 1.399 . S
C490 C489 1.394 . S
C490 C491 1.516 . S
C491 C490 1.516 . S
C491 C492 1.502 . S
C491 C493 1.561 . S
C491 C494 1.526 . S
C492 H476 0.959 . S
C492 H477 0.959 . S
C492 H478 0.961 . S
C492 C491 1.502 . S
C493 H479 0.960 . S
C493 H480 0.961 . S
C493 H481 0.959 . S
C493 C491 1.561 . S
C494 C491 1.526 . S
C494 C495 1.396 . S
C494 C499 1.390 . S
C495 C489 1.465 . S
C495 C494 1.396 . S
C495 C496 1.399 . S
C496 H482 0.929 . S
C496 C495 1.399 . S
C496 C497 1.385 . S
C497 H483 0.931 . S
C497 C496 1.385 . S
C497 C498 1.389 . S
C498 C497 1.389 . S
C498 C499 1.387 . S
C499 H484 0.930 . S
C499 C494 1.390 . S
C499 C498 1.387 . S
H500 C512 0.930 1_554 S
H501 C514 0.930 . S
H502 C515 0.930 . S
H503 C519 0.959 . S
H504 C519 0.959 . S
H505 C519 0.961 1_554 S
H506 C520 0.960 1_554 S
H507 C520 0.961 1_544 S
H508 C520 0.959 . S
H509 C523 0.929 . S
H510 C524 0.931 . S
H511 C526 0.930 . S
C512 H500 0.930 1_556 S
C512 C513 1.399 . S
C512 C517 1.399 . S
C513 C512 1.399 . S
C513 C514 1.376 . S
C514 H501 0.930 . S
C514 C513 1.376 . S
C514 C515 1.388 . S
C515 H502 0.930 . S
C515 C514 1.388 . S
C515 C516 1.390 . S
C516 C515 1.390 . S
C516 C517 1.394 . S
C516 C522 1.465 . S
C517 C512 1.399 . S
C517 C516 1.394 . S
C517 C518 1.516 1_565 S
C518 C517 1.516 1_545 S
C518 C519 1.502 . S
C518 C520 1.561 1_545 S
C518 C521 1.526 . S
C519 H503 0.959 . S
C519 H504 0.959 . S
C519 H505 0.961 1_556 S
C519 C518 1.502 . S
C520 H506 0.960 1_556 S
C520 H507 0.961 1_566 S
C520 H508 0.959 . S
C520 C518 1.561 1_565 S
C521 C518 1.526 . S
C521 C522 1.396 1_545 S
C521 C526 1.390 . S
C522 C516 1.465 . S
C522 C521 1.396 1_565 S
C522 C523 1.399 . S
C523 H509 0.929 . S
C523 C522 1.399 . S
C523 C524 1.385 1_565 S
C524 H510 0.931 . S
C524 C523 1.385 1_545 S
C524 C525 1.389 . S
C525 C524 1.389 . S
C525 C526 1.387 . S
C526 H511 0.930 . S
C526 C521 1.390 . S
C526 C525 1.387 . S
H527 C539 0.930 . S
H528 C541 0.930 . S
H529 C542 0.930 . S
H530 C546 0.959 . S
H531 C546 0.959 . S
H532 C546 0.961 . S
H533 C547 0.960 . S
H534 C547 0.961 . S
H535 C547 0.959 . S
H536 C550 0.929 . S
H537 C551 0.931 . S
H538 C553 0.930 . S
C539 H527 0.930 . S
C539 C540 1.399 . S
C539 C544 1.399 . S
C540 C539 1.399 . S
C540 C541 1.376 . S
C541 H528 0.930 . S
C541 C540 1.376 . S
C541 C542 1.388 . S
C542 H529 0.930 . S
C542 C541 1.388 . S
C542 C543 1.390 . S
C543 C542 1.390 . S
C543 C544 1.394 . S
C543 C549 1.465 1_545 S
C544 C539 1.399 . S
C544 C543 1.394 . S
C544 C545 1.516 . S
C545 C544 1.516 . S
C545 C546 1.502 . S
C545 C547 1.561 . S
C545 C548 1.496 1_545 S
C546 H530 0.959 . S
C546 H531 0.959 . S
C546 H532 0.961 . S
C546 C545 1.502 . S
C547 H533 0.960 . S
C547 H534 0.961 . S
C547 H535 0.959 . S
C547 C545 1.561 . S
C548 C545 1.496 1_565 S
C548 C549 1.404 . S
C548 C553 1.411 . S
C549 C543 1.465 1_565 S
C549 C548 1.404 . S
C549 C550 1.399 . S
C550 H536 0.929 . S
C550 C549 1.399 . S
C550 C551 1.385 . S
C551 H537 0.931 . S
C551 C550 1.385 . S
C551 C552 1.389 . S
C552 C551 1.389 . S
C552 C553 1.387 . S
C553 H538 0.930 . S
C553 C548 1.411 . S
C553 C552 1.387 . S
H554 C566 0.930 1_554 S
H555 C568 0.930 . S
H556 C569 0.930 . S
H557 C573 0.959 . S
H558 C573 0.959 1_554 S
H559 C573 0.961 1_554 S
H560 C574 0.960 . S
H561 C574 0.961 . S
H562 C574 0.959 . S
H563 C577 0.950 . S
H564 C578 0.931 . S
H565 C580 0.930 . S
C566 H554 0.930 1_556 S
C566 C567 1.399 . S
C566 C571 1.399 . S
C567 C566 1.399 . S
C567 C568 1.376 . S
C568 H555 0.930 . S
C568 C567 1.376 . S
C568 C569 1.388 . S
C569 H556 0.930 . S
C569 C568 1.388 . S
C569 C570 1.390 . S
C570 C569 1.390 . S
C570 C571 1.394 . S
C570 C576 1.465 . S
C571 C566 1.399 . S
C571 C570 1.394 . S
C571 C572 1.516 1_565 S
C572 C571 1.516 1_545 S
C572 C573 1.502 . S
C572 C574 1.561 . S
C572 C575 1.526 . S
C573 H557 0.959 . S
C573 H558 0.959 1_556 S
C573 H559 0.961 1_556 S
C573 C572 1.502 . S
C574 H560 0.960 . S
C574 H561 0.961 . S
C574 H562 0.959 . S
C574 C572 1.561 . S
C575 C572 1.526 . S
C575 C576 1.396 1_545 S
C575 C580 1.390 . S
C576 C570 1.465 . S
C576 C575 1.396 1_565 S
C576 C577 1.399 . S
C577 H563 0.950 . S
C577 C576 1.399 . S
C577 C578 1.364 1_565 S
C578 H564 0.931 . S
C578 C577 1.364 1_545 S
C578 C579 1.389 . S
C579 C578 1.389 . S
C579 C580 1.387 . S
C580 H565 0.930 . S
C580 C575 1.390 . S
C580 C579 1.387 . S
H581 C593 0.930 . S
H582 C595 0.930 . S
H583 C596 0.930 . S
H584 C600 0.959 . S
H585 C600 0.959 . S
H586 C600 0.961 . S
H587 C601 0.960 . S
H588 C601 0.961 . S
H589 C601 0.959 . S
H590 C604 0.929 . S
H591 C605 0.931 . S
H592 C607 0.930 . S
C593 H581 0.930 . S
C593 C594 1.399 . S
C593 C598 1.399 . S
C594 C593 1.399 . S
C594 C595 1.376 . S
C595 H582 0.930 . S
C595 C594 1.376 . S
C595 C596 1.388 . S
C596 H583 0.930 . S
C596 C595 1.388 . S
C596 C597 1.390 . S
C597 C596 1.390 . S
C597 C598 1.394 . S
C597 C603 1.465 1_545 S
C598 C593 1.399 . S
C598 C597 1.394 . S
C598 C599 1.516 . S
C599 C598 1.516 . S
C599 C600 1.502 1_545 S
C599 C601 1.561 . S
C599 C602 1.526 1_545 S
C600 H584 0.959 . S
C600 H585 0.959 . S
C600 H586 0.961 . S
C600 C599 1.502 1_565 S
C601 H587 0.960 . S
C601 H588 0.961 . S
C601 H589 0.959 . S
C601 C599 1.561 . S
C602 C599 1.526 1_565 S
C602 C603 1.396 . S
C602 C607 1.390 . S
C603 C597 1.465 1_565 S
C603 C602 1.396 . S
C603 C604 1.399 . S
C604 H590 0.929 . S
C604 C603 1.399 . S
C604 C605 1.385 . S
C605 H591 0.931 . S
C605 C604 1.385 . S
C605 C606 1.389 . S
C606 C605 1.389 . S
C606 C607 1.387 . S
C607 H592 0.930 . S
C607 C602 1.390 . S
C607 C606 1.387 . S
H608 C620 0.930 . S
H609 C622 0.930 . S
H610 C623 0.930 . S
H611 C627 0.959 . S
H612 C627 0.959 . S
H613 C627 0.961 . S
H614 C628 0.960 . S
H615 C628 0.961 . S
H616 C628 0.959 . S
H617 C631 0.929 . S
H618 C632 0.931 . S
H619 C634 0.930 . S
C620 H608 0.930 . S
C620 C621 1.399 . S
C620 C625 1.399 . S
C621 C620 1.399 . S
C621 C622 1.376 . S
C622 H609 0.930 . S
C622 C621 1.376 . S
C622 C623 1.388 . S
C623 H610 0.930 . S
C623 C622 1.388 . S
C623 C624 1.390 . S
C624 C623 1.390 . S
C624 C625 1.394 . S
C624 C630 1.465 . S
C625 C620 1.399 . S
C625 C624 1.394 . S
C625 C626 1.516 . S
C626 C625 1.516 . S
C626 C627 1.502 . S
C626 C628 1.561 . S
C626 C629 1.526 . S
C627 H611 0.959 . S
C627 H612 0.959 . S
C627 H613 0.961 . S
C627 C626 1.502 . S
C628 H614 0.960 . S
C628 H615 0.961 . S
C628 H616 0.959 . S
C628 C626 1.561 . S
C629 C626 1.526 . S
C629 C630 1.396 . S
C629 C634 1.390 . S
C630 C624 1.465 . S
C630 C629 1.396 . S
C630 C631 1.399 . S
C631 H617 0.929 . S
C631 C630 1.399 . S
C631 C632 1.385 . S
C632 H618 0.931 . S
C632 C631 1.385 . S
C632 C633 1.389 . S
C633 C632 1.389 . S
C633 C634 1.387 . S
C634 H619 0.930 . S
C634 C629 1.390 . S
C634 C633 1.387 . S
H635 C647 0.930 . S
H636 C649 0.930 . S
H637 C650 0.930 . S
H638 C654 0.959 . S
H639 C654 0.959 . S
H640 C654 0.961 . S
H641 C655 0.960 . S
H642 C655 0.961 . S
H643 C655 0.959 . S
H644 C658 0.929 . S
H645 C659 0.931 . S
H646 C661 0.930 . S
C647 H635 0.930 . S
C647 C648 1.399 . S
C647 C652 1.399 . S
C648 C647 1.399 . S
C648 C649 1.376 . S
C649 H636 0.930 . S
C649 C648 1.376 . S
C649 C650 1.388 . S
C650 H637 0.930 . S
C650 C649 1.388 . S
C650 C651 1.390 . S
C651 C650 1.390 . S
C651 C652 1.394 . S
C651 C657 1.465 . S
C652 C647 1.399 . S
C652 C651 1.394 . S
C652 C653 1.516 . S
C653 C652 1.516 . S
C653 C654 1.502 . S
C653 C655 1.561 . S
C653 C656 1.526 . S
C654 H638 0.959 . S
C654 H639 0.959 . S
C654 H640 0.961 . S
C654 C653 1.502 . S
C655 H641 0.960 . S
C655 H642 0.961 . S
C655 H643 0.959 . S
C655 C653 1.561 . S
C656 C653 1.526 . S
C656 C657 1.396 . S
C656 C661 1.390 . S
C657 C651 1.465 . S
C657 C656 1.396 . S
C657 C658 1.399 . S
C658 H644 0.929 . S
C658 C657 1.399 . S
C658 C659 1.385 . S
C659 H645 0.931 . S
C659 C658 1.385 . S
C659 C660 1.389 . S
C660 C659 1.389 . S
C660 C661 1.387 . S
C661 H646 0.930 . S
C661 C656 1.390 . S
C661 C660 1.387 . S
H662 C674 0.930 . S
H663 C676 0.930 . S
H664 C677 0.930 . S
H665 C681 0.959 . S
H666 C681 0.959 . S
H667 C681 0.961 . S
H668 C682 0.960 . S
H669 C682 0.961 . S
H670 C682 0.959 . S
H671 C685 0.929 . S
H672 C686 0.931 . S
H673 C688 0.930 . S
C674 H662 0.930 . S
C674 C675 1.399 . S
C674 C679 1.399 . S
C675 C674 1.399 . S
C675 C676 1.376 . S
C676 H663 0.930 . S
C676 C675 1.376 . S
C676 C677 1.388 . S
C677 H664 0.930 . S
C677 C676 1.388 . S
C677 C678 1.390 . S
C678 C677 1.390 . S
C678 C679 1.394 . S
C678 C684 1.465 . S
C679 C674 1.399 . S
C679 C678 1.394 . S
C679 C680 1.516 . S
C680 C679 1.516 . S
C680 C681 1.502 . S
C680 C682 1.561 . S
C680 C683 1.526 . S
C681 H665 0.959 . S
C681 H666 0.959 . S
C681 H667 0.961 . S
C681 C680 1.502 . S
C682 H668 0.960 . S
C682 H669 0.961 . S
C682 H670 0.959 . S
C682 C680 1.561 . S
C683 C680 1.526 . S
C683 C684 1.396 . S
C683 C688 1.390 . S
C684 C678 1.465 . S
C684 C683 1.396 . S
C684 C685 1.399 . S
C685 H671 0.929 . S
C685 C684 1.399 . S
C685 C686 1.385 . S
C686 H672 0.931 . S
C686 C685 1.385 . S
C686 C687 1.389 . S
C687 C686 1.389 . S
C687 C688 1.387 . S
C688 H673 0.930 . S
C688 C683 1.390 . S
C688 C687 1.387 . S
H689 C701 0.930 . S
H690 C703 0.930 . S
H691 C704 0.930 . S
H692 C708 0.959 . S
H693 C708 0.959 . S
H694 C708 0.961 . S
H695 C709 0.960 . S
H696 C709 0.961 . S
H697 C709 0.959 . S
H698 C712 0.929 . S
H699 C713 0.931 . S
H700 C715 0.930 . S
C701 H689 0.930 . S
C701 C702 1.399 . S
C701 C706 1.399 . S
C702 C701 1.399 . S
C702 C703 1.376 . S
C703 H690 0.930 . S
C703 C702 1.376 . S
C703 C704 1.388 . S
C704 H691 0.930 . S
C704 C703 1.388 . S
C704 C705 1.390 . S
C705 C704 1.390 . S
C705 C706 1.394 . S
C705 C711 1.465 . S
C706 C701 1.399 . S
C706 C705 1.394 . S
C706 C707 1.516 . S
C707 C706 1.516 . S
C707 C708 1.502 . S
C707 C709 1.561 . S
C707 C710 1.526 . S
C708 H692 0.959 . S
C708 H693 0.959 . S
C708 H694 0.961 . S
C708 C707 1.502 . S
C709 H695 0.960 . S
C709 H696 0.961 . S
C709 H697 0.959 . S
C709 C707 1.561 . S
C710 C707 1.526 . S
C710 C711 1.396 . S
C710 C715 1.390 . S
C711 C705 1.465 . S
C711 C710 1.396 . S
C711 C712 1.399 . S
C712 H698 0.929 . S
C712 C711 1.399 . S
C712 C713 1.385 . S
C713 H699 0.931 . S
C713 C712 1.385 . S
C713 C714 1.389 . S
C714 C713 1.389 . S
C714 C715 1.387 . S
C715 H700 0.930 . S
C715 C710 1.390 . S
C715 C714 1.387 . S
H716 C728 0.930 . S
H717 C730 0.930 . S
H718 C731 0.930 . S
H719 C735 0.959 . S
H720 C735 0.959 . S
H721 C735 0.961 . S
H722 C736 0.960 . S
H723 C736 0.961 . S
H724 C736 0.959 . S
H725 C739 0.929 . S
H726 C740 0.931 . S
H727 C742 0.930 . S
C728 H716 0.930 . S
C728 C729 1.399 . S
C728 C733 1.399 . S
C729 C728 1.399 . S
C729 C730 1.376 . S
C730 H717 0.930 . S
C730 C729 1.376 . S
C730 C731 1.388 . S
C731 H718 0.930 . S
C731 C730 1.388 . S
C731 C732 1.390 . S
C732 C731 1.390 . S
C732 C733 1.394 . S
C732 C738 1.465 . S
C733 C728 1.399 . S
C733 C732 1.394 . S
C733 C734 1.516 . S
C734 C733 1.516 . S
C734 C735 1.502 . S
C734 C736 1.561 . S
C734 C737 1.526 . S
C735 H719 0.959 . S
C735 H720 0.959 . S
C735 H721 0.961 . S
C735 C734 1.502 . S
C736 H722 0.960 . S
C736 H723 0.961 . S
C736 H724 0.959 . S
C736 C734 1.561 . S
C737 C734 1.526 . S
C737 C738 1.396 . S
C737 C742 1.390 . S
C738 C732 1.465 . S
C738 C737 1.396 . S
C738 C739 1.399 . S
C739 H725 0.929 . S
C739 C738 1.399 . S
C739 C740 1.385 . S
C740 H726 0.931 . S
C740 C739 1.385 . S
C740 C741 1.389 . S
C741 C740 1.389 . S
C741 C742 1.387 . S
C742 H727 0.930 . S
C742 C737 1.390 . S
C742 C741 1.387 . S
H743 C755 0.930 . S
H744 C757 0.930 . S
H745 C758 0.930 . S
H746 C762 0.959 . S
H747 C762 0.959 . S
H748 C762 0.961 . S
H749 C763 0.960 . S
H750 C763 0.961 . S
H751 C763 0.959 . S
H752 C766 0.929 . S
H753 C767 0.931 . S
H754 C769 0.930 . S
C755 H743 0.930 . S
C755 C756 1.399 . S
C755 C760 1.399 . S
C756 C755 1.399 . S
C756 C757 1.376 . S
C757 H744 0.930 . S
C757 C756 1.376 . S
C757 C758 1.388 . S
C758 H745 0.930 . S
C758 C757 1.388 . S
C758 C759 1.390 . S
C759 C758 1.390 . S
C759 C760 1.394 . S
C759 C765 1.465 . S
C760 C755 1.399 . S
C760 C759 1.394 . S
C760 C761 1.516 . S
C761 C760 1.516 . S
C761 C762 1.502 . S
C761 C763 1.561 . S
C761 C764 1.526 . S
C762 H746 0.959 . S
C762 H747 0.959 . S
C762 H748 0.961 . S
C762 C761 1.502 . S
C763 H749 0.960 . S
C763 H750 0.961 . S
C763 H751 0.959 . S
C763 C761 1.561 . S
C764 C761 1.526 . S
C764 C765 1.396 . S
C764 C769 1.390 . S
C765 C759 1.465 . S
C765 C764 1.396 . S
C765 C766 1.399 . S
C766 H752 0.929 . S
C766 C765 1.399 . S
C766 C767 1.385 . S
C767 H753 0.931 . S
C767 C766 1.385 . S
C767 C768 1.389 . S
C768 C767 1.389 . S
C768 C769 1.387 . S
C769 H754 0.930 . S
C769 C764 1.390 . S
C769 C768 1.387 . S
H770 C782 0.930 . S
H771 C784 0.930 . S
H772 C785 0.930 . S
H773 C789 0.959 . S
H774 C789 0.959 . S
H775 C789 0.961 . S
H776 C790 0.960 . S
H777 C790 0.961 . S
H778 C790 0.959 . S
H779 C793 0.929 . S
H780 C794 0.931 . S
H781 C796 0.930 . S
C782 H770 0.930 . S
C782 C783 1.399 . S
C782 C787 1.399 . S
C783 C782 1.399 . S
C783 C784 1.376 . S
C784 H771 0.930 . S
C784 C783 1.376 . S
C784 C785 1.388 . S
C785 H772 0.930 . S
C785 C784 1.388 . S
C785 C786 1.390 . S
C786 C785 1.390 . S
C786 C787 1.394 . S
C786 C792 1.465 . S
C787 C782 1.399 . S
C787 C786 1.394 . S
C787 C788 1.516 . S
C788 C787 1.516 . S
C788 C789 1.502 . S
C788 C790 1.561 . S
C788 C791 1.526 . S
C789 H773 0.959 . S
C789 H774 0.959 . S
C789 H775 0.961 . S
C789 C788 1.502 . S
C790 H776 0.960 . S
C790 H777 0.961 . S
C790 H778 0.959 . S
C790 C788 1.561 . S
C791 C788 1.526 . S
C791 C792 1.396 . S
C791 C796 1.390 . S
C792 C786 1.465 . S
C792 C791 1.396 . S
C792 C793 1.399 . S
C793 H779 0.929 . S
C793 C792 1.399 . S
C793 C794 1.385 . S
C794 H780 0.931 . S
C794 C793 1.385 . S
C794 C795 1.389 . S
C795 C794 1.389 . S
C795 C796 1.387 . S
C796 H781 0.930 . S
C796 C791 1.390 . S
C796 C795 1.387 . S
H797 C809 0.930 . S
H798 C811 0.930 . S
H799 C812 0.930 . S
H800 C816 0.959 . S
H801 C816 0.959 . S
H802 C816 0.961 . S
H803 C817 0.960 . S
H804 C817 0.961 . S
H805 C817 0.959 . S
H806 C820 0.929 . S
H807 C821 0.931 . S
H808 C823 0.930 . S
C809 H797 0.930 . S
C809 C810 1.399 . S
C809 C814 1.399 . S
C810 C809 1.399 . S
C810 C811 1.376 . S
C811 H798 0.930 . S
C811 C810 1.376 . S
C811 C812 1.388 . S
C812 H799 0.930 . S
C812 C811 1.388 . S
C812 C813 1.390 . S
C813 C812 1.390 . S
C813 C814 1.394 . S
C813 C819 1.465 . S
C814 C809 1.399 . S
C814 C813 1.394 . S
C814 C815 1.516 . S
C815 C814 1.516 . S
C815 C816 1.502 . S
C815 C817 1.561 . S
C815 C818 1.526 . S
C816 H800 0.959 . S
C816 H801 0.959 . S
C816 H802 0.961 . S
C816 C815 1.502 . S
C817 H803 0.960 . S
C817 H804 0.961 . S
C817 H805 0.959 . S
C817 C815 1.561 . S
C818 C815 1.526 . S
C818 C819 1.396 . S
C818 C823 1.390 . S
C819 C813 1.465 . S
C819 C818 1.396 . S
C819 C820 1.399 . S
C820 H806 0.929 . S
C820 C819 1.399 . S
C820 C821 1.385 . S
C821 H807 0.931 . S
C821 C820 1.385 . S
C821 C822 1.389 . S
C822 C821 1.389 . S
C822 C823 1.387 . S
C823 H808 0.930 . S
C823 C818 1.390 . S
C823 C822 1.387 . S
C189 C10 1.548 . S
C201 C131 1.519 . S
C228 C95 1.548 . S
C216 C21 1.525 . S
C255 C118 1.592 . S
C243 C32 1.605 . S
C282 C106 1.481 . S
C270 C43 1.469 . S
C309 C175 1.536 . S
C297 C54 1.537 . S
C336 C139 1.538 . S
C324 C65 1.539 . S
C351 C76 1.574 . S
C363 C162 1.607 . S
C390 C150 1.492 . S
C378 C87 1.468 . S
C405 C5 1.489 . S
C417 C172 1.525 . S
C444 C142 1.500 . S
C432 C16 1.443 . S
C459 C27 1.541 . S
C471 C161 1.581 . S
C486 C37 1.469 . S
C498 C147 1.472 . S
C525 C128 1.529 . S
C513 C49 1.496 . S
C540 C60 1.504 . S
C552 C98 1.513 . S
C579 C117 1.598 . S
C567 C71 1.592 . S
C606 C103 1.442 . S
C594 C81 1.425 . S
C633 C153 1.531 . S
C621 C4 1.528 . S
C660 C169 1.495 . S
C648 C15 1.480 . S
C675 C26 1.503 . S
C687 C140 1.503 . S
C714 C164 1.491 . S
C702 C38 1.471 . S
C741 C109 1.510 . S
C729 C48 1.501 . S
C756 C59 1.510 . S
C768 C125 1.516 . S
C783 C70 1.494 . S
C795 C96 1.499 . S
C810 C82 1.467 . S
C822 C120 1.490 . S
