# Generated by pormake.
# Topology zzz, (3,6)-cn, num edge types: 1
# Building blocks:
#     Node 0, Type 0, BuildingBlock: KAKCAD_clean_linker_0, # of connection points: 3
#     Node 1, Type 0, BuildingBlock: KAKCAD_clean_linker_0, # of connection points: 3
#     Node 2, Type 0, BuildingBlock: KAKCAD_clean_linker_0, # of connection points: 3
#     Node 3, Type 0, BuildingBlock: KAKCAD_clean_linker_0, # of connection points: 3
#     Node 4, Type 0, BuildingBlock: KAKCAD_clean_linker_0, # of connection points: 3
#     Node 5, Type 0, BuildingBlock: KAKCAD_clean_linker_0, # of connection points: 3
#     Node 6, Type 0, BuildingBlock: KAKCAD_clean_linker_0, # of connection points: 3
#     Node 7, Type 0, BuildingBlock: KAKCAD_clean_linker_0, # of connection points: 3
#     Node 8, Type 1, BuildingBlock: BETFEN_clean_sbu_0, # of connection points: 6
#     Node 9, Type 1, BuildingBlock: BETFEN_clean_sbu_0, # of connection points: 6
#     Node 10, Type 1, BuildingBlock: BETFEN_clean_sbu_0, # of connection points: 6
#     Node 11, Type 1, BuildingBlock: BETFEN_clean_sbu_0, # of connection points: 6
#     Edge 12, Type (0, 1), BuildingBlock: AJUNOK_clean_linker_0, # of connection points: 2
#     Edge 13, Type (0, 1), BuildingBlock: AJUNOK_clean_linker_0, # of connection points: 2
#     Edge 14, Type (0, 1), BuildingBlock: AJUNOK_clean_linker_0, # of connection points: 2
#     Edge 15, Type (0, 1), BuildingBlock: AJUNOK_clean_linker_0, # of connection points: 2
#     Edge 16, Type (0, 1), BuildingBlock: AJUNOK_clean_linker_0, # of connection points: 2
#     Edge 17, Type (0, 1), BuildingBlock: AJUNOK_clean_linker_0, # of connection points: 2
#     Edge 18, Type (0, 1), BuildingBlock: AJUNOK_clean_linker_0, # of connection points: 2
#     Edge 19, Type (0, 1), BuildingBlock: AJUNOK_clean_linker_0, # of connection points: 2
#     Edge 20, Type (0, 1), BuildingBlock: AJUNOK_clean_linker_0, # of connection points: 2
#     Edge 21, Type (0, 1), BuildingBlock: AJUNOK_clean_linker_0, # of connection points: 2
#     Edge 22, Type (0, 1), BuildingBlock: AJUNOK_clean_linker_0, # of connection points: 2
#     Edge 23, Type (0, 1), BuildingBlock: AJUNOK_clean_linker_0, # of connection points: 2
#     Edge 24, Type (0, 1), BuildingBlock: AJUNOK_clean_linker_0, # of connection points: 2
#     Edge 25, Type (0, 1), BuildingBlock: AJUNOK_clean_linker_0, # of connection points: 2
#     Edge 26, Type (0, 1), BuildingBlock: AJUNOK_clean_linker_0, # of connection points: 2
#     Edge 27, Type (0, 1), BuildingBlock: AJUNOK_clean_linker_0, # of connection points: 2
#     Edge 28, Type (0, 1), BuildingBlock: AJUNOK_clean_linker_0, # of connection points: 2
#     Edge 29, Type (0, 1), BuildingBlock: AJUNOK_clean_linker_0, # of connection points: 2
#     Edge 30, Type (0, 1), BuildingBlock: AJUNOK_clean_linker_0, # of connection points: 2
#     Edge 31, Type (0, 1), BuildingBlock: AJUNOK_clean_linker_0, # of connection points: 2
#     Edge 32, Type (0, 1), BuildingBlock: AJUNOK_clean_linker_0, # of connection points: 2
#     Edge 33, Type (0, 1), BuildingBlock: AJUNOK_clean_linker_0, # of connection points: 2
#     Edge 34, Type (0, 1), BuildingBlock: AJUNOK_clean_linker_0, # of connection points: 2
#     Edge 35, Type (0, 1), BuildingBlock: AJUNOK_clean_linker_0, # of connection points: 2
# Relax obj value: 0.502
# Max RMSD: 0.264
# Mean RMSD: 0.254
data_MOF--net-zzz--node1-BETFEN_clean_sbu_0--node2-KAKCAD_clean_linker_0--edge1-AJUNOK_clean_linker_0
_symmetry_space_group_name_H-M    P1
_symmetry_Int_Tables_number       1
_symmetry_cell_setting            triclinic
loop_
_symmetry_equiv_pos_as_xyz
'x, y, z'
_cell_length_a     46.263739
_cell_length_b     46.199935
_cell_length_c     14.409821
_cell_angle_alpha  89.728283
_cell_angle_beta   90.058202
_cell_angle_gamma 90.01347
loop_
_atom_site_label
_atom_site_type_symbol
_atom_site_fract_x
_atom_site_fract_y
_atom_site_fract_z
_atom_type_partial_charge
C0 C 0.8015 0.41185 0.12458 0.0
C1 C 0.81665 0.39052 0.17483 0.0
C2 C 0.77821 0.42618 0.16484 0.0
C3 C 0.76998 0.41956 0.25614 0.0
C4 C 0.78178 0.39498 0.29969 0.0
C5 C 0.8047 0.38016 0.25832 0.0
C6 C 0.75626 0.44253 0.31189 0.0
C7 C 0.73202 0.45741 0.2789 0.0
C8 C 0.72343 0.48367 0.31902 0.0
C9 C 0.73986 0.49542 0.39278 0.0
C10 C 0.76423 0.48027 0.42741 0.0
C11 C 0.77154 0.45357 0.38774 0.0
C12 C 0.78559 0.49312 0.4932 0.0
C13 C 0.79967 0.51915 0.47041 0.0
C14 C 0.79712 0.47597 0.56542 0.0
C15 C 0.82353 0.48313 0.60724 0.0
C16 C 0.83911 0.50761 0.57777 0.0
C17 C 0.69901 0.49933 0.27464 0.0
C18 C 0.70201 0.50903 0.18265 0.0
C19 C 0.67146 0.49956 0.31545 0.0
C20 C 0.64714 0.50807 0.26338 0.0
C21 C 0.64996 0.5163 0.16953 0.0
C22 C 0.67785 0.51751 0.1309 0.0
C23 C 0.82612 0.52633 0.51238 0.0
H24 H 0.80982 0.42019 0.05948 0.0
H25 H 0.76938 0.44494 0.12942 0.0
H26 H 0.77539 0.38917 0.36964 0.0
H27 H 0.81516 0.36289 0.29673 0.0
H28 H 0.72052 0.44913 0.21897 0.0
H29 H 0.79124 0.44278 0.40968 0.0
H30 H 0.73435 0.51645 0.42054 0.0
H31 H 0.79155 0.53269 0.41463 0.0
H32 H 0.78681 0.45573 0.58438 0.0
H33 H 0.83276 0.46832 0.65764 0.0
H34 H 0.72297 0.50858 0.14917 0.0
H35 H 0.66854 0.49175 0.38582 0.0
H36 H 0.83723 0.54576 0.48978 0.0
H37 H 0.68087 0.52358 0.05885 0.0
H38 H 0.62605 0.50749 0.29562 0.0
C39 C 0.13537 0.79776 0.09857 0.0
C40 C 0.15688 0.81394 0.14408 0.0
C41 C 0.12147 0.77502 0.14405 0.0
C42 C 0.12833 0.7684 0.23658 0.0
C43 C 0.1525 0.78167 0.2774 0.0
C44 C 0.16692 0.80407 0.23093 0.0
C45 C 0.10587 0.75451 0.29484 0.0
C46 C 0.09116 0.73 0.26341 0.0
C47 C 0.06436 0.72209 0.3014 0.0
C48 C 0.05226 0.739 0.37331 0.0
C49 C 0.06749 0.7633 0.40805 0.0
C50 C 0.09447 0.77025 0.36912 0.0
C51 C 0.05457 0.78477 0.47362 0.0
C52 C 0.0275 0.79735 0.45493 0.0
C53 C 0.07189 0.79725 0.54336 0.0
C54 C 0.06371 0.82311 0.58661 0.0
C55 C 0.0379 0.8372 0.56165 0.0
C56 C 0.04828 0.69851 0.25428 0.0
C57 C 0.0379 0.70333 0.16395 0.0
C58 C 0.04873 0.67008 0.28922 0.0
C59 C 0.04023 0.64676 0.23297 0.0
C60 C 0.03137 0.65145 0.14035 0.0
C61 C 0.02947 0.68017 0.10788 0.0
C62 C 1.01922 0.82319 0.49871 0.0
H63 H 0.12653 0.80472 0.0326 0.0
H64 H 0.10283 0.76529 0.11087 0.0
H65 H 0.15839 0.7767 0.34848 0.0
H66 H 0.18382 0.81567 0.26717 0.0
H67 H 0.09965 0.71818 0.20453 0.0
H68 H 0.10519 0.79008 0.38989 0.0
H69 H 0.03092 0.73392 0.39955 0.0
H70 H 1.01366 0.78846 0.40151 0.0
H71 H 0.09282 0.78805 0.55988 0.0
H72 H 0.07857 0.83304 0.63509 0.0
H73 H 0.0379 0.72499 0.13477 0.0
H74 H 0.05701 0.6658 0.35818 0.0
H75 H 0.99874 0.83294 0.47991 0.0
H76 H 0.02297 0.6847 0.03706 0.0
H77 H 0.04137 0.62503 0.26117 0.0
C78 C 0.74897 0.1309 0.10902 0.0
C79 C 0.73217 0.15132 0.15672 0.0
C80 C 0.77133 0.11639 0.15448 0.0
C81 C 0.77708 0.12202 0.2484 0.0
C82 C 0.76367 0.14587 0.29059 0.0
C83 C 0.74145 0.16063 0.24458 0.0
C84 C 0.78999 0.09867 0.30591 0.0
C85 C 0.81389 0.08306 0.27424 0.0
C86 C 0.8211 0.05617 0.31345 0.0
C87 C 0.80381 0.04456 0.38553 0.0
C88 C 0.78006 0.06055 0.42006 0.0
C89 C 0.77397 0.08776 0.38077 0.0
C90 C 0.75826 0.04825 0.48587 0.0
C91 C 0.74443 0.02189 0.46621 0.0
C92 C 0.74668 0.0658 0.55643 0.0
C93 C 0.72049 0.05863 0.59962 0.0
C94 C 0.70518 0.03368 0.57352 0.0
C95 C 0.84451 0.03957 0.26796 0.0
C96 C 0.83869 0.02572 0.18353 0.0
C97 C 0.87339 0.04332 0.29539 0.0
C98 C 0.89608 0.03434 0.23751 0.0
C99 C 0.89031 0.0216 0.15069 0.0
C100 C 0.86126 1.01691 0.12555 0.0
C101 C 0.71822 1.01465 0.50976 0.0
H102 H 0.74259 0.1234 0.04088 0.0
H103 H 0.78137 0.09825 0.11972 0.0
H104 H 0.76817 0.15104 0.36242 0.0
H105 H 0.72944 0.17702 0.28173 0.0
H106 H 0.82587 0.09098 0.21465 0.0
H107 H 0.75454 0.09908 0.40193 0.0
H108 H 0.80829 0.02309 0.41245 0.0
H109 H 0.75262 1.00796 0.41202 0.0
H110 H 0.75687 0.08622 0.57346 0.0
H111 H 0.71127 0.07369 0.64876 0.0
H112 H 0.8166 0.02347 0.15952 0.0
H113 H 0.87836 0.05461 0.35913 0.0
H114 H 0.70741 0.99482 0.48997 0.0
H115 H 0.85581 1.00807 0.05833 0.0
H116 H 0.91814 0.03832 0.25916 0.0
C117 C 0.49551 0.72941 0.63631 0.0
C118 C 0.50677 0.70498 0.59036 0.0
C119 C 0.48957 0.7551 0.58723 0.0
C120 C 0.49568 0.75725 0.49202 0.0
C121 C 0.50879 0.73371 0.44764 0.0
C122 C 0.51416 0.70791 0.49591 0.0
C123 C 0.48172 0.77982 0.43379 0.0
C124 C 0.49697 0.80376 0.39717 0.0
C125 C 0.48437 0.82084 0.32633 0.0
C126 C 0.45709 0.81329 0.29122 0.0
C127 C 0.44201 0.78939 0.32642 0.0
C128 C 0.45402 0.77352 0.40003 0.0
C129 C 0.41817 0.77617 0.27266 0.0
C130 C 0.39435 0.76372 0.31817 0.0
C131 C 0.42309 0.76943 0.17919 0.0
C132 C 0.40762 0.74722 0.13694 0.0
C133 C 0.38653 0.73168 0.1869 0.0
C134 C 0.50042 0.84411 0.27753 0.0
C135 C 0.50181 0.8722 0.31402 0.0
C136 C 0.50945 0.83946 0.18587 0.0
C137 C 0.51841 0.86259 0.13007 0.0
C138 C 0.51839 0.89106 0.1643 0.0
C139 C 0.51084 0.89549 0.25798 0.0
C140 C 0.3784 0.74183 0.27509 0.0
H141 H 0.49041 0.72845 0.70953 0.0
H142 H 0.4789 0.77277 0.62255 0.0
H143 H 0.51292 0.73453 0.37366 0.0
H144 H 0.52261 0.68971 0.45746 0.0
H145 H 0.51887 0.80809 0.4199 0.0
H146 H 0.44325 0.75401 0.42415 0.0
H147 H 0.44835 0.82507 0.23226 0.0
H148 H 0.3899 0.76888 0.39002 0.0
H149 H 0.44137 0.77858 0.14236 0.0
H150 H 0.41497 0.74002 0.06964 0.0
H151 H 0.49454 0.87633 0.38415 0.0
H152 H 0.50808 0.81804 0.15581 0.0
H153 H 0.36186 0.73072 0.31475 0.0
H154 H 0.51112 0.91704 0.28715 0.0
H155 H 0.52386 0.85834 0.05833 0.0
C156 C 0.23057 0.66492 0.24118 0.0
C157 C 0.22082 0.65736 0.33069 0.0
C158 C 0.25283 0.64919 0.19914 0.0
C159 C 0.26629 0.62636 0.24717 0.0
C160 C 0.25956 0.62178 0.34085 0.0
C161 C 0.23684 0.63679 0.38182 0.0
C162 C 0.281 0.60285 0.19637 0.0
C163 C 0.30686 0.59098 0.2296 0.0
C164 C 0.31678 0.56386 0.19844 0.0
C165 C 0.29975 0.54834 0.13361 0.0
C166 C 0.27399 0.56064 0.09823 0.0
C167 C 0.26536 0.58805 0.12842 0.0
C168 C 0.25286 0.54437 0.04109 0.0
C169 C 0.25151 0.5488 0.94469 0.0
C170 C 0.22931 0.53117 0.08572 0.0
C171 C 0.20422 0.52417 0.03624 0.0
C172 C 0.202 0.53011 0.94049 0.0
C173 C 0.3434 0.55155 0.24243 0.0
C174 C 0.36731 0.56962 0.25866 0.0
C175 C 0.3437 0.52351 0.28072 0.0
C176 C 0.36645 0.51463 0.33911 0.0
C177 C 0.38943 0.53357 0.36055 0.0
C178 C 0.38983 0.56095 0.31736 0.0
C179 C 0.2265 0.54138 0.89465 0.0
H180 H 0.2192 0.68103 0.20032 0.0
H181 H 0.2578 0.65319 0.12676 0.0
H182 H 0.26939 0.6041 0.37918 0.0
H183 H 0.22994 0.62957 0.44977 0.0
H184 H 0.31832 0.60215 0.28452 0.0
H185 H 0.24471 0.59662 0.10535 0.0
H186 H 0.30615 0.52683 0.11227 0.0
H187 H 0.26914 0.55954 0.909 0.0
H188 H 0.22947 0.52832 0.16041 0.0
H189 H 0.1859 0.51573 0.07444 0.0
H190 H 0.36777 0.59122 0.22962 0.0
H191 H 0.32556 0.50906 0.27019 0.0
H192 H 0.22604 0.54545 0.82064 0.0
H193 H 0.40661 0.57651 0.33302 0.0
H194 H 0.3655 0.49328 0.37027 0.0
C195 C 0.88034 0.23891 0.30422 0.0
C196 C 0.89271 0.22489 0.38171 0.0
C197 C 0.89619 0.25963 0.25453 0.0
C198 C 0.92386 0.2677 0.28478 0.0
C199 C 0.93417 0.25717 0.36973 0.0
C200 C 0.91893 0.23579 0.41733 0.0
C201 C 0.94475 0.28097 0.22033 0.0
C202 C 0.95882 0.30668 0.24298 0.0
C203 C 0.98339 0.31585 0.19357 0.0
C204 C 0.99441 0.29813 0.12161 0.0
C205 C 0.97968 0.27237 0.09656 0.0
C206 C 0.95474 0.26446 0.14608 0.0
C207 C 0.99051 0.25146 0.02562 0.0
C208 C 0.97081 0.2389 0.96304 0.0
C209 C 1.01835 0.23948 0.03238 0.0
C210 C 0.02549 0.21425 0.98296 0.0
C211 C 1.00498 0.20045 0.92558 0.0
C212 C 0.99733 0.34328 0.22415 0.0
C213 C 0.98029 0.36831 0.23171 0.0
C214 C 0.02489 0.34321 0.26508 0.0
C215 C 0.03412 0.36685 0.31875 0.0
C216 C 1.01592 0.39097 0.33314 0.0
C217 C 0.98929 0.3917 0.28589 0.0
C218 C 0.97781 0.21369 0.91446 0.0
H219 H 0.85947 0.23236 0.27762 0.0
H220 H 0.88776 0.26782 0.18935 0.0
H221 H 0.95555 0.26306 0.39407 0.0
H222 H 0.92939 0.22586 0.47667 0.0
H223 H 0.95129 0.319 0.30216 0.0
H224 H 0.94429 0.24392 0.13173 0.0
H225 H 1.01392 0.30442 0.08525 0.0
H226 H 0.94911 0.24751 0.95648 0.0
H227 H 0.03391 0.24836 0.08071 0.0
H228 H 0.04672 0.20484 0.9928 0.0
H229 H 0.95894 0.36876 0.20106 0.0
H230 H 0.03837 0.32409 0.26131 0.0
H231 H 0.96113 0.20359 0.87302 0.0
H232 H 0.97432 0.40936 0.29605 0.0
H233 H 0.05495 0.36558 0.35284 0.0
C234 C 0.30083 0.88408 0.36734 0.0
C235 C 0.31671 0.89832 0.43705 0.0
C236 C 0.28156 0.89964 0.31107 0.0
C237 C 0.27696 0.92918 0.32699 0.0
C238 C 0.28976 0.9424 0.40377 0.0
C239 C 0.30957 0.92724 0.45792 0.0
C240 C 0.26377 0.94783 0.25584 0.0
C241 C 0.2369 0.9605 0.27099 0.0
C242 C 0.22686 0.98299 0.2134 0.0
C243 C 0.24483 0.99337 0.14075 0.0
C244 C 0.27188 0.97996 0.12357 0.0
C245 C 0.28078 0.9571 0.18149 0.0
C246 C 0.29276 0.99006 0.05126 0.0
C247 C 0.30649 0.96952 0.99448 0.0
C248 C 0.30346 1.01853 0.05139 0.0
C249 C 0.32851 0.0257 1.00084 0.0
C250 C 0.34334 1.0046 0.94875 0.0
C251 C 0.19823 0.99573 0.2367 0.0
C252 C 0.17447 0.97713 0.2488 0.0
C253 C 0.19598 0.02437 0.26797 0.0
C254 C 0.17142 0.03338 0.31745 0.0
C255 C 0.14867 1.0139 0.33692 0.0
C256 C 0.15014 0.98596 0.29871 0.0
C257 C 0.33146 0.9766 0.94451 0.0
H258 H 0.3047 0.86151 0.35197 0.0
H259 H 0.27159 0.88909 0.25218 0.0
H260 H 0.28648 0.96527 0.41669 0.0
H261 H 0.32123 0.93921 0.51045 0.0
H262 H 0.22427 0.95361 0.33053 0.0
H263 H 0.30209 0.94769 0.17269 0.0
H264 H 0.23776 1.01133 0.09779 0.0
H265 H 0.29893 0.94733 0.99347 0.0
H266 H 0.29366 0.03473 0.09542 0.0
H267 H 0.33694 0.04752 1.00543 0.0
H268 H 0.17578 0.95488 0.22601 0.0
H269 H 0.21408 0.03908 0.26064 0.0
H270 H 0.34243 0.95953 0.9073 0.0
H271 H 0.1336 0.97001 0.31333 0.0
H272 H 0.17094 0.05516 0.34487 0.0
C273 C 0.5107 0.32766 1.01484 0.0
C274 C 0.52896 0.3412 0.94932 0.0
C275 C 0.5194 0.3023 0.06143 0.0
C276 C 0.54656 0.28996 0.04355 0.0
C277 C 0.56376 0.30221 0.97308 0.0
C278 C 0.55517 0.32751 0.92689 0.0
C279 C 0.56026 0.27001 0.11227 0.0
C280 C 0.54887 0.24263 0.13689 0.0
C281 C 0.56284 0.22544 0.20535 0.0
C282 C 0.58771 0.2365 0.24943 0.0
C283 C 0.59832 0.2642 0.22907 0.0
C284 C 0.58464 0.28041 0.15927 0.0
C285 C 0.62051 0.27825 0.28933 0.0
C286 C 0.62079 0.27304 0.38573 0.0
C287 C 0.63787 0.30076 0.25418 0.0
C288 C 0.65034 0.32084 0.31416 0.0
C289 C 0.64688 0.31798 0.41077 0.0
C290 C 0.55104 0.19704 0.23901 0.0
C291 C 0.52132 0.19304 0.2552 0.0
C292 C 0.57016 0.17508 0.26821 0.0
C293 C 0.5604 0.15134 0.31962 0.0
C294 C 0.53107 0.14854 0.34298 0.0
C295 C 0.51143 0.16895 0.30612 0.0
C296 C 0.63442 0.2924 0.4456 0.0
H297 H 0.49028 0.33751 0.03348 0.0
H298 H 0.50592 0.29369 0.11644 0.0
H299 H 0.58502 0.29344 0.95888 0.0
H300 H 0.57014 0.33744 0.87861 0.0
H301 H 0.52952 0.23481 0.10282 0.0
H302 H 0.59169 0.30235 0.14492 0.0
H303 H 0.5981 0.22403 0.30371 0.0
H304 H 0.60814 0.25581 0.41652 0.0
H305 H 0.6395 0.30463 0.1802 0.0
H306 H 0.65978 0.34008 0.28375 0.0
H307 H 0.50587 0.20934 0.23367 0.0
H308 H 0.59312 0.177 0.25543 0.0
H309 H 0.63223 0.28901 0.51971 0.0
H310 H 0.4885 0.16697 0.31966 0.0
H311 H 0.57626 0.13611 0.3459 0.0
Pr312 Pr 0.04178 1.01453 0.81347 0.0
Pr313 Pr 0.99782 0.02291 0.6762 0.0
C314 C 0.0757 0.99857 0.95723 0.0
C315 C 0.09622 0.97582 0.98575 0.0
C316 C 0.12136 0.96968 0.93464 0.0
C317 C 0.13943 0.94676 0.9612 0.0
C318 C 0.1324 0.9294 0.03839 0.0
C319 C 0.10784 0.9365 0.09121 0.0
C320 C 0.0901 0.95952 0.06549 0.0
C321 C 0.06613 0.0284 0.63999 0.0
C322 C 0.02241 0.95735 0.687 0.0
C323 C 0.9618 0.03846 0.53764 0.0
C324 C 0.9402 0.06087 0.5169 0.0
C325 C 0.92023 0.07026 0.58377 0.0
C326 C 0.90192 0.09367 0.56455 0.0
C327 C 0.9035 0.10809 0.47856 0.0
C328 C 0.92304 0.09793 0.41127 0.0
C329 C 0.94097 0.07443 0.43004 0.0
C330 C 0.9744 1.00944 0.85129 0.0
C331 C 1.01868 0.08077 0.79536 0.0
O332 O 0.04861 0.99082 0.94944 0.0
O333 O 0.08389 1.01688 0.89305 0.0
O334 O 0.04559 1.01079 0.65274 0.0
O335 O 0.07427 0.03969 0.71801 0.0
O336 O 1.01142 0.97673 0.63009 0.0
O337 O 0.03223 0.96568 0.76894 0.0
O338 O 0.98862 0.04725 0.54282 0.0
O339 O 0.95516 1.01914 0.60057 0.0
O340 O 0.99429 0.02754 0.83618 0.0
O341 O 0.96681 0.99681 0.77493 0.0
O342 O 0.02964 0.06188 0.8543 0.0
O343 O 1.00824 0.07168 0.71529 0.0
H344 H 0.12682 0.98219 0.87336 0.0
H345 H 0.15856 0.94236 0.92046 0.0
H346 H 0.10157 0.92351 0.15064 0.0
H347 H 0.07104 0.96408 0.10659 0.0
H348 H 0.91941 0.06016 0.65172 0.0
H349 H 0.8873 0.10113 0.61797 0.0
H350 H 0.92572 0.10907 0.34557 0.0
H351 H 0.95635 0.0676 0.37785 0.0
Pr352 Pr 0.5278 0.04385 0.82034 0.0
Pr353 Pr 0.51943 0.9986 0.69236 0.0
C354 C 0.54523 0.08165 0.95099 0.0
C355 C 0.57009 0.10083 0.96585 0.0
C356 C 0.56726 0.12521 0.02264 0.0
C357 C 0.59154 0.14185 0.04465 0.0
C358 C 0.61894 0.13404 1.01118 0.0
C359 C 0.62132 0.1108 0.94921 0.0
C360 C 0.59705 0.09435 0.92648 0.0
C361 C 0.51264 0.06606 0.64515 0.0
C362 C 0.58454 0.02271 0.69666 0.0
C363 C 0.50355 0.96017 0.56192 0.0
C364 C 0.48152 0.93766 0.55051 0.0
C365 C 0.47103 0.92179 0.62675 0.0
C366 C 0.44715 0.90349 0.61629 0.0
C367 C 0.43325 0.90113 0.52978 0.0
C368 C 0.44485 0.91617 0.45303 0.0
C369 C 0.46885 0.93407 0.46331 0.0
C370 C 0.53286 0.97703 0.87039 0.0
C371 C 0.46184 1.02046 0.81089 0.0
O372 O 0.55045 0.05386 0.95526 0.0
O373 O 0.52779 0.08873 0.88345 0.0
O374 O 0.53094 0.04616 0.65902 0.0
O375 O 0.50062 0.0737 0.72242 0.0
O376 O 0.56498 1.01208 0.6404 0.0
O377 O 0.57636 0.03246 0.77855 0.0
O378 O 0.4939 0.98675 0.56414 0.0
O379 O 0.52397 0.95514 0.62251 0.0
O380 O 0.5149 0.99683 0.85289 0.0
O381 O 0.54576 0.96895 0.79505 0.0
O382 O 0.48076 0.03245 0.86712 0.0
O383 O 0.4708 1.00915 0.732 0.0
H384 H 0.54651 0.13078 0.05245 0.0
H385 H 0.5892 0.16006 0.09086 0.0
H386 H 0.64223 0.10425 0.92279 0.0
H387 H 0.59959 0.07585 0.88138 0.0
H388 H 0.48047 0.92447 0.69501 0.0
H389 H 0.43869 0.89235 0.67673 0.0
H390 H 0.43427 0.91586 0.38603 0.0
H391 H 0.47653 0.94635 0.40399 0.0
Pr392 Pr 0.49186 0.52796 0.8505 0.0
Pr393 Pr 0.53621 0.52057 0.71535 0.0
C394 C 0.45774 0.54346 0.99369 0.0
C395 C 0.43892 0.56734 0.02453 0.0
C396 C 0.4129 0.57427 0.97889 0.0
C397 C 0.39644 0.59806 1.00743 0.0
C398 C 0.40593 0.61548 0.08121 0.0
C399 C 0.43136 0.60767 0.12873 0.0
C400 C 0.4475 0.58379 0.10118 0.0
C401 C 0.46816 0.51651 0.67444 0.0
C402 C 0.51383 0.58636 0.73293 0.0
C403 C 0.57342 0.50424 0.58201 0.0
C404 C 0.59425 0.48052 0.57558 0.0
C405 C 0.59964 0.4629 0.65324 0.0
C406 C 0.61642 0.43798 0.64443 0.0
C407 C 0.62805 0.4304 0.55786 0.0
C408 C 0.624 0.44908 0.48155 0.0
C409 C 0.60709 0.47396 0.49042 0.0
C410 C 0.5595 0.53188 0.89157 0.0
C411 C 0.51387 0.46184 0.82938 0.0
O412 O 0.48544 0.54901 0.99011 0.0
O413 O 0.44881 0.52724 0.92535 0.0
O414 O 0.48885 0.53372 0.68982 0.0
O415 O 0.45955 0.50432 0.75089 0.0
O416 O 0.5253 0.568 0.6742 0.0
O417 O 0.50235 0.5769 0.81135 0.0
O418 O 0.54626 0.49642 0.58305 0.0
O419 O 0.57943 0.52406 0.64326 0.0
O420 O 0.53928 0.51424 0.87506 0.0
O421 O 0.56702 0.54538 0.81644 0.0
O422 O 0.50279 0.48016 0.88908 0.0
O423 O 0.52474 0.47164 0.75061 0.0
H424 H 0.40547 0.56164 0.92041 0.0
H425 H 0.37655 0.60302 0.97103 0.0
H426 H 0.43947 0.62064 0.18551 0.0
H427 H 0.46721 0.57864 0.13848 0.0
H428 H 0.58975 0.4677 0.71957 0.0
H429 H 0.619 0.42379 0.70394 0.0
H430 H 0.6321 0.44338 0.41352 0.0
H431 H 0.60284 0.48727 0.42992 0.0
Pr432 Pr 1.01825 0.49714 0.81469 0.0
Pr433 Pr 0.02674 0.54084 0.6728 0.0
C434 C 1.00284 0.46495 0.96345 0.0
C435 C 0.97918 0.44675 0.99999 0.0
C436 C 0.9722 0.4198 0.96072 0.0
C437 C 0.94903 0.40356 0.99549 0.0
C438 C 0.93251 0.41397 0.07002 0.0
C439 C 0.94002 0.44064 0.11013 0.0
C440 C 0.96326 0.45664 0.07621 0.0
C441 C 0.03034 0.47191 0.64177 0.0
C442 C 0.96073 0.51766 0.69177 0.0
C443 C 0.04117 0.57494 0.52772 0.0
C444 C 0.06275 0.59648 0.49786 0.0
C445 C 0.06818 0.62188 0.54846 0.0
C446 C 0.08997 0.64104 0.52014 0.0
C447 C 0.10687 0.63487 0.44157 0.0
C448 C 0.10044 0.60998 0.38945 0.0
C449 C 0.07856 0.59115 0.41701 0.0
C450 C 1.01602 0.56531 0.84793 0.0
C451 C 0.08494 0.51871 0.79021 0.0
O452 O 0.99773 0.49274 0.95641 0.0
O453 O 1.01827 0.45489 0.89488 0.0
O454 O 1.01344 0.49306 0.65429 0.0
O455 O 0.0415 0.46337 0.71986 0.0
O456 O 0.97977 0.528 0.63276 0.0
O457 O 0.96946 0.50791 0.77356 0.0
O458 O 0.05026 0.54826 0.5372 0.0
O459 O 0.02254 0.58255 0.59121 0.0
O460 O 0.03292 0.54447 0.8321 0.0
O461 O 1.00318 0.57344 0.77212 0.0
O462 O 0.06664 0.50653 0.84829 0.0
O463 O 0.07553 0.53092 0.71272 0.0
H464 H 0.98429 0.41145 0.90239 0.0
H465 H 0.94371 0.38311 0.9632 0.0
H466 H 0.92727 0.4498 0.16567 0.0
H467 H 0.96836 0.47719 0.10832 0.0
H468 H 0.056 0.62671 0.61062 0.0
H469 H 0.09383 0.66037 0.56043 0.0
H470 H 0.11312 0.60431 0.32906 0.0
H471 H 0.07451 0.57189 0.37632 0.0
C472 C 0.13358 0.03494 0.49026 0.0
C473 C 0.12577 1.02109 0.40692 0.0
C474 C 0.11379 0.03833 0.56327 0.0
C475 C 0.08532 0.02775 0.55693 0.0
H476 H 0.15561 0.04209 0.50125 0.0
H477 H 0.12133 0.04829 0.62677 0.0
S478 S 0.05246 0.99344 0.34972 0.0
N479 N 0.08628 0.9997 0.31894 0.0
N480 N 0.04945 1.00527 0.45728 0.0
C481 C 0.0767 1.01513 0.4726 0.0
C482 C 0.0968 1.01196 0.3976 0.0
C483 C 0.53445 0.09815 0.41133 0.0
C484 C 0.52209 0.12607 0.41278 0.0
C485 C 0.53023 0.07834 0.48457 0.0
C486 C 0.51329 0.08551 0.56223 0.0
H487 H 0.54829 0.0918 0.35433 0.0
H488 H 0.54113 0.05761 0.48165 0.0
S489 S 0.47459 0.155 0.59836 0.0
N490 N 0.49132 0.1593 0.49818 0.0
N491 N 0.4825 0.12187 0.63323 0.0
C492 C 0.4995 0.11271 0.56229 0.0
C493 C 0.50407 0.133 0.48833 0.0
C494 C 0.40168 0.51327 0.51849 0.0
C495 C 0.41105 0.52621 0.43491 0.0
C496 C 0.42056 0.50919 0.59393 0.0
C497 C 0.44962 0.51815 0.58983 0.0
H498 H 0.37922 0.50727 0.52739 0.0
H499 H 0.41192 0.49993 0.6573 0.0
S500 S 0.48626 0.54965 0.38385 0.0
N501 N 0.45248 0.54503 0.3498 0.0
N502 N 0.48756 0.53828 0.49263 0.0
C503 C 0.45968 0.52999 0.50568 0.0
C504 C 0.44053 0.53381 0.42824 0.0
C505 C 0.03453 0.40433 0.49183 0.0
C506 C 0.02279 0.41323 0.40592 0.0
C507 C 0.03787 0.4237 0.56598 0.0
C508 C 0.02925 0.45284 0.5585 0.0
H509 H 0.04013 0.38186 0.50365 0.0
H510 H 0.04629 0.41537 0.631 0.0
S511 S 1.00061 0.48843 0.34618 0.0
N512 N 1.00543 0.45439 0.31537 0.0
N513 N 1.01059 0.49032 0.45608 0.0
C514 C 1.01852 0.46244 0.4723 0.0
C515 C 1.01554 0.4428 0.39597 0.0
C516 C 0.93555 0.03714 0.06642 0.0
C517 C 0.91406 1.01602 0.08229 0.0
C518 C 0.95584 0.03425 0.99435 0.0
C519 C 0.95536 1.01023 0.93455 0.0
H520 H 0.93595 0.05675 0.10735 0.0
H521 H 0.97121 0.0516 0.98305 0.0
S522 S 0.90651 0.94682 0.95434 0.0
N523 N 0.89598 0.96857 0.03839 0.0
N524 N 0.93348 0.9636 0.90178 0.0
C525 C 0.93501 0.98829 0.95244 0.0
C526 C 0.91454 0.99107 0.02637 0.0
C527 C 0.54709 0.914 0.03501 0.0
C528 C 0.52422 0.91575 0.0993 0.0
C529 C 0.55049 0.93468 0.96402 0.0
C530 C 0.53122 0.95806 0.9542 0.0
H531 H 0.56206 0.896 0.03797 0.0
H532 H 0.56789 0.93177 0.91464 0.0
S533 S 0.46845 0.97353 0.10669 0.0
N534 N 0.48246 0.94347 0.14988 0.0
N535 N 0.48923 0.98258 1.01813 0.0
C536 C 0.50906 0.9609 0.02061 0.0
C537 C 0.50549 0.93972 0.09267 0.0
C538 C 0.62425 0.5458 0.04766 0.0
C539 C 0.6242 0.52202 0.10917 0.0
C540 C 0.60241 0.5495 0.98087 0.0
C541 C 0.57951 0.52959 0.97243 0.0
H542 H 0.64179 0.56133 0.04946 0.0
H543 H 0.60403 0.56768 0.93342 0.0
S544 S 0.56838 0.46426 0.11908 0.0
N545 N 0.59856 0.47869 0.15912 0.0
N546 N 0.55735 0.48591 0.03468 0.0
C547 C 0.57839 0.50643 0.03622 0.0
C548 C 0.60074 0.50259 0.10425 0.0
C549 C 1.00237 0.62819 1.01234 0.0
C550 C 0.02584 0.62691 0.07474 0.0
C551 C 0.9988 0.60756 0.94177 0.0
C552 C 1.01845 0.58459 0.93049 0.0
H553 H 0.9869 0.64573 1.01671 0.0
H554 H 0.98082 0.61007 0.89418 0.0
S555 S 0.08326 0.57066 0.07641 0.0
N556 N 0.06889 0.60022 0.12089 0.0
N557 N 0.06179 0.5612 0.99012 0.0
C558 C 0.0414 0.5823 0.99455 0.0
C559 C 0.04517 0.60347 0.06612 0.0
C560 C 0.88762 0.18726 0.50661 0.0
C561 C 0.88267 0.19575 0.4138 0.0
C562 C 0.89111 0.15805 0.53057 0.0
C563 C 0.88875 0.13628 0.4631 0.0
H564 H 0.89198 0.20337 0.55918 0.0
H565 H 0.89864 0.15292 0.59992 0.0
S566 S 0.86483 0.14596 0.21961 0.0
N567 N 0.86834 0.17917 0.2597 0.0
N568 N 0.87263 0.12436 0.30761 0.0
C569 C 0.87831 0.14408 0.37496 0.0
C570 C 0.87565 0.17384 0.34954 0.0
C571 C 0.35329 0.89432 0.56452 0.0
C572 C 0.34426 0.88627 0.47484 0.0
C573 C 0.38268 0.89569 0.58725 0.0
C574 C 0.40396 0.88811 0.52201 0.0
H575 H 0.33784 0.90287 0.61374 0.0
H576 H 0.38861 0.90579 0.65221 0.0
S577 S 0.3913 0.85451 0.29271 0.0
N578 N 0.3588 0.86337 0.32993 0.0
N579 N 0.41378 0.86376 0.37647 0.0
C580 C 0.39495 0.87453 0.43991 0.0
C581 C 0.36508 0.87399 0.41537 0.0
C582 C 0.62537 0.34979 0.53136 0.0
C583 C 0.64855 0.34414 0.47058 0.0
C584 C 0.62066 0.37742 0.56673 0.0
C585 C 0.63867 0.40065 0.5421 0.0
H586 H 0.60902 0.33358 0.54526 0.0
H587 H 0.60124 0.38109 0.60684 0.0
S588 S 0.70646 0.39602 0.4068 0.0
N589 N 0.6932 0.36284 0.40424 0.0
N590 N 0.68344 0.41545 0.46803 0.0
C591 C 0.66361 0.39485 0.48999 0.0
C592 C 0.66878 0.36643 0.4551 0.0
C593 C 0.16817 0.66232 0.29516 0.0
C594 C 0.19073 0.66445 0.36067 0.0
C595 C 0.13979 0.65656 0.32301 0.0
C596 C 0.13299 0.65206 0.4171 0.0
H597 H 0.17269 0.66182 0.22151 0.0
H598 H 0.12366 0.65271 0.26985 0.0
S599 S 0.18202 0.6655 0.6165 0.0
N600 N 0.2025 0.67051 0.52403 0.0
N601 N 0.14964 0.65712 0.57661 0.0
C602 C 0.15427 0.65869 0.48362 0.0
C603 C 0.18306 0.6655 0.45516 0.0
C604 C 0.15975 0.86649 0.18053 0.0
C605 C 0.16217 0.8444 0.11391 0.0
C606 C 0.15317 0.89491 0.1545 0.0
C607 C 0.14852 0.9024 0.06097 0.0
H608 H 0.15986 0.86146 0.25399 0.0
H609 H 0.14916 0.9105 0.20885 0.0
S610 S 0.16021 0.85438 0.85846 0.0
N611 N 0.16621 0.83342 0.94958 0.0
N612 N 0.15216 0.88658 0.90039 0.0
C613 C 0.15464 0.88147 0.993 0.0
C614 C 0.16188 0.85253 0.01963 0.0
C615 C 0.69595 0.16084 0.03062 0.0
C616 C 0.70194 0.15618 0.12537 0.0
C617 C 0.66821 0.15598 0.99443 0.0
C618 C 0.64552 0.14651 0.05193 0.0
H619 H 0.7133 0.16621 0.9831 0.0
H620 H 0.6649 0.15789 0.92021 0.0
S621 S 0.64927 0.13288 0.30539 0.0
N622 N 0.68218 0.14331 0.27669 0.0
N623 N 0.63035 0.13417 0.20839 0.0
C624 C 0.65065 0.14394 0.14765 0.0
C625 C 0.67879 0.14886 0.18453 0.0
C626 C 0.38345 0.67928 0.22613 0.0
C627 C 0.38001 0.70133 0.15919 0.0
C628 C 0.38889 0.65073 0.20006 0.0
C629 C 0.39119 0.64299 0.10607 0.0
H630 H 0.38508 0.68441 0.2992 0.0
H631 H 0.39379 0.63515 0.25423 0.0
S632 S 0.37619 0.69103 0.90439 0.0
N633 N 0.37273 0.71225 0.9956 0.0
N634 N 0.38434 0.65868 0.94598 0.0
C635 C 0.38405 0.66398 0.03864 0.0
C636 C 0.37811 0.69312 0.06543 0.0
C637 C 0.85656 0.38411 0.05928 0.0
C638 C 0.84768 0.38582 0.15254 0.0
C639 C 0.88504 0.39065 0.03344 0.0
C640 C 0.90564 0.39901 0.10008 0.0
H641 H 0.8408 0.38017 1.00512 0.0
H642 H 0.89018 0.39162 0.96018 0.0
S643 S 0.89524 0.4005 0.3552 0.0
N644 N 0.86319 0.39207 0.31302 0.0
N645 N 0.91665 0.40346 0.26426 0.0
C646 C 0.89796 0.3973 0.19426 0.0
C647 C 0.86901 0.39079 0.22063 0.0
C648 C 0.02339 0.14933 0.94209 0.0
C649 C 1.01058 0.17089 0.88611 0.0
C650 C 0.02635 0.12066 0.91128 0.0
C651 C 1.01661 0.11198 0.82287 0.0
H652 H 0.03035 0.15436 1.01197 0.0
H653 H 0.03588 0.10505 0.95849 0.0
S654 S 0.98336 0.16036 0.64575 0.0
N655 N 0.9897 0.1818 0.73488 0.0
N656 N 0.99471 0.12794 0.67777 0.0
C657 C 1.00443 0.13345 0.76496 0.0
C658 C 1.00152 0.16278 0.79631 0.0
C659 C 0.39365 0.02526 0.95975 0.0
C660 C 0.37251 1.01071 0.90721 0.0
C661 C 0.42209 0.02878 0.92713 0.0
C662 C 0.43084 1.01794 0.84021 0.0
H663 H 0.38852 0.03318 0.02842 0.0
H664 H 0.43748 0.0396 0.97176 0.0
S665 S 0.38333 0.97984 0.67206 0.0
N666 N 0.36197 0.98686 0.76088 0.0
N667 N 0.41533 0.993 0.70025 0.0
C668 C 0.40971 1.004 0.78567 0.0
C669 C 0.38067 1.00048 0.81894 0.0
C670 C 0.5135 0.39273 0.97554 0.0
C671 C 0.52259 0.3711 0.91351 0.0
C672 C 0.5102 0.42166 0.947 0.0
C673 C 0.51594 0.43048 0.85502 0.0
H674 H 0.50984 0.38751 0.04795 0.0
H675 H 0.50379 0.43737 0.99861 0.0
S676 S 0.53777 0.38196 0.66263 0.0
N677 N 0.53526 0.36025 0.75365 0.0
N678 N 0.5296 0.41463 0.70041 0.0
C679 C 0.5243 0.40896 0.79143 0.0
C680 C 0.5275 0.37937 0.8205 0.0
C681 C 0.156 0.50206 0.9127 0.0
C682 C 0.17355 0.52616 0.8916 0.0
C683 C 0.12783 0.49945 0.87715 0.0
C684 C 0.11598 0.52056 0.81752 0.0
H685 H 0.16388 0.48522 0.95873 0.0
H686 H 0.11506 0.48085 0.89776 0.0
S687 S 0.15244 0.58792 0.73931 0.0
N688 N 0.17651 0.57181 0.80673 0.0
N689 N 0.12408 0.56623 0.73749 0.0
C690 C 0.1335 0.54428 0.79289 0.0
C691 C 0.1621 0.54722 0.83034 0.0
C692 C 0.03674 0.87547 0.68759 0.0
C693 C 0.03212 0.86751 0.59427 0.0
C694 C 0.03335 0.90434 0.71745 0.0
C695 C 0.02522 0.92657 0.65531 0.0
H696 H 0.04315 0.85925 0.73805 0.0
H697 H 0.03725 0.90924 0.78982 0.0
S698 S 1.01245 0.91758 0.40192 0.0
N699 N 1.02039 0.88473 0.4392 0.0
N700 N 1.01356 0.93839 0.49457 0.0
C701 C 0.0206 0.91883 0.56166 0.0
C702 C 0.02413 0.88954 0.53146 0.0
C703 C 0.66678 0.0332 0.69907 0.0
C704 C 0.67462 0.02931 0.60534 0.0
C705 C 0.63777 0.03094 0.72841 0.0
C706 C 0.61533 0.02475 0.66523 0.0
H707 H 0.68322 0.03807 0.75024 0.0
H708 H 0.63293 0.03408 0.8012 0.0
S709 S 0.62401 1.01522 0.4105 0.0
N710 N 0.65716 1.02075 0.44881 0.0
N711 N 0.60314 1.01616 0.50318 0.0
C712 C 0.62293 1.02109 0.57112 0.0
C713 C 0.65236 0.02344 0.54146 0.0
C714 C 0.53315 0.65789 0.617 0.0
C715 C 0.50948 0.67599 0.63748 0.0
C716 C 0.53464 0.6293 0.65021 0.0
C717 C 0.51286 0.61759 0.70717 0.0
H718 H 0.55056 0.66566 0.57327 0.0
H719 H 0.55296 0.61614 0.63017 0.0
S720 S 0.44646 0.65546 0.78404 0.0
N721 N 0.46355 0.67961 0.71942 0.0
N722 N 0.46722 0.6264 0.78506 0.0
C723 C 0.48964 0.63563 0.7317 0.0
C724 C 0.48776 0.66466 0.69628 0.0
C725 C 0.8783 0.50894 0.70098 0.0
C726 C 0.86995 0.5116 0.60711 0.0
C727 C 0.90755 0.51097 0.7282 0.0
C728 C 0.92969 0.51566 0.66267 0.0
H729 H 0.86207 0.50527 0.75385 0.0
H730 H 0.9128 0.5089 0.80121 0.0
S731 S 0.91958 0.52113 0.40692 0.0
N732 N 0.88657 0.51713 0.44818 0.0
N733 N 0.94103 0.5212 0.49845 0.0
C734 C 0.92158 0.51794 0.56839 0.0
C735 C 0.89191 0.51585 0.54094 0.0
loop_
_geom_bond_atom_site_label_1
_geom_bond_atom_site_label_2
_geom_bond_distance
_geom_bond_site_symmetry_2
_ccdc_geom_bond_type
C0 C1 1.386 . S
C0 C2 1.397 . S
C0 H24 0.931 . S
C1 C0 1.386 . S
C1 C5 1.397 . S
C2 C0 1.397 . S
C2 C3 1.384 . S
C2 H25 0.930 . S
C3 C2 1.384 . S
C3 C4 1.377 . S
C3 C6 1.481 . S
C4 C3 1.377 . S
C4 C5 1.389 . S
C4 H26 0.929 . S
C5 C1 1.397 . S
C5 C4 1.389 . S
C5 H27 0.931 . S
C6 C3 1.481 . S
C6 C7 1.387 . S
C6 C11 1.390 . S
C7 C6 1.387 . S
C7 C8 1.401 . S
C7 H28 0.930 . S
C8 C7 1.401 . S
C8 C9 1.376 . S
C8 C17 1.511 . S
C9 C8 1.376 . S
C9 C10 1.392 . S
C9 H30 0.931 . S
C10 C9 1.392 . S
C10 C11 1.361 . S
C10 C12 1.500 . S
C11 C6 1.390 . S
C11 C10 1.361 . S
C11 H29 0.931 . S
C12 C10 1.500 . S
C12 C13 1.371 . S
C12 C14 1.365 . S
C13 C12 1.371 . S
C13 C23 1.386 . S
C13 H31 0.931 . S
C14 C12 1.365 . S
C14 C15 1.409 . S
C14 H32 0.929 . S
C15 C14 1.409 . S
C15 C16 1.380 . S
C15 H33 0.930 . S
C16 C15 1.380 . S
C16 C23 1.357 . S
C17 C8 1.511 . S
C17 C18 1.341 . S
C17 C19 1.371 . S
C18 C17 1.341 . S
C18 C22 1.394 . S
C18 H34 0.930 . S
C19 C17 1.371 . S
C19 C20 1.392 . S
C19 H35 0.931 . S
C20 C19 1.392 . S
C20 C21 1.331 . S
C20 H38 0.932 . S
C21 C20 1.331 . S
C21 C22 1.336 . S
C22 C18 1.394 . S
C22 C21 1.336 . S
C22 H37 0.929 . S
C23 C13 1.386 . S
C23 C16 1.357 . S
C23 H36 0.928 . S
H24 C0 0.931 . S
H25 C2 0.930 . S
H26 C4 0.929 . S
H27 C5 0.931 . S
H28 C7 0.930 . S
H29 C11 0.931 . S
H30 C9 0.931 . S
H31 C13 0.931 . S
H32 C14 0.929 . S
H33 C15 0.930 . S
H34 C18 0.930 . S
H35 C19 0.931 . S
H36 C23 0.928 . S
H37 C22 0.929 . S
H38 C20 0.932 . S
C39 C40 1.394 . S
C39 C41 1.397 . S
C39 H63 0.931 . S
C40 C39 1.394 . S
C40 C44 1.389 1_655 S
C41 C39 1.397 . S
C41 C42 1.389 . S
C41 H64 0.930 . S
C42 C41 1.389 . S
C42 C43 1.373 1_655 S
C42 C45 1.480 . S
C43 C42 1.373 1_455 S
C43 C44 1.389 . S
C43 H65 0.929 . S
C44 C40 1.389 1_455 S
C44 C43 1.389 . S
C44 H66 0.931 . S
C45 C42 1.480 . S
C45 C46 1.388 . S
C45 C50 1.390 . S
C46 C45 1.388 . S
C46 C47 1.402 . S
C46 H67 0.930 . S
C47 C46 1.402 . S
C47 C48 1.377 . S
C47 C56 1.513 . S
C48 C47 1.377 . S
C48 C49 1.392 . S
C48 H69 0.931 . S
C49 C48 1.392 . S
C49 C50 1.361 . S
C49 C51 1.499 1_655 S
C50 C45 1.390 . S
C50 C49 1.361 . S
C50 H68 0.931 . S
C51 C49 1.499 1_455 S
C51 C52 1.361 1_455 S
C51 C53 1.376 . S
C52 C51 1.361 1_655 S
C52 C62 1.386 . S
C52 H70 0.931 . S
C53 C51 1.376 . S
C53 C54 1.409 . S
C53 H71 0.929 . S
C54 C53 1.409 . S
C54 C55 1.380 . S
C54 H72 0.930 . S
C55 C54 1.380 . S
C55 C62 1.357 1_455 S
C56 C47 1.513 . S
C56 C57 1.341 . S
C56 C58 1.371 1_655 S
C57 C56 1.341 . S
C57 C61 1.394 . S
C57 H73 0.930 . S
C58 C56 1.371 1_455 S
C58 C59 1.392 . S
C58 H74 0.931 . S
C59 C58 1.392 . S
C59 C60 1.322 1_455 S
C59 H77 0.932 . S
C60 C59 1.322 1_655 S
C60 C61 1.345 . S
C61 C57 1.394 . S
C61 C60 1.345 . S
C61 H76 0.929 . S
C62 C52 1.386 . S
C62 C55 1.357 1_655 S
C62 H75 0.928 . S
H63 C39 0.931 . S
H64 C41 0.930 . S
H65 C43 0.929 . S
H66 C44 0.931 . S
H67 C46 0.930 . S
H68 C50 0.931 . S
H69 C48 0.931 . S
H70 C52 0.931 . S
H71 C53 0.929 . S
H72 C54 0.930 . S
H73 C57 0.930 . S
H74 C58 0.931 . S
H75 C62 0.928 . S
H76 C61 0.929 . S
H77 C59 0.932 . S
C78 C79 1.394 . S
C78 C80 1.397 . S
C78 H102 0.931 . S
C79 C78 1.394 . S
C79 C83 1.389 1_565 S
C80 C78 1.397 . S
C80 C81 1.389 . S
C80 H103 0.930 . S
C81 C80 1.389 . S
C81 C82 1.373 1_565 S
C81 C84 1.481 . S
C82 C81 1.373 1_545 S
C82 C83 1.389 . S
C82 H104 0.929 . S
C83 C79 1.389 1_545 S
C83 C82 1.389 . S
C83 H105 0.931 . S
C84 C81 1.481 . S
C84 C85 1.389 . S
C84 C89 1.390 . S
C85 C84 1.389 . S
C85 C86 1.403 . S
C85 H106 0.930 . S
C86 C85 1.403 . S
C86 C87 1.377 . S
C86 C95 1.513 . S
C87 C86 1.377 . S
C87 C88 1.392 . S
C87 H108 0.931 . S
C88 C87 1.392 . S
C88 C89 1.361 . S
C88 C90 1.499 1_565 S
C89 C84 1.390 . S
C89 C88 1.361 . S
C89 H107 0.931 . S
C90 C88 1.499 1_545 S
C90 C91 1.361 1_545 S
C90 C92 1.376 . S
C91 C90 1.361 1_565 S
C91 C101 1.386 . S
C91 H109 0.931 . S
C92 C90 1.376 . S
C92 C93 1.409 . S
C92 H110 0.929 . S
C93 C92 1.409 . S
C93 C94 1.380 . S
C93 H111 0.930 . S
C94 C93 1.380 . S
C94 C101 1.357 1_545 S
C95 C86 1.513 . S
C95 C96 1.341 . S
C95 C97 1.371 1_565 S
C96 C95 1.341 . S
C96 C100 1.394 . S
C96 H112 0.930 . S
C97 C95 1.371 1_545 S
C97 C98 1.392 . S
C97 H113 0.931 . S
C98 C97 1.392 . S
C98 C99 1.322 1_545 S
C98 H116 0.932 . S
C99 C98 1.322 1_565 S
C99 C100 1.345 . S
C100 C96 1.394 . S
C100 C99 1.345 . S
C100 H115 0.929 . S
C101 C91 1.386 . S
C101 C94 1.357 1_565 S
C101 H114 0.928 . S
H102 C78 0.931 . S
H103 C80 0.930 . S
H104 C82 0.929 . S
H105 C83 0.931 . S
H106 C85 0.930 . S
H107 C89 0.931 . S
H108 C87 0.931 . S
H109 C91 0.931 . S
H110 C92 0.929 . S
H111 C93 0.930 . S
H112 C96 0.930 . S
H113 C97 0.931 . S
H114 C101 0.928 . S
H115 C100 0.929 . S
H116 C98 0.932 . S
C117 C118 1.386 . S
C117 C119 1.397 . S
C117 H141 0.931 . S
C118 C117 1.386 . S
C118 C122 1.397 . S
C119 C117 1.397 . S
C119 C120 1.384 . S
C119 H142 0.930 . S
C120 C119 1.384 . S
C120 C121 1.377 . S
C120 C123 1.481 . S
C121 C120 1.377 . S
C121 C122 1.389 . S
C121 H143 0.929 . S
C122 C118 1.397 . S
C122 C121 1.389 . S
C122 H144 0.931 . S
C123 C120 1.481 . S
C123 C124 1.387 . S
C123 C128 1.390 . S
C124 C123 1.387 . S
C124 C125 1.401 . S
C124 H145 0.930 . S
C125 C124 1.401 . S
C125 C126 1.376 . S
C125 C134 1.511 . S
C126 C125 1.376 . S
C126 C127 1.392 . S
C126 H147 0.931 . S
C127 C126 1.392 . S
C127 C128 1.361 . S
C127 C129 1.500 . S
C128 C123 1.390 . S
C128 C127 1.361 . S
C128 H146 0.931 . S
C129 C127 1.500 . S
C129 C130 1.371 . S
C129 C131 1.365 . S
C130 C129 1.371 . S
C130 C140 1.386 . S
C130 H148 0.931 . S
C131 C129 1.365 . S
C131 C132 1.409 . S
C131 H149 0.929 . S
C132 C131 1.409 . S
C132 C133 1.380 . S
C132 H150 0.930 . S
C133 C132 1.380 . S
C133 C140 1.357 . S
C134 C125 1.511 . S
C134 C135 1.341 . S
C134 C136 1.371 . S
C135 C134 1.341 . S
C135 C139 1.394 . S
C135 H151 0.930 . S
C136 C134 1.371 . S
C136 C137 1.392 . S
C136 H152 0.931 . S
C137 C136 1.392 . S
C137 C138 1.331 . S
C137 H155 0.932 . S
C138 C137 1.331 . S
C138 C139 1.336 . S
C139 C135 1.394 . S
C139 C138 1.336 . S
C139 H154 0.929 . S
C140 C130 1.386 . S
C140 C133 1.357 . S
C140 H153 0.928 . S
H141 C117 0.931 . S
H142 C119 0.930 . S
H143 C121 0.929 . S
H144 C122 0.931 . S
H145 C124 0.930 . S
H146 C128 0.931 . S
H147 C126 0.931 . S
H148 C130 0.931 . S
H149 C131 0.929 . S
H150 C132 0.930 . S
H151 C135 0.930 . S
H152 C136 0.931 . S
H153 C140 0.928 . S
H154 C139 0.929 . S
H155 C137 0.932 . S
C156 C157 1.386 . S
C156 C158 1.397 . S
C156 H180 0.931 . S
C157 C156 1.386 . S
C157 C161 1.397 . S
C158 C156 1.397 . S
C158 C159 1.384 . S
C158 H181 0.930 . S
C159 C158 1.384 . S
C159 C160 1.377 . S
C159 C162 1.481 . S
C160 C159 1.377 . S
C160 C161 1.389 . S
C160 H182 0.929 . S
C161 C157 1.397 . S
C161 C160 1.389 . S
C161 H183 0.931 . S
C162 C159 1.481 . S
C162 C163 1.387 . S
C162 C167 1.390 . S
C163 C162 1.387 . S
C163 C164 1.401 . S
C163 H184 0.930 . S
C164 C163 1.401 . S
C164 C165 1.376 1_554 S
C164 C173 1.511 . S
C165 C164 1.376 1_556 S
C165 C166 1.392 . S
C165 H186 0.931 . S
C166 C165 1.392 . S
C166 C167 1.361 1_556 S
C166 C168 1.500 . S
C167 C162 1.390 . S
C167 C166 1.361 1_554 S
C167 H185 0.931 . S
C168 C166 1.500 . S
C168 C169 1.371 . S
C168 C170 1.365 . S
C169 C168 1.371 . S
C169 C179 1.386 . S
C169 H187 0.931 . S
C170 C168 1.365 . S
C170 C171 1.409 . S
C170 H188 0.929 . S
C171 C170 1.409 . S
C171 C172 1.380 . S
C171 H189 0.930 . S
C172 C171 1.380 . S
C172 C179 1.357 . S
C173 C164 1.511 . S
C173 C174 1.341 . S
C173 C175 1.371 . S
C174 C173 1.341 . S
C174 C178 1.394 . S
C174 H190 0.930 . S
C175 C173 1.371 . S
C175 C176 1.392 . S
C175 H191 0.931 1_554 S
C176 C175 1.392 . S
C176 C177 1.331 . S
C176 H194 0.932 . S
C177 C176 1.331 . S
C177 C178 1.336 . S
C178 C174 1.394 . S
C178 C177 1.336 . S
C178 H193 0.929 . S
C179 C169 1.386 . S
C179 C172 1.357 . S
C179 H192 0.928 . S
H180 C156 0.931 . S
H181 C158 0.930 . S
H182 C160 0.929 . S
H183 C161 0.931 . S
H184 C163 0.930 . S
H185 C167 0.931 . S
H186 C165 0.931 . S
H187 C169 0.931 . S
H188 C170 0.929 . S
H189 C171 0.930 . S
H190 C174 0.930 . S
H191 C175 0.931 1_556 S
H192 C179 0.928 . S
H193 C178 0.929 . S
H194 C176 0.932 . S
C195 C196 1.389 . S
C195 C197 1.397 . S
C195 H219 0.931 . S
C196 C195 1.389 . S
C196 C200 1.395 1_655 S
C197 C195 1.397 . S
C197 C198 1.383 . S
C197 H220 0.930 . S
C198 C197 1.383 . S
C198 C199 1.378 1_655 S
C198 C201 1.480 . S
C199 C198 1.378 1_455 S
C199 C200 1.389 . S
C199 H221 0.929 . S
C200 C196 1.395 1_455 S
C200 C199 1.389 . S
C200 H222 0.931 . S
C201 C198 1.480 . S
C201 C202 1.388 . S
C201 C206 1.390 . S
C202 C201 1.388 . S
C202 C203 1.402 . S
C202 H223 0.930 . S
C203 C202 1.402 . S
C203 C204 1.376 1_554 S
C203 C212 1.512 . S
C204 C203 1.376 1_556 S
C204 C205 1.392 1_655 S
C204 H225 0.934 . S
C205 C204 1.392 1_455 S
C205 C206 1.361 1_456 S
C205 C207 1.499 . S
C206 C201 1.390 . S
C206 C205 1.361 1_654 S
C206 H224 0.931 . S
C207 C205 1.499 . S
C207 C208 1.357 1_455 S
C207 C209 1.380 . S
C208 C207 1.357 1_655 S
C208 C218 1.386 . S
C208 H226 0.931 . S
C209 C207 1.380 . S
C209 C210 1.409 . S
C209 H227 0.929 . S
C210 C209 1.409 . S
C210 C211 1.384 . S
C210 H228 0.930 . S
C211 C210 1.384 . S
C211 C218 1.353 1_455 S
C212 C203 1.512 . S
C212 C213 1.341 . S
C212 C214 1.371 1_655 S
C213 C212 1.341 . S
C213 C217 1.394 . S
C213 H229 0.930 . S
C214 C212 1.371 1_455 S
C214 C215 1.392 . S
C214 H230 0.931 1_554 S
C215 C214 1.392 . S
C215 C216 1.325 1_455 S
C215 H233 0.932 . S
C216 C215 1.325 1_655 S
C216 C217 1.342 . S
C217 C213 1.394 . S
C217 C216 1.342 . S
C217 H232 0.929 . S
C218 C208 1.386 . S
C218 C211 1.353 1_655 S
C218 H231 0.928 . S
H219 C195 0.931 . S
H220 C197 0.930 . S
H221 C199 0.929 . S
H222 C200 0.931 . S
H223 C202 0.930 . S
H224 C206 0.931 . S
H225 C204 0.934 . S
H226 C208 0.931 . S
H227 C209 0.929 . S
H228 C210 0.930 . S
H229 C213 0.930 . S
H230 C214 0.931 1_556 S
H231 C218 0.928 . S
H232 C217 0.929 . S
H233 C215 0.932 . S
C234 C235 1.389 . S
C234 C236 1.397 . S
C234 H258 0.931 . S
C235 C234 1.389 . S
C235 C239 1.395 1_565 S
C236 C234 1.397 . S
C236 C237 1.383 . S
C236 H259 0.930 . S
C237 C236 1.383 . S
C237 C238 1.378 1_565 S
C237 C240 1.480 . S
C238 C237 1.378 1_545 S
C238 C239 1.389 . S
C238 H260 0.929 . S
C239 C235 1.395 1_545 S
C239 C238 1.389 . S
C239 H261 0.931 . S
C240 C237 1.480 . S
C240 C241 1.388 . S
C240 C245 1.390 . S
C241 C240 1.388 . S
C241 C242 1.402 . S
C241 H262 0.930 . S
C242 C241 1.402 . S
C242 C243 1.376 1_554 S
C242 C251 1.512 . S
C243 C242 1.376 1_556 S
C243 C244 1.392 1_565 S
C243 H264 0.934 . S
C244 C243 1.392 1_545 S
C244 C245 1.361 1_546 S
C244 C246 1.499 . S
C245 C240 1.390 . S
C245 C244 1.361 1_564 S
C245 H263 0.931 . S
C246 C244 1.499 . S
C246 C247 1.357 1_545 S
C246 C248 1.380 . S
C247 C246 1.357 1_565 S
C247 C257 1.386 . S
C247 H265 0.931 . S
C248 C246 1.380 . S
C248 C249 1.409 . S
C248 H266 0.929 . S
C249 C248 1.409 . S
C249 C250 1.384 . S
C249 H267 0.930 . S
C250 C249 1.384 . S
C250 C257 1.353 1_545 S
C251 C242 1.512 . S
C251 C252 1.341 . S
C251 C253 1.371 1_565 S
C252 C251 1.341 . S
C252 C256 1.394 . S
C252 H268 0.930 . S
C253 C251 1.371 1_545 S
C253 C254 1.392 . S
C253 H269 0.931 1_554 S
C254 C253 1.392 . S
C254 C255 1.325 1_545 S
C254 H272 0.932 . S
C255 C254 1.325 1_565 S
C255 C256 1.342 . S
C256 C252 1.394 . S
C256 C255 1.342 . S
C256 H271 0.929 . S
C257 C247 1.386 . S
C257 C250 1.353 1_565 S
C257 H270 0.928 . S
H258 C234 0.931 . S
H259 C236 0.930 . S
H260 C238 0.929 . S
H261 C239 0.931 . S
H262 C241 0.930 . S
H263 C245 0.931 . S
H264 C243 0.934 . S
H265 C247 0.931 . S
H266 C248 0.929 . S
H267 C249 0.930 . S
H268 C252 0.930 . S
H269 C253 0.931 1_556 S
H270 C257 0.928 . S
H271 C256 0.929 . S
H272 C254 0.932 . S
C273 C274 1.386 . S
C273 C275 1.397 . S
C273 H297 0.931 . S
C274 C273 1.386 . S
C274 C278 1.397 . S
C275 C273 1.397 . S
C275 C276 1.384 . S
C275 H298 0.930 . S
C276 C275 1.384 . S
C276 C277 1.377 . S
C276 C279 1.481 . S
C277 C276 1.377 . S
C277 C278 1.389 . S
C277 H299 0.929 . S
C278 C274 1.397 . S
C278 C277 1.389 . S
C278 H300 0.931 . S
C279 C276 1.481 . S
C279 C280 1.387 . S
C279 C284 1.390 1_556 S
C280 C279 1.387 . S
C280 C281 1.401 1_556 S
C280 H301 0.930 . S
C281 C280 1.401 1_554 S
C281 C282 1.376 . S
C281 C290 1.511 . S
C282 C281 1.376 . S
C282 C283 1.392 . S
C282 H303 0.931 . S
C283 C282 1.392 . S
C283 C284 1.361 . S
C283 C285 1.500 . S
C284 C279 1.390 1_554 S
C284 C283 1.361 . S
C284 H302 0.931 . S
C285 C283 1.500 . S
C285 C286 1.371 . S
C285 C287 1.365 . S
C286 C285 1.371 . S
C286 C296 1.386 . S
C286 H304 0.931 . S
C287 C285 1.365 . S
C287 C288 1.409 . S
C287 H305 0.929 . S
C288 C287 1.409 . S
C288 C289 1.380 . S
C288 H306 0.930 . S
C289 C288 1.380 . S
C289 C296 1.357 . S
C290 C281 1.511 . S
C290 C291 1.341 . S
C290 C292 1.371 . S
C291 C290 1.341 . S
C291 C295 1.394 . S
C291 H307 0.930 1_554 S
C292 C290 1.371 . S
C292 C293 1.392 . S
C292 H308 0.931 . S
C293 C292 1.392 . S
C293 C294 1.331 . S
C293 H311 0.932 . S
C294 C293 1.331 . S
C294 C295 1.336 . S
C295 C291 1.394 . S
C295 C294 1.336 . S
C295 H310 0.929 . S
C296 C286 1.386 . S
C296 C289 1.357 . S
C296 H309 0.928 . S
H297 C273 0.931 . S
H298 C275 0.930 . S
H299 C277 0.929 . S
H300 C278 0.931 . S
H301 C280 0.930 . S
H302 C284 0.931 . S
H303 C282 0.931 . S
H304 C286 0.931 . S
H305 C287 0.929 . S
H306 C288 0.930 . S
H307 C291 0.930 1_556 S
H308 C292 0.931 . S
H309 C296 0.928 . S
H310 C295 0.929 . S
H311 C293 0.932 . S
Pr312 C314 2.880 . S
Pr312 O332 2.562 . S
Pr312 O333 2.490 . S
Pr312 O334 2.695 1_565 S
Pr312 O335 2.512 . S
Pr312 O337 2.437 . S
Pr312 O340 2.436 1_455 S
Pr312 O342 2.438 1_565 S
Pr313 C323 2.880 . S
Pr313 O334 2.436 1_655 S
Pr313 O336 2.438 1_545 S
Pr313 O338 2.562 . S
Pr313 O339 2.490 . S
Pr313 O340 2.695 1_545 S
Pr313 O341 2.512 . S
Pr313 O343 2.437 . S
C314 Pr312 2.880 . S
C314 C315 1.491 . S
C314 O332 1.254 . S
C314 O333 1.225 . S
C315 C314 1.491 . S
C315 C316 1.392 . S
C315 C320 1.356 1_556 S
C316 C315 1.392 . S
C316 C317 1.368 1_556 S
C316 H344 0.929 . S
C317 C316 1.368 1_554 S
C317 C318 1.386 . S
C317 H345 0.929 . S
C318 C317 1.386 . S
C318 C319 1.373 . S
C319 C318 1.373 . S
C319 C320 1.409 . S
C319 H346 0.931 . S
C320 C315 1.356 1_554 S
C320 C319 1.409 . S
C320 H347 0.930 1_454 S
C321 O334 1.270 1_565 S
C321 O335 1.248 . S
C322 O336 1.267 . S
C322 O337 1.278 1_655 S
C323 Pr313 2.880 . S
C323 C324 1.491 . S
C323 O338 1.254 . S
C323 O339 1.225 . S
C324 C323 1.491 . S
C324 C325 1.392 . S
C324 C329 1.356 . S
C325 C324 1.392 . S
C325 C326 1.368 . S
C325 H348 0.929 . S
C326 C325 1.368 . S
C326 C327 1.386 . S
C326 H349 0.929 . S
C327 C326 1.386 . S
C327 C328 1.373 . S
C328 C327 1.373 . S
C328 C329 1.409 . S
C328 H350 0.931 . S
C329 C324 1.356 . S
C329 C328 1.409 . S
C329 H351 0.930 1_655 S
C330 O340 1.270 1_545 S
C330 O341 1.248 . S
C331 O342 1.267 . S
C331 O343 1.278 1_455 S
O332 Pr312 2.562 . S
O332 C314 1.254 . S
O333 Pr312 2.490 . S
O333 C314 1.225 . S
O334 Pr312 2.695 1_545 S
O334 Pr313 2.436 1_455 S
O334 C321 1.270 1_545 S
O335 Pr312 2.512 . S
O335 C321 1.248 . S
O336 Pr313 2.438 1_565 S
O336 C322 1.267 . S
O337 Pr312 2.437 . S
O337 C322 1.278 1_455 S
O338 Pr313 2.562 . S
O338 C323 1.254 . S
O339 Pr313 2.490 . S
O339 C323 1.225 . S
O340 Pr312 2.436 1_655 S
O340 Pr313 2.695 1_565 S
O340 C330 1.270 1_565 S
O341 Pr313 2.512 . S
O341 C330 1.248 . S
O342 Pr312 2.438 1_545 S
O342 C331 1.267 . S
O343 Pr313 2.437 . S
O343 C331 1.278 1_655 S
H344 C316 0.929 . S
H345 C317 0.929 . S
H346 C319 0.931 . S
H347 C320 0.930 1_656 S
H348 C325 0.929 . S
H349 C326 0.929 . S
H350 C328 0.931 . S
H351 C329 0.930 1_455 S
Pr352 C354 2.880 . S
Pr352 O372 2.562 . S
Pr352 O373 2.490 . S
Pr352 O374 2.695 . S
Pr352 O375 2.512 . S
Pr352 O377 2.437 . S
Pr352 O380 2.436 1_545 S
Pr352 O382 2.438 . S
Pr353 C363 2.880 . S
Pr353 O374 2.436 1_565 S
Pr353 O376 2.438 . S
Pr353 O378 2.562 . S
Pr353 O379 2.490 . S
Pr353 O380 2.695 . S
Pr353 O381 2.512 . S
Pr353 O383 2.437 . S
C354 Pr352 2.880 . S
C354 C355 1.491 . S
C354 O372 1.254 . S
C354 O373 1.225 . S
C355 C354 1.491 . S
C355 C356 1.392 . S
C355 C360 1.356 1_556 S
C356 C355 1.392 . S
C356 C357 1.368 1_556 S
C356 H384 0.929 . S
C357 C356 1.368 1_554 S
C357 C358 1.386 . S
C357 H385 0.929 . S
C358 C357 1.386 . S
C358 C359 1.373 . S
C359 C358 1.373 . S
C359 C360 1.409 . S
C359 H386 0.931 . S
C360 C355 1.356 1_554 S
C360 C359 1.409 . S
C360 H387 0.930 1_544 S
C361 O374 1.270 . S
C361 O375 1.248 . S
C362 O376 1.267 . S
C362 O377 1.278 1_565 S
C363 Pr353 2.880 . S
C363 C364 1.491 . S
C363 O378 1.254 . S
C363 O379 1.225 . S
C364 C363 1.491 . S
C364 C365 1.392 . S
C364 C369 1.356 . S
C365 C364 1.392 . S
C365 C366 1.368 . S
C365 H388 0.929 . S
C366 C365 1.368 . S
C366 C367 1.386 . S
C366 H389 0.929 . S
C367 C366 1.386 . S
C367 C368 1.373 . S
C368 C367 1.373 . S
C368 C369 1.409 . S
C368 H390 0.931 . S
C369 C364 1.356 . S
C369 C368 1.409 . S
C369 H391 0.930 1_565 S
C370 O380 1.270 . S
C370 O381 1.248 . S
C371 O382 1.267 . S
C371 O383 1.278 1_545 S
O372 Pr352 2.562 . S
O372 C354 1.254 . S
O373 Pr352 2.490 . S
O373 C354 1.225 . S
O374 Pr352 2.695 . S
O374 Pr353 2.436 1_545 S
O374 C361 1.270 . S
O375 Pr352 2.512 . S
O375 C361 1.248 . S
O376 Pr353 2.438 . S
O376 C362 1.267 . S
O377 Pr352 2.437 . S
O377 C362 1.278 1_545 S
O378 Pr353 2.562 . S
O378 C363 1.254 . S
O379 Pr353 2.490 . S
O379 C363 1.225 . S
O380 Pr352 2.436 1_565 S
O380 Pr353 2.695 . S
O380 C370 1.270 . S
O381 Pr353 2.512 . S
O381 C370 1.248 . S
O382 Pr352 2.438 . S
O382 C371 1.267 . S
O383 Pr353 2.437 . S
O383 C371 1.278 1_565 S
H384 C356 0.929 . S
H385 C357 0.929 . S
H386 C359 0.931 . S
H387 C360 0.930 1_566 S
H388 C365 0.929 . S
H389 C366 0.929 . S
H390 C368 0.931 . S
H391 C369 0.930 1_545 S
Pr392 C394 2.880 . S
Pr392 O412 2.562 . S
Pr392 O413 2.490 . S
Pr392 O414 2.695 . S
Pr392 O415 2.512 . S
Pr392 O417 2.437 . S
Pr392 O420 2.436 . S
Pr392 O422 2.438 . S
Pr393 C403 2.880 . S
Pr393 O414 2.436 . S
Pr393 O416 2.438 . S
Pr393 O418 2.562 . S
Pr393 O419 2.490 . S
Pr393 O420 2.695 . S
Pr393 O421 2.512 . S
Pr393 O423 2.437 . S
C394 Pr392 2.880 . S
C394 C395 1.491 . S
C394 O412 1.254 . S
C394 O413 1.225 . S
C395 C394 1.491 . S
C395 C396 1.392 . S
C395 C400 1.356 1_556 S
C396 C395 1.392 . S
C396 C397 1.368 1_556 S
C396 H424 0.929 . S
C397 C396 1.368 1_554 S
C397 C398 1.386 . S
C397 H425 0.929 . S
C398 C397 1.386 . S
C398 C399 1.373 . S
C399 C398 1.373 . S
C399 C400 1.409 . S
C399 H426 0.931 . S
C400 C395 1.356 1_554 S
C400 C399 1.409 . S
C400 H427 0.930 . S
C401 O414 1.270 . S
C401 O415 1.248 . S
C402 O416 1.267 . S
C402 O417 1.278 . S
C403 Pr393 2.880 . S
C403 C404 1.491 . S
C403 O418 1.254 . S
C403 O419 1.225 . S
C404 C403 1.491 . S
C404 C405 1.392 . S
C404 C409 1.356 . S
C405 C404 1.392 . S
C405 C406 1.368 . S
C405 H428 0.929 . S
C406 C405 1.368 . S
C406 C407 1.386 . S
C406 H429 0.929 . S
C407 C406 1.386 . S
C407 C408 1.373 . S
C408 C407 1.373 . S
C408 C409 1.409 . S
C408 H430 0.931 . S
C409 C404 1.356 . S
C409 C408 1.409 . S
C409 H431 0.930 . S
C410 O420 1.270 . S
C410 O421 1.248 . S
C411 O422 1.267 . S
C411 O423 1.278 . S
O412 Pr392 2.562 . S
O412 C394 1.254 . S
O413 Pr392 2.490 . S
O413 C394 1.225 . S
O414 Pr392 2.695 . S
O414 Pr393 2.436 . S
O414 C401 1.270 . S
O415 Pr392 2.512 . S
O415 C401 1.248 . S
O416 Pr393 2.438 . S
O416 C402 1.267 . S
O417 Pr392 2.437 . S
O417 C402 1.278 . S
O418 Pr393 2.562 . S
O418 C403 1.254 . S
O419 Pr393 2.490 . S
O419 C403 1.225 . S
O420 Pr392 2.436 . S
O420 Pr393 2.695 . S
O420 C410 1.270 . S
O421 Pr393 2.512 . S
O421 C410 1.248 . S
O422 Pr392 2.438 . S
O422 C411 1.267 . S
O423 Pr393 2.437 . S
O423 C411 1.278 . S
H424 C396 0.929 . S
H425 C397 0.929 . S
H426 C399 0.931 . S
H427 C400 0.930 . S
H428 C405 0.929 . S
H429 C406 0.929 . S
H430 C408 0.931 . S
H431 C409 0.930 . S
Pr432 C434 2.880 . S
Pr432 O452 2.562 . S
Pr432 O453 2.490 . S
Pr432 O454 2.695 1_655 S
Pr432 O455 2.512 . S
Pr432 O457 2.437 . S
Pr432 O460 2.436 . S
Pr432 O462 2.438 1_655 S
Pr433 C443 2.880 . S
Pr433 O454 2.436 . S
Pr433 O456 2.438 1_455 S
Pr433 O458 2.562 . S
Pr433 O459 2.490 . S
Pr433 O460 2.695 1_455 S
Pr433 O461 2.512 . S
Pr433 O463 2.437 . S
C434 Pr432 2.880 . S
C434 C435 1.491 . S
C434 O452 1.254 . S
C434 O453 1.225 . S
C435 C434 1.491 . S
C435 C436 1.392 . S
C435 C440 1.356 1_556 S
C436 C435 1.392 . S
C436 C437 1.368 1_556 S
C436 H464 0.929 . S
C437 C436 1.368 1_554 S
C437 C438 1.386 . S
C437 H465 0.929 . S
C438 C437 1.386 . S
C438 C439 1.373 . S
C439 C438 1.373 . S
C439 C440 1.409 . S
C439 H466 0.931 . S
C440 C435 1.356 1_554 S
C440 C439 1.409 . S
C440 H467 0.930 1_554 S
C441 O454 1.266 1_655 S
C441 O455 1.256 . S
C442 O456 1.267 . S
C442 O457 1.278 . S
C443 Pr433 2.880 . S
C443 C444 1.491 . S
C443 O458 1.254 . S
C443 O459 1.225 . S
C444 C443 1.491 . S
C444 C445 1.392 . S
C444 C449 1.356 . S
C445 C444 1.392 . S
C445 C446 1.368 . S
C445 H468 0.929 . S
C446 C445 1.368 . S
C446 C447 1.386 . S
C446 H469 0.929 . S
C447 C446 1.386 . S
C447 C448 1.373 . S
C448 C447 1.373 . S
C448 C449 1.409 . S
C448 H470 0.931 . S
C449 C444 1.356 . S
C449 C448 1.409 . S
C449 H471 0.930 . S
C450 O460 1.263 1_455 S
C450 O461 1.261 . S
C451 O462 1.267 . S
C451 O463 1.278 . S
O452 Pr432 2.562 . S
O452 C434 1.254 . S
O453 Pr432 2.490 . S
O453 C434 1.225 . S
O454 Pr432 2.695 1_455 S
O454 Pr433 2.436 . S
O454 C441 1.266 1_455 S
O455 Pr432 2.512 . S
O455 C441 1.256 . S
O456 Pr433 2.438 1_655 S
O456 C442 1.267 . S
O457 Pr432 2.437 . S
O457 C442 1.278 . S
O458 Pr433 2.562 . S
O458 C443 1.254 . S
O459 Pr433 2.490 . S
O459 C443 1.225 . S
O460 Pr432 2.436 . S
O460 Pr433 2.695 1_655 S
O460 C450 1.263 1_655 S
O461 Pr433 2.512 . S
O461 C450 1.261 . S
O462 Pr432 2.438 1_455 S
O462 C451 1.267 . S
O463 Pr433 2.437 . S
O463 C451 1.278 . S
H464 C436 0.929 . S
H465 C437 0.929 . S
H466 C439 0.931 . S
H467 C440 0.930 1_556 S
H468 C445 0.929 . S
H469 C446 0.929 . S
H470 C448 0.931 . S
H471 C449 0.930 . S
C472 C473 1.368 . S
C472 C474 1.419 . S
C472 H476 0.930 . S
C473 C472 1.368 . S
C473 C482 1.429 1_545 S
C474 C472 1.419 . S
C474 C475 1.373 . S
C474 H477 0.929 . S
C475 C474 1.373 . S
C475 C481 1.417 1_545 S
H476 C472 0.930 . S
H477 C474 0.929 . S
S478 N479 1.613 . S
S478 N480 1.610 . S
N479 S478 1.613 . S
N479 C482 1.350 . S
N480 S478 1.610 . S
N480 C481 1.351 . S
C481 C475 1.417 1_565 S
C481 N480 1.351 . S
C481 C482 1.434 . S
C482 C473 1.429 1_565 S
C482 N479 1.350 . S
C482 C481 1.434 . S
C483 C484 1.369 . S
C483 C485 1.419 . S
C483 H487 0.930 . S
C484 C483 1.369 . S
C484 C493 1.429 . S
C485 C483 1.419 . S
C485 C486 1.363 . S
C485 H488 0.929 . S
C486 C485 1.363 . S
C486 C492 1.428 . S
H487 C483 0.930 . S
H488 C485 0.929 . S
S489 N490 1.613 . S
S489 N491 1.610 . S
N490 S489 1.613 . S
N490 C493 1.350 . S
N491 S489 1.610 . S
N491 C492 1.351 . S
C492 C486 1.428 . S
C492 N491 1.351 . S
C492 C493 1.434 . S
C493 C484 1.429 . S
C493 N490 1.350 . S
C493 C492 1.434 . S
C494 C495 1.369 . S
C494 C496 1.419 . S
C494 H498 0.930 . S
C495 C494 1.369 . S
C495 C504 1.429 . S
C496 C494 1.419 . S
C496 C497 1.363 . S
C496 H499 0.929 . S
C497 C496 1.363 . S
C497 C503 1.428 . S
H498 C494 0.930 . S
H499 C496 0.929 . S
S500 N501 1.613 . S
S500 N502 1.610 . S
N501 S500 1.613 . S
N501 C504 1.350 . S
N502 S500 1.610 . S
N502 C503 1.351 . S
C503 C497 1.428 . S
C503 N502 1.351 . S
C503 C504 1.434 . S
C504 C495 1.429 . S
C504 N501 1.350 . S
C504 C503 1.434 . S
C505 C506 1.386 . S
C505 C507 1.419 . S
C505 H509 0.930 . S
C506 C505 1.386 . S
C506 C515 1.412 1_455 S
C507 C505 1.419 . S
C507 C508 1.363 . S
C507 H510 0.929 . S
C508 C507 1.363 . S
C508 C514 1.428 1_455 S
H509 C505 0.930 . S
H510 C507 0.929 . S
S511 N512 1.613 . S
S511 N513 1.610 . S
N512 S511 1.613 . S
N512 C515 1.350 . S
N513 S511 1.610 . S
N513 C514 1.351 . S
C514 C508 1.428 1_655 S
C514 N513 1.351 . S
C514 C515 1.434 . S
C515 C506 1.412 1_655 S
C515 N512 1.350 . S
C515 C514 1.434 . S
C516 C517 1.354 1_545 S
C516 C518 1.419 . S
C516 H520 0.930 . S
C517 C516 1.354 1_565 S
C517 C526 1.444 . S
C518 C516 1.419 . S
C518 C519 1.338 1_545 S
C518 H521 0.929 . S
C519 C518 1.338 1_565 S
C519 C525 1.454 . S
H520 C516 0.930 . S
H521 C518 0.929 . S
S522 N523 1.613 . S
S522 N524 1.610 . S
N523 S522 1.613 . S
N523 C526 1.350 . S
N524 S522 1.610 . S
N524 C525 1.351 . S
C525 C519 1.454 . S
C525 N524 1.351 . S
C525 C526 1.434 . S
C526 C517 1.444 . S
C526 N523 1.350 . S
C526 C525 1.434 . S
C527 C528 1.369 . S
C527 C529 1.419 . S
C527 H531 0.930 . S
C528 C527 1.369 . S
C528 C537 1.429 . S
C529 C527 1.419 . S
C529 C530 1.363 . S
C529 H532 0.929 . S
C530 C529 1.363 . S
C530 C536 1.428 . S
H531 C527 0.930 . S
H532 C529 0.929 . S
S533 N534 1.613 . S
S533 N535 1.610 . S
N534 S533 1.613 . S
N534 C537 1.350 . S
N535 S533 1.610 . S
N535 C536 1.351 . S
C536 C530 1.428 . S
C536 N535 1.351 . S
C536 C537 1.434 . S
C537 C528 1.429 . S
C537 N534 1.350 . S
C537 C536 1.434 . S
C538 C539 1.369 . S
C538 C540 1.419 . S
C538 H542 0.930 . S
C539 C538 1.369 . S
C539 C548 1.429 . S
C540 C538 1.419 . S
C540 C541 1.363 . S
C540 H543 0.929 . S
C541 C540 1.363 . S
C541 C547 1.428 . S
H542 C538 0.930 . S
H543 C540 0.929 . S
S544 N545 1.613 . S
S544 N546 1.618 . S
N545 S544 1.613 . S
N545 C548 1.350 . S
N546 S544 1.618 . S
N546 C547 1.357 . S
C547 C541 1.428 . S
C547 N546 1.357 . S
C547 C548 1.434 . S
C548 C539 1.429 . S
C548 N545 1.350 . S
C548 C547 1.434 . S
C549 C550 1.385 . S
C549 C551 1.419 . S
C549 H553 0.930 . S
C550 C549 1.385 . S
C550 C559 1.413 1_655 S
C551 C549 1.419 . S
C551 C552 1.363 . S
C551 H554 0.929 . S
C552 C551 1.363 . S
C552 C558 1.428 1_655 S
H553 C549 0.930 . S
H554 C551 0.929 . S
S555 N556 1.613 . S
S555 N557 1.610 . S
N556 S555 1.613 . S
N556 C559 1.350 . S
N557 S555 1.610 . S
N557 C558 1.351 . S
C558 C552 1.428 1_455 S
C558 N557 1.351 . S
C558 C559 1.434 . S
C559 C550 1.413 1_455 S
C559 N556 1.350 . S
C559 C558 1.434 . S
C560 C561 1.369 . S
C560 C562 1.419 . S
C560 H564 0.930 . S
C561 C560 1.369 . S
C561 C570 1.429 1_655 S
C562 C560 1.419 . S
C562 C563 1.363 . S
C562 H565 0.929 . S
C563 C562 1.363 . S
C563 C569 1.428 . S
H564 C560 0.930 . S
H565 C562 0.929 . S
S566 N567 1.613 . S
S566 N568 1.610 1_455 S
N567 S566 1.613 . S
N567 C570 1.348 . S
N568 S566 1.610 1_655 S
N568 C569 1.351 . S
C569 C563 1.428 . S
C569 N568 1.351 . S
C569 C570 1.435 1_655 S
C570 C561 1.429 1_455 S
C570 N567 1.348 . S
C570 C569 1.435 1_455 S
C571 C572 1.369 1_545 S
C571 C573 1.419 1_545 S
C571 H575 0.930 . S
C572 C571 1.369 1_565 S
C572 C581 1.429 . S
C573 C571 1.419 1_565 S
C573 C574 1.363 . S
C573 H576 0.929 . S
C574 C573 1.363 . S
C574 C580 1.428 . S
H575 C571 0.930 . S
H576 C573 0.929 . S
S577 N578 1.613 . S
S577 N579 1.610 . S
N578 S577 1.613 . S
N578 C581 1.350 . S
N579 S577 1.610 . S
N579 C580 1.351 . S
C580 C574 1.428 . S
C580 N579 1.351 . S
C580 C581 1.434 . S
C581 C572 1.429 . S
C581 N578 1.350 . S
C581 C580 1.434 . S
C582 C583 1.369 . S
C582 C584 1.419 . S
C582 H586 0.930 . S
C583 C582 1.369 . S
C583 C592 1.429 . S
C584 C582 1.419 . S
C584 C585 1.363 . S
C584 H587 0.929 . S
C585 C584 1.363 . S
C585 C591 1.428 . S
H586 C582 0.930 . S
H587 C584 0.929 . S
S588 N589 1.613 . S
S588 N590 1.610 . S
N589 S588 1.613 . S
N589 C592 1.350 . S
N590 S588 1.610 . S
N590 C591 1.351 . S
C591 C585 1.428 . S
C591 N590 1.351 . S
C591 C592 1.434 . S
C592 C583 1.429 . S
C592 N589 1.350 . S
C592 C591 1.434 . S
C593 C594 1.369 . S
C593 C595 1.419 . S
C593 H597 0.930 . S
C594 C593 1.369 . S
C594 C603 1.429 . S
C595 C593 1.419 . S
C595 C596 1.363 . S
C595 H598 0.929 . S
C596 C595 1.363 . S
C596 C602 1.428 . S
H597 C593 0.930 . S
H598 C595 0.929 . S
S599 N600 1.613 . S
S599 N601 1.610 . S
N600 S599 1.613 . S
N600 C603 1.350 . S
N601 S599 1.610 . S
N601 C602 1.351 . S
C602 C596 1.428 . S
C602 N601 1.351 . S
C602 C603 1.434 . S
C603 C594 1.429 . S
C603 N600 1.350 . S
C603 C602 1.434 . S
C604 C605 1.369 . S
C604 C606 1.419 . S
C604 H608 0.930 . S
C605 C604 1.369 . S
C605 C614 1.429 . S
C606 C604 1.419 . S
C606 C607 1.363 . S
C606 H609 0.929 . S
C607 C606 1.363 . S
C607 C613 1.428 . S
H608 C604 0.930 . S
H609 C606 0.929 . S
S610 N611 1.613 . S
S610 N612 1.610 . S
N611 S610 1.613 . S
N611 C614 1.350 1_556 S
N612 S610 1.610 . S
N612 C613 1.351 1_556 S
C613 C607 1.428 . S
C613 N612 1.351 1_554 S
C613 C614 1.434 . S
C614 C605 1.429 . S
C614 N611 1.350 1_554 S
C614 C613 1.434 . S
C615 C616 1.369 . S
C615 C617 1.419 . S
C615 H619 0.930 . S
C616 C615 1.369 . S
C616 C625 1.429 1_545 S
C617 C615 1.419 . S
C617 C618 1.363 . S
C617 H620 0.929 . S
C618 C617 1.363 . S
C618 C624 1.428 . S
H619 C615 0.930 . S
H620 C617 0.929 . S
S621 N622 1.613 . S
S621 N623 1.610 1_565 S
N622 S621 1.613 . S
N622 C625 1.350 . S
N623 S621 1.610 1_545 S
N623 C624 1.351 . S
C624 C618 1.428 . S
C624 N623 1.351 . S
C624 C625 1.434 1_545 S
C625 C616 1.429 1_565 S
C625 N622 1.350 . S
C625 C624 1.434 1_565 S
C626 C627 1.369 . S
C626 C628 1.419 . S
C626 H630 0.930 . S
C627 C626 1.369 . S
C627 C636 1.429 . S
C628 C626 1.419 . S
C628 C629 1.363 . S
C628 H631 0.929 . S
C629 C628 1.363 . S
C629 C635 1.428 . S
H630 C626 0.930 . S
H631 C628 0.929 . S
S632 N633 1.613 1_556 S
S632 N634 1.610 . S
N633 S632 1.613 1_554 S
N633 C636 1.350 . S
N634 S632 1.610 . S
N634 C635 1.351 1_556 S
C635 C629 1.428 . S
C635 N634 1.351 1_554 S
C635 C636 1.434 . S
C636 C627 1.429 . S
C636 N633 1.350 . S
C636 C635 1.434 . S
C637 C638 1.369 . S
C637 C639 1.419 . S
C637 H641 0.930 . S
C638 C637 1.369 . S
C638 C647 1.429 . S
C639 C637 1.419 . S
C639 C640 1.363 . S
C639 H642 0.929 1_554 S
C640 C639 1.363 . S
C640 C646 1.428 . S
H641 C637 0.930 . S
H642 C639 0.929 1_556 S
S643 N644 1.613 . S
S643 N645 1.610 . S
N644 S643 1.613 . S
N644 C647 1.350 . S
N645 S643 1.610 . S
N645 C646 1.351 . S
C646 C640 1.428 . S
C646 N645 1.351 . S
C646 C647 1.434 . S
C647 C638 1.429 . S
C647 N644 1.350 . S
C647 C646 1.434 . S
C648 C649 1.369 1_655 S
C648 C650 1.419 . S
C648 H652 0.930 . S
C649 C648 1.369 1_455 S
C649 C658 1.429 . S
C650 C648 1.419 . S
C650 C651 1.363 1_655 S
C650 H653 0.929 . S
C651 C650 1.363 1_455 S
C651 C657 1.428 . S
H652 C648 0.930 . S
H653 C650 0.929 . S
S654 N655 1.613 . S
S654 N656 1.610 . S
N655 S654 1.613 . S
N655 C658 1.350 . S
N656 S654 1.610 . S
N656 C657 1.351 . S
C657 C651 1.428 . S
C657 N656 1.351 . S
C657 C658 1.434 . S
C658 C649 1.429 . S
C658 N655 1.350 . S
C658 C657 1.434 . S
C659 C660 1.369 . S
C659 C661 1.419 . S
C659 H663 0.930 . S
C660 C659 1.369 . S
C660 C669 1.429 1_545 S
C661 C659 1.419 . S
C661 C662 1.363 . S
C661 H664 0.929 . S
C662 C661 1.363 . S
C662 C668 1.428 1_545 S
H663 C659 0.930 . S
H664 C661 0.929 . S
S665 N666 1.613 . S
S665 N667 1.610 . S
N666 S665 1.613 . S
N666 C669 1.350 . S
N667 S665 1.610 . S
N667 C668 1.351 . S
C668 C662 1.428 1_565 S
C668 N667 1.351 . S
C668 C669 1.434 . S
C669 C660 1.429 1_565 S
C669 N666 1.350 . S
C669 C668 1.434 . S
C670 C671 1.369 . S
C670 C672 1.419 . S
C670 H674 0.930 . S
C671 C670 1.369 . S
C671 C680 1.429 . S
C672 C670 1.419 . S
C672 C673 1.363 . S
C672 H675 0.929 . S
C673 C672 1.363 . S
C673 C679 1.428 . S
H674 C670 0.930 . S
H675 C672 0.929 . S
S676 N677 1.613 . S
S676 N678 1.610 . S
N677 S676 1.613 . S
N677 C680 1.350 . S
N678 S676 1.610 . S
N678 C679 1.351 . S
C679 C673 1.428 . S
C679 N678 1.351 . S
C679 C680 1.434 . S
C680 C671 1.429 . S
C680 N677 1.350 . S
C680 C679 1.434 . S
C681 C682 1.369 . S
C681 C683 1.419 . S
C681 H685 0.930 . S
C682 C681 1.369 . S
C682 C691 1.429 . S
C683 C681 1.419 . S
C683 C684 1.363 . S
C683 H686 0.929 . S
C684 C683 1.363 . S
C684 C690 1.428 . S
H685 C681 0.930 . S
H686 C683 0.929 . S
S687 N688 1.613 . S
S687 N689 1.610 . S
N688 S687 1.613 . S
N688 C691 1.350 . S
N689 S687 1.610 . S
N689 C690 1.351 . S
C690 C684 1.428 . S
C690 N689 1.351 . S
C690 C691 1.434 . S
C691 C682 1.429 . S
C691 N688 1.350 . S
C691 C690 1.434 . S
C692 C693 1.369 1_455 S
C692 C694 1.419 . S
C692 H696 0.930 . S
C693 C692 1.369 1_655 S
C693 C702 1.429 . S
C694 C692 1.419 . S
C694 C695 1.363 1_455 S
C694 H697 0.929 . S
C695 C694 1.363 1_655 S
C695 C701 1.428 . S
H696 C692 0.930 . S
H697 C694 0.929 . S
S698 N699 1.613 . S
S698 N700 1.610 . S
N699 S698 1.613 . S
N699 C702 1.350 . S
N700 S698 1.610 . S
N700 C701 1.351 . S
C701 C695 1.428 . S
C701 N700 1.351 . S
C701 C702 1.434 . S
C702 C693 1.429 . S
C702 N699 1.350 . S
C702 C701 1.434 . S
C703 C704 1.369 . S
C703 C705 1.419 . S
C703 H707 0.930 . S
C704 C703 1.369 . S
C704 C713 1.429 1_565 S
C705 C703 1.419 . S
C705 C706 1.363 . S
C705 H708 0.929 . S
C706 C705 1.363 . S
C706 C712 1.428 . S
H707 C703 0.930 . S
H708 C705 0.929 . S
S709 N710 1.613 . S
S709 N711 1.610 . S
N710 S709 1.613 . S
N710 C713 1.350 . S
N711 S709 1.610 . S
N711 C712 1.351 1_545 S
C712 C706 1.428 . S
C712 N711 1.351 1_565 S
C712 C713 1.434 1_565 S
C713 C704 1.429 1_545 S
C713 N710 1.350 . S
C713 C712 1.434 1_545 S
C714 C715 1.369 . S
C714 C716 1.419 . S
C714 H718 0.930 . S
C715 C714 1.369 . S
C715 C724 1.429 . S
C716 C714 1.419 . S
C716 C717 1.363 . S
C716 H719 0.929 . S
C717 C716 1.363 . S
C717 C723 1.428 . S
H718 C714 0.930 . S
H719 C716 0.929 . S
S720 N721 1.613 . S
S720 N722 1.610 . S
N721 S720 1.613 . S
N721 C724 1.350 . S
N722 S720 1.610 . S
N722 C723 1.351 . S
C723 C717 1.428 . S
C723 N722 1.351 . S
C723 C724 1.434 . S
C724 C715 1.429 . S
C724 N721 1.350 . S
C724 C723 1.434 . S
C725 C726 1.369 . S
C725 C727 1.419 . S
C725 H729 0.930 . S
C726 C725 1.369 . S
C726 C735 1.429 . S
C727 C725 1.419 . S
C727 C728 1.363 . S
C727 H730 0.929 . S
C728 C727 1.363 . S
C728 C734 1.428 . S
H729 C725 0.930 . S
H730 C727 0.929 . S
S731 N732 1.613 . S
S731 N733 1.610 . S
N732 S731 1.613 . S
N732 C735 1.350 . S
N733 S731 1.610 . S
N733 C734 1.351 . S
C734 C728 1.428 . S
C734 N733 1.351 . S
C734 C735 1.434 . S
C735 C726 1.429 . S
C735 N732 1.350 . S
C735 C734 1.434 . S
C473 C255 2.509 1_545 S
C475 C321 2.837 1_545 S
C486 C361 2.871 . S
C484 C294 2.501 . S
C497 C401 2.861 . S
C495 C177 2.543 . S
C508 C441 2.846 1_455 S
C506 C216 2.527 1_455 S
C519 C330 2.838 1_564 S
C517 C99 2.512 . S
C528 C138 2.509 . S
C530 C370 2.872 1_554 S
C539 C21 2.536 . S
C541 C410 2.861 1_554 S
C550 C60 2.520 . S
C552 C450 2.847 1_654 S
C563 C327 0.792 . S
C561 C196 0.796 . S
C574 C367 0.803 . S
C572 C235 0.785 . S
C585 C407 0.767 . S
C583 C289 0.745 . S
C594 C157 0.776 . S
C596 C447 0.755 . S
C605 C40 0.807 1_455 S
C607 C318 0.799 . S
C618 C358 0.782 . S
C616 C79 0.807 1_545 S
C629 C398 0.764 . S
C627 C133 0.752 . S
C638 C1 0.768 . S
C640 C438 0.762 . S
C649 C211 3.228 . S
C651 C331 3.743 . S
C660 C250 3.187 . S
C662 C371 3.709 . S
C673 C411 3.706 . S
C671 C274 3.189 . S
C684 C451 3.735 . S
C682 C172 3.202 . S
C693 C55 3.221 1_655 S
C695 C322 3.754 . S
C706 C362 3.711 . S
C704 C94 3.182 1_565 S
C717 C402 3.707 . S
C715 C118 3.193 . S
C726 C16 3.208 . S
C728 C442 3.741 . S
