# Generated by pormake.
# Topology pto, (3,4)-cn, num edge types: 1
# Building blocks:
#     Node 0, Type 0, BuildingBlock: MIDCAF_clean_linker_0, # of connection points: 3
#     Node 1, Type 0, BuildingBlock: MIDCAF_clean_linker_0, # of connection points: 3
#     Node 2, Type 0, BuildingBlock: MIDCAF_clean_linker_0, # of connection points: 3
#     Node 3, Type 0, BuildingBlock: MIDCAF_clean_linker_0, # of connection points: 3
#     Node 4, Type 0, BuildingBlock: MIDCAF_clean_linker_0, # of connection points: 3
#     Node 5, Type 0, BuildingBlock: MIDCAF_clean_linker_0, # of connection points: 3
#     Node 6, Type 0, BuildingBlock: MIDCAF_clean_linker_0, # of connection points: 3
#     Node 7, Type 0, BuildingBlock: MIDCAF_clean_linker_0, # of connection points: 3
#     Node 8, Type 1, BuildingBlock: KOZSID_clean_sbu_0, # of connection points: 4
#     Node 9, Type 1, BuildingBlock: KOZSID_clean_sbu_0, # of connection points: 4
#     Node 10, Type 1, BuildingBlock: KOZSID_clean_sbu_0, # of connection points: 4
#     Node 11, Type 1, BuildingBlock: KOZSID_clean_sbu_0, # of connection points: 4
#     Node 12, Type 1, BuildingBlock: KOZSID_clean_sbu_0, # of connection points: 4
#     Node 13, Type 1, BuildingBlock: KOZSID_clean_sbu_0, # of connection points: 4
#     Edge 14, Type (0, 1), BuildingBlock: EZIPEK_clean_linker_0, # of connection points: 2
#     Edge 15, Type (0, 1), BuildingBlock: EZIPEK_clean_linker_0, # of connection points: 2
#     Edge 16, Type (0, 1), BuildingBlock: EZIPEK_clean_linker_0, # of connection points: 2
#     Edge 17, Type (0, 1), BuildingBlock: EZIPEK_clean_linker_0, # of connection points: 2
#     Edge 18, Type (0, 1), BuildingBlock: EZIPEK_clean_linker_0, # of connection points: 2
#     Edge 19, Type (0, 1), BuildingBlock: EZIPEK_clean_linker_0, # of connection points: 2
#     Edge 20, Type (0, 1), BuildingBlock: EZIPEK_clean_linker_0, # of connection points: 2
#     Edge 21, Type (0, 1), BuildingBlock: EZIPEK_clean_linker_0, # of connection points: 2
#     Edge 22, Type (0, 1), BuildingBlock: EZIPEK_clean_linker_0, # of connection points: 2
#     Edge 23, Type (0, 1), BuildingBlock: EZIPEK_clean_linker_0, # of connection points: 2
#     Edge 24, Type (0, 1), BuildingBlock: EZIPEK_clean_linker_0, # of connection points: 2
#     Edge 25, Type (0, 1), BuildingBlock: EZIPEK_clean_linker_0, # of connection points: 2
#     Edge 26, Type (0, 1), BuildingBlock: EZIPEK_clean_linker_0, # of connection points: 2
#     Edge 27, Type (0, 1), BuildingBlock: EZIPEK_clean_linker_0, # of connection points: 2
#     Edge 28, Type (0, 1), BuildingBlock: EZIPEK_clean_linker_0, # of connection points: 2
#     Edge 29, Type (0, 1), BuildingBlock: EZIPEK_clean_linker_0, # of connection points: 2
#     Edge 30, Type (0, 1), BuildingBlock: EZIPEK_clean_linker_0, # of connection points: 2
#     Edge 31, Type (0, 1), BuildingBlock: EZIPEK_clean_linker_0, # of connection points: 2
#     Edge 32, Type (0, 1), BuildingBlock: EZIPEK_clean_linker_0, # of connection points: 2
#     Edge 33, Type (0, 1), BuildingBlock: EZIPEK_clean_linker_0, # of connection points: 2
#     Edge 34, Type (0, 1), BuildingBlock: EZIPEK_clean_linker_0, # of connection points: 2
#     Edge 35, Type (0, 1), BuildingBlock: EZIPEK_clean_linker_0, # of connection points: 2
#     Edge 36, Type (0, 1), BuildingBlock: EZIPEK_clean_linker_0, # of connection points: 2
#     Edge 37, Type (0, 1), BuildingBlock: EZIPEK_clean_linker_0, # of connection points: 2
# Relax obj value: 0.000
# Max RMSD: 0.028
# Mean RMSD: 0.012
data_MOF--net-pto--node1-KOZSID_clean_sbu_0--node2-MIDCAF_clean_linker_0--edge1-EZIPEK_clean_linker_0
_symmetry_space_group_name_H-M    P1
_symmetry_Int_Tables_number       1
_symmetry_cell_setting            triclinic
loop_
_symmetry_equiv_pos_as_xyz
'x, y, z'
_cell_length_a     37.007109
_cell_length_b     49.923566
_cell_length_c     43.580044
_cell_angle_alpha  86.936734
_cell_angle_beta   86.825641
_cell_angle_gamma 93.443801
loop_
_atom_site_label
_atom_site_type_symbol
_atom_site_fract_x
_atom_site_fract_y
_atom_site_fract_z
_atom_type_partial_charge
C0 C 0.35973 0.23702 0.22303 0.0
C1 C 0.36438 0.26022 0.20331 0.0
C2 C 0.34634 0.28313 0.2107 0.0
C3 C 0.32376 0.28282 0.23753 0.0
H4 H 0.24823 0.32593 0.28127 0.0
H5 H 0.21299 0.36458 0.29172 0.0
H6 H 0.17701 0.32813 0.3809 0.0
H7 H 0.21193 0.28907 0.3707 0.0
H8 H 0.21867 0.22407 0.37981 0.0
H9 H 0.21185 0.18293 0.41341 0.0
H10 H 0.30203 0.15117 0.36356 0.0
H11 H 0.30899 0.19193 0.32965 0.0
H12 H 0.33419 0.21842 0.26461 0.0
H13 H 0.37355 0.21919 0.2176 0.0
H14 H 0.34976 0.30121 0.19567 0.0
H15 H 0.31016 0.30082 0.24257 0.0
N16 N 0.27593 0.2808 0.29254 0.0
N17 N 0.24988 0.25794 0.33757 0.0
N18 N 0.29087 0.23684 0.30532 0.0
C19 C 0.2535 0.28044 0.31835 0.0
C20 C 0.26852 0.23604 0.3312 0.0
C21 C 0.29474 0.25911 0.28585 0.0
C22 C 0.23285 0.30424 0.32509 0.0
C23 C 0.23297 0.32604 0.30319 0.0
C24 C 0.21287 0.3482 0.30907 0.0
C25 C 0.19244 0.3491 0.337 0.0
C26 C 0.19263 0.32769 0.35918 0.0
C27 C 0.21255 0.30539 0.35324 0.0
C28 C 0.26438 0.21137 0.35196 0.0
C29 C 0.2371 0.20838 0.37595 0.0
C30 C 0.23307 0.18489 0.39513 0.0
C31 C 0.25641 0.1641 0.39084 0.0
C32 C 0.28373 0.16701 0.3671 0.0
C33 C 0.28761 0.19036 0.34777 0.0
C34 C 0.3189 0.25957 0.25746 0.0
C35 C 0.33723 0.23668 0.24989 0.0
C36 C 0.17476 0.69678 0.6995 0.0
C37 C 0.16989 0.67615 0.72279 0.0
C38 C 0.18532 0.67965 0.75107 0.0
C39 C 0.20541 0.70344 0.75606 0.0
H40 H 0.2003 0.80438 0.68053 0.0
H41 H 0.19695 0.84511 0.64714 0.0
H42 H 0.28882 0.882 0.689 0.0
H43 H 0.29227 0.84166 0.72274 0.0
H44 H 0.30639 0.81768 0.79145 0.0
H45 H 0.34589 0.81869 0.83466 0.0
H46 H 0.33273 0.7324 0.84721 0.0
H47 H 0.2929 0.73101 0.80426 0.0
H48 H 0.19779 0.73636 0.68623 0.0
H49 H 0.16307 0.69434 0.6775 0.0
H50 H 0.18177 0.66392 0.7693 0.0
H51 H 0.21691 0.7055 0.77819 0.0
N52 N 0.22935 0.77202 0.71964 0.0
N53 N 0.27031 0.79571 0.74907 0.0
N54 N 0.25309 0.75053 0.76257 0.0
C55 C 0.24875 0.79519 0.72484 0.0
C56 C 0.27266 0.77349 0.76804 0.0
C57 C 0.23139 0.74959 0.73845 0.0
C58 C 0.24656 0.81969 0.70437 0.0
C59 C 0.21982 0.82112 0.68269 0.0
C60 C 0.21778 0.84437 0.66362 0.0
C61 C 0.24263 0.86646 0.66569 0.0
C62 C 0.26938 0.86513 0.68717 0.0
C63 C 0.27125 0.84203 0.70642 0.0
C64 C 0.29644 0.77424 0.79432 0.0
C65 C 0.31182 0.79887 0.80334 0.0
C66 C 0.33433 0.79955 0.82804 0.0
C67 C 0.34209 0.77563 0.84394 0.0
C68 C 0.32693 0.75103 0.8351 0.0
C69 C 0.30415 0.75033 0.81059 0.0
C70 C 0.21016 0.72434 0.73292 0.0
C71 C 0.19452 0.72076 0.70459 0.0
C72 C 0.71425 0.7524 0.21604 0.0
C73 C 0.69246 0.77408 0.21135 0.0
C74 C 0.69294 0.79478 0.23182 0.0
C75 C 0.71493 0.79379 0.25686 0.0
H76 H 0.74685 0.8368 0.32834 0.0
H77 H 0.75129 0.87474 0.36136 0.0
H78 H 0.82796 0.83432 0.41527 0.0
H79 H 0.82381 0.79605 0.3825 0.0
H80 H 0.83248 0.73269 0.37207 0.0
H81 H 0.86681 0.69294 0.38174 0.0
H82 H 0.84813 0.66796 0.2905 0.0
H83 H 0.81337 0.7073 0.28064 0.0
H84 H 0.75263 0.73427 0.24416 0.0
H85 H 0.71409 0.73626 0.20038 0.0
H86 H 0.67619 0.81164 0.22844 0.0
H87 H 0.71459 0.81005 0.27234 0.0
N88 N 0.76179 0.79137 0.30772 0.0
N89 N 0.80131 0.76817 0.33818 0.0
N90 N 0.77874 0.74879 0.2947 0.0
C91 C 0.78257 0.79033 0.33245 0.0
C92 C 0.79953 0.74731 0.31939 0.0
C93 C 0.75969 0.7707 0.28873 0.0
C94 C 0.78498 0.81327 0.3527 0.0
C95 C 0.76469 0.83584 0.3472 0.0
C96 C 0.76715 0.85759 0.36601 0.0
C97 C 0.78993 0.85723 0.39062 0.0
C98 C 0.81023 0.83485 0.39632 0.0
C99 C 0.80776 0.81303 0.37755 0.0
C100 C 0.82018 0.72324 0.32555 0.0
C101 C 0.83561 0.71876 0.35404 0.0
C102 C 0.85515 0.69605 0.35967 0.0
C103 C 0.85998 0.67765 0.33679 0.0
C104 C 0.84461 0.68198 0.3084 0.0
C105 C 0.82475 0.70449 0.30287 0.0
C106 C 0.73674 0.77199 0.26189 0.0
C107 C 0.73619 0.75133 0.24111 0.0
C108 C 0.80867 0.20894 0.67095 0.0
C109 C 0.78597 0.18565 0.67795 0.0
C110 C 0.76191 0.1843 0.70404 0.0
C111 C 0.76064 0.20592 0.72305 0.0
H112 H 0.72892 0.22393 0.81214 0.0
H113 H 0.69013 0.2197 0.8598 0.0
H114 H 0.69968 0.30563 0.86625 0.0
H115 H 0.73886 0.3102 0.81895 0.0
H116 H 0.82264 0.33437 0.78702 0.0
H117 H 0.8587 0.37651 0.77423 0.0
H118 H 0.86348 0.35927 0.67829 0.0
H119 H 0.82798 0.31655 0.6909 0.0
H120 H 0.82523 0.24836 0.68392 0.0
H121 H 0.82742 0.21025 0.65086 0.0
H122 H 0.74418 0.16645 0.70971 0.0
H123 H 0.74177 0.20417 0.74306 0.0
N124 N 0.76139 0.24963 0.76358 0.0
N125 N 0.77988 0.29357 0.77469 0.0
N126 N 0.80168 0.27579 0.72898 0.0
C127 C 0.76006 0.27023 0.78265 0.0
C128 C 0.80075 0.29653 0.74795 0.0
C129 C 0.78209 0.25221 0.7367 0.0
C130 C 0.73699 0.26742 0.81168 0.0
C131 C 0.72286 0.24196 0.82369 0.0
C132 C 0.7008 0.23945 0.85092 0.0
C133 C 0.69215 0.26237 0.86633 0.0
C134 C 0.70617 0.28777 0.85455 0.0
C135 C 0.72858 0.29028 0.82756 0.0
C136 C 0.82249 0.32207 0.73996 0.0
C137 C 0.83131 0.33947 0.76317 0.0
C138 C 0.85195 0.36353 0.75596 0.0
C139 C 0.86371 0.37087 0.72539 0.0
C140 C 0.85465 0.35381 0.70203 0.0
C141 C 0.8345 0.32944 0.7093 0.0
C142 C 0.78334 0.2294 0.71624 0.0
C143 C 0.80732 0.23067 0.68988 0.0
C144 C 0.69137 0.80079 0.842 0.0
C145 C 0.68731 0.77733 0.86132 0.0
C146 C 0.70667 0.75504 0.8539 0.0
C147 C 0.72967 0.75612 0.82724 0.0
H148 H 0.79168 0.70979 0.77436 0.0
H149 H 0.82672 0.67126 0.76303 0.0
H150 H 0.8821 0.71627 0.68542 0.0
H151 H 0.84707 0.75519 0.69636 0.0
H152 H 0.80179 0.80923 0.67094 0.0
H153 H 0.79827 0.84809 0.63629 0.0
H154 H 0.76226 0.89334 0.71264 0.0
H155 H 0.76511 0.85455 0.74676 0.0
H156 H 0.71664 0.82029 0.80082 0.0
H157 H 0.67656 0.81816 0.84747 0.0
H158 H 0.70375 0.73678 0.86865 0.0
H159 H 0.74406 0.73851 0.82201 0.0
N160 N 0.77552 0.75893 0.7709 0.0
N161 N 0.79855 0.78202 0.72493 0.0
N162 N 0.75977 0.80287 0.75938 0.0
C163 C 0.79638 0.75949 0.74416 0.0
C164 C 0.78035 0.80384 0.73251 0.0
C165 C 0.75711 0.78052 0.7787 0.0
C166 C 0.81663 0.73574 0.73636 0.0
C167 C 0.81115 0.71161 0.75476 0.0
C168 C 0.83103 0.68949 0.74831 0.0
C169 C 0.85684 0.69104 0.72345 0.0
C170 C 0.86215 0.71481 0.70467 0.0
C171 C 0.84211 0.73698 0.71101 0.0
C172 C 0.78124 0.82813 0.71135 0.0
C173 C 0.79162 0.82729 0.68002 0.0
C174 C 0.78817 0.84963 0.65978 0.0
C175 C 0.77249 0.87309 0.6699 0.0
C176 C 0.76788 0.87485 0.70219 0.0
C177 C 0.77088 0.85255 0.72237 0.0
C178 C 0.73363 0.77954 0.80752 0.0
C179 C 0.71431 0.80191 0.81535 0.0
C180 C 0.82999 0.19393 0.3989 0.0
C181 C 0.80493 0.17178 0.39826 0.0
C182 C 0.77655 0.17291 0.3783 0.0
C183 C 0.77332 0.19584 0.35909 0.0
H184 H 0.72174 0.22217 0.28301 0.0
H185 H 0.68233 0.22032 0.23977 0.0
H186 H 0.72599 0.29875 0.20515 0.0
H187 H 0.76545 0.30105 0.24825 0.0
H188 H 0.84306 0.30279 0.37685 0.0
H189 H 0.87774 0.34503 0.38471 0.0
H190 H 0.86354 0.37239 0.29094 0.0
H191 H 0.82833 0.33055 0.28288 0.0
H192 H 0.84637 0.23379 0.3809 0.0
H193 H 0.85211 0.19333 0.41416 0.0
H194 H 0.75696 0.15597 0.37755 0.0
H195 H 0.75114 0.19605 0.34389 0.0
N196 N 0.77316 0.24131 0.31499 0.0
N197 N 0.79021 0.2863 0.3002 0.0
N198 N 0.81431 0.26576 0.34351 0.0
C199 C 0.77062 0.26316 0.29545 0.0
C200 C 0.81196 0.28782 0.32423 0.0
C201 C 0.79505 0.24239 0.33899 0.0
C202 C 0.74682 0.26178 0.2692 0.0
C203 C 0.7231 0.23905 0.26622 0.0
C204 C 0.70053 0.23791 0.24158 0.0
C205 C 0.70143 0.25939 0.21943 0.0
C206 C 0.72507 0.28202 0.22211 0.0
C207 C 0.74751 0.28326 0.24681 0.0
C208 C 0.83296 0.31327 0.32921 0.0
C209 C 0.84728 0.31777 0.35788 0.0
C210 C 0.86697 0.34188 0.36248 0.0
C211 C 0.87312 0.36165 0.33837 0.0
C212 C 0.85897 0.35728 0.30977 0.0
C213 C 0.83885 0.33338 0.30527 0.0
C214 C 0.79827 0.2182 0.35969 0.0
C215 C 0.82657 0.21702 0.37993 0.0
C216 C 0.27521 0.17819 0.69692 0.0
C217 C 0.24782 0.17634 0.67604 0.0
C218 C 0.22337 0.19667 0.6739 0.0
C219 C 0.2265 0.21876 0.69223 0.0
H220 H 0.18992 0.29483 0.70289 0.0
H221 H 0.15482 0.33437 0.69434 0.0
H222 H 0.21067 0.37432 0.76486 0.0
H223 H 0.24587 0.3351 0.77377 0.0
H224 H 0.29222 0.30226 0.81786 0.0
H225 H 0.33183 0.30084 0.86091 0.0
H226 H 0.36948 0.22531 0.83312 0.0
H227 H 0.32992 0.22631 0.78994 0.0
H228 H 0.29974 0.20097 0.73126 0.0
H229 H 0.29435 0.16267 0.69879 0.0
H230 H 0.20206 0.19552 0.65786 0.0
H231 H 0.20729 0.23418 0.68999 0.0
N232 N 0.23825 0.26612 0.72728 0.0
N233 N 0.26421 0.28685 0.76854 0.0
N234 N 0.28008 0.24382 0.75628 0.0
C235 C 0.24158 0.28762 0.74505 0.0
C236 C 0.28353 0.26505 0.77436 0.0
C237 C 0.25749 0.24415 0.73273 0.0
C238 C 0.2207 0.31166 0.73912 0.0
C239 C 0.1949 0.31202 0.71654 0.0
C240 C 0.17483 0.33457 0.71156 0.0
C241 C 0.18031 0.35712 0.72898 0.0
C242 C 0.20621 0.35704 0.75121 0.0
C243 C 0.22621 0.33454 0.75627 0.0
C244 C 0.3078 0.26438 0.80034 0.0
C245 C 0.30889 0.28532 0.82077 0.0
C246 C 0.33145 0.28457 0.84543 0.0
C247 C 0.35338 0.26298 0.85006 0.0
C248 C 0.3526 0.2421 0.8298 0.0
C249 C 0.32996 0.24276 0.80517 0.0
C250 C 0.25398 0.22075 0.71324 0.0
C251 C 0.27819 0.20012 0.71544 0.0
C252 C 0.20242 0.67062 0.30631 0.0
C253 C 0.17804 0.6677 0.33218 0.0
C254 C 0.17448 0.68921 0.35133 0.0
C255 C 0.19487 0.71353 0.34444 0.0
H256 H 0.20903 0.79213 0.37049 0.0
H257 H 0.20469 0.83022 0.40333 0.0
H258 H 0.29318 0.87307 0.34953 0.0
H259 H 0.29772 0.83532 0.31637 0.0
H260 H 0.32652 0.81251 0.25419 0.0
H261 H 0.36706 0.81613 0.20759 0.0
H262 H 0.33575 0.73432 0.18909 0.0
H263 H 0.29515 0.73031 0.23544 0.0
H264 H 0.2412 0.69641 0.2791 0.0
H265 H 0.2054 0.65418 0.29129 0.0
H266 H 0.15569 0.68722 0.3714 0.0
H267 H 0.19137 0.72985 0.35951 0.0
N268 N 0.23738 0.76379 0.32835 0.0
N269 N 0.27962 0.78965 0.29516 0.0
N270 N 0.26319 0.74519 0.28468 0.0
C271 C 0.25693 0.78744 0.32092 0.0
C272 C 0.28287 0.76862 0.27687 0.0
C273 C 0.24043 0.74254 0.31033 0.0
C274 C 0.25378 0.81057 0.34075 0.0
C275 C 0.22757 0.80963 0.36554 0.0
C276 C 0.22496 0.83138 0.38431 0.0
C277 C 0.24862 0.85436 0.37877 0.0
C278 C 0.27467 0.85547 0.35406 0.0
C279 C 0.27718 0.83384 0.33517 0.0
C280 C 0.30751 0.77109 0.24868 0.0
C281 C 0.32817 0.79525 0.24027 0.0
C282 C 0.35135 0.7974 0.21367 0.0
C283 C 0.35426 0.77548 0.19508 0.0
C284 C 0.33375 0.75141 0.20325 0.0
C285 C 0.31059 0.74921 0.22979 0.0
C286 C 0.21915 0.71669 0.31826 0.0
C287 C 0.22278 0.69484 0.2994 0.0
C288 C 0.07892 0.5534 0.37656 0.0
C289 C 0.08868 0.56232 0.40474 0.0
C290 C 0.06867 0.54659 0.42682 0.0
C291 C 0.04777 0.52916 0.41091 0.0
N292 N 0.05369 0.53245 0.37999 0.0
Co293 Co 0.02642 0.51346 0.3481 0.0
N294 N 0.99527 0.4915 0.3805 0.0
C295 C 0.99757 0.49182 0.41136 0.0
C296 C 0.9745 0.47304 0.42767 0.0
C297 C 0.9568 0.45958 0.40593 0.0
C298 C 0.97004 0.47111 0.37754 0.0
N299 N 0.99812 0.49549 0.31616 0.0
C300 C 0.97076 0.47612 0.31948 0.0
C301 C 0.95786 0.46966 0.29132 0.0
C302 C 0.97826 0.48521 0.26934 0.0
C303 C 0.0022 0.5003 0.28528 0.0
N304 N 0.05858 0.53446 0.31566 0.0
C305 C 0.0585 0.53235 0.28485 0.0
C306 C 0.08414 0.54916 0.2685 0.0
C307 C 0.10138 0.56307 0.29013 0.0
C308 C 0.085 0.55398 0.3185 0.0
N309 N 0.06095 0.48447 0.34804 0.0
C310 C 0.10614 0.44118 0.34845 0.0
C311 C 0.0927 0.45096 0.32111 0.0
C312 C 0.07047 0.47257 0.32138 0.0
C313 C 0.09742 0.45358 0.37551 0.0
C314 C 0.07493 0.47509 0.3748 0.0
N315 N 0.99187 0.5424 0.34823 0.0
C316 C 0.96304 0.57814 0.32127 0.0
C317 C 0.94598 0.5852 0.34867 0.0
C318 C 0.95148 0.57036 0.3758 0.0
C319 C 0.97447 0.54917 0.37508 0.0
C320 C 0.98555 0.5567 0.32152 0.0
H321 H 0.97805 0.5388 0.39657 0.0
H322 H 0.9979 0.55232 0.29987 0.0
H323 H 0.0609 0.479 0.29978 0.0
H324 H 0.06889 0.48355 0.39625 0.0
C325 C 0.02189 0.50987 0.42426 0.0
C326 C 0.09345 0.56602 0.34716 0.0
C327 C 0.95836 0.46164 0.3484 0.0
C328 C 0.0312 0.51689 0.27188 0.0
H329 H 0.10788 0.57876 0.40888 0.0
H330 H 0.06878 0.54805 0.45151 0.0
H331 H 0.97133 0.46931 0.4524 0.0
H332 H 0.93668 0.44299 0.41041 0.0
H333 H 0.93675 0.45457 0.2871 0.0
H334 H 0.97678 0.4848 0.24463 0.0
H335 H 0.08869 0.55184 0.24374 0.0
H336 H 0.12269 0.57882 0.28552 0.0
H337 H 0.09906 0.44176 0.29966 0.0
H338 H 0.10749 0.44644 0.39715 0.0
H339 H 0.9592 0.58927 0.29979 0.0
H340 H 0.93854 0.57539 0.39747 0.0
C341 C 0.06907 0.56376 0.7424 0.0
C342 C 0.07805 0.57275 0.77075 0.0
C343 C 0.05702 0.5574 0.79251 0.0
C344 C 0.03643 0.54007 0.77625 0.0
N345 N 0.0435 0.54304 0.74541 0.0
Co346 Co 0.01753 0.52376 0.71302 0.0
N347 N 0.98537 0.50203 0.74492 0.0
C348 C 0.98662 0.50256 0.77586 0.0
C349 C 0.96272 0.48414 0.79183 0.0
C350 C 0.94562 0.47066 0.7698 0.0
C351 C 0.96009 0.48177 0.74157 0.0
N352 N 0.99042 0.50546 0.68058 0.0
C353 C 0.96367 0.48559 0.6834 0.0
C354 C 0.9522 0.47857 0.65498 0.0
C355 C 0.97285 0.49434 0.63333 0.0
C356 C 0.99554 0.51007 0.64973 0.0
N357 N 0.0508 0.54453 0.68115 0.0
C358 C 0.05164 0.54226 0.65034 0.0
C359 C 0.07757 0.55913 0.6344 0.0
C360 C 0.09408 0.5732 0.65631 0.0
C361 C 0.07706 0.56409 0.68441 0.0
N362 N 0.052 0.49475 0.71426 0.0
C363 C 0.09609 0.45084 0.71721 0.0
C364 C 0.08324 0.45987 0.68928 0.0
C365 C 0.06166 0.48191 0.68826 0.0
C366 C 0.08767 0.46454 0.74342 0.0
C367 C 0.06563 0.48621 0.74148 0.0
N368 N 0.98309 0.55279 0.71195 0.0
C369 C 0.95719 0.58991 0.68477 0.0
C370 C 0.9399 0.59721 0.71202 0.0
C371 C 0.9433 0.5815 0.73894 0.0
C372 C 0.96487 0.55954 0.73841 0.0
C373 C 0.9783 0.56758 0.68519 0.0
H374 H 0.96691 0.5487 0.75985 0.0
H375 H 0.99105 0.56302 0.66373 0.0
H376 H 0.05265 0.4879 0.66627 0.0
H377 H 0.05957 0.4954 0.76245 0.0
C378 C 0.01032 0.52077 0.78918 0.0
C379 C 0.08485 0.57605 0.71325 0.0
C380 C 0.94998 0.47165 0.71229 0.0
C381 C 0.02485 0.52667 0.63694 0.0
H382 H 0.09746 0.58897 0.7752 0.0
H383 H 0.05644 0.55894 0.81721 0.0
H384 H 0.95856 0.4807 0.81654 0.0
H385 H 0.92519 0.45423 0.774 0.0
H386 H 0.93181 0.46306 0.65041 0.0
H387 H 0.97246 0.49359 0.60858 0.0
H388 H 0.08277 0.56174 0.6097 0.0
H389 H 0.11535 0.58903 0.65205 0.0
H390 H 0.08952 0.44978 0.66842 0.0
H391 H 0.0974 0.45812 0.76546 0.0
H392 H 0.95488 0.60163 0.6634 0.0
H393 H 0.93003 0.58656 0.76047 0.0
C394 C 0.27539 0.97635 0.57473 0.0
C395 C 0.30825 0.96891 0.58528 0.0
C396 C 0.33471 0.98431 0.56842 0.0
C397 C 0.31656 1.00025 0.5487 0.0
N398 N 0.28004 0.99617 0.55213 0.0
Co399 Co 0.2432 0.01485 0.52813 0.0
N400 N 0.28224 0.03625 0.50196 0.0
C401 C 0.31852 0.0348 0.50334 0.0
C402 C 0.33846 0.05199 0.48242 0.0
C403 C 0.31346 0.06545 0.46692 0.0
C404 C 0.27961 0.05571 0.47945 0.0
N405 N 0.20638 0.03375 0.5043 0.0
C406 C 0.21104 0.05404 0.48221 0.0
C407 C 0.17812 0.06234 0.47268 0.0
C408 C 0.15168 0.04683 0.48942 0.0
C409 C 0.16985 0.03009 0.50821 0.0
N410 N 0.20418 0.99322 0.55411 0.0
C411 C 0.1679 0.99425 0.55228 0.0
C412 C 0.14797 0.97625 0.57229 0.0
C413 C 0.17297 0.96266 0.58764 0.0
C414 C 0.20683 0.97328 0.5761 0.0
N415 N 0.24284 0.04361 0.55798 0.0
C416 C 0.2424 0.08589 0.59812 0.0
C417 C 0.21001 0.07326 0.59001 0.0
C418 C 0.21084 0.05226 0.57007 0.0
C419 C 0.275 0.07694 0.58633 0.0
C420 C 0.27461 0.05588 0.5665 0.0
N421 N 0.24357 0.98609 0.49828 0.0
C422 C 0.21151 0.95363 0.46867 0.0
C423 C 0.24412 0.94388 0.45803 0.0
C424 C 0.27645 0.9557 0.46736 0.0
C425 C 0.27556 0.97658 0.48742 0.0
C426 C 0.21186 0.97472 0.48852 0.0
H427 H 0.30111 0.98448 0.49403 0.0
H428 H 0.18613 0.98129 0.49585 0.0
H429 H 0.18525 0.04356 0.56453 0.0
H430 H 0.30035 0.05008 0.55813 0.0
C431 C 0.33306 0.0181 0.5256 0.0
C432 C 0.24065 0.96313 0.58601 0.0
C433 C 0.24593 0.06661 0.47026 0.0
C434 C 0.15341 0.01162 0.53068 0.0
H435 H 0.31263 0.95355 0.60293 0.0
H436 H 0.36374 0.98354 0.56986 0.0
H437 H 0.36768 0.05481 0.47928 0.0
H438 H 0.31945 0.0811 0.44887 0.0
H439 H 0.17367 0.07825 0.45571 0.0
H440 H 0.12264 0.04802 0.48848 0.0
H441 H 0.11875 0.97302 0.57494 0.0
H442 H 0.16697 0.94648 0.60504 0.0
H443 H 0.1842 0.07978 0.59876 0.0
H444 H 0.30066 0.08637 0.59218 0.0
H445 H 0.18588 0.9449 0.46183 0.0
H446 H 0.30228 0.94859 0.45952 0.0
C447 C 0.46457 0.80335 0.06943 0.0
C448 C 0.45341 0.82828 0.07717 0.0
C449 C 0.47444 0.84701 0.0592 0.0
C450 C 0.49709 0.83249 0.04159 0.0
N451 N 0.49162 0.80557 0.04702 0.0
Co452 Co 0.51861 0.77695 0.02675 0.0
N453 N 0.55164 0.80457 0.00228 0.0
C454 C 0.55172 0.83161 0.00349 0.0
C455 C 0.57754 0.84532 0.98392 0.0
C456 C 0.59488 0.82592 0.96916 0.0
C457 C 0.57852 0.80141 0.98064 0.0
N458 N 0.54507 0.74832 0.00597 0.0
C459 C 0.57203 0.75058 0.98348 0.0
C460 C 0.58202 0.72563 0.97467 0.0
C461 C 0.56032 0.70687 0.99201 0.0
C462 C 0.53843 0.72138 0.0103 0.0
N463 N 0.48613 0.74933 0.05178 0.0
C464 C 0.48676 0.72227 0.05132 0.0
C465 C 0.46209 0.70858 0.07195 0.0
C466 C 0.44495 0.72803 0.08681 0.0
C467 C 0.46024 0.75253 0.07426 0.0
N468 N 0.48415 0.77712 0.99335 0.0
C469 C 0.43698 0.77715 0.94502 0.0
C470 C 0.44382 0.75322 0.96088 0.0
C471 C 0.46742 0.75365 0.98477 0.0
C472 C 0.45366 0.80109 0.95365 0.0
C473 C 0.4769 0.80064 0.97783 0.0
N474 N 0.55301 0.77675 0.06013 0.0
C475 C 0.5873 0.75237 0.0968 0.0
C476 C 0.59965 0.77629 0.10882 0.0
C477 C 0.58882 0.80048 0.09606 0.0
C478 C 0.56566 0.80026 0.07183 0.0
C479 C 0.56415 0.75305 0.07259 0.0
H480 H 0.55818 0.81933 0.06312 0.0
H481 H 0.55545 0.73413 0.06454 0.0
H482 H 0.47183 0.73471 0.99578 0.0
H483 H 0.48879 0.81956 0.98338 0.0
C484 C 0.52559 0.84355 0.02164 0.0
C485 C 0.4499 0.77823 0.0851 0.0
C486 C 0.5884 0.77579 0.96923 0.0
C487 C 0.51131 0.71033 0.03163 0.0
H488 H 0.43276 0.83248 0.09451 0.0
H489 H 0.47402 0.86865 0.05959 0.0
H490 H 0.58252 0.86688 0.98025 0.0
H491 H 0.61664 0.82942 0.95149 0.0
H492 H 0.60265 0.72147 0.95728 0.0
H493 H 0.56027 0.68524 0.99117 0.0
H494 H 0.4575 0.68703 0.07603 0.0
H495 H 0.42389 0.7246 0.10508 0.0
H496 H 0.43125 0.73427 0.95464 0.0
H497 H 0.44881 0.82004 0.94175 0.0
H498 H 0.59528 0.73324 0.10624 0.0
H499 H 0.598 0.81943 0.10492 0.0
C500 C 0.81747 0.98244 0.58258 0.0
C501 C 0.84827 0.97406 0.59604 0.0
C502 C 0.87703 0.9889 0.58151 0.0
C503 C 0.86217 0.00548 0.56018 0.0
N504 N 0.82559 0.00232 0.56043 0.0
Co505 Co 0.79291 0.02209 0.53314 0.0
N506 N 0.83544 0.04163 0.50935 0.0
C507 C 0.87099 0.03841 0.51315 0.0
C508 C 0.89386 0.05494 0.49367 0.0
C509 C 0.87163 0.06978 0.47658 0.0
C510 C 0.83636 0.0614 0.48672 0.0
N511 N 0.76017 0.04247 0.50653 0.0
C512 C 0.76832 0.06253 0.48463 0.0
C513 C 0.73736 0.07218 0.47256 0.0
C514 C 0.70853 0.05802 0.48775 0.0
C515 C 0.72347 0.04064 0.50811 0.0
N516 N 0.75041 0.00188 0.5562 0.0
C517 C 0.71487 0.00403 0.5513 0.0
C518 C 0.69207 0.98623 0.56922 0.0
C519 C 0.71433 0.97147 0.58627 0.0
C520 C 0.7496 0.98129 0.57783 0.0
N521 N 0.79149 0.05121 0.56247 0.0
C522 C 0.7895 0.09448 0.60116 0.0
C523 C 0.75752 0.08106 0.59329 0.0
C524 C 0.75911 0.0597 0.57394 0.0
C525 C 0.82249 0.0857 0.58999 0.0
C526 C 0.82287 0.06404 0.57103 0.0
N527 N 0.79431 0.99298 0.50387 0.0
C528 C 0.76334 0.96254 0.47123 0.0
C529 C 0.79492 0.94927 0.4659 0.0
C530 C 0.82643 0.95844 0.47912 0.0
C531 C 0.82558 0.9803 0.49779 0.0
C532 C 0.76363 0.98424 0.49015 0.0
H533 H 0.85042 0.98633 0.50737 0.0
H534 H 0.73859 0.99335 0.49362 0.0
H535 H 0.73378 0.05058 0.56836 0.0
H536 H 0.8489 0.05825 0.56336 0.0
C537 C 0.88192 0.02194 0.53742 0.0
C538 C 0.78141 0.96978 0.59026 0.0
C539 C 0.80471 0.07386 0.47539 0.0
C540 C 0.70381 0.02244 0.52904 0.0
H541 H 0.8498 0.95827 0.61385 0.0
H542 H 0.90548 0.98706 0.58519 0.0
H543 H 0.9232 0.05674 0.49283 0.0
H544 H 0.88033 0.0855 0.45922 0.0
H545 H 0.73581 0.08812 0.45492 0.0
H546 H 0.68005 0.06037 0.48462 0.0
H547 H 0.66279 0.98385 0.56934 0.0
H548 H 0.70555 0.95499 0.60264 0.0
H549 H 0.73142 0.08731 0.60171 0.0
H550 H 0.84785 0.0956 0.59582 0.0
H551 H 0.73844 0.95596 0.46115 0.0
H552 H 0.85146 0.94861 0.47527 0.0
C553 C 0.47437 0.28534 0.07819 0.0
C554 C 0.46426 0.31022 0.08712 0.0
C555 C 0.48571 0.32908 0.0697 0.0
C556 C 0.50758 0.31469 0.05125 0.0
N557 N 0.50114 0.28774 0.05553 0.0
Co558 Co 0.52767 0.25922 0.0346 0.0
N559 N 0.56061 0.28696 0.01022 0.0
C560 C 0.56019 0.31401 0.01108 0.0
C561 C 0.5855 0.3278 0.9911 0.0
C562 C 0.60288 0.30845 0.97628 0.0
C563 C 0.58708 0.28389 0.98817 0.0
N564 N 0.5545 0.2307 0.01397 0.0
C565 C 0.58162 0.23305 0.99161 0.0
C566 C 0.59235 0.20816 0.98329 0.0
C567 C 0.57099 0.18933 0.00083 0.0
C568 C 0.54857 0.20375 0.01878 0.0
N569 N 0.49442 0.23149 0.05868 0.0
C570 C 0.49422 0.20447 0.0572 0.0
C571 C 0.46846 0.19068 0.07676 0.0
C572 C 0.45137 0.21 0.09188 0.0
C573 C 0.46782 0.23454 0.08061 0.0
N574 N 0.4935 0.25989 0.00098 0.0
C575 C 0.44681 0.26088 0.95226 0.0
C576 C 0.45704 0.23656 0.96514 0.0
C577 C 0.4802 0.23651 0.98937 0.0
C578 C 0.45987 0.28469 0.96413 0.0
C579 C 0.48306 0.28375 0.98832 0.0
N580 N 0.56181 0.25858 0.06821 0.0
C581 C 0.59269 0.23403 0.10722 0.0
C582 C 0.60817 0.25792 0.11716 0.0
C583 C 0.60057 0.28211 0.10222 0.0
C584 C 0.57747 0.28198 0.07797 0.0
C585 C 0.56978 0.2348 0.0828 0.0
H586 H 0.57251 0.30109 0.06766 0.0
H587 H 0.55865 0.21593 0.07631 0.0
H588 H 0.48711 0.21733 0.99817 0.0
H589 H 0.49234 0.30259 0.99621 0.0
C590 C 0.53516 0.32585 0.03042 0.0
C591 C 0.45849 0.26005 0.09261 0.0
C592 C 0.59711 0.2583 0.97679 0.0
C593 C 0.5201 0.19261 0.03872 0.0
H594 H 0.44384 0.31428 0.10473 0.0
H595 H 0.48581 0.3507 0.07076 0.0
H596 H 0.59033 0.34936 0.9874 0.0
H597 H 0.62436 0.31199 0.95837 0.0
H598 H 0.61305 0.20407 0.96593 0.0
H599 H 0.57114 0.1677 1.00003 0.0
H600 H 0.46337 0.16912 0.08021 0.0
H601 H 0.42978 0.20645 0.10969 0.0
H602 H 0.44733 0.21769 0.95641 0.0
H603 H 0.4524 0.30394 0.9546 0.0
H604 H 0.5981 0.21489 0.11838 0.0
H605 H 0.61221 0.30103 0.10942 0.0
C606 C 0.18752 0.39779 0.34749 0.0
C607 C 0.17019 0.37236 0.34256 0.0
C608 C 0.11084 0.39142 0.34787 0.0
C609 C 0.12834 0.4174 0.34863 0.0
N610 N 0.18324 0.44614 0.34646 0.0
N611 N 0.11569 0.34546 0.3338 0.0
C612 C 0.1667 0.42083 0.34784 0.0
C613 C 0.13189 0.36924 0.34175 0.0
N614 N 0.22367 0.39976 0.3526 0.0
N615 N 0.07415 0.38789 0.35368 0.0
H616 H 0.13011 0.32873 0.32894 0.0
H617 H 0.08833 0.343 0.32945 0.0
H618 H 0.05807 0.40369 0.35882 0.0
H619 H 0.06019 0.36909 0.3564 0.0
H620 H 0.23712 0.41717 0.35941 0.0
H621 H 0.23967 0.38324 0.35266 0.0
H622 H 0.21108 0.45011 0.34229 0.0
H623 H 0.16885 0.46345 0.34736 0.0
C624 C 0.16629 0.62644 0.71578 0.0
C625 C 0.14846 0.65076 0.71782 0.0
C626 C 0.09018 0.62649 0.71094 0.0
C627 C 0.10733 0.60189 0.71297 0.0
N628 N 0.16097 0.57767 0.71963 0.0
N629 N 0.09284 0.67363 0.72156 0.0
C630 C 0.14525 0.60164 0.71595 0.0
C631 C 0.11024 0.65077 0.7163 0.0
N632 N 0.20331 0.6272 0.71274 0.0
N633 N 0.05481 0.62669 0.70349 0.0
H634 H 0.10644 0.69181 0.72593 0.0
H635 H 0.06474 0.67405 0.72421 0.0
H636 H 0.03891 0.60921 0.70025 0.0
H637 H 0.04224 0.64426 0.6979 0.0
H638 H 0.21785 0.61052 0.70809 0.0
H639 H 0.21956 0.64506 0.71214 0.0
H640 H 0.18766 0.57608 0.72554 0.0
H641 H 0.14656 0.55914 0.71874 0.0
C642 C 0.91978 0.65747 0.34389 0.0
C643 C 0.8816 0.6539 0.34226 0.0
C644 C 0.88534 0.60495 0.3455 0.0
C645 C 0.92318 0.60863 0.3488 0.0
N646 N 0.97504 0.6378 0.35847 0.0
N647 N 0.82702 0.6247 0.34784 0.0
C648 C 0.93997 0.63475 0.35032 0.0
C649 C 0.86404 0.62773 0.34494 0.0
N650 N 0.93698 0.68236 0.33791 0.0
N651 N 0.86995 0.57977 0.34212 0.0
H652 H 0.81059 0.64097 0.34784 0.0
H653 H 0.81269 0.60628 0.35295 0.0
H654 H 0.88453 0.56253 0.3434 0.0
H655 H 0.84336 0.57612 0.33603 0.0
H656 H 0.96508 0.68563 0.33541 0.0
H657 H 0.92327 0.69954 0.33273 0.0
H658 H 0.98769 0.65628 0.3629 0.0
H659 H 0.9904 0.62151 0.36376 0.0
C660 C 0.86809 0.42118 0.71801 0.0
C661 C 0.88558 0.3966 0.71818 0.0
C662 C 0.9452 0.42124 0.71143 0.0
C663 C 0.92767 0.44574 0.71204 0.0
N664 N 0.87343 0.46992 0.71051 0.0
N665 N 0.93968 0.37239 0.71179 0.0
C666 C 0.88933 0.44595 0.71366 0.0
C667 C 0.92388 0.39641 0.71364 0.0
N668 N 0.83119 0.4207 0.72274 0.0
N669 N 0.98229 0.42191 0.70957 0.0
H670 H 0.92507 0.35384 0.71476 0.0
H671 H 0.96698 0.37043 0.70606 0.0
H672 H 0.99863 0.43975 0.70738 0.0
H673 H 0.99735 0.40504 0.71093 0.0
H674 H 0.81684 0.4376 0.72658 0.0
H675 H 0.81461 0.40297 0.72407 0.0
H676 H 0.8458 0.47166 0.70849 0.0
H677 H 0.8883 0.4884 0.70784 0.0
C678 C 0.23974 0.11465 0.39981 0.0
C679 C 0.25261 0.13927 0.41141 0.0
C680 C 0.25674 0.11677 0.46235 0.0
C681 C 0.24741 0.09177 0.44995 0.0
N682 N 0.23548 0.06597 0.40602 0.0
N683 N 0.27934 0.16312 0.45212 0.0
C684 C 0.24046 0.09042 0.41838 0.0
C685 C 0.2627 0.14019 0.4423 0.0
N686 N 0.22576 0.11455 0.37142 0.0
N687 N 0.25923 0.11821 0.49339 0.0
H688 H 0.28442 0.18067 0.43808 0.0
H689 H 0.29098 0.1641 0.47328 0.0
H690 H 0.25526 0.10144 0.50881 0.0
H691 H 0.2622 0.1363 0.50408 0.0
H692 H 0.21252 0.0977 0.36305 0.0
H693 H 0.22451 0.13195 0.35725 0.0
H694 H 0.23424 0.06362 0.38249 0.0
H695 H 0.23543 0.04782 0.41904 0.0
C696 C 0.40445 0.77593 0.86372 0.0
C697 C 0.36642 0.77631 0.86984 0.0
C698 C 0.3749 0.77922 0.92503 0.0
C699 C 0.41267 0.77705 0.9191 0.0
N700 N 0.4635 0.7703 0.88397 0.0
N701 N 0.31452 0.77545 0.90591 0.0
C702 C 0.42751 0.7746 0.88873 0.0
C703 C 0.35136 0.77716 0.90042 0.0
N704 N 0.41849 0.77734 0.83392 0.0
N705 N 0.36175 0.78386 0.9541 0.0
H706 H 0.29646 0.77493 0.88838 0.0
H707 H 0.30164 0.77283 0.9278 0.0
H708 H 0.37806 0.78475 0.97283 0.0
H709 H 0.33522 0.78862 0.95943 0.0
H710 H 0.44606 0.78028 0.8277 0.0
H711 H 0.40238 0.77734 0.81503 0.0
H712 H 0.47535 0.76533 0.86299 0.0
H713 H 0.48138 0.7699 0.90164 0.0
C714 C 0.8122 0.90455 0.39916 0.0
C715 C 0.79245 0.88046 0.41043 0.0
C716 C 0.77812 0.90057 0.45938 0.0
C717 C 0.79471 0.92546 0.44693 0.0
N718 N 0.82314 0.95251 0.40371 0.0
N719 N 0.75236 0.85633 0.44936 0.0
C720 C 0.81065 0.92783 0.41647 0.0
C721 C 0.7743 0.87864 0.44008 0.0
N722 N 0.83319 0.90494 0.37229 0.0
N723 N 0.76687 0.89772 0.48987 0.0
H724 H 0.74904 0.83975 0.43596 0.0
H725 H 0.73521 0.85505 0.46921 0.0
H726 H 0.76883 0.91343 0.50464 0.0
H727 H 0.75834 0.87932 0.50113 0.0
H728 H 0.85124 0.92099 0.36452 0.0
H729 H 0.83491 0.88827 0.35895 0.0
H730 H 0.83132 0.95604 0.38053 0.0
H731 H 0.8226 0.97002 0.41572 0.0
C732 C 0.68299 0.25989 0.92394 0.0
C733 C 0.66784 0.25993 0.89471 0.0
C734 C 0.60647 0.25901 0.91922 0.0
C735 C 0.62157 0.25804 0.94845 0.0
N736 N 0.67296 0.25407 0.97955 0.0
N737 N 0.61577 0.25618 0.86394 0.0
C738 C 0.65954 0.25745 0.95107 0.0
C739 C 0.6297 0.25845 0.89219 0.0
N740 N 0.71981 0.26275 0.92564 0.0
N741 N 0.56999 0.26127 0.91738 0.0
H742 H 0.63189 0.2569 0.84348 0.0
H743 H 0.58843 0.25188 0.86072 0.0
H744 H 0.55192 0.26074 0.93668 0.0
H745 H 0.55772 0.26532 0.89688 0.0
H746 H 0.73264 0.26601 0.94588 0.0
H747 H 0.73786 0.26333 0.90632 0.0
H748 H 0.69988 0.2506 0.98316 0.0
H749 H 0.65657 0.25296 0.9999 0.0
C750 C 0.22994 0.91517 0.65762 0.0
C751 C 0.24097 0.89104 0.64515 0.0
C752 C 0.24722 0.91344 0.59354 0.0
C753 C 0.23992 0.93813 0.60649 0.0
N754 N 0.22933 0.96369 0.65112 0.0
N755 N 0.26603 0.86816 0.60223 0.0
C756 C 0.2327 0.93935 0.63865 0.0
C757 C 0.25116 0.89039 0.61333 0.0
N758 N 0.21571 0.91476 0.68728 0.0
N759 N 0.24968 0.9119 0.56229 0.0
H760 H 0.2697 0.85093 0.61603 0.0
H761 H 0.27767 0.86762 0.57998 0.0
H762 H 0.24734 0.92845 0.54703 0.0
H763 H 0.2509 0.89381 0.55157 0.0
H764 H 0.20373 0.93105 0.69667 0.0
H765 H 0.21292 0.89735 0.70177 0.0
H766 H 0.22804 0.96619 0.67471 0.0
H767 H 0.23062 0.98178 0.63783 0.0
C768 C 0.68346 0.78381 0.15531 0.0
C769 C 0.66865 0.7749 0.18509 0.0
C770 C 0.60813 0.76914 0.16528 0.0
C771 C 0.62345 0.77595 0.1351 0.0
N772 N 0.67601 0.78608 0.10029 0.0
N773 N 0.61838 0.75551 0.21818 0.0
C774 C 0.66124 0.78231 0.12979 0.0
C775 C 0.63135 0.76658 0.19003 0.0
N776 N 0.7185 0.79434 0.15161 0.0
N777 N 0.57129 0.76586 0.17038 0.0
H778 H 0.63446 0.75367 0.23701 0.0
H779 H 0.59247 0.74628 0.22234 0.0
H780 H 0.55346 0.76717 0.15274 0.0
H781 H 0.5582 0.7639 0.19222 0.0
H782 H 0.72972 0.80392 0.13117 0.0
H783 H 0.73573 0.7954 0.16972 0.0
H784 H 0.7038 0.78783 0.09473 0.0
H785 H 0.66052 0.78538 0.08103 0.0
C786 C 0.80303 0.1387 0.66869 0.0
C787 C 0.78738 0.16247 0.65801 0.0
C788 C 0.77609 0.1425 0.60899 0.0
C789 C 0.7885 0.11786 0.62084 0.0
N790 N 0.80782 0.09091 0.6638 0.0
N791 N 0.75355 0.1857 0.62024 0.0
C792 C 0.80036 0.11551 0.65122 0.0
C793 C 0.77239 0.16404 0.62874 0.0
N794 N 0.8214 0.13855 0.69506 0.0
N795 N 0.76893 0.14561 0.57861 0.0
H796 H 0.75024 0.2019 0.63406 0.0
H797 H 0.73859 0.1866 0.6007 0.0
H798 H 0.77111 0.13028 0.56342 0.0
H799 H 0.7638 0.16401 0.56784 0.0
H800 H 0.8367 0.12279 0.70223 0.0
H801 H 0.82405 0.1552 0.70843 0.0
H802 H 0.81282 0.08744 0.68691 0.0
H803 H 0.80583 0.07338 0.65184 0.0
C804 C 0.37299 0.25834 0.14592 0.0
C805 C 0.3884 0.26051 0.17487 0.0
C806 C 0.44947 0.26029 0.15013 0.0
C807 C 0.43416 0.26023 0.12102 0.0
N808 N 0.38224 0.2627 0.09025 0.0
N809 N 0.44092 0.2678 0.20447 0.0
C810 C 0.39612 0.2603 0.11863 0.0
C811 C 0.42658 0.26263 0.17698 0.0
N812 N 0.33636 0.25346 0.14465 0.0
N813 N 0.4858 0.25747 0.15213 0.0
H814 H 0.42499 0.26957 0.22468 0.0
H815 H 0.46838 0.2725 0.20681 0.0
H816 H 0.50364 0.25647 0.13289 0.0
H817 H 0.49784 0.25405 0.17289 0.0
H818 H 0.32382 0.24877 0.12464 0.0
H819 H 0.31854 0.25203 0.16415 0.0
H820 H 0.35516 0.2659 0.08692 0.0
H821 H 0.39837 0.26343 0.06978 0.0
C822 C 0.86547 0.6461 0.70188 0.0
C823 C 0.87939 0.66795 0.71813 0.0
C824 C 0.93496 0.64487 0.72641 0.0
C825 C 0.91949 0.62192 0.71292 0.0
N826 N 0.86867 0.59912 0.69091 0.0
N827 N 0.92539 0.68756 0.74865 0.0
C828 C 0.88443 0.62215 0.70128 0.0
C829 C 0.91371 0.66725 0.73103 0.0
N830 N 0.83438 0.64847 0.68667 0.0
N831 N 0.97025 0.64544 0.73427 0.0
H832 H 0.91107 0.70465 0.75191 0.0
H833 H 0.94799 0.68673 0.76178 0.0
H834 H 0.98636 0.62916 0.73206 0.0
H835 H 0.98451 0.66263 0.74078 0.0
H836 H 0.82477 0.63446 0.67174 0.0
H837 H 0.81959 0.66561 0.68703 0.0
H838 H 0.84168 0.59706 0.68536 0.0
H839 H 0.88179 0.58124 0.68998 0.0
C840 C 0.87706 0.41075 0.3486 0.0
C841 C 0.89489 0.38696 0.34279 0.0
C842 C 0.95409 0.41202 0.34094 0.0
C843 C 0.93638 0.43562 0.34773 0.0
N844 N 0.88205 0.45773 0.36091 0.0
N845 N 0.94989 0.36366 0.3371 0.0
C846 C 0.8981 0.43504 0.35246 0.0
C847 C 0.9333 0.38723 0.34008 0.0
N848 N 0.83999 0.41012 0.34979 0.0
N849 N 0.99074 0.41355 0.33431 0.0
H850 H 0.93568 0.34526 0.33484 0.0
H851 H 0.9776 0.36188 0.33878 0.0
H852 H 0.00728 0.43092 0.33652 0.0
H853 H 0.00463 0.39817 0.32484 0.0
H854 H 0.8251 0.42712 0.35046 0.0
H855 H 0.82372 0.39244 0.34863 0.0
H856 H 0.89656 0.47609 0.36272 0.0
H857 H 0.85478 0.45824 0.36788 0.0
C858 C 0.12284 0.38016 0.73923 0.0
C859 C 0.15815 0.3807 0.72471 0.0
C860 C 0.15369 0.42771 0.7067 0.0
C861 C 0.11742 0.42658 0.71935 0.0
N862 N 0.06526 0.40073 0.74344 0.0
N863 N 0.20536 0.40306 0.69062 0.0
C864 C 0.10135 0.40249 0.73443 0.0
C865 C 0.17304 0.40393 0.70722 0.0
N866 N 0.11032 0.35866 0.75847 0.0
N867 N 0.17014 0.45175 0.69537 0.0
H868 H 0.22045 0.38606 0.69077 0.0
H869 H 0.21581 0.41831 0.6748 0.0
H870 H 0.15691 0.46963 0.69475 0.0
H871 H 0.19768 0.4545 0.68893 0.0
H872 H 0.08664 0.35841 0.77258 0.0
H873 H 0.12497 0.34169 0.76218 0.0
H874 H 0.05096 0.38283 0.75119 0.0
H875 H 0.04875 0.4168 0.74095 0.0
C876 C 0.17158 0.61915 0.35088 0.0
C877 C 0.15557 0.64217 0.33851 0.0
C878 C 0.09754 0.6161 0.33669 0.0
C879 C 0.1146 0.59253 0.34592 0.0
N880 N 0.16866 0.57053 0.35805 0.0
N881 N 0.10491 0.66224 0.31583 0.0
C882 C 0.15186 0.59375 0.3521 0.0
C883 C 0.11889 0.64061 0.33049 0.0
N884 N 0.20537 0.62173 0.36199 0.0
N885 N 0.06082 0.61506 0.33424 0.0
H886 H 0.11956 0.68065 0.31119 0.0
H887 H 0.07982 0.66144 0.30613 0.0
H888 H 0.04432 0.59745 0.33871 0.0
H889 H 0.04628 0.63197 0.33019 0.0
H890 H 0.21705 0.60629 0.37416 0.0
H891 H 0.2206 0.64005 0.36135 0.0
H892 H 0.1966 0.56981 0.35932 0.0
H893 H 0.15494 0.55159 0.35953 0.0
C894 C 0.77051 0.89526 0.61516 0.0
C895 C 0.76487 0.89645 0.64757 0.0
C896 C 0.76308 0.9453 0.64109 0.0
C897 C 0.7766 0.94443 0.61016 0.0
N898 N 0.79263 0.91835 0.56691 0.0
N899 N 0.72552 0.9204 0.68078 0.0
C900 C 0.78012 0.91932 0.59688 0.0
C901 C 0.75254 0.92091 0.65814 0.0
N902 N 0.76035 0.87229 0.60144 0.0
N903 N 0.76001 0.96932 0.65426 0.0
H904 H 0.71194 0.90236 0.68931 0.0
H905 H 0.71323 0.93761 0.68743 0.0
H906 H 0.76722 0.98776 0.64241 0.0
H907 H 0.75302 0.97057 0.67764 0.0
H908 H 0.76066 0.8709 0.57766 0.0
H909 H 0.74645 0.85604 0.61394 0.0
H910 H 0.7993 0.9005 0.55726 0.0
H911 H 0.79873 0.93552 0.5524 0.0
C912 C 0.64152 0.26694 0.19728 0.0
C913 C 0.67726 0.25835 0.19343 0.0
C914 C 0.66841 0.25085 0.13913 0.0
C915 C 0.63191 0.25773 0.14352 0.0
N916 N 0.58174 0.2685 0.17735 0.0
N917 N 0.7235 0.23853 0.16255 0.0
C918 C 0.61789 0.26472 0.17279 0.0
C919 C 0.69036 0.24923 0.16486 0.0
N920 N 0.63053 0.27786 0.2241 0.0
N921 N 0.68242 0.24678 0.11016 0.0
H922 H 0.74064 0.23757 0.18075 0.0
H923 H 0.73295 0.22879 0.14345 0.0
H924 H 0.66707 0.24757 0.0908 0.0
H925 H 0.70983 0.24465 0.10483 0.0
H926 H 0.6064 0.28735 0.2271 0.0
H927 H 0.64676 0.27917 0.24286 0.0
H928 H 0.56895 0.27065 0.19888 0.0
H929 H 0.56375 0.26746 0.15981 0.0
C930 C 0.25512 0.1572 0.62406 0.0
C931 C 0.24523 0.15322 0.65598 0.0
C932 C 0.23517 0.10475 0.65034 0.0
C933 C 0.24233 0.10909 0.61809 0.0
N934 N 0.25201 0.13979 0.57341 0.0
N935 N 0.2196 0.12424 0.69875 0.0
C936 C 0.25022 0.13545 0.6047 0.0
C937 C 0.23345 0.12725 0.66894 0.0
N938 N 0.27052 0.18148 0.61243 0.0
N939 N 0.23113 0.07911 0.6633 0.0
H940 H 0.21773 0.1403 0.713 0.0
H941 H 0.20709 0.10632 0.70854 0.0
H942 H 0.23187 0.06214 0.65037 0.0
H943 H 0.22991 0.07462 0.68696 0.0
H944 H 0.28191 0.18468 0.59005 0.0
H945 H 0.27483 0.19791 0.62588 0.0
H946 H 0.25384 0.15886 0.5623 0.0
H947 H 0.24826 0.1243 0.55857 0.0
C948 C 0.41673 0.77527 0.16958 0.0
C949 C 0.37896 0.77755 0.16695 0.0
C950 C 0.38744 0.77953 0.11066 0.0
C951 C 0.42537 0.77879 0.11334 0.0
N952 N 0.47713 0.78037 0.14454 0.0
N953 N 0.32874 0.78627 0.13571 0.0
C954 C 0.44033 0.77802 0.1426 0.0
C955 C 0.3644 0.78096 0.13765 0.0
N956 N 0.42981 0.76945 0.19775 0.0
N957 N 0.37345 0.77823 0.08234 0.0
H958 H 0.31105 0.78733 0.15503 0.0
H959 H 0.31731 0.79174 0.11518 0.0
H960 H 0.38965 0.77795 0.062 0.0
H961 H 0.34584 0.7756 0.07908 0.0
H962 H 0.45635 0.76449 0.20079 0.0
H963 H 0.41342 0.76756 0.2181 0.0
H964 H 0.48965 0.78309 0.16505 0.0
H965 H 0.4953 0.78174 0.12525 0.0
C966 C 0.81804 0.12312 0.40506 0.0
C967 C 0.80827 0.14719 0.41841 0.0
C968 C 0.80422 0.12408 0.46963 0.0
C969 C 0.80908 0.0994 0.45581 0.0
N970 N 0.81735 0.07448 0.41038 0.0
N971 N 0.78746 0.17006 0.46289 0.0
C972 C 0.81526 0.09865 0.4235 0.0
C973 C 0.80039 0.14762 0.45063 0.0
N974 N 0.83087 0.12383 0.37499 0.0
N975 N 0.80362 0.12501 0.50095 0.0
H976 H 0.78387 0.18767 0.44975 0.0
H977 H 0.77741 0.17052 0.48565 0.0
H978 H 0.80584 0.10803 0.5156 0.0
H979 H 0.80427 0.14291 0.51218 0.0
H980 H 0.84182 0.10751 0.36478 0.0
H981 H 0.83364 0.14148 0.36089 0.0
H982 H 0.81757 0.07236 0.38673 0.0
H983 H 0.81639 0.0562 0.42327 0.0
C984 C 0.36281 0.25314 0.906 0.0
C985 C 0.37735 0.26229 0.87622 0.0
C986 C 0.43789 0.26853 0.89586 0.0
C987 C 0.42282 0.26143 0.92607 0.0
N988 N 0.37046 0.25085 0.96098 0.0
N989 N 0.42719 0.2823 0.84309 0.0
C990 C 0.38511 0.25476 0.93146 0.0
C991 C 0.41451 0.271 0.87121 0.0
N992 N 0.32793 0.24227 0.90977 0.0
N993 N 0.47468 0.2721 0.89062 0.0
H994 H 0.41099 0.28401 0.82432 0.0
H995 H 0.45293 0.29181 0.83892 0.0
H996 H 0.49261 0.27077 0.90818 0.0
H997 H 0.48765 0.27431 0.86874 0.0
H998 H 0.31696 0.2325 0.93018 0.0
H999 H 0.31061 0.24115 0.89172 0.0
H1000 H 0.34269 0.24883 0.9666 0.0
H1001 H 0.38598 0.25175 0.98021 0.0
C1002 C 0.23309 0.90166 0.38832 0.0
C1003 C 0.24666 0.87715 0.39925 0.0
C1004 C 0.25449 0.89548 0.44968 0.0
C1005 C 0.24449 0.92083 0.43779 0.0
N1006 N 0.2298 0.94945 0.39448 0.0
N1007 N 0.27607 0.852 0.43848 0.0
C1008 C 0.23525 0.92432 0.40672 0.0
C1009 C 0.25895 0.87438 0.42946 0.0
N1010 N 0.2172 0.90305 0.36075 0.0
N1011 N 0.25864 0.8913 0.4805 0.0
H1012 H 0.28003 0.83612 0.42431 0.0
H1013 H 0.28916 0.85019 0.45897 0.0
H1014 H 0.25547 0.90626 0.49603 0.0
H1015 H 0.26201 0.87248 0.49106 0.0
H1016 H 0.20337 0.91945 0.35307 0.0
H1017 H 0.21505 0.88684 0.34668 0.0
H1018 H 0.22689 0.95371 0.37113 0.0
H1019 H 0.23128 0.96656 0.4072 0.0
C1020 C 0.62423 0.77237 0.88592 0.0
C1021 C 0.66213 0.77605 0.88914 0.0
C1022 C 0.65184 0.77669 0.94515 0.0
C1023 C 0.61395 0.77546 0.94159 0.0
N1024 N 0.56351 0.77546 0.90889 0.0
N1025 N 0.71232 0.78513 0.92084 0.0
C1026 C 0.59995 0.77421 0.91203 0.0
C1027 C 0.67608 0.77907 0.91853 0.0
N1028 N 0.61155 0.76634 0.85805 0.0
N1029 N 0.66456 0.77513 0.97402 0.0
H1030 H 0.73094 0.78676 0.90187 0.0
H1031 H 0.72365 0.79052 0.94114 0.0
H1032 H 0.64754 0.77399 0.99402 0.0
H1033 H 0.69167 0.77297 0.97826 0.0
H1034 H 0.58457 0.76056 0.85491 0.0
H1035 H 0.62854 0.76496 0.83835 0.0
H1036 H 0.55202 0.77778 0.88771 0.0
H1037 H 0.54477 0.77617 0.92758 0.0
loop_
_geom_bond_atom_site_label_1
_geom_bond_atom_site_label_2
_geom_bond_distance
_geom_bond_site_symmetry_2
_ccdc_geom_bond_type
C0 C1 1.384 . S
C0 H13 0.947 . S
C0 C35 1.382 . S
C1 C0 1.384 . S
C1 C2 1.378 . S
C2 C1 1.378 . S
C2 C3 1.378 . S
C2 H14 0.952 . S
C3 C2 1.378 . S
C3 H15 0.950 . S
C3 C34 1.383 . S
H4 C23 0.947 . S
H5 C24 0.946 . S
H6 C26 0.953 . S
H7 C27 0.945 . S
H8 C29 0.952 . S
H9 C30 0.949 . S
H10 C32 0.950 . S
H11 C33 0.948 . S
H12 C35 0.951 . S
H13 C0 0.947 . S
H14 C2 0.952 . S
H15 C3 0.950 . S
N16 C19 1.382 . S
N16 C21 1.363 . S
N17 C19 1.371 . S
N17 C20 1.372 . S
N18 C20 1.361 . S
N18 C21 1.377 . S
C19 N16 1.382 . S
C19 N17 1.371 . S
C19 C22 1.480 . S
C20 N17 1.372 . S
C20 N18 1.361 . S
C20 C28 1.457 . S
C21 N16 1.363 . S
C21 N18 1.377 . S
C21 C34 1.479 . S
C22 C19 1.480 . S
C22 C23 1.383 . S
C22 C27 1.385 . S
C23 H4 0.947 . S
C23 C22 1.383 . S
C23 C24 1.388 . S
C24 H5 0.946 . S
C24 C23 1.388 . S
C24 C25 1.384 . S
C25 C24 1.384 . S
C25 C26 1.377 . S
C26 H6 0.953 . S
C26 C25 1.377 . S
C26 C27 1.369 . S
C27 H7 0.945 . S
C27 C22 1.385 . S
C27 C26 1.369 . S
C28 C20 1.457 . S
C28 C29 1.372 . S
C28 C33 1.364 . S
C29 H8 0.952 . S
C29 C28 1.372 . S
C29 C30 1.389 . S
C30 H9 0.949 . S
C30 C29 1.389 . S
C30 C31 1.387 . S
C31 C30 1.387 . S
C31 C32 1.372 . S
C32 H10 0.950 . S
C32 C31 1.372 . S
C32 C33 1.379 . S
C33 H11 0.948 . S
C33 C28 1.364 . S
C33 C32 1.379 . S
C34 C3 1.383 . S
C34 C21 1.479 . S
C34 C35 1.398 . S
C35 C0 1.382 . S
C35 H12 0.951 . S
C35 C34 1.398 . S
C36 C37 1.384 . S
C36 H49 0.947 . S
C36 C71 1.382 . S
C37 C36 1.384 . S
C37 C38 1.378 . S
C38 C37 1.378 . S
C38 C39 1.378 . S
C38 H50 0.952 . S
C39 C38 1.378 . S
C39 H51 0.950 . S
C39 C70 1.383 . S
H40 C59 0.947 . S
H41 C60 0.946 . S
H42 C62 0.953 . S
H43 C63 0.945 . S
H44 C65 0.952 . S
H45 C66 0.949 . S
H46 C68 0.950 . S
H47 C69 0.948 . S
H48 C71 0.951 . S
H49 C36 0.947 . S
H50 C38 0.952 . S
H51 C39 0.950 . S
N52 C55 1.382 . S
N52 C57 1.363 . S
N53 C55 1.371 . S
N53 C56 1.372 . S
N54 C56 1.361 . S
N54 C57 1.377 . S
C55 N52 1.382 . S
C55 N53 1.371 . S
C55 C58 1.480 . S
C56 N53 1.372 . S
C56 N54 1.361 . S
C56 C64 1.457 . S
C57 N52 1.363 . S
C57 N54 1.377 . S
C57 C70 1.479 . S
C58 C55 1.480 . S
C58 C59 1.383 . S
C58 C63 1.385 . S
C59 H40 0.947 . S
C59 C58 1.383 . S
C59 C60 1.388 . S
C60 H41 0.946 . S
C60 C59 1.388 . S
C60 C61 1.384 . S
C61 C60 1.384 . S
C61 C62 1.377 . S
C62 H42 0.953 . S
C62 C61 1.377 . S
C62 C63 1.369 . S
C63 H43 0.945 . S
C63 C58 1.385 . S
C63 C62 1.369 . S
C64 C56 1.457 . S
C64 C65 1.372 . S
C64 C69 1.364 . S
C65 H44 0.952 . S
C65 C64 1.372 . S
C65 C66 1.389 . S
C66 H45 0.949 . S
C66 C65 1.389 . S
C66 C67 1.387 . S
C67 C66 1.387 . S
C67 C68 1.372 . S
C68 H46 0.950 . S
C68 C67 1.372 . S
C68 C69 1.379 . S
C69 H47 0.948 . S
C69 C64 1.364 . S
C69 C68 1.379 . S
C70 C39 1.383 . S
C70 C57 1.479 . S
C70 C71 1.398 . S
C71 C36 1.382 . S
C71 H48 0.951 . S
C71 C70 1.398 . S
C72 C73 1.384 . S
C72 H85 0.947 . S
C72 C107 1.382 . S
C73 C72 1.384 . S
C73 C74 1.378 . S
C74 C73 1.378 . S
C74 C75 1.378 . S
C74 H86 0.952 . S
C75 C74 1.378 . S
C75 H87 0.950 . S
C75 C106 1.383 . S
H76 C95 0.947 . S
H77 C96 0.946 . S
H78 C98 0.953 . S
H79 C99 0.945 . S
H80 C101 0.952 . S
H81 C102 0.949 . S
H82 C104 0.950 . S
H83 C105 0.948 . S
H84 C107 0.951 . S
H85 C72 0.947 . S
H86 C74 0.952 . S
H87 C75 0.950 . S
N88 C91 1.382 . S
N88 C93 1.363 . S
N89 C91 1.371 . S
N89 C92 1.372 . S
N90 C92 1.361 . S
N90 C93 1.377 . S
C91 N88 1.382 . S
C91 N89 1.371 . S
C91 C94 1.480 . S
C92 N89 1.372 . S
C92 N90 1.361 . S
C92 C100 1.457 . S
C93 N88 1.363 . S
C93 N90 1.377 . S
C93 C106 1.479 . S
C94 C91 1.480 . S
C94 C95 1.383 . S
C94 C99 1.385 . S
C95 H76 0.947 . S
C95 C94 1.383 . S
C95 C96 1.388 . S
C96 H77 0.946 . S
C96 C95 1.388 . S
C96 C97 1.384 . S
C97 C96 1.384 . S
C97 C98 1.377 . S
C98 H78 0.953 . S
C98 C97 1.377 . S
C98 C99 1.369 . S
C99 H79 0.945 . S
C99 C94 1.385 . S
C99 C98 1.369 . S
C100 C92 1.457 . S
C100 C101 1.372 . S
C100 C105 1.364 . S
C101 H80 0.952 . S
C101 C100 1.372 . S
C101 C102 1.389 . S
C102 H81 0.949 . S
C102 C101 1.389 . S
C102 C103 1.387 . S
C103 C102 1.387 . S
C103 C104 1.372 . S
C104 H82 0.950 . S
C104 C103 1.372 . S
C104 C105 1.379 . S
C105 H83 0.948 . S
C105 C100 1.364 . S
C105 C104 1.379 . S
C106 C75 1.383 . S
C106 C93 1.479 . S
C106 C107 1.398 . S
C107 C72 1.382 . S
C107 H84 0.951 . S
C107 C106 1.398 . S
C108 C109 1.384 . S
C108 H121 0.947 . S
C108 C143 1.382 . S
C109 C108 1.384 . S
C109 C110 1.378 . S
C110 C109 1.378 . S
C110 C111 1.378 . S
C110 H122 0.952 . S
C111 C110 1.378 . S
C111 H123 0.950 . S
C111 C142 1.383 . S
H112 C131 0.947 . S
H113 C132 0.946 . S
H114 C134 0.953 . S
H115 C135 0.945 . S
H116 C137 0.952 . S
H117 C138 0.949 . S
H118 C140 0.950 . S
H119 C141 0.948 . S
H120 C143 0.951 . S
H121 C108 0.947 . S
H122 C110 0.952 . S
H123 C111 0.950 . S
N124 C127 1.382 . S
N124 C129 1.363 . S
N125 C127 1.371 . S
N125 C128 1.372 . S
N126 C128 1.361 . S
N126 C129 1.377 . S
C127 N124 1.382 . S
C127 N125 1.371 . S
C127 C130 1.480 . S
C128 N125 1.372 . S
C128 N126 1.361 . S
C128 C136 1.457 . S
C129 N124 1.363 . S
C129 N126 1.377 . S
C129 C142 1.479 . S
C130 C127 1.480 . S
C130 C131 1.383 . S
C130 C135 1.385 . S
C131 H112 0.947 . S
C131 C130 1.383 . S
C131 C132 1.388 . S
C132 H113 0.946 . S
C132 C131 1.388 . S
C132 C133 1.384 . S
C133 C132 1.384 . S
C133 C134 1.377 . S
C134 H114 0.953 . S
C134 C133 1.377 . S
C134 C135 1.369 . S
C135 H115 0.945 . S
C135 C130 1.385 . S
C135 C134 1.369 . S
C136 C128 1.457 . S
C136 C137 1.372 . S
C136 C141 1.364 . S
C137 H116 0.952 . S
C137 C136 1.372 . S
C137 C138 1.389 . S
C138 H117 0.949 . S
C138 C137 1.389 . S
C138 C139 1.387 . S
C139 C138 1.387 . S
C139 C140 1.372 . S
C140 H118 0.950 . S
C140 C139 1.372 . S
C140 C141 1.379 . S
C141 H119 0.948 . S
C141 C136 1.364 . S
C141 C140 1.379 . S
C142 C111 1.383 . S
C142 C129 1.479 . S
C142 C143 1.398 . S
C143 C108 1.382 . S
C143 H120 0.951 . S
C143 C142 1.398 . S
C144 C145 1.384 . S
C144 H157 0.947 . S
C144 C179 1.382 . S
C145 C144 1.384 . S
C145 C146 1.378 . S
C146 C145 1.378 . S
C146 C147 1.378 . S
C146 H158 0.952 . S
C147 C146 1.378 . S
C147 H159 0.950 . S
C147 C178 1.383 . S
H148 C167 0.947 . S
H149 C168 0.946 . S
H150 C170 0.953 . S
H151 C171 0.945 . S
H152 C173 0.952 . S
H153 C174 0.949 . S
H154 C176 0.950 . S
H155 C177 0.948 . S
H156 C179 0.951 . S
H157 C144 0.947 . S
H158 C146 0.952 . S
H159 C147 0.950 . S
N160 C163 1.382 . S
N160 C165 1.363 . S
N161 C163 1.371 . S
N161 C164 1.372 . S
N162 C164 1.361 . S
N162 C165 1.377 . S
C163 N160 1.382 . S
C163 N161 1.371 . S
C163 C166 1.480 . S
C164 N161 1.372 . S
C164 N162 1.361 . S
C164 C172 1.457 . S
C165 N160 1.363 . S
C165 N162 1.377 . S
C165 C178 1.479 . S
C166 C163 1.480 . S
C166 C167 1.383 . S
C166 C171 1.385 . S
C167 H148 0.947 . S
C167 C166 1.383 . S
C167 C168 1.388 . S
C168 H149 0.946 . S
C168 C167 1.388 . S
C168 C169 1.384 . S
C169 C168 1.384 . S
C169 C170 1.377 . S
C170 H150 0.953 . S
C170 C169 1.377 . S
C170 C171 1.369 . S
C171 H151 0.945 . S
C171 C166 1.385 . S
C171 C170 1.369 . S
C172 C164 1.457 . S
C172 C173 1.372 . S
C172 C177 1.364 . S
C173 H152 0.952 . S
C173 C172 1.372 . S
C173 C174 1.389 . S
C174 H153 0.949 . S
C174 C173 1.389 . S
C174 C175 1.387 . S
C175 C174 1.387 . S
C175 C176 1.372 . S
C176 H154 0.950 . S
C176 C175 1.372 . S
C176 C177 1.379 . S
C177 H155 0.948 . S
C177 C172 1.364 . S
C177 C176 1.379 . S
C178 C147 1.383 . S
C178 C165 1.479 . S
C178 C179 1.398 . S
C179 C144 1.382 . S
C179 H156 0.951 . S
C179 C178 1.398 . S
C180 C181 1.384 . S
C180 H193 0.947 . S
C180 C215 1.382 . S
C181 C180 1.384 . S
C181 C182 1.378 . S
C182 C181 1.378 . S
C182 C183 1.378 . S
C182 H194 0.952 . S
C183 C182 1.378 . S
C183 H195 0.950 . S
C183 C214 1.383 . S
H184 C203 0.947 . S
H185 C204 0.946 . S
H186 C206 0.953 . S
H187 C207 0.945 . S
H188 C209 0.952 . S
H189 C210 0.949 . S
H190 C212 0.950 . S
H191 C213 0.948 . S
H192 C215 0.951 . S
H193 C180 0.947 . S
H194 C182 0.952 . S
H195 C183 0.950 . S
N196 C199 1.382 . S
N196 C201 1.363 . S
N197 C199 1.371 . S
N197 C200 1.372 . S
N198 C200 1.361 . S
N198 C201 1.377 . S
C199 N196 1.382 . S
C199 N197 1.371 . S
C199 C202 1.480 . S
C200 N197 1.372 . S
C200 N198 1.361 . S
C200 C208 1.457 . S
C201 N196 1.363 . S
C201 N198 1.377 . S
C201 C214 1.479 . S
C202 C199 1.480 . S
C202 C203 1.383 . S
C202 C207 1.385 . S
C203 H184 0.947 . S
C203 C202 1.383 . S
C203 C204 1.388 . S
C204 H185 0.946 . S
C204 C203 1.388 . S
C204 C205 1.384 . S
C205 C204 1.384 . S
C205 C206 1.377 . S
C206 H186 0.953 . S
C206 C205 1.377 . S
C206 C207 1.369 . S
C207 H187 0.945 . S
C207 C202 1.385 . S
C207 C206 1.369 . S
C208 C200 1.457 . S
C208 C209 1.372 . S
C208 C213 1.364 . S
C209 H188 0.952 . S
C209 C208 1.372 . S
C209 C210 1.389 . S
C210 H189 0.949 . S
C210 C209 1.389 . S
C210 C211 1.387 . S
C211 C210 1.387 . S
C211 C212 1.372 . S
C212 H190 0.950 . S
C212 C211 1.372 . S
C212 C213 1.379 . S
C213 H191 0.948 . S
C213 C208 1.364 . S
C213 C212 1.379 . S
C214 C183 1.383 . S
C214 C201 1.479 . S
C214 C215 1.398 . S
C215 C180 1.382 . S
C215 H192 0.951 . S
C215 C214 1.398 . S
C216 C217 1.384 . S
C216 H229 0.947 . S
C216 C251 1.382 . S
C217 C216 1.384 . S
C217 C218 1.378 . S
C218 C217 1.378 . S
C218 C219 1.378 . S
C218 H230 0.952 . S
C219 C218 1.378 . S
C219 H231 0.950 . S
C219 C250 1.383 . S
H220 C239 0.947 . S
H221 C240 0.946 . S
H222 C242 0.953 . S
H223 C243 0.945 . S
H224 C245 0.952 . S
H225 C246 0.949 . S
H226 C248 0.950 . S
H227 C249 0.948 . S
H228 C251 0.951 . S
H229 C216 0.947 . S
H230 C218 0.952 . S
H231 C219 0.950 . S
N232 C235 1.382 . S
N232 C237 1.363 . S
N233 C235 1.371 . S
N233 C236 1.372 . S
N234 C236 1.361 . S
N234 C237 1.377 . S
C235 N232 1.382 . S
C235 N233 1.371 . S
C235 C238 1.480 . S
C236 N233 1.372 . S
C236 N234 1.361 . S
C236 C244 1.457 . S
C237 N232 1.363 . S
C237 N234 1.377 . S
C237 C250 1.479 . S
C238 C235 1.480 . S
C238 C239 1.383 . S
C238 C243 1.385 . S
C239 H220 0.947 . S
C239 C238 1.383 . S
C239 C240 1.388 . S
C240 H221 0.946 . S
C240 C239 1.388 . S
C240 C241 1.384 . S
C241 C240 1.384 . S
C241 C242 1.377 . S
C242 H222 0.953 . S
C242 C241 1.377 . S
C242 C243 1.369 . S
C243 H223 0.945 . S
C243 C238 1.385 . S
C243 C242 1.369 . S
C244 C236 1.457 . S
C244 C245 1.372 . S
C244 C249 1.364 . S
C245 H224 0.952 . S
C245 C244 1.372 . S
C245 C246 1.389 . S
C246 H225 0.949 . S
C246 C245 1.389 . S
C246 C247 1.387 . S
C247 C246 1.387 . S
C247 C248 1.372 . S
C248 H226 0.950 . S
C248 C247 1.372 . S
C248 C249 1.379 . S
C249 H227 0.948 . S
C249 C244 1.364 . S
C249 C248 1.379 . S
C250 C219 1.383 . S
C250 C237 1.479 . S
C250 C251 1.398 . S
C251 C216 1.382 . S
C251 H228 0.951 . S
C251 C250 1.398 . S
C252 C253 1.384 . S
C252 H265 0.947 . S
C252 C287 1.382 . S
C253 C252 1.384 . S
C253 C254 1.378 . S
C254 C253 1.378 . S
C254 C255 1.378 . S
C254 H266 0.952 . S
C255 C254 1.378 . S
C255 H267 0.950 . S
C255 C286 1.383 . S
H256 C275 0.947 . S
H257 C276 0.946 . S
H258 C278 0.953 . S
H259 C279 0.945 . S
H260 C281 0.952 . S
H261 C282 0.949 . S
H262 C284 0.950 . S
H263 C285 0.948 . S
H264 C287 0.951 . S
H265 C252 0.947 . S
H266 C254 0.952 . S
H267 C255 0.950 . S
N268 C271 1.382 . S
N268 C273 1.363 . S
N269 C271 1.371 . S
N269 C272 1.372 . S
N270 C272 1.361 . S
N270 C273 1.377 . S
C271 N268 1.382 . S
C271 N269 1.371 . S
C271 C274 1.480 . S
C272 N269 1.372 . S
C272 N270 1.361 . S
C272 C280 1.457 . S
C273 N268 1.363 . S
C273 N270 1.377 . S
C273 C286 1.479 . S
C274 C271 1.480 . S
C274 C275 1.383 . S
C274 C279 1.385 . S
C275 H256 0.947 . S
C275 C274 1.383 . S
C275 C276 1.388 . S
C276 H257 0.946 . S
C276 C275 1.388 . S
C276 C277 1.384 . S
C277 C276 1.384 . S
C277 C278 1.377 . S
C278 H258 0.953 . S
C278 C277 1.377 . S
C278 C279 1.369 . S
C279 H259 0.945 . S
C279 C274 1.385 . S
C279 C278 1.369 . S
C280 C272 1.457 . S
C280 C281 1.372 . S
C280 C285 1.364 . S
C281 H260 0.952 . S
C281 C280 1.372 . S
C281 C282 1.389 . S
C282 H261 0.949 . S
C282 C281 1.389 . S
C282 C283 1.387 . S
C283 C282 1.387 . S
C283 C284 1.372 . S
C284 H262 0.950 . S
C284 C283 1.372 . S
C284 C285 1.379 . S
C285 H263 0.948 . S
C285 C280 1.364 . S
C285 C284 1.379 . S
C286 C255 1.383 . S
C286 C273 1.479 . S
C286 C287 1.398 . S
C287 C252 1.382 . S
C287 H264 0.951 . S
C287 C286 1.398 . S
C288 C289 1.443 . S
C288 N292 1.376 . S
C288 C326 1.389 . S
C289 C288 1.443 . S
C289 C290 1.340 . S
C289 H329 0.951 . S
C290 C289 1.340 . S
C290 C291 1.439 . S
C290 H330 0.950 . S
C291 C290 1.439 . S
C291 N292 1.374 . S
C291 C325 1.395 . S
N292 C288 1.376 . S
N292 C291 1.374 . S
N292 Co293 2.008 . S
Co293 N292 2.008 . S
Co293 N294 1.995 1_455 S
Co293 N299 2.008 . S
Co293 N304 1.995 . S
Co293 N309 2.282 . S
Co293 N315 2.282 1_455 S
N294 Co293 1.995 1_655 S
N294 C295 1.376 . S
N294 C298 1.383 . S
C295 N294 1.376 . S
C295 C296 1.446 . S
C295 C325 1.391 1_655 S
C296 C295 1.446 . S
C296 C297 1.339 . S
C296 H331 0.949 . S
C297 C296 1.339 . S
C297 C298 1.439 . S
C297 H332 0.950 . S
C298 N294 1.383 . S
C298 C297 1.439 . S
C298 C327 1.392 . S
N299 Co293 2.008 . S
N299 C300 1.376 1_455 S
N299 C303 1.374 . S
C300 N299 1.376 1_655 S
C300 C301 1.443 . S
C300 C327 1.389 . S
C301 C300 1.443 . S
C301 C302 1.340 . S
C301 H333 0.951 . S
C302 C301 1.340 . S
C302 C303 1.439 1_655 S
C302 H334 0.950 . S
C303 N299 1.374 . S
C303 C302 1.439 1_455 S
C303 C328 1.395 . S
N304 Co293 1.995 . S
N304 C305 1.376 . S
N304 C308 1.383 . S
C305 N304 1.376 . S
C305 C306 1.446 . S
C305 C328 1.391 . S
C306 C305 1.446 . S
C306 C307 1.339 . S
C306 H335 0.949 . S
C307 C306 1.339 . S
C307 C308 1.439 . S
C307 H336 0.950 . S
C308 N304 1.383 . S
C308 C307 1.439 . S
C308 C326 1.392 . S
N309 Co293 2.282 . S
N309 C312 1.332 . S
N309 C314 1.332 . S
C310 C311 1.386 . S
C310 C313 1.388 . S
C311 C310 1.386 . S
C311 C312 1.382 . S
C311 H337 0.950 . S
C312 N309 1.332 . S
C312 C311 1.382 . S
C312 H323 0.952 . S
C313 C310 1.388 . S
C313 C314 1.382 . S
C313 H338 0.950 . S
C314 N309 1.332 . S
C314 C313 1.382 . S
C314 H324 0.948 . S
N315 Co293 2.282 1_655 S
N315 C319 1.332 . S
N315 C320 1.332 . S
C316 C317 1.388 . S
C316 C320 1.382 . S
C316 H339 0.950 . S
C317 C316 1.388 . S
C317 C318 1.386 . S
C318 C317 1.386 . S
C318 C319 1.382 . S
C318 H340 0.950 . S
C319 N315 1.332 . S
C319 C318 1.382 . S
C319 H321 0.952 . S
C320 N315 1.332 . S
C320 C316 1.382 . S
C320 H322 0.948 . S
H321 C319 0.952 . S
H322 C320 0.948 . S
H323 C312 0.952 . S
H324 C314 0.948 . S
C325 C291 1.395 . S
C325 C295 1.391 1_455 S
C326 C288 1.389 . S
C326 C308 1.392 . S
C327 C298 1.392 . S
C327 C300 1.389 . S
C328 C303 1.395 . S
C328 C305 1.391 . S
H329 C289 0.951 . S
H330 C290 0.950 . S
H331 C296 0.949 . S
H332 C297 0.950 . S
H333 C301 0.951 . S
H334 C302 0.950 . S
H335 C306 0.949 . S
H336 C307 0.950 . S
H337 C311 0.950 . S
H338 C313 0.950 . S
H339 C316 0.950 . S
H340 C318 0.950 . S
C341 C342 1.443 . S
C341 N345 1.376 . S
C341 C379 1.389 . S
C342 C341 1.443 . S
C342 C343 1.340 . S
C342 H382 0.951 . S
C343 C342 1.340 . S
C343 C344 1.439 . S
C343 H383 0.950 . S
C344 C343 1.439 . S
C344 N345 1.374 . S
C344 C378 1.395 . S
N345 C341 1.376 . S
N345 C344 1.374 . S
N345 Co346 2.008 . S
Co346 N345 2.008 . S
Co346 N347 1.995 1_455 S
Co346 N352 2.008 1_455 S
Co346 N357 1.995 . S
Co346 N362 2.282 . S
Co346 N368 2.282 1_455 S
N347 Co346 1.995 1_655 S
N347 C348 1.376 . S
N347 C351 1.383 . S
C348 N347 1.376 . S
C348 C349 1.446 . S
C348 C378 1.391 1_655 S
C349 C348 1.446 . S
C349 C350 1.339 . S
C349 H384 0.949 . S
C350 C349 1.339 . S
C350 C351 1.439 . S
C350 H385 0.950 . S
C351 N347 1.383 . S
C351 C350 1.439 . S
C351 C380 1.392 . S
N352 Co346 2.008 1_655 S
N352 C353 1.376 . S
N352 C356 1.374 1_655 S
C353 N352 1.376 . S
C353 C354 1.443 . S
C353 C380 1.389 . S
C354 C353 1.443 . S
C354 C355 1.340 . S
C354 H386 0.951 . S
C355 C354 1.340 . S
C355 C356 1.439 1_655 S
C355 H387 0.950 . S
C356 N352 1.374 1_455 S
C356 C355 1.439 1_455 S
C356 C381 1.395 . S
N357 Co346 1.995 . S
N357 C358 1.376 . S
N357 C361 1.383 . S
C358 N357 1.376 . S
C358 C359 1.446 . S
C358 C381 1.391 . S
C359 C358 1.446 . S
C359 C360 1.339 . S
C359 H388 0.949 . S
C360 C359 1.339 . S
C360 C361 1.439 . S
C360 H389 0.950 . S
C361 N357 1.383 . S
C361 C360 1.439 . S
C361 C379 1.392 . S
N362 Co346 2.282 . S
N362 C365 1.332 . S
N362 C367 1.332 . S
C363 C364 1.386 . S
C363 C366 1.388 . S
C364 C363 1.386 . S
C364 C365 1.382 . S
C364 H390 0.950 . S
C365 N362 1.332 . S
C365 C364 1.382 . S
C365 H376 0.952 . S
C366 C363 1.388 . S
C366 C367 1.382 . S
C366 H391 0.950 . S
C367 N362 1.332 . S
C367 C366 1.382 . S
C367 H377 0.948 . S
N368 Co346 2.282 1_655 S
N368 C372 1.332 . S
N368 C373 1.332 . S
C369 C370 1.388 . S
C369 C373 1.382 . S
C369 H392 0.950 . S
C370 C369 1.388 . S
C370 C371 1.386 . S
C371 C370 1.386 . S
C371 C372 1.382 . S
C371 H393 0.950 . S
C372 N368 1.332 . S
C372 C371 1.382 . S
C372 H374 0.952 . S
C373 N368 1.332 . S
C373 C369 1.382 . S
C373 H375 0.948 . S
H374 C372 0.952 . S
H375 C373 0.948 . S
H376 C365 0.952 . S
H377 C367 0.948 . S
C378 C344 1.395 . S
C378 C348 1.391 1_455 S
C379 C341 1.389 . S
C379 C361 1.392 . S
C380 C351 1.392 . S
C380 C353 1.389 . S
C381 C356 1.395 . S
C381 C358 1.391 . S
H382 C342 0.951 . S
H383 C343 0.950 . S
H384 C349 0.949 . S
H385 C350 0.950 . S
H386 C354 0.951 . S
H387 C355 0.950 . S
H388 C359 0.949 . S
H389 C360 0.950 . S
H390 C364 0.950 . S
H391 C366 0.950 . S
H392 C369 0.950 . S
H393 C371 0.950 . S
C394 C395 1.443 . S
C394 N398 1.376 . S
C394 C432 1.389 . S
C395 C394 1.443 . S
C395 C396 1.340 . S
C395 H435 0.951 . S
C396 C395 1.340 . S
C396 C397 1.439 . S
C396 H436 0.950 . S
C397 C396 1.439 . S
C397 N398 1.374 . S
C397 C431 1.395 1_565 S
N398 C394 1.376 . S
N398 C397 1.374 . S
N398 Co399 2.008 1_565 S
Co399 N398 2.008 1_545 S
Co399 N400 1.995 . S
Co399 N405 2.008 . S
Co399 N410 1.995 1_545 S
Co399 N415 2.282 . S
Co399 N421 2.282 1_545 S
N400 Co399 1.995 . S
N400 C401 1.376 . S
N400 C404 1.383 . S
C401 N400 1.376 . S
C401 C402 1.446 . S
C401 C431 1.391 . S
C402 C401 1.446 . S
C402 C403 1.339 . S
C402 H437 0.949 . S
C403 C402 1.339 . S
C403 C404 1.439 . S
C403 H438 0.950 . S
C404 N400 1.383 . S
C404 C403 1.439 . S
C404 C433 1.392 . S
N405 Co399 2.008 . S
N405 C406 1.376 . S
N405 C409 1.374 . S
C406 N405 1.376 . S
C406 C407 1.443 . S
C406 C433 1.389 . S
C407 C406 1.443 . S
C407 C408 1.340 . S
C407 H439 0.951 . S
C408 C407 1.340 . S
C408 C409 1.439 . S
C408 H440 0.950 . S
C409 N405 1.374 . S
C409 C408 1.439 . S
C409 C434 1.395 . S
N410 Co399 1.995 1_565 S
N410 C411 1.376 . S
N410 C414 1.383 . S
C411 N410 1.376 . S
C411 C412 1.446 . S
C411 C434 1.391 1_565 S
C412 C411 1.446 . S
C412 C413 1.339 . S
C412 H441 0.949 . S
C413 C412 1.339 . S
C413 C414 1.439 . S
C413 H442 0.950 . S
C414 N410 1.383 . S
C414 C413 1.439 . S
C414 C432 1.392 . S
N415 Co399 2.282 . S
N415 C418 1.332 . S
N415 C420 1.332 . S
C416 C417 1.386 . S
C416 C419 1.388 . S
C417 C416 1.386 . S
C417 C418 1.382 . S
C417 H443 0.950 . S
C418 N415 1.332 . S
C418 C417 1.382 . S
C418 H429 0.952 . S
C419 C416 1.388 . S
C419 C420 1.382 . S
C419 H444 0.950 . S
C420 N415 1.332 . S
C420 C419 1.382 . S
C420 H430 0.948 . S
N421 Co399 2.282 1_565 S
N421 C425 1.332 . S
N421 C426 1.332 . S
C422 C423 1.388 . S
C422 C426 1.382 . S
C422 H445 0.950 . S
C423 C422 1.388 . S
C423 C424 1.386 . S
C424 C423 1.386 . S
C424 C425 1.382 . S
C424 H446 0.950 . S
C425 N421 1.332 . S
C425 C424 1.382 . S
C425 H427 0.952 . S
C426 N421 1.332 . S
C426 C422 1.382 . S
C426 H428 0.948 . S
H427 C425 0.952 . S
H428 C426 0.948 . S
H429 C418 0.952 . S
H430 C420 0.948 . S
C431 C397 1.395 1_545 S
C431 C401 1.391 . S
C432 C394 1.389 . S
C432 C414 1.392 . S
C433 C404 1.392 . S
C433 C406 1.389 . S
C434 C409 1.395 . S
C434 C411 1.391 1_545 S
H435 C395 0.951 . S
H436 C396 0.950 . S
H437 C402 0.949 . S
H438 C403 0.950 . S
H439 C407 0.951 . S
H440 C408 0.950 . S
H441 C412 0.949 . S
H442 C413 0.950 . S
H443 C417 0.950 . S
H444 C419 0.950 . S
H445 C422 0.950 . S
H446 C424 0.950 . S
C447 C448 1.443 . S
C447 N451 1.376 . S
C447 C485 1.389 . S
C448 C447 1.443 . S
C448 C449 1.340 . S
C448 H488 0.951 . S
C449 C448 1.340 . S
C449 C450 1.439 . S
C449 H489 0.950 . S
C450 C449 1.439 . S
C450 N451 1.374 . S
C450 C484 1.395 . S
N451 C447 1.376 . S
N451 C450 1.374 . S
N451 Co452 2.008 . S
Co452 N451 2.008 . S
Co452 N453 1.995 . S
Co452 N458 2.008 1_554 S
Co452 N463 1.995 . S
Co452 N468 2.282 1_554 S
Co452 N474 2.282 . S
N453 Co452 1.995 . S
N453 C454 1.376 . S
N453 C457 1.382 1_554 S
C454 N453 1.376 . S
C454 C455 1.446 1_554 S
C454 C484 1.391 . S
C455 C454 1.446 1_556 S
C455 C456 1.339 . S
C455 H490 0.949 . S
C456 C455 1.339 . S
C456 C457 1.439 . S
C456 H491 0.950 . S
C457 N453 1.382 1_556 S
C457 C456 1.439 . S
C457 C486 1.392 . S
N458 Co452 2.008 1_556 S
N458 C459 1.376 . S
N458 C462 1.374 1_556 S
C459 N458 1.376 . S
C459 C460 1.443 . S
C459 C486 1.389 . S
C460 C459 1.443 . S
C460 C461 1.340 . S
C460 H492 0.951 . S
C461 C460 1.340 . S
C461 C462 1.424 1_556 S
C461 H493 0.950 . S
C462 N458 1.374 1_554 S
C462 C461 1.424 1_554 S
C462 C487 1.408 . S
N463 Co452 1.995 . S
N463 C464 1.376 . S
N463 C467 1.383 . S
C464 N463 1.376 . S
C464 C465 1.446 . S
C464 C487 1.391 . S
C465 C464 1.446 . S
C465 C466 1.339 . S
C465 H494 0.949 . S
C466 C465 1.339 . S
C466 C467 1.439 . S
C466 H495 0.950 . S
C467 N463 1.383 . S
C467 C466 1.439 . S
C467 C485 1.392 . S
N468 Co452 2.282 1_556 S
N468 C471 1.332 . S
N468 C473 1.332 . S
C469 C470 1.386 . S
C469 C472 1.388 . S
C470 C469 1.386 . S
C470 C471 1.382 . S
C470 H496 0.950 . S
C471 N468 1.332 . S
C471 C470 1.382 . S
C471 H482 0.952 . S
C472 C469 1.388 . S
C472 C473 1.382 . S
C472 H497 0.950 . S
C473 N468 1.332 . S
C473 C472 1.382 . S
C473 H483 0.948 . S
N474 Co452 2.282 . S
N474 C478 1.332 . S
N474 C479 1.332 . S
C475 C476 1.388 . S
C475 C479 1.382 . S
C475 H498 0.950 . S
C476 C475 1.388 . S
C476 C477 1.386 . S
C477 C476 1.386 . S
C477 C478 1.382 . S
C477 H499 0.950 . S
C478 N474 1.332 . S
C478 C477 1.382 . S
C478 H480 0.952 . S
C479 N474 1.332 . S
C479 C475 1.382 . S
C479 H481 0.948 . S
H480 C478 0.952 . S
H481 C479 0.948 . S
H482 C471 0.952 . S
H483 C473 0.948 . S
C484 C450 1.395 . S
C484 C454 1.391 . S
C485 C447 1.389 . S
C485 C467 1.392 . S
C486 C457 1.392 . S
C486 C459 1.389 . S
C487 C462 1.408 . S
C487 C464 1.391 . S
H488 C448 0.951 . S
H489 C449 0.950 . S
H490 C455 0.949 . S
H491 C456 0.950 . S
H492 C460 0.951 . S
H493 C461 0.950 . S
H494 C465 0.949 . S
H495 C466 0.950 . S
H496 C470 0.950 . S
H497 C472 0.950 . S
H498 C475 0.950 . S
H499 C477 0.950 . S
C500 C501 1.443 . S
C500 N504 1.376 1_565 S
C500 C538 1.389 . S
C501 C500 1.443 . S
C501 C502 1.340 . S
C501 H541 0.951 . S
C502 C501 1.340 . S
C502 C503 1.439 1_565 S
C502 H542 0.950 . S
C503 C502 1.439 1_545 S
C503 N504 1.374 . S
C503 C537 1.395 . S
N504 C500 1.376 1_545 S
N504 C503 1.374 . S
N504 Co505 2.008 . S
Co505 N504 2.008 . S
Co505 N506 1.995 . S
Co505 N511 2.008 . S
Co505 N516 1.995 . S
Co505 N521 2.282 . S
Co505 N527 2.282 1_545 S
N506 Co505 1.995 . S
N506 C507 1.376 . S
N506 C510 1.383 . S
C507 N506 1.376 . S
C507 C508 1.446 . S
C507 C537 1.391 . S
C508 C507 1.446 . S
C508 C509 1.339 . S
C508 H543 0.949 . S
C509 C508 1.339 . S
C509 C510 1.439 . S
C509 H544 0.950 . S
C510 N506 1.383 . S
C510 C509 1.439 . S
C510 C539 1.392 . S
N511 Co505 2.008 . S
N511 C512 1.376 . S
N511 C515 1.374 . S
C512 N511 1.376 . S
C512 C513 1.443 . S
C512 C539 1.389 . S
C513 C512 1.443 . S
C513 C514 1.340 . S
C513 H545 0.951 . S
C514 C513 1.340 . S
C514 C515 1.439 . S
C514 H546 0.950 . S
C515 N511 1.374 . S
C515 C514 1.439 . S
C515 C540 1.395 . S
N516 Co505 1.995 . S
N516 C517 1.376 . S
N516 C520 1.383 1_545 S
C517 N516 1.376 . S
C517 C518 1.446 1_545 S
C517 C540 1.391 . S
C518 C517 1.446 1_565 S
C518 C519 1.339 . S
C518 H547 0.949 . S
C519 C518 1.339 . S
C519 C520 1.439 . S
C519 H548 0.950 . S
C520 N516 1.383 1_565 S
C520 C519 1.439 . S
C520 C538 1.392 . S
N521 Co505 2.282 . S
N521 C524 1.332 . S
N521 C526 1.332 . S
C522 C523 1.386 . S
C522 C525 1.388 . S
C523 C522 1.386 . S
C523 C524 1.382 . S
C523 H549 0.950 . S
C524 N521 1.332 . S
C524 C523 1.382 . S
C524 H535 0.952 . S
C525 C522 1.388 . S
C525 C526 1.382 . S
C525 H550 0.950 . S
C526 N521 1.332 . S
C526 C525 1.382 . S
C526 H536 0.948 . S
N527 Co505 2.282 1_565 S
N527 C531 1.332 . S
N527 C532 1.332 . S
C528 C529 1.388 . S
C528 C532 1.382 . S
C528 H551 0.950 . S
C529 C528 1.388 . S
C529 C530 1.386 . S
C530 C529 1.386 . S
C530 C531 1.382 . S
C530 H552 0.950 . S
C531 N527 1.332 . S
C531 C530 1.382 . S
C531 H533 0.952 . S
C532 N527 1.332 . S
C532 C528 1.382 . S
C532 H534 0.948 . S
H533 C531 0.952 . S
H534 C532 0.948 . S
H535 C524 0.952 . S
H536 C526 0.948 . S
C537 C503 1.395 . S
C537 C507 1.391 . S
C538 C500 1.389 . S
C538 C520 1.392 . S
C539 C510 1.392 . S
C539 C512 1.389 . S
C540 C515 1.395 . S
C540 C517 1.391 . S
H541 C501 0.951 . S
H542 C502 0.950 . S
H543 C508 0.949 . S
H544 C509 0.950 . S
H545 C513 0.951 . S
H546 C514 0.950 . S
H547 C518 0.949 . S
H548 C519 0.950 . S
H549 C523 0.950 . S
H550 C525 0.950 . S
H551 C528 0.950 . S
H552 C530 0.950 . S
C553 C554 1.443 . S
C553 N557 1.376 . S
C553 C591 1.389 . S
C554 C553 1.443 . S
C554 C555 1.340 . S
C554 H594 0.951 . S
C555 C554 1.340 . S
C555 C556 1.439 . S
C555 H595 0.950 . S
C556 C555 1.439 . S
C556 N557 1.374 . S
C556 C590 1.395 . S
N557 C553 1.376 . S
N557 C556 1.374 . S
N557 Co558 2.008 . S
Co558 N557 2.008 . S
Co558 N559 1.995 . S
Co558 N564 2.008 . S
Co558 N569 1.995 . S
Co558 N574 2.280 . S
Co558 N580 2.282 . S
N559 Co558 1.995 . S
N559 C560 1.376 . S
N559 C563 1.383 1_554 S
C560 N559 1.376 . S
C560 C561 1.446 1_554 S
C560 C590 1.391 . S
C561 C560 1.446 1_556 S
C561 C562 1.339 . S
C561 H596 0.949 . S
C562 C561 1.339 . S
C562 C563 1.439 . S
C562 H597 0.950 . S
C563 N559 1.383 1_556 S
C563 C562 1.439 . S
C563 C592 1.392 . S
N564 Co558 2.008 . S
N564 C565 1.376 1_554 S
N564 C568 1.374 . S
C565 N564 1.376 1_556 S
C565 C566 1.443 . S
C565 C592 1.389 . S
C566 C565 1.443 . S
C566 C567 1.340 . S
C566 H598 0.951 . S
C567 C566 1.340 . S
C567 C568 1.439 1_556 S
C567 H599 0.950 . S
C568 N564 1.374 . S
C568 C567 1.439 1_554 S
C568 C593 1.395 . S
N569 Co558 1.995 . S
N569 C570 1.376 . S
N569 C573 1.383 . S
C570 N569 1.376 . S
C570 C571 1.446 . S
C570 C593 1.391 . S
C571 C570 1.446 . S
C571 C572 1.339 . S
C571 H600 0.949 . S
C572 C571 1.339 . S
C572 C573 1.439 . S
C572 H601 0.950 . S
C573 N569 1.383 . S
C573 C572 1.439 . S
C573 C591 1.392 . S
N574 Co558 2.280 . S
N574 C577 1.333 1_554 S
N574 C579 1.334 1_554 S
C575 C576 1.386 . S
C575 C578 1.388 . S
C576 C575 1.386 . S
C576 C577 1.382 . S
C576 H602 0.950 . S
C577 N574 1.333 1_556 S
C577 C576 1.382 . S
C577 H588 0.952 1_556 S
C578 C575 1.388 . S
C578 C579 1.382 . S
C578 H603 0.950 . S
C579 N574 1.334 1_556 S
C579 C578 1.382 . S
C579 H589 0.948 . S
N580 Co558 2.282 . S
N580 C584 1.332 . S
N580 C585 1.332 . S
C581 C582 1.388 . S
C581 C585 1.382 . S
C581 H604 0.950 . S
C582 C581 1.388 . S
C582 C583 1.386 . S
C583 C582 1.386 . S
C583 C584 1.382 . S
C583 H605 0.950 . S
C584 N580 1.332 . S
C584 C583 1.382 . S
C584 H586 0.952 . S
C585 N580 1.332 . S
C585 C581 1.382 . S
C585 H587 0.948 . S
H586 C584 0.952 . S
H587 C585 0.948 . S
H588 C577 0.952 1_554 S
H589 C579 0.948 . S
C590 C556 1.395 . S
C590 C560 1.391 . S
C591 C553 1.389 . S
C591 C573 1.392 . S
C592 C563 1.392 . S
C592 C565 1.389 . S
C593 C568 1.395 . S
C593 C570 1.391 . S
H594 C554 0.951 . S
H595 C555 0.950 . S
H596 C561 0.949 . S
H597 C562 0.950 . S
H598 C566 0.951 . S
H599 C567 0.950 . S
H600 C571 0.949 . S
H601 C572 0.950 . S
H602 C576 0.950 . S
H603 C578 0.950 . S
H604 C581 0.950 . S
H605 C583 0.950 . S
C606 C607 1.363 . S
C606 C612 1.379 . S
C606 N614 1.356 . S
C607 C606 1.363 . S
C607 C613 1.363 . S
C608 C609 1.363 . S
C608 C613 1.379 . S
C608 N615 1.356 . S
C609 C608 1.363 . S
C609 C612 1.363 . S
N610 C612 1.356 . S
N610 H622 0.984 . S
N610 H623 0.985 . S
N611 C613 1.356 . S
N611 H616 0.984 . S
N611 H617 0.985 . S
C612 C606 1.379 . S
C612 C609 1.363 . S
C612 N610 1.356 . S
C613 C607 1.363 . S
C613 C608 1.379 . S
C613 N611 1.356 . S
N614 C606 1.356 . S
N614 H620 0.984 . S
N614 H621 0.984 . S
N615 C608 1.356 . S
N615 H618 0.984 . S
N615 H619 0.985 . S
H616 N611 0.984 . S
H617 N611 0.985 . S
H618 N615 0.984 . S
H619 N615 0.985 . S
H620 N614 0.984 . S
H621 N614 0.984 . S
H622 N610 0.984 . S
H623 N610 0.985 . S
C624 C625 1.363 . S
C624 C630 1.379 . S
C624 N632 1.356 . S
C625 C624 1.363 . S
C625 C631 1.363 . S
C626 C627 1.363 . S
C626 C631 1.379 . S
C626 N633 1.356 . S
C627 C626 1.363 . S
C627 C630 1.363 . S
N628 C630 1.356 . S
N628 H640 0.984 . S
N628 H641 0.985 . S
N629 C631 1.356 . S
N629 H634 0.984 . S
N629 H635 0.985 . S
C630 C624 1.379 . S
C630 C627 1.363 . S
C630 N628 1.356 . S
C631 C625 1.363 . S
C631 C626 1.379 . S
C631 N629 1.356 . S
N632 C624 1.356 . S
N632 H638 0.984 . S
N632 H639 0.984 . S
N633 C626 1.356 . S
N633 H636 0.984 . S
N633 H637 0.985 . S
H634 N629 0.984 . S
H635 N629 0.985 . S
H636 N633 0.984 . S
H637 N633 0.985 . S
H638 N632 0.984 . S
H639 N632 0.984 . S
H640 N628 0.984 . S
H641 N628 0.985 . S
C642 C643 1.363 . S
C642 C648 1.379 . S
C642 N650 1.356 . S
C643 C642 1.363 . S
C643 C649 1.363 . S
C644 C645 1.363 . S
C644 C649 1.379 . S
C644 N651 1.356 . S
C645 C644 1.363 . S
C645 C648 1.363 . S
N646 C648 1.356 . S
N646 H658 0.984 . S
N646 H659 0.985 . S
N647 C649 1.356 . S
N647 H652 0.984 . S
N647 H653 0.985 . S
C648 C642 1.379 . S
C648 C645 1.363 . S
C648 N646 1.356 . S
C649 C643 1.363 . S
C649 C644 1.379 . S
C649 N647 1.356 . S
N650 C642 1.356 . S
N650 H656 0.984 . S
N650 H657 0.984 . S
N651 C644 1.356 . S
N651 H654 0.984 . S
N651 H655 0.985 . S
H652 N647 0.984 . S
H653 N647 0.985 . S
H654 N651 0.984 . S
H655 N651 0.985 . S
H656 N650 0.984 . S
H657 N650 0.984 . S
H658 N646 0.984 . S
H659 N646 0.985 . S
C660 C661 1.363 . S
C660 C666 1.379 . S
C660 N668 1.356 . S
C661 C660 1.363 . S
C661 C667 1.363 . S
C662 C663 1.363 . S
C662 C667 1.379 . S
C662 N669 1.356 . S
C663 C662 1.363 . S
C663 C666 1.363 . S
N664 C666 1.356 . S
N664 H676 0.984 . S
N664 H677 0.985 . S
N665 C667 1.356 . S
N665 H670 0.984 . S
N665 H671 0.985 . S
C666 C660 1.379 . S
C666 C663 1.363 . S
C666 N664 1.356 . S
C667 C661 1.363 . S
C667 C662 1.379 . S
C667 N665 1.356 . S
N668 C660 1.356 . S
N668 H674 0.984 . S
N668 H675 0.984 . S
N669 C662 1.356 . S
N669 H672 0.984 . S
N669 H673 0.985 . S
H670 N665 0.984 . S
H671 N665 0.985 . S
H672 N669 0.984 . S
H673 N669 0.985 . S
H674 N668 0.984 . S
H675 N668 0.984 . S
H676 N664 0.984 . S
H677 N664 0.985 . S
C678 C679 1.363 . S
C678 C684 1.379 . S
C678 N686 1.356 . S
C679 C678 1.363 . S
C679 C685 1.363 . S
C680 C681 1.363 . S
C680 C685 1.379 . S
C680 N687 1.356 . S
C681 C680 1.363 . S
C681 C684 1.363 . S
N682 C684 1.356 . S
N682 H694 0.984 . S
N682 H695 0.985 . S
N683 C685 1.356 . S
N683 H688 0.984 . S
N683 H689 0.985 . S
C684 C678 1.379 . S
C684 C681 1.363 . S
C684 N682 1.356 . S
C685 C679 1.363 . S
C685 C680 1.379 . S
C685 N683 1.356 . S
N686 C678 1.356 . S
N686 H692 0.984 . S
N686 H693 0.984 . S
N687 C680 1.356 . S
N687 H690 0.984 . S
N687 H691 0.985 . S
H688 N683 0.984 . S
H689 N683 0.985 . S
H690 N687 0.984 . S
H691 N687 0.985 . S
H692 N686 0.984 . S
H693 N686 0.984 . S
H694 N682 0.984 . S
H695 N682 0.985 . S
C696 C697 1.363 . S
C696 C702 1.379 . S
C696 N704 1.356 . S
C697 C696 1.363 . S
C697 C703 1.363 . S
C698 C699 1.363 . S
C698 C703 1.379 . S
C698 N705 1.356 . S
C699 C698 1.363 . S
C699 C702 1.363 . S
N700 C702 1.356 . S
N700 H712 0.984 . S
N700 H713 0.985 . S
N701 C703 1.356 . S
N701 H706 0.984 . S
N701 H707 0.985 . S
C702 C696 1.379 . S
C702 C699 1.363 . S
C702 N700 1.356 . S
C703 C697 1.363 . S
C703 C698 1.379 . S
C703 N701 1.356 . S
N704 C696 1.356 . S
N704 H710 0.984 . S
N704 H711 0.984 . S
N705 C698 1.356 . S
N705 H708 0.984 . S
N705 H709 0.985 . S
H706 N701 0.984 . S
H707 N701 0.985 . S
H708 N705 0.984 . S
H709 N705 0.985 . S
H710 N704 0.984 . S
H711 N704 0.984 . S
H712 N700 0.984 . S
H713 N700 0.985 . S
C714 C715 1.363 . S
C714 C720 1.379 . S
C714 N722 1.356 . S
C715 C714 1.363 . S
C715 C721 1.363 . S
C716 C717 1.363 . S
C716 C721 1.379 . S
C716 N723 1.356 . S
C717 C716 1.363 . S
C717 C720 1.363 . S
N718 C720 1.356 . S
N718 H730 0.984 . S
N718 H731 0.985 . S
N719 C721 1.356 . S
N719 H724 0.984 . S
N719 H725 0.985 . S
C720 C714 1.379 . S
C720 C717 1.363 . S
C720 N718 1.356 . S
C721 C715 1.363 . S
C721 C716 1.379 . S
C721 N719 1.356 . S
N722 C714 1.356 . S
N722 H728 0.984 . S
N722 H729 0.984 . S
N723 C716 1.356 . S
N723 H726 0.984 . S
N723 H727 0.985 . S
H724 N719 0.984 . S
H725 N719 0.985 . S
H726 N723 0.984 . S
H727 N723 0.985 . S
H728 N722 0.984 . S
H729 N722 0.984 . S
H730 N718 0.984 . S
H731 N718 0.985 . S
C732 C733 1.363 . S
C732 C738 1.379 . S
C732 N740 1.356 . S
C733 C732 1.363 . S
C733 C739 1.363 . S
C734 C735 1.363 . S
C734 C739 1.379 . S
C734 N741 1.356 . S
C735 C734 1.363 . S
C735 C738 1.363 . S
N736 C738 1.356 . S
N736 H748 0.984 . S
N736 H749 0.985 . S
N737 C739 1.356 . S
N737 H742 0.984 . S
N737 H743 0.985 . S
C738 C732 1.379 . S
C738 C735 1.363 . S
C738 N736 1.356 . S
C739 C733 1.363 . S
C739 C734 1.379 . S
C739 N737 1.356 . S
N740 C732 1.356 . S
N740 H746 0.984 . S
N740 H747 0.984 . S
N741 C734 1.356 . S
N741 H744 0.984 . S
N741 H745 0.985 . S
H742 N737 0.984 . S
H743 N737 0.985 . S
H744 N741 0.984 . S
H745 N741 0.985 . S
H746 N740 0.984 . S
H747 N740 0.984 . S
H748 N736 0.984 . S
H749 N736 0.985 . S
C750 C751 1.363 . S
C750 C756 1.379 . S
C750 N758 1.356 . S
C751 C750 1.363 . S
C751 C757 1.363 . S
C752 C753 1.363 . S
C752 C757 1.379 . S
C752 N759 1.356 . S
C753 C752 1.363 . S
C753 C756 1.363 . S
N754 C756 1.356 . S
N754 H766 0.984 . S
N754 H767 0.985 . S
N755 C757 1.356 . S
N755 H760 0.984 . S
N755 H761 0.985 . S
C756 C750 1.379 . S
C756 C753 1.363 . S
C756 N754 1.356 . S
C757 C751 1.363 . S
C757 C752 1.379 . S
C757 N755 1.356 . S
N758 C750 1.356 . S
N758 H764 0.984 . S
N758 H765 0.984 . S
N759 C752 1.356 . S
N759 H762 0.984 . S
N759 H763 0.985 . S
H760 N755 0.984 . S
H761 N755 0.985 . S
H762 N759 0.984 . S
H763 N759 0.985 . S
H764 N758 0.984 . S
H765 N758 0.984 . S
H766 N754 0.984 . S
H767 N754 0.985 . S
C768 C769 1.363 . S
C768 C774 1.379 . S
C768 N776 1.356 . S
C769 C768 1.363 . S
C769 C775 1.363 . S
C770 C771 1.363 . S
C770 C775 1.379 . S
C770 N777 1.356 . S
C771 C770 1.363 . S
C771 C774 1.363 . S
N772 C774 1.356 . S
N772 H784 0.984 . S
N772 H785 0.985 . S
N773 C775 1.356 . S
N773 H778 0.984 . S
N773 H779 0.985 . S
C774 C768 1.379 . S
C774 C771 1.363 . S
C774 N772 1.356 . S
C775 C769 1.363 . S
C775 C770 1.379 . S
C775 N773 1.356 . S
N776 C768 1.356 . S
N776 H782 0.984 . S
N776 H783 0.984 . S
N777 C770 1.356 . S
N777 H780 0.984 . S
N777 H781 0.985 . S
H778 N773 0.984 . S
H779 N773 0.985 . S
H780 N777 0.984 . S
H781 N777 0.985 . S
H782 N776 0.984 . S
H783 N776 0.984 . S
H784 N772 0.984 . S
H785 N772 0.985 . S
C786 C787 1.363 . S
C786 C792 1.379 . S
C786 N794 1.356 . S
C787 C786 1.363 . S
C787 C793 1.363 . S
C788 C789 1.363 . S
C788 C793 1.379 . S
C788 N795 1.356 . S
C789 C788 1.363 . S
C789 C792 1.363 . S
N790 C792 1.356 . S
N790 H802 0.984 . S
N790 H803 0.985 . S
N791 C793 1.356 . S
N791 H796 0.984 . S
N791 H797 0.985 . S
C792 C786 1.379 . S
C792 C789 1.363 . S
C792 N790 1.356 . S
C793 C787 1.363 . S
C793 C788 1.379 . S
C793 N791 1.356 . S
N794 C786 1.356 . S
N794 H800 0.984 . S
N794 H801 0.984 . S
N795 C788 1.356 . S
N795 H798 0.984 . S
N795 H799 0.985 . S
H796 N791 0.984 . S
H797 N791 0.985 . S
H798 N795 0.984 . S
H799 N795 0.985 . S
H800 N794 0.984 . S
H801 N794 0.984 . S
H802 N790 0.984 . S
H803 N790 0.985 . S
C804 C805 1.363 . S
C804 C810 1.379 . S
C804 N812 1.356 . S
C805 C804 1.363 . S
C805 C811 1.363 . S
C806 C807 1.363 . S
C806 C811 1.379 . S
C806 N813 1.356 . S
C807 C806 1.363 . S
C807 C810 1.363 . S
N808 C810 1.356 . S
N808 H820 0.984 . S
N808 H821 0.985 . S
N809 C811 1.356 . S
N809 H814 0.984 . S
N809 H815 0.985 . S
C810 C804 1.379 . S
C810 C807 1.363 . S
C810 N808 1.356 . S
C811 C805 1.363 . S
C811 C806 1.379 . S
C811 N809 1.356 . S
N812 C804 1.356 . S
N812 H818 0.984 . S
N812 H819 0.984 . S
N813 C806 1.356 . S
N813 H816 0.984 . S
N813 H817 0.985 . S
H814 N809 0.984 . S
H815 N809 0.985 . S
H816 N813 0.984 . S
H817 N813 0.985 . S
H818 N812 0.984 . S
H819 N812 0.984 . S
H820 N808 0.984 . S
H821 N808 0.985 . S
C822 C823 1.363 . S
C822 C828 1.379 . S
C822 N830 1.356 . S
C823 C822 1.363 . S
C823 C829 1.363 . S
C824 C825 1.363 . S
C824 C829 1.379 . S
C824 N831 1.356 . S
C825 C824 1.363 . S
C825 C828 1.363 . S
N826 C828 1.356 . S
N826 H838 0.984 . S
N826 H839 0.985 . S
N827 C829 1.356 . S
N827 H832 0.984 . S
N827 H833 0.985 . S
C828 C822 1.379 . S
C828 C825 1.363 . S
C828 N826 1.356 . S
C829 C823 1.363 . S
C829 C824 1.379 . S
C829 N827 1.356 . S
N830 C822 1.356 . S
N830 H836 0.984 . S
N830 H837 0.984 . S
N831 C824 1.356 . S
N831 H834 0.984 . S
N831 H835 0.985 . S
H832 N827 0.984 . S
H833 N827 0.985 . S
H834 N831 0.984 . S
H835 N831 0.985 . S
H836 N830 0.984 . S
H837 N830 0.984 . S
H838 N826 0.984 . S
H839 N826 0.985 . S
C840 C841 1.363 . S
C840 C846 1.379 . S
C840 N848 1.356 . S
C841 C840 1.363 . S
C841 C847 1.363 . S
C842 C843 1.363 . S
C842 C847 1.379 . S
C842 N849 1.356 . S
C843 C842 1.363 . S
C843 C846 1.363 . S
N844 C846 1.356 . S
N844 H856 0.984 . S
N844 H857 0.985 . S
N845 C847 1.356 . S
N845 H850 0.984 . S
N845 H851 0.985 . S
C846 C840 1.379 . S
C846 C843 1.363 . S
C846 N844 1.356 . S
C847 C841 1.363 . S
C847 C842 1.379 . S
C847 N845 1.356 . S
N848 C840 1.356 . S
N848 H854 0.984 . S
N848 H855 0.984 . S
N849 C842 1.356 . S
N849 H852 0.984 . S
N849 H853 0.985 . S
H850 N845 0.984 . S
H851 N845 0.985 . S
H852 N849 0.984 . S
H853 N849 0.985 . S
H854 N848 0.984 . S
H855 N848 0.984 . S
H856 N844 0.984 . S
H857 N844 0.985 . S
C858 C859 1.363 . S
C858 C864 1.379 . S
C858 N866 1.356 . S
C859 C858 1.363 . S
C859 C865 1.363 . S
C860 C861 1.363 . S
C860 C865 1.379 . S
C860 N867 1.356 . S
C861 C860 1.363 . S
C861 C864 1.363 . S
N862 C864 1.356 . S
N862 H874 0.984 . S
N862 H875 0.985 . S
N863 C865 1.356 . S
N863 H868 0.984 . S
N863 H869 0.985 . S
C864 C858 1.379 . S
C864 C861 1.363 . S
C864 N862 1.356 . S
C865 C859 1.363 . S
C865 C860 1.379 . S
C865 N863 1.356 . S
N866 C858 1.356 . S
N866 H872 0.984 . S
N866 H873 0.984 . S
N867 C860 1.356 . S
N867 H870 0.984 . S
N867 H871 0.985 . S
H868 N863 0.984 . S
H869 N863 0.985 . S
H870 N867 0.984 . S
H871 N867 0.985 . S
H872 N866 0.984 . S
H873 N866 0.984 . S
H874 N862 0.984 . S
H875 N862 0.985 . S
C876 C877 1.363 . S
C876 C882 1.379 . S
C876 N884 1.356 . S
C877 C876 1.363 . S
C877 C883 1.363 . S
C878 C879 1.363 . S
C878 C883 1.379 . S
C878 N885 1.356 . S
C879 C878 1.363 . S
C879 C882 1.363 . S
N880 C882 1.356 . S
N880 H892 0.984 . S
N880 H893 0.985 . S
N881 C883 1.356 . S
N881 H886 0.984 . S
N881 H887 0.985 . S
C882 C876 1.379 . S
C882 C879 1.363 . S
C882 N880 1.356 . S
C883 C877 1.363 . S
C883 C878 1.379 . S
C883 N881 1.356 . S
N884 C876 1.356 . S
N884 H890 0.984 . S
N884 H891 0.984 . S
N885 C878 1.356 . S
N885 H888 0.984 . S
N885 H889 0.985 . S
H886 N881 0.984 . S
H887 N881 0.985 . S
H888 N885 0.984 . S
H889 N885 0.985 . S
H890 N884 0.984 . S
H891 N884 0.984 . S
H892 N880 0.984 . S
H893 N880 0.985 . S
C894 C895 1.363 . S
C894 C900 1.379 . S
C894 N902 1.356 . S
C895 C894 1.363 . S
C895 C901 1.363 . S
C896 C897 1.363 . S
C896 C901 1.379 . S
C896 N903 1.356 . S
C897 C896 1.363 . S
C897 C900 1.363 . S
N898 C900 1.356 . S
N898 H910 0.984 . S
N898 H911 0.985 . S
N899 C901 1.356 . S
N899 H904 0.984 . S
N899 H905 0.985 . S
C900 C894 1.379 . S
C900 C897 1.363 . S
C900 N898 1.356 . S
C901 C895 1.363 . S
C901 C896 1.379 . S
C901 N899 1.356 . S
N902 C894 1.356 . S
N902 H908 0.984 . S
N902 H909 0.984 . S
N903 C896 1.356 . S
N903 H906 0.984 . S
N903 H907 0.985 . S
H904 N899 0.984 . S
H905 N899 0.985 . S
H906 N903 0.984 . S
H907 N903 0.985 . S
H908 N902 0.984 . S
H909 N902 0.984 . S
H910 N898 0.984 . S
H911 N898 0.985 . S
C912 C913 1.363 . S
C912 C918 1.379 . S
C912 N920 1.356 . S
C913 C912 1.363 . S
C913 C919 1.363 . S
C914 C915 1.363 . S
C914 C919 1.379 . S
C914 N921 1.356 . S
C915 C914 1.363 . S
C915 C918 1.363 . S
N916 C918 1.356 . S
N916 H928 0.984 . S
N916 H929 0.985 . S
N917 C919 1.356 . S
N917 H922 0.984 . S
N917 H923 0.985 . S
C918 C912 1.379 . S
C918 C915 1.363 . S
C918 N916 1.356 . S
C919 C913 1.363 . S
C919 C914 1.379 . S
C919 N917 1.356 . S
N920 C912 1.356 . S
N920 H926 0.984 . S
N920 H927 0.984 . S
N921 C914 1.356 . S
N921 H924 0.984 . S
N921 H925 0.985 . S
H922 N917 0.984 . S
H923 N917 0.985 . S
H924 N921 0.984 . S
H925 N921 0.985 . S
H926 N920 0.984 . S
H927 N920 0.984 . S
H928 N916 0.984 . S
H929 N916 0.985 . S
C930 C931 1.363 . S
C930 C936 1.379 . S
C930 N938 1.356 . S
C931 C930 1.363 . S
C931 C937 1.363 . S
C932 C933 1.363 . S
C932 C937 1.379 . S
C932 N939 1.356 . S
C933 C932 1.363 . S
C933 C936 1.363 . S
N934 C936 1.356 . S
N934 H946 0.984 . S
N934 H947 0.985 . S
N935 C937 1.356 . S
N935 H940 0.984 . S
N935 H941 0.985 . S
C936 C930 1.379 . S
C936 C933 1.363 . S
C936 N934 1.356 . S
C937 C931 1.363 . S
C937 C932 1.379 . S
C937 N935 1.356 . S
N938 C930 1.356 . S
N938 H944 0.984 . S
N938 H945 0.984 . S
N939 C932 1.356 . S
N939 H942 0.984 . S
N939 H943 0.985 . S
H940 N935 0.984 . S
H941 N935 0.985 . S
H942 N939 0.984 . S
H943 N939 0.985 . S
H944 N938 0.984 . S
H945 N938 0.984 . S
H946 N934 0.984 . S
H947 N934 0.985 . S
C948 C949 1.363 . S
C948 C954 1.379 . S
C948 N956 1.356 . S
C949 C948 1.363 . S
C949 C955 1.363 . S
C950 C951 1.363 . S
C950 C955 1.379 . S
C950 N957 1.356 . S
C951 C950 1.363 . S
C951 C954 1.363 . S
N952 C954 1.356 . S
N952 H964 0.984 . S
N952 H965 0.985 . S
N953 C955 1.356 . S
N953 H958 0.984 . S
N953 H959 0.985 . S
C954 C948 1.379 . S
C954 C951 1.363 . S
C954 N952 1.356 . S
C955 C949 1.363 . S
C955 C950 1.379 . S
C955 N953 1.356 . S
N956 C948 1.356 . S
N956 H962 0.984 . S
N956 H963 0.984 . S
N957 C950 1.356 . S
N957 H960 0.984 . S
N957 H961 0.985 . S
H958 N953 0.984 . S
H959 N953 0.985 . S
H960 N957 0.984 . S
H961 N957 0.985 . S
H962 N956 0.984 . S
H963 N956 0.984 . S
H964 N952 0.984 . S
H965 N952 0.985 . S
C966 C967 1.363 . S
C966 C972 1.379 . S
C966 N974 1.356 . S
C967 C966 1.363 . S
C967 C973 1.363 . S
C968 C969 1.363 . S
C968 C973 1.379 . S
C968 N975 1.356 . S
C969 C968 1.363 . S
C969 C972 1.363 . S
N970 C972 1.356 . S
N970 H982 0.984 . S
N970 H983 0.985 . S
N971 C973 1.356 . S
N971 H976 0.984 . S
N971 H977 0.985 . S
C972 C966 1.379 . S
C972 C969 1.363 . S
C972 N970 1.356 . S
C973 C967 1.363 . S
C973 C968 1.379 . S
C973 N971 1.356 . S
N974 C966 1.356 . S
N974 H980 0.984 . S
N974 H981 0.984 . S
N975 C968 1.356 . S
N975 H978 0.984 . S
N975 H979 0.985 . S
H976 N971 0.984 . S
H977 N971 0.985 . S
H978 N975 0.984 . S
H979 N975 0.985 . S
H980 N974 0.984 . S
H981 N974 0.984 . S
H982 N970 0.984 . S
H983 N970 0.985 . S
C984 C985 1.363 . S
C984 C990 1.379 . S
C984 N992 1.356 . S
C985 C984 1.363 . S
C985 C991 1.363 . S
C986 C987 1.363 . S
C986 C991 1.379 . S
C986 N993 1.356 . S
C987 C986 1.363 . S
C987 C990 1.363 . S
N988 C990 1.356 . S
N988 H1000 0.984 . S
N988 H1001 0.985 . S
N989 C991 1.356 . S
N989 H994 0.984 . S
N989 H995 0.985 . S
C990 C984 1.379 . S
C990 C987 1.363 . S
C990 N988 1.356 . S
C991 C985 1.363 . S
C991 C986 1.379 . S
C991 N989 1.356 . S
N992 C984 1.356 . S
N992 H998 0.984 . S
N992 H999 0.984 . S
N993 C986 1.356 . S
N993 H996 0.984 . S
N993 H997 0.985 . S
H994 N989 0.984 . S
H995 N989 0.985 . S
H996 N993 0.984 . S
H997 N993 0.985 . S
H998 N992 0.984 . S
H999 N992 0.984 . S
H1000 N988 0.984 . S
H1001 N988 0.985 . S
C1002 C1003 1.363 . S
C1002 C1008 1.379 . S
C1002 N1010 1.356 . S
C1003 C1002 1.363 . S
C1003 C1009 1.363 . S
C1004 C1005 1.363 . S
C1004 C1009 1.379 . S
C1004 N1011 1.356 . S
C1005 C1004 1.363 . S
C1005 C1008 1.363 . S
N1006 C1008 1.356 . S
N1006 H1018 0.984 . S
N1006 H1019 0.985 . S
N1007 C1009 1.356 . S
N1007 H1012 0.984 . S
N1007 H1013 0.985 . S
C1008 C1002 1.379 . S
C1008 C1005 1.363 . S
C1008 N1006 1.356 . S
C1009 C1003 1.363 . S
C1009 C1004 1.379 . S
C1009 N1007 1.356 . S
N1010 C1002 1.356 . S
N1010 H1016 0.984 . S
N1010 H1017 0.984 . S
N1011 C1004 1.356 . S
N1011 H1014 0.984 . S
N1011 H1015 0.985 . S
H1012 N1007 0.984 . S
H1013 N1007 0.985 . S
H1014 N1011 0.984 . S
H1015 N1011 0.985 . S
H1016 N1010 0.984 . S
H1017 N1010 0.984 . S
H1018 N1006 0.984 . S
H1019 N1006 0.985 . S
C1020 C1021 1.363 . S
C1020 C1026 1.379 . S
C1020 N1028 1.356 . S
C1021 C1020 1.363 . S
C1021 C1027 1.363 . S
C1022 C1023 1.363 . S
C1022 C1027 1.379 . S
C1022 N1029 1.356 . S
C1023 C1022 1.363 . S
C1023 C1026 1.363 . S
N1024 C1026 1.356 . S
N1024 H1036 0.984 . S
N1024 H1037 0.985 . S
N1025 C1027 1.356 . S
N1025 H1030 0.984 . S
N1025 H1031 0.985 . S
C1026 C1020 1.379 . S
C1026 C1023 1.363 . S
C1026 N1024 1.356 . S
C1027 C1021 1.363 . S
C1027 C1022 1.379 . S
C1027 N1025 1.356 . S
N1028 C1020 1.356 . S
N1028 H1034 0.984 . S
N1028 H1035 0.984 . S
N1029 C1022 1.356 . S
N1029 H1032 0.984 . S
N1029 H1033 0.985 . S
H1030 N1025 0.984 . S
H1031 N1025 0.985 . S
H1032 N1029 0.984 . S
H1033 N1029 0.985 . S
H1034 N1028 0.984 . S
H1035 N1028 0.984 . S
H1036 N1024 0.984 . S
H1037 N1024 0.985 . S
C609 C310 1.550 . S
C607 C25 1.551 . S
C627 C379 1.538 . S
C625 C37 1.545 . S
C645 C317 1.556 . S
C643 C103 1.562 . S
C663 C380 1.546 . S
C661 C139 1.549 . S
C681 C433 1.552 . S
C679 C31 1.562 . S
C699 C469 1.526 . S
C697 C67 1.529 . S
C715 C97 1.559 . S
C717 C529 1.571 . S
C735 C592 1.519 . S
C733 C133 1.522 . S
C753 C432 1.540 . S
C751 C61 1.554 . S
C769 C73 1.521 . S
C771 C476 1.532 . S
C789 C522 1.562 . S
C787 C109 1.574 . S
C807 C591 1.526 . S
C805 C1 1.531 . S
C823 C169 1.546 . S
C825 C370 1.550 . S
C843 C327 1.544 . S
C841 C211 1.545 . S
C859 C241 1.550 . S
C861 C363 1.540 . S
C877 C253 1.542 . S
C879 C326 1.542 . S
C897 C538 1.572 . S
C895 C175 1.561 . S
C915 C582 1.525 . S
C913 C205 1.513 . S
C933 C416 1.550 . S
C931 C217 1.559 . S
C949 C283 1.519 . S
C951 C485 1.529 . S
C969 C539 1.560 . S
C967 C181 1.559 . S
C987 C575 1.528 . S
C985 C247 1.531 . S
C1005 C423 1.551 . S
C1003 C277 1.542 . S
C1021 C145 1.526 . S
C1023 C486 1.535 . S
