# Generated by pormake.
# Topology pyr, (3,6)-cn, num edge types: 1
# Building blocks:
#     Node 0, Type 0, BuildingBlock: BETDAH_clean_linker_0, # of connection points: 3
#     Node 1, Type 0, BuildingBlock: BETDAH_clean_linker_0, # of connection points: 3
#     Node 2, Type 0, BuildingBlock: BETDAH_clean_linker_0, # of connection points: 3
#     Node 3, Type 0, BuildingBlock: BETDAH_clean_linker_0, # of connection points: 3
#     Node 4, Type 0, BuildingBlock: BETDAH_clean_linker_0, # of connection points: 3
#     Node 5, Type 0, BuildingBlock: BETDAH_clean_linker_0, # of connection points: 3
#     Node 6, Type 0, BuildingBlock: BETDAH_clean_linker_0, # of connection points: 3
#     Node 7, Type 0, BuildingBlock: BETDAH_clean_linker_0, # of connection points: 3
#     Node 8, Type 1, BuildingBlock: GEDQOX_clean_sbu_0, # of connection points: 6
#     Node 9, Type 1, BuildingBlock: GEDQOX_clean_sbu_0, # of connection points: 6
#     Node 10, Type 1, BuildingBlock: GEDQOX_clean_sbu_0, # of connection points: 6
#     Node 11, Type 1, BuildingBlock: GEDQOX_clean_sbu_0, # of connection points: 6
#     Edge 12, Type (0, 1), BuildingBlock: AJUNOK_clean_linker_0, # of connection points: 2
#     Edge 13, Type (0, 1), BuildingBlock: AJUNOK_clean_linker_0, # of connection points: 2
#     Edge 14, Type (0, 1), BuildingBlock: AJUNOK_clean_linker_0, # of connection points: 2
#     Edge 15, Type (0, 1), BuildingBlock: AJUNOK_clean_linker_0, # of connection points: 2
#     Edge 16, Type (0, 1), BuildingBlock: AJUNOK_clean_linker_0, # of connection points: 2
#     Edge 17, Type (0, 1), BuildingBlock: AJUNOK_clean_linker_0, # of connection points: 2
#     Edge 18, Type (0, 1), BuildingBlock: AJUNOK_clean_linker_0, # of connection points: 2
#     Edge 19, Type (0, 1), BuildingBlock: AJUNOK_clean_linker_0, # of connection points: 2
#     Edge 20, Type (0, 1), BuildingBlock: AJUNOK_clean_linker_0, # of connection points: 2
#     Edge 21, Type (0, 1), BuildingBlock: AJUNOK_clean_linker_0, # of connection points: 2
#     Edge 22, Type (0, 1), BuildingBlock: AJUNOK_clean_linker_0, # of connection points: 2
#     Edge 23, Type (0, 1), BuildingBlock: AJUNOK_clean_linker_0, # of connection points: 2
#     Edge 24, Type (0, 1), BuildingBlock: AJUNOK_clean_linker_0, # of connection points: 2
#     Edge 25, Type (0, 1), BuildingBlock: AJUNOK_clean_linker_0, # of connection points: 2
#     Edge 26, Type (0, 1), BuildingBlock: AJUNOK_clean_linker_0, # of connection points: 2
#     Edge 27, Type (0, 1), BuildingBlock: AJUNOK_clean_linker_0, # of connection points: 2
#     Edge 28, Type (0, 1), BuildingBlock: AJUNOK_clean_linker_0, # of connection points: 2
#     Edge 29, Type (0, 1), BuildingBlock: AJUNOK_clean_linker_0, # of connection points: 2
#     Edge 30, Type (0, 1), BuildingBlock: AJUNOK_clean_linker_0, # of connection points: 2
#     Edge 31, Type (0, 1), BuildingBlock: AJUNOK_clean_linker_0, # of connection points: 2
#     Edge 32, Type (0, 1), BuildingBlock: AJUNOK_clean_linker_0, # of connection points: 2
#     Edge 33, Type (0, 1), BuildingBlock: AJUNOK_clean_linker_0, # of connection points: 2
#     Edge 34, Type (0, 1), BuildingBlock: AJUNOK_clean_linker_0, # of connection points: 2
#     Edge 35, Type (0, 1), BuildingBlock: AJUNOK_clean_linker_0, # of connection points: 2
# Relax obj value: 0.268
# Max RMSD: 0.209
# Mean RMSD: 0.155
data_MOF--net-pyr--node1-GEDQOX_clean_sbu_0--node2-BETDAH_clean_linker_0--edge1-AJUNOK_clean_linker_0
_symmetry_space_group_name_H-M    P1
_symmetry_Int_Tables_number       1
_symmetry_cell_setting            triclinic
loop_
_symmetry_equiv_pos_as_xyz
'x, y, z'
_cell_length_a     29.330328
_cell_length_b     28.862507
_cell_length_c     27.237842
_cell_angle_alpha  89.98814
_cell_angle_beta   94.003653
_cell_angle_gamma 93.141203
loop_
_atom_site_label
_atom_site_type_symbol
_atom_site_fract_x
_atom_site_fract_y
_atom_site_fract_z
_atom_type_partial_charge
H0 H 0.27476 0.12894 0.24535 0.0
H1 H 0.2846 0.23022 0.12888 0.0
H2 H 0.1775 0.23835 0.22882 0.0
C3 C 0.26253 0.15928 0.22655 0.0
C4 C 0.22262 0.18061 0.24563 0.0
C5 C 0.28678 0.17574 0.18377 0.0
C6 C 0.268 0.21629 0.16037 0.0
C7 C 0.22926 0.24067 0.17591 0.0
C8 C 0.20732 0.22159 0.21825 0.0
N9 N 0.21553 0.28259 0.14628 0.0
C10 C 0.18484 0.32146 0.14062 0.0
H11 H 0.48321 0.81944 0.81687 0.0
H12 H 0.36 0.85118 0.88507 0.0
H13 H 0.35411 0.74645 0.77377 0.0
C14 C 0.44685 0.81328 0.82053 0.0
C15 C 0.42192 0.77766 0.79229 0.0
C16 C 0.42437 0.84088 0.8536 0.0
C17 C 0.37756 0.83136 0.85909 0.0
C18 C 0.35251 0.79763 0.83045 0.0
C19 C 0.37439 0.77177 0.79652 0.0
N20 N 0.30494 0.79057 0.83568 0.0
C21 C 0.27412 0.78752 0.7947 0.0
H22 H 0.82775 0.39187 0.91009 0.0
H23 H 0.82813 0.53327 0.86048 0.0
H24 H 0.70666 0.44484 0.83593 0.0
C25 C 0.81028 0.41968 0.89139 0.0
C26 C 0.76427 0.41278 0.87308 0.0
C27 C 0.83313 0.4633 0.88736 0.0
C28 C 0.81063 0.49939 0.86356 0.0
C29 C 0.76573 0.49279 0.84398 0.0
C30 C 0.74235 0.44946 0.84887 0.0
N31 N 0.74488 0.53128 0.82157 0.0
C32 C 0.70523 0.52803 0.79079 0.0
H33 H 0.90672 0.83521 0.38645 0.0
H34 H 0.05318 0.83319 0.41531 0.0
H35 H 0.96794 0.71074 0.43582 0.0
C36 C 0.93722 0.81658 0.39586 0.0
C37 C 0.93242 0.77056 0.41174 0.0
C38 C 0.98039 0.8404 0.39842 0.0
C39 C 1.01954 0.8156 0.41141 0.0
C40 C 1.01536 0.76806 0.42166 0.0
C41 C 0.97158 0.74598 0.42275 0.0
N42 N 0.05514 0.74315 0.43291 0.0
C43 C 0.05643 0.69768 0.41671 0.0
H44 H 0.98242 0.86657 0.80818 0.0
H45 H 0.88086 0.8699 0.91801 0.0
H46 H 0.88468 0.97298 0.80303 0.0
C47 C 0.95468 0.88283 0.82406 0.0
C48 C 0.93869 0.92433 0.79929 0.0
C49 C 0.93579 0.86147 0.86781 0.0
C50 C 0.89628 0.88406 0.88594 0.0
C51 C 0.877 0.9252 0.86334 0.0
C52 C 0.89952 0.94332 0.82067 0.0
N53 N 0.83683 0.95109 0.87958 0.0
C54 C 0.7993 0.95539 0.91295 0.0
H55 H 0.72822 0.22701 0.29265 0.0
H56 H 0.69949 0.34318 0.38261 0.0
H57 H 0.60523 0.29925 0.26119 0.0
C58 C 0.7059 0.25418 0.30113 0.0
C59 C 0.66461 0.25842 0.27244 0.0
C60 C 0.71859 0.28404 0.34125 0.0
C61 C 0.68977 0.31973 0.35217 0.0
C62 C 0.64911 0.32573 0.32265 0.0
C63 C 0.63702 0.29505 0.28306 0.0
N64 N 0.61955 0.3623 0.33046 0.0
C65 C 0.61976 0.39121 0.37169 0.0
H66 H 0.27605 0.74652 0.19285 0.0
H67 H 0.21824 0.64068 0.28509 0.0
H68 H 0.33987 0.72217 0.33615 0.0
C69 C 0.27632 0.72798 0.22752 0.0
C70 C 0.31107 0.73847 0.26421 0.0
C71 C 0.24271 0.69281 0.23482 0.0
C72 C 0.24399 0.66816 0.27935 0.0
C73 C 0.27885 0.67839 0.31628 0.0
C74 C 0.31237 0.71389 0.30845 0.0
N75 N 0.28005 0.65196 0.36029 0.0
C76 C 0.3188 0.65154 0.39268 0.0
H77 H 0.23714 0.23978 0.69513 0.0
H78 H 0.2583 0.2889 0.84325 0.0
H79 H 0.17858 0.16103 0.81204 0.0
C80 C 0.23205 0.23497 0.73392 0.0
C81 C 0.20623 0.19614 0.74944 0.0
C82 C 0.25039 0.26832 0.76785 0.0
C83 C 0.24349 0.26272 0.81765 0.0
C84 C 0.21729 0.2242 0.8341 0.0
C85 C 0.19943 0.1904 0.79984 0.0
N86 N 0.20618 0.22102 0.88405 0.0
C87 C 0.20611 0.26115 0.91229 0.0
Nd88 Nd 0.10188 1.01262 0.51852 0.0
Nd89 Nd 0.04707 0.09386 0.51957 0.0
C90 C 0.14121 0.93473 0.50174 0.0
C91 C 0.15414 0.89602 0.5342 0.0
C92 C 0.12182 0.87245 0.56233 0.0
C93 C 0.13621 0.84352 0.60084 0.0
C94 C 0.18311 0.83835 0.61233 0.0
C95 C 0.21496 0.85875 0.58144 0.0
C96 C 0.20056 0.88717 0.54261 0.0
C97 C 0.13247 0.07191 0.59299 0.0
C98 C 1.03066 1.0103 0.61119 0.0
C99 C 0.99507 0.1649 0.53323 0.0
C100 C 0.95991 0.18957 0.50366 0.0
C101 C 0.93926 0.22712 0.52404 0.0
C102 C 0.90216 0.24726 0.4985 0.0
C103 C 0.88477 0.22993 0.4522 0.0
C104 C 0.90661 0.19319 0.43132 0.0
C105 C 0.94372 0.1732 0.45679 0.0
C106 C 1.01533 1.02668 0.45285 0.0
C107 C 0.12304 0.09748 0.43035 0.0
O108 O 0.09739 0.93976 0.49197 0.0
O109 O 0.16428 0.97415 0.51144 0.0
O110 O 0.13278 1.02717 0.5959 0.0
O111 O 0.11938 0.08514 0.55014 0.0
O112 O 0.05604 0.98447 0.58384 0.0
O113 O 1.02646 0.05471 0.59615 0.0
O114 O 1.03737 0.17008 0.521 0.0
O115 O 0.98353 0.12193 0.54356 0.0
O116 O 1.01606 0.07019 0.44179 0.0
O117 O 1.02896 1.02086 0.49662 0.0
O118 O 0.09528 0.1223 0.45605 0.0
O119 O 0.12819 0.05354 0.44578 0.0
H120 H 0.08568 0.87829 0.55652 0.0
H121 H 0.11083 0.82719 0.62324 0.0
H122 H 0.25135 0.85544 0.58935 0.0
H123 H 0.22605 0.90482 0.52128 0.0
H124 H 0.95115 0.2402 0.56024 0.0
H125 H 0.88685 0.27613 0.51519 0.0
H126 H 0.89404 0.17883 0.39588 0.0
H127 H 0.95892 0.14405 0.4405 0.0
Nd128 Nd 0.54515 0.03713 0.08481 0.0
Nd129 Nd 0.54348 0.08333 1.01979 0.0
C130 C 0.54555 0.96663 0.14757 0.0
C131 C 0.51337 0.93994 0.17654 0.0
C132 C 0.52862 0.90183 0.20351 0.0
C133 C 0.49719 0.87108 0.22437 0.0
C134 C 0.45013 0.87804 0.21815 0.0
C135 C 0.4352 0.91796 0.1938 0.0
C136 C 0.46671 0.94875 0.17291 0.0
C137 C 0.46513 0.09113 0.10337 0.0
C138 C 0.49847 0.98986 0.98745 0.0
C139 C 0.54195 0.1549 0.95813 0.0
C140 C 0.57707 0.18584 0.93784 0.0
C141 C 0.56418 0.22451 0.91026 0.0
C142 C 0.59746 0.25732 0.89599 0.0
C143 C 0.644 0.25195 0.90949 0.0
C144 C 0.65689 0.21204 0.93532 0.0
C145 C 0.6236 0.17923 0.94951 0.0
C146 C 0.62341 0.03049 1.00083 0.0
C147 C 0.60011 0.1243 0.11699 0.0
O148 O 0.53829 0.962 0.10014 0.0
O149 O 0.55583 1.00944 0.16079 0.0
O150 O 0.49992 0.08244 0.13323 0.0
O151 O 0.4751 0.07377 0.0614 0.0
O152 O 0.52811 0.98202 1.0239 0.0
O153 O 0.48819 0.03303 0.98203 0.0
O154 O 0.53902 0.15855 1.00533 0.0
O155 O 0.54002 0.11188 0.94377 0.0
O156 O 0.58881 0.03912 0.97075 0.0
O157 O 0.61355 0.04768 0.0429 0.0
O158 O 0.57094 0.13619 0.08133 0.0
O159 O 0.60524 0.08013 0.12132 0.0
H160 H 0.56461 0.8947 0.20654 0.0
H161 H 0.50943 0.84084 0.24366 0.0
H162 H 0.39904 0.92392 0.18855 0.0
H163 H 0.45453 0.9781 0.15198 0.0
H164 H 0.52835 0.23014 0.90123 0.0
H165 H 0.58669 0.28791 0.8763 0.0
H166 H 0.6926 0.20686 0.94557 0.0
H167 H 0.63402 0.14947 0.97092 0.0
Nd168 Nd 0.48393 0.55949 0.57895 0.0
Nd169 Nd 0.56628 0.62671 0.56961 0.0
C170 C 0.40178 0.51781 0.58015 0.0
C171 C 0.37772 0.49236 0.6177 0.0
C172 C 0.33119 0.47934 0.60913 0.0
C173 C 0.31015 0.44818 0.6408 0.0
C174 C 0.33572 0.42957 0.68087 0.0
C175 C 0.38167 0.44459 0.69083 0.0
C176 C 0.40249 0.47622 0.65963 0.0
C177 C 0.55563 0.54395 0.64544 0.0
C178 C 0.49305 0.65823 0.64399 0.0
C179 C 0.64864 0.66778 0.56858 0.0
C180 C 0.6894 0.67019 0.54028 0.0
C181 C 0.7324 0.67429 0.56606 0.0
C182 C 0.77153 0.68391 0.54094 0.0
C183 C 0.76809 0.68972 0.48971 0.0
C184 C 0.72553 0.68214 0.46335 0.0
C185 C 0.6862 0.67234 0.48858 0.0
C186 C 0.49125 0.64121 0.5061 0.0
C187 C 0.55977 0.52784 0.5071 0.0
O188 O 0.40925 0.56249 0.58708 0.0
O189 O 0.43742 0.49767 0.56589 0.0
O190 O 0.52755 0.51093 0.62763 0.0
O191 O 0.54251 0.58285 0.63182 0.0
O192 O 0.46561 0.62431 0.62356 0.0
O193 O 0.53621 0.66376 0.63335 0.0
O194 O 0.64036 0.62931 0.59259 0.0
O195 O 0.61177 0.68571 0.54857 0.0
O196 O 0.51703 0.67495 0.52638 0.0
O197 O 0.50715 0.60294 0.51733 0.0
O198 O 0.58708 0.56152 0.52774 0.0
O199 O 0.51577 0.52488 0.51482 0.0
H200 H 0.31181 0.49147 0.57677 0.0
H201 H 0.27472 0.4365 0.63239 0.0
H202 H 0.40181 0.43044 0.72158 0.0
H203 H 0.43852 0.48614 0.66669 0.0
H204 H 0.73548 0.67237 0.60589 0.0
H205 H 0.80421 0.6896 0.56178 0.0
H206 H 0.72235 0.68669 0.4238 0.0
H207 H 0.65324 0.66869 0.46799 0.0
Nd208 Nd 1.02354 0.59302 0.0483 0.0
Nd209 Nd 0.09037 0.59153 0.97752 0.0
C210 C 0.96141 0.57354 0.11186 0.0
C211 C 0.96847 0.56344 0.16461 0.0
C212 C 0.93982 0.58223 0.19755 0.0
C213 C 0.95443 0.58705 0.24733 0.0
C214 C 0.99792 0.57315 0.26461 0.0
C215 C 1.02422 0.54974 0.23252 0.0
C216 C 1.00969 0.54514 0.18284 0.0
C217 C 0.10254 0.64226 0.08109 0.0
C218 C 1.01702 0.68115 0.9667 0.0
C219 C 0.15909 0.59396 0.92114 0.0
C220 C 0.18496 0.55232 0.9126 0.0
C221 C 0.21599 0.53632 0.9499 0.0
C222 C 0.22551 0.48935 0.95235 0.0
C223 C 0.2038 0.45789 0.9179 0.0
C224 C 0.17756 0.47481 0.87745 0.0
C225 C 0.16893 0.52173 0.87428 0.0
C226 C 1.01176 0.53854 0.95248 0.0
C227 C 0.09739 0.50142 0.05559 0.0
O228 O 0.97461 0.61584 0.10034 0.0
O229 O 0.97447 0.54267 0.08135 0.0
O230 O 0.06186 0.65624 0.08526 0.0
O231 O 0.1005 0.60353 0.05948 0.0
O232 O 0.99318 0.65447 0.9974 0.0
O233 O 0.05864 0.66654 0.95797 0.0
O234 O 0.16325 0.61097 0.96594 0.0
O235 O 0.11645 0.59124 0.90317 0.0
O236 O 0.05213 0.52382 0.94755 0.0
O237 O 1.01413 0.57923 0.96876 0.0
O238 O 0.11721 0.52407 1.0193 0.0
O239 O 0.05987 0.52035 0.07125 0.0
H240 H 0.90823 0.59715 0.1841 0.0
H241 H 0.93376 0.60598 0.27102 0.0
H242 H 0.05787 0.53884 0.2449 0.0
H243 H 1.03275 0.53121 0.15811 0.0
H244 H 0.22948 0.55899 0.97976 0.0
H245 H 0.24654 0.47706 0.98343 0.0
H246 H 0.16104 0.4512 0.85 0.0
H247 H 0.14554 0.53292 0.84463 0.0
C248 C 0.1982 0.11244 0.30972 0.0
C249 C 0.19708 0.15993 0.29344 0.0
C250 C 0.1753 0.09322 0.35202 0.0
C251 C 0.14848 0.1191 0.38344 0.0
H252 H 0.21687 0.08877 0.28899 0.0
H253 H 0.17874 0.05678 0.35998 0.0
S254 S 0.13444 0.24581 0.36303 0.0
N255 N 0.16638 0.23239 0.3181 0.0
N256 N 0.12451 0.1973 0.39354 0.0
C257 C 0.14731 0.16659 0.36812 0.0
C258 C 0.17072 0.18628 0.32517 0.0
C259 C 0.42883 0.92376 0.8832 0.0
C260 C 0.44798 0.8799 0.88344 0.0
C261 C 0.44558 0.95924 0.91626 0.0
C262 C 0.48187 0.95226 0.95157 0.0
H263 H 0.39984 0.93037 0.8578 0.0
H264 H 0.42924 0.99201 0.91479 0.0
S265 S 0.54537 0.84435 0.96625 0.0
N266 N 0.50627 0.83218 0.92084 0.0
N267 N 0.53788 0.89824 0.98299 0.0
C268 C 0.50214 0.90888 0.95131 0.0
C269 C 0.48528 0.87297 0.91724 0.0
C270 C 0.65335 0.57398 0.73961 0.0
C271 C 0.66633 0.53039 0.75611 0.0
C272 C 0.61725 0.57786 0.70386 0.0
C273 C 0.59303 0.53814 0.68351 0.0
H274 H 0.67155 0.60534 0.75405 0.0
H275 H 0.60847 0.61224 0.69196 0.0
S276 S 0.61425 0.41587 0.71557 0.0
N277 N 0.65293 0.44681 0.75054 0.0
N278 N 0.58451 0.45373 0.68315 0.0
C279 C 0.60562 0.49424 0.70023 0.0
C280 C 0.64253 0.4904 0.73669 0.0
C281 C 0.07572 0.65171 0.34697 0.0
C282 C 0.05048 0.65548 0.38841 0.0
C283 C 0.0608 0.62082 0.30892 0.0
C284 C 1.01978 0.59329 0.31098 0.0
H285 H 0.10491 0.67552 0.34193 0.0
H286 H 0.07921 0.62184 0.27575 0.0
S287 S 0.94644 0.58466 0.41632 0.0
N288 N 0.98703 0.62454 0.43337 0.0
N289 N 0.95805 0.56706 0.36105 0.0
C290 C 0.99679 0.59368 0.35449 0.0
C291 C 1.01244 0.62473 0.39354 0.0
C292 C 0.34195 0.15177 0.11178 0.0
C293 C 0.33151 0.15211 0.16292 0.0
C294 C 0.38235 0.13184 0.0925 0.0
C295 C 0.41788 0.11066 0.12222 0.0
H296 H 0.31809 0.16711 0.08527 0.0
H297 H 0.38597 0.13409 0.05329 0.0
S298 S 0.41169 0.1016 0.25893 0.0
N299 N 0.36433 0.12761 0.24224 0.0
N300 N 0.43734 0.0928 0.20795 0.0
C301 C 0.40801 0.11102 0.17331 0.0
C302 C 0.36658 0.13049 0.19274 0.0
C303 C 0.25892 0.77543 0.70569 0.0
C304 C 0.24511 0.79198 0.75039 0.0
C305 C 0.23644 0.78784 0.66089 0.0
C306 C 0.19971 0.81741 0.65958 0.0
H307 H 0.28862 0.75475 0.70517 0.0
H308 H 0.24922 0.77599 0.62697 0.0
S309 S 0.14973 0.86762 0.768 0.0
N310 N 0.19158 0.83673 0.79171 0.0
N311 N 0.14959 0.86107 0.70776 0.0
C312 C 0.18426 0.83206 0.70461 0.0
C313 C 0.20707 0.81917 0.75006 0.0
C314 C 0.885 0.51046 0.94504 0.0
C315 C 0.87925 0.4739 0.91086 0.0
C316 C 0.92842 0.52952 0.95978 0.0
C317 C 0.96778 0.5125 0.94117 0.0
H318 H 0.85545 0.5261 0.95844 0.0
H319 H 0.93094 0.55906 0.98457 0.0
S320 S 0.9713 0.41335 0.85537 0.0
N321 N 0.91618 0.41851 0.86187 0.0
N322 N 0.99872 0.45401 0.89058 0.0
C323 C 0.96287 0.47361 0.90984 0.0
C324 C 0.91826 0.45431 0.89445 0.0
C325 C 0.87051 0.70672 0.41252 0.0
C326 C 0.88764 0.75162 0.42682 0.0
C327 C 0.83057 0.68694 0.4315 0.0
C328 C 0.80736 0.71133 0.46581 0.0
H329 H 0.88856 0.68659 0.38731 0.0
H330 H 0.81866 0.65201 0.42062 0.0
S331 S 0.83801 0.82933 0.5152 0.0
N332 N 0.87813 0.81937 0.4776 0.0
N333 N 0.80306 0.78248 0.51226 0.0
C334 C 0.82357 0.75636 0.47952 0.0
C335 C 0.86379 0.77644 0.46031 0.0
C336 C 0.17568 0.39096 0.07803 0.0
C337 C 0.16125 0.36647 0.12053 0.0
C338 C 0.15546 0.4327 0.05829 0.0
C339 C 0.11828 0.45469 0.07854 0.0
H340 H 0.20359 0.3777 0.05919 0.0
H341 H 0.16953 0.44797 1.02601 0.0
S342 S 0.06517 0.40651 0.19002 0.0
N343 N 0.10534 0.36982 0.18181 0.0
N344 N 0.06825 0.44542 0.14567 0.0
C345 C 0.10318 0.43033 0.12095 0.0
C346 C 0.12402 0.38779 0.14129 0.0
C347 C 0.70905 0.34772 0.8437 0.0
C348 C 0.73765 0.36873 0.88201 0.0
C349 C 0.67983 0.30899 0.85246 0.0
C350 C 0.67837 0.28974 0.89978 0.0
H351 H 0.70865 0.36186 0.80683 0.0
H352 H 0.65771 0.29442 0.82218 0.0
S353 S 0.7452 0.33246 1.01294 0.0
N354 N 0.76193 0.36782 0.96924 0.0
N355 N 0.70744 0.29472 0.98548 0.0
C356 C 0.7074 0.30977 0.93818 0.0
C357 C 0.73697 0.34932 0.92935 0.0
C358 C 0.95176 0.91555 0.42473 0.0
C359 C 0.98307 0.89201 0.39815 0.0
C360 C 0.95913 0.96251 0.4363 0.0
C361 C 0.99792 0.98774 0.42171 0.0
H362 H 0.92351 0.89696 0.44087 0.0
H363 H 0.93681 0.97793 0.46107 0.0
S364 S 0.08588 0.94576 0.34421 0.0
N365 N 0.05066 0.89989 0.35105 0.0
N366 N 0.065 0.98851 0.37446 0.0
C367 C 1.02704 0.96639 0.39109 0.0
C368 C 1.01955 0.91833 0.379 0.0
C369 C 0.47431 0.76415 0.72369 0.0
C370 C 0.44379 0.7463 0.75767 0.0
C371 C 0.49048 0.73555 0.68727 0.0
C372 C 0.47613 0.68816 0.68281 0.0
H373 H 0.48472 0.80074 0.72425 0.0
H374 H 0.51347 0.75093 0.66162 0.0
S375 S 0.40229 0.62262 0.76683 0.0
N376 N 0.40478 0.6764 0.78787 0.0
N377 N 0.43319 0.62389 0.71843 0.0
C378 C 0.44703 0.6696 0.71752 0.0
C379 C 0.43147 0.69826 0.75514 0.0
C380 C 0.98775 0.92179 0.7179 0.0
C381 C 0.96231 0.94721 0.75129 0.0
C382 C 1.0088 0.94148 0.67471 0.0
C383 C 1.00717 0.98911 0.65948 0.0
H384 H 0.99133 0.88519 0.72461 0.0
H385 H 1.02678 0.91829 0.6526 0.0
S386 S 0.94906 0.07487 0.73292 0.0
N387 N 0.94067 1.02638 0.76398 0.0
N388 N 0.97794 0.0613 0.68556 0.0
C389 C 0.98252 1.01519 0.6926 0.0
C390 C 0.96114 0.99525 0.73673 0.0
C391 C 0.63164 0.2384 0.18597 0.0
C392 C 0.64987 0.22384 0.23237 0.0
C393 C 0.61684 0.20624 0.14842 0.0
C394 C 0.61984 0.15808 0.15551 0.0
H395 H 0.62878 0.27505 0.17852 0.0
H396 H 0.60256 0.21925 0.11372 0.0
S397 S 0.66268 0.10147 0.27102 0.0
N398 N 0.66801 0.15748 0.2837 0.0
N399 N 0.64172 0.09755 0.21328 0.0
C400 C 0.63827 0.1431 0.20163 0.0
C401 C 0.65286 0.17573 0.23994 0.0
C402 C 0.38051 0.60743 0.43177 0.0
C403 C 0.36107 0.65011 0.42284 0.0
C404 C 0.42274 0.60514 0.45873 0.0
C405 C 0.44703 0.64557 0.47742 0.0
H406 H 0.36314 0.57559 0.41751 0.0
H407 H 0.43647 0.57138 0.46479 0.0
S408 S 0.40964 0.76589 0.46397 0.0
N409 N 0.36809 0.73359 0.43469 0.0
N410 N 0.4479 0.72959 0.48528 0.0
C411 C 0.42761 0.68853 0.46878 0.0
C412 C 0.38443 0.69075 0.44144 0.0
C413 C 0.24676 0.33662 0.93035 0.0
C414 C 0.20569 0.30898 0.9273 0.0
C415 C 0.24627 0.38524 0.92984 0.0
C416 C 0.20464 0.40727 0.92597 0.0
H417 H 0.27931 0.32065 0.92976 0.0
H418 H 0.27842 0.40556 0.92958 0.0
S419 S 0.08825 0.34997 0.92476 0.0
N420 N 0.12285 0.30664 0.92559 0.0
N421 N 0.12169 0.39795 0.92566 0.0
C422 C 0.16357 0.37983 0.92683 0.0
C423 C 0.16415 0.33056 0.92727 0.0
C424 C 0.71256 0.97789 0.91107 0.0
C425 C 0.75551 0.9722 0.93813 0.0
C426 C 0.67235 0.99581 0.93166 0.0
C427 C 0.66997 1.01051 0.98183 0.0
H428 H 0.70971 0.96862 0.87242 0.0
H429 H 0.64206 0.99833 0.90693 0.0
S430 S 0.77194 1.00461 0.07158 0.0
N431 N 0.79135 0.98455 1.02057 0.0
N432 N 0.71812 1.01692 0.05795 0.0
C433 C 0.71271 1.00502 1.00966 0.0
C434 C 0.754 0.98668 0.98854 0.0
C435 C 0.80276 0.27125 0.34855 0.0
C436 C 0.76183 0.27636 0.37165 0.0
C437 C 0.84261 0.25783 0.37513 0.0
C438 C 0.84327 0.24877 0.42598 0.0
H439 H 0.80371 0.27673 0.30928 0.0
H440 H 0.873 0.25376 0.35547 0.0
S441 S 0.74493 0.25687 0.50384 0.0
N442 N 0.72446 0.27176 0.44839 0.0
N443 N 0.79908 0.24613 0.4984 0.0
C444 C 0.80285 0.25496 0.4498 0.0
C445 C 0.76226 0.26884 0.42266 0.0
C446 C 0.20461 0.63652 0.17348 0.0
C447 C 0.20737 0.68093 0.19491 0.0
C448 C 0.17195 0.6249 0.13478 0.0
C449 C 0.14052 0.65712 0.11693 0.0
H450 H 0.22795 0.6107 0.18663 0.0
H451 H 0.17044 0.59 0.11988 0.0
S452 S 0.1345 0.77824 0.1603 0.0
N453 N 0.17714 0.75756 0.19497 0.0
N454 N 0.11497 0.73549 0.1229 0.0
C455 C 0.14341 0.7018 0.13775 0.0
C456 C 0.17705 0.71378 0.17661 0.0
C457 C 0.31442 0.30746 0.72595 0.0
C458 C 0.27421 0.31063 0.75049 0.0
C459 C 0.33536 0.34687 0.70544 0.0
C460 C 0.31613 0.39027 0.70814 0.0
H461 H 0.32924 0.27421 0.72193 0.0
H462 H 0.36576 0.34309 0.68568 0.0
S463 S 0.2118 0.41655 0.76924 0.0
N464 N 0.21666 0.36033 0.77781 0.0
N465 N 0.25567 0.43451 0.738 0.0
C466 C 0.27647 0.394 0.73335 0.0
C467 C 0.25559 0.35406 0.75495 0.0
C468 C 0.93196 0.78235 0.92186 0.0
C469 C 0.95738 0.81571 0.89375 0.0
C470 C 0.95058 0.74076 0.94451 0.0
C471 C 0.99684 0.7275 0.94172 0.0
H472 H 0.89629 0.7879 0.92624 0.0
H473 H 0.92768 0.7183 0.96452 0.0
S474 S 0.08202 0.80198 0.87732 0.0
N475 N 1.03509 0.83091 0.86913 0.0
N476 N 0.06788 0.7551 0.90876 0.0
C477 C 1.02288 0.76062 0.91445 0.0
C478 C 1.00414 0.80316 0.8917 0.0
C479 C 0.34712 0.81848 0.27307 0.0
C480 C 0.34788 0.77311 0.25474 0.0
C481 C 0.38083 0.8524 0.26179 0.0
C482 C 0.41644 0.84153 0.23248 0.0
H483 H 0.31988 0.8279 0.29541 0.0
H484 H 0.37896 0.88732 0.27581 0.0
S485 S 0.43283 0.72725 0.17588 0.0
N486 N 0.38637 0.71873 0.20636 0.0
N487 N 0.44999 0.78221 0.18514 0.0
C488 C 0.41766 0.79594 0.21461 0.0
C489 C 0.38323 0.76173 0.22576 0.0
C490 C 0.15857 0.17972 0.67124 0.0
C491 C 0.18525 0.16316 0.71185 0.0
C492 C 0.14169 0.15005 0.63269 0.0
C493 C 0.15089 0.10285 0.63355 0.0
H494 H 0.15104 0.21603 0.66911 0.0
H495 H 0.12125 0.16415 0.60214 0.0
S496 S 0.22045 0.04289 0.73089 0.0
N497 N 0.22096 0.09715 0.75019 0.0
N498 N 0.189 0.04096 0.67816 0.0
C499 C 0.17728 0.0858 0.6742 0.0
C500 C 0.19447 0.11607 0.71332 0.0
C501 C 0.5652 0.41898 0.42834 0.0
C502 C 0.60846 0.42375 0.40935 0.0
C503 C 0.55027 0.45252 0.46007 0.0
C504 C 0.57797 0.49249 0.47429 0.0
H505 H 0.54213 0.38952 0.41767 0.0
H506 H 0.51637 0.44708 0.47318 0.0
S507 S 0.69505 0.52066 0.43472 0.0
N508 N 0.6793 0.47085 0.40691 0.0
N509 N 0.65182 0.53391 0.46692 0.0
C510 C 0.62194 0.4971 0.45611 0.0
C511 C 0.63699 0.46281 0.4235 0.0
loop_
_geom_bond_atom_site_label_1
_geom_bond_atom_site_label_2
_geom_bond_distance
_geom_bond_site_symmetry_2
_ccdc_geom_bond_type
H0 C3 0.929 . S
H1 C6 0.929 . S
H2 C8 0.930 . S
C3 H0 0.929 . S
C3 C4 1.398 . S
C3 C5 1.396 . S
C4 C3 1.398 . S
C4 C8 1.407 . S
C5 C3 1.396 . S
C5 C6 1.394 . S
C6 H1 0.929 . S
C6 C5 1.394 . S
C6 C7 1.382 . S
C7 C6 1.382 . S
C7 C8 1.392 . S
C7 N9 1.420 . S
C8 H2 0.930 . S
C8 C4 1.407 . S
C8 C7 1.392 . S
N9 C7 1.420 . S
N9 C10 1.244 . S
C10 N9 1.244 . S
H11 C14 0.929 . S
H12 C17 0.929 . S
H13 C19 0.930 . S
C14 H11 0.929 . S
C14 C15 1.398 . S
C14 C16 1.396 . S
C15 C14 1.398 . S
C15 C19 1.407 . S
C16 C14 1.396 . S
C16 C17 1.394 . S
C17 H12 0.929 . S
C17 C16 1.394 . S
C17 C18 1.382 . S
C18 C17 1.382 . S
C18 C19 1.392 . S
C18 N20 1.420 . S
C19 H13 0.930 . S
C19 C15 1.407 . S
C19 C18 1.392 . S
N20 C18 1.420 . S
N20 C21 1.244 . S
C21 N20 1.244 . S
H22 C25 0.929 . S
H23 C28 0.929 . S
H24 C30 0.930 . S
C25 H22 0.929 . S
C25 C26 1.398 . S
C25 C27 1.396 . S
C26 C25 1.398 . S
C26 C30 1.407 . S
C27 C25 1.396 . S
C27 C28 1.394 . S
C28 H23 0.929 . S
C28 C27 1.394 . S
C28 C29 1.382 . S
C29 C28 1.382 . S
C29 C30 1.392 . S
C29 N31 1.420 . S
C30 H24 0.930 . S
C30 C26 1.407 . S
C30 C29 1.392 . S
N31 C29 1.420 . S
N31 C32 1.244 . S
C32 N31 1.244 . S
H33 C36 0.929 . S
H34 C39 0.929 . S
H35 C41 0.930 . S
C36 H33 0.929 . S
C36 C37 1.398 . S
C36 C38 1.396 . S
C37 C36 1.398 . S
C37 C41 1.407 . S
C38 C36 1.396 . S
C38 C39 1.394 . S
C39 H34 0.929 . S
C39 C38 1.394 . S
C39 C40 1.382 . S
C40 C39 1.382 . S
C40 C41 1.392 . S
C40 N42 1.420 . S
C41 H35 0.930 . S
C41 C37 1.407 . S
C41 C40 1.392 . S
N42 C40 1.420 . S
N42 C43 1.244 . S
C43 N42 1.244 . S
H44 C47 0.929 . S
H45 C50 0.929 . S
H46 C52 0.930 . S
C47 H44 0.929 . S
C47 C48 1.398 . S
C47 C49 1.396 . S
C48 C47 1.398 . S
C48 C52 1.407 . S
C49 C47 1.396 . S
C49 C50 1.394 . S
C50 H45 0.929 . S
C50 C49 1.394 . S
C50 C51 1.382 . S
C51 C50 1.382 . S
C51 C52 1.392 . S
C51 N53 1.420 . S
C52 H46 0.930 . S
C52 C48 1.407 . S
C52 C51 1.392 . S
N53 C51 1.420 . S
N53 C54 1.244 . S
C54 N53 1.244 . S
H55 C58 0.929 . S
H56 C61 0.929 . S
H57 C63 0.930 . S
C58 H55 0.929 . S
C58 C59 1.398 . S
C58 C60 1.396 . S
C59 C58 1.398 . S
C59 C63 1.407 . S
C60 C58 1.396 . S
C60 C61 1.394 . S
C61 H56 0.929 . S
C61 C60 1.394 . S
C61 C62 1.382 . S
C62 C61 1.382 . S
C62 C63 1.392 . S
C62 N64 1.420 . S
C63 H57 0.930 . S
C63 C59 1.407 . S
C63 C62 1.392 . S
N64 C62 1.420 . S
N64 C65 1.244 . S
C65 N64 1.244 . S
H66 C69 0.929 . S
H67 C72 0.929 . S
H68 C74 0.930 . S
C69 H66 0.929 . S
C69 C70 1.398 . S
C69 C71 1.396 . S
C70 C69 1.398 . S
C70 C74 1.407 . S
C71 C69 1.396 . S
C71 C72 1.394 . S
C72 H67 0.929 . S
C72 C71 1.394 . S
C72 C73 1.382 . S
C73 C72 1.382 . S
C73 C74 1.392 . S
C73 N75 1.420 . S
C74 H68 0.930 . S
C74 C70 1.407 . S
C74 C73 1.392 . S
N75 C73 1.420 . S
N75 C76 1.244 . S
C76 N75 1.244 . S
H77 C80 0.929 . S
H78 C83 0.929 . S
H79 C85 0.930 . S
C80 H77 0.929 . S
C80 C81 1.398 . S
C80 C82 1.396 . S
C81 C80 1.398 . S
C81 C85 1.407 . S
C82 C80 1.396 . S
C82 C83 1.394 . S
C83 H78 0.929 . S
C83 C82 1.394 . S
C83 C84 1.382 . S
C84 C83 1.382 . S
C84 C85 1.392 . S
C84 N86 1.420 . S
C85 H79 0.930 . S
C85 C81 1.407 . S
C85 C84 1.392 . S
N86 C84 1.420 . S
N86 C87 1.244 . S
C87 N86 1.244 . S
Nd88 C90 2.836 . S
Nd88 O108 2.500 . S
Nd88 O109 2.492 . S
Nd88 O110 2.487 1_565 S
Nd88 O111 2.682 1_565 S
Nd88 O112 2.410 . S
Nd88 O117 2.414 1_455 S
Nd88 O119 2.424 1_565 S
Nd89 C99 2.836 . S
Nd89 O111 2.414 1_655 S
Nd89 O113 2.424 1_545 S
Nd89 O114 2.500 . S
Nd89 O115 2.492 . S
Nd89 O116 2.487 1_545 S
Nd89 O117 2.682 1_545 S
Nd89 O118 2.410 . S
C90 Nd88 2.836 . S
C90 C91 1.498 . S
C90 O108 1.258 . S
C90 O109 1.239 . S
C91 C90 1.498 . S
C91 C92 1.366 . S
C91 C96 1.407 . S
C92 C91 1.366 . S
C92 C93 1.392 . S
C92 H120 0.930 . S
C93 C92 1.392 . S
C93 C94 1.398 . S
C93 H121 0.929 . S
C94 C93 1.398 . S
C94 C95 1.352 . S
C95 C94 1.352 . S
C95 C96 1.384 . S
C95 H122 0.930 . S
C96 C91 1.407 . S
C96 C95 1.384 . S
C96 H123 0.929 . S
C97 O110 1.241 . S
C97 O111 1.273 . S
C98 O112 1.251 1_655 S
C98 O113 1.268 . S
C99 Nd89 2.836 . S
C99 C100 1.498 . S
C99 O114 1.258 . S
C99 O115 1.239 . S
C100 C99 1.498 . S
C100 C101 1.366 . S
C100 C105 1.407 . S
C101 C100 1.366 . S
C101 C102 1.392 . S
C101 H124 0.930 . S
C102 C101 1.392 . S
C102 C103 1.398 . S
C102 H125 0.929 . S
C103 C102 1.398 . S
C103 C104 1.352 . S
C104 C103 1.352 . S
C104 C105 1.384 . S
C104 H126 0.930 . S
C105 C100 1.407 . S
C105 C104 1.384 . S
C105 H127 0.929 . S
C106 O116 1.241 . S
C106 O117 1.273 . S
C107 O118 1.251 1_455 S
C107 O119 1.268 . S
O108 Nd88 2.500 . S
O108 C90 1.258 . S
O109 Nd88 2.492 . S
O109 C90 1.239 . S
O110 Nd88 2.487 1_545 S
O110 C97 1.241 . S
O111 Nd88 2.682 1_545 S
O111 Nd89 2.414 1_455 S
O111 C97 1.273 . S
O112 Nd88 2.410 . S
O112 C98 1.251 1_455 S
O113 Nd89 2.424 1_565 S
O113 C98 1.268 . S
O114 Nd89 2.500 . S
O114 C99 1.258 . S
O115 Nd89 2.492 . S
O115 C99 1.239 . S
O116 Nd89 2.487 1_565 S
O116 C106 1.241 . S
O117 Nd88 2.414 1_655 S
O117 Nd89 2.682 1_565 S
O117 C106 1.273 . S
O118 Nd89 2.410 . S
O118 C107 1.251 1_655 S
O119 Nd88 2.424 1_545 S
O119 C107 1.268 . S
H120 C92 0.930 . S
H121 C93 0.929 . S
H122 C95 0.930 . S
H123 C96 0.929 . S
H124 C101 0.930 . S
H125 C102 0.929 . S
H126 C104 0.930 . S
H127 C105 0.929 . S
Nd128 C130 2.836 . S
Nd128 O148 2.500 . S
Nd128 O149 2.492 . S
Nd128 O150 2.487 1_565 S
Nd128 O151 2.682 1_565 S
Nd128 O152 2.410 . S
Nd128 O157 2.414 . S
Nd128 O159 2.424 1_565 S
Nd129 C139 2.836 . S
Nd129 O151 2.414 1_556 S
Nd129 O153 2.424 1_545 S
Nd129 O154 2.500 . S
Nd129 O155 2.492 . S
Nd129 O156 2.487 . S
Nd129 O157 2.682 1_546 S
Nd129 O158 2.410 1_556 S
C130 Nd128 2.836 . S
C130 C131 1.498 . S
C130 O148 1.258 . S
C130 O149 1.239 . S
C131 C130 1.498 . S
C131 C132 1.366 . S
C131 C136 1.407 . S
C132 C131 1.366 . S
C132 C133 1.392 . S
C132 H160 0.930 . S
C133 C132 1.392 . S
C133 C134 1.398 . S
C133 H161 0.929 . S
C134 C133 1.398 . S
C134 C135 1.352 . S
C135 C134 1.352 . S
C135 C136 1.384 . S
C135 H162 0.930 . S
C136 C131 1.407 . S
C136 C135 1.384 . S
C136 H163 0.929 . S
C137 O150 1.241 . S
C137 O151 1.273 . S
C138 O152 1.251 1_556 S
C138 O153 1.268 . S
C139 Nd129 2.836 . S
C139 C140 1.498 . S
C139 O154 1.258 . S
C139 O155 1.239 . S
C140 C139 1.498 . S
C140 C141 1.366 . S
C140 C145 1.407 . S
C141 C140 1.366 . S
C141 C142 1.392 . S
C141 H164 0.930 1_556 S
C142 C141 1.392 . S
C142 C143 1.398 . S
C142 H165 0.929 . S
C143 C142 1.398 . S
C143 C144 1.352 . S
C144 C143 1.352 . S
C144 C145 1.384 . S
C144 H166 0.930 . S
C145 C140 1.407 . S
C145 C144 1.384 . S
C145 H167 0.929 . S
C146 O156 1.241 1_564 S
C146 O157 1.273 . S
C147 O158 1.251 . S
C147 O159 1.268 . S
O148 Nd128 2.500 . S
O148 C130 1.258 . S
O149 Nd128 2.492 . S
O149 C130 1.239 . S
O150 Nd128 2.487 1_545 S
O150 C137 1.241 . S
O151 Nd128 2.682 1_545 S
O151 Nd129 2.414 1_554 S
O151 C137 1.273 . S
O152 Nd128 2.410 . S
O152 C138 1.251 1_554 S
O153 Nd129 2.424 1_565 S
O153 C138 1.268 . S
O154 Nd129 2.500 . S
O154 C139 1.258 . S
O155 Nd129 2.492 . S
O155 C139 1.239 . S
O156 Nd129 2.487 . S
O156 C146 1.241 1_546 S
O157 Nd128 2.414 . S
O157 Nd129 2.682 1_564 S
O157 C146 1.273 . S
O158 Nd129 2.410 1_554 S
O158 C147 1.251 . S
O159 Nd128 2.424 1_545 S
O159 C147 1.268 . S
H160 C132 0.930 . S
H161 C133 0.929 . S
H162 C135 0.930 . S
H163 C136 0.929 . S
H164 C141 0.930 1_554 S
H165 C142 0.929 . S
H166 C144 0.930 . S
H167 C145 0.929 . S
Nd168 C170 2.836 . S
Nd168 O188 2.500 . S
Nd168 O189 2.492 . S
Nd168 O190 2.487 . S
Nd168 O191 2.682 . S
Nd168 O192 2.410 . S
Nd168 O197 2.414 . S
Nd168 O199 2.424 . S
Nd169 C179 2.836 . S
Nd169 O191 2.414 . S
Nd169 O193 2.424 . S
Nd169 O194 2.500 . S
Nd169 O195 2.492 . S
Nd169 O196 2.487 . S
Nd169 O197 2.682 . S
Nd169 O198 2.410 . S
C170 Nd168 2.836 . S
C170 C171 1.498 . S
C170 O188 1.258 . S
C170 O189 1.239 . S
C171 C170 1.498 . S
C171 C172 1.366 . S
C171 C176 1.407 . S
C172 C171 1.366 . S
C172 C173 1.392 . S
C172 H200 0.930 . S
C173 C172 1.392 . S
C173 C174 1.398 . S
C173 H201 0.929 . S
C174 C173 1.398 . S
C174 C175 1.352 . S
C175 C174 1.352 . S
C175 C176 1.384 . S
C175 H202 0.930 . S
C176 C171 1.407 . S
C176 C175 1.384 . S
C176 H203 0.929 . S
C177 O190 1.241 . S
C177 O191 1.273 . S
C178 O192 1.251 . S
C178 O193 1.268 . S
C179 Nd169 2.836 . S
C179 C180 1.498 . S
C179 O194 1.258 . S
C179 O195 1.239 . S
C180 C179 1.498 . S
C180 C181 1.366 . S
C180 C185 1.407 . S
C181 C180 1.366 . S
C181 C182 1.392 . S
C181 H204 0.930 . S
C182 C181 1.392 . S
C182 C183 1.398 . S
C182 H205 0.929 . S
C183 C182 1.398 . S
C183 C184 1.352 . S
C184 C183 1.352 . S
C184 C185 1.384 . S
C184 H206 0.930 . S
C185 C180 1.407 . S
C185 C184 1.384 . S
C185 H207 0.929 . S
C186 O196 1.241 . S
C186 O197 1.273 . S
C187 O198 1.251 . S
C187 O199 1.268 . S
O188 Nd168 2.500 . S
O188 C170 1.258 . S
O189 Nd168 2.492 . S
O189 C170 1.239 . S
O190 Nd168 2.487 . S
O190 C177 1.241 . S
O191 Nd168 2.682 . S
O191 Nd169 2.414 . S
O191 C177 1.273 . S
O192 Nd168 2.410 . S
O192 C178 1.251 . S
O193 Nd169 2.424 . S
O193 C178 1.268 . S
O194 Nd169 2.500 . S
O194 C179 1.258 . S
O195 Nd169 2.492 . S
O195 C179 1.239 . S
O196 Nd169 2.487 . S
O196 C186 1.241 . S
O197 Nd168 2.414 . S
O197 Nd169 2.682 . S
O197 C186 1.273 . S
O198 Nd169 2.410 . S
O198 C187 1.251 . S
O199 Nd168 2.424 . S
O199 C187 1.268 . S
H200 C172 0.930 . S
H201 C173 0.929 . S
H202 C175 0.930 . S
H203 C176 0.929 . S
H204 C181 0.930 . S
H205 C182 0.929 . S
H206 C184 0.930 . S
H207 C185 0.929 . S
Nd208 C210 2.836 1_455 S
Nd208 O228 2.500 1_455 S
Nd208 O229 2.492 . S
Nd208 O230 2.487 . S
Nd208 O231 2.682 . S
Nd208 O232 2.410 . S
Nd208 O237 2.414 1_454 S
Nd208 O239 2.424 . S
Nd209 C219 2.836 . S
Nd209 O231 2.414 1_556 S
Nd209 O233 2.424 . S
Nd209 O234 2.500 . S
Nd209 O235 2.492 . S
Nd209 O236 2.487 1_455 S
Nd209 O237 2.682 1_455 S
Nd209 O238 2.410 . S
C210 Nd208 2.836 1_655 S
C210 C211 1.498 . S
C210 O228 1.258 . S
C210 O229 1.239 1_655 S
C211 C210 1.498 . S
C211 C212 1.366 . S
C211 C216 1.407 . S
C212 C211 1.366 . S
C212 C213 1.392 . S
C212 H240 0.930 . S
C213 C212 1.392 . S
C213 C214 1.398 . S
C213 H241 0.929 . S
C214 C213 1.398 . S
C214 C215 1.352 . S
C215 C214 1.352 . S
C215 C216 1.384 . S
C215 H242 0.930 . S
C216 C211 1.407 . S
C216 C215 1.384 . S
C216 H243 0.929 1_655 S
C217 O230 1.241 . S
C217 O231 1.273 . S
C218 O232 1.251 1_556 S
C218 O233 1.268 . S
C219 Nd209 2.836 . S
C219 C220 1.498 . S
C219 O234 1.258 . S
C219 O235 1.239 . S
C220 C219 1.498 . S
C220 C221 1.366 . S
C220 C225 1.407 . S
C221 C220 1.366 . S
C221 C222 1.392 . S
C221 H244 0.930 . S
C222 C221 1.392 . S
C222 C223 1.398 . S
C222 H245 0.929 . S
C223 C222 1.398 . S
C223 C224 1.352 . S
C224 C223 1.352 . S
C224 C225 1.384 . S
C224 H246 0.930 . S
C225 C220 1.407 . S
C225 C224 1.384 . S
C225 H247 0.929 . S
C226 O236 1.241 . S
C226 O237 1.273 . S
C227 O238 1.251 1_554 S
C227 O239 1.268 . S
O228 Nd208 2.500 1_655 S
O228 C210 1.258 . S
O229 Nd208 2.492 . S
O229 C210 1.239 1_455 S
O230 Nd208 2.487 . S
O230 C217 1.241 . S
O231 Nd208 2.682 . S
O231 Nd209 2.414 1_554 S
O231 C217 1.273 . S
O232 Nd208 2.410 . S
O232 C218 1.251 1_554 S
O233 Nd209 2.424 . S
O233 C218 1.268 . S
O234 Nd209 2.500 . S
O234 C219 1.258 . S
O235 Nd209 2.492 . S
O235 C219 1.239 . S
O236 Nd209 2.487 1_655 S
O236 C226 1.241 . S
O237 Nd208 2.414 1_656 S
O237 Nd209 2.682 1_655 S
O237 C226 1.273 . S
O238 Nd209 2.410 . S
O238 C227 1.251 1_556 S
O239 Nd208 2.424 . S
O239 C227 1.268 . S
H240 C212 0.930 . S
H241 C213 0.929 . S
H242 C215 0.930 . S
H243 C216 0.929 1_455 S
H244 C221 0.930 . S
H245 C222 0.929 . S
H246 C224 0.930 . S
H247 C225 0.929 . S
C248 C249 1.369 . S
C248 C250 1.419 . S
C248 H252 0.930 . S
C249 C248 1.369 . S
C249 C258 1.429 . S
C250 C248 1.419 . S
C250 C251 1.363 . S
C250 H253 0.929 . S
C251 C250 1.363 . S
C251 C257 1.428 . S
H252 C248 0.930 . S
H253 C250 0.929 . S
S254 N255 1.613 . S
S254 N256 1.610 . S
N255 S254 1.613 . S
N255 C258 1.350 . S
N256 S254 1.610 . S
N256 C257 1.351 . S
C257 C251 1.428 . S
C257 N256 1.351 . S
C257 C258 1.434 . S
C258 C249 1.429 . S
C258 N255 1.350 . S
C258 C257 1.434 . S
C259 C260 1.369 . S
C259 C261 1.419 . S
C259 H263 0.930 . S
C260 C259 1.369 . S
C260 C269 1.429 . S
C261 C259 1.419 . S
C261 C262 1.363 . S
C261 H264 0.929 . S
C262 C261 1.363 . S
C262 C268 1.428 . S
H263 C259 0.930 . S
H264 C261 0.929 . S
S265 N266 1.613 . S
S265 N267 1.610 . S
N266 S265 1.613 . S
N266 C269 1.350 . S
N267 S265 1.610 . S
N267 C268 1.351 . S
C268 C262 1.428 . S
C268 N267 1.351 . S
C268 C269 1.434 . S
C269 C260 1.429 . S
C269 N266 1.350 . S
C269 C268 1.434 . S
C270 C271 1.369 . S
C270 C272 1.419 . S
C270 H274 0.930 . S
C271 C270 1.369 . S
C271 C280 1.429 . S
C272 C270 1.419 . S
C272 C273 1.363 . S
C272 H275 0.929 . S
C273 C272 1.363 . S
C273 C279 1.428 . S
H274 C270 0.930 . S
H275 C272 0.929 . S
S276 N277 1.613 . S
S276 N278 1.610 . S
N277 S276 1.613 . S
N277 C280 1.350 . S
N278 S276 1.610 . S
N278 C279 1.351 . S
C279 C273 1.428 . S
C279 N278 1.351 . S
C279 C280 1.434 . S
C280 C271 1.429 . S
C280 N277 1.350 . S
C280 C279 1.434 . S
C281 C282 1.369 . S
C281 C283 1.419 . S
C281 H285 0.930 . S
C282 C281 1.369 . S
C282 C291 1.429 . S
C283 C281 1.419 . S
C283 C284 1.363 . S
C283 H286 0.929 . S
C284 C283 1.363 . S
C284 C290 1.428 . S
H285 C281 0.930 . S
H286 C283 0.929 . S
S287 N288 1.613 . S
S287 N289 1.610 . S
N288 S287 1.613 . S
N288 C291 1.350 . S
N289 S287 1.610 . S
N289 C290 1.351 . S
C290 C284 1.428 . S
C290 N289 1.351 . S
C290 C291 1.434 . S
C291 C282 1.429 . S
C291 N288 1.350 . S
C291 C290 1.434 . S
C292 C293 1.369 . S
C292 C294 1.419 . S
C292 H296 0.930 . S
C293 C292 1.369 . S
C293 C302 1.429 . S
C294 C292 1.419 . S
C294 C295 1.363 . S
C294 H297 0.929 . S
C295 C294 1.363 . S
C295 C301 1.428 . S
H296 C292 0.930 . S
H297 C294 0.929 . S
S298 N299 1.613 . S
S298 N300 1.610 . S
N299 S298 1.613 . S
N299 C302 1.350 . S
N300 S298 1.610 . S
N300 C301 1.351 . S
C301 C295 1.428 . S
C301 N300 1.351 . S
C301 C302 1.434 . S
C302 C293 1.429 . S
C302 N299 1.350 . S
C302 C301 1.434 . S
C303 C304 1.369 . S
C303 C305 1.419 . S
C303 H307 0.930 . S
C304 C303 1.369 . S
C304 C313 1.429 . S
C305 C303 1.419 . S
C305 C306 1.363 . S
C305 H308 0.929 . S
C306 C305 1.363 . S
C306 C312 1.428 . S
H307 C303 0.930 . S
H308 C305 0.929 . S
S309 N310 1.613 . S
S309 N311 1.610 . S
N310 S309 1.613 . S
N310 C313 1.350 . S
N311 S309 1.610 . S
N311 C312 1.351 . S
C312 C306 1.428 . S
C312 N311 1.351 . S
C312 C313 1.434 . S
C313 C304 1.429 . S
C313 N310 1.350 . S
C313 C312 1.434 . S
C314 C315 1.369 . S
C314 C316 1.419 . S
C314 H318 0.930 . S
C315 C314 1.369 . S
C315 C324 1.429 . S
C316 C314 1.419 . S
C316 C317 1.363 . S
C316 H319 0.929 1_556 S
C317 C316 1.363 . S
C317 C323 1.428 . S
H318 C314 0.930 . S
H319 C316 0.929 1_554 S
S320 N321 1.613 . S
S320 N322 1.610 . S
N321 S320 1.613 . S
N321 C324 1.350 . S
N322 S320 1.610 . S
N322 C323 1.351 . S
C323 C317 1.428 . S
C323 N322 1.351 . S
C323 C324 1.434 . S
C324 C315 1.429 . S
C324 N321 1.350 . S
C324 C323 1.434 . S
C325 C326 1.369 . S
C325 C327 1.419 . S
C325 H329 0.930 . S
C326 C325 1.369 . S
C326 C335 1.429 . S
C327 C325 1.419 . S
C327 C328 1.363 . S
C327 H330 0.929 . S
C328 C327 1.363 . S
C328 C334 1.428 . S
H329 C325 0.930 . S
H330 C327 0.929 . S
S331 N332 1.613 . S
S331 N333 1.610 . S
N332 S331 1.613 . S
N332 C335 1.350 . S
N333 S331 1.610 . S
N333 C334 1.351 . S
C334 C328 1.428 . S
C334 N333 1.351 . S
C334 C335 1.434 . S
C335 C326 1.429 . S
C335 N332 1.350 . S
C335 C334 1.434 . S
C336 C337 1.369 . S
C336 C338 1.419 . S
C336 H340 0.930 . S
C337 C336 1.369 . S
C337 C346 1.429 . S
C338 C336 1.419 . S
C338 C339 1.363 . S
C338 H341 0.929 1_554 S
C339 C338 1.363 . S
C339 C345 1.428 . S
H340 C336 0.930 . S
H341 C338 0.929 1_556 S
S342 N343 1.613 . S
S342 N344 1.610 . S
N343 S342 1.613 . S
N343 C346 1.350 . S
N344 S342 1.610 . S
N344 C345 1.351 . S
C345 C339 1.428 . S
C345 N344 1.351 . S
C345 C346 1.434 . S
C346 C337 1.429 . S
C346 N343 1.350 . S
C346 C345 1.434 . S
C347 C348 1.369 . S
C347 C349 1.419 . S
C347 H351 0.930 . S
C348 C347 1.369 . S
C348 C357 1.429 . S
C349 C347 1.419 . S
C349 C350 1.363 . S
C349 H352 0.929 . S
C350 C349 1.363 . S
C350 C356 1.428 . S
H351 C347 0.930 . S
H352 C349 0.929 . S
S353 N354 1.613 1_554 S
S353 N355 1.610 . S
N354 S353 1.613 1_556 S
N354 C357 1.350 . S
N355 S353 1.610 . S
N355 C356 1.351 1_554 S
C356 C350 1.428 . S
C356 N355 1.351 1_556 S
C356 C357 1.434 . S
C357 C348 1.429 . S
C357 N354 1.350 . S
C357 C356 1.434 . S
C358 C359 1.369 . S
C358 C360 1.419 . S
C358 H362 0.930 . S
C359 C358 1.369 . S
C359 C368 1.429 . S
C360 C358 1.419 . S
C360 C361 1.363 . S
C360 H363 0.929 . S
C361 C360 1.363 . S
C361 C367 1.428 . S
H362 C358 0.930 . S
H363 C360 0.929 . S
S364 N365 1.613 . S
S364 N366 1.610 . S
N365 S364 1.613 . S
N365 C368 1.350 . S
N366 S364 1.610 . S
N366 C367 1.351 . S
C367 C361 1.428 . S
C367 N366 1.351 . S
C367 C368 1.434 . S
C368 C359 1.429 . S
C368 N365 1.350 . S
C368 C367 1.434 . S
C369 C370 1.369 . S
C369 C371 1.419 . S
C369 H373 0.930 . S
C370 C369 1.369 . S
C370 C379 1.429 . S
C371 C369 1.419 . S
C371 C372 1.363 . S
C371 H374 0.929 . S
C372 C371 1.363 . S
C372 C378 1.428 . S
H373 C369 0.930 . S
H374 C371 0.929 . S
S375 N376 1.613 . S
S375 N377 1.610 . S
N376 S375 1.613 . S
N376 C379 1.350 . S
N377 S375 1.610 . S
N377 C378 1.351 . S
C378 C372 1.428 . S
C378 N377 1.351 . S
C378 C379 1.434 . S
C379 C370 1.429 . S
C379 N376 1.350 . S
C379 C378 1.434 . S
C380 C381 1.369 . S
C380 C382 1.419 . S
C380 H384 0.930 . S
C381 C380 1.369 . S
C381 C390 1.429 . S
C382 C380 1.419 . S
C382 C383 1.363 . S
C382 H385 0.929 . S
C383 C382 1.363 . S
C383 C389 1.428 . S
H384 C380 0.930 . S
H385 C382 0.929 . S
S386 N387 1.613 1_545 S
S386 N388 1.610 . S
N387 S386 1.613 1_565 S
N387 C390 1.350 . S
N388 S386 1.610 . S
N388 C389 1.351 1_545 S
C389 C383 1.428 . S
C389 N388 1.351 1_565 S
C389 C390 1.434 . S
C390 C381 1.429 . S
C390 N387 1.350 . S
C390 C389 1.434 . S
C391 C392 1.369 . S
C391 C393 1.419 . S
C391 H395 0.930 . S
C392 C391 1.369 . S
C392 C401 1.429 . S
C393 C391 1.419 . S
C393 C394 1.363 . S
C393 H396 0.929 . S
C394 C393 1.363 . S
C394 C400 1.428 . S
H395 C391 0.930 . S
H396 C393 0.929 . S
S397 N398 1.613 . S
S397 N399 1.610 . S
N398 S397 1.613 . S
N398 C401 1.350 . S
N399 S397 1.610 . S
N399 C400 1.351 . S
C400 C394 1.428 . S
C400 N399 1.351 . S
C400 C401 1.434 . S
C401 C392 1.429 . S
C401 N398 1.350 . S
C401 C400 1.434 . S
C402 C403 1.369 . S
C402 C404 1.419 . S
C402 H406 0.930 . S
C403 C402 1.369 . S
C403 C412 1.429 . S
C404 C402 1.419 . S
C404 C405 1.363 . S
C404 H407 0.929 . S
C405 C404 1.363 . S
C405 C411 1.428 . S
H406 C402 0.930 . S
H407 C404 0.929 . S
S408 N409 1.613 . S
S408 N410 1.610 . S
N409 S408 1.613 . S
N409 C412 1.350 . S
N410 S408 1.610 . S
N410 C411 1.351 . S
C411 C405 1.428 . S
C411 N410 1.351 . S
C411 C412 1.434 . S
C412 C403 1.429 . S
C412 N409 1.350 . S
C412 C411 1.434 . S
C413 C414 1.369 . S
C413 C415 1.419 . S
C413 H417 0.930 . S
C414 C413 1.369 . S
C414 C423 1.429 . S
C415 C413 1.419 . S
C415 C416 1.363 . S
C415 H418 0.929 . S
C416 C415 1.363 . S
C416 C422 1.428 . S
H417 C413 0.930 . S
H418 C415 0.929 . S
S419 N420 1.613 . S
S419 N421 1.610 . S
N420 S419 1.613 . S
N420 C423 1.350 . S
N421 S419 1.610 . S
N421 C422 1.351 . S
C422 C416 1.428 . S
C422 N421 1.351 . S
C422 C423 1.434 . S
C423 C414 1.429 . S
C423 N420 1.350 . S
C423 C422 1.434 . S
C424 C425 1.369 . S
C424 C426 1.419 . S
C424 H428 0.930 . S
C425 C424 1.369 . S
C425 C434 1.429 1_556 S
C426 C424 1.419 . S
C426 C427 1.386 . S
C426 H429 0.929 . S
C427 C426 1.386 . S
C427 C433 1.418 1_556 S
H428 C424 0.930 . S
H429 C426 0.929 . S
S430 N431 1.613 . S
S430 N432 1.610 . S
N431 S430 1.613 . S
N431 C434 1.350 . S
N432 S430 1.610 . S
N432 C433 1.351 . S
C433 C427 1.418 1_554 S
C433 N432 1.351 . S
C433 C434 1.434 . S
C434 C425 1.429 1_554 S
C434 N431 1.350 . S
C434 C433 1.434 . S
C435 C436 1.369 . S
C435 C437 1.419 . S
C435 H439 0.930 . S
C436 C435 1.369 . S
C436 C445 1.429 . S
C437 C435 1.419 . S
C437 C438 1.363 . S
C437 H440 0.929 . S
C438 C437 1.363 . S
C438 C444 1.428 . S
H439 C435 0.930 . S
H440 C437 0.929 . S
S441 N442 1.613 . S
S441 N443 1.610 . S
N442 S441 1.613 . S
N442 C445 1.350 . S
N443 S441 1.610 . S
N443 C444 1.351 . S
C444 C438 1.428 . S
C444 N443 1.351 . S
C444 C445 1.434 . S
C445 C436 1.429 . S
C445 N442 1.350 . S
C445 C444 1.434 . S
C446 C447 1.369 . S
C446 C448 1.419 . S
C446 H450 0.930 . S
C447 C446 1.369 . S
C447 C456 1.429 . S
C448 C446 1.419 . S
C448 C449 1.363 . S
C448 H451 0.929 . S
C449 C448 1.363 . S
C449 C455 1.428 . S
H450 C446 0.930 . S
H451 C448 0.929 . S
S452 N453 1.613 . S
S452 N454 1.610 . S
N453 S452 1.613 . S
N453 C456 1.350 . S
N454 S452 1.610 . S
N454 C455 1.351 . S
C455 C449 1.428 . S
C455 N454 1.351 . S
C455 C456 1.434 . S
C456 C447 1.429 . S
C456 N453 1.350 . S
C456 C455 1.434 . S
C457 C458 1.369 . S
C457 C459 1.419 . S
C457 H461 0.930 . S
C458 C457 1.369 . S
C458 C467 1.429 . S
C459 C457 1.419 . S
C459 C460 1.363 . S
C459 H462 0.929 . S
C460 C459 1.363 . S
C460 C466 1.428 . S
H461 C457 0.930 . S
H462 C459 0.929 . S
S463 N464 1.613 . S
S463 N465 1.610 . S
N464 S463 1.613 . S
N464 C467 1.350 . S
N465 S463 1.610 . S
N465 C466 1.351 . S
C466 C460 1.428 . S
C466 N465 1.351 . S
C466 C467 1.434 . S
C467 C458 1.429 . S
C467 N464 1.350 . S
C467 C466 1.434 . S
C468 C469 1.369 . S
C468 C470 1.419 . S
C468 H472 0.930 . S
C469 C468 1.369 . S
C469 C478 1.429 . S
C470 C468 1.419 . S
C470 C471 1.363 . S
C470 H473 0.929 . S
C471 C470 1.363 . S
C471 C477 1.428 . S
H472 C468 0.930 . S
H473 C470 0.929 . S
S474 N475 1.613 . S
S474 N476 1.610 . S
N475 S474 1.613 . S
N475 C478 1.350 1_455 S
N476 S474 1.610 . S
N476 C477 1.351 1_455 S
C477 C471 1.428 . S
C477 N476 1.351 1_655 S
C477 C478 1.434 . S
C478 C469 1.429 . S
C478 N475 1.350 1_655 S
C478 C477 1.434 . S
C479 C480 1.369 . S
C479 C481 1.419 . S
C479 H483 0.930 . S
C480 C479 1.369 . S
C480 C489 1.429 . S
C481 C479 1.419 . S
C481 C482 1.363 . S
C481 H484 0.929 . S
C482 C481 1.363 . S
C482 C488 1.428 . S
H483 C479 0.930 . S
H484 C481 0.929 . S
S485 N486 1.613 . S
S485 N487 1.610 . S
N486 S485 1.613 . S
N486 C489 1.350 . S
N487 S485 1.610 . S
N487 C488 1.351 . S
C488 C482 1.428 . S
C488 N487 1.351 . S
C488 C489 1.434 . S
C489 C480 1.429 . S
C489 N486 1.350 . S
C489 C488 1.434 . S
C490 C491 1.369 . S
C490 C492 1.419 . S
C490 H494 0.930 . S
C491 C490 1.369 . S
C491 C500 1.429 . S
C492 C490 1.419 . S
C492 C493 1.363 . S
C492 H495 0.929 . S
C493 C492 1.363 . S
C493 C499 1.428 . S
H494 C490 0.930 . S
H495 C492 0.929 . S
S496 N497 1.613 . S
S496 N498 1.610 . S
N497 S496 1.613 . S
N497 C500 1.350 . S
N498 S496 1.610 . S
N498 C499 1.351 . S
C499 C493 1.428 . S
C499 N498 1.351 . S
C499 C500 1.434 . S
C500 C491 1.429 . S
C500 N497 1.350 . S
C500 C499 1.434 . S
C501 C502 1.369 . S
C501 C503 1.419 . S
C501 H505 0.930 . S
C502 C501 1.369 . S
C502 C511 1.429 . S
C503 C501 1.419 . S
C503 C504 1.363 . S
C503 H506 0.929 . S
C504 C503 1.363 . S
C504 C510 1.428 . S
H505 C501 0.930 . S
H506 C503 0.929 . S
S507 N508 1.613 . S
S507 N509 1.610 . S
N508 S507 1.613 . S
N508 C511 1.350 . S
N509 S507 1.610 . S
N509 C510 1.351 . S
C510 C504 1.428 . S
C510 N509 1.351 . S
C510 C511 1.434 . S
C511 C502 1.429 . S
C511 N508 1.350 . S
C511 C510 1.434 . S
C249 C4 3.065 . S
C251 C107 3.023 . S
C260 C16 2.350 . S
C262 C138 2.448 . S
C273 C177 1.117 . S
C271 C32 1.126 . S
C282 C43 0.702 . S
C284 C214 0.698 . S
C295 C137 3.158 . S
C293 C5 3.251 . S
C306 C94 1.158 . S
C304 C21 1.167 . S
C317 C226 1.374 . S
C315 C27 1.373 . S
C328 C183 1.219 . S
C326 C37 1.218 . S
C337 C10 2.446 . S
C339 C227 2.447 . S
C350 C143 1.445 . S
C348 C26 1.459 . S
C359 C38 0.647 . S
C361 C106 0.908 . S
C370 C15 2.352 . S
C372 C178 2.393 . S
C383 C98 3.011 . S
C381 C48 3.052 . S
C392 C59 2.112 . S
C394 C147 2.212 . S
C403 C76 1.407 . S
C405 C186 1.420 . S
C414 C87 0.792 . S
C416 C223 0.782 . S
C425 C54 2.740 . S
C427 C146 2.618 1_556 S
C438 C103 1.507 . S
C436 C60 1.502 . S
C449 C217 1.414 . S
C447 C71 1.467 . S
C460 C174 1.280 . S
C458 C82 1.300 . S
C469 C49 2.601 . S
C471 C218 2.603 1_655 S
C482 C134 1.342 . S
C480 C70 1.354 . S
C493 C97 0.624 . S
C491 C81 0.580 . S
C502 C65 2.170 . S
C504 C187 2.236 . S
