# Generated by pormake.
# Topology ssa, (4,4)-cn, num edge types: 1
# Building blocks:
#     Node 0, Type 0, BuildingBlock: ESEHIV_clean_sbu_0, # of connection points: 4
#     Node 1, Type 0, BuildingBlock: ESEHIV_clean_sbu_0, # of connection points: 4
#     Node 2, Type 0, BuildingBlock: ESEHIV_clean_sbu_0, # of connection points: 4
#     Node 3, Type 0, BuildingBlock: ESEHIV_clean_sbu_0, # of connection points: 4
#     Node 4, Type 0, BuildingBlock: ESEHIV_clean_sbu_0, # of connection points: 4
#     Node 5, Type 0, BuildingBlock: ESEHIV_clean_sbu_0, # of connection points: 4
#     Node 6, Type 1, BuildingBlock: GIZVER_clean_linker_0, # of connection points: 4
#     Node 7, Type 1, BuildingBlock: GIZVER_clean_linker_0, # of connection points: 4
#     Node 8, Type 1, BuildingBlock: GIZVER_clean_linker_0, # of connection points: 4
#     Node 9, Type 1, BuildingBlock: GIZVER_clean_linker_0, # of connection points: 4
#     Node 10, Type 1, BuildingBlock: GIZVER_clean_linker_0, # of connection points: 4
#     Node 11, Type 1, BuildingBlock: GIZVER_clean_linker_0, # of connection points: 4
#     Edge 12, Type (0, 1), BuildingBlock: XUDNAN_clean_linker_2, # of connection points: 2
#     Edge 13, Type (0, 1), BuildingBlock: XUDNAN_clean_linker_2, # of connection points: 2
#     Edge 14, Type (0, 1), BuildingBlock: XUDNAN_clean_linker_2, # of connection points: 2
#     Edge 15, Type (0, 1), BuildingBlock: XUDNAN_clean_linker_2, # of connection points: 2
#     Edge 16, Type (0, 1), BuildingBlock: XUDNAN_clean_linker_2, # of connection points: 2
#     Edge 17, Type (0, 1), BuildingBlock: XUDNAN_clean_linker_2, # of connection points: 2
#     Edge 18, Type (0, 1), BuildingBlock: XUDNAN_clean_linker_2, # of connection points: 2
#     Edge 19, Type (0, 1), BuildingBlock: XUDNAN_clean_linker_2, # of connection points: 2
#     Edge 20, Type (0, 1), BuildingBlock: XUDNAN_clean_linker_2, # of connection points: 2
#     Edge 21, Type (0, 1), BuildingBlock: XUDNAN_clean_linker_2, # of connection points: 2
#     Edge 22, Type (0, 1), BuildingBlock: XUDNAN_clean_linker_2, # of connection points: 2
#     Edge 23, Type (0, 1), BuildingBlock: XUDNAN_clean_linker_2, # of connection points: 2
#     Edge 24, Type (0, 1), BuildingBlock: XUDNAN_clean_linker_2, # of connection points: 2
#     Edge 25, Type (0, 1), BuildingBlock: XUDNAN_clean_linker_2, # of connection points: 2
#     Edge 26, Type (0, 1), BuildingBlock: XUDNAN_clean_linker_2, # of connection points: 2
#     Edge 27, Type (0, 1), BuildingBlock: XUDNAN_clean_linker_2, # of connection points: 2
#     Edge 28, Type (0, 1), BuildingBlock: XUDNAN_clean_linker_2, # of connection points: 2
#     Edge 29, Type (0, 1), BuildingBlock: XUDNAN_clean_linker_2, # of connection points: 2
#     Edge 30, Type (0, 1), BuildingBlock: XUDNAN_clean_linker_2, # of connection points: 2
#     Edge 31, Type (0, 1), BuildingBlock: XUDNAN_clean_linker_2, # of connection points: 2
#     Edge 32, Type (0, 1), BuildingBlock: XUDNAN_clean_linker_2, # of connection points: 2
#     Edge 33, Type (0, 1), BuildingBlock: XUDNAN_clean_linker_2, # of connection points: 2
#     Edge 34, Type (0, 1), BuildingBlock: XUDNAN_clean_linker_2, # of connection points: 2
#     Edge 35, Type (0, 1), BuildingBlock: XUDNAN_clean_linker_2, # of connection points: 2
# Relax obj value: 0.005
# Max RMSD: 0.107
# Mean RMSD: 0.064
data_MOF--net-ssa--node1-ESEHIV_clean_sbu_0--node2-GIZVER_clean_linker_0--edge1-XUDNAN_clean_linker_2
_symmetry_space_group_name_H-M    P1
_symmetry_Int_Tables_number       1
_symmetry_cell_setting            triclinic
loop_
_symmetry_equiv_pos_as_xyz
'x, y, z'
_cell_length_a     53.544702
_cell_length_b     57.427977
_cell_length_c     30.51345
_cell_angle_alpha  88.184594
_cell_angle_beta   91.163584
_cell_angle_gamma 122.00892
loop_
_atom_site_label
_atom_site_type_symbol
_atom_site_fract_x
_atom_site_fract_y
_atom_site_fract_z
_atom_type_partial_charge
Cu0 Cu 0.02601 0.52609 0.00737 0.0
N1 N 0.99597 0.49079 0.0243 0.0
N2 N 0.95713 0.44804 0.01714 0.0
C3 C 0.97659 0.47193 -0.00358 0.0
C4 C 0.96479 0.45204 0.05995 0.0
C5 C 0.98878 0.4785 0.06427 0.0
O6 O 1.00772 0.53991 0.96715 0.0
C7 C 0.08259 0.54252 0.97128 0.0
O8 O 0.08516 0.56602 0.96037 0.0
H9 H 0.9772 0.4756 0.96139 0.0
H10 H 1.00016 0.48807 0.09435 0.0
N11 N 0.04045 0.54878 0.05594 0.0
N12 N 0.07238 0.58095 0.10193 0.0
C13 C 0.06897 0.56711 0.06506 0.0
C14 C 0.02512 0.55096 0.08819 0.0
C15 C 0.04472 0.57073 0.11664 0.0
C16 C 1.00107 0.53379 0.92709 0.0
O17 O 1.01074 0.52009 0.90731 0.0
H18 H 0.08685 0.57054 0.04465 0.0
H19 H 1.00137 0.53903 0.09075 0.0
O20 O 0.05809 0.52286 0.98601 0.0
H21 H 0.95374 0.4371 0.08631 0.0
H22 H 0.03891 0.57684 0.14601 0.0
Cu23 Cu 0.54374 0.02921 0.51164 0.0
N24 N 0.55951 1.00682 0.52062 0.0
N25 N 0.5626 0.97029 0.50626 0.0
C26 C 0.54455 0.97978 0.5117 0.0
C27 C 0.59001 0.99211 0.51279 0.0
C28 C 0.58809 0.01455 0.52104 0.0
O29 O 0.50684 1.00496 0.48115 0.0
C30 C 0.5949 0.084 0.4801 0.0
O31 O 0.60665 0.10036 0.44556 0.0
H32 H 0.52122 0.96808 0.50442 0.0
H33 H 0.60659 0.03547 0.52237 0.0
N34 N 0.53475 0.04092 0.56247 0.0
N35 N 0.52757 0.06731 0.60632 0.0
C36 C 0.53575 0.06474 0.56612 0.0
C37 C 0.5256 0.0279 0.60166 0.0
C38 C 0.52108 0.04412 0.62879 0.0
C39 C 0.48163 1.00058 0.49076 0.0
O40 O 0.47957 0.01632 0.51888 0.0
H41 H 0.54198 0.07969 0.53949 0.0
H42 H 0.52235 1.00801 0.60978 0.0
O43 O 0.57076 0.06093 0.47429 0.0
H44 H 0.6102 0.99242 0.50853 0.0
H45 H 0.51385 0.03932 0.66254 0.0
Cu46 Cu 0.54012 0.52525 -0.00387 0.0
N47 N 0.5295 0.49014 0.01704 0.0
N48 N 0.52106 0.44754 0.01703 0.0
C49 C 0.52892 0.47057 0.99299 0.0
C50 C 0.51627 0.45282 0.05781 0.0
C51 C 0.52157 0.47914 0.05773 0.0
O52 O 0.57167 0.53772 0.95353 0.0
C53 C 0.48014 0.50332 0.968 0.0
O54 O 0.47731 0.47918 0.96737 0.0
H55 H 0.53396 0.47321 0.95835 0.0
H56 H 0.51992 0.48957 0.08539 0.0
N57 N 0.55327 0.55068 0.04084 0.0
N58 N 0.55769 0.58555 0.07855 0.0
C59 C 0.54687 0.57037 0.04224 0.0
C60 C 0.56894 0.55345 0.07743 0.0
C61 C 0.57174 0.575 0.10078 0.0
C62 C 0.59171 0.53254 0.96185 0.0
O63 O 0.59083 0.51964 -0.00137 0.0
H64 H 0.53442 0.57341 0.01683 0.0
H65 H 0.57726 0.54046 0.08681 0.0
O66 O 0.50549 0.52471 0.97389 0.0
H67 H 0.50981 0.43886 0.08589 0.0
H68 H 0.58255 0.58179 0.13225 0.0
Cu69 Cu 1.0159 0.49161 0.47917 0.0
N70 N 0.02408 0.47242 0.43971 0.0
N71 N 0.05048 0.46144 0.39914 0.0
C72 C 0.05083 0.4809 0.42328 0.0
C73 C 0.02234 0.43992 0.40028 0.0
C74 C 1.00608 0.4468 0.42527 0.0
O75 O 0.05366 0.52301 0.4967 0.0
C76 C 0.98831 0.44509 0.54128 0.0
O77 O 1.0075 0.43873 0.53013 0.0
H78 H 0.0704 0.50058 0.43033 0.0
H79 H 0.98298 0.4338 0.43339 0.0
N80 N 0.99361 0.50445 0.45254 0.0
N81 N 0.95644 0.51165 0.45003 0.0
C82 C 0.9654 0.49458 0.46311 0.0
C83 C 1.00285 0.52852 0.43117 0.0
C84 C 0.97994 0.53308 0.42974 0.0
C85 C 0.05745 0.5447 0.51337 0.0
O86 O 0.03445 0.54513 0.52628 0.0
H87 H 0.95274 0.47676 0.4843 0.0
H88 H 0.02534 0.54289 0.42113 0.0
O89 O 0.99081 0.46718 0.52635 0.0
H90 H 1.01414 0.42056 0.38441 0.0
H91 H 0.98116 0.55158 0.41763 0.0
Cu92 Cu 0.52603 0.99673 0.02428 0.0
N93 N 0.4997 1.00492 -0.00227 0.0
N94 N 0.48011 0.0299 0.97942 0.0
C95 C 0.50363 0.0301 -0.00351 0.0
C96 C 0.46043 1.00347 0.96972 0.0
C97 C 0.47258 0.98807 0.98112 0.0
O98 O 0.56472 0.03063 0.02603 0.0
C99 C 0.4861 0.97295 0.09617 0.0
O100 O 0.47488 0.98721 0.0813 0.0
H101 H 0.52302 0.0481 0.00931 0.0
H102 H 0.46196 0.96605 0.97895 0.0
N103 N 0.53019 0.9714 0.99398 0.0
N104 N 0.54023 0.93826 0.99556 0.0
C105 C 0.54778 0.96307 0.01015 0.0
C106 C 0.51104 0.95141 0.96726 0.0
C107 C 0.51716 0.93083 0.96829 0.0
C108 C 0.57333 0.04313 0.98898 0.0
O109 O 0.55642 0.03225 0.95442 0.0
H110 H 0.56291 0.97312 0.03712 0.0
H111 H 0.492 0.95026 0.95221 0.0
O112 O 0.5102 0.97764 0.08028 0.0
H113 H 0.43882 0.99582 0.95556 0.0
H114 H 0.50392 0.9109 0.95365 0.0
Cu115 Cu 0.49969 0.49798 0.51078 0.0
N116 N 0.50792 0.53113 0.53325 0.0
N117 N 0.51736 0.57393 0.52813 0.0
C118 C 0.51834 0.55388 0.50795 0.0
C119 C 0.50667 0.56361 0.56855 0.0
C120 C 0.50076 0.53703 0.57161 0.0
O121 O 0.47756 0.49244 0.45601 0.0
C122 C 0.55037 0.50097 0.5403 0.0
O123 O 0.53797 0.49985 0.57767 0.0
H124 H 0.52472 0.55492 0.47417 0.0
H125 H 0.4902 0.52252 0.59863 0.0
N126 N 0.47588 0.46822 0.54824 0.0
N127 N 0.45827 0.42819 0.58442 0.0
C128 C 0.48003 0.44758 0.55886 0.0
C129 C 0.4504 0.4615 0.56738 0.0
C130 C 0.43942 0.43671 0.58979 0.0
C131 C 0.45776 0.49851 0.4548 0.0
O132 O 0.4532 0.50841 0.48988 0.0
H133 H 0.49837 0.44651 0.54734 0.0
H134 H 0.4404 0.47364 0.56487 0.0
O135 O 0.53744 0.50063 0.50453 0.0
H136 H 0.50141 0.5737 0.59281 0.0
H137 H 0.41939 0.42595 0.60889 0.0
H138 H 0.2668 0.53786 0.11379 0.0
H139 H 0.25365 0.51082 0.24956 0.0
H140 H 0.18101 0.50065 0.1723 0.0
H141 H 0.30804 0.55805 0.16642 0.0
H142 H 0.30237 0.54764 0.22255 0.0
H143 H 0.31374 0.52969 0.111 0.0
H144 H 0.35844 0.49146 0.16347 0.0
H145 H 0.31197 0.51324 0.25028 0.0
C146 C 0.25219 0.52757 0.14136 0.0
C147 C 0.22207 0.51848 0.13722 0.0
C148 C 0.26384 0.52469 0.18177 0.0
C149 C 0.24485 0.51219 0.21794 0.0
C150 C 0.215 0.50351 0.21421 0.0
C151 C 0.20388 0.50649 0.17403 0.0
C152 C 0.29692 0.53963 0.1887 0.0
C153 C 0.31012 0.52233 0.18133 0.0
C154 C 0.31878 0.52063 0.1388 0.0
C155 C 0.33592 0.50917 0.13268 0.0
C156 C 0.3439 0.49889 0.16882 0.0
C157 C 0.33534 0.49991 0.21154 0.0
C158 C 0.31812 0.51152 0.21749 0.0
H159 H 0.72394 0.22229 0.70333 0.0
H160 H 0.74014 0.23323 0.84158 0.0
H161 H 0.70133 0.15298 0.79001 0.0
H162 H 0.74092 0.26574 0.73229 0.0
H163 H 0.7387 0.26809 0.78983 0.0
H164 H 0.7881 0.28258 0.69723 0.0
H165 H 0.86535 0.33491 0.77372 0.0
H166 H 0.78226 0.2834 0.83785 0.0
C167 C 0.72413 0.21358 0.73516 0.0
C168 C 0.70993 0.1848 0.7414 0.0
C169 C 0.73672 0.2314 0.77082 0.0
C170 C 0.73367 0.22014 0.81346 0.0
C171 C 0.72026 0.19173 0.81999 0.0
C172 C 0.7107 0.1747 0.78377 0.0
C173 C 0.74836 0.26172 0.76439 0.0
C174 C 0.78163 0.27958 0.76743 0.0
C175 C 0.79872 0.28936 0.7289 0.0
C176 C 0.82909 0.30924 0.73095 0.0
C177 C 0.84226 0.31873 0.77196 0.0
C178 C 0.82556 0.30978 0.81048 0.0
C179 C 0.7954 0.28964 0.80829 0.0
H180 H 0.52217 0.73977 0.20727 0.0
H181 H 0.51299 0.73342 0.34779 0.0
H182 H 0.55403 0.69676 0.2843 0.0
H183 H 0.48526 0.74577 0.24451 0.0
H184 H 0.48352 0.74524 0.30271 0.0
H185 H 0.52442 0.78705 0.204 0.0
H186 H 0.55614 0.86328 0.26809 0.0
H187 H 0.51262 0.78716 0.3431 0.0
C188 C 0.52675 0.73365 0.23887 0.0
C189 C 0.53998 0.71798 0.24089 0.0
C190 C 0.5177 0.74 0.27751 0.0
C191 C 0.52177 0.73032 0.31837 0.0
C192 C 0.5344 0.71427 0.32066 0.0
C193 C 0.54475 0.70956 0.28217 0.0
C194 C 0.49912 0.75268 0.27469 0.0
C195 C 0.51745 0.78371 0.27395 0.0
C196 C 0.52819 0.79819 0.2339 0.0
C197 C 0.54253 0.8269 0.23192 0.0
C198 C 0.54639 0.84123 0.27036 0.0
C199 C 0.53543 0.82718 0.31074 0.0
C200 C 0.5214 0.79835 0.31234 0.0
H201 H 0.76614 0.54579 0.63928 0.0
H202 H 0.77861 0.56625 0.77608 0.0
H203 H 0.69197 0.52499 0.72042 0.0
H204 H 0.8146 0.58475 0.67038 0.0
H205 H 0.8201 0.5877 0.72802 0.0
H206 H 0.81348 0.54678 0.63107 0.0
H207 H 0.86387 0.51628 0.69094 0.0
H208 H 0.83886 0.56297 0.76664 0.0
C209 C 0.75703 0.54456 0.67125 0.0
C210 C 0.72643 0.5328 0.67563 0.0
C211 C 0.7761 0.55607 0.7077 0.0
C212 C 0.76414 0.55607 0.74848 0.0
C213 C 0.7337 0.54441 0.75308 0.0
C214 C 0.71518 0.53243 0.71698 0.0
C215 C 0.80926 0.5725 0.70158 0.0
C216 C 0.82264 0.55493 0.70014 0.0
C217 C 0.82342 0.54374 0.66022 0.0
C218 C 0.83858 0.53013 0.65717 0.0
C219 C 0.85259 0.52718 0.69421 0.0
C220 C 0.85374 0.53946 0.734 0.0
C221 C 0.83793 0.55279 0.73685 0.0
H222 H 0.32494 0.78094 0.26442 0.0
H223 H 0.31498 0.79256 0.40053 0.0
H224 H 0.3585 0.86194 0.31205 0.0
H225 H 0.3136 0.745 0.3192 0.0
H226 H 0.31204 0.75069 0.37576 0.0
H227 H 0.26909 0.73738 0.26961 0.0
H228 H 0.18781 0.67767 0.33251 0.0
H229 H 0.26556 0.72478 0.41021 0.0
C230 C 0.32678 0.79418 0.29045 0.0
C231 C 0.3419 0.82277 0.28263 0.0
C232 C 0.31585 0.78286 0.33269 0.0
C233 C 0.32098 0.80068 0.36728 0.0
C234 C 0.33622 0.82918 0.35946 0.0
C235 C 0.3454 0.83978 0.31704 0.0
C236 C 0.30421 0.75278 0.34266 0.0
C237 C 0.27093 0.73452 0.34038 0.0
C238 C 0.25654 0.72776 0.29924 0.0
C239 C 0.22633 0.70756 0.29622 0.0
C240 C 0.21074 0.6942 0.33461 0.0
C241 C 0.22465 0.70015 0.37555 0.0
C242 C 0.25461 0.72075 0.37861 0.0
H243 H 0.48516 0.26337 0.86855 0.0
H244 H 0.46102 0.25662 0.732 0.0
H245 H 0.49905 0.33414 0.79395 0.0
H246 H 0.44181 0.2194 0.83341 0.0
H247 H 0.44131 0.21628 0.77579 0.0
H248 H 0.46925 0.20674 0.87865 0.0
H249 H 0.51085 0.16962 0.81786 0.0
H250 H 0.48179 0.21385 0.73853 0.0
C251 C 0.48515 0.27308 0.83752 0.0
C252 C 0.49512 0.30131 0.83559 0.0
C253 C 0.47316 0.25682 0.80004 0.0
C254 C 0.47156 0.26916 0.76038 0.0
C255 C 0.48127 0.29714 0.75804 0.0
C256 C 0.4935 0.31303 0.79535 0.0
C257 C 0.45639 0.22579 0.80426 0.0
C258 C 0.47576 0.21395 0.80857 0.0
C259 C 0.47876 0.20388 0.84983 0.0
C260 C 0.49142 0.18785 0.85342 0.0
C261 C 0.5023 0.18305 0.8157 0.0
C262 C 0.4985 0.19181 0.77419 0.0
C263 C 0.48595 0.20798 0.77068 0.0
H264 H 0.08548 0.49886 0.00346 0.0
H265 H 0.14049 0.5837 0.95855 0.0
H266 H 0.18456 0.58425 0.98569 0.0
H267 H 0.12001 0.50652 0.10094 0.0
H268 H 0.11674 0.47361 0.10293 0.0
H269 H 0.09054 0.47796 0.072 0.0
H270 H 0.10244 0.46109 0.00224 0.0
H271 H 0.12864 0.45648 0.03313 0.0
H272 H 0.14003 0.47771 0.98389 0.0
H273 H 0.22142 0.57806 0.02968 0.0
H274 H 0.24679 0.56563 0.08549 0.0
H275 H 0.16805 0.48445 0.09952 0.0
C276 C 0.10686 0.51728 -0.0022 0.0
C277 C 0.10941 0.54118 0.97849 0.0
C278 C 0.13786 0.56501 0.97274 0.0
C279 C 0.1631 0.56553 0.98812 0.0
C280 C 0.15965 0.54195 0.00872 0.0
C281 C 0.1322 0.51813 0.01301 0.0
C282 C 0.13381 0.49658 0.04067 0.0
C283 C 0.11412 0.4882 0.08153 0.0
C284 C 0.12576 0.47148 0.01334 0.0
C285 C 0.16617 0.51233 0.05291 0.0
C286 C 0.18089 0.53833 0.03371 0.0
C287 C 0.21027 0.5575 0.04399 0.0
C288 C 0.22462 0.5502 0.0756 0.0
C289 C 0.20953 0.524 0.09688 0.0
C290 C 0.18029 0.50462 0.08385 0.0
H291 H 0.6416 0.13551 0.4998 0.0
H292 H 0.58524 0.05465 0.55849 0.0
H293 H 0.60716 0.07185 0.63022 0.0
H294 H 0.70609 0.14859 0.56401 0.0
H295 H 0.7205 0.18481 0.56807 0.0
H296 H 0.69873 0.1665 0.5211 0.0
H297 H 0.66308 0.18292 0.53595 0.0
H298 H 0.68461 0.20115 0.58311 0.0
H299 H 0.64582 0.17599 0.58887 0.0
H300 H 0.63152 0.09899 0.69636 0.0
H301 H 0.66206 0.13135 0.75187 0.0
H302 H 0.712 0.19312 0.64967 0.0
C303 C 0.63373 0.12132 0.52767 0.0
C304 C 0.60992 0.09369 0.52347 0.0
C305 C 0.60148 0.076 0.56076 0.0
C306 C 0.61437 0.08562 0.60183 0.0
C307 C 0.63695 0.11298 0.60492 0.0
C308 C 0.64727 0.13044 0.56873 0.0
C309 C 0.67323 0.15851 0.58098 0.0
C310 C 0.7013 0.16498 0.55712 0.0
C311 C 0.66626 0.18097 0.57167 0.0
C312 C 0.67538 0.15409 0.62993 0.0
C313 C 0.65384 0.12777 0.64285 0.0
C314 C 0.64933 0.11933 0.68655 0.0
C315 C 0.66752 0.1381 0.71808 0.0
C316 C 0.69114 0.16504 0.70615 0.0
C317 C 0.6948 0.17291 0.66093 0.0
H318 H 0.59149 0.6267 0.13543 0.0
H319 H 0.51401 0.59379 0.0519 0.0
H320 H 0.50552 0.62945 0.07609 0.0
H321 H 0.56143 0.64061 0.22441 0.0
H322 H 0.59505 0.67181 0.239 0.0
H323 H 0.59659 0.64536 0.21151 0.0
H324 H 0.62861 0.68066 0.15042 0.0
H325 H 0.62681 0.70715 0.17759 0.0
H326 H 0.61518 0.69969 0.12123 0.0
H327 H 0.50218 0.66551 0.11564 0.0
H328 H 0.50306 0.69697 0.16962 0.0
H329 H 0.58448 0.70889 0.22398 0.0
C330 C 0.57288 0.62708 0.1219 0.0
C331 C 0.55352 0.6073 0.09155 0.0
C332 C 0.52946 0.60875 0.0747 0.0
C333 C 0.52442 0.62904 0.08825 0.0
C334 C 0.54386 0.64812 0.11829 0.0
C335 C 0.56766 0.64737 0.13482 0.0
C336 C 0.5841 0.66911 0.16892 0.0
C337 C 0.58428 0.65593 0.21358 0.0
C338 C 0.61554 0.69042 0.15361 0.0
C339 C 0.56527 0.68158 0.17003 0.0
C340 C 0.54231 0.66939 0.14029 0.0
C341 C 0.52042 0.67563 0.13843 0.0
C342 C 0.52128 0.69383 0.16903 0.0
C343 C 0.54387 0.7056 0.2012 0.0
C344 C 0.56686 0.7003 0.19996 0.0
H345 H 0.9522 0.55393 0.47743 0.0
H346 H 0.90267 0.4658 0.46175 0.0
H347 H 0.86143 0.46181 0.50342 0.0
H348 H 0.93543 0.55249 0.58361 0.0
H349 H 0.93272 0.58248 0.58174 0.0
H350 H 0.95523 0.57923 0.54263 0.0
H351 H 0.92629 0.58527 0.4788 0.0
H352 H 0.90368 0.58869 0.51791 0.0
H353 H 0.88676 0.56302 0.47645 0.0
H354 H 0.83049 0.46629 0.55871 0.0
H355 H 0.81218 0.47932 0.62162 0.0
H356 H 0.88077 0.5645 0.6 0.0
C357 C 0.93212 0.53399 0.48096 0.0
C358 C 0.93045 0.51019 0.4659 0.0
C359 C 0.90427 0.48427 0.47282 0.0
C360 C 0.88071 0.48184 0.4963 0.0
C361 C 0.88352 0.50558 0.51236 0.0
C362 C 0.90846 0.53124 0.50453 0.0
C363 C 0.90769 0.55305 0.53009 0.0
C364 C 0.93433 0.56764 0.56136 0.0
C365 C 0.906 0.57373 0.49894 0.0
C366 C 0.87919 0.53551 0.55508 0.0
C367 C 0.86529 0.50822 0.54393 0.0
C368 C 0.84059 0.48769 0.56665 0.0
C369 C 0.83026 0.49519 0.60219 0.0
C370 C 0.84454 0.52293 0.61431 0.0
C371 C 0.86882 0.54333 0.5899 0.0
H372 H 0.43325 0.95627 0.13499 0.0
H373 H 0.49653 0.93194 0.11754 0.0
H374 H 0.46264 0.88738 0.15475 0.0
H375 H 0.4097 0.92583 0.24223 0.0
H376 H 0.37201 0.9159 0.2327 0.0
H377 H 0.40127 0.9453 0.20392 0.0
H378 H 0.3757 0.92368 0.13013 0.0
H379 H 0.3468 0.89383 0.15883 0.0
H380 H 0.36776 0.88996 0.11736 0.0
H381 H 0.42189 0.84551 0.19509 0.0
H382 H 0.38135 0.81328 0.24462 0.0
H383 H 0.3444 0.86453 0.23348 0.0
C384 C 0.44013 0.94168 0.13917 0.0
C385 C 0.46763 0.94772 0.12335 0.0
C386 C 0.4757 0.92796 0.12961 0.0
C387 C 0.45644 0.90242 0.15025 0.0
C388 C 0.42917 0.89688 0.16436 0.0
C389 C 0.42123 0.91614 0.15963 0.0
C390 C 0.39133 0.90573 0.17953 0.0
C391 C 0.39373 0.92428 0.21681 0.0
C392 C 0.36909 0.90315 0.14435 0.0
C393 C 0.38384 0.87776 0.19685 0.0
C394 C 0.40572 0.87281 0.18726 0.0
C395 C 0.40448 0.84903 0.20239 0.0
C396 C 0.38114 0.83062 0.23002 0.0
C397 C 0.35955 0.83624 0.24245 0.0
C398 C 0.36032 0.85949 0.22391 0.0
H399 H 0.50334 0.42383 0.61515 0.0
H400 H 0.40873 0.37801 0.59627 0.0
H401 H 0.40546 0.33653 0.62942 0.0
H402 H 0.51484 0.36608 0.59711 0.0
H403 H 0.54323 0.37889 0.63863 0.0
H404 H 0.53679 0.40233 0.60699 0.0
H405 H 0.53073 0.42056 0.6809 0.0
H406 H 0.53553 0.39591 0.71144 0.0
H407 H 0.50272 0.39677 0.71883 0.0
H408 H 0.41236 0.30109 0.66845 0.0
H409 H 0.42766 0.27629 0.71875 0.0
H410 H 0.51768 0.34587 0.71427 0.0
C411 C 0.48203 0.40488 0.6172 0.0
C412 C 0.45629 0.40391 0.6028 0.0
C413 C 0.42866 0.37905 0.60718 0.0
C414 C 0.42667 0.3554 0.62553 0.0
C415 C 0.45252 0.35706 0.63951 0.0
C416 C 0.47965 0.38126 0.63595 0.0
C417 C 0.50372 0.37845 0.65733 0.0
C418 C 0.52598 0.38162 0.62299 0.0
C419 C 0.51905 0.39914 0.69432 0.0
C420 C 0.48574 0.34919 0.67501 0.0
C421 C 0.4564 0.33693 0.66327 0.0
C422 C 0.43531 0.31035 0.67742 0.0
C423 C 0.44424 0.29632 0.70566 0.0
C424 C 0.47388 0.30909 0.71996 0.0
C425 C 0.49496 0.33554 0.70335 0.0
H426 H 0.59596 0.96132 0.45133 0.0
H427 H 0.51111 0.92118 0.51579 0.0
H428 H 0.49612 0.87826 0.47741 0.0
H429 H 0.56967 0.93212 0.34923 0.0
H430 H 0.60044 0.92884 0.33704 0.0
H431 H 0.60536 0.95526 0.37285 0.0
H432 H 0.62573 0.93711 0.43365 0.0
H433 H 0.62096 0.91063 0.39792 0.0
H434 H 0.60411 0.90155 0.45133 0.0
H435 H 0.48954 0.84062 0.42786 0.0
H436 H 0.49099 0.81243 0.36963 0.0
H437 H 0.58058 0.87747 0.33859 0.0
C438 C 0.57453 0.94334 0.45845 0.0
C439 C 0.5548 0.94457 0.48704 0.0
C440 C 0.52656 0.92071 0.49406 0.0
C441 C 0.51795 0.89623 0.47258 0.0
C442 C 0.53787 0.89588 0.44422 0.0
C443 C 0.56559 0.91885 0.4372 0.0
C444 C 0.58216 0.91385 0.40284 0.0
C445 C 0.58984 0.93369 0.36315 0.0
C446 C 0.60988 0.9159 0.42263 0.0
C447 C 0.55929 0.8846 0.391 0.0
C448 C 0.53399 0.87444 0.41552 0.0
C449 C 0.50939 0.84826 0.40891 0.0
C450 C 0.5105 0.8323 0.37591 0.0
C451 C 0.53597 0.8426 0.34961 0.0
C452 C 0.56078 0.86895 0.35804 0.0
H453 H 0.60515 0.49813 0.92514 0.0
H454 H 0.63185 0.58364 0.92922 0.0
H455 H 0.6751 0.59651 0.88279 0.0
H456 H 0.67687 0.50715 0.92548 0.0
H457 H 0.66724 0.48071 0.88645 0.0
H458 H 0.63942 0.47843 0.92176 0.0
H459 H 0.60759 0.47487 0.85424 0.0
H460 H 0.63503 0.47662 0.81881 0.0
H461 H 0.62351 0.50082 0.81113 0.0
H462 H 0.71612 0.59986 0.83778 0.0
H463 H 0.74631 0.59296 0.78557 0.0
H464 H 0.69041 0.50488 0.80609 0.0
C465 C 0.62014 0.51954 0.91602 0.0
C466 C 0.61551 0.54003 0.93062 0.0
C467 C 0.63516 0.56777 0.91796 0.0
C468 C 0.65984 0.57522 0.89206 0.0
C469 C 0.66412 0.55456 0.87867 0.0
C470 C 0.64437 0.52721 0.88928 0.0
C471 C 0.65263 0.50877 0.86784 0.0
C472 C 0.65945 0.49283 0.90246 0.0
C473 C 0.62825 0.48912 0.83612 0.0
C474 C 0.6802 0.53003 0.84353 0.0
C475 C 0.68684 0.55636 0.85101 0.0
C476 C 0.71115 0.57936 0.83172 0.0
C477 C 0.72838 0.5753 0.80256 0.0
C478 C 0.72091 0.54846 0.7925 0.0
C479 C 0.69689 0.52562 0.81399 0.0
H480 H 0.10459 0.55413 0.46521 0.0
H481 H 0.07576 0.5943 0.5506 0.0
H482 H 0.12142 0.63891 0.53418 0.0
H483 H 0.18571 0.59944 0.4851 0.0
H484 H 0.19368 0.59856 0.42827 0.0
H485 H 0.1619 0.56939 0.45358 0.0
H486 H 0.1284 0.57143 0.39314 0.0
H487 H 0.15999 0.60043 0.36771 0.0
H488 H 0.12925 0.60298 0.38334 0.0
H489 H 0.16671 0.68004 0.49968 0.0
H490 H 0.20542 0.71321 0.44797 0.0
H491 H 0.2036 0.64592 0.38482 0.0
C492 C 0.10829 0.57211 0.48176 0.0
C493 C 0.08671 0.57061 0.50969 0.0
C494 C 0.09208 0.59486 0.52946 0.0
C495 C 0.11803 0.62031 0.5204 0.0
C496 C 0.13843 0.62118 0.49155 0.0
C497 C 0.13381 0.59762 0.47265 0.0
C498 C 0.15694 0.60426 0.43848 0.0
C499 C 0.17567 0.5922 0.45221 0.0
C500 C 0.14279 0.5942 0.39301 0.0
C501 C 0.17476 0.63531 0.43997 0.0
C502 C 0.16419 0.64478 0.47134 0.0
C503 C 0.17559 0.67285 0.47575 0.0
C504 C 0.19765 0.69158 0.44651 0.0
C505 C 0.20774 0.68204 0.41321 0.0
C506 C 0.19672 0.65368 0.41086 0.0
H507 H 0.52363 0.08223 0.9605 0.0
H508 H 0.42966 0.03027 0.98276 0.0
H509 H 0.42447 0.07015 0.96838 0.0
H510 H 0.53374 0.14753 0.00507 0.0
H511 H 0.56076 0.16751 0.96337 0.0
H512 H 0.55651 0.13593 0.98463 0.0
H513 H 0.54838 0.11854 0.90393 0.0
H514 H 0.55237 0.15015 0.88447 0.0
H515 H 0.51953 0.11786 0.87141 0.0
H516 H 0.42865 0.11385 0.94261 0.0
H517 H 0.44041 0.15498 0.89819 0.0
H518 H 0.53188 0.17898 0.89355 0.0
C519 C 0.5021 0.07944 0.96365 0.0
C520 C 0.47707 0.05324 0.97315 0.0
C521 C 0.44909 0.05016 0.97542 0.0
C522 C 0.44602 0.07277 0.96788 0.0
C523 C 0.47117 0.09834 0.95827 0.0
C524 C 0.49866 0.10171 0.95592 0.0
C525 C 0.52157 0.13028 0.93939 0.0
C526 C 0.54451 0.14627 0.97523 0.0
C527 C 0.5363 0.12912 0.89731 0.0
C528 C 0.5024 0.14202 0.93042 0.0
C529 C 0.47357 0.1236 0.94286 0.0
C530 C 0.45124 0.12868 0.93361 0.0
C531 C 0.45819 0.15231 0.90871 0.0
C532 C 0.48713 0.1703 0.8928 0.0
C533 C 0.50972 0.16582 0.90602 0.0
H534 H 0.42851 0.52432 0.43208 0.0
H535 H 0.44456 0.46213 0.38891 0.0
H536 H 0.41053 0.4525 0.32622 0.0
H537 H 0.35086 0.48918 0.40076 0.0
H538 H 0.35304 0.52044 0.38296 0.0
H539 H 0.37706 0.5212 0.4259 0.0
H540 H 0.42156 0.55799 0.38221 0.0
H541 H 0.3987 0.55734 0.33779 0.0
H542 H 0.42787 0.55136 0.32734 0.0
H543 H 0.37351 0.44875 0.26974 0.0
H544 H 0.34362 0.45655 0.21602 0.0
H545 H 0.35526 0.52422 0.29235 0.0
C546 C 0.42477 0.50857 0.40953 0.0
C547 C 0.43901 0.49377 0.41553 0.0
C548 C 0.43393 0.4737 0.38491 0.0
C549 C 0.41444 0.46794 0.34948 0.0
C550 C 0.40042 0.48261 0.34494 0.0
C551 C 0.40572 0.50284 0.37372 0.0
C552 C 0.38925 0.51678 0.35996 0.0
C553 C 0.36619 0.51158 0.39445 0.0
C554 C 0.41065 0.5477 0.35122 0.0
C555 C 0.37457 0.50184 0.31811 0.0
C556 C 0.38056 0.48164 0.31087 0.0
C557 C 0.36908 0.4648 0.27479 0.0
C558 C 0.35218 0.46951 0.24431 0.0
C559 C 0.34753 0.49147 0.24912 0.0
C560 C 0.35818 0.50722 0.28748 0.0
H561 H 0.92993 0.44534 0.93973 0.0
H562 H 0.93091 0.39507 0.04812 0.0
H563 H 0.893 0.35328 0.0103 0.0
H564 H 0.85189 0.40307 0.91303 0.0
H565 H 0.85851 0.40922 0.85491 0.0
H566 H 0.88317 0.43492 0.8929 0.0
H567 H 0.92728 0.43498 0.85934 0.0
H568 H 0.90284 0.40936 0.82126 0.0
H569 H 0.92618 0.40313 0.85659 0.0
H570 H 0.85721 0.31653 0.95657 0.0
H571 H 0.82889 0.28929 0.89192 0.0
H572 H 0.85345 0.36466 0.81999 0.0
C573 C 0.92226 0.42563 0.95577 0.0
C574 C 0.9336 0.4236 -0.00307 0.0
C575 C 0.9224 0.39725 0.01683 0.0
C576 C 0.9009 0.37338 0.99551 0.0
C577 C 0.8907 0.3762 0.95446 0.0
C578 C 0.90106 0.40177 0.93497 0.0
C579 C 0.88822 0.39956 0.88967 0.0
C580 C 0.86932 0.41245 0.88753 0.0
C581 C 0.91258 0.41251 0.85467 0.0
C582 C 0.86945 0.36872 0.88612 0.0
C583 C 0.87074 0.35543 0.92386 0.0
C584 C 0.85589 0.32677 0.92703 0.0
C585 C 0.83984 0.31146 0.89036 0.0
C586 C 0.83923 0.32497 0.85116 0.0
C587 C 0.85372 0.35386 0.84959 0.0
H588 H 0.98975 0.53469 0.8387 0.0
H589 H 0.96102 0.54194 0.96672 0.0
H590 H 0.92048 0.54452 0.932 0.0
H591 H 0.97408 0.58275 0.78193 0.0
H592 H 0.96237 0.56339 0.73233 0.0
H593 H 0.98934 0.56259 0.76751 0.0
H594 H 0.95655 0.50946 0.77232 0.0
H595 H 0.92931 0.51011 0.73764 0.0
H596 H 0.91906 0.4933 0.79089 0.0
H597 H 0.88025 0.54248 0.88304 0.0
H598 H 0.84716 0.54067 0.82389 0.0
H599 H 0.90571 0.54001 0.72786 0.0
C600 C 0.97513 0.53712 0.85939 0.0
C601 C 0.97865 0.53813 0.90547 0.0
C602 C 0.95899 0.54134 0.93133 0.0
C603 C 0.93574 0.54267 0.91192 0.0
C604 C 0.93263 0.54124 0.86646 0.0
C605 C 0.95213 0.53904 0.84048 0.0
C606 C 0.94418 0.53833 0.79239 0.0
C607 C 0.96897 0.56325 0.76705 0.0
C608 C 0.93684 0.51119 0.77214 0.0
C609 C 0.91698 0.54007 0.79544 0.0
C610 C 0.91043 0.54143 0.83839 0.0
C611 C 0.88547 0.54187 0.84918 0.0
C612 C 0.86683 0.54101 0.81517 0.0
C613 C 0.87335 0.54009 0.77061 0.0
C614 C 0.89915 0.53995 0.76117 0.0
H615 H 0.47787 0.95571 0.45508 0.0
H616 H 0.42439 0.98776 0.49361 0.0
H617 H 0.37937 0.94399 0.47304 0.0
H618 H 0.43572 0.91938 0.36257 0.0
H619 H 0.44112 0.8912 0.37195 0.0
H620 H 0.46835 0.92486 0.39052 0.0
H621 H 0.46384 0.90477 0.4693 0.0
H622 H 0.43628 0.87109 0.45088 0.0
H623 H 0.42836 0.88601 0.49551 0.0
H624 H 0.34044 0.89756 0.44235 0.0
H625 H 0.31211 0.85395 0.40212 0.0
H626 H 0.39107 0.85153 0.3908 0.0
C627 C 0.45674 0.95366 0.45912 0.0
C628 C 0.45468 0.97526 0.47573 0.0
C629 C 0.42651 0.97152 0.4808 0.0
C630 C 0.40082 0.94667 0.46947 0.0
C631 C 0.40366 0.92561 0.45389 0.0
C632 C 0.43097 0.92892 0.44881 0.0
C633 C 0.42833 0.90353 0.43057 0.0
C634 C 0.44431 0.91014 0.38628 0.0
C635 C 0.43988 0.89058 0.46355 0.0
C636 C 0.39528 0.88556 0.42514 0.0
C637 C 0.38129 0.89852 0.43884 0.0
C638 C 0.35104 0.88692 0.4326 0.0
C639 C 0.33501 0.86203 0.41025 0.0
C640 C 0.34928 0.84903 0.3951 0.0
C641 C 0.3795 0.86053 0.40397 0.0
H642 H 0.54926 0.44235 0.94817 0.0
H643 H 0.48551 0.3958 0.05073 0.0
H644 H 0.47784 0.35281 0.02175 0.0
H645 H 0.51055 0.39744 0.86416 0.0
H646 H 0.54246 0.4019 0.83706 0.0
H647 H 0.54578 0.42902 0.86944 0.0
H648 H 0.58685 0.4292 0.91584 0.0
H649 H 0.5836 0.4019 0.88372 0.0
H650 H 0.57987 0.39784 0.9425 0.0
H651 H 0.47229 0.31459 0.97586 0.0
H652 H 0.46824 0.28479 0.91621 0.0
H653 H 0.53733 0.35609 0.84526 0.0
C654 C 0.53386 0.42317 0.96483 0.0
C655 C 0.51799 0.42255 0.00184 0.0
C656 C 0.49823 0.39692 0.02274 0.0
C657 C 0.49371 0.37235 0.00646 0.0
C658 C 0.50939 0.37369 0.96954 0.0
C659 C 0.52921 0.39849 0.94914 0.0
C660 C 0.54166 0.39426 0.90809 0.0
C661 C 0.53467 0.40636 0.8673 0.0
C662 C 0.57497 0.40652 0.91285 0.0
C663 C 0.52483 0.36315 0.90758 0.0
C664 C 0.50661 0.35164 0.94359 0.0
C665 C 0.48692 0.32334 0.94801 0.0
C666 C 0.48496 0.30648 0.91401 0.0
C667 C 0.50253 0.31795 0.8759 0.0
C668 C 0.52357 0.34658 0.87387 0.0
H669 H 0.09795 0.50687 0.36322 0.0
H670 H 0.05901 0.41951 0.38715 0.0
H671 H 0.10106 0.42205 0.35008 0.0
H672 H 0.12244 0.50858 0.25679 0.0
H673 H 0.1559 0.54177 0.26131 0.0
H674 H 0.12439 0.53341 0.2937 0.0
H675 H 0.15601 0.54473 0.36434 0.0
H676 H 0.18764 0.55293 0.33215 0.0
H677 H 0.17551 0.52752 0.37601 0.0
H678 H 0.14593 0.43364 0.30628 0.0
H679 H 0.18741 0.45263 0.25371 0.0
H680 H 0.19642 0.53202 0.25756 0.0
C681 C 0.09856 0.48839 0.36136 0.0
C682 C 0.07527 0.46301 0.37827 0.0
C683 C 0.07651 0.43913 0.37419 0.0
C684 C 0.10045 0.44044 0.35358 0.0
C685 C 0.12301 0.46578 0.33712 0.0
C686 C 0.12215 0.4893 0.34054 0.0
C687 C 0.14783 0.51352 0.31692 0.0
C688 C 0.13698 0.52497 0.27999 0.0
C689 C 0.16794 0.536 0.3493 0.0
C690 C 0.16291 0.49982 0.29879 0.0
C691 C 0.1486 0.47239 0.31147 0.0
C692 C 0.15757 0.45517 0.29667 0.0
C693 C 0.1812 0.46609 0.26711 0.0
C694 C 0.1953 0.4938 0.25259 0.0
C695 C 0.18638 0.51093 0.26926 0.0
H696 H 0.57959 0.08817 0.94829 0.0
H697 H 0.62909 0.05744 0.01433 0.0
H698 H 0.67576 0.09882 0.9886 0.0
H699 H 0.61925 0.11096 0.85545 0.0
H700 H 0.61699 0.14099 0.84695 0.0
H701 H 0.58896 0.112 0.87773 0.0
H702 H 0.59867 0.14361 0.94328 0.0
H703 H 0.62687 0.17263 0.91224 0.0
H704 H 0.63532 0.16401 0.96555 0.0
H705 H 0.71522 0.13762 0.94058 0.0
H706 H 0.74324 0.1714 0.8805 0.0
H707 H 0.66832 0.17878 0.8519 0.0
C708 C 0.60037 0.09077 0.95875 0.0
C709 C 0.60099 0.06997 0.98356 0.0
C710 C 0.62835 0.07353 0.99603 0.0
C711 C 0.65489 0.09691 0.98141 0.0
C712 C 0.65352 0.11671 0.95541 0.0
C713 C 0.62686 0.11411 0.94517 0.0
C714 C 0.63074 0.13654 0.91342 0.0
C715 C 0.61295 0.12439 0.87091 0.0
C716 C 0.62243 0.15533 0.93493 0.0
C717 C 0.66352 0.15142 0.90539 0.0
C718 C 0.67648 0.1399 0.92997 0.0
C719 C 0.70561 0.14755 0.92259 0.0
C720 C 0.72147 0.16682 0.88864 0.0
C721 C 0.70822 0.17841 0.86312 0.0
C722 C 0.67931 0.17119 0.8726 0.0
H723 H 0.50688 0.57985 0.44294 0.0
H724 H 0.53505 0.62303 0.56542 0.0
H725 H 0.54136 0.66476 0.52718 0.0
H726 H 0.55801 0.63604 0.37424 0.0
H727 H 0.53217 0.62609 0.32939 0.0
H728 H 0.5298 0.6004 0.36742 0.0
H729 H 0.47563 0.58394 0.38322 0.0
H730 H 0.47757 0.60963 0.34561 0.0
H731 H 0.4664 0.60804 0.40153 0.0
H732 H 0.54598 0.70263 0.47175 0.0
H733 H 0.54795 0.7311 0.40697 0.0
H734 H 0.515 0.6602 0.32497 0.0
C735 C 0.51483 0.59811 0.46188 0.0
C736 C 0.52095 0.59833 0.50704 0.0
C737 C 0.53029 0.62248 0.5307 0.0
C738 C 0.53399 0.64623 0.50922 0.0
C739 C 0.52805 0.64527 0.46427 0.0
C740 C 0.51862 0.62166 0.44117 0.0
C741 C 0.51373 0.62529 0.39335 0.0
C742 C 0.53468 0.62176 0.36442 0.0
C743 C 0.4814 0.60558 0.38018 0.0
C744 C 0.52166 0.65465 0.39276 0.0
C745 C 0.5301 0.66619 0.43361 0.0
C746 C 0.5393 0.69366 0.43971 0.0
C747 C 0.54027 0.70965 0.40291 0.0
C748 C 0.53215 0.69799 0.36085 0.0
C749 C 0.52208 0.66999 0.35642 0.0
H750 H 0.48968 0.06466 0.66685 0.0
H751 H 0.56134 0.12116 0.58101 0.0
H752 H 0.55843 0.15979 0.60844 0.0
H753 H 0.44794 0.09809 0.65734 0.0
H754 H 0.43696 0.09129 0.71407 0.0
H755 H 0.44369 0.06814 0.68555 0.0
H756 H 0.48187 0.074 0.74494 0.0
H757 H 0.47496 0.09684 0.7738 0.0
H758 H 0.51195 0.10804 0.75769 0.0
H759 H 0.54974 0.19299 0.65069 0.0
H760 H 0.53697 0.21663 0.70473 0.0
H761 H 0.47015 0.1376 0.75952 0.0
C762 C 0.50474 0.08513 0.65374 0.0
C763 C 0.52568 0.08985 0.6217 0.0
C764 C 0.54484 0.11699 0.60515 0.0
C765 C 0.54338 0.13906 0.6206 0.0
C766 C 0.5224 0.13365 0.65227 0.0
C767 C 0.5034 0.10726 0.6685 0.0
C768 C 0.48362 0.10679 0.70358 0.0
C769 C 0.45113 0.09009 0.68926 0.0
C770 C 0.4884 0.09578 0.74759 0.0
C771 C 0.49478 0.13707 0.70534 0.0
C772 C 0.51706 0.15239 0.67546 0.0
C773 C 0.532 0.18111 0.67372 0.0
C774 C 0.52454 0.1944 0.7042 0.0
C775 C 0.50244 0.17888 0.7358 0.0
C776 C 0.48689 0.14991 0.73523 0.0
H777 H 0.4771 0.54328 0.0089 0.0
H778 H 0.42316 0.46586 0.94365 0.0
H779 H 0.37832 0.4644 0.96674 0.0
H780 H 0.43536 0.52303 0.10113 0.0
H781 H 0.44114 0.55623 0.1119 0.0
H782 H 0.46797 0.55385 0.08144 0.0
H783 H 0.46305 0.58259 0.01781 0.0
H784 H 0.43567 0.58426 0.04854 0.0
H785 H 0.42733 0.57087 0.99397 0.0
H786 H 0.33984 0.46693 0.00842 0.0
H787 H 0.312 0.47212 0.06724 0.0
H788 H 0.39095 0.5472 0.10636 0.0
C789 C 0.45592 0.52663 -0.00227 0.0
C790 C 0.45365 0.50494 0.97368 0.0
C791 C 0.42543 0.4829 0.96148 0.0
C792 C 0.39984 0.48196 0.97439 0.0
C793 C 0.40282 0.50317 -0.00039 0.0
C794 C 0.43025 0.52514 0.01109 0.0
C795 C 0.42777 0.54292 0.04419 0.0
C796 C 0.444 0.54405 0.08716 0.0
C797 C 0.43912 0.57188 0.02496 0.0
C798 C 0.39473 0.52711 0.05066 0.0
C799 C 0.3806 0.50451 0.02408 0.0
C800 C 0.35052 0.48499 0.02837 0.0
C801 C 0.33479 0.48813 0.0616 0.0
C802 C 0.34923 0.51054 0.09003 0.0
C803 C 0.37927 0.53061 0.0836 0.0
H804 H 0.97959 0.40443 0.60156 0.0
H805 H 0.93458 0.43918 0.53276 0.0
H806 H 0.8878 0.40402 0.5667 0.0
H807 H 0.91963 0.33242 0.59928 0.0
H808 H 0.92638 0.32467 0.65434 0.0
H809 H 0.95635 0.35118 0.62194 0.0
H810 H 0.96872 0.38637 0.68264 0.0
H811 H 0.93912 0.35986 0.7154 0.0
H812 H 0.94022 0.39119 0.70209 0.0
H813 H 0.84583 0.36565 0.6083 0.0
H814 H 0.8132 0.33152 0.66427 0.0
H815 H 0.88494 0.32245 0.70976 0.0
C816 C 0.95983 0.40449 0.59356 0.0
C817 C 0.9608 0.42455 0.56429 0.0
C818 C 0.93454 0.4242 0.55516 0.0
C819 C 0.90771 0.40408 0.57396 0.0
C820 C 0.90739 0.3845 0.60237 0.0
C821 C 0.93281 0.38481 0.6129 0.0
C822 C 0.92669 0.36287 0.64753 0.0
C823 C 0.93262 0.34152 0.62969 0.0
C824 C 0.94475 0.37585 0.68939 0.0
C825 C 0.89401 0.35049 0.65504 0.0
C826 C 0.88322 0.36289 0.62788 0.0
C827 C 0.85395 0.35564 0.62961 0.0
C828 C 0.83546 0.33601 0.6612 0.0
C829 C 0.84642 0.32413 0.69108 0.0
C830 C 0.87589 0.33099 0.68702 0.0
H831 H 0.50344 0.88564 0.02335 0.0
H832 H 0.59482 0.95217 0.02091 0.0
H833 H 0.60725 0.92641 0.07413 0.0
H834 H 0.49957 0.87476 0.13269 0.0
H835 H 0.47524 0.83794 0.13286 0.0
H836 H 0.47469 0.85831 0.0874 0.0
H837 H 0.48503 0.83026 0.03371 0.0
H838 H 0.48538 0.80959 0.07919 0.0
H839 H 0.51651 0.82712 0.04282 0.0
H840 H 0.60771 0.89848 0.13805 0.0
H841 H 0.59656 0.86899 0.20486 0.0
H842 H 0.50513 0.81984 0.16495 0.0
C843 C 0.52627 0.89407 0.03227 0.0
C844 C 0.54833 0.92064 0.01748 0.0
C845 C 0.57778 0.93167 0.03152 0.0
C846 C 0.58498 0.91718 0.06168 0.0
C847 C 0.56248 0.89156 0.07731 0.0
C848 C 0.53375 0.87989 0.06261 0.0
C849 C 0.51304 0.8539 0.08868 0.0
C850 C 0.48925 0.8564 0.11175 0.0
C851 C 0.49918 0.82873 0.05934 0.0
C852 C 0.53437 0.85336 0.12142 0.0
C853 C 0.56285 0.87512 0.11409 0.0
C854 C 0.58571 0.88087 0.14331 0.0
C855 C 0.57923 0.86413 0.18115 0.0
C856 C 0.55021 0.84188 0.1892 0.0
C857 C 0.52769 0.83617 0.15856 0.0
H858 H 0.5656 0.47227 0.59436 0.0
H859 H 0.59964 0.53468 0.49086 0.0
H860 H 0.64994 0.54402 0.50508 0.0
H861 H 0.61929 0.50566 0.66776 0.0
H862 H 0.62081 0.47679 0.68897 0.0
H863 H 0.58742 0.47128 0.66451 0.0
H864 H 0.58742 0.43774 0.60995 0.0
H865 H 0.62086 0.44295 0.63439 0.0
H866 H 0.6192 0.4487 0.57625 0.0
H867 H 0.69726 0.55305 0.54208 0.0
H868 H 0.73564 0.55969 0.59565 0.0
H869 H 0.67022 0.4883 0.67031 0.0
C870 C 0.58354 0.48721 0.57366 0.0
C871 C 0.5789 0.50269 0.54139 0.0
C872 C 0.60278 0.52234 0.51526 0.0
C873 C 0.63139 0.52776 0.52321 0.0
C874 C 0.63546 0.51276 0.55651 0.0
C875 C 0.61194 0.49237 0.58056 0.0
C876 C 0.62215 0.48084 0.61709 0.0
C877 C 0.61182 0.48386 0.66221 0.0
C878 C 0.61181 0.45077 0.6089 0.0
C879 C 0.65518 0.49924 0.61205 0.0
C880 C 0.66258 0.51725 0.57653 0.0
C881 C 0.69173 0.53847 0.5691 0.0
C882 C 0.71351 0.54199 0.59958 0.0
C883 C 0.70602 0.52444 0.63717 0.0
C884 C 0.67671 0.50198 0.64183 0.0
H885 H 0.07998 0.61843 0.16225 0.0
H886 H 0.12771 0.59178 0.0861 0.0
H887 H 0.17418 0.62753 0.11905 0.0
H888 H 0.1367 0.69207 0.16152 0.0
H889 H 0.12955 0.69586 0.21749 0.0
H890 H 0.10024 0.67041 0.18388 0.0
H891 H 0.09032 0.63228 0.24154 0.0
H892 H 0.11922 0.65766 0.27547 0.0
H893 H 0.12023 0.62829 0.2591 0.0
H894 H 0.21521 0.66334 0.1656 0.0
H895 H 0.2458 0.69276 0.22634 0.0
H896 H 0.17167 0.69619 0.27183 0.0
C897 C 0.10011 0.62009 0.15213 0.0
C898 C 0.09984 0.60223 0.12097 0.0
C899 C 0.12701 0.60539 0.10903 0.0
C900 C 0.1537 0.62572 0.12766 0.0
C901 C 0.15307 0.64291 0.1582 0.0
C902 C 0.12693 0.64019 0.17052 0.0
C903 C 0.13187 0.65954 0.20689 0.0
C904 C 0.12413 0.68073 0.19151 0.0
C905 C 0.11439 0.64348 0.24817 0.0
C906 C 0.16473 0.67298 0.21402 0.0
C907 C 0.1767 0.66349 0.18514 0.0
C908 C 0.20619 0.67129 0.18791 0.0
C909 C 0.22352 0.68823 0.22227 0.0
C910 C 0.21117 0.69693 0.25357 0.0
C911 C 0.18176 0.69008 0.24808 0.0
loop_
_geom_bond_atom_site_label_1
_geom_bond_atom_site_label_2
_geom_bond_distance
_geom_bond_site_symmetry_2
_ccdc_geom_bond_type
Cu0 N1 1.999 1_454 S
Cu0 O6 1.974 1_454 S
Cu0 N11 1.985 . S
Cu0 O20 1.959 . S
N1 Cu0 1.999 1_656 S
N1 C3 1.263 . S
N1 C5 1.389 1_556 S
N2 C3 1.358 . S
N2 C4 1.400 . S
C3 N1 1.263 . S
C3 N2 1.358 . S
C3 H9 0.930 . S
C4 N2 1.400 . S
C4 C5 1.351 1_556 S
C4 H21 0.932 . S
C5 N1 1.389 1_554 S
C5 C4 1.351 1_554 S
C5 H10 0.930 . S
O6 Cu0 1.974 1_656 S
O6 C16 1.282 . S
C7 O8 1.261 1_554 S
C7 O20 1.251 . S
O8 C7 1.261 1_556 S
H9 C3 0.930 . S
H10 C5 0.930 . S
N11 Cu0 1.985 . S
N11 C13 1.335 . S
N11 C14 1.390 . S
N12 C13 1.345 . S
N12 C15 1.336 . S
C13 N11 1.335 . S
C13 N12 1.345 . S
C13 H18 0.930 . S
C14 N11 1.390 . S
C14 C15 1.346 . S
C14 H19 0.930 1_554 S
C15 N12 1.336 . S
C15 C14 1.346 . S
C15 H22 0.929 . S
C16 O6 1.282 . S
C16 O17 1.216 1_655 S
O17 C16 1.216 1_455 S
H18 C13 0.930 . S
H19 C14 0.930 1_556 S
O20 Cu0 1.959 . S
O20 C7 1.251 . S
H21 C4 0.932 . S
H22 C15 0.929 . S
Cu23 N24 1.999 . S
Cu23 O29 1.974 . S
Cu23 N34 1.985 1_565 S
Cu23 O43 1.959 1_565 S
N24 Cu23 1.999 . S
N24 C26 1.263 . S
N24 C28 1.389 . S
N25 C26 1.358 . S
N25 C27 1.400 . S
C26 N24 1.263 . S
C26 N25 1.358 . S
C26 H32 0.930 . S
C27 N25 1.400 . S
C27 C28 1.351 . S
C27 H44 0.930 . S
C28 N24 1.389 . S
C28 C27 1.351 . S
C28 H33 0.930 . S
O29 Cu23 1.974 . S
O29 C39 1.282 . S
C30 O31 1.261 . S
C30 O43 1.251 . S
O31 C30 1.261 . S
H32 C26 0.930 . S
H33 C28 0.930 . S
N34 Cu23 1.985 1_545 S
N34 C36 1.335 . S
N34 C37 1.390 . S
N35 C36 1.345 . S
N35 C38 1.336 . S
C36 N34 1.335 . S
C36 N35 1.345 . S
C36 H41 0.930 . S
C37 N34 1.390 . S
C37 C38 1.346 . S
C37 H42 0.930 . S
C38 N35 1.336 . S
C38 C37 1.346 . S
C38 H45 0.929 . S
C39 O29 1.282 . S
C39 O40 1.216 . S
O40 C39 1.216 . S
H41 C36 0.930 . S
H42 C37 0.930 . S
O43 Cu23 1.959 1_545 S
O43 C30 1.251 . S
H44 C27 0.930 . S
H45 C38 0.929 . S
Cu46 N47 1.999 1_554 S
Cu46 O52 1.974 1_554 S
Cu46 N57 1.985 . S
Cu46 O66 1.959 . S
N47 Cu46 1.999 1_556 S
N47 C49 1.263 . S
N47 C51 1.389 . S
N48 C49 1.358 . S
N48 C50 1.400 . S
C49 N47 1.263 . S
C49 N48 1.358 . S
C49 H55 0.930 . S
C50 N48 1.400 . S
C50 C51 1.351 . S
C50 H67 0.930 . S
C51 N47 1.389 . S
C51 C50 1.351 . S
C51 H56 0.930 . S
O52 Cu46 1.974 1_556 S
O52 C62 1.282 . S
C53 O54 1.261 . S
C53 O66 1.251 . S
O54 C53 1.261 . S
H55 C49 0.930 . S
H56 C51 0.930 . S
N57 Cu46 1.985 . S
N57 C59 1.335 . S
N57 C60 1.390 . S
N58 C59 1.345 . S
N58 C61 1.336 . S
C59 N57 1.335 . S
C59 N58 1.345 . S
C59 H64 0.930 . S
C60 N57 1.390 . S
C60 C61 1.346 . S
C60 H65 0.930 . S
C61 N58 1.336 . S
C61 C60 1.346 . S
C61 H68 0.929 . S
C62 O52 1.282 . S
C62 O63 1.216 1_556 S
O63 C62 1.216 1_554 S
H64 C59 0.930 . S
H65 C60 0.930 . S
O66 Cu46 1.959 . S
O66 C53 1.251 . S
H67 C50 0.930 . S
H68 C61 0.929 . S
Cu69 N70 1.999 1_655 S
Cu69 O75 1.974 1_655 S
Cu69 N80 1.985 . S
Cu69 O89 1.959 . S
N70 Cu69 1.999 1_455 S
N70 C72 1.263 . S
N70 C74 1.389 1_455 S
N71 C72 1.358 . S
N71 C73 1.400 . S
C72 N70 1.263 . S
C72 N71 1.358 . S
C72 H78 0.930 . S
C73 N71 1.400 . S
C73 C74 1.351 1_455 S
C73 H90 0.930 . S
C74 N70 1.389 1_655 S
C74 C73 1.351 1_655 S
C74 H79 0.930 . S
O75 Cu69 1.974 1_455 S
O75 C85 1.282 . S
C76 O77 1.261 . S
C76 O89 1.251 . S
O77 C76 1.261 . S
H78 C72 0.930 . S
H79 C74 0.930 . S
N80 Cu69 1.985 . S
N80 C82 1.335 . S
N80 C83 1.390 . S
N81 C82 1.345 . S
N81 C84 1.336 . S
C82 N80 1.335 . S
C82 N81 1.345 . S
C82 H87 0.930 . S
C83 N80 1.390 . S
C83 C84 1.346 . S
C83 H88 0.930 1_655 S
C84 N81 1.336 . S
C84 C83 1.346 . S
C84 H91 0.929 . S
C85 O75 1.282 . S
C85 O86 1.216 . S
O86 C85 1.216 . S
H87 C82 0.930 . S
H88 C83 0.930 1_455 S
O89 Cu69 1.959 . S
O89 C76 1.251 . S
H90 C73 0.930 . S
H91 C84 0.929 . S
Cu92 N93 1.999 . S
Cu92 O98 1.974 . S
Cu92 N103 1.985 1_545 S
Cu92 O112 1.959 1_545 S
N93 Cu92 1.999 . S
N93 C95 1.263 1_554 S
N93 C97 1.389 . S
N94 C95 1.358 . S
N94 C96 1.400 1_556 S
C95 N93 1.263 1_556 S
C95 N94 1.358 . S
C95 H101 0.930 . S
C96 N94 1.400 1_554 S
C96 C97 1.351 . S
C96 H113 0.930 . S
C97 N93 1.389 . S
C97 C96 1.351 . S
C97 H102 0.930 . S
O98 Cu92 1.974 . S
O98 C108 1.282 1_554 S
C99 O100 1.261 . S
C99 O112 1.251 . S
O100 C99 1.261 . S
H101 C95 0.930 . S
H102 C97 0.930 . S
N103 Cu92 1.985 1_565 S
N103 C105 1.335 . S
N103 C106 1.390 . S
N104 C105 1.345 . S
N104 C107 1.336 . S
C105 N103 1.335 . S
C105 N104 1.345 . S
C105 H110 0.930 . S
C106 N103 1.390 . S
C106 C107 1.346 . S
C106 H111 0.930 1_565 S
C107 N104 1.336 . S
C107 C106 1.346 . S
C107 H114 0.929 . S
C108 O98 1.282 1_556 S
C108 O109 1.216 . S
O109 C108 1.216 . S
H110 C105 0.930 . S
H111 C106 0.930 1_545 S
O112 Cu92 1.959 1_565 S
O112 C99 1.251 . S
H113 C96 0.930 . S
H114 C107 0.929 . S
Cu115 N116 1.999 . S
Cu115 O121 1.974 . S
Cu115 N126 1.985 . S
Cu115 O135 1.959 . S
N116 Cu115 1.999 . S
N116 C118 1.263 . S
N116 C120 1.389 . S
N117 C118 1.358 . S
N117 C119 1.400 . S
C118 N116 1.263 . S
C118 N117 1.358 . S
C118 H124 0.930 . S
C119 N117 1.400 . S
C119 C120 1.351 . S
C119 H136 0.930 . S
C120 N116 1.389 . S
C120 C119 1.351 . S
C120 H125 0.930 . S
O121 Cu115 1.974 . S
O121 C131 1.282 . S
C122 O123 1.261 . S
C122 O135 1.251 . S
O123 C122 1.261 . S
H124 C118 0.930 . S
H125 C120 0.930 . S
N126 Cu115 1.985 . S
N126 C128 1.335 . S
N126 C129 1.390 . S
N127 C128 1.345 . S
N127 C130 1.336 . S
C128 N126 1.335 . S
C128 N127 1.345 . S
C128 H133 0.930 . S
C129 N126 1.390 . S
C129 C130 1.346 . S
C129 H134 0.930 . S
C130 N127 1.336 . S
C130 C129 1.346 . S
C130 H137 0.929 . S
C131 O121 1.282 . S
C131 O132 1.216 . S
O132 C131 1.216 . S
H133 C128 0.930 . S
H134 C129 0.930 . S
O135 Cu115 1.959 . S
O135 C122 1.251 . S
H136 C119 0.930 . S
H137 C130 0.929 . S
H138 C146 0.930 . S
H139 C149 0.930 . S
H140 C151 0.930 . S
H141 C152 0.970 . S
H142 C152 0.970 . S
H143 C154 0.930 . S
H144 C156 0.930 . S
H145 C158 0.930 . S
C146 H138 0.930 . S
C146 C147 1.382 . S
C146 C148 1.426 . S
C147 C146 1.382 . S
C147 C151 1.389 . S
C148 C146 1.426 . S
C148 C149 1.375 . S
C148 C152 1.532 . S
C149 H139 0.930 . S
C149 C148 1.375 . S
C149 C150 1.416 . S
C150 C149 1.416 . S
C150 C151 1.371 . S
C151 H140 0.930 . S
C151 C147 1.389 . S
C151 C150 1.371 . S
C152 H141 0.970 . S
C152 H142 0.970 . S
C152 C148 1.532 . S
C152 C153 1.499 . S
C153 C152 1.499 . S
C153 C154 1.370 . S
C153 C158 1.415 . S
C154 H143 0.930 . S
C154 C153 1.370 . S
C154 C155 1.407 . S
C155 C154 1.407 . S
C155 C156 1.365 . S
C156 H144 0.930 . S
C156 C155 1.365 . S
C156 C157 1.393 . S
C157 C156 1.393 . S
C157 C158 1.387 . S
C158 H145 0.930 . S
C158 C153 1.415 . S
C158 C157 1.387 . S
H159 C167 0.930 . S
H160 C170 0.930 . S
H161 C172 0.930 . S
H162 C173 0.970 . S
H163 C173 0.970 . S
H164 C175 0.930 . S
H165 C177 0.930 . S
H166 C179 0.930 . S
C167 H159 0.930 . S
C167 C168 1.382 . S
C167 C169 1.426 . S
C168 C167 1.382 . S
C168 C172 1.389 . S
C169 C167 1.426 . S
C169 C170 1.375 . S
C169 C173 1.532 . S
C170 H160 0.930 . S
C170 C169 1.375 . S
C170 C171 1.416 . S
C171 C170 1.416 . S
C171 C172 1.371 . S
C172 H161 0.930 . S
C172 C168 1.389 . S
C172 C171 1.371 . S
C173 H162 0.970 . S
C173 H163 0.970 . S
C173 C169 1.532 . S
C173 C174 1.499 . S
C174 C173 1.499 . S
C174 C175 1.370 . S
C174 C179 1.415 . S
C175 H164 0.930 . S
C175 C174 1.370 . S
C175 C176 1.407 . S
C176 C175 1.407 . S
C176 C177 1.365 . S
C177 H165 0.930 . S
C177 C176 1.365 . S
C177 C178 1.393 . S
C178 C177 1.393 . S
C178 C179 1.387 . S
C179 H166 0.930 . S
C179 C174 1.415 . S
C179 C178 1.387 . S
H180 C188 0.930 . S
H181 C191 0.930 . S
H182 C193 0.930 . S
H183 C194 0.970 . S
H184 C194 0.970 . S
H185 C196 0.930 . S
H186 C198 0.930 . S
H187 C200 0.930 . S
C188 H180 0.930 . S
C188 C189 1.382 . S
C188 C190 1.426 . S
C189 C188 1.382 . S
C189 C193 1.389 . S
C190 C188 1.426 . S
C190 C191 1.375 . S
C190 C194 1.532 . S
C191 H181 0.930 . S
C191 C190 1.375 . S
C191 C192 1.416 . S
C192 C191 1.416 . S
C192 C193 1.371 . S
C193 H182 0.930 . S
C193 C189 1.389 . S
C193 C192 1.371 . S
C194 H183 0.970 . S
C194 H184 0.970 . S
C194 C190 1.532 . S
C194 C195 1.499 . S
C195 C194 1.499 . S
C195 C196 1.370 . S
C195 C200 1.415 . S
C196 H185 0.930 . S
C196 C195 1.370 . S
C196 C197 1.407 . S
C197 C196 1.407 . S
C197 C198 1.365 . S
C198 H186 0.930 . S
C198 C197 1.365 . S
C198 C199 1.393 . S
C199 C198 1.393 . S
C199 C200 1.387 . S
C200 H187 0.930 . S
C200 C195 1.415 . S
C200 C199 1.387 . S
H201 C209 0.930 . S
H202 C212 0.930 . S
H203 C214 0.930 . S
H204 C215 0.970 . S
H205 C215 0.970 . S
H206 C217 0.930 . S
H207 C219 0.930 . S
H208 C221 0.930 . S
C209 H201 0.930 . S
C209 C210 1.382 . S
C209 C211 1.426 . S
C210 C209 1.382 . S
C210 C214 1.389 . S
C211 C209 1.426 . S
C211 C212 1.375 . S
C211 C215 1.532 . S
C212 H202 0.930 . S
C212 C211 1.375 . S
C212 C213 1.416 . S
C213 C212 1.416 . S
C213 C214 1.371 . S
C214 H203 0.930 . S
C214 C210 1.389 . S
C214 C213 1.371 . S
C215 H204 0.970 . S
C215 H205 0.970 . S
C215 C211 1.532 . S
C215 C216 1.499 . S
C216 C215 1.499 . S
C216 C217 1.370 . S
C216 C221 1.415 . S
C217 H206 0.930 . S
C217 C216 1.370 . S
C217 C218 1.407 . S
C218 C217 1.407 . S
C218 C219 1.365 . S
C219 H207 0.930 . S
C219 C218 1.365 . S
C219 C220 1.393 . S
C220 C219 1.393 . S
C220 C221 1.387 . S
C221 H208 0.930 . S
C221 C216 1.415 . S
C221 C220 1.387 . S
H222 C230 0.930 . S
H223 C233 0.930 . S
H224 C235 0.930 . S
H225 C236 0.970 . S
H226 C236 0.970 . S
H227 C238 0.930 . S
H228 C240 0.930 . S
H229 C242 0.930 . S
C230 H222 0.930 . S
C230 C231 1.382 . S
C230 C232 1.426 . S
C231 C230 1.382 . S
C231 C235 1.389 . S
C232 C230 1.426 . S
C232 C233 1.375 . S
C232 C236 1.532 . S
C233 H223 0.930 . S
C233 C232 1.375 . S
C233 C234 1.416 . S
C234 C233 1.416 . S
C234 C235 1.371 . S
C235 H224 0.930 . S
C235 C231 1.389 . S
C235 C234 1.371 . S
C236 H225 0.970 . S
C236 H226 0.970 . S
C236 C232 1.532 . S
C236 C237 1.499 . S
C237 C236 1.499 . S
C237 C238 1.370 . S
C237 C242 1.415 . S
C238 H227 0.930 . S
C238 C237 1.370 . S
C238 C239 1.407 . S
C239 C238 1.407 . S
C239 C240 1.365 . S
C240 H228 0.930 . S
C240 C239 1.365 . S
C240 C241 1.393 . S
C241 C240 1.393 . S
C241 C242 1.387 . S
C242 H229 0.930 . S
C242 C237 1.415 . S
C242 C241 1.387 . S
H243 C251 0.930 . S
H244 C254 0.930 . S
H245 C256 0.930 . S
H246 C257 0.970 . S
H247 C257 0.970 . S
H248 C259 0.930 . S
H249 C261 0.930 . S
H250 C263 0.930 . S
C251 H243 0.930 . S
C251 C252 1.382 . S
C251 C253 1.426 . S
C252 C251 1.382 . S
C252 C256 1.389 . S
C253 C251 1.426 . S
C253 C254 1.375 . S
C253 C257 1.532 . S
C254 H244 0.930 . S
C254 C253 1.375 . S
C254 C255 1.416 . S
C255 C254 1.416 . S
C255 C256 1.371 . S
C256 H245 0.930 . S
C256 C252 1.389 . S
C256 C255 1.371 . S
C257 H246 0.970 . S
C257 H247 0.970 . S
C257 C253 1.532 . S
C257 C258 1.499 . S
C258 C257 1.499 . S
C258 C259 1.370 . S
C258 C263 1.415 . S
C259 H248 0.930 . S
C259 C258 1.370 . S
C259 C260 1.407 . S
C260 C259 1.407 . S
C260 C261 1.365 . S
C261 H249 0.930 . S
C261 C260 1.365 . S
C261 C262 1.393 . S
C262 C261 1.393 . S
C262 C263 1.387 . S
C263 H250 0.930 . S
C263 C258 1.415 . S
C263 C262 1.387 . S
H264 C276 0.930 . S
H265 C278 0.930 . S
H266 C279 0.930 . S
H267 C283 0.959 . S
H268 C283 0.959 . S
H269 C283 0.961 . S
H270 C284 0.960 . S
H271 C284 0.961 . S
H272 C284 0.959 . S
H273 C287 0.929 . S
H274 C288 0.931 . S
H275 C290 0.930 . S
C276 H264 0.930 . S
C276 C277 1.399 . S
C276 C281 1.399 . S
C277 C276 1.399 . S
C277 C278 1.376 . S
C278 H265 0.930 . S
C278 C277 1.376 . S
C278 C279 1.388 . S
C279 H266 0.930 . S
C279 C278 1.388 . S
C279 C280 1.390 . S
C280 C279 1.390 . S
C280 C281 1.394 . S
C280 C286 1.465 . S
C281 C276 1.399 . S
C281 C280 1.394 . S
C281 C282 1.516 . S
C282 C281 1.516 . S
C282 C283 1.502 . S
C282 C284 1.561 . S
C282 C285 1.526 . S
C283 H267 0.959 . S
C283 H268 0.959 . S
C283 H269 0.961 . S
C283 C282 1.502 . S
C284 H270 0.960 . S
C284 H271 0.961 . S
C284 H272 0.959 . S
C284 C282 1.561 . S
C285 C282 1.526 . S
C285 C286 1.396 . S
C285 C290 1.390 . S
C286 C280 1.465 . S
C286 C285 1.396 . S
C286 C287 1.399 . S
C287 H273 0.929 . S
C287 C286 1.399 . S
C287 C288 1.385 . S
C288 H274 0.931 . S
C288 C287 1.385 . S
C288 C289 1.389 . S
C289 C288 1.389 . S
C289 C290 1.387 . S
C290 H275 0.930 . S
C290 C285 1.390 . S
C290 C289 1.387 . S
H291 C303 0.930 . S
H292 C305 0.930 . S
H293 C306 0.930 . S
H294 C310 0.959 . S
H295 C310 0.959 . S
H296 C310 0.961 . S
H297 C311 0.960 . S
H298 C311 0.961 . S
H299 C311 0.959 . S
H300 C314 0.929 . S
H301 C315 0.931 . S
H302 C317 0.930 . S
C303 H291 0.930 . S
C303 C304 1.399 . S
C303 C308 1.399 . S
C304 C303 1.399 . S
C304 C305 1.376 . S
C305 H292 0.930 . S
C305 C304 1.376 . S
C305 C306 1.388 . S
C306 H293 0.930 . S
C306 C305 1.388 . S
C306 C307 1.390 . S
C307 C306 1.390 . S
C307 C308 1.394 . S
C307 C313 1.465 . S
C308 C303 1.399 . S
C308 C307 1.394 . S
C308 C309 1.516 . S
C309 C308 1.516 . S
C309 C310 1.502 . S
C309 C311 1.561 . S
C309 C312 1.526 . S
C310 H294 0.959 . S
C310 H295 0.959 . S
C310 H296 0.961 . S
C310 C309 1.502 . S
C311 H297 0.960 . S
C311 H298 0.961 . S
C311 H299 0.959 . S
C311 C309 1.561 . S
C312 C309 1.526 . S
C312 C313 1.396 . S
C312 C317 1.390 . S
C313 C307 1.465 . S
C313 C312 1.396 . S
C313 C314 1.399 . S
C314 H300 0.929 . S
C314 C313 1.399 . S
C314 C315 1.385 . S
C315 H301 0.931 . S
C315 C314 1.385 . S
C315 C316 1.389 . S
C316 C315 1.389 . S
C316 C317 1.387 . S
C317 H302 0.930 . S
C317 C312 1.390 . S
C317 C316 1.387 . S
H318 C330 0.930 . S
H319 C332 0.930 . S
H320 C333 0.930 . S
H321 C337 0.959 . S
H322 C337 0.959 . S
H323 C337 0.961 . S
H324 C338 0.960 . S
H325 C338 0.961 . S
H326 C338 0.959 . S
H327 C341 0.929 . S
H328 C342 0.931 . S
H329 C344 0.930 . S
C330 H318 0.930 . S
C330 C331 1.399 . S
C330 C335 1.399 . S
C331 C330 1.399 . S
C331 C332 1.376 . S
C332 H319 0.930 . S
C332 C331 1.376 . S
C332 C333 1.388 . S
C333 H320 0.930 . S
C333 C332 1.388 . S
C333 C334 1.390 . S
C334 C333 1.390 . S
C334 C335 1.394 . S
C334 C340 1.465 . S
C335 C330 1.399 . S
C335 C334 1.394 . S
C335 C336 1.516 . S
C336 C335 1.516 . S
C336 C337 1.502 . S
C336 C338 1.561 . S
C336 C339 1.526 . S
C337 H321 0.959 . S
C337 H322 0.959 . S
C337 H323 0.961 . S
C337 C336 1.502 . S
C338 H324 0.960 . S
C338 H325 0.961 . S
C338 H326 0.959 . S
C338 C336 1.561 . S
C339 C336 1.526 . S
C339 C340 1.396 . S
C339 C344 1.390 . S
C340 C334 1.465 . S
C340 C339 1.396 . S
C340 C341 1.399 . S
C341 H327 0.929 . S
C341 C340 1.399 . S
C341 C342 1.385 . S
C342 H328 0.931 . S
C342 C341 1.385 . S
C342 C343 1.389 . S
C343 C342 1.389 . S
C343 C344 1.387 . S
C344 H329 0.930 . S
C344 C339 1.390 . S
C344 C343 1.387 . S
H345 C357 0.930 . S
H346 C359 0.930 . S
H347 C360 0.930 . S
H348 C364 0.959 . S
H349 C364 0.959 . S
H350 C364 0.961 . S
H351 C365 0.960 . S
H352 C365 0.961 . S
H353 C365 0.959 . S
H354 C368 0.929 . S
H355 C369 0.931 . S
H356 C371 0.930 . S
C357 H345 0.930 . S
C357 C358 1.399 . S
C357 C362 1.399 . S
C358 C357 1.399 . S
C358 C359 1.376 . S
C359 H346 0.930 . S
C359 C358 1.376 . S
C359 C360 1.388 . S
C360 H347 0.930 . S
C360 C359 1.388 . S
C360 C361 1.390 . S
C361 C360 1.390 . S
C361 C362 1.394 . S
C361 C367 1.465 . S
C362 C357 1.399 . S
C362 C361 1.394 . S
C362 C363 1.516 . S
C363 C362 1.516 . S
C363 C364 1.502 . S
C363 C365 1.561 . S
C363 C366 1.526 . S
C364 H348 0.959 . S
C364 H349 0.959 . S
C364 H350 0.961 . S
C364 C363 1.502 . S
C365 H351 0.960 . S
C365 H352 0.961 . S
C365 H353 0.959 . S
C365 C363 1.561 . S
C366 C363 1.526 . S
C366 C367 1.396 . S
C366 C371 1.390 . S
C367 C361 1.465 . S
C367 C366 1.396 . S
C367 C368 1.399 . S
C368 H354 0.929 . S
C368 C367 1.399 . S
C368 C369 1.385 . S
C369 H355 0.931 . S
C369 C368 1.385 . S
C369 C370 1.389 . S
C370 C369 1.389 . S
C370 C371 1.387 . S
C371 H356 0.930 . S
C371 C366 1.390 . S
C371 C370 1.387 . S
H372 C384 0.930 . S
H373 C386 0.930 . S
H374 C387 0.930 . S
H375 C391 0.959 . S
H376 C391 0.959 . S
H377 C391 0.961 . S
H378 C392 0.960 . S
H379 C392 0.961 . S
H380 C392 0.959 . S
H381 C395 0.929 . S
H382 C396 0.931 . S
H383 C398 0.930 . S
C384 H372 0.930 . S
C384 C385 1.399 . S
C384 C389 1.399 . S
C385 C384 1.399 . S
C385 C386 1.376 . S
C386 H373 0.930 . S
C386 C385 1.376 . S
C386 C387 1.388 . S
C387 H374 0.930 . S
C387 C386 1.388 . S
C387 C388 1.390 . S
C388 C387 1.390 . S
C388 C389 1.394 . S
C388 C394 1.465 . S
C389 C384 1.399 . S
C389 C388 1.394 . S
C389 C390 1.516 . S
C390 C389 1.516 . S
C390 C391 1.502 . S
C390 C392 1.561 . S
C390 C393 1.526 . S
C391 H375 0.959 . S
C391 H376 0.959 . S
C391 H377 0.961 . S
C391 C390 1.502 . S
C392 H378 0.960 . S
C392 H379 0.961 . S
C392 H380 0.959 . S
C392 C390 1.561 . S
C393 C390 1.526 . S
C393 C394 1.396 . S
C393 C398 1.390 . S
C394 C388 1.465 . S
C394 C393 1.396 . S
C394 C395 1.399 . S
C395 H381 0.929 . S
C395 C394 1.399 . S
C395 C396 1.385 . S
C396 H382 0.931 . S
C396 C395 1.385 . S
C396 C397 1.389 . S
C397 C396 1.389 . S
C397 C398 1.387 . S
C398 H383 0.930 . S
C398 C393 1.390 . S
C398 C397 1.387 . S
H399 C411 0.930 . S
H400 C413 0.930 . S
H401 C414 0.930 . S
H402 C418 0.959 . S
H403 C418 0.959 . S
H404 C418 0.961 . S
H405 C419 0.960 . S
H406 C419 0.961 . S
H407 C419 0.959 . S
H408 C422 0.929 . S
H409 C423 0.931 . S
H410 C425 0.930 . S
C411 H399 0.930 . S
C411 C412 1.399 . S
C411 C416 1.399 . S
C412 C411 1.399 . S
C412 C413 1.376 . S
C413 H400 0.930 . S
C413 C412 1.376 . S
C413 C414 1.388 . S
C414 H401 0.930 . S
C414 C413 1.388 . S
C414 C415 1.390 . S
C415 C414 1.390 . S
C415 C416 1.394 . S
C415 C421 1.465 . S
C416 C411 1.399 . S
C416 C415 1.394 . S
C416 C417 1.516 . S
C417 C416 1.516 . S
C417 C418 1.502 . S
C417 C419 1.561 . S
C417 C420 1.526 . S
C418 H402 0.959 . S
C418 H403 0.959 . S
C418 H404 0.961 . S
C418 C417 1.502 . S
C419 H405 0.960 . S
C419 H406 0.961 . S
C419 H407 0.959 . S
C419 C417 1.561 . S
C420 C417 1.526 . S
C420 C421 1.396 . S
C420 C425 1.390 . S
C421 C415 1.465 . S
C421 C420 1.396 . S
C421 C422 1.399 . S
C422 H408 0.929 . S
C422 C421 1.399 . S
C422 C423 1.385 . S
C423 H409 0.931 . S
C423 C422 1.385 . S
C423 C424 1.389 . S
C424 C423 1.389 . S
C424 C425 1.387 . S
C425 H410 0.930 . S
C425 C420 1.390 . S
C425 C424 1.387 . S
H426 C438 0.930 . S
H427 C440 0.930 . S
H428 C441 0.930 . S
H429 C445 0.959 . S
H430 C445 0.959 . S
H431 C445 0.961 . S
H432 C446 0.960 . S
H433 C446 0.961 . S
H434 C446 0.959 . S
H435 C449 0.929 . S
H436 C450 0.931 . S
H437 C452 0.930 . S
C438 H426 0.930 . S
C438 C439 1.399 . S
C438 C443 1.399 . S
C439 C438 1.399 . S
C439 C440 1.376 . S
C440 H427 0.930 . S
C440 C439 1.376 . S
C440 C441 1.388 . S
C441 H428 0.930 . S
C441 C440 1.388 . S
C441 C442 1.390 . S
C442 C441 1.390 . S
C442 C443 1.394 . S
C442 C448 1.465 . S
C443 C438 1.399 . S
C443 C442 1.394 . S
C443 C444 1.516 . S
C444 C443 1.516 . S
C444 C445 1.502 . S
C444 C446 1.561 . S
C444 C447 1.526 . S
C445 H429 0.959 . S
C445 H430 0.959 . S
C445 H431 0.961 . S
C445 C444 1.502 . S
C446 H432 0.960 . S
C446 H433 0.961 . S
C446 H434 0.959 . S
C446 C444 1.561 . S
C447 C444 1.526 . S
C447 C448 1.396 . S
C447 C452 1.390 . S
C448 C442 1.465 . S
C448 C447 1.396 . S
C448 C449 1.399 . S
C449 H435 0.929 . S
C449 C448 1.399 . S
C449 C450 1.385 . S
C450 H436 0.931 . S
C450 C449 1.385 . S
C450 C451 1.389 . S
C451 C450 1.389 . S
C451 C452 1.387 . S
C452 H437 0.930 . S
C452 C447 1.390 . S
C452 C451 1.387 . S
H453 C465 0.930 . S
H454 C467 0.930 . S
H455 C468 0.930 . S
H456 C472 0.959 . S
H457 C472 0.959 . S
H458 C472 0.961 . S
H459 C473 0.960 . S
H460 C473 0.961 . S
H461 C473 0.959 . S
H462 C476 0.929 . S
H463 C477 0.931 . S
H464 C479 0.930 . S
C465 H453 0.930 . S
C465 C466 1.399 . S
C465 C470 1.399 . S
C466 C465 1.399 . S
C466 C467 1.376 . S
C467 H454 0.930 . S
C467 C466 1.376 . S
C467 C468 1.388 . S
C468 H455 0.930 . S
C468 C467 1.388 . S
C468 C469 1.390 . S
C469 C468 1.390 . S
C469 C470 1.394 . S
C469 C475 1.465 . S
C470 C465 1.399 . S
C470 C469 1.394 . S
C470 C471 1.516 . S
C471 C470 1.516 . S
C471 C472 1.502 . S
C471 C473 1.561 . S
C471 C474 1.526 . S
C472 H456 0.959 . S
C472 H457 0.959 . S
C472 H458 0.961 . S
C472 C471 1.502 . S
C473 H459 0.960 . S
C473 H460 0.961 . S
C473 H461 0.959 . S
C473 C471 1.561 . S
C474 C471 1.526 . S
C474 C475 1.396 . S
C474 C479 1.390 . S
C475 C469 1.465 . S
C475 C474 1.396 . S
C475 C476 1.399 . S
C476 H462 0.929 . S
C476 C475 1.399 . S
C476 C477 1.385 . S
C477 H463 0.931 . S
C477 C476 1.385 . S
C477 C478 1.389 . S
C478 C477 1.389 . S
C478 C479 1.387 . S
C479 H464 0.930 . S
C479 C474 1.390 . S
C479 C478 1.387 . S
H480 C492 0.930 . S
H481 C494 0.930 . S
H482 C495 0.930 . S
H483 C499 0.959 . S
H484 C499 0.959 . S
H485 C499 0.961 . S
H486 C500 0.960 . S
H487 C500 0.961 . S
H488 C500 0.959 . S
H489 C503 0.929 . S
H490 C504 0.931 . S
H491 C506 0.930 . S
C492 H480 0.930 . S
C492 C493 1.399 . S
C492 C497 1.399 . S
C493 C492 1.399 . S
C493 C494 1.376 . S
C494 H481 0.930 . S
C494 C493 1.376 . S
C494 C495 1.388 . S
C495 H482 0.930 . S
C495 C494 1.388 . S
C495 C496 1.390 . S
C496 C495 1.390 . S
C496 C497 1.394 . S
C496 C502 1.465 . S
C497 C492 1.399 . S
C497 C496 1.394 . S
C497 C498 1.516 . S
C498 C497 1.516 . S
C498 C499 1.502 . S
C498 C500 1.561 . S
C498 C501 1.526 . S
C499 H483 0.959 . S
C499 H484 0.959 . S
C499 H485 0.961 . S
C499 C498 1.502 . S
C500 H486 0.960 . S
C500 H487 0.961 . S
C500 H488 0.959 . S
C500 C498 1.561 . S
C501 C498 1.526 . S
C501 C502 1.396 . S
C501 C506 1.390 . S
C502 C496 1.465 . S
C502 C501 1.396 . S
C502 C503 1.399 . S
C503 H489 0.929 . S
C503 C502 1.399 . S
C503 C504 1.385 . S
C504 H490 0.931 . S
C504 C503 1.385 . S
C504 C505 1.389 . S
C505 C504 1.389 . S
C505 C506 1.387 . S
C506 H491 0.930 . S
C506 C501 1.390 . S
C506 C505 1.387 . S
H507 C519 0.930 . S
H508 C521 0.930 . S
H509 C522 0.930 . S
H510 C526 0.959 . S
H511 C526 0.959 . S
H512 C526 0.961 1_554 S
H513 C527 0.960 . S
H514 C527 0.961 . S
H515 C527 0.959 . S
H516 C530 0.929 . S
H517 C531 0.931 . S
H518 C533 0.930 . S
C519 H507 0.930 . S
C519 C520 1.399 . S
C519 C524 1.399 . S
C520 C519 1.399 . S
C520 C521 1.376 . S
C521 H508 0.930 . S
C521 C520 1.376 . S
C521 C522 1.388 . S
C522 H509 0.930 . S
C522 C521 1.388 . S
C522 C523 1.390 . S
C523 C522 1.390 . S
C523 C524 1.394 . S
C523 C529 1.465 . S
C524 C519 1.399 . S
C524 C523 1.394 . S
C524 C525 1.516 . S
C525 C524 1.516 . S
C525 C526 1.502 . S
C525 C527 1.561 . S
C525 C528 1.526 . S
C526 H510 0.959 . S
C526 H511 0.959 . S
C526 H512 0.961 1_556 S
C526 C525 1.502 . S
C527 H513 0.960 . S
C527 H514 0.961 . S
C527 H515 0.959 . S
C527 C525 1.561 . S
C528 C525 1.526 . S
C528 C529 1.396 . S
C528 C533 1.390 . S
C529 C523 1.465 . S
C529 C528 1.396 . S
C529 C530 1.399 . S
C530 H516 0.929 . S
C530 C529 1.399 . S
C530 C531 1.385 . S
C531 H517 0.931 . S
C531 C530 1.385 . S
C531 C532 1.389 . S
C532 C531 1.389 . S
C532 C533 1.387 . S
C533 H518 0.930 . S
C533 C528 1.390 . S
C533 C532 1.387 . S
H534 C546 0.930 . S
H535 C548 0.930 . S
H536 C549 0.930 . S
H537 C553 0.959 . S
H538 C553 0.959 . S
H539 C553 0.961 . S
H540 C554 0.960 . S
H541 C554 0.961 . S
H542 C554 0.959 . S
H543 C557 0.929 . S
H544 C558 0.931 . S
H545 C560 0.930 . S
C546 H534 0.930 . S
C546 C547 1.399 . S
C546 C551 1.399 . S
C547 C546 1.399 . S
C547 C548 1.376 . S
C548 H535 0.930 . S
C548 C547 1.376 . S
C548 C549 1.388 . S
C549 H536 0.930 . S
C549 C548 1.388 . S
C549 C550 1.390 . S
C550 C549 1.390 . S
C550 C551 1.394 . S
C550 C556 1.465 . S
C551 C546 1.399 . S
C551 C550 1.394 . S
C551 C552 1.516 . S
C552 C551 1.516 . S
C552 C553 1.502 . S
C552 C554 1.561 . S
C552 C555 1.526 . S
C553 H537 0.959 . S
C553 H538 0.959 . S
C553 H539 0.961 . S
C553 C552 1.502 . S
C554 H540 0.960 . S
C554 H541 0.961 . S
C554 H542 0.959 . S
C554 C552 1.561 . S
C555 C552 1.526 . S
C555 C556 1.396 . S
C555 C560 1.390 . S
C556 C550 1.465 . S
C556 C555 1.396 . S
C556 C557 1.399 . S
C557 H543 0.929 . S
C557 C556 1.399 . S
C557 C558 1.385 . S
C558 H544 0.931 . S
C558 C557 1.385 . S
C558 C559 1.389 . S
C559 C558 1.389 . S
C559 C560 1.387 . S
C560 H545 0.930 . S
C560 C555 1.390 . S
C560 C559 1.387 . S
H561 C573 0.930 . S
H562 C575 0.930 . S
H563 C576 0.930 . S
H564 C580 0.959 . S
H565 C580 0.959 . S
H566 C580 0.961 . S
H567 C581 0.960 . S
H568 C581 0.961 . S
H569 C581 0.959 . S
H570 C584 0.929 . S
H571 C585 0.931 . S
H572 C587 0.930 . S
C573 H561 0.930 . S
C573 C574 1.399 . S
C573 C578 1.399 . S
C574 C573 1.399 . S
C574 C575 1.376 . S
C575 H562 0.930 . S
C575 C574 1.376 . S
C575 C576 1.388 . S
C576 H563 0.930 . S
C576 C575 1.388 . S
C576 C577 1.390 . S
C577 C576 1.390 . S
C577 C578 1.394 . S
C577 C583 1.465 . S
C578 C573 1.399 . S
C578 C577 1.394 . S
C578 C579 1.516 . S
C579 C578 1.516 . S
C579 C580 1.502 . S
C579 C581 1.561 . S
C579 C582 1.526 . S
C580 H564 0.959 . S
C580 H565 0.959 . S
C580 H566 0.961 . S
C580 C579 1.502 . S
C581 H567 0.960 . S
C581 H568 0.961 . S
C581 H569 0.959 . S
C581 C579 1.561 . S
C582 C579 1.526 . S
C582 C583 1.396 . S
C582 C587 1.390 . S
C583 C577 1.465 . S
C583 C582 1.396 . S
C583 C584 1.399 . S
C584 H570 0.929 . S
C584 C583 1.399 . S
C584 C585 1.385 . S
C585 H571 0.931 . S
C585 C584 1.385 . S
C585 C586 1.389 . S
C586 C585 1.389 . S
C586 C587 1.387 . S
C587 H572 0.930 . S
C587 C582 1.390 . S
C587 C586 1.387 . S
H588 C600 0.930 . S
H589 C602 0.930 . S
H590 C603 0.930 . S
H591 C607 0.959 . S
H592 C607 0.959 . S
H593 C607 0.961 . S
H594 C608 0.960 . S
H595 C608 0.961 . S
H596 C608 0.959 . S
H597 C611 0.929 . S
H598 C612 0.931 . S
H599 C614 0.930 . S
C600 H588 0.930 . S
C600 C601 1.399 . S
C600 C605 1.399 . S
C601 C600 1.399 . S
C601 C602 1.376 . S
C602 H589 0.930 . S
C602 C601 1.376 . S
C602 C603 1.388 . S
C603 H590 0.930 . S
C603 C602 1.388 . S
C603 C604 1.390 . S
C604 C603 1.390 . S
C604 C605 1.394 . S
C604 C610 1.465 . S
C605 C600 1.399 . S
C605 C604 1.394 . S
C605 C606 1.516 . S
C606 C605 1.516 . S
C606 C607 1.502 . S
C606 C608 1.561 . S
C606 C609 1.526 . S
C607 H591 0.959 . S
C607 H592 0.959 . S
C607 H593 0.961 . S
C607 C606 1.502 . S
C608 H594 0.960 . S
C608 H595 0.961 . S
C608 H596 0.959 . S
C608 C606 1.561 . S
C609 C606 1.526 . S
C609 C610 1.396 . S
C609 C614 1.390 . S
C610 C604 1.465 . S
C610 C609 1.396 . S
C610 C611 1.399 . S
C611 H597 0.929 . S
C611 C610 1.399 . S
C611 C612 1.385 . S
C612 H598 0.931 . S
C612 C611 1.385 . S
C612 C613 1.389 . S
C613 C612 1.389 . S
C613 C614 1.387 . S
C614 H599 0.930 . S
C614 C609 1.390 . S
C614 C613 1.387 . S
H615 C627 0.930 . S
H616 C629 0.930 . S
H617 C630 0.930 . S
H618 C634 0.959 . S
H619 C634 0.959 . S
H620 C634 0.961 . S
H621 C635 0.960 . S
H622 C635 0.961 . S
H623 C635 0.959 . S
H624 C638 0.929 . S
H625 C639 0.931 . S
H626 C641 0.930 . S
C627 H615 0.930 . S
C627 C628 1.399 . S
C627 C632 1.399 . S
C628 C627 1.399 . S
C628 C629 1.376 . S
C629 H616 0.930 . S
C629 C628 1.376 . S
C629 C630 1.388 . S
C630 H617 0.930 . S
C630 C629 1.388 . S
C630 C631 1.390 . S
C631 C630 1.390 . S
C631 C632 1.394 . S
C631 C637 1.465 . S
C632 C627 1.399 . S
C632 C631 1.394 . S
C632 C633 1.516 . S
C633 C632 1.516 . S
C633 C634 1.502 . S
C633 C635 1.561 . S
C633 C636 1.526 . S
C634 H618 0.959 . S
C634 H619 0.959 . S
C634 H620 0.961 . S
C634 C633 1.502 . S
C635 H621 0.960 . S
C635 H622 0.961 . S
C635 H623 0.959 . S
C635 C633 1.561 . S
C636 C633 1.526 . S
C636 C637 1.396 . S
C636 C641 1.390 . S
C637 C631 1.465 . S
C637 C636 1.396 . S
C637 C638 1.399 . S
C638 H624 0.929 . S
C638 C637 1.399 . S
C638 C639 1.385 . S
C639 H625 0.931 . S
C639 C638 1.385 . S
C639 C640 1.389 . S
C640 C639 1.389 . S
C640 C641 1.387 . S
C641 H626 0.930 . S
C641 C636 1.390 . S
C641 C640 1.387 . S
H642 C654 0.930 . S
H643 C656 0.930 . S
H644 C657 0.930 . S
H645 C661 0.959 . S
H646 C661 0.959 . S
H647 C661 0.961 . S
H648 C662 0.960 . S
H649 C662 0.961 . S
H650 C662 0.959 . S
H651 C665 0.929 . S
H652 C666 0.931 . S
H653 C668 0.930 . S
C654 H642 0.930 . S
C654 C655 1.399 . S
C654 C659 1.399 . S
C655 C654 1.399 . S
C655 C656 1.376 . S
C656 H643 0.930 . S
C656 C655 1.376 . S
C656 C657 1.388 . S
C657 H644 0.930 . S
C657 C656 1.388 . S
C657 C658 1.390 . S
C658 C657 1.390 . S
C658 C659 1.394 . S
C658 C664 1.465 . S
C659 C654 1.399 . S
C659 C658 1.394 . S
C659 C660 1.516 . S
C660 C659 1.516 . S
C660 C661 1.502 . S
C660 C662 1.561 . S
C660 C663 1.526 . S
C661 H645 0.959 . S
C661 H646 0.959 . S
C661 H647 0.961 . S
C661 C660 1.502 . S
C662 H648 0.960 . S
C662 H649 0.961 . S
C662 H650 0.959 . S
C662 C660 1.561 . S
C663 C660 1.526 . S
C663 C664 1.396 . S
C663 C668 1.390 . S
C664 C658 1.465 . S
C664 C663 1.396 . S
C664 C665 1.399 . S
C665 H651 0.929 . S
C665 C664 1.399 . S
C665 C666 1.385 . S
C666 H652 0.931 . S
C666 C665 1.385 . S
C666 C667 1.389 . S
C667 C666 1.389 . S
C667 C668 1.387 . S
C668 H653 0.930 . S
C668 C663 1.390 . S
C668 C667 1.387 . S
H669 C681 0.930 . S
H670 C683 0.930 . S
H671 C684 0.930 . S
H672 C688 0.959 . S
H673 C688 0.959 . S
H674 C688 0.961 . S
H675 C689 0.960 . S
H676 C689 0.961 . S
H677 C689 0.959 . S
H678 C692 0.929 . S
H679 C693 0.931 . S
H680 C695 0.930 . S
C681 H669 0.930 . S
C681 C682 1.399 . S
C681 C686 1.399 . S
C682 C681 1.399 . S
C682 C683 1.376 . S
C683 H670 0.930 . S
C683 C682 1.376 . S
C683 C684 1.388 . S
C684 H671 0.930 . S
C684 C683 1.388 . S
C684 C685 1.390 . S
C685 C684 1.390 . S
C685 C686 1.394 . S
C685 C691 1.465 . S
C686 C681 1.399 . S
C686 C685 1.394 . S
C686 C687 1.516 . S
C687 C686 1.516 . S
C687 C688 1.502 . S
C687 C689 1.561 . S
C687 C690 1.526 . S
C688 H672 0.959 . S
C688 H673 0.959 . S
C688 H674 0.961 . S
C688 C687 1.502 . S
C689 H675 0.960 . S
C689 H676 0.961 . S
C689 H677 0.959 . S
C689 C687 1.561 . S
C690 C687 1.526 . S
C690 C691 1.396 . S
C690 C695 1.390 . S
C691 C685 1.465 . S
C691 C690 1.396 . S
C691 C692 1.399 . S
C692 H678 0.929 . S
C692 C691 1.399 . S
C692 C693 1.385 . S
C693 H679 0.931 . S
C693 C692 1.385 . S
C693 C694 1.389 . S
C694 C693 1.389 . S
C694 C695 1.387 . S
C695 H680 0.930 . S
C695 C690 1.390 . S
C695 C694 1.387 . S
H696 C708 0.930 . S
H697 C710 0.930 . S
H698 C711 0.930 . S
H699 C715 0.959 . S
H700 C715 0.959 . S
H701 C715 0.961 . S
H702 C716 0.960 . S
H703 C716 0.961 . S
H704 C716 0.959 . S
H705 C719 0.929 . S
H706 C720 0.931 . S
H707 C722 0.930 . S
C708 H696 0.930 . S
C708 C709 1.399 . S
C708 C713 1.399 . S
C709 C708 1.399 . S
C709 C710 1.376 . S
C710 H697 0.930 . S
C710 C709 1.376 . S
C710 C711 1.388 . S
C711 H698 0.930 . S
C711 C710 1.388 . S
C711 C712 1.390 . S
C712 C711 1.390 . S
C712 C713 1.394 . S
C712 C718 1.465 . S
C713 C708 1.399 . S
C713 C712 1.394 . S
C713 C714 1.516 . S
C714 C713 1.516 . S
C714 C715 1.502 . S
C714 C716 1.561 . S
C714 C717 1.526 . S
C715 H699 0.959 . S
C715 H700 0.959 . S
C715 H701 0.961 . S
C715 C714 1.502 . S
C716 H702 0.960 . S
C716 H703 0.961 . S
C716 H704 0.959 . S
C716 C714 1.561 . S
C717 C714 1.526 . S
C717 C718 1.396 . S
C717 C722 1.390 . S
C718 C712 1.465 . S
C718 C717 1.396 . S
C718 C719 1.399 . S
C719 H705 0.929 . S
C719 C718 1.399 . S
C719 C720 1.385 . S
C720 H706 0.931 . S
C720 C719 1.385 . S
C720 C721 1.389 . S
C721 C720 1.389 . S
C721 C722 1.387 . S
C722 H707 0.930 . S
C722 C717 1.390 . S
C722 C721 1.387 . S
H723 C735 0.930 . S
H724 C737 0.930 . S
H725 C738 0.930 . S
H726 C742 0.959 . S
H727 C742 0.959 . S
H728 C742 0.961 . S
H729 C743 0.960 . S
H730 C743 0.961 . S
H731 C743 0.959 . S
H732 C746 0.929 . S
H733 C747 0.931 . S
H734 C749 0.930 . S
C735 H723 0.930 . S
C735 C736 1.399 . S
C735 C740 1.399 . S
C736 C735 1.399 . S
C736 C737 1.376 . S
C737 H724 0.930 . S
C737 C736 1.376 . S
C737 C738 1.388 . S
C738 H725 0.930 . S
C738 C737 1.388 . S
C738 C739 1.390 . S
C739 C738 1.390 . S
C739 C740 1.394 . S
C739 C745 1.465 . S
C740 C735 1.399 . S
C740 C739 1.394 . S
C740 C741 1.516 . S
C741 C740 1.516 . S
C741 C742 1.502 . S
C741 C743 1.561 . S
C741 C744 1.526 . S
C742 H726 0.959 . S
C742 H727 0.959 . S
C742 H728 0.961 . S
C742 C741 1.502 . S
C743 H729 0.960 . S
C743 H730 0.961 . S
C743 H731 0.959 . S
C743 C741 1.561 . S
C744 C741 1.526 . S
C744 C745 1.396 . S
C744 C749 1.390 . S
C745 C739 1.465 . S
C745 C744 1.396 . S
C745 C746 1.399 . S
C746 H732 0.929 . S
C746 C745 1.399 . S
C746 C747 1.385 . S
C747 H733 0.931 . S
C747 C746 1.385 . S
C747 C748 1.389 . S
C748 C747 1.389 . S
C748 C749 1.387 . S
C749 H734 0.930 . S
C749 C744 1.390 . S
C749 C748 1.387 . S
H750 C762 0.930 . S
H751 C764 0.930 . S
H752 C765 0.930 . S
H753 C769 0.959 . S
H754 C769 0.959 . S
H755 C769 0.961 . S
H756 C770 0.960 . S
H757 C770 0.961 . S
H758 C770 0.959 . S
H759 C773 0.929 . S
H760 C774 0.931 . S
H761 C776 0.930 . S
C762 H750 0.930 . S
C762 C763 1.399 . S
C762 C767 1.399 . S
C763 C762 1.399 . S
C763 C764 1.376 . S
C764 H751 0.930 . S
C764 C763 1.376 . S
C764 C765 1.388 . S
C765 H752 0.930 . S
C765 C764 1.388 . S
C765 C766 1.390 . S
C766 C765 1.390 . S
C766 C767 1.394 . S
C766 C772 1.465 . S
C767 C762 1.399 . S
C767 C766 1.394 . S
C767 C768 1.516 . S
C768 C767 1.516 . S
C768 C769 1.502 . S
C768 C770 1.561 . S
C768 C771 1.526 . S
C769 H753 0.959 . S
C769 H754 0.959 . S
C769 H755 0.961 . S
C769 C768 1.502 . S
C770 H756 0.960 . S
C770 H757 0.961 . S
C770 H758 0.959 . S
C770 C768 1.561 . S
C771 C768 1.526 . S
C771 C772 1.396 . S
C771 C776 1.390 . S
C772 C766 1.465 . S
C772 C771 1.396 . S
C772 C773 1.399 . S
C773 H759 0.929 . S
C773 C772 1.399 . S
C773 C774 1.385 . S
C774 H760 0.931 . S
C774 C773 1.385 . S
C774 C775 1.389 . S
C775 C774 1.389 . S
C775 C776 1.387 . S
C776 H761 0.930 . S
C776 C771 1.390 . S
C776 C775 1.387 . S
H777 C789 0.930 . S
H778 C791 0.930 . S
H779 C792 0.930 . S
H780 C796 0.959 . S
H781 C796 0.959 . S
H782 C796 0.961 . S
H783 C797 0.960 . S
H784 C797 0.961 . S
H785 C797 0.959 . S
H786 C800 0.929 . S
H787 C801 0.931 . S
H788 C803 0.930 . S
C789 H777 0.930 . S
C789 C790 1.399 . S
C789 C794 1.399 . S
C790 C789 1.399 . S
C790 C791 1.376 . S
C791 H778 0.930 . S
C791 C790 1.376 . S
C791 C792 1.388 . S
C792 H779 0.930 . S
C792 C791 1.388 . S
C792 C793 1.390 . S
C793 C792 1.390 . S
C793 C794 1.394 . S
C793 C799 1.465 . S
C794 C789 1.399 . S
C794 C793 1.394 . S
C794 C795 1.516 . S
C795 C794 1.516 . S
C795 C796 1.502 . S
C795 C797 1.561 . S
C795 C798 1.526 . S
C796 H780 0.959 . S
C796 H781 0.959 . S
C796 H782 0.961 . S
C796 C795 1.502 . S
C797 H783 0.960 . S
C797 H784 0.961 . S
C797 H785 0.959 . S
C797 C795 1.561 . S
C798 C795 1.526 . S
C798 C799 1.396 . S
C798 C803 1.390 . S
C799 C793 1.465 . S
C799 C798 1.396 . S
C799 C800 1.399 . S
C800 H786 0.929 . S
C800 C799 1.399 . S
C800 C801 1.385 . S
C801 H787 0.931 . S
C801 C800 1.385 . S
C801 C802 1.389 . S
C802 C801 1.389 . S
C802 C803 1.387 . S
C803 H788 0.930 . S
C803 C798 1.390 . S
C803 C802 1.387 . S
H804 C816 0.930 . S
H805 C818 0.930 . S
H806 C819 0.930 . S
H807 C823 0.959 . S
H808 C823 0.959 . S
H809 C823 0.961 . S
H810 C824 0.960 . S
H811 C824 0.961 . S
H812 C824 0.959 . S
H813 C827 0.929 . S
H814 C828 0.931 . S
H815 C830 0.930 . S
C816 H804 0.930 . S
C816 C817 1.399 . S
C816 C821 1.399 . S
C817 C816 1.399 . S
C817 C818 1.376 . S
C818 H805 0.930 . S
C818 C817 1.376 . S
C818 C819 1.388 . S
C819 H806 0.930 . S
C819 C818 1.388 . S
C819 C820 1.390 . S
C820 C819 1.390 . S
C820 C821 1.394 . S
C820 C826 1.465 . S
C821 C816 1.399 . S
C821 C820 1.394 . S
C821 C822 1.516 . S
C822 C821 1.516 . S
C822 C823 1.502 . S
C822 C824 1.561 . S
C822 C825 1.526 . S
C823 H807 0.959 . S
C823 H808 0.959 . S
C823 H809 0.961 . S
C823 C822 1.502 . S
C824 H810 0.960 . S
C824 H811 0.961 . S
C824 H812 0.959 . S
C824 C822 1.561 . S
C825 C822 1.526 . S
C825 C826 1.396 . S
C825 C830 1.390 . S
C826 C820 1.465 . S
C826 C825 1.396 . S
C826 C827 1.399 . S
C827 H813 0.929 . S
C827 C826 1.399 . S
C827 C828 1.385 . S
C828 H814 0.931 . S
C828 C827 1.385 . S
C828 C829 1.389 . S
C829 C828 1.389 . S
C829 C830 1.387 . S
C830 H815 0.930 . S
C830 C825 1.390 . S
C830 C829 1.387 . S
H831 C843 0.930 . S
H832 C845 0.930 . S
H833 C846 0.930 . S
H834 C850 0.959 . S
H835 C850 0.959 . S
H836 C850 0.961 . S
H837 C851 0.960 . S
H838 C851 0.961 . S
H839 C851 0.959 . S
H840 C854 0.929 . S
H841 C855 0.931 . S
H842 C857 0.930 . S
C843 H831 0.930 . S
C843 C844 1.399 . S
C843 C848 1.399 . S
C844 C843 1.399 . S
C844 C845 1.376 . S
C845 H832 0.930 . S
C845 C844 1.376 . S
C845 C846 1.388 . S
C846 H833 0.930 . S
C846 C845 1.388 . S
C846 C847 1.390 . S
C847 C846 1.390 . S
C847 C848 1.394 . S
C847 C853 1.465 . S
C848 C843 1.399 . S
C848 C847 1.394 . S
C848 C849 1.516 . S
C849 C848 1.516 . S
C849 C850 1.502 . S
C849 C851 1.561 . S
C849 C852 1.526 . S
C850 H834 0.959 . S
C850 H835 0.959 . S
C850 H836 0.961 . S
C850 C849 1.502 . S
C851 H837 0.960 . S
C851 H838 0.961 . S
C851 H839 0.959 . S
C851 C849 1.561 . S
C852 C849 1.526 . S
C852 C853 1.396 . S
C852 C857 1.390 . S
C853 C847 1.465 . S
C853 C852 1.396 . S
C853 C854 1.399 . S
C854 H840 0.929 . S
C854 C853 1.399 . S
C854 C855 1.385 . S
C855 H841 0.931 . S
C855 C854 1.385 . S
C855 C856 1.389 . S
C856 C855 1.389 . S
C856 C857 1.387 . S
C857 H842 0.930 . S
C857 C852 1.390 . S
C857 C856 1.387 . S
H858 C870 0.930 . S
H859 C872 0.930 . S
H860 C873 0.930 . S
H861 C877 0.959 . S
H862 C877 0.959 . S
H863 C877 0.961 . S
H864 C878 0.960 . S
H865 C878 0.961 . S
H866 C878 0.959 . S
H867 C881 0.929 . S
H868 C882 0.931 . S
H869 C884 0.930 . S
C870 H858 0.930 . S
C870 C871 1.399 . S
C870 C875 1.399 . S
C871 C870 1.399 . S
C871 C872 1.376 . S
C872 H859 0.930 . S
C872 C871 1.376 . S
C872 C873 1.388 . S
C873 H860 0.930 . S
C873 C872 1.388 . S
C873 C874 1.390 . S
C874 C873 1.390 . S
C874 C875 1.394 . S
C874 C880 1.465 . S
C875 C870 1.399 . S
C875 C874 1.394 . S
C875 C876 1.516 . S
C876 C875 1.516 . S
C876 C877 1.502 . S
C876 C878 1.561 . S
C876 C879 1.526 . S
C877 H861 0.959 . S
C877 H862 0.959 . S
C877 H863 0.961 . S
C877 C876 1.502 . S
C878 H864 0.960 . S
C878 H865 0.961 . S
C878 H866 0.959 . S
C878 C876 1.561 . S
C879 C876 1.526 . S
C879 C880 1.396 . S
C879 C884 1.390 . S
C880 C874 1.465 . S
C880 C879 1.396 . S
C880 C881 1.399 . S
C881 H867 0.929 . S
C881 C880 1.399 . S
C881 C882 1.385 . S
C882 H868 0.931 . S
C882 C881 1.385 . S
C882 C883 1.389 . S
C883 C882 1.389 . S
C883 C884 1.387 . S
C884 H869 0.930 . S
C884 C879 1.390 . S
C884 C883 1.387 . S
H885 C897 0.930 . S
H886 C899 0.930 . S
H887 C900 0.930 . S
H888 C904 0.959 . S
H889 C904 0.959 . S
H890 C904 0.961 . S
H891 C905 0.960 . S
H892 C905 0.961 . S
H893 C905 0.959 . S
H894 C908 0.929 . S
H895 C909 0.931 . S
H896 C911 0.930 . S
C897 H885 0.930 . S
C897 C898 1.399 . S
C897 C902 1.399 . S
C898 C897 1.399 . S
C898 C899 1.376 . S
C899 H886 0.930 . S
C899 C898 1.376 . S
C899 C900 1.388 . S
C900 H887 0.930 . S
C900 C899 1.388 . S
C900 C901 1.390 . S
C901 C900 1.390 . S
C901 C902 1.394 . S
C901 C907 1.465 . S
C902 C897 1.399 . S
C902 C901 1.394 . S
C902 C903 1.516 . S
C903 C902 1.516 . S
C903 C904 1.502 . S
C903 C905 1.561 . S
C903 C906 1.526 . S
C904 H888 0.959 . S
C904 H889 0.959 . S
C904 H890 0.961 . S
C904 C903 1.502 . S
C905 H891 0.960 . S
C905 H892 0.961 . S
C905 H893 0.959 . S
C905 C903 1.561 . S
C906 C903 1.526 . S
C906 C907 1.396 . S
C906 C911 1.390 . S
C907 C901 1.465 . S
C907 C906 1.396 . S
C907 C908 1.399 . S
C908 H894 0.929 . S
C908 C907 1.399 . S
C908 C909 1.385 . S
C909 H895 0.931 . S
C909 C908 1.385 . S
C909 C910 1.389 . S
C910 C909 1.389 . S
C910 C911 1.387 . S
C911 H896 0.930 . S
C911 C906 1.390 . S
C911 C910 1.387 . S
C277 C7 1.748 . S
C289 C147 1.568 . S
C304 C30 1.535 . S
C316 C168 1.363 . S
C343 C189 1.433 . S
C331 N58 1.613 . S
C370 C218 1.405 . S
C358 N81 1.417 . S
C397 C231 1.467 . S
C385 C99 1.632 . S
C424 C255 1.420 . S
C412 N127 1.385 . S
C439 N25 1.605 . S
C451 C199 1.443 . S
C466 C62 1.526 . S
C478 C213 1.444 . S
C505 C241 1.613 . S
C493 C85 1.671 . S
C532 C260 1.358 . S
C520 N94 1.466 . S
C547 C131 1.650 . S
C559 C157 1.600 . S
C586 C178 1.377 . S
C574 N2 1.348 . S
C613 C220 1.672 . S
C601 C16 1.727 . S
C628 C39 1.517 . S
C640 C234 1.363 . S
C667 C252 1.609 . S
C655 N48 1.623 . S
C682 N71 1.404 . S
C694 C150 1.363 . S
C709 C108 1.668 . S
C721 C171 1.562 . S
C736 N117 1.475 . S
C748 C192 1.333 . S
C763 N35 1.625 . S
C775 C262 1.589 . S
C802 C155 1.466 . S
C790 C53 1.560 . S
C817 C76 1.766 . S
C829 C176 1.522 . S
C844 N104 1.435 . S
C856 C197 1.310 . S
C871 C122 1.641 . S
C883 C210 1.600 . S
C898 N12 1.403 . S
C910 C239 1.308 . S
