# Generated by pormake.
# Topology zzz, (3,6)-cn, num edge types: 1
# Building blocks:
#     Node 0, Type 0, BuildingBlock: BETDIP_clean_linker_0, # of connection points: 3
#     Node 1, Type 0, BuildingBlock: BETDIP_clean_linker_0, # of connection points: 3
#     Node 2, Type 0, BuildingBlock: BETDIP_clean_linker_0, # of connection points: 3
#     Node 3, Type 0, BuildingBlock: BETDIP_clean_linker_0, # of connection points: 3
#     Node 4, Type 0, BuildingBlock: BETDIP_clean_linker_0, # of connection points: 3
#     Node 5, Type 0, BuildingBlock: BETDIP_clean_linker_0, # of connection points: 3
#     Node 6, Type 0, BuildingBlock: BETDIP_clean_linker_0, # of connection points: 3
#     Node 7, Type 0, BuildingBlock: BETDIP_clean_linker_0, # of connection points: 3
#     Node 8, Type 1, BuildingBlock: CUWYAW_clean_sbu_0, # of connection points: 6
#     Node 9, Type 1, BuildingBlock: CUWYAW_clean_sbu_0, # of connection points: 6
#     Node 10, Type 1, BuildingBlock: CUWYAW_clean_sbu_0, # of connection points: 6
#     Node 11, Type 1, BuildingBlock: CUWYAW_clean_sbu_0, # of connection points: 6
#     Edge 12, Type (0, 1), BuildingBlock: XIVTED_clean_linker_0, # of connection points: 2
#     Edge 13, Type (0, 1), BuildingBlock: XIVTED_clean_linker_0, # of connection points: 2
#     Edge 14, Type (0, 1), BuildingBlock: XIVTED_clean_linker_0, # of connection points: 2
#     Edge 15, Type (0, 1), BuildingBlock: XIVTED_clean_linker_0, # of connection points: 2
#     Edge 16, Type (0, 1), BuildingBlock: XIVTED_clean_linker_0, # of connection points: 2
#     Edge 17, Type (0, 1), BuildingBlock: XIVTED_clean_linker_0, # of connection points: 2
#     Edge 18, Type (0, 1), BuildingBlock: XIVTED_clean_linker_0, # of connection points: 2
#     Edge 19, Type (0, 1), BuildingBlock: XIVTED_clean_linker_0, # of connection points: 2
#     Edge 20, Type (0, 1), BuildingBlock: XIVTED_clean_linker_0, # of connection points: 2
#     Edge 21, Type (0, 1), BuildingBlock: XIVTED_clean_linker_0, # of connection points: 2
#     Edge 22, Type (0, 1), BuildingBlock: XIVTED_clean_linker_0, # of connection points: 2
#     Edge 23, Type (0, 1), BuildingBlock: XIVTED_clean_linker_0, # of connection points: 2
#     Edge 24, Type (0, 1), BuildingBlock: XIVTED_clean_linker_0, # of connection points: 2
#     Edge 25, Type (0, 1), BuildingBlock: XIVTED_clean_linker_0, # of connection points: 2
#     Edge 26, Type (0, 1), BuildingBlock: XIVTED_clean_linker_0, # of connection points: 2
#     Edge 27, Type (0, 1), BuildingBlock: XIVTED_clean_linker_0, # of connection points: 2
#     Edge 28, Type (0, 1), BuildingBlock: XIVTED_clean_linker_0, # of connection points: 2
#     Edge 29, Type (0, 1), BuildingBlock: XIVTED_clean_linker_0, # of connection points: 2
#     Edge 30, Type (0, 1), BuildingBlock: XIVTED_clean_linker_0, # of connection points: 2
#     Edge 31, Type (0, 1), BuildingBlock: XIVTED_clean_linker_0, # of connection points: 2
#     Edge 32, Type (0, 1), BuildingBlock: XIVTED_clean_linker_0, # of connection points: 2
#     Edge 33, Type (0, 1), BuildingBlock: XIVTED_clean_linker_0, # of connection points: 2
#     Edge 34, Type (0, 1), BuildingBlock: XIVTED_clean_linker_0, # of connection points: 2
#     Edge 35, Type (0, 1), BuildingBlock: XIVTED_clean_linker_0, # of connection points: 2
# Relax obj value: 0.262
# Max RMSD: 0.163
# Mean RMSD: 0.135
data_MOF--net-zzz--node1-CUWYAW_clean_sbu_0--node2-BETDIP_clean_linker_0--edge1-XIVTED_clean_linker_0
_symmetry_space_group_name_H-M    P1
_symmetry_Int_Tables_number       1
_symmetry_cell_setting            triclinic
loop_
_symmetry_equiv_pos_as_xyz
'x, y, z'
_cell_length_a     52.160211
_cell_length_b     52.181624
_cell_length_c     14.112364
_cell_angle_alpha  89.794227
_cell_angle_beta   89.985137
_cell_angle_gamma 90.102454
loop_
_atom_site_label
_atom_site_type_symbol
_atom_site_fract_x
_atom_site_fract_y
_atom_site_fract_z
_atom_type_partial_charge
H0 H 0.75514 0.53974 0.43451 0.0
H1 H 0.73354 0.47631 0.25614 0.0
H2 H 0.80369 0.47362 0.41518 0.0
H3 H 0.7302 0.52403 0.16596 0.0
C4 C 0.71395 0.52531 0.21409 0.0
C5 C 0.75857 0.52052 0.40875 0.0
C6 C 0.78122 0.50741 0.4349 0.0
C7 C 0.74099 0.50905 0.34508 0.0
C8 C 0.74643 0.4847 0.30769 0.0
C9 C 0.76884 0.47162 0.33337 0.0
C10 C 0.78563 0.48292 0.39868 0.0
N11 N 0.71873 0.52241 0.31309 0.0
H12 H 0.98934 0.76928 0.42622 0.0
H13 H 0.05403 0.75091 0.24831 0.0
H14 H 0.05535 0.81861 0.41998 0.0
H15 H 1.00844 0.74741 0.15414 0.0
C16 C 1.00621 0.73071 0.19986 0.0
C17 C 1.00868 0.77325 0.40238 0.0
C18 C 0.0215 0.79565 0.43354 0.0
C19 C 0.02068 0.75664 0.33647 0.0
C20 C 0.0452 0.76291 0.30163 0.0
C21 C 0.05795 0.78504 0.33224 0.0
C22 C 0.0462 0.80075 0.39979 0.0
N23 N 1.00773 0.73462 0.29981 0.0
H24 H 0.75935 0.03071 0.39904 0.0
H25 H 0.77819 0.96222 0.24342 0.0
H26 H 0.70759 0.9668 0.39906 0.0
H27 H 0.82098 0.97639 0.31786 0.0
C28 C 0.81887 0.9942 0.27844 0.0
C29 C 0.75501 1.01116 0.37916 0.0
C30 C 0.73181 0.99968 0.40918 0.0
C31 C 0.77258 0.99714 0.32299 0.0
C32 C 0.76587 0.9723 0.29254 0.0
C33 C 0.7424 0.96123 0.31918 0.0
C34 C 0.72617 0.97473 0.38045 0.0
N35 N 0.79588 1.00868 0.29058 0.0
H36 H 0.52847 0.77293 0.40708 0.0
H37 H 0.46617 0.79362 0.22118 0.0
H38 H 0.46098 0.72584 0.39373 0.0
H39 H 0.51409 0.79478 0.13294 0.0
C40 C 0.51569 0.81156 0.17813 0.0
C41 C 0.50924 0.76961 0.38089 0.0
C42 C 0.49538 0.74772 0.41098 0.0
C43 C 0.49847 0.78654 0.31313 0.0
C44 C 0.47406 0.78121 0.27552 0.0
C45 C 0.46024 0.75953 0.30494 0.0
C46 C 0.47086 0.7434 0.37419 0.0
N47 N 0.51254 0.80802 0.27774 0.0
H48 H 0.26432 0.50585 0.08189 0.0
H49 H 0.2886 0.57087 0.24745 0.0
H50 H 0.21635 0.57234 0.10201 0.0
H51 H 0.33013 0.55451 0.15125 0.0
C52 C 0.32721 0.53753 0.19487 0.0
C53 C 0.26125 0.52526 0.10626 0.0
C54 C 0.23851 0.53839 0.08118 0.0
C55 C 0.28015 0.53755 0.16234 0.0
C56 C 0.27519 0.56217 0.19849 0.0
C57 C 0.25214 0.57476 0.17766 0.0
C58 C 0.23459 0.56312 0.11602 0.0
N59 N 0.30313 0.52451 0.18909 0.0
H60 H 1.00234 0.27833 0.08127 0.0
H61 H 0.06558 0.29221 0.2714 0.0
H62 H 0.06379 0.22406 0.1018 0.0
H63 H 0.02036 0.29834 0.3572 0.0
C64 C 0.01881 0.31516 0.31177 0.0
C65 C 0.02104 0.27308 0.10842 0.0
C66 C 0.03245 0.24969 0.0805 0.0
C67 C 0.03331 0.28887 0.17639 0.0
C68 C 0.05673 0.28083 0.21623 0.0
C69 C 0.06794 0.25752 0.18981 0.0
C70 C 0.05607 0.24274 0.11947 0.0
N71 N 0.02123 0.31148 0.21192 0.0
H72 H 0.25614 0.04438 0.11281 0.0
H73 H 0.23235 0.97629 0.26382 0.0
H74 H 0.30369 0.97736 0.11193 0.0
H75 H 0.19096 0.99413 0.17893 0.0
C76 C 0.19387 1.01072 0.22413 0.0
C77 C 0.25922 0.02453 0.13227 0.0
C78 C 0.28172 1.0118 0.10247 0.0
C79 C 0.24061 1.0113 0.18709 0.0
C80 C 0.24556 0.98592 0.21625 0.0
C81 C 0.2683 0.97357 0.18985 0.0
C82 C 0.28565 0.9864 0.13039 0.0
N83 N 0.21787 0.02388 0.21881 0.0
H84 H 0.49268 0.27257 0.13226 0.0
H85 H 0.55928 0.24829 0.28962 0.0
H86 H 0.5613 0.31802 0.12689 0.0
H87 H 0.53869 0.20627 0.19928 0.0
C88 C 0.52328 0.21034 0.24888 0.0
C89 C 0.51256 0.27526 0.15205 0.0
C90 C 0.52621 0.29692 0.11872 0.0
C91 C 0.52494 0.2569 0.21029 0.0
C92 C 0.55034 0.26134 0.23972 0.0
C93 C 0.56355 0.28347 0.21084 0.0
C94 C 0.5516 0.30046 0.14757 0.0
N95 N 0.51146 0.23498 0.24522 0.0
C96 C 0.99546 0.05242 0.49098 0.0
Eu97 Eu 0.99461 0.03236 0.65792 0.0
C98 C 1.01346 0.07254 0.45783 0.0
C99 C 1.0095 0.09819 0.48399 0.0
C100 C 0.02878 0.11637 0.47144 0.0
C101 C 0.05254 0.10948 0.43209 0.0
C102 C 0.05607 0.0842 0.40071 0.0
C103 C 0.03666 0.06592 0.41322 0.0
C104 C 0.95829 0.02414 0.79519 0.0
C105 C 1.00801 0.07424 0.82284 0.0
C106 C 0.03159 0.996 0.02487 0.0
Eu107 Eu 0.02065 1.01454 0.8595 0.0
C108 C 0.0514 0.97743 0.05174 0.0
C109 C 0.06881 0.96876 0.98316 0.0
C110 C 0.08559 0.94873 1.00375 0.0
C111 C 0.08508 0.93679 0.09309 0.0
C112 C 0.06852 0.94651 0.16331 0.0
C113 C 0.05177 0.96668 0.14264 0.0
C114 C 0.05636 0.02383 0.71912 0.0
C115 C 1.00345 0.97127 0.69864 0.0
O116 O 1.0057 0.02999 0.50933 0.0
O117 O 0.97889 0.05945 0.55597 0.0
O118 O 0.9528 0.03043 0.70797 0.0
O119 O 0.98231 0.022 0.8014 0.0
O120 O 1.00743 0.06933 0.73049 0.0
O121 O 1.00888 0.05567 0.88733 0.0
O122 O 1.01329 0.98668 0.97116 0.0
O123 O 0.04013 0.0183 0.9951 0.0
O124 O 0.06245 0.01727 0.80477 0.0
O125 O 0.03242 0.02536 0.71719 0.0
O126 O 1.01249 0.97654 0.78484 0.0
O127 O 0.99596 0.98925 0.63749 0.0
H128 H 0.99182 0.10413 0.51765 0.0
H129 H 0.02505 0.1359 0.4931 0.0
H130 H 0.07405 0.07839 0.36899 0.0
H131 H 0.04021 0.04636 0.39144 0.0
H132 H 0.06869 0.97675 0.91232 0.0
H133 H 0.09822 0.94187 0.94844 0.0
H134 H 0.0673 0.93752 0.23245 0.0
H135 H 0.03838 0.9731 0.19621 0.0
C136 C 0.47723 1.00462 0.49902 0.0
Eu137 Eu 0.49844 1.01148 0.66237 0.0
C138 C 0.45784 0.98548 0.47332 0.0
C139 C 0.44798 0.98425 0.3813 0.0
C140 C 0.42801 0.96723 0.36052 0.0
C141 C 0.41765 0.95122 0.43169 0.0
C142 C 0.42848 0.9518 0.52274 0.0
C143 C 0.44832 0.96884 0.54338 0.0
C144 C 0.50864 0.97238 0.78867 0.0
C145 C 0.45757 0.02682 0.83456 0.0
C146 C 0.54059 0.02762 0.03152 0.0
Eu147 Eu 0.51921 0.03263 0.86804 0.0
C148 C 0.56033 1.00858 0.05874 0.0
C149 C 0.58539 1.01071 0.02293 0.0
C150 C 0.60295 0.99094 0.03571 0.0
C151 C 0.59603 0.96843 0.08455 0.0
C152 C 0.57122 0.96654 0.12301 0.0
C153 C 0.55356 0.98646 0.11035 0.0
C154 C 0.51035 0.07142 0.74032 0.0
C155 C 0.55882 0.02223 0.69249 0.0
O156 O 0.46934 0.02205 0.55922 0.0
O157 O 0.49981 0.99524 0.52068 0.0
O158 O 0.50111 0.96876 0.70229 0.0
O159 O 0.51026 0.99617 0.79984 0.0
O160 O 0.46158 0.0193 0.74551 0.0
O161 O 0.47643 0.03232 0.89464 0.0
O162 O 0.5178 0.01821 0.01299 0.0
O163 O 0.54769 0.0453 0.9703 0.0
O164 O 0.51718 0.07558 0.82802 0.0
O165 O 0.50814 0.04762 0.73032 0.0
O166 O 0.55495 0.02097 0.78553 0.0
O167 O 0.53957 0.02295 0.63092 0.0
H168 H 0.45513 0.99699 0.32649 0.0
H169 H 0.41982 0.96758 0.29003 0.0
H170 H 0.42108 0.93965 0.57885 0.0
H171 H 0.4557 0.96957 0.61502 0.0
H172 H 0.5914 0.02742 0.98293 0.0
H173 H 0.62215 0.99347 0.00785 0.0
H174 H 0.56532 0.94953 0.16149 0.0
H175 H 0.53436 0.98422 0.13849 0.0
C176 C 0.5385 0.49347 0.50243 0.0
Eu177 Eu 0.52465 0.51263 0.66343 0.0
C178 C 0.55797 0.47405 0.48155 0.0
C179 C 0.56062 0.46426 0.38998 0.0
C180 C 0.57738 0.44389 0.3731 0.0
C181 C 0.59171 0.43301 0.44778 0.0
C182 C 0.58987 0.44385 0.53852 0.0
C183 C 0.57308 0.46412 0.55528 0.0
C184 C 0.55741 0.52103 0.813 0.0
C185 C 0.50845 0.47016 0.826 0.0
C186 C 0.47874 0.54902 0.0131 0.0
Eu187 Eu 0.49343 0.53039 0.85234 0.0
C188 C 0.45912 0.56834 0.03319 0.0
C189 C 0.44453 0.57852 0.95853 0.0
C190 C 0.42797 0.59904 0.97428 0.0
C191 C 0.42594 0.60992 0.06487 0.0
C192 C 0.43953 0.59863 0.14063 0.0
C193 C 0.45603 0.57799 0.12478 0.0
C194 C 0.46116 0.52304 0.69989 0.0
C195 C 0.5104 0.57303 0.69226 0.0
O196 O 0.5186 0.48505 0.55037 0.0
O197 O 0.5474 0.5153 0.53455 0.0
O198 O 0.56472 0.51508 0.72816 0.0
O199 O 0.53329 0.52225 0.81203 0.0
O200 O 0.51563 0.47465 0.73699 0.0
O201 O 0.50196 0.48874 0.88533 0.0
O202 O 0.49885 0.55763 0.96688 0.0
O203 O 0.47005 0.52727 0.97952 0.0
O204 O 0.45341 0.52909 0.78406 0.0
O205 O 0.48511 0.52091 0.70395 0.0
O206 O 0.50346 0.56835 0.78134 0.0
O207 O 0.51634 0.55453 0.63162 0.0
H208 H 0.54905 0.47169 0.33239 0.0
H209 H 0.57797 0.43574 0.30267 0.0
H210 H 0.60073 0.43607 0.59732 0.0
H211 H 0.57123 0.47147 0.62662 0.0
H212 H 0.44672 0.57129 0.88719 0.0
H213 H 0.41764 0.6071 0.91469 0.0
H214 H 0.43874 0.60676 0.21107 0.0
H215 H 0.46717 0.57033 0.18311 0.0
C216 C 0.03934 0.5446 0.50063 0.0
Eu217 Eu 0.01891 0.5347 0.66377 0.0
C218 C 0.05998 0.56282 0.47869 0.0
C219 C 0.07151 0.5766 0.55257 0.0
C220 C 0.09246 0.59255 0.53468 0.0
C221 C 0.10237 0.59491 0.44251 0.0
C222 C 0.09008 0.58181 0.36794 0.0
C223 C 0.06902 0.56586 0.38601 0.0
C224 C 1.01276 0.57154 0.80175 0.0
C225 C 0.06097 0.51987 0.82879 0.0
C226 C 0.97996 0.49898 0.0238 0.0
Eu227 Eu 1.0 0.50919 0.8604 0.0
C228 C 0.95962 0.48037 0.04502 0.0
C229 C 0.94841 0.46659 0.9705 0.0
C230 C 0.92794 0.45002 0.98755 0.0
C231 C 0.91797 0.4472 0.07944 0.0
C232 C 0.92992 0.46034 0.1547 0.0
C233 C 0.95065 0.4768 0.13753 0.0
C234 C 1.00449 0.47243 0.72121 0.0
C235 C 0.95792 0.52422 0.69663 0.0
O236 O 0.04629 0.52504 0.55332 0.0
O237 O 0.01779 0.555 0.52879 0.0
O238 O 0.01927 0.57621 0.71489 0.0
O239 O 1.0098 0.54765 0.80895 0.0
O240 O 0.05655 0.52531 0.73824 0.0
O241 O 0.04222 0.51566 0.89054 0.0
O242 O 0.97272 0.51853 0.97159 0.0
O243 O 1.00166 0.48894 0.99534 0.0
O244 O 0.99786 0.46797 0.808 0.0
O245 O 1.00887 0.49613 0.71445 0.0
O246 O 0.96252 0.5194 0.78748 0.0
O247 O 0.97658 0.52788 0.63384 0.0
H248 H 0.06478 0.57445 0.62475 0.0
H249 H 0.10134 0.60248 0.59345 0.0
H250 H 0.09749 0.58285 0.29634 0.0
H251 H 0.06034 0.55533 0.32826 0.0
H252 H 0.95498 0.46923 0.89839 0.0
H253 H 0.91938 0.44007 0.9282 0.0
H254 H 0.92246 0.45898 0.22616 0.0
H255 H 0.9591 0.48731 0.1958 0.0
H256 H 0.19542 0.04244 0.38179 0.0
H257 H 0.04979 1.01094 0.53231 0.0
H258 H 0.14477 0.99389 0.22088 0.0
H259 H 0.10555 0.04135 0.72662 0.0
H260 H 0.08223 1.01167 0.40634 0.0
H261 H 0.16083 0.04904 0.49811 0.0
C262 C 0.17695 0.03349 0.37019 0.0
C263 C 0.17296 0.01758 0.2915 0.0
C264 C 0.08731 0.01854 0.47617 0.0
C265 C 0.13333 0.02501 0.4241 0.0
C266 C 0.06862 0.0185 0.54767 0.0
C267 C 0.07478 0.02664 0.63939 0.0
C268 C 0.11243 0.02681 0.49645 0.0
C269 C 0.09995 0.03509 0.65653 0.0
C270 C 0.15725 0.03713 0.43682 0.0
C271 C 0.14868 1.00628 0.28058 0.0
N272 N 0.11781 0.03499 0.58594 0.0
N273 N 0.12987 1.01018 0.34585 0.0
H274 H 0.4988 0.21507 0.42242 0.0
H275 H 0.50824 0.06496 0.54754 0.0
H276 H 0.5325 0.15946 0.23515 0.0
H277 H 0.50648 0.1233 0.76283 0.0
H278 H 0.50785 0.09868 0.42544 0.0
H279 H 0.49231 0.18094 0.54141 0.0
C280 C 0.50441 0.19563 0.4057 0.0
C281 C 0.51617 0.19005 0.31869 0.0
C282 C 0.50732 0.10408 0.49943 0.0
C283 C 0.50872 0.15098 0.45393 0.0
C284 C 0.50741 0.08485 0.56908 0.0
C285 C 0.50748 0.09134 0.66548 0.0
C286 C 0.50687 0.13004 0.52619 0.0
C287 C 0.50654 0.11746 0.6893 0.0
C288 C 0.50087 0.17621 0.47378 0.0
C289 C 0.52336 0.16457 0.30132 0.0
N290 N 0.50625 0.13583 0.62031 0.0
N291 N 0.51949 0.14603 0.36796 0.0
H292 H 0.32479 0.50581 0.35236 0.0
H293 H 0.47157 0.52873 0.50841 0.0
H294 H 0.37701 0.55284 0.1907 0.0
H295 H 0.41084 0.51054 0.70459 0.0
H296 H 0.43986 0.52872 0.37829 0.0
H297 H 0.35893 0.49835 0.46941 0.0
C298 C 0.34353 0.51421 0.34064 0.0
C299 C 0.34805 0.53 0.2617 0.0
C300 C 0.43361 0.52441 0.44978 0.0
C301 C 0.38725 0.52149 0.39515 0.0
C302 C 0.45171 0.52425 0.52374 0.0
C303 C 0.44379 0.51967 0.61735 0.0
C304 C 0.40756 0.51946 0.46958 0.0
C305 C 0.41775 0.51424 0.63349 0.0
C306 C 0.36299 0.51007 0.40769 0.0
C307 C 0.37271 0.54057 0.2507 0.0
N308 N 0.40065 0.51426 0.56071 0.0
N309 N 0.39134 0.53616 0.31647 0.0
H310 H 1.00045 0.3215 0.487 0.0
H311 H 0.02229 0.47363 0.53253 0.0
H312 H 0.02672 0.3656 0.24718 0.0
H313 H 0.9887 0.42391 0.74359 0.0
H314 H 0.02418 0.43658 0.42249 0.0
H315 H 0.99578 0.36061 0.5773 0.0
C316 C 1.00503 0.33959 0.45293 0.0
C317 C 1.01386 0.34019 0.35928 0.0
C318 C 0.01631 0.43399 0.49286 0.0
C319 C 1.00905 0.38583 0.46403 0.0
C320 C 1.01525 0.45509 0.55558 0.0
C321 C 1.00553 0.45188 0.64795 0.0
C322 C 1.00753 0.40969 0.5232 0.0
C323 C 0.99659 0.42745 0.67378 0.0
C324 C 1.00243 0.36208 0.5048 0.0
C325 C 0.01962 0.36429 0.3191 0.0
N326 N 0.99789 0.40757 0.61246 0.0
N327 N 0.01733 0.3862 0.372 0.0
H328 H 0.81849 0.02998 0.13263 0.0
H329 H 0.96458 1.00449 0.976 0.0
H330 H 0.86719 0.97521 0.27367 0.0
H331 H 0.90779 0.03679 0.78903 0.0
H332 H 0.93125 0.99907 0.09818 0.0
H333 H 0.85318 0.03857 0.01852 0.0
C334 C 0.83657 0.02002 0.14036 0.0
C335 C 0.83997 1.00186 0.21284 0.0
C336 C 0.92613 1.00738 0.03038 0.0
C337 C 0.87977 1.01158 0.08269 0.0
C338 C 0.94516 1.01047 0.96074 0.0
C339 C 0.93895 0.0209 0.87192 0.0
C340 C 0.90078 1.01519 0.01163 0.0
C341 C 0.91343 0.02848 0.85624 0.0
C342 C 0.85632 0.0248 0.0749 0.0
C343 C 0.86377 0.98936 0.21881 0.0
N344 N 0.89537 0.02556 0.92519 0.0
N345 N 0.88272 0.99445 0.15495 0.0
H346 H 0.53005 0.81947 0.99766 0.0
H347 H 0.50572 0.97137 0.98564 0.0
H348 H 0.50937 0.86114 0.24929 0.0
H349 H 0.52395 0.92469 0.74399 0.0
H350 H 0.51131 0.93351 0.08909 0.0
H351 H 0.53233 0.85958 0.90992 0.0
C352 C 0.52621 0.8372 0.03476 0.0
C353 C 0.51949 0.83689 0.13087 0.0
C354 C 0.51441 0.93169 0.01355 0.0
C355 C 0.5216 0.88343 0.02971 0.0
C356 C 0.51153 0.95339 0.95471 0.0
C357 C 0.51467 0.95128 0.85616 0.0
C358 C 0.52042 0.90779 0.97314 0.0
C359 C 0.52134 0.92726 0.81949 0.0
C360 C 0.52745 0.86021 0.98445 0.0
C361 C 0.51471 0.86051 0.17523 0.0
N362 N 0.5239 0.90662 0.87757 0.0
N363 N 0.51561 0.88286 0.12406 0.0
H364 H 0.66522 0.51529 0.28838 0.0
H365 H 0.59951 0.54977 0.78921 0.0
H366 H 0.70413 0.54413 0.04054 0.0
H367 H 0.55817 0.50825 0.00495 0.0
H368 H 0.63538 0.55489 0.89723 0.0
H369 H 0.62403 0.51837 0.20186 0.0
C370 C 0.66505 0.52269 0.2166 0.0
C371 C 0.68814 0.52954 0.17148 0.0
C372 C 0.61845 0.54489 0.9222 0.0
C373 C 0.64132 0.53311 0.07261 0.0
C374 C 0.59781 0.54215 0.86049 0.0
C375 C 0.57578 0.52866 0.88813 0.0
C376 C 0.61757 0.5336 0.0127 0.0
C377 C 0.57473 0.51905 0.98129 0.0
C378 C 0.64159 0.52431 0.16714 0.0
C379 C 0.68684 0.53866 0.07811 0.0
N380 N 0.59553 0.52138 0.04006 0.0
N381 N 0.66401 0.54014 0.03222 0.0
H382 H 0.99288 0.72321 0.01886 0.0
H383 H 1.01189 0.57014 1.00077 0.0
H384 H 1.012 0.68068 0.27127 0.0
H385 H 1.00229 0.62063 0.76103 0.0
H386 H 1.00747 0.60771 0.10721 0.0
H387 H 0.99105 0.68351 0.93031 0.0
C388 C 0.99649 0.70536 0.05599 0.0
C389 C 1.00261 0.70538 0.1526 0.0
C390 C 1.00613 0.61038 0.03127 0.0
C391 C 1.00109 0.65912 0.05015 0.0
C392 C 1.0085 0.58895 0.97067 0.0
C393 C 1.00753 0.59224 0.87171 0.0
C394 C 1.00247 0.63505 0.99216 0.0
C395 C 1.00333 0.61706 0.83657 0.0
C396 C 0.99555 0.68255 0.00513 0.0
C397 C 1.0071 0.68155 0.19682 0.0
N398 N 1.00101 0.63725 0.89619 0.0
N399 N 1.00648 0.65933 0.14505 0.0
H400 H 0.07078 0.25646 0.38341 0.0
H401 H 0.08406 0.11766 0.27899 0.0
H402 H 0.10975 0.22883 0.13462 0.0
H403 H 0.06726 0.14647 0.55826 0.0
H404 H 0.10778 0.15686 0.2446 0.0
H405 H 0.08534 0.21912 0.47019 0.0
C406 C 0.08344 0.24317 0.34784 0.0
C407 C 0.08769 0.24492 0.24983 0.0
C408 C 0.09957 0.15439 0.31454 0.0
C409 C 0.10323 0.20135 0.34759 0.0
C410 C 0.08598 0.13191 0.33415 0.0
C411 C 0.07269 0.12933 0.42003 0.0
C412 C 0.09928 0.17458 0.38046 0.0
C413 C 0.07622 0.14826 0.48932 0.0
C414 C 0.09155 0.2215 0.39745 0.0
C415 C 0.10484 0.2274 0.20901 0.0
N416 N 0.08853 0.17041 0.46711 0.0
N417 N 0.11098 0.20561 0.2567 0.0
H418 H 0.26723 0.96349 0.3797 0.0
H419 H 0.40398 0.92332 0.27443 0.0
H420 H 0.29129 0.93085 0.11421 0.0
H421 H 0.37617 0.94644 0.54907 0.0
H422 H 0.36053 0.91025 0.23182 0.0
H423 H 0.3011 0.94004 0.45979 0.0
C424 C 0.27885 0.9504 0.33864 0.0
C425 C 0.27741 0.95019 0.23941 0.0
C426 C 0.36402 0.91748 0.30248 0.0
C427 C 0.31706 0.9244 0.32982 0.0
C428 C 0.38883 0.92513 0.32649 0.0
C429 C 0.39355 0.93683 0.41411 0.0
C430 C 0.34372 0.92219 0.36572 0.0
C431 C 0.37341 0.93792 0.48002 0.0
C432 C 0.29854 0.9372 0.3844 0.0
C433 C 0.29263 0.93243 0.19054 0.0
N434 N 0.34927 0.93138 0.45356 0.0
N435 N 0.31263 0.92108 0.23553 0.0
H436 H 0.57277 0.28286 0.40138 0.0
H437 H 0.62124 0.41787 0.29618 0.0
H438 H 0.60706 0.30573 0.13627 0.0
H439 H 0.5929 0.39154 0.56691 0.0
H440 H 0.63212 0.37373 0.25596 0.0
H441 H 0.59729 0.31588 0.48154 0.0
C442 C 0.58636 0.29403 0.36038 0.0
C443 C 0.58684 0.2925 0.26117 0.0
C444 C 0.62422 0.37767 0.32535 0.0
C445 C 0.61395 0.33123 0.35181 0.0
C446 C 0.61785 0.40289 0.34804 0.0
C447 C 0.60527 0.4083 0.43355 0.0
C448 C 0.61743 0.35771 0.38782 0.0
C449 C 0.60215 0.38829 0.49939 0.0
C450 C 0.6002 0.31324 0.40622 0.0
C451 C 0.60524 0.30717 0.2125 0.0
N452 N 0.60752 0.36382 0.47412 0.0
N453 N 0.61729 0.32672 0.2576 0.0
H454 H 0.25385 0.57983 0.36985 0.0
H455 H 0.11629 0.62607 0.29331 0.0
H456 H 0.2282 0.61886 0.11763 0.0
H457 H 0.14531 0.59369 0.55375 0.0
H458 H 0.15998 0.63813 0.2493 0.0
H459 H 0.22028 0.60096 0.45963 0.0
C460 C 0.24194 0.59383 0.33401 0.0
C461 C 0.24293 0.59662 0.23519 0.0
C462 C 0.15675 0.62902 0.31734 0.0
C463 C 0.20365 0.61984 0.33648 0.0
C464 C 0.13179 0.62196 0.34209 0.0
C465 C 0.12722 0.60811 0.42583 0.0
C466 C 0.17731 0.62166 0.37581 0.0
C467 C 0.1479 0.60402 0.48779 0.0
C468 C 0.22243 0.60567 0.38525 0.0
C469 C 0.22729 0.61537 0.19325 0.0
N470 N 0.17209 0.61016 0.46044 0.0
N471 N 0.20752 0.62547 0.24324 0.0
H472 H 0.10173 0.80647 0.40592 0.0
H473 H 0.09018 0.89694 0.9689 0.0
H474 H 0.06492 0.78841 0.14094 0.0
H475 H 0.11033 0.91992 0.25286 0.0
H476 H 0.10113 0.85293 0.009 0.0
H477 H 0.12521 0.84103 0.32701 0.0
C478 C 0.09947 0.80903 0.33015 0.0
C479 C 0.08048 0.79542 0.28073 0.0
C480 C 0.1039 0.8677 0.06177 0.0
C481 C 0.10686 0.83497 0.19081 0.0
C482 C 0.09774 0.89296 0.03887 0.0
C483 C 0.09853 0.91207 0.10871 0.0
C484 C 0.11051 0.86147 0.15542 0.0
C485 C 0.10853 0.90561 0.19791 0.0
C486 C 0.11276 0.82886 0.28526 0.0
C487 C 0.07883 0.79895 0.18239 0.0
N488 N 0.11353 0.88072 0.21948 0.0
N489 N 0.09118 0.81901 0.1411 0.0
H490 H 0.7422 0.95314 0.12814 0.0
H491 H 0.60482 0.94031 0.24621 0.0
H492 H 0.71603 0.91953 0.39015 0.0
H493 H 0.63191 0.95015 0.95951 0.0
H494 H 0.64408 0.91747 0.28469 0.0
H495 H 0.70512 0.93537 0.04817 0.0
C496 C 0.72935 0.94089 0.16823 0.0
C497 C 0.73128 0.93917 0.26717 0.0
C498 C 0.64123 0.92393 0.21246 0.0
C499 C 0.68805 0.91997 0.17715 0.0
C500 C 0.61866 0.93701 0.19041 0.0
C501 C 0.61561 0.94823 0.10067 0.0
C502 C 0.66108 0.92272 0.14503 0.0
C503 C 0.63409 0.94292 0.03106 0.0
C504 C 0.70781 0.93095 0.12254 0.0
C505 C 0.71441 0.92243 0.31437 0.0
N506 N 0.6564 0.93126 0.0554 0.0
N507 N 0.69272 0.9145 0.27002 0.0
H508 H 0.4535 0.7586 0.11279 0.0
H509 H 0.39643 0.62668 0.21424 0.0
H510 H 0.41567 0.73832 0.37428 0.0
H511 H 0.42722 0.65116 0.94478 0.0
H512 H 0.38809 0.67142 0.25374 0.0
H513 H 0.42801 0.72663 0.03077 0.0
C514 C 0.43904 0.7482 0.15249 0.0
C515 C 0.4376 0.75019 0.25144 0.0
C516 C 0.39596 0.66698 0.18472 0.0
C517 C 0.40928 0.71265 0.15877 0.0
C518 C 0.40086 0.6414 0.16244 0.0
C519 C 0.41343 0.63522 0.07766 0.0
C520 C 0.40423 0.68645 0.12259 0.0
C521 C 0.41792 0.65497 0.0118 0.0
C522 C 0.4246 0.72963 0.10561 0.0
C523 C 0.41818 0.73648 0.29844 0.0
N524 N 0.41399 0.67973 0.03673 0.0
N525 N 0.40546 0.71752 0.25245 0.0
H526 H 0.76787 0.46493 0.14138 0.0
H527 H 0.90351 0.41632 0.22907 0.0
H528 H 0.79197 0.42771 0.39951 0.0
H529 H 0.87568 0.44742 0.96465 0.0
H530 H 0.85958 0.40473 0.27144 0.0
H531 H 0.80059 0.44158 0.05526 0.0
C532 C 0.77928 0.45097 0.17952 0.0
C533 C 0.77816 0.44927 0.27865 0.0
C534 C 0.86315 0.41342 0.20288 0.0
C535 C 0.81656 0.42353 0.18131 0.0
C536 C 0.88825 0.42022 0.17905 0.0
C537 C 0.8932 0.43372 0.09482 0.0
C538 C 0.84287 0.42069 0.14291 0.0
C539 C 0.87283 0.43744 0.03116 0.0
C540 C 0.79829 0.43779 0.13029 0.0
C541 C 0.79311 0.43046 0.32354 0.0
N542 N 0.84851 0.43158 0.0576 0.0
N543 N 0.81249 0.41908 0.27528 0.0
H544 H 0.04064 0.23642 0.89552 0.0
H545 H 0.99767 0.09283 1.00088 0.0
H546 H 0.99755 0.21482 0.14328 0.0
H547 H 0.0176 0.11823 0.71902 0.0
H548 H 0.99784 0.13747 0.05347 0.0
H549 H 0.03149 0.19425 0.82605 0.0
C550 C 0.02825 0.22322 0.93339 0.0
C551 C 0.01921 0.22948 0.0242 0.0
C552 C 1.00202 0.13334 0.97994 0.0
C553 C 1.00998 0.18045 0.9478 0.0
C554 C 1.00209 0.10775 0.94986 0.0
C555 C 1.00774 0.10155 0.85525 0.0
C556 C 1.00804 0.15311 0.91562 0.0
C557 C 1.01313 0.12195 0.79262 0.0
C558 C 0.02337 0.19896 0.89443 0.0
C559 C 1.00425 0.21111 0.07201 0.0
N560 N 1.0134 0.14669 0.82404 0.0
N561 N 1.00048 0.18738 0.03411 0.0
H562 H 0.29348 1.00695 0.91532 0.0
H563 H 0.44035 0.04421 0.0075 0.0
H564 H 0.32028 0.04144 0.17348 0.0
H565 H 0.41261 1.01461 0.74129 0.0
H566 H 0.39617 0.04655 0.06456 0.0
H567 H 0.33581 1.01405 0.844 0.0
C568 C 0.30799 0.01705 0.95554 0.0
C569 C 0.30312 0.02425 0.04961 0.0
C570 C 0.3997 0.0397 0.99342 0.0
C571 C 0.35224 0.03121 0.97031 0.0
C572 C 0.42504 0.03826 0.96066 0.0
C573 C 0.43049 0.02905 0.86922 0.0
C574 C 0.37938 0.03178 0.93485 0.0
C575 C 0.40956 0.02177 0.81228 0.0
C576 C 0.33233 0.02072 0.91541 0.0
C577 C 0.32299 0.03625 0.09994 0.0
N578 N 0.38508 0.02314 0.84613 0.0
N579 N 0.3467 0.03906 0.06022 0.0
H580 H 0.49169 0.33312 0.17568 0.0
H581 H 0.5253 0.42624 0.73715 0.0
H582 H 0.53712 0.31011 0.93614 0.0
H583 H 0.48969 0.45196 0.99595 0.0
H584 H 0.52442 0.38227 0.79846 0.0
H585 H 0.48429 0.37481 0.0988 0.0
C586 C 0.49921 0.33647 0.10515 0.0
C587 C 0.5146 0.31793 0.06137 0.0
C588 C 0.51669 0.39752 0.84168 0.0
C589 C 0.50713 0.36599 0.9743 0.0
C590 C 0.5172 0.42272 0.80668 0.0
C591 C 0.5077 0.44308 0.86141 0.0
C592 C 0.50647 0.3924 0.93211 0.0
C593 C 0.49742 0.43707 0.95111 0.0
C594 C 0.49538 0.36044 0.0619 0.0
C595 C 0.52472 0.32368 0.97144 0.0
N596 N 0.49713 0.41241 0.9835 0.0
N597 N 0.521 0.34719 0.93134 0.0
H598 H 0.20734 0.49852 0.13479 0.0
H599 H 0.07893 0.50319 1.0018 0.0
H600 H 0.21875 0.55373 0.91135 0.0
H601 H 0.10533 0.5334 0.73395 0.0
H602 H 0.12314 0.50185 0.05742 0.0
H603 H 0.16442 0.48947 0.07213 0.0
C604 C 0.2011 0.50812 0.07068 0.0
C605 C 0.21677 0.5267 0.02771 0.0
C606 C 0.1195 0.50827 0.98575 0.0
C607 C 0.16689 0.51771 0.95835 0.0
C608 C 0.09403 0.50935 0.95414 0.0
C609 C 0.08815 0.51842 0.86273 0.0
C610 C 0.13953 0.5164 0.92583 0.0
C611 C 0.10876 0.52618 0.80482 0.0
C612 C 0.17626 0.50347 0.03611 0.0
C613 C 0.2074 0.53905 0.94604 0.0
N614 N 0.13337 0.52521 0.83758 0.0
N615 N 0.18311 0.53451 0.91462 0.0
H616 H 0.98479 0.82977 0.37748 0.0
H617 H 0.02119 0.92845 0.7931 0.0
H618 H 0.03344 0.81062 0.61343 0.0
H619 H 0.98247 0.95079 0.5356 0.0
H620 H 0.02014 0.88385 0.74041 0.0
H621 H 0.97702 0.87204 0.44822 0.0
C622 C 0.9929 0.83403 0.44632 0.0
C623 C 1.00933 0.81637 0.4906 0.0
C624 C 1.01173 0.89847 0.6956 0.0
C625 C 1.00145 0.86524 0.57041 0.0
C626 C 1.01231 0.92407 0.7257 0.0
C627 C 1.00203 0.94372 0.66875 0.0
C628 C 1.00066 0.89216 0.60781 0.0
C629 C 0.99079 0.93651 0.58201 0.0
C630 C 0.98887 0.85837 0.4859 0.0
C631 C 0.0202 0.8234 0.57793 0.0
N632 N 0.99048 0.91146 0.55428 0.0
N633 N 0.01627 0.84725 0.6144 0.0
H634 H 0.6949 0.03074 0.33592 0.0
H635 H 0.60362 1.01352 0.7909 0.0
H636 H 0.71992 0.99621 0.5972 0.0
H637 H 0.57587 0.03249 0.51129 0.0
H638 H 0.64754 1.01391 0.72943 0.0
H639 H 0.65307 0.0396 0.40857 0.0
C640 C 0.69196 0.0261 0.41002 0.0
C641 C 0.71116 1.01334 0.46137 0.0
C642 C 0.63186 0.0181 0.68159 0.0
C643 C 0.66287 0.02234 0.5441 0.0
C644 C 0.60669 0.01787 0.71665 0.0
C645 C 0.58579 0.02279 0.65624 0.0
C646 C 0.6364 0.02354 0.58536 0.0
C647 C 0.59121 0.02835 0.56063 0.0
C648 C 0.6679 0.03069 0.451 0.0
C649 C 0.70589 1.00669 0.55596 0.0
N650 N 0.61588 0.02855 0.52834 0.0
N651 N 0.68226 1.01108 0.59399 0.0
H652 H 0.53193 0.7129 0.36122 0.0
H653 H 0.49307 0.61634 0.78308 0.0
H654 H 0.48122 0.73317 0.58947 0.0
H655 H 0.53035 0.59226 0.52537 0.0
H656 H 0.49451 0.6607 0.72624 0.0
H657 H 0.53858 0.67076 0.43557 0.0
C658 C 0.52308 0.70888 0.42914 0.0
C659 C 0.50642 0.72678 0.47024 0.0
C660 C 0.50249 0.64573 0.68227 0.0
C661 C 0.51309 0.67818 0.55412 0.0
C662 C 0.50167 0.62031 0.7147 0.0
C663 C 0.51147 0.60029 0.65892 0.0
C664 C 0.51338 0.65145 0.59349 0.0
C665 C 0.52237 0.60688 0.57082 0.0
C666 C 0.52649 0.68463 0.47073 0.0
C667 C 0.49463 0.72013 0.55648 0.0
N668 N 0.52301 0.63178 0.54098 0.0
N669 N 0.49802 0.69639 0.59506 0.0
H670 H 0.81664 0.54187 0.37116 0.0
H671 H 0.91458 0.51023 0.7954 0.0
H672 H 0.79651 0.49665 0.61573 0.0
H673 H 0.93846 0.54067 0.52461 0.0
H674 H 0.87004 0.51141 0.74162 0.0
H675 H 0.85946 0.54896 0.43904 0.0
C676 C 0.82087 0.5344 0.44114 0.0
C677 C 0.80274 0.5192 0.48897 0.0
C678 C 0.88499 0.51795 0.69403 0.0
C679 C 0.85213 0.52629 0.56561 0.0
C680 C 0.91054 0.5173 0.72471 0.0
C681 C 0.93056 0.52527 0.66449 0.0
C682 C 0.87911 0.52683 0.60243 0.0
C683 C 0.92383 0.53417 0.57355 0.0
C684 C 0.84548 0.53803 0.4791 0.0
C685 C 0.80967 0.50902 0.57764 0.0
N686 N 0.89878 0.5347 0.54544 0.0
N687 N 0.83377 0.5126 0.61271 0.0
loop_
_geom_bond_atom_site_label_1
_geom_bond_atom_site_label_2
_geom_bond_distance
_geom_bond_site_symmetry_2
_ccdc_geom_bond_type
H0 C5 0.930 . S
H1 C8 0.930 . S
H2 C10 0.930 . S
H3 C4 1.016 . S
C4 H3 1.016 . S
C4 N11 1.286 . S
C5 H0 0.930 . S
C5 C6 1.397 . S
C5 C7 1.361 . S
C6 C5 1.397 . S
C6 C10 1.390 . S
C7 C5 1.361 . S
C7 C8 1.393 . S
C7 N11 1.413 . S
C8 H1 0.930 . S
C8 C7 1.393 . S
C8 C9 1.399 . S
C9 C8 1.399 . S
C9 C10 1.381 . S
C10 H2 0.930 . S
C10 C6 1.390 . S
C10 C9 1.381 . S
N11 C4 1.286 . S
N11 C7 1.413 . S
H12 C17 0.930 . S
H13 C20 0.930 . S
H14 C22 0.930 . S
H15 C16 1.029 . S
C16 H15 1.029 . S
C16 N23 1.268 1_655 S
C17 H12 0.930 . S
C17 C18 1.397 . S
C17 C19 1.361 . S
C18 C17 1.397 . S
C18 C22 1.390 1_455 S
C19 C17 1.361 . S
C19 C20 1.393 . S
C19 N23 1.413 . S
C20 H13 0.930 . S
C20 C19 1.393 . S
C20 C21 1.402 . S
C21 C20 1.402 . S
C21 C22 1.379 1_455 S
C22 H14 0.930 . S
C22 C18 1.390 1_655 S
C22 C21 1.379 1_655 S
N23 C16 1.268 1_455 S
N23 C19 1.413 . S
H24 C29 0.930 . S
H25 C32 0.930 . S
H26 C34 0.930 . S
H27 C28 1.030 . S
C28 H27 1.030 . S
C28 N35 1.268 1_565 S
C29 H24 0.930 . S
C29 C30 1.397 . S
C29 C31 1.361 . S
C30 C29 1.397 . S
C30 C34 1.390 1_545 S
C31 C29 1.361 . S
C31 C32 1.393 . S
C31 N35 1.413 . S
C32 H25 0.930 . S
C32 C31 1.393 . S
C32 C33 1.402 . S
C33 C32 1.402 . S
C33 C34 1.379 1_545 S
C34 H26 0.930 . S
C34 C30 1.390 1_565 S
C34 C33 1.379 1_565 S
N35 C28 1.268 1_545 S
N35 C31 1.413 . S
H36 C41 0.930 . S
H37 C44 0.930 . S
H38 C46 0.930 . S
H39 C40 1.016 . S
C40 H39 1.016 . S
C40 N47 1.286 . S
C41 H36 0.930 . S
C41 C42 1.397 . S
C41 C43 1.361 . S
C42 C41 1.397 . S
C42 C46 1.390 . S
C43 C41 1.361 . S
C43 C44 1.393 . S
C43 N47 1.413 . S
C44 H37 0.930 . S
C44 C43 1.393 . S
C44 C45 1.399 . S
C45 C44 1.399 . S
C45 C46 1.381 . S
C46 H38 0.930 . S
C46 C42 1.390 . S
C46 C45 1.381 . S
N47 C40 1.286 . S
N47 C43 1.413 . S
H48 C53 0.930 . S
H49 C56 0.930 . S
H50 C58 0.930 . S
H51 C52 1.016 . S
C52 H51 1.016 . S
C52 N59 1.286 . S
C53 H48 0.930 . S
C53 C54 1.397 . S
C53 C55 1.361 1_556 S
C54 C53 1.397 . S
C54 C58 1.390 1_556 S
C55 C53 1.361 1_554 S
C55 C56 1.393 . S
C55 N59 1.413 . S
C56 H49 0.930 . S
C56 C55 1.393 . S
C56 C57 1.399 . S
C57 C56 1.399 . S
C57 C58 1.381 . S
C58 H50 0.930 . S
C58 C54 1.390 1_554 S
C58 C57 1.381 . S
N59 C52 1.286 . S
N59 C55 1.413 . S
H60 C65 0.930 . S
H61 C68 0.930 . S
H62 C70 0.930 . S
H63 C64 1.026 . S
C64 H63 1.026 . S
C64 N71 1.273 1_655 S
C65 H60 0.930 . S
C65 C66 1.397 . S
C65 C67 1.361 1_556 S
C66 C65 1.397 . S
C66 C70 1.390 1_456 S
C67 C65 1.361 1_554 S
C67 C68 1.393 . S
C67 N71 1.413 . S
C68 H61 0.930 . S
C68 C67 1.393 . S
C68 C69 1.404 . S
C69 C68 1.404 . S
C69 C70 1.378 1_455 S
C70 H62 0.930 . S
C70 C66 1.390 1_654 S
C70 C69 1.378 1_655 S
N71 C64 1.273 1_455 S
N71 C67 1.413 . S
H72 C77 0.930 . S
H73 C80 0.930 . S
H74 C82 0.930 . S
H75 C76 1.026 . S
C76 H75 1.026 . S
C76 N83 1.273 1_565 S
C77 H72 0.930 . S
C77 C78 1.397 . S
C77 C79 1.361 1_556 S
C78 C77 1.397 . S
C78 C82 1.390 1_546 S
C79 C77 1.361 1_554 S
C79 C80 1.393 . S
C79 N83 1.413 . S
C80 H73 0.930 . S
C80 C79 1.393 . S
C80 C81 1.404 . S
C81 C80 1.404 . S
C81 C82 1.378 1_545 S
C82 H74 0.930 . S
C82 C78 1.390 1_564 S
C82 C81 1.378 1_565 S
N83 C76 1.273 1_545 S
N83 C79 1.413 . S
H84 C89 0.930 . S
H85 C92 0.930 . S
H86 C94 0.930 . S
H87 C88 1.016 . S
C88 H87 1.016 . S
C88 N95 1.286 . S
C89 H84 0.930 . S
C89 C90 1.397 . S
C89 C91 1.361 1_556 S
C90 C89 1.397 . S
C90 C94 1.390 1_556 S
C91 C89 1.361 1_554 S
C91 C92 1.393 . S
C91 N95 1.413 . S
C92 H85 0.930 . S
C92 C91 1.393 . S
C92 C93 1.399 . S
C93 C92 1.399 . S
C93 C94 1.381 . S
C94 H86 0.930 . S
C94 C90 1.390 1_554 S
C94 C93 1.381 . S
N95 C88 1.286 . S
N95 C91 1.413 . S
C96 Eu97 2.835 . S
C96 C98 1.500 . S
C96 O116 1.257 . S
C96 O117 1.260 . S
Eu97 C96 2.835 . S
Eu97 O116 2.473 . S
Eu97 O117 2.480 . S
Eu97 O118 2.430 . S
Eu97 O119 2.670 1_545 S
Eu97 O120 2.394 . S
Eu97 O125 2.355 1_655 S
Eu97 O127 2.374 1_545 S
C98 C96 1.500 . S
C98 C99 1.377 . S
C98 C103 1.377 . S
C99 C98 1.377 . S
C99 C100 1.395 . S
C99 H128 0.931 . S
C100 C99 1.395 . S
C100 C101 1.383 . S
C100 H129 0.931 . S
C101 C100 1.383 . S
C101 C102 1.394 . S
C102 C101 1.394 . S
C102 C103 1.378 . S
C102 H130 0.931 1_655 S
C103 C98 1.377 . S
C103 C102 1.378 . S
C103 H131 0.931 1_655 S
C104 O118 1.259 . S
C104 O119 1.270 1_545 S
C105 O120 1.251 1_455 S
C105 O121 1.251 . S
C106 Eu107 2.835 . S
C106 C108 1.500 . S
C106 O122 1.257 . S
C106 O123 1.260 . S
Eu107 C106 2.835 . S
Eu107 O119 2.355 1_455 S
Eu107 O121 2.374 1_565 S
Eu107 O122 2.473 . S
Eu107 O123 2.480 . S
Eu107 O124 2.430 . S
Eu107 O125 2.670 1_565 S
Eu107 O126 2.394 . S
C108 C106 1.500 . S
C108 C109 1.377 1_556 S
C108 C113 1.377 1_556 S
C109 C108 1.377 1_554 S
C109 C110 1.395 . S
C109 H132 0.931 1_554 S
C110 C109 1.395 . S
C110 C111 1.383 . S
C110 H133 0.931 . S
C111 C110 1.383 . S
C111 C112 1.394 . S
C112 C111 1.394 . S
C112 C113 1.378 . S
C112 H134 0.931 1_455 S
C113 C108 1.377 1_554 S
C113 C112 1.378 . S
C113 H135 0.931 1_455 S
C114 O124 1.259 . S
C114 O125 1.270 1_565 S
C115 O126 1.251 1_655 S
C115 O127 1.251 . S
O116 C96 1.257 . S
O116 Eu97 2.473 . S
O117 C96 1.260 . S
O117 Eu97 2.480 . S
O118 Eu97 2.430 . S
O118 C104 1.259 . S
O119 Eu97 2.670 1_565 S
O119 C104 1.270 1_565 S
O119 Eu107 2.355 1_655 S
O120 Eu97 2.394 . S
O120 C105 1.251 1_655 S
O121 C105 1.251 . S
O121 Eu107 2.374 1_545 S
O122 C106 1.257 . S
O122 Eu107 2.473 . S
O123 C106 1.260 . S
O123 Eu107 2.480 . S
O124 Eu107 2.430 . S
O124 C114 1.259 . S
O125 Eu97 2.355 1_455 S
O125 Eu107 2.670 1_545 S
O125 C114 1.270 1_545 S
O126 Eu107 2.394 . S
O126 C115 1.251 1_455 S
O127 Eu97 2.374 1_565 S
O127 C115 1.251 . S
H128 C99 0.931 . S
H129 C100 0.931 . S
H130 C102 0.931 1_455 S
H131 C103 0.931 1_455 S
H132 C109 0.931 1_556 S
H133 C110 0.931 . S
H134 C112 0.931 1_655 S
H135 C113 0.931 1_655 S
C136 Eu137 2.835 . S
C136 C138 1.500 . S
C136 O156 1.257 . S
C136 O157 1.260 . S
Eu137 C136 2.835 . S
Eu137 O156 2.473 . S
Eu137 O157 2.480 . S
Eu137 O158 2.430 . S
Eu137 O159 2.670 . S
Eu137 O160 2.394 . S
Eu137 O165 2.355 1_565 S
Eu137 O167 2.374 . S
C138 C136 1.500 . S
C138 C139 1.377 . S
C138 C143 1.377 . S
C139 C138 1.377 . S
C139 C140 1.395 . S
C139 H168 0.931 . S
C140 C139 1.395 . S
C140 C141 1.383 . S
C140 H169 0.931 . S
C141 C140 1.383 . S
C141 C142 1.394 . S
C142 C141 1.394 . S
C142 C143 1.378 . S
C142 H170 0.931 1_565 S
C143 C138 1.377 . S
C143 C142 1.378 . S
C143 H171 0.931 1_565 S
C144 O158 1.259 . S
C144 O159 1.270 . S
C145 O160 1.251 1_545 S
C145 O161 1.251 . S
C146 Eu147 2.835 . S
C146 C148 1.500 . S
C146 O162 1.257 . S
C146 O163 1.260 . S
Eu147 C146 2.835 . S
Eu147 O159 2.355 1_545 S
Eu147 O161 2.374 . S
Eu147 O162 2.473 . S
Eu147 O163 2.480 . S
Eu147 O164 2.430 . S
Eu147 O165 2.670 . S
Eu147 O166 2.394 . S
C148 C146 1.500 . S
C148 C149 1.377 1_556 S
C148 C153 1.377 1_556 S
C149 C148 1.377 1_554 S
C149 C150 1.395 . S
C149 H172 0.931 1_554 S
C150 C149 1.395 . S
C150 C151 1.383 . S
C150 H173 0.931 . S
C151 C150 1.383 . S
C151 C152 1.394 . S
C152 C151 1.394 . S
C152 C153 1.378 . S
C152 H174 0.931 1_545 S
C153 C148 1.377 1_554 S
C153 C152 1.378 . S
C153 H175 0.931 1_545 S
C154 O164 1.259 . S
C154 O165 1.270 . S
C155 O166 1.251 1_565 S
C155 O167 1.251 . S
O156 C136 1.257 . S
O156 Eu137 2.473 . S
O157 C136 1.260 . S
O157 Eu137 2.480 . S
O158 Eu137 2.430 . S
O158 C144 1.259 . S
O159 Eu137 2.670 . S
O159 C144 1.270 . S
O159 Eu147 2.355 1_565 S
O160 Eu137 2.394 . S
O160 C145 1.251 1_565 S
O161 C145 1.251 . S
O161 Eu147 2.374 . S
O162 C146 1.257 . S
O162 Eu147 2.473 . S
O163 C146 1.260 . S
O163 Eu147 2.480 . S
O164 Eu147 2.430 . S
O164 C154 1.259 . S
O165 Eu137 2.355 1_545 S
O165 Eu147 2.670 . S
O165 C154 1.270 . S
O166 Eu147 2.394 . S
O166 C155 1.251 1_545 S
O167 Eu137 2.374 . S
O167 C155 1.251 . S
H168 C139 0.931 . S
H169 C140 0.931 . S
H170 C142 0.931 1_545 S
H171 C143 0.931 1_545 S
H172 C149 0.931 1_556 S
H173 C150 0.931 . S
H174 C152 0.931 1_565 S
H175 C153 0.931 1_565 S
C176 Eu177 2.835 . S
C176 C178 1.500 . S
C176 O196 1.257 . S
C176 O197 1.260 . S
Eu177 C176 2.835 . S
Eu177 O196 2.473 . S
Eu177 O197 2.480 . S
Eu177 O198 2.430 . S
Eu177 O199 2.670 . S
Eu177 O200 2.394 . S
Eu177 O205 2.355 . S
Eu177 O207 2.374 . S
C178 C176 1.500 . S
C178 C179 1.377 . S
C178 C183 1.377 . S
C179 C178 1.377 . S
C179 C180 1.395 . S
C179 H208 0.931 . S
C180 C179 1.395 . S
C180 C181 1.383 . S
C180 H209 0.931 . S
C181 C180 1.383 . S
C181 C182 1.394 . S
C182 C181 1.394 . S
C182 C183 1.378 . S
C182 H210 0.931 . S
C183 C178 1.377 . S
C183 C182 1.378 . S
C183 H211 0.931 . S
C184 O198 1.259 . S
C184 O199 1.270 . S
C185 O200 1.251 . S
C185 O201 1.251 . S
C186 Eu187 2.835 . S
C186 C188 1.500 . S
C186 O202 1.257 . S
C186 O203 1.260 . S
Eu187 C186 2.835 . S
Eu187 O199 2.355 . S
Eu187 O201 2.374 . S
Eu187 O202 2.473 . S
Eu187 O203 2.480 . S
Eu187 O204 2.430 . S
Eu187 O205 2.670 . S
Eu187 O206 2.394 . S
C188 C186 1.500 . S
C188 C189 1.377 1_556 S
C188 C193 1.377 1_556 S
C189 C188 1.377 1_554 S
C189 C190 1.395 . S
C189 H212 0.931 1_554 S
C190 C189 1.395 . S
C190 C191 1.383 . S
C190 H213 0.931 . S
C191 C190 1.383 . S
C191 C192 1.394 . S
C192 C191 1.394 . S
C192 C193 1.378 . S
C192 H214 0.931 . S
C193 C188 1.377 1_554 S
C193 C192 1.378 . S
C193 H215 0.931 . S
C194 O204 1.259 . S
C194 O205 1.270 . S
C195 O206 1.251 . S
C195 O207 1.251 . S
O196 C176 1.257 . S
O196 Eu177 2.473 . S
O197 C176 1.260 . S
O197 Eu177 2.480 . S
O198 Eu177 2.430 . S
O198 C184 1.259 . S
O199 Eu177 2.670 . S
O199 C184 1.270 . S
O199 Eu187 2.355 . S
O200 Eu177 2.394 . S
O200 C185 1.251 . S
O201 C185 1.251 . S
O201 Eu187 2.374 . S
O202 C186 1.257 . S
O202 Eu187 2.473 . S
O203 C186 1.260 . S
O203 Eu187 2.480 . S
O204 Eu187 2.430 . S
O204 C194 1.259 . S
O205 Eu177 2.355 . S
O205 Eu187 2.670 . S
O205 C194 1.270 . S
O206 Eu187 2.394 . S
O206 C195 1.251 . S
O207 Eu177 2.374 . S
O207 C195 1.251 . S
H208 C179 0.931 . S
H209 C180 0.931 . S
H210 C182 0.931 . S
H211 C183 0.931 . S
H212 C189 0.931 1_556 S
H213 C190 0.931 . S
H214 C192 0.931 . S
H215 C193 0.931 . S
C216 Eu217 2.835 . S
C216 C218 1.500 . S
C216 O236 1.257 . S
C216 O237 1.260 . S
Eu217 C216 2.835 . S
Eu217 O236 2.473 . S
Eu217 O237 2.480 . S
Eu217 O238 2.430 . S
Eu217 O239 2.670 1_455 S
Eu217 O240 2.394 . S
Eu217 O245 2.355 . S
Eu217 O247 2.374 1_455 S
C218 C216 1.500 . S
C218 C219 1.377 . S
C218 C223 1.377 . S
C219 C218 1.377 . S
C219 C220 1.395 . S
C219 H248 0.931 . S
C220 C219 1.395 . S
C220 C221 1.383 . S
C220 H249 0.931 . S
C221 C220 1.383 . S
C221 C222 1.394 . S
C222 C221 1.394 . S
C222 C223 1.378 . S
C222 H250 0.931 . S
C223 C218 1.377 . S
C223 C222 1.378 . S
C223 H251 0.931 . S
C224 O238 1.269 . S
C224 O239 1.262 1_455 S
C225 O240 1.251 . S
C225 O241 1.251 . S
C226 Eu227 2.835 . S
C226 C228 1.500 . S
C226 O242 1.257 . S
C226 O243 1.260 . S
Eu227 C226 2.835 . S
Eu227 O239 2.355 . S
Eu227 O241 2.374 1_655 S
Eu227 O242 2.473 . S
Eu227 O243 2.480 . S
Eu227 O244 2.430 . S
Eu227 O245 2.670 1_655 S
Eu227 O246 2.394 . S
C228 C226 1.500 . S
C228 C229 1.377 1_556 S
C228 C233 1.377 1_556 S
C229 C228 1.377 1_554 S
C229 C230 1.395 . S
C229 H252 0.931 1_554 S
C230 C229 1.395 . S
C230 C231 1.383 . S
C230 H253 0.931 . S
C231 C230 1.383 . S
C231 C232 1.394 . S
C232 C231 1.394 . S
C232 C233 1.378 . S
C232 H254 0.931 . S
C233 C228 1.377 1_554 S
C233 C232 1.378 . S
C233 H255 0.931 . S
C234 O244 1.264 . S
C234 O245 1.266 1_655 S
C235 O246 1.251 . S
C235 O247 1.251 . S
O236 C216 1.257 . S
O236 Eu217 2.473 . S
O237 C216 1.260 . S
O237 Eu217 2.480 . S
O238 Eu217 2.430 . S
O238 C224 1.269 . S
O239 Eu217 2.670 1_655 S
O239 C224 1.262 1_655 S
O239 Eu227 2.355 . S
O240 Eu217 2.394 . S
O240 C225 1.251 . S
O241 C225 1.251 . S
O241 Eu227 2.374 1_455 S
O242 C226 1.257 . S
O242 Eu227 2.473 . S
O243 C226 1.260 . S
O243 Eu227 2.480 . S
O244 Eu227 2.430 . S
O244 C234 1.264 . S
O245 Eu217 2.355 . S
O245 Eu227 2.670 1_455 S
O245 C234 1.266 1_455 S
O246 Eu227 2.394 . S
O246 C235 1.251 . S
O247 Eu217 2.374 1_655 S
O247 C235 1.251 . S
H248 C219 0.931 . S
H249 C220 0.931 . S
H250 C222 0.931 . S
H251 C223 0.931 . S
H252 C229 0.931 1_556 S
H253 C230 0.931 . S
H254 C232 0.931 . S
H255 C233 0.931 . S
H256 C262 0.930 . S
H257 C266 0.930 . S
H258 C271 0.929 . S
H259 C269 0.929 . S
H260 C264 0.929 . S
H261 C270 0.929 . S
C262 H256 0.930 . S
C262 C263 1.391 . S
C262 C270 1.378 . S
C263 C262 1.391 . S
C263 C271 1.409 1_545 S
C264 H260 0.929 . S
C264 C266 1.378 . S
C264 C268 1.370 . S
C265 C268 1.461 1_545 S
C265 C270 1.388 . S
C265 N273 1.389 1_545 S
C266 H257 0.930 . S
C266 C264 1.378 . S
C266 C267 1.373 . S
C267 C266 1.373 . S
C267 C269 1.427 1_565 S
C268 C264 1.370 . S
C268 C265 1.461 1_565 S
C268 N272 1.407 1_565 S
C269 H259 0.929 . S
C269 C267 1.427 1_545 S
C269 N272 1.384 . S
C270 H261 0.929 . S
C270 C262 1.378 . S
C270 C265 1.388 . S
C271 H258 0.929 . S
C271 C263 1.409 1_565 S
C271 N273 1.384 . S
N272 C268 1.407 1_545 S
N272 C269 1.384 . S
N273 C265 1.389 1_565 S
N273 C271 1.384 . S
H274 C280 0.930 . S
H275 C284 0.930 . S
H276 C289 0.929 . S
H277 C287 0.929 . S
H278 C282 0.929 . S
H279 C288 0.929 . S
C280 H274 0.930 . S
C280 C281 1.367 . S
C280 C288 1.378 . S
C281 C280 1.367 . S
C281 C289 1.433 . S
C282 H278 0.929 . S
C282 C284 1.378 . S
C282 C286 1.350 . S
C283 C286 1.463 . S
C283 C288 1.350 . S
C283 N291 1.427 . S
C284 H275 0.930 . S
C284 C282 1.378 . S
C284 C285 1.367 . S
C285 C284 1.367 . S
C285 C287 1.433 . S
C286 C282 1.350 . S
C286 C283 1.463 . S
C286 N290 1.427 . S
C287 H277 0.929 . S
C287 C285 1.433 . S
C287 N290 1.384 . S
C288 H279 0.929 . S
C288 C280 1.378 . S
C288 C283 1.350 . S
C289 H276 0.929 . S
C289 C281 1.433 . S
C289 N291 1.384 . S
N290 C286 1.427 . S
N290 C287 1.384 . S
N291 C283 1.427 . S
N291 C289 1.384 . S
H292 C298 0.930 . S
H293 C302 0.930 . S
H294 C307 0.929 . S
H295 C305 0.929 . S
H296 C300 0.929 . S
H297 C306 0.929 . S
C298 H292 0.930 . S
C298 C299 1.367 . S
C298 C306 1.378 . S
C299 C298 1.367 . S
C299 C307 1.433 . S
C300 H296 0.929 . S
C300 C302 1.378 . S
C300 C304 1.350 . S
C301 C304 1.463 . S
C301 C306 1.350 . S
C301 N309 1.427 . S
C302 H293 0.930 . S
C302 C300 1.378 . S
C302 C303 1.367 . S
C303 C302 1.367 . S
C303 C305 1.433 . S
C304 C300 1.350 . S
C304 C301 1.463 . S
C304 N308 1.427 . S
C305 H295 0.929 . S
C305 C303 1.433 . S
C305 N308 1.384 . S
C306 H297 0.929 . S
C306 C298 1.378 . S
C306 C301 1.350 . S
C307 H294 0.929 . S
C307 C299 1.433 . S
C307 N309 1.384 . S
N308 C304 1.427 . S
N308 C305 1.384 . S
N309 C301 1.427 . S
N309 C307 1.384 . S
H310 C316 0.930 . S
H311 C320 0.930 . S
H312 C325 0.929 . S
H313 C323 0.929 . S
H314 C318 0.929 . S
H315 C324 0.929 . S
C316 H310 0.930 . S
C316 C317 1.370 . S
C316 C324 1.378 . S
C317 C316 1.370 . S
C317 C325 1.430 1_655 S
C318 H314 0.929 . S
C318 C320 1.378 . S
C318 C322 1.350 . S
C319 C322 1.462 1_655 S
C319 C324 1.350 . S
C319 N327 1.427 1_655 S
C320 H311 0.930 . S
C320 C318 1.378 . S
C320 C321 1.367 . S
C321 C320 1.367 . S
C321 C323 1.433 1_455 S
C322 C318 1.350 . S
C322 C319 1.462 1_455 S
C322 N326 1.427 1_455 S
C323 H313 0.929 . S
C323 C321 1.433 1_655 S
C323 N326 1.384 . S
C324 H315 0.929 . S
C324 C316 1.378 . S
C324 C319 1.350 . S
C325 H312 0.929 . S
C325 C317 1.430 1_455 S
C325 N327 1.384 . S
N326 C322 1.427 1_655 S
N326 C323 1.384 . S
N327 C319 1.427 1_455 S
N327 C325 1.384 . S
H328 C334 0.930 . S
H329 C338 0.930 . S
H330 C343 0.929 . S
H331 C341 0.929 . S
H332 C336 0.929 . S
H333 C342 0.929 . S
C334 H328 0.930 . S
C334 C335 1.390 . S
C334 C342 1.378 . S
C335 C334 1.390 . S
C335 C343 1.410 1_545 S
C336 H332 0.929 . S
C336 C338 1.378 1_554 S
C336 C340 1.381 . S
C337 C340 1.460 1_545 S
C337 C342 1.382 . S
C337 N345 1.396 1_545 S
C338 H329 0.930 . S
C338 C336 1.378 1_556 S
C338 C339 1.389 . S
C339 C338 1.389 . S
C339 C341 1.410 1_565 S
C340 C336 1.381 . S
C340 C337 1.460 1_565 S
C340 N344 1.396 1_565 S
C341 H331 0.929 . S
C341 C339 1.410 1_545 S
C341 N344 1.384 1_556 S
C342 H333 0.929 . S
C342 C334 1.378 . S
C342 C337 1.382 . S
C343 H330 0.929 . S
C343 C335 1.410 1_565 S
C343 N345 1.384 . S
N344 C340 1.396 1_545 S
N344 C341 1.384 1_554 S
N345 C337 1.396 1_565 S
N345 C343 1.384 . S
H346 C352 0.930 . S
H347 C356 0.930 . S
H348 C361 0.929 . S
H349 C359 0.929 . S
H350 C354 0.929 . S
H351 C360 0.929 . S
C352 H346 0.930 . S
C352 C353 1.367 . S
C352 C360 1.378 . S
C353 C352 1.367 . S
C353 C361 1.433 . S
C354 H350 0.929 . S
C354 C356 1.378 1_554 S
C354 C358 1.350 . S
C355 C358 1.463 . S
C355 C360 1.350 . S
C355 N363 1.427 . S
C356 H347 0.930 . S
C356 C354 1.378 1_556 S
C356 C357 1.367 . S
C357 C356 1.367 . S
C357 C359 1.433 1_556 S
C358 C354 1.350 . S
C358 C355 1.463 . S
C358 N362 1.427 . S
C359 H349 0.929 . S
C359 C357 1.433 1_554 S
C359 N362 1.384 . S
C360 H351 0.929 . S
C360 C352 1.378 . S
C360 C355 1.350 . S
C361 H348 0.929 . S
C361 C353 1.433 . S
C361 N363 1.384 . S
N362 C358 1.427 . S
N362 C359 1.384 . S
N363 C355 1.427 . S
N363 C361 1.384 . S
H364 C370 0.930 . S
H365 C374 0.930 . S
H366 C379 0.929 . S
H367 C377 0.929 . S
H368 C372 0.929 . S
H369 C378 0.929 . S
C370 H364 0.930 . S
C370 C371 1.367 . S
C370 C378 1.378 . S
C371 C370 1.367 . S
C371 C379 1.433 . S
C372 H368 0.929 . S
C372 C374 1.378 . S
C372 C376 1.350 . S
C373 C376 1.463 . S
C373 C378 1.350 . S
C373 N381 1.427 . S
C374 H365 0.930 . S
C374 C372 1.378 . S
C374 C375 1.367 1_554 S
C375 C374 1.367 1_556 S
C375 C377 1.433 . S
C376 C372 1.350 . S
C376 C373 1.463 . S
C376 N380 1.427 . S
C377 H367 0.929 . S
C377 C375 1.433 . S
C377 N380 1.384 1_556 S
C378 H369 0.929 . S
C378 C370 1.378 . S
C378 C373 1.350 . S
C379 H366 0.929 . S
C379 C371 1.433 . S
C379 N381 1.384 . S
N380 C376 1.427 . S
N380 C377 1.384 1_554 S
N381 C373 1.427 . S
N381 C379 1.384 . S
H382 C388 0.930 . S
H383 C392 0.930 . S
H384 C397 0.929 . S
H385 C395 0.929 . S
H386 C390 0.929 . S
H387 C396 0.929 . S
C388 H382 0.930 . S
C388 C389 1.395 . S
C388 C396 1.378 . S
C389 C388 1.395 . S
C389 C397 1.405 1_655 S
C390 H386 0.929 . S
C390 C392 1.378 1_554 S
C390 C394 1.350 . S
C391 C394 1.462 1_655 S
C391 C396 1.350 . S
C391 N399 1.427 1_655 S
C392 H383 0.930 . S
C392 C390 1.378 1_556 S
C392 C393 1.353 1_455 S
C393 C392 1.353 1_655 S
C393 C395 1.447 . S
C394 C390 1.350 . S
C394 C391 1.462 1_455 S
C394 N398 1.427 1_455 S
C395 H385 0.929 . S
C395 C393 1.447 . S
C395 N398 1.384 1_556 S
C396 H387 0.929 . S
C396 C388 1.378 . S
C396 C391 1.350 . S
C397 H384 0.929 . S
C397 C389 1.405 1_455 S
C397 N399 1.384 . S
N398 C394 1.427 1_655 S
N398 C395 1.384 1_554 S
N399 C391 1.427 1_455 S
N399 C397 1.384 . S
H400 C406 0.930 . S
H401 C410 0.930 . S
H402 C415 0.929 . S
H403 C413 0.929 . S
H404 C408 0.929 . S
H405 C414 0.929 . S
C406 H400 0.930 . S
C406 C407 1.367 1_655 S
C406 C414 1.378 . S
C407 C406 1.367 1_455 S
C407 C415 1.433 . S
C408 H404 0.929 . S
C408 C410 1.378 . S
C408 C412 1.350 . S
C409 C412 1.463 . S
C409 C414 1.350 . S
C409 N417 1.446 . S
C410 H401 0.930 . S
C410 C408 1.378 . S
C410 C411 1.367 . S
C411 C410 1.367 . S
C411 C413 1.433 . S
C412 C408 1.350 . S
C412 C409 1.463 . S
C412 N416 1.427 . S
C413 H403 0.929 . S
C413 C411 1.433 . S
C413 N416 1.384 . S
C414 H405 0.929 . S
C414 C406 1.378 . S
C414 C409 1.350 . S
C415 H402 0.929 . S
C415 C407 1.433 . S
C415 N417 1.372 1_455 S
N416 C412 1.427 . S
N416 C413 1.384 . S
N417 C409 1.446 . S
N417 C415 1.372 1_655 S
H418 C424 0.930 . S
H419 C428 0.930 . S
H420 C433 0.929 . S
H421 C431 0.929 . S
H422 C426 0.929 . S
H423 C432 0.929 . S
C424 H418 0.930 . S
C424 C425 1.367 . S
C424 C432 1.378 . S
C425 C424 1.367 . S
C425 C433 1.433 1_545 S
C426 H422 0.929 . S
C426 C428 1.378 . S
C426 C430 1.350 . S
C427 C430 1.463 . S
C427 C432 1.350 1_565 S
C427 N435 1.427 . S
C428 H419 0.930 . S
C428 C426 1.378 . S
C428 C429 1.367 . S
C429 C428 1.367 . S
C429 C431 1.433 . S
C430 C426 1.350 . S
C430 C427 1.463 . S
C430 N434 1.427 . S
C431 H421 0.929 . S
C431 C429 1.433 . S
C431 N434 1.384 . S
C432 H423 0.929 . S
C432 C424 1.378 . S
C432 C427 1.350 1_545 S
C433 H420 0.929 . S
C433 C425 1.433 1_565 S
C433 N435 1.384 . S
N434 C430 1.427 . S
N434 C431 1.384 . S
N435 C427 1.427 . S
N435 C433 1.384 . S
H436 C442 0.930 . S
H437 C446 0.930 . S
H438 C451 0.929 . S
H439 C449 0.929 . S
H440 C444 0.929 . S
H441 C450 0.929 . S
C442 H436 0.930 . S
C442 C443 1.367 . S
C442 C450 1.378 . S
C443 C442 1.367 . S
C443 C451 1.433 . S
C444 H440 0.929 . S
C444 C446 1.378 . S
C444 C448 1.350 . S
C445 C448 1.463 . S
C445 C450 1.350 . S
C445 N453 1.427 . S
C446 H437 0.930 . S
C446 C444 1.378 . S
C446 C447 1.367 . S
C447 C446 1.367 . S
C447 C449 1.433 . S
C448 C444 1.350 . S
C448 C445 1.463 . S
C448 N452 1.427 . S
C449 H439 0.929 . S
C449 C447 1.433 . S
C449 N452 1.384 . S
C450 H441 0.929 . S
C450 C442 1.378 . S
C450 C445 1.350 . S
C451 H438 0.929 . S
C451 C443 1.433 . S
C451 N453 1.384 . S
N452 C448 1.427 . S
N452 C449 1.384 . S
N453 C445 1.427 . S
N453 C451 1.384 . S
H454 C460 0.930 . S
H455 C464 0.930 . S
H456 C469 0.929 . S
H457 C467 0.929 . S
H458 C462 0.929 . S
H459 C468 0.929 . S
C460 H454 0.930 . S
C460 C461 1.367 . S
C460 C468 1.378 . S
C461 C460 1.367 . S
C461 C469 1.433 . S
C462 H458 0.929 . S
C462 C464 1.378 . S
C462 C466 1.350 . S
C463 C466 1.463 . S
C463 C468 1.350 . S
C463 N471 1.427 . S
C464 H455 0.930 . S
C464 C462 1.378 . S
C464 C465 1.367 . S
C465 C464 1.367 . S
C465 C467 1.433 . S
C466 C462 1.350 . S
C466 C463 1.463 . S
C466 N470 1.427 . S
C467 H457 0.929 . S
C467 C465 1.433 . S
C467 N470 1.384 . S
C468 H459 0.929 . S
C468 C460 1.378 . S
C468 C463 1.350 . S
C469 H456 0.929 . S
C469 C461 1.433 . S
C469 N471 1.384 . S
N470 C466 1.427 . S
N470 C467 1.384 . S
N471 C463 1.427 . S
N471 C469 1.384 . S
H472 C478 0.930 1_655 S
H473 C482 0.930 1_556 S
H474 C487 0.926 1_655 S
H475 C485 0.929 . S
H476 C480 0.929 . S
H477 C486 0.929 . S
C478 H472 0.930 1_455 S
C478 C479 1.367 1_455 S
C478 C486 1.378 . S
C479 C478 1.367 1_655 S
C479 C487 1.433 1_655 S
C480 H476 0.929 . S
C480 C482 1.378 . S
C480 C484 1.350 . S
C481 C484 1.463 . S
C481 C486 1.350 . S
C481 N489 1.427 . S
C482 H473 0.930 1_554 S
C482 C480 1.378 . S
C482 C483 1.367 . S
C483 C482 1.367 . S
C483 C485 1.433 . S
C484 C480 1.350 . S
C484 C481 1.463 . S
C484 N488 1.427 . S
C485 H475 0.929 . S
C485 C483 1.433 . S
C485 N488 1.384 . S
C486 H477 0.929 . S
C486 C478 1.378 . S
C486 C481 1.350 . S
C487 H474 0.926 1_455 S
C487 C479 1.433 1_455 S
C487 N489 1.384 . S
N488 C484 1.427 . S
N488 C485 1.384 . S
N489 C481 1.427 . S
N489 C487 1.384 . S
H490 C496 0.930 . S
H491 C500 0.930 . S
H492 C505 0.929 . S
H493 C503 0.929 . S
H494 C498 0.929 1_565 S
H495 C504 0.929 . S
C496 H490 0.930 . S
C496 C497 1.367 1_545 S
C496 C504 1.378 . S
C497 C496 1.367 1_565 S
C497 C505 1.433 . S
C498 H494 0.929 1_545 S
C498 C500 1.378 . S
C498 C502 1.350 . S
C499 C502 1.463 . S
C499 C504 1.350 . S
C499 N507 1.427 1_545 S
C500 H491 0.930 . S
C500 C498 1.378 . S
C500 C501 1.367 . S
C501 C500 1.367 . S
C501 C503 1.433 . S
C502 C498 1.350 . S
C502 C499 1.463 . S
C502 N506 1.427 . S
C503 H493 0.929 . S
C503 C501 1.433 . S
C503 N506 1.384 . S
C504 H495 0.929 . S
C504 C496 1.378 . S
C504 C499 1.350 . S
C505 H492 0.929 . S
C505 C497 1.433 . S
C505 N507 1.384 . S
N506 C502 1.427 . S
N506 C503 1.384 . S
N507 C499 1.427 1_565 S
N507 C505 1.384 . S
H508 C514 0.930 . S
H509 C518 0.930 . S
H510 C523 0.929 . S
H511 C521 0.929 . S
H512 C516 0.929 . S
H513 C522 0.929 . S
C514 H508 0.930 . S
C514 C515 1.367 . S
C514 C522 1.378 . S
C515 C514 1.367 . S
C515 C523 1.433 . S
C516 H512 0.929 . S
C516 C518 1.378 . S
C516 C520 1.350 . S
C517 C520 1.463 . S
C517 C522 1.350 . S
C517 N525 1.427 . S
C518 H509 0.930 . S
C518 C516 1.378 . S
C518 C519 1.367 . S
C519 C518 1.367 . S
C519 C521 1.433 . S
C520 C516 1.350 . S
C520 C517 1.463 . S
C520 N524 1.427 . S
C521 H511 0.929 . S
C521 C519 1.433 . S
C521 N524 1.384 . S
C522 H513 0.929 . S
C522 C514 1.378 . S
C522 C517 1.350 . S
C523 H510 0.929 . S
C523 C515 1.433 . S
C523 N525 1.384 . S
N524 C520 1.427 . S
N524 C521 1.384 . S
N525 C517 1.427 . S
N525 C523 1.384 . S
H526 C532 0.930 . S
H527 C536 0.930 . S
H528 C541 0.929 . S
H529 C539 0.929 . S
H530 C534 0.929 . S
H531 C540 0.929 . S
C532 H526 0.930 . S
C532 C533 1.367 . S
C532 C540 1.378 . S
C533 C532 1.367 . S
C533 C541 1.433 . S
C534 H530 0.929 . S
C534 C536 1.378 . S
C534 C538 1.350 . S
C535 C538 1.463 . S
C535 C540 1.350 . S
C535 N543 1.427 . S
C536 H527 0.930 . S
C536 C534 1.378 . S
C536 C537 1.367 . S
C537 C536 1.367 . S
C537 C539 1.433 . S
C538 C534 1.350 . S
C538 C535 1.463 . S
C538 N542 1.427 . S
C539 H529 0.929 . S
C539 C537 1.433 . S
C539 N542 1.384 . S
C540 H531 0.929 . S
C540 C532 1.378 . S
C540 C535 1.350 . S
C541 H528 0.929 . S
C541 C533 1.433 . S
C541 N543 1.384 . S
N542 C538 1.427 . S
N542 C539 1.384 . S
N543 C535 1.427 . S
N543 C541 1.384 . S
H544 C550 0.930 . S
H545 C554 0.930 . S
H546 C559 0.929 1_554 S
H547 C557 0.929 . S
H548 C552 0.929 . S
H549 C558 0.929 . S
C550 H544 0.930 . S
C550 C551 1.367 . S
C550 C558 1.378 . S
C551 C550 1.367 . S
C551 C559 1.433 1_455 S
C552 H548 0.929 . S
C552 C554 1.378 . S
C552 C556 1.350 1_655 S
C553 C556 1.463 . S
C553 C558 1.350 . S
C553 N561 1.427 1_455 S
C554 H545 0.930 . S
C554 C552 1.378 . S
C554 C555 1.367 1_655 S
C555 C554 1.367 1_455 S
C555 C557 1.433 . S
C556 C552 1.350 1_455 S
C556 C553 1.463 . S
C556 N560 1.427 . S
C557 H547 0.929 . S
C557 C555 1.433 . S
C557 N560 1.384 . S
C558 H549 0.929 . S
C558 C550 1.378 . S
C558 C553 1.350 . S
C559 H546 0.929 1_556 S
C559 C551 1.433 1_655 S
C559 N561 1.384 . S
N560 C556 1.427 . S
N560 C557 1.384 . S
N561 C553 1.427 1_655 S
N561 C559 1.384 . S
H562 C568 0.930 . S
H563 C572 0.930 . S
H564 C577 0.929 . S
H565 C575 0.929 . S
H566 C570 0.929 . S
H567 C576 0.929 . S
C568 H562 0.930 . S
C568 C569 1.367 1_565 S
C568 C576 1.378 . S
C569 C568 1.367 1_545 S
C569 C577 1.433 . S
C570 H566 0.929 . S
C570 C572 1.378 . S
C570 C574 1.350 . S
C571 C574 1.463 . S
C571 C576 1.350 1_545 S
C571 N579 1.427 . S
C572 H563 0.930 . S
C572 C570 1.378 . S
C572 C573 1.367 . S
C573 C572 1.367 . S
C573 C575 1.433 1_545 S
C574 C570 1.350 . S
C574 C571 1.463 . S
C574 N578 1.427 1_545 S
C575 H565 0.929 . S
C575 C573 1.433 1_565 S
C575 N578 1.384 . S
C576 H567 0.929 . S
C576 C568 1.378 . S
C576 C571 1.350 1_565 S
C577 H564 0.929 . S
C577 C569 1.433 . S
C577 N579 1.384 . S
N578 C574 1.427 1_565 S
N578 C575 1.384 . S
N579 C571 1.427 . S
N579 C577 1.384 . S
H580 C586 0.930 1_554 S
H581 C590 0.930 . S
H582 C595 0.929 . S
H583 C593 0.929 . S
H584 C588 0.929 . S
H585 C594 0.929 1_554 S
C586 H580 0.930 1_556 S
C586 C587 1.367 . S
C586 C594 1.378 . S
C587 C586 1.367 . S
C587 C595 1.433 . S
C588 H584 0.929 . S
C588 C590 1.378 . S
C588 C592 1.350 . S
C589 C592 1.463 . S
C589 C594 1.350 . S
C589 N597 1.427 . S
C590 H581 0.930 . S
C590 C588 1.378 . S
C590 C591 1.367 . S
C591 C590 1.367 . S
C591 C593 1.433 . S
C592 C588 1.350 . S
C592 C589 1.463 . S
C592 N596 1.427 . S
C593 H583 0.929 . S
C593 C591 1.433 . S
C593 N596 1.384 . S
C594 H585 0.929 1_556 S
C594 C586 1.378 . S
C594 C589 1.350 . S
C595 H582 0.929 . S
C595 C587 1.433 . S
C595 N597 1.384 . S
N596 C592 1.427 . S
N596 C593 1.384 . S
N597 C589 1.427 . S
N597 C595 1.384 . S
H598 C604 0.930 . S
H599 C608 0.930 . S
H600 C613 0.929 1_554 S
H601 C611 0.929 . S
H602 C606 0.929 . S
H603 C612 0.929 . S
C604 H598 0.930 . S
C604 C605 1.367 . S
C604 C612 1.378 . S
C605 C604 1.367 . S
C605 C613 1.433 . S
C606 H602 0.929 . S
C606 C608 1.378 . S
C606 C610 1.350 . S
C607 C610 1.463 . S
C607 C612 1.350 . S
C607 N615 1.427 . S
C608 H599 0.930 . S
C608 C606 1.378 . S
C608 C609 1.367 . S
C609 C608 1.367 . S
C609 C611 1.433 . S
C610 C606 1.350 . S
C610 C607 1.463 . S
C610 N614 1.427 . S
C611 H601 0.929 . S
C611 C609 1.433 . S
C611 N614 1.384 . S
C612 H603 0.929 . S
C612 C604 1.378 . S
C612 C607 1.350 . S
C613 H600 0.929 1_556 S
C613 C605 1.433 . S
C613 N615 1.384 . S
N614 C610 1.427 . S
N614 C611 1.384 . S
N615 C607 1.427 . S
N615 C613 1.384 . S
H616 C622 0.930 . S
H617 C626 0.930 . S
H618 C631 0.929 . S
H619 C629 0.929 . S
H620 C624 0.929 . S
H621 C630 0.929 . S
C622 H616 0.930 . S
C622 C623 1.367 . S
C622 C630 1.378 . S
C623 C622 1.367 . S
C623 C631 1.433 1_655 S
C624 H620 0.929 . S
C624 C626 1.378 . S
C624 C628 1.350 1_455 S
C625 C628 1.463 . S
C625 C630 1.350 . S
C625 N633 1.427 1_655 S
C626 H617 0.930 . S
C626 C624 1.378 . S
C626 C627 1.367 1_455 S
C627 C626 1.367 1_655 S
C627 C629 1.433 . S
C628 C624 1.350 1_655 S
C628 C625 1.463 . S
C628 N632 1.427 . S
C629 H619 0.929 . S
C629 C627 1.433 . S
C629 N632 1.384 . S
C630 H621 0.929 . S
C630 C622 1.378 . S
C630 C625 1.350 . S
C631 H618 0.929 . S
C631 C623 1.433 1_455 S
C631 N633 1.384 . S
N632 C628 1.427 . S
N632 C629 1.384 . S
N633 C625 1.427 1_455 S
N633 C631 1.384 . S
H634 C640 0.930 . S
H635 C644 0.930 . S
H636 C649 0.929 . S
H637 C647 0.929 . S
H638 C642 0.929 . S
H639 C648 0.929 . S
C640 H634 0.930 . S
C640 C641 1.367 . S
C640 C648 1.378 . S
C641 C640 1.367 . S
C641 C649 1.433 . S
C642 H638 0.929 . S
C642 C644 1.378 . S
C642 C646 1.350 . S
C643 C646 1.463 . S
C643 C648 1.350 . S
C643 N651 1.427 . S
C644 H635 0.930 . S
C644 C642 1.378 . S
C644 C645 1.367 . S
C645 C644 1.367 . S
C645 C647 1.433 . S
C646 C642 1.350 . S
C646 C643 1.463 . S
C646 N650 1.427 . S
C647 H637 0.929 . S
C647 C645 1.433 . S
C647 N650 1.384 . S
C648 H639 0.929 . S
C648 C640 1.378 . S
C648 C643 1.350 . S
C649 H636 0.929 . S
C649 C641 1.433 . S
C649 N651 1.384 . S
N650 C646 1.427 . S
N650 C647 1.384 . S
N651 C643 1.427 . S
N651 C649 1.384 . S
H652 C658 0.930 . S
H653 C662 0.930 . S
H654 C667 0.929 . S
H655 C665 0.929 . S
H656 C660 0.929 . S
H657 C666 0.929 . S
C658 H652 0.930 . S
C658 C659 1.367 . S
C658 C666 1.378 . S
C659 C658 1.367 . S
C659 C667 1.433 . S
C660 H656 0.929 . S
C660 C662 1.378 . S
C660 C664 1.350 . S
C661 C664 1.463 . S
C661 C666 1.350 . S
C661 N669 1.427 . S
C662 H653 0.930 . S
C662 C660 1.378 . S
C662 C663 1.367 . S
C663 C662 1.367 . S
C663 C665 1.433 . S
C664 C660 1.350 . S
C664 C661 1.463 . S
C664 N668 1.427 . S
C665 H655 0.929 . S
C665 C663 1.433 . S
C665 N668 1.384 . S
C666 H657 0.929 . S
C666 C658 1.378 . S
C666 C661 1.350 . S
C667 H654 0.929 . S
C667 C659 1.433 . S
C667 N669 1.384 . S
N668 C664 1.427 . S
N668 C665 1.384 . S
N669 C661 1.427 . S
N669 C667 1.384 . S
H670 C676 0.930 . S
H671 C680 0.930 . S
H672 C685 0.929 . S
H673 C683 0.929 . S
H674 C678 0.929 . S
H675 C684 0.929 . S
C676 H670 0.930 . S
C676 C677 1.367 . S
C676 C684 1.378 . S
C677 C676 1.367 . S
C677 C685 1.433 . S
C678 H674 0.929 . S
C678 C680 1.378 . S
C678 C682 1.350 . S
C679 C682 1.463 . S
C679 C684 1.350 . S
C679 N687 1.427 . S
C680 H671 0.930 . S
C680 C678 1.378 . S
C680 C681 1.367 . S
C681 C680 1.367 . S
C681 C683 1.433 . S
C682 C678 1.350 . S
C682 C679 1.463 . S
C682 N686 1.427 . S
C683 H673 0.929 . S
C683 C681 1.433 . S
C683 N686 1.384 . S
C684 H675 0.929 . S
C684 C676 1.378 . S
C684 C679 1.350 . S
C685 H672 0.929 . S
C685 C677 1.433 . S
C685 N687 1.384 . S
N686 C682 1.427 . S
N686 C683 1.384 . S
N687 C679 1.427 . S
N687 C685 1.384 . S
C263 C76 1.836 1_545 S
C267 C114 1.995 . S
C285 C154 2.012 . S
C281 C88 1.839 . S
C303 C194 2.016 . S
C299 C52 1.862 . S
C321 C234 2.005 1_455 S
C317 C64 1.847 . S
C339 C104 2.000 1_565 S
C335 C28 1.840 1_545 S
C353 C40 1.850 . S
C357 C144 2.012 . S
C371 C4 1.848 . S
C375 C184 2.019 . S
C389 C16 1.844 . S
C393 C224 2.005 1_655 S
C411 C101 0.461 . S
C407 C69 0.491 . S
C429 C141 0.483 . S
C425 C81 0.487 . S
C447 C181 0.475 . S
C443 C93 0.474 . S
C461 C57 0.496 . S
C465 C221 0.481 . S
C479 C21 0.465 1_655 S
C483 C111 0.459 . S
C501 C151 0.468 . S
C497 C33 0.499 1_565 S
C519 C191 0.496 . S
C515 C45 0.516 . S
C533 C9 0.508 . S
C537 C231 0.487 . S
C551 C66 2.076 . S
C555 C105 2.292 . S
C569 C78 2.047 . S
C573 C145 2.271 . S
C591 C185 2.253 . S
C587 C90 2.016 . S
C609 C225 2.282 . S
C605 C54 2.056 . S
C623 C18 2.071 1_655 S
C627 C115 2.303 . S
C645 C155 2.269 . S
C641 C30 2.037 1_565 S
C663 C195 2.250 . S
C659 C42 2.029 . S
C677 C6 2.060 . S
C681 C235 2.285 . S
