# Generated by pormake.
# Topology pyr, (3,6)-cn, num edge types: 1
# Building blocks:
#     Node 0, Type 0, BuildingBlock: BETDIP_clean_linker_0, # of connection points: 3
#     Node 1, Type 0, BuildingBlock: BETDIP_clean_linker_0, # of connection points: 3
#     Node 2, Type 0, BuildingBlock: BETDIP_clean_linker_0, # of connection points: 3
#     Node 3, Type 0, BuildingBlock: BETDIP_clean_linker_0, # of connection points: 3
#     Node 4, Type 0, BuildingBlock: BETDIP_clean_linker_0, # of connection points: 3
#     Node 5, Type 0, BuildingBlock: BETDIP_clean_linker_0, # of connection points: 3
#     Node 6, Type 0, BuildingBlock: BETDIP_clean_linker_0, # of connection points: 3
#     Node 7, Type 0, BuildingBlock: BETDIP_clean_linker_0, # of connection points: 3
#     Node 8, Type 1, BuildingBlock: PAMTUU_clean_sbu_0, # of connection points: 6
#     Node 9, Type 1, BuildingBlock: PAMTUU_clean_sbu_0, # of connection points: 6
#     Node 10, Type 1, BuildingBlock: PAMTUU_clean_sbu_0, # of connection points: 6
#     Node 11, Type 1, BuildingBlock: PAMTUU_clean_sbu_0, # of connection points: 6
#     Edge 12, Type (0, 1), BuildingBlock: ZUJKAS_clean_linker_0, # of connection points: 2
#     Edge 13, Type (0, 1), BuildingBlock: ZUJKAS_clean_linker_0, # of connection points: 2
#     Edge 14, Type (0, 1), BuildingBlock: ZUJKAS_clean_linker_0, # of connection points: 2
#     Edge 15, Type (0, 1), BuildingBlock: ZUJKAS_clean_linker_0, # of connection points: 2
#     Edge 16, Type (0, 1), BuildingBlock: ZUJKAS_clean_linker_0, # of connection points: 2
#     Edge 17, Type (0, 1), BuildingBlock: ZUJKAS_clean_linker_0, # of connection points: 2
#     Edge 18, Type (0, 1), BuildingBlock: ZUJKAS_clean_linker_0, # of connection points: 2
#     Edge 19, Type (0, 1), BuildingBlock: ZUJKAS_clean_linker_0, # of connection points: 2
#     Edge 20, Type (0, 1), BuildingBlock: ZUJKAS_clean_linker_0, # of connection points: 2
#     Edge 21, Type (0, 1), BuildingBlock: ZUJKAS_clean_linker_0, # of connection points: 2
#     Edge 22, Type (0, 1), BuildingBlock: ZUJKAS_clean_linker_0, # of connection points: 2
#     Edge 23, Type (0, 1), BuildingBlock: ZUJKAS_clean_linker_0, # of connection points: 2
#     Edge 24, Type (0, 1), BuildingBlock: ZUJKAS_clean_linker_0, # of connection points: 2
#     Edge 25, Type (0, 1), BuildingBlock: ZUJKAS_clean_linker_0, # of connection points: 2
#     Edge 26, Type (0, 1), BuildingBlock: ZUJKAS_clean_linker_0, # of connection points: 2
#     Edge 27, Type (0, 1), BuildingBlock: ZUJKAS_clean_linker_0, # of connection points: 2
#     Edge 28, Type (0, 1), BuildingBlock: ZUJKAS_clean_linker_0, # of connection points: 2
#     Edge 29, Type (0, 1), BuildingBlock: ZUJKAS_clean_linker_0, # of connection points: 2
#     Edge 30, Type (0, 1), BuildingBlock: ZUJKAS_clean_linker_0, # of connection points: 2
#     Edge 31, Type (0, 1), BuildingBlock: ZUJKAS_clean_linker_0, # of connection points: 2
#     Edge 32, Type (0, 1), BuildingBlock: ZUJKAS_clean_linker_0, # of connection points: 2
#     Edge 33, Type (0, 1), BuildingBlock: ZUJKAS_clean_linker_0, # of connection points: 2
#     Edge 34, Type (0, 1), BuildingBlock: ZUJKAS_clean_linker_0, # of connection points: 2
#     Edge 35, Type (0, 1), BuildingBlock: ZUJKAS_clean_linker_0, # of connection points: 2
# Relax obj value: 0.092
# Max RMSD: 0.160
# Mean RMSD: 0.130
data_MOF--net-pyr--node1-PAMTUU_clean_sbu_0--node2-BETDIP_clean_linker_0--edge1-ZUJKAS_clean_linker_0
_symmetry_space_group_name_H-M    P1
_symmetry_Int_Tables_number       1
_symmetry_cell_setting            triclinic
loop_
_symmetry_equiv_pos_as_xyz
'x, y, z'
_cell_length_a     49.498222
_cell_length_b     49.616309
_cell_length_c     49.677169
_cell_angle_alpha  91.441391
_cell_angle_beta   87.526974
_cell_angle_gamma 105.32803
loop_
_atom_site_label
_atom_site_type_symbol
_atom_site_fract_x
_atom_site_fract_y
_atom_site_fract_z
_atom_type_partial_charge
H0 H 0.28134 0.27538 0.22543 0.0
H1 H 0.3344 0.26783 0.15652 0.0
H2 H 0.33057 0.21587 0.22531 0.0
H3 H 0.31694 0.29929 0.13765 0.0
C4 C 0.30002 0.30329 0.15038 0.0
C5 C 0.29696 0.26617 0.21588 0.0
C6 C 0.30511 0.24495 0.2288 0.0
C7 C 0.30711 0.27444 0.18988 0.0
C8 C 0.32637 0.26174 0.17666 0.0
C9 C 0.33522 0.24072 0.18948 0.0
C10 C 0.32451 0.23257 0.21558 0.0
N11 N 0.29564 0.29417 0.17746 0.0
H12 H 0.18315 0.80032 0.73713 0.0
H13 H 0.19324 0.75408 0.66469 0.0
H14 H 0.24949 0.75934 0.7292 0.0
H15 H 0.16922 0.77998 0.64616 0.0
C16 C 0.15767 0.78879 0.6615 0.0
C17 C 0.19416 0.78737 0.72565 0.0
C18 C 0.217 0.78035 0.73662 0.0
C19 C 0.18583 0.77869 0.69957 0.0
C20 C 0.19991 0.7617 0.68454 0.0
C21 C 0.22264 0.75414 0.69535 0.0
C22 C 0.23105 0.76373 0.72132 0.0
N23 N 0.16382 0.78833 0.68914 0.0
H24 H 0.7012 0.41154 0.83331 0.0
H25 H 0.62821 0.34105 0.83424 0.0
H26 H 0.69321 0.3458 0.89029 0.0
H27 H 0.62214 0.35538 0.79273 0.0
C28 C 0.6318 0.37764 0.79109 0.0
C29 C 0.68949 0.3918 0.84183 0.0
C30 C 0.70062 0.3804 0.86323 0.0
C31 C 0.6637 0.37771 0.83062 0.0
C32 C 0.64843 0.35178 0.84181 0.0
C33 C 0.65878 0.34014 0.8637 0.0
C34 C 0.68495 0.35464 0.87381 0.0
N35 N 0.65383 0.39069 0.80874 0.0
H36 H 0.82655 0.62713 0.35049 0.0
H37 H 0.90057 0.69614 0.34786 0.0
H38 H 0.8356 0.69464 0.40826 0.0
H39 H 0.90444 0.68257 0.30543 0.0
C40 C 0.89505 0.6602 0.30424 0.0
C41 C 0.83865 0.64685 0.35873 0.0
C42 C 0.82799 0.65922 0.38103 0.0
C43 C 0.86441 0.66021 0.34618 0.0
C44 C 0.88016 0.68597 0.35662 0.0
C45 C 0.86988 0.69848 0.3791 0.0
C46 C 0.84378 0.68496 0.39109 0.0
N47 N 0.87372 0.64695 0.32326 0.0
H48 H 0.67345 0.77475 0.91892 0.0
H49 H 0.72903 0.75848 0.85555 0.0
H50 H 0.70122 0.83343 0.85459 0.0
H51 H 0.69717 0.70952 0.86745 0.0
C52 C 0.70632 0.71507 0.88699 0.0
C53 C 0.68534 0.78095 0.90023 0.0
C54 C 0.68519 0.80617 0.88802 0.0
C55 C 0.70037 0.7633 0.88814 0.0
C56 C 0.71619 0.77138 0.86413 0.0
C57 C 0.71687 0.79679 0.85201 0.0
C58 C 0.70095 0.81384 0.8639 0.0
N59 N 0.701 0.7384 0.90127 0.0
H60 H 0.82265 0.23836 0.32044 0.0
H61 H 0.80703 0.27961 0.39441 0.0
H62 H 0.75721 0.28075 0.32604 0.0
H63 H 0.8315 0.25443 0.41281 0.0
C64 C 0.84337 0.24578 0.39766 0.0
C65 C 0.81128 0.25114 0.33169 0.0
C66 C 0.78936 0.25901 0.3198 0.0
C67 C 0.81757 0.25792 0.35862 0.0
C68 C 0.80224 0.27369 0.37372 0.0
C69 C 0.78056 0.28221 0.36197 0.0
C70 C 0.77435 0.27483 0.33501 0.0
N71 N 0.83863 0.24737 0.3698 0.0
H72 H 0.31716 0.6419 0.21519 0.0
H73 H 0.38657 0.71558 0.22019 0.0
H74 H 0.32723 0.70733 0.15763 0.0
H75 H 0.40548 0.68858 0.24564 0.0
C76 C 0.38891 0.67231 0.25501 0.0
C77 C 0.32868 0.66212 0.20753 0.0
C78 C 0.31914 0.67282 0.18474 0.0
C79 C 0.35342 0.67679 0.22019 0.0
C80 C 0.36824 0.70344 0.21018 0.0
C81 C 0.35868 0.71502 0.18774 0.0
C82 C 0.33448 0.69909 0.17512 0.0
N83 N 0.36201 0.66423 0.2431 0.0
H84 H 0.12414 0.32486 0.71358 0.0
H85 H 0.19018 0.40045 0.70292 0.0
H86 H 0.18356 0.3324 0.64646 0.0
H87 H 0.18397 0.40338 0.74835 0.0
C88 C 0.16132 0.3966 0.75119 0.0
C89 C 0.14228 0.33687 0.70214 0.0
C90 C 0.15222 0.32521 0.67891 0.0
C91 C 0.15617 0.36367 0.71133 0.0
C92 C 0.17983 0.37933 0.69666 0.0
C93 C 0.18974 0.36813 0.67321 0.0
C94 C 0.17585 0.34111 0.66451 0.0
N95 N 0.14542 0.37455 0.73497 0.0
Tb96 Tb 0.02638 0.0203 0.50563 0.0
Tb97 Tb 0.97224 1.00927 0.5485 0.0
C98 C 0.97441 0.96835 0.50054 0.0
C99 C 0.08939 0.05191 0.46151 0.0
C100 C 0.12994 0.0965 0.4376 0.0
C101 C 0.1309 0.0687 0.43275 0.0
C102 C 0.1108 0.04663 0.44462 0.0
C103 C 0.08845 0.07954 0.46688 0.0
C104 C 0.10859 0.10172 0.45495 0.0
C105 C 0.06796 0.02823 0.47276 0.0
O106 O 1.00612 0.05307 0.49836 0.0
O107 O 0.96197 0.02956 0.51343 0.0
O108 O 0.99639 0.05193 0.55529 0.0
O109 O 0.03955 0.04802 0.54002 0.0
O110 O 0.92869 0.99616 0.5554 0.0
O111 O 0.95624 0.01296 0.58784 0.0
O112 O 1.0032 0.99201 0.56679 0.0
O113 O 0.02696 0.98369 0.52816 0.0
O114 O 0.99217 0.98893 0.48781 0.0
O115 O 0.96788 0.97034 0.52626 0.0
C116 C 0.97892 0.04983 0.49956 0.0
O117 O 0.06927 0.02389 0.49838 0.0
O118 O 0.04235 0.02592 0.4658 0.0
C119 C 0.02379 0.061 0.55438 0.0
C120 C 0.91454 0.97901 0.59891 0.0
C121 C 0.88289 0.93714 0.63334 0.0
C122 C 0.88108 0.9649 0.63626 0.0
C123 C 0.89673 0.9856 0.61916 0.0
C124 C 0.91679 0.95147 0.59598 0.0
C125 C 0.90103 0.93065 0.61308 0.0
C126 C 0.93056 1.00123 0.58122 0.0
C127 C 0.02029 0.97946 0.55384 0.0
H128 H 0.14671 0.0639 0.4191 0.0
H129 H 0.11171 0.02537 0.44026 0.0
H130 H 0.072 0.08389 0.48001 0.0
H131 H 0.10741 0.12291 0.4592 0.0
H132 H 0.86781 0.97076 0.65201 0.0
H133 H 0.89496 1.00683 0.62178 0.0
H134 H 0.9306 0.94611 0.58044 0.0
H135 H 0.90277 0.90945 0.61023 0.0
Tb136 Tb 0.53376 0.03696 0.04992 0.0
Tb137 Tb 0.48461 0.02077 1.00588 0.0
C138 C 0.53802 0.99936 1.00009 0.0
C139 C 0.59894 0.06968 0.08808 0.0
C140 C 0.64835 0.10896 0.10352 0.0
C141 C 0.64271 0.0809 0.11131 0.0
C142 C 0.6182 0.06148 0.10368 0.0
C143 C 0.60525 0.09725 0.07881 0.0
C144 C 0.62975 0.11677 0.08655 0.0
C145 C 0.57139 0.04998 0.08428 0.0
O146 O 0.54122 0.07447 0.02531 0.0
O147 O 0.5167 0.05567 0.98791 0.0
O148 O 0.47941 0.05633 0.02958 0.0
O149 O 0.49556 0.04417 0.06823 0.0
O150 O 0.47204 1.01125 0.96621 0.0
O151 O 0.44216 0.0156 0.99814 0.0
O152 O 0.46986 0.99014 0.03814 0.0
O153 O 0.51115 0.99391 0.05944 0.0
O154 O 0.55114 0.02183 1.01346 0.0
O155 O 0.51061 0.99213 0.99919 0.0
C156 C 0.53468 0.07634 1.00008 0.0
O157 O 0.5501 0.06073 0.08369 0.0
O158 O 0.56998 0.03016 0.06627 0.0
C159 C 0.48053 0.05773 0.05581 0.0
C160 C 0.42462 0.98513 0.96198 0.0
C161 C 0.38404 0.94225 0.93687 0.0
C162 C 0.37717 0.96635 0.94717 0.0
C163 C 0.3973 0.98758 0.95951 0.0
C164 C 0.43137 0.96062 0.95276 0.0
C165 C 0.4112 0.93933 0.94028 0.0
C166 C 0.44575 1.00913 0.97287 0.0
C167 C 0.48489 0.9806 0.05508 0.0
H168 H 0.65637 0.07425 0.12466 0.0
H169 H 0.61364 0.04032 0.11106 0.0
H170 H 0.59071 0.10396 0.06655 0.0
H171 H 0.63369 0.13817 0.08001 0.0
H172 H 0.35631 0.96901 0.94531 0.0
H173 H 0.39166 1.00627 0.96663 0.0
H174 H 0.45233 0.9582 0.95457 0.0
H175 H 0.41718 0.92109 0.93242 0.0
Tb176 Tb 0.50405 0.49451 0.50769 0.0
Tb177 Tb 0.50577 0.55167 0.54259 0.0
C178 C 0.48252 0.54397 0.48403 0.0
C179 C 0.52693 0.43506 0.4775 0.0
C180 C 0.56844 0.40613 0.46772 0.0
C181 C 0.54116 0.39525 0.45838 0.0
C182 C 0.52063 0.40966 0.46317 0.0
C183 C 0.55377 0.44561 0.48761 0.0
C184 C 0.57437 0.43134 0.48269 0.0
C185 C 0.50599 0.45118 0.4807 0.0
O186 O 0.54782 0.51659 0.51044 0.0
O187 O 0.54271 0.56087 0.51568 0.0
O188 O 0.53134 0.53036 0.56489 0.0
O189 O 0.51238 0.48574 0.54929 0.0
O190 O 0.51314 0.59532 0.544 0.0
O191 O 0.50055 0.57096 0.57993 0.0
O192 O 0.46773 0.52097 0.55546 0.0
O193 O 0.46053 0.49161 0.51853 0.0
O194 O 0.49614 0.5247 0.47925 0.0
O195 O 0.47905 0.55289 0.5088 0.0
C196 C 0.55791 0.54368 0.5086 0.0
O197 O 0.49352 0.45061 0.5044 0.0
O198 O 0.51392 0.47643 0.47128 0.0
C199 C 0.52693 0.50309 0.56721 0.0
C200 C 0.48166 0.60931 0.57515 0.0
C201 C 0.43678 0.63319 0.58815 0.0
C202 C 0.45375 0.62801 0.6084 0.0
C203 C 0.476 0.6163 0.60192 0.0
C204 C 0.46487 0.61452 0.55483 0.0
C205 C 0.44277 0.62648 0.56125 0.0
C206 C 0.50411 0.59532 0.56904 0.0
C207 C 0.45145 0.50125 0.541 0.0
H208 H 0.53571 0.37566 0.4472 0.0
H209 H 0.49996 0.40119 0.45532 0.0
H210 H 0.55898 0.46522 0.49876 0.0
H211 H 0.59517 0.44054 0.48992 0.0
H212 H 0.4495 0.63242 0.62938 0.0
H213 H 0.48851 0.61221 0.61794 0.0
H214 H 0.46861 0.60916 0.53398 0.0
H215 H 0.43045 0.63052 0.54508 0.0
Tb216 Tb 0.01431 0.55679 1.00786 0.0
Tb217 Tb 0.01004 0.49578 0.03362 0.0
C218 C 0.03827 0.51235 0.97789 0.0
C219 C 0.99525 0.61261 0.97151 0.0
C220 C 0.95192 0.63016 0.94844 0.0
C221 C 0.97529 0.64986 0.9587 0.0
C222 C 0.99673 0.64111 0.97023 0.0
C223 C 0.97283 0.59295 0.95994 0.0
C224 C 0.95133 0.60165 0.94846 0.0
C225 C 0.01465 0.60341 0.98833 0.0
O226 O 0.97097 0.53278 1.00167 0.0
O227 O 0.97559 0.48816 1.00573 0.0
O228 O 0.98104 0.51368 0.05731 0.0
O229 O 1.00636 0.5587 0.05102 0.0
O230 O 1.00611 0.45302 0.02709 0.0
O231 O 0.01013 0.47091 0.06724 0.0
O232 O 0.04614 0.52432 0.05231 0.0
O233 O 0.05621 0.56148 0.02328 0.0
O234 O 0.02211 0.52916 0.97553 0.0
O235 O 0.04206 0.50333 1.00157 0.0
C236 C 0.96148 0.50556 0.99801 0.0
O237 O 1.00424 0.59509 1.01212 0.0
O238 O 0.02809 0.58641 0.9772 0.0
C239 C 0.98773 0.54 0.06495 0.0
C240 C 0.03486 0.43768 0.05613 0.0
C241 C 0.08175 0.4174 0.06513 0.0
C242 C 0.05562 0.40534 0.07815 0.0
C243 C 0.03235 0.41541 0.07364 0.0
C244 C 0.06079 0.44969 0.04305 0.0
C245 C 0.08395 0.43956 0.04736 0.0
C246 C 0.01094 0.44924 0.05213 0.0
C247 C 0.06297 0.54792 0.04339 0.0
H248 H 0.97656 0.67198 0.9586 0.0
H249 H 0.01384 0.65652 0.97922 0.0
H250 H 0.97128 0.57081 0.96095 0.0
H251 H 0.93353 0.58593 0.94098 0.0
H252 H 0.05328 0.38852 0.09226 0.0
H253 H 0.01253 0.40608 0.08408 0.0
H254 H 0.06319 0.46706 0.02957 0.0
H255 H 0.10357 0.44908 0.03669 0.0
H256 H 0.28543 0.19036 0.24335 0.0
H257 H 0.25782 0.17201 0.28391 0.0
H258 H 0.26409 0.25594 0.31309 0.0
H259 H 0.29262 0.27463 0.2728 0.0
H260 H 0.27031 0.21749 0.35347 0.0
H261 H 0.17574 0.17685 0.29354 0.0
H262 H 0.20553 0.16541 0.2811 0.0
H263 H 0.20667 0.20193 0.28051 0.0
C264 C 0.28155 0.20497 0.25865 0.0
C265 C 0.29113 0.23397 0.2548 0.0
C266 C 0.2655 0.19444 0.28166 0.0
C267 C 0.25854 0.21266 0.30116 0.0
C268 C 0.2691 0.24159 0.2981 0.0
H269 H 0.11945 0.14158 0.41369 0.0
H270 H 0.15146 0.17558 0.38445 0.0
C271 C 0.28523 0.25219 0.27505 0.0
C272 C 0.23918 0.20129 0.32406 0.0
H273 H 0.17348 0.16015 0.33838 0.0
C274 C 0.24902 0.2052 0.35031 0.0
C275 C 0.21125 0.18586 0.31985 0.0
C276 C 0.19902 0.18246 0.29226 0.0
C277 C 0.23201 0.19277 0.3724 0.0
C278 C 0.20471 0.17575 0.36791 0.0
C279 C 0.19448 0.17306 0.3418 0.0
C280 C 0.18702 0.15871 0.38938 0.0
C281 C 0.2435 0.19782 0.40024 0.0
C282 C 0.19657 0.13836 0.40232 0.0
C283 C 0.17842 0.11909 0.41921 0.0
C284 C 0.15024 0.11957 0.42321 0.0
C285 C 0.14108 0.1408 0.41125 0.0
C286 C 0.1593 0.16016 0.39442 0.0
H287 H 0.25981 0.21804 0.4015 0.0
H288 H 0.22666 0.19784 0.41574 0.0
H289 H 0.25341 0.18097 0.40495 0.0
H290 H 0.21767 0.13645 0.39832 0.0
H291 H 0.18619 0.10318 0.42841 0.0
H292 H 0.23583 0.75389 0.77681 0.0
H293 H 0.25902 0.7751 0.81768 0.0
H294 H 0.24622 0.85452 0.7967 0.0
H295 H 0.22338 0.83366 0.75581 0.0
H296 H 0.30755 0.81853 0.8171 0.0
H297 H 0.22299 0.84902 0.87669 0.0
H298 H 0.21603 0.82373 0.84935 0.0
H299 H 0.2258 0.86056 0.84249 0.0
C300 C 0.2377 0.77581 0.78108 0.0
C301 C 0.22778 0.79211 0.76305 0.0
C302 C 0.2508 0.78783 0.80448 0.0
C303 C 0.25398 0.81626 0.81038 0.0
C304 C 0.24335 0.83237 0.79287 0.0
H305 H 0.34927 0.95207 0.89942 0.0
H306 H 0.31653 0.918 0.87218 0.0
C307 C 0.23029 0.8204 0.76948 0.0
C308 C 0.27095 0.82993 0.83318 0.0
H309 H 0.2703 0.87303 0.88767 0.0
C310 C 0.29933 0.83 0.83289 0.0
C311 C 0.2601 0.84483 0.85369 0.0
C312 C 0.22948 0.84434 0.85578 0.0
C313 C 0.31759 0.84599 0.85161 0.0
C314 C 0.307 0.86193 0.87137 0.0
C315 C 0.27834 0.86083 0.87243 0.0
C316 C 0.32577 0.88196 0.88936 0.0
C317 C 0.34834 0.84699 0.84913 0.0
C318 C 0.34156 0.87292 0.90833 0.0
C319 C 0.36035 0.89241 0.92405 0.0
C320 C 0.36342 0.92122 0.92116 0.0
C321 C 0.34711 0.93005 0.90247 0.0
C322 C 0.32845 0.91061 0.8868 0.0
H323 H 0.35385 0.83742 0.82991 0.0
H324 H 0.36143 0.8689 0.85037 0.0
H325 H 0.35372 0.83535 0.86599 0.0
H326 H 0.33946 0.85083 0.91086 0.0
H327 H 0.37238 0.88497 0.9385 0.0
H328 H 0.59485 0.35521 0.75251 0.0
H329 H 0.57899 0.37822 0.71561 0.0
H330 H 0.63108 0.45768 0.74213 0.0
H331 H 0.64763 0.43442 0.77876 0.0
H332 H 0.55015 0.41538 0.71426 0.0
H333 H 0.65319 0.46291 0.66392 0.0
H334 H 0.649 0.43766 0.69031 0.0
H335 H 0.65109 0.47368 0.69851 0.0
C336 C 0.60313 0.3776 0.75041 0.0
C337 C 0.62273 0.39281 0.76864 0.0
C338 C 0.59395 0.39083 0.72921 0.0
C339 C 0.604 0.41985 0.72538 0.0
C340 C 0.6234 0.43523 0.74384 0.0
H341 H 0.56102 0.53155 0.6072 0.0
H342 H 0.57938 0.51225 0.64533 0.0
C343 C 0.63276 0.42189 0.76505 0.0
C344 C 0.59341 0.43364 0.70261 0.0
H345 H 0.61409 0.47566 0.64744 0.0
C346 C 0.56427 0.42847 0.69967 0.0
C347 C 0.61149 0.45095 0.68326 0.0
C348 C 0.64291 0.45645 0.68392 0.0
C349 C 0.55289 0.43999 0.67848 0.0
C350 C 0.57094 0.45709 0.65907 0.0
C351 C 0.60006 0.46263 0.66214 0.0
C352 C 0.55997 0.46897 0.63533 0.0
C353 C 0.52145 0.43407 0.67738 0.0
C354 C 0.54316 0.45132 0.61639 0.0
C355 C 0.53267 0.46233 0.59443 0.0
C356 C 0.53861 0.49143 0.59057 0.0
C357 C 0.55576 0.50908 0.60937 0.0
C358 C 0.56639 0.49802 0.63128 0.0
H359 H 0.51093 0.42745 0.69724 0.0
H360 H 0.51523 0.45274 0.67083 0.0
H361 H 0.51372 0.41687 0.66264 0.0
H362 H 0.53824 0.42886 0.61847 0.0
H363 H 0.51976 0.44791 0.58048 0.0
H364 H 0.93292 0.68042 0.26397 0.0
H365 H 0.94622 0.65488 0.22495 0.0
H366 H 0.88887 0.57869 0.25348 0.0
H367 H 0.87529 0.60413 0.29239 0.0
H368 H 0.96907 0.60808 0.2252 0.0
H369 H 0.86692 0.58363 0.17481 0.0
H370 H 0.87579 0.60999 0.20103 0.0
H371 H 0.8657 0.57363 0.20947 0.0
C372 C 0.92313 0.65824 0.26185 0.0
C373 C 0.90303 0.64431 0.28108 0.0
C374 C 0.93073 0.64369 0.23963 0.0
C375 C 0.91825 0.615 0.2362 0.0
C376 C 0.89836 0.60093 0.25554 0.0
H377 H 0.94953 0.50769 0.10083 0.0
H378 H 0.93173 0.52296 0.14391 0.0
C379 C 0.89075 0.61548 0.27781 0.0
C380 C 0.92657 0.59992 0.21255 0.0
H381 H 0.90302 0.56702 0.15354 0.0
C382 C 0.9546 0.59894 0.20961 0.0
C383 C 0.90754 0.58784 0.1924 0.0
C384 C 0.87733 0.5889 0.19434 0.0
C385 C 0.9643 0.58671 0.18672 0.0
C386 C 0.94555 0.57559 0.1661 0.0
C387 C 0.91728 0.5756 0.16945 0.0
C388 C 0.95556 0.56611 0.14001 0.0
C389 C 0.99463 0.58608 0.18463 0.0
C390 C 0.97429 0.58547 0.12345 0.0
C391 C 0.98437 0.57693 0.09898 0.0
C392 C 0.97587 0.5488 0.09049 0.0
C393 C 0.95658 0.52948 0.10686 0.0
C394 C 0.9464 0.53813 0.13143 0.0
H395 H 1.00401 0.5881 0.20474 0.0
H396 H 0.99689 0.56642 0.17476 0.0
H397 H 0.00673 0.60386 0.17224 0.0
H398 H 0.98118 0.60727 0.12952 0.0
H399 H 0.99904 0.59244 0.08684 0.0
H400 H 0.37905 0.22471 0.20981 0.0
H401 H 0.4065 0.19546 0.18774 0.0
H402 H 0.36141 0.19336 0.11505 0.0
H403 H 0.3335 0.22216 0.13706 0.0
H404 H 0.38248 0.14078 0.16567 0.0
H405 H 0.44502 0.21349 0.08906 0.0
H406 H 0.42835 0.22541 0.11839 0.0
H407 H 0.40801 0.21053 0.08999 0.0
C408 C 0.37507 0.21815 0.18907 0.0
C409 C 0.35405 0.22573 0.1752 0.0
C410 C 0.39084 0.20154 0.17649 0.0
C411 C 0.38611 0.19247 0.14974 0.0
C412 C 0.3657 0.20058 0.13557 0.0
H413 H 0.44295 0.08339 0.03696 0.0
H414 H 0.42043 0.11544 0.06122 0.0
C415 C 0.34983 0.2171 0.14817 0.0
C416 C 0.40119 0.17302 0.1372 0.0
H417 H 0.44559 0.16586 0.08469 0.0
C418 C 0.39649 0.14628 0.1481 0.0
C419 C 0.41931 0.18032 0.11426 0.0
C420 C 0.42573 0.20907 0.1023 0.0
C421 C 0.4088 0.12626 0.13614 0.0
C422 C 0.42677 0.13347 0.11303 0.0
C423 C 0.43178 0.16039 0.1024 0.0
C424 C 0.43988 0.11317 0.09897 0.0
C425 C 0.40168 0.09732 0.14779 0.0
C426 C 0.45829 0.10118 0.11218 0.0
C427 C 0.47108 0.0826 0.0984 0.0
C428 C 0.46592 0.07602 0.07108 0.0
C429 C 0.44741 0.08803 0.05799 0.0
C430 C 0.43454 0.10641 0.0718 0.0
H431 H 0.38236 0.09316 0.16098 0.0
H432 H 0.3987 0.08111 0.13157 0.0
H433 H 0.41916 0.09527 0.16014 0.0
H434 H 0.46314 0.10655 0.13301 0.0
H435 H 0.48543 0.0739 0.10898 0.0
H436 H 0.12537 0.8153 0.69323 0.0
H437 H 0.09667 0.84496 0.67829 0.0
H438 H 0.11916 0.82985 0.5955 0.0
H439 H 0.14756 0.79978 0.61031 0.0
H440 H 0.11485 0.89318 0.64968 0.0
H441 H 0.03478 0.81615 0.59304 0.0
H442 H 0.05744 0.80588 0.61601 0.0
H443 H 0.06986 0.81623 0.58226 0.0
C444 C 0.12394 0.81801 0.67182 0.0
C445 C 0.13868 0.80521 0.65286 0.0
C446 C 0.10753 0.83498 0.66334 0.0
C447 C 0.10545 0.83931 0.63578 0.0
C448 C 0.11992 0.82628 0.61683 0.0
H449 H 0.05261 0.94707 0.53207 0.0
H450 H 0.07097 0.91303 0.55464 0.0
C451 C 0.13626 0.80925 0.6253 0.0
C452 C 0.0897 0.85887 0.62683 0.0
H453 H 0.03916 0.86451 0.58431 0.0
C454 C 0.09799 0.88685 0.63572 0.0
C455 C 0.06765 0.85053 0.60871 0.0
C456 C 0.0567 0.8205 0.59966 0.0
C457 C 0.08574 0.90698 0.62593 0.0
C458 C 0.06449 0.89881 0.60699 0.0
C459 C 0.05554 0.87069 0.59879 0.0
C460 C 0.05281 0.91946 0.59385 0.0
C461 C 0.09645 0.93705 0.63494 0.0
C462 C 0.03634 0.93427 0.60846 0.0
C463 C 0.0257 0.95387 0.59559 0.0
C464 C 0.03142 0.95893 0.5679 0.0
C465 C 0.04783 0.94385 0.55342 0.0
C466 C 0.05831 0.92429 0.56625 0.0
H467 H 0.11587 0.9406 0.64644 0.0
H468 H 0.10077 0.95106 0.61729 0.0
H469 H 0.08019 0.943 0.64807 0.0
H470 H 0.03161 0.93057 0.62976 0.0
H471 H 0.01303 0.96501 0.6073 0.0
H472 H 0.72315 0.43695 0.87323 0.0
H473 H 0.7676 0.45994 0.89412 0.0
H474 H 0.78525 0.38003 0.90177 0.0
H475 H 0.74169 0.35716 0.88009 0.0
H476 H 0.786 0.45444 0.94408 0.0
H477 H 0.85846 0.42419 0.86866 0.0
H478 H 0.82196 0.42009 0.8624 0.0
H479 H 0.83245 0.3945 0.8816 0.0
C480 C 0.7367 0.42428 0.87889 0.0
C481 C 0.72852 0.39505 0.87484 0.0
C482 C 0.76211 0.43748 0.89109 0.0
C483 C 0.78026 0.42192 0.89933 0.0
C484 C 0.77216 0.39279 0.89521 0.0
H485 H 0.93549 0.45071 0.98539 0.0
H486 H 0.89186 0.43202 0.96194 0.0
C487 C 0.74686 0.37961 0.88304 0.0
C488 C 0.80711 0.43581 0.91301 0.0
H489 H 0.8778 0.44175 0.91083 0.0
C490 C 0.80609 0.45187 0.93661 0.0
C491 C 0.83356 0.43261 0.90348 0.0
C492 C 0.83679 0.41716 0.8775 0.0
C493 C 0.83033 0.46389 0.95127 0.0
C494 C 0.85667 0.46025 0.94199 0.0
C495 C 0.85775 0.44452 0.91819 0.0
C496 C 0.88325 0.47207 0.95682 0.0
C497 C 0.82729 0.47962 0.97712 0.0
C498 C 0.89344 0.50099 0.96177 0.0
C499 C 0.91853 0.51182 0.97531 0.0
C500 C 0.93428 0.49407 0.98419 0.0
C501 C 0.92406 0.46514 0.97907 0.0
C502 C 0.89902 0.45436 0.96553 0.0
H503 H 0.80523 0.47436 0.9851 0.0
H504 H 0.84071 0.47504 0.99281 0.0
H505 H 0.83393 0.5024 0.97325 0.0
H506 H 0.8822 0.51532 0.95483 0.0
H507 H 0.92565 0.53419 0.97863 0.0
H508 H 0.78686 0.68404 0.3972 0.0
H509 H 0.7417 0.66238 0.41956 0.0
H510 H 0.76027 0.58218 0.41458 0.0
H511 H 0.80605 0.60391 0.39295 0.0
H512 H 0.69793 0.61943 0.40052 0.0
H513 H 0.73889 0.58964 0.49468 0.0
H514 H 0.76051 0.61405 0.47113 0.0
H515 H 0.7523 0.57715 0.46401 0.0
C516 C 0.7815 0.66184 0.40115 0.0
C517 C 0.80013 0.64572 0.39359 0.0
C518 C 0.75562 0.64949 0.41375 0.0
C519 C 0.74789 0.62081 0.41908 0.0
C520 C 0.76613 0.60447 0.41108 0.0
H521 H 0.59578 0.51449 0.49271 0.0
H522 H 0.64208 0.53283 0.47104 0.0
C523 C 0.7921 0.61684 0.39847 0.0
C524 C 0.72047 0.60811 0.43265 0.0
H525 H 0.68978 0.57503 0.48997 0.0
C526 C 0.69612 0.60972 0.42008 0.0
C527 C 0.71828 0.59547 0.45814 0.0
C528 C 0.74386 0.59411 0.47296 0.0
C529 C 0.66953 0.59892 0.4323 0.0
C530 C 0.66735 0.58659 0.45792 0.0
C531 C 0.69164 0.5846 0.47035 0.0
C532 C 0.63996 0.57582 0.47217 0.0
C533 C 0.64395 0.60053 0.41762 0.0
C534 C 0.62383 0.5941 0.4805 0.0
C535 C 0.59738 0.58374 0.49291 0.0
C536 C 0.58668 0.55492 0.49725 0.0
C537 C 0.60332 0.53679 0.48957 0.0
C538 C 0.62979 0.54719 0.4772 0.0
H539 H 0.64874 0.60447 0.39579 0.0
H540 H 0.62696 0.58089 0.41993 0.0
H541 H 0.63604 0.61794 0.4263 0.0
H542 H 0.63161 0.61635 0.47716 0.0
H543 H 0.58518 0.59829 0.49869 0.0
H544 H 0.30403 0.32773 0.10128 0.0
H545 H 0.27135 0.35154 0.08272 0.0
H546 H 0.21931 0.33427 0.15545 0.0
H547 H 0.25184 0.31134 0.17419 0.0
H548 H 0.2159 0.33136 0.07223 0.0
H549 H 0.22874 0.417 0.14781 0.0
H550 H 0.25266 0.39515 0.14437 0.0
H551 H 0.22008 0.38355 0.16358 0.0
C552 C 0.28573 0.32933 0.11332 0.0
C553 C 0.28069 0.31799 0.13925 0.0
C554 C 0.2671 0.34285 0.10273 0.0
C555 C 0.24323 0.34521 0.11797 0.0
C556 C 0.23802 0.33346 0.14367 0.0
H557 H 0.08439 0.36344 0.07192 0.0
H558 H 0.12538 0.34746 0.08219 0.0
C559 C 0.25662 0.32018 0.15429 0.0
C560 C 0.22298 0.35891 0.10692 0.0
H561 H 0.18658 0.40706 0.12277 0.0
C562 C 0.20976 0.34821 0.08303 0.0
C563 C 0.21534 0.38123 0.12075 0.0
C564 C 0.23019 0.3951 0.14538 0.0
C565 C 0.18808 0.35829 0.07336 0.0
C566 C 0.17901 0.37912 0.08836 0.0
C567 C 0.19322 0.39077 0.11149 0.0
C568 C 0.15436 0.38866 0.08101 0.0
C569 C 0.17514 0.34648 0.04721 0.0
C570 C 0.15682 0.41722 0.07774 0.0
C571 C 0.1333 0.42649 0.07251 0.0
C572 C 0.10679 0.40738 0.0704 0.0
C573 C 0.10442 0.37875 0.07363 0.0
C574 C 0.12794 0.36952 0.07905 0.0
H575 H 0.19 0.33821 0.03416 0.0
H576 H 0.15643 0.32891 0.0516 0.0
H577 H 0.16851 0.36251 0.03589 0.0
H578 H 0.17693 0.4324 0.07948 0.0
H579 H 0.13584 0.44874 0.07066 0.0
H580 H 0.65326 0.32669 0.91749 0.0
H581 H 0.63153 0.28176 0.93817 0.0
H582 H 0.60434 0.24675 0.86055 0.0
H583 H 0.62741 0.29155 0.83938 0.0
H584 H 0.57975 0.25028 0.9433 0.0
H585 H 0.64099 0.18894 0.88424 0.0
H586 H 0.64961 0.22657 0.88331 0.0
H587 H 0.62158 0.20584 0.86374 0.0
C588 C 0.64302 0.30942 0.9046 0.0
C589 C 0.64275 0.31294 0.8765 0.0
C590 C 0.63031 0.28361 0.9166 0.0
C591 C 0.61673 0.2603 0.90103 0.0
C592 C 0.61534 0.26396 0.8731 0.0
H593 H 0.52932 0.08763 0.94676 0.0
H594 H 0.54851 0.13159 0.92284 0.0
C595 C 0.62823 0.28986 0.861 0.0
C596 C 0.60402 0.23254 0.91433 0.0
H597 H 0.60459 0.16347 0.91346 0.0
C598 C 0.5853 0.23137 0.93671 0.0
C599 C 0.61106 0.20755 0.90601 0.0
C600 C 0.6321 0.20723 0.88319 0.0
C601 C 0.57346 0.20629 0.9507 0.0
C602 C 0.58062 0.18141 0.94246 0.0
C603 C 0.59901 0.18241 0.91989 0.0
C604 C 0.56939 0.15429 0.95712 0.0
C605 C 0.55297 0.20659 0.97401 0.0
C606 C 0.57501 0.15192 0.98437 0.0
C607 C 0.56416 0.12666 0.99814 0.0
C608 C 0.5473 0.10297 0.98508 0.0
C609 C 0.54208 0.1053 0.95764 0.0
C610 C 0.5531 0.13052 0.94385 0.0
H611 H 0.54417 0.22497 0.97345 0.0
H612 H 0.53541 0.18728 0.97404 0.0
H613 H 0.56392 0.20764 0.99319 0.0
H614 H 0.58793 0.16964 0.99505 0.0
H615 H 0.56881 0.12584 1.01916 0.0
H616 H 0.89673 0.74514 0.3507 0.0
H617 H 0.9189 0.79178 0.36882 0.0
H618 H 0.89954 0.76089 0.44969 0.0
H619 H 0.87835 0.71417 0.4318 0.0
H620 H 0.89223 0.82377 0.40022 0.0
H621 H 0.98063 0.80494 0.45468 0.0
H622 H 0.96177 0.78047 0.43012 0.0
H623 H 0.94777 0.78102 0.46412 0.0
C624 C 0.89785 0.74817 0.37233 0.0
C625 C 0.88575 0.72602 0.38984 0.0
C626 C 0.91033 0.77483 0.38264 0.0
C627 C 0.91113 0.77971 0.41059 0.0
C628 C 0.89966 0.75748 0.42807 0.0
H629 H 0.94399 0.91866 0.52163 0.0
H630 H 0.92876 0.87363 0.49811 0.0
C631 C 0.88726 0.73087 0.41781 0.0
C632 C 0.92193 0.80837 0.4216 0.0
H633 H 0.96725 0.84691 0.46666 0.0
C634 C 0.90891 0.82897 0.41446 0.0
C635 C 0.94365 0.81504 0.44019 0.0
C636 C 0.95946 0.79427 0.44753 0.0
C637 C 0.91635 0.85581 0.42618 0.0
C638 C 0.93744 0.86214 0.44536 0.0
C639 C 0.95091 0.8418 0.45207 0.0
C640 C 0.94557 0.88969 0.45907 0.0
C641 C 0.90104 0.87694 0.41869 0.0
C642 C 0.95994 0.91354 0.44478 0.0
C643 C 0.96874 0.9393 0.45813 0.0
C644 C 0.96329 0.94159 0.48601 0.0
C645 C 0.94843 0.91767 0.50014 0.0
C646 C 0.93979 0.89191 0.48678 0.0
H647 H 0.88214 0.8673 0.40706 0.0
H648 H 0.8946 0.88725 0.43706 0.0
H649 H 0.91527 0.89336 0.40617 0.0
H650 H 0.9648 0.9121 0.4234 0.0
H651 H 0.98018 0.9573 0.44666 0.0
H652 H 0.24373 0.71231 0.71287 0.0
H653 H 0.27658 0.69049 0.68879 0.0
H654 H 0.27035 0.73549 0.61714 0.0
H655 H 0.23856 0.75866 0.6416 0.0
H656 H 0.27503 0.65797 0.64453 0.0
H657 H 0.35355 0.76001 0.62863 0.0
H658 H 0.32258 0.75648 0.65013 0.0
H659 H 0.32032 0.75725 0.61414 0.0
C660 C 0.24936 0.71763 0.69199 0.0
C661 C 0.23894 0.73766 0.67933 0.0
C662 C 0.26798 0.70496 0.67818 0.0
C663 C 0.27645 0.71185 0.65135 0.0
C664 C 0.26465 0.7304 0.63805 0.0
H665 H 0.38497 0.62031 0.56581 0.0
H666 H 0.34547 0.63964 0.57791 0.0
C667 C 0.24617 0.74334 0.65196 0.0
C668 C 0.29868 0.70056 0.6381 0.0
H669 H 0.36573 0.71995 0.61168 0.0
C670 C 0.29481 0.67148 0.63715 0.0
C671 C 0.32461 0.71829 0.62883 0.0
C672 C 0.33073 0.74974 0.63065 0.0
C673 C 0.31634 0.65964 0.62779 0.0
C674 C 0.34221 0.67737 0.6184 0.0
C675 C 0.34583 0.7064 0.61874 0.0
C676 C 0.36648 0.66645 0.60991 0.0
C677 C 0.31156 0.62836 0.62922 0.0
C678 C 0.39184 0.67591 0.62312 0.0
C679 C 0.41471 0.66544 0.61581 0.0
C680 C 0.41271 0.64513 0.59518 0.0
C681 C 0.3874 0.63607 0.58164 0.0
C682 C 0.3646 0.64679 0.5888 0.0
H683 H 0.2936 0.61874 0.64312 0.0
H684 H 0.30682 0.61898 0.6089 0.0
H685 H 0.33051 0.62292 0.63605 0.0
H686 H 0.39385 0.69125 0.63934 0.0
H687 H 0.434 0.67337 0.62631 0.0
H688 H 0.72604 0.76533 0.80799 0.0
H689 H 0.7573 0.78088 0.76862 0.0
H690 H 0.77931 0.86493 0.80119 0.0
H691 H 0.74937 0.84939 0.84105 0.0
H692 H 0.75525 0.81826 0.73118 0.0
H693 H 0.85556 0.85376 0.78236 0.0
H694 H 0.82423 0.83254 0.79889 0.0
H695 H 0.83003 0.86989 0.79729 0.0
C696 C 0.73788 0.78704 0.80694 0.0
C697 C 0.73521 0.80612 0.8277 0.0
C698 C 0.75561 0.7959 0.78438 0.0
C699 C 0.77106 0.82393 0.78224 0.0
C700 C 0.76815 0.84305 0.80274 0.0
H701 H 0.82858 0.93027 0.65118 0.0
H702 H 0.80238 0.89784 0.68492 0.0
C703 C 0.75062 0.83421 0.82532 0.0
C704 C 0.78916 0.83376 0.75802 0.0
H705 H 0.85399 0.87381 0.73872 0.0
C706 C 0.777 0.82998 0.73273 0.0
C707 C 0.81773 0.8484 0.75991 0.0
C708 C 0.83271 0.8511 0.78606 0.0
C709 C 0.79211 0.84214 0.70958 0.0
C710 C 0.81982 0.85908 0.71199 0.0
C711 C 0.83258 0.8612 0.73692 0.0
C712 C 0.83503 0.87684 0.6897 0.0
C713 C 0.77804 0.83705 0.6829 0.0
C714 C 0.86236 0.87622 0.68147 0.0
C715 C 0.8777 0.89526 0.66254 0.0
C716 C 0.866 0.91533 0.65166 0.0
C717 C 0.83835 0.91533 0.65943 0.0
C718 C 0.82314 0.89646 0.67841 0.0
H719 H 0.76227 0.81642 0.68245 0.0
H720 H 0.76683 0.85332 0.67995 0.0
H721 H 0.79348 0.83782 0.66586 0.0
H722 H 0.87204 0.86142 0.69014 0.0
H723 H 0.89905 0.89489 0.65719 0.0
H724 H 0.73612 0.23647 0.30365 0.0
H725 H 0.72139 0.21558 0.25986 0.0
H726 H 0.80749 0.23568 0.2305 0.0
H727 H 0.82256 0.2571 0.27441 0.0
H728 H 0.76001 0.24684 0.19445 0.0
H729 H 0.74428 0.13989 0.23442 0.0
H730 H 0.73061 0.16369 0.25542 0.0
H731 H 0.76777 0.17035 0.24924 0.0
C732 C 0.75193 0.23702 0.28775 0.0
C733 C 0.78052 0.24848 0.29246 0.0
C734 C 0.74348 0.22492 0.26282 0.0
C735 C 0.76339 0.22406 0.24213 0.0
C736 C 0.79188 0.23621 0.24633 0.0
H737 H 0.7019 0.1058 0.11168 0.0
H738 H 0.73628 0.13673 0.14035 0.0
C739 C 0.80042 0.24825 0.2714 0.0
C740 C 0.75416 0.20898 0.21678 0.0
H741 H 0.72383 0.14354 0.19278 0.0
C742 C 0.75252 0.22423 0.1938 0.0
C743 C 0.74484 0.17952 0.21602 0.0
C744 C 0.74709 0.16227 0.23999 0.0
C745 C 0.74023 0.2107 0.17042 0.0
C746 C 0.72908 0.18132 0.17033 0.0
C747 C 0.73231 0.16606 0.19284 0.0
C748 C 0.71138 0.16608 0.14857 0.0
C749 C 0.73883 0.22802 0.14626 0.0
C750 C 0.68632 0.17271 0.14312 0.0
C751 C 0.66666 0.15509 0.12683 0.0
C752 C 0.67157 0.13032 0.11589 0.0
C753 C 0.69742 0.12459 0.12005 0.0
C754 C 0.71712 0.14229 0.13631 0.0
H755 H 0.75623 0.24748 0.14581 0.0
H756 H 0.73974 0.21613 0.12716 0.0
H757 H 0.71881 0.23416 0.14746 0.0
H758 H 0.68107 0.19052 0.1529 0.0
H759 H 0.6468 0.15988 0.1244 0.0
H760 H 0.44003 0.68065 0.27658 0.0
H761 H 0.45369 0.65785 0.31489 0.0
H762 H 0.36824 0.60874 0.3268 0.0
H763 H 0.35468 0.63108 0.28778 0.0
H764 H 0.44089 0.65711 0.36629 0.0
H765 H 0.40648 0.54754 0.32975 0.0
H766 H 0.40758 0.57673 0.30844 0.0
H767 H 0.37856 0.56442 0.33207 0.0
C768 C 0.42412 0.66484 0.28722 0.0
C769 C 0.39627 0.65767 0.2788 0.0
C770 C 0.43197 0.65178 0.30931 0.0
C771 C 0.41227 0.631 0.32389 0.0
C772 C 0.38424 0.62403 0.31572 0.0
H773 H 0.44997 0.58152 0.48569 0.0
H774 H 0.43217 0.60184 0.44808 0.0
C775 C 0.37638 0.63703 0.29341 0.0
C776 C 0.42126 0.61747 0.34781 0.0
H777 H 0.42137 0.55439 0.37477 0.0
C778 C 0.43654 0.63462 0.36803 0.0
C779 C 0.41619 0.58806 0.35033 0.0
C780 C 0.40156 0.56809 0.32888 0.0
C781 C 0.44662 0.62347 0.39032 0.0
C782 C 0.44084 0.59406 0.39327 0.0
C783 C 0.42571 0.57688 0.37298 0.0
C784 C 0.45094 0.58079 0.41671 0.0
C785 C 0.46425 0.64355 0.41002 0.0
C786 C 0.46669 0.56111 0.41222 0.0
C787 C 0.47666 0.54908 0.43388 0.0
C788 C 0.47117 0.55623 0.46086 0.0
C789 C 0.45496 0.57555 0.46534 0.0
C790 C 0.44488 0.58745 0.44367 0.0
H791 H 0.47375 0.66428 0.40086 0.0
H792 H 0.4508 0.64678 0.4276 0.0
H793 H 0.48135 0.6353 0.41734 0.0
H794 H 0.47171 0.5553 0.39182 0.0
H795 H 0.48895 0.53431 0.42939 0.0
H796 H 0.10507 0.38722 0.76406 0.0
H797 H 0.08342 0.40878 0.80094 0.0
H798 H 0.16529 0.45554 0.82556 0.0
H799 H 0.18704 0.43447 0.78832 0.0
H800 H 0.0892 0.40607 0.85483 0.0
H801 H 0.12452 0.51626 0.82228 0.0
H802 H 0.12685 0.48736 0.80032 0.0
H803 H 0.15287 0.50034 0.82502 0.0
C804 C 0.11846 0.40219 0.77725 0.0
C805 C 0.14776 0.40927 0.77335 0.0
C806 C 0.10605 0.4145 0.79829 0.0
C807 C 0.12271 0.43411 0.81572 0.0
C808 C 0.152 0.44098 0.81197 0.0
H809 H 0.07573 0.48059 0.97611 0.0
H810 H 0.09573 0.46213 0.93628 0.0
C811 C 0.1644 0.4288 0.79085 0.0
C812 C 0.10952 0.44649 0.83848 0.0
H813 H 0.10531 0.50857 0.86723 0.0
C814 C 0.09257 0.42848 0.85745 0.0
C815 C 0.11361 0.47571 0.84165 0.0
C816 C 0.13022 0.49604 0.82109 0.0
C817 C 0.08016 0.4389 0.87989 0.0
C818 C 0.08534 0.46815 0.88373 0.0
C819 C 0.10167 0.48616 0.8644 0.0
C820 C 0.07408 0.4804 0.90779 0.0
C821 C 0.06137 0.41845 0.8991 0.0
C822 C 0.05611 0.49772 0.90494 0.0
C823 C 0.04483 0.50859 0.92771 0.0
C824 C 0.0514 0.50235 0.95369 0.0
C825 C 0.07002 0.48561 0.95641 0.0
C826 C 0.08136 0.47488 0.93366 0.0
H827 H 0.05324 0.3976 0.88943 0.0
H828 H 0.07353 0.41574 0.91662 0.0
H829 H 0.0433 0.42617 0.90668 0.0
H830 H 0.05041 0.50239 0.88511 0.0
H831 H 0.03061 0.52146 0.92493 0.0
H832 H 0.65232 0.83357 0.86309 0.0
H833 H 0.62854 0.86702 0.88307 0.0
H834 H 0.65798 0.85488 0.96114 0.0
H835 H 0.682 0.8214 0.94124 0.0
H836 H 0.60134 0.85474 0.96184 0.0
H837 H 0.66787 0.94673 0.90788 0.0
H838 H 0.65227 0.91797 0.88601 0.0
H839 H 0.67738 0.91414 0.90974 0.0
C840 C 0.65386 0.83813 0.88449 0.0
C841 C 0.66924 0.82504 0.90055 0.0
C842 C 0.64031 0.85727 0.89585 0.0
C843 C 0.642 0.86383 0.92346 0.0
C844 C 0.6566 0.85021 0.93974 0.0
H845 H 0.59452 1.00487 1.00137 0.0
H846 H 0.62024 0.97206 0.98343 0.0
C847 C 0.67016 0.83099 0.92838 0.0
C848 C 0.62829 0.88477 0.93529 0.0
H849 H 0.6266 0.95287 0.93085 0.0
C850 C 0.60694 0.87624 0.95519 0.0
C851 C 0.63596 0.91289 0.92686 0.0
C852 C 0.65981 0.92362 0.90664 0.0
C853 C 0.59248 0.89492 0.96636 0.0
C854 C 0.5993 0.92271 0.95703 0.0
C855 C 0.6212 0.93145 0.9377 0.0
C856 C 0.58385 0.94299 0.96704 0.0
C857 C 0.57021 0.88481 0.98821 0.0
C858 C 0.55503 0.93784 0.96314 0.0
C859 C 0.54027 0.95651 0.97333 0.0
C860 C 0.55412 0.98081 0.98748 0.0
C861 C 0.5832 0.98635 0.9906 0.0
C862 C 0.59794 0.96762 0.98041 0.0
H863 H 0.57277 0.8658 0.99803 0.0
H864 H 0.57069 0.90127 1.00389 0.0
H865 H 0.54928 0.87946 0.97923 0.0
H866 H 0.5439 0.91927 0.95233 0.0
H867 H 0.51793 0.95167 0.97039 0.0
H868 H 0.85114 0.23283 0.44896 0.0
H869 H 0.87819 0.20151 0.46394 0.0
H870 H 0.90357 0.18876 0.38148 0.0
H871 H 0.87631 0.21967 0.36637 0.0
H872 H 0.88295 0.13967 0.40826 0.0
H873 H 0.96245 0.21314 0.46882 0.0
H874 H 0.92714 0.21335 0.47848 0.0
H875 H 0.94113 0.22484 0.44546 0.0
C876 C 0.86279 0.2236 0.4341 0.0
C877 C 0.86158 0.22864 0.40656 0.0
C878 C 0.87835 0.20585 0.44267 0.0
C879 C 0.89318 0.19309 0.42384 0.0
C880 C 0.89237 0.19849 0.39634 0.0
H881 H 0.00693 0.09527 0.46986 0.0
H882 H 0.98714 0.12978 0.44931 0.0
C883 C 0.87677 0.21617 0.38776 0.0
C884 C 0.90798 0.17267 0.43266 0.0
H885 H 0.95782 0.16441 0.47479 0.0
C886 C 0.8995 0.14514 0.42262 0.0
C887 C 0.92982 0.17992 0.4511 0.0
C888 C 0.9409 0.20949 0.46141 0.0
C889 C 0.91164 0.12444 0.4312 0.0
C890 C 0.93247 0.13136 0.45068 0.0
C891 C 0.94164 0.15909 0.46004 0.0
C892 C 0.94435 0.10995 0.46226 0.0
C893 C 0.90209 0.09536 0.41926 0.0
C894 C 0.92686 0.08747 0.47646 0.0
C895 C 0.93804 0.0677 0.48814 0.0
C896 C 0.96702 0.07013 0.48605 0.0
C897 C 0.98451 0.0927 0.47178 0.0
C898 C 0.97327 0.11247 0.46006 0.0
H899 H 0.89254 0.09548 0.39944 0.0
H900 H 0.9198 0.08558 0.41661 0.0
H901 H 0.88597 0.08219 0.43303 0.0
H902 H 0.90456 0.08546 0.47889 0.0
H903 H 0.92396 0.05073 0.49913 0.0
H904 H 0.31144 0.6649 0.13036 0.0
H905 H 0.26828 0.64272 0.1073 0.0
H906 H 0.22435 0.62261 0.18397 0.0
H907 H 0.26755 0.64508 0.20726 0.0
H908 H 0.2328 0.58719 0.10952 0.0
H909 H 0.17607 0.66508 0.14474 0.0
H910 H 0.21357 0.67137 0.14683 0.0
H911 H 0.19044 0.64909 0.17075 0.0
C912 C 0.29262 0.65582 0.1424 0.0
C913 C 0.29309 0.65708 0.17078 0.0
C914 C 0.26789 0.64299 0.12912 0.0
C915 C 0.24277 0.63128 0.14377 0.0
C916 C 0.24326 0.63184 0.17211 0.0
H917 H 0.08782 0.52259 0.0802 0.0
H918 H 0.13105 0.54228 0.104 0.0
C919 C 0.26811 0.64448 0.18545 0.0
C920 C 0.2162 0.61878 0.12925 0.0
H921 H 0.15059 0.6266 0.11919 0.0
C922 C 0.21482 0.59578 0.11173 0.0
C923 C 0.19272 0.63011 0.13171 0.0
C924 C 0.19317 0.65541 0.14933 0.0
C925 C 0.19068 0.58367 0.097 0.0
C926 C 0.16703 0.59472 0.09979 0.0
C927 C 0.16854 0.61794 0.11706 0.0
C928 C 0.14065 0.58257 0.08489 0.0
C929 C 0.19088 0.55943 0.07813 0.0
C930 C 0.13114 0.59861 0.06629 0.0
C931 C 0.10632 0.58733 0.05247 0.0
C932 C 0.09008 0.55978 0.05716 0.0
C933 C 0.09964 0.54384 0.07592 0.0
C934 C 0.12454 0.55505 0.08953 0.0
H935 H 0.2125 0.55767 0.07341 0.0
H936 H 0.17877 0.53973 0.08774 0.0
H937 H 0.18089 0.56153 0.05899 0.0
H938 H 0.14303 0.61991 0.06235 0.0
H939 H 0.09967 0.60037 0.03837 0.0
H940 H 0.19666 0.37541 0.61878 0.0
H941 H 0.23961 0.39914 0.59342 0.0
H942 H 0.28253 0.4209 0.66778 0.0
H943 H 0.23975 0.39703 0.69329 0.0
H944 H 0.27514 0.45838 0.60044 0.0
H945 H 0.32825 0.37511 0.61902 0.0
H946 H 0.29064 0.36926 0.62216 0.0
H947 H 0.31241 0.38816 0.64806 0.0
C948 C 0.21526 0.3853 0.6297 0.0
C949 C 0.21498 0.38426 0.65798 0.0
C950 C 0.23966 0.39892 0.61522 0.0
C951 C 0.26416 0.41146 0.6288 0.0
C952 C 0.26378 0.41112 0.65703 0.0
H953 H 0.42288 0.52135 0.58151 0.0
H954 H 0.37592 0.49974 0.60016 0.0
C955 C 0.23935 0.39767 0.67154 0.0
C956 C 0.2904 0.42421 0.61341 0.0
H957 H 0.35558 0.41606 0.5978 0.0
C958 C 0.29273 0.44914 0.59972 0.0
C959 C 0.31302 0.41178 0.6123 0.0
C960 C 0.31106 0.38448 0.62597 0.0
C961 C 0.3176 0.46247 0.58549 0.0
C962 C 0.34056 0.45051 0.58515 0.0
C963 C 0.3379 0.42516 0.59821 0.0
C964 C 0.368 0.46452 0.57235 0.0
C965 C 0.31918 0.4892 0.57096 0.0
C966 C 0.37908 0.45174 0.55062 0.0
C967 C 0.40597 0.46403 0.53986 0.0
C968 C 0.4223 0.48909 0.55098 0.0
C969 C 0.4109 0.50199 0.57253 0.0
C970 C 0.38399 0.4898 0.58311 0.0
H971 H 0.29801 0.49196 0.56769 0.0
H972 H 0.3308 0.50721 0.58323 0.0
H973 H 0.33058 0.48962 0.55116 0.0
H974 H 0.36704 0.43209 0.54221 0.0
H975 H 0.41417 0.45353 0.52332 0.0
H976 H 0.7394 0.72809 0.93099 0.0
H977 H 0.78038 0.71138 0.94008 0.0
H978 H 0.76602 0.65851 0.86905 0.0
H979 H 0.72521 0.67547 0.8596 0.0
H980 H 0.78564 0.65693 0.94779 0.0
H981 H 0.8472 0.70577 0.85713 0.0
H982 H 0.81581 0.71472 0.86951 0.0
H983 H 0.81334 0.6829 0.85053 0.0
C984 C 0.74485 0.71277 0.91741 0.0
C985 C 0.72928 0.70316 0.89446 0.0
C986 C 0.76826 0.70326 0.92262 0.0
C987 C 0.7765 0.68413 0.90495 0.0
C988 C 0.76034 0.67372 0.88261 0.0
H989 H 0.91913 0.61151 0.90504 0.0
H990 H 0.876 0.62364 0.89397 0.0
C991 C 0.73695 0.68324 0.87737 0.0
C992 C 0.80222 0.67539 0.90978 0.0
H993 H 0.86763 0.67773 0.88328 0.0
C994 C 0.80357 0.66146 0.93371 0.0
C995 C 0.82554 0.68133 0.89131 0.0
C996 C 0.82563 0.69721 0.86577 0.0
C997 C 0.82762 0.65319 0.93963 0.0
C998 C 0.85104 0.65943 0.92132 0.0
C999 C 0.84958 0.67299 0.89722 0.0
C1000 C 0.87756 0.65281 0.92733 0.0
C1001 C 0.82772 0.63764 0.96533 0.0
C1002 C 0.89295 0.66573 0.94933 0.0
C1003 C 0.91747 0.65885 0.95571 0.0
C1004 C 0.92715 0.63901 0.9401 0.0
C1005 C 0.91206 0.62666 0.91759 0.0
C1006 C 0.88751 0.63362 0.91119 0.0
H1007 H 0.80613 0.62833 0.97359 0.0
H1008 H 0.83846 0.62075 0.96199 0.0
H1009 H 0.83922 0.6524 0.9807 0.0
H1010 H 0.88582 0.68092 0.96177 0.0
H1011 H 0.92836 0.6685 0.97337 0.0
H1012 H 0.33485 0.75457 0.16834 0.0
H1013 H 0.35767 0.79878 0.14695 0.0
H1014 H 0.43854 0.78682 0.16307 0.0
H1015 H 0.4157 0.74143 0.18322 0.0
H1016 H 0.38977 0.84619 0.16303 0.0
H1017 H 0.45135 0.80386 0.08498 0.0
H1018 H 0.42472 0.78151 0.10625 0.0
H1019 H 0.45915 0.79692 0.11861 0.0
C1020 C 0.35753 0.76096 0.16704 0.0
C1021 C 0.37327 0.74373 0.17712 0.0
C1022 C 0.37064 0.7866 0.15492 0.0
C1023 C 0.4 0.7962 0.15255 0.0
C1024 C 0.41588 0.77974 0.1637 0.0
H1025 H 0.51126 0.95039 0.0856 0.0
H1026 H 0.4909 0.90653 0.10917 0.0
C1027 C 0.40273 0.75383 0.17569 0.0
C1028 C 0.41354 0.82344 0.13861 0.0
H1029 H 0.46026 0.8532 0.08775 0.0
C1030 C 0.40511 0.84756 0.14652 0.0
C1031 C 0.43361 0.82566 0.11688 0.0
C1032 C 0.44256 0.80058 0.10596 0.0
C1033 C 0.41617 0.87347 0.13367 0.0
C1034 C 0.43622 0.87564 0.11206 0.0
C1035 C 0.44492 0.85169 0.10429 0.0
C1036 C 0.44848 0.90255 0.09738 0.0
C1037 C 0.40659 0.89851 0.14364 0.0
C1038 C 0.43162 0.9151 0.08247 0.0
C1039 C 0.44328 0.94026 0.06871 0.0
C1040 C 0.47215 0.95369 0.0696 0.0
C1041 C 0.48895 0.94095 0.08447 0.0
C1042 C 0.47733 0.9157 0.09798 0.0
H1043 H 0.39609 0.89511 0.16396 0.0
H1044 H 0.42456 0.91742 0.14445 0.0
H1045 H 0.3914 0.90258 0.12951 0.0
H1046 H 0.40939 0.90528 0.08126 0.0
H1047 H 0.42961 0.94922 0.05745 0.0
H1048 H 0.0959 0.3006 0.67603 0.0
H1049 H 0.07327 0.25397 0.65818 0.0
H1050 H 0.15435 0.23889 0.64179 0.0
H1051 H 0.17701 0.28488 0.66046 0.0
H1052 H 0.07998 0.23499 0.60638 0.0
H1053 H 0.11187 0.16773 0.67956 0.0
H1054 H 0.11466 0.2043 0.68614 0.0
H1055 H 0.14084 0.19387 0.66524 0.0
C1056 C 0.10885 0.28711 0.66913 0.0
C1057 C 0.13823 0.29644 0.66959 0.0
C1058 C 0.09592 0.26057 0.6588 0.0
C1059 C 0.11213 0.24286 0.64897 0.0
C1060 C 0.14142 0.25199 0.64975 0.0
H1061 H 0.07987 0.0867 0.55838 0.0
H1062 H 0.10111 0.13088 0.58167 0.0
C1063 C 0.15434 0.27843 0.6601 0.0
C1064 C 0.09859 0.2156 0.63628 0.0
H1065 H 0.09291 0.14558 0.63876 0.0
C1066 C 0.08257 0.21541 0.61361 0.0
C1067 C 0.10217 0.19012 0.64568 0.0
C1068 C 0.11809 0.18889 0.67065 0.0
C1069 C 0.07049 0.19047 0.59973 0.0
C1070 C 0.07431 0.16507 0.60898 0.0
C1071 C 0.09019 0.16518 0.6317 0.0
C1072 C 0.06155 0.13812 0.59548 0.0
C1073 C 0.05422 0.1915 0.57494 0.0
C1074 C 0.03235 0.1275 0.59596 0.0
C1075 C 0.02017 0.10233 0.58279 0.0
C1076 C 0.03699 0.08727 0.56891 0.0
C1077 C 0.06631 0.0978 0.56882 0.0
C1078 C 0.07849 0.12299 0.58212 0.0
H1079 H 0.05836 0.21307 0.56716 0.0
H1080 H 0.05951 0.17776 0.55869 0.0
H1081 H 0.03146 0.18388 0.58002 0.0
H1082 H 0.01898 0.13874 0.6065 0.0
H1083 H 0.99752 0.09483 0.58338 0.0
H1084 H 0.76391 0.32786 0.34734 0.0
H1085 H 0.73065 0.34932 0.37158 0.0
H1086 H 0.72413 0.29209 0.43693 0.0
H1087 H 0.75714 0.27021 0.41257 0.0
H1088 H 0.67226 0.29398 0.41666 0.0
H1089 H 0.73852 0.40038 0.43917 0.0
H1090 H 0.74131 0.38961 0.4046 0.0
H1091 H 0.75305 0.37133 0.43061 0.0
C1092 C 0.75563 0.32006 0.36701 0.0
C1093 C 0.7631 0.29735 0.37805 0.0
C1094 C 0.73683 0.33249 0.38093 0.0
C1095 C 0.72518 0.32248 0.40617 0.0
C1096 C 0.73309 0.30025 0.41757 0.0
H1097 H 0.61043 0.4001 0.49966 0.0
H1098 H 0.6486 0.37871 0.48729 0.0
C1099 C 0.75204 0.28789 0.40371 0.0
C1100 C 0.70299 0.33372 0.41943 0.0
H1101 H 0.68881 0.39412 0.44249 0.0
C1102 C 0.67593 0.31579 0.42265 0.0
C1103 C 0.70792 0.3621 0.42743 0.0
C1104 C 0.73683 0.38195 0.42554 0.0
C1105 C 0.65338 0.32579 0.43258 0.0
C1106 C 0.65802 0.35448 0.43921 0.0
C1107 C 0.6853 0.37216 0.43714 0.0
C1108 C 0.6346 0.36677 0.44703 0.0
C1109 C 0.62469 0.30567 0.43559 0.0
C1110 C 0.61428 0.3673 0.42839 0.0
C1111 C 0.59265 0.37974 0.43524 0.0
C1112 C 0.59089 0.39191 0.46093 0.0
C1113 C 0.61129 0.3912 0.47962 0.0
C1114 C 0.63303 0.37887 0.47266 0.0
H1115 H 0.6259 0.28366 0.43634 0.0
H1116 H 0.61339 0.31048 0.45414 0.0
H1117 H 0.61222 0.30762 0.41805 0.0
H1118 H 0.61546 0.35854 0.40831 0.0
H1119 H 0.57773 0.38042 0.42013 0.0
loop_
_geom_bond_atom_site_label_1
_geom_bond_atom_site_label_2
_geom_bond_distance
_geom_bond_site_symmetry_2
_ccdc_geom_bond_type
H0 C5 0.930 . S
H1 C8 0.930 . S
H2 C10 0.930 . S
H3 C4 1.016 . S
C4 H3 1.016 . S
C4 N11 1.286 . S
C5 H0 0.930 . S
C5 C6 1.397 . S
C5 C7 1.361 . S
C6 C5 1.397 . S
C6 C10 1.390 . S
C7 C5 1.361 . S
C7 C8 1.393 . S
C7 N11 1.413 . S
C8 H1 0.930 . S
C8 C7 1.393 . S
C8 C9 1.399 . S
C9 C8 1.399 . S
C9 C10 1.381 . S
C10 H2 0.930 . S
C10 C6 1.390 . S
C10 C9 1.381 . S
N11 C4 1.286 . S
N11 C7 1.413 . S
H12 C17 0.930 . S
H13 C20 0.930 . S
H14 C22 0.930 . S
H15 C16 1.016 . S
C16 H15 1.016 . S
C16 N23 1.286 . S
C17 H12 0.930 . S
C17 C18 1.397 . S
C17 C19 1.361 . S
C18 C17 1.397 . S
C18 C22 1.390 . S
C19 C17 1.361 . S
C19 C20 1.393 . S
C19 N23 1.413 . S
C20 H13 0.930 . S
C20 C19 1.393 . S
C20 C21 1.399 . S
C21 C20 1.399 . S
C21 C22 1.381 . S
C22 H14 0.930 . S
C22 C18 1.390 . S
C22 C21 1.381 . S
N23 C16 1.286 . S
N23 C19 1.413 . S
H24 C29 0.930 . S
H25 C32 0.930 . S
H26 C34 0.930 . S
H27 C28 1.016 . S
C28 H27 1.016 . S
C28 N35 1.286 . S
C29 H24 0.930 . S
C29 C30 1.397 . S
C29 C31 1.361 . S
C30 C29 1.397 . S
C30 C34 1.390 . S
C31 C29 1.361 . S
C31 C32 1.393 . S
C31 N35 1.413 . S
C32 H25 0.930 . S
C32 C31 1.393 . S
C32 C33 1.399 . S
C33 C32 1.399 . S
C33 C34 1.381 . S
C34 H26 0.930 . S
C34 C30 1.390 . S
C34 C33 1.381 . S
N35 C28 1.286 . S
N35 C31 1.413 . S
H36 C41 0.930 . S
H37 C44 0.930 . S
H38 C46 0.930 . S
H39 C40 1.016 . S
C40 H39 1.016 . S
C40 N47 1.286 . S
C41 H36 0.930 . S
C41 C42 1.397 . S
C41 C43 1.361 . S
C42 C41 1.397 . S
C42 C46 1.390 . S
C43 C41 1.361 . S
C43 C44 1.393 . S
C43 N47 1.413 . S
C44 H37 0.930 . S
C44 C43 1.393 . S
C44 C45 1.399 . S
C45 C44 1.399 . S
C45 C46 1.381 . S
C46 H38 0.930 . S
C46 C42 1.390 . S
C46 C45 1.381 . S
N47 C40 1.286 . S
N47 C43 1.413 . S
H48 C53 0.930 . S
H49 C56 0.930 . S
H50 C58 0.930 . S
H51 C52 1.016 . S
C52 H51 1.016 . S
C52 N59 1.286 . S
C53 H48 0.930 . S
C53 C54 1.397 . S
C53 C55 1.361 . S
C54 C53 1.397 . S
C54 C58 1.390 . S
C55 C53 1.361 . S
C55 C56 1.393 . S
C55 N59 1.413 . S
C56 H49 0.930 . S
C56 C55 1.393 . S
C56 C57 1.399 . S
C57 C56 1.399 . S
C57 C58 1.381 . S
C58 H50 0.930 . S
C58 C54 1.390 . S
C58 C57 1.381 . S
N59 C52 1.286 . S
N59 C55 1.413 . S
H60 C65 0.930 . S
H61 C68 0.930 . S
H62 C70 0.930 . S
H63 C64 1.016 . S
C64 H63 1.016 . S
C64 N71 1.286 . S
C65 H60 0.930 . S
C65 C66 1.397 . S
C65 C67 1.361 . S
C66 C65 1.397 . S
C66 C70 1.390 . S
C67 C65 1.361 . S
C67 C68 1.393 . S
C67 N71 1.413 . S
C68 H61 0.930 . S
C68 C67 1.393 . S
C68 C69 1.399 . S
C69 C68 1.399 . S
C69 C70 1.381 . S
C70 H62 0.930 . S
C70 C66 1.390 . S
C70 C69 1.381 . S
N71 C64 1.286 . S
N71 C67 1.413 . S
H72 C77 0.930 . S
H73 C80 0.930 . S
H74 C82 0.930 . S
H75 C76 1.016 . S
C76 H75 1.016 . S
C76 N83 1.286 . S
C77 H72 0.930 . S
C77 C78 1.397 . S
C77 C79 1.361 . S
C78 C77 1.397 . S
C78 C82 1.390 . S
C79 C77 1.361 . S
C79 C80 1.393 . S
C79 N83 1.413 . S
C80 H73 0.930 . S
C80 C79 1.393 . S
C80 C81 1.399 . S
C81 C80 1.399 . S
C81 C82 1.381 . S
C82 H74 0.930 . S
C82 C78 1.390 . S
C82 C81 1.381 . S
N83 C76 1.286 . S
N83 C79 1.413 . S
H84 C89 0.930 . S
H85 C92 0.930 . S
H86 C94 0.930 . S
H87 C88 1.016 . S
C88 H87 1.016 . S
C88 N95 1.286 . S
C89 H84 0.930 . S
C89 C90 1.397 . S
C89 C91 1.361 . S
C90 C89 1.397 . S
C90 C94 1.390 . S
C91 C89 1.361 . S
C91 C92 1.393 . S
C91 N95 1.413 . S
C92 H85 0.930 . S
C92 C91 1.393 . S
C92 C93 1.399 . S
C93 C92 1.399 . S
C93 C94 1.381 . S
C94 H86 0.930 . S
C94 C90 1.390 . S
C94 C93 1.381 . S
N95 C88 1.286 . S
N95 C91 1.413 . S
Tb96 C105 2.764 . S
Tb96 O106 2.325 1_455 S
Tb96 O109 2.303 . S
Tb96 O113 2.322 1_545 S
Tb96 O114 2.349 1_545 S
Tb96 O117 2.415 . S
Tb96 O118 2.399 . S
Tb97 O107 2.299 1_565 S
Tb97 O108 2.325 1_565 S
Tb97 O110 2.443 . S
Tb97 O111 2.404 . S
Tb97 O112 2.346 1_655 S
Tb97 O115 2.322 . S
Tb97 C126 2.783 . S
C98 O114 1.261 1_655 S
C98 O115 1.257 . S
C99 C102 1.358 . S
C99 C103 1.332 . S
C99 C105 1.504 . S
C100 C101 1.373 . S
C100 C104 1.308 . S
C101 C100 1.373 . S
C101 C102 1.429 . S
C101 H128 0.932 . S
C102 C99 1.358 . S
C102 C101 1.429 . S
C102 H129 0.930 . S
C103 C99 1.332 . S
C103 C104 1.394 . S
C103 H130 0.932 . S
C104 C100 1.308 . S
C104 C103 1.394 . S
C104 H131 0.929 . S
C105 Tb96 2.764 . S
C105 C99 1.504 . S
C105 O117 1.239 . S
C105 O118 1.263 . S
O106 Tb96 2.325 1_655 S
O106 C116 1.236 . S
O107 Tb97 2.299 1_545 S
O107 C116 1.257 . S
O108 Tb97 2.325 1_545 S
O108 C119 1.261 1_655 S
O109 Tb96 2.303 . S
O109 C119 1.257 . S
O110 Tb97 2.443 . S
O110 C126 1.239 . S
O111 Tb97 2.404 . S
O111 C126 1.263 . S
O112 Tb97 2.346 1_455 S
O112 C127 1.236 . S
O113 Tb96 2.322 1_565 S
O113 C127 1.257 . S
O114 Tb96 2.349 1_565 S
O114 C98 1.261 1_455 S
O115 Tb97 2.322 . S
O115 C98 1.257 . S
C116 O106 1.236 . S
C116 O107 1.257 . S
O117 Tb96 2.415 . S
O117 C105 1.239 . S
O118 Tb96 2.399 . S
O118 C105 1.263 . S
C119 O108 1.261 1_455 S
C119 O109 1.257 . S
C120 C123 1.358 . S
C120 C124 1.332 . S
C120 C126 1.504 . S
C121 C122 1.373 . S
C121 C125 1.308 . S
C122 C121 1.373 . S
C122 C123 1.429 . S
C122 H132 0.932 . S
C123 C120 1.358 . S
C123 C122 1.429 . S
C123 H133 0.930 . S
C124 C120 1.332 . S
C124 C125 1.394 . S
C124 H134 0.932 . S
C125 C121 1.308 . S
C125 C124 1.394 . S
C125 H135 0.929 . S
C126 Tb97 2.783 . S
C126 O110 1.239 . S
C126 O111 1.263 . S
C126 C120 1.504 . S
C127 O112 1.236 . S
C127 O113 1.257 . S
H128 C101 0.932 . S
H129 C102 0.930 . S
H130 C103 0.932 . S
H131 C104 0.929 . S
H132 C122 0.932 . S
H133 C123 0.930 . S
H134 C124 0.932 . S
H135 C125 0.929 . S
Tb136 C145 2.764 . S
Tb136 O146 2.325 . S
Tb136 O149 2.303 . S
Tb136 O153 2.322 1_545 S
Tb136 O154 2.349 1_545 S
Tb136 O157 2.415 . S
Tb136 O158 2.399 . S
Tb137 O147 2.322 . S
Tb137 O148 2.349 1_556 S
Tb137 O150 2.415 1_545 S
Tb137 O151 2.399 1_545 S
Tb137 O152 2.325 1_546 S
Tb137 O155 2.303 1_545 S
Tb137 C166 2.764 1_545 S
C138 O154 1.261 1_556 S
C138 O155 1.257 . S
C139 C142 1.358 . S
C139 C143 1.332 . S
C139 C145 1.504 . S
C140 C141 1.373 . S
C140 C144 1.308 . S
C141 C140 1.373 . S
C141 C142 1.429 . S
C141 H168 0.932 . S
C142 C139 1.358 . S
C142 C141 1.429 . S
C142 H169 0.930 . S
C143 C139 1.332 . S
C143 C144 1.394 . S
C143 H170 0.932 . S
C144 C140 1.308 . S
C144 C143 1.394 . S
C144 H171 0.929 . S
C145 Tb136 2.764 . S
C145 C139 1.504 . S
C145 O157 1.239 . S
C145 O158 1.263 . S
O146 Tb136 2.325 . S
O146 C156 1.236 1_554 S
O147 Tb137 2.322 . S
O147 C156 1.257 . S
O148 Tb137 2.349 1_554 S
O148 C159 1.261 . S
O149 Tb136 2.303 . S
O149 C159 1.257 . S
O150 Tb137 2.415 1_565 S
O150 C166 1.239 . S
O151 Tb137 2.399 1_565 S
O151 C166 1.263 . S
O152 Tb137 2.325 1_564 S
O152 C167 1.236 . S
O153 Tb136 2.322 1_565 S
O153 C167 1.257 . S
O154 Tb136 2.349 1_565 S
O154 C138 1.261 1_554 S
O155 Tb137 2.303 1_565 S
O155 C138 1.257 . S
C156 O146 1.236 1_556 S
C156 O147 1.257 . S
O157 Tb136 2.415 . S
O157 C145 1.239 . S
O158 Tb136 2.399 . S
O158 C145 1.263 . S
C159 O148 1.261 . S
C159 O149 1.257 . S
C160 C163 1.358 . S
C160 C164 1.332 . S
C160 C166 1.504 . S
C161 C162 1.373 . S
C161 C165 1.308 . S
C162 C161 1.373 . S
C162 C163 1.429 . S
C162 H172 0.932 . S
C163 C160 1.358 . S
C163 C162 1.429 . S
C163 H173 0.930 . S
C164 C160 1.332 . S
C164 C165 1.394 . S
C164 H174 0.932 . S
C165 C161 1.308 . S
C165 C164 1.394 . S
C165 H175 0.929 . S
C166 Tb137 2.764 1_565 S
C166 O150 1.239 . S
C166 O151 1.263 . S
C166 C160 1.504 . S
C167 O152 1.236 . S
C167 O153 1.257 . S
H168 C141 0.932 . S
H169 C142 0.930 . S
H170 C143 0.932 . S
H171 C144 0.929 . S
H172 C162 0.932 . S
H173 C163 0.930 . S
H174 C164 0.932 . S
H175 C165 0.929 . S
Tb176 C185 2.764 . S
Tb176 O186 2.325 . S
Tb176 O189 2.303 . S
Tb176 O193 2.322 . S
Tb176 O194 2.349 . S
Tb176 O197 2.415 . S
Tb176 O198 2.399 . S
Tb177 O187 2.322 . S
Tb177 O188 2.349 . S
Tb177 O190 2.415 . S
Tb177 O191 2.399 . S
Tb177 O192 2.325 . S
Tb177 O195 2.303 . S
Tb177 C206 2.764 . S
C178 O194 1.261 . S
C178 O195 1.257 . S
C179 C182 1.358 . S
C179 C183 1.332 . S
C179 C185 1.504 . S
C180 C181 1.373 . S
C180 C184 1.308 . S
C181 C180 1.373 . S
C181 C182 1.429 . S
C181 H208 0.932 . S
C182 C179 1.358 . S
C182 C181 1.429 . S
C182 H209 0.930 . S
C183 C179 1.332 . S
C183 C184 1.394 . S
C183 H210 0.932 . S
C184 C180 1.308 . S
C184 C183 1.394 . S
C184 H211 0.929 . S
C185 Tb176 2.764 . S
C185 C179 1.504 . S
C185 O197 1.239 . S
C185 O198 1.263 . S
O186 Tb176 2.325 . S
O186 C196 1.236 . S
O187 Tb177 2.322 . S
O187 C196 1.257 . S
O188 Tb177 2.349 . S
O188 C199 1.261 . S
O189 Tb176 2.303 . S
O189 C199 1.257 . S
O190 Tb177 2.415 . S
O190 C206 1.239 . S
O191 Tb177 2.399 . S
O191 C206 1.263 . S
O192 Tb177 2.325 . S
O192 C207 1.236 . S
O193 Tb176 2.322 . S
O193 C207 1.257 . S
O194 Tb176 2.349 . S
O194 C178 1.261 . S
O195 Tb177 2.303 . S
O195 C178 1.257 . S
C196 O186 1.236 . S
C196 O187 1.257 . S
O197 Tb176 2.415 . S
O197 C185 1.239 . S
O198 Tb176 2.399 . S
O198 C185 1.263 . S
C199 O188 1.261 . S
C199 O189 1.257 . S
C200 C203 1.358 . S
C200 C204 1.332 . S
C200 C206 1.504 . S
C201 C202 1.373 . S
C201 C205 1.308 . S
C202 C201 1.373 . S
C202 C203 1.429 . S
C202 H212 0.932 . S
C203 C200 1.358 . S
C203 C202 1.429 . S
C203 H213 0.930 . S
C204 C200 1.332 . S
C204 C205 1.394 . S
C204 H214 0.932 . S
C205 C201 1.308 . S
C205 C204 1.394 . S
C205 H215 0.929 . S
C206 Tb177 2.764 . S
C206 O190 1.239 . S
C206 O191 1.263 . S
C206 C200 1.504 . S
C207 O192 1.236 . S
C207 O193 1.257 . S
H208 C181 0.932 . S
H209 C182 0.930 . S
H210 C183 0.932 . S
H211 C184 0.929 . S
H212 C202 0.932 . S
H213 C203 0.930 . S
H214 C204 0.932 . S
H215 C205 0.929 . S
Tb216 C225 2.764 1_455 S
Tb216 O226 2.325 1_455 S
Tb216 O229 2.303 1_456 S
Tb216 O233 2.322 1_556 S
Tb216 O234 2.349 . S
Tb216 O237 2.415 1_455 S
Tb216 O238 2.399 1_455 S
Tb217 O227 2.322 1_455 S
Tb217 O228 2.349 1_455 S
Tb217 O230 2.415 . S
Tb217 O231 2.399 . S
Tb217 O232 2.325 . S
Tb217 O235 2.303 1_554 S
Tb217 C246 2.764 . S
C218 O234 1.261 . S
C218 O235 1.257 . S
C219 C222 1.358 . S
C219 C223 1.332 . S
C219 C225 1.504 . S
C220 C221 1.373 . S
C220 C224 1.308 . S
C221 C220 1.373 . S
C221 C222 1.429 . S
C221 H248 0.932 . S
C222 C219 1.358 . S
C222 C221 1.429 . S
C222 H249 0.930 . S
C223 C219 1.332 . S
C223 C224 1.394 . S
C223 H250 0.932 . S
C224 C220 1.308 . S
C224 C223 1.394 . S
C224 H251 0.929 . S
C225 Tb216 2.764 1_655 S
C225 C219 1.504 . S
C225 O237 1.239 . S
C225 O238 1.263 . S
O226 Tb216 2.325 1_655 S
O226 C236 1.236 . S
O227 Tb217 2.322 1_655 S
O227 C236 1.257 1_554 S
O228 Tb217 2.349 1_655 S
O228 C239 1.261 . S
O229 Tb216 2.303 1_654 S
O229 C239 1.257 . S
O230 Tb217 2.415 . S
O230 C246 1.239 . S
O231 Tb217 2.399 . S
O231 C246 1.263 . S
O232 Tb217 2.325 . S
O232 C247 1.236 . S
O233 Tb216 2.322 1_554 S
O233 C247 1.257 . S
O234 Tb216 2.349 . S
O234 C218 1.261 . S
O235 Tb217 2.303 1_556 S
O235 C218 1.257 . S
C236 O226 1.236 . S
C236 O227 1.257 1_556 S
O237 Tb216 2.415 1_655 S
O237 C225 1.239 . S
O238 Tb216 2.399 1_655 S
O238 C225 1.263 . S
C239 O228 1.261 . S
C239 O229 1.257 . S
C240 C243 1.358 . S
C240 C244 1.332 . S
C240 C246 1.504 . S
C241 C242 1.373 . S
C241 C245 1.308 . S
C242 C241 1.373 . S
C242 C243 1.429 . S
C242 H252 0.932 . S
C243 C240 1.358 . S
C243 C242 1.429 . S
C243 H253 0.930 . S
C244 C240 1.332 . S
C244 C245 1.394 . S
C244 H254 0.932 . S
C245 C241 1.308 . S
C245 C244 1.394 . S
C245 H255 0.929 . S
C246 Tb217 2.764 . S
C246 O230 1.239 . S
C246 O231 1.263 . S
C246 C240 1.504 . S
C247 O232 1.236 . S
C247 O233 1.257 . S
H248 C221 0.932 . S
H249 C222 0.930 . S
H250 C223 0.932 . S
H251 C224 0.929 . S
H252 C242 0.932 . S
H253 C243 0.930 . S
H254 C244 0.932 . S
H255 C245 0.929 . S
H256 C264 0.929 . S
H257 C266 0.930 . S
H258 C268 0.930 . S
H259 C271 0.929 . S
H260 C274 0.930 . S
H261 C276 0.960 . S
H262 C276 0.960 . S
H263 C276 0.960 . S
C264 H256 0.929 . S
C264 C265 1.377 . S
C264 C266 1.384 . S
C265 C264 1.377 . S
C265 C271 1.390 . S
C266 H257 0.930 . S
C266 C264 1.384 . S
C266 C267 1.372 . S
C267 C266 1.372 . S
C267 C268 1.400 . S
C267 C272 1.490 . S
C268 H258 0.930 . S
C268 C267 1.400 . S
C268 C271 1.386 . S
H269 C285 0.930 . S
H270 C286 0.931 . S
C271 H259 0.929 . S
C271 C265 1.390 . S
C271 C268 1.386 . S
C272 C267 1.490 . S
C272 C274 1.395 . S
C272 C275 1.403 . S
H273 C279 0.930 . S
C274 H260 0.930 . S
C274 C272 1.395 . S
C274 C277 1.403 . S
C275 C272 1.403 . S
C275 C276 1.524 . S
C275 C279 1.400 . S
C276 H261 0.960 . S
C276 H262 0.960 . S
C276 H263 0.960 . S
C276 C275 1.524 . S
C277 C274 1.403 . S
C277 C278 1.392 . S
C277 C281 1.495 . S
C278 C277 1.392 . S
C278 C279 1.385 . S
C278 C280 1.478 . S
C279 H273 0.930 . S
C279 C275 1.400 . S
C279 C278 1.385 . S
C280 C278 1.478 . S
C280 C282 1.381 . S
C280 C286 1.383 . S
C281 C277 1.495 . S
C281 H287 0.959 . S
C281 H288 0.961 . S
C281 H289 0.960 . S
C282 C280 1.381 . S
C282 C283 1.394 . S
C282 H290 0.930 . S
C283 C282 1.394 . S
C283 C284 1.383 . S
C283 H291 0.929 . S
C284 C283 1.383 . S
C284 C285 1.377 . S
C285 H269 0.930 . S
C285 C284 1.377 . S
C285 C286 1.379 . S
C286 H270 0.931 . S
C286 C280 1.383 . S
C286 C285 1.379 . S
H287 C281 0.959 . S
H288 C281 0.961 . S
H289 C281 0.960 . S
H290 C282 0.930 . S
H291 C283 0.929 . S
H292 C300 0.929 . S
H293 C302 0.930 . S
H294 C304 0.930 . S
H295 C307 0.929 . S
H296 C310 0.930 . S
H297 C312 0.960 . S
H298 C312 0.960 . S
H299 C312 0.960 . S
C300 H292 0.929 . S
C300 C301 1.377 . S
C300 C302 1.384 . S
C301 C300 1.377 . S
C301 C307 1.390 . S
C302 H293 0.930 . S
C302 C300 1.384 . S
C302 C303 1.372 . S
C303 C302 1.372 . S
C303 C304 1.400 . S
C303 C308 1.490 . S
C304 H294 0.930 . S
C304 C303 1.400 . S
C304 C307 1.386 . S
H305 C321 0.930 . S
H306 C322 0.931 . S
C307 H295 0.929 . S
C307 C301 1.390 . S
C307 C304 1.386 . S
C308 C303 1.490 . S
C308 C310 1.395 . S
C308 C311 1.403 . S
H309 C315 0.930 . S
C310 H296 0.930 . S
C310 C308 1.395 . S
C310 C313 1.403 . S
C311 C308 1.403 . S
C311 C312 1.524 . S
C311 C315 1.400 . S
C312 H297 0.960 . S
C312 H298 0.960 . S
C312 H299 0.960 . S
C312 C311 1.524 . S
C313 C310 1.403 . S
C313 C314 1.392 . S
C313 C317 1.495 . S
C314 C313 1.392 . S
C314 C315 1.385 . S
C314 C316 1.478 . S
C315 H309 0.930 . S
C315 C311 1.400 . S
C315 C314 1.385 . S
C316 C314 1.478 . S
C316 C318 1.381 . S
C316 C322 1.383 . S
C317 C313 1.495 . S
C317 H323 0.959 . S
C317 H324 0.961 . S
C317 H325 0.960 . S
C318 C316 1.381 . S
C318 C319 1.394 . S
C318 H326 0.930 . S
C319 C318 1.394 . S
C319 C320 1.383 . S
C319 H327 0.929 . S
C320 C319 1.383 . S
C320 C321 1.377 . S
C321 H305 0.930 . S
C321 C320 1.377 . S
C321 C322 1.379 . S
C322 H306 0.931 . S
C322 C316 1.383 . S
C322 C321 1.379 . S
H323 C317 0.959 . S
H324 C317 0.961 . S
H325 C317 0.960 . S
H326 C318 0.930 . S
H327 C319 0.929 . S
H328 C336 0.929 . S
H329 C338 0.930 . S
H330 C340 0.930 . S
H331 C343 0.929 . S
H332 C346 0.930 . S
H333 C348 0.960 . S
H334 C348 0.960 . S
H335 C348 0.960 . S
C336 H328 0.929 . S
C336 C337 1.377 . S
C336 C338 1.384 . S
C337 C336 1.377 . S
C337 C343 1.390 . S
C338 H329 0.930 . S
C338 C336 1.384 . S
C338 C339 1.372 . S
C339 C338 1.372 . S
C339 C340 1.400 . S
C339 C344 1.490 . S
C340 H330 0.930 . S
C340 C339 1.400 . S
C340 C343 1.386 . S
H341 C357 0.930 . S
H342 C358 0.931 . S
C343 H331 0.929 . S
C343 C337 1.390 . S
C343 C340 1.386 . S
C344 C339 1.490 . S
C344 C346 1.395 . S
C344 C347 1.403 . S
H345 C351 0.930 . S
C346 H332 0.930 . S
C346 C344 1.395 . S
C346 C349 1.403 . S
C347 C344 1.403 . S
C347 C348 1.524 . S
C347 C351 1.400 . S
C348 H333 0.960 . S
C348 H334 0.960 . S
C348 H335 0.960 . S
C348 C347 1.524 . S
C349 C346 1.403 . S
C349 C350 1.392 . S
C349 C353 1.495 . S
C350 C349 1.392 . S
C350 C351 1.385 . S
C350 C352 1.478 . S
C351 H345 0.930 . S
C351 C347 1.400 . S
C351 C350 1.385 . S
C352 C350 1.478 . S
C352 C354 1.381 . S
C352 C358 1.383 . S
C353 C349 1.495 . S
C353 H359 0.959 . S
C353 H360 0.961 . S
C353 H361 0.960 . S
C354 C352 1.381 . S
C354 C355 1.394 . S
C354 H362 0.930 . S
C355 C354 1.394 . S
C355 C356 1.383 . S
C355 H363 0.929 . S
C356 C355 1.383 . S
C356 C357 1.377 . S
C357 H341 0.930 . S
C357 C356 1.377 . S
C357 C358 1.379 . S
C358 H342 0.931 . S
C358 C352 1.383 . S
C358 C357 1.379 . S
H359 C353 0.959 . S
H360 C353 0.961 . S
H361 C353 0.960 . S
H362 C354 0.930 . S
H363 C355 0.929 . S
H364 C372 0.929 . S
H365 C374 0.930 . S
H366 C376 0.930 . S
H367 C379 0.929 . S
H368 C382 0.930 . S
H369 C384 0.960 . S
H370 C384 0.960 . S
H371 C384 0.960 . S
C372 H364 0.929 . S
C372 C373 1.377 . S
C372 C374 1.384 . S
C373 C372 1.377 . S
C373 C379 1.390 . S
C374 H365 0.930 . S
C374 C372 1.384 . S
C374 C375 1.372 . S
C375 C374 1.372 . S
C375 C376 1.400 . S
C375 C380 1.490 . S
C376 H366 0.930 . S
C376 C375 1.400 . S
C376 C379 1.386 . S
H377 C393 0.930 . S
H378 C394 0.931 . S
C379 H367 0.929 . S
C379 C373 1.390 . S
C379 C376 1.386 . S
C380 C375 1.490 . S
C380 C382 1.395 . S
C380 C383 1.403 . S
H381 C387 0.930 . S
C382 H368 0.930 . S
C382 C380 1.395 . S
C382 C385 1.403 . S
C383 C380 1.403 . S
C383 C384 1.524 . S
C383 C387 1.400 . S
C384 H369 0.960 . S
C384 H370 0.960 . S
C384 H371 0.960 . S
C384 C383 1.524 . S
C385 C382 1.403 . S
C385 C386 1.392 . S
C385 C389 1.495 . S
C386 C385 1.392 . S
C386 C387 1.385 . S
C386 C388 1.478 . S
C387 H381 0.930 . S
C387 C383 1.400 . S
C387 C386 1.385 . S
C388 C386 1.478 . S
C388 C390 1.381 . S
C388 C394 1.383 . S
C389 C385 1.495 . S
C389 H395 0.959 . S
C389 H396 0.961 . S
C389 H397 0.962 . S
C390 C388 1.381 . S
C390 C391 1.394 . S
C390 H398 0.930 . S
C391 C390 1.394 . S
C391 C392 1.383 . S
C391 H399 0.929 . S
C392 C391 1.383 . S
C392 C393 1.377 . S
C393 H377 0.930 . S
C393 C392 1.377 . S
C393 C394 1.379 . S
C394 H378 0.931 . S
C394 C388 1.383 . S
C394 C393 1.379 . S
H395 C389 0.959 . S
H396 C389 0.961 . S
H397 C389 0.962 . S
H398 C390 0.930 . S
H399 C391 0.929 . S
H400 C408 0.929 . S
H401 C410 0.930 . S
H402 C412 0.930 . S
H403 C415 0.929 . S
H404 C418 0.930 . S
H405 C420 0.960 . S
H406 C420 0.960 . S
H407 C420 0.960 . S
C408 H400 0.929 . S
C408 C409 1.377 . S
C408 C410 1.384 . S
C409 C408 1.377 . S
C409 C415 1.390 . S
C410 H401 0.930 . S
C410 C408 1.384 . S
C410 C411 1.372 . S
C411 C410 1.372 . S
C411 C412 1.400 . S
C411 C416 1.490 . S
C412 H402 0.930 . S
C412 C411 1.400 . S
C412 C415 1.386 . S
H413 C429 0.930 . S
H414 C430 0.931 . S
C415 H403 0.929 . S
C415 C409 1.390 . S
C415 C412 1.386 . S
C416 C411 1.490 . S
C416 C418 1.395 . S
C416 C419 1.403 . S
H417 C423 0.930 . S
C418 H404 0.930 . S
C418 C416 1.395 . S
C418 C421 1.403 . S
C419 C416 1.403 . S
C419 C420 1.524 . S
C419 C423 1.400 . S
C420 H405 0.960 . S
C420 H406 0.960 . S
C420 H407 0.960 . S
C420 C419 1.524 . S
C421 C418 1.403 . S
C421 C422 1.392 . S
C421 C425 1.495 . S
C422 C421 1.392 . S
C422 C423 1.385 . S
C422 C424 1.478 . S
C423 H417 0.930 . S
C423 C419 1.400 . S
C423 C422 1.385 . S
C424 C422 1.478 . S
C424 C426 1.381 . S
C424 C430 1.383 . S
C425 C421 1.495 . S
C425 H431 0.959 . S
C425 H432 0.961 . S
C425 H433 0.960 . S
C426 C424 1.381 . S
C426 C427 1.394 . S
C426 H434 0.930 . S
C427 C426 1.394 . S
C427 C428 1.383 . S
C427 H435 0.929 . S
C428 C427 1.383 . S
C428 C429 1.377 . S
C429 H413 0.930 . S
C429 C428 1.377 . S
C429 C430 1.379 . S
C430 H414 0.931 . S
C430 C424 1.383 . S
C430 C429 1.379 . S
H431 C425 0.959 . S
H432 C425 0.961 . S
H433 C425 0.960 . S
H434 C426 0.930 . S
H435 C427 0.929 . S
H436 C444 0.929 . S
H437 C446 0.930 . S
H438 C448 0.930 . S
H439 C451 0.929 . S
H440 C454 0.930 . S
H441 C456 0.960 . S
H442 C456 0.960 . S
H443 C456 0.960 . S
C444 H436 0.929 . S
C444 C445 1.377 . S
C444 C446 1.384 . S
C445 C444 1.377 . S
C445 C451 1.390 . S
C446 H437 0.930 . S
C446 C444 1.384 . S
C446 C447 1.372 . S
C447 C446 1.372 . S
C447 C448 1.400 . S
C447 C452 1.490 . S
C448 H438 0.930 . S
C448 C447 1.400 . S
C448 C451 1.386 . S
H449 C465 0.930 . S
H450 C466 0.931 . S
C451 H439 0.929 . S
C451 C445 1.390 . S
C451 C448 1.386 . S
C452 C447 1.490 . S
C452 C454 1.395 . S
C452 C455 1.403 . S
H453 C459 0.930 . S
C454 H440 0.930 . S
C454 C452 1.395 . S
C454 C457 1.403 . S
C455 C452 1.403 . S
C455 C456 1.524 . S
C455 C459 1.400 . S
C456 H441 0.960 . S
C456 H442 0.960 . S
C456 H443 0.960 . S
C456 C455 1.524 . S
C457 C454 1.403 . S
C457 C458 1.392 . S
C457 C461 1.495 . S
C458 C457 1.392 . S
C458 C459 1.385 . S
C458 C460 1.478 . S
C459 H453 0.930 . S
C459 C455 1.400 . S
C459 C458 1.385 . S
C460 C458 1.478 . S
C460 C462 1.381 . S
C460 C466 1.383 . S
C461 C457 1.495 . S
C461 H467 0.959 . S
C461 H468 0.961 . S
C461 H469 0.960 . S
C462 C460 1.381 . S
C462 C463 1.394 . S
C462 H470 0.930 . S
C463 C462 1.394 . S
C463 C464 1.383 . S
C463 H471 0.929 1_455 S
C464 C463 1.383 . S
C464 C465 1.377 . S
C465 H449 0.930 . S
C465 C464 1.377 . S
C465 C466 1.379 . S
C466 H450 0.931 . S
C466 C460 1.383 . S
C466 C465 1.379 . S
H467 C461 0.959 . S
H468 C461 0.961 . S
H469 C461 0.960 . S
H470 C462 0.930 . S
H471 C463 0.929 1_655 S
H472 C480 0.929 . S
H473 C482 0.930 . S
H474 C484 0.930 . S
H475 C487 0.929 . S
H476 C490 0.930 . S
H477 C492 0.960 . S
H478 C492 0.960 . S
H479 C492 0.960 . S
C480 H472 0.929 . S
C480 C481 1.377 . S
C480 C482 1.384 . S
C481 C480 1.377 . S
C481 C487 1.390 . S
C482 H473 0.930 . S
C482 C480 1.384 . S
C482 C483 1.372 . S
C483 C482 1.372 . S
C483 C484 1.400 . S
C483 C488 1.490 . S
C484 H474 0.930 . S
C484 C483 1.400 . S
C484 C487 1.386 . S
H485 C501 0.930 . S
H486 C502 0.931 . S
C487 H475 0.929 . S
C487 C481 1.390 . S
C487 C484 1.386 . S
C488 C483 1.490 . S
C488 C490 1.395 . S
C488 C491 1.403 . S
H489 C495 0.930 . S
C490 H476 0.930 . S
C490 C488 1.395 . S
C490 C493 1.403 . S
C491 C488 1.403 . S
C491 C492 1.524 . S
C491 C495 1.400 . S
C492 H477 0.960 . S
C492 H478 0.960 . S
C492 H479 0.960 . S
C492 C491 1.524 . S
C493 C490 1.403 . S
C493 C494 1.392 . S
C493 C497 1.495 . S
C494 C493 1.392 . S
C494 C495 1.385 . S
C494 C496 1.478 . S
C495 H489 0.930 . S
C495 C491 1.400 . S
C495 C494 1.385 . S
C496 C494 1.478 . S
C496 C498 1.381 . S
C496 C502 1.383 . S
C497 C493 1.495 . S
C497 H503 0.959 . S
C497 H504 0.961 . S
C497 H505 0.960 . S
C498 C496 1.381 . S
C498 C499 1.394 . S
C498 H506 0.930 . S
C499 C498 1.394 . S
C499 C500 1.383 . S
C499 H507 0.929 . S
C500 C499 1.383 . S
C500 C501 1.377 . S
C501 H485 0.930 . S
C501 C500 1.377 . S
C501 C502 1.379 . S
C502 H486 0.931 . S
C502 C496 1.383 . S
C502 C501 1.379 . S
H503 C497 0.959 . S
H504 C497 0.961 . S
H505 C497 0.960 . S
H506 C498 0.930 . S
H507 C499 0.929 . S
H508 C516 0.929 . S
H509 C518 0.930 . S
H510 C520 0.930 . S
H511 C523 0.929 . S
H512 C526 0.930 . S
H513 C528 0.960 . S
H514 C528 0.960 . S
H515 C528 0.960 . S
C516 H508 0.929 . S
C516 C517 1.377 . S
C516 C518 1.384 . S
C517 C516 1.377 . S
C517 C523 1.390 . S
C518 H509 0.930 . S
C518 C516 1.384 . S
C518 C519 1.372 . S
C519 C518 1.372 . S
C519 C520 1.400 . S
C519 C524 1.490 . S
C520 H510 0.930 . S
C520 C519 1.400 . S
C520 C523 1.386 . S
H521 C537 0.930 . S
H522 C538 0.931 . S
C523 H511 0.929 . S
C523 C517 1.390 . S
C523 C520 1.386 . S
C524 C519 1.490 . S
C524 C526 1.395 . S
C524 C527 1.403 . S
H525 C531 0.930 . S
C526 H512 0.930 . S
C526 C524 1.395 . S
C526 C529 1.403 . S
C527 C524 1.403 . S
C527 C528 1.524 . S
C527 C531 1.400 . S
C528 H513 0.960 . S
C528 H514 0.960 . S
C528 H515 0.960 . S
C528 C527 1.524 . S
C529 C526 1.403 . S
C529 C530 1.392 . S
C529 C533 1.495 . S
C530 C529 1.392 . S
C530 C531 1.385 . S
C530 C532 1.478 . S
C531 H525 0.930 . S
C531 C527 1.400 . S
C531 C530 1.385 . S
C532 C530 1.478 . S
C532 C534 1.381 . S
C532 C538 1.383 . S
C533 C529 1.495 . S
C533 H539 0.959 . S
C533 H540 0.961 . S
C533 H541 0.960 . S
C534 C532 1.381 . S
C534 C535 1.394 . S
C534 H542 0.930 . S
C535 C534 1.394 . S
C535 C536 1.383 . S
C535 H543 0.929 . S
C536 C535 1.383 . S
C536 C537 1.377 . S
C537 H521 0.930 . S
C537 C536 1.377 . S
C537 C538 1.379 . S
C538 H522 0.931 . S
C538 C532 1.383 . S
C538 C537 1.379 . S
H539 C533 0.959 . S
H540 C533 0.961 . S
H541 C533 0.960 . S
H542 C534 0.930 . S
H543 C535 0.929 . S
H544 C552 0.929 . S
H545 C554 0.930 . S
H546 C556 0.930 . S
H547 C559 0.929 . S
H548 C562 0.930 . S
H549 C564 0.960 . S
H550 C564 0.960 . S
H551 C564 0.960 . S
C552 H544 0.929 . S
C552 C553 1.377 . S
C552 C554 1.384 . S
C553 C552 1.377 . S
C553 C559 1.390 . S
C554 H545 0.930 . S
C554 C552 1.384 . S
C554 C555 1.372 . S
C555 C554 1.372 . S
C555 C556 1.400 . S
C555 C560 1.490 . S
C556 H546 0.930 . S
C556 C555 1.400 . S
C556 C559 1.386 . S
H557 C573 0.930 . S
H558 C574 0.931 . S
C559 H547 0.929 . S
C559 C553 1.390 . S
C559 C556 1.386 . S
C560 C555 1.490 . S
C560 C562 1.395 . S
C560 C563 1.403 . S
H561 C567 0.930 . S
C562 H548 0.930 . S
C562 C560 1.395 . S
C562 C565 1.403 . S
C563 C560 1.403 . S
C563 C564 1.524 . S
C563 C567 1.400 . S
C564 H549 0.960 . S
C564 H550 0.960 . S
C564 H551 0.960 . S
C564 C563 1.524 . S
C565 C562 1.403 . S
C565 C566 1.392 . S
C565 C569 1.495 . S
C566 C565 1.392 . S
C566 C567 1.385 . S
C566 C568 1.478 . S
C567 H561 0.930 . S
C567 C563 1.400 . S
C567 C566 1.385 . S
C568 C566 1.478 . S
C568 C570 1.381 . S
C568 C574 1.383 . S
C569 C565 1.495 . S
C569 H575 0.959 . S
C569 H576 0.961 . S
C569 H577 0.960 . S
C570 C568 1.381 . S
C570 C571 1.394 . S
C570 H578 0.930 . S
C571 C570 1.394 . S
C571 C572 1.383 . S
C571 H579 0.929 . S
C572 C571 1.383 . S
C572 C573 1.377 . S
C573 H557 0.930 . S
C573 C572 1.377 . S
C573 C574 1.379 . S
C574 H558 0.931 . S
C574 C568 1.383 . S
C574 C573 1.379 . S
H575 C569 0.959 . S
H576 C569 0.961 . S
H577 C569 0.960 . S
H578 C570 0.930 . S
H579 C571 0.929 . S
H580 C588 0.929 . S
H581 C590 0.930 . S
H582 C592 0.930 . S
H583 C595 0.929 . S
H584 C598 0.930 . S
H585 C600 0.960 . S
H586 C600 0.960 . S
H587 C600 0.960 . S
C588 H580 0.929 . S
C588 C589 1.377 . S
C588 C590 1.384 . S
C589 C588 1.377 . S
C589 C595 1.390 . S
C590 H581 0.930 . S
C590 C588 1.384 . S
C590 C591 1.372 . S
C591 C590 1.372 . S
C591 C592 1.400 . S
C591 C596 1.490 . S
C592 H582 0.930 . S
C592 C591 1.400 . S
C592 C595 1.386 . S
H593 C609 0.930 . S
H594 C610 0.931 . S
C595 H583 0.929 . S
C595 C589 1.390 . S
C595 C592 1.386 . S
C596 C591 1.490 . S
C596 C598 1.395 . S
C596 C599 1.403 . S
H597 C603 0.930 . S
C598 H584 0.930 . S
C598 C596 1.395 . S
C598 C601 1.403 . S
C599 C596 1.403 . S
C599 C600 1.524 . S
C599 C603 1.400 . S
C600 H585 0.960 . S
C600 H586 0.960 . S
C600 H587 0.960 . S
C600 C599 1.524 . S
C601 C598 1.403 . S
C601 C602 1.392 . S
C601 C605 1.495 . S
C602 C601 1.392 . S
C602 C603 1.385 . S
C602 C604 1.478 . S
C603 H597 0.930 . S
C603 C599 1.400 . S
C603 C602 1.385 . S
C604 C602 1.478 . S
C604 C606 1.381 . S
C604 C610 1.383 . S
C605 C601 1.495 . S
C605 H611 0.959 . S
C605 H612 0.961 . S
C605 H613 0.960 . S
C606 C604 1.381 . S
C606 C607 1.394 . S
C606 H614 0.930 . S
C607 C606 1.394 . S
C607 C608 1.383 . S
C607 H615 0.929 1_556 S
C608 C607 1.383 . S
C608 C609 1.377 . S
C609 H593 0.930 . S
C609 C608 1.377 . S
C609 C610 1.379 . S
C610 H594 0.931 . S
C610 C604 1.383 . S
C610 C609 1.379 . S
H611 C605 0.959 . S
H612 C605 0.961 . S
H613 C605 0.960 . S
H614 C606 0.930 . S
H615 C607 0.929 1_554 S
H616 C624 0.929 . S
H617 C626 0.930 . S
H618 C628 0.930 . S
H619 C631 0.929 . S
H620 C634 0.930 . S
H621 C636 0.960 . S
H622 C636 0.960 . S
H623 C636 0.960 . S
C624 H616 0.929 . S
C624 C625 1.377 . S
C624 C626 1.384 . S
C625 C624 1.377 . S
C625 C631 1.390 . S
C626 H617 0.930 . S
C626 C624 1.384 . S
C626 C627 1.372 . S
C627 C626 1.372 . S
C627 C628 1.400 . S
C627 C632 1.490 . S
C628 H618 0.930 . S
C628 C627 1.400 . S
C628 C631 1.386 . S
H629 C645 0.930 . S
H630 C646 0.931 . S
C631 H619 0.929 . S
C631 C625 1.390 . S
C631 C628 1.386 . S
C632 C627 1.490 . S
C632 C634 1.395 . S
C632 C635 1.403 . S
H633 C639 0.930 . S
C634 H620 0.930 . S
C634 C632 1.395 . S
C634 C637 1.403 . S
C635 C632 1.403 . S
C635 C636 1.524 . S
C635 C639 1.400 . S
C636 H621 0.960 . S
C636 H622 0.960 . S
C636 H623 0.960 . S
C636 C635 1.524 . S
C637 C634 1.403 . S
C637 C638 1.392 . S
C637 C641 1.495 . S
C638 C637 1.392 . S
C638 C639 1.385 . S
C638 C640 1.478 . S
C639 H633 0.930 . S
C639 C635 1.400 . S
C639 C638 1.385 . S
C640 C638 1.478 . S
C640 C642 1.381 . S
C640 C646 1.383 . S
C641 C637 1.495 . S
C641 H647 0.959 . S
C641 H648 0.961 . S
C641 H649 0.960 . S
C642 C640 1.381 . S
C642 C643 1.394 . S
C642 H650 0.930 . S
C643 C642 1.394 . S
C643 C644 1.383 . S
C643 H651 0.929 . S
C644 C643 1.383 . S
C644 C645 1.377 . S
C645 H629 0.930 . S
C645 C644 1.377 . S
C645 C646 1.379 . S
C646 H630 0.931 . S
C646 C640 1.383 . S
C646 C645 1.379 . S
H647 C641 0.959 . S
H648 C641 0.961 . S
H649 C641 0.960 . S
H650 C642 0.930 . S
H651 C643 0.929 . S
H652 C660 0.929 . S
H653 C662 0.930 . S
H654 C664 0.930 . S
H655 C667 0.929 . S
H656 C670 0.930 . S
H657 C672 0.960 . S
H658 C672 0.960 . S
H659 C672 0.960 . S
C660 H652 0.929 . S
C660 C661 1.377 . S
C660 C662 1.384 . S
C661 C660 1.377 . S
C661 C667 1.390 . S
C662 H653 0.930 . S
C662 C660 1.384 . S
C662 C663 1.372 . S
C663 C662 1.372 . S
C663 C664 1.400 . S
C663 C668 1.490 . S
C664 H654 0.930 . S
C664 C663 1.400 . S
C664 C667 1.386 . S
H665 C681 0.930 . S
H666 C682 0.931 . S
C667 H655 0.929 . S
C667 C661 1.390 . S
C667 C664 1.386 . S
C668 C663 1.490 . S
C668 C670 1.395 . S
C668 C671 1.403 . S
H669 C675 0.930 . S
C670 H656 0.930 . S
C670 C668 1.395 . S
C670 C673 1.403 . S
C671 C668 1.403 . S
C671 C672 1.524 . S
C671 C675 1.400 . S
C672 H657 0.960 . S
C672 H658 0.960 . S
C672 H659 0.960 . S
C672 C671 1.524 . S
C673 C670 1.403 . S
C673 C674 1.392 . S
C673 C677 1.495 . S
C674 C673 1.392 . S
C674 C675 1.385 . S
C674 C676 1.478 . S
C675 H669 0.930 . S
C675 C671 1.400 . S
C675 C674 1.385 . S
C676 C674 1.478 . S
C676 C678 1.381 . S
C676 C682 1.383 . S
C677 C673 1.495 . S
C677 H683 0.959 . S
C677 H684 0.961 . S
C677 H685 0.960 . S
C678 C676 1.381 . S
C678 C679 1.394 . S
C678 H686 0.930 . S
C679 C678 1.394 . S
C679 C680 1.383 . S
C679 H687 0.929 . S
C680 C679 1.383 . S
C680 C681 1.377 . S
C681 H665 0.930 . S
C681 C680 1.377 . S
C681 C682 1.379 . S
C682 H666 0.931 . S
C682 C676 1.383 . S
C682 C681 1.379 . S
H683 C677 0.959 . S
H684 C677 0.961 . S
H685 C677 0.960 . S
H686 C678 0.930 . S
H687 C679 0.929 . S
H688 C696 0.929 . S
H689 C698 0.930 . S
H690 C700 0.930 . S
H691 C703 0.929 . S
H692 C706 0.930 . S
H693 C708 0.960 . S
H694 C708 0.960 . S
H695 C708 0.960 . S
C696 H688 0.929 . S
C696 C697 1.377 . S
C696 C698 1.384 . S
C697 C696 1.377 . S
C697 C703 1.390 . S
C698 H689 0.930 . S
C698 C696 1.384 . S
C698 C699 1.372 . S
C699 C698 1.372 . S
C699 C700 1.400 . S
C699 C704 1.490 . S
C700 H690 0.930 . S
C700 C699 1.400 . S
C700 C703 1.386 . S
H701 C717 0.930 . S
H702 C718 0.931 . S
C703 H691 0.929 . S
C703 C697 1.390 . S
C703 C700 1.386 . S
C704 C699 1.490 . S
C704 C706 1.395 . S
C704 C707 1.403 . S
H705 C711 0.930 . S
C706 H692 0.930 . S
C706 C704 1.395 . S
C706 C709 1.403 . S
C707 C704 1.403 . S
C707 C708 1.524 . S
C707 C711 1.400 . S
C708 H693 0.960 . S
C708 H694 0.960 . S
C708 H695 0.960 . S
C708 C707 1.524 . S
C709 C706 1.403 . S
C709 C710 1.392 . S
C709 C713 1.495 . S
C710 C709 1.392 . S
C710 C711 1.385 . S
C710 C712 1.478 . S
C711 H705 0.930 . S
C711 C707 1.400 . S
C711 C710 1.385 . S
C712 C710 1.478 . S
C712 C714 1.381 . S
C712 C718 1.383 . S
C713 C709 1.495 . S
C713 H719 0.959 . S
C713 H720 0.961 . S
C713 H721 0.960 . S
C714 C712 1.381 . S
C714 C715 1.394 . S
C714 H722 0.930 . S
C715 C714 1.394 . S
C715 C716 1.383 . S
C715 H723 0.929 . S
C716 C715 1.383 . S
C716 C717 1.377 . S
C717 H701 0.930 . S
C717 C716 1.377 . S
C717 C718 1.379 . S
C718 H702 0.931 . S
C718 C712 1.383 . S
C718 C717 1.379 . S
H719 C713 0.959 . S
H720 C713 0.961 . S
H721 C713 0.960 . S
H722 C714 0.930 . S
H723 C715 0.929 . S
H724 C732 0.929 . S
H725 C734 0.930 . S
H726 C736 0.930 . S
H727 C739 0.929 . S
H728 C742 0.930 . S
H729 C744 0.960 . S
H730 C744 0.960 . S
H731 C744 0.960 . S
C732 H724 0.929 . S
C732 C733 1.377 . S
C732 C734 1.384 . S
C733 C732 1.377 . S
C733 C739 1.390 . S
C734 H725 0.930 . S
C734 C732 1.384 . S
C734 C735 1.372 . S
C735 C734 1.372 . S
C735 C736 1.400 . S
C735 C740 1.490 . S
C736 H726 0.930 . S
C736 C735 1.400 . S
C736 C739 1.386 . S
H737 C753 0.930 . S
H738 C754 0.931 . S
C739 H727 0.929 . S
C739 C733 1.390 . S
C739 C736 1.386 . S
C740 C735 1.490 . S
C740 C742 1.395 . S
C740 C743 1.403 . S
H741 C747 0.930 . S
C742 H728 0.930 . S
C742 C740 1.395 . S
C742 C745 1.403 . S
C743 C740 1.403 . S
C743 C744 1.524 . S
C743 C747 1.400 . S
C744 H729 0.960 . S
C744 H730 0.960 . S
C744 H731 0.960 . S
C744 C743 1.524 . S
C745 C742 1.403 . S
C745 C746 1.392 . S
C745 C749 1.495 . S
C746 C745 1.392 . S
C746 C747 1.385 . S
C746 C748 1.478 . S
C747 H741 0.930 . S
C747 C743 1.400 . S
C747 C746 1.385 . S
C748 C746 1.478 . S
C748 C750 1.381 . S
C748 C754 1.383 . S
C749 C745 1.495 . S
C749 H755 0.959 . S
C749 H756 0.961 . S
C749 H757 0.960 . S
C750 C748 1.381 . S
C750 C751 1.394 . S
C750 H758 0.930 . S
C751 C750 1.394 . S
C751 C752 1.383 . S
C751 H759 0.929 . S
C752 C751 1.383 . S
C752 C753 1.377 . S
C753 H737 0.930 . S
C753 C752 1.377 . S
C753 C754 1.379 . S
C754 H738 0.931 . S
C754 C748 1.383 . S
C754 C753 1.379 . S
H755 C749 0.959 . S
H756 C749 0.961 . S
H757 C749 0.960 . S
H758 C750 0.930 . S
H759 C751 0.929 . S
H760 C768 0.929 . S
H761 C770 0.930 . S
H762 C772 0.930 . S
H763 C775 0.929 . S
H764 C778 0.930 . S
H765 C780 0.960 . S
H766 C780 0.960 . S
H767 C780 0.960 . S
C768 H760 0.929 . S
C768 C769 1.377 . S
C768 C770 1.384 . S
C769 C768 1.377 . S
C769 C775 1.390 . S
C770 H761 0.930 . S
C770 C768 1.384 . S
C770 C771 1.372 . S
C771 C770 1.372 . S
C771 C772 1.400 . S
C771 C776 1.490 . S
C772 H762 0.930 . S
C772 C771 1.400 . S
C772 C775 1.386 . S
H773 C789 0.930 . S
H774 C790 0.931 . S
C775 H763 0.929 . S
C775 C769 1.390 . S
C775 C772 1.386 . S
C776 C771 1.490 . S
C776 C778 1.395 . S
C776 C779 1.403 . S
H777 C783 0.930 . S
C778 H764 0.930 . S
C778 C776 1.395 . S
C778 C781 1.403 . S
C779 C776 1.403 . S
C779 C780 1.524 . S
C779 C783 1.400 . S
C780 H765 0.960 . S
C780 H766 0.960 . S
C780 H767 0.960 . S
C780 C779 1.524 . S
C781 C778 1.403 . S
C781 C782 1.392 . S
C781 C785 1.495 . S
C782 C781 1.392 . S
C782 C783 1.385 . S
C782 C784 1.478 . S
C783 H777 0.930 . S
C783 C779 1.400 . S
C783 C782 1.385 . S
C784 C782 1.478 . S
C784 C786 1.381 . S
C784 C790 1.383 . S
C785 C781 1.495 . S
C785 H791 0.959 . S
C785 H792 0.961 . S
C785 H793 0.960 . S
C786 C784 1.381 . S
C786 C787 1.394 . S
C786 H794 0.930 . S
C787 C786 1.394 . S
C787 C788 1.383 . S
C787 H795 0.929 . S
C788 C787 1.383 . S
C788 C789 1.377 . S
C789 H773 0.930 . S
C789 C788 1.377 . S
C789 C790 1.379 . S
C790 H774 0.931 . S
C790 C784 1.383 . S
C790 C789 1.379 . S
H791 C785 0.959 . S
H792 C785 0.961 . S
H793 C785 0.960 . S
H794 C786 0.930 . S
H795 C787 0.929 . S
H796 C804 0.929 . S
H797 C806 0.930 . S
H798 C808 0.930 . S
H799 C811 0.929 . S
H800 C814 0.930 . S
H801 C816 0.960 . S
H802 C816 0.960 . S
H803 C816 0.960 . S
C804 H796 0.929 . S
C804 C805 1.377 . S
C804 C806 1.384 . S
C805 C804 1.377 . S
C805 C811 1.390 . S
C806 H797 0.930 . S
C806 C804 1.384 . S
C806 C807 1.372 . S
C807 C806 1.372 . S
C807 C808 1.400 . S
C807 C812 1.490 . S
C808 H798 0.930 . S
C808 C807 1.400 . S
C808 C811 1.386 . S
H809 C825 0.930 . S
H810 C826 0.931 . S
C811 H799 0.929 . S
C811 C805 1.390 . S
C811 C808 1.386 . S
C812 C807 1.490 . S
C812 C814 1.395 . S
C812 C815 1.403 . S
H813 C819 0.930 . S
C814 H800 0.930 . S
C814 C812 1.395 . S
C814 C817 1.403 . S
C815 C812 1.403 . S
C815 C816 1.524 . S
C815 C819 1.400 . S
C816 H801 0.960 . S
C816 H802 0.960 . S
C816 H803 0.960 . S
C816 C815 1.524 . S
C817 C814 1.403 . S
C817 C818 1.392 . S
C817 C821 1.495 . S
C818 C817 1.392 . S
C818 C819 1.385 . S
C818 C820 1.478 . S
C819 H813 0.930 . S
C819 C815 1.400 . S
C819 C818 1.385 . S
C820 C818 1.478 . S
C820 C822 1.381 . S
C820 C826 1.383 . S
C821 C817 1.495 . S
C821 H827 0.959 . S
C821 H828 0.961 . S
C821 H829 0.960 . S
C822 C820 1.381 . S
C822 C823 1.394 . S
C822 H830 0.930 . S
C823 C822 1.394 . S
C823 C824 1.383 . S
C823 H831 0.929 . S
C824 C823 1.383 . S
C824 C825 1.377 . S
C825 H809 0.930 . S
C825 C824 1.377 . S
C825 C826 1.379 . S
C826 H810 0.931 . S
C826 C820 1.383 . S
C826 C825 1.379 . S
H827 C821 0.959 . S
H828 C821 0.961 . S
H829 C821 0.960 . S
H830 C822 0.930 . S
H831 C823 0.929 . S
H832 C840 0.929 . S
H833 C842 0.930 . S
H834 C844 0.930 . S
H835 C847 0.929 . S
H836 C850 0.930 . S
H837 C852 0.960 . S
H838 C852 0.960 . S
H839 C852 0.960 . S
C840 H832 0.929 . S
C840 C841 1.377 . S
C840 C842 1.384 . S
C841 C840 1.377 . S
C841 C847 1.390 . S
C842 H833 0.930 . S
C842 C840 1.384 . S
C842 C843 1.372 . S
C843 C842 1.372 . S
C843 C844 1.400 . S
C843 C848 1.490 . S
C844 H834 0.930 . S
C844 C843 1.400 . S
C844 C847 1.386 . S
H845 C861 0.930 . S
H846 C862 0.931 . S
C847 H835 0.929 . S
C847 C841 1.390 . S
C847 C844 1.386 . S
C848 C843 1.490 . S
C848 C850 1.395 . S
C848 C851 1.403 . S
H849 C855 0.930 . S
C850 H836 0.930 . S
C850 C848 1.395 . S
C850 C853 1.403 . S
C851 C848 1.403 . S
C851 C852 1.524 . S
C851 C855 1.400 . S
C852 H837 0.960 . S
C852 H838 0.960 . S
C852 H839 0.960 . S
C852 C851 1.524 . S
C853 C850 1.403 . S
C853 C854 1.392 . S
C853 C857 1.495 . S
C854 C853 1.392 . S
C854 C855 1.385 . S
C854 C856 1.478 . S
C855 H849 0.930 . S
C855 C851 1.400 . S
C855 C854 1.385 . S
C856 C854 1.478 . S
C856 C858 1.381 . S
C856 C862 1.383 . S
C857 C853 1.495 . S
C857 H863 0.959 . S
C857 H864 0.961 . S
C857 H865 0.960 . S
C858 C856 1.381 . S
C858 C859 1.394 . S
C858 H866 0.930 . S
C859 C858 1.394 . S
C859 C860 1.383 . S
C859 H867 0.929 . S
C860 C859 1.383 . S
C860 C861 1.377 . S
C861 H845 0.930 . S
C861 C860 1.377 . S
C861 C862 1.379 . S
C862 H846 0.931 . S
C862 C856 1.383 . S
C862 C861 1.379 . S
H863 C857 0.959 . S
H864 C857 0.961 . S
H865 C857 0.960 . S
H866 C858 0.930 . S
H867 C859 0.929 . S
H868 C876 0.929 . S
H869 C878 0.930 . S
H870 C880 0.930 . S
H871 C883 0.929 . S
H872 C886 0.930 . S
H873 C888 0.960 . S
H874 C888 0.960 . S
H875 C888 0.960 . S
C876 H868 0.929 . S
C876 C877 1.377 . S
C876 C878 1.384 . S
C877 C876 1.377 . S
C877 C883 1.390 . S
C878 H869 0.930 . S
C878 C876 1.384 . S
C878 C879 1.372 . S
C879 C878 1.372 . S
C879 C880 1.400 . S
C879 C884 1.490 . S
C880 H870 0.930 . S
C880 C879 1.400 . S
C880 C883 1.386 . S
H881 C897 0.930 . S
H882 C898 0.931 . S
C883 H871 0.929 . S
C883 C877 1.390 . S
C883 C880 1.386 . S
C884 C879 1.490 . S
C884 C886 1.395 . S
C884 C887 1.403 . S
H885 C891 0.930 . S
C886 H872 0.930 . S
C886 C884 1.395 . S
C886 C889 1.403 . S
C887 C884 1.403 . S
C887 C888 1.524 . S
C887 C891 1.400 . S
C888 H873 0.960 . S
C888 H874 0.960 . S
C888 H875 0.960 . S
C888 C887 1.524 . S
C889 C886 1.403 . S
C889 C890 1.392 . S
C889 C893 1.495 . S
C890 C889 1.392 . S
C890 C891 1.385 . S
C890 C892 1.478 . S
C891 H885 0.930 . S
C891 C887 1.400 . S
C891 C890 1.385 . S
C892 C890 1.478 . S
C892 C894 1.381 . S
C892 C898 1.383 . S
C893 C889 1.495 . S
C893 H899 0.959 . S
C893 H900 0.961 . S
C893 H901 0.960 . S
C894 C892 1.381 . S
C894 C895 1.394 . S
C894 H902 0.930 . S
C895 C894 1.394 . S
C895 C896 1.383 . S
C895 H903 0.929 . S
C896 C895 1.383 . S
C896 C897 1.377 . S
C897 H881 0.930 . S
C897 C896 1.377 . S
C897 C898 1.379 . S
C898 H882 0.931 . S
C898 C892 1.383 . S
C898 C897 1.379 . S
H899 C893 0.959 . S
H900 C893 0.961 . S
H901 C893 0.960 . S
H902 C894 0.930 . S
H903 C895 0.929 . S
H904 C912 0.929 . S
H905 C914 0.930 . S
H906 C916 0.930 . S
H907 C919 0.929 . S
H908 C922 0.930 . S
H909 C924 0.960 . S
H910 C924 0.960 . S
H911 C924 0.960 . S
C912 H904 0.929 . S
C912 C913 1.377 . S
C912 C914 1.384 . S
C913 C912 1.377 . S
C913 C919 1.390 . S
C914 H905 0.930 . S
C914 C912 1.384 . S
C914 C915 1.372 . S
C915 C914 1.372 . S
C915 C916 1.400 . S
C915 C920 1.490 . S
C916 H906 0.930 . S
C916 C915 1.400 . S
C916 C919 1.386 . S
H917 C933 0.930 . S
H918 C934 0.931 . S
C919 H907 0.929 . S
C919 C913 1.390 . S
C919 C916 1.386 . S
C920 C915 1.490 . S
C920 C922 1.395 . S
C920 C923 1.403 . S
H921 C927 0.930 . S
C922 H908 0.930 . S
C922 C920 1.395 . S
C922 C925 1.403 . S
C923 C920 1.403 . S
C923 C924 1.524 . S
C923 C927 1.400 . S
C924 H909 0.960 . S
C924 H910 0.960 . S
C924 H911 0.960 . S
C924 C923 1.524 . S
C925 C922 1.403 . S
C925 C926 1.392 . S
C925 C929 1.495 . S
C926 C925 1.392 . S
C926 C927 1.385 . S
C926 C928 1.478 . S
C927 H921 0.930 . S
C927 C923 1.400 . S
C927 C926 1.385 . S
C928 C926 1.478 . S
C928 C930 1.381 . S
C928 C934 1.383 . S
C929 C925 1.495 . S
C929 H935 0.959 . S
C929 H936 0.961 . S
C929 H937 0.960 . S
C930 C928 1.381 . S
C930 C931 1.394 . S
C930 H938 0.930 . S
C931 C930 1.394 . S
C931 C932 1.383 . S
C931 H939 0.929 1_554 S
C932 C931 1.383 . S
C932 C933 1.377 . S
C933 H917 0.930 . S
C933 C932 1.377 . S
C933 C934 1.379 . S
C934 H918 0.931 . S
C934 C928 1.383 . S
C934 C933 1.379 . S
H935 C929 0.959 . S
H936 C929 0.961 . S
H937 C929 0.960 . S
H938 C930 0.930 . S
H939 C931 0.929 1_556 S
H940 C948 0.929 . S
H941 C950 0.930 . S
H942 C952 0.930 . S
H943 C955 0.929 . S
H944 C958 0.930 . S
H945 C960 0.960 . S
H946 C960 0.960 . S
H947 C960 0.960 . S
C948 H940 0.929 . S
C948 C949 1.377 . S
C948 C950 1.384 . S
C949 C948 1.377 . S
C949 C955 1.390 . S
C950 H941 0.930 . S
C950 C948 1.384 . S
C950 C951 1.372 . S
C951 C950 1.372 . S
C951 C952 1.400 . S
C951 C956 1.490 . S
C952 H942 0.930 . S
C952 C951 1.400 . S
C952 C955 1.386 . S
H953 C969 0.930 . S
H954 C970 0.931 . S
C955 H943 0.929 . S
C955 C949 1.390 . S
C955 C952 1.386 . S
C956 C951 1.490 . S
C956 C958 1.395 . S
C956 C959 1.403 . S
H957 C963 0.930 . S
C958 H944 0.930 . S
C958 C956 1.395 . S
C958 C961 1.403 . S
C959 C956 1.403 . S
C959 C960 1.524 . S
C959 C963 1.400 . S
C960 H945 0.960 . S
C960 H946 0.960 . S
C960 H947 0.960 . S
C960 C959 1.524 . S
C961 C958 1.403 . S
C961 C962 1.392 . S
C961 C965 1.495 . S
C962 C961 1.392 . S
C962 C963 1.385 . S
C962 C964 1.478 . S
C963 H957 0.930 . S
C963 C959 1.400 . S
C963 C962 1.385 . S
C964 C962 1.478 . S
C964 C966 1.381 . S
C964 C970 1.383 . S
C965 C961 1.495 . S
C965 H971 0.959 . S
C965 H972 0.961 . S
C965 H973 0.960 . S
C966 C964 1.381 . S
C966 C967 1.394 . S
C966 H974 0.930 . S
C967 C966 1.394 . S
C967 C968 1.383 . S
C967 H975 0.929 . S
C968 C967 1.383 . S
C968 C969 1.377 . S
C969 H953 0.930 . S
C969 C968 1.377 . S
C969 C970 1.379 . S
C970 H954 0.931 . S
C970 C964 1.383 . S
C970 C969 1.379 . S
H971 C965 0.959 . S
H972 C965 0.961 . S
H973 C965 0.960 . S
H974 C966 0.930 . S
H975 C967 0.929 . S
H976 C984 0.929 . S
H977 C986 0.930 . S
H978 C988 0.930 . S
H979 C991 0.929 . S
H980 C994 0.930 . S
H981 C996 0.960 . S
H982 C996 0.960 . S
H983 C996 0.960 . S
C984 H976 0.929 . S
C984 C985 1.377 . S
C984 C986 1.384 . S
C985 C984 1.377 . S
C985 C991 1.390 . S
C986 H977 0.930 . S
C986 C984 1.384 . S
C986 C987 1.372 . S
C987 C986 1.372 . S
C987 C988 1.400 . S
C987 C992 1.490 . S
C988 H978 0.930 . S
C988 C987 1.400 . S
C988 C991 1.386 . S
H989 C1005 0.930 . S
H990 C1006 0.931 . S
C991 H979 0.929 . S
C991 C985 1.390 . S
C991 C988 1.386 . S
C992 C987 1.490 . S
C992 C994 1.395 . S
C992 C995 1.403 . S
H993 C999 0.930 . S
C994 H980 0.930 . S
C994 C992 1.395 . S
C994 C997 1.403 . S
C995 C992 1.403 . S
C995 C996 1.524 . S
C995 C999 1.400 . S
C996 H981 0.960 . S
C996 H982 0.960 . S
C996 H983 0.960 . S
C996 C995 1.524 . S
C997 C994 1.403 . S
C997 C998 1.392 . S
C997 C1001 1.495 . S
C998 C997 1.392 . S
C998 C999 1.385 . S
C998 C1000 1.478 . S
C999 H993 0.930 . S
C999 C995 1.400 . S
C999 C998 1.385 . S
C1000 C998 1.478 . S
C1000 C1002 1.381 . S
C1000 C1006 1.383 . S
C1001 C997 1.495 . S
C1001 H1007 0.959 . S
C1001 H1008 0.961 . S
C1001 H1009 0.960 . S
C1002 C1000 1.381 . S
C1002 C1003 1.394 . S
C1002 H1010 0.930 . S
C1003 C1002 1.394 . S
C1003 C1004 1.383 . S
C1003 H1011 0.929 . S
C1004 C1003 1.383 . S
C1004 C1005 1.377 . S
C1005 H989 0.930 . S
C1005 C1004 1.377 . S
C1005 C1006 1.379 . S
C1006 H990 0.931 . S
C1006 C1000 1.383 . S
C1006 C1005 1.379 . S
H1007 C1001 0.959 . S
H1008 C1001 0.961 . S
H1009 C1001 0.960 . S
H1010 C1002 0.930 . S
H1011 C1003 0.929 . S
H1012 C1020 0.929 . S
H1013 C1022 0.930 . S
H1014 C1024 0.930 . S
H1015 C1027 0.929 . S
H1016 C1030 0.930 . S
H1017 C1032 0.960 . S
H1018 C1032 0.960 . S
H1019 C1032 0.960 . S
C1020 H1012 0.929 . S
C1020 C1021 1.377 . S
C1020 C1022 1.384 . S
C1021 C1020 1.377 . S
C1021 C1027 1.390 . S
C1022 H1013 0.930 . S
C1022 C1020 1.384 . S
C1022 C1023 1.372 . S
C1023 C1022 1.372 . S
C1023 C1024 1.400 . S
C1023 C1028 1.490 . S
C1024 H1014 0.930 . S
C1024 C1023 1.400 . S
C1024 C1027 1.386 . S
H1025 C1041 0.930 . S
H1026 C1042 0.931 . S
C1027 H1015 0.929 . S
C1027 C1021 1.390 . S
C1027 C1024 1.386 . S
C1028 C1023 1.490 . S
C1028 C1030 1.395 . S
C1028 C1031 1.403 . S
H1029 C1035 0.930 . S
C1030 H1016 0.930 . S
C1030 C1028 1.395 . S
C1030 C1033 1.403 . S
C1031 C1028 1.403 . S
C1031 C1032 1.524 . S
C1031 C1035 1.400 . S
C1032 H1017 0.960 . S
C1032 H1018 0.960 . S
C1032 H1019 0.960 . S
C1032 C1031 1.524 . S
C1033 C1030 1.403 . S
C1033 C1034 1.392 . S
C1033 C1037 1.495 . S
C1034 C1033 1.392 . S
C1034 C1035 1.385 . S
C1034 C1036 1.478 . S
C1035 H1029 0.930 . S
C1035 C1031 1.400 . S
C1035 C1034 1.385 . S
C1036 C1034 1.478 . S
C1036 C1038 1.381 . S
C1036 C1042 1.383 . S
C1037 C1033 1.495 . S
C1037 H1043 0.959 . S
C1037 H1044 0.961 . S
C1037 H1045 0.960 . S
C1038 C1036 1.381 . S
C1038 C1039 1.394 . S
C1038 H1046 0.930 . S
C1039 C1038 1.394 . S
C1039 C1040 1.383 . S
C1039 H1047 0.929 . S
C1040 C1039 1.383 . S
C1040 C1041 1.377 . S
C1041 H1025 0.930 . S
C1041 C1040 1.377 . S
C1041 C1042 1.379 . S
C1042 H1026 0.931 . S
C1042 C1036 1.383 . S
C1042 C1041 1.379 . S
H1043 C1037 0.959 . S
H1044 C1037 0.961 . S
H1045 C1037 0.960 . S
H1046 C1038 0.930 . S
H1047 C1039 0.929 . S
H1048 C1056 0.929 . S
H1049 C1058 0.930 . S
H1050 C1060 0.930 . S
H1051 C1063 0.929 . S
H1052 C1066 0.930 . S
H1053 C1068 0.960 . S
H1054 C1068 0.960 . S
H1055 C1068 0.960 . S
C1056 H1048 0.929 . S
C1056 C1057 1.377 . S
C1056 C1058 1.384 . S
C1057 C1056 1.377 . S
C1057 C1063 1.390 . S
C1058 H1049 0.930 . S
C1058 C1056 1.384 . S
C1058 C1059 1.372 . S
C1059 C1058 1.372 . S
C1059 C1060 1.400 . S
C1059 C1064 1.490 . S
C1060 H1050 0.930 . S
C1060 C1059 1.400 . S
C1060 C1063 1.386 . S
H1061 C1077 0.930 . S
H1062 C1078 0.931 . S
C1063 H1051 0.929 . S
C1063 C1057 1.390 . S
C1063 C1060 1.386 . S
C1064 C1059 1.490 . S
C1064 C1066 1.395 . S
C1064 C1067 1.403 . S
H1065 C1071 0.930 . S
C1066 H1052 0.930 . S
C1066 C1064 1.395 . S
C1066 C1069 1.403 . S
C1067 C1064 1.403 . S
C1067 C1068 1.524 . S
C1067 C1071 1.400 . S
C1068 H1053 0.960 . S
C1068 H1054 0.960 . S
C1068 H1055 0.960 . S
C1068 C1067 1.524 . S
C1069 C1066 1.403 . S
C1069 C1070 1.392 . S
C1069 C1073 1.495 . S
C1070 C1069 1.392 . S
C1070 C1071 1.385 . S
C1070 C1072 1.478 . S
C1071 H1065 0.930 . S
C1071 C1067 1.400 . S
C1071 C1070 1.385 . S
C1072 C1070 1.478 . S
C1072 C1074 1.381 . S
C1072 C1078 1.383 . S
C1073 C1069 1.495 . S
C1073 H1079 0.959 . S
C1073 H1080 0.961 . S
C1073 H1081 0.960 . S
C1074 C1072 1.381 . S
C1074 C1075 1.394 . S
C1074 H1082 0.930 . S
C1075 C1074 1.394 . S
C1075 C1076 1.383 . S
C1075 H1083 0.913 1_455 S
C1076 C1075 1.383 . S
C1076 C1077 1.377 . S
C1077 H1061 0.930 . S
C1077 C1076 1.377 . S
C1077 C1078 1.379 . S
C1078 H1062 0.931 . S
C1078 C1072 1.383 . S
C1078 C1077 1.379 . S
H1079 C1073 0.959 . S
H1080 C1073 0.961 . S
H1081 C1073 0.960 . S
H1082 C1074 0.930 . S
H1083 C1075 0.913 1_655 S
H1084 C1092 0.929 . S
H1085 C1094 0.930 . S
H1086 C1096 0.930 . S
H1087 C1099 0.929 . S
H1088 C1102 0.930 . S
H1089 C1104 0.960 . S
H1090 C1104 0.960 . S
H1091 C1104 0.960 . S
C1092 H1084 0.929 . S
C1092 C1093 1.377 . S
C1092 C1094 1.384 . S
C1093 C1092 1.377 . S
C1093 C1099 1.390 . S
C1094 H1085 0.930 . S
C1094 C1092 1.384 . S
C1094 C1095 1.372 . S
C1095 C1094 1.372 . S
C1095 C1096 1.400 . S
C1095 C1100 1.490 . S
C1096 H1086 0.930 . S
C1096 C1095 1.400 . S
C1096 C1099 1.386 . S
H1097 C1113 0.930 . S
H1098 C1114 0.931 . S
C1099 H1087 0.929 . S
C1099 C1093 1.390 . S
C1099 C1096 1.386 . S
C1100 C1095 1.490 . S
C1100 C1102 1.395 . S
C1100 C1103 1.403 . S
H1101 C1107 0.930 . S
C1102 H1088 0.930 . S
C1102 C1100 1.395 . S
C1102 C1105 1.403 . S
C1103 C1100 1.403 . S
C1103 C1104 1.524 . S
C1103 C1107 1.400 . S
C1104 H1089 0.960 . S
C1104 H1090 0.960 . S
C1104 H1091 0.960 . S
C1104 C1103 1.524 . S
C1105 C1102 1.403 . S
C1105 C1106 1.392 . S
C1105 C1109 1.495 . S
C1106 C1105 1.392 . S
C1106 C1107 1.385 . S
C1106 C1108 1.478 . S
C1107 H1101 0.930 . S
C1107 C1103 1.400 . S
C1107 C1106 1.385 . S
C1108 C1106 1.478 . S
C1108 C1110 1.381 . S
C1108 C1114 1.383 . S
C1109 C1105 1.495 . S
C1109 H1115 0.959 . S
C1109 H1116 0.961 . S
C1109 H1117 0.960 . S
C1110 C1108 1.381 . S
C1110 C1111 1.394 . S
C1110 H1118 0.930 . S
C1111 C1110 1.394 . S
C1111 C1112 1.383 . S
C1111 H1119 0.929 . S
C1112 C1111 1.383 . S
C1112 C1113 1.377 . S
C1113 H1097 0.930 . S
C1113 C1112 1.377 . S
C1113 C1114 1.379 . S
C1114 H1098 0.931 . S
C1114 C1108 1.383 . S
C1114 C1113 1.379 . S
H1115 C1109 0.959 . S
H1116 C1109 0.961 . S
H1117 C1109 0.960 . S
H1118 C1110 0.930 . S
H1119 C1111 0.929 . S
C265 C6 0.866 . S
C284 C100 0.865 . S
C301 C18 1.383 . S
C320 C161 1.385 . S
C356 C199 2.627 . S
C337 C28 2.664 . S
C373 C40 1.578 . S
C392 C239 1.530 . S
C428 C159 1.503 . S
C409 C9 1.514 . S
C464 C127 1.950 . S
C445 C16 1.896 . S
C500 C236 1.696 . S
C481 C30 1.701 . S
C536 C196 1.366 . S
C517 C42 1.397 . S
C553 C4 0.888 . S
C572 C241 0.862 . S
C608 C156 2.615 . S
C589 C33 2.612 . S
C625 C45 1.826 . S
C644 C98 1.796 . S
C661 C21 1.517 . S
C680 C201 1.557 . S
C716 C121 0.904 . S
C697 C57 0.905 . S
C733 C66 1.355 . S
C752 C140 1.389 . S
C769 C76 2.717 . S
C788 C178 2.666 . S
C805 C88 1.484 . S
C824 C218 1.445 . S
C841 C54 1.484 . S
C860 C138 1.479 . S
C896 C116 2.044 . S
C877 C64 2.007 . S
C932 C247 1.543 . S
C913 C78 1.554 . S
C968 C207 1.458 . S
C949 C93 1.455 . S
C985 C52 0.855 . S
C1004 C220 0.856 . S
C1040 C167 2.607 . S
C1021 C81 2.599 . S
C1076 C119 1.776 . S
C1057 C90 1.801 . S
C1093 C69 1.522 . S
C1112 C180 1.584 . S
