# Generated by pormake.
# Topology llk, (3,12)-cn, num edge types: 1
# Building blocks:
#     Node 0, Type 0, BuildingBlock: QEWDON_clean_linker_0, # of connection points: 3
#     Node 1, Type 0, BuildingBlock: QEWDON_clean_linker_0, # of connection points: 3
#     Node 2, Type 0, BuildingBlock: QEWDON_clean_linker_0, # of connection points: 3
#     Node 3, Type 0, BuildingBlock: QEWDON_clean_linker_0, # of connection points: 3
#     Node 4, Type 0, BuildingBlock: QEWDON_clean_linker_0, # of connection points: 3
#     Node 5, Type 0, BuildingBlock: QEWDON_clean_linker_0, # of connection points: 3
#     Node 6, Type 0, BuildingBlock: QEWDON_clean_linker_0, # of connection points: 3
#     Node 7, Type 0, BuildingBlock: QEWDON_clean_linker_0, # of connection points: 3
#     Node 8, Type 0, BuildingBlock: QEWDON_clean_linker_0, # of connection points: 3
#     Node 9, Type 0, BuildingBlock: QEWDON_clean_linker_0, # of connection points: 3
#     Node 10, Type 0, BuildingBlock: QEWDON_clean_linker_0, # of connection points: 3
#     Node 11, Type 0, BuildingBlock: QEWDON_clean_linker_0, # of connection points: 3
#     Node 12, Type 0, BuildingBlock: QEWDON_clean_linker_0, # of connection points: 3
#     Node 13, Type 0, BuildingBlock: QEWDON_clean_linker_0, # of connection points: 3
#     Node 14, Type 0, BuildingBlock: QEWDON_clean_linker_0, # of connection points: 3
#     Node 15, Type 0, BuildingBlock: QEWDON_clean_linker_0, # of connection points: 3
#     Node 16, Type 0, BuildingBlock: QEWDON_clean_linker_0, # of connection points: 3
#     Node 17, Type 0, BuildingBlock: QEWDON_clean_linker_0, # of connection points: 3
#     Node 18, Type 0, BuildingBlock: QEWDON_clean_linker_0, # of connection points: 3
#     Node 19, Type 0, BuildingBlock: QEWDON_clean_linker_0, # of connection points: 3
#     Node 20, Type 0, BuildingBlock: QEWDON_clean_linker_0, # of connection points: 3
#     Node 21, Type 0, BuildingBlock: QEWDON_clean_linker_0, # of connection points: 3
#     Node 22, Type 0, BuildingBlock: QEWDON_clean_linker_0, # of connection points: 3
#     Node 23, Type 0, BuildingBlock: QEWDON_clean_linker_0, # of connection points: 3
#     Node 24, Type 1, BuildingBlock: EZIPEK_clean_sbu_0, # of connection points: 12
#     Node 25, Type 1, BuildingBlock: EZIPEK_clean_sbu_0, # of connection points: 12
#     Node 26, Type 1, BuildingBlock: EZIPEK_clean_sbu_0, # of connection points: 12
#     Node 27, Type 1, BuildingBlock: EZIPEK_clean_sbu_0, # of connection points: 12
#     Node 28, Type 1, BuildingBlock: EZIPEK_clean_sbu_0, # of connection points: 12
#     Node 29, Type 1, BuildingBlock: EZIPEK_clean_sbu_0, # of connection points: 12
#     Edge 30, Type (0, 1), BuildingBlock: EZIPEK_clean_linker_0, # of connection points: 2
#     Edge 31, Type (0, 1), BuildingBlock: EZIPEK_clean_linker_0, # of connection points: 2
#     Edge 32, Type (0, 1), BuildingBlock: EZIPEK_clean_linker_0, # of connection points: 2
#     Edge 33, Type (0, 1), BuildingBlock: EZIPEK_clean_linker_0, # of connection points: 2
#     Edge 34, Type (0, 1), BuildingBlock: EZIPEK_clean_linker_0, # of connection points: 2
#     Edge 35, Type (0, 1), BuildingBlock: EZIPEK_clean_linker_0, # of connection points: 2
#     Edge 36, Type (0, 1), BuildingBlock: EZIPEK_clean_linker_0, # of connection points: 2
#     Edge 37, Type (0, 1), BuildingBlock: EZIPEK_clean_linker_0, # of connection points: 2
#     Edge 38, Type (0, 1), BuildingBlock: EZIPEK_clean_linker_0, # of connection points: 2
#     Edge 39, Type (0, 1), BuildingBlock: EZIPEK_clean_linker_0, # of connection points: 2
#     Edge 40, Type (0, 1), BuildingBlock: EZIPEK_clean_linker_0, # of connection points: 2
#     Edge 41, Type (0, 1), BuildingBlock: EZIPEK_clean_linker_0, # of connection points: 2
#     Edge 42, Type (0, 1), BuildingBlock: EZIPEK_clean_linker_0, # of connection points: 2
#     Edge 43, Type (0, 1), BuildingBlock: EZIPEK_clean_linker_0, # of connection points: 2
#     Edge 44, Type (0, 1), BuildingBlock: EZIPEK_clean_linker_0, # of connection points: 2
#     Edge 45, Type (0, 1), BuildingBlock: EZIPEK_clean_linker_0, # of connection points: 2
#     Edge 46, Type (0, 1), BuildingBlock: EZIPEK_clean_linker_0, # of connection points: 2
#     Edge 47, Type (0, 1), BuildingBlock: EZIPEK_clean_linker_0, # of connection points: 2
#     Edge 48, Type (0, 1), BuildingBlock: EZIPEK_clean_linker_0, # of connection points: 2
#     Edge 49, Type (0, 1), BuildingBlock: EZIPEK_clean_linker_0, # of connection points: 2
#     Edge 50, Type (0, 1), BuildingBlock: EZIPEK_clean_linker_0, # of connection points: 2
#     Edge 51, Type (0, 1), BuildingBlock: EZIPEK_clean_linker_0, # of connection points: 2
#     Edge 52, Type (0, 1), BuildingBlock: EZIPEK_clean_linker_0, # of connection points: 2
#     Edge 53, Type (0, 1), BuildingBlock: EZIPEK_clean_linker_0, # of connection points: 2
#     Edge 54, Type (0, 1), BuildingBlock: EZIPEK_clean_linker_0, # of connection points: 2
#     Edge 55, Type (0, 1), BuildingBlock: EZIPEK_clean_linker_0, # of connection points: 2
#     Edge 56, Type (0, 1), BuildingBlock: EZIPEK_clean_linker_0, # of connection points: 2
#     Edge 57, Type (0, 1), BuildingBlock: EZIPEK_clean_linker_0, # of connection points: 2
#     Edge 58, Type (0, 1), BuildingBlock: EZIPEK_clean_linker_0, # of connection points: 2
#     Edge 59, Type (0, 1), BuildingBlock: EZIPEK_clean_linker_0, # of connection points: 2
#     Edge 60, Type (0, 1), BuildingBlock: EZIPEK_clean_linker_0, # of connection points: 2
#     Edge 61, Type (0, 1), BuildingBlock: EZIPEK_clean_linker_0, # of connection points: 2
#     Edge 62, Type (0, 1), BuildingBlock: EZIPEK_clean_linker_0, # of connection points: 2
#     Edge 63, Type (0, 1), BuildingBlock: EZIPEK_clean_linker_0, # of connection points: 2
#     Edge 64, Type (0, 1), BuildingBlock: EZIPEK_clean_linker_0, # of connection points: 2
#     Edge 65, Type (0, 1), BuildingBlock: EZIPEK_clean_linker_0, # of connection points: 2
#     Edge 66, Type (0, 1), BuildingBlock: EZIPEK_clean_linker_0, # of connection points: 2
#     Edge 67, Type (0, 1), BuildingBlock: EZIPEK_clean_linker_0, # of connection points: 2
#     Edge 68, Type (0, 1), BuildingBlock: EZIPEK_clean_linker_0, # of connection points: 2
#     Edge 69, Type (0, 1), BuildingBlock: EZIPEK_clean_linker_0, # of connection points: 2
#     Edge 70, Type (0, 1), BuildingBlock: EZIPEK_clean_linker_0, # of connection points: 2
#     Edge 71, Type (0, 1), BuildingBlock: EZIPEK_clean_linker_0, # of connection points: 2
#     Edge 72, Type (0, 1), BuildingBlock: EZIPEK_clean_linker_0, # of connection points: 2
#     Edge 73, Type (0, 1), BuildingBlock: EZIPEK_clean_linker_0, # of connection points: 2
#     Edge 74, Type (0, 1), BuildingBlock: EZIPEK_clean_linker_0, # of connection points: 2
#     Edge 75, Type (0, 1), BuildingBlock: EZIPEK_clean_linker_0, # of connection points: 2
#     Edge 76, Type (0, 1), BuildingBlock: EZIPEK_clean_linker_0, # of connection points: 2
#     Edge 77, Type (0, 1), BuildingBlock: EZIPEK_clean_linker_0, # of connection points: 2
#     Edge 78, Type (0, 1), BuildingBlock: EZIPEK_clean_linker_0, # of connection points: 2
#     Edge 79, Type (0, 1), BuildingBlock: EZIPEK_clean_linker_0, # of connection points: 2
#     Edge 80, Type (0, 1), BuildingBlock: EZIPEK_clean_linker_0, # of connection points: 2
#     Edge 81, Type (0, 1), BuildingBlock: EZIPEK_clean_linker_0, # of connection points: 2
#     Edge 82, Type (0, 1), BuildingBlock: EZIPEK_clean_linker_0, # of connection points: 2
#     Edge 83, Type (0, 1), BuildingBlock: EZIPEK_clean_linker_0, # of connection points: 2
#     Edge 84, Type (0, 1), BuildingBlock: EZIPEK_clean_linker_0, # of connection points: 2
#     Edge 85, Type (0, 1), BuildingBlock: EZIPEK_clean_linker_0, # of connection points: 2
#     Edge 86, Type (0, 1), BuildingBlock: EZIPEK_clean_linker_0, # of connection points: 2
#     Edge 87, Type (0, 1), BuildingBlock: EZIPEK_clean_linker_0, # of connection points: 2
#     Edge 88, Type (0, 1), BuildingBlock: EZIPEK_clean_linker_0, # of connection points: 2
#     Edge 89, Type (0, 1), BuildingBlock: EZIPEK_clean_linker_0, # of connection points: 2
#     Edge 90, Type (0, 1), BuildingBlock: EZIPEK_clean_linker_0, # of connection points: 2
#     Edge 91, Type (0, 1), BuildingBlock: EZIPEK_clean_linker_0, # of connection points: 2
#     Edge 92, Type (0, 1), BuildingBlock: EZIPEK_clean_linker_0, # of connection points: 2
#     Edge 93, Type (0, 1), BuildingBlock: EZIPEK_clean_linker_0, # of connection points: 2
#     Edge 94, Type (0, 1), BuildingBlock: EZIPEK_clean_linker_0, # of connection points: 2
#     Edge 95, Type (0, 1), BuildingBlock: EZIPEK_clean_linker_0, # of connection points: 2
#     Edge 96, Type (0, 1), BuildingBlock: EZIPEK_clean_linker_0, # of connection points: 2
#     Edge 97, Type (0, 1), BuildingBlock: EZIPEK_clean_linker_0, # of connection points: 2
#     Edge 98, Type (0, 1), BuildingBlock: EZIPEK_clean_linker_0, # of connection points: 2
#     Edge 99, Type (0, 1), BuildingBlock: EZIPEK_clean_linker_0, # of connection points: 2
#     Edge 100, Type (0, 1), BuildingBlock: EZIPEK_clean_linker_0, # of connection points: 2
#     Edge 101, Type (0, 1), BuildingBlock: EZIPEK_clean_linker_0, # of connection points: 2
# Relax obj value: 0.093
# Max RMSD: 0.249
# Mean RMSD: 0.190
data_MOF--net-llk--node1-EZIPEK_clean_sbu_0--node2-QEWDON_clean_linker_0--edge1-EZIPEK_clean_linker_0
_symmetry_space_group_name_H-M    P1
_symmetry_Int_Tables_number       1
_symmetry_cell_setting            triclinic
loop_
_symmetry_equiv_pos_as_xyz
'x, y, z'
_cell_length_a     37.465144
_cell_length_b     37.429028
_cell_length_c     37.10902
_cell_angle_alpha  89.920585
_cell_angle_beta   89.93193
_cell_angle_gamma 89.945484
loop_
_atom_site_label
_atom_site_type_symbol
_atom_site_fract_x
_atom_site_fract_y
_atom_site_fract_z
_atom_type_partial_charge
H0 H 1.00879 0.31683 0.28945 0.0
C1 C 1.0126 0.29122 0.30249 0.0
C2 C 0.01708 0.29042 0.33999 0.0
C3 C 1.01157 0.25932 0.28241 0.0
H4 H 0.022 0.25681 0.38688 0.0
C5 C 0.01959 0.25746 0.35776 0.0
C6 C 0.02015 0.22544 0.33818 0.0
C7 C 0.01716 0.22665 0.30047 0.0
C8 C 1.00228 0.25998 0.24331 0.0
H9 H 0.01828 0.20187 0.28545 0.0
C10 C 1.01166 0.28929 0.22133 0.0
C11 C 0.99931 0.29157 0.18569 0.0
C12 C 0.98157 0.23235 0.22822 0.0
H13 H 0.97295 0.2098 0.24429 0.0
C14 C 0.97045 0.23406 0.19237 0.0
H15 H 0.02792 0.31078 0.23183 0.0
C16 C 0.97901 0.26365 0.17123 0.0
H17 H 0.96939 0.26504 0.14374 0.0
H18 H 0.95441 0.21275 0.1812 0.0
H19 H 0.74233 0.9946 0.32095 0.0
C20 C 0.72904 0.99943 0.29553 0.0
C21 C 0.6918 1.00219 0.29565 0.0
C22 C 0.74861 1.00221 0.26316 0.0
H23 H 0.64443 0.00789 0.26336 0.0
C24 C 0.67334 0.00636 0.26322 0.0
C25 C 0.69202 0.00857 0.23061 0.0
C26 C 0.72953 0.0072 0.23063 0.0
C27 C 0.7885 0.99869 0.26354 0.0
H28 H 0.74344 0.00988 0.2052 0.0
C29 C 0.80851 0.00766 0.29456 0.0
C30 C 0.84537 1.00107 0.2961 0.0
C31 C 0.80689 0.98446 0.23362 0.0
H32 H 0.79285 0.97622 0.20958 0.0
C33 C 0.84382 0.97936 0.23468 0.0
H34 H 0.79572 0.01917 0.31799 0.0
C35 C 0.86299 0.98731 0.26584 0.0
H36 H 0.8914 0.98199 0.26669 0.0
H37 H 0.8575 0.96824 0.21156 0.0
H38 H 1.01027 0.72775 0.31894 0.0
C39 C 0.01592 0.71546 0.29314 0.0
C40 C 0.02407 0.67895 0.29231 0.0
C41 C 0.01304 0.73542 0.26107 0.0
H42 H 0.0338 0.63332 0.25831 0.0
C43 C 0.02898 0.66189 0.25907 0.0
C44 C 0.0248 0.6808 0.22678 0.0
C45 C 0.0177 0.71767 0.22778 0.0
C46 C 1.00213 0.77379 0.26274 0.0
H47 H 0.01475 0.73202 0.2026 0.0
C48 C 1.01263 0.79556 0.29194 0.0
C49 C 0.9991 0.8304 0.29571 0.0
C50 C 0.97909 0.78834 0.23657 0.0
H51 H 0.9697 0.77242 0.21419 0.0
C52 C 0.96663 0.82339 0.23968 0.0
H53 H 0.03074 0.7854 0.31226 0.0
C54 C 0.97631 0.84426 0.26921 0.0
H55 H 0.96573 0.8711 0.27163 0.0
H56 H 0.94876 0.83416 0.2195 0.0
H57 H 0.30052 0.98264 0.32264 0.0
C58 C 0.31254 0.98761 0.29661 0.0
C59 C 0.34887 0.9965 0.29572 0.0
C60 C 0.29242 0.98456 0.26466 0.0
H61 H 0.39445 0.00648 0.26142 0.0
C62 C 0.36614 1.00061 0.26233 0.0
C63 C 0.34678 0.99704 0.23013 0.0
C64 C 0.31001 0.99015 0.23149 0.0
C65 C 0.2534 0.9755 0.26596 0.0
H66 H 0.29552 0.98906 0.20631 0.0
C67 C 0.23271 0.98298 0.29689 0.0
C68 C 0.19623 0.97448 0.29828 0.0
C69 C 0.23636 0.95894 0.23646 0.0
H70 H 0.25104 0.95114 0.21264 0.0
C71 C 0.19984 0.95151 0.23739 0.0
H72 H 0.24439 0.99588 0.3201 0.0
C73 C 0.17977 0.95942 0.268 0.0
H74 H 0.15157 0.95302 0.26844 0.0
H75 H 0.18715 0.93909 0.21441 0.0
H76 H 1.00549 0.6998 0.73413 0.0
C77 C 1.00904 0.72535 0.72109 0.0
C78 C 1.01266 0.72538 0.68349 0.0
C79 C 1.00934 0.75758 0.74094 0.0
H80 H 0.01714 0.75787 0.63575 0.0
C81 C 0.01515 0.75779 0.66491 0.0
C82 C 0.01503 0.7901 0.68372 0.0
C83 C 0.01302 0.78994 0.72148 0.0
C84 C 1.00545 0.75746 0.7814 0.0
H85 H 0.01441 0.8154 0.73507 0.0
C86 C 1.01147 0.72607 0.8019 0.0
C87 C 1.0067 0.72577 0.83945 0.0
C88 C 0.9948 0.78858 0.80015 0.0
H89 H 0.98806 0.81304 0.7863 0.0
C90 C 0.99173 0.78866 0.83763 0.0
H91 H 0.01979 0.70143 0.78935 0.0
C92 C 0.99774 0.75753 0.85725 0.0
H93 H 0.9942 0.75785 0.88623 0.0
H94 H 0.9838 0.81285 0.85147 0.0
H95 H 0.29836 0.00768 0.70318 0.0
C96 C 0.31069 1.00409 0.72927 0.0
C97 C 0.34776 0.9993 0.73026 0.0
C98 C 0.2904 0.00598 0.76126 0.0
H99 H 0.39413 0.99455 0.76417 0.0
C100 C 0.3653 0.9971 0.76343 0.0
C101 C 0.34597 0.99951 0.79565 0.0
C102 C 0.30862 1.00308 0.79452 0.0
C103 C 0.25091 0.01307 0.75968 0.0
H104 H 0.29427 1.00407 0.81981 0.0
C105 C 0.23083 1.00477 0.7285 0.0
C106 C 0.19482 0.01481 0.72562 0.0
C107 C 0.23318 0.03026 0.78845 0.0
H108 H 0.24722 0.0384 0.81249 0.0
C109 C 0.19692 0.03864 0.78619 0.0
H110 H 0.2429 0.99117 0.70586 0.0
C111 C 0.17785 0.03127 0.75486 0.0
H112 H 0.15011 0.03927 0.753 0.0
H113 H 0.18381 0.05195 0.80846 0.0
H114 H 0.99721 0.28023 0.70363 0.0
C115 C 1.00251 0.29342 0.72903 0.0
C116 C 1.007 0.33056 0.72914 0.0
C117 C 1.0045 0.27368 0.76136 0.0
H118 H 0.01358 0.37734 0.76193 0.0
C119 C 1.01131 0.34844 0.76183 0.0
C120 C 1.01255 0.32958 0.79438 0.0
C121 C 1.01034 0.2921 0.79397 0.0
C122 C 0.99902 0.23424 0.76094 0.0
H123 H 1.01247 0.2776 0.81916 0.0
C124 C 1.01045 0.21372 0.73129 0.0
C125 C 1.00163 0.17738 0.72871 0.0
C126 C 0.98036 0.21709 0.78903 0.0
H127 H 0.97058 0.23197 0.812 0.0
C128 C 0.97287 0.18056 0.78715 0.0
H129 H 0.02535 0.22601 0.70952 0.0
C130 C 0.98309 0.16081 0.75698 0.0
H131 H 0.97609 0.13278 0.75537 0.0
H132 H 0.95827 0.16773 0.80877 0.0
H133 H 0.71222 0.01161 0.73322 0.0
C134 C 0.7379 0.00741 0.72057 0.0
C135 C 0.73907 0.00566 0.6829 0.0
C136 C 0.76927 1.00462 0.74135 0.0
H137 H 0.77289 1.00184 0.63602 0.0
C138 C 0.772 1.00232 0.66522 0.0
C139 C 0.80383 1.00022 0.68501 0.0
C140 C 0.80227 1.00054 0.72294 0.0
C141 C 0.76749 0.0078 0.78178 0.0
H142 H 0.82703 0.99805 0.73769 0.0
C143 C 0.73587 0.9995 0.80125 0.0
C144 C 0.73362 1.00564 0.83862 0.0
C145 C 0.7969 0.02119 0.80125 0.0
H146 H 0.82126 0.02918 0.78787 0.0
C147 C 0.79503 0.02587 0.83851 0.0
H148 H 0.71265 0.98885 0.78774 0.0
C149 C 0.76358 0.01841 0.85708 0.0
H150 H 0.76229 0.02341 0.8858 0.0
H151 H 0.81784 0.03631 0.85294 0.0
H152 H 0.30258 0.31672 0.02469 0.0
C153 C 0.31414 0.29084 0.01901 0.0
C154 C 0.35103 0.28911 0.01291 0.0
C155 C 0.29279 0.25983 0.01838 0.0
H156 H 0.39629 0.2543 0.00477 0.0
C157 C 0.36757 0.25576 0.00808 0.0
C158 C 0.34729 0.22426 0.00865 0.0
C159 C 0.30998 0.22652 0.01257 0.0
C160 C 0.25315 0.26223 0.02505 0.0
H161 H 0.29482 0.20197 0.01158 0.0
C162 C 0.23377 0.29423 0.01852 0.0
C163 C 0.19693 0.29651 0.02607 0.0
C164 C 0.23429 0.23273 0.03919 0.0
H165 H 0.24769 0.20811 0.04619 0.0
C166 C 0.19762 0.23466 0.04555 0.0
H167 H 0.24681 0.31757 0.00748 0.0
C168 C 0.17902 0.26623 0.03901 0.0
H169 H 0.15068 0.26734 0.04482 0.0
H170 H 0.18365 0.21167 0.05626 0.0
H171 H 0.30188 0.69612 0.99922 0.0
C172 C 0.31401 0.72214 1.0017 0.0
C173 C 0.35137 0.72342 0.00387 0.0
C174 C 0.2931 0.75355 0.00268 0.0
H175 H 0.39766 0.75772 0.00617 0.0
C176 C 0.36877 0.75666 0.00506 0.0
C177 C 0.3489 0.78849 0.00546 0.0
C178 C 0.31138 0.78669 0.00527 0.0
C179 C 0.2527 0.7518 1.00086 0.0
H180 H 0.29705 0.81162 0.00749 0.0
C181 C 0.23356 0.71948 0.00696 0.0
C182 C 0.19603 0.71828 0.00424 0.0
C183 C 0.23255 0.78257 0.99205 0.0
H184 H 0.24498 0.80766 0.98519 0.0
C185 C 0.19537 0.78164 0.99094 0.0
H186 H 0.24709 0.69489 0.01366 0.0
C187 C 0.17719 0.74984 0.99709 0.0
H188 H 0.14834 0.74955 0.99502 0.0
H189 H 0.18055 0.80563 0.98439 0.0
H190 H 0.70991 0.2877 0.98795 0.0
C191 C 0.73614 0.29924 0.99158 0.0
C192 C 0.73829 0.33573 0.99939 0.0
C193 C 0.76704 0.27831 0.98715 0.0
H194 H 0.77352 0.3806 0.00747 0.0
C195 C 0.77185 0.35218 0.00217 0.0
C196 C 0.80323 0.33209 0.99753 0.0
C197 C 0.8007 0.29517 0.9906 0.0
C198 C 0.76364 0.23956 0.97725 0.0
H199 H 0.82511 0.27994 0.98772 0.0
C200 C 0.7332 0.21942 0.98737 0.0
C201 C 0.72879 0.18399 0.97564 0.0
C202 C 0.78986 0.22277 0.95588 0.0
H203 H 0.81312 0.23717 0.94653 0.0
C204 C 0.78592 0.18722 0.94514 0.0
H205 H 0.71271 0.23091 0.00438 0.0
C206 C 0.75553 0.16795 0.9548 0.0
H207 H 0.75262 0.14063 0.94566 0.0
H208 H 0.80627 0.17476 0.92866 0.0
H209 H 0.70962 0.72729 0.01269 0.0
C210 C 0.73555 0.71496 0.01614 0.0
C211 C 0.73699 0.67783 0.01991 0.0
C212 C 0.76688 0.73563 0.01498 0.0
H213 H 0.77129 0.63172 0.02405 0.0
C214 C 0.77017 0.66061 0.02212 0.0
C215 C 0.80192 0.68049 0.02082 0.0
C216 C 0.80017 0.71796 0.01779 0.0
C217 C 0.76428 0.77497 0.00796 0.0
H218 H 0.82484 0.73298 0.0169 0.0
C219 C 0.73386 0.79462 0.01892 0.0
C220 C 0.7288 0.83005 0.00751 0.0
C221 C 0.79056 0.79261 0.98738 0.0
H222 H 0.81393 0.7786 0.97767 0.0
C223 C 0.78627 0.8284 0.97753 0.0
H224 H 0.71335 0.78233 0.03534 0.0
C225 C 0.75537 0.84693 0.98711 0.0
H226 H 0.7519 0.87429 0.97817 0.0
H227 H 0.80654 0.84151 0.96145 0.0
H228 H 0.50814 0.81503 0.79444 0.0
C229 C 0.51369 0.78898 0.80592 0.0
C230 C 0.52261 0.78664 0.84253 0.0
C231 C 0.50987 0.75789 0.78488 0.0
H232 H 0.53334 0.75108 0.88694 0.0
C233 C 0.52776 0.75302 0.85833 0.0
C234 C 0.52294 0.72183 0.83819 0.0
C235 C 0.51474 0.72426 0.80139 0.0
C236 C 0.49785 0.76072 0.74671 0.0
H237 H 0.51111 0.69989 0.78612 0.0
C238 C 0.5093 0.78925 0.72472 0.0
C239 C 0.4952 0.79392 0.68995 0.0
C240 C 0.47313 0.73611 0.7326 0.0
H241 H 0.4631 0.71426 0.74884 0.0
C242 C 0.45995 0.74014 0.69764 0.0
H243 H 0.52859 0.80836 0.73474 0.0
C244 C 0.47067 0.76903 0.67648 0.0
H245 H 0.45958 0.77222 0.64971 0.0
H246 H 0.44079 0.72118 0.68719 0.0
H247 H 0.24298 0.53503 0.82192 0.0
C248 C 0.23041 0.53125 0.79602 0.0
C249 C 0.19343 0.52582 0.79553 0.0
C250 C 0.25042 0.53212 0.76373 0.0
H251 H 0.14675 0.51935 0.76245 0.0
C252 C 0.17548 0.52295 0.76271 0.0
C253 C 0.19435 0.52441 0.73024 0.0
C254 C 0.23169 0.52821 0.73076 0.0
C255 C 0.29034 0.53718 0.76456 0.0
H256 H 0.24564 0.52782 0.70525 0.0
C257 C 0.31061 0.52934 0.79587 0.0
C258 C 0.34781 0.53466 0.79667 0.0
C259 C 0.30874 0.55053 0.73417 0.0
H260 H 0.29482 0.55853 0.70999 0.0
C261 C 0.34578 0.55457 0.73454 0.0
H262 H 0.29807 0.51885 0.81988 0.0
C263 C 0.36526 0.54655 0.76545 0.0
H264 H 0.3939 0.55053 0.76539 0.0
H265 H 0.3594 0.56459 0.71085 0.0
H266 H 0.5092 0.22516 0.82092 0.0
C267 C 0.51555 0.21389 0.79481 0.0
C268 C 0.52133 0.17708 0.7921 0.0
C269 C 0.51647 0.23564 0.76397 0.0
H270 H 0.53089 0.13317 0.75682 0.0
C271 C 0.52826 0.16196 0.75828 0.0
C272 C 0.53252 0.18324 0.72703 0.0
C273 C 0.52532 0.22016 0.73049 0.0
C274 C 0.50757 0.27448 0.76643 0.0
H275 H 0.52658 0.23778 0.7079 0.0
C276 C 0.517 0.29467 0.79702 0.0
C277 C 0.50725 0.33081 0.79965 0.0
C278 C 0.48858 0.29148 0.73844 0.0
H279 H 0.4799 0.27677 0.71494 0.0
C280 C 0.47973 0.32765 0.74075 0.0
H281 H 0.53166 0.2825 0.819 0.0
C282 C 0.48893 0.34727 0.77124 0.0
H283 H 0.48115 0.3751 0.77305 0.0
H284 H 0.46511 0.34034 0.71908 0.0
H285 H 0.79781 0.50823 0.81944 0.0
C286 C 0.81 0.51116 0.79319 0.0
C287 C 0.84724 0.51382 0.79177 0.0
C288 C 0.78915 0.51068 0.76163 0.0
H289 H 0.89328 0.51615 0.7567 0.0
C290 C 0.8644 0.51507 0.75807 0.0
C291 C 0.8442 0.5147 0.72615 0.0
C292 C 0.80679 0.51331 0.7281 0.0
C293 C 0.74954 0.50521 0.76403 0.0
H294 H 0.79181 0.51375 0.70319 0.0
C295 C 0.73066 0.51397 0.79582 0.0
C296 C 0.69487 0.50406 0.80025 0.0
C297 C 0.7306 0.48849 0.73584 0.0
H298 H 0.74375 0.48024 0.71128 0.0
C299 C 0.69434 0.48056 0.73953 0.0
H300 H 0.74363 0.52749 0.81795 0.0
C301 C 0.67661 0.48783 0.77175 0.0
H302 H 0.64898 0.47989 0.77488 0.0
H303 H 0.68027 0.46749 0.71777 0.0
H304 H 0.49478 0.19938 0.23297 0.0
C305 C 0.50139 0.22507 0.22125 0.0
C306 C 0.51013 0.22679 0.18455 0.0
C307 C 0.50038 0.25631 0.24237 0.0
H308 H 0.52233 0.26144 0.13984 0.0
C309 C 0.51666 0.25998 0.16849 0.0
C310 C 0.51461 0.29141 0.1887 0.0
C311 C 0.50759 0.28945 0.22583 0.0
C312 C 0.49008 0.25431 0.28108 0.0
H313 H 0.5069 0.3139 0.24141 0.0
C314 C 0.50072 0.22507 0.30248 0.0
C315 C 0.48878 0.22178 0.33819 0.0
C316 C 0.46818 0.2808 0.29655 0.0
H317 H 0.45888 0.30331 0.28079 0.0
C318 C 0.45705 0.27796 0.33238 0.0
H319 H 0.51792 0.20452 0.29142 0.0
C320 C 0.4671 0.2485 0.35311 0.0
H321 H 0.45771 0.24632 0.38065 0.0
H322 H 0.44008 0.29838 0.34393 0.0
H323 H 0.79819 0.49295 0.20364 0.0
C324 C 0.81177 0.49668 0.22909 0.0
C325 C 0.84905 0.49955 0.22878 0.0
C326 C 0.79245 0.49765 0.26171 0.0
H327 H 0.89664 0.50376 0.26118 0.0
C328 C 0.86774 0.50224 0.26137 0.0
C329 C 0.84919 0.50262 0.29423 0.0
C330 C 0.8117 0.50105 0.29426 0.0
C331 C 0.75261 0.49358 0.26166 0.0
H332 H 0.79785 0.50238 0.31984 0.0
C333 C 0.73197 0.50453 0.23172 0.0
C334 C 0.6952 0.49709 0.23005 0.0
C335 C 0.73497 0.47676 0.29068 0.0
H336 H 0.74957 0.46702 0.31383 0.0
C337 C 0.69816 0.47095 0.28971 0.0
H338 H 0.74431 0.51795 0.20906 0.0
C339 C 0.67837 0.48071 0.25945 0.0
H340 H 0.6501 0.47472 0.25856 0.0
H341 H 0.68507 0.45783 0.31213 0.0
H342 H 0.50515 0.7832 0.20524 0.0
C343 C 0.51062 0.7959 0.23078 0.0
C344 C 0.51346 0.83325 0.23139 0.0
C345 C 0.51479 0.77571 0.26279 0.0
H346 H 0.51728 0.8798 0.26487 0.0
C347 C 0.51693 0.85081 0.26431 0.0
C348 C 0.52039 0.83165 0.29642 0.0
C349 C 0.52133 0.79423 0.29529 0.0
C350 C 0.51151 0.73579 0.26262 0.0
H351 H 0.52636 0.77998 0.32016 0.0
C352 C 0.51767 0.71585 0.23093 0.0
C353 C 0.51289 0.67867 0.23058 0.0
C354 C 0.50094 0.71716 0.29401 0.0
H355 H 0.49428 0.73102 0.31866 0.0
C356 C 0.49777 0.68003 0.29399 0.0
H357 H 0.52587 0.72876 0.20618 0.0
C358 C 0.5037 0.6608 0.26247 0.0
H359 H 0.49998 0.6321 0.2626 0.0
H360 H 0.48977 0.66619 0.31833 0.0
H361 H 0.20835 0.52058 0.23198 0.0
C362 C 0.23416 0.5181 0.21898 0.0
C363 C 0.23557 0.51384 0.18153 0.0
C364 C 0.2656 0.5211 0.23928 0.0
H365 H 0.26996 0.50858 0.1351 0.0
C366 C 0.26885 0.51176 0.16412 0.0
C367 C 0.30066 0.51384 0.18394 0.0
C368 C 0.29892 0.51861 0.2215 0.0
C369 C 0.26338 0.53038 0.27824 0.0
H370 H 0.3235 0.5208 0.23669 0.0
C371 C 0.23756 0.51471 0.30134 0.0
C372 C 0.23449 0.52491 0.33815 0.0
C373 C 0.28531 0.55758 0.29156 0.0
H374 H 0.30471 0.57068 0.2744 0.0
C375 C 0.28048 0.5703 0.32627 0.0
H376 H 0.21954 0.49568 0.28958 0.0
C377 C 0.25487 0.55511 0.34873 0.0
H378 H 0.25088 0.56831 0.37425 0.0
H379 H 0.29606 0.5928 0.3356 0.0
H380 H 0.80177 0.81791 0.51957 0.0
C381 C 0.81403 0.79203 0.51596 0.0
C382 C 0.8511 0.79119 0.51087 0.0
C383 C 0.79364 0.76036 0.51734 0.0
H384 H 0.89758 0.7575 0.50555 0.0
C385 C 0.86879 0.75819 0.50845 0.0
C386 C 0.84948 0.72609 0.51043 0.0
C387 C 0.81207 0.72739 0.51387 0.0
C388 C 0.75371 0.7618 0.52333 0.0
H389 H 0.79791 0.70227 0.514 0.0
C390 C 0.73375 0.79358 0.51737 0.0
C391 C 0.69678 0.79498 0.5243 0.0
C392 C 0.73503 0.73157 0.53621 0.0
H393 H 0.74851 0.70697 0.54299 0.0
C394 C 0.69817 0.73258 0.54163 0.0
H395 H 0.74627 0.8176 0.50737 0.0
C396 C 0.67912 0.76396 0.53565 0.0
H397 H 0.65067 0.76438 0.5409 0.0
H398 H 0.6844 0.70902 0.55129 0.0
H399 H 0.80221 0.1965 0.49685 0.0
C400 C 0.81412 0.22254 0.50046 0.0
C401 C 0.85099 0.22393 0.50664 0.0
C402 C 0.79342 0.25391 0.49779 0.0
H403 H 0.89681 0.25826 0.51288 0.0
C404 C 0.86814 0.25719 0.5091 0.0
C405 C 0.84852 0.28907 0.50578 0.0
C406 C 0.81125 0.28721 0.50101 0.0
C407 C 0.75382 0.25172 0.49039 0.0
H408 H 0.79662 0.31208 0.49968 0.0
C409 C 0.73385 0.22028 0.49788 0.0
C410 C 0.69723 0.21805 0.48939 0.0
C411 C 0.73561 0.28078 0.47449 0.0
H412 H 0.74935 0.30492 0.46663 0.0
C413 C 0.69909 0.27902 0.46737 0.0
H414 H 0.74618 0.19726 0.51031 0.0
C415 C 0.67998 0.24798 0.47478 0.0
H416 H 0.65181 0.24694 0.46828 0.0
H417 H 0.68564 0.30169 0.45533 0.0
H418 H 0.21219 0.78532 0.52854 0.0
C419 C 0.23786 0.79788 0.52446 0.0
C420 C 0.23876 0.83518 0.522 0.0
C421 C 0.26934 0.77734 0.52188 0.0
H422 H 0.27251 0.88165 0.51716 0.0
C423 C 0.27171 0.85272 0.51862 0.0
C424 C 0.30354 0.83306 0.51639 0.0
C425 C 0.30218 0.79553 0.51728 0.0
C426 C 0.26777 0.7373 0.52478 0.0
H427 H 0.32694 0.78093 0.51438 0.0
C428 C 0.23612 0.71825 0.51657 0.0
C429 C 0.23394 0.68119 0.52217 0.0
C430 C 0.29742 0.71772 0.53748 0.0
H431 H 0.32189 0.73081 0.54537 0.0
C432 C 0.29569 0.68067 0.54145 0.0
H433 H 0.21274 0.7318 0.5063 0.0
C434 C 0.26412 0.66248 0.53406 0.0
H435 H 0.26288 0.6339 0.53856 0.0
H436 H 0.31869 0.6661 0.55127 0.0
H437 H 0.21175 0.22713 0.51428 0.0
C438 C 0.2373 0.21475 0.51962 0.0
C439 C 0.23825 0.17752 0.52266 0.0
C440 C 0.26864 0.23537 0.52201 0.0
H441 H 0.27205 0.13099 0.52729 0.0
C442 C 0.27116 0.15992 0.52647 0.0
C443 C 0.303 0.17968 0.52797 0.0
C444 C 0.30149 0.21724 0.52691 0.0
C445 C 0.26696 0.27527 0.51727 0.0
H446 H 0.32626 0.23187 0.52915 0.0
C447 C 0.23503 0.29456 0.52397 0.0
C448 C 0.23267 0.33129 0.51639 0.0
C449 C 0.29668 0.29436 0.50397 0.0
H450 H 0.32137 0.28105 0.49709 0.0
C451 C 0.29474 0.33114 0.49799 0.0
H452 H 0.2116 0.28143 0.53465 0.0
C453 C 0.26294 0.34951 0.50396 0.0
H454 H 0.26162 0.37784 0.49803 0.0
H455 H 0.3178 0.34531 0.48773 0.0
C456 C 0.01957 0.91621 0.59354 0.0
C457 C 0.02054 0.92495 0.41884 0.0
C458 C 0.02153 0.08972 0.6018 0.0
C459 C 0.02565 0.09777 0.42697 0.0
C460 C 0.93646 0.09507 0.51421 0.0
C461 C 0.9371 0.91948 0.50474 0.0
C462 C 0.10946 0.09333 0.51364 0.0
C463 C 0.1109 0.92217 0.5142 0.0
C464 C 0.10824 0.9996 0.42378 0.0
C465 C 0.93634 0.01229 0.4214 0.0
C466 C 0.10632 1.00556 0.59904 0.0
C467 C 0.93152 1.00164 0.59541 0.0
Eu468 Eu 0.02352 0.93943 0.50718 0.0
O469 O 0.99121 0.9769 0.47709 0.0
O470 O 0.05299 0.97445 0.54189 0.0
Eu471 Eu 0.9539 0.0072 0.50906 0.0
Eu472 Eu 0.08939 0.00737 0.51147 0.0
O473 O 0.98988 0.97383 0.53969 0.0
O474 O 0.05454 0.97721 0.47714 0.0
Eu475 Eu 0.01942 1.0038 0.57892 0.0
Eu476 Eu 0.02251 0.01032 0.44224 0.0
O477 O 0.98918 0.03764 0.54318 0.0
O478 O 0.99057 0.04058 0.47945 0.0
O479 O 0.0544 0.04065 0.47987 0.0
O480 O 0.05237 0.03679 0.54454 0.0
Eu481 Eu 0.02241 0.07476 0.51351 0.0
O482 O 0.02226 0.90706 0.55887 0.0
O483 O 0.02955 0.91361 0.45173 0.0
O484 O 0.027 0.10132 0.56828 0.0
O485 O 0.02048 0.10677 0.46143 0.0
O486 O 0.92486 0.06121 0.51209 0.0
O487 O 0.92529 0.95328 0.50588 0.0
O488 O 0.11993 0.05939 0.51132 0.0
O489 O 0.12056 0.95627 0.51624 0.0
O490 O 0.07463 1.00285 0.41253 0.0
O491 O 0.97045 0.01448 0.41109 0.0
O492 O 0.07222 1.0029 0.6095 0.0
O493 O 0.96515 1.0018 0.60772 0.0
O494 O 0.0756 0.1047 0.51455 0.0
O495 O 0.97048 0.10537 0.51576 0.0
O496 O 0.07744 0.91023 0.50994 0.0
O497 O 0.97123 0.90912 0.50424 0.0
O498 O 0.01288 0.95892 0.41106 0.0
O499 O 0.02956 0.06438 0.41486 0.0
O500 O 0.01753 0.94949 0.6064 0.0
O501 O 0.0158 0.05558 0.61079 0.0
O502 O 0.92199 1.00326 0.56081 0.0
O503 O 0.92473 0.00991 0.45538 0.0
O504 O 0.11807 0.00833 0.5652 0.0
O505 O 0.11932 1.00144 0.45803 0.0
C506 C 0.51605 0.9318 0.11111 0.0
C507 C 0.51574 0.10367 0.08946 0.0
C508 C 0.52152 0.90992 0.93816 0.0
C509 C 0.5206 0.08282 0.91673 0.0
C510 C 0.60924 0.99775 0.93161 0.0
C511 C 0.59976 0.01619 0.10564 0.0
C512 C 0.43432 1.00174 0.92354 0.0
C513 C 0.42868 0.00856 0.09893 0.0
C514 C 0.43263 0.09472 0.00596 0.0
C515 C 0.60673 0.09165 0.00267 0.0
C516 C 0.43118 0.91974 0.01257 0.0
C517 C 0.60464 0.92032 0.02339 0.0
Eu518 Eu 0.51515 0.01528 0.08122 0.0
O519 O 0.54953 0.04258 0.04358 0.0
O520 O 0.48466 0.97926 0.04806 0.0
Eu521 Eu 0.5858 0.00657 0.01704 0.0
Eu522 Eu 0.4497 0.00719 0.01147 0.0
O523 O 0.54817 0.97899 0.05078 0.0
O524 O 0.48514 0.04266 0.04022 0.0
Eu525 Eu 0.51765 0.93967 0.02201 0.0
Eu526 Eu 0.51944 0.07414 0.00575 0.0
O527 O 0.55063 0.97181 0.98733 0.0
O528 O 0.55124 0.03398 0.97968 0.0
O529 O 0.48817 0.03449 0.97763 0.0
O530 O 0.48719 0.97194 0.98489 0.0
Eu531 Eu 0.52056 0.99866 0.94592 0.0
O532 O 0.51945 0.96669 0.1174 0.0
O533 O 0.50915 0.07157 0.10385 0.0
O534 O 0.51767 0.94214 0.92293 0.0
O535 O 0.5199 0.04778 0.90978 0.0
O536 O 0.61839 1.00077 0.96614 0.0
O537 O 0.61272 0.01097 0.07237 0.0
O538 O 0.42205 0.00705 0.95693 0.0
O539 O 0.41829 0.00573 0.06452 0.0
O540 O 0.46682 0.10461 0.00323 0.0
O541 O 0.57294 0.10335 0.00244 0.0
O542 O 0.4649 0.90952 0.01838 0.0
O543 O 0.57066 0.90945 0.02577 0.0
O544 O 0.46855 0.99727 0.91423 0.0
O545 O 0.57579 0.99642 0.9187 0.0
O546 O 0.4621 0.01302 0.11028 0.0
O547 O 0.56545 0.01973 0.11434 0.0
O548 O 0.52348 0.10957 0.05492 0.0
O549 O 0.52111 0.09768 0.94941 0.0
O550 O 0.51322 0.91679 0.07858 0.0
O551 O 0.52476 0.90409 0.9734 0.0
O552 O 0.61553 0.95411 0.02064 0.0
O553 O 0.61669 0.05769 0.00719 0.0
O554 O 0.41999 0.95361 0.00909 0.0
O555 O 0.42076 0.06115 0.00978 0.0
C556 C 0.01688 0.41424 0.09076 0.0
C557 C 0.01698 0.42509 0.91726 0.0
C558 C 0.02085 0.58755 0.10246 0.0
C559 C 0.01396 0.59877 0.92843 0.0
C560 C 0.92867 0.5914 0.01718 0.0
C561 C 0.93072 0.41952 0.00343 0.0
C562 C 0.10235 0.59499 0.01057 0.0
C563 C 0.10452 0.42021 0.01062 0.0
C564 C 0.10222 0.51221 0.91987 0.0
C565 C 0.92995 0.51345 0.9232 0.0
C566 C 0.10872 0.50658 0.09263 0.0
C567 C 0.93437 0.50068 0.09928 0.0
Eu568 Eu 0.01774 0.43901 0.00521 0.0
O569 O 0.98504 0.47652 0.97617 0.0
O570 O 0.05085 0.4731 0.03808 0.0
Eu571 Eu 0.9498 0.50582 0.01115 0.0
Eu572 Eu 0.0854 0.50744 0.00706 0.0
O573 O 0.98747 0.47318 0.04034 0.0
O574 O 0.04895 0.47689 0.97431 0.0
Eu575 Eu 0.02082 0.50208 0.07776 0.0
Eu576 Eu 0.01594 0.51079 0.94142 0.0
O577 O 0.98669 0.53538 0.04465 0.0
O578 O 0.98469 0.53992 0.98049 0.0
O579 O 0.04772 0.54078 0.97891 0.0
O580 O 0.05009 0.5367 0.0422 0.0
Eu581 Eu 0.01631 0.57424 0.01421 0.0
O582 O 1.00951 0.40703 0.05641 0.0
O583 O 0.02225 0.41248 0.95049 0.0
O584 O 0.01775 0.60077 0.06918 0.0
O585 O 0.01538 0.60738 0.96326 0.0
O586 O 0.91864 0.55727 0.0162 0.0
O587 O 0.91983 0.45326 0.00729 0.0
O588 O 0.11401 0.56138 0.0068 0.0
O589 O 0.11552 0.45424 0.00924 0.0
O590 O 0.068 0.51352 0.90989 0.0
O591 O 0.96366 0.51261 0.9119 0.0
O592 O 0.07551 0.50252 0.10548 0.0
O593 O 0.96868 0.50016 0.10914 0.0
O594 O 0.06837 0.60508 0.01438 0.0
O595 O 0.9624 0.60324 0.0165 0.0
O596 O 0.07059 0.40927 0.0094 0.0
O597 O 0.96475 0.4087 1.00132 0.0
O598 O 1.01189 0.45945 0.90881 0.0
O599 O 0.01352 0.56567 0.91492 0.0
O600 O 0.02558 0.44662 0.10316 0.0
O601 O 0.02244 0.55293 0.11125 0.0
O602 O 0.92194 0.50202 0.06555 0.0
O603 O 0.91931 0.51206 0.95772 0.0
O604 O 0.11766 0.50979 0.05808 0.0
O605 O 0.11429 0.50903 0.95348 0.0
C606 C 0.52069 0.41716 0.09856 0.0
C607 C 0.51846 0.5893 0.10416 0.0
C608 C 0.52319 0.42275 0.92361 0.0
C609 C 0.524 0.59655 0.92942 0.0
C610 C 0.61093 0.50982 0.92905 0.0
C611 C 0.60518 0.50822 0.10368 0.0
C612 C 0.4378 0.51323 0.92241 0.0
C613 C 0.4291 0.5058 0.09553 0.0
C614 C 0.43654 0.59413 0.0125 0.0
C615 C 0.60909 0.59237 0.01878 0.0
C616 C 0.43876 0.41689 0.00996 0.0
C617 C 0.61057 0.42139 0.01368 0.0
Eu618 Eu 0.5186 0.50387 0.08189 0.0
O619 O 0.55189 0.53688 0.04797 0.0
O620 O 0.48914 0.4734 0.04283 0.0
Eu621 Eu 0.58917 0.50709 0.01568 0.0
Eu622 Eu 0.45376 0.50585 0.01032 0.0
O623 O 0.55308 0.47393 0.04615 0.0
O624 O 0.48877 0.53657 0.04475 0.0
Eu625 Eu 0.52357 0.43905 0.01146 0.0
Eu626 Eu 0.52221 0.57407 0.01602 0.0
O627 O 0.555 0.47643 0.98106 0.0
O628 O 0.55449 0.53964 0.98313 0.0
O629 O 0.4913 0.53911 0.98184 0.0
O630 O 0.49154 0.47523 0.97911 0.0
Eu631 Eu 0.52364 0.50903 0.94501 0.0
O632 O 0.52045 0.45064 0.11079 0.0
O633 O 0.51827 0.55502 0.1139 0.0
O634 O 0.52059 0.45701 0.91371 0.0
O635 O 0.52247 0.5631 0.91694 0.0
O636 O 0.62099 0.50861 0.96353 0.0
O637 O 0.6165 0.51192 0.06984 0.0
O638 O 0.4255 0.51091 0.95616 0.0
O639 O 0.42036 0.50575 0.06078 0.0
O640 O 0.47051 0.6044 0.01374 0.0
O641 O 0.5753 0.60383 0.01995 0.0
O642 O 0.47292 0.40736 0.01056 0.0
O643 O 0.57692 0.40962 0.01246 0.0
O644 O 0.47217 0.51254 0.91278 0.0
O645 O 0.57742 0.51003 0.91684 0.0
O646 O 0.46257 0.50445 0.10872 0.0
O647 O 0.57102 0.5037 0.11351 0.0
O648 O 0.51923 0.60185 0.07045 0.0
O649 O 0.52526 0.60596 0.96409 0.0
O650 O 0.52134 0.40751 0.06389 0.0
O651 O 0.5269 0.41095 0.95737 0.0
O652 O 0.62056 0.45547 0.01577 0.0
O653 O 0.61965 0.5586 0.01631 0.0
O654 O 0.42615 0.45057 0.00901 0.0
O655 O 0.42482 0.56021 0.01182 0.0
C656 C 0.01369 0.42512 0.60535 0.0
C657 C 0.02383 0.41557 0.43127 0.0
C658 C 0.01752 0.59863 0.5946 0.0
C659 C 0.02371 0.58785 0.41961 0.0
C660 C 0.93441 0.59564 0.50921 0.0
C661 C 0.93313 0.41962 0.50932 0.0
C662 C 0.10827 0.59179 0.51272 0.0
C663 C 0.10684 0.42086 0.52275 0.0
C664 C 0.11298 0.50243 0.43217 0.0
C665 C 0.93801 0.50506 0.42189 0.0
C666 C 0.10168 0.51357 0.60576 0.0
C667 C 0.92929 0.51088 0.59682 0.0
Eu668 Eu 0.01938 0.43929 0.51749 0.0
O669 O 0.99033 0.47443 0.48202 0.0
O670 O 0.04997 0.47614 0.54965 0.0
Eu671 Eu 0.95189 0.50752 0.50995 0.0
Eu672 Eu 0.08717 0.50632 0.51772 0.0
O673 O 0.98607 0.47733 0.54561 0.0
O674 O 0.05327 0.47304 0.48523 0.0
Eu675 Eu 0.01667 0.51078 0.58142 0.0
Eu676 Eu 0.02462 0.50305 0.4451 0.0
O677 O 0.98744 0.54047 0.54116 0.0
O678 O 0.99029 0.53678 0.47749 0.0
O679 O 0.05431 0.53678 0.48117 0.0
O680 O 0.04977 0.54042 0.54476 0.0
Eu681 Eu 0.02069 0.57475 0.50845 0.0
O682 O 1.01096 0.41276 0.57178 0.0
O683 O 0.02019 0.40677 0.46597 0.0
O684 O 0.01819 0.60744 0.55971 0.0
O685 O 0.01777 0.60061 0.45273 0.0
O686 O 0.92281 0.56175 0.51096 0.0
O687 O 0.92223 0.4537 0.50638 0.0
O688 O 0.11806 0.55781 0.51648 0.0
O689 O 0.11741 0.45474 0.52289 0.0
O690 O 0.07998 0.50415 0.41833 0.0
O691 O 0.97252 0.50163 0.41299 0.0
O692 O 0.06723 0.51303 0.6149 0.0
O693 O 0.96271 0.51306 0.60897 0.0
O694 O 0.07474 0.60372 0.50871 0.0
O695 O 0.96857 0.60563 0.50729 0.0
O696 O 0.07295 0.40942 0.52107 0.0
O697 O 0.96691 0.40918 0.51413 0.0
O698 O 0.0273 0.44865 0.41819 0.0
O699 O 0.02966 0.55358 0.41184 0.0
O700 O 0.01842 0.45939 0.61422 0.0
O701 O 0.01747 0.56546 0.60799 0.0
O702 O 0.91949 0.5078 0.56227 0.0
O703 O 0.92496 0.50843 0.4552 0.0
O704 O 0.11443 0.51179 0.57219 0.0
O705 O 0.12046 0.50082 0.46727 0.0
C706 C 0.51944 0.9156 0.59475 0.0
C707 C 0.51916 0.92607 0.42054 0.0
C708 C 0.52637 0.08776 0.60578 0.0
C709 C 0.51445 0.0991 0.43121 0.0
C710 C 0.43186 0.09367 0.52439 0.0
C711 C 0.43071 0.92161 0.50848 0.0
C712 C 0.60461 0.09475 0.50586 0.0
C713 C 0.60477 0.91954 0.5142 0.0
C714 C 0.60391 1.00501 0.42289 0.0
C715 C 0.43161 0.01175 0.42633 0.0
C716 C 0.61122 0.00841 0.59498 0.0
C717 C 0.43701 0.99944 0.60304 0.0
Eu718 Eu 0.51834 0.93956 0.5088 0.0
O719 O 0.48642 0.97768 0.47973 0.0
O720 O 0.55216 0.97344 0.54119 0.0
Eu721 Eu 0.45146 0.00754 0.51454 0.0
Eu722 Eu 0.58716 0.00714 0.50992 0.0
O723 O 0.4889 0.97459 0.54361 0.0
O724 O 0.5498 0.97718 0.47798 0.0
Eu725 Eu 0.52276 1.00315 0.58071 0.0
Eu726 Eu 0.51777 0.0114 0.44473 0.0
O727 O 0.48881 0.03675 0.54773 0.0
O728 O 0.48665 0.041 0.48354 0.0
O729 O 0.54991 0.0411 0.48195 0.0
O730 O 0.5524 0.03719 0.545 0.0
Eu731 Eu 0.51882 0.07509 0.51709 0.0
O732 O 0.51012 0.9084 0.56084 0.0
O733 O 0.52525 0.91385 0.45378 0.0
O734 O 0.5295 0.10018 0.57207 0.0
O735 O 0.50838 0.10674 0.46583 0.0
O736 O 0.42128 0.05998 0.51946 0.0
O737 O 0.42065 0.95559 0.51231 0.0
O738 O 0.61604 0.06084 0.50496 0.0
O739 O 0.61622 0.95344 0.51353 0.0
O740 O 0.56986 0.00913 0.41311 0.0
O741 O 0.46531 0.01417 0.41512 0.0
O742 O 0.57796 1.00485 0.60796 0.0
O743 O 0.47136 0.9989 0.61267 0.0
O744 O 0.57086 0.1054 0.51029 0.0
O745 O 0.46584 0.10482 0.52558 0.0
O746 O 0.57071 0.90903 0.51276 0.0
O747 O 0.46453 0.91009 0.50545 0.0
O748 O 0.51203 0.9601 0.41244 0.0
O749 O 0.52269 0.06657 0.41904 0.0
O750 O 0.52938 0.94794 0.60587 0.0
O751 O 0.51949 0.05381 0.61416 0.0
O752 O 0.42443 1.00188 0.56936 0.0
O753 O 0.42086 0.00962 0.4608 0.0
O754 O 0.62011 0.01043 0.56036 0.0
O755 O 0.61597 1.00303 0.45655 0.0
C756 C 0.19371 0.14272 0.48632 0.0
C757 C 0.20414 0.15734 0.51994 0.0
C758 C 0.14743 0.13784 0.54702 0.0
C759 C 0.13875 0.12014 0.51446 0.0
N760 N 0.14742 0.11473 0.45064 0.0
N761 N 0.19278 0.16718 0.58309 0.0
C762 C 0.16023 0.12507 0.4834 0.0
C763 C 0.18128 0.15485 0.55043 0.0
N764 N 0.21648 0.14454 0.45752 0.0
N765 N 0.12279 0.13955 0.57413 0.0
H766 H 0.21729 0.17993 0.58657 0.0
H767 H 0.17943 0.16249 0.60725 0.0
H768 H 0.09788 0.12731 0.57255 0.0
H769 H 0.12568 0.15543 0.59694 0.0
H770 H 0.21267 0.13057 0.4336 0.0
H771 H 0.24057 0.15847 0.45814 0.0
H772 H 0.15867 0.12247 0.4262 0.0
H773 H 0.12359 0.10067 0.44778 0.0
C774 C 0.8767 0.16855 0.47828 0.0
C775 C 0.87156 0.18988 0.50944 0.0
C776 C 0.90571 0.14651 0.54533 0.0
C777 C 0.90981 0.12467 0.51428 0.0
N778 N 0.89029 0.11006 0.45427 0.0
N779 N 0.87428 0.19581 0.57402 0.0
C780 C 0.8924 0.13413 0.48174 0.0
C781 C 0.88393 0.17777 0.54349 0.0
N782 N 0.86793 0.18177 0.44508 0.0
N783 N 0.92294 0.13751 0.57645 0.0
H784 H 0.85868 0.21891 0.57353 0.0
H785 H 0.87918 0.1866 0.60001 0.0
H786 H 0.93942 0.11517 0.57863 0.0
H787 H 0.92256 0.15297 0.59968 0.0
H788 H 0.87472 0.16906 0.42106 0.0
H789 H 0.8568 0.20705 0.4413 0.0
H790 H 0.87465 0.1141 0.43143 0.0
H791 H 0.90092 0.08442 0.45609 0.0
C792 C 0.875 0.8473 0.53948 0.0
C793 C 0.87125 0.8255 0.50843 0.0
C794 C 0.90677 0.86829 0.47321 0.0
C795 C 0.91032 0.8901 0.50431 0.0
N796 N 0.88936 0.90557 0.56378 0.0
N797 N 0.87624 0.81881 0.44405 0.0
C798 C 0.89149 0.88138 0.53632 0.0
C799 C 0.8849 0.83714 0.47469 0.0
N800 N 0.86444 0.83467 0.57241 0.0
N801 N 0.92446 0.87737 0.44232 0.0
H802 H 0.86035 0.79594 0.44423 0.0
H803 H 0.88225 0.82754 0.41812 0.0
H804 H 0.94032 0.90015 0.44021 0.0
H805 H 0.92495 0.86175 0.4192 0.0
H806 H 0.86998 0.84764 0.59657 0.0
H807 H 0.8529 0.80957 0.57602 0.0
H808 H 0.87277 0.90228 0.58607 0.0
H809 H 0.90205 0.9303 0.56304 0.0
C810 C 0.19537 0.87227 0.4869 0.0
C811 C 0.20465 0.85559 0.51984 0.0
C812 C 0.14762 0.87537 0.54617 0.0
C813 C 0.14096 0.89616 0.51487 0.0
N814 N 0.16201 0.91899 0.45777 0.0
N815 N 0.19179 0.84438 0.58253 0.0
C816 C 0.16583 0.89585 0.48591 0.0
C817 C 0.18121 0.85771 0.54995 0.0
N818 N 0.21407 0.86475 0.45614 0.0
N819 N 0.1221 0.87284 0.57239 0.0
H820 H 0.21638 0.83184 0.58636 0.0
H821 H 0.17765 0.84835 0.60636 0.0
H822 H 0.09779 0.88635 0.57096 0.0
H823 H 0.12389 0.85544 0.59423 0.0
H824 H 0.20599 0.87324 0.43066 0.0
H825 H 0.23558 0.84706 0.45541 0.0
H826 H 0.18166 0.92314 0.43832 0.0
H827 H 0.14038 0.93617 0.45559 0.0
C828 C 0.53631 0.16691 0.16792 0.0
C829 C 0.51063 0.19409 0.16192 0.0
C830 C 0.49287 0.16539 0.10571 0.0
C831 C 0.51489 0.13534 0.11393 0.0
N832 N 0.55582 0.10668 0.15557 0.0
N833 N 0.45812 0.21398 0.13019 0.0
C834 C 0.53577 0.13568 0.14608 0.0
C835 C 0.48703 0.19174 0.13235 0.0
N836 N 0.56254 0.17173 0.19305 0.0
N837 N 0.47796 0.16981 0.07245 0.0
H838 H 0.45211 0.23292 0.1499 0.0
H839 H 0.43807 0.2109 0.11098 0.0
H840 H 0.47927 0.15114 0.05192 0.0
H841 H 0.4658 0.1936 0.06445 0.0
H842 H 0.58441 0.15474 0.19572 0.0
H843 H 0.56439 0.19452 0.20906 0.0
H844 H 0.56749 0.10373 0.18088 0.0
H845 H 0.55958 0.0847 0.13895 0.0
C846 C 0.8818 0.46653 0.17987 0.0
C847 C 0.86848 0.49927 0.1938 0.0
C848 C 0.89132 0.53139 0.14085 0.0
C849 C 0.90785 0.49944 0.12898 0.0
N850 N 0.91087 0.43541 0.13031 0.0
N851 N 0.86173 0.5632 0.18938 0.0
C852 C 0.90079 0.46657 0.14657 0.0
C853 C 0.87318 0.53176 0.17456 0.0
N854 N 0.87717 0.4357 0.19916 0.0
N855 N 0.89194 0.56098 0.11922 0.0
H856 H 0.84775 0.56448 0.21368 0.0
H857 H 0.86806 0.58826 0.17901 0.0
H858 H 0.90514 0.56152 0.09448 0.0
H859 H 0.87728 0.58407 0.12429 0.0
H860 H 0.88883 0.41137 0.19255 0.0
H861 H 0.86262 0.43461 0.22312 0.0
H862 H 0.90413 0.41006 0.13956 0.0
H863 H 0.92448 0.435 0.10578 0.0
C864 C 0.54153 0.85422 0.17321 0.0
C865 C 0.51264 0.85518 0.198 0.0
C866 C 0.4916 0.91083 0.17106 0.0
C867 C 0.51688 0.90719 0.14267 0.0
N868 N 0.56651 0.87473 0.11665 0.0
N869 N 0.4555 0.87956 0.21479 0.0
C870 C 0.54174 0.87835 0.14348 0.0
C871 C 0.48617 0.88192 0.19496 0.0
N872 N 0.56993 0.83205 0.1793 0.0
N873 N 0.47371 0.9421 0.17671 0.0
H874 H 0.45018 0.85808 0.23194 0.0
H875 H 0.43397 0.89687 0.21123 0.0
H876 H 0.47596 0.96449 0.16039 0.0
H877 H 0.45844 0.94673 0.19976 0.0
H878 H 0.59362 0.83321 0.16464 0.0
H879 H 0.57119 0.81433 0.20094 0.0
H880 H 0.58184 0.85177 0.11308 0.0
H881 H 0.57115 0.89432 0.09725 0.0
C882 C 0.19346 0.47932 0.14238 0.0
C883 C 0.20188 0.51148 0.16046 0.0
C884 C 0.14512 0.53759 0.14016 0.0
C885 C 0.13908 0.50708 0.11836 0.0
N886 N 0.16159 0.45188 0.0934 0.0
N887 N 0.18875 0.57365 0.17172 0.0
C888 C 0.16443 0.47879 0.11795 0.0
C889 C 0.17841 0.54129 0.15828 0.0
N890 N 0.21254 0.4489 0.14924 0.0
N891 N 0.11938 0.5633 0.14314 0.0
H892 H 0.21331 0.5777 0.18425 0.0
H893 H 0.17453 0.5972 0.16749 0.0
H894 H 0.09535 0.56223 0.1291 0.0
H895 H 0.12072 0.58425 0.16153 0.0
H896 H 0.20512 0.42385 0.13959 0.0
H897 H 0.23367 0.44798 0.1675 0.0
H898 H 0.18155 0.43294 0.0891 0.0
H899 H 0.14068 0.45036 0.07514 0.0
C900 C 0.49669 0.82142 0.89361 0.0
C901 C 0.52227 0.81901 0.86574 0.0
C902 C 0.54637 0.87732 0.8835 0.0
C903 C 0.52295 0.8779 0.91395 0.0
N904 N 0.4834 0.84297 0.95275 0.0
N905 N 0.57588 0.84132 0.8379 0.0
C906 C 0.50062 0.84768 0.92065 0.0
C907 C 0.5483 0.84612 0.86157 0.0
N908 N 0.4675 0.7995 0.89358 0.0
N909 N 0.56742 0.9061 0.87573 0.0
H910 H 0.57826 0.81874 0.82162 0.0
H911 H 0.59801 0.85809 0.83661 0.0
H912 H 0.57028 0.92791 0.89274 0.0
H913 H 0.58106 0.90901 0.85142 0.0
H914 H 0.44625 0.80253 0.91148 0.0
H915 H 0.46254 0.78104 0.87319 0.0
H916 H 0.47122 0.81891 0.95983 0.0
H917 H 0.48249 0.86156 0.97334 0.0
C918 C 0.16237 0.48736 0.84108 0.0
C919 C 0.17331 0.52194 0.82974 0.0
C920 C 0.14366 0.5488 0.88194 0.0
C921 C 0.12923 0.51496 0.89084 0.0
N922 N 0.13111 0.45108 0.88532 0.0
N923 N 0.17238 0.58596 0.83697 0.0
C924 C 0.1404 0.48388 0.87219 0.0
C925 C 0.16378 0.55277 0.84975 0.0
N926 N 0.17204 0.45809 0.82124 0.0
N927 N 0.1394 0.57675 0.90517 0.0
H928 H 0.18743 0.58999 0.81366 0.0
H929 H 0.16246 0.60957 0.84793 0.0
H930 H 0.12526 0.57436 0.92925 0.0
H931 H 0.15242 0.60115 0.90231 0.0
H932 H 0.1618 0.43256 0.82513 0.0
H933 H 0.1898 0.45942 0.79961 0.0
H934 H 0.14108 0.42695 0.87578 0.0
H935 H 0.11379 0.448 0.90709 0.0
C936 C 0.49007 0.15084 0.84648 0.0
C937 C 0.52122 0.15402 0.82493 0.0
C938 C 0.55046 0.10789 0.86136 0.0
C939 C 0.52083 0.1075 0.88527 0.0
N940 N 0.46512 0.13434 0.90421 0.0
N941 N 0.58431 0.14256 0.81827 0.0
C942 C 0.49162 0.13101 0.87915 0.0
C943 C 0.55239 0.13453 0.8342 0.0
N944 N 0.45847 0.16504 0.83491 0.0
N945 N 0.57675 0.0828 0.86423 0.0
H946 H 0.58723 0.16318 0.79958 0.0
H947 H 0.6085 0.13154 0.82659 0.0
H948 H 0.57685 0.06316 0.88405 0.0
H949 H 0.59682 0.07966 0.84501 0.0
H950 H 0.43419 0.16018 0.84772 0.0
H951 H 0.45584 0.17863 0.81051 0.0
H952 H 0.44563 0.15419 0.90288 0.0
H953 H 0.46394 0.11896 0.92757 0.0
C954 C 0.88637 0.54628 0.83644 0.0
C955 C 0.86766 0.5149 0.82632 0.0
C956 C 0.87879 0.48963 0.88638 0.0
C957 C 0.90308 0.5176 0.89382 0.0
N958 N 0.92995 0.57345 0.87595 0.0
N959 N 0.85088 0.45407 0.84 0.0
C960 C 0.90678 0.54624 0.86879 0.0
C961 C 0.86505 0.48589 0.85093 0.0
N962 N 0.88348 0.57658 0.81601 0.0
N963 N 0.86814 0.46699 0.91309 0.0
H964 H 0.84183 0.44968 0.81381 0.0
H965 H 0.85158 0.43105 0.85583 0.0
H966 H 0.877 0.46914 0.93956 0.0
H967 H 0.84748 0.44866 0.90976 0.0
H968 H 0.8934 0.6013 0.82402 0.0
H969 H 0.86836 0.5779 0.79248 0.0
H970 H 0.93755 0.59252 0.85698 0.0
H971 H 0.94271 0.57601 0.90072 0.0
C972 C 0.69079 0.64174 0.05294 0.0
C973 C 0.70315 0.65709 0.02027 0.0
C974 C 0.6484 0.63787 0.98964 0.0
C975 C 0.63832 0.61874 0.02099 0.0
N976 N 0.65092 0.59948 0.08176 0.0
N977 N 0.69645 0.66586 0.95618 0.0
C978 C 0.65977 0.61992 0.05251 0.0
C979 C 0.68256 0.65433 0.98825 0.0
N980 N 0.70807 0.64889 0.08455 0.0
N981 N 0.62539 0.64014 0.96115 0.0
H982 H 0.72167 0.67745 0.95395 0.0
H983 H 0.68446 0.66112 0.93135 0.0
H984 H 0.60052 0.62767 0.96096 0.0
H985 H 0.62966 0.65662 0.93893 0.0
H986 H 0.69815 0.64169 0.10976 0.0
H987 H 0.73096 0.66468 0.08594 0.0
H988 H 0.66773 0.59561 0.10376 0.0
H989 H 0.62741 0.58467 0.08322 0.0
C990 C 0.37449 0.66617 0.97632 0.0
C991 C 0.37195 0.68931 0.00652 0.0
C992 C 0.40945 0.64836 0.0417 0.0
C993 C 0.4103 0.62409 0.0122 0.0
N994 N 0.38847 0.60706 0.95354 0.0
N995 N 0.38003 0.69856 0.0703 0.0
C996 C 0.39086 0.63197 0.9803 0.0
C997 C 0.38739 0.67925 0.03992 0.0
N998 N 0.36284 0.67764 0.94337 0.0
N999 N 0.43044 0.64242 0.07124 0.0
H1000 H 0.36397 0.72134 0.07023 0.0
H1001 H 0.38715 0.69024 0.09611 0.0
H1002 H 0.44564 0.61936 0.07462 0.0
H1003 H 0.4345 0.6613 0.0914 0.0
H1004 H 0.36758 0.66386 0.91948 0.0
H1005 H 0.35113 0.70263 0.93937 0.0
H1006 H 0.37177 0.60975 0.93129 0.0
H1007 H 0.40109 0.58231 0.95485 0.0
C1008 C 0.37243 0.34477 0.98146 0.0
C1009 C 0.37242 0.3227 0.01264 0.0
C1010 C 0.4118 0.36527 0.04353 0.0
C1011 C 0.41341 0.38632 0.01159 0.0
N1012 N 0.40207 0.3918 0.94804 0.0
N1013 N 0.3934 0.30998 0.07265 0.0
C1014 C 0.39525 0.37513 0.98006 0.0
C1015 C 0.39243 0.33247 0.04355 0.0
N1016 N 0.35077 0.33659 0.95301 0.0
N1017 N 0.42879 0.37687 0.07394 0.0
H1018 H 0.37809 0.28679 0.07441 0.0
H1019 H 0.41056 0.31304 0.09444 0.0
H1020 H 0.44477 0.39962 0.07437 0.0
H1021 H 0.42575 0.36533 0.09926 0.0
H1022 H 0.34624 0.35388 0.93149 0.0
H1023 H 0.33536 0.31342 0.95192 0.0
H1024 H 0.39286 0.38267 0.92325 0.0
H1025 H 0.42039 0.41259 0.94574 0.0
C1026 C 0.69365 0.36771 0.03868 0.0
C1027 C 0.70465 0.35653 0.00385 0.0
C1028 C 0.6482 0.37829 0.97854 0.0
C1029 C 0.64003 0.39483 0.01189 0.0
N1030 N 0.65394 0.40485 0.0744 0.0
N1031 N 0.69443 0.3546 0.9397 0.0
C1032 C 0.66248 0.38932 0.04224 0.0
C1033 C 0.68234 0.36251 0.97355 0.0
N1034 N 0.71257 0.35696 0.06829 0.0
N1035 N 0.62327 0.37721 0.95173 0.0
H1036 H 0.71961 0.34372 0.93477 0.0
H1037 H 0.68087 0.36181 0.9163 0.0
H1038 H 0.59833 0.38933 0.95381 0.0
H1039 H 0.62629 0.36189 0.9285 0.0
H1040 H 0.70427 0.36102 0.09472 0.0
H1041 H 0.73557 0.34132 0.06657 0.0
H1042 H 0.66992 0.40365 0.09724 0.0
H1043 H 0.6313 0.42067 0.07791 0.0
C1044 C 0.04682 0.68208 0.64524 0.0
C1045 C 0.01472 0.69118 0.66329 0.0
C1046 C 0.98781 0.63498 0.64326 0.0
C1047 C 0.01772 0.62881 0.62053 0.0
N1048 N 0.07481 0.64845 0.59748 0.0
N1049 N 0.95256 0.67903 0.67514 0.0
C1050 C 0.04697 0.65298 0.62081 0.0
C1051 C 0.98469 0.66823 0.66144 0.0
N1052 N 0.07751 0.70051 0.65238 0.0
N1053 N 0.96206 0.60947 0.6472 0.0
H1054 H 0.94889 0.70356 0.68792 0.0
H1055 H 0.92882 0.6652 0.67086 0.0
H1056 H 0.96216 0.58551 0.63304 0.0
H1057 H 0.94204 0.61099 0.66665 0.0
H1058 H 0.10251 0.69269 0.64293 0.0
H1059 H 0.07863 0.72157 0.67073 0.0
H1060 H 0.09455 0.66761 0.59334 0.0
H1061 H 0.077 0.62648 0.58051 0.0
C1062 C 0.37208 0.02982 0.67523 0.0
C1063 C 0.36855 0.99834 0.69618 0.0
C1064 C 0.40835 0.96644 0.65475 0.0
C1065 C 0.41069 0.99763 0.63298 0.0
N1066 N 0.38662 0.05548 0.61743 0.0
N1067 N 0.37638 0.9347 0.70198 0.0
C1068 C 0.38986 0.02814 0.64152 0.0
C1069 C 0.38457 0.96595 0.6847 0.0
N1070 N 0.36011 0.06181 0.68831 0.0
N1071 N 0.42898 0.93739 0.64691 0.0
H1072 H 0.35903 0.93351 0.72395 0.0
H1073 H 0.38413 0.90959 0.69283 0.0
H1074 H 0.44653 0.93664 0.62513 0.0
H1075 H 0.43012 0.91457 0.66284 0.0
H1076 H 0.36562 0.08621 0.67595 0.0
H1077 H 0.34753 0.06446 0.71325 0.0
H1078 H 0.3679 0.07588 0.62043 0.0
H1079 H 0.39994 0.05603 0.59283 0.0
C1080 C 0.98016 0.37821 0.69054 0.0
C1081 C 1.00649 0.35156 0.69517 0.0
C1082 C 0.03297 0.36813 0.63712 0.0
C1083 C 1.01032 0.39878 0.63548 0.0
N1084 N 0.96497 0.43505 0.66469 0.0
N1085 N 0.06212 0.32514 0.67596 0.0
C1086 C 0.98476 0.40448 0.66341 0.0
C1087 C 0.03391 0.34736 0.6692 0.0
N1088 N 0.95009 0.37785 0.71147 0.0
N1089 N 0.05383 0.35858 0.60851 0.0
H1090 H 0.06442 0.30996 0.69942 0.0
H1091 H 0.08495 0.32437 0.6599 0.0
H1092 H 0.05589 0.37328 0.58488 0.0
H1093 H 0.06722 0.33419 0.60718 0.0
H1094 H 0.92829 0.39455 0.70687 0.0
H1095 H 0.94532 0.3583 0.73096 0.0
H1096 H 0.95009 0.4425 0.68722 0.0
H1097 H 0.9647 0.45399 0.64429 0.0
C1098 C 0.68704 0.03935 0.65613 0.0
C1099 C 0.70525 0.00653 0.66192 0.0
C1100 C 0.66183 0.97543 0.62411 0.0
C1101 C 0.64189 0.0075 0.62042 0.0
N1102 N 0.63391 0.06975 0.63434 0.0
N1103 N 0.70645 0.94229 0.65744 0.0
C1104 C 0.65392 0.03938 0.63713 0.0
C1105 C 0.69154 0.97426 0.64773 0.0
N1106 N 0.70223 0.07058 0.66748 0.0
N1107 N 0.65343 0.94642 0.60362 0.0
H1108 H 0.72852 0.94026 0.67444 0.0
H1109 H 0.69508 0.91767 0.65121 0.0
H1110 H 0.63187 0.94634 0.58602 0.0
H1111 H 0.66965 0.92389 0.6016 0.0
H1112 H 0.69245 0.0958 0.66101 0.0
H1113 H 0.72634 0.07144 0.68149 0.0
H1114 H 0.63885 0.09298 0.64888 0.0
H1115 H 0.61083 0.07108 0.61873 0.0
C1116 C 0.99076 0.34851 0.36218 0.0
C1117 C 0.01979 0.32418 0.36095 0.0
C1118 C 0.05151 0.3597 0.40604 0.0
C1119 C 0.02377 0.38556 0.40514 0.0
N1120 N 0.97085 0.40838 0.37578 0.0
N1121 N 0.08178 0.3123 0.37396 0.0
C1122 C 0.99483 0.38137 0.38081 0.0
C1123 C 0.05141 0.33147 0.38059 0.0
N1124 N 0.95856 0.33941 0.34757 0.0
N1125 N 0.07777 0.36171 0.43142 0.0
H1126 H 0.08316 0.29252 0.35425 0.0
H1127 H 0.10647 0.31869 0.38509 0.0
H1128 H 0.07929 0.38239 0.45003 0.0
H1129 H 0.09634 0.34141 0.43577 0.0
H1130 H 0.93546 0.35451 0.35126 0.0
H1131 H 0.95396 0.31502 0.33486 0.0
H1132 H 0.9518 0.40808 0.35533 0.0
H1133 H 0.97169 0.43226 0.39005 0.0
C1134 C 0.65917 0.96904 0.34456 0.0
C1135 C 0.67207 1.0018 0.33027 0.0
C1136 C 0.64855 0.03404 0.3824 0.0
C1137 C 0.63065 1.00269 0.39355 0.0
N1138 N 0.62245 0.93911 0.38969 0.0
N1139 N 0.67795 0.06591 0.33401 0.0
C1140 C 0.63722 0.96965 0.37601 0.0
C1141 C 0.66666 0.03441 0.34887 0.0
N1142 N 0.66778 0.93768 0.32773 0.0
N1143 N 0.64968 0.06291 0.40477 0.0
H1144 H 0.69228 0.06731 0.30994 0.0
H1145 H 0.67094 0.09086 0.34423 0.0
H1146 H 0.63833 0.06243 0.4304 0.0
H1147 H 0.66532 0.08539 0.39986 0.0
H1148 H 0.66099 0.91244 0.33716 0.0
H1149 H 0.68327 0.93668 0.30437 0.0
H1150 H 0.62525 0.91385 0.37847 0.0
H1151 H 0.60581 0.93917 0.41224 0.0
C1152 C 0.99697 0.63043 0.32971 0.0
C1153 C 0.02298 0.65748 0.32606 0.0
C1154 C 0.04422 0.64436 0.3872 0.0
C1155 C 0.02227 0.61321 0.38831 0.0
N1156 N 0.98128 0.57427 0.35615 0.0
N1157 N 0.07539 0.68684 0.34913 0.0
C1158 C 0.99988 0.60547 0.35819 0.0
C1159 C 0.04766 0.66368 0.35427 0.0
N1160 N 0.96833 0.62943 0.30689 0.0
N1161 N 0.06182 0.65586 0.4172 0.0
H1162 H 0.07914 0.70104 0.32522 0.0
H1163 H 0.0965 0.68937 0.3672 0.0
H1164 H 0.06125 0.64266 0.44181 0.0
H1165 H 0.07472 0.68048 0.41851 0.0
H1166 H 0.94668 0.61236 0.31067 0.0
H1167 H 0.96415 0.64835 0.28668 0.0
H1168 H 0.96921 0.56543 0.33247 0.0
H1169 H 0.979 0.5564 0.3773 0.0
C1170 C 0.37795 0.03607 0.34226 0.0
C1171 C 0.36846 1.00127 0.33038 0.0
C1172 C 0.3898 0.97631 0.38761 0.0
C1173 C 0.40457 0.00987 0.39692 0.0
N1174 N 0.41248 0.07226 0.38385 0.0
N1175 N 0.36896 0.93752 0.33993 0.0
C1176 C 0.39843 0.03999 0.37443 0.0
C1177 C 0.37511 0.97121 0.3527 0.0
N1178 N 0.36675 0.06527 0.32314 0.0
N1179 N 0.38918 0.94936 0.41233 0.0
H1180 H 0.35876 0.93256 0.31428 0.0
H1181 H 0.37701 0.91447 0.35345 0.0
H1182 H 0.39985 0.95201 0.43808 0.0
H1183 H 0.37448 0.92605 0.40859 0.0
H1184 H 0.36971 0.09149 0.33189 0.0
H1185 H 0.35191 0.06331 0.29947 0.0
H1186 H 0.41119 0.09507 0.36789 0.0
H1187 H 0.42729 0.07576 0.4073 0.0
C1188 C 0.05311 0.18544 0.38134 0.0
C1189 C 0.02402 0.19069 0.35757 0.0
C1190 C 1.0039 0.12983 0.37076 0.0
C1191 C 0.02786 0.12786 0.40044 0.0
N1192 N 0.07416 0.15692 0.43542 0.0
N1193 N 0.96723 0.16945 0.33524 0.0
C1194 C 0.0521 0.15664 0.40622 0.0
C1195 C 0.99826 0.16324 0.35354 0.0
N1196 N 0.08233 0.20717 0.37934 0.0
N1197 N 0.98658 0.10027 0.35842 0.0
H1198 H 0.96072 0.19416 0.32405 0.0
H1199 H 0.94628 0.15113 0.33472 0.0
H1200 H 0.9892 0.07501 0.3697 0.0
H1201 H 0.9721 0.10036 0.33442 0.0
H1202 H 0.10567 0.20249 0.39387 0.0
H1203 H 0.08481 0.22728 0.36002 0.0
H1204 H 0.08907 0.1792 0.4429 0.0
H1205 H 0.07592 0.13585 0.45348 0.0
C1206 C 0.86861 0.97576 0.35411 0.0
C1207 C 0.86516 1.00549 0.33054 0.0
C1208 C 0.90338 0.0414 0.37009 0.0
C1209 C 0.90922 0.01094 0.39211 0.0
N1210 N 0.89194 0.95146 0.40999 0.0
N1211 N 0.88 0.06597 0.31428 0.0
C1212 C 0.89009 0.97881 0.38562 0.0
C1213 C 0.88239 0.03831 0.33829 0.0
N1214 N 0.85264 0.94406 0.3453 0.0
N1215 N 0.9165 0.07372 0.3807 0.0
H1216 H 0.8639 0.06503 0.29139 0.0
H1217 H 0.89542 0.08904 0.31579 0.0
H1218 H 0.93276 0.07667 0.40328 0.0
H1219 H 0.90941 0.09791 0.36884 0.0
H1220 H 0.85744 0.91997 0.35841 0.0
H1221 H 0.83551 0.9412 0.32336 0.0
H1222 H 0.87573 0.92894 0.40943 0.0
H1223 H 0.90822 0.95217 0.43264 0.0
C1224 C 0.02898 0.88331 0.32403 0.0
C1225 C 1.0079 0.85233 0.32798 0.0
C1226 C 1.00338 0.86359 0.39302 0.0
C1227 C 0.01904 0.89828 0.38826 0.0
N1228 N 0.04597 0.94095 0.34644 0.0
N1229 N 0.97038 0.81534 0.36521 0.0
C1230 C 0.03152 0.90807 0.35297 0.0
C1231 C 0.99415 0.84294 0.36221 0.0
N1232 N 0.04792 0.88846 0.2929 0.0
N1233 N 0.99696 0.84962 0.42646 0.0
H1234 H 0.96239 0.79973 0.34342 0.0
H1235 H 0.95601 0.80997 0.38866 0.0
H1236 H 0.99825 0.86348 0.45054 0.0
H1237 H 0.99134 0.82264 0.43051 0.0
H1238 H 0.06728 0.9082 0.28989 0.0
H1239 H 0.04699 0.8707 0.27127 0.0
H1240 H 0.04929 0.95131 0.32057 0.0
H1241 H 0.05424 0.95844 0.36635 0.0
C1242 C 0.173 0.0149 0.34737 0.0
C1243 C 0.17556 0.98025 0.33209 0.0
C1244 C 0.13549 0.95718 0.37888 0.0
C1245 C 0.1349 0.99142 0.39531 0.0
N1246 N 0.16304 0.04863 0.40184 0.0
N1247 N 0.1678 0.91661 0.33993 0.0
C1248 C 0.15685 0.01897 0.38167 0.0
C1249 C 0.15932 0.95075 0.3498 0.0
N1250 N 0.18444 0.04416 0.3286 0.0
N1251 N 0.11335 0.93076 0.39093 0.0
H1252 H 0.18631 0.91075 0.31978 0.0
H1253 H 0.15946 0.89417 0.35427 0.0
H1254 H 0.09631 0.93408 0.41291 0.0
H1255 H 0.1101 0.90649 0.37763 0.0
H1256 H 0.18008 0.07024 0.33742 0.0
H1257 H 0.19492 0.04261 0.30261 0.0
H1258 H 0.18138 0.06825 0.39446 0.0
H1259 H 0.15342 0.05077 0.42805 0.0
C1260 C 0.04613 0.84629 0.66313 0.0
C1261 C 0.01529 0.82432 0.66334 0.0
C1262 C 0.98681 0.86342 0.61885 0.0
C1263 C 0.01698 0.8863 0.61975 0.0
N1264 N 0.07185 0.90386 0.64858 0.0
N1265 N 0.95327 0.81624 0.64808 0.0
C1266 C 0.04548 0.87919 0.64389 0.0
C1267 C 0.98471 0.83416 0.64313 0.0
N1268 N 0.0766 0.83491 0.67983 0.0
N1269 N 0.96022 0.86938 0.59445 0.0
H1270 H 0.95057 0.7949 0.666 0.0
H1271 H 0.92909 0.82452 0.63705 0.0
H1272 H 0.95922 0.89209 0.57823 0.0
H1273 H 0.9404 0.85073 0.58888 0.0
H1274 H 0.10112 0.84774 0.67708 0.0
H1275 H 0.07816 0.81093 0.69409 0.0
H1276 H 0.0911 0.90194 0.66872 0.0
H1277 H 0.07266 0.92786 0.6344 0.0
C1278 C 0.16409 0.97785 0.67799 0.0
C1279 C 0.17576 0.01164 0.69063 0.0
C1280 C 0.14587 0.04122 0.63993 0.0
C1281 C 0.13353 0.0075 0.62793 0.0
N1282 N 0.14156 0.94384 0.6273 0.0
N1283 N 0.18626 0.07413 0.67867 0.0
C1284 C 0.1459 0.97576 0.64446 0.0
C1285 C 0.16924 0.04298 0.67003 0.0
N1286 N 0.16915 0.94798 0.69857 0.0
N1287 N 0.13469 0.0716 0.62294 0.0
H1288 H 0.20387 0.07628 0.70031 0.0
H1289 H 0.18555 0.09699 0.66269 0.0
H1290 H 0.11903 0.07108 0.59974 0.0
H1291 H 0.13875 0.09714 0.63319 0.0
H1292 H 0.15784 0.92331 0.69244 0.0
H1293 H 0.1825 0.94845 0.72321 0.0
H1294 H 0.15315 0.92009 0.63617 0.0
H1295 H 0.12911 0.9419 0.60223 0.0
C1296 C 0.99269 0.16637 0.66265 0.0
C1297 C 1.01001 0.15719 0.69528 0.0
C1298 C 0.03979 0.10717 0.6651 0.0
C1299 C 0.02233 0.11632 0.63212 0.0
N1300 N 0.99432 0.16461 0.59798 0.0
N1301 N 0.05693 0.12517 0.72555 0.0
C1302 C 1.00274 0.14904 0.6302 0.0
C1303 C 0.03564 0.12942 0.69592 0.0
N1304 N 0.9653 0.19059 0.66276 0.0
N1305 N 0.06075 0.07737 0.66699 0.0
H1306 H 0.05474 0.14124 0.74839 0.0
H1307 H 0.07878 0.108 0.72643 0.0
H1308 H 0.0687 0.06321 0.6443 0.0
H1309 H 0.06974 0.06624 0.69106 0.0
H1310 H 0.94931 0.19557 0.64036 0.0
H1311 H 0.9562 0.20328 0.68602 0.0
H1312 H 0.98406 0.19045 0.59616 0.0
H1313 H 1.00031 0.15423 0.57284 0.0
C1314 C 0.85963 0.96931 0.66138 0.0
C1315 C 0.83892 1.0009 0.66554 0.0
C1316 C 0.87992 0.03309 0.62527 0.0
C1317 C 0.90152 1.00199 0.62207 0.0
N1318 N 0.91529 0.94207 0.64143 0.0
N1319 N 0.83374 0.06467 0.65823 0.0
C1320 C 0.89253 0.97063 0.64174 0.0
C1321 C 0.85046 0.03333 0.64952 0.0
N1322 N 0.847 0.93773 0.6748 0.0
N1323 N 0.88705 0.06231 0.60439 0.0
H1324 H 0.81214 0.06598 0.67596 0.0
H1325 H 0.84321 0.08971 0.65062 0.0
H1326 H 0.90926 0.06383 0.58761 0.0
H1327 H 0.86977 0.08396 0.6018 0.0
H1328 H 0.85851 0.91301 0.66931 0.0
H1329 H 0.82336 0.93593 0.68956 0.0
H1330 H 0.91222 0.91971 0.65784 0.0
H1331 H 0.93878 0.94169 0.62634 0.0
C1332 C 0.36898 0.0331 0.1773 0.0
C1333 C 0.36498 0.99944 0.19447 0.0
C1334 C 0.39714 0.97036 0.14469 0.0
C1335 C 0.40161 1.00418 0.12797 0.0
N1336 N 0.38244 0.06495 0.1219 0.0
N1337 N 0.36852 0.93516 0.19167 0.0
C1338 C 0.38464 0.03476 0.14238 0.0
C1339 C 0.37674 0.96771 0.17707 0.0
N1340 N 0.3584 0.06352 0.19466 0.0
N1341 N 0.41356 0.94106 0.13023 0.0
H1342 H 0.35522 0.93227 0.21621 0.0
H1343 H 0.37277 0.91094 0.17864 0.0
H1344 H 0.42959 0.94246 0.10726 0.0
H1345 H 0.41348 0.9158 0.14192 0.0
H1346 H 0.36413 0.08912 0.18531 0.0
H1347 H 0.34586 0.06322 0.21978 0.0
H1348 H 0.36818 0.08765 0.1294 0.0
H1349 H 0.39143 0.06536 0.09534 0.0
C1350 C 0.02968 0.32158 0.13381 0.0
C1351 C 1.0064 0.32392 0.16362 0.0
C1352 C 0.99529 0.38711 0.14994 0.0
C1353 C 0.01478 0.38363 0.11693 0.0
N1354 N 0.04699 0.34422 0.07583 0.0
N1355 N 0.96271 0.35703 0.19758 0.0
C1356 C 0.03087 0.34992 0.10837 0.0
C1357 C 0.9883 0.35625 0.17123 0.0
N1358 N 0.05171 0.29261 0.1304 0.0
N1359 N 0.98274 0.41952 0.16117 0.0
H1360 H 0.9565 0.33506 0.21371 0.0
H1361 H 0.94542 0.37846 0.20147 0.0
H1362 H 0.98216 0.44234 0.14535 0.0
H1363 H 0.97378 0.42417 0.18735 0.0
H1364 H 0.07244 0.29128 0.11169 0.0
H1365 H 0.0517 0.27138 0.14866 0.0
H1366 H 0.05379 0.31886 0.06649 0.0
H1367 H 0.05247 0.36408 0.05718 0.0
C1368 C 0.66346 0.04457 0.1809 0.0
C1369 C 0.67153 0.0108 0.19636 0.0
C1370 C 0.6309 0.9815 0.15403 0.0
C1371 C 0.62506 0.01468 0.13643 0.0
N1372 N 0.63498 0.07808 0.13268 0.0
N1373 N 0.66799 0.94655 0.19423 0.0
C1374 C 0.64133 0.04632 0.14964 0.0
C1375 C 0.65681 0.9791 0.18179 0.0
N1376 N 0.67581 0.07495 0.19708 0.0
N1377 N 0.61018 0.95265 0.14568 0.0
H1378 H 0.68667 0.94369 0.21486 0.0
H1379 H 0.66119 0.92248 0.18197 0.0
H1380 H 0.59093 0.95321 0.12546 0.0
H1381 H 0.6101 0.92905 0.16058 0.0
H1382 H 0.66804 0.10065 0.18982 0.0
H1383 H 0.69275 0.07448 0.21937 0.0
H1384 H 0.64881 0.10157 0.13797 0.0
H1385 H 0.61621 0.08068 0.11215 0.0
C1386 C 0.05349 0.65724 0.16993 0.0
C1387 C 0.02299 0.66047 0.19236 0.0
C1388 C 0.99133 0.616 0.15593 0.0
C1389 C 0.02129 0.61363 0.13261 0.0
N1390 N 0.07866 0.63605 0.11351 0.0
N1391 N 0.96039 0.64938 0.20239 0.0
C1392 C 0.05164 0.6357 0.13829 0.0
C1393 C 0.99114 0.64177 0.18401 0.0
N1394 N 0.0846 0.67364 0.17965 0.0
N1395 N 0.96322 0.5932 0.15162 0.0
H1396 H 0.95915 0.66839 0.22288 0.0
H1397 H 0.93545 0.63945 0.1952 0.0
H1398 H 0.96142 0.57532 0.13022 0.0
H1399 H 0.94283 0.59032 0.17049 0.0
H1400 H 0.10897 0.66904 0.16697 0.0
H1401 H 0.08651 0.69035 0.20205 0.0
H1402 H 0.09968 0.65421 0.114 0.0
H1403 H 0.07904 0.61945 0.09098 0.0
C1404 C 0.38598 0.03228 0.83847 0.0
C1405 C 0.36553 1.00139 0.83052 0.0
C1406 C 0.3833 0.97495 0.88836 0.0
C1407 C 0.40808 1.00318 0.89347 0.0
N1408 N 0.43363 0.05881 0.87331 0.0
N1409 N 0.34715 0.94158 0.84594 0.0
C1410 C 0.40954 0.03189 0.86847 0.0
C1411 C 0.36459 0.97232 0.85508 0.0
N1412 N 0.38191 0.06245 0.81802 0.0
N1413 N 0.37722 0.95096 0.91542 0.0
H1414 H 0.33312 0.93869 0.82186 0.0
H1415 H 0.34893 0.91804 0.86083 0.0
H1416 H 0.38999 0.95241 0.94026 0.0
H1417 H 0.35708 0.93182 0.9146 0.0
H1418 H 0.39318 0.08701 0.82459 0.0
H1419 H 0.36451 0.06392 0.79615 0.0
H1420 H 0.43958 0.07772 0.85361 0.0
H1421 H 0.44893 0.06121 0.89659 0.0
C1422 C 0.98862 0.34883 0.85512 0.0
C1423 C 0.01584 0.35008 0.82855 0.0
C1424 C 0.0416 0.40228 0.8581 0.0
C1425 C 0.01697 0.39872 0.88711 0.0
N1426 N 0.97162 0.36236 0.91622 0.0
N1427 N 0.07412 0.37136 0.81132 0.0
C1428 C 0.99221 0.3698 0.88681 0.0
C1429 C 0.04425 0.37467 0.83222 0.0
N1430 N 0.95812 0.32967 0.84927 0.0
N1431 N 0.06195 0.43223 0.85424 0.0
H1432 H 0.07746 0.3506 0.79286 0.0
H1433 H 0.09695 0.38679 0.81524 0.0
H1434 H 0.06182 0.45325 0.87244 0.0
H1435 H 0.07692 0.43742 0.83111 0.0
H1436 H 0.93587 0.33126 0.86608 0.0
H1437 H 0.95344 0.31512 0.82584 0.0
H1438 H 0.95631 0.33921 0.91838 0.0
H1439 H 0.97169 0.37761 0.93954 0.0
C1440 C 0.68759 0.96852 0.8719 0.0
C1441 C 0.69912 1.00218 0.85852 0.0
C1442 C 0.65311 0.03232 0.89431 0.0
C1443 C 0.63943 0.99875 0.90547 0.0
N1444 N 0.64351 0.93461 0.90604 0.0
N1445 N 0.68834 0.06523 0.85087 0.0
C1446 C 0.6565 0.96667 0.8943 0.0
C1447 C 0.68038 0.03376 0.86781 0.0
N1448 N 0.70728 0.93867 0.86438 0.0
N1449 N 0.64168 0.06292 0.91069 0.0
H1450 H 0.70817 0.06739 0.83122 0.0
H1451 H 0.673 0.0883 0.85376 0.0
H1452 H 0.62173 0.06318 0.93028 0.0
H1453 H 0.65391 0.08761 0.90683 0.0
H1454 H 0.70277 0.91372 0.87587 0.0
H1455 H 0.7296 0.93917 0.84754 0.0
H1456 H 0.65194 0.90993 0.89637 0.0
H1457 H 0.62302 0.93278 0.92496 0.0
C1458 C 0.9772 0.67937 0.87812 0.0
C1459 C 1.00825 0.69158 0.86 0.0
C1460 C 0.04026 0.63791 0.88002 0.0
C1461 C 1.01115 0.62911 0.90287 0.0
N1462 N 0.95328 0.64456 0.92727 0.0
N1463 N 0.07132 0.68511 0.84818 0.0
C1464 C 0.98005 0.65082 0.90306 0.0
C1465 C 0.04034 0.67144 0.86191 0.0
N1466 N 0.94464 0.69402 0.87043 0.0
N1467 N 0.0679 0.6145 0.87574 0.0
H1468 H 0.07272 0.71003 0.83567 0.0
H1469 H 0.09619 0.67328 0.85223 0.0
H1470 H 0.06923 0.59014 0.88926 0.0
H1471 H 0.088 0.61801 0.85664 0.0
H1472 H 0.92071 0.68364 0.88021 0.0
H1473 H 0.94111 0.71404 0.85117 0.0
H1474 H 0.93206 0.66214 0.9313 0.0
H1475 H 0.95349 0.62307 0.94508 0.0
C1476 C 0.17167 0.34702 0.98816 0.0
C1477 C 0.17694 0.33097 0.02244 0.0
C1478 C 0.13618 0.37485 0.04961 0.0
C1479 C 0.13208 0.39177 0.01557 0.0
N1480 N 0.15447 0.40031 0.95542 0.0
N1481 N 0.1724 0.33606 0.08707 0.0
C1482 C 0.15262 0.37988 0.98578 0.0
C1483 C 0.16165 0.34689 0.0536 0.0
N1484 N 0.18328 0.33018 0.95768 0.0
N1485 N 0.1156 0.38524 0.07815 0.0
H1486 H 0.19178 0.3164 0.09101 0.0
H1487 H 0.16499 0.34903 0.11074 0.0
H1488 H 0.09747 0.40636 0.07669 0.0
H1489 H 0.11469 0.37143 0.10252 0.0
H1490 H 0.17681 0.33885 0.93181 0.0
H1491 H 0.1967 0.30577 0.95814 0.0
H1492 H 0.17142 0.39464 0.93389 0.0
H1493 H 0.14216 0.42517 0.95386 0.0
C1494 C 0.17277 0.66364 0.03783 0.0
C1495 C 0.17593 0.68374 0.00543 0.0
C1496 C 0.13055 0.64598 0.97706 0.0
C1497 C 0.1291 0.62427 0.0084 0.0
N1498 N 0.15306 0.60868 0.06662 0.0
N1499 N 0.16535 0.68735 0.94141 0.0
C1500 C 0.15181 0.63176 0.03808 0.0
C1501 C 0.15711 0.67279 0.97419 0.0
N1502 N 0.18812 0.67598 0.06878 0.0
N1503 N 0.10595 0.64178 0.95027 0.0
H1504 H 0.1855 0.70629 0.93799 0.0
H1505 H 0.15493 0.67786 0.91722 0.0
H1506 H 0.08674 0.62169 0.95051 0.0
H1507 H 0.1031 0.65984 0.92907 0.0
H1508 H 0.18352 0.66471 0.09404 0.0
H1509 H 0.2033 0.69928 0.06972 0.0
H1510 H 0.17158 0.61072 0.08742 0.0
H1511 H 0.13714 0.58589 0.06821 0.0
C1512 C 0.37667 0.17285 0.04115 0.0
C1513 C 0.3656 0.18863 0.00811 0.0
C1514 C 0.39043 0.13732 0.97496 0.0
C1515 C 0.40596 0.1244 0.00727 0.0
N1516 N 0.41353 0.12855 0.0715 0.0
N1517 N 0.36295 0.1871 0.94329 0.0
C1518 C 0.3986 0.14162 0.04057 0.0
C1519 C 0.37253 0.17103 0.97492 0.0
N1520 N 0.36617 0.18789 0.07305 0.0
N1521 N 0.39197 0.11679 0.94458 0.0
H1522 H 0.34891 0.21118 0.94233 0.0
H1523 H 0.37082 0.17784 0.91805 0.0
H1524 H 0.40447 0.09186 0.94411 0.0
H1525 H 0.37847 0.12291 0.92085 0.0
H1526 H 0.37019 0.17626 0.09818 0.0
H1527 H 0.35115 0.21133 0.07448 0.0
H1528 H 0.41175 0.14087 0.09653 0.0
H1529 H 0.43018 0.1062 0.0718 0.0
C1530 C 0.85243 0.36599 0.96607 0.0
C1531 C 0.83881 0.35033 0.9982 0.0
C1532 C 0.89022 0.3738 0.03211 0.0
C1533 C 0.90191 0.39212 1.00075 0.0
N1534 N 0.89989 0.39929 0.93647 0.0
N1535 N 0.84339 0.33985 0.06206 0.0
C1536 C 0.88466 0.38628 0.96727 0.0
C1537 C 0.85761 0.35402 0.03125 0.0
N1538 N 0.83343 0.36294 0.93475 0.0
N1539 N 0.91102 0.37449 0.06234 0.0
H1540 H 0.82025 0.32436 0.06218 0.0
H1541 H 0.85321 0.34484 0.08777 0.0
H1542 H 0.93527 0.38812 0.06333 0.0
H1543 H 0.90611 0.35935 0.08534 0.0
H1544 H 0.8392 0.37703 0.91128 0.0
H1545 H 0.81048 0.34735 0.93254 0.0
H1546 H 0.89184 0.39228 0.91061 0.0
H1547 H 0.92227 0.41586 0.93668 0.0
C1548 C 0.66561 0.84499 0.99083 0.0
C1549 C 0.6947 0.84914 0.01492 0.0
C1550 C 0.66053 0.89351 0.0493 0.0
C1551 C 0.63343 0.89283 0.02254 0.0
N1552 N 0.61206 0.87089 0.96534 0.0
N1553 N 0.72107 0.8777 0.0665 0.0
C1554 C 0.63616 0.86895 0.9929 0.0
C1555 C 0.69238 0.87333 0.04419 0.0
N1556 N 0.66626 0.81827 0.96573 0.0
N1557 N 0.65537 0.91306 0.07991 0.0
H1558 H 0.74412 0.86216 0.06454 0.0
H1559 H 0.72291 0.89786 0.08569 0.0
H1560 H 0.63244 0.92821 0.08405 0.0
H1561 H 0.67213 0.91211 0.10223 0.0
H1562 H 0.64425 0.81122 0.95018 0.0
H1563 H 0.68792 0.80108 0.96238 0.0
H1564 H 0.61487 0.85729 0.94105 0.0
H1565 H 0.59078 0.88873 0.96523 0.0
C1566 C 0.8473 0.64485 0.98645 0.0
C1567 C 0.83692 0.66138 0.01919 0.0
C1568 C 0.89122 0.63822 0.04849 0.0
C1569 C 0.89908 0.61808 0.01702 0.0
N1570 N 0.88283 0.59949 0.9569 0.0
N1571 N 0.84707 0.67219 0.08229 0.0
C1572 C 0.87665 0.62074 0.98621 0.0
C1573 C 0.85857 0.65794 0.05042 0.0
N1574 N 0.82949 0.65287 0.95531 0.0
N1575 N 0.91476 0.63822 0.07661 0.0
H1576 H 0.82371 0.68724 0.08445 0.0
H1577 H 0.85927 0.66729 0.10699 0.0
H1578 H 0.93806 0.62297 0.07674 0.0
H1579 H 0.91252 0.65497 0.09886 0.0
H1580 H 0.83814 0.64491 0.92988 0.0
H1581 H 0.80776 0.6703 0.95442 0.0
H1582 H 0.86493 0.59667 0.93565 0.0
H1583 H 0.90505 0.58294 0.95465 0.0
C1584 C 0.36908 0.84387 0.03873 0.0
C1585 C 0.36729 0.82411 0.00613 0.0
C1586 C 0.40201 0.87118 0.97536 0.0
C1587 C 0.4045 0.8902 0.00837 0.0
N1588 N 0.3789 0.90165 0.06643 0.0
N1589 N 0.3754 0.82199 0.94177 0.0
C1590 C 0.38454 0.87862 0.03859 0.0
C1591 C 0.38166 0.83883 0.97383 0.0
N1592 N 0.35699 0.82903 0.07011 0.0
N1593 N 0.41926 0.88415 0.94562 0.0
H1594 H 0.36103 0.7982 0.9399 0.0
H1595 H 0.38229 0.83237 0.91672 0.0
H1596 H 0.43411 0.90771 0.9461 0.0
H1597 H 0.42055 0.87111 0.92094 0.0
H1598 H 0.36112 0.84057 0.09529 0.0
H1599 H 0.34532 0.80376 0.07133 0.0
H1600 H 0.36218 0.89607 0.08816 0.0
H1601 H 0.38728 0.92816 0.06512 0.0
C1602 C 0.693 0.14499 0.01734 0.0
C1603 C 0.69563 0.16361 0.98422 0.0
C1604 C 0.63728 0.13972 0.96546 0.0
C1605 C 0.63617 0.11826 0.99724 0.0
N1606 N 0.66442 0.09864 0.0524 0.0
N1607 N 0.67192 0.17815 0.92576 0.0
C1608 C 0.66441 0.12053 0.02292 0.0
C1609 C 0.66801 0.1611 0.95818 0.0
N1610 N 0.71769 0.1511 0.04376 0.0
N1611 N 0.60936 0.13919 0.94176 0.0
H1612 H 0.69299 0.19552 0.92021 0.0
H1613 H 0.65553 0.17385 0.90358 0.0
H1614 H 0.58851 0.12094 0.94324 0.0
H1615 H 0.60608 0.15755 0.92095 0.0
H1616 H 0.7151 0.14196 0.07013 0.0
H1617 H 0.73971 0.16776 0.0402 0.0
H1618 H 0.6863 0.09512 0.0693 0.0
H1619 H 0.6431 0.08223 0.05909 0.0
C1620 C 0.49141 0.67915 0.8789 0.0
C1621 C 0.52161 0.68698 0.85733 0.0
C1622 C 0.54979 0.63108 0.87688 0.0
C1623 C 0.52215 0.62624 0.90274 0.0
N1624 N 0.46712 0.64706 0.92972 0.0
N1625 N 0.5809 0.67225 0.83717 0.0
C1626 C 0.49312 0.65073 0.90416 0.0
C1627 C 0.55107 0.66327 0.85639 0.0
N1628 N 0.46057 0.6982 0.87432 0.0
N1629 N 0.57479 0.60504 0.87174 0.0
H1630 H 0.5824 0.69523 0.82129 0.0
H1631 H 0.60491 0.65831 0.83888 0.0
H1632 H 0.57577 0.58177 0.88706 0.0
H1633 H 0.5928 0.60518 0.85036 0.0
H1634 H 0.43645 0.69145 0.88654 0.0
H1635 H 0.45808 0.71861 0.85533 0.0
H1636 H 0.44843 0.66689 0.93542 0.0
H1637 H 0.46511 0.62483 0.94643 0.0
C1638 C 0.38704 0.55908 0.84594 0.0
C1639 C 0.36854 0.52963 0.83073 0.0
C1640 C 0.38786 0.49252 0.88165 0.0
C1641 C 0.4115 0.51987 0.89294 0.0
N1642 N 0.43531 0.57912 0.88399 0.0
N1643 N 0.35613 0.46631 0.83147 0.0
C1644 C 0.41167 0.5531 0.87442 0.0
C1645 C 0.37011 0.49576 0.84794 0.0
N1646 N 0.37988 0.59303 0.83436 0.0
N1647 N 0.38169 0.4638 0.90336 0.0
H1648 H 0.34397 0.46726 0.80622 0.0
H1649 H 0.35976 0.44045 0.84125 0.0
H1650 H 0.39261 0.46189 0.92902 0.0
H1651 H 0.36244 0.4445 0.89781 0.0
H1652 H 0.3899 0.61576 0.84698 0.0
H1653 H 0.36089 0.59872 0.81464 0.0
H1654 H 0.43975 0.60196 0.86854 0.0
H1655 H 0.45182 0.5769 0.90641 0.0
C1656 C 0.54376 0.37441 0.83525 0.0
C1657 C 0.51406 0.35112 0.83322 0.0
C1658 C 0.49528 0.36879 0.89393 0.0
C1659 C 0.52213 0.39573 0.89412 0.0
N1660 N 0.57257 0.42406 0.86528 0.0
N1661 N 0.45965 0.32775 0.85863 0.0
C1662 C 0.54664 0.3984 0.86485 0.0
C1663 C 0.48956 0.34844 0.86218 0.0
N1664 N 0.56953 0.37294 0.80915 0.0
N1665 N 0.47508 0.36242 0.92391 0.0
H1666 H 0.45483 0.31162 0.83626 0.0
H1667 H 0.43826 0.32848 0.87656 0.0
H1668 H 0.4758 0.37811 0.9469 0.0
H1669 H 0.45902 0.33992 0.92698 0.0
H1670 H 0.59375 0.38644 0.81061 0.0
H1671 H 0.56793 0.35585 0.78702 0.0
H1672 H 0.58829 0.43067 0.84313 0.0
H1673 H 0.57763 0.43991 0.88771 0.0
C1674 C 0.67418 0.47507 0.85739 0.0
C1675 C 0.67789 0.50658 0.83632 0.0
C1676 C 0.64947 0.5414 0.88425 0.0
C1677 C 0.6393 0.5092 0.9013 0.0
N1678 N 0.64478 0.44556 0.9075 0.0
N1679 N 0.66958 0.57013 0.82928 0.0
C1680 C 0.65289 0.47607 0.88909 0.0
C1681 C 0.66613 0.54002 0.84985 0.0
N1682 N 0.69172 0.44455 0.84745 0.0
N1683 N 0.6442 0.57308 0.90163 0.0
H1684 H 0.68177 0.57009 0.80399 0.0
H1685 H 0.65837 0.59464 0.83623 0.0
H1686 H 0.63253 0.57432 0.92715 0.0
H1687 H 0.65408 0.59741 0.89234 0.0
H1688 H 0.69298 0.42163 0.8633 0.0
H1689 H 0.70772 0.44296 0.82448 0.0
H1690 H 0.64979 0.42003 0.89768 0.0
H1691 H 0.63115 0.44591 0.93201 0.0
C1692 C 0.4882 0.34965 0.16758 0.0
C1693 C 0.51799 0.32634 0.16992 0.0
C1694 C 0.55041 0.36343 0.12643 0.0
C1695 C 0.52131 0.38784 0.12566 0.0
N1696 N 0.4674 0.40921 0.15453 0.0
N1697 N 0.58049 0.31585 0.15884 0.0
C1698 C 0.4919 0.38273 0.1493 0.0
C1699 C 0.5501 0.33477 0.15158 0.0
N1700 N 0.45565 0.3394 0.18067 0.0
N1701 N 0.57823 0.36738 0.10298 0.0
H1702 H 0.58126 0.29519 0.17774 0.0
H1703 H 0.60554 0.32287 0.14891 0.0
H1704 H 0.58043 0.38907 0.08559 0.0
H1705 H 0.59796 0.3481 0.09928 0.0
H1706 H 0.43229 0.35377 0.17584 0.0
H1707 H 0.45114 0.31487 0.19318 0.0
H1708 H 0.44775 0.40788 0.1744 0.0
H1709 H 0.46875 0.4339 0.14181 0.0
C1710 C 0.64831 0.53046 0.19459 0.0
C1711 C 0.67483 0.50344 0.19617 0.0
C1712 C 0.66374 0.48888 0.13282 0.0
C1713 C 0.63242 0.51053 0.13325 0.0
N1714 N 0.59808 0.55659 0.16272 0.0
N1715 N 0.70456 0.45337 0.16822 0.0
C1716 C 0.62566 0.53272 0.16373 0.0
C1717 C 0.68186 0.48192 0.16561 0.0
N1718 N 0.64565 0.55458 0.22211 0.0
N1719 N 0.67737 0.47564 0.10141 0.0
H1720 H 0.71811 0.44662 0.19179 0.0
H1721 H 0.70727 0.43432 0.14793 0.0
H1722 H 0.6659 0.47885 0.07622 0.0
H1723 H 0.70263 0.46403 0.09989 0.0
H1724 H 0.6292 0.57698 0.22156 0.0
H1725 H 0.6621 0.55369 0.24477 0.0
H1726 H 0.58836 0.57013 0.18515 0.0
H1727 H 0.58464 0.56276 0.13896 0.0
C1728 C 0.48237 0.64292 0.18293 0.0
C1729 C 0.51418 0.65862 0.19612 0.0
C1730 C 0.54682 0.63561 0.14376 0.0
C1731 C 0.51631 0.61542 0.13394 0.0
N1732 N 0.45636 0.59579 0.14741 0.0
N1733 N 0.57796 0.66645 0.19175 0.0
C1734 C 0.48445 0.61791 0.15445 0.0
C1735 C 0.5468 0.65432 0.17711 0.0
N1736 N 0.45001 0.65272 0.19685 0.0
N1737 N 0.57586 0.63665 0.12149 0.0
H1738 H 0.57904 0.67984 0.21635 0.0
H1739 H 0.60302 0.66059 0.18109 0.0
H1740 H 0.57706 0.62262 0.09729 0.0
H1741 H 0.59751 0.6536 0.12556 0.0
H1742 H 0.42577 0.64477 0.1857 0.0
H1743 H 0.44724 0.67178 0.21715 0.0
H1744 H 0.43419 0.59359 0.16425 0.0
H1745 H 0.45645 0.5776 0.12624 0.0
C1746 C 0.34948 0.5437 0.14825 0.0
C1747 C 0.3357 0.51235 0.16462 0.0
C1748 C 0.38393 0.47691 0.13715 0.0
C1749 C 0.39813 0.50832 0.12104 0.0
N1750 N 0.38852 0.56959 0.10323 0.0
N1751 N 0.34222 0.45008 0.17948 0.0
C1752 C 0.37941 0.54126 0.1246 0.0
C1753 C 0.35375 0.47925 0.16056 0.0
N1754 N 0.33446 0.57608 0.15614 0.0
N1755 N 0.39711 0.44441 0.12712 0.0
H1756 H 0.31959 0.45054 0.19588 0.0
H1757 H 0.35644 0.42624 0.18117 0.0
H1758 H 0.4177 0.4419 0.10847 0.0
H1759 H 0.38575 0.42008 0.13437 0.0
H1760 H 0.3457 0.60043 0.14871 0.0
H1761 H 0.31223 0.57883 0.17288 0.0
H1762 H 0.3734 0.59283 0.10105 0.0
H1763 H 0.40982 0.5688 0.08522 0.0
C1764 C 0.87045 0.54592 0.67198 0.0
C1765 C 0.86219 0.5136 0.69027 0.0
C1766 C 0.89019 0.47895 0.64151 0.0
C1767 C 0.90104 0.51136 0.62501 0.0
N1768 N 0.89216 0.57436 0.61719 0.0
N1769 N 0.86258 0.44925 0.69285 0.0
C1770 C 0.88829 0.54452 0.63807 0.0
C1771 C 0.87106 0.48 0.67477 0.0
N1772 N 0.86248 0.57793 0.68778 0.0
N1773 N 0.89794 0.44731 0.6249 0.0
H1774 H 0.84812 0.44903 0.71688 0.0
H1775 H 0.87067 0.42383 0.68508 0.0
H1776 H 0.91356 0.44594 0.60167 0.0
H1777 H 0.88839 0.42253 0.6331 0.0
H1778 H 0.87126 0.60247 0.67801 0.0
H1779 H 0.84867 0.57991 0.71213 0.0
H1780 H 0.88086 0.59904 0.62325 0.0
H1781 H 0.90437 0.57357 0.59192 0.0
C1782 C 0.49473 0.8602 0.67855 0.0
C1783 C 0.50519 0.82554 0.66777 0.0
C1784 C 0.52751 0.84954 0.6106 0.0
C1785 C 0.51828 0.88518 0.62166 0.0
N1786 N 0.50341 0.92342 0.67338 0.0
N1787 N 0.54079 0.78871 0.62881 0.0
C1788 C 0.50554 0.89035 0.65786 0.0
C1789 C 0.52432 0.82069 0.63537 0.0
N1790 N 0.47264 0.86445 0.70764 0.0
N1791 N 0.53941 0.84252 0.5765 0.0
H1792 H 0.53944 0.76714 0.6466 0.0
H1793 H 0.55878 0.78475 0.60776 0.0
H1794 H 0.54824 0.86176 0.55848 0.0
H1795 H 0.54004 0.81685 0.56568 0.0
H1796 H 0.46085 0.88875 0.71446 0.0
H1797 H 0.4632 0.84319 0.72311 0.0
H1798 H 0.49973 0.92681 0.70102 0.0
H1799 H 0.50701 0.9477 0.66056 0.0
C1800 C 0.15339 0.55267 0.68511 0.0
C1801 C 0.17414 0.52277 0.69574 0.0
C1802 C 0.15206 0.48907 0.6436 0.0
C1803 C 0.12792 0.51736 0.63564 0.0
N1804 N 0.10348 0.57529 0.65057 0.0
N1805 N 0.19087 0.46112 0.68779 0.0
C1806 C 0.12798 0.54894 0.65693 0.0
C1807 C 0.17312 0.49066 0.67551 0.0
N1808 N 0.15875 0.58498 0.7014 0.0
N1809 N 0.15473 0.46052 0.62084 0.0
H1810 H 0.20686 0.46136 0.71078 0.0
H1811 H 0.18778 0.43573 0.67682 0.0
H1812 H 0.13854 0.45733 0.59832 0.0
H1813 H 0.17467 0.44122 0.6228 0.0
H1814 H 0.14737 0.60875 0.69238 0.0
H1815 H 0.17728 0.58871 0.72203 0.0
H1816 H 0.09909 0.59668 0.66793 0.0
H1817 H 0.08607 0.57496 0.62874 0.0
C1818 C 0.5285 0.1759 0.65802 0.0
C1819 C 0.54238 0.16506 0.69169 0.0
C1820 C 0.55276 0.10516 0.66711 0.0
C1821 C 0.53166 0.11396 0.63605 0.0
N1822 N 0.49477 0.15861 0.60608 0.0
N1823 N 0.58777 0.1279 0.71702 0.0
C1824 C 0.51829 0.14958 0.63265 0.0
C1825 C 0.56067 0.13212 0.69279 0.0
N1826 N 0.53191 0.21043 0.64698 0.0
N1827 N 0.56431 0.07114 0.67356 0.0
H1828 H 0.59536 0.14861 0.7342 0.0
H1829 H 0.60512 0.10612 0.717 0.0
H1830 H 0.56299 0.05032 0.65533 0.0
H1831 H 0.57446 0.06306 0.69841 0.0
H1832 H 0.52374 0.21925 0.62162 0.0
H1833 H 0.55021 0.22745 0.65925 0.0
H1834 H 0.48217 0.18347 0.60525 0.0
H1835 H 0.48488 0.14056 0.58739 0.0
C1836 C 0.88103 0.53705 0.34285 0.0
C1837 C 0.86922 0.50376 0.32892 0.0
C1838 C 0.89683 0.47238 0.38004 0.0
C1839 C 0.91179 0.50509 0.3918 0.0
N1840 N 0.91113 0.56932 0.39091 0.0
N1841 N 0.86767 0.43941 0.33218 0.0
C1842 C 0.90178 0.53773 0.37508 0.0
C1843 C 0.8773 0.47134 0.34717 0.0
N1844 N 0.87342 0.5678 0.3244 0.0
N1845 N 0.89984 0.44269 0.40131 0.0
H1846 H 0.8527 0.43751 0.30858 0.0
H1847 H 0.87653 0.41477 0.34165 0.0
H1848 H 0.91348 0.44284 0.42579 0.0
H1849 H 0.8865 0.4188 0.3964 0.0
H1850 H 0.88399 0.59271 0.33061 0.0
H1851 H 0.85733 0.56831 0.30148 0.0
H1852 H 0.90214 0.59428 0.38255 0.0
H1853 H 0.92711 0.57055 0.41388 0.0
C1854 C 0.49822 0.84651 0.35921 0.0
C1855 C 0.52307 0.85177 0.33087 0.0
C1856 C 0.54227 0.90728 0.35888 0.0
C1857 C 0.52103 0.8999 0.39004 0.0
N1858 N 0.48554 0.85524 0.42205 0.0
N1859 N 0.577 0.88081 0.31108 0.0
C1860 C 0.50149 0.86708 0.39118 0.0
C1861 C 0.54785 0.88002 0.33323 0.0
N1862 N 0.46996 0.82383 0.35504 0.0
N1863 N 0.55659 0.94017 0.35249 0.0
H1864 H 0.58275 0.86029 0.29294 0.0
H1865 H 0.59725 0.89972 0.3137 0.0
H1866 H 0.55567 0.9613 0.37036 0.0
H1867 H 0.56819 0.94695 0.32784 0.0
H1868 H 0.44916 0.82221 0.37366 0.0
H1869 H 0.46508 0.80965 0.33143 0.0
H1870 H 0.4746 0.82972 0.42424 0.0
H1871 H 0.48541 0.86903 0.44625 0.0
C1872 C 0.18073 0.48331 0.3555 0.0
C1873 C 0.20784 0.50833 0.36482 0.0
C1874 C 0.17513 0.52406 0.41895 0.0
C1875 C 0.14493 0.50399 0.40764 0.0
N1876 N 0.12096 0.4601 0.3664 0.0
N1877 N 0.23909 0.52303 0.41944 0.0
C1878 C 0.14816 0.48232 0.37611 0.0
C1879 C 0.20783 0.51973 0.401 0.0
N1880 N 0.18898 0.45608 0.33259 0.0
N1881 N 0.17257 0.5491 0.44544 0.0
H1882 H 0.26348 0.51583 0.40784 0.0
H1883 H 0.23986 0.52884 0.44693 0.0
H1884 H 0.14818 0.55687 0.4562 0.0
H1885 H 0.19404 0.56532 0.45271 0.0
H1886 H 0.17162 0.43541 0.32604 0.0
H1887 H 0.21537 0.45103 0.32511 0.0
H1888 H 0.11968 0.44751 0.34143 0.0
H1889 H 0.09908 0.45489 0.38291 0.0
C1890 C 0.52184 0.19293 0.3892 0.0
C1891 C 0.49814 0.1897 0.35984 0.0
C1892 C 0.49298 0.12535 0.37123 0.0
C1893 C 0.51175 0.12945 0.40462 0.0
N1894 N 0.54381 0.16924 0.44517 0.0
N1895 N 0.45704 0.15409 0.32537 0.0
C1896 C 0.52606 0.16385 0.41352 0.0
C1897 C 0.48288 0.15623 0.35133 0.0
N1898 N 0.54151 0.22347 0.39307 0.0
N1899 N 0.48456 0.09244 0.35779 0.0
H1900 H 0.44841 0.17602 0.31035 0.0
H1901 H 0.4418 0.13126 0.32089 0.0
H1902 H 0.48672 0.0685 0.3716 0.0
H1903 H 0.47651 0.08864 0.33119 0.0
H1904 H 0.56249 0.22598 0.41128 0.0
H1905 H 0.53925 0.24525 0.37564 0.0
H1906 H 0.54918 0.19452 0.45554 0.0
H1907 H 0.55257 0.1488 0.46181 0.0
C1908 C 0.67251 0.84784 0.48898 0.0
C1909 C 0.67654 0.82941 0.5222 0.0
C1910 C 0.63457 0.87107 0.55076 0.0
C1911 C 0.632 0.89066 0.51805 0.0
N1912 N 0.6569 0.90347 0.45954 0.0
N1913 N 0.66988 0.83036 0.58688 0.0
C1914 C 0.65375 0.88095 0.48828 0.0
C1915 C 0.66011 0.84314 0.55379 0.0
N1916 N 0.685 0.83304 0.45778 0.0
N1917 N 0.61253 0.87888 0.579 0.0
H1918 H 0.68946 0.81081 0.59027 0.0
H1919 H 0.6615 0.84182 0.61102 0.0
H1920 H 0.59429 0.89991 0.57844 0.0
H1921 H 0.61061 0.86302 0.60202 0.0
H1922 H 0.67947 0.84357 0.43238 0.0
H1923 H 0.69806 0.80844 0.45695 0.0
H1924 H 0.6748 0.8992 0.43846 0.0
H1925 H 0.64458 0.92839 0.45886 0.0
C1926 C 0.66231 0.16715 0.46264 0.0
C1927 C 0.67685 0.1839 0.49368 0.0
C1928 C 0.65041 0.13681 0.53141 0.0
C1929 C 0.63156 0.1236 0.50111 0.0
N1930 N 0.61595 0.12927 0.43833 0.0
N1931 N 0.68084 0.18719 0.55852 0.0
C1932 C 0.63652 0.13962 0.46682 0.0
C1933 C 0.67012 0.16925 0.52837 0.0
N1934 N 0.674 0.1768 0.42911 0.0
N1935 N 0.6496 0.11823 0.56306 0.0
H1936 H 0.69468 0.21132 0.55751 0.0
H1937 H 0.67336 0.17977 0.58451 0.0
H1938 H 0.63545 0.09444 0.56583 0.0
H1939 H 0.66553 0.12448 0.58515 0.0
H1940 H 0.66696 0.16313 0.40574 0.0
H1941 H 0.69369 0.19607 0.42499 0.0
H1942 H 0.61545 0.14286 0.41381 0.0
H1943 H 0.59731 0.10864 0.44005 0.0
C1944 C 0.8888 0.68127 0.5422 0.0
C1945 C 0.8687 0.6909 0.51125 0.0
C1946 C 0.88329 0.63268 0.48394 0.0
C1947 C 0.90791 0.62564 0.51217 0.0
N1948 N 0.93417 0.64338 0.56864 0.0
N1949 N 0.84942 0.67731 0.45088 0.0
C1950 C 0.91057 0.65002 0.54144 0.0
C1951 C 0.86642 0.66687 0.48172 0.0
N1952 N 0.886 0.7013 0.57289 0.0
N1953 N 0.87557 0.6066 0.45951 0.0
H1954 H 0.83695 0.7021 0.4482 0.0
H1955 H 0.85026 0.66275 0.42701 0.0
H1956 H 0.8867 0.58115 0.46085 0.0
H1957 H 0.85544 0.60889 0.44032 0.0
H1958 H 0.89679 0.69367 0.59758 0.0
H1959 H 0.87011 0.72413 0.57466 0.0
H1960 H 0.94145 0.6624 0.5877 0.0
H1961 H 0.94755 0.61912 0.57125 0.0
C1962 C 0.35631 0.85695 0.48108 0.0
C1963 C 0.33855 0.85216 0.51458 0.0
C1964 C 0.38293 0.89029 0.54427 0.0
C1965 C 0.40124 0.89471 0.51096 0.0
N1966 N 0.40872 0.878 0.44886 0.0
N1967 N 0.3389 0.85761 0.57921 0.0
C1968 C 0.38911 0.8764 0.47981 0.0
C1969 C 0.35312 0.86683 0.54652 0.0
N1970 N 0.34085 0.84446 0.45021 0.0
N1971 N 0.39354 0.90934 0.5737 0.0
H1972 H 0.31693 0.84071 0.5819 0.0
H1973 H 0.35058 0.86412 0.60378 0.0
H1974 H 0.41653 0.92493 0.57374 0.0
H1975 H 0.37853 0.91141 0.59723 0.0
H1976 H 0.35006 0.8505 0.42445 0.0
H1977 H 0.31719 0.82979 0.45022 0.0
H1978 H 0.4041 0.8619 0.4265 0.0
H1979 H 0.43067 0.89482 0.44609 0.0
C1980 C 0.18228 0.35901 0.55239 0.0
C1981 C 0.19784 0.35052 0.51853 0.0
C1982 C 0.1536 0.38796 0.48788 0.0
C1983 C 0.13621 0.39428 0.52127 0.0
N1984 N 0.13198 0.38404 0.58518 0.0
N1985 N 0.19292 0.34952 0.45372 0.0
C1986 C 0.14975 0.37889 0.55347 0.0
C1987 C 0.18176 0.3627 0.48618 0.0
N1988 N 0.19962 0.34985 0.58345 0.0
N1989 N 0.14454 0.40738 0.45801 0.0
H1990 H 0.21312 0.33045 0.45136 0.0
H1991 H 0.17969 0.35475 0.42959 0.0
H1992 H 0.12385 0.42603 0.45777 0.0
H1993 H 0.15928 0.40691 0.43418 0.0
H1994 H 0.1919 0.3586 0.60891 0.0
H1995 H 0.22346 0.33545 0.58367 0.0
H1996 H 0.13787 0.37036 0.60888 0.0
H1997 H 0.10998 0.40096 0.58729 0.0
C1998 C 0.35426 0.15245 0.4936 0.0
C1999 C 0.33831 0.16094 0.5273 0.0
C2000 C 0.38919 0.1334 0.55887 0.0
C2001 C 0.40272 0.12098 0.52544 0.0
N2002 N 0.40061 0.12053 0.46078 0.0
N2003 N 0.33946 0.15908 0.59213 0.0
C2004 C 0.38602 0.13133 0.49272 0.0
C2005 C 0.35571 0.15167 0.56 0.0
N2006 N 0.33915 0.16504 0.4625 0.0
N2007 N 0.40866 0.12809 0.58948 0.0
H2008 H 0.31548 0.17318 0.59393 0.0
H2009 H 0.34846 0.14954 0.61687 0.0
H2010 H 0.43193 0.11284 0.58975 0.0
H2011 H 0.40284 0.14007 0.6141 0.0
H2012 H 0.35072 0.16286 0.43712 0.0
H2013 H 0.31547 0.17971 0.46207 0.0
H2014 H 0.38823 0.12325 0.43588 0.0
H2015 H 0.42546 0.10803 0.45936 0.0
C2016 C 0.88992 0.33312 0.47537 0.0
C2017 C 0.86741 0.3245 0.50495 0.0
C2018 C 0.87931 0.38396 0.5308 0.0
C2019 C 0.90651 0.38988 0.50476 0.0
N2020 N 0.9375 0.36997 0.45147 0.0
N2021 N 0.84345 0.3404 0.56309 0.0
C2022 C 0.91165 0.36437 0.47679 0.0
C2023 C 0.86262 0.34971 0.53317 0.0
N2024 N 0.8895 0.31216 0.44521 0.0
N2025 N 0.86883 0.41113 0.55287 0.0
H2026 H 0.83119 0.31556 0.56602 0.0
H2027 H 0.84236 0.35604 0.58626 0.0
H2028 H 0.87938 0.43675 0.55098 0.0
H2029 H 0.84697 0.40939 0.57016 0.0
H2030 H 0.90233 0.31895 0.42126 0.0
H2031 H 0.87355 0.28945 0.44286 0.0
H2032 H 0.94632 0.35026 0.4338 0.0
H2033 H 0.95114 0.3941 0.44916 0.0
C2034 C 0.1826 0.64958 0.55105 0.0
C2035 C 0.19919 0.6621 0.51913 0.0
C2036 C 0.15195 0.63393 0.48306 0.0
C2037 C 0.1379 0.6181 0.5149 0.0
N2038 N 0.1452 0.6046 0.57818 0.0
N2039 N 0.2021 0.66384 0.45431 0.0
C2040 C 0.15468 0.62422 0.54862 0.0
C2041 C 0.18429 0.65401 0.48493 0.0
N2042 N 0.19306 0.66249 0.58382 0.0
N2043 N 0.13504 0.62873 0.45092 0.0
H2044 H 0.22568 0.67861 0.45476 0.0
H2045 H 0.19498 0.65545 0.42858 0.0
H2046 H 0.11348 0.61137 0.44812 0.0
H2047 H 0.14132 0.64259 0.42743 0.0
H2048 H 0.17935 0.65709 0.60766 0.0
H2049 H 0.21318 0.68153 0.58673 0.0
H2050 H 0.15955 0.60492 0.60221 0.0
H2051 H 0.12472 0.58584 0.57787 0.0
loop_
_geom_bond_atom_site_label_1
_geom_bond_atom_site_label_2
_geom_bond_distance
_geom_bond_site_symmetry_2
_ccdc_geom_bond_type
H0 C1 0.949 . S
C1 H0 0.949 . S
C1 C2 1.395 . S
C1 C3 1.388 1_455 S
C2 C1 1.395 . S
C2 C5 1.390 . S
C3 C1 1.388 1_655 S
C3 C7 1.385 1_655 S
C3 C8 1.497 . S
H4 C5 0.950 . S
C5 C2 1.390 . S
C5 H4 0.950 . S
C5 C6 1.378 . S
C6 C5 1.378 . S
C6 C7 1.409 . S
C7 C3 1.385 1_455 S
C7 C6 1.409 . S
C7 H9 0.952 . S
C8 C3 1.497 . S
C8 C10 1.382 1_655 S
C8 C12 1.404 . S
H9 C7 0.952 . S
C10 C8 1.382 1_455 S
C10 C11 1.390 1_455 S
C10 H15 0.949 . S
C11 C10 1.390 1_655 S
C11 C16 1.399 . S
C12 C8 1.404 . S
C12 H13 0.950 . S
C12 C14 1.375 . S
H13 C12 0.950 . S
C14 C12 1.375 . S
C14 C16 1.382 . S
C14 H18 0.950 . S
H15 C10 0.949 . S
C16 C11 1.399 . S
C16 C14 1.382 . S
C16 H17 0.952 . S
H17 C16 0.952 . S
H18 C14 0.950 . S
H19 C20 0.949 . S
C20 H19 0.949 . S
C20 C21 1.397 . S
C20 C22 1.391 . S
C21 C20 1.397 . S
C21 C24 1.389 1_545 S
C22 C20 1.391 . S
C22 C26 1.387 . S
C22 C27 1.491 . S
H23 C24 0.950 . S
C24 C21 1.389 1_565 S
C24 H23 0.950 . S
C24 C25 1.376 1_565 S
C25 C24 1.376 1_545 S
C25 C26 1.415 . S
C26 C22 1.387 . S
C26 C25 1.415 . S
C26 H28 0.951 . S
C27 C22 1.491 . S
C27 C29 1.382 . S
C27 C31 1.404 . S
H28 C26 0.951 . S
C29 C27 1.382 . S
C29 C30 1.390 . S
C29 H34 0.949 1_545 S
C30 C29 1.390 . S
C30 C35 1.399 . S
C31 C27 1.404 . S
C31 H32 0.950 . S
C31 C33 1.375 . S
H32 C31 0.950 . S
C33 C31 1.375 . S
C33 C35 1.382 . S
C33 H37 0.950 . S
H34 C29 0.949 1_565 S
C35 C30 1.399 . S
C35 C33 1.382 . S
C35 H36 0.952 . S
H36 C35 0.952 . S
H37 C33 0.950 . S
H38 C39 0.949 . S
C39 H38 0.949 . S
C39 C40 1.395 . S
C39 C41 1.389 1_455 S
C40 C39 1.395 . S
C40 C43 1.390 . S
C41 C39 1.389 1_655 S
C41 C45 1.386 1_655 S
C41 C46 1.495 . S
H42 C43 0.950 . S
C43 C40 1.390 . S
C43 H42 0.950 . S
C43 C44 1.378 . S
C44 C43 1.378 . S
C44 C45 1.409 . S
C45 C41 1.386 1_455 S
C45 C44 1.409 . S
C45 H47 0.950 1_455 S
C46 C41 1.495 . S
C46 C48 1.382 1_655 S
C46 C50 1.404 . S
H47 C45 0.950 1_655 S
C48 C46 1.382 1_455 S
C48 C49 1.396 . S
C48 H53 0.949 . S
C49 C48 1.396 . S
C49 C54 1.378 1_455 S
C50 C46 1.404 . S
C50 H51 0.950 . S
C50 C52 1.375 . S
H51 C50 0.950 . S
C52 C50 1.375 . S
C52 C54 1.382 . S
C52 H56 0.950 . S
H53 C48 0.949 . S
C54 C49 1.378 1_655 S
C54 C52 1.382 . S
C54 H55 0.952 . S
H55 C54 0.952 . S
H56 C52 0.950 . S
H57 C58 0.949 . S
C58 H57 0.949 . S
C58 C59 1.394 1_565 S
C58 C60 1.391 . S
C59 C58 1.394 1_545 S
C59 C62 1.391 . S
C60 C58 1.391 . S
C60 C64 1.387 . S
C60 C65 1.491 . S
H61 C62 0.950 . S
C62 C59 1.391 . S
C62 H61 0.950 . S
C62 C63 1.378 1_545 S
C63 C62 1.378 1_565 S
C63 C64 1.409 . S
C64 C60 1.387 . S
C64 C63 1.409 . S
C64 H66 0.951 . S
C65 C60 1.491 . S
C65 C67 1.382 . S
C65 C69 1.404 . S
H66 C64 0.951 . S
C67 C65 1.382 . S
C67 C68 1.390 . S
C67 H72 0.949 1_565 S
C68 C67 1.390 . S
C68 C73 1.399 . S
C69 C65 1.404 . S
C69 H70 0.950 . S
C69 C71 1.375 . S
H70 C69 0.950 . S
C71 C69 1.375 . S
C71 C73 1.382 . S
C71 H75 0.950 . S
H72 C67 0.949 1_545 S
C73 C68 1.399 . S
C73 C71 1.382 . S
C73 H74 0.952 . S
H74 C73 0.952 . S
H75 C71 0.950 . S
H76 C77 0.949 . S
C77 H76 0.949 . S
C77 C78 1.395 . S
C77 C79 1.389 1_455 S
C78 C77 1.395 . S
C78 C81 1.390 . S
C79 C77 1.389 1_655 S
C79 C83 1.385 1_655 S
C79 C84 1.497 . S
H80 C81 0.950 . S
C81 C78 1.390 . S
C81 H80 0.950 . S
C81 C82 1.378 . S
C82 C81 1.378 . S
C82 C83 1.409 . S
C83 C79 1.385 1_455 S
C83 C82 1.409 . S
C83 H85 0.953 . S
C84 C79 1.497 . S
C84 C86 1.382 1_655 S
C84 C88 1.404 . S
H85 C83 0.953 . S
C86 C84 1.382 1_455 S
C86 C87 1.390 1_455 S
C86 H91 0.949 . S
C87 C86 1.390 1_655 S
C87 C92 1.399 . S
C88 C84 1.404 . S
C88 H89 0.950 . S
C88 C90 1.375 . S
H89 C88 0.950 . S
C90 C88 1.375 . S
C90 C92 1.382 . S
C90 H94 0.950 . S
H91 C86 0.949 . S
C92 C87 1.399 . S
C92 C90 1.382 . S
C92 H93 0.952 . S
H93 C92 0.952 . S
H94 C90 0.950 . S
H95 C96 0.949 . S
C96 H95 0.949 . S
C96 C97 1.400 . S
C96 C98 1.391 . S
C97 C96 1.400 . S
C97 C100 1.388 1_545 S
C98 C96 1.391 . S
C98 C102 1.387 . S
C98 C103 1.491 . S
H99 C100 0.950 . S
C100 C97 1.388 1_565 S
C100 H99 0.950 . S
C100 C101 1.378 1_565 S
C101 C100 1.378 1_545 S
C101 C102 1.409 . S
C102 C98 1.387 . S
C102 C101 1.409 . S
C102 H104 0.951 . S
C103 C98 1.491 . S
C103 C105 1.382 . S
C103 C107 1.404 . S
H104 C102 0.951 . S
C105 C103 1.382 . S
C105 C106 1.390 . S
C105 H110 0.949 1_545 S
C106 C105 1.390 . S
C106 C111 1.399 . S
C107 C103 1.404 . S
C107 H108 0.950 . S
C107 C109 1.375 . S
H108 C107 0.950 . S
C109 C107 1.375 . S
C109 C111 1.382 . S
C109 H113 0.950 . S
H110 C105 0.949 1_565 S
C111 C106 1.399 . S
C111 C109 1.382 . S
C111 H112 0.952 . S
H112 C111 0.952 . S
H113 C109 0.950 . S
H114 C115 0.949 . S
C115 H114 0.949 . S
C115 C116 1.395 . S
C115 C117 1.390 1_455 S
C116 C115 1.395 . S
C116 C119 1.390 . S
C117 C115 1.390 1_655 S
C117 C121 1.387 1_655 S
C117 C122 1.493 . S
H118 C119 0.950 . S
C119 C116 1.390 . S
C119 H118 0.950 . S
C119 C120 1.378 . S
C120 C119 1.378 . S
C120 C121 1.409 . S
C121 C117 1.387 1_455 S
C121 C120 1.409 . S
C121 H123 0.951 1_455 S
C122 C117 1.493 . S
C122 C124 1.382 1_655 S
C122 C126 1.404 . S
H123 C121 0.951 1_655 S
C124 C122 1.382 1_455 S
C124 C125 1.390 . S
C124 H129 0.949 . S
C125 C124 1.390 . S
C125 C130 1.399 1_455 S
C126 C122 1.404 . S
C126 H127 0.950 . S
C126 C128 1.375 . S
H127 C126 0.950 . S
C128 C126 1.375 . S
C128 C130 1.382 . S
C128 H132 0.950 . S
H129 C124 0.949 . S
C130 C125 1.399 1_655 S
C130 C128 1.382 . S
C130 H131 0.952 . S
H131 C130 0.952 . S
H132 C128 0.950 . S
H133 C134 0.949 . S
C134 H133 0.949 . S
C134 C135 1.398 . S
C134 C136 1.391 . S
C135 C134 1.398 . S
C135 C138 1.389 1_545 S
C136 C134 1.391 . S
C136 C140 1.387 . S
C136 C141 1.491 . S
H137 C138 0.950 . S
C138 C135 1.389 1_565 S
C138 H137 0.950 . S
C138 C139 1.378 1_565 S
C139 C138 1.378 1_545 S
C139 C140 1.409 . S
C140 C136 1.387 . S
C140 C139 1.409 . S
C140 H142 0.951 . S
C141 C136 1.491 . S
C141 C143 1.382 . S
C141 C145 1.404 . S
H142 C140 0.951 . S
C143 C141 1.382 . S
C143 C144 1.390 . S
C143 H148 0.949 1_545 S
C144 C143 1.390 . S
C144 C149 1.399 . S
C145 C141 1.404 . S
C145 H146 0.950 . S
C145 C147 1.375 . S
H146 C145 0.950 . S
C147 C145 1.375 . S
C147 C149 1.382 . S
C147 H151 0.950 . S
H148 C143 0.949 1_565 S
C149 C144 1.399 . S
C149 C147 1.382 . S
C149 H150 0.952 . S
H150 C149 0.952 . S
H151 C147 0.950 . S
H152 C153 0.949 . S
C153 H152 0.949 . S
C153 C154 1.395 . S
C153 C155 1.391 . S
C154 C153 1.395 . S
C154 C157 1.390 . S
C155 C153 1.391 . S
C155 C159 1.387 . S
C155 C160 1.491 . S
H156 C157 0.950 . S
C157 C154 1.390 . S
C157 H156 0.950 . S
C157 C158 1.378 . S
C158 C157 1.378 . S
C158 C159 1.409 . S
C159 C155 1.387 . S
C159 C158 1.409 . S
C159 H161 0.951 . S
C160 C155 1.491 . S
C160 C162 1.382 . S
C160 C164 1.404 . S
H161 C159 0.951 . S
C162 C160 1.382 . S
C162 C163 1.390 . S
C162 H167 0.949 1_554 S
C163 C162 1.390 . S
C163 C168 1.399 . S
C164 C160 1.404 . S
C164 H165 0.950 . S
C164 C166 1.375 . S
H165 C164 0.950 . S
C166 C164 1.375 . S
C166 C168 1.382 . S
C166 H170 0.950 . S
H167 C162 0.949 1_556 S
C168 C163 1.399 . S
C168 C166 1.382 . S
C168 H169 0.952 . S
H169 C168 0.952 . S
H170 C166 0.950 . S
H171 C172 0.949 . S
C172 H171 0.949 . S
C172 C173 1.395 . S
C172 C174 1.390 1_554 S
C173 C172 1.395 . S
C173 C176 1.390 . S
C174 C172 1.390 1_556 S
C174 C178 1.386 1_556 S
C174 C179 1.494 . S
H175 C176 0.950 . S
C176 C173 1.390 . S
C176 H175 0.950 . S
C176 C177 1.378 . S
C177 C176 1.378 . S
C177 C178 1.409 . S
C178 C174 1.386 1_554 S
C178 C177 1.409 . S
C178 H180 0.954 . S
C179 C174 1.494 . S
C179 C181 1.382 1_556 S
C179 C183 1.404 . S
H180 C178 0.954 . S
C181 C179 1.382 1_554 S
C181 C182 1.390 1_554 S
C181 H186 0.949 . S
C182 C181 1.390 1_556 S
C182 C187 1.399 . S
C183 C179 1.404 . S
C183 H184 0.950 . S
C183 C185 1.375 . S
H184 C183 0.950 . S
C185 C183 1.375 . S
C185 C187 1.382 . S
C185 H189 0.950 . S
H186 C181 0.949 . S
C187 C182 1.399 . S
C187 C185 1.382 . S
C187 H188 0.952 . S
H188 C187 0.952 . S
H189 C185 0.950 . S
H190 C191 0.949 . S
C191 H190 0.949 . S
C191 C192 1.395 . S
C191 C193 1.391 . S
C192 C191 1.395 . S
C192 C195 1.390 . S
C193 C191 1.391 . S
C193 C197 1.387 . S
C193 C198 1.491 . S
H194 C195 0.950 . S
C195 C192 1.390 . S
C195 H194 0.950 . S
C195 C196 1.378 . S
C196 C195 1.378 . S
C196 C197 1.409 . S
C197 C193 1.387 . S
C197 C196 1.409 . S
C197 H199 0.951 . S
C198 C193 1.491 . S
C198 C200 1.382 . S
C198 C202 1.404 . S
H199 C197 0.951 . S
C200 C198 1.382 . S
C200 C201 1.390 . S
C200 H205 0.949 1_554 S
C201 C200 1.390 . S
C201 C206 1.399 . S
C202 C198 1.404 . S
C202 H203 0.950 . S
C202 C204 1.375 . S
H203 C202 0.950 . S
C204 C202 1.375 . S
C204 C206 1.382 . S
C204 H208 0.950 . S
H205 C200 0.949 1_556 S
C206 C201 1.399 . S
C206 C204 1.382 . S
C206 H207 0.952 . S
H207 C206 0.952 . S
H208 C204 0.950 . S
H209 C210 0.949 . S
C210 H209 0.949 . S
C210 C211 1.395 . S
C210 C212 1.390 1_554 S
C211 C210 1.395 . S
C211 C214 1.390 . S
C212 C210 1.390 1_556 S
C212 C216 1.387 1_556 S
C212 C217 1.492 . S
H213 C214 0.950 . S
C214 C211 1.390 . S
C214 H213 0.950 . S
C214 C215 1.378 . S
C215 C214 1.378 . S
C215 C216 1.409 . S
C216 C212 1.387 1_554 S
C216 C215 1.409 . S
C216 H218 0.951 1_554 S
C217 C212 1.492 . S
C217 C219 1.382 1_556 S
C217 C221 1.404 . S
H218 C216 0.951 1_556 S
C219 C217 1.382 1_554 S
C219 C220 1.390 . S
C219 H224 0.949 . S
C220 C219 1.390 . S
C220 C225 1.399 1_554 S
C221 C217 1.404 . S
C221 H222 0.950 . S
C221 C223 1.375 . S
H222 C221 0.950 . S
C223 C221 1.375 . S
C223 C225 1.382 . S
C223 H227 0.950 . S
H224 C219 0.949 . S
C225 C220 1.399 1_556 S
C225 C223 1.382 . S
C225 H226 0.952 . S
H226 C225 0.952 . S
H227 C223 0.950 . S
H228 C229 0.949 . S
C229 H228 0.949 . S
C229 C230 1.395 . S
C229 C231 1.391 . S
C230 C229 1.395 . S
C230 C233 1.390 . S
C231 C229 1.391 . S
C231 C235 1.387 . S
C231 C236 1.491 . S
H232 C233 0.950 . S
C233 C230 1.390 . S
C233 H232 0.950 . S
C233 C234 1.378 . S
C234 C233 1.378 . S
C234 C235 1.409 . S
C235 C231 1.387 . S
C235 C234 1.409 . S
C235 H237 0.951 . S
C236 C231 1.491 . S
C236 C238 1.382 . S
C236 C240 1.404 . S
H237 C235 0.951 . S
C238 C236 1.382 . S
C238 C239 1.390 . S
C238 H243 0.949 . S
C239 C238 1.390 . S
C239 C244 1.399 . S
C240 C236 1.404 . S
C240 H241 0.950 . S
C240 C242 1.375 . S
H241 C240 0.950 . S
C242 C240 1.375 . S
C242 C244 1.382 . S
C242 H246 0.950 . S
H243 C238 0.949 . S
C244 C239 1.399 . S
C244 C242 1.382 . S
C244 H245 0.952 . S
H245 C244 0.952 . S
H246 C242 0.950 . S
H247 C248 0.949 . S
C248 H247 0.949 . S
C248 C249 1.395 . S
C248 C250 1.391 . S
C249 C248 1.395 . S
C249 C252 1.390 . S
C250 C248 1.391 . S
C250 C254 1.387 . S
C250 C255 1.491 . S
H251 C252 0.950 . S
C252 C249 1.390 . S
C252 H251 0.950 . S
C252 C253 1.378 . S
C253 C252 1.378 . S
C253 C254 1.409 . S
C254 C250 1.387 . S
C254 C253 1.409 . S
C254 H256 0.951 . S
C255 C250 1.491 . S
C255 C257 1.382 . S
C255 C259 1.404 . S
H256 C254 0.951 . S
C257 C255 1.382 . S
C257 C258 1.390 . S
C257 H262 0.949 . S
C258 C257 1.390 . S
C258 C263 1.399 . S
C259 C255 1.404 . S
C259 H260 0.950 . S
C259 C261 1.375 . S
H260 C259 0.950 . S
C261 C259 1.375 . S
C261 C263 1.382 . S
C261 H265 0.950 . S
H262 C257 0.949 . S
C263 C258 1.399 . S
C263 C261 1.382 . S
C263 H264 0.952 . S
H264 C263 0.952 . S
H265 C261 0.950 . S
H266 C267 0.949 . S
C267 H266 0.949 . S
C267 C268 1.395 . S
C267 C269 1.391 . S
C268 C267 1.395 . S
C268 C271 1.390 . S
C269 C267 1.391 . S
C269 C273 1.387 . S
C269 C274 1.491 . S
H270 C271 0.950 . S
C271 C268 1.390 . S
C271 H270 0.950 . S
C271 C272 1.378 . S
C272 C271 1.378 . S
C272 C273 1.409 . S
C273 C269 1.387 . S
C273 C272 1.409 . S
C273 H275 0.951 . S
C274 C269 1.491 . S
C274 C276 1.382 . S
C274 C278 1.404 . S
H275 C273 0.951 . S
C276 C274 1.382 . S
C276 C277 1.390 . S
C276 H281 0.949 . S
C277 C276 1.390 . S
C277 C282 1.399 . S
C278 C274 1.404 . S
C278 H279 0.950 . S
C278 C280 1.375 . S
H279 C278 0.950 . S
C280 C278 1.375 . S
C280 C282 1.382 . S
C280 H284 0.950 . S
H281 C276 0.949 . S
C282 C277 1.399 . S
C282 C280 1.382 . S
C282 H283 0.952 . S
H283 C282 0.952 . S
H284 C280 0.950 . S
H285 C286 0.949 . S
C286 H285 0.949 . S
C286 C287 1.395 . S
C286 C288 1.391 . S
C287 C286 1.395 . S
C287 C290 1.390 . S
C288 C286 1.391 . S
C288 C292 1.387 . S
C288 C293 1.491 . S
H289 C290 0.950 . S
C290 C287 1.390 . S
C290 H289 0.950 . S
C290 C291 1.378 . S
C291 C290 1.378 . S
C291 C292 1.409 . S
C292 C288 1.387 . S
C292 C291 1.409 . S
C292 H294 0.951 . S
C293 C288 1.491 . S
C293 C295 1.382 . S
C293 C297 1.404 . S
H294 C292 0.951 . S
C295 C293 1.382 . S
C295 C296 1.390 . S
C295 H300 0.949 . S
C296 C295 1.390 . S
C296 C301 1.399 . S
C297 C293 1.404 . S
C297 H298 0.950 . S
C297 C299 1.375 . S
H298 C297 0.950 . S
C299 C297 1.375 . S
C299 C301 1.382 . S
C299 H303 0.950 . S
H300 C295 0.949 . S
C301 C296 1.399 . S
C301 C299 1.382 . S
C301 H302 0.952 . S
H302 C301 0.952 . S
H303 C299 0.950 . S
H304 C305 0.949 . S
C305 H304 0.949 . S
C305 C306 1.395 . S
C305 C307 1.391 . S
C306 C305 1.395 . S
C306 C309 1.390 . S
C307 C305 1.391 . S
C307 C311 1.387 . S
C307 C312 1.491 . S
H308 C309 0.950 . S
C309 C306 1.390 . S
C309 H308 0.950 . S
C309 C310 1.378 . S
C310 C309 1.378 . S
C310 C311 1.409 . S
C311 C307 1.387 . S
C311 C310 1.409 . S
C311 H313 0.951 . S
C312 C307 1.491 . S
C312 C314 1.382 . S
C312 C316 1.404 . S
H313 C311 0.951 . S
C314 C312 1.382 . S
C314 C315 1.390 . S
C314 H319 0.949 . S
C315 C314 1.390 . S
C315 C320 1.399 . S
C316 C312 1.404 . S
C316 H317 0.950 . S
C316 C318 1.375 . S
H317 C316 0.950 . S
C318 C316 1.375 . S
C318 C320 1.382 . S
C318 H322 0.950 . S
H319 C314 0.949 . S
C320 C315 1.399 . S
C320 C318 1.382 . S
C320 H321 0.952 . S
H321 C320 0.952 . S
H322 C318 0.950 . S
H323 C324 0.949 . S
C324 H323 0.949 . S
C324 C325 1.395 . S
C324 C326 1.391 . S
C325 C324 1.395 . S
C325 C328 1.390 . S
C326 C324 1.391 . S
C326 C330 1.387 . S
C326 C331 1.491 . S
H327 C328 0.950 . S
C328 C325 1.390 . S
C328 H327 0.950 . S
C328 C329 1.378 . S
C329 C328 1.378 . S
C329 C330 1.409 . S
C330 C326 1.387 . S
C330 C329 1.409 . S
C330 H332 0.951 . S
C331 C326 1.491 . S
C331 C333 1.382 . S
C331 C335 1.404 . S
H332 C330 0.951 . S
C333 C331 1.382 . S
C333 C334 1.390 . S
C333 H338 0.949 . S
C334 C333 1.390 . S
C334 C339 1.399 . S
C335 C331 1.404 . S
C335 H336 0.950 . S
C335 C337 1.375 . S
H336 C335 0.950 . S
C337 C335 1.375 . S
C337 C339 1.382 . S
C337 H341 0.950 . S
H338 C333 0.949 . S
C339 C334 1.399 . S
C339 C337 1.382 . S
C339 H340 0.952 . S
H340 C339 0.952 . S
H341 C337 0.950 . S
H342 C343 0.949 . S
C343 H342 0.949 . S
C343 C344 1.395 . S
C343 C345 1.391 . S
C344 C343 1.395 . S
C344 C347 1.390 . S
C345 C343 1.391 . S
C345 C349 1.387 . S
C345 C350 1.491 . S
H346 C347 0.950 . S
C347 C344 1.390 . S
C347 H346 0.950 . S
C347 C348 1.378 . S
C348 C347 1.378 . S
C348 C349 1.409 . S
C349 C345 1.387 . S
C349 C348 1.409 . S
C349 H351 0.951 . S
C350 C345 1.491 . S
C350 C352 1.382 . S
C350 C354 1.404 . S
H351 C349 0.951 . S
C352 C350 1.382 . S
C352 C353 1.390 . S
C352 H357 0.949 . S
C353 C352 1.390 . S
C353 C358 1.399 . S
C354 C350 1.404 . S
C354 H355 0.950 . S
C354 C356 1.375 . S
H355 C354 0.950 . S
C356 C354 1.375 . S
C356 C358 1.382 . S
C356 H360 0.950 . S
H357 C352 0.949 . S
C358 C353 1.399 . S
C358 C356 1.382 . S
C358 H359 0.952 . S
H359 C358 0.952 . S
H360 C356 0.950 . S
H361 C362 0.949 . S
C362 H361 0.949 . S
C362 C363 1.395 . S
C362 C364 1.391 . S
C363 C362 1.395 . S
C363 C366 1.390 . S
C364 C362 1.391 . S
C364 C368 1.387 . S
C364 C369 1.491 . S
H365 C366 0.950 . S
C366 C363 1.390 . S
C366 H365 0.950 . S
C366 C367 1.378 . S
C367 C366 1.378 . S
C367 C368 1.409 . S
C368 C364 1.387 . S
C368 C367 1.409 . S
C368 H370 0.951 . S
C369 C364 1.491 . S
C369 C371 1.382 . S
C369 C373 1.404 . S
H370 C368 0.951 . S
C371 C369 1.382 . S
C371 C372 1.390 . S
C371 H376 0.949 . S
C372 C371 1.390 . S
C372 C377 1.399 . S
C373 C369 1.404 . S
C373 H374 0.950 . S
C373 C375 1.375 . S
H374 C373 0.950 . S
C375 C373 1.375 . S
C375 C377 1.382 . S
C375 H379 0.950 . S
H376 C371 0.949 . S
C377 C372 1.399 . S
C377 C375 1.382 . S
C377 H378 0.952 . S
H378 C377 0.952 . S
H379 C375 0.950 . S
H380 C381 0.949 . S
C381 H380 0.949 . S
C381 C382 1.395 . S
C381 C383 1.391 . S
C382 C381 1.395 . S
C382 C385 1.390 . S
C383 C381 1.391 . S
C383 C387 1.387 . S
C383 C388 1.491 . S
H384 C385 0.950 . S
C385 C382 1.390 . S
C385 H384 0.950 . S
C385 C386 1.378 . S
C386 C385 1.378 . S
C386 C387 1.409 . S
C387 C383 1.387 . S
C387 C386 1.409 . S
C387 H389 0.951 . S
C388 C383 1.491 . S
C388 C390 1.382 . S
C388 C392 1.404 . S
H389 C387 0.951 . S
C390 C388 1.382 . S
C390 C391 1.390 . S
C390 H395 0.949 . S
C391 C390 1.390 . S
C391 C396 1.399 . S
C392 C388 1.404 . S
C392 H393 0.950 . S
C392 C394 1.375 . S
H393 C392 0.950 . S
C394 C392 1.375 . S
C394 C396 1.382 . S
C394 H398 0.950 . S
H395 C390 0.949 . S
C396 C391 1.399 . S
C396 C394 1.382 . S
C396 H397 0.952 . S
H397 C396 0.952 . S
H398 C394 0.950 . S
H399 C400 0.949 . S
C400 H399 0.949 . S
C400 C401 1.395 . S
C400 C402 1.391 . S
C401 C400 1.395 . S
C401 C404 1.390 . S
C402 C400 1.391 . S
C402 C406 1.387 . S
C402 C407 1.491 . S
H403 C404 0.950 . S
C404 C401 1.390 . S
C404 H403 0.950 . S
C404 C405 1.378 . S
C405 C404 1.378 . S
C405 C406 1.409 . S
C406 C402 1.387 . S
C406 C405 1.409 . S
C406 H408 0.951 . S
C407 C402 1.491 . S
C407 C409 1.382 . S
C407 C411 1.404 . S
H408 C406 0.951 . S
C409 C407 1.382 . S
C409 C410 1.390 . S
C409 H414 0.949 . S
C410 C409 1.390 . S
C410 C415 1.399 . S
C411 C407 1.404 . S
C411 H412 0.950 . S
C411 C413 1.375 . S
H412 C411 0.950 . S
C413 C411 1.375 . S
C413 C415 1.382 . S
C413 H417 0.950 . S
H414 C409 0.949 . S
C415 C410 1.399 . S
C415 C413 1.382 . S
C415 H416 0.952 . S
H416 C415 0.952 . S
H417 C413 0.950 . S
H418 C419 0.949 . S
C419 H418 0.949 . S
C419 C420 1.395 . S
C419 C421 1.391 . S
C420 C419 1.395 . S
C420 C423 1.390 . S
C421 C419 1.391 . S
C421 C425 1.387 . S
C421 C426 1.491 . S
H422 C423 0.950 . S
C423 C420 1.390 . S
C423 H422 0.950 . S
C423 C424 1.378 . S
C424 C423 1.378 . S
C424 C425 1.409 . S
C425 C421 1.387 . S
C425 C424 1.409 . S
C425 H427 0.951 . S
C426 C421 1.491 . S
C426 C428 1.382 . S
C426 C430 1.404 . S
H427 C425 0.951 . S
C428 C426 1.382 . S
C428 C429 1.390 . S
C428 H433 0.949 . S
C429 C428 1.390 . S
C429 C434 1.399 . S
C430 C426 1.404 . S
C430 H431 0.950 . S
C430 C432 1.375 . S
H431 C430 0.950 . S
C432 C430 1.375 . S
C432 C434 1.382 . S
C432 H436 0.950 . S
H433 C428 0.949 . S
C434 C429 1.399 . S
C434 C432 1.382 . S
C434 H435 0.952 . S
H435 C434 0.952 . S
H436 C432 0.950 . S
H437 C438 0.949 . S
C438 H437 0.949 . S
C438 C439 1.395 . S
C438 C440 1.391 . S
C439 C438 1.395 . S
C439 C442 1.390 . S
C440 C438 1.391 . S
C440 C444 1.387 . S
C440 C445 1.491 . S
H441 C442 0.950 . S
C442 C439 1.390 . S
C442 H441 0.950 . S
C442 C443 1.378 . S
C443 C442 1.378 . S
C443 C444 1.409 . S
C444 C440 1.387 . S
C444 C443 1.409 . S
C444 H446 0.951 . S
C445 C440 1.491 . S
C445 C447 1.382 . S
C445 C449 1.404 . S
H446 C444 0.951 . S
C447 C445 1.382 . S
C447 C448 1.390 . S
C447 H452 0.949 . S
C448 C447 1.390 . S
C448 C453 1.399 . S
C449 C445 1.404 . S
C449 H450 0.950 . S
C449 C451 1.375 . S
H450 C449 0.950 . S
C451 C449 1.375 . S
C451 C453 1.382 . S
C451 H455 0.950 . S
H452 C447 0.949 . S
C453 C448 1.399 . S
C453 C451 1.382 . S
C453 H454 0.952 . S
H454 C453 0.952 . S
H455 C451 0.950 . S
C456 O482 1.283 . S
C456 O500 1.283 . S
C457 O483 1.283 . S
C457 O498 1.283 . S
C458 O484 1.283 . S
C458 O501 1.283 . S
C459 O485 1.283 . S
C459 O499 1.283 . S
C460 O486 1.283 . S
C460 O495 1.283 . S
C461 O487 1.283 . S
C461 O497 1.283 . S
C462 O488 1.283 . S
C462 O494 1.283 . S
C463 O489 1.283 . S
C463 O496 1.283 . S
C464 O490 1.283 . S
C464 O505 1.283 . S
C465 O491 1.283 . S
C465 O503 1.283 . S
C466 O492 1.283 . S
C466 O504 1.283 . S
C467 O493 1.283 . S
C467 O502 1.283 . S
Eu468 O469 2.370 1_455 S
Eu468 O470 2.370 . S
Eu468 O473 2.370 1_455 S
Eu468 O474 2.370 . S
Eu468 O482 2.363 . S
Eu468 O483 2.363 . S
Eu468 O496 2.363 . S
Eu468 O497 2.363 1_455 S
O469 Eu468 2.370 1_655 S
O469 Eu471 2.359 1_565 S
O469 Eu476 2.359 1_665 S
O470 Eu468 2.370 . S
O470 Eu472 2.359 1_565 S
O470 Eu475 2.359 1_565 S
Eu471 O469 2.359 1_545 S
Eu471 O473 2.359 1_545 S
Eu471 O477 2.381 . S
Eu471 O478 2.381 . S
Eu471 O486 2.382 . S
Eu471 O487 2.344 1_545 S
Eu471 O502 2.363 . S
Eu471 O503 2.363 . S
Eu472 O470 2.359 1_545 S
Eu472 O474 2.359 1_545 S
Eu472 O479 2.381 . S
Eu472 O480 2.381 . S
Eu472 O488 2.382 . S
Eu472 O489 2.344 1_545 S
Eu472 O504 2.363 . S
Eu472 O505 2.363 . S
O473 Eu468 2.370 1_655 S
O473 Eu471 2.359 1_565 S
O473 Eu475 2.359 1_665 S
O474 Eu468 2.370 . S
O474 Eu472 2.359 1_565 S
O474 Eu476 2.359 1_565 S
Eu475 O470 2.359 1_545 S
Eu475 O473 2.359 1_445 S
Eu475 O477 2.381 1_455 S
Eu475 O480 2.381 . S
Eu475 O492 2.363 . S
Eu475 O493 2.363 1_455 S
Eu475 O500 2.344 1_545 S
Eu475 O501 2.381 . S
Eu476 O469 2.359 1_445 S
Eu476 O474 2.359 1_545 S
Eu476 O478 2.382 1_455 S
Eu476 O479 2.382 . S
Eu476 O490 2.363 . S
Eu476 O491 2.363 1_455 S
Eu476 O498 2.344 1_545 S
Eu476 O499 2.382 . S
O477 Eu471 2.381 . S
O477 Eu475 2.381 1_655 S
O477 Eu481 2.370 1_655 S
O478 Eu471 2.381 . S
O478 Eu476 2.382 1_655 S
O478 Eu481 2.370 1_655 S
O479 Eu472 2.381 . S
O479 Eu476 2.382 . S
O479 Eu481 2.370 . S
O480 Eu472 2.381 . S
O480 Eu475 2.381 . S
O480 Eu481 2.370 . S
Eu481 O477 2.370 1_455 S
Eu481 O478 2.370 1_455 S
Eu481 O479 2.370 . S
Eu481 O480 2.370 . S
Eu481 O484 2.363 . S
Eu481 O485 2.363 . S
Eu481 O494 2.363 . S
Eu481 O495 2.363 1_455 S
O482 C456 1.283 . S
O482 Eu468 2.363 . S
O483 C457 1.283 . S
O483 Eu468 2.363 . S
O484 C458 1.283 . S
O484 Eu481 2.363 . S
O485 C459 1.283 . S
O485 Eu481 2.363 . S
O486 C460 1.283 . S
O486 Eu471 2.382 . S
O487 C461 1.283 . S
O487 Eu471 2.344 1_565 S
O488 C462 1.283 . S
O488 Eu472 2.382 . S
O489 C463 1.283 . S
O489 Eu472 2.344 1_565 S
O490 C464 1.283 . S
O490 Eu476 2.363 . S
O491 C465 1.283 . S
O491 Eu476 2.363 1_655 S
O492 C466 1.283 . S
O492 Eu475 2.363 . S
O493 C467 1.283 . S
O493 Eu475 2.363 1_655 S
O494 C462 1.283 . S
O494 Eu481 2.363 . S
O495 C460 1.283 . S
O495 Eu481 2.363 1_655 S
O496 C463 1.283 . S
O496 Eu468 2.363 . S
O497 C461 1.283 . S
O497 Eu468 2.363 1_655 S
O498 C457 1.283 . S
O498 Eu476 2.344 1_565 S
O499 C459 1.283 . S
O499 Eu476 2.382 . S
O500 C456 1.283 . S
O500 Eu475 2.344 1_565 S
O501 C458 1.283 . S
O501 Eu475 2.381 . S
O502 C467 1.283 . S
O502 Eu471 2.363 . S
O503 C465 1.283 . S
O503 Eu471 2.363 . S
O504 C466 1.283 . S
O504 Eu472 2.363 . S
O505 C464 1.283 . S
O505 Eu472 2.363 . S
C506 O532 1.283 . S
C506 O550 1.283 . S
C507 O533 1.283 . S
C507 O548 1.283 . S
C508 O534 1.283 . S
C508 O551 1.283 . S
C509 O535 1.283 . S
C509 O549 1.283 . S
C510 O536 1.283 . S
C510 O545 1.283 . S
C511 O537 1.283 . S
C511 O547 1.283 . S
C512 O538 1.283 . S
C512 O544 1.283 . S
C513 O539 1.283 . S
C513 O546 1.283 . S
C514 O540 1.283 . S
C514 O555 1.283 . S
C515 O541 1.283 . S
C515 O553 1.283 . S
C516 O542 1.283 . S
C516 O554 1.283 . S
C517 O543 1.283 . S
C517 O552 1.283 . S
Eu518 O519 2.388 . S
Eu518 O520 2.352 1_545 S
Eu518 O523 2.352 1_545 S
Eu518 O524 2.388 . S
Eu518 O532 2.333 1_545 S
Eu518 O533 2.393 . S
Eu518 O546 2.363 . S
Eu518 O547 2.363 . S
O519 Eu518 2.388 . S
O519 Eu521 2.381 . S
O519 Eu526 2.370 . S
O520 Eu518 2.352 1_565 S
O520 Eu522 2.359 1_565 S
O520 Eu525 2.370 . S
Eu521 O519 2.381 . S
Eu521 O523 2.360 1_545 S
Eu521 O527 2.360 1_544 S
Eu521 O528 2.381 1_554 S
Eu521 O536 2.363 1_554 S
Eu521 O537 2.363 . S
Eu521 O552 2.345 1_545 S
Eu521 O553 2.381 . S
Eu522 O520 2.359 1_545 S
Eu522 O524 2.381 . S
Eu522 O529 2.381 1_554 S
Eu522 O530 2.359 1_544 S
Eu522 O538 2.363 1_554 S
Eu522 O539 2.363 . S
Eu522 O554 2.345 1_545 S
Eu522 O555 2.381 . S
O523 Eu518 2.352 1_565 S
O523 Eu521 2.360 1_565 S
O523 Eu525 2.370 . S
O524 Eu518 2.388 . S
O524 Eu522 2.381 . S
O524 Eu526 2.370 . S
Eu525 O520 2.370 . S
Eu525 O523 2.370 . S
Eu525 O527 2.370 1_554 S
Eu525 O530 2.370 1_554 S
Eu525 O542 2.363 . S
Eu525 O543 2.363 . S
Eu525 O550 2.363 . S
Eu525 O551 2.363 1_554 S
Eu526 O519 2.370 . S
Eu526 O524 2.370 . S
Eu526 O528 2.370 1_554 S
Eu526 O529 2.370 1_554 S
Eu526 O540 2.363 . S
Eu526 O541 2.363 . S
Eu526 O548 2.363 . S
Eu526 O549 2.363 1_554 S
O527 Eu521 2.360 1_566 S
O527 Eu525 2.370 1_556 S
O527 Eu531 2.367 1_565 S
O528 Eu521 2.381 1_556 S
O528 Eu526 2.370 1_556 S
O528 Eu531 2.373 . S
O529 Eu522 2.381 1_556 S
O529 Eu526 2.370 1_556 S
O529 Eu531 2.373 . S
O530 Eu522 2.359 1_566 S
O530 Eu525 2.370 1_556 S
O530 Eu531 2.367 1_565 S
Eu531 O527 2.367 1_545 S
Eu531 O528 2.373 . S
Eu531 O529 2.373 . S
Eu531 O530 2.367 1_545 S
Eu531 O534 2.357 1_545 S
Eu531 O535 2.369 . S
Eu531 O544 2.363 . S
Eu531 O545 2.363 . S
O532 C506 1.283 . S
O532 Eu518 2.333 1_565 S
O533 C507 1.283 . S
O533 Eu518 2.393 . S
O534 C508 1.283 . S
O534 Eu531 2.357 1_565 S
O535 C509 1.283 . S
O535 Eu531 2.369 . S
O536 C510 1.283 . S
O536 Eu521 2.363 1_556 S
O537 C511 1.283 . S
O537 Eu521 2.363 . S
O538 C512 1.283 . S
O538 Eu522 2.363 1_556 S
O539 C513 1.283 . S
O539 Eu522 2.363 . S
O540 C514 1.283 . S
O540 Eu526 2.363 . S
O541 C515 1.283 . S
O541 Eu526 2.363 . S
O542 C516 1.283 . S
O542 Eu525 2.363 . S
O543 C517 1.283 . S
O543 Eu525 2.363 . S
O544 C512 1.283 . S
O544 Eu531 2.363 . S
O545 C510 1.283 . S
O545 Eu531 2.363 . S
O546 C513 1.283 . S
O546 Eu518 2.363 . S
O547 C511 1.283 . S
O547 Eu518 2.363 . S
O548 C507 1.283 . S
O548 Eu526 2.363 . S
O549 C509 1.283 . S
O549 Eu526 2.363 1_556 S
O550 C506 1.283 . S
O550 Eu525 2.363 . S
O551 C508 1.283 . S
O551 Eu525 2.363 1_556 S
O552 C517 1.283 . S
O552 Eu521 2.345 1_565 S
O553 C515 1.283 . S
O553 Eu521 2.381 . S
O554 C516 1.283 . S
O554 Eu522 2.345 1_565 S
O555 C514 1.283 . S
O555 Eu522 2.381 . S
C556 O582 1.283 . S
C556 O600 1.283 . S
C557 O583 1.283 . S
C557 O598 1.283 . S
C558 O584 1.283 . S
C558 O601 1.283 . S
C559 O585 1.283 . S
C559 O599 1.283 . S
C560 O586 1.283 . S
C560 O595 1.283 . S
C561 O587 1.283 . S
C561 O597 1.283 . S
C562 O588 1.283 . S
C562 O594 1.283 . S
C563 O589 1.283 . S
C563 O596 1.283 . S
C564 O590 1.283 . S
C564 O605 1.283 . S
C565 O591 1.283 . S
C565 O603 1.283 . S
C566 O592 1.283 . S
C566 O604 1.283 . S
C567 O593 1.283 . S
C567 O602 1.283 . S
Eu568 O569 2.370 1_454 S
Eu568 O570 2.370 . S
Eu568 O573 2.370 1_455 S
Eu568 O574 2.370 1_554 S
Eu568 O582 2.363 . S
Eu568 O583 2.363 1_554 S
Eu568 O596 2.363 . S
Eu568 O597 2.363 1_455 S
O569 Eu568 2.370 1_656 S
O569 Eu571 2.370 1_556 S
O569 Eu576 2.370 1_655 S
O570 Eu568 2.370 . S
O570 Eu572 2.370 . S
O570 Eu575 2.370 . S
Eu571 O569 2.370 1_554 S
Eu571 O573 2.370 . S
Eu571 O577 2.370 . S
Eu571 O578 2.370 1_554 S
Eu571 O586 2.363 . S
Eu571 O587 2.363 . S
Eu571 O602 2.363 . S
Eu571 O603 2.363 1_554 S
Eu572 O570 2.370 . S
Eu572 O574 2.370 1_554 S
Eu572 O579 2.370 1_554 S
Eu572 O580 2.370 . S
Eu572 O588 2.363 . S
Eu572 O589 2.363 . S
Eu572 O604 2.363 . S
Eu572 O605 2.363 1_554 S
O573 Eu568 2.370 1_655 S
O573 Eu571 2.370 . S
O573 Eu575 2.370 1_655 S
O574 Eu568 2.370 1_556 S
O574 Eu572 2.370 1_556 S
O574 Eu576 2.370 . S
Eu575 O570 2.370 . S
Eu575 O573 2.370 1_455 S
Eu575 O577 2.370 1_455 S
Eu575 O580 2.370 . S
Eu575 O592 2.363 . S
Eu575 O593 2.363 1_455 S
Eu575 O600 2.363 . S
Eu575 O601 2.363 . S
Eu576 O569 2.370 1_455 S
Eu576 O574 2.370 . S
Eu576 O578 2.370 1_455 S
Eu576 O579 2.370 . S
Eu576 O590 2.363 . S
Eu576 O591 2.363 1_455 S
Eu576 O598 2.363 . S
Eu576 O599 2.363 . S
O577 Eu571 2.370 . S
O577 Eu575 2.370 1_655 S
O577 Eu581 2.370 1_655 S
O578 Eu571 2.370 1_556 S
O578 Eu576 2.370 1_655 S
O578 Eu581 2.370 1_656 S
O579 Eu572 2.370 1_556 S
O579 Eu576 2.370 . S
O579 Eu581 2.370 1_556 S
O580 Eu572 2.370 . S
O580 Eu575 2.370 . S
O580 Eu581 2.370 . S
Eu581 O577 2.370 1_455 S
Eu581 O578 2.370 1_454 S
Eu581 O579 2.370 1_554 S
Eu581 O580 2.370 . S
Eu581 O584 2.363 . S
Eu581 O585 2.363 1_554 S
Eu581 O594 2.363 . S
Eu581 O595 2.363 1_455 S
O582 C556 1.283 . S
O582 Eu568 2.363 . S
O583 C557 1.283 . S
O583 Eu568 2.363 1_556 S
O584 C558 1.283 . S
O584 Eu581 2.363 . S
O585 C559 1.283 . S
O585 Eu581 2.363 1_556 S
O586 C560 1.283 . S
O586 Eu571 2.363 . S
O587 C561 1.283 . S
O587 Eu571 2.363 . S
O588 C562 1.283 . S
O588 Eu572 2.363 . S
O589 C563 1.283 . S
O589 Eu572 2.363 . S
O590 C564 1.283 . S
O590 Eu576 2.363 . S
O591 C565 1.283 . S
O591 Eu576 2.363 1_655 S
O592 C566 1.283 . S
O592 Eu575 2.363 . S
O593 C567 1.283 . S
O593 Eu575 2.363 1_655 S
O594 C562 1.283 . S
O594 Eu581 2.363 . S
O595 C560 1.283 . S
O595 Eu581 2.363 1_655 S
O596 C563 1.283 . S
O596 Eu568 2.363 . S
O597 C561 1.283 . S
O597 Eu568 2.363 1_655 S
O598 C557 1.283 . S
O598 Eu576 2.363 . S
O599 C559 1.283 . S
O599 Eu576 2.363 . S
O600 C556 1.283 . S
O600 Eu575 2.363 . S
O601 C558 1.283 . S
O601 Eu575 2.363 . S
O602 C567 1.283 . S
O602 Eu571 2.363 . S
O603 C565 1.283 . S
O603 Eu571 2.363 1_556 S
O604 C566 1.283 . S
O604 Eu572 2.363 . S
O605 C564 1.283 . S
O605 Eu572 2.363 1_556 S
C606 O632 1.283 . S
C606 O650 1.283 . S
C607 O633 1.283 . S
C607 O648 1.283 . S
C608 O634 1.283 . S
C608 O651 1.283 . S
C609 O635 1.283 . S
C609 O649 1.283 . S
C610 O636 1.283 . S
C610 O645 1.283 . S
C611 O637 1.283 . S
C611 O647 1.283 . S
C612 O638 1.283 . S
C612 O644 1.283 . S
C613 O639 1.283 . S
C613 O646 1.283 . S
C614 O640 1.283 . S
C614 O655 1.283 . S
C615 O641 1.283 . S
C615 O653 1.283 . S
C616 O642 1.283 . S
C616 O654 1.283 . S
C617 O643 1.283 . S
C617 O652 1.283 . S
Eu618 O619 2.370 . S
Eu618 O620 2.370 . S
Eu618 O623 2.370 . S
Eu618 O624 2.370 . S
Eu618 O632 2.363 . S
Eu618 O633 2.363 . S
Eu618 O646 2.363 . S
Eu618 O647 2.363 . S
O619 Eu618 2.370 . S
O619 Eu621 2.370 . S
O619 Eu626 2.370 . S
O620 Eu618 2.370 . S
O620 Eu622 2.370 . S
O620 Eu625 2.370 . S
Eu621 O619 2.370 . S
Eu621 O623 2.370 . S
Eu621 O627 2.370 1_554 S
Eu621 O628 2.370 1_554 S
Eu621 O636 2.363 1_554 S
Eu621 O637 2.363 . S
Eu621 O652 2.363 . S
Eu621 O653 2.363 . S
Eu622 O620 2.370 . S
Eu622 O624 2.370 . S
Eu622 O629 2.370 1_554 S
Eu622 O630 2.370 1_554 S
Eu622 O638 2.363 1_554 S
Eu622 O639 2.363 . S
Eu622 O654 2.363 . S
Eu622 O655 2.363 . S
O623 Eu618 2.370 . S
O623 Eu621 2.370 . S
O623 Eu625 2.370 . S
O624 Eu618 2.370 . S
O624 Eu622 2.370 . S
O624 Eu626 2.370 . S
Eu625 O620 2.370 . S
Eu625 O623 2.370 . S
Eu625 O627 2.370 1_554 S
Eu625 O630 2.370 1_554 S
Eu625 O642 2.363 . S
Eu625 O643 2.363 . S
Eu625 O650 2.363 . S
Eu625 O651 2.363 1_554 S
Eu626 O619 2.370 . S
Eu626 O624 2.370 . S
Eu626 O628 2.370 1_554 S
Eu626 O629 2.370 1_554 S
Eu626 O640 2.363 . S
Eu626 O641 2.363 . S
Eu626 O648 2.363 . S
Eu626 O649 2.363 1_554 S
O627 Eu621 2.370 1_556 S
O627 Eu625 2.370 1_556 S
O627 Eu631 2.370 . S
O628 Eu621 2.370 1_556 S
O628 Eu626 2.370 1_556 S
O628 Eu631 2.370 . S
O629 Eu622 2.370 1_556 S
O629 Eu626 2.370 1_556 S
O629 Eu631 2.370 . S
O630 Eu622 2.370 1_556 S
O630 Eu625 2.370 1_556 S
O630 Eu631 2.370 . S
Eu631 O627 2.370 . S
Eu631 O628 2.370 . S
Eu631 O629 2.370 . S
Eu631 O630 2.370 . S
Eu631 O634 2.363 . S
Eu631 O635 2.363 . S
Eu631 O644 2.363 . S
Eu631 O645 2.363 . S
O632 C606 1.283 . S
O632 Eu618 2.363 . S
O633 C607 1.283 . S
O633 Eu618 2.363 . S
O634 C608 1.283 . S
O634 Eu631 2.363 . S
O635 C609 1.283 . S
O635 Eu631 2.363 . S
O636 C610 1.283 . S
O636 Eu621 2.363 1_556 S
O637 C611 1.283 . S
O637 Eu621 2.363 . S
O638 C612 1.283 . S
O638 Eu622 2.363 1_556 S
O639 C613 1.283 . S
O639 Eu622 2.363 . S
O640 C614 1.283 . S
O640 Eu626 2.363 . S
O641 C615 1.283 . S
O641 Eu626 2.363 . S
O642 C616 1.283 . S
O642 Eu625 2.363 . S
O643 C617 1.283 . S
O643 Eu625 2.363 . S
O644 C612 1.283 . S
O644 Eu631 2.363 . S
O645 C610 1.283 . S
O645 Eu631 2.363 . S
O646 C613 1.283 . S
O646 Eu618 2.363 . S
O647 C611 1.283 . S
O647 Eu618 2.363 . S
O648 C607 1.283 . S
O648 Eu626 2.363 . S
O649 C609 1.283 . S
O649 Eu626 2.363 1_556 S
O650 C606 1.283 . S
O650 Eu625 2.363 . S
O651 C608 1.283 . S
O651 Eu625 2.363 1_556 S
O652 C617 1.283 . S
O652 Eu621 2.363 . S
O653 C615 1.283 . S
O653 Eu621 2.363 . S
O654 C616 1.283 . S
O654 Eu622 2.363 . S
O655 C614 1.283 . S
O655 Eu622 2.363 . S
C656 O682 1.283 . S
C656 O700 1.283 . S
C657 O683 1.283 . S
C657 O698 1.283 . S
C658 O684 1.283 . S
C658 O701 1.283 . S
C659 O685 1.283 . S
C659 O699 1.283 . S
C660 O686 1.283 . S
C660 O695 1.283 . S
C661 O687 1.283 . S
C661 O697 1.283 . S
C662 O688 1.283 . S
C662 O694 1.283 . S
C663 O689 1.283 . S
C663 O696 1.283 . S
C664 O690 1.283 . S
C664 O705 1.283 . S
C665 O691 1.283 . S
C665 O703 1.283 . S
C666 O692 1.283 . S
C666 O704 1.283 . S
C667 O693 1.283 . S
C667 O702 1.283 . S
Eu668 O669 2.370 1_455 S
Eu668 O670 2.370 . S
Eu668 O673 2.370 1_455 S
Eu668 O674 2.370 . S
Eu668 O682 2.363 . S
Eu668 O683 2.363 . S
Eu668 O696 2.363 . S
Eu668 O697 2.363 1_455 S
O669 Eu668 2.370 1_655 S
O669 Eu671 2.370 . S
O669 Eu676 2.370 1_655 S
O670 Eu668 2.370 . S
O670 Eu672 2.370 . S
O670 Eu675 2.370 . S
Eu671 O669 2.370 . S
Eu671 O673 2.370 . S
Eu671 O677 2.370 . S
Eu671 O678 2.370 . S
Eu671 O686 2.363 . S
Eu671 O687 2.363 . S
Eu671 O702 2.363 . S
Eu671 O703 2.363 . S
Eu672 O670 2.370 . S
Eu672 O674 2.370 . S
Eu672 O679 2.370 . S
Eu672 O680 2.370 . S
Eu672 O688 2.363 . S
Eu672 O689 2.363 . S
Eu672 O704 2.363 . S
Eu672 O705 2.363 . S
O673 Eu668 2.370 1_655 S
O673 Eu671 2.370 . S
O673 Eu675 2.370 1_655 S
O674 Eu668 2.370 . S
O674 Eu672 2.370 . S
O674 Eu676 2.370 . S
Eu675 O670 2.370 . S
Eu675 O673 2.370 1_455 S
Eu675 O677 2.370 1_455 S
Eu675 O680 2.370 . S
Eu675 O692 2.363 . S
Eu675 O693 2.363 1_455 S
Eu675 O700 2.363 . S
Eu675 O701 2.363 . S
Eu676 O669 2.370 1_455 S
Eu676 O674 2.370 . S
Eu676 O678 2.370 1_455 S
Eu676 O679 2.370 . S
Eu676 O690 2.363 . S
Eu676 O691 2.363 1_455 S
Eu676 O698 2.363 . S
Eu676 O699 2.363 . S
O677 Eu671 2.370 . S
O677 Eu675 2.370 1_655 S
O677 Eu681 2.370 1_655 S
O678 Eu671 2.370 . S
O678 Eu676 2.370 1_655 S
O678 Eu681 2.370 1_655 S
O679 Eu672 2.370 . S
O679 Eu676 2.370 . S
O679 Eu681 2.370 . S
O680 Eu672 2.370 . S
O680 Eu675 2.370 . S
O680 Eu681 2.370 . S
Eu681 O677 2.370 1_455 S
Eu681 O678 2.370 1_455 S
Eu681 O679 2.370 . S
Eu681 O680 2.370 . S
Eu681 O684 2.363 . S
Eu681 O685 2.363 . S
Eu681 O694 2.363 . S
Eu681 O695 2.363 1_455 S
O682 C656 1.283 . S
O682 Eu668 2.363 . S
O683 C657 1.283 . S
O683 Eu668 2.363 . S
O684 C658 1.283 . S
O684 Eu681 2.363 . S
O685 C659 1.283 . S
O685 Eu681 2.363 . S
O686 C660 1.283 . S
O686 Eu671 2.363 . S
O687 C661 1.283 . S
O687 Eu671 2.363 . S
O688 C662 1.283 . S
O688 Eu672 2.363 . S
O689 C663 1.283 . S
O689 Eu672 2.363 . S
O690 C664 1.283 . S
O690 Eu676 2.363 . S
O691 C665 1.283 . S
O691 Eu676 2.363 1_655 S
O692 C666 1.283 . S
O692 Eu675 2.363 . S
O693 C667 1.283 . S
O693 Eu675 2.363 1_655 S
O694 C662 1.283 . S
O694 Eu681 2.363 . S
O695 C660 1.283 . S
O695 Eu681 2.363 1_655 S
O696 C663 1.283 . S
O696 Eu668 2.363 . S
O697 C661 1.283 . S
O697 Eu668 2.363 1_655 S
O698 C657 1.283 . S
O698 Eu676 2.363 . S
O699 C659 1.283 . S
O699 Eu676 2.363 . S
O700 C656 1.283 . S
O700 Eu675 2.363 . S
O701 C658 1.283 . S
O701 Eu675 2.363 . S
O702 C667 1.283 . S
O702 Eu671 2.363 . S
O703 C665 1.283 . S
O703 Eu671 2.363 . S
O704 C666 1.283 . S
O704 Eu672 2.363 . S
O705 C664 1.283 . S
O705 Eu672 2.363 . S
C706 O732 1.283 . S
C706 O750 1.283 . S
C707 O733 1.283 . S
C707 O748 1.283 . S
C708 O734 1.283 . S
C708 O751 1.283 . S
C709 O735 1.283 . S
C709 O749 1.283 . S
C710 O736 1.283 . S
C710 O745 1.283 . S
C711 O737 1.283 . S
C711 O747 1.283 . S
C712 O738 1.283 . S
C712 O744 1.283 . S
C713 O739 1.283 . S
C713 O746 1.283 . S
C714 O740 1.283 . S
C714 O755 1.283 . S
C715 O741 1.283 . S
C715 O753 1.283 . S
C716 O742 1.283 . S
C716 O754 1.283 . S
C717 O743 1.283 . S
C717 O752 1.283 . S
Eu718 O719 2.370 . S
Eu718 O720 2.370 . S
Eu718 O723 2.370 . S
Eu718 O724 2.370 . S
Eu718 O732 2.363 . S
Eu718 O733 2.363 . S
Eu718 O746 2.363 . S
Eu718 O747 2.363 . S
O719 Eu718 2.370 . S
O719 Eu721 2.360 1_565 S
O719 Eu726 2.360 1_565 S
O720 Eu718 2.370 . S
O720 Eu722 2.360 1_565 S
O720 Eu725 2.360 1_565 S
Eu721 O719 2.360 1_545 S
Eu721 O723 2.360 1_545 S
Eu721 O727 2.380 . S
Eu721 O728 2.380 . S
Eu721 O736 2.380 . S
Eu721 O737 2.346 1_545 S
Eu721 O752 2.363 . S
Eu721 O753 2.363 . S
Eu722 O720 2.360 1_545 S
Eu722 O724 2.360 1_545 S
Eu722 O729 2.380 . S
Eu722 O730 2.380 . S
Eu722 O738 2.380 . S
Eu722 O739 2.346 1_545 S
Eu722 O754 2.363 . S
Eu722 O755 2.363 . S
O723 Eu718 2.370 . S
O723 Eu721 2.360 1_565 S
O723 Eu725 2.360 1_565 S
O724 Eu718 2.370 . S
O724 Eu722 2.360 1_565 S
O724 Eu726 2.360 1_565 S
Eu725 O720 2.360 1_545 S
Eu725 O723 2.360 1_545 S
Eu725 O727 2.380 . S
Eu725 O730 2.380 . S
Eu725 O742 2.363 . S
Eu725 O743 2.363 . S
Eu725 O750 2.346 1_545 S
Eu725 O751 2.380 . S
Eu726 O719 2.360 1_545 S
Eu726 O724 2.360 1_545 S
Eu726 O728 2.380 . S
Eu726 O729 2.380 . S
Eu726 O740 2.363 . S
Eu726 O741 2.363 . S
Eu726 O748 2.346 1_545 S
Eu726 O749 2.380 . S
O727 Eu721 2.380 . S
O727 Eu725 2.380 . S
O727 Eu731 2.370 . S
O728 Eu721 2.380 . S
O728 Eu726 2.380 . S
O728 Eu731 2.370 . S
O729 Eu722 2.380 . S
O729 Eu726 2.380 . S
O729 Eu731 2.370 . S
O730 Eu722 2.380 . S
O730 Eu725 2.380 . S
O730 Eu731 2.370 . S
Eu731 O727 2.370 . S
Eu731 O728 2.370 . S
Eu731 O729 2.370 . S
Eu731 O730 2.370 . S
Eu731 O734 2.363 . S
Eu731 O735 2.363 . S
Eu731 O744 2.363 . S
Eu731 O745 2.363 . S
O732 C706 1.283 . S
O732 Eu718 2.363 . S
O733 C707 1.283 . S
O733 Eu718 2.363 . S
O734 C708 1.283 . S
O734 Eu731 2.363 . S
O735 C709 1.283 . S
O735 Eu731 2.363 . S
O736 C710 1.283 . S
O736 Eu721 2.380 . S
O737 C711 1.283 . S
O737 Eu721 2.346 1_565 S
O738 C712 1.283 . S
O738 Eu722 2.380 . S
O739 C713 1.283 . S
O739 Eu722 2.346 1_565 S
O740 C714 1.283 . S
O740 Eu726 2.363 . S
O741 C715 1.283 . S
O741 Eu726 2.363 . S
O742 C716 1.283 . S
O742 Eu725 2.363 . S
O743 C717 1.283 . S
O743 Eu725 2.363 . S
O744 C712 1.283 . S
O744 Eu731 2.363 . S
O745 C710 1.283 . S
O745 Eu731 2.363 . S
O746 C713 1.283 . S
O746 Eu718 2.363 . S
O747 C711 1.283 . S
O747 Eu718 2.363 . S
O748 C707 1.283 . S
O748 Eu726 2.346 1_565 S
O749 C709 1.283 . S
O749 Eu726 2.380 . S
O750 C706 1.283 . S
O750 Eu725 2.346 1_565 S
O751 C708 1.283 . S
O751 Eu725 2.380 . S
O752 C717 1.283 . S
O752 Eu721 2.363 . S
O753 C715 1.283 . S
O753 Eu721 2.363 . S
O754 C716 1.283 . S
O754 Eu722 2.363 . S
O755 C714 1.283 . S
O755 Eu722 2.363 . S
C756 C757 1.363 . S
C756 C762 1.379 . S
C756 N764 1.356 . S
C757 C756 1.363 . S
C757 C763 1.363 . S
C758 C759 1.363 . S
C758 C763 1.379 . S
C758 N765 1.356 . S
C759 C758 1.363 . S
C759 C762 1.363 . S
N760 C762 1.356 . S
N760 H772 0.984 . S
N760 H773 0.985 . S
N761 C763 1.356 . S
N761 H766 0.984 . S
N761 H767 0.985 . S
C762 C756 1.379 . S
C762 C759 1.363 . S
C762 N760 1.356 . S
C763 C757 1.363 . S
C763 C758 1.379 . S
C763 N761 1.356 . S
N764 C756 1.356 . S
N764 H770 0.984 . S
N764 H771 0.984 . S
N765 C758 1.356 . S
N765 H768 0.984 . S
N765 H769 0.985 . S
H766 N761 0.984 . S
H767 N761 0.985 . S
H768 N765 0.984 . S
H769 N765 0.985 . S
H770 N764 0.984 . S
H771 N764 0.984 . S
H772 N760 0.984 . S
H773 N760 0.985 . S
C774 C775 1.363 . S
C774 C780 1.379 . S
C774 N782 1.356 . S
C775 C774 1.363 . S
C775 C781 1.363 . S
C776 C777 1.363 . S
C776 C781 1.379 . S
C776 N783 1.356 . S
C777 C776 1.363 . S
C777 C780 1.363 . S
N778 C780 1.356 . S
N778 H790 0.984 . S
N778 H791 0.985 . S
N779 C781 1.356 . S
N779 H784 0.984 . S
N779 H785 0.985 . S
C780 C774 1.379 . S
C780 C777 1.363 . S
C780 N778 1.356 . S
C781 C775 1.363 . S
C781 C776 1.379 . S
C781 N779 1.356 . S
N782 C774 1.356 . S
N782 H788 0.984 . S
N782 H789 0.984 . S
N783 C776 1.356 . S
N783 H786 0.984 . S
N783 H787 0.985 . S
H784 N779 0.984 . S
H785 N779 0.985 . S
H786 N783 0.984 . S
H787 N783 0.985 . S
H788 N782 0.984 . S
H789 N782 0.984 . S
H790 N778 0.984 . S
H791 N778 0.985 . S
C792 C793 1.363 . S
C792 C798 1.379 . S
C792 N800 1.356 . S
C793 C792 1.363 . S
C793 C799 1.363 . S
C794 C795 1.363 . S
C794 C799 1.379 . S
C794 N801 1.356 . S
C795 C794 1.363 . S
C795 C798 1.363 . S
N796 C798 1.356 . S
N796 H808 0.984 . S
N796 H809 0.985 . S
N797 C799 1.356 . S
N797 H802 0.984 . S
N797 H803 0.985 . S
C798 C792 1.379 . S
C798 C795 1.363 . S
C798 N796 1.356 . S
C799 C793 1.363 . S
C799 C794 1.379 . S
C799 N797 1.356 . S
N800 C792 1.356 . S
N800 H806 0.984 . S
N800 H807 0.984 . S
N801 C794 1.356 . S
N801 H804 0.984 . S
N801 H805 0.985 . S
H802 N797 0.984 . S
H803 N797 0.985 . S
H804 N801 0.984 . S
H805 N801 0.985 . S
H806 N800 0.984 . S
H807 N800 0.984 . S
H808 N796 0.984 . S
H809 N796 0.985 . S
C810 C811 1.363 . S
C810 C816 1.379 . S
C810 N818 1.356 . S
C811 C810 1.363 . S
C811 C817 1.363 . S
C812 C813 1.363 . S
C812 C817 1.379 . S
C812 N819 1.356 . S
C813 C812 1.363 . S
C813 C816 1.363 . S
N814 C816 1.356 . S
N814 H826 0.984 . S
N814 H827 0.985 . S
N815 C817 1.356 . S
N815 H820 0.984 . S
N815 H821 0.985 . S
C816 C810 1.379 . S
C816 C813 1.363 . S
C816 N814 1.356 . S
C817 C811 1.363 . S
C817 C812 1.379 . S
C817 N815 1.356 . S
N818 C810 1.356 . S
N818 H824 0.984 . S
N818 H825 0.984 . S
N819 C812 1.356 . S
N819 H822 0.984 . S
N819 H823 0.985 . S
H820 N815 0.984 . S
H821 N815 0.985 . S
H822 N819 0.984 . S
H823 N819 0.985 . S
H824 N818 0.984 . S
H825 N818 0.984 . S
H826 N814 0.984 . S
H827 N814 0.985 . S
C828 C829 1.363 . S
C828 C834 1.379 . S
C828 N836 1.356 . S
C829 C828 1.363 . S
C829 C835 1.363 . S
C830 C831 1.363 . S
C830 C835 1.379 . S
C830 N837 1.356 . S
C831 C830 1.363 . S
C831 C834 1.363 . S
N832 C834 1.356 . S
N832 H844 0.984 . S
N832 H845 0.985 . S
N833 C835 1.356 . S
N833 H838 0.984 . S
N833 H839 0.985 . S
C834 C828 1.379 . S
C834 C831 1.363 . S
C834 N832 1.356 . S
C835 C829 1.363 . S
C835 C830 1.379 . S
C835 N833 1.356 . S
N836 C828 1.356 . S
N836 H842 0.984 . S
N836 H843 0.984 . S
N837 C830 1.356 . S
N837 H840 0.984 . S
N837 H841 0.985 . S
H838 N833 0.984 . S
H839 N833 0.985 . S
H840 N837 0.984 . S
H841 N837 0.985 . S
H842 N836 0.984 . S
H843 N836 0.984 . S
H844 N832 0.984 . S
H845 N832 0.985 . S
C846 C847 1.363 . S
C846 C852 1.379 . S
C846 N854 1.356 . S
C847 C846 1.363 . S
C847 C853 1.363 . S
C848 C849 1.363 . S
C848 C853 1.379 . S
C848 N855 1.356 . S
C849 C848 1.363 . S
C849 C852 1.363 . S
N850 C852 1.356 . S
N850 H862 0.984 . S
N850 H863 0.985 . S
N851 C853 1.356 . S
N851 H856 0.984 . S
N851 H857 0.985 . S
C852 C846 1.379 . S
C852 C849 1.363 . S
C852 N850 1.356 . S
C853 C847 1.363 . S
C853 C848 1.379 . S
C853 N851 1.356 . S
N854 C846 1.356 . S
N854 H860 0.984 . S
N854 H861 0.984 . S
N855 C848 1.356 . S
N855 H858 0.984 . S
N855 H859 0.985 . S
H856 N851 0.984 . S
H857 N851 0.985 . S
H858 N855 0.984 . S
H859 N855 0.985 . S
H860 N854 0.984 . S
H861 N854 0.984 . S
H862 N850 0.984 . S
H863 N850 0.985 . S
C864 C865 1.363 . S
C864 C870 1.379 . S
C864 N872 1.356 . S
C865 C864 1.363 . S
C865 C871 1.363 . S
C866 C867 1.363 . S
C866 C871 1.379 . S
C866 N873 1.356 . S
C867 C866 1.363 . S
C867 C870 1.363 . S
N868 C870 1.356 . S
N868 H880 0.984 . S
N868 H881 0.985 . S
N869 C871 1.356 . S
N869 H874 0.984 . S
N869 H875 0.985 . S
C870 C864 1.379 . S
C870 C867 1.363 . S
C870 N868 1.356 . S
C871 C865 1.363 . S
C871 C866 1.379 . S
C871 N869 1.356 . S
N872 C864 1.356 . S
N872 H878 0.984 . S
N872 H879 0.984 . S
N873 C866 1.356 . S
N873 H876 0.984 . S
N873 H877 0.985 . S
H874 N869 0.984 . S
H875 N869 0.985 . S
H876 N873 0.984 . S
H877 N873 0.985 . S
H878 N872 0.984 . S
H879 N872 0.984 . S
H880 N868 0.984 . S
H881 N868 0.985 . S
C882 C883 1.363 . S
C882 C888 1.379 . S
C882 N890 1.356 . S
C883 C882 1.363 . S
C883 C889 1.363 . S
C884 C885 1.363 . S
C884 C889 1.379 . S
C884 N891 1.356 . S
C885 C884 1.363 . S
C885 C888 1.363 . S
N886 C888 1.356 . S
N886 H898 0.984 . S
N886 H899 0.985 . S
N887 C889 1.356 . S
N887 H892 0.984 . S
N887 H893 0.985 . S
C888 C882 1.379 . S
C888 C885 1.363 . S
C888 N886 1.356 . S
C889 C883 1.363 . S
C889 C884 1.379 . S
C889 N887 1.356 . S
N890 C882 1.356 . S
N890 H896 0.984 . S
N890 H897 0.984 . S
N891 C884 1.356 . S
N891 H894 0.984 . S
N891 H895 0.985 . S
H892 N887 0.984 . S
H893 N887 0.985 . S
H894 N891 0.984 . S
H895 N891 0.985 . S
H896 N890 0.984 . S
H897 N890 0.984 . S
H898 N886 0.984 . S
H899 N886 0.985 . S
C900 C901 1.363 . S
C900 C906 1.379 . S
C900 N908 1.356 . S
C901 C900 1.363 . S
C901 C907 1.363 . S
C902 C903 1.363 . S
C902 C907 1.379 . S
C902 N909 1.356 . S
C903 C902 1.363 . S
C903 C906 1.363 . S
N904 C906 1.356 . S
N904 H916 0.984 . S
N904 H917 0.985 . S
N905 C907 1.356 . S
N905 H910 0.984 . S
N905 H911 0.985 . S
C906 C900 1.379 . S
C906 C903 1.363 . S
C906 N904 1.356 . S
C907 C901 1.363 . S
C907 C902 1.379 . S
C907 N905 1.356 . S
N908 C900 1.356 . S
N908 H914 0.984 . S
N908 H915 0.984 . S
N909 C902 1.356 . S
N909 H912 0.984 . S
N909 H913 0.985 . S
H910 N905 0.984 . S
H911 N905 0.985 . S
H912 N909 0.984 . S
H913 N909 0.985 . S
H914 N908 0.984 . S
H915 N908 0.984 . S
H916 N904 0.984 . S
H917 N904 0.985 . S
C918 C919 1.363 . S
C918 C924 1.379 . S
C918 N926 1.356 . S
C919 C918 1.363 . S
C919 C925 1.363 . S
C920 C921 1.363 . S
C920 C925 1.379 . S
C920 N927 1.356 . S
C921 C920 1.363 . S
C921 C924 1.363 . S
N922 C924 1.356 . S
N922 H934 0.984 . S
N922 H935 0.985 . S
N923 C925 1.356 . S
N923 H928 0.984 . S
N923 H929 0.985 . S
C924 C918 1.379 . S
C924 C921 1.363 . S
C924 N922 1.356 . S
C925 C919 1.363 . S
C925 C920 1.379 . S
C925 N923 1.356 . S
N926 C918 1.356 . S
N926 H932 0.984 . S
N926 H933 0.984 . S
N927 C920 1.356 . S
N927 H930 0.984 . S
N927 H931 0.985 . S
H928 N923 0.984 . S
H929 N923 0.985 . S
H930 N927 0.984 . S
H931 N927 0.985 . S
H932 N926 0.984 . S
H933 N926 0.984 . S
H934 N922 0.984 . S
H935 N922 0.985 . S
C936 C937 1.363 . S
C936 C942 1.379 . S
C936 N944 1.356 . S
C937 C936 1.363 . S
C937 C943 1.363 . S
C938 C939 1.363 . S
C938 C943 1.379 . S
C938 N945 1.356 . S
C939 C938 1.363 . S
C939 C942 1.363 . S
N940 C942 1.356 . S
N940 H952 0.984 . S
N940 H953 0.985 . S
N941 C943 1.356 . S
N941 H946 0.984 . S
N941 H947 0.985 . S
C942 C936 1.379 . S
C942 C939 1.363 . S
C942 N940 1.356 . S
C943 C937 1.363 . S
C943 C938 1.379 . S
C943 N941 1.356 . S
N944 C936 1.356 . S
N944 H950 0.984 . S
N944 H951 0.984 . S
N945 C938 1.356 . S
N945 H948 0.984 . S
N945 H949 0.985 . S
H946 N941 0.984 . S
H947 N941 0.985 . S
H948 N945 0.984 . S
H949 N945 0.985 . S
H950 N944 0.984 . S
H951 N944 0.984 . S
H952 N940 0.984 . S
H953 N940 0.985 . S
C954 C955 1.363 . S
C954 C960 1.379 . S
C954 N962 1.356 . S
C955 C954 1.363 . S
C955 C961 1.363 . S
C956 C957 1.363 . S
C956 C961 1.379 . S
C956 N963 1.356 . S
C957 C956 1.363 . S
C957 C960 1.363 . S
N958 C960 1.356 . S
N958 H970 0.984 . S
N958 H971 0.985 . S
N959 C961 1.356 . S
N959 H964 0.984 . S
N959 H965 0.985 . S
C960 C954 1.379 . S
C960 C957 1.363 . S
C960 N958 1.356 . S
C961 C955 1.363 . S
C961 C956 1.379 . S
C961 N959 1.356 . S
N962 C954 1.356 . S
N962 H968 0.984 . S
N962 H969 0.984 . S
N963 C956 1.356 . S
N963 H966 0.984 . S
N963 H967 0.985 . S
H964 N959 0.984 . S
H965 N959 0.985 . S
H966 N963 0.984 . S
H967 N963 0.985 . S
H968 N962 0.984 . S
H969 N962 0.984 . S
H970 N958 0.984 . S
H971 N958 0.985 . S
C972 C973 1.363 . S
C972 C978 1.379 . S
C972 N980 1.356 . S
C973 C972 1.363 . S
C973 C979 1.363 1_554 S
C974 C975 1.363 1_556 S
C974 C979 1.379 . S
C974 N981 1.356 . S
C975 C974 1.363 1_554 S
C975 C978 1.363 . S
N976 C978 1.356 . S
N976 H988 0.984 . S
N976 H989 0.985 . S
N977 C979 1.356 . S
N977 H982 0.984 . S
N977 H983 0.985 . S
C978 C972 1.379 . S
C978 C975 1.363 . S
C978 N976 1.356 . S
C979 C973 1.363 1_556 S
C979 C974 1.379 . S
C979 N977 1.356 . S
N980 C972 1.356 . S
N980 H986 0.984 . S
N980 H987 0.984 . S
N981 C974 1.356 . S
N981 H984 0.984 . S
N981 H985 0.985 . S
H982 N977 0.984 . S
H983 N977 0.985 . S
H984 N981 0.984 . S
H985 N981 0.985 . S
H986 N980 0.984 . S
H987 N980 0.984 . S
H988 N976 0.984 . S
H989 N976 0.985 . S
C990 C991 1.363 1_556 S
C990 C996 1.379 . S
C990 N998 1.356 . S
C991 C990 1.363 1_554 S
C991 C997 1.363 . S
C992 C993 1.363 . S
C992 C997 1.379 . S
C992 N999 1.356 . S
C993 C992 1.363 . S
C993 C996 1.363 1_554 S
N994 C996 1.356 . S
N994 H1006 0.984 . S
N994 H1007 0.985 . S
N995 C997 1.356 . S
N995 H1000 0.984 . S
N995 H1001 0.985 . S
C996 C990 1.379 . S
C996 C993 1.363 1_556 S
C996 N994 1.356 . S
C997 C991 1.363 . S
C997 C992 1.379 . S
C997 N995 1.356 . S
N998 C990 1.356 . S
N998 H1004 0.984 . S
N998 H1005 0.984 . S
N999 C992 1.356 . S
N999 H1002 0.984 . S
N999 H1003 0.985 . S
H1000 N995 0.984 . S
H1001 N995 0.985 . S
H1002 N999 0.984 . S
H1003 N999 0.985 . S
H1004 N998 0.984 . S
H1005 N998 0.984 . S
H1006 N994 0.984 . S
H1007 N994 0.985 . S
C1008 C1009 1.363 1_556 S
C1008 C1014 1.379 . S
C1008 N1016 1.356 . S
C1009 C1008 1.363 1_554 S
C1009 C1015 1.363 . S
C1010 C1011 1.363 . S
C1010 C1015 1.379 . S
C1010 N1017 1.356 . S
C1011 C1010 1.363 . S
C1011 C1014 1.363 1_554 S
N1012 C1014 1.356 . S
N1012 H1024 0.984 . S
N1012 H1025 0.985 . S
N1013 C1015 1.356 . S
N1013 H1018 0.984 . S
N1013 H1019 0.985 . S
C1014 C1008 1.379 . S
C1014 C1011 1.363 1_556 S
C1014 N1012 1.356 . S
C1015 C1009 1.363 . S
C1015 C1010 1.379 . S
C1015 N1013 1.356 . S
N1016 C1008 1.356 . S
N1016 H1022 0.984 . S
N1016 H1023 0.984 . S
N1017 C1010 1.356 . S
N1017 H1020 0.984 . S
N1017 H1021 0.985 . S
H1018 N1013 0.984 . S
H1019 N1013 0.985 . S
H1020 N1017 0.984 . S
H1021 N1017 0.985 . S
H1022 N1016 0.984 . S
H1023 N1016 0.984 . S
H1024 N1012 0.984 . S
H1025 N1012 0.985 . S
C1026 C1027 1.363 . S
C1026 C1032 1.379 . S
C1026 N1034 1.356 . S
C1027 C1026 1.363 . S
C1027 C1033 1.363 1_554 S
C1028 C1029 1.363 1_556 S
C1028 C1033 1.379 . S
C1028 N1035 1.356 . S
C1029 C1028 1.363 1_554 S
C1029 C1032 1.363 . S
N1030 C1032 1.356 . S
N1030 H1042 0.984 . S
N1030 H1043 0.985 . S
N1031 C1033 1.356 . S
N1031 H1036 0.984 . S
N1031 H1037 0.985 . S
C1032 C1026 1.379 . S
C1032 C1029 1.363 . S
C1032 N1030 1.356 . S
C1033 C1027 1.363 1_556 S
C1033 C1028 1.379 . S
C1033 N1031 1.356 . S
N1034 C1026 1.356 . S
N1034 H1040 0.984 . S
N1034 H1041 0.984 . S
N1035 C1028 1.356 . S
N1035 H1038 0.984 . S
N1035 H1039 0.985 . S
H1036 N1031 0.984 . S
H1037 N1031 0.985 . S
H1038 N1035 0.984 . S
H1039 N1035 0.985 . S
H1040 N1034 0.984 . S
H1041 N1034 0.984 . S
H1042 N1030 0.984 . S
H1043 N1030 0.985 . S
C1044 C1045 1.363 . S
C1044 C1050 1.379 . S
C1044 N1052 1.356 . S
C1045 C1044 1.363 . S
C1045 C1051 1.363 1_455 S
C1046 C1047 1.363 1_655 S
C1046 C1051 1.379 . S
C1046 N1053 1.356 . S
C1047 C1046 1.363 1_455 S
C1047 C1050 1.363 . S
N1048 C1050 1.356 . S
N1048 H1060 0.984 . S
N1048 H1061 0.985 . S
N1049 C1051 1.356 . S
N1049 H1054 0.984 . S
N1049 H1055 0.985 . S
C1050 C1044 1.379 . S
C1050 C1047 1.363 . S
C1050 N1048 1.356 . S
C1051 C1045 1.363 1_655 S
C1051 C1046 1.379 . S
C1051 N1049 1.356 . S
N1052 C1044 1.356 . S
N1052 H1058 0.984 . S
N1052 H1059 0.984 . S
N1053 C1046 1.356 . S
N1053 H1056 0.984 . S
N1053 H1057 0.985 . S
H1054 N1049 0.984 . S
H1055 N1049 0.985 . S
H1056 N1053 0.984 . S
H1057 N1053 0.985 . S
H1058 N1052 0.984 . S
H1059 N1052 0.984 . S
H1060 N1048 0.984 . S
H1061 N1048 0.985 . S
C1062 C1063 1.381 . S
C1062 C1068 1.379 . S
C1062 N1070 1.356 . S
C1063 C1062 1.381 . S
C1063 C1069 1.346 1_545 S
C1064 C1065 1.349 1_565 S
C1064 C1069 1.379 . S
C1064 N1071 1.356 . S
C1065 C1064 1.349 1_545 S
C1065 C1068 1.377 . S
N1066 C1068 1.356 . S
N1066 H1078 0.984 . S
N1066 H1079 0.985 . S
N1067 C1069 1.356 . S
N1067 H1072 0.984 . S
N1067 H1073 0.985 . S
C1068 C1062 1.379 . S
C1068 C1065 1.377 . S
C1068 N1066 1.356 . S
C1069 C1063 1.346 1_565 S
C1069 C1064 1.379 . S
C1069 N1067 1.356 . S
N1070 C1062 1.356 . S
N1070 H1076 0.984 . S
N1070 H1077 0.984 . S
N1071 C1064 1.356 . S
N1071 H1074 0.984 . S
N1071 H1075 0.985 . S
H1072 N1067 0.984 . S
H1073 N1067 0.985 . S
H1074 N1071 0.984 . S
H1075 N1071 0.985 . S
H1076 N1070 0.984 . S
H1077 N1070 0.984 . S
H1078 N1066 0.984 . S
H1079 N1066 0.985 . S
C1080 C1081 1.363 1_655 S
C1080 C1086 1.379 . S
C1080 N1088 1.356 . S
C1081 C1080 1.363 1_455 S
C1081 C1087 1.363 . S
C1082 C1083 1.363 . S
C1082 C1087 1.379 . S
C1082 N1089 1.356 . S
C1083 C1082 1.363 . S
C1083 C1086 1.363 1_455 S
N1084 C1086 1.356 . S
N1084 H1096 0.984 . S
N1084 H1097 0.985 . S
N1085 C1087 1.356 . S
N1085 H1090 0.984 . S
N1085 H1091 0.985 . S
C1086 C1080 1.379 . S
C1086 C1083 1.363 1_655 S
C1086 N1084 1.356 . S
C1087 C1081 1.363 . S
C1087 C1082 1.379 . S
C1087 N1085 1.356 . S
N1088 C1080 1.356 . S
N1088 H1094 0.984 . S
N1088 H1095 0.984 . S
N1089 C1082 1.356 . S
N1089 H1092 0.984 . S
N1089 H1093 0.985 . S
H1090 N1085 0.984 . S
H1091 N1085 0.985 . S
H1092 N1089 0.984 . S
H1093 N1089 0.985 . S
H1094 N1088 0.984 . S
H1095 N1088 0.984 . S
H1096 N1084 0.984 . S
H1097 N1084 0.985 . S
C1098 C1099 1.376 . S
C1098 C1104 1.379 . S
C1098 N1106 1.356 . S
C1099 C1098 1.376 . S
C1099 C1105 1.351 1_545 S
C1100 C1101 1.350 1_565 S
C1100 C1105 1.379 . S
C1100 N1107 1.356 . S
C1101 C1100 1.350 1_545 S
C1101 C1104 1.376 . S
N1102 C1104 1.356 . S
N1102 H1114 0.984 . S
N1102 H1115 0.985 . S
N1103 C1105 1.356 . S
N1103 H1108 0.984 . S
N1103 H1109 0.985 . S
C1104 C1098 1.379 . S
C1104 C1101 1.376 . S
C1104 N1102 1.356 . S
C1105 C1099 1.351 1_565 S
C1105 C1100 1.379 . S
C1105 N1103 1.356 . S
N1106 C1098 1.356 . S
N1106 H1112 0.984 . S
N1106 H1113 0.984 . S
N1107 C1100 1.356 . S
N1107 H1110 0.984 . S
N1107 H1111 0.985 . S
H1108 N1103 0.984 . S
H1109 N1103 0.985 . S
H1110 N1107 0.984 . S
H1111 N1107 0.985 . S
H1112 N1106 0.984 . S
H1113 N1106 0.984 . S
H1114 N1102 0.984 . S
H1115 N1102 0.985 . S
C1116 C1117 1.363 . S
C1116 C1122 1.379 . S
C1116 N1124 1.355 1_455 S
C1117 C1116 1.363 . S
C1117 C1123 1.363 . S
C1118 C1119 1.363 . S
C1118 C1123 1.379 . S
C1118 N1125 1.356 . S
C1119 C1118 1.363 . S
C1119 C1122 1.363 . S
N1120 C1122 1.354 1_655 S
N1120 H1132 0.989 . S
N1120 H1133 0.983 1_655 S
N1121 C1123 1.356 . S
N1121 H1126 0.984 . S
N1121 H1127 0.985 . S
C1122 C1116 1.379 . S
C1122 C1119 1.363 . S
C1122 N1120 1.354 1_455 S
C1123 C1117 1.363 . S
C1123 C1118 1.379 . S
C1123 N1121 1.356 . S
N1124 C1116 1.355 1_655 S
N1124 H1130 0.987 . S
N1124 H1131 0.983 1_655 S
N1125 C1118 1.356 . S
N1125 H1128 0.984 . S
N1125 H1129 0.985 . S
H1126 N1121 0.984 . S
H1127 N1121 0.985 . S
H1128 N1125 0.984 . S
H1129 N1125 0.985 . S
H1130 N1124 0.987 . S
H1131 N1124 0.983 1_455 S
H1132 N1120 0.989 . S
H1133 N1120 0.983 1_455 S
C1134 C1135 1.353 1_565 S
C1134 C1140 1.379 . S
C1134 N1142 1.356 . S
C1135 C1134 1.353 1_545 S
C1135 C1141 1.373 . S
C1136 C1137 1.375 . S
C1136 C1141 1.379 . S
C1136 N1143 1.356 . S
C1137 C1136 1.375 . S
C1137 C1140 1.351 1_545 S
N1138 C1140 1.356 . S
N1138 H1150 0.984 . S
N1138 H1151 0.985 . S
N1139 C1141 1.356 . S
N1139 H1144 0.984 . S
N1139 H1145 0.985 . S
C1140 C1134 1.379 . S
C1140 C1137 1.351 1_565 S
C1140 N1138 1.356 . S
C1141 C1135 1.373 . S
C1141 C1136 1.379 . S
C1141 N1139 1.356 . S
N1142 C1134 1.356 . S
N1142 H1148 0.984 . S
N1142 H1149 0.984 . S
N1143 C1136 1.356 . S
N1143 H1146 0.984 . S
N1143 H1147 0.985 . S
H1144 N1139 0.984 . S
H1145 N1139 0.985 . S
H1146 N1143 0.984 . S
H1147 N1143 0.985 . S
H1148 N1142 0.984 . S
H1149 N1142 0.984 . S
H1150 N1138 0.984 . S
H1151 N1138 0.985 . S
C1152 C1153 1.363 1_655 S
C1152 C1158 1.379 . S
C1152 N1160 1.356 . S
C1153 C1152 1.363 1_455 S
C1153 C1159 1.363 . S
C1154 C1155 1.363 . S
C1154 C1159 1.379 . S
C1154 N1161 1.356 . S
C1155 C1154 1.363 . S
C1155 C1158 1.363 1_455 S
N1156 C1158 1.356 . S
N1156 H1168 0.984 . S
N1156 H1169 0.985 . S
N1157 C1159 1.356 . S
N1157 H1162 0.984 . S
N1157 H1163 0.985 . S
C1158 C1152 1.379 . S
C1158 C1155 1.363 1_655 S
C1158 N1156 1.356 . S
C1159 C1153 1.363 . S
C1159 C1154 1.379 . S
C1159 N1157 1.356 . S
N1160 C1152 1.356 . S
N1160 H1166 0.984 . S
N1160 H1167 0.984 . S
N1161 C1154 1.356 . S
N1161 H1164 0.984 . S
N1161 H1165 0.985 . S
H1162 N1157 0.984 . S
H1163 N1157 0.985 . S
H1164 N1161 0.984 . S
H1165 N1161 0.985 . S
H1166 N1160 0.984 . S
H1167 N1160 0.984 . S
H1168 N1156 0.984 . S
H1169 N1156 0.985 . S
C1170 C1171 1.372 . S
C1170 C1176 1.379 . S
C1170 N1178 1.356 . S
C1171 C1170 1.372 . S
C1171 C1177 1.354 1_545 S
C1172 C1173 1.351 1_565 S
C1172 C1177 1.379 . S
C1172 N1179 1.356 . S
C1173 C1172 1.351 1_545 S
C1173 C1176 1.375 . S
N1174 C1176 1.356 . S
N1174 H1186 0.984 . S
N1174 H1187 0.985 . S
N1175 C1177 1.356 . S
N1175 H1180 0.984 . S
N1175 H1181 0.985 . S
C1176 C1170 1.379 . S
C1176 C1173 1.375 . S
C1176 N1174 1.356 . S
C1177 C1171 1.354 1_565 S
C1177 C1172 1.379 . S
C1177 N1175 1.356 . S
N1178 C1170 1.356 . S
N1178 H1184 0.984 . S
N1178 H1185 0.984 . S
N1179 C1172 1.356 . S
N1179 H1182 0.984 . S
N1179 H1183 0.985 . S
H1180 N1175 0.984 . S
H1181 N1175 0.985 . S
H1182 N1179 0.984 . S
H1183 N1179 0.985 . S
H1184 N1178 0.984 . S
H1185 N1178 0.984 . S
H1186 N1174 0.984 . S
H1187 N1174 0.985 . S
C1188 C1189 1.363 . S
C1188 C1194 1.379 . S
C1188 N1196 1.356 . S
C1189 C1188 1.363 . S
C1189 C1195 1.363 . S
C1190 C1191 1.363 . S
C1190 C1195 1.379 . S
C1190 N1197 1.356 . S
C1191 C1190 1.363 . S
C1191 C1194 1.363 . S
N1192 C1194 1.356 . S
N1192 H1204 0.984 . S
N1192 H1205 0.985 . S
N1193 C1195 1.361 . S
N1193 H1198 0.985 . S
N1193 H1199 0.980 1_455 S
C1194 C1188 1.379 . S
C1194 C1191 1.363 . S
C1194 N1192 1.356 . S
C1195 C1189 1.363 . S
C1195 C1190 1.379 . S
C1195 N1193 1.361 . S
N1196 C1188 1.356 . S
N1196 H1202 0.984 . S
N1196 H1203 0.984 . S
N1197 C1190 1.356 . S
N1197 H1200 0.984 . S
N1197 H1201 0.984 1_455 S
H1198 N1193 0.985 . S
H1199 N1193 0.980 1_655 S
H1200 N1197 0.984 . S
H1201 N1197 0.984 1_655 S
H1202 N1196 0.984 . S
H1203 N1196 0.984 . S
H1204 N1192 0.984 . S
H1205 N1192 0.985 . S
C1206 C1207 1.352 1_565 S
C1206 C1212 1.379 . S
C1206 N1214 1.356 . S
C1207 C1206 1.352 1_545 S
C1207 C1213 1.374 . S
C1208 C1209 1.377 . S
C1208 C1213 1.379 . S
C1208 N1215 1.356 . S
C1209 C1208 1.377 . S
C1209 C1212 1.349 1_545 S
N1210 C1212 1.356 . S
N1210 H1222 0.984 . S
N1210 H1223 0.985 . S
N1211 C1213 1.356 . S
N1211 H1216 0.984 . S
N1211 H1217 0.985 . S
C1212 C1206 1.379 . S
C1212 C1209 1.349 1_565 S
C1212 N1210 1.356 . S
C1213 C1207 1.374 . S
C1213 C1208 1.379 . S
C1213 N1211 1.356 . S
N1214 C1206 1.356 . S
N1214 H1220 0.984 . S
N1214 H1221 0.984 . S
N1215 C1208 1.356 . S
N1215 H1218 0.984 . S
N1215 H1219 0.985 . S
H1216 N1211 0.984 . S
H1217 N1211 0.985 . S
H1218 N1215 0.984 . S
H1219 N1215 0.985 . S
H1220 N1214 0.984 . S
H1221 N1214 0.984 . S
H1222 N1210 0.984 . S
H1223 N1210 0.985 . S
C1224 C1225 1.363 . S
C1224 C1230 1.379 . S
C1224 N1232 1.356 . S
C1225 C1224 1.363 . S
C1225 C1231 1.363 1_455 S
C1226 C1227 1.363 1_655 S
C1226 C1231 1.379 . S
C1226 N1233 1.356 . S
C1227 C1226 1.363 1_455 S
C1227 C1230 1.363 . S
N1228 C1230 1.356 . S
N1228 H1240 0.984 . S
N1228 H1241 0.985 . S
N1229 C1231 1.356 . S
N1229 H1234 0.984 . S
N1229 H1235 0.985 . S
C1230 C1224 1.379 . S
C1230 C1227 1.363 . S
C1230 N1228 1.356 . S
C1231 C1225 1.363 1_655 S
C1231 C1226 1.379 . S
C1231 N1229 1.356 . S
N1232 C1224 1.356 . S
N1232 H1238 0.984 . S
N1232 H1239 0.984 . S
N1233 C1226 1.356 . S
N1233 H1236 0.984 . S
N1233 H1237 0.985 . S
H1234 N1229 0.984 . S
H1235 N1229 0.985 . S
H1236 N1233 0.984 . S
H1237 N1233 0.985 . S
H1238 N1232 0.984 . S
H1239 N1232 0.984 . S
H1240 N1228 0.984 . S
H1241 N1228 0.985 . S
C1242 C1243 1.373 . S
C1242 C1248 1.379 . S
C1242 N1250 1.356 . S
C1243 C1242 1.373 . S
C1243 C1249 1.353 1_545 S
C1244 C1245 1.349 1_565 S
C1244 C1249 1.379 . S
C1244 N1251 1.356 . S
C1245 C1244 1.349 1_545 S
C1245 C1248 1.377 . S
N1246 C1248 1.356 . S
N1246 H1258 0.984 . S
N1246 H1259 0.985 . S
N1247 C1249 1.356 . S
N1247 H1252 0.984 . S
N1247 H1253 0.985 . S
C1248 C1242 1.379 . S
C1248 C1245 1.377 . S
C1248 N1246 1.356 . S
C1249 C1243 1.353 1_565 S
C1249 C1244 1.379 . S
C1249 N1247 1.356 . S
N1250 C1242 1.356 . S
N1250 H1256 0.984 . S
N1250 H1257 0.984 . S
N1251 C1244 1.356 . S
N1251 H1254 0.984 . S
N1251 H1255 0.985 . S
H1252 N1247 0.984 . S
H1253 N1247 0.985 . S
H1254 N1251 0.984 . S
H1255 N1251 0.985 . S
H1256 N1250 0.984 . S
H1257 N1250 0.984 . S
H1258 N1246 0.984 . S
H1259 N1246 0.985 . S
C1260 C1261 1.363 . S
C1260 C1266 1.379 . S
C1260 N1268 1.356 . S
C1261 C1260 1.363 . S
C1261 C1267 1.363 . S
C1262 C1263 1.363 . S
C1262 C1267 1.379 . S
C1262 N1269 1.356 . S
C1263 C1262 1.363 . S
C1263 C1266 1.363 . S
N1264 C1266 1.356 . S
N1264 H1276 0.984 . S
N1264 H1277 0.985 . S
N1265 C1267 1.356 . S
N1265 H1270 0.984 . S
N1265 H1271 0.985 1_455 S
C1266 C1260 1.379 . S
C1266 C1263 1.363 . S
C1266 N1264 1.356 . S
C1267 C1261 1.363 . S
C1267 C1262 1.379 . S
C1267 N1265 1.356 . S
N1268 C1260 1.356 . S
N1268 H1274 0.984 . S
N1268 H1275 0.984 . S
N1269 C1262 1.356 . S
N1269 H1272 0.984 . S
N1269 H1273 0.985 . S
H1270 N1265 0.984 . S
H1271 N1265 0.985 1_655 S
H1272 N1269 0.984 . S
H1273 N1269 0.985 . S
H1274 N1268 0.984 . S
H1275 N1268 0.984 . S
H1276 N1264 0.984 . S
H1277 N1264 0.985 . S
C1278 C1279 1.345 1_565 S
C1278 C1284 1.379 . S
C1278 N1286 1.356 . S
C1279 C1278 1.345 1_545 S
C1279 C1285 1.381 . S
C1280 C1281 1.378 . S
C1280 C1285 1.379 . S
C1280 N1287 1.356 . S
C1281 C1280 1.378 . S
C1281 C1284 1.348 1_545 S
N1282 C1284 1.356 . S
N1282 H1294 0.984 . S
N1282 H1295 0.985 . S
N1283 C1285 1.356 . S
N1283 H1288 0.984 . S
N1283 H1289 0.985 . S
C1284 C1278 1.379 . S
C1284 C1281 1.348 1_565 S
C1284 N1282 1.356 . S
C1285 C1279 1.381 . S
C1285 C1280 1.379 . S
C1285 N1283 1.356 . S
N1286 C1278 1.356 . S
N1286 H1292 0.984 . S
N1286 H1293 0.984 . S
N1287 C1280 1.356 . S
N1287 H1290 0.984 . S
N1287 H1291 0.985 . S
H1288 N1283 0.984 . S
H1289 N1283 0.985 . S
H1290 N1287 0.984 . S
H1291 N1287 0.985 . S
H1292 N1286 0.984 . S
H1293 N1286 0.984 . S
H1294 N1282 0.984 . S
H1295 N1282 0.985 . S
C1296 C1297 1.363 1_655 S
C1296 C1302 1.379 . S
C1296 N1304 1.356 . S
C1297 C1296 1.363 1_455 S
C1297 C1303 1.363 . S
C1298 C1299 1.363 . S
C1298 C1303 1.379 . S
C1298 N1305 1.356 . S
C1299 C1298 1.363 . S
C1299 C1302 1.363 1_455 S
N1300 C1302 1.356 . S
N1300 H1312 0.984 . S
N1300 H1313 0.985 . S
N1301 C1303 1.356 . S
N1301 H1306 0.984 . S
N1301 H1307 0.985 . S
C1302 C1296 1.379 . S
C1302 C1299 1.363 1_655 S
C1302 N1300 1.356 . S
C1303 C1297 1.363 . S
C1303 C1298 1.379 . S
C1303 N1301 1.356 . S
N1304 C1296 1.356 . S
N1304 H1310 0.984 . S
N1304 H1311 0.984 . S
N1305 C1298 1.356 . S
N1305 H1308 0.984 . S
N1305 H1309 0.985 . S
H1306 N1301 0.984 . S
H1307 N1301 0.985 . S
H1308 N1305 0.984 . S
H1309 N1305 0.985 . S
H1310 N1304 0.984 . S
H1311 N1304 0.984 . S
H1312 N1300 0.984 . S
H1313 N1300 0.985 . S
C1314 C1315 1.350 1_565 S
C1314 C1320 1.379 . S
C1314 N1322 1.356 . S
C1315 C1314 1.350 1_545 S
C1315 C1321 1.376 . S
C1316 C1317 1.377 . S
C1316 C1321 1.379 . S
C1316 N1323 1.356 . S
C1317 C1316 1.377 . S
C1317 C1320 1.349 1_545 S
N1318 C1320 1.356 . S
N1318 H1330 0.984 . S
N1318 H1331 0.985 . S
N1319 C1321 1.356 . S
N1319 H1324 0.984 . S
N1319 H1325 0.985 . S
C1320 C1314 1.379 . S
C1320 C1317 1.349 1_565 S
C1320 N1318 1.356 . S
C1321 C1315 1.376 . S
C1321 C1316 1.379 . S
C1321 N1319 1.356 . S
N1322 C1314 1.356 . S
N1322 H1328 0.984 . S
N1322 H1329 0.984 . S
N1323 C1316 1.356 . S
N1323 H1326 0.984 . S
N1323 H1327 0.985 . S
H1324 N1319 0.984 . S
H1325 N1319 0.985 . S
H1326 N1323 0.984 . S
H1327 N1323 0.985 . S
H1328 N1322 0.984 . S
H1329 N1322 0.984 . S
H1330 N1318 0.984 . S
H1331 N1318 0.985 . S
C1332 C1333 1.375 . S
C1332 C1338 1.379 . S
C1332 N1340 1.356 . S
C1333 C1332 1.375 . S
C1333 C1339 1.351 1_545 S
C1334 C1335 1.340 1_565 S
C1334 C1339 1.379 . S
C1334 N1341 1.356 . S
C1335 C1334 1.340 1_545 S
C1335 C1338 1.387 . S
N1336 C1338 1.356 . S
N1336 H1348 0.984 . S
N1336 H1349 0.985 . S
N1337 C1339 1.356 . S
N1337 H1342 0.984 . S
N1337 H1343 0.985 . S
C1338 C1332 1.379 . S
C1338 C1335 1.387 . S
C1338 N1336 1.356 . S
C1339 C1333 1.351 1_565 S
C1339 C1334 1.379 . S
C1339 N1337 1.356 . S
N1340 C1332 1.356 . S
N1340 H1346 0.984 . S
N1340 H1347 0.984 . S
N1341 C1334 1.356 . S
N1341 H1344 0.984 . S
N1341 H1345 0.985 . S
H1342 N1337 0.984 . S
H1343 N1337 0.985 . S
H1344 N1341 0.984 . S
H1345 N1341 0.985 . S
H1346 N1340 0.984 . S
H1347 N1340 0.984 . S
H1348 N1336 0.984 . S
H1349 N1336 0.985 . S
C1350 C1351 1.363 . S
C1350 C1356 1.379 . S
C1350 N1358 1.356 . S
C1351 C1350 1.363 . S
C1351 C1357 1.363 1_455 S
C1352 C1353 1.363 1_655 S
C1352 C1357 1.379 . S
C1352 N1359 1.356 . S
C1353 C1352 1.363 1_455 S
C1353 C1356 1.363 . S
N1354 C1356 1.356 . S
N1354 H1366 0.984 . S
N1354 H1367 0.985 . S
N1355 C1357 1.356 . S
N1355 H1360 0.984 . S
N1355 H1361 0.985 . S
C1356 C1350 1.379 . S
C1356 C1353 1.363 . S
C1356 N1354 1.356 . S
C1357 C1351 1.363 1_655 S
C1357 C1352 1.379 . S
C1357 N1355 1.356 . S
N1358 C1350 1.356 . S
N1358 H1364 0.984 . S
N1358 H1365 0.984 . S
N1359 C1352 1.356 . S
N1359 H1362 0.984 . S
N1359 H1363 0.985 . S
H1360 N1355 0.984 . S
H1361 N1355 0.985 . S
H1362 N1359 0.984 . S
H1363 N1359 0.985 . S
H1364 N1358 0.984 . S
H1365 N1358 0.984 . S
H1366 N1354 0.984 . S
H1367 N1354 0.985 . S
C1368 C1369 1.376 . S
C1368 C1374 1.379 . S
C1368 N1376 1.356 . S
C1369 C1368 1.376 . S
C1369 C1375 1.351 1_545 S
C1370 C1371 1.340 1_565 S
C1370 C1375 1.379 . S
C1370 N1377 1.356 . S
C1371 C1370 1.340 1_545 S
C1371 C1374 1.386 . S
N1372 C1374 1.356 . S
N1372 H1384 0.984 . S
N1372 H1385 0.985 . S
N1373 C1375 1.356 . S
N1373 H1378 0.984 . S
N1373 H1379 0.985 . S
C1374 C1368 1.379 . S
C1374 C1371 1.386 . S
C1374 N1372 1.356 . S
C1375 C1369 1.351 1_565 S
C1375 C1370 1.379 . S
C1375 N1373 1.356 . S
N1376 C1368 1.356 . S
N1376 H1382 0.984 . S
N1376 H1383 0.984 . S
N1377 C1370 1.356 . S
N1377 H1380 0.984 . S
N1377 H1381 0.985 . S
H1378 N1373 0.984 . S
H1379 N1373 0.985 . S
H1380 N1377 0.984 . S
H1381 N1377 0.985 . S
H1382 N1376 0.984 . S
H1383 N1376 0.984 . S
H1384 N1372 0.984 . S
H1385 N1372 0.985 . S
C1386 C1387 1.363 . S
C1386 C1392 1.379 . S
C1386 N1394 1.356 . S
C1387 C1386 1.363 . S
C1387 C1393 1.363 1_455 S
C1388 C1389 1.363 1_655 S
C1388 C1393 1.379 . S
C1388 N1395 1.356 . S
C1389 C1388 1.363 1_455 S
C1389 C1392 1.363 . S
N1390 C1392 1.356 . S
N1390 H1402 0.984 . S
N1390 H1403 0.985 . S
N1391 C1393 1.356 . S
N1391 H1396 0.984 . S
N1391 H1397 0.985 . S
C1392 C1386 1.379 . S
C1392 C1389 1.363 . S
C1392 N1390 1.356 . S
C1393 C1387 1.363 1_655 S
C1393 C1388 1.379 . S
C1393 N1391 1.356 . S
N1394 C1386 1.356 . S
N1394 H1400 0.984 . S
N1394 H1401 0.984 . S
N1395 C1388 1.356 . S
N1395 H1398 0.984 . S
N1395 H1399 0.985 . S
H1396 N1391 0.984 . S
H1397 N1391 0.985 . S
H1398 N1395 0.984 . S
H1399 N1395 0.985 . S
H1400 N1394 0.984 . S
H1401 N1394 0.984 . S
H1402 N1390 0.984 . S
H1403 N1390 0.985 . S
C1404 C1405 1.377 . S
C1404 C1410 1.379 . S
C1404 N1412 1.356 . S
C1405 C1404 1.377 . S
C1405 C1411 1.349 1_545 S
C1406 C1407 1.359 1_565 S
C1406 C1411 1.379 . S
C1406 N1413 1.356 . S
C1407 C1406 1.359 1_545 S
C1407 C1410 1.367 . S
N1408 C1410 1.356 . S
N1408 H1420 0.984 . S
N1408 H1421 0.985 . S
N1409 C1411 1.356 . S
N1409 H1414 0.984 . S
N1409 H1415 0.985 . S
C1410 C1404 1.379 . S
C1410 C1407 1.367 . S
C1410 N1408 1.356 . S
C1411 C1405 1.349 1_565 S
C1411 C1406 1.379 . S
C1411 N1409 1.356 . S
N1412 C1404 1.356 . S
N1412 H1418 0.984 . S
N1412 H1419 0.984 . S
N1413 C1406 1.356 . S
N1413 H1416 0.984 . S
N1413 H1417 0.985 . S
H1414 N1409 0.984 . S
H1415 N1409 0.985 . S
H1416 N1413 0.984 . S
H1417 N1413 0.985 . S
H1418 N1412 0.984 . S
H1419 N1412 0.984 . S
H1420 N1408 0.984 . S
H1421 N1408 0.985 . S
C1422 C1423 1.363 1_655 S
C1422 C1428 1.379 . S
C1422 N1430 1.356 . S
C1423 C1422 1.363 1_455 S
C1423 C1429 1.363 . S
C1424 C1425 1.363 . S
C1424 C1429 1.379 . S
C1424 N1431 1.356 . S
C1425 C1424 1.363 . S
C1425 C1428 1.363 1_455 S
N1426 C1428 1.356 . S
N1426 H1438 0.984 . S
N1426 H1439 0.985 . S
N1427 C1429 1.356 . S
N1427 H1432 0.984 . S
N1427 H1433 0.985 . S
C1428 C1422 1.379 . S
C1428 C1425 1.363 1_655 S
C1428 N1426 1.356 . S
C1429 C1423 1.363 . S
C1429 C1424 1.379 . S
C1429 N1427 1.356 . S
N1430 C1422 1.356 . S
N1430 H1436 0.984 . S
N1430 H1437 0.984 . S
N1431 C1424 1.356 . S
N1431 H1434 0.984 . S
N1431 H1435 0.985 . S
H1432 N1427 0.984 . S
H1433 N1427 0.985 . S
H1434 N1431 0.984 . S
H1435 N1431 0.985 . S
H1436 N1430 0.984 . S
H1437 N1430 0.984 . S
H1438 N1426 0.984 . S
H1439 N1426 0.985 . S
C1440 C1441 1.353 1_565 S
C1440 C1446 1.379 . S
C1440 N1448 1.356 . S
C1441 C1440 1.353 1_545 S
C1441 C1447 1.374 . S
C1442 C1443 1.365 . S
C1442 C1447 1.379 . S
C1442 N1449 1.356 . S
C1443 C1442 1.365 . S
C1443 C1446 1.361 1_545 S
N1444 C1446 1.356 . S
N1444 H1456 0.984 . S
N1444 H1457 0.985 . S
N1445 C1447 1.356 . S
N1445 H1450 0.984 . S
N1445 H1451 0.985 . S
C1446 C1440 1.379 . S
C1446 C1443 1.361 1_565 S
C1446 N1444 1.356 . S
C1447 C1441 1.374 . S
C1447 C1442 1.379 . S
C1447 N1445 1.356 . S
N1448 C1440 1.356 . S
N1448 H1454 0.984 . S
N1448 H1455 0.984 . S
N1449 C1442 1.356 . S
N1449 H1452 0.984 . S
N1449 H1453 0.985 . S
H1450 N1445 0.984 . S
H1451 N1445 0.985 . S
H1452 N1449 0.984 . S
H1453 N1449 0.985 . S
H1454 N1448 0.984 . S
H1455 N1448 0.984 . S
H1456 N1444 0.984 . S
H1457 N1444 0.985 . S
C1458 C1459 1.363 1_655 S
C1458 C1464 1.379 . S
C1458 N1466 1.356 . S
C1459 C1458 1.363 1_455 S
C1459 C1465 1.363 . S
C1460 C1461 1.363 . S
C1460 C1465 1.379 . S
C1460 N1467 1.356 . S
C1461 C1460 1.363 . S
C1461 C1464 1.363 1_455 S
N1462 C1464 1.356 . S
N1462 H1474 0.984 . S
N1462 H1475 0.985 . S
N1463 C1465 1.356 . S
N1463 H1468 0.984 . S
N1463 H1469 0.985 . S
C1464 C1458 1.379 . S
C1464 C1461 1.363 1_655 S
C1464 N1462 1.356 . S
C1465 C1459 1.363 . S
C1465 C1460 1.379 . S
C1465 N1463 1.356 . S
N1466 C1458 1.356 . S
N1466 H1472 0.984 . S
N1466 H1473 0.984 . S
N1467 C1460 1.356 . S
N1467 H1470 0.984 . S
N1467 H1471 0.985 . S
H1468 N1463 0.984 . S
H1469 N1463 0.985 . S
H1470 N1467 0.984 . S
H1471 N1467 0.985 . S
H1472 N1466 0.984 . S
H1473 N1466 0.984 . S
H1474 N1462 0.984 . S
H1475 N1462 0.985 . S
C1476 C1477 1.363 1_556 S
C1476 C1482 1.379 . S
C1476 N1484 1.356 . S
C1477 C1476 1.363 1_554 S
C1477 C1483 1.363 . S
C1478 C1479 1.363 . S
C1478 C1483 1.379 . S
C1478 N1485 1.356 . S
C1479 C1478 1.363 . S
C1479 C1482 1.363 1_554 S
N1480 C1482 1.356 . S
N1480 H1492 0.984 . S
N1480 H1493 0.985 . S
N1481 C1483 1.356 . S
N1481 H1486 0.984 . S
N1481 H1487 0.985 . S
C1482 C1476 1.379 . S
C1482 C1479 1.363 1_556 S
C1482 N1480 1.356 . S
C1483 C1477 1.363 . S
C1483 C1478 1.379 . S
C1483 N1481 1.356 . S
N1484 C1476 1.356 . S
N1484 H1490 0.984 . S
N1484 H1491 0.984 . S
N1485 C1478 1.356 . S
N1485 H1488 0.984 . S
N1485 H1489 0.985 . S
H1486 N1481 0.984 . S
H1487 N1481 0.985 . S
H1488 N1485 0.984 . S
H1489 N1485 0.985 . S
H1490 N1484 0.984 . S
H1491 N1484 0.984 . S
H1492 N1480 0.984 . S
H1493 N1480 0.985 . S
C1494 C1495 1.363 . S
C1494 C1500 1.379 . S
C1494 N1502 1.356 . S
C1495 C1494 1.363 . S
C1495 C1501 1.363 1_554 S
C1496 C1497 1.363 1_556 S
C1496 C1501 1.379 . S
C1496 N1503 1.356 . S
C1497 C1496 1.363 1_554 S
C1497 C1500 1.363 . S
N1498 C1500 1.356 . S
N1498 H1510 0.984 . S
N1498 H1511 0.985 . S
N1499 C1501 1.356 . S
N1499 H1504 0.984 . S
N1499 H1505 0.985 . S
C1500 C1494 1.379 . S
C1500 C1497 1.363 . S
C1500 N1498 1.356 . S
C1501 C1495 1.363 1_556 S
C1501 C1496 1.379 . S
C1501 N1499 1.356 . S
N1502 C1494 1.356 . S
N1502 H1508 0.984 . S
N1502 H1509 0.984 . S
N1503 C1496 1.356 . S
N1503 H1506 0.984 . S
N1503 H1507 0.985 . S
H1504 N1499 0.984 . S
H1505 N1499 0.985 . S
H1506 N1503 0.984 . S
H1507 N1503 0.985 . S
H1508 N1502 0.984 . S
H1509 N1502 0.984 . S
H1510 N1498 0.984 . S
H1511 N1498 0.985 . S
C1512 C1513 1.363 . S
C1512 C1518 1.379 . S
C1512 N1520 1.356 . S
C1513 C1512 1.363 . S
C1513 C1519 1.363 1_554 S
C1514 C1515 1.363 1_556 S
C1514 C1519 1.379 . S
C1514 N1521 1.356 . S
C1515 C1514 1.363 1_554 S
C1515 C1518 1.363 . S
N1516 C1518 1.356 . S
N1516 H1528 0.984 . S
N1516 H1529 0.985 . S
N1517 C1519 1.356 . S
N1517 H1522 0.984 . S
N1517 H1523 0.985 . S
C1518 C1512 1.379 . S
C1518 C1515 1.363 . S
C1518 N1516 1.356 . S
C1519 C1513 1.363 1_556 S
C1519 C1514 1.379 . S
C1519 N1517 1.356 . S
N1520 C1512 1.356 . S
N1520 H1526 0.984 . S
N1520 H1527 0.984 . S
N1521 C1514 1.356 . S
N1521 H1524 0.984 . S
N1521 H1525 0.985 . S
H1522 N1517 0.984 . S
H1523 N1517 0.985 . S
H1524 N1521 0.984 . S
H1525 N1521 0.985 . S
H1526 N1520 0.984 . S
H1527 N1520 0.984 . S
H1528 N1516 0.984 . S
H1529 N1516 0.985 . S
C1530 C1531 1.363 1_556 S
C1530 C1536 1.379 . S
C1530 N1538 1.356 . S
C1531 C1530 1.363 1_554 S
C1531 C1537 1.363 . S
C1532 C1533 1.363 . S
C1532 C1537 1.379 . S
C1532 N1539 1.356 . S
C1533 C1532 1.363 . S
C1533 C1536 1.363 1_554 S
N1534 C1536 1.356 . S
N1534 H1546 0.984 . S
N1534 H1547 0.985 . S
N1535 C1537 1.356 . S
N1535 H1540 0.984 . S
N1535 H1541 0.985 . S
C1536 C1530 1.379 . S
C1536 C1533 1.363 1_556 S
C1536 N1534 1.356 . S
C1537 C1531 1.363 . S
C1537 C1532 1.379 . S
C1537 N1535 1.356 . S
N1538 C1530 1.356 . S
N1538 H1544 0.984 . S
N1538 H1545 0.984 . S
N1539 C1532 1.356 . S
N1539 H1542 0.984 . S
N1539 H1543 0.985 . S
H1540 N1535 0.984 . S
H1541 N1535 0.985 . S
H1542 N1539 0.984 . S
H1543 N1539 0.985 . S
H1544 N1538 0.984 . S
H1545 N1538 0.984 . S
H1546 N1534 0.984 . S
H1547 N1534 0.985 . S
C1548 C1549 1.363 1_556 S
C1548 C1554 1.379 . S
C1548 N1556 1.356 . S
C1549 C1548 1.363 1_554 S
C1549 C1555 1.363 . S
C1550 C1551 1.363 . S
C1550 C1555 1.379 . S
C1550 N1557 1.356 . S
C1551 C1550 1.363 . S
C1551 C1554 1.363 1_554 S
N1552 C1554 1.356 . S
N1552 H1564 0.984 . S
N1552 H1565 0.985 . S
N1553 C1555 1.356 . S
N1553 H1558 0.984 . S
N1553 H1559 0.985 . S
C1554 C1548 1.379 . S
C1554 C1551 1.363 1_556 S
C1554 N1552 1.356 . S
C1555 C1549 1.363 . S
C1555 C1550 1.379 . S
C1555 N1553 1.356 . S
N1556 C1548 1.356 . S
N1556 H1562 0.984 . S
N1556 H1563 0.984 . S
N1557 C1550 1.356 . S
N1557 H1560 0.984 . S
N1557 H1561 0.985 . S
H1558 N1553 0.984 . S
H1559 N1553 0.985 . S
H1560 N1557 0.984 . S
H1561 N1557 0.985 . S
H1562 N1556 0.984 . S
H1563 N1556 0.984 . S
H1564 N1552 0.984 . S
H1565 N1552 0.985 . S
C1566 C1567 1.363 1_556 S
C1566 C1572 1.379 . S
C1566 N1574 1.356 . S
C1567 C1566 1.363 1_554 S
C1567 C1573 1.363 . S
C1568 C1569 1.363 . S
C1568 C1573 1.379 . S
C1568 N1575 1.356 . S
C1569 C1568 1.363 . S
C1569 C1572 1.363 1_554 S
N1570 C1572 1.356 . S
N1570 H1582 0.984 . S
N1570 H1583 0.985 . S
N1571 C1573 1.356 . S
N1571 H1576 0.984 . S
N1571 H1577 0.985 . S
C1572 C1566 1.379 . S
C1572 C1569 1.363 1_556 S
C1572 N1570 1.356 . S
C1573 C1567 1.363 . S
C1573 C1568 1.379 . S
C1573 N1571 1.356 . S
N1574 C1566 1.356 . S
N1574 H1580 0.984 . S
N1574 H1581 0.984 . S
N1575 C1568 1.356 . S
N1575 H1578 0.984 . S
N1575 H1579 0.985 . S
H1576 N1571 0.984 . S
H1577 N1571 0.985 . S
H1578 N1575 0.984 . S
H1579 N1575 0.985 . S
H1580 N1574 0.984 . S
H1581 N1574 0.984 . S
H1582 N1570 0.984 . S
H1583 N1570 0.985 . S
C1584 C1585 1.363 . S
C1584 C1590 1.379 . S
C1584 N1592 1.356 . S
C1585 C1584 1.363 . S
C1585 C1591 1.363 1_554 S
C1586 C1587 1.363 1_556 S
C1586 C1591 1.379 . S
C1586 N1593 1.356 . S
C1587 C1586 1.363 1_554 S
C1587 C1590 1.363 . S
N1588 C1590 1.356 . S
N1588 H1600 0.984 . S
N1588 H1601 0.985 . S
N1589 C1591 1.356 . S
N1589 H1594 0.984 . S
N1589 H1595 0.985 . S
C1590 C1584 1.379 . S
C1590 C1587 1.363 . S
C1590 N1588 1.356 . S
C1591 C1585 1.363 1_556 S
C1591 C1586 1.379 . S
C1591 N1589 1.356 . S
N1592 C1584 1.356 . S
N1592 H1598 0.984 . S
N1592 H1599 0.984 . S
N1593 C1586 1.356 . S
N1593 H1596 0.984 . S
N1593 H1597 0.985 . S
H1594 N1589 0.984 . S
H1595 N1589 0.985 . S
H1596 N1593 0.984 . S
H1597 N1593 0.985 . S
H1598 N1592 0.984 . S
H1599 N1592 0.984 . S
H1600 N1588 0.984 . S
H1601 N1588 0.985 . S
C1602 C1603 1.363 . S
C1602 C1608 1.379 . S
C1602 N1610 1.356 . S
C1603 C1602 1.363 . S
C1603 C1609 1.363 1_554 S
C1604 C1605 1.363 1_556 S
C1604 C1609 1.379 . S
C1604 N1611 1.356 . S
C1605 C1604 1.363 1_554 S
C1605 C1608 1.363 . S
N1606 C1608 1.356 . S
N1606 H1618 0.984 . S
N1606 H1619 0.985 . S
N1607 C1609 1.356 . S
N1607 H1612 0.984 . S
N1607 H1613 0.985 . S
C1608 C1602 1.379 . S
C1608 C1605 1.363 . S
C1608 N1606 1.356 . S
C1609 C1603 1.363 1_556 S
C1609 C1604 1.379 . S
C1609 N1607 1.356 . S
N1610 C1602 1.356 . S
N1610 H1616 0.984 . S
N1610 H1617 0.984 . S
N1611 C1604 1.356 . S
N1611 H1614 0.984 . S
N1611 H1615 0.985 . S
H1612 N1607 0.984 . S
H1613 N1607 0.985 . S
H1614 N1611 0.984 . S
H1615 N1611 0.985 . S
H1616 N1610 0.984 . S
H1617 N1610 0.984 . S
H1618 N1606 0.984 . S
H1619 N1606 0.985 . S
C1620 C1621 1.363 . S
C1620 C1626 1.379 . S
C1620 N1628 1.356 . S
C1621 C1620 1.363 . S
C1621 C1627 1.363 . S
C1622 C1623 1.363 . S
C1622 C1627 1.379 . S
C1622 N1629 1.356 . S
C1623 C1622 1.363 . S
C1623 C1626 1.363 . S
N1624 C1626 1.356 . S
N1624 H1636 0.984 . S
N1624 H1637 0.985 . S
N1625 C1627 1.356 . S
N1625 H1630 0.984 . S
N1625 H1631 0.985 . S
C1626 C1620 1.379 . S
C1626 C1623 1.363 . S
C1626 N1624 1.356 . S
C1627 C1621 1.363 . S
C1627 C1622 1.379 . S
C1627 N1625 1.356 . S
N1628 C1620 1.356 . S
N1628 H1634 0.984 . S
N1628 H1635 0.984 . S
N1629 C1622 1.356 . S
N1629 H1632 0.984 . S
N1629 H1633 0.985 . S
H1630 N1625 0.984 . S
H1631 N1625 0.985 . S
H1632 N1629 0.984 . S
H1633 N1629 0.985 . S
H1634 N1628 0.984 . S
H1635 N1628 0.984 . S
H1636 N1624 0.984 . S
H1637 N1624 0.985 . S
C1638 C1639 1.363 . S
C1638 C1644 1.379 . S
C1638 N1646 1.356 . S
C1639 C1638 1.363 . S
C1639 C1645 1.363 . S
C1640 C1641 1.363 . S
C1640 C1645 1.379 . S
C1640 N1647 1.356 . S
C1641 C1640 1.363 . S
C1641 C1644 1.363 . S
N1642 C1644 1.356 . S
N1642 H1654 0.984 . S
N1642 H1655 0.985 . S
N1643 C1645 1.356 . S
N1643 H1648 0.984 . S
N1643 H1649 0.985 . S
C1644 C1638 1.379 . S
C1644 C1641 1.363 . S
C1644 N1642 1.356 . S
C1645 C1639 1.363 . S
C1645 C1640 1.379 . S
C1645 N1643 1.356 . S
N1646 C1638 1.356 . S
N1646 H1652 0.984 . S
N1646 H1653 0.984 . S
N1647 C1640 1.356 . S
N1647 H1650 0.984 . S
N1647 H1651 0.985 . S
H1648 N1643 0.984 . S
H1649 N1643 0.985 . S
H1650 N1647 0.984 . S
H1651 N1647 0.985 . S
H1652 N1646 0.984 . S
H1653 N1646 0.984 . S
H1654 N1642 0.984 . S
H1655 N1642 0.985 . S
C1656 C1657 1.363 . S
C1656 C1662 1.379 . S
C1656 N1664 1.356 . S
C1657 C1656 1.363 . S
C1657 C1663 1.363 . S
C1658 C1659 1.363 . S
C1658 C1663 1.379 . S
C1658 N1665 1.356 . S
C1659 C1658 1.363 . S
C1659 C1662 1.363 . S
N1660 C1662 1.356 . S
N1660 H1672 0.984 . S
N1660 H1673 0.985 . S
N1661 C1663 1.356 . S
N1661 H1666 0.984 . S
N1661 H1667 0.985 . S
C1662 C1656 1.379 . S
C1662 C1659 1.363 . S
C1662 N1660 1.356 . S
C1663 C1657 1.363 . S
C1663 C1658 1.379 . S
C1663 N1661 1.356 . S
N1664 C1656 1.356 . S
N1664 H1670 0.984 . S
N1664 H1671 0.984 . S
N1665 C1658 1.356 . S
N1665 H1668 0.984 . S
N1665 H1669 0.985 . S
H1666 N1661 0.984 . S
H1667 N1661 0.985 . S
H1668 N1665 0.984 . S
H1669 N1665 0.985 . S
H1670 N1664 0.984 . S
H1671 N1664 0.984 . S
H1672 N1660 0.984 . S
H1673 N1660 0.985 . S
C1674 C1675 1.363 . S
C1674 C1680 1.379 . S
C1674 N1682 1.356 . S
C1675 C1674 1.363 . S
C1675 C1681 1.363 . S
C1676 C1677 1.363 . S
C1676 C1681 1.379 . S
C1676 N1683 1.356 . S
C1677 C1676 1.363 . S
C1677 C1680 1.363 . S
N1678 C1680 1.356 . S
N1678 H1690 0.984 . S
N1678 H1691 0.985 . S
N1679 C1681 1.356 . S
N1679 H1684 0.984 . S
N1679 H1685 0.985 . S
C1680 C1674 1.379 . S
C1680 C1677 1.363 . S
C1680 N1678 1.356 . S
C1681 C1675 1.363 . S
C1681 C1676 1.379 . S
C1681 N1679 1.356 . S
N1682 C1674 1.356 . S
N1682 H1688 0.984 . S
N1682 H1689 0.984 . S
N1683 C1676 1.356 . S
N1683 H1686 0.984 . S
N1683 H1687 0.985 . S
H1684 N1679 0.984 . S
H1685 N1679 0.985 . S
H1686 N1683 0.984 . S
H1687 N1683 0.985 . S
H1688 N1682 0.984 . S
H1689 N1682 0.984 . S
H1690 N1678 0.984 . S
H1691 N1678 0.985 . S
C1692 C1693 1.363 . S
C1692 C1698 1.379 . S
C1692 N1700 1.356 . S
C1693 C1692 1.363 . S
C1693 C1699 1.363 . S
C1694 C1695 1.363 . S
C1694 C1699 1.379 . S
C1694 N1701 1.356 . S
C1695 C1694 1.363 . S
C1695 C1698 1.363 . S
N1696 C1698 1.356 . S
N1696 H1708 0.984 . S
N1696 H1709 0.985 . S
N1697 C1699 1.356 . S
N1697 H1702 0.984 . S
N1697 H1703 0.985 . S
C1698 C1692 1.379 . S
C1698 C1695 1.363 . S
C1698 N1696 1.356 . S
C1699 C1693 1.363 . S
C1699 C1694 1.379 . S
C1699 N1697 1.356 . S
N1700 C1692 1.356 . S
N1700 H1706 0.984 . S
N1700 H1707 0.984 . S
N1701 C1694 1.356 . S
N1701 H1704 0.984 . S
N1701 H1705 0.985 . S
H1702 N1697 0.984 . S
H1703 N1697 0.985 . S
H1704 N1701 0.984 . S
H1705 N1701 0.985 . S
H1706 N1700 0.984 . S
H1707 N1700 0.984 . S
H1708 N1696 0.984 . S
H1709 N1696 0.985 . S
C1710 C1711 1.363 . S
C1710 C1716 1.379 . S
C1710 N1718 1.356 . S
C1711 C1710 1.363 . S
C1711 C1717 1.363 . S
C1712 C1713 1.363 . S
C1712 C1717 1.379 . S
C1712 N1719 1.356 . S
C1713 C1712 1.363 . S
C1713 C1716 1.363 . S
N1714 C1716 1.356 . S
N1714 H1726 0.984 . S
N1714 H1727 0.985 . S
N1715 C1717 1.356 . S
N1715 H1720 0.984 . S
N1715 H1721 0.985 . S
C1716 C1710 1.379 . S
C1716 C1713 1.363 . S
C1716 N1714 1.356 . S
C1717 C1711 1.363 . S
C1717 C1712 1.379 . S
C1717 N1715 1.356 . S
N1718 C1710 1.356 . S
N1718 H1724 0.984 . S
N1718 H1725 0.984 . S
N1719 C1712 1.356 . S
N1719 H1722 0.984 . S
N1719 H1723 0.985 . S
H1720 N1715 0.984 . S
H1721 N1715 0.985 . S
H1722 N1719 0.984 . S
H1723 N1719 0.985 . S
H1724 N1718 0.984 . S
H1725 N1718 0.984 . S
H1726 N1714 0.984 . S
H1727 N1714 0.985 . S
C1728 C1729 1.363 . S
C1728 C1734 1.379 . S
C1728 N1736 1.356 . S
C1729 C1728 1.363 . S
C1729 C1735 1.363 . S
C1730 C1731 1.363 . S
C1730 C1735 1.379 . S
C1730 N1737 1.356 . S
C1731 C1730 1.363 . S
C1731 C1734 1.363 . S
N1732 C1734 1.356 . S
N1732 H1744 0.984 . S
N1732 H1745 0.985 . S
N1733 C1735 1.356 . S
N1733 H1738 0.984 . S
N1733 H1739 0.985 . S
C1734 C1728 1.379 . S
C1734 C1731 1.363 . S
C1734 N1732 1.356 . S
C1735 C1729 1.363 . S
C1735 C1730 1.379 . S
C1735 N1733 1.356 . S
N1736 C1728 1.356 . S
N1736 H1742 0.984 . S
N1736 H1743 0.984 . S
N1737 C1730 1.356 . S
N1737 H1740 0.984 . S
N1737 H1741 0.985 . S
H1738 N1733 0.984 . S
H1739 N1733 0.985 . S
H1740 N1737 0.984 . S
H1741 N1737 0.985 . S
H1742 N1736 0.984 . S
H1743 N1736 0.984 . S
H1744 N1732 0.984 . S
H1745 N1732 0.985 . S
C1746 C1747 1.363 . S
C1746 C1752 1.379 . S
C1746 N1754 1.356 . S
C1747 C1746 1.363 . S
C1747 C1753 1.363 . S
C1748 C1749 1.363 . S
C1748 C1753 1.379 . S
C1748 N1755 1.356 . S
C1749 C1748 1.363 . S
C1749 C1752 1.363 . S
N1750 C1752 1.356 . S
N1750 H1762 0.984 . S
N1750 H1763 0.985 . S
N1751 C1753 1.356 . S
N1751 H1756 0.984 . S
N1751 H1757 0.985 . S
C1752 C1746 1.379 . S
C1752 C1749 1.363 . S
C1752 N1750 1.356 . S
C1753 C1747 1.363 . S
C1753 C1748 1.379 . S
C1753 N1751 1.356 . S
N1754 C1746 1.356 . S
N1754 H1760 0.984 . S
N1754 H1761 0.984 . S
N1755 C1748 1.356 . S
N1755 H1758 0.984 . S
N1755 H1759 0.985 . S
H1756 N1751 0.984 . S
H1757 N1751 0.985 . S
H1758 N1755 0.984 . S
H1759 N1755 0.985 . S
H1760 N1754 0.984 . S
H1761 N1754 0.984 . S
H1762 N1750 0.984 . S
H1763 N1750 0.985 . S
C1764 C1765 1.363 . S
C1764 C1770 1.379 . S
C1764 N1772 1.356 . S
C1765 C1764 1.363 . S
C1765 C1771 1.363 . S
C1766 C1767 1.363 . S
C1766 C1771 1.379 . S
C1766 N1773 1.356 . S
C1767 C1766 1.363 . S
C1767 C1770 1.363 . S
N1768 C1770 1.356 . S
N1768 H1780 0.984 . S
N1768 H1781 0.985 . S
N1769 C1771 1.356 . S
N1769 H1774 0.984 . S
N1769 H1775 0.985 . S
C1770 C1764 1.379 . S
C1770 C1767 1.363 . S
C1770 N1768 1.356 . S
C1771 C1765 1.363 . S
C1771 C1766 1.379 . S
C1771 N1769 1.356 . S
N1772 C1764 1.356 . S
N1772 H1778 0.984 . S
N1772 H1779 0.984 . S
N1773 C1766 1.356 . S
N1773 H1776 0.984 . S
N1773 H1777 0.985 . S
H1774 N1769 0.984 . S
H1775 N1769 0.985 . S
H1776 N1773 0.984 . S
H1777 N1773 0.985 . S
H1778 N1772 0.984 . S
H1779 N1772 0.984 . S
H1780 N1768 0.984 . S
H1781 N1768 0.985 . S
C1782 C1783 1.363 . S
C1782 C1788 1.379 . S
C1782 N1790 1.356 . S
C1783 C1782 1.363 . S
C1783 C1789 1.363 . S
C1784 C1785 1.363 . S
C1784 C1789 1.379 . S
C1784 N1791 1.356 . S
C1785 C1784 1.363 . S
C1785 C1788 1.363 . S
N1786 C1788 1.356 . S
N1786 H1798 0.984 . S
N1786 H1799 0.985 . S
N1787 C1789 1.356 . S
N1787 H1792 0.984 . S
N1787 H1793 0.985 . S
C1788 C1782 1.379 . S
C1788 C1785 1.363 . S
C1788 N1786 1.356 . S
C1789 C1783 1.363 . S
C1789 C1784 1.379 . S
C1789 N1787 1.356 . S
N1790 C1782 1.356 . S
N1790 H1796 0.984 . S
N1790 H1797 0.984 . S
N1791 C1784 1.356 . S
N1791 H1794 0.984 . S
N1791 H1795 0.985 . S
H1792 N1787 0.984 . S
H1793 N1787 0.985 . S
H1794 N1791 0.984 . S
H1795 N1791 0.985 . S
H1796 N1790 0.984 . S
H1797 N1790 0.984 . S
H1798 N1786 0.984 . S
H1799 N1786 0.985 . S
C1800 C1801 1.363 . S
C1800 C1806 1.379 . S
C1800 N1808 1.356 . S
C1801 C1800 1.363 . S
C1801 C1807 1.363 . S
C1802 C1803 1.363 . S
C1802 C1807 1.379 . S
C1802 N1809 1.356 . S
C1803 C1802 1.363 . S
C1803 C1806 1.363 . S
N1804 C1806 1.356 . S
N1804 H1816 0.984 . S
N1804 H1817 0.985 . S
N1805 C1807 1.356 . S
N1805 H1810 0.984 . S
N1805 H1811 0.985 . S
C1806 C1800 1.379 . S
C1806 C1803 1.363 . S
C1806 N1804 1.356 . S
C1807 C1801 1.363 . S
C1807 C1802 1.379 . S
C1807 N1805 1.356 . S
N1808 C1800 1.356 . S
N1808 H1814 0.984 . S
N1808 H1815 0.984 . S
N1809 C1802 1.356 . S
N1809 H1812 0.984 . S
N1809 H1813 0.985 . S
H1810 N1805 0.984 . S
H1811 N1805 0.985 . S
H1812 N1809 0.984 . S
H1813 N1809 0.985 . S
H1814 N1808 0.984 . S
H1815 N1808 0.984 . S
H1816 N1804 0.984 . S
H1817 N1804 0.985 . S
C1818 C1819 1.363 . S
C1818 C1824 1.379 . S
C1818 N1826 1.356 . S
C1819 C1818 1.363 . S
C1819 C1825 1.363 . S
C1820 C1821 1.363 . S
C1820 C1825 1.379 . S
C1820 N1827 1.356 . S
C1821 C1820 1.363 . S
C1821 C1824 1.363 . S
N1822 C1824 1.356 . S
N1822 H1834 0.984 . S
N1822 H1835 0.985 . S
N1823 C1825 1.356 . S
N1823 H1828 0.984 . S
N1823 H1829 0.985 . S
C1824 C1818 1.379 . S
C1824 C1821 1.363 . S
C1824 N1822 1.356 . S
C1825 C1819 1.363 . S
C1825 C1820 1.379 . S
C1825 N1823 1.356 . S
N1826 C1818 1.356 . S
N1826 H1832 0.984 . S
N1826 H1833 0.984 . S
N1827 C1820 1.356 . S
N1827 H1830 0.984 . S
N1827 H1831 0.985 . S
H1828 N1823 0.984 . S
H1829 N1823 0.985 . S
H1830 N1827 0.984 . S
H1831 N1827 0.985 . S
H1832 N1826 0.984 . S
H1833 N1826 0.984 . S
H1834 N1822 0.984 . S
H1835 N1822 0.985 . S
C1836 C1837 1.363 . S
C1836 C1842 1.379 . S
C1836 N1844 1.356 . S
C1837 C1836 1.363 . S
C1837 C1843 1.363 . S
C1838 C1839 1.363 . S
C1838 C1843 1.379 . S
C1838 N1845 1.356 . S
C1839 C1838 1.363 . S
C1839 C1842 1.363 . S
N1840 C1842 1.356 . S
N1840 H1852 0.984 . S
N1840 H1853 0.985 . S
N1841 C1843 1.356 . S
N1841 H1846 0.984 . S
N1841 H1847 0.985 . S
C1842 C1836 1.379 . S
C1842 C1839 1.363 . S
C1842 N1840 1.356 . S
C1843 C1837 1.363 . S
C1843 C1838 1.379 . S
C1843 N1841 1.356 . S
N1844 C1836 1.356 . S
N1844 H1850 0.984 . S
N1844 H1851 0.984 . S
N1845 C1838 1.356 . S
N1845 H1848 0.984 . S
N1845 H1849 0.985 . S
H1846 N1841 0.984 . S
H1847 N1841 0.985 . S
H1848 N1845 0.984 . S
H1849 N1845 0.985 . S
H1850 N1844 0.984 . S
H1851 N1844 0.984 . S
H1852 N1840 0.984 . S
H1853 N1840 0.985 . S
C1854 C1855 1.363 . S
C1854 C1860 1.379 . S
C1854 N1862 1.356 . S
C1855 C1854 1.363 . S
C1855 C1861 1.363 . S
C1856 C1857 1.363 . S
C1856 C1861 1.379 . S
C1856 N1863 1.356 . S
C1857 C1856 1.363 . S
C1857 C1860 1.363 . S
N1858 C1860 1.356 . S
N1858 H1870 0.984 . S
N1858 H1871 0.985 . S
N1859 C1861 1.356 . S
N1859 H1864 0.984 . S
N1859 H1865 0.985 . S
C1860 C1854 1.379 . S
C1860 C1857 1.363 . S
C1860 N1858 1.356 . S
C1861 C1855 1.363 . S
C1861 C1856 1.379 . S
C1861 N1859 1.356 . S
N1862 C1854 1.356 . S
N1862 H1868 0.984 . S
N1862 H1869 0.984 . S
N1863 C1856 1.356 . S
N1863 H1866 0.984 . S
N1863 H1867 0.985 . S
H1864 N1859 0.984 . S
H1865 N1859 0.985 . S
H1866 N1863 0.984 . S
H1867 N1863 0.985 . S
H1868 N1862 0.984 . S
H1869 N1862 0.984 . S
H1870 N1858 0.984 . S
H1871 N1858 0.985 . S
C1872 C1873 1.363 . S
C1872 C1878 1.379 . S
C1872 N1880 1.356 . S
C1873 C1872 1.363 . S
C1873 C1879 1.363 . S
C1874 C1875 1.363 . S
C1874 C1879 1.379 . S
C1874 N1881 1.356 . S
C1875 C1874 1.363 . S
C1875 C1878 1.363 . S
N1876 C1878 1.356 . S
N1876 H1888 0.984 . S
N1876 H1889 0.985 . S
N1877 C1879 1.356 . S
N1877 H1882 0.984 . S
N1877 H1883 0.985 . S
C1878 C1872 1.379 . S
C1878 C1875 1.363 . S
C1878 N1876 1.356 . S
C1879 C1873 1.363 . S
C1879 C1874 1.379 . S
C1879 N1877 1.356 . S
N1880 C1872 1.356 . S
N1880 H1886 0.984 . S
N1880 H1887 0.984 . S
N1881 C1874 1.356 . S
N1881 H1884 0.984 . S
N1881 H1885 0.985 . S
H1882 N1877 0.984 . S
H1883 N1877 0.985 . S
H1884 N1881 0.984 . S
H1885 N1881 0.985 . S
H1886 N1880 0.984 . S
H1887 N1880 0.984 . S
H1888 N1876 0.984 . S
H1889 N1876 0.985 . S
C1890 C1891 1.363 . S
C1890 C1896 1.379 . S
C1890 N1898 1.356 . S
C1891 C1890 1.363 . S
C1891 C1897 1.363 . S
C1892 C1893 1.363 . S
C1892 C1897 1.379 . S
C1892 N1899 1.356 . S
C1893 C1892 1.363 . S
C1893 C1896 1.363 . S
N1894 C1896 1.356 . S
N1894 H1906 0.984 . S
N1894 H1907 0.985 . S
N1895 C1897 1.356 . S
N1895 H1900 0.984 . S
N1895 H1901 0.985 . S
C1896 C1890 1.379 . S
C1896 C1893 1.363 . S
C1896 N1894 1.356 . S
C1897 C1891 1.363 . S
C1897 C1892 1.379 . S
C1897 N1895 1.356 . S
N1898 C1890 1.356 . S
N1898 H1904 0.984 . S
N1898 H1905 0.984 . S
N1899 C1892 1.356 . S
N1899 H1902 0.984 . S
N1899 H1903 0.985 . S
H1900 N1895 0.984 . S
H1901 N1895 0.985 . S
H1902 N1899 0.984 . S
H1903 N1899 0.985 . S
H1904 N1898 0.984 . S
H1905 N1898 0.984 . S
H1906 N1894 0.984 . S
H1907 N1894 0.985 . S
C1908 C1909 1.363 . S
C1908 C1914 1.379 . S
C1908 N1916 1.356 . S
C1909 C1908 1.363 . S
C1909 C1915 1.363 . S
C1910 C1911 1.363 . S
C1910 C1915 1.379 . S
C1910 N1917 1.356 . S
C1911 C1910 1.363 . S
C1911 C1914 1.363 . S
N1912 C1914 1.356 . S
N1912 H1924 0.984 . S
N1912 H1925 0.985 . S
N1913 C1915 1.356 . S
N1913 H1918 0.984 . S
N1913 H1919 0.985 . S
C1914 C1908 1.379 . S
C1914 C1911 1.363 . S
C1914 N1912 1.356 . S
C1915 C1909 1.363 . S
C1915 C1910 1.379 . S
C1915 N1913 1.356 . S
N1916 C1908 1.356 . S
N1916 H1922 0.984 . S
N1916 H1923 0.984 . S
N1917 C1910 1.356 . S
N1917 H1920 0.984 . S
N1917 H1921 0.985 . S
H1918 N1913 0.984 . S
H1919 N1913 0.985 . S
H1920 N1917 0.984 . S
H1921 N1917 0.985 . S
H1922 N1916 0.984 . S
H1923 N1916 0.984 . S
H1924 N1912 0.984 . S
H1925 N1912 0.985 . S
C1926 C1927 1.363 . S
C1926 C1932 1.379 . S
C1926 N1934 1.356 . S
C1927 C1926 1.363 . S
C1927 C1933 1.363 . S
C1928 C1929 1.363 . S
C1928 C1933 1.379 . S
C1928 N1935 1.356 . S
C1929 C1928 1.363 . S
C1929 C1932 1.363 . S
N1930 C1932 1.356 . S
N1930 H1942 0.984 . S
N1930 H1943 0.985 . S
N1931 C1933 1.356 . S
N1931 H1936 0.984 . S
N1931 H1937 0.985 . S
C1932 C1926 1.379 . S
C1932 C1929 1.363 . S
C1932 N1930 1.356 . S
C1933 C1927 1.363 . S
C1933 C1928 1.379 . S
C1933 N1931 1.356 . S
N1934 C1926 1.356 . S
N1934 H1940 0.984 . S
N1934 H1941 0.984 . S
N1935 C1928 1.356 . S
N1935 H1938 0.984 . S
N1935 H1939 0.985 . S
H1936 N1931 0.984 . S
H1937 N1931 0.985 . S
H1938 N1935 0.984 . S
H1939 N1935 0.985 . S
H1940 N1934 0.984 . S
H1941 N1934 0.984 . S
H1942 N1930 0.984 . S
H1943 N1930 0.985 . S
C1944 C1945 1.363 . S
C1944 C1950 1.379 . S
C1944 N1952 1.356 . S
C1945 C1944 1.363 . S
C1945 C1951 1.363 . S
C1946 C1947 1.363 . S
C1946 C1951 1.379 . S
C1946 N1953 1.356 . S
C1947 C1946 1.363 . S
C1947 C1950 1.363 . S
N1948 C1950 1.356 . S
N1948 H1960 0.984 . S
N1948 H1961 0.985 . S
N1949 C1951 1.356 . S
N1949 H1954 0.984 . S
N1949 H1955 0.985 . S
C1950 C1944 1.379 . S
C1950 C1947 1.363 . S
C1950 N1948 1.356 . S
C1951 C1945 1.363 . S
C1951 C1946 1.379 . S
C1951 N1949 1.356 . S
N1952 C1944 1.356 . S
N1952 H1958 0.984 . S
N1952 H1959 0.984 . S
N1953 C1946 1.356 . S
N1953 H1956 0.984 . S
N1953 H1957 0.985 . S
H1954 N1949 0.984 . S
H1955 N1949 0.985 . S
H1956 N1953 0.984 . S
H1957 N1953 0.985 . S
H1958 N1952 0.984 . S
H1959 N1952 0.984 . S
H1960 N1948 0.984 . S
H1961 N1948 0.985 . S
C1962 C1963 1.363 . S
C1962 C1968 1.379 . S
C1962 N1970 1.356 . S
C1963 C1962 1.363 . S
C1963 C1969 1.363 . S
C1964 C1965 1.363 . S
C1964 C1969 1.379 . S
C1964 N1971 1.356 . S
C1965 C1964 1.363 . S
C1965 C1968 1.363 . S
N1966 C1968 1.356 . S
N1966 H1978 0.984 . S
N1966 H1979 0.985 . S
N1967 C1969 1.356 . S
N1967 H1972 0.984 . S
N1967 H1973 0.985 . S
C1968 C1962 1.379 . S
C1968 C1965 1.363 . S
C1968 N1966 1.356 . S
C1969 C1963 1.363 . S
C1969 C1964 1.379 . S
C1969 N1967 1.356 . S
N1970 C1962 1.356 . S
N1970 H1976 0.984 . S
N1970 H1977 0.984 . S
N1971 C1964 1.356 . S
N1971 H1974 0.984 . S
N1971 H1975 0.985 . S
H1972 N1967 0.984 . S
H1973 N1967 0.985 . S
H1974 N1971 0.984 . S
H1975 N1971 0.985 . S
H1976 N1970 0.984 . S
H1977 N1970 0.984 . S
H1978 N1966 0.984 . S
H1979 N1966 0.985 . S
C1980 C1981 1.363 . S
C1980 C1986 1.379 . S
C1980 N1988 1.356 . S
C1981 C1980 1.363 . S
C1981 C1987 1.363 . S
C1982 C1983 1.363 . S
C1982 C1987 1.379 . S
C1982 N1989 1.356 . S
C1983 C1982 1.363 . S
C1983 C1986 1.363 . S
N1984 C1986 1.356 . S
N1984 H1996 0.984 . S
N1984 H1997 0.985 . S
N1985 C1987 1.356 . S
N1985 H1990 0.984 . S
N1985 H1991 0.985 . S
C1986 C1980 1.379 . S
C1986 C1983 1.363 . S
C1986 N1984 1.356 . S
C1987 C1981 1.363 . S
C1987 C1982 1.379 . S
C1987 N1985 1.356 . S
N1988 C1980 1.356 . S
N1988 H1994 0.984 . S
N1988 H1995 0.984 . S
N1989 C1982 1.356 . S
N1989 H1992 0.984 . S
N1989 H1993 0.985 . S
H1990 N1985 0.984 . S
H1991 N1985 0.985 . S
H1992 N1989 0.984 . S
H1993 N1989 0.985 . S
H1994 N1988 0.984 . S
H1995 N1988 0.984 . S
H1996 N1984 0.984 . S
H1997 N1984 0.985 . S
C1998 C1999 1.363 . S
C1998 C2004 1.379 . S
C1998 N2006 1.356 . S
C1999 C1998 1.363 . S
C1999 C2005 1.363 . S
C2000 C2001 1.363 . S
C2000 C2005 1.379 . S
C2000 N2007 1.356 . S
C2001 C2000 1.363 . S
C2001 C2004 1.363 . S
N2002 C2004 1.356 . S
N2002 H2014 0.984 . S
N2002 H2015 0.985 . S
N2003 C2005 1.356 . S
N2003 H2008 0.984 . S
N2003 H2009 0.985 . S
C2004 C1998 1.379 . S
C2004 C2001 1.363 . S
C2004 N2002 1.356 . S
C2005 C1999 1.363 . S
C2005 C2000 1.379 . S
C2005 N2003 1.356 . S
N2006 C1998 1.356 . S
N2006 H2012 0.984 . S
N2006 H2013 0.984 . S
N2007 C2000 1.356 . S
N2007 H2010 0.984 . S
N2007 H2011 0.985 . S
H2008 N2003 0.984 . S
H2009 N2003 0.985 . S
H2010 N2007 0.984 . S
H2011 N2007 0.985 . S
H2012 N2006 0.984 . S
H2013 N2006 0.984 . S
H2014 N2002 0.984 . S
H2015 N2002 0.985 . S
C2016 C2017 1.363 . S
C2016 C2022 1.379 . S
C2016 N2024 1.356 . S
C2017 C2016 1.363 . S
C2017 C2023 1.363 . S
C2018 C2019 1.363 . S
C2018 C2023 1.379 . S
C2018 N2025 1.356 . S
C2019 C2018 1.363 . S
C2019 C2022 1.363 . S
N2020 C2022 1.356 . S
N2020 H2032 0.984 . S
N2020 H2033 0.985 . S
N2021 C2023 1.356 . S
N2021 H2026 0.984 . S
N2021 H2027 0.985 . S
C2022 C2016 1.379 . S
C2022 C2019 1.363 . S
C2022 N2020 1.356 . S
C2023 C2017 1.363 . S
C2023 C2018 1.379 . S
C2023 N2021 1.356 . S
N2024 C2016 1.356 . S
N2024 H2030 0.984 . S
N2024 H2031 0.984 . S
N2025 C2018 1.356 . S
N2025 H2028 0.984 . S
N2025 H2029 0.985 . S
H2026 N2021 0.984 . S
H2027 N2021 0.985 . S
H2028 N2025 0.984 . S
H2029 N2025 0.985 . S
H2030 N2024 0.984 . S
H2031 N2024 0.984 . S
H2032 N2020 0.984 . S
H2033 N2020 0.985 . S
C2034 C2035 1.363 . S
C2034 C2040 1.379 . S
C2034 N2042 1.356 . S
C2035 C2034 1.363 . S
C2035 C2041 1.363 . S
C2036 C2037 1.363 . S
C2036 C2041 1.379 . S
C2036 N2043 1.356 . S
C2037 C2036 1.363 . S
C2037 C2040 1.363 . S
N2038 C2040 1.356 . S
N2038 H2050 0.984 . S
N2038 H2051 0.985 . S
N2039 C2041 1.356 . S
N2039 H2044 0.984 . S
N2039 H2045 0.985 . S
C2040 C2034 1.379 . S
C2040 C2037 1.363 . S
C2040 N2038 1.356 . S
C2041 C2035 1.363 . S
C2041 C2036 1.379 . S
C2041 N2039 1.356 . S
N2042 C2034 1.356 . S
N2042 H2048 0.984 . S
N2042 H2049 0.984 . S
N2043 C2036 1.356 . S
N2043 H2046 0.984 . S
N2043 H2047 0.985 . S
H2044 N2039 0.984 . S
H2045 N2039 0.985 . S
H2046 N2043 0.984 . S
H2047 N2043 0.985 . S
H2048 N2042 0.984 . S
H2049 N2042 0.984 . S
H2050 N2038 0.984 . S
H2051 N2038 0.985 . S
C759 C462 1.730 . S
C757 C439 1.735 . S
C775 C401 1.840 . S
C777 C460 1.836 . S
C795 C461 1.836 . S
C793 C382 1.840 . S
C811 C420 1.736 . S
C813 C463 1.730 . S
C831 C507 1.714 . S
C829 C306 1.724 . S
C849 C567 1.787 . S
C847 C325 1.798 . S
C865 C344 1.686 . S
C867 C506 1.681 . S
C885 C566 1.890 . S
C883 C363 1.898 . S
C901 C230 1.807 . S
C903 C508 1.801 . S
C921 C564 1.748 . S
C919 C249 1.749 . S
C937 C268 1.819 . S
C939 C509 1.810 . S
C955 C287 1.653 . S
C957 C565 1.647 . S
C975 C615 1.730 . S
C973 C211 1.735 . S
C991 C173 1.840 . S
C993 C614 1.836 . S
C1009 C154 1.840 . S
C1011 C616 1.836 . S
C1029 C617 1.730 . S
C1027 C192 1.736 . S
C1045 C78 1.724 . S
C1047 C658 1.713 . S
C1063 C97 1.797 . S
C1065 C717 1.787 . S
C1081 C116 1.686 . S
C1083 C656 1.681 . S
C1099 C135 1.898 . S
C1101 C716 1.890 . S
C1119 C657 1.801 . S
C1117 C2 1.807 . S
C1137 C714 1.748 . S
C1135 C21 1.750 . S
C1153 C40 1.819 . S
C1155 C659 1.810 . S
C1173 C715 1.647 . S
C1171 C59 1.653 . S
C1191 C459 1.608 . S
C1189 C6 1.590 . S
C1207 C30 1.444 . S
C1209 C465 1.474 . S
C1225 C49 1.387 . S
C1227 C457 1.401 . S
C1243 C68 1.322 1_545 S
C1245 C464 1.350 . S
C1261 C82 1.567 . S
C1263 C456 1.586 . S
C1281 C466 1.401 . S
C1279 C106 1.381 . S
C1297 C125 1.363 . S
C1299 C458 1.386 . S
C1317 C467 1.795 . S
C1315 C139 1.786 . S
C1335 C513 1.555 . S
C1333 C63 1.522 1_545 S
C1351 C11 1.382 1_455 S
C1353 C556 1.412 . S
C1371 C511 1.537 . S
C1369 C25 1.505 . S
C1389 C558 1.626 . S
C1387 C44 1.608 . S
C1405 C101 1.627 . S
C1407 C512 1.646 . S
C1425 C557 1.483 . S
C1423 C120 1.453 . S
C1443 C510 1.418 . S
C1441 C144 1.396 . S
C1461 C559 1.351 . S
C1459 C87 1.328 1_455 S
C1479 C563 1.469 . S
C1477 C163 1.440 . S
C1495 C182 1.435 1_554 S
C1497 C562 1.471 . S
C1515 C514 1.709 . S
C1513 C158 1.687 . S
C1533 C561 1.678 . S
C1531 C196 1.655 . S
C1549 C220 1.393 . S
C1551 C517 1.414 . S
C1567 C215 1.655 . S
C1569 C560 1.678 . S
C1587 C516 1.710 . S
C1585 C177 1.689 . S
C1605 C515 1.415 . S
C1603 C201 1.387 . S
C1623 C609 1.608 . S
C1621 C234 1.590 . S
C1641 C612 1.474 . S
C1639 C258 1.440 . S
C1657 C277 1.378 . S
C1659 C608 1.401 . S
C1677 C610 1.350 . S
C1675 C296 1.326 . S
C1695 C606 1.586 . S
C1693 C310 1.567 . S
C1711 C334 1.375 . S
C1713 C611 1.401 . S
C1729 C353 1.363 . S
C1731 C607 1.386 . S
C1749 C613 1.795 . S
C1747 C367 1.786 . S
C1767 C667 1.555 . S
C1765 C291 1.522 . S
C1783 C239 1.382 . S
C1785 C706 1.412 . S
C1803 C666 1.537 . S
C1801 C253 1.505 . S
C1821 C708 1.626 . S
C1819 C272 1.608 . S
C1839 C665 1.646 . S
C1837 C329 1.626 . S
C1855 C348 1.453 . S
C1857 C707 1.483 . S
C1875 C664 1.418 . S
C1873 C372 1.392 . S
C1893 C709 1.350 . S
C1891 C315 1.328 . S
C1911 C713 1.469 . S
C1909 C391 1.440 . S
C1927 C410 1.435 . S
C1929 C712 1.471 . S
C1947 C660 1.709 . S
C1945 C386 1.687 . S
C1963 C424 1.655 . S
C1965 C711 1.678 . S
C1983 C663 1.414 . S
C1981 C448 1.393 . S
C2001 C710 1.678 . S
C1999 C443 1.655 . S
C2019 C661 1.710 . S
C2017 C405 1.689 . S
C2035 C429 1.387 . S
C2037 C662 1.415 . S
