# Generated by pormake.
# Topology pyr, (3,6)-cn, num edge types: 1
# Building blocks:
#     Node 0, Type 0, BuildingBlock: KAKCAD_clean_linker_0, # of connection points: 3
#     Node 1, Type 0, BuildingBlock: KAKCAD_clean_linker_0, # of connection points: 3
#     Node 2, Type 0, BuildingBlock: KAKCAD_clean_linker_0, # of connection points: 3
#     Node 3, Type 0, BuildingBlock: KAKCAD_clean_linker_0, # of connection points: 3
#     Node 4, Type 0, BuildingBlock: KAKCAD_clean_linker_0, # of connection points: 3
#     Node 5, Type 0, BuildingBlock: KAKCAD_clean_linker_0, # of connection points: 3
#     Node 6, Type 0, BuildingBlock: KAKCAD_clean_linker_0, # of connection points: 3
#     Node 7, Type 0, BuildingBlock: KAKCAD_clean_linker_0, # of connection points: 3
#     Node 8, Type 1, BuildingBlock: CIFDUS_clean_sbu_1, # of connection points: 6
#     Node 9, Type 1, BuildingBlock: CIFDUS_clean_sbu_1, # of connection points: 6
#     Node 10, Type 1, BuildingBlock: CIFDUS_clean_sbu_1, # of connection points: 6
#     Node 11, Type 1, BuildingBlock: CIFDUS_clean_sbu_1, # of connection points: 6
#     Edge 12, Type (0, 1), BuildingBlock: XIVTED_clean_linker_0, # of connection points: 2
#     Edge 13, Type (0, 1), BuildingBlock: XIVTED_clean_linker_0, # of connection points: 2
#     Edge 14, Type (0, 1), BuildingBlock: XIVTED_clean_linker_0, # of connection points: 2
#     Edge 15, Type (0, 1), BuildingBlock: XIVTED_clean_linker_0, # of connection points: 2
#     Edge 16, Type (0, 1), BuildingBlock: XIVTED_clean_linker_0, # of connection points: 2
#     Edge 17, Type (0, 1), BuildingBlock: XIVTED_clean_linker_0, # of connection points: 2
#     Edge 18, Type (0, 1), BuildingBlock: XIVTED_clean_linker_0, # of connection points: 2
#     Edge 19, Type (0, 1), BuildingBlock: XIVTED_clean_linker_0, # of connection points: 2
#     Edge 20, Type (0, 1), BuildingBlock: XIVTED_clean_linker_0, # of connection points: 2
#     Edge 21, Type (0, 1), BuildingBlock: XIVTED_clean_linker_0, # of connection points: 2
#     Edge 22, Type (0, 1), BuildingBlock: XIVTED_clean_linker_0, # of connection points: 2
#     Edge 23, Type (0, 1), BuildingBlock: XIVTED_clean_linker_0, # of connection points: 2
#     Edge 24, Type (0, 1), BuildingBlock: XIVTED_clean_linker_0, # of connection points: 2
#     Edge 25, Type (0, 1), BuildingBlock: XIVTED_clean_linker_0, # of connection points: 2
#     Edge 26, Type (0, 1), BuildingBlock: XIVTED_clean_linker_0, # of connection points: 2
#     Edge 27, Type (0, 1), BuildingBlock: XIVTED_clean_linker_0, # of connection points: 2
#     Edge 28, Type (0, 1), BuildingBlock: XIVTED_clean_linker_0, # of connection points: 2
#     Edge 29, Type (0, 1), BuildingBlock: XIVTED_clean_linker_0, # of connection points: 2
#     Edge 30, Type (0, 1), BuildingBlock: XIVTED_clean_linker_0, # of connection points: 2
#     Edge 31, Type (0, 1), BuildingBlock: XIVTED_clean_linker_0, # of connection points: 2
#     Edge 32, Type (0, 1), BuildingBlock: XIVTED_clean_linker_0, # of connection points: 2
#     Edge 33, Type (0, 1), BuildingBlock: XIVTED_clean_linker_0, # of connection points: 2
#     Edge 34, Type (0, 1), BuildingBlock: XIVTED_clean_linker_0, # of connection points: 2
#     Edge 35, Type (0, 1), BuildingBlock: XIVTED_clean_linker_0, # of connection points: 2
# Relax obj value: 0.035
# Max RMSD: 0.111
# Mean RMSD: 0.045
data_MOF--net-pry--node1-CIFDUS_clean_sbu_1--node2-KAKCAD_clean_linker_0--edge1-XIVTED_clean_linker_0
_symmetry_space_group_name_H-M    P1
_symmetry_Int_Tables_number       1
_symmetry_cell_setting            triclinic
loop_
_symmetry_equiv_pos_as_xyz
'x, y, z'
_cell_length_a     45.915571
_cell_length_b     44.269835
_cell_length_c     43.856937
_cell_angle_alpha  92.626449
_cell_angle_beta   90.767038
_cell_angle_gamma 93.392679
loop_
_atom_site_label
_atom_site_type_symbol
_atom_site_fract_x
_atom_site_fract_y
_atom_site_fract_z
_atom_type_partial_charge
C0 C 0.08489 0.11542 0.2263 0.0
C1 C 0.10407 0.10943 0.25036 0.0
C2 C 0.09561 0.12554 0.19852 0.0
C3 C 0.12581 0.1298 0.19396 0.0
C4 C 0.14496 0.12385 0.218 0.0
C5 C 0.13426 0.11385 0.24576 0.0
C6 C 0.13753 0.14024 0.16433 0.0
C7 C 0.12469 0.16348 0.14892 0.0
C8 C 0.13675 0.17442 0.12185 0.0
C9 C 0.16169 0.16125 0.1099 0.0
C10 C 0.17469 0.13779 0.12478 0.0
C11 C 0.16232 0.12749 0.15186 0.0
C12 C 0.2015 0.12423 0.11264 0.0
C13 C 0.20416 0.11661 0.08135 0.0
C14 C 0.22449 0.11819 0.13255 0.0
C15 C 0.24933 0.10466 0.12159 0.0
C16 C 0.25191 0.09653 0.09036 0.0
C17 C 0.1242 0.20063 0.107 0.0
C18 C 0.09384 0.20222 0.10315 0.0
C19 C 0.14256 0.22479 0.09737 0.0
C20 C 0.13093 0.2501 0.08478 0.0
C21 C 0.10057 0.25194 0.08121 0.0
C22 C 0.08219 0.22745 0.09026 0.0
C23 C 0.22898 0.10285 0.07037 0.0
H24 H 0.06152 0.11186 0.22872 0.0
H25 H 0.08024 0.12953 0.1804 0.0
H26 H 0.16834 0.12738 0.21556 0.0
H27 H 0.14975 0.11009 0.26382 0.0
H28 H 0.10604 0.174 0.15874 0.0
H29 H 0.17187 0.10906 0.16311 0.0
H30 H 0.17123 0.16957 0.0892 0.0
H31 H 0.18675 0.12066 0.06543 0.0
H32 H 0.22344 0.12423 0.15671 0.0
H33 H 0.2667 0.10096 0.13768 0.0
H34 H 0.07907 0.18393 0.11013 0.0
H35 H 0.16601 0.22449 0.10022 0.0
H36 H 0.22987 0.09667 0.04625 0.0
H37 H 0.05871 0.22808 0.08809 0.0
H38 H 0.14583 0.26827 0.07778 0.0
C39 C 0.39058 0.93929 0.72958 0.0
C40 C 0.4204 0.94855 0.73225 0.0
C41 C 0.37906 0.92563 0.70236 0.0
C42 C 0.39711 0.92051 0.67728 0.0
C43 C 0.42691 0.9294 0.67987 0.0
C44 C 0.43839 0.9435 0.70695 0.0
C45 C 0.38472 0.90605 0.64847 0.0
C46 C 0.35898 0.91623 0.63589 0.0
C47 C 0.34635 0.90211 0.60921 0.0
C48 C 0.35982 0.87765 0.59511 0.0
C49 C 0.3851 0.86652 0.6078 0.0
C50 C 0.39777 0.88127 0.63426 0.0
C51 C 0.39644 0.83796 0.59485 0.0
C52 C 0.37674 0.81409 0.58443 0.0
C53 C 0.42656 0.83383 0.59341 0.0
C54 C 0.43663 0.80623 0.5822 0.0
C55 C 0.41674 0.7823 0.57222 0.0
C56 C 0.31806 0.91136 0.59703 0.0
C57 C 0.29508 0.91718 0.61689 0.0
C58 C 0.31325 0.91269 0.5654 0.0
C59 C 0.28588 0.91904 0.55386 0.0
C60 C 0.26272 0.92419 0.57369 0.0
C61 C 0.26772 0.92352 0.60535 0.0
C62 C 0.38674 0.78685 0.57299 0.0
H63 H 0.37613 0.94207 0.74867 0.0
H64 H 0.35606 0.91858 0.70107 0.0
H65 H 0.44123 0.92592 0.66076 0.0
H66 H 0.46133 0.95073 0.70786 0.0
H67 H 0.34887 0.93533 0.64682 0.0
H68 H 0.41687 0.87256 0.64474 0.0
H69 H 0.34993 0.8665 0.5747 0.0
H70 H 0.3534 0.81611 0.58569 0.0
H71 H 0.44232 0.85185 0.60102 0.0
H72 H 0.45989 0.80342 0.58207 0.0
H73 H 0.29798 0.91602 0.64135 0.0
H74 H 0.3306 0.90857 0.54953 0.0
H75 H 0.37077 0.76918 0.56498 0.0
H76 H 0.25046 0.92787 0.62126 0.0
H77 H 0.28272 0.91925 0.52936 0.0
C78 C 0.71638 0.45387 0.91885 0.0
C79 C 0.73695 0.43293 0.92645 0.0
C80 C 0.68903 0.44381 0.90636 0.0
C81 C 0.68175 0.41266 0.90155 0.0
C82 C 0.70239 0.3919 0.90912 0.0
C83 C 0.72947 0.40186 0.92155 0.0
C84 C 0.65322 0.40109 0.88803 0.0
C85 C 0.64239 0.41269 0.86115 0.0
C86 C 0.61861 0.39759 0.84508 0.0
C87 C 0.60547 0.37098 0.85653 0.0
C88 C 0.61623 0.35916 0.88327 0.0
C89 C 0.63917 0.37514 0.89952 0.0
C90 C 0.60708 0.32798 0.8917 0.0
C91 C 0.57764 0.31725 0.8908 0.0
C92 C 0.62852 0.30817 0.89943 0.0
C93 C 0.62083 0.27847 0.90646 0.0
C94 C 0.59146 0.26767 0.90597 0.0
C95 C 0.6102 0.40722 0.81438 0.0
C96 C 0.60834 0.43802 0.80867 0.0
C97 C 0.60556 0.38556 0.79009 0.0
C98 C 0.59966 0.39447 0.76066 0.0
C99 C 0.59823 0.42527 0.75477 0.0
C100 C 0.60234 0.44695 0.77918 0.0
C101 C 0.56988 0.28734 0.89797 0.0
H102 H 0.72157 0.47799 0.9221 0.0
H103 H 0.67356 0.4603 0.90064 0.0
H104 H 0.69774 0.36776 0.90511 0.0
H105 H 0.74452 0.38506 0.9275 0.0
H106 H 0.65388 0.432 0.85147 0.0
H107 H 0.64737 0.3662 0.92036 0.0
H108 H 0.58799 0.3585 0.84366 0.0
H109 H 0.56068 0.33202 0.88485 0.0
H110 H 0.65148 0.3154 0.89943 0.0
H111 H 0.63807 0.26381 0.91179 0.0
H112 H 0.61158 0.45519 0.82699 0.0
H113 H 0.60745 0.36169 0.79356 0.0
H114 H 0.54701 0.27978 0.89766 0.0
H115 H 0.60083 0.47084 0.77554 0.0
H116 H 0.59703 0.3772 0.74238 0.0
C117 C 0.87824 0.58094 0.28912 0.0
C118 C 0.90754 0.58209 0.28013 0.0
C119 C 0.87093 0.58858 0.31922 0.0
C120 C 0.89273 0.59744 0.34124 0.0
C121 C 0.9221 0.59784 0.33244 0.0
C122 C 0.92941 0.59031 0.30226 0.0
C123 C 0.88467 0.60752 0.37281 0.0
C124 C 0.86056 0.59346 0.3871 0.0
C125 C 0.85106 0.60459 0.41554 0.0
C126 C 0.86655 0.62955 0.43029 0.0
C127 C 0.89068 0.64412 0.41647 0.0
C128 C 0.89967 0.63275 0.38782 0.0
C129 C 0.90491 0.67268 0.43063 0.0
C130 C 0.88797 0.69488 0.44432 0.0
C131 C 0.93529 0.67866 0.42938 0.0
C132 C 0.94829 0.70632 0.44098 0.0
C133 C 0.93126 0.72881 0.45409 0.0
C134 C 0.82313 0.59242 0.42822 0.0
C135 C 0.79813 0.58842 0.40928 0.0
C136 C 0.82058 0.58696 0.45945 0.0
C137 C 0.79338 0.57853 0.47162 0.0
C138 C 0.76826 0.57597 0.45283 0.0
C139 C 0.77099 0.58045 0.42149 0.0
C140 C 0.90095 0.72252 0.45589 0.0
H141 H 0.86079 0.57507 0.27266 0.0
H142 H 0.84805 0.58848 0.32492 0.0
H143 H 0.93949 0.60403 0.34887 0.0
H144 H 0.95223 0.59088 0.29628 0.0
H145 H 0.84879 0.574 0.37589 0.0
H146 H 0.91736 0.64465 0.37638 0.0
H147 H 0.85906 0.63838 0.45207 0.0
H148 H 0.86446 0.69138 0.4452 0.0
H149 H 0.94906 0.66195 0.41937 0.0
H150 H 0.97175 0.71008 0.43962 0.0
H151 H 0.79932 0.59268 0.38519 0.0
H152 H 0.83953 0.5897 0.47452 0.0
H153 H 0.88699 0.73936 0.46528 0.0
H154 H 0.75198 0.57829 0.40647 0.0
H155 H 0.79179 0.57514 0.49586 0.0
C156 C 0.91023 0.88589 0.77704 0.0
C157 C 0.91032 0.91657 0.76988 0.0
C158 C 0.90007 0.87629 0.80522 0.0
C159 C 0.88992 0.8971 0.82731 0.0
C160 C 0.89039 0.92785 0.82033 0.0
C161 C 0.90023 0.93738 0.79204 0.0
C162 C 0.87803 0.88662 0.857 0.0
C163 C 0.88992 0.8623 0.87155 0.0
C164 C 0.87756 0.85061 0.89823 0.0
C165 C 0.85317 0.86443 0.91072 0.0
C166 C 0.84166 0.88952 0.89725 0.0
C167 C 0.85411 0.9003 0.87045 0.0
C168 C 0.81589 0.90403 0.9104 0.0
C169 C 0.78979 0.88679 0.91509 0.0
C170 C 0.81684 0.93547 0.91708 0.0
C171 C 0.79216 0.94938 0.92815 0.0
C172 C 0.76583 0.93224 0.93199 0.0
C173 C 0.88998 0.82383 0.91258 0.0
C174 C 0.9024 0.80103 0.89438 0.0
C175 C 0.88976 0.82072 0.94447 0.0
C176 C 0.90176 0.79579 0.95763 0.0
C177 C 0.91472 0.77353 0.93934 0.0
C178 C 0.91477 0.77647 0.90756 0.0
C179 C 0.76492 0.9008 0.92542 0.0
H180 H 0.91818 0.86915 0.76094 0.0
H181 H 0.89972 0.85236 0.80941 0.0
H182 H 0.88319 0.94472 0.83674 0.0
H183 H 0.89946 0.96114 0.78747 0.0
H184 H 0.90921 0.8527 0.8622 0.0
H185 H 0.84429 0.91872 0.85948 0.0
H186 H 0.84291 0.85567 0.93086 0.0
H187 H 0.7884 0.86258 0.90992 0.0
H188 H 0.8367 0.94929 0.91367 0.0
H189 H 0.7934 0.97366 0.93289 0.0
H190 H 0.90238 0.80187 0.86975 0.0
H191 H 0.88085 0.83783 0.95945 0.0
H192 H 0.7449 0.88708 0.92822 0.0
H193 H 0.9241 0.75948 0.89272 0.0
H194 H 0.90154 0.79432 0.98221 0.0
C195 C 0.60971 0.07222 0.30619 0.0
C196 C 0.60368 0.09069 0.28194 0.0
C197 C 0.61902 0.08521 0.33467 0.0
C198 C 0.62201 0.11688 0.3395 0.0
C199 C 0.6152 0.13526 0.31543 0.0
C200 C 0.60626 0.12232 0.28697 0.0
C201 C 0.63319 0.13101 0.36907 0.0
C202 C 0.65809 0.12063 0.38319 0.0
C203 C 0.67035 0.13576 0.40962 0.0
C204 C 0.65717 0.16115 0.42227 0.0
C205 C 0.63185 0.17146 0.40888 0.0
C206 C 0.62003 0.15617 0.38229 0.0
C207 C 0.61793 0.19841 0.42225 0.0
C208 C 0.61563 0.20305 0.45408 0.0
C209 C 0.60647 0.21957 0.40314 0.0
C210 C 0.59232 0.24424 0.41545 0.0
C211 C 0.58946 0.24851 0.44718 0.0
C212 C 0.69754 0.1256 0.42331 0.0
C213 C 0.70001 0.09497 0.42907 0.0
C214 C 0.72143 0.14628 0.42991 0.0
C215 C 0.74769 0.13631 0.44112 0.0
C216 C 0.75048 0.10547 0.44632 0.0
C217 C 0.72604 0.08507 0.44073 0.0
C218 C 0.60163 0.22794 0.46643 0.0
H219 H 0.60799 0.04778 0.30289 0.0
H220 H 0.62394 0.07051 0.35288 0.0
H221 H 0.61753 0.15972 0.31835 0.0
H222 H 0.60146 0.13712 0.26879 0.0
H223 H 0.66876 0.1016 0.37283 0.0
H224 H 0.60035 0.1637 0.37189 0.0
H225 H 0.66684 0.17301 0.44244 0.0
H226 H 0.624 0.18705 0.46945 0.0
H227 H 0.6085 0.21716 0.37858 0.0
H228 H 0.58369 0.2601 0.40007 0.0
H229 H 0.68175 0.07866 0.42459 0.0
H230 H 0.72011 0.17003 0.42546 0.0
H231 H 0.59962 0.23063 0.49097 0.0
H232 H 0.72696 0.0613 0.44522 0.0
H233 H 0.76603 0.15265 0.44475 0.0
C234 C 0.26467 0.60916 0.13123 0.0
C235 C 0.26135 0.6075 0.09932 0.0
C236 C 0.29025 0.62207 0.14504 0.0
C237 C 0.31337 0.63334 0.12728 0.0
C238 C 0.3099 0.63196 0.09526 0.0
C239 C 0.28403 0.61932 0.08142 0.0
C240 C 0.34066 0.6469 0.14236 0.0
C241 C 0.35151 0.63485 0.16909 0.0
C242 C 0.37593 0.64876 0.18477 0.0
C243 C 0.39001 0.67474 0.1733 0.0
C244 C 0.37955 0.68707 0.14662 0.0
C245 C 0.35507 0.6729 0.13115 0.0
C246 C 0.39264 0.71607 0.13609 0.0
C247 C 0.39709 0.74123 0.15669 0.0
C248 C 0.39928 0.71927 0.10518 0.0
C249 C 0.41002 0.74721 0.09505 0.0
C250 C 0.41374 0.77251 0.11555 0.0
C251 C 0.38561 0.63708 0.21409 0.0
C252 C 0.3654 0.63207 0.23737 0.0
C253 C 0.41495 0.6311 0.21913 0.0
C254 C 0.42382 0.61994 0.24688 0.0
C255 C 0.40362 0.61529 0.27023 0.0
C256 C 0.37438 0.62153 0.26531 0.0
C257 C 0.40732 0.76927 0.14645 0.0
H258 H 0.2473 0.60065 0.14558 0.0
H259 H 0.29171 0.62349 0.16973 0.0
H260 H 0.32733 0.64019 0.08086 0.0
H261 H 0.28204 0.61813 0.05675 0.0
H262 H 0.34095 0.61457 0.17786 0.0
H263 H 0.34637 0.68313 0.11126 0.0
H264 H 0.40863 0.68582 0.18559 0.0
H265 H 0.39191 0.73941 0.18059 0.0
H266 H 0.39611 0.70018 0.08889 0.0
H267 H 0.41488 0.74921 0.07109 0.0
H268 H 0.34269 0.63668 0.23407 0.0
H269 H 0.43089 0.63469 0.20146 0.0
H270 H 0.41034 0.78842 0.1627 0.0
H271 H 0.35842 0.61781 0.28293 0.0
H272 H 0.44648 0.61518 0.25023 0.0
C273 C 0.09348 0.29184 0.57064 0.0
C274 C 0.06299 0.28653 0.56918 0.0
C275 C 0.10618 0.31871 0.58405 0.0
C276 C 0.08884 0.34122 0.59644 0.0
C277 C 0.05833 0.33589 0.59549 0.0
C278 C 0.04553 0.30884 0.58195 0.0
C279 C 0.10309 0.36989 0.61023 0.0
C280 C 0.12742 0.3835 0.59603 0.0
C281 C 0.1441 0.40783 0.61034 0.0
C282 C 0.1354 0.41964 0.63885 0.0
C283 C 0.1107 0.40681 0.65334 0.0
C284 C 0.09448 0.38211 0.63867 0.0
C285 C 0.10353 0.41724 0.68498 0.0
C286 C 0.12562 0.42137 0.70761 0.0
C287 C 0.07455 0.42192 0.69317 0.0
C288 C 0.06784 0.43032 0.72336 0.0
C289 C 0.08993 0.4338 0.7459 0.0
C290 C 0.17244 0.41809 0.59703 0.0
C291 C 0.19154 0.39635 0.5866 0.0
C292 C 0.18111 0.44901 0.59533 0.0
C293 C 0.2085 0.45785 0.58363 0.0
C294 C 0.22776 0.43589 0.57406 0.0
C295 C 0.21884 0.40514 0.57536 0.0
C296 C 0.11885 0.42942 0.7378 0.0
H297 H 0.10772 0.27492 0.56194 0.0
H298 H 0.12977 0.32165 0.58512 0.0
H299 H 0.04437 0.3528 0.60479 0.0
H300 H 0.02197 0.30558 0.58117 0.0
H301 H 0.134 0.37448 0.57394 0.0
H302 H 0.07629 0.37122 0.65027 0.0
H303 H 0.14851 0.43803 0.65033 0.0
H304 H 0.14808 0.41754 0.70215 0.0
H305 H 0.05711 0.41905 0.67623 0.0
H306 H 0.04537 0.43362 0.72924 0.0
H307 H 0.18574 0.37238 0.58794 0.0
H308 H 0.16679 0.46625 0.60313 0.0
H309 H 0.13615 0.43191 0.75493 0.0
H310 H 0.23326 0.38778 0.56809 0.0
H311 H 0.21502 0.48174 0.58302 0.0
O312 O 0.96506 0.02849 0.50208 0.0
Mn313 Mn 0.00539 0.00854 0.50757 0.0
O314 O 0.94208 0.00233 0.46278 0.0
Mn315 Mn 0.97386 0.98216 0.45041 0.0
O316 O 0.04519 0.9881 0.51301 0.0
O317 O 0.02065 0.04733 0.53062 0.0
Mn318 Mn 0.04048 0.03664 0.56273 0.0
O319 O 0.98888 0.99022 0.54845 0.0
O320 O 0.07148 0.01559 0.54911 0.0
O321 O 0.02244 0.02794 0.46782 0.0
O322 O 1.00052 0.00329 0.42723 0.0
O323 O 0.04324 0.07791 0.56525 0.0
O324 O 0.01402 0.01631 0.58663 0.0
C325 C 0.98315 0.94245 0.47186 0.0
C326 C 0.94244 0.022 0.4848 0.0
C327 C 0.06882 0.99442 0.52859 0.0
C328 C 0.0274 0.07502 0.54053 0.0
C329 C 0.99383 0.9971 0.57712 0.0
C330 C 0.01916 0.02294 0.43881 0.0
O331 O 0.99078 0.96943 0.48373 0.0
O332 O 0.96982 0.94134 0.44558 0.0
O333 O 0.49698 0.01612 0.96131 0.0
Mn334 Mn 0.50917 0.01721 0.00774 0.0
O335 O 0.50747 0.96999 0.94195 0.0
Mn336 Mn 0.52321 0.95604 0.9771 0.0
O337 O 0.52229 0.01842 0.05408 0.0
O338 O 0.51321 0.06265 0.00714 0.0
Mn339 Mn 0.49717 0.07883 0.03981 0.0
O340 O 0.46441 0.01898 0.01919 0.0
O341 O 0.51841 0.06647 0.07232 0.0
O342 O 0.55411 0.01575 0.99615 0.0
O343 O 0.56198 0.96704 0.98395 0.0
O344 O 0.51105 0.11097 0.01815 0.0
O345 O 0.45816 0.06644 0.0379 0.0
C346 C 0.49711 0.94391 0.01445 0.0
C347 C 0.49804 0.9962 0.93909 0.0
C348 C 0.52625 0.03964 0.07508 0.0
C349 C 0.5195 0.09 0.99933 0.0
C350 C 0.44819 0.03991 0.02951 0.0
C351 C 0.57126 0.99431 0.98965 0.0
O352 O 0.50415 0.97162 0.00803 0.0
O353 O 0.50662 0.92337 0.99578 0.0
O354 O 0.54259 0.52428 0.51025 0.0
Mn355 Mn 0.49811 0.51125 0.51167 0.0
O356 O 0.55812 0.50446 0.46545 0.0
Mn357 Mn 0.5221 0.48912 0.45015 0.0
O358 O 0.45318 0.49735 0.51357 0.0
O359 O 0.50202 0.51216 0.55718 0.0
Mn360 Mn 0.47283 0.52951 0.57465 0.0
O361 O 0.4879 0.5569 0.51292 0.0
O362 O 0.44077 0.50459 0.56295 0.0
O363 O 0.50777 0.46502 0.51059 0.0
O364 O 0.51096 0.45074 0.46108 0.0
O365 O 0.49703 0.51959 0.60603 0.0
O366 O 0.4731 0.56817 0.56073 0.0
C367 C 0.48894 0.51805 0.43814 0.0
C368 C 0.56278 0.51873 0.49113 0.0
C369 C 0.4351 0.49445 0.53574 0.0
C370 C 0.51241 0.50865 0.58412 0.0
C371 C 0.47884 0.57545 0.53362 0.0
C372 C 0.50883 0.44446 0.48893 0.0
O373 O 0.49563 0.51219 0.46588 0.0
O374 O 0.50436 0.50512 0.41739 0.0
O375 O 0.95937 0.49324 1.00415 0.0
Mn376 Mn 0.0019 0.51121 0.01166 0.0
O377 O 0.94406 0.52052 0.96672 0.0
Mn378 Mn 0.98096 0.53067 0.95249 0.0
O379 O 0.04493 0.52757 0.02112 0.0
O380 O 0.99212 0.51388 0.05781 0.0
Mn381 Mn 0.01732 0.48836 0.07079 0.0
O382 O 0.01614 0.46585 0.01095 0.0
O383 O 0.05497 0.50308 0.06337 0.0
O384 O 0.98928 0.55756 0.01063 0.0
O385 O 0.99276 0.56987 0.96177 0.0
O386 O 1.0008 0.50007 0.10555 0.0
O387 O 0.0073 0.44963 0.05681 0.0
C388 C 0.00812 0.49549 0.93964 0.0
C389 C 0.93902 0.50208 0.98736 0.0
C390 C 0.0628 0.52015 0.04196 0.0
C391 C 0.98598 0.51552 0.08705 0.0
C392 C 0.01363 0.44408 0.02942 0.0
C393 C 0.99092 0.57762 0.98986 0.0
O394 O 0.01141 0.51091 0.96577 0.0
O395 O 0.98949 0.50567 0.92084 0.0
H396 H 0.05522 0.12644 0.28099 0.0
H397 H 0.07441 0.01534 0.41866 0.0
H398 H 0.127 0.06828 0.28811 0.0
H399 H 1.0007 0.06984 0.40785 0.0
H400 H 0.09682 0.03821 0.37387 0.0
H401 H 0.03695 0.1087 0.32942 0.0
C402 C 0.06712 0.10984 0.29259 0.0
C403 C 0.09273 0.09886 0.28016 0.0
C404 C 0.076 0.04562 0.38162 0.0
C405 C 0.07204 0.07872 0.33631 0.0
C406 C 0.06343 0.03284 0.40737 0.0
C407 C 0.03602 0.04126 0.41719 0.0
C408 C 0.06087 0.06676 0.36549 0.0
C409 C 0.02214 0.06323 0.40125 0.0
C410 C 0.05677 0.09988 0.32047 0.0
C411 C 0.1074 0.07776 0.29681 0.0
N412 N 0.03462 0.07511 0.37615 0.0
N413 N 0.09684 0.06836 0.3239 0.0
H414 H 0.39452 0.9869 0.77385 0.0
H415 H 0.53097 0.99342 0.8891 0.0
H416 H 0.47461 0.9425 0.7578 0.0
H417 H 0.44447 0.01194 0.91873 0.0
H418 H 0.51312 0.98845 0.83637 0.0
H419 H 0.41455 0.00715 0.82312 0.0
C420 C 0.41628 0.98138 0.78053 0.0
C421 C 0.43276 0.96269 0.76149 0.0
C422 C 0.49808 0.99421 0.85425 0.0
C423 C 0.45603 0.98669 0.81748 0.0
C424 C 0.50833 0.99738 0.88426 0.0
C425 C 0.48907 0.00303 0.90806 0.0
C426 C 0.46825 0.99634 0.84803 0.0
C427 C 0.45994 0.00777 0.90083 0.0
C428 C 0.42774 0.99322 0.80856 0.0
C429 C 0.46112 0.95708 0.77124 0.0
N430 N 0.45021 0.0038 0.87134 0.0
N431 N 0.47175 0.96894 0.79851 0.0
H432 H 0.62308 0.47418 0.72636 0.0
H433 H 0.51639 0.44798 0.58208 0.0
H434 H 0.5611 0.39757 0.71103 0.0
H435 H 0.56423 0.53237 0.60638 0.0
H436 H 0.54521 0.42299 0.61979 0.0
H437 H 0.61203 0.49039 0.67519 0.0
C438 C 0.60718 0.46073 0.71226 0.0
C439 C 0.59274 0.43466 0.72322 0.0
C440 C 0.5502 0.44675 0.6161 0.0
C441 C 0.58054 0.45272 0.66431 0.0
C442 C 0.53417 0.46084 0.59412 0.0
C443 C 0.53803 0.49219 0.59136 0.0
C444 C 0.57002 0.46434 0.63527 0.0
C445 C 0.56078 0.50807 0.60792 0.0
C446 C 0.60115 0.46981 0.68291 0.0
C447 C 0.5729 0.41772 0.70356 0.0
N448 N 0.57552 0.49414 0.62976 0.0
N449 N 0.5672 0.4272 0.67519 0.0
H450 H 0.88291 0.53795 0.24002 0.0
H451 H 0.99573 0.57359 0.10794 0.0
H452 H 0.94929 0.61129 0.24598 0.0
H453 H 0.93068 0.49944 0.10246 0.0
H454 H 0.97275 0.59378 0.15393 0.0
H455 H 0.8953 0.528 0.18665 0.0
C456 C 0.89993 0.55215 0.23007 0.0
C457 C 0.9151 0.57548 0.24765 0.0
C458 C 0.96282 0.57366 0.14213 0.0
C459 C 0.92947 0.56414 0.18633 0.0
C460 C 0.97553 0.56256 0.11539 0.0
C461 C 0.96475 0.53512 0.10109 0.0
C462 C 0.93931 0.55695 0.15475 0.0
C463 C 0.93928 0.52101 0.11248 0.0
C464 C 0.90702 0.54643 0.19954 0.0
C465 C 0.93728 0.59278 0.23352 0.0
N466 N 0.92776 0.53171 0.13898 0.0
N467 N 0.94384 0.5867 0.2038 0.0
H468 H 0.28498 0.05555 0.11875 0.0
H469 H 0.40641 0.05392 0.98926 0.0
H470 H 0.27995 0.10361 0.03553 0.0
H471 H 0.41839 0.01808 0.07782 0.0
H472 H 0.35571 0.06301 1.00183 0.0
H473 H 0.32998 0.03434 0.10097 0.0
C474 C 0.29324 0.06175 0.09675 0.0
C475 C 0.27854 0.08183 0.07886 0.0
C476 C 0.36912 0.05241 0.01827 0.0
C477 C 0.33009 0.05682 0.05799 0.0
C478 C 0.39791 0.04673 0.01086 0.0
C479 C 0.41634 0.03453 0.03225 0.0
C480 C 0.35878 0.04628 0.04752 0.0
C481 C 0.40463 0.02678 0.06042 0.0
C482 C 0.3189 0.04935 0.0865 0.0
C483 C 0.29017 0.08814 0.05015 0.0
N484 N 0.37671 0.03308 0.06738 0.0
N485 N 0.31523 0.07586 0.04075 0.0
H486 H 0.24914 0.95948 0.52628 0.0
H487 H 0.07735 0.94094 0.55372 0.0
H488 H 0.20941 0.90213 0.59309 0.0
H489 H 0.11793 0.00798 0.49734 0.0
H490 H 0.12465 0.91884 0.56017 0.0
H491 H 0.20055 0.97046 0.508 0.0
C492 C 0.23021 0.94895 0.53691 0.0
C493 C 0.23338 0.93009 0.56147 0.0
C494 C 0.12311 0.93789 0.54573 0.0
C495 C 0.17767 0.9427 0.54074 0.0
C496 C 0.09609 0.95018 0.54173 0.0
C497 C 0.09393 0.97587 0.52458 0.0
C498 C 0.14804 0.95166 0.53265 0.0
C499 C 0.11884 0.98782 0.51032 0.0
C500 C 0.20247 0.95531 0.52653 0.0
C501 C 0.20803 0.91728 0.57451 0.0
N502 N 0.14499 0.97577 0.51488 0.0
N503 N 0.18127 0.92395 0.5641 0.0
H504 H 0.75164 0.4796 0.96858 0.0
H505 H 0.92031 0.44336 0.97558 0.0
H506 H 0.78928 0.40907 0.9134 0.0
H507 H 0.89023 0.53144 1.0 0.0
H508 H 0.86967 0.42489 0.96415 0.0
H509 H 0.80031 0.49439 0.98998 0.0
C510 C 0.77008 0.46731 0.96086 0.0
C511 C 0.76629 0.44298 0.9392 0.0
C512 C 0.8741 0.44807 0.9727 0.0
C513 C 0.82173 0.4593 0.96414 0.0
C514 C 0.90286 0.45842 0.97961 0.0
C515 C 0.90913 0.48878 0.98899 0.0
C516 C 0.85164 0.46824 0.97547 0.0
C517 C 0.88601 0.50778 0.99303 0.0
C518 C 0.79776 0.4756 0.97328 0.0
C519 C 0.79098 0.42759 0.93044 0.0
N520 N 0.8582 0.49724 0.98612 0.0
N521 N 0.81758 0.43596 0.94296 0.0
H522 H 0.72061 0.60858 0.44533 0.0
H523 H 0.60807 0.48432 0.50268 0.0
H524 H 0.74934 0.53036 0.48956 0.0
H525 H 0.58614 0.57663 0.49279 0.0
H526 H 0.66001 0.50046 0.50045 0.0
H527 H 0.67125 0.59726 0.46342 0.0
C528 C 0.71647 0.58908 0.45903 0.0
C529 C 0.73892 0.57019 0.46576 0.0
C530 C 0.64392 0.51734 0.49956 0.0
C531 C 0.68249 0.55701 0.48649 0.0
C532 C 0.61437 0.50816 0.50098 0.0
C533 C 0.59309 0.52933 0.49814 0.0
C534 C 0.65204 0.54771 0.49432 0.0
C535 C 0.60206 0.55981 0.49541 0.0
C536 C 0.68837 0.58275 0.46956 0.0
C537 C 0.73255 0.54541 0.48388 0.0
N538 N 0.63091 0.56805 0.49298 0.0
N539 N 0.70476 0.53923 0.49325 0.0
H540 H 0.05386 0.2559 0.04134 0.0
H541 H 0.07028 0.43737 0.04082 0.0
H542 H 0.11903 0.31151 0.09318 0.0
H543 H 0.99115 0.38684 0.01133 0.0
H544 H 0.09257 0.38995 0.05077 0.0
H545 H 0.03412 0.30203 0.02235 0.0
C546 C 0.064 0.27774 0.04882 0.0
C547 C 0.08827 0.27965 0.06893 0.0
C548 C 0.07062 0.38904 0.04128 0.0
C549 C 0.06593 0.3326 0.04685 0.0
C550 C 0.05808 0.41612 0.03503 0.0
C551 C 0.02912 0.41599 0.02433 0.0
C552 C 0.05419 0.36137 0.03673 0.0
C553 C 0.01378 0.38786 0.01875 0.0
C554 C 0.05278 0.30405 0.03782 0.0
C555 C 0.10066 0.3087 0.07737 0.0
N556 N 0.02647 0.36164 0.02506 0.0
N557 N 0.08938 0.33386 0.06636 0.0
H558 H 0.61576 0.23611 0.95096 0.0
H559 H 0.49657 0.10282 0.94475 0.0
H560 H 0.54963 0.22703 0.87966 0.0
H561 H 0.57749 0.10102 0.99504 0.0
H562 H 0.51809 0.14333 0.91459 0.0
H563 H 0.60383 0.18411 0.9638 0.0
C564 C 0.59896 0.22305 0.93769 0.0
C565 C 0.58376 0.23601 0.91408 0.0
C566 C 0.53158 0.13329 0.93135 0.0
C567 C 0.56965 0.1762 0.92903 0.0
C568 C 0.51946 0.10975 0.94814 0.0
C569 C 0.53541 0.09866 0.97222 0.0
C570 C 0.55956 0.14599 0.93933 0.0
C571 C 0.56465 0.1089 0.97642 0.0
C572 C 0.59217 0.19325 0.94502 0.0
C573 C 0.56166 0.21811 0.89828 0.0
N574 N 0.57558 0.13264 0.96074 0.0
N575 N 0.55508 0.18917 0.90622 0.0
H576 H 0.91721 0.76533 0.50384 0.0
H577 H 0.02323 0.90359 0.45446 0.0
H578 H 0.97601 0.76205 0.42791 0.0
H579 H 0.95184 0.9144 0.51577 0.0
H580 H 0.01515 0.84863 0.45579 0.0
H581 H 0.9369 0.81687 0.51751 0.0
C582 C 0.93432 0.7753 0.49009 0.0
C583 C 0.94474 0.75919 0.46447 0.0
C584 C 1.00183 0.86291 0.46983 0.0
C585 C 0.96779 0.81815 0.48048 0.0
C586 C 0.0069 0.89431 0.46963 0.0
C587 C 0.98849 0.91353 0.48544 0.0
C588 C 0.97796 0.85058 0.48579 0.0
C589 C 0.96689 0.90033 0.50377 0.0
C590 C 0.94569 0.80468 0.49808 0.0
C591 C 0.96741 0.77325 0.44801 0.0
N592 N 0.96181 0.86965 0.503 0.0
N593 N 0.97797 0.80188 0.45616 0.0
H594 H 0.39164 0.72695 0.58454 0.0
H595 H 0.51415 0.62567 0.52142 0.0
H596 H 0.46484 0.76856 0.53797 0.0
H597 H 0.42451 0.59355 0.53113 0.0
H598 H 0.49899 0.67825 0.52624 0.0
H599 H 0.40615 0.67756 0.5668 0.0
C600 C 0.4106 0.72578 0.57021 0.0
C601 C 0.42669 0.75211 0.56227 0.0
C602 C 0.48262 0.65963 0.52643 0.0
C603 C 0.44389 0.69509 0.54227 0.0
C604 C 0.49121 0.62977 0.52336 0.0
C605 C 0.47043 0.60557 0.52583 0.0
C606 C 0.45329 0.66478 0.53257 0.0
C607 C 0.44108 0.61177 0.52902 0.0
C608 C 0.41892 0.69745 0.5601 0.0
C609 C 0.45181 0.74887 0.54466 0.0
N610 N 0.43344 0.64074 0.53282 0.0
N611 N 0.45976 0.72079 0.53529 0.0
H612 H 0.90582 0.88625 0.71299 0.0
H613 H 0.97583 0.02755 0.62701 0.0
H614 H 0.93932 0.97068 0.75717 0.0
H615 H 0.97036 0.938 0.58348 0.0
H616 H 0.95409 0.00732 0.67238 0.0
H617 H 0.92304 0.90448 0.664 0.0
C618 C 0.91686 0.90851 0.7126 0.0
C619 C 0.92086 0.92693 0.73962 0.0
C620 C 0.95738 0.99194 0.65297 0.0
C621 C 0.93994 0.94812 0.6832 0.0
C622 C 0.96966 0.00353 0.62687 0.0
C623 C 0.97521 0.98441 0.60143 0.0
C624 C 0.95035 0.96079 0.65406 0.0
C625 C 0.96641 0.95354 0.60255 0.0
C626 C 0.9265 0.91892 0.68449 0.0
C627 C 0.93496 0.95576 0.7372 0.0
N628 N 0.9546 0.94256 0.62865 0.0
N629 N 0.9438 0.96538 0.70965 0.0
H630 H 0.62609 0.10707 0.22758 0.0
H631 H 0.50764 0.00947 0.12503 0.0
H632 H 0.56326 0.04398 0.26617 0.0
H633 H 0.58046 0.06187 0.08952 0.0
H634 H 0.52962 0.01691 0.17656 0.0
H635 H 0.61117 0.08742 0.17665 0.0
C636 C 0.60913 0.089 0.22527 0.0
C637 C 0.59568 0.07735 0.2511 0.0
C638 C 0.54119 0.02604 0.15737 0.0
C639 C 0.57842 0.0545 0.19265 0.0
C640 C 0.52883 0.02145 0.12799 0.0
C641 C 0.5426 0.03471 0.10318 0.0
C642 C 0.56715 0.0444 0.1617 0.0
C643 C 0.56948 0.05092 0.10814 0.0
C644 C 0.60073 0.07759 0.19617 0.0
C645 C 0.57417 0.05356 0.2468 0.0
N646 N 0.58068 0.05563 0.13683 0.0
N647 N 0.56592 0.04313 0.21808 0.0
H648 H 0.43028 0.56305 0.27847 0.0
H649 H 0.49 0.57998 0.43926 0.0
H650 H 0.39773 0.6401 0.32799 0.0
H651 H 0.43826 0.49878 0.41175 0.0
H652 H 0.46417 0.60745 0.40042 0.0
H653 H 0.44444 0.54245 0.32715 0.0
C654 C 0.42628 0.57564 0.29962 0.0
C655 C 0.41283 0.60319 0.29943 0.0
C656 C 0.45771 0.58394 0.40392 0.0
C657 C 0.42913 0.58008 0.35472 0.0
C658 C 0.47206 0.56842 0.42629 0.0
C659 C 0.46586 0.53721 0.42875 0.0
C660 C 0.43793 0.56765 0.38374 0.0
C661 C 0.44328 0.52292 0.41069 0.0
C662 C 0.43414 0.56386 0.32724 0.0
C663 C 0.40798 0.61868 0.32743 0.0
N664 N 0.43077 0.53798 0.38823 0.0
N665 N 0.41646 0.60707 0.35415 0.0
H666 H 0.0816 0.39447 0.79125 0.0
H667 H 0.0573 0.52393 0.91984 0.0
H668 H 0.08238 0.48933 0.7733 0.0
H669 H 0.01083 0.4366 0.92004 0.0
H670 H 0.08191 0.50773 0.87315 0.0
H671 H 0.06903 0.40662 0.8447 0.0
C672 C 0.0792 0.41784 0.79872 0.0
C673 C 0.08278 0.44097 0.77808 0.0
C674 C 0.06716 0.49173 0.88408 0.0
C675 C 0.06922 0.45503 0.83888 0.0
C676 C 0.05367 0.50068 0.91115 0.0
C677 C 0.03242 0.48133 0.92417 0.0
C678 C 0.05976 0.46303 0.8703 0.0
C679 C 0.02754 0.45192 0.9111 0.0
C680 C 0.07214 0.42474 0.82907 0.0
C681 C 0.07968 0.47094 0.78866 0.0
N682 N 0.04087 0.44371 0.88468 0.0
N683 N 0.07311 0.47715 0.81839 0.0
H684 H 0.75728 0.96746 0.98401 0.0
H685 H 0.59524 0.00429 0.93522 0.0
H686 H 0.71356 0.93103 0.90166 0.0
H687 H 0.61765 0.99334 0.02952 0.0
H688 H 0.64507 0.99322 0.92108 0.0
H689 H 0.71185 0.99067 0.99959 0.0
C690 C 0.73818 0.96457 0.96916 0.0
C691 C 0.73903 0.94717 0.94161 0.0
C692 C 0.63938 0.99419 0.94497 0.0
C693 C 0.68758 0.97422 0.9588 0.0
C694 C 0.61113 1.00109 0.95311 0.0
C695 C 0.60254 1.0005 0.98365 0.0
C696 C 0.65934 0.98676 0.96755 0.0
C697 C 0.62366 0.99483 0.00582 0.0
C698 C 0.71237 0.97774 0.97806 0.0
C699 C 0.71373 0.94406 0.92317 0.0
N700 N 0.6511 0.98799 0.99734 0.0
N701 N 0.68915 0.95757 0.93199 0.0
H702 H 0.77335 0.05165 0.42941 0.0
H703 H 0.93255 0.08268 0.49586 0.0
H704 H 0.79333 0.13376 0.48477 0.0
H705 H 0.88931 0.99366 0.48409 0.0
H706 H 0.88461 0.10489 0.49047 0.0
H707 H 0.81923 0.03278 0.44552 0.0
C708 C 0.7871 0.06563 0.44533 0.0
C709 C 0.77896 0.0942 0.45611 0.0
C710 C 0.88574 0.08051 0.48979 0.0
C711 C 0.83246 0.07282 0.47404 0.0
C712 C 0.91294 0.0679 0.49309 0.0
C713 C 0.91473 0.03638 0.49006 0.0
C714 C 0.86073 0.06127 0.48315 0.0
C715 C 0.88885 0.01811 0.48615 0.0
C716 C 0.8135 0.05484 0.45441 0.0
C717 C 0.79865 0.11165 0.47572 0.0
N718 N 0.86306 0.0308 0.48234 0.0
N719 N 0.82463 0.10074 0.48398 0.0
H720 H 0.23588 0.5527 0.1117 0.0
H721 H 0.08817 0.5724 0.01849 0.0
H722 H 0.22567 0.62851 0.05499 0.0
H723 H 0.10811 0.4932 0.06681 0.0
H724 H 0.13896 0.59259 0.02748 0.0
H725 H 0.18954 0.52981 0.09213 0.0
C726 C 0.22382 0.56446 0.09497 0.0
C727 C 0.23441 0.59263 0.08518 0.0
C728 C 0.13216 0.57064 0.03574 0.0
C729 C 0.18101 0.56663 0.06256 0.0
C730 C 0.10328 0.5591 0.03051 0.0
C731 C 0.09379 0.53137 0.0424 0.0
C732 C 0.15141 0.55418 0.05285 0.0
C733 C 0.11424 0.51499 0.05777 0.0
C734 C 0.19737 0.55135 0.08366 0.0
C735 C 0.21815 0.60672 0.0631 0.0
N736 N 0.14185 0.52674 0.06274 0.0
N737 N 0.19199 0.59374 0.05276 0.0
H738 H 0.24669 0.47343 0.52884 0.0
H739 H 0.41448 0.44559 0.56434 0.0
H740 H 0.27752 0.41712 0.59858 0.0
H741 H 0.38934 0.51 0.4997 0.0
H742 H 0.36338 0.42976 0.57081 0.0
H743 H 0.29762 0.4839 0.51318 0.0
C744 C 0.26421 0.4635 0.54094 0.0
C745 C 0.25804 0.44433 0.56496 0.0
C746 C 0.36884 0.44692 0.55467 0.0
C747 C 0.31589 0.45589 0.54718 0.0
C748 C 0.3981 0.45562 0.55065 0.0
C749 C 0.40607 0.47879 0.53116 0.0
C750 C 0.34714 0.4618 0.53943 0.0
C751 C 0.38401 0.49164 0.51452 0.0
C752 C 0.29316 0.46928 0.5319 0.0
C753 C 0.28136 0.43178 0.57976 0.0
N754 N 0.35539 0.48325 0.51933 0.0
N755 N 0.30913 0.4378 0.57068 0.0
H756 H 0.96764 0.75142 0.92603 0.0
H757 H 0.94408 0.60125 0.01902 0.0
H758 H 0.89351 0.73623 0.98385 0.0
H759 H 0.02252 0.62654 0.97132 0.0
H760 H 0.92673 0.65207 0.01159 0.0
H761 H 0.9891 0.70709 0.94592 0.0
C762 C 0.95586 0.73873 0.94298 0.0
C763 C 0.92859 0.74748 0.95304 0.0
C764 C 0.94811 0.64678 1.00353 0.0
C765 C 0.95316 0.69625 0.97616 0.0
C766 C 0.95822 0.61793 0.00824 0.0
C767 C 0.98498 0.60983 0.99614 0.0
C768 C 0.96483 0.66744 0.98639 0.0
C769 C 0.00192 0.63198 0.98133 0.0
C770 C 0.96822 0.71345 0.95452 0.0
C771 C 0.9146 0.73036 0.97547 0.0
N772 N 0.99145 0.65947 0.97655 0.0
N773 N 0.92686 0.70538 0.986 0.0
H774 H 0.46288 0.78503 0.08339 0.0
H775 H 0.43832 0.93808 0.02223 0.0
H776 H 0.38911 0.82711 0.12322 0.0
H777 H 0.52107 0.9237 0.06478 0.0
H778 H 0.41531 0.89823 0.05288 0.0
H779 H 0.48125 0.83461 0.06657 0.0
C780 C 0.45058 0.80473 0.08851 0.0
C781 C 0.42462 0.80219 0.10481 0.0
C782 C 0.43825 0.90482 0.05639 0.0
C783 C 0.44526 0.8585 0.08557 0.0
C784 C 0.45125 0.92782 0.03935 0.0
C785 C 0.4815 0.93433 0.04148 0.0
C786 C 0.45598 0.888 0.07467 0.0
C787 C 0.49761 0.91956 0.06297 0.0
C788 C 0.46113 0.8329 0.07917 0.0
C789 C 0.40939 0.82838 0.11089 0.0
N790 N 0.48485 0.89634 0.07804 0.0
N791 N 0.41976 0.85558 0.10091 0.0
H792 H 0.08065 0.25438 0.51825 0.0
H793 H 0.98181 0.10771 0.55625 0.0
H794 H 0.01553 0.25169 0.5883 0.0
H795 H 0.056 0.10657 0.49745 0.0
H796 H 0.98404 0.16303 0.55587 0.0
H797 H 0.06346 0.20335 0.50017 0.0
C798 C 0.06259 0.24319 0.52975 0.0
C799 C 0.04995 0.25727 0.55531 0.0
C800 C 0.9992 0.15072 0.54209 0.0
C801 C 0.02978 0.19878 0.53424 0.0
C802 C 0.9975 0.11907 0.54176 0.0
C803 C 0.01857 0.10261 0.5266 0.0
C804 C 0.02234 0.16594 0.52735 0.0
C805 C 0.03909 0.11846 0.50905 0.0
C806 C 0.05264 0.21409 0.51921 0.0
C807 C 0.02603 0.24186 0.56859 0.0
N808 N 0.04091 0.1493 0.51044 0.0
N809 N 0.017 0.21334 0.55817 0.0
H810 H 0.53708 0.26668 0.42753 0.0
H811 H 0.5476 0.42135 0.52818 0.0
H812 H 0.60469 0.28829 0.49561 0.0
H813 H 0.47968 0.39561 0.46168 0.0
H814 H 0.56428 0.36959 0.52376 0.0
H815 H 0.512 0.31085 0.4456 0.0
C816 C 0.54661 0.28076 0.44638 0.0
C817 C 0.5732 0.27408 0.45981 0.0
C818 C 0.5452 0.37504 0.51081 0.0
C819 C 0.54451 0.32483 0.48084 0.0
C820 C 0.53544 0.40442 0.5137 0.0
C821 C 0.51222 0.41255 0.49533 0.0
C822 C 0.53157 0.35395 0.48937 0.0
C823 C 0.49763 0.3901 0.47629 0.0
C824 C 0.53218 0.3059 0.45687 0.0
C825 C 0.58424 0.29271 0.4846 0.0
N826 N 0.50778 0.36199 0.47349 0.0
N827 N 0.57003 0.31752 0.49409 0.0
loop_
_geom_bond_atom_site_label_1
_geom_bond_atom_site_label_2
_geom_bond_distance
_geom_bond_site_symmetry_2
_ccdc_geom_bond_type
C0 C1 1.386 . S
C0 C2 1.397 . S
C0 H24 0.931 . S
C1 C0 1.386 . S
C1 C5 1.397 . S
C2 C0 1.397 . S
C2 C3 1.384 . S
C2 H25 0.930 . S
C3 C2 1.384 . S
C3 C4 1.377 . S
C3 C6 1.481 . S
C4 C3 1.377 . S
C4 C5 1.389 . S
C4 H26 0.929 . S
C5 C1 1.397 . S
C5 C4 1.389 . S
C5 H27 0.931 . S
C6 C3 1.481 . S
C6 C7 1.387 . S
C6 C11 1.390 . S
C7 C6 1.387 . S
C7 C8 1.401 . S
C7 H28 0.930 . S
C8 C7 1.401 . S
C8 C9 1.376 . S
C8 C17 1.511 . S
C9 C8 1.376 . S
C9 C10 1.392 . S
C9 H30 0.931 . S
C10 C9 1.392 . S
C10 C11 1.361 . S
C10 C12 1.500 . S
C11 C6 1.390 . S
C11 C10 1.361 . S
C11 H29 0.931 . S
C12 C10 1.500 . S
C12 C13 1.371 . S
C12 C14 1.365 . S
C13 C12 1.371 . S
C13 C23 1.386 . S
C13 H31 0.931 . S
C14 C12 1.365 . S
C14 C15 1.409 . S
C14 H32 0.929 . S
C15 C14 1.409 . S
C15 C16 1.380 . S
C15 H33 0.930 . S
C16 C15 1.380 . S
C16 C23 1.357 . S
C17 C8 1.511 . S
C17 C18 1.341 . S
C17 C19 1.371 . S
C18 C17 1.341 . S
C18 C22 1.394 . S
C18 H34 0.930 . S
C19 C17 1.371 . S
C19 C20 1.392 . S
C19 H35 0.931 . S
C20 C19 1.392 . S
C20 C21 1.331 . S
C20 H38 0.932 . S
C21 C20 1.331 . S
C21 C22 1.336 . S
C22 C18 1.394 . S
C22 C21 1.336 . S
C22 H37 0.929 . S
C23 C13 1.386 . S
C23 C16 1.357 . S
C23 H36 0.928 . S
H24 C0 0.931 . S
H25 C2 0.930 . S
H26 C4 0.929 . S
H27 C5 0.931 . S
H28 C7 0.930 . S
H29 C11 0.931 . S
H30 C9 0.931 . S
H31 C13 0.931 . S
H32 C14 0.929 . S
H33 C15 0.930 . S
H34 C18 0.930 . S
H35 C19 0.931 . S
H36 C23 0.928 . S
H37 C22 0.929 . S
H38 C20 0.932 . S
C39 C40 1.386 . S
C39 C41 1.397 . S
C39 H63 0.931 . S
C40 C39 1.386 . S
C40 C44 1.397 . S
C41 C39 1.397 . S
C41 C42 1.384 . S
C41 H64 0.930 . S
C42 C41 1.384 . S
C42 C43 1.377 . S
C42 C45 1.481 . S
C43 C42 1.377 . S
C43 C44 1.389 . S
C43 H65 0.929 . S
C44 C40 1.397 . S
C44 C43 1.389 . S
C44 H66 0.931 . S
C45 C42 1.481 . S
C45 C46 1.387 . S
C45 C50 1.390 . S
C46 C45 1.387 . S
C46 C47 1.401 . S
C46 H67 0.930 . S
C47 C46 1.401 . S
C47 C48 1.376 . S
C47 C56 1.511 . S
C48 C47 1.376 . S
C48 C49 1.392 . S
C48 H69 0.931 . S
C49 C48 1.392 . S
C49 C50 1.361 . S
C49 C51 1.500 . S
C50 C45 1.390 . S
C50 C49 1.361 . S
C50 H68 0.931 . S
C51 C49 1.500 . S
C51 C52 1.371 . S
C51 C53 1.365 . S
C52 C51 1.371 . S
C52 C62 1.386 . S
C52 H70 0.931 . S
C53 C51 1.365 . S
C53 C54 1.409 . S
C53 H71 0.929 . S
C54 C53 1.409 . S
C54 C55 1.380 . S
C54 H72 0.930 . S
C55 C54 1.380 . S
C55 C62 1.357 . S
C56 C47 1.511 . S
C56 C57 1.341 . S
C56 C58 1.371 . S
C57 C56 1.341 . S
C57 C61 1.394 . S
C57 H73 0.930 . S
C58 C56 1.371 . S
C58 C59 1.392 . S
C58 H74 0.931 . S
C59 C58 1.392 . S
C59 C60 1.331 . S
C59 H77 0.932 . S
C60 C59 1.331 . S
C60 C61 1.336 . S
C61 C57 1.394 . S
C61 C60 1.336 . S
C61 H76 0.929 . S
C62 C52 1.386 . S
C62 C55 1.357 . S
C62 H75 0.928 . S
H63 C39 0.931 . S
H64 C41 0.930 . S
H65 C43 0.929 . S
H66 C44 0.931 . S
H67 C46 0.930 . S
H68 C50 0.931 . S
H69 C48 0.931 . S
H70 C52 0.931 . S
H71 C53 0.929 . S
H72 C54 0.930 . S
H73 C57 0.930 . S
H74 C58 0.931 . S
H75 C62 0.928 . S
H76 C61 0.929 . S
H77 C59 0.932 . S
C78 C79 1.386 . S
C78 C80 1.397 . S
C78 H102 0.931 . S
C79 C78 1.386 . S
C79 C83 1.397 . S
C80 C78 1.397 . S
C80 C81 1.384 . S
C80 H103 0.930 . S
C81 C80 1.384 . S
C81 C82 1.377 . S
C81 C84 1.481 . S
C82 C81 1.377 . S
C82 C83 1.389 . S
C82 H104 0.929 . S
C83 C79 1.397 . S
C83 C82 1.389 . S
C83 H105 0.931 . S
C84 C81 1.481 . S
C84 C85 1.387 . S
C84 C89 1.390 . S
C85 C84 1.387 . S
C85 C86 1.401 . S
C85 H106 0.930 . S
C86 C85 1.401 . S
C86 C87 1.376 . S
C86 C95 1.511 . S
C87 C86 1.376 . S
C87 C88 1.392 . S
C87 H108 0.931 . S
C88 C87 1.392 . S
C88 C89 1.361 . S
C88 C90 1.500 . S
C89 C84 1.390 . S
C89 C88 1.361 . S
C89 H107 0.931 . S
C90 C88 1.500 . S
C90 C91 1.371 . S
C90 C92 1.365 . S
C91 C90 1.371 . S
C91 C101 1.386 . S
C91 H109 0.931 . S
C92 C90 1.365 . S
C92 C93 1.409 . S
C92 H110 0.929 . S
C93 C92 1.409 . S
C93 C94 1.380 . S
C93 H111 0.930 . S
C94 C93 1.380 . S
C94 C101 1.357 . S
C95 C86 1.511 . S
C95 C96 1.341 . S
C95 C97 1.371 . S
C96 C95 1.341 . S
C96 C100 1.394 . S
C96 H112 0.930 . S
C97 C95 1.371 . S
C97 C98 1.392 . S
C97 H113 0.931 . S
C98 C97 1.392 . S
C98 C99 1.331 . S
C98 H116 0.932 . S
C99 C98 1.331 . S
C99 C100 1.336 . S
C100 C96 1.394 . S
C100 C99 1.336 . S
C100 H115 0.929 . S
C101 C91 1.386 . S
C101 C94 1.357 . S
C101 H114 0.928 . S
H102 C78 0.931 . S
H103 C80 0.930 . S
H104 C82 0.929 . S
H105 C83 0.931 . S
H106 C85 0.930 . S
H107 C89 0.931 . S
H108 C87 0.931 . S
H109 C91 0.931 . S
H110 C92 0.929 . S
H111 C93 0.930 . S
H112 C96 0.930 . S
H113 C97 0.931 . S
H114 C101 0.928 . S
H115 C100 0.929 . S
H116 C98 0.932 . S
C117 C118 1.386 . S
C117 C119 1.397 . S
C117 H141 0.931 . S
C118 C117 1.386 . S
C118 C122 1.397 . S
C119 C117 1.397 . S
C119 C120 1.384 . S
C119 H142 0.930 . S
C120 C119 1.384 . S
C120 C121 1.377 . S
C120 C123 1.481 . S
C121 C120 1.377 . S
C121 C122 1.389 . S
C121 H143 0.929 . S
C122 C118 1.397 . S
C122 C121 1.389 . S
C122 H144 0.931 . S
C123 C120 1.481 . S
C123 C124 1.387 . S
C123 C128 1.390 . S
C124 C123 1.387 . S
C124 C125 1.401 . S
C124 H145 0.930 . S
C125 C124 1.401 . S
C125 C126 1.376 . S
C125 C134 1.511 . S
C126 C125 1.376 . S
C126 C127 1.392 . S
C126 H147 0.931 . S
C127 C126 1.392 . S
C127 C128 1.361 . S
C127 C129 1.500 . S
C128 C123 1.390 . S
C128 C127 1.361 . S
C128 H146 0.931 . S
C129 C127 1.500 . S
C129 C130 1.371 . S
C129 C131 1.365 . S
C130 C129 1.371 . S
C130 C140 1.386 . S
C130 H148 0.931 . S
C131 C129 1.365 . S
C131 C132 1.409 . S
C131 H149 0.929 . S
C132 C131 1.409 . S
C132 C133 1.380 . S
C132 H150 0.930 . S
C133 C132 1.380 . S
C133 C140 1.357 . S
C134 C125 1.511 . S
C134 C135 1.341 . S
C134 C136 1.371 . S
C135 C134 1.341 . S
C135 C139 1.394 . S
C135 H151 0.930 . S
C136 C134 1.371 . S
C136 C137 1.392 . S
C136 H152 0.931 . S
C137 C136 1.392 . S
C137 C138 1.331 . S
C137 H155 0.932 . S
C138 C137 1.331 . S
C138 C139 1.336 . S
C139 C135 1.394 . S
C139 C138 1.336 . S
C139 H154 0.929 . S
C140 C130 1.386 . S
C140 C133 1.357 . S
C140 H153 0.928 . S
H141 C117 0.931 . S
H142 C119 0.930 . S
H143 C121 0.929 . S
H144 C122 0.931 . S
H145 C124 0.930 . S
H146 C128 0.931 . S
H147 C126 0.931 . S
H148 C130 0.931 . S
H149 C131 0.929 . S
H150 C132 0.930 . S
H151 C135 0.930 . S
H152 C136 0.931 . S
H153 C140 0.928 . S
H154 C139 0.929 . S
H155 C137 0.932 . S
C156 C157 1.386 . S
C156 C158 1.397 . S
C156 H180 0.931 . S
C157 C156 1.386 . S
C157 C161 1.397 . S
C158 C156 1.397 . S
C158 C159 1.384 . S
C158 H181 0.930 . S
C159 C158 1.384 . S
C159 C160 1.377 . S
C159 C162 1.481 . S
C160 C159 1.377 . S
C160 C161 1.389 . S
C160 H182 0.929 . S
C161 C157 1.397 . S
C161 C160 1.389 . S
C161 H183 0.931 . S
C162 C159 1.481 . S
C162 C163 1.387 . S
C162 C167 1.390 . S
C163 C162 1.387 . S
C163 C164 1.401 . S
C163 H184 0.930 . S
C164 C163 1.401 . S
C164 C165 1.376 . S
C164 C173 1.511 . S
C165 C164 1.376 . S
C165 C166 1.392 . S
C165 H186 0.931 . S
C166 C165 1.392 . S
C166 C167 1.361 . S
C166 C168 1.500 . S
C167 C162 1.390 . S
C167 C166 1.361 . S
C167 H185 0.931 . S
C168 C166 1.500 . S
C168 C169 1.371 . S
C168 C170 1.365 . S
C169 C168 1.371 . S
C169 C179 1.386 . S
C169 H187 0.931 . S
C170 C168 1.365 . S
C170 C171 1.409 . S
C170 H188 0.929 . S
C171 C170 1.409 . S
C171 C172 1.380 . S
C171 H189 0.930 . S
C172 C171 1.380 . S
C172 C179 1.357 . S
C173 C164 1.511 . S
C173 C174 1.341 . S
C173 C175 1.371 . S
C174 C173 1.341 . S
C174 C178 1.394 . S
C174 H190 0.930 . S
C175 C173 1.371 . S
C175 C176 1.392 . S
C175 H191 0.931 . S
C176 C175 1.392 . S
C176 C177 1.331 . S
C176 H194 0.932 . S
C177 C176 1.331 . S
C177 C178 1.336 . S
C178 C174 1.394 . S
C178 C177 1.336 . S
C178 H193 0.929 . S
C179 C169 1.386 . S
C179 C172 1.357 . S
C179 H192 0.928 . S
H180 C156 0.931 . S
H181 C158 0.930 . S
H182 C160 0.929 . S
H183 C161 0.931 . S
H184 C163 0.930 . S
H185 C167 0.931 . S
H186 C165 0.931 . S
H187 C169 0.931 . S
H188 C170 0.929 . S
H189 C171 0.930 . S
H190 C174 0.930 . S
H191 C175 0.931 . S
H192 C179 0.928 . S
H193 C178 0.929 . S
H194 C176 0.932 . S
C195 C196 1.386 . S
C195 C197 1.397 . S
C195 H219 0.931 . S
C196 C195 1.386 . S
C196 C200 1.397 . S
C197 C195 1.397 . S
C197 C198 1.384 . S
C197 H220 0.930 . S
C198 C197 1.384 . S
C198 C199 1.377 . S
C198 C201 1.481 . S
C199 C198 1.377 . S
C199 C200 1.389 . S
C199 H221 0.929 . S
C200 C196 1.397 . S
C200 C199 1.389 . S
C200 H222 0.931 . S
C201 C198 1.481 . S
C201 C202 1.387 . S
C201 C206 1.390 . S
C202 C201 1.387 . S
C202 C203 1.401 . S
C202 H223 0.930 . S
C203 C202 1.401 . S
C203 C204 1.376 . S
C203 C212 1.511 . S
C204 C203 1.376 . S
C204 C205 1.392 . S
C204 H225 0.931 . S
C205 C204 1.392 . S
C205 C206 1.361 . S
C205 C207 1.500 . S
C206 C201 1.390 . S
C206 C205 1.361 . S
C206 H224 0.931 . S
C207 C205 1.500 . S
C207 C208 1.371 . S
C207 C209 1.365 . S
C208 C207 1.371 . S
C208 C218 1.386 . S
C208 H226 0.931 . S
C209 C207 1.365 . S
C209 C210 1.409 . S
C209 H227 0.929 . S
C210 C209 1.409 . S
C210 C211 1.380 . S
C210 H228 0.930 . S
C211 C210 1.380 . S
C211 C218 1.357 . S
C212 C203 1.511 . S
C212 C213 1.341 . S
C212 C214 1.371 . S
C213 C212 1.341 . S
C213 C217 1.394 . S
C213 H229 0.930 . S
C214 C212 1.371 . S
C214 C215 1.392 . S
C214 H230 0.931 . S
C215 C214 1.392 . S
C215 C216 1.331 . S
C215 H233 0.932 . S
C216 C215 1.331 . S
C216 C217 1.336 . S
C217 C213 1.394 . S
C217 C216 1.336 . S
C217 H232 0.929 . S
C218 C208 1.386 . S
C218 C211 1.357 . S
C218 H231 0.928 . S
H219 C195 0.931 . S
H220 C197 0.930 . S
H221 C199 0.929 . S
H222 C200 0.931 . S
H223 C202 0.930 . S
H224 C206 0.931 . S
H225 C204 0.931 . S
H226 C208 0.931 . S
H227 C209 0.929 . S
H228 C210 0.930 . S
H229 C213 0.930 . S
H230 C214 0.931 . S
H231 C218 0.928 . S
H232 C217 0.929 . S
H233 C215 0.932 . S
C234 C235 1.386 . S
C234 C236 1.397 . S
C234 H258 0.931 . S
C235 C234 1.386 . S
C235 C239 1.397 . S
C236 C234 1.397 . S
C236 C237 1.384 . S
C236 H259 0.930 . S
C237 C236 1.384 . S
C237 C238 1.377 . S
C237 C240 1.481 . S
C238 C237 1.377 . S
C238 C239 1.389 . S
C238 H260 0.929 . S
C239 C235 1.397 . S
C239 C238 1.389 . S
C239 H261 0.931 . S
C240 C237 1.481 . S
C240 C241 1.387 . S
C240 C245 1.390 . S
C241 C240 1.387 . S
C241 C242 1.401 . S
C241 H262 0.930 . S
C242 C241 1.401 . S
C242 C243 1.376 . S
C242 C251 1.511 . S
C243 C242 1.376 . S
C243 C244 1.392 . S
C243 H264 0.931 . S
C244 C243 1.392 . S
C244 C245 1.361 . S
C244 C246 1.500 . S
C245 C240 1.390 . S
C245 C244 1.361 . S
C245 H263 0.931 . S
C246 C244 1.500 . S
C246 C247 1.371 . S
C246 C248 1.365 . S
C247 C246 1.371 . S
C247 C257 1.386 . S
C247 H265 0.931 . S
C248 C246 1.365 . S
C248 C249 1.409 . S
C248 H266 0.929 . S
C249 C248 1.409 . S
C249 C250 1.380 . S
C249 H267 0.930 . S
C250 C249 1.380 . S
C250 C257 1.357 . S
C251 C242 1.511 . S
C251 C252 1.341 . S
C251 C253 1.371 . S
C252 C251 1.341 . S
C252 C256 1.394 . S
C252 H268 0.930 . S
C253 C251 1.371 . S
C253 C254 1.392 . S
C253 H269 0.931 . S
C254 C253 1.392 . S
C254 C255 1.331 . S
C254 H272 0.932 . S
C255 C254 1.331 . S
C255 C256 1.336 . S
C256 C252 1.394 . S
C256 C255 1.336 . S
C256 H271 0.929 . S
C257 C247 1.386 . S
C257 C250 1.357 . S
C257 H270 0.928 . S
H258 C234 0.931 . S
H259 C236 0.930 . S
H260 C238 0.929 . S
H261 C239 0.931 . S
H262 C241 0.930 . S
H263 C245 0.931 . S
H264 C243 0.931 . S
H265 C247 0.931 . S
H266 C248 0.929 . S
H267 C249 0.930 . S
H268 C252 0.930 . S
H269 C253 0.931 . S
H270 C257 0.928 . S
H271 C256 0.929 . S
H272 C254 0.932 . S
C273 C274 1.386 . S
C273 C275 1.397 . S
C273 H297 0.931 . S
C274 C273 1.386 . S
C274 C278 1.397 . S
C275 C273 1.397 . S
C275 C276 1.384 . S
C275 H298 0.930 . S
C276 C275 1.384 . S
C276 C277 1.377 . S
C276 C279 1.481 . S
C277 C276 1.377 . S
C277 C278 1.389 . S
C277 H299 0.929 . S
C278 C274 1.397 . S
C278 C277 1.389 . S
C278 H300 0.931 . S
C279 C276 1.481 . S
C279 C280 1.387 . S
C279 C284 1.390 . S
C280 C279 1.387 . S
C280 C281 1.401 . S
C280 H301 0.930 . S
C281 C280 1.401 . S
C281 C282 1.376 . S
C281 C290 1.511 . S
C282 C281 1.376 . S
C282 C283 1.392 . S
C282 H303 0.931 . S
C283 C282 1.392 . S
C283 C284 1.361 . S
C283 C285 1.500 . S
C284 C279 1.390 . S
C284 C283 1.361 . S
C284 H302 0.931 . S
C285 C283 1.500 . S
C285 C286 1.371 . S
C285 C287 1.365 . S
C286 C285 1.371 . S
C286 C296 1.386 . S
C286 H304 0.931 . S
C287 C285 1.365 . S
C287 C288 1.409 . S
C287 H305 0.929 . S
C288 C287 1.409 . S
C288 C289 1.380 . S
C288 H306 0.930 . S
C289 C288 1.380 . S
C289 C296 1.357 . S
C290 C281 1.511 . S
C290 C291 1.341 . S
C290 C292 1.371 . S
C291 C290 1.341 . S
C291 C295 1.394 . S
C291 H307 0.930 . S
C292 C290 1.371 . S
C292 C293 1.392 . S
C292 H308 0.931 . S
C293 C292 1.392 . S
C293 C294 1.331 . S
C293 H311 0.932 . S
C294 C293 1.331 . S
C294 C295 1.336 . S
C295 C291 1.394 . S
C295 C294 1.336 . S
C295 H310 0.929 . S
C296 C286 1.386 . S
C296 C289 1.357 . S
C296 H309 0.928 . S
H297 C273 0.931 . S
H298 C275 0.930 . S
H299 C277 0.929 . S
H300 C278 0.931 . S
H301 C280 0.930 . S
H302 C284 0.931 . S
H303 C282 0.931 . S
H304 C286 0.931 . S
H305 C287 0.929 . S
H306 C288 0.930 . S
H307 C291 0.930 . S
H308 C292 0.931 . S
H309 C296 0.928 . S
H310 C295 0.929 . S
H311 C293 0.932 . S
O312 Mn313 2.163 1_655 S
O312 C326 1.244 . S
Mn313 O312 2.163 1_455 S
Mn313 O316 2.160 1_545 S
Mn313 O317 2.221 . S
Mn313 O319 2.163 1_445 S
Mn313 O321 2.160 . S
Mn313 O331 2.221 1_445 S
O314 Mn315 2.087 1_545 S
O314 C326 1.256 . S
Mn315 O314 2.087 1_565 S
Mn315 O322 2.089 1_565 S
Mn315 O331 2.290 . S
Mn315 O332 2.251 . S
O316 Mn313 2.160 1_565 S
O316 C327 1.239 . S
O317 Mn313 2.221 . S
O317 Mn318 2.290 . S
O317 C328 1.278 . S
Mn318 O317 2.290 . S
Mn318 O320 2.089 1_545 S
Mn318 O323 2.251 . S
Mn318 O324 2.087 . S
O319 Mn313 2.163 1_665 S
O319 C329 1.244 . S
O320 Mn318 2.089 1_565 S
O320 C327 1.256 . S
O321 Mn313 2.160 . S
O321 C330 1.239 . S
O322 Mn315 2.089 1_545 S
O322 C330 1.256 1_655 S
O323 Mn318 2.251 . S
O323 C328 1.241 . S
O324 Mn318 2.087 . S
O324 C329 1.256 1_445 S
C325 O331 1.278 . S
C325 O332 1.241 . S
C326 O312 1.244 . S
C326 O314 1.256 . S
C327 O316 1.239 . S
C327 O320 1.256 . S
C328 O317 1.278 . S
C328 O323 1.241 . S
C329 O319 1.244 . S
C329 O324 1.256 1_665 S
C330 O321 1.239 . S
C330 O322 1.256 1_455 S
O331 Mn313 2.221 1_665 S
O331 Mn315 2.290 . S
O331 C325 1.278 . S
O332 Mn315 2.251 . S
O332 C325 1.241 . S
O333 Mn334 2.163 1_556 S
O333 C347 1.244 1_545 S
Mn334 O333 2.163 1_554 S
Mn334 O337 2.160 . S
Mn334 O338 2.221 1_554 S
Mn334 O340 2.163 . S
Mn334 O342 2.160 1_554 S
Mn334 O352 2.221 1_545 S
O335 Mn336 2.087 . S
O335 C347 1.256 . S
Mn336 O335 2.087 . S
Mn336 O343 2.089 . S
Mn336 O352 2.290 1_556 S
Mn336 O353 2.251 1_556 S
O337 Mn334 2.160 . S
O337 C348 1.239 . S
O338 Mn334 2.221 1_556 S
O338 Mn339 2.290 1_556 S
O338 C349 1.278 . S
Mn339 O338 2.290 1_554 S
Mn339 O341 2.089 . S
Mn339 O344 2.251 1_554 S
Mn339 O345 2.087 . S
O340 Mn334 2.163 . S
O340 C350 1.244 . S
O341 Mn339 2.089 . S
O341 C348 1.256 . S
O342 Mn334 2.160 1_556 S
O342 C351 1.239 1_545 S
O343 Mn336 2.089 . S
O343 C351 1.256 . S
O344 Mn339 2.251 1_556 S
O344 C349 1.241 . S
O345 Mn339 2.087 . S
O345 C350 1.256 . S
C346 O352 1.278 . S
C346 O353 1.241 . S
C347 O333 1.244 1_565 S
C347 O335 1.256 . S
C348 O337 1.239 . S
C348 O341 1.256 . S
C349 O338 1.278 . S
C349 O344 1.241 . S
C350 O340 1.244 . S
C350 O345 1.256 . S
C351 O342 1.239 1_565 S
C351 O343 1.256 . S
O352 Mn334 2.221 1_565 S
O352 Mn336 2.290 1_554 S
O352 C346 1.278 . S
O353 Mn336 2.251 1_554 S
O353 C346 1.241 . S
O354 Mn355 2.163 . S
O354 C368 1.244 . S
Mn355 O354 2.163 . S
Mn355 O358 2.160 . S
Mn355 O359 2.221 . S
Mn355 O361 2.163 . S
Mn355 O363 2.160 . S
Mn355 O373 2.221 . S
O356 Mn357 2.087 . S
O356 C368 1.256 . S
Mn357 O356 2.087 . S
Mn357 O364 2.089 . S
Mn357 O373 2.290 . S
Mn357 O374 2.251 . S
O358 Mn355 2.160 . S
O358 C369 1.239 . S
O359 Mn355 2.221 . S
O359 Mn360 2.290 . S
O359 C370 1.278 . S
Mn360 O359 2.290 . S
Mn360 O362 2.089 . S
Mn360 O365 2.251 . S
Mn360 O366 2.087 . S
O361 Mn355 2.163 . S
O361 C371 1.244 . S
O362 Mn360 2.089 . S
O362 C369 1.256 . S
O363 Mn355 2.160 . S
O363 C372 1.239 . S
O364 Mn357 2.089 . S
O364 C372 1.256 . S
O365 Mn360 2.251 . S
O365 C370 1.241 . S
O366 Mn360 2.087 . S
O366 C371 1.256 . S
C367 O373 1.278 . S
C367 O374 1.241 . S
C368 O354 1.244 . S
C368 O356 1.256 . S
C369 O358 1.239 . S
C369 O362 1.256 . S
C370 O359 1.278 . S
C370 O365 1.241 . S
C371 O361 1.244 . S
C371 O366 1.256 . S
C372 O363 1.239 . S
C372 O364 1.256 . S
O373 Mn355 2.221 . S
O373 Mn357 2.290 . S
O373 C367 1.278 . S
O374 Mn357 2.251 . S
O374 C367 1.241 . S
O375 Mn376 2.163 1_655 S
O375 C389 1.244 1_554 S
Mn376 O375 2.163 1_455 S
Mn376 O379 2.160 . S
Mn376 O380 2.221 1_455 S
Mn376 O382 2.163 . S
Mn376 O384 2.160 1_454 S
Mn376 O394 2.221 1_554 S
O377 Mn378 2.087 . S
O377 C389 1.256 . S
Mn378 O377 2.087 . S
Mn378 O385 2.089 . S
Mn378 O394 2.290 1_655 S
Mn378 O395 2.251 . S
O379 Mn376 2.160 . S
O379 C390 1.239 . S
O380 Mn376 2.221 1_655 S
O380 Mn381 2.290 1_655 S
O380 C391 1.278 . S
Mn381 O380 2.290 1_455 S
Mn381 O383 2.089 . S
Mn381 O386 2.251 1_455 S
Mn381 O387 2.087 . S
O382 Mn376 2.163 . S
O382 C392 1.244 . S
O383 Mn381 2.089 . S
O383 C390 1.256 . S
O384 Mn376 2.160 1_656 S
O384 C393 1.239 . S
O385 Mn378 2.089 . S
O385 C393 1.256 . S
O386 Mn381 2.251 1_655 S
O386 C391 1.241 . S
O387 Mn381 2.087 . S
O387 C392 1.256 . S
C388 O394 1.278 . S
C388 O395 1.241 1_455 S
C389 O375 1.244 1_556 S
C389 O377 1.256 . S
C390 O379 1.239 . S
C390 O383 1.256 . S
C391 O380 1.278 . S
C391 O386 1.241 . S
C392 O382 1.244 . S
C392 O387 1.256 . S
C393 O384 1.239 . S
C393 O385 1.256 . S
O394 Mn376 2.221 1_556 S
O394 Mn378 2.290 1_455 S
O394 C388 1.278 . S
O395 Mn378 2.251 . S
O395 C388 1.241 1_655 S
H396 C402 0.930 . S
H397 C406 0.930 . S
H398 C411 0.929 . S
H399 C409 0.929 1_655 S
H400 C404 0.929 . S
H401 C410 0.929 . S
C402 H396 0.930 . S
C402 C403 1.367 . S
C402 C410 1.378 . S
C403 C402 1.367 . S
C403 C411 1.433 . S
C404 H400 0.929 . S
C404 C406 1.378 . S
C404 C408 1.350 . S
C405 C408 1.463 . S
C405 C410 1.350 . S
C405 N413 1.427 . S
C406 H397 0.930 . S
C406 C404 1.378 . S
C406 C407 1.367 . S
C407 C406 1.367 . S
C407 C409 1.433 . S
C408 C404 1.350 . S
C408 C405 1.463 . S
C408 N412 1.427 . S
C409 H399 0.929 1_455 S
C409 C407 1.433 . S
C409 N412 1.384 . S
C410 H401 0.929 . S
C410 C402 1.378 . S
C410 C405 1.350 . S
C411 H398 0.929 . S
C411 C403 1.433 . S
C411 N413 1.384 . S
N412 C408 1.427 . S
N412 C409 1.384 . S
N413 C405 1.427 . S
N413 C411 1.384 . S
H414 C420 0.930 . S
H415 C424 0.930 . S
H416 C429 0.929 . S
H417 C427 0.929 1_545 S
H418 C422 0.929 . S
H419 C428 0.929 . S
C420 H414 0.930 . S
C420 C421 1.367 . S
C420 C428 1.378 . S
C421 C420 1.367 . S
C421 C429 1.433 . S
C422 H418 0.929 . S
C422 C424 1.378 . S
C422 C426 1.350 . S
C423 C426 1.463 . S
C423 C428 1.350 . S
C423 N431 1.427 . S
C424 H415 0.930 . S
C424 C422 1.378 . S
C424 C425 1.367 . S
C425 C424 1.367 . S
C425 C427 1.433 . S
C426 C422 1.350 . S
C426 C423 1.463 . S
C426 N430 1.427 . S
C427 H417 0.929 1_565 S
C427 C425 1.433 . S
C427 N430 1.384 . S
C428 H419 0.929 . S
C428 C420 1.378 . S
C428 C423 1.350 . S
C429 H416 0.929 . S
C429 C421 1.433 . S
C429 N431 1.384 . S
N430 C426 1.427 . S
N430 C427 1.384 . S
N431 C423 1.427 . S
N431 C429 1.384 . S
H432 C438 0.930 . S
H433 C442 0.930 . S
H434 C447 0.929 . S
H435 C445 0.929 . S
H436 C440 0.929 . S
H437 C446 0.929 . S
C438 H432 0.930 . S
C438 C439 1.367 . S
C438 C446 1.378 . S
C439 C438 1.367 . S
C439 C447 1.433 . S
C440 H436 0.929 . S
C440 C442 1.378 . S
C440 C444 1.350 . S
C441 C444 1.463 . S
C441 C446 1.350 . S
C441 N449 1.427 . S
C442 H433 0.930 . S
C442 C440 1.378 . S
C442 C443 1.367 . S
C443 C442 1.367 . S
C443 C445 1.433 . S
C444 C440 1.350 . S
C444 C441 1.463 . S
C444 N448 1.427 . S
C445 H435 0.929 . S
C445 C443 1.433 . S
C445 N448 1.384 . S
C446 H437 0.929 . S
C446 C438 1.378 . S
C446 C441 1.350 . S
C447 H434 0.929 . S
C447 C439 1.433 . S
C447 N449 1.384 . S
N448 C444 1.427 . S
N448 C445 1.384 . S
N449 C441 1.427 . S
N449 C447 1.384 . S
H450 C456 0.930 . S
H451 C460 0.930 . S
H452 C465 0.929 . S
H453 C463 0.929 . S
H454 C458 0.929 . S
H455 C464 0.929 . S
C456 H450 0.930 . S
C456 C457 1.367 . S
C456 C464 1.378 . S
C457 C456 1.367 . S
C457 C465 1.433 . S
C458 H454 0.929 . S
C458 C460 1.378 . S
C458 C462 1.350 . S
C459 C462 1.463 . S
C459 C464 1.350 . S
C459 N467 1.427 . S
C460 H451 0.930 . S
C460 C458 1.378 . S
C460 C461 1.367 . S
C461 C460 1.367 . S
C461 C463 1.433 . S
C462 C458 1.350 . S
C462 C459 1.463 . S
C462 N466 1.427 . S
C463 H453 0.929 . S
C463 C461 1.433 . S
C463 N466 1.384 . S
C464 H455 0.929 . S
C464 C456 1.378 . S
C464 C459 1.350 . S
C465 H452 0.929 . S
C465 C457 1.433 . S
C465 N467 1.384 . S
N466 C462 1.427 . S
N466 C463 1.384 . S
N467 C459 1.427 . S
N467 C465 1.384 . S
H468 C474 0.930 . S
H469 C478 0.930 1_556 S
H470 C483 0.929 . S
H471 C481 0.929 . S
H472 C476 0.929 . S
H473 C482 0.929 . S
C474 H468 0.930 . S
C474 C475 1.367 . S
C474 C482 1.378 . S
C475 C474 1.367 . S
C475 C483 1.433 . S
C476 H472 0.929 . S
C476 C478 1.378 . S
C476 C480 1.350 . S
C477 C480 1.463 . S
C477 C482 1.350 . S
C477 N485 1.427 . S
C478 H469 0.930 1_554 S
C478 C476 1.378 . S
C478 C479 1.367 . S
C479 C478 1.367 . S
C479 C481 1.433 . S
C480 C476 1.350 . S
C480 C477 1.463 . S
C480 N484 1.427 . S
C481 H471 0.929 . S
C481 C479 1.433 . S
C481 N484 1.384 . S
C482 H473 0.929 . S
C482 C474 1.378 . S
C482 C477 1.350 . S
C483 H470 0.929 . S
C483 C475 1.433 . S
C483 N485 1.384 . S
N484 C480 1.427 . S
N484 C481 1.384 . S
N485 C477 1.427 . S
N485 C483 1.384 . S
H486 C492 0.930 . S
H487 C496 0.930 . S
H488 C501 0.929 . S
H489 C499 0.929 . S
H490 C494 0.929 . S
H491 C500 0.929 . S
C492 H486 0.930 . S
C492 C493 1.367 . S
C492 C500 1.378 . S
C493 C492 1.367 . S
C493 C501 1.433 . S
C494 H490 0.929 . S
C494 C496 1.378 . S
C494 C498 1.350 . S
C495 C498 1.463 . S
C495 C500 1.350 . S
C495 N503 1.427 . S
C496 H487 0.930 . S
C496 C494 1.378 . S
C496 C497 1.367 . S
C497 C496 1.367 . S
C497 C499 1.433 . S
C498 C494 1.350 . S
C498 C495 1.463 . S
C498 N502 1.427 . S
C499 H489 0.929 . S
C499 C497 1.433 . S
C499 N502 1.384 . S
C500 H491 0.929 . S
C500 C492 1.378 . S
C500 C495 1.350 . S
C501 H488 0.929 . S
C501 C493 1.433 . S
C501 N503 1.384 . S
N502 C498 1.427 . S
N502 C499 1.384 . S
N503 C495 1.427 . S
N503 C501 1.384 . S
H504 C510 0.930 . S
H505 C514 0.930 . S
H506 C519 0.929 . S
H507 C517 0.929 . S
H508 C512 0.929 . S
H509 C518 0.929 . S
C510 H504 0.930 . S
C510 C511 1.367 . S
C510 C518 1.378 . S
C511 C510 1.367 . S
C511 C519 1.433 . S
C512 H508 0.929 . S
C512 C514 1.378 . S
C512 C516 1.350 . S
C513 C516 1.463 . S
C513 C518 1.350 . S
C513 N521 1.427 . S
C514 H505 0.930 . S
C514 C512 1.378 . S
C514 C515 1.367 . S
C515 C514 1.367 . S
C515 C517 1.433 1_556 S
C516 C512 1.350 . S
C516 C513 1.463 . S
C516 N520 1.427 . S
C517 H507 0.929 . S
C517 C515 1.433 1_554 S
C517 N520 1.384 1_554 S
C518 H509 0.929 . S
C518 C510 1.378 . S
C518 C513 1.350 . S
C519 H506 0.929 . S
C519 C511 1.433 . S
C519 N521 1.384 . S
N520 C516 1.427 . S
N520 C517 1.384 1_556 S
N521 C513 1.427 . S
N521 C519 1.384 . S
H522 C528 0.930 . S
H523 C532 0.930 . S
H524 C537 0.929 . S
H525 C535 0.929 . S
H526 C530 0.929 . S
H527 C536 0.929 . S
C528 H522 0.930 . S
C528 C529 1.367 . S
C528 C536 1.378 . S
C529 C528 1.367 . S
C529 C537 1.433 . S
C530 H526 0.929 . S
C530 C532 1.378 . S
C530 C534 1.350 . S
C531 C534 1.463 . S
C531 C536 1.350 . S
C531 N539 1.427 . S
C532 H523 0.930 . S
C532 C530 1.378 . S
C532 C533 1.367 . S
C533 C532 1.367 . S
C533 C535 1.433 . S
C534 C530 1.350 . S
C534 C531 1.463 . S
C534 N538 1.427 . S
C535 H525 0.929 . S
C535 C533 1.433 . S
C535 N538 1.384 . S
C536 H527 0.929 . S
C536 C528 1.378 . S
C536 C531 1.350 . S
C537 H524 0.929 . S
C537 C529 1.433 . S
C537 N539 1.384 . S
N538 C534 1.427 . S
N538 C535 1.384 . S
N539 C531 1.427 . S
N539 C537 1.384 . S
H540 C546 0.930 . S
H541 C550 0.930 . S
H542 C555 0.929 . S
H543 C553 0.929 1_556 S
H544 C548 0.929 . S
H545 C554 0.929 . S
C546 H540 0.930 . S
C546 C547 1.367 . S
C546 C554 1.378 . S
C547 C546 1.367 . S
C547 C555 1.433 . S
C548 H544 0.929 . S
C548 C550 1.378 . S
C548 C552 1.350 . S
C549 C552 1.463 . S
C549 C554 1.350 . S
C549 N557 1.427 . S
C550 H541 0.930 . S
C550 C548 1.378 . S
C550 C551 1.367 . S
C551 C550 1.367 . S
C551 C553 1.433 . S
C552 C548 1.350 . S
C552 C549 1.463 . S
C552 N556 1.427 . S
C553 H543 0.929 1_554 S
C553 C551 1.433 . S
C553 N556 1.384 . S
C554 H545 0.929 . S
C554 C546 1.378 . S
C554 C549 1.350 . S
C555 H542 0.929 . S
C555 C547 1.433 . S
C555 N557 1.384 . S
N556 C552 1.427 . S
N556 C553 1.384 . S
N557 C549 1.427 . S
N557 C555 1.384 . S
H558 C564 0.930 . S
H559 C568 0.930 . S
H560 C573 0.929 . S
H561 C571 0.929 1_554 S
H562 C566 0.929 . S
H563 C572 0.929 . S
C564 H558 0.930 . S
C564 C565 1.367 . S
C564 C572 1.378 . S
C565 C564 1.367 . S
C565 C573 1.433 . S
C566 H562 0.929 . S
C566 C568 1.378 . S
C566 C570 1.350 . S
C567 C570 1.463 . S
C567 C572 1.350 . S
C567 N575 1.427 . S
C568 H559 0.930 . S
C568 C566 1.378 . S
C568 C569 1.367 . S
C569 C568 1.367 . S
C569 C571 1.433 . S
C570 C566 1.350 . S
C570 C567 1.463 . S
C570 N574 1.427 . S
C571 H561 0.929 1_556 S
C571 C569 1.433 . S
C571 N574 1.384 . S
C572 H563 0.929 . S
C572 C564 1.378 . S
C572 C567 1.350 . S
C573 H560 0.929 . S
C573 C565 1.433 . S
C573 N575 1.384 . S
N574 C570 1.427 . S
N574 C571 1.384 . S
N575 C567 1.427 . S
N575 C573 1.384 . S
H576 C582 0.930 . S
H577 C586 0.930 . S
H578 C591 0.929 . S
H579 C589 0.929 . S
H580 C584 0.929 . S
H581 C590 0.929 . S
C582 H576 0.930 . S
C582 C583 1.367 . S
C582 C590 1.378 . S
C583 C582 1.367 . S
C583 C591 1.433 . S
C584 H580 0.929 . S
C584 C586 1.378 . S
C584 C588 1.350 . S
C585 C588 1.463 . S
C585 C590 1.350 . S
C585 N593 1.427 . S
C586 H577 0.930 . S
C586 C584 1.378 . S
C586 C587 1.367 . S
C587 C586 1.367 . S
C587 C589 1.433 . S
C588 C584 1.350 . S
C588 C585 1.463 . S
C588 N592 1.427 . S
C589 H579 0.929 . S
C589 C587 1.433 . S
C589 N592 1.384 . S
C590 H581 0.929 . S
C590 C582 1.378 . S
C590 C585 1.350 . S
C591 H578 0.929 . S
C591 C583 1.433 . S
C591 N593 1.384 . S
N592 C588 1.427 . S
N592 C589 1.384 . S
N593 C585 1.427 . S
N593 C591 1.384 . S
H594 C600 0.930 . S
H595 C604 0.930 . S
H596 C609 0.929 . S
H597 C607 0.929 . S
H598 C602 0.929 . S
H599 C608 0.929 . S
C600 H594 0.930 . S
C600 C601 1.367 . S
C600 C608 1.378 . S
C601 C600 1.367 . S
C601 C609 1.433 . S
C602 H598 0.929 . S
C602 C604 1.378 . S
C602 C606 1.350 . S
C603 C606 1.463 . S
C603 C608 1.350 . S
C603 N611 1.427 . S
C604 H595 0.930 . S
C604 C602 1.378 . S
C604 C605 1.367 . S
C605 C604 1.367 . S
C605 C607 1.433 . S
C606 C602 1.350 . S
C606 C603 1.463 . S
C606 N610 1.427 . S
C607 H597 0.929 . S
C607 C605 1.433 . S
C607 N610 1.384 . S
C608 H599 0.929 . S
C608 C600 1.378 . S
C608 C603 1.350 . S
C609 H596 0.929 . S
C609 C601 1.433 . S
C609 N611 1.384 . S
N610 C606 1.427 . S
N610 C607 1.384 . S
N611 C603 1.427 . S
N611 C609 1.384 . S
H612 C618 0.930 . S
H613 C622 0.930 1_545 S
H614 C627 0.929 . S
H615 C625 0.929 . S
H616 C620 0.929 1_545 S
H617 C626 0.929 . S
C618 H612 0.930 . S
C618 C619 1.367 . S
C618 C626 1.378 . S
C619 C618 1.367 . S
C619 C627 1.433 . S
C620 H616 0.929 1_565 S
C620 C622 1.378 . S
C620 C624 1.350 . S
C621 C624 1.463 . S
C621 C626 1.350 . S
C621 N629 1.427 . S
C622 H613 0.930 1_565 S
C622 C620 1.378 . S
C622 C623 1.367 . S
C623 C622 1.367 . S
C623 C625 1.433 . S
C624 C620 1.350 . S
C624 C621 1.463 . S
C624 N628 1.427 . S
C625 H615 0.929 . S
C625 C623 1.433 . S
C625 N628 1.384 . S
C626 H617 0.929 . S
C626 C618 1.378 . S
C626 C621 1.350 . S
C627 H614 0.929 . S
C627 C619 1.433 . S
C627 N629 1.384 . S
N628 C624 1.427 . S
N628 C625 1.384 . S
N629 C621 1.427 . S
N629 C627 1.384 . S
H630 C636 0.930 . S
H631 C640 0.930 . S
H632 C645 0.929 . S
H633 C643 0.929 . S
H634 C638 0.929 . S
H635 C644 0.929 . S
C636 H630 0.930 . S
C636 C637 1.367 . S
C636 C644 1.378 . S
C637 C636 1.367 . S
C637 C645 1.433 . S
C638 H634 0.929 . S
C638 C640 1.378 . S
C638 C642 1.350 . S
C639 C642 1.463 . S
C639 C644 1.350 . S
C639 N647 1.427 . S
C640 H631 0.930 . S
C640 C638 1.378 . S
C640 C641 1.367 . S
C641 C640 1.367 . S
C641 C643 1.433 . S
C642 C638 1.350 . S
C642 C639 1.463 . S
C642 N646 1.427 . S
C643 H633 0.929 . S
C643 C641 1.433 . S
C643 N646 1.384 . S
C644 H635 0.929 . S
C644 C636 1.378 . S
C644 C639 1.350 . S
C645 H632 0.929 . S
C645 C637 1.433 . S
C645 N647 1.384 . S
N646 C642 1.427 . S
N646 C643 1.384 . S
N647 C639 1.427 . S
N647 C645 1.384 . S
H648 C654 0.930 . S
H649 C658 0.930 . S
H650 C663 0.929 . S
H651 C661 0.929 . S
H652 C656 0.929 . S
H653 C662 0.929 . S
C654 H648 0.930 . S
C654 C655 1.367 . S
C654 C662 1.378 . S
C655 C654 1.367 . S
C655 C663 1.433 . S
C656 H652 0.929 . S
C656 C658 1.378 . S
C656 C660 1.350 . S
C657 C660 1.463 . S
C657 C662 1.350 . S
C657 N665 1.427 . S
C658 H649 0.930 . S
C658 C656 1.378 . S
C658 C659 1.367 . S
C659 C658 1.367 . S
C659 C661 1.433 . S
C660 C656 1.350 . S
C660 C657 1.463 . S
C660 N664 1.427 . S
C661 H651 0.929 . S
C661 C659 1.433 . S
C661 N664 1.384 . S
C662 H653 0.929 . S
C662 C654 1.378 . S
C662 C657 1.350 . S
C663 H650 0.929 . S
C663 C655 1.433 . S
C663 N665 1.384 . S
N664 C660 1.427 . S
N664 C661 1.384 . S
N665 C657 1.427 . S
N665 C663 1.384 . S
H666 C672 0.930 . S
H667 C676 0.930 . S
H668 C681 0.929 . S
H669 C679 0.929 . S
H670 C674 0.929 . S
H671 C680 0.929 . S
C672 H666 0.930 . S
C672 C673 1.367 . S
C672 C680 1.378 . S
C673 C672 1.367 . S
C673 C681 1.433 . S
C674 H670 0.929 . S
C674 C676 1.378 . S
C674 C678 1.350 . S
C675 C678 1.463 . S
C675 C680 1.350 . S
C675 N683 1.427 . S
C676 H667 0.930 . S
C676 C674 1.378 . S
C676 C677 1.367 . S
C677 C676 1.367 . S
C677 C679 1.433 . S
C678 C674 1.350 . S
C678 C675 1.463 . S
C678 N682 1.427 . S
C679 H669 0.929 . S
C679 C677 1.433 . S
C679 N682 1.384 . S
C680 H671 0.929 . S
C680 C672 1.378 . S
C680 C675 1.350 . S
C681 H668 0.929 . S
C681 C673 1.433 . S
C681 N683 1.384 . S
N682 C678 1.427 . S
N682 C679 1.384 . S
N683 C675 1.427 . S
N683 C681 1.384 . S
H684 C690 0.930 . S
H685 C694 0.930 . S
H686 C699 0.929 . S
H687 C697 0.929 1_554 S
H688 C692 0.929 . S
H689 C698 0.929 . S
C690 H684 0.930 . S
C690 C691 1.367 . S
C690 C698 1.378 . S
C691 C690 1.367 . S
C691 C699 1.433 . S
C692 H688 0.929 . S
C692 C694 1.378 . S
C692 C696 1.350 . S
C693 C696 1.463 . S
C693 C698 1.350 . S
C693 N701 1.427 . S
C694 H685 0.930 . S
C694 C692 1.378 . S
C694 C695 1.367 . S
C695 C694 1.367 . S
C695 C697 1.433 . S
C696 C692 1.350 . S
C696 C693 1.463 . S
C696 N700 1.427 . S
C697 H687 0.929 1_556 S
C697 C695 1.433 . S
C697 N700 1.384 . S
C698 H689 0.929 . S
C698 C690 1.378 . S
C698 C693 1.350 . S
C699 H686 0.929 . S
C699 C691 1.433 . S
C699 N701 1.384 . S
N700 C696 1.427 . S
N700 C697 1.384 . S
N701 C693 1.427 . S
N701 C699 1.384 . S
H702 C708 0.930 . S
H703 C712 0.930 . S
H704 C717 0.929 . S
H705 C715 0.929 . S
H706 C710 0.929 . S
H707 C716 0.929 . S
C708 H702 0.930 . S
C708 C709 1.367 . S
C708 C716 1.378 . S
C709 C708 1.367 . S
C709 C717 1.433 . S
C710 H706 0.929 . S
C710 C712 1.378 . S
C710 C714 1.350 . S
C711 C714 1.463 . S
C711 C716 1.350 . S
C711 N719 1.427 . S
C712 H703 0.930 . S
C712 C710 1.378 . S
C712 C713 1.367 . S
C713 C712 1.367 . S
C713 C715 1.433 . S
C714 C710 1.350 . S
C714 C711 1.463 . S
C714 N718 1.427 . S
C715 H705 0.929 . S
C715 C713 1.433 . S
C715 N718 1.384 . S
C716 H707 0.929 . S
C716 C708 1.378 . S
C716 C711 1.350 . S
C717 H704 0.929 . S
C717 C709 1.433 . S
C717 N719 1.384 . S
N718 C714 1.427 . S
N718 C715 1.384 . S
N719 C711 1.427 . S
N719 C717 1.384 . S
H720 C726 0.930 . S
H721 C730 0.930 1_556 S
H722 C735 0.929 . S
H723 C733 0.929 . S
H724 C728 0.929 . S
H725 C734 0.929 . S
C726 H720 0.930 . S
C726 C727 1.367 . S
C726 C734 1.378 . S
C727 C726 1.367 . S
C727 C735 1.433 . S
C728 H724 0.929 . S
C728 C730 1.378 . S
C728 C732 1.350 . S
C729 C732 1.463 . S
C729 C734 1.350 . S
C729 N737 1.427 . S
C730 H721 0.930 1_554 S
C730 C728 1.378 . S
C730 C731 1.367 . S
C731 C730 1.367 . S
C731 C733 1.433 . S
C732 C728 1.350 . S
C732 C729 1.463 . S
C732 N736 1.427 . S
C733 H723 0.929 . S
C733 C731 1.433 . S
C733 N736 1.384 . S
C734 H725 0.929 . S
C734 C726 1.378 . S
C734 C729 1.350 . S
C735 H722 0.929 . S
C735 C727 1.433 . S
C735 N737 1.384 . S
N736 C732 1.427 . S
N736 C733 1.384 . S
N737 C729 1.427 . S
N737 C735 1.384 . S
H738 C744 0.930 . S
H739 C748 0.930 . S
H740 C753 0.929 . S
H741 C751 0.929 . S
H742 C746 0.929 . S
H743 C752 0.929 . S
C744 H738 0.930 . S
C744 C745 1.367 . S
C744 C752 1.378 . S
C745 C744 1.367 . S
C745 C753 1.433 . S
C746 H742 0.929 . S
C746 C748 1.378 . S
C746 C750 1.350 . S
C747 C750 1.463 . S
C747 C752 1.350 . S
C747 N755 1.427 . S
C748 H739 0.930 . S
C748 C746 1.378 . S
C748 C749 1.367 . S
C749 C748 1.367 . S
C749 C751 1.433 . S
C750 C746 1.350 . S
C750 C747 1.463 . S
C750 N754 1.427 . S
C751 H741 0.929 . S
C751 C749 1.433 . S
C751 N754 1.384 . S
C752 H743 0.929 . S
C752 C744 1.378 . S
C752 C747 1.350 . S
C753 H740 0.929 . S
C753 C745 1.433 . S
C753 N755 1.384 . S
N754 C750 1.427 . S
N754 C751 1.384 . S
N755 C747 1.427 . S
N755 C753 1.384 . S
H756 C762 0.930 . S
H757 C766 0.930 . S
H758 C771 0.929 . S
H759 C769 0.929 1_455 S
H760 C764 0.929 . S
H761 C770 0.929 . S
C762 H756 0.930 . S
C762 C763 1.367 . S
C762 C770 1.378 . S
C763 C762 1.367 . S
C763 C771 1.433 . S
C764 H760 0.929 . S
C764 C766 1.378 . S
C764 C768 1.350 . S
C765 C768 1.463 . S
C765 C770 1.350 . S
C765 N773 1.427 . S
C766 H757 0.930 . S
C766 C764 1.378 . S
C766 C767 1.367 . S
C767 C766 1.367 . S
C767 C769 1.433 . S
C768 C764 1.350 . S
C768 C765 1.463 . S
C768 N772 1.427 . S
C769 H759 0.929 1_655 S
C769 C767 1.433 . S
C769 N772 1.384 . S
C770 H761 0.929 . S
C770 C762 1.378 . S
C770 C765 1.350 . S
C771 H758 0.929 . S
C771 C763 1.433 . S
C771 N773 1.384 . S
N772 C768 1.427 . S
N772 C769 1.384 . S
N773 C765 1.427 . S
N773 C771 1.384 . S
H774 C780 0.930 . S
H775 C784 0.930 . S
H776 C789 0.929 . S
H777 C787 0.929 1_556 S
H778 C782 0.929 . S
H779 C788 0.929 . S
C780 H774 0.930 . S
C780 C781 1.367 . S
C780 C788 1.378 . S
C781 C780 1.367 . S
C781 C789 1.433 . S
C782 H778 0.929 . S
C782 C784 1.378 . S
C782 C786 1.350 . S
C783 C786 1.463 . S
C783 C788 1.350 . S
C783 N791 1.427 . S
C784 H775 0.930 . S
C784 C782 1.378 . S
C784 C785 1.367 . S
C785 C784 1.367 . S
C785 C787 1.433 . S
C786 C782 1.350 . S
C786 C783 1.463 . S
C786 N790 1.427 . S
C787 H777 0.929 1_554 S
C787 C785 1.433 . S
C787 N790 1.384 . S
C788 H779 0.929 . S
C788 C780 1.378 . S
C788 C783 1.350 . S
C789 H776 0.929 . S
C789 C781 1.433 . S
C789 N791 1.384 . S
N790 C786 1.427 . S
N790 C787 1.384 . S
N791 C783 1.427 . S
N791 C789 1.384 . S
H792 C798 0.930 . S
H793 C802 0.930 1_655 S
H794 C807 0.929 . S
H795 C805 0.929 . S
H796 C800 0.929 1_655 S
H797 C806 0.929 . S
C798 H792 0.930 . S
C798 C799 1.367 . S
C798 C806 1.378 . S
C799 C798 1.367 . S
C799 C807 1.433 . S
C800 H796 0.929 1_455 S
C800 C802 1.378 . S
C800 C804 1.350 . S
C801 C804 1.463 . S
C801 C806 1.350 . S
C801 N809 1.427 . S
C802 H793 0.930 1_455 S
C802 C800 1.378 . S
C802 C803 1.367 . S
C803 C802 1.367 . S
C803 C805 1.433 . S
C804 C800 1.350 . S
C804 C801 1.463 . S
C804 N808 1.427 . S
C805 H795 0.929 . S
C805 C803 1.433 . S
C805 N808 1.384 . S
C806 H797 0.929 . S
C806 C798 1.378 . S
C806 C801 1.350 . S
C807 H794 0.929 . S
C807 C799 1.433 . S
C807 N809 1.384 . S
N808 C804 1.427 . S
N808 C805 1.384 . S
N809 C801 1.427 . S
N809 C807 1.384 . S
H810 C816 0.930 . S
H811 C820 0.930 . S
H812 C825 0.929 . S
H813 C823 0.929 . S
H814 C818 0.929 . S
H815 C824 0.929 . S
C816 H810 0.930 . S
C816 C817 1.367 . S
C816 C824 1.378 . S
C817 C816 1.367 . S
C817 C825 1.433 . S
C818 H814 0.929 . S
C818 C820 1.378 . S
C818 C822 1.350 . S
C819 C822 1.463 . S
C819 C824 1.350 . S
C819 N827 1.427 . S
C820 H811 0.930 . S
C820 C818 1.378 . S
C820 C821 1.367 . S
C821 C820 1.367 . S
C821 C823 1.433 . S
C822 C818 1.350 . S
C822 C819 1.463 . S
C822 N826 1.427 . S
C823 H813 0.929 . S
C823 C821 1.433 . S
C823 N826 1.384 . S
C824 H815 0.929 . S
C824 C816 1.378 . S
C824 C819 1.350 . S
C825 H812 0.929 . S
C825 C817 1.433 . S
C825 N827 1.384 . S
N826 C822 1.427 . S
N826 C823 1.384 . S
N827 C819 1.427 . S
N827 C825 1.384 . S
C403 C1 1.633 . S
C407 C330 1.588 . S
C421 C40 1.514 . S
C425 C347 1.473 . S
C443 C370 1.199 . S
C439 C99 1.453 . S
C457 C118 1.834 . S
C461 C391 1.491 . S
C479 C350 1.776 . S
C475 C16 1.818 . S
C497 C327 1.679 . S
C493 C60 1.722 . S
C515 C389 1.319 . S
C511 C79 1.386 . S
C533 C368 1.452 . S
C529 C138 1.464 . S
C547 C21 1.771 . S
C551 C392 1.720 . S
C569 C349 1.352 . S
C565 C94 1.644 . S
C583 C133 1.690 . S
C587 C325 1.524 . S
C601 C55 1.532 . S
C605 C371 1.533 . S
C623 C329 1.596 . S
C619 C157 1.663 . S
C637 C196 1.319 . S
C641 C348 1.293 . S
C655 C255 1.519 . S
C659 C367 1.291 . S
C673 C289 1.744 . S
C677 C388 1.395 . S
C691 C172 1.783 . S
C695 C351 1.752 . S
C713 C326 1.758 . S
C709 C216 1.814 . S
C731 C390 1.222 . S
C727 C235 1.260 . S
C749 C369 1.538 . S
C745 C294 1.583 . S
C763 C177 1.578 . S
C767 C393 1.554 . S
C785 C346 1.276 . S
C781 C250 1.520 . S
C803 C328 1.334 . S
C799 C274 1.471 . S
C817 C211 1.472 . S
C821 C372 1.465 . S
