# Generated by pormake.
# Topology rtl, (3,6)-cn, num edge types: 1
# Building blocks:
#     Node 0, Type 0, BuildingBlock: VETTIZ_charged_linker_0, # of connection points: 3
#     Node 1, Type 0, BuildingBlock: VETTIZ_charged_linker_0, # of connection points: 3
#     Node 2, Type 0, BuildingBlock: VETTIZ_charged_linker_0, # of connection points: 3
#     Node 3, Type 0, BuildingBlock: VETTIZ_charged_linker_0, # of connection points: 3
#     Node 4, Type 1, BuildingBlock: VOLQOD_clean_sbu_1, # of connection points: 6
#     Node 5, Type 1, BuildingBlock: VOLQOD_clean_sbu_1, # of connection points: 6
#     Edge 6, Type (0, 1), BuildingBlock: XUDNAN_clean_linker_2, # of connection points: 2
#     Edge 7, Type (0, 1), BuildingBlock: XUDNAN_clean_linker_2, # of connection points: 2
#     Edge 8, Type (0, 1), BuildingBlock: XUDNAN_clean_linker_2, # of connection points: 2
#     Edge 9, Type (0, 1), BuildingBlock: XUDNAN_clean_linker_2, # of connection points: 2
#     Edge 10, Type (0, 1), BuildingBlock: XUDNAN_clean_linker_2, # of connection points: 2
#     Edge 11, Type (0, 1), BuildingBlock: XUDNAN_clean_linker_2, # of connection points: 2
#     Edge 12, Type (0, 1), BuildingBlock: XUDNAN_clean_linker_2, # of connection points: 2
#     Edge 13, Type (0, 1), BuildingBlock: XUDNAN_clean_linker_2, # of connection points: 2
#     Edge 14, Type (0, 1), BuildingBlock: XUDNAN_clean_linker_2, # of connection points: 2
#     Edge 15, Type (0, 1), BuildingBlock: XUDNAN_clean_linker_2, # of connection points: 2
#     Edge 16, Type (0, 1), BuildingBlock: XUDNAN_clean_linker_2, # of connection points: 2
#     Edge 17, Type (0, 1), BuildingBlock: XUDNAN_clean_linker_2, # of connection points: 2
# Relax obj value: 0.081
# Max RMSD: 0.157
# Mean RMSD: 0.091
data_MOF--net-rtl--node1-VOLQOD_clean_sbu_1--node2-VETTIZ_charged_linker_0--edge1-XUDNAN_clean_linker_2
_symmetry_space_group_name_H-M    P1
_symmetry_Int_Tables_number       1
_symmetry_cell_setting            triclinic
loop_
_symmetry_equiv_pos_as_xyz
'x, y, z'
_cell_length_a     44.415424
_cell_length_b     38.450428
_cell_length_c     29.060008
_cell_angle_alpha  90.07251
_cell_angle_beta   90.097014
_cell_angle_gamma 90.19415
loop_
_atom_site_label
_atom_site_type_symbol
_atom_site_fract_x
_atom_site_fract_y
_atom_site_fract_z
_atom_type_partial_charge
C0 C 0.10387 0.75496 0.83376 0.0
C1 C 0.07898 0.776 0.82354 0.0
C2 C 0.05799 0.78377 0.85818 0.0
C3 C 0.08854 0.7533 0.9139 0.0
C4 C 0.10831 0.74407 0.87932 0.0
C5 C 0.13513 0.72464 0.89772 0.0
H6 H 0.21617 0.67033 0.08118 0.0
C7 C 0.10144 0.742 0.95819 0.0
C8 C 0.12863 0.72496 0.94909 0.0
H9 H 0.23713 0.65964 0.93628 0.0
H10 H 0.18975 0.68531 0.91642 0.0
H11 H 0.1956 0.74637 0.0728 0.0
H12 H 0.14238 0.65253 0.07456 0.0
H13 H 0.12657 0.68324 0.11276 0.0
H14 H 0.16424 0.66779 0.12265 0.0
H15 H 0.18641 0.7248 0.12564 0.0
H16 H 0.16173 0.75675 0.10032 0.0
C17 C 0.16388 0.74575 0.88569 0.0
C18 C 0.13435 0.68731 0.87763 0.0
C19 C 0.05449 0.78652 0.10486 0.0
C20 C 0.06521 0.78897 0.15022 0.0
C21 C 0.0903 0.76881 0.16324 0.0
C22 C 0.10584 0.74883 0.13045 0.0
C23 C 0.09646 0.74953 0.08416 0.0
C24 C 0.07075 0.76759 0.07238 0.0
C25 C 0.06547 0.76855 0.0214 0.0
C26 C 0.09246 0.7484 0.00422 0.0
C27 C 0.11044 0.73701 0.04098 0.0
C28 C 0.06602 0.80723 0.0056 0.0
C29 C 0.03565 0.74903 0.01114 0.0
C30 C 0.21072 0.67357 0.04513 0.0
C31 C 0.2307 0.6626 0.01041 0.0
C32 C 0.22217 0.66705 0.96396 0.0
C33 C 0.19466 0.68239 0.95235 0.0
C34 C 0.17552 0.69416 0.98739 0.0
C35 C 0.18352 0.68946 0.0329 0.0
C36 C 0.16096 0.70514 0.06546 0.0
C37 C 0.13772 0.71907 0.0319 0.0
C38 C 0.14654 0.71279 0.98621 0.0
C39 C 0.17681 0.73466 0.09286 0.0
C40 C 0.14783 0.67581 0.09582 0.0
H41 H 0.04601 0.77963 0.92826 0.0
H42 H 0.12034 0.74887 0.80753 0.0
H43 H 0.11077 0.67802 0.87314 0.0
H44 H 0.14489 0.66799 0.90065 0.0
H45 H 0.14543 0.68629 0.84342 0.0
H46 H 0.15961 0.77417 0.8885 0.0
H47 H 0.17133 0.74034 0.84993 0.0
H48 H 0.18282 0.74088 0.90937 0.0
H49 H 0.03502 0.80126 0.09385 0.0
H50 H 0.09902 0.77014 0.19802 0.0
H51 H 0.12538 0.73494 0.14193 0.0
H52 H 0.079 0.82395 0.02989 0.0
H53 H 0.04292 0.81807 0.0033 0.0
H54 H 0.07753 0.81105 0.97232 0.0
H55 H 0.03339 0.72565 0.03342 0.0
H56 H 0.0344 0.73902 0.97552 0.0
H57 H 0.0159 0.76596 0.01775 0.0
H58 H 0.03857 0.79978 0.85058 0.0
C59 C 0.06244 0.77218 0.9032 0.0
C60 C 0.59316 0.73864 0.65401 0.0
C61 C 0.57206 0.71127 0.65281 0.0
C62 C 0.55788 0.70301 0.6108 0.0
C63 C 0.59001 0.74438 0.57114 0.0
C64 C 0.60208 0.75448 0.61292 0.0
C65 C 0.62732 0.78038 0.60757 0.0
H66 H 0.73033 0.85668 0.46929 0.0
C67 C 0.60777 0.76134 0.53444 0.0
C68 C 0.62967 0.78245 0.55554 0.0
H69 H 0.71851 0.87098 0.6157 0.0
H70 H 0.67429 0.83422 0.61402 0.0
H71 H 0.71682 0.77689 0.466 0.0
H72 H 0.65842 0.86447 0.44457 0.0
H73 H 0.6506 0.83358 0.40143 0.0
H74 H 0.68769 0.85252 0.40513 0.0
H75 H 0.71698 0.80104 0.41323 0.0
H76 H 0.69166 0.76486 0.42218 0.0
C77 C 0.65609 0.76483 0.62963 0.0
C78 C 0.61721 0.8154 0.62892 0.0
C79 C 0.59047 0.72601 0.36815 0.0
C80 C 0.60735 0.73075 0.3276 0.0
C81 C 0.63301 0.75256 0.32933 0.0
C82 C 0.64184 0.7687 0.37047 0.0
C83 C 0.6253 0.76257 0.41082 0.0
C84 C 0.60014 0.74143 0.40922 0.0
C85 C 0.58701 0.73501 0.45613 0.0
C86 C 0.60794 0.75672 0.48598 0.0
C87 C 0.63016 0.77302 0.4592 0.0
C88 C 0.58931 0.69548 0.46675 0.0
C89 C 0.55453 0.74939 0.45685 0.0
C90 C 0.71829 0.85166 0.501 0.0
C91 C 0.72804 0.86639 0.54276 0.0
C92 C 0.71139 0.85994 0.58312 0.0
C93 C 0.6858 0.83852 0.58211 0.0
C94 C 0.67673 0.82331 0.54031 0.0
C95 C 0.6925 0.83061 0.5005 0.0
C96 C 0.67874 0.81342 0.45893 0.0
C97 C 0.6522 0.79453 0.48045 0.0
C98 C 0.65149 0.79988 0.52822 0.0
C99 C 0.70215 0.78785 0.43856 0.0
C100 C 0.66841 0.84229 0.42537 0.0
H101 H 0.55591 0.71132 0.53869 0.0
H102 H 0.604 0.74598 0.68602 0.0
H103 H 0.5923 0.81832 0.62755 0.0
H104 H 0.62603 0.83812 0.60982 0.0
H105 H 0.62413 0.81741 0.66557 0.0
H106 H 0.65838 0.73689 0.62028 0.0
H107 H 0.65522 0.76665 0.66775 0.0
H108 H 0.67704 0.77735 0.61788 0.0
H109 H 0.57043 0.70994 0.36855 0.0
H110 H 0.64699 0.75636 0.29928 0.0
H111 H 0.66173 0.78458 0.36949 0.0
H112 H 0.60671 0.68253 0.44526 0.0
H113 H 0.56761 0.68193 0.46013 0.0
H114 H 0.59651 0.69025 0.50253 0.0
H115 H 0.55361 0.77534 0.44 0.0
H116 H 0.54592 0.75337 0.49209 0.0
H117 H 0.53888 0.73179 0.43806 0.0
H118 H 0.54149 0.68212 0.609 0.0
C119 C 0.56664 0.7196 0.56994 0.0
C120 C 0.89919 0.24948 0.16367 0.0
C121 C 0.92746 0.23511 0.1743 0.0
C122 C 0.94963 0.2337 0.13958 0.0
C123 C 0.91386 0.25487 0.08363 0.0
C124 C 0.89304 0.2595 0.1183 0.0
C125 C 0.86414 0.27486 0.10068 0.0
H126 H 0.77955 0.32792 0.92039 0.0
C127 C 0.89954 0.26428 0.03966 0.0
C128 C 0.87066 0.27686 0.04943 0.0
H129 H 0.75904 0.3349 0.06556 0.0
H130 H 0.80629 0.30772 0.08412 0.0
H131 H 0.84842 0.35158 0.92736 0.0
H132 H 0.8075 0.24981 0.92638 0.0
H133 H 0.84015 0.24759 0.89266 0.0
H134 H 0.81 0.27611 0.87555 0.0
H135 H 0.83144 0.33314 0.87675 0.0
H136 H 0.87015 0.32456 0.89161 0.0
C137 C 0.86032 0.31141 0.12255 0.0
C138 C 0.83821 0.24907 0.11134 0.0
C139 C 0.94855 0.22687 0.89029 0.0
C140 C 0.93915 0.22798 0.8441 0.0
C141 C 0.91286 0.24672 0.83289 0.0
C142 C 0.89543 0.26237 0.86732 0.0
C143 C 0.90426 0.25923 0.91357 0.0
C144 C 0.93087 0.24255 0.92425 0.0
C145 C 0.93688 0.24185 0.97515 0.0
C146 C 0.90879 0.25952 0.99338 0.0
C147 C 0.88967 0.26946 0.95721 0.0
C148 C 0.96578 0.26342 0.98508 0.0
C149 C 0.93881 0.2033 0.99037 0.0
C150 C 0.78531 0.32362 0.95617 0.0
C151 C 0.76555 0.33358 0.99157 0.0
C152 C 0.77368 0.3271 0.03766 0.0
C153 C 0.8013 0.31165 0.0484 0.0
C154 C 0.82102 0.3024 0.01272 0.0
C155 C 0.81283 0.30814 0.96749 0.0
C156 C 0.83658 0.29614 0.9342 0.0
C157 C 0.86088 0.28368 0.96704 0.0
C158 C 0.85147 0.28722 0.01292 0.0
C159 C 0.84722 0.3278 0.90557 0.0
C160 C 0.82304 0.26599 0.90528 0.0
H161 H 0.96043 0.24068 0.06928 0.0
H162 H 0.88169 0.25143 0.18941 0.0
H163 H 0.84535 0.22186 0.10438 0.0
H164 H 0.8181 0.25316 0.0897 0.0
H165 H 0.83144 0.2507 0.14806 0.0
H166 H 0.88243 0.32309 0.13206 0.0
H167 H 0.84649 0.31016 0.15432 0.0
H168 H 0.8502 0.33035 0.09848 0.0
H169 H 0.96851 0.21265 0.90027 0.0
H170 H 0.90544 0.24877 0.79748 0.0
H171 H 0.87542 0.27572 0.85667 0.0
H172 H 0.97088 0.28197 0.95676 0.0
H173 H 0.98572 0.24636 0.98926 0.0
H174 H 0.96343 0.27999 0.01609 0.0
H175 H 0.91977 0.18805 0.97557 0.0
H176 H 0.93744 0.19974 0.02788 0.0
H177 H 0.96012 0.19131 0.9784 0.0
H178 H 0.97202 0.22415 0.14705 0.0
C179 C 0.94295 0.24341 0.09439 0.0
C180 C 0.42535 0.27863 0.38326 0.0
C181 C 0.44747 0.30446 0.39002 0.0
C182 C 0.46052 0.3083 0.43401 0.0
C183 C 0.42549 0.26637 0.46526 0.0
C184 C 0.41467 0.25986 0.42144 0.0
C185 C 0.38945 0.23348 0.4218 0.0
H186 H 0.27754 0.157 0.54101 0.0
C187 C 0.40634 0.2476 0.49847 0.0
C188 C 0.38534 0.22788 0.47336 0.0
H189 H 0.30039 0.14215 0.3974 0.0
H190 H 0.34522 0.17666 0.40776 0.0
H191 H 0.34669 0.14218 0.57601 0.0
H192 H 0.29584 0.23534 0.55049 0.0
H193 H 0.31669 0.24218 0.60107 0.0
H194 H 0.28892 0.20791 0.5993 0.0
H195 H 0.3172 0.15649 0.61362 0.0
H196 H 0.35544 0.17181 0.62018 0.0
C197 C 0.40039 0.20005 0.39711 0.0
C198 C 0.36131 0.25011 0.39944 0.0
C199 C 0.41254 0.28131 0.6672 0.0
C200 C 0.3932 0.2756 0.70465 0.0
C201 C 0.36878 0.25243 0.69947 0.0
C202 C 0.36313 0.23607 0.65714 0.0
C203 C 0.3818 0.24342 0.6193 0.0
C204 C 0.40626 0.26535 0.62491 0.0
C205 C 0.42244 0.27213 0.58039 0.0
C206 C 0.40363 0.25066 0.54704 0.0
C207 C 0.38 0.23374 0.57006 0.0
C208 C 0.45473 0.25747 0.58479 0.0
C209 C 0.42103 0.31181 0.5701 0.0
C210 C 0.29225 0.16059 0.51173 0.0
C211 C 0.28456 0.14746 0.46792 0.0
C212 C 0.30483 0.15297 0.43114 0.0
C213 C 0.33106 0.17282 0.43716 0.0
C214 C 0.3374 0.18724 0.48043 0.0
C215 C 0.31887 0.17982 0.51725 0.0
C216 C 0.33055 0.19524 0.56144 0.0
C217 C 0.35895 0.21338 0.5448 0.0
C218 C 0.36229 0.20948 0.49701 0.0
C219 C 0.33772 0.16507 0.59495 0.0
C220 C 0.30685 0.2214 0.5795 0.0
H221 H 0.45964 0.29466 0.50449 0.0
H222 H 0.4152 0.27482 0.34973 0.0
H223 H 0.3568 0.27603 0.41495 0.0
H224 H 0.3407 0.23452 0.40411 0.0
H225 H 0.36463 0.25372 0.36187 0.0
H226 H 0.42538 0.19893 0.395 0.0
H227 H 0.39156 0.1985 0.36138 0.0
H228 H 0.39383 0.17616 0.41596 0.0
H229 H 0.43109 0.29958 0.66989 0.0
H230 H 0.35366 0.24759 0.72798 0.0
H231 H 0.34388 0.21921 0.65515 0.0
H232 H 0.4545 0.23199 0.60291 0.0
H233 H 0.46941 0.27543 0.60479 0.0
H234 H 0.46528 0.25225 0.55108 0.0
H235 H 0.40257 0.32478 0.58937 0.0
H236 H 0.41592 0.31749 0.53365 0.0
H237 H 0.44237 0.3251 0.57975 0.0
H238 H 0.4782 0.3273 0.43982 0.0
C239 C 0.4497 0.28939 0.47156 0.0
O240 O 0.93424 0.00865 0.52515 0.0
Zn241 Zn 0.97188 0.03675 0.51646 0.0
O242 O 0.00594 0.00685 0.50105 0.0
Zn243 Zn 0.03779 0.0119 0.54805 0.0
Zn244 Zn 0.99215 0.95837 0.4958 0.0
Zn245 Zn 0.02166 0.02109 0.44197 0.0
O246 O 0.07726 0.02915 0.52009 0.0
O247 O 0.06441 0.03649 0.44698 0.0
O248 O 0.97975 0.06241 0.5749 0.0
O249 O 0.02569 0.04703 0.59703 0.0
O250 O 0.04489 0.96538 0.57886 0.0
O251 O 0.01425 0.929 0.54152 0.0
O252 O 1.00031 0.93768 0.4329 0.0
O253 O 0.96364 0.07299 0.46771 0.0
O254 O 0.01974 0.98282 0.39578 0.0
O255 O 0.99856 0.0606 0.41589 0.0
C256 C 0.92758 0.97661 0.5205 0.0
C257 C 0.08382 0.0383 0.47912 0.0
C258 C 0.03419 0.93494 0.5721 0.0
C259 C 0.00171 0.06463 0.6029 0.0
C260 C 0.01114 0.95128 0.39659 0.0
C261 C 0.97643 0.0788 0.42932 0.0
O262 O 0.94733 0.95433 0.50868 0.0
O263 O 0.57184 0.48914 0.99565 0.0
Zn264 Zn 0.53968 0.52456 0.00199 0.0
O265 O 0.50095 0.50291 0.01289 0.0
Zn266 Zn 0.47349 0.51499 0.96184 0.0
Zn267 Zn 0.50616 0.45193 0.01888 0.0
Zn268 Zn 0.48551 0.52184 0.07012 0.0
O269 O 0.43743 0.54164 0.98543 0.0
O270 O 0.44597 0.54569 0.06061 0.0
O271 O 0.53946 0.5494 0.94299 0.0
O272 O 0.49424 0.54418 0.91146 0.0
O273 O 0.45739 0.47074 0.93384 0.0
O274 O 0.48018 0.42747 0.97118 0.0
O275 O 0.49434 0.43483 0.08326 0.0
O276 O 0.55158 0.55977 0.04989 0.0
O277 O 0.4801 0.48423 0.11617 0.0
O278 O 0.51348 0.55676 0.09889 0.0
C279 C 0.57297 0.45616 0.99776 0.0
C280 C 0.42968 0.55172 0.02548 0.0
C281 C 0.46199 0.43842 0.94046 0.0
C282 C 0.52128 0.55549 0.9103 0.0
C283 C 0.48444 0.45158 0.11801 0.0
C284 C 0.53867 0.56948 0.08668 0.0
O285 O 0.5497 0.43795 0.00695 0.0
H286 H 0.25168 0.10598 0.52805 0.0
H287 H 0.24946 0.14972 0.3901 0.0
H288 H 0.20018 0.12256 0.37698 0.0
H289 H 0.21203 0.02511 0.50295 0.0
H290 H 0.19099 0.02572 0.55593 0.0
H291 H 0.2278 0.04548 0.55348 0.0
H292 H 0.20556 0.10366 0.58263 0.0
H293 H 0.16872 0.08409 0.58523 0.0
H294 H 0.17455 0.12308 0.55201 0.0
H295 H 0.15058 0.09327 0.37903 0.0
H296 H 0.10208 0.06589 0.39737 0.0
H297 H 0.13377 0.04419 0.53599 0.0
C298 C 0.24095 0.10995 0.49503 0.0
C299 C 0.25505 0.12972 0.4599 0.0
C300 C 0.23993 0.1339 0.4172 0.0
C301 C 0.21167 0.11877 0.40945 0.0
C302 C 0.19847 0.0998 0.44482 0.0
C303 C 0.21242 0.09548 0.48688 0.0
C304 C 0.19227 0.0757 0.51999 0.0
C305 C 0.20664 0.04094 0.5339 0.0
C306 C 0.18483 0.09797 0.56247 0.0
C307 C 0.16469 0.07001 0.49001 0.0
C308 C 0.16904 0.08378 0.44662 0.0
C309 C 0.14688 0.0823 0.41283 0.0
C310 C 0.11935 0.06662 0.4237 0.0
C311 C 0.11396 0.05284 0.46822 0.0
C312 C 0.13713 0.0544 0.50167 0.0
H313 H 0.26285 0.61219 0.96398 0.0
H314 H 0.26745 0.6805 0.08317 0.0
H315 H 0.31779 0.65781 0.10138 0.0
H316 H 0.30352 0.53977 0.01146 0.0
H317 H 0.32316 0.53051 0.95864 0.0
H318 H 0.28639 0.55007 0.95689 0.0
H319 H 0.30767 0.60108 0.90849 0.0
H320 H 0.34451 0.58171 0.91012 0.0
H321 H 0.33932 0.6257 0.93003 0.0
H322 H 0.36791 0.62829 0.10634 0.0
H323 H 0.41527 0.59588 0.09561 0.0
H324 H 0.37981 0.55082 0.96954 0.0
C325 C 0.27437 0.62265 0.99381 0.0
C326 C 0.26079 0.64803 0.02229 0.0
C327 C 0.2768 0.66046 0.06133 0.0
C328 C 0.3056 0.64795 0.07181 0.0
C329 C 0.31833 0.6233 0.04268 0.0
C330 C 0.30334 0.61096 0.00432 0.0
C331 C 0.32263 0.58569 0.97742 0.0
C332 C 0.30805 0.54936 0.97605 0.0
C333 C 0.3289 0.59938 0.92863 0.0
C334 C 0.35088 0.58587 0.00661 0.0
C335 C 0.34779 0.60744 0.04438 0.0
C336 C 0.37065 0.61141 0.07682 0.0
C337 C 0.39742 0.59286 0.07046 0.0
C338 C 0.40126 0.57101 0.03162 0.0
C339 C 0.37764 0.56761 -0.0007 0.0
H340 H 0.7831 0.85236 0.5048 0.0
H341 H 0.73494 0.92964 0.58455 0.0
H342 H 0.78088 0.96611 0.58772 0.0
H343 H 0.8535 0.86058 0.56525 0.0
H344 H 0.87624 0.85462 0.51454 0.0
H345 H 0.83946 0.8349 0.51785 0.0
H346 H 0.82398 0.8655 0.44205 0.0
H347 H 0.86073 0.88525 0.43844 0.0
H348 H 0.82755 0.9121 0.43757 0.0
H349 H 0.83148 0.99456 0.58072 0.0
H350 H 0.88403 0.0124 0.56673 0.0
H351 H 0.89996 0.91565 0.49356 0.0
C352 C 0.78222 0.87708 0.52264 0.0
C353 C 0.75551 0.88831 0.54435 0.0
C354 C 0.75527 0.92053 0.56797 0.0
C355 C 0.78118 0.94143 0.56979 0.0
C356 C 0.80717 0.92957 0.54812 0.0
C357 C 0.80796 0.89808 0.5252 0.0
C358 C 0.83894 0.89111 0.50555 0.0
C359 C 0.85285 0.85836 0.5271 0.0
C360 C 0.83772 0.88834 0.45277 0.0
C361 C 0.85543 0.9237 0.52083 0.0
C362 C 0.83661 0.94559 0.54511 0.0
C363 C 0.84647 0.97758 0.56193 0.0
C364 C 0.87636 0.98749 0.5537 0.0
C365 C 0.89617 0.96538 0.52918 0.0
C366 C 0.88547 0.93299 0.51275 0.0
H367 H 0.70944 0.3238 0.02949 0.0
H368 H 0.75836 0.38679 0.93062 0.0
H369 H 0.71286 0.42197 0.91739 0.0
H370 H 0.63605 0.32614 0.9694 0.0
H371 H 0.61508 0.32872 0.02234 0.0
H372 H 0.65066 0.30632 0.02097 0.0
H373 H 0.67036 0.34544 0.08722 0.0
H374 H 0.63495 0.36803 0.08868 0.0
H375 H 0.66947 0.39206 0.08075 0.0
H376 H 0.66472 0.45408 0.9212 0.0
H377 H 0.61519 0.47962 0.93822 0.0
H378 H 0.59606 0.39523 0.03293 0.0
C379 C 0.71043 0.34477 0.00469 0.0
C380 C 0.73739 0.3525 0.9809 0.0
C381 C 0.73783 0.38008 0.94865 0.0
C382 C 0.71215 0.40029 0.94107 0.0
C383 C 0.68613 0.39237 0.96564 0.0
C384 C 0.6849 0.36507 0.99644 0.0
C385 C 0.65441 0.36311 0.01975 0.0
C386 C 0.63808 0.32904 0.00736 0.0
C387 C 0.6575 0.36743 0.0722 0.0
C388 C 0.63901 0.3942 0.99816 0.0
C389 C 0.65779 0.41059 0.967 0.0
C390 C 0.64961 0.44121 0.94493 0.0
C391 C 0.62152 0.45559 0.95504 0.0
C392 C 0.60181 0.43925 0.98668 0.0
C393 C 0.61052 0.40789 0.00805 0.0
H394 H 0.0537 0.78537 0.24397 0.0
H395 H 0.05036 0.85509 0.12651 0.0
H396 H 0.03197 0.90195 0.17617 0.0
H397 H 0.98694 0.82022 0.30332 0.0
H398 H 0.00353 0.81616 0.35971 0.0
H399 H 0.01408 0.78649 0.31448 0.0
H400 H 0.07018 0.80296 0.32627 0.0
H401 H 0.05981 0.8326 0.37151 0.0
H402 H 0.08139 0.848 0.32313 0.0
H403 H 0.01828 0.94258 0.23757 0.0
H404 H 0.00936 0.97535 0.30905 0.0
H405 H 0.0206 0.88073 0.38856 0.0
C406 C 0.04879 0.8104 0.22874 0.0
C407 C 0.05289 0.81623 0.18109 0.0
C408 C 0.04653 0.84953 0.16256 0.0
C409 C 0.03623 0.87649 0.19054 0.0
C410 C 0.03239 0.86993 0.23715 0.0
C411 C 0.03837 0.83781 0.25632 0.0
C412 C 0.03364 0.8386 0.30804 0.0
C413 C 0.00802 0.8139 0.32221 0.0
C414 C 0.063 0.83004 0.33374 0.0
C415 C 0.02478 0.87636 0.31476 0.0
C416 C 0.02411 0.89377 0.27322 0.0
C417 C 0.01833 0.92923 0.27033 0.0
C418 C 0.01341 0.94762 0.3111 0.0
C419 C 0.01411 0.93051 0.35418 0.0
C420 C 0.01942 0.89429 0.35597 0.0
H421 H 0.51987 0.68325 0.69053 0.0
H422 H 0.61721 0.68582 0.70536 0.0
H423 H 0.61388 0.64524 0.77021 0.0
H424 H 0.50337 0.67938 0.81269 0.0
H425 H 0.47193 0.64998 0.80638 0.0
H426 H 0.48146 0.67939 0.7604 0.0
H427 H 0.48555 0.62733 0.70417 0.0
H428 H 0.47622 0.59772 0.75006 0.0
H429 H 0.51045 0.59185 0.71777 0.0
H430 H 0.60136 0.60467 0.83116 0.0
H431 H 0.57991 0.56765 0.89102 0.0
H432 H 0.4897 0.5898 0.84068 0.0
C433 C 0.54039 0.67525 0.70762 0.0
C434 C 0.5688 0.6881 0.69327 0.0
C435 C 0.59518 0.67702 0.71636 0.0
C436 C 0.59357 0.65367 0.75296 0.0
C437 C 0.5654 0.64151 0.76623 0.0
C438 C 0.53919 0.65193 0.74476 0.0
C439 C 0.51191 0.63498 0.76717 0.0
C440 C 0.49093 0.66258 0.7879 0.0
C441 C 0.49504 0.61158 0.73273 0.0
C442 C 0.52706 0.61357 0.80452 0.0
C443 C 0.55795 0.61776 0.80272 0.0
C444 C 0.57721 0.60122 0.83318 0.0
C445 C 0.56467 0.58024 0.8672 0.0
C446 C 0.53302 0.57592 0.87096 0.0
C447 C 0.51394 0.59248 0.83865 0.0
H448 H 0.95923 0.17587 0.19115 0.0
H449 H 0.90756 0.2561 0.26024 0.0
H450 H 0.91393 0.22487 0.33403 0.0
H451 H 0.93181 0.10444 0.25262 0.0
H452 H 0.96742 0.08215 0.2545 0.0
H453 H 0.95919 0.11128 0.20777 0.0
H454 H 0.00763 0.1467 0.22562 0.0
H455 H 0.01623 0.11743 0.2721 0.0
H456 H 0.01362 0.1635 0.28287 0.0
H457 H 0.92441 0.18232 0.39992 0.0
H458 H 0.94083 0.13489 0.45193 0.0
H459 H 0.98747 0.0859 0.33797 0.0
C460 C 0.94983 0.18757 0.22179 0.0
C461 C 0.93302 0.21863 0.21974 0.0
C462 C 0.92031 0.23217 0.26076 0.0
C463 C 0.92392 0.21471 0.30287 0.0
C464 C 0.94047 0.18396 0.30335 0.0
C465 C 0.95347 0.17083 0.26384 0.0
C466 C 0.97008 0.13737 0.2729 0.0
C467 C 0.95629 0.10703 0.24532 0.0
C468 C 0.00389 0.14152 0.26279 0.0
C469 C 0.96427 0.13343 0.32372 0.0
C470 C 0.94703 0.16033 0.34087 0.0
C471 C 0.93815 0.16132 0.38689 0.0
C472 C 0.94745 0.13425 0.41609 0.0
C473 C 0.9656 0.1069 0.39904 0.0
C474 C 0.97392 0.10665 0.35224 0.0
H475 H 0.44464 0.2871 0.75511 0.0
H476 H 0.34977 0.3129 0.74818 0.0
H477 H 0.35636 0.35444 0.81232 0.0
H478 H 0.45134 0.2944 0.88258 0.0
H479 H 0.48869 0.31271 0.87925 0.0
H480 H 0.47587 0.28261 0.83576 0.0
H481 H 0.48815 0.32798 0.77262 0.0
H482 H 0.50077 0.35827 0.81583 0.0
H483 H 0.47163 0.37068 0.77591 0.0
H484 H 0.37463 0.39896 0.86851 0.0
H485 H 0.40243 0.43927 0.91979 0.0
H486 H 0.4847 0.38194 0.89517 0.0
C487 C 0.42519 0.30102 0.76783 0.0
C488 C 0.39665 0.29671 0.747 0.0
C489 C 0.3717 0.31547 0.76419 0.0
C490 C 0.37527 0.33922 0.80042 0.0
C491 C 0.40382 0.34345 0.81957 0.0
C492 C 0.42826 0.32442 0.80453 0.0
C493 C 0.45671 0.33483 0.83003 0.0
C494 C 0.46886 0.30432 0.85861 0.0
C495 C 0.48071 0.34877 0.7966 0.0
C496 C 0.44462 0.36346 0.86067 0.0
C497 C 0.41407 0.36808 0.85391 0.0
C498 C 0.39837 0.39506 0.875 0.0
C499 C 0.41431 0.41788 0.90381 0.0
C500 C 0.44545 0.41319 0.91182 0.0
C501 C 0.4607 0.38542 0.89041 0.0
H502 H 0.58043 0.66619 0.31968 0.0
H503 H 0.61564 0.75145 0.23726 0.0
H504 H 0.60438 0.7181 0.16685 0.0
H505 H 0.60403 0.59596 0.24994 0.0
H506 H 0.56995 0.57109 0.25777 0.0
H507 H 0.58236 0.60076 0.30195 0.0
H508 H 0.53098 0.63248 0.29892 0.0
H509 H 0.51829 0.6027 0.25508 0.0
H510 H 0.51733 0.64889 0.2447 0.0
H511 H 0.5908 0.6741 0.10521 0.0
H512 H 0.57019 0.62626 0.05726 0.0
H513 H 0.53844 0.57405 0.18022 0.0
C514 C 0.58536 0.67846 0.28707 0.0
C515 C 0.59923 0.71161 0.28458 0.0
C516 C 0.60575 0.72582 0.24061 0.0
C517 C 0.59924 0.70717 0.20024 0.0
C518 C 0.58569 0.6746 0.20425 0.0
C519 C 0.57832 0.6607 0.24654 0.0
C520 C 0.56248 0.62601 0.24158 0.0
C521 C 0.58081 0.59673 0.26415 0.0
C522 C 0.53036 0.62764 0.26122 0.0
C523 C 0.56215 0.62248 0.18979 0.0
C524 C 0.57611 0.65045 0.16883 0.0
C525 C 0.57954 0.65226 0.12122 0.0
C526 C 0.56794 0.62497 0.09433 0.0
C527 C 0.5526 0.5968 0.1152 0.0
C528 C 0.54979 0.59556 0.16348 0.0
H529 H 0.91436 0.19042 0.77337 0.0
H530 H 1.00033 0.21777 0.83514 0.0
H531 H 0.02609 0.1783 0.78089 0.0
H532 H 0.92926 0.10188 0.75449 0.0
H533 H 0.90992 0.09975 0.69998 0.0
H534 H 0.89844 0.13094 0.74267 0.0
H535 H 0.90585 0.18111 0.6842 0.0
H536 H 0.91697 0.15002 0.6411 0.0
H537 H 0.94153 0.18588 0.65534 0.0
H538 H 0.04202 0.13314 0.72162 0.0
H539 H 0.04694 0.08982 0.65891 0.0
H540 H 0.95047 0.09472 0.6355 0.0
C541 C 0.93868 0.18885 0.77495 0.0
C542 C 0.95527 0.20728 0.80862 0.0
C543 C 0.98704 0.20364 0.81002 0.0
C544 C 0.0019 0.18137 0.77925 0.0
C545 C 0.98471 0.16313 0.74707 0.0
C546 C 0.95383 0.16701 0.74443 0.0
C547 C 0.94038 0.14438 0.70708 0.0
C548 C 0.9182 0.11766 0.72729 0.0
C549 C 0.92531 0.16669 0.66971 0.0
C550 C 0.96849 0.12697 0.68921 0.0
C551 C 0.99386 0.13789 0.71275 0.0
C552 C 0.02231 0.12461 0.70273 0.0
C553 C 0.02487 0.09991 0.66725 0.0
C554 C 0.99914 0.08901 0.64214 0.0
C555 C 0.97065 0.10268 0.65371 0.0
H556 H 0.45828 0.29417 0.29673 0.0
H557 H 0.45024 0.37427 0.40151 0.0
H558 H 0.45935 0.41927 0.34332 0.0
H559 H 0.51793 0.33688 0.23158 0.0
H560 H 0.50339 0.32384 0.17622 0.0
H561 H 0.49663 0.2971 0.22605 0.0
H562 H 0.43922 0.30005 0.21089 0.0
H563 H 0.4458 0.32684 0.16107 0.0
H564 H 0.42123 0.34186 0.20618 0.0
H565 H 0.46749 0.45567 0.27576 0.0
H566 H 0.4763 0.4828 0.20083 0.0
H567 H 0.48031 0.38066 0.13669 0.0
C568 C 0.45856 0.32119 0.30727 0.0
C569 C 0.45399 0.33067 0.35386 0.0
C570 C 0.45438 0.3663 0.36633 0.0
C571 C 0.45931 0.39212 0.33346 0.0
C572 C 0.46387 0.38203 0.28808 0.0
C573 C 0.46371 0.34755 0.2747 0.0
C574 C 0.46931 0.34437 0.22324 0.0
C575 C 0.49856 0.32436 0.21373 0.0
C576 C 0.44228 0.32727 0.19892 0.0
C577 C 0.47238 0.38247 0.21007 0.0
C578 C 0.46901 0.40352 0.24826 0.0
C579 C 0.47029 0.43954 0.24553 0.0
C580 C 0.47522 0.45469 0.20259 0.0
C581 C 0.479 0.43394 0.16262 0.0
C582 C 0.47764 0.39723 0.16655 0.0
H583 H 0.08099 0.84502 0.80696 0.0
H584 H 0.07034 0.74521 0.73956 0.0
H585 H 0.06118 0.77522 0.66515 0.0
H586 H 0.02433 0.88919 0.7488 0.0
H587 H 0.04435 0.92994 0.74478 0.0
H588 H 0.05243 0.90047 0.79116 0.0
H589 H 0.10882 0.90008 0.76824 0.0
H590 H 0.10093 0.92972 0.7218 0.0
H591 H 0.11925 0.88889 0.71017 0.0
H592 H 0.0475 0.81661 0.60105 0.0
H593 H 0.03378 0.86575 0.55052 0.0
H594 H 0.05646 0.93834 0.65972 0.0
C595 C 0.07714 0.82959 0.77627 0.0
C596 C 0.07619 0.79301 0.77844 0.0
C597 C 0.07118 0.77334 0.73805 0.0
C598 C 0.06598 0.79015 0.69591 0.0
C599 C 0.06653 0.82646 0.69501 0.0
C600 C 0.07244 0.8459 0.73406 0.0
C601 C 0.0709 0.88449 0.72446 0.0
C602 C 0.04655 0.90203 0.75404 0.0
C603 C 0.10182 0.90181 0.73158 0.0
C604 C 0.06219 0.88387 0.67419 0.0
C605 C 0.05981 0.85019 0.65777 0.0
C606 C 0.04984 0.84308 0.61327 0.0
C607 C 0.04198 0.87112 0.58493 0.0
C608 C 0.04437 0.9058 0.60114 0.0
C609 C 0.055 0.91214 0.64613 0.0
loop_
_geom_bond_atom_site_label_1
_geom_bond_atom_site_label_2
_geom_bond_distance
_geom_bond_site_symmetry_2
_ccdc_geom_bond_type
C0 C1 1.391 . S
C0 C4 1.391 . S
C0 H42 0.948 . S
C1 C0 1.391 . S
C1 C2 1.391 . S
C2 C1 1.391 . S
C2 H58 0.947 . S
C2 C59 1.392 . S
C3 C4 1.391 . S
C3 C7 1.397 . S
C3 C59 1.419 . S
C4 C0 1.391 . S
C4 C3 1.391 . S
C4 C5 1.399 . S
C5 C4 1.399 . S
C5 C8 1.396 . S
C5 C17 1.453 . S
C5 C18 1.684 . S
H6 C30 0.948 . S
C7 C3 1.397 . S
C7 C8 1.394 . S
C7 C26 1.723 1_556 S
C8 C5 1.396 . S
C8 C7 1.394 . S
C8 C38 1.706 1_556 S
H9 C32 0.947 . S
H10 C33 0.948 . S
H11 C39 0.982 . S
H12 C40 0.979 . S
H13 C40 0.980 . S
H14 C40 0.983 . S
H15 C39 0.979 . S
H16 C39 0.977 . S
C17 C5 1.453 . S
C17 H46 0.982 . S
C17 H47 0.979 . S
C17 H48 0.977 . S
C18 C5 1.684 . S
C18 H43 0.979 . S
C18 H44 0.980 . S
C18 H45 0.983 . S
C19 C20 1.391 . S
C19 C24 1.391 . S
C19 H49 0.948 . S
C20 C19 1.391 . S
C20 C21 1.391 . S
C21 C20 1.391 . S
C21 C22 1.392 . S
C21 H50 0.947 . S
C22 C21 1.392 . S
C22 C23 1.419 . S
C22 H51 0.948 . S
C23 C22 1.419 . S
C23 C24 1.391 . S
C23 C27 1.397 . S
C24 C19 1.391 . S
C24 C23 1.391 . S
C24 C25 1.399 . S
C25 C24 1.399 . S
C25 C26 1.396 . S
C25 C28 1.453 . S
C25 C29 1.684 . S
C26 C7 1.723 1_554 S
C26 C25 1.396 . S
C26 C27 1.394 . S
C27 C23 1.397 . S
C27 C26 1.394 . S
C27 C37 1.723 . S
C28 C25 1.453 . S
C28 H52 0.982 . S
C28 H53 0.979 . S
C28 H54 0.977 . S
C29 C25 1.684 . S
C29 H55 0.979 . S
C29 H56 0.994 . S
C29 H57 0.983 . S
C30 H6 0.948 . S
C30 C31 1.391 . S
C30 C35 1.391 . S
C31 C30 1.391 . S
C31 C32 1.391 1_554 S
C32 H9 0.947 . S
C32 C31 1.391 1_556 S
C32 C33 1.392 . S
C33 H10 0.948 . S
C33 C32 1.392 . S
C33 C34 1.419 . S
C34 C33 1.419 . S
C34 C35 1.391 1_556 S
C34 C38 1.394 1_556 S
C35 C30 1.391 . S
C35 C34 1.391 1_554 S
C35 C36 1.399 . S
C36 C35 1.399 . S
C36 C37 1.396 . S
C36 C39 1.453 . S
C36 C40 1.684 . S
C37 C27 1.723 . S
C37 C36 1.396 . S
C37 C38 1.415 . S
C38 C8 1.706 1_554 S
C38 C34 1.394 1_554 S
C38 C37 1.415 . S
C39 H11 0.982 . S
C39 H15 0.979 . S
C39 H16 0.977 . S
C39 C36 1.453 . S
C40 H12 0.979 . S
C40 H13 0.980 . S
C40 H14 0.983 . S
C40 C36 1.684 . S
H41 C59 0.948 . S
H42 C0 0.948 . S
H43 C18 0.979 . S
H44 C18 0.980 . S
H45 C18 0.983 . S
H46 C17 0.982 . S
H47 C17 0.979 . S
H48 C17 0.977 . S
H49 C19 0.948 . S
H50 C21 0.947 . S
H51 C22 0.948 . S
H52 C28 0.982 . S
H53 C28 0.979 . S
H54 C28 0.977 . S
H55 C29 0.979 . S
H56 C29 0.994 . S
H57 C29 0.983 . S
H58 C2 0.947 . S
C59 C2 1.392 . S
C59 C3 1.419 . S
C59 H41 0.948 . S
C60 C61 1.391 . S
C60 C64 1.391 . S
C60 H102 0.948 . S
C61 C60 1.391 . S
C61 C62 1.391 . S
C62 C61 1.391 . S
C62 H118 0.947 . S
C62 C119 1.392 . S
C63 C64 1.391 . S
C63 C67 1.397 . S
C63 C119 1.419 . S
C64 C60 1.391 . S
C64 C63 1.391 . S
C64 C65 1.399 . S
C65 C64 1.399 . S
C65 C68 1.396 . S
C65 C77 1.453 . S
C65 C78 1.684 . S
H66 C90 0.948 . S
C67 C63 1.397 . S
C67 C68 1.394 . S
C67 C86 1.723 . S
C68 C65 1.396 . S
C68 C67 1.394 . S
C68 C98 1.723 . S
H69 C92 0.947 . S
H70 C93 0.948 . S
H71 C99 0.982 . S
H72 C100 0.979 . S
H73 C100 0.980 . S
H74 C100 0.983 . S
H75 C99 0.979 . S
H76 C99 0.977 . S
C77 C65 1.453 . S
C77 H106 0.982 . S
C77 H107 0.979 . S
C77 H108 0.977 . S
C78 C65 1.684 . S
C78 H103 0.979 . S
C78 H104 0.980 . S
C78 H105 0.983 . S
C79 C80 1.391 . S
C79 C84 1.391 . S
C79 H109 0.948 . S
C80 C79 1.391 . S
C80 C81 1.391 . S
C81 C80 1.391 . S
C81 C82 1.392 . S
C81 H110 0.947 . S
C82 C81 1.392 . S
C82 C83 1.419 . S
C82 H111 0.948 . S
C83 C82 1.419 . S
C83 C84 1.391 . S
C83 C87 1.397 . S
C84 C79 1.391 . S
C84 C83 1.391 . S
C84 C85 1.399 . S
C85 C84 1.399 . S
C85 C86 1.396 . S
C85 C88 1.453 . S
C85 C89 1.684 . S
C86 C67 1.723 . S
C86 C85 1.396 . S
C86 C87 1.394 . S
C87 C83 1.397 . S
C87 C86 1.394 . S
C87 C97 1.723 . S
C88 C85 1.453 . S
C88 H112 0.982 . S
C88 H113 0.979 . S
C88 H114 0.977 . S
C89 C85 1.684 . S
C89 H115 0.979 . S
C89 H116 0.980 . S
C89 H117 0.983 . S
C90 H66 0.948 . S
C90 C91 1.391 . S
C90 C95 1.391 . S
C91 C90 1.391 . S
C91 C92 1.391 . S
C92 H69 0.947 . S
C92 C91 1.391 . S
C92 C93 1.392 . S
C93 H70 0.948 . S
C93 C92 1.392 . S
C93 C94 1.419 . S
C94 C93 1.419 . S
C94 C95 1.391 . S
C94 C98 1.397 . S
C95 C90 1.391 . S
C95 C94 1.391 . S
C95 C96 1.399 . S
C96 C95 1.399 . S
C96 C97 1.396 . S
C96 C99 1.453 . S
C96 C100 1.684 . S
C97 C87 1.723 . S
C97 C96 1.396 . S
C97 C98 1.394 . S
C98 C68 1.723 . S
C98 C94 1.397 . S
C98 C97 1.394 . S
C99 H71 0.982 . S
C99 H75 0.979 . S
C99 H76 0.977 . S
C99 C96 1.453 . S
C100 H72 0.979 . S
C100 H73 0.980 . S
C100 H74 0.983 . S
C100 C96 1.684 . S
H101 C119 0.948 . S
H102 C60 0.948 . S
H103 C78 0.979 . S
H104 C78 0.980 . S
H105 C78 0.983 . S
H106 C77 0.982 . S
H107 C77 0.979 . S
H108 C77 0.977 . S
H109 C79 0.948 . S
H110 C81 0.947 . S
H111 C82 0.948 . S
H112 C88 0.982 . S
H113 C88 0.979 . S
H114 C88 0.977 . S
H115 C89 0.979 . S
H116 C89 0.980 . S
H117 C89 0.983 . S
H118 C62 0.947 . S
C119 C62 1.392 . S
C119 C63 1.419 . S
C119 H101 0.948 . S
C120 C121 1.391 . S
C120 C124 1.391 . S
C120 H162 0.948 . S
C121 C120 1.391 . S
C121 C122 1.391 . S
C122 C121 1.391 . S
C122 H178 0.947 . S
C122 C179 1.392 . S
C123 C124 1.391 . S
C123 C127 1.397 . S
C123 C179 1.419 . S
C124 C120 1.391 . S
C124 C123 1.391 . S
C124 C125 1.399 . S
C125 C124 1.399 . S
C125 C128 1.396 . S
C125 C137 1.453 . S
C125 C138 1.684 . S
H126 C150 0.948 . S
C127 C123 1.397 . S
C127 C128 1.394 . S
C127 C146 1.723 1_554 S
C128 C125 1.396 . S
C128 C127 1.394 . S
C128 C158 1.723 . S
H129 C152 0.947 . S
H130 C153 0.948 . S
H131 C159 0.982 . S
H132 C160 0.979 . S
H133 C160 0.980 . S
H134 C160 0.983 . S
H135 C159 0.979 . S
H136 C159 0.977 . S
C137 C125 1.453 . S
C137 H166 0.982 . S
C137 H167 0.979 . S
C137 H168 0.977 . S
C138 C125 1.684 . S
C138 H163 0.979 . S
C138 H164 0.980 . S
C138 H165 0.983 . S
C139 C140 1.391 . S
C139 C144 1.391 . S
C139 H169 0.948 . S
C140 C139 1.391 . S
C140 C141 1.391 . S
C141 C140 1.391 . S
C141 C142 1.392 . S
C141 H170 0.947 . S
C142 C141 1.392 . S
C142 C143 1.419 . S
C142 H171 0.948 . S
C143 C142 1.419 . S
C143 C144 1.391 . S
C143 C147 1.397 . S
C144 C139 1.391 . S
C144 C143 1.391 . S
C144 C145 1.399 . S
C145 C144 1.399 . S
C145 C146 1.396 . S
C145 C148 1.453 . S
C145 C149 1.684 . S
C146 C127 1.723 1_556 S
C146 C145 1.396 . S
C146 C147 1.394 . S
C147 C143 1.397 . S
C147 C146 1.394 . S
C147 C157 1.723 . S
C148 C145 1.453 . S
C148 H172 0.982 . S
C148 H173 0.979 . S
C148 H174 0.977 1_556 S
C149 C145 1.684 . S
C149 H175 0.979 . S
C149 H176 0.980 1_556 S
C149 H177 0.983 . S
C150 H126 0.948 . S
C150 C151 1.391 1_556 S
C150 C155 1.391 . S
C151 C150 1.391 1_554 S
C151 C152 1.391 . S
C152 H129 0.947 . S
C152 C151 1.391 . S
C152 C153 1.392 . S
C153 H130 0.948 . S
C153 C152 1.392 . S
C153 C154 1.419 . S
C154 C153 1.419 . S
C154 C155 1.391 1_554 S
C154 C158 1.397 . S
C155 C150 1.391 . S
C155 C154 1.391 1_556 S
C155 C156 1.399 . S
C156 C155 1.399 . S
C156 C157 1.396 . S
C156 C159 1.453 . S
C156 C160 1.684 . S
C157 C147 1.723 . S
C157 C156 1.396 . S
C157 C158 1.394 1_556 S
C158 C128 1.723 . S
C158 C154 1.397 . S
C158 C157 1.394 1_554 S
C159 H131 0.982 . S
C159 H135 0.979 . S
C159 H136 0.977 . S
C159 C156 1.453 . S
C160 H132 0.979 . S
C160 H133 0.980 . S
C160 H134 0.983 . S
C160 C156 1.684 . S
H161 C179 0.948 . S
H162 C120 0.948 . S
H163 C138 0.979 . S
H164 C138 0.980 . S
H165 C138 0.983 . S
H166 C137 0.982 . S
H167 C137 0.979 . S
H168 C137 0.977 . S
H169 C139 0.948 . S
H170 C141 0.947 . S
H171 C142 0.948 . S
H172 C148 0.982 . S
H173 C148 0.979 . S
H174 C148 0.977 1_554 S
H175 C149 0.979 . S
H176 C149 0.980 1_554 S
H177 C149 0.983 . S
H178 C122 0.947 . S
C179 C122 1.392 . S
C179 C123 1.419 . S
C179 H161 0.948 . S
C180 C181 1.391 . S
C180 C184 1.391 . S
C180 H222 0.948 . S
C181 C180 1.391 . S
C181 C182 1.391 . S
C182 C181 1.391 . S
C182 H238 0.947 . S
C182 C239 1.392 . S
C183 C184 1.391 . S
C183 C187 1.397 . S
C183 C239 1.419 . S
C184 C180 1.391 . S
C184 C183 1.391 . S
C184 C185 1.399 . S
C185 C184 1.399 . S
C185 C188 1.396 . S
C185 C197 1.453 . S
C185 C198 1.684 . S
H186 C210 0.948 . S
C187 C183 1.397 . S
C187 C188 1.394 . S
C187 C206 1.723 . S
C188 C185 1.396 . S
C188 C187 1.394 . S
C188 C218 1.723 . S
H189 C212 0.947 . S
H190 C213 0.948 . S
H191 C219 0.982 . S
H192 C220 0.979 . S
H193 C220 0.980 . S
H194 C220 0.983 . S
H195 C219 0.979 . S
H196 C219 0.977 . S
C197 C185 1.453 . S
C197 H226 0.982 . S
C197 H227 0.979 . S
C197 H228 0.977 . S
C198 C185 1.684 . S
C198 H223 0.979 . S
C198 H224 0.980 . S
C198 H225 0.983 . S
C199 C200 1.391 . S
C199 C204 1.391 . S
C199 H229 0.948 . S
C200 C199 1.391 . S
C200 C201 1.391 . S
C201 C200 1.391 . S
C201 C202 1.392 . S
C201 H230 0.947 . S
C202 C201 1.392 . S
C202 C203 1.419 . S
C202 H231 0.948 . S
C203 C202 1.419 . S
C203 C204 1.391 . S
C203 C207 1.397 . S
C204 C199 1.391 . S
C204 C203 1.391 . S
C204 C205 1.399 . S
C205 C204 1.399 . S
C205 C206 1.396 . S
C205 C208 1.453 . S
C205 C209 1.684 . S
C206 C187 1.723 . S
C206 C205 1.396 . S
C206 C207 1.394 . S
C207 C203 1.397 . S
C207 C206 1.394 . S
C207 C217 1.723 . S
C208 C205 1.453 . S
C208 H232 0.982 . S
C208 H233 0.979 . S
C208 H234 0.977 . S
C209 C205 1.684 . S
C209 H235 0.979 . S
C209 H236 0.980 . S
C209 H237 0.983 . S
C210 H186 0.948 . S
C210 C211 1.391 . S
C210 C215 1.391 . S
C211 C210 1.391 . S
C211 C212 1.391 . S
C212 H189 0.947 . S
C212 C211 1.391 . S
C212 C213 1.392 . S
C213 H190 0.948 . S
C213 C212 1.392 . S
C213 C214 1.419 . S
C214 C213 1.419 . S
C214 C215 1.391 . S
C214 C218 1.397 . S
C215 C210 1.391 . S
C215 C214 1.391 . S
C215 C216 1.399 . S
C216 C215 1.399 . S
C216 C217 1.396 . S
C216 C219 1.453 . S
C216 C220 1.684 . S
C217 C207 1.723 . S
C217 C216 1.396 . S
C217 C218 1.394 . S
C218 C188 1.723 . S
C218 C214 1.397 . S
C218 C217 1.394 . S
C219 H191 0.982 . S
C219 H195 0.979 . S
C219 H196 0.977 . S
C219 C216 1.453 . S
C220 H192 0.979 . S
C220 H193 0.980 . S
C220 H194 0.983 . S
C220 C216 1.684 . S
H221 C239 0.948 . S
H222 C180 0.948 . S
H223 C198 0.979 . S
H224 C198 0.980 . S
H225 C198 0.983 . S
H226 C197 0.982 . S
H227 C197 0.979 . S
H228 C197 0.977 . S
H229 C199 0.948 . S
H230 C201 0.947 . S
H231 C202 0.948 . S
H232 C208 0.982 . S
H233 C208 0.979 . S
H234 C208 0.977 . S
H235 C209 0.979 . S
H236 C209 0.980 . S
H237 C209 0.983 . S
H238 C182 0.947 . S
C239 C182 1.392 . S
C239 C183 1.419 . S
C239 H221 0.948 . S
O240 Zn241 1.953 1_565 S
O240 C256 1.225 . S
Zn241 O240 1.953 1_545 S
Zn241 O242 1.949 1_655 S
Zn241 O248 1.919 . S
Zn241 O253 1.924 . S
O242 Zn241 1.949 1_455 S
O242 Zn243 1.923 . S
O242 Zn244 1.950 1_445 S
O242 Zn245 1.945 . S
Zn243 O242 1.923 . S
Zn243 O246 1.933 . S
Zn243 O249 1.941 . S
Zn243 O250 1.965 1_545 S
Zn244 O242 1.950 1_665 S
Zn244 O251 1.938 1_655 S
Zn244 O252 1.906 1_655 S
Zn244 O262 1.953 . S
Zn245 O242 1.945 . S
Zn245 O247 1.932 . S
Zn245 O254 1.977 1_545 S
Zn245 O255 1.910 1_455 S
O246 Zn243 1.933 . S
O246 C257 1.226 . S
O247 Zn245 1.932 . S
O247 C257 1.307 . S
O248 Zn241 1.919 . S
O248 C259 1.253 . S
O249 Zn243 1.941 . S
O249 C259 1.283 1_455 S
O250 Zn243 1.965 1_565 S
O250 C258 1.303 . S
O251 Zn244 1.938 1_455 S
O251 C258 1.247 . S
O252 Zn244 1.906 1_455 S
O252 C260 1.304 . S
O253 Zn241 1.924 . S
O253 C261 1.311 . S
O254 Zn245 1.977 1_565 S
O254 C260 1.272 . S
O255 Zn245 1.910 1_655 S
O255 C261 1.231 . S
C256 O240 1.225 . S
C256 O262 1.298 . S
C257 O246 1.226 . S
C257 O247 1.307 . S
C258 O250 1.303 . S
C258 O251 1.247 . S
C259 O248 1.253 . S
C259 O249 1.283 1_655 S
C260 O252 1.304 . S
C260 O254 1.272 . S
C261 O253 1.311 . S
C261 O255 1.231 . S
O262 Zn244 1.953 . S
O262 C256 1.298 . S
O263 Zn264 1.954 . S
O263 C279 1.225 1_556 S
Zn264 O263 1.954 . S
Zn264 O265 1.947 1_556 S
Zn264 O271 1.925 . S
Zn264 O276 1.918 1_556 S
O265 Zn264 1.947 1_554 S
O265 Zn266 1.923 1_554 S
O265 Zn267 1.950 . S
O265 Zn268 1.945 . S
Zn266 O265 1.923 1_556 S
Zn266 O269 1.933 . S
Zn266 O272 1.941 . S
Zn266 O273 1.965 . S
Zn267 O265 1.950 . S
Zn267 O274 1.938 1_554 S
Zn267 O275 1.906 . S
Zn267 O285 1.953 . S
Zn268 O265 1.945 . S
Zn268 O270 1.932 . S
Zn268 O277 1.977 . S
Zn268 O278 1.910 . S
O269 Zn266 1.933 . S
O269 C280 1.226 1_556 S
O270 Zn268 1.932 . S
O270 C280 1.307 . S
O271 Zn264 1.925 . S
O271 C282 1.253 . S
O272 Zn266 1.941 . S
O272 C282 1.283 . S
O273 Zn266 1.965 . S
O273 C281 1.303 . S
O274 Zn267 1.938 1_556 S
O274 C281 1.247 . S
O275 Zn267 1.906 . S
O275 C283 1.304 . S
O276 Zn264 1.918 1_554 S
O276 C284 1.311 . S
O277 Zn268 1.977 . S
O277 C283 1.272 . S
O278 Zn268 1.910 . S
O278 C284 1.231 . S
C279 O263 1.225 1_554 S
C279 O285 1.298 . S
C280 O269 1.226 1_554 S
C280 O270 1.307 . S
C281 O273 1.303 . S
C281 O274 1.247 . S
C282 O271 1.253 . S
C282 O272 1.283 . S
C283 O275 1.304 . S
C283 O277 1.272 . S
C284 O276 1.311 . S
C284 O278 1.231 . S
O285 Zn267 1.953 . S
O285 C279 1.298 . S
H286 C298 0.930 . S
H287 C300 0.930 . S
H288 C301 0.930 . S
H289 C305 0.959 . S
H290 C305 0.979 . S
H291 C305 0.961 . S
H292 C306 0.960 . S
H293 C306 0.961 . S
H294 C306 0.959 . S
H295 C309 0.929 . S
H296 C310 0.931 . S
H297 C312 0.930 . S
C298 H286 0.930 . S
C298 C299 1.399 . S
C298 C303 1.399 . S
C299 C298 1.399 . S
C299 C300 1.376 . S
C300 H287 0.930 . S
C300 C299 1.376 . S
C300 C301 1.388 . S
C301 H288 0.930 . S
C301 C300 1.388 . S
C301 C302 1.390 . S
C302 C301 1.390 . S
C302 C303 1.394 . S
C302 C308 1.465 . S
C303 C298 1.399 . S
C303 C302 1.394 . S
C303 C304 1.516 . S
C304 C303 1.516 . S
C304 C305 1.502 . S
C304 C306 1.561 . S
C304 C307 1.526 . S
C305 H289 0.959 . S
C305 H290 0.979 . S
C305 H291 0.961 . S
C305 C304 1.502 . S
C306 H292 0.960 . S
C306 H293 0.961 . S
C306 H294 0.959 . S
C306 C304 1.561 . S
C307 C304 1.526 . S
C307 C308 1.396 . S
C307 C312 1.390 . S
C308 C302 1.465 . S
C308 C307 1.396 . S
C308 C309 1.399 . S
C309 H295 0.929 . S
C309 C308 1.399 . S
C309 C310 1.385 . S
C310 H296 0.931 . S
C310 C309 1.385 . S
C310 C311 1.389 . S
C311 C310 1.389 . S
C311 C312 1.387 . S
C312 H297 0.930 . S
C312 C307 1.390 . S
C312 C311 1.387 . S
H313 C325 0.930 . S
H314 C327 0.930 . S
H315 C328 0.930 . S
H316 C332 0.959 1_554 S
H317 C332 0.959 . S
H318 C332 0.961 . S
H319 C333 0.960 . S
H320 C333 0.961 . S
H321 C333 0.959 . S
H322 C336 0.929 . S
H323 C337 0.931 . S
H324 C339 0.930 . S
C325 H313 0.930 . S
C325 C326 1.399 1_556 S
C325 C330 1.399 . S
C326 C325 1.399 1_554 S
C326 C327 1.376 . S
C327 H314 0.930 . S
C327 C326 1.376 . S
C327 C328 1.388 . S
C328 H315 0.930 . S
C328 C327 1.388 . S
C328 C329 1.390 . S
C329 C328 1.390 . S
C329 C330 1.394 1_554 S
C329 C335 1.465 . S
C330 C325 1.399 . S
C330 C329 1.394 1_556 S
C330 C331 1.516 . S
C331 C330 1.516 . S
C331 C332 1.502 . S
C331 C333 1.561 . S
C331 C334 1.526 . S
C332 H316 0.959 1_556 S
C332 H317 0.959 . S
C332 H318 0.961 . S
C332 C331 1.502 . S
C333 H319 0.960 . S
C333 H320 0.961 . S
C333 H321 0.959 . S
C333 C331 1.561 . S
C334 C331 1.526 . S
C334 C335 1.396 1_556 S
C334 C339 1.390 . S
C335 C329 1.465 . S
C335 C334 1.396 1_554 S
C335 C336 1.399 . S
C336 H322 0.929 . S
C336 C335 1.399 . S
C336 C337 1.385 . S
C337 H323 0.931 . S
C337 C336 1.385 . S
C337 C338 1.389 . S
C338 C337 1.389 . S
C338 C339 1.387 1_554 S
C339 H324 0.930 . S
C339 C334 1.390 . S
C339 C338 1.387 1_556 S
H340 C352 0.930 . S
H341 C354 0.930 . S
H342 C355 0.930 . S
H343 C359 0.959 . S
H344 C359 0.959 . S
H345 C359 0.961 . S
H346 C360 0.960 . S
H347 C360 0.961 . S
H348 C360 0.959 . S
H349 C363 0.929 . S
H350 C364 0.931 . S
H351 C366 0.930 . S
C352 H340 0.930 . S
C352 C353 1.399 . S
C352 C357 1.399 . S
C353 C352 1.399 . S
C353 C354 1.376 . S
C354 H341 0.930 . S
C354 C353 1.376 . S
C354 C355 1.388 . S
C355 H342 0.930 . S
C355 C354 1.388 . S
C355 C356 1.390 . S
C356 C355 1.390 . S
C356 C357 1.394 . S
C356 C362 1.465 . S
C357 C352 1.399 . S
C357 C356 1.394 . S
C357 C358 1.516 . S
C358 C357 1.516 . S
C358 C359 1.502 . S
C358 C360 1.561 . S
C358 C361 1.526 . S
C359 H343 0.959 . S
C359 H344 0.959 . S
C359 H345 0.961 . S
C359 C358 1.502 . S
C360 H346 0.960 . S
C360 H347 0.961 . S
C360 H348 0.959 . S
C360 C358 1.561 . S
C361 C358 1.526 . S
C361 C362 1.396 . S
C361 C366 1.390 . S
C362 C356 1.465 . S
C362 C361 1.396 . S
C362 C363 1.399 . S
C363 H349 0.929 . S
C363 C362 1.399 . S
C363 C364 1.385 . S
C364 H350 0.931 . S
C364 C363 1.385 . S
C364 C365 1.389 . S
C365 C364 1.389 . S
C365 C366 1.387 . S
C366 H351 0.930 . S
C366 C361 1.390 . S
C366 C365 1.387 . S
H367 C379 0.930 . S
H368 C381 0.930 . S
H369 C382 0.930 . S
H370 C386 0.959 . S
H371 C386 0.959 . S
H372 C386 0.961 . S
H373 C387 0.960 . S
H374 C387 0.961 . S
H375 C387 0.959 . S
H376 C390 0.929 . S
H377 C391 0.931 . S
H378 C393 0.930 . S
C379 H367 0.930 . S
C379 C380 1.399 . S
C379 C384 1.399 . S
C380 C379 1.399 . S
C380 C381 1.376 1_554 S
C381 H368 0.930 . S
C381 C380 1.376 1_556 S
C381 C382 1.388 . S
C382 H369 0.930 . S
C382 C381 1.388 . S
C382 C383 1.390 . S
C383 C382 1.390 . S
C383 C384 1.394 1_556 S
C383 C389 1.465 . S
C384 C379 1.399 . S
C384 C383 1.394 1_554 S
C384 C385 1.516 . S
C385 C384 1.516 . S
C385 C386 1.502 . S
C385 C387 1.561 . S
C385 C388 1.526 . S
C386 H370 0.959 . S
C386 H371 0.959 . S
C386 H372 0.961 . S
C386 C385 1.502 . S
C387 H373 0.960 . S
C387 H374 0.961 . S
C387 H375 0.959 . S
C387 C385 1.561 . S
C388 C385 1.526 . S
C388 C389 1.396 1_554 S
C388 C393 1.390 . S
C389 C383 1.465 . S
C389 C388 1.396 1_556 S
C389 C390 1.399 . S
C390 H376 0.929 . S
C390 C389 1.399 . S
C390 C391 1.385 . S
C391 H377 0.931 . S
C391 C390 1.385 . S
C391 C392 1.389 1_556 S
C392 C391 1.389 1_554 S
C392 C393 1.387 . S
C393 H378 0.930 . S
C393 C388 1.390 . S
C393 C392 1.387 . S
H394 C406 0.930 . S
H395 C408 0.930 . S
H396 C409 0.930 . S
H397 C413 0.959 . S
H398 C413 0.959 . S
H399 C413 0.961 . S
H400 C414 0.960 . S
H401 C414 0.961 . S
H402 C414 0.959 . S
H403 C417 0.929 . S
H404 C418 0.931 . S
H405 C420 0.930 . S
C406 H394 0.930 . S
C406 C407 1.399 . S
C406 C411 1.399 . S
C407 C406 1.399 . S
C407 C408 1.376 . S
C408 H395 0.930 . S
C408 C407 1.376 . S
C408 C409 1.388 . S
C409 H396 0.930 . S
C409 C408 1.388 . S
C409 C410 1.390 . S
C410 C409 1.390 . S
C410 C411 1.394 . S
C410 C416 1.465 . S
C411 C406 1.399 . S
C411 C410 1.394 . S
C411 C412 1.516 . S
C412 C411 1.516 . S
C412 C413 1.502 . S
C412 C414 1.561 . S
C412 C415 1.526 . S
C413 H397 0.959 . S
C413 H398 0.959 . S
C413 H399 0.961 . S
C413 C412 1.502 . S
C414 H400 0.960 . S
C414 H401 0.961 . S
C414 H402 0.959 . S
C414 C412 1.561 . S
C415 C412 1.526 . S
C415 C416 1.396 . S
C415 C420 1.390 . S
C416 C410 1.465 . S
C416 C415 1.396 . S
C416 C417 1.399 . S
C417 H403 0.929 . S
C417 C416 1.399 . S
C417 C418 1.385 . S
C418 H404 0.931 . S
C418 C417 1.385 . S
C418 C419 1.389 . S
C419 C418 1.389 . S
C419 C420 1.387 . S
C420 H405 0.930 . S
C420 C415 1.390 . S
C420 C419 1.387 . S
H421 C433 0.930 . S
H422 C435 0.930 . S
H423 C436 0.930 . S
H424 C440 0.959 . S
H425 C440 0.959 . S
H426 C440 0.961 . S
H427 C441 0.960 . S
H428 C441 0.961 . S
H429 C441 0.959 . S
H430 C444 0.929 . S
H431 C445 0.931 . S
H432 C447 0.930 . S
C433 H421 0.930 . S
C433 C434 1.399 . S
C433 C438 1.399 . S
C434 C433 1.399 . S
C434 C435 1.376 . S
C435 H422 0.930 . S
C435 C434 1.376 . S
C435 C436 1.388 . S
C436 H423 0.930 . S
C436 C435 1.388 . S
C436 C437 1.390 . S
C437 C436 1.390 . S
C437 C438 1.394 . S
C437 C443 1.465 . S
C438 C433 1.399 . S
C438 C437 1.394 . S
C438 C439 1.516 . S
C439 C438 1.516 . S
C439 C440 1.502 . S
C439 C441 1.561 . S
C439 C442 1.526 . S
C440 H424 0.959 . S
C440 H425 0.959 . S
C440 H426 0.961 . S
C440 C439 1.502 . S
C441 H427 0.960 . S
C441 H428 0.961 . S
C441 H429 0.959 . S
C441 C439 1.561 . S
C442 C439 1.526 . S
C442 C443 1.396 . S
C442 C447 1.390 . S
C443 C437 1.465 . S
C443 C442 1.396 . S
C443 C444 1.399 . S
C444 H430 0.929 . S
C444 C443 1.399 . S
C444 C445 1.385 . S
C445 H431 0.931 . S
C445 C444 1.385 . S
C445 C446 1.389 . S
C446 C445 1.389 . S
C446 C447 1.387 . S
C447 H432 0.930 . S
C447 C442 1.390 . S
C447 C446 1.387 . S
H448 C460 0.930 . S
H449 C462 0.930 . S
H450 C463 0.930 . S
H451 C467 0.959 . S
H452 C467 0.959 . S
H453 C467 0.961 . S
H454 C468 0.960 . S
H455 C468 0.961 . S
H456 C468 0.959 . S
H457 C471 0.929 . S
H458 C472 0.931 . S
H459 C474 0.930 . S
C460 H448 0.930 . S
C460 C461 1.399 . S
C460 C465 1.399 . S
C461 C460 1.399 . S
C461 C462 1.376 . S
C462 H449 0.930 . S
C462 C461 1.376 . S
C462 C463 1.388 . S
C463 H450 0.930 . S
C463 C462 1.388 . S
C463 C464 1.390 . S
C464 C463 1.390 . S
C464 C465 1.394 . S
C464 C470 1.465 . S
C465 C460 1.399 . S
C465 C464 1.394 . S
C465 C466 1.516 . S
C466 C465 1.516 . S
C466 C467 1.502 . S
C466 C468 1.561 . S
C466 C469 1.526 . S
C467 H451 0.959 . S
C467 H452 0.959 . S
C467 H453 0.961 . S
C467 C466 1.502 . S
C468 H454 0.960 . S
C468 H455 0.961 . S
C468 H456 0.959 . S
C468 C466 1.561 . S
C469 C466 1.526 . S
C469 C470 1.396 . S
C469 C474 1.390 . S
C470 C464 1.465 . S
C470 C469 1.396 . S
C470 C471 1.399 . S
C471 H457 0.929 . S
C471 C470 1.399 . S
C471 C472 1.385 . S
C472 H458 0.931 . S
C472 C471 1.385 . S
C472 C473 1.389 . S
C473 C472 1.389 . S
C473 C474 1.387 . S
C474 H459 0.930 . S
C474 C469 1.390 . S
C474 C473 1.387 . S
H475 C487 0.930 . S
H476 C489 0.930 . S
H477 C490 0.930 . S
H478 C494 0.959 . S
H479 C494 0.959 . S
H480 C494 0.961 . S
H481 C495 0.960 . S
H482 C495 0.961 . S
H483 C495 0.959 . S
H484 C498 0.929 . S
H485 C499 0.931 . S
H486 C501 0.930 . S
C487 H475 0.930 . S
C487 C488 1.399 . S
C487 C492 1.399 . S
C488 C487 1.399 . S
C488 C489 1.376 . S
C489 H476 0.930 . S
C489 C488 1.376 . S
C489 C490 1.388 . S
C490 H477 0.930 . S
C490 C489 1.388 . S
C490 C491 1.390 . S
C491 C490 1.390 . S
C491 C492 1.394 . S
C491 C497 1.465 . S
C492 C487 1.399 . S
C492 C491 1.394 . S
C492 C493 1.516 . S
C493 C492 1.516 . S
C493 C494 1.502 . S
C493 C495 1.561 . S
C493 C496 1.526 . S
C494 H478 0.959 . S
C494 H479 0.959 . S
C494 H480 0.961 . S
C494 C493 1.502 . S
C495 H481 0.960 . S
C495 H482 0.961 . S
C495 H483 0.959 . S
C495 C493 1.561 . S
C496 C493 1.526 . S
C496 C497 1.396 . S
C496 C501 1.390 . S
C497 C491 1.465 . S
C497 C496 1.396 . S
C497 C498 1.399 . S
C498 H484 0.929 . S
C498 C497 1.399 . S
C498 C499 1.385 . S
C499 H485 0.931 . S
C499 C498 1.385 . S
C499 C500 1.389 . S
C500 C499 1.389 . S
C500 C501 1.387 . S
C501 H486 0.930 . S
C501 C496 1.390 . S
C501 C500 1.387 . S
H502 C514 0.930 . S
H503 C516 0.930 . S
H504 C517 0.930 . S
H505 C521 0.959 . S
H506 C521 0.959 . S
H507 C521 0.961 . S
H508 C522 0.960 . S
H509 C522 0.961 . S
H510 C522 0.959 . S
H511 C525 0.929 . S
H512 C526 0.931 . S
H513 C528 0.930 . S
C514 H502 0.930 . S
C514 C515 1.399 . S
C514 C519 1.399 . S
C515 C514 1.399 . S
C515 C516 1.376 . S
C516 H503 0.930 . S
C516 C515 1.376 . S
C516 C517 1.388 . S
C517 H504 0.930 . S
C517 C516 1.388 . S
C517 C518 1.390 . S
C518 C517 1.390 . S
C518 C519 1.394 . S
C518 C524 1.465 . S
C519 C514 1.399 . S
C519 C518 1.394 . S
C519 C520 1.516 . S
C520 C519 1.516 . S
C520 C521 1.502 . S
C520 C522 1.561 . S
C520 C523 1.526 . S
C521 H505 0.959 . S
C521 H506 0.959 . S
C521 H507 0.961 . S
C521 C520 1.502 . S
C522 H508 0.960 . S
C522 H509 0.961 . S
C522 H510 0.959 . S
C522 C520 1.561 . S
C523 C520 1.526 . S
C523 C524 1.396 . S
C523 C528 1.390 . S
C524 C518 1.465 . S
C524 C523 1.396 . S
C524 C525 1.399 . S
C525 H511 0.929 . S
C525 C524 1.399 . S
C525 C526 1.385 . S
C526 H512 0.931 . S
C526 C525 1.385 . S
C526 C527 1.389 . S
C527 C526 1.389 . S
C527 C528 1.387 . S
C528 H513 0.930 . S
C528 C523 1.390 . S
C528 C527 1.387 . S
H529 C541 0.930 . S
H530 C543 0.930 . S
H531 C544 0.930 . S
H532 C548 0.959 . S
H533 C548 0.959 . S
H534 C548 0.961 . S
H535 C549 0.960 . S
H536 C549 0.961 . S
H537 C549 0.959 . S
H538 C552 0.929 . S
H539 C553 0.931 . S
H540 C555 0.930 . S
C541 H529 0.930 . S
C541 C542 1.399 . S
C541 C546 1.399 . S
C542 C541 1.399 . S
C542 C543 1.376 . S
C543 H530 0.930 . S
C543 C542 1.376 . S
C543 C544 1.388 . S
C544 H531 0.930 . S
C544 C543 1.388 . S
C544 C545 1.390 . S
C545 C544 1.390 . S
C545 C546 1.394 . S
C545 C551 1.465 . S
C546 C541 1.399 . S
C546 C545 1.394 . S
C546 C547 1.516 . S
C547 C546 1.516 . S
C547 C548 1.502 . S
C547 C549 1.561 . S
C547 C550 1.526 . S
C548 H532 0.959 . S
C548 H533 0.959 . S
C548 H534 0.961 . S
C548 C547 1.502 . S
C549 H535 0.960 . S
C549 H536 0.961 . S
C549 H537 0.959 . S
C549 C547 1.561 . S
C550 C547 1.526 . S
C550 C551 1.396 . S
C550 C555 1.390 . S
C551 C545 1.465 . S
C551 C550 1.396 . S
C551 C552 1.399 1_655 S
C552 H538 0.929 . S
C552 C551 1.399 1_455 S
C552 C553 1.385 . S
C553 H539 0.931 . S
C553 C552 1.385 . S
C553 C554 1.389 1_455 S
C554 C553 1.389 1_655 S
C554 C555 1.387 . S
C555 H540 0.930 . S
C555 C550 1.390 . S
C555 C554 1.387 . S
H556 C568 0.930 . S
H557 C570 0.930 . S
H558 C571 0.930 . S
H559 C575 0.959 . S
H560 C575 0.959 . S
H561 C575 0.961 . S
H562 C576 0.960 . S
H563 C576 0.961 . S
H564 C576 0.959 . S
H565 C579 0.929 . S
H566 C580 0.931 . S
H567 C582 0.930 . S
C568 H556 0.930 . S
C568 C569 1.399 . S
C568 C573 1.399 . S
C569 C568 1.399 . S
C569 C570 1.376 . S
C570 H557 0.930 . S
C570 C569 1.376 . S
C570 C571 1.388 . S
C571 H558 0.930 . S
C571 C570 1.388 . S
C571 C572 1.390 . S
C572 C571 1.390 . S
C572 C573 1.394 . S
C572 C578 1.465 . S
C573 C568 1.399 . S
C573 C572 1.394 . S
C573 C574 1.516 . S
C574 C573 1.516 . S
C574 C575 1.502 . S
C574 C576 1.561 . S
C574 C577 1.526 . S
C575 H559 0.959 . S
C575 H560 0.959 . S
C575 H561 0.961 . S
C575 C574 1.502 . S
C576 H562 0.960 . S
C576 H563 0.961 . S
C576 H564 0.959 . S
C576 C574 1.561 . S
C577 C574 1.526 . S
C577 C578 1.396 . S
C577 C582 1.390 . S
C578 C572 1.465 . S
C578 C577 1.396 . S
C578 C579 1.399 . S
C579 H565 0.929 . S
C579 C578 1.399 . S
C579 C580 1.385 . S
C580 H566 0.931 . S
C580 C579 1.385 . S
C580 C581 1.389 . S
C581 C580 1.389 . S
C581 C582 1.387 . S
C582 H567 0.930 . S
C582 C577 1.390 . S
C582 C581 1.387 . S
H583 C595 0.930 . S
H584 C597 0.930 . S
H585 C598 0.930 1_655 S
H586 C602 0.959 . S
H587 C602 0.959 . S
H588 C602 0.961 . S
H589 C603 0.960 . S
H590 C603 0.961 . S
H591 C603 0.959 . S
H592 C606 0.929 . S
H593 C607 0.931 . S
H594 C609 0.930 . S
C595 H583 0.930 . S
C595 C596 1.399 . S
C595 C600 1.399 . S
C596 C595 1.399 . S
C596 C597 1.376 . S
C597 H584 0.930 . S
C597 C596 1.376 . S
C597 C598 1.388 . S
C598 H585 0.930 1_455 S
C598 C597 1.388 . S
C598 C599 1.390 . S
C599 C598 1.390 . S
C599 C600 1.394 . S
C599 C605 1.465 . S
C600 C595 1.399 . S
C600 C599 1.394 . S
C600 C601 1.516 . S
C601 C600 1.516 . S
C601 C602 1.502 . S
C601 C603 1.561 . S
C601 C604 1.526 . S
C602 H586 0.959 . S
C602 H587 0.959 . S
C602 H588 0.961 . S
C602 C601 1.502 . S
C603 H589 0.960 . S
C603 H590 0.961 . S
C603 H591 0.959 . S
C603 C601 1.561 . S
C604 C601 1.526 . S
C604 C605 1.396 . S
C604 C609 1.390 . S
C605 C599 1.465 . S
C605 C604 1.396 . S
C605 C606 1.399 1_455 S
C606 H592 0.929 . S
C606 C605 1.399 1_655 S
C606 C607 1.385 . S
C607 H593 0.931 . S
C607 C606 1.385 . S
C607 C608 1.389 1_655 S
C608 C607 1.389 1_455 S
C608 C609 1.387 . S
C609 H594 0.930 . S
C609 C604 1.390 . S
C609 C608 1.387 . S
C311 C257 1.660 . S
C299 C211 1.519 . S
C326 C31 1.611 . S
C338 C280 1.660 . S
C353 C91 1.634 . S
C365 C256 1.654 . S
C380 C151 1.615 . S
C392 C279 1.655 . S
C419 C260 1.640 . S
C407 C20 1.663 . S
C446 C282 1.606 . S
C434 C61 1.589 . S
C461 C121 1.625 . S
C473 C261 1.589 . S
C488 C200 1.557 . S
C500 C281 1.572 . S
C527 C284 1.595 . S
C515 C80 1.708 . S
C554 C259 1.639 . S
C542 C140 1.631 . S
C581 C283 1.647 . S
C569 C181 1.526 . S
C596 C1 1.600 . S
C608 C258 1.621 . S
