# Generated by pormake.
# Topology zzz, (3,6)-cn, num edge types: 1
# Building blocks:
#     Node 0, Type 0, BuildingBlock: BELTOD_clean_linker_0, # of connection points: 3
#     Node 1, Type 0, BuildingBlock: BELTOD_clean_linker_0, # of connection points: 3
#     Node 2, Type 0, BuildingBlock: BELTOD_clean_linker_0, # of connection points: 3
#     Node 3, Type 0, BuildingBlock: BELTOD_clean_linker_0, # of connection points: 3
#     Node 4, Type 0, BuildingBlock: BELTOD_clean_linker_0, # of connection points: 3
#     Node 5, Type 0, BuildingBlock: BELTOD_clean_linker_0, # of connection points: 3
#     Node 6, Type 0, BuildingBlock: BELTOD_clean_linker_0, # of connection points: 3
#     Node 7, Type 0, BuildingBlock: BELTOD_clean_linker_0, # of connection points: 3
#     Node 8, Type 1, BuildingBlock: KUMJIN_clean_sbu_0, # of connection points: 6
#     Node 9, Type 1, BuildingBlock: KUMJIN_clean_sbu_0, # of connection points: 6
#     Node 10, Type 1, BuildingBlock: KUMJIN_clean_sbu_0, # of connection points: 6
#     Node 11, Type 1, BuildingBlock: KUMJIN_clean_sbu_0, # of connection points: 6
#     Edge 12, Type (0, 1), BuildingBlock: KIFKEQ_clean_linker_1, # of connection points: 2
#     Edge 13, Type (0, 1), BuildingBlock: KIFKEQ_clean_linker_1, # of connection points: 2
#     Edge 14, Type (0, 1), BuildingBlock: KIFKEQ_clean_linker_1, # of connection points: 2
#     Edge 15, Type (0, 1), BuildingBlock: KIFKEQ_clean_linker_1, # of connection points: 2
#     Edge 16, Type (0, 1), BuildingBlock: KIFKEQ_clean_linker_1, # of connection points: 2
#     Edge 17, Type (0, 1), BuildingBlock: KIFKEQ_clean_linker_1, # of connection points: 2
#     Edge 18, Type (0, 1), BuildingBlock: KIFKEQ_clean_linker_1, # of connection points: 2
#     Edge 19, Type (0, 1), BuildingBlock: KIFKEQ_clean_linker_1, # of connection points: 2
#     Edge 20, Type (0, 1), BuildingBlock: KIFKEQ_clean_linker_1, # of connection points: 2
#     Edge 21, Type (0, 1), BuildingBlock: KIFKEQ_clean_linker_1, # of connection points: 2
#     Edge 22, Type (0, 1), BuildingBlock: KIFKEQ_clean_linker_1, # of connection points: 2
#     Edge 23, Type (0, 1), BuildingBlock: KIFKEQ_clean_linker_1, # of connection points: 2
#     Edge 24, Type (0, 1), BuildingBlock: KIFKEQ_clean_linker_1, # of connection points: 2
#     Edge 25, Type (0, 1), BuildingBlock: KIFKEQ_clean_linker_1, # of connection points: 2
#     Edge 26, Type (0, 1), BuildingBlock: KIFKEQ_clean_linker_1, # of connection points: 2
#     Edge 27, Type (0, 1), BuildingBlock: KIFKEQ_clean_linker_1, # of connection points: 2
#     Edge 28, Type (0, 1), BuildingBlock: KIFKEQ_clean_linker_1, # of connection points: 2
#     Edge 29, Type (0, 1), BuildingBlock: KIFKEQ_clean_linker_1, # of connection points: 2
#     Edge 30, Type (0, 1), BuildingBlock: KIFKEQ_clean_linker_1, # of connection points: 2
#     Edge 31, Type (0, 1), BuildingBlock: KIFKEQ_clean_linker_1, # of connection points: 2
#     Edge 32, Type (0, 1), BuildingBlock: KIFKEQ_clean_linker_1, # of connection points: 2
#     Edge 33, Type (0, 1), BuildingBlock: KIFKEQ_clean_linker_1, # of connection points: 2
#     Edge 34, Type (0, 1), BuildingBlock: KIFKEQ_clean_linker_1, # of connection points: 2
#     Edge 35, Type (0, 1), BuildingBlock: KIFKEQ_clean_linker_1, # of connection points: 2
# Relax obj value: 0.286
# Max RMSD: 0.211
# Mean RMSD: 0.202
data_MOF--net-zzz--node1-KUMJIN_clean_sbu_0--node2-BELTOD_clean_linker_0--edge1-KIFKEQ_clean_linker_1
_symmetry_space_group_name_H-M    P1
_symmetry_Int_Tables_number       1
_symmetry_cell_setting            triclinic
loop_
_symmetry_equiv_pos_as_xyz
'x, y, z'
_cell_length_a     54.706733
_cell_length_b     54.666203
_cell_length_c     18.957303
_cell_angle_alpha  90.433212
_cell_angle_beta   90.071031
_cell_angle_gamma 89.968042
loop_
_atom_site_label
_atom_site_type_symbol
_atom_site_fract_x
_atom_site_fract_y
_atom_site_fract_z
_atom_type_partial_charge
P0 P 0.74306 0.51263 0.15889 0.0
H1 H 0.76104 0.47431 0.25303 0.0
H2 H 0.79267 0.47494 0.34316 0.0
H3 H 0.79149 0.55394 0.34358 0.0
H4 H 0.75891 0.55308 0.25457 0.0
H5 H 0.70277 0.47758 0.1671 0.0
H6 H 0.66211 0.47849 0.11517 0.0
H7 H 0.67031 0.5559 0.07625 0.0
H8 H 0.71019 0.55504 0.13382 0.0
H9 H 0.79212 0.53449 0.15822 0.0
H10 H 0.72929 0.53288 0.02043 0.0
O11 O 0.7491 0.48496 0.1253 0.0
H12 H 0.81415 0.55826 0.07325 0.0
H13 H 0.75122 0.55763 0.93517 0.0
C14 C 0.75787 0.51366 0.24525 0.0
C15 C 0.76693 0.49184 0.27384 0.0
C16 C 0.78545 0.49223 0.325 0.0
C17 C 0.79558 0.51449 0.34897 0.0
C18 C 0.78447 0.53639 0.32619 0.0
C19 C 0.76561 0.53595 0.27539 0.0
C20 C 0.71002 0.51606 0.15229 0.0
C21 C 0.69547 0.49497 0.1499 0.0
C22 C 0.67227 0.49545 0.11845 0.0
C23 C 0.66313 0.517 0.08744 0.0
C24 C 0.67657 0.53878 0.09811 0.0
C25 C 0.69956 0.53835 0.13143 0.0
C26 C 0.7582 0.53327 0.09895 0.0
C27 C 0.7824 0.5404 0.11173 0.0
C28 C 0.79515 0.55413 0.0624 0.0
C29 C 0.78427 0.56062 0.99787 0.0
C30 C 0.76003 0.55337 0.98475 0.0
C31 C 0.74731 0.53946 0.03426 0.0
P32 P 1.00309 0.75913 0.13265 0.0
H33 H 0.02015 0.75658 0.28087 0.0
H34 H 0.02181 0.78758 0.37577 0.0
H35 H 0.97697 0.83561 0.25107 0.0
H36 H 0.97643 0.80589 0.15697 0.0
H37 H 0.03714 0.71772 0.14904 0.0
H38 H 0.03671 0.67705 0.09581 0.0
H39 H 0.96088 0.68699 0.0386 0.0
H40 H 0.96112 0.72687 0.09604 0.0
H41 H 0.01814 0.7681 0.9878 0.0
H42 H 0.95146 0.77289 0.10821 0.0
O43 O 0.03264 0.76435 0.11681 0.0
H44 H 0.99767 0.78634 0.88711 0.0
H45 H 0.93094 0.79223 0.0075 0.0
C46 C 0.99712 0.77784 0.21178 0.0
C47 C 0.00987 0.77337 0.27497 0.0
C48 C 0.0111 0.79133 0.32901 0.0
C49 C 0.99933 0.81418 0.32166 0.0
C50 C 0.9858 0.81815 0.25977 0.0
C51 C 0.98514 0.80059 0.20548 0.0
C52 C 0.99931 0.72593 0.12589 0.0
C53 C 0.0201 0.71085 0.12757 0.0
C54 C 0.01996 0.68759 0.0953 0.0
C55 C 0.99905 0.67873 0.05954 0.0
C56 C 0.97752 0.69288 0.06454 0.0
C57 C 0.97761 0.71599 0.09788 0.0
C58 C 0.98673 0.77054 0.05687 0.0
C59 C 0.99905 0.77307 0.99266 0.0
C60 C 0.98717 0.78306 0.93454 0.0
C61 C 0.96272 0.79078 0.93966 0.0
C62 C 0.94981 0.78647 1.00232 0.0
C63 C 0.96162 0.77584 0.06003 0.0
P64 P 0.76045 0.99833 0.1625 0.0
H65 H 0.73931 0.03871 0.24415 0.0
H66 H 0.70688 0.04015 0.33043 0.0
H67 H 0.71099 0.96162 0.3527 0.0
H68 H 0.74331 0.96033 0.26287 0.0
H69 H 0.80221 0.03197 0.16427 0.0
H70 H 0.84317 0.02727 0.11486 0.0
H71 H 0.8324 0.94925 0.10049 0.0
H72 H 0.79158 0.95395 0.15252 0.0
H73 H 0.71074 0.97778 0.15553 0.0
H74 H 0.77639 0.97543 0.02949 0.0
O75 O 0.75622 0.02559 0.12525 0.0
H76 H 0.68867 0.95694 0.06253 0.0
H77 H 0.75466 0.95324 0.93781 0.0
C78 C 0.74383 0.99938 0.24596 0.0
C79 C 0.73383 0.02175 0.26861 0.0
C80 C 0.71505 0.02255 0.31874 0.0
C81 C 0.70571 1.00097 0.34873 0.0
C82 C 0.71715 0.97864 0.33006 0.0
C83 C 0.73607 0.97789 0.2795 0.0
C84 C 0.79341 0.99339 0.16076 0.0
C85 C 0.80894 0.0137 0.15352 0.0
C86 C 0.83242 0.01101 0.12465 0.0
C87 C 0.84083 0.98796 0.10184 0.0
C88 C 0.82629 0.96733 0.11628 0.0
C89 C 0.80302 0.96998 0.14694 0.0
C90 C 0.74571 0.97735 0.10177 0.0
C91 C 0.7209 0.97158 0.10991 0.0
C92 C 0.70818 0.95946 0.05623 0.0
C93 C 0.71988 0.9532 0.99253 0.0
C94 C 0.74505 0.95776 0.98611 0.0
C95 C 0.75766 0.97022 0.03939 0.0
P96 P 0.51433 0.77635 0.19259 0.0
H97 H 0.47751 0.76285 0.29707 0.0
H98 H 0.47795 0.7312 0.38665 0.0
H99 H 0.55634 0.72533 0.36676 0.0
H100 H 0.55581 0.75769 0.27781 0.0
H101 H 0.48152 0.81768 0.16988 0.0
H102 H 0.48847 0.85725 0.11747 0.0
H103 H 0.56647 0.84722 0.14033 0.0
H104 H 0.55917 0.80672 0.19116 0.0
H105 H 0.52918 0.72514 0.18567 0.0
H106 H 0.53811 0.78956 0.05794 0.0
O107 O 0.48583 0.77126 0.16446 0.0
H108 H 0.55033 0.701 0.09792 0.0
H109 H 0.55953 0.76516 0.96898 0.0
C110 C 0.51656 0.76234 0.27915 0.0
C111 C 0.49496 0.75546 0.31352 0.0
C112 C 0.49519 0.73701 0.36433 0.0
C113 C 0.51706 0.72494 0.3822 0.0
C114 C 0.5391 0.73397 0.354 0.0
C115 C 0.53885 0.75267 0.30328 0.0
C116 C 0.51981 0.80893 0.18366 0.0
C117 C 0.50015 0.82416 0.16575 0.0
C118 C 0.50421 0.84705 0.13555 0.0
C119 C 0.52811 0.85551 0.12293 0.0
C120 C 0.54781 0.84117 0.14744 0.0
C121 C 0.54367 0.81813 0.17782 0.0
C122 C 0.5332 0.75957 0.13098 0.0
C123 C 0.5367 0.73443 0.14045 0.0
C124 C 0.54887 0.72053 0.08977 0.0
C125 C 0.55727 0.73127 0.02712 0.0
C126 C 0.5537 0.75647 0.01726 0.0
C127 C 0.5416 0.77047 0.06858 0.0
P128 P 0.28157 0.45249 0.05546 0.0
H129 H 0.27637 0.46038 0.90259 0.0
H130 H 0.24163 0.47454 0.83219 0.0
H131 H 0.20507 0.49819 0.02231 0.0
H132 H 0.24016 0.48464 0.09242 0.0
H133 H 0.33443 0.44448 0.04622 0.0
H134 H 0.36843 0.45759 0.12027 0.0
H135 H 0.32019 0.50597 0.23525 0.0
H136 H 0.28596 0.49293 0.15951 0.0
H137 H 0.2348 0.4274 0.04698 0.0
H138 H 0.2875 0.44415 0.20986 0.0
O139 O 0.29218 0.43019 1.00321 0.0
H140 H 0.20467 0.41739 0.13658 0.0
H141 H 0.2574 0.43417 0.29974 0.0
C142 C 0.26088 0.47114 1.00311 0.0
C143 C 0.26132 0.46943 0.92912 0.0
C144 C 0.24134 0.47744 0.88877 0.0
C145 C 0.22035 0.48705 0.92171 0.0
C146 C 0.2208 0.49053 0.99538 0.0
C147 C 0.241 0.48299 0.03551 0.0
C148 C 0.3075 0.46772 0.09691 0.0
C149 C 0.33114 0.45844 0.08585 0.0
C150 C 0.35069 0.46593 0.12861 0.0
C151 C 0.34706 0.48265 0.18438 0.0
C152 C 0.32358 0.49285 0.19331 0.0
C153 C 0.30405 0.48567 0.14941 0.0
C154 C 0.26292 0.43793 0.12155 0.0
C155 C 0.24009 0.4284 0.10201 0.0
C156 C 0.22292 0.42242 0.15345 0.0
C157 C 0.22846 0.42559 0.22541 0.0
C158 C 0.25241 0.43218 0.24468 0.0
C159 C 0.26958 0.43816 0.19307 0.0
P160 P 0.06113 0.26936 0.08058 0.0
H161 H 0.06438 0.25824 0.92937 0.0
H162 H 0.05095 0.22295 0.86054 0.0
H163 H 0.00573 0.1998 0.03378 0.0
H164 H 0.01963 0.23529 0.10359 0.0
H165 H 0.08416 0.29775 0.19029 0.0
H166 H 0.07222 0.33234 0.26365 0.0
H167 H 1.00195 0.33422 0.16016 0.0
H168 H 0.01408 0.2986 0.08651 0.0
H169 H 0.0986 0.2317 0.06251 0.0
H170 H 0.05106 0.25767 0.22841 0.0
O171 O 0.08402 0.28086 0.03313 0.0
H172 H 0.11194 0.19792 0.13834 0.0
H173 H 0.06502 0.22501 0.30438 0.0
C174 C 0.04286 0.24992 0.02198 0.0
C175 C 0.05093 0.24617 0.95228 0.0
C176 C 0.0435 0.22561 0.91294 0.0
C177 C 0.02756 0.20815 0.94173 0.0
C178 C 0.01799 0.21282 0.00965 0.0
C179 C 0.02571 0.23336 0.0495 0.0
C180 C 0.04986 0.29501 0.1338 0.0
C181 C 0.06598 0.30526 0.18369 0.0
C182 C 0.0591 0.32514 0.22602 0.0
C183 C 0.03597 0.33601 0.21894 0.0
C184 C 0.01989 0.32625 0.16739 0.0
C185 C 0.02673 0.30582 0.12537 0.0
C186 C 0.07436 0.24763 0.14043 0.0
C187 C 0.09176 0.23071 0.11599 0.0
C188 C 0.09941 0.2115 0.1592 0.0
C189 C 0.08996 0.20925 0.22771 0.0
C190 C 0.07322 0.22677 0.25267 0.0
C191 C 0.06517 0.2455 0.20905 0.0
P192 P 0.24511 0.07067 0.06231 0.0
H193 H 0.26397 0.08554 0.92479 0.0
H194 H 0.29845 0.07138 0.85487 0.0
H195 H 0.30584 0.00857 0.99002 0.0
H196 H 0.27063 0.02274 0.05944 0.0
H197 H 0.19259 0.07729 0.03545 0.0
H198 H 0.15674 0.0664 0.10479 0.0
H199 H 0.20163 0.02006 0.23531 0.0
H200 H 0.23757 0.0312 0.16558 0.0
H201 H 0.2985 0.07052 0.08797 0.0
H202 H 0.23307 0.08906 0.20362 0.0
O203 O 0.23609 0.09724 0.02815 0.0
H204 H 0.32212 0.07272 0.19524 0.0
H205 H 0.25709 0.09272 0.31191 0.0
C206 C 0.26437 0.05517 0.99746 0.0
C207 C 0.27236 0.06827 0.93836 0.0
C208 C 0.29251 0.06032 0.89879 0.0
C209 C 0.30548 0.03908 0.91742 0.0
C210 C 0.29638 0.02498 0.97372 0.0
C211 C 0.27604 0.03296 0.0133 0.0
C212 C 0.21797 0.05522 0.09525 0.0
C213 C 0.19469 0.06416 0.07747 0.0
C214 C 0.17407 0.05794 0.11758 0.0
C215 C 0.17622 0.0427 0.17684 0.0
C216 C 0.19928 0.03225 0.19105 0.0
C217 C 0.21986 0.03831 0.15041 0.0
C218 C 0.26368 0.07815 0.13827 0.0
C219 C 0.28913 0.07527 0.1363 0.0
C220 C 0.30285 0.07708 0.1981 0.0
C221 C 0.2915 0.08241 0.26304 0.0
C222 C 0.26635 0.08786 0.26333 0.0
C223 C 0.25258 0.0858 0.20137 0.0
P224 P 0.43394 0.24071 0.04159 0.0
H225 H 0.43986 0.24521 0.88787 0.0
H226 H 0.45679 0.27831 0.8164 0.0
H227 H 0.4872 0.31157 1.00392 0.0
H228 H 0.47093 0.27808 0.07494 0.0
H229 H 0.41773 0.18978 0.04541 0.0
H230 H 0.42996 0.15517 0.1174 0.0
H231 H 0.49092 0.19696 0.1985 0.0
H232 H 0.47853 0.23177 0.12538 0.0
H233 H 0.41249 0.28933 0.03875 0.0
H234 H 0.43076 0.23627 0.19777 0.0
O235 O 0.40972 0.23263 0.99313 0.0
H236 H 0.40766 0.32056 0.12986 0.0
H237 H 0.4256 0.26733 0.28924 0.0
C238 C 0.45381 0.25925 0.98705 0.0
C239 C 0.45095 0.25908 0.9134 0.0
C240 C 0.46057 0.27809 0.8725 0.0
C241 C 0.47294 0.29776 0.90475 0.0
C242 C 0.47749 0.29681 0.97773 0.0
C243 C 0.46834 0.27754 0.0183 0.0
C244 C 0.44732 0.2134 0.07931 0.0
C245 C 0.43418 0.19136 0.07686 0.0
C246 C 0.44119 0.17148 0.11837 0.0
C247 C 0.46133 0.17328 0.16429 0.0
C248 C 0.47517 0.19503 0.16424 0.0
C249 C 0.46831 0.21485 0.12178 0.0
C250 C 0.42304 0.26074 0.11093 0.0
C251 C 0.41481 0.28421 0.09345 0.0
C252 C 0.41185 0.30205 0.14584 0.0
C253 C 0.41679 0.29659 0.21685 0.0
C254 C 0.42229 0.27227 0.23483 0.0
C255 C 0.42536 0.25447 0.18226 0.0
Eu256 Eu 0.03748 0.00889 0.69851 0.0
C257 C 0.93869 0.97001 0.57478 0.0
C258 C 0.94811 0.94202 0.47902 0.0
C259 C 0.91096 0.93649 0.54716 0.0
C260 C 0.95433 0.9623 0.52193 0.0
C261 C 0.91658 0.95749 0.58714 0.0
C262 C 0.92667 0.92881 0.49304 0.0
C263 C 0.90601 0.98881 0.6724 0.0
N264 N 0.94444 0.99057 0.61155 0.0
C265 C 0.92799 1.00074 0.65754 0.0
C266 C 0.90042 0.96689 0.63774 0.0
Eu267 Eu 0.98252 0.00925 0.58611 0.0
N268 N 0.97497 0.9754 0.50997 0.0
C269 C 0.98924 0.9702 0.45265 0.0
C270 C 0.96325 0.93604 0.42205 0.0
C271 C 0.98377 0.95036 0.40842 0.0
H272 H 0.93229 0.01766 0.68467 0.0
H273 H 0.99543 0.94611 0.36391 0.0
H274 H 0.92178 0.913 0.46125 0.0
H275 H 0.89342 0.99653 0.71053 0.0
H276 H 0.00511 0.98106 0.44101 0.0
H277 H 0.02315 0.06882 0.92807 0.0
H278 H 0.959 0.92076 0.38747 0.0
H279 H 0.08874 1.00242 0.60343 0.0
H280 H 0.01525 0.03376 0.85029 0.0
H281 H 0.12709 0.0249 0.58046 0.0
H282 H 0.89418 0.92649 0.55631 0.0
H283 H 0.05759 0.09672 0.9035 0.0
H284 H 0.09434 0.10658 0.83007 0.0
H285 H 0.8833 0.95776 0.64895 0.0
H286 H 0.12269 0.09466 0.73517 0.0
N287 N 0.04409 0.04197 0.7787 0.0
C288 C 0.03011 0.04577 0.83752 0.0
C289 C 0.05413 0.08132 0.86857 0.0
C290 C 0.06938 0.07646 0.81102 0.0
C291 C 0.03468 0.06563 0.88258 0.0
C292 C 0.06402 0.05617 0.76709 0.0
H293 H 0.13533 0.06395 0.64288 0.0
N294 N 0.07519 0.02885 0.67648 0.0
C295 C 0.11397 0.03209 0.61797 0.0
C296 C 0.08001 0.04947 0.71405 0.0
C297 C 0.0923 0.01938 0.63124 0.0
C298 C 0.11849 0.05417 0.65305 0.0
C299 C 0.10168 0.06287 0.70289 0.0
O300 O 0.06759 0.98534 0.73002 0.0
O301 O 0.01184 0.98614 0.63274 0.0
O302 O 0.97452 0.98763 0.68529 0.0
O303 O 1.0017 0.00651 0.76255 0.0
O304 O 0.04832 0.97771 0.62342 0.0
O305 O 0.03598 0.98911 0.79803 0.0
O306 O 0.95473 0.03601 0.5576 0.0
O307 O 0.00852 0.0319 0.65051 0.0
O308 O 0.04559 0.03035 0.59912 0.0
O309 O 0.01798 0.01262 0.52083 0.0
O310 O 0.97224 0.04131 0.659 0.0
O311 O 0.98128 0.02399 0.47968 0.0
C312 C 0.02669 0.97157 0.60339 0.0
C313 C 0.0548 0.95038 0.78845 0.0
C314 C 0.03366 0.91212 0.76223 0.0
C315 C 0.03413 0.93781 0.76314 0.0
C316 C 0.05437 0.89928 0.78644 0.0
C317 C 0.07518 0.93729 0.81206 0.0
C318 C 0.07495 0.91181 0.81091 0.0
C319 C 0.98107 0.99441 0.74972 0.0
C320 C 0.0561 0.97706 0.78491 0.0
C321 C 0.1063 0.08395 0.74354 0.0
C322 C 0.09017 0.09073 0.79758 0.0
C323 C 0.99401 0.04699 0.67896 0.0
C324 C 0.96856 0.06533 0.47776 0.0
C325 C 0.9925 0.07451 0.47332 0.0
C326 C 0.99655 0.09931 0.45906 0.0
C327 C 0.9763 0.11493 0.45021 0.0
C328 C 0.94864 0.08112 0.46867 0.0
C329 C 0.95254 0.10584 0.45513 0.0
C330 C 0.03873 0.02444 0.53424 0.0
C331 C 0.96404 0.03965 0.49532 0.0
H332 H 0.01855 0.94803 0.74389 0.0
H333 H 0.05449 0.87949 0.78854 0.0
H334 H 0.09135 0.9468 0.83067 0.0
H335 H 0.09069 0.90172 0.8295 0.0
H336 H 0.00795 0.06248 0.48131 0.0
H337 H 0.97881 0.13407 0.4378 0.0
H338 H 0.93009 0.07434 0.47254 0.0
H339 H 0.93711 0.11798 0.44796 0.0
Eu340 Eu 0.50891 0.04197 0.69435 0.0
C341 C 0.53892 0.94102 0.55486 0.0
C342 C 0.56446 0.95142 0.45537 0.0
C343 C 0.57036 0.91265 0.51464 0.0
C344 C 0.54544 0.95738 0.50298 0.0
C345 C 0.55089 0.91821 0.56017 0.0
C346 C 0.57716 0.92926 0.46243 0.0
C347 C 0.52227 0.90716 0.65136 0.0
N348 N 0.52009 0.94686 0.5981 0.0
C349 C 0.51106 0.92999 0.6443 0.0
C350 C 0.54253 0.90138 0.60987 0.0
Eu351 Eu 0.50232 0.9862 0.58602 0.0
N352 N 0.53281 0.97875 0.49767 0.0
C353 C 0.53756 0.99414 0.44272 0.0
C354 C 0.56994 0.96773 0.40131 0.0
C355 C 0.55625 0.98904 0.39458 0.0
H356 H 0.4955 0.93445 0.67703 0.0
H357 H 0.56016 1.0017 0.35243 0.0
H358 H 0.59195 0.92456 0.42682 0.0
H359 H 0.51536 0.89412 0.68911 0.0
H360 H 0.52773 0.01085 0.43589 0.0
H361 H 0.45128 0.02696 0.92719 0.0
H362 H 0.58444 0.96388 0.36396 0.0
H363 H 0.51435 0.09295 0.59889 0.0
H364 H 0.48473 0.01847 0.84538 0.0
H365 H 0.49285 0.13226 0.58181 0.0
H366 H 0.57993 0.89535 0.51842 0.0
H367 H 0.42486 0.0631 0.91 0.0
H368 H 0.41566 0.10122 0.84231 0.0
H369 H 0.55122 0.88368 0.61546 0.0
H370 H 0.42693 0.1299 0.74841 0.0
N371 N 0.47777 0.04929 0.78001 0.0
C372 C 0.47381 0.03447 0.83667 0.0
C373 C 0.43974 0.05955 0.87368 0.0
C374 C 0.44459 0.07541 0.81794 0.0
C375 C 0.45465 0.03919 0.88362 0.0
C376 C 0.4641 0.06984 0.77178 0.0
H377 H 0.45592 0.14186 0.65202 0.0
N378 N 0.48969 0.08041 0.67739 0.0
C379 C 0.48624 0.11936 0.62037 0.0
C380 C 0.47026 0.08587 0.71879 0.0
C381 C 0.4984 0.09715 0.63038 0.0
C382 C 0.46536 0.12466 0.65989 0.0
C383 C 0.45732 0.10802 0.71059 0.0
O384 O 0.53499 0.07143 0.71253 0.0
O385 O 0.52846 0.01397 0.62771 0.0
O386 O 0.52389 0.97627 0.68477 0.0
O387 O 0.51462 0.00809 0.76299 0.0
O388 O 0.53736 0.05002 0.61002 0.0
O389 O 0.53194 0.0423 0.78871 0.0
O390 O 0.47912 0.95587 0.55156 0.0
O391 O 0.48343 0.01323 0.6559 0.0
O392 O 0.48552 0.05035 0.59862 0.0
O393 O 0.49907 0.0209 0.51853 0.0
O394 O 0.47551 0.97707 0.67423 0.0
O395 O 0.47252 0.99183 0.51056 0.0
C396 C 0.54254 0.02775 0.59336 0.0
C397 C 0.5716 0.05574 0.75581 0.0
C398 C 0.6055 0.02722 0.73911 0.0
C399 C 0.58096 0.03178 0.75646 0.0
C400 C 0.62049 0.0469 0.71926 0.0
C401 C 0.58698 0.07516 0.73699 0.0
C402 C 0.61124 0.07069 0.71836 0.0
C403 C 0.52303 0.98575 0.74931 0.0
C404 C 0.54528 0.06032 0.7652 0.0
C405 C 0.43726 0.11313 0.75441 0.0
C406 C 0.43087 0.09682 0.80791 0.0
C407 C 0.47014 0.99921 0.69188 0.0
C408 C 0.43804 0.96928 0.54846 0.0
C409 C 0.42162 0.98835 0.53371 0.0
C410 C 0.39849 0.98922 0.56596 0.0
C411 C 0.3919 0.97081 0.61359 0.0
C412 C 0.43081 0.95074 0.59524 0.0
C413 C 0.40797 0.95166 0.62782 0.0
C414 C 0.48885 0.04243 0.53323 0.0
C415 C 0.4634 0.97017 0.52115 0.0
H416 H 0.56917 0.01658 0.76974 0.0
H417 H 0.6396 0.04406 0.70676 0.0
H418 H 0.58003 0.0937 0.73496 0.0
H419 H 0.62297 0.08574 0.7035 0.0
H420 H 0.42682 1.00247 0.49682 0.0
H421 H 0.37428 0.9712 0.6396 0.0
H422 H 0.44303 0.93584 0.6082 0.0
H423 H 0.40275 0.93754 0.66454 0.0
Eu424 Eu 0.53377 0.5022 0.58745 0.0
C425 C 0.42233 0.48801 0.67423 0.0
C426 C 0.39847 0.50814 0.58421 0.0
C427 C 0.38101 0.47409 0.64839 0.0
C428 C 0.42038 0.5057 0.62308 0.0
C429 C 0.40249 0.47234 0.68868 0.0
C430 C 0.37903 0.49194 0.59614 0.0
C431 C 0.42583 0.45562 0.78516 0.0
N432 N 0.44325 0.48683 0.7122 0.0
C433 C 0.445 0.47149 0.76866 0.0
C434 C 0.40459 0.4558 0.74435 0.0
Eu435 Eu 0.47559 0.51354 0.68116 0.0
N436 N 0.43956 0.52105 0.61296 0.0
C437 C 0.43726 0.54018 0.56725 0.0
C438 C 0.39656 0.52707 0.5354 0.0
C439 C 0.41596 0.5433 0.52747 0.0
H440 H 0.4615 0.47103 0.79997 0.0
H441 H 0.41462 0.55816 0.49025 0.0
H442 H 0.3622 0.4934 0.56626 0.0
H443 H 0.42754 0.44316 0.82898 0.0
H444 H 0.45192 0.5528 0.55871 0.0
H445 H 0.59291 0.45492 0.777 0.0
H446 H 0.38011 0.52951 0.50437 0.0
H447 H 0.54994 0.54578 0.47332 0.0
H448 H 0.55697 0.46037 0.70208 0.0
H449 H 0.58372 0.57505 0.4544 0.0
H450 H 0.36567 0.46207 0.65822 0.0
H451 H 0.62583 0.48583 0.77756 0.0
H452 H 0.64326 0.52429 0.72713 0.0
H453 H 0.38976 0.44348 0.75714 0.0
H454 H 0.64079 0.55709 0.63929 0.0
N455 N 0.56843 0.49463 0.66061 0.0
C456 C 0.57092 0.47413 0.7009 0.0
C457 C 0.60997 0.48838 0.74413 0.0
C458 C 0.60814 0.50854 0.69954 0.0
C459 C 0.59146 0.47088 0.74382 0.0
C460 C 0.58702 0.51105 0.65725 0.0
H461 H 0.61899 0.57576 0.53623 0.0
N462 N 0.5658 0.53043 0.56548 0.0
C463 C 0.58445 0.56246 0.49814 0.0
C464 C 0.58562 0.52956 0.60825 0.0
C465 C 0.56542 0.54584 0.50887 0.0
C466 C 0.60425 0.56288 0.54462 0.0
C467 C 0.60526 0.546 0.59969 0.0
O468 O 0.54976 0.49629 0.4837 0.0
O469 O 0.49306 0.50175 0.58073 0.0
O470 O 0.47811 0.47281 0.65794 0.0
O471 O 0.52015 0.4675 0.64364 0.0
O472 O 0.51102 0.5152 0.49384 0.0
O473 O 0.54137 0.46512 0.54898 0.0
O474 O 0.46419 0.52119 0.78923 0.0
O475 O 0.51649 0.51359 0.68847 0.0
O476 O 0.52998 0.54334 0.60702 0.0
O477 O 0.48789 0.54746 0.62069 0.0
O478 O 0.49803 0.49801 0.77163 0.0
O479 O 0.46985 0.55117 0.71759 0.0
C480 C 0.48991 0.50978 0.51926 0.0
C481 C 0.53573 0.46136 0.42471 0.0
C482 C 0.50227 0.43852 0.36993 0.0
C483 C 0.51372 0.44819 0.43058 0.0
C484 C 0.51293 0.44266 0.30346 0.0
C485 C 0.54602 0.46508 0.35794 0.0
C486 C 0.53459 0.45588 0.29769 0.0
C487 C 0.49791 0.45882 0.65709 0.0
C488 C 0.54768 0.47265 0.4864 0.0
C489 C 0.62567 0.54444 0.64443 0.0
C490 C 0.62709 0.52575 0.69436 0.0
C491 C 0.51924 0.50411 0.74845 0.0
C492 C 0.48722 0.55451 0.83208 0.0
C493 C 0.50136 0.57485 0.81268 0.0
C494 C 0.52139 0.58231 0.85404 0.0
C495 C 0.52731 0.56908 0.91505 0.0
C496 C 0.49313 0.54197 0.89444 0.0
C497 C 0.51318 0.54911 0.93512 0.0
C498 C 0.50981 0.5568 0.60769 0.0
C499 C 0.46847 0.54451 0.78347 0.0
H500 H 0.50549 0.44552 0.48194 0.0
H501 H 0.50495 0.43503 0.25585 0.0
H502 H 0.56285 0.47533 0.35239 0.0
H503 H 0.54267 0.45881 0.24635 0.0
H504 H 0.49708 0.58471 0.76482 0.0
H505 H 0.54243 0.57461 0.9485 0.0
H506 H 0.4827 0.52616 0.91075 0.0
H507 H 0.51778 0.53913 0.98242 0.0
Eu508 Eu 0.01599 0.53578 0.5771 0.0
C509 C 0.03084 0.42873 0.6953 0.0
C510 C 0.01225 0.40139 0.60996 0.0
C511 C 0.04611 0.38714 0.68168 0.0
C512 C 0.01377 0.42459 0.64305 0.0
C513 C 0.04682 0.40987 0.71655 0.0
C514 C 0.02887 0.38292 0.62833 0.0
C515 C 0.06163 0.43665 0.80898 0.0
N516 N 0.03097 0.45081 0.72803 0.0
C517 C 0.04552 0.45477 0.78577 0.0
C518 C 0.06255 0.41421 0.77354 0.0
Eu519 Eu 0.0041 0.48139 0.68489 0.0
N520 N 0.9979 0.44284 0.62697 0.0
C521 C 0.97896 0.43828 0.58156 0.0
C522 C 0.99366 0.39721 0.56073 0.0
C523 C 0.97674 0.41564 0.5473 0.0
H524 H 0.0452 0.4722 0.81292 0.0
H525 H 0.96204 0.41252 0.51005 0.0
H526 H 0.02813 0.36511 0.60289 0.0
H527 H 0.07345 0.4401 0.85378 0.0
H528 H 0.96581 0.45208 0.56912 0.0
H529 H 0.06141 0.6018 0.75334 0.0
H530 H 0.99193 0.37972 0.53394 0.0
H531 H 0.97311 0.5477 0.45533 0.0
H532 H 0.05707 0.56357 0.68696 0.0
H533 H 0.94335 0.58021 0.42639 0.0
H534 H 0.0584 0.37252 0.69672 0.0
H535 H 0.02977 0.6339 0.74448 0.0
H536 H 0.99127 0.6489 0.68762 0.0
H537 H 0.07506 0.4002 0.79151 0.0
H538 H 0.95905 0.64306 0.59845 0.0
N539 N 0.02266 0.57284 0.64152 0.0
C540 C 0.04297 0.57707 0.68192 0.0
C541 C 0.02771 0.617 0.71486 0.0
C542 C 0.0078 0.61335 0.6697 0.0
C543 C 0.04561 0.59895 0.71988 0.0
C544 C 0.00591 0.59092 0.63258 0.0
H545 H 0.94146 0.61781 0.49961 0.0
N546 N 0.98753 0.56658 0.54469 0.0
C547 C 0.95563 0.5825 0.47076 0.0
C548 C 0.98775 0.58765 0.58273 0.0
C549 C 0.97252 0.5642 0.48713 0.0
C550 C 0.95455 0.60363 0.5124 0.0
C551 C 0.97104 0.60665 0.56829 0.0
O552 O 0.0227 0.54991 0.47191 0.0
O553 O 0.01657 0.49491 0.58047 0.0
O554 O 0.04501 0.48327 0.66528 0.0
O555 O 0.05027 0.52463 0.64053 0.0
O556 O 0.00369 0.50996 0.48841 0.0
O557 O 0.05336 0.5413 0.53934 0.0
O558 O 0.9954 0.47302 0.79429 0.0
O559 O 0.00382 0.52254 0.68198 0.0
O560 O 0.97474 0.53231 0.59345 0.0
O561 O 0.97065 0.49083 0.61691 0.0
O562 O 0.01894 0.5069 0.77039 0.0
O563 O 0.96613 0.47737 0.71902 0.0
C564 C 0.00883 0.48972 0.51937 0.0
C565 C 0.05733 0.53399 0.41571 0.0
C566 C 0.08147 0.5005 0.36566 0.0
C567 C 0.07141 0.51266 0.42462 0.0
C568 C 0.07671 0.50972 0.29777 0.0
C569 C 0.05297 0.54281 0.34756 0.0
C570 C 0.06248 0.53062 0.28898 0.0
C571 C 0.05893 0.50304 0.66101 0.0
C572 C 0.04622 0.54702 0.47587 0.0
C573 C 0.97194 0.6284 0.60811 0.0
C574 C 0.99029 0.63173 0.65881 0.0
C575 C 0.01298 0.5273 0.74179 0.0
C576 C 0.96236 0.4979 0.82927 0.0
C577 C 0.94229 0.51167 0.80552 0.0
C578 C 0.93451 0.53262 0.84268 0.0
C579 C 0.94741 0.54001 0.90343 0.0
C580 C 0.97458 0.50536 0.89117 0.0
C581 C 0.96728 0.52642 0.92739 0.0
C582 C 0.96138 0.51214 0.59685 0.0
C583 C 0.97227 0.47765 0.78558 0.0
H584 H 0.07456 0.50558 0.47709 0.0
H585 H 0.08463 0.50128 0.25126 0.0
H586 H 0.04208 0.55913 0.33964 0.0
H587 H 0.0591 0.5376 0.23657 0.0
H588 H 0.93281 0.50623 0.75768 0.0
H589 H 0.94168 0.55583 0.93391 0.0
H590 H 0.99021 0.49529 0.91067 0.0
H591 H 0.97699 0.53216 0.97445 0.0
H592 H 0.17698 0.04251 0.3216 0.0
H593 H 0.1273 0.03607 0.14536 0.0
H594 H 0.14272 0.03936 0.40309 0.0
H595 H 0.09284 0.0334 0.22725 0.0
H596 H 0.04213 1.0017 0.40445 0.0
H597 H 0.07431 0.00637 0.31616 0.0
H598 H 0.10745 0.06322 0.44325 0.0
H599 H 0.07521 0.05869 0.53093 0.0
C600 C 0.15878 0.04018 0.30005 0.0
C601 C 0.15508 0.03942 0.22652 0.0
C602 C 0.13902 0.03873 0.34697 0.0
C603 C 0.11486 0.03631 0.32206 0.0
C604 C 0.11114 0.03515 0.24855 0.0
C605 C 0.13093 0.03683 0.20149 0.0
C606 C 0.05603 0.01548 0.41305 0.0
C607 C 0.05623 0.0295 0.47563 0.0
C608 C 0.07457 0.01814 0.36234 0.0
C609 C 0.09385 0.03487 0.37288 0.0
C610 C 0.09333 0.0497 0.43394 0.0
C611 C 0.07475 0.04714 0.48427 0.0
H612 H 0.46122 0.12356 0.14061 0.0
H613 H 0.47257 0.17758 0.30466 0.0
H614 H 0.46633 0.09093 0.22702 0.0
H615 H 0.47801 0.14501 0.39069 0.0
H616 H 0.45853 0.08227 0.53834 0.0
H617 H 0.45255 0.11341 0.44859 0.0
H618 H 0.49763 0.07196 0.30421 0.0
H619 H 0.50395 0.04105 0.39432 0.0
C620 C 0.46494 0.12848 0.19502 0.0
C621 C 0.46651 0.15325 0.21554 0.0
C622 C 0.46799 0.10976 0.24451 0.0
C623 C 0.47241 0.1153 0.31601 0.0
C624 C 0.47431 0.14006 0.33629 0.0
C625 C 0.47151 0.15875 0.28672 0.0
C626 C 0.46736 0.07983 0.48769 0.0
C627 C 0.48241 0.0594 0.47472 0.0
C628 C 0.46389 0.09773 0.43611 0.0
C629 C 0.47498 0.09547 0.36946 0.0
C630 C 0.48886 0.07435 0.35499 0.0
C631 C 0.49253 0.05656 0.40694 0.0
H632 H 0.34558 0.48439 0.32924 0.0
H633 H 0.39497 0.49287 0.1538 0.0
H634 H 0.37961 0.49078 0.4116 0.0
H635 H 0.4289 0.49916 0.23589 0.0
H636 H 0.47775 0.53601 0.40394 0.0
H637 H 0.4431 0.53005 0.32406 0.0
H638 H 0.41865 0.46918 0.44937 0.0
H639 H 0.45361 0.4751 0.52902 0.0
C640 C 0.36363 0.4879 0.30821 0.0
C641 C 0.36748 0.48821 0.23476 0.0
C642 C 0.38318 0.49129 0.35545 0.0
C643 C 0.40703 0.49547 0.33047 0.0
C644 C 0.41077 0.49618 0.25705 0.0
C645 C 0.39132 0.49245 0.20992 0.0
C646 C 0.46489 0.52143 0.41457 0.0
C647 C 0.46802 0.50646 0.47379 0.0
C648 C 0.4451 0.51793 0.36862 0.0
C649 C 0.42796 0.49922 0.38037 0.0
C650 C 0.43127 0.484 0.4393 0.0
C651 C 0.45123 0.48742 0.48508 0.0
H652 H 0.01422 0.37952 0.18086 0.0
H653 H 0.0433 0.34181 0.36142 0.0
H654 H 0.00763 0.416 0.25361 0.0
H655 H 0.03602 0.37784 0.43493 0.0
H656 H 0.0443 0.45429 0.53392 0.0
H657 H 0.04996 0.41733 0.46208 0.0
H658 H 0.98528 0.43551 0.34212 0.0
H659 H 0.98042 0.47275 0.41243 0.0
C660 C 0.01879 0.37884 0.23641 0.0
C661 C 0.02942 0.35764 0.26485 0.0
C662 C 0.015 0.39985 0.27853 0.0
C663 C 0.02144 0.40028 0.3508 0.0
C664 C 0.03137 0.37872 0.37949 0.0
C665 C 0.03539 0.35787 0.33723 0.0
C666 C 0.03121 0.45018 0.49261 0.0
C667 C 0.01161 0.46618 0.47986 0.0
C668 C 0.03438 0.42891 0.45118 0.0
C669 C 0.01805 0.42302 0.39569 0.0
C670 C 0.99852 0.43929 0.3832 0.0
C671 C 0.99555 0.46063 0.42408 0.0
H672 H 0.84523 0.96496 0.97419 0.0
H673 H 0.88665 0.00722 0.12523 0.0
H674 H 0.87961 0.9654 0.89316 0.0
H675 H 0.92189 0.00644 0.0465 0.0
H676 H 0.97185 0.02488 0.86153 0.0
H677 H 0.93929 0.02206 0.94806 0.0
H678 H 0.917 0.95278 0.8567 0.0
H679 H 0.94875 0.95671 0.7675 0.0
C680 C 0.862 0.97382 0.99084 0.0
C681 C 0.86316 0.98597 0.05641 0.0
C682 C 0.88194 0.97402 0.94426 0.0
C683 C 0.90399 0.98599 0.96217 0.0
C684 C 0.90529 0.99749 0.02913 0.0
C685 C 0.8851 0.99774 0.07503 0.0
C686 C 0.96022 0.00887 0.86068 0.0
C687 C 0.96306 0.99096 0.80781 0.0
C688 C 0.9414 0.00715 0.91074 0.0
C689 C 0.92503 0.98717 0.91049 0.0
C690 C 0.92857 0.96881 0.85858 0.0
C691 C 0.94708 0.97084 0.80761 0.0
H692 H 0.56441 0.86381 0.02516 0.0
H693 H 0.50072 0.89788 0.11796 0.0
H694 H 0.56783 0.89744 0.94258 0.0
H695 H 0.50298 0.93042 0.03209 0.0
H696 H 0.51606 0.99401 0.8915 0.0
H697 H 0.52134 0.96525 0.98747 0.0
H698 H 0.54988 0.9117 0.84015 0.0
H699 H 0.54619 0.94115 0.74561 0.0
C700 C 0.55127 0.87858 0.02878 0.0
C701 C 0.53212 0.87779 0.07839 0.0
C702 C 0.55298 0.89777 0.98024 0.0
C703 C 0.53547 0.9167 0.97918 0.0
C704 C 0.517 0.91645 0.03092 0.0
C705 C 0.51546 0.89744 0.07993 0.0
C706 C 0.52364 0.97619 0.87951 0.0
C707 C 0.5296 0.9696 0.80973 0.0
C708 C 0.52652 0.95951 0.93481 0.0
C709 C 0.53541 0.93567 0.92205 0.0
C710 C 0.54289 0.92972 0.85288 0.0
C711 C 0.54031 0.94654 0.79788 0.0
H712 H 0.62851 0.5532 0.06023 0.0
H713 H 0.64782 0.47901 1.00192 0.0
H714 H 0.59418 0.55156 0.97724 0.0
H715 H 0.61305 0.47725 0.92262 0.0
H716 H 0.53226 0.47404 0.85429 0.0
H717 H 0.5662 0.47839 0.93751 0.0
H718 H 0.5869 0.54621 0.83918 0.0
H719 H 0.55284 0.54165 0.75501 0.0
C720 C 0.62559 0.53654 0.03023 0.0
C721 C 0.64111 0.51613 0.0394 0.0
C722 C 0.60581 0.53564 0.98263 0.0
C723 C 0.60077 0.51421 0.94372 0.0
C724 C 0.61617 0.49391 0.95265 0.0
C725 C 0.63608 0.4949 0.99908 0.0
C726 C 0.54415 0.48981 0.85022 0.0
C727 C 0.54042 0.50706 0.79678 0.0
C728 C 0.56357 0.49232 0.89787 0.0
C729 C 0.57939 0.51255 0.89469 0.0
C730 C 0.57504 0.53043 0.84304 0.0
C731 C 0.55577 0.52767 0.79435 0.0
H732 H 0.03831 0.66078 0.98359 0.0
H733 H 0.96245 0.64486 0.02736 0.0
H734 H 0.04052 0.62489 0.90757 0.0
H735 H 0.96467 0.60927 0.94855 0.0
H736 H 0.97554 0.56142 0.74046 0.0
H737 H 0.97099 0.59755 0.81787 0.0
H738 H 0.03892 0.57941 0.92106 0.0
H739 H 0.04322 0.54351 0.84456 0.0
C740 C 0.0221 0.64957 0.97819 0.0
C741 C 1.00026 0.65597 0.0134 0.0
C742 C 0.02338 0.62895 0.93372 0.0
C743 C 1.00282 0.61402 0.92183 0.0
C744 C 0.98084 0.62044 0.95586 0.0
C745 C 0.97961 0.64098 1.00124 0.0
C746 C 0.98959 0.56539 0.77921 0.0
C747 C 0.01016 0.55006 0.78493 0.0
C748 C 0.98686 0.58591 0.82416 0.0
C749 C 0.00474 0.59165 0.87542 0.0
C750 C 0.02499 0.57591 0.8816 0.0
C751 C 0.02747 0.55529 0.83775 0.0
H752 H 0.10357 0.20529 0.36597 0.0
H753 H 0.08316 0.16258 0.18299 0.0
H754 H 0.09318 0.17099 0.44199 0.0
H755 H 0.07187 0.12883 0.25804 0.0
H756 H 0.03433 0.07781 0.38652 0.0
H757 H 0.0714 0.09795 0.34549 0.0
H758 H 0.05171 0.16263 0.46554 0.0
H759 H 0.01563 0.14212 0.50867 0.0
C760 C 0.0978 0.18819 0.34194 0.0
C761 C 0.09353 0.18671 0.269 0.0
C762 C 0.0917 0.1686 0.38537 0.0
C763 C 0.08069 0.14752 0.35649 0.0
C764 C 0.08011 0.14476 0.28257 0.0
C765 C 0.08655 0.16422 0.23916 0.0
C766 C 0.03847 0.09601 0.40615 0.0
C767 C 0.02166 0.1088 0.44872 0.0
C768 C 0.05967 0.10759 0.38235 0.0
C769 C 0.06426 0.13219 0.40034 0.0
C770 C 0.04893 0.14373 0.45011 0.0
C771 C 0.0279 0.13213 0.47408 0.0
H772 H 0.3398 0.09267 0.2914 0.0
H773 H 0.27442 0.06347 0.38708 0.0
H774 H 0.36424 0.07494 0.38477 0.0
H775 H 0.29863 0.04761 0.48358 0.0
H776 H 0.35059 0.98304 0.53332 0.0
H777 H 0.32315 0.01245 0.48081 0.0
H778 H 0.37858 0.06852 0.50081 0.0
H779 H 0.40642 0.03851 0.55218 0.0
C780 C 0.33053 0.08308 0.33338 0.0
C781 C 0.30521 0.07875 0.33004 0.0
C782 C 0.34456 0.0732 0.38778 0.0
C783 C 0.33349 0.05916 0.44077 0.0
C784 C 0.30784 0.05764 0.44234 0.0
C785 C 0.29387 0.06711 0.38727 0.0
C786 C 0.35671 1.00179 0.5283 0.0
C787 C 0.38073 0.0084 0.54591 0.0
C788 C 0.34089 0.01881 0.49844 0.0
C789 C 0.34864 0.04294 0.48595 0.0
C790 C 0.37215 0.05 0.50842 0.0
C791 C 0.38809 0.03285 0.53784 0.0
H792 H 0.38943 0.3385 0.23541 0.0
H793 H 0.45322 0.30082 0.31385 0.0
H794 H 0.40219 0.37554 0.29833 0.0
H795 H 0.46605 0.3374 0.37509 0.0
H796 H 0.49337 0.40301 0.46787 0.0
H797 H 0.46399 0.36976 0.45739 0.0
H798 H 0.43381 0.40328 0.27062 0.0
H799 H 0.46203 0.43718 0.28403 0.0
C800 C 0.40585 0.33795 0.26735 0.0
C801 C 0.42048 0.3168 0.26868 0.0
C802 C 0.41319 0.35917 0.30333 0.0
C803 C 0.4354 0.3597 0.34088 0.0
C804 C 0.44871 0.3378 0.34758 0.0
C805 C 0.44132 0.31664 0.31207 0.0
C806 C 0.47981 0.40378 0.42627 0.0
C807 C 0.48059 0.42227 0.3752 0.0
C808 C 0.4631 0.38455 0.4198 0.0
C809 C 0.44708 0.3833 0.36171 0.0
C810 C 0.44592 0.40339 0.31584 0.0
C811 C 0.4624 0.42273 0.32283 0.0
H812 H 0.18896 0.39477 0.23938 0.0
H813 H 0.2219 0.45991 0.32773 0.0
H814 H 0.15096 0.40421 0.30145 0.0
H815 H 0.1843 0.46974 0.38728 0.0
H816 H 0.1165 0.49433 0.46794 0.0
H817 H 0.1512 0.46663 0.46292 0.0
H818 H 0.12133 0.43324 0.27405 0.0
H819 H 0.08581 0.45944 0.28278 0.0
C820 C 0.18828 0.41075 0.27346 0.0
C821 C 0.20829 0.4268 0.27766 0.0
C822 C 0.16648 0.41625 0.30881 0.0
C823 C 0.1642 0.4381 0.34811 0.0
C824 C 0.18516 0.45265 0.3582 0.0
C825 C 0.20693 0.44702 0.32363 0.0
C826 C 0.11681 0.48038 0.42707 0.0
C827 C 0.09882 0.47975 0.37404 0.0
C828 C 0.13693 0.46464 0.42367 0.0
C829 C 0.1397 0.44831 0.36644 0.0
C830 C 0.12014 0.44564 0.31869 0.0
C831 C 0.09984 0.46104 0.32289 0.0
H832 H 0.94406 0.83592 0.96155 0.0
H833 H 0.96075 0.78411 0.79601 0.0
H834 H 0.94774 0.86904 0.87988 0.0
H835 H 0.96283 0.81735 0.71123 0.0
H836 H 0.02984 0.86889 0.68929 0.0
H837 H 0.99677 0.84023 0.69972 0.0
H838 H 0.95151 0.89679 0.7932 0.0
H839 H 0.98579 0.92483 0.78885 0.0
C840 C 0.94708 0.83151 0.90641 0.0
C841 C 0.95317 0.80764 0.88559 0.0
C842 C 0.9492 0.85068 0.8587 0.0
C843 C 0.95733 0.84619 0.78914 0.0
C844 C 0.95811 0.82171 0.76531 0.0
C845 C 0.95663 0.80255 0.81361 0.0
C846 C 0.01273 0.87528 0.71149 0.0
C847 C 0.01106 0.89851 0.743 0.0
C848 C 0.99334 0.85887 0.71638 0.0
C849 C 0.97173 0.86555 0.75227 0.0
C850 C 0.96838 0.89045 0.76955 0.0
C851 C 0.98806 0.90671 0.76632 0.0
H852 H 0.67908 0.92367 0.98215 0.0
H853 H 0.72627 0.97013 0.85907 0.0
H854 H 0.64726 0.9276 0.89261 0.0
H855 H 0.69503 0.97427 0.7716 0.0
H856 H 0.63817 1.00277 0.65412 0.0
H857 H 0.66409 0.96869 0.68921 0.0
H858 H 0.62354 0.96308 0.88424 0.0
H859 H 0.59727 0.99599 0.84768 0.0
C860 C 0.68298 0.93404 0.93502 0.0
C861 C 0.70486 0.94736 0.92921 0.0
C862 C 0.66475 0.93629 0.88365 0.0
C863 C 0.66806 0.95215 0.82625 0.0
C864 C 0.69147 0.96204 0.81503 0.0
C865 C 0.70964 0.9597 0.86596 0.0
C866 C 0.63432 0.99359 0.70329 0.0
C867 C 0.61626 1.0026 0.74926 0.0
C868 C 0.64916 0.97405 0.72349 0.0
C869 C 0.64671 0.96379 0.79101 0.0
C870 C 0.62631 0.9705 0.83208 0.0
C871 C 0.61121 0.98969 0.81129 0.0
H872 H 0.54532 0.73317 0.88689 0.0
H873 H 0.58872 0.69262 0.03616 0.0
H874 H 0.5466 0.69864 0.80537 0.0
H875 H 0.58855 0.65761 0.95769 0.0
H876 H 0.57087 0.59067 0.85695 0.0
H877 H 0.59076 0.63062 0.86242 0.0
H878 H 0.52099 0.66531 0.8229 0.0
H879 H 0.5017 0.6258 0.81549 0.0
C880 C 0.55593 0.71724 0.90131 0.0
C881 C 0.56602 0.71514 0.96919 0.0
C882 C 0.55643 0.69728 0.8548 0.0
C883 C 0.56649 0.67482 0.8763 0.0
C884 C 0.58019 0.67433 0.93922 0.0
C885 C 0.58006 0.69439 0.98501 0.0
C886 C 0.56005 0.60691 0.84742 0.0
C887 C 0.53463 0.60522 0.83804 0.0
C888 C 0.57142 0.6298 0.85045 0.0
C889 C 0.55743 0.65135 0.84554 0.0
C890 C 0.53256 0.64932 0.82702 0.0
C891 C 0.52132 0.6265 0.8232 0.0
H892 H 0.82017 0.59535 0.01037 0.0
H893 H 0.78375 0.54955 0.85622 0.0
H894 H 0.85555 0.59769 0.93468 0.0
H895 H 0.81831 0.55375 0.77735 0.0
H896 H 0.89217 0.51145 0.79864 0.0
H897 H 0.8522 0.52945 0.79956 0.0
H898 H 0.88383 0.60054 0.84304 0.0
H899 H 0.92447 0.58201 0.84289 0.0
C900 C 0.81931 0.58664 0.9589 0.0
C901 C 0.79981 0.57102 0.94128 0.0
C902 C 0.83956 0.58829 0.9146 0.0
C903 C 0.84039 0.57468 0.8513 0.0
C904 C 0.81874 0.56344 0.82737 0.0
C905 C 0.79871 0.56125 0.87252 0.0
C906 C 0.89083 0.53109 0.8056 0.0
C907 C 0.91144 0.54513 0.82313 0.0
C908 C 0.86767 0.54161 0.80573 0.0
C909 C 0.86453 0.56647 0.8236 0.0
C910 C 0.88549 0.58119 0.83138 0.0
C911 C 0.90876 0.57057 0.83157 0.0
H912 H 0.98342 0.18454 0.9219 0.0
H913 H 0.06008 0.17802 0.87319 0.0
H914 H 0.9753 0.14671 0.85681 0.0
H915 H 0.05239 0.13966 0.8111 0.0
H916 H 0.03056 0.08029 0.65296 0.0
H917 H 0.03784 0.11945 0.71275 0.0
H918 H 0.97722 0.10496 0.85261 0.0
H919 H 0.96939 0.06672 0.78975 0.0
C920 C 0.99861 0.1749 0.89784 0.0
C921 C 0.02238 0.18459 0.90259 0.0
C922 C 0.99401 0.15297 0.86055 0.0
C923 C 0.01311 0.13965 0.82776 0.0
C924 C 0.03695 0.14933 0.83352 0.0
C925 C 0.04144 0.17144 0.86974 0.0
C926 C 0.01897 0.08551 0.69687 0.0
C927 C 0.99984 0.07007 0.71795 0.0
C928 C 0.0231 0.10805 0.73152 0.0
C929 C 0.00831 0.11578 0.78873 0.0
C930 C 0.98893 0.10025 0.80863 0.0
C931 C 0.98456 0.07801 0.7731 0.0
H932 H 0.34166 0.07039 0.87398 0.0
H933 H 0.32358 0.99357 0.87949 0.0
H934 H 0.38044 0.06074 0.81765 0.0
H935 H 0.36249 0.98387 0.82241 0.0
H936 H 0.44557 0.97395 0.79193 0.0
H937 H 0.40562 0.98295 0.84345 0.0
H938 H 0.39937 0.04655 0.71064 0.0
H939 H 0.43961 0.03759 0.66032 0.0
C940 C 0.34572 0.05141 0.86222 0.0
C941 C 0.32918 0.03281 0.8812 0.0
C942 C 0.3681 0.04586 0.82971 0.0
C943 C 0.37479 0.02149 0.81495 0.0
C944 C 0.35825 1.00284 0.83367 0.0
C945 C 0.33583 0.00841 0.86644 0.0
C946 C 0.43568 0.98994 0.77418 0.0
C947 C 0.44608 0.00549 0.72377 0.0
C948 C 0.41263 0.99501 0.80321 0.0
C949 C 0.39911 0.01563 0.78189 0.0
C950 C 0.40932 0.0308 0.72972 0.0
C951 C 0.43245 0.02573 0.70085 0.0
H952 H 0.45962 0.34435 0.93766 0.0
H953 H 0.49807 0.30222 0.7796 0.0
H954 H 0.46603 0.38154 0.86904 0.0
H955 H 0.50515 0.33982 0.71163 0.0
H956 H 0.53393 0.42486 0.68666 0.0
H957 H 0.52879 0.38477 0.74149 0.0
H958 H 0.45054 0.39363 0.73431 0.0
H959 H 0.4555 0.43296 0.67612 0.0
C960 C 0.46975 0.34311 0.88869 0.0
C961 C 0.47847 0.32039 0.86424 0.0
C962 C 0.47326 0.36436 0.84921 0.0
C963 C 0.48603 0.36354 0.78498 0.0
C964 C 0.49528 0.34095 0.76104 0.0
C965 C 0.49122 0.31949 0.79981 0.0
C966 C 0.51561 0.41823 0.69588 0.0
C967 C 0.49514 0.43282 0.67963 0.0
C968 C 0.5127 0.39519 0.72718 0.0
C969 C 0.48928 0.38635 0.74352 0.0
C970 C 0.46883 0.40022 0.72362 0.0
C971 C 0.47173 0.42291 0.6909 0.0
H972 H 0.21412 0.51199 0.79696 0.0
H973 H 0.17455 0.4706 0.9524 0.0
H974 H 0.17633 0.51653 0.72769 0.0
H975 H 0.13713 0.47465 0.8827 0.0
H976 H 0.08488 0.46161 0.69352 0.0
H977 H 0.12378 0.45873 0.75586 0.0
H978 H 0.13199 0.53704 0.7456 0.0
H979 H 0.09235 0.54014 0.68629 0.0
C980 C 0.19737 0.50393 0.81639 0.0
C981 C 0.19734 0.49108 0.88051 0.0
C982 C 0.17574 0.50657 0.77683 0.0
C983 C 0.15375 0.49584 0.79952 0.0
C984 C 0.15378 0.483 0.86353 0.0
C985 C 0.17519 0.48086 0.90377 0.0
C986 C 0.09467 0.47832 0.70544 0.0
C987 C 0.0847 0.50121 0.68749 0.0
C988 C 0.11713 0.47662 0.74073 0.0
C989 C 0.13079 0.4977 0.75692 0.0
C990 C 0.12181 0.52047 0.73442 0.0
C991 C 0.099 0.52222 0.70046 0.0
H992 H 0.9645 0.84569 0.37556 0.0
H993 H 0.04165 0.8299 0.38638 0.0
H994 H 0.9706 0.88202 0.44962 0.0
H995 H 0.04781 0.86632 0.46003 0.0
H996 H 0.05389 0.9496 0.50192 0.0
H997 H 0.04726 0.91034 0.44275 0.0
H998 H 0.98202 0.89929 0.56637 0.0
H999 H 0.98878 0.93895 0.62542 0.0
C1000 C 0.98277 0.84984 0.3942 0.0
C1001 C 1.00258 0.83475 0.37442 0.0
C1002 C 0.98627 0.87073 0.43701 0.0
C1003 C 0.00979 0.87756 0.46028 0.0
C1004 C 0.02947 0.862 0.4424 0.0
C1005 C 0.0259 0.84088 0.40064 0.0
C1006 C 0.03807 0.93883 0.51632 0.0
C1007 C 0.02146 0.94781 0.56678 0.0
C1008 C 0.03436 0.91613 0.48279 0.0
C1009 C 0.01403 0.90141 0.49919 0.0
C1010 C 0.99769 0.91014 0.5513 0.0
C1011 C 1.00147 0.93295 0.58502 0.0
H1012 H 0.66808 0.96716 0.36002 0.0
H1013 H 0.69162 0.03718 0.44286 0.0
H1014 H 0.62942 0.97148 0.42401 0.0
H1015 H 0.65265 0.04177 0.50345 0.0
H1016 H 0.5686 0.05531 0.50293 0.0
H1017 H 0.60869 0.04707 0.45163 0.0
H1018 H 0.61084 0.97725 0.55589 0.0
H1019 H 0.57094 0.98617 0.61066 0.0
C1020 C 0.66534 0.98329 0.39251 0.0
C1021 C 0.68319 1.00197 0.39482 0.0
C1022 C 0.64303 0.98578 0.42898 0.0
C1023 C 0.63777 0.00714 0.46798 0.0
C1024 C 0.65592 0.02528 0.47285 0.0
C1025 C 0.6783 0.02265 0.43751 0.0
C1026 C 0.57757 0.03815 0.51494 0.0
C1027 C 0.56623 0.02112 0.55937 0.0
C1028 C 0.60061 0.03347 0.4857 0.0
C1029 C 0.61302 0.01149 0.4995 0.0
C1030 C 0.60169 0.99428 0.54374 0.0
C1031 C 0.57877 0.99928 0.57463 0.0
H1032 H 0.48408 0.68774 0.36943 0.0
H1033 H 0.54872 0.70847 0.48605 0.0
H1034 H 0.48289 0.64903 0.43047 0.0
H1035 H 0.54731 0.66949 0.549 0.0
H1036 H 0.55088 0.58556 0.59003 0.0
H1037 H 0.55312 0.62641 0.53941 0.0
H1038 H 0.47425 0.63016 0.5378 0.0
H1039 H 0.47217 0.58902 0.58388 0.0
C1040 C 0.49781 0.68429 0.40934 0.0
C1041 C 0.5163 0.70156 0.42326 0.0
C1042 C 0.49712 0.66192 0.44469 0.0
C1043 C 0.51482 0.65595 0.49575 0.0
C1044 C 0.53343 0.6732 0.50977 0.0
C1045 C 0.53421 0.69565 0.47381 0.0
C1046 C 0.53404 0.59487 0.57731 0.0
C1047 C 0.51138 0.58319 0.58733 0.0
C1048 C 0.5353 0.61862 0.54949 0.0
C1049 C 0.51386 0.6316 0.53224 0.0
C1050 C 0.49122 0.62056 0.54752 0.0
C1051 C 0.49001 0.5968 0.5745 0.0
H1052 H 0.83488 0.48364 0.33633 0.0
H1053 H 0.80984 0.54596 0.45753 0.0
H1054 H 0.87291 0.48358 0.40181 0.0
H1055 H 0.84835 0.54589 0.52377 0.0
H1056 H 0.93208 0.55247 0.57313 0.0
H1057 H 0.89187 0.55363 0.51677 0.0
H1058 H 0.89027 0.47467 0.5134 0.0
H1059 H 0.93059 0.47364 0.56647 0.0
C1060 C 0.8372 0.49712 0.37794 0.0
C1061 C 0.81883 0.51458 0.39188 0.0
C1062 C 0.85923 0.4971 0.41573 0.0
C1063 C 0.86388 0.51455 0.46907 0.0
C1064 C 0.84564 0.53222 0.48289 0.0
C1065 C 0.82346 0.53224 0.44484 0.0
C1066 C 0.92334 0.53536 0.55927 0.0
C1067 C 0.93535 0.51298 0.57158 0.0
C1068 C 0.89999 0.53601 0.52789 0.0
C1069 C 0.88781 0.51423 0.50859 0.0
C1070 C 0.89924 0.49188 0.52509 0.0
C1071 C 0.92253 0.49128 0.55614 0.0
loop_
_geom_bond_atom_site_label_1
_geom_bond_atom_site_label_2
_geom_bond_distance
_geom_bond_site_symmetry_2
_ccdc_geom_bond_type
P0 O11 1.490 . S
P0 C14 1.812 . S
P0 C20 1.803 . S
P0 C26 1.819 . S
H1 C15 0.941 . S
H2 C16 0.939 . S
H3 C18 0.940 . S
H4 C19 0.940 . S
H5 C21 0.939 . S
H6 C22 0.942 . S
H7 C24 0.940 . S
H8 C25 0.939 . S
H9 C27 0.941 . S
H10 C31 0.939 . S
O11 P0 1.490 . S
H12 C28 0.939 . S
H13 C30 0.940 . S
C14 P0 1.812 . S
C14 C15 1.389 . S
C14 C19 1.391 . S
C15 H1 0.941 . S
C15 C14 1.389 . S
C15 C16 1.397 . S
C16 H2 0.939 . S
C16 C15 1.397 . S
C16 C17 1.378 . S
C17 C16 1.378 . S
C17 C18 1.378 . S
C18 H3 0.940 . S
C18 C17 1.378 . S
C18 C19 1.396 . S
C19 H4 0.940 . S
C19 C14 1.391 . S
C19 C18 1.396 . S
C20 P0 1.803 . S
C20 C21 1.378 . S
C20 C25 1.400 . S
C21 H5 0.939 . S
C21 C20 1.378 . S
C21 C22 1.361 . S
C22 H6 0.942 . S
C22 C21 1.361 . S
C22 C23 1.369 . S
C23 C22 1.369 . S
C23 C24 1.404 . S
C24 H7 0.940 . S
C24 C23 1.404 . S
C24 C25 1.389 . S
C25 H8 0.939 . S
C25 C20 1.400 . S
C25 C24 1.389 . S
C26 P0 1.819 . S
C26 C27 1.391 . S
C26 C31 1.391 . S
C27 H9 0.941 . S
C27 C26 1.391 . S
C27 C28 1.396 . S
C28 H12 0.939 . S
C28 C27 1.396 . S
C28 C29 1.397 . S
C29 C28 1.397 . S
C29 C30 1.385 . S
C30 H13 0.940 . S
C30 C29 1.385 . S
C30 C31 1.388 . S
C31 H10 0.939 . S
C31 C26 1.391 . S
C31 C30 1.388 . S
P32 O43 1.508 . S
P32 C46 1.812 . S
P32 C52 1.803 . S
P32 C58 1.819 . S
H33 C47 0.941 . S
H34 C48 0.939 . S
H35 C50 0.940 . S
H36 C51 0.940 . S
H37 C53 0.939 . S
H38 C54 0.942 . S
H39 C56 0.940 . S
H40 C57 0.939 . S
H41 C59 0.941 . S
H42 C63 0.939 . S
O43 P32 1.508 . S
H44 C60 0.939 . S
H45 C62 0.940 . S
C46 P32 1.812 . S
C46 C47 1.389 . S
C46 C51 1.391 . S
C47 H33 0.941 . S
C47 C46 1.389 . S
C47 C48 1.397 . S
C48 H34 0.939 . S
C48 C47 1.397 . S
C48 C49 1.378 . S
C49 C48 1.378 . S
C49 C50 1.378 . S
C50 H35 0.940 . S
C50 C49 1.378 . S
C50 C51 1.396 . S
C51 H36 0.940 . S
C51 C46 1.391 . S
C51 C50 1.396 . S
C52 P32 1.803 . S
C52 C53 1.378 . S
C52 C57 1.400 . S
C53 H37 0.939 . S
C53 C52 1.378 . S
C53 C54 1.361 . S
C54 H38 0.942 . S
C54 C53 1.361 . S
C54 C55 1.369 . S
C55 C54 1.369 . S
C55 C56 1.404 . S
C56 H39 0.940 . S
C56 C55 1.404 . S
C56 C57 1.389 . S
C57 H40 0.939 . S
C57 C52 1.400 . S
C57 C56 1.389 . S
C58 P32 1.819 . S
C58 C59 1.391 . S
C58 C63 1.391 . S
C59 H41 0.941 . S
C59 C58 1.391 . S
C59 C60 1.396 . S
C60 H44 0.939 . S
C60 C59 1.396 . S
C60 C61 1.397 . S
C61 C60 1.397 . S
C61 C62 1.385 . S
C62 H45 0.940 . S
C62 C61 1.385 . S
C62 C63 1.388 . S
C63 H42 0.939 . S
C63 C58 1.391 . S
C63 C62 1.388 . S
P64 O75 1.490 1_565 S
P64 C78 1.812 . S
P64 C84 1.803 . S
P64 C90 1.819 . S
H65 C79 0.941 . S
H66 C80 0.939 . S
H67 C82 0.940 . S
H68 C83 0.940 . S
H69 C85 0.939 . S
H70 C86 0.942 . S
H71 C88 0.940 . S
H72 C89 0.939 . S
H73 C91 0.941 . S
H74 C95 0.939 . S
O75 P64 1.490 1_545 S
H76 C92 0.939 . S
H77 C94 0.940 . S
C78 P64 1.812 . S
C78 C79 1.389 . S
C78 C83 1.391 . S
C79 H65 0.941 . S
C79 C78 1.389 . S
C79 C80 1.397 . S
C80 H66 0.939 . S
C80 C79 1.397 . S
C80 C81 1.378 . S
C81 C80 1.378 . S
C81 C82 1.378 . S
C82 H67 0.940 . S
C82 C81 1.378 . S
C82 C83 1.396 . S
C83 H68 0.940 . S
C83 C78 1.391 . S
C83 C82 1.396 . S
C84 P64 1.803 . S
C84 C85 1.378 . S
C84 C89 1.400 . S
C85 H69 0.939 . S
C85 C84 1.378 . S
C85 C86 1.361 . S
C86 H70 0.942 . S
C86 C85 1.361 . S
C86 C87 1.369 . S
C87 C86 1.369 . S
C87 C88 1.404 . S
C88 H71 0.940 . S
C88 C87 1.404 . S
C88 C89 1.389 . S
C89 H72 0.939 . S
C89 C84 1.400 . S
C89 C88 1.389 . S
C90 P64 1.819 . S
C90 C91 1.391 . S
C90 C95 1.391 . S
C91 H73 0.941 . S
C91 C90 1.391 . S
C91 C92 1.396 . S
C92 H76 0.939 . S
C92 C91 1.396 . S
C92 C93 1.397 . S
C93 C92 1.397 . S
C93 C94 1.385 . S
C94 H77 0.940 . S
C94 C93 1.385 . S
C94 C95 1.388 . S
C95 H74 0.939 . S
C95 C90 1.391 . S
C95 C94 1.388 . S
P96 O107 1.490 . S
P96 C110 1.812 . S
P96 C116 1.803 . S
P96 C122 1.819 . S
H97 C111 0.941 . S
H98 C112 0.939 . S
H99 C114 0.940 . S
H100 C115 0.940 . S
H101 C117 0.939 . S
H102 C118 0.942 . S
H103 C120 0.940 . S
H104 C121 0.939 . S
H105 C123 0.941 . S
H106 C127 0.939 . S
O107 P96 1.490 . S
H108 C124 0.939 . S
H109 C126 0.940 . S
C110 P96 1.812 . S
C110 C111 1.389 . S
C110 C115 1.391 . S
C111 H97 0.941 . S
C111 C110 1.389 . S
C111 C112 1.397 . S
C112 H98 0.939 . S
C112 C111 1.397 . S
C112 C113 1.378 . S
C113 C112 1.378 . S
C113 C114 1.378 . S
C114 H99 0.940 . S
C114 C113 1.378 . S
C114 C115 1.396 . S
C115 H100 0.940 . S
C115 C110 1.391 . S
C115 C114 1.396 . S
C116 P96 1.803 . S
C116 C117 1.378 . S
C116 C121 1.400 . S
C117 H101 0.939 . S
C117 C116 1.378 . S
C117 C118 1.361 . S
C118 H102 0.942 . S
C118 C117 1.361 . S
C118 C119 1.369 . S
C119 C118 1.369 . S
C119 C120 1.404 . S
C120 H103 0.940 . S
C120 C119 1.404 . S
C120 C121 1.389 . S
C121 H104 0.939 . S
C121 C116 1.400 . S
C121 C120 1.389 . S
C122 P96 1.819 . S
C122 C123 1.391 . S
C122 C127 1.391 . S
C123 H105 0.941 . S
C123 C122 1.391 . S
C123 C124 1.396 . S
C124 H108 0.939 . S
C124 C123 1.396 . S
C124 C125 1.397 . S
C125 C124 1.397 . S
C125 C126 1.385 . S
C126 H109 0.940 . S
C126 C125 1.385 . S
C126 C127 1.388 . S
C127 H106 0.939 . S
C127 C122 1.391 . S
C127 C126 1.388 . S
P128 O139 1.490 . S
P128 C142 1.812 1_554 S
P128 C148 1.803 . S
P128 C154 1.819 . S
H129 C143 0.941 . S
H130 C144 0.939 . S
H131 C146 0.940 . S
H132 C147 0.940 . S
H133 C149 0.939 . S
H134 C150 0.942 . S
H135 C152 0.940 . S
H136 C153 0.939 1_556 S
H137 C155 0.941 . S
H138 C159 0.939 . S
O139 P128 1.490 . S
H140 C156 0.939 . S
H141 C158 0.940 . S
C142 P128 1.812 1_556 S
C142 C143 1.389 . S
C142 C147 1.391 . S
C143 H129 0.941 . S
C143 C142 1.389 . S
C143 C144 1.397 . S
C144 H130 0.939 . S
C144 C143 1.397 . S
C144 C145 1.378 . S
C145 C144 1.378 . S
C145 C146 1.378 . S
C146 H131 0.940 . S
C146 C145 1.378 . S
C146 C147 1.396 . S
C147 H132 0.940 . S
C147 C142 1.391 . S
C147 C146 1.396 . S
C148 P128 1.803 . S
C148 C149 1.378 . S
C148 C153 1.400 . S
C149 H133 0.939 . S
C149 C148 1.378 . S
C149 C150 1.361 . S
C150 H134 0.942 . S
C150 C149 1.361 . S
C150 C151 1.369 . S
C151 C150 1.369 . S
C151 C152 1.404 . S
C152 H135 0.940 . S
C152 C151 1.404 . S
C152 C153 1.389 . S
C153 H136 0.939 1_554 S
C153 C148 1.400 . S
C153 C152 1.389 . S
C154 P128 1.819 . S
C154 C155 1.391 . S
C154 C159 1.391 . S
C155 H137 0.941 . S
C155 C154 1.391 . S
C155 C156 1.396 . S
C156 H140 0.939 . S
C156 C155 1.396 . S
C156 C157 1.397 . S
C157 C156 1.397 . S
C157 C158 1.385 . S
C158 H141 0.940 . S
C158 C157 1.385 . S
C158 C159 1.388 . S
C159 H138 0.939 . S
C159 C154 1.391 . S
C159 C158 1.388 . S
P160 O171 1.490 . S
P160 C174 1.812 1_554 S
P160 C180 1.803 . S
P160 C186 1.819 . S
H161 C175 0.941 . S
H162 C176 0.939 . S
H163 C178 0.940 . S
H164 C179 0.940 . S
H165 C181 0.939 . S
H166 C182 0.942 . S
H167 C184 0.940 . S
H168 C185 0.939 1_556 S
H169 C187 0.941 . S
H170 C191 0.939 . S
O171 P160 1.490 . S
H172 C188 0.939 . S
H173 C190 0.940 . S
C174 P160 1.812 1_556 S
C174 C175 1.389 . S
C174 C179 1.391 . S
C175 H161 0.941 . S
C175 C174 1.389 . S
C175 C176 1.397 . S
C176 H162 0.939 . S
C176 C175 1.397 . S
C176 C177 1.378 . S
C177 C176 1.378 . S
C177 C178 1.378 . S
C178 H163 0.940 . S
C178 C177 1.378 . S
C178 C179 1.396 . S
C179 H164 0.940 . S
C179 C174 1.391 . S
C179 C178 1.396 . S
C180 P160 1.803 . S
C180 C181 1.378 . S
C180 C185 1.400 . S
C181 H165 0.939 . S
C181 C180 1.378 . S
C181 C182 1.361 . S
C182 H166 0.942 . S
C182 C181 1.361 . S
C182 C183 1.369 . S
C183 C182 1.369 . S
C183 C184 1.404 . S
C184 H167 0.940 . S
C184 C183 1.404 . S
C184 C185 1.389 . S
C185 H168 0.939 1_554 S
C185 C180 1.400 . S
C185 C184 1.389 . S
C186 P160 1.819 . S
C186 C187 1.391 . S
C186 C191 1.391 . S
C187 H169 0.941 . S
C187 C186 1.391 . S
C187 C188 1.396 . S
C188 H172 0.939 . S
C188 C187 1.396 . S
C188 C189 1.397 . S
C189 C188 1.397 . S
C189 C190 1.385 . S
C190 H173 0.940 . S
C190 C189 1.385 . S
C190 C191 1.388 . S
C191 H170 0.939 . S
C191 C186 1.391 . S
C191 C190 1.388 . S
P192 O203 1.490 . S
P192 C206 1.812 1_554 S
P192 C212 1.803 . S
P192 C218 1.819 . S
H193 C207 0.941 . S
H194 C208 0.939 . S
H195 C210 0.940 . S
H196 C211 0.940 . S
H197 C213 0.939 . S
H198 C214 0.942 . S
H199 C216 0.940 . S
H200 C217 0.939 1_556 S
H201 C219 0.941 . S
H202 C223 0.939 . S
O203 P192 1.490 . S
H204 C220 0.939 . S
H205 C222 0.940 . S
C206 P192 1.812 1_556 S
C206 C207 1.389 . S
C206 C211 1.391 . S
C207 H193 0.941 . S
C207 C206 1.389 . S
C207 C208 1.397 . S
C208 H194 0.939 . S
C208 C207 1.397 . S
C208 C209 1.378 . S
C209 C208 1.378 . S
C209 C210 1.378 . S
C210 H195 0.940 . S
C210 C209 1.378 . S
C210 C211 1.396 . S
C211 H196 0.940 . S
C211 C206 1.391 . S
C211 C210 1.396 . S
C212 P192 1.803 . S
C212 C213 1.378 . S
C212 C217 1.400 . S
C213 H197 0.939 . S
C213 C212 1.378 . S
C213 C214 1.361 . S
C214 H198 0.942 . S
C214 C213 1.361 . S
C214 C215 1.369 . S
C215 C214 1.369 . S
C215 C216 1.404 . S
C216 H199 0.940 . S
C216 C215 1.404 . S
C216 C217 1.389 . S
C217 H200 0.939 1_554 S
C217 C212 1.400 . S
C217 C216 1.389 . S
C218 P192 1.819 . S
C218 C219 1.391 . S
C218 C223 1.391 . S
C219 H201 0.941 . S
C219 C218 1.391 . S
C219 C220 1.396 . S
C220 H204 0.939 . S
C220 C219 1.396 . S
C220 C221 1.397 . S
C221 C220 1.397 . S
C221 C222 1.385 . S
C222 H205 0.940 . S
C222 C221 1.385 . S
C222 C223 1.388 . S
C223 H202 0.939 . S
C223 C218 1.391 . S
C223 C222 1.388 . S
P224 O235 1.490 . S
P224 C238 1.812 1_554 S
P224 C244 1.803 . S
P224 C250 1.819 . S
H225 C239 0.941 . S
H226 C240 0.939 . S
H227 C242 0.940 . S
H228 C243 0.940 . S
H229 C245 0.939 . S
H230 C246 0.942 . S
H231 C248 0.940 . S
H232 C249 0.939 1_556 S
H233 C251 0.941 . S
H234 C255 0.939 . S
O235 P224 1.490 . S
H236 C252 0.939 . S
H237 C254 0.940 . S
C238 P224 1.812 1_556 S
C238 C239 1.389 . S
C238 C243 1.391 . S
C239 H225 0.941 . S
C239 C238 1.389 . S
C239 C240 1.397 . S
C240 H226 0.939 . S
C240 C239 1.397 . S
C240 C241 1.378 . S
C241 C240 1.378 . S
C241 C242 1.378 . S
C242 H227 0.940 . S
C242 C241 1.378 . S
C242 C243 1.396 . S
C243 H228 0.940 . S
C243 C238 1.391 . S
C243 C242 1.396 . S
C244 P224 1.803 . S
C244 C245 1.378 . S
C244 C249 1.400 . S
C245 H229 0.939 . S
C245 C244 1.378 . S
C245 C246 1.361 . S
C246 H230 0.942 . S
C246 C245 1.361 . S
C246 C247 1.369 . S
C247 C246 1.369 . S
C247 C248 1.404 . S
C248 H231 0.940 . S
C248 C247 1.404 . S
C248 C249 1.389 . S
C249 H232 0.939 1_554 S
C249 C244 1.400 . S
C249 C248 1.389 . S
C250 P224 1.819 . S
C250 C251 1.391 . S
C250 C255 1.391 . S
C251 H233 0.941 . S
C251 C250 1.391 . S
C251 C252 1.396 . S
C252 H236 0.939 . S
C252 C251 1.396 . S
C252 C253 1.397 . S
C253 C252 1.397 . S
C253 C254 1.385 . S
C254 H237 0.940 . S
C254 C253 1.385 . S
C254 C255 1.388 . S
C255 H234 0.939 . S
C255 C250 1.391 . S
C255 C254 1.388 . S
Eu256 N287 2.657 1_565 S
Eu256 N294 2.609 . S
Eu256 O300 2.558 . S
Eu256 O301 2.612 1_455 S
Eu256 O303 2.339 1_455 S
Eu256 O304 2.563 . S
Eu256 O305 2.419 . S
Eu256 O307 2.380 1_565 S
Eu256 O308 2.432 . S
Eu256 C320 2.848 . S
C257 C260 1.429 1_545 S
C257 C261 1.411 . S
C257 N264 1.377 . S
C258 C260 1.420 . S
C258 C262 1.423 . S
C258 C270 1.392 . S
C259 C261 1.420 1_565 S
C259 C262 1.351 . S
C259 H282 0.931 . S
C260 C257 1.429 1_565 S
C260 C258 1.420 . S
C260 N268 1.370 . S
C261 C257 1.411 . S
C261 C259 1.420 1_545 S
C261 C266 1.395 . S
C262 C258 1.423 . S
C262 C259 1.351 . S
C262 H274 0.930 . S
C263 C265 1.400 . S
C263 C266 1.386 . S
C263 H275 0.930 . S
N264 C257 1.377 . S
N264 C265 1.321 . S
N264 Eu267 2.609 . S
C265 C263 1.400 . S
C265 N264 1.321 . S
C265 H272 0.930 . S
C266 C261 1.395 . S
C266 C263 1.386 . S
C266 H285 0.930 . S
Eu267 N264 2.609 . S
Eu267 N268 2.634 1_545 S
Eu267 O301 2.380 1_545 S
Eu267 O302 2.432 . S
Eu267 O306 2.558 . S
Eu267 O307 2.612 1_655 S
Eu267 O309 2.339 1_655 S
Eu267 O310 2.563 1_655 S
Eu267 O311 2.419 . S
Eu267 C331 2.848 . S
N268 C260 1.370 . S
N268 Eu267 2.634 1_565 S
N268 C269 1.350 1_655 S
C269 N268 1.350 1_455 S
C269 C271 1.412 1_455 S
C269 H276 0.929 . S
C270 C258 1.392 . S
C270 C271 1.391 . S
C270 H278 0.930 . S
C271 C269 1.412 1_655 S
C271 C270 1.391 . S
C271 H273 0.908 1_655 S
H272 C265 0.930 . S
H273 C271 0.908 1_455 S
H274 C262 0.930 . S
H275 C263 0.930 . S
H276 C269 0.929 . S
H277 C291 0.930 1_655 S
H278 C270 0.930 . S
H279 C297 0.930 . S
H280 C288 0.929 1_655 S
H281 C295 0.930 . S
H282 C259 0.931 . S
H283 C289 0.930 . S
H284 C322 0.930 . S
H285 C266 0.930 . S
H286 C321 0.931 . S
N287 Eu256 2.657 1_545 S
N287 C288 1.334 . S
N287 C292 1.362 . S
C288 H280 0.929 1_455 S
C288 N287 1.334 . S
C288 C291 1.413 . S
C289 H283 0.930 . S
C289 C290 1.392 . S
C289 C291 1.367 . S
C290 C289 1.392 . S
C290 C292 1.420 . S
C290 C322 1.423 . S
C291 H277 0.930 1_455 S
C291 C288 1.413 . S
C291 C289 1.367 . S
C292 N287 1.362 . S
C292 C290 1.420 . S
C292 C296 1.429 . S
H293 C298 0.930 . S
N294 Eu256 2.609 . S
N294 C296 1.377 1_565 S
N294 C297 1.321 . S
C295 H281 0.930 . S
C295 C297 1.400 . S
C295 C298 1.386 1_565 S
C296 C292 1.429 . S
C296 N294 1.377 1_545 S
C296 C299 1.411 . S
C297 H279 0.930 . S
C297 N294 1.321 . S
C297 C295 1.400 . S
C298 H293 0.930 . S
C298 C295 1.386 1_545 S
C298 C299 1.395 . S
C299 C296 1.411 . S
C299 C298 1.395 . S
C299 C321 1.420 . S
O300 Eu256 2.558 . S
O300 C320 1.257 . S
O301 Eu256 2.612 1_655 S
O301 Eu267 2.380 1_565 S
O301 C312 1.276 . S
O302 Eu267 2.432 . S
O302 C319 1.264 . S
O303 Eu256 2.339 1_655 S
O303 C319 1.254 1_565 S
O304 Eu256 2.563 . S
O304 C312 1.235 1_455 S
O305 Eu256 2.419 . S
O305 C320 1.249 . S
O306 Eu267 2.558 . S
O306 C331 1.257 . S
O307 Eu256 2.380 1_545 S
O307 Eu267 2.612 1_455 S
O307 C323 1.276 . S
O308 Eu256 2.432 . S
O308 C330 1.264 1_565 S
O309 Eu267 2.339 1_455 S
O309 C330 1.254 . S
O310 Eu267 2.563 1_455 S
O310 C323 1.235 . S
O311 Eu267 2.419 . S
O311 C331 1.249 . S
C312 O301 1.276 . S
C312 O304 1.235 1_655 S
C313 C315 1.393 . S
C313 C317 1.395 . S
C313 C320 1.492 . S
C314 C315 1.392 . S
C314 C316 1.386 . S
C315 C313 1.393 . S
C315 C314 1.392 . S
C315 H332 0.928 . S
C316 C314 1.386 . S
C316 C318 1.395 . S
C316 H333 0.930 . S
C317 C313 1.395 . S
C317 C318 1.379 . S
C317 H334 0.930 . S
C318 C316 1.395 . S
C318 C317 1.379 . S
C318 H335 0.930 . S
C319 O302 1.264 . S
C319 O303 1.254 1_545 S
C320 Eu256 2.848 . S
C320 O300 1.257 . S
C320 O305 1.249 . S
C320 C313 1.492 . S
C321 H286 0.931 . S
C321 C299 1.420 . S
C321 C322 1.351 . S
C322 H284 0.930 . S
C322 C290 1.423 . S
C322 C321 1.351 . S
C323 O307 1.276 . S
C323 O310 1.235 . S
C324 C325 1.393 . S
C324 C328 1.395 . S
C324 C331 1.492 . S
C325 C324 1.393 . S
C325 C326 1.392 . S
C325 H336 0.930 1_655 S
C326 C325 1.392 . S
C326 C327 1.386 . S
C327 C326 1.386 . S
C327 C329 1.395 . S
C327 H337 0.930 . S
C328 C324 1.395 . S
C328 C329 1.379 . S
C328 H338 0.930 . S
C329 C327 1.395 . S
C329 C328 1.379 . S
C329 H339 0.930 . S
C330 O308 1.264 1_545 S
C330 O309 1.254 . S
C331 Eu267 2.848 . S
C331 O306 1.257 . S
C331 O311 1.249 . S
C331 C324 1.492 . S
H332 C315 0.928 . S
H333 C316 0.930 . S
H334 C317 0.930 . S
H335 C318 0.930 . S
H336 C325 0.930 1_455 S
H337 C327 0.930 . S
H338 C328 0.930 . S
H339 C329 0.930 . S
Eu340 N371 2.657 . S
Eu340 N378 2.609 . S
Eu340 O384 2.558 . S
Eu340 O385 2.612 1_545 S
Eu340 O387 2.339 1_545 S
Eu340 O388 2.563 . S
Eu340 O389 2.419 . S
Eu340 O391 2.380 . S
Eu340 O392 2.432 . S
Eu340 C404 2.848 . S
C341 C344 1.429 . S
C341 C345 1.411 . S
C341 N348 1.377 . S
C342 C344 1.420 . S
C342 C346 1.423 . S
C342 C354 1.392 . S
C343 C345 1.420 . S
C343 C346 1.351 . S
C343 H366 0.931 . S
C344 C341 1.429 . S
C344 C342 1.420 . S
C344 N352 1.362 . S
C345 C341 1.411 . S
C345 C343 1.420 . S
C345 C350 1.395 . S
C346 C342 1.423 . S
C346 C343 1.351 . S
C346 H358 0.930 . S
C347 C349 1.400 . S
C347 C350 1.386 . S
C347 H359 0.930 . S
N348 C341 1.377 . S
N348 C349 1.321 . S
N348 Eu351 2.609 . S
C349 C347 1.400 . S
C349 N348 1.321 . S
C349 H356 0.930 . S
C350 C345 1.395 . S
C350 C347 1.386 . S
C350 H369 0.930 . S
Eu351 N348 2.609 . S
Eu351 N352 2.657 . S
Eu351 O385 2.380 . S
Eu351 O386 2.432 . S
Eu351 O390 2.558 . S
Eu351 O391 2.612 1_565 S
Eu351 O393 2.339 1_565 S
Eu351 O394 2.563 1_565 S
Eu351 O395 2.419 . S
Eu351 C415 2.848 . S
N352 C344 1.362 . S
N352 Eu351 2.657 . S
N352 C353 1.334 1_565 S
C353 N352 1.334 1_545 S
C353 C355 1.413 . S
C353 H360 0.929 . S
C354 C342 1.392 . S
C354 C355 1.367 1_565 S
C354 H362 0.930 . S
C355 C353 1.413 . S
C355 C354 1.367 1_545 S
C355 H357 0.930 . S
H356 C349 0.930 . S
H357 C355 0.930 . S
H358 C346 0.930 . S
H359 C347 0.930 . S
H360 C353 0.929 . S
H361 C375 0.930 1_565 S
H362 C354 0.930 . S
H363 C381 0.930 . S
H364 C372 0.929 1_565 S
H365 C379 0.930 . S
H366 C343 0.931 . S
H367 C373 0.930 . S
H368 C406 0.930 . S
H369 C350 0.930 . S
H370 C405 0.931 . S
N371 Eu340 2.657 . S
N371 C372 1.334 . S
N371 C376 1.362 . S
C372 H364 0.929 1_545 S
C372 N371 1.334 . S
C372 C375 1.413 . S
C373 H367 0.930 . S
C373 C374 1.392 . S
C373 C375 1.367 . S
C374 C373 1.392 . S
C374 C376 1.420 . S
C374 C406 1.423 . S
C375 H361 0.930 1_545 S
C375 C372 1.413 . S
C375 C373 1.367 . S
C376 N371 1.362 . S
C376 C374 1.420 . S
C376 C380 1.429 . S
H377 C382 0.930 . S
N378 Eu340 2.609 . S
N378 C380 1.377 . S
N378 C381 1.321 . S
C379 H365 0.930 . S
C379 C381 1.400 . S
C379 C382 1.386 . S
C380 C376 1.429 . S
C380 N378 1.377 . S
C380 C383 1.411 . S
C381 H363 0.930 . S
C381 N378 1.321 . S
C381 C379 1.400 . S
C382 H377 0.930 . S
C382 C379 1.386 . S
C382 C383 1.395 . S
C383 C380 1.411 . S
C383 C382 1.395 . S
C383 C405 1.420 . S
O384 Eu340 2.558 . S
O384 C404 1.257 . S
O385 Eu340 2.612 1_565 S
O385 Eu351 2.380 . S
O385 C396 1.276 . S
O386 Eu351 2.432 . S
O386 C403 1.264 . S
O387 Eu340 2.339 1_565 S
O387 C403 1.254 . S
O388 Eu340 2.563 . S
O388 C396 1.235 1_545 S
O389 Eu340 2.419 . S
O389 C404 1.249 . S
O390 Eu351 2.558 . S
O390 C415 1.257 . S
O391 Eu340 2.380 . S
O391 Eu351 2.612 1_545 S
O391 C407 1.276 . S
O392 Eu340 2.432 . S
O392 C414 1.264 . S
O393 Eu351 2.339 1_545 S
O393 C414 1.254 . S
O394 Eu351 2.563 1_545 S
O394 C407 1.235 . S
O395 Eu351 2.419 . S
O395 C415 1.249 . S
C396 O385 1.276 . S
C396 O388 1.235 1_565 S
C397 C399 1.393 . S
C397 C401 1.395 . S
C397 C404 1.492 . S
C398 C399 1.392 . S
C398 C400 1.386 . S
C399 C397 1.393 . S
C399 C398 1.392 . S
C399 H416 0.930 . S
C400 C398 1.386 . S
C400 C402 1.395 . S
C400 H417 0.930 . S
C401 C397 1.395 . S
C401 C402 1.379 . S
C401 H418 0.930 . S
C402 C400 1.395 . S
C402 C401 1.379 . S
C402 H419 0.930 . S
C403 O386 1.264 . S
C403 O387 1.254 . S
C404 Eu340 2.848 . S
C404 O384 1.257 . S
C404 O389 1.249 . S
C404 C397 1.492 . S
C405 H370 0.931 . S
C405 C383 1.420 . S
C405 C406 1.351 . S
C406 H368 0.930 . S
C406 C374 1.423 . S
C406 C405 1.351 . S
C407 O391 1.276 . S
C407 O394 1.235 . S
C408 C409 1.393 . S
C408 C412 1.395 . S
C408 C415 1.492 . S
C409 C408 1.393 . S
C409 C410 1.392 . S
C409 H420 0.930 1_565 S
C410 C409 1.392 . S
C410 C411 1.386 . S
C411 C410 1.386 . S
C411 C413 1.395 . S
C411 H421 0.930 . S
C412 C408 1.395 . S
C412 C413 1.379 . S
C412 H422 0.930 . S
C413 C411 1.395 . S
C413 C412 1.379 . S
C413 H423 0.930 . S
C414 O392 1.264 . S
C414 O393 1.254 . S
C415 Eu351 2.848 . S
C415 O390 1.257 . S
C415 O395 1.249 . S
C415 C408 1.492 . S
H416 C399 0.930 . S
H417 C400 0.930 . S
H418 C401 0.930 . S
H419 C402 0.930 . S
H420 C409 0.930 1_545 S
H421 C411 0.930 . S
H422 C412 0.930 . S
H423 C413 0.930 . S
Eu424 N455 2.657 . S
Eu424 N462 2.609 . S
Eu424 O468 2.558 . S
Eu424 O469 2.612 . S
Eu424 O471 2.339 . S
Eu424 O472 2.563 . S
Eu424 O473 2.419 . S
Eu424 O475 2.380 . S
Eu424 O476 2.432 . S
Eu424 C488 2.848 . S
C425 C428 1.429 . S
C425 C429 1.411 . S
C425 N432 1.377 . S
C426 C428 1.420 . S
C426 C430 1.423 . S
C426 C438 1.392 . S
C427 C429 1.420 . S
C427 C430 1.351 . S
C427 H450 0.931 . S
C428 C425 1.429 . S
C428 C426 1.420 . S
C428 N436 1.362 . S
C429 C425 1.411 . S
C429 C427 1.420 . S
C429 C434 1.395 . S
C430 C426 1.423 . S
C430 C427 1.351 . S
C430 H442 0.930 . S
C431 C433 1.400 . S
C431 C434 1.386 . S
C431 H443 0.930 . S
N432 C425 1.377 . S
N432 C433 1.321 . S
N432 Eu435 2.609 . S
C433 C431 1.400 . S
C433 N432 1.321 . S
C433 H440 0.930 . S
C434 C429 1.395 . S
C434 C431 1.386 . S
C434 H453 0.930 . S
Eu435 N432 2.609 . S
Eu435 N436 2.657 . S
Eu435 O469 2.380 . S
Eu435 O470 2.432 . S
Eu435 O474 2.558 . S
Eu435 O475 2.612 . S
Eu435 O477 2.339 . S
Eu435 O478 2.563 . S
Eu435 O479 2.419 . S
Eu435 C499 2.848 . S
N436 C428 1.362 . S
N436 Eu435 2.657 . S
N436 C437 1.334 . S
C437 N436 1.334 . S
C437 C439 1.413 . S
C437 H444 0.929 . S
C438 C426 1.392 . S
C438 C439 1.367 . S
C438 H446 0.930 . S
C439 C437 1.413 . S
C439 C438 1.367 . S
C439 H441 0.930 . S
H440 C433 0.930 . S
H441 C439 0.930 . S
H442 C430 0.930 . S
H443 C431 0.930 . S
H444 C437 0.929 . S
H445 C459 0.930 . S
H446 C438 0.930 . S
H447 C465 0.930 . S
H448 C456 0.929 . S
H449 C463 0.930 . S
H450 C427 0.931 . S
H451 C457 0.930 . S
H452 C490 0.930 . S
H453 C434 0.930 . S
H454 C489 0.931 . S
N455 Eu424 2.657 . S
N455 C456 1.334 . S
N455 C460 1.362 . S
C456 H448 0.929 . S
C456 N455 1.334 . S
C456 C459 1.413 . S
C457 H451 0.930 . S
C457 C458 1.392 . S
C457 C459 1.367 . S
C458 C457 1.392 . S
C458 C460 1.420 . S
C458 C490 1.423 . S
C459 H445 0.930 . S
C459 C456 1.413 . S
C459 C457 1.367 . S
C460 N455 1.362 . S
C460 C458 1.420 . S
C460 C464 1.429 . S
H461 C466 0.930 . S
N462 Eu424 2.609 . S
N462 C464 1.377 . S
N462 C465 1.321 . S
C463 H449 0.930 . S
C463 C465 1.400 . S
C463 C466 1.386 . S
C464 C460 1.429 . S
C464 N462 1.377 . S
C464 C467 1.411 . S
C465 H447 0.930 . S
C465 N462 1.321 . S
C465 C463 1.400 . S
C466 H461 0.930 . S
C466 C463 1.386 . S
C466 C467 1.395 . S
C467 C464 1.411 . S
C467 C466 1.395 . S
C467 C489 1.420 . S
O468 Eu424 2.558 . S
O468 C488 1.257 . S
O469 Eu424 2.612 . S
O469 Eu435 2.380 . S
O469 C480 1.276 . S
O470 Eu435 2.432 . S
O470 C487 1.264 . S
O471 Eu424 2.339 . S
O471 C487 1.254 . S
O472 Eu424 2.563 . S
O472 C480 1.235 . S
O473 Eu424 2.419 . S
O473 C488 1.249 . S
O474 Eu435 2.558 . S
O474 C499 1.257 . S
O475 Eu424 2.380 . S
O475 Eu435 2.612 . S
O475 C491 1.276 . S
O476 Eu424 2.432 . S
O476 C498 1.264 . S
O477 Eu435 2.339 . S
O477 C498 1.254 . S
O478 Eu435 2.563 . S
O478 C491 1.235 . S
O479 Eu435 2.419 . S
O479 C499 1.249 . S
C480 O469 1.276 . S
C480 O472 1.235 . S
C481 C483 1.393 . S
C481 C485 1.395 . S
C481 C488 1.492 . S
C482 C483 1.392 . S
C482 C484 1.386 . S
C483 C481 1.393 . S
C483 C482 1.392 . S
C483 H500 0.930 . S
C484 C482 1.386 . S
C484 C486 1.395 . S
C484 H501 0.930 . S
C485 C481 1.395 . S
C485 C486 1.379 . S
C485 H502 0.930 . S
C486 C484 1.395 . S
C486 C485 1.379 . S
C486 H503 0.930 . S
C487 O470 1.264 . S
C487 O471 1.254 . S
C488 Eu424 2.848 . S
C488 O468 1.257 . S
C488 O473 1.249 . S
C488 C481 1.492 . S
C489 H454 0.931 . S
C489 C467 1.420 . S
C489 C490 1.351 . S
C490 H452 0.930 . S
C490 C458 1.423 . S
C490 C489 1.351 . S
C491 O475 1.276 . S
C491 O478 1.235 . S
C492 C493 1.393 . S
C492 C496 1.395 . S
C492 C499 1.492 . S
C493 C492 1.393 . S
C493 C494 1.392 . S
C493 H504 0.930 . S
C494 C493 1.392 . S
C494 C495 1.386 . S
C495 C494 1.386 . S
C495 C497 1.395 . S
C495 H505 0.930 . S
C496 C492 1.395 . S
C496 C497 1.379 . S
C496 H506 0.930 . S
C497 C495 1.395 . S
C497 C496 1.379 . S
C497 H507 0.930 1_556 S
C498 O476 1.264 . S
C498 O477 1.254 . S
C499 Eu435 2.848 . S
C499 O474 1.257 . S
C499 O479 1.249 . S
C499 C492 1.492 . S
H500 C483 0.930 . S
H501 C484 0.930 . S
H502 C485 0.930 . S
H503 C486 0.930 . S
H504 C493 0.930 . S
H505 C495 0.930 . S
H506 C496 0.930 . S
H507 C497 0.930 1_554 S
Eu508 N539 2.657 . S
Eu508 N546 2.609 . S
Eu508 O552 2.558 . S
Eu508 O553 2.612 . S
Eu508 O555 2.339 . S
Eu508 O556 2.563 . S
Eu508 O557 2.419 . S
Eu508 O559 2.377 1_455 S
Eu508 O560 2.432 1_455 S
Eu508 C572 2.848 . S
C509 C512 1.429 . S
C509 C513 1.411 . S
C509 N516 1.377 . S
C510 C512 1.420 . S
C510 C514 1.423 . S
C510 C522 1.392 . S
C511 C513 1.420 . S
C511 C514 1.351 . S
C511 H534 0.931 . S
C512 C509 1.429 . S
C512 C510 1.420 . S
C512 N520 1.362 . S
C513 C509 1.411 . S
C513 C511 1.420 . S
C513 C518 1.395 . S
C514 C510 1.423 . S
C514 C511 1.351 . S
C514 H526 0.930 . S
C515 C517 1.400 . S
C515 C518 1.386 1_455 S
C515 H527 0.930 . S
N516 C509 1.377 . S
N516 C517 1.321 1_655 S
N516 Eu519 2.609 . S
C517 C515 1.400 . S
C517 N516 1.321 1_455 S
C517 H524 0.930 . S
C518 C513 1.395 . S
C518 C515 1.386 1_655 S
C518 H537 0.930 . S
Eu519 N516 2.609 . S
Eu519 N520 2.657 . S
Eu519 O553 2.380 1_655 S
Eu519 O554 2.432 1_655 S
Eu519 O558 2.558 . S
Eu519 O559 2.614 . S
Eu519 O561 2.339 . S
Eu519 O562 2.563 . S
Eu519 O563 2.419 . S
Eu519 C583 2.848 . S
N520 C512 1.362 . S
N520 Eu519 2.657 . S
N520 C521 1.334 . S
C521 N520 1.334 . S
C521 C523 1.413 . S
C521 H528 0.929 . S
C522 C510 1.392 . S
C522 C523 1.367 . S
C522 H530 0.930 . S
C523 C521 1.413 . S
C523 C522 1.367 . S
C523 H525 0.930 . S
H524 C517 0.930 . S
H525 C523 0.930 . S
H526 C514 0.930 . S
H527 C515 0.930 . S
H528 C521 0.929 . S
H529 C543 0.930 . S
H530 C522 0.930 . S
H531 C549 0.930 1_655 S
H532 C540 0.929 . S
H533 C547 0.930 . S
H534 C511 0.931 . S
H535 C541 0.930 . S
H536 C574 0.930 . S
H537 C518 0.930 . S
H538 C573 0.931 . S
N539 Eu508 2.657 . S
N539 C540 1.334 . S
N539 C544 1.362 . S
C540 H532 0.929 . S
C540 N539 1.334 . S
C540 C543 1.413 . S
C541 H535 0.930 . S
C541 C542 1.392 . S
C541 C543 1.367 . S
C542 C541 1.392 . S
C542 C544 1.420 . S
C542 C574 1.423 . S
C543 H529 0.930 . S
C543 C540 1.413 . S
C543 C541 1.367 . S
C544 N539 1.362 . S
C544 C542 1.420 . S
C544 C548 1.429 . S
H545 C550 0.930 . S
N546 Eu508 2.609 . S
N546 C548 1.377 . S
N546 C549 1.321 . S
C547 H533 0.930 . S
C547 C549 1.400 1_655 S
C547 C550 1.386 1_655 S
C548 C544 1.429 . S
C548 N546 1.377 . S
C548 C551 1.411 . S
C549 H531 0.930 1_455 S
C549 N546 1.321 . S
C549 C547 1.400 1_455 S
C550 H545 0.930 . S
C550 C547 1.386 1_455 S
C550 C551 1.395 . S
C551 C548 1.411 . S
C551 C550 1.395 . S
C551 C573 1.420 . S
O552 Eu508 2.558 . S
O552 C572 1.257 . S
O553 Eu508 2.612 . S
O553 Eu519 2.380 1_455 S
O553 C564 1.276 . S
O554 Eu519 2.432 1_455 S
O554 C571 1.264 . S
O555 Eu508 2.339 . S
O555 C571 1.254 . S
O556 Eu508 2.563 . S
O556 C564 1.235 . S
O557 Eu508 2.419 . S
O557 C572 1.249 . S
O558 Eu519 2.558 . S
O558 C583 1.257 . S
O559 Eu508 2.377 1_655 S
O559 Eu519 2.614 . S
O559 C575 1.278 . S
O560 Eu508 2.432 1_655 S
O560 C582 1.264 . S
O561 Eu519 2.339 . S
O561 C582 1.254 . S
O562 Eu519 2.563 . S
O562 C575 1.235 . S
O563 Eu519 2.419 . S
O563 C583 1.249 . S
C564 O553 1.276 . S
C564 O556 1.235 . S
C565 C567 1.393 . S
C565 C569 1.395 . S
C565 C572 1.492 . S
C566 C567 1.392 . S
C566 C568 1.386 . S
C567 C565 1.393 . S
C567 C566 1.392 . S
C567 H584 0.930 . S
C568 C566 1.386 . S
C568 C570 1.395 . S
C568 H585 0.930 . S
C569 C565 1.395 . S
C569 C570 1.379 . S
C569 H586 0.930 . S
C570 C568 1.395 . S
C570 C569 1.379 . S
C570 H587 0.930 . S
C571 O554 1.264 . S
C571 O555 1.254 . S
C572 Eu508 2.848 . S
C572 O552 1.257 . S
C572 O557 1.249 . S
C572 C565 1.492 . S
C573 H538 0.931 . S
C573 C551 1.420 . S
C573 C574 1.351 . S
C574 H536 0.930 . S
C574 C542 1.423 . S
C574 C573 1.351 . S
C575 O559 1.278 . S
C575 O562 1.235 . S
C576 C577 1.393 . S
C576 C580 1.395 . S
C576 C583 1.492 . S
C577 C576 1.393 . S
C577 C578 1.392 . S
C577 H588 0.930 . S
C578 C577 1.392 . S
C578 C579 1.386 . S
C579 C578 1.386 . S
C579 C581 1.395 . S
C579 H589 0.930 . S
C580 C576 1.395 . S
C580 C581 1.379 . S
C580 H590 0.930 . S
C581 C579 1.395 . S
C581 C580 1.379 . S
C581 H591 0.930 1_556 S
C582 O560 1.264 . S
C582 O561 1.254 . S
C583 Eu519 2.848 . S
C583 O558 1.257 . S
C583 O563 1.249 . S
C583 C576 1.492 . S
H584 C567 0.930 . S
H585 C568 0.930 . S
H586 C569 0.930 . S
H587 C570 0.930 . S
H588 C577 0.930 . S
H589 C579 0.930 . S
H590 C580 0.930 . S
H591 C581 0.930 1_554 S
H592 C600 0.950 . S
H593 C605 0.950 . S
H594 C602 0.950 . S
H595 C604 0.950 . S
H596 C606 0.950 . S
H597 C608 0.950 . S
H598 C610 0.950 . S
H599 C611 0.950 1_565 S
C600 H592 0.950 . S
C600 C601 1.386 . S
C600 C602 1.391 . S
C601 C600 1.386 . S
C601 C605 1.393 . S
C602 H594 0.950 . S
C602 C600 1.391 . S
C602 C603 1.400 . S
C603 C602 1.400 . S
C603 C604 1.398 . S
C603 C609 1.491 . S
C604 H595 0.950 . S
C604 C603 1.398 . S
C604 C605 1.391 . S
C605 H593 0.950 . S
C605 C601 1.393 . S
C605 C604 1.391 . S
C606 H596 0.950 . S
C606 C607 1.386 . S
C606 C608 1.391 . S
C607 C606 1.386 . S
C607 C611 1.393 . S
C608 H597 0.950 . S
C608 C606 1.391 . S
C608 C609 1.400 . S
C609 C603 1.491 . S
C609 C608 1.400 . S
C609 C610 1.398 . S
C610 H598 0.950 . S
C610 C609 1.398 . S
C610 C611 1.391 . S
C611 H599 0.950 1_545 S
C611 C607 1.393 . S
C611 C610 1.391 . S
H612 C620 0.950 . S
H613 C625 0.950 . S
H614 C622 0.950 . S
H615 C624 0.950 . S
H616 C626 0.950 . S
H617 C628 0.950 . S
H618 C630 0.950 . S
H619 C631 0.950 . S
C620 H612 0.950 . S
C620 C621 1.386 . S
C620 C622 1.391 . S
C621 C620 1.386 . S
C621 C625 1.393 . S
C622 H614 0.950 . S
C622 C620 1.391 . S
C622 C623 1.400 . S
C623 C622 1.400 . S
C623 C624 1.398 . S
C623 C629 1.491 . S
C624 H615 0.950 . S
C624 C623 1.398 . S
C624 C625 1.391 . S
C625 H613 0.950 . S
C625 C621 1.393 . S
C625 C624 1.391 . S
C626 H616 0.950 . S
C626 C627 1.386 . S
C626 C628 1.391 . S
C627 C626 1.386 . S
C627 C631 1.393 . S
C628 H617 0.950 . S
C628 C626 1.391 . S
C628 C629 1.400 . S
C629 C623 1.491 . S
C629 C628 1.400 . S
C629 C630 1.398 . S
C630 H618 0.950 . S
C630 C629 1.398 . S
C630 C631 1.391 . S
C631 H619 0.950 . S
C631 C627 1.393 . S
C631 C630 1.391 . S
H632 C640 0.950 . S
H633 C645 0.950 . S
H634 C642 0.950 . S
H635 C644 0.950 . S
H636 C646 0.950 . S
H637 C648 0.950 . S
H638 C650 0.950 . S
H639 C651 0.950 . S
C640 H632 0.950 . S
C640 C641 1.386 . S
C640 C642 1.391 . S
C641 C640 1.386 . S
C641 C645 1.393 . S
C642 H634 0.950 . S
C642 C640 1.391 . S
C642 C643 1.400 . S
C643 C642 1.400 . S
C643 C644 1.398 . S
C643 C649 1.491 . S
C644 H635 0.950 . S
C644 C643 1.398 . S
C644 C645 1.391 . S
C645 H633 0.950 . S
C645 C641 1.393 . S
C645 C644 1.391 . S
C646 H636 0.950 . S
C646 C647 1.386 . S
C646 C648 1.391 . S
C647 C646 1.386 . S
C647 C651 1.393 . S
C648 H637 0.950 . S
C648 C646 1.391 . S
C648 C649 1.400 . S
C649 C643 1.491 . S
C649 C648 1.400 . S
C649 C650 1.398 . S
C650 H638 0.950 . S
C650 C649 1.398 . S
C650 C651 1.391 . S
C651 H639 0.950 . S
C651 C647 1.393 . S
C651 C650 1.391 . S
H652 C660 0.950 . S
H653 C665 0.950 . S
H654 C662 0.950 . S
H655 C664 0.950 . S
H656 C666 0.950 . S
H657 C668 0.950 . S
H658 C670 0.950 . S
H659 C671 0.950 . S
C660 H652 0.950 . S
C660 C661 1.386 . S
C660 C662 1.391 . S
C661 C660 1.386 . S
C661 C665 1.393 . S
C662 H654 0.950 . S
C662 C660 1.391 . S
C662 C663 1.400 . S
C663 C662 1.400 . S
C663 C664 1.398 . S
C663 C669 1.491 . S
C664 H655 0.950 . S
C664 C663 1.398 . S
C664 C665 1.391 . S
C665 H653 0.950 . S
C665 C661 1.393 . S
C665 C664 1.391 . S
C666 H656 0.950 . S
C666 C667 1.386 . S
C666 C668 1.391 . S
C667 C666 1.386 . S
C667 C671 1.393 . S
C668 H657 0.950 . S
C668 C666 1.391 . S
C668 C669 1.400 . S
C669 C663 1.491 . S
C669 C668 1.400 . S
C669 C670 1.398 . S
C670 H658 0.950 . S
C670 C669 1.398 . S
C670 C671 1.391 . S
C671 H659 0.950 . S
C671 C667 1.393 . S
C671 C670 1.391 . S
H672 C680 0.950 . S
H673 C685 0.950 . S
H674 C682 0.950 . S
H675 C684 0.929 1_545 S
H676 C686 0.950 . S
H677 C688 0.950 1_545 S
H678 C690 0.950 . S
H679 C691 0.950 . S
C680 H672 0.950 . S
C680 C681 1.386 . S
C680 C682 1.391 1_554 S
C681 C680 1.386 . S
C681 C685 1.393 . S
C682 H674 0.950 . S
C682 C680 1.391 1_556 S
C682 C683 1.400 . S
C683 C682 1.400 . S
C683 C684 1.398 1_556 S
C683 C689 1.491 . S
C684 H675 0.929 1_565 S
C684 C683 1.398 1_554 S
C684 C685 1.391 . S
C685 H673 0.950 . S
C685 C681 1.393 . S
C685 C684 1.391 . S
C686 H676 0.950 . S
C686 C687 1.386 1_545 S
C686 C688 1.391 1_545 S
C687 C686 1.386 1_565 S
C687 C691 1.393 . S
C688 H677 0.950 1_565 S
C688 C686 1.391 1_565 S
C688 C689 1.400 . S
C689 C683 1.491 . S
C689 C688 1.400 . S
C689 C690 1.398 . S
C690 H678 0.950 . S
C690 C689 1.398 . S
C690 C691 1.391 . S
C691 H679 0.950 . S
C691 C687 1.393 . S
C691 C690 1.391 . S
H692 C700 0.950 . S
H693 C705 0.950 . S
H694 C702 0.950 . S
H695 C704 0.950 . S
H696 C706 0.950 . S
H697 C708 0.950 . S
H698 C710 0.950 . S
H699 C711 0.950 . S
C700 H692 0.950 . S
C700 C701 1.386 . S
C700 C702 1.391 1_554 S
C701 C700 1.386 . S
C701 C705 1.393 . S
C702 H694 0.950 . S
C702 C700 1.391 1_556 S
C702 C703 1.400 . S
C703 C702 1.400 . S
C703 C704 1.398 1_556 S
C703 C709 1.491 . S
C704 H695 0.950 . S
C704 C703 1.398 1_554 S
C704 C705 1.391 . S
C705 H693 0.950 . S
C705 C701 1.393 . S
C705 C704 1.391 . S
C706 H696 0.950 . S
C706 C707 1.386 . S
C706 C708 1.391 . S
C707 C706 1.386 . S
C707 C711 1.393 . S
C708 H697 0.950 . S
C708 C706 1.391 . S
C708 C709 1.400 . S
C709 C703 1.491 . S
C709 C708 1.400 . S
C709 C710 1.398 . S
C710 H698 0.950 . S
C710 C709 1.398 . S
C710 C711 1.391 . S
C711 H699 0.950 . S
C711 C707 1.393 . S
C711 C710 1.391 . S
H712 C720 0.950 . S
H713 C725 0.950 . S
H714 C722 0.950 . S
H715 C724 0.950 . S
H716 C726 0.950 . S
H717 C728 0.950 . S
H718 C730 0.950 . S
H719 C731 0.950 . S
C720 H712 0.950 . S
C720 C721 1.386 . S
C720 C722 1.391 . S
C721 C720 1.386 . S
C721 C725 1.393 . S
C722 H714 0.950 . S
C722 C720 1.391 . S
C722 C723 1.400 1_554 S
C723 C722 1.400 1_556 S
C723 C724 1.398 . S
C723 C729 1.491 . S
C724 H715 0.950 . S
C724 C723 1.398 . S
C724 C725 1.391 1_556 S
C725 H713 0.950 . S
C725 C721 1.393 . S
C725 C724 1.391 1_554 S
C726 H716 0.950 . S
C726 C727 1.386 . S
C726 C728 1.391 . S
C727 C726 1.386 . S
C727 C731 1.393 . S
C728 H717 0.950 . S
C728 C726 1.391 . S
C728 C729 1.400 . S
C729 C723 1.491 . S
C729 C728 1.400 . S
C729 C730 1.398 . S
C730 H718 0.950 . S
C730 C729 1.398 . S
C730 C731 1.391 . S
C731 H719 0.950 . S
C731 C727 1.393 . S
C731 C730 1.391 . S
H732 C740 0.950 . S
H733 C745 0.950 . S
H734 C742 0.943 1_556 S
H735 C744 0.950 1_556 S
H736 C746 0.950 . S
H737 C748 0.950 . S
H738 C750 0.950 . S
H739 C751 0.950 1_455 S
C740 H732 0.950 . S
C740 C741 1.386 . S
C740 C742 1.404 . S
C741 C740 1.386 . S
C741 C745 1.393 . S
C742 H734 0.943 1_554 S
C742 C740 1.404 . S
C742 C743 1.394 1_554 S
C743 C742 1.394 1_556 S
C743 C744 1.398 1_556 S
C743 C749 1.491 . S
C744 H735 0.950 1_554 S
C744 C743 1.398 1_554 S
C744 C745 1.391 . S
C745 H733 0.950 . S
C745 C741 1.393 . S
C745 C744 1.391 . S
C746 H736 0.950 . S
C746 C747 1.386 . S
C746 C748 1.391 . S
C747 C746 1.386 . S
C747 C751 1.393 . S
C748 H737 0.950 . S
C748 C746 1.391 . S
C748 C749 1.400 . S
C749 C743 1.491 . S
C749 C748 1.400 . S
C749 C750 1.398 . S
C750 H738 0.950 . S
C750 C749 1.398 . S
C750 C751 1.391 . S
C751 H739 0.950 1_655 S
C751 C747 1.393 . S
C751 C750 1.391 . S
H752 C760 0.950 . S
H753 C765 0.950 . S
H754 C762 0.950 . S
H755 C764 0.950 . S
H756 C766 0.950 . S
H757 C768 0.950 . S
H758 C770 0.950 . S
H759 C771 0.950 . S
C760 H752 0.950 . S
C760 C761 1.386 . S
C760 C762 1.391 . S
C761 C760 1.386 . S
C761 C765 1.393 . S
C762 H754 0.950 . S
C762 C760 1.391 . S
C762 C763 1.400 . S
C763 C762 1.400 . S
C763 C764 1.398 . S
C763 C769 1.491 . S
C764 H755 0.950 . S
C764 C763 1.398 . S
C764 C765 1.391 . S
C765 H753 0.950 . S
C765 C761 1.393 . S
C765 C764 1.391 . S
C766 H756 0.950 . S
C766 C767 1.377 1_655 S
C766 C768 1.391 1_655 S
C767 C766 1.377 1_455 S
C767 C771 1.424 . S
C768 H757 0.950 . S
C768 C766 1.391 1_455 S
C768 C769 1.400 . S
C769 C763 1.491 . S
C769 C768 1.400 . S
C769 C770 1.398 . S
C770 H758 0.950 . S
C770 C769 1.398 . S
C770 C771 1.391 . S
C771 H759 0.950 . S
C771 C767 1.424 . S
C771 C770 1.391 . S
H772 C780 0.950 . S
H773 C785 0.950 . S
H774 C782 0.950 . S
H775 C784 0.950 . S
H776 C786 0.950 . S
H777 C788 0.950 1_565 S
H778 C790 0.950 . S
H779 C791 0.950 . S
C780 H772 0.950 . S
C780 C781 1.386 . S
C780 C782 1.391 . S
C781 C780 1.386 . S
C781 C785 1.393 . S
C782 H774 0.950 . S
C782 C780 1.391 . S
C782 C783 1.400 . S
C783 C782 1.400 . S
C783 C784 1.398 . S
C783 C789 1.491 . S
C784 H775 0.950 . S
C784 C783 1.398 . S
C784 C785 1.391 . S
C785 H773 0.950 . S
C785 C781 1.393 . S
C785 C784 1.391 . S
C786 H776 0.950 . S
C786 C787 1.383 1_565 S
C786 C788 1.391 1_565 S
C787 C786 1.383 1_545 S
C787 C791 1.398 . S
C788 H777 0.950 1_545 S
C788 C786 1.391 1_545 S
C788 C789 1.400 . S
C789 C783 1.491 . S
C789 C788 1.400 . S
C789 C790 1.398 . S
C790 H778 0.950 . S
C790 C789 1.398 . S
C790 C791 1.391 . S
C791 H779 0.950 . S
C791 C787 1.398 . S
C791 C790 1.391 . S
H792 C800 0.950 . S
H793 C805 0.950 . S
H794 C802 0.950 . S
H795 C804 0.950 . S
H796 C806 0.950 . S
H797 C808 0.950 . S
H798 C810 0.950 . S
H799 C811 0.950 . S
C800 H792 0.950 . S
C800 C801 1.386 . S
C800 C802 1.391 . S
C801 C800 1.386 . S
C801 C805 1.393 . S
C802 H794 0.950 . S
C802 C800 1.391 . S
C802 C803 1.400 . S
C803 C802 1.400 . S
C803 C804 1.398 . S
C803 C809 1.491 . S
C804 H795 0.950 . S
C804 C803 1.398 . S
C804 C805 1.391 . S
C805 H793 0.950 . S
C805 C801 1.393 . S
C805 C804 1.391 . S
C806 H796 0.950 . S
C806 C807 1.386 . S
C806 C808 1.391 . S
C807 C806 1.386 . S
C807 C811 1.393 . S
C808 H797 0.950 . S
C808 C806 1.391 . S
C808 C809 1.400 . S
C809 C803 1.491 . S
C809 C808 1.400 . S
C809 C810 1.398 . S
C810 H798 0.950 . S
C810 C809 1.398 . S
C810 C811 1.391 . S
C811 H799 0.950 . S
C811 C807 1.393 . S
C811 C810 1.391 . S
H812 C820 0.950 . S
H813 C825 0.950 . S
H814 C822 0.950 . S
H815 C824 0.950 . S
H816 C826 0.950 . S
H817 C828 0.950 . S
H818 C830 0.950 . S
H819 C831 0.950 . S
C820 H812 0.950 . S
C820 C821 1.386 . S
C820 C822 1.391 . S
C821 C820 1.386 . S
C821 C825 1.393 . S
C822 H814 0.950 . S
C822 C820 1.391 . S
C822 C823 1.400 . S
C823 C822 1.400 . S
C823 C824 1.398 . S
C823 C829 1.491 . S
C824 H815 0.950 . S
C824 C823 1.398 . S
C824 C825 1.391 . S
C825 H813 0.950 . S
C825 C821 1.393 . S
C825 C824 1.391 . S
C826 H816 0.950 . S
C826 C827 1.386 . S
C826 C828 1.391 . S
C827 C826 1.386 . S
C827 C831 1.393 . S
C828 H817 0.950 . S
C828 C826 1.391 . S
C828 C829 1.400 . S
C829 C823 1.491 . S
C829 C828 1.400 . S
C829 C830 1.398 . S
C830 H818 0.950 . S
C830 C829 1.398 . S
C830 C831 1.391 . S
C831 H819 0.950 . S
C831 C827 1.393 . S
C831 C830 1.391 . S
H832 C840 0.950 . S
H833 C845 0.946 1_556 S
H834 C842 0.950 . S
H835 C844 0.950 . S
H836 C846 0.950 . S
H837 C848 0.950 . S
H838 C850 0.950 . S
H839 C851 0.950 . S
C840 H832 0.950 . S
C840 C841 1.386 . S
C840 C842 1.391 . S
C841 C840 1.386 . S
C841 C845 1.403 . S
C842 H834 0.950 . S
C842 C840 1.391 . S
C842 C843 1.400 1_554 S
C843 C842 1.400 1_556 S
C843 C844 1.398 . S
C843 C849 1.491 . S
C844 H835 0.950 . S
C844 C843 1.398 . S
C844 C845 1.384 1_556 S
C845 H833 0.946 1_554 S
C845 C841 1.403 . S
C845 C844 1.384 1_554 S
C846 H836 0.950 . S
C846 C847 1.386 . S
C846 C848 1.391 1_455 S
C847 C846 1.386 . S
C847 C851 1.393 1_455 S
C848 H837 0.950 . S
C848 C846 1.391 1_655 S
C848 C849 1.400 . S
C849 C843 1.491 . S
C849 C848 1.400 . S
C849 C850 1.398 . S
C850 H838 0.950 . S
C850 C849 1.398 . S
C850 C851 1.391 . S
C851 H839 0.950 . S
C851 C847 1.393 1_655 S
C851 C850 1.391 . S
H852 C860 0.950 . S
H853 C865 0.950 . S
H854 C862 0.950 . S
H855 C864 0.950 . S
H856 C866 0.950 . S
H857 C868 0.950 . S
H858 C870 0.950 1_554 S
H859 C871 0.950 . S
C860 H852 0.950 . S
C860 C861 1.386 . S
C860 C862 1.391 . S
C861 C860 1.386 . S
C861 C865 1.393 1_554 S
C862 H854 0.950 . S
C862 C860 1.391 . S
C862 C863 1.400 1_554 S
C863 C862 1.400 1_556 S
C863 C864 1.398 . S
C863 C869 1.491 . S
C864 H855 0.950 . S
C864 C863 1.398 . S
C864 C865 1.391 . S
C865 H853 0.950 . S
C865 C861 1.393 1_556 S
C865 C864 1.391 . S
C866 H856 0.950 . S
C866 C867 1.386 . S
C866 C868 1.391 1_545 S
C867 C866 1.386 . S
C867 C871 1.393 . S
C868 H857 0.950 . S
C868 C866 1.391 1_565 S
C868 C869 1.400 . S
C869 C863 1.491 . S
C869 C868 1.400 . S
C869 C870 1.398 . S
C870 H858 0.950 1_556 S
C870 C869 1.398 . S
C870 C871 1.391 1_565 S
C871 H859 0.950 . S
C871 C867 1.393 . S
C871 C870 1.391 1_545 S
H872 C880 0.950 . S
H873 C885 0.950 1_556 S
H874 C882 0.950 . S
H875 C884 0.950 . S
H876 C886 0.950 . S
H877 C888 0.950 . S
H878 C890 0.950 . S
H879 C891 0.950 . S
C880 H872 0.950 . S
C880 C881 1.386 . S
C880 C882 1.391 . S
C881 C880 1.386 . S
C881 C885 1.393 . S
C882 H874 0.950 . S
C882 C880 1.391 . S
C882 C883 1.400 1_554 S
C883 C882 1.400 1_556 S
C883 C884 1.398 . S
C883 C889 1.491 . S
C884 H875 0.950 . S
C884 C883 1.398 . S
C884 C885 1.391 1_556 S
C885 H873 0.950 1_554 S
C885 C881 1.393 . S
C885 C884 1.391 1_554 S
C886 H876 0.950 . S
C886 C887 1.386 . S
C886 C888 1.391 . S
C887 C886 1.386 . S
C887 C891 1.393 . S
C888 H877 0.950 . S
C888 C886 1.391 . S
C888 C889 1.400 . S
C889 C883 1.491 . S
C889 C888 1.400 . S
C889 C890 1.398 . S
C890 H878 0.950 . S
C890 C889 1.398 . S
C890 C891 1.391 . S
C891 H879 0.950 . S
C891 C887 1.393 . S
C891 C890 1.391 . S
H892 C900 0.950 . S
H893 C905 0.950 . S
H894 C902 0.950 . S
H895 C904 0.950 . S
H896 C906 0.950 . S
H897 C908 0.950 . S
H898 C910 0.950 1_554 S
H899 C911 0.950 . S
C900 H892 0.950 . S
C900 C901 1.386 . S
C900 C902 1.391 . S
C901 C900 1.386 . S
C901 C905 1.393 1_554 S
C902 H894 0.950 . S
C902 C900 1.391 . S
C902 C903 1.400 1_554 S
C903 C902 1.400 1_556 S
C903 C904 1.398 . S
C903 C909 1.491 . S
C904 H895 0.950 . S
C904 C903 1.398 . S
C904 C905 1.391 . S
C905 H893 0.950 . S
C905 C901 1.393 1_556 S
C905 C904 1.391 . S
C906 H896 0.950 . S
C906 C907 1.386 . S
C906 C908 1.391 . S
C907 C906 1.386 . S
C907 C911 1.393 . S
C908 H897 0.950 . S
C908 C906 1.391 . S
C908 C909 1.400 . S
C909 C903 1.491 . S
C909 C908 1.400 . S
C909 C910 1.398 . S
C910 H898 0.950 1_556 S
C910 C909 1.398 . S
C910 C911 1.391 . S
C911 H899 0.950 . S
C911 C907 1.393 . S
C911 C910 1.391 . S
H912 C920 0.950 . S
H913 C925 0.950 . S
H914 C922 0.950 . S
H915 C924 0.950 . S
H916 C926 0.950 . S
H917 C928 0.950 . S
H918 C930 0.950 . S
H919 C931 0.950 1_655 S
C920 H912 0.950 . S
C920 C921 1.386 . S
C920 C922 1.391 . S
C921 C920 1.386 . S
C921 C925 1.393 . S
C922 H914 0.950 . S
C922 C920 1.391 . S
C922 C923 1.400 . S
C923 C922 1.400 . S
C923 C924 1.398 . S
C923 C929 1.491 . S
C924 H915 0.950 . S
C924 C923 1.398 . S
C924 C925 1.391 . S
C925 H913 0.950 . S
C925 C921 1.393 . S
C925 C924 1.391 . S
C926 H916 0.950 . S
C926 C927 1.386 . S
C926 C928 1.391 . S
C927 C926 1.386 . S
C927 C931 1.393 . S
C928 H917 0.950 . S
C928 C926 1.391 . S
C928 C929 1.400 . S
C929 C923 1.491 . S
C929 C928 1.400 . S
C929 C930 1.398 . S
C930 H918 0.950 . S
C930 C929 1.398 . S
C930 C931 1.391 . S
C931 H919 0.950 1_455 S
C931 C927 1.393 . S
C931 C930 1.391 . S
H932 C940 0.950 . S
H933 C945 0.950 . S
H934 C942 0.950 . S
H935 C944 0.950 . S
H936 C946 0.950 1_565 S
H937 C948 0.950 . S
H938 C950 0.950 . S
H939 C951 0.950 . S
C940 H932 0.950 . S
C940 C941 1.386 . S
C940 C942 1.391 . S
C941 C940 1.386 . S
C941 C945 1.393 . S
C942 H934 0.950 . S
C942 C940 1.391 . S
C942 C943 1.400 . S
C943 C942 1.400 . S
C943 C944 1.398 . S
C943 C949 1.491 . S
C944 H935 0.950 . S
C944 C943 1.398 . S
C944 C945 1.391 . S
C945 H933 0.950 . S
C945 C941 1.393 . S
C945 C944 1.391 . S
C946 H936 0.950 1_545 S
C946 C947 1.386 . S
C946 C948 1.391 . S
C947 C946 1.386 . S
C947 C951 1.393 . S
C948 H937 0.950 . S
C948 C946 1.391 . S
C948 C949 1.400 . S
C949 C943 1.491 . S
C949 C948 1.400 . S
C949 C950 1.398 . S
C950 H938 0.950 . S
C950 C949 1.398 . S
C950 C951 1.391 . S
C951 H939 0.950 . S
C951 C947 1.393 . S
C951 C950 1.391 . S
H952 C960 0.950 . S
H953 C965 0.950 . S
H954 C962 0.950 . S
H955 C964 0.950 . S
H956 C966 0.950 . S
H957 C968 0.950 . S
H958 C970 0.950 . S
H959 C971 0.950 . S
C960 H952 0.950 . S
C960 C961 1.386 . S
C960 C962 1.391 . S
C961 C960 1.386 . S
C961 C965 1.393 . S
C962 H954 0.950 . S
C962 C960 1.391 . S
C962 C963 1.400 . S
C963 C962 1.400 . S
C963 C964 1.398 . S
C963 C969 1.491 . S
C964 H955 0.950 . S
C964 C963 1.398 . S
C964 C965 1.391 . S
C965 H953 0.950 . S
C965 C961 1.393 . S
C965 C964 1.391 . S
C966 H956 0.950 . S
C966 C967 1.386 . S
C966 C968 1.391 . S
C967 C966 1.386 . S
C967 C971 1.393 . S
C968 H957 0.950 . S
C968 C966 1.391 . S
C968 C969 1.400 . S
C969 C963 1.491 . S
C969 C968 1.400 . S
C969 C970 1.398 . S
C970 H958 0.950 . S
C970 C969 1.398 . S
C970 C971 1.391 . S
C971 H959 0.950 . S
C971 C967 1.393 . S
C971 C970 1.391 . S
H972 C980 0.950 . S
H973 C985 0.950 . S
H974 C982 0.950 . S
H975 C984 0.950 . S
H976 C986 0.950 . S
H977 C988 0.950 . S
H978 C990 0.950 . S
H979 C991 0.950 . S
C980 H972 0.950 . S
C980 C981 1.386 . S
C980 C982 1.391 . S
C981 C980 1.386 . S
C981 C985 1.393 . S
C982 H974 0.950 . S
C982 C980 1.391 . S
C982 C983 1.400 . S
C983 C982 1.400 . S
C983 C984 1.398 . S
C983 C989 1.491 . S
C984 H975 0.950 . S
C984 C983 1.398 . S
C984 C985 1.391 . S
C985 H973 0.950 . S
C985 C981 1.393 . S
C985 C984 1.391 . S
C986 H976 0.950 . S
C986 C987 1.386 . S
C986 C988 1.391 . S
C987 C986 1.386 . S
C987 C991 1.393 . S
C988 H977 0.950 . S
C988 C986 1.391 . S
C988 C989 1.400 . S
C989 C983 1.491 . S
C989 C988 1.400 . S
C989 C990 1.398 . S
C990 H978 0.950 . S
C990 C989 1.398 . S
C990 C991 1.391 . S
C991 H979 0.950 . S
C991 C987 1.393 . S
C991 C990 1.391 . S
H992 C1000 0.950 . S
H993 C1005 0.950 . S
H994 C1002 0.950 . S
H995 C1004 0.950 . S
H996 C1006 0.950 . S
H997 C1008 0.950 . S
H998 C1010 0.950 . S
H999 C1011 0.950 . S
C1000 H992 0.950 . S
C1000 C1001 1.386 . S
C1000 C1002 1.391 . S
C1001 C1000 1.386 . S
C1001 C1005 1.393 . S
C1002 H994 0.950 . S
C1002 C1000 1.391 . S
C1002 C1003 1.400 . S
C1003 C1002 1.400 . S
C1003 C1004 1.398 . S
C1003 C1009 1.491 . S
C1004 H995 0.950 . S
C1004 C1003 1.398 . S
C1004 C1005 1.391 . S
C1005 H993 0.950 . S
C1005 C1001 1.393 . S
C1005 C1004 1.391 . S
C1006 H996 0.950 . S
C1006 C1007 1.386 . S
C1006 C1008 1.391 . S
C1007 C1006 1.386 . S
C1007 C1011 1.393 . S
C1008 H997 0.950 . S
C1008 C1006 1.391 . S
C1008 C1009 1.400 . S
C1009 C1003 1.491 . S
C1009 C1008 1.400 . S
C1009 C1010 1.398 . S
C1010 H998 0.950 . S
C1010 C1009 1.398 . S
C1010 C1011 1.391 . S
C1011 H999 0.950 . S
C1011 C1007 1.393 . S
C1011 C1010 1.391 . S
H1012 C1020 0.950 . S
H1013 C1025 0.950 . S
H1014 C1022 0.950 . S
H1015 C1024 0.950 . S
H1016 C1026 0.950 1_545 S
H1017 C1028 0.950 . S
H1018 C1030 0.950 . S
H1019 C1031 0.950 . S
C1020 H1012 0.950 . S
C1020 C1021 1.386 . S
C1020 C1022 1.391 . S
C1021 C1020 1.386 . S
C1021 C1025 1.393 . S
C1022 H1014 0.950 . S
C1022 C1020 1.391 . S
C1022 C1023 1.400 . S
C1023 C1022 1.400 . S
C1023 C1024 1.398 . S
C1023 C1029 1.491 . S
C1024 H1015 0.950 . S
C1024 C1023 1.398 . S
C1024 C1025 1.391 . S
C1025 H1013 0.950 . S
C1025 C1021 1.393 . S
C1025 C1024 1.391 . S
C1026 H1016 0.950 1_565 S
C1026 C1027 1.386 . S
C1026 C1028 1.391 . S
C1027 C1026 1.386 . S
C1027 C1031 1.393 . S
C1028 H1017 0.950 . S
C1028 C1026 1.391 . S
C1028 C1029 1.400 . S
C1029 C1023 1.491 . S
C1029 C1028 1.400 . S
C1029 C1030 1.398 . S
C1030 H1018 0.950 . S
C1030 C1029 1.398 . S
C1030 C1031 1.391 . S
C1031 H1019 0.950 . S
C1031 C1027 1.393 . S
C1031 C1030 1.391 . S
H1032 C1040 0.950 . S
H1033 C1045 0.950 . S
H1034 C1042 0.950 . S
H1035 C1044 0.950 . S
H1036 C1046 0.950 . S
H1037 C1048 0.950 . S
H1038 C1050 0.950 . S
H1039 C1051 0.950 . S
C1040 H1032 0.950 . S
C1040 C1041 1.386 . S
C1040 C1042 1.391 . S
C1041 C1040 1.386 . S
C1041 C1045 1.393 . S
C1042 H1034 0.950 . S
C1042 C1040 1.391 . S
C1042 C1043 1.400 . S
C1043 C1042 1.400 . S
C1043 C1044 1.398 . S
C1043 C1049 1.491 . S
C1044 H1035 0.950 . S
C1044 C1043 1.398 . S
C1044 C1045 1.391 . S
C1045 H1033 0.950 . S
C1045 C1041 1.393 . S
C1045 C1044 1.391 . S
C1046 H1036 0.950 . S
C1046 C1047 1.386 . S
C1046 C1048 1.391 . S
C1047 C1046 1.386 . S
C1047 C1051 1.393 . S
C1048 H1037 0.950 . S
C1048 C1046 1.391 . S
C1048 C1049 1.400 . S
C1049 C1043 1.491 . S
C1049 C1048 1.400 . S
C1049 C1050 1.398 . S
C1050 H1038 0.950 . S
C1050 C1049 1.398 . S
C1050 C1051 1.391 . S
C1051 H1039 0.950 . S
C1051 C1047 1.393 . S
C1051 C1050 1.391 . S
H1052 C1060 0.950 . S
H1053 C1065 0.950 . S
H1054 C1062 0.950 . S
H1055 C1064 0.950 . S
H1056 C1066 0.950 . S
H1057 C1068 0.950 . S
H1058 C1070 0.950 . S
H1059 C1071 0.950 . S
C1060 H1052 0.950 . S
C1060 C1061 1.386 . S
C1060 C1062 1.391 . S
C1061 C1060 1.386 . S
C1061 C1065 1.393 . S
C1062 H1054 0.950 . S
C1062 C1060 1.391 . S
C1062 C1063 1.400 . S
C1063 C1062 1.400 . S
C1063 C1064 1.398 . S
C1063 C1069 1.491 . S
C1064 H1055 0.950 . S
C1064 C1063 1.398 . S
C1064 C1065 1.391 . S
C1065 H1053 0.950 . S
C1065 C1061 1.393 . S
C1065 C1064 1.391 . S
C1066 H1056 0.950 . S
C1066 C1067 1.386 . S
C1066 C1068 1.391 . S
C1067 C1066 1.386 . S
C1067 C1071 1.393 . S
C1068 H1057 0.950 . S
C1068 C1066 1.391 . S
C1068 C1069 1.400 . S
C1069 C1063 1.491 . S
C1069 C1068 1.400 . S
C1069 C1070 1.398 . S
C1070 H1058 0.950 . S
C1070 C1069 1.398 . S
C1070 C1071 1.391 . S
C1071 H1059 0.950 . S
C1071 C1067 1.393 . S
C1071 C1070 1.391 . S
C601 C215 2.122 . S
C607 C330 2.139 . S
C627 C414 2.181 . S
C621 C247 2.166 . S
C647 C480 2.115 . S
C641 C151 2.265 . S
C667 C564 2.078 . S
C661 C183 2.241 . S
C687 C319 2.142 1_565 S
C681 C87 2.014 . S
C701 C119 2.032 . S
C707 C403 2.178 . S
C721 C23 2.138 . S
C727 C491 2.096 . S
C741 C55 2.136 . S
C747 C575 2.103 . S
C767 C326 0.599 1_455 S
C761 C189 0.606 . S
C787 C410 0.575 1_545 S
C781 C221 0.557 . S
C807 C482 0.517 . S
C801 C253 0.526 . S
C821 C157 0.574 . S
C827 C566 0.558 . S
C841 C61 0.639 . S
C847 C314 0.639 . S
C867 C398 0.594 . S
C861 C93 0.614 . S
C887 C494 0.520 . S
C881 C125 0.659 . S
C901 C29 0.621 . S
C907 C578 0.605 . S
C921 C177 2.513 . S
C927 C323 2.564 . S
C941 C209 2.451 . S
C947 C407 2.515 . S
C967 C487 2.564 . S
C961 C241 2.357 . S
C987 C571 2.585 . S
C981 C145 2.388 . S
C1001 C49 2.412 . S
C1007 C312 2.569 . S
C1027 C396 2.524 . S
C1021 C81 2.394 . S
C1047 C498 2.559 . S
C1041 C113 2.254 . S
C1061 C17 2.278 . S
C1067 C582 2.592 . S
