# Generated by pormake.
# Topology tsx, (6,3)-cn, num edge types: 1
# Building blocks:
#     Node 0, Type 0, BuildingBlock: VOLQOD_clean_sbu_1, # of connection points: 6
#     Node 1, Type 0, BuildingBlock: VOLQOD_clean_sbu_1, # of connection points: 6
#     Node 2, Type 1, BuildingBlock: BETDAH_clean_linker_0, # of connection points: 3
#     Node 3, Type 1, BuildingBlock: BETDAH_clean_linker_0, # of connection points: 3
#     Node 4, Type 1, BuildingBlock: BETDAH_clean_linker_0, # of connection points: 3
#     Node 5, Type 1, BuildingBlock: BETDAH_clean_linker_0, # of connection points: 3
#     Edge 6, Type (0, 1), BuildingBlock: FUNLAD_clean_linker_0, # of connection points: 2
#     Edge 7, Type (0, 1), BuildingBlock: FUNLAD_clean_linker_0, # of connection points: 2
#     Edge 8, Type (0, 1), BuildingBlock: FUNLAD_clean_linker_0, # of connection points: 2
#     Edge 9, Type (0, 1), BuildingBlock: FUNLAD_clean_linker_0, # of connection points: 2
#     Edge 10, Type (0, 1), BuildingBlock: FUNLAD_clean_linker_0, # of connection points: 2
#     Edge 11, Type (0, 1), BuildingBlock: FUNLAD_clean_linker_0, # of connection points: 2
#     Edge 12, Type (0, 1), BuildingBlock: FUNLAD_clean_linker_0, # of connection points: 2
#     Edge 13, Type (0, 1), BuildingBlock: FUNLAD_clean_linker_0, # of connection points: 2
#     Edge 14, Type (0, 1), BuildingBlock: FUNLAD_clean_linker_0, # of connection points: 2
#     Edge 15, Type (0, 1), BuildingBlock: FUNLAD_clean_linker_0, # of connection points: 2
#     Edge 16, Type (0, 1), BuildingBlock: FUNLAD_clean_linker_0, # of connection points: 2
#     Edge 17, Type (0, 1), BuildingBlock: FUNLAD_clean_linker_0, # of connection points: 2
# Relax obj value: 0.053
# Max RMSD: 0.113
# Mean RMSD: 0.101
data_MOF--net-tsx--node1-VOLQOD_clean_sbu_1--node2-BETDAH_clean_linker_0--edge1-FUNLAD_clean_linker_0
_symmetry_space_group_name_H-M    P1
_symmetry_Int_Tables_number       1
_symmetry_cell_setting            triclinic
loop_
_symmetry_equiv_pos_as_xyz
'x, y, z'
_cell_length_a     24.514806
_cell_length_b     25.50894
_cell_length_c     43.472751
_cell_angle_alpha  90.587093
_cell_angle_beta   97.206972
_cell_angle_gamma 90.243642
loop_
_atom_site_label
_atom_site_type_symbol
_atom_site_fract_x
_atom_site_fract_y
_atom_site_fract_z
_atom_type_partial_charge
O0 O 0.03812 0.01314 0.0759 0.0
Zn1 Zn 0.05654 0.00725 0.03161 0.0
O2 O 0.99183 0.01859 0.00109 0.0
Zn3 Zn 0.97636 0.95588 0.97553 0.0
Zn4 Zn 0.92919 0.0333 0.02306 0.0
Zn5 Zn 0.0037 0.07754 0.97422 0.0
O6 O 0.97209 0.97178 0.9299 0.0
O7 O 0.00149 0.05418 0.92957 0.0
O8 O 0.09221 0.93739 0.02455 0.0
O9 O 0.03768 0.90455 0.98429 0.0
O10 O 0.90763 0.91929 0.98525 0.0
O11 O 0.87468 0.97396 0.01833 0.0
O12 O 0.89172 0.09946 0.00859 0.0
O13 O 0.11313 0.06275 0.02686 0.0
O14 O 0.94504 0.1324 0.97581 0.0
O15 O 0.07709 0.11164 0.9875 0.0
C16 C 0.99533 0.03025 0.08658 0.0
C17 C 0.98621 0.01171 0.9153 0.0
C18 C 0.87173 0.93113 0.00293 0.0
C19 C 0.0802 0.90144 0.00422 0.0
C20 C 0.90309 0.13539 0.99031 0.0
C21 C 0.11615 0.10125 0.0087 0.0
O22 O 0.95214 0.04172 0.06861 0.0
O23 O 0.54654 0.49786 0.58086 0.0
Zn24 Zn 0.56583 0.49775 0.53672 0.0
O25 O 0.50251 0.51529 0.50651 0.0
Zn26 Zn 0.48698 0.45812 0.47658 0.0
Zn27 Zn 0.439 0.52585 0.52852 0.0
Zn28 Zn 0.51697 0.5791 0.48424 0.0
O29 O 0.48524 0.48315 0.43263 0.0
O30 O 0.51445 0.56554 0.43824 0.0
O31 O 0.59936 0.42867 0.52585 0.0
O32 O 0.54695 0.40469 0.48256 0.0
O33 O 0.41629 0.42082 0.48224 0.0
O34 O 0.38397 0.46757 0.51924 0.0
O35 O 0.40284 0.59468 0.51796 0.0
O36 O 0.62491 0.55218 0.53582 0.0
O37 O 0.45983 0.6338 0.48945 0.0
O38 O 0.59151 0.60881 0.49989 0.0
C39 C 0.50338 0.5127 0.59203 0.0
C40 C 0.49948 0.52604 0.42105 0.0
C41 C 0.38023 0.42873 0.50046 0.0
C42 C 0.58805 0.39715 0.50296 0.0
C43 C 0.4166 0.63414 0.50293 0.0
C44 C 0.62981 0.59366 0.52033 0.0
O45 O 0.46048 0.52617 0.57442 0.0
H46 H 0.07258 0.94112 0.36457 0.0
H47 H 0.92705 0.02543 0.38017 0.0
H48 H 0.02421 0.9497 0.4562 0.0
C49 C 0.0444 0.9543 0.38033 0.0
C50 C 0.05447 0.94183 0.41183 0.0
C51 C -0.00179 0.98345 0.36863 0.0
C52 C 0.96292 0.00303 0.3891 0.0
C53 C 0.97282 0.99087 0.4209 0.0
C54 C 0.01801 0.95996 0.43188 0.0
N55 N 0.93721 0.0067 0.4425 0.0
C56 C 0.90061 0.04809 0.43841 0.0
H57 H 0.9743 0.91389 0.63806 0.0
H58 H 0.10992 0.01792 0.62861 0.0
H59 H 0.04165 0.92138 0.55159 0.0
C60 C 0.00424 0.92968 0.62423 0.0
C61 C 0.00298 0.91342 0.59325 0.0
C62 C 0.04296 0.96689 0.63743 0.0
C63 C 0.07961 0.98939 0.61877 0.0
C64 C 0.07899 0.97262 0.58775 0.0
C65 C 0.04128 0.9344 0.57539 0.0
N66 N 0.11715 0.99172 0.56867 0.0
C67 C 0.13429 0.04357 0.56886 0.0
H68 H 0.56419 0.47381 0.8645 0.0
H69 H 0.41195 0.53778 0.88713 0.0
H70 H 0.51365 0.44648 0.95416 0.0
C71 C 0.53508 0.47972 0.88102 0.0
C72 C 0.54516 0.45706 0.91039 0.0
C73 C 0.48706 0.50846 0.87229 0.0
C74 C 0.44931 0.51595 0.89378 0.0
C75 C 0.45965 0.49417 0.92361 0.0
C76 C 0.50699 0.46436 0.9315 0.0
N77 N 0.42274 0.49998 0.94602 0.0
C78 C 0.38583 0.54096 0.94635 0.0
H79 H 0.42483 0.44033 0.13023 0.0
H80 H 0.57984 0.52207 0.1344 0.0
H81 H 0.51257 0.44153 0.05082 0.0
C82 C 0.45999 0.45289 0.11928 0.0
C83 C 0.46344 0.43769 0.08855 0.0
C84 C 0.50221 0.48221 0.13645 0.0
C85 C 0.54642 0.50015 0.12149 0.0
C86 C 0.5495 0.48582 0.09036 0.0
C87 C 0.50848 0.45423 0.07429 0.0
N88 N 0.59581 0.49815 0.07537 0.0
C89 C 0.62229 0.54637 0.07795 0.0
C90 C 0.16798 0.18144 0.99572 0.0
C91 C 0.16543 0.13546 0.01307 0.0
C92 C 0.21306 0.21546 0.00147 0.0
C93 C 0.25649 0.2041 0.02478 0.0
C94 C 0.25489 0.15701 0.04107 0.0
C95 C 0.20988 0.12318 0.0354 0.0
C96 C 0.30296 0.24071 0.03419 0.0
C97 C 0.30276 0.29217 0.0275 0.0
C98 C 0.34533 0.32855 0.04276 0.0
C99 C 0.36063 0.373 0.02702 0.0
C100 C 0.39941 0.40854 0.04167 0.0
C101 C 0.42252 0.40061 0.07251 0.0
H102 H 0.35624 0.28814 0.0869 0.0
C103 C 0.40673 0.3564 0.08827 0.0
C104 C 0.36845 0.32091 0.07365 0.0
H105 H 0.4242 0.34904 0.11197 0.0
H106 H 0.13468 0.19175 0.97807 0.0
H107 H 0.21318 0.2505 0.98772 0.0
H108 H 0.28788 0.147 0.059 0.0
H109 H 0.20961 0.08784 0.04899 0.0
H110 H 0.33753 0.22511 0.0494 0.0
H111 H 0.27005 0.30899 0.0116 0.0
H112 H 0.34273 0.3801 0.00337 0.0
H113 H 0.41069 0.44255 0.02909 0.0
C114 C 0.10369 0.81605 0.98041 0.0
C115 C 0.11756 0.85631 0.00238 0.0
C116 C 0.14021 0.77527 0.97687 0.0
C117 C 0.19181 0.77396 0.99509 0.0
C118 C 0.20484 0.81301 0.01788 0.0
C119 C 0.16824 0.85392 0.02143 0.0
C120 C 0.23256 0.73221 0.99121 0.0
C121 C 0.23476 0.70631 0.96417 0.0
C122 C 0.27522 0.6645 0.9598 0.0
C123 C 0.26296 0.62832 0.93524 0.0
C124 C 0.29953 0.58799 0.93047 0.0
C125 C 0.34908 0.58365 0.95005 0.0
H126 H 0.3379 0.68838 0.99742 0.0
C127 C 0.36228 0.62011 0.97412 0.0
C128 C 0.32581 0.66042 0.97895 0.0
H129 H 0.40073 0.61729 0.98931 0.0
H130 H 0.06468 0.81616 0.96563 0.0
H131 H 0.12753 0.74481 0.95996 0.0
H132 H 0.244 0.81252 0.03252 0.0
H133 H 0.18014 0.88413 0.03869 0.0
H134 H 0.26214 0.7237 0.01122 0.0
H135 H 0.20525 0.71538 0.94421 0.0
H136 H 0.22461 0.63082 0.91995 0.0
H137 H 0.2889 0.56001 0.91173 0.0
C138 C 0.83411 0.83962 0.99885 0.0
C139 C 0.82937 0.89201 0.00845 0.0
C140 C 0.79902 0.8011 0.00796 0.0
C141 C 0.75832 0.81421 0.02677 0.0
C142 C 0.75124 0.86694 0.03469 0.0
C143 C 0.78673 0.90547 0.02588 0.0
C144 C 0.72328 0.77348 0.03862 0.0
C145 C 0.74294 0.7257 0.04676 0.0
C146 C 0.70973 0.68296 0.05823 0.0
C147 C 0.7374 0.64057 0.07346 0.0
C148 C 0.70825 0.59678 0.08168 0.0
C149 C 0.65102 0.59479 0.07476 0.0
H150 H 0.62899 0.71243 0.03992 0.0
C151 C 0.62283 0.63745 0.0605 0.0
C152 C 0.65189 0.68133 0.05225 0.0
H153 H 0.57859 0.63588 0.05447 0.0
H154 H 0.86621 0.82792 0.98525 0.0
H155 H 0.80424 0.76098 0.00054 0.0
H156 H 0.71958 0.87807 0.04875 0.0
H157 H 0.78166 0.94555 0.03344 0.0
H158 H 0.68193 0.78441 0.04248 0.0
H159 H 0.78612 0.71757 0.04554 0.0
H160 H 0.78186 0.64062 0.07821 0.0
H161 H 0.73062 0.56367 0.09227 0.0
C162 C 0.87294 0.21819 0.96277 0.0
C163 C 0.86637 0.1812 0.98578 0.0
C164 C 0.8365 0.26006 0.9577 0.0
C165 C 0.79279 0.26565 0.97557 0.0
C166 C 0.78767 0.23002 0.99937 0.0
C167 C 0.82381 0.18801 0.00431 0.0
C168 C 0.75093 0.30719 0.9695 0.0
C169 C 0.73513 0.32532 0.94084 0.0
C170 C 0.6877 0.36079 0.93363 0.0
C171 C 0.6578 0.35796 0.90398 0.0
C172 C 0.61151 0.38904 0.89653 0.0
C173 C 0.59459 0.42432 0.91847 0.0
H174 H 0.69451 0.40093 0.97832 0.0
C175 C 0.6252 0.428 0.94799 0.0
C176 C 0.67142 0.39661 0.95552 0.0
H177 H 0.61378 0.45555 0.96517 0.0
H178 H 0.9057 0.21443 0.94835 0.0
H179 H 0.84266 0.28784 0.93979 0.0
H180 H 0.75464 0.2338 0.01363 0.0
H181 H 0.81797 0.16061 0.0225 0.0
H182 H 0.72856 0.31872 0.9885 0.0
H183 H 0.75385 0.3096 0.92136 0.0
H184 H 0.66955 0.33073 0.88671 0.0
H185 H 0.58843 0.38472 0.87371 0.0
C186 C 0.68892 0.66966 0.50888 0.0
C187 C 0.68083 0.6252 0.52663 0.0
C188 C 0.73631 0.70037 0.51556 0.0
C189 C 0.77645 0.68749 0.54037 0.0
C190 C 0.76904 0.64217 0.55743 0.0
C191 C 0.72177 0.61142 0.55072 0.0
C192 C 0.82604 0.72033 0.54975 0.0
C193 C 0.83014 0.7712 0.54232 0.0
C194 C 0.87727 0.80496 0.55489 0.0
C195 C 0.88979 0.84921 0.53815 0.0
C196 C 0.93156 0.88378 0.55024 0.0
C197 C 0.96111 0.87507 0.57956 0.0
H198 H 0.89783 0.76325 0.59821 0.0
C199 C 0.94888 0.83061 0.59624 0.0
C200 C 0.90732 0.79595 0.58411 0.0
H201 H 0.97115 0.82286 0.61886 0.0
H202 H 0.65856 0.68094 0.48986 0.0
H203 H 0.74107 0.73383 0.50105 0.0
H204 H 0.79942 0.63103 0.5765 0.0
H205 H 0.71709 0.57722 0.56475 0.0
H206 H 0.85941 0.70225 0.56467 0.0
H207 H 0.79765 0.78976 0.52708 0.0
H208 H 0.86683 0.85735 0.51577 0.0
H209 H 0.93966 0.91812 0.53704 0.0
C210 C 0.61318 0.31785 0.47341 0.0
C211 C 0.62519 0.3527 0.49867 0.0
C212 C 0.65005 0.27837 0.46775 0.0
C213 C 0.70011 0.27301 0.48715 0.0
C214 C 0.71115 0.30659 0.51302 0.0
C215 C 0.67425 0.34611 0.51869 0.0
C216 C 0.74156 0.23277 0.48153 0.0
C217 C 0.74464 0.20967 0.45373 0.0
C218 C 0.78686 0.16996 0.44874 0.0
C219 C 0.77455 0.13118 0.42566 0.0
C220 C 0.81253 0.09175 0.42143 0.0
C221 C 0.86356 0.09127 0.43991 0.0
H222 H 0.85099 0.2005 0.48354 0.0
C223 C 0.87701 0.13096 0.46204 0.0
C224 C 0.83912 0.17019 0.46638 0.0
H225 H 0.91646 0.13107 0.47644 0.0
H226 H 0.57546 0.32135 0.4577 0.0
H227 H 0.63875 0.25219 0.44826 0.0
H228 H 0.74905 0.30295 0.52858 0.0
H229 H 0.68476 0.37209 0.53843 0.0
H230 H 0.77134 0.22265 0.50117 0.0
H231 H 0.71484 0.21891 0.43396 0.0
H232 H 0.73488 0.13051 0.41151 0.0
H233 H 0.80159 0.06112 0.40428 0.0
C234 C 0.30195 0.39245 0.5257 0.0
C235 C 0.33629 0.38922 0.50214 0.0
C236 C 0.26576 0.35157 0.53011 0.0
C237 C 0.26317 0.30658 0.51103 0.0
C238 C 0.29476 0.30486 0.48626 0.0
C239 C 0.33124 0.34557 0.48195 0.0
C240 C 0.22955 0.2601 0.51689 0.0
C241 C 0.22001 0.24624 0.54559 0.0
C242 C 0.19369 0.19572 0.55209 0.0
C243 C 0.20789 0.17222 0.58109 0.0
C244 C 0.18731 0.12264 0.5871 0.0
C245 C 0.15174 0.09642 0.56428 0.0
H246 H 0.14264 0.18754 0.50759 0.0
C247 C 0.13544 0.12052 0.53586 0.0
C248 C 0.15603 0.16994 0.52979 0.0
H249 H 0.1076 0.10069 0.51809 0.0
H250 H 0.30427 0.42577 0.54147 0.0
H251 H 0.24051 0.35504 0.54874 0.0
H252 H 0.29293 0.27092 0.47097 0.0
H253 H 0.35668 0.342 0.4634 0.0
H254 H 0.21763 0.23372 0.49742 0.0
H255 H 0.23692 0.27 0.56543 0.0
H256 H 0.2364 0.19147 0.59876 0.0
H257 H 0.20013 0.10438 0.60921 0.0
C258 C 0.38783 0.71961 0.47844 0.0
C259 C 0.38032 0.6804 0.50001 0.0
C260 C 0.35041 0.76063 0.47352 0.0
C261 C 0.30487 0.76328 0.49016 0.0
C262 C 0.29925 0.72611 0.51307 0.0
C263 C 0.33637 0.68473 0.5178 0.0
C264 C 0.26095 0.80234 0.48259 0.0
C265 C 0.24388 0.81496 0.45302 0.0
C266 C 0.19502 0.84754 0.44371 0.0
C267 C 0.16413 0.83729 0.41493 0.0
C268 C 0.11795 0.8671 0.405 0.0
C269 C 0.10231 0.90881 0.42334 0.0
H270 H 0.20299 0.89818 0.48449 0.0
C271 C 0.13334 0.91915 0.45225 0.0
C272 C 0.17925 0.88867 0.46242 0.0
H273 H 0.12291 0.95146 0.46674 0.0
H274 H 0.42161 0.7178 0.46462 0.0
H275 H 0.35656 0.78968 0.45627 0.0
H276 H 0.26472 0.72773 0.52635 0.0
H277 H 0.32989 0.65554 0.53491 0.0
H278 H 0.2382 0.81583 0.50104 0.0
H279 H 0.26325 0.79659 0.4345 0.0
H280 H 0.1754 0.80563 0.40019 0.0
H281 H 0.09437 0.85721 0.38293 0.0
C282 C 0.03422 0.01146 0.14159 0.0
C283 C 0.9946 0.03607 0.12047 0.0
C284 C 0.03086 0.01434 0.17346 0.0
C285 C 0.98796 0.04218 0.18484 0.0
C286 C 0.94995 0.06872 0.16387 0.0
C287 C 0.95286 0.06531 0.13202 0.0
C288 C 0.98155 0.04356 0.21836 0.0
C289 C 0.99323 0.00168 0.23652 0.0
C290 C 0.98649 -0.00053 0.27 0.0
C291 C 0.98588 0.94992 0.28363 0.0
C292 C 0.98596 0.94514 0.3155 0.0
C293 C 0.98692 0.98986 0.33465 0.0
H294 H 0.98585 0.08344 0.27948 0.0
C295 C 0.98463 0.03963 0.32111 0.0
C296 C 0.98462 0.0445 0.28898 0.0
H297 H 0.986 0.07462 0.33552 0.0
H298 H 0.06712 0.98902 0.13349 0.0
H299 H 0.06184 -0.0053 0.18913 0.0
H300 H 0.91694 0.09089 0.17206 0.0
H301 H 0.92203 0.08531 0.11641 0.0
H302 H 0.96301 0.07805 0.22744 0.0
H303 H 0.00687 0.96595 0.22604 0.0
H304 H 0.98705 0.91458 0.26967 0.0
H305 H 0.98755 0.90629 0.32544 0.0
C306 C 0.00822 0.04916 0.86495 0.0
C307 C 0.98759 0.00771 0.88132 0.0
C308 C 0.01276 0.04394 0.83327 0.0
C309 C 0.99673 -0.003 0.81724 0.0
C310 C 0.97471 0.9563 0.8335 0.0
C311 C 0.97034 0.96144 0.8651 0.0
C312 C 0.00216 0.98798 0.78384 0.0
C313 C 0.03196 0.01803 0.76664 0.0
C314 C 0.03809 0.00456 0.73386 0.0
C315 C 0.04514 0.04463 0.71272 0.0
C316 C 0.04841 0.0327 0.68144 0.0
C317 C 0.04503 0.98039 0.67087 0.0
H318 H 0.03511 0.92 0.73931 0.0
C319 C 0.04095 0.94029 0.69241 0.0
C320 C 0.03771 0.95214 0.72349 0.0
H321 H 0.0399 0.8995 0.68514 0.0
H322 H 0.02163 0.08549 0.87668 0.0
H323 H 0.02875 0.07686 0.8217 0.0
H324 H 0.96163 0.9198 0.82182 0.0
H325 H 0.95404 0.92875 0.87686 0.0
H326 H 0.9811 0.95365 0.77307 0.0
H327 H 0.0519 0.0536 0.77626 0.0
H328 H 0.04654 0.08529 0.72023 0.0
H329 H 0.05175 0.0644 0.66538 0.0
C330 C 0.45709 0.53659 0.63844 0.0
C331 C 0.50306 0.51609 0.6261 0.0
C332 C 0.45694 0.54158 0.67047 0.0
C333 C 0.50266 0.52568 0.69102 0.0
C334 C 0.54858 0.50529 0.67867 0.0
C335 C 0.54881 0.50046 0.64661 0.0
C336 C 0.50492 0.53072 0.72532 0.0
C337 C 0.46053 0.53732 0.74046 0.0
C338 C 0.46461 0.53817 0.77488 0.0
C339 C 0.42077 0.51846 0.78934 0.0
C340 C 0.42631 0.51238 0.82155 0.0
C341 C 0.47572 0.52631 0.83979 0.0
H342 H 0.54579 0.57399 0.78329 0.0
C343 C 0.51767 0.55026 0.82558 0.0
C344 C 0.51215 0.55633 0.79348 0.0
H345 H 0.55582 0.56223 0.83923 0.0
H346 H 0.42128 0.54954 0.62336 0.0
H347 H 0.42125 0.55884 0.67876 0.0
H348 H 0.58454 0.49298 0.69389 0.0
H349 H 0.58499 0.48469 0.63794 0.0
H350 H 0.545 0.52584 0.73874 0.0
H351 H 0.41959 0.53746 0.72769 0.0
H352 H 0.38331 0.50504 0.77557 0.0
H353 H 0.39338 0.49369 0.8319 0.0
C354 C 0.48975 0.48437 0.36824 0.0
C355 C 0.50075 0.52918 0.38708 0.0
C356 C 0.4932 0.48624 0.33647 0.0
C357 C 0.50698 0.53331 0.32251 0.0
C358 C 0.51824 0.57807 0.34134 0.0
C359 C 0.515 0.57614 0.37326 0.0
C360 C 0.51232 0.53603 0.28877 0.0
C361 C 0.48551 0.50265 0.26785 0.0
C362 C 0.49343 0.49951 0.23455 0.0
C363 C 0.48033 0.4519 0.21899 0.0
C364 C 0.48487 0.44637 0.18756 0.0
C365 C 0.50159 0.48874 0.17047 0.0
H366 H 0.52162 0.5794 0.22901 0.0
C367 C 0.51595 0.53639 0.18604 0.0
C368 C 0.51187 0.54182 0.21788 0.0
H369 H 0.52883 0.56976 0.17348 0.0
H370 H 0.47945 0.44732 0.37809 0.0
H371 H 0.48647 0.45016 0.32325 0.0
H372 H 0.52958 0.61466 0.33134 0.0
H373 H 0.52407 0.61137 0.3871 0.0
H374 H 0.53954 0.5657 0.2813 0.0
H375 H 0.45737 0.47407 0.27554 0.0
H376 H 0.46653 0.41851 0.23123 0.0
H377 H 0.47498 0.40861 0.17659 0.0
loop_
_geom_bond_atom_site_label_1
_geom_bond_atom_site_label_2
_geom_bond_distance
_geom_bond_site_symmetry_2
_ccdc_geom_bond_type
O0 Zn1 1.953 . S
O0 C16 1.225 1_565 S
Zn1 O0 1.953 . S
Zn1 O2 1.949 1_565 S
Zn1 O8 1.919 . S
Zn1 O13 1.924 1_565 S
O2 Zn1 1.949 1_545 S
O2 Zn3 1.923 1_444 S
O2 Zn4 1.950 1_455 S
O2 Zn5 1.945 1_554 S
Zn3 O2 1.923 1_666 S
Zn3 O6 1.933 . S
Zn3 O9 1.941 1_655 S
Zn3 O10 1.965 . S
Zn4 O2 1.950 1_655 S
Zn4 O11 1.938 1_545 S
Zn4 O12 1.906 . S
Zn4 O22 1.953 . S
Zn5 O2 1.945 1_556 S
Zn5 O7 1.932 . S
Zn5 O14 1.977 1_455 S
Zn5 O15 1.910 . S
O6 Zn3 1.933 . S
O6 C17 1.226 1_665 S
O7 Zn5 1.932 . S
O7 C17 1.307 . S
O8 Zn1 1.919 . S
O8 C19 1.253 1_554 S
O9 Zn3 1.941 1_455 S
O9 C19 1.283 . S
O10 Zn3 1.965 . S
O10 C18 1.303 1_556 S
O11 Zn4 1.938 1_565 S
O11 C18 1.247 . S
O12 Zn4 1.906 . S
O12 C20 1.304 1_554 S
O13 Zn1 1.924 1_545 S
O13 C21 1.311 . S
O14 Zn5 1.977 1_655 S
O14 C20 1.272 . S
O15 Zn5 1.910 . S
O15 C21 1.231 1_556 S
C16 O0 1.225 1_545 S
C16 O22 1.298 1_455 S
C17 O6 1.226 1_445 S
C17 O7 1.307 . S
C18 O10 1.303 1_554 S
C18 O11 1.247 . S
C19 O8 1.253 1_556 S
C19 O9 1.283 . S
C20 O12 1.304 1_556 S
C20 O14 1.272 . S
C21 O13 1.311 . S
C21 O15 1.231 1_554 S
O22 Zn4 1.953 . S
O22 C16 1.298 1_655 S
O23 Zn24 1.953 . S
O23 C39 1.225 . S
Zn24 O23 1.953 . S
Zn24 O25 1.949 . S
Zn24 O31 1.919 . S
Zn24 O36 1.924 . S
O25 Zn24 1.949 . S
O25 Zn26 1.923 . S
O25 Zn27 1.950 . S
O25 Zn28 1.945 . S
Zn26 O25 1.923 . S
Zn26 O29 1.933 . S
Zn26 O32 1.941 . S
Zn26 O33 1.965 . S
Zn27 O25 1.950 . S
Zn27 O34 1.938 . S
Zn27 O35 1.906 . S
Zn27 O45 1.953 . S
Zn28 O25 1.945 . S
Zn28 O30 1.932 . S
Zn28 O37 1.977 . S
Zn28 O38 1.910 . S
O29 Zn26 1.933 . S
O29 C40 1.226 . S
O30 Zn28 1.932 . S
O30 C40 1.307 . S
O31 Zn24 1.919 . S
O31 C42 1.253 . S
O32 Zn26 1.941 . S
O32 C42 1.283 . S
O33 Zn26 1.965 . S
O33 C41 1.303 . S
O34 Zn27 1.938 . S
O34 C41 1.247 . S
O35 Zn27 1.906 . S
O35 C43 1.304 . S
O36 Zn24 1.924 . S
O36 C44 1.311 . S
O37 Zn28 1.977 . S
O37 C43 1.272 . S
O38 Zn28 1.910 . S
O38 C44 1.231 . S
C39 O23 1.225 . S
C39 O45 1.298 . S
C40 O29 1.226 . S
C40 O30 1.307 . S
C41 O33 1.303 . S
C41 O34 1.247 . S
C42 O31 1.253 . S
C42 O32 1.283 . S
C43 O35 1.304 . S
C43 O37 1.272 . S
C44 O36 1.311 . S
C44 O38 1.231 . S
O45 Zn27 1.953 . S
O45 C39 1.298 . S
H46 C49 0.929 . S
H47 C52 0.929 . S
H48 C54 0.930 . S
C49 H46 0.929 . S
C49 C50 1.398 . S
C49 C51 1.396 1_565 S
C50 C49 1.398 . S
C50 C54 1.407 . S
C51 C49 1.396 1_545 S
C51 C52 1.394 1_455 S
C52 H47 0.929 . S
C52 C51 1.394 1_655 S
C52 C53 1.382 . S
C53 C52 1.382 . S
C53 C54 1.392 1_645 S
C53 N55 1.420 . S
C54 H48 0.930 . S
C54 C50 1.407 . S
C54 C53 1.392 1_465 S
N55 C53 1.420 . S
N55 C56 1.244 . S
C56 N55 1.244 . S
H57 C60 0.929 . S
H58 C63 0.929 . S
H59 C65 0.930 . S
C60 H57 0.929 . S
C60 C61 1.398 . S
C60 C62 1.396 1_665 S
C61 C60 1.398 . S
C61 C65 1.407 . S
C62 C60 1.396 1_445 S
C62 C63 1.394 . S
C63 H58 0.929 . S
C63 C62 1.394 . S
C63 C64 1.382 . S
C64 C63 1.382 . S
C64 C65 1.392 1_445 S
C64 N66 1.420 . S
C65 H59 0.930 . S
C65 C61 1.407 . S
C65 C64 1.392 1_665 S
N66 C64 1.420 . S
N66 C67 1.244 . S
C67 N66 1.244 . S
H68 C71 0.929 . S
H69 C74 0.929 . S
H70 C76 0.930 . S
C71 H68 0.929 . S
C71 C72 1.398 . S
C71 C73 1.396 . S
C72 C71 1.398 . S
C72 C76 1.407 . S
C73 C71 1.396 . S
C73 C74 1.394 . S
C74 H69 0.929 . S
C74 C73 1.394 . S
C74 C75 1.382 . S
C75 C74 1.382 . S
C75 C76 1.392 . S
C75 N77 1.420 . S
C76 H70 0.930 . S
C76 C72 1.407 . S
C76 C75 1.392 . S
N77 C75 1.420 . S
N77 C78 1.244 . S
C78 N77 1.244 . S
H79 C82 0.929 . S
H80 C85 0.929 . S
H81 C87 0.930 . S
C82 H79 0.929 . S
C82 C83 1.398 . S
C82 C84 1.396 . S
C83 C82 1.398 . S
C83 C87 1.407 . S
C84 C82 1.396 . S
C84 C85 1.394 . S
C85 H80 0.929 . S
C85 C84 1.394 . S
C85 C86 1.382 . S
C86 C85 1.382 . S
C86 C87 1.392 . S
C86 N88 1.420 . S
C87 H81 0.930 . S
C87 C83 1.407 . S
C87 C86 1.392 . S
N88 C86 1.420 . S
N88 C89 1.244 . S
C89 N88 1.244 . S
C90 C91 1.386 . S
C90 C92 1.383 . S
C90 H106 0.951 1_554 S
C91 C90 1.386 . S
C91 C95 1.383 . S
C92 C90 1.383 . S
C92 C93 1.402 . S
C92 H107 0.951 . S
C93 C92 1.402 . S
C93 C94 1.375 . S
C93 C96 1.481 . S
C94 C93 1.375 . S
C94 C95 1.367 . S
C94 H108 0.951 . S
C95 C91 1.383 . S
C95 C94 1.367 . S
C95 H109 0.950 . S
C96 C93 1.481 . S
C96 C97 1.297 . S
C96 H110 0.950 . S
C97 C96 1.297 . S
C97 C98 1.479 . S
C97 H111 0.950 . S
C98 C97 1.479 . S
C98 C99 1.375 . S
C98 C104 1.404 . S
C99 C98 1.375 . S
C99 C100 1.369 . S
C99 H112 0.950 . S
C100 C99 1.369 . S
C100 C101 1.392 . S
C100 H113 0.951 . S
C101 C100 1.392 . S
C101 C103 1.384 . S
H102 C104 0.949 . S
C103 C101 1.384 . S
C103 C104 1.385 . S
C103 H105 0.950 . S
C104 C98 1.404 . S
C104 H102 0.949 . S
C104 C103 1.385 . S
H105 C103 0.950 . S
H106 C90 0.951 1_556 S
H107 C92 0.951 . S
H108 C94 0.951 . S
H109 C95 0.950 . S
H110 C96 0.950 . S
H111 C97 0.950 . S
H112 C99 0.950 . S
H113 C100 0.951 . S
C114 C115 1.371 1_554 S
C114 C116 1.367 1_554 S
C114 H130 0.982 . S
C115 C114 1.371 1_556 S
C115 C119 1.383 . S
C116 C114 1.367 1_556 S
C116 C117 1.402 . S
C116 H131 0.951 . S
C117 C116 1.402 . S
C117 C118 1.375 . S
C117 C120 1.481 . S
C118 C117 1.375 . S
C118 C119 1.367 . S
C118 H132 0.951 . S
C119 C115 1.383 . S
C119 C118 1.367 . S
C119 H133 0.950 . S
C120 C117 1.481 . S
C120 C121 1.297 . S
C120 H134 0.950 . S
C121 C120 1.297 . S
C121 C122 1.479 . S
C121 H135 0.950 . S
C122 C121 1.479 . S
C122 C123 1.375 . S
C122 C128 1.404 . S
C123 C122 1.375 . S
C123 C124 1.369 . S
C123 H136 0.950 . S
C124 C123 1.369 . S
C124 C125 1.392 . S
C124 H137 0.951 . S
C125 C124 1.392 . S
C125 C127 1.384 . S
H126 C128 0.949 . S
C127 C125 1.384 . S
C127 C128 1.385 . S
C127 H129 0.950 . S
C128 C122 1.404 . S
C128 H126 0.949 . S
C128 C127 1.385 . S
H129 C127 0.950 . S
H130 C114 0.982 . S
H131 C116 0.951 . S
H132 C118 0.951 . S
H133 C119 0.950 . S
H134 C120 0.950 . S
H135 C121 0.950 . S
H136 C123 0.950 . S
H137 C124 0.951 . S
C138 C139 1.386 . S
C138 C140 1.383 . S
C138 H154 0.951 . S
C139 C138 1.386 . S
C139 C143 1.383 . S
C140 C138 1.383 . S
C140 C141 1.402 . S
C140 H155 0.951 . S
C141 C140 1.402 . S
C141 C142 1.375 . S
C141 C144 1.481 . S
C142 C141 1.375 . S
C142 C143 1.367 . S
C142 H156 0.951 . S
C143 C139 1.383 . S
C143 C142 1.367 . S
C143 H157 0.950 1_554 S
C144 C141 1.481 . S
C144 C145 1.297 . S
C144 H158 0.950 . S
C145 C144 1.297 . S
C145 C146 1.479 . S
C145 H159 0.950 . S
C146 C145 1.479 . S
C146 C147 1.375 . S
C146 C152 1.404 . S
C147 C146 1.375 . S
C147 C148 1.369 . S
C147 H160 0.950 . S
C148 C147 1.369 . S
C148 C149 1.392 . S
C148 H161 0.951 . S
C149 C148 1.392 . S
C149 C151 1.384 . S
H150 C152 0.949 . S
C151 C149 1.384 . S
C151 C152 1.385 . S
C151 H153 0.950 . S
C152 C146 1.404 . S
C152 H150 0.949 . S
C152 C151 1.385 . S
H153 C151 0.950 . S
H154 C138 0.951 . S
H155 C140 0.951 . S
H156 C142 0.951 . S
H157 C143 0.950 1_556 S
H158 C144 0.950 . S
H159 C145 0.950 . S
H160 C147 0.950 . S
H161 C148 0.951 . S
C162 C163 1.386 . S
C162 C164 1.383 . S
C162 H178 0.951 . S
C163 C162 1.386 . S
C163 C167 1.383 1_556 S
C164 C162 1.383 . S
C164 C165 1.402 . S
C164 H179 0.951 . S
C165 C164 1.402 . S
C165 C166 1.375 . S
C165 C168 1.481 . S
C166 C165 1.375 . S
C166 C167 1.367 1_556 S
C166 H180 0.951 1_556 S
C167 C163 1.383 1_554 S
C167 C166 1.367 1_554 S
C167 H181 0.950 . S
C168 C165 1.481 . S
C168 C169 1.297 . S
C168 H182 0.950 . S
C169 C168 1.297 . S
C169 C170 1.479 . S
C169 H183 0.950 . S
C170 C169 1.479 . S
C170 C171 1.375 . S
C170 C176 1.404 . S
C171 C170 1.375 . S
C171 C172 1.369 . S
C171 H184 0.950 . S
C172 C171 1.369 . S
C172 C173 1.392 . S
C172 H185 0.951 . S
C173 C172 1.392 . S
C173 C175 1.384 . S
H174 C176 0.949 . S
C175 C173 1.384 . S
C175 C176 1.385 . S
C175 H177 0.950 . S
C176 C170 1.404 . S
C176 H174 0.949 . S
C176 C175 1.385 . S
H177 C175 0.950 . S
H178 C162 0.951 . S
H179 C164 0.951 . S
H180 C166 0.951 1_554 S
H181 C167 0.950 . S
H182 C168 0.950 . S
H183 C169 0.950 . S
H184 C171 0.950 . S
H185 C172 0.951 . S
C186 C187 1.386 . S
C186 C188 1.383 . S
C186 H202 0.951 . S
C187 C186 1.386 . S
C187 C191 1.383 . S
C188 C186 1.383 . S
C188 C189 1.402 . S
C188 H203 0.951 . S
C189 C188 1.402 . S
C189 C190 1.375 . S
C189 C192 1.481 . S
C190 C189 1.375 . S
C190 C191 1.367 . S
C190 H204 0.951 . S
C191 C187 1.383 . S
C191 C190 1.367 . S
C191 H205 0.950 . S
C192 C189 1.481 . S
C192 C193 1.297 . S
C192 H206 0.950 . S
C193 C192 1.297 . S
C193 C194 1.479 . S
C193 H207 0.950 . S
C194 C193 1.479 . S
C194 C195 1.375 . S
C194 C200 1.404 . S
C195 C194 1.375 . S
C195 C196 1.369 . S
C195 H208 0.950 . S
C196 C195 1.369 . S
C196 C197 1.392 . S
C196 H209 0.951 . S
C197 C196 1.392 . S
C197 C199 1.384 . S
H198 C200 0.949 . S
C199 C197 1.384 . S
C199 C200 1.385 . S
C199 H201 0.950 . S
C200 C194 1.404 . S
C200 H198 0.949 . S
C200 C199 1.385 . S
H201 C199 0.950 . S
H202 C186 0.951 . S
H203 C188 0.951 . S
H204 C190 0.951 . S
H205 C191 0.950 . S
H206 C192 0.950 . S
H207 C193 0.950 . S
H208 C195 0.950 . S
H209 C196 0.951 . S
C210 C211 1.386 . S
C210 C212 1.383 . S
C210 H226 0.951 . S
C211 C210 1.386 . S
C211 C215 1.383 . S
C212 C210 1.383 . S
C212 C213 1.402 . S
C212 H227 0.951 . S
C213 C212 1.402 . S
C213 C214 1.375 . S
C213 C216 1.481 . S
C214 C213 1.375 . S
C214 C215 1.367 . S
C214 H228 0.951 . S
C215 C211 1.383 . S
C215 C214 1.367 . S
C215 H229 0.950 . S
C216 C213 1.481 . S
C216 C217 1.297 . S
C216 H230 0.950 . S
C217 C216 1.297 . S
C217 C218 1.479 . S
C217 H231 0.950 . S
C218 C217 1.479 . S
C218 C219 1.375 . S
C218 C224 1.404 . S
C219 C218 1.375 . S
C219 C220 1.369 . S
C219 H232 0.950 . S
C220 C219 1.369 . S
C220 C221 1.392 . S
C220 H233 0.951 . S
C221 C220 1.392 . S
C221 C223 1.384 . S
H222 C224 0.949 . S
C223 C221 1.384 . S
C223 C224 1.385 . S
C223 H225 0.950 . S
C224 C218 1.404 . S
C224 H222 0.949 . S
C224 C223 1.385 . S
H225 C223 0.950 . S
H226 C210 0.951 . S
H227 C212 0.951 . S
H228 C214 0.951 . S
H229 C215 0.950 . S
H230 C216 0.950 . S
H231 C217 0.950 . S
H232 C219 0.950 . S
H233 C220 0.951 . S
C234 C235 1.386 . S
C234 C236 1.383 . S
C234 H250 0.951 . S
C235 C234 1.386 . S
C235 C239 1.383 . S
C236 C234 1.383 . S
C236 C237 1.402 . S
C236 H251 0.951 . S
C237 C236 1.402 . S
C237 C238 1.375 . S
C237 C240 1.481 . S
C238 C237 1.375 . S
C238 C239 1.367 . S
C238 H252 0.951 . S
C239 C235 1.383 . S
C239 C238 1.367 . S
C239 H253 0.950 . S
C240 C237 1.481 . S
C240 C241 1.297 . S
C240 H254 0.950 . S
C241 C240 1.297 . S
C241 C242 1.479 . S
C241 H255 0.950 . S
C242 C241 1.479 . S
C242 C243 1.375 . S
C242 C248 1.404 . S
C243 C242 1.375 . S
C243 C244 1.369 . S
C243 H256 0.950 . S
C244 C243 1.369 . S
C244 C245 1.392 . S
C244 H257 0.951 . S
C245 C244 1.392 . S
C245 C247 1.384 . S
H246 C248 0.949 . S
C247 C245 1.384 . S
C247 C248 1.385 . S
C247 H249 0.950 . S
C248 C242 1.404 . S
C248 H246 0.949 . S
C248 C247 1.385 . S
H249 C247 0.950 . S
H250 C234 0.951 . S
H251 C236 0.951 . S
H252 C238 0.951 . S
H253 C239 0.950 . S
H254 C240 0.950 . S
H255 C241 0.950 . S
H256 C243 0.950 . S
H257 C244 0.951 . S
C258 C259 1.386 . S
C258 C260 1.383 . S
C258 H274 0.951 . S
C259 C258 1.386 . S
C259 C263 1.383 . S
C260 C258 1.383 . S
C260 C261 1.402 . S
C260 H275 0.951 . S
C261 C260 1.402 . S
C261 C262 1.375 . S
C261 C264 1.481 . S
C262 C261 1.375 . S
C262 C263 1.367 . S
C262 H276 0.951 . S
C263 C259 1.383 . S
C263 C262 1.367 . S
C263 H277 0.950 . S
C264 C261 1.481 . S
C264 C265 1.297 . S
C264 H278 0.950 . S
C265 C264 1.297 . S
C265 C266 1.479 . S
C265 H279 0.950 . S
C266 C265 1.479 . S
C266 C267 1.375 . S
C266 C272 1.404 . S
C267 C266 1.375 . S
C267 C268 1.369 . S
C267 H280 0.950 . S
C268 C267 1.369 . S
C268 C269 1.392 . S
C268 H281 0.951 . S
C269 C268 1.392 . S
C269 C271 1.384 . S
H270 C272 0.949 . S
C271 C269 1.384 . S
C271 C272 1.385 . S
C271 H273 0.950 . S
C272 C266 1.404 . S
C272 H270 0.949 . S
C272 C271 1.385 . S
H273 C271 0.950 . S
H274 C258 0.951 . S
H275 C260 0.951 . S
H276 C262 0.951 . S
H277 C263 0.950 . S
H278 C264 0.950 . S
H279 C265 0.950 . S
H280 C267 0.950 . S
H281 C268 0.951 . S
C282 C283 1.386 1_565 S
C282 C284 1.383 . S
C282 H298 0.951 . S
C283 C282 1.386 1_545 S
C283 C287 1.383 1_455 S
C284 C282 1.383 . S
C284 C285 1.402 1_565 S
C284 H299 0.951 . S
C285 C284 1.402 1_545 S
C285 C286 1.375 1_455 S
C285 C288 1.481 . S
C286 C285 1.375 1_655 S
C286 C287 1.367 . S
C286 H300 0.951 . S
C287 C283 1.383 1_655 S
C287 C286 1.367 . S
C287 H301 0.950 . S
C288 C285 1.481 . S
C288 C289 1.297 . S
C288 H302 0.950 1_455 S
C289 C288 1.297 . S
C289 C290 1.479 . S
C289 H303 0.942 1_545 S
C290 C289 1.479 . S
C290 C291 1.375 1_545 S
C290 C296 1.396 1_455 S
C291 C290 1.375 1_565 S
C291 C292 1.369 . S
C291 H304 0.950 . S
C292 C291 1.369 . S
C292 C293 1.392 1_565 S
C292 H305 0.951 . S
C293 C292 1.392 1_545 S
C293 C295 1.384 1_455 S
H294 C296 0.953 . S
C295 C293 1.384 1_655 S
C295 C296 1.388 . S
C295 H297 0.950 . S
C296 C290 1.396 1_655 S
C296 H294 0.953 . S
C296 C295 1.388 . S
H297 C295 0.950 . S
H298 C282 0.951 . S
H299 C284 0.951 . S
H300 C286 0.951 . S
H301 C287 0.950 . S
H302 C288 0.950 1_655 S
H303 C289 0.942 1_565 S
H304 C291 0.950 . S
H305 C292 0.951 . S
C306 C307 1.386 . S
C306 C308 1.383 . S
C306 H322 0.951 . S
C307 C306 1.386 . S
C307 C311 1.383 1_445 S
C308 C306 1.383 . S
C308 C309 1.402 1_545 S
C308 H323 0.951 . S
C309 C308 1.402 1_565 S
C309 C310 1.375 1_455 S
C309 C312 1.481 . S
C310 C309 1.375 1_655 S
C310 C311 1.367 . S
C310 H324 0.951 . S
C311 C307 1.383 1_665 S
C311 C310 1.367 . S
C311 H325 0.950 . S
C312 C309 1.481 . S
C312 C313 1.297 1_565 S
C312 H326 0.950 1_455 S
C313 C312 1.297 1_545 S
C313 C314 1.479 . S
C313 H327 0.950 . S
C314 C313 1.479 . S
C314 C315 1.375 . S
C314 C320 1.401 1_445 S
C315 C314 1.375 . S
C315 C316 1.369 . S
C315 H328 0.950 . S
C316 C315 1.369 . S
C316 C317 1.392 . S
C316 H329 0.951 . S
C317 C316 1.392 . S
C317 C319 1.384 1_445 S
H318 C320 0.952 . S
C319 C317 1.384 1_665 S
C319 C320 1.385 . S
C319 H321 0.950 . S
C320 C314 1.401 1_665 S
C320 H318 0.952 . S
C320 C319 1.385 . S
H321 C319 0.950 . S
H322 C306 0.951 . S
H323 C308 0.951 . S
H324 C310 0.951 . S
H325 C311 0.950 . S
H326 C312 0.950 1_655 S
H327 C313 0.950 . S
H328 C315 0.950 . S
H329 C316 0.951 . S
C330 C331 1.386 . S
C330 C332 1.383 . S
C330 H346 0.951 . S
C331 C330 1.386 . S
C331 C335 1.383 . S
C332 C330 1.383 . S
C332 C333 1.402 . S
C332 H347 0.951 . S
C333 C332 1.402 . S
C333 C334 1.375 . S
C333 C336 1.481 . S
C334 C333 1.375 . S
C334 C335 1.367 . S
C334 H348 0.951 . S
C335 C331 1.383 . S
C335 C334 1.367 . S
C335 H349 0.950 . S
C336 C333 1.481 . S
C336 C337 1.297 . S
C336 H350 0.950 . S
C337 C336 1.297 . S
C337 C338 1.479 . S
C337 H351 0.950 . S
C338 C337 1.479 . S
C338 C339 1.375 . S
C338 C344 1.404 . S
C339 C338 1.375 . S
C339 C340 1.369 . S
C339 H352 0.950 . S
C340 C339 1.369 . S
C340 C341 1.392 . S
C340 H353 0.951 . S
C341 C340 1.392 . S
C341 C343 1.384 . S
H342 C344 0.949 . S
C343 C341 1.384 . S
C343 C344 1.385 . S
C343 H345 0.950 . S
C344 C338 1.404 . S
C344 H342 0.949 . S
C344 C343 1.385 . S
H345 C343 0.950 . S
H346 C330 0.951 . S
H347 C332 0.951 . S
H348 C334 0.951 . S
H349 C335 0.950 . S
H350 C336 0.950 . S
H351 C337 0.950 . S
H352 C339 0.950 . S
H353 C340 0.951 . S
C354 C355 1.386 . S
C354 C356 1.383 . S
C354 H370 0.951 . S
C355 C354 1.386 . S
C355 C359 1.383 . S
C356 C354 1.383 . S
C356 C357 1.402 . S
C356 H371 0.951 . S
C357 C356 1.402 . S
C357 C358 1.375 . S
C357 C360 1.481 . S
C358 C357 1.375 . S
C358 C359 1.367 . S
C358 H372 0.951 . S
C359 C355 1.383 . S
C359 C358 1.367 . S
C359 H373 0.950 . S
C360 C357 1.481 . S
C360 C361 1.297 . S
C360 H374 0.950 . S
C361 C360 1.297 . S
C361 C362 1.479 . S
C361 H375 0.950 . S
C362 C361 1.479 . S
C362 C363 1.375 . S
C362 C368 1.404 . S
C363 C362 1.375 . S
C363 C364 1.369 . S
C363 H376 0.950 . S
C364 C363 1.369 . S
C364 C365 1.392 . S
C364 H377 0.951 . S
C365 C364 1.392 . S
C365 C367 1.384 . S
H366 C368 0.949 . S
C367 C365 1.384 . S
C367 C368 1.385 . S
C367 H369 0.950 . S
C368 C362 1.404 . S
C368 H366 0.949 . S
C368 C367 1.385 . S
H369 C367 0.950 . S
H370 C354 0.951 . S
H371 C356 0.951 . S
H372 C358 0.951 . S
H373 C359 0.950 . S
H374 C360 0.950 . S
H375 C361 0.950 . S
H376 C363 0.950 . S
H377 C364 0.951 . S
C101 C83 1.521 . S
C91 C21 1.528 . S
C115 C19 1.398 . S
C125 C78 1.353 . S
C139 C18 1.336 . S
C149 C89 1.312 . S
C163 C20 1.490 . S
C173 C72 1.500 . S
C187 C44 1.527 . S
C197 C61 1.492 . S
C211 C42 1.395 . S
C221 C56 1.335 . S
C245 C67 1.326 . S
C235 C41 1.335 . S
C269 C50 1.480 . S
C259 C43 1.503 . S
C283 C16 1.526 . S
C293 C51 1.513 . S
C307 C17 1.485 . S
C317 C62 1.474 . S
C341 C73 1.497 . S
C331 C39 1.527 . S
C355 C40 1.486 . S
C365 C84 1.470 . S
