# Generated by pormake.
# Topology zzz, (3,6)-cn, num edge types: 1
# Building blocks:
#     Node 0, Type 0, BuildingBlock: VETTIZ_charged_linker_0, # of connection points: 3
#     Node 1, Type 0, BuildingBlock: VETTIZ_charged_linker_0, # of connection points: 3
#     Node 2, Type 0, BuildingBlock: VETTIZ_charged_linker_0, # of connection points: 3
#     Node 3, Type 0, BuildingBlock: VETTIZ_charged_linker_0, # of connection points: 3
#     Node 4, Type 0, BuildingBlock: VETTIZ_charged_linker_0, # of connection points: 3
#     Node 5, Type 0, BuildingBlock: VETTIZ_charged_linker_0, # of connection points: 3
#     Node 6, Type 0, BuildingBlock: VETTIZ_charged_linker_0, # of connection points: 3
#     Node 7, Type 0, BuildingBlock: VETTIZ_charged_linker_0, # of connection points: 3
#     Node 8, Type 1, BuildingBlock: BETDIP_clean_sbu_0, # of connection points: 6
#     Node 9, Type 1, BuildingBlock: BETDIP_clean_sbu_0, # of connection points: 6
#     Node 10, Type 1, BuildingBlock: BETDIP_clean_sbu_0, # of connection points: 6
#     Node 11, Type 1, BuildingBlock: BETDIP_clean_sbu_0, # of connection points: 6
#     Edge 12, Type (0, 1), BuildingBlock: UVAHIK_clean_linker_0, # of connection points: 2
#     Edge 13, Type (0, 1), BuildingBlock: UVAHIK_clean_linker_0, # of connection points: 2
#     Edge 14, Type (0, 1), BuildingBlock: UVAHIK_clean_linker_0, # of connection points: 2
#     Edge 15, Type (0, 1), BuildingBlock: UVAHIK_clean_linker_0, # of connection points: 2
#     Edge 16, Type (0, 1), BuildingBlock: UVAHIK_clean_linker_0, # of connection points: 2
#     Edge 17, Type (0, 1), BuildingBlock: UVAHIK_clean_linker_0, # of connection points: 2
#     Edge 18, Type (0, 1), BuildingBlock: UVAHIK_clean_linker_0, # of connection points: 2
#     Edge 19, Type (0, 1), BuildingBlock: UVAHIK_clean_linker_0, # of connection points: 2
#     Edge 20, Type (0, 1), BuildingBlock: UVAHIK_clean_linker_0, # of connection points: 2
#     Edge 21, Type (0, 1), BuildingBlock: UVAHIK_clean_linker_0, # of connection points: 2
#     Edge 22, Type (0, 1), BuildingBlock: UVAHIK_clean_linker_0, # of connection points: 2
#     Edge 23, Type (0, 1), BuildingBlock: UVAHIK_clean_linker_0, # of connection points: 2
#     Edge 24, Type (0, 1), BuildingBlock: UVAHIK_clean_linker_0, # of connection points: 2
#     Edge 25, Type (0, 1), BuildingBlock: UVAHIK_clean_linker_0, # of connection points: 2
#     Edge 26, Type (0, 1), BuildingBlock: UVAHIK_clean_linker_0, # of connection points: 2
#     Edge 27, Type (0, 1), BuildingBlock: UVAHIK_clean_linker_0, # of connection points: 2
#     Edge 28, Type (0, 1), BuildingBlock: UVAHIK_clean_linker_0, # of connection points: 2
#     Edge 29, Type (0, 1), BuildingBlock: UVAHIK_clean_linker_0, # of connection points: 2
#     Edge 30, Type (0, 1), BuildingBlock: UVAHIK_clean_linker_0, # of connection points: 2
#     Edge 31, Type (0, 1), BuildingBlock: UVAHIK_clean_linker_0, # of connection points: 2
#     Edge 32, Type (0, 1), BuildingBlock: UVAHIK_clean_linker_0, # of connection points: 2
#     Edge 33, Type (0, 1), BuildingBlock: UVAHIK_clean_linker_0, # of connection points: 2
#     Edge 34, Type (0, 1), BuildingBlock: UVAHIK_clean_linker_0, # of connection points: 2
#     Edge 35, Type (0, 1), BuildingBlock: UVAHIK_clean_linker_0, # of connection points: 2
# Relax obj value: 0.416
# Max RMSD: 0.270
# Mean RMSD: 0.243
data_MOF--net-zzz--node1-BETDIP_clean_sbu_0--node2-VETTIZ_charged_linker_0--edge1-UVAHIK_clean_linker_0
_symmetry_space_group_name_H-M    P1
_symmetry_Int_Tables_number       1
_symmetry_cell_setting            triclinic
loop_
_symmetry_equiv_pos_as_xyz
'x, y, z'
_cell_length_a     73.397058
_cell_length_b     73.423975
_cell_length_c     22.84634
_cell_angle_alpha  89.796082
_cell_angle_beta   89.931323
_cell_angle_gamma 90.006651
loop_
_atom_site_label
_atom_site_type_symbol
_atom_site_fract_x
_atom_site_fract_y
_atom_site_fract_z
_atom_type_partial_charge
C0 C 0.79935 0.51207 0.29757 0.0
C1 C 0.81857 0.51042 0.29511 0.0
C2 C 0.82683 0.50601 0.24146 0.0
C3 C 0.79749 0.50531 0.19342 0.0
C4 C 0.78904 0.50958 0.24576 0.0
C5 C 0.76856 0.51149 0.23767 0.0
H6 H 0.69628 0.50319 0.04814 0.0
C7 C 0.78348 0.5036 0.14748 0.0
C8 C 0.76629 0.50709 0.17262 0.0
H9 H 0.6928 0.52072 0.22768 0.0
H10 H 0.72595 0.51766 0.23755 0.0
H11 H 0.7283 0.52804 0.01663 0.0
H12 H 0.72467 0.47175 0.0656 0.0
H13 H 0.74132 0.4727 0.01058 0.0
H14 H 0.71838 0.47998 0.99443 0.0
H15 H 0.72127 0.51077 0.96621 0.0
H16 H 0.74489 0.51711 0.97429 0.0
C17 C 0.76316 0.53134 0.25129 0.0
C18 C 0.75888 0.49742 0.27711 0.0
C19 C 0.80325 0.48744 0.94051 0.0
C20 C 0.79352 0.48412 0.8886 0.0
C21 C 0.77438 0.48504 0.88944 0.0
C22 C 0.76508 0.4894 0.94104 0.0
C23 C 0.775 0.49282 0.99259 0.0
C24 C 0.79374 0.4917 0.99176 0.0
C25 C 0.80198 0.49529 0.05086 0.0
C26 C 0.78505 0.49906 0.08726 0.0
C27 C 0.76941 0.49766 0.05279 0.0
C28 C 0.81432 0.51238 0.04536 0.0
C29 C 0.81196 0.47771 0.07107 0.0
C30 C 0.70255 0.50618 0.08997 0.0
C31 C 0.69196 0.51183 0.13735 0.0
C32 C 0.70075 0.51616 0.19055 0.0
C33 C 0.71992 0.5144 0.1961 0.0
C34 C 0.73033 0.50861 0.14757 0.0
C35 C 0.72138 0.50485 0.09568 0.0
C36 C 0.73393 0.49988 0.047 0.0
C37 C 0.75208 0.50097 0.07751 0.0
C38 C 0.75026 0.5059 0.13688 0.0
C39 C 0.73202 0.51454 0.99811 0.0
C40 C 0.72938 0.48012 0.02779 0.0
H41 H 0.82382 0.50014 0.15197 0.0
H42 H 0.79265 0.51559 0.33822 0.0
H43 H 0.7649 0.48367 0.27076 0.0
H44 H 0.74423 0.49623 0.26712 0.0
H45 H 0.76035 0.50109 0.32401 0.0
H46 H 0.7728 0.541 0.23001 0.0
H47 H 0.76344 0.53387 0.2992 0.0
H48 H 0.74953 0.53486 0.23449 0.0
H49 H 0.81797 0.48646 0.94153 0.0
H50 H 0.76662 0.48255 0.84996 0.0
H51 H 0.75051 0.48995 0.93857 0.0
H52 H 0.80835 0.52244 0.0143 0.0
H53 H 0.82807 0.50872 0.02879 0.0
H54 H 0.81575 0.5199 0.08688 0.0
H55 H 0.80563 0.46532 0.05189 0.0
H56 H 0.81112 0.47546 0.11888 0.0
H57 H 0.8265 0.47786 0.05755 0.0
H58 H 0.8415 0.50453 0.23851 0.0
C59 C 0.81649 0.50342 0.19106 0.0
C60 C 0.98602 0.77778 0.91933 0.0
C61 C 0.98869 0.79627 0.906 0.0
C62 C 0.9879 0.80914 0.95165 0.0
C63 C 0.98451 0.78491 0.02295 0.0
C64 C 0.98404 0.77242 0.97796 0.0
C65 C 0.98247 0.7532 1.00013 0.0
H66 H 1.00017 0.6924 0.21066 0.0
C67 C 0.98474 0.77474 0.07894 0.0
C68 C 0.98352 0.7562 0.06613 0.0
H69 H 0.97927 0.68375 0.03598 0.0
H70 H 0.97423 0.71574 0.0246 0.0
H71 H 0.02286 0.73188 0.19364 0.0
H72 H 0.96543 0.72544 0.23568 0.0
H73 H 0.97655 0.74122 0.28167 0.0
H74 H 0.98285 0.71755 0.2849 0.0
H75 H 0.01559 0.71978 0.25823 0.0
H76 H 0.01585 0.74421 0.25673 0.0
C77 C 0.99903 0.74236 0.97645 0.0
C78 C 0.96367 0.74558 0.98075 0.0
C79 C 0.99332 0.81045 0.26499 0.0
C80 C 0.99557 0.80608 0.32438 0.0
C81 C 0.99706 0.78745 0.33996 0.0
C82 C 0.99568 0.77359 0.29705 0.0
C83 C 0.99276 0.77838 0.23792 0.0
C84 C 0.99181 0.79666 0.22334 0.0
C85 C 0.98919 0.79985 0.15925 0.0
C86 C 0.98775 0.78052 0.13728 0.0
C87 C 0.99 0.76771 0.18292 0.0
C88 C 0.00642 0.80975 0.13545 0.0
C89 C 0.97108 0.81041 0.15049 0.0
C90 C 0.99458 0.69759 0.17009 0.0
C91 C 0.99056 0.68564 0.12326 0.0
C92 C 0.98267 0.69269 0.07205 0.0
C93 C 0.97991 0.7113 0.0652 0.0
C94 C 0.98524 0.72323 0.10963 0.0
C95 C 0.9913 0.71649 0.16265 0.0
C96 C 0.99329 0.73179 0.20701 0.0
C97 C 0.98914 0.74865 0.16952 0.0
C98 C 0.98503 0.7432 0.11197 0.0
C99 C 0.01295 0.73196 0.23052 0.0
C100 C 0.97885 0.7289 0.25528 0.0
H101 H 0.98584 0.81401 0.04252 0.0
H102 H 0.98622 0.76764 0.88503 0.0
H103 H 0.95443 0.75641 0.96386 0.0
H104 H 0.95614 0.73931 0.01787 0.0
H105 H 0.96517 0.73537 0.94531 0.0
H106 H 0.0119 0.74996 0.98454 0.0
H107 H 0.9978 0.74015 0.92855 0.0
H108 H 1.00078 0.72892 0.99709 0.0
H109 H 0.99281 0.82451 0.25059 0.0
H110 H 0.99898 0.78359 0.38531 0.0
H111 H 0.99694 0.7597 0.31128 0.0
H112 H 0.01856 0.80712 0.16336 0.0
H113 H 1.00438 0.82473 0.13384 0.0
H114 H 0.01055 0.80493 0.0916 0.0
H115 H 0.96053 0.80561 0.18199 0.0
H116 H 0.965 0.8083 0.10681 0.0
H117 H 0.97302 0.82524 0.15758 0.0
H118 H 0.99004 0.82348 0.94288 0.0
C119 C 0.98575 0.80357 0.00985 0.0
C120 C 0.83331 0.00926 0.18543 0.0
C121 C 0.84391 0.01731 0.14015 0.0
C122 C 0.83508 0.02812 0.09767 0.0
C123 C 0.80591 0.01947 0.13655 0.0
C124 C 0.81411 0.01125 0.1839 0.0
C125 C 0.79979 1.00489 0.22772 0.0
H126 H 0.70985 0.98648 0.2762 0.0
C127 C 0.78631 0.01629 0.1392 0.0
C128 C 0.78204 0.01003 0.19571 0.0
H129 H 0.74389 0.01392 0.40205 0.0
H130 H 0.76774 0.01722 0.32737 0.0
H131 H 0.71641 0.0156 0.1894 0.0
H132 H 0.74267 0.96316 0.19769 0.0
H133 H 0.73752 0.96781 0.12398 0.0
H134 H 0.71927 0.96592 0.17671 0.0
H135 H 0.70495 0.99502 0.16849 0.0
H136 H 0.71863 0.00779 0.11736 0.0
C137 C 0.80247 0.01497 0.28602 0.0
C138 C 0.80114 0.98413 0.23649 0.0
C139 C 0.75719 1.00343 0.94233 0.0
C140 C 0.7409 0.99482 0.92575 0.0
C141 C 0.72926 0.98805 0.97012 0.0
C142 C 0.73365 0.99002 0.02941 0.0
C143 C 0.74974 0.9991 0.04503 0.0
C144 C 0.76135 1.00536 1.0018 0.0
C145 C 0.77758 0.01518 0.02628 0.0
C146 C 0.7743 0.01278 0.09185 0.0
C147 C 0.75778 1.00372 0.1023 0.0
C148 C 0.77615 0.03543 0.00771 0.0
C149 C 0.79525 1.00574 1.00421 0.0
C150 C 0.72289 0.99197 0.28949 0.0
C151 C 0.72523 0.99906 0.34611 0.0
C152 C 0.74196 0.00765 0.35968 0.0
C153 C 0.75605 0.00896 0.31762 0.0
C154 C 0.75361 1.00123 0.2621 0.0
C155 C 0.73685 0.99379 0.24791 0.0
C156 C 0.73456 0.9917 0.18275 0.0
C157 C 0.75225 0.9999 0.16057 0.0
C158 C 0.76393 1.00402 0.20723 0.0
C159 C 0.71773 1.00295 0.16303 0.0
C160 C 0.7333 0.97111 0.16912 0.0
H161 H 0.81007 0.03772 0.06303 0.0
H162 H 0.83975 1.00152 0.22009 0.0
H163 H 0.79991 0.97694 0.1939 0.0
H164 H 0.79005 0.97922 0.26572 0.0
H165 H 0.81439 0.98038 0.25665 0.0
H166 H 0.7973 0.02917 0.28311 0.0
H167 H 0.81713 0.01552 0.29799 0.0
H168 H 0.79562 0.00769 0.32244 0.0
H169 H 0.76651 0.00878 0.9098 0.0
H170 H 0.71636 0.98177 0.95932 0.0
H171 H 0.72409 0.9848 0.06081 0.0
H172 H 0.76173 0.04012 0.00784 0.0
H173 H 0.78166 0.03751 0.96286 0.0
H174 H 0.78326 0.04463 0.03825 0.0
H175 H 0.79989 0.99504 0.03533 0.0
H176 H 0.80644 0.01555 0.99665 0.0
H177 H 0.79332 0.999 0.96123 0.0
H178 H 0.84275 0.03485 0.06329 0.0
C179 C 0.81617 0.0294 0.09624 0.0
C180 C 0.50458 0.73279 0.31713 0.0
C181 C 0.49595 0.71702 0.33968 0.0
C182 C 0.4784 0.71251 0.31988 0.0
C183 C 0.47859 0.73818 0.25336 0.0
C184 C 0.4954 0.74343 0.27461 0.0
C185 C 0.50156 0.76123 0.24682 0.0
H186 H 0.48214 0.82963 0.0508 0.0
C187 C 0.47293 0.75115 0.20749 0.0
C188 C 0.48603 0.7651 0.20387 0.0
H189 H 0.52919 0.82655 0.16318 0.0
H190 H 0.51856 0.79738 0.20204 0.0
H191 H 0.48593 0.79109 0.00811 0.0
H192 H 0.45127 0.81387 0.14009 0.0
H193 H 0.43798 0.79944 0.09561 0.0
H194 H 0.44955 0.81857 0.06306 0.0
H195 H 0.46415 0.80047 0.98991 0.0
H196 H 0.46685 0.77675 0.00928 0.0
C197 C 0.51981 0.75796 0.21493 0.0
C198 C 0.50269 0.77577 0.29531 0.0
C199 C 0.42077 0.73343 0.07458 0.0
C200 C 0.41447 0.74067 0.0213 0.0
C201 C 0.42025 0.75818 1.00405 0.0
C202 C 0.43298 0.76782 0.03768 0.0
C203 C 0.44032 0.75968 0.08834 0.0
C204 C 0.43383 0.74297 0.10672 0.0
C205 C 0.44384 0.73583 0.15933 0.0
C206 C 0.45807 0.75063 0.16784 0.0
C207 C 0.45583 0.76458 0.1266 0.0
C208 C 0.45257 0.71731 0.14254 0.0
C209 C 0.43021 0.73486 0.21129 0.0
C210 C 0.48998 0.82286 0.08464 0.0
C211 C 0.50621 0.83054 0.10509 0.0
C212 C 0.51648 0.82094 0.14737 0.0
C213 C 0.51025 0.80409 0.16994 0.0
C214 C 0.49376 0.79667 0.14922 0.0
C215 C 0.48417 0.80604 0.10649 0.0
C216 C 0.46791 0.79577 0.085 0.0
C217 C 0.46841 0.77921 0.1245 0.0
C218 C 0.48356 0.77957 0.16242 0.0
C219 C 0.47121 0.7908 0.01972 0.0
C220 C 0.4507 0.80748 0.09604 0.0
H221 H 0.45654 0.71846 0.26351 0.0
H222 H 0.51796 0.73673 0.33243 0.0
H223 H 0.503 0.78977 0.27782 0.0
H224 H 0.51494 0.77361 0.32301 0.0
H225 H 0.49049 0.77505 0.32417 0.0
H226 H 0.51915 0.74527 0.18858 0.0
H227 H 0.53115 0.75651 0.24677 0.0
H228 H 0.52322 0.769 0.18393 0.0
H229 H 0.41683 0.71987 0.0885 0.0
H230 H 0.41551 0.76404 0.96325 0.0
H231 H 0.43712 0.78092 0.02166 0.0
H232 H 0.46393 0.71321 0.17116 0.0
H233 H 0.45853 0.718 0.09777 0.0
H234 H 0.44226 0.70623 0.14293 0.0
H235 H 0.43631 0.73974 0.25274 0.0
H236 H 0.42498 0.7208 0.21781 0.0
H237 H 0.41819 0.74385 0.20425 0.0
H238 H 0.47152 0.70049 0.33656 0.0
C239 C 0.46973 0.72295 0.27719 0.0
C240 C 0.329 0.50474 0.21835 0.0
C241 C 0.3405 0.50615 0.26786 0.0
C242 C 0.333 0.51108 0.322 0.0
C243 C 0.3029 0.51204 0.2797 0.0
C244 C 0.31005 0.50782 0.22541 0.0
C245 C 0.29509 0.50706 0.17934 0.0
H246 H 0.20275 0.50966 0.12658 0.0
C247 C 0.28296 0.51344 0.27479 0.0
C248 C 0.27796 0.51059 0.21605 0.0
H249 H 0.24476 0.50351 0.99593 0.0
H250 H 0.26811 0.50555 0.0721 0.0
H251 H 0.21982 0.48354 0.22085 0.0
H252 H 0.22163 0.5414 0.19367 0.0
H253 H 0.21969 0.53819 0.2695 0.0
H254 H 0.20189 0.52998 0.22205 0.0
H255 H 0.20095 0.49813 0.23768 0.0
H256 H 0.21852 0.49329 0.29068 0.0
C257 C 0.29494 0.48793 0.15175 0.0
C258 C 0.29851 0.52244 0.1345 0.0
C259 C 0.24672 0.52431 0.46085 0.0
C260 C 0.22798 0.52539 0.47251 0.0
C261 C 0.21554 0.52306 0.42609 0.0
C262 C 0.22166 0.51985 0.36902 0.0
C263 C 0.24047 0.51896 0.35788 0.0
C264 C 0.2526 0.52105 0.40352 0.0
C265 C 0.27201 0.5194 0.38383 0.0
C266 C 0.26956 0.51616 0.31862 0.0
C267 C 0.25113 0.516 0.30371 0.0
C268 C 0.28042 0.50263 0.41554 0.0
C269 C 0.28163 0.53785 0.39617 0.0
C270 C 0.21696 0.50858 0.11404 0.0
C271 C 0.22186 0.50614 0.05531 0.0
C272 C 0.2406 0.50534 0.04101 0.0
C273 C 0.2541 0.5065 0.08523 0.0
C274 C 0.2488 0.50877 0.14417 0.0
C275 C 0.23039 0.50992 0.15701 0.0
C276 C 0.2267 0.51288 0.2206 0.0
C277 C 0.24583 0.5134 0.24472 0.0
C278 C 0.25902 0.51084 0.20042 0.0
C279 C 0.21583 0.49624 0.24403 0.0
C280 C 0.21686 0.53148 0.22728 0.0
H281 H 0.30979 0.51754 0.37106 0.0
H282 H 0.33454 0.50111 0.17604 0.0
H283 H 0.3018 0.53539 0.15726 0.0
H284 H 0.28646 0.52531 0.10723 0.0
H285 H 0.31015 0.51901 0.10539 0.0
H286 H 0.29483 0.47727 0.18647 0.0
H287 H 0.30723 0.48582 0.12415 0.0
H288 H 0.28278 0.48559 0.12449 0.0
H289 H 0.25663 0.52591 0.49558 0.0
H290 H 0.20101 0.52415 0.43366 0.0
H291 H 0.21148 0.51836 0.33576 0.0
H292 H 0.26989 0.49216 0.42558 0.0
H293 H 0.28683 0.50658 0.45763 0.0
H294 H 0.29053 0.49531 0.38851 0.0
H295 H 0.2719 0.54944 0.39284 0.0
H296 H 0.29237 0.54112 0.36381 0.0
H297 H 0.28757 0.53811 0.44084 0.0
H298 H 0.34163 0.51238 0.36026 0.0
C299 C 0.31441 0.51404 0.32816 0.0
C300 C 0.95637 0.24958 0.38157 0.0
C301 C 0.95732 0.23151 0.40153 0.0
C302 C 0.9674 0.21864 0.36949 0.0
C303 C 0.97578 0.24179 0.29909 0.0
C304 C 0.9661 0.25452 0.33091 0.0
C305 C 0.96766 0.27334 0.30479 0.0
H306 H 0.02887 0.32783 0.18741 0.0
C307 C 0.9845 0.25113 0.24928 0.0
C308 C 0.98032 0.2697 0.25283 0.0
H309 H 0.9798 0.34199 0.28231 0.0
H310 H 0.9677 0.31192 0.26488 0.0
H311 H 0.03494 0.28287 0.2286 0.0
H312 H 1.00253 0.2946 0.07391 0.0
H313 H 0.02668 0.28942 0.06984 0.0
H314 H 0.01955 0.3115 0.08929 0.0
H315 H 0.04472 0.29767 0.17373 0.0
H316 H 0.04035 0.27414 0.15709 0.0
C317 C 0.97602 0.28641 0.35103 0.0
C318 C 0.94848 0.27919 0.284 0.0
C319 C 0.01831 0.21374 0.09974 0.0
C320 C 0.02357 0.21759 0.04193 0.0
C321 C 0.02326 0.23594 0.0227 0.0
C322 C 0.01797 0.25008 0.06102 0.0
C323 C 0.01332 0.24591 0.11917 0.0
C324 C 0.01261 0.22784 0.13641 0.0
C325 C 1.00204 0.22527 0.19209 0.0
C326 C 0.99605 0.24463 0.2043 0.0
C327 C 1.00383 0.25685 0.16416 0.0
C328 C 0.0154 0.21809 0.23937 0.0
C329 C 0.98557 0.21256 0.17943 0.0
C330 C 0.01564 0.32431 0.2051 0.0
C331 C 1.00558 0.33713 0.23825 0.0
C332 C 0.98801 0.33236 0.25803 0.0
C333 C 0.98119 0.31483 0.2497 0.0
C334 C 0.99207 0.30179 0.2223 0.0
C335 C 0.00823 0.30677 0.19586 0.0
C336 C 0.01586 0.2912 0.15961 0.0
C337 C 1.00217 0.27595 0.17372 0.0
C338 C 0.98933 0.2822 0.21484 0.0
C339 C 0.03511 0.28619 0.18108 0.0
C340 C 0.01605 0.29686 0.09451 0.0
H341 H 0.98393 0.21315 0.29613 0.0
H342 H 0.9487 0.25967 0.40572 0.0
H343 H 0.94136 0.26769 0.26218 0.0
H344 H 0.94898 0.29027 0.25121 0.0
H345 H 0.93999 0.28363 0.32164 0.0
H346 H 0.99074 0.28887 0.34267 0.0
H347 H 0.97505 0.28094 0.39631 0.0
H348 H 0.96884 0.29967 0.35257 0.0
H349 H 0.0171 0.19977 0.11477 0.0
H350 H 0.02647 0.23923 0.97762 0.0
H351 H 0.01614 0.26352 0.04341 0.0
H352 H 0.02933 0.22375 0.23274 0.0
H353 H 0.0165 0.20301 0.23789 0.0
H354 H 0.0116 0.22232 0.28413 0.0
H355 H 0.98054 0.21445 0.13389 0.0
H356 H 0.97357 0.21545 0.20704 0.0
H357 H 0.98936 0.198 0.18473 0.0
H358 H 0.96814 0.20459 0.38406 0.0
C359 C 0.97655 0.22365 0.3184 0.0
C360 C 0.29249 0.00724 0.03737 0.0
C361 C 0.30939 0.99904 0.02351 0.0
C362 C 0.31469 0.98316 0.05329 0.0
C363 C 0.28718 0.984 0.11174 0.0
C364 C 0.28149 0.99935 0.08169 0.0
C365 C 0.26292 1.00565 0.10311 0.0
H366 H 0.19335 0.9931 0.30105 0.0
C367 C 0.2734 0.97941 0.15655 0.0
C368 C 0.25892 0.99191 0.15204 0.0
H369 H 0.19513 0.03361 0.16424 0.0
H370 H 0.22493 0.02229 0.13273 0.0
H371 H 0.20853 0.95981 0.22519 0.0
H372 H 0.23279 0.99841 0.34223 0.0
H373 H 0.24526 0.97831 0.35231 0.0
H374 H 0.22119 0.97855 0.36876 0.0
H375 H 0.20488 0.95971 0.3029 0.0
H376 H 0.22366 0.94762 0.27025 0.0
C377 C 0.24926 1.00393 0.05213 0.0
C378 C 0.26473 0.02522 0.12673 0.0
C379 C 0.28809 0.9296 0.3035 0.0
C380 C 0.27973 0.9241 0.35599 0.0
C381 C 0.26243 0.93103 0.37032 0.0
C382 C 0.25386 0.94378 0.33371 0.0
C383 C 0.26288 0.94996 0.28292 0.0
C384 C 0.27959 0.94267 0.26827 0.0
C385 C 0.28785 0.95173 0.21546 0.0
C386 C 0.27339 0.96583 0.20095 0.0
C387 C 0.25881 0.96464 0.24027 0.0
C388 C 0.28965 0.9372 0.16664 0.0
C389 C 0.30608 0.96067 0.23453 0.0
C390 C 0.20013 0.99947 0.26408 0.0
C391 C 0.19201 0.0141 0.23487 0.0
C392 C 0.20123 0.02221 0.1872 0.0
C393 C 0.21845 0.01562 0.16905 0.0
C394 C 0.22643 1.0008 0.19901 0.0
C395 C 0.2171 0.99309 0.2457 0.0
C396 C 0.22724 0.97775 0.27383 0.0
C397 C 0.24404 0.97695 0.23568 0.0
C398 C 0.24385 0.99053 0.1918 0.0
C399 C 0.21553 0.96026 0.26834 0.0
C400 C 0.23181 0.98335 0.33769 0.0
H401 H 0.30879 0.96359 0.11807 0.0
H402 H 0.28806 0.0194 0.01457 0.0
H403 H 0.27671 0.02629 0.1563 0.0
H404 H 0.2528 0.02946 0.1527 0.0
H405 H 0.26663 0.0351 0.0903 0.0
H406 H 0.23497 1.00413 0.06697 0.0
H407 H 0.25111 0.99072 0.02918 0.0
H408 H 0.2513 0.01504 0.01962 0.0
H409 H 0.30164 0.92489 0.29226 0.0
H410 H 0.25585 0.92704 0.41086 0.0
H411 H 0.24082 0.94877 0.34754 0.0
H412 H 0.27876 0.92671 0.17029 0.0
H413 H 0.30296 0.93004 0.16923 0.0
H414 H 0.28794 0.94299 0.12221 0.0
H415 H 0.30958 0.97297 0.20896 0.0
H416 H 0.31755 0.95084 0.23188 0.0
H417 H 0.30531 0.96556 0.28054 0.0
H418 H 0.32756 0.97665 0.04305 0.0
C419 C 0.30373 0.9756 0.09696 0.0
C420 C 0.49258 0.29002 0.03181 0.0
C421 C 0.4874 0.30855 0.02695 0.0
C422 C 0.47712 0.31644 0.07217 0.0
C423 C 0.47819 0.28836 0.1277 0.0
C424 C 0.48746 0.28004 0.0824 0.0
C425 C 0.49059 0.25997 0.09555 0.0
H426 H 0.4798 0.19003 0.29372 0.0
C427 C 0.47544 0.27502 0.17522 0.0
C428 C 0.48216 0.25803 0.1566 0.0
H429 H 0.50506 0.18583 0.12399 0.0
H430 H 0.49931 0.21826 0.10597 0.0
H431 H 0.50004 0.22258 0.32844 0.0
H432 H 0.44626 0.21661 0.25986 0.0
H433 H 0.44487 0.2324 0.31757 0.0
H434 H 0.45329 0.20976 0.3319 0.0
H435 H 0.48096 0.21923 0.37602 0.0
H436 H 0.48871 0.24173 0.35563 0.0
C437 C 0.51128 0.25632 0.09622 0.0
C438 C 0.48025 0.24863 0.04959 0.0
C439 C 0.45889 0.29796 0.37709 0.0
C440 C 0.45877 0.28925 0.43207 0.0
C441 C 0.45817 0.27012 0.43443 0.0
C442 C 0.45945 0.25984 0.38307 0.0
C443 C 0.46179 0.26879 0.32898 0.0
C444 C 0.46065 0.28752 0.32631 0.0
C445 C 0.46387 0.29474 0.26541 0.0
C446 C 0.46867 0.27729 0.23303 0.0
C447 C 0.4674 0.26225 0.27051 0.0
C448 C 0.48016 0.30819 0.26758 0.0
C449 C 0.44581 0.30328 0.24303 0.0
C450 C 0.48384 0.19602 0.25222 0.0
C451 C 0.49257 0.18548 0.20994 0.0
C452 C 0.49812 0.19379 0.15702 0.0
C453 C 0.49476 0.21254 0.14674 0.0
C454 C 0.48596 0.22298 0.19018 0.0
C455 C 0.48086 0.2145 0.24192 0.0
C456 C 0.47312 0.22734 0.28586 0.0
C457 C 0.47338 0.24494 0.25151 0.0
C458 C 0.4809 0.24263 0.19515 0.0
C459 C 0.48621 0.22776 0.33946 0.0
C460 C 0.45338 0.22125 0.30014 0.0
H461 H 0.46489 0.31349 0.15507 0.0
H462 H 0.50022 0.28352 0.9971 0.0
H463 H 0.47879 0.23423 0.06255 0.0
H464 H 0.48726 0.24926 0.00649 0.0
H465 H 0.46618 0.25395 0.04373 0.0
H466 H 0.51842 0.26682 0.12268 0.0
H467 H 0.51697 0.25676 0.05114 0.0
H468 H 0.51472 0.24306 0.1161 0.0
H469 H 0.45944 0.31267 0.37387 0.0
H470 H 0.45784 0.26313 0.47626 0.0
H471 H 0.45956 0.24532 0.38794 0.0
H472 H 0.49146 0.3024 0.29421 0.0
H473 H 0.47605 0.32133 0.28761 0.0
H474 H 0.48611 0.3112 0.22436 0.0
H475 H 0.43385 0.29886 0.26948 0.0
H476 H 0.44258 0.29899 0.1977 0.0
H477 H 0.44627 0.31839 0.24475 0.0
H478 H 0.47296 0.33058 0.06939 0.0
C479 C 0.47248 0.3065 0.1221 0.0
Tb480 Tb 0.0304 1.00418 0.7289 0.0
Tb481 Tb 1.00331 0.01676 0.64925 0.0
C482 C 0.04943 0.98501 0.79596 0.0
C483 C 0.05796 0.96733 0.78309 0.0
C484 C 0.05583 0.95283 0.82242 0.0
C485 C 0.06024 0.93512 0.80541 0.0
C486 C 0.06694 0.93159 0.74869 0.0
C487 C 0.07022 0.94635 0.71085 0.0
C488 C 0.06565 0.96403 0.7277 0.0
C489 C 0.04437 0.01892 0.63273 0.0
C490 C 0.01401 0.97654 0.63455 0.0
C491 C 0.98388 0.03411 0.57746 0.0
C492 C 0.9722 0.05036 0.5823 0.0
C493 C 0.97874 0.06638 0.60807 0.0
C494 C 0.96717 0.08118 0.61693 0.0
C495 C 0.94892 0.08038 0.59887 0.0
C496 C 0.94243 0.06454 0.57162 0.0
C497 C 0.95396 0.04956 0.56391 0.0
C498 C 0.98934 1.0024 0.74662 0.0
C499 C 0.01981 0.0444 0.74452 0.0
O500 O 0.03161 0.98481 0.79665 0.0
O501 O 0.05586 0.999 0.76712 0.0
O502 O 0.03083 0.00835 0.63514 0.0
O503 O 0.05058 0.02117 0.68504 0.0
O504 O 0.02155 0.97855 0.68666 0.0
O505 O 0.00824 0.99098 0.60562 0.0
O506 O 1.00148 0.03654 0.58298 0.0
O507 O 0.97821 0.01988 0.60657 0.0
O508 O 1.00297 0.01276 0.74306 0.0
O509 O 0.98291 1.00023 0.69457 0.0
O510 O 0.01165 0.04236 0.69312 0.0
O511 O 0.02624 0.03006 0.7727 0.0
H512 H 0.04969 0.95505 0.86497 0.0
H513 H 0.05719 0.9241 0.83549 0.0
H514 H 0.07554 0.94418 0.6672 0.0
H515 H 0.06725 0.97496 0.69611 0.0
H516 H 0.99282 0.06749 0.62116 0.0
H517 H 0.97261 0.09343 0.63662 0.0
H518 H 0.92845 0.06374 0.55674 0.0
H519 H 0.94864 0.03732 0.54386 0.0
Tb520 Tb 0.51876 0.02077 0.70434 0.0
Tb521 Tb 0.50616 0.99708 0.61286 0.0
C522 C 0.53893 0.03428 0.78068 0.0
C523 C 0.55879 0.03132 0.78459 0.0
C524 C 0.56568 0.01351 0.78905 0.0
C525 C 0.58363 0.00977 0.77351 0.0
C526 C 0.59519 0.02374 0.75335 0.0
C527 C 0.58879 0.0418 0.75448 0.0
C528 C 0.57075 0.04555 0.76995 0.0
C529 C 0.50581 0.03838 0.61207 0.0
C530 C 0.54669 1.00545 0.61062 0.0
C531 C 0.48838 0.98151 0.53389 0.0
C532 C 0.47228 0.96938 0.53628 0.0
C533 C 0.45474 0.97649 0.52732 0.0
C534 C 0.43943 0.96536 0.53314 0.0
C535 C 0.4413 0.94683 0.54776 0.0
C536 C 0.45884 0.93962 0.55572 0.0
C537 C 0.47417 0.95077 0.54999 0.0
C538 C 0.51894 0.97929 0.70534 0.0
C539 C 0.47769 0.01238 0.70965 0.0
O540 O 0.52859 0.02005 0.79062 0.0
O541 O 0.53376 0.04323 0.73402 0.0
O542 O 0.51573 0.02437 0.61129 0.0
O543 O 0.50326 0.04326 0.66592 0.0
O544 O 0.54384 0.00888 0.66659 0.0
O545 O 0.53264 1.00372 0.57525 0.0
O546 O 0.4857 0.99851 0.5489 0.0
O547 O 0.50347 0.97498 0.55593 0.0
O548 O 0.5091 0.99333 0.70574 0.0
O549 O 0.52115 0.97428 0.65169 0.0
O550 O 0.48042 1.00412 0.6587 0.0
O551 O 0.49144 0.01919 0.73957 0.0
H552 H 0.55687 1.00215 0.79994 0.0
H553 H 0.58794 0.99567 0.7733 0.0
H554 H 0.5975 0.053 0.74132 0.0
H555 H 0.56579 0.05941 0.76633 0.0
H556 H 0.45284 0.99073 0.51625 0.0
H557 H 0.42611 0.97124 0.52541 0.0
H558 H 0.46072 0.92542 0.56712 0.0
H559 H 0.48749 0.9448 0.55705 0.0
Tb560 Tb 0.50476 0.51834 0.72852 0.0
Tb561 Tb 0.5325 0.50779 0.64728 0.0
C562 C 0.48513 0.53409 0.80301 0.0
C563 C 0.47252 0.54981 0.80213 0.0
C564 C 0.47909 0.56778 0.80077 0.0
C565 C 0.46698 0.58246 0.80099 0.0
C566 C 0.44803 0.57953 0.80239 0.0
C567 C 0.4415 0.56153 0.80302 0.0
C568 C 0.45361 0.54685 0.80321 0.0
C569 C 0.49151 0.50533 0.62899 0.0
C570 C 0.52105 0.5481 0.63864 0.0
C571 C 0.55195 0.49054 0.57611 0.0
C572 C 0.55749 0.47128 0.57721 0.0
C573 C 0.55441 0.46049 0.52787 0.0
C574 C 0.55534 0.44156 0.53216 0.0
C575 C 0.55948 0.43304 0.58596 0.0
C576 C 0.56419 0.44401 0.63393 0.0
C577 C 0.56305 0.46295 0.62977 0.0
C578 C 0.54554 0.52119 0.74645 0.0
C579 C 0.516 0.47824 0.73503 0.0
O580 O 0.50252 0.53748 0.79609 0.0
O581 O 0.47992 0.5198 0.77353 0.0
O582 O 0.50486 0.51597 0.63445 0.0
O583 O 0.48482 0.50215 0.68029 0.0
O584 O 0.5121 0.54484 0.68809 0.0
O585 O 0.52878 0.53465 0.60957 0.0
O586 O 0.5345 0.49326 0.56856 0.0
O587 O 0.55861 0.50084 0.61737 0.0
O588 O 0.53237 0.51028 0.74141 0.0
O589 O 0.55192 0.52468 0.69483 0.0
O590 O 0.52276 0.48137 0.68227 0.0
O591 O 0.51086 0.49204 0.76785 0.0
H592 H 0.49358 0.57057 0.80019 0.0
H593 H 0.47254 0.59612 0.80165 0.0
H594 H 0.42701 0.55875 0.8035 0.0
H595 H 0.44815 0.53314 0.8044 0.0
H596 H 0.55 0.46664 0.48709 0.0
H597 H 0.55135 0.43367 0.49435 0.0
H598 H 0.56772 0.43796 0.67569 0.0
H599 H 0.56545 0.47096 0.66873 0.0
Tb600 Tb 0.01166 0.49631 0.72757 0.0
Tb601 Tb 0.02117 0.52494 0.65289 0.0
C602 C 0.99495 0.47393 0.79067 0.0
C603 C 0.97991 0.46211 0.77224 0.0
C604 C 0.96511 0.45912 0.80963 0.0
C605 C 0.94917 0.45119 0.78816 0.0
C606 C 0.9478 0.44613 0.72883 0.0
C607 C 0.9631 0.44815 0.69246 0.0
C608 C 0.97897 0.45617 0.71385 0.0
C609 C 0.02687 0.48459 0.62887 0.0
C610 C 0.98229 0.51104 0.63505 0.0
C611 C 0.03809 0.54729 0.59036 0.0
C612 C 0.05337 0.55873 0.6094 0.0
C613 C 0.06845 0.56118 0.57276 0.0
C614 C 0.08461 0.56837 0.59516 0.0
C615 C 0.08594 0.57322 0.6547 0.0
C616 C 0.07038 0.57185 0.69024 0.0
C617 C 0.05428 0.56458 0.66791 0.0
C618 C 1.00604 0.53677 0.7516 0.0
C619 C 0.05055 0.51014 0.74488 0.0
O620 O 0.99116 0.49133 0.78985 0.0
O621 O 0.01074 0.47046 0.7668 0.0
O622 O 0.01521 0.4971 0.6335 0.0
O623 O 0.03032 0.47843 0.68058 0.0
O624 O 0.98515 0.50304 0.6862 0.0
O625 O 0.99605 0.51865 0.60709 0.0
O626 O 0.04156 0.52983 0.5902 0.0
O627 O 0.02238 0.55091 0.61451 0.0
O628 O 0.01762 0.52415 0.74713 0.0
O629 O 1.00265 0.54287 0.69977 0.0
O630 O 0.0477 0.51794 0.69345 0.0
O631 O 0.03673 0.5028 0.77329 0.0
H632 H 0.96549 0.46388 0.85446 0.0
H633 H 0.93755 0.45016 0.81722 0.0
H634 H 0.96255 0.44428 0.6468 0.0
H635 H 0.99016 0.45858 0.68382 0.0
H636 H 0.0681 0.55648 0.52787 0.0
H637 H 0.0964 0.56891 0.5667 0.0
H638 H 0.0709 0.57558 0.73603 0.0
H639 H 0.04288 0.56257 0.6974 0.0
C640 C 0.17316 0.03241 0.30392 0.0
C641 C 0.17405 0.02046 0.25622 0.0
C642 C 0.15679 0.03483 0.33462 0.0
C643 C 0.11429 0.00973 0.36801 0.0
H644 H 0.10087 0.05452 0.44628 0.0
C645 C 0.05256 0.013 0.52718 0.0
C646 C 0.05589 0.02205 0.58019 0.0
C647 C 0.06491 0.01452 0.48034 0.0
C648 C 0.10445 0.04186 0.42493 0.0
H649 H 0.15857 1.00199 0.20218 0.0
H650 H 0.12978 0.00654 0.25454 0.0
H651 H 0.12608 0.05453 0.37653 0.0
H652 H 0.07434 0.04035 0.62483 0.0
H653 H 0.09575 0.043 0.54383 0.0
H654 H 0.09295 0.99698 0.41739 0.0
C655 C 0.14172 0.01398 0.26876 0.0
C656 C 0.11894 0.04187 0.38486 0.0
C657 C 0.15811 0.01157 0.23812 0.0
C658 C 0.07139 0.0332 0.58454 0.0
C659 C 0.08364 0.0348 0.53783 0.0
C660 C 0.09979 0.00973 0.40803 0.0
C661 C 0.14095 0.02521 0.31859 0.0
C662 C 0.12429 0.02573 0.35657 0.0
C663 C 0.08077 0.02524 0.48537 0.0
C664 C 0.09488 0.02572 0.43795 0.0
H665 H 0.1854 0.03903 0.31961 0.0
H666 H 0.15688 0.04341 0.37307 0.0
H667 H 0.11812 0.99696 0.34794 0.0
H668 H 0.04073 1.0043 0.52252 0.0
H669 H 0.06214 0.00712 0.4404 0.0
C670 C 0.48137 0.15389 0.22639 0.0
C671 C 0.49605 0.16613 0.22465 0.0
C672 C 0.4827 0.13752 0.25775 0.0
C673 C 0.51463 0.1068 0.33946 0.0
H674 H 0.472 0.09791 0.43586 0.0
C675 C 0.51085 0.04676 0.5064 0.0
C676 C 0.5033 0.05084 0.5614 0.0
C677 C 0.50963 0.05925 0.45992 0.0
C678 C 0.48406 0.1002 0.40945 0.0
H679 H 0.5238 0.17066 0.25255 0.0
H680 H 0.52627 0.14205 0.3072 0.0
H681 H 0.47129 0.12188 0.36223 0.0
H682 H 0.48821 0.07105 0.6104 0.0
H683 H 0.48607 0.0928 0.52977 0.0
H684 H 0.52759 0.08547 0.38853 0.0
C685 C 0.5138 0.14484 0.28353 0.0
C686 C 0.48357 0.11382 0.36646 0.0
C687 C 0.51247 0.1612 0.25189 0.0
C688 C 0.49413 0.06748 0.56852 0.0
C689 C 0.49284 0.07992 0.52211 0.0
C690 C 0.5151 0.0931 0.38249 0.0
C691 C 0.49867 0.13311 0.28887 0.0
C692 C 0.49891 0.11748 0.33119 0.0
C693 C 0.50071 0.07608 0.46726 0.0
C694 C 0.49989 0.08979 0.41866 0.0
H695 H 0.46845 0.15756 0.20673 0.0
H696 H 0.47088 0.1287 0.25983 0.0
H697 H 0.52666 0.10911 0.31298 0.0
H698 H 0.51799 0.03403 0.49952 0.0
H699 H 0.51565 0.05572 0.4182 0.0
C700 C 0.36632 0.48637 0.29664 0.0
C701 C 0.36028 0.50211 0.26748 0.0
C702 C 0.38399 0.48537 0.31939 0.0
C703 C 0.41971 0.5171 0.37299 0.0
H704 H 0.44381 0.47195 0.41515 0.0
C705 C 0.48281 0.51494 0.52683 0.0
C706 C 0.48065 0.50307 0.57476 0.0
C707 C 0.47086 0.51408 0.47894 0.0
C708 C 0.43727 0.48469 0.40356 0.0
H709 H 0.36839 0.52863 0.23553 0.0
H710 H 0.39967 0.52657 0.27198 0.0
H711 H 0.41884 0.47155 0.34471 0.0
H712 H 0.46489 0.48048 0.60893 0.0
H713 H 0.44438 0.47865 0.5249 0.0
H714 H 0.43822 0.53015 0.43212 0.0
C715 C 0.39062 0.51512 0.27899 0.0
C716 C 0.42286 0.48448 0.36329 0.0
C717 C 0.37281 0.51617 0.25676 0.0
C718 C 0.46688 0.4898 0.57261 0.0
C719 C 0.45518 0.48871 0.52436 0.0
C720 C 0.43431 0.51732 0.41251 0.0
C721 C 0.39617 0.5001 0.31338 0.0
C722 C 0.41346 0.50062 0.34861 0.0
C723 C 0.45676 0.50108 0.47746 0.0
C724 C 0.44294 0.50107 0.42951 0.0
H725 H 0.35678 0.47554 0.30686 0.0
H726 H 0.38745 0.47363 0.34586 0.0
H727 H 0.41278 0.52981 0.36404 0.0
H728 H 0.49326 0.52536 0.52736 0.0
H729 H 0.47248 0.52374 0.44337 0.0
C730 C 0.02961 0.35559 0.28889 0.0
C731 C 0.01327 0.35495 0.25705 0.0
C732 C 0.03445 0.37133 0.31991 0.0
C733 C 0.02321 0.42056 0.34249 0.0
H734 H 0.03651 0.41016 0.50324 0.0
C735 C 0.01696 0.47403 0.52907 0.0
C736 C 0.02908 0.47289 0.57651 0.0
C737 C 0.01747 0.46101 0.4842 0.0
C738 C 0.03317 0.41346 0.4583 0.0
H739 H 0.98994 0.37077 0.22892 0.0
H740 H 0.9984 0.39819 0.28231 0.0
H741 H 0.03394 0.38537 0.43376 0.0
H742 H 0.05191 0.45792 0.61239 0.0
H743 H 0.05327 0.43569 0.53357 0.0
H744 H 0.02221 0.44867 0.36742 0.0
C745 C 0.00751 0.3866 0.2837 0.0
C746 C 0.03169 0.39915 0.41826 0.0
C747 C 1.00263 0.37085 0.25312 0.0
C748 C 0.04231 0.45907 0.57657 0.0
C749 C 0.04295 0.4462 0.53157 0.0
C750 C 0.0248 0.43493 0.38256 0.0
C751 C 0.02312 0.38683 0.31937 0.0
C752 C 0.02648 0.40244 0.35996 0.0
C753 C 0.03022 0.44663 0.4855 0.0
C754 C 0.0296 0.43157 0.4413 0.0
H755 H 0.03801 0.34352 0.29317 0.0
H756 H 0.04673 0.37112 0.34617 0.0
H757 H 0.01933 0.42363 0.29783 0.0
H758 H 0.00652 0.48446 0.528 0.0
H759 H 0.00733 0.46178 0.44991 0.0
C760 C 0.87541 0.02799 0.11559 0.0
C761 C 0.86371 0.01363 0.13159 0.0
C762 C 0.89213 0.02453 0.08838 0.0
C763 C 0.91353 0.98846 0.99753 0.0
H764 H 0.95262 0.02383 0.98884 0.0
C765 C 0.96008 0.9934 0.79497 0.0
C766 C 0.97792 1.00015 0.79992 0.0
C767 C 0.94845 0.99287 0.8435 0.0
C768 C 0.94205 0.01357 0.99109 0.0
H769 H 0.86132 0.98432 0.13709 0.0
H770 H 0.89097 0.97815 0.09237 0.0
H771 H 0.92964 0.0265 0.06487 0.0
H772 H 0.99781 0.01094 0.86045 0.0
H773 H 0.97773 0.00947 0.946 0.0
H774 H 0.92618 0.97525 0.92482 0.0
C775 C 0.88691 0.99218 0.09864 0.0
C776 C 0.92861 0.01527 0.03447 0.0
C777 C 0.87003 0.99568 0.12547 0.0
C778 C 0.9841 1.00574 0.85521 0.0
C779 C 0.97249 1.00503 0.90415 0.0
C780 C 0.9271 0.98661 0.95475 0.0
C781 C 0.89781 0.00656 0.07698 0.0
C782 C 0.91379 1.00308 0.03729 0.0
C783 C 0.95435 0.99885 0.89888 0.0
C784 C 0.94127 0.99946 0.94954 0.0
H785 H 0.87096 0.04199 0.11991 0.0
H786 H 0.89989 0.03607 0.07249 0.0
H787 H 0.90239 0.9788 0.99743 0.0
H788 H 0.95485 0.98903 0.75298 0.0
H789 H 0.93457 0.98836 0.8368 0.0
C790 C 0.50039 0.86327 0.08091 0.0
C791 C 0.51223 0.84822 0.07979 0.0
C792 C 0.50422 0.87894 0.0481 0.0
C793 C 0.52673 0.89221 0.91222 0.0
H794 H 0.51803 0.94162 0.96448 0.0
C795 C 0.53412 0.95238 0.7511 0.0
C796 C 0.52158 0.96674 0.75554 0.0
C797 C 0.53547 0.93923 0.7954 0.0
C798 C 0.52033 0.92792 0.9488 0.0
H799 H 0.53761 0.83796 0.04487 0.0
H800 H 0.5443 0.86537 0.9867 0.0
H801 H 0.51612 0.91644 0.03436 0.0
H802 H 0.50097 0.97895 0.81067 0.0
H803 H 0.50272 0.95567 0.8871 0.0
H804 H 0.53005 0.9033 0.82639 0.0
C805 C 0.53209 0.86505 0.01334 0.0
C806 C 0.51935 0.91348 0.9891 0.0
C807 C 0.52838 0.84945 0.04702 0.0
C808 C 0.51081 0.96805 0.80618 0.0
C809 C 0.51191 0.95469 0.85017 0.0
C810 C 0.52747 0.90657 0.8718 0.0
C811 C 0.51984 0.87983 0.01251 0.0
C812 C 0.52242 0.89543 0.9712 0.0
C813 C 0.52404 0.93986 0.84498 0.0
C814 C 0.52416 0.92468 0.88925 0.0
H815 H 0.48777 0.86261 0.10549 0.0
H816 H 0.49443 0.88998 0.04813 0.0
H817 H 0.52884 0.87844 0.8967 0.0
H818 H 0.54275 0.95116 0.71279 0.0
H819 H 0.54536 0.92842 0.79022 0.0
C820 C 0.66337 0.53049 0.1285 0.0
C821 C 0.67198 0.51342 0.12775 0.0
C822 C 0.64622 0.53282 0.10211 0.0
C823 C 0.60776 0.50723 0.02936 0.0
H824 H 0.60502 0.55062 0.93289 0.0
C825 C 0.55107 0.51584 0.85407 0.0
C826 C 0.55662 0.52339 0.80033 0.0
C827 C 0.56256 0.51652 0.90317 0.0
C828 C 0.60556 0.53835 0.95923 0.0
H829 H 0.66891 0.4852 0.1028 0.0
H830 H 0.6394 0.48912 0.05682 0.0
H831 H 0.62924 0.54767 1.00453 0.0
H832 H 0.57835 0.53803 0.75645 0.0
H833 H 0.59845 0.53883 0.84067 0.0
H834 H 0.58482 0.49738 0.98119 0.0
C835 C 0.6455 0.50079 0.078 0.0
C836 C 0.61935 0.53679 1.00134 0.0
C837 C 0.66251 0.49848 0.10444 0.0
C838 C 0.57363 0.53211 0.79723 0.0
C839 C 0.58514 0.53268 0.84596 0.0
C840 C 0.59408 0.50871 0.98679 0.0
C841 C 0.63738 0.51812 0.07425 0.0
C842 C 0.62097 0.52099 0.03609 0.0
C843 C 0.57993 0.5247 0.89959 0.0
C844 C 0.59305 0.5241 0.94996 0.0
H845 H 0.67044 0.54228 0.14557 0.0
H846 H 0.64028 0.54631 0.1013 0.0
H847 H 0.60825 0.495 0.05591 0.0
H848 H 0.538 0.50908 0.85787 0.0
H849 H 0.55788 0.51047 0.94376 0.0
C850 C 0.98163 0.65294 0.119 0.0
C851 C 0.99553 0.66607 0.12227 0.0
C852 C 0.98494 0.63588 0.09366 0.0
C853 C 0.01269 0.61864 0.97467 0.0
H854 H 0.99133 0.57162 0.01131 0.0
C855 C 0.99634 0.56606 0.7974 0.0
C856 C 1.00416 0.54868 0.80378 0.0
C857 C 0.99641 0.57845 0.84369 0.0
C858 C 0.99749 0.58464 1.00083 0.0
H859 H 0.02404 0.67122 0.10519 0.0
H860 H 0.02994 0.6414 0.06145 0.0
H861 H 0.99049 0.59619 0.08433 0.0
H862 H 0.01743 0.5304 0.86495 0.0
H863 H 0.01699 0.55207 0.94713 0.0
H864 H 0.01891 0.60749 0.89043 0.0
C865 C 0.01647 0.64425 0.07854 0.0
C866 C 0.99697 0.5987 0.04246 0.0
C867 C 0.01319 0.66122 0.10449 0.0
C868 C 0.01129 0.54368 0.8587 0.0
C869 C 0.01106 0.55606 0.90564 0.0
C870 C 0.0129 0.60476 0.93291 0.0
C871 C 1.00218 0.63173 0.07018 0.0
C872 C 1.00442 0.61595 0.02962 0.0
C873 C 1.00399 0.57373 0.89805 0.0
C874 C 1.0051 0.58769 0.94511 0.0
H875 H 0.9678 0.6565 0.13098 0.0
H876 H 0.9736 0.62664 0.08766 0.0
H877 H 0.01831 0.6318 0.96284 0.0
H878 H 0.99066 0.57038 0.75586 0.0
H879 H 0.99069 0.59189 0.83675 0.0
C880 C 0.92914 0.22553 0.46012 0.0
C881 C 0.9482 0.22554 0.45578 0.0
C882 C 0.92052 0.21506 0.50345 0.0
C883 C 0.93103 0.18194 0.62567 0.0
H884 H 0.89811 0.15119 0.53807 0.0
C885 C 0.93593 0.10593 0.6579 0.0
C886 C 0.93731 0.09671 0.60436 0.0
C887 C 0.92795 0.1232 0.66039 0.0
C888 C 0.9073 0.15958 0.56338 0.0
H889 H 0.97328 0.21671 0.49645 0.0
H890 H 0.95862 0.19837 0.57064 0.0
H891 H 0.90263 0.18245 0.50776 0.0
H892 H 0.93038 0.09754 0.51244 0.0
H893 H 0.91744 0.12781 0.51549 0.0
H894 H 0.93767 0.15851 0.67622 0.0
C895 C 0.95 0.20634 0.54191 0.0
C896 C 0.90964 0.17775 0.54662 0.0
C897 C 0.95853 0.21674 0.4989 0.0
C898 C 0.92941 0.10438 0.55428 0.0
C899 C 0.92181 0.12178 0.5564 0.0
C900 C 0.92913 0.16364 0.6413 0.0
C901 C 0.9309 0.20444 0.54264 0.0
C902 C 0.92273 0.18868 0.57458 0.0
C903 C 0.92169 0.13181 0.609 0.0
C904 C 0.91836 0.15187 0.60721 0.0
H905 H 0.92094 0.23233 0.42725 0.0
H906 H 0.90579 0.21424 0.50346 0.0
H907 H 0.94058 0.19024 0.64995 0.0
H908 H 0.94173 0.10009 0.69731 0.0
H909 H 0.92765 0.13018 0.70203 0.0
C910 C 0.29396 0.92164 0.45424 0.0
C911 C 0.29062 0.91385 0.39933 0.0
C912 C 0.3086 0.91565 0.48814 0.0
C913 C 0.35362 0.8977 0.45449 0.0
H914 H 0.36207 0.9104 0.61671 0.0
C915 C 0.42481 0.91763 0.52684 0.0
C916 C 0.42495 0.93502 0.55243 0.0
C917 C 0.40867 0.90758 0.5241 0.0
C918 C 0.35992 0.90659 0.57148 0.0
H919 H 0.29812 0.89212 0.3403 0.0
H920 H 0.32325 0.88103 0.4007 0.0
H921 H 0.33106 0.90433 0.58323 0.0
H922 H 0.40876 0.95472 0.60011 0.0
H923 H 0.38052 0.93748 0.59379 0.0
H924 H 0.3822 0.90089 0.44175 0.0
C925 C 0.31508 0.89225 0.41669 0.0
C926 C 0.34217 0.90314 0.55224 0.0
C927 C 0.30063 0.89847 0.38227 0.0
C928 C 0.40897 0.94154 0.57899 0.0
C929 C 0.39285 0.9315 0.57623 0.0
C930 C 0.3713 0.901 0.47377 0.0
C931 C 0.32005 0.90162 0.46792 0.0
C932 C 0.3387 0.89966 0.49273 0.0
C933 C 0.39236 0.91471 0.54683 0.0
C934 C 0.37455 0.90643 0.53168 0.0
H935 H 0.28648 0.93358 0.46825 0.0
H936 H 0.31194 0.9233 0.52711 0.0
H937 H 0.35163 0.89527 0.40823 0.0
H938 H 0.4369 0.91221 0.50603 0.0
H939 H 0.40876 0.8946 0.5017 0.0
C940 C 0.47849 0.29474 0.5187 0.0
C941 C 0.46342 0.30002 0.48465 0.0
C942 C 0.48763 0.30753 0.55294 0.0
C943 C 0.49802 0.35423 0.52802 0.0
H944 H 0.52791 0.35123 0.66769 0.0
C945 C 0.5577 0.40118 0.54691 0.0
C946 C 0.55561 0.41329 0.59391 0.0
C947 C 0.54853 0.38454 0.54704 0.0
C948 C 0.51965 0.35212 0.62854 0.0
H949 H 0.44427 0.3218 0.46733 0.0
H950 H 0.46015 0.34413 0.52757 0.0
H951 H 0.50368 0.32856 0.65137 0.0
H952 H 0.5449 0.41595 0.68216 0.0
H953 H 0.529 0.38687 0.68221 0.0
H954 H 0.51398 0.37734 0.50411 0.0
C955 C 0.46515 0.33024 0.52672 0.0
C956 C 0.50577 0.3393 0.61943 0.0
C957 C 0.45604 0.31749 0.49233 0.0
C958 C 0.54651 0.40716 0.64464 0.0
C959 C 0.53739 0.39046 0.64486 0.0
C960 C 0.51194 0.36674 0.53661 0.0
C961 C 0.48178 0.32571 0.55357 0.0
C962 C 0.49487 0.34026 0.5689 0.0
C963 C 0.5373 0.37967 0.59441 0.0
C964 C 0.52305 0.3657 0.58641 0.0
H965 H 0.48453 0.28137 0.51367 0.0
H966 H 0.50039 0.30364 0.57326 0.0
H967 H 0.49014 0.35513 0.48804 0.0
H968 H 0.56522 0.40514 0.50808 0.0
H969 H 0.54905 0.37615 0.50816 0.0
C970 C 0.22917 0.54385 0.56473 0.0
C971 C 0.22124 0.52974 0.532 0.0
C972 C 0.22074 0.5501 0.61583 0.0
C973 C 0.17974 0.54213 0.71167 0.0
H974 H 0.17264 0.59381 0.68604 0.0
C975 C 0.10915 0.56885 0.73401 0.0
C976 C 0.10407 0.57705 0.6807 0.0
C977 C 0.12747 0.56807 0.75052 0.0
C978 C 0.17451 0.57941 0.69444 0.0
H979 H 0.19956 0.50974 0.53046 0.0
H980 H 0.18453 0.5209 0.61746 0.0
H981 H 0.19983 0.57923 0.64882 0.0
H982 H 0.11376 0.59335 0.60788 0.0
H983 H 0.14551 0.59136 0.63459 0.0
H984 H 0.15335 0.54179 0.75006 0.0
C985 C 0.1973 0.52717 0.60481 0.0
C986 C 0.19031 0.57103 0.67373 0.0
C987 C 0.20573 0.52092 0.55408 0.0
C988 C 0.11732 0.58645 0.64826 0.0
C989 C 0.13561 0.58553 0.66437 0.0
C990 C 0.16375 0.55043 0.73111 0.0
C991 C 0.20421 0.54238 0.63492 0.0
C992 C 0.19229 0.55199 0.67753 0.0
C993 C 0.14105 0.5753 0.71367 0.0
C994 C 0.16025 0.56884 0.71781 0.0
H995 H 0.2412 0.55085 0.54892 0.0
H996 H 0.22659 0.56164 0.63838 0.0
H997 H 0.18124 0.52756 0.71767 0.0
H998 H 0.09927 0.56162 0.76053 0.0
H999 H 0.13106 0.56052 0.78963 0.0
C1000 C 0.98905 0.81876 0.82347 0.0
C1001 C 0.99483 0.80206 0.84692 0.0
C1002 C 0.99848 0.82673 0.77697 0.0
C1003 C 0.04585 0.82815 0.73238 0.0
H1004 H 0.02698 0.86967 0.64736 0.0
C1005 C 0.07266 0.89828 0.76531 0.0
C1006 C 0.06795 0.91252 0.72708 0.0
C1007 C 0.06877 0.88027 0.75075 0.0
C1008 C 0.03276 0.85792 0.66905 0.0
H1009 H 0.01355 0.77948 0.83518 0.0
H1010 H 0.02973 0.7932 0.753 0.0
H1011 H 0.00702 0.84429 0.66912 0.0
H1012 H 0.0579 0.91873 0.63984 0.0
H1013 H 0.05158 0.88731 0.61392 0.0
H1014 H 0.07143 0.84207 0.73388 0.0
C1015 C 0.0182 0.80038 0.77148 0.0
C1016 C 0.02117 0.84341 0.68228 0.0
C1017 C 0.0088 0.79244 0.81831 0.0
C1018 C 0.06151 0.90815 0.67083 0.0
C1019 C 0.05774 0.89009 0.65603 0.0
C1020 C 0.05751 0.84254 0.71825 0.0
C1021 C 0.01387 0.81811 0.75272 0.0
C1022 C 0.02719 0.82913 0.71848 0.0
C1023 C 0.06022 0.87606 0.6973 0.0
C1024 C 0.05067 0.85828 0.6909 0.0
H1025 H 0.97808 0.82631 0.84387 0.0
H1026 H 0.99468 0.84041 0.76404 0.0
H1027 H 0.05114 0.81729 0.75967 0.0
H1028 H 0.07817 0.90113 0.80826 0.0
H1029 H 0.07095 0.86994 0.78392 0.0
C1030 C 0.72421 0.98002 0.84252 0.0
C1031 C 0.73522 0.99425 0.86316 0.0
C1032 C 0.71537 0.98153 0.78873 0.0
C1033 C 0.69689 0.01985 0.70567 0.0
H1034 H 0.66684 0.98007 0.65089 0.0
C1035 C 0.62072 0.02925 0.68129 0.0
C1036 C 0.61342 0.01926 0.72868 0.0
C1037 C 0.63802 0.02515 0.65915 0.0
C1038 C 0.67536 0.99141 0.66388 0.0
H1039 H 0.74773 0.02005 0.83873 0.0
H1040 H 0.73334 0.02204 0.74374 0.0
H1041 H 0.69819 0.97411 0.68066 0.0
H1042 H 0.61855 0.99671 0.78827 0.0
H1043 H 0.64822 0.98939 0.74883 0.0
H1044 H 0.67371 0.03688 0.69218 0.0
C1045 C 0.7307 0.01012 0.77046 0.0
C1046 C 0.69324 0.988 0.68178 0.0
C1047 C 0.73917 0.00885 0.82505 0.0
C1048 C 0.62348 1.00456 0.75132 0.0
C1049 C 0.64049 1.00024 0.72835 0.0
C1050 C 0.6792 0.0233 0.68657 0.0
C1051 C 0.7176 0.99719 0.75355 0.0
C1052 C 0.70346 1.00183 0.709 0.0
C1053 C 0.64811 0.01073 0.68306 0.0
C1054 C 0.66778 0.00879 0.67138 0.0
H1055 H 0.72147 0.96817 0.86947 0.0
H1056 H 0.70555 0.97109 0.77779 0.0
H1057 H 0.70426 0.03107 0.72509 0.0
H1058 H 0.61315 0.04031 0.66142 0.0
H1059 H 0.64373 0.03352 0.62457 0.0
C1060 C 0.41216 0.72597 0.92359 0.0
C1061 C 0.40495 0.72844 0.97997 0.0
C1062 C 0.40766 0.71053 0.89118 0.0
C1063 C 0.39734 0.66362 0.9283 0.0
H1064 H 0.40413 0.65657 0.76164 0.0
C1065 C 0.42 0.59435 0.84377 0.0
C1066 C 0.43527 0.59521 0.80662 0.0
C1067 C 0.40936 0.6098 0.85375 0.0
C1068 C 0.40213 0.6583 0.80826 0.0
H1069 H 0.38543 0.71819 0.04314 0.0
H1070 H 0.37718 0.6914 0.98591 0.0
H1071 H 0.39617 0.68674 0.7987 0.0
H1072 H 0.45035 0.61266 0.74697 0.0
H1073 H 0.43233 0.63976 0.76631 0.0
H1074 H 0.40433 0.63564 0.93867 0.0
C1075 C 0.38675 0.70107 0.96747 0.0
C1076 C 0.39752 0.67557 0.82946 0.0
C1077 C 0.39139 0.71644 1.00012 0.0
C1078 C 0.43894 0.61161 0.77688 0.0
C1079 C 0.42839 0.6271 0.78723 0.0
C1080 C 0.40193 0.64644 0.9072 0.0
C1081 C 0.39577 0.69733 0.91446 0.0
C1082 C 0.39583 0.67858 0.89 0.0
C1083 C 0.41383 0.62653 0.82728 0.0
C1084 C 0.40512 0.64372 0.8472 0.0
H1085 H 0.42272 0.73493 0.90699 0.0
H1086 H 0.41493 0.70813 0.85066 0.0
H1087 H 0.39646 0.66539 0.97525 0.0
H1088 H 0.41676 0.58199 0.86759 0.0
H1089 H 0.39806 0.60881 0.88414 0.0
C1090 C 0.81921 0.48888 0.81874 0.0
C1091 C 0.8034 0.47931 0.83433 0.0
C1092 C 0.83003 0.48294 0.77249 0.0
C1093 C 0.84288 0.44004 0.70736 0.0
H1094 H 0.8779 0.47241 0.63437 0.0
C1095 C 0.92405 0.44881 0.65041 0.0
C1096 C 0.9298 0.44119 0.70391 0.0
C1097 C 0.90573 0.44813 0.63415 0.0
C1098 C 0.86812 0.46289 0.65253 0.0
H1099 H 0.78571 0.45682 0.81117 0.0
H1100 H 0.80469 0.44638 0.7298 0.0
H1101 H 0.8484 0.48405 0.66299 0.0
H1102 H 0.92138 0.42465 0.77784 0.0
H1103 H 0.8895 0.42425 0.75157 0.0
H1104 H 0.86281 0.419 0.69864 0.0
C1105 C 0.80877 0.45842 0.75371 0.0
C1106 C 0.8512 0.46971 0.66967 0.0
C1107 C 0.79789 0.46443 0.80011 0.0
C1108 C 0.91727 0.4311 0.73722 0.0
C1109 C 0.89895 0.43062 0.72141 0.0
C1110 C 0.85969 0.43313 0.68929 0.0
C1111 C 0.82529 0.46726 0.74066 0.0
C1112 C 0.83912 0.45874 0.70195 0.0
C1113 C 0.89276 0.4401 0.67151 0.0
C1114 C 0.87311 0.44489 0.66666 0.0
H1115 H 0.8236 0.50059 0.84378 0.0
H1116 H 0.84275 0.48999 0.76446 0.0
H1117 H 0.83377 0.43108 0.73123 0.0
H1118 H 0.93335 0.4566 0.62334 0.0
H1119 H 0.90153 0.45513 0.59462 0.0
C1120 C 0.03731 0.18694 0.02064 0.0
C1121 C 0.02706 0.20201 1.00146 0.0
C1122 C 0.03798 0.17089 0.9878 0.0
C1123 C 0.01121 0.1455 0.87764 0.0
H1124 H 0.05382 0.11433 0.87302 0.0
C1125 C 0.01232 0.07794 0.74644 0.0
C1126 C 0.02116 0.06284 0.77161 0.0
C1127 C 0.01366 0.09528 0.77155 0.0
C1128 C 0.04172 0.12276 0.87436 0.0
H1129 H 0.01008 0.21219 0.9311 0.0
H1130 H 0.01153 0.18428 0.87301 0.0
H1131 H 0.05577 0.1442 0.91896 0.0
H1132 H 0.03838 0.05432 0.84375 0.0
H1133 H 0.04061 0.08446 0.88785 0.0
H1134 H 0.9971 0.124 0.83357 0.0
C1135 C 0.01886 0.18479 0.91409 0.0
C1136 C 0.04286 0.13996 0.90065 0.0
C1137 C 0.01824 0.20092 0.94696 0.0
C1138 C 0.03139 0.06559 0.82291 0.0
C1139 C 0.03278 0.08295 0.84802 0.0
C1140 C 0.01008 0.1283 0.85132 0.0
C1141 C 0.0284 0.16939 0.93472 0.0
C1142 C 0.02758 0.15154 0.90312 0.0
C1143 C 0.02393 0.09807 0.8227 0.0
C1144 C 0.02528 0.11661 0.84966 0.0
H1145 H 0.04431 0.18733 0.06233 0.0
H1146 H 0.04537 0.15936 0.00552 0.0
H1147 H 0.99905 0.15383 0.87951 0.0
H1148 H 1.00427 0.07643 0.70734 0.0
H1149 H 0.00679 0.10655 0.7503 0.0
C1150 C 0.32323 0.99867 0.92362 0.0
C1151 C 0.32226 0.00653 0.97944 0.0
C1152 C 0.33845 1.00162 0.88759 0.0
C1153 C 0.38128 0.02924 0.87118 0.0
H1154 H 0.39901 0.98588 0.79333 0.0
C1155 C 0.45568 0.02257 0.78769 0.0
C1156 C 0.45894 0.01326 0.73494 0.0
C1157 C 0.43822 0.02303 0.81262 0.0
C1158 C 0.39418 0.99822 0.81399 0.0
H1159 H 0.33622 0.02386 0.04107 0.0
H1160 H 0.36275 0.02915 0.97857 0.0
H1161 H 0.36979 0.98514 0.84367 0.0
H1162 H 0.44609 0.99726 0.66685 0.0
H1163 H 0.41566 0.99809 0.71022 0.0
H1164 H 0.40593 0.04217 0.84245 0.0
C1165 C 0.35167 0.02099 0.96164 0.0
C1166 C 0.37731 0.99782 0.8429 0.0
C1167 C 0.33641 0.01807 0.99752 0.0
C1168 C 0.44416 1.00455 0.70753 0.0
C1169 C 0.42668 1.00494 0.73264 0.0
C1170 C 0.39818 0.02962 0.84238 0.0
C1171 C 0.35321 0.01233 0.90687 0.0
C1172 C 0.37064 0.01328 0.87242 0.0
C1173 C 0.42346 0.01413 0.78571 0.0
C1174 C 0.40498 0.01406 0.81382 0.0
H1175 H 0.31269 0.98938 0.90922 0.0
H1176 H 0.33892 0.99496 0.8454 0.0
H1177 H 0.37655 0.04151 0.89255 0.0
H1178 H 0.46667 0.02944 0.81022 0.0
H1179 H 0.43639 0.03003 0.85384 0.0
C1180 C 0.47911 0.32949 0.94474 0.0
C1181 C 0.49272 0.32047 0.97697 0.0
C1182 C 0.4834 0.3444 0.90887 0.0
C1183 C 0.51704 0.38146 0.90095 0.0
H1184 H 0.49128 0.39443 0.75871 0.0
C1185 C 0.51327 0.45594 0.81836 0.0
C1186 C 0.51457 0.45927 0.75787 0.0
C1187 C 0.51189 0.43811 0.84008 0.0
C1188 C 0.49874 0.39101 0.7981 0.0
H1189 H 0.52161 0.31951 0.99492 0.0
H1190 H 0.52926 0.34551 0.93167 0.0
H1191 H 0.48748 0.36403 0.80088 0.0
H1192 H 0.51506 0.4464 0.67266 0.0
H1193 H 0.51182 0.41537 0.71044 0.0
H1194 H 0.52821 0.40841 0.89854 0.0
C1195 C 0.5152 0.34109 0.9343 0.0
C1196 C 0.49645 0.37358 0.82256 0.0
C1197 C 0.5109 0.32602 0.96986 0.0
C1198 C 0.51419 0.44432 0.71955 0.0
C1199 C 0.51232 0.4265 0.74125 0.0
C1200 C 0.51924 0.39889 0.87671 0.0
C1201 C 0.50142 0.35086 0.90483 0.0
C1202 C 0.50536 0.36863 0.87485 0.0
C1203 C 0.51143 0.42309 0.80189 0.0
C1204 C 0.5099 0.40405 0.82547 0.0
H1205 H 0.46494 0.32567 0.95011 0.0
H1206 H 0.47238 0.3516 0.88742 0.0
H1207 H 0.524 0.37828 0.94148 0.0
H1208 H 0.51347 0.46713 0.84913 0.0
H1209 H 0.51086 0.43612 0.88696 0.0
C1210 C 0.20631 0.51569 0.96089 0.0
C1211 C 0.20698 0.50449 0.01097 0.0
C1212 C 0.19047 0.51636 0.92605 0.0
C1213 C 0.14095 0.50899 0.94206 0.0
H1214 H 0.13868 0.5096 0.77265 0.0
C1215 C 0.07241 0.50042 0.82354 0.0
C1216 C 0.0691 0.51013 0.77152 0.0
C1217 C 0.08975 0.50029 0.84908 0.0
C1218 C 0.13905 0.5097 0.82001 0.0
H1219 H 0.19215 0.48415 0.06076 0.0
H1220 H 0.16488 0.48521 1.00047 0.0
H1221 H 0.16835 0.50815 0.82175 0.0
H1222 H 0.08167 0.52733 0.70543 0.0
H1223 H 0.11192 0.52724 0.75039 0.0
H1224 H 0.11192 0.51088 0.94113 0.0
C1225 C 0.17628 0.49383 0.98864 0.0
C1226 C 0.1561 0.50881 0.84814 0.0
C1227 C 0.19199 0.49314 0.02306 0.0
C1228 C 0.0837 0.51966 0.74548 0.0
C1229 C 0.10111 0.51955 0.77119 0.0
C1230 C 0.12403 0.51005 0.91417 0.0
C1231 C 0.17503 0.50587 0.94083 0.0
C1232 C 0.15722 0.50805 0.90961 0.0
C1233 C 0.10436 0.50996 0.82371 0.0
C1234 C 0.12273 0.51005 0.85271 0.0
H1235 H 0.21759 0.52466 0.95056 0.0
H1236 H 0.18998 0.52575 0.88941 0.0
H1237 H 0.14127 0.50894 0.98947 0.0
H1238 H 0.06161 0.49278 0.84463 0.0
H1239 H 0.09169 0.49237 0.88864 0.0
C1240 C 0.98506 0.8367 0.36014 0.0
C1241 C 0.99626 0.8213 0.3681 0.0
C1242 C 0.98732 0.8523 0.39422 0.0
C1243 C 1.00331 0.87168 0.53082 0.0
H1244 H 0.012 0.9151 0.43775 0.0
C1245 C 0.01928 0.94246 0.636 0.0
C1246 C 0.01248 0.9581 0.60758 0.0
C1247 C 0.01768 0.92518 0.61014 0.0
C1248 C 0.00932 0.90324 0.46468 0.0
H1249 H 0.01777 0.80996 0.42199 0.0
H1250 H 0.02129 0.83727 0.48338 0.0
H1251 H 0.00799 0.88587 0.38959 0.0
H1252 H 0.99843 0.9676 0.52985 0.0
H1253 H 0.99551 0.93777 0.48542 0.0
H1254 H 1.00368 0.88922 0.60582 0.0
C1255 C 0.01099 0.83718 0.44946 0.0
C1256 C 0.00717 0.88641 0.43691 0.0
C1257 C 0.00891 0.82152 0.41447 0.0
C1258 C 1.00399 0.95595 0.55291 0.0
C1259 C 1.00242 0.93874 0.52712 0.0
C1260 C 1.0051 0.88865 0.55872 0.0
C1261 C 1.00058 0.85293 0.43834 0.0
C1262 C 1.004 0.87045 0.46947 0.0
C1263 C 0.00937 0.92306 0.55496 0.0
C1264 C 0.00802 0.90474 0.52601 0.0
H1265 H 0.97476 0.83693 0.32622 0.0
H1266 H 0.97885 0.86408 0.38534 0.0
H1267 H 1.00077 0.85962 0.55704 0.0
H1268 H 0.0259 0.94354 0.67819 0.0
H1269 H 0.0232 0.91352 0.6331 0.0
C1270 C 0.70418 0.01522 0.41665 0.0
C1271 C 0.70936 0.99918 0.38743 0.0
C1272 C 0.68778 0.016 0.44841 0.0
C1273 C 0.65104 0.98757 0.51553 0.0
H1274 H 0.62038 0.02945 0.48398 0.0
C1275 C 0.57967 0.99729 0.62371 0.0
C1276 C 0.56566 1.00416 0.58803 0.0
C1277 C 0.59772 0.99666 0.60356 0.0
C1278 C 0.62871 0.0176 0.4931 0.0
H1279 H 0.70173 0.97113 0.37148 0.0
H1280 H 0.67332 0.97244 0.42698 0.0
H1281 H 0.65123 0.0284 0.44426 0.0
H1282 H 0.55958 0.01551 0.50273 0.0
H1283 H 0.5911 0.01468 0.46761 0.0
H1284 H 0.62839 0.97663 0.5635 0.0
C1285 C 0.68187 0.98445 0.42538 0.0
C1286 C 0.64654 0.01711 0.47093 0.0
C1287 C 0.69814 0.98373 0.39319 0.0
C1288 C 0.57008 0.01018 0.53133 0.0
C1289 C 0.58819 0.00986 0.51148 0.0
C1290 C 0.63325 0.98813 0.53813 0.0
C1291 C 0.67623 1.00071 0.45232 0.0
C1292 C 0.65786 1.00195 0.48092 0.0
C1293 C 0.60232 1.0032 0.54745 0.0
C1294 C 0.62168 1.00301 0.52629 0.0
H1295 H 0.71237 0.02743 0.41278 0.0
H1296 H 0.68399 0.0287 0.46909 0.0
H1297 H 0.65942 0.97577 0.52478 0.0
H1298 H 0.5766 0.99218 0.66708 0.0
H1299 H 0.60814 0.99133 0.63243 0.0
C1300 C 0.49585 0.70015 0.43478 0.0
C1301 C 0.50476 0.70438 0.38195 0.0
C1302 C 0.50093 0.68485 0.46769 0.0
C1303 C 0.52053 0.63942 0.44485 0.0
H1304 H 0.51837 0.63603 0.61408 0.0
C1305 C 0.53237 0.57082 0.56442 0.0
C1306 C 0.52148 0.56686 0.61355 0.0
C1307 C 0.5324 0.58825 0.53931 0.0
C1308 C 0.51884 0.63666 0.56675 0.0
H1309 H 0.52651 0.69641 0.32349 0.0
H1310 H 0.5356 0.66969 0.38129 0.0
H1311 H 0.5158 0.66573 0.56638 0.0
H1312 H 0.50217 0.57835 0.67507 0.0
H1313 H 0.50188 0.60861 0.63062 0.0
H1314 H 0.52298 0.6104 0.44474 0.0
C1315 C 0.5246 0.67818 0.39719 0.0
C1316 C 0.51746 0.65375 0.53939 0.0
C1317 C 0.5196 0.69362 0.3645 0.0
C1318 C 0.51078 0.5809 0.63738 0.0
C1319 C 0.51071 0.59833 0.61199 0.0
C1320 C 0.5218 0.62235 0.47212 0.0
C1321 C 0.51492 0.67326 0.44822 0.0
C1322 C 0.51813 0.65535 0.478 0.0
C1323 C 0.52143 0.60226 0.56227 0.0
C1324 C 0.52082 0.62065 0.5335 0.0
H1325 H 0.4842 0.70808 0.44877 0.0
H1326 H 0.49307 0.68148 0.50637 0.0
H1327 H 0.52074 0.64004 0.39748 0.0
H1328 H 0.54092 0.56042 0.5451 0.0
H1329 H 0.54112 0.59074 0.50187 0.0
C1330 C 0.84493 0.52629 0.34122 0.0
C1331 C 0.83075 0.51353 0.34629 0.0
C1332 C 0.85909 0.52678 0.38208 0.0
C1333 C 0.88317 0.49711 0.48878 0.0
H1334 H 0.90925 0.54185 0.52139 0.0
C1335 C 0.9496 0.50012 0.63098 0.0
C1336 C 0.96374 0.51106 0.6083 0.0
C1337 C 0.93215 0.5004 0.60561 0.0
C1338 C 0.9022 0.52919 0.51252 0.0
H1339 H 0.81996 0.49166 0.39964 0.0
H1340 H 0.8446 0.4927 0.47241 0.0
H1341 H 0.88036 0.54306 0.46935 0.0
H1342 H 0.97048 0.5308 0.54088 0.0
H1343 H 0.94023 0.53136 0.49719 0.0
H1344 H 0.90524 0.48331 0.53194 0.0
C1345 C 0.84486 0.50225 0.43619 0.0
C1346 C 0.88558 0.52987 0.48253 0.0
C1347 C 0.83058 0.50181 0.39507 0.0
C1348 C 0.95997 0.52222 0.55965 0.0
C1349 C 0.94253 0.52264 0.53479 0.0
C1350 C 0.8998 0.49645 0.51924 0.0
C1351 C 0.85958 0.51448 0.42948 0.0
C1352 C 0.87601 0.51382 0.46871 0.0
C1353 C 0.92834 0.51179 0.55742 0.0
C1354 C 0.90977 0.51246 0.53021 0.0
H1355 H 0.84553 0.53536 0.30372 0.0
H1356 H 0.87017 0.53623 0.37448 0.0
H1357 H 0.87638 0.48441 0.47873 0.0
H1358 H 0.95201 0.49129 0.66826 0.0
H1359 H 0.92155 0.49191 0.62433 0.0
loop_
_geom_bond_atom_site_label_1
_geom_bond_atom_site_label_2
_geom_bond_distance
_geom_bond_site_symmetry_2
_ccdc_geom_bond_type
C0 C1 1.391 . S
C0 C4 1.391 . S
C0 H42 0.948 . S
C1 C0 1.391 . S
C1 C2 1.391 . S
C2 C1 1.391 . S
C2 H58 0.947 . S
C2 C59 1.392 . S
C3 C4 1.391 . S
C3 C7 1.397 . S
C3 C59 1.419 . S
C4 C0 1.391 . S
C4 C3 1.391 . S
C4 C5 1.399 . S
C5 C4 1.399 . S
C5 C8 1.396 . S
C5 C17 1.453 . S
C5 C18 1.684 . S
H6 C30 0.948 . S
C7 C3 1.397 . S
C7 C8 1.394 . S
C7 C26 1.723 . S
C8 C5 1.396 . S
C8 C7 1.394 . S
C8 C38 1.723 . S
H9 C32 0.947 . S
H10 C33 0.948 . S
H11 C39 0.982 . S
H12 C40 0.979 . S
H13 C40 0.980 . S
H14 C40 0.983 . S
H15 C39 0.979 . S
H16 C39 0.977 . S
C17 C5 1.453 . S
C17 H46 0.982 . S
C17 H47 0.979 . S
C17 H48 0.977 . S
C18 C5 1.684 . S
C18 H43 0.979 . S
C18 H44 0.980 . S
C18 H45 0.983 . S
C19 C20 1.391 . S
C19 C24 1.391 . S
C19 H49 0.948 . S
C20 C19 1.391 . S
C20 C21 1.391 . S
C21 C20 1.391 . S
C21 C22 1.392 . S
C21 H50 0.947 . S
C22 C21 1.392 . S
C22 C23 1.419 . S
C22 H51 0.948 . S
C23 C22 1.419 . S
C23 C24 1.391 . S
C23 C27 1.397 . S
C24 C19 1.391 . S
C24 C23 1.391 . S
C24 C25 1.399 . S
C25 C24 1.399 . S
C25 C26 1.396 . S
C25 C28 1.453 . S
C25 C29 1.684 . S
C26 C7 1.723 . S
C26 C25 1.396 . S
C26 C27 1.394 . S
C27 C23 1.397 . S
C27 C26 1.394 . S
C27 C37 1.723 . S
C28 C25 1.453 . S
C28 H52 0.982 . S
C28 H53 0.979 . S
C28 H54 0.977 . S
C29 C25 1.684 . S
C29 H55 0.979 . S
C29 H56 0.980 . S
C29 H57 0.983 . S
C30 H6 0.948 . S
C30 C31 1.391 . S
C30 C35 1.391 . S
C31 C30 1.391 . S
C31 C32 1.391 . S
C32 H9 0.947 . S
C32 C31 1.391 . S
C32 C33 1.392 . S
C33 H10 0.948 . S
C33 C32 1.392 . S
C33 C34 1.419 . S
C34 C33 1.419 . S
C34 C35 1.391 . S
C34 C38 1.397 . S
C35 C30 1.391 . S
C35 C34 1.391 . S
C35 C36 1.399 . S
C36 C35 1.399 . S
C36 C37 1.396 . S
C36 C39 1.453 . S
C36 C40 1.684 . S
C37 C27 1.723 . S
C37 C36 1.396 . S
C37 C38 1.394 . S
C38 C8 1.723 . S
C38 C34 1.397 . S
C38 C37 1.394 . S
C39 H11 0.982 . S
C39 H15 0.979 . S
C39 H16 0.977 . S
C39 C36 1.453 . S
C40 H12 0.979 . S
C40 H13 0.980 . S
C40 H14 0.983 . S
C40 C36 1.684 . S
H41 C59 0.948 . S
H42 C0 0.948 . S
H43 C18 0.979 . S
H44 C18 0.980 . S
H45 C18 0.983 . S
H46 C17 0.982 . S
H47 C17 0.979 . S
H48 C17 0.977 . S
H49 C19 0.948 . S
H50 C21 0.947 . S
H51 C22 0.948 . S
H52 C28 0.982 . S
H53 C28 0.979 . S
H54 C28 0.977 . S
H55 C29 0.979 . S
H56 C29 0.980 . S
H57 C29 0.983 . S
H58 C2 0.947 . S
C59 C2 1.392 . S
C59 C3 1.419 . S
C59 H41 0.948 . S
C60 C61 1.391 . S
C60 C64 1.391 . S
C60 H102 0.948 . S
C61 C60 1.391 . S
C61 C62 1.391 . S
C62 C61 1.391 . S
C62 H118 0.947 . S
C62 C119 1.392 . S
C63 C64 1.391 . S
C63 C67 1.397 1_655 S
C63 C119 1.419 . S
C64 C60 1.391 . S
C64 C63 1.391 . S
C64 C65 1.399 . S
C65 C64 1.399 . S
C65 C68 1.388 1_655 S
C65 C77 1.453 1_655 S
C65 C78 1.684 . S
H66 C90 0.948 . S
C67 C63 1.397 1_455 S
C67 C68 1.393 . S
C67 C86 1.722 . S
C68 C65 1.388 1_455 S
C68 C67 1.393 . S
C68 C98 1.722 . S
H69 C92 0.947 . S
H70 C93 0.948 . S
H71 C99 0.982 . S
H72 C100 0.979 . S
H73 C100 0.980 . S
H74 C100 0.983 . S
H75 C99 0.979 . S
H76 C99 0.977 . S
C77 C65 1.453 1_455 S
C77 H106 0.982 . S
C77 H107 0.979 . S
C77 H108 0.977 . S
C78 C65 1.684 . S
C78 H103 0.979 . S
C78 H104 0.980 . S
C78 H105 0.983 . S
C79 C80 1.391 . S
C79 C84 1.391 . S
C79 H109 0.948 . S
C80 C79 1.391 . S
C80 C81 1.391 . S
C81 C80 1.391 . S
C81 C82 1.392 . S
C81 H110 0.947 . S
C82 C81 1.392 . S
C82 C83 1.419 . S
C82 H111 0.948 . S
C83 C82 1.419 . S
C83 C84 1.391 . S
C83 C87 1.397 1_655 S
C84 C79 1.391 . S
C84 C83 1.391 . S
C84 C85 1.399 . S
C85 C84 1.399 . S
C85 C86 1.388 1_655 S
C85 C88 1.453 1_655 S
C85 C89 1.684 . S
C86 C67 1.722 . S
C86 C85 1.388 1_455 S
C86 C87 1.393 . S
C87 C83 1.397 1_455 S
C87 C86 1.393 . S
C87 C97 1.722 . S
C88 C85 1.453 1_455 S
C88 H112 0.982 . S
C88 H113 0.979 . S
C88 H114 0.977 . S
C89 C85 1.684 . S
C89 H115 0.979 . S
C89 H116 0.980 . S
C89 H117 0.983 . S
C90 H66 0.948 . S
C90 C91 1.391 . S
C90 C95 1.391 . S
C91 C90 1.391 . S
C91 C92 1.391 . S
C92 H69 0.947 . S
C92 C91 1.391 . S
C92 C93 1.392 . S
C93 H70 0.948 . S
C93 C92 1.392 . S
C93 C94 1.419 . S
C94 C93 1.419 . S
C94 C95 1.391 . S
C94 C98 1.397 1_655 S
C95 C90 1.391 . S
C95 C94 1.391 . S
C95 C96 1.399 . S
C96 C95 1.399 . S
C96 C97 1.388 1_655 S
C96 C99 1.453 1_655 S
C96 C100 1.684 . S
C97 C87 1.722 . S
C97 C96 1.388 1_455 S
C97 C98 1.393 . S
C98 C68 1.722 . S
C98 C94 1.397 1_455 S
C98 C97 1.393 . S
C99 H71 0.982 . S
C99 H75 0.979 . S
C99 H76 0.977 . S
C99 C96 1.453 1_455 S
C100 H72 0.979 . S
C100 H73 0.980 . S
C100 H74 0.983 . S
C100 C96 1.684 . S
H101 C119 0.948 . S
H102 C60 0.948 . S
H103 C78 0.979 . S
H104 C78 0.980 . S
H105 C78 0.983 . S
H106 C77 0.982 . S
H107 C77 0.979 . S
H108 C77 0.977 . S
H109 C79 0.948 . S
H110 C81 0.947 . S
H111 C82 0.948 . S
H112 C88 0.982 . S
H113 C88 0.979 . S
H114 C88 0.977 . S
H115 C89 0.979 . S
H116 C89 0.980 . S
H117 C89 0.983 . S
H118 C62 0.947 . S
C119 C62 1.392 . S
C119 C63 1.419 . S
C119 H101 0.948 . S
C120 C121 1.391 . S
C120 C124 1.391 . S
C120 H162 0.948 . S
C121 C120 1.391 . S
C121 C122 1.391 . S
C122 C121 1.391 . S
C122 H178 0.947 . S
C122 C179 1.392 . S
C123 C124 1.391 . S
C123 C127 1.397 1_565 S
C123 C179 1.419 . S
C124 C120 1.391 . S
C124 C123 1.391 . S
C124 C125 1.399 . S
C125 C124 1.399 . S
C125 C128 1.388 1_565 S
C125 C137 1.453 1_565 S
C125 C138 1.684 . S
H126 C150 0.948 . S
C127 C123 1.397 1_545 S
C127 C128 1.393 . S
C127 C146 1.722 . S
C128 C125 1.388 1_545 S
C128 C127 1.393 . S
C128 C158 1.722 . S
H129 C152 0.947 . S
H130 C153 0.948 . S
H131 C159 0.982 . S
H132 C160 0.979 . S
H133 C160 0.980 . S
H134 C160 0.983 . S
H135 C159 0.979 . S
H136 C159 0.977 . S
C137 C125 1.453 1_545 S
C137 H166 0.982 . S
C137 H167 0.979 . S
C137 H168 0.977 . S
C138 C125 1.684 . S
C138 H163 0.979 . S
C138 H164 0.980 . S
C138 H165 0.983 . S
C139 C140 1.391 . S
C139 C144 1.391 . S
C139 H169 0.948 . S
C140 C139 1.391 . S
C140 C141 1.391 . S
C141 C140 1.391 . S
C141 C142 1.392 . S
C141 H170 0.947 . S
C142 C141 1.392 . S
C142 C143 1.419 . S
C142 H171 0.948 . S
C143 C142 1.419 . S
C143 C144 1.391 . S
C143 C147 1.397 1_565 S
C144 C139 1.391 . S
C144 C143 1.391 . S
C144 C145 1.399 . S
C145 C144 1.399 . S
C145 C146 1.388 1_565 S
C145 C148 1.453 1_565 S
C145 C149 1.684 . S
C146 C127 1.722 . S
C146 C145 1.388 1_545 S
C146 C147 1.393 . S
C147 C143 1.397 1_545 S
C147 C146 1.393 . S
C147 C157 1.722 . S
C148 C145 1.453 1_545 S
C148 H172 0.982 . S
C148 H173 0.979 . S
C148 H174 0.977 . S
C149 C145 1.684 . S
C149 H175 0.979 . S
C149 H176 0.980 . S
C149 H177 0.983 . S
C150 H126 0.948 . S
C150 C151 1.391 . S
C150 C155 1.391 . S
C151 C150 1.391 . S
C151 C152 1.391 . S
C152 H129 0.947 . S
C152 C151 1.391 . S
C152 C153 1.392 . S
C153 H130 0.948 . S
C153 C152 1.392 . S
C153 C154 1.419 . S
C154 C153 1.419 . S
C154 C155 1.391 . S
C154 C158 1.397 1_565 S
C155 C150 1.391 . S
C155 C154 1.391 . S
C155 C156 1.399 . S
C156 C155 1.399 . S
C156 C157 1.388 1_565 S
C156 C159 1.453 1_565 S
C156 C160 1.684 . S
C157 C147 1.722 . S
C157 C156 1.388 1_545 S
C157 C158 1.393 . S
C158 C128 1.722 . S
C158 C154 1.397 1_545 S
C158 C157 1.393 . S
C159 H131 0.982 . S
C159 H135 0.979 . S
C159 H136 0.977 . S
C159 C156 1.453 1_545 S
C160 H132 0.979 . S
C160 H133 0.980 . S
C160 H134 0.983 . S
C160 C156 1.684 . S
H161 C179 0.948 . S
H162 C120 0.948 . S
H163 C138 0.979 . S
H164 C138 0.980 . S
H165 C138 0.983 . S
H166 C137 0.982 . S
H167 C137 0.979 . S
H168 C137 0.977 . S
H169 C139 0.948 . S
H170 C141 0.947 . S
H171 C142 0.948 . S
H172 C148 0.982 . S
H173 C148 0.979 . S
H174 C148 0.977 . S
H175 C149 0.979 . S
H176 C149 0.980 . S
H177 C149 0.983 . S
H178 C122 0.947 . S
C179 C122 1.392 . S
C179 C123 1.419 . S
C179 H161 0.948 . S
C180 C181 1.391 . S
C180 C184 1.391 . S
C180 H222 0.948 . S
C181 C180 1.391 . S
C181 C182 1.391 . S
C182 C181 1.391 . S
C182 H238 0.947 . S
C182 C239 1.392 . S
C183 C184 1.391 . S
C183 C187 1.397 . S
C183 C239 1.419 . S
C184 C180 1.391 . S
C184 C183 1.391 . S
C184 C185 1.399 . S
C185 C184 1.399 . S
C185 C188 1.396 . S
C185 C197 1.453 . S
C185 C198 1.684 . S
H186 C210 0.948 . S
C187 C183 1.397 . S
C187 C188 1.394 . S
C187 C206 1.723 . S
C188 C185 1.396 . S
C188 C187 1.394 . S
C188 C218 1.723 . S
H189 C212 0.947 . S
H190 C213 0.948 . S
H191 C219 0.982 . S
H192 C220 0.979 . S
H193 C220 0.980 . S
H194 C220 0.983 . S
H195 C219 0.979 . S
H196 C219 0.977 . S
C197 C185 1.453 . S
C197 H226 0.982 . S
C197 H227 0.979 . S
C197 H228 0.977 . S
C198 C185 1.684 . S
C198 H223 0.979 . S
C198 H224 0.980 . S
C198 H225 0.983 . S
C199 C200 1.391 . S
C199 C204 1.391 . S
C199 H229 0.948 . S
C200 C199 1.391 . S
C200 C201 1.391 . S
C201 C200 1.391 . S
C201 C202 1.392 . S
C201 H230 0.947 . S
C202 C201 1.392 . S
C202 C203 1.419 . S
C202 H231 0.948 . S
C203 C202 1.419 . S
C203 C204 1.391 . S
C203 C207 1.397 . S
C204 C199 1.391 . S
C204 C203 1.391 . S
C204 C205 1.399 . S
C205 C204 1.399 . S
C205 C206 1.396 . S
C205 C208 1.453 . S
C205 C209 1.684 . S
C206 C187 1.723 . S
C206 C205 1.396 . S
C206 C207 1.394 . S
C207 C203 1.397 . S
C207 C206 1.394 . S
C207 C217 1.723 . S
C208 C205 1.453 . S
C208 H232 0.982 . S
C208 H233 0.979 . S
C208 H234 0.977 . S
C209 C205 1.684 . S
C209 H235 0.979 . S
C209 H236 0.980 . S
C209 H237 0.983 . S
C210 H186 0.948 . S
C210 C211 1.391 . S
C210 C215 1.391 . S
C211 C210 1.391 . S
C211 C212 1.391 . S
C212 H189 0.947 . S
C212 C211 1.391 . S
C212 C213 1.392 . S
C213 H190 0.948 . S
C213 C212 1.392 . S
C213 C214 1.419 . S
C214 C213 1.419 . S
C214 C215 1.391 . S
C214 C218 1.397 . S
C215 C210 1.391 . S
C215 C214 1.391 . S
C215 C216 1.399 . S
C216 C215 1.399 . S
C216 C217 1.396 . S
C216 C219 1.453 . S
C216 C220 1.684 . S
C217 C207 1.723 . S
C217 C216 1.396 . S
C217 C218 1.394 . S
C218 C188 1.723 . S
C218 C214 1.397 . S
C218 C217 1.394 . S
C219 H191 0.982 . S
C219 H195 0.979 . S
C219 H196 0.977 . S
C219 C216 1.453 . S
C220 H192 0.979 . S
C220 H193 0.980 . S
C220 H194 0.983 . S
C220 C216 1.684 . S
H221 C239 0.948 . S
H222 C180 0.948 . S
H223 C198 0.979 . S
H224 C198 0.980 . S
H225 C198 0.983 . S
H226 C197 0.982 . S
H227 C197 0.979 . S
H228 C197 0.977 . S
H229 C199 0.948 . S
H230 C201 0.947 . S
H231 C202 0.948 . S
H232 C208 0.982 . S
H233 C208 0.979 . S
H234 C208 0.977 . S
H235 C209 0.979 . S
H236 C209 0.980 . S
H237 C209 0.983 . S
H238 C182 0.947 . S
C239 C182 1.392 . S
C239 C183 1.419 . S
C239 H221 0.948 . S
C240 C241 1.391 . S
C240 C244 1.391 . S
C240 H282 0.948 . S
C241 C240 1.391 . S
C241 C242 1.391 . S
C242 C241 1.391 . S
C242 H298 0.947 . S
C242 C299 1.392 . S
C243 C244 1.391 . S
C243 C247 1.397 . S
C243 C299 1.419 . S
C244 C240 1.391 . S
C244 C243 1.391 . S
C244 C245 1.399 1_554 S
C245 C244 1.399 1_556 S
C245 C248 1.396 1_556 S
C245 C257 1.453 . S
C245 C258 1.684 . S
H246 C270 0.948 . S
C247 C243 1.397 . S
C247 C248 1.394 . S
C247 C266 1.723 . S
C248 C245 1.396 1_554 S
C248 C247 1.394 . S
C248 C278 1.723 1_554 S
H249 C272 0.947 . S
H250 C273 0.948 . S
H251 C279 0.982 . S
H252 C280 0.979 . S
H253 C280 0.980 1_554 S
H254 C280 0.983 . S
H255 C279 0.979 . S
H256 C279 0.977 1_554 S
C257 C245 1.453 . S
C257 H286 0.982 . S
C257 H287 0.979 . S
C257 H288 0.977 . S
C258 C245 1.684 . S
C258 H283 0.979 . S
C258 H284 0.980 . S
C258 H285 0.983 . S
C259 C260 1.391 . S
C259 C264 1.391 . S
C259 H289 0.948 . S
C260 C259 1.391 . S
C260 C261 1.391 . S
C261 C260 1.391 . S
C261 C262 1.392 . S
C261 H290 0.947 . S
C262 C261 1.392 . S
C262 C263 1.419 . S
C262 H291 0.948 . S
C263 C262 1.419 . S
C263 C264 1.391 . S
C263 C267 1.397 . S
C264 C259 1.391 . S
C264 C263 1.391 . S
C264 C265 1.399 . S
C265 C264 1.399 . S
C265 C266 1.396 . S
C265 C268 1.453 . S
C265 C269 1.684 . S
C266 C247 1.723 . S
C266 C265 1.396 . S
C266 C267 1.394 . S
C267 C263 1.397 . S
C267 C266 1.394 . S
C267 C277 1.723 . S
C268 C265 1.453 . S
C268 H292 0.982 . S
C268 H293 0.979 . S
C268 H294 0.977 . S
C269 C265 1.684 . S
C269 H295 0.979 . S
C269 H296 0.980 . S
C269 H297 0.983 . S
C270 H246 0.948 . S
C270 C271 1.391 . S
C270 C275 1.391 . S
C271 C270 1.391 . S
C271 C272 1.391 . S
C272 H249 0.947 . S
C272 C271 1.391 . S
C272 C273 1.392 . S
C273 H250 0.948 . S
C273 C272 1.392 . S
C273 C274 1.419 . S
C274 C273 1.419 . S
C274 C275 1.391 . S
C274 C278 1.397 . S
C275 C270 1.391 . S
C275 C274 1.391 . S
C275 C276 1.399 . S
C276 C275 1.399 . S
C276 C277 1.396 1_556 S
C276 C279 1.453 . S
C276 C280 1.684 . S
C277 C267 1.723 . S
C277 C276 1.396 1_554 S
C277 C278 1.394 1_554 S
C278 C248 1.723 1_556 S
C278 C274 1.397 . S
C278 C277 1.394 1_556 S
C279 H251 0.982 . S
C279 H255 0.979 . S
C279 H256 0.977 1_556 S
C279 C276 1.453 . S
C280 H252 0.979 . S
C280 H253 0.980 1_556 S
C280 H254 0.983 . S
C280 C276 1.684 . S
H281 C299 0.948 . S
H282 C240 0.948 . S
H283 C258 0.979 . S
H284 C258 0.980 . S
H285 C258 0.983 . S
H286 C257 0.982 . S
H287 C257 0.979 . S
H288 C257 0.977 . S
H289 C259 0.948 . S
H290 C261 0.947 . S
H291 C262 0.948 . S
H292 C268 0.982 . S
H293 C268 0.979 . S
H294 C268 0.977 . S
H295 C269 0.979 . S
H296 C269 0.980 . S
H297 C269 0.983 . S
H298 C242 0.947 . S
C299 C242 1.392 . S
C299 C243 1.419 . S
C299 H281 0.948 . S
C300 C301 1.391 . S
C300 C304 1.391 . S
C300 H342 0.948 . S
C301 C300 1.391 . S
C301 C302 1.391 . S
C302 C301 1.391 . S
C302 H358 0.947 . S
C302 C359 1.392 . S
C303 C304 1.398 . S
C303 C307 1.395 1_655 S
C303 C359 1.424 . S
C304 C300 1.391 . S
C304 C303 1.398 . S
C304 C305 1.399 . S
C305 C304 1.399 . S
C305 C308 1.396 1_655 S
C305 C317 1.453 1_655 S
C305 C318 1.684 . S
H306 C330 0.948 . S
C307 C303 1.395 1_455 S
C307 C308 1.395 . S
C307 C326 1.723 . S
C308 C305 1.396 1_455 S
C308 C307 1.395 . S
C308 C338 1.723 . S
H309 C332 0.947 . S
H310 C333 0.948 . S
H311 C339 0.982 . S
H312 C340 0.979 . S
H313 C340 0.980 . S
H314 C340 0.983 . S
H315 C339 0.979 . S
H316 C339 0.977 . S
C317 C305 1.453 1_455 S
C317 H346 0.982 . S
C317 H347 0.979 . S
C317 H348 0.977 . S
C318 C305 1.684 . S
C318 H343 0.979 . S
C318 H344 0.980 . S
C318 H345 0.983 . S
C319 C320 1.391 . S
C319 C324 1.391 . S
C319 H349 0.948 . S
C320 C319 1.391 . S
C320 C321 1.391 . S
C321 C320 1.391 . S
C321 C322 1.392 . S
C321 H350 0.947 . S
C322 C321 1.392 . S
C322 C323 1.424 . S
C322 H351 0.948 . S
C323 C322 1.424 . S
C323 C324 1.398 . S
C323 C327 1.395 1_655 S
C324 C319 1.391 . S
C324 C323 1.398 . S
C324 C325 1.399 . S
C325 C324 1.399 . S
C325 C326 1.396 1_656 S
C325 C328 1.453 1_655 S
C325 C329 1.684 . S
C326 C307 1.723 . S
C326 C325 1.396 1_454 S
C326 C327 1.395 1_554 S
C327 C323 1.395 1_455 S
C327 C326 1.395 1_556 S
C327 C337 1.723 1_556 S
C328 C325 1.453 1_455 S
C328 H352 0.982 . S
C328 H353 0.979 . S
C328 H354 0.977 1_556 S
C329 C325 1.684 . S
C329 H355 0.979 . S
C329 H356 0.980 1_556 S
C329 H357 0.983 . S
C330 H306 0.948 . S
C330 C331 1.391 . S
C330 C335 1.391 . S
C331 C330 1.391 . S
C331 C332 1.391 . S
C332 H309 0.947 . S
C332 C331 1.391 . S
C332 C333 1.392 . S
C333 H310 0.948 . S
C333 C332 1.392 . S
C333 C334 1.424 . S
C334 C333 1.424 . S
C334 C335 1.398 . S
C334 C338 1.395 1_655 S
C335 C330 1.391 . S
C335 C334 1.398 . S
C335 C336 1.399 1_554 S
C336 C335 1.399 1_556 S
C336 C337 1.396 1_656 S
C336 C339 1.453 1_655 S
C336 C340 1.684 . S
C337 C327 1.723 1_554 S
C337 C336 1.396 1_454 S
C337 C338 1.395 . S
C338 C308 1.723 . S
C338 C334 1.395 1_455 S
C338 C337 1.395 . S
C339 H311 0.982 . S
C339 H315 0.979 . S
C339 H316 0.977 . S
C339 C336 1.453 1_455 S
C340 H312 0.979 . S
C340 H313 0.980 . S
C340 H314 0.983 . S
C340 C336 1.684 . S
H341 C359 0.948 . S
H342 C300 0.948 . S
H343 C318 0.979 . S
H344 C318 0.980 . S
H345 C318 0.983 . S
H346 C317 0.982 . S
H347 C317 0.979 . S
H348 C317 0.977 . S
H349 C319 0.948 . S
H350 C321 0.947 . S
H351 C322 0.948 . S
H352 C328 0.982 . S
H353 C328 0.979 . S
H354 C328 0.977 1_554 S
H355 C329 0.979 . S
H356 C329 0.980 1_554 S
H357 C329 0.983 . S
H358 C302 0.947 . S
C359 C302 1.392 . S
C359 C303 1.424 . S
C359 H341 0.948 . S
C360 C361 1.391 . S
C360 C364 1.391 . S
C360 H402 0.948 . S
C361 C360 1.391 . S
C361 C362 1.391 . S
C362 C361 1.391 . S
C362 H418 0.947 . S
C362 C419 1.392 . S
C363 C364 1.391 . S
C363 C367 1.397 1_545 S
C363 C419 1.419 . S
C364 C360 1.391 . S
C364 C363 1.391 . S
C364 C365 1.399 . S
C365 C364 1.399 . S
C365 C368 1.388 1_545 S
C365 C377 1.453 1_545 S
C365 C378 1.684 . S
H366 C390 0.948 . S
C367 C363 1.397 1_565 S
C367 C368 1.393 . S
C367 C386 1.722 1_556 S
C368 C365 1.388 1_565 S
C368 C367 1.393 . S
C368 C398 1.722 1_556 S
H369 C392 0.947 . S
H370 C393 0.948 1_556 S
H371 C399 0.982 . S
H372 C400 0.979 . S
H373 C400 0.980 . S
H374 C400 0.983 . S
H375 C399 0.979 . S
H376 C399 0.977 . S
C377 C365 1.453 1_565 S
C377 H406 0.982 . S
C377 H407 0.979 . S
C377 H408 0.977 . S
C378 C365 1.684 . S
C378 H403 0.979 . S
C378 H404 0.980 . S
C378 H405 0.983 . S
C379 C380 1.391 . S
C379 C384 1.391 . S
C379 H409 0.948 . S
C380 C379 1.391 . S
C380 C381 1.391 . S
C381 C380 1.391 . S
C381 C382 1.392 . S
C381 H410 0.947 . S
C382 C381 1.392 . S
C382 C383 1.419 . S
C382 H411 0.948 . S
C383 C382 1.419 . S
C383 C384 1.391 . S
C383 C387 1.397 1_545 S
C384 C379 1.391 . S
C384 C383 1.391 . S
C384 C385 1.399 . S
C385 C384 1.399 . S
C385 C386 1.388 1_545 S
C385 C388 1.453 1_545 S
C385 C389 1.684 . S
C386 C367 1.722 1_554 S
C386 C385 1.388 1_565 S
C386 C387 1.393 . S
C387 C383 1.397 1_565 S
C387 C386 1.393 . S
C387 C397 1.722 . S
C388 C385 1.453 1_565 S
C388 H412 0.982 . S
C388 H413 0.979 . S
C388 H414 0.977 . S
C389 C385 1.684 . S
C389 H415 0.979 . S
C389 H416 0.972 1_554 S
C389 H417 0.983 . S
C390 H366 0.948 . S
C390 C391 1.391 . S
C390 C395 1.391 . S
C391 C390 1.391 . S
C391 C392 1.391 . S
C392 H369 0.947 . S
C392 C391 1.391 . S
C392 C393 1.392 . S
C393 H370 0.948 1_554 S
C393 C392 1.392 . S
C393 C394 1.419 . S
C394 C393 1.419 . S
C394 C395 1.391 . S
C394 C398 1.397 1_545 S
C395 C390 1.391 . S
C395 C394 1.391 . S
C395 C396 1.399 . S
C396 C395 1.399 . S
C396 C397 1.388 1_545 S
C396 C399 1.453 1_545 S
C396 C400 1.684 . S
C397 C387 1.722 . S
C397 C396 1.388 1_565 S
C397 C398 1.393 . S
C398 C368 1.722 1_554 S
C398 C394 1.397 1_565 S
C398 C397 1.393 . S
C399 H371 0.982 . S
C399 H375 0.979 . S
C399 H376 0.977 . S
C399 C396 1.453 1_565 S
C400 H372 0.979 . S
C400 H373 0.980 . S
C400 H374 0.983 . S
C400 C396 1.684 . S
H401 C419 0.948 . S
H402 C360 0.948 . S
H403 C378 0.979 . S
H404 C378 0.980 . S
H405 C378 0.983 . S
H406 C377 0.982 . S
H407 C377 0.979 . S
H408 C377 0.977 . S
H409 C379 0.948 . S
H410 C381 0.947 . S
H411 C382 0.948 . S
H412 C388 0.982 . S
H413 C388 0.979 . S
H414 C388 0.977 . S
H415 C389 0.979 . S
H416 C389 0.972 1_556 S
H417 C389 0.983 . S
H418 C362 0.947 . S
C419 C362 1.392 . S
C419 C363 1.419 . S
C419 H401 0.948 . S
C420 C421 1.391 . S
C420 C424 1.391 . S
C420 H462 0.948 . S
C421 C420 1.391 . S
C421 C422 1.391 . S
C422 C421 1.391 . S
C422 H478 0.947 . S
C422 C479 1.392 . S
C423 C424 1.391 . S
C423 C427 1.397 . S
C423 C479 1.419 . S
C424 C420 1.391 . S
C424 C423 1.391 . S
C424 C425 1.399 . S
C425 C424 1.399 . S
C425 C428 1.396 . S
C425 C437 1.453 . S
C425 C438 1.684 . S
H426 C450 0.948 . S
C427 C423 1.397 . S
C427 C428 1.394 . S
C427 C446 1.723 1_556 S
C428 C425 1.396 . S
C428 C427 1.394 . S
C428 C458 1.723 1_556 S
H429 C452 0.947 . S
H430 C453 0.948 1_556 S
H431 C459 0.982 . S
H432 C460 0.979 . S
H433 C460 0.980 . S
H434 C460 0.983 . S
H435 C459 0.979 . S
H436 C459 0.977 . S
C437 C425 1.453 . S
C437 H466 0.982 . S
C437 H467 0.979 . S
C437 H468 0.977 . S
C438 C425 1.684 . S
C438 H463 0.979 . S
C438 H464 0.980 . S
C438 H465 0.983 . S
C439 C440 1.391 . S
C439 C444 1.391 . S
C439 H469 0.948 . S
C440 C439 1.391 . S
C440 C441 1.391 . S
C441 C440 1.391 . S
C441 C442 1.392 . S
C441 H470 0.947 . S
C442 C441 1.392 . S
C442 C443 1.419 . S
C442 H471 0.948 . S
C443 C442 1.419 . S
C443 C444 1.391 . S
C443 C447 1.397 . S
C444 C439 1.391 . S
C444 C443 1.391 . S
C444 C445 1.399 . S
C445 C444 1.399 . S
C445 C446 1.396 . S
C445 C448 1.453 . S
C445 C449 1.684 . S
C446 C427 1.723 1_554 S
C446 C445 1.396 . S
C446 C447 1.394 . S
C447 C443 1.397 . S
C447 C446 1.394 . S
C447 C457 1.723 . S
C448 C445 1.453 . S
C448 H472 0.982 . S
C448 H473 0.979 . S
C448 H474 0.977 . S
C449 C445 1.684 . S
C449 H475 0.979 . S
C449 H476 0.980 1_554 S
C449 H477 0.983 . S
C450 H426 0.948 . S
C450 C451 1.391 . S
C450 C455 1.391 . S
C451 C450 1.391 . S
C451 C452 1.391 . S
C452 H429 0.947 . S
C452 C451 1.391 . S
C452 C453 1.392 . S
C453 H430 0.948 1_554 S
C453 C452 1.392 . S
C453 C454 1.419 . S
C454 C453 1.419 . S
C454 C455 1.391 . S
C454 C458 1.397 . S
C455 C450 1.391 . S
C455 C454 1.391 . S
C455 C456 1.399 . S
C456 C455 1.399 . S
C456 C457 1.396 . S
C456 C459 1.453 . S
C456 C460 1.684 . S
C457 C447 1.723 . S
C457 C456 1.396 . S
C457 C458 1.394 . S
C458 C428 1.723 1_554 S
C458 C454 1.397 . S
C458 C457 1.394 . S
C459 H431 0.982 . S
C459 H435 0.979 . S
C459 H436 0.977 . S
C459 C456 1.453 . S
C460 H432 0.979 . S
C460 H433 0.980 . S
C460 H434 0.983 . S
C460 C456 1.684 . S
H461 C479 0.948 . S
H462 C420 0.948 . S
H463 C438 0.979 . S
H464 C438 0.980 . S
H465 C438 0.983 . S
H466 C437 0.982 . S
H467 C437 0.979 . S
H468 C437 0.977 . S
H469 C439 0.948 . S
H470 C441 0.947 . S
H471 C442 0.948 . S
H472 C448 0.982 . S
H473 C448 0.979 . S
H474 C448 0.977 . S
H475 C449 0.979 . S
H476 C449 0.980 1_556 S
H477 C449 0.983 . S
H478 C422 0.947 . S
C479 C422 1.392 . S
C479 C423 1.419 . S
C479 H461 0.948 . S
Tb480 C482 2.809 . S
Tb480 O500 2.484 . S
Tb480 O501 2.440 . S
Tb480 O502 2.658 1_565 S
Tb480 O503 2.409 . S
Tb480 O504 2.378 . S
Tb480 O508 2.325 1_455 S
Tb480 O511 2.341 1_565 S
Tb481 C491 2.809 . S
Tb481 O502 2.325 1_655 S
Tb481 O505 2.341 1_545 S
Tb481 O506 2.484 . S
Tb481 O507 2.440 . S
Tb481 O508 2.658 1_545 S
Tb481 O509 2.409 . S
Tb481 O510 2.378 . S
C482 Tb480 2.809 . S
C482 C483 1.514 . S
C482 O500 1.248 . S
C482 O501 1.266 . S
C483 C482 1.514 . S
C483 C484 1.359 . S
C483 C488 1.348 . S
C484 C483 1.359 . S
C484 C485 1.380 . S
C484 H512 0.929 1_455 S
C485 C484 1.380 . S
C485 C486 1.347 . S
C485 H513 0.931 1_455 S
C486 C485 1.347 . S
C486 C487 1.369 . S
C487 C486 1.369 . S
C487 C488 1.408 . S
C487 H514 0.930 . S
C488 C483 1.348 . S
C488 C487 1.408 . S
C488 H515 0.930 . S
C489 O502 1.263 1_565 S
C489 O503 1.280 . S
C490 O504 1.236 1_655 S
C490 O505 1.266 . S
C491 Tb481 2.809 . S
C491 C492 1.514 . S
C491 O506 1.248 . S
C491 O507 1.266 . S
C492 C491 1.514 . S
C492 C493 1.359 . S
C492 C497 1.348 . S
C493 C492 1.359 . S
C493 C494 1.380 . S
C493 H516 0.929 1_655 S
C494 C493 1.380 . S
C494 C495 1.347 . S
C494 H517 0.931 1_655 S
C495 C494 1.347 . S
C495 C496 1.369 . S
C496 C495 1.369 . S
C496 C497 1.408 . S
C496 H518 0.930 . S
C497 C492 1.348 . S
C497 C496 1.408 . S
C497 H519 0.930 . S
C498 O508 1.281 1_545 S
C498 O509 1.254 . S
C499 O510 1.236 1_455 S
C499 O511 1.266 . S
O500 Tb480 2.484 . S
O500 C482 1.248 . S
O501 Tb480 2.440 . S
O501 C482 1.266 . S
O502 Tb480 2.658 1_545 S
O502 Tb481 2.325 1_455 S
O502 C489 1.263 1_545 S
O503 Tb480 2.409 . S
O503 C489 1.280 . S
O504 Tb480 2.378 . S
O504 C490 1.236 1_455 S
O505 Tb481 2.341 1_565 S
O505 C490 1.266 . S
O506 Tb481 2.484 . S
O506 C491 1.248 . S
O507 Tb481 2.440 . S
O507 C491 1.266 . S
O508 Tb480 2.325 1_655 S
O508 Tb481 2.658 1_565 S
O508 C498 1.281 1_565 S
O509 Tb481 2.409 . S
O509 C498 1.254 . S
O510 Tb481 2.378 . S
O510 C499 1.236 1_655 S
O511 Tb480 2.341 1_545 S
O511 C499 1.266 . S
H512 C484 0.929 1_655 S
H513 C485 0.931 1_655 S
H514 C487 0.930 . S
H515 C488 0.930 . S
H516 C493 0.929 1_455 S
H517 C494 0.931 1_455 S
H518 C496 0.930 . S
H519 C497 0.930 . S
Tb520 C522 2.809 . S
Tb520 O540 2.484 . S
Tb520 O541 2.440 . S
Tb520 O542 2.658 . S
Tb520 O543 2.409 . S
Tb520 O544 2.378 . S
Tb520 O548 2.325 1_545 S
Tb520 O551 2.341 . S
Tb521 C531 2.809 . S
Tb521 O542 2.325 1_565 S
Tb521 O545 2.341 . S
Tb521 O546 2.484 . S
Tb521 O547 2.440 . S
Tb521 O548 2.658 . S
Tb521 O549 2.409 . S
Tb521 O550 2.378 . S
C522 Tb520 2.809 . S
C522 C523 1.514 . S
C522 O540 1.248 . S
C522 O541 1.266 . S
C523 C522 1.514 . S
C523 C524 1.359 . S
C523 C528 1.348 . S
C524 C523 1.359 . S
C524 C525 1.380 . S
C524 H552 0.929 1_545 S
C525 C524 1.380 . S
C525 C526 1.347 . S
C525 H553 0.931 1_545 S
C526 C525 1.347 . S
C526 C527 1.369 . S
C527 C526 1.369 . S
C527 C528 1.408 . S
C527 H554 0.930 . S
C528 C523 1.348 . S
C528 C527 1.408 . S
C528 H555 0.930 . S
C529 O542 1.281 . S
C529 O543 1.254 . S
C530 O544 1.236 1_565 S
C530 O545 1.266 . S
C531 Tb521 2.809 . S
C531 C532 1.514 . S
C531 O546 1.248 . S
C531 O547 1.266 . S
C532 C531 1.514 . S
C532 C533 1.359 . S
C532 C537 1.348 . S
C533 C532 1.359 . S
C533 C534 1.380 . S
C533 H556 0.929 1_565 S
C534 C533 1.380 . S
C534 C535 1.347 . S
C534 H557 0.931 1_565 S
C535 C534 1.347 . S
C535 C536 1.369 . S
C536 C535 1.369 . S
C536 C537 1.408 . S
C536 H558 0.930 . S
C537 C532 1.348 . S
C537 C536 1.408 . S
C537 H559 0.930 . S
C538 O548 1.281 . S
C538 O549 1.254 . S
C539 O550 1.236 1_545 S
C539 O551 1.266 . S
O540 Tb520 2.484 . S
O540 C522 1.248 . S
O541 Tb520 2.440 . S
O541 C522 1.266 . S
O542 Tb520 2.658 . S
O542 Tb521 2.325 1_545 S
O542 C529 1.281 . S
O543 Tb520 2.409 . S
O543 C529 1.254 . S
O544 Tb520 2.378 . S
O544 C530 1.236 1_545 S
O545 Tb521 2.341 . S
O545 C530 1.266 . S
O546 Tb521 2.484 . S
O546 C531 1.248 . S
O547 Tb521 2.440 . S
O547 C531 1.266 . S
O548 Tb520 2.325 1_565 S
O548 Tb521 2.658 . S
O548 C538 1.281 . S
O549 Tb521 2.409 . S
O549 C538 1.254 . S
O550 Tb521 2.378 . S
O550 C539 1.236 1_565 S
O551 Tb520 2.341 . S
O551 C539 1.266 . S
H552 C524 0.929 1_565 S
H553 C525 0.931 1_565 S
H554 C527 0.930 . S
H555 C528 0.930 . S
H556 C533 0.929 1_545 S
H557 C534 0.931 1_545 S
H558 C536 0.930 . S
H559 C537 0.930 . S
Tb560 C562 2.809 . S
Tb560 O580 2.484 . S
Tb560 O581 2.440 . S
Tb560 O582 2.658 . S
Tb560 O583 2.409 . S
Tb560 O584 2.378 . S
Tb560 O588 2.325 . S
Tb560 O591 2.341 . S
Tb561 C571 2.809 . S
Tb561 O582 2.325 . S
Tb561 O585 2.341 . S
Tb561 O586 2.484 . S
Tb561 O587 2.440 . S
Tb561 O588 2.658 . S
Tb561 O589 2.409 . S
Tb561 O590 2.378 . S
C562 Tb560 2.809 . S
C562 C563 1.514 . S
C562 O580 1.248 . S
C562 O581 1.266 . S
C563 C562 1.514 . S
C563 C564 1.359 . S
C563 C568 1.348 . S
C564 C563 1.359 . S
C564 C565 1.380 . S
C564 H592 0.929 . S
C565 C564 1.380 . S
C565 C566 1.347 . S
C565 H593 0.931 . S
C566 C565 1.347 . S
C566 C567 1.369 . S
C567 C566 1.369 . S
C567 C568 1.408 . S
C567 H594 0.930 . S
C568 C563 1.348 . S
C568 C567 1.408 . S
C568 H595 0.930 . S
C569 O582 1.281 . S
C569 O583 1.254 . S
C570 O584 1.236 . S
C570 O585 1.266 . S
C571 Tb561 2.809 . S
C571 C572 1.514 . S
C571 O586 1.248 . S
C571 O587 1.266 . S
C572 C571 1.514 . S
C572 C573 1.359 . S
C572 C577 1.348 . S
C573 C572 1.359 . S
C573 C574 1.380 . S
C573 H596 0.929 . S
C574 C573 1.380 . S
C574 C575 1.347 . S
C574 H597 0.931 . S
C575 C574 1.347 . S
C575 C576 1.369 . S
C576 C575 1.369 . S
C576 C577 1.408 . S
C576 H598 0.930 . S
C577 C572 1.348 . S
C577 C576 1.408 . S
C577 H599 0.930 . S
C578 O588 1.281 . S
C578 O589 1.254 . S
C579 O590 1.236 . S
C579 O591 1.266 . S
O580 Tb560 2.484 . S
O580 C562 1.248 . S
O581 Tb560 2.440 . S
O581 C562 1.266 . S
O582 Tb560 2.658 . S
O582 Tb561 2.325 . S
O582 C569 1.281 . S
O583 Tb560 2.409 . S
O583 C569 1.254 . S
O584 Tb560 2.378 . S
O584 C570 1.236 . S
O585 Tb561 2.341 . S
O585 C570 1.266 . S
O586 Tb561 2.484 . S
O586 C571 1.248 . S
O587 Tb561 2.440 . S
O587 C571 1.266 . S
O588 Tb560 2.325 . S
O588 Tb561 2.658 . S
O588 C578 1.281 . S
O589 Tb561 2.409 . S
O589 C578 1.254 . S
O590 Tb561 2.378 . S
O590 C579 1.236 . S
O591 Tb560 2.341 . S
O591 C579 1.266 . S
H592 C564 0.929 . S
H593 C565 0.931 . S
H594 C567 0.930 . S
H595 C568 0.930 . S
H596 C573 0.929 . S
H597 C574 0.931 . S
H598 C576 0.930 . S
H599 C577 0.930 . S
Tb600 C602 2.809 . S
Tb600 O620 2.484 . S
Tb600 O621 2.440 . S
Tb600 O622 2.658 1_655 S
Tb600 O623 2.409 . S
Tb600 O624 2.378 . S
Tb600 O628 2.325 . S
Tb600 O631 2.341 1_655 S
Tb601 C611 2.809 . S
Tb601 O622 2.325 . S
Tb601 O625 2.341 1_455 S
Tb601 O626 2.484 . S
Tb601 O627 2.440 . S
Tb601 O628 2.658 1_455 S
Tb601 O629 2.409 . S
Tb601 O630 2.378 . S
C602 Tb600 2.809 . S
C602 C603 1.514 . S
C602 O620 1.248 . S
C602 O621 1.266 . S
C603 C602 1.514 . S
C603 C604 1.359 . S
C603 C608 1.348 . S
C604 C603 1.359 . S
C604 C605 1.380 . S
C604 H632 0.929 . S
C605 C604 1.380 . S
C605 C606 1.347 . S
C605 H633 0.931 . S
C606 C605 1.347 . S
C606 C607 1.369 . S
C607 C606 1.369 . S
C607 C608 1.408 . S
C607 H634 0.930 . S
C608 C603 1.348 . S
C608 C607 1.408 . S
C608 H635 0.930 . S
C609 O622 1.271 1_655 S
C609 O623 1.268 . S
C610 O624 1.236 . S
C610 O625 1.266 . S
C611 Tb601 2.809 . S
C611 C612 1.514 . S
C611 O626 1.248 . S
C611 O627 1.266 . S
C612 C611 1.514 . S
C612 C613 1.359 . S
C612 C617 1.348 . S
C613 C612 1.359 . S
C613 C614 1.380 . S
C613 H636 0.929 . S
C614 C613 1.380 . S
C614 C615 1.347 . S
C614 H637 0.931 . S
C615 C614 1.347 . S
C615 C616 1.369 . S
C616 C615 1.369 . S
C616 C617 1.408 . S
C616 H638 0.930 . S
C617 C612 1.348 . S
C617 C616 1.408 . S
C617 H639 0.930 . S
C618 O628 1.266 1_455 S
C618 O629 1.276 . S
C619 O630 1.236 . S
C619 O631 1.266 . S
O620 Tb600 2.484 . S
O620 C602 1.248 . S
O621 Tb600 2.440 . S
O621 C602 1.266 . S
O622 Tb600 2.658 1_455 S
O622 Tb601 2.325 . S
O622 C609 1.271 1_455 S
O623 Tb600 2.409 . S
O623 C609 1.268 . S
O624 Tb600 2.378 . S
O624 C610 1.236 . S
O625 Tb601 2.341 1_655 S
O625 C610 1.266 . S
O626 Tb601 2.484 . S
O626 C611 1.248 . S
O627 Tb601 2.440 . S
O627 C611 1.266 . S
O628 Tb600 2.325 . S
O628 Tb601 2.658 1_655 S
O628 C618 1.266 1_655 S
O629 Tb601 2.409 . S
O629 C618 1.276 . S
O630 Tb601 2.378 . S
O630 C619 1.236 . S
O631 Tb600 2.341 1_455 S
O631 C619 1.266 . S
H632 C604 0.929 . S
H633 C605 0.931 . S
H634 C607 0.930 . S
H635 C608 0.930 . S
H636 C613 0.929 . S
H637 C614 0.931 . S
H638 C616 0.930 . S
H639 C617 0.930 . S
C640 C641 1.351 . S
C640 C642 1.327 . S
C640 H665 0.950 . S
C641 C640 1.351 . S
C641 C657 1.347 1_545 S
C642 C640 1.327 . S
C642 C661 1.436 . S
C642 H666 0.950 . S
C643 C660 1.574 . S
C643 C662 1.358 1_565 S
C643 H667 0.949 . S
H644 C648 0.949 . S
C645 C646 1.326 1_565 S
C645 C647 1.327 . S
C645 H668 0.950 . S
C646 C645 1.326 1_545 S
C646 C658 1.371 . S
C647 C645 1.327 . S
C647 C663 1.412 1_565 S
C647 H669 0.950 . S
C648 H644 0.949 . S
C648 C656 1.574 . S
C648 C664 1.384 . S
H649 C657 0.950 . S
H650 C655 0.950 . S
H651 C656 0.949 . S
H652 C658 0.950 . S
H653 C659 0.950 . S
H654 C660 0.949 . S
C655 H650 0.950 . S
C655 C657 1.327 . S
C655 C661 1.421 1_565 S
C656 C648 1.574 . S
C656 H651 0.949 . S
C656 C662 1.379 . S
C657 C641 1.347 1_565 S
C657 H649 0.950 . S
C657 C655 1.327 . S
C658 C646 1.371 . S
C658 H652 0.950 . S
C658 C659 1.327 . S
C659 H653 0.950 . S
C659 C658 1.327 . S
C659 C663 1.446 . S
C660 C643 1.574 . S
C660 H654 0.949 . S
C660 C664 1.353 1_565 S
C661 C642 1.436 . S
C661 C655 1.421 1_545 S
C661 C662 1.523 . S
C662 C643 1.358 1_545 S
C662 C656 1.379 . S
C662 C661 1.523 . S
C663 C647 1.412 1_545 S
C663 C659 1.446 . S
C663 C664 1.523 . S
C664 C648 1.384 . S
C664 C660 1.353 1_545 S
C664 C663 1.523 . S
H665 C640 0.950 . S
H666 C642 0.950 . S
H667 C643 0.949 . S
H668 C645 0.950 . S
H669 C647 0.950 . S
C670 C671 1.349 . S
C670 C672 1.327 . S
C670 H695 0.950 . S
C671 C670 1.349 . S
C671 C687 1.349 . S
C672 C670 1.327 . S
C672 C691 1.429 . S
C672 H696 0.950 . S
C673 C690 1.574 . S
C673 C692 1.368 . S
C673 H697 0.949 . S
H674 C678 0.949 . S
C675 C676 1.349 . S
C675 C677 1.327 . S
C675 H698 0.950 . S
C676 C675 1.349 . S
C676 C688 1.349 . S
C677 C675 1.327 . S
C677 C693 1.429 . S
C677 H699 0.950 . S
C678 H674 0.949 . S
C678 C686 1.574 . S
C678 C694 1.368 . S
H679 C687 0.950 . S
H680 C685 0.950 . S
H681 C686 0.949 . S
H682 C688 0.950 . S
H683 C689 0.950 . S
H684 C690 0.949 . S
C685 H680 0.950 . S
C685 C687 1.327 . S
C685 C691 1.429 . S
C686 C678 1.574 . S
C686 H681 0.949 . S
C686 C692 1.368 . S
C687 C671 1.349 . S
C687 H679 0.950 . S
C687 C685 1.327 . S
C688 C676 1.349 . S
C688 H682 0.950 . S
C688 C689 1.327 . S
C689 H683 0.950 . S
C689 C688 1.327 . S
C689 C693 1.429 . S
C690 C673 1.574 . S
C690 H684 0.949 . S
C690 C694 1.368 . S
C691 C672 1.429 . S
C691 C685 1.429 . S
C691 C692 1.523 . S
C692 C673 1.368 . S
C692 C686 1.368 . S
C692 C691 1.523 . S
C693 C677 1.429 . S
C693 C689 1.429 . S
C693 C694 1.523 . S
C694 C678 1.368 . S
C694 C690 1.368 . S
C694 C693 1.523 . S
H695 C670 0.950 . S
H696 C672 0.950 . S
H697 C673 0.949 . S
H698 C675 0.950 . S
H699 C677 0.950 . S
C700 C701 1.349 . S
C700 C702 1.327 . S
C700 H725 0.950 . S
C701 C700 1.349 . S
C701 C717 1.349 . S
C702 C700 1.327 . S
C702 C721 1.429 . S
C702 H726 0.950 . S
C703 C720 1.574 . S
C703 C722 1.368 . S
C703 H727 0.949 . S
H704 C708 0.949 . S
C705 C706 1.349 . S
C705 C707 1.327 . S
C705 H728 0.950 . S
C706 C705 1.349 . S
C706 C718 1.349 . S
C707 C705 1.327 . S
C707 C723 1.429 . S
C707 H729 0.950 . S
C708 H704 0.949 . S
C708 C716 1.574 . S
C708 C724 1.368 . S
H709 C717 0.950 . S
H710 C715 0.950 . S
H711 C716 0.949 . S
H712 C718 0.950 . S
H713 C719 0.950 . S
H714 C720 0.949 . S
C715 H710 0.950 . S
C715 C717 1.327 . S
C715 C721 1.429 . S
C716 C708 1.574 . S
C716 H711 0.949 . S
C716 C722 1.368 . S
C717 C701 1.349 . S
C717 H709 0.950 . S
C717 C715 1.327 . S
C718 C706 1.349 . S
C718 H712 0.950 . S
C718 C719 1.327 . S
C719 H713 0.950 . S
C719 C718 1.327 . S
C719 C723 1.429 . S
C720 C703 1.574 . S
C720 H714 0.949 . S
C720 C724 1.368 . S
C721 C702 1.429 . S
C721 C715 1.429 . S
C721 C722 1.523 . S
C722 C703 1.368 . S
C722 C716 1.368 . S
C722 C721 1.523 . S
C723 C707 1.429 . S
C723 C719 1.429 . S
C723 C724 1.523 . S
C724 C708 1.368 . S
C724 C720 1.368 . S
C724 C723 1.523 . S
H725 C700 0.950 . S
H726 C702 0.950 . S
H727 C703 0.949 . S
H728 C705 0.950 . S
H729 C707 0.950 . S
C730 C731 1.351 . S
C730 C732 1.327 . S
C730 H755 0.950 . S
C731 C730 1.351 . S
C731 C747 1.347 1_455 S
C732 C730 1.327 . S
C732 C751 1.435 . S
C732 H756 0.950 . S
C733 C750 1.574 . S
C733 C752 1.358 1_655 S
C733 H757 0.949 . S
H734 C738 0.949 . S
C735 C736 1.328 1_655 S
C735 C737 1.327 . S
C735 H758 0.950 . S
C736 C735 1.328 1_455 S
C736 C748 1.371 . S
C737 C735 1.327 . S
C737 C753 1.413 1_655 S
C737 H759 0.950 . S
C738 H734 0.949 . S
C738 C746 1.574 . S
C738 C754 1.384 . S
H739 C747 0.950 . S
H740 C745 0.950 . S
H741 C746 0.949 . S
H742 C748 0.950 . S
H743 C749 0.950 . S
H744 C750 0.949 . S
C745 H740 0.950 . S
C745 C747 1.327 . S
C745 C751 1.422 1_655 S
C746 C738 1.574 . S
C746 H741 0.949 . S
C746 C752 1.379 . S
C747 C731 1.347 1_655 S
C747 H739 0.950 . S
C747 C745 1.327 . S
C748 C736 1.371 . S
C748 H742 0.950 . S
C748 C749 1.327 . S
C749 H743 0.950 . S
C749 C748 1.327 . S
C749 C753 1.445 . S
C750 C733 1.574 . S
C750 H744 0.949 . S
C750 C754 1.354 1_655 S
C751 C732 1.435 . S
C751 C745 1.422 1_455 S
C751 C752 1.523 . S
C752 C733 1.358 1_455 S
C752 C746 1.379 . S
C752 C751 1.523 . S
C753 C737 1.413 1_455 S
C753 C749 1.445 . S
C753 C754 1.523 . S
C754 C738 1.384 . S
C754 C750 1.354 1_455 S
C754 C753 1.523 . S
H755 C730 0.950 . S
H756 C732 0.950 . S
H757 C733 0.949 . S
H758 C735 0.950 . S
H759 C737 0.950 . S
C760 C761 1.347 . S
C760 C762 1.327 . S
C760 H785 0.950 . S
C761 C760 1.347 . S
C761 C777 1.351 1_545 S
C762 C760 1.327 . S
C762 C781 1.432 1_545 S
C762 H786 0.950 . S
C763 C780 1.574 1_554 S
C763 C782 1.368 . S
C763 H787 0.949 . S
H764 C768 0.949 . S
C765 C766 1.361 . S
C765 C767 1.327 . S
C765 H788 0.950 . S
C766 C765 1.361 . S
C766 C778 1.337 1_565 S
C767 C765 1.327 . S
C767 C783 1.435 . S
C767 H789 0.950 . S
C768 H764 0.949 . S
C768 C776 1.574 1_556 S
C768 C784 1.364 1_545 S
H769 C777 0.950 . S
H770 C775 0.950 . S
H771 C776 0.949 . S
H772 C778 0.950 . S
H773 C779 0.950 . S
H774 C780 0.949 . S
C775 H770 0.950 . S
C775 C777 1.327 . S
C775 C781 1.426 . S
C776 C768 1.574 1_554 S
C776 H771 0.949 . S
C776 C782 1.369 1_545 S
C777 C761 1.351 1_565 S
C777 H769 0.950 . S
C777 C775 1.327 . S
C778 C766 1.337 1_545 S
C778 H772 0.950 . S
C778 C779 1.327 . S
C779 H773 0.950 . S
C779 C778 1.327 . S
C779 C783 1.422 1_545 S
C780 C763 1.574 1_556 S
C780 H774 0.949 . S
C780 C784 1.373 . S
C781 C762 1.432 1_565 S
C781 C775 1.426 . S
C781 C782 1.523 . S
C782 C763 1.368 . S
C782 C776 1.369 1_565 S
C782 C781 1.523 . S
C783 C767 1.435 . S
C783 C779 1.422 1_565 S
C783 C784 1.523 . S
C784 C768 1.364 1_565 S
C784 C780 1.373 . S
C784 C783 1.523 . S
H785 C760 0.950 . S
H786 C762 0.950 . S
H787 C763 0.949 . S
H788 C765 0.950 . S
H789 C767 0.950 . S
C790 C791 1.349 . S
C790 C792 1.327 . S
C790 H815 0.950 . S
C791 C790 1.349 . S
C791 C807 1.349 . S
C792 C790 1.327 . S
C792 C811 1.429 . S
C792 H816 0.950 . S
C793 C810 1.574 . S
C793 C812 1.368 1_556 S
C793 H817 0.949 . S
H794 C798 0.949 . S
C795 C796 1.349 . S
C795 C797 1.327 . S
C795 H818 0.950 . S
C796 C795 1.349 . S
C796 C808 1.349 . S
C797 C795 1.327 . S
C797 C813 1.429 . S
C797 H819 0.950 . S
C798 H794 0.949 . S
C798 C806 1.574 1_556 S
C798 C814 1.368 . S
H799 C807 0.950 . S
H800 C805 0.950 . S
H801 C806 0.949 . S
H802 C808 0.950 . S
H803 C809 0.950 . S
H804 C810 0.949 . S
C805 H800 0.950 . S
C805 C807 1.327 . S
C805 C811 1.429 . S
C806 C798 1.574 1_554 S
C806 H801 0.949 . S
C806 C812 1.368 . S
C807 C791 1.349 . S
C807 H799 0.950 . S
C807 C805 1.327 . S
C808 C796 1.349 . S
C808 H802 0.950 . S
C808 C809 1.327 . S
C809 H803 0.950 . S
C809 C808 1.327 . S
C809 C813 1.429 . S
C810 C793 1.574 . S
C810 H804 0.949 . S
C810 C814 1.368 . S
C811 C792 1.429 . S
C811 C805 1.429 . S
C811 C812 1.523 . S
C812 C793 1.368 1_554 S
C812 C806 1.368 . S
C812 C811 1.523 . S
C813 C797 1.429 . S
C813 C809 1.429 . S
C813 C814 1.523 . S
C814 C798 1.368 . S
C814 C810 1.368 . S
C814 C813 1.523 . S
H815 C790 0.950 . S
H816 C792 0.950 . S
H817 C793 0.949 . S
H818 C795 0.950 . S
H819 C797 0.950 . S
C820 C821 1.349 . S
C820 C822 1.327 . S
C820 H845 0.950 . S
C821 C820 1.349 . S
C821 C837 1.349 . S
C822 C820 1.327 . S
C822 C841 1.429 . S
C822 H846 0.950 . S
C823 C840 1.574 1_554 S
C823 C842 1.368 . S
C823 H847 0.949 . S
H824 C828 0.949 . S
C825 C826 1.349 . S
C825 C827 1.327 . S
C825 H848 0.950 . S
C826 C825 1.349 . S
C826 C838 1.349 . S
C827 C825 1.327 . S
C827 C843 1.429 . S
C827 H849 0.950 . S
C828 H824 0.949 . S
C828 C836 1.574 1_556 S
C828 C844 1.368 . S
H829 C837 0.950 . S
H830 C835 0.950 . S
H831 C836 0.949 . S
H832 C838 0.950 . S
H833 C839 0.950 . S
H834 C840 0.949 . S
C835 H830 0.950 . S
C835 C837 1.327 . S
C835 C841 1.429 . S
C836 C828 1.574 1_554 S
C836 H831 0.949 . S
C836 C842 1.368 . S
C837 C821 1.349 . S
C837 H829 0.950 . S
C837 C835 1.327 . S
C838 C826 1.349 . S
C838 H832 0.950 . S
C838 C839 1.327 . S
C839 H833 0.950 . S
C839 C838 1.327 . S
C839 C843 1.429 . S
C840 C823 1.574 1_556 S
C840 H834 0.949 . S
C840 C844 1.368 . S
C841 C822 1.429 . S
C841 C835 1.429 . S
C841 C842 1.523 . S
C842 C823 1.368 . S
C842 C836 1.368 . S
C842 C841 1.523 . S
C843 C827 1.429 . S
C843 C839 1.429 . S
C843 C844 1.523 . S
C844 C828 1.368 . S
C844 C840 1.368 . S
C844 C843 1.523 . S
H845 C820 0.950 . S
H846 C822 0.950 . S
H847 C823 0.949 . S
H848 C825 0.950 . S
H849 C827 0.950 . S
C850 C851 1.351 . S
C850 C852 1.327 . S
C850 H875 0.950 . S
C851 C850 1.351 . S
C851 C867 1.347 1_655 S
C852 C850 1.327 . S
C852 C871 1.436 . S
C852 H876 0.950 . S
C853 C870 1.574 . S
C853 C872 1.358 1_456 S
C853 H877 0.949 . S
H854 C858 0.949 . S
C855 C856 1.327 1_455 S
C855 C857 1.327 . S
C855 H878 0.950 . S
C856 C855 1.327 1_655 S
C856 C868 1.372 . S
C857 C855 1.327 . S
C857 C873 1.412 1_455 S
C857 H879 0.950 . S
C858 H854 0.949 . S
C858 C866 1.574 1_556 S
C858 C874 1.384 . S
H859 C867 0.950 . S
H860 C865 0.950 . S
H861 C866 0.949 . S
H862 C868 0.950 . S
H863 C869 0.950 . S
H864 C870 0.949 . S
C865 H860 0.950 . S
C865 C867 1.327 . S
C865 C871 1.421 1_455 S
C866 C858 1.574 1_554 S
C866 H861 0.949 . S
C866 C872 1.379 . S
C867 C851 1.347 1_455 S
C867 H859 0.950 . S
C867 C865 1.327 . S
C868 C856 1.372 . S
C868 H862 0.950 . S
C868 C869 1.327 . S
C869 H863 0.950 . S
C869 C868 1.327 . S
C869 C873 1.446 . S
C870 C853 1.574 . S
C870 H864 0.949 . S
C870 C874 1.353 1_455 S
C871 C852 1.436 . S
C871 C865 1.421 1_655 S
C871 C872 1.523 . S
C872 C853 1.358 1_654 S
C872 C866 1.379 . S
C872 C871 1.523 . S
C873 C857 1.412 1_655 S
C873 C869 1.446 . S
C873 C874 1.523 . S
C874 C858 1.384 . S
C874 C870 1.353 1_655 S
C874 C873 1.523 . S
H875 C850 0.950 . S
H876 C852 0.950 . S
H877 C853 0.949 . S
H878 C855 0.950 . S
H879 C857 0.950 . S
C880 C881 1.349 1_655 S
C880 C882 1.327 . S
C880 H905 0.950 . S
C881 C880 1.349 1_455 S
C881 C897 1.349 . S
C882 C880 1.327 . S
C882 C901 1.429 . S
C882 H906 0.950 . S
C883 C900 1.580 . S
C883 C902 1.368 1_455 S
C883 H907 0.949 . S
H884 C888 0.949 . S
C885 C886 1.349 . S
C885 C887 1.327 . S
C885 H908 0.950 . S
C886 C885 1.349 . S
C886 C898 1.349 . S
C887 C885 1.327 . S
C887 C903 1.429 . S
C887 H909 0.950 1_655 S
C888 H884 0.949 . S
C888 C896 1.574 . S
C888 C904 1.368 . S
H889 C897 0.950 . S
H890 C895 0.950 . S
H891 C896 0.949 . S
H892 C898 0.950 . S
H893 C899 0.950 . S
H894 C900 0.968 . S
C895 H890 0.950 . S
C895 C897 1.327 . S
C895 C901 1.429 1_455 S
C896 C888 1.574 . S
C896 H891 0.949 . S
C896 C902 1.368 . S
C897 C881 1.349 . S
C897 H889 0.950 . S
C897 C895 1.327 . S
C898 C886 1.349 . S
C898 H892 0.950 . S
C898 C899 1.327 . S
C899 H893 0.950 . S
C899 C898 1.327 . S
C899 C903 1.429 . S
C900 C883 1.580 . S
C900 H894 0.968 . S
C900 C904 1.342 1_455 S
C901 C882 1.429 . S
C901 C895 1.429 1_655 S
C901 C902 1.523 . S
C902 C883 1.368 1_655 S
C902 C896 1.368 . S
C902 C901 1.523 . S
C903 C887 1.429 . S
C903 C899 1.429 . S
C903 C904 1.523 . S
C904 C888 1.368 . S
C904 C900 1.342 1_655 S
C904 C903 1.523 . S
H905 C880 0.950 . S
H906 C882 0.950 . S
H907 C883 0.949 . S
H908 C885 0.950 . S
H909 C887 0.950 1_455 S
C910 C911 1.349 . S
C910 C912 1.327 . S
C910 H935 0.950 . S
C911 C910 1.349 . S
C911 C927 1.349 1_545 S
C912 C910 1.327 . S
C912 C931 1.429 1_545 S
C912 H936 0.950 . S
C913 C930 1.574 . S
C913 C932 1.368 . S
C913 H937 0.949 . S
H914 C918 0.949 . S
C915 C916 1.349 . S
C915 C917 1.327 . S
C915 H938 0.950 . S
C916 C915 1.349 . S
C916 C928 1.349 . S
C917 C915 1.327 . S
C917 C933 1.429 . S
C917 H939 0.950 . S
C918 H914 0.949 . S
C918 C926 1.574 . S
C918 C934 1.368 . S
H919 C927 0.950 . S
H920 C925 0.950 . S
H921 C926 0.940 1_545 S
H922 C928 0.950 . S
H923 C929 0.950 . S
H924 C930 0.949 . S
C925 H920 0.950 . S
C925 C927 1.327 . S
C925 C931 1.429 . S
C926 C918 1.574 . S
C926 H921 0.940 1_565 S
C926 C932 1.368 . S
C927 C911 1.349 1_565 S
C927 H919 0.950 . S
C927 C925 1.327 . S
C928 C916 1.349 . S
C928 H922 0.950 . S
C928 C929 1.327 . S
C929 H923 0.950 . S
C929 C928 1.327 . S
C929 C933 1.429 . S
C930 C913 1.574 . S
C930 H924 0.949 . S
C930 C934 1.368 . S
C931 C912 1.429 1_565 S
C931 C925 1.429 . S
C931 C932 1.523 . S
C932 C913 1.368 . S
C932 C926 1.368 . S
C932 C931 1.523 . S
C933 C917 1.429 . S
C933 C929 1.429 . S
C933 C934 1.523 . S
C934 C918 1.368 . S
C934 C930 1.368 . S
C934 C933 1.523 . S
H935 C910 0.950 . S
H936 C912 0.950 . S
H937 C913 0.949 . S
H938 C915 0.950 . S
H939 C917 0.950 . S
C940 C941 1.349 . S
C940 C942 1.327 . S
C940 H965 0.950 . S
C941 C940 1.349 . S
C941 C957 1.349 . S
C942 C940 1.327 . S
C942 C961 1.429 . S
C942 H966 0.950 . S
C943 C960 1.574 . S
C943 C962 1.368 . S
C943 H967 0.949 . S
H944 C948 0.949 . S
C945 C946 1.349 . S
C945 C947 1.327 . S
C945 H968 0.950 . S
C946 C945 1.349 . S
C946 C958 1.349 . S
C947 C945 1.327 . S
C947 C963 1.429 . S
C947 H969 0.950 . S
C948 H944 0.949 . S
C948 C956 1.574 . S
C948 C964 1.368 . S
H949 C957 0.950 . S
H950 C955 0.950 . S
H951 C956 0.949 . S
H952 C958 0.950 . S
H953 C959 0.950 . S
H954 C960 0.949 . S
C955 H950 0.950 . S
C955 C957 1.327 . S
C955 C961 1.429 . S
C956 C948 1.574 . S
C956 H951 0.949 . S
C956 C962 1.368 . S
C957 C941 1.349 . S
C957 H949 0.950 . S
C957 C955 1.327 . S
C958 C946 1.349 . S
C958 H952 0.950 . S
C958 C959 1.327 . S
C959 H953 0.950 . S
C959 C958 1.327 . S
C959 C963 1.429 . S
C960 C943 1.574 . S
C960 H954 0.949 . S
C960 C964 1.368 . S
C961 C942 1.429 . S
C961 C955 1.429 . S
C961 C962 1.523 . S
C962 C943 1.368 . S
C962 C956 1.368 . S
C962 C961 1.523 . S
C963 C947 1.429 . S
C963 C959 1.429 . S
C963 C964 1.523 . S
C964 C948 1.368 . S
C964 C960 1.368 . S
C964 C963 1.523 . S
H965 C940 0.950 . S
H966 C942 0.950 . S
H967 C943 0.949 . S
H968 C945 0.950 . S
H969 C947 0.950 . S
C970 C971 1.349 . S
C970 C972 1.327 . S
C970 H995 0.950 . S
C971 C970 1.349 . S
C971 C987 1.349 . S
C972 C970 1.327 . S
C972 C991 1.429 . S
C972 H996 0.950 . S
C973 C990 1.574 . S
C973 C992 1.368 . S
C973 H997 0.949 . S
H974 C978 0.949 . S
C975 C976 1.349 . S
C975 C977 1.327 . S
C975 H998 0.950 . S
C976 C975 1.349 . S
C976 C988 1.349 . S
C977 C975 1.327 . S
C977 C993 1.429 . S
C977 H999 0.950 . S
C978 H974 0.949 . S
C978 C986 1.574 . S
C978 C994 1.368 . S
H979 C987 0.950 . S
H980 C985 0.950 . S
H981 C986 0.949 . S
H982 C988 0.950 . S
H983 C989 0.950 . S
H984 C990 0.949 . S
C985 H980 0.950 . S
C985 C987 1.327 . S
C985 C991 1.429 . S
C986 C978 1.574 . S
C986 H981 0.949 . S
C986 C992 1.368 . S
C987 C971 1.349 . S
C987 H979 0.950 . S
C987 C985 1.327 . S
C988 C976 1.349 . S
C988 H982 0.950 . S
C988 C989 1.327 . S
C989 H983 0.950 . S
C989 C988 1.327 . S
C989 C993 1.429 . S
C990 C973 1.574 . S
C990 H984 0.949 . S
C990 C994 1.368 . S
C991 C972 1.429 . S
C991 C985 1.429 . S
C991 C992 1.523 . S
C992 C973 1.368 . S
C992 C986 1.368 . S
C992 C991 1.523 . S
C993 C977 1.429 . S
C993 C989 1.429 . S
C993 C994 1.523 . S
C994 C978 1.368 . S
C994 C990 1.368 . S
C994 C993 1.523 . S
H995 C970 0.950 . S
H996 C972 0.950 . S
H997 C973 0.949 . S
H998 C975 0.950 . S
H999 C977 0.950 . S
C1000 C1001 1.349 . S
C1000 C1002 1.327 . S
C1000 H1025 0.950 . S
C1001 C1000 1.349 . S
C1001 C1017 1.349 1_655 S
C1002 C1000 1.327 . S
C1002 C1021 1.429 1_655 S
C1002 H1026 0.950 1_554 S
C1003 C1020 1.574 . S
C1003 C1022 1.368 . S
C1003 H1027 0.949 . S
H1004 C1008 0.949 1_655 S
C1005 C1006 1.349 . S
C1005 C1007 1.327 . S
C1005 H1028 0.950 . S
C1006 C1005 1.349 . S
C1006 C1018 1.349 . S
C1007 C1005 1.327 . S
C1007 C1023 1.429 . S
C1007 H1029 0.950 . S
C1008 H1004 0.949 1_455 S
C1008 C1016 1.574 1_455 S
C1008 C1024 1.368 . S
H1009 C1017 0.950 . S
H1010 C1015 0.950 . S
H1011 C1016 0.947 . S
H1012 C1018 0.950 . S
H1013 C1019 0.950 . S
H1014 C1020 0.949 . S
C1015 H1010 0.950 . S
C1015 C1017 1.327 . S
C1015 C1021 1.429 . S
C1016 C1008 1.574 1_655 S
C1016 H1011 0.947 . S
C1016 C1022 1.370 1_656 S
C1017 C1001 1.349 1_455 S
C1017 H1009 0.950 . S
C1017 C1015 1.327 . S
C1018 C1006 1.349 . S
C1018 H1012 0.950 . S
C1018 C1019 1.327 . S
C1019 H1013 0.950 . S
C1019 C1018 1.327 . S
C1019 C1023 1.429 . S
C1020 C1003 1.574 . S
C1020 H1014 0.949 . S
C1020 C1024 1.368 1_554 S
C1021 C1002 1.429 1_455 S
C1021 C1015 1.429 . S
C1021 C1022 1.523 . S
C1022 C1003 1.368 . S
C1022 C1016 1.370 1_454 S
C1022 C1021 1.523 . S
C1023 C1007 1.429 . S
C1023 C1019 1.429 . S
C1023 C1024 1.523 . S
C1024 C1008 1.368 . S
C1024 C1020 1.368 1_556 S
C1024 C1023 1.523 . S
H1025 C1000 0.950 . S
H1026 C1002 0.950 1_556 S
H1027 C1003 0.949 . S
H1028 C1005 0.950 . S
H1029 C1007 0.950 . S
C1030 C1031 1.349 . S
C1030 C1032 1.327 . S
C1030 H1055 0.950 . S
C1031 C1030 1.349 . S
C1031 C1047 1.349 1_565 S
C1032 C1030 1.327 . S
C1032 C1051 1.429 1_565 S
C1032 H1056 0.950 . S
C1033 C1050 1.574 . S
C1033 C1052 1.368 1_556 S
C1033 H1057 0.949 1_556 S
H1034 C1038 0.949 . S
C1035 C1036 1.349 . S
C1035 C1037 1.327 . S
C1035 H1058 0.950 . S
C1036 C1035 1.349 . S
C1036 C1048 1.349 . S
C1037 C1035 1.327 . S
C1037 C1053 1.429 . S
C1037 H1059 0.950 . S
C1038 H1034 0.949 . S
C1038 C1046 1.574 1_556 S
C1038 C1054 1.368 1_565 S
H1039 C1047 0.950 . S
H1040 C1045 0.950 . S
H1041 C1046 0.949 . S
H1042 C1048 0.904 1_565 S
H1043 C1049 0.950 1_565 S
H1044 C1050 0.949 . S
C1045 H1040 0.950 . S
C1045 C1047 1.327 . S
C1045 C1051 1.429 . S
C1046 C1038 1.574 1_554 S
C1046 H1041 0.949 . S
C1046 C1052 1.368 1_565 S
C1047 C1031 1.349 1_545 S
C1047 H1039 0.950 . S
C1047 C1045 1.327 . S
C1048 C1036 1.349 . S
C1048 H1042 0.904 1_545 S
C1048 C1049 1.327 . S
C1049 H1043 0.950 1_545 S
C1049 C1048 1.327 . S
C1049 C1053 1.429 . S
C1050 C1033 1.574 . S
C1050 H1044 0.949 . S
C1050 C1054 1.368 . S
C1051 C1032 1.429 1_545 S
C1051 C1045 1.429 . S
C1051 C1052 1.523 . S
C1052 C1033 1.368 1_554 S
C1052 C1046 1.368 1_545 S
C1052 C1051 1.523 . S
C1053 C1037 1.429 . S
C1053 C1049 1.429 . S
C1053 C1054 1.523 . S
C1054 C1038 1.368 1_545 S
C1054 C1050 1.368 . S
C1054 C1053 1.523 . S
H1055 C1030 0.950 . S
H1056 C1032 0.950 . S
H1057 C1033 0.949 1_554 S
H1058 C1035 0.950 . S
H1059 C1037 0.950 . S
C1060 C1061 1.349 . S
C1060 C1062 1.327 . S
C1060 H1085 0.950 . S
C1061 C1060 1.349 . S
C1061 C1077 1.349 . S
C1062 C1060 1.327 . S
C1062 C1081 1.429 . S
C1062 H1086 0.950 1_554 S
C1063 C1080 1.574 . S
C1063 C1082 1.368 . S
C1063 H1087 0.949 . S
H1064 C1068 0.949 . S
C1065 C1066 1.349 . S
C1065 C1067 1.327 . S
C1065 H1088 0.950 . S
C1066 C1065 1.349 . S
C1066 C1078 1.349 . S
C1067 C1065 1.327 . S
C1067 C1083 1.429 . S
C1067 H1089 0.950 . S
C1068 H1064 0.949 . S
C1068 C1076 1.574 . S
C1068 C1084 1.368 . S
H1069 C1077 0.950 . S
H1070 C1075 0.950 . S
H1071 C1076 0.949 . S
H1072 C1078 0.950 . S
H1073 C1079 0.950 . S
H1074 C1080 0.949 . S
C1075 H1070 0.950 . S
C1075 C1077 1.327 . S
C1075 C1081 1.429 . S
C1076 C1068 1.574 . S
C1076 H1071 0.949 . S
C1076 C1082 1.368 1_556 S
C1077 C1061 1.349 . S
C1077 H1069 0.950 . S
C1077 C1075 1.327 . S
C1078 C1066 1.349 . S
C1078 H1072 0.950 . S
C1078 C1079 1.327 . S
C1079 H1073 0.950 . S
C1079 C1078 1.327 . S
C1079 C1083 1.429 . S
C1080 C1063 1.574 . S
C1080 H1074 0.949 . S
C1080 C1084 1.368 1_554 S
C1081 C1062 1.429 . S
C1081 C1075 1.429 . S
C1081 C1082 1.523 . S
C1082 C1063 1.368 . S
C1082 C1076 1.368 1_554 S
C1082 C1081 1.523 . S
C1083 C1067 1.429 . S
C1083 C1079 1.429 . S
C1083 C1084 1.523 . S
C1084 C1068 1.368 . S
C1084 C1080 1.368 1_556 S
C1084 C1083 1.523 . S
H1085 C1060 0.950 . S
H1086 C1062 0.950 1_556 S
H1087 C1063 0.949 . S
H1088 C1065 0.950 . S
H1089 C1067 0.950 . S
C1090 C1091 1.349 . S
C1090 C1092 1.327 . S
C1090 H1115 0.950 . S
C1091 C1090 1.349 . S
C1091 C1107 1.349 . S
C1092 C1090 1.327 . S
C1092 C1111 1.429 . S
C1092 H1116 0.950 . S
C1093 C1110 1.574 . S
C1093 C1112 1.368 1_556 S
C1093 H1117 0.949 1_556 S
H1094 C1098 0.949 . S
C1095 C1096 1.349 . S
C1095 C1097 1.327 . S
C1095 H1118 0.950 . S
C1096 C1095 1.349 . S
C1096 C1108 1.349 . S
C1097 C1095 1.327 . S
C1097 C1113 1.429 . S
C1097 H1119 0.950 . S
C1098 H1094 0.949 . S
C1098 C1106 1.574 1_556 S
C1098 C1114 1.368 . S
H1099 C1107 0.950 . S
H1100 C1105 0.950 . S
H1101 C1106 0.949 . S
H1102 C1108 0.950 . S
H1103 C1109 0.950 . S
H1104 C1110 0.949 . S
C1105 H1100 0.950 . S
C1105 C1107 1.327 . S
C1105 C1111 1.429 . S
C1106 C1098 1.574 1_554 S
C1106 H1101 0.949 . S
C1106 C1112 1.368 . S
C1107 C1091 1.349 . S
C1107 H1099 0.950 . S
C1107 C1105 1.327 . S
C1108 C1096 1.349 . S
C1108 H1102 0.950 . S
C1108 C1109 1.327 . S
C1109 H1103 0.950 . S
C1109 C1108 1.327 . S
C1109 C1113 1.429 . S
C1110 C1093 1.574 . S
C1110 H1104 0.949 . S
C1110 C1114 1.368 . S
C1111 C1092 1.429 . S
C1111 C1105 1.429 . S
C1111 C1112 1.523 . S
C1112 C1093 1.368 1_554 S
C1112 C1106 1.368 . S
C1112 C1111 1.523 . S
C1113 C1097 1.429 . S
C1113 C1109 1.429 . S
C1113 C1114 1.523 . S
C1114 C1098 1.368 . S
C1114 C1110 1.368 . S
C1114 C1113 1.523 . S
H1115 C1090 0.950 . S
H1116 C1092 0.950 . S
H1117 C1093 0.949 1_554 S
H1118 C1095 0.950 . S
H1119 C1097 0.950 . S
C1120 C1121 1.349 . S
C1120 C1122 1.327 . S
C1120 H1145 0.950 . S
C1121 C1120 1.349 . S
C1121 C1137 1.349 1_455 S
C1122 C1120 1.327 . S
C1122 C1141 1.429 . S
C1122 H1146 0.950 . S
C1123 C1140 1.574 . S
C1123 C1142 1.368 1_655 S
C1123 H1147 0.949 . S
H1124 C1128 0.949 . S
C1125 C1126 1.349 1_655 S
C1125 C1127 1.327 . S
C1125 H1148 0.950 . S
C1126 C1125 1.349 1_455 S
C1126 C1138 1.349 . S
C1127 C1125 1.327 . S
C1127 C1143 1.429 1_655 S
C1127 H1149 0.950 . S
C1128 H1124 0.949 . S
C1128 C1136 1.574 . S
C1128 C1144 1.368 . S
H1129 C1137 0.950 . S
H1130 C1135 0.950 . S
H1131 C1136 0.949 . S
H1132 C1138 0.950 . S
H1133 C1139 0.950 . S
H1134 C1140 0.949 . S
C1135 H1130 0.950 . S
C1135 C1137 1.327 . S
C1135 C1141 1.429 1_655 S
C1136 C1128 1.574 . S
C1136 H1131 0.949 . S
C1136 C1142 1.368 . S
C1137 C1121 1.349 1_655 S
C1137 H1129 0.950 . S
C1137 C1135 1.327 . S
C1138 C1126 1.349 . S
C1138 H1132 0.950 . S
C1138 C1139 1.327 . S
C1139 H1133 0.950 . S
C1139 C1138 1.327 . S
C1139 C1143 1.429 . S
C1140 C1123 1.574 . S
C1140 H1134 0.949 . S
C1140 C1144 1.368 1_655 S
C1141 C1122 1.429 . S
C1141 C1135 1.429 1_455 S
C1141 C1142 1.523 . S
C1142 C1123 1.368 1_455 S
C1142 C1136 1.368 . S
C1142 C1141 1.523 . S
C1143 C1127 1.429 1_455 S
C1143 C1139 1.429 . S
C1143 C1144 1.523 . S
C1144 C1128 1.368 . S
C1144 C1140 1.368 1_455 S
C1144 C1143 1.523 . S
H1145 C1120 0.950 . S
H1146 C1122 0.950 . S
H1147 C1123 0.949 . S
H1148 C1125 0.950 . S
H1149 C1127 0.950 . S
C1150 C1151 1.349 1_565 S
C1150 C1152 1.327 . S
C1150 H1175 0.950 . S
C1151 C1150 1.349 1_545 S
C1151 C1167 1.349 . S
C1152 C1150 1.327 . S
C1152 C1171 1.429 1_565 S
C1152 H1176 0.950 . S
C1153 C1170 1.574 . S
C1153 C1172 1.368 . S
C1153 H1177 0.949 . S
H1154 C1158 0.949 . S
C1155 C1156 1.349 . S
C1155 C1157 1.327 . S
C1155 H1178 0.950 . S
C1156 C1155 1.349 . S
C1156 C1168 1.349 1_545 S
C1157 C1155 1.327 . S
C1157 C1173 1.429 . S
C1157 H1179 0.950 . S
C1158 H1154 0.949 . S
C1158 C1166 1.574 . S
C1158 C1174 1.368 1_565 S
H1159 C1167 0.950 . S
H1160 C1165 0.950 . S
H1161 C1166 0.949 . S
H1162 C1168 0.950 . S
H1163 C1169 0.950 . S
H1164 C1170 0.949 . S
C1165 H1160 0.950 . S
C1165 C1167 1.327 . S
C1165 C1171 1.429 . S
C1166 C1158 1.574 . S
C1166 H1161 0.949 . S
C1166 C1172 1.368 1_565 S
C1167 C1151 1.349 . S
C1167 H1159 0.950 . S
C1167 C1165 1.327 . S
C1168 C1156 1.349 1_565 S
C1168 H1162 0.950 . S
C1168 C1169 1.327 . S
C1169 H1163 0.950 . S
C1169 C1168 1.327 . S
C1169 C1173 1.429 1_565 S
C1170 C1153 1.574 . S
C1170 H1164 0.949 . S
C1170 C1174 1.368 . S
C1171 C1152 1.429 1_545 S
C1171 C1165 1.429 . S
C1171 C1172 1.523 . S
C1172 C1153 1.368 . S
C1172 C1166 1.368 1_545 S
C1172 C1171 1.523 . S
C1173 C1157 1.429 . S
C1173 C1169 1.429 1_545 S
C1173 C1174 1.523 . S
C1174 C1158 1.368 1_545 S
C1174 C1170 1.368 . S
C1174 C1173 1.523 . S
H1175 C1150 0.950 . S
H1176 C1152 0.950 . S
H1177 C1153 0.949 . S
H1178 C1155 0.950 . S
H1179 C1157 0.950 . S
C1180 C1181 1.349 . S
C1180 C1182 1.327 . S
C1180 H1205 0.950 . S
C1181 C1180 1.349 . S
C1181 C1197 1.349 . S
C1182 C1180 1.327 . S
C1182 C1201 1.429 . S
C1182 H1206 0.950 . S
C1183 C1200 1.574 . S
C1183 C1202 1.368 . S
C1183 H1207 0.949 . S
H1184 C1188 0.949 . S
C1185 C1186 1.349 . S
C1185 C1187 1.327 . S
C1185 H1208 0.950 . S
C1186 C1185 1.349 . S
C1186 C1198 1.349 . S
C1187 C1185 1.327 . S
C1187 C1203 1.429 . S
C1187 H1209 0.950 . S
C1188 H1184 0.949 . S
C1188 C1196 1.574 . S
C1188 C1204 1.368 . S
H1189 C1197 0.950 . S
H1190 C1195 0.950 . S
H1191 C1196 0.949 . S
H1192 C1198 0.950 . S
H1193 C1199 0.950 . S
H1194 C1200 0.949 . S
C1195 H1190 0.950 . S
C1195 C1197 1.327 . S
C1195 C1201 1.429 . S
C1196 C1188 1.574 . S
C1196 H1191 0.949 . S
C1196 C1202 1.368 . S
C1197 C1181 1.349 . S
C1197 H1189 0.950 . S
C1197 C1195 1.327 . S
C1198 C1186 1.349 . S
C1198 H1192 0.950 . S
C1198 C1199 1.327 . S
C1199 H1193 0.950 . S
C1199 C1198 1.327 . S
C1199 C1203 1.429 . S
C1200 C1183 1.574 . S
C1200 H1194 0.949 . S
C1200 C1204 1.368 . S
C1201 C1182 1.429 . S
C1201 C1195 1.429 . S
C1201 C1202 1.523 . S
C1202 C1183 1.368 . S
C1202 C1196 1.368 . S
C1202 C1201 1.523 . S
C1203 C1187 1.429 . S
C1203 C1199 1.429 . S
C1203 C1204 1.523 . S
C1204 C1188 1.368 . S
C1204 C1200 1.368 . S
C1204 C1203 1.523 . S
H1205 C1180 0.950 . S
H1206 C1182 0.950 . S
H1207 C1183 0.949 . S
H1208 C1185 0.950 . S
H1209 C1187 0.950 . S
C1210 C1211 1.349 . S
C1210 C1212 1.327 . S
C1210 H1235 0.950 . S
C1211 C1210 1.349 . S
C1211 C1227 1.349 . S
C1212 C1210 1.327 . S
C1212 C1231 1.429 . S
C1212 H1236 0.950 . S
C1213 C1230 1.574 . S
C1213 C1232 1.368 . S
C1213 H1237 0.949 . S
H1214 C1218 0.949 . S
C1215 C1216 1.349 . S
C1215 C1217 1.327 . S
C1215 H1238 0.950 . S
C1216 C1215 1.349 . S
C1216 C1228 1.349 . S
C1217 C1215 1.327 . S
C1217 C1233 1.429 . S
C1217 H1239 0.950 . S
C1218 H1214 0.949 . S
C1218 C1226 1.574 . S
C1218 C1234 1.368 . S
H1219 C1227 0.950 . S
H1220 C1225 0.950 . S
H1221 C1226 0.949 . S
H1222 C1228 0.950 . S
H1223 C1229 0.950 . S
H1224 C1230 0.949 . S
C1225 H1220 0.950 . S
C1225 C1227 1.327 . S
C1225 C1231 1.429 . S
C1226 C1218 1.574 . S
C1226 H1221 0.949 . S
C1226 C1232 1.368 . S
C1227 C1211 1.349 . S
C1227 H1219 0.950 . S
C1227 C1225 1.327 . S
C1228 C1216 1.349 . S
C1228 H1222 0.950 . S
C1228 C1229 1.327 . S
C1229 H1223 0.950 . S
C1229 C1228 1.327 . S
C1229 C1233 1.429 . S
C1230 C1213 1.574 . S
C1230 H1224 0.949 . S
C1230 C1234 1.368 . S
C1231 C1212 1.429 . S
C1231 C1225 1.429 . S
C1231 C1232 1.523 . S
C1232 C1213 1.368 . S
C1232 C1226 1.368 . S
C1232 C1231 1.523 . S
C1233 C1217 1.429 . S
C1233 C1229 1.429 . S
C1233 C1234 1.523 . S
C1234 C1218 1.368 . S
C1234 C1230 1.368 . S
C1234 C1233 1.523 . S
H1235 C1210 0.950 . S
H1236 C1212 0.950 . S
H1237 C1213 0.949 . S
H1238 C1215 0.950 . S
H1239 C1217 0.950 . S
C1240 C1241 1.349 . S
C1240 C1242 1.327 . S
C1240 H1265 0.950 . S
C1241 C1240 1.349 . S
C1241 C1257 1.349 1_655 S
C1242 C1240 1.327 . S
C1242 C1261 1.429 . S
C1242 H1266 0.950 . S
C1243 C1260 1.574 . S
C1243 C1262 1.368 1_455 S
C1243 H1267 0.949 . S
H1244 C1248 0.949 . S
C1245 C1246 1.349 1_455 S
C1245 C1247 1.327 . S
C1245 H1268 0.950 . S
C1246 C1245 1.349 1_655 S
C1246 C1258 1.349 . S
C1247 C1245 1.327 . S
C1247 C1263 1.429 1_455 S
C1247 H1269 0.950 . S
C1248 H1244 0.949 . S
C1248 C1256 1.574 . S
C1248 C1264 1.368 . S
H1249 C1257 0.950 . S
H1250 C1255 0.950 . S
H1251 C1256 0.949 . S
H1252 C1258 0.950 . S
H1253 C1259 0.950 . S
H1254 C1260 0.949 . S
C1255 H1250 0.950 . S
C1255 C1257 1.327 . S
C1255 C1261 1.429 1_455 S
C1256 C1248 1.574 . S
C1256 H1251 0.949 . S
C1256 C1262 1.368 . S
C1257 C1241 1.349 1_455 S
C1257 H1249 0.950 . S
C1257 C1255 1.327 . S
C1258 C1246 1.349 . S
C1258 H1252 0.950 . S
C1258 C1259 1.327 . S
C1259 H1253 0.950 . S
C1259 C1258 1.327 . S
C1259 C1263 1.429 . S
C1260 C1243 1.574 . S
C1260 H1254 0.949 . S
C1260 C1264 1.368 1_455 S
C1261 C1242 1.429 . S
C1261 C1255 1.429 1_655 S
C1261 C1262 1.523 . S
C1262 C1243 1.368 1_655 S
C1262 C1256 1.368 . S
C1262 C1261 1.523 . S
C1263 C1247 1.429 1_655 S
C1263 C1259 1.429 . S
C1263 C1264 1.523 . S
C1264 C1248 1.368 . S
C1264 C1260 1.368 1_655 S
C1264 C1263 1.523 . S
H1265 C1240 0.950 . S
H1266 C1242 0.950 . S
H1267 C1243 0.949 . S
H1268 C1245 0.950 . S
H1269 C1247 0.950 . S
C1270 C1271 1.349 1_545 S
C1270 C1272 1.327 . S
C1270 H1295 0.950 . S
C1271 C1270 1.349 1_565 S
C1271 C1287 1.349 . S
C1272 C1270 1.327 . S
C1272 C1291 1.429 1_545 S
C1272 H1296 0.950 . S
C1273 C1290 1.574 . S
C1273 C1292 1.368 . S
C1273 H1297 0.949 . S
H1274 C1278 0.942 1_545 S
C1275 C1276 1.349 . S
C1275 C1277 1.327 . S
C1275 H1298 0.950 . S
C1276 C1275 1.349 . S
C1276 C1288 1.349 . S
C1277 C1275 1.327 . S
C1277 C1293 1.429 . S
C1277 H1299 0.950 . S
C1278 H1274 0.942 1_565 S
C1278 C1286 1.573 1_565 S
C1278 C1294 1.381 . S
H1279 C1287 0.950 . S
H1280 C1285 0.950 . S
H1281 C1286 0.948 . S
H1282 C1288 0.950 . S
H1283 C1289 0.949 1_545 S
H1284 C1290 0.949 . S
C1285 H1280 0.950 . S
C1285 C1287 1.327 . S
C1285 C1291 1.429 . S
C1286 C1278 1.573 1_545 S
C1286 H1281 0.948 . S
C1286 C1292 1.370 1_545 S
C1287 C1271 1.349 . S
C1287 H1279 0.950 . S
C1287 C1285 1.327 . S
C1288 C1276 1.349 . S
C1288 H1282 0.950 . S
C1288 C1289 1.327 . S
C1289 H1283 0.949 1_565 S
C1289 C1288 1.327 . S
C1289 C1293 1.429 . S
C1290 C1273 1.574 . S
C1290 H1284 0.949 . S
C1290 C1294 1.368 . S
C1291 C1272 1.429 1_565 S
C1291 C1285 1.429 . S
C1291 C1292 1.523 . S
C1292 C1273 1.368 . S
C1292 C1286 1.370 1_565 S
C1292 C1291 1.523 . S
C1293 C1277 1.429 . S
C1293 C1289 1.429 . S
C1293 C1294 1.523 . S
C1294 C1278 1.381 . S
C1294 C1290 1.368 . S
C1294 C1293 1.523 . S
H1295 C1270 0.950 . S
H1296 C1272 0.950 . S
H1297 C1273 0.949 . S
H1298 C1275 0.950 . S
H1299 C1277 0.950 . S
C1300 C1301 1.349 . S
C1300 C1302 1.327 . S
C1300 H1325 0.950 . S
C1301 C1300 1.349 . S
C1301 C1317 1.349 . S
C1302 C1300 1.327 . S
C1302 C1321 1.429 . S
C1302 H1326 0.950 . S
C1303 C1320 1.574 . S
C1303 C1322 1.368 . S
C1303 H1327 0.949 . S
H1304 C1308 0.949 . S
C1305 C1306 1.349 . S
C1305 C1307 1.327 . S
C1305 H1328 0.950 . S
C1306 C1305 1.349 . S
C1306 C1318 1.349 . S
C1307 C1305 1.327 . S
C1307 C1323 1.429 . S
C1307 H1329 0.950 . S
C1308 H1304 0.949 . S
C1308 C1316 1.574 . S
C1308 C1324 1.368 . S
H1309 C1317 0.950 . S
H1310 C1315 0.950 . S
H1311 C1316 0.949 . S
H1312 C1318 0.950 . S
H1313 C1319 0.950 . S
H1314 C1320 0.949 . S
C1315 H1310 0.950 . S
C1315 C1317 1.327 . S
C1315 C1321 1.429 . S
C1316 C1308 1.574 . S
C1316 H1311 0.949 . S
C1316 C1322 1.368 . S
C1317 C1301 1.349 . S
C1317 H1309 0.950 . S
C1317 C1315 1.327 . S
C1318 C1306 1.349 . S
C1318 H1312 0.950 . S
C1318 C1319 1.327 . S
C1319 H1313 0.950 . S
C1319 C1318 1.327 . S
C1319 C1323 1.429 . S
C1320 C1303 1.574 . S
C1320 H1314 0.949 . S
C1320 C1324 1.368 . S
C1321 C1302 1.429 . S
C1321 C1315 1.429 . S
C1321 C1322 1.523 . S
C1322 C1303 1.368 . S
C1322 C1316 1.368 . S
C1322 C1321 1.523 . S
C1323 C1307 1.429 . S
C1323 C1319 1.429 . S
C1323 C1324 1.523 . S
C1324 C1308 1.368 . S
C1324 C1320 1.368 . S
C1324 C1323 1.523 . S
H1325 C1300 0.950 . S
H1326 C1302 0.950 . S
H1327 C1303 0.949 . S
H1328 C1305 0.950 . S
H1329 C1307 0.950 . S
C1330 C1331 1.349 . S
C1330 C1332 1.327 . S
C1330 H1355 0.950 . S
C1331 C1330 1.349 . S
C1331 C1347 1.349 . S
C1332 C1330 1.327 . S
C1332 C1351 1.429 . S
C1332 H1356 0.950 . S
C1333 C1350 1.574 . S
C1333 C1352 1.368 . S
C1333 H1357 0.949 . S
H1334 C1338 0.949 . S
C1335 C1336 1.349 . S
C1335 C1337 1.327 . S
C1335 H1358 0.950 . S
C1336 C1335 1.349 . S
C1336 C1348 1.349 . S
C1337 C1335 1.327 . S
C1337 C1353 1.429 . S
C1337 H1359 0.950 . S
C1338 H1334 0.949 . S
C1338 C1346 1.574 . S
C1338 C1354 1.368 . S
H1339 C1347 0.950 . S
H1340 C1345 0.950 . S
H1341 C1346 0.949 . S
H1342 C1348 0.950 . S
H1343 C1349 0.950 . S
H1344 C1350 0.949 . S
C1345 H1340 0.950 . S
C1345 C1347 1.327 . S
C1345 C1351 1.429 . S
C1346 C1338 1.574 . S
C1346 H1341 0.949 . S
C1346 C1352 1.368 . S
C1347 C1331 1.349 . S
C1347 H1339 0.950 . S
C1347 C1345 1.327 . S
C1348 C1336 1.349 . S
C1348 H1342 0.950 . S
C1348 C1349 1.327 . S
C1349 H1343 0.950 . S
C1349 C1348 1.327 . S
C1349 C1353 1.429 . S
C1350 C1333 1.574 . S
C1350 H1344 0.949 . S
C1350 C1354 1.368 . S
C1351 C1332 1.429 . S
C1351 C1345 1.429 . S
C1351 C1352 1.523 . S
C1352 C1333 1.368 . S
C1352 C1346 1.368 . S
C1352 C1351 1.523 . S
C1353 C1337 1.429 . S
C1353 C1349 1.429 . S
C1353 C1354 1.523 . S
C1354 C1338 1.368 . S
C1354 C1350 1.368 . S
C1354 C1353 1.523 . S
H1355 C1330 0.950 . S
H1356 C1332 0.950 . S
H1357 C1333 0.949 . S
H1358 C1335 0.950 . S
H1359 C1337 0.950 . S
C641 C391 1.991 . S
C646 C489 2.034 1_545 S
C676 C529 2.050 . S
C671 C451 1.993 . S
C706 C569 2.052 . S
C701 C241 1.791 . S
C736 C609 2.041 1_455 S
C731 C331 1.780 1_455 S
C766 C498 2.040 1_565 S
C761 C121 1.784 1_545 S
C791 C211 2.002 . S
C796 C538 2.054 . S
C821 C31 2.005 . S
C826 C578 2.052 . S
C851 C91 1.780 . S
C856 C618 2.040 1_655 S
C886 C495 0.249 . S
C881 C301 0.494 1_455 S
C916 C535 0.248 . S
C911 C380 0.116 . S
C946 C575 0.244 . S
C941 C440 0.125 . S
C971 C260 0.482 . S
C976 C615 0.240 . S
C1001 C61 0.423 . S
C1006 C486 0.239 . S
C1036 C526 0.248 . S
C1031 C140 0.423 . S
C1066 C566 0.244 . S
C1061 C200 0.258 . S
C1091 C20 0.256 . S
C1096 C606 0.247 . S
C1121 C320 2.694 1_455 S
C1126 C499 2.843 . S
C1151 C361 2.313 . S
C1156 C539 2.829 . S
C1186 C579 2.817 . S
C1181 C421 2.299 . S
C1216 C619 2.839 . S
C1211 C271 2.677 . S
C1241 C80 2.685 . S
C1246 C490 2.859 . S
C1276 C530 2.829 . S
C1271 C151 2.664 . S
C1306 C570 2.817 . S
C1301 C181 2.313 . S
C1331 C1 2.334 . S
C1336 C610 2.846 . S
