# Generated by pormake.
# Topology ssa, (4,4)-cn, num edge types: 1
# Building blocks:
#     Node 0, Type 0, BuildingBlock: ESEHIV_clean_sbu_0, # of connection points: 4
#     Node 1, Type 0, BuildingBlock: ESEHIV_clean_sbu_0, # of connection points: 4
#     Node 2, Type 0, BuildingBlock: ESEHIV_clean_sbu_0, # of connection points: 4
#     Node 3, Type 0, BuildingBlock: ESEHIV_clean_sbu_0, # of connection points: 4
#     Node 4, Type 0, BuildingBlock: ESEHIV_clean_sbu_0, # of connection points: 4
#     Node 5, Type 0, BuildingBlock: ESEHIV_clean_sbu_0, # of connection points: 4
#     Node 6, Type 1, BuildingBlock: MUDLON_clean_linker_0, # of connection points: 4
#     Node 7, Type 1, BuildingBlock: MUDLON_clean_linker_0, # of connection points: 4
#     Node 8, Type 1, BuildingBlock: MUDLON_clean_linker_0, # of connection points: 4
#     Node 9, Type 1, BuildingBlock: MUDLON_clean_linker_0, # of connection points: 4
#     Node 10, Type 1, BuildingBlock: MUDLON_clean_linker_0, # of connection points: 4
#     Node 11, Type 1, BuildingBlock: MUDLON_clean_linker_0, # of connection points: 4
#     Edge 12, Type (0, 1), BuildingBlock: CIFDUS_clean_linker_0, # of connection points: 2
#     Edge 13, Type (0, 1), BuildingBlock: CIFDUS_clean_linker_0, # of connection points: 2
#     Edge 14, Type (0, 1), BuildingBlock: CIFDUS_clean_linker_0, # of connection points: 2
#     Edge 15, Type (0, 1), BuildingBlock: CIFDUS_clean_linker_0, # of connection points: 2
#     Edge 16, Type (0, 1), BuildingBlock: CIFDUS_clean_linker_0, # of connection points: 2
#     Edge 17, Type (0, 1), BuildingBlock: CIFDUS_clean_linker_0, # of connection points: 2
#     Edge 18, Type (0, 1), BuildingBlock: CIFDUS_clean_linker_0, # of connection points: 2
#     Edge 19, Type (0, 1), BuildingBlock: CIFDUS_clean_linker_0, # of connection points: 2
#     Edge 20, Type (0, 1), BuildingBlock: CIFDUS_clean_linker_0, # of connection points: 2
#     Edge 21, Type (0, 1), BuildingBlock: CIFDUS_clean_linker_0, # of connection points: 2
#     Edge 22, Type (0, 1), BuildingBlock: CIFDUS_clean_linker_0, # of connection points: 2
#     Edge 23, Type (0, 1), BuildingBlock: CIFDUS_clean_linker_0, # of connection points: 2
#     Edge 24, Type (0, 1), BuildingBlock: CIFDUS_clean_linker_0, # of connection points: 2
#     Edge 25, Type (0, 1), BuildingBlock: CIFDUS_clean_linker_0, # of connection points: 2
#     Edge 26, Type (0, 1), BuildingBlock: CIFDUS_clean_linker_0, # of connection points: 2
#     Edge 27, Type (0, 1), BuildingBlock: CIFDUS_clean_linker_0, # of connection points: 2
#     Edge 28, Type (0, 1), BuildingBlock: CIFDUS_clean_linker_0, # of connection points: 2
#     Edge 29, Type (0, 1), BuildingBlock: CIFDUS_clean_linker_0, # of connection points: 2
#     Edge 30, Type (0, 1), BuildingBlock: CIFDUS_clean_linker_0, # of connection points: 2
#     Edge 31, Type (0, 1), BuildingBlock: CIFDUS_clean_linker_0, # of connection points: 2
#     Edge 32, Type (0, 1), BuildingBlock: CIFDUS_clean_linker_0, # of connection points: 2
#     Edge 33, Type (0, 1), BuildingBlock: CIFDUS_clean_linker_0, # of connection points: 2
#     Edge 34, Type (0, 1), BuildingBlock: CIFDUS_clean_linker_0, # of connection points: 2
#     Edge 35, Type (0, 1), BuildingBlock: CIFDUS_clean_linker_0, # of connection points: 2
# Relax obj value: 0.007
# Max RMSD: 0.104
# Mean RMSD: 0.067
data_MOF--net-ssa--node1-ESEHIV_clean_sbu_0--node2-MUDLON_clean_linker_0--edge1-CIFDUS_clean_linker_0
_symmetry_space_group_name_H-M    P1
_symmetry_Int_Tables_number       1
_symmetry_cell_setting            triclinic
loop_
_symmetry_equiv_pos_as_xyz
'x, y, z'
_cell_length_a     63.601769
_cell_length_b     67.140698
_cell_length_c     36.599313
_cell_angle_alpha  88.385228
_cell_angle_beta   90.909647
_cell_angle_gamma 121.93305
loop_
_atom_site_label
_atom_site_type_symbol
_atom_site_fract_x
_atom_site_fract_y
_atom_site_fract_z
_atom_type_partial_charge
Cu0 Cu 0.02153 0.52186 0.03141 0.0
N1 N 0.99645 0.49017 0.03372 0.0
N2 N 0.96725 0.45452 0.01494 0.0
C3 C 0.98104 0.47766 0.0064 0.0
C4 C 0.97412 0.4524 0.04922 0.0
C5 C 0.99211 0.47445 0.06074 0.0
O6 O 0.01398 0.53644 0.99081 0.0
C7 C 0.07412 0.54171 0.03045 0.0
O8 O 0.07614 0.5622 0.03128 0.0
H9 H 0.98087 0.48517 0.98 0.0
H10 H 1.00207 0.47863 0.08641 0.0
N11 N 0.02133 0.53616 0.07434 0.0
N12 N 0.03404 0.55797 0.12436 0.0
C13 C 0.03999 0.54793 0.09831 0.0
C14 C 1.00283 0.53853 0.0859 0.0
C15 C 0.01057 0.55193 0.11678 0.0
C16 C 0.01402 0.53144 0.95756 0.0
O17 O 0.02257 0.51808 0.94932 0.0
H18 H 0.05766 0.5493 0.09662 0.0
H19 H 0.98522 0.53161 0.0721 0.0
O20 O 0.05275 0.52318 0.02767 0.0
H21 H 0.96715 0.43607 0.0645 0.0
H22 H 1.00011 0.5576 0.13156 0.0
Cu23 Cu 0.56219 0.02264 0.50245 0.0
N24 N 0.57543 0.01738 0.46118 0.0
N25 N 0.58435 0.99827 0.42118 0.0
C26 C 0.57449 0.99734 0.45412 0.0
C27 C 0.59174 0.01981 0.40707 0.0
C28 C 0.58612 0.0315 0.4317 0.0
O29 O 0.52797 0.99664 0.50584 0.0
C30 C 0.60494 0.0357 0.5436 0.0
O31 O 0.61536 0.04122 0.51117 0.0
H32 H 0.56656 0.98234 0.4728 0.0
H33 H 0.58909 0.04883 0.42795 0.0
N34 N 0.56371 0.05124 0.49896 0.0
N35 N 0.55655 0.07911 0.5144 0.0
C36 C 0.54726 0.05582 0.51296 0.0
C37 C 0.58409 0.07238 0.49145 0.0
C38 C 0.57973 0.08961 0.50096 0.0
C39 C 0.51289 0.99631 0.48222 0.0
O40 O 0.52084 0.01397 0.45868 0.0
H41 H 0.52969 0.04247 0.52476 0.0
H42 H 0.60154 0.0751 0.48238 0.0
O43 O 0.58147 0.02541 0.54584 0.0
H44 H 0.59989 0.02643 0.38034 0.0
H45 H 0.59295 0.10836 0.49988 0.0
Cu46 Cu 0.56699 0.52717 0.00211 0.0
N47 N 0.56149 0.49698 0.00821 0.0
N48 N 0.55432 0.46214 0.99127 0.0
C49 C 0.55674 0.4826 0.98023 0.0
C50 C 0.55743 0.46362 0.02791 0.0
C51 C 0.56197 0.48522 0.03828 0.0
O52 O 0.58554 0.53993 0.95691 0.0
C53 C 0.52465 0.51837 0.03367 0.0
O54 O 0.53559 0.51374 0.06041 0.0
H55 H 0.55505 0.48716 0.95221 0.0
H56 H 0.56559 0.49194 0.06567 0.0
N57 N 0.58549 0.54737 0.0399 0.0
N58 N 0.59807 0.57666 0.07909 0.0
C59 C 0.58312 0.5651 0.05062 0.0
C60 C 0.60264 0.54763 0.06216 0.0
C61 C 0.61044 0.56568 0.08639 0.0
C62 C 0.60441 0.53809 0.95491 0.0
O63 O 0.61015 0.52932 0.98309 0.0
H64 H 0.57007 0.56895 0.03819 0.0
H65 H 0.6089 0.5355 0.06103 0.0
O66 O 0.53496 0.52433 0.0024 0.0
H67 H 0.55695 0.45029 0.04583 0.0
H68 H 0.62424 0.57033 0.10756 0.0
Cu69 Cu 0.04902 0.49475 0.53152 0.0
N70 N 0.0507 0.48698 0.48371 0.0
N71 N 0.06195 0.47727 0.4331 0.0
C72 C 0.0664 0.48168 0.46907 0.0
C73 C 0.04255 0.47953 0.42499 0.0
C74 C 0.03568 0.48555 0.45627 0.0
O75 O 0.07998 0.50615 0.55829 0.0
C76 C 0.02794 0.45216 0.5721 0.0
O77 O 0.05025 0.45582 0.56855 0.0
H78 H 0.08083 0.48119 0.48438 0.0
H79 H 0.02092 0.48893 0.45885 0.0
N80 N 0.03988 0.51691 0.53112 0.0
N81 N 0.01845 0.53357 0.54339 0.0
C82 C 0.02062 0.51483 0.54938 0.0
C83 C 0.05008 0.53755 0.51253 0.0
C84 C 0.03703 0.54804 0.52043 0.0
C85 C 0.10083 0.52547 0.55614 0.0
O86 O 0.1181 0.5293 0.58009 0.0
H87 H 0.00855 0.49994 0.56701 0.0
H88 H 0.06562 0.54434 0.49411 0.0
O89 O 0.02324 0.46678 0.55734 0.0
H90 H 0.03442 0.47764 0.39813 0.0
H91 H 0.04058 0.56472 0.50962 0.0
Cu92 Cu 0.49946 0.99037 0.01754 0.0
N93 N 0.48144 0.99566 0.98181 0.0
N94 N 0.47211 0.01545 0.9416 0.0
C95 C 0.48841 0.01682 0.96682 0.0
C96 C 0.45392 0.99262 0.94074 0.0
C97 C 0.45979 0.98038 0.96556 0.0
O98 O 0.53273 0.01847 0.01866 0.0
C99 C 0.46192 0.96135 0.0654 0.0
O100 O 0.45498 0.94856 0.03602 0.0
H101 H 0.50525 0.03298 0.974 0.0
H102 H 0.44923 0.96164 0.97077 0.0
N103 N 0.50305 0.96534 0.00658 0.0
N104 N 0.50959 0.93622 0.01795 0.0
C105 C 0.50615 0.95249 0.0324 0.0
C106 C 0.50462 0.95695 0.97441 0.0
C107 C 0.50889 0.93901 0.98139 0.0
C108 C 0.54367 0.02462 0.9878 0.0
O109 O 0.5324 0.01174 0.95926 0.0
H110 H 0.50658 0.95553 0.06138 0.0
H111 H 0.5032 0.96365 0.94786 0.0
O112 O 0.4815 0.98181 0.06385 0.0
H113 H 0.43807 0.98528 0.92259 0.0
H114 H 0.51136 0.92889 0.96129 0.0
Cu115 Cu 0.50508 0.49855 0.51498 0.0
N116 N 0.51269 0.52923 0.51989 0.0
N117 N 0.52139 0.56471 0.501 0.0
C118 C 0.51593 0.54332 0.49098 0.0
C119 C 0.5218 0.56415 0.53791 0.0
C120 C 0.51625 0.54208 0.54955 0.0
O121 O 0.48263 0.4865 0.47294 0.0
C122 C 0.54915 0.50604 0.54035 0.0
O123 O 0.5408 0.51167 0.56833 0.0
H124 H 0.51473 0.53801 0.46299 0.0
H125 H 0.51499 0.5359 0.57752 0.0
N126 N 0.48896 0.47953 0.55614 0.0
N127 N 0.47932 0.45208 0.59963 0.0
C128 C 0.49272 0.46274 0.5693 0.0
C129 C 0.47259 0.4795 0.57912 0.0
C130 C 0.46643 0.46236 0.60591 0.0
C131 C 0.46334 0.48764 0.47634 0.0
O132 O 0.46027 0.49539 0.5071 0.0
H133 H 0.5053 0.45858 0.55708 0.0
H134 H 0.46599 0.49138 0.57709 0.0
O135 O 0.53644 0.49986 0.51092 0.0
H136 H 0.52565 0.57853 0.55518 0.0
H137 H 0.45416 0.45831 0.62886 0.0
H138 H 0.35802 0.49934 0.25828 0.0
N139 N 0.34471 0.47052 0.19971 0.0
H140 H 0.38242 0.49973 0.31114 0.0
H141 H 0.35628 0.4389 0.21765 0.0
H142 H 0.38071 0.43917 0.2703 0.0
H143 H 0.35037 0.45293 0.13914 0.0
H144 H 0.3875 0.47062 0.10096 0.0
H145 H 0.38175 0.51689 0.19907 0.0
H146 H 0.41813 0.53509 0.16001 0.0
H147 H 0.34275 0.51068 0.19308 0.0
H148 H 0.29823 0.43555 0.20901 0.0
H149 H 0.30556 0.51241 0.19024 0.0
H150 H 0.26082 0.43721 0.20831 0.0
H151 H 0.19976 0.51323 0.23182 0.0
H152 H 0.18028 0.51507 0.28769 0.0
H153 H 0.13718 0.43932 0.29526 0.0
H154 H 0.15704 0.43768 0.23944 0.0
H155 H 0.14685 0.44685 0.16057 0.0
H156 H 0.12727 0.45936 0.11568 0.0
H157 H 0.19127 0.53017 0.11842 0.0
H158 H 0.21027 0.51731 0.16474 0.0
H159 H 0.23385 0.50926 0.22016 0.0
H160 H 0.2722 0.50922 0.22239 0.0
H161 H 0.2352 0.44253 0.16827 0.0
N162 N 0.18858 0.4735 0.19656 0.0
H163 H 0.19664 0.44222 0.16828 0.0
C164 C 0.35511 0.46889 0.23418 0.0
C165 C 0.36237 0.48582 0.26119 0.0
C166 C 0.37639 0.48606 0.29131 0.0
C167 C 0.38368 0.46959 0.2947 0.0
C168 C 0.37566 0.45225 0.26825 0.0
C169 C 0.36147 0.45189 0.23843 0.0
C170 C 0.36315 0.48348 0.17185 0.0
C171 C 0.36475 0.47114 0.1429 0.0
C172 C 0.38598 0.48133 0.12105 0.0
C173 C 0.40598 0.50417 0.12781 0.0
C174 C 0.40324 0.51732 0.1545 0.0
C175 C 0.3822 0.50701 0.17661 0.0
C176 C 0.32335 0.47279 0.20065 0.0
C177 C 0.32505 0.4945 0.19626 0.0
C178 C 0.30359 0.49551 0.19494 0.0
C179 C 0.27996 0.47492 0.19853 0.0
C180 C 0.27852 0.45339 0.20433 0.0
C181 C 0.29992 0.45239 0.20516 0.0
C182 C 0.17996 0.47524 0.23174 0.0
C183 C 0.18666 0.49705 0.24603 0.0
C184 C 0.17547 0.49807 0.27794 0.0
C185 C 0.15716 0.47733 0.29573 0.0
C186 C 0.15111 0.45557 0.28197 0.0
C187 C 0.1625 0.45459 0.25032 0.0
C188 C 0.17995 0.48105 0.16576 0.0
C189 C 0.15683 0.46495 0.15083 0.0
C190 C 0.14574 0.4722 0.12499 0.0
C191 C 0.15762 0.49586 0.11313 0.0
C192 C 0.18139 0.51189 0.12715 0.0
C193 C 0.19242 0.50456 0.15337 0.0
C194 C 0.21223 0.4755 0.1945 0.0
C195 C 0.23399 0.49465 0.20882 0.0
C196 C 0.25604 0.49465 0.20982 0.0
C197 C 0.25689 0.47569 0.19601 0.0
C198 C 0.23524 0.45713 0.18018 0.0
C199 C 0.2132 0.45702 0.17968 0.0
H200 H 0.70804 0.11405 0.85807 0.0
N201 N 0.72026 0.14873 0.80996 0.0
H202 H 0.67431 0.09786 0.90248 0.0
H203 H 0.69678 0.1707 0.83206 0.0
H204 H 0.66278 0.15455 0.87638 0.0
H205 H 0.68404 0.15182 0.77354 0.0
H206 H 0.65834 0.12729 0.72386 0.0
H207 H 0.7256 0.11782 0.77376 0.0
H208 H 0.69954 0.09276 0.72399 0.0
H209 H 0.76341 0.1658 0.84357 0.0
H210 H 0.72465 0.18553 0.76771 0.0
H211 H 0.80065 0.20473 0.83641 0.0
H212 H 0.76216 0.22397 0.75852 0.0
H213 H 0.9144 0.31534 0.82518 0.0
H214 H 0.93007 0.33982 0.87923 0.0
H215 H 0.86989 0.35203 0.87062 0.0
H216 H 0.85487 0.32809 0.81619 0.0
H217 H 0.87012 0.34147 0.75383 0.0
H218 H 0.89505 0.36915 0.70484 0.0
H219 H 0.92989 0.32964 0.68739 0.0
H220 H 0.90591 0.30302 0.73803 0.0
H221 H 0.87089 0.26528 0.79021 0.0
H222 H 0.83238 0.22707 0.79509 0.0
H223 H 0.79069 0.26099 0.78229 0.0
N224 N 0.8762 0.30708 0.78332 0.0
H225 H 0.82956 0.29897 0.77488 0.0
C226 C 0.7047 0.14333 0.84152 0.0
C227 C 0.69878 0.12341 0.86291 0.0
C228 C 0.67953 0.11423 0.88835 0.0
C229 C 0.66566 0.12478 0.8927 0.0
C230 C 0.67294 0.14588 0.87333 0.0
C231 C 0.69239 0.15516 0.84805 0.0
C232 C 0.70694 0.13674 0.77739 0.0
C233 C 0.6879 0.1393 0.76263 0.0
C234 C 0.67298 0.12503 0.73438 0.0
C235 C 0.67667 0.10783 0.72025 0.0
C236 C 0.69629 0.1059 0.73411 0.0
C237 C 0.71121 0.1202 0.76247 0.0
C238 C 0.7413 0.17245 0.80593 0.0
C239 C 0.763 0.17852 0.82519 0.0
C240 C 0.78438 0.20076 0.82066 0.0
C241 C 0.78476 0.21754 0.79621 0.0
C242 C 0.76269 0.21166 0.77766 0.0
C243 C 0.74112 0.18944 0.78268 0.0
C244 C 0.88354 0.31987 0.81676 0.0
C245 C 0.90451 0.32313 0.83532 0.0
C246 C 0.91331 0.337 0.86627 0.0
C247 C 0.90125 0.34793 0.87929 0.0
C248 C 0.8798 0.34412 0.86109 0.0
C249 C 0.87106 0.33026 0.83007 0.0
C250 C 0.88648 0.32039 0.74986 0.0
C251 C 0.88291 0.33864 0.73913 0.0
C252 C 0.89716 0.35442 0.71087 0.0
C253 C 0.91498 0.35203 0.69243 0.0
C254 C 0.91698 0.33257 0.70158 0.0
C255 C 0.90303 0.31708 0.73015 0.0
C256 C 0.85306 0.28488 0.78272 0.0
C257 C 0.85338 0.26433 0.78798 0.0
C258 C 0.83129 0.24255 0.79127 0.0
C259 C 0.80821 0.2408 0.79 0.0
C260 C 0.80798 0.2615 0.78341 0.0
C261 C 0.83022 0.28333 0.77952 0.0
H262 H 0.56433 0.86248 0.25607 0.0
N263 N 0.60484 0.86716 0.22188 0.0
H264 H 0.56467 0.89029 0.29783 0.0
H265 H 0.64412 0.90228 0.25439 0.0
H266 H 0.64475 0.92985 0.29741 0.0
H267 H 0.6275 0.89838 0.16798 0.0
H268 H 0.60833 0.90603 0.11541 0.0
H269 H 0.55624 0.83979 0.20137 0.0
H270 H 0.53683 0.84724 0.14882 0.0
H271 H 0.56887 0.82885 0.26073 0.0
H272 H 0.63673 0.85589 0.20061 0.0
H273 H 0.56733 0.79204 0.27301 0.0
H274 H 0.63554 0.81932 0.21295 0.0
H275 H 0.56291 0.69653 0.29695 0.0
H276 H 0.54413 0.66994 0.34988 0.0
H277 H 0.61712 0.69466 0.39417 0.0
H278 H 0.63557 0.72152 0.34155 0.0
H279 H 0.65024 0.71977 0.26896 0.0
H280 H 0.65032 0.69077 0.23 0.0
H281 H 0.57534 0.66679 0.1964 0.0
H282 H 0.57553 0.69608 0.23528 0.0
H283 H 0.59556 0.74618 0.32581 0.0
H284 H 0.59096 0.77879 0.30929 0.0
H285 H 0.61271 0.77782 0.19865 0.0
N286 N 0.61252 0.72486 0.28274 0.0
H287 H 0.61765 0.74524 0.2149 0.0
C288 C 0.60431 0.88041 0.25183 0.0
C289 C 0.58197 0.87686 0.26541 0.0
C290 C 0.5822 0.89281 0.28951 0.0
C291 C 0.60475 0.91257 0.30067 0.0
C292 C 0.62703 0.91516 0.2888 0.0
C293 C 0.62676 0.89928 0.26456 0.0
C294 C 0.59335 0.86872 0.18862 0.0
C295 C 0.60779 0.88687 0.16341 0.0
C296 C 0.5968 0.89111 0.13335 0.0
C297 C 0.57103 0.87729 0.12804 0.0
C298 C 0.5567 0.85833 0.15241 0.0
C299 C 0.56777 0.85402 0.18241 0.0
C300 C 0.60312 0.84522 0.22996 0.0
C301 C 0.58346 0.82691 0.25023 0.0
C302 C 0.58263 0.80586 0.25724 0.0
C303 C 0.60127 0.80267 0.24385 0.0
C304 C 0.62067 0.82098 0.2232 0.0
C305 C 0.62153 0.84197 0.21639 0.0
C306 C 0.6007 0.71096 0.31539 0.0
C307 C 0.57479 0.69638 0.3183 0.0
C308 C 0.56411 0.68116 0.34853 0.0
C309 C 0.57911 0.68004 0.37624 0.0
C310 C 0.60497 0.69526 0.37371 0.0
C311 C 0.61559 0.71054 0.3436 0.0
C312 C 0.613 0.71016 0.25503 0.0
C313 C 0.63403 0.70857 0.2526 0.0
C314 C 0.63393 0.69185 0.23063 0.0
C315 C 0.61274 0.6763 0.21043 0.0
C316 C 0.59198 0.67857 0.21152 0.0
C317 C 0.59203 0.69525 0.2338 0.0
C318 C 0.60575 0.74178 0.27138 0.0
C319 C 0.59848 0.75211 0.29751 0.0
C320 C 0.59593 0.77106 0.28813 0.0
C321 C 0.60127 0.78085 0.2526 0.0
C322 C 0.60843 0.7707 0.22633 0.0
C323 C 0.6109 0.75166 0.23563 0.0
H324 H 0.93613 0.60933 0.78121 0.0
N325 N 0.89888 0.57691 0.74187 0.0
H326 H 0.95684 0.60273 0.83303 0.0
H327 H 0.88049 0.53548 0.78066 0.0
H328 H 0.90193 0.52857 0.83133 0.0
H329 H 0.89645 0.53656 0.72298 0.0
H330 H 0.92113 0.53305 0.67716 0.0
H331 H 0.92672 0.60895 0.69081 0.0
H332 H 0.95052 0.6052 0.64241 0.0
H333 H 0.8813 0.60254 0.76432 0.0
H334 H 0.85908 0.53776 0.71132 0.0
H335 H 0.84037 0.59633 0.75309 0.0
H336 H 0.81874 0.53217 0.69754 0.0
H337 H 0.70628 0.57608 0.70575 0.0
H338 H 0.67941 0.56942 0.75735 0.0
H339 H 0.7059 0.52895 0.81257 0.0
H340 H 0.73054 0.53372 0.75988 0.0
H341 H 0.69991 0.50935 0.6942 0.0
H342 H 0.66295 0.48976 0.65608 0.0
H343 H 0.68843 0.55466 0.59524 0.0
H344 H 0.726 0.57373 0.63242 0.0
H345 H 0.77758 0.59544 0.69456 0.0
H346 H 0.8173 0.59907 0.70617 0.0
H347 H 0.77998 0.52347 0.71659 0.0
N348 N 0.73292 0.55677 0.69476 0.0
H349 H 0.74067 0.52014 0.70264 0.0
C350 C 0.907 0.57294 0.77685 0.0
C351 C 0.9281 0.59178 0.79285 0.0
C352 C 0.93996 0.58797 0.82224 0.0
C353 C 0.93115 0.56511 0.83572 0.0
C354 C 0.90921 0.54633 0.82107 0.0
C355 C 0.89696 0.55026 0.79223 0.0
C356 C 0.91004 0.57323 0.71082 0.0
C357 C 0.90807 0.55165 0.70556 0.0
C358 C 0.92208 0.54958 0.67875 0.0
C359 C 0.93807 0.56889 0.65595 0.0
C360 C 0.93886 0.59009 0.65989 0.0
C361 C 0.92508 0.59223 0.68723 0.0
C362 C 0.87354 0.57093 0.73832 0.0
C363 C 0.86753 0.58694 0.75028 0.0
C364 C 0.84417 0.58349 0.74325 0.0
C365 C 0.82622 0.56403 0.72341 0.0
C366 C 0.83191 0.54737 0.71288 0.0
C367 C 0.85521 0.55065 0.72057 0.0
C368 C 0.72057 0.55552 0.72845 0.0
C369 C 0.70638 0.56592 0.72918 0.0
C370 C 0.69108 0.56216 0.75894 0.0
C371 C 0.69006 0.54835 0.78931 0.0
C372 C 0.7054 0.53904 0.78935 0.0
C373 C 0.72005 0.54215 0.75911 0.0
C374 C 0.71591 0.54309 0.66606 0.0
C375 C 0.69833 0.51901 0.67129 0.0
C376 C 0.67688 0.50792 0.64981 0.0
C377 C 0.67232 0.52076 0.62314 0.0
C378 C 0.69123 0.54414 0.61536 0.0
C379 C 0.71282 0.55512 0.63659 0.0
C380 C 0.7561 0.55765 0.6978 0.0
C381 C 0.7781 0.57967 0.69873 0.0
C382 C 0.80077 0.58166 0.706 0.0
C383 C 0.80203 0.56159 0.71324 0.0
C384 C 0.77996 0.53938 0.71101 0.0
C385 C 0.75729 0.53742 0.70303 0.0
H386 H 0.19635 0.6653 0.36468 0.0
N387 N 0.17799 0.69302 0.34745 0.0
H388 H 0.18065 0.63457 0.41263 0.0
H389 H 0.14662 0.686 0.40049 0.0
H390 H 0.13101 0.65554 0.44893 0.0
H391 H 0.13717 0.68869 0.31898 0.0
H392 H 0.1128 0.66439 0.26765 0.0
H393 H 0.19197 0.67082 0.30122 0.0
H394 H 0.16756 0.64606 0.25059 0.0
H395 H 0.22461 0.70302 0.33143 0.0
H396 H 0.18275 0.73373 0.36089 0.0
H397 H 0.2622 0.74221 0.3261 0.0
H398 H 0.22021 0.77284 0.35729 0.0
H399 H 0.36947 0.85404 0.3501 0.0
H400 H 0.40127 0.88143 0.39217 0.0
H401 H 0.35529 0.90871 0.41818 0.0
H402 H 0.32388 0.88162 0.37518 0.0
H403 H 0.33757 0.89366 0.29112 0.0
H404 H 0.36293 0.91153 0.23616 0.0
H405 H 0.37569 0.85448 0.23276 0.0
H406 H 0.35024 0.83676 0.28775 0.0
H407 H 0.32922 0.81644 0.35237 0.0
H408 H 0.29302 0.77637 0.35832 0.0
H409 H 0.24679 0.80026 0.31262 0.0
N410 N 0.32906 0.85539 0.32766 0.0
H411 H 0.28282 0.84019 0.3083 0.0
C412 C 0.17255 0.67788 0.37907 0.0
C413 C 0.18237 0.6635 0.38325 0.0
C414 C 0.17324 0.64584 0.4105 0.0
C415 C 0.1544 0.64248 0.43428 0.0
C416 C 0.14559 0.65774 0.43115 0.0
C417 C 0.15452 0.67518 0.40365 0.0
C418 C 0.16634 0.68162 0.31387 0.0
C419 C 0.14411 0.67981 0.30356 0.0
C420 C 0.1301 0.6657 0.27455 0.0
C421 C 0.13805 0.653 0.2553 0.0
C422 C 0.16096 0.6557 0.26466 0.0
C423 C 0.17497 0.66987 0.29371 0.0
C424 C 0.2008 0.71556 0.34607 0.0
C425 C 0.22353 0.71819 0.33691 0.0
C426 C 0.24509 0.74066 0.33419 0.0
C427 C 0.24431 0.76085 0.3408 0.0
C428 C 0.22154 0.75787 0.35105 0.0
C429 C 0.2001 0.73552 0.35346 0.0
C430 C 0.34439 0.86601 0.35928 0.0
C431 C 0.36586 0.86534 0.36578 0.0
C432 C 0.38405 0.88102 0.38996 0.0
C433 C 0.38101 0.89756 0.40803 0.0
C434 C 0.35839 0.89649 0.40416 0.0
C435 C 0.34032 0.88089 0.37991 0.0
C436 C 0.34177 0.8638 0.29316 0.0
C437 C 0.34559 0.8849 0.27813 0.0
C438 C 0.36031 0.8952 0.24706 0.0
C439 C 0.37144 0.8845 0.23024 0.0
C440 C 0.36721 0.86306 0.24495 0.0
C441 C 0.35261 0.85286 0.27628 0.0
C442 C 0.30857 0.83138 0.3304 0.0
C443 C 0.31126 0.81302 0.34384 0.0
C444 C 0.29053 0.79004 0.34695 0.0
C445 C 0.2668 0.785 0.33642 0.0
C446 C 0.26453 0.80344 0.32196 0.0
C447 C 0.28513 0.82629 0.31917 0.0
H448 H 0.45542 0.12152 0.68388 0.0
N449 N 0.47618 0.15799 0.72723 0.0
H450 H 0.47563 0.11072 0.63996 0.0
H451 H 0.52422 0.18647 0.70301 0.0
H452 H 0.54432 0.17698 0.65657 0.0
H453 H 0.51274 0.16263 0.77289 0.0
H454 H 0.50805 0.13594 0.82316 0.0
H455 H 0.43427 0.12129 0.75235 0.0
H456 H 0.42943 0.09333 0.80052 0.0
H457 H 0.44256 0.16852 0.7099 0.0
H458 H 0.51487 0.1975 0.75828 0.0
H459 H 0.44291 0.20394 0.72439 0.0
H460 H 0.51598 0.23346 0.77159 0.0
H461 H 0.43219 0.30604 0.79203 0.0
H462 H 0.42952 0.33423 0.75191 0.0
H463 H 0.49679 0.34998 0.6976 0.0
H464 H 0.50006 0.32292 0.73972 0.0
H465 H 0.51809 0.32966 0.80191 0.0
H466 H 0.53796 0.35828 0.85055 0.0
H467 H 0.46819 0.32515 0.90819 0.0
H468 H 0.44871 0.29664 0.85965 0.0
H469 H 0.45421 0.27473 0.73131 0.0
H470 H 0.4596 0.24376 0.71112 0.0
H471 H 0.49768 0.24736 0.81178 0.0
N472 N 0.46836 0.29733 0.79588 0.0
H473 H 0.49356 0.2793 0.83134 0.0
C474 C 0.4881 0.15478 0.69672 0.0
C475 C 0.47477 0.13384 0.67757 0.0
C476 C 0.48645 0.12779 0.65212 0.0
C477 C 0.51186 0.14286 0.64431 0.0
C478 C 0.52493 0.16453 0.66224 0.0
C479 C 0.51331 0.17025 0.6886 0.0
C480 C 0.47371 0.14411 0.7594 0.0
C481 C 0.49441 0.14801 0.7797 0.0
C482 C 0.49171 0.13239 0.80802 0.0
C483 C 0.46835 0.1122 0.81594 0.0
C484 C 0.44764 0.10879 0.79594 0.0
C485 C 0.45032 0.12468 0.7682 0.0
C486 C 0.47866 0.18034 0.7326 0.0
C487 C 0.45877 0.1828 0.7229 0.0
C488 C 0.45911 0.20318 0.73111 0.0
C489 C 0.47955 0.22177 0.74913 0.0
C490 C 0.4998 0.21947 0.75812 0.0
C491 C 0.49931 0.19892 0.75013 0.0
C492 C 0.46609 0.31217 0.76871 0.0
C493 C 0.44619 0.31547 0.7712 0.0
C494 C 0.44468 0.33154 0.74801 0.0
C495 C 0.46293 0.34452 0.72125 0.0
C496 C 0.48262 0.34074 0.71824 0.0
C497 C 0.4844 0.32502 0.74203 0.0
C498 C 0.48184 0.31104 0.82721 0.0
C499 C 0.50728 0.32828 0.82545 0.0
C500 C 0.51854 0.34471 0.85317 0.0
C501 C 0.50461 0.3442 0.88313 0.0
C502 C 0.47957 0.32598 0.8858 0.0
C503 C 0.46836 0.30964 0.85809 0.0
C504 C 0.47456 0.2808 0.78228 0.0
C505 C 0.46464 0.2697 0.7487 0.0
C506 C 0.46731 0.25147 0.73732 0.0
C507 C 0.4791 0.24291 0.75971 0.0
C508 C 0.489 0.25379 0.7933 0.0
C509 C 0.48662 0.27229 0.80455 0.0
H510 H 0.08096 0.50605 0.0157 0.0
H511 H 0.11443 0.57192 0.07107 0.0
H512 H 0.14486 0.56458 0.09929 0.0
H513 H 0.15853 0.53717 0.11408 0.0
H514 H 0.12635 0.47218 0.05616 0.0
H515 H 0.09888 0.48147 0.02335 0.0
C516 C 0.09522 0.519 0.03341 0.0
C517 C 0.09528 0.53939 0.04148 0.0
C518 C 0.11267 0.51467 0.0496 0.0
C519 C 0.11399 0.5561 0.06424 0.0
C520 C 0.1313 0.55183 0.08065 0.0
C521 C 0.14602 0.52528 0.09362 0.0
C522 C 0.14422 0.50368 0.08845 0.0
C523 C 0.13037 0.53085 0.07435 0.0
C524 C 0.12769 0.48857 0.06174 0.0
C525 C 0.11201 0.49392 0.04271 0.0
H526 H 0.5916 0.04307 0.60978 0.0
H527 H 0.65403 0.05149 0.55053 0.0
H528 H 0.68165 0.07357 0.60082 0.0
H529 H 0.68861 0.09334 0.65933 0.0
H530 H 0.62627 0.08578 0.71767 0.0
H531 H 0.5982 0.06079 0.66992 0.0
C532 C 0.61116 0.04933 0.60816 0.0
C533 C 0.62072 0.04563 0.57643 0.0
C534 C 0.62707 0.06257 0.63676 0.0
C535 C 0.64619 0.05413 0.57463 0.0
C536 C 0.66203 0.06685 0.60331 0.0
C537 C 0.66885 0.08597 0.66183 0.0
C538 C 0.65963 0.09166 0.69187 0.0
C539 C 0.65277 0.07165 0.63415 0.0
C540 C 0.63395 0.08209 0.69449 0.0
C541 C 0.61784 0.06765 0.66731 0.0
H542 H 0.61564 0.59105 0.14748 0.0
H543 H 0.5842 0.60654 0.05367 0.0
H544 H 0.58539 0.63824 0.08612 0.0
H545 H 0.59551 0.66196 0.14124 0.0
H546 H 0.62805 0.64717 0.2342 0.0
H547 H 0.62672 0.61526 0.20174 0.0
C548 C 0.6093 0.60146 0.13385 0.0
C549 C 0.59969 0.59608 0.09808 0.0
C550 C 0.61031 0.61998 0.15254 0.0
C551 C 0.59129 0.60979 0.08132 0.0
C552 C 0.5921 0.62812 0.09982 0.0
C553 C 0.60222 0.65168 0.15439 0.0
C554 C 0.61195 0.65703 0.19005 0.0
C555 C 0.60148 0.63334 0.1355 0.0
C556 C 0.62078 0.64366 0.20659 0.0
C557 C 0.61991 0.62531 0.18812 0.0
H558 H 0.02576 0.574 0.56827 0.0
H559 H 0.97011 0.50111 0.55329 0.0
H560 H 0.9393 0.5063 0.58335 0.0
H561 H 0.92893 0.53099 0.61676 0.0
H562 H 0.98586 0.60301 0.63758 0.0
H563 H 0.01507 0.59904 0.60111 0.0
C564 C 0.00679 0.55941 0.57123 0.0
C565 C 1.00014 0.53721 0.55879 0.0
C566 C 0.98939 0.56241 0.5894 0.0
C567 C 0.97562 0.51828 0.56307 0.0
C568 C 0.95804 0.52127 0.58012 0.0
C569 C 0.94775 0.54583 0.61361 0.0
C570 C 0.95505 0.56721 0.6303 0.0
C571 C 0.96484 0.54316 0.594 0.0
C572 C 0.97942 0.58639 0.62479 0.0
C573 C 0.99632 0.58408 0.60424 0.0
H574 H 0.42717 0.91578 0.07884 0.0
H575 H 0.46475 0.98352 0.12914 0.0
H576 H 0.44011 0.96568 0.18483 0.0
H577 H 0.40746 0.93066 0.21878 0.0
H578 H 0.3708 0.86318 0.16766 0.0
H579 H 0.39575 0.88113 0.11271 0.0
C580 C 0.42999 0.92675 0.10189 0.0
C581 C 0.44764 0.95103 0.09968 0.0
C582 C 0.41598 0.91637 0.1337 0.0
C583 C 0.45125 0.96482 0.13008 0.0
C584 C 0.43715 0.95461 0.16188 0.0
C585 C 0.40488 0.91993 0.19551 0.0
C586 C 0.38722 0.8956 0.19729 0.0
C587 C 0.41937 0.9304 0.16393 0.0
C588 C 0.38438 0.88187 0.16715 0.0
C589 C 0.39855 0.89215 0.13565 0.0
H590 H 0.44062 0.41195 0.62636 0.0
H591 H 0.52028 0.45321 0.62227 0.0
H592 H 0.52241 0.42364 0.66008 0.0
H593 H 0.50155 0.38645 0.69488 0.0
H594 H 0.42158 0.34305 0.69383 0.0
H595 H 0.41961 0.37317 0.65808 0.0
C596 C 0.45835 0.41435 0.63399 0.0
C597 C 0.48026 0.43464 0.62195 0.0
C598 C 0.45936 0.39698 0.65487 0.0
C599 C 0.50323 0.43761 0.63131 0.0
C600 C 0.50442 0.42076 0.65291 0.0
C601 C 0.48364 0.38325 0.68635 0.0
C602 C 0.46177 0.36241 0.69752 0.0
C603 C 0.48259 0.40034 0.66478 0.0
C604 C 0.43879 0.35905 0.68655 0.0
C605 C 0.43759 0.37622 0.66579 0.0
H606 H 0.61698 1.00349 0.36977 0.0
H607 H 0.55455 0.95123 0.43349 0.0
H608 H 0.55601 0.92008 0.40318 0.0
H609 H 0.5743 0.90753 0.35717 0.0
H610 H 0.63567 0.96006 0.29186 0.0
H611 H 0.63537 0.99107 0.3243 0.0
C612 C 0.60358 0.98531 0.37691 0.0
C613 C 0.58565 0.97984 0.40389 0.0
C614 C 0.60437 0.96742 0.35912 0.0
C615 C 0.56874 0.95609 0.41318 0.0
C616 C 0.56946 0.9382 0.39566 0.0
C617 C 0.58756 0.92575 0.34993 0.0
C618 C 0.60505 0.93132 0.32212 0.0
C619 C 0.58709 0.94364 0.36839 0.0
C620 C 0.62228 0.95512 0.31354 0.0
C621 C 0.622 0.97294 0.33187 0.0
H622 H 0.6182 0.51077 0.92563 0.0
H623 H 0.6216 0.57611 0.90802 0.0
H624 H 0.64882 0.58538 0.85497 0.0
H625 H 0.67352 0.57564 0.81641 0.0
H626 H 0.66588 0.50794 0.83137 0.0
H627 H 0.63893 0.49918 0.8833 0.0
C628 C 0.62481 0.52699 0.90997 0.0
C629 C 0.61828 0.5429 0.92068 0.0
C630 C 0.63999 0.53192 0.8795 0.0
C631 C 0.62647 0.56364 0.90004 0.0
C632 C 0.64211 0.56896 0.86995 0.0
C633 C 0.66571 0.55879 0.8305 0.0
C634 C 0.67248 0.54281 0.82014 0.0
C635 C 0.64927 0.55333 0.85974 0.0
C636 C 0.66204 0.52112 0.83927 0.0
C637 C 0.64626 0.51587 0.86882 0.0
H638 H 0.11046 0.56908 0.5667 0.0
H639 H 0.10688 0.52338 0.48358 0.0
H640 H 0.1221 0.55524 0.43793 0.0
H641 H 0.13908 0.59696 0.42265 0.0
H642 H 0.14422 0.64332 0.5063 0.0
H643 H 0.12596 0.61061 0.55082 0.0
C644 C 0.11255 0.5661 0.53837 0.0
C645 C 0.10647 0.54368 0.52795 0.0
C646 C 0.12206 0.58479 0.51261 0.0
C647 C 0.10997 0.54006 0.49159 0.0
C648 C 0.11923 0.55847 0.46572 0.0
C649 C 0.13631 0.5999 0.45069 0.0
C650 C 0.14324 0.62258 0.46127 0.0
C651 C 0.1257 0.581 0.47605 0.0
C652 C 0.13905 0.62603 0.49749 0.0
C653 C 0.12863 0.60735 0.52295 0.0
H654 H 0.43878 0.02769 0.92837 0.0
H655 H 0.51252 0.04526 0.90244 0.0
H656 H 0.51818 0.07716 0.86137 0.0
H657 H 0.50154 0.09899 0.83153 0.0
H658 H 0.42914 0.08412 0.86195 0.0
H659 H 0.42341 0.05207 0.90215 0.0
C660 C 0.45599 0.03858 0.91357 0.0
C661 C 0.47516 0.0342 0.91795 0.0
C662 C 0.45929 0.05724 0.89079 0.0
C663 C 0.49761 0.04848 0.89931 0.0
C664 C 0.50079 0.06664 0.87587 0.0
C665 C 0.48469 0.08918 0.84746 0.0
C666 C 0.46575 0.09402 0.84318 0.0
C667 C 0.48173 0.07114 0.87134 0.0
C668 C 0.44388 0.08059 0.86381 0.0
C669 C 0.4406 0.06228 0.88708 0.0
H670 H 0.46587 0.47749 0.40461 0.0
H671 H 0.42014 0.48634 0.48029 0.0
H672 H 0.39165 0.48135 0.43143 0.0
H673 H 0.38001 0.4758 0.36683 0.0
H674 H 0.4248 0.46653 0.29029 0.0
H675 H 0.453 0.47012 0.33957 0.0
C676 C 0.44956 0.4781 0.41041 0.0
C677 C 0.44536 0.48244 0.44616 0.0
C678 C 0.433 0.47522 0.38193 0.0
C679 C 0.42406 0.48318 0.4531 0.0
C680 C 0.40766 0.48034 0.42511 0.0
C681 C 0.39598 0.47462 0.36094 0.0
C682 C 0.40032 0.471 0.32495 0.0
C683 C 0.41206 0.47665 0.38937 0.0
C684 C 0.42091 0.46915 0.31785 0.0
C685 C 0.43712 0.4713 0.346 0.0
H686 H 0.958 0.41032 0.01521 0.0
H687 H 0.9407 0.45719 0.95873 0.0
H688 H 0.91761 0.42776 0.91259 0.0
H689 H 0.90491 0.38992 0.88595 0.0
H690 H 0.92168 0.34269 0.94257 0.0
H691 H 0.94237 0.37106 0.99102 0.0
C692 C 0.94879 0.41394 0.99323 0.0
C693 C 0.9513 0.43605 0.99031 0.0
C694 C 0.93565 0.39696 0.9666 0.0
C695 C 0.93944 0.44049 0.96132 0.0
C696 C 0.92616 0.42364 0.93496 0.0
C697 C 0.91264 0.38559 0.90922 0.0
C698 C 0.91183 0.36423 0.91043 0.0
C699 C 0.92453 0.40198 0.93696 0.0
C700 C 0.92236 0.35915 0.9406 0.0
C701 C 0.9341 0.37532 0.96842 0.0
H702 H 0.996 0.56016 0.96427 0.0
H703 H 1.00086 0.51462 0.88848 0.0
H704 H 0.9748 0.52019 0.84503 0.0
H705 H 0.94979 0.53733 0.82881 0.0
H706 H 0.94637 0.58421 0.90302 0.0
H707 H 0.97244 0.57862 0.94696 0.0
C708 C 0.99154 0.55159 0.93813 0.0
C709 C 1.00042 0.53696 0.92977 0.0
C710 C 0.97652 0.55489 0.91313 0.0
C711 C 0.99444 0.52607 0.89567 0.0
C712 C 0.97938 0.52912 0.87083 0.0
C713 C 0.95462 0.54612 0.85478 0.0
C714 C 0.94593 0.56087 0.86302 0.0
C715 C 0.9701 0.54328 0.87941 0.0
C716 C 0.95273 0.57263 0.89632 0.0
C717 C 0.96767 0.56949 0.92133 0.0
H718 H 0.47367 0.99515 0.45078 0.0
H719 H 0.49557 0.95073 0.5038 0.0
H720 H 0.4556 0.91585 0.48802 0.0
H721 H 0.41589 0.89799 0.45391 0.0
H722 H 0.395 0.94333 0.401 0.0
H723 H 0.43283 0.97772 0.42247 0.0
C724 C 0.46958 0.97785 0.45928 0.0
C725 C 0.48761 0.97549 0.47805 0.0
C726 C 0.44671 0.95799 0.45003 0.0
C727 C 0.48196 0.953 0.48933 0.0
C728 C 0.45917 0.93305 0.4801 0.0
C729 C 0.41954 0.9154 0.44745 0.0
C730 C 0.40255 0.91799 0.42584 0.0
C731 C 0.44162 0.93531 0.45964 0.0
C732 C 0.40748 0.94071 0.41799 0.0
C733 C 0.42927 0.96047 0.42997 0.0
H734 H 0.53082 0.41594 0.00998 0.0
H735 H 0.56729 0.46528 0.92034 0.0
H736 H 0.5565 0.43315 0.8796 0.0
H737 H 0.53439 0.391 0.86825 0.0
H738 H 0.49822 0.34131 0.95756 0.0
H739 H 0.51136 0.37355 0.99954 0.0
C740 C 0.5367 0.41967 0.98168 0.0
C741 C 0.54952 0.44304 0.96822 0.0
C742 C 0.5304 0.40102 0.95822 0.0
C743 C 0.55688 0.44749 0.93132 0.0
C744 C 0.55086 0.42911 0.90799 0.0
C745 C 0.52983 0.38717 0.89704 0.0
C746 C 0.51525 0.3637 0.90962 0.0
C747 C 0.53728 0.40579 0.92097 0.0
C748 C 0.50917 0.35918 0.94698 0.0
C749 C 0.51672 0.37762 0.97105 0.0
H750 H 0.11144 0.49752 0.43153 0.0
H751 H 0.04382 0.44753 0.37715 0.0
H752 H 0.06748 0.442 0.33082 0.0
H753 H 0.10739 0.453 0.30402 0.0
H754 H 0.17532 0.50448 0.35631 0.0
H755 H 0.15165 0.50788 0.40531 0.0
C756 C 0.10197 0.48517 0.40982 0.0
C757 C 0.07597 0.47287 0.40769 0.0
C758 C 0.11575 0.48251 0.38285 0.0
C759 C 0.06383 0.45724 0.3791 0.0
C760 C 0.07734 0.45408 0.3527 0.0
C761 C 0.117 0.46469 0.32646 0.0
C762 C 0.14304 0.47838 0.32671 0.0
C763 C 0.1033 0.46684 0.35404 0.0
C764 C 0.15527 0.49383 0.35552 0.0
C765 C 0.14176 0.49574 0.38352 0.0
H766 H 0.5543 0.05757 0.93624 0.0
H767 H 0.58686 0.04022 0.02589 0.0
H768 H 0.62838 0.07215 0.00666 0.0
H769 H 0.65532 0.10142 0.9591 0.0
H770 H 0.62162 0.11807 0.86978 0.0
H771 H 0.58065 0.09046 0.89458 0.0
C772 C 0.5705 0.06118 0.952 0.0
C773 C 0.56775 0.04661 0.98216 0.0
C774 C 0.59407 0.07936 0.94069 0.0
C775 C 0.58867 0.05137 0.00266 0.0
C776 C 0.61235 0.06947 0.99145 0.0
C777 C 0.639 0.09927 0.94549 0.0
C778 C 0.64158 0.1117 0.91244 0.0
C779 C 0.61531 0.08305 0.95973 0.0
C780 C 0.62027 0.10895 0.89535 0.0
C781 C 0.59676 0.09296 0.90932 0.0
H782 H 0.55266 0.61099 0.51266 0.0
H783 H 0.50172 0.56177 0.4341 0.0
H784 H 0.51391 0.59354 0.38928 0.0
H785 H 0.54152 0.63458 0.37061 0.0
H786 H 0.59236 0.68439 0.44875 0.0
H787 H 0.57771 0.65315 0.49551 0.0
C788 C 0.54394 0.60733 0.48597 0.0
C789 C 0.5266 0.584 0.47656 0.0
C790 C 0.55118 0.62574 0.46012 0.0
C791 C 0.51552 0.5795 0.44176 0.0
C792 C 0.52241 0.59767 0.41614 0.0
C793 C 0.54903 0.63879 0.39808 0.0
C794 C 0.56814 0.66182 0.406 0.0
C795 C 0.54061 0.62077 0.42474 0.0
C796 C 0.5779 0.66675 0.44168 0.0
C797 C 0.56947 0.64891 0.4685 0.0
H798 H 0.57854 0.11345 0.56316 0.0
H799 H 0.50981 0.06907 0.50685 0.0
H800 H 0.49037 0.08666 0.53954 0.0
H801 H 0.4928 0.11374 0.58533 0.0
H802 H 0.56035 0.15428 0.64751 0.0
H803 H 0.58061 0.1399 0.61031 0.0
C804 C 0.5594 0.1079 0.55784 0.0
C805 C 0.54559 0.09019 0.5325 0.0
C806 C 0.54822 0.11754 0.5776 0.0
C807 C 0.52068 0.0827 0.52627 0.0
C808 C 0.50964 0.09277 0.54491 0.0
C809 C 0.51185 0.1193 0.5913 0.0
C810 C 0.52479 0.13522 0.6196 0.0
C811 C 0.52317 0.11001 0.57099 0.0
C812 C 0.5498 0.14254 0.62566 0.0
C813 C 0.56144 0.13406 0.60462 0.0
H814 H 0.5148 0.53157 0.09589 0.0
H815 H 0.48396 0.50503 0.98978 0.0
H816 H 0.44442 0.50009 0.00839 0.0
H817 H 0.41774 0.49999 0.05748 0.0
H818 H 0.45009 0.52649 0.16336 0.0
H819 H 0.49003 0.53525 0.14189 0.0
C820 C 0.49947 0.52488 0.0767 0.0
C821 C 0.502 0.51829 0.04181 0.0
C822 C 0.47709 0.52215 0.08757 0.0
C823 C 0.48229 0.51013 0.01687 0.0
C824 C 0.45972 0.50722 0.0276 0.0
C825 C 0.43362 0.50791 0.07565 0.0
C826 C 0.4308 0.51256 0.11201 0.0
C827 C 0.45672 0.51264 0.06327 0.0
C828 C 0.45166 0.52306 0.13511 0.0
C829 C 0.47454 0.52786 0.123 0.0
H830 H 0.97842 0.43563 0.57861 0.0
H831 H 0.03528 0.4234 0.61707 0.0
H832 H 1.00544 0.3914 0.65677 0.0
H833 H 0.96387 0.36791 0.68249 0.0
H834 H 0.90602 0.3783 0.64256 0.0
H835 H 0.93568 0.41017 0.60209 0.0
C836 C 0.98424 0.4259 0.59558 0.0
C837 C 0.00914 0.43204 0.59487 0.0
C838 C 0.96686 0.40726 0.61833 0.0
C839 C 0.01629 0.41912 0.61693 0.0
C840 C 0.99923 0.4008 0.63977 0.0
C841 C 0.95747 0.37672 0.66445 0.0
C842 C 0.93257 0.37052 0.66579 0.0
C843 C 0.97452 0.3948 0.64085 0.0
C844 C 0.92506 0.38277 0.64267 0.0
C845 C 0.94202 0.40097 0.6193 0.0
H846 H 0.54234 0.92408 0.0009 0.0
H847 H 0.48843 0.91369 0.08121 0.0
H848 H 0.50095 0.89192 0.121 0.0
H849 H 0.53024 0.87981 0.13579 0.0
H850 H 0.58551 0.89133 0.05695 0.0
H851 H 0.56944 0.90856 0.01364 0.0
C852 C 0.53304 0.91657 0.02676 0.0
C853 C 0.51465 0.92058 0.03833 0.0
C854 C 0.54077 0.90453 0.04988 0.0
C855 C 0.50285 0.91102 0.07205 0.0
C856 C 0.50999 0.89859 0.09476 0.0
C857 C 0.53839 0.88553 0.10879 0.0
C858 C 0.55908 0.88435 0.09966 0.0
C859 C 0.52938 0.8958 0.0844 0.0
C860 C 0.5697 0.89226 0.06477 0.0
C861 C 0.56052 0.9021 0.04 0.0
H862 H 0.56128 0.4903 0.59977 0.0
H863 H 0.58809 0.52093 0.49271 0.0
H864 H 0.62864 0.52624 0.50745 0.0
H865 H 0.65757 0.52598 0.55392 0.0
H866 H 0.6292 0.49535 0.66097 0.0
H867 H 0.58811 0.48569 0.64274 0.0
C868 C 0.5759 0.4978 0.57943 0.0
C869 C 0.57192 0.50546 0.54541 0.0
C870 C 0.59892 0.5008 0.58817 0.0
C871 C 0.5908 0.51487 0.51908 0.0
C872 C 0.61399 0.51804 0.52765 0.0
C873 C 0.64232 0.51693 0.57307 0.0
C874 C 0.6467 0.51148 0.60887 0.0
C875 C 0.61849 0.51169 0.56258 0.0
C876 C 0.62655 0.49949 0.63312 0.0
C877 C 0.60297 0.49416 0.62288 0.0
H878 H 0.08384 0.58673 0.12164 0.0
H879 H 0.02024 0.56459 0.19015 0.0
H880 H 0.04687 0.5922 0.23664 0.0
H881 H 0.08812 0.62261 0.25779 0.0
H882 H 0.15178 0.64526 0.18907 0.0
H883 H 0.12527 0.61709 0.14302 0.0
C884 C 0.07583 0.58772 0.14692 0.0
C885 C 0.05003 0.57357 0.15237 0.0
C886 C 0.09126 0.60372 0.17349 0.0
C887 C 0.03996 0.57542 0.18508 0.0
C888 C 0.0552 0.59116 0.21173 0.0
C889 C 0.0962 0.62162 0.23255 0.0
C890 C 0.12192 0.63617 0.22686 0.0
C891 C 0.08084 0.6055 0.20612 0.0
C892 C 0.13209 0.63419 0.19432 0.0
C893 C 0.11692 0.61814 0.1679 0.0
loop_
_geom_bond_atom_site_label_1
_geom_bond_atom_site_label_2
_geom_bond_distance
_geom_bond_site_symmetry_2
_ccdc_geom_bond_type
Cu0 N1 1.999 . S
Cu0 O6 1.974 . S
Cu0 N11 1.985 1_655 S
Cu0 O20 1.959 1_655 S
N1 Cu0 1.999 . S
N1 C3 1.263 . S
N1 C5 1.389 . S
N2 C3 1.358 . S
N2 C4 1.400 . S
C3 N1 1.263 . S
C3 N2 1.358 . S
C3 H9 0.930 1_554 S
C4 N2 1.400 . S
C4 C5 1.351 . S
C4 H21 0.930 . S
C5 N1 1.389 . S
C5 C4 1.351 . S
C5 H10 0.930 . S
O6 Cu0 1.974 . S
O6 C16 1.282 1_554 S
C7 O8 1.261 . S
C7 O20 1.251 . S
O8 C7 1.261 . S
H9 C3 0.930 1_556 S
H10 C5 0.930 . S
N11 Cu0 1.985 1_455 S
N11 C13 1.335 . S
N11 C14 1.390 . S
N12 C13 1.345 . S
N12 C15 1.336 . S
C13 N11 1.335 . S
C13 N12 1.345 . S
C13 H18 0.930 . S
C14 N11 1.390 . S
C14 C15 1.346 . S
C14 H19 0.930 . S
C15 N12 1.336 . S
C15 C14 1.346 . S
C15 H22 0.929 . S
C16 O6 1.282 1_556 S
C16 O17 1.216 . S
O17 C16 1.216 . S
H18 C13 0.930 . S
H19 C14 0.930 . S
O20 Cu0 1.959 1_455 S
O20 C7 1.251 . S
H21 C4 0.930 . S
H22 C15 0.929 . S
Cu23 N24 1.999 . S
Cu23 O29 1.974 . S
Cu23 N34 1.985 1_565 S
Cu23 O43 1.959 1_565 S
N24 Cu23 1.999 . S
N24 C26 1.263 . S
N24 C28 1.389 . S
N25 C26 1.358 . S
N25 C27 1.400 . S
C26 N24 1.263 . S
C26 N25 1.358 . S
C26 H32 0.930 . S
C27 N25 1.400 . S
C27 C28 1.351 . S
C27 H44 0.930 . S
C28 N24 1.389 . S
C28 C27 1.351 . S
C28 H33 0.930 . S
O29 Cu23 1.974 . S
O29 C39 1.282 . S
C30 O31 1.261 . S
C30 O43 1.251 . S
O31 C30 1.261 . S
H32 C26 0.930 . S
H33 C28 0.930 . S
N34 Cu23 1.985 1_545 S
N34 C36 1.335 . S
N34 C37 1.390 . S
N35 C36 1.345 . S
N35 C38 1.336 . S
C36 N34 1.335 . S
C36 N35 1.345 . S
C36 H41 0.930 . S
C37 N34 1.390 . S
C37 C38 1.346 . S
C37 H42 0.930 . S
C38 N35 1.336 . S
C38 C37 1.346 . S
C38 H45 0.929 . S
C39 O29 1.282 . S
C39 O40 1.216 . S
O40 C39 1.216 . S
H41 C36 0.930 . S
H42 C37 0.930 . S
O43 Cu23 1.959 1_545 S
O43 C30 1.251 . S
H44 C27 0.930 . S
H45 C38 0.929 . S
Cu46 N47 1.999 . S
Cu46 O52 1.974 . S
Cu46 N57 1.985 1_556 S
Cu46 O66 1.959 1_556 S
N47 Cu46 1.999 . S
N47 C49 1.263 . S
N47 C51 1.389 . S
N48 C49 1.358 . S
N48 C50 1.400 . S
C49 N47 1.263 . S
C49 N48 1.358 . S
C49 H55 0.930 . S
C50 N48 1.400 . S
C50 C51 1.351 . S
C50 H67 0.930 . S
C51 N47 1.389 . S
C51 C50 1.351 . S
C51 H56 0.930 . S
O52 Cu46 1.974 . S
O52 C62 1.282 . S
C53 O54 1.261 . S
C53 O66 1.251 . S
O54 C53 1.261 . S
H55 C49 0.930 . S
H56 C51 0.930 . S
N57 Cu46 1.985 1_554 S
N57 C59 1.335 . S
N57 C60 1.390 . S
N58 C59 1.345 . S
N58 C61 1.336 . S
C59 N57 1.335 . S
C59 N58 1.345 . S
C59 H64 0.930 . S
C60 N57 1.390 . S
C60 C61 1.346 . S
C60 H65 0.930 . S
C61 N58 1.336 . S
C61 C60 1.346 . S
C61 H68 0.929 . S
C62 O52 1.282 . S
C62 O63 1.216 1_556 S
O63 C62 1.216 1_554 S
H64 C59 0.930 . S
H65 C60 0.930 . S
O66 Cu46 1.959 1_554 S
O66 C53 1.251 . S
H67 C50 0.930 . S
H68 C61 0.929 . S
Cu69 N70 1.999 . S
Cu69 O75 1.974 . S
Cu69 N80 1.985 . S
Cu69 O89 1.959 . S
N70 Cu69 1.999 . S
N70 C72 1.263 . S
N70 C74 1.389 . S
N71 C72 1.358 . S
N71 C73 1.400 . S
C72 N70 1.263 . S
C72 N71 1.358 . S
C72 H78 0.930 . S
C73 N71 1.400 . S
C73 C74 1.351 . S
C73 H90 0.930 . S
C74 N70 1.389 . S
C74 C73 1.351 . S
C74 H79 0.930 . S
O75 Cu69 1.974 . S
O75 C85 1.282 . S
C76 O77 1.261 . S
C76 O89 1.251 . S
O77 C76 1.261 . S
H78 C72 0.930 . S
H79 C74 0.930 . S
N80 Cu69 1.985 . S
N80 C82 1.335 . S
N80 C83 1.390 . S
N81 C82 1.345 . S
N81 C84 1.336 . S
C82 N80 1.335 . S
C82 N81 1.345 . S
C82 H87 0.927 1_455 S
C83 N80 1.390 . S
C83 C84 1.346 . S
C83 H88 0.930 . S
C84 N81 1.336 . S
C84 C83 1.346 . S
C84 H91 0.929 . S
C85 O75 1.282 . S
C85 O86 1.216 . S
O86 C85 1.216 . S
H87 C82 0.927 1_655 S
H88 C83 0.930 . S
O89 Cu69 1.959 . S
O89 C76 1.251 . S
H90 C73 0.930 . S
H91 C84 0.929 . S
Cu92 N93 1.999 . S
Cu92 O98 1.974 1_554 S
Cu92 N103 1.985 1_545 S
Cu92 O112 1.959 1_545 S
N93 Cu92 1.999 . S
N93 C95 1.263 1_554 S
N93 C97 1.389 . S
N94 C95 1.358 . S
N94 C96 1.400 1_556 S
C95 N93 1.263 1_556 S
C95 N94 1.358 . S
C95 H101 0.930 . S
C96 N94 1.400 1_554 S
C96 C97 1.351 . S
C96 H113 0.930 . S
C97 N93 1.389 . S
C97 C96 1.351 . S
C97 H102 0.930 . S
O98 Cu92 1.974 1_556 S
O98 C108 1.282 . S
C99 O100 1.261 . S
C99 O112 1.251 . S
O100 C99 1.261 . S
H101 C95 0.930 . S
H102 C97 0.930 . S
N103 Cu92 1.985 1_565 S
N103 C105 1.335 . S
N103 C106 1.390 . S
N104 C105 1.345 . S
N104 C107 1.336 . S
C105 N103 1.335 . S
C105 N104 1.345 . S
C105 H110 0.930 . S
C106 N103 1.390 . S
C106 C107 1.346 . S
C106 H111 0.930 1_564 S
C107 N104 1.336 . S
C107 C106 1.346 . S
C107 H114 0.929 . S
C108 O98 1.282 . S
C108 O109 1.216 . S
O109 C108 1.216 . S
H110 C105 0.930 . S
H111 C106 0.930 1_546 S
O112 Cu92 1.959 1_565 S
O112 C99 1.251 . S
H113 C96 0.930 . S
H114 C107 0.929 . S
Cu115 N116 1.999 . S
Cu115 O121 1.974 . S
Cu115 N126 1.985 . S
Cu115 O135 1.959 . S
N116 Cu115 1.999 . S
N116 C118 1.263 . S
N116 C120 1.389 . S
N117 C118 1.358 . S
N117 C119 1.400 . S
C118 N116 1.263 . S
C118 N117 1.358 . S
C118 H124 0.930 . S
C119 N117 1.400 . S
C119 C120 1.351 . S
C119 H136 0.930 . S
C120 N116 1.389 . S
C120 C119 1.351 . S
C120 H125 0.930 . S
O121 Cu115 1.974 . S
O121 C131 1.282 . S
C122 O123 1.261 . S
C122 O135 1.251 . S
O123 C122 1.261 . S
H124 C118 0.930 . S
H125 C120 0.930 . S
N126 Cu115 1.985 . S
N126 C128 1.335 . S
N126 C129 1.390 . S
N127 C128 1.345 . S
N127 C130 1.336 . S
C128 N126 1.335 . S
C128 N127 1.345 . S
C128 H133 0.930 . S
C129 N126 1.390 . S
C129 C130 1.346 . S
C129 H134 0.930 . S
C130 N127 1.336 . S
C130 C129 1.346 . S
C130 H137 0.929 . S
C131 O121 1.282 . S
C131 O132 1.216 . S
O132 C131 1.216 . S
H133 C128 0.930 . S
H134 C129 0.930 . S
O135 Cu115 1.959 . S
O135 C122 1.251 . S
H136 C119 0.930 . S
H137 C130 0.929 . S
H138 C165 0.929 . S
N139 C164 1.433 . S
N139 C170 1.435 . S
N139 C176 1.423 . S
H140 C166 0.930 . S
H141 C169 0.931 . S
H142 C168 0.929 . S
H143 C171 0.930 . S
H144 C172 0.932 . S
H145 C175 0.929 . S
H146 C174 0.931 . S
H147 C177 0.929 . S
H148 C181 0.932 . S
H149 C178 0.931 . S
H150 C180 0.929 . S
H151 C183 0.929 . S
H152 C184 0.930 . S
H153 C186 0.929 . S
H154 C187 0.931 . S
H155 C189 0.930 . S
H156 C190 0.932 . S
H157 C192 0.931 . S
H158 C193 0.929 . S
H159 C195 0.929 . S
H160 C196 0.931 . S
H161 C198 0.929 . S
N162 C182 1.433 . S
N162 C188 1.435 . S
N162 C194 1.423 . S
H163 C199 0.932 . S
C164 N139 1.433 . S
C164 C165 1.363 . S
C164 C169 1.370 . S
C165 H138 0.929 . S
C165 C164 1.363 . S
C165 C166 1.385 . S
C166 H140 0.930 . S
C166 C165 1.385 . S
C166 C167 1.357 . S
C167 C166 1.357 . S
C167 C168 1.406 . S
C168 H142 0.929 . S
C168 C167 1.406 . S
C168 C169 1.391 . S
C169 H141 0.931 . S
C169 C164 1.370 . S
C169 C168 1.391 . S
C170 N139 1.435 . S
C170 C171 1.358 . S
C170 C175 1.371 . S
C171 H143 0.930 . S
C171 C170 1.358 . S
C171 C172 1.405 . S
C172 H144 0.932 . S
C172 C171 1.405 . S
C172 C173 1.383 . S
C173 C172 1.383 . S
C173 C174 1.393 . S
C174 H146 0.931 . S
C174 C173 1.393 . S
C174 C175 1.382 . S
C175 H145 0.929 . S
C175 C170 1.371 . S
C175 C174 1.382 . S
C176 N139 1.423 . S
C176 C177 1.362 . S
C176 C181 1.388 . S
C177 H147 0.929 . S
C177 C176 1.362 . S
C177 C178 1.376 . S
C178 H149 0.931 . S
C178 C177 1.376 . S
C178 C179 1.396 . S
C179 C178 1.396 . S
C179 C180 1.348 . S
C179 C197 1.472 . S
C180 H150 0.929 . S
C180 C179 1.348 . S
C180 C181 1.443 . S
C181 H148 0.932 . S
C181 C176 1.388 . S
C181 C180 1.443 . S
C182 N162 1.433 . S
C182 C183 1.363 . S
C182 C187 1.370 . S
C183 H151 0.929 . S
C183 C182 1.363 . S
C183 C184 1.385 . S
C184 H152 0.930 . S
C184 C183 1.385 . S
C184 C185 1.357 . S
C185 C184 1.357 . S
C185 C186 1.406 . S
C186 H153 0.929 . S
C186 C185 1.406 . S
C186 C187 1.391 . S
C187 H154 0.931 . S
C187 C182 1.370 . S
C187 C186 1.391 . S
C188 N162 1.435 . S
C188 C189 1.358 . S
C188 C193 1.371 . S
C189 H155 0.930 . S
C189 C188 1.358 . S
C189 C190 1.405 . S
C190 H156 0.932 . S
C190 C189 1.405 . S
C190 C191 1.383 . S
C191 C190 1.383 . S
C191 C192 1.393 . S
C192 H157 0.931 . S
C192 C191 1.393 . S
C192 C193 1.382 . S
C193 H158 0.929 . S
C193 C188 1.371 . S
C193 C192 1.382 . S
C194 N162 1.423 . S
C194 C195 1.362 . S
C194 C199 1.388 . S
C195 H159 0.929 . S
C195 C194 1.362 . S
C195 C196 1.376 . S
C196 H160 0.931 . S
C196 C195 1.376 . S
C196 C197 1.396 . S
C197 C179 1.472 . S
C197 C196 1.396 . S
C197 C198 1.348 . S
C198 H161 0.929 . S
C198 C197 1.348 . S
C198 C199 1.443 . S
C199 H163 0.932 . S
C199 C194 1.388 . S
C199 C198 1.443 . S
H200 C227 0.929 . S
N201 C226 1.433 . S
N201 C232 1.435 . S
N201 C238 1.423 . S
H202 C228 0.930 . S
H203 C231 0.931 . S
H204 C230 0.929 . S
H205 C233 0.930 . S
H206 C234 0.932 . S
H207 C237 0.929 . S
H208 C236 0.931 . S
H209 C239 0.929 . S
H210 C243 0.932 . S
H211 C240 0.931 . S
H212 C242 0.929 . S
H213 C245 0.929 . S
H214 C246 0.930 . S
H215 C248 0.929 . S
H216 C249 0.931 . S
H217 C251 0.930 . S
H218 C252 0.932 . S
H219 C254 0.931 . S
H220 C255 0.929 . S
H221 C257 0.929 . S
H222 C258 0.931 . S
H223 C260 0.929 . S
N224 C244 1.433 . S
N224 C250 1.435 . S
N224 C256 1.423 . S
H225 C261 0.932 . S
C226 N201 1.433 . S
C226 C227 1.363 . S
C226 C231 1.370 . S
C227 H200 0.929 . S
C227 C226 1.363 . S
C227 C228 1.385 . S
C228 H202 0.930 . S
C228 C227 1.385 . S
C228 C229 1.357 . S
C229 C228 1.357 . S
C229 C230 1.406 . S
C230 H204 0.929 . S
C230 C229 1.406 . S
C230 C231 1.391 . S
C231 H203 0.931 . S
C231 C226 1.370 . S
C231 C230 1.391 . S
C232 N201 1.435 . S
C232 C233 1.358 . S
C232 C237 1.371 . S
C233 H205 0.930 . S
C233 C232 1.358 . S
C233 C234 1.405 . S
C234 H206 0.932 . S
C234 C233 1.405 . S
C234 C235 1.383 . S
C235 C234 1.383 . S
C235 C236 1.393 . S
C236 H208 0.931 . S
C236 C235 1.393 . S
C236 C237 1.382 . S
C237 H207 0.929 . S
C237 C232 1.371 . S
C237 C236 1.382 . S
C238 N201 1.423 . S
C238 C239 1.362 . S
C238 C243 1.388 . S
C239 H209 0.929 . S
C239 C238 1.362 . S
C239 C240 1.376 . S
C240 H211 0.931 . S
C240 C239 1.376 . S
C240 C241 1.396 . S
C241 C240 1.396 . S
C241 C242 1.348 . S
C241 C259 1.472 . S
C242 H212 0.929 . S
C242 C241 1.348 . S
C242 C243 1.443 . S
C243 H210 0.932 . S
C243 C238 1.388 . S
C243 C242 1.443 . S
C244 N224 1.433 . S
C244 C245 1.363 . S
C244 C249 1.370 . S
C245 H213 0.929 . S
C245 C244 1.363 . S
C245 C246 1.385 . S
C246 H214 0.930 . S
C246 C245 1.385 . S
C246 C247 1.357 . S
C247 C246 1.357 . S
C247 C248 1.406 . S
C248 H215 0.929 . S
C248 C247 1.406 . S
C248 C249 1.391 . S
C249 H216 0.931 . S
C249 C244 1.370 . S
C249 C248 1.391 . S
C250 N224 1.435 . S
C250 C251 1.358 . S
C250 C255 1.371 . S
C251 H217 0.930 . S
C251 C250 1.358 . S
C251 C252 1.405 . S
C252 H218 0.932 . S
C252 C251 1.405 . S
C252 C253 1.383 . S
C253 C252 1.383 . S
C253 C254 1.393 . S
C254 H219 0.931 . S
C254 C253 1.393 . S
C254 C255 1.382 . S
C255 H220 0.929 . S
C255 C250 1.371 . S
C255 C254 1.382 . S
C256 N224 1.423 . S
C256 C257 1.362 . S
C256 C261 1.388 . S
C257 H221 0.929 . S
C257 C256 1.362 . S
C257 C258 1.376 . S
C258 H222 0.931 . S
C258 C257 1.376 . S
C258 C259 1.396 . S
C259 C241 1.472 . S
C259 C258 1.396 . S
C259 C260 1.348 . S
C260 H223 0.929 . S
C260 C259 1.348 . S
C260 C261 1.443 . S
C261 H225 0.932 . S
C261 C256 1.388 . S
C261 C260 1.443 . S
H262 C289 0.929 . S
N263 C288 1.433 . S
N263 C294 1.435 . S
N263 C300 1.423 . S
H264 C290 0.930 . S
H265 C293 0.931 . S
H266 C292 0.929 . S
H267 C295 0.930 . S
H268 C296 0.932 . S
H269 C299 0.929 . S
H270 C298 0.931 . S
H271 C301 0.929 . S
H272 C305 0.932 . S
H273 C302 0.931 . S
H274 C304 0.929 . S
H275 C307 0.929 . S
H276 C308 0.930 . S
H277 C310 0.929 . S
H278 C311 0.931 . S
H279 C313 0.930 . S
H280 C314 0.932 . S
H281 C316 0.931 . S
H282 C317 0.929 . S
H283 C319 0.929 . S
H284 C320 0.931 . S
H285 C322 0.929 . S
N286 C306 1.433 . S
N286 C312 1.435 . S
N286 C318 1.423 . S
H287 C323 0.932 . S
C288 N263 1.433 . S
C288 C289 1.363 . S
C288 C293 1.370 . S
C289 H262 0.929 . S
C289 C288 1.363 . S
C289 C290 1.385 . S
C290 H264 0.930 . S
C290 C289 1.385 . S
C290 C291 1.357 . S
C291 C290 1.357 . S
C291 C292 1.406 . S
C292 H266 0.929 . S
C292 C291 1.406 . S
C292 C293 1.391 . S
C293 H265 0.931 . S
C293 C288 1.370 . S
C293 C292 1.391 . S
C294 N263 1.435 . S
C294 C295 1.358 . S
C294 C299 1.371 . S
C295 H267 0.930 . S
C295 C294 1.358 . S
C295 C296 1.405 . S
C296 H268 0.932 . S
C296 C295 1.405 . S
C296 C297 1.383 . S
C297 C296 1.383 . S
C297 C298 1.393 . S
C298 H270 0.931 . S
C298 C297 1.393 . S
C298 C299 1.382 . S
C299 H269 0.929 . S
C299 C294 1.371 . S
C299 C298 1.382 . S
C300 N263 1.423 . S
C300 C301 1.362 . S
C300 C305 1.388 . S
C301 H271 0.929 . S
C301 C300 1.362 . S
C301 C302 1.376 . S
C302 H273 0.931 . S
C302 C301 1.376 . S
C302 C303 1.396 . S
C303 C302 1.396 . S
C303 C304 1.348 . S
C303 C321 1.472 . S
C304 H274 0.929 . S
C304 C303 1.348 . S
C304 C305 1.443 . S
C305 H272 0.932 . S
C305 C300 1.388 . S
C305 C304 1.443 . S
C306 N286 1.433 . S
C306 C307 1.363 . S
C306 C311 1.370 . S
C307 H275 0.929 . S
C307 C306 1.363 . S
C307 C308 1.385 . S
C308 H276 0.930 . S
C308 C307 1.385 . S
C308 C309 1.357 . S
C309 C308 1.357 . S
C309 C310 1.406 . S
C310 H277 0.929 . S
C310 C309 1.406 . S
C310 C311 1.391 . S
C311 H278 0.931 . S
C311 C306 1.370 . S
C311 C310 1.391 . S
C312 N286 1.435 . S
C312 C313 1.358 . S
C312 C317 1.371 . S
C313 H279 0.930 . S
C313 C312 1.358 . S
C313 C314 1.405 . S
C314 H280 0.932 . S
C314 C313 1.405 . S
C314 C315 1.383 . S
C315 C314 1.383 . S
C315 C316 1.393 . S
C316 H281 0.931 . S
C316 C315 1.393 . S
C316 C317 1.382 . S
C317 H282 0.929 . S
C317 C312 1.371 . S
C317 C316 1.382 . S
C318 N286 1.423 . S
C318 C319 1.362 . S
C318 C323 1.388 . S
C319 H283 0.929 . S
C319 C318 1.362 . S
C319 C320 1.376 . S
C320 H284 0.931 . S
C320 C319 1.376 . S
C320 C321 1.396 . S
C321 C303 1.472 . S
C321 C320 1.396 . S
C321 C322 1.348 . S
C322 H285 0.929 . S
C322 C321 1.348 . S
C322 C323 1.443 . S
C323 H287 0.932 . S
C323 C318 1.388 . S
C323 C322 1.443 . S
H324 C351 0.929 . S
N325 C350 1.433 . S
N325 C356 1.435 . S
N325 C362 1.423 . S
H326 C352 0.930 . S
H327 C355 0.931 . S
H328 C354 0.929 . S
H329 C357 0.930 . S
H330 C358 0.932 . S
H331 C361 0.929 . S
H332 C360 0.931 . S
H333 C363 0.929 . S
H334 C367 0.932 . S
H335 C364 0.931 . S
H336 C366 0.929 . S
H337 C369 0.929 . S
H338 C370 0.930 . S
H339 C372 0.929 . S
H340 C373 0.931 . S
H341 C375 0.930 . S
H342 C376 0.932 . S
H343 C378 0.931 . S
H344 C379 0.929 . S
H345 C381 0.929 . S
H346 C382 0.931 . S
H347 C384 0.929 . S
N348 C368 1.433 . S
N348 C374 1.435 . S
N348 C380 1.423 . S
H349 C385 0.932 . S
C350 N325 1.433 . S
C350 C351 1.363 . S
C350 C355 1.370 . S
C351 H324 0.929 . S
C351 C350 1.363 . S
C351 C352 1.385 . S
C352 H326 0.930 . S
C352 C351 1.385 . S
C352 C353 1.357 . S
C353 C352 1.357 . S
C353 C354 1.406 . S
C354 H328 0.929 . S
C354 C353 1.406 . S
C354 C355 1.391 . S
C355 H327 0.931 . S
C355 C350 1.370 . S
C355 C354 1.391 . S
C356 N325 1.435 . S
C356 C357 1.358 . S
C356 C361 1.371 . S
C357 H329 0.930 . S
C357 C356 1.358 . S
C357 C358 1.405 . S
C358 H330 0.932 . S
C358 C357 1.405 . S
C358 C359 1.383 . S
C359 C358 1.383 . S
C359 C360 1.393 . S
C360 H332 0.931 . S
C360 C359 1.393 . S
C360 C361 1.382 . S
C361 H331 0.929 . S
C361 C356 1.371 . S
C361 C360 1.382 . S
C362 N325 1.423 . S
C362 C363 1.362 . S
C362 C367 1.388 . S
C363 H333 0.929 . S
C363 C362 1.362 . S
C363 C364 1.376 . S
C364 H335 0.931 . S
C364 C363 1.376 . S
C364 C365 1.396 . S
C365 C364 1.396 . S
C365 C366 1.348 . S
C365 C383 1.472 . S
C366 H336 0.929 . S
C366 C365 1.348 . S
C366 C367 1.443 . S
C367 H334 0.932 . S
C367 C362 1.388 . S
C367 C366 1.443 . S
C368 N348 1.433 . S
C368 C369 1.363 . S
C368 C373 1.370 . S
C369 H337 0.929 . S
C369 C368 1.363 . S
C369 C370 1.385 . S
C370 H338 0.930 . S
C370 C369 1.385 . S
C370 C371 1.357 . S
C371 C370 1.357 . S
C371 C372 1.406 . S
C372 H339 0.929 . S
C372 C371 1.406 . S
C372 C373 1.391 . S
C373 H340 0.931 . S
C373 C368 1.370 . S
C373 C372 1.391 . S
C374 N348 1.435 . S
C374 C375 1.358 . S
C374 C379 1.371 . S
C375 H341 0.930 . S
C375 C374 1.358 . S
C375 C376 1.405 . S
C376 H342 0.932 . S
C376 C375 1.405 . S
C376 C377 1.383 . S
C377 C376 1.383 . S
C377 C378 1.393 . S
C378 H343 0.931 . S
C378 C377 1.393 . S
C378 C379 1.382 . S
C379 H344 0.929 . S
C379 C374 1.371 . S
C379 C378 1.382 . S
C380 N348 1.423 . S
C380 C381 1.362 . S
C380 C385 1.388 . S
C381 H345 0.929 . S
C381 C380 1.362 . S
C381 C382 1.376 . S
C382 H346 0.931 . S
C382 C381 1.376 . S
C382 C383 1.396 . S
C383 C365 1.472 . S
C383 C382 1.396 . S
C383 C384 1.348 . S
C384 H347 0.929 . S
C384 C383 1.348 . S
C384 C385 1.443 . S
C385 H349 0.932 . S
C385 C380 1.388 . S
C385 C384 1.443 . S
H386 C413 0.929 . S
N387 C412 1.433 . S
N387 C418 1.435 . S
N387 C424 1.423 . S
H388 C414 0.930 . S
H389 C417 0.931 . S
H390 C416 0.929 . S
H391 C419 0.930 . S
H392 C420 0.932 . S
H393 C423 0.929 . S
H394 C422 0.931 . S
H395 C425 0.929 . S
H396 C429 0.932 . S
H397 C426 0.931 . S
H398 C428 0.929 . S
H399 C431 0.929 . S
H400 C432 0.930 . S
H401 C434 0.929 . S
H402 C435 0.931 . S
H403 C437 0.930 . S
H404 C438 0.932 . S
H405 C440 0.931 . S
H406 C441 0.929 . S
H407 C443 0.929 . S
H408 C444 0.931 . S
H409 C446 0.929 . S
N410 C430 1.433 . S
N410 C436 1.435 . S
N410 C442 1.423 . S
H411 C447 0.932 . S
C412 N387 1.433 . S
C412 C413 1.363 . S
C412 C417 1.370 . S
C413 H386 0.929 . S
C413 C412 1.363 . S
C413 C414 1.385 . S
C414 H388 0.930 . S
C414 C413 1.385 . S
C414 C415 1.357 . S
C415 C414 1.357 . S
C415 C416 1.406 . S
C416 H390 0.929 . S
C416 C415 1.406 . S
C416 C417 1.391 . S
C417 H389 0.931 . S
C417 C412 1.370 . S
C417 C416 1.391 . S
C418 N387 1.435 . S
C418 C419 1.358 . S
C418 C423 1.371 . S
C419 H391 0.930 . S
C419 C418 1.358 . S
C419 C420 1.405 . S
C420 H392 0.932 . S
C420 C419 1.405 . S
C420 C421 1.383 . S
C421 C420 1.383 . S
C421 C422 1.393 . S
C422 H394 0.931 . S
C422 C421 1.393 . S
C422 C423 1.382 . S
C423 H393 0.929 . S
C423 C418 1.371 . S
C423 C422 1.382 . S
C424 N387 1.423 . S
C424 C425 1.362 . S
C424 C429 1.388 . S
C425 H395 0.929 . S
C425 C424 1.362 . S
C425 C426 1.376 . S
C426 H397 0.931 . S
C426 C425 1.376 . S
C426 C427 1.396 . S
C427 C426 1.396 . S
C427 C428 1.348 . S
C427 C445 1.472 . S
C428 H398 0.929 . S
C428 C427 1.348 . S
C428 C429 1.443 . S
C429 H396 0.932 . S
C429 C424 1.388 . S
C429 C428 1.443 . S
C430 N410 1.433 . S
C430 C431 1.363 . S
C430 C435 1.370 . S
C431 H399 0.929 . S
C431 C430 1.363 . S
C431 C432 1.385 . S
C432 H400 0.930 . S
C432 C431 1.385 . S
C432 C433 1.357 . S
C433 C432 1.357 . S
C433 C434 1.406 . S
C434 H401 0.929 . S
C434 C433 1.406 . S
C434 C435 1.391 . S
C435 H402 0.931 . S
C435 C430 1.370 . S
C435 C434 1.391 . S
C436 N410 1.435 . S
C436 C437 1.358 . S
C436 C441 1.371 . S
C437 H403 0.930 . S
C437 C436 1.358 . S
C437 C438 1.405 . S
C438 H404 0.932 . S
C438 C437 1.405 . S
C438 C439 1.383 . S
C439 C438 1.383 . S
C439 C440 1.393 . S
C440 H405 0.931 . S
C440 C439 1.393 . S
C440 C441 1.382 . S
C441 H406 0.929 . S
C441 C436 1.371 . S
C441 C440 1.382 . S
C442 N410 1.423 . S
C442 C443 1.362 . S
C442 C447 1.388 . S
C443 H407 0.929 . S
C443 C442 1.362 . S
C443 C444 1.376 . S
C444 H408 0.931 . S
C444 C443 1.376 . S
C444 C445 1.396 . S
C445 C427 1.472 . S
C445 C444 1.396 . S
C445 C446 1.348 . S
C446 H409 0.929 . S
C446 C445 1.348 . S
C446 C447 1.443 . S
C447 H411 0.932 . S
C447 C442 1.388 . S
C447 C446 1.443 . S
H448 C475 0.929 . S
N449 C474 1.433 . S
N449 C480 1.435 . S
N449 C486 1.423 . S
H450 C476 0.930 . S
H451 C479 0.931 . S
H452 C478 0.929 . S
H453 C481 0.930 . S
H454 C482 0.932 . S
H455 C485 0.929 . S
H456 C484 0.931 . S
H457 C487 0.929 . S
H458 C491 0.932 . S
H459 C488 0.931 . S
H460 C490 0.929 . S
H461 C493 0.929 . S
H462 C494 0.930 . S
H463 C496 0.929 . S
H464 C497 0.931 . S
H465 C499 0.930 . S
H466 C500 0.932 . S
H467 C502 0.931 . S
H468 C503 0.929 . S
H469 C505 0.929 . S
H470 C506 0.931 . S
H471 C508 0.929 . S
N472 C492 1.433 . S
N472 C498 1.435 . S
N472 C504 1.423 . S
H473 C509 0.932 . S
C474 N449 1.433 . S
C474 C475 1.363 . S
C474 C479 1.370 . S
C475 H448 0.929 . S
C475 C474 1.363 . S
C475 C476 1.385 . S
C476 H450 0.930 . S
C476 C475 1.385 . S
C476 C477 1.357 . S
C477 C476 1.357 . S
C477 C478 1.406 . S
C478 H452 0.929 . S
C478 C477 1.406 . S
C478 C479 1.391 . S
C479 H451 0.931 . S
C479 C474 1.370 . S
C479 C478 1.391 . S
C480 N449 1.435 . S
C480 C481 1.358 . S
C480 C485 1.371 . S
C481 H453 0.930 . S
C481 C480 1.358 . S
C481 C482 1.405 . S
C482 H454 0.932 . S
C482 C481 1.405 . S
C482 C483 1.383 . S
C483 C482 1.383 . S
C483 C484 1.393 . S
C484 H456 0.931 . S
C484 C483 1.393 . S
C484 C485 1.382 . S
C485 H455 0.929 . S
C485 C480 1.371 . S
C485 C484 1.382 . S
C486 N449 1.423 . S
C486 C487 1.362 . S
C486 C491 1.388 . S
C487 H457 0.929 . S
C487 C486 1.362 . S
C487 C488 1.376 . S
C488 H459 0.931 . S
C488 C487 1.376 . S
C488 C489 1.396 . S
C489 C488 1.396 . S
C489 C490 1.348 . S
C489 C507 1.472 . S
C490 H460 0.929 . S
C490 C489 1.348 . S
C490 C491 1.443 . S
C491 H458 0.932 . S
C491 C486 1.388 . S
C491 C490 1.443 . S
C492 N472 1.433 . S
C492 C493 1.363 . S
C492 C497 1.370 . S
C493 H461 0.929 . S
C493 C492 1.363 . S
C493 C494 1.385 . S
C494 H462 0.930 . S
C494 C493 1.385 . S
C494 C495 1.357 . S
C495 C494 1.357 . S
C495 C496 1.406 . S
C496 H463 0.929 . S
C496 C495 1.406 . S
C496 C497 1.391 . S
C497 H464 0.931 . S
C497 C492 1.370 . S
C497 C496 1.391 . S
C498 N472 1.435 . S
C498 C499 1.358 . S
C498 C503 1.371 . S
C499 H465 0.930 . S
C499 C498 1.358 . S
C499 C500 1.405 . S
C500 H466 0.932 . S
C500 C499 1.405 . S
C500 C501 1.383 . S
C501 C500 1.383 . S
C501 C502 1.393 . S
C502 H467 0.931 . S
C502 C501 1.393 . S
C502 C503 1.382 . S
C503 H468 0.929 . S
C503 C498 1.371 . S
C503 C502 1.382 . S
C504 N472 1.423 . S
C504 C505 1.362 . S
C504 C509 1.388 . S
C505 H469 0.929 . S
C505 C504 1.362 . S
C505 C506 1.376 . S
C506 H470 0.931 . S
C506 C505 1.376 . S
C506 C507 1.396 . S
C507 C489 1.472 . S
C507 C506 1.396 . S
C507 C508 1.348 . S
C508 H471 0.929 . S
C508 C507 1.348 . S
C508 C509 1.443 . S
C509 H473 0.932 . S
C509 C504 1.388 . S
C509 C508 1.443 . S
H510 C516 0.930 . S
H511 C519 0.930 . S
H512 C520 0.930 . S
H513 C521 0.930 . S
H514 C524 0.930 . S
H515 C525 0.930 . S
C516 H510 0.930 . S
C516 C517 1.355 . S
C516 C518 1.415 . S
C517 C516 1.355 . S
C517 C519 1.419 . S
C518 C516 1.415 . S
C518 C523 1.425 . S
C518 C525 1.409 . S
C519 H511 0.930 . S
C519 C517 1.419 . S
C519 C520 1.362 . S
C520 H512 0.930 . S
C520 C519 1.362 . S
C520 C523 1.409 . S
C521 H513 0.930 . S
C521 C522 1.355 . S
C521 C523 1.415 . S
C522 C521 1.355 . S
C522 C524 1.419 . S
C523 C518 1.425 . S
C523 C520 1.409 . S
C523 C521 1.415 . S
C524 H514 0.930 . S
C524 C522 1.419 . S
C524 C525 1.362 . S
C525 H515 0.930 . S
C525 C518 1.409 . S
C525 C524 1.362 . S
H526 C532 0.930 . S
H527 C535 0.930 . S
H528 C536 0.930 . S
H529 C537 0.930 . S
H530 C540 0.930 . S
H531 C541 0.930 . S
C532 H526 0.930 . S
C532 C533 1.355 . S
C532 C534 1.415 . S
C533 C532 1.355 . S
C533 C535 1.419 . S
C534 C532 1.415 . S
C534 C539 1.425 . S
C534 C541 1.409 . S
C535 H527 0.930 . S
C535 C533 1.419 . S
C535 C536 1.362 . S
C536 H528 0.930 . S
C536 C535 1.362 . S
C536 C539 1.409 . S
C537 H529 0.930 . S
C537 C538 1.355 . S
C537 C539 1.415 . S
C538 C537 1.355 . S
C538 C540 1.419 . S
C539 C534 1.425 . S
C539 C536 1.409 . S
C539 C537 1.415 . S
C540 H530 0.930 . S
C540 C538 1.419 . S
C540 C541 1.362 . S
C541 H531 0.930 . S
C541 C534 1.409 . S
C541 C540 1.362 . S
H542 C548 0.930 . S
H543 C551 0.930 . S
H544 C552 0.930 . S
H545 C553 0.930 . S
H546 C556 0.930 . S
H547 C557 0.930 . S
C548 H542 0.930 . S
C548 C549 1.355 . S
C548 C550 1.415 . S
C549 C548 1.355 . S
C549 C551 1.419 . S
C550 C548 1.415 . S
C550 C555 1.425 . S
C550 C557 1.409 . S
C551 H543 0.930 . S
C551 C549 1.419 . S
C551 C552 1.362 . S
C552 H544 0.930 . S
C552 C551 1.362 . S
C552 C555 1.409 . S
C553 H545 0.930 . S
C553 C554 1.355 . S
C553 C555 1.415 . S
C554 C553 1.355 . S
C554 C556 1.419 . S
C555 C550 1.425 . S
C555 C552 1.409 . S
C555 C553 1.415 . S
C556 H546 0.930 . S
C556 C554 1.419 . S
C556 C557 1.362 . S
C557 H547 0.930 . S
C557 C550 1.409 . S
C557 C556 1.362 . S
H558 C564 0.930 1_455 S
H559 C567 0.930 . S
H560 C568 0.930 . S
H561 C569 0.930 . S
H562 C572 0.930 . S
H563 C573 0.918 1_455 S
C564 H558 0.930 1_655 S
C564 C565 1.355 . S
C564 C566 1.415 . S
C565 C564 1.355 . S
C565 C567 1.419 . S
C566 C564 1.415 . S
C566 C571 1.425 . S
C566 C573 1.409 . S
C567 H559 0.930 . S
C567 C565 1.419 . S
C567 C568 1.362 . S
C568 H560 0.930 . S
C568 C567 1.362 . S
C568 C571 1.409 . S
C569 H561 0.930 . S
C569 C570 1.355 . S
C569 C571 1.415 . S
C570 C569 1.355 . S
C570 C572 1.419 . S
C571 C566 1.425 . S
C571 C568 1.409 . S
C571 C569 1.415 . S
C572 H562 0.930 . S
C572 C570 1.419 . S
C572 C573 1.362 . S
C573 H563 0.918 1_655 S
C573 C566 1.409 . S
C573 C572 1.362 . S
H574 C580 0.930 . S
H575 C583 0.930 . S
H576 C584 0.930 . S
H577 C585 0.930 . S
H578 C588 0.930 . S
H579 C589 0.930 . S
C580 H574 0.930 . S
C580 C581 1.355 . S
C580 C582 1.415 . S
C581 C580 1.355 . S
C581 C583 1.419 . S
C582 C580 1.415 . S
C582 C587 1.425 . S
C582 C589 1.409 . S
C583 H575 0.930 . S
C583 C581 1.419 . S
C583 C584 1.362 . S
C584 H576 0.930 . S
C584 C583 1.362 . S
C584 C587 1.409 . S
C585 H577 0.930 . S
C585 C586 1.355 . S
C585 C587 1.415 . S
C586 C585 1.355 . S
C586 C588 1.419 . S
C587 C582 1.425 . S
C587 C584 1.409 . S
C587 C585 1.415 . S
C588 H578 0.930 . S
C588 C586 1.419 . S
C588 C589 1.362 . S
C589 H579 0.930 . S
C589 C582 1.409 . S
C589 C588 1.362 . S
H590 C596 0.930 . S
H591 C599 0.930 . S
H592 C600 0.930 . S
H593 C601 0.930 . S
H594 C604 0.930 . S
H595 C605 0.930 . S
C596 H590 0.930 . S
C596 C597 1.355 . S
C596 C598 1.415 . S
C597 C596 1.355 . S
C597 C599 1.419 . S
C598 C596 1.415 . S
C598 C603 1.425 . S
C598 C605 1.409 . S
C599 H591 0.930 . S
C599 C597 1.419 . S
C599 C600 1.362 . S
C600 H592 0.930 . S
C600 C599 1.362 . S
C600 C603 1.409 . S
C601 H593 0.930 . S
C601 C602 1.355 . S
C601 C603 1.415 . S
C602 C601 1.355 . S
C602 C604 1.419 . S
C603 C598 1.425 . S
C603 C600 1.409 . S
C603 C601 1.415 . S
C604 H594 0.930 . S
C604 C602 1.419 . S
C604 C605 1.362 . S
C605 H595 0.930 . S
C605 C598 1.409 . S
C605 C604 1.362 . S
H606 C612 0.930 . S
H607 C615 0.930 . S
H608 C616 0.930 . S
H609 C617 0.930 . S
H610 C620 0.930 . S
H611 C621 0.930 . S
C612 H606 0.930 . S
C612 C613 1.355 . S
C612 C614 1.415 . S
C613 C612 1.355 . S
C613 C615 1.419 . S
C614 C612 1.415 . S
C614 C619 1.425 . S
C614 C621 1.409 . S
C615 H607 0.930 . S
C615 C613 1.419 . S
C615 C616 1.362 . S
C616 H608 0.930 . S
C616 C615 1.362 . S
C616 C619 1.409 . S
C617 H609 0.930 . S
C617 C618 1.355 . S
C617 C619 1.415 . S
C618 C617 1.355 . S
C618 C620 1.419 . S
C619 C614 1.425 . S
C619 C616 1.409 . S
C619 C617 1.415 . S
C620 H610 0.930 . S
C620 C618 1.419 . S
C620 C621 1.362 . S
C621 H611 0.930 . S
C621 C614 1.409 . S
C621 C620 1.362 . S
H622 C628 0.930 . S
H623 C631 0.930 1_554 S
H624 C632 0.930 . S
H625 C633 0.930 . S
H626 C636 0.930 . S
H627 C637 0.930 . S
C628 H622 0.930 . S
C628 C629 1.355 . S
C628 C630 1.415 . S
C629 C628 1.355 . S
C629 C631 1.419 . S
C630 C628 1.415 . S
C630 C635 1.425 . S
C630 C637 1.409 . S
C631 H623 0.930 1_556 S
C631 C629 1.419 . S
C631 C632 1.362 . S
C632 H624 0.930 . S
C632 C631 1.362 . S
C632 C635 1.409 . S
C633 H625 0.930 . S
C633 C634 1.355 . S
C633 C635 1.415 . S
C634 C633 1.355 . S
C634 C636 1.419 . S
C635 C630 1.425 . S
C635 C632 1.409 . S
C635 C633 1.415 . S
C636 H626 0.930 . S
C636 C634 1.419 . S
C636 C637 1.362 . S
C637 H627 0.930 . S
C637 C630 1.409 . S
C637 C636 1.362 . S
H638 C644 0.930 . S
H639 C647 0.930 . S
H640 C648 0.930 . S
H641 C649 0.930 . S
H642 C652 0.930 . S
H643 C653 0.930 . S
C644 H638 0.930 . S
C644 C645 1.355 . S
C644 C646 1.415 . S
C645 C644 1.355 . S
C645 C647 1.419 . S
C646 C644 1.415 . S
C646 C651 1.425 . S
C646 C653 1.409 . S
C647 H639 0.930 . S
C647 C645 1.419 . S
C647 C648 1.362 . S
C648 H640 0.930 . S
C648 C647 1.362 . S
C648 C651 1.409 . S
C649 H641 0.930 . S
C649 C650 1.355 . S
C649 C651 1.415 . S
C650 C649 1.355 . S
C650 C652 1.419 . S
C651 C646 1.425 . S
C651 C648 1.409 . S
C651 C649 1.415 . S
C652 H642 0.930 . S
C652 C650 1.419 . S
C652 C653 1.362 . S
C653 H643 0.930 . S
C653 C646 1.409 . S
C653 C652 1.362 . S
H654 C660 0.930 . S
H655 C663 0.930 . S
H656 C664 0.930 . S
H657 C665 0.930 . S
H658 C668 0.930 . S
H659 C669 0.930 . S
C660 H654 0.930 . S
C660 C661 1.355 . S
C660 C662 1.415 . S
C661 C660 1.355 . S
C661 C663 1.419 . S
C662 C660 1.415 . S
C662 C667 1.425 . S
C662 C669 1.409 . S
C663 H655 0.930 . S
C663 C661 1.419 . S
C663 C664 1.362 . S
C664 H656 0.930 . S
C664 C663 1.362 . S
C664 C667 1.409 . S
C665 H657 0.930 . S
C665 C666 1.355 . S
C665 C667 1.415 . S
C666 C665 1.355 . S
C666 C668 1.419 . S
C667 C662 1.425 . S
C667 C664 1.409 . S
C667 C665 1.415 . S
C668 H658 0.930 . S
C668 C666 1.419 . S
C668 C669 1.362 . S
C669 H659 0.930 . S
C669 C662 1.409 . S
C669 C668 1.362 . S
H670 C676 0.930 . S
H671 C679 0.930 . S
H672 C680 0.930 . S
H673 C681 0.930 . S
H674 C684 0.930 . S
H675 C685 0.930 . S
C676 H670 0.930 . S
C676 C677 1.355 . S
C676 C678 1.415 . S
C677 C676 1.355 . S
C677 C679 1.419 . S
C678 C676 1.415 . S
C678 C683 1.425 . S
C678 C685 1.409 . S
C679 H671 0.930 . S
C679 C677 1.419 . S
C679 C680 1.362 . S
C680 H672 0.930 . S
C680 C679 1.362 . S
C680 C683 1.409 . S
C681 H673 0.930 . S
C681 C682 1.355 . S
C681 C683 1.415 . S
C682 C681 1.355 . S
C682 C684 1.419 . S
C683 C678 1.425 . S
C683 C680 1.409 . S
C683 C681 1.415 . S
C684 H674 0.930 . S
C684 C682 1.419 . S
C684 C685 1.362 . S
C685 H675 0.930 . S
C685 C678 1.409 . S
C685 C684 1.362 . S
H686 C692 0.930 . S
H687 C695 0.930 . S
H688 C696 0.930 . S
H689 C697 0.930 . S
H690 C700 0.930 . S
H691 C701 0.930 . S
C692 H686 0.930 . S
C692 C693 1.355 . S
C692 C694 1.415 . S
C693 C692 1.355 . S
C693 C695 1.419 . S
C694 C692 1.415 . S
C694 C699 1.425 . S
C694 C701 1.409 . S
C695 H687 0.930 . S
C695 C693 1.419 . S
C695 C696 1.362 . S
C696 H688 0.930 . S
C696 C695 1.362 . S
C696 C699 1.409 . S
C697 H689 0.930 . S
C697 C698 1.355 . S
C697 C699 1.415 . S
C698 C697 1.355 . S
C698 C700 1.419 . S
C699 C694 1.425 . S
C699 C696 1.409 . S
C699 C697 1.415 . S
C700 H690 0.930 . S
C700 C698 1.419 . S
C700 C701 1.362 . S
C701 H691 0.930 . S
C701 C694 1.409 . S
C701 C700 1.362 . S
H702 C708 0.930 1_554 S
H703 C711 0.930 . S
H704 C712 0.930 . S
H705 C713 0.930 . S
H706 C716 0.930 . S
H707 C717 0.930 1_554 S
C708 H702 0.930 1_556 S
C708 C709 1.355 . S
C708 C710 1.415 . S
C709 C708 1.355 . S
C709 C711 1.419 . S
C710 C708 1.415 . S
C710 C715 1.425 . S
C710 C717 1.409 . S
C711 H703 0.930 . S
C711 C709 1.419 . S
C711 C712 1.362 . S
C712 H704 0.930 . S
C712 C711 1.362 . S
C712 C715 1.409 . S
C713 H705 0.930 . S
C713 C714 1.355 . S
C713 C715 1.415 . S
C714 C713 1.355 . S
C714 C716 1.419 . S
C715 C710 1.425 . S
C715 C712 1.409 . S
C715 C713 1.415 . S
C716 H706 0.930 . S
C716 C714 1.419 . S
C716 C717 1.362 . S
C717 H707 0.930 1_556 S
C717 C710 1.409 . S
C717 C716 1.362 . S
H718 C724 0.930 . S
H719 C727 0.930 . S
H720 C728 0.930 . S
H721 C729 0.930 . S
H722 C732 0.930 . S
H723 C733 0.930 . S
C724 H718 0.930 . S
C724 C725 1.355 . S
C724 C726 1.415 . S
C725 C724 1.355 . S
C725 C727 1.419 . S
C726 C724 1.415 . S
C726 C731 1.425 . S
C726 C733 1.409 . S
C727 H719 0.930 . S
C727 C725 1.419 . S
C727 C728 1.362 . S
C728 H720 0.930 . S
C728 C727 1.362 . S
C728 C731 1.409 . S
C729 H721 0.930 . S
C729 C730 1.355 . S
C729 C731 1.415 . S
C730 C729 1.355 . S
C730 C732 1.419 . S
C731 C726 1.425 . S
C731 C728 1.409 . S
C731 C729 1.415 . S
C732 H722 0.930 . S
C732 C730 1.419 . S
C732 C733 1.362 . S
C733 H723 0.930 . S
C733 C726 1.409 . S
C733 C732 1.362 . S
H734 C740 0.930 . S
H735 C743 0.930 . S
H736 C744 0.930 . S
H737 C745 0.930 . S
H738 C748 0.930 . S
H739 C749 0.930 . S
C740 H734 0.930 . S
C740 C741 1.355 . S
C740 C742 1.415 . S
C741 C740 1.355 . S
C741 C743 1.419 . S
C742 C740 1.415 . S
C742 C747 1.425 . S
C742 C749 1.409 . S
C743 H735 0.930 . S
C743 C741 1.419 . S
C743 C744 1.362 . S
C744 H736 0.930 . S
C744 C743 1.362 . S
C744 C747 1.409 . S
C745 H737 0.930 . S
C745 C746 1.355 . S
C745 C747 1.415 . S
C746 C745 1.355 . S
C746 C748 1.419 . S
C747 C742 1.425 . S
C747 C744 1.409 . S
C747 C745 1.415 . S
C748 H738 0.930 . S
C748 C746 1.419 . S
C748 C749 1.362 . S
C749 H739 0.930 . S
C749 C742 1.409 . S
C749 C748 1.362 . S
H750 C756 0.930 . S
H751 C759 0.930 . S
H752 C760 0.930 . S
H753 C761 0.930 . S
H754 C764 0.930 . S
H755 C765 0.930 . S
C756 H750 0.930 . S
C756 C757 1.355 . S
C756 C758 1.415 . S
C757 C756 1.355 . S
C757 C759 1.419 . S
C758 C756 1.415 . S
C758 C763 1.425 . S
C758 C765 1.409 . S
C759 H751 0.930 . S
C759 C757 1.419 . S
C759 C760 1.362 . S
C760 H752 0.930 . S
C760 C759 1.362 . S
C760 C763 1.409 . S
C761 H753 0.930 . S
C761 C762 1.355 . S
C761 C763 1.415 . S
C762 C761 1.355 . S
C762 C764 1.419 . S
C763 C758 1.425 . S
C763 C760 1.409 . S
C763 C761 1.415 . S
C764 H754 0.930 . S
C764 C762 1.419 . S
C764 C765 1.362 . S
C765 H755 0.930 . S
C765 C758 1.409 . S
C765 C764 1.362 . S
H766 C772 0.930 . S
H767 C775 0.930 . S
H768 C776 0.930 . S
H769 C777 0.930 . S
H770 C780 0.930 . S
H771 C781 0.930 . S
C772 H766 0.930 . S
C772 C773 1.355 . S
C772 C774 1.415 . S
C773 C772 1.355 . S
C773 C775 1.419 . S
C774 C772 1.415 . S
C774 C779 1.425 . S
C774 C781 1.409 . S
C775 H767 0.930 . S
C775 C773 1.419 . S
C775 C776 1.362 . S
C776 H768 0.930 . S
C776 C775 1.362 . S
C776 C779 1.409 . S
C777 H769 0.930 . S
C777 C778 1.355 . S
C777 C779 1.415 . S
C778 C777 1.355 . S
C778 C780 1.419 . S
C779 C774 1.425 . S
C779 C776 1.409 . S
C779 C777 1.415 . S
C780 H770 0.930 . S
C780 C778 1.419 . S
C780 C781 1.362 . S
C781 H771 0.930 . S
C781 C774 1.409 . S
C781 C780 1.362 . S
H782 C788 0.930 . S
H783 C791 0.930 . S
H784 C792 0.930 . S
H785 C793 0.930 . S
H786 C796 0.930 . S
H787 C797 0.930 . S
C788 H782 0.930 . S
C788 C789 1.355 . S
C788 C790 1.415 . S
C789 C788 1.355 . S
C789 C791 1.419 . S
C790 C788 1.415 . S
C790 C795 1.425 . S
C790 C797 1.409 . S
C791 H783 0.930 . S
C791 C789 1.419 . S
C791 C792 1.362 . S
C792 H784 0.930 . S
C792 C791 1.362 . S
C792 C795 1.409 . S
C793 H785 0.930 . S
C793 C794 1.355 . S
C793 C795 1.415 . S
C794 C793 1.355 . S
C794 C796 1.419 . S
C795 C790 1.425 . S
C795 C792 1.409 . S
C795 C793 1.415 . S
C796 H786 0.930 . S
C796 C794 1.419 . S
C796 C797 1.362 . S
C797 H787 0.930 . S
C797 C790 1.409 . S
C797 C796 1.362 . S
H798 C804 0.930 . S
H799 C807 0.930 . S
H800 C808 0.930 . S
H801 C809 0.930 . S
H802 C812 0.930 . S
H803 C813 0.930 . S
C804 H798 0.930 . S
C804 C805 1.355 . S
C804 C806 1.415 . S
C805 C804 1.355 . S
C805 C807 1.419 . S
C806 C804 1.415 . S
C806 C811 1.425 . S
C806 C813 1.409 . S
C807 H799 0.930 . S
C807 C805 1.419 . S
C807 C808 1.362 . S
C808 H800 0.930 . S
C808 C807 1.362 . S
C808 C811 1.409 . S
C809 H801 0.930 . S
C809 C810 1.355 . S
C809 C811 1.415 . S
C810 C809 1.355 . S
C810 C812 1.419 . S
C811 C806 1.425 . S
C811 C808 1.409 . S
C811 C809 1.415 . S
C812 H802 0.930 . S
C812 C810 1.419 . S
C812 C813 1.362 . S
C813 H803 0.930 . S
C813 C806 1.409 . S
C813 C812 1.362 . S
H814 C820 0.930 . S
H815 C823 0.930 . S
H816 C824 0.930 . S
H817 C825 0.930 . S
H818 C828 0.930 . S
H819 C829 0.930 . S
C820 H814 0.930 . S
C820 C821 1.355 . S
C820 C822 1.415 . S
C821 C820 1.355 . S
C821 C823 1.419 . S
C822 C820 1.415 . S
C822 C827 1.425 . S
C822 C829 1.409 . S
C823 H815 0.930 . S
C823 C821 1.419 . S
C823 C824 1.362 . S
C824 H816 0.930 . S
C824 C823 1.362 . S
C824 C827 1.409 . S
C825 H817 0.930 . S
C825 C826 1.355 . S
C825 C827 1.415 . S
C826 C825 1.355 . S
C826 C828 1.419 . S
C827 C822 1.425 . S
C827 C824 1.409 . S
C827 C825 1.415 . S
C828 H818 0.930 . S
C828 C826 1.419 . S
C828 C829 1.362 . S
C829 H819 0.930 . S
C829 C822 1.409 . S
C829 C828 1.362 . S
H830 C836 0.930 . S
H831 C839 0.930 . S
H832 C840 0.930 . S
H833 C841 0.930 . S
H834 C844 0.930 . S
H835 C845 0.930 . S
C836 H830 0.930 . S
C836 C837 1.355 1_655 S
C836 C838 1.415 . S
C837 C836 1.355 1_455 S
C837 C839 1.419 . S
C838 C836 1.415 . S
C838 C843 1.425 . S
C838 C845 1.409 . S
C839 H831 0.930 . S
C839 C837 1.419 . S
C839 C840 1.362 . S
C840 H832 0.930 . S
C840 C839 1.362 . S
C840 C843 1.409 1_455 S
C841 H833 0.930 . S
C841 C842 1.355 . S
C841 C843 1.415 . S
C842 C841 1.355 . S
C842 C844 1.419 . S
C843 C838 1.425 . S
C843 C840 1.409 1_655 S
C843 C841 1.415 . S
C844 H834 0.930 . S
C844 C842 1.419 . S
C844 C845 1.362 . S
C845 H835 0.930 . S
C845 C838 1.409 . S
C845 C844 1.362 . S
H846 C852 0.930 . S
H847 C855 0.930 . S
H848 C856 0.930 . S
H849 C857 0.930 . S
H850 C860 0.930 . S
H851 C861 0.930 . S
C852 H846 0.930 . S
C852 C853 1.355 . S
C852 C854 1.415 . S
C853 C852 1.355 . S
C853 C855 1.419 . S
C854 C852 1.415 . S
C854 C859 1.425 . S
C854 C861 1.409 . S
C855 H847 0.930 . S
C855 C853 1.419 . S
C855 C856 1.362 . S
C856 H848 0.930 . S
C856 C855 1.362 . S
C856 C859 1.409 . S
C857 H849 0.930 . S
C857 C858 1.355 . S
C857 C859 1.415 . S
C858 C857 1.355 . S
C858 C860 1.419 . S
C859 C854 1.425 . S
C859 C856 1.409 . S
C859 C857 1.415 . S
C860 H850 0.930 . S
C860 C858 1.419 . S
C860 C861 1.362 . S
C861 H851 0.930 . S
C861 C854 1.409 . S
C861 C860 1.362 . S
H862 C868 0.930 . S
H863 C871 0.930 . S
H864 C872 0.930 . S
H865 C873 0.930 . S
H866 C876 0.930 . S
H867 C877 0.930 . S
C868 H862 0.930 . S
C868 C869 1.355 . S
C868 C870 1.415 . S
C869 C868 1.355 . S
C869 C871 1.419 . S
C870 C868 1.415 . S
C870 C875 1.425 . S
C870 C877 1.409 . S
C871 H863 0.930 . S
C871 C869 1.419 . S
C871 C872 1.362 . S
C872 H864 0.930 . S
C872 C871 1.362 . S
C872 C875 1.409 . S
C873 H865 0.930 . S
C873 C874 1.355 . S
C873 C875 1.415 . S
C874 C873 1.355 . S
C874 C876 1.419 . S
C875 C870 1.425 . S
C875 C872 1.409 . S
C875 C873 1.415 . S
C876 H866 0.930 . S
C876 C874 1.419 . S
C876 C877 1.362 . S
C877 H867 0.930 . S
C877 C870 1.409 . S
C877 C876 1.362 . S
H878 C884 0.930 . S
H879 C887 0.930 . S
H880 C888 0.930 . S
H881 C889 0.930 . S
H882 C892 0.930 . S
H883 C893 0.930 . S
C884 H878 0.930 . S
C884 C885 1.355 . S
C884 C886 1.415 . S
C885 C884 1.355 . S
C885 C887 1.419 . S
C886 C884 1.415 . S
C886 C891 1.425 . S
C886 C893 1.409 . S
C887 H879 0.930 . S
C887 C885 1.419 . S
C887 C888 1.362 . S
C888 H880 0.930 . S
C888 C887 1.362 . S
C888 C891 1.409 . S
C889 H881 0.930 . S
C889 C890 1.355 . S
C889 C891 1.415 . S
C890 C889 1.355 . S
C890 C892 1.419 . S
C891 C886 1.425 . S
C891 C888 1.409 . S
C891 C889 1.415 . S
C892 H882 0.930 . S
C892 C890 1.419 . S
C892 C893 1.362 . S
C893 H883 0.930 . S
C893 C886 1.409 . S
C893 C892 1.362 . S
C517 C7 1.801 . S
C522 C191 1.733 . S
C533 C30 1.726 . S
C538 C235 1.651 . S
C554 C315 1.633 . S
C549 N58 1.652 . S
C570 C359 1.411 . S
C565 N81 1.423 1_655 S
C586 C439 1.774 . S
C581 C99 1.816 . S
C602 C495 1.643 . S
C597 N127 1.712 . S
C613 N25 1.934 . S
C618 C291 1.776 . S
C629 C62 1.553 . S
C634 C371 1.448 . S
C650 C415 1.837 . S
C645 C85 1.988 . S
C666 C483 1.502 . S
C661 N94 1.488 . S
C677 C131 1.791 . S
C682 C167 1.680 . S
C698 C247 1.680 . S
C693 N2 1.679 1_556 S
C714 C353 1.847 . S
C709 C16 1.918 . S
C725 C39 1.614 . S
C730 C433 1.448 . S
C746 C501 1.656 . S
C741 N48 1.584 . S
C757 N71 1.490 . S
C762 C185 1.438 . S
C773 C108 1.707 . S
C778 C229 1.628 . S
C789 N117 1.735 . S
C794 C309 1.608 . S
C805 N35 1.859 . S
C810 C477 1.777 . S
C826 C173 1.522 . S
C821 C53 1.652 . S
C837 C76 1.801 . S
C842 C253 1.729 . S
C853 N104 1.439 . S
C858 C297 1.420 . S
C869 C122 1.798 . S
C874 C377 1.730 . S
C885 N12 1.444 . S
C890 C421 1.438 . S
