# Generated by pormake.
# Topology zzz, (3,6)-cn, num edge types: 1
# Building blocks:
#     Node 0, Type 0, BuildingBlock: KAKCAD_clean_linker_0, # of connection points: 3
#     Node 1, Type 0, BuildingBlock: KAKCAD_clean_linker_0, # of connection points: 3
#     Node 2, Type 0, BuildingBlock: KAKCAD_clean_linker_0, # of connection points: 3
#     Node 3, Type 0, BuildingBlock: KAKCAD_clean_linker_0, # of connection points: 3
#     Node 4, Type 0, BuildingBlock: KAKCAD_clean_linker_0, # of connection points: 3
#     Node 5, Type 0, BuildingBlock: KAKCAD_clean_linker_0, # of connection points: 3
#     Node 6, Type 0, BuildingBlock: KAKCAD_clean_linker_0, # of connection points: 3
#     Node 7, Type 0, BuildingBlock: KAKCAD_clean_linker_0, # of connection points: 3
#     Node 8, Type 1, BuildingBlock: BETFAJ_clean_sbu_0, # of connection points: 6
#     Node 9, Type 1, BuildingBlock: BETFAJ_clean_sbu_0, # of connection points: 6
#     Node 10, Type 1, BuildingBlock: BETFAJ_clean_sbu_0, # of connection points: 6
#     Node 11, Type 1, BuildingBlock: BETFAJ_clean_sbu_0, # of connection points: 6
#     Edge 12, Type (0, 1), BuildingBlock: TEMPAE_clean_linker_10, # of connection points: 2
#     Edge 13, Type (0, 1), BuildingBlock: TEMPAE_clean_linker_10, # of connection points: 2
#     Edge 14, Type (0, 1), BuildingBlock: TEMPAE_clean_linker_10, # of connection points: 2
#     Edge 15, Type (0, 1), BuildingBlock: TEMPAE_clean_linker_10, # of connection points: 2
#     Edge 16, Type (0, 1), BuildingBlock: TEMPAE_clean_linker_10, # of connection points: 2
#     Edge 17, Type (0, 1), BuildingBlock: TEMPAE_clean_linker_10, # of connection points: 2
#     Edge 18, Type (0, 1), BuildingBlock: TEMPAE_clean_linker_10, # of connection points: 2
#     Edge 19, Type (0, 1), BuildingBlock: TEMPAE_clean_linker_10, # of connection points: 2
#     Edge 20, Type (0, 1), BuildingBlock: TEMPAE_clean_linker_10, # of connection points: 2
#     Edge 21, Type (0, 1), BuildingBlock: TEMPAE_clean_linker_10, # of connection points: 2
#     Edge 22, Type (0, 1), BuildingBlock: TEMPAE_clean_linker_10, # of connection points: 2
#     Edge 23, Type (0, 1), BuildingBlock: TEMPAE_clean_linker_10, # of connection points: 2
#     Edge 24, Type (0, 1), BuildingBlock: TEMPAE_clean_linker_10, # of connection points: 2
#     Edge 25, Type (0, 1), BuildingBlock: TEMPAE_clean_linker_10, # of connection points: 2
#     Edge 26, Type (0, 1), BuildingBlock: TEMPAE_clean_linker_10, # of connection points: 2
#     Edge 27, Type (0, 1), BuildingBlock: TEMPAE_clean_linker_10, # of connection points: 2
#     Edge 28, Type (0, 1), BuildingBlock: TEMPAE_clean_linker_10, # of connection points: 2
#     Edge 29, Type (0, 1), BuildingBlock: TEMPAE_clean_linker_10, # of connection points: 2
#     Edge 30, Type (0, 1), BuildingBlock: TEMPAE_clean_linker_10, # of connection points: 2
#     Edge 31, Type (0, 1), BuildingBlock: TEMPAE_clean_linker_10, # of connection points: 2
#     Edge 32, Type (0, 1), BuildingBlock: TEMPAE_clean_linker_10, # of connection points: 2
#     Edge 33, Type (0, 1), BuildingBlock: TEMPAE_clean_linker_10, # of connection points: 2
#     Edge 34, Type (0, 1), BuildingBlock: TEMPAE_clean_linker_10, # of connection points: 2
#     Edge 35, Type (0, 1), BuildingBlock: TEMPAE_clean_linker_10, # of connection points: 2
# Relax obj value: 0.445
# Max RMSD: 0.271
# Mean RMSD: 0.254
data_MOF--net-zzz--node1-BETFAJ_clean_sbu_0--node2-KAKCAD_clean_linker_0--edge1-TEMPAE_clean_linker_10
_symmetry_space_group_name_H-M    P1
_symmetry_Int_Tables_number       1
_symmetry_cell_setting            triclinic
loop_
_symmetry_equiv_pos_as_xyz
'x, y, z'
_cell_length_a     60.356493
_cell_length_b     60.412529
_cell_length_c     18.453631
_cell_angle_alpha  89.839918
_cell_angle_beta   90.02397
_cell_angle_gamma 90.022117
loop_
_atom_site_label
_atom_site_type_symbol
_atom_site_fract_x
_atom_site_fract_y
_atom_site_fract_z
_atom_type_partial_charge
C0 C 0.78892 0.49175 0.99819 0.0
C1 C 0.77995 0.47435 0.95682 0.0
C2 C 0.77965 0.49751 0.06442 0.0
C3 C 0.76116 0.4861 0.09092 0.0
C4 C 0.75128 0.4696 0.04812 0.0
C5 C 0.76071 0.46365 0.98166 0.0
C6 C 0.75294 0.4909 0.16454 0.0
C7 C 0.73059 0.49522 0.17603 0.0
C8 C 0.72269 0.50068 0.24507 0.0
C9 C 0.73753 0.50119 0.30463 0.0
C10 C 0.76029 0.49621 0.29382 0.0
C11 C 0.76764 0.49152 0.22313 0.0
C12 C 0.7772 0.49581 0.35338 0.0
C13 C 0.77969 0.51346 0.4022 0.0
C14 C 0.79324 0.47891 0.35429 0.0
C15 C 0.81212 0.48043 0.39781 0.0
C16 C 0.81551 0.49867 0.44391 0.0
C17 C 0.69874 0.50591 0.24947 0.0
C18 C 0.69128 0.5254 0.21574 0.0
C19 C 0.68353 0.48866 0.26085 0.0
C20 C 0.66199 0.48999 0.2324 0.0
C21 C 0.65533 0.50847 0.19077 0.0
C22 C 0.66991 0.52666 0.18651 0.0
C23 C 0.79856 0.51483 0.44713 0.0
H24 H 0.80401 0.50008 0.98178 0.0
H25 H 0.78736 0.5105 0.09604 0.0
H26 H 0.73692 0.46062 0.0676 0.0
H27 H 0.75348 0.45017 0.95112 0.0
H28 H 0.71926 0.49487 0.13033 0.0
H29 H 0.78505 0.48827 0.21332 0.0
H30 H 0.73146 0.50519 0.35824 0.0
H31 H 0.76769 0.52678 0.40301 0.0
H32 H 0.79176 0.46488 0.31814 0.0
H33 H 0.82456 0.46768 0.39197 0.0
H34 H 0.70283 0.53873 0.20461 0.0
H35 H 0.68896 0.47327 0.28537 0.0
H36 H 0.80006 0.52889 0.48298 0.0
H37 H 0.66572 0.54115 0.15474 0.0
H38 H 0.65111 0.47587 0.23883 0.0
C39 C 0.90828 0.78372 0.17659 0.0
C40 C 0.91802 0.78969 0.11 0.0
C41 C 0.91761 0.76692 0.21896 0.0
C42 C 0.93641 0.75547 0.19444 0.0
C43 C 0.94375 0.75895 0.12322 0.0
C44 C 0.9347 0.77593 0.08145 0.0
C45 C 0.95128 0.74408 0.24632 0.0
C46 C 0.96173 0.72428 0.22762 0.0
C47 C 0.97953 0.71612 0.26863 0.0
C48 C 0.98695 0.72801 0.32994 0.0
C49 C 0.97613 0.74782 0.35046 0.0
C50 C 0.95824 0.75541 0.30836 0.0
C51 C 0.98414 0.76247 0.41022 0.0
C52 C 0.96862 0.77304 0.45526 0.0
C53 C 1.0064 0.76917 0.41427 0.0
C54 C 0.01261 0.78717 0.45806 0.0
C55 C 0.99667 0.79901 0.49845 0.0
C56 C 0.99085 0.69611 0.2409 0.0
C57 C 0.98422 0.67502 0.26444 0.0
C58 C 1.00391 0.69792 0.17828 0.0
C59 C 1.00918 0.67915 0.13747 0.0
C60 C 1.00142 0.65806 0.15814 0.0
C61 C 0.98955 0.65616 0.2237 0.0
C62 C 0.97471 0.79111 0.49805 0.0
H63 H 0.8949 0.79343 0.1992 0.0
H64 H 0.91137 0.76419 0.27329 0.0
H65 H 0.9582 0.75036 0.10276 0.0
H66 H 0.94275 0.7798 0.03055 0.0
H67 H 0.95664 0.71565 0.17888 0.0
H68 H 0.95085 0.77134 0.3205 0.0
H69 H 1.00114 0.72213 0.36037 0.0
H70 H 0.95134 0.7682 0.45391 0.0
H71 H 0.01877 0.76146 0.38015 0.0
H72 H 0.02981 0.79226 0.45812 0.0
H73 H 0.97372 0.67328 0.3117 0.0
H74 H 1.00871 0.71408 0.15804 0.0
H75 H 0.96175 0.79964 0.52728 0.0
H76 H 0.98357 0.6402 0.24203 0.0
H77 H 0.01807 0.68146 0.08706 0.0
C78 C 0.75649 0.07799 0.05479 0.0
C79 C 0.7402 0.0928 0.07978 0.0
C80 C 0.76874 0.06526 0.10385 0.0
C81 C 0.76525 0.06748 0.17879 0.0
C82 C 0.75138 0.08451 0.20354 0.0
C83 C 0.73885 0.09692 0.15468 0.0
C84 C 0.77336 0.05029 0.23006 0.0
C85 C 0.79425 0.04067 0.222 0.0
C86 C 0.80096 0.02293 0.26625 0.0
C87 C 0.78646 0.0148 0.32044 0.0
C88 C 0.76557 0.02495 0.33083 0.0
C89 C 0.75922 0.04226 0.28425 0.0
C90 C 0.74951 0.01824 0.38854 0.0
C91 C 0.74247 0.99622 0.39711 0.0
C92 C 0.73842 0.03483 0.4276 0.0
C93 C 0.71963 0.02998 0.46872 0.0
C94 C 0.71152 1.00818 0.47423 0.0
C95 C 0.82318 0.01343 0.25187 0.0
C96 C 0.82521 0.99338 0.21406 0.0
C97 C 0.84184 0.02718 0.25825 0.0
C98 C 0.86156 0.022 0.22237 0.0
C99 C 0.86306 1.00295 0.17905 0.0
C100 C 0.84504 0.98813 0.17813 0.0
C101 C 0.72374 0.99122 0.43978 0.0
H102 H 0.75847 0.07488 0.99739 0.0
H103 H 0.77951 0.05247 0.08282 0.0
H104 H 0.74891 0.08714 0.26103 0.0
H105 H 0.72663 0.10818 0.17651 0.0
H106 H 0.80532 0.04678 0.18019 0.0
H107 H 0.74268 0.04909 0.28888 0.0
H108 H 0.79157 1.0012 0.35494 0.0
H109 H 0.75063 0.98305 0.36774 0.0
H110 H 0.74352 0.05198 0.42281 0.0
H111 H 0.71087 0.04375 0.49269 0.0
H112 H 0.81092 0.98274 0.2071 0.0
H113 H 0.84061 0.04286 0.28637 0.0
H114 H 0.71854 0.97413 0.44385 0.0
H115 H 0.84564 0.97337 0.14502 0.0
H116 H 0.87524 0.03359 0.22506 0.0
C117 C 0.48988 0.72415 0.50317 0.0
C118 C 0.50895 0.71072 0.50346 0.0
C119 C 0.48863 0.74288 0.45844 0.0
C120 C 0.50647 0.74878 0.41352 0.0
C121 C 0.52618 0.73652 0.41815 0.0
C122 C 0.52745 0.71773 0.46287 0.0
C123 C 0.50207 0.7623 0.34796 0.0
C124 C 0.50873 0.7846 0.33994 0.0
C125 C 0.50401 0.79597 0.27464 0.0
C126 C 0.49313 0.78492 0.21809 0.0
C127 C 0.48709 0.76272 0.22522 0.0
C128 C 0.4913 0.75168 0.29053 0.0
C129 C 0.47782 0.75042 0.16314 0.0
C130 C 0.45992 0.75874 0.12253 0.0
C131 C 0.48684 0.72979 0.14526 0.0
C132 C 0.47773 0.71729 0.08974 0.0
C133 C 0.45939 0.72512 0.05018 0.0
C134 C 0.51062 0.81916 0.26069 0.0
C135 C 0.4944 0.83577 0.26363 0.0
C136 C 0.53047 0.82342 0.22358 0.0
C137 C 0.53332 0.84327 0.18515 0.0
C138 C 0.51625 0.85913 0.18264 0.0
C139 C 0.49723 0.8556 0.22531 0.0
C140 C 0.45064 0.74607 0.06668 0.0
H141 H 0.47545 0.71951 0.53458 0.0
H142 H 0.47308 0.75177 0.45465 0.0
H143 H 0.53993 0.74033 0.38249 0.0
H144 H 0.54235 0.70776 0.46118 0.0
H145 H 0.51736 0.79293 0.38353 0.0
H146 H 0.48644 0.73447 0.29644 0.0
H147 H 0.49008 0.79347 0.16727 0.0
H148 H 0.45273 0.77467 0.13544 0.0
H149 H 0.50082 0.72314 0.17504 0.0
H150 H 0.4846 0.70102 0.0798 0.0
H151 H 0.47876 0.83266 0.29057 0.0
H152 H 0.54294 0.81061 0.21894 0.0
H153 H 0.43649 0.75248 0.03724 0.0
H154 H 0.48391 0.86761 0.2255 0.0
H155 H 0.54811 0.84533 0.15259 0.0
C156 C 0.2573 0.45092 0.3657 0.0
C157 C 0.24155 0.43387 0.35877 0.0
C158 C 0.2718 0.4557 0.30909 0.0
C159 C 0.27076 0.44364 0.24431 0.0
C160 C 0.25709 0.42488 0.24079 0.0
C161 C 0.24282 0.41982 0.29812 0.0
C162 C 0.28082 0.45311 0.17805 0.0
C163 C 0.30222 0.46177 0.18004 0.0
C164 C 0.31028 0.47498 0.12341 0.0
C165 C 0.2966 0.47943 0.06274 0.0
C166 C 0.27512 0.46997 0.0587 0.0
C167 C 0.2676 0.45685 0.11685 0.0
C168 C 0.2592 0.47453 0.99823 0.0
C169 C 0.25425 0.49626 0.97614 0.0
C170 C 0.24612 0.45717 0.97085 0.0
C171 C 0.22761 0.46145 0.92737 0.0
C172 C 0.22165 0.48327 0.90883 0.0
C173 C 0.33254 0.48476 0.13438 0.0
C174 C 0.33441 0.50413 0.17582 0.0
C175 C 0.35126 0.47121 0.12638 0.0
C176 C 0.37088 0.4759 0.16408 0.0
C177 C 0.37211 0.49412 0.21139 0.0
C178 C 0.35398 0.50881 0.21381 0.0
C179 C 0.23572 0.50058 0.9319 0.0
H180 H 0.25691 0.46222 0.41112 0.0
H181 H 0.28218 0.47028 0.31333 0.0
H182 H 0.25634 0.41506 0.19179 0.0
H183 H 0.23139 0.40613 0.292 0.0
H184 H 0.3124 0.45902 0.22773 0.0
H185 H 0.25069 0.45079 0.1168 0.0
H186 H 0.30257 0.49006 0.01958 0.0
H187 H 0.2639 0.51004 0.99646 0.0
H188 H 0.24952 0.4402 0.98643 0.0
H189 H 0.21731 0.44758 0.91188 0.0
H190 H 0.32001 0.51449 0.18464 0.0
H191 H 0.35009 0.4559 0.09616 0.0
H192 H 0.23207 0.51759 0.91766 0.0
H193 H 0.35415 0.5229 0.24993 0.0
H194 H 0.3846 0.46444 0.1597 0.0
C195 C 0.94495 0.24285 0.33999 0.0
C196 C 0.95593 0.24661 0.40611 0.0
C197 C 0.95202 0.25344 0.2769 0.0
C198 C 0.97023 0.26788 0.2787 0.0
C199 C 0.97926 0.27381 0.34621 0.0
C200 C 0.97203 0.26338 0.40949 0.0
C201 C 0.98172 0.27421 0.21068 0.0
C202 C 0.99108 0.29516 0.20295 0.0
C203 C 1.00467 0.30029 0.14377 0.0
C204 C 1.00836 0.28425 0.0892 0.0
C205 C 0.99819 0.26312 0.09474 0.0
C206 C 0.98536 0.25838 0.15663 0.0
C207 C 1.00098 0.24507 0.03966 0.0
C208 C 0.98297 0.23103 0.02424 0.0
C209 C 0.0217 0.23976 0.00948 0.0
C210 C 0.0245 0.22018 0.969 0.0
C211 C 1.00674 0.20521 0.95845 0.0
C212 C 0.01531 0.32238 0.14579 0.0
C213 C 1.00262 0.34099 0.12677 0.0
C214 C 0.03358 0.32528 0.19199 0.0
C215 C 0.03753 0.34577 0.22506 0.0
C216 C 0.02328 0.36385 0.21251 0.0
C217 C 1.00665 0.36154 0.15938 0.0
C218 C 0.98584 0.21137 0.98578 0.0
H219 H 0.93247 0.23005 0.33518 0.0
H220 H 0.94431 0.24905 0.22588 0.0
H221 H 0.99323 0.28501 0.34969 0.0
H222 H 0.9805 0.26692 0.45992 0.0
H223 H 0.98833 0.3075 0.24463 0.0
H224 H 0.97894 0.2418 0.16453 0.0
H225 H 0.01884 0.28821 0.04334 0.0
H226 H 0.9666 0.23472 0.04509 0.0
H227 H 0.03596 0.25016 0.0199 0.0
H228 H 0.04078 0.21664 0.94748 0.0
H229 H 0.98815 0.33912 0.09256 0.0
H230 H 0.04324 0.31108 0.20913 0.0
H231 H 0.97161 0.2006 0.98083 0.0
H232 H 0.99566 0.3752 0.14691 0.0
H233 H 0.05043 0.34672 0.26571 0.0
C234 C 0.2905 0.09926 0.3142 0.0
C235 C 0.30694 0.11058 0.27477 0.0
C236 C 0.27105 0.09247 0.28002 0.0
C237 C 0.26782 0.09691 0.20604 0.0
C238 C 0.28226 0.1117 0.17089 0.0
C239 C 0.3017 0.11858 0.20521 0.0
C240 C 0.25408 0.08141 0.16308 0.0
C241 C 0.23331 0.07438 0.18778 0.0
C242 C 0.2229 0.05559 0.15802 0.0
C243 C 0.2339 0.04356 0.10291 0.0
C244 C 0.25449 0.05109 0.07609 0.0
C245 C 0.26408 0.07011 0.10568 0.0
C246 C 0.26816 0.03871 0.02314 0.0
C247 C 0.28254 0.02213 0.04845 0.0
C248 C 0.27209 0.04807 0.9546 0.0
C249 C 0.2909 0.04219 0.91457 0.0
C250 C 0.30644 0.02702 0.94263 0.0
C251 C 0.2015 0.04823 0.19048 0.0
C252 C 0.19869 0.02652 0.21659 0.0
C253 C 0.18496 0.06398 0.20536 0.0
C254 C 0.16694 0.05868 0.24963 0.0
C255 C 0.16488 0.03744 0.28012 0.0
C256 C 0.18053 0.02116 0.26097 0.0
C257 C 0.30146 0.01631 0.00863 0.0
H258 H 0.29383 0.09294 0.36808 0.0
H259 H 0.26016 0.08123 0.30884 0.0
H260 H 0.27985 0.11579 0.11423 0.0
H261 H 0.31381 0.12787 0.17422 0.0
H262 H 0.22581 0.08286 0.2333 0.0
H263 H 0.28053 0.07494 0.08786 0.0
H264 H 0.22661 0.02857 0.0814 0.0
H265 H 0.28026 0.01515 0.10208 0.0
H266 H 0.26153 0.06125 0.9346 0.0
H267 H 0.29388 0.05045 0.86333 0.0
H268 H 0.21123 0.01408 0.20659 0.0
H269 H 0.18651 0.08079 0.18531 0.0
H270 H 0.31303 1.00469 0.03245 0.0
H271 H 0.17944 1.00465 0.28366 0.0
H272 H 0.15495 0.07146 0.26199 0.0
C273 C 0.51092 0.29253 0.97914 0.0
C274 C 0.52573 0.29999 0.9253 0.0
C275 C 0.51591 0.27374 0.02116 0.0
C276 C 0.53568 0.262 0.00973 0.0
C277 C 0.54945 0.26833 0.95192 0.0
C278 C 0.54452 0.28704 0.91008 0.0
C279 C 0.54513 0.24818 0.06874 0.0
C280 C 0.53718 0.22691 0.08731 0.0
C281 C 0.547 0.21507 0.14541 0.0
C282 C 0.56397 0.22523 0.18587 0.0
C283 C 0.57154 0.24649 0.16876 0.0
C284 C 0.56228 0.25762 0.10949 0.0
C285 C 0.5871 0.25836 0.21725 0.0
C286 C 0.5834 0.25843 0.29243 0.0
C287 C 0.60346 0.27238 0.18822 0.0
C288 C 0.61402 0.28794 0.23212 0.0
C289 C 0.60836 0.28971 0.30567 0.0
C290 C 0.53964 0.19249 0.16801 0.0
C291 C 0.51718 0.1875 0.17969 0.0
C292 C 0.55562 0.17672 0.18841 0.0
C293 C 0.54959 0.15749 0.22549 0.0
C294 C 0.52725 0.15303 0.24209 0.0
C295 C 0.51104 0.16794 0.21608 0.0
C296 C 0.59399 0.27396 0.33629 0.0
H297 H 0.49636 0.30215 0.99256 0.0
H298 H 0.50529 0.26955 0.06649 0.0
H299 H 0.56498 0.25978 0.94274 0.0
H300 H 0.55608 0.29206 0.86826 0.0
H301 H 0.52381 0.21958 0.05639 0.0
H302 H 0.56761 0.27435 0.09702 0.0
H303 H 0.571 0.21677 0.23239 0.0
H304 H 0.57091 0.24785 0.31651 0.0
H305 H 0.60694 0.27238 0.13063 0.0
H306 H 0.625 0.29989 0.207 0.0
H307 H 0.50445 0.19927 0.16454 0.0
H308 H 0.57307 0.17987 0.17925 0.0
H309 H 0.58951 0.27487 0.39306 0.0
H310 H 0.49362 0.16494 0.22588 0.0
H311 H 0.56276 0.14685 0.24473 0.0
Sm312 Sm 0.03135 0.99368 0.807 0.0
Sm313 Sm 1.00226 1.00782 0.65969 0.0
C314 C 0.0389 0.97577 0.93403 0.0
C315 C 0.02654 0.95715 0.96704 0.0
C316 C 1.00795 0.96134 0.01074 0.0
C317 C 0.99276 0.94452 0.02584 0.0
C318 C 0.99617 0.92311 0.99883 0.0
C319 C 0.01567 0.91845 0.9604 0.0
C320 C 0.03073 0.93529 0.94469 0.0
C321 C 0.05856 1.00569 0.69242 0.0
C322 C 0.01403 0.95571 0.68635 0.0
C323 C 0.98959 0.02515 0.53544 0.0
C324 C 0.98651 0.04863 0.51807 0.0
C325 C 0.99952 0.06455 0.55356 0.0
C326 C 0.99335 0.08675 0.55244 0.0
C327 C 0.97428 0.0934 0.51498 0.0
C328 C 0.96202 0.07772 0.47567 0.0
C329 C 0.96801 0.05538 0.47778 0.0
C330 C 0.97561 0.99661 0.7775 0.0
C331 C 0.01766 0.04605 0.78132 0.0
O332 O 0.02787 0.99438 0.92669 0.0
O333 O 0.05071 0.97087 0.87656 0.0
O334 O 0.0377 1.00518 0.69455 0.0
O335 O 0.06613 0.99997 0.75585 0.0
O336 O 0.02062 0.96045 0.75342 0.0
O337 O 1.00844 0.97103 0.6381 0.0
O338 O 1.00996 0.01861 0.54728 0.0
O339 O 0.97559 0.0176 0.58358 0.0
O340 O 0.99636 0.99679 0.77294 0.0
O341 O 0.96773 1.00221 0.71461 0.0
O342 O 1.01027 0.04136 0.71514 0.0
O343 O 0.02493 0.03081 0.82776 0.0
H344 H 1.00455 0.97789 0.02993 0.0
H345 H 0.97811 0.94835 0.05722 0.0
H346 H 0.01873 0.90202 0.93927 0.0
H347 H 0.04496 0.93137 0.91138 0.0
H348 H 0.01387 0.05971 0.58501 0.0
H349 H 1.00325 0.09869 0.58185 0.0
H350 H 0.9473 0.08261 0.44608 0.0
H351 H 0.95761 0.04328 0.45101 0.0
Sm352 Sm 0.51763 0.01928 0.78254 0.0
Sm353 Sm 0.50146 0.99159 0.64506 0.0
C354 C 0.53379 0.03302 0.90672 0.0
C355 C 0.55213 0.04833 0.92043 0.0
C356 C 0.56703 0.05323 0.86435 0.0
C357 C 0.58505 0.06711 0.87678 0.0
C358 C 0.58841 0.07656 0.94545 0.0
C359 C 0.57283 0.07237 1.0007 0.0
C360 C 0.55482 0.05828 0.98825 0.0
C361 C 0.51432 0.0467 0.66123 0.0
C362 C 0.55416 1.0007 0.66447 0.0
C363 C 0.48145 0.97893 0.52535 0.0
C364 C 0.46224 0.98876 0.48775 0.0
C365 C 0.46523 0.99872 0.41961 0.0
C366 C 0.44905 0.01284 0.39135 0.0
C367 C 0.42966 0.01713 0.43078 0.0
C368 C 0.4258 1.0057 0.49579 0.0
C369 C 0.44197 0.99163 0.52416 0.0
C370 C 0.51404 0.96731 0.76502 0.0
C371 C 0.46449 0.01299 0.75767 0.0
O372 O 0.53952 0.01409 0.87726 0.0
O373 O 0.51629 0.042 0.87655 0.0
O374 O 0.50998 0.02649 0.66661 0.0
O375 O 0.52099 0.05354 0.72402 0.0
O376 O 0.5502 1.0055 0.73332 0.0
O377 O 0.53809 0.99749 0.61687 0.0
O378 O 0.49932 0.99124 0.52517 0.0
O379 O 0.47766 0.96959 0.58839 0.0
O380 O 0.50333 0.98522 0.76548 0.0
O381 O 0.51725 0.9607 0.69874 0.0
O382 O 0.46896 1.00683 0.6903 0.0
O383 O 0.48035 0.01623 0.80601 0.0
H384 H 0.565 0.04588 0.81124 0.0
H385 H 0.59686 0.06962 0.83335 0.0
H386 H 0.5748 0.07961 0.05393 0.0
H387 H 0.54322 0.05491 0.03171 0.0
H388 H 0.48068 0.99674 0.39044 0.0
H389 H 0.45213 0.02126 0.34042 0.0
H390 H 0.41087 1.00866 0.52677 0.0
H391 H 0.43907 0.98407 0.57656 0.0
Sm392 Sm 0.49482 0.50958 0.77993 0.0
Sm393 Sm 0.52724 0.49955 0.63762 0.0
C394 C 0.4789 0.5211 0.90667 0.0
C395 C 0.46304 0.53838 0.92744 0.0
C396 C 0.46881 0.55304 0.98278 0.0
C397 C 0.45688 0.57254 0.99244 0.0
C398 C 0.43869 0.57767 0.94739 0.0
C399 C 0.43192 0.56205 0.89555 0.0
C400 C 0.44411 0.54265 0.88521 0.0
C401 C 0.47102 0.50605 0.65084 0.0
C402 C 0.51065 0.5508 0.67347 0.0
C403 C 0.54283 0.48936 0.50883 0.0
C404 C 0.56053 0.47486 0.48215 0.0
C405 C 0.55658 0.46181 0.42105 0.0
C406 C 0.57176 0.4456 0.40075 0.0
C407 C 0.59133 0.44221 0.44101 0.0
C408 C 0.59577 0.45617 0.50012 0.0
C409 C 0.58042 0.47227 0.52084 0.0
C410 C 0.55116 0.50395 0.76587 0.0
C411 C 0.51175 0.45842 0.74594 0.0
O412 O 0.49782 0.52864 0.88155 0.0
O413 O 0.47101 0.50429 0.86974 0.0
O414 O 0.4915 0.50439 0.66113 0.0
O415 O 0.46175 0.5096 0.71328 0.0
O416 O 0.50328 0.5447 0.73836 0.0
O417 O 0.51798 0.53646 0.6246 0.0
O418 O 0.52586 0.47913 0.53822 0.0
O419 O 0.54909 0.50708 0.54448 0.0
O420 O 0.53061 0.50499 0.75605 0.0
O421 O 0.56045 0.50051 0.70333 0.0
O422 O 0.51918 0.46438 0.68087 0.0
O423 O 0.50396 0.47278 0.79397 0.0
H424 H 0.48349 0.55016 0.01531 0.0
H425 H 0.46299 0.58424 0.03201 0.0
H426 H 0.41784 0.56526 0.8607 0.0
H427 H 0.43939 0.53162 0.84168 0.0
H428 H 0.54124 0.46347 0.39096 0.0
H429 H 0.56747 0.4349 0.3559 0.0
H430 H 0.61074 0.45417 0.53184 0.0
H431 H 0.58375 0.48213 0.56856 0.0
Sm432 Sm 0.01109 0.49503 0.75758 0.0
Sm433 Sm 0.02447 0.52565 0.62568 0.0
C434 C 0.99284 0.48156 0.87872 0.0
C435 C 0.97174 0.46979 0.88863 0.0
C436 C 0.9556 0.47917 0.9334 0.0
C437 C 0.9337 0.47201 0.9294 0.0
C438 C 0.9275 0.455 0.88129 0.0
C439 C 0.94403 0.44462 0.83994 0.0
C440 C 0.96593 0.45205 0.84316 0.0
C441 C 0.0164 0.46931 0.63417 0.0
C442 C 0.97273 0.51176 0.6395 0.0
C443 C 0.0459 0.54172 0.51387 0.0
C444 C 0.06705 0.53276 0.48657 0.0
C445 C 0.06793 0.51088 0.46084 0.0
C446 C 0.08792 0.49946 0.45944 0.0
C447 C 0.1075 0.50979 0.48235 0.0
C448 C 0.10712 0.53237 0.50009 0.0
C449 C 0.08698 0.54377 0.50253 0.0
C450 C 0.01134 0.5474 0.74936 0.0
C451 C 0.06344 0.50266 0.73111 0.0
O452 O 0.99059 0.50183 0.85417 0.0
O453 O 1.00896 0.47058 0.84735 0.0
O454 O 0.0186 0.48988 0.64048 0.0
O455 O 0.01129 0.46112 0.69706 0.0
O456 O 0.97741 0.50506 0.70625 0.0
O457 O 0.98832 0.51848 0.59404 0.0
O458 O 0.02849 0.52891 0.50654 0.0
O459 O 0.04709 0.55076 0.5782 0.0
O460 O 0.02333 0.53027 0.74702 0.0
O461 O 1.00658 0.55417 0.68417 0.0
O462 O 0.05797 0.51087 0.66671 0.0
O463 O 0.04829 0.49746 0.78001 0.0
H464 H 0.95964 0.49313 0.96779 0.0
H465 H 0.92145 0.48078 0.9611 0.0
H466 H 0.93993 0.43128 0.80323 0.0
H467 H 0.97802 0.44468 0.80721 0.0
H468 H 0.05301 0.50197 0.44673 0.0
H469 H 0.08794 0.48225 0.44296 0.0
H470 H 0.12212 0.54083 0.51647 0.0
H471 H 0.08681 0.56064 0.52227 0.0
C472 C 0.14405 0.04833 0.39206 0.0
C473 C 0.14758 0.033 0.33618 0.0
C474 C 0.12861 0.04425 0.4475 0.0
C475 C 0.11615 0.02439 0.44711 0.0
C476 C 0.11927 1.00902 0.39004 0.0
C477 C 0.13507 0.01341 0.33562 0.0
C478 C 0.12616 0.06093 0.50778 0.0
C479 C 0.10613 0.98779 0.38708 0.0
C480 C 0.09494 1.00341 0.62914 0.0
C481 C 0.07283 0.01054 0.62881 0.0
C482 C 0.10907 1.00761 0.57018 0.0
C483 C 0.10091 0.01918 0.50885 0.0
C484 C 0.07857 0.02646 0.50825 0.0
C485 C 0.0649 0.02227 0.56867 0.0
C486 C 0.13283 0.99986 0.57394 0.0
C487 C 0.06917 0.03888 0.44419 0.0
H488 H 0.15388 0.06335 0.39365 0.0
H489 H 0.13759 1.00156 0.29241 0.0
H490 H 0.10858 0.06599 0.51325 0.0
H491 H 0.1312 0.05331 0.56002 0.0
H492 H 0.13637 0.07598 0.49858 0.0
H493 H 0.10948 0.97821 0.33695 0.0
H494 H 0.11027 0.97727 0.43458 0.0
H495 H 0.08814 0.99145 0.3899 0.0
H496 H 0.10125 0.99445 0.67576 0.0
H497 H 0.04823 0.02867 0.56962 0.0
H498 H 0.14418 0.01425 0.56924 0.0
H499 H 0.13646 0.98867 0.52791 0.0
H500 H 0.13656 0.99097 0.62529 0.0
H501 H 0.07801 0.05485 0.43736 0.0
H502 H 0.05119 0.0423 0.45041 0.0
H503 H 0.07174 0.02922 0.39383 0.0
C504 C 0.53479 0.11501 0.29457 0.0
C505 C 0.52149 0.13414 0.29192 0.0
C506 C 0.53234 0.09917 0.35001 0.0
C507 C 0.5156 0.10194 0.40289 0.0
C508 C 0.5008 0.12004 0.39678 0.0
C509 C 0.50412 0.13607 0.34231 0.0
C510 C 0.54864 0.08026 0.35459 0.0
C511 C 0.48213 0.12314 0.45022 0.0
C512 C 0.50313 0.05372 0.53161 0.0
C513 C 0.51449 0.0603 0.59424 0.0
C514 C 0.50308 0.0672 0.469 0.0
C515 C 0.51509 0.08738 0.46862 0.0
C516 C 0.52682 0.09382 0.53161 0.0
C517 C 0.52616 0.08036 0.59368 0.0
C518 C 0.49013 0.05993 0.40343 0.0
C519 C 0.54021 0.11495 0.53343 0.0
H520 H 0.54774 0.11271 0.25472 0.0
H521 H 0.49368 0.15064 0.34181 0.0
H522 H 0.55926 0.08238 0.40322 0.0
H523 H 0.53982 0.06427 0.36073 0.0
H524 H 0.5595 0.07934 0.3061 0.0
H525 H 0.47015 0.13594 0.43191 0.0
H526 H 0.4731 0.10734 0.4587 0.0
H527 H 0.48901 0.12827 0.50335 0.0
H528 H 0.49399 0.03827 0.53196 0.0
H529 H 0.53507 0.08546 0.64186 0.0
H530 H 0.50166 0.05553 0.35902 0.0
H531 H 0.47943 0.07359 0.38346 0.0
H532 H 0.47963 0.04538 0.41554 0.0
H533 H 0.5526 0.11492 0.48901 0.0
H534 H 0.54904 0.11719 0.58573 0.0
H535 H 0.52919 0.12939 0.52459 0.0
C536 C 0.39872 0.47723 0.30083 0.0
C537 C 0.39069 0.49616 0.26492 0.0
C538 C 0.41396 0.47887 0.35825 0.0
C539 C 0.42146 0.49996 0.38098 0.0
C540 C 0.41429 0.51906 0.34281 0.0
C541 C 0.39899 0.51695 0.28548 0.0
C542 C 0.42104 0.45804 0.39733 0.0
C543 C 0.42195 0.54186 0.36478 0.0
C544 C 0.4357 0.50556 0.58112 0.0
C545 C 0.45891 0.50461 0.58094 0.0
C546 C 0.42347 0.50431 0.51652 0.0
C547 C 0.43466 0.50209 0.44945 0.0
C548 C 0.45816 0.50131 0.44875 0.0
C549 C 0.47003 0.5026 0.51458 0.0
C550 C 0.39848 0.50517 0.52024 0.0
C551 C 0.47075 0.49903 0.37857 0.0
H552 H 0.39224 0.46109 0.2866 0.0
H553 H 0.39315 0.53167 0.25775 0.0
H554 H 0.43931 0.45763 0.40364 0.0
H555 H 0.41374 0.45782 0.4525 0.0
H556 H 0.41568 0.44284 0.36847 0.0
H557 H 0.41695 0.55474 0.32492 0.0
H558 H 0.41473 0.54614 0.41822 0.0
H559 H 0.44024 0.54222 0.37077 0.0
H560 H 0.42699 0.50719 0.6322 0.0
H561 H 0.48796 0.50212 0.51408 0.0
H562 H 0.39136 0.48969 0.49781 0.0
H563 H 0.39219 0.51909 0.48673 0.0
H564 H 0.39232 0.50727 0.57652 0.0
H565 H 0.46587 0.48347 0.35099 0.0
H566 H 0.48898 0.49888 0.38703 0.0
H567 H 0.46648 0.51289 0.34158 0.0
C568 C 0.04363 0.39176 0.29037 0.0
C569 C 0.02364 0.38348 0.26216 0.0
C570 C 0.04378 0.40784 0.34563 0.0
C571 C 0.02346 0.41589 0.37363 0.0
C572 C 1.0033 0.40853 0.34266 0.0
C573 C 1.00363 0.39244 0.28774 0.0
C574 C 0.06566 0.41535 0.3766 0.0
C575 C 0.98124 0.41668 0.37043 0.0
C576 C 0.01983 0.43295 0.57172 0.0
C577 C 0.01928 0.4561 0.56717 0.0
C578 C 0.02176 0.41981 0.50936 0.0
C579 C 0.02304 0.43002 0.44024 0.0
C580 C 0.02274 0.45346 0.43533 0.0
C581 C 0.02088 0.46623 0.49894 0.0
C582 C 0.02199 0.39492 0.51748 0.0
C583 C 0.02409 0.46503 0.36291 0.0
H584 H 0.05921 0.38524 0.27059 0.0
H585 H 0.98802 0.38604 0.26768 0.0
H586 H 0.06624 0.43368 0.37997 0.0
H587 H 0.06751 0.40881 0.43252 0.0
H588 H 0.07994 0.40956 0.34378 0.0
H589 H 0.96722 0.4112 0.33583 0.0
H590 H 0.9785 0.41033 0.4262 0.0
H591 H 0.9811 0.43503 0.37319 0.0
H592 H 0.01861 0.42502 0.62435 0.0
H593 H 0.02018 0.4841 0.49523 0.0
H594 H 0.03699 0.38796 0.49137 0.0
H595 H 1.00738 0.38772 0.4897 0.0
H596 H 0.02172 0.38959 0.57514 0.0
H597 H 0.04029 0.46139 0.33718 0.0
H598 H 0.02229 0.48326 0.36785 0.0
H599 H 0.011 0.45876 0.32606 0.0
C600 C 0.89266 0.97973 0.11923 0.0
C601 C 0.88206 1.00021 0.12808 0.0
C602 C 0.9097 0.97704 0.06768 0.0
C603 C 0.91598 0.99511 0.02296 0.0
C604 C 0.90549 0.01587 0.03253 0.0
C605 C 0.88881 0.01817 0.08501 0.0
C606 C 0.92075 0.95481 0.06031 0.0
C607 C 0.91139 0.03555 0.98567 0.0
C608 C 0.96951 0.99777 0.91251 0.0
C609 C 0.96173 0.99294 0.84279 0.0
C610 C 0.95504 0.99764 0.97261 0.0
C611 C 0.93236 0.99224 0.9627 0.0
C612 C 0.92476 0.98631 0.89274 0.0
C613 C 0.93948 0.98688 0.83381 0.0
C614 C 0.96382 1.0041 0.04615 0.0
C615 C 0.90076 0.98057 0.87924 0.0
H616 H 0.88761 0.96582 0.15257 0.0
H617 H 0.88047 0.03396 0.09061 0.0
H618 H 0.91876 0.94865 1.00417 0.0
H619 H 0.93876 0.95654 0.07063 0.0
H620 H 0.91389 0.94231 0.09845 0.0
H621 H 0.90225 0.05074 1.00161 0.0
H622 H 0.92942 0.03897 0.98908 0.0
H623 H 0.90752 0.03185 0.92817 0.0
H624 H 0.98654 1.00288 0.91945 0.0
H625 H 0.93338 0.98316 0.77992 0.0
H626 H 0.96332 0.98951 0.08275 0.0
H627 H 0.95329 0.01711 0.07081 0.0
H628 H 0.9811 0.01037 0.04346 0.0
H629 H 0.89525 0.96742 0.91723 0.0
H630 H 0.89783 0.97484 0.82289 0.0
H631 H 0.89028 0.99534 0.88922 0.0
C632 C 0.53656 0.8895 0.1155 0.0
C633 C 0.51697 0.87759 0.12864 0.0
C634 C 0.53768 0.9055 0.05991 0.0
C635 C 0.51887 0.90953 0.0158 0.0
C636 C 0.49896 0.89788 0.02982 0.0
C637 C 0.49825 0.88214 0.08593 0.0
C638 C 0.55913 0.91777 0.04736 0.0
C639 C 0.47854 0.90148 0.9839 0.0
C640 C 0.51223 0.9613 0.89928 0.0
C641 C 0.51746 0.95327 0.83011 0.0
C642 C 0.51357 0.94754 0.96078 0.0
C643 C 0.52006 0.92514 0.95287 0.0
C644 C 0.52608 0.91719 0.88339 0.0
C645 C 0.52481 0.93138 0.82296 0.0
C646 C 0.50725 0.95678 0.03382 0.0
C647 C 0.53299 0.89342 0.87234 0.0
H648 H 0.55107 0.88618 0.14841 0.0
H649 H 0.48317 0.87276 0.09451 0.0
H650 H 0.56593 0.9134 0.99341 0.0
H651 H 0.55615 0.93589 0.04728 0.0
H652 H 0.57178 0.91383 0.08921 0.0
H653 H 0.46414 0.89168 1.00341 0.0
H654 H 0.47392 0.91924 0.98372 0.0
H655 H 0.48206 0.89674 0.927 0.0
H656 H 0.50664 0.97825 0.90518 0.0
H657 H 0.52893 0.9251 0.76968 0.0
H658 H 0.52024 0.95292 0.07449 0.0
H659 H 0.49167 0.94892 0.05267 0.0
H660 H 0.50476 0.975 0.03211 0.0
H661 H 0.54672 0.88907 0.90973 0.0
H662 H 0.53843 0.89017 0.81586 0.0
H663 H 0.5189 0.88229 0.88514 0.0
C664 C 0.62896 0.48779 0.109 0.0
C665 C 0.63504 0.50763 0.14345 0.0
C666 C 0.61254 0.48734 0.05487 0.0
C667 C 0.60205 0.50725 0.03321 0.0
C668 C 0.60706 0.52709 0.0706 0.0
C669 C 0.6233 0.52701 0.1255 0.0
C670 C 0.60752 0.46571 0.01747 0.0
C671 C 0.59633 0.54873 0.04943 0.0
C672 C 0.5863 0.50972 0.83364 0.0
C673 C 0.56336 0.50616 0.8353 0.0
C674 C 0.59882 0.51074 0.89767 0.0
C675 C 0.58827 0.50776 0.96559 0.0
C676 C 0.56499 0.50444 0.96776 0.0
C677 C 0.55276 0.50381 0.9025 0.0
C678 C 0.6235 0.51462 0.8924 0.0
C679 C 0.55311 0.50089 0.03874 0.0
H680 H 0.63791 0.47268 0.12105 0.0
H681 H 0.62735 0.54238 0.15255 0.0
H682 H 0.58937 0.46336 0.01184 0.0
H683 H 0.61469 0.46597 0.96211 0.0
H684 H 0.61451 0.4513 0.04721 0.0
H685 H 0.59984 0.56206 0.08915 0.0
H686 H 0.60266 0.55403 0.99566 0.0
H687 H 0.57813 0.54673 0.04445 0.0
H688 H 0.59457 0.51161 0.78184 0.0
H689 H 0.53506 0.50084 0.90396 0.0
H690 H 0.63254 0.49996 0.91339 0.0
H691 H 0.62833 0.52898 0.92629 0.0
H692 H 0.62898 0.51779 0.83584 0.0
H693 H 0.55866 0.48507 0.06344 0.0
H694 H 0.53483 0.50031 0.03186 0.0
H695 H 0.55729 0.51428 0.07742 0.0
C696 C 0.02304 0.63625 0.06541 0.0
C697 C 1.00388 0.63878 0.10782 0.0
C698 C 0.02438 0.61993 0.01131 0.0
C699 C 1.00621 0.60553 0.9994 0.0
C700 C 0.98726 0.60724 0.04427 0.0
C701 C 0.98627 0.62386 0.09751 0.0
C702 C 0.04493 0.61871 0.96486 0.0
C703 C 0.96758 0.59213 0.03398 0.0
C704 C 0.99939 0.58264 0.80842 0.0
C705 C 1.00863 0.56142 0.81477 0.0
C706 C 0.99829 0.59697 0.8682 0.0
C707 C 1.0064 0.58989 0.93653 0.0
C708 C 0.01513 0.56821 0.9438 0.0
C709 C 0.01625 0.55428 0.88277 0.0
C710 C 0.9889 0.61993 0.85774 0.0
C711 C 0.02367 0.55988 0.01575 0.0
H712 H 0.03691 0.64736 0.07353 0.0
H713 H 0.97124 0.62572 0.12896 0.0
H714 H 0.05159 0.6016 0.96471 0.0
H715 H 0.04068 0.62302 0.90803 0.0
H716 H 0.05813 0.63014 0.98375 0.0
H717 H 0.95515 0.59398 0.07794 0.0
H718 H 0.95943 0.59593 0.9815 0.0
H719 H 0.97302 0.57461 0.03204 0.0
H720 H 0.99345 0.58828 0.7561 0.0
H721 H 0.02337 0.53788 0.88808 0.0
H722 H 1.00178 0.63247 0.87017 0.0
H723 H 0.97495 0.62268 0.89575 0.0
H724 H 0.98288 0.62276 0.80157 0.0
H725 H 0.03815 0.5699 0.03282 0.0
H726 H 0.02872 0.54222 0.01348 0.0
H727 H 0.01075 0.56179 0.05804 0.0
C728 C 0.97469 0.2205 0.48997 0.0
C729 C 0.95478 0.22939 0.4634 0.0
C730 C 0.97534 0.19914 0.51915 0.0
C731 C 0.95561 0.18657 0.5219 0.0
C732 C 0.93504 0.19686 0.50741 0.0
C733 C 0.93484 0.21825 0.47765 0.0
C734 C 0.99753 0.18901 0.53735 0.0
C735 C 0.91354 0.18439 0.5154 0.0
C736 C 0.96415 0.12845 0.45303 0.0
C737 C 0.96723 0.11672 0.51749 0.0
C738 C 0.95947 0.15112 0.4542 0.0
C739 C 0.95728 0.16211 0.52172 0.0
C740 C 0.95911 0.14999 0.5871 0.0
C741 C 0.96446 0.12742 0.58421 0.0
C742 C 0.95801 0.16349 0.383 0.0
C743 C 0.95626 0.16067 0.66029 0.0
H744 H 0.99021 0.22902 0.48016 0.0
H745 H 0.91931 0.22537 0.45949 0.0
H746 H 0.99666 0.17997 0.58965 0.0
H747 H 1.00214 0.17691 0.49477 0.0
H748 H 0.01084 0.20168 0.54095 0.0
H749 H 0.89916 0.19583 0.5184 0.0
H750 H 0.9112 0.1734 0.46791 0.0
H751 H 0.91384 0.17383 0.56474 0.0
H752 H 0.96638 0.12008 0.40165 0.0
H753 H 0.96663 0.11818 0.6342 0.0
H754 H 0.97114 0.17634 0.38045 0.0
H755 H 0.9418 0.17203 0.37855 0.0
H756 H 0.95992 0.15239 0.33552 0.0
H757 H 0.97282 0.16367 0.68452 0.0
H758 H 0.94713 0.14937 0.69728 0.0
H759 H 0.94722 0.17663 0.65742 0.0
C760 C 0.34545 0.09914 0.24611 0.0
C761 C 0.33044 0.10777 0.29688 0.0
C762 C 0.36475 0.08828 0.26852 0.0
C763 C 0.36923 0.08621 0.34342 0.0
C764 C 0.35581 0.09751 0.39422 0.0
C765 C 0.33646 0.10815 0.37029 0.0
C766 C 0.37865 0.07656 0.2124 0.0
C767 C 0.36047 0.09627 0.47446 0.0
C768 C 0.39171 0.0303 0.40026 0.0
C769 C 0.41431 0.03475 0.40745 0.0
C770 C 0.37688 0.04705 0.38014 0.0
C771 C 0.38489 0.06886 0.36835 0.0
C772 C 0.4077 0.07352 0.37695 0.0
C773 C 0.4222 0.0563 0.39591 0.0
C774 C 0.35268 0.04132 0.37055 0.0
C775 C 0.41674 0.09661 0.36649 0.0
H776 H 0.34101 0.09862 0.18923 0.0
H777 H 0.32513 0.11513 0.40966 0.0
H778 H 0.39656 0.07837 0.22428 0.0
H779 H 0.37469 0.05862 0.21344 0.0
H780 H 0.37539 0.08292 0.15686 0.0
H781 H 0.3518 0.10962 0.50451 0.0
H782 H 0.35461 0.0801 0.49577 0.0
H783 H 0.3785 0.09743 0.48543 0.0
H784 H 0.38569 0.01361 0.40958 0.0
H785 H 0.43967 0.05977 0.40316 0.0
H786 H 0.34741 0.04511 0.31424 0.0
H787 H 0.34239 0.05152 0.40739 0.0
H788 H 0.34922 0.02358 0.3818 0.0
H789 H 0.41316 0.10253 0.31077 0.0
H790 H 0.43491 0.09745 0.37577 0.0
H791 H 0.40843 0.10816 0.40438 0.0
C792 C 0.6341 0.32052 0.34183 0.0
C793 C 0.61313 0.31055 0.34466 0.0
C794 C 0.63718 0.34237 0.36593 0.0
C795 C 0.61867 0.35459 0.39074 0.0
C796 C 0.59779 0.34407 0.39768 0.0
C797 C 0.59538 0.32214 0.37528 0.0
C798 C 0.65992 0.35259 0.36071 0.0
C799 C 0.57748 0.35645 0.42329 0.0
C800 C 0.61309 0.40932 0.48401 0.0
C801 C 0.60524 0.42241 0.42639 0.0
C802 C 0.62075 0.38773 0.47187 0.0
C803 C 0.61982 0.37891 0.40107 0.0
C804 C 0.61464 0.39295 0.34189 0.0
C805 C 0.60772 0.41468 0.35528 0.0
C806 C 0.62752 0.37364 0.53576 0.0
C807 C 0.61378 0.38432 0.26523 0.0
H808 H 0.64789 0.31153 0.31849 0.0
H809 H 0.57906 0.31462 0.37662 0.0
H810 H 0.66193 0.36043 0.30668 0.0
H811 H 0.66249 0.36549 0.4026 0.0
H812 H 0.67303 0.3398 0.36648 0.0
H813 H 0.56262 0.34564 0.42689 0.0
H814 H 0.58049 0.36375 0.47745 0.0
H815 H 0.57376 0.37025 0.38536 0.0
H816 H 0.61156 0.41513 0.53928 0.0
H817 H 0.60258 0.42504 0.31025 0.0
H818 H 0.64115 0.36221 0.52084 0.0
H819 H 0.61321 0.36347 0.55367 0.0
H820 H 0.63292 0.38399 0.58221 0.0
H821 H 0.62903 0.3749 0.25241 0.0
H822 H 0.61187 0.39786 0.22482 0.0
H823 H 0.59952 0.37284 0.25959 0.0
C824 C 0.22173 0.44271 0.47505 0.0
C825 C 0.22107 0.43477 0.40356 0.0
C826 C 0.20278 0.45187 0.50726 0.0
C827 C 0.18285 0.4528 0.46706 0.0
C828 C 0.18131 0.4417 0.39987 0.0
C829 C 0.20046 0.43283 0.36888 0.0
C830 C 0.2049 0.46271 0.58046 0.0
C831 C 0.16017 0.44179 0.35593 0.0
C832 C 0.12748 0.47591 0.5239 0.0
C833 C 0.12799 0.49664 0.48941 0.0
C834 C 0.14602 0.46197 0.52304 0.0
C835 C 0.16531 0.46892 0.48606 0.0
C836 C 0.16646 0.49059 0.45644 0.0
C837 C 0.14774 0.50424 0.45868 0.0
C838 C 0.1444 0.43935 0.55747 0.0
C839 C 0.18691 0.49877 0.41749 0.0
H840 H 0.23744 0.44358 0.50345 0.0
H841 H 0.19952 0.42667 0.3139 0.0
H842 H 0.21053 0.48006 0.57304 0.0
H843 H 0.18887 0.46302 0.60976 0.0
H844 H 0.21739 0.45404 0.61443 0.0
H845 H 0.16083 0.42987 0.31023 0.0
H846 H 0.14573 0.43763 0.39045 0.0
H847 H 0.15741 0.45861 0.33329 0.0
H848 H 0.11234 0.47034 0.54979 0.0
H849 H 0.14817 0.52036 0.43274 0.0
H850 H 0.16037 0.43444 0.58261 0.0
H851 H 0.14032 0.42696 0.51528 0.0
H852 H 0.1312 0.43877 0.59939 0.0
H853 H 0.2018 0.4963 0.45182 0.0
H854 H 0.18574 0.51658 0.40288 0.0
H855 H 0.18933 0.4891 0.36703 0.0
C856 C 0.91957 0.81692 0.00695 0.0
C857 C 0.91557 0.81257 0.08063 0.0
C858 C 0.92731 0.83774 0.98444 0.0
C859 C 0.9305 0.85453 0.03668 0.0
C860 C 0.92237 0.8515 0.10777 0.0
C861 C 0.91511 0.83047 0.1292 0.0
C862 C 0.93487 0.84073 0.90712 0.0
C863 C 0.92441 0.86944 0.16412 0.0
C864 C 0.98535 0.8847 0.03248 0.0
C865 C 0.97916 0.90575 0.00836 0.0
C866 C 0.96962 0.86786 0.04031 0.0
C867 C 0.9471 0.87219 0.02332 0.0
C868 C 0.94079 0.89333 0.99749 0.0
C869 C 0.95693 0.90996 0.99077 0.0
C870 C 0.97713 0.84549 0.06781 0.0
C871 C 0.91707 0.89864 0.97822 0.0
H872 H 0.91895 0.80349 0.96821 0.0
H873 H 0.9117 0.82767 0.18611 0.0
H874 H 0.95309 0.83839 0.90437 0.0
H875 H 0.92695 0.82851 0.87044 0.0
H876 H 0.93112 0.85768 0.88731 0.0
H877 H 0.91353 0.86621 0.21155 0.0
H878 H 0.94181 0.87024 0.18344 0.0
H879 H 0.92013 0.88583 0.14075 0.0
H880 H 1.00253 0.88149 0.04609 0.0
H881 H 0.95227 0.92617 0.9706 0.0
H882 H 0.97238 0.83238 0.02878 0.0
H883 H 0.96887 0.84168 0.12009 0.0
H884 H 0.99535 0.8447 0.07622 0.0
H885 H 0.90826 0.88403 0.95608 0.0
H886 H 0.91613 0.91231 0.93796 0.0
H887 H 0.9082 0.90399 0.02779 0.0
C888 C 0.71255 0.08436 0.98333 0.0
C889 C 0.72159 0.09978 0.03189 0.0
C890 C 0.69093 0.08677 0.95713 0.0
C891 C 0.67801 0.10491 0.98062 0.0
C892 C 0.68808 0.12217 0.02041 0.0
C893 C 0.70989 0.11945 0.04541 0.0
C894 C 0.68105 0.06831 0.91247 0.0
C895 C 0.67511 0.14224 0.04375 0.0
C896 C 0.61943 0.10198 0.90826 0.0
C897 C 0.60945 0.08841 0.96093 0.0
C898 C 0.64137 0.10929 0.91629 0.0
C899 C 0.65352 0.10282 0.97835 0.0
C900 C 0.64284 0.0909 0.03464 0.0
C901 C 0.62097 0.0838 0.02512 0.0
C902 C 0.65192 0.1224 0.85573 0.0
C903 C 0.65509 0.08387 0.10236 0.0
H904 H 0.7213 0.06914 0.97168 0.0
H905 H 0.71705 0.13189 0.08058 0.0
H906 H 0.67 0.05811 0.94721 0.0
H907 H 0.67091 0.07509 0.86747 0.0
H908 H 0.69399 0.05735 0.88932 0.0
H909 H 0.68625 0.1563 0.0571 0.0
H910 H 0.66332 0.14754 1.00094 0.0
H911 H 0.66535 0.13808 0.09289 0.0
H912 H 0.61043 0.10606 0.85915 0.0
H913 H 0.61352 0.07325 0.06595 0.0
H914 H 0.6647 0.13398 0.87636 0.0
H915 H 0.63931 0.13195 0.8249 0.0
H916 H 0.66007 0.11083 0.81752 0.0
H917 H 0.66773 0.07125 0.08827 0.0
H918 H 0.64383 0.07667 0.1438 0.0
H919 H 0.66386 0.09817 0.12667 0.0
C920 C 0.46174 0.696 0.95572 0.0
C921 C 0.44855 0.71001 0.9979 0.0
C922 C 0.45331 0.676 0.92965 0.0
C923 C 0.43086 0.67054 0.94338 0.0
C924 C 0.41651 0.6868 0.97216 0.0
C925 C 0.42562 0.70628 1.00094 0.0
C926 C 0.46915 0.65967 0.89576 0.0
C927 C 0.39196 0.68277 0.97936 0.0
C928 C 0.42399 0.61149 0.88368 0.0
C929 C 0.42919 0.6004 0.94862 0.0
C930 C 0.42119 0.63455 0.88228 0.0
C931 C 0.42469 0.64677 0.94654 0.0
C932 C 0.42729 0.63539 0.01339 0.0
C933 C 0.4288 0.61229 0.01364 0.0
C934 C 0.41629 0.64566 0.81075 0.0
C935 C 0.43098 0.64756 0.0839 0.0
H936 H 0.47928 0.69951 0.95003 0.0
H937 H 0.41508 0.71742 0.03134 0.0
H938 H 0.47024 0.64449 0.92965 0.0
H939 H 0.46299 0.65476 0.84163 0.0
H940 H 0.4861 0.66657 0.88924 0.0
H941 H 0.38267 0.69838 0.96986 0.0
H942 H 0.38605 0.67004 0.9406 0.0
H943 H 0.38812 0.67717 0.03523 0.0
H944 H 0.42374 0.60256 0.83286 0.0
H945 H 0.4316 0.6037 0.06446 0.0
H946 H 0.41148 0.66328 0.81697 0.0
H947 H 0.40267 0.63675 0.78275 0.0
H948 H 0.43105 0.6446 0.7751 0.0
H949 H 0.44577 0.65842 0.07952 0.0
H950 H 0.43349 0.63612 0.13044 0.0
H951 H 0.41653 0.65821 0.09608 0.0
C952 C 0.79834 0.44274 0.89453 0.0
C953 C 0.79322 0.46539 0.89603 0.0
C954 C 0.81826 0.43549 0.86353 0.0
C955 C 0.83343 0.45143 0.83721 0.0
C956 C 0.82607 0.47336 0.82456 0.0
C957 C 0.80562 0.47998 0.85298 0.0
C958 C 0.82457 0.41143 0.86987 0.0
C959 C 0.84095 0.49063 0.79073 0.0
C960 C 0.88914 0.451 0.92969 0.0
C961 C 0.90367 0.44964 0.87082 0.0
C962 C 0.86621 0.45075 0.9195 0.0
C963 C 0.85748 0.44768 0.84877 0.0
C964 C 0.87201 0.44379 0.79015 0.0
C965 C 0.895 0.44535 0.80146 0.0
C966 C 0.85151 0.45522 0.98427 0.0
C967 C 0.86344 0.43893 0.71509 0.0
H968 H 0.7884 0.43106 0.92518 0.0
H969 H 0.80088 0.49728 0.85031 0.0
H970 H 0.83625 0.4066 0.82621 0.0
H971 H 0.83281 0.40848 0.92277 0.0
H972 H 0.80966 0.40068 0.86736 0.0
H973 H 0.83337 0.50738 0.79109 0.0
H974 H 0.85704 0.49147 0.8197 0.0
H975 H 0.84431 0.48611 0.73366 0.0
H976 H 0.8957 0.45338 0.9838 0.0
H977 H 0.90601 0.44418 0.75527 0.0
H978 H 0.84077 0.44071 0.99514 0.0
H979 H 0.84061 0.46964 0.97334 0.0
H980 H 0.86116 0.45872 0.03422 0.0
H981 H 0.84762 0.42959 0.71702 0.0
H982 H 0.87572 0.42931 0.68325 0.0
H983 H 0.86039 0.45469 0.68598 0.0
C984 C 0.99202 0.17186 0.8896 0.0
C985 C 1.00989 0.18282 0.92333 0.0
C986 C 0.99378 0.14985 0.86534 0.0
C987 C 0.01425 0.13857 0.87094 0.0
C988 C 0.03276 0.14985 0.90037 0.0
C989 C 0.03028 0.17154 0.92741 0.0
C990 C 0.97339 0.13834 0.83664 0.0
C991 C 0.05517 0.13883 0.90452 0.0
C992 C 0.01409 0.07525 0.8774 0.0
C993 C 0.01756 0.06966 0.80454 0.0
C994 C 0.01293 0.09753 0.89956 0.0
C995 C 0.01602 0.11477 0.84812 0.0
C996 C 0.02009 0.10917 0.7747 0.0
C997 C 0.02046 0.08676 0.75371 0.0
C998 C 1.0078 0.10262 0.97782 0.0
C999 C 0.02382 0.12683 0.71791 0.0
H1000 H 0.97633 0.18029 0.88292 0.0
H1001 H 0.04431 0.17932 0.95355 0.0
H1002 H 0.97669 0.1312 0.78246 0.0
H1003 H 0.96897 0.12439 0.87315 0.0
H1004 H 0.95892 0.14964 0.83264 0.0
H1005 H 0.06837 0.15045 0.92213 0.0
H1006 H 0.05455 0.1248 0.94337 0.0
H1007 H 0.05973 0.13195 0.85083 0.0
H1008 H 0.01161 0.06217 0.91689 0.0
H1009 H 0.02333 0.0826 0.69743 0.0
H1010 H 0.99256 0.11284 0.98118 0.0
H1011 H 0.02146 0.1124 1.00206 0.0
H1012 H 1.00537 0.0874 0.01077 0.0
H1013 H 0.03092 0.11989 0.66731 0.0
H1014 H 0.03511 0.13988 0.73851 0.0
H1015 H 1.00781 0.13483 0.70427 0.0
C1016 C 0.33993 0.04268 0.87907 0.0
C1017 C 0.32868 0.02422 0.90755 0.0
C1018 C 0.36154 0.04089 0.85114 0.0
C1019 C 0.37242 0.02012 0.85174 0.0
C1020 C 0.36105 1.00131 0.87889 0.0
C1021 C 0.33938 1.00357 0.90643 0.0
C1022 C 0.37299 0.06141 0.82298 0.0
C1023 C 0.37195 0.97883 0.8802 0.0
C1024 C 0.42343 0.01247 0.73141 0.0
C1025 C 0.44089 0.0154 0.78087 0.0
C1026 C 0.40113 0.01382 0.75361 0.0
C1027 C 0.39603 0.01835 0.82706 0.0
C1028 C 0.41356 0.02151 0.87709 0.0
C1029 C 0.43568 0.01999 0.85351 0.0
C1030 C 0.383 0.01044 0.69834 0.0
C1031 C 0.40895 0.02643 0.95585 0.0
H1032 H 0.33213 0.05883 0.88083 0.0
H1033 H 0.33085 0.98914 0.92754 0.0
H1034 H 0.38758 0.0652 0.85737 0.0
H1035 H 0.37916 0.05859 0.76715 0.0
H1036 H 0.36188 0.07606 0.82249 0.0
H1037 H 0.3606 0.96566 0.9 0.0
H1038 H 0.37775 0.97438 0.82509 0.0
H1039 H 0.38674 0.97927 0.91591 0.0
H1040 H 0.42714 1.00905 0.67516 0.0
H1041 H 0.44892 0.02226 0.89246 0.0
H1042 H 0.37331 0.02594 0.6921 0.0
H1043 H 0.37137 0.9974 0.71703 0.0
H1044 H 0.38962 1.00566 0.64449 0.0
H1045 H 0.39902 0.04182 0.96046 0.0
H1046 H 0.42438 0.02845 0.98798 0.0
H1047 H 0.39903 0.01284 0.98013 0.0
C1048 C 0.50228 0.32991 0.86738 0.0
C1049 C 0.52304 0.32231 0.89107 0.0
C1050 C 0.49965 0.35146 0.83901 0.0
C1051 C 0.51814 0.36592 0.83519 0.0
C1052 C 0.53916 0.35823 0.85828 0.0
C1053 C 0.54135 0.33659 0.88557 0.0
C1054 C 0.477 0.35889 0.81427 0.0
C1055 C 0.55927 0.3731 0.85631 0.0
C1056 C 0.5176 0.418 0.71678 0.0
C1057 C 0.51267 0.43458 0.76751 0.0
C1058 C 0.51889 0.39555 0.73751 0.0
C1059 C 0.51542 0.38947 0.81092 0.0
C1060 C 0.5103 0.4061 0.86218 0.0
C1061 C 0.50889 0.42834 0.83989 0.0
C1062 C 0.52423 0.37835 0.68099 0.0
C1063 C 0.50675 0.40049 0.94114 0.0
H1064 H 0.48807 0.31899 0.87107 0.0
H1065 H 0.55739 0.33108 0.90497 0.0
H1066 H 0.47113 0.37264 0.84902 0.0
H1067 H 0.47787 0.3653 0.75793 0.0
H1068 H 0.46462 0.34529 0.81644 0.0
H1069 H 0.5746 0.36438 0.87361 0.0
H1070 H 0.56181 0.37969 0.80077 0.0
H1071 H 0.55664 0.38749 0.89255 0.0
H1072 H 0.52047 0.42253 0.6607 0.0
H1073 H 0.50516 0.44091 0.87985 0.0
H1074 H 0.51135 0.36523 0.68105 0.0
H1075 H 0.54024 0.37027 0.69412 0.0
H1076 H 0.52535 0.38555 0.62566 0.0
H1077 H 0.4933 0.38809 0.94674 0.0
H1078 H 0.50241 0.41525 0.97396 0.0
H1079 H 0.52202 0.39297 0.96393 0.0
C1080 C 0.18715 0.50639 0.88905 0.0
C1081 C 0.19999 0.48777 0.87094 0.0
C1082 C 0.16572 0.5095 0.86035 0.0
C1083 C 0.15651 0.49345 0.81324 0.0
C1084 C 0.1696 0.47506 0.79257 0.0
C1085 C 0.19116 0.47259 0.82085 0.0
C1086 C 0.15262 0.52965 0.88251 0.0
C1087 C 0.16045 0.45746 0.74299 0.0
C1088 C 0.09342 0.48863 0.81414 0.0
C1089 C 0.08736 0.49955 0.74982 0.0
C1090 C 0.11578 0.4862 0.83437 0.0
C1091 C 0.13272 0.49514 0.78988 0.0
C1092 C 0.12679 0.50597 0.72439 0.0
C1093 C 0.10425 0.50788 0.70487 0.0
C1094 C 0.12126 0.47415 0.90392 0.0
C1095 C 0.14424 0.51569 0.67512 0.0
H1096 H 0.19344 0.51819 0.92804 0.0
H1097 H 0.20093 0.45841 0.80462 0.0
H1098 H 0.14594 0.53819 0.83385 0.0
H1099 H 0.13827 0.52452 0.91618 0.0
H1100 H 0.16275 0.5416 0.91398 0.0
H1101 H 0.17316 0.44502 0.72771 0.0
H1102 H 0.14655 0.44877 0.77024 0.0
H1103 H 0.15372 0.46511 0.69299 0.0
H1104 H 0.08065 0.48194 0.84917 0.0
H1105 H 0.09987 0.51627 0.65491 0.0
H1106 H 0.12962 0.48559 0.94207 0.0
H1107 H 0.13292 0.46037 0.89284 0.0
H1108 H 0.10629 0.46729 0.93087 0.0
H1109 H 0.15625 0.52572 0.70663 0.0
H1110 H 0.13693 0.52629 0.63214 0.0
H1111 H 0.15365 0.50215 0.64875 0.0
C1112 C 0.99057 0.82728 0.59784 0.0
C1113 C 1.0022 0.82048 0.53563 0.0
C1114 C 0.99325 0.84865 0.6269 0.0
C1115 C 1.00845 0.86357 0.5946 0.0
C1116 C 0.02127 0.85642 0.53477 0.0
C1117 C 0.01782 0.83517 0.50557 0.0
C1118 C 0.97902 0.85559 0.69018 0.0
C1119 C 0.03806 0.87154 0.49962 0.0
C1120 C 0.99823 0.92576 0.60778 0.0
C1121 C 0.01244 0.93204 0.66435 0.0
C1122 C 0.99652 0.90355 0.58574 0.0
C1123 C 1.00974 0.88714 0.61971 0.0
C1124 C 0.02419 0.89337 0.67676 0.0
C1125 C 0.02515 0.91567 0.699 0.0
C1126 C 0.98046 0.89765 0.52603 0.0
C1127 C 0.03895 0.87656 0.71336 0.0
H1128 H 0.9789 0.81606 0.62321 0.0
H1129 H 0.0268 0.8305 0.45719 0.0
H1130 H 0.98946 0.86218 0.73462 0.0
H1131 H 0.96772 0.86911 0.67294 0.0
H1132 H 0.96886 0.84172 0.71177 0.0
H1133 H 0.04853 0.86272 0.45951 0.0
H1134 H 0.02939 0.88528 0.47146 0.0
H1135 H 0.04898 0.87903 0.5413 0.0
H1136 H 0.98816 0.93821 0.58115 0.0
H1137 H 0.03625 0.92036 0.74254 0.0
H1138 H 0.96885 0.88465 0.54515 0.0
H1139 H 0.9896 0.8908 0.47903 0.0
H1140 H 0.97067 0.91215 0.50732 0.0
H1141 H 0.02883 0.86298 0.73675 0.0
H1142 H 0.04911 0.88398 0.75722 0.0
H1143 H 0.0502 0.86902 0.67279 0.0
C1144 C 0.67533 0.987 0.48656 0.0
C1145 C 0.68962 1.00381 0.51103 0.0
C1146 C 0.65379 0.9845 0.51502 0.0
C1147 C 0.64585 0.99964 0.56747 0.0
C1148 C 0.66031 0.01619 0.59407 0.0
C1149 C 0.68206 0.0177 0.56702 0.0
C1150 C 0.63927 0.96604 0.48714 0.0
C1151 C 0.65251 0.03303 0.64881 0.0
C1152 C 0.5835 0.01009 0.57411 0.0
C1153 C 0.57744 0.99971 0.63912 0.0
C1154 C 0.60568 0.01031 0.55057 0.0
C1155 C 0.62212 0.99906 0.59147 0.0
C1156 C 0.61589 0.98794 0.65615 0.0
C1157 C 0.59372 0.98883 0.68005 0.0
C1158 C 0.61158 0.02308 0.48281 0.0
C1159 C 0.63261 0.97499 0.69987 0.0
H1160 H 0.68057 0.97617 0.44319 0.0
H1161 H 0.69294 0.03025 0.58894 0.0
H1162 H 0.6312 0.95722 0.53292 0.0
H1163 H 0.62593 0.97302 0.45263 0.0
H1164 H 0.64877 0.95386 0.45455 0.0
H1165 H 0.66581 0.04482 0.66441 0.0
H1166 H 0.63843 0.04258 0.62599 0.0
H1167 H 0.64643 0.02462 0.69842 0.0
H1168 H 0.57096 0.01871 0.54278 0.0
H1169 H 0.58902 0.98065 0.73011 0.0
H1170 H 0.61876 0.01178 0.44184 0.0
H1171 H 0.62436 0.03571 0.49552 0.0
H1172 H 0.59701 0.03154 0.45852 0.0
H1173 H 0.64127 0.96293 0.66456 0.0
H1174 H 0.62482 0.96589 0.74564 0.0
H1175 H 0.64536 0.98631 0.72206 0.0
C1176 C 0.52731 0.68004 0.57515 0.0
C1177 C 0.50863 0.68837 0.53881 0.0
C1178 C 0.52769 0.65825 0.60264 0.0
C1179 C 0.50901 0.6443 0.59315 0.0
C1180 C 0.4899 0.65281 0.5583 0.0
C1181 C 0.48994 0.67465 0.53171 0.0
C1182 C 0.54831 0.64994 0.64014 0.0
C1183 C 0.46966 0.63856 0.54652 0.0
C1184 C 0.51782 0.58184 0.5853 0.0
C1185 C 0.51048 0.57482 0.65388 0.0
C1186 C 0.5176 0.60433 0.56539 0.0
C1187 C 0.50991 0.62041 0.61512 0.0
C1188 C 0.5026 0.61352 0.68461 0.0
C1189 C 0.50294 0.59086 0.7031 0.0
C1190 C 0.52543 0.61085 0.49057 0.0
C1191 C 0.49421 0.63006 0.73925 0.0
H1192 H 0.54176 0.69052 0.58154 0.0
H1193 H 0.47554 0.68069 0.50267 0.0
H1194 H 0.54403 0.64288 0.69391 0.0
H1195 H 0.55588 0.63648 0.60775 0.0
H1196 H 0.56082 0.66323 0.64772 0.0
H1197 H 0.45568 0.648 0.52245 0.0
H1198 H 0.47385 0.62466 0.50979 0.0
H1199 H 0.4641 0.63122 0.5986 0.0
H1200 H 0.52368 0.56972 0.54661 0.0
H1201 H 0.49721 0.58575 0.75622 0.0
H1202 H 0.53923 0.62292 0.49469 0.0
H1203 H 0.51178 0.61909 0.46057 0.0
H1204 H 0.53117 0.59641 0.45853 0.0
H1205 H 0.48981 0.62217 0.79176 0.0
H1206 H 0.47933 0.63859 0.71761 0.0
H1207 H 0.50696 0.64294 0.74919 0.0
C1208 C 0.84637 0.52232 0.4969 0.0
C1209 C 0.83722 0.50125 0.48388 0.0
C1210 C 0.86768 0.52483 0.52727 0.0
C1211 C 0.88068 0.50589 0.54322 0.0
C1212 C 0.87141 0.48463 0.53233 0.0
C1213 C 0.84979 0.48259 0.50437 0.0
C1214 C 0.87654 0.54782 0.54066 0.0
C1215 C 0.88476 0.46392 0.54661 0.0
C1216 C 0.9438 0.51187 0.54095 0.0
C1217 C 0.94914 0.51121 0.61499 0.0
C1218 C 0.92167 0.5102 0.51708 0.0
C1219 C 0.90426 0.50828 0.56834 0.0
C1220 C 0.90953 0.50804 0.64325 0.0
C1221 C 0.93183 0.50924 0.66553 0.0
C1222 C 0.91698 0.50995 0.43672 0.0
C1223 C 0.89168 0.50599 0.70012 0.0
H1224 H 0.83725 0.53699 0.48121 0.0
H1225 H 0.84295 0.46617 0.4973 0.0
H1226 H 0.88274 0.54918 0.59712 0.0
H1227 H 0.89073 0.55114 0.50402 0.0
H1228 H 0.86377 0.56078 0.53159 0.0
H1229 H 0.87447 0.4487 0.54349 0.0
H1230 H 0.8982 0.46269 0.50582 0.0
H1231 H 0.89274 0.46459 0.60068 0.0
H1232 H 0.95699 0.51315 0.50133 0.0
H1233 H 0.93568 0.50865 0.72289 0.0
H1234 H 0.90576 0.52381 0.42217 0.0
H1235 H 0.9084 0.49435 0.42199 0.0
H1236 H 0.93232 0.51139 0.40377 0.0
H1237 H 0.87749 0.51701 0.68742 0.0
H1238 H 0.89793 0.51 0.75518 0.0
H1239 H 0.88543 0.48874 0.70098 0.0
loop_
_geom_bond_atom_site_label_1
_geom_bond_atom_site_label_2
_geom_bond_distance
_geom_bond_site_symmetry_2
_ccdc_geom_bond_type
C0 C1 1.386 . S
C0 C2 1.397 . S
C0 H24 0.931 . S
C1 C0 1.386 . S
C1 C5 1.397 . S
C2 C0 1.397 . S
C2 C3 1.384 . S
C2 H25 0.930 . S
C3 C2 1.384 . S
C3 C4 1.377 . S
C3 C6 1.481 . S
C4 C3 1.377 . S
C4 C5 1.389 . S
C4 H26 0.929 . S
C5 C1 1.397 . S
C5 C4 1.389 . S
C5 H27 0.931 . S
C6 C3 1.481 . S
C6 C7 1.387 . S
C6 C11 1.390 . S
C7 C6 1.387 . S
C7 C8 1.401 . S
C7 H28 0.930 . S
C8 C7 1.401 . S
C8 C9 1.376 . S
C8 C17 1.511 . S
C9 C8 1.376 . S
C9 C10 1.392 . S
C9 H30 0.931 . S
C10 C9 1.392 . S
C10 C11 1.361 . S
C10 C12 1.500 . S
C11 C6 1.390 . S
C11 C10 1.361 . S
C11 H29 0.931 . S
C12 C10 1.500 . S
C12 C13 1.371 . S
C12 C14 1.365 . S
C13 C12 1.371 . S
C13 C23 1.386 . S
C13 H31 0.931 . S
C14 C12 1.365 . S
C14 C15 1.409 . S
C14 H32 0.929 . S
C15 C14 1.409 . S
C15 C16 1.380 . S
C15 H33 0.930 . S
C16 C15 1.380 . S
C16 C23 1.357 . S
C17 C8 1.511 . S
C17 C18 1.341 . S
C17 C19 1.371 . S
C18 C17 1.341 . S
C18 C22 1.394 . S
C18 H34 0.930 . S
C19 C17 1.371 . S
C19 C20 1.392 . S
C19 H35 0.931 . S
C20 C19 1.392 . S
C20 C21 1.331 . S
C20 H38 0.932 . S
C21 C20 1.331 . S
C21 C22 1.336 . S
C22 C18 1.394 . S
C22 C21 1.336 . S
C22 H37 0.929 . S
C23 C13 1.386 . S
C23 C16 1.357 . S
C23 H36 0.928 . S
H24 C0 0.931 . S
H25 C2 0.930 . S
H26 C4 0.929 . S
H27 C5 0.931 . S
H28 C7 0.930 . S
H29 C11 0.931 . S
H30 C9 0.931 . S
H31 C13 0.931 . S
H32 C14 0.929 . S
H33 C15 0.930 . S
H34 C18 0.930 . S
H35 C19 0.931 . S
H36 C23 0.928 . S
H37 C22 0.929 . S
H38 C20 0.932 . S
C39 C40 1.394 . S
C39 C41 1.397 . S
C39 H63 0.931 . S
C40 C39 1.394 . S
C40 C44 1.389 1_655 S
C41 C39 1.397 . S
C41 C42 1.389 . S
C41 H64 0.930 . S
C42 C41 1.389 . S
C42 C43 1.373 1_655 S
C42 C45 1.480 . S
C43 C42 1.373 1_455 S
C43 C44 1.389 . S
C43 H65 0.929 . S
C44 C40 1.389 1_455 S
C44 C43 1.389 . S
C44 H66 0.931 . S
C45 C42 1.480 . S
C45 C46 1.388 . S
C45 C50 1.390 . S
C46 C45 1.388 . S
C46 C47 1.402 . S
C46 H67 0.930 . S
C47 C46 1.402 . S
C47 C48 1.376 . S
C47 C56 1.513 . S
C48 C47 1.376 . S
C48 C49 1.392 . S
C48 H69 0.934 . S
C49 C48 1.392 . S
C49 C50 1.361 . S
C49 C51 1.499 1_655 S
C50 C45 1.390 . S
C50 C49 1.361 . S
C50 H68 0.931 . S
C51 C49 1.499 1_455 S
C51 C52 1.362 1_455 S
C51 C53 1.374 . S
C52 C51 1.362 1_655 S
C52 C62 1.386 . S
C52 H70 0.931 . S
C53 C51 1.374 . S
C53 C54 1.409 . S
C53 H71 0.929 . S
C54 C53 1.409 . S
C54 C55 1.379 . S
C54 H72 0.930 . S
C55 C54 1.379 . S
C55 C62 1.359 1_455 S
C56 C47 1.513 . S
C56 C57 1.341 . S
C56 C58 1.371 1_655 S
C57 C56 1.341 . S
C57 C61 1.394 . S
C57 H73 0.930 . S
C58 C56 1.371 1_455 S
C58 C59 1.392 . S
C58 H74 0.931 . S
C59 C58 1.392 . S
C59 C60 1.322 1_455 S
C59 H77 0.932 . S
C60 C59 1.322 1_655 S
C60 C61 1.345 . S
C61 C57 1.394 . S
C61 C60 1.345 . S
C61 H76 0.929 . S
C62 C52 1.386 . S
C62 C55 1.359 1_655 S
C62 H75 0.928 . S
H63 C39 0.931 . S
H64 C41 0.930 . S
H65 C43 0.929 . S
H66 C44 0.931 . S
H67 C46 0.930 . S
H68 C50 0.931 . S
H69 C48 0.934 . S
H70 C52 0.931 . S
H71 C53 0.929 . S
H72 C54 0.930 . S
H73 C57 0.930 . S
H74 C58 0.931 . S
H75 C62 0.928 . S
H76 C61 0.929 . S
H77 C59 0.932 . S
C78 C79 1.394 . S
C78 C80 1.397 . S
C78 H102 0.931 . S
C79 C78 1.394 . S
C79 C83 1.389 1_565 S
C80 C78 1.397 . S
C80 C81 1.389 . S
C80 H103 0.930 . S
C81 C80 1.389 . S
C81 C82 1.373 1_565 S
C81 C84 1.480 . S
C82 C81 1.373 1_545 S
C82 C83 1.389 . S
C82 H104 0.929 . S
C83 C79 1.389 1_545 S
C83 C82 1.389 . S
C83 H105 0.931 . S
C84 C81 1.480 . S
C84 C85 1.388 . S
C84 C89 1.390 . S
C85 C84 1.388 . S
C85 C86 1.402 . S
C85 H106 0.930 . S
C86 C85 1.402 . S
C86 C87 1.376 . S
C86 C95 1.513 . S
C87 C86 1.376 . S
C87 C88 1.392 . S
C87 H108 0.934 . S
C88 C87 1.392 . S
C88 C89 1.361 . S
C88 C90 1.499 1_565 S
C89 C84 1.390 . S
C89 C88 1.361 . S
C89 H107 0.931 . S
C90 C88 1.499 1_545 S
C90 C91 1.362 1_545 S
C90 C92 1.374 . S
C91 C90 1.362 1_565 S
C91 C101 1.386 . S
C91 H109 0.931 . S
C92 C90 1.374 . S
C92 C93 1.409 . S
C92 H110 0.929 . S
C93 C92 1.409 . S
C93 C94 1.379 . S
C93 H111 0.930 . S
C94 C93 1.379 . S
C94 C101 1.359 1_545 S
C95 C86 1.513 . S
C95 C96 1.341 . S
C95 C97 1.371 1_565 S
C96 C95 1.341 . S
C96 C100 1.394 . S
C96 H112 0.930 . S
C97 C95 1.371 1_545 S
C97 C98 1.392 . S
C97 H113 0.931 . S
C98 C97 1.392 . S
C98 C99 1.322 1_545 S
C98 H116 0.932 . S
C99 C98 1.322 1_565 S
C99 C100 1.345 . S
C100 C96 1.394 . S
C100 C99 1.345 . S
C100 H115 0.929 . S
C101 C91 1.386 . S
C101 C94 1.359 1_565 S
C101 H114 0.928 . S
H102 C78 0.931 . S
H103 C80 0.930 . S
H104 C82 0.929 . S
H105 C83 0.931 . S
H106 C85 0.930 . S
H107 C89 0.931 . S
H108 C87 0.934 . S
H109 C91 0.931 . S
H110 C92 0.929 . S
H111 C93 0.930 . S
H112 C96 0.930 . S
H113 C97 0.931 . S
H114 C101 0.928 . S
H115 C100 0.929 . S
H116 C98 0.932 . S
C117 C118 1.386 . S
C117 C119 1.397 . S
C117 H141 0.931 . S
C118 C117 1.386 . S
C118 C122 1.397 . S
C119 C117 1.397 . S
C119 C120 1.384 . S
C119 H142 0.930 . S
C120 C119 1.384 . S
C120 C121 1.377 . S
C120 C123 1.481 . S
C121 C120 1.377 . S
C121 C122 1.389 . S
C121 H143 0.929 . S
C122 C118 1.397 . S
C122 C121 1.389 . S
C122 H144 0.931 . S
C123 C120 1.481 . S
C123 C124 1.387 . S
C123 C128 1.390 . S
C124 C123 1.387 . S
C124 C125 1.401 . S
C124 H145 0.930 . S
C125 C124 1.401 . S
C125 C126 1.376 . S
C125 C134 1.511 . S
C126 C125 1.376 . S
C126 C127 1.392 . S
C126 H147 0.931 . S
C127 C126 1.392 . S
C127 C128 1.361 . S
C127 C129 1.500 . S
C128 C123 1.390 . S
C128 C127 1.361 . S
C128 H146 0.931 . S
C129 C127 1.500 . S
C129 C130 1.371 . S
C129 C131 1.365 . S
C130 C129 1.371 . S
C130 C140 1.386 . S
C130 H148 0.931 . S
C131 C129 1.365 . S
C131 C132 1.409 . S
C131 H149 0.929 . S
C132 C131 1.409 . S
C132 C133 1.380 . S
C132 H150 0.930 . S
C133 C132 1.380 . S
C133 C140 1.357 . S
C134 C125 1.511 . S
C134 C135 1.341 . S
C134 C136 1.371 . S
C135 C134 1.341 . S
C135 C139 1.394 . S
C135 H151 0.930 . S
C136 C134 1.371 . S
C136 C137 1.392 . S
C136 H152 0.931 . S
C137 C136 1.392 . S
C137 C138 1.331 . S
C137 H155 0.932 . S
C138 C137 1.331 . S
C138 C139 1.336 . S
C139 C135 1.394 . S
C139 C138 1.336 . S
C139 H154 0.929 . S
C140 C130 1.386 . S
C140 C133 1.357 . S
C140 H153 0.928 . S
H141 C117 0.931 . S
H142 C119 0.930 . S
H143 C121 0.929 . S
H144 C122 0.931 . S
H145 C124 0.930 . S
H146 C128 0.931 . S
H147 C126 0.931 . S
H148 C130 0.931 . S
H149 C131 0.929 . S
H150 C132 0.930 . S
H151 C135 0.930 . S
H152 C136 0.931 . S
H153 C140 0.928 . S
H154 C139 0.929 . S
H155 C137 0.932 . S
C156 C157 1.386 . S
C156 C158 1.397 . S
C156 H180 0.931 . S
C157 C156 1.386 . S
C157 C161 1.397 . S
C158 C156 1.397 . S
C158 C159 1.384 . S
C158 H181 0.930 . S
C159 C158 1.384 . S
C159 C160 1.377 . S
C159 C162 1.481 . S
C160 C159 1.377 . S
C160 C161 1.389 . S
C160 H182 0.929 . S
C161 C157 1.397 . S
C161 C160 1.389 . S
C161 H183 0.931 . S
C162 C159 1.481 . S
C162 C163 1.387 . S
C162 C167 1.390 . S
C163 C162 1.387 . S
C163 C164 1.401 . S
C163 H184 0.930 . S
C164 C163 1.401 . S
C164 C165 1.376 1_554 S
C164 C173 1.511 . S
C165 C164 1.376 1_556 S
C165 C166 1.392 . S
C165 H186 0.931 . S
C166 C165 1.392 . S
C166 C167 1.361 1_556 S
C166 C168 1.500 . S
C167 C162 1.390 . S
C167 C166 1.361 1_554 S
C167 H185 0.931 . S
C168 C166 1.500 . S
C168 C169 1.371 . S
C168 C170 1.365 . S
C169 C168 1.371 . S
C169 C179 1.386 . S
C169 H187 0.931 . S
C170 C168 1.365 . S
C170 C171 1.409 . S
C170 H188 0.929 . S
C171 C170 1.409 . S
C171 C172 1.380 . S
C171 H189 0.930 . S
C172 C171 1.380 . S
C172 C179 1.357 . S
C173 C164 1.511 . S
C173 C174 1.341 . S
C173 C175 1.371 . S
C174 C173 1.341 . S
C174 C178 1.394 . S
C174 H190 0.930 . S
C175 C173 1.371 . S
C175 C176 1.392 . S
C175 H191 0.931 1_554 S
C176 C175 1.392 . S
C176 C177 1.331 . S
C176 H194 0.932 . S
C177 C176 1.331 . S
C177 C178 1.336 . S
C178 C174 1.394 . S
C178 C177 1.336 . S
C178 H193 0.929 . S
C179 C169 1.386 . S
C179 C172 1.357 . S
C179 H192 0.928 . S
H180 C156 0.931 . S
H181 C158 0.930 . S
H182 C160 0.929 . S
H183 C161 0.931 . S
H184 C163 0.930 . S
H185 C167 0.931 . S
H186 C165 0.931 . S
H187 C169 0.931 . S
H188 C170 0.929 . S
H189 C171 0.930 . S
H190 C174 0.930 . S
H191 C175 0.931 1_556 S
H192 C179 0.928 . S
H193 C178 0.929 . S
H194 C176 0.932 . S
C195 C196 1.387 . S
C195 C197 1.397 . S
C195 H219 0.931 . S
C196 C195 1.387 . S
C196 C200 1.396 1_655 S
C197 C195 1.397 . S
C197 C198 1.381 . S
C197 H220 0.930 . S
C198 C197 1.381 . S
C198 C199 1.380 1_655 S
C198 C201 1.480 . S
C199 C198 1.380 1_455 S
C199 C200 1.389 . S
C199 H221 0.929 . S
C200 C196 1.396 1_455 S
C200 C199 1.389 . S
C200 H222 0.931 . S
C201 C198 1.480 . S
C201 C202 1.388 . S
C201 C206 1.390 . S
C202 C201 1.388 . S
C202 C203 1.402 . S
C202 H223 0.930 . S
C203 C202 1.402 . S
C203 C204 1.376 1_554 S
C203 C212 1.512 . S
C204 C203 1.376 1_556 S
C204 C205 1.392 1_655 S
C204 H225 0.933 . S
C205 C204 1.392 1_455 S
C205 C206 1.361 1_456 S
C205 C207 1.499 . S
C206 C201 1.390 . S
C206 C205 1.361 1_654 S
C206 H224 0.931 . S
C207 C205 1.499 . S
C207 C208 1.357 1_455 S
C207 C209 1.380 . S
C208 C207 1.357 1_655 S
C208 C218 1.386 . S
C208 H226 0.931 . S
C209 C207 1.380 . S
C209 C210 1.409 . S
C209 H227 0.929 . S
C210 C209 1.409 . S
C210 C211 1.384 . S
C210 H228 0.930 . S
C211 C210 1.384 . S
C211 C218 1.353 1_455 S
C212 C203 1.512 . S
C212 C213 1.341 . S
C212 C214 1.371 1_655 S
C213 C212 1.341 . S
C213 C217 1.394 . S
C213 H229 0.930 . S
C214 C212 1.371 1_455 S
C214 C215 1.392 . S
C214 H230 0.931 1_554 S
C215 C214 1.392 . S
C215 C216 1.326 1_455 S
C215 H233 0.932 . S
C216 C215 1.326 1_655 S
C216 C217 1.341 . S
C217 C213 1.394 . S
C217 C216 1.341 . S
C217 H232 0.929 . S
C218 C208 1.386 . S
C218 C211 1.353 1_655 S
C218 H231 0.928 . S
H219 C195 0.931 . S
H220 C197 0.930 . S
H221 C199 0.929 . S
H222 C200 0.931 . S
H223 C202 0.930 . S
H224 C206 0.931 . S
H225 C204 0.933 . S
H226 C208 0.931 . S
H227 C209 0.929 . S
H228 C210 0.930 . S
H229 C213 0.930 . S
H230 C214 0.931 1_556 S
H231 C218 0.928 . S
H232 C217 0.929 . S
H233 C215 0.932 . S
C234 C235 1.387 . S
C234 C236 1.397 . S
C234 H258 0.931 . S
C235 C234 1.387 . S
C235 C239 1.396 1_565 S
C236 C234 1.397 . S
C236 C237 1.381 . S
C236 H259 0.930 . S
C237 C236 1.381 . S
C237 C238 1.380 1_565 S
C237 C240 1.480 . S
C238 C237 1.380 1_545 S
C238 C239 1.389 . S
C238 H260 0.929 . S
C239 C235 1.396 1_545 S
C239 C238 1.389 . S
C239 H261 0.931 . S
C240 C237 1.480 . S
C240 C241 1.388 . S
C240 C245 1.390 . S
C241 C240 1.388 . S
C241 C242 1.402 . S
C241 H262 0.930 . S
C242 C241 1.402 . S
C242 C243 1.376 1_554 S
C242 C251 1.512 . S
C243 C242 1.376 1_556 S
C243 C244 1.392 1_565 S
C243 H264 0.933 . S
C244 C243 1.392 1_545 S
C244 C245 1.361 1_546 S
C244 C246 1.499 . S
C245 C240 1.390 . S
C245 C244 1.361 1_564 S
C245 H263 0.931 . S
C246 C244 1.499 . S
C246 C247 1.357 1_545 S
C246 C248 1.380 . S
C247 C246 1.357 1_565 S
C247 C257 1.386 . S
C247 H265 0.931 . S
C248 C246 1.380 . S
C248 C249 1.409 . S
C248 H266 0.929 . S
C249 C248 1.409 . S
C249 C250 1.384 . S
C249 H267 0.930 . S
C250 C249 1.384 . S
C250 C257 1.353 1_545 S
C251 C242 1.512 . S
C251 C252 1.341 . S
C251 C253 1.371 1_565 S
C252 C251 1.341 . S
C252 C256 1.394 . S
C252 H268 0.930 . S
C253 C251 1.371 1_545 S
C253 C254 1.392 . S
C253 H269 0.931 1_554 S
C254 C253 1.392 . S
C254 C255 1.326 1_545 S
C254 H272 0.932 . S
C255 C254 1.326 1_565 S
C255 C256 1.341 . S
C256 C252 1.394 . S
C256 C255 1.341 . S
C256 H271 0.929 . S
C257 C247 1.386 . S
C257 C250 1.353 1_565 S
C257 H270 0.928 . S
H258 C234 0.931 . S
H259 C236 0.930 . S
H260 C238 0.929 . S
H261 C239 0.931 . S
H262 C241 0.930 . S
H263 C245 0.931 . S
H264 C243 0.933 . S
H265 C247 0.931 . S
H266 C248 0.929 . S
H267 C249 0.930 . S
H268 C252 0.930 . S
H269 C253 0.931 1_556 S
H270 C257 0.928 . S
H271 C256 0.929 . S
H272 C254 0.932 . S
C273 C274 1.386 . S
C273 C275 1.397 . S
C273 H297 0.931 . S
C274 C273 1.386 . S
C274 C278 1.397 . S
C275 C273 1.397 . S
C275 C276 1.384 . S
C275 H298 0.930 . S
C276 C275 1.384 . S
C276 C277 1.377 . S
C276 C279 1.481 . S
C277 C276 1.377 . S
C277 C278 1.389 . S
C277 H299 0.929 . S
C278 C274 1.397 . S
C278 C277 1.389 . S
C278 H300 0.931 . S
C279 C276 1.481 . S
C279 C280 1.387 . S
C279 C284 1.390 1_556 S
C280 C279 1.387 . S
C280 C281 1.401 1_556 S
C280 H301 0.930 . S
C281 C280 1.401 1_554 S
C281 C282 1.376 . S
C281 C290 1.511 . S
C282 C281 1.376 . S
C282 C283 1.392 . S
C282 H303 0.931 . S
C283 C282 1.392 . S
C283 C284 1.361 . S
C283 C285 1.500 . S
C284 C279 1.390 1_554 S
C284 C283 1.361 . S
C284 H302 0.931 . S
C285 C283 1.500 . S
C285 C286 1.371 . S
C285 C287 1.365 . S
C286 C285 1.371 . S
C286 C296 1.386 . S
C286 H304 0.931 . S
C287 C285 1.365 . S
C287 C288 1.409 . S
C287 H305 0.929 . S
C288 C287 1.409 . S
C288 C289 1.380 . S
C288 H306 0.930 . S
C289 C288 1.380 . S
C289 C296 1.357 . S
C290 C281 1.511 . S
C290 C291 1.341 . S
C290 C292 1.371 . S
C291 C290 1.341 . S
C291 C295 1.394 . S
C291 H307 0.930 1_554 S
C292 C290 1.371 . S
C292 C293 1.392 . S
C292 H308 0.931 . S
C293 C292 1.392 . S
C293 C294 1.331 . S
C293 H311 0.932 . S
C294 C293 1.331 . S
C294 C295 1.336 . S
C295 C291 1.394 . S
C295 C294 1.336 . S
C295 H310 0.929 . S
C296 C286 1.386 . S
C296 C289 1.357 . S
C296 H309 0.928 . S
H297 C273 0.931 . S
H298 C275 0.930 . S
H299 C277 0.929 . S
H300 C278 0.931 . S
H301 C280 0.930 . S
H302 C284 0.931 . S
H303 C282 0.931 . S
H304 C286 0.931 . S
H305 C287 0.929 . S
H306 C288 0.930 . S
H307 C291 0.930 1_556 S
H308 C292 0.931 . S
H309 C296 0.928 . S
H310 C295 0.929 . S
H311 C293 0.932 . S
Sm312 C314 2.846 . S
Sm312 O332 2.543 . S
Sm312 O333 2.450 . S
Sm312 O334 2.681 1_565 S
Sm312 O335 2.464 . S
Sm312 O336 2.396 . S
Sm312 O340 2.386 1_455 S
Sm312 O343 2.408 1_565 S
Sm313 C323 2.846 . S
Sm313 O334 2.386 1_655 S
Sm313 O337 2.408 1_545 S
Sm313 O338 2.543 . S
Sm313 O339 2.450 . S
Sm313 O340 2.681 1_545 S
Sm313 O341 2.464 . S
Sm313 O342 2.396 . S
C314 Sm312 2.846 . S
C314 C315 1.506 . S
C314 O332 1.261 . S
C314 O333 1.242 . S
C315 C314 1.506 . S
C315 C316 1.358 . S
C315 C320 1.382 . S
C316 C315 1.358 . S
C316 C317 1.385 . S
C316 H344 0.930 1_455 S
C317 C316 1.385 . S
C317 C318 1.395 . S
C317 H345 0.929 1_455 S
C318 C317 1.395 . S
C318 C319 1.335 . S
C319 C318 1.335 . S
C319 C320 1.398 . S
C319 H346 0.930 . S
C320 C315 1.382 . S
C320 C319 1.398 . S
C320 H347 0.929 . S
C321 O334 1.271 1_565 S
C321 O335 1.251 . S
C322 O336 1.252 1_655 S
C322 O337 1.272 . S
C323 Sm313 2.846 . S
C323 C324 1.506 . S
C323 O338 1.261 . S
C323 O339 1.242 . S
C324 C323 1.506 . S
C324 C325 1.358 . S
C324 C329 1.382 . S
C325 C324 1.358 . S
C325 C326 1.385 . S
C325 H348 0.930 1_655 S
C326 C325 1.385 . S
C326 C327 1.395 . S
C326 H349 0.929 1_655 S
C327 C326 1.395 . S
C327 C328 1.335 . S
C328 C327 1.335 . S
C328 C329 1.398 . S
C328 H350 0.930 . S
C329 C324 1.382 . S
C329 C328 1.398 . S
C329 H351 0.929 . S
C330 O340 1.271 1_545 S
C330 O341 1.251 . S
C331 O342 1.252 1_455 S
C331 O343 1.272 . S
O332 Sm312 2.543 . S
O332 C314 1.261 . S
O333 Sm312 2.450 . S
O333 C314 1.242 . S
O334 Sm312 2.681 1_545 S
O334 Sm313 2.386 1_455 S
O334 C321 1.271 1_545 S
O335 Sm312 2.464 . S
O335 C321 1.251 . S
O336 Sm312 2.396 . S
O336 C322 1.252 1_455 S
O337 Sm313 2.408 1_565 S
O337 C322 1.272 . S
O338 Sm313 2.543 . S
O338 C323 1.261 . S
O339 Sm313 2.450 . S
O339 C323 1.242 . S
O340 Sm312 2.386 1_655 S
O340 Sm313 2.681 1_565 S
O340 C330 1.271 1_565 S
O341 Sm313 2.464 . S
O341 C330 1.251 . S
O342 Sm313 2.396 . S
O342 C331 1.252 1_655 S
O343 Sm312 2.408 1_545 S
O343 C331 1.272 . S
H344 C316 0.930 1_655 S
H345 C317 0.929 1_655 S
H346 C319 0.930 . S
H347 C320 0.929 . S
H348 C325 0.930 1_455 S
H349 C326 0.929 1_455 S
H350 C328 0.930 . S
H351 C329 0.929 . S
Sm352 C354 2.846 . S
Sm352 O372 2.543 . S
Sm352 O373 2.450 . S
Sm352 O374 2.681 . S
Sm352 O375 2.464 . S
Sm352 O376 2.396 . S
Sm352 O380 2.386 1_545 S
Sm352 O383 2.408 . S
Sm353 C363 2.846 . S
Sm353 O374 2.386 1_565 S
Sm353 O377 2.408 . S
Sm353 O378 2.543 . S
Sm353 O379 2.450 . S
Sm353 O380 2.681 . S
Sm353 O381 2.464 . S
Sm353 O382 2.396 . S
C354 Sm352 2.846 . S
C354 C355 1.506 . S
C354 O372 1.261 . S
C354 O373 1.242 . S
C355 C354 1.506 . S
C355 C356 1.358 . S
C355 C360 1.382 . S
C356 C355 1.358 . S
C356 C357 1.385 . S
C356 H384 0.930 1_545 S
C357 C356 1.385 . S
C357 C358 1.395 . S
C357 H385 0.929 1_545 S
C358 C357 1.395 . S
C358 C359 1.335 . S
C359 C358 1.335 . S
C359 C360 1.398 . S
C359 H386 0.930 . S
C360 C355 1.382 . S
C360 C359 1.398 . S
C360 H387 0.929 . S
C361 O374 1.271 . S
C361 O375 1.251 . S
C362 O376 1.252 1_565 S
C362 O377 1.272 . S
C363 Sm353 2.846 . S
C363 C364 1.506 . S
C363 O378 1.261 . S
C363 O379 1.242 . S
C364 C363 1.506 . S
C364 C365 1.358 . S
C364 C369 1.382 . S
C365 C364 1.358 . S
C365 C366 1.385 . S
C365 H388 0.930 1_565 S
C366 C365 1.385 . S
C366 C367 1.395 . S
C366 H389 0.929 1_565 S
C367 C366 1.395 . S
C367 C368 1.335 . S
C368 C367 1.335 . S
C368 C369 1.398 . S
C368 H390 0.930 . S
C369 C364 1.382 . S
C369 C368 1.398 . S
C369 H391 0.929 . S
C370 O380 1.271 . S
C370 O381 1.251 . S
C371 O382 1.252 1_545 S
C371 O383 1.272 . S
O372 Sm352 2.543 . S
O372 C354 1.261 . S
O373 Sm352 2.450 . S
O373 C354 1.242 . S
O374 Sm352 2.681 . S
O374 Sm353 2.386 1_545 S
O374 C361 1.271 . S
O375 Sm352 2.464 . S
O375 C361 1.251 . S
O376 Sm352 2.396 . S
O376 C362 1.252 1_545 S
O377 Sm353 2.408 . S
O377 C362 1.272 . S
O378 Sm353 2.543 . S
O378 C363 1.261 . S
O379 Sm353 2.450 . S
O379 C363 1.242 . S
O380 Sm352 2.386 1_565 S
O380 Sm353 2.681 . S
O380 C370 1.271 . S
O381 Sm353 2.464 . S
O381 C370 1.251 . S
O382 Sm353 2.396 . S
O382 C371 1.252 1_565 S
O383 Sm352 2.408 . S
O383 C371 1.272 . S
H384 C356 0.930 1_565 S
H385 C357 0.929 1_565 S
H386 C359 0.930 . S
H387 C360 0.929 . S
H388 C365 0.930 1_545 S
H389 C366 0.929 1_545 S
H390 C368 0.930 . S
H391 C369 0.929 . S
Sm392 C394 2.846 . S
Sm392 O412 2.543 . S
Sm392 O413 2.450 . S
Sm392 O414 2.681 . S
Sm392 O415 2.464 . S
Sm392 O416 2.396 . S
Sm392 O420 2.386 . S
Sm392 O423 2.408 . S
Sm393 C403 2.846 . S
Sm393 O414 2.386 . S
Sm393 O417 2.408 . S
Sm393 O418 2.543 . S
Sm393 O419 2.450 . S
Sm393 O420 2.681 . S
Sm393 O421 2.464 . S
Sm393 O422 2.396 . S
C394 Sm392 2.846 . S
C394 C395 1.506 . S
C394 O412 1.261 . S
C394 O413 1.242 . S
C395 C394 1.506 . S
C395 C396 1.358 . S
C395 C400 1.382 . S
C396 C395 1.358 . S
C396 C397 1.385 . S
C396 H424 0.930 . S
C397 C396 1.385 . S
C397 C398 1.395 . S
C397 H425 0.929 . S
C398 C397 1.395 . S
C398 C399 1.335 . S
C399 C398 1.335 . S
C399 C400 1.398 . S
C399 H426 0.930 . S
C400 C395 1.382 . S
C400 C399 1.398 . S
C400 H427 0.929 . S
C401 O414 1.271 . S
C401 O415 1.251 . S
C402 O416 1.252 . S
C402 O417 1.272 . S
C403 Sm393 2.846 . S
C403 C404 1.506 . S
C403 O418 1.261 . S
C403 O419 1.242 . S
C404 C403 1.506 . S
C404 C405 1.358 . S
C404 C409 1.382 . S
C405 C404 1.358 . S
C405 C406 1.385 . S
C405 H428 0.930 . S
C406 C405 1.385 . S
C406 C407 1.395 . S
C406 H429 0.929 . S
C407 C406 1.395 . S
C407 C408 1.335 . S
C408 C407 1.335 . S
C408 C409 1.398 . S
C408 H430 0.930 . S
C409 C404 1.382 . S
C409 C408 1.398 . S
C409 H431 0.929 . S
C410 O420 1.271 . S
C410 O421 1.251 . S
C411 O422 1.252 . S
C411 O423 1.272 . S
O412 Sm392 2.543 . S
O412 C394 1.261 . S
O413 Sm392 2.450 . S
O413 C394 1.242 . S
O414 Sm392 2.681 . S
O414 Sm393 2.386 . S
O414 C401 1.271 . S
O415 Sm392 2.464 . S
O415 C401 1.251 . S
O416 Sm392 2.396 . S
O416 C402 1.252 . S
O417 Sm393 2.408 . S
O417 C402 1.272 . S
O418 Sm393 2.543 . S
O418 C403 1.261 . S
O419 Sm393 2.450 . S
O419 C403 1.242 . S
O420 Sm392 2.386 . S
O420 Sm393 2.681 . S
O420 C410 1.271 . S
O421 Sm393 2.464 . S
O421 C410 1.251 . S
O422 Sm393 2.396 . S
O422 C411 1.252 . S
O423 Sm392 2.408 . S
O423 C411 1.272 . S
H424 C396 0.930 . S
H425 C397 0.929 . S
H426 C399 0.930 . S
H427 C400 0.929 . S
H428 C405 0.930 . S
H429 C406 0.929 . S
H430 C408 0.930 . S
H431 C409 0.929 . S
Sm432 C434 2.846 . S
Sm432 O452 2.543 . S
Sm432 O453 2.450 . S
Sm432 O454 2.681 1_655 S
Sm432 O455 2.464 . S
Sm432 O456 2.396 . S
Sm432 O460 2.386 . S
Sm432 O463 2.408 1_655 S
Sm433 C443 2.846 . S
Sm433 O454 2.386 . S
Sm433 O457 2.408 1_455 S
Sm433 O458 2.543 . S
Sm433 O459 2.450 . S
Sm433 O460 2.681 1_455 S
Sm433 O461 2.464 . S
Sm433 O462 2.396 . S
C434 Sm432 2.846 . S
C434 C435 1.506 . S
C434 O452 1.261 . S
C434 O453 1.242 . S
C435 C434 1.506 . S
C435 C436 1.358 . S
C435 C440 1.382 . S
C436 C435 1.358 . S
C436 C437 1.385 . S
C436 H464 0.930 . S
C437 C436 1.385 . S
C437 C438 1.395 . S
C437 H465 0.929 . S
C438 C437 1.395 . S
C438 C439 1.335 . S
C439 C438 1.335 . S
C439 C440 1.398 . S
C439 H466 0.930 . S
C440 C435 1.382 . S
C440 C439 1.398 . S
C440 H467 0.929 . S
C441 O454 1.260 1_655 S
C441 O455 1.270 . S
C442 O456 1.252 . S
C442 O457 1.272 . S
C443 Sm433 2.846 . S
C443 C444 1.506 . S
C443 O458 1.261 . S
C443 O459 1.242 . S
C444 C443 1.506 . S
C444 C445 1.358 . S
C444 C449 1.382 . S
C445 C444 1.358 . S
C445 C446 1.385 . S
C445 H468 0.930 . S
C446 C445 1.385 . S
C446 C447 1.395 . S
C446 H469 0.929 . S
C447 C446 1.395 . S
C447 C448 1.335 . S
C448 C447 1.335 . S
C448 C449 1.398 . S
C448 H470 0.930 . S
C449 C444 1.382 . S
C449 C448 1.398 . S
C449 H471 0.929 . S
C450 O460 1.257 1_455 S
C450 O461 1.276 . S
C451 O462 1.252 . S
C451 O463 1.272 . S
O452 Sm432 2.543 . S
O452 C434 1.261 . S
O453 Sm432 2.450 . S
O453 C434 1.242 . S
O454 Sm432 2.681 1_455 S
O454 Sm433 2.386 . S
O454 C441 1.260 1_455 S
O455 Sm432 2.464 . S
O455 C441 1.270 . S
O456 Sm432 2.396 . S
O456 C442 1.252 . S
O457 Sm433 2.408 1_655 S
O457 C442 1.272 . S
O458 Sm433 2.543 . S
O458 C443 1.261 . S
O459 Sm433 2.450 . S
O459 C443 1.242 . S
O460 Sm432 2.386 . S
O460 Sm433 2.681 1_655 S
O460 C450 1.257 1_655 S
O461 Sm433 2.464 . S
O461 C450 1.276 . S
O462 Sm433 2.396 . S
O462 C451 1.252 . S
O463 Sm432 2.408 1_455 S
O463 C451 1.272 . S
H464 C436 0.930 . S
H465 C437 0.929 . S
H466 C439 0.930 . S
H467 C440 0.929 . S
H468 C445 0.930 . S
H469 C446 0.929 . S
H470 C448 0.930 . S
H471 C449 0.929 . S
C472 C473 1.419 . S
C472 C474 1.394 . S
C472 H488 0.931 . S
C473 C472 1.419 . S
C473 C477 1.349 1_545 S
C474 C472 1.394 . S
C474 C475 1.369 . S
C474 C478 1.531 . S
C475 C474 1.369 . S
C475 C476 1.410 1_545 S
C475 C483 1.503 . S
C476 C475 1.410 1_565 S
C476 C477 1.392 . S
C476 C479 1.511 . S
C477 C473 1.349 1_565 S
C477 C476 1.392 . S
C477 H489 0.929 . S
C478 C474 1.531 . S
C478 H490 0.960 . S
C478 H491 0.962 . S
C478 H492 0.960 . S
C479 C476 1.511 . S
C479 H493 0.961 . S
C479 H494 0.961 . S
C479 H495 0.961 . S
C480 C481 1.370 1_565 S
C480 C482 1.363 . S
C480 H496 0.931 . S
C481 C480 1.370 1_545 S
C481 C485 1.408 . S
C482 C480 1.363 . S
C482 C483 1.370 1_565 S
C482 C486 1.524 . S
C483 C475 1.503 . S
C483 C482 1.370 1_545 S
C483 C484 1.403 . S
C484 C483 1.403 . S
C484 C485 1.404 . S
C484 C487 1.539 . S
C485 C481 1.408 . S
C485 C484 1.404 . S
C485 H497 0.930 . S
C486 C482 1.524 . S
C486 H498 0.956 1_565 S
C486 H499 0.961 . S
C486 H500 0.961 . S
C487 C484 1.539 . S
C487 H501 0.958 . S
C487 H502 0.961 . S
C487 H503 0.984 . S
H488 C472 0.931 . S
H489 C477 0.929 . S
H490 C478 0.960 . S
H491 C478 0.962 . S
H492 C478 0.960 . S
H493 C479 0.961 . S
H494 C479 0.961 . S
H495 C479 0.961 . S
H496 C480 0.931 . S
H497 C485 0.930 . S
H498 C486 0.956 1_545 S
H499 C486 0.961 . S
H500 C486 0.961 . S
H501 C487 0.958 . S
H502 C487 0.961 . S
H503 C487 0.984 . S
C504 C505 1.391 . S
C504 C506 1.394 . S
C504 H520 0.931 . S
C505 C504 1.391 . S
C505 C509 1.376 . S
C506 C504 1.394 . S
C506 C507 1.369 . S
C506 C510 1.531 . S
C507 C506 1.369 . S
C507 C508 1.410 . S
C507 C515 1.503 . S
C508 C507 1.410 . S
C508 C509 1.392 . S
C508 C511 1.511 . S
C509 C505 1.376 . S
C509 C508 1.392 . S
C509 H521 0.929 . S
C510 C506 1.531 . S
C510 H522 0.960 . S
C510 H523 0.962 . S
C510 H524 0.960 . S
C511 C508 1.511 . S
C511 H525 0.961 . S
C511 H526 0.961 . S
C511 H527 0.961 . S
C512 C513 1.370 . S
C512 C514 1.363 . S
C512 H528 0.931 . S
C513 C512 1.370 . S
C513 C517 1.408 . S
C514 C512 1.363 . S
C514 C515 1.370 . S
C514 C518 1.524 . S
C515 C507 1.503 . S
C515 C514 1.370 . S
C515 C516 1.403 . S
C516 C515 1.403 . S
C516 C517 1.404 . S
C516 C519 1.539 . S
C517 C513 1.408 . S
C517 C516 1.404 . S
C517 H529 0.930 . S
C518 C514 1.524 . S
C518 H530 0.956 . S
C518 H531 0.961 . S
C518 H532 0.961 . S
C519 C516 1.539 . S
C519 H533 0.958 . S
C519 H534 0.961 . S
C519 H535 0.960 . S
H520 C504 0.931 . S
H521 C509 0.929 . S
H522 C510 0.960 . S
H523 C510 0.962 . S
H524 C510 0.960 . S
H525 C511 0.961 . S
H526 C511 0.961 . S
H527 C511 0.961 . S
H528 C512 0.931 . S
H529 C517 0.930 . S
H530 C518 0.956 . S
H531 C518 0.961 . S
H532 C518 0.961 . S
H533 C519 0.958 . S
H534 C519 0.961 . S
H535 C519 0.960 . S
C536 C537 1.391 . S
C536 C538 1.394 . S
C536 H552 0.931 . S
C537 C536 1.391 . S
C537 C541 1.376 . S
C538 C536 1.394 . S
C538 C539 1.369 . S
C538 C542 1.531 . S
C539 C538 1.369 . S
C539 C540 1.410 . S
C539 C547 1.503 . S
C540 C539 1.410 . S
C540 C541 1.392 . S
C540 C543 1.511 . S
C541 C537 1.376 . S
C541 C540 1.392 . S
C541 H553 0.929 . S
C542 C538 1.531 . S
C542 H554 0.960 . S
C542 H555 0.962 . S
C542 H556 0.960 . S
C543 C540 1.511 . S
C543 H557 0.961 . S
C543 H558 0.961 . S
C543 H559 0.961 . S
C544 C545 1.370 . S
C544 C546 1.363 . S
C544 H560 0.931 . S
C545 C544 1.370 . S
C545 C549 1.408 . S
C546 C544 1.363 . S
C546 C547 1.370 . S
C546 C550 1.524 . S
C547 C539 1.503 . S
C547 C546 1.370 . S
C547 C548 1.403 . S
C548 C547 1.403 . S
C548 C549 1.404 . S
C548 C551 1.539 . S
C549 C545 1.408 . S
C549 C548 1.404 . S
C549 H561 0.930 . S
C550 C546 1.524 . S
C550 H562 0.956 . S
C550 H563 0.961 . S
C550 H564 0.961 . S
C551 C548 1.539 . S
C551 H565 0.958 . S
C551 H566 0.961 . S
C551 H567 0.960 . S
H552 C536 0.931 . S
H553 C541 0.929 . S
H554 C542 0.960 . S
H555 C542 0.962 . S
H556 C542 0.960 . S
H557 C543 0.961 . S
H558 C543 0.961 . S
H559 C543 0.961 . S
H560 C544 0.931 . S
H561 C549 0.930 . S
H562 C550 0.956 . S
H563 C550 0.961 . S
H564 C550 0.961 . S
H565 C551 0.958 . S
H566 C551 0.961 . S
H567 C551 0.960 . S
C568 C569 1.364 1_455 S
C568 C570 1.394 . S
C568 H584 0.931 . S
C569 C568 1.364 1_655 S
C569 C573 1.405 . S
C570 C568 1.394 . S
C570 C571 1.369 1_455 S
C570 C574 1.531 . S
C571 C570 1.369 1_655 S
C571 C572 1.410 . S
C571 C579 1.506 . S
C572 C571 1.410 . S
C572 C573 1.392 . S
C572 C575 1.511 . S
C573 C569 1.405 . S
C573 C572 1.392 . S
C573 H585 0.929 . S
C574 C570 1.531 . S
C574 H586 0.960 . S
C574 H587 0.962 . S
C574 H588 0.960 . S
C575 C572 1.511 . S
C575 H589 0.961 . S
C575 H590 0.961 . S
C575 H591 0.961 . S
C576 C577 1.394 . S
C576 C578 1.363 . S
C576 H592 0.931 . S
C577 C576 1.394 . S
C577 C581 1.385 1_455 S
C578 C576 1.363 . S
C578 C579 1.348 1_455 S
C578 C582 1.524 . S
C579 C571 1.506 . S
C579 C578 1.348 1_655 S
C579 C580 1.424 . S
C580 C579 1.424 . S
C580 C581 1.404 . S
C580 C583 1.539 . S
C581 C577 1.385 1_655 S
C581 C580 1.404 . S
C581 H593 0.930 . S
C582 C578 1.524 . S
C582 H594 0.956 . S
C582 H595 0.961 . S
C582 H596 0.961 . S
C583 C580 1.539 . S
C583 H597 0.958 . S
C583 H598 0.961 . S
C583 H599 0.960 . S
H584 C568 0.931 . S
H585 C573 0.929 . S
H586 C574 0.960 . S
H587 C574 0.962 . S
H588 C574 0.960 . S
H589 C575 0.961 . S
H590 C575 0.961 . S
H591 C575 0.961 . S
H592 C576 0.931 . S
H593 C581 0.930 . S
H594 C582 0.956 . S
H595 C582 0.961 . S
H596 C582 0.961 . S
H597 C583 0.958 . S
H598 C583 0.961 . S
H599 C583 0.960 . S
C600 C601 1.391 . S
C600 C602 1.394 . S
C600 H616 0.931 . S
C601 C600 1.391 . S
C601 C605 1.376 1_565 S
C602 C600 1.394 . S
C602 C603 1.369 . S
C602 C606 1.531 . S
C603 C602 1.369 . S
C603 C604 1.410 1_565 S
C603 C611 1.503 1_554 S
C604 C603 1.410 1_545 S
C604 C605 1.392 . S
C604 C607 1.511 . S
C605 C601 1.376 1_545 S
C605 C604 1.392 . S
C605 H617 0.929 . S
C606 C602 1.531 . S
C606 H618 0.960 . S
C606 H619 0.962 . S
C606 H620 0.960 . S
C607 C604 1.511 . S
C607 H621 0.961 . S
C607 H622 0.961 1_554 S
C607 H623 0.961 1_554 S
C608 C609 1.370 1_545 S
C608 C610 1.363 . S
C608 H624 0.931 . S
C609 C608 1.370 1_565 S
C609 C613 1.408 . S
C610 C608 1.363 . S
C610 C611 1.370 1_545 S
C610 C614 1.524 1_556 S
C611 C603 1.503 1_556 S
C611 C610 1.370 1_565 S
C611 C612 1.403 . S
C612 C611 1.403 . S
C612 C613 1.404 . S
C612 C615 1.539 . S
C613 C609 1.408 . S
C613 C612 1.404 . S
C613 H625 0.930 . S
C614 C610 1.524 1_554 S
C614 H626 0.956 . S
C614 H627 0.961 . S
C614 H628 0.961 . S
C615 C612 1.539 . S
C615 H629 0.958 . S
C615 H630 0.961 . S
C615 H631 0.960 . S
H616 C600 0.931 . S
H617 C605 0.929 . S
H618 C606 0.960 . S
H619 C606 0.962 . S
H620 C606 0.960 . S
H621 C607 0.961 . S
H622 C607 0.961 1_556 S
H623 C607 0.961 1_556 S
H624 C608 0.931 . S
H625 C613 0.930 . S
H626 C614 0.956 . S
H627 C614 0.961 . S
H628 C614 0.961 . S
H629 C615 0.958 . S
H630 C615 0.961 . S
H631 C615 0.960 . S
C632 C633 1.391 . S
C632 C634 1.394 . S
C632 H648 0.931 . S
C633 C632 1.391 . S
C633 C637 1.376 . S
C634 C632 1.394 . S
C634 C635 1.369 . S
C634 C638 1.531 . S
C635 C634 1.369 . S
C635 C636 1.410 . S
C635 C643 1.503 1_554 S
C636 C635 1.410 . S
C636 C637 1.392 . S
C636 C639 1.511 . S
C637 C633 1.376 . S
C637 C636 1.392 . S
C637 H649 0.929 . S
C638 C634 1.531 . S
C638 H650 0.960 . S
C638 H651 0.962 . S
C638 H652 0.960 . S
C639 C636 1.511 . S
C639 H653 0.961 . S
C639 H654 0.961 . S
C639 H655 0.961 . S
C640 C641 1.370 . S
C640 C642 1.363 . S
C640 H656 0.931 . S
C641 C640 1.370 . S
C641 C645 1.408 . S
C642 C640 1.363 . S
C642 C643 1.370 . S
C642 C646 1.524 1_556 S
C643 C635 1.503 1_556 S
C643 C642 1.370 . S
C643 C644 1.403 . S
C644 C643 1.403 . S
C644 C645 1.404 . S
C644 C647 1.539 . S
C645 C641 1.408 . S
C645 C644 1.404 . S
C645 H657 0.930 . S
C646 C642 1.524 1_554 S
C646 H658 0.956 . S
C646 H659 0.961 . S
C646 H660 0.961 . S
C647 C644 1.539 . S
C647 H661 0.958 . S
C647 H662 0.961 . S
C647 H663 0.960 . S
H648 C632 0.931 . S
H649 C637 0.929 . S
H650 C638 0.960 . S
H651 C638 0.962 . S
H652 C638 0.960 . S
H653 C639 0.961 . S
H654 C639 0.961 . S
H655 C639 0.961 . S
H656 C640 0.931 . S
H657 C645 0.930 . S
H658 C646 0.956 . S
H659 C646 0.961 . S
H660 C646 0.961 . S
H661 C647 0.958 . S
H662 C647 0.961 . S
H663 C647 0.960 . S
C664 C665 1.391 . S
C664 C666 1.394 . S
C664 H680 0.931 . S
C665 C664 1.391 . S
C665 C669 1.376 . S
C666 C664 1.394 . S
C666 C667 1.369 . S
C666 C670 1.531 . S
C667 C666 1.369 . S
C667 C668 1.410 . S
C667 C675 1.503 1_554 S
C668 C667 1.410 . S
C668 C669 1.392 . S
C668 C671 1.511 . S
C669 C665 1.376 . S
C669 C668 1.392 . S
C669 H681 0.929 . S
C670 C666 1.531 . S
C670 H682 0.960 1_554 S
C670 H683 0.962 1_554 S
C670 H684 0.960 . S
C671 C668 1.511 . S
C671 H685 0.961 . S
C671 H686 0.961 . S
C671 H687 0.961 . S
C672 C673 1.370 . S
C672 C674 1.363 . S
C672 H688 0.931 . S
C673 C672 1.370 . S
C673 C677 1.408 . S
C674 C672 1.363 . S
C674 C675 1.370 . S
C674 C678 1.524 1_556 S
C675 C667 1.503 1_556 S
C675 C674 1.370 . S
C675 C676 1.403 . S
C676 C675 1.403 . S
C676 C677 1.404 . S
C676 C679 1.539 1_556 S
C677 C673 1.408 . S
C677 C676 1.404 . S
C677 H689 0.930 . S
C678 C674 1.524 1_554 S
C678 H690 0.956 . S
C678 H691 0.961 . S
C678 H692 0.961 1_554 S
C679 C676 1.539 1_554 S
C679 H693 0.958 1_554 S
C679 H694 0.961 1_554 S
C679 H695 0.960 . S
H680 C664 0.931 . S
H681 C669 0.929 . S
H682 C670 0.960 1_556 S
H683 C670 0.962 1_556 S
H684 C670 0.960 . S
H685 C671 0.961 . S
H686 C671 0.961 . S
H687 C671 0.961 . S
H688 C672 0.931 . S
H689 C677 0.930 . S
H690 C678 0.956 . S
H691 C678 0.961 . S
H692 C678 0.961 1_556 S
H693 C679 0.958 1_556 S
H694 C679 0.961 1_556 S
H695 C679 0.960 . S
C696 C697 1.391 1_455 S
C696 C698 1.394 . S
C696 H712 0.931 . S
C697 C696 1.391 1_655 S
C697 C701 1.376 . S
C698 C696 1.394 . S
C698 C699 1.369 1_455 S
C698 C702 1.531 . S
C699 C698 1.369 1_655 S
C699 C700 1.410 . S
C699 C707 1.503 . S
C700 C699 1.410 . S
C700 C701 1.392 . S
C700 C703 1.511 . S
C701 C697 1.376 . S
C701 C700 1.392 . S
C701 H713 0.929 . S
C702 C698 1.531 . S
C702 H714 0.960 . S
C702 H715 0.962 . S
C702 H716 0.960 . S
C703 C700 1.511 . S
C703 H717 0.961 . S
C703 H718 0.961 . S
C703 H719 0.961 . S
C704 C705 1.370 1_455 S
C704 C706 1.363 . S
C704 H720 0.931 . S
C705 C704 1.370 1_655 S
C705 C709 1.408 . S
C706 C704 1.363 . S
C706 C707 1.370 1_456 S
C706 C710 1.524 . S
C707 C699 1.503 . S
C707 C706 1.370 1_654 S
C707 C708 1.403 1_554 S
C708 C707 1.403 1_556 S
C708 C709 1.404 . S
C708 C711 1.539 1_556 S
C709 C705 1.408 . S
C709 C708 1.404 . S
C709 H721 0.930 . S
C710 C706 1.524 . S
C710 H722 0.956 . S
C710 H723 0.961 . S
C710 H724 0.961 . S
C711 C708 1.539 1_554 S
C711 H725 0.958 . S
C711 H726 0.961 . S
C711 H727 0.960 . S
H712 C696 0.931 . S
H713 C701 0.929 . S
H714 C702 0.960 . S
H715 C702 0.962 . S
H716 C702 0.960 . S
H717 C703 0.961 . S
H718 C703 0.961 . S
H719 C703 0.961 . S
H720 C704 0.931 . S
H721 C709 0.930 . S
H722 C710 0.956 . S
H723 C710 0.961 . S
H724 C710 0.961 . S
H725 C711 0.958 . S
H726 C711 0.961 . S
H727 C711 0.960 . S
C728 C729 1.391 . S
C728 C730 1.394 . S
C728 H744 0.931 . S
C729 C728 1.391 . S
C729 C733 1.376 1_455 S
C730 C728 1.394 . S
C730 C731 1.369 1_455 S
C730 C734 1.531 . S
C731 C730 1.369 1_655 S
C731 C732 1.410 . S
C731 C739 1.503 . S
C732 C731 1.410 . S
C732 C733 1.392 . S
C732 C735 1.511 . S
C733 C729 1.376 1_655 S
C733 C732 1.392 . S
C733 H745 0.929 . S
C734 C730 1.531 . S
C734 H746 0.960 . S
C734 H747 0.980 . S
C734 H748 0.960 . S
C735 C732 1.511 . S
C735 H749 0.961 . S
C735 H750 0.961 . S
C735 H751 0.961 . S
C736 C737 1.370 . S
C736 C738 1.363 . S
C736 H752 0.931 . S
C737 C736 1.370 . S
C737 C741 1.408 . S
C738 C736 1.363 . S
C738 C739 1.370 . S
C738 C742 1.524 . S
C739 C731 1.503 . S
C739 C738 1.370 . S
C739 C740 1.403 . S
C740 C739 1.403 . S
C740 C741 1.404 . S
C740 C743 1.539 1_655 S
C741 C737 1.408 . S
C741 C740 1.404 . S
C741 H753 0.930 . S
C742 C738 1.524 . S
C742 H754 0.956 . S
C742 H755 0.961 . S
C742 H756 0.961 . S
C743 C740 1.539 1_455 S
C743 H757 0.958 . S
C743 H758 0.961 . S
C743 H759 0.960 . S
H744 C728 0.931 . S
H745 C733 0.929 . S
H746 C734 0.960 . S
H747 C734 0.980 . S
H748 C734 0.960 . S
H749 C735 0.961 . S
H750 C735 0.961 . S
H751 C735 0.961 . S
H752 C736 0.931 . S
H753 C741 0.930 . S
H754 C742 0.956 . S
H755 C742 0.961 . S
H756 C742 0.961 . S
H757 C743 0.958 . S
H758 C743 0.961 . S
H759 C743 0.960 . S
C760 C761 1.391 . S
C760 C762 1.394 . S
C760 H776 0.931 . S
C761 C760 1.391 . S
C761 C765 1.376 1_545 S
C762 C760 1.394 . S
C762 C763 1.369 1_545 S
C762 C766 1.531 . S
C763 C762 1.369 1_565 S
C763 C764 1.410 . S
C763 C771 1.503 . S
C764 C763 1.410 . S
C764 C765 1.392 . S
C764 C767 1.511 . S
C765 C761 1.376 1_565 S
C765 C764 1.392 . S
C765 H777 0.929 . S
C766 C762 1.531 . S
C766 H778 0.960 . S
C766 H779 0.962 1_545 S
C766 H780 0.960 . S
C767 C764 1.511 . S
C767 H781 0.961 . S
C767 H782 0.961 . S
C767 H783 0.961 . S
C768 C769 1.370 . S
C768 C770 1.363 . S
C768 H784 0.931 . S
C769 C768 1.370 . S
C769 C773 1.408 . S
C770 C768 1.363 . S
C770 C771 1.370 . S
C770 C774 1.524 . S
C771 C763 1.503 . S
C771 C770 1.370 . S
C771 C772 1.403 . S
C772 C771 1.403 . S
C772 C773 1.404 . S
C772 C775 1.539 1_565 S
C773 C769 1.408 . S
C773 C772 1.404 . S
C773 H785 0.930 . S
C774 C770 1.524 . S
C774 H786 0.956 . S
C774 H787 0.961 . S
C774 H788 0.961 . S
C775 C772 1.539 1_545 S
C775 H789 0.958 . S
C775 H790 0.961 . S
C775 H791 0.960 . S
H776 C760 0.931 . S
H777 C765 0.929 . S
H778 C766 0.960 . S
H779 C766 0.962 1_565 S
H780 C766 0.960 . S
H781 C767 0.961 . S
H782 C767 0.961 . S
H783 C767 0.961 . S
H784 C768 0.931 . S
H785 C773 0.930 . S
H786 C774 0.956 . S
H787 C774 0.961 . S
H788 C774 0.961 . S
H789 C775 0.958 . S
H790 C775 0.961 . S
H791 C775 0.960 . S
C792 C793 1.391 . S
C792 C794 1.394 . S
C792 H808 0.931 . S
C793 C792 1.391 . S
C793 C797 1.376 . S
C794 C792 1.394 . S
C794 C795 1.369 . S
C794 C798 1.531 . S
C795 C794 1.369 . S
C795 C796 1.410 . S
C795 C803 1.503 . S
C796 C795 1.410 . S
C796 C797 1.392 . S
C796 C799 1.511 . S
C797 C793 1.376 . S
C797 C796 1.392 . S
C797 H809 0.929 . S
C798 C794 1.531 . S
C798 H810 0.960 . S
C798 H811 0.962 . S
C798 H812 0.960 . S
C799 C796 1.511 . S
C799 H813 0.961 . S
C799 H814 0.961 . S
C799 H815 0.961 . S
C800 C801 1.370 . S
C800 C802 1.363 . S
C800 H816 0.931 . S
C801 C800 1.370 . S
C801 C805 1.408 . S
C802 C800 1.363 . S
C802 C803 1.370 . S
C802 C806 1.524 . S
C803 C795 1.503 . S
C803 C802 1.370 . S
C803 C804 1.403 . S
C804 C803 1.403 . S
C804 C805 1.404 . S
C804 C807 1.539 . S
C805 C801 1.408 . S
C805 C804 1.404 . S
C805 H817 0.930 . S
C806 C802 1.524 . S
C806 H818 0.956 . S
C806 H819 0.961 . S
C806 H820 0.961 . S
C807 C804 1.539 . S
C807 H821 0.958 . S
C807 H822 0.961 . S
C807 H823 0.960 . S
H808 C792 0.931 . S
H809 C797 0.929 . S
H810 C798 0.960 . S
H811 C798 0.962 . S
H812 C798 0.960 . S
H813 C799 0.961 . S
H814 C799 0.961 . S
H815 C799 0.961 . S
H816 C800 0.931 . S
H817 C805 0.930 . S
H818 C806 0.956 . S
H819 C806 0.961 . S
H820 C806 0.961 . S
H821 C807 0.958 . S
H822 C807 0.961 . S
H823 C807 0.960 . S
C824 C825 1.391 . S
C824 C826 1.394 . S
C824 H840 0.931 . S
C825 C824 1.391 . S
C825 C829 1.376 . S
C826 C824 1.394 . S
C826 C827 1.369 . S
C826 C830 1.531 . S
C827 C826 1.369 . S
C827 C828 1.410 . S
C827 C835 1.503 . S
C828 C827 1.410 . S
C828 C829 1.392 . S
C828 C831 1.511 . S
C829 C825 1.376 . S
C829 C828 1.392 . S
C829 H841 0.929 . S
C830 C826 1.531 . S
C830 H842 0.960 . S
C830 H843 0.962 . S
C830 H844 0.960 . S
C831 C828 1.511 . S
C831 H845 0.961 . S
C831 H846 0.961 . S
C831 H847 0.961 . S
C832 C833 1.370 . S
C832 C834 1.363 . S
C832 H848 0.931 . S
C833 C832 1.370 . S
C833 C837 1.408 . S
C834 C832 1.363 . S
C834 C835 1.370 . S
C834 C838 1.524 . S
C835 C827 1.503 . S
C835 C834 1.370 . S
C835 C836 1.403 . S
C836 C835 1.403 . S
C836 C837 1.404 . S
C836 C839 1.539 . S
C837 C833 1.408 . S
C837 C836 1.404 . S
C837 H849 0.930 . S
C838 C834 1.524 . S
C838 H850 0.956 . S
C838 H851 0.961 . S
C838 H852 0.961 . S
C839 C836 1.539 . S
C839 H853 0.958 . S
C839 H854 0.961 . S
C839 H855 0.960 . S
H840 C824 0.931 . S
H841 C829 0.929 . S
H842 C830 0.960 . S
H843 C830 0.962 . S
H844 C830 0.960 . S
H845 C831 0.961 . S
H846 C831 0.961 . S
H847 C831 0.961 . S
H848 C832 0.931 . S
H849 C837 0.930 . S
H850 C838 0.956 . S
H851 C838 0.961 . S
H852 C838 0.961 . S
H853 C839 0.958 . S
H854 C839 0.961 . S
H855 C839 0.960 . S
C856 C857 1.391 1_455 S
C856 C858 1.394 . S
C856 H872 0.931 . S
C857 C856 1.391 1_655 S
C857 C861 1.376 . S
C858 C856 1.394 . S
C858 C859 1.369 . S
C858 C862 1.531 . S
C859 C858 1.369 . S
C859 C860 1.410 1_455 S
C859 C867 1.503 . S
C860 C859 1.410 1_655 S
C860 C861 1.392 . S
C860 C863 1.511 . S
C861 C857 1.376 . S
C861 C860 1.392 . S
C861 H873 0.929 . S
C862 C858 1.531 . S
C862 H874 0.960 1_554 S
C862 H875 0.962 . S
C862 H876 0.957 1_554 S
C863 C860 1.511 . S
C863 H877 0.961 . S
C863 H878 0.961 . S
C863 H879 0.961 . S
C864 C865 1.370 1_554 S
C864 C866 1.363 . S
C864 H880 0.931 . S
C865 C864 1.370 1_556 S
C865 C869 1.408 . S
C866 C864 1.363 . S
C866 C867 1.370 . S
C866 C870 1.524 . S
C867 C859 1.503 . S
C867 C866 1.370 . S
C867 C868 1.403 1_554 S
C868 C867 1.403 1_556 S
C868 C869 1.404 . S
C868 C871 1.539 . S
C869 C865 1.408 . S
C869 C868 1.404 . S
C869 H881 0.930 . S
C870 C866 1.524 . S
C870 H882 0.956 . S
C870 H883 0.961 . S
C870 H884 0.961 . S
C871 C868 1.539 . S
C871 H885 0.958 . S
C871 H886 0.962 1_455 S
C871 H887 0.960 1_455 S
H872 C856 0.931 . S
H873 C861 0.929 . S
H874 C862 0.960 1_556 S
H875 C862 0.962 . S
H876 C862 0.957 1_556 S
H877 C863 0.961 . S
H878 C863 0.961 . S
H879 C863 0.961 . S
H880 C864 0.931 . S
H881 C869 0.930 . S
H882 C870 0.956 . S
H883 C870 0.961 . S
H884 C870 0.961 . S
H885 C871 0.958 . S
H886 C871 0.962 1_655 S
H887 C871 0.960 1_655 S
C888 C889 1.392 . S
C888 C890 1.394 1_565 S
C888 H904 0.931 . S
C889 C888 1.392 . S
C889 C893 1.368 1_565 S
C890 C888 1.394 1_545 S
C890 C891 1.369 . S
C890 C894 1.531 . S
C891 C890 1.369 . S
C891 C892 1.410 . S
C891 C899 1.503 . S
C892 C891 1.410 . S
C892 C893 1.392 . S
C892 C895 1.511 1_554 S
C893 C889 1.368 1_545 S
C893 C892 1.392 . S
C893 H905 0.929 . S
C894 C890 1.531 . S
C894 H906 0.960 . S
C894 H907 0.962 1_545 S
C894 H908 0.960 . S
C895 C892 1.511 1_556 S
C895 H909 0.961 . S
C895 H910 0.961 . S
C895 H911 0.961 . S
C896 C897 1.370 . S
C896 C898 1.363 . S
C896 H912 0.931 . S
C897 C896 1.370 . S
C897 C901 1.408 . S
C898 C896 1.363 . S
C898 C899 1.370 1_556 S
C898 C902 1.524 1_545 S
C899 C891 1.503 . S
C899 C898 1.370 1_554 S
C899 C900 1.403 . S
C900 C899 1.403 . S
C900 C901 1.404 1_554 S
C900 C903 1.539 . S
C901 C897 1.408 . S
C901 C900 1.404 1_556 S
C901 H913 0.930 . S
C902 C898 1.524 1_565 S
C902 H914 0.956 1_556 S
C902 H915 0.961 . S
C902 H916 0.961 . S
C903 C900 1.539 . S
C903 H917 0.958 . S
C903 H918 0.961 . S
C903 H919 0.960 . S
H904 C888 0.931 . S
H905 C893 0.929 . S
H906 C894 0.960 . S
H907 C894 0.962 1_565 S
H908 C894 0.960 . S
H909 C895 0.961 . S
H910 C895 0.961 . S
H911 C895 0.961 . S
H912 C896 0.931 . S
H913 C901 0.930 . S
H914 C902 0.956 1_554 S
H915 C902 0.961 . S
H916 C902 0.961 . S
H917 C903 0.958 . S
H918 C903 0.961 . S
H919 C903 0.960 . S
C920 C921 1.391 . S
C920 C922 1.394 . S
C920 H936 0.931 . S
C921 C920 1.391 . S
C921 C925 1.376 . S
C922 C920 1.394 . S
C922 C923 1.369 . S
C922 C926 1.531 . S
C923 C922 1.369 . S
C923 C924 1.410 . S
C923 C931 1.503 . S
C924 C923 1.410 . S
C924 C925 1.392 . S
C924 C927 1.511 . S
C925 C921 1.376 . S
C925 C924 1.392 . S
C925 H937 0.929 . S
C926 C922 1.531 . S
C926 H938 0.960 . S
C926 H939 0.962 . S
C926 H940 0.960 . S
C927 C924 1.511 . S
C927 H941 0.961 1_554 S
C927 H942 0.961 1_554 S
C927 H943 0.961 . S
C928 C929 1.370 . S
C928 C930 1.363 . S
C928 H944 0.931 . S
C929 C928 1.370 . S
C929 C933 1.408 1_556 S
C930 C928 1.363 . S
C930 C931 1.370 1_556 S
C930 C934 1.524 . S
C931 C923 1.503 . S
C931 C930 1.370 1_554 S
C931 C932 1.403 . S
C932 C931 1.403 . S
C932 C933 1.404 . S
C932 C935 1.539 . S
C933 C929 1.408 1_554 S
C933 C932 1.404 . S
C933 H945 0.930 . S
C934 C930 1.524 . S
C934 H946 0.956 . S
C934 H947 0.961 . S
C934 H948 0.961 . S
C935 C932 1.539 . S
C935 H949 0.958 . S
C935 H950 0.961 . S
C935 H951 0.960 . S
H936 C920 0.931 . S
H937 C925 0.929 . S
H938 C926 0.960 . S
H939 C926 0.962 . S
H940 C926 0.960 . S
H941 C927 0.961 1_556 S
H942 C927 0.961 1_556 S
H943 C927 0.961 . S
H944 C928 0.931 . S
H945 C933 0.930 . S
H946 C934 0.956 . S
H947 C934 0.961 . S
H948 C934 0.961 . S
H949 C935 0.958 . S
H950 C935 0.961 . S
H951 C935 0.960 . S
C952 C953 1.391 . S
C952 C954 1.394 . S
C952 H968 0.931 . S
C953 C952 1.391 . S
C953 C957 1.376 . S
C954 C952 1.394 . S
C954 C955 1.369 . S
C954 C958 1.531 . S
C955 C954 1.369 . S
C955 C956 1.410 . S
C955 C963 1.503 . S
C956 C955 1.410 . S
C956 C957 1.392 . S
C956 C959 1.511 1_554 S
C957 C953 1.376 . S
C957 C956 1.392 . S
C957 H969 0.929 . S
C958 C954 1.531 . S
C958 H970 0.960 . S
C958 H971 0.962 . S
C958 H972 0.960 . S
C959 C956 1.511 1_556 S
C959 H973 0.961 . S
C959 H974 0.961 . S
C959 H975 0.961 . S
C960 C961 1.370 . S
C960 C962 1.361 1_556 S
C960 H976 0.931 . S
C961 C960 1.370 . S
C961 C965 1.408 . S
C962 C960 1.361 1_554 S
C962 C963 1.371 . S
C962 C966 1.525 . S
C963 C955 1.503 . S
C963 C962 1.371 . S
C963 C964 1.403 1_554 S
C964 C963 1.403 1_556 S
C964 C965 1.404 . S
C964 C967 1.539 1_556 S
C965 C961 1.408 . S
C965 C964 1.404 . S
C965 H977 0.930 . S
C966 C962 1.525 . S
C966 H978 0.956 . S
C966 H979 0.961 1_554 S
C966 H980 0.964 . S
C967 C964 1.539 1_554 S
C967 H981 0.958 . S
C967 H982 0.961 1_554 S
C967 H983 0.960 . S
H968 C952 0.931 . S
H969 C957 0.929 . S
H970 C958 0.960 . S
H971 C958 0.962 . S
H972 C958 0.960 . S
H973 C959 0.961 . S
H974 C959 0.961 . S
H975 C959 0.961 . S
H976 C960 0.931 . S
H977 C965 0.930 . S
H978 C966 0.956 . S
H979 C966 0.961 1_556 S
H980 C966 0.964 . S
H981 C967 0.958 . S
H982 C967 0.961 1_556 S
H983 C967 0.960 . S
C984 C985 1.391 1_655 S
C984 C986 1.394 . S
C984 H1000 0.931 . S
C985 C984 1.391 1_455 S
C985 C989 1.376 . S
C986 C984 1.394 . S
C986 C987 1.369 1_655 S
C986 C990 1.531 . S
C987 C986 1.369 1_455 S
C987 C988 1.410 . S
C987 C995 1.503 . S
C988 C987 1.410 . S
C988 C989 1.392 . S
C988 C991 1.511 . S
C989 C985 1.376 . S
C989 C988 1.392 . S
C989 H1001 0.929 . S
C990 C986 1.531 . S
C990 H1002 0.960 . S
C990 H1003 0.962 . S
C990 H1004 0.960 . S
C991 C988 1.511 . S
C991 H1005 0.961 . S
C991 H1006 0.961 . S
C991 H1007 0.961 . S
C992 C993 1.370 1_655 S
C992 C994 1.363 . S
C992 H1008 0.931 . S
C993 C992 1.370 1_455 S
C993 C997 1.408 . S
C994 C992 1.363 . S
C994 C995 1.370 1_655 S
C994 C998 1.524 . S
C995 C987 1.503 . S
C995 C994 1.370 1_455 S
C995 C996 1.403 . S
C996 C995 1.403 . S
C996 C997 1.404 . S
C996 C999 1.539 . S
C997 C993 1.408 . S
C997 C996 1.404 . S
C997 H1009 0.930 . S
C998 C994 1.524 . S
C998 H1010 0.956 . S
C998 H1011 0.961 . S
C998 H1012 0.961 . S
C999 C996 1.539 . S
C999 H1013 0.958 . S
C999 H1014 0.961 . S
C999 H1015 0.960 . S
H1000 C984 0.931 . S
H1001 C989 0.929 . S
H1002 C990 0.960 . S
H1003 C990 0.962 . S
H1004 C990 0.960 . S
H1005 C991 0.961 . S
H1006 C991 0.961 . S
H1007 C991 0.961 . S
H1008 C992 0.931 . S
H1009 C997 0.930 . S
H1010 C998 0.956 . S
H1011 C998 0.961 . S
H1012 C998 0.961 . S
H1013 C999 0.958 . S
H1014 C999 0.961 . S
H1015 C999 0.960 . S
C1016 C1017 1.391 . S
C1016 C1018 1.394 . S
C1016 H1032 0.931 . S
C1017 C1016 1.391 . S
C1017 C1021 1.376 1_545 S
C1018 C1016 1.394 . S
C1018 C1019 1.369 . S
C1018 C1022 1.531 . S
C1019 C1018 1.369 . S
C1019 C1020 1.410 1_545 S
C1019 C1027 1.503 . S
C1020 C1019 1.410 1_565 S
C1020 C1021 1.392 . S
C1020 C1023 1.511 . S
C1021 C1017 1.376 1_565 S
C1021 C1020 1.392 . S
C1021 H1033 0.929 . S
C1022 C1018 1.531 . S
C1022 H1034 0.960 . S
C1022 H1035 0.962 . S
C1022 H1036 0.960 . S
C1023 C1020 1.511 . S
C1023 H1037 0.961 . S
C1023 H1038 0.961 . S
C1023 H1039 0.961 . S
C1024 C1025 1.370 . S
C1024 C1026 1.363 . S
C1024 H1040 0.931 . S
C1025 C1024 1.370 . S
C1025 C1029 1.408 1_545 S
C1026 C1024 1.363 . S
C1026 C1027 1.370 . S
C1026 C1030 1.524 . S
C1027 C1019 1.503 . S
C1027 C1026 1.370 . S
C1027 C1028 1.403 1_545 S
C1028 C1027 1.403 1_565 S
C1028 C1029 1.404 . S
C1028 C1031 1.539 . S
C1029 C1025 1.408 1_565 S
C1029 C1028 1.404 . S
C1029 H1041 0.930 . S
C1030 C1026 1.524 . S
C1030 H1042 0.956 . S
C1030 H1043 0.961 . S
C1030 H1044 0.961 . S
C1031 C1028 1.539 . S
C1031 H1045 0.958 . S
C1031 H1046 0.961 . S
C1031 H1047 0.960 . S
H1032 C1016 0.931 . S
H1033 C1021 0.929 . S
H1034 C1022 0.960 . S
H1035 C1022 0.962 . S
H1036 C1022 0.960 . S
H1037 C1023 0.961 . S
H1038 C1023 0.961 . S
H1039 C1023 0.961 . S
H1040 C1024 0.931 . S
H1041 C1029 0.930 . S
H1042 C1030 0.956 . S
H1043 C1030 0.961 . S
H1044 C1030 0.961 . S
H1045 C1031 0.958 . S
H1046 C1031 0.961 . S
H1047 C1031 0.960 . S
C1048 C1049 1.391 . S
C1048 C1050 1.394 . S
C1048 H1064 0.931 . S
C1049 C1048 1.391 . S
C1049 C1053 1.376 . S
C1050 C1048 1.394 . S
C1050 C1051 1.369 . S
C1050 C1054 1.531 . S
C1051 C1050 1.369 . S
C1051 C1052 1.410 . S
C1051 C1059 1.503 . S
C1052 C1051 1.410 . S
C1052 C1053 1.392 . S
C1052 C1055 1.511 . S
C1053 C1049 1.376 . S
C1053 C1052 1.392 . S
C1053 H1065 0.929 . S
C1054 C1050 1.531 . S
C1054 H1066 0.960 . S
C1054 H1067 0.962 . S
C1054 H1068 0.960 . S
C1055 C1052 1.511 . S
C1055 H1069 0.961 . S
C1055 H1070 0.961 . S
C1055 H1071 0.961 . S
C1056 C1057 1.370 . S
C1056 C1058 1.363 . S
C1056 H1072 0.931 . S
C1057 C1056 1.370 . S
C1057 C1061 1.408 . S
C1058 C1056 1.363 . S
C1058 C1059 1.370 . S
C1058 C1062 1.524 . S
C1059 C1051 1.503 . S
C1059 C1058 1.370 . S
C1059 C1060 1.403 . S
C1060 C1059 1.403 . S
C1060 C1061 1.404 . S
C1060 C1063 1.539 . S
C1061 C1057 1.408 . S
C1061 C1060 1.404 . S
C1061 H1073 0.930 . S
C1062 C1058 1.524 . S
C1062 H1074 0.956 . S
C1062 H1075 0.961 . S
C1062 H1076 0.961 . S
C1063 C1060 1.539 . S
C1063 H1077 0.958 . S
C1063 H1078 0.961 . S
C1063 H1079 0.960 . S
H1064 C1048 0.931 . S
H1065 C1053 0.929 . S
H1066 C1054 0.960 . S
H1067 C1054 0.962 . S
H1068 C1054 0.960 . S
H1069 C1055 0.961 . S
H1070 C1055 0.961 . S
H1071 C1055 0.961 . S
H1072 C1056 0.931 . S
H1073 C1061 0.930 . S
H1074 C1062 0.956 . S
H1075 C1062 0.961 . S
H1076 C1062 0.961 . S
H1077 C1063 0.958 . S
H1078 C1063 0.961 . S
H1079 C1063 0.960 . S
C1080 C1081 1.391 . S
C1080 C1082 1.394 . S
C1080 H1096 0.931 . S
C1081 C1080 1.391 . S
C1081 C1085 1.376 . S
C1082 C1080 1.394 . S
C1082 C1083 1.369 . S
C1082 C1086 1.531 . S
C1083 C1082 1.369 . S
C1083 C1084 1.410 . S
C1083 C1091 1.503 . S
C1084 C1083 1.410 . S
C1084 C1085 1.392 . S
C1084 C1087 1.511 . S
C1085 C1081 1.376 . S
C1085 C1084 1.392 . S
C1085 H1097 0.929 . S
C1086 C1082 1.531 . S
C1086 H1098 0.960 . S
C1086 H1099 0.962 . S
C1086 H1100 0.960 . S
C1087 C1084 1.511 . S
C1087 H1101 0.961 . S
C1087 H1102 0.961 . S
C1087 H1103 0.961 . S
C1088 C1089 1.370 . S
C1088 C1090 1.363 . S
C1088 H1104 0.931 . S
C1089 C1088 1.370 . S
C1089 C1093 1.408 . S
C1090 C1088 1.363 . S
C1090 C1091 1.370 . S
C1090 C1094 1.524 . S
C1091 C1083 1.503 . S
C1091 C1090 1.370 . S
C1091 C1092 1.403 . S
C1092 C1091 1.403 . S
C1092 C1093 1.404 . S
C1092 C1095 1.539 . S
C1093 C1089 1.408 . S
C1093 C1092 1.404 . S
C1093 H1105 0.930 . S
C1094 C1090 1.524 . S
C1094 H1106 0.956 . S
C1094 H1107 0.961 . S
C1094 H1108 0.961 . S
C1095 C1092 1.539 . S
C1095 H1109 0.958 . S
C1095 H1110 0.961 . S
C1095 H1111 0.960 . S
H1096 C1080 0.931 . S
H1097 C1085 0.929 . S
H1098 C1086 0.960 . S
H1099 C1086 0.962 . S
H1100 C1086 0.960 . S
H1101 C1087 0.961 . S
H1102 C1087 0.961 . S
H1103 C1087 0.961 . S
H1104 C1088 0.931 . S
H1105 C1093 0.930 . S
H1106 C1094 0.956 . S
H1107 C1094 0.961 . S
H1108 C1094 0.961 . S
H1109 C1095 0.958 . S
H1110 C1095 0.961 . S
H1111 C1095 0.960 . S
C1112 C1113 1.417 . S
C1112 C1114 1.394 . S
C1112 H1128 0.931 . S
C1113 C1112 1.417 . S
C1113 C1117 1.350 1_655 S
C1114 C1112 1.394 . S
C1114 C1115 1.369 . S
C1114 C1118 1.531 . S
C1115 C1114 1.369 . S
C1115 C1116 1.410 1_655 S
C1115 C1123 1.503 . S
C1116 C1115 1.410 1_455 S
C1116 C1117 1.392 . S
C1116 C1119 1.511 . S
C1117 C1113 1.350 1_455 S
C1117 C1116 1.392 . S
C1117 H1129 0.929 . S
C1118 C1114 1.531 . S
C1118 H1130 0.960 . S
C1118 H1131 0.962 . S
C1118 H1132 0.960 . S
C1119 C1116 1.511 . S
C1119 H1133 0.961 . S
C1119 H1134 0.961 . S
C1119 H1135 0.961 . S
C1120 C1121 1.370 . S
C1120 C1122 1.363 . S
C1120 H1136 0.931 . S
C1121 C1120 1.370 . S
C1121 C1125 1.408 1_655 S
C1122 C1120 1.363 . S
C1122 C1123 1.370 . S
C1122 C1126 1.524 . S
C1123 C1115 1.503 . S
C1123 C1122 1.370 . S
C1123 C1124 1.403 1_655 S
C1124 C1123 1.403 1_455 S
C1124 C1125 1.404 . S
C1124 C1127 1.539 . S
C1125 C1121 1.408 1_455 S
C1125 C1124 1.404 . S
C1125 H1137 0.930 . S
C1126 C1122 1.524 . S
C1126 H1138 0.956 . S
C1126 H1139 0.961 . S
C1126 H1140 0.961 . S
C1127 C1124 1.539 . S
C1127 H1141 0.958 . S
C1127 H1142 0.961 . S
C1127 H1143 0.960 . S
H1128 C1112 0.931 . S
H1129 C1117 0.929 . S
H1130 C1118 0.960 . S
H1131 C1118 0.962 . S
H1132 C1118 0.960 . S
H1133 C1119 0.961 . S
H1134 C1119 0.961 . S
H1135 C1119 0.961 . S
H1136 C1120 0.931 . S
H1137 C1125 0.930 . S
H1138 C1126 0.956 . S
H1139 C1126 0.961 . S
H1140 C1126 0.961 . S
H1141 C1127 0.958 . S
H1142 C1127 0.961 . S
H1143 C1127 0.960 . S
C1144 C1145 1.391 . S
C1144 C1146 1.394 . S
C1144 H1160 0.931 . S
C1145 C1144 1.391 . S
C1145 C1149 1.376 1_565 S
C1146 C1144 1.394 . S
C1146 C1147 1.369 . S
C1146 C1150 1.531 . S
C1147 C1146 1.369 . S
C1147 C1148 1.410 1_565 S
C1147 C1155 1.503 . S
C1148 C1147 1.410 1_545 S
C1148 C1149 1.392 . S
C1148 C1151 1.511 . S
C1149 C1145 1.376 1_545 S
C1149 C1148 1.392 . S
C1149 H1161 0.929 . S
C1150 C1146 1.531 . S
C1150 H1162 0.960 . S
C1150 H1163 0.962 . S
C1150 H1164 0.960 . S
C1151 C1148 1.511 . S
C1151 H1165 0.961 . S
C1151 H1166 0.961 . S
C1151 H1167 0.961 . S
C1152 C1153 1.378 . S
C1152 C1154 1.362 1_565 S
C1152 H1168 0.924 1_565 S
C1153 C1152 1.378 . S
C1153 C1157 1.408 . S
C1154 C1152 1.362 1_545 S
C1154 C1155 1.359 1_545 S
C1154 C1158 1.537 . S
C1155 C1147 1.503 . S
C1155 C1154 1.359 1_565 S
C1155 C1156 1.403 . S
C1156 C1155 1.403 . S
C1156 C1157 1.404 . S
C1156 C1159 1.539 . S
C1157 C1153 1.408 . S
C1157 C1156 1.404 . S
C1157 H1169 0.930 . S
C1158 C1154 1.537 . S
C1158 H1170 0.956 . S
C1158 H1171 0.961 . S
C1158 H1172 0.961 . S
C1159 C1156 1.539 . S
C1159 H1173 0.958 . S
C1159 H1174 0.961 . S
C1159 H1175 0.960 . S
H1160 C1144 0.931 . S
H1161 C1149 0.929 . S
H1162 C1150 0.960 . S
H1163 C1150 0.962 . S
H1164 C1150 0.960 . S
H1165 C1151 0.961 . S
H1166 C1151 0.961 . S
H1167 C1151 0.961 . S
H1168 C1152 0.924 1_545 S
H1169 C1157 0.930 . S
H1170 C1158 0.956 . S
H1171 C1158 0.961 . S
H1172 C1158 0.961 . S
H1173 C1159 0.958 . S
H1174 C1159 0.961 . S
H1175 C1159 0.960 . S
C1176 C1177 1.391 . S
C1176 C1178 1.394 . S
C1176 H1192 0.931 . S
C1177 C1176 1.391 . S
C1177 C1181 1.376 . S
C1178 C1176 1.394 . S
C1178 C1179 1.369 . S
C1178 C1182 1.531 . S
C1179 C1178 1.369 . S
C1179 C1180 1.410 . S
C1179 C1187 1.503 . S
C1180 C1179 1.410 . S
C1180 C1181 1.392 . S
C1180 C1183 1.511 . S
C1181 C1177 1.376 . S
C1181 C1180 1.392 . S
C1181 H1193 0.929 . S
C1182 C1178 1.531 . S
C1182 H1194 0.960 . S
C1182 H1195 0.962 . S
C1182 H1196 0.960 . S
C1183 C1180 1.511 . S
C1183 H1197 0.961 . S
C1183 H1198 0.961 . S
C1183 H1199 0.961 . S
C1184 C1185 1.370 . S
C1184 C1186 1.363 . S
C1184 H1200 0.931 . S
C1185 C1184 1.370 . S
C1185 C1189 1.408 . S
C1186 C1184 1.363 . S
C1186 C1187 1.370 . S
C1186 C1190 1.524 . S
C1187 C1179 1.503 . S
C1187 C1186 1.370 . S
C1187 C1188 1.403 . S
C1188 C1187 1.403 . S
C1188 C1189 1.404 . S
C1188 C1191 1.539 . S
C1189 C1185 1.408 . S
C1189 C1188 1.404 . S
C1189 H1201 0.930 . S
C1190 C1186 1.524 . S
C1190 H1202 0.956 . S
C1190 H1203 0.961 . S
C1190 H1204 0.961 . S
C1191 C1188 1.539 . S
C1191 H1205 0.958 . S
C1191 H1206 0.961 . S
C1191 H1207 0.960 . S
H1192 C1176 0.931 . S
H1193 C1181 0.929 . S
H1194 C1182 0.960 . S
H1195 C1182 0.962 . S
H1196 C1182 0.960 . S
H1197 C1183 0.961 . S
H1198 C1183 0.961 . S
H1199 C1183 0.961 . S
H1200 C1184 0.931 . S
H1201 C1189 0.930 . S
H1202 C1190 0.956 . S
H1203 C1190 0.961 . S
H1204 C1190 0.961 . S
H1205 C1191 0.958 . S
H1206 C1191 0.961 . S
H1207 C1191 0.960 . S
C1208 C1209 1.391 . S
C1208 C1210 1.394 . S
C1208 H1224 0.931 . S
C1209 C1208 1.391 . S
C1209 C1213 1.376 . S
C1210 C1208 1.394 . S
C1210 C1211 1.369 . S
C1210 C1214 1.531 . S
C1211 C1210 1.369 . S
C1211 C1212 1.410 . S
C1211 C1219 1.503 . S
C1212 C1211 1.410 . S
C1212 C1213 1.392 . S
C1212 C1215 1.511 . S
C1213 C1209 1.376 . S
C1213 C1212 1.392 . S
C1213 H1225 0.929 . S
C1214 C1210 1.531 . S
C1214 H1226 0.960 . S
C1214 H1227 0.962 . S
C1214 H1228 0.960 . S
C1215 C1212 1.511 . S
C1215 H1229 0.961 . S
C1215 H1230 0.961 . S
C1215 H1231 0.961 . S
C1216 C1217 1.370 . S
C1216 C1218 1.363 . S
C1216 H1232 0.931 . S
C1217 C1216 1.370 . S
C1217 C1221 1.408 . S
C1218 C1216 1.363 . S
C1218 C1219 1.370 . S
C1218 C1222 1.524 . S
C1219 C1211 1.503 . S
C1219 C1218 1.370 . S
C1219 C1220 1.403 . S
C1220 C1219 1.403 . S
C1220 C1221 1.404 . S
C1220 C1223 1.539 . S
C1221 C1217 1.408 . S
C1221 C1220 1.404 . S
C1221 H1233 0.930 . S
C1222 C1218 1.524 . S
C1222 H1234 0.956 . S
C1222 H1235 0.961 . S
C1222 H1236 0.961 . S
C1223 C1220 1.539 . S
C1223 H1237 0.958 . S
C1223 H1238 0.961 . S
C1223 H1239 0.960 . S
H1224 C1208 0.931 . S
H1225 C1213 0.929 . S
H1226 C1214 0.960 . S
H1227 C1214 0.962 . S
H1228 C1214 0.960 . S
H1229 C1215 0.961 . S
H1230 C1215 0.961 . S
H1231 C1215 0.961 . S
H1232 C1216 0.931 . S
H1233 C1221 0.930 . S
H1234 C1222 0.956 . S
H1235 C1222 0.961 . S
H1236 C1222 0.961 . S
H1237 C1223 0.958 . S
H1238 C1223 0.961 . S
H1239 C1223 0.960 . S
C473 C255 2.181 1_545 S
C481 C321 2.332 1_545 S
C513 C361 2.358 . S
C505 C294 2.102 . S
C545 C401 2.349 . S
C537 C177 2.169 . S
C577 C441 2.340 1_455 S
C569 C216 2.185 . S
C609 C330 2.341 1_565 S
C601 C99 2.133 . S
C633 C138 2.107 . S
C641 C370 2.359 . S
C665 C21 2.168 . S
C673 C410 2.341 . S
C697 C60 2.186 . S
C705 C450 2.343 1_655 S
C737 C327 0.402 . S
C729 C196 0.520 1_455 S
C769 C367 0.403 . S
C761 C235 0.521 1_545 S
C801 C407 0.412 . S
C793 C289 0.387 . S
C825 C157 0.328 . S
C833 C447 0.458 . S
C857 C40 0.511 . S
C865 C318 0.412 . S
C897 C358 0.478 . S
C889 C79 0.347 . S
C929 C398 0.458 . S
C921 C133 0.324 . S
C953 C1 0.377 . S
C961 C438 0.472 . S
C985 C211 2.844 . S
C993 C331 3.216 . S
C1017 C250 2.774 . S
C1025 C371 3.196 . S
C1057 C411 3.203 . S
C1049 C274 2.806 . S
C1089 C451 3.203 . S
C1081 C172 2.812 . S
C1113 C55 2.837 1_655 S
C1121 C322 3.221 . S
C1153 C362 3.199 . S
C1145 C94 2.826 1_565 S
C1185 C402 3.194 . S
C1177 C118 2.819 . S
C1209 C16 2.838 . S
C1217 C442 3.211 . S
