# Generated by pormake.
# Topology anh, (6,3)-cn, num edge types: 1
# Building blocks:
#     Node 0, Type 0, BuildingBlock: BETGAK_clean_sbu_0, # of connection points: 6
#     Node 1, Type 0, BuildingBlock: BETGAK_clean_sbu_0, # of connection points: 6
#     Node 2, Type 0, BuildingBlock: BETGAK_clean_sbu_0, # of connection points: 6
#     Node 3, Type 1, BuildingBlock: BETDIP_clean_linker_0, # of connection points: 3
#     Node 4, Type 1, BuildingBlock: BETDIP_clean_linker_0, # of connection points: 3
#     Node 5, Type 1, BuildingBlock: BETDIP_clean_linker_0, # of connection points: 3
#     Node 6, Type 1, BuildingBlock: BETDIP_clean_linker_0, # of connection points: 3
#     Node 7, Type 1, BuildingBlock: BETDIP_clean_linker_0, # of connection points: 3
#     Node 8, Type 1, BuildingBlock: BETDIP_clean_linker_0, # of connection points: 3
#     Edge 9, Type (0, 1), BuildingBlock: EZIPEK_clean_linker_0, # of connection points: 2
#     Edge 10, Type (0, 1), BuildingBlock: EZIPEK_clean_linker_0, # of connection points: 2
#     Edge 11, Type (0, 1), BuildingBlock: EZIPEK_clean_linker_0, # of connection points: 2
#     Edge 12, Type (0, 1), BuildingBlock: EZIPEK_clean_linker_0, # of connection points: 2
#     Edge 13, Type (0, 1), BuildingBlock: EZIPEK_clean_linker_0, # of connection points: 2
#     Edge 14, Type (0, 1), BuildingBlock: EZIPEK_clean_linker_0, # of connection points: 2
#     Edge 15, Type (0, 1), BuildingBlock: EZIPEK_clean_linker_0, # of connection points: 2
#     Edge 16, Type (0, 1), BuildingBlock: EZIPEK_clean_linker_0, # of connection points: 2
#     Edge 17, Type (0, 1), BuildingBlock: EZIPEK_clean_linker_0, # of connection points: 2
#     Edge 18, Type (0, 1), BuildingBlock: EZIPEK_clean_linker_0, # of connection points: 2
#     Edge 19, Type (0, 1), BuildingBlock: EZIPEK_clean_linker_0, # of connection points: 2
#     Edge 20, Type (0, 1), BuildingBlock: EZIPEK_clean_linker_0, # of connection points: 2
#     Edge 21, Type (0, 1), BuildingBlock: EZIPEK_clean_linker_0, # of connection points: 2
#     Edge 22, Type (0, 1), BuildingBlock: EZIPEK_clean_linker_0, # of connection points: 2
#     Edge 23, Type (0, 1), BuildingBlock: EZIPEK_clean_linker_0, # of connection points: 2
#     Edge 24, Type (0, 1), BuildingBlock: EZIPEK_clean_linker_0, # of connection points: 2
#     Edge 25, Type (0, 1), BuildingBlock: EZIPEK_clean_linker_0, # of connection points: 2
#     Edge 26, Type (0, 1), BuildingBlock: EZIPEK_clean_linker_0, # of connection points: 2
# Relax obj value: 0.226
# Max RMSD: 0.206
# Mean RMSD: 0.136
data_MOF--net-anh--node1-BETGAK_clean_sbu_0--node2-BETDIP_clean_linker_0--edge1-EZIPEK_clean_linker_0
_symmetry_space_group_name_H-M    P1
_symmetry_Int_Tables_number       1
_symmetry_cell_setting            triclinic
loop_
_symmetry_equiv_pos_as_xyz
'x, y, z'
_cell_length_a     22.368452
_cell_length_b     29.497588
_cell_length_c     36.71103
_cell_angle_alpha  94.421154
_cell_angle_beta   89.25116
_cell_angle_gamma 132.90672
loop_
_atom_site_label
_atom_site_type_symbol
_atom_site_fract_x
_atom_site_fract_y
_atom_site_fract_z
_atom_type_partial_charge
La0 La 0.25099 0.60001 0.14482 0.0
La1 La 1.12275 0.61009 0.15888 0.0
C2 C 0.33363 0.58328 0.11141 0.0
C3 C 0.34454 0.54031 0.11525 0.0
C4 C 0.31123 0.50248 0.14441 0.0
C5 C 0.32111 0.46095 0.14761 0.0
C6 C 0.3638 0.45681 0.12148 0.0
C7 C 0.39726 0.49488 0.09252 0.0
C8 C 0.38774 0.53647 0.08943 0.0
C9 C 0.22795 0.6011 0.21573 0.0
C10 C 0.31243 0.73438 0.16006 0.0
C11 C 1.02204 0.61516 0.18209 0.0
C12 C 0.93262 0.56163 0.17925 0.0
C13 C 0.88302 0.56292 0.15717 0.0
C14 C 0.80645 0.5073 0.14304 0.0
C15 C 0.7795 0.45006 0.15062 0.0
C16 C 0.82462 0.44891 0.17591 0.0
C17 C 0.90026 0.50426 0.19041 0.0
C18 C 1.13857 0.58664 0.09029 0.0
C19 C 1.06365 0.47715 0.15489 0.0
O20 O 0.26012 0.55728 0.09977 0.0
O21 O 0.36343 0.62551 0.1391 0.0
O22 O 0.27726 0.59648 0.20156 0.0
O23 O 0.19319 0.60198 0.18955 0.0
O24 O 0.33089 0.70129 0.14911 0.0
O25 O 0.23633 0.70837 0.16578 0.0
O26 O 1.05536 0.63453 0.15052 0.0
O27 O 1.064 0.61078 0.20369 0.0
O28 O 1.07028 0.56531 0.10333 0.0
O29 O 0.19494 0.62252 0.11476 0.0
O30 O 1.04664 0.51146 0.1639 0.0
O31 O 1.13658 0.50126 0.14409 0.0
H32 H 0.27732 0.5049 0.16448 0.0
H33 H 0.29479 0.43164 0.16999 0.0
H34 H 0.43022 0.49192 0.07212 0.0
H35 H 0.41356 0.5653 0.0668 0.0
H36 H 0.90656 0.60637 0.14809 0.0
H37 H 0.77185 0.50873 0.1236 0.0
H38 H 0.8044 0.40509 0.18214 0.0
H39 H 0.93635 0.50135 0.20757 0.0
La40 La 0.77116 0.10834 0.47771 0.0
La41 La 0.65274 0.12414 0.46838 0.0
C42 C 0.8433 0.0793 0.50412 0.0
C43 C 0.81937 1.02185 0.51479 0.0
C44 C 0.85946 1.00369 0.50034 0.0
C45 C 0.83833 0.94974 0.51032 0.0
C46 C 0.7769 0.91335 0.53493 0.0
C47 C 0.73637 0.93109 0.54931 0.0
C48 C 0.75751 0.98505 0.53937 0.0
C49 C 0.74767 0.11839 0.41005 0.0
C50 C 0.57791 0.98728 0.46405 0.0
C51 C 0.58288 0.15911 0.44935 0.0
C52 C 0.60187 0.21649 0.46154 0.0
C53 C 0.65243 0.2524 0.49328 0.0
C54 C 0.66986 0.30631 0.50586 0.0
C55 C 0.63699 0.32515 0.48691 0.0
C56 C 0.58792 0.29017 0.45465 0.0
C57 C 0.57036 0.23592 0.44202 0.0
C58 C 0.6796 0.11642 0.53625 0.0
C59 C 0.84715 0.24441 0.47459 0.0
O60 O 0.83746 0.08201 0.46907 0.0
O61 O 0.81719 0.1012 0.52394 0.0
O62 O 0.81535 0.13698 0.42354 0.0
O63 O 0.69371 0.08985 0.43333 0.0
O64 O 0.65151 1.01115 0.47521 0.0
O65 O 0.5661 1.02384 0.45607 0.0
O66 O 0.55702 0.12135 0.47471 0.0
O67 O 0.63863 0.16659 0.43049 0.0
O68 O 0.6126 0.09967 0.52397 0.0
O69 O 0.73059 0.14283 0.51188 0.0
O70 O 0.77175 0.22001 0.46769 0.0
O71 O 0.8622 0.20997 0.48294 0.0
H72 H 0.90738 0.03143 0.48143 0.0
H73 H 0.87015 0.93653 0.49909 0.0
H74 H 0.68884 0.90337 0.56837 0.0
H75 H 0.72572 0.99801 0.55107 0.0
H76 H 0.67738 0.23809 0.50864 0.0
H77 H 0.70781 0.33279 0.53077 0.0
H78 H 0.56218 0.30427 0.43975 0.0
H79 H 0.53166 0.2089 0.41737 0.0
La80 La 0.74785 0.60873 0.84579 0.0
La81 La 0.62424 0.46823 0.84136 0.0
C82 C 0.82645 0.7178 0.83018 0.0
C83 C 0.8051 0.75214 0.81822 0.0
C84 C 0.84264 0.81043 0.83621 0.0
C85 C 0.82493 0.84438 0.82443 0.0
C86 C 0.76954 0.8204 0.79447 0.0
C87 C 0.73128 0.76194 0.77668 0.0
C88 C 0.74889 0.72803 0.78843 0.0
C89 C 0.70868 0.55853 0.90798 0.0
C90 C 0.55313 0.53264 0.84449 0.0
C91 C 0.5506 0.35891 0.85438 0.0
C92 C 0.56824 0.32025 0.84317 0.0
C93 C 0.61459 0.3337 0.81258 0.0
C94 C 0.63232 0.29778 0.80164 0.0
C95 C 0.6039 0.24778 0.82108 0.0
C96 C 0.55835 0.23455 0.85199 0.0
C97 C 0.5407 0.27078 0.86303 0.0
C98 C 0.66088 0.51328 0.77765 0.0
C99 C 0.82156 0.54799 0.84623 0.0
O100 O 0.81021 0.70172 0.86373 0.0
O101 O 0.80744 0.67327 0.80679 0.0
O102 O 0.78143 0.61115 0.90268 0.0
O103 O 0.66196 0.53993 0.88055 0.0
O104 O 0.62989 0.58539 0.8403 0.0
O105 O 0.53746 0.48085 0.8485 0.0
O106 O 0.52842 0.3725 0.82764 0.0
O107 O 0.60506 0.4076 0.87732 0.0
O108 O 0.59241 0.45879 0.78374 0.0
O109 O 0.70885 0.53627 0.80549 0.0
O110 O 0.74434 0.49388 0.84786 0.0
O111 O 0.83723 0.59946 0.84189 0.0
H112 H 0.88622 0.82991 0.85916 0.0
H113 H 0.85499 0.88955 0.83837 0.0
H114 H 0.6884 0.7429 0.7535 0.0
H115 H 0.7191 0.68328 0.77394 0.0
H116 H 0.63659 0.37182 0.79697 0.0
H117 H 0.66749 0.30853 0.77775 0.0
H118 H 0.53608 0.19604 0.86726 0.0
H119 H 0.50542 0.26009 0.88686 0.0
H120 H 0.61884 0.04506 0.14925 0.0
H121 H 0.77623 0.16455 0.24469 0.0
H122 H 0.57118 0.97152 0.25394 0.0
H123 H 0.77829 0.23249 0.21625 0.0
C124 C 0.7937 0.22584 0.18944 0.0
C125 C 0.63508 0.05153 0.17809 0.0
C126 C 0.58755 0.99989 0.19933 0.0
C127 C 0.70299 0.11171 0.19435 0.0
C128 C 0.72322 0.11934 0.2318 0.0
C129 C 0.67452 0.06949 0.25345 0.0
C130 C 0.60802 1.01006 0.23703 0.0
N131 N 0.75065 0.16425 0.17325 0.0
H132 H 0.71361 0.58353 0.52292 0.0
H133 H 0.7329 0.65567 0.63325 0.0
H134 H 0.69715 0.49311 0.61433 0.0
H135 H 0.66144 0.67439 0.6038 0.0
C136 C 0.69674 0.69444 0.57974 0.0
C137 C 0.71611 0.58186 0.5522 0.0
C138 C 0.70641 0.53413 0.56587 0.0
C139 C 0.7242 0.62527 0.57626 0.0
C140 C 0.72594 0.62222 0.61423 0.0
C141 C 0.71638 0.57473 0.62794 0.0
C142 C 0.70712 0.53103 0.60375 0.0
N143 N 0.72791 0.67033 0.56174 0.0
H144 H 1.12995 0.54102 0.82664 0.0
H145 H 0.23962 0.55483 0.92837 0.0
H146 H 1.05476 0.56164 0.93071 0.0
H147 H 0.35188 0.60072 0.8933 0.0
C148 C 0.32171 0.56548 0.8702 0.0
C149 C 1.13482 0.5458 0.85625 0.0
C150 C 1.08387 0.55095 0.8764 0.0
C151 C 0.1933 0.54814 0.87473 0.0
C152 C 0.19822 0.55471 0.91331 0.0
C153 C 0.14891 0.55999 0.93309 0.0
C154 C 1.09241 0.55766 0.91474 0.0
N155 N 0.2447 0.54212 0.85506 0.0
H156 H 0.26272 0.67888 0.47948 0.0
H157 H 0.15158 0.54922 0.38267 0.0
H158 H 0.33892 0.74463 0.37254 0.0
H159 H 1.0366 0.50005 0.42095 0.0
C160 C 1.06809 0.5006 0.44351 0.0
C161 C 0.25774 0.66971 0.45001 0.0
C162 C 0.30923 0.71969 0.42796 0.0
C163 C 0.19933 0.60781 0.43384 0.0
C164 C 0.19388 0.59645 0.3955 0.0
C165 C 0.24323 0.64571 0.37338 0.0
C166 C 0.30032 0.70672 0.3898 0.0
N167 N 1.14805 0.55725 0.45612 0.0
H168 H 0.69034 0.07421 0.79291 0.0
H169 H 0.72691 0.03075 0.68485 0.0
H170 H 0.68005 0.14966 0.70006 0.0
H171 H 0.66762 0.94015 0.70932 0.0
C172 C 0.69567 0.95568 0.73685 0.0
C173 C 0.69553 0.07962 0.76385 0.0
C174 C 0.68474 0.11636 0.74921 0.0
C175 C 0.70936 0.04761 0.74086 0.0
C176 C 0.71505 0.05425 0.70305 0.0
C177 C 0.70491 0.09128 0.68841 0.0
C178 C 0.68997 0.1223 0.71154 0.0
N179 N 0.71639 1.00864 0.75639 0.0
H180 H 0.42019 0.25669 0.08521 0.0
H181 H 0.55931 0.32109 -0.01133 0.0
H182 H 0.52695 0.43282 0.04995 0.0
H183 H 0.50115 0.17979 0.06248 0.0
C184 C 0.51858 0.22416 0.06168 0.0
C185 C 0.45665 0.292 0.06626 0.0
C186 C 0.46785 0.34493 0.07016 0.0
C187 C 0.49018 0.28361 0.03697 0.0
C188 C 0.53462 0.3282 0.01158 0.0
C189 C 0.54949 0.38294 0.01662 0.0
C190 C 0.5173 0.39132 0.04642 0.0
N191 N 0.48254 0.23169 0.03416 0.0
C192 C 0.44681 0.43239 0.1375 0.0
C193 C 0.37277 0.41175 0.1228 0.0
C194 C 0.34415 0.3258 0.08608 0.0
C195 C 0.42363 0.35188 0.09663 0.0
N196 N 0.53858 0.41497 0.13995 0.0
N197 N 0.23883 0.32878 0.09429 0.0
C198 C 0.47027 0.39968 0.12554 0.0
C199 C 0.31678 0.35432 0.10121 0.0
N200 N 0.49638 0.48534 0.16087 0.0
N201 N 0.2983 0.27752 0.05931 0.0
H202 H 0.21848 0.34983 0.10495 0.0
H203 H 0.19273 0.2847 0.08095 0.0
H204 H 0.31553 0.25435 0.04853 0.0
H205 H 0.24463 0.26158 0.0469 0.0
H206 H 0.55513 0.50691 0.1699 0.0
H207 H 0.47844 0.50847 0.17078 0.0
H208 H 0.57405 0.4473 0.16237 0.0
H209 H 0.5559 0.39112 0.13074 0.0
C210 C 0.98152 0.33792 0.44977 0.0
C211 C 0.91567 0.31325 0.47306 0.0
C212 C 0.95974 0.41614 0.48222 0.0
C213 C 1.0253 0.44046 0.4592 0.0
N214 N 1.11097 0.4295 0.42848 0.0
N215 N 0.85697 0.33344 0.51931 0.0
C216 C 1.04052 0.40299 0.44572 0.0
C217 C 0.90954 0.35393 0.49176 0.0
N218 N 0.98475 0.29902 0.42928 0.0
N219 N 0.94397 0.452 0.49415 0.0
H220 H 0.82094 0.28881 0.5276 0.0
H221 H 0.85482 0.36221 0.53629 0.0
H222 H 0.98181 0.49858 0.48914 0.0
H223 H 0.8914 0.4348 0.50731 0.0
H224 H 1.02477 0.31329 0.40841 0.0
H225 H 0.94344 0.25134 0.43093 0.0
H226 H 1.12998 0.40628 0.42134 0.0
H227 H 0.1544 0.47663 0.42443 0.0
C228 C 0.69445 0.85592 0.79778 0.0
C229 C 0.75287 0.85715 0.78086 0.0
C230 C 0.77103 0.92071 0.73449 0.0
C231 C 0.71632 0.92271 0.75265 0.0
N232 N 0.62964 0.8965 0.80279 0.0
N233 N 0.85563 0.897 0.73674 0.0
C234 C 0.67956 0.89193 0.78484 0.0
C235 C 0.7936 0.89128 0.75017 0.0
N236 N 0.65075 0.81814 0.82517 0.0
N237 N 0.80089 0.94653 0.70203 0.0
H238 H 0.87329 0.87555 0.74729 0.0
H239 H 0.89392 0.92663 0.71703 0.0
H240 H 0.78995 0.97178 0.69065 0.0
H241 H 0.83264 0.94 0.68513 0.0
H242 H 0.60068 0.80921 0.83593 0.0
H243 H 0.66098 0.79194 0.83571 0.0
H244 H 0.60925 0.88201 0.82872 0.0
H245 H 0.61116 0.91753 0.79255 0.0
C246 C 0.72699 0.38263 0.09149 0.0
C247 C 0.71225 0.39199 0.12787 0.0
C248 C 0.57666 0.28615 0.12283 0.0
C249 C 0.58855 0.27902 0.08559 0.0
N250 N 0.67254 0.31843 0.03359 0.0
N251 N 0.62196 0.35666 0.17736 0.0
C252 C 0.66317 0.32677 0.06969 0.0
C253 C 0.6369 0.34462 0.14344 0.0
N254 N 0.80308 0.42616 0.07835 0.0
N255 N 0.50775 0.23683 0.13836 0.0
H256 H 0.66469 0.39925 0.19297 0.0
H257 H 0.56543 0.32671 0.18891 0.0
H258 H 0.46208 0.19378 0.12369 0.0
H259 H 0.49838 0.23676 0.16619 0.0
H260 H 0.82042 0.41999 0.05344 0.0
H261 H 0.85217 0.46729 0.09352 0.0
H262 H 0.72037 0.35367 0.01871 0.0
H263 H 0.63003 0.27612 0.01771 0.0
C264 C 0.50072 0.87506 0.47772 0.0
C265 C 0.5079 0.91775 0.45718 0.0
C266 C 0.37197 0.82968 0.42846 0.0
C267 C 0.37212 0.78671 0.44313 0.0
N268 N 0.44838 0.77112 0.47671 0.0
N269 N 0.45855 0.92759 0.40255 0.0
C270 C 0.43965 0.80997 0.46651 0.0
C271 C 0.44559 0.893 0.42973 0.0
N272 N 0.54944 0.89537 0.50851 0.0
N273 N 0.30204 0.80992 0.41241 0.0
H274 H 0.51572 0.97061 0.39829 0.0
H275 H 0.4158 0.90918 0.38089 0.0
H276 H 0.24625 0.76391 0.41191 0.0
H277 H 0.29837 0.8407 0.40342 0.0
H278 H 0.54112 0.86508 0.52567 0.0
H279 H 0.59142 0.94146 0.51941 0.0
H280 H 0.50114 0.78732 0.49048 0.0
H281 H 0.40682 0.7237 0.46841 0.0
C282 C 0.56036 0.15246 0.78548 0.0
C283 C 0.62052 0.20861 0.80784 0.0
C284 C 0.72205 0.20182 0.79449 0.0
C285 C 0.66155 0.14521 0.77256 0.0
N286 N 0.51965 0.05908 0.75386 0.0
N287 N 0.75207 0.27958 0.84047 0.0
C288 C 0.57944 0.11807 0.77027 0.0
C289 C 0.69938 0.23094 0.81458 0.0
N290 N 0.48633 0.13352 0.77739 0.0
N291 N 0.80172 0.22915 0.79477 0.0
H292 H 0.7372 0.302 0.85546 0.0
H293 H 0.80745 0.29432 0.8493 0.0
H294 H 0.82029 0.20864 0.78089 0.0
H295 H 0.85015 0.27389 0.80671 0.0
H296 H 0.44375 0.09731 0.75771 0.0
H297 H 0.46931 0.15668 0.78862 0.0
H298 H 0.45753 0.03425 0.75447 0.0
H299 H 0.53161 0.03262 0.74237 0.0
C300 C 0.70432 0.80095 0.52293 0.0
C301 C 0.75603 0.85706 0.54628 0.0
C302 C 0.76329 0.80504 0.59248 0.0
C303 C 0.71714 0.75029 0.56793 0.0
N304 N 0.64729 0.69585 0.50906 0.0
N305 N 0.84421 0.91604 0.60075 0.0
C306 C 0.68909 0.74827 0.53282 0.0
C307 C 0.78793 0.86005 0.58044 0.0
N308 N 0.66724 0.79747 0.49207 0.0
N309 N 0.78318 0.8044 0.62741 0.0
H310 H 0.86304 0.95727 0.59309 0.0
H311 H 0.87719 0.9228 0.6237 0.0
H312 H 0.77057 0.76628 0.63678 0.0
H313 H 0.80755 0.84018 0.64794 0.0
H314 H 0.62187 0.75633 0.47591 0.0
H315 H 0.67739 0.83525 0.48391 0.0
H316 H 0.6342 0.69393 0.48158 0.0
H317 H 0.62875 0.65453 0.51628 0.0
C318 C 0.88669 0.50224 0.83324 0.0
C319 C 0.89294 0.55114 0.84951 0.0
C320 C 1.03595 0.6071 0.86958 0.0
C321 C 1.02365 0.55352 0.86001 0.0
N322 N 0.93121 0.44658 0.83502 0.0
N323 N 0.97478 0.64695 0.88972 0.0
C324 C 0.94736 0.50017 0.84229 0.0
C325 C 0.96832 0.60307 0.8691 0.0
N326 N 0.82512 0.45919 0.80762 0.0
N327 N 1.11309 0.66246 0.87954 0.0
H328 H 0.92696 0.64511 0.89283 0.0
H329 H 1.02517 0.68162 0.90743 0.0
H330 H 0.16369 0.66706 0.87981 0.0
H331 H 1.12782 0.70453 0.88347 0.0
H332 H 0.8212 0.42573 0.79261 0.0
H333 H 0.78397 0.4618 0.79809 0.0
H334 H 0.87378 0.4044 0.82572 0.0
H335 H 0.97392 0.44354 0.84059 0.0
C336 C 0.44747 0.83875 0.14406 0.0
C337 C 0.38038 0.8039 0.1672 0.0
C338 C 0.43902 0.90212 0.20178 0.0
C339 C 0.51351 0.93478 0.18393 0.0
N340 N 0.59175 0.92928 0.14094 0.0
N341 N 0.32647 0.80447 0.22483 0.0
C342 C 0.51864 0.90192 0.15562 0.0
C343 C 0.37952 0.8361 0.19781 0.0
N344 N 0.44268 0.81267 0.11052 0.0
N345 N 0.42506 0.9341 0.22277 0.0
H346 H 0.28787 0.75661 0.22565 0.0
H347 H 0.32885 0.82689 0.24895 0.0
H348 H 0.46615 0.98257 0.22522 0.0
H349 H 0.36904 0.91227 0.23412 0.0
H350 H 0.48736 0.83796 0.09156 0.0
H351 H 0.38999 0.76825 0.09997 0.0
H352 H 0.59974 0.90489 0.1229 0.0
H353 H 0.64593 0.97438 0.14933 0.0
C354 C 0.58923 0.3716 0.52123 0.0
C355 C 0.65158 0.38016 0.50231 0.0
C356 C 0.74985 0.49148 0.52284 0.0
C357 C 0.68683 0.48308 0.54086 0.0
N358 N 0.54329 0.41927 0.55021 0.0
N359 N 0.7856 0.44894 0.47835 0.0
C360 C 0.60535 0.42436 0.53772 0.0
C361 C 0.73023 0.4405 0.50095 0.0
N362 N 0.51603 0.31291 0.52514 0.0
N363 N 0.82883 0.54733 0.52793 0.0
H364 H 0.77285 0.41241 0.462 0.0
H365 H 0.84126 0.49245 0.47345 0.0
H366 H 0.84513 0.58596 0.54325 0.0
H367 H 0.87879 0.55433 0.51907 0.0
H368 H 0.47208 0.30358 0.54236 0.0
H369 H 0.50137 0.27286 0.51337 0.0
H370 H 0.48171 0.37911 0.54539 0.0
H371 H 0.55295 0.45704 0.56251 0.0
C372 C 0.48994 0.57656 0.82699 0.0
C373 C 0.48482 0.53377 0.84658 0.0
C374 C 0.35406 0.49775 0.87003 0.0
C375 C 0.36806 0.54747 0.85578 0.0
N376 N 0.45639 0.63926 0.82371 0.0
N377 N 0.41217 0.45913 0.89232 0.0
C378 C 0.43805 0.58819 0.83515 0.0
C379 C 0.4162 0.49516 0.86919 0.0
N380 N 0.54161 0.60438 0.79911 0.0
N381 N 0.28114 0.45294 0.88506 0.0
H382 H 0.45589 0.45664 0.89496 0.0
H383 H 0.36934 0.43644 0.91224 0.0
H384 H 0.23568 0.45423 0.88659 0.0
H385 H 0.26261 0.41169 0.89239 0.0
H386 H 0.5422 0.63103 0.78178 0.0
H387 H 0.57677 0.59497 0.79024 0.0
H388 H 0.51191 0.67518 0.81279 0.0
H389 H 0.41798 0.64746 0.82731 0.0
C390 C 0.91877 0.37404 0.14081 0.0
C391 C 0.99741 0.40866 0.15825 0.0
C392 C 0.94462 0.31431 0.18563 0.0
C393 C 0.86421 0.28326 0.17277 0.0
N394 N 0.77276 0.28431 0.14009 0.0
N395 N 1.0825 0.41295 0.20122 0.0
C396 C 0.85087 0.31309 0.15055 0.0
C397 C 1.01009 0.37886 0.18128 0.0
N398 N 0.90903 0.39869 0.11419 0.0
N399 N 0.95815 0.28193 0.2023 0.0
H400 H 1.1312 0.4605 0.19999 0.0
H401 H 1.09199 0.39534 0.22151 0.0
H402 H 0.91125 0.23483 0.20597 0.0
H403 H 1.01626 0.29988 0.20918 0.0
H404 H 0.85639 0.37238 0.09708 0.0
H405 H 0.95609 0.44347 0.10673 0.0
H406 H 0.75796 0.30673 0.12814 0.0
H407 H 0.72202 0.23871 0.1453 0.0
C408 C 0.19901 0.63448 0.03077 0.0
C409 C 0.1499 0.58101 0.05065 0.0
C410 C 1.10328 0.51382 -0.00667 0.0
C411 C 0.15478 0.56723 0.97379 0.0
N412 N 0.26332 0.67832 0.97393 0.0
N413 N 1.07053 0.47143 0.05187 0.0
C414 C 0.2067 0.62759 -0.00739 0.0
C415 C 1.10639 0.52112 0.03218 0.0
N416 N 0.23409 0.69127 0.0477 0.0
N417 N 1.04967 0.45602 0.9747 0.0
H418 H 1.07384 0.47555 0.08027 0.0
H419 H 1.04495 0.42776 0.04036 0.0
H420 H 1.04796 0.44859 0.94633 0.0
H421 H 1.00326 0.41579 0.98703 0.0
H422 H 0.2628 0.73051 0.03378 0.0
H423 H 0.22879 0.69853 0.0753 0.0
H424 H 0.30896 0.72304 0.98665 0.0
H425 H 0.2691 0.67497 0.94583 0.0
C426 C 0.71707 0.05635 0.35068 0.0
C427 C 0.72772 0.10505 0.3702 0.0
C428 C 0.69142 0.12341 0.31443 0.0
C429 C 0.69138 0.08053 0.29386 0.0
N430 N 0.7213 1.01562 0.29191 0.0
N431 N 0.74503 0.19493 0.36879 0.0
C432 C 0.70878 0.04938 0.31184 0.0
C433 C 0.72073 0.14156 0.35157 0.0
N434 N 0.71367 1.01619 0.36914 0.0
N435 N 0.66066 0.14509 0.29901 0.0
H436 H 0.77023 0.211 0.39555 0.0
H437 H 0.74817 0.22626 0.35528 0.0
H438 H 0.63473 0.13062 0.27239 0.0
H439 H 0.65279 0.17205 0.31398 0.0
H440 H 0.6975 0.97609 0.35638 0.0
H441 H 0.71977 1.01983 0.39759 0.0
H442 H 0.74202 0.9971 0.30365 0.0
H443 H 0.71909 1.01141 0.26339 0.0
C444 C 0.621 0.52904 0.72016 0.0
C445 C 0.6813 0.537 0.74095 0.0
C446 C 0.7714 0.58257 0.68957 0.0
C447 C 0.70669 0.56623 0.66752 0.0
N448 N 0.56579 0.51641 0.66004 0.0
N449 N 0.8088 0.56104 0.74245 0.0
C450 C 0.63048 0.53775 0.68236 0.0
C451 C 0.7558 0.5618 0.72513 0.0
N452 N 0.55506 0.51418 0.73661 0.0
N453 N 0.84775 0.61787 0.67645 0.0
H454 H 0.7982 0.54266 0.76731 0.0
H455 H 0.85942 0.57251 0.73028 0.0
H456 H 0.86073 0.633 0.65027 0.0
H457 H 0.89934 0.63682 0.69263 0.0
H458 H 0.5146 0.51506 0.72382 0.0
H459 H 0.5448 0.50683 0.76417 0.0
H460 H 0.50617 0.48834 0.66846 0.0
H461 H 0.57 0.52228 0.63218 0.0
C462 C 0.62637 0.05119 0.58911 0.0
C463 C 0.69241 0.10722 0.57376 0.0
C464 C 0.77339 0.14503 0.63182 0.0
C465 C 0.70299 0.09388 0.6483 0.0
N466 N 0.55971 1.00051 0.64394 0.0
N467 N 0.82712 0.21132 0.58252 0.0
C468 C 0.62882 0.04737 0.62726 0.0
C469 C 0.76613 0.15493 0.59542 0.0
N470 N 0.56214 1.00062 0.5671 0.0
N471 N 0.84727 0.18415 0.65103 0.0
H472 H 0.82498 0.22199 0.55657 0.0
H473 H 0.87738 0.24984 0.59876 0.0
H474 H 0.85414 0.1787 0.67796 0.0
H475 H 0.90248 0.21831 0.63929 0.0
H476 H 0.51703 0.95673 0.57619 0.0
H477 H 0.5583 1.00034 0.53886 0.0
H478 H 0.50162 0.96993 0.6309 0.0
H479 H 0.55924 0.99483 0.67167 0.0
C480 C 0.60315 0.50025 0.95318 0.0
C481 C 0.67961 0.52443 0.94116 0.0
C482 C 0.67809 0.46383 0.98397 0.0
C483 C 0.59483 0.43086 -0.00997 0.0
N484 N 0.47343 0.41063 0.97392 0.0
N485 N 0.78876 0.52581 0.94334 0.0
C486 C 0.556 0.4472 0.97289 0.0
C487 C 0.71743 0.50579 0.95626 0.0
N488 N 0.57634 0.52894 0.94644 0.0
N489 N 0.72039 0.45693 0.00546 0.0
H490 H 0.82063 0.55793 0.92403 0.0
H491 H 0.81343 0.50759 0.95022 0.0
H492 H 0.6944 0.42844 0.02687 0.0
H493 H 0.78315 0.48411 0.00441 0.0
H494 H 0.52452 0.51657 0.95786 0.0
H495 H 0.61092 0.56931 0.9329 0.0
H496 H 0.44198 0.4184 0.95924 0.0
H497 H 0.43527 0.36889 0.9861 0.0
C498 C 0.30585 0.65783 0.2754 0.0
C499 C 0.22923 0.6163 0.25542 0.0
C500 C 0.16216 0.60181 0.31249 0.0
C501 C 0.23717 0.63412 0.33274 0.0
N502 N 0.37688 0.6797 0.33242 0.0
N503 N 1.08203 0.53919 0.25665 0.0
C504 C 0.30811 0.65834 0.3139 0.0
C505 C 0.15644 0.58576 0.27433 0.0
N506 N 0.37662 0.69865 0.25787 0.0
N507 N 1.09721 0.58804 0.32923 0.0
H508 H 1.07581 0.52403 0.22931 0.0
H509 H 1.02755 0.51159 0.27009 0.0
H510 H 1.09977 0.60106 0.35681 0.0
H511 H 1.04388 0.56955 0.31482 0.0
H512 H 0.43332 0.7331 0.27189 0.0
H513 H 0.37737 0.70334 0.22995 0.0
H514 H 0.42753 0.69285 0.31916 0.0
H515 H 0.37979 0.67756 0.36049 0.0
loop_
_geom_bond_atom_site_label_1
_geom_bond_atom_site_label_2
_geom_bond_distance
_geom_bond_site_symmetry_2
_ccdc_geom_bond_type
La0 C2 2.928 . S
La0 O20 2.521 . S
La0 O21 2.628 . S
La0 O22 2.554 . S
La0 O23 2.757 . S
La0 O24 2.470 . S
La0 O29 2.482 . S
La0 O31 2.503 1_455 S
La1 C11 2.928 1_455 S
La1 O23 2.482 . S
La1 O25 2.503 . S
La1 O26 2.521 1_455 S
La1 O27 2.628 1_455 S
La1 O28 2.554 . S
La1 O29 2.757 . S
La1 O30 2.470 1_455 S
C2 La0 2.928 . S
C2 C3 1.503 . S
C2 O20 1.261 . S
C2 O21 1.243 . S
C3 C2 1.503 . S
C3 C4 1.394 . S
C3 C8 1.373 . S
C4 C3 1.394 . S
C4 C5 1.380 . S
C4 H32 0.930 . S
C5 C4 1.380 . S
C5 C6 1.376 . S
C5 H33 0.930 . S
C6 C5 1.376 . S
C6 C7 1.370 . S
C7 C6 1.370 . S
C7 C8 1.396 . S
C7 H34 0.929 . S
C8 C3 1.373 . S
C8 C7 1.396 . S
C8 H35 0.929 . S
C9 O22 1.240 . S
C9 O23 1.289 . S
C10 O24 1.258 . S
C10 O25 1.256 . S
C11 La1 2.928 1_655 S
C11 C12 1.503 . S
C11 O26 1.261 . S
C11 O27 1.243 . S
C12 C11 1.503 . S
C12 C13 1.394 . S
C12 C17 1.373 . S
C13 C12 1.394 . S
C13 C14 1.380 . S
C13 H36 0.930 . S
C14 C13 1.380 . S
C14 C15 1.376 . S
C14 H37 0.930 . S
C15 C14 1.376 . S
C15 C16 1.370 . S
C16 C15 1.370 . S
C16 C17 1.396 . S
C16 H38 0.929 . S
C17 C12 1.373 . S
C17 C16 1.396 . S
C17 H39 0.929 . S
C18 O28 1.240 . S
C18 O29 1.289 . S
C19 O30 1.258 . S
C19 O31 1.256 . S
O20 La0 2.521 . S
O20 C2 1.261 . S
O21 La0 2.628 . S
O21 C2 1.243 . S
O22 La0 2.554 . S
O22 C9 1.240 . S
O23 La0 2.757 . S
O23 La1 2.482 . S
O23 C9 1.289 . S
O24 La0 2.470 . S
O24 C10 1.258 . S
O25 La1 2.503 . S
O25 C10 1.256 . S
O26 La1 2.521 1_655 S
O26 C11 1.261 . S
O27 La1 2.628 1_655 S
O27 C11 1.243 . S
O28 La1 2.554 . S
O28 C18 1.240 . S
O29 La0 2.482 . S
O29 La1 2.757 . S
O29 C18 1.289 . S
O30 La1 2.470 1_655 S
O30 C19 1.258 . S
O31 La0 2.503 1_655 S
O31 C19 1.256 . S
H32 C4 0.930 . S
H33 C5 0.930 . S
H34 C7 0.929 . S
H35 C8 0.929 . S
H36 C13 0.930 . S
H37 C14 0.930 . S
H38 C16 0.929 . S
H39 C17 0.929 . S
La40 C42 2.928 1_545 S
La40 O60 2.521 1_545 S
La40 O61 2.628 1_545 S
La40 O62 2.550 . S
La40 O63 2.757 . S
La40 O64 2.470 1_545 S
La40 O69 2.482 . S
La40 O71 2.503 . S
La41 C51 2.928 . S
La41 O63 2.482 . S
La41 O65 2.503 1_545 S
La41 O66 2.521 . S
La41 O67 2.628 . S
La41 O68 2.554 . S
La41 O69 2.757 . S
La41 O70 2.470 . S
C42 La40 2.928 1_565 S
C42 C43 1.503 . S
C42 O60 1.261 . S
C42 O61 1.243 . S
C43 C42 1.503 . S
C43 C44 1.394 . S
C43 C48 1.373 . S
C44 C43 1.394 . S
C44 C45 1.380 . S
C44 H72 0.930 . S
C45 C44 1.380 . S
C45 C46 1.376 . S
C45 H73 0.930 . S
C46 C45 1.376 . S
C46 C47 1.370 . S
C47 C46 1.370 . S
C47 C48 1.396 . S
C47 H74 0.929 . S
C48 C43 1.373 . S
C48 C47 1.396 . S
C48 H75 0.929 . S
C49 O62 1.254 . S
C49 O63 1.289 . S
C50 O64 1.258 . S
C50 O65 1.256 . S
C51 La41 2.928 . S
C51 C52 1.503 . S
C51 O66 1.261 . S
C51 O67 1.243 . S
C52 C51 1.503 . S
C52 C53 1.394 . S
C52 C57 1.373 . S
C53 C52 1.394 . S
C53 C54 1.380 . S
C53 H76 0.930 . S
C54 C53 1.380 . S
C54 C55 1.376 . S
C54 H77 0.930 . S
C55 C54 1.376 . S
C55 C56 1.370 . S
C56 C55 1.370 . S
C56 C57 1.396 . S
C56 H78 0.929 . S
C57 C52 1.373 . S
C57 C56 1.396 . S
C57 H79 0.929 . S
C58 O68 1.240 . S
C58 O69 1.289 . S
C59 O70 1.258 . S
C59 O71 1.256 . S
O60 La40 2.521 1_565 S
O60 C42 1.261 . S
O61 La40 2.628 1_565 S
O61 C42 1.243 . S
O62 La40 2.550 . S
O62 C49 1.254 . S
O63 La40 2.757 . S
O63 La41 2.482 . S
O63 C49 1.289 . S
O64 La40 2.470 1_565 S
O64 C50 1.258 . S
O65 La41 2.503 1_565 S
O65 C50 1.256 . S
O66 La41 2.521 . S
O66 C51 1.261 . S
O67 La41 2.628 . S
O67 C51 1.243 . S
O68 La41 2.554 . S
O68 C58 1.240 . S
O69 La40 2.482 . S
O69 La41 2.757 . S
O69 C58 1.289 . S
O70 La41 2.470 . S
O70 C59 1.258 . S
O71 La40 2.503 . S
O71 C59 1.256 . S
H72 C44 0.930 . S
H73 C45 0.930 . S
H74 C47 0.929 . S
H75 C48 0.929 . S
H76 C53 0.930 . S
H77 C54 0.930 . S
H78 C56 0.929 . S
H79 C57 0.929 . S
La80 C82 2.928 . S
La80 O100 2.521 . S
La80 O101 2.628 . S
La80 O102 2.554 . S
La80 O103 2.757 . S
La80 O104 2.470 . S
La80 O109 2.482 . S
La80 O111 2.503 . S
La81 C91 2.928 . S
La81 O103 2.482 . S
La81 O105 2.503 . S
La81 O106 2.521 . S
La81 O107 2.628 . S
La81 O108 2.554 . S
La81 O109 2.757 . S
La81 O110 2.470 . S
C82 La80 2.928 . S
C82 C83 1.503 . S
C82 O100 1.261 . S
C82 O101 1.243 . S
C83 C82 1.503 . S
C83 C84 1.394 . S
C83 C88 1.373 . S
C84 C83 1.394 . S
C84 C85 1.380 . S
C84 H112 0.930 . S
C85 C84 1.380 . S
C85 C86 1.376 . S
C85 H113 0.930 . S
C86 C85 1.376 . S
C86 C87 1.370 . S
C87 C86 1.370 . S
C87 C88 1.396 . S
C87 H114 0.929 . S
C88 C83 1.373 . S
C88 C87 1.396 . S
C88 H115 0.929 . S
C89 O102 1.240 . S
C89 O103 1.289 . S
C90 O104 1.258 . S
C90 O105 1.256 . S
C91 La81 2.928 . S
C91 C92 1.503 . S
C91 O106 1.261 . S
C91 O107 1.243 . S
C92 C91 1.503 . S
C92 C93 1.394 . S
C92 C97 1.373 . S
C93 C92 1.394 . S
C93 C94 1.380 . S
C93 H116 0.930 . S
C94 C93 1.380 . S
C94 C95 1.376 . S
C94 H117 0.930 . S
C95 C94 1.376 . S
C95 C96 1.370 . S
C96 C95 1.370 . S
C96 C97 1.396 . S
C96 H118 0.929 . S
C97 C92 1.373 . S
C97 C96 1.396 . S
C97 H119 0.929 . S
C98 O108 1.240 . S
C98 O109 1.289 . S
C99 O110 1.258 . S
C99 O111 1.256 . S
O100 La80 2.521 . S
O100 C82 1.261 . S
O101 La80 2.628 . S
O101 C82 1.243 . S
O102 La80 2.554 . S
O102 C89 1.240 . S
O103 La80 2.757 . S
O103 La81 2.482 . S
O103 C89 1.289 . S
O104 La80 2.470 . S
O104 C90 1.258 . S
O105 La81 2.503 . S
O105 C90 1.256 . S
O106 La81 2.521 . S
O106 C91 1.261 . S
O107 La81 2.628 . S
O107 C91 1.243 . S
O108 La81 2.554 . S
O108 C98 1.240 . S
O109 La80 2.482 . S
O109 La81 2.757 . S
O109 C98 1.289 . S
O110 La81 2.470 . S
O110 C99 1.258 . S
O111 La80 2.503 . S
O111 C99 1.256 . S
H112 C84 0.930 . S
H113 C85 0.930 . S
H114 C87 0.929 . S
H115 C88 0.929 . S
H116 C93 0.930 . S
H117 C94 0.930 . S
H118 C96 0.929 . S
H119 C97 0.929 . S
H120 C125 0.930 . S
H121 C128 0.930 . S
H122 C130 0.930 . S
H123 C124 1.016 . S
C124 H123 1.016 . S
C124 N131 1.286 . S
C125 H120 0.930 . S
C125 C126 1.397 1_545 S
C125 C127 1.361 . S
C126 C125 1.397 1_565 S
C126 C130 1.390 . S
C127 C125 1.361 . S
C127 C128 1.393 . S
C127 N131 1.413 . S
C128 H121 0.930 . S
C128 C127 1.393 . S
C128 C129 1.399 . S
C129 C128 1.399 . S
C129 C130 1.381 1_545 S
C130 H122 0.930 . S
C130 C126 1.390 . S
C130 C129 1.381 1_565 S
N131 C124 1.286 . S
N131 C127 1.413 . S
H132 C137 0.930 . S
H133 C140 0.930 . S
H134 C142 0.930 . S
H135 C136 1.016 . S
C136 H135 1.016 . S
C136 N143 1.286 . S
C137 H132 0.930 . S
C137 C138 1.397 . S
C137 C139 1.361 . S
C138 C137 1.397 . S
C138 C142 1.390 . S
C139 C137 1.361 . S
C139 C140 1.393 . S
C139 N143 1.413 . S
C140 H133 0.930 . S
C140 C139 1.393 . S
C140 C141 1.399 . S
C141 C140 1.399 . S
C141 C142 1.381 . S
C142 H134 0.930 . S
C142 C138 1.390 . S
C142 C141 1.381 . S
N143 C136 1.286 . S
N143 C139 1.413 . S
H144 C149 0.930 1_655 S
H145 C152 0.930 . S
H146 C154 0.930 . S
H147 C148 1.016 . S
C148 H147 1.016 . S
C148 N155 1.286 . S
C149 H144 0.930 1_455 S
C149 C150 1.397 1_455 S
C149 C151 1.361 . S
C150 C149 1.397 1_655 S
C150 C154 1.390 . S
C151 C149 1.361 . S
C151 C152 1.393 . S
C151 N155 1.413 . S
C152 H145 0.930 . S
C152 C151 1.393 . S
C152 C153 1.399 . S
C153 C152 1.399 . S
C153 C154 1.381 1_455 S
C154 H146 0.930 . S
C154 C150 1.390 . S
C154 C153 1.381 1_655 S
N155 C148 1.286 . S
N155 C151 1.413 . S
H156 C161 0.930 . S
H157 C164 0.930 . S
H158 C166 0.930 . S
H159 C160 1.016 . S
C160 H159 1.016 . S
C160 N167 1.286 . S
C161 H156 0.930 . S
C161 C162 1.397 . S
C161 C163 1.361 1_455 S
C162 C161 1.397 . S
C162 C166 1.390 . S
C163 C161 1.361 1_655 S
C163 C164 1.393 . S
C163 N167 1.413 . S
C164 H157 0.930 . S
C164 C163 1.393 . S
C164 C165 1.399 1_655 S
C165 C164 1.399 1_455 S
C165 C166 1.381 . S
C166 H158 0.930 . S
C166 C162 1.390 . S
C166 C165 1.381 . S
N167 C160 1.286 . S
N167 C163 1.413 . S
H168 C173 0.930 . S
H169 C176 0.930 1_565 S
H170 C178 0.930 . S
H171 C172 1.016 . S
C172 H171 1.016 . S
C172 N179 1.286 . S
C173 H168 0.930 . S
C173 C174 1.397 . S
C173 C175 1.361 . S
C174 C173 1.397 . S
C174 C178 1.390 . S
C175 C173 1.361 . S
C175 C176 1.393 . S
C175 N179 1.413 1_545 S
C176 H169 0.930 1_545 S
C176 C175 1.393 . S
C176 C177 1.399 . S
C177 C176 1.399 . S
C177 C178 1.381 . S
C178 H170 0.930 . S
C178 C174 1.390 . S
C178 C177 1.381 . S
N179 C172 1.286 . S
N179 C175 1.413 1_565 S
H180 C185 0.930 . S
H181 C188 0.930 . S
H182 C190 0.930 . S
H183 C184 1.016 . S
C184 H183 1.016 . S
C184 N191 1.286 . S
C185 H180 0.930 . S
C185 C186 1.397 . S
C185 C187 1.361 . S
C186 C185 1.397 . S
C186 C190 1.390 . S
C187 C185 1.361 . S
C187 C188 1.393 . S
C187 N191 1.413 . S
C188 H181 0.930 . S
C188 C187 1.393 . S
C188 C189 1.399 . S
C189 C188 1.399 . S
C189 C190 1.381 . S
C190 H182 0.930 . S
C190 C186 1.390 . S
C190 C189 1.381 . S
N191 C184 1.286 . S
N191 C187 1.413 . S
C192 C193 1.363 . S
C192 C198 1.379 . S
C192 N200 1.356 . S
C193 C192 1.363 . S
C193 C199 1.363 . S
C194 C195 1.363 . S
C194 C199 1.379 . S
C194 N201 1.356 . S
C195 C194 1.363 . S
C195 C198 1.363 . S
N196 C198 1.356 . S
N196 H208 0.984 . S
N196 H209 0.985 . S
N197 C199 1.356 . S
N197 H202 0.984 . S
N197 H203 0.985 . S
C198 C192 1.379 . S
C198 C195 1.363 . S
C198 N196 1.356 . S
C199 C193 1.363 . S
C199 C194 1.379 . S
C199 N197 1.356 . S
N200 C192 1.356 . S
N200 H206 0.984 . S
N200 H207 0.984 . S
N201 C194 1.356 . S
N201 H204 0.984 . S
N201 H205 0.985 . S
H202 N197 0.984 . S
H203 N197 0.985 . S
H204 N201 0.984 . S
H205 N201 0.985 . S
H206 N200 0.984 . S
H207 N200 0.984 . S
H208 N196 0.984 . S
H209 N196 0.985 . S
C210 C211 1.363 . S
C210 C216 1.379 . S
C210 N218 1.356 . S
C211 C210 1.363 . S
C211 C217 1.363 . S
C212 C213 1.363 . S
C212 C217 1.379 . S
C212 N219 1.356 . S
C213 C212 1.363 . S
C213 C216 1.363 . S
N214 C216 1.356 . S
N214 H226 0.984 . S
N214 H227 0.985 . S
N215 C217 1.356 . S
N215 H220 0.984 . S
N215 H221 0.985 . S
C216 C210 1.379 . S
C216 C213 1.363 . S
C216 N214 1.356 . S
C217 C211 1.363 . S
C217 C212 1.379 . S
C217 N215 1.356 . S
N218 C210 1.356 . S
N218 H224 0.984 . S
N218 H225 0.984 . S
N219 C212 1.356 . S
N219 H222 0.984 . S
N219 H223 0.985 . S
H220 N215 0.984 . S
H221 N215 0.985 . S
H222 N219 0.984 . S
H223 N219 0.985 . S
H224 N218 0.984 . S
H225 N218 0.984 . S
H226 N214 0.984 . S
H227 N214 0.985 . S
C228 C229 1.363 . S
C228 C234 1.379 . S
C228 N236 1.356 . S
C229 C228 1.363 . S
C229 C235 1.363 . S
C230 C231 1.363 . S
C230 C235 1.379 . S
C230 N237 1.356 . S
C231 C230 1.363 . S
C231 C234 1.363 . S
N232 C234 1.356 . S
N232 H244 0.984 . S
N232 H245 0.985 . S
N233 C235 1.356 . S
N233 H238 0.984 . S
N233 H239 0.985 . S
C234 C228 1.379 . S
C234 C231 1.363 . S
C234 N232 1.356 . S
C235 C229 1.363 . S
C235 C230 1.379 . S
C235 N233 1.356 . S
N236 C228 1.356 . S
N236 H242 0.984 . S
N236 H243 0.984 . S
N237 C230 1.356 . S
N237 H240 0.984 . S
N237 H241 0.985 . S
H238 N233 0.984 . S
H239 N233 0.985 . S
H240 N237 0.984 . S
H241 N237 0.985 . S
H242 N236 0.984 . S
H243 N236 0.984 . S
H244 N232 0.984 . S
H245 N232 0.985 . S
C246 C247 1.363 . S
C246 C252 1.379 . S
C246 N254 1.356 . S
C247 C246 1.363 . S
C247 C253 1.363 . S
C248 C249 1.363 . S
C248 C253 1.379 . S
C248 N255 1.356 . S
C249 C248 1.363 . S
C249 C252 1.363 . S
N250 C252 1.356 . S
N250 H262 0.984 . S
N250 H263 0.985 . S
N251 C253 1.356 . S
N251 H256 0.984 . S
N251 H257 0.985 . S
C252 C246 1.379 . S
C252 C249 1.363 . S
C252 N250 1.356 . S
C253 C247 1.363 . S
C253 C248 1.379 . S
C253 N251 1.356 . S
N254 C246 1.356 . S
N254 H260 0.984 . S
N254 H261 0.984 . S
N255 C248 1.356 . S
N255 H258 0.984 . S
N255 H259 0.985 . S
H256 N251 0.984 . S
H257 N251 0.985 . S
H258 N255 0.984 . S
H259 N255 0.985 . S
H260 N254 0.984 . S
H261 N254 0.984 . S
H262 N250 0.984 . S
H263 N250 0.985 . S
C264 C265 1.363 . S
C264 C270 1.379 . S
C264 N272 1.356 . S
C265 C264 1.363 . S
C265 C271 1.363 . S
C266 C267 1.363 . S
C266 C271 1.379 . S
C266 N273 1.356 . S
C267 C266 1.363 . S
C267 C270 1.363 . S
N268 C270 1.356 . S
N268 H280 0.984 . S
N268 H281 0.985 . S
N269 C271 1.356 . S
N269 H274 0.984 . S
N269 H275 0.985 . S
C270 C264 1.379 . S
C270 C267 1.363 . S
C270 N268 1.356 . S
C271 C265 1.363 . S
C271 C266 1.379 . S
C271 N269 1.356 . S
N272 C264 1.356 . S
N272 H278 0.984 . S
N272 H279 0.984 . S
N273 C266 1.356 . S
N273 H276 0.984 . S
N273 H277 0.985 . S
H274 N269 0.984 . S
H275 N269 0.985 . S
H276 N273 0.984 . S
H277 N273 0.985 . S
H278 N272 0.984 . S
H279 N272 0.984 . S
H280 N268 0.984 . S
H281 N268 0.985 . S
C282 C283 1.363 . S
C282 C288 1.379 . S
C282 N290 1.356 . S
C283 C282 1.363 . S
C283 C289 1.363 . S
C284 C285 1.363 . S
C284 C289 1.379 . S
C284 N291 1.356 . S
C285 C284 1.363 . S
C285 C288 1.363 . S
N286 C288 1.356 . S
N286 H298 0.984 . S
N286 H299 0.985 . S
N287 C289 1.356 . S
N287 H292 0.984 . S
N287 H293 0.985 . S
C288 C282 1.379 . S
C288 C285 1.363 . S
C288 N286 1.356 . S
C289 C283 1.363 . S
C289 C284 1.379 . S
C289 N287 1.356 . S
N290 C282 1.356 . S
N290 H296 0.984 . S
N290 H297 0.984 . S
N291 C284 1.356 . S
N291 H294 0.984 . S
N291 H295 0.985 . S
H292 N287 0.984 . S
H293 N287 0.985 . S
H294 N291 0.984 . S
H295 N291 0.985 . S
H296 N290 0.984 . S
H297 N290 0.984 . S
H298 N286 0.984 . S
H299 N286 0.985 . S
C300 C301 1.363 . S
C300 C306 1.379 . S
C300 N308 1.356 . S
C301 C300 1.363 . S
C301 C307 1.363 . S
C302 C303 1.363 . S
C302 C307 1.379 . S
C302 N309 1.356 . S
C303 C302 1.363 . S
C303 C306 1.363 . S
N304 C306 1.356 . S
N304 H316 0.984 . S
N304 H317 0.985 . S
N305 C307 1.356 . S
N305 H310 0.984 . S
N305 H311 0.985 . S
C306 C300 1.379 . S
C306 C303 1.363 . S
C306 N304 1.356 . S
C307 C301 1.363 . S
C307 C302 1.379 . S
C307 N305 1.356 . S
N308 C300 1.356 . S
N308 H314 0.984 . S
N308 H315 0.984 . S
N309 C302 1.356 . S
N309 H312 0.984 . S
N309 H313 0.985 . S
H310 N305 0.984 . S
H311 N305 0.985 . S
H312 N309 0.984 . S
H313 N309 0.985 . S
H314 N308 0.984 . S
H315 N308 0.984 . S
H316 N304 0.984 . S
H317 N304 0.985 . S
C318 C319 1.363 . S
C318 C324 1.379 . S
C318 N326 1.356 . S
C319 C318 1.363 . S
C319 C325 1.363 . S
C320 C321 1.363 . S
C320 C325 1.379 . S
C320 N327 1.356 . S
C321 C320 1.363 . S
C321 C324 1.363 . S
N322 C324 1.356 . S
N322 H334 0.984 . S
N322 H335 0.985 . S
N323 C325 1.356 . S
N323 H328 0.984 . S
N323 H329 0.985 . S
C324 C318 1.379 . S
C324 C321 1.363 . S
C324 N322 1.356 . S
C325 C319 1.363 . S
C325 C320 1.379 . S
C325 N323 1.356 . S
N326 C318 1.356 . S
N326 H332 0.984 . S
N326 H333 0.984 . S
N327 C320 1.356 . S
N327 H330 0.984 . S
N327 H331 0.985 . S
H328 N323 0.984 . S
H329 N323 0.985 . S
H330 N327 0.984 . S
H331 N327 0.985 . S
H332 N326 0.984 . S
H333 N326 0.984 . S
H334 N322 0.984 . S
H335 N322 0.985 . S
C336 C337 1.363 . S
C336 C342 1.379 . S
C336 N344 1.356 . S
C337 C336 1.363 . S
C337 C343 1.363 . S
C338 C339 1.363 . S
C338 C343 1.379 . S
C338 N345 1.356 . S
C339 C338 1.363 . S
C339 C342 1.363 . S
N340 C342 1.356 . S
N340 H352 0.984 . S
N340 H353 0.985 . S
N341 C343 1.356 . S
N341 H346 0.984 . S
N341 H347 0.985 . S
C342 C336 1.379 . S
C342 C339 1.363 . S
C342 N340 1.356 . S
C343 C337 1.363 . S
C343 C338 1.379 . S
C343 N341 1.356 . S
N344 C336 1.356 . S
N344 H350 0.984 . S
N344 H351 0.984 . S
N345 C338 1.356 . S
N345 H348 0.984 . S
N345 H349 0.985 . S
H346 N341 0.984 . S
H347 N341 0.985 . S
H348 N345 0.984 . S
H349 N345 0.985 . S
H350 N344 0.984 . S
H351 N344 0.984 . S
H352 N340 0.984 . S
H353 N340 0.985 . S
C354 C355 1.363 . S
C354 C360 1.379 . S
C354 N362 1.356 . S
C355 C354 1.363 . S
C355 C361 1.363 . S
C356 C357 1.363 . S
C356 C361 1.379 . S
C356 N363 1.356 . S
C357 C356 1.363 . S
C357 C360 1.363 . S
N358 C360 1.356 . S
N358 H370 0.984 . S
N358 H371 0.985 . S
N359 C361 1.356 . S
N359 H364 0.984 . S
N359 H365 0.985 . S
C360 C354 1.379 . S
C360 C357 1.363 . S
C360 N358 1.356 . S
C361 C355 1.363 . S
C361 C356 1.379 . S
C361 N359 1.356 . S
N362 C354 1.356 . S
N362 H368 0.984 . S
N362 H369 0.984 . S
N363 C356 1.356 . S
N363 H366 0.984 . S
N363 H367 0.985 . S
H364 N359 0.984 . S
H365 N359 0.985 . S
H366 N363 0.984 . S
H367 N363 0.985 . S
H368 N362 0.984 . S
H369 N362 0.984 . S
H370 N358 0.984 . S
H371 N358 0.985 . S
C372 C373 1.363 . S
C372 C378 1.379 . S
C372 N380 1.356 . S
C373 C372 1.363 . S
C373 C379 1.363 . S
C374 C375 1.363 . S
C374 C379 1.379 . S
C374 N381 1.356 . S
C375 C374 1.363 . S
C375 C378 1.363 . S
N376 C378 1.356 . S
N376 H388 0.984 . S
N376 H389 0.985 . S
N377 C379 1.356 . S
N377 H382 0.984 . S
N377 H383 0.985 . S
C378 C372 1.379 . S
C378 C375 1.363 . S
C378 N376 1.356 . S
C379 C373 1.363 . S
C379 C374 1.379 . S
C379 N377 1.356 . S
N380 C372 1.356 . S
N380 H386 0.984 . S
N380 H387 0.984 . S
N381 C374 1.356 . S
N381 H384 0.984 . S
N381 H385 0.985 . S
H382 N377 0.984 . S
H383 N377 0.985 . S
H384 N381 0.984 . S
H385 N381 0.985 . S
H386 N380 0.984 . S
H387 N380 0.984 . S
H388 N376 0.984 . S
H389 N376 0.985 . S
C390 C391 1.363 . S
C390 C396 1.379 . S
C390 N398 1.356 . S
C391 C390 1.363 . S
C391 C397 1.363 . S
C392 C393 1.363 . S
C392 C397 1.379 . S
C392 N399 1.356 . S
C393 C392 1.363 . S
C393 C396 1.363 . S
N394 C396 1.356 . S
N394 H406 0.984 . S
N394 H407 0.985 . S
N395 C397 1.356 . S
N395 H400 0.984 . S
N395 H401 0.985 . S
C396 C390 1.379 . S
C396 C393 1.363 . S
C396 N394 1.356 . S
C397 C391 1.363 . S
C397 C392 1.379 . S
C397 N395 1.356 . S
N398 C390 1.356 . S
N398 H404 0.984 . S
N398 H405 0.984 . S
N399 C392 1.356 . S
N399 H402 0.984 . S
N399 H403 0.985 . S
H400 N395 0.984 . S
H401 N395 0.985 . S
H402 N399 0.984 . S
H403 N399 0.985 . S
H404 N398 0.984 . S
H405 N398 0.984 . S
H406 N394 0.984 . S
H407 N394 0.985 . S
C408 C409 1.363 . S
C408 C414 1.379 . S
C408 N416 1.356 . S
C409 C408 1.363 . S
C409 C415 1.363 . S
C410 C411 1.363 . S
C410 C415 1.379 1_556 S
C410 N417 1.356 . S
C411 C410 1.363 . S
C411 C414 1.363 1_556 S
N412 C414 1.356 1_556 S
N412 H424 0.984 . S
N412 H425 0.985 . S
N413 C415 1.356 . S
N413 H418 0.984 . S
N413 H419 0.985 . S
C414 C408 1.379 . S
C414 C411 1.363 1_554 S
C414 N412 1.356 1_554 S
C415 C409 1.363 . S
C415 C410 1.379 1_554 S
C415 N413 1.356 . S
N416 C408 1.356 . S
N416 H422 0.984 . S
N416 H423 0.984 . S
N417 C410 1.356 . S
N417 H420 0.984 . S
N417 H421 0.985 . S
H418 N413 0.984 . S
H419 N413 0.985 . S
H420 N417 0.984 . S
H421 N417 0.985 . S
H422 N416 0.984 . S
H423 N416 0.984 . S
H424 N412 0.984 . S
H425 N412 0.985 . S
C426 C427 1.363 1_565 S
C426 C432 1.379 1_565 S
C426 N434 1.356 . S
C427 C426 1.363 1_545 S
C427 C433 1.363 . S
C428 C429 1.363 . S
C428 C433 1.379 . S
C428 N435 1.356 . S
C429 C428 1.363 . S
C429 C432 1.363 . S
N430 C432 1.356 1_565 S
N430 H442 0.984 . S
N430 H443 0.985 . S
N431 C433 1.356 . S
N431 H436 0.984 . S
N431 H437 0.985 . S
C432 C426 1.379 1_545 S
C432 C429 1.363 . S
C432 N430 1.356 1_545 S
C433 C427 1.363 . S
C433 C428 1.379 . S
C433 N431 1.356 . S
N434 C426 1.356 . S
N434 H440 0.984 . S
N434 H441 0.984 . S
N435 C428 1.356 . S
N435 H438 0.984 . S
N435 H439 0.985 . S
H436 N431 0.984 . S
H437 N431 0.985 . S
H438 N435 0.984 . S
H439 N435 0.985 . S
H440 N434 0.984 . S
H441 N434 0.984 . S
H442 N430 0.984 . S
H443 N430 0.985 . S
C444 C445 1.363 . S
C444 C450 1.379 . S
C444 N452 1.356 . S
C445 C444 1.363 . S
C445 C451 1.363 . S
C446 C447 1.363 . S
C446 C451 1.379 . S
C446 N453 1.356 . S
C447 C446 1.363 . S
C447 C450 1.363 . S
N448 C450 1.356 . S
N448 H460 0.984 . S
N448 H461 0.985 . S
N449 C451 1.356 . S
N449 H454 0.984 . S
N449 H455 0.985 . S
C450 C444 1.379 . S
C450 C447 1.363 . S
C450 N448 1.356 . S
C451 C445 1.363 . S
C451 C446 1.379 . S
C451 N449 1.356 . S
N452 C444 1.356 . S
N452 H458 0.984 . S
N452 H459 0.984 . S
N453 C446 1.356 . S
N453 H456 0.984 . S
N453 H457 0.985 . S
H454 N449 0.984 . S
H455 N449 0.985 . S
H456 N453 0.984 . S
H457 N453 0.985 . S
H458 N452 0.984 . S
H459 N452 0.984 . S
H460 N448 0.984 . S
H461 N448 0.985 . S
C462 C463 1.363 1_565 S
C462 C468 1.379 . S
C462 N470 1.356 . S
C463 C462 1.363 1_545 S
C463 C469 1.363 . S
C464 C465 1.363 . S
C464 C469 1.379 . S
C464 N471 1.356 . S
C465 C464 1.363 . S
C465 C468 1.363 1_545 S
N466 C468 1.356 . S
N466 H478 0.984 . S
N466 H479 0.985 . S
N467 C469 1.356 . S
N467 H472 0.984 . S
N467 H473 0.985 . S
C468 C462 1.379 . S
C468 C465 1.363 1_565 S
C468 N466 1.356 . S
C469 C463 1.363 . S
C469 C464 1.379 . S
C469 N467 1.356 . S
N470 C462 1.356 . S
N470 H476 0.984 . S
N470 H477 0.984 . S
N471 C464 1.356 . S
N471 H474 0.984 . S
N471 H475 0.985 . S
H472 N467 0.984 . S
H473 N467 0.985 . S
H474 N471 0.984 . S
H475 N471 0.985 . S
H476 N470 0.984 . S
H477 N470 0.984 . S
H478 N466 0.984 . S
H479 N466 0.985 . S
C480 C481 1.363 . S
C480 C486 1.379 . S
C480 N488 1.356 . S
C481 C480 1.363 . S
C481 C487 1.363 . S
C482 C483 1.363 . S
C482 C487 1.379 1_554 S
C482 N489 1.356 . S
C483 C482 1.363 . S
C483 C486 1.363 1_554 S
N484 C486 1.356 1_554 S
N484 H496 0.984 1_554 S
N484 H497 0.985 . S
N485 C487 1.356 . S
N485 H490 0.984 . S
N485 H491 0.985 . S
C486 C480 1.379 . S
C486 C483 1.363 1_556 S
C486 N484 1.356 1_556 S
C487 C481 1.363 . S
C487 C482 1.379 1_556 S
C487 N485 1.356 . S
N488 C480 1.356 . S
N488 H494 0.984 . S
N488 H495 0.984 . S
N489 C482 1.356 . S
N489 H492 0.984 . S
N489 H493 0.985 . S
H490 N485 0.984 . S
H491 N485 0.985 . S
H492 N489 0.984 . S
H493 N489 0.985 . S
H494 N488 0.984 . S
H495 N488 0.984 . S
H496 N484 0.984 1_556 S
H497 N484 0.985 . S
C498 C499 1.363 . S
C498 C504 1.379 . S
C498 N506 1.356 . S
C499 C498 1.363 . S
C499 C505 1.363 1_455 S
C500 C501 1.363 1_655 S
C500 C505 1.379 . S
C500 N507 1.356 . S
C501 C500 1.363 1_455 S
C501 C504 1.363 . S
N502 C504 1.356 . S
N502 H514 0.984 . S
N502 H515 0.985 . S
N503 C505 1.356 . S
N503 H508 0.984 . S
N503 H509 0.985 . S
C504 C498 1.379 . S
C504 C501 1.363 . S
C504 N502 1.356 . S
C505 C499 1.363 1_655 S
C505 C500 1.379 . S
C505 N503 1.356 . S
N506 C498 1.356 . S
N506 H512 0.984 . S
N506 H513 0.984 . S
N507 C500 1.356 . S
N507 H510 0.984 . S
N507 H511 0.985 . S
H508 N503 0.984 . S
H509 N503 0.985 . S
H510 N507 0.984 . S
H511 N507 0.985 . S
H512 N506 0.984 . S
H513 N506 0.984 . S
H514 N502 0.984 . S
H515 N502 0.985 . S
C193 C6 1.161 . S
C195 C186 1.278 . S
C211 C59 1.964 . S
C213 C160 1.896 . S
C229 C86 1.389 . S
C231 C172 1.437 . S
C247 C15 0.641 . S
C249 C184 0.487 . S
C267 C162 1.871 . S
C265 C50 1.910 . S
C285 C174 1.294 . S
C283 C95 1.262 . S
C301 C46 1.362 . S
C303 C136 1.390 . S
C319 C99 3.344 . S
C321 C150 3.323 . S
C337 C10 1.929 . S
C339 C126 1.923 . S
C357 C138 1.273 . S
C355 C55 1.236 . S
C375 C148 2.831 . S
C373 C90 2.941 . S
C391 C19 1.973 . S
C393 C124 1.927 . S
C411 C153 1.825 . S
C409 C18 1.714 . S
C427 C49 1.380 . S
C429 C129 1.458 . S
C445 C98 1.502 . S
C447 C141 1.524 . S
C465 C177 1.512 . S
C463 C58 1.502 . S
C483 C189 1.175 . S
C481 C89 1.152 . S
C499 C9 1.381 . S
C501 C165 1.420 . S
