# Generated by pormake.
# Topology ptr, (4,4)-cn, num edge types: 1
# Building blocks:
#     Node 0, Type 0, BuildingBlock: TATPOV_clean_sbu_0, # of connection points: 4
#     Node 1, Type 0, BuildingBlock: TATPOV_clean_sbu_0, # of connection points: 4
#     Node 2, Type 0, BuildingBlock: TATPOV_clean_sbu_0, # of connection points: 4
#     Node 3, Type 0, BuildingBlock: TATPOV_clean_sbu_0, # of connection points: 4
#     Node 4, Type 0, BuildingBlock: TATPOV_clean_sbu_0, # of connection points: 4
#     Node 5, Type 0, BuildingBlock: TATPOV_clean_sbu_0, # of connection points: 4
#     Node 6, Type 0, BuildingBlock: TATPOV_clean_sbu_0, # of connection points: 4
#     Node 7, Type 0, BuildingBlock: TATPOV_clean_sbu_0, # of connection points: 4
#     Node 8, Type 0, BuildingBlock: TATPOV_clean_sbu_0, # of connection points: 4
#     Node 9, Type 0, BuildingBlock: TATPOV_clean_sbu_0, # of connection points: 4
#     Node 10, Type 0, BuildingBlock: TATPOV_clean_sbu_0, # of connection points: 4
#     Node 11, Type 0, BuildingBlock: TATPOV_clean_sbu_0, # of connection points: 4
#     Node 12, Type 0, BuildingBlock: TATPOV_clean_sbu_0, # of connection points: 4
#     Node 13, Type 0, BuildingBlock: TATPOV_clean_sbu_0, # of connection points: 4
#     Node 14, Type 0, BuildingBlock: TATPOV_clean_sbu_0, # of connection points: 4
#     Node 15, Type 0, BuildingBlock: TATPOV_clean_sbu_0, # of connection points: 4
#     Node 16, Type 0, BuildingBlock: TATPOV_clean_sbu_0, # of connection points: 4
#     Node 17, Type 0, BuildingBlock: TATPOV_clean_sbu_0, # of connection points: 4
#     Node 18, Type 1, BuildingBlock: MIFKUJ_clean_linker_1, # of connection points: 4
#     Node 19, Type 1, BuildingBlock: MIFKUJ_clean_linker_1, # of connection points: 4
#     Node 20, Type 1, BuildingBlock: MIFKUJ_clean_linker_1, # of connection points: 4
#     Node 21, Type 1, BuildingBlock: MIFKUJ_clean_linker_1, # of connection points: 4
#     Node 22, Type 1, BuildingBlock: MIFKUJ_clean_linker_1, # of connection points: 4
#     Node 23, Type 1, BuildingBlock: MIFKUJ_clean_linker_1, # of connection points: 4
#     Node 24, Type 1, BuildingBlock: MIFKUJ_clean_linker_1, # of connection points: 4
#     Node 25, Type 1, BuildingBlock: MIFKUJ_clean_linker_1, # of connection points: 4
#     Node 26, Type 1, BuildingBlock: MIFKUJ_clean_linker_1, # of connection points: 4
#     Node 27, Type 1, BuildingBlock: MIFKUJ_clean_linker_1, # of connection points: 4
#     Node 28, Type 1, BuildingBlock: MIFKUJ_clean_linker_1, # of connection points: 4
#     Node 29, Type 1, BuildingBlock: MIFKUJ_clean_linker_1, # of connection points: 4
#     Node 30, Type 1, BuildingBlock: MIFKUJ_clean_linker_1, # of connection points: 4
#     Node 31, Type 1, BuildingBlock: MIFKUJ_clean_linker_1, # of connection points: 4
#     Node 32, Type 1, BuildingBlock: MIFKUJ_clean_linker_1, # of connection points: 4
#     Node 33, Type 1, BuildingBlock: MIFKUJ_clean_linker_1, # of connection points: 4
#     Node 34, Type 1, BuildingBlock: MIFKUJ_clean_linker_1, # of connection points: 4
#     Node 35, Type 1, BuildingBlock: MIFKUJ_clean_linker_1, # of connection points: 4
#     Edge 36, Type (0, 1), None
#     Edge 37, Type (0, 1), None
#     Edge 38, Type (0, 1), None
#     Edge 39, Type (0, 1), None
#     Edge 40, Type (0, 1), None
#     Edge 41, Type (0, 1), None
#     Edge 42, Type (0, 1), None
#     Edge 43, Type (0, 1), None
#     Edge 44, Type (0, 1), None
#     Edge 45, Type (0, 1), None
#     Edge 46, Type (0, 1), None
#     Edge 47, Type (0, 1), None
#     Edge 48, Type (0, 1), None
#     Edge 49, Type (0, 1), None
#     Edge 50, Type (0, 1), None
#     Edge 51, Type (0, 1), None
#     Edge 52, Type (0, 1), None
#     Edge 53, Type (0, 1), None
#     Edge 54, Type (0, 1), None
#     Edge 55, Type (0, 1), None
#     Edge 56, Type (0, 1), None
#     Edge 57, Type (0, 1), None
#     Edge 58, Type (0, 1), None
#     Edge 59, Type (0, 1), None
#     Edge 60, Type (0, 1), None
#     Edge 61, Type (0, 1), None
#     Edge 62, Type (0, 1), None
#     Edge 63, Type (0, 1), None
#     Edge 64, Type (0, 1), None
#     Edge 65, Type (0, 1), None
#     Edge 66, Type (0, 1), None
#     Edge 67, Type (0, 1), None
#     Edge 68, Type (0, 1), None
#     Edge 69, Type (0, 1), None
#     Edge 70, Type (0, 1), None
#     Edge 71, Type (0, 1), None
#     Edge 72, Type (0, 1), None
#     Edge 73, Type (0, 1), None
#     Edge 74, Type (0, 1), None
#     Edge 75, Type (0, 1), None
#     Edge 76, Type (0, 1), None
#     Edge 77, Type (0, 1), None
#     Edge 78, Type (0, 1), None
#     Edge 79, Type (0, 1), None
#     Edge 80, Type (0, 1), None
#     Edge 81, Type (0, 1), None
#     Edge 82, Type (0, 1), None
#     Edge 83, Type (0, 1), None
#     Edge 84, Type (0, 1), None
#     Edge 85, Type (0, 1), None
#     Edge 86, Type (0, 1), None
#     Edge 87, Type (0, 1), None
#     Edge 88, Type (0, 1), None
#     Edge 89, Type (0, 1), None
#     Edge 90, Type (0, 1), None
#     Edge 91, Type (0, 1), None
#     Edge 92, Type (0, 1), None
#     Edge 93, Type (0, 1), None
#     Edge 94, Type (0, 1), None
#     Edge 95, Type (0, 1), None
#     Edge 96, Type (0, 1), None
#     Edge 97, Type (0, 1), None
#     Edge 98, Type (0, 1), None
#     Edge 99, Type (0, 1), None
#     Edge 100, Type (0, 1), None
#     Edge 101, Type (0, 1), None
#     Edge 102, Type (0, 1), None
#     Edge 103, Type (0, 1), None
#     Edge 104, Type (0, 1), None
#     Edge 105, Type (0, 1), None
#     Edge 106, Type (0, 1), None
#     Edge 107, Type (0, 1), None
# Relax obj value: 0.067
# Max RMSD: 0.225
# Mean RMSD: 0.109
data_MOF--net-ptr--node1-TATPOV_clean_sbu_0--node2-MIFKUJ_clean_linker_1--edge1-none
_symmetry_space_group_name_H-M    P1
_symmetry_Int_Tables_number       1
_symmetry_cell_setting            triclinic
loop_
_symmetry_equiv_pos_as_xyz
'x, y, z'
_cell_length_a     48.837712
_cell_length_b     49.169791
_cell_length_c     32.56545
_cell_angle_alpha  89.700187
_cell_angle_beta   91.059561
_cell_angle_gamma 120.79213
loop_
_atom_site_label
_atom_site_type_symbol
_atom_site_fract_x
_atom_site_fract_y
_atom_site_fract_z
_atom_type_partial_charge
Zn0 Zn 0.9285 0.3462 0.00633 0.0
Zn1 Zn 0.98553 0.35373 0.02183 0.0
O2 O 0.95638 0.30751 0.00294 0.0
O3 O 0.90816 0.29986 0.99563 0.0
O4 O 0.02463 0.35329 0.04103 0.0
O5 O 0.92717 0.36329 0.06176 0.0
O6 O 0.97485 0.37043 0.07357 0.0
C7 C 0.92702 0.28945 0.99383 0.0
C8 C 0.97925 0.38885 0.95054 0.0
O9 O -0.00206 0.38414 0.97326 0.0
O10 O 0.94984 0.37555 0.9585 0.0
C11 C 0.03194 0.33411 0.0259 0.0
O12 O 0.01609 0.31706 0.99359 0.0
C13 C 0.95139 0.37282 0.08515 0.0
Zn14 Zn 0.63636 0.58415 0.99283 0.0
Zn15 Zn 0.63682 0.63549 0.01331 0.0
O16 O 0.68315 0.65053 0.99418 0.0
O17 O 0.68238 0.6061 0.9825 0.0
O18 O 0.63992 0.67684 0.0303 0.0
O19 O 0.62148 0.56446 0.04723 0.0
O20 O 0.62152 0.60735 0.06646 0.0
C21 C 0.69744 0.63595 0.98414 0.0
C22 C 0.59503 0.59519 0.94114 0.0
O23 O 0.60362 0.6187 0.96523 0.0
O24 O 0.60603 0.57704 0.94645 0.0
C25 C 0.6648 0.69714 0.04997 0.0
O26 O 0.68675 0.69012 0.05934 0.0
C27 C 0.61704 0.57988 0.07454 0.0
Zn28 Zn 0.34331 0.94204 0.02931 0.0
Zn29 Zn 0.3512 -0.00113 0.01965 0.0
O30 O 0.30443 0.96906 0.03792 0.0
O31 O 0.29701 0.92107 0.03909 0.0
O32 O 0.3502 0.03868 0.00541 0.0
O33 O 0.35852 0.94078 0.97335 0.0
O34 O 0.36751 0.9892 0.96594 0.0
C35 C 0.28627 0.9394 0.04326 0.0
C36 C 0.38818 0.99017 0.08787 0.0
O37 O 0.38301 0.00955 0.06792 0.0
O38 O 0.37409 0.96124 0.07738 0.0
C39 C 0.32579 0.03383 0.98448 0.0
O40 O 0.30477 0.00474 0.97309 0.0
C41 C 0.36859 0.96552 0.95202 0.0
Zn42 Zn 0.06075 0.65089 0.02537 0.0
Zn43 Zn 0.00371 0.64329 0.00999 0.0
O44 O 0.03292 0.68957 0.02869 0.0
O45 O 0.08114 0.69722 0.03587 0.0
O46 O 0.96461 0.64372 0.99063 0.0
O47 O 0.06212 0.63378 0.97004 0.0
O48 O 0.01439 0.62653 0.95828 0.0
C49 C 0.06231 0.70765 0.03765 0.0
C50 C 0.01016 0.60832 0.08137 0.0
O51 O 0.99139 0.61296 0.0587 0.0
O52 O 0.03955 0.62163 0.07326 0.0
C53 C 0.95742 0.66312 0.00534 0.0
O54 O 0.97333 0.6804 0.03747 0.0
C55 C 0.03789 0.62419 0.94669 0.0
Zn56 Zn 0.3534 0.41354 0.03501 0.0
Zn57 Zn 0.35294 0.3621 0.0146 0.0
O58 O 0.30656 0.34693 0.03377 0.0
O59 O 0.30733 0.39137 0.04542 0.0
O60 O 0.35021 0.32092 0.99775 0.0
O61 O 0.36827 0.43311 0.98045 0.0
O62 O 0.36824 0.39018 0.96141 0.0
C63 C 0.29228 0.3615 0.04385 0.0
C64 C 0.3948 0.40253 0.08669 0.0
O65 O 0.38613 0.37899 0.06262 0.0
O66 O 0.38383 0.42071 0.08141 0.0
C67 C 0.32542 0.30027 0.97827 0.0
O68 O 0.30305 0.30672 0.96901 0.0
C69 C 0.37274 0.41764 0.95322 0.0
Zn70 Zn 0.64578 0.05361 0.99678 0.0
Zn71 Zn 0.63886 -0.00231 0.00929 0.0
O72 O 0.68549 0.02767 0.99101 0.0
O73 O 0.69235 0.07543 0.98907 0.0
O74 O 0.64047 0.9583 0.02404 0.0
O75 O 0.62878 0.0546 0.0514 0.0
O76 O 0.62292 0.0078 0.06295 0.0
C77 C 0.70344 0.05734 0.98564 0.0
C78 C 0.60192 0.00504 0.93925 0.0
O79 O 0.60672 0.98617 0.96105 0.0
O80 O 0.61632 0.0343 0.94791 0.0
C81 C 0.66503 0.96358 0.04497 0.0
O82 O 0.68573 0.99279 0.05627 0.0
C83 C 0.62024 0.03107 0.07471 0.0
Zn84 Zn 0.59516 0.6802 0.33573 0.0
Zn85 Zn 0.65205 0.68741 0.3523 0.0
O86 O 0.62292 0.64125 0.33347 0.0
O87 O 0.57488 0.63386 0.32493 0.0
O88 O 0.69092 0.68682 0.37195 0.0
O89 O 0.59354 0.69714 0.39116 0.0
O90 O 0.64104 0.70402 0.40375 0.0
C91 C 0.59364 0.6233 0.32386 0.0
C92 C 0.64663 0.72286 0.28077 0.0
O93 O 0.66497 0.71786 0.3038 0.0
O94 O 0.61716 0.70974 0.28827 0.0
C95 C 0.69836 0.6678 0.35663 0.0
O96 O 0.68279 0.65107 0.32398 0.0
C97 C 0.61752 0.70647 0.41492 0.0
Zn98 Zn 0.30048 0.91492 0.32912 0.0
Zn99 Zn 0.30327 0.96723 0.34883 0.0
O100 O 0.34937 0.98073 0.32997 0.0
O101 O 0.34615 0.93514 0.31818 0.0
O102 O 0.30709 0.00903 0.36523 0.0
O103 O 0.28574 0.89574 0.38363 0.0
O104 O 0.28761 0.93963 0.40243 0.0
C105 C 0.36243 0.96498 0.31982 0.0
C106 C 0.26052 0.92697 0.27694 0.0
O107 O 0.27007 0.95089 0.30059 0.0
O108 O 0.27033 0.9079 0.2828 0.0
C109 C 0.33213 0.02977 0.38422 0.0
O110 O 0.3545 0.02327 0.3932 0.0
C111 C 0.28233 0.91192 0.41085 0.0
Zn112 Zn 0.01217 0.27596 0.36461 0.0
Zn113 Zn 0.01915 0.33263 0.35393 0.0
O114 O 0.97262 0.3026 0.3724 0.0
O115 O 0.96588 0.25487 0.37427 0.0
O116 O 0.01788 0.3723 0.33952 0.0
O117 O 0.02747 0.27492 0.3086 0.0
O118 O 0.03517 0.3228 0.30024 0.0
C119 C 0.9548 0.27295 0.37809 0.0
C120 C 0.05661 0.32469 0.42252 0.0
O121 O 0.05113 0.34365 0.40202 0.0
O122 O 0.04282 0.29565 0.41268 0.0
C123 C 0.99335 0.36739 0.31883 0.0
O124 O 0.9722 0.33824 0.30779 0.0
C125 C 0.03675 0.2993 0.28673 0.0
Zn126 Zn 0.73341 0.98552 0.3571 0.0
Zn127 Zn 0.6774 0.97947 0.34023 0.0
O128 O 0.70675 0.02431 0.36195 0.0
O129 O 0.75488 0.03189 0.36967 0.0
O130 O 0.64216 0.9856 0.32027 0.0
O131 O 0.73499 0.96889 0.30119 0.0
O132 O 0.68782 0.96278 0.28849 0.0
C133 C 0.73591 0.04215 0.37202 0.0
C134 C 0.68007 0.94244 0.41071 0.0
O135 O 0.66207 0.94781 0.38748 0.0
O136 O 0.70963 0.95545 0.40368 0.0
C137 C 0.6126 0.96629 0.31512 0.0
O138 O 0.60056 0.93633 0.32461 0.0
C139 C 0.71111 0.95995 0.27732 0.0
Zn140 Zn 0.0195 0.74656 0.36912 0.0
Zn141 Zn 0.01932 0.69534 0.34854 0.0
O142 O 0.97276 0.67996 0.36728 0.0
O143 O 0.97335 0.72429 0.37913 0.0
O144 O 0.01683 0.65423 0.33164 0.0
O145 O 0.03459 0.76638 0.31474 0.0
O146 O 0.03475 0.72361 0.29545 0.0
C147 C 0.95835 0.69443 0.37728 0.0
C148 C 0.06085 0.7357 0.42103 0.0
O149 O 0.05236 0.71226 0.39686 0.0
O150 O 0.04976 0.75378 0.41575 0.0
C151 C 0.99202 0.63341 0.31236 0.0
O152 O 0.96945 0.6396 0.30326 0.0
C153 C 0.0392 0.75108 0.28742 0.0
Zn154 Zn 0.31385 0.38826 0.3335 0.0
Zn155 Zn 0.30655 0.33146 0.34388 0.0
O156 O 0.35315 0.36142 0.3255 0.0
O157 O 0.36014 0.40925 0.32383 0.0
O158 O 0.3077 0.29169 0.35813 0.0
O159 O 0.29858 0.38932 0.38951 0.0
O160 O 0.29045 0.34124 0.39758 0.0
C161 C 0.37109 0.39107 0.31993 0.0
C162 C 0.26924 0.33977 0.27542 0.0
O163 O 0.27462 0.32068 0.29576 0.0
O164 O 0.28315 0.36879 0.28541 0.0
C165 C 0.33221 0.29651 0.37879 0.0
O166 O 0.35339 0.32561 0.38994 0.0
C167 C 0.28904 0.36481 0.41121 0.0
Zn168 Zn 0.26132 0.01297 0.67192 0.0
Zn169 Zn 0.31823 0.02015 0.68809 0.0
O170 O 0.28891 0.97389 0.6697 0.0
O171 O 0.24084 0.96653 0.66172 0.0
O172 O 0.35714 0.01948 0.70751 0.0
O173 O 0.26012 0.03034 0.72724 0.0
O174 O 0.30758 0.03705 0.73959 0.0
C175 C 0.25955 0.95591 0.6605 0.0
C176 C 0.31244 0.05513 0.6162 0.0
O177 O 0.33091 0.05032 0.63925 0.0
O178 O 0.28301 0.04207 0.62395 0.0
C179 C 0.36441 0.00035 0.69212 0.0
O180 O 0.3487 0.98364 0.65953 0.0
C181 C 0.28418 0.03966 0.75087 0.0
Zn182 Zn 0.97305 0.25177 0.66307 0.0
Zn183 Zn 0.97307 0.30291 0.68339 0.0
O184 O 0.01961 0.31838 0.6645 0.0
O185 O 0.01916 0.27407 0.65308 0.0
O186 O 0.97534 0.34386 0.70022 0.0
O187 O 0.95782 0.23189 0.71735 0.0
O188 O 0.95744 0.2746 0.73636 0.0
C189 C 0.03407 0.30394 0.65462 0.0
C190 C 0.93163 0.26252 0.61112 0.0
O191 O 0.94008 0.28597 0.63523 0.0
O192 O 0.94281 0.2445 0.61642 0.0
C193 C 4e-05 0.3648 0.71955 0.0
O194 O 0.02278 0.35885 0.7287 0.0
C195 C 0.95296 0.24714 0.74448 0.0
Zn196 Zn 0.67671 0.60893 0.69497 0.0
Zn197 Zn 0.68398 0.66569 0.68441 0.0
O198 O 0.63732 0.63574 0.70266 0.0
O199 O 0.63038 0.58793 0.70452 0.0
O200 O 0.68284 0.70544 0.66993 0.0
O201 O 0.69207 0.60783 0.63901 0.0
O202 O 0.70015 0.65587 0.63079 0.0
C203 C 0.61938 0.60609 0.70827 0.0
C204 C 0.72125 0.65745 0.75307 0.0
O205 O 0.71587 0.67652 0.73266 0.0
O206 O 0.70735 0.62843 0.74312 0.0
C207 C 0.65841 0.70058 0.64904 0.0
O208 O 0.63729 0.67145 0.63788 0.0
C209 C 0.70161 0.63231 0.61725 0.0
Zn210 Zn 0.39648 0.31733 0.6911 0.0
Zn211 Zn 0.3394 0.30977 0.67492 0.0
O212 O 0.36846 0.35597 0.6936 0.0
O213 O 0.41667 0.36371 0.70171 0.0
O214 O 0.30043 0.3103 0.65557 0.0
O215 O 0.39783 0.30012 0.63567 0.0
O216 O 0.3502 0.29301 0.62343 0.0
C217 C 0.39775 0.37408 0.70303 0.0
C218 C 0.34535 0.27484 0.74665 0.0
O219 O 0.32681 0.27956 0.72363 0.0
O220 O 0.37479 0.28803 0.73892 0.0
C221 C 0.29297 0.32919 0.67126 0.0
O222 O 0.30852 0.34568 0.70406 0.0
C223 C 0.3737 0.29059 0.6121 0.0
Zn224 Zn 0.68526 0.07848 0.70373 0.0
Zn225 Zn 0.68558 0.02752 0.68307 0.0
O226 O 0.63882 0.01185 0.70125 0.0
O227 O 0.63901 0.05596 0.71312 0.0
O228 O 0.68312 0.98661 0.66555 0.0
O229 O 0.70083 0.09867 0.64963 0.0
O230 O 0.70158 0.05617 0.63052 0.0
C231 C 0.62417 0.02612 0.71103 0.0
C232 C 0.7268 0.06772 0.75567 0.0
O233 O 0.71849 0.04433 0.73146 0.0
O234 O 0.71541 0.08556 0.75049 0.0
C235 C 0.659 0.96689 0.6442 0.0
O236 O 0.63741 0.97418 0.63385 0.0
C237 C 0.70602 0.08363 0.62254 0.0
Zn238 Zn 0.97829 0.721 0.66592 0.0
Zn239 Zn 0.97098 0.66414 0.67662 0.0
O240 O 0.0176 0.69399 0.65857 0.0
O241 O 0.02459 0.74183 0.65664 0.0
O242 O 0.97209 0.62444 0.69113 0.0
O243 O 0.9629 0.72201 0.72184 0.0
O244 O 0.95497 0.67403 0.73019 0.0
C245 C 0.03556 0.72363 0.65304 0.0
C246 C 0.93391 0.67239 0.60783 0.0
O247 O 0.93921 0.65332 0.62835 0.0
O248 O 0.94778 0.70142 0.61773 0.0
C249 C -0.0036 0.62944 0.71241 0.0
O250 O 0.01722 0.65858 0.72387 0.0
C251 C 0.95351 0.6976 0.74368 0.0
H252 H 0.12086 0.35344 0.19879 0.0
H253 H 0.0858 0.35209 0.25255 0.0
H254 H 0.02556 0.25106 0.23523 0.0
H255 H 0.06008 0.25286 0.18024 0.0
H256 H 0.14127 0.29874 0.21246 0.0
H257 H 0.10979 0.35755 0.12595 0.0
H258 H 0.07379 0.36929 0.08741 0.0
H259 H 0.0416 0.28465 0.01448 0.0
H260 H 0.07701 0.27254 0.05434 0.0
H261 H 0.20484 0.28043 0.11041 0.0
H262 H 0.25774 0.30281 0.07958 0.0
H263 H 0.25117 0.38246 0.03603 0.0
H264 H 0.19929 0.36059 0.06679 0.0
H265 H 0.14383 0.31245 0.06142 0.0
H266 H 0.17466 0.26516 0.21054 0.0
H267 H 0.21804 0.27999 0.26123 0.0
H268 H 0.26727 0.37494 0.21242 0.0
H269 H 0.22422 0.36014 0.16249 0.0
C270 C 0.09267 0.30332 0.18514 0.0
C271 C 0.0993 0.33126 0.20535 0.0
C272 C 0.0793 0.33046 0.23608 0.0
C273 C 0.05303 0.30148 0.24805 0.0
C274 C 0.04565 0.27374 0.22648 0.0
C275 C 0.06524 0.2747 0.19506 0.0
C276 C 0.11716 0.30324 0.15934 0.0
C277 C 0.14153 0.3009 0.17925 0.0
C278 C 0.11792 0.30728 0.1164 0.0
C279 C 0.09507 0.31349 0.09412 0.0
C280 C 0.09431 0.34105 0.1025 0.0
C281 C 0.07415 0.34804 0.07991 0.0
C282 C 0.05485 0.32789 0.04793 0.0
C283 C 0.05627 0.3007 0.03886 0.0
C284 C 0.07623 0.29357 0.0618 0.0
C285 C 0.19819 0.31895 0.09119 0.0
C286 C 0.21466 0.30242 0.09356 0.0
C287 C 0.2447 0.31507 0.07575 0.0
C288 C 0.25857 0.34447 0.05579 0.0
C289 C 0.24116 0.35987 0.0515 0.0
C290 C 0.21133 0.34724 0.0689 0.0
C291 C 0.16879 0.30899 0.11461 0.0
C292 C 0.143 0.30873 0.09436 0.0
C293 C 0.16796 0.30495 0.15775 0.0
C294 C 0.19644 0.31146 0.18246 0.0
C295 C 0.19529 0.28889 0.21016 0.0
C296 C 0.22002 0.29737 0.23904 0.0
C297 C 0.24582 0.32868 0.24102 0.0
C298 C 0.24756 0.35068 0.21186 0.0
C299 C 0.22311 0.34217 0.18296 0.0
H300 H 0.74905 0.9127 0.19107 0.0
H301 H 0.75679 0.95097 0.24406 0.0
H302 H 0.65955 0.9286 0.22472 0.0
H303 H 0.6521 0.89022 0.17157 0.0
H304 H 0.69878 0.84881 0.20842 0.0
H305 H 0.72893 0.92799 0.10094 0.0
H306 H 0.72027 0.96944 0.07425 0.0
H307 H 0.62255 0.89933 0.04349 0.0
H308 H 0.63127 0.85778 0.07132 0.0
H309 H 0.63071 0.76977 0.06511 0.0
H310 H 0.62375 0.71971 0.03892 0.0
H311 H 0.7161 0.7449 0.09019 0.0
H312 H 0.72282 0.79435 0.11575 0.0
H313 H 0.67284 0.83462 0.0591 0.0
H314 H 0.6307 0.76209 0.15967 0.0
H315 H 0.6136 0.72198 0.2127 0.0
H316 H 0.70752 0.77248 0.26929 0.0
H317 H 0.72471 0.81297 0.21552 0.0
C318 C 0.70001 0.89861 0.17754 0.0
C319 C 0.72972 0.91676 0.19743 0.0
C320 C 0.73404 0.93856 0.22782 0.0
C321 C 0.70861 0.94245 0.23917 0.0
C322 C 0.67959 0.92608 0.21686 0.0
C323 C 0.6753 0.90422 0.18633 0.0
C324 C 0.69354 0.87032 0.15364 0.0
C325 C 0.69422 0.84615 0.1755 0.0
C326 C 0.68442 0.86576 0.11155 0.0
C327 C 0.68064 0.88986 0.0887 0.0
C328 C 0.7057 0.92146 0.08816 0.0
C329 C 0.70065 0.94515 0.07298 0.0
C330 C 0.67053 0.93772 0.05741 0.0
C331 C 0.64595 0.9058 0.05553 0.0
C332 C 0.65097 0.88205 0.07116 0.0
C333 C 0.6772 0.78573 0.09259 0.0
C334 C 0.64963 0.76466 0.06995 0.0
C335 C 0.64559 0.73597 0.05533 0.0
C336 C 0.66918 0.72806 0.06295 0.0
C337 C 0.69727 0.74994 0.08408 0.0
C338 C 0.70123 0.77838 0.09863 0.0
C339 C 0.68024 0.8139 0.11377 0.0
C340 C 0.67846 0.83771 0.09172 0.0
C341 C 0.68638 0.81762 0.15657 0.0
C342 C 0.67902 0.79044 0.1835 0.0
C343 C 0.64799 0.76409 0.18262 0.0
C344 C 0.63813 0.74136 0.2133 0.0
C345 C 0.65911 0.74445 0.24546 0.0
C346 C 0.69087 0.76962 0.24488 0.0
C347 C 0.70069 0.79268 0.21423 0.0
H348 H 0.05975 0.83103 0.19599 0.0
H349 H 0.03035 0.79618 0.25256 0.0
H350 H 0.07644 0.74234 0.23277 0.0
H351 H 0.10616 0.77774 0.17594 0.0
H352 H 0.13103 0.86188 0.20927 0.0
H353 H 0.04812 0.7872 0.09232 0.0
H354 H 0.02769 0.73551 0.05842 0.0
H355 H 0.12355 0.75188 0.0562 0.0
H356 H 0.14324 0.80235 0.09016 0.0
H357 H 0.1867 0.8537 0.0657 0.0
H358 H 0.23879 0.87858 0.0358 0.0
H359 H 0.25906 0.96961 0.08115 0.0
H360 H 0.20564 0.94424 0.11115 0.0
H361 H 0.13661 0.85283 0.05887 0.0
H362 H 0.20946 0.87281 0.15841 0.0
H363 H 0.252 0.89166 0.20943 0.0
H364 H 0.2172 0.94681 0.26722 0.0
H365 H 0.17425 0.92795 0.21474 0.0
C366 C 0.08491 0.80686 0.18157 0.0
C367 C 0.06273 0.81109 0.20286 0.0
C368 C 0.04612 0.79124 0.23538 0.0
C369 C 0.05145 0.76677 0.24746 0.0
C370 C 0.07177 0.76089 0.22405 0.0
C371 C 0.08863 0.78102 0.19146 0.0
C372 C 0.10844 0.83302 0.15578 0.0
C373 C 0.13196 0.86047 0.17611 0.0
C374 C 0.11105 0.82985 0.11326 0.0
C375 C 0.09713 0.79853 0.09344 0.0
C376 C 0.06451 0.77946 0.08432 0.0
C377 C 0.05301 0.75016 0.0647 0.0
C378 C 0.07407 0.73971 0.05431 0.0
C379 C 0.10668 0.75919 0.06341 0.0
C380 C 0.11799 0.78811 0.08287 0.0
C381 C 0.19197 0.89705 0.09064 0.0
C382 C 0.20176 0.87915 0.06844 0.0
C383 C 0.23183 0.8934 0.05157 0.0
C384 C 0.25309 0.92598 0.05642 0.0
C385 C 0.24302 0.9444 0.0769 0.0
C386 C 0.21264 0.92996 0.09414 0.0
C387 C 0.16135 0.88003 0.11278 0.0
C388 C 0.13513 0.85538 0.09173 0.0
C389 C 0.15992 0.88234 0.15597 0.0
C390 C 0.18909 0.89957 0.18204 0.0
C391 C 0.2116 0.88998 0.1809 0.0
C392 C 0.23569 0.90041 0.21063 0.0
C393 C 0.2377 0.92043 0.24265 0.0
C394 C 0.21622 0.93145 0.24281 0.0
C395 C 0.19181 0.9208 0.21285 0.0
H396 H 0.26812 0.18474 0.81272 0.0
H397 H 0.28478 0.22484 0.75853 0.0
H398 H 0.37866 0.27673 0.81498 0.0
H399 H 0.36205 0.237 0.86853 0.0
H400 H 0.29554 0.15002 0.81974 0.0
H401 H 0.26918 0.20308 0.91202 0.0
H402 H 0.27478 0.25208 0.93759 0.0
H403 H 0.3673 0.27876 0.98971 0.0
H404 H 0.36145 0.22917 0.96354 0.0
H405 H 0.36132 0.14006 0.95821 0.0
H406 H 0.36901 0.09795 0.98641 0.0
H407 H 0.27117 0.02896 0.95445 0.0
H408 H 0.26357 0.07095 0.92732 0.0
H409 H 0.31945 0.16379 0.96957 0.0
H410 H 0.34258 0.10966 0.85676 0.0
H411 H 0.3358 0.07169 0.80328 0.0
H412 H 0.23797 0.04761 0.78445 0.0
H413 H 0.24508 0.08549 0.83763 0.0
C414 C 0.31383 0.20798 0.84472 0.0
C415 C 0.292 0.20526 0.81391 0.0
C416 C 0.30152 0.22809 0.78301 0.0
C417 C 0.33313 0.25352 0.78225 0.0
C418 C 0.35425 0.25712 0.81452 0.0
C419 C 0.34466 0.23462 0.84549 0.0
C420 C 0.30689 0.18094 0.87168 0.0
C421 C 0.29972 0.15262 0.85274 0.0
C422 C 0.31258 0.18459 0.91456 0.0
C423 C 0.31496 0.21249 0.93564 0.0
C424 C 0.29057 0.21929 0.92933 0.0
C425 C 0.29388 0.24745 0.94389 0.0
C426 C 0.32169 0.26962 0.96527 0.0
C427 C 0.34566 0.26227 0.97311 0.0
C428 C 0.34226 0.23385 0.95849 0.0
C429 C 0.31199 0.10858 0.94021 0.0
C430 C 0.34138 0.11593 0.95819 0.0
C431 C 0.34581 0.09184 0.97405 0.0
C432 C 0.32089 0.06007 0.97195 0.0
C433 C 0.29104 0.05312 0.95593 0.0
C434 C 0.28659 0.07712 0.9405 0.0
C435 C 0.3088 0.13291 0.91705 0.0
C436 C 0.31433 0.16082 0.93683 0.0
C437 C 0.30037 0.12852 0.87477 0.0
C438 C 0.29434 0.10037 0.85096 0.0
C439 C 0.31942 0.09537 0.84201 0.0
C440 C 0.31551 0.07377 0.8113 0.0
C441 C 0.28651 0.05706 0.78904 0.0
C442 C 0.26073 0.06032 0.80061 0.0
C443 C 0.26468 0.08187 0.83114 0.0
H444 H 0.81533 0.06972 0.8156 0.0
H445 H 0.77133 0.04936 0.76454 0.0
H446 H 0.73627 0.10431 0.82234 0.0
H447 H 0.77992 0.12466 0.87196 0.0
H448 H 0.85856 0.1363 0.82071 0.0
H449 H 0.7848 0.05333 0.91883 0.0
H450 H 0.73122 0.02754 0.94835 0.0
H451 H 0.75061 0.11821 0.99401 0.0
H452 H 0.80292 0.14351 0.96458 0.0
H453 H 0.84652 0.19521 0.93954 0.0
H454 H 0.86593 0.24546 0.97399 0.0
H455 H 0.96173 0.26157 0.97363 0.0
H456 H 0.94158 0.21012 0.93919 0.0
H457 H 0.85327 0.14451 0.97136 0.0
H458 H 0.88446 0.22035 0.8542 0.0
H459 H 0.91529 0.25603 0.79815 0.0
H460 H 0.96084 0.20153 0.77964 0.0
H461 H 0.9303 0.16638 0.83542 0.0
C462 C 0.80051 0.09814 0.84819 0.0
C463 C 0.79758 0.07659 0.81776 0.0
C464 C 0.77251 0.06505 0.78863 0.0
C465 C 0.75051 0.07543 0.78925 0.0
C466 C 0.75289 0.09594 0.82082 0.0
C467 C 0.77767 0.10729 0.84971 0.0
C468 C 0.8298 0.11557 0.87405 0.0
C469 C 0.85769 0.13754 0.85391 0.0
C470 C 0.82852 0.11759 0.9173 0.0
C471 C 0.798 0.10035 0.93949 0.0
C472 C 0.77758 0.06742 0.93585 0.0
C473 C 0.74712 0.05276 0.95281 0.0
C474 C 0.73676 0.07099 0.97314 0.0
C475 C 0.75782 0.10357 0.9783 0.0
C476 C 0.788 0.11804 0.96172 0.0
C477 C 0.89263 0.19895 0.93708 0.0
C478 C 0.8717 0.20937 0.9473 0.0
C479 C 0.88285 0.23816 0.96708 0.0
C480 C 0.91535 0.25749 0.97685 0.0
C481 C 0.93648 0.24704 0.96681 0.0
C482 C 0.92515 0.21787 0.94688 0.0
C483 C 0.87884 0.16771 0.91707 0.0
C484 C 0.85475 0.14213 0.93846 0.0
C485 C 0.8814 0.16475 0.8745 0.0
C486 C 0.90532 0.19086 0.84908 0.0
C487 C 0.90208 0.21696 0.83912 0.0
C488 C 0.91959 0.23725 0.80701 0.0
C489 C 0.94012 0.23129 0.78417 0.0
C490 C 0.94495 0.20654 0.79639 0.0
C491 C 0.92767 0.1865 0.82843 0.0
H492 H 0.766 0.63717 0.8664 0.0
H493 H 0.7231 0.62233 0.81622 0.0
H494 H 0.77248 0.71724 0.76728 0.0
H495 H 0.81573 0.7321 0.81822 0.0
H496 H 0.84915 0.69841 0.81698 0.0
H497 H 0.79053 0.63689 0.96229 0.0
H498 H 0.73848 0.61499 0.99256 0.0
H499 H 0.73211 0.69464 0.94848 0.0
H500 H 0.78519 0.71705 0.91814 0.0
H501 H 0.91273 0.72487 0.9757 0.0
H502 H 0.94784 0.7127 0.01614 0.0
H503 H 0.91581 0.6279 0.94362 0.0
H504 H 0.88011 0.63971 0.90447 0.0
H505 H 0.84594 0.68514 0.96812 0.0
H506 H 0.93025 0.74425 0.8499 0.0
H507 H 0.96483 0.74591 0.79511 0.0
H508 H 0.90439 0.64488 0.77785 0.0
H509 H 0.86928 0.64368 0.83143 0.0
C510 C 0.79386 0.68584 0.8464 0.0
C511 C 0.76718 0.65512 0.84584 0.0
C512 C 0.74281 0.6466 0.8168 0.0
C513 C 0.74462 0.66857 0.78755 0.0
C514 C 0.77044 0.69988 0.78954 0.0
C515 C 0.7951 0.70837 0.81857 0.0
C516 C 0.82224 0.69238 0.8714 0.0
C517 C 0.84875 0.69635 0.8502 0.0
C518 C 0.82123 0.68847 0.91456 0.0
C519 C 0.79173 0.67853 0.93769 0.0
C520 C 0.77849 0.65023 0.95997 0.0
C521 C 0.74857 0.63759 0.97707 0.0
C522 C 0.73118 0.65299 0.97247 0.0
C523 C 0.74514 0.68239 0.95252 0.0
C524 C 0.77527 0.69505 0.93501 0.0
C525 C 0.89477 0.68385 0.93607 0.0
C526 C 0.91348 0.70378 0.96845 0.0
C527 C 0.93327 0.69662 0.99173 0.0
C528 C 0.93465 0.66936 0.98296 0.0
C529 C 0.91548 0.6492 0.95091 0.0
C530 C 0.89549 0.65622 0.92798 0.0
C531 C 0.87208 0.6901 0.91344 0.0
C532 C 0.84693 0.68877 0.93516 0.0
C533 C 0.873 0.69402 0.87047 0.0
C534 C 0.89757 0.69381 0.845 0.0
C535 C 0.92506 0.72238 0.83515 0.0
C536 C 0.94469 0.72326 0.80385 0.0
C537 C 0.93725 0.69548 0.78233 0.0
C538 C 0.91092 0.66654 0.79429 0.0
C539 C 0.8909 0.66582 0.82491 0.0
H540 H 0.7865 0.6862 0.53034 0.0
H541 H 0.75127 0.685 0.58376 0.0
H542 H 0.69024 0.58417 0.56541 0.0
H543 H 0.72494 0.58584 0.51075 0.0
H544 H 0.80629 0.6313 0.5439 0.0
H545 H 0.77554 0.69044 0.45732 0.0
H546 H 0.73991 0.70256 0.41856 0.0
H547 H 0.70783 0.61823 0.34501 0.0
H548 H 0.74285 0.60572 0.38509 0.0
H549 H 0.87033 0.61302 0.44258 0.0
H550 H 0.92354 0.63559 0.41258 0.0
H551 H 0.9172 0.71526 0.36863 0.0
H552 H 0.86501 0.69322 0.39856 0.0
H553 H 0.80956 0.64519 0.39286 0.0
H554 H 0.83966 0.59769 0.54242 0.0
H555 H 0.88283 0.61257 0.59348 0.0
H556 H 0.93221 0.70751 0.54462 0.0
H557 H 0.88937 0.69267 0.49437 0.0
C558 C 0.75795 0.63618 0.5162 0.0
C559 C 0.76475 0.66411 0.5366 0.0
C560 C 0.74464 0.6634 0.56713 0.0
C561 C 0.71807 0.6345 0.57872 0.0
C562 C 0.71055 0.60679 0.55695 0.0
C563 C 0.73025 0.60768 0.52572 0.0
C564 C 0.78247 0.63595 0.49058 0.0
C565 C 0.80668 0.63347 0.51068 0.0
C566 C 0.78343 0.64005 0.44763 0.0
C567 C 0.76082 0.64649 0.42519 0.0
C568 C 0.76016 0.67409 0.43367 0.0
C569 C 0.74022 0.6813 0.41097 0.0
C570 C 0.72107 0.66135 0.37876 0.0
C571 C 0.7224 0.63414 0.36956 0.0
C572 C 0.74213 0.62678 0.39263 0.0
C573 C 0.86376 0.65154 0.4231 0.0
C574 C 0.88027 0.63505 0.4258 0.0
C575 C 0.91049 0.64781 0.40848 0.0
C576 C 0.92451 0.67728 0.38868 0.0
C577 C 0.90707 0.69262 0.38401 0.0
C578 C 0.87707 0.67989 0.40091 0.0
C579 C 0.83422 0.64156 0.44625 0.0
C580 C 0.80856 0.64141 0.42579 0.0
C581 C 0.83318 0.63747 0.48939 0.0
C582 C 0.86154 0.64398 0.51433 0.0
C583 C 0.86029 0.62143 0.54212 0.0
C584 C 0.88489 0.62993 0.57121 0.0
C585 C 0.91066 0.66126 0.57326 0.0
C586 C 0.91252 0.68324 0.544 0.0
C587 C 0.88819 0.67471 0.51491 0.0
H588 H 0.41275 0.24444 0.52576 0.0
H589 H 0.41987 0.28242 0.57882 0.0
H590 H 0.32217 0.2586 0.55956 0.0
H591 H 0.31537 0.22056 0.50621 0.0
H592 H 0.36239 0.17999 0.54327 0.0
H593 H 0.39432 0.25918 0.43583 0.0
H594 H 0.3868 0.30123 0.40878 0.0
H595 H 0.28889 0.23239 0.37693 0.0
H596 H 0.29651 0.1902 0.40503 0.0
H597 H 0.29638 0.10108 0.39931 0.0
H598 H 0.29041 0.0515 0.37293 0.0
H599 H 0.38289 0.07789 0.4249 0.0
H600 H 0.3886 0.12688 0.45073 0.0
H601 H 0.33837 0.1664 0.39346 0.0
H602 H 0.29586 0.09302 0.49429 0.0
H603 H 0.27922 0.05325 0.54777 0.0
H604 H 0.37304 0.10512 0.60439 0.0
H605 H 0.38974 0.14527 0.55026 0.0
C606 C 0.36355 0.22969 0.51221 0.0
C607 C 0.39318 0.24813 0.53214 0.0
C608 C 0.39714 0.26975 0.56259 0.0
C609 C 0.3714 0.27313 0.574 0.0
C610 C 0.34243 0.25645 0.55167 0.0
C611 C 0.33851 0.23479 0.52103 0.0
C612 C 0.35751 0.20156 0.48833 0.0
C613 C 0.35819 0.17743 0.51027 0.0
C614 C 0.34905 0.19723 0.44605 0.0
C615 C 0.34588 0.22161 0.42297 0.0
C616 C 0.37131 0.25305 0.42269 0.0
C617 C 0.3669 0.2771 0.4073 0.0
C618 C 0.33705 0.27022 0.39132 0.0
C619 C 0.3121 0.23845 0.38925 0.0
C620 C 0.31648 0.21432 0.40505 0.0
C621 C 0.34285 0.11762 0.42718 0.0
C622 C 0.31554 0.09635 0.40428 0.0
C623 C 0.31208 0.06792 0.38953 0.0
C624 C 0.336 0.06049 0.39725 0.0
C625 C 0.36384 0.08258 0.41866 0.0
C626 C 0.3672 0.11074 0.43338 0.0
C627 C 0.34528 0.14552 0.44837 0.0
C628 C 0.34352 0.16932 0.4262 0.0
C629 C 0.351 0.14912 0.49126 0.0
C630 C 0.34407 0.12204 0.51817 0.0
C631 C 0.31324 0.09538 0.51734 0.0
C632 C 0.30364 0.07285 0.54827 0.0
C633 C 0.32472 0.07644 0.58058 0.0
C634 C 0.35633 0.10188 0.57987 0.0
C635 C 0.36587 0.12474 0.54901 0.0
H636 H 0.7292 0.16461 0.53165 0.0
H637 H 0.69849 0.12947 0.58736 0.0
H638 H 0.74415 0.07501 0.56947 0.0
H639 H 0.77524 0.11072 0.51364 0.0
H640 H 0.80075 0.19524 0.54577 0.0
H641 H 0.71906 0.12078 0.42334 0.0
H642 H 0.70055 0.06986 0.38834 0.0
H643 H 0.79582 0.08487 0.39871 0.0
H644 H 0.81362 0.13479 0.43365 0.0
H645 H 0.85599 0.18669 0.40235 0.0
H646 H 0.90786 0.21183 0.37171 0.0
H647 H 0.92725 0.30296 0.41548 0.0
H648 H 0.87406 0.27733 0.44617 0.0
H649 H 0.80565 0.18541 0.39537 0.0
H650 H 0.8791 0.20629 0.49424 0.0
H651 H 0.92238 0.22615 0.54432 0.0
H652 H 0.88758 0.28142 0.60184 0.0
H653 H 0.84393 0.26155 0.55032 0.0
C654 C 0.75426 0.14014 0.51829 0.0
C655 C 0.73186 0.14452 0.53879 0.0
C656 C 0.71447 0.12449 0.57079 0.0
C657 C 0.71921 0.09969 0.58308 0.0
C658 C 0.73989 0.09379 0.56051 0.0
C659 C 0.75754 0.1141 0.5285 0.0
C660 C 0.77803 0.1661 0.49252 0.0
C661 C 0.80156 0.19366 0.51262 0.0
C662 C 0.78056 0.1627 0.45008 0.0
C663 C 0.76758 0.13132 0.43094 0.0
C664 C 0.7357 0.11285 0.41805 0.0
C665 C 0.72537 0.08402 0.3978 0.0
C666 C 0.74687 0.07353 0.39037 0.0
C667 C 0.77872 0.0923 0.40351 0.0
C668 C 0.78889 0.12079 0.42365 0.0
C669 C 0.86089 0.23011 0.42648 0.0
C670 C 0.87081 0.21222 0.40455 0.0
C671 C 0.90074 0.2266 0.38727 0.0
C672 C 0.92168 0.25929 0.39148 0.0
C673 C 0.91144 0.27767 0.41171 0.0
C674 C 0.8812 0.26309 0.42935 0.0
C675 C 0.83048 0.21306 0.44895 0.0
C676 C 0.80428 0.18819 0.4282 0.0
C677 C 0.82934 0.21552 0.49216 0.0
C678 C 0.85869 0.23304 0.51782 0.0
C679 C 0.88137 0.22367 0.51648 0.0
C680 C 0.90591 0.2347 0.54567 0.0
C681 C 0.90819 0.25509 0.57733 0.0
C682 C 0.88643 0.26578 0.5777 0.0
C683 C 0.8616 0.25454 0.54829 0.0
H684 H 0.93431 0.51731 0.14731 0.0
H685 H 0.95002 0.55756 0.09344 0.0
H686 H 0.04401 0.6107 0.14932 0.0
H687 H 0.02838 0.57082 0.20248 0.0
H688 H 0.9625 0.48334 0.15387 0.0
H689 H 0.93584 0.53583 0.24699 0.0
H690 H 0.94122 0.58475 0.27251 0.0
H691 H 0.0344 0.61242 0.32319 0.0
H692 H 0.02877 0.5629 0.29708 0.0
H693 H 0.02894 0.47359 0.29201 0.0
H694 H 0.03663 0.43151 0.32037 0.0
H695 H 0.93873 0.36251 0.28873 0.0
H696 H 0.93113 0.40446 0.26143 0.0
H697 H 0.98697 0.49727 0.30358 0.0
H698 H 0.01012 0.44335 0.19043 0.0
H699 H 0.00324 0.40523 0.13712 0.0
H700 H 0.9052 0.38064 0.11906 0.0
H701 H 0.91242 0.41871 0.17202 0.0
C702 C 0.98015 0.54115 0.17898 0.0
C703 C 0.958 0.53811 0.14845 0.0
C704 C 0.96697 0.56105 0.11775 0.0
C705 C -0.00165 0.5869 0.11692 0.0
C706 C 0.01976 0.59078 0.14893 0.0
C707 C 0.01073 0.56818 0.17967 0.0
C708 C 0.9738 0.51422 0.20585 0.0
C709 C 0.96683 0.48598 0.18684 0.0
C710 C 0.9797 0.51792 0.2487 0.0
C711 C 0.98195 0.54573 0.2699 0.0
C712 C 0.95732 0.55223 0.264 0.0
C713 C 0.96051 0.58036 0.27852 0.0
C714 C 0.98844 0.60279 0.29946 0.0
C715 C 0.01265 0.59573 0.30694 0.0
C716 C 0.00939 0.56735 0.29235 0.0
C717 C 0.97957 0.44209 0.27415 0.0
C718 C 0.00899 0.44945 0.29207 0.0
C719 C 0.01341 0.42539 0.30803 0.0
C720 C 0.98847 0.39361 0.3061 0.0
C721 C 0.95861 0.38666 0.2901 0.0
C722 C 0.95417 0.41064 0.27456 0.0
C723 C 0.97632 0.46641 0.25103 0.0
C724 C 0.98174 0.49427 0.27086 0.0
C725 C 0.96778 0.46199 0.20878 0.0
C726 C 0.96179 0.43385 0.18496 0.0
C727 C 0.98691 0.42894 0.17587 0.0
C728 C 0.98294 0.40723 0.14527 0.0
C729 C 0.95383 0.39031 0.12328 0.0
C730 C 0.92804 0.3935 0.13501 0.0
C731 C 0.93205 0.41517 0.16541 0.0
H732 H 0.48216 0.40289 0.14767 0.0
H733 H 0.43872 0.38343 0.09589 0.0
H734 H 0.40395 0.43858 0.1538 0.0
H735 H 0.44701 0.45799 0.20421 0.0
H736 H 0.52527 0.46921 0.15267 0.0
H737 H 0.45165 0.38667 0.25139 0.0
H738 H 0.3984 0.36106 0.28189 0.0
H739 H 0.41832 0.45199 0.32723 0.0
H740 H 0.47025 0.4771 0.2968 0.0
H741 H 0.51326 0.52862 0.27045 0.0
H742 H 0.53258 0.57916 0.30414 0.0
H743 H 0.62843 0.59537 0.30454 0.0
H744 H 0.60839 0.5437 0.27082 0.0
H745 H 0.5205 0.47811 0.30326 0.0
H746 H 0.54988 0.55294 0.18572 0.0
H747 H 0.57954 0.5884 0.12892 0.0
H748 H 0.62646 0.53528 0.10973 0.0
H749 H 0.59712 0.50037 0.1663 0.0
C750 C 0.4674 0.4313 0.18042 0.0
C751 C 0.46454 0.40995 0.14973 0.0
C752 C 0.43983 0.39896 0.12016 0.0
C753 C 0.41815 0.40974 0.12056 0.0
C754 C 0.42038 0.42998 0.15242 0.0
C755 C 0.44477 0.44074 0.18179 0.0
C756 C 0.49671 0.44867 0.20621 0.0
C757 C 0.52453 0.47058 0.18586 0.0
C758 C 0.49554 0.45092 0.24944 0.0
C759 C 0.46509 0.4338 0.27184 0.0
C760 C 0.44461 0.40086 0.26851 0.0
C761 C 0.41434 0.3863 0.28604 0.0
C762 C 0.40423 0.40463 0.30665 0.0
C763 C 0.42534 0.43725 0.31135 0.0
C764 C 0.4553 0.45162 0.29419 0.0
C765 C 0.55942 0.53244 0.26841 0.0
C766 C 0.53843 0.54287 0.27822 0.0
C767 C 0.54952 0.57182 0.29754 0.0
C768 C 0.58202 0.59125 0.3073 0.0
C769 C 0.60318 0.58076 0.29772 0.0
C770 C 0.59192 0.55146 0.2782 0.0
C771 C 0.54574 0.50112 0.24871 0.0
C772 C 0.52184 0.47558 0.27037 0.0
C773 C 0.54813 0.49799 0.20615 0.0
C774 C 0.57155 0.52418 0.18037 0.0
C775 C 0.56758 0.54984 0.17035 0.0
C776 C 0.58441 0.57 0.13779 0.0
C777 C 0.60494 0.56431 0.11456 0.0
C778 C 0.61053 0.54005 0.1268 0.0
C779 C 0.59395 0.52017 0.1593 0.0
H780 H 0.58488 0.07655 0.16766 0.0
H781 H 0.61982 0.07988 0.11295 0.0
H782 H 0.58355 0.97943 0.12327 0.0
H783 H 0.54846 0.97634 0.17829 0.0
H784 H 0.51762 0.0357 0.15374 0.0
H785 H 0.59946 0.04523 0.25621 0.0
H786 H 0.63221 0.02553 0.28594 0.0
H787 H 0.54773 0.93384 0.30409 0.0
H788 H 0.51514 0.95381 0.27409 0.0
H789 H 0.4514 0.95962 0.29208 0.0
H790 H 0.40001 0.93967 0.32317 0.0
H791 H 0.4004 0.02479 0.28836 0.0
H792 H 0.45304 0.04539 0.2576 0.0
H793 H 0.50706 0.00177 0.29897 0.0
H794 H 0.43217 0.96736 0.19935 0.0
H795 H 0.38976 0.95376 0.14925 0.0
H796 H 0.43915 0.04989 0.10446 0.0
H797 H 0.48193 0.06371 0.15589 0.0
C798 C 0.56413 0.02626 0.17698 0.0
C799 C 0.58504 0.0554 0.15884 0.0
C800 C 0.60494 0.0572 0.12749 0.0
C801 C 0.60414 0.0298 0.11337 0.0
C802 C 0.58475 0.00094 0.13349 0.0
C803 C 0.56474 -0.00083 0.16499 0.0
C804 C 0.53874 0.02366 0.20377 0.0
C805 C 0.51577 0.02937 0.18598 0.0
C806 C 0.53483 0.01245 0.24449 0.0
C807 C 0.55496 0.00099 0.26289 0.0
C808 C 0.58805 0.0209 0.2665 0.0
C809 C 0.60667 0.00955 0.28365 0.0
C810 C 0.59251 0.97803 0.29742 0.0
C811 C 0.55932 0.95817 0.29381 0.0
C812 C 0.54071 0.9696 0.27682 0.0
C813 C 0.45613 0.00398 0.27224 0.0
C814 C 0.44107 0.97456 0.29201 0.0
C815 C 0.41146 0.96302 0.30956 0.0
C816 C 0.39606 0.98055 0.30776 0.0
C817 C 0.41182 0.01086 0.29022 0.0
C818 C 0.4417 0.02249 0.27242 0.0
C819 C 0.48553 0.01358 0.24893 0.0
C820 C 0.50939 0.00946 0.26727 0.0
C821 C 0.48817 0.02242 0.20708 0.0
C822 C 0.46005 0.01671 0.18195 0.0
C823 C 0.43346 0.98593 0.17995 0.0
C824 C 0.40935 0.97806 0.1508 0.0
C825 C 0.41132 0.00069 0.12259 0.0
C826 C 0.437 0.03201 0.1259 0.0
C827 C 0.4614 0.03991 0.15521 0.0
H828 H 0.45456 0.01886 0.8665 0.0
H829 H 0.41946 0.01796 0.91995 0.0
H830 H 0.3563 0.91775 0.89899 0.0
H831 H 0.39092 0.91915 0.84436 0.0
H832 H 0.47356 0.96426 0.87818 0.0
H833 H 0.44151 0.02243 0.79277 0.0
H834 H 0.40586 0.03472 0.75439 0.0
H835 H 0.37394 0.95089 0.67986 0.0
H836 H 0.40899 0.9382 0.71952 0.0
H837 H 0.53616 0.94457 0.77606 0.0
H838 H 0.58942 0.96722 0.74621 0.0
H839 H 0.58272 0.0465 0.70141 0.0
H840 H 0.53049 0.02439 0.73124 0.0
H841 H 0.47499 0.97659 0.72694 0.0
H842 H 0.50613 0.93029 0.87707 0.0
H843 H 0.55003 0.94532 0.92703 0.0
H844 H 0.60014 0.03918 0.87489 0.0
H845 H 0.55652 0.02428 0.826 0.0
C846 C 0.42502 0.96915 0.8512 0.0
C847 C 0.43246 -0.003 0.87231 0.0
C848 C 0.41239 0.99647 0.90279 0.0
C849 C 0.38521 0.96779 0.91359 0.0
C850 C 0.3771 0.9402 0.89114 0.0
C851 C 0.39676 0.94094 0.85995 0.0
C852 C 0.4492 0.96858 0.82522 0.0
C853 C 0.47356 0.96611 0.84494 0.0
C854 C 0.44963 0.97222 0.7822 0.0
C855 C 0.42692 0.97872 0.76007 0.0
C856 C 0.42617 0.00622 0.76897 0.0
C857 C 0.4062 0.01353 0.7465 0.0
C858 C 0.3871 0.99379 0.7141 0.0
C859 C 0.38848 0.96665 0.70455 0.0
C860 C 0.40824 0.95919 0.72738 0.0
C861 C 0.52942 0.98291 0.75623 0.0
C862 C 0.546 0.9665 0.75907 0.0
C863 C 0.57626 0.97931 0.74184 0.0
C864 C 0.59023 0.00874 0.72196 0.0
C865 C 0.57264 0.0239 0.7169 0.0
C866 C 0.5426 0.01112 0.73373 0.0
C867 C 0.50018 0.97326 0.77994 0.0
C868 C 0.47437 0.97312 0.75992 0.0
C869 C 0.49967 0.96963 0.82315 0.0
C870 C 0.52826 0.97606 0.84753 0.0
C871 C 0.52704 0.9538 0.87584 0.0
C872 C 0.55209 0.96238 0.90425 0.0
C873 C 0.57832 0.99348 0.90506 0.0
C874 C 0.58013 0.01508 0.87521 0.0
C875 C 0.55532 0.00651 0.8469 0.0
H876 H 0.07727 0.57882 0.85966 0.0
H877 H 0.08428 0.61681 0.9126 0.0
H878 H 0.98598 0.59144 0.89488 0.0
H879 H 0.97932 0.5534 0.84155 0.0
H880 H 0.02696 0.51383 0.87822 0.0
H881 H 0.05877 0.59291 0.77073 0.0
H882 H 0.051 0.63468 0.74319 0.0
H883 H 0.95345 0.56526 0.71051 0.0
H884 H 0.96131 0.52336 0.73916 0.0
H885 H 0.96229 0.43449 0.73429 0.0
H886 H 0.95736 0.3853 0.70811 0.0
H887 H 0.05027 0.41349 0.76018 0.0
H888 H 0.05496 0.46209 0.78579 0.0
H889 H 0.00377 0.50018 0.72822 0.0
H890 H 0.96169 0.42647 0.82907 0.0
H891 H 0.94574 0.38654 0.88225 0.0
H892 H 0.03942 0.43966 0.939 0.0
H893 H 0.05541 0.47999 0.88518 0.0
C894 C 0.02779 0.56331 0.84688 0.0
C895 C 0.05753 0.58217 0.86634 0.0
C896 C 0.06143 0.60379 0.89673 0.0
C897 C 0.0355 0.60674 0.90855 0.0
C898 C 0.00638 0.58963 0.88665 0.0
C899 C 0.00254 0.56797 0.85605 0.0
C900 C 0.02201 0.53522 0.82314 0.0
C901 C 0.02289 0.51125 0.84521 0.0
C902 C 0.0138 0.53086 0.7808 0.0
C903 C 0.01051 0.55509 0.75755 0.0
C904 C 0.03578 0.5866 0.75734 0.0
C905 C 0.03123 0.61048 0.74166 0.0
C906 C 0.00141 0.60334 0.72529 0.0
C907 C 0.97663 0.57151 0.72314 0.0
C908 C 0.98115 0.54755 0.73926 0.0
C909 C 0.00892 0.45189 0.76217 0.0
C910 C 0.98176 0.43023 0.73932 0.0
C911 C 0.9789 0.40204 0.72469 0.0
C912 C 0.00325 0.39523 0.73252 0.0
C913 C 0.0309 0.4177 0.75389 0.0
C914 C 0.03369 0.44564 0.76846 0.0
C915 C 0.01074 0.47951 0.78329 0.0
C916 C 0.00871 0.50311 0.761 0.0
C917 C 0.01624 0.48311 0.82621 0.0
C918 C 0.00976 0.45614 0.85306 0.0
C919 C 0.97919 0.4291 0.8521 0.0
C920 C 0.96999 0.40647 0.88283 0.0
C921 C 0.99122 0.41033 0.91507 0.0
C922 C 0.0226 0.4362 0.91451 0.0
C923 C 0.03173 0.45917 0.88384 0.0
H924 H 0.39318 0.49715 0.86114 0.0
H925 H 0.36373 0.46246 0.91783 0.0
H926 H 0.41012 0.4088 0.89899 0.0
H927 H 0.43992 0.44405 0.84211 0.0
H928 H 0.46464 0.52818 0.87472 0.0
H929 H 0.38225 0.45344 0.75528 0.0
H930 H 0.36273 0.40201 0.72112 0.0
H931 H 0.45849 0.41797 0.7247 0.0
H932 H 0.47729 0.46829 0.75879 0.0
H933 H 0.5202 0.51998 0.73125 0.0
H934 H 0.57225 0.5451 0.70115 0.0
H935 H 0.59182 0.6361 0.7457 0.0
H936 H 0.53845 0.61049 0.77587 0.0
H937 H 0.4699 0.51875 0.72433 0.0
H938 H 0.54326 0.5396 0.82359 0.0
H939 H 0.58625 0.55928 0.87405 0.0
H940 H 0.5509 0.61403 0.93169 0.0
H941 H 0.50754 0.59435 0.87975 0.0
C942 C 0.4185 0.47306 0.84721 0.0
C943 C 0.39621 0.47728 0.86824 0.0
C944 C 0.37957 0.45752 0.90082 0.0
C945 C 0.38496 0.43316 0.91318 0.0
C946 C 0.40539 0.42727 0.89002 0.0
C947 C 0.42229 0.44731 0.8574 0.0
C948 C 0.44202 0.49915 0.82136 0.0
C949 C 0.4655 0.52669 0.84156 0.0
C950 C 0.44458 0.49588 0.77887 0.0
C951 C 0.43112 0.46452 0.75936 0.0
C952 C 0.3988 0.44564 0.74856 0.0
C953 C 0.38785 0.41649 0.72879 0.0
C954 C 0.40915 0.40602 0.7199 0.0
C955 C 0.44147 0.4253 0.73071 0.0
C956 C 0.45225 0.45409 0.75032 0.0
C957 C 0.52516 0.56331 0.75578 0.0
C958 C 0.5351 0.54547 0.73375 0.0
C959 C 0.56514 0.55985 0.71677 0.0
C960 C 0.58618 0.59249 0.72136 0.0
C961 C 0.57594 0.61084 0.74165 0.0
C962 C 0.54559 0.59627 0.75899 0.0
C963 C 0.49465 0.54621 0.77807 0.0
C964 C 0.46847 0.5214 0.75717 0.0
C965 C 0.49335 0.5486 0.82127 0.0
C966 C 0.52259 0.56611 0.84716 0.0
C967 C 0.54535 0.55684 0.84593 0.0
C968 C 0.56971 0.56776 0.87535 0.0
C969 C 0.57175 0.58794 0.90717 0.0
C970 C 0.54993 0.59855 0.90745 0.0
C971 C 0.52527 0.58743 0.87779 0.0
H972 H 0.60204 0.85174 0.4751 0.0
H973 H 0.61933 0.89212 0.42112 0.0
H974 H 0.71233 0.94408 0.4799 0.0
H975 H 0.69515 0.90411 0.53313 0.0
H976 H 0.62873 0.8169 0.4834 0.0
H977 H 0.60329 0.87133 0.57407 0.0
H978 H 0.60914 0.92017 0.60064 0.0
H979 H 0.69978 0.94416 0.65658 0.0
H980 H 0.69376 0.89479 0.62931 0.0
H981 H 0.69413 0.80682 0.62231 0.0
H982 H 0.70168 0.76471 0.65086 0.0
H983 H 0.60393 0.69576 0.61844 0.0
H984 H 0.59647 0.73774 0.59096 0.0
H985 H 0.65234 0.8306 0.63328 0.0
H986 H 0.67556 0.77639 0.52097 0.0
H987 H 0.66891 0.73837 0.46768 0.0
H988 H 0.5712 0.71445 0.44807 0.0
H989 H 0.57819 0.75242 0.50107 0.0
C990 C 0.64727 0.87499 0.50823 0.0
C991 C 0.62586 0.87232 0.47682 0.0
C992 C 0.63573 0.89532 0.44605 0.0
C993 C 0.66729 0.92086 0.44602 0.0
C994 C 0.68796 0.92439 0.47885 0.0
C995 C 0.67804 0.90174 0.50966 0.0
C996 C 0.64007 0.84788 0.53528 0.0
C997 C 0.63283 0.8195 0.5164 0.0
C998 C 0.64567 0.8515 0.57822 0.0
C999 C 0.64819 0.87946 0.59938 0.0
C1000 C 0.62436 0.88695 0.59232 0.0
C1001 C 0.62779 0.91501 0.6075 0.0
C1002 C 0.65514 0.93635 0.63034 0.0
C1003 C 0.67851 0.92831 0.63887 0.0
C1004 C 0.67501 0.90001 0.62358 0.0
C1005 C 0.64485 0.77536 0.60405 0.0
C1006 C 0.67417 0.78269 0.62225 0.0
C1007 C 0.67852 0.7586 0.63831 0.0
C1008 C 0.65359 0.72683 0.63622 0.0
C1009 C 0.62381 0.7199 0.61994 0.0
C1010 C 0.61944 0.74391 0.6043 0.0
C1011 C 0.64174 0.79973 0.5808 0.0
C1012 C 0.64729 0.82767 0.60052 0.0
C1013 C 0.63338 0.79537 0.53851 0.0
C1014 C 0.62738 0.76721 0.51476 0.0
C1015 C 0.65245 0.76213 0.50609 0.0
C1016 C 0.64862 0.74049 0.47549 0.0
C1017 C 0.61969 0.72381 0.45307 0.0
C1018 C 0.5939 0.72714 0.46437 0.0
C1019 C 0.59778 0.74874 0.49479 0.0
H1020 H 0.14807 0.73614 0.48274 0.0
H1021 H 0.10489 0.71675 0.43058 0.0
H1022 H 0.06972 0.77169 0.48814 0.0
H1023 H 0.11252 0.79103 0.53892 0.0
H1024 H 0.19125 0.80255 0.48856 0.0
H1025 H 0.11668 0.71934 0.58595 0.0
H1026 H 0.06309 0.69368 0.61547 0.0
H1027 H 0.08279 0.78444 0.66124 0.0
H1028 H 0.13505 0.80959 0.63181 0.0
H1029 H 0.17863 0.86104 0.60835 0.0
H1030 H 0.19828 0.91158 0.64216 0.0
H1031 H 0.29415 0.92797 0.64021 0.0
H1032 H 0.27379 0.87628 0.60643 0.0
H1033 H 0.18517 0.81029 0.63913 0.0
H1034 H 0.21518 0.88557 0.52176 0.0
H1035 H 0.24478 0.92078 0.46469 0.0
H1036 H 0.29271 0.86843 0.44729 0.0
H1037 H 0.26341 0.83375 0.50407 0.0
C1038 C 0.13309 0.76443 0.51534 0.0
C1039 C 0.13043 0.74318 0.48463 0.0
C1040 C 0.10586 0.73223 0.45484 0.0
C1041 C 0.08412 0.74294 0.45505 0.0
C1042 C 0.08618 0.76312 0.48689 0.0
C1043 C 0.11044 0.77385 0.51647 0.0
C1044 C 0.16219 0.78163 0.54159 0.0
C1045 C 0.19021 0.80366 0.52175 0.0
C1046 C 0.16066 0.78356 0.58482 0.0
C1047 C 0.13001 0.76638 0.6067 0.0
C1048 C 0.10951 0.73348 0.60296 0.0
C1049 C 0.07904 0.71889 0.61992 0.0
C1050 C 0.0688 0.73718 0.64033 0.0
C1051 C 0.08992 0.76975 0.64548 0.0
C1052 C 0.12007 0.78414 0.62889 0.0
C1053 C 0.22476 0.86489 0.60522 0.0
C1054 C 0.20386 0.87528 0.61572 0.0
C1055 C 0.21515 0.90425 0.63507 0.0
C1056 C 0.24775 0.92377 0.64414 0.0
C1057 C 0.26882 0.9133 0.63393 0.0
C1058 C 0.25737 0.88398 0.61439 0.0
C1059 C 0.21096 0.83369 0.58507 0.0
C1060 C 0.1868 0.80802 0.60624 0.0
C1061 C 0.2137 0.83086 0.54254 0.0
C1062 C 0.23733 0.8572 0.51721 0.0
C1063 C 0.23311 0.88264 0.50674 0.0
C1064 C 0.24991 0.90265 0.47407 0.0
C1065 C 0.27064 0.89701 0.45124 0.0
C1066 C 0.2766 0.87312 0.46408 0.0
C1067 C 0.26006 0.85338 0.49669 0.0
H1068 H 0.10164 0.30494 0.53595 0.0
H1069 H 0.05856 0.28987 0.48598 0.0
H1070 H 0.10775 0.38456 0.43632 0.0
H1071 H 0.15118 0.39964 0.48702 0.0
H1072 H 0.18434 0.36586 0.48522 0.0
H1073 H 0.12719 0.30513 0.63197 0.0
H1074 H 0.07546 0.2834 0.66308 0.0
H1075 H 0.06832 0.36243 0.61826 0.0
H1076 H 0.12112 0.38473 0.58714 0.0
H1077 H 0.24883 0.39171 0.64373 0.0
H1078 H 0.28378 0.37888 0.68342 0.0
H1079 H 0.25127 0.29475 0.60929 0.0
H1080 H 0.21571 0.30717 0.57094 0.0
H1081 H 0.18246 0.35297 0.63637 0.0
H1082 H 0.26637 0.41129 0.51834 0.0
H1083 H 0.30093 0.41283 0.46355 0.0
H1084 H 0.23897 0.31224 0.44422 0.0
H1085 H 0.20389 0.31118 0.49777 0.0
C1086 C 0.12941 0.35351 0.51553 0.0
C1087 C 0.10272 0.3228 0.51529 0.0
C1088 C 0.07826 0.31414 0.48637 0.0
C1089 C 0.07999 0.33598 0.45696 0.0
C1090 C 0.10578 0.3673 0.45871 0.0
C1091 C 0.13053 0.37593 0.4876 0.0
C1092 C 0.15796 0.36008 0.54011 0.0
C1093 C 0.18423 0.36388 0.51844 0.0
C1094 C 0.15731 0.35627 0.58328 0.0
C1095 C 0.12803 0.34648 0.60692 0.0
C1096 C 0.11508 0.31841 0.62967 0.0
C1097 C 0.08534 0.30586 0.64728 0.0
C1098 C 0.06779 0.3211 0.64271 0.0
C1099 C 0.08148 0.35031 0.62231 0.0
C1100 C 0.11145 0.3629 0.60432 0.0
C1101 C 0.23065 0.35106 0.60337 0.0
C1102 C 0.24944 0.37062 0.63597 0.0
C1103 C 0.26913 0.36308 0.65882 0.0
C1104 C 0.27032 0.33583 0.64936 0.0
C1105 C 0.25108 0.31604 0.61708 0.0
C1106 C 0.23117 0.32342 0.59461 0.0
C1107 C 0.20801 0.35763 0.58122 0.0
C1108 C 0.18314 0.35653 0.6034 0.0
C1109 C 0.20859 0.36147 0.53824 0.0
C1110 C 0.23289 0.36108 0.51235 0.0
C1111 C 0.26081 0.38947 0.50309 0.0
C1112 C 0.28044 0.39028 0.47181 0.0
C1113 C 0.27262 0.3626 0.44977 0.0
C1114 C 0.24581 0.3338 0.46108 0.0
C1115 C 0.22577 0.33317 0.49164 0.0
loop_
_geom_bond_atom_site_label_1
_geom_bond_atom_site_label_2
_geom_bond_distance
_geom_bond_site_symmetry_2
_ccdc_geom_bond_type
Zn0 O3 2.031 1_554 S
Zn0 O5 2.049 . S
Zn0 O10 2.067 1_554 S
Zn1 O2 1.962 1_455 S
Zn1 O4 1.986 . S
Zn1 O6 1.996 1_455 S
Zn1 O9 1.943 1_554 S
O2 Zn1 1.962 1_655 S
O2 C7 1.254 1_554 S
O3 Zn0 2.031 1_556 S
O3 C7 1.269 . S
O4 Zn1 1.986 . S
O4 C11 1.262 . S
O5 Zn0 2.049 . S
O5 C13 1.260 . S
O6 Zn1 1.996 1_655 S
O6 C13 1.257 . S
C7 O2 1.254 1_556 S
C7 O3 1.269 . S
C8 O9 1.249 . S
C8 O10 1.270 1_455 S
O9 Zn1 1.943 1_556 S
O9 C8 1.249 . S
O10 Zn0 2.067 1_556 S
O10 C8 1.270 1_655 S
C11 O4 1.262 . S
C11 O12 1.232 . S
O12 C11 1.232 . S
C13 O5 1.260 . S
C13 O6 1.257 . S
Zn14 O17 2.031 . S
Zn14 O19 2.049 1_556 S
Zn14 O24 2.067 . S
Zn15 O16 1.962 . S
Zn15 O18 1.986 . S
Zn15 O20 1.996 . S
Zn15 O23 1.943 1_554 S
O16 Zn15 1.962 . S
O16 C21 1.254 1_554 S
O17 Zn14 2.031 . S
O17 C21 1.269 . S
O18 Zn15 1.986 . S
O18 C25 1.262 . S
O19 Zn14 2.049 1_554 S
O19 C27 1.260 . S
O20 Zn15 1.996 . S
O20 C27 1.257 . S
C21 O16 1.254 1_556 S
C21 O17 1.269 . S
C22 O23 1.249 . S
C22 O24 1.270 . S
O23 Zn15 1.943 1_556 S
O23 C22 1.249 . S
O24 Zn14 2.067 . S
O24 C22 1.270 . S
C25 O18 1.262 . S
C25 O26 1.232 . S
O26 C25 1.232 . S
C27 O19 1.260 . S
C27 O20 1.257 . S
Zn28 O31 2.031 . S
Zn28 O33 2.049 1_554 S
Zn28 O38 2.067 . S
Zn29 O30 1.962 1_545 S
Zn29 O32 1.986 1_554 S
Zn29 O34 1.996 1_544 S
Zn29 O37 1.943 . S
O30 Zn29 1.962 1_565 S
O30 C35 1.254 . S
O31 Zn28 2.031 . S
O31 C35 1.269 . S
O32 Zn29 1.986 1_556 S
O32 C39 1.262 . S
O33 Zn28 2.049 1_556 S
O33 C41 1.260 . S
O34 Zn29 1.996 1_566 S
O34 C41 1.257 . S
C35 O30 1.254 . S
C35 O31 1.269 . S
C36 O37 1.249 . S
C36 O38 1.270 1_545 S
O37 Zn29 1.943 . S
O37 C36 1.249 . S
O38 Zn28 2.067 . S
O38 C36 1.270 1_565 S
C39 O32 1.262 . S
C39 O40 1.232 1_556 S
O40 C39 1.232 1_554 S
C41 O33 1.260 . S
C41 O34 1.257 . S
Zn42 O45 2.031 . S
Zn42 O47 2.049 1_554 S
Zn42 O52 2.067 . S
Zn43 O44 1.962 1_655 S
Zn43 O46 1.986 1_554 S
Zn43 O48 1.996 1_654 S
Zn43 O51 1.943 . S
O44 Zn43 1.962 1_455 S
O44 C49 1.254 . S
O45 Zn42 2.031 . S
O45 C49 1.269 . S
O46 Zn43 1.986 1_556 S
O46 C53 1.262 . S
O47 Zn42 2.049 1_556 S
O47 C55 1.260 . S
O48 Zn43 1.996 1_456 S
O48 C55 1.257 . S
C49 O44 1.254 . S
C49 O45 1.269 . S
C50 O51 1.249 . S
C50 O52 1.270 1_655 S
O51 Zn43 1.943 . S
O51 C50 1.249 . S
O52 Zn42 2.067 . S
O52 C50 1.270 1_455 S
C53 O46 1.262 . S
C53 O54 1.232 1_556 S
O54 C53 1.232 1_554 S
C55 O47 1.260 . S
C55 O48 1.257 . S
Zn56 O59 2.031 . S
Zn56 O61 2.049 1_554 S
Zn56 O66 2.067 . S
Zn57 O58 1.962 . S
Zn57 O60 1.986 1_554 S
Zn57 O62 1.996 1_554 S
Zn57 O65 1.943 . S
O58 Zn57 1.962 . S
O58 C63 1.254 . S
O59 Zn56 2.031 . S
O59 C63 1.269 . S
O60 Zn57 1.986 1_556 S
O60 C67 1.262 . S
O61 Zn56 2.049 1_556 S
O61 C69 1.260 . S
O62 Zn57 1.996 1_556 S
O62 C69 1.257 . S
C63 O58 1.254 . S
C63 O59 1.269 . S
C64 O65 1.249 . S
C64 O66 1.270 . S
O65 Zn57 1.943 . S
O65 C64 1.249 . S
O66 Zn56 2.067 . S
O66 C64 1.270 . S
C67 O60 1.262 . S
C67 O68 1.232 1_556 S
O68 C67 1.232 1_554 S
C69 O61 1.260 . S
C69 O62 1.257 . S
Zn70 O73 2.031 1_554 S
Zn70 O75 2.049 . S
Zn70 O80 2.067 1_554 S
Zn71 O72 1.962 1_565 S
Zn71 O74 1.986 . S
Zn71 O76 1.996 1_565 S
Zn71 O79 1.943 1_554 S
O72 Zn71 1.962 1_545 S
O72 C77 1.254 1_554 S
O73 Zn70 2.031 1_556 S
O73 C77 1.269 . S
O74 Zn71 1.986 . S
O74 C81 1.262 . S
O75 Zn70 2.049 . S
O75 C83 1.260 . S
O76 Zn71 1.996 1_545 S
O76 C83 1.257 . S
C77 O72 1.254 1_556 S
C77 O73 1.269 . S
C78 O79 1.249 . S
C78 O80 1.270 1_565 S
O79 Zn71 1.943 1_556 S
O79 C78 1.249 . S
O80 Zn70 2.067 1_556 S
O80 C78 1.270 1_545 S
C81 O74 1.262 . S
C81 O82 1.232 . S
O82 C81 1.232 . S
C83 O75 1.260 . S
C83 O76 1.257 . S
Zn84 O87 2.031 . S
Zn84 O89 2.049 . S
Zn84 O94 2.067 . S
Zn85 O86 1.962 . S
Zn85 O88 1.986 . S
Zn85 O90 1.996 . S
Zn85 O93 1.943 . S
O86 Zn85 1.962 . S
O86 C91 1.254 . S
O87 Zn84 2.031 . S
O87 C91 1.269 . S
O88 Zn85 1.986 . S
O88 C95 1.262 . S
O89 Zn84 2.049 . S
O89 C97 1.260 . S
O90 Zn85 1.996 . S
O90 C97 1.257 . S
C91 O86 1.254 . S
C91 O87 1.269 . S
C92 O93 1.249 . S
C92 O94 1.270 . S
O93 Zn85 1.943 . S
O93 C92 1.249 . S
O94 Zn84 2.067 . S
O94 C92 1.270 . S
C95 O88 1.262 . S
C95 O96 1.232 . S
O96 C95 1.232 . S
C97 O89 1.260 . S
C97 O90 1.257 . S
Zn98 O101 2.031 . S
Zn98 O103 2.049 . S
Zn98 O108 2.067 . S
Zn99 O100 1.962 1_565 S
Zn99 O102 1.986 1_565 S
Zn99 O104 1.996 . S
Zn99 O107 1.943 . S
O100 Zn99 1.962 1_545 S
O100 C105 1.254 1_545 S
O101 Zn98 2.031 . S
O101 C105 1.269 . S
O102 Zn99 1.986 1_545 S
O102 C109 1.262 . S
O103 Zn98 2.049 . S
O103 C111 1.260 . S
O104 Zn99 1.996 . S
O104 C111 1.257 . S
C105 O100 1.254 1_565 S
C105 O101 1.269 . S
C106 O107 1.249 . S
C106 O108 1.270 . S
O107 Zn99 1.943 . S
O107 C106 1.249 . S
O108 Zn98 2.067 . S
O108 C106 1.270 . S
C109 O102 1.262 . S
C109 O110 1.232 . S
O110 C109 1.232 . S
C111 O103 1.260 . S
C111 O104 1.257 . S
Zn112 O115 2.031 1_455 S
Zn112 O117 2.049 . S
Zn112 O122 2.067 . S
Zn113 O114 1.962 1_455 S
Zn113 O116 1.986 . S
Zn113 O118 1.996 . S
Zn113 O121 1.943 . S
O114 Zn113 1.962 1_655 S
O114 C119 1.254 . S
O115 Zn112 2.031 1_655 S
O115 C119 1.269 . S
O116 Zn113 1.986 . S
O116 C123 1.262 . S
O117 Zn112 2.049 . S
O117 C125 1.260 . S
O118 Zn113 1.996 . S
O118 C125 1.257 . S
C119 O114 1.254 . S
C119 O115 1.269 . S
C120 O121 1.249 . S
C120 O122 1.270 . S
O121 Zn113 1.943 . S
O121 C120 1.249 . S
O122 Zn112 2.067 . S
O122 C120 1.270 . S
C123 O116 1.262 . S
C123 O124 1.232 . S
O124 C123 1.232 . S
C125 O117 1.260 . S
C125 O118 1.257 . S
Zn126 O129 2.031 1_565 S
Zn126 O131 2.049 . S
Zn126 O136 2.067 . S
Zn127 O128 1.962 1_565 S
Zn127 O130 1.986 . S
Zn127 O132 1.996 . S
Zn127 O135 1.943 . S
O128 Zn127 1.962 1_545 S
O128 C133 1.254 . S
O129 Zn126 2.031 1_545 S
O129 C133 1.269 . S
O130 Zn127 1.986 . S
O130 C137 1.262 . S
O131 Zn126 2.049 . S
O131 C139 1.260 . S
O132 Zn127 1.996 . S
O132 C139 1.257 . S
C133 O128 1.254 . S
C133 O129 1.269 . S
C134 O135 1.249 . S
C134 O136 1.270 . S
O135 Zn127 1.943 . S
O135 C134 1.249 . S
O136 Zn126 2.067 . S
O136 C134 1.270 . S
C137 O130 1.262 . S
C137 O138 1.238 . S
O138 C137 1.238 . S
C139 O131 1.260 . S
C139 O132 1.257 . S
Zn140 O143 2.031 1_455 S
Zn140 O145 2.049 . S
Zn140 O150 2.067 . S
Zn141 O142 1.962 1_455 S
Zn141 O144 1.986 . S
Zn141 O146 1.996 . S
Zn141 O149 1.943 . S
O142 Zn141 1.962 1_655 S
O142 C147 1.254 . S
O143 Zn140 2.031 1_655 S
O143 C147 1.269 . S
O144 Zn141 1.986 . S
O144 C151 1.262 . S
O145 Zn140 2.049 . S
O145 C153 1.260 . S
O146 Zn141 1.996 . S
O146 C153 1.257 . S
C147 O142 1.254 . S
C147 O143 1.269 . S
C148 O149 1.249 . S
C148 O150 1.270 . S
O149 Zn141 1.943 . S
O149 C148 1.249 . S
O150 Zn140 2.067 . S
O150 C148 1.270 . S
C151 O144 1.262 . S
C151 O152 1.232 1_455 S
O152 C151 1.232 1_655 S
C153 O145 1.260 . S
C153 O146 1.257 . S
Zn154 O157 2.031 . S
Zn154 O159 2.049 . S
Zn154 O164 2.067 . S
Zn155 O156 1.962 . S
Zn155 O158 1.986 . S
Zn155 O160 1.996 . S
Zn155 O163 1.943 . S
O156 Zn155 1.962 . S
O156 C161 1.254 . S
O157 Zn154 2.031 . S
O157 C161 1.269 . S
O158 Zn155 1.986 . S
O158 C165 1.262 . S
O159 Zn154 2.049 . S
O159 C167 1.260 . S
O160 Zn155 1.996 . S
O160 C167 1.257 . S
C161 O156 1.254 . S
C161 O157 1.269 . S
C162 O163 1.249 . S
C162 O164 1.270 . S
O163 Zn155 1.943 . S
O163 C162 1.249 . S
O164 Zn154 2.067 . S
O164 C162 1.270 . S
C165 O158 1.262 . S
C165 O166 1.232 . S
O166 C165 1.232 . S
C167 O159 1.260 . S
C167 O160 1.257 . S
Zn168 O171 2.031 1_545 S
Zn168 O173 2.049 . S
Zn168 O178 2.067 . S
Zn169 O170 1.962 1_545 S
Zn169 O172 1.986 . S
Zn169 O174 1.996 . S
Zn169 O177 1.943 . S
O170 Zn169 1.962 1_565 S
O170 C175 1.254 . S
O171 Zn168 2.031 1_565 S
O171 C175 1.269 . S
O172 Zn169 1.986 . S
O172 C179 1.262 . S
O173 Zn168 2.049 . S
O173 C181 1.260 . S
O174 Zn169 1.996 . S
O174 C181 1.257 . S
C175 O170 1.254 . S
C175 O171 1.269 . S
C176 O177 1.249 . S
C176 O178 1.270 . S
O177 Zn169 1.943 . S
O177 C176 1.249 . S
O178 Zn168 2.067 . S
O178 C176 1.270 . S
C179 O172 1.262 . S
C179 O180 1.232 . S
O180 C179 1.232 . S
C181 O173 1.260 . S
C181 O174 1.257 . S
Zn182 O185 2.031 1_655 S
Zn182 O187 2.049 . S
Zn182 O192 2.067 . S
Zn183 O184 1.962 1_655 S
Zn183 O186 1.986 . S
Zn183 O188 1.996 . S
Zn183 O191 1.943 . S
O184 Zn183 1.962 1_455 S
O184 C189 1.254 . S
O185 Zn182 2.031 1_455 S
O185 C189 1.269 . S
O186 Zn183 1.986 . S
O186 C193 1.262 . S
O187 Zn182 2.049 . S
O187 C195 1.260 . S
O188 Zn183 1.996 . S
O188 C195 1.257 . S
C189 O184 1.254 . S
C189 O185 1.269 . S
C190 O191 1.249 . S
C190 O192 1.270 . S
O191 Zn183 1.943 . S
O191 C190 1.249 . S
O192 Zn182 2.067 . S
O192 C190 1.270 . S
C193 O186 1.262 . S
C193 O194 1.232 1_655 S
O194 C193 1.232 1_455 S
C195 O187 1.260 . S
C195 O188 1.257 . S
Zn196 O199 2.031 . S
Zn196 O201 2.049 . S
Zn196 O206 2.067 . S
Zn197 O198 1.962 . S
Zn197 O200 1.986 . S
Zn197 O202 1.996 . S
Zn197 O205 1.943 . S
O198 Zn197 1.962 . S
O198 C203 1.254 . S
O199 Zn196 2.031 . S
O199 C203 1.269 . S
O200 Zn197 1.986 . S
O200 C207 1.262 . S
O201 Zn196 2.049 . S
O201 C209 1.260 . S
O202 Zn197 1.996 . S
O202 C209 1.257 . S
C203 O198 1.254 . S
C203 O199 1.269 . S
C204 O205 1.249 . S
C204 O206 1.270 . S
O205 Zn197 1.943 . S
O205 C204 1.249 . S
O206 Zn196 2.067 . S
O206 C204 1.270 . S
C207 O200 1.262 . S
C207 O208 1.232 . S
O208 C207 1.232 . S
C209 O201 1.260 . S
C209 O202 1.257 . S
Zn210 O213 2.031 . S
Zn210 O215 2.049 . S
Zn210 O220 2.067 . S
Zn211 O212 1.962 . S
Zn211 O214 1.986 . S
Zn211 O216 1.996 . S
Zn211 O219 1.943 . S
O212 Zn211 1.962 . S
O212 C217 1.254 . S
O213 Zn210 2.031 . S
O213 C217 1.269 . S
O214 Zn211 1.986 . S
O214 C221 1.262 . S
O215 Zn210 2.049 . S
O215 C223 1.260 . S
O216 Zn211 1.996 . S
O216 C223 1.257 . S
C217 O212 1.254 . S
C217 O213 1.269 . S
C218 O219 1.249 . S
C218 O220 1.270 . S
O219 Zn211 1.943 . S
O219 C218 1.249 . S
O220 Zn210 2.067 . S
O220 C218 1.270 . S
C221 O214 1.262 . S
C221 O222 1.232 . S
O222 C221 1.232 . S
C223 O215 1.260 . S
C223 O216 1.257 . S
Zn224 O227 2.031 . S
Zn224 O229 2.049 . S
Zn224 O234 2.067 . S
Zn225 O226 1.951 . S
Zn225 O228 1.986 1_545 S
Zn225 O230 1.996 . S
Zn225 O233 1.943 . S
O226 Zn225 1.951 . S
O226 C231 1.275 . S
O227 Zn224 2.031 . S
O227 C231 1.269 . S
O228 Zn225 1.986 1_565 S
O228 C235 1.262 . S
O229 Zn224 2.049 . S
O229 C237 1.260 . S
O230 Zn225 1.996 . S
O230 C237 1.257 . S
C231 O226 1.275 . S
C231 O227 1.269 . S
C232 O233 1.249 . S
C232 O234 1.270 . S
O233 Zn225 1.943 . S
O233 C232 1.249 . S
O234 Zn224 2.067 . S
O234 C232 1.270 . S
C235 O228 1.262 . S
C235 O236 1.232 . S
O236 C235 1.232 . S
C237 O229 1.260 . S
C237 O230 1.257 . S
Zn238 O241 2.031 1_655 S
Zn238 O243 2.049 . S
Zn238 O248 2.067 . S
Zn239 O240 1.962 1_655 S
Zn239 O242 1.986 . S
Zn239 O244 1.996 . S
Zn239 O247 1.943 . S
O240 Zn239 1.962 1_455 S
O240 C245 1.254 . S
O241 Zn238 2.031 1_455 S
O241 C245 1.269 . S
O242 Zn239 1.986 . S
O242 C249 1.262 . S
O243 Zn238 2.049 . S
O243 C251 1.260 . S
O244 Zn239 1.996 . S
O244 C251 1.257 . S
C245 O240 1.254 . S
C245 O241 1.269 . S
C246 O247 1.249 . S
C246 O248 1.270 . S
O247 Zn239 1.943 . S
O247 C246 1.249 . S
O248 Zn238 2.067 . S
O248 C246 1.270 . S
C249 O242 1.262 . S
C249 O250 1.239 . S
O250 C249 1.239 . S
C251 O243 1.260 . S
C251 O244 1.257 . S
H252 C271 0.949 . S
H253 C272 0.950 . S
H254 C274 0.950 . S
H255 C275 0.950 . S
H256 C277 0.950 . S
H257 C280 0.950 . S
H258 C281 0.950 . S
H259 C283 0.951 . S
H260 C284 0.949 . S
H261 C286 0.949 . S
H262 C287 0.950 . S
H263 C289 0.950 . S
H264 C290 0.950 . S
H265 C292 0.950 . S
H266 C295 0.950 . S
H267 C296 0.950 . S
H268 C298 0.951 . S
H269 C299 0.949 . S
C270 C271 1.376 . S
C270 C275 1.386 . S
C270 C276 1.483 . S
C271 H252 0.949 . S
C271 C270 1.376 . S
C271 C272 1.397 . S
C272 H253 0.950 . S
C272 C271 1.397 . S
C272 C273 1.391 . S
C273 C272 1.391 . S
C273 C274 1.405 . S
C274 H254 0.950 . S
C274 C273 1.405 . S
C274 C275 1.367 . S
C275 H255 0.950 . S
C275 C270 1.386 . S
C275 C274 1.367 . S
C276 C270 1.483 . S
C276 C277 1.382 . S
C276 C278 1.403 . S
C277 H256 0.950 . S
C277 C276 1.382 . S
C277 C293 1.411 . S
C278 C276 1.403 . S
C278 C279 1.489 . S
C278 C292 1.411 . S
C279 C278 1.489 . S
C279 C280 1.383 . S
C279 C284 1.382 . S
C280 H257 0.950 . S
C280 C279 1.383 . S
C280 C281 1.395 . S
C281 H258 0.950 . S
C281 C280 1.395 . S
C281 C282 1.288 . S
C282 C281 1.288 . S
C282 C283 1.392 . S
C283 H259 0.951 . S
C283 C282 1.392 . S
C283 C284 1.392 . S
C284 H260 0.949 . S
C284 C279 1.382 . S
C284 C283 1.392 . S
C285 C286 1.376 . S
C285 C290 1.386 . S
C285 C291 1.483 . S
C286 H261 0.949 . S
C286 C285 1.376 . S
C286 C287 1.397 . S
C287 H262 0.950 . S
C287 C286 1.397 . S
C287 C288 1.391 . S
C288 C287 1.391 . S
C288 C289 1.405 . S
C289 H263 0.950 . S
C289 C288 1.405 . S
C289 C290 1.367 . S
C290 H264 0.950 . S
C290 C285 1.386 . S
C290 C289 1.367 . S
C291 C285 1.483 . S
C291 C292 1.382 . S
C291 C293 1.403 . S
C292 H265 0.950 . S
C292 C278 1.411 . S
C292 C291 1.382 . S
C293 C277 1.411 . S
C293 C291 1.403 . S
C293 C294 1.489 . S
C294 C293 1.489 . S
C294 C295 1.383 . S
C294 C299 1.382 . S
C295 H266 0.950 . S
C295 C294 1.383 . S
C295 C296 1.395 . S
C296 H267 0.950 . S
C296 C295 1.395 . S
C296 C297 1.288 . S
C297 C296 1.288 . S
C297 C298 1.392 . S
C298 H268 0.951 . S
C298 C297 1.392 . S
C298 C299 1.392 . S
C299 H269 0.949 . S
C299 C294 1.382 . S
C299 C298 1.392 . S
H300 C319 0.949 . S
H301 C320 0.950 . S
H302 C322 0.950 . S
H303 C323 0.950 . S
H304 C325 0.950 . S
H305 C328 0.950 . S
H306 C329 0.950 . S
H307 C331 0.951 . S
H308 C332 0.949 . S
H309 C334 0.949 . S
H310 C335 0.950 . S
H311 C337 0.950 . S
H312 C338 0.950 . S
H313 C340 0.950 . S
H314 C343 0.950 . S
H315 C344 0.950 . S
H316 C346 0.951 . S
H317 C347 0.949 . S
C318 C319 1.376 . S
C318 C323 1.386 . S
C318 C324 1.483 . S
C319 H300 0.949 . S
C319 C318 1.376 . S
C319 C320 1.397 . S
C320 H301 0.950 . S
C320 C319 1.397 . S
C320 C321 1.391 . S
C321 C320 1.391 . S
C321 C322 1.405 . S
C322 H302 0.950 . S
C322 C321 1.405 . S
C322 C323 1.367 . S
C323 H303 0.950 . S
C323 C318 1.386 . S
C323 C322 1.367 . S
C324 C318 1.483 . S
C324 C325 1.382 . S
C324 C326 1.403 . S
C325 H304 0.950 . S
C325 C324 1.382 . S
C325 C341 1.411 . S
C326 C324 1.403 . S
C326 C327 1.489 . S
C326 C340 1.411 . S
C327 C326 1.489 . S
C327 C328 1.383 . S
C327 C332 1.382 . S
C328 H305 0.950 . S
C328 C327 1.383 . S
C328 C329 1.395 . S
C329 H306 0.950 . S
C329 C328 1.395 . S
C329 C330 1.288 . S
C330 C329 1.288 . S
C330 C331 1.392 . S
C331 H307 0.951 . S
C331 C330 1.392 . S
C331 C332 1.392 . S
C332 H308 0.949 . S
C332 C327 1.382 . S
C332 C331 1.392 . S
C333 C334 1.376 . S
C333 C338 1.386 . S
C333 C339 1.483 . S
C334 H309 0.949 . S
C334 C333 1.376 . S
C334 C335 1.397 . S
C335 H310 0.950 . S
C335 C334 1.397 . S
C335 C336 1.391 . S
C336 C335 1.391 . S
C336 C337 1.405 . S
C337 H311 0.950 . S
C337 C336 1.405 . S
C337 C338 1.367 . S
C338 H312 0.950 . S
C338 C333 1.386 . S
C338 C337 1.367 . S
C339 C333 1.483 . S
C339 C340 1.382 . S
C339 C341 1.403 . S
C340 H313 0.950 . S
C340 C326 1.411 . S
C340 C339 1.382 . S
C341 C325 1.411 . S
C341 C339 1.403 . S
C341 C342 1.489 . S
C342 C341 1.489 . S
C342 C343 1.383 . S
C342 C347 1.382 . S
C343 H314 0.950 . S
C343 C342 1.383 . S
C343 C344 1.395 . S
C344 H315 0.950 . S
C344 C343 1.395 . S
C344 C345 1.288 . S
C345 C344 1.288 . S
C345 C346 1.392 . S
C346 H316 0.951 . S
C346 C345 1.392 . S
C346 C347 1.392 . S
C347 H317 0.949 . S
C347 C342 1.382 . S
C347 C346 1.392 . S
H348 C367 0.949 . S
H349 C368 0.950 . S
H350 C370 0.950 . S
H351 C371 0.950 . S
H352 C373 0.950 . S
H353 C376 0.950 . S
H354 C377 0.950 . S
H355 C379 0.951 . S
H356 C380 0.949 . S
H357 C382 0.949 . S
H358 C383 0.950 . S
H359 C385 0.950 . S
H360 C386 0.950 . S
H361 C388 0.950 . S
H362 C391 0.950 . S
H363 C392 0.950 . S
H364 C394 0.951 . S
H365 C395 0.949 . S
C366 C367 1.376 . S
C366 C371 1.386 . S
C366 C372 1.483 . S
C367 H348 0.949 . S
C367 C366 1.376 . S
C367 C368 1.397 . S
C368 H349 0.950 . S
C368 C367 1.397 . S
C368 C369 1.391 . S
C369 C368 1.391 . S
C369 C370 1.405 . S
C370 H350 0.950 . S
C370 C369 1.405 . S
C370 C371 1.367 . S
C371 H351 0.950 . S
C371 C366 1.386 . S
C371 C370 1.367 . S
C372 C366 1.483 . S
C372 C373 1.382 . S
C372 C374 1.403 . S
C373 H352 0.950 . S
C373 C372 1.382 . S
C373 C389 1.411 . S
C374 C372 1.403 . S
C374 C375 1.489 . S
C374 C388 1.411 . S
C375 C374 1.489 . S
C375 C376 1.383 . S
C375 C380 1.382 . S
C376 H353 0.950 . S
C376 C375 1.383 . S
C376 C377 1.395 . S
C377 H354 0.950 . S
C377 C376 1.395 . S
C377 C378 1.288 . S
C378 C377 1.288 . S
C378 C379 1.392 . S
C379 H355 0.951 . S
C379 C378 1.392 . S
C379 C380 1.392 . S
C380 H356 0.949 . S
C380 C375 1.382 . S
C380 C379 1.392 . S
C381 C382 1.376 . S
C381 C386 1.386 . S
C381 C387 1.483 . S
C382 H357 0.949 . S
C382 C381 1.376 . S
C382 C383 1.397 . S
C383 H358 0.950 . S
C383 C382 1.397 . S
C383 C384 1.391 . S
C384 C383 1.391 . S
C384 C385 1.405 . S
C385 H359 0.950 . S
C385 C384 1.405 . S
C385 C386 1.367 . S
C386 H360 0.950 . S
C386 C381 1.386 . S
C386 C385 1.367 . S
C387 C381 1.483 . S
C387 C388 1.382 . S
C387 C389 1.403 . S
C388 H361 0.950 . S
C388 C374 1.411 . S
C388 C387 1.382 . S
C389 C373 1.411 . S
C389 C387 1.403 . S
C389 C390 1.489 . S
C390 C389 1.489 . S
C390 C391 1.383 . S
C390 C395 1.382 . S
C391 H362 0.950 . S
C391 C390 1.383 . S
C391 C392 1.395 . S
C392 H363 0.950 . S
C392 C391 1.395 . S
C392 C393 1.288 . S
C393 C392 1.288 . S
C393 C394 1.392 . S
C394 H364 0.951 . S
C394 C393 1.392 . S
C394 C395 1.392 . S
C395 H365 0.949 . S
C395 C390 1.382 . S
C395 C394 1.392 . S
H396 C415 0.949 . S
H397 C416 0.950 . S
H398 C418 0.950 . S
H399 C419 0.950 . S
H400 C421 0.950 . S
H401 C424 0.950 . S
H402 C425 0.950 . S
H403 C427 0.951 . S
H404 C428 0.949 . S
H405 C430 0.949 . S
H406 C431 0.950 . S
H407 C433 0.950 . S
H408 C434 0.950 . S
H409 C436 0.950 . S
H410 C439 0.950 . S
H411 C440 0.950 . S
H412 C442 0.951 . S
H413 C443 0.949 . S
C414 C415 1.376 . S
C414 C419 1.386 . S
C414 C420 1.483 . S
C415 H396 0.949 . S
C415 C414 1.376 . S
C415 C416 1.397 . S
C416 H397 0.950 . S
C416 C415 1.397 . S
C416 C417 1.391 . S
C417 C416 1.391 . S
C417 C418 1.405 . S
C418 H398 0.950 . S
C418 C417 1.405 . S
C418 C419 1.367 . S
C419 H399 0.950 . S
C419 C414 1.386 . S
C419 C418 1.367 . S
C420 C414 1.483 . S
C420 C421 1.382 . S
C420 C422 1.403 . S
C421 H400 0.950 . S
C421 C420 1.382 . S
C421 C437 1.411 . S
C422 C420 1.403 . S
C422 C423 1.489 . S
C422 C436 1.411 . S
C423 C422 1.489 . S
C423 C424 1.383 . S
C423 C428 1.382 . S
C424 H401 0.950 . S
C424 C423 1.383 . S
C424 C425 1.395 . S
C425 H402 0.950 . S
C425 C424 1.395 . S
C425 C426 1.288 . S
C426 C425 1.288 . S
C426 C427 1.392 . S
C427 H403 0.951 . S
C427 C426 1.392 . S
C427 C428 1.392 . S
C428 H404 0.949 . S
C428 C423 1.382 . S
C428 C427 1.392 . S
C429 C430 1.376 . S
C429 C434 1.386 . S
C429 C435 1.483 . S
C430 H405 0.949 . S
C430 C429 1.376 . S
C430 C431 1.397 . S
C431 H406 0.950 . S
C431 C430 1.397 . S
C431 C432 1.391 . S
C432 C431 1.391 . S
C432 C433 1.405 . S
C433 H407 0.950 . S
C433 C432 1.405 . S
C433 C434 1.367 . S
C434 H408 0.950 . S
C434 C429 1.386 . S
C434 C433 1.367 . S
C435 C429 1.483 . S
C435 C436 1.382 . S
C435 C437 1.403 . S
C436 H409 0.950 . S
C436 C422 1.411 . S
C436 C435 1.382 . S
C437 C421 1.411 . S
C437 C435 1.403 . S
C437 C438 1.489 . S
C438 C437 1.489 . S
C438 C439 1.383 . S
C438 C443 1.382 . S
C439 H410 0.950 . S
C439 C438 1.383 . S
C439 C440 1.395 . S
C440 H411 0.950 . S
C440 C439 1.395 . S
C440 C441 1.288 . S
C441 C440 1.288 . S
C441 C442 1.392 . S
C442 H412 0.951 . S
C442 C441 1.392 . S
C442 C443 1.392 . S
C443 H413 0.949 . S
C443 C438 1.382 . S
C443 C442 1.392 . S
H444 C463 0.949 . S
H445 C464 0.950 . S
H446 C466 0.950 . S
H447 C467 0.950 . S
H448 C469 0.950 . S
H449 C472 0.950 . S
H450 C473 0.950 . S
H451 C475 0.951 . S
H452 C476 0.949 . S
H453 C478 0.949 . S
H454 C479 0.950 . S
H455 C481 0.950 . S
H456 C482 0.950 . S
H457 C484 0.950 . S
H458 C487 0.950 . S
H459 C488 0.950 . S
H460 C490 0.951 . S
H461 C491 0.949 . S
C462 C463 1.376 . S
C462 C467 1.386 . S
C462 C468 1.483 . S
C463 H444 0.949 . S
C463 C462 1.376 . S
C463 C464 1.397 . S
C464 H445 0.950 . S
C464 C463 1.397 . S
C464 C465 1.391 . S
C465 C464 1.391 . S
C465 C466 1.405 . S
C466 H446 0.950 . S
C466 C465 1.405 . S
C466 C467 1.367 . S
C467 H447 0.950 . S
C467 C462 1.386 . S
C467 C466 1.367 . S
C468 C462 1.483 . S
C468 C469 1.382 . S
C468 C470 1.403 . S
C469 H448 0.950 . S
C469 C468 1.382 . S
C469 C485 1.411 . S
C470 C468 1.403 . S
C470 C471 1.489 . S
C470 C484 1.411 . S
C471 C470 1.489 . S
C471 C472 1.383 . S
C471 C476 1.382 . S
C472 H449 0.950 . S
C472 C471 1.383 . S
C472 C473 1.395 . S
C473 H450 0.950 . S
C473 C472 1.395 . S
C473 C474 1.288 . S
C474 C473 1.288 . S
C474 C475 1.392 . S
C475 H451 0.951 . S
C475 C474 1.392 . S
C475 C476 1.392 . S
C476 H452 0.949 . S
C476 C471 1.382 . S
C476 C475 1.392 . S
C477 C478 1.376 . S
C477 C482 1.386 . S
C477 C483 1.483 . S
C478 H453 0.949 . S
C478 C477 1.376 . S
C478 C479 1.397 . S
C479 H454 0.950 . S
C479 C478 1.397 . S
C479 C480 1.391 . S
C480 C479 1.391 . S
C480 C481 1.405 . S
C481 H455 0.950 . S
C481 C480 1.405 . S
C481 C482 1.367 . S
C482 H456 0.950 . S
C482 C477 1.386 . S
C482 C481 1.367 . S
C483 C477 1.483 . S
C483 C484 1.382 . S
C483 C485 1.403 . S
C484 H457 0.950 . S
C484 C470 1.411 . S
C484 C483 1.382 . S
C485 C469 1.411 . S
C485 C483 1.403 . S
C485 C486 1.489 . S
C486 C485 1.489 . S
C486 C487 1.383 . S
C486 C491 1.382 . S
C487 H458 0.950 . S
C487 C486 1.383 . S
C487 C488 1.395 . S
C488 H459 0.950 . S
C488 C487 1.395 . S
C488 C489 1.288 . S
C489 C488 1.288 . S
C489 C490 1.392 . S
C490 H460 0.951 . S
C490 C489 1.392 . S
C490 C491 1.392 . S
C491 H461 0.949 . S
C491 C486 1.382 . S
C491 C490 1.392 . S
H492 C511 0.949 . S
H493 C512 0.950 . S
H494 C514 0.950 . S
H495 C515 0.950 . S
H496 C517 0.950 . S
H497 C520 0.950 . S
H498 C521 0.950 . S
H499 C523 0.951 . S
H500 C524 0.949 . S
H501 C526 0.949 . S
H502 C527 0.950 . S
H503 C529 0.950 . S
H504 C530 0.950 . S
H505 C532 0.950 . S
H506 C535 0.950 . S
H507 C536 0.950 . S
H508 C538 0.951 . S
H509 C539 0.949 . S
C510 C511 1.376 . S
C510 C515 1.386 . S
C510 C516 1.483 . S
C511 H492 0.949 . S
C511 C510 1.376 . S
C511 C512 1.397 . S
C512 H493 0.950 . S
C512 C511 1.397 . S
C512 C513 1.391 . S
C513 C512 1.391 . S
C513 C514 1.405 . S
C514 H494 0.950 . S
C514 C513 1.405 . S
C514 C515 1.367 . S
C515 H495 0.950 . S
C515 C510 1.386 . S
C515 C514 1.367 . S
C516 C510 1.483 . S
C516 C517 1.382 . S
C516 C518 1.403 . S
C517 H496 0.950 . S
C517 C516 1.382 . S
C517 C533 1.411 . S
C518 C516 1.403 . S
C518 C519 1.489 . S
C518 C532 1.411 . S
C519 C518 1.489 . S
C519 C520 1.383 . S
C519 C524 1.382 . S
C520 H497 0.950 . S
C520 C519 1.383 . S
C520 C521 1.395 . S
C521 H498 0.950 . S
C521 C520 1.395 . S
C521 C522 1.288 . S
C522 C521 1.288 . S
C522 C523 1.392 . S
C523 H499 0.951 . S
C523 C522 1.392 . S
C523 C524 1.392 . S
C524 H500 0.949 . S
C524 C519 1.382 . S
C524 C523 1.392 . S
C525 C526 1.376 . S
C525 C530 1.386 . S
C525 C531 1.483 . S
C526 H501 0.949 . S
C526 C525 1.376 . S
C526 C527 1.397 . S
C527 H502 0.950 . S
C527 C526 1.397 . S
C527 C528 1.391 . S
C528 C527 1.391 . S
C528 C529 1.405 . S
C529 H503 0.950 . S
C529 C528 1.405 . S
C529 C530 1.367 . S
C530 H504 0.950 . S
C530 C525 1.386 . S
C530 C529 1.367 . S
C531 C525 1.483 . S
C531 C532 1.382 . S
C531 C533 1.403 . S
C532 H505 0.950 . S
C532 C518 1.411 . S
C532 C531 1.382 . S
C533 C517 1.411 . S
C533 C531 1.403 . S
C533 C534 1.489 . S
C534 C533 1.489 . S
C534 C535 1.383 . S
C534 C539 1.382 . S
C535 H506 0.950 . S
C535 C534 1.383 . S
C535 C536 1.395 . S
C536 H507 0.950 . S
C536 C535 1.395 . S
C536 C537 1.288 . S
C537 C536 1.288 . S
C537 C538 1.392 . S
C538 H508 0.951 . S
C538 C537 1.392 . S
C538 C539 1.392 . S
C539 H509 0.949 . S
C539 C534 1.382 . S
C539 C538 1.392 . S
H540 C559 0.949 . S
H541 C560 0.950 . S
H542 C562 0.950 . S
H543 C563 0.950 . S
H544 C565 0.950 . S
H545 C568 0.950 . S
H546 C569 0.950 . S
H547 C571 0.951 . S
H548 C572 0.949 . S
H549 C574 0.949 . S
H550 C575 0.950 . S
H551 C577 0.950 . S
H552 C578 0.950 . S
H553 C580 0.950 . S
H554 C583 0.950 . S
H555 C584 0.950 . S
H556 C586 0.951 . S
H557 C587 0.949 . S
C558 C559 1.376 . S
C558 C563 1.386 . S
C558 C564 1.483 . S
C559 H540 0.949 . S
C559 C558 1.376 . S
C559 C560 1.397 . S
C560 H541 0.950 . S
C560 C559 1.397 . S
C560 C561 1.391 . S
C561 C560 1.391 . S
C561 C562 1.405 . S
C562 H542 0.950 . S
C562 C561 1.405 . S
C562 C563 1.367 . S
C563 H543 0.950 . S
C563 C558 1.386 . S
C563 C562 1.367 . S
C564 C558 1.483 . S
C564 C565 1.382 . S
C564 C566 1.403 . S
C565 H544 0.950 . S
C565 C564 1.382 . S
C565 C581 1.411 . S
C566 C564 1.403 . S
C566 C567 1.489 . S
C566 C580 1.411 . S
C567 C566 1.489 . S
C567 C568 1.383 . S
C567 C572 1.382 . S
C568 H545 0.950 . S
C568 C567 1.383 . S
C568 C569 1.395 . S
C569 H546 0.950 . S
C569 C568 1.395 . S
C569 C570 1.288 . S
C570 C569 1.288 . S
C570 C571 1.392 . S
C571 H547 0.951 . S
C571 C570 1.392 . S
C571 C572 1.392 . S
C572 H548 0.949 . S
C572 C567 1.382 . S
C572 C571 1.392 . S
C573 C574 1.376 . S
C573 C578 1.386 . S
C573 C579 1.483 . S
C574 H549 0.949 . S
C574 C573 1.376 . S
C574 C575 1.397 . S
C575 H550 0.950 . S
C575 C574 1.397 . S
C575 C576 1.391 . S
C576 C575 1.391 . S
C576 C577 1.405 . S
C577 H551 0.950 . S
C577 C576 1.405 . S
C577 C578 1.367 . S
C578 H552 0.950 . S
C578 C573 1.386 . S
C578 C577 1.367 . S
C579 C573 1.483 . S
C579 C580 1.382 . S
C579 C581 1.403 . S
C580 H553 0.950 . S
C580 C566 1.411 . S
C580 C579 1.382 . S
C581 C565 1.411 . S
C581 C579 1.403 . S
C581 C582 1.489 . S
C582 C581 1.489 . S
C582 C583 1.383 . S
C582 C587 1.382 . S
C583 H554 0.950 . S
C583 C582 1.383 . S
C583 C584 1.395 . S
C584 H555 0.950 . S
C584 C583 1.395 . S
C584 C585 1.288 . S
C585 C584 1.288 . S
C585 C586 1.392 . S
C586 H556 0.951 . S
C586 C585 1.392 . S
C586 C587 1.392 . S
C587 H557 0.949 . S
C587 C582 1.382 . S
C587 C586 1.392 . S
H588 C607 0.949 . S
H589 C608 0.950 . S
H590 C610 0.950 . S
H591 C611 0.950 . S
H592 C613 0.950 . S
H593 C616 0.950 . S
H594 C617 0.950 . S
H595 C619 0.951 . S
H596 C620 0.949 . S
H597 C622 0.949 . S
H598 C623 0.950 . S
H599 C625 0.950 . S
H600 C626 0.950 . S
H601 C628 0.950 . S
H602 C631 0.950 . S
H603 C632 0.950 . S
H604 C634 0.951 . S
H605 C635 0.949 . S
C606 C607 1.376 . S
C606 C611 1.386 . S
C606 C612 1.483 . S
C607 H588 0.949 . S
C607 C606 1.376 . S
C607 C608 1.397 . S
C608 H589 0.950 . S
C608 C607 1.397 . S
C608 C609 1.391 . S
C609 C608 1.391 . S
C609 C610 1.405 . S
C610 H590 0.950 . S
C610 C609 1.405 . S
C610 C611 1.367 . S
C611 H591 0.950 . S
C611 C606 1.386 . S
C611 C610 1.367 . S
C612 C606 1.483 . S
C612 C613 1.382 . S
C612 C614 1.403 . S
C613 H592 0.950 . S
C613 C612 1.382 . S
C613 C629 1.411 . S
C614 C612 1.403 . S
C614 C615 1.489 . S
C614 C628 1.411 . S
C615 C614 1.489 . S
C615 C616 1.383 . S
C615 C620 1.382 . S
C616 H593 0.950 . S
C616 C615 1.383 . S
C616 C617 1.395 . S
C617 H594 0.950 . S
C617 C616 1.395 . S
C617 C618 1.288 . S
C618 C617 1.288 . S
C618 C619 1.392 . S
C619 H595 0.951 . S
C619 C618 1.392 . S
C619 C620 1.392 . S
C620 H596 0.949 . S
C620 C615 1.382 . S
C620 C619 1.392 . S
C621 C622 1.376 . S
C621 C626 1.386 . S
C621 C627 1.483 . S
C622 H597 0.949 . S
C622 C621 1.376 . S
C622 C623 1.397 . S
C623 H598 0.950 . S
C623 C622 1.397 . S
C623 C624 1.391 . S
C624 C623 1.391 . S
C624 C625 1.405 . S
C625 H599 0.950 . S
C625 C624 1.405 . S
C625 C626 1.367 . S
C626 H600 0.950 . S
C626 C621 1.386 . S
C626 C625 1.367 . S
C627 C621 1.483 . S
C627 C628 1.382 . S
C627 C629 1.403 . S
C628 H601 0.950 . S
C628 C614 1.411 . S
C628 C627 1.382 . S
C629 C613 1.411 . S
C629 C627 1.403 . S
C629 C630 1.489 . S
C630 C629 1.489 . S
C630 C631 1.383 . S
C630 C635 1.382 . S
C631 H602 0.950 . S
C631 C630 1.383 . S
C631 C632 1.395 . S
C632 H603 0.950 . S
C632 C631 1.395 . S
C632 C633 1.288 . S
C633 C632 1.288 . S
C633 C634 1.392 . S
C634 H604 0.951 . S
C634 C633 1.392 . S
C634 C635 1.392 . S
C635 H605 0.949 . S
C635 C630 1.382 . S
C635 C634 1.392 . S
H636 C655 0.949 . S
H637 C656 0.950 . S
H638 C658 0.950 . S
H639 C659 0.950 . S
H640 C661 0.950 . S
H641 C664 0.950 . S
H642 C665 0.950 . S
H643 C667 0.951 . S
H644 C668 0.949 . S
H645 C670 0.949 . S
H646 C671 0.950 . S
H647 C673 0.950 . S
H648 C674 0.950 . S
H649 C676 0.950 . S
H650 C679 0.950 . S
H651 C680 0.950 . S
H652 C682 0.951 . S
H653 C683 0.949 . S
C654 C655 1.376 . S
C654 C659 1.386 . S
C654 C660 1.483 . S
C655 H636 0.949 . S
C655 C654 1.376 . S
C655 C656 1.397 . S
C656 H637 0.950 . S
C656 C655 1.397 . S
C656 C657 1.391 . S
C657 C656 1.391 . S
C657 C658 1.405 . S
C658 H638 0.950 . S
C658 C657 1.405 . S
C658 C659 1.367 . S
C659 H639 0.950 . S
C659 C654 1.386 . S
C659 C658 1.367 . S
C660 C654 1.483 . S
C660 C661 1.382 . S
C660 C662 1.403 . S
C661 H640 0.950 . S
C661 C660 1.382 . S
C661 C677 1.411 . S
C662 C660 1.403 . S
C662 C663 1.489 . S
C662 C676 1.411 . S
C663 C662 1.489 . S
C663 C664 1.383 . S
C663 C668 1.382 . S
C664 H641 0.950 . S
C664 C663 1.383 . S
C664 C665 1.395 . S
C665 H642 0.950 . S
C665 C664 1.395 . S
C665 C666 1.288 . S
C666 C665 1.288 . S
C666 C667 1.392 . S
C667 H643 0.951 . S
C667 C666 1.392 . S
C667 C668 1.392 . S
C668 H644 0.949 . S
C668 C663 1.382 . S
C668 C667 1.392 . S
C669 C670 1.376 . S
C669 C674 1.386 . S
C669 C675 1.483 . S
C670 H645 0.949 . S
C670 C669 1.376 . S
C670 C671 1.397 . S
C671 H646 0.950 . S
C671 C670 1.397 . S
C671 C672 1.391 . S
C672 C671 1.391 . S
C672 C673 1.405 . S
C673 H647 0.950 . S
C673 C672 1.405 . S
C673 C674 1.367 . S
C674 H648 0.950 . S
C674 C669 1.386 . S
C674 C673 1.367 . S
C675 C669 1.483 . S
C675 C676 1.382 . S
C675 C677 1.403 . S
C676 H649 0.950 . S
C676 C662 1.411 . S
C676 C675 1.382 . S
C677 C661 1.411 . S
C677 C675 1.403 . S
C677 C678 1.489 . S
C678 C677 1.489 . S
C678 C679 1.383 . S
C678 C683 1.382 . S
C679 H650 0.950 . S
C679 C678 1.383 . S
C679 C680 1.395 . S
C680 H651 0.950 . S
C680 C679 1.395 . S
C680 C681 1.288 . S
C681 C680 1.288 . S
C681 C682 1.392 . S
C682 H652 0.951 . S
C682 C681 1.392 . S
C682 C683 1.392 . S
C683 H653 0.949 . S
C683 C678 1.382 . S
C683 C682 1.392 . S
H684 C703 0.949 . S
H685 C704 0.950 . S
H686 C706 0.950 . S
H687 C707 0.950 . S
H688 C709 0.950 . S
H689 C712 0.950 . S
H690 C713 0.950 . S
H691 C715 0.951 . S
H692 C716 0.949 . S
H693 C718 0.949 . S
H694 C719 0.950 . S
H695 C721 0.950 . S
H696 C722 0.950 . S
H697 C724 0.950 . S
H698 C727 0.950 . S
H699 C728 0.950 . S
H700 C730 0.951 . S
H701 C731 0.949 . S
C702 C703 1.376 . S
C702 C707 1.386 1_655 S
C702 C708 1.483 . S
C703 H684 0.949 . S
C703 C702 1.376 . S
C703 C704 1.397 . S
C704 H685 0.950 . S
C704 C703 1.397 . S
C704 C705 1.391 . S
C705 C704 1.391 . S
C705 C706 1.405 1_655 S
C706 H686 0.950 . S
C706 C705 1.405 1_455 S
C706 C707 1.367 . S
C707 H687 0.950 . S
C707 C702 1.386 1_455 S
C707 C706 1.367 . S
C708 C702 1.483 . S
C708 C709 1.382 . S
C708 C710 1.403 1_655 S
C709 H688 0.950 . S
C709 C708 1.382 . S
C709 C725 1.411 . S
C710 C708 1.403 1_455 S
C710 C711 1.489 . S
C710 C724 1.411 . S
C711 C710 1.489 . S
C711 C712 1.383 1_455 S
C711 C716 1.382 . S
C712 H689 0.950 . S
C712 C711 1.383 1_655 S
C712 C713 1.395 . S
C713 H690 0.950 . S
C713 C712 1.395 . S
C713 C714 1.288 1_655 S
C714 C713 1.288 1_455 S
C714 C715 1.392 . S
C715 H691 0.951 . S
C715 C714 1.392 . S
C715 C716 1.392 . S
C716 H692 0.949 . S
C716 C711 1.382 . S
C716 C715 1.392 . S
C717 C718 1.376 . S
C717 C722 1.386 1_455 S
C717 C723 1.483 . S
C718 H693 0.949 . S
C718 C717 1.376 . S
C718 C719 1.397 . S
C719 H694 0.950 . S
C719 C718 1.397 . S
C719 C720 1.391 . S
C720 C719 1.391 . S
C720 C721 1.405 1_455 S
C721 H695 0.950 . S
C721 C720 1.405 1_655 S
C721 C722 1.367 . S
C722 H696 0.950 . S
C722 C717 1.386 1_655 S
C722 C721 1.367 . S
C723 C717 1.483 . S
C723 C724 1.382 . S
C723 C725 1.403 1_455 S
C724 H697 0.950 . S
C724 C710 1.411 . S
C724 C723 1.382 . S
C725 C709 1.411 . S
C725 C723 1.403 1_655 S
C725 C726 1.489 . S
C726 C725 1.489 . S
C726 C727 1.383 1_655 S
C726 C731 1.382 . S
C727 H698 0.950 . S
C727 C726 1.383 1_455 S
C727 C728 1.395 . S
C728 H699 0.950 . S
C728 C727 1.395 . S
C728 C729 1.288 1_455 S
C729 C728 1.288 1_655 S
C729 C730 1.392 . S
C730 H700 0.951 . S
C730 C729 1.392 . S
C730 C731 1.392 . S
C731 H701 0.949 . S
C731 C726 1.382 . S
C731 C730 1.392 . S
H732 C751 0.949 . S
H733 C752 0.950 . S
H734 C754 0.950 . S
H735 C755 0.950 . S
H736 C757 0.950 . S
H737 C760 0.950 . S
H738 C761 0.950 . S
H739 C763 0.951 . S
H740 C764 0.949 . S
H741 C766 0.949 . S
H742 C767 0.950 . S
H743 C769 0.950 . S
H744 C770 0.950 . S
H745 C772 0.950 . S
H746 C775 0.950 . S
H747 C776 0.950 . S
H748 C778 0.951 . S
H749 C779 0.949 . S
C750 C751 1.376 . S
C750 C755 1.386 . S
C750 C756 1.483 . S
C751 H732 0.949 . S
C751 C750 1.376 . S
C751 C752 1.397 . S
C752 H733 0.950 . S
C752 C751 1.397 . S
C752 C753 1.391 . S
C753 C752 1.391 . S
C753 C754 1.405 . S
C754 H734 0.950 . S
C754 C753 1.405 . S
C754 C755 1.367 . S
C755 H735 0.950 . S
C755 C750 1.386 . S
C755 C754 1.367 . S
C756 C750 1.483 . S
C756 C757 1.382 . S
C756 C758 1.403 . S
C757 H736 0.950 . S
C757 C756 1.382 . S
C757 C773 1.411 . S
C758 C756 1.403 . S
C758 C759 1.489 . S
C758 C772 1.411 . S
C759 C758 1.489 . S
C759 C760 1.383 . S
C759 C764 1.382 . S
C760 H737 0.950 . S
C760 C759 1.383 . S
C760 C761 1.395 . S
C761 H738 0.950 . S
C761 C760 1.395 . S
C761 C762 1.288 . S
C762 C761 1.288 . S
C762 C763 1.392 . S
C763 H739 0.951 . S
C763 C762 1.392 . S
C763 C764 1.392 . S
C764 H740 0.949 . S
C764 C759 1.382 . S
C764 C763 1.392 . S
C765 C766 1.376 . S
C765 C770 1.386 . S
C765 C771 1.483 . S
C766 H741 0.949 . S
C766 C765 1.376 . S
C766 C767 1.397 . S
C767 H742 0.950 . S
C767 C766 1.397 . S
C767 C768 1.391 . S
C768 C767 1.391 . S
C768 C769 1.405 . S
C769 H743 0.950 . S
C769 C768 1.405 . S
C769 C770 1.367 . S
C770 H744 0.950 . S
C770 C765 1.386 . S
C770 C769 1.367 . S
C771 C765 1.483 . S
C771 C772 1.382 . S
C771 C773 1.403 . S
C772 H745 0.950 . S
C772 C758 1.411 . S
C772 C771 1.382 . S
C773 C757 1.411 . S
C773 C771 1.403 . S
C773 C774 1.489 . S
C774 C773 1.489 . S
C774 C775 1.383 . S
C774 C779 1.382 . S
C775 H746 0.950 . S
C775 C774 1.383 . S
C775 C776 1.395 . S
C776 H747 0.950 . S
C776 C775 1.395 . S
C776 C777 1.288 . S
C777 C776 1.288 . S
C777 C778 1.392 . S
C778 H748 0.951 . S
C778 C777 1.392 . S
C778 C779 1.392 . S
C779 H749 0.949 . S
C779 C774 1.382 . S
C779 C778 1.392 . S
H780 C799 0.949 . S
H781 C800 0.950 . S
H782 C802 0.950 . S
H783 C803 0.950 . S
H784 C805 0.950 . S
H785 C808 0.950 . S
H786 C809 0.950 . S
H787 C811 0.951 . S
H788 C812 0.949 . S
H789 C814 0.949 . S
H790 C815 0.950 . S
H791 C817 0.950 . S
H792 C818 0.950 . S
H793 C820 0.950 . S
H794 C823 0.950 . S
H795 C824 0.950 . S
H796 C826 0.951 . S
H797 C827 0.949 . S
C798 C799 1.376 . S
C798 C803 1.386 1_545 S
C798 C804 1.483 . S
C799 H780 0.949 . S
C799 C798 1.376 . S
C799 C800 1.397 . S
C800 H781 0.950 . S
C800 C799 1.397 . S
C800 C801 1.391 . S
C801 C800 1.391 . S
C801 C802 1.405 1_545 S
C802 H782 0.950 . S
C802 C801 1.405 1_565 S
C802 C803 1.367 . S
C803 H783 0.950 . S
C803 C798 1.386 1_565 S
C803 C802 1.367 . S
C804 C798 1.483 . S
C804 C805 1.382 . S
C804 C806 1.403 1_545 S
C805 H784 0.950 . S
C805 C804 1.382 . S
C805 C821 1.411 . S
C806 C804 1.403 1_565 S
C806 C807 1.489 . S
C806 C820 1.411 . S
C807 C806 1.489 . S
C807 C808 1.383 1_565 S
C807 C812 1.382 . S
C808 H785 0.950 . S
C808 C807 1.383 1_545 S
C808 C809 1.395 . S
C809 H786 0.950 . S
C809 C808 1.395 . S
C809 C810 1.288 1_545 S
C810 C809 1.288 1_565 S
C810 C811 1.392 . S
C811 H787 0.951 . S
C811 C810 1.392 . S
C811 C812 1.392 . S
C812 H788 0.949 . S
C812 C807 1.382 . S
C812 C811 1.392 . S
C813 C814 1.376 . S
C813 C818 1.386 1_565 S
C813 C819 1.483 . S
C814 H789 0.949 . S
C814 C813 1.376 . S
C814 C815 1.397 . S
C815 H790 0.950 . S
C815 C814 1.397 . S
C815 C816 1.391 . S
C816 C815 1.391 . S
C816 C817 1.405 1_565 S
C817 H791 0.950 . S
C817 C816 1.405 1_545 S
C817 C818 1.367 . S
C818 H792 0.950 . S
C818 C813 1.386 1_545 S
C818 C817 1.367 . S
C819 C813 1.483 . S
C819 C820 1.382 . S
C819 C821 1.403 1_565 S
C820 H793 0.950 . S
C820 C806 1.411 . S
C820 C819 1.382 . S
C821 C805 1.411 . S
C821 C819 1.403 1_545 S
C821 C822 1.489 . S
C822 C821 1.489 . S
C822 C823 1.383 1_545 S
C822 C827 1.382 . S
C823 H794 0.950 . S
C823 C822 1.383 1_565 S
C823 C824 1.395 . S
C824 H795 0.950 . S
C824 C823 1.395 . S
C824 C825 1.288 1_565 S
C825 C824 1.288 1_545 S
C825 C826 1.392 . S
C826 H796 0.951 . S
C826 C825 1.392 . S
C826 C827 1.392 . S
C827 H797 0.949 . S
C827 C822 1.382 . S
C827 C826 1.392 . S
H828 C847 0.949 . S
H829 C848 0.950 . S
H830 C850 0.950 . S
H831 C851 0.950 . S
H832 C853 0.950 . S
H833 C856 0.950 . S
H834 C857 0.950 . S
H835 C859 0.951 . S
H836 C860 0.949 . S
H837 C862 0.949 . S
H838 C863 0.950 . S
H839 C865 0.950 . S
H840 C866 0.950 . S
H841 C868 0.950 . S
H842 C871 0.950 . S
H843 C872 0.950 . S
H844 C874 0.951 . S
H845 C875 0.949 . S
C846 C847 1.400 . S
C846 C851 1.376 1_545 S
C846 C852 1.469 . S
C847 H828 0.949 . S
C847 C846 1.400 . S
C847 C848 1.397 . S
C848 H829 0.950 . S
C848 C847 1.397 . S
C848 C849 1.391 1_545 S
C849 C848 1.391 1_565 S
C849 C850 1.405 . S
C850 H830 0.950 . S
C850 C849 1.405 . S
C850 C851 1.367 . S
C851 H831 0.950 . S
C851 C846 1.376 1_565 S
C851 C850 1.367 . S
C852 C846 1.469 . S
C852 C853 1.382 . S
C852 C854 1.400 1_545 S
C853 H832 0.950 . S
C853 C852 1.382 . S
C853 C869 1.411 . S
C854 C852 1.400 1_565 S
C854 C855 1.475 . S
C854 C868 1.432 . S
C855 C854 1.475 . S
C855 C856 1.376 1_565 S
C855 C860 1.385 . S
C856 H833 0.950 . S
C856 C855 1.376 1_545 S
C856 C857 1.395 . S
C857 H834 0.950 . S
C857 C856 1.395 . S
C857 C858 1.288 . S
C858 C857 1.288 . S
C858 C859 1.392 1_545 S
C859 H835 0.951 . S
C859 C858 1.392 1_565 S
C859 C860 1.392 . S
C860 H836 0.949 . S
C860 C855 1.385 . S
C860 C859 1.392 . S
C861 C862 1.393 . S
C861 C866 1.379 1_565 S
C861 C867 1.473 . S
C862 H837 0.949 . S
C862 C861 1.393 . S
C862 C863 1.397 . S
C863 H838 0.950 . S
C863 C862 1.397 . S
C863 C864 1.391 1_565 S
C864 C863 1.391 1_545 S
C864 C865 1.405 . S
C865 H839 0.950 . S
C865 C864 1.405 . S
C865 C866 1.367 . S
C866 H840 0.950 . S
C866 C861 1.379 1_545 S
C866 C865 1.367 . S
C867 C861 1.473 . S
C867 C868 1.382 . S
C867 C869 1.403 1_565 S
C868 H841 0.950 . S
C868 C854 1.432 . S
C868 C867 1.382 . S
C869 C853 1.411 . S
C869 C867 1.403 1_545 S
C869 C870 1.497 . S
C870 C869 1.497 . S
C870 C871 1.366 1_545 S
C870 C875 1.390 . S
C871 H842 0.950 . S
C871 C870 1.366 1_565 S
C871 C872 1.395 . S
C872 H843 0.950 . S
C872 C871 1.395 . S
C872 C873 1.288 . S
C873 C872 1.288 . S
C873 C874 1.392 1_565 S
C874 H844 0.951 . S
C874 C873 1.392 1_545 S
C874 C875 1.392 . S
C875 H845 0.949 . S
C875 C870 1.390 . S
C875 C874 1.392 . S
H876 C895 0.949 . S
H877 C896 0.950 . S
H878 C898 0.950 . S
H879 C899 0.950 . S
H880 C901 0.950 . S
H881 C904 0.950 . S
H882 C905 0.950 . S
H883 C907 0.951 . S
H884 C908 0.949 . S
H885 C910 0.949 . S
H886 C911 0.950 . S
H887 C913 0.950 . S
H888 C914 0.950 . S
H889 C916 0.950 . S
H890 C919 0.950 . S
H891 C920 0.950 . S
H892 C922 0.951 . S
H893 C923 0.949 . S
C894 C895 1.376 . S
C894 C899 1.386 1_455 S
C894 C900 1.483 . S
C895 H876 0.949 . S
C895 C894 1.376 . S
C895 C896 1.397 . S
C896 H877 0.950 . S
C896 C895 1.397 . S
C896 C897 1.391 . S
C897 C896 1.391 . S
C897 C898 1.405 1_455 S
C898 H878 0.950 . S
C898 C897 1.405 1_655 S
C898 C899 1.367 . S
C899 H879 0.950 . S
C899 C894 1.386 1_655 S
C899 C898 1.367 . S
C900 C894 1.483 . S
C900 C901 1.382 . S
C900 C902 1.403 1_455 S
C901 H880 0.950 . S
C901 C900 1.382 . S
C901 C917 1.411 . S
C902 C900 1.403 1_655 S
C902 C903 1.489 . S
C902 C916 1.411 . S
C903 C902 1.489 . S
C903 C904 1.383 1_655 S
C903 C908 1.382 . S
C904 H881 0.950 . S
C904 C903 1.383 1_455 S
C904 C905 1.395 . S
C905 H882 0.950 . S
C905 C904 1.395 . S
C905 C906 1.288 1_455 S
C906 C905 1.288 1_655 S
C906 C907 1.392 . S
C907 H883 0.951 . S
C907 C906 1.392 . S
C907 C908 1.392 . S
C908 H884 0.949 . S
C908 C903 1.382 . S
C908 C907 1.392 . S
C909 C910 1.376 . S
C909 C914 1.386 1_655 S
C909 C915 1.483 . S
C910 H885 0.949 . S
C910 C909 1.376 . S
C910 C911 1.397 . S
C911 H886 0.950 . S
C911 C910 1.397 . S
C911 C912 1.391 . S
C912 C911 1.391 . S
C912 C913 1.405 1_655 S
C913 H887 0.950 . S
C913 C912 1.405 1_455 S
C913 C914 1.367 . S
C914 H888 0.950 . S
C914 C909 1.386 1_455 S
C914 C913 1.367 . S
C915 C909 1.483 . S
C915 C916 1.382 . S
C915 C917 1.403 1_655 S
C916 H889 0.950 . S
C916 C902 1.411 . S
C916 C915 1.382 . S
C917 C901 1.411 . S
C917 C915 1.403 1_455 S
C917 C918 1.489 . S
C918 C917 1.489 . S
C918 C919 1.383 1_455 S
C918 C923 1.382 . S
C919 H890 0.950 . S
C919 C918 1.383 1_655 S
C919 C920 1.395 . S
C920 H891 0.950 . S
C920 C919 1.395 . S
C920 C921 1.288 1_655 S
C921 C920 1.288 1_455 S
C921 C922 1.392 . S
C922 H892 0.951 . S
C922 C921 1.392 . S
C922 C923 1.392 . S
C923 H893 0.949 . S
C923 C918 1.382 . S
C923 C922 1.392 . S
H924 C943 0.949 . S
H925 C944 0.950 . S
H926 C946 0.950 . S
H927 C947 0.950 . S
H928 C949 0.950 . S
H929 C952 0.950 . S
H930 C953 0.950 . S
H931 C955 0.951 . S
H932 C956 0.949 . S
H933 C958 0.949 . S
H934 C959 0.950 . S
H935 C961 0.950 . S
H936 C962 0.950 . S
H937 C964 0.950 . S
H938 C967 0.950 . S
H939 C968 0.950 . S
H940 C970 0.951 . S
H941 C971 0.949 . S
C942 C943 1.376 . S
C942 C947 1.386 . S
C942 C948 1.483 . S
C943 H924 0.949 . S
C943 C942 1.376 . S
C943 C944 1.397 . S
C944 H925 0.950 . S
C944 C943 1.397 . S
C944 C945 1.391 . S
C945 C944 1.391 . S
C945 C946 1.405 . S
C946 H926 0.950 . S
C946 C945 1.405 . S
C946 C947 1.367 . S
C947 H927 0.950 . S
C947 C942 1.386 . S
C947 C946 1.367 . S
C948 C942 1.483 . S
C948 C949 1.382 . S
C948 C950 1.403 . S
C949 H928 0.950 . S
C949 C948 1.382 . S
C949 C965 1.411 . S
C950 C948 1.403 . S
C950 C951 1.489 . S
C950 C964 1.411 . S
C951 C950 1.489 . S
C951 C952 1.383 . S
C951 C956 1.382 . S
C952 H929 0.950 . S
C952 C951 1.383 . S
C952 C953 1.395 . S
C953 H930 0.950 . S
C953 C952 1.395 . S
C953 C954 1.288 . S
C954 C953 1.288 . S
C954 C955 1.392 . S
C955 H931 0.951 . S
C955 C954 1.392 . S
C955 C956 1.392 . S
C956 H932 0.949 . S
C956 C951 1.382 . S
C956 C955 1.392 . S
C957 C958 1.376 . S
C957 C962 1.386 . S
C957 C963 1.483 . S
C958 H933 0.949 . S
C958 C957 1.376 . S
C958 C959 1.397 . S
C959 H934 0.950 . S
C959 C958 1.397 . S
C959 C960 1.391 . S
C960 C959 1.391 . S
C960 C961 1.405 . S
C961 H935 0.950 . S
C961 C960 1.405 . S
C961 C962 1.367 . S
C962 H936 0.950 . S
C962 C957 1.386 . S
C962 C961 1.367 . S
C963 C957 1.483 . S
C963 C964 1.382 . S
C963 C965 1.403 . S
C964 H937 0.950 . S
C964 C950 1.411 . S
C964 C963 1.382 . S
C965 C949 1.411 . S
C965 C963 1.403 . S
C965 C966 1.489 . S
C966 C965 1.489 . S
C966 C967 1.383 . S
C966 C971 1.382 . S
C967 H938 0.950 . S
C967 C966 1.383 . S
C967 C968 1.395 . S
C968 H939 0.950 . S
C968 C967 1.395 . S
C968 C969 1.288 . S
C969 C968 1.288 . S
C969 C970 1.392 . S
C970 H940 0.951 . S
C970 C969 1.392 . S
C970 C971 1.392 . S
C971 H941 0.949 . S
C971 C966 1.382 . S
C971 C970 1.392 . S
H972 C991 0.949 . S
H973 C992 0.950 . S
H974 C994 0.950 . S
H975 C995 0.950 . S
H976 C997 0.950 . S
H977 C1000 0.950 . S
H978 C1001 0.950 . S
H979 C1003 0.951 . S
H980 C1004 0.949 . S
H981 C1006 0.949 . S
H982 C1007 0.950 . S
H983 C1009 0.950 . S
H984 C1010 0.950 . S
H985 C1012 0.950 . S
H986 C1015 0.950 . S
H987 C1016 0.950 . S
H988 C1018 0.951 . S
H989 C1019 0.949 . S
C990 C991 1.376 . S
C990 C995 1.386 . S
C990 C996 1.483 . S
C991 H972 0.949 . S
C991 C990 1.376 . S
C991 C992 1.397 . S
C992 H973 0.950 . S
C992 C991 1.397 . S
C992 C993 1.391 . S
C993 C992 1.391 . S
C993 C994 1.405 . S
C994 H974 0.950 . S
C994 C993 1.405 . S
C994 C995 1.367 . S
C995 H975 0.950 . S
C995 C990 1.386 . S
C995 C994 1.367 . S
C996 C990 1.483 . S
C996 C997 1.382 . S
C996 C998 1.403 . S
C997 H976 0.950 . S
C997 C996 1.382 . S
C997 C1013 1.411 . S
C998 C996 1.403 . S
C998 C999 1.489 . S
C998 C1012 1.411 . S
C999 C998 1.489 . S
C999 C1000 1.383 . S
C999 C1004 1.382 . S
C1000 H977 0.950 . S
C1000 C999 1.383 . S
C1000 C1001 1.395 . S
C1001 H978 0.950 . S
C1001 C1000 1.395 . S
C1001 C1002 1.288 . S
C1002 C1001 1.288 . S
C1002 C1003 1.392 . S
C1003 H979 0.951 . S
C1003 C1002 1.392 . S
C1003 C1004 1.392 . S
C1004 H980 0.949 . S
C1004 C999 1.382 . S
C1004 C1003 1.392 . S
C1005 C1006 1.376 . S
C1005 C1010 1.386 . S
C1005 C1011 1.483 . S
C1006 H981 0.949 . S
C1006 C1005 1.376 . S
C1006 C1007 1.397 . S
C1007 H982 0.950 . S
C1007 C1006 1.397 . S
C1007 C1008 1.391 . S
C1008 C1007 1.391 . S
C1008 C1009 1.405 . S
C1009 H983 0.950 . S
C1009 C1008 1.405 . S
C1009 C1010 1.367 . S
C1010 H984 0.950 . S
C1010 C1005 1.386 . S
C1010 C1009 1.367 . S
C1011 C1005 1.483 . S
C1011 C1012 1.382 . S
C1011 C1013 1.403 . S
C1012 H985 0.950 . S
C1012 C998 1.411 . S
C1012 C1011 1.382 . S
C1013 C997 1.411 . S
C1013 C1011 1.403 . S
C1013 C1014 1.489 . S
C1014 C1013 1.489 . S
C1014 C1015 1.383 . S
C1014 C1019 1.382 . S
C1015 H986 0.950 . S
C1015 C1014 1.383 . S
C1015 C1016 1.395 . S
C1016 H987 0.950 . S
C1016 C1015 1.395 . S
C1016 C1017 1.288 . S
C1017 C1016 1.288 . S
C1017 C1018 1.392 . S
C1018 H988 0.951 . S
C1018 C1017 1.392 . S
C1018 C1019 1.392 . S
C1019 H989 0.949 . S
C1019 C1014 1.382 . S
C1019 C1018 1.392 . S
H1020 C1039 0.949 . S
H1021 C1040 0.950 . S
H1022 C1042 0.950 . S
H1023 C1043 0.950 . S
H1024 C1045 0.950 . S
H1025 C1048 0.950 . S
H1026 C1049 0.950 . S
H1027 C1051 0.951 . S
H1028 C1052 0.949 . S
H1029 C1054 0.949 . S
H1030 C1055 0.950 . S
H1031 C1057 0.950 . S
H1032 C1058 0.950 . S
H1033 C1060 0.950 . S
H1034 C1063 0.950 . S
H1035 C1064 0.950 . S
H1036 C1066 0.951 . S
H1037 C1067 0.949 . S
C1038 C1039 1.376 . S
C1038 C1043 1.386 . S
C1038 C1044 1.483 . S
C1039 H1020 0.949 . S
C1039 C1038 1.376 . S
C1039 C1040 1.397 . S
C1040 H1021 0.950 . S
C1040 C1039 1.397 . S
C1040 C1041 1.391 . S
C1041 C1040 1.391 . S
C1041 C1042 1.405 . S
C1042 H1022 0.950 . S
C1042 C1041 1.405 . S
C1042 C1043 1.367 . S
C1043 H1023 0.950 . S
C1043 C1038 1.386 . S
C1043 C1042 1.367 . S
C1044 C1038 1.483 . S
C1044 C1045 1.382 . S
C1044 C1046 1.403 . S
C1045 H1024 0.950 . S
C1045 C1044 1.382 . S
C1045 C1061 1.411 . S
C1046 C1044 1.403 . S
C1046 C1047 1.489 . S
C1046 C1060 1.411 . S
C1047 C1046 1.489 . S
C1047 C1048 1.383 . S
C1047 C1052 1.382 . S
C1048 H1025 0.950 . S
C1048 C1047 1.383 . S
C1048 C1049 1.395 . S
C1049 H1026 0.950 . S
C1049 C1048 1.395 . S
C1049 C1050 1.288 . S
C1050 C1049 1.288 . S
C1050 C1051 1.392 . S
C1051 H1027 0.951 . S
C1051 C1050 1.392 . S
C1051 C1052 1.392 . S
C1052 H1028 0.949 . S
C1052 C1047 1.382 . S
C1052 C1051 1.392 . S
C1053 C1054 1.376 . S
C1053 C1058 1.386 . S
C1053 C1059 1.483 . S
C1054 H1029 0.949 . S
C1054 C1053 1.376 . S
C1054 C1055 1.397 . S
C1055 H1030 0.950 . S
C1055 C1054 1.397 . S
C1055 C1056 1.391 . S
C1056 C1055 1.391 . S
C1056 C1057 1.405 . S
C1057 H1031 0.950 . S
C1057 C1056 1.405 . S
C1057 C1058 1.367 . S
C1058 H1032 0.950 . S
C1058 C1053 1.386 . S
C1058 C1057 1.367 . S
C1059 C1053 1.483 . S
C1059 C1060 1.382 . S
C1059 C1061 1.403 . S
C1060 H1033 0.950 . S
C1060 C1046 1.411 . S
C1060 C1059 1.382 . S
C1061 C1045 1.411 . S
C1061 C1059 1.403 . S
C1061 C1062 1.489 . S
C1062 C1061 1.489 . S
C1062 C1063 1.383 . S
C1062 C1067 1.382 . S
C1063 H1034 0.950 . S
C1063 C1062 1.383 . S
C1063 C1064 1.395 . S
C1064 H1035 0.950 . S
C1064 C1063 1.395 . S
C1064 C1065 1.288 . S
C1065 C1064 1.288 . S
C1065 C1066 1.392 . S
C1066 H1036 0.951 . S
C1066 C1065 1.392 . S
C1066 C1067 1.392 . S
C1067 H1037 0.949 . S
C1067 C1062 1.382 . S
C1067 C1066 1.392 . S
H1068 C1087 0.949 . S
H1069 C1088 0.950 . S
H1070 C1090 0.950 . S
H1071 C1091 0.950 . S
H1072 C1093 0.950 . S
H1073 C1096 0.950 . S
H1074 C1097 0.950 . S
H1075 C1099 0.951 . S
H1076 C1100 0.949 . S
H1077 C1102 0.949 . S
H1078 C1103 0.950 . S
H1079 C1105 0.950 . S
H1080 C1106 0.950 . S
H1081 C1108 0.950 . S
H1082 C1111 0.950 . S
H1083 C1112 0.950 . S
H1084 C1114 0.951 . S
H1085 C1115 0.949 . S
C1086 C1087 1.376 . S
C1086 C1091 1.386 . S
C1086 C1092 1.483 . S
C1087 H1068 0.949 . S
C1087 C1086 1.376 . S
C1087 C1088 1.397 . S
C1088 H1069 0.950 . S
C1088 C1087 1.397 . S
C1088 C1089 1.391 . S
C1089 C1088 1.391 . S
C1089 C1090 1.405 . S
C1090 H1070 0.950 . S
C1090 C1089 1.405 . S
C1090 C1091 1.367 . S
C1091 H1071 0.950 . S
C1091 C1086 1.386 . S
C1091 C1090 1.367 . S
C1092 C1086 1.483 . S
C1092 C1093 1.382 . S
C1092 C1094 1.403 . S
C1093 H1072 0.950 . S
C1093 C1092 1.382 . S
C1093 C1109 1.411 . S
C1094 C1092 1.403 . S
C1094 C1095 1.489 . S
C1094 C1108 1.411 . S
C1095 C1094 1.489 . S
C1095 C1096 1.383 . S
C1095 C1100 1.382 . S
C1096 H1073 0.950 . S
C1096 C1095 1.383 . S
C1096 C1097 1.395 . S
C1097 H1074 0.950 . S
C1097 C1096 1.395 . S
C1097 C1098 1.288 . S
C1098 C1097 1.288 . S
C1098 C1099 1.392 . S
C1099 H1075 0.951 . S
C1099 C1098 1.392 . S
C1099 C1100 1.392 . S
C1100 H1076 0.949 . S
C1100 C1095 1.382 . S
C1100 C1099 1.392 . S
C1101 C1102 1.376 . S
C1101 C1106 1.386 . S
C1101 C1107 1.483 . S
C1102 H1077 0.949 . S
C1102 C1101 1.376 . S
C1102 C1103 1.397 . S
C1103 H1078 0.950 . S
C1103 C1102 1.397 . S
C1103 C1104 1.391 . S
C1104 C1103 1.391 . S
C1104 C1105 1.405 . S
C1105 H1079 0.950 . S
C1105 C1104 1.405 . S
C1105 C1106 1.367 . S
C1106 H1080 0.950 . S
C1106 C1101 1.386 . S
C1106 C1105 1.367 . S
C1107 C1101 1.483 . S
C1107 C1108 1.382 . S
C1107 C1109 1.403 . S
C1108 H1081 0.950 . S
C1108 C1094 1.411 . S
C1108 C1107 1.382 . S
C1109 C1093 1.411 . S
C1109 C1107 1.403 . S
C1109 C1110 1.489 . S
C1110 C1109 1.489 . S
C1110 C1111 1.383 . S
C1110 C1115 1.382 . S
C1111 H1082 0.950 . S
C1111 C1110 1.383 . S
C1111 C1112 1.395 . S
C1112 H1083 0.950 . S
C1112 C1111 1.395 . S
C1112 C1113 1.288 . S
C1113 C1112 1.288 . S
C1113 C1114 1.392 . S
C1114 H1084 0.951 . S
C1114 C1113 1.392 . S
C1114 C1115 1.392 . S
C1115 H1085 0.949 . S
C1115 C1110 1.382 . S
C1115 C1114 1.392 . S
C13 C729 1.581 . S
C27 C777 1.410 . S
C825 C36 1.463 . S
C41 C849 1.606 . S
C8 C921 1.556 . S
C22 C969 1.599 . S
C55 C897 1.668 . S
C945 C69 1.464 . S
C873 C78 1.474 . S
C83 C801 1.624 . S
C705 C50 1.608 . S
C64 C753 1.605 . S
C97 C1017 1.690 . S
C111 C1065 1.504 . S
C1089 C120 1.825 . S
C125 C273 1.557 . S
C92 C345 2.084 . S
C106 C393 1.769 . S
C139 C321 1.641 . S
C153 C369 1.548 . S
C297 C162 1.717 . S
C1113 C167 1.554 . S
C993 C134 2.091 . S
C1041 C148 1.814 . S
C181 C441 1.626 . S
C195 C489 1.490 . S
C204 C513 1.806 . S
C209 C561 1.612 . S
C633 C176 2.120 . S
C681 C190 1.820 . S
C609 C223 1.713 . S
C657 C237 1.558 . S
C246 C585 1.734 . S
C537 C251 1.494 . S
C218 C417 2.058 . S
C465 C232 1.772 . S
C282 C11 1.840 . S
C25 C336 1.672 . S
C384 C35 1.816 . S
C432 C39 1.837 . S
C480 C7 1.957 . S
C522 C21 1.993 . S
C53 C528 1.796 . S
C67 C426 1.598 . S
C77 C474 1.754 . S
C81 C330 1.785 . S
C378 C49 1.928 . S
C63 C288 1.935 . S
C570 C95 1.771 . S
C109 C624 1.667 . S
C119 C672 1.781 . S
C720 C123 1.285 . S
C91 C768 1.797 . S
C105 C816 1.280 . S
C137 C810 1.334 . S
C151 C714 1.151 . S
C762 C161 1.592 . S
C165 C618 1.742 . S
C133 C666 1.886 . S
C576 C147 1.924 . S
C858 C179 1.384 . S
C193 C912 1.150 . S
C203 C960 1.646 . S
C1008 C207 1.776 . S
C1056 C175 1.919 . S
C189 C1098 1.975 . S
C221 C1104 1.723 . S
C235 C1002 1.610 . S
C1050 C245 1.710 . S
C906 C249 1.268 . S
C954 C217 1.770 . S
C231 C864 1.374 . S
