# Generated by pormake.
# Topology anh, (6,3)-cn, num edge types: 1
# Building blocks:
#     Node 0, Type 0, BuildingBlock: BETDIP_clean_sbu_0, # of connection points: 6
#     Node 1, Type 0, BuildingBlock: BETDIP_clean_sbu_0, # of connection points: 6
#     Node 2, Type 0, BuildingBlock: BETDIP_clean_sbu_0, # of connection points: 6
#     Node 3, Type 1, BuildingBlock: QEWDON_clean_linker_0, # of connection points: 3
#     Node 4, Type 1, BuildingBlock: QEWDON_clean_linker_0, # of connection points: 3
#     Node 5, Type 1, BuildingBlock: QEWDON_clean_linker_0, # of connection points: 3
#     Node 6, Type 1, BuildingBlock: QEWDON_clean_linker_0, # of connection points: 3
#     Node 7, Type 1, BuildingBlock: QEWDON_clean_linker_0, # of connection points: 3
#     Node 8, Type 1, BuildingBlock: QEWDON_clean_linker_0, # of connection points: 3
#     Edge 9, Type (0, 1), BuildingBlock: UVAHIK_clean_linker_0, # of connection points: 2
#     Edge 10, Type (0, 1), BuildingBlock: UVAHIK_clean_linker_0, # of connection points: 2
#     Edge 11, Type (0, 1), BuildingBlock: UVAHIK_clean_linker_0, # of connection points: 2
#     Edge 12, Type (0, 1), BuildingBlock: UVAHIK_clean_linker_0, # of connection points: 2
#     Edge 13, Type (0, 1), BuildingBlock: UVAHIK_clean_linker_0, # of connection points: 2
#     Edge 14, Type (0, 1), BuildingBlock: UVAHIK_clean_linker_0, # of connection points: 2
#     Edge 15, Type (0, 1), BuildingBlock: UVAHIK_clean_linker_0, # of connection points: 2
#     Edge 16, Type (0, 1), BuildingBlock: UVAHIK_clean_linker_0, # of connection points: 2
#     Edge 17, Type (0, 1), BuildingBlock: UVAHIK_clean_linker_0, # of connection points: 2
#     Edge 18, Type (0, 1), BuildingBlock: UVAHIK_clean_linker_0, # of connection points: 2
#     Edge 19, Type (0, 1), BuildingBlock: UVAHIK_clean_linker_0, # of connection points: 2
#     Edge 20, Type (0, 1), BuildingBlock: UVAHIK_clean_linker_0, # of connection points: 2
#     Edge 21, Type (0, 1), BuildingBlock: UVAHIK_clean_linker_0, # of connection points: 2
#     Edge 22, Type (0, 1), BuildingBlock: UVAHIK_clean_linker_0, # of connection points: 2
#     Edge 23, Type (0, 1), BuildingBlock: UVAHIK_clean_linker_0, # of connection points: 2
#     Edge 24, Type (0, 1), BuildingBlock: UVAHIK_clean_linker_0, # of connection points: 2
#     Edge 25, Type (0, 1), BuildingBlock: UVAHIK_clean_linker_0, # of connection points: 2
#     Edge 26, Type (0, 1), BuildingBlock: UVAHIK_clean_linker_0, # of connection points: 2
# Relax obj value: 0.175
# Max RMSD: 0.145
# Mean RMSD: 0.132
data_MOF--net-anh--node1-BETDIP_clean_sbu_0--node2-QEWDON_clean_linker_0--edge1-UVAHIK_clean_linker_0
_symmetry_space_group_name_H-M    P1
_symmetry_Int_Tables_number       1
_symmetry_cell_setting            triclinic
loop_
_symmetry_equiv_pos_as_xyz
'x, y, z'
_cell_length_a     41.562391
_cell_length_b     41.505959
_cell_length_c     62.176675
_cell_angle_alpha  93.332375
_cell_angle_beta   93.028951
_cell_angle_gamma 120.3975
loop_
_atom_site_label
_atom_site_type_symbol
_atom_site_fract_x
_atom_site_fract_y
_atom_site_fract_z
_atom_type_partial_charge
Tb0 Tb 0.14117 0.63915 0.16482 0.0
Tb1 Tb 0.10072 0.55785 0.15148 0.0
C2 C 0.18658 0.70223 0.18412 0.0
C3 C 0.22653 0.72756 0.1819 0.0
C4 C 0.25067 0.75114 0.19977 0.0
C5 C 0.28854 0.77581 0.19748 0.0
C6 C 0.30256 0.77736 0.17723 0.0
C7 C 0.27853 0.75291 0.15952 0.0
C8 C 0.24088 0.72793 0.16189 0.0
C9 C 0.12662 0.62135 0.12294 0.0
C10 C 0.18903 0.5969 0.15597 0.0
C11 C 1.05503 0.49465 0.13202 0.0
C12 C 1.01398 0.47554 0.12844 0.0
C13 C 0.99482 0.45176 0.10948 0.0
C14 C 0.9562 0.43695 0.1051 0.0
C15 C 0.93655 0.44631 0.11949 0.0
C16 C 0.95579 0.46951 0.13864 0.0
C17 C 0.99407 0.48389 0.1431 0.0
C18 C 0.11481 0.57593 0.19376 0.0
C19 C 1.05374 0.60114 0.15741 0.0
O20 O 0.17821 0.67074 0.19221 0.0
O21 O 0.16373 0.69722 0.16725 0.0
O22 O 0.13673 0.60592 0.13629 0.0
O23 O 0.12723 0.65013 0.13264 0.0
O24 O 0.18842 0.62734 0.16371 0.0
O25 O 0.15708 0.566 0.1484 0.0
O26 O 1.07287 0.52508 0.12218 0.0
O27 O 1.06891 0.49947 0.15213 0.0
O28 O 0.1047 0.5913 0.18024 0.0
O29 O 0.11495 0.54768 0.18382 0.0
O30 O 1.05537 0.57218 0.14825 0.0
O31 O 0.0844 0.62975 0.16816 0.0
H32 H 0.24014 0.75086 0.21537 0.0
H33 H 0.30653 0.79468 0.21131 0.0
H34 H 0.28879 0.75351 0.14381 0.0
H35 H 0.22283 0.70934 0.14798 0.0
H36 H 1.00984 0.44533 0.09789 0.0
H37 H 0.94193 0.41907 0.09024 0.0
H38 H 0.94122 0.47667 0.15019 0.0
H39 H 1.00824 0.50223 0.15783 0.0
Tb40 Tb 0.62995 0.09377 0.50133 0.0
Tb41 Tb 0.58757 0.13107 0.48974 0.0
C42 C 0.6503 0.05346 0.51909 0.0
C43 C 0.63054 1.01276 0.52015 0.0
C44 C 0.63963 0.99762 0.53736 0.0
C45 C 0.61954 0.9589 0.5388 0.0
C46 C 0.58989 0.93486 0.52309 0.0
C47 C 0.58074 0.95039 0.50599 0.0
C48 C 0.601 0.98892 0.50448 0.0
C49 C 0.62146 0.09942 0.4599 0.0
C50 C 0.53781 1.04441 0.49201 0.0
C51 C 0.57191 0.17508 0.47286 0.0
C52 C 0.59819 0.21561 0.47201 0.0
C53 C 0.61005 0.22973 0.4521 0.0
C54 C 0.64031 0.26622 0.45151 0.0
C55 C 0.65933 0.28907 0.47085 0.0
C56 C 0.64655 0.27532 0.49067 0.0
C57 C 0.61641 0.23908 0.49126 0.0
C58 C 0.59545 0.12534 0.53136 0.0
C59 C 0.67923 0.17932 0.49578 0.0
O60 O 0.63586 0.0708 0.52938 0.0
O61 O 0.65877 0.06455 0.49984 0.0
O62 O 0.59756 0.09164 0.47325 0.0
O63 O 0.65157 0.10259 0.46942 0.0
O64 O 0.56962 1.04728 0.50036 0.0
O65 O 0.53851 0.07397 0.48434 0.0
O66 O 0.58019 0.15309 0.46159 0.0
O67 O 0.56262 0.16407 0.49207 0.0
O68 O 0.62013 0.1333 0.51834 0.0
O69 O 0.56596 0.12286 0.52141 0.0
O70 O 0.64717 0.17561 0.48757 0.0
O71 O 0.67893 0.15128 0.50522 0.0
H72 H 0.66222 1.01572 0.54966 0.0
H73 H 0.62764 0.94776 0.552 0.0
H74 H 0.55774 0.9328 0.49382 0.0
H75 H 0.59339 1.00011 0.49111 0.0
H76 H 0.5969 0.21201 0.43705 0.0
H77 H 0.64952 0.27614 0.43599 0.0
H78 H 0.65999 0.29257 0.50582 0.0
H79 H 0.60837 0.22912 0.50693 0.0
Tb80 Tb 0.59546 0.57384 0.83147 0.0
Tb81 Tb 0.67439 0.61471 0.82143 0.0
C82 C 0.53579 0.55593 0.84822 0.0
C83 C 0.51165 0.57216 0.8474 0.0
C84 C 0.48381 0.56239 0.86159 0.0
C85 C 0.46085 0.57797 0.86065 0.0
C86 C 0.4657 0.6038 0.84558 0.0
C87 C 0.49411 0.61382 0.83161 0.0
C88 C 0.51663 0.5979 0.8324 0.0
C89 C 0.60484 0.57158 0.79023 0.0
C90 C 0.63692 0.6641 0.82473 0.0
C91 C 0.73335 0.63095 0.80427 0.0
C92 C 0.74851 0.60689 0.79801 0.0
C93 C 0.76506 0.61048 0.77852 0.0
C94 C 0.77571 0.58486 0.77144 0.0
C95 C 0.76918 0.55497 0.7836 0.0
C96 C 0.75315 0.55186 0.80323 0.0
C97 C 0.74304 0.57762 0.81041 0.0
C98 C 0.66432 0.61614 0.86292 0.0
C99 C 0.63207 0.52443 0.82558 0.0
O100 O 0.56908 0.57756 0.85857 0.0
O101 O 0.53709 0.54005 0.82974 0.0
O102 O 0.62277 0.59937 0.80409 0.0
O103 O 0.57846 0.54393 0.79896 0.0
O104 O 0.60816 0.63363 0.83154 0.0
O105 O 0.66599 0.66249 0.81813 0.0
O106 O 0.70196 0.62241 0.79321 0.0
O107 O 0.73255 0.63727 0.82507 0.0
O108 O 0.64688 0.58846 0.84887 0.0
O109 O 0.69011 0.64432 0.85412 0.0
O110 O 0.65869 0.55423 0.81716 0.0
O111 O 0.60592 0.52731 0.83543 0.0
H112 H 0.47961 0.54249 0.87324 0.0
H113 H 0.43886 0.56919 0.87141 0.0
H114 H 0.49903 0.63401 0.82005 0.0
H115 H 0.5378 0.60556 0.82116 0.0
H116 H 0.76917 0.63269 0.76863 0.0
H117 H 0.78843 0.58798 0.75636 0.0
H118 H 0.74862 0.52956 0.81314 0.0
H119 H 0.73029 0.57414 0.8255 0.0
H120 H 0.56395 0.22547 0.24391 0.0
C121 C 0.56108 0.20092 0.23481 0.0
C122 C 0.5631 0.17334 0.24575 0.0
C123 C 0.55529 0.19671 0.21211 0.0
H124 H 0.55947 0.11983 0.24274 0.0
C125 C 0.55907 0.1415 0.234 0.0
C126 C 0.55364 0.13701 0.2113 0.0
C127 C 0.55209 0.16502 0.20045 0.0
C128 C 0.55244 0.22524 0.20041 0.0
H129 H 0.54775 0.16193 0.18293 0.0
C130 C 0.57663 0.24263 0.1845 0.0
C131 C 0.57432 0.26975 0.17303 0.0
C132 C 0.52551 0.23493 0.20488 0.0
H133 H 0.50648 0.22169 0.21707 0.0
C134 C 0.52256 0.26136 0.19332 0.0
H135 H 0.59817 0.23588 0.1817 0.0
C136 C 0.54678 0.27872 0.17749 0.0
H137 H 0.54402 0.29921 0.16881 0.0
H138 H 0.50151 0.2685 0.19669 0.0
H139 H 0.59992 0.57472 0.55537 0.0
C140 C 0.62283 0.57384 0.54842 0.0
C141 C 0.65048 0.5727 0.56186 0.0
C142 C 0.62372 0.57258 0.52589 0.0
H143 H 0.69915 0.56691 0.56235 0.0
C144 C 0.67943 0.57062 0.55229 0.0
C145 C 0.68152 0.57068 0.52974 0.0
C146 C 0.65393 0.57277 0.51684 0.0
C147 C 0.59173 0.56828 0.51166 0.0
H148 H 0.65523 0.57366 0.49952 0.0
C149 C 0.57552 0.59007 0.51645 0.0
C150 C 0.54475 0.58556 0.50321 0.0
C151 C 0.57665 0.54156 0.49346 0.0
H152 H 0.58824 0.52394 0.48956 0.0
C153 C 0.54598 0.53684 0.48033 0.0
H154 H 0.58766 0.61139 0.53012 0.0
C155 C 0.5301 0.55874 0.4851 0.0
H156 H 0.50637 0.5547 0.47468 0.0
H157 H 0.53449 0.51612 0.4664 0.0
H158 H 0.09512 0.58717 0.89099 0.0
C159 C 1.07051 0.56349 0.88212 0.0
C160 C 1.04508 0.53379 0.89322 0.0
C161 C 1.06287 0.56409 0.85996 0.0
H162 H 0.99223 0.48144 0.89052 0.0
C163 C 1.01234 0.50397 0.88189 0.0
C164 C 1.00524 0.50356 0.85952 0.0
C165 C 1.03062 0.53378 0.84871 0.0
C166 C 0.08739 0.59725 0.84873 0.0
H167 H 1.02453 0.53445 0.83162 0.0
C168 C 0.12612 0.61157 0.8501 0.0
C169 C 0.14947 0.6422 0.83881 0.0
C170 C 1.07206 0.61431 0.83627 0.0
H171 H 1.04223 0.60391 0.83511 0.0
C172 C 0.09519 0.64516 0.82534 0.0
H173 H 0.1378 0.59776 0.85922 0.0
C174 C 0.13369 0.65896 0.82647 0.0
H175 H 0.15111 0.68264 0.81767 0.0
H176 H 0.08319 0.6582 0.81581 0.0
H177 H 0.0855 0.59131 0.43363 0.0
C178 C 0.1117 0.61518 0.44077 0.0
C179 C 0.13767 0.63844 0.42687 0.0
C180 C 0.11839 0.62368 0.46347 0.0
H181 H 0.19087 0.68816 0.42462 0.0
C182 C 0.17132 0.6705 0.43558 0.0
C183 C 0.18028 0.68038 0.45799 0.0
C184 C 0.15347 0.65672 0.47186 0.0
C185 C 0.08791 0.59958 0.47804 0.0
H186 H 0.1606 0.66392 0.48912 0.0
C187 C 1.05839 0.56099 0.47212 0.0
C188 C 1.03041 0.54055 0.48648 0.0
C189 C 0.08731 0.61638 0.49825 0.0
H190 H 0.10727 0.64556 0.5034 0.0
C191 C 1.06031 0.59649 0.51219 0.0
H192 H 1.0574 0.54661 0.45681 0.0
C193 C 1.03249 0.55925 0.50649 0.0
H194 H 1.01195 0.54499 0.51781 0.0
H195 H 1.06075 0.61032 0.52761 0.0
H196 H 0.63337 0.07862 0.76945 0.0
C197 C 0.63257 0.10232 0.77698 0.0
C198 C 0.62772 0.12588 0.76345 0.0
C199 C 0.63665 0.10935 0.79978 0.0
H200 H 0.62522 0.17606 0.76171 0.0
C201 C 0.62835 0.15797 0.77248 0.0
C202 C 0.63348 0.16768 0.79489 0.0
C203 C 0.63641 0.14244 0.80852 0.0
C204 C 0.64327 0.08349 0.81399 0.0
H205 H 0.63905 0.14926 0.82579 0.0
C206 C 0.63448 1.0457 0.80685 0.0
C207 C 0.64248 1.02368 0.82086 0.0
C208 C 0.66054 0.09764 0.83523 0.0
H209 H 0.66954 0.126 0.84156 0.0
C210 C 0.66782 0.0761 0.84887 0.0
H211 H 0.62117 1.0331 0.79076 0.0
C212 C 0.65887 1.03979 0.84187 0.0
H213 H 0.66534 1.02422 0.85298 0.0
H214 H 0.68106 0.08794 0.86509 0.0
H215 H 0.6126 0.61135 0.10104 0.0
C216 C 0.63466 0.60757 0.10814 0.0
C217 C 0.65789 0.60283 0.09423 0.0
C218 C 0.6401 0.60814 0.13079 0.0
H219 H 0.70565 0.59644 0.09164 0.0
C220 C 0.68769 0.59914 0.10274 0.0
C221 C 0.69573 0.60041 0.12511 0.0
C222 C 0.67147 0.60471 0.13907 0.0
C223 C 0.61458 0.61469 0.14543 0.0
H224 H 0.67689 0.60453 0.15624 0.0
C225 C 0.57757 0.60811 0.1384 0.0
C226 C 0.55662 0.61752 0.15268 0.0
C227 C 0.62862 0.6301 0.16697 0.0
H228 H 0.65637 0.63716 0.17326 0.0
C229 C 0.60796 0.63821 0.18092 0.0
H230 H 0.56526 0.59638 0.12205 0.0
C231 C 0.5728 0.63217 0.17394 0.0
H232 H 0.5581 0.63936 0.18539 0.0
H233 H 0.61973 0.65002 0.19737 0.0
C234 C 0.22827 0.56641 0.14734 0.0
C235 C 0.2265 0.59837 0.15461 0.0
C236 C 0.26298 0.5678 0.14592 0.0
C237 C 0.36845 0.62929 0.16353 0.0
H238 H 0.37632 0.56031 0.12248 0.0
C239 C 0.5152 0.64635 0.15106 0.0
C240 C 0.51883 0.61455 0.14676 0.0
C241 C 0.47987 0.64374 0.15068 0.0
C242 C 0.37494 0.57973 0.13425 0.0
H243 H 0.26175 0.65734 0.16587 0.0
H244 H 0.3214 0.66005 0.1631 0.0
H245 H 0.31642 0.55744 0.12456 0.0
H246 H 0.48618 0.55454 0.13832 0.0
H247 H 0.42458 0.54984 0.13727 0.0
H248 H 0.42687 0.65164 0.17319 0.0
C249 C 0.29596 0.63329 0.15884 0.0
C250 C 0.34001 0.57805 0.13552 0.0
C251 C 0.26124 0.63184 0.16033 0.0
C252 C 0.48513 0.57995 0.14124 0.0
C253 C 0.44947 0.57729 0.14084 0.0
C254 C 0.4033 0.63106 0.1622 0.0
C255 C 0.29791 0.60129 0.15162 0.0
C256 C 0.33574 0.60286 0.15018 0.0
C257 C 0.4459 0.60906 0.1461 0.0
C258 C 0.40765 0.60647 0.14747 0.0
H259 H 0.2026 0.53993 0.14276 0.0
H260 H 0.26215 0.5421 0.14058 0.0
H261 H 0.36728 0.64857 0.17549 0.0
H262 H 0.54007 0.67356 0.15556 0.0
H263 H 0.47939 0.66931 0.15431 0.0
C264 C 0.71769 0.24169 0.47958 0.0
C265 C 0.71595 0.21561 0.49379 0.0
C266 C 0.75175 0.2751 0.47719 0.0
C267 C 0.85819 0.32448 0.49124 0.0
H268 H 0.85595 0.41124 0.47341 0.0
C269 C 0.99497 0.47349 0.49648 0.0
C270 C 0.99844 0.49993 0.48207 0.0
C271 C 0.96164 0.4383 0.49628 0.0
C272 C 0.85751 0.38734 0.47815 0.0
H273 H 0.75012 0.20569 0.51681 0.0
H274 H 0.80861 0.26395 0.51347 0.0
H275 H 0.79761 0.3532 0.4765 0.0
H276 H 0.96814 0.50891 0.45605 0.0
H277 H 0.91037 0.44744 0.45527 0.0
H278 H 0.91822 0.35875 0.49286 0.0
C279 C 0.78387 0.25836 0.50351 0.0
C280 C 0.82348 0.3535 0.48003 0.0
C281 C 0.74985 0.22462 0.50563 0.0
C282 C 0.96725 0.48922 0.46704 0.0
C283 C 0.93362 0.45394 0.46692 0.0
C284 C 0.89221 0.35832 0.48939 0.0
C285 C 0.78584 0.28456 0.48917 0.0
C286 C 0.82281 0.32115 0.48678 0.0
C287 C 0.92977 0.42783 0.48182 0.0
C288 C 0.89281 0.39074 0.48291 0.0
H289 H 0.69263 0.23603 0.4699 0.0
H290 H 0.75116 0.29324 0.46557 0.0
H291 H 0.85995 0.30069 0.49593 0.0
H292 H 1.01776 0.48079 0.5087 0.0
H293 H 0.96048 0.42 0.5083 0.0
C294 C 0.66433 0.73145 0.81433 0.0
C295 C 0.63587 0.70031 0.82343 0.0
C296 C 0.66353 0.76501 0.81277 0.0
C297 C 0.59993 0.80688 0.81744 0.0
H298 H 0.6932 0.90099 0.8169 0.0
C299 C 0.6073 0.95347 0.82481 0.0
C300 C 0.635 0.9841 0.815 0.0
C301 C 0.60589 0.91856 0.82437 0.0
C302 C 0.66663 0.8751 0.81671 0.0
H303 H 0.58395 0.68156 0.83812 0.0
H304 H 0.58279 0.73959 0.83588 0.0
H305 H 0.694 0.84319 0.81968 0.0
H306 H 0.68358 1.00101 0.79733 0.0
H307 H 0.68088 0.94043 0.79605 0.0
H308 H 0.57271 0.83916 0.81483 0.0
C309 C 0.60576 0.73812 0.82947 0.0
C310 C 0.66705 0.84132 0.81831 0.0
C311 C 0.6065 0.70442 0.83094 0.0
C312 C 0.66102 0.97805 0.80446 0.0
C313 C 0.65985 0.94318 0.80414 0.0
C314 C 0.59955 0.84073 0.81597 0.0
C315 C 0.63429 0.76944 0.82034 0.0
C316 C 0.63372 0.80617 0.8187 0.0
C317 C 0.63263 0.91268 0.81444 0.0
C318 C 0.63289 0.87579 0.81555 0.0
H319 H 0.68743 0.72991 0.80814 0.0
H320 H 0.6859 0.78734 0.80521 0.0
H321 H 0.57331 0.78106 0.81724 0.0
H322 H 0.58754 0.9571 0.8338 0.0
H323 H 0.58468 0.89668 0.8328 0.0
C324 C 0.98544 0.57371 0.14168 0.0
C325 C 1.01673 0.60101 0.15558 0.0
C326 C 0.9512 0.57363 0.13968 0.0
C327 C 0.90658 0.63301 0.15296 0.0
H328 H 0.81406 0.5387 0.13744 0.0
C329 C 0.75838 0.62347 0.14855 0.0
C330 C 0.72993 0.59749 0.13267 0.0
C331 C 0.79265 0.62376 0.15264 0.0
C332 C 0.83942 0.56561 0.14154 0.0
H333 H 1.03499 0.6499 0.17833 0.0
H334 H 0.97572 0.64928 0.17535 0.0
H335 H 0.87308 0.53982 0.14152 0.0
H336 H 0.71617 0.55049 0.10932 0.0
H337 H 0.77443 0.55084 0.1163 0.0
H338 H 0.87261 0.65868 0.15301 0.0
C339 C 0.97761 0.62802 0.16554 0.0
C340 C 0.87392 0.56628 0.14389 0.0
C341 C 1.01202 0.62827 0.1674 0.0
C342 C 0.73689 0.57109 0.1217 0.0
C343 C 0.77078 0.57119 0.12584 0.0
C344 C 0.87198 0.63232 0.15063 0.0
C345 C 0.94614 0.6006 0.15164 0.0
C346 C 0.90859 0.60001 0.14953 0.0
C347 C 0.79993 0.59783 0.14119 0.0
C348 C 0.83742 0.59862 0.14469 0.0
H349 H 0.98746 0.55242 0.13195 0.0
H350 H 0.92881 0.55257 0.12828 0.0
H351 H 0.93198 0.6599 0.15702 0.0
H352 H 0.75482 0.64462 0.15729 0.0
H353 H 0.81356 0.64462 0.16482 0.0
C354 C 0.46727 1.00252 0.48079 0.0
C355 C 0.50104 1.00684 0.49032 0.0
C356 C 0.43316 0.96755 0.47894 0.0
C357 C 0.39382 0.86279 0.48087 0.0
H358 H 0.29891 0.85891 0.48282 0.0
C359 C 0.25067 0.72289 0.45627 0.0
C360 C 0.21782 0.71567 0.46582 0.0
C361 C 0.28472 0.75744 0.46076 0.0
C362 C 0.32501 0.8591 0.4824 0.0
H363 H 0.52394 0.9763 0.50565 0.0
H364 H 0.46526 0.91599 0.50249 0.0
H365 H 0.35743 0.91942 0.48763 0.0
H366 H 0.19653 0.74049 0.48826 0.0
H367 H 0.25588 0.8006 0.49637 0.0
H368 H 0.36154 0.80256 0.47588 0.0
C369 C 0.46498 0.93955 0.49609 0.0
C370 C 0.359 0.89428 0.4849 0.0
C371 C 0.49905 0.97458 0.49802 0.0
C372 C 0.22095 0.74442 0.48065 0.0
C373 C 0.25516 0.77936 0.48507 0.0
C374 C 0.35987 0.82769 0.47826 0.0
C375 C 0.43113 0.93509 0.48647 0.0
C376 C 0.3943 0.89705 0.48412 0.0
C377 C 0.28782 0.78685 0.47502 0.0
C378 C 0.32455 0.8249 0.47883 0.0
H379 H 0.46711 1.02627 0.47456 0.0
H380 H 0.40842 0.96595 0.47116 0.0
H381 H 0.4198 0.86291 0.4799 0.0
H382 H 0.2499 0.70181 0.44478 0.0
H383 H 0.30842 0.7614 0.45236 0.0
C384 C 0.6092 0.45741 0.83592 0.0
C385 C 0.63207 0.48751 0.82394 0.0
C386 C 0.60966 0.42333 0.83438 0.0
C387 C 0.66678 0.38061 0.81435 0.0
H388 H 0.5779 0.2858 0.82153 0.0
C389 C 0.66009 0.23766 0.79247 0.0
C390 C 0.63695 0.20515 0.80269 0.0
C391 C 0.66007 0.27149 0.79661 0.0
C392 C 0.60333 0.31189 0.81973 0.0
H393 H 0.6724 0.50336 0.80019 0.0
H394 H 0.673 0.4448 0.7974 0.0
H395 H 0.57623 0.34384 0.82521 0.0
H396 H 0.59587 0.18438 0.826 0.0
H397 H 0.59619 0.24347 0.83362 0.0
H398 H 0.69398 0.34896 0.80893 0.0
C399 C 0.6554 0.44769 0.80859 0.0
C400 C 0.60236 0.34569 0.82185 0.0
C401 C 0.65499 0.48169 0.81015 0.0
C402 C 0.61445 0.20852 0.81787 0.0
C403 C 0.61428 0.24261 0.822 0.0
C404 C 0.66777 0.34693 0.81227 0.0
C405 C 0.63295 0.41762 0.82073 0.0
C406 C 0.63399 0.38096 0.81903 0.0
C407 C 0.63685 0.2749 0.81125 0.0
C408 C 0.636 0.31155 0.81469 0.0
H409 H 0.59102 0.46025 0.84674 0.0
H410 H 0.592 0.40162 0.84426 0.0
H411 H 0.69227 0.40663 0.8125 0.0
H412 H 0.67789 0.23671 0.78063 0.0
H413 H 0.67763 0.2947 0.78758 0.0
C414 C 0.5599 0.86959 0.50483 0.0
C415 C 0.56955 0.89361 0.52395 0.0
C416 C 0.54304 0.83096 0.50558 0.0
C417 C 0.5419 0.76471 0.54118 0.0
H418 H 0.4713 0.69188 0.49522 0.0
C419 C 0.52511 0.61962 0.52898 0.0
C420 C 0.52977 0.61065 0.50767 0.0
C421 C 0.51666 0.64769 0.53357 0.0
C422 C 0.49084 0.71182 0.50825 0.0
H423 H 0.5673 0.89567 0.55875 0.0
H424 H 0.53843 0.8279 0.56008 0.0
H425 H 0.48121 0.75528 0.49882 0.0
H426 H 0.52707 0.62233 0.47431 0.0
H427 H 0.51282 0.67153 0.48228 0.0
H428 H 0.55337 0.72229 0.54984 0.0
C429 C 0.54408 0.8392 0.54454 0.0
C430 C 0.49647 0.74803 0.51032 0.0
C431 C 0.56082 0.87796 0.54379 0.0
C432 C 0.52337 0.62846 0.49087 0.0
C433 C 0.51505 0.65659 0.49545 0.0
C434 C 0.53635 0.72857 0.53908 0.0
C435 C 0.5356 0.81541 0.52546 0.0
C436 C 0.52321 0.77524 0.52625 0.0
C437 C 0.51285 0.66739 0.51694 0.0
C438 C 0.51193 0.70223 0.52204 0.0
H439 H 0.56675 0.88071 0.48931 0.0
H440 H 0.53758 0.81347 0.49064 0.0
H441 H 0.56293 0.78513 0.55349 0.0
H442 H 0.52924 0.60579 0.5422 0.0
H443 H 0.51454 0.65499 0.55024 0.0
C444 C 0.75651 0.48941 0.77737 0.0
C445 C 0.78104 0.52812 0.77694 0.0
C446 C 0.77001 0.46469 0.77642 0.0
C447 C 0.81274 0.43303 0.79838 0.0
H448 H 0.90987 0.46266 0.77871 0.0
C449 C 0.9356 0.46898 0.85536 0.0
C450 C 0.9691 0.47493 0.84768 0.0
C451 C 0.90262 0.45191 0.84151 0.0
C452 C 0.8823 0.45271 0.78406 0.0
H453 H 0.83793 0.57109 0.77303 0.0
H454 H 0.86194 0.52864 0.7719 0.0
H455 H 0.86857 0.4781 0.75902 0.0
H456 H 0.99355 0.46279 0.82076 0.0
H457 H 0.93559 0.43183 0.79665 0.0
H458 H 0.82686 0.40843 0.82373 0.0
C459 C 0.83211 0.51675 0.77259 0.0
C460 C 0.85874 0.46216 0.77285 0.0
C461 C 0.81848 0.54132 0.77336 0.0
C462 C 0.96808 0.45909 0.82688 0.0
C463 C 0.93492 0.44152 0.81308 0.0
C464 C 0.83599 0.4229 0.80934 0.0
C465 C 0.80844 0.47841 0.77524 0.0
C466 C 0.82528 0.45547 0.78106 0.0
C467 C 0.90249 0.44025 0.81972 0.0
C468 C 0.87245 0.43572 0.8035 0.0
H469 H 0.7273 0.47863 0.77964 0.0
H470 H 0.75082 0.43528 0.77799 0.0
H471 H 0.78685 0.42668 0.80505 0.0
H472 H 0.93564 0.48096 0.87132 0.0
H473 H 0.87846 0.45169 0.84737 0.0
C474 C 0.3716 0.81307 0.18828 0.0
C475 C 0.34113 0.8069 0.17418 0.0
C476 C 0.40714 0.84438 0.18713 0.0
C477 C 0.45997 0.92863 0.1561 0.0
H478 H 0.503 0.97799 0.21377 0.0
C479 C 0.51722 0.08318 0.18267 0.0
C480 C 0.54641 0.10153 0.19942 0.0
C481 C 0.50497 1.04626 0.17466 0.0
C482 C 0.4921 0.96442 0.19749 0.0
H483 H 0.32391 0.82721 0.1472 0.0
H484 H 0.38497 0.88256 0.14581 0.0
H485 H 0.45631 0.91193 0.2093 0.0
H486 H 0.58859 0.09717 0.219 0.0
H487 H 0.56625 1.03218 0.20547 0.0
H488 H 0.4936 0.9827 0.14472 0.0
C489 C 0.38232 0.86294 0.1573 0.0
C490 C 0.46522 0.92628 0.19487 0.0
C491 C 0.34708 0.83129 0.15817 0.0
C492 C 0.56535 0.08341 0.20652 0.0
C493 C 0.55282 1.04636 0.19867 0.0
C494 C 0.48642 0.96705 0.15879 0.0
C495 C 0.4126 0.87063 0.17223 0.0
C496 C 0.44749 0.90822 0.17423 0.0
C497 C 0.52148 1.02695 0.18337 0.0
C498 C 0.50154 0.98553 0.17961 0.0
H499 H 0.36768 0.79426 0.20057 0.0
H500 H 0.42992 0.84878 0.19854 0.0
H501 H 0.4478 0.91545 0.1399 0.0
H502 H 0.50188 0.09617 0.17689 0.0
H503 H 0.4805 1.03185 0.163 0.0
C504 C 0.68952 0.35206 0.45665 0.0
C505 C 0.69151 0.32775 0.47068 0.0
C506 C 0.71605 0.39037 0.45947 0.0
C507 C 0.76938 0.45761 0.50581 0.0
H508 H 0.77493 0.52434 0.46325 0.0
C509 C 0.74459 0.57487 0.53038 0.0
C510 C 0.70946 0.56384 0.5194 0.0
C511 C 0.76726 0.56192 0.52227 0.0
C512 C 0.77483 0.50659 0.47538 0.0
H513 H 0.72537 0.32354 0.49687 0.0
H514 H 0.77202 0.39032 0.50161 0.0
H515 H 0.77027 0.4649 0.45149 0.0
H516 H 0.67258 0.53268 0.49018 0.0
H517 H 0.71232 0.51211 0.47594 0.0
H518 H 0.77077 0.49773 0.52947 0.0
C519 C 0.7494 0.3801 0.48883 0.0
C520 C 0.77177 0.47236 0.46865 0.0
C521 C 0.72263 0.34184 0.48614 0.0
C522 C 0.6995 0.54269 0.49911 0.0
C523 C 0.72251 0.53073 0.4908 0.0
C524 C 0.77283 0.49194 0.51254 0.0
C525 C 0.74529 0.40516 0.47633 0.0
C526 C 0.76531 0.44601 0.4836 0.0
C527 C 0.7557 0.5386 0.50274 0.0
C528 C 0.77188 0.51495 0.49716 0.0
H529 H 0.66585 0.34207 0.44461 0.0
H530 H 0.71148 0.40862 0.44963 0.0
H531 H 0.76498 0.43843 0.51793 0.0
H532 H 0.75385 0.59202 0.54574 0.0
H533 H 0.79274 0.56834 0.53181 0.0
C534 C 0.42787 0.62389 0.82349 0.0
C535 C 0.44043 0.61924 0.84388 0.0
C536 C 0.40262 0.63657 0.82171 0.0
C537 C 0.35823 0.67994 0.85332 0.0
H538 H 0.27543 0.62315 0.80897 0.0
C539 C 0.21064 0.65743 0.85805 0.0
C540 C 0.18968 0.65453 0.83881 0.0
C541 C 0.24667 0.66315 0.85756 0.0
C542 C 0.29872 0.6399 0.82115 0.0
H543 H 0.43743 0.6258 0.87846 0.0
H544 H 0.39212 0.64642 0.8753 0.0
H545 H 0.3284 0.61356 0.81019 0.0
H546 H 0.19072 0.65762 0.80414 0.0
H547 H 0.2539 0.66793 0.80329 0.0
H548 H 0.32732 0.7049 0.86482 0.0
C549 C 0.40233 0.64091 0.86069 0.0
C550 C 0.32915 0.63439 0.82186 0.0
C551 C 0.42785 0.6285 0.86249 0.0
C552 C 0.2063 0.65987 0.81923 0.0
C553 C 0.2423 0.66546 0.81872 0.0
C554 C 0.32761 0.6853 0.85267 0.0
C555 C 0.389 0.64454 0.84026 0.0
C556 C 0.35891 0.65377 0.83821 0.0
C557 C 0.26235 0.66596 0.83779 0.0
C558 C 0.29723 0.66475 0.83682 0.0
H559 H 0.43667 0.6167 0.80879 0.0
H560 H 0.39328 0.63952 0.80574 0.0
H561 H 0.38104 0.69576 0.86589 0.0
H562 H 0.19862 0.65386 0.8734 0.0
H563 H 0.26133 0.66317 0.87249 0.0
C564 C 0.88233 0.45661 0.11809 0.0
C565 C 0.89603 0.4321 0.11494 0.0
C566 C 0.8439 0.44277 0.11706 0.0
C567 C 0.74967 0.35777 0.10291 0.0
H568 H 0.72585 0.39565 0.1544 0.0
C569 C 0.61609 0.27164 0.14478 0.0
C570 C 0.60249 0.29024 0.15768 0.0
C571 C 0.64742 0.29193 0.13354 0.0
C572 C 0.73163 0.38527 0.1396 0.0
H573 H 0.88043 0.37426 0.10682 0.0
H574 H 0.813 0.34975 0.10539 0.0
H575 H 0.78988 0.42606 0.14527 0.0
H576 H 0.6091 0.34456 0.16722 0.0
H577 H 0.66276 0.37977 0.14692 0.0
H578 H 0.69129 0.31604 0.09775 0.0
C579 C 0.83197 0.37978 0.10838 0.0
C580 C 0.76855 0.40275 0.13437 0.0
C581 C 0.87056 0.39374 0.10928 0.0
C582 C 0.61883 0.32927 0.15749 0.0
C583 C 0.64993 0.34954 0.14605 0.0
C584 C 0.71254 0.34031 0.10809 0.0
C585 C 0.8183 0.40404 0.113 0.0
C586 C 0.7782 0.38863 0.11631 0.0
C587 C 0.66563 0.3313 0.13475 0.0
C588 C 0.70329 0.35325 0.12686 0.0
H589 H 0.90145 0.48638 0.12207 0.0
H590 H 0.83424 0.46227 0.12027 0.0
H591 H 0.7562 0.34656 0.08872 0.0
H592 H 0.60356 0.24146 0.14413 0.0
H593 H 0.65869 0.27686 0.12507 0.0
C594 C 0.09572 0.62009 0.0872 0.0
C595 C 0.11735 0.60945 0.09962 0.0
C596 C 0.08651 0.60833 0.06508 0.0
C597 C 0.11991 0.58899 0.01794 0.0
H598 H 1.01689 0.52253 -0.00583 0.0
C599 C 0.08433 0.54004 0.92682 0.0
C600 C 1.0512 0.536 0.91698 0.0
C601 C 0.09134 0.54516 0.94936 0.0
C602 C 1.04577 0.54156 0.00042 0.0
H603 H 0.1466 0.57857 0.09894 0.0
H604 H 0.13168 0.55925 0.05993 0.0
H605 H 1.03125 0.5405 0.03311 0.0
H606 H 0.99942 0.53415 0.92263 0.0
H607 H 1.01219 0.54492 0.96185 0.0
H608 H 0.13469 0.59214 0.98548 0.0
C609 C 0.12142 0.57611 0.06743 0.0
C610 C 1.0539 0.55154 0.02273 0.0
C611 C 0.12987 0.58711 0.08964 0.0
C612 C 1.02496 0.53672 0.92995 0.0
C613 C 1.03229 0.5427 0.95246 0.0
C614 C 0.11177 0.57976 -0.00442 0.0
C615 C 0.09957 0.58653 0.05505 0.0
C616 C 0.091 0.57532 0.0316 0.0
C617 C 1.06576 0.54734 0.96251 0.0
C618 C 1.07455 0.55594 0.98646 0.0
H619 H 0.08561 0.63714 0.09462 0.0
H620 H 1.06971 0.61671 0.05572 0.0
H621 H 0.14872 0.60763 0.02453 0.0
H622 H 0.10487 0.53943 0.91705 0.0
H623 H 0.11698 0.54768 0.95641 0.0
C624 C 0.5824 0.09768 0.42775 0.0
C625 C 0.61804 0.11068 0.43832 0.0
C626 C 0.57855 0.1102 0.40798 0.0
C627 C 0.63063 0.15526 0.36155 0.0
H628 H 0.54551 0.1679 0.34876 0.0
C629 C 0.6047 0.20228 0.28012 0.0
C630 C 0.5692 0.17687 0.26951 0.0
C631 C 0.61241 0.20074 0.30209 0.0
C632 C 0.56948 0.16463 0.35217 0.0
H633 H 0.67769 0.14682 0.43674 0.0
H634 H 0.67112 0.16942 0.40224 0.0
H635 H 0.55659 0.15234 0.38459 0.0
H636 H 0.51351 0.13114 0.27327 0.0
H637 H 0.52656 0.12901 0.31183 0.0
H638 H 0.64336 0.16758 0.32904 0.0
C639 C 0.64608 0.149 0.40899 0.0
C640 C 0.57571 0.15543 0.37262 0.0
C641 C 0.6499 0.13609 0.42871 0.0
C642 C 0.54095 0.15122 0.28129 0.0
C643 C 0.54844 0.15007 0.30329 0.0
C644 C 0.62463 0.16492 0.34119 0.0
C645 C 0.6103 0.13636 0.39844 0.0
C646 C 0.60584 0.14971 0.3774 0.0
C647 C 0.58452 0.17411 0.31375 0.0
C648 C 0.59355 0.16889 0.33617 0.0
H649 H 0.55743 0.07795 0.43488 0.0
H650 H 0.55061 0.09912 0.40012 0.0
H651 H 0.65386 0.1507 0.36454 0.0
H652 H 0.62693 0.22195 0.27117 0.0
H653 H 0.6404 0.21964 0.30983 0.0
C654 C 0.60103 0.53689 0.75523 0.0
C655 C 0.61232 0.57099 0.76741 0.0
C656 C 0.60808 0.53631 0.73352 0.0
C657 C 0.662 0.59913 0.69164 0.0
H658 H 0.58896 0.5139 0.65251 0.0
C659 C 0.68037 0.58886 0.60035 0.0
C660 C 0.64789 0.57155 0.5857 0.0
C661 C 0.67776 0.5876 0.62266 0.0
C662 C 0.60944 0.53825 0.66309 0.0
H663 H 0.63974 0.63121 0.76676 0.0
H664 H 0.65007 0.63029 0.72861 0.0
H665 H 0.58073 0.51495 0.69066 0.0
H666 H 0.58705 0.53855 0.58338 0.0
H667 H 0.5825 0.53891 0.62191 0.0
H668 H 0.68917 0.62363 0.66378 0.0
C669 C 0.63709 0.60395 0.73579 0.0
C670 C 0.60512 0.5385 0.6852 0.0
C671 C 0.63085 0.60455 0.75764 0.0
C672 C 0.61278 0.55301 0.59403 0.0
C673 C 0.61017 0.55248 0.61629 0.0
C674 C 0.66585 0.59927 0.66943 0.0
C675 C 0.62573 0.56979 0.72336 0.0
C676 C 0.63123 0.56901 0.69983 0.0
C677 C 0.64258 0.56958 0.63098 0.0
C678 C 0.63947 0.56892 0.65479 0.0
H679 H 0.58715 0.51069 0.76257 0.0
H680 H 0.59976 0.50953 0.72479 0.0
H681 H 0.68321 0.62284 0.70233 0.0
H682 H 0.70793 0.60373 0.59464 0.0
H683 H 0.70344 0.60062 0.63333 0.0
C684 C 0.6339 0.1289 0.56516 0.0
C685 C 0.60019 0.12319 0.55493 0.0
C686 C 0.6377 0.12701 0.58757 0.0
C687 C 0.59952 0.13828 0.63766 0.0
H688 H 0.64062 0.08186 0.66279 0.0
C689 C 0.59173 0.11602 0.7278 0.0
C690 C 0.62267 0.11812 0.73949 0.0
C691 C 0.58906 0.11398 0.70521 0.0
C692 C 0.62949 0.09814 0.65609 0.0
H693 H 0.54406 0.11088 0.56008 0.0
H694 H 0.55084 0.10815 0.59899 0.0
H695 H 0.63726 0.0848 0.62356 0.0
H696 H 0.6746 0.11865 0.73675 0.0
H697 H 0.67053 0.11595 0.69715 0.0
H698 H 0.59239 0.15246 0.66989 0.0
C699 C 0.57437 0.1141 0.58981 0.0
C700 C 0.62755 0.09976 0.63359 0.0
C701 C 0.57045 0.11556 0.56749 0.0
C702 C 0.65028 0.11673 0.72808 0.0
C703 C 0.64788 0.11517 0.70538 0.0
C704 C 0.60179 0.13699 0.66007 0.0
C705 C 0.60805 0.11996 0.60018 0.0
C706 C 0.61208 0.11948 0.62411 0.0
C707 C 0.61761 0.11466 0.69365 0.0
C708 C 0.61631 0.11648 0.66965 0.0
H709 H 0.65739 0.13511 0.55591 0.0
H710 H 0.6641 0.13191 0.5951 0.0
H711 H 0.58813 0.15432 0.63092 0.0
H712 H 0.56992 0.11677 0.73622 0.0
H713 H 0.56476 0.11248 0.69683 0.0
C714 C 0.67667 0.6478 0.90055 0.0
C715 C 0.66007 0.61468 0.88641 0.0
C716 C 0.67337 0.64623 0.92286 0.0
C717 C 0.66223 0.58648 0.96586 0.0
H718 H 0.62953 0.64513 -0.00124 0.0
C719 C 0.64378 0.57088 0.05668 0.0
C720 C 0.65209 0.60265 0.07044 0.0
C721 C 0.64174 0.5716 0.03418 0.0
C722 C 0.63931 0.62896 0.98998 0.0
H723 H 0.6268 0.55398 0.88447 0.0
H724 H 0.62202 0.55121 0.92348 0.0
H725 H 0.63285 0.6488 0.95981 0.0
H726 H 0.66468 0.66005 0.07163 0.0
H727 H 0.6628 0.66218 0.03242 0.0
H728 H 0.67049 0.5678 -0.0042 0.0
C729 C 0.63729 0.57837 0.9173 0.0
C730 C 0.64098 0.63096 0.96759 0.0
C731 C 0.63994 0.57997 0.89498 0.0
C732 C 0.65779 0.63505 0.0613 0.0
C733 C 0.65653 0.6361 0.03877 0.0
C734 C 0.66131 0.58502 0.98827 0.0
C735 C 0.65406 0.61147 0.9315 0.0
C736 C 0.65228 0.60959 0.95528 0.0
C737 C 0.64891 0.60449 0.02481 0.0
C738 C 0.64963 0.60606 0.00075 0.0
H739 H 0.69224 0.67493 0.89437 0.0
H740 H 0.68672 0.67217 0.93343 0.0
H741 H 0.67155 0.57007 0.95684 0.0
H742 H 0.63918 0.54551 0.06338 0.0
H743 H 0.63473 0.54628 0.02418 0.0
C744 C 0.11585 0.61386 0.22708 0.0
C745 C 0.11673 0.58277 0.2176 0.0
C746 C 0.11687 0.6197 0.24962 0.0
C747 C 0.09589 0.57016 0.29894 0.0
H748 H 0.16351 0.66858 0.32895 0.0
C749 C 0.12111 0.59495 0.39285 0.0
C750 C 0.12993 0.63 0.4029 0.0
C751 C 0.11767 0.58859 0.37021 0.0
C752 C 0.14388 0.64101 0.3209 0.0
H753 H 0.1193 0.53343 0.22428 0.0
H754 H 0.12049 0.54329 0.26354 0.0
H755 H 0.16107 0.65918 0.28975 0.0
H756 H 0.14014 0.68521 0.39715 0.0
H757 H 0.1327 0.67385 0.35784 0.0
H758 H 0.07803 0.552 0.32992 0.0
C759 C 0.11905 0.56317 0.25359 0.0
C760 C 0.14268 0.63564 0.29835 0.0
C761 C 0.11859 0.55765 0.2311 0.0
C762 C 0.13378 0.65804 0.38984 0.0
C763 C 0.12982 0.65156 0.36726 0.0
C764 C 0.0967 0.57562 0.32148 0.0
C765 C 0.1182 0.59426 0.26313 0.0
C766 C 0.11883 0.60012 0.2871 0.0
C767 C 0.12247 0.61699 0.35704 0.0
C768 C 0.12084 0.61112 0.33286 0.0
H769 H 0.11429 0.63364 0.21708 0.0
H770 H 0.11595 0.6438 0.25645 0.0
H771 H 1.07687 0.54253 0.29072 0.0
H772 H 0.11829 0.57294 0.40253 0.0
H773 H 0.11244 0.56174 0.3631 0.0
loop_
_geom_bond_atom_site_label_1
_geom_bond_atom_site_label_2
_geom_bond_distance
_geom_bond_site_symmetry_2
_ccdc_geom_bond_type
Tb0 C2 2.809 . S
Tb0 O20 2.484 . S
Tb0 O21 2.440 . S
Tb0 O22 2.658 . S
Tb0 O23 2.409 . S
Tb0 O24 2.378 . S
Tb0 O28 2.325 . S
Tb0 O31 2.341 1_455 S
Tb1 C11 2.809 1_455 S
Tb1 O22 2.325 . S
Tb1 O25 2.341 . S
Tb1 O26 2.484 1_455 S
Tb1 O27 2.440 1_455 S
Tb1 O28 2.658 . S
Tb1 O29 2.409 . S
Tb1 O30 2.378 1_455 S
C2 Tb0 2.809 . S
C2 C3 1.514 . S
C2 O20 1.248 . S
C2 O21 1.266 . S
C3 C2 1.514 . S
C3 C4 1.359 . S
C3 C8 1.348 . S
C4 C3 1.359 . S
C4 C5 1.380 . S
C4 H32 0.929 . S
C5 C4 1.380 . S
C5 C6 1.347 . S
C5 H33 0.931 . S
C6 C5 1.347 . S
C6 C7 1.369 . S
C7 C6 1.369 . S
C7 C8 1.408 . S
C7 H34 0.930 . S
C8 C3 1.348 . S
C8 C7 1.408 . S
C8 H35 0.930 . S
C9 O22 1.281 . S
C9 O23 1.254 . S
C10 O24 1.236 . S
C10 O25 1.266 . S
C11 Tb1 2.809 1_655 S
C11 C12 1.514 . S
C11 O26 1.248 . S
C11 O27 1.266 . S
C12 C11 1.514 . S
C12 C13 1.359 . S
C12 C17 1.348 . S
C13 C12 1.359 . S
C13 C14 1.380 . S
C13 H36 0.929 . S
C14 C13 1.380 . S
C14 C15 1.347 . S
C14 H37 0.931 . S
C15 C14 1.347 . S
C15 C16 1.369 . S
C16 C15 1.369 . S
C16 C17 1.408 . S
C16 H38 0.930 . S
C17 C12 1.348 . S
C17 C16 1.408 . S
C17 H39 0.930 . S
C18 O28 1.281 . S
C18 O29 1.254 . S
C19 O30 1.236 . S
C19 O31 1.266 . S
O20 Tb0 2.484 . S
O20 C2 1.248 . S
O21 Tb0 2.440 . S
O21 C2 1.266 . S
O22 Tb0 2.658 . S
O22 Tb1 2.325 . S
O22 C9 1.281 . S
O23 Tb0 2.409 . S
O23 C9 1.254 . S
O24 Tb0 2.378 . S
O24 C10 1.236 . S
O25 Tb1 2.341 . S
O25 C10 1.266 . S
O26 Tb1 2.484 1_655 S
O26 C11 1.248 . S
O27 Tb1 2.440 1_655 S
O27 C11 1.266 . S
O28 Tb0 2.325 . S
O28 Tb1 2.658 . S
O28 C18 1.281 . S
O29 Tb1 2.409 . S
O29 C18 1.254 . S
O30 Tb1 2.378 1_655 S
O30 C19 1.236 . S
O31 Tb0 2.341 1_655 S
O31 C19 1.266 . S
H32 C4 0.929 . S
H33 C5 0.931 . S
H34 C7 0.930 . S
H35 C8 0.930 . S
H36 C13 0.929 . S
H37 C14 0.931 . S
H38 C16 0.930 . S
H39 C17 0.930 . S
Tb40 C42 2.809 1_545 S
Tb40 O60 2.484 1_545 S
Tb40 O61 2.440 1_545 S
Tb40 O62 2.658 . S
Tb40 O63 2.409 . S
Tb40 O64 2.378 1_545 S
Tb40 O68 2.325 . S
Tb40 O71 2.341 . S
Tb41 C51 2.809 . S
Tb41 O62 2.325 . S
Tb41 O65 2.341 . S
Tb41 O66 2.484 . S
Tb41 O67 2.440 . S
Tb41 O68 2.658 . S
Tb41 O69 2.409 . S
Tb41 O70 2.378 . S
C42 Tb40 2.809 1_565 S
C42 C43 1.514 . S
C42 O60 1.248 . S
C42 O61 1.266 . S
C43 C42 1.514 . S
C43 C44 1.359 . S
C43 C48 1.348 . S
C44 C43 1.359 . S
C44 C45 1.380 . S
C44 H72 0.929 . S
C45 C44 1.380 . S
C45 C46 1.347 . S
C45 H73 0.931 . S
C46 C45 1.347 . S
C46 C47 1.369 . S
C47 C46 1.369 . S
C47 C48 1.408 . S
C47 H74 0.930 . S
C48 C43 1.348 . S
C48 C47 1.408 . S
C48 H75 0.930 . S
C49 O62 1.281 . S
C49 O63 1.254 . S
C50 O64 1.236 . S
C50 O65 1.266 1_565 S
C51 Tb41 2.809 . S
C51 C52 1.514 . S
C51 O66 1.248 . S
C51 O67 1.266 . S
C52 C51 1.514 . S
C52 C53 1.359 . S
C52 C57 1.348 . S
C53 C52 1.359 . S
C53 C54 1.380 . S
C53 H76 0.929 . S
C54 C53 1.380 . S
C54 C55 1.347 . S
C54 H77 0.931 . S
C55 C54 1.347 . S
C55 C56 1.369 . S
C56 C55 1.369 . S
C56 C57 1.408 . S
C56 H78 0.930 . S
C57 C52 1.348 . S
C57 C56 1.408 . S
C57 H79 0.930 . S
C58 O68 1.281 . S
C58 O69 1.254 . S
C59 O70 1.236 . S
C59 O71 1.266 . S
O60 Tb40 2.484 1_565 S
O60 C42 1.248 . S
O61 Tb40 2.440 1_565 S
O61 C42 1.266 . S
O62 Tb40 2.658 . S
O62 Tb41 2.325 . S
O62 C49 1.281 . S
O63 Tb40 2.409 . S
O63 C49 1.254 . S
O64 Tb40 2.378 1_565 S
O64 C50 1.236 . S
O65 Tb41 2.341 . S
O65 C50 1.266 1_545 S
O66 Tb41 2.484 . S
O66 C51 1.248 . S
O67 Tb41 2.440 . S
O67 C51 1.266 . S
O68 Tb40 2.325 . S
O68 Tb41 2.658 . S
O68 C58 1.281 . S
O69 Tb41 2.409 . S
O69 C58 1.254 . S
O70 Tb41 2.378 . S
O70 C59 1.236 . S
O71 Tb40 2.341 . S
O71 C59 1.266 . S
H72 C44 0.929 . S
H73 C45 0.931 . S
H74 C47 0.930 . S
H75 C48 0.930 . S
H76 C53 0.929 . S
H77 C54 0.931 . S
H78 C56 0.930 . S
H79 C57 0.930 . S
Tb80 C82 2.809 . S
Tb80 O100 2.484 . S
Tb80 O101 2.440 . S
Tb80 O102 2.658 . S
Tb80 O103 2.409 . S
Tb80 O104 2.378 . S
Tb80 O108 2.325 . S
Tb80 O111 2.341 . S
Tb81 C91 2.809 . S
Tb81 O102 2.325 . S
Tb81 O105 2.341 . S
Tb81 O106 2.484 . S
Tb81 O107 2.440 . S
Tb81 O108 2.658 . S
Tb81 O109 2.409 . S
Tb81 O110 2.378 . S
C82 Tb80 2.809 . S
C82 C83 1.514 . S
C82 O100 1.248 . S
C82 O101 1.266 . S
C83 C82 1.514 . S
C83 C84 1.359 . S
C83 C88 1.348 . S
C84 C83 1.359 . S
C84 C85 1.380 . S
C84 H112 0.929 . S
C85 C84 1.380 . S
C85 C86 1.347 . S
C85 H113 0.931 . S
C86 C85 1.347 . S
C86 C87 1.369 . S
C87 C86 1.369 . S
C87 C88 1.408 . S
C87 H114 0.930 . S
C88 C83 1.348 . S
C88 C87 1.408 . S
C88 H115 0.930 . S
C89 O102 1.281 . S
C89 O103 1.254 . S
C90 O104 1.236 . S
C90 O105 1.266 . S
C91 Tb81 2.809 . S
C91 C92 1.514 . S
C91 O106 1.248 . S
C91 O107 1.266 . S
C92 C91 1.514 . S
C92 C93 1.359 . S
C92 C97 1.348 . S
C93 C92 1.359 . S
C93 C94 1.380 . S
C93 H116 0.929 . S
C94 C93 1.380 . S
C94 C95 1.347 . S
C94 H117 0.931 . S
C95 C94 1.347 . S
C95 C96 1.369 . S
C96 C95 1.369 . S
C96 C97 1.408 . S
C96 H118 0.930 . S
C97 C92 1.348 . S
C97 C96 1.408 . S
C97 H119 0.930 . S
C98 O108 1.281 . S
C98 O109 1.254 . S
C99 O110 1.236 . S
C99 O111 1.266 . S
O100 Tb80 2.484 . S
O100 C82 1.248 . S
O101 Tb80 2.440 . S
O101 C82 1.266 . S
O102 Tb80 2.658 . S
O102 Tb81 2.325 . S
O102 C89 1.281 . S
O103 Tb80 2.409 . S
O103 C89 1.254 . S
O104 Tb80 2.378 . S
O104 C90 1.236 . S
O105 Tb81 2.341 . S
O105 C90 1.266 . S
O106 Tb81 2.484 . S
O106 C91 1.248 . S
O107 Tb81 2.440 . S
O107 C91 1.266 . S
O108 Tb80 2.325 . S
O108 Tb81 2.658 . S
O108 C98 1.281 . S
O109 Tb81 2.409 . S
O109 C98 1.254 . S
O110 Tb81 2.378 . S
O110 C99 1.236 . S
O111 Tb80 2.341 . S
O111 C99 1.266 . S
H112 C84 0.929 . S
H113 C85 0.931 . S
H114 C87 0.930 . S
H115 C88 0.930 . S
H116 C93 0.929 . S
H117 C94 0.931 . S
H118 C96 0.930 . S
H119 C97 0.930 . S
H120 C121 0.949 . S
C121 H120 0.949 . S
C121 C122 1.395 . S
C121 C123 1.391 . S
C122 C121 1.395 . S
C122 C125 1.390 . S
C123 C121 1.391 . S
C123 C127 1.387 . S
C123 C128 1.491 . S
H124 C125 0.950 . S
C125 C122 1.390 . S
C125 H124 0.950 . S
C125 C126 1.378 . S
C126 C125 1.378 . S
C126 C127 1.409 . S
C127 C123 1.387 . S
C127 C126 1.409 . S
C127 H129 0.951 . S
C128 C123 1.491 . S
C128 C130 1.382 . S
C128 C132 1.404 . S
H129 C127 0.951 . S
C130 C128 1.382 . S
C130 C131 1.390 . S
C130 H135 0.949 . S
C131 C130 1.390 . S
C131 C136 1.399 . S
C132 C128 1.404 . S
C132 H133 0.950 . S
C132 C134 1.375 . S
H133 C132 0.950 . S
C134 C132 1.375 . S
C134 C136 1.382 . S
C134 H138 0.950 . S
H135 C130 0.949 . S
C136 C131 1.399 . S
C136 C134 1.382 . S
C136 H137 0.952 . S
H137 C136 0.952 . S
H138 C134 0.950 . S
H139 C140 0.949 . S
C140 H139 0.949 . S
C140 C141 1.395 . S
C140 C142 1.391 . S
C141 C140 1.395 . S
C141 C144 1.390 . S
C142 C140 1.391 . S
C142 C146 1.387 . S
C142 C147 1.491 . S
H143 C144 0.950 . S
C144 C141 1.390 . S
C144 H143 0.950 . S
C144 C145 1.378 . S
C145 C144 1.378 . S
C145 C146 1.409 . S
C146 C142 1.387 . S
C146 C145 1.409 . S
C146 H148 0.951 . S
C147 C142 1.491 . S
C147 C149 1.382 . S
C147 C151 1.404 . S
H148 C146 0.951 . S
C149 C147 1.382 . S
C149 C150 1.390 . S
C149 H154 0.949 . S
C150 C149 1.390 . S
C150 C155 1.399 . S
C151 C147 1.404 . S
C151 H152 0.950 . S
C151 C153 1.375 . S
H152 C151 0.950 . S
C153 C151 1.375 . S
C153 C155 1.382 . S
C153 H157 0.950 . S
H154 C149 0.949 . S
C155 C150 1.399 . S
C155 C153 1.382 . S
C155 H156 0.952 . S
H156 C155 0.952 . S
H157 C153 0.950 . S
H158 C159 0.949 . S
C159 H158 0.949 . S
C159 C160 1.395 . S
C159 C161 1.391 . S
C160 C159 1.395 . S
C160 C163 1.390 1_455 S
C161 C159 1.391 . S
C161 C165 1.387 . S
C161 C166 1.491 . S
H162 C163 0.950 . S
C163 C160 1.390 1_655 S
C163 H162 0.950 . S
C163 C164 1.378 . S
C164 C163 1.378 . S
C164 C165 1.409 1_655 S
C165 C161 1.387 . S
C165 C164 1.409 1_455 S
C165 H167 0.951 . S
C166 C161 1.491 . S
C166 C168 1.382 . S
C166 C170 1.404 . S
H167 C165 0.951 . S
C168 C166 1.382 . S
C168 C169 1.390 . S
C168 H173 0.949 . S
C169 C168 1.390 . S
C169 C174 1.399 . S
C170 C166 1.404 . S
C170 H171 0.950 . S
C170 C172 1.375 . S
H171 C170 0.950 . S
C172 C170 1.375 . S
C172 C174 1.382 . S
C172 H176 0.950 . S
H173 C168 0.949 . S
C174 C169 1.399 . S
C174 C172 1.382 . S
C174 H175 0.952 . S
H175 C174 0.952 . S
H176 C172 0.950 . S
H177 C178 0.949 1_655 S
C178 H177 0.949 1_455 S
C178 C179 1.395 . S
C178 C180 1.391 . S
C179 C178 1.395 . S
C179 C182 1.390 . S
C180 C178 1.391 . S
C180 C184 1.387 . S
C180 C185 1.491 1_455 S
H181 C182 0.950 . S
C182 C179 1.390 . S
C182 H181 0.950 . S
C182 C183 1.378 . S
C183 C182 1.378 . S
C183 C184 1.409 . S
C184 C180 1.387 . S
C184 C183 1.409 . S
C184 H186 0.951 . S
C185 C180 1.491 1_655 S
C185 C187 1.382 . S
C185 C189 1.404 . S
H186 C184 0.951 . S
C187 C185 1.382 . S
C187 C188 1.390 . S
C187 H192 0.949 . S
C188 C187 1.390 . S
C188 C193 1.399 . S
C189 C185 1.404 . S
C189 H190 0.950 1_655 S
C189 C191 1.375 . S
H190 C189 0.950 1_455 S
C191 C189 1.375 . S
C191 C193 1.382 . S
C191 H195 0.950 . S
H192 C187 0.949 . S
C193 C188 1.399 . S
C193 C191 1.382 . S
C193 H194 0.952 . S
H194 C193 0.952 . S
H195 C191 0.950 . S
H196 C197 0.949 1_565 S
C197 H196 0.949 1_545 S
C197 C198 1.395 . S
C197 C199 1.391 . S
C198 C197 1.395 . S
C198 C201 1.390 . S
C199 C197 1.391 . S
C199 C203 1.387 . S
C199 C204 1.491 1_545 S
H200 C201 0.950 . S
C201 C198 1.390 . S
C201 H200 0.950 . S
C201 C202 1.378 . S
C202 C201 1.378 . S
C202 C203 1.409 . S
C203 C199 1.387 . S
C203 C202 1.409 . S
C203 H205 0.951 . S
C204 C199 1.491 1_565 S
C204 C206 1.382 . S
C204 C208 1.404 . S
H205 C203 0.951 . S
C206 C204 1.382 . S
C206 C207 1.390 . S
C206 H211 0.949 . S
C207 C206 1.390 . S
C207 C212 1.399 . S
C208 C204 1.404 . S
C208 H209 0.950 . S
C208 C210 1.375 . S
H209 C208 0.950 . S
C210 C208 1.375 . S
C210 C212 1.382 . S
C210 H214 0.950 . S
H211 C206 0.949 . S
C212 C207 1.399 . S
C212 C210 1.382 . S
C212 H213 0.952 . S
H213 C212 0.952 . S
H214 C210 0.950 . S
H215 C216 0.949 . S
C216 H215 0.949 . S
C216 C217 1.395 . S
C216 C218 1.391 . S
C217 C216 1.395 . S
C217 C220 1.390 . S
C218 C216 1.391 . S
C218 C222 1.387 . S
C218 C223 1.491 . S
H219 C220 0.950 . S
C220 C217 1.390 . S
C220 H219 0.950 . S
C220 C221 1.378 . S
C221 C220 1.378 . S
C221 C222 1.409 . S
C222 C218 1.387 . S
C222 C221 1.409 . S
C222 H224 0.951 . S
C223 C218 1.491 . S
C223 C225 1.382 . S
C223 C227 1.404 . S
H224 C222 0.951 . S
C225 C223 1.382 . S
C225 C226 1.390 . S
C225 H230 0.949 . S
C226 C225 1.390 . S
C226 C231 1.399 . S
C227 C223 1.404 . S
C227 H228 0.950 . S
C227 C229 1.375 . S
H228 C227 0.950 . S
C229 C227 1.375 . S
C229 C231 1.382 . S
C229 H233 0.950 . S
H230 C225 0.949 . S
C231 C226 1.399 . S
C231 C229 1.382 . S
C231 H232 0.952 . S
H232 C231 0.952 . S
H233 C229 0.950 . S
C234 C235 1.349 . S
C234 C236 1.327 . S
C234 H259 0.950 . S
C235 C234 1.349 . S
C235 C251 1.349 . S
C236 C234 1.327 . S
C236 C255 1.429 . S
C236 H260 0.950 . S
C237 C254 1.574 . S
C237 C256 1.368 . S
C237 H261 0.949 . S
H238 C242 0.949 . S
C239 C240 1.349 . S
C239 C241 1.327 . S
C239 H262 0.950 . S
C240 C239 1.349 . S
C240 C252 1.349 . S
C241 C239 1.327 . S
C241 C257 1.429 . S
C241 H263 0.950 . S
C242 H238 0.949 . S
C242 C250 1.574 . S
C242 C258 1.368 . S
H243 C251 0.950 . S
H244 C249 0.950 . S
H245 C250 0.949 . S
H246 C252 0.950 . S
H247 C253 0.950 . S
H248 C254 0.949 . S
C249 H244 0.950 . S
C249 C251 1.327 . S
C249 C255 1.429 . S
C250 C242 1.574 . S
C250 H245 0.949 . S
C250 C256 1.368 . S
C251 C235 1.349 . S
C251 H243 0.950 . S
C251 C249 1.327 . S
C252 C240 1.349 . S
C252 H246 0.950 . S
C252 C253 1.327 . S
C253 H247 0.950 . S
C253 C252 1.327 . S
C253 C257 1.429 . S
C254 C237 1.574 . S
C254 H248 0.949 . S
C254 C258 1.368 . S
C255 C236 1.429 . S
C255 C249 1.429 . S
C255 C256 1.523 . S
C256 C237 1.368 . S
C256 C250 1.368 . S
C256 C255 1.523 . S
C257 C241 1.429 . S
C257 C253 1.429 . S
C257 C258 1.523 . S
C258 C242 1.368 . S
C258 C254 1.368 . S
C258 C257 1.523 . S
H259 C234 0.950 . S
H260 C236 0.950 . S
H261 C237 0.949 . S
H262 C239 0.950 . S
H263 C241 0.950 . S
C264 C265 1.349 . S
C264 C266 1.327 . S
C264 H289 0.950 . S
C265 C264 1.349 . S
C265 C281 1.349 . S
C266 C264 1.327 . S
C266 C285 1.429 . S
C266 H290 0.950 . S
C267 C284 1.574 . S
C267 C286 1.368 . S
C267 H291 0.949 . S
H268 C272 0.949 . S
C269 C270 1.349 . S
C269 C271 1.327 . S
C269 H292 0.950 . S
C270 C269 1.349 . S
C270 C282 1.349 . S
C271 C269 1.327 . S
C271 C287 1.429 . S
C271 H293 0.950 . S
C272 H268 0.949 . S
C272 C280 1.574 . S
C272 C288 1.368 . S
H273 C281 0.950 . S
H274 C279 0.950 . S
H275 C280 0.949 . S
H276 C282 0.950 . S
H277 C283 0.950 . S
H278 C284 0.949 . S
C279 H274 0.950 . S
C279 C281 1.327 . S
C279 C285 1.429 . S
C280 C272 1.574 . S
C280 H275 0.949 . S
C280 C286 1.368 . S
C281 C265 1.349 . S
C281 H273 0.950 . S
C281 C279 1.327 . S
C282 C270 1.349 . S
C282 H276 0.950 . S
C282 C283 1.327 . S
C283 H277 0.950 . S
C283 C282 1.327 . S
C283 C287 1.429 . S
C284 C267 1.574 . S
C284 H278 0.949 . S
C284 C288 1.368 . S
C285 C266 1.429 . S
C285 C279 1.429 . S
C285 C286 1.523 . S
C286 C267 1.368 . S
C286 C280 1.368 . S
C286 C285 1.523 . S
C287 C271 1.429 . S
C287 C283 1.429 . S
C287 C288 1.523 . S
C288 C272 1.368 . S
C288 C284 1.368 . S
C288 C287 1.523 . S
H289 C264 0.950 . S
H290 C266 0.950 . S
H291 C267 0.949 . S
H292 C269 0.950 . S
H293 C271 0.950 . S
C294 C295 1.349 . S
C294 C296 1.327 . S
C294 H319 0.950 . S
C295 C294 1.349 . S
C295 C311 1.349 . S
C296 C294 1.327 . S
C296 C315 1.429 . S
C296 H320 0.950 . S
C297 C314 1.574 . S
C297 C316 1.368 . S
C297 H321 0.949 . S
H298 C302 0.949 . S
C299 C300 1.349 . S
C299 C301 1.327 . S
C299 H322 0.950 . S
C300 C299 1.349 . S
C300 C312 1.349 . S
C301 C299 1.327 . S
C301 C317 1.429 . S
C301 H323 0.950 . S
C302 H298 0.949 . S
C302 C310 1.574 . S
C302 C318 1.368 . S
H303 C311 0.950 . S
H304 C309 0.950 . S
H305 C310 0.949 . S
H306 C312 0.950 . S
H307 C313 0.950 . S
H308 C314 0.949 . S
C309 H304 0.950 . S
C309 C311 1.327 . S
C309 C315 1.429 . S
C310 C302 1.574 . S
C310 H305 0.949 . S
C310 C316 1.368 . S
C311 C295 1.349 . S
C311 H303 0.950 . S
C311 C309 1.327 . S
C312 C300 1.349 . S
C312 H306 0.950 . S
C312 C313 1.327 . S
C313 H307 0.950 . S
C313 C312 1.327 . S
C313 C317 1.429 . S
C314 C297 1.574 . S
C314 H308 0.949 . S
C314 C318 1.368 . S
C315 C296 1.429 . S
C315 C309 1.429 . S
C315 C316 1.523 . S
C316 C297 1.368 . S
C316 C310 1.368 . S
C316 C315 1.523 . S
C317 C301 1.429 . S
C317 C313 1.429 . S
C317 C318 1.523 . S
C318 C302 1.368 . S
C318 C314 1.368 . S
C318 C317 1.523 . S
H319 C294 0.950 . S
H320 C296 0.950 . S
H321 C297 0.949 . S
H322 C299 0.950 . S
H323 C301 0.950 . S
C324 C325 1.349 . S
C324 C326 1.327 . S
C324 H349 0.950 . S
C325 C324 1.349 . S
C325 C341 1.349 . S
C326 C324 1.327 . S
C326 C345 1.429 . S
C326 H350 0.950 . S
C327 C344 1.574 . S
C327 C346 1.368 . S
C327 H351 0.949 . S
H328 C332 0.949 . S
C329 C330 1.349 . S
C329 C331 1.327 . S
C329 H352 0.950 . S
C330 C329 1.349 . S
C330 C342 1.349 . S
C331 C329 1.327 . S
C331 C347 1.429 . S
C331 H353 0.950 . S
C332 H328 0.949 . S
C332 C340 1.574 . S
C332 C348 1.368 . S
H333 C341 0.950 . S
H334 C339 0.950 . S
H335 C340 0.949 . S
H336 C342 0.950 . S
H337 C343 0.950 . S
H338 C344 0.949 . S
C339 H334 0.950 . S
C339 C341 1.327 . S
C339 C345 1.429 . S
C340 C332 1.574 . S
C340 H335 0.949 . S
C340 C346 1.368 . S
C341 C325 1.349 . S
C341 H333 0.950 . S
C341 C339 1.327 . S
C342 C330 1.349 . S
C342 H336 0.950 . S
C342 C343 1.327 . S
C343 H337 0.950 . S
C343 C342 1.327 . S
C343 C347 1.429 . S
C344 C327 1.574 . S
C344 H338 0.949 . S
C344 C348 1.368 . S
C345 C326 1.429 . S
C345 C339 1.429 . S
C345 C346 1.523 . S
C346 C327 1.368 . S
C346 C340 1.368 . S
C346 C345 1.523 . S
C347 C331 1.429 . S
C347 C343 1.429 . S
C347 C348 1.523 . S
C348 C332 1.368 . S
C348 C344 1.368 . S
C348 C347 1.523 . S
H349 C324 0.950 . S
H350 C326 0.950 . S
H351 C327 0.949 . S
H352 C329 0.950 . S
H353 C331 0.950 . S
C354 C355 1.349 . S
C354 C356 1.327 . S
C354 H379 0.950 . S
C355 C354 1.349 . S
C355 C371 1.349 . S
C356 C354 1.327 . S
C356 C375 1.429 . S
C356 H380 0.950 . S
C357 C374 1.574 . S
C357 C376 1.368 . S
C357 H381 0.949 . S
H358 C362 0.949 . S
C359 C360 1.349 . S
C359 C361 1.327 . S
C359 H382 0.950 . S
C360 C359 1.349 . S
C360 C372 1.349 . S
C361 C359 1.327 . S
C361 C377 1.429 . S
C361 H383 0.950 . S
C362 H358 0.949 . S
C362 C370 1.574 . S
C362 C378 1.368 . S
H363 C371 0.950 . S
H364 C369 0.950 . S
H365 C370 0.949 . S
H366 C372 0.950 . S
H367 C373 0.950 . S
H368 C374 0.949 . S
C369 H364 0.950 . S
C369 C371 1.327 . S
C369 C375 1.429 . S
C370 C362 1.574 . S
C370 H365 0.949 . S
C370 C376 1.368 . S
C371 C355 1.349 . S
C371 H363 0.950 . S
C371 C369 1.327 . S
C372 C360 1.349 . S
C372 H366 0.950 . S
C372 C373 1.327 . S
C373 H367 0.950 . S
C373 C372 1.327 . S
C373 C377 1.429 . S
C374 C357 1.574 . S
C374 H368 0.949 . S
C374 C378 1.368 . S
C375 C356 1.429 . S
C375 C369 1.429 . S
C375 C376 1.523 . S
C376 C357 1.368 . S
C376 C370 1.368 . S
C376 C375 1.523 . S
C377 C361 1.429 . S
C377 C373 1.429 . S
C377 C378 1.523 . S
C378 C362 1.368 . S
C378 C374 1.368 . S
C378 C377 1.523 . S
H379 C354 0.950 . S
H380 C356 0.950 . S
H381 C357 0.949 . S
H382 C359 0.950 . S
H383 C361 0.950 . S
C384 C385 1.349 . S
C384 C386 1.327 . S
C384 H409 0.950 . S
C385 C384 1.349 . S
C385 C401 1.349 . S
C386 C384 1.327 . S
C386 C405 1.429 . S
C386 H410 0.950 . S
C387 C404 1.574 . S
C387 C406 1.368 . S
C387 H411 0.949 . S
H388 C392 0.949 . S
C389 C390 1.349 . S
C389 C391 1.327 . S
C389 H412 0.950 . S
C390 C389 1.349 . S
C390 C402 1.349 . S
C391 C389 1.327 . S
C391 C407 1.429 . S
C391 H413 0.950 . S
C392 H388 0.949 . S
C392 C400 1.574 . S
C392 C408 1.368 . S
H393 C401 0.950 . S
H394 C399 0.950 . S
H395 C400 0.949 . S
H396 C402 0.950 . S
H397 C403 0.950 . S
H398 C404 0.949 . S
C399 H394 0.950 . S
C399 C401 1.327 . S
C399 C405 1.429 . S
C400 C392 1.574 . S
C400 H395 0.949 . S
C400 C406 1.368 . S
C401 C385 1.349 . S
C401 H393 0.950 . S
C401 C399 1.327 . S
C402 C390 1.349 . S
C402 H396 0.950 . S
C402 C403 1.327 . S
C403 H397 0.950 . S
C403 C402 1.327 . S
C403 C407 1.429 . S
C404 C387 1.574 . S
C404 H398 0.949 . S
C404 C408 1.368 . S
C405 C386 1.429 . S
C405 C399 1.429 . S
C405 C406 1.523 . S
C406 C387 1.368 . S
C406 C400 1.368 . S
C406 C405 1.523 . S
C407 C391 1.429 . S
C407 C403 1.429 . S
C407 C408 1.523 . S
C408 C392 1.368 . S
C408 C404 1.368 . S
C408 C407 1.523 . S
H409 C384 0.950 . S
H410 C386 0.950 . S
H411 C387 0.949 . S
H412 C389 0.950 . S
H413 C391 0.950 . S
C414 C415 1.349 . S
C414 C416 1.327 . S
C414 H439 0.950 . S
C415 C414 1.349 . S
C415 C431 1.349 . S
C416 C414 1.327 . S
C416 C435 1.429 . S
C416 H440 0.950 . S
C417 C434 1.574 . S
C417 C436 1.368 . S
C417 H441 0.949 . S
H418 C422 0.949 . S
C419 C420 1.349 . S
C419 C421 1.327 . S
C419 H442 0.950 . S
C420 C419 1.349 . S
C420 C432 1.349 . S
C421 C419 1.327 . S
C421 C437 1.429 . S
C421 H443 0.950 . S
C422 H418 0.949 . S
C422 C430 1.574 . S
C422 C438 1.368 . S
H423 C431 0.950 . S
H424 C429 0.950 . S
H425 C430 0.949 . S
H426 C432 0.950 . S
H427 C433 0.950 . S
H428 C434 0.949 . S
C429 H424 0.950 . S
C429 C431 1.327 . S
C429 C435 1.429 . S
C430 C422 1.574 . S
C430 H425 0.949 . S
C430 C436 1.368 . S
C431 C415 1.349 . S
C431 H423 0.950 . S
C431 C429 1.327 . S
C432 C420 1.349 . S
C432 H426 0.950 . S
C432 C433 1.327 . S
C433 H427 0.950 . S
C433 C432 1.327 . S
C433 C437 1.429 . S
C434 C417 1.574 . S
C434 H428 0.949 . S
C434 C438 1.368 . S
C435 C416 1.429 . S
C435 C429 1.429 . S
C435 C436 1.523 . S
C436 C417 1.368 . S
C436 C430 1.368 . S
C436 C435 1.523 . S
C437 C421 1.429 . S
C437 C433 1.429 . S
C437 C438 1.523 . S
C438 C422 1.368 . S
C438 C434 1.368 . S
C438 C437 1.523 . S
H439 C414 0.950 . S
H440 C416 0.950 . S
H441 C417 0.949 . S
H442 C419 0.950 . S
H443 C421 0.950 . S
C444 C445 1.349 . S
C444 C446 1.327 . S
C444 H469 0.950 . S
C445 C444 1.349 . S
C445 C461 1.349 . S
C446 C444 1.327 . S
C446 C465 1.429 . S
C446 H470 0.950 . S
C447 C464 1.574 . S
C447 C466 1.368 . S
C447 H471 0.949 . S
H448 C452 0.949 . S
C449 C450 1.349 . S
C449 C451 1.327 . S
C449 H472 0.950 . S
C450 C449 1.349 . S
C450 C462 1.349 . S
C451 C449 1.327 . S
C451 C467 1.429 . S
C451 H473 0.950 . S
C452 H448 0.949 . S
C452 C460 1.574 . S
C452 C468 1.368 . S
H453 C461 0.950 . S
H454 C459 0.950 . S
H455 C460 0.949 . S
H456 C462 0.950 . S
H457 C463 0.950 . S
H458 C464 0.949 . S
C459 H454 0.950 . S
C459 C461 1.327 . S
C459 C465 1.429 . S
C460 C452 1.574 . S
C460 H455 0.949 . S
C460 C466 1.368 . S
C461 C445 1.349 . S
C461 H453 0.950 . S
C461 C459 1.327 . S
C462 C450 1.349 . S
C462 H456 0.950 . S
C462 C463 1.327 . S
C463 H457 0.950 . S
C463 C462 1.327 . S
C463 C467 1.429 . S
C464 C447 1.574 . S
C464 H458 0.949 . S
C464 C468 1.368 . S
C465 C446 1.429 . S
C465 C459 1.429 . S
C465 C466 1.523 . S
C466 C447 1.368 . S
C466 C460 1.368 . S
C466 C465 1.523 . S
C467 C451 1.429 . S
C467 C463 1.429 . S
C467 C468 1.523 . S
C468 C452 1.368 . S
C468 C464 1.368 . S
C468 C467 1.523 . S
H469 C444 0.950 . S
H470 C446 0.950 . S
H471 C447 0.949 . S
H472 C449 0.950 . S
H473 C451 0.950 . S
C474 C475 1.349 . S
C474 C476 1.327 . S
C474 H499 0.950 . S
C475 C474 1.349 . S
C475 C491 1.349 . S
C476 C474 1.327 . S
C476 C495 1.429 . S
C476 H500 0.950 . S
C477 C494 1.574 . S
C477 C496 1.368 . S
C477 H501 0.949 . S
H478 C482 0.949 . S
C479 C480 1.349 . S
C479 C481 1.327 1_545 S
C479 H502 0.950 . S
C480 C479 1.349 . S
C480 C492 1.349 . S
C481 C479 1.327 1_565 S
C481 C497 1.429 . S
C481 H503 0.950 . S
C482 H478 0.949 . S
C482 C490 1.574 . S
C482 C498 1.368 . S
H483 C491 0.950 . S
H484 C489 0.950 . S
H485 C490 0.949 . S
H486 C492 0.950 . S
H487 C493 0.950 . S
H488 C494 0.949 . S
C489 H484 0.950 . S
C489 C491 1.327 . S
C489 C495 1.429 . S
C490 C482 1.574 . S
C490 H485 0.949 . S
C490 C496 1.368 . S
C491 C475 1.349 . S
C491 H483 0.950 . S
C491 C489 1.327 . S
C492 C480 1.349 . S
C492 H486 0.950 . S
C492 C493 1.327 1_545 S
C493 H487 0.950 . S
C493 C492 1.327 1_565 S
C493 C497 1.429 . S
C494 C477 1.574 . S
C494 H488 0.949 . S
C494 C498 1.368 . S
C495 C476 1.429 . S
C495 C489 1.429 . S
C495 C496 1.523 . S
C496 C477 1.368 . S
C496 C490 1.368 . S
C496 C495 1.523 . S
C497 C481 1.429 . S
C497 C493 1.429 . S
C497 C498 1.523 . S
C498 C482 1.368 . S
C498 C494 1.368 . S
C498 C497 1.523 . S
H499 C474 0.950 . S
H500 C476 0.950 . S
H501 C477 0.949 . S
H502 C479 0.950 . S
H503 C481 0.950 . S
C504 C505 1.349 . S
C504 C506 1.327 . S
C504 H529 0.950 . S
C505 C504 1.349 . S
C505 C521 1.349 . S
C506 C504 1.327 . S
C506 C525 1.429 . S
C506 H530 0.950 . S
C507 C524 1.574 . S
C507 C526 1.368 . S
C507 H531 0.949 . S
H508 C512 0.949 . S
C509 C510 1.349 . S
C509 C511 1.327 . S
C509 H532 0.950 . S
C510 C509 1.349 . S
C510 C522 1.349 . S
C511 C509 1.327 . S
C511 C527 1.429 . S
C511 H533 0.950 . S
C512 H508 0.949 . S
C512 C520 1.574 . S
C512 C528 1.368 . S
H513 C521 0.950 . S
H514 C519 0.950 . S
H515 C520 0.949 . S
H516 C522 0.950 . S
H517 C523 0.950 . S
H518 C524 0.949 . S
C519 H514 0.950 . S
C519 C521 1.327 . S
C519 C525 1.429 . S
C520 C512 1.574 . S
C520 H515 0.949 . S
C520 C526 1.368 . S
C521 C505 1.349 . S
C521 H513 0.950 . S
C521 C519 1.327 . S
C522 C510 1.349 . S
C522 H516 0.950 . S
C522 C523 1.327 . S
C523 H517 0.950 . S
C523 C522 1.327 . S
C523 C527 1.429 . S
C524 C507 1.574 . S
C524 H518 0.949 . S
C524 C528 1.368 . S
C525 C506 1.429 . S
C525 C519 1.429 . S
C525 C526 1.523 . S
C526 C507 1.368 . S
C526 C520 1.368 . S
C526 C525 1.523 . S
C527 C511 1.429 . S
C527 C523 1.429 . S
C527 C528 1.523 . S
C528 C512 1.368 . S
C528 C524 1.368 . S
C528 C527 1.523 . S
H529 C504 0.950 . S
H530 C506 0.950 . S
H531 C507 0.949 . S
H532 C509 0.950 . S
H533 C511 0.950 . S
C534 C535 1.349 . S
C534 C536 1.327 . S
C534 H559 0.950 . S
C535 C534 1.349 . S
C535 C551 1.349 . S
C536 C534 1.327 . S
C536 C555 1.429 . S
C536 H560 0.950 . S
C537 C554 1.574 . S
C537 C556 1.368 . S
C537 H561 0.949 . S
H538 C542 0.949 . S
C539 C540 1.349 . S
C539 C541 1.327 . S
C539 H562 0.950 . S
C540 C539 1.349 . S
C540 C552 1.349 . S
C541 C539 1.327 . S
C541 C557 1.429 . S
C541 H563 0.950 . S
C542 H538 0.949 . S
C542 C550 1.574 . S
C542 C558 1.368 . S
H543 C551 0.950 . S
H544 C549 0.950 . S
H545 C550 0.949 . S
H546 C552 0.950 . S
H547 C553 0.950 . S
H548 C554 0.949 . S
C549 H544 0.950 . S
C549 C551 1.327 . S
C549 C555 1.429 . S
C550 C542 1.574 . S
C550 H545 0.949 . S
C550 C556 1.368 . S
C551 C535 1.349 . S
C551 H543 0.950 . S
C551 C549 1.327 . S
C552 C540 1.349 . S
C552 H546 0.950 . S
C552 C553 1.327 . S
C553 H547 0.950 . S
C553 C552 1.327 . S
C553 C557 1.429 . S
C554 C537 1.574 . S
C554 H548 0.949 . S
C554 C558 1.368 . S
C555 C536 1.429 . S
C555 C549 1.429 . S
C555 C556 1.523 . S
C556 C537 1.368 . S
C556 C550 1.368 . S
C556 C555 1.523 . S
C557 C541 1.429 . S
C557 C553 1.429 . S
C557 C558 1.523 . S
C558 C542 1.368 . S
C558 C554 1.368 . S
C558 C557 1.523 . S
H559 C534 0.950 . S
H560 C536 0.950 . S
H561 C537 0.949 . S
H562 C539 0.950 . S
H563 C541 0.950 . S
C564 C565 1.349 . S
C564 C566 1.327 . S
C564 H589 0.950 . S
C565 C564 1.349 . S
C565 C581 1.349 . S
C566 C564 1.327 . S
C566 C585 1.429 . S
C566 H590 0.950 . S
C567 C584 1.574 . S
C567 C586 1.368 . S
C567 H591 0.949 . S
H568 C572 0.949 . S
C569 C570 1.349 . S
C569 C571 1.327 . S
C569 H592 0.950 . S
C570 C569 1.349 . S
C570 C582 1.349 . S
C571 C569 1.327 . S
C571 C587 1.429 . S
C571 H593 0.950 . S
C572 H568 0.949 . S
C572 C580 1.574 . S
C572 C588 1.368 . S
H573 C581 0.950 . S
H574 C579 0.950 . S
H575 C580 0.949 . S
H576 C582 0.950 . S
H577 C583 0.950 . S
H578 C584 0.949 . S
C579 H574 0.950 . S
C579 C581 1.327 . S
C579 C585 1.429 . S
C580 C572 1.574 . S
C580 H575 0.949 . S
C580 C586 1.368 . S
C581 C565 1.349 . S
C581 H573 0.950 . S
C581 C579 1.327 . S
C582 C570 1.349 . S
C582 H576 0.950 . S
C582 C583 1.327 . S
C583 H577 0.950 . S
C583 C582 1.327 . S
C583 C587 1.429 . S
C584 C567 1.574 . S
C584 H578 0.949 . S
C584 C588 1.368 . S
C585 C566 1.429 . S
C585 C579 1.429 . S
C585 C586 1.523 . S
C586 C567 1.368 . S
C586 C580 1.368 . S
C586 C585 1.523 . S
C587 C571 1.429 . S
C587 C583 1.429 . S
C587 C588 1.523 . S
C588 C572 1.368 . S
C588 C584 1.368 . S
C588 C587 1.523 . S
H589 C564 0.950 . S
H590 C566 0.950 . S
H591 C567 0.949 . S
H592 C569 0.950 . S
H593 C571 0.950 . S
C594 C595 1.349 1_655 S
C594 C596 1.327 . S
C594 H619 0.950 . S
C595 C594 1.349 1_455 S
C595 C611 1.349 . S
C596 C594 1.327 . S
C596 C615 1.429 1_655 S
C596 H620 0.950 . S
C597 C614 1.574 . S
C597 C616 1.368 . S
C597 H621 0.949 . S
H598 C602 0.949 . S
C599 C600 1.349 . S
C599 C601 1.327 . S
C599 H622 0.950 . S
C600 C599 1.349 . S
C600 C612 1.349 1_455 S
C601 C599 1.327 . S
C601 C617 1.429 . S
C601 H623 0.950 . S
C602 H598 0.949 . S
C602 C610 1.574 1_556 S
C602 C618 1.368 1_655 S
H603 C611 0.950 . S
H604 C609 0.950 . S
H605 C610 0.949 . S
H606 C612 0.950 . S
H607 C613 0.950 . S
H608 C614 0.949 1_556 S
C609 H604 0.950 . S
C609 C611 1.327 . S
C609 C615 1.429 . S
C610 C602 1.574 1_554 S
C610 H605 0.949 . S
C610 C616 1.368 1_655 S
C611 C595 1.349 . S
C611 H603 0.950 . S
C611 C609 1.327 . S
C612 C600 1.349 1_655 S
C612 H606 0.950 . S
C612 C613 1.327 . S
C613 H607 0.950 . S
C613 C612 1.327 . S
C613 C617 1.429 1_655 S
C614 C597 1.574 . S
C614 H608 0.949 1_554 S
C614 C618 1.368 1_554 S
C615 C596 1.429 1_455 S
C615 C609 1.429 . S
C615 C616 1.523 . S
C616 C597 1.368 . S
C616 C610 1.368 1_455 S
C616 C615 1.523 . S
C617 C601 1.429 . S
C617 C613 1.429 1_455 S
C617 C618 1.523 . S
C618 C602 1.368 1_455 S
C618 C614 1.368 1_556 S
C618 C617 1.523 . S
H619 C594 0.950 . S
H620 C596 0.950 . S
H621 C597 0.949 . S
H622 C599 0.950 . S
H623 C601 0.950 . S
C624 C625 1.349 . S
C624 C626 1.327 . S
C624 H649 0.950 . S
C625 C624 1.349 . S
C625 C641 1.349 . S
C626 C624 1.327 . S
C626 C645 1.429 . S
C626 H650 0.950 . S
C627 C644 1.574 . S
C627 C646 1.368 . S
C627 H651 0.949 . S
H628 C632 0.949 . S
C629 C630 1.349 . S
C629 C631 1.327 . S
C629 H652 0.950 . S
C630 C629 1.349 . S
C630 C642 1.349 . S
C631 C629 1.327 . S
C631 C647 1.429 . S
C631 H653 0.950 . S
C632 H628 0.949 . S
C632 C640 1.574 . S
C632 C648 1.368 . S
H633 C641 0.950 . S
H634 C639 0.950 . S
H635 C640 0.949 . S
H636 C642 0.950 . S
H637 C643 0.950 . S
H638 C644 0.949 . S
C639 H634 0.950 . S
C639 C641 1.327 . S
C639 C645 1.429 . S
C640 C632 1.574 . S
C640 H635 0.949 . S
C640 C646 1.368 . S
C641 C625 1.349 . S
C641 H633 0.950 . S
C641 C639 1.327 . S
C642 C630 1.349 . S
C642 H636 0.950 . S
C642 C643 1.327 . S
C643 H637 0.950 . S
C643 C642 1.327 . S
C643 C647 1.429 . S
C644 C627 1.574 . S
C644 H638 0.949 . S
C644 C648 1.368 . S
C645 C626 1.429 . S
C645 C639 1.429 . S
C645 C646 1.523 . S
C646 C627 1.368 . S
C646 C640 1.368 . S
C646 C645 1.523 . S
C647 C631 1.429 . S
C647 C643 1.429 . S
C647 C648 1.523 . S
C648 C632 1.368 . S
C648 C644 1.368 . S
C648 C647 1.523 . S
H649 C624 0.950 . S
H650 C626 0.950 . S
H651 C627 0.949 . S
H652 C629 0.950 . S
H653 C631 0.950 . S
C654 C655 1.349 . S
C654 C656 1.327 . S
C654 H679 0.950 . S
C655 C654 1.349 . S
C655 C671 1.349 . S
C656 C654 1.327 . S
C656 C675 1.429 . S
C656 H680 0.950 . S
C657 C674 1.574 . S
C657 C676 1.368 . S
C657 H681 0.949 . S
H658 C662 0.949 . S
C659 C660 1.349 . S
C659 C661 1.327 . S
C659 H682 0.950 . S
C660 C659 1.349 . S
C660 C672 1.349 . S
C661 C659 1.327 . S
C661 C677 1.429 . S
C661 H683 0.950 . S
C662 H658 0.949 . S
C662 C670 1.574 . S
C662 C678 1.368 . S
H663 C671 0.950 . S
H664 C669 0.950 . S
H665 C670 0.949 . S
H666 C672 0.950 . S
H667 C673 0.950 . S
H668 C674 0.949 . S
C669 H664 0.950 . S
C669 C671 1.327 . S
C669 C675 1.429 . S
C670 C662 1.574 . S
C670 H665 0.949 . S
C670 C676 1.368 . S
C671 C655 1.349 . S
C671 H663 0.950 . S
C671 C669 1.327 . S
C672 C660 1.349 . S
C672 H666 0.950 . S
C672 C673 1.327 . S
C673 H667 0.950 . S
C673 C672 1.327 . S
C673 C677 1.429 . S
C674 C657 1.574 . S
C674 H668 0.949 . S
C674 C678 1.368 . S
C675 C656 1.429 . S
C675 C669 1.429 . S
C675 C676 1.523 . S
C676 C657 1.368 . S
C676 C670 1.368 . S
C676 C675 1.523 . S
C677 C661 1.429 . S
C677 C673 1.429 . S
C677 C678 1.523 . S
C678 C662 1.368 . S
C678 C674 1.368 . S
C678 C677 1.523 . S
H679 C654 0.950 . S
H680 C656 0.950 . S
H681 C657 0.949 . S
H682 C659 0.950 . S
H683 C661 0.950 . S
C684 C685 1.349 . S
C684 C686 1.327 . S
C684 H709 0.950 . S
C685 C684 1.349 . S
C685 C701 1.349 . S
C686 C684 1.327 . S
C686 C705 1.429 . S
C686 H710 0.950 . S
C687 C704 1.574 . S
C687 C706 1.368 . S
C687 H711 0.949 . S
H688 C692 0.949 . S
C689 C690 1.349 . S
C689 C691 1.327 . S
C689 H712 0.950 . S
C690 C689 1.349 . S
C690 C702 1.349 . S
C691 C689 1.327 . S
C691 C707 1.429 . S
C691 H713 0.950 . S
C692 H688 0.949 . S
C692 C700 1.574 . S
C692 C708 1.368 . S
H693 C701 0.950 . S
H694 C699 0.950 . S
H695 C700 0.949 . S
H696 C702 0.950 1_565 S
H697 C703 0.947 . S
H698 C704 0.949 . S
C699 H694 0.950 . S
C699 C701 1.327 . S
C699 C705 1.429 . S
C700 C692 1.574 . S
C700 H695 0.949 . S
C700 C706 1.368 . S
C701 C685 1.349 . S
C701 H693 0.950 . S
C701 C699 1.327 . S
C702 C690 1.349 . S
C702 H696 0.950 1_545 S
C702 C703 1.327 . S
C703 H697 0.947 . S
C703 C702 1.327 . S
C703 C707 1.429 . S
C704 C687 1.574 . S
C704 H698 0.949 . S
C704 C708 1.368 . S
C705 C686 1.429 . S
C705 C699 1.429 . S
C705 C706 1.523 . S
C706 C687 1.368 . S
C706 C700 1.368 . S
C706 C705 1.523 . S
C707 C691 1.429 . S
C707 C703 1.429 . S
C707 C708 1.523 . S
C708 C692 1.368 . S
C708 C704 1.368 . S
C708 C707 1.523 . S
H709 C684 0.950 . S
H710 C686 0.950 . S
H711 C687 0.949 . S
H712 C689 0.950 . S
H713 C691 0.950 . S
C714 C715 1.349 . S
C714 C716 1.327 . S
C714 H739 0.950 . S
C715 C714 1.349 . S
C715 C731 1.349 . S
C716 C714 1.327 . S
C716 C735 1.429 . S
C716 H740 0.950 . S
C717 C734 1.574 1_556 S
C717 C736 1.368 . S
C717 H741 0.949 . S
H718 C722 0.949 1_554 S
C719 C720 1.349 . S
C719 C721 1.327 . S
C719 H742 0.950 . S
C720 C719 1.349 . S
C720 C732 1.349 . S
C721 C719 1.327 . S
C721 C737 1.429 . S
C721 H743 0.950 . S
C722 H718 0.949 1_556 S
C722 C730 1.574 . S
C722 C738 1.368 1_556 S
H723 C731 0.950 . S
H724 C729 0.950 . S
H725 C730 0.949 . S
H726 C732 0.950 . S
H727 C733 0.950 . S
H728 C734 0.949 . S
C729 H724 0.950 . S
C729 C731 1.327 . S
C729 C735 1.429 . S
C730 C722 1.574 . S
C730 H725 0.949 . S
C730 C736 1.368 . S
C731 C715 1.349 . S
C731 H723 0.950 . S
C731 C729 1.327 . S
C732 C720 1.349 . S
C732 H726 0.950 . S
C732 C733 1.327 . S
C733 H727 0.950 . S
C733 C732 1.327 . S
C733 C737 1.429 . S
C734 C717 1.574 1_554 S
C734 H728 0.949 . S
C734 C738 1.368 . S
C735 C716 1.429 . S
C735 C729 1.429 . S
C735 C736 1.523 . S
C736 C717 1.368 . S
C736 C730 1.368 . S
C736 C735 1.523 . S
C737 C721 1.429 . S
C737 C733 1.429 . S
C737 C738 1.523 . S
C738 C722 1.368 1_554 S
C738 C734 1.368 . S
C738 C737 1.523 . S
H739 C714 0.950 . S
H740 C716 0.950 . S
H741 C717 0.949 . S
H742 C719 0.950 . S
H743 C721 0.950 . S
C744 C745 1.349 . S
C744 C746 1.327 . S
C744 H769 0.950 . S
C745 C744 1.349 . S
C745 C761 1.349 . S
C746 C744 1.327 . S
C746 C765 1.429 . S
C746 H770 0.950 . S
C747 C764 1.574 . S
C747 C766 1.368 . S
C747 H771 0.949 . S
H748 C752 0.949 . S
C749 C750 1.349 . S
C749 C751 1.327 . S
C749 H772 0.950 . S
C750 C749 1.349 . S
C750 C762 1.349 . S
C751 C749 1.327 . S
C751 C767 1.429 . S
C751 H773 0.950 . S
C752 H748 0.949 . S
C752 C760 1.574 . S
C752 C768 1.368 . S
H753 C761 0.950 . S
H754 C759 0.950 . S
H755 C760 0.949 . S
H756 C762 0.950 . S
H757 C763 0.950 . S
H758 C764 0.949 . S
C759 H754 0.950 . S
C759 C761 1.327 . S
C759 C765 1.429 . S
C760 C752 1.574 . S
C760 H755 0.949 . S
C760 C766 1.368 . S
C761 C745 1.349 . S
C761 H753 0.950 . S
C761 C759 1.327 . S
C762 C750 1.349 . S
C762 H756 0.950 . S
C762 C763 1.327 . S
C763 H757 0.950 . S
C763 C762 1.327 . S
C763 C767 1.429 . S
C764 C747 1.574 . S
C764 H758 0.949 . S
C764 C768 1.368 . S
C765 C746 1.429 . S
C765 C759 1.429 . S
C765 C766 1.523 . S
C766 C747 1.368 . S
C766 C760 1.368 . S
C766 C765 1.523 . S
C767 C751 1.429 . S
C767 C763 1.429 . S
C767 C768 1.523 . S
C768 C752 1.368 . S
C768 C764 1.368 . S
C768 C767 1.523 . S
H769 C744 0.950 . S
H770 C746 0.950 . S
H771 C747 0.949 . S
H772 C749 0.950 . S
H773 C751 0.950 . S
C235 C10 3.129 . S
C240 C226 3.059 . S
C265 C59 3.218 . S
C270 C188 3.137 . S
C295 C90 3.112 . S
C300 C207 3.045 . S
C325 C19 2.978 . S
C330 C221 2.945 . S
C360 C183 2.882 . S
C355 C50 2.909 . S
C390 C202 2.953 . S
C385 C99 2.984 . S
C415 C46 0.548 . S
C420 C150 0.616 . S
C445 C95 0.151 . S
C450 C164 0.226 . S
C475 C6 0.158 . S
C480 C126 0.267 . S
C510 C145 0.243 . S
C505 C55 0.137 . S
C540 C169 0.558 . S
C535 C86 0.452 . S
C565 C15 0.362 . S
C570 C131 0.498 . S
C600 C160 1.441 . S
C595 C9 1.432 . S
C625 C49 1.305 . S
C630 C122 1.359 . S
C655 C89 1.364 . S
C660 C141 1.393 . S
C690 C198 1.714 . S
C685 C58 1.693 . S
C720 C217 1.742 . S
C715 C98 1.697 . S
C745 C18 1.680 . S
C750 C179 1.796 . S
