# Generated by pormake.
# Topology eea, (3,6)-cn, num edge types: 1
# Building blocks:
#     Node 0, Type 0, BuildingBlock: KAKCAD_clean_linker_0, # of connection points: 3
#     Node 1, Type 0, BuildingBlock: KAKCAD_clean_linker_0, # of connection points: 3
#     Node 2, Type 0, BuildingBlock: KAKCAD_clean_linker_0, # of connection points: 3
#     Node 3, Type 0, BuildingBlock: KAKCAD_clean_linker_0, # of connection points: 3
#     Node 4, Type 0, BuildingBlock: KAKCAD_clean_linker_0, # of connection points: 3
#     Node 5, Type 0, BuildingBlock: KAKCAD_clean_linker_0, # of connection points: 3
#     Node 6, Type 0, BuildingBlock: KAKCAD_clean_linker_0, # of connection points: 3
#     Node 7, Type 0, BuildingBlock: KAKCAD_clean_linker_0, # of connection points: 3
#     Node 8, Type 0, BuildingBlock: KAKCAD_clean_linker_0, # of connection points: 3
#     Node 9, Type 0, BuildingBlock: KAKCAD_clean_linker_0, # of connection points: 3
#     Node 10, Type 0, BuildingBlock: KAKCAD_clean_linker_0, # of connection points: 3
#     Node 11, Type 0, BuildingBlock: KAKCAD_clean_linker_0, # of connection points: 3
#     Node 12, Type 0, BuildingBlock: KAKCAD_clean_linker_0, # of connection points: 3
#     Node 13, Type 0, BuildingBlock: KAKCAD_clean_linker_0, # of connection points: 3
#     Node 14, Type 0, BuildingBlock: KAKCAD_clean_linker_0, # of connection points: 3
#     Node 15, Type 0, BuildingBlock: KAKCAD_clean_linker_0, # of connection points: 3
#     Node 16, Type 0, BuildingBlock: KAKCAD_clean_linker_0, # of connection points: 3
#     Node 17, Type 0, BuildingBlock: KAKCAD_clean_linker_0, # of connection points: 3
#     Node 18, Type 1, BuildingBlock: CUWYAW_clean_sbu_0, # of connection points: 6
#     Node 19, Type 1, BuildingBlock: CUWYAW_clean_sbu_0, # of connection points: 6
#     Node 20, Type 1, BuildingBlock: CUWYAW_clean_sbu_0, # of connection points: 6
#     Node 21, Type 1, BuildingBlock: CUWYAW_clean_sbu_0, # of connection points: 6
#     Node 22, Type 1, BuildingBlock: CUWYAW_clean_sbu_0, # of connection points: 6
#     Node 23, Type 1, BuildingBlock: CUWYAW_clean_sbu_0, # of connection points: 6
#     Node 24, Type 1, BuildingBlock: CUWYAW_clean_sbu_0, # of connection points: 6
#     Node 25, Type 1, BuildingBlock: CUWYAW_clean_sbu_0, # of connection points: 6
#     Node 26, Type 1, BuildingBlock: CUWYAW_clean_sbu_0, # of connection points: 6
#     Edge 27, Type (0, 1), BuildingBlock: CIFDUS_clean_linker_0, # of connection points: 2
#     Edge 28, Type (0, 1), BuildingBlock: CIFDUS_clean_linker_0, # of connection points: 2
#     Edge 29, Type (0, 1), BuildingBlock: CIFDUS_clean_linker_0, # of connection points: 2
#     Edge 30, Type (0, 1), BuildingBlock: CIFDUS_clean_linker_0, # of connection points: 2
#     Edge 31, Type (0, 1), BuildingBlock: CIFDUS_clean_linker_0, # of connection points: 2
#     Edge 32, Type (0, 1), BuildingBlock: CIFDUS_clean_linker_0, # of connection points: 2
#     Edge 33, Type (0, 1), BuildingBlock: CIFDUS_clean_linker_0, # of connection points: 2
#     Edge 34, Type (0, 1), BuildingBlock: CIFDUS_clean_linker_0, # of connection points: 2
#     Edge 35, Type (0, 1), BuildingBlock: CIFDUS_clean_linker_0, # of connection points: 2
#     Edge 36, Type (0, 1), BuildingBlock: CIFDUS_clean_linker_0, # of connection points: 2
#     Edge 37, Type (0, 1), BuildingBlock: CIFDUS_clean_linker_0, # of connection points: 2
#     Edge 38, Type (0, 1), BuildingBlock: CIFDUS_clean_linker_0, # of connection points: 2
#     Edge 39, Type (0, 1), BuildingBlock: CIFDUS_clean_linker_0, # of connection points: 2
#     Edge 40, Type (0, 1), BuildingBlock: CIFDUS_clean_linker_0, # of connection points: 2
#     Edge 41, Type (0, 1), BuildingBlock: CIFDUS_clean_linker_0, # of connection points: 2
#     Edge 42, Type (0, 1), BuildingBlock: CIFDUS_clean_linker_0, # of connection points: 2
#     Edge 43, Type (0, 1), BuildingBlock: CIFDUS_clean_linker_0, # of connection points: 2
#     Edge 44, Type (0, 1), BuildingBlock: CIFDUS_clean_linker_0, # of connection points: 2
#     Edge 45, Type (0, 1), BuildingBlock: CIFDUS_clean_linker_0, # of connection points: 2
#     Edge 46, Type (0, 1), BuildingBlock: CIFDUS_clean_linker_0, # of connection points: 2
#     Edge 47, Type (0, 1), BuildingBlock: CIFDUS_clean_linker_0, # of connection points: 2
#     Edge 48, Type (0, 1), BuildingBlock: CIFDUS_clean_linker_0, # of connection points: 2
#     Edge 49, Type (0, 1), BuildingBlock: CIFDUS_clean_linker_0, # of connection points: 2
#     Edge 50, Type (0, 1), BuildingBlock: CIFDUS_clean_linker_0, # of connection points: 2
#     Edge 51, Type (0, 1), BuildingBlock: CIFDUS_clean_linker_0, # of connection points: 2
#     Edge 52, Type (0, 1), BuildingBlock: CIFDUS_clean_linker_0, # of connection points: 2
#     Edge 53, Type (0, 1), BuildingBlock: CIFDUS_clean_linker_0, # of connection points: 2
#     Edge 54, Type (0, 1), BuildingBlock: CIFDUS_clean_linker_0, # of connection points: 2
#     Edge 55, Type (0, 1), BuildingBlock: CIFDUS_clean_linker_0, # of connection points: 2
#     Edge 56, Type (0, 1), BuildingBlock: CIFDUS_clean_linker_0, # of connection points: 2
#     Edge 57, Type (0, 1), BuildingBlock: CIFDUS_clean_linker_0, # of connection points: 2
#     Edge 58, Type (0, 1), BuildingBlock: CIFDUS_clean_linker_0, # of connection points: 2
#     Edge 59, Type (0, 1), BuildingBlock: CIFDUS_clean_linker_0, # of connection points: 2
#     Edge 60, Type (0, 1), BuildingBlock: CIFDUS_clean_linker_0, # of connection points: 2
#     Edge 61, Type (0, 1), BuildingBlock: CIFDUS_clean_linker_0, # of connection points: 2
#     Edge 62, Type (0, 1), BuildingBlock: CIFDUS_clean_linker_0, # of connection points: 2
#     Edge 63, Type (0, 1), BuildingBlock: CIFDUS_clean_linker_0, # of connection points: 2
#     Edge 64, Type (0, 1), BuildingBlock: CIFDUS_clean_linker_0, # of connection points: 2
#     Edge 65, Type (0, 1), BuildingBlock: CIFDUS_clean_linker_0, # of connection points: 2
#     Edge 66, Type (0, 1), BuildingBlock: CIFDUS_clean_linker_0, # of connection points: 2
#     Edge 67, Type (0, 1), BuildingBlock: CIFDUS_clean_linker_0, # of connection points: 2
#     Edge 68, Type (0, 1), BuildingBlock: CIFDUS_clean_linker_0, # of connection points: 2
#     Edge 69, Type (0, 1), BuildingBlock: CIFDUS_clean_linker_0, # of connection points: 2
#     Edge 70, Type (0, 1), BuildingBlock: CIFDUS_clean_linker_0, # of connection points: 2
#     Edge 71, Type (0, 1), BuildingBlock: CIFDUS_clean_linker_0, # of connection points: 2
#     Edge 72, Type (0, 1), BuildingBlock: CIFDUS_clean_linker_0, # of connection points: 2
#     Edge 73, Type (0, 1), BuildingBlock: CIFDUS_clean_linker_0, # of connection points: 2
#     Edge 74, Type (0, 1), BuildingBlock: CIFDUS_clean_linker_0, # of connection points: 2
#     Edge 75, Type (0, 1), BuildingBlock: CIFDUS_clean_linker_0, # of connection points: 2
#     Edge 76, Type (0, 1), BuildingBlock: CIFDUS_clean_linker_0, # of connection points: 2
#     Edge 77, Type (0, 1), BuildingBlock: CIFDUS_clean_linker_0, # of connection points: 2
#     Edge 78, Type (0, 1), BuildingBlock: CIFDUS_clean_linker_0, # of connection points: 2
#     Edge 79, Type (0, 1), BuildingBlock: CIFDUS_clean_linker_0, # of connection points: 2
#     Edge 80, Type (0, 1), BuildingBlock: CIFDUS_clean_linker_0, # of connection points: 2
# Relax obj value: 0.034
# Max RMSD: 0.133
# Mean RMSD: 0.079
data_MOF--net-eea--node1-CUWYAW_clean_sbu_0--node2-KAKCAD_clean_linker_0--edge1-CIFDUS_clean_linker_0
_symmetry_space_group_name_H-M    P1
_symmetry_Int_Tables_number       1
_symmetry_cell_setting            triclinic
loop_
_symmetry_equiv_pos_as_xyz
'x, y, z'
_cell_length_a     56.2673
_cell_length_b     55.884371
_cell_length_c     83.134741
_cell_angle_alpha  93.647563
_cell_angle_beta   93.228591
_cell_angle_gamma 119.97357
loop_
_atom_site_label
_atom_site_type_symbol
_atom_site_fract_x
_atom_site_fract_y
_atom_site_fract_z
_atom_type_partial_charge
C0 C 0.27782 0.16801 0.47516 0.0
C1 C 0.29562 0.15879 0.48072 0.0
C2 C 0.26954 0.16493 0.45862 0.0
C3 C 0.27882 0.15247 0.44733 0.0
C4 C 0.29735 0.14413 0.45282 0.0
C5 C 0.30573 0.14734 0.46932 0.0
C6 C 0.26804 0.14676 0.42999 0.0
C7 C 0.26582 0.16695 0.42191 0.0
C8 C 0.25434 0.16109 0.4057 0.0
C9 C 0.24559 0.13476 0.39752 0.0
C10 C 0.24753 0.11418 0.40543 0.0
C11 C 0.25877 0.12047 0.4217 0.0
C12 C 0.23684 0.0858 0.39698 0.0
C13 C 0.21316 0.07351 0.38578 0.0
C14 C 0.24981 0.07045 0.40035 0.0
C15 C 0.23908 0.04339 0.39301 0.0
C16 C 0.21537 0.03109 0.38181 0.0
C17 C 0.25008 0.18182 0.39756 0.0
C18 C 0.24134 0.1981 0.40616 0.0
C19 C 0.25327 0.18451 0.38097 0.0
C20 C 0.24692 0.20227 0.37308 0.0
C21 C 0.23771 0.21794 0.38169 0.0
C22 C 0.23533 0.21608 0.39829 0.0
C23 C 0.20276 0.04668 0.37818 0.0
H24 H 0.26942 0.17665 0.48362 0.0
H25 H 0.25504 0.17132 0.45474 0.0
H26 H 0.30516 0.13486 0.44435 0.0
H27 H 0.31993 0.14056 0.47318 0.0
H28 H 0.27319 0.18732 0.42828 0.0
H29 H 0.25934 0.10455 0.4282 0.0
H30 H 0.23673 0.1301 0.38503 0.0
H31 H 0.20224 0.08436 0.38302 0.0
H32 H 0.26833 0.07929 0.4087 0.0
H33 H 0.24922 0.03204 0.39634 0.0
H34 H 0.2382 0.19628 0.41886 0.0
H35 H 0.26039 0.17269 0.37403 0.0
H36 H 0.1848 0.03824 0.36942 0.0
H37 H 0.22799 0.2279 0.40505 0.0
H38 H 0.24883 0.20352 0.36022 0.0
C39 C 0.8854 0.15667 0.48038 0.0
C40 C 0.87513 0.13336 0.48917 0.0
C41 C 0.88748 0.15389 0.46374 0.0
C42 C 0.87921 0.12773 0.45554 0.0
C43 C 0.86948 0.10458 0.4644 0.0
C44 C 0.86741 0.10734 0.48098 0.0
C45 C 0.88005 0.12419 0.43774 0.0
C46 C 0.90286 0.14313 0.43023 0.0
C47 C 0.90377 0.13912 0.41347 0.0
C48 C 0.88186 0.11567 0.40427 0.0
C49 C 0.85881 0.09645 0.41154 0.0
C50 C 0.85798 0.1013 0.42824 0.0
C51 C 0.83614 0.0709 0.40186 0.0
C52 C 0.82865 0.0711 0.38543 0.0
C53 C 0.82219 0.04576 0.40892 0.0
C54 C 0.80144 0.02164 0.39983 0.0
C55 C 0.7946 0.0219 0.38341 0.0
C56 C 0.92783 0.15899 0.40548 0.0
C57 C 0.95482 0.16744 0.41187 0.0
C58 C 0.92384 0.16899 0.3911 0.0
C59 C 0.94636 0.18684 0.38316 0.0
C60 C 0.97342 0.19485 0.38929 0.0
C61 C 0.97736 0.18503 0.40381 0.0
C62 C 0.80832 0.04675 0.37625 0.0
H63 H 0.89177 0.17705 0.48636 0.0
H64 H 0.89496 0.1721 0.45723 0.0
H65 H 0.86331 0.0842 0.4585 0.0
H66 H 0.85912 0.0889 0.48731 0.0
H67 H 0.91999 0.16088 0.43742 0.0
H68 H 0.83994 0.08733 0.43394 0.0
H69 H 0.88333 0.11202 0.39151 0.0
H70 H 0.83844 0.09004 0.3796 0.0
H71 H 0.82768 0.04443 0.42138 0.0
H72 H 0.79128 0.00253 0.40551 0.0
H73 H 0.95844 0.15979 0.42285 0.0
H74 H 0.90325 0.16306 0.38603 0.0
H75 H 0.80322 0.04731 0.36357 0.0
H76 H 0.99781 0.19035 0.40878 0.0
H77 H 0.9425 0.19441 0.37222 0.0
C78 C 0.90315 0.74988 0.48761 0.0
C79 C 0.87651 0.7323 0.49197 0.0
C80 C 0.90704 0.75741 0.47181 0.0
C81 C 0.88438 0.74745 0.46 0.0
C82 C 0.85784 0.72928 0.46429 0.0
C83 C 0.85396 0.72186 0.48007 0.0
C84 C 0.88813 0.75672 0.44345 0.0
C85 C 0.91056 0.75965 0.43526 0.0
C86 C 0.91388 0.76846 0.41964 0.0
C87 C 0.89502 0.775 0.41239 0.0
C88 C 0.87281 0.77249 0.42043 0.0
C89 C 0.86929 0.76311 0.43584 0.0
C90 C 0.85368 0.78036 0.41283 0.0
C91 C 0.86391 0.80695 0.40774 0.0
C92 C 0.8252 0.76136 0.41053 0.0
C93 C 0.80726 0.76874 0.40301 0.0
C94 C 0.8175 0.79541 0.39804 0.0
C95 C 0.93713 0.77128 0.41078 0.0
C96 C 0.96439 0.78729 0.41795 0.0
C97 C 0.93221 0.75928 0.3947 0.0
C98 C 0.95415 0.76357 0.38585 0.0
C99 C 0.9816 0.78035 0.39279 0.0
C100 C 0.9864 0.79197 0.40902 0.0
C101 C 0.84593 0.81451 0.40055 0.0
H102 H 0.92093 0.75845 0.49653 0.0
H103 H 0.92772 0.77167 0.46898 0.0
H104 H 0.83998 0.72075 0.45543 0.0
H105 H 0.83323 0.70781 0.48294 0.0
H106 H 0.92506 0.75446 0.44083 0.0
H107 H 0.85234 0.76173 0.44211 0.0
H108 H 0.89772 0.78224 0.40046 0.0
H109 H 0.88581 0.82195 0.40947 0.0
H110 H 0.81692 0.74072 0.41433 0.0
H111 H 0.78537 0.75374 0.40125 0.0
H112 H 0.96871 0.79701 0.43028 0.0
H113 H 0.91131 0.74662 0.38895 0.0
H114 H 0.85426 0.83516 0.39674 0.0
H115 H 0.00719 0.80538 0.41475 0.0
H116 H 0.94954 0.75374 0.37354 0.0
C117 C 0.13974 0.24353 0.52188 0.0
C118 C 0.13334 0.26267 0.51562 0.0
C119 C 0.13489 0.23661 0.53769 0.0
C120 C 0.12366 0.24875 0.54778 0.0
C121 C 0.1171 0.2678 0.54154 0.0
C122 C 0.12192 0.27471 0.52566 0.0
C123 C 0.11908 0.24154 0.56475 0.0
C124 C 0.13848 0.2379 0.57408 0.0
C125 C 0.13403 0.22988 0.5898 0.0
C126 C 0.10979 0.22539 0.59626 0.0
C127 C 0.09016 0.22894 0.58718 0.0
C128 C 0.09505 0.23735 0.57153 0.0
C129 C 0.06391 0.22239 0.59381 0.0
C130 C 0.04691 0.19595 0.59872 0.0
C131 C 0.05582 0.2424 0.59545 0.0
C132 C 0.03131 0.23618 0.60216 0.0
C133 C 0.01421 0.20964 0.60693 0.0
C134 C 0.15443 0.22549 0.59928 0.0
C135 C 0.16414 0.20887 0.59232 0.0
C136 C 0.16434 0.23783 0.61528 0.0
C137 C 0.18388 0.23393 0.62409 0.0
C138 C 0.19364 0.21721 0.61717 0.0
C139 C 0.1833 0.20458 0.60118 0.0
C140 C 0.02215 0.18954 0.60505 0.0
H141 H 0.14888 0.23409 0.51462 0.0
H142 H 0.13981 0.22154 0.54196 0.0
H143 H 0.10859 0.27768 0.549 0.0
H144 H 0.11649 0.28932 0.5212 0.0
H145 H 0.15736 0.24163 0.56919 0.0
H146 H 0.07957 0.23944 0.56441 0.0
H147 H 0.10598 0.21871 0.60828 0.0
H148 H 0.05269 0.18016 0.59751 0.0
H149 H 0.06867 0.26295 0.59179 0.0
H150 H 0.02554 0.25197 0.60345 0.0
H151 H 0.15655 0.1988 0.58007 0.0
H152 H 0.15733 0.25093 0.62089 0.0
H153 H 0.00937 0.16898 0.60871 0.0
H154 H 0.18968 0.19101 0.59552 0.0
H155 H 0.19159 0.24438 0.63624 0.0
C156 C 0.71274 0.83016 0.53389 0.0
C157 C 0.72484 0.85199 0.52407 0.0
C158 C 0.72035 0.83485 0.5506 0.0
C159 C 0.7402 0.8615 0.55786 0.0
C160 C 0.75268 0.88318 0.54799 0.0
C161 C 0.74506 0.8785 0.53132 0.0
C162 C 0.74735 0.86689 0.57571 0.0
C163 C 0.75079 0.84788 0.5844 0.0
C164 C 0.75731 0.85275 0.60134 0.0
C165 C 0.76015 0.87705 0.60952 0.0
C166 C 0.75757 0.89659 0.60094 0.0
C167 C 0.75099 0.89129 0.58411 0.0
C168 C 0.76307 0.92325 0.60943 0.0
C169 C 0.75003 0.92381 0.62325 0.0
C170 C 0.78196 0.94844 0.60381 0.0
C171 C 0.78806 0.97374 0.61202 0.0
C172 C 0.77505 0.97435 0.62583 0.0
C173 C 0.76239 0.83318 0.61032 0.0
C174 C 0.74735 0.80439 0.60557 0.0
C175 C 0.78292 0.84324 0.62349 0.0
C176 C 0.78833 0.8251 0.63162 0.0
C177 C 0.77376 0.7964 0.62665 0.0
C178 C 0.7531 0.78628 0.61354 0.0
C179 C 0.75577 0.94918 0.6313 0.0
H180 H 0.69731 0.80943 0.52867 0.0
H181 H 0.71022 0.81775 0.55788 0.0
H182 H 0.76832 0.90386 0.55316 0.0
H183 H 0.75457 0.89588 0.52417 0.0
H184 H 0.74932 0.82974 0.57783 0.0
H185 H 0.74833 0.90612 0.57758 0.0
H186 H 0.76498 0.88117 0.62255 0.0
H187 H 0.73532 0.90464 0.62776 0.0
H188 H 0.79242 0.94855 0.59324 0.0
H189 H 0.8029 0.99289 0.60754 0.0
H190 H 0.73109 0.79575 0.59566 0.0
H191 H 0.79528 0.86525 0.6274 0.0
H192 H 0.7456 0.94915 0.64199 0.0
H193 H 0.7416 0.76438 0.60922 0.0
H194 H 0.80399 0.83371 0.64186 0.0
C195 C 0.11973 0.85528 0.52779 0.0
C196 C 0.14455 0.85573 0.52541 0.0
C197 C 0.11197 0.85623 0.54346 0.0
C198 C 0.12903 0.85793 0.557 0.0
C199 C 0.15315 0.85719 0.5546 0.0
C200 C 0.16069 0.85587 0.53902 0.0
C201 C 0.12322 0.86278 0.57369 0.0
C202 C 0.09797 0.84483 0.57948 0.0
C203 C 0.09355 0.84905 0.59566 0.0
C204 C 0.1145 0.87183 0.60589 0.0
C205 C 0.13956 0.8906 0.60009 0.0
C206 C 0.14362 0.88568 0.58396 0.0
C207 C 0.16118 0.91587 0.61051 0.0
C208 C 0.15387 0.93057 0.62161 0.0
C209 C 0.18935 0.9264 0.60882 0.0
C210 C 0.2095 0.95154 0.61736 0.0
C211 C 0.20216 0.96665 0.62813 0.0
C212 C 0.06708 0.82976 0.60193 0.0
C213 C 0.04181 0.82273 0.59342 0.0
C214 C 0.06693 0.81859 0.61662 0.0
C215 C 0.04201 0.8007 0.62265 0.0
C216 C 0.01659 0.79385 0.61428 0.0
C217 C 0.01689 0.8052 0.59957 0.0
C218 C 0.17407 0.95545 0.63039 0.0
H219 H 0.10685 0.85536 0.51764 0.0
H220 H 0.09333 0.85691 0.54504 0.0
H221 H 0.16646 0.85814 0.56486 0.0
H222 H 0.1795 0.85542 0.53767 0.0
H223 H 0.08215 0.82713 0.57156 0.0
H224 H 0.16249 0.90011 0.57912 0.0
H225 H 0.11109 0.87499 0.61835 0.0
H226 H 0.13245 0.92335 0.62321 0.0
H227 H 0.19595 0.91544 0.6007 0.0
H228 H 0.23079 0.95941 0.61513 0.0
H229 H 0.04134 0.83131 0.58216 0.0
H230 H 0.08612 0.82343 0.62335 0.0
H231 H 0.16754 0.96602 0.63885 0.0
H232 H 0.99789 0.80096 0.59289 0.0
H233 H 0.04276 0.792 0.63381 0.0
C234 C 0.93419 0.48461 0.80862 0.0
C235 C 0.95547 0.47871 0.81183 0.0
C236 C 0.92351 0.48273 0.79269 0.0
C237 C 0.93365 0.47458 0.77968 0.0
C238 C 0.95547 0.46958 0.78279 0.0
C239 C 0.96643 0.47186 0.79867 0.0
C240 C 0.92024 0.46932 0.76301 0.0
C241 C 0.91583 0.48933 0.75627 0.0
C242 C 0.90218 0.48363 0.74066 0.0
C243 C 0.89314 0.45789 0.73171 0.0
C244 C 0.89741 0.43757 0.73826 0.0
C245 C 0.91092 0.44358 0.754 0.0
C246 C 0.88752 0.41003 0.72888 0.0
C247 C 0.86311 0.39733 0.71824 0.0
C248 C 0.90222 0.39593 0.73069 0.0
C249 C 0.89251 0.3697 0.72242 0.0
C250 C 0.86817 0.35702 0.71174 0.0
C251 C 0.89668 0.50426 0.73375 0.0
C252 C 0.91846 0.53039 0.73111 0.0
C253 C 0.86946 0.4976 0.72951 0.0
C254 C 0.86402 0.51673 0.72264 0.0
C255 C 0.88574 0.54273 0.71947 0.0
C256 C 0.91307 0.54936 0.72389 0.0
C257 C 0.85373 0.37134 0.70967 0.0
H258 H 0.92498 0.4896 0.81841 0.0
H259 H 0.90652 0.48647 0.79058 0.0
H260 H 0.96381 0.46356 0.77292 0.0
H261 H 0.98326 0.46785 0.80063 0.0
H262 H 0.92274 0.50917 0.76321 0.0
H263 H 0.91348 0.4279 0.75958 0.0
H264 H 0.88318 0.45404 0.71953 0.0
H265 H 0.85091 0.40721 0.71666 0.0
H266 H 0.92137 0.40512 0.73849 0.0
H267 H 0.90405 0.3593 0.72464 0.0
H268 H 0.93964 0.53583 0.73426 0.0
H269 H 0.85236 0.47761 0.73164 0.0
H270 H 0.83515 0.36258 0.70138 0.0
H271 H 0.93038 0.56894 0.72146 0.0
H272 H 0.84271 0.51106 0.71987 0.0
C273 C 0.54648 0.49458 0.81292 0.0
C274 C 0.53362 0.47173 0.82198 0.0
C275 C 0.55185 0.49103 0.79697 0.0
C276 C 0.54457 0.46453 0.78968 0.0
C277 C 0.53221 0.4418 0.79886 0.0
C278 C 0.5267 0.44532 0.81474 0.0
C279 C 0.5493 0.46038 0.77251 0.0
C280 C 0.57345 0.47975 0.76619 0.0
C281 C 0.57796 0.47582 0.74998 0.0
C282 C 0.5581 0.45159 0.74022 0.0
C283 C 0.53392 0.43172 0.74634 0.0
C284 C 0.52956 0.43673 0.76239 0.0
C285 C 0.51337 0.4055 0.73618 0.0
C286 C 0.50801 0.40503 0.71935 0.0
C287 C 0.49893 0.38049 0.7433 0.0
C288 C 0.47945 0.35595 0.73397 0.0
C289 C 0.47437 0.35565 0.71726 0.0
C290 C 0.60345 0.49693 0.74331 0.0
C291 C 0.61506 0.52548 0.74825 0.0
C292 C 0.61639 0.48883 0.7319 0.0
C293 C 0.64005 0.50868 0.72556 0.0
C294 C 0.65167 0.53706 0.73068 0.0
C295 C 0.63901 0.54526 0.74212 0.0
C296 C 0.48888 0.38027 0.70997 0.0
H297 H 0.55244 0.51529 0.81815 0.0
H298 H 0.56122 0.50898 0.79025 0.0
H299 H 0.52671 0.42115 0.79376 0.0
H300 H 0.51647 0.42716 0.82122 0.0
H301 H 0.58908 0.4976 0.77407 0.0
H302 H 0.51044 0.42233 0.767 0.0
H303 H 0.5615 0.44813 0.72782 0.0
H304 H 0.51828 0.42382 0.71342 0.0
H305 H 0.50286 0.3797 0.7561 0.0
H306 H 0.4686 0.33705 0.73977 0.0
H307 H 0.6055 0.53268 0.75674 0.0
H308 H 0.60854 0.46711 0.72801 0.0
H309 H 0.48512 0.38039 0.69706 0.0
H310 H 0.64743 0.56705 0.74617 0.0
H311 H 0.64963 0.50179 0.71689 0.0
C312 C 0.57636 0.09496 0.82842 0.0
C313 C 0.54971 0.07519 0.83184 0.0
C314 C 0.58133 0.10267 0.8127 0.0
C315 C 0.55973 0.09086 0.8001 0.0
C316 C 0.53327 0.07072 0.80349 0.0
C317 C 0.5283 0.06308 0.81913 0.0
C318 C 0.56421 0.09979 0.78351 0.0
C319 C 0.58761 0.10386 0.77611 0.0
C320 C 0.59073 0.11072 0.76008 0.0
C321 C 0.57012 0.11345 0.75142 0.0
C322 C 0.54688 0.11019 0.75879 0.0
C323 C 0.54445 0.1037 0.7749 0.0
C324 C 0.52519 0.11381 0.74998 0.0
C325 C 0.5321 0.13405 0.73906 0.0
C326 C 0.49735 0.09768 0.75293 0.0
C327 C 0.47724 0.10242 0.74574 0.0
C328 C 0.48431 0.1229 0.7351 0.0
C329 C 0.61557 0.115 0.75239 0.0
C330 C 0.64202 0.13302 0.76032 0.0
C331 C 0.61305 0.10118 0.73714 0.0
C332 C 0.63653 0.10511 0.73 0.0
C333 C 0.66316 0.12337 0.73783 0.0
C334 C 0.66551 0.13735 0.75308 0.0
C335 C 0.5118 0.13836 0.7316 0.0
H336 H 0.59337 0.1045 0.83789 0.0
H337 H 0.60193 0.11832 0.81049 0.0
H338 H 0.51624 0.06088 0.79402 0.0
H339 H 0.50745 0.04808 0.82132 0.0
H340 H 0.60301 0.10088 0.78263 0.0
H341 H 0.52724 0.1021 0.78095 0.0
H342 H 0.57236 0.11828 0.73899 0.0
H343 H 0.55327 0.14711 0.7366 0.0
H344 H 0.49097 0.08136 0.76086 0.0
H345 H 0.45607 0.08994 0.74842 0.0
H346 H 0.64454 0.14416 0.77202 0.0
H347 H 0.59286 0.08694 0.73085 0.0
H348 H 0.51771 0.15433 0.72343 0.0
H349 H 0.68553 0.15202 0.75938 0.0
H350 H 0.6337 0.0935 0.71843 0.0
C351 C 0.80592 0.58332 0.86041 0.0
C352 C 0.80263 0.6047 0.85467 0.0
C353 C 0.80023 0.57605 0.87607 0.0
C354 C 0.79124 0.59007 0.8865 0.0
C355 C 0.7868 0.61068 0.88055 0.0
C356 C 0.79241 0.6179 0.86477 0.0
C357 C 0.78796 0.58396 0.9037 0.0
C358 C 0.80745 0.5796 0.91237 0.0
C359 C 0.80469 0.57316 0.92843 0.0
C360 C 0.7821 0.57102 0.93592 0.0
C361 C 0.7623 0.57519 0.92753 0.0
C362 C 0.76554 0.58206 0.91147 0.0
C363 C 0.73774 0.5711 0.93548 0.0
C364 C 0.72244 0.547 0.94315 0.0
C365 C 0.72985 0.59133 0.93589 0.0
C366 C 0.70738 0.58772 0.94412 0.0
C367 C 0.69212 0.56357 0.9518 0.0
C368 C 0.82515 0.56808 0.93724 0.0
C369 C 0.83306 0.55013 0.92995 0.0
C370 C 0.83687 0.58106 0.95296 0.0
C371 C 0.85634 0.57639 0.96116 0.0
C372 C 0.86427 0.55832 0.95391 0.0
C373 C 0.85222 0.54515 0.93821 0.0
C374 C 0.69981 0.5432 0.95113 0.0
H375 H 0.81319 0.57234 0.85281 0.0
H376 H 0.80319 0.55957 0.88009 0.0
H377 H 0.78 0.62196 0.88827 0.0
H378 H 0.78976 0.63453 0.8607 0.0
H379 H 0.82518 0.58169 0.9067 0.0
H380 H 0.75007 0.58482 0.90486 0.0
H381 H 0.77972 0.56572 0.94828 0.0
H382 H 0.72796 0.53098 0.94293 0.0
H383 H 0.74138 0.61015 0.93013 0.0
H384 H 0.70177 0.60366 0.94436 0.0
H385 H 0.82405 0.53955 0.91793 0.0
H386 H 0.8313 0.5952 0.95879 0.0
H387 H 0.68855 0.52447 0.95701 0.0
H388 H 0.85726 0.53063 0.93235 0.0
H389 H 0.86544 0.58726 0.9731 0.0
C390 C 0.38882 0.17626 0.86583 0.0
C391 C 0.4004 0.20044 0.85785 0.0
C392 C 0.3956 0.17778 0.8825 0.0
C393 C 0.41422 0.20349 0.89139 0.0
C394 C 0.42694 0.2273 0.88309 0.0
C395 C 0.41996 0.22581 0.86656 0.0
C396 C 0.41924 0.20613 0.90935 0.0
C397 C 0.42275 0.18648 0.91734 0.0
C398 C 0.42822 0.18977 0.93435 0.0
C399 C 0.42959 0.21279 0.94329 0.0
C400 C 0.4266 0.23272 0.93544 0.0
C401 C 0.42109 0.22906 0.91857 0.0
C402 C 0.43119 0.2585 0.94464 0.0
C403 C 0.41736 0.25757 0.95835 0.0
C404 C 0.44993 0.28439 0.93972 0.0
C405 C 0.45506 0.30893 0.94844 0.0
C406 C 0.44126 0.30809 0.96213 0.0
C407 C 0.43404 0.17019 0.94276 0.0
C408 C 0.41934 0.14149 0.93778 0.0
C409 C 0.45472 0.18026 0.95584 0.0
C410 C 0.46039 0.16218 0.96383 0.0
C411 C 0.44582 0.1335 0.95884 0.0
C412 C 0.42519 0.12336 0.94571 0.0
C413 C 0.42216 0.28222 0.96694 0.0
H414 H 0.37366 0.15644 0.85934 0.0
H415 H 0.38542 0.15908 0.88854 0.0
H416 H 0.44197 0.24729 0.88945 0.0
H417 H 0.42956 0.24466 0.86061 0.0
H418 H 0.42235 0.16931 0.91025 0.0
H419 H 0.41816 0.24424 0.91262 0.0
H420 H 0.43375 0.2157 0.95637 0.0
H421 H 0.40276 0.23782 0.96233 0.0
H422 H 0.461 0.28565 0.92926 0.0
H423 H 0.46979 0.32863 0.94446 0.0
H424 H 0.40315 0.13296 0.92783 0.0
H425 H 0.46685 0.20225 0.95987 0.0
H426 H 0.41139 0.2811 0.97752 0.0
H427 H 0.41373 0.10144 0.94142 0.0
H428 H 0.4761 0.17075 0.97404 0.0
C429 C 0.77913 0.19613 0.85605 0.0
C430 C 0.80603 0.20123 0.85447 0.0
C431 C 0.77048 0.19744 0.87139 0.0
C432 C 0.78865 0.20415 0.88542 0.0
C433 C 0.81506 0.20811 0.88388 0.0
C434 C 0.82358 0.20648 0.86861 0.0
C435 C 0.78111 0.20912 0.90158 0.0
C436 C 0.75654 0.18944 0.90731 0.0
C437 C 0.74993 0.19424 0.92283 0.0
C438 C 0.76842 0.21924 0.93252 0.0
C439 C 0.79305 0.23931 0.92689 0.0
C440 C 0.79896 0.23397 0.91132 0.0
C441 C 0.81256 0.26596 0.93707 0.0
C442 C 0.80285 0.27908 0.94763 0.0
C443 C 0.84117 0.27891 0.93601 0.0
C444 C 0.85937 0.30459 0.94475 0.0
C445 C 0.84968 0.31785 0.95524 0.0
C446 C 0.72383 0.17326 0.929 0.0
C447 C 0.69928 0.15791 0.91857 0.0
C448 C 0.72313 0.16874 0.94547 0.0
C449 C 0.69854 0.14994 0.95141 0.0
C450 C 0.67393 0.13468 0.94102 0.0
C451 C 0.67472 0.13878 0.92448 0.0
C452 C 0.82115 0.30445 0.95671 0.0
H453 H 0.76512 0.19222 0.84544 0.0
H454 H 0.75005 0.19444 0.87228 0.0
H455 H 0.82931 0.21292 0.89453 0.0
H456 H 0.84414 0.20975 0.86791 0.0
H457 H 0.74302 0.17011 0.89981 0.0
H458 H 0.81729 0.24947 0.90649 0.0
H459 H 0.76355 0.2231 0.94446 0.0
H460 H 0.78102 0.27011 0.94872 0.0
H461 H 0.8497 0.26931 0.92834 0.0
H462 H 0.88102 0.31419 0.943 0.0
H463 H 0.69886 0.16096 0.90585 0.0
H464 H 0.74163 0.17971 0.95385 0.0
H465 H 0.81276 0.31352 0.96488 0.0
H466 H 0.65636 0.1272 0.91603 0.0
H467 H 0.69883 0.14779 0.96425 0.0
C468 C 0.58867 0.81224 0.13978 0.0
C469 C 0.60881 0.80509 0.14381 0.0
C470 C 0.58016 0.81173 0.12354 0.0
C471 C 0.59145 0.80382 0.11106 0.0
C472 C 0.61221 0.79763 0.11507 0.0
C473 C 0.6209 0.79841 0.13124 0.0
C474 C 0.5808 0.80056 0.09387 0.0
C475 C 0.57767 0.82145 0.0873 0.0
C476 C 0.56851 0.81845 0.07083 0.0
C477 C 0.56208 0.79417 0.061 0.0
C478 C 0.56408 0.77255 0.06753 0.0
C479 C 0.5736 0.77612 0.084 0.0
C480 C 0.55537 0.74588 0.05747 0.0
C481 C 0.5326 0.73447 0.04562 0.0
C482 C 0.56899 0.73093 0.06014 0.0
C483 C 0.55948 0.70487 0.05171 0.0
C484 C 0.53642 0.6932 0.04005 0.0
C485 C 0.56501 0.84037 0.0639 0.0
C486 C 0.54874 0.84982 0.07102 0.0
C487 C 0.57702 0.85118 0.04977 0.0
C488 C 0.57259 0.87089 0.04278 0.0
C489 C 0.55564 0.87971 0.04962 0.0
C490 C 0.54387 0.86913 0.06385 0.0
C491 C 0.5234 0.7086 0.03694 0.0
H492 H 0.57875 0.81726 0.14913 0.0
H493 H 0.56401 0.81647 0.12075 0.0
H494 H 0.62158 0.79192 0.10567 0.0
H495 H 0.63693 0.79347 0.13389 0.0
H496 H 0.58301 0.84031 0.09487 0.0
H497 H 0.57469 0.7595 0.08939 0.0
H498 H 0.55513 0.79203 0.04829 0.0
H499 H 0.52134 0.74513 0.04329 0.0
H500 H 0.58693 0.7392 0.06891 0.0
H501 H 0.56992 0.69364 0.05467 0.0
H502 H 0.53916 0.84167 0.08187 0.0
H503 H 0.58973 0.84426 0.04411 0.0
H504 H 0.50592 0.70064 0.02785 0.0
H505 H 0.53079 0.87571 0.06936 0.0
H506 H 0.58173 0.87864 0.03175 0.0
C507 C 0.20831 0.83943 0.14553 0.0
C508 C 0.19519 0.81598 0.15404 0.0
C509 C 0.21462 0.83676 0.12965 0.0
C510 C 0.20817 0.81062 0.12211 0.0
C511 C 0.19625 0.78754 0.13109 0.0
C512 C 0.18956 0.79015 0.14675 0.0
C513 C 0.2129 0.80678 0.10485 0.0
C514 C 0.23631 0.8268 0.09817 0.0
C515 C 0.24126 0.82173 0.08225 0.0
C516 C 0.22273 0.79638 0.07305 0.0
C517 C 0.19881 0.77644 0.07929 0.0
C518 C 0.19391 0.78224 0.09506 0.0
C519 C 0.17908 0.7494 0.06956 0.0
C520 C 0.17414 0.74766 0.0526 0.0
C521 C 0.16492 0.72495 0.07723 0.0
C522 C 0.14603 0.69973 0.06828 0.0
C523 C 0.14133 0.69818 0.05142 0.0
C524 C 0.26595 0.84262 0.07513 0.0
C525 C 0.27132 0.86995 0.07462 0.0
C526 C 0.28358 0.83491 0.06808 0.0
C527 C 0.30606 0.85409 0.0606 0.0
C528 C 0.31112 0.88125 0.05975 0.0
C529 C 0.29354 0.88903 0.06685 0.0
C530 C 0.15565 0.72223 0.04361 0.0
H531 H 0.21276 0.85957 0.15096 0.0
H532 H 0.2237 0.85497 0.12313 0.0
H533 H 0.19178 0.76725 0.12597 0.0
H534 H 0.17974 0.77184 0.15318 0.0
H535 H 0.25119 0.84589 0.10546 0.0
H536 H 0.17499 0.76759 0.09975 0.0
H537 H 0.22709 0.79228 0.06098 0.0
H538 H 0.18421 0.76598 0.04624 0.0
H539 H 0.16859 0.72511 0.09017 0.0
H540 H 0.13536 0.68128 0.07449 0.0
H541 H 0.25791 0.87633 0.07988 0.0
H542 H 0.27992 0.81398 0.06834 0.0
H543 H 0.1522 0.7214 0.03058 0.0
H544 H 0.2971 0.90989 0.06645 0.0
H545 H 0.3192 0.84751 0.05517 0.0
C546 C 0.23894 0.42442 0.16355 0.0
C547 C 0.21179 0.40624 0.16689 0.0
C548 C 0.24441 0.43286 0.14801 0.0
C549 C 0.22283 0.42309 0.13548 0.0
C550 C 0.19578 0.40438 0.13882 0.0
C551 C 0.19033 0.3962 0.15433 0.0
C552 C 0.2281 0.43239 0.11898 0.0
C553 C 0.25151 0.43588 0.1118 0.0
C554 C 0.25543 0.44319 0.0959 0.0
C555 C 0.2356 0.44684 0.08708 0.0
C556 C 0.21239 0.44416 0.0942 0.0
C557 C 0.20915 0.4373 0.11021 0.0
C558 C 0.19156 0.44875 0.08515 0.0
C559 C 0.19958 0.4694 0.07444 0.0
C560 C 0.16344 0.43303 0.08759 0.0
C561 C 0.1441 0.43846 0.08002 0.0
C562 C 0.15225 0.45931 0.06956 0.0
C563 C 0.28037 0.44718 0.0885 0.0
C564 C 0.30672 0.46542 0.09646 0.0
C565 C 0.278 0.43317 0.07335 0.0
C566 C 0.30158 0.43731 0.06628 0.0
C567 C 0.32814 0.45603 0.07404 0.0
C568 C 0.33033 0.47 0.08926 0.0
C569 C 0.18007 0.47446 0.06662 0.0
H570 H 0.25587 0.43255 0.17304 0.0
H571 H 0.26544 0.44746 0.14592 0.0
H572 H 0.17873 0.39583 0.12939 0.0
H573 H 0.16927 0.38172 0.15646 0.0
H574 H 0.26634 0.43215 0.11837 0.0
H575 H 0.19197 0.43623 0.11606 0.0
H576 H 0.23846 0.45197 0.07472 0.0
H577 H 0.22101 0.48219 0.07239 0.0
H578 H 0.15627 0.41645 0.09537 0.0
H579 H 0.12267 0.42623 0.08228 0.0
H580 H 0.30907 0.47666 0.1081 0.0
H581 H 0.25787 0.41877 0.06705 0.0
H582 H 0.18684 0.49074 0.05863 0.0
H583 H 0.35027 0.48496 0.09553 0.0
H584 H 0.29888 0.42562 0.05476 0.0
C585 C 0.46932 0.90758 0.1848 0.0
C586 C 0.46741 0.93044 0.18043 0.0
C587 C 0.46044 0.89667 0.19935 0.0
C588 C 0.44967 0.90855 0.20999 0.0
C589 C 0.44667 0.93073 0.20533 0.0
C590 C 0.45541 0.94155 0.19063 0.0
C591 C 0.44318 0.89864 0.22623 0.0
C592 C 0.46109 0.89246 0.23504 0.0
C593 C 0.45519 0.88192 0.25008 0.0
C594 C 0.43148 0.87876 0.25669 0.0
C595 C 0.4133 0.88518 0.24821 0.0
C596 C 0.41935 0.89502 0.2329 0.0
C597 C 0.3879 0.88121 0.25528 0.0
C598 C 0.37344 0.85909 0.26464 0.0
C599 C 0.37808 0.89964 0.25296 0.0
C600 C 0.35465 0.8962 0.25995 0.0
C601 C 0.34086 0.87456 0.26964 0.0
C602 C 0.4736 0.87362 0.25852 0.0
C603 C 0.48532 0.8607 0.24953 0.0
C604 C 0.47981 0.87861 0.27545 0.0
C605 C 0.49755 0.87111 0.28315 0.0
C606 C 0.50963 0.85862 0.27408 0.0
C607 C 0.50324 0.85353 0.25717 0.0
C608 C 0.35039 0.856 0.27186 0.0
H609 H 0.47796 0.89824 0.177 0.0
H610 H 0.46238 0.87911 0.20238 0.0
H611 H 0.43856 0.9404 0.21329 0.0
H612 H 0.45375 0.95923 0.18754 0.0
H613 H 0.47999 0.89616 0.2302 0.0
H614 H 0.40514 0.89912 0.22594 0.0
H615 H 0.42709 0.87106 0.26842 0.0
H616 H 0.37979 0.84398 0.26636 0.0
H617 H 0.38881 0.91713 0.24603 0.0
H618 H 0.34773 0.91086 0.25815 0.0
H619 H 0.48064 0.85603 0.23651 0.0
H620 H 0.47133 0.88869 0.28276 0.0
H621 H 0.33984 0.83893 0.27912 0.0
H622 H 0.51241 0.84436 0.24972 0.0
H623 H 0.50169 0.87503 0.29621 0.0
C624 C 0.06479 0.50473 0.19899 0.0
C625 C 0.07277 0.52734 0.18979 0.0
C626 C 0.07406 0.50907 0.21547 0.0
C627 C 0.09152 0.53613 0.22312 0.0
C628 C 0.09946 0.55869 0.21389 0.0
C629 C 0.09013 0.55437 0.19747 0.0
C630 C 0.10181 0.54101 0.24058 0.0
C631 C 0.11042 0.52379 0.24733 0.0
C632 C 0.12164 0.52932 0.26358 0.0
C633 C 0.12431 0.55245 0.27305 0.0
C634 C 0.11575 0.56989 0.2666 0.0
C635 C 0.10411 0.56366 0.2504 0.0
C636 C 0.12023 0.59525 0.27657 0.0
C637 C 0.11855 0.59548 0.29343 0.0
C638 C 0.12769 0.61996 0.26945 0.0
C639 C 0.13391 0.6443 0.27896 0.0
C640 C 0.13332 0.64457 0.29579 0.0
C641 C 0.13098 0.51129 0.27073 0.0
C642 C 0.11523 0.48221 0.26749 0.0
C643 C 0.1553 0.52308 0.28136 0.0
C644 C 0.16315 0.50624 0.28903 0.0
C645 C 0.14706 0.47713 0.28615 0.0
C646 C 0.1232 0.46532 0.2751 0.0
C647 C 0.12539 0.61999 0.30296 0.0
H648 H 0.0516 0.48363 0.19343 0.0
H649 H 0.06737 0.49124 0.22225 0.0
H650 H 0.11319 0.57979 0.21931 0.0
H651 H 0.09636 0.5723 0.19084 0.0
H652 H 0.10932 0.50666 0.23979 0.0
H653 H 0.09667 0.57642 0.2454 0.0
H654 H 0.13342 0.55703 0.28548 0.0
H655 H 0.11223 0.5768 0.29934 0.0
H656 H 0.12971 0.62088 0.2566 0.0
H657 H 0.14021 0.66319 0.27325 0.0
H658 H 0.09634 0.47245 0.25941 0.0
H659 H 0.16822 0.5454 0.28391 0.0
H660 H 0.12467 0.61982 0.31595 0.0
H661 H 0.11053 0.443 0.27241 0.0
H662 H 0.18147 0.51612 0.29759 0.0
C663 C 0.44658 0.52172 0.19263 0.0
C664 C 0.473 0.5258 0.19054 0.0
C665 C 0.43827 0.52212 0.20818 0.0
C666 C 0.45632 0.52699 0.22195 0.0
C667 C 0.48223 0.53002 0.21992 0.0
C668 C 0.49035 0.52911 0.20443 0.0
C669 C 0.44941 0.53161 0.23837 0.0
C670 C 0.42571 0.51119 0.24463 0.0
C671 C 0.41967 0.51601 0.26035 0.0
C672 C 0.43685 0.54205 0.26928 0.0
C673 C 0.46049 0.56238 0.26318 0.0
C674 C 0.46692 0.55694 0.24786 0.0
C675 C 0.47867 0.58918 0.27304 0.0
C676 C 0.46868 0.60686 0.27755 0.0
C677 C 0.50584 0.59681 0.27835 0.0
C678 C 0.52272 0.62165 0.28823 0.0
C679 C 0.51299 0.63974 0.2927 0.0
C680 C 0.39617 0.49397 0.26788 0.0
C681 C 0.37032 0.47671 0.25901 0.0
C682 C 0.3994 0.4907 0.28435 0.0
C683 C 0.37721 0.47144 0.29193 0.0
C684 C 0.35114 0.45461 0.28323 0.0
C685 C 0.34804 0.45725 0.26661 0.0
C686 C 0.48574 0.63203 0.28712 0.0
H687 H 0.43269 0.51937 0.18231 0.0
H688 H 0.41825 0.51995 0.20947 0.0
H689 H 0.49642 0.53358 0.23038 0.0
H690 H 0.51049 0.53149 0.20339 0.0
H691 H 0.41265 0.49134 0.23751 0.0
H692 H 0.48523 0.57276 0.24314 0.0
H693 H 0.43211 0.54648 0.28118 0.0
H694 H 0.44775 0.60132 0.2735 0.0
H695 H 0.51379 0.58323 0.27513 0.0
H696 H 0.54327 0.62638 0.29253 0.0
H697 H 0.3671 0.4787 0.24632 0.0
H698 H 0.41915 0.50323 0.2915 0.0
H699 H 0.47757 0.64552 0.28997 0.0
H700 H 0.32836 0.44436 0.25946 0.0
H701 H 0.38041 0.4703 0.30476 0.0
C702 C 0.54075 0.02406 0.05115 0.0
Eu703 Eu 0.51857 0.01839 0.02183 0.0
C704 C 0.52989 0.01394 0.06665 0.0
C705 C 0.51485 0.02389 0.07488 0.0
C706 C 0.50409 0.01357 0.08928 0.0
C707 C 0.50807 0.99307 0.09577 0.0
C708 C 0.52318 0.9832 0.08754 0.0
C709 C 0.53404 0.99361 0.07317 0.0
C710 C 0.50452 0.05346 0.00911 0.0
C711 C 0.45163 0.97708 0.02132 0.0
C712 C 0.45959 0.99122 0.96052 0.0
Eu713 Eu 0.48176 0.9962 0.98978 0.0
C714 C 0.47018 0.99868 0.94456 0.0
C715 C 0.47583 0.98094 0.93485 0.0
C716 C 0.48598 0.98808 0.91987 0.0
C717 C 0.49058 0.01306 0.91418 0.0
C718 C 0.48493 0.03081 0.92388 0.0
C719 C 0.47476 0.02366 0.93888 0.0
C720 C 0.49589 0.9611 0.00232 0.0
C721 C 0.54945 0.03512 0.99043 0.0
O722 O 0.53811 0.00523 0.03985 0.0
O723 O 0.53555 0.04243 0.04542 0.0
O724 O 0.52872 0.06145 0.0164 0.0
O725 O 0.48864 0.02777 0.00948 0.0
O726 O 0.47661 0.98642 0.02864 0.0
O727 O 0.44782 0.98207 0.00633 0.0
O728 O 0.4653 0.01179 0.97144 0.0
O729 O 0.46181 0.97136 0.96668 0.0
O730 O 0.47182 0.95296 0.9948 0.0
O731 O 0.51159 0.98683 1.00206 0.0
O732 O 0.52478 0.02621 0.98265 0.0
O733 O 0.55245 0.03103 0.00569 0.0
H734 H 0.51128 0.0396 0.07021 0.0
H735 H 0.4929 0.02191 0.09542 0.0
H736 H 0.52631 0.96713 0.09206 0.0
H737 H 0.54549 0.98552 0.06707 0.0
H738 H 0.47248 0.96148 0.93881 0.0
H739 H 0.49038 0.97407 0.91279 0.0
H740 H 0.48784 0.05 0.91974 0.0
H741 H 0.47039 0.03768 0.94599 0.0
C742 C 0.00643 0.52929 0.04743 0.0
Eu743 Eu 0.00612 0.51166 0.01759 0.0
C744 C 0.0183 0.5295 0.06377 0.0
C745 C 0.01275 0.50478 0.07024 0.0
C746 C 0.02355 0.50561 0.08597 0.0
C747 C 0.04027 0.53116 0.09545 0.0
C748 C 0.04612 0.55584 0.08885 0.0
C749 C 0.03515 0.555 0.07319 0.0
C750 C 0.9707 0.46049 0.00252 0.0
C751 C 0.04961 0.48886 0.01552 0.0
C752 C 0.01886 0.47899 0.95526 0.0
Eu753 Eu 0.02089 0.49853 0.98488 0.0
C754 C 0.01104 0.48261 0.93878 0.0
C755 C 0.02 0.5091 0.93379 0.0
C756 C 0.01279 0.5119 0.91793 0.0
C757 C 0.99632 0.48827 0.90683 0.0
C758 C 0.98691 0.46181 0.91205 0.0
C759 C 0.99431 0.45904 0.92784 0.0
C760 C 0.05634 0.55024 0.9994 0.0
C761 C 0.97829 0.52264 0.98677 0.0
O762 O 0.02385 0.54474 0.03759 0.0
O763 O 0.98697 0.50535 0.04017 0.0
O764 O 0.96288 0.47555 0.01059 0.0
O765 O 0.99663 0.47252 0.00327 0.0
O766 O 0.04079 0.50298 0.02425 0.0
O767 O 0.04129 0.48082 0.99998 0.0
O768 O 0.99874 0.46687 0.96439 0.0
O769 O 0.04114 0.49989 0.96316 0.0
O770 O 0.0639 0.53572 0.99056 0.0
O771 O 0.03045 0.53773 0.99919 0.0
O772 O 0.98826 0.50976 0.97795 0.0
O773 O 0.98471 0.52877 0.0026 0.0
H774 H 0.99997 0.48479 0.06321 0.0
H775 H 0.01895 0.48629 0.0907 0.0
H776 H 0.0587 0.57581 0.09594 0.0
H777 H 0.03965 0.57431 0.06848 0.0
H778 H 0.03276 0.52764 0.94207 0.0
H779 H 0.02057 0.53259 0.91431 0.0
H780 H 0.9737 0.44315 0.90396 0.0
H781 H 0.98697 0.43842 0.93151 0.0
C782 C 0.46336 0.46798 0.95942 0.0
Eu783 Eu 0.48399 0.49057 0.98895 0.0
C784 C 0.47414 0.46762 0.94364 0.0
C785 C 0.49148 0.49235 0.93698 0.0
C786 C 0.50109 0.49147 0.92191 0.0
C787 C 0.49378 0.4659 0.91327 0.0
C788 C 0.4767 0.44122 0.92005 0.0
C789 C 0.46691 0.44209 0.93505 0.0
C790 C 0.50213 0.54396 1.00028 0.0
C791 C 0.55078 0.51497 0.99148 0.0
C792 C 0.53837 0.53404 0.05133 0.0
Eu793 Eu 0.51823 0.51056 0.02192 0.0
C794 C 0.5271 0.53062 0.06717 0.0
C795 C 0.50592 0.50469 0.07069 0.0
C796 C 0.49543 0.50173 0.08577 0.0
C797 C 0.5057 0.5247 0.09761 0.0
C798 C 0.52655 0.55075 0.09384 0.0
C799 C 0.53717 0.55363 0.0788 0.0
C800 C 0.50174 0.45777 0.01059 0.0
C801 C 0.45058 0.48417 0.01925 0.0
O802 O 0.46862 0.45516 0.97049 0.0
O803 O 0.46578 0.49144 0.96536 0.0
O804 O 0.47791 0.52776 0.99255 0.0
O805 O 0.51574 0.53176 1.00109 0.0
O806 O 0.52621 0.498 0.98358 0.0
O807 O 0.55353 0.52692 0.00626 0.0
O808 O 0.52878 0.54433 0.04077 0.0
O809 O 0.54063 0.51338 0.04485 0.0
O810 O 0.52537 0.47427 0.0189 0.0
O811 O 0.48731 0.46918 0.00961 0.0
O812 O 0.4749 0.49931 0.02787 0.0
O813 O 0.44826 0.47505 0.00388 0.0
H814 H 0.49764 0.51239 0.94337 0.0
H815 H 0.51448 0.51083 0.9171 0.0
H816 H 0.47049 0.42119 0.91362 0.0
H817 H 0.45357 0.42276 0.93992 0.0
H818 H 0.49757 0.48666 0.0618 0.0
H819 H 0.47959 0.4813 0.08822 0.0
H820 H 0.53457 0.56906 0.10244 0.0
H821 H 0.55323 0.57389 0.07623 0.0
C822 C 0.20533 0.34912 0.38422 0.0
Eu823 Eu 0.18199 0.34293 0.35509 0.0
C824 C 0.19611 0.3415 0.40043 0.0
C825 C 0.18124 0.352 0.40834 0.0
C826 C 0.17287 0.34456 0.42368 0.0
C827 C 0.17899 0.32632 0.4314 0.0
C828 C 0.1937 0.31571 0.42342 0.0
C829 C 0.20225 0.32331 0.40815 0.0
C830 C 0.16409 0.375 0.34231 0.0
C831 C 0.11495 0.29878 0.35432 0.0
C832 C 0.12251 0.31261 0.29346 0.0
Eu833 Eu 0.14512 0.31854 0.32269 0.0
C834 C 0.13207 0.32644 0.27859 0.0
C835 C 0.1388 0.31349 0.26606 0.0
C836 C 0.14846 0.32647 0.25211 0.0
C837 C 0.15128 0.35256 0.25028 0.0
C838 C 0.14431 0.36545 0.26272 0.0
C839 C 0.13488 0.35258 0.27677 0.0
C840 C 0.16365 0.28669 0.33508 0.0
C841 C 0.21117 0.3635 0.32342 0.0
O842 O 0.19983 0.32854 0.37338 0.0
O843 O 0.20166 0.36823 0.37815 0.0
O844 O 0.18842 0.38501 0.35003 0.0
O845 O 0.15012 0.34907 0.34254 0.0
O846 O 0.13988 0.31154 0.36237 0.0
O847 O 0.11096 0.30042 0.33872 0.0
O848 O 0.12012 0.32709 0.30564 0.0
O849 O 0.13322 0.29778 0.29811 0.0
O850 O 0.13931 0.27656 0.32736 0.0
O851 O 0.17738 0.31269 0.33509 0.0
O852 O 0.18596 0.35344 0.31622 0.0
O853 O 0.21553 0.35845 0.33831 0.0
H854 H 0.17601 0.36594 0.4027 0.0
H855 H 0.16134 0.35287 0.42944 0.0
H856 H 0.19902 0.30188 0.42911 0.0
H857 H 0.21374 0.31498 0.40235 0.0
H858 H 0.13663 0.29327 0.26704 0.0
H859 H 0.15327 0.31586 0.24261 0.0
H860 H 0.1464 0.38562 0.26166 0.0
H861 H 0.12989 0.36317 0.28618 0.0
C862 C 0.66932 0.86048 0.38124 0.0
Eu863 Eu 0.66348 0.83922 0.35148 0.0
C864 C 0.67943 0.85854 0.39758 0.0
C865 C 0.66876 0.83309 0.40426 0.0
C866 C 0.67833 0.83215 0.41998 0.0
C867 C 0.69885 0.85656 0.42922 0.0
C868 C 0.70971 0.88189 0.42239 0.0
C869 C 0.70002 0.88286 0.40676 0.0
C870 C 0.62954 0.78542 0.33929 0.0
C871 C 0.70744 0.8179 0.34669 0.0
C872 C 0.66625 0.80164 0.28759 0.0
Eu873 Eu 0.67245 0.82332 0.31727 0.0
C874 C 0.6589 0.80575 0.27114 0.0
C875 C 0.66984 0.83237 0.26596 0.0
C876 C 0.66297 0.83553 0.25011 0.0
C877 C 0.64494 0.81215 0.2392 0.0
C878 C 0.63358 0.78561 0.24461 0.0
C879 C 0.64058 0.78247 0.2604 0.0
C880 C 0.70682 0.87708 0.32901 0.0
C881 C 0.6281 0.84435 0.3224 0.0
O882 O 0.68799 0.87177 0.37114 0.0
O883 O 0.64633 0.8391 0.37434 0.0
O884 O 0.62165 0.79918 0.34853 0.0
O885 O 0.65482 0.79996 0.33787 0.0
O886 O 0.70054 0.83342 0.35572 0.0
O887 O 0.69556 0.80727 0.3318 0.0
O888 O 0.6465 0.7924 0.29714 0.0
O889 O 0.69006 0.82085 0.29502 0.0
O890 O 0.71391 0.86311 0.31936 0.0
O891 O 0.68159 0.86291 0.33086 0.0
O892 O 0.63539 0.82932 0.31321 0.0
O893 O 0.63979 0.85482 0.33732 0.0
H894 H 0.65298 0.81396 0.39741 0.0
H895 H 0.66976 0.81231 0.42488 0.0
H896 H 0.72528 0.90109 0.42929 0.0
H897 H 0.70848 0.90271 0.40186 0.0
H898 H 0.68388 0.8507 0.2741 0.0
H899 H 0.67225 0.85624 0.24631 0.0
H900 H 0.61918 0.76719 0.23665 0.0
H901 H 0.63172 0.76178 0.26422 0.0
C902 C 0.13533 0.81486 0.29349 0.0
Eu903 Eu 0.15584 0.8307 0.32371 0.0
C904 C 0.14618 0.81863 0.27753 0.0
C905 C 0.16887 0.8439 0.27439 0.0
C906 C 0.17874 0.84693 0.25912 0.0
C907 C 0.16626 0.82468 0.24671 0.0
C908 C 0.14388 0.79927 0.2501 0.0
C909 C 0.13392 0.79635 0.26531 0.0
C910 C 0.17601 0.88183 0.33934 0.0
C911 C 0.22231 0.85152 0.32585 0.0
C912 C 0.20961 0.85921 0.38658 0.0
Eu913 Eu 0.18906 0.84159 0.35653 0.0
C914 C 0.19829 0.85635 0.40238 0.0
C915 C 0.17599 0.83108 0.40585 0.0
C916 C 0.16542 0.82889 0.42088 0.0
C917 C 0.17681 0.85198 0.4327 0.0
C918 C 0.19887 0.87735 0.42901 0.0
C919 C 0.20952 0.87946 0.41404 0.0
C920 C 0.16884 0.79021 0.3411 0.0
C921 C 0.12247 0.81911 0.35464 0.0
O922 O 0.14113 0.79985 0.30261 0.0
O923 O 0.13749 0.83676 0.30169 0.0
O924 O 0.15207 0.86826 0.33093 0.0
O925 O 0.18866 0.86857 0.33844 0.0
O926 O 0.19807 0.83951 0.31705 0.0
O927 O 0.22488 0.85784 0.34167 0.0
O928 O 0.20422 0.87386 0.3769 0.0
O929 O 0.20741 0.83683 0.37897 0.0
O930 O 0.19234 0.80346 0.35002 0.0
O931 O 0.15643 0.80372 0.34171 0.0
O932 O 0.14685 0.8319 0.36326 0.0
O933 O 0.1198 0.81311 0.33875 0.0
H934 H 0.17891 0.86133 0.28372 0.0
H935 H 0.19588 0.86684 0.25698 0.0
H936 H 0.13415 0.78144 0.24105 0.0
H937 H 0.11664 0.77657 0.26755 0.0
H938 H 0.16675 0.81299 0.39697 0.0
H939 H 0.14862 0.80897 0.4233 0.0
H940 H 0.2078 0.89574 0.43764 0.0
H941 H 0.22649 0.89923 0.41152 0.0
C942 C 0.86192 0.68572 0.72092 0.0
Eu943 Eu 0.84598 0.68131 0.69024 0.0
C944 C 0.84975 0.67415 0.73595 0.0
C945 C 0.83561 0.68467 0.74465 0.0
C946 C 0.82555 0.67469 0.75928 0.0
C947 C 0.82948 0.65402 0.76561 0.0
C948 C 0.84326 0.64323 0.75677 0.0
C949 C 0.85335 0.65324 0.74216 0.0
C950 C 0.83261 0.71548 0.67582 0.0
C951 C 0.77947 0.63605 0.68338 0.0
C952 C 0.80126 0.65815 0.62507 0.0
Eu953 Eu 0.81823 0.66112 0.65536 0.0
C954 C 0.81215 0.67075 0.61003 0.0
C955 C 0.82121 0.65782 0.59888 0.0
C956 C 0.82946 0.66838 0.5841 0.0
C957 C 0.82863 0.69201 0.58005 0.0
C958 C 0.82007 0.70527 0.59133 0.0
C959 C 0.81187 0.69474 0.60613 0.0
C960 C 0.83136 0.62644 0.66934 0.0
C961 C 0.8851 0.70483 0.66222 0.0
O962 O 0.86327 0.66875 0.70991 0.0
O963 O 0.8552 0.70264 0.7146 0.0
O964 O 0.85503 0.7243 0.6854 0.0
O965 O 0.81791 0.68942 0.67485 0.0
O966 O 0.80236 0.64739 0.69342 0.0
O967 O 0.77968 0.64075 0.66799 0.0
O968 O 0.79941 0.67391 0.6367 0.0
O969 O 0.80943 0.64171 0.63054 0.0
O970 O 0.80959 0.61801 0.65922 0.0
O971 O 0.84607 0.6526 0.67078 0.0
O972 O 0.86221 0.69444 0.65223 0.0
O973 O 0.88463 0.69993 0.67759 0.0
H974 H 0.83264 0.70096 0.74031 0.0
H975 H 0.81537 0.68375 0.76584 0.0
H976 H 0.84632 0.62702 0.76115 0.0
H977 H 0.86426 0.64478 0.7358 0.0
H978 H 0.82136 0.63911 0.6014 0.0
H979 H 0.83556 0.65743 0.57561 0.0
H980 H 0.81946 0.72368 0.58866 0.0
H981 H 0.80485 0.70515 0.61438 0.0
C982 C 0.33866 0.19445 0.71368 0.0
Eu983 Eu 0.33562 0.17358 0.6842 0.0
C984 C 0.34721 0.19166 0.73019 0.0
C985 C 0.34014 0.1656 0.73526 0.0
C986 C 0.34769 0.16349 0.7512 0.0
C987 C 0.3626 0.18742 0.76233 0.0
C988 C 0.3703 0.21351 0.757 0.0
C989 C 0.36257 0.21556 0.74112 0.0
C990 C 0.29818 0.12173 0.67095 0.0
C991 C 0.37674 0.14772 0.68253 0.0
C992 C 0.34384 0.13358 0.62261 0.0
Eu993 Eu 0.34766 0.15642 0.65163 0.0
C994 C 0.33667 0.13554 0.60561 0.0
C995 C 0.35088 0.1604 0.59843 0.0
C996 C 0.34481 0.16113 0.58199 0.0
C997 C 0.32435 0.13705 0.57245 0.0
C998 C 0.30969 0.11242 0.57981 0.0
C999 C 0.31588 0.11167 0.5962 0.0
C1000 C 0.38479 0.20888 0.66457 0.0
C1001 C 0.30761 0.18347 0.6529 0.0
O1002 O 0.3583 0.20616 0.70421 0.0
O1003 O 0.31628 0.17313 0.70619 0.0
O1004 O 0.2918 0.13805 0.67894 0.0
O1005 O 0.32397 0.13279 0.671 0.0
O1006 O 0.36882 0.16284 0.69109 0.0
O1007 O 0.36763 0.13884 0.66714 0.0
O1008 O 0.32365 0.12377 0.63188 0.0
O1009 O 0.36682 0.15422 0.63004 0.0
O1010 O 0.39134 0.19311 0.65609 0.0
O1011 O 0.35904 0.19709 0.6648 0.0
O1012 O 0.31589 0.16861 0.64442 0.0
O1013 O 0.31542 0.19132 0.66856 0.0
H1014 H 0.32851 0.14685 0.72697 0.0
H1015 H 0.34128 0.14307 0.7549 0.0
H1016 H 0.38233 0.23243 0.7651 0.0
H1017 H 0.36849 0.23588 0.73738 0.0
H1018 H 0.36701 0.17918 0.60542 0.0
H1019 H 0.35666 0.18036 0.57668 0.0
H1020 H 0.29345 0.09364 0.57289 0.0
H1021 H 0.30461 0.09229 0.60149 0.0
C1022 C 0.80118 0.13965 0.62426 0.0
Eu1023 Eu 0.82122 0.15989 0.65414 0.0
C1024 C 0.81189 0.14286 0.60825 0.0
C1025 C 0.82713 0.16915 0.60271 0.0
C1026 C 0.83659 0.1716 0.58737 0.0
C1027 C 0.83125 0.14787 0.57736 0.0
C1028 C 0.8164 0.12166 0.58304 0.0
C1029 C 0.80673 0.11919 0.59832 0.0
C1030 C 0.83776 0.21186 0.66748 0.0
C1031 C 0.88861 0.18662 0.65717 0.0
C1032 C 0.87417 0.19665 0.71723 0.0
Eu1033 Eu 0.85395 0.17645 0.68733 0.0
C1034 C 0.86284 0.19513 0.73292 0.0
C1035 C 0.8782 0.19623 0.74709 0.0
C1036 C 0.86755 0.19427 0.76205 0.0
C1037 C 0.84123 0.191 0.76309 0.0
C1038 C 0.82581 0.18977 0.74883 0.0
C1039 C 0.83658 0.19195 0.73389 0.0
C1040 C 0.83873 0.12511 0.67364 0.0
C1041 C 0.78659 0.15024 0.68414 0.0
O1042 O 0.80915 0.12727 0.63427 0.0
O1043 O 0.80073 0.16093 0.63144 0.0
O1044 O 0.81403 0.19611 0.65912 0.0
O1045 O 0.85184 0.20013 0.66773 0.0
O1046 O 0.86456 0.1709 0.64837 0.0
O1047 O 0.89013 0.19515 0.67259 0.0
O1048 O 0.86881 0.21022 0.7067 0.0
O1049 O 0.87175 0.17356 0.71062 0.0
O1050 O 0.86241 0.14138 0.68196 0.0
O1051 O 0.82384 0.13605 0.67357 0.0
O1052 O 0.81064 0.16554 0.69299 0.0
O1053 O 0.78497 0.14177 0.66872 0.0
H1054 H 0.83168 0.18783 0.61018 0.0
H1055 H 0.84822 0.19208 0.58336 0.0
H1056 H 0.81173 0.10298 0.57553 0.0
H1057 H 0.79505 0.09873 0.60235 0.0
H1058 H 0.89843 0.19853 0.74657 0.0
H1059 H 0.8798 0.19498 0.7728 0.0
H1060 H 0.80562 0.18758 0.74926 0.0
H1061 H 0.82443 0.19124 0.72311 0.0
H1062 H 0.36434 0.89408 0.06448 0.0
H1063 H 0.31047 0.91316 0.0363 0.0
H1064 H 0.34894 0.94441 0.02162 0.0
H1065 H 0.3981 0.96566 0.01647 0.0
H1066 H 0.45172 0.94752 0.04588 0.0
H1067 H 0.41332 0.91666 0.06029 0.0
C1068 C 0.36107 0.9051 0.05511 0.0
C1069 C 0.33464 0.90123 0.0514 0.0
C1070 C 0.38328 0.92319 0.0469 0.0
C1071 C 0.33071 0.91592 0.03941 0.0
C1072 C 0.35266 0.93367 0.03097 0.0
C1073 C 0.4013 0.95493 0.02603 0.0
C1074 C 0.42777 0.95891 0.03003 0.0
C1075 C 0.37906 0.93737 0.03454 0.0
C1076 C 0.43165 0.94504 0.04257 0.0
C1077 C 0.40965 0.92726 0.05083 0.0
H1078 H 0.1416 0.46103 0.03758 0.0
H1079 H 0.11693 0.47103 0.08451 0.0
H1080 H 0.08306 0.48139 0.07203 0.0
H1081 H 0.06057 0.48768 0.04771 0.0
H1082 H 0.08376 0.47524 1.00064 0.0
H1083 H 0.11797 0.46568 0.01319 0.0
C1084 C 0.12883 0.46558 0.04503 0.0
C1085 C 0.13176 0.46544 0.0619 0.0
C1086 C 0.1091 0.47099 0.03775 0.0
C1087 C 0.1149 0.47097 0.07147 0.0
C1088 C 0.09561 0.47693 0.06435 0.0
C1089 C 0.07312 0.48288 0.04021 0.0
C1090 C 0.06965 0.48224 0.02327 0.0
C1091 C 0.09252 0.477 0.04749 0.0
C1092 C 0.0859 0.47573 0.01371 0.0
C1093 C 0.10555 0.47035 0.02087 0.0
H1094 H 0.56578 0.66872 0.03058 0.0
H1095 H 0.48247 0.65329 0.03046 0.0
H1096 H 0.46472 0.60655 0.01726 0.0
H1097 H 0.47258 0.56912 0.00669 0.0
H1098 H 0.55547 0.58331 0.0093 0.0
H1099 H 0.57354 0.63116 0.02097 0.0
C1100 C 0.5437 0.65512 0.02789 0.0
C1101 C 0.52562 0.66481 0.03156 0.0
C1102 C 0.53348 0.62786 0.02082 0.0
C1103 C 0.49707 0.64683 0.02755 0.0
C1104 C 0.4868 0.61989 0.02013 0.0
C1105 C 0.49459 0.5828 0.00976 0.0
C1106 C 0.51271 0.57286 0.0071 0.0
C1107 C 0.50479 0.61012 0.0168 0.0
C1108 C 0.54115 0.59057 0.01127 0.0
C1109 C 0.55148 0.61792 0.01792 0.0
H1110 H 0.90376 0.33884 0.96713 0.0
H1111 H 0.83981 0.36029 0.96369 0.0
H1112 H 0.87109 0.40536 0.97859 0.0
H1113 H 0.9169 0.43936 0.99222 0.0
H1114 H 0.98218 0.42011 0.99307 0.0
H1115 H 0.95028 0.37386 0.97909 0.0
C1116 C 0.89662 0.3534 0.96935 0.0
C1117 C 0.86912 0.34568 0.9643 0.0
C1118 C 0.91507 0.37988 0.9774 0.0
C1119 C 0.86046 0.36501 0.96771 0.0
C1120 C 0.87848 0.39106 0.97611 0.0
C1121 C 0.92408 0.42497 0.98935 0.0
C1122 C 0.95169 0.4329 0.99376 0.0
C1123 C 0.90581 0.39872 0.981 0.0
C1124 C 0.96094 0.41434 0.9898 0.0
C1125 C 0.94271 0.38792 0.98184 0.0
H1126 H 0.64122 0.51779 0.94888 0.0
H1127 H 0.68941 0.6 0.9742 0.0
H1128 H 0.65037 0.59212 0.98931 0.0
H1129 H 0.60225 0.56141 0.99539 0.0
H1130 H 0.55406 0.48005 0.96886 0.0
H1131 H 0.59333 0.48788 0.95432 0.0
C1132 C 0.64318 0.53393 0.95775 0.0
C1133 C 0.66816 0.55936 0.96048 0.0
C1134 C 0.62064 0.52934 0.96624 0.0
C1135 C 0.6703 0.58029 0.97182 0.0
C1136 C 0.64804 0.57573 0.98051 0.0
C1137 C 0.60049 0.5454 0.9865 0.0
C1138 C 0.57533 0.52016 0.98326 0.0
C1139 C 0.62309 0.55027 0.97787 0.0
C1140 C 0.57317 0.49971 0.97154 0.0
C1141 C 0.59563 0.50414 0.96322 0.0
H1142 H 0.49631 0.14296 0.97062 0.0
H1143 H 0.40974 0.08097 0.96633 0.0
H1144 H 0.42026 0.05046 0.98113 0.0
H1145 H 0.454 0.04202 0.99619 0.0
H1146 H 0.54016 0.10503 1.00131 0.0
H1147 H 0.52974 0.1348 0.98568 0.0
C1148 C 0.47964 0.12292 0.97306 0.0
C1149 C 0.45224 0.11443 0.9674 0.0
C1150 C 0.48575 0.10573 0.98187 0.0
C1151 C 0.43106 0.08801 0.97036 0.0
C1152 C 0.43703 0.0706 0.97895 0.0
C1153 C 0.47044 0.06227 0.99384 0.0
C1154 C 0.49779 0.07137 0.99988 0.0
C1155 C 0.46428 0.07933 0.98488 0.0
C1156 C 0.51893 0.09765 0.99685 0.0
C1157 C 0.513 0.11463 0.98787 0.0
H1158 H 0.66664 0.10125 0.96514 0.0
H1159 H 0.62153 0.1239 0.93164 0.0
H1160 H 0.57883 0.09342 0.94304 0.0
H1161 H 0.55458 0.06244 0.96365 0.0
H1162 H 0.60062 0.04291 0.99841 0.0
H1163 H 0.64264 0.07051 0.9856 0.0
C1164 C 0.64759 0.09985 0.9604 0.0
C1165 C 0.64757 0.11511 0.94754 0.0
C1166 C 0.62318 0.08293 0.96734 0.0
C1167 C 0.62234 0.11224 0.94136 0.0
C1168 C 0.59785 0.09496 0.94798 0.0
C1169 C 0.57377 0.06404 0.96833 0.0
C1170 C 0.57445 0.05065 0.98199 0.0
C1171 C 0.59806 0.08045 0.9611 0.0
C1172 C 0.59953 0.05313 0.98798 0.0
C1173 C 0.62359 0.06889 0.98065 0.0
H1174 H 0.9041 0.5508 0.94123 0.0
H1175 H 0.87087 0.55397 0.98638 0.0
H1176 H 0.90422 0.54496 1.00063 0.0
H1177 H 0.94178 0.53446 1.00017 0.0
H1178 H 0.9726 0.52808 0.95466 0.0
H1179 H 0.94086 0.5395 0.94066 0.0
C1180 C 0.90385 0.5492 0.95416 0.0
C1181 C 0.88486 0.55309 0.96265 0.0
C1182 C 0.92263 0.54331 0.96224 0.0
C1183 C 0.88543 0.55153 0.9795 0.0
C1184 C 0.90439 0.54615 0.98767 0.0
C1185 C 0.94167 0.53576 0.98721 0.0
C1186 C 0.95959 0.53049 0.9785 0.0
C1187 C 0.92299 0.54186 0.97915 0.0
C1188 C 0.95897 0.53195 0.96167 0.0
C1189 C 0.94084 0.53852 0.95364 0.0
H1190 H 0.49144 0.35024 0.97421 0.0
H1191 H 0.40508 0.3244 0.97104 0.0
H1192 H 0.41604 0.36886 0.9856 0.0
H1193 H 0.45061 0.4155 0.99892 0.0
H1194 H 0.53669 0.43978 0.00306 0.0
H1195 H 0.52553 0.39563 0.98837 0.0
C1196 C 0.47507 0.35443 0.97672 0.0
C1197 C 0.44756 0.33431 0.97153 0.0
C1198 C 0.48151 0.37974 0.98523 0.0
C1199 C 0.42641 0.33966 0.97501 0.0
C1200 C 0.43269 0.36506 0.98325 0.0
C1201 C 0.46683 0.41099 0.9966 0.0
C1202 C 0.49439 0.43074 1.00201 0.0
C1203 C 0.4602 0.38531 0.98837 0.0
C1204 C 0.5153 0.42476 0.99906 0.0
C1205 C 0.50895 0.39958 0.99063 0.0
H1206 H 0.15301 0.66784 0.03017 0.0
H1207 H 0.08585 0.66853 0.05218 0.0
H1208 H 0.05307 0.62323 0.03729 0.0
H1209 H 0.04383 0.58326 0.01822 0.0
H1210 H 0.11173 0.58074 0.99825 0.0
H1211 H 0.14391 0.62709 0.01183 0.0
C1212 C 0.13115 0.65803 0.03157 0.0
C1213 C 0.12164 0.67134 0.04206 0.0
C1214 C 0.11265 0.63175 0.02333 0.0
C1215 C 0.09343 0.6585 0.04406 0.0
C1216 C 0.07477 0.63269 0.03558 0.0
C1217 C 0.06569 0.59274 0.01701 0.0
C1218 C 0.07543 0.5785 0.0074 0.0
C1219 C 0.08418 0.61904 0.02525 0.0
C1220 C 0.10375 0.59126 0.00564 0.0
C1221 C 0.12217 0.61774 0.01341 0.0
H1222 H 0.33521 0.45667 0.04171 0.0
H1223 H 0.37835 0.46732 0.08867 0.0
H1224 H 0.41999 0.47772 0.07598 0.0
H1225 H 0.44431 0.48369 0.05151 0.0
H1226 H 0.39996 0.46941 0.00454 0.0
H1227 H 0.35848 0.45976 0.0173 0.0
C1228 C 0.35347 0.46073 0.04923 0.0
C1229 C 0.3534 0.46131 0.06621 0.0
C1230 C 0.37721 0.46596 0.04183 0.0
C1231 C 0.37771 0.46727 0.07563 0.0
C1232 C 0.40158 0.47301 0.06837 0.0
C1233 C 0.42555 0.47844 0.04407 0.0
C1234 C 0.42527 0.47737 0.0271 0.0
C1235 C 0.4016 0.4725 0.05148 0.0
C1236 C 0.40073 0.47027 0.01763 0.0
C1237 C 0.377 0.46483 0.02492 0.0
H1238 H 0.50515 0.87198 0.04075 0.0
H1239 H 0.59185 0.93008 0.04009 0.0
H1240 H 0.5811 0.96109 0.0258 0.0
H1241 H 0.5468 0.97101 0.01291 0.0
H1242 H 0.46014 0.91141 0.01231 0.0
H1243 H 0.47099 0.88162 0.02769 0.0
C1244 C 0.52163 0.89157 0.03758 0.0
C1245 C 0.54921 0.89891 0.0415 0.0
C1246 C 0.51527 0.90888 0.02908 0.0
C1247 C 0.57047 0.92407 0.03713 0.0
C1248 C 0.56432 0.94175 0.02899 0.0
C1249 C 0.53037 0.9515 0.01619 0.0
C1250 C 0.50276 0.94329 0.01149 0.0
C1251 C 0.53679 0.93427 0.02479 0.0
C1252 C 0.48157 0.91798 0.01571 0.0
C1253 C 0.48775 0.90101 0.02454 0.0
H1254 H 0.02494 0.23603 0.40192 0.0
H1255 H 0.97583 0.194 0.35643 0.0
H1256 H 0.01467 0.22322 0.34171 0.0
H1257 H 0.06294 0.25988 0.34163 0.0
H1258 H 0.11291 0.29999 0.3871 0.0
H1259 H 0.07353 0.27196 0.40187 0.0
C1260 C 0.02275 0.233 0.38879 0.0
C1261 C 0.99731 0.21283 0.38036 0.0
C1262 C 0.0454 0.24948 0.38035 0.0
C1263 C 0.9949 0.20966 0.36331 0.0
C1264 C 0.0172 0.22623 0.35484 0.0
C1265 C 0.0652 0.26261 0.35477 0.0
C1266 C 0.09084 0.28208 0.36322 0.0
C1267 C 0.04256 0.24616 0.36322 0.0
C1268 C 0.09344 0.28512 0.38026 0.0
C1269 C 0.07091 0.26911 0.38874 0.0
H1270 H 0.78114 0.76908 0.37137 0.0
H1271 H 0.81196 0.83976 0.40722 0.0
H1272 H 0.78059 0.85308 0.39447 0.0
H1273 H 0.74425 0.84437 0.37324 0.0
H1274 H 0.71488 0.77487 0.33655 0.0
H1275 H 0.74596 0.76142 0.34942 0.0
C1276 C 0.78083 0.78732 0.37636 0.0
C1277 C 0.79858 0.80336 0.39022 0.0
C1278 C 0.76315 0.7951 0.36879 0.0
C1279 C 0.79843 0.82719 0.39653 0.0
C1280 C 0.78052 0.83476 0.38926 0.0
C1281 C 0.74467 0.82629 0.36804 0.0
C1282 C 0.7272 0.81057 0.354 0.0
C1283 C 0.76278 0.81886 0.3754 0.0
C1284 C 0.72819 0.78738 0.34732 0.0
C1285 C 0.74587 0.7796 0.3547 0.0
H1286 H 0.24326 0.00467 0.3728 0.0
H1287 H 0.1609 0.99174 0.37349 0.0
H1288 H 0.14177 0.94498 0.36006 0.0
H1289 H 0.14819 0.90754 0.34808 0.0
H1290 H 0.22991 0.91879 0.34955 0.0
H1291 H 0.24944 0.96618 0.36261 0.0
C1292 C 0.22109 0.99158 0.37029 0.0
C1293 C 0.2037 0.0021 0.37406 0.0
C1294 C 0.21005 0.9643 0.363 0.0
C1295 C 0.17499 0.98469 0.37039 0.0
C1296 C 0.16393 0.95775 0.36283 0.0
C1297 C 0.17027 0.92042 0.35128 0.0
C1298 C 0.18766 0.90993 0.34776 0.0
C1299 C 0.18125 0.94739 0.35902 0.0
C1300 C 0.21617 0.92655 0.35213 0.0
C1301 C 0.22732 0.95362 0.35956 0.0
H1302 H 0.56876 0.67372 0.29315 0.0
H1303 H 0.49842 0.66642 0.31573 0.0
H1304 H 0.52799 0.71082 0.33192 0.0
H1305 H 0.57405 0.7521 0.3397 0.0
H1306 H 0.64452 0.75661 0.31889 0.0
H1307 H 0.61474 0.7126 0.30235 0.0
C1308 C 0.55981 0.68141 0.30181 0.0
C1309 C 0.5312 0.66654 0.30303 0.0
C1310 C 0.57703 0.70656 0.31149 0.0
C1311 C 0.52019 0.67751 0.31415 0.0
C1312 C 0.53715 0.70286 0.32358 0.0
C1313 C 0.58283 0.74331 0.33161 0.0
C1314 C 0.61135 0.75778 0.33031 0.0
C1315 C 0.56561 0.71763 0.32232 0.0
C1316 C 0.62255 0.74606 0.31993 0.0
C1317 C 0.60555 0.72086 0.31047 0.0
H1318 H 0.33461 0.87207 0.30155 0.0
H1319 H 0.29366 0.87047 0.25577 0.0
H1320 H 0.25315 0.86335 0.26911 0.0
H1321 H 0.22912 0.85641 0.2938 0.0
H1322 H 0.27134 0.86021 0.33974 0.0
H1323 H 0.31168 0.86777 0.32637 0.0
C1324 C 0.31677 0.87016 0.29454 0.0
C1325 C 0.31688 0.87153 0.27774 0.0
C1326 C 0.29386 0.8665 0.30232 0.0
C1327 C 0.29393 0.86949 0.26875 0.0
C1328 C 0.27081 0.86535 0.27636 0.0
C1329 C 0.24718 0.85896 0.30088 0.0
C1330 C 0.24716 0.8576 0.31774 0.0
C1331 C 0.27048 0.86364 0.29314 0.0
C1332 C 0.27083 0.86125 0.32677 0.0
C1333 C 0.29389 0.86547 0.31912 0.0
H1334 H 0.11256 0.42903 0.29869 0.0
H1335 H 0.1987 0.4853 0.29414 0.0
H1336 H 0.2115 0.45898 0.31137 0.0
H1337 H 0.19839 0.42094 0.32854 0.0
H1338 H 0.11238 0.3631 0.33185 0.0
H1339 H 0.09931 0.38888 0.31409 0.0
C1340 C 0.13412 0.4353 0.3012 0.0
C1341 C 0.15462 0.45938 0.29525 0.0
C1342 C 0.14137 0.41991 0.311 0.0
C1343 C 0.18248 0.46725 0.29882 0.0
C1344 C 0.18985 0.45214 0.30863 0.0
C1345 C 0.1768 0.41414 0.32543 0.0
C1346 C 0.15633 0.39055 0.33166 0.0
C1347 C 0.1695 0.42873 0.31501 0.0
C1348 C 0.12844 0.38143 0.32726 0.0
C1349 C 0.12099 0.3961 0.31711 0.0
H1350 H 0.29781 0.44294 0.2787 0.0
H1351 H 0.3507 0.42254 0.30702 0.0
H1352 H 0.31259 0.39352 0.32234 0.0
H1353 H 0.26412 0.37409 0.32794 0.0
H1354 H 0.21089 0.39273 0.29859 0.0
H1355 H 0.24908 0.42189 0.28337 0.0
C1356 C 0.30096 0.43182 0.28803 0.0
C1357 C 0.32726 0.43519 0.29171 0.0
C1358 C 0.27884 0.41484 0.2967 0.0
C1359 C 0.33088 0.42083 0.30407 0.0
C1360 C 0.30903 0.40408 0.31282 0.0
C1361 C 0.26095 0.38462 0.31825 0.0
C1362 C 0.23474 0.38129 0.31446 0.0
C1363 C 0.28296 0.4011 0.30934 0.0
C1364 C 0.23084 0.39483 0.30173 0.0
C1365 C 0.25269 0.41156 0.29301 0.0
H1366 H 0.54856 0.88747 0.29981 0.0
H1367 H 0.51478 0.81312 0.26633 0.0
H1368 H 0.54882 0.80268 0.27801 0.0
H1369 H 0.58855 0.81482 0.29748 0.0
H1370 H 0.62047 0.88738 0.33213 0.0
H1371 H 0.5864 0.898 0.32043 0.0
C1372 C 0.54827 0.86872 0.29522 0.0
C1373 C 0.52921 0.85132 0.28205 0.0
C1374 C 0.56761 0.86249 0.30219 0.0
C1375 C 0.52954 0.8273 0.27619 0.0
C1376 C 0.54891 0.82117 0.28293 0.0
C1377 C 0.58806 0.83298 0.30246 0.0
C1378 C 0.60711 0.8504 0.31556 0.0
C1379 C 0.56818 0.83874 0.29584 0.0
C1380 C 0.60599 0.87362 0.32204 0.0
C1381 C 0.58656 0.87974 0.31534 0.0
H1382 H 0.10898 0.6759 0.29665 0.0
H1383 H 0.17851 0.67177 0.3175 0.0
H1384 H 0.19588 0.71674 0.33343 0.0
H1385 H 0.19179 0.7577 0.34084 0.0
H1386 H 0.12027 0.76018 0.32179 0.0
H1387 H 0.10309 0.71548 0.30569 0.0
C1388 C 0.12784 0.68493 0.30476 0.0
C1389 C 0.14262 0.67089 0.30594 0.0
C1390 C 0.13736 0.71048 0.31408 0.0
C1391 C 0.1669 0.6824 0.31651 0.0
C1392 C 0.17682 0.70806 0.32556 0.0
C1393 C 0.17241 0.74839 0.33319 0.0
C1394 C 0.15763 0.76247 0.33217 0.0
C1395 C 0.16231 0.72236 0.32436 0.0
C1396 C 0.13233 0.75002 0.32245 0.0
C1397 C 0.12243 0.7244 0.31332 0.0
H1398 H 0.80357 0.99524 0.35846 0.0
H1399 H 0.74004 0.99028 0.38703 0.0
H1400 H 0.70635 0.94572 0.37172 0.0
H1401 H 0.69557 0.90764 0.3507 0.0
H1402 H 0.76054 0.91046 0.32425 0.0
H1403 H 0.79299 0.95668 0.33788 0.0
C1404 C 0.78225 0.98443 0.36116 0.0
C1405 C 0.77404 0.99588 0.37365 0.0
C1406 C 0.76336 0.95854 0.35268 0.0
C1407 C 0.7466 0.9817 0.37735 0.0
C1408 C 0.72743 0.95631 0.36863 0.0
C1409 C 0.71688 0.9183 0.34805 0.0
C1410 C 0.72577 0.90556 0.33668 0.0
C1411 C 0.73566 0.9444 0.35637 0.0
C1412 C 0.75328 0.91982 0.33305 0.0
C1413 C 0.77185 0.94621 0.34085 0.0
H1414 H 0.03138 0.78618 0.40305 0.0
H1415 H 0.98488 0.78795 0.36046 0.0
H1416 H 0.02344 0.79819 0.34463 0.0
H1417 H 0.07133 0.80857 0.34306 0.0
H1418 H 0.11851 0.81024 0.38633 0.0
H1419 H 0.07903 0.79737 0.40168 0.0
C1420 C 0.02968 0.78911 0.39036 0.0
C1421 C 0.00508 0.78621 0.38305 0.0
C1422 C 0.05222 0.7958 0.3814 0.0
C1423 C 0.00327 0.78953 0.36644 0.0
C1424 C 0.02546 0.79565 0.35736 0.0
C1425 C 0.07285 0.80593 0.35581 0.0
C1426 C 0.09783 0.81038 0.36351 0.0
C1427 C 0.05012 0.799 0.36473 0.0
C1428 C 0.09959 0.80713 0.3801 0.0
C1429 C 0.07698 0.7997 0.38892 0.0
H1430 H 0.18887 0.19954 0.36453 0.0
H1431 H 0.26647 0.2737 0.38021 0.0
H1432 H 0.25076 0.30178 0.36653 0.0
H1433 H 0.21459 0.3049 0.35031 0.0
H1434 H 0.1359 0.23082 0.33611 0.0
H1435 H 0.15241 0.2028 0.34876 0.0
C1436 C 0.20226 0.22184 0.36483 0.0
C1437 C 0.22872 0.23474 0.37316 0.0
C1438 C 0.1929 0.23771 0.3572 0.0
C1439 C 0.24604 0.26357 0.37373 0.0
C1440 C 0.23705 0.27951 0.36594 0.0
C1441 C 0.20102 0.28266 0.35012 0.0
C1442 C 0.17401 0.26993 0.34245 0.0
C1443 C 0.21047 0.2668 0.3577 0.0
C1444 C 0.15676 0.24106 0.34201 0.0
C1445 C 0.16616 0.22504 0.34925 0.0
H1446 H 0.66176 0.54315 0.69916 0.0
H1447 H 0.69872 0.57798 0.74798 0.0
H1448 H 0.74143 0.61194 0.73768 0.0
H1449 H 0.76849 0.63109 0.71483 0.0
H1450 H 0.73101 0.5975 0.66588 0.0
H1451 H 0.68825 0.56383 0.67618 0.0
C1452 C 0.67922 0.55819 0.7075 0.0
C1453 C 0.67721 0.55802 0.72429 0.0
C1454 C 0.70355 0.57789 0.70148 0.0
C1455 C 0.69979 0.57782 0.735 0.0
C1456 C 0.7242 0.59717 0.72912 0.0
C1457 C 0.75096 0.61646 0.70639 0.0
C1458 C 0.75303 0.61676 0.6896 0.0
C1459 C 0.72635 0.59732 0.71239 0.0
C1460 C 0.72998 0.59781 0.67886 0.0
C1461 C 0.70554 0.57846 0.68474 0.0
H1462 H 0.47058 0.12175 0.70322 0.0
H1463 H 0.45022 0.13557 0.75079 0.0
H1464 H 0.41501 0.14462 0.73886 0.0
H1465 H 0.39026 0.14891 0.71477 0.0
H1466 H 0.40922 0.13242 0.66717 0.0
H1467 H 0.44452 0.12399 0.67919 0.0
C1468 C 0.45844 0.12684 0.71092 0.0
C1469 C 0.463 0.12821 0.72781 0.0
C1470 C 0.43791 0.13142 0.70397 0.0
C1471 C 0.44695 0.1344 0.73773 0.0
C1472 C 0.42689 0.1396 0.73092 0.0
C1473 C 0.40208 0.14341 0.70704 0.0
C1474 C 0.39711 0.14134 0.6901 0.0
C1475 C 0.42219 0.13819 0.71404 0.0
C1476 C 0.41247 0.13399 0.68025 0.0
C1477 C 0.43278 0.12927 0.6871 0.0
H1478 H 0.89853 0.33496 0.70026 0.0
H1479 H 0.81437 0.31537 0.70336 0.0
H1480 H 0.79765 0.26956 0.68907 0.0
H1481 H 0.80681 0.23424 0.67639 0.0
H1482 H 0.89078 0.25234 0.67606 0.0
H1483 H 0.90764 0.29926 0.68899 0.0
C1484 C 0.8765 0.32064 0.6981 0.0
C1485 C 0.85787 0.32894 0.70293 0.0
C1486 C 0.86694 0.2939 0.69042 0.0
C1487 C 0.82936 0.31003 0.69955 0.0
C1488 C 0.8197 0.28362 0.6915 0.0
C1489 C 0.82878 0.24858 0.67911 0.0
C1490 C 0.84757 0.24008 0.6752 0.0
C1491 C 0.83829 0.27528 0.68693 0.0
C1492 C 0.87597 0.25854 0.67896 0.0
C1493 C 0.8856 0.28534 0.68633 0.0
H1494 H 0.197 0.01206 0.63563 0.0
H1495 H 0.25588 0.98402 0.63948 0.0
H1496 H 0.2912 0.02987 0.65204 0.0
H1497 H 0.30536 0.07806 0.66244 0.0
H1498 H 0.24499 0.10411 0.66085 0.0
H1499 H 0.2102 0.0588 0.64719 0.0
C1500 C 0.21735 0.01564 0.63946 0.0
C1501 C 0.22355 0.99435 0.6365 0.0
C1502 C 0.23741 0.04183 0.64712 0.0
C1503 C 0.25044 0.99997 0.64127 0.0
C1504 C 0.27069 0.02621 0.64859 0.0
C1505 C 0.28458 0.07372 0.65906 0.0
C1506 C 0.27768 0.09429 0.66259 0.0
C1507 C 0.26443 0.04732 0.65157 0.0
C1508 C 0.25069 0.08849 0.65829 0.0
C1509 C 0.23081 0.06262 0.65047 0.0
H1510 H 0.00752 0.23642 0.63316 0.0
H1511 H 0.96267 0.16706 0.59643 0.0
H1512 H 0.9196 0.15438 0.60834 0.0
H1513 H 0.89494 0.16235 0.62961 0.0
H1514 H 0.94024 0.23005 0.66738 0.0
H1515 H 0.98282 0.24402 0.65473 0.0
C1516 C 0.98823 0.21868 0.62774 0.0
C1517 C 0.98813 0.20275 0.61392 0.0
C1518 C 0.96369 0.21114 0.63489 0.0
C1519 C 0.96316 0.17956 0.6071 0.0
C1520 C 0.93858 0.17233 0.6139 0.0
C1521 C 0.91411 0.18024 0.63503 0.0
C1522 C 0.91437 0.19516 0.6494 0.0
C1523 C 0.93862 0.18785 0.62786 0.0
C1524 C 0.93946 0.21812 0.65636 0.0
C1525 C 0.96382 0.22617 0.64911 0.0
H1526 H 0.82421 0.80655 0.63925 0.0
H1527 H 0.73809 0.74286 0.63294 0.0
H1528 H 0.74893 0.71174 0.64672 0.0
H1529 H 0.78268 0.70308 0.66149 0.0
H1530 H 0.86795 0.7682 0.66966 0.0
H1531 H 0.85749 0.79851 0.65456 0.0
C1532 C 0.80765 0.78604 0.64107 0.0
C1533 C 0.78033 0.77725 0.63503 0.0
C1534 C 0.81387 0.76851 0.64944 0.0
C1535 C 0.75939 0.75021 0.63719 0.0
C1536 C 0.76552 0.7324 0.64521 0.0
C1537 C 0.79892 0.7239 0.65991 0.0
C1538 C 0.82601 0.73348 0.66665 0.0
C1539 C 0.79266 0.74139 0.65148 0.0
C1540 C 0.8469 0.76049 0.66464 0.0
C1541 C 0.84095 0.77778 0.65598 0.0
H1542 H 0.00557 0.78966 0.64605 0.0
H1543 H 0.9672 0.75525 0.59727 0.0
H1544 H 0.9234 0.72552 0.60775 0.0
H1545 H 0.89584 0.70891 0.63069 0.0
H1546 H 0.93472 0.74095 0.67952 0.0
H1547 H 0.97857 0.77138 0.66905 0.0
C1548 C 0.98782 0.7754 0.63766 0.0
C1549 C 0.98992 0.77505 0.62082 0.0
C1550 C 0.9627 0.75775 0.64378 0.0
C1551 C 0.96631 0.75661 0.61025 0.0
C1552 C 0.9412 0.73934 0.61624 0.0
C1553 C 0.91389 0.72254 0.63907 0.0
C1554 C 0.91192 0.72268 0.65588 0.0
C1555 C 0.93913 0.73978 0.63297 0.0
C1556 C 0.93563 0.74032 0.66653 0.0
C1557 C 0.96072 0.75781 0.66054 0.0
H1558 H 0.23554 0.21178 0.60577 0.0
H1559 H 0.19857 0.21258 0.6498 0.0
H1560 H 0.23186 0.20451 0.66493 0.0
H1561 H 0.27024 0.19493 0.6655 0.0
H1562 H 0.30414 0.19014 0.62093 0.0
H1563 H 0.27297 0.2015 0.60619 0.0
C1564 C 0.23441 0.20985 0.61863 0.0
C1565 C 0.21435 0.21277 0.62653 0.0
C1566 C 0.25309 0.20436 0.62721 0.0
C1567 C 0.21393 0.21088 0.64334 0.0
C1568 C 0.23287 0.20602 0.65203 0.0
C1569 C 0.27093 0.19663 0.65259 0.0
C1570 C 0.28952 0.19177 0.64434 0.0
C1571 C 0.25242 0.20251 0.64407 0.0
C1572 C 0.28995 0.19368 0.62757 0.0
C1573 C 0.27214 0.2002 0.61912 0.0
H1574 H 0.82599 0.01661 0.63684 0.0
H1575 H 0.74 0.9921 0.63474 0.0
H1576 H 0.75206 0.03707 0.64903 0.0
H1577 H 0.78732 0.08347 0.66212 0.0
H1578 H 0.87306 0.10656 0.66541 0.0
H1579 H 0.86095 0.06214 0.65058 0.0
C1580 C 0.80995 0.02123 0.63948 0.0
C1581 C 0.78221 1.00128 0.63471 0.0
C1582 C 0.81702 0.04683 0.64789 0.0
C1583 C 0.7615 0.0072 0.63838 0.0
C1584 C 0.7684 0.03289 0.64648 0.0
C1585 C 0.80328 0.07869 0.65956 0.0
C1586 C 0.83101 0.09814 0.6648 0.0
C1587 C 0.7961 0.05288 0.6513 0.0
C1588 C 0.85156 0.09178 0.66154 0.0
C1589 C 0.84466 0.06644 0.65304 0.0
H1590 H 0.48457 0.3244 0.69573 0.0
H1591 H 0.41881 0.32841 0.71748 0.0
H1592 H 0.3848 0.2839 0.70227 0.0
H1593 H 0.37407 0.24341 0.68324 0.0
H1594 H 0.44032 0.23748 0.66336 0.0
H1595 H 0.47385 0.28331 0.67709 0.0
C1596 C 0.46274 0.3155 0.69698 0.0
C1597 C 0.45398 0.32951 0.70751 0.0
C1598 C 0.44349 0.28964 0.68854 0.0
C1599 C 0.42581 0.31785 0.70932 0.0
C1600 C 0.40645 0.29248 0.70066 0.0
C1601 C 0.39586 0.25208 0.68202 0.0
C1602 C 0.40475 0.237 0.67244 0.0
C1603 C 0.41508 0.27808 0.69033 0.0
C1604 C 0.43299 0.24867 0.67073 0.0
C1605 C 0.45218 0.27485 0.67859 0.0
H1606 H 0.6709 0.12413 0.70555 0.0
H1607 H 0.71248 0.13288 0.75273 0.0
H1608 H 0.75411 0.14224 0.74038 0.0
H1609 H 0.77893 0.14801 0.71618 0.0
H1610 H 0.73649 0.13636 0.66895 0.0
H1611 H 0.69475 0.12712 0.68132 0.0
C1612 C 0.68882 0.12759 0.71318 0.0
C1613 C 0.68834 0.12798 0.73013 0.0
C1614 C 0.7126 0.13229 0.70596 0.0
C1615 C 0.7122 0.13305 0.73971 0.0
C1616 C 0.73605 0.13818 0.73264 0.0
C1617 C 0.76057 0.14351 0.7086 0.0
C1618 C 0.76092 0.1431 0.69167 0.0
C1619 C 0.73654 0.13799 0.71579 0.0
C1620 C 0.73678 0.13673 0.682 0.0
C1621 C 0.71292 0.13156 0.68908 0.0
H1622 H 0.84407 0.53027 0.69609 0.0
H1623 H 0.91412 0.59993 0.72435 0.0
H1624 H 0.90455 0.63197 0.71062 0.0
H1625 H 0.87595 0.6402 0.69068 0.0
H1626 H 0.80311 0.5702 0.66495 0.0
H1627 H 0.81411 0.53829 0.67767 0.0
C1628 C 0.85705 0.55241 0.69954 0.0
C1629 C 0.87981 0.56248 0.71131 0.0
C1630 C 0.85095 0.57071 0.692 0.0
C1631 C 0.89672 0.59141 0.71516 0.0
C1632 C 0.89115 0.60982 0.7074 0.0
C1633 C 0.86228 0.61798 0.68808 0.0
C1634 C 0.83859 0.60757 0.67706 0.0
C1635 C 0.86828 0.5997 0.69582 0.0
C1636 C 0.82143 0.57872 0.67345 0.0
C1637 C 0.82768 0.56046 0.68073 0.0
H1638 H 0.44331 0.94519 0.15668 0.0
H1639 H 0.51773 0.94428 0.17098 0.0
H1640 H 0.53699 0.96393 0.14626 0.0
H1641 H 0.53265 0.981 0.12053 0.0
H1642 H 0.4577 0.98048 0.1055 0.0
H1643 H 0.43894 0.9623 0.13065 0.0
C1644 C 0.4638 0.9495 0.15439 0.0
C1645 C 0.47903 0.94318 0.16557 0.0
C1646 C 0.47469 0.96059 0.14005 0.0
C1647 C 0.50548 0.94865 0.16244 0.0
C1648 C 0.51655 0.95997 0.14834 0.0
C1649 C 0.51209 0.97665 0.12266 0.0
C1650 C 0.49664 0.98208 0.1111 0.0
C1651 C 0.50127 0.96583 0.13702 0.0
C1652 C 0.47023 0.97683 0.11425 0.0
C1653 C 0.45939 0.96627 0.1286 0.0
H1654 H 0.10206 0.55455 0.16537 0.0
H1655 H 0.02124 0.49027 0.1748 0.0
H1656 H 0.00457 0.48458 0.14626 0.0
H1657 H 0.01226 0.49967 0.11891 0.0
H1658 H 0.09261 0.56518 0.10983 0.0
H1659 H 0.11 0.56894 0.13803 0.0
C1660 C 0.08073 0.53941 0.16123 0.0
C1661 C 0.06292 0.52298 0.17227 0.0
C1662 C 0.07114 0.5366 0.14488 0.0
C1663 C 0.03551 0.50302 0.16657 0.0
C1664 C 0.02589 0.49988 0.15026 0.0
C1665 C 0.03366 0.51452 0.12307 0.0
C1666 C 0.05111 0.53218 0.11232 0.0
C1667 C 0.04345 0.51675 0.13934 0.0
C1668 C 0.0787 0.55157 0.11793 0.0
C1669 C 0.08867 0.55367 0.13402 0.0
H1670 H 0.4437 0.49761 0.16127 0.0
H1671 H 0.52532 0.55989 0.18261 0.0
H1672 H 0.54247 0.56411 0.15617 0.0
H1673 H 0.53466 0.55062 0.12697 0.0
H1674 H 0.45253 0.4914 0.105 0.0
H1675 H 0.43542 0.48565 0.13164 0.0
C1676 C 0.46518 0.51232 0.16017 0.0
C1677 C 0.48313 0.52811 0.17412 0.0
C1678 C 0.47494 0.51525 0.14475 0.0
C1679 C 0.51102 0.54683 0.17229 0.0
C1680 C 0.52088 0.54952 0.15709 0.0
C1681 C 0.51292 0.53673 0.12791 0.0
C1682 C 0.49503 0.52149 0.11388 0.0
C1683 C 0.50305 0.5339 0.14324 0.0
C1684 C 0.46699 0.50314 0.11553 0.0
C1685 C 0.4571 0.49995 0.13079 0.0
H1686 H 0.96236 0.51327 0.83879 0.0
H1687 H 0.96991 0.44235 0.82313 0.0
H1688 H 0.98446 0.44013 0.85082 0.0
H1689 H 0.99388 0.45729 0.87954 0.0
H1690 H 0.98295 0.52576 0.89578 0.0
H1691 H 0.97089 0.52989 0.86781 0.0
C1692 C 0.96696 0.49718 0.84143 0.0
C1693 C 0.96513 0.47813 0.82878 0.0
C1694 C 0.9747 0.49551 0.85751 0.0
C1695 C 0.97165 0.4577 0.83248 0.0
C1696 C 0.97974 0.45621 0.84837 0.0
C1697 C 0.98854 0.47292 0.87703 0.0
C1698 C 0.98922 0.49108 0.8898 0.0
C1699 C 0.98113 0.47485 0.86098 0.0
C1700 C 0.9829 0.51167 0.8862 0.0
C1701 C 0.97583 0.51394 0.87021 0.0
H1702 H 0.53678 0.44565 0.84806 0.0
H1703 H 0.51472 0.50548 0.83365 0.0
H1704 H 0.5018 0.50992 0.86072 0.0
H1705 H 0.49471 0.49528 0.88818 0.0
H1706 H 0.515 0.43412 0.90222 0.0
H1707 H 0.53 0.43126 0.8755 0.0
C1708 C 0.52895 0.45952 0.85076 0.0
C1709 C 0.52675 0.47517 0.83873 0.0
C1710 C 0.52099 0.46157 0.86628 0.0
C1711 C 0.51706 0.49345 0.84266 0.0
C1712 C 0.50942 0.49585 0.85813 0.0
C1713 C 0.50268 0.48154 0.88543 0.0
C1714 C 0.50368 0.4649 0.89717 0.0
C1715 C 0.5111 0.47986 0.87 0.0
C1716 C 0.51372 0.44691 0.89335 0.0
C1717 C 0.52241 0.44536 0.8781 0.0
H1718 H 0.51637 0.0239 0.84118 0.0
H1719 H 0.5696 0.1097 0.86025 0.0
H1720 H 0.55702 0.09791 0.8875 0.0
H1721 H 0.52906 0.06355 0.90571 0.0
H1722 H 0.47414 0.97828 0.88613 0.0
H1723 H 0.48912 0.98961 0.85931 0.0
C1724 C 0.52514 0.04008 0.85127 0.0
C1725 C 0.54376 0.06769 0.8486 0.0
C1726 C 0.51741 0.03327 0.86683 0.0
C1727 C 0.55542 0.08824 0.86193 0.0
C1728 C 0.54804 0.08155 0.87751 0.0
C1729 C 0.52027 0.04749 0.89555 0.0
C1730 C 0.50045 0.02011 0.89796 0.0
C1731 C 0.52874 0.0542 0.88007 0.0
C1732 C 0.48964 0.99945 0.8847 0.0
C1733 C 0.49808 0.00594 0.86932 0.0
H1734 H 0.15363 0.31379 0.5046 0.0
H1735 H 0.12531 0.22796 0.48854 0.0
H1736 H 0.1368 0.24 0.46125 0.0
H1737 H 0.15565 0.27496 0.44194 0.0
H1738 H 0.18316 0.36061 0.45773 0.0
H1739 H 0.17063 0.34848 0.48496 0.0
C1740 C 0.1496 0.29763 0.4951 0.0
C1741 C 0.13883 0.27002 0.49874 0.0
C1742 C 0.15608 0.30466 0.47933 0.0
C1743 C 0.13407 0.24947 0.48623 0.0
C1744 C 0.14049 0.2563 0.47056 0.0
C1745 C 0.159 0.29098 0.45136 0.0
C1746 C 0.17045 0.31867 0.44781 0.0
C1747 C 0.15176 0.28386 0.467 0.0
C1748 C 0.1742 0.33911 0.46009 0.0
C1749 C 0.16716 0.3322 0.4757 0.0
H1750 H 0.75692 0.87283 0.49945 0.0
H1751 H 0.67229 0.82126 0.50907 0.0
H1752 H 0.657 0.81646 0.48039 0.0
H1753 H 0.66735 0.82957 0.45288 0.0
H1754 H 0.7518 0.88246 0.44345 0.0
H1755 H 0.76742 0.88449 0.4718 0.0
C1756 C 0.73511 0.86061 0.49529 0.0
C1757 C 0.7158 0.84755 0.50644 0.0
C1758 C 0.7264 0.85836 0.47883 0.0
C1759 C 0.68766 0.83131 0.50076 0.0
C1760 C 0.67886 0.82873 0.48436 0.0
C1761 C 0.6892 0.84119 0.45699 0.0
C1762 C 0.70838 0.85595 0.44611 0.0
C1763 C 0.69801 0.84247 0.47333 0.0
C1764 C 0.73661 0.87121 0.45165 0.0
C1765 C 0.74555 0.87231 0.46783 0.0
H1766 H 0.11426 0.82996 0.49609 0.0
H1767 H 0.19747 0.8862 0.51773 0.0
H1768 H 0.21455 0.8892 0.49129 0.0
H1769 H 0.20627 0.87605 0.46208 0.0
H1770 H 0.12304 0.8224 0.43983 0.0
H1771 H 0.10573 0.81821 0.46641 0.0
C1772 C 0.13609 0.84307 0.49502 0.0
C1773 C 0.1545 0.85753 0.50902 0.0
C1774 C 0.14587 0.84516 0.47965 0.0
C1775 C 0.1828 0.87423 0.50731 0.0
C1776 C 0.19264 0.87619 0.49214 0.0
C1777 C 0.18428 0.86373 0.46296 0.0
C1778 C 0.16606 0.8496 0.44889 0.0
C1779 C 0.1744 0.86175 0.47824 0.0
C1780 C 0.13767 0.83323 0.45042 0.0
C1781 C 0.12769 0.83096 0.46563 0.0
H1782 H 0.6157 0.83976 0.1707 0.0
H1783 H 0.61843 0.76588 0.15554 0.0
H1784 H 0.63067 0.76225 0.18344 0.0
H1785 H 0.64022 0.77958 0.21213 0.0
H1786 H 0.63511 0.85182 0.22786 0.0
H1787 H 0.62427 0.85657 0.19977 0.0
C1788 C 0.61875 0.82274 0.17351 0.0
C1789 C 0.61632 0.80327 0.16096 0.0
C1790 C 0.6254 0.82047 0.18969 0.0
C1791 C 0.6207 0.78153 0.16485 0.0
C1792 C 0.62749 0.77928 0.18085 0.0
C1793 C 0.6364 0.79618 0.20947 0.0
C1794 C 0.63837 0.81522 0.22213 0.0
C1795 C 0.62983 0.79857 0.19336 0.0
C1796 C 0.63401 0.83701 0.21836 0.0
C1797 C 0.62764 0.83965 0.2023 0.0
H1798 H 0.22656 0.84437 0.18237 0.0
H1799 H 0.14263 0.7906 0.16155 0.0
H1800 H 0.12614 0.78972 0.18822 0.0
H1801 H 0.13561 0.80283 0.21745 0.0
H1802 H 0.21975 0.85367 0.23894 0.0
H1803 H 0.23607 0.85759 0.21208 0.0
C1804 C 0.20468 0.83277 0.18374 0.0
C1805 C 0.18575 0.81765 0.1701 0.0
C1806 C 0.1954 0.83179 0.19921 0.0
C1807 C 0.15748 0.80237 0.17194 0.0
C1808 C 0.14808 0.80184 0.18716 0.0
C1809 C 0.15756 0.81454 0.21634 0.0
C1810 C 0.17635 0.82779 0.2303 0.0
C1811 C 0.16687 0.81615 0.20091 0.0
C1812 C 0.2047 0.84348 0.22846 0.0
C1813 C 0.21411 0.84558 0.21308 0.0
H1814 H 0.1716 0.40519 0.18389 0.0
H1815 H 0.23814 0.38776 0.18676 0.0
H1816 H 0.22593 0.37051 0.21315 0.0
H1817 H 0.19497 0.35848 0.23484 0.0
H1818 H 0.1286 0.37619 0.2319 0.0
H1819 H 0.14215 0.39535 0.20614 0.0
C1820 C 0.1834 0.39759 0.19031 0.0
C1821 C 0.20558 0.39752 0.18335 0.0
C1822 C 0.17627 0.38774 0.20544 0.0
C1823 C 0.22105 0.38812 0.19191 0.0
C1824 C 0.21399 0.37813 0.20695 0.0
C1825 C 0.18351 0.36655 0.22853 0.0
C1826 C 0.16072 0.36577 0.2352 0.0
C1827 C 0.19143 0.37754 0.21373 0.0
C1828 C 0.14631 0.37671 0.22706 0.0
C1829 C 0.15396 0.38753 0.2123 0.0
H1830 H 0.775 0.61616 0.83102 0.0
H1831 H 0.84979 0.61414 0.84209 0.0
H1832 H 0.8644 0.62877 0.81563 0.0
H1833 H 0.85643 0.64275 0.7895 0.0
H1834 H 0.78135 0.64396 0.77785 0.0
H1835 H 0.76666 0.62956 0.80442 0.0
C1836 C 0.79454 0.61907 0.82764 0.0
C1837 C 0.81119 0.61391 0.8385 0.0
C1838 C 0.80285 0.62744 0.81232 0.0
C1839 C 0.83638 0.61757 0.83389 0.0
C1840 C 0.84483 0.62607 0.81878 0.0
C1841 C 0.83666 0.63951 0.79265 0.0
C1842 C 0.82006 0.64445 0.78163 0.0
C1843 C 0.82822 0.631 0.80788 0.0
C1844 C 0.79476 0.64067 0.78613 0.0
C1845 C 0.78625 0.63229 0.80131 0.0
H1846 H 0.39779 0.16689 0.83164 0.0
H1847 H 0.38218 0.23293 0.84588 0.0
H1848 H 0.36834 0.2341 0.81772 0.0
H1849 H 0.36138 0.21703 0.78914 0.0
H1850 H 0.37923 0.15275 0.77426 0.0
H1851 H 0.39094 0.1498 0.80256 0.0
C1852 C 0.39117 0.18136 0.82852 0.0
C1853 C 0.3911 0.19989 0.84075 0.0
C1854 C 0.38363 0.18222 0.81222 0.0
C1855 C 0.38266 0.21869 0.83661 0.0
C1856 C 0.37469 0.21932 0.82054 0.0
C1857 C 0.36816 0.20259 0.79202 0.0
C1858 C 0.36956 0.18528 0.77953 0.0
C1859 C 0.37536 0.20139 0.80824 0.0
C1860 C 0.3777 0.16618 0.7836 0.0
C1861 C 0.38457 0.16459 0.79979 0.0
H1862 H 0.77827 0.16832 0.82614 0.0
H1863 H 0.85722 0.23762 0.84617 0.0
H1864 H 0.87497 0.24006 0.81996 0.0
H1865 H 0.86822 0.22316 0.79125 0.0
H1866 H 0.78917 0.15503 0.77067 0.0
H1867 H 0.77116 0.15202 0.79705 0.0
C1868 C 0.79928 0.18411 0.82476 0.0
C1869 C 0.8164 0.20252 0.83825 0.0
C1870 C 0.80934 0.18576 0.8095 0.0
C1871 C 0.84369 0.2227 0.83617 0.0
C1872 C 0.85385 0.2243 0.82112 0.0
C1873 C 0.84711 0.2075 0.79257 0.0
C1874 C 0.83013 0.18926 0.77905 0.0
C1875 C 0.83691 0.20593 0.80772 0.0
C1876 C 0.80264 0.16944 0.78088 0.0
C1877 C 0.79237 0.16763 0.79597 0.0
H1878 H 0.29826 0.11895 0.4964 0.0
H1879 H 0.30789 0.20049 0.5047 0.0
H1880 H 0.3173 0.20088 0.53382 0.0
H1881 H 0.32221 0.17769 0.55693 0.0
H1882 H 0.31439 0.09694 0.54818 0.0
H1883 H 0.30484 0.09667 0.51921 0.0
C1884 C 0.30284 0.13703 0.50453 0.0
C1885 C 0.30245 0.15969 0.49835 0.0
C1886 C 0.30837 0.13717 0.5212 0.0
C1887 C 0.3078 0.18265 0.50914 0.0
C1888 C 0.31329 0.18293 0.52579 0.0
C1889 C 0.3187 0.16016 0.54867 0.0
C1890 C 0.31884 0.13729 0.55478 0.0
C1891 C 0.31354 0.16026 0.53195 0.0
C1892 C 0.31388 0.11459 0.54389 0.0
C1893 C 0.30863 0.11449 0.52729 0.0
H1894 H 0.85564 0.16372 0.50442 0.0
H1895 H 0.88615 0.1081 0.51326 0.0
H1896 H 0.87597 0.10827 0.5414 0.0
H1897 H 0.85654 0.1226 0.56321 0.0
H1898 H 0.82647 0.17856 0.55449 0.0
H1899 H 0.83895 0.1804 0.52672 0.0
C1900 C 0.86053 0.15203 0.51256 0.0
C1901 C 0.87142 0.13572 0.50666 0.0
C1902 C 0.85466 0.15224 0.52876 0.0
C1903 C 0.87731 0.12043 0.51738 0.0
C1904 C 0.87159 0.1206 0.5335 0.0
C1905 C 0.85273 0.13518 0.55521 0.0
C1906 C 0.84044 0.15027 0.56085 0.0
C1907 C 0.85985 0.13606 0.53925 0.0
C1908 C 0.83606 0.16688 0.55046 0.0
C1909 C 0.84305 0.16783 0.53455 0.0
H1910 H 0.83695 0.731 0.50982 0.0
H1911 H 0.90627 0.71778 0.51221 0.0
H1912 H 0.89826 0.70511 0.53984 0.0
H1913 H 0.87077 0.69668 0.56311 0.0
H1914 H 0.80093 0.70914 0.56028 0.0
H1915 H 0.81003 0.72331 0.5331 0.0
C1916 C 0.8502 0.72515 0.51634 0.0
C1917 C 0.87206 0.72516 0.50891 0.0
C1918 C 0.84543 0.71783 0.53218 0.0
C1919 C 0.88939 0.71811 0.51767 0.0
C1920 C 0.88474 0.71074 0.53345 0.0
C1921 C 0.85749 0.70241 0.55652 0.0
C1922 C 0.8352 0.70184 0.56377 0.0
C1923 C 0.86271 0.71036 0.54079 0.0
C1924 C 0.81845 0.70973 0.55512 0.0
C1925 C 0.82351 0.71765 0.53951 0.0
loop_
_geom_bond_atom_site_label_1
_geom_bond_atom_site_label_2
_geom_bond_distance
_geom_bond_site_symmetry_2
_ccdc_geom_bond_type
C0 C1 1.386 . S
C0 C2 1.397 . S
C0 H24 0.931 . S
C1 C0 1.386 . S
C1 C5 1.397 . S
C2 C0 1.397 . S
C2 C3 1.384 . S
C2 H25 0.930 . S
C3 C2 1.384 . S
C3 C4 1.377 . S
C3 C6 1.481 . S
C4 C3 1.377 . S
C4 C5 1.389 . S
C4 H26 0.929 . S
C5 C1 1.397 . S
C5 C4 1.389 . S
C5 H27 0.931 . S
C6 C3 1.481 . S
C6 C7 1.387 . S
C6 C11 1.390 . S
C7 C6 1.387 . S
C7 C8 1.401 . S
C7 H28 0.930 . S
C8 C7 1.401 . S
C8 C9 1.376 . S
C8 C17 1.511 . S
C9 C8 1.376 . S
C9 C10 1.392 . S
C9 H30 0.931 . S
C10 C9 1.392 . S
C10 C11 1.361 . S
C10 C12 1.500 . S
C11 C6 1.390 . S
C11 C10 1.361 . S
C11 H29 0.931 . S
C12 C10 1.500 . S
C12 C13 1.371 . S
C12 C14 1.365 . S
C13 C12 1.371 . S
C13 C23 1.386 . S
C13 H31 0.931 . S
C14 C12 1.365 . S
C14 C15 1.409 . S
C14 H32 0.929 . S
C15 C14 1.409 . S
C15 C16 1.380 . S
C15 H33 0.930 . S
C16 C15 1.380 . S
C16 C23 1.357 . S
C17 C8 1.511 . S
C17 C18 1.341 . S
C17 C19 1.371 . S
C18 C17 1.341 . S
C18 C22 1.394 . S
C18 H34 0.930 . S
C19 C17 1.371 . S
C19 C20 1.392 . S
C19 H35 0.931 . S
C20 C19 1.392 . S
C20 C21 1.331 . S
C20 H38 0.932 . S
C21 C20 1.331 . S
C21 C22 1.336 . S
C22 C18 1.394 . S
C22 C21 1.336 . S
C22 H37 0.929 . S
C23 C13 1.386 . S
C23 C16 1.357 . S
C23 H36 0.928 . S
H24 C0 0.931 . S
H25 C2 0.930 . S
H26 C4 0.929 . S
H27 C5 0.931 . S
H28 C7 0.930 . S
H29 C11 0.931 . S
H30 C9 0.931 . S
H31 C13 0.931 . S
H32 C14 0.929 . S
H33 C15 0.930 . S
H34 C18 0.930 . S
H35 C19 0.931 . S
H36 C23 0.928 . S
H37 C22 0.929 . S
H38 C20 0.932 . S
C39 C40 1.386 . S
C39 C41 1.397 . S
C39 H63 0.931 . S
C40 C39 1.386 . S
C40 C44 1.397 . S
C41 C39 1.397 . S
C41 C42 1.384 . S
C41 H64 0.930 . S
C42 C41 1.384 . S
C42 C43 1.377 . S
C42 C45 1.481 . S
C43 C42 1.377 . S
C43 C44 1.389 . S
C43 H65 0.929 . S
C44 C40 1.397 . S
C44 C43 1.389 . S
C44 H66 0.931 . S
C45 C42 1.481 . S
C45 C46 1.387 . S
C45 C50 1.390 . S
C46 C45 1.387 . S
C46 C47 1.401 . S
C46 H67 0.930 . S
C47 C46 1.401 . S
C47 C48 1.376 . S
C47 C56 1.511 . S
C48 C47 1.376 . S
C48 C49 1.392 . S
C48 H69 0.931 . S
C49 C48 1.392 . S
C49 C50 1.361 . S
C49 C51 1.500 . S
C50 C45 1.390 . S
C50 C49 1.361 . S
C50 H68 0.931 . S
C51 C49 1.500 . S
C51 C52 1.371 . S
C51 C53 1.365 . S
C52 C51 1.371 . S
C52 C62 1.386 . S
C52 H70 0.931 . S
C53 C51 1.365 . S
C53 C54 1.409 . S
C53 H71 0.929 . S
C54 C53 1.409 . S
C54 C55 1.380 . S
C54 H72 0.930 . S
C55 C54 1.380 . S
C55 C62 1.357 . S
C56 C47 1.511 . S
C56 C57 1.341 . S
C56 C58 1.371 . S
C57 C56 1.341 . S
C57 C61 1.394 . S
C57 H73 0.930 . S
C58 C56 1.371 . S
C58 C59 1.392 . S
C58 H74 0.931 . S
C59 C58 1.392 . S
C59 C60 1.331 . S
C59 H77 0.932 . S
C60 C59 1.331 . S
C60 C61 1.336 . S
C61 C57 1.394 . S
C61 C60 1.336 . S
C61 H76 0.929 . S
C62 C52 1.386 . S
C62 C55 1.357 . S
C62 H75 0.928 . S
H63 C39 0.931 . S
H64 C41 0.930 . S
H65 C43 0.929 . S
H66 C44 0.931 . S
H67 C46 0.930 . S
H68 C50 0.931 . S
H69 C48 0.931 . S
H70 C52 0.931 . S
H71 C53 0.929 . S
H72 C54 0.930 . S
H73 C57 0.930 . S
H74 C58 0.931 . S
H75 C62 0.928 . S
H76 C61 0.929 . S
H77 C59 0.932 . S
C78 C79 1.386 . S
C78 C80 1.397 . S
C78 H102 0.931 . S
C79 C78 1.386 . S
C79 C83 1.397 . S
C80 C78 1.397 . S
C80 C81 1.384 . S
C80 H103 0.930 . S
C81 C80 1.384 . S
C81 C82 1.377 . S
C81 C84 1.481 . S
C82 C81 1.377 . S
C82 C83 1.389 . S
C82 H104 0.929 . S
C83 C79 1.397 . S
C83 C82 1.389 . S
C83 H105 0.931 . S
C84 C81 1.481 . S
C84 C85 1.387 . S
C84 C89 1.390 . S
C85 C84 1.387 . S
C85 C86 1.401 . S
C85 H106 0.930 . S
C86 C85 1.401 . S
C86 C87 1.376 . S
C86 C95 1.511 . S
C87 C86 1.376 . S
C87 C88 1.392 . S
C87 H108 0.931 . S
C88 C87 1.392 . S
C88 C89 1.361 . S
C88 C90 1.500 . S
C89 C84 1.390 . S
C89 C88 1.361 . S
C89 H107 0.931 . S
C90 C88 1.500 . S
C90 C91 1.371 . S
C90 C92 1.365 . S
C91 C90 1.371 . S
C91 C101 1.386 . S
C91 H109 0.931 . S
C92 C90 1.365 . S
C92 C93 1.409 . S
C92 H110 0.929 . S
C93 C92 1.409 . S
C93 C94 1.380 . S
C93 H111 0.930 . S
C94 C93 1.380 . S
C94 C101 1.357 . S
C95 C86 1.511 . S
C95 C96 1.341 . S
C95 C97 1.371 . S
C96 C95 1.341 . S
C96 C100 1.394 . S
C96 H112 0.930 . S
C97 C95 1.371 . S
C97 C98 1.392 . S
C97 H113 0.931 . S
C98 C97 1.392 . S
C98 C99 1.331 . S
C98 H116 0.932 . S
C99 C98 1.331 . S
C99 C100 1.336 . S
C100 C96 1.394 . S
C100 C99 1.336 . S
C100 H115 0.929 . S
C101 C91 1.386 . S
C101 C94 1.357 . S
C101 H114 0.928 . S
H102 C78 0.931 . S
H103 C80 0.930 . S
H104 C82 0.929 . S
H105 C83 0.931 . S
H106 C85 0.930 . S
H107 C89 0.931 . S
H108 C87 0.931 . S
H109 C91 0.931 . S
H110 C92 0.929 . S
H111 C93 0.930 . S
H112 C96 0.930 . S
H113 C97 0.931 . S
H114 C101 0.928 . S
H115 C100 0.929 . S
H116 C98 0.932 . S
C117 C118 1.386 . S
C117 C119 1.397 . S
C117 H141 0.931 . S
C118 C117 1.386 . S
C118 C122 1.397 . S
C119 C117 1.397 . S
C119 C120 1.384 . S
C119 H142 0.930 . S
C120 C119 1.384 . S
C120 C121 1.377 . S
C120 C123 1.481 . S
C121 C120 1.377 . S
C121 C122 1.389 . S
C121 H143 0.929 . S
C122 C118 1.397 . S
C122 C121 1.389 . S
C122 H144 0.931 . S
C123 C120 1.481 . S
C123 C124 1.387 . S
C123 C128 1.390 . S
C124 C123 1.387 . S
C124 C125 1.401 . S
C124 H145 0.930 . S
C125 C124 1.401 . S
C125 C126 1.376 . S
C125 C134 1.511 . S
C126 C125 1.376 . S
C126 C127 1.392 . S
C126 H147 0.931 . S
C127 C126 1.392 . S
C127 C128 1.361 . S
C127 C129 1.500 . S
C128 C123 1.390 . S
C128 C127 1.361 . S
C128 H146 0.931 . S
C129 C127 1.500 . S
C129 C130 1.371 . S
C129 C131 1.365 . S
C130 C129 1.371 . S
C130 C140 1.386 . S
C130 H148 0.931 . S
C131 C129 1.365 . S
C131 C132 1.409 . S
C131 H149 0.929 . S
C132 C131 1.409 . S
C132 C133 1.380 . S
C132 H150 0.930 . S
C133 C132 1.380 . S
C133 C140 1.357 . S
C134 C125 1.511 . S
C134 C135 1.341 . S
C134 C136 1.371 . S
C135 C134 1.341 . S
C135 C139 1.394 . S
C135 H151 0.930 . S
C136 C134 1.371 . S
C136 C137 1.392 . S
C136 H152 0.931 . S
C137 C136 1.392 . S
C137 C138 1.331 . S
C137 H155 0.932 . S
C138 C137 1.331 . S
C138 C139 1.336 . S
C139 C135 1.394 . S
C139 C138 1.336 . S
C139 H154 0.929 . S
C140 C130 1.386 . S
C140 C133 1.357 . S
C140 H153 0.928 . S
H141 C117 0.931 . S
H142 C119 0.930 . S
H143 C121 0.929 . S
H144 C122 0.931 . S
H145 C124 0.930 . S
H146 C128 0.931 . S
H147 C126 0.931 . S
H148 C130 0.931 . S
H149 C131 0.929 . S
H150 C132 0.930 . S
H151 C135 0.930 . S
H152 C136 0.931 . S
H153 C140 0.928 . S
H154 C139 0.929 . S
H155 C137 0.932 . S
C156 C157 1.386 . S
C156 C158 1.397 . S
C156 H180 0.931 . S
C157 C156 1.386 . S
C157 C161 1.397 . S
C158 C156 1.397 . S
C158 C159 1.384 . S
C158 H181 0.930 . S
C159 C158 1.384 . S
C159 C160 1.377 . S
C159 C162 1.481 . S
C160 C159 1.377 . S
C160 C161 1.389 . S
C160 H182 0.929 . S
C161 C157 1.397 . S
C161 C160 1.389 . S
C161 H183 0.931 . S
C162 C159 1.481 . S
C162 C163 1.387 . S
C162 C167 1.390 . S
C163 C162 1.387 . S
C163 C164 1.401 . S
C163 H184 0.930 . S
C164 C163 1.401 . S
C164 C165 1.376 . S
C164 C173 1.511 . S
C165 C164 1.376 . S
C165 C166 1.392 . S
C165 H186 0.931 . S
C166 C165 1.392 . S
C166 C167 1.361 . S
C166 C168 1.500 . S
C167 C162 1.390 . S
C167 C166 1.361 . S
C167 H185 0.931 . S
C168 C166 1.500 . S
C168 C169 1.371 . S
C168 C170 1.365 . S
C169 C168 1.371 . S
C169 C179 1.386 . S
C169 H187 0.931 . S
C170 C168 1.365 . S
C170 C171 1.409 . S
C170 H188 0.929 . S
C171 C170 1.409 . S
C171 C172 1.380 . S
C171 H189 0.930 . S
C172 C171 1.380 . S
C172 C179 1.357 . S
C173 C164 1.511 . S
C173 C174 1.341 . S
C173 C175 1.371 . S
C174 C173 1.341 . S
C174 C178 1.394 . S
C174 H190 0.930 . S
C175 C173 1.371 . S
C175 C176 1.392 . S
C175 H191 0.931 . S
C176 C175 1.392 . S
C176 C177 1.331 . S
C176 H194 0.932 . S
C177 C176 1.331 . S
C177 C178 1.336 . S
C178 C174 1.394 . S
C178 C177 1.336 . S
C178 H193 0.929 . S
C179 C169 1.386 . S
C179 C172 1.357 . S
C179 H192 0.928 . S
H180 C156 0.931 . S
H181 C158 0.930 . S
H182 C160 0.929 . S
H183 C161 0.931 . S
H184 C163 0.930 . S
H185 C167 0.931 . S
H186 C165 0.931 . S
H187 C169 0.931 . S
H188 C170 0.929 . S
H189 C171 0.930 . S
H190 C174 0.930 . S
H191 C175 0.931 . S
H192 C179 0.928 . S
H193 C178 0.929 . S
H194 C176 0.932 . S
C195 C196 1.386 . S
C195 C197 1.397 . S
C195 H219 0.931 . S
C196 C195 1.386 . S
C196 C200 1.397 . S
C197 C195 1.397 . S
C197 C198 1.384 . S
C197 H220 0.930 . S
C198 C197 1.384 . S
C198 C199 1.377 . S
C198 C201 1.481 . S
C199 C198 1.377 . S
C199 C200 1.389 . S
C199 H221 0.929 . S
C200 C196 1.397 . S
C200 C199 1.389 . S
C200 H222 0.931 . S
C201 C198 1.481 . S
C201 C202 1.387 . S
C201 C206 1.390 . S
C202 C201 1.387 . S
C202 C203 1.401 . S
C202 H223 0.930 . S
C203 C202 1.401 . S
C203 C204 1.376 . S
C203 C212 1.511 . S
C204 C203 1.376 . S
C204 C205 1.392 . S
C204 H225 0.931 . S
C205 C204 1.392 . S
C205 C206 1.361 . S
C205 C207 1.500 . S
C206 C201 1.390 . S
C206 C205 1.361 . S
C206 H224 0.931 . S
C207 C205 1.500 . S
C207 C208 1.371 . S
C207 C209 1.365 . S
C208 C207 1.371 . S
C208 C218 1.386 . S
C208 H226 0.931 . S
C209 C207 1.365 . S
C209 C210 1.409 . S
C209 H227 0.929 . S
C210 C209 1.409 . S
C210 C211 1.380 . S
C210 H228 0.930 . S
C211 C210 1.380 . S
C211 C218 1.357 . S
C212 C203 1.511 . S
C212 C213 1.341 . S
C212 C214 1.371 . S
C213 C212 1.341 . S
C213 C217 1.394 . S
C213 H229 0.930 . S
C214 C212 1.371 . S
C214 C215 1.392 . S
C214 H230 0.931 . S
C215 C214 1.392 . S
C215 C216 1.331 . S
C215 H233 0.932 . S
C216 C215 1.331 . S
C216 C217 1.336 . S
C217 C213 1.394 . S
C217 C216 1.336 . S
C217 H232 0.929 . S
C218 C208 1.386 . S
C218 C211 1.357 . S
C218 H231 0.928 . S
H219 C195 0.931 . S
H220 C197 0.930 . S
H221 C199 0.929 . S
H222 C200 0.931 . S
H223 C202 0.930 . S
H224 C206 0.931 . S
H225 C204 0.931 . S
H226 C208 0.931 . S
H227 C209 0.929 . S
H228 C210 0.930 . S
H229 C213 0.930 . S
H230 C214 0.931 . S
H231 C218 0.928 . S
H232 C217 0.929 . S
H233 C215 0.932 . S
C234 C235 1.386 . S
C234 C236 1.397 . S
C234 H258 0.931 . S
C235 C234 1.386 . S
C235 C239 1.397 1_655 S
C236 C234 1.397 . S
C236 C237 1.384 . S
C236 H259 0.930 . S
C237 C236 1.384 . S
C237 C238 1.377 . S
C237 C240 1.481 . S
C238 C237 1.377 . S
C238 C239 1.389 1_655 S
C238 H260 0.929 1_655 S
C239 C235 1.397 1_455 S
C239 C238 1.389 1_455 S
C239 H261 0.931 . S
C240 C237 1.481 . S
C240 C241 1.387 . S
C240 C245 1.390 . S
C241 C240 1.387 . S
C241 C242 1.401 . S
C241 H262 0.930 . S
C242 C241 1.401 . S
C242 C243 1.376 . S
C242 C251 1.511 . S
C243 C242 1.376 . S
C243 C244 1.392 . S
C243 H264 0.931 . S
C244 C243 1.392 . S
C244 C245 1.361 . S
C244 C246 1.500 . S
C245 C240 1.390 . S
C245 C244 1.361 . S
C245 H263 0.931 . S
C246 C244 1.500 . S
C246 C247 1.371 . S
C246 C248 1.365 . S
C247 C246 1.371 . S
C247 C257 1.386 . S
C247 H265 0.931 . S
C248 C246 1.365 . S
C248 C249 1.409 . S
C248 H266 0.929 . S
C249 C248 1.409 . S
C249 C250 1.380 . S
C249 H267 0.930 . S
C250 C249 1.380 . S
C250 C257 1.357 . S
C251 C242 1.511 . S
C251 C252 1.341 . S
C251 C253 1.371 . S
C252 C251 1.341 . S
C252 C256 1.394 . S
C252 H268 0.930 . S
C253 C251 1.371 . S
C253 C254 1.392 . S
C253 H269 0.931 . S
C254 C253 1.392 . S
C254 C255 1.331 . S
C254 H272 0.932 . S
C255 C254 1.331 . S
C255 C256 1.336 . S
C256 C252 1.394 . S
C256 C255 1.336 . S
C256 H271 0.929 . S
C257 C247 1.386 . S
C257 C250 1.357 . S
C257 H270 0.928 . S
H258 C234 0.931 . S
H259 C236 0.930 . S
H260 C238 0.929 1_455 S
H261 C239 0.931 . S
H262 C241 0.930 . S
H263 C245 0.931 . S
H264 C243 0.931 . S
H265 C247 0.931 . S
H266 C248 0.929 . S
H267 C249 0.930 . S
H268 C252 0.930 . S
H269 C253 0.931 . S
H270 C257 0.928 . S
H271 C256 0.929 . S
H272 C254 0.932 . S
C273 C274 1.386 . S
C273 C275 1.397 . S
C273 H297 0.931 . S
C274 C273 1.386 . S
C274 C278 1.397 . S
C275 C273 1.397 . S
C275 C276 1.384 . S
C275 H298 0.930 . S
C276 C275 1.384 . S
C276 C277 1.377 . S
C276 C279 1.481 . S
C277 C276 1.377 . S
C277 C278 1.389 . S
C277 H299 0.929 . S
C278 C274 1.397 . S
C278 C277 1.389 . S
C278 H300 0.931 . S
C279 C276 1.481 . S
C279 C280 1.387 . S
C279 C284 1.390 . S
C280 C279 1.387 . S
C280 C281 1.401 . S
C280 H301 0.930 . S
C281 C280 1.401 . S
C281 C282 1.376 . S
C281 C290 1.511 . S
C282 C281 1.376 . S
C282 C283 1.392 . S
C282 H303 0.931 . S
C283 C282 1.392 . S
C283 C284 1.361 . S
C283 C285 1.500 . S
C284 C279 1.390 . S
C284 C283 1.361 . S
C284 H302 0.931 . S
C285 C283 1.500 . S
C285 C286 1.371 . S
C285 C287 1.365 . S
C286 C285 1.371 . S
C286 C296 1.386 . S
C286 H304 0.931 . S
C287 C285 1.365 . S
C287 C288 1.409 . S
C287 H305 0.929 . S
C288 C287 1.409 . S
C288 C289 1.380 . S
C288 H306 0.930 . S
C289 C288 1.380 . S
C289 C296 1.357 . S
C290 C281 1.511 . S
C290 C291 1.341 . S
C290 C292 1.371 . S
C291 C290 1.341 . S
C291 C295 1.394 . S
C291 H307 0.930 . S
C292 C290 1.371 . S
C292 C293 1.392 . S
C292 H308 0.931 . S
C293 C292 1.392 . S
C293 C294 1.331 . S
C293 H311 0.932 . S
C294 C293 1.331 . S
C294 C295 1.336 . S
C295 C291 1.394 . S
C295 C294 1.336 . S
C295 H310 0.929 . S
C296 C286 1.386 . S
C296 C289 1.357 . S
C296 H309 0.928 . S
H297 C273 0.931 . S
H298 C275 0.930 . S
H299 C277 0.929 . S
H300 C278 0.931 . S
H301 C280 0.930 . S
H302 C284 0.931 . S
H303 C282 0.931 . S
H304 C286 0.931 . S
H305 C287 0.929 . S
H306 C288 0.930 . S
H307 C291 0.930 . S
H308 C292 0.931 . S
H309 C296 0.928 . S
H310 C295 0.929 . S
H311 C293 0.932 . S
C312 C313 1.386 . S
C312 C314 1.397 . S
C312 H336 0.931 . S
C313 C312 1.386 . S
C313 C317 1.397 . S
C314 C312 1.397 . S
C314 C315 1.384 . S
C314 H337 0.930 . S
C315 C314 1.384 . S
C315 C316 1.377 . S
C315 C318 1.481 . S
C316 C315 1.377 . S
C316 C317 1.389 . S
C316 H338 0.929 . S
C317 C313 1.397 . S
C317 C316 1.389 . S
C317 H339 0.931 . S
C318 C315 1.481 . S
C318 C319 1.387 . S
C318 C323 1.390 . S
C319 C318 1.387 . S
C319 C320 1.401 . S
C319 H340 0.930 . S
C320 C319 1.401 . S
C320 C321 1.376 . S
C320 C329 1.511 . S
C321 C320 1.376 . S
C321 C322 1.392 . S
C321 H342 0.931 . S
C322 C321 1.392 . S
C322 C323 1.361 . S
C322 C324 1.500 . S
C323 C318 1.390 . S
C323 C322 1.361 . S
C323 H341 0.931 . S
C324 C322 1.500 . S
C324 C325 1.371 . S
C324 C326 1.365 . S
C325 C324 1.371 . S
C325 C335 1.386 . S
C325 H343 0.931 . S
C326 C324 1.365 . S
C326 C327 1.409 . S
C326 H344 0.929 . S
C327 C326 1.409 . S
C327 C328 1.380 . S
C327 H345 0.930 . S
C328 C327 1.380 . S
C328 C335 1.357 . S
C329 C320 1.511 . S
C329 C330 1.341 . S
C329 C331 1.371 . S
C330 C329 1.341 . S
C330 C334 1.394 . S
C330 H346 0.930 . S
C331 C329 1.371 . S
C331 C332 1.392 . S
C331 H347 0.931 . S
C332 C331 1.392 . S
C332 C333 1.331 . S
C332 H350 0.932 . S
C333 C332 1.331 . S
C333 C334 1.336 . S
C334 C330 1.394 . S
C334 C333 1.336 . S
C334 H349 0.929 . S
C335 C325 1.386 . S
C335 C328 1.357 . S
C335 H348 0.928 . S
H336 C312 0.931 . S
H337 C314 0.930 . S
H338 C316 0.929 . S
H339 C317 0.931 . S
H340 C319 0.930 . S
H341 C323 0.931 . S
H342 C321 0.931 . S
H343 C325 0.931 . S
H344 C326 0.929 . S
H345 C327 0.930 . S
H346 C330 0.930 . S
H347 C331 0.931 . S
H348 C335 0.928 . S
H349 C334 0.929 . S
H350 C332 0.932 . S
C351 C352 1.386 . S
C351 C353 1.397 . S
C351 H375 0.931 . S
C352 C351 1.386 . S
C352 C356 1.397 . S
C353 C351 1.397 . S
C353 C354 1.384 . S
C353 H376 0.930 . S
C354 C353 1.384 . S
C354 C355 1.377 . S
C354 C357 1.481 . S
C355 C354 1.377 . S
C355 C356 1.389 . S
C355 H377 0.929 . S
C356 C352 1.397 . S
C356 C355 1.389 . S
C356 H378 0.931 . S
C357 C354 1.481 . S
C357 C358 1.387 . S
C357 C362 1.390 . S
C358 C357 1.387 . S
C358 C359 1.401 . S
C358 H379 0.930 . S
C359 C358 1.401 . S
C359 C360 1.376 . S
C359 C368 1.511 . S
C360 C359 1.376 . S
C360 C361 1.392 . S
C360 H381 0.931 . S
C361 C360 1.392 . S
C361 C362 1.361 . S
C361 C363 1.500 . S
C362 C357 1.390 . S
C362 C361 1.361 . S
C362 H380 0.931 . S
C363 C361 1.500 . S
C363 C364 1.371 . S
C363 C365 1.365 . S
C364 C363 1.371 . S
C364 C374 1.386 . S
C364 H382 0.931 . S
C365 C363 1.365 . S
C365 C366 1.409 . S
C365 H383 0.929 . S
C366 C365 1.409 . S
C366 C367 1.380 . S
C366 H384 0.930 . S
C367 C366 1.380 . S
C367 C374 1.357 . S
C368 C359 1.511 . S
C368 C369 1.341 . S
C368 C370 1.371 . S
C369 C368 1.341 . S
C369 C373 1.394 . S
C369 H385 0.930 . S
C370 C368 1.371 . S
C370 C371 1.392 . S
C370 H386 0.931 . S
C371 C370 1.392 . S
C371 C372 1.331 . S
C371 H389 0.932 . S
C372 C371 1.331 . S
C372 C373 1.336 . S
C373 C369 1.394 . S
C373 C372 1.336 . S
C373 H388 0.929 . S
C374 C364 1.386 . S
C374 C367 1.357 . S
C374 H387 0.928 . S
H375 C351 0.931 . S
H376 C353 0.930 . S
H377 C355 0.929 . S
H378 C356 0.931 . S
H379 C358 0.930 . S
H380 C362 0.931 . S
H381 C360 0.931 . S
H382 C364 0.931 . S
H383 C365 0.929 . S
H384 C366 0.930 . S
H385 C369 0.930 . S
H386 C370 0.931 . S
H387 C374 0.928 . S
H388 C373 0.929 . S
H389 C371 0.932 . S
C390 C391 1.386 . S
C390 C392 1.397 . S
C390 H414 0.931 . S
C391 C390 1.386 . S
C391 C395 1.397 . S
C392 C390 1.397 . S
C392 C393 1.384 . S
C392 H415 0.930 . S
C393 C392 1.384 . S
C393 C394 1.377 . S
C393 C396 1.481 . S
C394 C393 1.377 . S
C394 C395 1.389 . S
C394 H416 0.929 . S
C395 C391 1.397 . S
C395 C394 1.389 . S
C395 H417 0.931 . S
C396 C393 1.481 . S
C396 C397 1.387 . S
C396 C401 1.390 . S
C397 C396 1.387 . S
C397 C398 1.401 . S
C397 H418 0.930 . S
C398 C397 1.401 . S
C398 C399 1.376 . S
C398 C407 1.511 . S
C399 C398 1.376 . S
C399 C400 1.392 . S
C399 H420 0.931 . S
C400 C399 1.392 . S
C400 C401 1.361 . S
C400 C402 1.500 . S
C401 C396 1.390 . S
C401 C400 1.361 . S
C401 H419 0.931 . S
C402 C400 1.500 . S
C402 C403 1.371 . S
C402 C404 1.365 . S
C403 C402 1.371 . S
C403 C413 1.386 . S
C403 H421 0.931 . S
C404 C402 1.365 . S
C404 C405 1.409 . S
C404 H422 0.929 . S
C405 C404 1.409 . S
C405 C406 1.380 . S
C405 H423 0.930 . S
C406 C405 1.380 . S
C406 C413 1.357 . S
C407 C398 1.511 . S
C407 C408 1.341 . S
C407 C409 1.371 . S
C408 C407 1.341 . S
C408 C412 1.394 . S
C408 H424 0.930 . S
C409 C407 1.371 . S
C409 C410 1.392 . S
C409 H425 0.931 . S
C410 C409 1.392 . S
C410 C411 1.331 . S
C410 H428 0.932 . S
C411 C410 1.331 . S
C411 C412 1.336 . S
C412 C408 1.394 . S
C412 C411 1.336 . S
C412 H427 0.929 . S
C413 C403 1.386 . S
C413 C406 1.357 . S
C413 H426 0.928 . S
H414 C390 0.931 . S
H415 C392 0.930 . S
H416 C394 0.929 . S
H417 C395 0.931 . S
H418 C397 0.930 . S
H419 C401 0.931 . S
H420 C399 0.931 . S
H421 C403 0.931 . S
H422 C404 0.929 . S
H423 C405 0.930 . S
H424 C408 0.930 . S
H425 C409 0.931 . S
H426 C413 0.928 . S
H427 C412 0.929 . S
H428 C410 0.932 . S
C429 C430 1.386 . S
C429 C431 1.397 . S
C429 H453 0.931 . S
C430 C429 1.386 . S
C430 C434 1.397 . S
C431 C429 1.397 . S
C431 C432 1.384 . S
C431 H454 0.930 . S
C432 C431 1.384 . S
C432 C433 1.377 . S
C432 C435 1.481 . S
C433 C432 1.377 . S
C433 C434 1.389 . S
C433 H455 0.929 . S
C434 C430 1.397 . S
C434 C433 1.389 . S
C434 H456 0.931 . S
C435 C432 1.481 . S
C435 C436 1.387 . S
C435 C440 1.390 . S
C436 C435 1.387 . S
C436 C437 1.401 . S
C436 H457 0.930 . S
C437 C436 1.401 . S
C437 C438 1.376 . S
C437 C446 1.511 . S
C438 C437 1.376 . S
C438 C439 1.392 . S
C438 H459 0.931 . S
C439 C438 1.392 . S
C439 C440 1.361 . S
C439 C441 1.500 . S
C440 C435 1.390 . S
C440 C439 1.361 . S
C440 H458 0.931 . S
C441 C439 1.500 . S
C441 C442 1.371 . S
C441 C443 1.365 . S
C442 C441 1.371 . S
C442 C452 1.386 . S
C442 H460 0.931 . S
C443 C441 1.365 . S
C443 C444 1.409 . S
C443 H461 0.929 . S
C444 C443 1.409 . S
C444 C445 1.380 . S
C444 H462 0.930 . S
C445 C444 1.380 . S
C445 C452 1.357 . S
C446 C437 1.511 . S
C446 C447 1.341 . S
C446 C448 1.371 . S
C447 C446 1.341 . S
C447 C451 1.394 . S
C447 H463 0.930 . S
C448 C446 1.371 . S
C448 C449 1.392 . S
C448 H464 0.931 . S
C449 C448 1.392 . S
C449 C450 1.331 . S
C449 H467 0.932 . S
C450 C449 1.331 . S
C450 C451 1.336 . S
C451 C447 1.394 . S
C451 C450 1.336 . S
C451 H466 0.929 . S
C452 C442 1.386 . S
C452 C445 1.357 . S
C452 H465 0.928 . S
H453 C429 0.931 . S
H454 C431 0.930 . S
H455 C433 0.929 . S
H456 C434 0.931 . S
H457 C436 0.930 . S
H458 C440 0.931 . S
H459 C438 0.931 . S
H460 C442 0.931 . S
H461 C443 0.929 . S
H462 C444 0.930 . S
H463 C447 0.930 . S
H464 C448 0.931 . S
H465 C452 0.928 . S
H466 C451 0.929 . S
H467 C449 0.932 . S
C468 C469 1.386 . S
C468 C470 1.397 . S
C468 H492 0.931 . S
C469 C468 1.386 . S
C469 C473 1.397 . S
C470 C468 1.397 . S
C470 C471 1.384 . S
C470 H493 0.930 . S
C471 C470 1.384 . S
C471 C472 1.377 . S
C471 C474 1.481 . S
C472 C471 1.377 . S
C472 C473 1.389 . S
C472 H494 0.929 . S
C473 C469 1.397 . S
C473 C472 1.389 . S
C473 H495 0.931 . S
C474 C471 1.481 . S
C474 C475 1.387 . S
C474 C479 1.390 . S
C475 C474 1.387 . S
C475 C476 1.401 . S
C475 H496 0.930 . S
C476 C475 1.401 . S
C476 C477 1.376 . S
C476 C485 1.511 . S
C477 C476 1.376 . S
C477 C478 1.392 . S
C477 H498 0.931 . S
C478 C477 1.392 . S
C478 C479 1.361 . S
C478 C480 1.500 . S
C479 C474 1.390 . S
C479 C478 1.361 . S
C479 H497 0.931 . S
C480 C478 1.500 . S
C480 C481 1.371 . S
C480 C482 1.365 . S
C481 C480 1.371 . S
C481 C491 1.386 . S
C481 H499 0.931 . S
C482 C480 1.365 . S
C482 C483 1.409 . S
C482 H500 0.929 . S
C483 C482 1.409 . S
C483 C484 1.380 . S
C483 H501 0.930 . S
C484 C483 1.380 . S
C484 C491 1.357 . S
C485 C476 1.511 . S
C485 C486 1.341 . S
C485 C487 1.371 . S
C486 C485 1.341 . S
C486 C490 1.394 . S
C486 H502 0.930 . S
C487 C485 1.371 . S
C487 C488 1.392 . S
C487 H503 0.931 . S
C488 C487 1.392 . S
C488 C489 1.331 . S
C488 H506 0.932 . S
C489 C488 1.331 . S
C489 C490 1.336 . S
C490 C486 1.394 . S
C490 C489 1.336 . S
C490 H505 0.929 . S
C491 C481 1.386 . S
C491 C484 1.357 . S
C491 H504 0.928 . S
H492 C468 0.931 . S
H493 C470 0.930 . S
H494 C472 0.929 . S
H495 C473 0.931 . S
H496 C475 0.930 . S
H497 C479 0.931 . S
H498 C477 0.931 . S
H499 C481 0.931 . S
H500 C482 0.929 . S
H501 C483 0.930 . S
H502 C486 0.930 . S
H503 C487 0.931 . S
H504 C491 0.928 . S
H505 C490 0.929 . S
H506 C488 0.932 . S
C507 C508 1.386 . S
C507 C509 1.397 . S
C507 H531 0.931 . S
C508 C507 1.386 . S
C508 C512 1.397 . S
C509 C507 1.397 . S
C509 C510 1.384 . S
C509 H532 0.930 . S
C510 C509 1.384 . S
C510 C511 1.377 . S
C510 C513 1.481 . S
C511 C510 1.377 . S
C511 C512 1.389 . S
C511 H533 0.929 . S
C512 C508 1.397 . S
C512 C511 1.389 . S
C512 H534 0.931 . S
C513 C510 1.481 . S
C513 C514 1.387 . S
C513 C518 1.390 . S
C514 C513 1.387 . S
C514 C515 1.401 . S
C514 H535 0.930 . S
C515 C514 1.401 . S
C515 C516 1.376 . S
C515 C524 1.511 . S
C516 C515 1.376 . S
C516 C517 1.392 . S
C516 H537 0.931 . S
C517 C516 1.392 . S
C517 C518 1.361 . S
C517 C519 1.500 . S
C518 C513 1.390 . S
C518 C517 1.361 . S
C518 H536 0.931 . S
C519 C517 1.500 . S
C519 C520 1.371 . S
C519 C521 1.365 . S
C520 C519 1.371 . S
C520 C530 1.386 . S
C520 H538 0.931 . S
C521 C519 1.365 . S
C521 C522 1.409 . S
C521 H539 0.929 . S
C522 C521 1.409 . S
C522 C523 1.380 . S
C522 H540 0.930 . S
C523 C522 1.380 . S
C523 C530 1.357 . S
C524 C515 1.511 . S
C524 C525 1.341 . S
C524 C526 1.371 . S
C525 C524 1.341 . S
C525 C529 1.394 . S
C525 H541 0.930 . S
C526 C524 1.371 . S
C526 C527 1.392 . S
C526 H542 0.931 . S
C527 C526 1.392 . S
C527 C528 1.331 . S
C527 H545 0.932 . S
C528 C527 1.331 . S
C528 C529 1.336 . S
C529 C525 1.394 . S
C529 C528 1.336 . S
C529 H544 0.929 . S
C530 C520 1.386 . S
C530 C523 1.357 . S
C530 H543 0.928 . S
H531 C507 0.931 . S
H532 C509 0.930 . S
H533 C511 0.929 . S
H534 C512 0.931 . S
H535 C514 0.930 . S
H536 C518 0.931 . S
H537 C516 0.931 . S
H538 C520 0.931 . S
H539 C521 0.929 . S
H540 C522 0.930 . S
H541 C525 0.930 . S
H542 C526 0.931 . S
H543 C530 0.928 . S
H544 C529 0.929 . S
H545 C527 0.932 . S
C546 C547 1.386 . S
C546 C548 1.397 . S
C546 H570 0.931 . S
C547 C546 1.386 . S
C547 C551 1.397 . S
C548 C546 1.397 . S
C548 C549 1.384 . S
C548 H571 0.930 . S
C549 C548 1.384 . S
C549 C550 1.377 . S
C549 C552 1.481 . S
C550 C549 1.377 . S
C550 C551 1.389 . S
C550 H572 0.929 . S
C551 C547 1.397 . S
C551 C550 1.389 . S
C551 H573 0.931 . S
C552 C549 1.481 . S
C552 C553 1.387 . S
C552 C557 1.390 . S
C553 C552 1.387 . S
C553 C554 1.401 . S
C553 H574 0.930 . S
C554 C553 1.401 . S
C554 C555 1.376 . S
C554 C563 1.511 . S
C555 C554 1.376 . S
C555 C556 1.392 . S
C555 H576 0.931 . S
C556 C555 1.392 . S
C556 C557 1.361 . S
C556 C558 1.500 . S
C557 C552 1.390 . S
C557 C556 1.361 . S
C557 H575 0.931 . S
C558 C556 1.500 . S
C558 C559 1.371 . S
C558 C560 1.365 . S
C559 C558 1.371 . S
C559 C569 1.386 . S
C559 H577 0.931 . S
C560 C558 1.365 . S
C560 C561 1.409 . S
C560 H578 0.929 . S
C561 C560 1.409 . S
C561 C562 1.380 . S
C561 H579 0.930 . S
C562 C561 1.380 . S
C562 C569 1.357 . S
C563 C554 1.511 . S
C563 C564 1.341 . S
C563 C565 1.371 . S
C564 C563 1.341 . S
C564 C568 1.394 . S
C564 H580 0.930 . S
C565 C563 1.371 . S
C565 C566 1.392 . S
C565 H581 0.931 . S
C566 C565 1.392 . S
C566 C567 1.331 . S
C566 H584 0.932 . S
C567 C566 1.331 . S
C567 C568 1.336 . S
C568 C564 1.394 . S
C568 C567 1.336 . S
C568 H583 0.929 . S
C569 C559 1.386 . S
C569 C562 1.357 . S
C569 H582 0.928 . S
H570 C546 0.931 . S
H571 C548 0.930 . S
H572 C550 0.929 . S
H573 C551 0.931 . S
H574 C553 0.930 . S
H575 C557 0.931 . S
H576 C555 0.931 . S
H577 C559 0.931 . S
H578 C560 0.929 . S
H579 C561 0.930 . S
H580 C564 0.930 . S
H581 C565 0.931 . S
H582 C569 0.928 . S
H583 C568 0.929 . S
H584 C566 0.932 . S
C585 C586 1.386 . S
C585 C587 1.397 . S
C585 H609 0.931 . S
C586 C585 1.386 . S
C586 C590 1.397 . S
C587 C585 1.397 . S
C587 C588 1.384 . S
C587 H610 0.930 . S
C588 C587 1.384 . S
C588 C589 1.377 . S
C588 C591 1.481 . S
C589 C588 1.377 . S
C589 C590 1.389 . S
C589 H611 0.929 . S
C590 C586 1.397 . S
C590 C589 1.389 . S
C590 H612 0.931 . S
C591 C588 1.481 . S
C591 C592 1.387 . S
C591 C596 1.390 . S
C592 C591 1.387 . S
C592 C593 1.401 . S
C592 H613 0.930 . S
C593 C592 1.401 . S
C593 C594 1.376 . S
C593 C602 1.511 . S
C594 C593 1.376 . S
C594 C595 1.392 . S
C594 H615 0.931 . S
C595 C594 1.392 . S
C595 C596 1.361 . S
C595 C597 1.500 . S
C596 C591 1.390 . S
C596 C595 1.361 . S
C596 H614 0.931 . S
C597 C595 1.500 . S
C597 C598 1.371 . S
C597 C599 1.365 . S
C598 C597 1.371 . S
C598 C608 1.386 . S
C598 H616 0.931 . S
C599 C597 1.365 . S
C599 C600 1.409 . S
C599 H617 0.929 . S
C600 C599 1.409 . S
C600 C601 1.380 . S
C600 H618 0.930 . S
C601 C600 1.380 . S
C601 C608 1.357 . S
C602 C593 1.511 . S
C602 C603 1.341 . S
C602 C604 1.371 . S
C603 C602 1.341 . S
C603 C607 1.394 . S
C603 H619 0.930 . S
C604 C602 1.371 . S
C604 C605 1.392 . S
C604 H620 0.931 . S
C605 C604 1.392 . S
C605 C606 1.331 . S
C605 H623 0.932 . S
C606 C605 1.331 . S
C606 C607 1.336 . S
C607 C603 1.394 . S
C607 C606 1.336 . S
C607 H622 0.929 . S
C608 C598 1.386 . S
C608 C601 1.357 . S
C608 H621 0.928 . S
H609 C585 0.931 . S
H610 C587 0.930 . S
H611 C589 0.929 . S
H612 C590 0.931 . S
H613 C592 0.930 . S
H614 C596 0.931 . S
H615 C594 0.931 . S
H616 C598 0.931 . S
H617 C599 0.929 . S
H618 C600 0.930 . S
H619 C603 0.930 . S
H620 C604 0.931 . S
H621 C608 0.928 . S
H622 C607 0.929 . S
H623 C605 0.932 . S
C624 C625 1.386 1_655 S
C624 C626 1.397 1_655 S
C624 H648 0.931 . S
C625 C624 1.386 1_455 S
C625 C629 1.397 . S
C626 C624 1.397 1_455 S
C626 C627 1.384 . S
C626 H649 0.930 1_455 S
C627 C626 1.384 . S
C627 C628 1.377 . S
C627 C630 1.481 . S
C628 C627 1.377 . S
C628 C629 1.389 . S
C628 H650 0.929 . S
C629 C625 1.397 . S
C629 C628 1.389 . S
C629 H651 0.931 . S
C630 C627 1.481 . S
C630 C631 1.387 . S
C630 C635 1.390 . S
C631 C630 1.387 . S
C631 C632 1.401 . S
C631 H652 0.930 . S
C632 C631 1.401 . S
C632 C633 1.376 . S
C632 C641 1.511 . S
C633 C632 1.376 . S
C633 C634 1.392 . S
C633 H654 0.931 . S
C634 C633 1.392 . S
C634 C635 1.361 . S
C634 C636 1.500 . S
C635 C630 1.390 . S
C635 C634 1.361 . S
C635 H653 0.931 . S
C636 C634 1.500 . S
C636 C637 1.371 . S
C636 C638 1.365 . S
C637 C636 1.371 . S
C637 C647 1.386 . S
C637 H655 0.931 . S
C638 C636 1.365 . S
C638 C639 1.409 . S
C638 H656 0.929 . S
C639 C638 1.409 . S
C639 C640 1.380 . S
C639 H657 0.930 . S
C640 C639 1.380 . S
C640 C647 1.357 . S
C641 C632 1.511 . S
C641 C642 1.341 . S
C641 C643 1.371 . S
C642 C641 1.341 . S
C642 C646 1.394 . S
C642 H658 0.930 . S
C643 C641 1.371 . S
C643 C644 1.392 . S
C643 H659 0.931 . S
C644 C643 1.392 . S
C644 C645 1.331 . S
C644 H662 0.932 . S
C645 C644 1.331 . S
C645 C646 1.336 . S
C646 C642 1.394 . S
C646 C645 1.336 . S
C646 H661 0.929 . S
C647 C637 1.386 . S
C647 C640 1.357 . S
C647 H660 0.928 . S
H648 C624 0.931 . S
H649 C626 0.930 1_655 S
H650 C628 0.929 . S
H651 C629 0.931 . S
H652 C631 0.930 . S
H653 C635 0.931 . S
H654 C633 0.931 . S
H655 C637 0.931 . S
H656 C638 0.929 . S
H657 C639 0.930 . S
H658 C642 0.930 . S
H659 C643 0.931 . S
H660 C647 0.928 . S
H661 C646 0.929 . S
H662 C644 0.932 . S
C663 C664 1.386 . S
C663 C665 1.397 . S
C663 H687 0.931 . S
C664 C663 1.386 . S
C664 C668 1.397 . S
C665 C663 1.397 . S
C665 C666 1.384 . S
C665 H688 0.930 . S
C666 C665 1.384 . S
C666 C667 1.377 . S
C666 C669 1.481 . S
C667 C666 1.377 . S
C667 C668 1.389 . S
C667 H689 0.929 . S
C668 C664 1.397 . S
C668 C667 1.389 . S
C668 H690 0.931 . S
C669 C666 1.481 . S
C669 C670 1.387 . S
C669 C674 1.390 . S
C670 C669 1.387 . S
C670 C671 1.401 . S
C670 H691 0.930 . S
C671 C670 1.401 . S
C671 C672 1.376 . S
C671 C680 1.511 . S
C672 C671 1.376 . S
C672 C673 1.392 . S
C672 H693 0.931 . S
C673 C672 1.392 . S
C673 C674 1.361 . S
C673 C675 1.500 . S
C674 C669 1.390 . S
C674 C673 1.361 . S
C674 H692 0.931 . S
C675 C673 1.500 . S
C675 C676 1.371 . S
C675 C677 1.365 . S
C676 C675 1.371 . S
C676 C686 1.386 . S
C676 H694 0.931 . S
C677 C675 1.365 . S
C677 C678 1.409 . S
C677 H695 0.929 . S
C678 C677 1.409 . S
C678 C679 1.380 . S
C678 H696 0.930 . S
C679 C678 1.380 . S
C679 C686 1.357 . S
C680 C671 1.511 . S
C680 C681 1.341 . S
C680 C682 1.371 . S
C681 C680 1.341 . S
C681 C685 1.394 . S
C681 H697 0.930 . S
C682 C680 1.371 . S
C682 C683 1.392 . S
C682 H698 0.931 . S
C683 C682 1.392 . S
C683 C684 1.331 . S
C683 H701 0.932 . S
C684 C683 1.331 . S
C684 C685 1.336 . S
C685 C681 1.394 . S
C685 C684 1.336 . S
C685 H700 0.929 . S
C686 C676 1.386 . S
C686 C679 1.357 . S
C686 H699 0.928 . S
H687 C663 0.931 . S
H688 C665 0.930 . S
H689 C667 0.929 . S
H690 C668 0.931 . S
H691 C670 0.930 . S
H692 C674 0.931 . S
H693 C672 0.931 . S
H694 C676 0.931 . S
H695 C677 0.929 . S
H696 C678 0.930 . S
H697 C681 0.930 . S
H698 C682 0.931 . S
H699 C686 0.928 . S
H700 C685 0.929 . S
H701 C683 0.932 . S
C702 Eu703 2.835 . S
C702 C704 1.500 . S
C702 O722 1.257 1_545 S
C702 O723 1.260 . S
Eu703 C702 2.835 . S
Eu703 O722 2.473 1_545 S
Eu703 O723 2.480 . S
Eu703 O724 2.430 . S
Eu703 O725 2.670 1_554 S
Eu703 O726 2.394 1_545 S
Eu703 O731 2.355 1_545 S
Eu703 O733 2.374 . S
C704 C702 1.500 . S
C704 C705 1.377 . S
C704 C709 1.377 1_545 S
C705 C704 1.377 . S
C705 C706 1.395 . S
C705 H734 0.931 . S
C706 C705 1.395 . S
C706 C707 1.383 1_545 S
C706 H735 0.931 . S
C707 C706 1.383 1_565 S
C707 C708 1.394 . S
C708 C707 1.394 . S
C708 C709 1.378 . S
C708 H736 0.931 . S
C709 C704 1.377 1_565 S
C709 C708 1.378 . S
C709 H737 0.931 . S
C710 O724 1.231 1_556 S
C710 O725 1.280 . S
C711 O726 1.251 . S
C711 O727 1.251 1_554 S
C712 Eu713 2.835 . S
C712 C714 1.500 . S
C712 O728 1.257 1_565 S
C712 O729 1.260 . S
Eu713 C712 2.835 . S
Eu713 O725 2.355 1_565 S
Eu713 O727 2.374 . S
Eu713 O728 2.473 1_565 S
Eu713 O729 2.480 . S
Eu713 O730 2.430 . S
Eu713 O731 2.670 1_556 S
Eu713 O732 2.394 1_565 S
C714 C712 1.500 . S
C714 C715 1.377 . S
C714 C719 1.377 1_565 S
C715 C714 1.377 . S
C715 C716 1.395 . S
C715 H738 0.931 . S
C716 C715 1.395 . S
C716 C717 1.383 1_565 S
C716 H739 0.931 . S
C717 C716 1.383 1_545 S
C717 C718 1.394 . S
C718 C717 1.394 . S
C718 C719 1.378 . S
C718 H740 0.931 . S
C719 C714 1.377 1_545 S
C719 C718 1.378 . S
C719 H741 0.931 . S
C720 O730 1.259 1_554 S
C720 O731 1.270 . S
C721 O732 1.251 . S
C721 O733 1.251 1_556 S
O722 C702 1.257 1_565 S
O722 Eu703 2.473 1_565 S
O723 C702 1.260 . S
O723 Eu703 2.480 . S
O724 Eu703 2.430 . S
O724 C710 1.231 1_554 S
O725 Eu703 2.670 1_556 S
O725 C710 1.280 . S
O725 Eu713 2.355 1_545 S
O726 Eu703 2.394 1_565 S
O726 C711 1.251 . S
O727 C711 1.251 1_556 S
O727 Eu713 2.374 . S
O728 C712 1.257 1_545 S
O728 Eu713 2.473 1_545 S
O729 C712 1.260 . S
O729 Eu713 2.480 . S
O730 Eu713 2.430 . S
O730 C720 1.259 1_556 S
O731 Eu703 2.355 1_565 S
O731 Eu713 2.670 1_554 S
O731 C720 1.270 . S
O732 Eu713 2.394 1_545 S
O732 C721 1.251 . S
O733 Eu703 2.374 . S
O733 C721 1.251 1_554 S
H734 C705 0.931 . S
H735 C706 0.931 . S
H736 C708 0.931 . S
H737 C709 0.931 . S
H738 C715 0.931 . S
H739 C716 0.931 . S
H740 C718 0.931 . S
H741 C719 0.931 . S
C742 Eu743 2.835 . S
C742 C744 1.500 1_655 S
C742 O762 1.257 1_655 S
C742 O763 1.260 . S
Eu743 C742 2.835 . S
Eu743 O762 2.473 1_655 S
Eu743 O763 2.480 . S
Eu743 O764 2.430 . S
Eu743 O765 2.670 1_554 S
Eu743 O766 2.394 1_655 S
Eu743 O771 2.355 1_655 S
Eu743 O773 2.374 . S
C744 C742 1.500 1_455 S
C744 C745 1.377 1_455 S
C744 C749 1.377 . S
C745 C744 1.377 1_655 S
C745 C746 1.395 . S
C745 H774 0.931 . S
C746 C745 1.395 . S
C746 C747 1.383 1_655 S
C746 H775 0.931 . S
C747 C746 1.383 1_455 S
C747 C748 1.394 . S
C748 C747 1.394 . S
C748 C749 1.378 . S
C748 H776 0.931 . S
C749 C744 1.377 . S
C749 C748 1.378 . S
C749 H777 0.931 . S
C750 O764 1.259 1_556 S
C750 O765 1.270 . S
C751 O766 1.251 . S
C751 O767 1.251 . S
C752 Eu753 2.835 . S
C752 C754 1.500 1_455 S
C752 O768 1.257 1_455 S
C752 O769 1.260 . S
Eu753 C752 2.835 . S
Eu753 O765 2.355 1_455 S
Eu753 O767 2.374 1_556 S
Eu753 O768 2.473 1_455 S
Eu753 O769 2.480 . S
Eu753 O770 2.430 . S
Eu753 O771 2.670 1_556 S
Eu753 O772 2.394 1_455 S
C754 C752 1.500 1_655 S
C754 C755 1.377 1_655 S
C754 C759 1.377 . S
C755 C754 1.377 1_455 S
C755 C756 1.395 . S
C755 H778 0.931 . S
C756 C755 1.395 . S
C756 C757 1.383 1_455 S
C756 H779 0.931 . S
C757 C756 1.383 1_655 S
C757 C758 1.394 . S
C758 C757 1.394 . S
C758 C759 1.378 . S
C758 H780 0.931 . S
C759 C754 1.377 . S
C759 C758 1.378 . S
C759 H781 0.931 . S
C760 O770 1.259 1_554 S
C760 O771 1.270 . S
C761 O772 1.251 . S
C761 O773 1.251 1_556 S
O762 C742 1.257 1_455 S
O762 Eu743 2.473 1_455 S
O763 C742 1.260 . S
O763 Eu743 2.480 . S
O764 Eu743 2.430 . S
O764 C750 1.259 1_554 S
O765 Eu743 2.670 1_556 S
O765 C750 1.270 . S
O765 Eu753 2.355 1_655 S
O766 Eu743 2.394 1_455 S
O766 C751 1.251 . S
O767 C751 1.251 . S
O767 Eu753 2.374 1_554 S
O768 C752 1.257 1_655 S
O768 Eu753 2.473 1_655 S
O769 C752 1.260 . S
O769 Eu753 2.480 . S
O770 Eu753 2.430 . S
O770 C760 1.259 1_556 S
O771 Eu743 2.355 1_455 S
O771 Eu753 2.670 1_554 S
O771 C760 1.270 . S
O772 Eu753 2.394 1_655 S
O772 C761 1.251 . S
O773 Eu743 2.374 . S
O773 C761 1.251 1_554 S
H774 C745 0.931 . S
H775 C746 0.931 . S
H776 C748 0.931 . S
H777 C749 0.931 . S
H778 C755 0.931 . S
H779 C756 0.931 . S
H780 C758 0.931 . S
H781 C759 0.931 . S
C782 Eu783 2.835 . S
C782 C784 1.500 . S
C782 O802 1.257 . S
C782 O803 1.260 . S
Eu783 C782 2.835 . S
Eu783 O802 2.473 . S
Eu783 O803 2.480 . S
Eu783 O804 2.430 . S
Eu783 O805 2.670 1_556 S
Eu783 O806 2.394 . S
Eu783 O811 2.355 . S
Eu783 O813 2.376 1_556 S
C784 C782 1.500 . S
C784 C785 1.377 . S
C784 C789 1.377 . S
C785 C784 1.377 . S
C785 C786 1.395 . S
C785 H814 0.931 . S
C786 C785 1.395 . S
C786 C787 1.383 . S
C786 H815 0.931 . S
C787 C786 1.383 . S
C787 C788 1.394 . S
C788 C787 1.394 . S
C788 C789 1.378 . S
C788 H816 0.931 . S
C789 C784 1.377 . S
C789 C788 1.378 . S
C789 H817 0.931 . S
C790 O804 1.259 1_554 S
C790 O805 1.270 . S
C791 O806 1.251 . S
C791 O807 1.251 1_556 S
C792 Eu793 2.835 . S
C792 C794 1.500 . S
C792 O808 1.257 . S
C792 O809 1.260 . S
Eu793 C792 2.835 . S
Eu793 O805 2.355 . S
Eu793 O807 2.374 . S
Eu793 O808 2.473 . S
Eu793 O809 2.480 . S
Eu793 O810 2.430 . S
Eu793 O811 2.670 1_554 S
Eu793 O812 2.394 . S
C794 C792 1.500 . S
C794 C795 1.377 . S
C794 C799 1.377 . S
C795 C794 1.377 . S
C795 C796 1.395 . S
C795 H818 0.931 . S
C796 C795 1.395 . S
C796 C797 1.383 . S
C796 H819 0.931 . S
C797 C796 1.383 . S
C797 C798 1.394 . S
C798 C797 1.394 . S
C798 C799 1.378 . S
C798 H820 0.931 . S
C799 C794 1.377 . S
C799 C798 1.378 . S
C799 H821 0.931 . S
C800 O810 1.259 1_556 S
C800 O811 1.270 . S
C801 O812 1.251 . S
C801 O813 1.248 . S
O802 C782 1.257 . S
O802 Eu783 2.473 . S
O803 C782 1.260 . S
O803 Eu783 2.480 . S
O804 Eu783 2.430 . S
O804 C790 1.259 1_556 S
O805 Eu783 2.670 1_554 S
O805 C790 1.270 . S
O805 Eu793 2.355 . S
O806 Eu783 2.394 . S
O806 C791 1.251 . S
O807 C791 1.251 1_554 S
O807 Eu793 2.374 . S
O808 C792 1.257 . S
O808 Eu793 2.473 . S
O809 C792 1.260 . S
O809 Eu793 2.480 . S
O810 Eu793 2.430 . S
O810 C800 1.259 1_554 S
O811 Eu783 2.355 . S
O811 Eu793 2.670 1_556 S
O811 C800 1.270 . S
O812 Eu793 2.394 . S
O812 C801 1.251 . S
O813 Eu783 2.376 1_554 S
O813 C801 1.248 . S
H814 C785 0.931 . S
H815 C786 0.931 . S
H816 C788 0.931 . S
H817 C789 0.931 . S
H818 C795 0.931 . S
H819 C796 0.931 . S
H820 C798 0.931 . S
H821 C799 0.931 . S
C822 Eu823 2.835 . S
C822 C824 1.500 . S
C822 O842 1.257 . S
C822 O843 1.260 . S
Eu823 C822 2.835 . S
Eu823 O842 2.473 . S
Eu823 O843 2.480 . S
Eu823 O844 2.430 . S
Eu823 O845 2.670 . S
Eu823 O846 2.394 . S
Eu823 O851 2.355 . S
Eu823 O853 2.374 . S
C824 C822 1.500 . S
C824 C825 1.377 . S
C824 C829 1.377 . S
C825 C824 1.377 . S
C825 C826 1.395 . S
C825 H854 0.931 . S
C826 C825 1.395 . S
C826 C827 1.383 . S
C826 H855 0.931 . S
C827 C826 1.383 . S
C827 C828 1.394 . S
C828 C827 1.394 . S
C828 C829 1.378 . S
C828 H856 0.931 . S
C829 C824 1.377 . S
C829 C828 1.378 . S
C829 H857 0.931 . S
C830 O844 1.259 . S
C830 O845 1.270 . S
C831 O846 1.251 . S
C831 O847 1.251 . S
C832 Eu833 2.835 . S
C832 C834 1.500 . S
C832 O848 1.257 . S
C832 O849 1.260 . S
Eu833 C832 2.835 . S
Eu833 O845 2.355 . S
Eu833 O847 2.374 . S
Eu833 O848 2.473 . S
Eu833 O849 2.480 . S
Eu833 O850 2.430 . S
Eu833 O851 2.670 . S
Eu833 O852 2.394 . S
C834 C832 1.500 . S
C834 C835 1.377 . S
C834 C839 1.377 . S
C835 C834 1.377 . S
C835 C836 1.395 . S
C835 H858 0.931 . S
C836 C835 1.395 . S
C836 C837 1.383 . S
C836 H859 0.931 . S
C837 C836 1.383 . S
C837 C838 1.394 . S
C838 C837 1.394 . S
C838 C839 1.378 . S
C838 H860 0.931 . S
C839 C834 1.377 . S
C839 C838 1.378 . S
C839 H861 0.931 . S
C840 O850 1.259 . S
C840 O851 1.270 . S
C841 O852 1.251 . S
C841 O853 1.251 . S
O842 C822 1.257 . S
O842 Eu823 2.473 . S
O843 C822 1.260 . S
O843 Eu823 2.480 . S
O844 Eu823 2.430 . S
O844 C830 1.259 . S
O845 Eu823 2.670 . S
O845 C830 1.270 . S
O845 Eu833 2.355 . S
O846 Eu823 2.394 . S
O846 C831 1.251 . S
O847 C831 1.251 . S
O847 Eu833 2.374 . S
O848 C832 1.257 . S
O848 Eu833 2.473 . S
O849 C832 1.260 . S
O849 Eu833 2.480 . S
O850 Eu833 2.430 . S
O850 C840 1.259 . S
O851 Eu823 2.355 . S
O851 Eu833 2.670 . S
O851 C840 1.270 . S
O852 Eu833 2.394 . S
O852 C841 1.251 . S
O853 Eu823 2.374 . S
O853 C841 1.251 . S
H854 C825 0.931 . S
H855 C826 0.931 . S
H856 C828 0.931 . S
H857 C829 0.931 . S
H858 C835 0.931 . S
H859 C836 0.931 . S
H860 C838 0.931 . S
H861 C839 0.931 . S
C862 Eu863 2.835 . S
C862 C864 1.500 . S
C862 O882 1.257 . S
C862 O883 1.260 . S
Eu863 C862 2.835 . S
Eu863 O882 2.473 . S
Eu863 O883 2.480 . S
Eu863 O884 2.430 . S
Eu863 O885 2.670 . S
Eu863 O886 2.394 . S
Eu863 O891 2.355 . S
Eu863 O893 2.374 . S
C864 C862 1.500 . S
C864 C865 1.377 . S
C864 C869 1.377 . S
C865 C864 1.377 . S
C865 C866 1.395 . S
C865 H894 0.931 . S
C866 C865 1.395 . S
C866 C867 1.383 . S
C866 H895 0.931 . S
C867 C866 1.383 . S
C867 C868 1.394 . S
C868 C867 1.394 . S
C868 C869 1.378 . S
C868 H896 0.931 . S
C869 C864 1.377 . S
C869 C868 1.378 . S
C869 H897 0.931 . S
C870 O884 1.259 . S
C870 O885 1.270 . S
C871 O886 1.251 . S
C871 O887 1.251 . S
C872 Eu873 2.835 . S
C872 C874 1.500 . S
C872 O888 1.257 . S
C872 O889 1.260 . S
Eu873 C872 2.835 . S
Eu873 O885 2.355 . S
Eu873 O887 2.374 . S
Eu873 O888 2.473 . S
Eu873 O889 2.480 . S
Eu873 O890 2.430 . S
Eu873 O891 2.670 . S
Eu873 O892 2.394 . S
C874 C872 1.500 . S
C874 C875 1.377 . S
C874 C879 1.377 . S
C875 C874 1.377 . S
C875 C876 1.395 . S
C875 H898 0.931 . S
C876 C875 1.395 . S
C876 C877 1.383 . S
C876 H899 0.931 . S
C877 C876 1.383 . S
C877 C878 1.394 . S
C878 C877 1.394 . S
C878 C879 1.378 . S
C878 H900 0.931 . S
C879 C874 1.377 . S
C879 C878 1.378 . S
C879 H901 0.931 . S
C880 O890 1.259 . S
C880 O891 1.270 . S
C881 O892 1.251 . S
C881 O893 1.251 . S
O882 C862 1.257 . S
O882 Eu863 2.473 . S
O883 C862 1.260 . S
O883 Eu863 2.480 . S
O884 Eu863 2.430 . S
O884 C870 1.259 . S
O885 Eu863 2.670 . S
O885 C870 1.270 . S
O885 Eu873 2.355 . S
O886 Eu863 2.394 . S
O886 C871 1.251 . S
O887 C871 1.251 . S
O887 Eu873 2.374 . S
O888 C872 1.257 . S
O888 Eu873 2.473 . S
O889 C872 1.260 . S
O889 Eu873 2.480 . S
O890 Eu873 2.430 . S
O890 C880 1.259 . S
O891 Eu863 2.355 . S
O891 Eu873 2.670 . S
O891 C880 1.270 . S
O892 Eu873 2.394 . S
O892 C881 1.251 . S
O893 Eu863 2.374 . S
O893 C881 1.251 . S
H894 C865 0.931 . S
H895 C866 0.931 . S
H896 C868 0.931 . S
H897 C869 0.931 . S
H898 C875 0.931 . S
H899 C876 0.931 . S
H900 C878 0.931 . S
H901 C879 0.931 . S
C902 Eu903 2.835 . S
C902 C904 1.500 . S
C902 O922 1.257 . S
C902 O923 1.260 . S
Eu903 C902 2.835 . S
Eu903 O922 2.473 . S
Eu903 O923 2.480 . S
Eu903 O924 2.430 . S
Eu903 O925 2.670 . S
Eu903 O926 2.394 . S
Eu903 O931 2.355 . S
Eu903 O933 2.374 . S
C904 C902 1.500 . S
C904 C905 1.377 . S
C904 C909 1.377 . S
C905 C904 1.377 . S
C905 C906 1.395 . S
C905 H934 0.931 . S
C906 C905 1.395 . S
C906 C907 1.383 . S
C906 H935 0.931 . S
C907 C906 1.383 . S
C907 C908 1.394 . S
C908 C907 1.394 . S
C908 C909 1.378 . S
C908 H936 0.931 . S
C909 C904 1.377 . S
C909 C908 1.378 . S
C909 H937 0.931 . S
C910 O924 1.259 . S
C910 O925 1.270 . S
C911 O926 1.251 . S
C911 O927 1.251 . S
C912 Eu913 2.835 . S
C912 C914 1.500 . S
C912 O928 1.257 . S
C912 O929 1.260 . S
Eu913 C912 2.835 . S
Eu913 O925 2.355 . S
Eu913 O927 2.374 . S
Eu913 O928 2.473 . S
Eu913 O929 2.480 . S
Eu913 O930 2.430 . S
Eu913 O931 2.670 . S
Eu913 O932 2.394 . S
C914 C912 1.500 . S
C914 C915 1.377 . S
C914 C919 1.377 . S
C915 C914 1.377 . S
C915 C916 1.395 . S
C915 H938 0.931 . S
C916 C915 1.395 . S
C916 C917 1.383 . S
C916 H939 0.931 . S
C917 C916 1.383 . S
C917 C918 1.394 . S
C918 C917 1.394 . S
C918 C919 1.378 . S
C918 H940 0.931 . S
C919 C914 1.377 . S
C919 C918 1.378 . S
C919 H941 0.931 . S
C920 O930 1.259 . S
C920 O931 1.270 . S
C921 O932 1.251 . S
C921 O933 1.251 . S
O922 C902 1.257 . S
O922 Eu903 2.473 . S
O923 C902 1.260 . S
O923 Eu903 2.480 . S
O924 Eu903 2.430 . S
O924 C910 1.259 . S
O925 Eu903 2.670 . S
O925 C910 1.270 . S
O925 Eu913 2.355 . S
O926 Eu903 2.394 . S
O926 C911 1.251 . S
O927 C911 1.251 . S
O927 Eu913 2.374 . S
O928 C912 1.257 . S
O928 Eu913 2.473 . S
O929 C912 1.260 . S
O929 Eu913 2.480 . S
O930 Eu913 2.430 . S
O930 C920 1.259 . S
O931 Eu903 2.355 . S
O931 Eu913 2.670 . S
O931 C920 1.270 . S
O932 Eu913 2.394 . S
O932 C921 1.251 . S
O933 Eu903 2.374 . S
O933 C921 1.251 . S
H934 C905 0.931 . S
H935 C906 0.931 . S
H936 C908 0.931 . S
H937 C909 0.931 . S
H938 C915 0.931 . S
H939 C916 0.931 . S
H940 C918 0.931 . S
H941 C919 0.931 . S
C942 Eu943 2.835 . S
C942 C944 1.500 . S
C942 O962 1.257 . S
C942 O963 1.260 . S
Eu943 C942 2.835 . S
Eu943 O962 2.473 . S
Eu943 O963 2.480 . S
Eu943 O964 2.430 . S
Eu943 O965 2.670 . S
Eu943 O966 2.394 . S
Eu943 O971 2.355 . S
Eu943 O973 2.374 . S
C944 C942 1.500 . S
C944 C945 1.377 . S
C944 C949 1.377 . S
C945 C944 1.377 . S
C945 C946 1.395 . S
C945 H974 0.931 . S
C946 C945 1.395 . S
C946 C947 1.383 . S
C946 H975 0.931 . S
C947 C946 1.383 . S
C947 C948 1.394 . S
C948 C947 1.394 . S
C948 C949 1.378 . S
C948 H976 0.931 . S
C949 C944 1.377 . S
C949 C948 1.378 . S
C949 H977 0.931 . S
C950 O964 1.259 . S
C950 O965 1.270 . S
C951 O966 1.251 . S
C951 O967 1.251 . S
C952 Eu953 2.835 . S
C952 C954 1.500 . S
C952 O968 1.257 . S
C952 O969 1.260 . S
Eu953 C952 2.835 . S
Eu953 O965 2.355 . S
Eu953 O967 2.374 . S
Eu953 O968 2.473 . S
Eu953 O969 2.480 . S
Eu953 O970 2.430 . S
Eu953 O971 2.670 . S
Eu953 O972 2.394 . S
C954 C952 1.500 . S
C954 C955 1.377 . S
C954 C959 1.377 . S
C955 C954 1.377 . S
C955 C956 1.395 . S
C955 H978 0.931 . S
C956 C955 1.395 . S
C956 C957 1.383 . S
C956 H979 0.931 . S
C957 C956 1.383 . S
C957 C958 1.394 . S
C958 C957 1.394 . S
C958 C959 1.378 . S
C958 H980 0.931 . S
C959 C954 1.377 . S
C959 C958 1.378 . S
C959 H981 0.931 . S
C960 O970 1.259 . S
C960 O971 1.270 . S
C961 O972 1.251 . S
C961 O973 1.251 . S
O962 C942 1.257 . S
O962 Eu943 2.473 . S
O963 C942 1.260 . S
O963 Eu943 2.480 . S
O964 Eu943 2.430 . S
O964 C950 1.259 . S
O965 Eu943 2.670 . S
O965 C950 1.270 . S
O965 Eu953 2.355 . S
O966 Eu943 2.394 . S
O966 C951 1.251 . S
O967 C951 1.251 . S
O967 Eu953 2.374 . S
O968 C952 1.257 . S
O968 Eu953 2.473 . S
O969 C952 1.260 . S
O969 Eu953 2.480 . S
O970 Eu953 2.430 . S
O970 C960 1.259 . S
O971 Eu943 2.355 . S
O971 Eu953 2.670 . S
O971 C960 1.270 . S
O972 Eu953 2.394 . S
O972 C961 1.251 . S
O973 Eu943 2.374 . S
O973 C961 1.251 . S
H974 C945 0.931 . S
H975 C946 0.931 . S
H976 C948 0.931 . S
H977 C949 0.931 . S
H978 C955 0.931 . S
H979 C956 0.931 . S
H980 C958 0.931 . S
H981 C959 0.931 . S
C982 Eu983 2.835 . S
C982 C984 1.500 . S
C982 O1002 1.257 . S
C982 O1003 1.260 . S
Eu983 C982 2.835 . S
Eu983 O1002 2.473 . S
Eu983 O1003 2.480 . S
Eu983 O1004 2.430 . S
Eu983 O1005 2.670 . S
Eu983 O1006 2.394 . S
Eu983 O1011 2.355 . S
Eu983 O1013 2.374 . S
C984 C982 1.500 . S
C984 C985 1.377 . S
C984 C989 1.377 . S
C985 C984 1.377 . S
C985 C986 1.395 . S
C985 H1014 0.931 . S
C986 C985 1.395 . S
C986 C987 1.383 . S
C986 H1015 0.931 . S
C987 C986 1.383 . S
C987 C988 1.394 . S
C988 C987 1.394 . S
C988 C989 1.378 . S
C988 H1016 0.931 . S
C989 C984 1.377 . S
C989 C988 1.378 . S
C989 H1017 0.931 . S
C990 O1004 1.259 . S
C990 O1005 1.270 . S
C991 O1006 1.251 . S
C991 O1007 1.251 . S
C992 Eu993 2.835 . S
C992 C994 1.500 . S
C992 O1008 1.257 . S
C992 O1009 1.260 . S
Eu993 C992 2.835 . S
Eu993 O1005 2.355 . S
Eu993 O1007 2.374 . S
Eu993 O1008 2.473 . S
Eu993 O1009 2.480 . S
Eu993 O1010 2.430 . S
Eu993 O1011 2.670 . S
Eu993 O1012 2.394 . S
C994 C992 1.500 . S
C994 C995 1.377 . S
C994 C999 1.377 . S
C995 C994 1.377 . S
C995 C996 1.395 . S
C995 H1018 0.931 . S
C996 C995 1.395 . S
C996 C997 1.383 . S
C996 H1019 0.931 . S
C997 C996 1.383 . S
C997 C998 1.394 . S
C998 C997 1.394 . S
C998 C999 1.378 . S
C998 H1020 0.931 . S
C999 C994 1.377 . S
C999 C998 1.378 . S
C999 H1021 0.931 . S
C1000 O1010 1.259 . S
C1000 O1011 1.270 . S
C1001 O1012 1.251 . S
C1001 O1013 1.251 . S
O1002 C982 1.257 . S
O1002 Eu983 2.473 . S
O1003 C982 1.260 . S
O1003 Eu983 2.480 . S
O1004 Eu983 2.430 . S
O1004 C990 1.259 . S
O1005 Eu983 2.670 . S
O1005 C990 1.270 . S
O1005 Eu993 2.355 . S
O1006 Eu983 2.394 . S
O1006 C991 1.251 . S
O1007 C991 1.251 . S
O1007 Eu993 2.374 . S
O1008 C992 1.257 . S
O1008 Eu993 2.473 . S
O1009 C992 1.260 . S
O1009 Eu993 2.480 . S
O1010 Eu993 2.430 . S
O1010 C1000 1.259 . S
O1011 Eu983 2.355 . S
O1011 Eu993 2.670 . S
O1011 C1000 1.270 . S
O1012 Eu993 2.394 . S
O1012 C1001 1.251 . S
O1013 Eu983 2.374 . S
O1013 C1001 1.251 . S
H1014 C985 0.931 . S
H1015 C986 0.931 . S
H1016 C988 0.931 . S
H1017 C989 0.931 . S
H1018 C995 0.931 . S
H1019 C996 0.931 . S
H1020 C998 0.931 . S
H1021 C999 0.931 . S
C1022 Eu1023 2.835 . S
C1022 C1024 1.500 . S
C1022 O1042 1.257 . S
C1022 O1043 1.260 . S
Eu1023 C1022 2.835 . S
Eu1023 O1042 2.473 . S
Eu1023 O1043 2.480 . S
Eu1023 O1044 2.430 . S
Eu1023 O1045 2.670 . S
Eu1023 O1046 2.394 . S
Eu1023 O1051 2.355 . S
Eu1023 O1053 2.374 . S
C1024 C1022 1.500 . S
C1024 C1025 1.377 . S
C1024 C1029 1.377 . S
C1025 C1024 1.377 . S
C1025 C1026 1.395 . S
C1025 H1054 0.931 . S
C1026 C1025 1.395 . S
C1026 C1027 1.383 . S
C1026 H1055 0.931 . S
C1027 C1026 1.383 . S
C1027 C1028 1.394 . S
C1028 C1027 1.394 . S
C1028 C1029 1.378 . S
C1028 H1056 0.931 . S
C1029 C1024 1.377 . S
C1029 C1028 1.378 . S
C1029 H1057 0.931 . S
C1030 O1044 1.259 . S
C1030 O1045 1.270 . S
C1031 O1046 1.251 . S
C1031 O1047 1.251 . S
C1032 Eu1033 2.835 . S
C1032 C1034 1.500 . S
C1032 O1048 1.257 . S
C1032 O1049 1.260 . S
Eu1033 C1032 2.835 . S
Eu1033 O1045 2.355 . S
Eu1033 O1047 2.374 . S
Eu1033 O1048 2.473 . S
Eu1033 O1049 2.480 . S
Eu1033 O1050 2.430 . S
Eu1033 O1051 2.670 . S
Eu1033 O1052 2.394 . S
C1034 C1032 1.500 . S
C1034 C1035 1.377 . S
C1034 C1039 1.377 . S
C1035 C1034 1.377 . S
C1035 C1036 1.395 . S
C1035 H1058 0.931 . S
C1036 C1035 1.395 . S
C1036 C1037 1.383 . S
C1036 H1059 0.931 . S
C1037 C1036 1.383 . S
C1037 C1038 1.394 . S
C1038 C1037 1.394 . S
C1038 C1039 1.378 . S
C1038 H1060 0.931 . S
C1039 C1034 1.377 . S
C1039 C1038 1.378 . S
C1039 H1061 0.931 . S
C1040 O1050 1.259 . S
C1040 O1051 1.270 . S
C1041 O1052 1.251 . S
C1041 O1053 1.251 . S
O1042 C1022 1.257 . S
O1042 Eu1023 2.473 . S
O1043 C1022 1.260 . S
O1043 Eu1023 2.480 . S
O1044 Eu1023 2.430 . S
O1044 C1030 1.259 . S
O1045 Eu1023 2.670 . S
O1045 C1030 1.270 . S
O1045 Eu1033 2.355 . S
O1046 Eu1023 2.394 . S
O1046 C1031 1.251 . S
O1047 C1031 1.251 . S
O1047 Eu1033 2.374 . S
O1048 C1032 1.257 . S
O1048 Eu1033 2.473 . S
O1049 C1032 1.260 . S
O1049 Eu1033 2.480 . S
O1050 Eu1033 2.430 . S
O1050 C1040 1.259 . S
O1051 Eu1023 2.355 . S
O1051 Eu1033 2.670 . S
O1051 C1040 1.270 . S
O1052 Eu1033 2.394 . S
O1052 C1041 1.251 . S
O1053 Eu1023 2.374 . S
O1053 C1041 1.251 . S
H1054 C1025 0.931 . S
H1055 C1026 0.931 . S
H1056 C1028 0.931 . S
H1057 C1029 0.931 . S
H1058 C1035 0.931 . S
H1059 C1036 0.931 . S
H1060 C1038 0.931 . S
H1061 C1039 0.931 . S
H1062 C1068 0.930 . S
H1063 C1071 0.930 . S
H1064 C1072 0.930 . S
H1065 C1073 0.930 . S
H1066 C1076 0.930 . S
H1067 C1077 0.930 . S
C1068 H1062 0.930 . S
C1068 C1069 1.355 . S
C1068 C1070 1.415 . S
C1069 C1068 1.355 . S
C1069 C1071 1.419 . S
C1070 C1068 1.415 . S
C1070 C1075 1.425 . S
C1070 C1077 1.409 . S
C1071 H1063 0.930 . S
C1071 C1069 1.419 . S
C1071 C1072 1.362 . S
C1072 H1064 0.930 . S
C1072 C1071 1.362 . S
C1072 C1075 1.409 . S
C1073 H1065 0.930 . S
C1073 C1074 1.355 . S
C1073 C1075 1.415 . S
C1074 C1073 1.355 . S
C1074 C1076 1.419 . S
C1075 C1070 1.425 . S
C1075 C1072 1.409 . S
C1075 C1073 1.415 . S
C1076 H1066 0.930 . S
C1076 C1074 1.419 . S
C1076 C1077 1.362 . S
C1077 H1067 0.930 . S
C1077 C1070 1.409 . S
C1077 C1076 1.362 . S
H1078 C1084 0.930 . S
H1079 C1087 0.930 . S
H1080 C1088 0.930 . S
H1081 C1089 0.930 . S
H1082 C1092 0.930 . S
H1083 C1093 0.930 . S
C1084 H1078 0.930 . S
C1084 C1085 1.355 . S
C1084 C1086 1.415 . S
C1085 C1084 1.355 . S
C1085 C1087 1.419 . S
C1086 C1084 1.415 . S
C1086 C1091 1.425 . S
C1086 C1093 1.409 . S
C1087 H1079 0.930 . S
C1087 C1085 1.419 . S
C1087 C1088 1.362 . S
C1088 H1080 0.930 . S
C1088 C1087 1.362 . S
C1088 C1091 1.409 . S
C1089 H1081 0.930 . S
C1089 C1090 1.355 . S
C1089 C1091 1.415 . S
C1090 C1089 1.355 . S
C1090 C1092 1.419 . S
C1091 C1086 1.425 . S
C1091 C1088 1.409 . S
C1091 C1089 1.415 . S
C1092 H1082 0.930 . S
C1092 C1090 1.419 . S
C1092 C1093 1.362 . S
C1093 H1083 0.930 . S
C1093 C1086 1.409 . S
C1093 C1092 1.362 . S
H1094 C1100 0.930 . S
H1095 C1103 0.930 . S
H1096 C1104 0.930 . S
H1097 C1105 0.930 . S
H1098 C1108 0.930 . S
H1099 C1109 0.930 . S
C1100 H1094 0.930 . S
C1100 C1101 1.355 . S
C1100 C1102 1.415 . S
C1101 C1100 1.355 . S
C1101 C1103 1.419 . S
C1102 C1100 1.415 . S
C1102 C1107 1.425 . S
C1102 C1109 1.409 . S
C1103 H1095 0.930 . S
C1103 C1101 1.419 . S
C1103 C1104 1.362 . S
C1104 H1096 0.930 . S
C1104 C1103 1.362 . S
C1104 C1107 1.409 . S
C1105 H1097 0.930 . S
C1105 C1106 1.355 . S
C1105 C1107 1.415 . S
C1106 C1105 1.355 . S
C1106 C1108 1.419 . S
C1107 C1102 1.425 . S
C1107 C1104 1.409 . S
C1107 C1105 1.415 . S
C1108 H1098 0.930 . S
C1108 C1106 1.419 . S
C1108 C1109 1.362 . S
C1109 H1099 0.930 . S
C1109 C1102 1.409 . S
C1109 C1108 1.362 . S
H1110 C1116 0.930 . S
H1111 C1119 0.930 . S
H1112 C1120 0.930 . S
H1113 C1121 0.930 . S
H1114 C1124 0.893 1_554 S
H1115 C1125 0.930 1_554 S
C1116 H1110 0.930 . S
C1116 C1117 1.355 . S
C1116 C1118 1.415 . S
C1117 C1116 1.355 . S
C1117 C1119 1.419 . S
C1118 C1116 1.415 . S
C1118 C1123 1.425 . S
C1118 C1125 1.409 . S
C1119 H1111 0.930 . S
C1119 C1117 1.419 . S
C1119 C1120 1.362 . S
C1120 H1112 0.930 . S
C1120 C1119 1.362 . S
C1120 C1123 1.409 . S
C1121 H1113 0.930 . S
C1121 C1122 1.355 . S
C1121 C1123 1.415 . S
C1122 C1121 1.355 . S
C1122 C1124 1.461 . S
C1123 C1118 1.425 . S
C1123 C1120 1.409 . S
C1123 C1121 1.415 . S
C1124 H1114 0.893 1_556 S
C1124 C1122 1.461 . S
C1124 C1125 1.362 . S
C1125 H1115 0.930 1_556 S
C1125 C1118 1.409 . S
C1125 C1124 1.362 . S
H1126 C1132 0.930 . S
H1127 C1135 0.930 . S
H1128 C1136 0.930 . S
H1129 C1137 0.930 . S
H1130 C1140 0.930 . S
H1131 C1141 0.930 . S
C1132 H1126 0.930 . S
C1132 C1133 1.355 . S
C1132 C1134 1.415 . S
C1133 C1132 1.355 . S
C1133 C1135 1.419 . S
C1134 C1132 1.415 . S
C1134 C1139 1.425 . S
C1134 C1141 1.409 . S
C1135 H1127 0.930 . S
C1135 C1133 1.419 . S
C1135 C1136 1.362 . S
C1136 H1128 0.930 . S
C1136 C1135 1.362 . S
C1136 C1139 1.409 . S
C1137 H1129 0.930 . S
C1137 C1138 1.355 . S
C1137 C1139 1.415 . S
C1138 C1137 1.355 . S
C1138 C1140 1.419 . S
C1139 C1134 1.425 . S
C1139 C1136 1.409 . S
C1139 C1137 1.415 . S
C1140 H1130 0.930 . S
C1140 C1138 1.419 . S
C1140 C1141 1.362 . S
C1141 H1131 0.930 . S
C1141 C1134 1.409 . S
C1141 C1140 1.362 . S
H1142 C1148 0.930 . S
H1143 C1151 0.930 . S
H1144 C1152 0.930 . S
H1145 C1153 0.930 . S
H1146 C1156 0.930 . S
H1147 C1157 0.930 . S
C1148 H1142 0.930 . S
C1148 C1149 1.355 . S
C1148 C1150 1.415 . S
C1149 C1148 1.355 . S
C1149 C1151 1.419 . S
C1150 C1148 1.415 . S
C1150 C1155 1.425 . S
C1150 C1157 1.409 . S
C1151 H1143 0.930 . S
C1151 C1149 1.419 . S
C1151 C1152 1.362 . S
C1152 H1144 0.930 . S
C1152 C1151 1.362 . S
C1152 C1155 1.409 . S
C1153 H1145 0.930 . S
C1153 C1154 1.355 . S
C1153 C1155 1.415 . S
C1154 C1153 1.355 . S
C1154 C1156 1.419 . S
C1155 C1150 1.425 . S
C1155 C1152 1.409 . S
C1155 C1153 1.415 . S
C1156 H1146 0.930 . S
C1156 C1154 1.419 . S
C1156 C1157 1.362 . S
C1157 H1147 0.930 . S
C1157 C1150 1.409 . S
C1157 C1156 1.362 . S
H1158 C1164 0.930 . S
H1159 C1167 0.930 . S
H1160 C1168 0.930 . S
H1161 C1169 0.930 . S
H1162 C1172 0.930 . S
H1163 C1173 0.930 . S
C1164 H1158 0.930 . S
C1164 C1165 1.355 . S
C1164 C1166 1.415 . S
C1165 C1164 1.355 . S
C1165 C1167 1.419 . S
C1166 C1164 1.415 . S
C1166 C1171 1.425 . S
C1166 C1173 1.409 . S
C1167 H1159 0.930 . S
C1167 C1165 1.419 . S
C1167 C1168 1.362 . S
C1168 H1160 0.930 . S
C1168 C1167 1.362 . S
C1168 C1171 1.409 . S
C1169 H1161 0.930 . S
C1169 C1170 1.355 . S
C1169 C1171 1.415 . S
C1170 C1169 1.355 . S
C1170 C1172 1.419 . S
C1171 C1166 1.425 . S
C1171 C1168 1.409 . S
C1171 C1169 1.415 . S
C1172 H1162 0.930 . S
C1172 C1170 1.419 . S
C1172 C1173 1.362 . S
C1173 H1163 0.930 . S
C1173 C1166 1.409 . S
C1173 C1172 1.362 . S
H1174 C1180 0.930 . S
H1175 C1183 0.930 . S
H1176 C1184 0.930 . S
H1177 C1185 0.930 . S
H1178 C1188 0.930 . S
H1179 C1189 0.930 . S
C1180 H1174 0.930 . S
C1180 C1181 1.355 . S
C1180 C1182 1.415 . S
C1181 C1180 1.355 . S
C1181 C1183 1.419 . S
C1182 C1180 1.415 . S
C1182 C1187 1.425 . S
C1182 C1189 1.409 . S
C1183 H1175 0.930 . S
C1183 C1181 1.419 . S
C1183 C1184 1.362 . S
C1184 H1176 0.930 . S
C1184 C1183 1.362 . S
C1184 C1187 1.409 . S
C1185 H1177 0.930 . S
C1185 C1186 1.355 . S
C1185 C1187 1.415 . S
C1186 C1185 1.355 . S
C1186 C1188 1.419 . S
C1187 C1182 1.425 . S
C1187 C1184 1.409 . S
C1187 C1185 1.415 . S
C1188 H1178 0.930 . S
C1188 C1186 1.419 . S
C1188 C1189 1.362 . S
C1189 H1179 0.930 . S
C1189 C1182 1.409 . S
C1189 C1188 1.362 . S
H1190 C1196 0.930 . S
H1191 C1199 0.930 . S
H1192 C1200 0.930 . S
H1193 C1201 0.930 . S
H1194 C1204 0.930 . S
H1195 C1205 0.930 . S
C1196 H1190 0.930 . S
C1196 C1197 1.355 . S
C1196 C1198 1.415 . S
C1197 C1196 1.355 . S
C1197 C1199 1.419 . S
C1198 C1196 1.415 . S
C1198 C1203 1.425 . S
C1198 C1205 1.409 . S
C1199 H1191 0.930 . S
C1199 C1197 1.419 . S
C1199 C1200 1.362 . S
C1200 H1192 0.930 . S
C1200 C1199 1.362 . S
C1200 C1203 1.409 . S
C1201 H1193 0.930 . S
C1201 C1202 1.355 . S
C1201 C1203 1.415 . S
C1202 C1201 1.355 . S
C1202 C1204 1.419 . S
C1203 C1198 1.425 . S
C1203 C1200 1.409 . S
C1203 C1201 1.415 . S
C1204 H1194 0.930 . S
C1204 C1202 1.419 . S
C1204 C1205 1.362 . S
C1205 H1195 0.930 . S
C1205 C1198 1.409 . S
C1205 C1204 1.362 . S
H1206 C1212 0.930 . S
H1207 C1215 0.930 . S
H1208 C1216 0.930 . S
H1209 C1217 0.930 . S
H1210 C1220 0.911 1_556 S
H1211 C1221 0.885 1_556 S
C1212 H1206 0.930 . S
C1212 C1213 1.355 . S
C1212 C1214 1.415 . S
C1213 C1212 1.355 . S
C1213 C1215 1.419 . S
C1214 C1212 1.415 . S
C1214 C1219 1.425 . S
C1214 C1221 1.449 . S
C1215 H1207 0.930 . S
C1215 C1213 1.419 . S
C1215 C1216 1.362 . S
C1216 H1208 0.930 . S
C1216 C1215 1.362 . S
C1216 C1219 1.409 . S
C1217 H1209 0.930 . S
C1217 C1218 1.355 . S
C1217 C1219 1.415 . S
C1218 C1217 1.355 . S
C1218 C1220 1.440 . S
C1219 C1214 1.425 . S
C1219 C1216 1.409 . S
C1219 C1217 1.415 . S
C1220 H1210 0.911 1_554 S
C1220 C1218 1.440 . S
C1220 C1221 1.365 . S
C1221 H1211 0.885 1_554 S
C1221 C1214 1.449 . S
C1221 C1220 1.365 . S
H1222 C1228 0.930 . S
H1223 C1231 0.930 . S
H1224 C1232 0.930 . S
H1225 C1233 0.930 . S
H1226 C1236 0.930 1_556 S
H1227 C1237 0.930 . S
C1228 H1222 0.930 . S
C1228 C1229 1.355 . S
C1228 C1230 1.415 . S
C1229 C1228 1.355 . S
C1229 C1231 1.419 . S
C1230 C1228 1.415 . S
C1230 C1235 1.425 . S
C1230 C1237 1.409 . S
C1231 H1223 0.930 . S
C1231 C1229 1.419 . S
C1231 C1232 1.362 . S
C1232 H1224 0.930 . S
C1232 C1231 1.362 . S
C1232 C1235 1.409 . S
C1233 H1225 0.930 . S
C1233 C1234 1.355 . S
C1233 C1235 1.415 . S
C1234 C1233 1.355 . S
C1234 C1236 1.419 . S
C1235 C1230 1.425 . S
C1235 C1232 1.409 . S
C1235 C1233 1.415 . S
C1236 H1226 0.930 1_554 S
C1236 C1234 1.419 . S
C1236 C1237 1.362 . S
C1237 H1227 0.930 . S
C1237 C1230 1.409 . S
C1237 C1236 1.362 . S
H1238 C1244 0.930 . S
H1239 C1247 0.930 . S
H1240 C1248 0.930 1_556 S
H1241 C1249 0.930 1_556 S
H1242 C1252 0.930 . S
H1243 C1253 0.930 . S
C1244 H1238 0.930 . S
C1244 C1245 1.355 . S
C1244 C1246 1.415 . S
C1245 C1244 1.355 . S
C1245 C1247 1.419 . S
C1246 C1244 1.415 . S
C1246 C1251 1.425 . S
C1246 C1253 1.409 . S
C1247 H1239 0.930 . S
C1247 C1245 1.419 . S
C1247 C1248 1.362 . S
C1248 H1240 0.930 1_554 S
C1248 C1247 1.362 . S
C1248 C1251 1.409 . S
C1249 H1241 0.930 1_554 S
C1249 C1250 1.355 . S
C1249 C1251 1.415 . S
C1250 C1249 1.355 . S
C1250 C1252 1.419 . S
C1251 C1246 1.425 . S
C1251 C1248 1.409 . S
C1251 C1249 1.415 . S
C1252 H1242 0.930 . S
C1252 C1250 1.419 . S
C1252 C1253 1.362 . S
C1253 H1243 0.930 . S
C1253 C1246 1.409 . S
C1253 C1252 1.362 . S
H1254 C1260 0.930 . S
H1255 C1263 0.930 . S
H1256 C1264 0.930 . S
H1257 C1265 0.930 . S
H1258 C1268 0.930 . S
H1259 C1269 0.930 . S
C1260 H1254 0.930 . S
C1260 C1261 1.355 1_455 S
C1260 C1262 1.415 . S
C1261 C1260 1.355 1_655 S
C1261 C1263 1.419 . S
C1262 C1260 1.415 . S
C1262 C1267 1.425 . S
C1262 C1269 1.409 . S
C1263 H1255 0.930 . S
C1263 C1261 1.419 . S
C1263 C1264 1.362 1_655 S
C1264 H1256 0.930 . S
C1264 C1263 1.362 1_455 S
C1264 C1267 1.409 . S
C1265 H1257 0.930 . S
C1265 C1266 1.355 . S
C1265 C1267 1.415 . S
C1266 C1265 1.355 . S
C1266 C1268 1.419 . S
C1267 C1262 1.425 . S
C1267 C1264 1.409 . S
C1267 C1265 1.415 . S
C1268 H1258 0.930 . S
C1268 C1266 1.419 . S
C1268 C1269 1.362 . S
C1269 H1259 0.930 . S
C1269 C1262 1.409 . S
C1269 C1268 1.362 . S
H1270 C1276 0.930 . S
H1271 C1279 0.930 . S
H1272 C1280 0.930 . S
H1273 C1281 0.930 . S
H1274 C1284 0.930 . S
H1275 C1285 0.930 . S
C1276 H1270 0.930 . S
C1276 C1277 1.355 . S
C1276 C1278 1.415 . S
C1277 C1276 1.355 . S
C1277 C1279 1.419 . S
C1278 C1276 1.415 . S
C1278 C1283 1.425 . S
C1278 C1285 1.409 . S
C1279 H1271 0.930 . S
C1279 C1277 1.419 . S
C1279 C1280 1.362 . S
C1280 H1272 0.930 . S
C1280 C1279 1.362 . S
C1280 C1283 1.409 . S
C1281 H1273 0.930 . S
C1281 C1282 1.355 . S
C1281 C1283 1.415 . S
C1282 C1281 1.355 . S
C1282 C1284 1.419 . S
C1283 C1278 1.425 . S
C1283 C1280 1.409 . S
C1283 C1281 1.415 . S
C1284 H1274 0.930 . S
C1284 C1282 1.419 . S
C1284 C1285 1.362 . S
C1285 H1275 0.930 . S
C1285 C1278 1.409 . S
C1285 C1284 1.362 . S
H1286 C1292 0.930 . S
H1287 C1295 0.930 . S
H1288 C1296 0.930 . S
H1289 C1297 0.930 . S
H1290 C1300 0.930 . S
H1291 C1301 0.930 . S
C1292 H1286 0.930 . S
C1292 C1293 1.355 . S
C1292 C1294 1.415 1_545 S
C1293 C1292 1.355 . S
C1293 C1295 1.419 . S
C1294 C1292 1.415 1_565 S
C1294 C1299 1.425 . S
C1294 C1301 1.409 . S
C1295 H1287 0.930 . S
C1295 C1293 1.419 . S
C1295 C1296 1.362 1_545 S
C1296 H1288 0.930 . S
C1296 C1295 1.362 1_565 S
C1296 C1299 1.409 . S
C1297 H1289 0.930 . S
C1297 C1298 1.355 . S
C1297 C1299 1.415 . S
C1298 C1297 1.355 . S
C1298 C1300 1.419 . S
C1299 C1294 1.425 . S
C1299 C1296 1.409 . S
C1299 C1297 1.415 . S
C1300 H1290 0.930 . S
C1300 C1298 1.419 . S
C1300 C1301 1.362 . S
C1301 H1291 0.930 . S
C1301 C1294 1.409 . S
C1301 C1300 1.362 . S
H1302 C1308 0.930 . S
H1303 C1311 0.930 . S
H1304 C1312 0.930 . S
H1305 C1313 0.930 . S
H1306 C1316 0.930 . S
H1307 C1317 0.930 . S
C1308 H1302 0.930 . S
C1308 C1309 1.355 . S
C1308 C1310 1.415 . S
C1309 C1308 1.355 . S
C1309 C1311 1.419 . S
C1310 C1308 1.415 . S
C1310 C1315 1.425 . S
C1310 C1317 1.409 . S
C1311 H1303 0.930 . S
C1311 C1309 1.419 . S
C1311 C1312 1.362 . S
C1312 H1304 0.930 . S
C1312 C1311 1.362 . S
C1312 C1315 1.409 . S
C1313 H1305 0.930 . S
C1313 C1314 1.355 . S
C1313 C1315 1.415 . S
C1314 C1313 1.355 . S
C1314 C1316 1.419 . S
C1315 C1310 1.425 . S
C1315 C1312 1.409 . S
C1315 C1313 1.415 . S
C1316 H1306 0.930 . S
C1316 C1314 1.419 . S
C1316 C1317 1.362 . S
C1317 H1307 0.930 . S
C1317 C1310 1.409 . S
C1317 C1316 1.362 . S
H1318 C1324 0.930 . S
H1319 C1327 0.930 . S
H1320 C1328 0.930 . S
H1321 C1329 0.930 . S
H1322 C1332 0.930 . S
H1323 C1333 0.930 . S
C1324 H1318 0.930 . S
C1324 C1325 1.355 . S
C1324 C1326 1.415 . S
C1325 C1324 1.355 . S
C1325 C1327 1.419 . S
C1326 C1324 1.415 . S
C1326 C1331 1.425 . S
C1326 C1333 1.409 . S
C1327 H1319 0.930 . S
C1327 C1325 1.419 . S
C1327 C1328 1.362 . S
C1328 H1320 0.930 . S
C1328 C1327 1.362 . S
C1328 C1331 1.409 . S
C1329 H1321 0.930 . S
C1329 C1330 1.355 . S
C1329 C1331 1.415 . S
C1330 C1329 1.355 . S
C1330 C1332 1.419 . S
C1331 C1326 1.425 . S
C1331 C1328 1.409 . S
C1331 C1329 1.415 . S
C1332 H1322 0.930 . S
C1332 C1330 1.419 . S
C1332 C1333 1.362 . S
C1333 H1323 0.930 . S
C1333 C1326 1.409 . S
C1333 C1332 1.362 . S
H1334 C1340 0.930 . S
H1335 C1343 0.930 . S
H1336 C1344 0.930 . S
H1337 C1345 0.930 . S
H1338 C1348 0.930 . S
H1339 C1349 0.930 . S
C1340 H1334 0.930 . S
C1340 C1341 1.355 . S
C1340 C1342 1.415 . S
C1341 C1340 1.355 . S
C1341 C1343 1.419 . S
C1342 C1340 1.415 . S
C1342 C1347 1.425 . S
C1342 C1349 1.409 . S
C1343 H1335 0.930 . S
C1343 C1341 1.419 . S
C1343 C1344 1.362 . S
C1344 H1336 0.930 . S
C1344 C1343 1.362 . S
C1344 C1347 1.409 . S
C1345 H1337 0.930 . S
C1345 C1346 1.355 . S
C1345 C1347 1.415 . S
C1346 C1345 1.355 . S
C1346 C1348 1.419 . S
C1347 C1342 1.425 . S
C1347 C1344 1.409 . S
C1347 C1345 1.415 . S
C1348 H1338 0.930 . S
C1348 C1346 1.419 . S
C1348 C1349 1.362 . S
C1349 H1339 0.930 . S
C1349 C1342 1.409 . S
C1349 C1348 1.362 . S
H1350 C1356 0.930 . S
H1351 C1359 0.930 . S
H1352 C1360 0.930 . S
H1353 C1361 0.930 . S
H1354 C1364 0.930 . S
H1355 C1365 0.930 . S
C1356 H1350 0.930 . S
C1356 C1357 1.355 . S
C1356 C1358 1.415 . S
C1357 C1356 1.355 . S
C1357 C1359 1.419 . S
C1358 C1356 1.415 . S
C1358 C1363 1.425 . S
C1358 C1365 1.409 . S
C1359 H1351 0.930 . S
C1359 C1357 1.419 . S
C1359 C1360 1.362 . S
C1360 H1352 0.930 . S
C1360 C1359 1.362 . S
C1360 C1363 1.409 . S
C1361 H1353 0.930 . S
C1361 C1362 1.355 . S
C1361 C1363 1.415 . S
C1362 C1361 1.355 . S
C1362 C1364 1.419 . S
C1363 C1358 1.425 . S
C1363 C1360 1.409 . S
C1363 C1361 1.415 . S
C1364 H1354 0.930 . S
C1364 C1362 1.419 . S
C1364 C1365 1.362 . S
C1365 H1355 0.930 . S
C1365 C1358 1.409 . S
C1365 C1364 1.362 . S
H1366 C1372 0.930 . S
H1367 C1375 0.930 . S
H1368 C1376 0.930 . S
H1369 C1377 0.930 . S
H1370 C1380 0.930 . S
H1371 C1381 0.930 . S
C1372 H1366 0.930 . S
C1372 C1373 1.355 . S
C1372 C1374 1.415 . S
C1373 C1372 1.355 . S
C1373 C1375 1.419 . S
C1374 C1372 1.415 . S
C1374 C1379 1.425 . S
C1374 C1381 1.409 . S
C1375 H1367 0.930 . S
C1375 C1373 1.419 . S
C1375 C1376 1.362 . S
C1376 H1368 0.930 . S
C1376 C1375 1.362 . S
C1376 C1379 1.409 . S
C1377 H1369 0.930 . S
C1377 C1378 1.355 . S
C1377 C1379 1.415 . S
C1378 C1377 1.355 . S
C1378 C1380 1.419 . S
C1379 C1374 1.425 . S
C1379 C1376 1.409 . S
C1379 C1377 1.415 . S
C1380 H1370 0.930 . S
C1380 C1378 1.419 . S
C1380 C1381 1.362 . S
C1381 H1371 0.930 . S
C1381 C1374 1.409 . S
C1381 C1380 1.362 . S
H1382 C1388 0.930 . S
H1383 C1391 0.930 . S
H1384 C1392 0.930 . S
H1385 C1393 0.930 . S
H1386 C1396 0.930 . S
H1387 C1397 0.930 . S
C1388 H1382 0.930 . S
C1388 C1389 1.355 . S
C1388 C1390 1.415 . S
C1389 C1388 1.355 . S
C1389 C1391 1.419 . S
C1390 C1388 1.415 . S
C1390 C1395 1.425 . S
C1390 C1397 1.409 . S
C1391 H1383 0.930 . S
C1391 C1389 1.419 . S
C1391 C1392 1.362 . S
C1392 H1384 0.930 . S
C1392 C1391 1.362 . S
C1392 C1395 1.409 . S
C1393 H1385 0.930 . S
C1393 C1394 1.355 . S
C1393 C1395 1.415 . S
C1394 C1393 1.355 . S
C1394 C1396 1.419 . S
C1395 C1390 1.425 . S
C1395 C1392 1.409 . S
C1395 C1393 1.415 . S
C1396 H1386 0.930 . S
C1396 C1394 1.419 . S
C1396 C1397 1.362 . S
C1397 H1387 0.930 . S
C1397 C1390 1.409 . S
C1397 C1396 1.362 . S
H1398 C1404 0.930 . S
H1399 C1407 0.930 . S
H1400 C1408 0.930 . S
H1401 C1409 0.930 . S
H1402 C1412 0.930 . S
H1403 C1413 0.930 . S
C1404 H1398 0.930 . S
C1404 C1405 1.355 . S
C1404 C1406 1.415 1_545 S
C1405 C1404 1.355 . S
C1405 C1407 1.419 . S
C1406 C1404 1.415 1_565 S
C1406 C1411 1.425 . S
C1406 C1413 1.409 . S
C1407 H1399 0.930 . S
C1407 C1405 1.419 . S
C1407 C1408 1.362 1_545 S
C1408 H1400 0.930 . S
C1408 C1407 1.362 1_565 S
C1408 C1411 1.409 . S
C1409 H1401 0.930 . S
C1409 C1410 1.355 . S
C1409 C1411 1.415 . S
C1410 C1409 1.355 . S
C1410 C1412 1.419 . S
C1411 C1406 1.425 . S
C1411 C1408 1.409 . S
C1411 C1409 1.415 . S
C1412 H1402 0.930 . S
C1412 C1410 1.419 . S
C1412 C1413 1.362 . S
C1413 H1403 0.930 . S
C1413 C1406 1.409 . S
C1413 C1412 1.362 . S
H1414 C1420 0.930 . S
H1415 C1423 0.930 1_655 S
H1416 C1424 0.930 . S
H1417 C1425 0.930 . S
H1418 C1428 0.930 . S
H1419 C1429 0.930 . S
C1420 H1414 0.930 . S
C1420 C1421 1.355 . S
C1420 C1422 1.415 . S
C1421 C1420 1.355 . S
C1421 C1423 1.419 . S
C1422 C1420 1.415 . S
C1422 C1427 1.425 . S
C1422 C1429 1.409 . S
C1423 H1415 0.930 1_455 S
C1423 C1421 1.419 . S
C1423 C1424 1.362 . S
C1424 H1416 0.930 . S
C1424 C1423 1.362 . S
C1424 C1427 1.409 . S
C1425 H1417 0.930 . S
C1425 C1426 1.355 . S
C1425 C1427 1.415 . S
C1426 C1425 1.355 . S
C1426 C1428 1.419 . S
C1427 C1422 1.425 . S
C1427 C1424 1.409 . S
C1427 C1425 1.415 . S
C1428 H1418 0.930 . S
C1428 C1426 1.419 . S
C1428 C1429 1.362 . S
C1429 H1419 0.930 . S
C1429 C1422 1.409 . S
C1429 C1428 1.362 . S
H1430 C1436 0.930 . S
H1431 C1439 0.930 . S
H1432 C1440 0.930 . S
H1433 C1441 0.930 . S
H1434 C1444 0.930 . S
H1435 C1445 0.930 . S
C1436 H1430 0.930 . S
C1436 C1437 1.355 . S
C1436 C1438 1.415 . S
C1437 C1436 1.355 . S
C1437 C1439 1.419 . S
C1438 C1436 1.415 . S
C1438 C1443 1.425 . S
C1438 C1445 1.409 . S
C1439 H1431 0.930 . S
C1439 C1437 1.419 . S
C1439 C1440 1.362 . S
C1440 H1432 0.930 . S
C1440 C1439 1.362 . S
C1440 C1443 1.409 . S
C1441 H1433 0.930 . S
C1441 C1442 1.355 . S
C1441 C1443 1.415 . S
C1442 C1441 1.355 . S
C1442 C1444 1.419 . S
C1443 C1438 1.425 . S
C1443 C1440 1.409 . S
C1443 C1441 1.415 . S
C1444 H1434 0.930 . S
C1444 C1442 1.419 . S
C1444 C1445 1.362 . S
C1445 H1435 0.930 . S
C1445 C1438 1.409 . S
C1445 C1444 1.362 . S
H1446 C1452 0.930 . S
H1447 C1455 0.930 . S
H1448 C1456 0.930 . S
H1449 C1457 0.930 . S
H1450 C1460 0.930 . S
H1451 C1461 0.930 . S
C1452 H1446 0.930 . S
C1452 C1453 1.355 . S
C1452 C1454 1.415 . S
C1453 C1452 1.355 . S
C1453 C1455 1.419 . S
C1454 C1452 1.415 . S
C1454 C1459 1.425 . S
C1454 C1461 1.409 . S
C1455 H1447 0.930 . S
C1455 C1453 1.419 . S
C1455 C1456 1.362 . S
C1456 H1448 0.930 . S
C1456 C1455 1.362 . S
C1456 C1459 1.409 . S
C1457 H1449 0.930 . S
C1457 C1458 1.355 . S
C1457 C1459 1.415 . S
C1458 C1457 1.355 . S
C1458 C1460 1.419 . S
C1459 C1454 1.425 . S
C1459 C1456 1.409 . S
C1459 C1457 1.415 . S
C1460 H1450 0.930 . S
C1460 C1458 1.419 . S
C1460 C1461 1.362 . S
C1461 H1451 0.930 . S
C1461 C1454 1.409 . S
C1461 C1460 1.362 . S
H1462 C1468 0.930 . S
H1463 C1471 0.930 . S
H1464 C1472 0.930 . S
H1465 C1473 0.930 . S
H1466 C1476 0.930 . S
H1467 C1477 0.930 . S
C1468 H1462 0.930 . S
C1468 C1469 1.355 . S
C1468 C1470 1.415 . S
C1469 C1468 1.355 . S
C1469 C1471 1.419 . S
C1470 C1468 1.415 . S
C1470 C1475 1.425 . S
C1470 C1477 1.409 . S
C1471 H1463 0.930 . S
C1471 C1469 1.419 . S
C1471 C1472 1.362 . S
C1472 H1464 0.930 . S
C1472 C1471 1.362 . S
C1472 C1475 1.409 . S
C1473 H1465 0.930 . S
C1473 C1474 1.355 . S
C1473 C1475 1.415 . S
C1474 C1473 1.355 . S
C1474 C1476 1.419 . S
C1475 C1470 1.425 . S
C1475 C1472 1.409 . S
C1475 C1473 1.415 . S
C1476 H1466 0.930 . S
C1476 C1474 1.419 . S
C1476 C1477 1.362 . S
C1477 H1467 0.930 . S
C1477 C1470 1.409 . S
C1477 C1476 1.362 . S
H1478 C1484 0.930 . S
H1479 C1487 0.930 . S
H1480 C1488 0.930 . S
H1481 C1489 0.930 . S
H1482 C1492 0.930 . S
H1483 C1493 0.930 . S
C1484 H1478 0.930 . S
C1484 C1485 1.355 . S
C1484 C1486 1.415 . S
C1485 C1484 1.355 . S
C1485 C1487 1.419 . S
C1486 C1484 1.415 . S
C1486 C1491 1.425 . S
C1486 C1493 1.409 . S
C1487 H1479 0.930 . S
C1487 C1485 1.419 . S
C1487 C1488 1.362 . S
C1488 H1480 0.930 . S
C1488 C1487 1.362 . S
C1488 C1491 1.409 . S
C1489 H1481 0.930 . S
C1489 C1490 1.355 . S
C1489 C1491 1.415 . S
C1490 C1489 1.355 . S
C1490 C1492 1.419 . S
C1491 C1486 1.425 . S
C1491 C1488 1.409 . S
C1491 C1489 1.415 . S
C1492 H1482 0.930 . S
C1492 C1490 1.419 . S
C1492 C1493 1.362 . S
C1493 H1483 0.930 . S
C1493 C1486 1.409 . S
C1493 C1492 1.362 . S
H1494 C1500 0.930 . S
H1495 C1503 0.930 . S
H1496 C1504 0.930 . S
H1497 C1505 0.930 . S
H1498 C1508 0.930 . S
H1499 C1509 0.930 . S
C1500 H1494 0.930 . S
C1500 C1501 1.355 . S
C1500 C1502 1.415 1_565 S
C1501 C1500 1.355 . S
C1501 C1503 1.419 . S
C1502 C1500 1.415 1_545 S
C1502 C1507 1.425 . S
C1502 C1509 1.409 . S
C1503 H1495 0.930 . S
C1503 C1501 1.419 . S
C1503 C1504 1.362 1_565 S
C1504 H1496 0.930 . S
C1504 C1503 1.362 1_545 S
C1504 C1507 1.409 . S
C1505 H1497 0.930 . S
C1505 C1506 1.355 . S
C1505 C1507 1.415 . S
C1506 C1505 1.355 . S
C1506 C1508 1.419 . S
C1507 C1502 1.425 . S
C1507 C1504 1.409 . S
C1507 C1505 1.415 . S
C1508 H1498 0.930 . S
C1508 C1506 1.419 . S
C1508 C1509 1.362 . S
C1509 H1499 0.930 . S
C1509 C1502 1.409 . S
C1509 C1508 1.362 . S
H1510 C1516 0.930 . S
H1511 C1519 0.930 . S
H1512 C1520 0.930 . S
H1513 C1521 0.930 . S
H1514 C1524 0.930 . S
H1515 C1525 0.930 . S
C1516 H1510 0.930 . S
C1516 C1517 1.355 . S
C1516 C1518 1.415 . S
C1517 C1516 1.355 . S
C1517 C1519 1.419 . S
C1518 C1516 1.415 . S
C1518 C1523 1.425 . S
C1518 C1525 1.409 . S
C1519 H1511 0.930 . S
C1519 C1517 1.419 . S
C1519 C1520 1.362 . S
C1520 H1512 0.930 . S
C1520 C1519 1.362 . S
C1520 C1523 1.409 . S
C1521 H1513 0.930 . S
C1521 C1522 1.355 . S
C1521 C1523 1.415 . S
C1522 C1521 1.355 . S
C1522 C1524 1.419 . S
C1523 C1518 1.425 . S
C1523 C1520 1.409 . S
C1523 C1521 1.415 . S
C1524 H1514 0.930 . S
C1524 C1522 1.419 . S
C1524 C1525 1.362 . S
C1525 H1515 0.930 . S
C1525 C1518 1.409 . S
C1525 C1524 1.362 . S
H1526 C1532 0.930 . S
H1527 C1535 0.930 . S
H1528 C1536 0.930 . S
H1529 C1537 0.930 . S
H1530 C1540 0.930 . S
H1531 C1541 0.930 . S
C1532 H1526 0.930 . S
C1532 C1533 1.355 . S
C1532 C1534 1.415 . S
C1533 C1532 1.355 . S
C1533 C1535 1.419 . S
C1534 C1532 1.415 . S
C1534 C1539 1.425 . S
C1534 C1541 1.409 . S
C1535 H1527 0.930 . S
C1535 C1533 1.419 . S
C1535 C1536 1.362 . S
C1536 H1528 0.930 . S
C1536 C1535 1.362 . S
C1536 C1539 1.409 . S
C1537 H1529 0.930 . S
C1537 C1538 1.355 . S
C1537 C1539 1.415 . S
C1538 C1537 1.355 . S
C1538 C1540 1.419 . S
C1539 C1534 1.425 . S
C1539 C1536 1.409 . S
C1539 C1537 1.415 . S
C1540 H1530 0.930 . S
C1540 C1538 1.419 . S
C1540 C1541 1.362 . S
C1541 H1531 0.930 . S
C1541 C1534 1.409 . S
C1541 C1540 1.362 . S
H1542 C1548 0.930 1_455 S
H1543 C1551 0.908 1_455 S
H1544 C1552 0.930 . S
H1545 C1553 0.930 . S
H1546 C1556 0.930 . S
H1547 C1557 0.930 . S
C1548 H1542 0.930 1_655 S
C1548 C1549 1.355 1_655 S
C1548 C1550 1.415 . S
C1549 C1548 1.355 1_455 S
C1549 C1551 1.419 1_455 S
C1550 C1548 1.415 . S
C1550 C1555 1.425 . S
C1550 C1557 1.409 . S
C1551 H1543 0.908 1_655 S
C1551 C1549 1.419 1_655 S
C1551 C1552 1.362 . S
C1552 H1544 0.930 . S
C1552 C1551 1.362 . S
C1552 C1555 1.409 . S
C1553 H1545 0.930 . S
C1553 C1554 1.355 . S
C1553 C1555 1.415 . S
C1554 C1553 1.355 . S
C1554 C1556 1.419 . S
C1555 C1550 1.425 . S
C1555 C1552 1.409 . S
C1555 C1553 1.415 . S
C1556 H1546 0.930 . S
C1556 C1554 1.419 . S
C1556 C1557 1.362 . S
C1557 H1547 0.930 . S
C1557 C1550 1.409 . S
C1557 C1556 1.362 . S
H1558 C1564 0.930 . S
H1559 C1567 0.930 . S
H1560 C1568 0.930 . S
H1561 C1569 0.930 . S
H1562 C1572 0.930 . S
H1563 C1573 0.930 . S
C1564 H1558 0.930 . S
C1564 C1565 1.355 . S
C1564 C1566 1.415 . S
C1565 C1564 1.355 . S
C1565 C1567 1.419 . S
C1566 C1564 1.415 . S
C1566 C1571 1.425 . S
C1566 C1573 1.409 . S
C1567 H1559 0.930 . S
C1567 C1565 1.419 . S
C1567 C1568 1.362 . S
C1568 H1560 0.930 . S
C1568 C1567 1.362 . S
C1568 C1571 1.409 . S
C1569 H1561 0.930 . S
C1569 C1570 1.355 . S
C1569 C1571 1.415 . S
C1570 C1569 1.355 . S
C1570 C1572 1.419 . S
C1571 C1566 1.425 . S
C1571 C1568 1.409 . S
C1571 C1569 1.415 . S
C1572 H1562 0.930 . S
C1572 C1570 1.419 . S
C1572 C1573 1.362 . S
C1573 H1563 0.930 . S
C1573 C1566 1.409 . S
C1573 C1572 1.362 . S
H1574 C1580 0.930 . S
H1575 C1583 0.930 . S
H1576 C1584 0.930 . S
H1577 C1585 0.930 . S
H1578 C1588 0.930 . S
H1579 C1589 0.930 . S
C1580 H1574 0.930 . S
C1580 C1581 1.355 . S
C1580 C1582 1.415 1_565 S
C1581 C1580 1.355 . S
C1581 C1583 1.419 . S
C1582 C1580 1.415 1_545 S
C1582 C1587 1.425 . S
C1582 C1589 1.409 . S
C1583 H1575 0.930 . S
C1583 C1581 1.419 . S
C1583 C1584 1.362 1_565 S
C1584 H1576 0.930 . S
C1584 C1583 1.362 1_545 S
C1584 C1587 1.409 . S
C1585 H1577 0.930 . S
C1585 C1586 1.355 . S
C1585 C1587 1.415 . S
C1586 C1585 1.355 . S
C1586 C1588 1.419 . S
C1587 C1582 1.425 . S
C1587 C1584 1.409 . S
C1587 C1585 1.415 . S
C1588 H1578 0.930 . S
C1588 C1586 1.419 . S
C1588 C1589 1.362 . S
C1589 H1579 0.930 . S
C1589 C1582 1.409 . S
C1589 C1588 1.362 . S
H1590 C1596 0.930 . S
H1591 C1599 0.930 . S
H1592 C1600 0.930 . S
H1593 C1601 0.930 . S
H1594 C1604 0.930 . S
H1595 C1605 0.930 . S
C1596 H1590 0.930 . S
C1596 C1597 1.355 . S
C1596 C1598 1.415 . S
C1597 C1596 1.355 . S
C1597 C1599 1.419 . S
C1598 C1596 1.415 . S
C1598 C1603 1.425 . S
C1598 C1605 1.409 . S
C1599 H1591 0.930 . S
C1599 C1597 1.419 . S
C1599 C1600 1.362 . S
C1600 H1592 0.930 . S
C1600 C1599 1.362 . S
C1600 C1603 1.409 . S
C1601 H1593 0.930 . S
C1601 C1602 1.355 . S
C1601 C1603 1.415 . S
C1602 C1601 1.355 . S
C1602 C1604 1.419 . S
C1603 C1598 1.425 . S
C1603 C1600 1.409 . S
C1603 C1601 1.415 . S
C1604 H1594 0.930 . S
C1604 C1602 1.419 . S
C1604 C1605 1.362 . S
C1605 H1595 0.930 . S
C1605 C1598 1.409 . S
C1605 C1604 1.362 . S
H1606 C1612 0.930 . S
H1607 C1615 0.930 . S
H1608 C1616 0.930 . S
H1609 C1617 0.930 . S
H1610 C1620 0.930 . S
H1611 C1621 0.930 . S
C1612 H1606 0.930 . S
C1612 C1613 1.355 . S
C1612 C1614 1.415 . S
C1613 C1612 1.355 . S
C1613 C1615 1.419 . S
C1614 C1612 1.415 . S
C1614 C1619 1.425 . S
C1614 C1621 1.409 . S
C1615 H1607 0.930 . S
C1615 C1613 1.419 . S
C1615 C1616 1.362 . S
C1616 H1608 0.930 . S
C1616 C1615 1.362 . S
C1616 C1619 1.409 . S
C1617 H1609 0.930 . S
C1617 C1618 1.355 . S
C1617 C1619 1.415 . S
C1618 C1617 1.355 . S
C1618 C1620 1.419 . S
C1619 C1614 1.425 . S
C1619 C1616 1.409 . S
C1619 C1617 1.415 . S
C1620 H1610 0.930 . S
C1620 C1618 1.419 . S
C1620 C1621 1.362 . S
C1621 H1611 0.930 . S
C1621 C1614 1.409 . S
C1621 C1620 1.362 . S
H1622 C1628 0.930 . S
H1623 C1631 0.930 . S
H1624 C1632 0.930 . S
H1625 C1633 0.930 . S
H1626 C1636 0.930 . S
H1627 C1637 0.930 . S
C1628 H1622 0.930 . S
C1628 C1629 1.355 . S
C1628 C1630 1.415 . S
C1629 C1628 1.355 . S
C1629 C1631 1.419 . S
C1630 C1628 1.415 . S
C1630 C1635 1.425 . S
C1630 C1637 1.409 . S
C1631 H1623 0.930 . S
C1631 C1629 1.419 . S
C1631 C1632 1.362 . S
C1632 H1624 0.930 . S
C1632 C1631 1.362 . S
C1632 C1635 1.409 . S
C1633 H1625 0.930 . S
C1633 C1634 1.355 . S
C1633 C1635 1.415 . S
C1634 C1633 1.355 . S
C1634 C1636 1.419 . S
C1635 C1630 1.425 . S
C1635 C1632 1.409 . S
C1635 C1633 1.415 . S
C1636 H1626 0.930 . S
C1636 C1634 1.419 . S
C1636 C1637 1.362 . S
C1637 H1627 0.930 . S
C1637 C1630 1.409 . S
C1637 C1636 1.362 . S
H1638 C1644 0.930 . S
H1639 C1647 0.930 . S
H1640 C1648 0.930 . S
H1641 C1649 0.930 1_545 S
H1642 C1652 0.930 . S
H1643 C1653 0.930 . S
C1644 H1638 0.930 . S
C1644 C1645 1.355 . S
C1644 C1646 1.415 . S
C1645 C1644 1.355 . S
C1645 C1647 1.419 . S
C1646 C1644 1.415 . S
C1646 C1651 1.425 . S
C1646 C1653 1.409 . S
C1647 H1639 0.930 . S
C1647 C1645 1.419 . S
C1647 C1648 1.362 . S
C1648 H1640 0.930 . S
C1648 C1647 1.362 . S
C1648 C1651 1.409 . S
C1649 H1641 0.930 1_565 S
C1649 C1650 1.355 . S
C1649 C1651 1.415 . S
C1650 C1649 1.355 . S
C1650 C1652 1.419 . S
C1651 C1646 1.425 . S
C1651 C1648 1.409 . S
C1651 C1649 1.415 . S
C1652 H1642 0.930 . S
C1652 C1650 1.419 . S
C1652 C1653 1.362 . S
C1653 H1643 0.930 . S
C1653 C1646 1.409 . S
C1653 C1652 1.362 . S
H1654 C1660 0.930 . S
H1655 C1663 0.930 . S
H1656 C1664 0.930 . S
H1657 C1665 0.930 . S
H1658 C1668 0.930 . S
H1659 C1669 0.930 . S
C1660 H1654 0.930 . S
C1660 C1661 1.355 . S
C1660 C1662 1.415 . S
C1661 C1660 1.355 . S
C1661 C1663 1.419 1_455 S
C1662 C1660 1.415 . S
C1662 C1667 1.425 1_455 S
C1662 C1669 1.409 . S
C1663 H1655 0.930 . S
C1663 C1661 1.419 1_655 S
C1663 C1664 1.362 . S
C1664 H1656 0.930 . S
C1664 C1663 1.362 . S
C1664 C1667 1.409 . S
C1665 H1657 0.930 . S
C1665 C1666 1.355 1_655 S
C1665 C1667 1.415 . S
C1666 C1665 1.355 1_455 S
C1666 C1668 1.419 . S
C1667 C1662 1.425 1_655 S
C1667 C1664 1.409 . S
C1667 C1665 1.415 . S
C1668 H1658 0.930 . S
C1668 C1666 1.419 . S
C1668 C1669 1.362 . S
C1669 H1659 0.930 . S
C1669 C1662 1.409 . S
C1669 C1668 1.362 . S
H1670 C1676 0.930 . S
H1671 C1679 0.930 . S
H1672 C1680 0.930 . S
H1673 C1681 0.930 . S
H1674 C1684 0.930 . S
H1675 C1685 0.930 . S
C1676 H1670 0.930 . S
C1676 C1677 1.355 . S
C1676 C1678 1.415 . S
C1677 C1676 1.355 . S
C1677 C1679 1.419 . S
C1678 C1676 1.415 . S
C1678 C1683 1.425 . S
C1678 C1685 1.409 . S
C1679 H1671 0.930 . S
C1679 C1677 1.419 . S
C1679 C1680 1.362 . S
C1680 H1672 0.930 . S
C1680 C1679 1.362 . S
C1680 C1683 1.409 . S
C1681 H1673 0.930 . S
C1681 C1682 1.355 . S
C1681 C1683 1.415 . S
C1682 C1681 1.355 . S
C1682 C1684 1.419 . S
C1683 C1678 1.425 . S
C1683 C1680 1.409 . S
C1683 C1681 1.415 . S
C1684 H1674 0.930 . S
C1684 C1682 1.419 . S
C1684 C1685 1.362 . S
C1685 H1675 0.930 . S
C1685 C1678 1.409 . S
C1685 C1684 1.362 . S
H1686 C1692 0.930 . S
H1687 C1695 0.930 . S
H1688 C1696 0.930 . S
H1689 C1697 0.933 1_455 S
H1690 C1700 0.930 . S
H1691 C1701 0.930 . S
C1692 H1686 0.930 . S
C1692 C1693 1.355 . S
C1692 C1694 1.415 . S
C1693 C1692 1.355 . S
C1693 C1695 1.419 1_655 S
C1694 C1692 1.415 . S
C1694 C1699 1.425 . S
C1694 C1701 1.409 . S
C1695 H1687 0.930 . S
C1695 C1693 1.419 1_455 S
C1695 C1696 1.362 . S
C1696 H1688 0.930 . S
C1696 C1695 1.362 . S
C1696 C1699 1.409 1_455 S
C1697 H1689 0.933 1_655 S
C1697 C1698 1.355 . S
C1697 C1699 1.415 . S
C1698 C1697 1.355 . S
C1698 C1700 1.419 . S
C1699 C1694 1.425 . S
C1699 C1696 1.409 1_655 S
C1699 C1697 1.415 . S
C1700 H1690 0.930 . S
C1700 C1698 1.419 . S
C1700 C1701 1.362 . S
C1701 H1691 0.930 . S
C1701 C1694 1.409 . S
C1701 C1700 1.362 . S
H1702 C1708 0.930 . S
H1703 C1711 0.930 . S
H1704 C1712 0.930 . S
H1705 C1713 0.930 . S
H1706 C1716 0.930 . S
H1707 C1717 0.930 . S
C1708 H1702 0.930 . S
C1708 C1709 1.355 . S
C1708 C1710 1.415 . S
C1709 C1708 1.355 . S
C1709 C1711 1.419 . S
C1710 C1708 1.415 . S
C1710 C1715 1.425 . S
C1710 C1717 1.409 . S
C1711 H1703 0.930 . S
C1711 C1709 1.419 . S
C1711 C1712 1.362 . S
C1712 H1704 0.930 . S
C1712 C1711 1.362 . S
C1712 C1715 1.409 . S
C1713 H1705 0.930 . S
C1713 C1714 1.355 . S
C1713 C1715 1.415 . S
C1714 C1713 1.355 . S
C1714 C1716 1.419 . S
C1715 C1710 1.425 . S
C1715 C1712 1.409 . S
C1715 C1713 1.415 . S
C1716 H1706 0.930 . S
C1716 C1714 1.419 . S
C1716 C1717 1.362 . S
C1717 H1707 0.930 . S
C1717 C1710 1.409 . S
C1717 C1716 1.362 . S
H1718 C1724 0.930 1_565 S
H1719 C1727 0.930 . S
H1720 C1728 0.930 . S
H1721 C1729 0.930 . S
H1722 C1732 0.930 . S
H1723 C1733 0.930 . S
C1724 H1718 0.930 1_545 S
C1724 C1725 1.355 . S
C1724 C1726 1.415 . S
C1725 C1724 1.355 . S
C1725 C1727 1.419 . S
C1726 C1724 1.415 . S
C1726 C1731 1.425 . S
C1726 C1733 1.409 1_545 S
C1727 H1719 0.930 . S
C1727 C1725 1.419 . S
C1727 C1728 1.362 . S
C1728 H1720 0.930 . S
C1728 C1727 1.362 . S
C1728 C1731 1.409 . S
C1729 H1721 0.930 . S
C1729 C1730 1.355 . S
C1729 C1731 1.415 . S
C1730 C1729 1.355 . S
C1730 C1732 1.419 1_545 S
C1731 C1726 1.425 . S
C1731 C1728 1.409 . S
C1731 C1729 1.415 . S
C1732 H1722 0.930 . S
C1732 C1730 1.419 1_565 S
C1732 C1733 1.362 . S
C1733 H1723 0.930 . S
C1733 C1726 1.409 1_565 S
C1733 C1732 1.362 . S
H1734 C1740 0.930 . S
H1735 C1743 0.930 . S
H1736 C1744 0.930 . S
H1737 C1745 0.930 . S
H1738 C1748 0.930 . S
H1739 C1749 0.930 . S
C1740 H1734 0.930 . S
C1740 C1741 1.355 . S
C1740 C1742 1.415 . S
C1741 C1740 1.355 . S
C1741 C1743 1.419 . S
C1742 C1740 1.415 . S
C1742 C1747 1.425 . S
C1742 C1749 1.409 . S
C1743 H1735 0.930 . S
C1743 C1741 1.419 . S
C1743 C1744 1.362 . S
C1744 H1736 0.930 . S
C1744 C1743 1.362 . S
C1744 C1747 1.409 . S
C1745 H1737 0.930 . S
C1745 C1746 1.355 . S
C1745 C1747 1.415 . S
C1746 C1745 1.355 . S
C1746 C1748 1.419 . S
C1747 C1742 1.425 . S
C1747 C1744 1.409 . S
C1747 C1745 1.415 . S
C1748 H1738 0.930 . S
C1748 C1746 1.419 . S
C1748 C1749 1.362 . S
C1749 H1739 0.930 . S
C1749 C1742 1.409 . S
C1749 C1748 1.362 . S
H1750 C1756 0.930 . S
H1751 C1759 0.930 . S
H1752 C1760 0.930 . S
H1753 C1761 0.930 . S
H1754 C1764 0.930 . S
H1755 C1765 0.930 . S
C1756 H1750 0.930 . S
C1756 C1757 1.355 . S
C1756 C1758 1.415 . S
C1757 C1756 1.355 . S
C1757 C1759 1.419 . S
C1758 C1756 1.415 . S
C1758 C1763 1.425 . S
C1758 C1765 1.409 . S
C1759 H1751 0.930 . S
C1759 C1757 1.419 . S
C1759 C1760 1.362 . S
C1760 H1752 0.930 . S
C1760 C1759 1.362 . S
C1760 C1763 1.409 . S
C1761 H1753 0.930 . S
C1761 C1762 1.355 . S
C1761 C1763 1.415 . S
C1762 C1761 1.355 . S
C1762 C1764 1.419 . S
C1763 C1758 1.425 . S
C1763 C1760 1.409 . S
C1763 C1761 1.415 . S
C1764 H1754 0.930 . S
C1764 C1762 1.419 . S
C1764 C1765 1.362 . S
C1765 H1755 0.930 . S
C1765 C1758 1.409 . S
C1765 C1764 1.362 . S
H1766 C1772 0.930 . S
H1767 C1775 0.930 . S
H1768 C1776 0.930 . S
H1769 C1777 0.930 . S
H1770 C1780 0.930 . S
H1771 C1781 0.930 . S
C1772 H1766 0.930 . S
C1772 C1773 1.355 . S
C1772 C1774 1.415 . S
C1773 C1772 1.355 . S
C1773 C1775 1.419 . S
C1774 C1772 1.415 . S
C1774 C1779 1.425 . S
C1774 C1781 1.409 . S
C1775 H1767 0.930 . S
C1775 C1773 1.419 . S
C1775 C1776 1.362 . S
C1776 H1768 0.930 . S
C1776 C1775 1.362 . S
C1776 C1779 1.409 . S
C1777 H1769 0.930 . S
C1777 C1778 1.355 . S
C1777 C1779 1.415 . S
C1778 C1777 1.355 . S
C1778 C1780 1.419 . S
C1779 C1774 1.425 . S
C1779 C1776 1.409 . S
C1779 C1777 1.415 . S
C1780 H1770 0.930 . S
C1780 C1778 1.419 . S
C1780 C1781 1.362 . S
C1781 H1771 0.930 . S
C1781 C1774 1.409 . S
C1781 C1780 1.362 . S
H1782 C1788 0.930 . S
H1783 C1791 0.930 . S
H1784 C1792 0.930 . S
H1785 C1793 0.930 . S
H1786 C1796 0.930 . S
H1787 C1797 0.930 . S
C1788 H1782 0.930 . S
C1788 C1789 1.355 . S
C1788 C1790 1.415 . S
C1789 C1788 1.355 . S
C1789 C1791 1.419 . S
C1790 C1788 1.415 . S
C1790 C1795 1.425 . S
C1790 C1797 1.409 . S
C1791 H1783 0.930 . S
C1791 C1789 1.419 . S
C1791 C1792 1.362 . S
C1792 H1784 0.930 . S
C1792 C1791 1.362 . S
C1792 C1795 1.409 . S
C1793 H1785 0.930 . S
C1793 C1794 1.355 . S
C1793 C1795 1.415 . S
C1794 C1793 1.355 . S
C1794 C1796 1.419 . S
C1795 C1790 1.425 . S
C1795 C1792 1.409 . S
C1795 C1793 1.415 . S
C1796 H1786 0.930 . S
C1796 C1794 1.419 . S
C1796 C1797 1.362 . S
C1797 H1787 0.930 . S
C1797 C1790 1.409 . S
C1797 C1796 1.362 . S
H1798 C1804 0.930 . S
H1799 C1807 0.930 . S
H1800 C1808 0.930 . S
H1801 C1809 0.930 . S
H1802 C1812 0.930 . S
H1803 C1813 0.930 . S
C1804 H1798 0.930 . S
C1804 C1805 1.355 . S
C1804 C1806 1.415 . S
C1805 C1804 1.355 . S
C1805 C1807 1.419 . S
C1806 C1804 1.415 . S
C1806 C1811 1.425 . S
C1806 C1813 1.409 . S
C1807 H1799 0.930 . S
C1807 C1805 1.419 . S
C1807 C1808 1.362 . S
C1808 H1800 0.930 . S
C1808 C1807 1.362 . S
C1808 C1811 1.409 . S
C1809 H1801 0.930 . S
C1809 C1810 1.355 . S
C1809 C1811 1.415 . S
C1810 C1809 1.355 . S
C1810 C1812 1.419 . S
C1811 C1806 1.425 . S
C1811 C1808 1.409 . S
C1811 C1809 1.415 . S
C1812 H1802 0.930 . S
C1812 C1810 1.419 . S
C1812 C1813 1.362 . S
C1813 H1803 0.930 . S
C1813 C1806 1.409 . S
C1813 C1812 1.362 . S
H1814 C1820 0.930 . S
H1815 C1823 0.930 . S
H1816 C1824 0.930 . S
H1817 C1825 0.930 . S
H1818 C1828 0.930 . S
H1819 C1829 0.930 . S
C1820 H1814 0.930 . S
C1820 C1821 1.355 . S
C1820 C1822 1.415 . S
C1821 C1820 1.355 . S
C1821 C1823 1.419 . S
C1822 C1820 1.415 . S
C1822 C1827 1.425 . S
C1822 C1829 1.409 . S
C1823 H1815 0.930 . S
C1823 C1821 1.419 . S
C1823 C1824 1.362 . S
C1824 H1816 0.930 . S
C1824 C1823 1.362 . S
C1824 C1827 1.409 . S
C1825 H1817 0.930 . S
C1825 C1826 1.355 . S
C1825 C1827 1.415 . S
C1826 C1825 1.355 . S
C1826 C1828 1.419 . S
C1827 C1822 1.425 . S
C1827 C1824 1.409 . S
C1827 C1825 1.415 . S
C1828 H1818 0.930 . S
C1828 C1826 1.419 . S
C1828 C1829 1.362 . S
C1829 H1819 0.930 . S
C1829 C1822 1.409 . S
C1829 C1828 1.362 . S
H1830 C1836 0.930 . S
H1831 C1839 0.930 . S
H1832 C1840 0.930 . S
H1833 C1841 0.930 . S
H1834 C1844 0.930 . S
H1835 C1845 0.930 . S
C1836 H1830 0.930 . S
C1836 C1837 1.355 . S
C1836 C1838 1.415 . S
C1837 C1836 1.355 . S
C1837 C1839 1.419 . S
C1838 C1836 1.415 . S
C1838 C1843 1.425 . S
C1838 C1845 1.409 . S
C1839 H1831 0.930 . S
C1839 C1837 1.419 . S
C1839 C1840 1.362 . S
C1840 H1832 0.930 . S
C1840 C1839 1.362 . S
C1840 C1843 1.409 . S
C1841 H1833 0.930 . S
C1841 C1842 1.355 . S
C1841 C1843 1.415 . S
C1842 C1841 1.355 . S
C1842 C1844 1.419 . S
C1843 C1838 1.425 . S
C1843 C1840 1.409 . S
C1843 C1841 1.415 . S
C1844 H1834 0.930 . S
C1844 C1842 1.419 . S
C1844 C1845 1.362 . S
C1845 H1835 0.930 . S
C1845 C1838 1.409 . S
C1845 C1844 1.362 . S
H1846 C1852 0.930 . S
H1847 C1855 0.930 . S
H1848 C1856 0.930 . S
H1849 C1857 0.930 . S
H1850 C1860 0.930 . S
H1851 C1861 0.930 . S
C1852 H1846 0.930 . S
C1852 C1853 1.355 . S
C1852 C1854 1.415 . S
C1853 C1852 1.355 . S
C1853 C1855 1.419 . S
C1854 C1852 1.415 . S
C1854 C1859 1.425 . S
C1854 C1861 1.409 . S
C1855 H1847 0.930 . S
C1855 C1853 1.419 . S
C1855 C1856 1.362 . S
C1856 H1848 0.930 . S
C1856 C1855 1.362 . S
C1856 C1859 1.409 . S
C1857 H1849 0.930 . S
C1857 C1858 1.355 . S
C1857 C1859 1.415 . S
C1858 C1857 1.355 . S
C1858 C1860 1.419 . S
C1859 C1854 1.425 . S
C1859 C1856 1.409 . S
C1859 C1857 1.415 . S
C1860 H1850 0.930 . S
C1860 C1858 1.419 . S
C1860 C1861 1.362 . S
C1861 H1851 0.930 . S
C1861 C1854 1.409 . S
C1861 C1860 1.362 . S
H1862 C1868 0.930 . S
H1863 C1871 0.930 . S
H1864 C1872 0.930 . S
H1865 C1873 0.930 . S
H1866 C1876 0.930 . S
H1867 C1877 0.930 . S
C1868 H1862 0.930 . S
C1868 C1869 1.355 . S
C1868 C1870 1.415 . S
C1869 C1868 1.355 . S
C1869 C1871 1.419 . S
C1870 C1868 1.415 . S
C1870 C1875 1.425 . S
C1870 C1877 1.409 . S
C1871 H1863 0.930 . S
C1871 C1869 1.419 . S
C1871 C1872 1.362 . S
C1872 H1864 0.930 . S
C1872 C1871 1.362 . S
C1872 C1875 1.409 . S
C1873 H1865 0.930 . S
C1873 C1874 1.355 . S
C1873 C1875 1.415 . S
C1874 C1873 1.355 . S
C1874 C1876 1.419 . S
C1875 C1870 1.425 . S
C1875 C1872 1.409 . S
C1875 C1873 1.415 . S
C1876 H1866 0.930 . S
C1876 C1874 1.419 . S
C1876 C1877 1.362 . S
C1877 H1867 0.930 . S
C1877 C1870 1.409 . S
C1877 C1876 1.362 . S
H1878 C1884 0.930 . S
H1879 C1887 0.930 . S
H1880 C1888 0.930 . S
H1881 C1889 0.930 . S
H1882 C1892 0.930 . S
H1883 C1893 0.930 . S
C1884 H1878 0.930 . S
C1884 C1885 1.355 . S
C1884 C1886 1.415 . S
C1885 C1884 1.355 . S
C1885 C1887 1.419 . S
C1886 C1884 1.415 . S
C1886 C1891 1.425 . S
C1886 C1893 1.409 . S
C1887 H1879 0.930 . S
C1887 C1885 1.419 . S
C1887 C1888 1.362 . S
C1888 H1880 0.930 . S
C1888 C1887 1.362 . S
C1888 C1891 1.409 . S
C1889 H1881 0.930 . S
C1889 C1890 1.355 . S
C1889 C1891 1.415 . S
C1890 C1889 1.355 . S
C1890 C1892 1.419 . S
C1891 C1886 1.425 . S
C1891 C1888 1.409 . S
C1891 C1889 1.415 . S
C1892 H1882 0.930 . S
C1892 C1890 1.419 . S
C1892 C1893 1.362 . S
C1893 H1883 0.930 . S
C1893 C1886 1.409 . S
C1893 C1892 1.362 . S
H1894 C1900 0.930 . S
H1895 C1903 0.930 . S
H1896 C1904 0.930 . S
H1897 C1905 0.930 . S
H1898 C1908 0.930 . S
H1899 C1909 0.930 . S
C1900 H1894 0.930 . S
C1900 C1901 1.355 . S
C1900 C1902 1.415 . S
C1901 C1900 1.355 . S
C1901 C1903 1.419 . S
C1902 C1900 1.415 . S
C1902 C1907 1.425 . S
C1902 C1909 1.409 . S
C1903 H1895 0.930 . S
C1903 C1901 1.419 . S
C1903 C1904 1.362 . S
C1904 H1896 0.930 . S
C1904 C1903 1.362 . S
C1904 C1907 1.409 . S
C1905 H1897 0.930 . S
C1905 C1906 1.355 . S
C1905 C1907 1.415 . S
C1906 C1905 1.355 . S
C1906 C1908 1.419 . S
C1907 C1902 1.425 . S
C1907 C1904 1.409 . S
C1907 C1905 1.415 . S
C1908 H1898 0.930 . S
C1908 C1906 1.419 . S
C1908 C1909 1.362 . S
C1909 H1899 0.930 . S
C1909 C1902 1.409 . S
C1909 C1908 1.362 . S
H1910 C1916 0.930 . S
H1911 C1919 0.930 . S
H1912 C1920 0.930 . S
H1913 C1921 0.930 . S
H1914 C1924 0.930 . S
H1915 C1925 0.930 . S
C1916 H1910 0.930 . S
C1916 C1917 1.355 . S
C1916 C1918 1.415 . S
C1917 C1916 1.355 . S
C1917 C1919 1.419 . S
C1918 C1916 1.415 . S
C1918 C1923 1.425 . S
C1918 C1925 1.409 . S
C1919 H1911 0.930 . S
C1919 C1917 1.419 . S
C1919 C1920 1.362 . S
C1920 H1912 0.930 . S
C1920 C1919 1.362 . S
C1920 C1923 1.409 . S
C1921 H1913 0.930 . S
C1921 C1922 1.355 . S
C1921 C1923 1.415 . S
C1922 C1921 1.355 . S
C1922 C1924 1.419 . S
C1923 C1918 1.425 . S
C1923 C1920 1.409 . S
C1923 C1921 1.415 . S
C1924 H1914 0.930 . S
C1924 C1922 1.419 . S
C1924 C1925 1.362 . S
C1925 H1915 0.930 . S
C1925 C1918 1.409 . S
C1925 C1924 1.362 . S
C1069 C528 1.697 . S
C1074 C711 1.675 . S
C1085 C562 1.767 . S
C1090 C751 1.731 . S
C1101 C484 1.743 . S
C1106 C790 1.786 . S
C1117 C445 1.562 . S
C1122 C750 1.585 . S
C1138 C791 1.505 . S
C1133 C367 1.514 . S
C1149 C411 1.490 . S
C1154 C710 1.497 . S
C1170 C721 1.626 . S
C1165 C450 1.641 . S
C1186 C761 1.726 . S
C1181 C372 1.748 . S
C1197 C406 1.780 . S
C1202 C800 1.777 . S
C1213 C523 1.579 . S
C1218 C760 1.558 . S
C1229 C567 1.490 . S
C1234 C801 1.473 . S
C1250 C720 1.538 . S
C1245 C489 1.486 . S
C1266 C831 1.629 . S
C1261 C60 1.658 . S
C1277 C94 1.783 . S
C1282 C871 1.757 . S
C1293 C16 1.755 . S
C1298 C910 1.793 . S
C1309 C679 1.597 . S
C1314 C870 1.618 . S
C1325 C601 1.496 . S
C1330 C911 1.467 . S
C1341 C645 1.437 . S
C1346 C830 1.497 . S
C1357 C684 1.699 . S
C1362 C841 1.691 . S
C1373 C606 1.742 . S
C1378 C881 1.714 . S
C1394 C920 1.782 . S
C1389 C640 1.733 . S
C1405 C55 1.597 . S
C1410 C880 1.567 . S
C1426 C921 1.437 . S
C1421 C99 1.451 1_455 S
C1437 C21 1.502 . S
C1442 C840 1.514 . S
C1458 C951 1.610 . S
C1453 C294 1.644 . S
C1469 C328 1.782 . S
C1474 C991 1.752 . S
C1490 C1030 1.757 . S
C1485 C250 1.721 . S
C1506 C990 1.561 . S
C1501 C211 1.589 . S
C1522 C1031 1.456 . S
C1517 C133 1.480 1_655 S
C1533 C177 1.489 . S
C1538 C950 1.485 . S
C1549 C216 1.701 . S
C1554 C961 1.691 . S
C1565 C138 1.755 . S
C1570 C1001 1.736 . S
C1586 C1040 1.764 . S
C1581 C172 1.771 . S
C1597 C289 1.609 . S
C1602 C1000 1.580 . S
C1613 C333 1.497 . S
C1618 C1041 1.483 . S
C1629 C255 1.444 . S
C1634 C960 1.484 . S
C1645 C586 1.370 . S
C1650 C707 1.375 . S
C1666 C747 1.845 . S
C1661 C625 1.837 . S
C1677 C664 1.567 . S
C1682 C797 1.581 . S
C1693 C235 1.838 . S
C1698 C757 1.857 . S
C1709 C274 1.571 . S
C1714 C787 1.569 . S
C1730 C717 1.374 . S
C1725 C313 1.363 . S
C1741 C118 1.367 . S
C1746 C827 1.359 . S
C1757 C157 1.831 . S
C1762 C867 1.846 . S
C1773 C196 1.573 . S
C1778 C917 1.582 . S
C1789 C469 1.815 . S
C1794 C877 1.845 . S
C1810 C907 1.565 . S
C1805 C508 1.546 . S
C1821 C547 1.361 . S
C1826 C837 1.354 . S
C1837 C352 1.372 . S
C1842 C947 1.371 . S
C1853 C391 1.804 . S
C1858 C987 1.829 . S
C1874 C1037 1.582 . S
C1869 C430 1.577 . S
C1885 C1 1.825 . S
C1890 C997 1.839 . S
C1901 C40 1.543 . S
C1906 C1027 1.562 . S
C1917 C79 1.361 . S
C1922 C957 1.353 . S
