# Generated by pormake.
# Topology anh, (6,3)-cn, num edge types: 1
# Building blocks:
#     Node 0, Type 0, BuildingBlock: MIFKUJ_clean_sbu_0, # of connection points: 6
#     Node 1, Type 0, BuildingBlock: MIFKUJ_clean_sbu_0, # of connection points: 6
#     Node 2, Type 0, BuildingBlock: MIFKUJ_clean_sbu_0, # of connection points: 6
#     Node 3, Type 1, BuildingBlock: CUQRIR_clean_linker_1, # of connection points: 3
#     Node 4, Type 1, BuildingBlock: CUQRIR_clean_linker_1, # of connection points: 3
#     Node 5, Type 1, BuildingBlock: CUQRIR_clean_linker_1, # of connection points: 3
#     Node 6, Type 1, BuildingBlock: CUQRIR_clean_linker_1, # of connection points: 3
#     Node 7, Type 1, BuildingBlock: CUQRIR_clean_linker_1, # of connection points: 3
#     Node 8, Type 1, BuildingBlock: CUQRIR_clean_linker_1, # of connection points: 3
#     Edge 9, Type (0, 1), BuildingBlock: MIFKUJ_clean_linker_0, # of connection points: 2
#     Edge 10, Type (0, 1), BuildingBlock: MIFKUJ_clean_linker_0, # of connection points: 2
#     Edge 11, Type (0, 1), BuildingBlock: MIFKUJ_clean_linker_0, # of connection points: 2
#     Edge 12, Type (0, 1), BuildingBlock: MIFKUJ_clean_linker_0, # of connection points: 2
#     Edge 13, Type (0, 1), BuildingBlock: MIFKUJ_clean_linker_0, # of connection points: 2
#     Edge 14, Type (0, 1), BuildingBlock: MIFKUJ_clean_linker_0, # of connection points: 2
#     Edge 15, Type (0, 1), BuildingBlock: MIFKUJ_clean_linker_0, # of connection points: 2
#     Edge 16, Type (0, 1), BuildingBlock: MIFKUJ_clean_linker_0, # of connection points: 2
#     Edge 17, Type (0, 1), BuildingBlock: MIFKUJ_clean_linker_0, # of connection points: 2
#     Edge 18, Type (0, 1), BuildingBlock: MIFKUJ_clean_linker_0, # of connection points: 2
#     Edge 19, Type (0, 1), BuildingBlock: MIFKUJ_clean_linker_0, # of connection points: 2
#     Edge 20, Type (0, 1), BuildingBlock: MIFKUJ_clean_linker_0, # of connection points: 2
#     Edge 21, Type (0, 1), BuildingBlock: MIFKUJ_clean_linker_0, # of connection points: 2
#     Edge 22, Type (0, 1), BuildingBlock: MIFKUJ_clean_linker_0, # of connection points: 2
#     Edge 23, Type (0, 1), BuildingBlock: MIFKUJ_clean_linker_0, # of connection points: 2
#     Edge 24, Type (0, 1), BuildingBlock: MIFKUJ_clean_linker_0, # of connection points: 2
#     Edge 25, Type (0, 1), BuildingBlock: MIFKUJ_clean_linker_0, # of connection points: 2
#     Edge 26, Type (0, 1), BuildingBlock: MIFKUJ_clean_linker_0, # of connection points: 2
# Relax obj value: 0.119
# Max RMSD: 0.213
# Mean RMSD: 0.152
data_MOF--net-anh--node1-MIFKUJ_clean_sbu_0--node2-CUQRIR_clean_linker_1--edge1-MIFKUJ_clean_linker_0
_symmetry_space_group_name_H-M    P1
_symmetry_Int_Tables_number       1
_symmetry_cell_setting            triclinic
loop_
_symmetry_equiv_pos_as_xyz
'x, y, z'
_cell_length_a     38.11844
_cell_length_b     38.130845
_cell_length_c     58.907558
_cell_angle_alpha  89.715347
_cell_angle_beta   90.887364
_cell_angle_gamma 120.14667
loop_
_atom_site_label
_atom_site_type_symbol
_atom_site_fract_x
_atom_site_fract_y
_atom_site_fract_z
_atom_type_partial_charge
Zn0 Zn 0.03006 0.53721 0.16202 0.0
Zn1 Zn 0.9075 0.44287 0.16439 0.0
C2 C 0.08789 0.51359 0.17682 0.0
O3 O 0.07824 0.51931 0.19722 0.0
C4 C 0.86626 0.48762 0.1561 0.0
O5 O 0.90132 0.51418 0.14747 0.0
O6 O 0.0589 0.59494 0.15092 0.0
O7 O 0.97935 0.49779 0.1474 0.0
O8 O 0.9263 0.44979 0.13126 0.0
C9 C 0.08451 0.60293 0.13528 0.0
O10 O 0.08483 0.5727 0.12488 0.0
O11 O 0.06994 0.51783 0.1596 0.0
C12 C 0.86887 0.37302 0.19307 0.0
O13 O 0.87408 0.40047 0.20822 0.0
O14 O 0.88249 0.38437 0.1732 0.0
O15 O 0.9512 0.48003 0.18827 0.0
O16 O 0.01334 0.53251 0.19435 0.0
O17 O 0.86225 0.45527 0.16477 0.0
C18 C 0.96184 0.47959 0.12935 0.0
C19 C 0.9796 0.50423 0.20182 0.0
Zn20 Zn 0.60965 0.07394 0.49571 0.0
Zn21 Zn 0.58837 0.96847 0.5017 0.0
C22 C 0.68663 0.14258 0.5009 0.0
O23 O 0.66502 0.14797 0.5162 0.0
C24 C 0.51454 0.91086 0.47896 0.0
O25 O 0.54085 0.91133 0.46463 0.0
O26 O 0.58752 0.11125 0.49081 0.0
O27 O 0.58149 0.02949 0.47268 0.0
O28 O 0.61613 0.9979 0.47293 0.0
C29 C 0.60006 0.13451 0.47366 0.0
O30 O 0.62396 0.13081 0.45923 0.0
O31 O 0.66993 0.10965 0.48953 0.0
C32 C 0.58005 0.8987 0.52197 0.0
O33 O 0.54841 0.89957 0.52978 0.0
O34 O 0.60419 0.92667 0.50878 0.0
O35 O 0.59878 0.9988 0.53119 0.0
O36 O 0.60337 0.05905 0.52867 0.0
O37 O 0.52755 0.93536 0.4957 0.0
C38 C 0.60216 0.01728 0.46218 0.0
C39 C 0.60215 0.03042 0.54038 0.0
Zn40 Zn 0.61877 0.60452 0.82466 0.0
Zn41 Zn 0.51714 0.61713 0.83546 0.0
C42 C 0.62197 0.53337 0.82206 0.0
O43 O 0.65338 0.55647 0.83518 0.0
C44 C 0.50372 0.68305 0.82937 0.0
O45 O 0.46826 0.65267 0.82299 0.0
O46 O 0.67924 0.63963 0.81979 0.0
O47 O 0.58223 0.62441 0.81395 0.0
O48 O 0.52061 0.60348 0.80264 0.0
C49 C 0.6973 0.63259 0.80398 0.0
O50 O 0.67569 0.60593 0.78818 0.0
O51 O 0.60022 0.54745 0.81432 0.0
C52 C 0.45185 0.59439 0.86555 0.0
O53 O 0.48163 0.62357 0.87738 0.0
O54 O 0.45982 0.58406 0.84668 0.0
O55 O 0.55529 0.60748 0.85634 0.0
O56 O 0.60975 0.60064 0.85824 0.0
O57 O 0.53142 0.67578 0.83591 0.0
C58 C 0.55556 0.60922 0.79831 0.0
C59 C 0.58056 0.60169 0.86788 0.0
C60 C 0.4994 0.95936 0.19029 0.0
N61 N 0.52581 0.97704 0.20791 0.0
N62 N 0.46599 0.92506 0.19721 0.0
C63 C 0.50519 0.97646 0.1667 0.0
C64 C 0.47314 0.92245 0.21955 0.0
N65 N 0.50954 0.9538 0.22597 0.0
C66 C 0.44371 0.89051 0.23537 0.0
H67 H 0.49074 0.99543 0.1654 0.0
H68 H 0.49058 0.95194 0.15386 0.0
H69 H 0.5379 0.99556 0.16287 0.0
H70 H 0.42336 0.86198 0.22605 0.0
H71 H 0.42491 0.90167 0.2433 0.0
H72 H 0.46008 0.88432 0.24911 0.0
C73 C 0.60541 0.5215 0.53426 0.0
N74 N 0.60821 0.54338 0.55289 0.0
N75 N 0.6077 0.48845 0.54028 0.0
C76 C 0.59876 0.53142 0.51043 0.0
C77 C 0.61226 0.49114 0.56314 0.0
N78 N 0.61293 0.5248 0.57078 0.0
C79 C 0.61315 0.45949 0.57806 0.0
H80 H 0.5657 0.51799 0.50725 0.0
H81 H 0.61061 0.51862 0.49783 0.0
H82 H 0.61351 0.56473 0.5081 0.0
H83 H 0.63342 0.47371 0.59301 0.0
H84 H 0.62342 0.44131 0.56854 0.0
H85 H 0.58208 0.43887 0.58431 0.0
C86 C 0.05716 0.58198 0.86448 0.0
N87 N 0.07491 0.57612 0.88313 0.0
N88 N 0.02792 0.59008 0.87062 0.0
C89 C 0.06896 0.58099 0.84037 0.0
C90 C 0.02869 0.58943 0.89356 0.0
N91 N 0.05749 0.58127 0.9012 0.0
C92 C 0.00125 0.59675 0.90845 0.0
H93 H 0.06021 0.59879 0.82907 0.0
H94 H 0.05297 0.54911 0.83429 0.0
H95 H 0.10211 0.59304 0.83927 0.0
H96 H 0.97292 0.5904 0.89943 0.0
H97 H 0.01738 0.62902 0.91383 0.0
H98 H 0.99351 0.57772 0.92387 0.0
C99 C 0.09773 0.52125 0.46756 0.0
N100 N 0.06935 0.49564 0.45236 0.0
N101 N 0.13016 0.55094 0.45665 0.0
C102 C 0.09446 0.51683 0.49289 0.0
C103 C 0.12056 0.54267 0.4344 0.0
N104 N 0.08378 0.50894 0.43177 0.0
C105 C 0.14567 0.56934 0.41526 0.0
H106 H 0.07726 0.53112 0.49915 0.0
H107 H 0.12495 0.53218 0.50113 0.0
H108 H 0.07787 0.48433 0.49771 0.0
H109 H 0.1609 0.55483 0.40673 0.0
H110 H 0.16916 0.59978 0.42137 0.0
H111 H 0.12582 0.57271 0.40257 0.0
C112 C 0.57125 0.11149 0.80442 0.0
N113 N 0.57727 0.08518 0.79202 0.0
N114 N 0.58497 0.14695 0.79315 0.0
C115 C 0.55394 0.10349 0.82785 0.0
C116 C 0.59936 0.14124 0.77351 0.0
N117 N 0.59503 0.10386 0.77292 0.0
C118 C 0.61475 0.17102 0.75418 0.0
H119 H 0.52038 0.08805 0.82643 0.0
H120 H 0.56487 0.13226 0.83738 0.0
H121 H 0.56217 0.08341 0.83739 0.0
H122 H 0.60228 0.19175 0.75473 0.0
H123 H 0.60664 0.15505 0.73757 0.0
H124 H 0.64832 0.18941 0.75552 0.0
C125 C 0.48894 0.52623 0.13918 0.0
N126 N 0.51725 0.53233 0.12358 0.0
N127 N 0.46125 0.53492 0.13021 0.0
C128 C 0.48956 0.51438 0.16349 0.0
C129 C 0.47357 0.54639 0.10869 0.0
N130 N 0.50778 0.54528 0.10477 0.0
C131 C 0.45036 0.55524 0.09085 0.0
H132 H 0.47321 0.48082 0.16469 0.0
H133 H 0.47414 0.52587 0.1745 0.0
H134 H 0.52118 0.52632 0.16972 0.0
H135 H 0.46309 0.58852 0.08984 0.0
H136 H 0.41769 0.54065 0.09489 0.0
H137 H 0.45345 0.54438 0.07397 0.0
H138 H 0.12601 0.51722 0.13732 0.0
H139 H 0.18758 0.51367 0.13283 0.0
H140 H 0.18968 0.49157 0.20464 0.0
H141 H 0.12859 0.49629 0.20939 0.0
H142 H 0.26108 0.54884 0.1917 0.0
H143 H 0.16483 0.41518 0.16353 0.0
H144 H 0.10757 0.36696 0.13926 0.0
H145 H 0.17547 0.42562 0.07962 0.0
H146 H 0.233 0.4744 0.10352 0.0
H147 H 0.40027 0.46663 0.14782 0.0
H148 H 0.33457 0.45646 0.1604 0.0
H149 H 0.37504 0.58227 0.14644 0.0
H150 H 0.44074 0.59232 0.13433 0.0
H151 H 0.28029 0.46554 0.13421 0.0
H152 H 0.32879 0.61545 0.18188 0.0
H153 H 0.38564 0.66541 0.20572 0.0
H154 H 0.41223 0.57334 0.22717 0.0
H155 H 0.3552 0.52269 0.20372 0.0
C156 C 0.1392 0.51099 0.15212 0.0
C157 C 0.12248 0.50703 0.17373 0.0
C158 C 0.17429 0.50873 0.14949 0.0
C159 C 0.19295 0.50183 0.16836 0.0
C160 C 0.17572 0.49686 0.18986 0.0
C161 C 0.1408 0.49948 0.19254 0.0
C162 C 0.23197 0.50269 0.16593 0.0
C163 C 0.26518 0.53032 0.17929 0.0
C164 C 0.23729 0.47856 0.14972 0.0
C165 C 0.20317 0.44849 0.13533 0.0
C166 C 0.16752 0.41782 0.14524 0.0
C167 C 0.13501 0.3904 0.13155 0.0
C168 C 0.13788 0.39324 0.10791 0.0
C169 C 0.17333 0.4234 0.09792 0.0
C170 C 0.20593 0.45088 0.11153 0.0
C171 C 0.39521 0.49214 0.14805 0.0
C172 C 0.42515 0.53023 0.1403 0.0
C173 C 0.35778 0.48632 0.155 0.0
C174 C 0.35005 0.51865 0.15442 0.0
C175 C 0.38055 0.55706 0.1473 0.0
C176 C 0.41789 0.5628 0.14037 0.0
C177 C 0.30937 0.51187 0.1599 0.0
C178 C 0.27596 0.48344 0.14695 0.0
C179 C 0.30385 0.5353 0.17647 0.0
C180 C 0.33789 0.56535 0.1909 0.0
C181 C 0.34664 0.60582 0.19178 0.0
C182 C 0.37892 0.63427 0.2052 0.0
C183 C 0.4026 0.62258 0.21791 0.0
C184 C 0.39395 0.58238 0.21726 0.0
C185 C 0.36168 0.5538 0.20388 0.0
H186 H 0.4276 0.64467 0.22827 0.0
H187 H 0.11264 0.37206 0.09735 0.0
H188 H 0.72316 0.21956 0.51733 0.0
H189 H 0.78836 0.27736 0.50678 0.0
H190 H 0.80906 0.20079 0.46195 0.0
H191 H 0.74295 0.14256 0.47208 0.0
H192 H 0.87729 0.25342 0.49006 0.0
H193 H 0.78065 0.25829 0.44049 0.0
H194 H 0.71965 0.26033 0.42827 0.0
H195 H 0.76398 0.37449 0.4623 0.0
H196 H 0.82417 0.37214 0.47585 0.0
H197 H 0.04529 0.42108 0.43616 0.0
H198 H 0.98058 0.35874 0.44307 0.0
H199 H 0.94371 0.42585 0.48572 0.0
H200 H 0.00837 0.48826 0.47849 0.0
H201 H 0.88356 0.37546 0.45568 0.0
H202 H 0.97488 0.36582 0.50918 0.0
H203 H 0.03689 0.36522 0.52101 0.0
H204 H 0.00336 0.26208 0.4781 0.0
H205 H 0.94139 0.26245 0.46575 0.0
C206 C 0.7415 0.21488 0.50524 0.0
C207 C 0.7277 0.17646 0.49546 0.0
C208 C 0.77874 0.24801 0.4992 0.0
C209 C 0.80333 0.24347 0.48342 0.0
C210 C 0.79041 0.20494 0.47411 0.0
C211 C 0.75267 0.17174 0.4799 0.0
C212 C 0.84238 0.27928 0.47676 0.0
C213 C 0.87864 0.27986 0.48221 0.0
C214 C 0.84407 0.31408 0.4669 0.0
C215 C 0.80687 0.31472 0.4595 0.0
C216 C 0.77705 0.2834 0.44585 0.0
C217 C 0.74254 0.28461 0.43867 0.0
C218 C 0.73783 0.31741 0.44461 0.0
C219 C 0.76752 0.34896 0.45783 0.0
C220 C 0.80175 0.34758 0.46538 0.0
C221 C 0.02324 0.42228 0.447 0.0
C222 C 0.03167 0.45911 0.45698 0.0
C223 C 0.98646 0.38678 0.45102 0.0
C224 C 0.95744 0.38754 0.46509 0.0
C225 C 0.96572 0.42453 0.47488 0.0
C226 C 0.00264 0.46001 0.47093 0.0
C227 C 0.9183 0.34987 0.46945 0.0
C228 C 0.88207 0.34893 0.4635 0.0
C229 C 0.91657 0.31482 0.47888 0.0
C230 C 0.95371 0.31443 0.48636 0.0
C231 C 0.98089 0.34322 0.50212 0.0
C232 C 0.01601 0.34289 0.50895 0.0
C233 C 0.02412 0.3137 0.50026 0.0
C234 C 0.99707 0.28471 0.48478 0.0
C235 C 0.96193 0.28495 0.47787 0.0
H236 H 0.05132 0.31348 0.50558 0.0
H237 H 0.71134 0.31855 0.43883 0.0
H238 H 0.57673 0.75385 0.82895 0.0
H239 H 0.58827 0.82271 0.82488 0.0
H240 H 0.45892 0.77561 0.82396 0.0
H241 H 0.44729 0.70674 0.82714 0.0
H242 H 0.49055 0.8287 0.7925 0.0
H243 H 0.52193 0.82695 0.87114 0.0
H244 H 0.55547 0.81657 0.90452 0.0
H245 H 0.67182 0.90676 0.87986 0.0
H246 H 0.63901 0.91731 0.84616 0.0
H247 H 0.50568 0.02191 0.80494 0.0
H248 H 0.49198 0.95333 0.81454 0.0
H249 H 0.61753 0.99101 0.80287 0.0
H250 H 0.63108 0.05951 0.79356 0.0
H251 H 0.58595 0.94302 0.84203 0.0
H252 H 0.54943 0.94531 0.76347 0.0
H253 H 0.51181 0.9563 0.73258 0.0
H254 H 0.39919 0.86307 0.75952 0.0
H255 H 0.43599 0.85248 0.79114 0.0
C256 C 0.5508 0.75826 0.82804 0.0
C257 C 0.51112 0.72494 0.82833 0.0
C258 C 0.5574 0.79765 0.8258 0.0
C259 C 0.52446 0.8045 0.82437 0.0
C260 C 0.48483 0.77118 0.82496 0.0
C261 C 0.47823 0.73181 0.82683 0.0
C262 C 0.53117 0.84618 0.8215 0.0
C263 C 0.51092 0.85351 0.80359 0.0
C264 C 0.55817 0.8788 0.83573 0.0
C265 C 0.57802 0.87265 0.85602 0.0
C266 C 0.55469 0.84436 0.87275 0.0
C267 C 0.57357 0.83848 0.89174 0.0
C268 C 0.61575 0.86092 0.89428 0.0
C269 C 0.63915 0.88937 0.87785 0.0
C270 C 0.62042 0.89534 0.85881 0.0
C271 C 0.53025 0.01543 0.80477 0.0
C272 C 0.56934 0.04552 0.79855 0.0
C273 C 0.52249 0.97644 0.81015 0.0
C274 C 0.55376 0.96716 0.80932 0.0
C275 C 0.59306 0.99762 0.80367 0.0
C276 C 0.60071 0.03646 0.7982 0.0
C277 C 0.54528 0.92524 0.81315 0.0
C278 C 0.56536 0.918 0.83112 0.0
C279 C 0.51755 0.89258 0.79923 0.0
C280 C 0.49551 0.89841 0.77988 0.0
C281 C 0.51662 0.92744 0.763 0.0
C282 C 0.49543 0.93366 0.74536 0.0
C283 C 0.45316 0.91045 0.74408 0.0
C284 C 0.43195 0.88105 0.76052 0.0
C285 C 0.45296 0.87502 0.77836 0.0
H286 H 0.43686 0.91519 0.73032 0.0
H287 H 0.63031 0.85632 0.90899 0.0
H288 H 0.78943 0.43761 0.17133 0.0
H289 H 0.73023 0.44583 0.1664 0.0
H290 H 0.80356 0.55919 0.13179 0.0
H291 H 0.86315 0.55147 0.13684 0.0
H292 H 0.75211 0.56362 0.16211 0.0
H293 H 0.74311 0.47418 0.10173 0.0
H294 H 0.74138 0.41356 0.08589 0.0
H295 H 0.63531 0.33672 0.12455 0.0
H296 H 0.63672 0.39691 0.14085 0.0
H297 H 0.5946 0.58672 0.1135 0.0
H298 H 0.65412 0.57891 0.11887 0.0
H299 H 0.57803 0.4597 0.14696 0.0
H300 H 0.5182 0.4667 0.14016 0.0
H301 H 0.63102 0.45794 0.12045 0.0
H302 H 0.63844 0.54507 0.18089 0.0
H303 H 0.63947 0.60448 0.198 0.0
H304 H 0.74725 0.68408 0.16134 0.0
H305 H 0.74655 0.62513 0.14377 0.0
C306 C 0.79308 0.46443 0.16277 0.0
C307 C 0.83098 0.49379 0.15434 0.0
C308 C 0.75916 0.46898 0.1599 0.0
C309 C 0.76241 0.50282 0.14844 0.0
C310 C 0.80041 0.53278 0.14062 0.0
C311 C 0.8344 0.52827 0.14348 0.0
C312 C 0.72604 0.50662 0.14429 0.0
C313 C 0.7258 0.5408 0.15276 0.0
C314 C 0.69135 0.47626 0.13263 0.0
C315 C 0.69024 0.44005 0.12266 0.0
C316 C 0.71958 0.44435 0.10697 0.0
C317 C 0.71863 0.41008 0.09789 0.0
C318 C 0.68831 0.37132 0.10425 0.0
C319 C 0.6588 0.36676 0.11966 0.0
C320 C 0.65964 0.40094 0.1288 0.0
C321 C 0.59068 0.5587 0.12051 0.0
C322 C 0.55206 0.5274 0.12658 0.0
C323 C 0.62467 0.55442 0.12385 0.0
C324 C 0.62071 0.51905 0.13378 0.0
C325 C 0.58191 0.48739 0.13944 0.0
C326 C 0.54785 0.49149 0.13578 0.0
C327 C 0.65697 0.51504 0.13826 0.0
C328 C 0.65724 0.4808 0.12984 0.0
C329 C 0.69154 0.54517 0.15018 0.0
C330 C 0.69223 0.58068 0.16086 0.0
C331 C 0.66221 0.57525 0.17637 0.0
C332 C 0.66275 0.60884 0.18616 0.0
C333 C 0.69335 0.64803 0.18072 0.0
C334 C 0.72354 0.65371 0.16552 0.0
C335 C 0.72311 0.62022 0.15565 0.0
H336 H 0.69372 0.674 0.18832 0.0
H337 H 0.68764 0.34482 0.09721 0.0
H338 H 0.45648 0.88701 0.51162 0.0
H339 H 0.38815 0.82739 0.5108 0.0
H340 H 0.40696 0.80047 0.44258 0.0
H341 H 0.47551 0.85944 0.44341 0.0
H342 H 0.32899 0.79002 0.44888 0.0
H343 H 0.41802 0.7476 0.48204 0.0
H344 H 0.46975 0.75077 0.50889 0.0
H345 H 0.39403 0.73939 0.56496 0.0
H346 H 0.34169 0.73595 0.53832 0.0
H347 H 0.20452 0.56025 0.45944 0.0
H348 H 0.26808 0.62392 0.46724 0.0
H349 H 0.19965 0.68357 0.48044 0.0
H350 H 0.13614 0.61949 0.47278 0.0
H351 H 0.30113 0.67906 0.50301 0.0
H352 H 0.25021 0.77589 0.45249 0.0
H353 H 0.20089 0.76741 0.42228 0.0
H354 H 0.20524 0.66493 0.39588 0.0
H355 H 0.25481 0.67304 0.42575 0.0
C356 C 0.44587 0.86878 0.49631 0.0
C357 C 0.47146 0.87805 0.47755 0.0
C358 C 0.40687 0.83462 0.49591 0.0
C359 C 0.39257 0.8094 0.47667 0.0
C360 C 0.41736 0.81957 0.45758 0.0
C361 C 0.45655 0.85332 0.45809 0.0
C362 C 0.35272 0.77119 0.47682 0.0
C363 C 0.32272 0.76595 0.46087 0.0
C364 C 0.34478 0.73945 0.49216 0.0
C365 C 0.37623 0.74201 0.50824 0.0
C366 C 0.41258 0.74611 0.50011 0.0
C367 C 0.44193 0.74781 0.51528 0.0
C368 C 0.43532 0.74552 0.53865 0.0
C369 C 0.39917 0.74126 0.54686 0.0
C370 C 0.36959 0.7393 0.53173 0.0
C371 C 0.20331 0.58676 0.46477 0.0
C372 C 0.1659 0.58529 0.46588 0.0
C373 C 0.23942 0.62304 0.46913 0.0
C374 C 0.2386 0.65856 0.47425 0.0
C375 C 0.20097 0.65656 0.47644 0.0
C376 C 0.16482 0.62009 0.47228 0.0
C377 C 0.27713 0.69808 0.4753 0.0
C378 C 0.30699 0.70349 0.49137 0.0
C379 C 0.28521 0.72965 0.45975 0.0
C380 C 0.25584 0.72482 0.44152 0.0
C381 C 0.24068 0.75162 0.44019 0.0
C382 C 0.21267 0.74685 0.42314 0.0
C383 C 0.1998 0.71553 0.40723 0.0
C384 C 0.21507 0.68904 0.40827 0.0
C385 C 0.24307 0.69367 0.42528 0.0
H386 H 0.17809 0.71185 0.39405 0.0
H387 H 0.45812 0.74692 0.55038 0.0
H388 H 0.67479 0.50564 0.82084 0.0
H389 H 0.65961 0.43617 0.81423 0.0
H390 H 0.53259 0.39717 0.80576 0.0
H391 H 0.54784 0.46731 0.81181 0.0
H392 H 0.55265 0.34952 0.83753 0.0
H393 H 0.57282 0.39477 0.76081 0.0
H394 H 0.60655 0.44037 0.72852 0.0
H395 H 0.71271 0.43061 0.74037 0.0
H396 H 0.67994 0.38558 0.77296 0.0
H397 H 0.51878 0.15262 0.80171 0.0
H398 H 0.51707 0.21578 0.80691 0.0
H399 H 0.64786 0.28437 0.80418 0.0
H400 H 0.64915 0.22135 0.79865 0.0
H401 H 0.61465 0.31335 0.7751 0.0
H402 H 0.59579 0.27186 0.8538 0.0
H403 H 0.56143 0.22537 0.88561 0.0
H404 H 0.45191 0.22704 0.86988 0.0
H405 H 0.48549 0.27314 0.83776 0.0
C406 C 0.64367 0.48235 0.81738 0.0
C407 C 0.61247 0.49175 0.81679 0.0
C408 C 0.63506 0.44274 0.81358 0.0
C409 C 0.59502 0.41168 0.80951 0.0
C410 C 0.56367 0.42084 0.8089 0.0
C411 C 0.57242 0.46081 0.81224 0.0
C412 C 0.58649 0.36962 0.8066 0.0
C413 C 0.56541 0.34117 0.82365 0.0
C414 C 0.60373 0.35919 0.78868 0.0
C415 C 0.62404 0.38713 0.76947 0.0
C416 C 0.60357 0.40284 0.75672 0.0
C417 C 0.62247 0.42848 0.73834 0.0
C418 C 0.66176 0.43847 0.73245 0.0
C419 C 0.68227 0.42285 0.74495 0.0
C420 C 0.66356 0.39729 0.76339 0.0
C421 C 0.547 0.18126 0.80278 0.0
C422 C 0.5841 0.18262 0.79983 0.0
C423 C 0.54608 0.21721 0.80569 0.0
C424 C 0.58236 0.25481 0.80588 0.0
C425 C 0.61951 0.25575 0.80395 0.0
C426 C 0.62033 0.21995 0.80092 0.0
C427 C 0.582 0.2935 0.80646 0.0
C428 C 0.60138 0.32134 0.78888 0.0
C429 C 0.56317 0.30323 0.8239 0.0
C430 C 0.543 0.27555 0.84321 0.0
C431 C 0.56427 0.26202 0.85699 0.0
C432 C 0.54496 0.2358 0.87511 0.0
C433 C 0.50447 0.22315 0.87972 0.0
C434 C 0.48324 0.2368 0.86626 0.0
C435 C 0.50241 0.26298 0.8481 0.0
H436 H 0.48957 0.20287 0.89375 0.0
H437 H 0.67631 0.45826 0.71818 0.0
H438 H 0.65118 0.89945 0.52975 0.0
H439 H 0.65935 0.84154 0.53995 0.0
H440 H 0.52939 0.76239 0.53528 0.0
H441 H 0.52129 0.82077 0.52707 0.0
H442 H 0.55232 0.73802 0.56769 0.0
H443 H 0.60194 0.77362 0.4918 0.0
H444 H 0.64448 0.81814 0.46107 0.0
H445 H 0.75181 0.83756 0.49687 0.0
H446 H 0.7099 0.79352 0.52796 0.0
H447 H 0.54543 0.55216 0.53934 0.0
H448 H 0.54318 0.61548 0.53885 0.0
H449 H 0.66425 0.67954 0.56769 0.0
H450 H 0.66606 0.61589 0.56839 0.0
H451 H 0.65088 0.71364 0.52681 0.0
H452 H 0.5901 0.66278 0.5999 0.0
H453 H 0.54009 0.61136 0.62567 0.0
H454 H 0.44324 0.61246 0.58817 0.0
H455 H 0.49254 0.66327 0.56193 0.0
C456 C 0.62451 0.8696 0.53098 0.0
C457 C 0.58564 0.86423 0.52752 0.0
C458 C 0.62912 0.83648 0.53667 0.0
C459 C 0.59502 0.79725 0.53794 0.0
C460 C 0.55619 0.79221 0.5345 0.0
C461 C 0.55155 0.82546 0.52966 0.0
C462 C 0.59936 0.76123 0.54259 0.0
C463 C 0.57366 0.73263 0.55855 0.0
C464 C 0.62756 0.7542 0.53097 0.0
C465 C 0.65283 0.78068 0.51232 0.0
C466 C 0.63463 0.78762 0.49319 0.0
C467 C 0.65862 0.81273 0.4757 0.0
C468 C 0.70083 0.83077 0.47705 0.0
C469 C 0.71912 0.82364 0.49587 0.0
C470 C 0.69527 0.7986 0.51343 0.0
C471 C 0.5713 0.57986 0.54564 0.0
C472 C 0.60606 0.57981 0.55368 0.0
C473 C 0.56997 0.61576 0.54551 0.0
C474 C 0.60352 0.65199 0.55332 0.0
C475 C 0.63807 0.65177 0.56169 0.0
C476 C 0.63912 0.61571 0.5621 0.0
C477 C 0.60332 0.69047 0.55141 0.0
C478 C 0.62988 0.71946 0.53602 0.0
C479 C 0.57474 0.69697 0.56283 0.0
C480 C 0.54512 0.6667 0.57883 0.0
C481 C 0.55817 0.65184 0.59704 0.0
C482 C 0.52994 0.62283 0.61174 0.0
C483 C 0.48857 0.60863 0.60853 0.0
C484 C 0.47532 0.62347 0.59063 0.0
C485 C 0.5034 0.6524 0.57585 0.0
H486 H 0.46677 0.58618 0.61994 0.0
H487 H 0.71935 0.85019 0.46349 0.0
H488 H 0.75179 0.64381 0.77118 0.0
H489 H 0.81779 0.64843 0.7769 0.0
H490 H 0.80324 0.64749 0.8495 0.0
H491 H 0.73912 0.64593 0.8438 0.0
H492 H 0.87773 0.68871 0.84234 0.0
H493 H 0.77208 0.5569 0.81452 0.0
H494 H 0.71991 0.51194 0.78658 0.0
H495 H 0.81026 0.55117 0.73502 0.0
H496 H 0.86289 0.59651 0.76258 0.0
H497 H 0.94997 0.5369 0.86133 0.0
H498 H 0.9005 0.55219 0.84358 0.0
H499 H 0.99649 0.67463 0.83076 0.0
H500 H 0.04558 0.65914 0.84911 0.0
H501 H 0.88661 0.57766 0.80427 0.0
H502 H 0.9612 0.73872 0.8431 0.0
H503 H 0.00718 0.77731 0.87496 0.0
H504 H 0.96797 0.66679 0.91204 0.0
H505 H 0.92132 0.62771 0.88059 0.0
C506 C 0.76344 0.64591 0.78832 0.0
C507 C 0.74031 0.64432 0.80704 0.0
C508 C 0.80091 0.64808 0.7916 0.0
C509 C 0.81498 0.64689 0.81365 0.0
C510 C 0.79315 0.64825 0.8323 0.0
C511 C 0.75639 0.64739 0.82903 0.0
C512 C 0.85011 0.64056 0.81755 0.0
C513 C 0.87982 0.6647 0.8338 0.0
C514 C 0.85269 0.60871 0.8068 0.0
C515 C 0.82129 0.58038 0.79051 0.0
C516 C 0.78077 0.55593 0.79722 0.0
C517 C 0.75114 0.53042 0.78146 0.0
C518 C 0.76178 0.52895 0.75904 0.0
C519 C 0.80209 0.5525 0.75238 0.0
C520 C 0.83183 0.57804 0.76806 0.0
C521 C 0.96032 0.56666 0.85415 0.0
C522 C 0.00111 0.59696 0.85644 0.0
C523 C 0.93227 0.57543 0.84402 0.0
C524 C 0.94471 0.61472 0.8361 0.0
C525 C 0.98615 0.64427 0.83701 0.0
C526 C 0.01414 0.63548 0.8473 0.0
C527 C 0.91373 0.62552 0.82917 0.0
C528 C 0.88487 0.60218 0.81242 0.0
C529 C 0.91092 0.65697 0.84014 0.0
C530 C 0.9382 0.68031 0.85936 0.0
C531 C 0.96231 0.72273 0.85809 0.0
C532 C 0.98847 0.74467 0.87608 0.0
C533 C 0.99061 0.72451 0.89548 0.0
C534 C 0.9664 0.68237 0.89699 0.0
C535 C 0.9401 0.66032 0.87908 0.0
H536 H 0.01095 0.74154 0.90935 0.0
H537 H 0.73881 0.50967 0.74679 0.0
H538 H 0.14754 0.62854 0.10603 0.0
H539 H 0.21314 0.69094 0.10901 0.0
H540 H 0.1679 0.73304 0.16281 0.0
H541 H 0.10204 0.67076 0.15994 0.0
H542 H 0.22245 0.79585 0.13503 0.0
H543 H 0.21217 0.67986 0.17521 0.0
H544 H 0.20074 0.61043 0.17905 0.0
H545 H 0.29705 0.63867 0.13262 0.0
H546 H 0.30841 0.70798 0.12806 0.0
H547 H 0.39299 0.91587 0.20579 0.0
H548 H 0.32821 0.86763 0.1876 0.0
H549 H 0.39118 0.82978 0.14239 0.0
H550 H 0.45582 0.87722 0.16136 0.0
H551 H 0.3299 0.76668 0.16044 0.0
H552 H 0.34582 0.88465 0.12323 0.0
H553 H 0.35916 0.95479 0.12005 0.0
H554 H 0.25495 0.92428 0.1605 0.0
H555 H 0.24129 0.85407 0.16421 0.0
C556 C 0.15112 0.6515 0.11811 0.0
C557 C 0.11979 0.64434 0.13307 0.0
C558 C 0.18871 0.68711 0.1198 0.0
C559 C 0.19559 0.71611 0.13647 0.0
C560 C 0.16324 0.71086 0.14992 0.0
C561 C 0.1256 0.67521 0.14827 0.0
C562 C 0.23731 0.74926 0.14176 0.0
C563 C 0.246 0.7896 0.14064 0.0
C564 C 0.2682 0.74097 0.1486 0.0
C565 C 0.26077 0.69898 0.15105 0.0
C566 C 0.23056 0.67113 0.16559 0.0
C567 C 0.22414 0.63181 0.16792 0.0
C568 C 0.24813 0.62019 0.15605 0.0
C569 C 0.27845 0.64774 0.14175 0.0
C570 C 0.28483 0.687 0.13926 0.0
C571 C 0.39276 0.89749 0.19177 0.0
C572 C 0.42897 0.90009 0.18478 0.0
C573 C 0.35594 0.87024 0.18126 0.0
C574 C 0.35482 0.84542 0.16338 0.0
C575 C 0.39132 0.84879 0.15604 0.0
C576 C 0.42814 0.87592 0.16671 0.0
C577 C 0.31527 0.81354 0.15385 0.0
C578 C 0.30679 0.77324 0.15435 0.0
C579 C 0.28474 0.82195 0.14639 0.0
C580 C 0.29269 0.86412 0.14412 0.0
C581 C 0.3259 0.89295 0.13158 0.0
C582 C 0.33349 0.93272 0.12967 0.0
C583 C 0.30796 0.944 0.1401 0.0
C584 C 0.27471 0.9155 0.15243 0.0
C585 C 0.26699 0.87569 0.15442 0.0
H586 H 0.31389 0.9748 0.1386 0.0
H587 H 0.24342 0.58994 0.158 0.0
H588 H 0.64782 0.20608 0.45221 0.0
H589 H 0.64536 0.26866 0.45588 0.0
H590 H 0.53771 0.20592 0.49618 0.0
H591 H 0.54032 0.14321 0.493 0.0
H592 H 0.53875 0.2652 0.46384 0.0
H593 H 0.61706 0.24842 0.52297 0.0
H594 H 0.67068 0.23899 0.54068 0.0
H595 H 0.76187 0.3487 0.50976 0.0
H596 H 0.70868 0.35815 0.49122 0.0
H597 H 0.54406 0.4129 0.53956 0.0
H598 H 0.53894 0.35462 0.51896 0.0
H599 H 0.65558 0.43287 0.48902 0.0
H600 H 0.66046 0.49098 0.50987 0.0
H601 H 0.65214 0.36887 0.51106 0.0
H602 H 0.5719 0.38933 0.45565 0.0
H603 H 0.51692 0.40023 0.44152 0.0
H604 H 0.42814 0.28524 0.4687 0.0
H605 H 0.4826 0.27388 0.48331 0.0
C606 C 0.62305 0.20534 0.4614 0.0
C607 C 0.59437 0.16991 0.47248 0.0
C608 C 0.62181 0.24111 0.4635 0.0
C609 C 0.59157 0.24178 0.47641 0.0
C610 C 0.56121 0.20581 0.48611 0.0
C611 C 0.56285 0.17017 0.48438 0.0
C612 C 0.59421 0.28071 0.48192 0.0
C613 C 0.56342 0.28794 0.47419 0.0
C614 C 0.62686 0.3104 0.49513 0.0
C615 C 0.65882 0.3035 0.50524 0.0
C616 C 0.64849 0.27003 0.51946 0.0
C617 C 0.67883 0.2648 0.52976 0.0
C618 C 0.71965 0.29316 0.52626 0.0
C619 C 0.73023 0.32663 0.51232 0.0
C620 C 0.7 0.33187 0.50185 0.0
C621 C 0.56801 0.41743 0.52816 0.0
C622 C 0.60257 0.45584 0.52607 0.0
C623 C 0.56504 0.38444 0.51632 0.0
C624 C 0.59674 0.38957 0.50231 0.0
C625 C 0.6307 0.42842 0.49963 0.0
C626 C 0.63353 0.46142 0.51142 0.0
C627 C 0.59673 0.35366 0.493 0.0
C628 C 0.62793 0.34672 0.5002 0.0
C629 C 0.56431 0.32424 0.47953 0.0
C630 C 0.5314 0.33089 0.47073 0.0
C631 C 0.54067 0.3665 0.45879 0.0
C632 C 0.50958 0.37273 0.45066 0.0
C633 C 0.46907 0.34348 0.45425 0.0
C634 C 0.45955 0.30788 0.46594 0.0
C635 C 0.49052 0.3015 0.47412 0.0
H636 H 0.44504 0.34837 0.44794 0.0
H637 H 0.7431 0.28935 0.53448 0.0
H638 H 0.38289 0.53213 0.84624 0.0
H639 H 0.31295 0.51533 0.8528 0.0
H640 H 0.35464 0.60673 0.90525 0.0
H641 H 0.42434 0.62277 0.89932 0.0
H642 H 0.28201 0.54464 0.91588 0.0
H643 H 0.34265 0.62864 0.8503 0.0
H644 H 0.37716 0.64603 0.81343 0.0
H645 H 0.27742 0.53956 0.78333 0.0
H646 H 0.24257 0.52123 0.82013 0.0
H647 H 0.14482 0.61914 0.90661 0.0
H648 H 0.20361 0.60925 0.90672 0.0
H649 H 0.14025 0.50823 0.86057 0.0
H650 H 0.08097 0.51758 0.86099 0.0
H651 H 0.21838 0.56529 0.8468 0.0
H652 H 0.15303 0.48987 0.91332 0.0
H653 H 0.11973 0.4798 0.95024 0.0
H654 H 0.2298 0.5767 0.97917 0.0
H655 H 0.26353 0.58804 0.94227 0.0
C656 C 0.37707 0.54805 0.8595 0.0
C657 C 0.40924 0.57926 0.87199 0.0
C658 C 0.33708 0.53846 0.86321 0.0
C659 C 0.32866 0.56043 0.87916 0.0
C660 C 0.3604 0.58949 0.89279 0.0
C661 C 0.40031 0.59875 0.88929 0.0
C662 C 0.28793 0.55656 0.87992 0.0
C663 C 0.26809 0.54918 0.9008 0.0
C664 C 0.26954 0.56214 0.8602 0.0
C665 C 0.29023 0.57332 0.83801 0.0
C666 C 0.32821 0.60881 0.83585 0.0
C667 C 0.34782 0.61884 0.81497 0.0
C668 C 0.32955 0.59385 0.79607 0.0
C669 C 0.29157 0.55884 0.798 0.0
C670 C 0.27187 0.54861 0.81886 0.0
C671 C 0.14336 0.59447 0.89683 0.0
C672 C 0.10869 0.56919 0.88373 0.0
C673 C 0.17682 0.58885 0.89686 0.0
C674 C 0.17613 0.55786 0.88375 0.0
C675 C 0.14133 0.53232 0.87078 0.0
C676 C 0.10771 0.53776 0.87092 0.0
C677 C 0.21262 0.55365 0.88273 0.0
C678 C 0.23181 0.55981 0.8618 0.0
C679 C 0.23057 0.54762 0.90247 0.0
C680 C 0.21078 0.53998 0.92493 0.0
C681 C 0.17011 0.50921 0.9275 0.0
C682 C 0.15113 0.50327 0.94844 0.0
C683 C 0.17262 0.52762 0.96703 0.0
C684 C 0.21318 0.55787 0.96474 0.0
C685 C 0.23226 0.56405 0.94382 0.0
H686 H 0.15786 0.523 0.98322 0.0
H687 H 0.34478 0.60167 0.77992 0.0
H688 H 0.83699 0.31027 0.1628 0.0
H689 H 0.78415 0.2405 0.16959 0.0
H690 H 0.78761 0.26662 0.24107 0.0
H691 H 0.83963 0.33721 0.23423 0.0
H692 H 0.77283 0.17748 0.19252 0.0
H693 H 0.69283 0.21581 0.2616 0.0
H694 H 0.68827 0.27438 0.27545 0.0
H695 H 0.71288 0.32571 0.20854 0.0
H696 H 0.71717 0.26727 0.19427 0.0
H697 H 0.59868 0.99082 0.22297 0.0
H698 H 0.66186 0.05625 0.22522 0.0
H699 H 0.60045 0.11456 0.19498 0.0
H700 H 0.53683 0.04943 0.19416 0.0
H701 H 0.64719 0.16013 0.22706 0.0
H702 H 0.66509 0.08927 0.16436 0.0
H703 H 0.66766 0.03239 0.14629 0.0
H704 H 0.76257 0.0484 0.19275 0.0
H705 H 0.76021 0.10512 0.21125 0.0
C706 C 0.82697 0.30112 0.18003 0.0
C707 C 0.84202 0.32944 0.19792 0.0
C708 C 0.7968 0.26109 0.18391 0.0
C709 C 0.78129 0.24845 0.20576 0.0
C710 C 0.79845 0.27591 0.22397 0.0
C711 C 0.82828 0.3162 0.22005 0.0
C712 C 0.74505 0.20768 0.20887 0.0
C713 C 0.74546 0.17363 0.20026 0.0
C714 C 0.70912 0.20261 0.2187 0.0
C715 C 0.70575 0.23743 0.22696 0.0
C716 C 0.69711 0.23955 0.24985 0.0
C717 C 0.69462 0.27273 0.25777 0.0
C718 C 0.70043 0.30381 0.2429 0.0
C719 C 0.70853 0.30169 0.22005 0.0
C720 C 0.71102 0.26857 0.21205 0.0
C721 C 0.59883 0.01779 0.21702 0.0
C722 C 0.56324 0.01527 0.20817 0.0
C723 C 0.63491 0.05506 0.21813 0.0
C724 C 0.63614 0.09037 0.21001 0.0
C725 C 0.60035 0.0878 0.20133 0.0
C726 C 0.56418 0.0506 0.20054 0.0
C727 C 0.67461 0.13 0.21021 0.0
C728 C 0.67469 0.16381 0.2196 0.0
C729 C 0.7106 0.13502 0.20048 0.0
C730 C 0.71223 0.10115 0.18929 0.0
C731 C 0.68634 0.0805 0.17078 0.0
C732 C 0.68778 0.04832 0.16046 0.0
C733 C 0.7152 0.03673 0.1684 0.0
C734 C 0.74132 0.05738 0.18664 0.0
C735 C 0.73997 0.08956 0.19703 0.0
H736 H 0.71626 0.0118 0.1604 0.0
H737 H 0.69855 0.3295 0.24908 0.0
H738 H 0.96495 0.43083 0.09669 0.0
H739 H 0.99605 0.45176 0.05908 0.0
H740 H 0.03316 0.57606 0.07484 0.0
H741 H 0.0029 0.55536 0.11249 0.0
H742 H 0.98038 0.53586 0.03321 0.0
H743 H 0.10405 0.56636 0.07162 0.0
H744 H 0.14731 0.55145 0.09662 0.0
H745 H 0.13207 0.45672 0.05135 0.0
H746 H 0.08813 0.47069 0.02618 0.0
H747 H 0.0789 0.63482 0.93542 0.0
H748 H 0.07639 0.61958 0.97605 0.0
H749 H 0.05006 0.49837 0.96013 0.0
H750 H 0.05198 0.51364 0.91934 0.0
H751 H 0.1016 0.53714 0.00242 0.0
H752 H 0.97011 0.49935 0.96807 0.0
H753 H 0.92289 0.51064 0.94423 0.0
H754 H 0.95259 0.61771 0.98265 0.0
H755 H 0.99974 0.60677 0.00685 0.0
C756 C 0.98033 0.46264 0.09215 0.0
C757 C 0.98212 0.49169 0.10738 0.0
C758 C 0.99823 0.47455 0.07084 0.0
C759 C 0.01724 0.51546 0.06442 0.0
C760 C 0.01908 0.54445 0.07968 0.0
C761 C 0.00193 0.53266 0.1011 0.0
C762 C 0.03098 0.52734 0.0409 0.0
C763 C 0.0072 0.53668 0.02659 0.0
C764 C 0.06542 0.52737 0.03226 0.0
C765 C 0.09227 0.51918 0.04716 0.0
C766 C 0.1095 0.54203 0.0671 0.0
C767 C 0.13425 0.53383 0.08128 0.0
C768 C 0.14226 0.50302 0.07564 0.0
C769 C 0.12573 0.48051 0.05572 0.0
C770 C 0.10093 0.48859 0.04147 0.0
C771 C 0.0735 0.60529 0.9407 0.0
C772 C 0.06484 0.57509 0.92451 0.0
C773 C 0.0723 0.59667 0.9638 0.0
C774 C 0.06261 0.55773 0.97102 0.0
C775 C 0.05766 0.5286 0.95485 0.0
C776 C 0.05868 0.53725 0.93166 0.0
C777 C 0.05103 0.54593 0.99489 0.0
C778 C 0.07494 0.53642 0.00917 0.0
C779 C 0.01652 0.5455 0.00369 0.0
C780 C 0.98861 0.55245 0.98909 0.0
C781 C 0.96665 0.52538 0.97135 0.0
C782 C 0.93973 0.53156 0.95788 0.0
C783 C 0.9348 0.56491 0.9619 0.0
C784 C 0.95649 0.59193 0.97954 0.0
C785 C 0.98316 0.58565 0.9932 0.0
H786 H 0.91417 0.56982 0.95134 0.0
H787 H 0.1614 0.49669 0.08666 0.0
H788 H 0.57563 0.05683 0.43456 0.0
H789 H 0.56752 0.05201 0.39339 0.0
H790 H 0.61934 0.97427 0.39144 0.0
H791 H 0.62797 0.97915 0.43288 0.0
H792 H 0.64365 0.03152 0.35475 0.0
H793 H 0.5215 0.93101 0.39158 0.0
H794 H 0.46574 0.90797 0.41881 0.0
H795 H 0.42663 0.98432 0.38702 0.0
H796 H 0.48259 0.00836 0.35979 0.0
H797 H 0.55018 0.92621 0.25077 0.0
H798 H 0.57358 0.94403 0.29048 0.0
H799 H 0.52339 0.02333 0.29209 0.0
H800 H 0.5009 0.00592 0.25223 0.0
H801 H 0.5 0.96721 0.32858 0.0
H802 H 0.61904 0.06795 0.29212 0.0
H803 H 0.67448 0.09396 0.26454 0.0
H804 H 0.71857 0.02031 0.29458 0.0
H805 H 0.66322 0.99373 0.32235 0.0
C806 C 0.58583 0.03908 0.42542 0.0
C807 C 0.6019 0.01786 0.43705 0.0
C808 C 0.5812 0.03644 0.40187 0.0
C809 C 0.5923 0.01234 0.38946 0.0
C810 C 0.61054 0.99297 0.40078 0.0
C811 C 0.61528 0.99566 0.42444 0.0
C812 C 0.5814 0.00464 0.36505 0.0
C813 C 0.61226 0.01699 0.34901 0.0
C814 C 0.54046 0.98662 0.3576 0.0
C815 C 0.50647 0.97176 0.37378 0.0
C816 C 0.5012 0.94311 0.39049 0.0
C817 C 0.46954 0.92984 0.40592 0.0
C818 C 0.44273 0.94472 0.40468 0.0
C819 C 0.44745 0.97285 0.38797 0.0
C820 C 0.47912 0.98629 0.37253 0.0
C821 C 0.54464 0.94763 0.25973 0.0
C822 C 0.52402 0.9649 0.24887 0.0
C823 C 0.55798 0.95788 0.28221 0.0
C824 C 0.55028 0.98509 0.2941 0.0
C825 C 0.52962 0.00234 0.28315 0.0
C826 C 0.51686 0.99253 0.26056 0.0
C827 C 0.56217 0.99402 0.31829 0.0
C828 C 0.53142 0.98176 0.3343 0.0
C829 C 0.60313 0.01239 0.32563 0.0
C830 C 0.63675 0.02853 0.30917 0.0
C831 C 0.64038 0.05706 0.29275 0.0
C832 C 0.67183 0.07197 0.27711 0.0
C833 C 0.69989 0.05861 0.27772 0.0
C834 C 0.69674 0.03055 0.2941 0.0
C835 C 0.66541 0.01565 0.30984 0.0
H836 H 0.72414 0.07009 0.26554 0.0
H837 H 0.41824 0.9344 0.41665 0.0
H838 H 0.50096 0.55802 0.76654 0.0
H839 H 0.51565 0.54286 0.72881 0.0
H840 H 0.64408 0.61727 0.74286 0.0
H841 H 0.62909 0.63482 0.77993 0.0
H842 H 0.63151 0.63341 0.70336 0.0
H843 H 0.59407 0.51068 0.74048 0.0
H844 H 0.55409 0.45031 0.76399 0.0
H845 H 0.4549 0.40668 0.7161 0.0
H846 H 0.49402 0.46732 0.69242 0.0
H847 H 0.67309 0.55301 0.60208 0.0
H848 H 0.66827 0.56732 0.64235 0.0
H849 H 0.5426 0.53223 0.6314 0.0
H850 H 0.54781 0.51834 0.59122 0.0
H851 H 0.56084 0.4949 0.67027 0.0
H852 H 0.60933 0.62646 0.63351 0.0
H853 H 0.65917 0.6854 0.61159 0.0
H854 H 0.75123 0.70896 0.66179 0.0
H855 H 0.70219 0.64979 0.68384 0.0
C856 C 0.53232 0.57075 0.76165 0.0
C857 C 0.56406 0.5966 0.77642 0.0
C858 C 0.54073 0.56186 0.74012 0.0
C859 C 0.58106 0.57819 0.73308 0.0
C860 C 0.61274 0.60394 0.74791 0.0
C861 C 0.60425 0.61333 0.76927 0.0
C862 C 0.58995 0.57003 0.70985 0.0
C863 C 0.61651 0.60298 0.69631 0.0
C864 C 0.57076 0.53036 0.70057 0.0
C865 C 0.54688 0.49382 0.71476 0.0
C866 C 0.56356 0.48847 0.73505 0.0
C867 C 0.54106 0.45415 0.74842 0.0
C868 C 0.50194 0.42469 0.7416 0.0
C869 C 0.48522 0.42953 0.72138 0.0
C870 C 0.50755 0.46389 0.70796 0.0
C871 C 0.64467 0.54859 0.60847 0.0
C872 C 0.61072 0.53454 0.59398 0.0
C873 C 0.64189 0.55671 0.63128 0.0
C874 C 0.60503 0.55064 0.63975 0.0
C875 C 0.5712 0.53684 0.62514 0.0
C876 C 0.57414 0.52913 0.60234 0.0
C877 C 0.60133 0.55828 0.66389 0.0
C878 C 0.57588 0.52517 0.67754 0.0
C879 C 0.62288 0.59756 0.67351 0.0
C880 C 0.65209 0.6334 0.66024 0.0
C881 C 0.64023 0.64399 0.6398 0.0
C882 C 0.66832 0.67746 0.62736 0.0
C883 C 0.70829 0.70081 0.63526 0.0
C884 C 0.72026 0.69081 0.65567 0.0
C885 C 0.69232 0.65732 0.66815 0.0
H886 H 0.72997 0.72671 0.6256 0.0
H887 H 0.48464 0.39808 0.75197 0.0
H888 H 0.5843 0.07758 0.56704 0.0
H889 H 0.58896 0.0835 0.60834 0.0
H890 H 0.63224 0.99843 0.61158 0.0
H891 H 0.62558 0.9908 0.57029 0.0
H892 H 0.58437 0.983 0.64431 0.0
H893 H 0.6973 0.10414 0.6181 0.0
H894 H 0.73404 0.16615 0.59515 0.0
H895 H 0.66613 0.21521 0.62549 0.0
H896 H 0.62854 0.15323 0.64838 0.0
H897 H 0.6665 0.12616 0.75359 0.0
H898 H 0.67627 0.1048 0.7161 0.0
H899 H 0.54734 0.02124 0.71043 0.0
H900 H 0.53826 0.04162 0.74832 0.0
H901 H 0.65046 0.11959 0.67968 0.0
H902 H 0.52557 0.94697 0.67089 0.0
H903 H 0.49935 0.88377 0.69289 0.0
H904 H 0.60815 0.93706 0.73385 0.0
H905 H 0.63549 1.00028 0.71181 0.0
C906 C 0.59479 0.06012 0.57655 0.0
C907 C 0.6048 0.03392 0.56541 0.0
C908 C 0.59767 0.06368 0.60017 0.0
C909 C 0.61184 0.04211 0.61311 0.0
C910 C 0.62134 0.01549 0.60202 0.0
C911 C 0.61762 0.01124 0.5784 0.0
C912 C 0.61656 0.04736 0.63818 0.0
C913 C 0.5989 0.01283 0.6521 0.0
C914 C 0.63704 0.08628 0.6484 0.0
C915 C 0.65991 0.12389 0.63485 0.0
C916 C 0.69005 0.12806 0.61979 0.0
C917 C 0.71103 0.16321 0.60679 0.0
C918 C 0.70237 0.19457 0.60882 0.0
C919 C 0.67279 0.19089 0.62392 0.0
C920 C 0.65167 0.15577 0.63694 0.0
C921 C 0.64068 0.10223 0.74453 0.0
C922 C 0.60173 0.08541 0.75353 0.0
C923 C 0.64612 0.09016 0.72315 0.0
C924 C 0.61254 0.06139 0.71037 0.0
C925 C 0.57384 0.04283 0.72008 0.0
C926 C 0.56856 0.05452 0.74162 0.0
C927 C 0.61695 0.05518 0.68592 0.0
C928 C 0.6363 0.08964 0.67204 0.0
C929 C 0.59934 0.01617 0.67588 0.0
C930 C 0.58249 0.9786 0.68974 0.0
C931 C 0.54402 0.94521 0.68452 0.0
C932 C 0.52901 0.90929 0.69695 0.0
C933 C 0.55216 0.90633 0.71467 0.0
C934 C 0.59029 0.93936 0.72008 0.0
C935 C 0.60551 0.9753 0.70765 0.0
H936 H 0.54042 0.87855 0.72433 0.0
H937 H 0.71862 0.22174 0.59873 0.0
H938 H 0.63953 0.61784 0.89967 0.0
H939 H 0.63145 0.60735 0.94065 0.0
H940 H 0.50238 0.55893 0.93259 0.0
H941 H 0.51072 0.57124 0.89177 0.0
H942 H 0.52573 0.60478 0.96659 0.0
H943 H 0.54778 0.49808 0.94299 0.0
H944 H 0.58284 0.46692 0.92415 0.0
H945 H 0.68757 0.53516 0.96713 0.0
H946 H 0.65334 0.56716 0.98603 0.0
H947 H 0.50561 0.48821 0.07741 0.0
H948 H 0.52349 0.49692 0.03702 0.0
H949 H 0.57014 0.62571 0.04351 0.0
H950 H 0.55051 0.61628 0.08353 0.0
H951 H 0.58606 0.53594 0.01032 0.0
H952 H 0.54229 0.66038 -0.00011 0.0
H953 H 0.49723 0.68134 0.0174 0.0
H954 H 0.41858 0.55935 0.03988 0.0
H955 H 0.46321 0.5377 0.02256 0.0
C956 C 0.60947 0.60501 0.90669 0.0
C957 C 0.57575 0.59552 0.89261 0.0
C958 C 0.60482 0.59873 0.93009 0.0
C959 C 0.56621 0.58171 0.93974 0.0
C960 C 0.53251 0.57218 0.9256 0.0
C961 C 0.53728 0.57928 0.90228 0.0
C962 C 0.56095 0.57496 0.96461 0.0
C963 C 0.53897 0.5897 0.97607 0.0
C964 C 0.57749 0.55458 0.97705 0.0
C965 C 0.59813 0.5353 0.96578 0.0
C966 C 0.5784 0.50666 0.94832 0.0
C967 C 0.5981 0.48881 0.93765 0.0
C968 C 0.63744 0.49913 0.9444 0.0
C969 C 0.65712 0.52724 0.9619 0.0
C970 C 0.63757 0.54521 0.97261 0.0
C971 C 0.52069 0.51835 0.07016 0.0
C972 C 0.52683 0.55165 0.08318 0.0
C973 C 0.5308 0.52338 0.0472 0.0
C974 C 0.5473 0.56185 0.03714 0.0
C975 C 0.55659 0.59563 0.05079 0.0
C976 C 0.54584 0.59043 0.07359 0.0
C977 C 0.55132 0.5662 0.01214 0.0
C978 C 0.57301 0.55108 0.00072 0.0
C979 C 0.53314 0.58476 0.99952 0.0
C980 C 0.50629 0.59756 0.01012 0.0
C981 C 0.51538 0.63806 0.00858 0.0
C982 C 0.48996 0.65006 0.01851 0.0
C983 C 0.45518 0.62172 0.02985 0.0
C984 C 0.44567 0.58131 0.03122 0.0
C985 C 0.47108 0.56919 0.02143 0.0
H986 H 0.43552 0.63105 0.0375 0.0
H987 H 0.65265 0.48529 0.93612 0.0
H988 H 0.95244 0.43424 0.22547 0.0
H989 H 0.95851 0.42783 0.26651 0.0
H990 H 0.00266 0.55593 0.27461 0.0
H991 H 0.99871 0.56255 0.23348 0.0
H992 H 0.05137 0.53984 0.29462 0.0
H993 H 0.90612 0.47618 0.29478 0.0
H994 H 0.83671 0.42687 0.28172 0.0
H995 H 0.85389 0.32854 0.30285 0.0
H996 H 0.92361 0.37726 0.3158 0.0
H997 H 0.01267 0.50417 0.42104 0.0
H998 H 0.98239 0.4942 0.38275 0.0
H999 H 0.07554 0.47317 0.35685 0.0
H1000 H 0.10559 0.4832 0.3951 0.0
H1001 H 0.95388 0.43571 0.34731 0.0
H1002 H 0.11464 0.53123 0.31246 0.0
H1003 H 0.1828 0.58512 0.32484 0.0
H1004 H 0.12939 0.62777 0.37315 0.0
H1005 H 0.06098 0.5739 0.36119 0.0
C1006 C 0.96222 0.46067 0.23617 0.0
C1007 C 0.97485 0.49882 0.2265 0.0
C1008 C 0.9657 0.45704 0.25962 0.0
C1009 C 0.98088 0.49137 0.27377 0.0
C1010 C 0.99109 0.52903 0.26409 0.0
C1011 C 0.98863 0.53281 0.24064 0.0
C1012 C 0.99052 0.48926 0.29813 0.0
C1013 C 0.02976 0.51712 0.30606 0.0
C1014 C 0.96255 0.45972 0.31324 0.0
C1015 C 0.9202 0.43039 0.30612 0.0
C1016 C 0.89515 0.44404 0.29658 0.0
C1017 C 0.85575 0.41619 0.28919 0.0
C1018 C 0.84093 0.37459 0.2914 0.0
C1019 C 0.86541 0.36077 0.30114 0.0
C1020 C 0.90485 0.38849 0.30855 0.0
C1021 C 0.0257 0.49613 0.40721 0.0
C1022 C 0.06148 0.49475 0.41071 0.0
C1023 C 0.00852 0.4905 0.38542 0.0
C1024 C 0.0271 0.48355 0.36695 0.0
C1025 C 0.06103 0.47896 0.37085 0.0
C1026 C 0.07815 0.48465 0.39258 0.0
C1027 C 0.01445 0.48618 0.34341 0.0
C1028 C 0.97502 0.45841 0.33571 0.0
C1029 C 0.04181 0.51637 0.32849 0.0
C1030 C 0.08281 0.5484 0.33605 0.0
C1031 C 0.11751 0.55209 0.32575 0.0
C1032 C 0.15615 0.58255 0.33273 0.0
C1033 C 0.16042 0.60976 0.34982 0.0
C1034 C 0.12604 0.60658 0.35997 0.0
C1035 C 0.08735 0.57594 0.3532 0.0
H1036 H 0.19035 0.63338 0.35516 0.0
H1037 H 0.81047 0.35308 0.28559 0.0
loop_
_geom_bond_atom_site_label_1
_geom_bond_atom_site_label_2
_geom_bond_distance
_geom_bond_site_symmetry_2
_ccdc_geom_bond_type
Zn0 O6 1.969 . S
Zn0 O7 1.965 . S
Zn0 O11 2.024 . S
Zn0 O16 1.969 . S
Zn1 O8 1.969 . S
Zn1 O14 1.969 . S
Zn1 O15 1.965 . S
Zn1 O17 2.024 . S
C2 O3 1.229 . S
C2 O11 1.058 . S
O3 C2 1.229 . S
C4 O5 1.229 . S
C4 O17 1.058 . S
O5 C4 1.229 . S
O6 Zn0 1.969 . S
O6 C9 1.267 . S
O7 Zn0 1.965 . S
O7 C18 1.260 1_455 S
O8 Zn1 1.969 . S
O8 C18 1.258 . S
C9 O6 1.267 . S
C9 O10 1.228 . S
O10 C9 1.228 . S
O11 Zn0 2.024 . S
O11 C2 1.058 . S
C12 O13 1.228 . S
C12 O14 1.267 . S
O13 C12 1.228 . S
O14 Zn1 1.969 . S
O14 C12 1.267 . S
O15 Zn1 1.965 . S
O15 C19 1.260 1_655 S
O16 Zn0 1.969 . S
O16 C19 1.258 . S
O17 Zn1 2.024 . S
O17 C4 1.058 . S
C18 O7 1.260 1_655 S
C18 O8 1.258 . S
C19 O15 1.260 1_455 S
C19 O16 1.258 . S
Zn20 O26 1.969 . S
Zn20 O27 1.965 . S
Zn20 O31 2.024 . S
Zn20 O36 1.969 . S
Zn21 O28 1.969 . S
Zn21 O34 1.969 . S
Zn21 O35 1.965 1_565 S
Zn21 O37 2.024 . S
C22 O23 1.229 . S
C22 O31 1.058 . S
O23 C22 1.229 . S
C24 O25 1.229 . S
C24 O37 1.058 . S
O25 C24 1.229 . S
O26 Zn20 1.969 . S
O26 C29 1.267 . S
O27 Zn20 1.965 . S
O27 C38 1.260 . S
O28 Zn21 1.969 . S
O28 C38 1.258 1_565 S
C29 O26 1.267 . S
C29 O30 1.228 . S
O30 C29 1.228 . S
O31 Zn20 2.024 . S
O31 C22 1.058 . S
C32 O33 1.228 . S
C32 O34 1.267 . S
O33 C32 1.228 . S
O34 Zn21 1.969 . S
O34 C32 1.267 . S
O35 Zn21 1.965 1_545 S
O35 C39 1.260 . S
O36 Zn20 1.969 . S
O36 C39 1.258 . S
O37 Zn21 2.024 . S
O37 C24 1.058 . S
C38 O27 1.260 . S
C38 O28 1.258 1_545 S
C39 O35 1.260 . S
C39 O36 1.258 . S
Zn40 O46 1.969 . S
Zn40 O47 1.965 . S
Zn40 O51 2.024 . S
Zn40 O56 1.969 . S
Zn41 O48 1.969 . S
Zn41 O54 1.969 . S
Zn41 O55 1.965 . S
Zn41 O57 2.024 . S
C42 O43 1.229 . S
C42 O51 1.058 . S
O43 C42 1.229 . S
C44 O45 1.229 . S
C44 O57 1.058 . S
O45 C44 1.229 . S
O46 Zn40 1.969 . S
O46 C49 1.267 . S
O47 Zn40 1.965 . S
O47 C58 1.260 . S
O48 Zn41 1.969 . S
O48 C58 1.258 . S
C49 O46 1.267 . S
C49 O50 1.228 . S
O50 C49 1.228 . S
O51 Zn40 2.024 . S
O51 C42 1.058 . S
C52 O53 1.228 . S
C52 O54 1.267 . S
O53 C52 1.228 . S
O54 Zn41 1.969 . S
O54 C52 1.267 . S
O55 Zn41 1.965 . S
O55 C59 1.260 . S
O56 Zn40 1.969 . S
O56 C59 1.258 . S
O57 Zn41 2.024 . S
O57 C44 1.058 . S
C58 O47 1.260 . S
C58 O48 1.258 . S
C59 O55 1.260 . S
C59 O56 1.258 . S
C60 N61 1.317 . S
C60 N62 1.348 1_545 S
C60 C63 1.485 . S
N61 C60 1.317 . S
N61 N65 1.370 . S
N62 C60 1.348 1_565 S
N62 C64 1.346 . S
C63 C60 1.485 . S
C63 H67 0.960 . S
C63 H68 0.961 1_545 S
C63 H69 0.960 . S
C64 N62 1.346 . S
C64 N65 1.307 1_565 S
C64 C66 1.486 . S
N65 N61 1.370 . S
N65 C64 1.307 1_545 S
C66 C64 1.486 . S
C66 H70 0.960 . S
C66 H71 0.960 . S
C66 H72 0.959 . S
H67 C63 0.960 . S
H68 C63 0.961 1_565 S
H69 C63 0.960 . S
H70 C66 0.960 . S
H71 C66 0.960 . S
H72 C66 0.959 . S
C73 N74 1.317 . S
C73 N75 1.348 . S
C73 C76 1.485 . S
N74 C73 1.317 . S
N74 N78 1.370 . S
N75 C73 1.348 . S
N75 C77 1.346 . S
C76 C73 1.485 . S
C76 H80 0.960 . S
C76 H81 0.961 . S
C76 H82 0.960 . S
C77 N75 1.346 . S
C77 N78 1.307 . S
C77 C79 1.486 . S
N78 N74 1.370 . S
N78 C77 1.307 . S
C79 C77 1.486 . S
C79 H83 0.960 . S
C79 H84 0.960 . S
C79 H85 0.959 . S
H80 C76 0.960 . S
H81 C76 0.961 . S
H82 C76 0.960 . S
H83 C79 0.960 . S
H84 C79 0.960 . S
H85 C79 0.959 . S
C86 N87 1.317 . S
C86 N88 1.348 . S
C86 C89 1.485 . S
N87 C86 1.317 . S
N87 N91 1.370 . S
N88 C86 1.348 . S
N88 C90 1.346 . S
C89 C86 1.485 . S
C89 H93 0.960 . S
C89 H94 0.961 . S
C89 H95 0.960 . S
C90 N88 1.346 . S
C90 N91 1.307 . S
C90 C92 1.486 1_455 S
N91 N87 1.370 . S
N91 C90 1.307 . S
C92 C90 1.486 1_655 S
C92 H96 0.960 . S
C92 H97 0.960 . S
C92 H98 0.959 . S
H93 C89 0.960 . S
H94 C89 0.961 . S
H95 C89 0.960 . S
H96 C92 0.960 . S
H97 C92 0.960 . S
H98 C92 0.959 . S
C99 N100 1.317 . S
C99 N101 1.348 . S
C99 C102 1.485 . S
N100 C99 1.317 . S
N100 N104 1.370 . S
N101 C99 1.348 . S
N101 C103 1.346 . S
C102 C99 1.485 . S
C102 H106 0.960 . S
C102 H107 0.961 . S
C102 H108 0.960 . S
C103 N101 1.346 . S
C103 N104 1.307 . S
C103 C105 1.486 . S
N104 N100 1.370 . S
N104 C103 1.307 . S
C105 C103 1.486 . S
C105 H109 0.960 . S
C105 H110 0.960 . S
C105 H111 0.959 . S
H106 C102 0.960 . S
H107 C102 0.961 . S
H108 C102 0.960 . S
H109 C105 0.960 . S
H110 C105 0.960 . S
H111 C105 0.959 . S
C112 N113 1.317 . S
C112 N114 1.348 . S
C112 C115 1.485 . S
N113 C112 1.317 . S
N113 N117 1.370 . S
N114 C112 1.348 . S
N114 C116 1.346 . S
C115 C112 1.485 . S
C115 H119 0.960 . S
C115 H120 0.961 . S
C115 H121 0.960 . S
C116 N114 1.346 . S
C116 N117 1.307 . S
C116 C118 1.486 . S
N117 N113 1.370 . S
N117 C116 1.307 . S
C118 C116 1.486 . S
C118 H122 0.960 . S
C118 H123 0.960 . S
C118 H124 0.959 . S
H119 C115 0.960 . S
H120 C115 0.961 . S
H121 C115 0.960 . S
H122 C118 0.960 . S
H123 C118 0.960 . S
H124 C118 0.959 . S
C125 N126 1.317 . S
C125 N127 1.348 . S
C125 C128 1.485 . S
N126 C125 1.317 . S
N126 N130 1.370 . S
N127 C125 1.348 . S
N127 C129 1.346 . S
C128 C125 1.485 . S
C128 H132 0.960 . S
C128 H133 0.961 . S
C128 H134 0.960 . S
C129 N127 1.346 . S
C129 N130 1.307 . S
C129 C131 1.486 . S
N130 N126 1.370 . S
N130 C129 1.307 . S
C131 C129 1.486 . S
C131 H135 0.960 . S
C131 H136 0.960 . S
C131 H137 0.959 . S
H132 C128 0.960 . S
H133 C128 0.961 . S
H134 C128 0.960 . S
H135 C131 0.960 . S
H136 C131 0.960 . S
H137 C131 0.959 . S
H138 C156 0.951 . S
H139 C158 0.951 . S
H140 C160 0.950 . S
H141 C161 0.950 . S
H142 C163 0.950 . S
H143 C166 0.950 . S
H144 C167 0.950 . S
H145 C169 0.950 . S
H146 C170 0.950 . S
H147 C171 0.951 . S
H148 C173 0.951 . S
H149 C175 0.950 . S
H150 C176 0.950 . S
H151 C178 0.950 . S
H152 C181 0.950 . S
H153 C182 0.950 . S
H154 C184 0.950 . S
H155 C185 0.950 . S
C156 H138 0.951 . S
C156 C157 1.366 . S
C156 C158 1.388 . S
C157 C156 1.366 . S
C157 C161 1.385 . S
C158 H139 0.951 . S
C158 C156 1.388 . S
C158 C159 1.366 . S
C159 C158 1.366 . S
C159 C160 1.414 . S
C159 C162 1.499 . S
C160 H140 0.950 . S
C160 C159 1.414 . S
C160 C161 1.374 . S
C161 H141 0.950 . S
C161 C157 1.385 . S
C161 C160 1.374 . S
C162 C159 1.499 . S
C162 C163 1.373 . S
C162 C164 1.389 . S
C163 H142 0.950 . S
C163 C162 1.373 . S
C163 C179 1.377 . S
C164 C162 1.389 . S
C164 C165 1.524 . S
C164 C178 1.377 . S
C165 C164 1.524 . S
C165 C166 1.397 . S
C165 C170 1.363 . S
C166 H143 0.950 . S
C166 C165 1.397 . S
C166 C167 1.334 . S
C167 H144 0.950 . S
C167 C166 1.334 . S
C167 C168 1.287 . S
C168 C167 1.287 . S
C168 C169 1.524 . S
C168 H187 0.913 . S
C169 H145 0.950 . S
C169 C168 1.524 . S
C169 C170 1.415 . S
C170 H146 0.950 . S
C170 C165 1.363 . S
C170 C169 1.415 . S
C171 H147 0.951 . S
C171 C172 1.366 . S
C171 C173 1.388 . S
C172 C171 1.366 . S
C172 C176 1.385 . S
C173 H148 0.951 . S
C173 C171 1.388 . S
C173 C174 1.366 . S
C174 C173 1.366 . S
C174 C175 1.414 . S
C174 C177 1.499 . S
C175 H149 0.950 . S
C175 C174 1.414 . S
C175 C176 1.374 . S
C176 H150 0.950 . S
C176 C172 1.385 . S
C176 C175 1.374 . S
C177 C174 1.499 . S
C177 C178 1.373 . S
C177 C179 1.389 . S
C178 H151 0.950 . S
C178 C164 1.377 . S
C178 C177 1.373 . S
C179 C163 1.377 . S
C179 C177 1.389 . S
C179 C180 1.524 . S
C180 C179 1.524 . S
C180 C181 1.397 . S
C180 C185 1.363 . S
C181 H152 0.950 . S
C181 C180 1.397 . S
C181 C182 1.334 . S
C182 H153 0.950 . S
C182 C181 1.334 . S
C182 C183 1.287 . S
C183 C182 1.287 . S
C183 C184 1.524 . S
C183 H186 0.999 . S
C184 H154 0.950 . S
C184 C183 1.524 . S
C184 C185 1.415 . S
C185 H155 0.950 . S
C185 C180 1.363 . S
C185 C184 1.415 . S
H186 C183 0.999 . S
H187 C168 0.913 . S
H188 C206 0.951 . S
H189 C208 0.951 . S
H190 C210 0.950 . S
H191 C211 0.950 . S
H192 C213 0.950 . S
H193 C216 0.950 . S
H194 C217 0.950 . S
H195 C219 0.950 . S
H196 C220 0.950 . S
H197 C221 0.951 . S
H198 C223 0.951 . S
H199 C225 0.950 . S
H200 C226 0.950 . S
H201 C228 0.950 . S
H202 C231 0.950 . S
H203 C232 0.950 . S
H204 C234 0.950 . S
H205 C235 0.950 . S
C206 H188 0.951 . S
C206 C207 1.366 . S
C206 C208 1.388 . S
C207 C206 1.366 . S
C207 C211 1.385 . S
C208 H189 0.951 . S
C208 C206 1.388 . S
C208 C209 1.366 . S
C209 C208 1.366 . S
C209 C210 1.414 . S
C209 C212 1.499 . S
C210 H190 0.950 . S
C210 C209 1.414 . S
C210 C211 1.374 . S
C211 H191 0.950 . S
C211 C207 1.385 . S
C211 C210 1.374 . S
C212 C209 1.499 . S
C212 C213 1.373 . S
C212 C214 1.389 . S
C213 H192 0.950 . S
C213 C212 1.373 . S
C213 C229 1.377 . S
C214 C212 1.389 . S
C214 C215 1.524 . S
C214 C228 1.377 . S
C215 C214 1.524 . S
C215 C216 1.397 . S
C215 C220 1.363 . S
C216 H193 0.950 . S
C216 C215 1.397 . S
C216 C217 1.334 . S
C217 H194 0.950 . S
C217 C216 1.334 . S
C217 C218 1.287 . S
C218 C217 1.287 . S
C218 C219 1.524 . S
C218 H237 0.913 . S
C219 H195 0.950 . S
C219 C218 1.524 . S
C219 C220 1.415 . S
C220 H196 0.950 . S
C220 C215 1.363 . S
C220 C219 1.415 . S
C221 H197 0.951 . S
C221 C222 1.366 . S
C221 C223 1.388 1_455 S
C222 C221 1.366 . S
C222 C226 1.385 1_455 S
C223 H198 0.951 . S
C223 C221 1.388 1_655 S
C223 C224 1.366 . S
C224 C223 1.366 . S
C224 C225 1.414 . S
C224 C227 1.499 . S
C225 H199 0.950 . S
C225 C224 1.414 . S
C225 C226 1.374 . S
C226 H200 0.950 . S
C226 C222 1.385 1_655 S
C226 C225 1.374 . S
C227 C224 1.499 . S
C227 C228 1.373 . S
C227 C229 1.389 . S
C228 H201 0.950 . S
C228 C214 1.377 . S
C228 C227 1.373 . S
C229 C213 1.377 . S
C229 C227 1.389 . S
C229 C230 1.524 . S
C230 C229 1.524 . S
C230 C231 1.397 . S
C230 C235 1.363 . S
C231 H202 0.950 . S
C231 C230 1.397 . S
C231 C232 1.334 1_655 S
C232 H203 0.950 . S
C232 C231 1.334 1_455 S
C232 C233 1.287 . S
C233 C232 1.287 . S
C233 C234 1.524 . S
C233 H236 0.999 . S
C234 H204 0.950 . S
C234 C233 1.524 . S
C234 C235 1.415 1_455 S
C235 H205 0.950 . S
C235 C230 1.363 . S
C235 C234 1.415 1_655 S
H236 C233 0.999 . S
H237 C218 0.913 . S
H238 C256 0.951 . S
H239 C258 0.951 . S
H240 C260 0.950 . S
H241 C261 0.950 . S
H242 C263 0.950 . S
H243 C266 0.950 . S
H244 C267 0.950 . S
H245 C269 0.950 . S
H246 C270 0.950 . S
H247 C271 0.951 . S
H248 C273 0.951 . S
H249 C275 0.950 . S
H250 C276 0.950 . S
H251 C278 0.950 . S
H252 C281 0.950 . S
H253 C282 0.950 . S
H254 C284 0.950 . S
H255 C285 0.950 . S
C256 H238 0.951 . S
C256 C257 1.366 . S
C256 C258 1.388 . S
C257 C256 1.366 . S
C257 C261 1.385 . S
C258 H239 0.951 . S
C258 C256 1.388 . S
C258 C259 1.366 . S
C259 C258 1.366 . S
C259 C260 1.414 . S
C259 C262 1.499 . S
C260 H240 0.950 . S
C260 C259 1.414 . S
C260 C261 1.374 . S
C261 H241 0.950 . S
C261 C257 1.385 . S
C261 C260 1.374 . S
C262 C259 1.499 . S
C262 C263 1.373 . S
C262 C264 1.389 . S
C263 H242 0.950 . S
C263 C262 1.373 . S
C263 C279 1.377 . S
C264 C262 1.389 . S
C264 C265 1.524 . S
C264 C278 1.377 . S
C265 C264 1.524 . S
C265 C266 1.397 . S
C265 C270 1.363 . S
C266 H243 0.950 . S
C266 C265 1.397 . S
C266 C267 1.334 . S
C267 H244 0.950 . S
C267 C266 1.334 . S
C267 C268 1.287 . S
C268 C267 1.287 . S
C268 C269 1.524 . S
C268 H287 0.913 . S
C269 H245 0.950 . S
C269 C268 1.524 . S
C269 C270 1.415 . S
C270 H246 0.950 . S
C270 C265 1.363 . S
C270 C269 1.415 . S
C271 H247 0.951 . S
C271 C272 1.366 1_565 S
C271 C273 1.388 . S
C272 C271 1.366 1_545 S
C272 C276 1.385 . S
C273 H248 0.951 . S
C273 C271 1.388 . S
C273 C274 1.366 . S
C274 C273 1.366 . S
C274 C275 1.414 . S
C274 C277 1.499 . S
C275 H249 0.950 . S
C275 C274 1.414 . S
C275 C276 1.374 1_565 S
C276 H250 0.950 . S
C276 C272 1.385 . S
C276 C275 1.374 1_545 S
C277 C274 1.499 . S
C277 C278 1.373 . S
C277 C279 1.389 . S
C278 H251 0.950 . S
C278 C264 1.377 . S
C278 C277 1.373 . S
C279 C263 1.377 . S
C279 C277 1.389 . S
C279 C280 1.524 . S
C280 C279 1.524 . S
C280 C281 1.397 . S
C280 C285 1.363 . S
C281 H252 0.950 . S
C281 C280 1.397 . S
C281 C282 1.334 . S
C282 H253 0.950 . S
C282 C281 1.334 . S
C282 C283 1.287 . S
C283 C282 1.287 . S
C283 C284 1.524 . S
C283 H286 0.999 . S
C284 H254 0.950 . S
C284 C283 1.524 . S
C284 C285 1.415 . S
C285 H255 0.950 . S
C285 C280 1.363 . S
C285 C284 1.415 . S
H286 C283 0.999 . S
H287 C268 0.913 . S
H288 C306 0.951 . S
H289 C308 0.951 . S
H290 C310 0.950 . S
H291 C311 0.950 . S
H292 C313 0.950 . S
H293 C316 0.950 . S
H294 C317 0.950 . S
H295 C319 0.950 . S
H296 C320 0.950 . S
H297 C321 0.951 . S
H298 C323 0.951 . S
H299 C325 0.950 . S
H300 C326 0.950 . S
H301 C328 0.950 . S
H302 C331 0.950 . S
H303 C332 0.950 . S
H304 C334 0.950 . S
H305 C335 0.950 . S
C306 H288 0.951 . S
C306 C307 1.366 . S
C306 C308 1.388 . S
C307 C306 1.366 . S
C307 C311 1.385 . S
C308 H289 0.951 . S
C308 C306 1.388 . S
C308 C309 1.366 . S
C309 C308 1.366 . S
C309 C310 1.414 . S
C309 C312 1.499 . S
C310 H290 0.950 . S
C310 C309 1.414 . S
C310 C311 1.374 . S
C311 H291 0.950 . S
C311 C307 1.385 . S
C311 C310 1.374 . S
C312 C309 1.499 . S
C312 C313 1.373 . S
C312 C314 1.389 . S
C313 H292 0.950 . S
C313 C312 1.373 . S
C313 C329 1.377 . S
C314 C312 1.389 . S
C314 C315 1.524 . S
C314 C328 1.377 . S
C315 C314 1.524 . S
C315 C316 1.397 . S
C315 C320 1.363 . S
C316 H293 0.950 . S
C316 C315 1.397 . S
C316 C317 1.334 . S
C317 H294 0.950 . S
C317 C316 1.334 . S
C317 C318 1.287 . S
C318 C317 1.287 . S
C318 C319 1.524 . S
C318 H337 0.913 . S
C319 H295 0.950 . S
C319 C318 1.524 . S
C319 C320 1.415 . S
C320 H296 0.950 . S
C320 C315 1.363 . S
C320 C319 1.415 . S
C321 H297 0.951 . S
C321 C322 1.366 . S
C321 C323 1.388 . S
C322 C321 1.366 . S
C322 C326 1.385 . S
C323 H298 0.951 . S
C323 C321 1.388 . S
C323 C324 1.366 . S
C324 C323 1.366 . S
C324 C325 1.414 . S
C324 C327 1.499 . S
C325 H299 0.950 . S
C325 C324 1.414 . S
C325 C326 1.374 . S
C326 H300 0.950 . S
C326 C322 1.385 . S
C326 C325 1.374 . S
C327 C324 1.499 . S
C327 C328 1.373 . S
C327 C329 1.389 . S
C328 H301 0.950 . S
C328 C314 1.377 . S
C328 C327 1.373 . S
C329 C313 1.377 . S
C329 C327 1.389 . S
C329 C330 1.524 . S
C330 C329 1.524 . S
C330 C331 1.397 . S
C330 C335 1.363 . S
C331 H302 0.950 . S
C331 C330 1.397 . S
C331 C332 1.334 . S
C332 H303 0.950 . S
C332 C331 1.334 . S
C332 C333 1.287 . S
C333 C332 1.287 . S
C333 C334 1.524 . S
C333 H336 0.999 . S
C334 H304 0.950 . S
C334 C333 1.524 . S
C334 C335 1.415 . S
C335 H305 0.950 . S
C335 C330 1.363 . S
C335 C334 1.415 . S
H336 C333 0.999 . S
H337 C318 0.913 . S
H338 C356 0.951 . S
H339 C358 0.951 . S
H340 C360 0.950 . S
H341 C361 0.950 . S
H342 C363 0.950 . S
H343 C366 0.950 . S
H344 C367 0.950 . S
H345 C369 0.950 . S
H346 C370 0.950 . S
H347 C371 0.951 . S
H348 C373 0.951 . S
H349 C375 0.950 . S
H350 C376 0.950 . S
H351 C378 0.950 . S
H352 C381 0.950 . S
H353 C382 0.950 . S
H354 C384 0.950 . S
H355 C385 0.950 . S
C356 H338 0.951 . S
C356 C357 1.366 . S
C356 C358 1.388 . S
C357 C356 1.366 . S
C357 C361 1.385 . S
C358 H339 0.951 . S
C358 C356 1.388 . S
C358 C359 1.366 . S
C359 C358 1.366 . S
C359 C360 1.414 . S
C359 C362 1.499 . S
C360 H340 0.950 . S
C360 C359 1.414 . S
C360 C361 1.374 . S
C361 H341 0.950 . S
C361 C357 1.385 . S
C361 C360 1.374 . S
C362 C359 1.499 . S
C362 C363 1.373 . S
C362 C364 1.389 . S
C363 H342 0.950 . S
C363 C362 1.373 . S
C363 C379 1.377 . S
C364 C362 1.389 . S
C364 C365 1.524 . S
C364 C378 1.377 . S
C365 C364 1.524 . S
C365 C366 1.397 . S
C365 C370 1.363 . S
C366 H343 0.950 . S
C366 C365 1.397 . S
C366 C367 1.334 . S
C367 H344 0.950 . S
C367 C366 1.334 . S
C367 C368 1.287 . S
C368 C367 1.287 . S
C368 C369 1.524 . S
C368 H387 0.913 . S
C369 H345 0.950 . S
C369 C368 1.524 . S
C369 C370 1.415 . S
C370 H346 0.950 . S
C370 C365 1.363 . S
C370 C369 1.415 . S
C371 H347 0.951 . S
C371 C372 1.366 . S
C371 C373 1.388 . S
C372 C371 1.366 . S
C372 C376 1.385 . S
C373 H348 0.951 . S
C373 C371 1.388 . S
C373 C374 1.366 . S
C374 C373 1.366 . S
C374 C375 1.414 . S
C374 C377 1.499 . S
C375 H349 0.950 . S
C375 C374 1.414 . S
C375 C376 1.374 . S
C376 H350 0.950 . S
C376 C372 1.385 . S
C376 C375 1.374 . S
C377 C374 1.499 . S
C377 C378 1.373 . S
C377 C379 1.389 . S
C378 H351 0.950 . S
C378 C364 1.377 . S
C378 C377 1.373 . S
C379 C363 1.377 . S
C379 C377 1.389 . S
C379 C380 1.524 . S
C380 C379 1.524 . S
C380 C381 1.397 . S
C380 C385 1.363 . S
C381 H352 0.950 . S
C381 C380 1.397 . S
C381 C382 1.334 . S
C382 H353 0.950 . S
C382 C381 1.334 . S
C382 C383 1.287 . S
C383 C382 1.287 . S
C383 C384 1.524 . S
C383 H386 0.999 . S
C384 H354 0.950 . S
C384 C383 1.524 . S
C384 C385 1.415 . S
C385 H355 0.950 . S
C385 C380 1.363 . S
C385 C384 1.415 . S
H386 C383 0.999 . S
H387 C368 0.913 . S
H388 C406 0.951 . S
H389 C408 0.951 . S
H390 C410 0.950 . S
H391 C411 0.950 . S
H392 C413 0.950 . S
H393 C416 0.950 . S
H394 C417 0.950 . S
H395 C419 0.950 . S
H396 C420 0.950 . S
H397 C421 0.951 . S
H398 C423 0.951 . S
H399 C425 0.950 . S
H400 C426 0.950 . S
H401 C428 0.950 . S
H402 C431 0.950 . S
H403 C432 0.950 . S
H404 C434 0.950 . S
H405 C435 0.950 . S
C406 H388 0.951 . S
C406 C407 1.366 . S
C406 C408 1.388 . S
C407 C406 1.366 . S
C407 C411 1.385 . S
C408 H389 0.951 . S
C408 C406 1.388 . S
C408 C409 1.366 . S
C409 C408 1.366 . S
C409 C410 1.414 . S
C409 C412 1.499 . S
C410 H390 0.950 . S
C410 C409 1.414 . S
C410 C411 1.374 . S
C411 H391 0.950 . S
C411 C407 1.385 . S
C411 C410 1.374 . S
C412 C409 1.499 . S
C412 C413 1.373 . S
C412 C414 1.389 . S
C413 H392 0.950 . S
C413 C412 1.373 . S
C413 C429 1.377 . S
C414 C412 1.389 . S
C414 C415 1.524 . S
C414 C428 1.377 . S
C415 C414 1.524 . S
C415 C416 1.397 . S
C415 C420 1.363 . S
C416 H393 0.950 . S
C416 C415 1.397 . S
C416 C417 1.334 . S
C417 H394 0.950 . S
C417 C416 1.334 . S
C417 C418 1.287 . S
C418 C417 1.287 . S
C418 C419 1.524 . S
C418 H437 0.913 . S
C419 H395 0.950 . S
C419 C418 1.524 . S
C419 C420 1.415 . S
C420 H396 0.950 . S
C420 C415 1.363 . S
C420 C419 1.415 . S
C421 H397 0.951 . S
C421 C422 1.366 . S
C421 C423 1.388 . S
C422 C421 1.366 . S
C422 C426 1.385 . S
C423 H398 0.951 . S
C423 C421 1.388 . S
C423 C424 1.366 . S
C424 C423 1.366 . S
C424 C425 1.414 . S
C424 C427 1.499 . S
C425 H399 0.950 . S
C425 C424 1.414 . S
C425 C426 1.374 . S
C426 H400 0.950 . S
C426 C422 1.385 . S
C426 C425 1.374 . S
C427 C424 1.499 . S
C427 C428 1.373 . S
C427 C429 1.389 . S
C428 H401 0.950 . S
C428 C414 1.377 . S
C428 C427 1.373 . S
C429 C413 1.377 . S
C429 C427 1.389 . S
C429 C430 1.524 . S
C430 C429 1.524 . S
C430 C431 1.397 . S
C430 C435 1.363 . S
C431 H402 0.950 . S
C431 C430 1.397 . S
C431 C432 1.334 . S
C432 H403 0.950 . S
C432 C431 1.334 . S
C432 C433 1.287 . S
C433 C432 1.287 . S
C433 C434 1.524 . S
C433 H436 0.999 . S
C434 H404 0.950 . S
C434 C433 1.524 . S
C434 C435 1.415 . S
C435 H405 0.950 . S
C435 C430 1.363 . S
C435 C434 1.415 . S
H436 C433 0.999 . S
H437 C418 0.913 . S
H438 C456 0.951 . S
H439 C458 0.951 . S
H440 C460 0.950 . S
H441 C461 0.950 . S
H442 C463 0.950 . S
H443 C466 0.950 . S
H444 C467 0.950 . S
H445 C469 0.950 . S
H446 C470 0.950 . S
H447 C471 0.951 . S
H448 C473 0.951 . S
H449 C475 0.950 . S
H450 C476 0.950 . S
H451 C478 0.950 . S
H452 C481 0.950 . S
H453 C482 0.950 . S
H454 C484 0.950 . S
H455 C485 0.950 . S
C456 H438 0.951 . S
C456 C457 1.366 . S
C456 C458 1.388 . S
C457 C456 1.366 . S
C457 C461 1.385 . S
C458 H439 0.951 . S
C458 C456 1.388 . S
C458 C459 1.366 . S
C459 C458 1.366 . S
C459 C460 1.414 . S
C459 C462 1.499 . S
C460 H440 0.950 . S
C460 C459 1.414 . S
C460 C461 1.374 . S
C461 H441 0.950 . S
C461 C457 1.385 . S
C461 C460 1.374 . S
C462 C459 1.499 . S
C462 C463 1.373 . S
C462 C464 1.389 . S
C463 H442 0.950 . S
C463 C462 1.373 . S
C463 C479 1.377 . S
C464 C462 1.389 . S
C464 C465 1.524 . S
C464 C478 1.377 . S
C465 C464 1.524 . S
C465 C466 1.397 . S
C465 C470 1.363 . S
C466 H443 0.950 . S
C466 C465 1.397 . S
C466 C467 1.334 . S
C467 H444 0.950 . S
C467 C466 1.334 . S
C467 C468 1.287 . S
C468 C467 1.287 . S
C468 C469 1.524 . S
C468 H487 0.913 . S
C469 H445 0.950 . S
C469 C468 1.524 . S
C469 C470 1.415 . S
C470 H446 0.950 . S
C470 C465 1.363 . S
C470 C469 1.415 . S
C471 H447 0.951 . S
C471 C472 1.366 . S
C471 C473 1.388 . S
C472 C471 1.366 . S
C472 C476 1.385 . S
C473 H448 0.951 . S
C473 C471 1.388 . S
C473 C474 1.366 . S
C474 C473 1.366 . S
C474 C475 1.414 . S
C474 C477 1.499 . S
C475 H449 0.950 . S
C475 C474 1.414 . S
C475 C476 1.374 . S
C476 H450 0.950 . S
C476 C472 1.385 . S
C476 C475 1.374 . S
C477 C474 1.499 . S
C477 C478 1.373 . S
C477 C479 1.389 . S
C478 H451 0.950 . S
C478 C464 1.377 . S
C478 C477 1.373 . S
C479 C463 1.377 . S
C479 C477 1.389 . S
C479 C480 1.524 . S
C480 C479 1.524 . S
C480 C481 1.397 . S
C480 C485 1.363 . S
C481 H452 0.950 . S
C481 C480 1.397 . S
C481 C482 1.334 . S
C482 H453 0.950 . S
C482 C481 1.334 . S
C482 C483 1.287 . S
C483 C482 1.287 . S
C483 C484 1.524 . S
C483 H486 0.999 . S
C484 H454 0.950 . S
C484 C483 1.524 . S
C484 C485 1.415 . S
C485 H455 0.950 . S
C485 C480 1.363 . S
C485 C484 1.415 . S
H486 C483 0.999 . S
H487 C468 0.913 . S
H488 C506 0.951 . S
H489 C508 0.951 . S
H490 C510 0.950 . S
H491 C511 0.950 . S
H492 C513 0.950 . S
H493 C516 0.950 . S
H494 C517 0.950 . S
H495 C519 0.950 . S
H496 C520 0.950 . S
H497 C521 0.951 . S
H498 C523 0.951 . S
H499 C525 0.950 . S
H500 C526 0.950 1_455 S
H501 C528 0.950 . S
H502 C531 0.950 . S
H503 C532 0.950 . S
H504 C534 0.950 . S
H505 C535 0.950 . S
C506 H488 0.951 . S
C506 C507 1.366 . S
C506 C508 1.388 . S
C507 C506 1.366 . S
C507 C511 1.385 . S
C508 H489 0.951 . S
C508 C506 1.388 . S
C508 C509 1.366 . S
C509 C508 1.366 . S
C509 C510 1.414 . S
C509 C512 1.499 . S
C510 H490 0.950 . S
C510 C509 1.414 . S
C510 C511 1.374 . S
C511 H491 0.950 . S
C511 C507 1.385 . S
C511 C510 1.374 . S
C512 C509 1.499 . S
C512 C513 1.373 . S
C512 C514 1.389 . S
C513 H492 0.950 . S
C513 C512 1.373 . S
C513 C529 1.377 . S
C514 C512 1.389 . S
C514 C515 1.524 . S
C514 C528 1.377 . S
C515 C514 1.524 . S
C515 C516 1.397 . S
C515 C520 1.363 . S
C516 H493 0.950 . S
C516 C515 1.397 . S
C516 C517 1.334 . S
C517 H494 0.950 . S
C517 C516 1.334 . S
C517 C518 1.287 . S
C518 C517 1.287 . S
C518 C519 1.524 . S
C518 H537 0.913 . S
C519 H495 0.950 . S
C519 C518 1.524 . S
C519 C520 1.415 . S
C520 H496 0.950 . S
C520 C515 1.363 . S
C520 C519 1.415 . S
C521 H497 0.951 . S
C521 C522 1.366 . S
C521 C523 1.388 . S
C522 C521 1.366 . S
C522 C526 1.385 . S
C523 H498 0.951 . S
C523 C521 1.388 . S
C523 C524 1.366 . S
C524 C523 1.366 . S
C524 C525 1.414 . S
C524 C527 1.499 . S
C525 H499 0.950 . S
C525 C524 1.414 . S
C525 C526 1.374 . S
C526 H500 0.950 1_655 S
C526 C522 1.385 . S
C526 C525 1.374 . S
C527 C524 1.499 . S
C527 C528 1.373 . S
C527 C529 1.389 . S
C528 H501 0.950 . S
C528 C514 1.377 . S
C528 C527 1.373 . S
C529 C513 1.377 . S
C529 C527 1.389 . S
C529 C530 1.524 . S
C530 C529 1.524 . S
C530 C531 1.397 . S
C530 C535 1.363 . S
C531 H502 0.950 . S
C531 C530 1.397 . S
C531 C532 1.334 . S
C532 H503 0.950 . S
C532 C531 1.334 . S
C532 C533 1.287 . S
C533 C532 1.287 . S
C533 C534 1.524 . S
C533 H536 0.999 . S
C534 H504 0.950 . S
C534 C533 1.524 . S
C534 C535 1.415 . S
C535 H505 0.950 . S
C535 C530 1.363 . S
C535 C534 1.415 . S
H536 C533 0.999 . S
H537 C518 0.913 . S
H538 C556 0.951 . S
H539 C558 0.951 . S
H540 C560 0.950 . S
H541 C561 0.950 . S
H542 C563 0.950 . S
H543 C566 0.950 . S
H544 C567 0.950 . S
H545 C569 0.950 . S
H546 C570 0.950 . S
H547 C571 0.951 . S
H548 C573 0.951 . S
H549 C575 0.950 . S
H550 C576 0.950 . S
H551 C578 0.950 . S
H552 C581 0.950 . S
H553 C582 0.950 . S
H554 C584 0.950 . S
H555 C585 0.950 . S
C556 H538 0.951 . S
C556 C557 1.366 . S
C556 C558 1.388 . S
C557 C556 1.366 . S
C557 C561 1.385 . S
C558 H539 0.951 . S
C558 C556 1.388 . S
C558 C559 1.366 . S
C559 C558 1.366 . S
C559 C560 1.414 . S
C559 C562 1.499 . S
C560 H540 0.950 . S
C560 C559 1.414 . S
C560 C561 1.374 . S
C561 H541 0.950 . S
C561 C557 1.385 . S
C561 C560 1.374 . S
C562 C559 1.499 . S
C562 C563 1.373 . S
C562 C564 1.389 . S
C563 H542 0.950 . S
C563 C562 1.373 . S
C563 C579 1.377 . S
C564 C562 1.389 . S
C564 C565 1.524 . S
C564 C578 1.377 . S
C565 C564 1.524 . S
C565 C566 1.397 . S
C565 C570 1.363 . S
C566 H543 0.950 . S
C566 C565 1.397 . S
C566 C567 1.334 . S
C567 H544 0.950 . S
C567 C566 1.334 . S
C567 C568 1.287 . S
C568 C567 1.287 . S
C568 C569 1.524 . S
C568 H587 0.913 . S
C569 H545 0.950 . S
C569 C568 1.524 . S
C569 C570 1.415 . S
C570 H546 0.950 . S
C570 C565 1.363 . S
C570 C569 1.415 . S
C571 H547 0.951 . S
C571 C572 1.366 . S
C571 C573 1.388 . S
C572 C571 1.366 . S
C572 C576 1.385 . S
C573 H548 0.951 . S
C573 C571 1.388 . S
C573 C574 1.366 . S
C574 C573 1.366 . S
C574 C575 1.414 . S
C574 C577 1.499 . S
C575 H549 0.950 . S
C575 C574 1.414 . S
C575 C576 1.374 . S
C576 H550 0.950 . S
C576 C572 1.385 . S
C576 C575 1.374 . S
C577 C574 1.499 . S
C577 C578 1.373 . S
C577 C579 1.389 . S
C578 H551 0.950 . S
C578 C564 1.377 . S
C578 C577 1.373 . S
C579 C563 1.377 . S
C579 C577 1.389 . S
C579 C580 1.524 . S
C580 C579 1.524 . S
C580 C581 1.397 . S
C580 C585 1.363 . S
C581 H552 0.950 . S
C581 C580 1.397 . S
C581 C582 1.334 . S
C582 H553 0.950 . S
C582 C581 1.334 . S
C582 C583 1.287 . S
C583 C582 1.287 . S
C583 C584 1.524 . S
C583 H586 0.999 . S
C584 H554 0.950 . S
C584 C583 1.524 . S
C584 C585 1.415 . S
C585 H555 0.950 . S
C585 C580 1.363 . S
C585 C584 1.415 . S
H586 C583 0.999 . S
H587 C568 0.913 . S
H588 C606 0.951 . S
H589 C608 0.951 . S
H590 C610 0.950 . S
H591 C611 0.950 . S
H592 C613 0.950 . S
H593 C616 0.950 . S
H594 C617 0.950 . S
H595 C619 0.950 . S
H596 C620 0.950 . S
H597 C621 0.951 . S
H598 C623 0.951 . S
H599 C625 0.950 . S
H600 C626 0.950 . S
H601 C628 0.950 . S
H602 C631 0.950 . S
H603 C632 0.950 . S
H604 C634 0.950 . S
H605 C635 0.950 . S
C606 H588 0.951 . S
C606 C607 1.366 . S
C606 C608 1.388 . S
C607 C606 1.366 . S
C607 C611 1.385 . S
C608 H589 0.951 . S
C608 C606 1.388 . S
C608 C609 1.366 . S
C609 C608 1.366 . S
C609 C610 1.414 . S
C609 C612 1.499 . S
C610 H590 0.950 . S
C610 C609 1.414 . S
C610 C611 1.374 . S
C611 H591 0.950 . S
C611 C607 1.385 . S
C611 C610 1.374 . S
C612 C609 1.499 . S
C612 C613 1.373 . S
C612 C614 1.389 . S
C613 H592 0.950 . S
C613 C612 1.373 . S
C613 C629 1.377 . S
C614 C612 1.389 . S
C614 C615 1.524 . S
C614 C628 1.377 . S
C615 C614 1.524 . S
C615 C616 1.397 . S
C615 C620 1.363 . S
C616 H593 0.950 . S
C616 C615 1.397 . S
C616 C617 1.334 . S
C617 H594 0.950 . S
C617 C616 1.334 . S
C617 C618 1.287 . S
C618 C617 1.287 . S
C618 C619 1.524 . S
C618 H637 0.913 . S
C619 H595 0.950 . S
C619 C618 1.524 . S
C619 C620 1.415 . S
C620 H596 0.950 . S
C620 C615 1.363 . S
C620 C619 1.415 . S
C621 H597 0.951 . S
C621 C622 1.366 . S
C621 C623 1.388 . S
C622 C621 1.366 . S
C622 C626 1.385 . S
C623 H598 0.951 . S
C623 C621 1.388 . S
C623 C624 1.366 . S
C624 C623 1.366 . S
C624 C625 1.414 . S
C624 C627 1.499 . S
C625 H599 0.950 . S
C625 C624 1.414 . S
C625 C626 1.374 . S
C626 H600 0.950 . S
C626 C622 1.385 . S
C626 C625 1.374 . S
C627 C624 1.499 . S
C627 C628 1.373 . S
C627 C629 1.389 . S
C628 H601 0.950 . S
C628 C614 1.377 . S
C628 C627 1.373 . S
C629 C613 1.377 . S
C629 C627 1.389 . S
C629 C630 1.524 . S
C630 C629 1.524 . S
C630 C631 1.397 . S
C630 C635 1.363 . S
C631 H602 0.950 . S
C631 C630 1.397 . S
C631 C632 1.334 . S
C632 H603 0.950 . S
C632 C631 1.334 . S
C632 C633 1.287 . S
C633 C632 1.287 . S
C633 C634 1.524 . S
C633 H636 0.999 . S
C634 H604 0.950 . S
C634 C633 1.524 . S
C634 C635 1.415 . S
C635 H605 0.950 . S
C635 C630 1.363 . S
C635 C634 1.415 . S
H636 C633 0.999 . S
H637 C618 0.913 . S
H638 C656 0.951 . S
H639 C658 0.951 . S
H640 C660 0.950 . S
H641 C661 0.950 . S
H642 C663 0.950 . S
H643 C666 0.950 . S
H644 C667 0.950 . S
H645 C669 0.950 . S
H646 C670 0.950 . S
H647 C671 0.951 . S
H648 C673 0.951 . S
H649 C675 0.950 . S
H650 C676 0.950 . S
H651 C678 0.950 . S
H652 C681 0.950 . S
H653 C682 0.950 . S
H654 C684 0.950 . S
H655 C685 0.950 . S
C656 H638 0.951 . S
C656 C657 1.366 . S
C656 C658 1.388 . S
C657 C656 1.366 . S
C657 C661 1.385 . S
C658 H639 0.951 . S
C658 C656 1.388 . S
C658 C659 1.366 . S
C659 C658 1.366 . S
C659 C660 1.414 . S
C659 C662 1.499 . S
C660 H640 0.950 . S
C660 C659 1.414 . S
C660 C661 1.374 . S
C661 H641 0.950 . S
C661 C657 1.385 . S
C661 C660 1.374 . S
C662 C659 1.499 . S
C662 C663 1.373 . S
C662 C664 1.389 . S
C663 H642 0.950 . S
C663 C662 1.373 . S
C663 C679 1.377 . S
C664 C662 1.389 . S
C664 C665 1.524 . S
C664 C678 1.377 . S
C665 C664 1.524 . S
C665 C666 1.397 . S
C665 C670 1.363 . S
C666 H643 0.950 . S
C666 C665 1.397 . S
C666 C667 1.334 . S
C667 H644 0.950 . S
C667 C666 1.334 . S
C667 C668 1.287 . S
C668 C667 1.287 . S
C668 C669 1.524 . S
C668 H687 0.913 . S
C669 H645 0.950 . S
C669 C668 1.524 . S
C669 C670 1.415 . S
C670 H646 0.950 . S
C670 C665 1.363 . S
C670 C669 1.415 . S
C671 H647 0.951 . S
C671 C672 1.366 . S
C671 C673 1.388 . S
C672 C671 1.366 . S
C672 C676 1.385 . S
C673 H648 0.951 . S
C673 C671 1.388 . S
C673 C674 1.366 . S
C674 C673 1.366 . S
C674 C675 1.414 . S
C674 C677 1.499 . S
C675 H649 0.950 . S
C675 C674 1.414 . S
C675 C676 1.374 . S
C676 H650 0.950 . S
C676 C672 1.385 . S
C676 C675 1.374 . S
C677 C674 1.499 . S
C677 C678 1.373 . S
C677 C679 1.389 . S
C678 H651 0.950 . S
C678 C664 1.377 . S
C678 C677 1.373 . S
C679 C663 1.377 . S
C679 C677 1.389 . S
C679 C680 1.524 . S
C680 C679 1.524 . S
C680 C681 1.397 . S
C680 C685 1.363 . S
C681 H652 0.950 . S
C681 C680 1.397 . S
C681 C682 1.334 . S
C682 H653 0.950 . S
C682 C681 1.334 . S
C682 C683 1.287 . S
C683 C682 1.287 . S
C683 C684 1.524 . S
C683 H686 0.999 . S
C684 H654 0.950 . S
C684 C683 1.524 . S
C684 C685 1.415 . S
C685 H655 0.950 . S
C685 C680 1.363 . S
C685 C684 1.415 . S
H686 C683 0.999 . S
H687 C668 0.913 . S
H688 C706 0.951 . S
H689 C708 0.951 . S
H690 C710 0.950 . S
H691 C711 0.950 . S
H692 C713 0.950 . S
H693 C716 0.950 . S
H694 C717 0.950 . S
H695 C719 0.950 . S
H696 C720 0.950 . S
H697 C721 0.951 . S
H698 C723 0.951 . S
H699 C725 0.950 . S
H700 C726 0.950 . S
H701 C728 0.950 . S
H702 C731 0.950 . S
H703 C732 0.950 . S
H704 C734 0.950 . S
H705 C735 0.950 . S
C706 H688 0.951 . S
C706 C707 1.366 . S
C706 C708 1.388 . S
C707 C706 1.366 . S
C707 C711 1.385 . S
C708 H689 0.951 . S
C708 C706 1.388 . S
C708 C709 1.366 . S
C709 C708 1.366 . S
C709 C710 1.414 . S
C709 C712 1.499 . S
C710 H690 0.950 . S
C710 C709 1.414 . S
C710 C711 1.374 . S
C711 H691 0.950 . S
C711 C707 1.385 . S
C711 C710 1.374 . S
C712 C709 1.499 . S
C712 C713 1.373 . S
C712 C714 1.389 . S
C713 H692 0.950 . S
C713 C712 1.373 . S
C713 C729 1.377 . S
C714 C712 1.389 . S
C714 C715 1.524 . S
C714 C728 1.377 . S
C715 C714 1.524 . S
C715 C716 1.397 . S
C715 C720 1.363 . S
C716 H693 0.950 . S
C716 C715 1.397 . S
C716 C717 1.334 . S
C717 H694 0.950 . S
C717 C716 1.334 . S
C717 C718 1.287 . S
C718 C717 1.287 . S
C718 C719 1.524 . S
C718 H737 0.913 . S
C719 H695 0.950 . S
C719 C718 1.524 . S
C719 C720 1.415 . S
C720 H696 0.950 . S
C720 C715 1.363 . S
C720 C719 1.415 . S
C721 H697 0.951 . S
C721 C722 1.366 . S
C721 C723 1.388 . S
C722 C721 1.366 . S
C722 C726 1.385 . S
C723 H698 0.951 . S
C723 C721 1.388 . S
C723 C724 1.366 . S
C724 C723 1.366 . S
C724 C725 1.414 . S
C724 C727 1.499 . S
C725 H699 0.950 . S
C725 C724 1.414 . S
C725 C726 1.374 . S
C726 H700 0.950 . S
C726 C722 1.385 . S
C726 C725 1.374 . S
C727 C724 1.499 . S
C727 C728 1.373 . S
C727 C729 1.389 . S
C728 H701 0.950 . S
C728 C714 1.377 . S
C728 C727 1.373 . S
C729 C713 1.377 . S
C729 C727 1.389 . S
C729 C730 1.524 . S
C730 C729 1.524 . S
C730 C731 1.397 . S
C730 C735 1.363 . S
C731 H702 0.950 . S
C731 C730 1.397 . S
C731 C732 1.334 . S
C732 H703 0.950 . S
C732 C731 1.334 . S
C732 C733 1.287 . S
C733 C732 1.287 . S
C733 C734 1.524 . S
C733 H736 0.999 . S
C734 H704 0.950 . S
C734 C733 1.524 . S
C734 C735 1.415 . S
C735 H705 0.950 . S
C735 C730 1.363 . S
C735 C734 1.415 . S
H736 C733 0.999 . S
H737 C718 0.913 . S
H738 C756 0.951 . S
H739 C758 0.951 . S
H740 C760 0.942 1_655 S
H741 C761 0.950 . S
H742 C763 0.950 . S
H743 C766 0.950 . S
H744 C767 0.950 . S
H745 C769 0.950 . S
H746 C770 0.950 . S
H747 C771 0.951 . S
H748 C773 0.951 . S
H749 C775 0.950 . S
H750 C776 0.950 . S
H751 C778 0.944 1_556 S
H752 C781 0.950 . S
H753 C782 0.950 . S
H754 C784 0.950 . S
H755 C785 0.950 1_554 S
C756 H738 0.951 . S
C756 C757 1.366 . S
C756 C758 1.388 . S
C757 C756 1.366 . S
C757 C761 1.385 1_455 S
C758 H739 0.951 . S
C758 C756 1.388 . S
C758 C759 1.366 . S
C759 C758 1.366 . S
C759 C760 1.423 . S
C759 C762 1.499 . S
C760 H740 0.942 1_455 S
C760 C759 1.423 . S
C760 C761 1.373 1_455 S
C761 H741 0.950 . S
C761 C757 1.385 1_655 S
C761 C760 1.373 1_655 S
C762 C759 1.499 . S
C762 C763 1.373 1_455 S
C762 C764 1.389 . S
C763 H742 0.950 . S
C763 C762 1.373 1_655 S
C763 C779 1.377 1_554 S
C764 C762 1.389 . S
C764 C765 1.524 . S
C764 C778 1.392 . S
C765 C764 1.524 . S
C765 C766 1.397 . S
C765 C770 1.363 . S
C766 H743 0.950 . S
C766 C765 1.397 . S
C766 C767 1.334 . S
C767 H744 0.950 . S
C767 C766 1.334 . S
C767 C768 1.287 . S
C768 C767 1.287 . S
C768 C769 1.524 . S
C768 H787 0.913 . S
C769 H745 0.950 . S
C769 C768 1.524 . S
C769 C770 1.415 . S
C770 H746 0.950 . S
C770 C765 1.363 . S
C770 C769 1.415 . S
C771 H747 0.951 . S
C771 C772 1.366 . S
C771 C773 1.388 . S
C772 C771 1.366 . S
C772 C776 1.385 . S
C773 H748 0.951 . S
C773 C771 1.388 . S
C773 C774 1.366 . S
C774 C773 1.366 . S
C774 C775 1.414 . S
C774 C777 1.499 . S
C775 H749 0.950 . S
C775 C774 1.414 . S
C775 C776 1.374 . S
C776 H750 0.950 . S
C776 C772 1.385 . S
C776 C775 1.374 . S
C777 C774 1.499 . S
C777 C778 1.365 1_556 S
C777 C779 1.389 1_455 S
C778 H751 0.944 1_554 S
C778 C764 1.392 . S
C778 C777 1.365 1_554 S
C779 C763 1.377 1_556 S
C779 C777 1.389 1_655 S
C779 C780 1.524 . S
C780 C779 1.524 . S
C780 C781 1.397 . S
C780 C785 1.363 . S
C781 H752 0.950 . S
C781 C780 1.397 . S
C781 C782 1.334 . S
C782 H753 0.950 . S
C782 C781 1.334 . S
C782 C783 1.287 . S
C783 C782 1.287 . S
C783 C784 1.524 . S
C783 H786 0.999 . S
C784 H754 0.950 . S
C784 C783 1.524 . S
C784 C785 1.415 . S
C785 H755 0.950 1_556 S
C785 C780 1.363 . S
C785 C784 1.415 . S
H786 C783 0.999 . S
H787 C768 0.913 . S
H788 C806 0.951 . S
H789 C808 0.951 . S
H790 C810 0.930 1_565 S
H791 C811 0.950 . S
H792 C813 0.950 . S
H793 C816 0.950 . S
H794 C817 0.950 . S
H795 C819 0.950 1_545 S
H796 C820 0.950 . S
H797 C821 0.951 1_565 S
H798 C823 0.951 1_565 S
H799 C825 0.950 . S
H800 C826 0.950 . S
H801 C828 0.950 . S
H802 C831 0.950 . S
H803 C832 0.950 . S
H804 C834 0.950 . S
H805 C835 0.950 . S
C806 H788 0.951 . S
C806 C807 1.366 . S
C806 C808 1.388 . S
C807 C806 1.366 . S
C807 C811 1.385 . S
C808 H789 0.951 . S
C808 C806 1.388 . S
C808 C809 1.366 . S
C809 C808 1.366 . S
C809 C810 1.414 . S
C809 C812 1.499 . S
C810 H790 0.930 1_545 S
C810 C809 1.414 . S
C810 C811 1.374 . S
C811 H791 0.950 . S
C811 C807 1.385 . S
C811 C810 1.374 . S
C812 C809 1.499 . S
C812 C813 1.373 . S
C812 C814 1.389 . S
C813 H792 0.950 . S
C813 C812 1.373 . S
C813 C829 1.377 . S
C814 C812 1.389 . S
C814 C815 1.524 1_545 S
C814 C828 1.377 . S
C815 C814 1.524 1_565 S
C815 C816 1.397 . S
C815 C820 1.363 1_565 S
C816 H793 0.950 . S
C816 C815 1.397 . S
C816 C817 1.334 . S
C817 H794 0.950 . S
C817 C816 1.334 . S
C817 C818 1.287 . S
C818 C817 1.287 . S
C818 C819 1.524 . S
C818 H837 0.913 . S
C819 H795 0.950 1_565 S
C819 C818 1.524 . S
C819 C820 1.415 1_565 S
C820 H796 0.950 . S
C820 C815 1.363 1_545 S
C820 C819 1.415 1_545 S
C821 H797 0.951 1_545 S
C821 C822 1.366 . S
C821 C823 1.388 . S
C822 C821 1.366 . S
C822 C826 1.385 . S
C823 H798 0.951 1_545 S
C823 C821 1.388 . S
C823 C824 1.366 . S
C824 C823 1.366 . S
C824 C825 1.414 . S
C824 C827 1.499 . S
C825 H799 0.950 . S
C825 C824 1.414 . S
C825 C826 1.374 . S
C826 H800 0.950 . S
C826 C822 1.385 . S
C826 C825 1.374 . S
C827 C824 1.499 . S
C827 C828 1.373 . S
C827 C829 1.389 . S
C828 H801 0.950 . S
C828 C814 1.377 . S
C828 C827 1.373 . S
C829 C813 1.377 . S
C829 C827 1.389 . S
C829 C830 1.524 . S
C830 C829 1.524 . S
C830 C831 1.397 . S
C830 C835 1.363 . S
C831 H802 0.950 . S
C831 C830 1.397 . S
C831 C832 1.334 . S
C832 H803 0.950 . S
C832 C831 1.334 . S
C832 C833 1.287 . S
C833 C832 1.287 . S
C833 C834 1.524 . S
C833 H836 0.999 . S
C834 H804 0.950 . S
C834 C833 1.524 . S
C834 C835 1.415 . S
C835 H805 0.950 . S
C835 C830 1.363 . S
C835 C834 1.415 . S
H836 C833 0.999 . S
H837 C818 0.913 . S
H838 C856 0.951 . S
H839 C858 0.951 . S
H840 C860 0.950 . S
H841 C861 0.950 . S
H842 C863 0.950 . S
H843 C866 0.950 . S
H844 C867 0.950 . S
H845 C869 0.950 . S
H846 C870 0.950 . S
H847 C871 0.951 . S
H848 C873 0.951 . S
H849 C875 0.950 . S
H850 C876 0.950 . S
H851 C878 0.950 . S
H852 C881 0.950 . S
H853 C882 0.950 . S
H854 C884 0.950 . S
H855 C885 0.950 . S
C856 H838 0.951 . S
C856 C857 1.366 . S
C856 C858 1.388 . S
C857 C856 1.366 . S
C857 C861 1.385 . S
C858 H839 0.951 . S
C858 C856 1.388 . S
C858 C859 1.366 . S
C859 C858 1.366 . S
C859 C860 1.414 . S
C859 C862 1.499 . S
C860 H840 0.950 . S
C860 C859 1.414 . S
C860 C861 1.374 . S
C861 H841 0.950 . S
C861 C857 1.385 . S
C861 C860 1.374 . S
C862 C859 1.499 . S
C862 C863 1.373 . S
C862 C864 1.389 . S
C863 H842 0.950 . S
C863 C862 1.373 . S
C863 C879 1.377 . S
C864 C862 1.389 . S
C864 C865 1.524 . S
C864 C878 1.377 . S
C865 C864 1.524 . S
C865 C866 1.397 . S
C865 C870 1.363 . S
C866 H843 0.950 . S
C866 C865 1.397 . S
C866 C867 1.334 . S
C867 H844 0.950 . S
C867 C866 1.334 . S
C867 C868 1.287 . S
C868 C867 1.287 . S
C868 C869 1.524 . S
C868 H887 0.913 . S
C869 H845 0.950 . S
C869 C868 1.524 . S
C869 C870 1.415 . S
C870 H846 0.950 . S
C870 C865 1.363 . S
C870 C869 1.415 . S
C871 H847 0.951 . S
C871 C872 1.366 . S
C871 C873 1.388 . S
C872 C871 1.366 . S
C872 C876 1.385 . S
C873 H848 0.951 . S
C873 C871 1.388 . S
C873 C874 1.366 . S
C874 C873 1.366 . S
C874 C875 1.414 . S
C874 C877 1.499 . S
C875 H849 0.950 . S
C875 C874 1.414 . S
C875 C876 1.374 . S
C876 H850 0.950 . S
C876 C872 1.385 . S
C876 C875 1.374 . S
C877 C874 1.499 . S
C877 C878 1.373 . S
C877 C879 1.389 . S
C878 H851 0.950 . S
C878 C864 1.377 . S
C878 C877 1.373 . S
C879 C863 1.377 . S
C879 C877 1.389 . S
C879 C880 1.524 . S
C880 C879 1.524 . S
C880 C881 1.397 . S
C880 C885 1.363 . S
C881 H852 0.950 . S
C881 C880 1.397 . S
C881 C882 1.334 . S
C882 H853 0.950 . S
C882 C881 1.334 . S
C882 C883 1.287 . S
C883 C882 1.287 . S
C883 C884 1.524 . S
C883 H886 0.999 . S
C884 H854 0.950 . S
C884 C883 1.524 . S
C884 C885 1.415 . S
C885 H855 0.950 . S
C885 C880 1.363 . S
C885 C884 1.415 . S
H886 C883 0.999 . S
H887 C868 0.913 . S
H888 C906 0.951 . S
H889 C908 0.951 . S
H890 C910 0.950 . S
H891 C911 0.950 1_565 S
H892 C913 0.950 1_565 S
H893 C916 0.950 . S
H894 C917 0.950 . S
H895 C919 0.950 . S
H896 C920 0.950 . S
H897 C921 0.951 . S
H898 C923 0.951 . S
H899 C925 0.950 . S
H900 C926 0.950 . S
H901 C928 0.950 . S
H902 C931 0.950 . S
H903 C932 0.950 . S
H904 C934 0.950 . S
H905 C935 0.950 . S
C906 H888 0.951 . S
C906 C907 1.366 . S
C906 C908 1.388 . S
C907 C906 1.366 . S
C907 C911 1.385 . S
C908 H889 0.951 . S
C908 C906 1.388 . S
C908 C909 1.366 . S
C909 C908 1.366 . S
C909 C910 1.414 . S
C909 C912 1.499 . S
C910 H890 0.950 . S
C910 C909 1.414 . S
C910 C911 1.374 . S
C911 H891 0.950 1_545 S
C911 C907 1.385 . S
C911 C910 1.374 . S
C912 C909 1.499 . S
C912 C913 1.373 . S
C912 C914 1.389 . S
C913 H892 0.950 1_545 S
C913 C912 1.373 . S
C913 C929 1.377 . S
C914 C912 1.389 . S
C914 C915 1.524 . S
C914 C928 1.377 . S
C915 C914 1.524 . S
C915 C916 1.397 . S
C915 C920 1.363 . S
C916 H893 0.950 . S
C916 C915 1.397 . S
C916 C917 1.334 . S
C917 H894 0.950 . S
C917 C916 1.334 . S
C917 C918 1.287 . S
C918 C917 1.287 . S
C918 C919 1.524 . S
C918 H937 0.913 . S
C919 H895 0.950 . S
C919 C918 1.524 . S
C919 C920 1.415 . S
C920 H896 0.950 . S
C920 C915 1.363 . S
C920 C919 1.415 . S
C921 H897 0.951 . S
C921 C922 1.366 . S
C921 C923 1.388 . S
C922 C921 1.366 . S
C922 C926 1.385 . S
C923 H898 0.951 . S
C923 C921 1.388 . S
C923 C924 1.366 . S
C924 C923 1.366 . S
C924 C925 1.414 . S
C924 C927 1.499 . S
C925 H899 0.950 . S
C925 C924 1.414 . S
C925 C926 1.374 . S
C926 H900 0.950 . S
C926 C922 1.385 . S
C926 C925 1.374 . S
C927 C924 1.499 . S
C927 C928 1.373 . S
C927 C929 1.389 . S
C928 H901 0.950 . S
C928 C914 1.377 . S
C928 C927 1.373 . S
C929 C913 1.377 . S
C929 C927 1.389 . S
C929 C930 1.524 1_545 S
C930 C929 1.524 1_565 S
C930 C931 1.397 . S
C930 C935 1.363 . S
C931 H902 0.950 . S
C931 C930 1.397 . S
C931 C932 1.334 . S
C932 H903 0.950 . S
C932 C931 1.334 . S
C932 C933 1.287 . S
C933 C932 1.287 . S
C933 C934 1.524 . S
C933 H936 0.999 . S
C934 H904 0.950 . S
C934 C933 1.524 . S
C934 C935 1.415 . S
C935 H905 0.950 . S
C935 C930 1.363 . S
C935 C934 1.415 . S
H936 C933 0.999 . S
H937 C918 0.913 . S
H938 C956 0.951 . S
H939 C958 0.951 . S
H940 C960 0.950 . S
H941 C961 0.950 . S
H942 C963 0.950 . S
H943 C966 0.950 . S
H944 C967 0.950 . S
H945 C969 0.950 . S
H946 C970 0.950 . S
H947 C971 0.951 . S
H948 C973 0.951 . S
H949 C975 0.950 . S
H950 C976 0.950 . S
H951 C978 0.950 . S
H952 C981 0.950 . S
H953 C982 0.950 . S
H954 C984 0.940 1_556 S
H955 C985 0.950 . S
C956 H938 0.951 . S
C956 C957 1.366 . S
C956 C958 1.388 . S
C957 C956 1.366 . S
C957 C961 1.385 . S
C958 H939 0.951 . S
C958 C956 1.388 . S
C958 C959 1.366 . S
C959 C958 1.366 . S
C959 C960 1.414 . S
C959 C962 1.499 . S
C960 H940 0.950 . S
C960 C959 1.414 . S
C960 C961 1.374 . S
C961 H941 0.950 . S
C961 C957 1.385 . S
C961 C960 1.374 . S
C962 C959 1.499 . S
C962 C963 1.373 . S
C962 C964 1.389 . S
C963 H942 0.950 . S
C963 C962 1.373 . S
C963 C979 1.377 . S
C964 C962 1.389 . S
C964 C965 1.524 . S
C964 C978 1.377 1_556 S
C965 C964 1.524 . S
C965 C966 1.397 . S
C965 C970 1.363 . S
C966 H943 0.950 . S
C966 C965 1.397 . S
C966 C967 1.334 . S
C967 H944 0.950 . S
C967 C966 1.334 . S
C967 C968 1.287 . S
C968 C967 1.287 . S
C968 C969 1.524 . S
C968 H987 0.913 . S
C969 H945 0.950 . S
C969 C968 1.524 . S
C969 C970 1.415 . S
C970 H946 0.950 . S
C970 C965 1.363 . S
C970 C969 1.415 . S
C971 H947 0.951 . S
C971 C972 1.366 . S
C971 C973 1.388 . S
C972 C971 1.366 . S
C972 C976 1.385 . S
C973 H948 0.951 . S
C973 C971 1.388 . S
C973 C974 1.366 . S
C974 C973 1.366 . S
C974 C975 1.414 . S
C974 C977 1.499 . S
C975 H949 0.950 . S
C975 C974 1.414 . S
C975 C976 1.374 . S
C976 H950 0.950 . S
C976 C972 1.385 . S
C976 C975 1.374 . S
C977 C974 1.499 . S
C977 C978 1.373 . S
C977 C979 1.389 1_554 S
C978 H951 0.950 . S
C978 C964 1.377 1_554 S
C978 C977 1.373 . S
C979 C963 1.377 . S
C979 C977 1.389 1_556 S
C979 C980 1.524 1_556 S
C980 C979 1.524 1_554 S
C980 C981 1.397 . S
C980 C985 1.363 1_554 S
C981 H952 0.950 . S
C981 C980 1.397 . S
C981 C982 1.334 . S
C982 H953 0.950 . S
C982 C981 1.334 . S
C982 C983 1.287 . S
C983 C982 1.287 . S
C983 C984 1.524 . S
C983 H986 0.999 . S
C984 H954 0.940 1_554 S
C984 C983 1.524 . S
C984 C985 1.415 1_554 S
C985 H955 0.950 . S
C985 C980 1.363 1_556 S
C985 C984 1.415 1_556 S
H986 C983 0.999 . S
H987 C968 0.913 . S
H988 C1006 0.951 . S
H989 C1008 0.951 . S
H990 C1010 0.950 . S
H991 C1011 0.950 1_655 S
H992 C1013 0.950 . S
H993 C1016 0.950 . S
H994 C1017 0.950 . S
H995 C1019 0.950 . S
H996 C1020 0.950 . S
H997 C1021 0.951 . S
H998 C1023 0.951 . S
H999 C1025 0.950 . S
H1000 C1026 0.950 . S
H1001 C1028 0.950 1_655 S
H1002 C1031 0.950 . S
H1003 C1032 0.950 . S
H1004 C1034 0.950 . S
H1005 C1035 0.950 . S
C1006 H988 0.951 . S
C1006 C1007 1.366 . S
C1006 C1008 1.388 . S
C1007 C1006 1.366 . S
C1007 C1011 1.385 . S
C1008 H989 0.951 . S
C1008 C1006 1.388 . S
C1008 C1009 1.366 . S
C1009 C1008 1.366 . S
C1009 C1010 1.414 . S
C1009 C1012 1.499 . S
C1010 H990 0.950 . S
C1010 C1009 1.414 . S
C1010 C1011 1.374 . S
C1011 H991 0.950 1_455 S
C1011 C1007 1.385 . S
C1011 C1010 1.374 . S
C1012 C1009 1.499 . S
C1012 C1013 1.373 . S
C1012 C1014 1.389 1_455 S
C1013 H992 0.950 . S
C1013 C1012 1.373 . S
C1013 C1029 1.377 . S
C1014 C1012 1.389 1_655 S
C1014 C1015 1.524 . S
C1014 C1028 1.377 1_655 S
C1015 C1014 1.524 . S
C1015 C1016 1.397 . S
C1015 C1020 1.363 . S
C1016 H993 0.950 . S
C1016 C1015 1.397 . S
C1016 C1017 1.334 . S
C1017 H994 0.950 . S
C1017 C1016 1.334 . S
C1017 C1018 1.287 . S
C1018 C1017 1.287 . S
C1018 C1019 1.524 . S
C1018 H1037 0.913 . S
C1019 H995 0.950 . S
C1019 C1018 1.524 . S
C1019 C1020 1.415 . S
C1020 H996 0.950 . S
C1020 C1015 1.363 . S
C1020 C1019 1.415 . S
C1021 H997 0.951 . S
C1021 C1022 1.366 . S
C1021 C1023 1.388 . S
C1022 C1021 1.366 . S
C1022 C1026 1.385 . S
C1023 H998 0.951 . S
C1023 C1021 1.388 . S
C1023 C1024 1.366 . S
C1024 C1023 1.366 . S
C1024 C1025 1.414 . S
C1024 C1027 1.499 . S
C1025 H999 0.950 . S
C1025 C1024 1.414 . S
C1025 C1026 1.374 . S
C1026 H1000 0.950 . S
C1026 C1022 1.385 . S
C1026 C1025 1.374 . S
C1027 C1024 1.499 . S
C1027 C1028 1.373 . S
C1027 C1029 1.389 . S
C1028 H1001 0.950 1_455 S
C1028 C1014 1.377 1_455 S
C1028 C1027 1.373 . S
C1029 C1013 1.377 . S
C1029 C1027 1.389 . S
C1029 C1030 1.524 . S
C1030 C1029 1.524 . S
C1030 C1031 1.397 . S
C1030 C1035 1.363 . S
C1031 H1002 0.950 . S
C1031 C1030 1.397 . S
C1031 C1032 1.334 . S
C1032 H1003 0.950 . S
C1032 C1031 1.334 . S
C1032 C1033 1.287 . S
C1033 C1032 1.287 . S
C1033 C1034 1.524 . S
C1033 H1036 0.999 . S
C1034 H1004 0.950 . S
C1034 C1033 1.524 . S
C1034 C1035 1.415 . S
C1035 H1005 0.950 . S
C1035 C1030 1.363 . S
C1035 C1034 1.415 . S
H1036 C1033 0.999 . S
H1037 C1018 0.913 . S
C157 C2 1.010 . S
C172 N127 1.071 . S
C207 C22 1.217 . S
C222 N100 1.318 . S
C257 C44 1.237 . S
C272 N113 1.332 . S
C307 C4 1.807 . S
C322 N126 1.914 . S
C372 N101 1.642 . S
C357 C24 1.572 . S
C422 N114 1.591 . S
C407 C42 1.511 . S
C457 C32 1.163 . S
C472 N74 1.205 . S
C507 C49 0.855 . S
C522 N88 0.862 1_655 S
C557 C9 1.272 . S
C572 N62 1.286 . S
C622 N75 1.249 . S
C607 C29 1.222 . S
C672 N87 1.584 . S
C657 C52 1.528 . S
C707 C12 1.132 . S
C722 N61 1.179 . S
C772 N91 1.493 . S
C757 C18 1.517 1_455 S
C807 C38 1.527 . S
C822 N65 1.547 . S
C857 C58 1.516 . S
C872 N78 1.505 . S
C922 N117 1.604 . S
C907 C39 1.593 . S
C972 N130 1.523 . S
C957 C59 1.512 . S
C1007 C19 1.533 . S
C1022 N104 1.552 . S
