# Generated by pormake.
# Topology rtl, (3,6)-cn, num edge types: 1
# Building blocks:
#     Node 0, Type 0, BuildingBlock: VETTIZ_charged_linker_0, # of connection points: 3
#     Node 1, Type 0, BuildingBlock: VETTIZ_charged_linker_0, # of connection points: 3
#     Node 2, Type 0, BuildingBlock: VETTIZ_charged_linker_0, # of connection points: 3
#     Node 3, Type 0, BuildingBlock: VETTIZ_charged_linker_0, # of connection points: 3
#     Node 4, Type 1, BuildingBlock: FUNLAD_clean_sbu_0, # of connection points: 6
#     Node 5, Type 1, BuildingBlock: FUNLAD_clean_sbu_0, # of connection points: 6
#     Edge 6, Type (0, 1), BuildingBlock: UVAHIK_clean_linker_0, # of connection points: 2
#     Edge 7, Type (0, 1), BuildingBlock: UVAHIK_clean_linker_0, # of connection points: 2
#     Edge 8, Type (0, 1), BuildingBlock: UVAHIK_clean_linker_0, # of connection points: 2
#     Edge 9, Type (0, 1), BuildingBlock: UVAHIK_clean_linker_0, # of connection points: 2
#     Edge 10, Type (0, 1), BuildingBlock: UVAHIK_clean_linker_0, # of connection points: 2
#     Edge 11, Type (0, 1), BuildingBlock: UVAHIK_clean_linker_0, # of connection points: 2
#     Edge 12, Type (0, 1), BuildingBlock: UVAHIK_clean_linker_0, # of connection points: 2
#     Edge 13, Type (0, 1), BuildingBlock: UVAHIK_clean_linker_0, # of connection points: 2
#     Edge 14, Type (0, 1), BuildingBlock: UVAHIK_clean_linker_0, # of connection points: 2
#     Edge 15, Type (0, 1), BuildingBlock: UVAHIK_clean_linker_0, # of connection points: 2
#     Edge 16, Type (0, 1), BuildingBlock: UVAHIK_clean_linker_0, # of connection points: 2
#     Edge 17, Type (0, 1), BuildingBlock: UVAHIK_clean_linker_0, # of connection points: 2
# Relax obj value: 0.030
# Max RMSD: 0.087
# Mean RMSD: 0.076
data_MOF--net-rtl--node1-FUNLAD_clean_sbu_0--node2-VETTIZ_charged_linker_0--edge1-UVAHIK_clean_linker_0
_symmetry_space_group_name_H-M    P1
_symmetry_Int_Tables_number       1
_symmetry_cell_setting            triclinic
loop_
_symmetry_equiv_pos_as_xyz
'x, y, z'
_cell_length_a     58.990154
_cell_length_b     48.344078
_cell_length_c     35.089941
_cell_angle_alpha  89.984173
_cell_angle_beta   90.913645
_cell_angle_gamma 90.687747
loop_
_atom_site_label
_atom_site_type_symbol
_atom_site_fract_x
_atom_site_fract_y
_atom_site_fract_z
_atom_type_partial_charge
C0 C 0.09566 0.77163 0.88022 0.0
C1 C 0.07706 0.78947 0.87693 0.0
C2 C 0.06497 0.79625 0.90991 0.0
C3 C 0.09131 0.77002 0.94885 0.0
C4 C 0.10242 0.76213 0.91632 0.0
C5 C 0.12236 0.74394 0.92513 0.0
H6 H 0.19417 0.68854 0.05567 0.0
C7 C 0.10382 0.75875 0.98207 0.0
C8 C 0.12188 0.74318 0.9684 0.0
H9 H 0.19458 0.67959 0.93302 0.0
H10 H 0.16052 0.70632 0.92751 0.0
H11 H 0.18156 0.75177 0.05622 0.0
H12 H 0.13877 0.67917 0.06428 0.0
H13 H 0.13001 0.70332 0.09843 0.0
H14 H 0.15826 0.68957 0.10157 0.0
H15 H 0.18043 0.73125 0.0988 0.0
H16 H 0.16068 0.75878 0.08981 0.0
C17 C 0.14399 0.75865 0.91035 0.0
C18 C 0.11757 0.71505 0.90734 0.0
C19 C 0.08269 0.78945 0.11476 0.0
C20 C 0.09288 0.78608 0.15094 0.0
C21 C 0.11163 0.76836 0.15466 0.0
C22 C 0.12051 0.75508 0.12268 0.0
C23 C 0.11068 0.7597 0.08649 0.0
C24 C 0.09193 0.77642 0.08315 0.0
C25 C 0.08419 0.78007 0.0425 0.0
C26 C 0.10142 0.76284 0.02184 0.0
C27 C 0.1169 0.75089 0.04767 0.0
C28 C 0.08628 0.81128 0.03255 0.0
C29 C 0.0599 0.76776 0.03818 0.0
C30 C 0.18675 0.69208 0.02768 0.0
C31 C 0.19721 0.68214 0.9947 0.0
C32 C 0.1871 0.68743 0.9588 0.0
C33 C 0.16724 0.70286 0.95565 0.0
C34 C 0.15735 0.71333 0.9887 0.0
C35 C 0.16689 0.70759 0.02401 0.0
C36 C 0.15394 0.72053 0.05593 0.0
C37 C 0.13498 0.7347 0.03391 0.0
C38 C 0.13725 0.73063 0.99452 0.0
C39 C 0.16987 0.74158 0.07664 0.0
C40 C 0.14481 0.69708 0.08174 0.0
H41 H 0.06236 0.79301 0.96984 0.0
H42 H 0.10504 0.76565 0.85531 0.0
H43 H 0.09905 0.71053 0.90522 0.0
H44 H 0.12446 0.69804 0.92498 0.0
H45 H 0.12448 0.71365 0.87816 0.0
H46 H 0.14358 0.78119 0.9167 0.0
H47 H 0.14539 0.75624 0.87899 0.0
H48 H 0.15974 0.75123 0.924 0.0
H49 H 0.06802 0.80247 0.11085 0.0
H50 H 0.11995 0.76547 0.18208 0.0
H51 H 0.13502 0.74224 0.12725 0.0
H52 H 0.10132 0.82086 0.0471 0.0
H53 H 0.07108 0.82271 0.04171 0.0
H54 H 0.08897 0.81522 0.002 0.0
H55 H 0.05757 0.74955 0.05719 0.0
H56 H 0.05621 0.7598 0.00918 0.0
H57 H 0.04694 0.78322 0.04574 0.0
H58 H 0.05066 0.81004 0.90822 0.0
C59 C 0.07194 0.78655 0.94577 0.0
C60 C 0.59058 0.73582 0.6342 0.0
C61 C 0.57245 0.7167 0.63564 0.0
C62 C 0.56065 0.70976 0.60165 0.0
C63 C 0.58632 0.73866 0.5654 0.0
C64 C 0.59716 0.74654 0.59893 0.0
C65 C 0.61666 0.76617 0.59217 0.0
H66 H 0.68734 0.82868 0.46824 0.0
C67 C 0.59851 0.75167 0.53346 0.0
C68 C 0.61616 0.76807 0.54896 0.0
H69 H 0.68846 0.83391 0.5913 0.0
H70 H 0.65445 0.80585 0.59392 0.0
H71 H 0.67577 0.76582 0.46334 0.0
H72 H 0.63212 0.83646 0.45809 0.0
H73 H 0.62266 0.81293 0.42291 0.0
H74 H 0.65086 0.82759 0.42032 0.0
H75 H 0.67382 0.78741 0.42185 0.0
H76 H 0.65477 0.75845 0.42878 0.0
C77 C 0.63861 0.75246 0.60745 0.0
C78 C 0.61121 0.79425 0.61107 0.0
C79 C 0.57823 0.72394 0.39751 0.0
C80 C 0.58821 0.72977 0.36226 0.0
C81 C 0.60639 0.74892 0.36088 0.0
C82 C 0.61483 0.76155 0.39424 0.0
C83 C 0.6052 0.75473 0.42946 0.0
C84 C 0.58703 0.73646 0.4306 0.0
C85 C 0.57946 0.73084 0.4706 0.0
C86 C 0.59613 0.74869 0.49334 0.0
C87 C 0.61118 0.76259 0.46911 0.0
C88 C 0.58259 0.69957 0.47873 0.0
C89 C 0.55479 0.74105 0.47434 0.0
C90 C 0.68006 0.82415 0.49572 0.0
C91 C 0.6907 0.83339 0.52963 0.0
C92 C 0.6808 0.82669 0.56481 0.0
C93 C 0.661 0.81046 0.56627 0.0
C94 C 0.651 0.80061 0.53221 0.0
C95 C 0.66032 0.80786 0.49769 0.0
C96 C 0.64747 0.79534 0.46445 0.0
C97 C 0.62887 0.77946 0.48474 0.0
C98 C 0.63117 0.78242 0.52442 0.0
C99 C 0.66368 0.77584 0.44313 0.0
C100 C 0.63782 0.81917 0.4398 0.0
H101 H 0.5581 0.71411 0.54168 0.0
H102 H 0.59973 0.74192 0.65992 0.0
H103 H 0.59262 0.79792 0.61109 0.0
H104 H 0.61838 0.8121 0.59546 0.0
H105 H 0.61735 0.79491 0.64115 0.0
H106 H 0.63856 0.72999 0.60054 0.0
H107 H 0.64014 0.75454 0.63892 0.0
H108 H 0.65416 0.76086 0.59456 0.0
H109 H 0.56446 0.709 0.39956 0.0
H110 H 0.61421 0.75392 0.33398 0.0
H111 H 0.62884 0.77572 0.39137 0.0
H112 H 0.59819 0.69183 0.4651 0.0
H113 H 0.56801 0.68722 0.46729 0.0
H114 H 0.58491 0.69478 0.50925 0.0
H115 H 0.55181 0.75964 0.45632 0.0
H116 H 0.55088 0.74776 0.50359 0.0
H117 H 0.54237 0.72484 0.46516 0.0
H118 H 0.5467 0.695 0.60194 0.0
C119 C 0.56745 0.72069 0.5666 0.0
C120 C 0.91681 0.23029 0.12706 0.0
C121 C 0.93517 0.21204 0.12985 0.0
C122 C 0.94695 0.20516 0.0966 0.0
C123 C 0.92104 0.23257 0.05842 0.0
C124 C 0.91012 0.24034 0.09121 0.0
C125 C 0.8906 0.25931 0.08298 0.0
H126 H 0.82106 0.32028 0.95365 0.0
C127 C 0.9089 0.24493 0.02558 0.0
C128 C 0.89118 0.26087 0.03976 0.0
H129 H 0.81931 0.32591 0.07659 0.0
H130 H 0.85287 0.2981 0.08175 0.0
H131 H 0.87554 0.32836 0.94691 0.0
H132 H 0.83222 0.2561 0.95052 0.0
H133 H 0.85301 0.24985 0.91649 0.0
H134 H 0.83367 0.27804 0.90934 0.0
H135 H 0.85722 0.31842 0.9078 0.0
H136 H 0.88543 0.30477 0.91306 0.0
C137 C 0.89595 0.2877 0.10181 0.0
C138 C 0.86863 0.24503 0.09714 0.0
C139 C 0.93019 0.21745 0.89133 0.0
C140 C 0.92052 0.22289 0.85528 0.0
C141 C 0.90225 0.24136 0.85246 0.0
C142 C 0.89341 0.25368 0.88513 0.0
C143 C 0.90278 0.24728 0.92111 0.0
C144 C 0.92103 0.22968 0.92369 0.0
C145 C 0.92837 0.2245 0.96426 0.0
C146 C 0.91147 0.24181 0.98566 0.0
C147 C 0.8965 0.25507 0.96028 0.0
C148 C 0.95296 0.23562 0.96966 0.0
C149 C 0.92533 0.19314 0.97241 0.0
C150 C 0.82786 0.31543 0.98169 0.0
C151 C 0.81744 0.32525 0.01475 0.0
C152 C 0.8271 0.31883 0.05066 0.0
C153 C 0.84652 0.30251 0.05362 0.0
C154 C 0.85644 0.29237 0.02035 0.0
C155 C 0.84729 0.29918 0.98514 0.0
C156 C 0.86024 0.28677 0.95289 0.0
C157 C 0.87871 0.27146 0.97457 0.0
C158 C 0.87623 0.27458 0.01408 0.0
C159 C 0.87007 0.31067 0.92854 0.0
C160 C 0.84406 0.26675 0.93079 0.0
H161 H 0.94941 0.20889 0.03669 0.0
H162 H 0.90766 0.23631 0.1522 0.0
H163 H 0.86858 0.2226 0.09002 0.0
H164 H 0.8531 0.2532 0.08364 0.0
H165 H 0.86721 0.24694 0.12855 0.0
H166 H 0.91454 0.29184 0.10333 0.0
H167 H 0.88948 0.28852 0.13134 0.0
H168 H 0.88902 0.30522 0.08525 0.0
H169 H 0.94401 0.20303 0.89453 0.0
H170 H 0.89466 0.24608 0.82495 0.0
H171 H 0.87937 0.26734 0.88114 0.0
H172 H 0.95603 0.2541 0.95146 0.0
H173 H 0.96552 0.21975 0.96184 0.0
H174 H 0.9566 0.24284 0.99904 0.0
H175 H 0.90985 0.18479 0.95772 0.0
H176 H 0.92283 0.1884 0.0028 0.0
H177 H 0.94004 0.18128 0.96213 0.0
H178 H 0.96105 0.19103 0.09793 0.0
C179 C 0.94002 0.21536 0.06098 0.0
C180 C 0.42313 0.27077 0.38341 0.0
C181 C 0.44148 0.28956 0.38159 0.0
C182 C 0.45371 0.29613 0.41528 0.0
C183 C 0.42812 0.2675 0.45205 0.0
C184 C 0.41683 0.25996 0.41879 0.0
C185 C 0.39728 0.24047 0.426 0.0
H186 H 0.32761 0.1785 0.5521 0.0
C187 C 0.41626 0.25441 0.48426 0.0
C188 C 0.39834 0.23823 0.46917 0.0
H189 H 0.32433 0.17427 0.42903 0.0
H190 H 0.35907 0.20095 0.42526 0.0
H191 H 0.382 0.1692 0.56013 0.0
H192 H 0.3403 0.24159 0.55677 0.0
H193 H 0.36149 0.24765 0.59146 0.0
H194 H 0.34179 0.21927 0.59758 0.0
H195 H 0.36479 0.17923 0.59939 0.0
H196 H 0.3933 0.1925 0.59405 0.0
C197 C 0.40223 0.21249 0.40646 0.0
C198 C 0.37525 0.25454 0.41175 0.0
C199 C 0.43748 0.28232 0.61985 0.0
C200 C 0.42779 0.27631 0.6553 0.0
C201 C 0.41007 0.25656 0.65706 0.0
C202 C 0.40159 0.24374 0.62389 0.0
C203 C 0.41072 0.25096 0.58844 0.0
C204 C 0.42865 0.26955 0.58692 0.0
C205 C 0.43587 0.27522 0.54672 0.0
C206 C 0.41911 0.25723 0.52434 0.0
C207 C 0.40436 0.2432 0.54892 0.0
C208 C 0.46057 0.26526 0.54241 0.0
C209 C 0.43249 0.30646 0.53866 0.0
C210 C 0.33436 0.18334 0.52432 0.0
C211 C 0.32309 0.17445 0.49082 0.0
C212 C 0.33272 0.18074 0.45528 0.0
C213 C 0.35281 0.19643 0.45314 0.0
C214 C 0.36337 0.20608 0.48687 0.0
C215 C 0.35436 0.19903 0.52169 0.0
C216 C 0.36782 0.21107 0.55456 0.0
C217 C 0.38637 0.22661 0.53373 0.0
C218 C 0.38354 0.22387 0.49408 0.0
C219 C 0.37743 0.1869 0.57864 0.0
C220 C 0.35216 0.23082 0.57661 0.0
H221 H 0.45687 0.29143 0.47513 0.0
H222 H 0.41365 0.26494 0.3579 0.0
H223 H 0.37545 0.27688 0.41943 0.0
H224 H 0.3598 0.24595 0.42473 0.0
H225 H 0.37345 0.25302 0.38026 0.0
H226 H 0.42077 0.20855 0.40582 0.0
H227 H 0.39577 0.21218 0.37656 0.0
H228 H 0.39504 0.19461 0.422 0.0
H229 H 0.45095 0.29762 0.61749 0.0
H230 H 0.40254 0.25132 0.68412 0.0
H231 H 0.38787 0.2292 0.62707 0.0
H232 H 0.46407 0.24721 0.5612 0.0
H233 H 0.47297 0.28187 0.55019 0.0
H234 H 0.46407 0.25781 0.51333 0.0
H235 H 0.4166 0.31382 0.55177 0.0
H236 H 0.43058 0.31135 0.50812 0.0
H237 H 0.44677 0.319 0.55074 0.0
H238 H 0.46784 0.31064 0.4147 0.0
C239 C 0.44718 0.28515 0.45043 0.0
C240 C 0.01927 0.96419 0.45128 0.0
N241 N 0.05681 0.02699 0.50653 0.0
C242 C 0.07471 0.00949 0.50653 0.0
C243 C 0.09688 0.01995 0.5061 0.0
C244 C 0.10066 0.04869 0.50586 0.0
C245 C 0.08186 0.06624 0.50612 0.0
C246 C 0.05999 0.05491 0.50638 0.0
Zn247 Zn 0.02453 0.01124 0.5059 0.0
C248 C 0.99524 0.03925 0.44796 0.0
N249 N 0.95707 0.97834 0.50377 0.0
C250 C 0.9537 0.95051 0.50606 0.0
C251 C 0.93929 0.996 0.50202 0.0
C252 C 0.91706 0.98584 0.50289 0.0
C253 C 0.91308 0.95723 0.50582 0.0
C254 C 0.93175 0.93947 0.50721 0.0
Zn255 Zn 0.98938 0.99399 0.50434 0.0
O256 O 0.03362 0.98172 0.46436 0.0
C257 C 0.01867 0.96595 0.56222 0.0
O258 O 0.999 0.9646 0.46301 0.0
H259 H 0.94235 0.01807 0.50039 0.0
H260 H 0.0718 0.98737 0.50675 0.0
H261 H 0.96807 0.93684 0.50729 0.0
O262 O 0.03333 0.98294 0.54954 0.0
O263 O 0.9986 0.96618 0.54853 0.0
H264 H 0.04553 0.06844 0.5062 0.0
O265 O 0.9802 0.02354 0.54545 0.0
O266 O 0.01486 0.04048 0.5478 0.0
O267 O 0.98068 0.02206 0.46044 0.0
O268 O 0.01526 0.03929 0.4619 0.0
C269 C 0.99449 0.04089 0.55909 0.0
H270 H 0.1109 0.00569 0.50633 0.0
H271 H 0.08401 0.08851 0.50546 0.0
H272 H 0.90315 0.00026 0.50216 0.0
H273 H 0.92941 0.91725 0.50901 0.0
C274 C 0.49421 0.46477 0.95491 0.0
N275 N 0.55713 0.48044 0.00865 0.0
C276 C 0.55991 0.45255 0.00842 0.0
C277 C 0.5816 0.44138 0.00763 0.0
C278 C 0.60067 0.45906 0.00721 0.0
C279 C 0.59731 0.48777 0.00771 0.0
C280 C 0.57528 0.49808 0.00833 0.0
Zn281 Zn 0.52495 0.4957 0.00901 0.0
C282 C 0.51832 0.54026 0.952 0.0
N283 N 0.45738 0.52651 0.00938 0.0
C284 C 0.43915 0.50908 0.01142 0.0
C285 C 0.45472 0.55439 0.00728 0.0
C286 C 0.43309 0.56574 0.00677 0.0
C287 C 0.41396 0.54827 0.00863 0.0
C288 C 0.41717 0.51958 0.01122 0.0
Zn289 Zn 0.48953 0.51116 0.00915 0.0
O290 O 0.51461 0.46631 0.96703 0.0
C291 C 0.49616 0.46657 0.06611 0.0
O292 O 0.47968 0.48136 0.96789 0.0
H293 H 0.46943 0.56791 0.00593 0.0
H294 H 0.54527 0.43889 0.00884 0.0
H295 H 0.44165 0.48698 0.01298 0.0
O296 O 0.5161 0.46748 0.05287 0.0
O297 O 0.48127 0.48295 0.05295 0.0
H298 H 0.57268 0.52018 0.0084 0.0
O299 O 0.49985 0.54073 0.05068 0.0
O300 O 0.53471 0.5254 0.05067 0.0
O301 O 0.49834 0.53911 0.96498 0.0
O302 O 0.5333 0.52413 0.96546 0.0
C303 C 0.52016 0.54218 0.06319 0.0
H304 H 0.58343 0.41911 0.00781 0.0
H305 H 0.61153 0.50213 0.00704 0.0
H306 H 0.43138 0.58799 0.00527 0.0
H307 H 0.40286 0.50539 0.01237 0.0
C308 C 0.28437 0.16925 0.51834 0.0
C309 C 0.30081 0.15997 0.49293 0.0
C310 C 0.26309 0.15641 0.51967 0.0
C311 C 0.23217 0.09197 0.49571 0.0
H312 H 0.1793 0.13863 0.5012 0.0
C313 C 0.14041 0.04887 0.48124 0.0
C314 C 0.12404 0.06036 0.50504 0.0
C315 C 0.16223 0.06039 0.47972 0.0
C316 C 0.19389 0.12528 0.50015 0.0
H317 H 0.30793 0.1296 0.44941 0.0
H318 H 0.27056 0.10723 0.4515 0.0
H319 H 0.21691 0.15975 0.49857 0.0
H320 H 0.11795 0.09238 0.54676 0.0
H321 H 0.15602 0.11233 0.54435 0.0
H322 H 0.2091 0.05747 0.4975 0.0
C323 C 0.27424 0.12439 0.47054 0.0
C324 C 0.21545 0.13739 0.49859 0.0
C325 C 0.29555 0.13734 0.4691 0.0
C326 C 0.13006 0.08335 0.52766 0.0
C327 C 0.15188 0.0948 0.52623 0.0
C328 C 0.21057 0.07982 0.49738 0.0
C329 C 0.25773 0.13395 0.49564 0.0
C330 C 0.23484 0.12089 0.49654 0.0
C331 C 0.16818 0.08359 0.50204 0.0
C332 C 0.19118 0.09635 0.49981 0.0
H333 H 0.28778 0.18684 0.53677 0.0
H334 H 0.25082 0.16406 0.53962 0.0
H335 H 0.24681 0.07871 0.49453 0.0
H336 H 0.1362 0.03136 0.46312 0.0
H337 H 0.17428 0.05147 0.46042 0.0
C338 C 0.23634 0.67287 0.97162 0.0
C339 C 0.21891 0.66695 0.99732 0.0
C340 C 0.2567 0.65851 0.97347 0.0
C341 C 0.29244 0.61606 0.03748 0.0
H342 H 0.32114 0.59588 0.94293 0.0
C343 C 0.37397 0.5503 0.03211 0.0
C344 C 0.39082 0.56001 0.00739 0.0
C345 C 0.35233 0.56185 0.03127 0.0
C346 C 0.3134 0.60153 0.96957 0.0
H347 H 0.20921 0.64133 0.04521 0.0
H348 H 0.24483 0.61601 0.04832 0.0
H349 H 0.28455 0.6187 0.94103 0.0
H350 H 0.39806 0.58902 0.96192 0.0
H351 H 0.36042 0.60926 0.96062 0.0
H352 H 0.32142 0.59883 0.06593 0.0
C353 C 0.24281 0.63203 0.027 0.0
C354 C 0.29245 0.61465 0.96851 0.0
C355 C 0.22241 0.64651 0.02522 0.0
C356 C 0.38551 0.58128 0.98158 0.0
C357 C 0.36388 0.59268 0.98056 0.0
C358 C 0.31339 0.6028 0.03853 0.0
C359 C 0.26015 0.63779 0.00099 0.0
C360 C 0.28185 0.62243 0.00241 0.0
C361 C 0.34707 0.58316 0.00546 0.0
C362 C 0.32423 0.59573 0.00456 0.0
H363 H 0.23435 0.6889 0.9503 0.0
H364 H 0.26987 0.66393 0.95356 0.0
H365 H 0.28486 0.62201 0.06411 0.0
H366 H 0.37762 0.53406 0.0525 0.0
H367 H 0.33967 0.55397 0.05062 0.0
C368 C 0.73027 0.84226 0.55394 0.0
C369 C 0.71255 0.84886 0.52841 0.0
C370 C 0.75122 0.85586 0.55189 0.0
C371 C 0.78704 0.8956 0.48566 0.0
H372 H 0.82114 0.91381 0.57787 0.0
C373 C 0.87224 0.95632 0.48446 0.0
C374 C 0.88962 0.94601 0.50817 0.0
C375 C 0.85013 0.94581 0.48694 0.0
C376 C 0.81188 0.90867 0.55187 0.0
H377 H 0.70276 0.87539 0.48128 0.0
H378 H 0.73935 0.89936 0.47787 0.0
H379 H 0.7832 0.89366 0.58253 0.0
H380 H 0.89738 0.91689 0.55341 0.0
H381 H 0.85885 0.89838 0.55749 0.0
H382 H 0.8158 0.91061 0.45506 0.0
C383 C 0.73714 0.88331 0.49908 0.0
C384 C 0.79016 0.89711 0.55452 0.0
C385 C 0.71618 0.86963 0.50106 0.0
C386 C 0.88441 0.92505 0.53448 0.0
C387 C 0.8623 0.91468 0.53711 0.0
C388 C 0.80875 0.90728 0.48302 0.0
C389 C 0.75496 0.87645 0.52433 0.0
C390 C 0.77756 0.89016 0.52146 0.0
C391 C 0.84492 0.92493 0.51338 0.0
C392 C 0.82149 0.91367 0.5161 0.0
H393 H 0.72815 0.82602 0.5749 0.0
H394 H 0.76468 0.84969 0.57133 0.0
H395 H 0.77795 0.89015 0.45963 0.0
H396 H 0.87578 0.97232 0.46371 0.0
H397 H 0.83706 0.95424 0.46845 0.0
C398 C 0.79301 0.36453 0.03551 0.0
C399 C 0.79624 0.34143 0.01197 0.0
C400 C 0.77269 0.37912 0.03377 0.0
C401 C 0.72164 0.39046 0.97289 0.0
H402 H 0.69479 0.41354 0.06773 0.0
C403 C 0.62858 0.42483 0.98275 0.0
C404 C 0.62387 0.44751 0.00627 0.0
C405 C 0.65025 0.41352 0.98244 0.0
C406 C 0.70221 0.40756 0.04096 0.0
H407 H 0.78063 0.31548 0.96827 0.0
H408 H 0.74518 0.34077 0.96538 0.0
H409 H 0.73148 0.39088 0.06894 0.0
H410 H 0.63828 0.47615 0.04786 0.0
H411 H 0.67623 0.45652 0.04708 0.0
H412 H 0.69215 0.40678 0.94501 0.0
C413 C 0.75848 0.34796 0.9847 0.0
C414 C 0.72326 0.39458 0.04164 0.0
C415 C 0.77881 0.33344 0.98637 0.0
C416 C 0.64141 0.4588 0.02922 0.0
C417 C 0.66308 0.4474 0.02905 0.0
C418 C 0.70056 0.40335 0.97224 0.0
C419 C 0.75512 0.37089 0.00852 0.0
C420 C 0.73316 0.3857 0.00763 0.0
C421 C 0.66772 0.42456 0.00575 0.0
C422 C 0.69053 0.41188 0.00628 0.0
H423 H 0.80625 0.37144 0.05514 0.0
H424 H 0.77081 0.39695 0.05208 0.0
H425 H 0.72895 0.38431 0.94613 0.0
H426 H 0.6155 0.41585 0.96443 0.0
H427 H 0.65322 0.39577 0.96444 0.0
C428 C 0.08386 0.79059 0.22072 0.0
C429 C 0.08464 0.80219 0.18398 0.0
C430 C 0.07608 0.80609 0.25148 0.0
C431 C 0.04084 0.86607 0.27376 0.0
H432 H 0.07527 0.86916 0.36878 0.0
C433 C 0.00991 0.92614 0.40492 0.0
C434 C 0.02615 0.94348 0.4228 0.0
C435 C 0.01641 0.90691 0.37757 0.0
C436 C 0.06549 0.86847 0.34239 0.0
H437 H 0.07852 0.83958 0.15122 0.0
H438 H 0.06458 0.86618 0.20448 0.0
H439 H 0.08775 0.83913 0.31724 0.0
H440 H 0.06202 0.95387 0.42648 0.0
H441 H 0.07331 0.92029 0.37873 0.0
H442 H 0.01883 0.89574 0.29849 0.0
C443 C 0.06966 0.845 0.2094 0.0
C444 C 0.07251 0.85112 0.31307 0.0
C445 C 0.0776 0.82967 0.17884 0.0
C446 C 0.04907 0.94088 0.41316 0.0
C447 C 0.05558 0.9215 0.38603 0.0
C448 C 0.03372 0.8832 0.30315 0.0
C449 C 0.06876 0.83339 0.24602 0.0
C450 C 0.06044 0.85007 0.27825 0.0
C451 C 0.0393 0.90445 0.36775 0.0
C452 C 0.04613 0.88488 0.33758 0.0
H453 H 0.08897 0.76943 0.22564 0.0
H454 H 0.07545 0.79659 0.27941 0.0
H455 H 0.03109 0.86547 0.24734 0.0
H456 H 0.99212 0.92757 0.4118 0.0
H457 H 0.00352 0.89388 0.36417 0.0
C458 C 0.54425 0.6978 0.68215 0.0
C459 C 0.5669 0.70245 0.67181 0.0
C460 C 0.53916 0.6823 0.71463 0.0
C461 C 0.56284 0.62761 0.77471 0.0
H462 H 0.51643 0.64823 0.846 0.0
C463 C 0.54669 0.56418 0.91069 0.0
C464 C 0.52406 0.56016 0.92151 0.0
C465 C 0.5521 0.58281 0.8817 0.0
C466 C 0.52926 0.64201 0.82611 0.0
H467 H 0.60196 0.69489 0.68772 0.0
H468 H 0.59307 0.66801 0.74448 0.0
H469 H 0.52541 0.67895 0.79291 0.0
H470 H 0.48936 0.5726 0.91046 0.0
H471 H 0.49873 0.60457 0.85925 0.0
H472 H 0.56643 0.59046 0.80708 0.0
C473 C 0.57926 0.67625 0.72739 0.0
C474 C 0.53443 0.65966 0.7958 0.0
C475 C 0.58435 0.69188 0.69512 0.0
C476 C 0.50697 0.57528 0.90286 0.0
C477 C 0.51237 0.59377 0.87366 0.0
C478 C 0.55757 0.60989 0.80478 0.0
C479 C 0.55662 0.67096 0.73719 0.0
C480 C 0.55129 0.65264 0.76982 0.0
C481 C 0.535 0.5977 0.86262 0.0
C482 C 0.54073 0.61684 0.83089 0.0
H483 H 0.53046 0.70586 0.66486 0.0
H484 H 0.52155 0.67844 0.72139 0.0
H485 H 0.57565 0.62142 0.75474 0.0
H486 H 0.56027 0.55301 0.92472 0.0
H487 H 0.56975 0.58566 0.87443 0.0
C488 C 0.924 0.18743 0.18958 0.0
C489 C 0.94112 0.19868 0.16667 0.0
C490 C 0.92956 0.17237 0.22231 0.0
C491 C 0.97525 0.15838 0.29228 0.0
H492 H 0.94468 0.08738 0.30256 0.0
C493 C 0.00547 0.07525 0.39954 0.0
C494 C 0.98887 0.05903 0.41757 0.0
C495 C 0.99941 0.09358 0.37039 0.0
C496 C 0.95314 0.10731 0.30055 0.0
H497 H 0.97745 0.20407 0.161 0.0
H498 H 0.98718 0.17768 0.2183 0.0
H499 H 0.93431 0.11789 0.25014 0.0
H500 H 0.95283 0.04983 0.41981 0.0
H501 H 0.94222 0.08219 0.36969 0.0
H502 H 0.99402 0.14788 0.34284 0.0
C503 C 0.96947 0.18053 0.21088 0.0
C504 C 0.9472 0.12478 0.27043 0.0
C505 C 0.96391 0.19543 0.17795 0.0
C506 C 0.96606 0.06183 0.40624 0.0
C507 C 0.95999 0.08031 0.37734 0.0
C508 C 0.98108 0.14098 0.32265 0.0
C509 C 0.95235 0.16839 0.23298 0.0
C510 C 0.95824 0.15045 0.26588 0.0
C511 C 0.97659 0.09626 0.35882 0.0
C512 C 0.97015 0.11516 0.32707 0.0
H513 H 0.9063 0.18938 0.18146 0.0
H514 H 0.91602 0.16349 0.23903 0.0
H515 H 0.9839 0.17817 0.28965 0.0
H516 H 0.0232 0.07352 0.40756 0.0
H517 H 0.01269 0.10524 0.35643 0.0
C518 C 0.41858 0.30329 0.71376 0.0
C519 C 0.43496 0.29216 0.6897 0.0
C520 C 0.42506 0.32034 0.74423 0.0
C521 C 0.47288 0.34028 0.80725 0.0
H522 H 0.44062 0.40933 0.81632 0.0
C523 C 0.50392 0.4284 0.90719 0.0
C524 C 0.48746 0.44389 0.92596 0.0
C525 C 0.49752 0.40898 0.87943 0.0
C526 C 0.44959 0.38997 0.81464 0.0
H527 H 0.47099 0.28932 0.67949 0.0
H528 H 0.48236 0.31914 0.73298 0.0
H529 H 0.42937 0.37637 0.76693 0.0
H530 H 0.45135 0.45072 0.93091 0.0
H531 H 0.44016 0.41642 0.88325 0.0
H532 H 0.49298 0.35372 0.85521 0.0
C533 C 0.46451 0.31464 0.72817 0.0
C534 C 0.44316 0.37112 0.78625 0.0
C535 C 0.45801 0.29775 0.69745 0.0
C536 C 0.46446 0.4393 0.91673 0.0
C537 C 0.45806 0.41972 0.88923 0.0
C538 C 0.47921 0.35906 0.83592 0.0
C539 C 0.44806 0.32648 0.75146 0.0
C540 C 0.45475 0.34611 0.7822 0.0
C541 C 0.47451 0.40443 0.87002 0.0
C542 C 0.46767 0.38418 0.83991 0.0
H543 H 0.40067 0.2996 0.70828 0.0
H544 H 0.41204 0.32896 0.76195 0.0
H545 H 0.48198 0.32104 0.80497 0.0
H546 H 0.52179 0.43152 0.91357 0.0
H547 H 0.51067 0.3979 0.86487 0.0
C548 C 0.59658 0.70251 0.30361 0.0
C549 C 0.58061 0.71453 0.32762 0.0
C550 C 0.5895 0.68598 0.27292 0.0
C551 C 0.54031 0.64394 0.23953 0.0
H552 H 0.57345 0.6419 0.14502 0.0
C553 C 0.51018 0.57928 0.10956 0.0
C554 C 0.52677 0.56323 0.09199 0.0
C555 C 0.51636 0.59902 0.13699 0.0
C556 C 0.56413 0.64216 0.17136 0.0
H557 H 0.54475 0.7197 0.33741 0.0
H558 H 0.53231 0.69134 0.28329 0.0
H559 H 0.58462 0.67511 0.19444 0.0
H560 H 0.56287 0.55557 0.08909 0.0
H561 H 0.57363 0.59017 0.13695 0.0
H562 H 0.51976 0.61108 0.21625 0.0
C563 C 0.55032 0.69407 0.28871 0.0
C564 C 0.57053 0.66113 0.19971 0.0
C565 C 0.55742 0.71041 0.3196 0.0
C566 C 0.54968 0.56755 0.10216 0.0
C567 C 0.55586 0.58748 0.12937 0.0
C568 C 0.53381 0.62514 0.21106 0.0
C569 C 0.56628 0.68125 0.26536 0.0
C570 C 0.55881 0.66211 0.2343 0.0
C571 C 0.53925 0.60331 0.14719 0.0
C572 C 0.54576 0.62391 0.17682 0.0
H573 H 0.61457 0.70501 0.30943 0.0
H574 H 0.60228 0.67613 0.25596 0.0
H575 H 0.53116 0.6437 0.26603 0.0
H576 H 0.49238 0.57649 0.10231 0.0
H577 H 0.50322 0.6111 0.15003 0.0
C578 C 0.95181 0.20422 0.81533 0.0
C579 C 0.92852 0.20789 0.82126 0.0
C580 C 0.9592 0.18802 0.78506 0.0
C581 C 0.9404 0.13006 0.72509 0.0
H582 H 0.99035 0.15135 0.66039 0.0
C583 C 0.96421 0.06448 0.59552 0.0
C584 C 0.98732 0.06131 0.58775 0.0
C585 C 0.95728 0.08344 0.62283 0.0
C586 C 0.97656 0.14493 0.67851 0.0
H587 H 0.89475 0.19782 0.79979 0.0
H588 H 0.90767 0.16962 0.74689 0.0
H589 H 0.97784 0.18302 0.70987 0.0
H590 H 0.02131 0.07569 0.60243 0.0
H591 H 0.00925 0.10834 0.65089 0.0
H592 H 0.93931 0.09183 0.69463 0.0
C593 C 0.92019 0.17922 0.76572 0.0
C594 C 0.96936 0.16313 0.70674 0.0
C595 C 0.9128 0.19559 0.79576 0.0
C596 C 0.00337 0.07769 0.60772 0.0
C597 C 0.99643 0.09654 0.63533 0.0
C598 C 0.94769 0.11181 0.69716 0.0
C599 C 0.94344 0.17495 0.76037 0.0
C600 C 0.95113 0.15591 0.73018 0.0
C601 C 0.97329 0.09955 0.64336 0.0
C602 C 0.96579 0.11904 0.67336 0.0
H603 H 0.9643 0.21361 0.8344 0.0
H604 H 0.97722 0.18498 0.78173 0.0
H605 H 0.92658 0.12371 0.74322 0.0
H606 H 0.95139 0.05238 0.58037 0.0
H607 H 0.9393 0.08558 0.62764 0.0
C608 C 0.46954 0.30794 0.33449 0.0
C609 C 0.44692 0.30379 0.34535 0.0
C610 C 0.4746 0.32348 0.30204 0.0
C611 C 0.45136 0.37911 0.24314 0.0
H612 H 0.49699 0.3579 0.17076 0.0
C613 C 0.46772 0.44304 0.10766 0.0
C614 C 0.49033 0.44663 0.0965 0.0
C615 C 0.46219 0.42436 0.13652 0.0
C616 C 0.48438 0.36428 0.19096 0.0
H617 H 0.41187 0.31229 0.3304 0.0
H618 H 0.42072 0.33928 0.27368 0.0
H619 H 0.48783 0.32701 0.22357 0.0
H620 H 0.52489 0.43336 0.10683 0.0
H621 H 0.51532 0.40128 0.15784 0.0
H622 H 0.44819 0.41659 0.21133 0.0
C623 C 0.43452 0.3306 0.29034 0.0
C624 C 0.47911 0.34653 0.22111 0.0
C625 C 0.42946 0.3149 0.32258 0.0
C626 C 0.50729 0.43102 0.11471 0.0
C627 C 0.50177 0.41248 0.14378 0.0
C628 C 0.45674 0.39692 0.21322 0.0
C629 C 0.45715 0.33538 0.28004 0.0
C630 C 0.46253 0.35378 0.24749 0.0
C631 C 0.47916 0.40897 0.15514 0.0
C632 C 0.47332 0.38975 0.18672 0.0
H633 H 0.48333 0.29945 0.35135 0.0
H634 H 0.49221 0.32695 0.2949 0.0
H635 H 0.43879 0.38548 0.26342 0.0
H636 H 0.45422 0.45457 0.09398 0.0
H637 H 0.44455 0.42185 0.14404 0.0
C638 C 0.04864 0.80609 0.82828 0.0
C639 C 0.07135 0.80283 0.84002 0.0
C640 C 0.04331 0.82132 0.79553 0.0
C641 C 0.06603 0.87791 0.73798 0.0
H642 H 0.01952 0.85608 0.66429 0.0
C643 C 0.04774 0.94297 0.60377 0.0
C644 C 0.02496 0.94597 0.59238 0.0
C645 C 0.05372 0.9241 0.63224 0.0
C646 C 0.03238 0.86262 0.68485 0.0
H647 H 0.10627 0.81239 0.82614 0.0
H648 H 0.09696 0.83877 0.76886 0.0
H649 H 0.02935 0.82491 0.71665 0.0
H650 H 0.99057 0.93147 0.60192 0.0
H651 H 0.00092 0.89906 0.65227 0.0
H652 H 0.06876 0.91582 0.70703 0.0
C653 C 0.0833 0.82968 0.7851 0.0
C654 C 0.03804 0.84471 0.71473 0.0
C655 C 0.08863 0.81432 0.81765 0.0
C656 C 0.00829 0.92961 0.60999 0.0
C657 C 0.01425 0.91087 0.63867 0.0
C658 C 0.06027 0.89587 0.70832 0.0
C659 C 0.06058 0.83376 0.77408 0.0
C660 C 0.05492 0.8522 0.7416 0.0
C661 C 0.03704 0.90793 0.65022 0.0
C662 C 0.04335 0.88849 0.68139 0.0
H663 H 0.03498 0.79728 0.8448 0.0
H664 H 0.02565 0.82422 0.78782 0.0
H665 H 0.07882 0.88446 0.75866 0.0
H666 H 0.06103 0.9551 0.59053 0.0
H667 H 0.07147 0.92205 0.63993 0.0
loop_
_geom_bond_atom_site_label_1
_geom_bond_atom_site_label_2
_geom_bond_distance
_geom_bond_site_symmetry_2
_ccdc_geom_bond_type
C0 C1 1.391 . S
C0 C4 1.391 . S
C0 H42 0.948 . S
C1 C0 1.391 . S
C1 C2 1.391 . S
C2 C1 1.391 . S
C2 H58 0.947 . S
C2 C59 1.392 . S
C3 C4 1.391 . S
C3 C7 1.397 . S
C3 C59 1.419 . S
C4 C0 1.391 . S
C4 C3 1.391 . S
C4 C5 1.399 . S
C5 C4 1.399 . S
C5 C8 1.396 . S
C5 C17 1.453 . S
C5 C18 1.684 . S
H6 C30 0.948 . S
C7 C3 1.397 . S
C7 C8 1.394 . S
C7 C26 1.723 1_556 S
C8 C5 1.396 . S
C8 C7 1.394 . S
C8 C38 1.723 1_556 S
H9 C32 0.947 . S
H10 C33 0.948 . S
H11 C39 0.982 . S
H12 C40 0.979 . S
H13 C40 0.980 . S
H14 C40 0.983 . S
H15 C39 0.979 . S
H16 C39 0.977 . S
C17 C5 1.453 . S
C17 H46 0.982 . S
C17 H47 0.979 . S
C17 H48 0.977 . S
C18 C5 1.684 . S
C18 H43 0.979 . S
C18 H44 0.980 . S
C18 H45 0.983 . S
C19 C20 1.391 . S
C19 C24 1.391 . S
C19 H49 0.948 . S
C20 C19 1.391 . S
C20 C21 1.391 . S
C21 C20 1.391 . S
C21 C22 1.392 . S
C21 H50 0.947 . S
C22 C21 1.392 . S
C22 C23 1.419 . S
C22 H51 0.948 . S
C23 C22 1.419 . S
C23 C24 1.391 . S
C23 C27 1.397 . S
C24 C19 1.391 . S
C24 C23 1.391 . S
C24 C25 1.399 . S
C25 C24 1.399 . S
C25 C26 1.396 . S
C25 C28 1.453 . S
C25 C29 1.684 . S
C26 C7 1.723 1_554 S
C26 C25 1.396 . S
C26 C27 1.394 . S
C27 C23 1.397 . S
C27 C26 1.394 . S
C27 C37 1.723 . S
C28 C25 1.453 . S
C28 H52 0.982 . S
C28 H53 0.979 . S
C28 H54 0.977 . S
C29 C25 1.684 . S
C29 H55 0.979 . S
C29 H56 0.980 . S
C29 H57 0.983 . S
C30 H6 0.948 . S
C30 C31 1.391 . S
C30 C35 1.391 . S
C31 C30 1.391 . S
C31 C32 1.391 1_554 S
C32 H9 0.947 . S
C32 C31 1.391 1_556 S
C32 C33 1.392 . S
C33 H10 0.948 . S
C33 C32 1.392 . S
C33 C34 1.419 . S
C34 C33 1.419 . S
C34 C35 1.391 1_556 S
C34 C38 1.397 1_556 S
C35 C30 1.391 . S
C35 C34 1.391 1_554 S
C35 C36 1.399 . S
C36 C35 1.399 . S
C36 C37 1.396 . S
C36 C39 1.453 . S
C36 C40 1.684 . S
C37 C27 1.723 . S
C37 C36 1.396 . S
C37 C38 1.394 . S
C38 C8 1.723 1_554 S
C38 C34 1.397 1_554 S
C38 C37 1.394 . S
C39 H11 0.982 . S
C39 H15 0.979 . S
C39 H16 0.977 . S
C39 C36 1.453 . S
C40 H12 0.979 . S
C40 H13 0.980 . S
C40 H14 0.983 . S
C40 C36 1.684 . S
H41 C59 0.948 . S
H42 C0 0.948 . S
H43 C18 0.979 . S
H44 C18 0.980 . S
H45 C18 0.983 . S
H46 C17 0.982 . S
H47 C17 0.979 . S
H48 C17 0.977 . S
H49 C19 0.948 . S
H50 C21 0.947 . S
H51 C22 0.948 . S
H52 C28 0.982 . S
H53 C28 0.979 . S
H54 C28 0.977 . S
H55 C29 0.979 . S
H56 C29 0.980 . S
H57 C29 0.983 . S
H58 C2 0.947 . S
C59 C2 1.392 . S
C59 C3 1.419 . S
C59 H41 0.948 . S
C60 C61 1.391 . S
C60 C64 1.391 . S
C60 H102 0.948 . S
C61 C60 1.391 . S
C61 C62 1.391 . S
C62 C61 1.391 . S
C62 H118 0.947 . S
C62 C119 1.392 . S
C63 C64 1.391 . S
C63 C67 1.397 . S
C63 C119 1.419 . S
C64 C60 1.391 . S
C64 C63 1.391 . S
C64 C65 1.399 . S
C65 C64 1.399 . S
C65 C68 1.396 . S
C65 C77 1.453 . S
C65 C78 1.684 . S
H66 C90 0.948 . S
C67 C63 1.397 . S
C67 C68 1.394 . S
C67 C86 1.723 . S
C68 C65 1.396 . S
C68 C67 1.394 . S
C68 C98 1.723 . S
H69 C92 0.947 . S
H70 C93 0.948 . S
H71 C99 0.982 . S
H72 C100 0.979 . S
H73 C100 0.980 . S
H74 C100 0.983 . S
H75 C99 0.979 . S
H76 C99 0.977 . S
C77 C65 1.453 . S
C77 H106 0.982 . S
C77 H107 0.979 . S
C77 H108 0.977 . S
C78 C65 1.684 . S
C78 H103 0.979 . S
C78 H104 0.980 . S
C78 H105 0.983 . S
C79 C80 1.391 . S
C79 C84 1.391 . S
C79 H109 0.948 . S
C80 C79 1.391 . S
C80 C81 1.391 . S
C81 C80 1.391 . S
C81 C82 1.392 . S
C81 H110 0.947 . S
C82 C81 1.392 . S
C82 C83 1.419 . S
C82 H111 0.948 . S
C83 C82 1.419 . S
C83 C84 1.391 . S
C83 C87 1.397 . S
C84 C79 1.391 . S
C84 C83 1.391 . S
C84 C85 1.399 . S
C85 C84 1.399 . S
C85 C86 1.396 . S
C85 C88 1.453 . S
C85 C89 1.684 . S
C86 C67 1.723 . S
C86 C85 1.396 . S
C86 C87 1.394 . S
C87 C83 1.397 . S
C87 C86 1.394 . S
C87 C97 1.723 . S
C88 C85 1.453 . S
C88 H112 0.982 . S
C88 H113 0.979 . S
C88 H114 0.977 . S
C89 C85 1.684 . S
C89 H115 0.979 . S
C89 H116 0.980 . S
C89 H117 0.983 . S
C90 H66 0.948 . S
C90 C91 1.391 . S
C90 C95 1.391 . S
C91 C90 1.391 . S
C91 C92 1.391 . S
C92 H69 0.947 . S
C92 C91 1.391 . S
C92 C93 1.392 . S
C93 H70 0.948 . S
C93 C92 1.392 . S
C93 C94 1.419 . S
C94 C93 1.419 . S
C94 C95 1.391 . S
C94 C98 1.397 . S
C95 C90 1.391 . S
C95 C94 1.391 . S
C95 C96 1.399 . S
C96 C95 1.399 . S
C96 C97 1.396 . S
C96 C99 1.453 . S
C96 C100 1.684 . S
C97 C87 1.723 . S
C97 C96 1.396 . S
C97 C98 1.394 . S
C98 C68 1.723 . S
C98 C94 1.397 . S
C98 C97 1.394 . S
C99 H71 0.982 . S
C99 H75 0.979 . S
C99 H76 0.977 . S
C99 C96 1.453 . S
C100 H72 0.979 . S
C100 H73 0.980 . S
C100 H74 0.983 . S
C100 C96 1.684 . S
H101 C119 0.948 . S
H102 C60 0.948 . S
H103 C78 0.979 . S
H104 C78 0.980 . S
H105 C78 0.983 . S
H106 C77 0.982 . S
H107 C77 0.979 . S
H108 C77 0.977 . S
H109 C79 0.948 . S
H110 C81 0.947 . S
H111 C82 0.948 . S
H112 C88 0.982 . S
H113 C88 0.979 . S
H114 C88 0.977 . S
H115 C89 0.979 . S
H116 C89 0.980 . S
H117 C89 0.983 . S
H118 C62 0.947 . S
C119 C62 1.392 . S
C119 C63 1.419 . S
C119 H101 0.948 . S
C120 C121 1.391 . S
C120 C124 1.391 . S
C120 H162 0.948 . S
C121 C120 1.391 . S
C121 C122 1.391 . S
C122 C121 1.391 . S
C122 H178 0.947 . S
C122 C179 1.392 . S
C123 C124 1.391 . S
C123 C127 1.397 . S
C123 C179 1.419 . S
C124 C120 1.391 . S
C124 C123 1.391 . S
C124 C125 1.399 . S
C125 C124 1.399 . S
C125 C128 1.396 . S
C125 C137 1.453 . S
C125 C138 1.684 . S
H126 C150 0.948 . S
C127 C123 1.397 . S
C127 C128 1.394 . S
C127 C146 1.723 1_554 S
C128 C125 1.396 . S
C128 C127 1.394 . S
C128 C158 1.723 . S
H129 C152 0.947 . S
H130 C153 0.948 . S
H131 C159 0.982 . S
H132 C160 0.979 . S
H133 C160 0.980 . S
H134 C160 0.983 . S
H135 C159 0.979 . S
H136 C159 0.977 . S
C137 C125 1.453 . S
C137 H166 0.982 . S
C137 H167 0.979 . S
C137 H168 0.977 . S
C138 C125 1.684 . S
C138 H163 0.979 . S
C138 H164 0.980 . S
C138 H165 0.983 . S
C139 C140 1.391 . S
C139 C144 1.391 . S
C139 H169 0.948 . S
C140 C139 1.391 . S
C140 C141 1.391 . S
C141 C140 1.391 . S
C141 C142 1.392 . S
C141 H170 0.947 . S
C142 C141 1.392 . S
C142 C143 1.419 . S
C142 H171 0.948 . S
C143 C142 1.419 . S
C143 C144 1.391 . S
C143 C147 1.397 . S
C144 C139 1.391 . S
C144 C143 1.391 . S
C144 C145 1.399 . S
C145 C144 1.399 . S
C145 C146 1.396 . S
C145 C148 1.453 . S
C145 C149 1.684 . S
C146 C127 1.723 1_556 S
C146 C145 1.396 . S
C146 C147 1.394 . S
C147 C143 1.397 . S
C147 C146 1.394 . S
C147 C157 1.723 . S
C148 C145 1.453 . S
C148 H172 0.982 . S
C148 H173 0.979 . S
C148 H174 0.977 1_556 S
C149 C145 1.684 . S
C149 H175 0.979 . S
C149 H176 0.980 1_556 S
C149 H177 0.983 . S
C150 H126 0.948 . S
C150 C151 1.391 1_556 S
C150 C155 1.391 . S
C151 C150 1.391 1_554 S
C151 C152 1.391 . S
C152 H129 0.947 . S
C152 C151 1.391 . S
C152 C153 1.392 . S
C153 H130 0.948 . S
C153 C152 1.392 . S
C153 C154 1.419 . S
C154 C153 1.419 . S
C154 C155 1.391 1_554 S
C154 C158 1.397 . S
C155 C150 1.391 . S
C155 C154 1.391 1_556 S
C155 C156 1.399 . S
C156 C155 1.399 . S
C156 C157 1.396 . S
C156 C159 1.453 . S
C156 C160 1.684 . S
C157 C147 1.723 . S
C157 C156 1.396 . S
C157 C158 1.394 1_556 S
C158 C128 1.723 . S
C158 C154 1.397 . S
C158 C157 1.394 1_554 S
C159 H131 0.982 . S
C159 H135 0.979 . S
C159 H136 0.977 . S
C159 C156 1.453 . S
C160 H132 0.979 . S
C160 H133 0.980 . S
C160 H134 0.983 . S
C160 C156 1.684 . S
H161 C179 0.948 . S
H162 C120 0.948 . S
H163 C138 0.979 . S
H164 C138 0.980 . S
H165 C138 0.983 . S
H166 C137 0.982 . S
H167 C137 0.979 . S
H168 C137 0.977 . S
H169 C139 0.948 . S
H170 C141 0.947 . S
H171 C142 0.948 . S
H172 C148 0.982 . S
H173 C148 0.979 . S
H174 C148 0.977 1_554 S
H175 C149 0.979 . S
H176 C149 0.980 1_554 S
H177 C149 0.983 . S
H178 C122 0.947 . S
C179 C122 1.392 . S
C179 C123 1.419 . S
C179 H161 0.948 . S
C180 C181 1.391 . S
C180 C184 1.391 . S
C180 H222 0.948 . S
C181 C180 1.391 . S
C181 C182 1.391 . S
C182 C181 1.391 . S
C182 H238 0.947 . S
C182 C239 1.392 . S
C183 C184 1.391 . S
C183 C187 1.397 . S
C183 C239 1.419 . S
C184 C180 1.391 . S
C184 C183 1.391 . S
C184 C185 1.399 . S
C185 C184 1.399 . S
C185 C188 1.396 . S
C185 C197 1.453 . S
C185 C198 1.684 . S
H186 C210 0.948 . S
C187 C183 1.397 . S
C187 C188 1.394 . S
C187 C206 1.723 . S
C188 C185 1.396 . S
C188 C187 1.394 . S
C188 C218 1.723 . S
H189 C212 0.947 . S
H190 C213 0.948 . S
H191 C219 0.982 . S
H192 C220 0.979 . S
H193 C220 0.980 . S
H194 C220 0.983 . S
H195 C219 0.979 . S
H196 C219 0.977 . S
C197 C185 1.453 . S
C197 H226 0.982 . S
C197 H227 0.979 . S
C197 H228 0.977 . S
C198 C185 1.684 . S
C198 H223 0.979 . S
C198 H224 0.980 . S
C198 H225 0.983 . S
C199 C200 1.391 . S
C199 C204 1.391 . S
C199 H229 0.948 . S
C200 C199 1.391 . S
C200 C201 1.391 . S
C201 C200 1.391 . S
C201 C202 1.392 . S
C201 H230 0.947 . S
C202 C201 1.392 . S
C202 C203 1.419 . S
C202 H231 0.948 . S
C203 C202 1.419 . S
C203 C204 1.391 . S
C203 C207 1.397 . S
C204 C199 1.391 . S
C204 C203 1.391 . S
C204 C205 1.399 . S
C205 C204 1.399 . S
C205 C206 1.396 . S
C205 C208 1.453 . S
C205 C209 1.684 . S
C206 C187 1.723 . S
C206 C205 1.396 . S
C206 C207 1.394 . S
C207 C203 1.397 . S
C207 C206 1.394 . S
C207 C217 1.723 . S
C208 C205 1.453 . S
C208 H232 0.982 . S
C208 H233 0.979 . S
C208 H234 0.977 . S
C209 C205 1.684 . S
C209 H235 0.979 . S
C209 H236 0.980 . S
C209 H237 0.983 . S
C210 H186 0.948 . S
C210 C211 1.391 . S
C210 C215 1.391 . S
C211 C210 1.391 . S
C211 C212 1.391 . S
C212 H189 0.947 . S
C212 C211 1.391 . S
C212 C213 1.392 . S
C213 H190 0.948 . S
C213 C212 1.392 . S
C213 C214 1.419 . S
C214 C213 1.419 . S
C214 C215 1.391 . S
C214 C218 1.397 . S
C215 C210 1.391 . S
C215 C214 1.391 . S
C215 C216 1.399 . S
C216 C215 1.399 . S
C216 C217 1.396 . S
C216 C219 1.453 . S
C216 C220 1.684 . S
C217 C207 1.723 . S
C217 C216 1.396 . S
C217 C218 1.394 . S
C218 C188 1.723 . S
C218 C214 1.397 . S
C218 C217 1.394 . S
C219 H191 0.982 . S
C219 H195 0.979 . S
C219 H196 0.977 . S
C219 C216 1.453 . S
C220 H192 0.979 . S
C220 H193 0.980 . S
C220 H194 0.983 . S
C220 C216 1.684 . S
H221 C239 0.948 . S
H222 C180 0.948 . S
H223 C198 0.979 . S
H224 C198 0.980 . S
H225 C198 0.983 . S
H226 C197 0.982 . S
H227 C197 0.979 . S
H228 C197 0.977 . S
H229 C199 0.948 . S
H230 C201 0.947 . S
H231 C202 0.948 . S
H232 C208 0.982 . S
H233 C208 0.979 . S
H234 C208 0.977 . S
H235 C209 0.979 . S
H236 C209 0.980 . S
H237 C209 0.983 . S
H238 C182 0.947 . S
C239 C182 1.392 . S
C239 C183 1.419 . S
C239 H221 0.948 . S
C240 O256 1.251 . S
C240 O258 1.254 . S
N241 C242 1.333 . S
N241 C246 1.307 . S
N241 Zn247 2.020 . S
C242 N241 1.333 . S
C242 C243 1.379 . S
C242 H260 0.952 . S
C243 C242 1.379 . S
C243 C244 1.390 . S
C243 H270 0.949 . S
C244 C243 1.390 . S
C244 C245 1.357 . S
C245 C244 1.357 . S
C245 C246 1.370 . S
C245 H271 0.950 . S
C246 N241 1.307 . S
C246 C245 1.370 . S
C246 H264 0.948 . S
Zn247 N241 2.020 . S
Zn247 O256 2.039 1_545 S
Zn247 O262 2.034 1_545 S
Zn247 O266 2.025 . S
Zn247 O268 2.024 . S
C248 O267 1.246 . S
C248 O268 1.249 1_655 S
N249 C250 1.307 . S
N249 C251 1.333 . S
N249 Zn255 2.020 . S
C250 N249 1.307 . S
C250 C254 1.370 . S
C250 H261 0.948 . S
C251 N249 1.333 . S
C251 C252 1.379 . S
C251 H259 0.952 1_565 S
C252 C251 1.379 . S
C252 C253 1.390 . S
C252 H272 0.949 . S
C253 C252 1.390 . S
C253 C254 1.357 . S
C254 C250 1.370 . S
C254 C253 1.357 . S
C254 H273 0.950 . S
Zn255 N249 2.020 . S
Zn255 O258 2.025 1_655 S
Zn255 O263 2.024 1_655 S
Zn255 O265 2.039 1_565 S
Zn255 O267 2.034 1_565 S
O256 C240 1.251 . S
O256 Zn247 2.039 1_565 S
C257 O262 1.246 . S
C257 O263 1.249 . S
O258 C240 1.254 . S
O258 Zn255 2.025 1_455 S
H259 C251 0.952 1_545 S
H260 C242 0.952 . S
H261 C250 0.948 . S
O262 Zn247 2.034 1_565 S
O262 C257 1.246 . S
O263 Zn255 2.024 1_455 S
O263 C257 1.249 . S
H264 C246 0.948 . S
O265 Zn255 2.039 1_545 S
O265 C269 1.251 . S
O266 Zn247 2.025 . S
O266 C269 1.254 1_455 S
O267 C248 1.246 . S
O267 Zn255 2.034 1_545 S
O268 Zn247 2.024 . S
O268 C248 1.249 1_455 S
C269 O265 1.251 . S
C269 O266 1.254 1_655 S
H270 C243 0.949 . S
H271 C245 0.950 . S
H272 C252 0.949 . S
H273 C254 0.950 . S
C274 O290 1.251 . S
C274 O292 1.254 . S
N275 C276 1.333 1_554 S
N275 C280 1.307 . S
N275 Zn281 2.020 . S
C276 N275 1.333 1_556 S
C276 C277 1.379 . S
C276 H294 0.952 . S
C277 C276 1.379 . S
C277 C278 1.390 1_556 S
C277 H304 0.949 . S
C278 C277 1.390 1_554 S
C278 C279 1.357 . S
C279 C278 1.357 . S
C279 C280 1.370 . S
C279 H305 0.950 . S
C280 N275 1.307 . S
C280 C279 1.370 . S
C280 H298 0.948 . S
Zn281 N275 2.020 . S
Zn281 O290 2.039 1_554 S
Zn281 O296 2.034 . S
Zn281 O300 2.025 . S
Zn281 O302 2.024 1_554 S
C282 O301 1.246 . S
C282 O302 1.249 . S
N283 C284 1.307 1_554 S
N283 C285 1.333 . S
N283 Zn289 2.020 . S
C284 N283 1.307 1_556 S
C284 C288 1.370 . S
C284 H295 0.948 . S
C285 N283 1.333 . S
C285 C286 1.379 . S
C285 H293 0.952 . S
C286 C285 1.379 . S
C286 C287 1.390 . S
C286 H306 0.949 . S
C287 C286 1.390 . S
C287 C288 1.357 1_554 S
C288 C284 1.370 . S
C288 C287 1.357 1_556 S
C288 H307 0.950 . S
Zn289 N283 2.020 . S
Zn289 O292 2.025 1_554 S
Zn289 O297 2.024 . S
Zn289 O299 2.039 . S
Zn289 O301 2.034 1_554 S
O290 C274 1.251 . S
O290 Zn281 2.039 1_556 S
C291 O296 1.246 . S
C291 O297 1.249 . S
O292 C274 1.254 . S
O292 Zn289 2.025 1_556 S
H293 C285 0.952 . S
H294 C276 0.952 . S
H295 C284 0.948 . S
O296 Zn281 2.034 . S
O296 C291 1.246 . S
O297 Zn289 2.024 . S
O297 C291 1.249 . S
H298 C280 0.948 . S
O299 Zn289 2.039 . S
O299 C303 1.251 . S
O300 Zn281 2.025 . S
O300 C303 1.254 . S
O301 C282 1.246 . S
O301 Zn289 2.034 1_556 S
O302 Zn281 2.024 1_556 S
O302 C282 1.249 . S
C303 O299 1.251 . S
C303 O300 1.254 . S
H304 C277 0.949 . S
H305 C279 0.950 . S
H306 C286 0.949 . S
H307 C288 0.950 . S
C308 C309 1.349 . S
C308 C310 1.327 . S
C308 H333 0.950 . S
C309 C308 1.349 . S
C309 C325 1.349 . S
C310 C308 1.327 . S
C310 C329 1.429 . S
C310 H334 0.950 . S
C311 C328 1.574 . S
C311 C330 1.368 . S
C311 H335 0.949 . S
H312 C316 0.949 . S
C313 C314 1.349 . S
C313 C315 1.327 . S
C313 H336 0.950 . S
C314 C313 1.349 . S
C314 C326 1.349 . S
C315 C313 1.327 . S
C315 C331 1.429 . S
C315 H337 0.950 . S
C316 H312 0.949 . S
C316 C324 1.574 . S
C316 C332 1.368 . S
H317 C325 0.950 . S
H318 C323 0.950 . S
H319 C324 0.949 . S
H320 C326 0.950 . S
H321 C327 0.950 . S
H322 C328 0.949 . S
C323 H318 0.950 . S
C323 C325 1.327 . S
C323 C329 1.429 . S
C324 C316 1.574 . S
C324 H319 0.949 . S
C324 C330 1.368 . S
C325 C309 1.349 . S
C325 H317 0.950 . S
C325 C323 1.327 . S
C326 C314 1.349 . S
C326 H320 0.950 . S
C326 C327 1.327 . S
C327 H321 0.950 . S
C327 C326 1.327 . S
C327 C331 1.429 . S
C328 C311 1.574 . S
C328 H322 0.949 . S
C328 C332 1.368 . S
C329 C310 1.429 . S
C329 C323 1.429 . S
C329 C330 1.523 . S
C330 C311 1.368 . S
C330 C324 1.368 . S
C330 C329 1.523 . S
C331 C315 1.429 . S
C331 C327 1.429 . S
C331 C332 1.523 . S
C332 C316 1.368 . S
C332 C328 1.368 . S
C332 C331 1.523 . S
H333 C308 0.950 . S
H334 C310 0.950 . S
H335 C311 0.949 . S
H336 C313 0.950 . S
H337 C315 0.950 . S
C338 C339 1.349 1_556 S
C338 C340 1.327 . S
C338 H363 0.950 . S
C339 C338 1.349 1_554 S
C339 C355 1.349 . S
C340 C338 1.327 . S
C340 C359 1.429 1_556 S
C340 H364 0.950 . S
C341 C358 1.574 . S
C341 C360 1.368 . S
C341 H365 0.949 . S
H342 C346 0.949 . S
C343 C344 1.349 . S
C343 C345 1.327 . S
C343 H366 0.950 . S
C344 C343 1.349 . S
C344 C356 1.349 1_554 S
C345 C343 1.327 . S
C345 C361 1.429 . S
C345 H367 0.950 . S
C346 H342 0.949 . S
C346 C354 1.574 . S
C346 C362 1.368 1_556 S
H347 C355 0.950 . S
H348 C353 0.950 . S
H349 C354 0.949 . S
H350 C356 0.950 . S
H351 C357 0.950 . S
H352 C358 0.949 . S
C353 H348 0.950 . S
C353 C355 1.327 . S
C353 C359 1.429 . S
C354 C346 1.574 . S
C354 H349 0.949 . S
C354 C360 1.368 1_556 S
C355 C339 1.349 . S
C355 H347 0.950 . S
C355 C353 1.327 . S
C356 C344 1.349 1_556 S
C356 H350 0.950 . S
C356 C357 1.327 . S
C357 H351 0.950 . S
C357 C356 1.327 . S
C357 C361 1.429 1_556 S
C358 C341 1.574 . S
C358 H352 0.949 . S
C358 C362 1.368 . S
C359 C340 1.429 1_554 S
C359 C353 1.429 . S
C359 C360 1.523 . S
C360 C341 1.368 . S
C360 C354 1.368 1_554 S
C360 C359 1.523 . S
C361 C345 1.429 . S
C361 C357 1.429 1_554 S
C361 C362 1.523 . S
C362 C346 1.368 1_554 S
C362 C358 1.368 . S
C362 C361 1.523 . S
H363 C338 0.950 . S
H364 C340 0.950 . S
H365 C341 0.949 . S
H366 C343 0.950 . S
H367 C345 0.950 . S
C368 C369 1.349 . S
C368 C370 1.327 . S
C368 H393 0.950 . S
C369 C368 1.349 . S
C369 C385 1.349 . S
C370 C368 1.327 . S
C370 C389 1.429 . S
C370 H394 0.950 . S
C371 C388 1.574 . S
C371 C390 1.368 . S
C371 H395 0.949 . S
H372 C376 0.949 . S
C373 C374 1.349 . S
C373 C375 1.327 . S
C373 H396 0.950 . S
C374 C373 1.349 . S
C374 C386 1.349 . S
C375 C373 1.327 . S
C375 C391 1.429 . S
C375 H397 0.950 . S
C376 H372 0.949 . S
C376 C384 1.574 . S
C376 C392 1.368 . S
H377 C385 0.950 . S
H378 C383 0.950 . S
H379 C384 0.949 . S
H380 C386 0.950 . S
H381 C387 0.950 . S
H382 C388 0.949 . S
C383 H378 0.950 . S
C383 C385 1.327 . S
C383 C389 1.429 . S
C384 C376 1.574 . S
C384 H379 0.949 . S
C384 C390 1.368 . S
C385 C369 1.349 . S
C385 H377 0.950 . S
C385 C383 1.327 . S
C386 C374 1.349 . S
C386 H380 0.950 . S
C386 C387 1.327 . S
C387 H381 0.950 . S
C387 C386 1.327 . S
C387 C391 1.429 . S
C388 C371 1.574 . S
C388 H382 0.949 . S
C388 C392 1.368 . S
C389 C370 1.429 . S
C389 C383 1.429 . S
C389 C390 1.523 . S
C390 C371 1.368 . S
C390 C384 1.368 . S
C390 C389 1.523 . S
C391 C375 1.429 . S
C391 C387 1.429 . S
C391 C392 1.523 . S
C392 C376 1.368 . S
C392 C388 1.368 . S
C392 C391 1.523 . S
H393 C368 0.950 . S
H394 C370 0.950 . S
H395 C371 0.949 . S
H396 C373 0.950 . S
H397 C375 0.950 . S
C398 C399 1.349 . S
C398 C400 1.327 . S
C398 H423 0.950 . S
C399 C398 1.349 . S
C399 C415 1.349 1_554 S
C400 C398 1.327 . S
C400 C419 1.429 . S
C400 H424 0.950 . S
C401 C418 1.574 . S
C401 C420 1.368 1_556 S
C401 H425 0.949 . S
H402 C406 0.949 . S
C403 C404 1.349 1_556 S
C403 C405 1.327 . S
C403 H426 0.950 . S
C404 C403 1.349 1_554 S
C404 C416 1.349 . S
C405 C403 1.327 . S
C405 C421 1.429 1_556 S
C405 H427 0.950 . S
C406 H402 0.949 . S
C406 C414 1.574 . S
C406 C422 1.368 . S
H407 C415 0.950 . S
H408 C413 0.950 . S
H409 C414 0.949 . S
H410 C416 0.950 . S
H411 C417 0.950 . S
H412 C418 0.949 . S
C413 H408 0.950 . S
C413 C415 1.327 . S
C413 C419 1.429 1_556 S
C414 C406 1.574 . S
C414 H409 0.949 . S
C414 C420 1.368 . S
C415 C399 1.349 1_556 S
C415 H407 0.950 . S
C415 C413 1.327 . S
C416 C404 1.349 . S
C416 H410 0.950 . S
C416 C417 1.327 . S
C417 H411 0.950 . S
C417 C416 1.327 . S
C417 C421 1.429 . S
C418 C401 1.574 . S
C418 H412 0.949 . S
C418 C422 1.368 1_556 S
C419 C400 1.429 . S
C419 C413 1.429 1_554 S
C419 C420 1.523 . S
C420 C401 1.368 1_554 S
C420 C414 1.368 . S
C420 C419 1.523 . S
C421 C405 1.429 1_554 S
C421 C417 1.429 . S
C421 C422 1.523 . S
C422 C406 1.368 . S
C422 C418 1.368 1_554 S
C422 C421 1.523 . S
H423 C398 0.950 . S
H424 C400 0.950 . S
H425 C401 0.949 . S
H426 C403 0.950 . S
H427 C405 0.950 . S
C428 C429 1.349 . S
C428 C430 1.327 . S
C428 H453 0.950 . S
C429 C428 1.349 . S
C429 C445 1.349 . S
C430 C428 1.327 . S
C430 C449 1.429 . S
C430 H454 0.950 . S
C431 C448 1.574 . S
C431 C450 1.368 . S
C431 H455 0.949 . S
H432 C436 0.949 . S
C433 C434 1.349 . S
C433 C435 1.327 . S
C433 H456 0.950 . S
C434 C433 1.349 . S
C434 C446 1.349 . S
C435 C433 1.327 . S
C435 C451 1.429 . S
C435 H457 0.950 . S
C436 H432 0.949 . S
C436 C444 1.574 . S
C436 C452 1.368 . S
H437 C445 0.950 . S
H438 C443 0.950 . S
H439 C444 0.949 . S
H440 C446 0.950 . S
H441 C447 0.950 . S
H442 C448 0.949 . S
C443 H438 0.950 . S
C443 C445 1.327 . S
C443 C449 1.429 . S
C444 C436 1.574 . S
C444 H439 0.949 . S
C444 C450 1.368 . S
C445 C429 1.349 . S
C445 H437 0.950 . S
C445 C443 1.327 . S
C446 C434 1.349 . S
C446 H440 0.950 . S
C446 C447 1.327 . S
C447 H441 0.950 . S
C447 C446 1.327 . S
C447 C451 1.429 . S
C448 C431 1.574 . S
C448 H442 0.949 . S
C448 C452 1.368 . S
C449 C430 1.429 . S
C449 C443 1.429 . S
C449 C450 1.523 . S
C450 C431 1.368 . S
C450 C444 1.368 . S
C450 C449 1.523 . S
C451 C435 1.429 . S
C451 C447 1.429 . S
C451 C452 1.523 . S
C452 C436 1.368 . S
C452 C448 1.368 . S
C452 C451 1.523 . S
H453 C428 0.950 . S
H454 C430 0.950 . S
H455 C431 0.949 . S
H456 C433 0.950 . S
H457 C435 0.950 . S
C458 C459 1.349 . S
C458 C460 1.327 . S
C458 H483 0.950 . S
C459 C458 1.349 . S
C459 C475 1.349 . S
C460 C458 1.327 . S
C460 C479 1.429 . S
C460 H484 0.950 . S
C461 C478 1.574 . S
C461 C480 1.368 . S
C461 H485 0.949 . S
H462 C466 0.949 . S
C463 C464 1.349 . S
C463 C465 1.327 . S
C463 H486 0.950 . S
C464 C463 1.349 . S
C464 C476 1.349 . S
C465 C463 1.327 . S
C465 C481 1.429 . S
C465 H487 0.950 . S
C466 H462 0.949 . S
C466 C474 1.574 . S
C466 C482 1.368 . S
H467 C475 0.950 . S
H468 C473 0.950 . S
H469 C474 0.949 . S
H470 C476 0.950 . S
H471 C477 0.950 . S
H472 C478 0.949 . S
C473 H468 0.950 . S
C473 C475 1.327 . S
C473 C479 1.429 . S
C474 C466 1.574 . S
C474 H469 0.949 . S
C474 C480 1.368 . S
C475 C459 1.349 . S
C475 H467 0.950 . S
C475 C473 1.327 . S
C476 C464 1.349 . S
C476 H470 0.950 . S
C476 C477 1.327 . S
C477 H471 0.950 . S
C477 C476 1.327 . S
C477 C481 1.429 . S
C478 C461 1.574 . S
C478 H472 0.949 . S
C478 C482 1.368 . S
C479 C460 1.429 . S
C479 C473 1.429 . S
C479 C480 1.523 . S
C480 C461 1.368 . S
C480 C474 1.368 . S
C480 C479 1.523 . S
C481 C465 1.429 . S
C481 C477 1.429 . S
C481 C482 1.523 . S
C482 C466 1.368 . S
C482 C478 1.368 . S
C482 C481 1.523 . S
H483 C458 0.950 . S
H484 C460 0.950 . S
H485 C461 0.949 . S
H486 C463 0.950 . S
H487 C465 0.950 . S
C488 C489 1.349 . S
C488 C490 1.327 . S
C488 H513 0.950 . S
C489 C488 1.349 . S
C489 C505 1.349 . S
C490 C488 1.327 . S
C490 C509 1.429 . S
C490 H514 0.950 . S
C491 C508 1.574 . S
C491 C510 1.368 . S
C491 H515 0.949 . S
H492 C496 0.949 . S
C493 C494 1.349 . S
C493 C495 1.327 . S
C493 H516 0.950 1_655 S
C494 C493 1.349 . S
C494 C506 1.349 . S
C495 C493 1.327 . S
C495 C511 1.429 . S
C495 H517 0.950 . S
C496 H492 0.949 . S
C496 C504 1.574 . S
C496 C512 1.368 . S
H497 C505 0.950 . S
H498 C503 0.950 . S
H499 C504 0.949 . S
H500 C506 0.950 . S
H501 C507 0.950 . S
H502 C508 0.949 . S
C503 H498 0.950 . S
C503 C505 1.327 . S
C503 C509 1.429 . S
C504 C496 1.574 . S
C504 H499 0.949 . S
C504 C510 1.368 . S
C505 C489 1.349 . S
C505 H497 0.950 . S
C505 C503 1.327 . S
C506 C494 1.349 . S
C506 H500 0.950 . S
C506 C507 1.327 . S
C507 H501 0.950 . S
C507 C506 1.327 . S
C507 C511 1.429 . S
C508 C491 1.574 . S
C508 H502 0.949 . S
C508 C512 1.368 . S
C509 C490 1.429 . S
C509 C503 1.429 . S
C509 C510 1.523 . S
C510 C491 1.368 . S
C510 C504 1.368 . S
C510 C509 1.523 . S
C511 C495 1.429 . S
C511 C507 1.429 . S
C511 C512 1.523 . S
C512 C496 1.368 . S
C512 C508 1.368 . S
C512 C511 1.523 . S
H513 C488 0.950 . S
H514 C490 0.950 . S
H515 C491 0.949 . S
H516 C493 0.950 1_455 S
H517 C495 0.950 . S
C518 C519 1.349 . S
C518 C520 1.327 . S
C518 H543 0.950 . S
C519 C518 1.349 . S
C519 C535 1.349 . S
C520 C518 1.327 . S
C520 C539 1.429 . S
C520 H544 0.950 . S
C521 C538 1.574 . S
C521 C540 1.368 . S
C521 H545 0.949 . S
H522 C526 0.949 . S
C523 C524 1.349 . S
C523 C525 1.327 . S
C523 H546 0.950 . S
C524 C523 1.349 . S
C524 C536 1.349 . S
C525 C523 1.327 . S
C525 C541 1.429 . S
C525 H547 0.950 . S
C526 H522 0.949 . S
C526 C534 1.574 . S
C526 C542 1.368 . S
H527 C535 0.950 . S
H528 C533 0.950 . S
H529 C534 0.949 . S
H530 C536 0.950 . S
H531 C537 0.950 . S
H532 C538 0.949 . S
C533 H528 0.950 . S
C533 C535 1.327 . S
C533 C539 1.429 . S
C534 C526 1.574 . S
C534 H529 0.949 . S
C534 C540 1.368 . S
C535 C519 1.349 . S
C535 H527 0.950 . S
C535 C533 1.327 . S
C536 C524 1.349 . S
C536 H530 0.950 . S
C536 C537 1.327 . S
C537 H531 0.950 . S
C537 C536 1.327 . S
C537 C541 1.429 . S
C538 C521 1.574 . S
C538 H532 0.949 . S
C538 C542 1.368 . S
C539 C520 1.429 . S
C539 C533 1.429 . S
C539 C540 1.523 . S
C540 C521 1.368 . S
C540 C534 1.368 . S
C540 C539 1.523 . S
C541 C525 1.429 . S
C541 C537 1.429 . S
C541 C542 1.523 . S
C542 C526 1.368 . S
C542 C538 1.368 . S
C542 C541 1.523 . S
H543 C518 0.950 . S
H544 C520 0.950 . S
H545 C521 0.949 . S
H546 C523 0.950 . S
H547 C525 0.950 . S
C548 C549 1.349 . S
C548 C550 1.327 . S
C548 H573 0.950 . S
C549 C548 1.349 . S
C549 C565 1.349 . S
C550 C548 1.327 . S
C550 C569 1.429 . S
C550 H574 0.950 . S
C551 C568 1.574 . S
C551 C570 1.368 . S
C551 H575 0.949 . S
H552 C556 0.949 . S
C553 C554 1.349 . S
C553 C555 1.327 . S
C553 H576 0.950 . S
C554 C553 1.349 . S
C554 C566 1.349 . S
C555 C553 1.327 . S
C555 C571 1.429 . S
C555 H577 0.950 . S
C556 H552 0.949 . S
C556 C564 1.574 . S
C556 C572 1.368 . S
H557 C565 0.950 . S
H558 C563 0.950 . S
H559 C564 0.949 . S
H560 C566 0.950 . S
H561 C567 0.950 . S
H562 C568 0.949 . S
C563 H558 0.950 . S
C563 C565 1.327 . S
C563 C569 1.429 . S
C564 C556 1.574 . S
C564 H559 0.949 . S
C564 C570 1.368 . S
C565 C549 1.349 . S
C565 H557 0.950 . S
C565 C563 1.327 . S
C566 C554 1.349 . S
C566 H560 0.950 . S
C566 C567 1.327 . S
C567 H561 0.950 . S
C567 C566 1.327 . S
C567 C571 1.429 . S
C568 C551 1.574 . S
C568 H562 0.949 . S
C568 C572 1.368 . S
C569 C550 1.429 . S
C569 C563 1.429 . S
C569 C570 1.523 . S
C570 C551 1.368 . S
C570 C564 1.368 . S
C570 C569 1.523 . S
C571 C555 1.429 . S
C571 C567 1.429 . S
C571 C572 1.523 . S
C572 C556 1.368 . S
C572 C568 1.368 . S
C572 C571 1.523 . S
H573 C548 0.950 . S
H574 C550 0.950 . S
H575 C551 0.949 . S
H576 C553 0.950 . S
H577 C555 0.950 . S
C578 C579 1.349 . S
C578 C580 1.327 . S
C578 H603 0.950 . S
C579 C578 1.349 . S
C579 C595 1.349 . S
C580 C578 1.327 . S
C580 C599 1.429 . S
C580 H604 0.950 . S
C581 C598 1.574 . S
C581 C600 1.368 . S
C581 H605 0.949 . S
H582 C586 0.949 . S
C583 C584 1.349 . S
C583 C585 1.327 . S
C583 H606 0.950 . S
C584 C583 1.349 . S
C584 C596 1.376 . S
C585 C583 1.327 . S
C585 C601 1.429 . S
C585 H607 0.950 . S
C586 H582 0.949 . S
C586 C594 1.574 . S
C586 C602 1.368 . S
H587 C595 0.950 . S
H588 C593 0.950 . S
H589 C594 0.949 . S
H590 C596 0.912 1_455 S
H591 C597 0.950 1_455 S
H592 C598 0.949 . S
C593 H588 0.950 . S
C593 C595 1.327 . S
C593 C599 1.429 . S
C594 C586 1.574 . S
C594 H589 0.949 . S
C594 C600 1.368 . S
C595 C579 1.349 . S
C595 H587 0.950 . S
C595 C593 1.327 . S
C596 C584 1.376 . S
C596 H590 0.912 1_655 S
C596 C597 1.339 . S
C597 H591 0.950 1_655 S
C597 C596 1.339 . S
C597 C601 1.429 . S
C598 C581 1.574 . S
C598 H592 0.949 . S
C598 C602 1.368 . S
C599 C580 1.429 . S
C599 C593 1.429 . S
C599 C600 1.523 . S
C600 C581 1.368 . S
C600 C594 1.368 . S
C600 C599 1.523 . S
C601 C585 1.429 . S
C601 C597 1.429 . S
C601 C602 1.523 . S
C602 C586 1.368 . S
C602 C598 1.368 . S
C602 C601 1.523 . S
H603 C578 0.950 . S
H604 C580 0.950 . S
H605 C581 0.949 . S
H606 C583 0.950 . S
H607 C585 0.950 . S
C608 C609 1.349 . S
C608 C610 1.327 . S
C608 H633 0.950 . S
C609 C608 1.349 . S
C609 C625 1.349 . S
C610 C608 1.327 . S
C610 C629 1.429 . S
C610 H634 0.950 . S
C611 C628 1.574 . S
C611 C630 1.368 . S
C611 H635 0.949 . S
H612 C616 0.949 . S
C613 C614 1.349 . S
C613 C615 1.327 . S
C613 H636 0.950 . S
C614 C613 1.349 . S
C614 C626 1.349 . S
C615 C613 1.327 . S
C615 C631 1.429 . S
C615 H637 0.950 . S
C616 H612 0.949 . S
C616 C624 1.574 . S
C616 C632 1.368 . S
H617 C625 0.950 . S
H618 C623 0.950 . S
H619 C624 0.949 . S
H620 C626 0.950 . S
H621 C627 0.950 . S
H622 C628 0.949 . S
C623 H618 0.950 . S
C623 C625 1.327 . S
C623 C629 1.429 . S
C624 C616 1.574 . S
C624 H619 0.949 . S
C624 C630 1.368 . S
C625 C609 1.349 . S
C625 H617 0.950 . S
C625 C623 1.327 . S
C626 C614 1.349 . S
C626 H620 0.950 . S
C626 C627 1.327 . S
C627 H621 0.950 . S
C627 C626 1.327 . S
C627 C631 1.429 . S
C628 C611 1.574 . S
C628 H622 0.949 . S
C628 C632 1.368 . S
C629 C610 1.429 . S
C629 C623 1.429 . S
C629 C630 1.523 . S
C630 C611 1.368 . S
C630 C624 1.368 . S
C630 C629 1.523 . S
C631 C615 1.429 . S
C631 C627 1.429 . S
C631 C632 1.523 . S
C632 C616 1.368 . S
C632 C628 1.368 . S
C632 C631 1.523 . S
H633 C608 0.950 . S
H634 C610 0.950 . S
H635 C611 0.949 . S
H636 C613 0.950 . S
H637 C615 0.950 . S
C638 C639 1.349 . S
C638 C640 1.327 . S
C638 H663 0.950 . S
C639 C638 1.349 . S
C639 C655 1.349 . S
C640 C638 1.327 . S
C640 C659 1.429 . S
C640 H664 0.950 . S
C641 C658 1.574 . S
C641 C660 1.368 . S
C641 H665 0.949 . S
H642 C646 0.949 . S
C643 C644 1.349 . S
C643 C645 1.327 . S
C643 H666 0.950 . S
C644 C643 1.349 . S
C644 C656 1.349 . S
C645 C643 1.327 . S
C645 C661 1.429 . S
C645 H667 0.950 . S
C646 H642 0.949 . S
C646 C654 1.574 . S
C646 C662 1.368 . S
H647 C655 0.950 . S
H648 C653 0.950 . S
H649 C654 0.949 . S
H650 C656 0.950 . S
H651 C657 0.950 . S
H652 C658 0.949 . S
C653 H648 0.950 . S
C653 C655 1.327 . S
C653 C659 1.429 . S
C654 C646 1.574 . S
C654 H649 0.949 . S
C654 C660 1.368 . S
C655 C639 1.349 . S
C655 H647 0.950 . S
C655 C653 1.327 . S
C656 C644 1.349 . S
C656 H650 0.950 . S
C656 C657 1.327 . S
C657 H651 0.950 . S
C657 C656 1.327 . S
C657 C661 1.429 . S
C658 C641 1.574 . S
C658 H652 0.949 . S
C658 C662 1.368 . S
C659 C640 1.429 . S
C659 C653 1.429 . S
C659 C660 1.523 . S
C660 C641 1.368 . S
C660 C654 1.368 . S
C660 C659 1.523 . S
C661 C645 1.429 . S
C661 C657 1.429 . S
C661 C662 1.523 . S
C662 C646 1.368 . S
C662 C658 1.368 . S
C662 C661 1.523 . S
H663 C638 0.950 . S
H664 C640 0.950 . S
H665 C641 0.949 . S
H666 C643 0.950 . S
H667 C645 0.950 . S
C314 C244 1.643 . S
C309 C211 1.571 . S
C339 C31 1.548 . S
C344 C287 1.563 . S
C369 C91 1.623 . S
C374 C253 1.643 . S
C399 C151 1.506 . S
C404 C278 1.563 . S
C434 C240 1.619 . S
C429 C20 1.612 . S
C464 C282 1.712 . S
C459 C61 1.667 . S
C489 C121 1.524 . S
C494 C248 1.609 . S
C519 C200 1.631 . S
C524 C274 1.707 . S
C554 C303 1.707 . S
C549 C80 1.692 . S
C584 C269 1.618 . S
C579 C140 1.563 . S
C614 C291 1.712 . S
C609 C181 1.604 . S
C639 C1 1.573 . S
C644 C257 1.609 . S
