# Generated by pormake.
# Topology rtl, (3,6)-cn, num edge types: 1
# Building blocks:
#     Node 0, Type 0, BuildingBlock: BETDIP_clean_linker_0, # of connection points: 3
#     Node 1, Type 0, BuildingBlock: BETDIP_clean_linker_0, # of connection points: 3
#     Node 2, Type 0, BuildingBlock: BETDIP_clean_linker_0, # of connection points: 3
#     Node 3, Type 0, BuildingBlock: BETDIP_clean_linker_0, # of connection points: 3
#     Node 4, Type 1, BuildingBlock: FUNLAD_clean_sbu_0, # of connection points: 6
#     Node 5, Type 1, BuildingBlock: FUNLAD_clean_sbu_0, # of connection points: 6
#     Edge 6, Type (0, 1), BuildingBlock: TEMPAE_clean_linker_10, # of connection points: 2
#     Edge 7, Type (0, 1), BuildingBlock: TEMPAE_clean_linker_10, # of connection points: 2
#     Edge 8, Type (0, 1), BuildingBlock: TEMPAE_clean_linker_10, # of connection points: 2
#     Edge 9, Type (0, 1), BuildingBlock: TEMPAE_clean_linker_10, # of connection points: 2
#     Edge 10, Type (0, 1), BuildingBlock: TEMPAE_clean_linker_10, # of connection points: 2
#     Edge 11, Type (0, 1), BuildingBlock: TEMPAE_clean_linker_10, # of connection points: 2
#     Edge 12, Type (0, 1), BuildingBlock: TEMPAE_clean_linker_10, # of connection points: 2
#     Edge 13, Type (0, 1), BuildingBlock: TEMPAE_clean_linker_10, # of connection points: 2
#     Edge 14, Type (0, 1), BuildingBlock: TEMPAE_clean_linker_10, # of connection points: 2
#     Edge 15, Type (0, 1), BuildingBlock: TEMPAE_clean_linker_10, # of connection points: 2
#     Edge 16, Type (0, 1), BuildingBlock: TEMPAE_clean_linker_10, # of connection points: 2
#     Edge 17, Type (0, 1), BuildingBlock: TEMPAE_clean_linker_10, # of connection points: 2
# Relax obj value: 0.002
# Max RMSD: 0.040
# Mean RMSD: 0.028
data_MOF--net-rtl--node1-FUNLAD_clean_sbu_0--node2-BETDIP_clean_linker_0--edge1-TEMPAE_clean_linker_10
_symmetry_space_group_name_H-M    P1
_symmetry_Int_Tables_number       1
_symmetry_cell_setting            triclinic
loop_
_symmetry_equiv_pos_as_xyz
'x, y, z'
_cell_length_a     40.932172
_cell_length_b     40.946985
_cell_length_c     21.387002
_cell_angle_alpha  90.993816
_cell_angle_beta   92.044538
_cell_angle_gamma 90.026462
loop_
_atom_site_label
_atom_site_type_symbol
_atom_site_fract_x
_atom_site_fract_y
_atom_site_fract_z
_atom_type_partial_charge
H0 H 0.18238 0.82346 0.90241 0.0
H1 H 0.18036 0.82047 0.10349 0.0
H2 H 0.12057 0.88918 0.0029 0.0
H3 H 0.20019 0.76979 0.08718 0.0
C4 C 0.21633 0.77208 0.04828 0.0
C5 C 0.17312 0.83282 0.94603 0.0
C6 C 0.14913 0.85732 0.94555 0.0
C7 C 0.18457 0.81934 0.00258 0.0
C8 C 0.17187 0.83063 0.05951 0.0
C9 C 0.14797 0.85526 0.05961 0.0
C10 C 0.13771 0.86901 0.00269 0.0
N11 N 0.20903 0.79477 0.00022 0.0
H12 H 0.69073 0.67935 0.62408 0.0
H13 H 0.69104 0.67779 0.42261 0.0
H14 H 0.62143 0.62018 0.51739 0.0
H15 H 0.7435 0.6936 0.44174 0.0
C16 C 0.74168 0.71094 0.48044 0.0
C17 C 0.68051 0.67053 0.57949 0.0
C18 C 0.65514 0.64737 0.57755 0.0
C19 C 0.69369 0.68163 0.52396 0.0
C20 C 0.68113 0.66951 0.46578 0.0
C21 C 0.6556 0.64655 0.46325 0.0
C22 C 0.64225 0.63658 0.51923 0.0
N23 N 0.7192 0.70524 0.52825 0.0
H24 H 0.82301 0.18936 0.89098 0.0
H25 H 0.82105 0.1867 0.09193 0.0
H26 H 0.8827 0.12061 -0.00741 0.0
H27 H 0.76829 0.20312 0.07324 0.0
C28 C 0.77034 0.22011 0.03513 0.0
C29 C 0.83126 0.17864 0.93472 0.0
C30 C 0.85533 0.1542 0.93511 0.0
C31 C 0.81778 0.18957 0.99077 0.0
C32 C 0.82968 0.17695 0.04818 0.0
C33 C 0.85389 0.15263 0.0492 0.0
C34 C 0.86545 0.14068 -0.00768 0.0
N35 N 0.79328 0.21414 0.98791 0.0
H36 H 0.32629 0.31697 0.38625 0.0
H37 H 0.32669 0.3174 0.58769 0.0
H38 H 0.38696 0.38485 0.49282 0.0
H39 H 0.30868 0.26557 0.5702 0.0
C40 C 0.29182 0.26787 0.53014 0.0
C41 C 0.33521 0.32707 0.43081 0.0
C42 C 0.35912 0.35172 0.43281 0.0
C43 C 0.32337 0.3145 0.4863 0.0
C44 C 0.33555 0.32687 0.54455 0.0
C45 C 0.35927 0.35171 0.54716 0.0
C46 C 0.37 0.36449 0.49109 0.0
N47 N 0.29886 0.28988 0.48175 0.0
C48 C 0.03536 0.97078 0.40785 0.0
N49 N 0.05499 0.06062 0.49832 0.0
C50 C 0.08689 0.05126 0.50064 0.0
C51 C 0.11178 0.07453 0.50154 0.0
C52 C 0.10393 0.10789 0.49965 0.0
C53 C 0.07076 0.11691 0.49715 0.0
C54 C 0.04657 0.09275 0.4966 0.0
Zn55 Zn 0.01998 0.0249 0.49768 0.0
C56 C 0.96546 0.03718 0.40659 0.0
N57 N 0.94882 0.94822 0.49597 0.0
C58 C 0.95893 0.91657 0.49442 0.0
C59 C 0.91651 0.95586 0.49762 0.0
C60 C 0.89294 0.93115 0.49794 0.0
C61 C 0.90268 0.89824 0.49632 0.0
C62 C 0.93622 0.89115 0.49438 0.0
Zn63 Zn 0.98317 0.9846 0.49639 0.0
O64 O 0.04538 0.99852 0.42806 0.0
C65 C 0.03759 0.97234 0.58762 0.0
O66 O 0.00908 0.95901 0.42782 0.0
H67 H 0.90898 0.98117 0.49894 0.0
H68 H 0.0931 0.02561 0.50205 0.0
H69 H 0.98472 0.91098 0.49312 0.0
O70 O 0.047 -6e-05 0.56879 0.0
O71 O 0.01102 0.9601 0.56557 0.0
H72 H 0.02106 0.09968 0.4947 0.0
O73 O 0.95795 0.01092 0.56642 0.0
O74 O 0.99402 0.05071 0.56576 0.0
O75 O 0.95585 0.00968 0.42576 0.0
O76 O 0.99223 0.04928 0.42817 0.0
C77 C 0.96788 0.0388 0.58622 0.0
H78 H 0.13696 0.06641 0.50458 0.0
H79 H 0.06355 0.14231 0.49499 0.0
H80 H 0.8674 0.9378 0.50022 0.0
H81 H 0.94487 0.86618 0.49209 0.0
C82 C 0.46713 0.47126 0.91173 0.0
N83 N 0.55611 0.45034 0.00534 0.0
C84 C 0.54683 0.41843 0.00506 0.0
C85 C 0.57026 0.39366 0.00632 0.0
C86 C 0.60366 0.40172 0.00758 0.0
C87 C 0.61252 0.43489 0.00739 0.0
C88 C 0.58826 0.4589 0.00638 0.0
Zn89 Zn 0.52083 0.48581 0.0052 0.0
C90 C 0.5353 0.53957 0.9186 0.0
N91 N 0.4467 0.55946 0.00515 0.0
C92 C 0.41483 0.55007 0.00582 0.0
C93 C 0.45517 0.59161 0.0064 0.0
C94 C 0.43112 0.61576 0.00887 0.0
C95 C 0.398 0.60677 0.01039 0.0
C96 C 0.39004 0.57337 0.00861 0.0
Zn97 Zn 0.48224 0.52435 0.00461 0.0
O98 O 0.49415 0.46036 0.93363 0.0
C99 C 0.46795 0.47054 0.09138 0.0
O100 O 0.45627 0.49839 0.93194 0.0
H101 H 0.48065 0.59856 0.00583 0.0
H102 H 0.52116 0.4121 0.0043 0.0
H103 H 0.40861 0.52439 0.00491 0.0
O104 O 0.4948 0.45968 0.07156 0.0
O105 O 0.45709 0.4978 0.07228 0.0
H106 H 0.59514 0.48441 0.00652 0.0
O107 O 0.50884 0.54966 0.07722 0.0
O108 O 0.54693 0.51183 0.07677 0.0
O109 O 0.50807 0.55031 0.93703 0.0
O110 O 0.54629 0.51259 0.9389 0.0
C111 C 0.53609 0.53872 0.09809 0.0
H112 H 0.56225 0.36848 0.00735 0.0
H113 H 0.63793 0.44226 0.00752 0.0
H114 H 0.4384 0.64119 0.00929 0.0
H115 H 0.36492 0.56524 0.01061 0.0
C116 C 0.26036 0.22039 0.56705 0.0
C117 C 0.2634 0.24555 0.52414 0.0
C118 C 0.2339 0.19858 0.56243 0.0
C119 C 0.20971 0.2023 0.51406 0.0
C120 C 0.21246 0.22796 0.471 0.0
C121 C 0.23938 0.24923 0.47638 0.0
C122 C 0.23198 0.17136 0.60892 0.0
C123 C 0.18699 0.23288 0.4192 0.0
C124 C 0.1588 0.12765 0.46762 0.0
C125 C 0.13031 0.13295 0.50099 0.0
C126 C 0.18465 0.15019 0.47091 0.0
C127 C 0.18188 0.17894 0.50802 0.0
C128 C 0.15291 0.18487 0.54065 0.0
C129 C 0.12752 0.16176 0.53692 0.0
C130 C 0.21515 0.14297 0.43546 0.0
C131 C 0.149 0.21534 0.58044 0.0
H132 H 0.27893 0.21758 0.60402 0.0
H133 H 0.24148 0.26881 0.44331 0.0
H134 H 0.20879 0.1731 0.63405 0.0
H135 H 0.23198 0.14738 0.58396 0.0
H136 H 0.25271 0.17194 0.64392 0.0
H137 H 0.19233 0.25444 0.39041 0.0
H138 H 0.18561 0.2109 0.38816 0.0
H139 H 0.16255 0.23616 0.43927 0.0
H140 H 0.16093 0.10577 0.43881 0.0
H141 H 0.10578 0.16591 0.56342 0.0
H142 H 0.2365 0.14131 0.4687 0.0
H143 H 0.22009 0.16315 0.40316 0.0
H144 H 0.21321 0.11977 0.40787 0.0
H145 H 0.16755 0.21559 0.61956 0.0
H146 H 0.12434 0.2171 0.60031 0.0
H147 H 0.15322 0.23736 0.5523 0.0
C148 C 0.26661 0.75211 -0.00417 0.0
C149 C 0.24371 0.74876 0.04255 0.0
C150 C 0.29237 0.72975 0.99016 0.0
C151 C 0.2951 0.70333 0.03188 0.0
C152 C 0.27211 0.69997 0.07929 0.0
C153 C 0.24677 0.72286 0.08423 0.0
C154 C 0.31662 0.73433 0.93944 0.0
C155 C 0.27408 0.672 0.12437 0.0
C156 C 0.34206 0.62797 0.98118 0.0
C157 C 0.37193 0.63197 0.01473 0.0
C158 C 0.31689 0.65102 0.98627 0.0
C159 C 0.32176 0.67894 0.02544 0.0
C160 C 0.35197 0.68339 0.05882 0.0
C161 C 0.37663 0.6598 0.05327 0.0
C162 C 0.28499 0.64538 0.95001 0.0
C163 C 0.35813 0.71292 0.10086 0.0
H164 H 0.26451 0.77224 0.96372 0.0
H165 H 0.22908 0.7203 0.12038 0.0
H166 H 0.34174 0.73623 0.96043 0.0
H167 H 0.31613 0.71277 0.90728 0.0
H168 H 0.31147 0.75653 0.91164 0.0
H169 H 0.25439 0.67299 0.15879 0.0
H170 H 0.27225 0.64841 0.09815 0.0
H171 H 0.29806 0.67232 0.15023 0.0
H172 H 0.33837 0.60684 0.95052 0.0
H173 H 0.39941 0.66289 0.0801 0.0
H174 H 0.27997 0.66604 0.9182 0.0
H175 H 0.26458 0.64436 0.9827 0.0
H176 H 0.28506 0.62237 0.92174 0.0
H177 H 0.35433 0.7356 0.07391 0.0
H178 H 0.38328 0.71325 0.12216 0.0
H179 H 0.34043 0.71333 0.13896 0.0
C180 C 0.78915 0.74126 0.44094 0.0
C181 C 0.76467 0.73886 0.48472 0.0
C182 C 0.81137 0.76739 0.44341 0.0
C183 C 0.80883 0.79187 0.49057 0.0
C184 C 0.78399 0.78968 0.53476 0.0
C185 C 0.76223 0.76311 0.53144 0.0
C186 C 0.83764 0.76875 0.39569 0.0
C187 C 0.78038 0.81543 0.58542 0.0
C188 C 0.88434 0.84307 0.5308 0.0
C189 C 0.87811 0.87141 0.49634 0.0
C190 C 0.8619 0.81713 0.52975 0.0
C191 C 0.83234 0.81964 0.49376 0.0
C192 C 0.82561 0.84834 0.45968 0.0
C193 C 0.84861 0.87382 0.4612 0.0
C194 C 0.86998 0.7869 0.56665 0.0
C195 C 0.79431 0.85196 0.4209 0.0
H196 H 0.791 0.72252 0.40478 0.0
H197 H 0.74322 0.76148 0.56524 0.0
H198 H 0.8354 0.79167 0.36898 0.0
H199 H 0.86212 0.76892 0.41971 0.0
H200 H 0.83632 0.74773 0.36215 0.0
H201 H 0.7596 0.8103 0.61582 0.0
H202 H 0.80313 0.81699 0.61509 0.0
H203 H 0.77654 0.8397 0.56409 0.0
H204 H 0.90679 0.8412 0.55895 0.0
H205 H 0.84375 0.89541 0.4338 0.0
H206 H 0.87076 0.76532 0.53462 0.0
H207 H 0.85063 0.78228 0.60044 0.0
H208 H 0.89385 0.78894 0.59281 0.0
H209 H 0.79312 0.83296 0.38326 0.0
H210 H 0.79219 0.87633 0.39913 0.0
H211 H 0.77292 0.84824 0.45042 0.0
C212 C 0.74936 0.27113 0.98407 0.0
C213 C 0.74665 0.24732 0.02996 0.0
C214 C 0.72674 0.29684 0.97938 0.0
C215 C 0.70075 0.2986 0.02128 0.0
C216 C 0.69797 0.2746 0.06768 0.0
C217 C 0.72108 0.24933 0.07161 0.0
C218 C 0.73066 0.32214 0.92965 0.0
C219 C 0.67047 0.27549 0.11291 0.0
C220 C 0.65746 0.3795 0.04783 0.0
C221 C 0.629 0.37565 0.00979 0.0
C222 C 0.6812 0.3548 0.0514 0.0
C223 C 0.67631 0.32542 0.01644 0.0
C224 C 0.64778 0.32144 0.97766 0.0
C225 C 0.62456 0.34662 0.97462 0.0
C226 C 0.71135 0.36 0.09315 0.0
C227 C 0.64166 0.29044 0.93975 0.0
H228 H 0.76921 0.26981 0.95193 0.0
H229 H 0.719 0.23092 0.1071 0.0
H230 H 0.70862 0.32243 0.89796 0.0
H231 H 0.73301 0.3468 0.9517 0.0
H232 H 0.75242 0.3175 0.9012 0.0
H233 H 0.67176 0.25495 0.14616 0.0
H234 H 0.67115 0.29881 0.1401 0.0
H235 H 0.64658 0.27438 0.08674 0.0
H236 H 0.66091 0.40162 0.07584 0.0
H237 H 0.60294 0.34362 0.94434 0.0
H238 H 0.73364 0.35678 0.06567 0.0
H239 H 0.71225 0.34145 0.13037 0.0
H240 H 0.71202 0.38467 0.11562 0.0
H241 H 0.66197 0.28614 0.90762 0.0
H242 H 0.61833 0.29125 0.91165 0.0
H243 H 0.64093 0.26925 0.97132 0.0
C244 C 0.15169 0.87318 0.17299 0.0
C245 C 0.13281 0.86688 0.11809 0.0
C246 C 0.13763 0.88773 0.22567 0.0
C247 C 0.10419 0.89669 0.22264 0.0
C248 C 0.0848 0.88913 0.16828 0.0
C249 C 0.09921 0.87383 0.11725 0.0
C250 C 0.15878 0.89454 0.28368 0.0
C251 C 0.04911 0.8985 0.16282 0.0
C252 C 0.05395 0.91768 0.36317 0.0
C253 C 0.05451 0.9519 0.3628 0.0
C254 C 0.07171 0.89928 0.32014 0.0
C255 C 0.0895 0.91557 0.27446 0.0
C256 C 0.09056 0.95017 0.27462 0.0
C257 C 0.07342 0.96794 0.31951 0.0
C258 C 0.07082 0.86247 0.32264 0.0
C259 C 0.10857 0.96843 0.22566 0.0
H260 H 0.17763 0.86785 0.17407 0.0
H261 H 0.08423 0.86812 0.07566 0.0
H262 H 0.16277 0.92123 0.28939 0.0
H263 H 0.14642 0.88614 0.32587 0.0
H264 H 0.18299 0.88239 0.28149 0.0
H265 H 0.03741 0.8905 0.11744 0.0
H266 H 0.03549 0.88756 0.20118 0.0
H267 H 0.04664 0.92542 0.16742 0.0
H268 H 0.03975 0.90527 0.39744 0.0
H269 H 0.07386 0.99441 0.31934 0.0
H270 H 0.09595 0.85238 0.32116 0.0
H271 H 0.05684 0.8525 0.28122 0.0
H272 H 0.05923 0.85372 0.36547 0.0
H273 H 0.1344 0.96033 0.225 0.0
H274 H 0.10809 0.99529 0.23382 0.0
H275 H 0.09731 0.96291 0.17868 0.0
C276 C 0.63615 0.65286 0.68817 0.0
C277 C 0.64212 0.6333 0.6353 0.0
C278 C 0.62083 0.63979 0.74004 0.0
C279 C 0.61074 0.60666 0.73818 0.0
C280 C 0.61779 0.58661 0.68591 0.0
C281 C 0.63389 0.60001 0.63582 0.0
C282 C 0.61462 0.66159 0.79596 0.0
C283 C 0.60724 0.55123 0.68171 0.0
C284 C 0.58876 0.55746 0.87899 0.0
C285 C 0.55453 0.55863 0.87516 0.0
C286 C 0.60751 0.57487 0.8372 0.0
C287 C 0.59157 0.59288 0.7892 0.0
C288 C 0.55697 0.59466 0.78601 0.0
C289 C 0.53885 0.57789 0.82977 0.0
C290 C 0.64434 0.57323 0.84334 0.0
C291 C 0.53905 0.6129 0.73451 0.0
H292 H 0.64248 0.67856 0.68826 0.0
H293 H 0.63939 0.58443 0.59607 0.0
H294 H 0.58801 0.66623 0.79884 0.0
H295 H 0.62275 0.64944 0.83979 0.0
H296 H 0.62738 0.68545 0.79334 0.0
H297 H 0.61453 0.53904 0.63754 0.0
H298 H 0.61808 0.53754 0.72162 0.0
H299 H 0.58027 0.54957 0.68451 0.0
H300 H 0.60089 0.543 0.9149 0.0
H301 H 0.51237 0.5788 0.82696 0.0
H302 H 0.65505 0.59806 0.84096 0.0
H303 H 0.65391 0.55857 0.80394 0.0
H304 H 0.65285 0.56195 0.8879 0.0
H305 H 0.54801 0.63842 0.73297 0.0
H306 H 0.5122 0.61331 0.74051 0.0
H307 H 0.54394 0.60115 0.68863 0.0
C308 C 0.90178 0.13277 0.11341 0.0
C309 C 0.86822 0.13979 0.10878 0.0
C310 C 0.91555 0.11707 0.16555 0.0
C311 C 0.89554 0.1092 0.21569 0.0
C312 C 0.86205 0.11798 0.21331 0.0
C313 C 0.84865 0.1329 0.15948 0.0
C314 C 0.95133 0.10793 0.16589 0.0
C315 C 0.84024 0.11086 0.26686 0.0
C316 C 0.9269 0.03884 0.31381 0.0
C317 C 0.94544 0.05542 0.36057 0.0
C318 C 0.90949 0.05612 0.26736 0.0
C319 C 0.90987 0.09074 0.26917 0.0
C320 C 0.92706 0.10752 0.31851 0.0
C321 C 0.94515 0.08964 0.36305 0.0
C322 C 0.89216 0.03735 0.2146 0.0
C323 C 0.92719 0.14436 0.32319 0.0
H324 H 0.91734 0.13897 0.07539 0.0
H325 H 0.82272 0.13826 0.15638 0.0
H326 H 0.96448 0.11944 0.2068 0.0
H327 H 0.954 0.08108 0.17026 0.0
H328 H 0.96338 0.11555 0.12274 0.0
H329 H 0.81585 0.1225 0.26082 0.0
H330 H 0.83676 0.08411 0.27041 0.0
H331 H 0.85184 0.11963 0.31177 0.0
H332 H 0.92713 0.01236 0.31205 0.0
H333 H 0.95907 0.10244 0.39997 0.0
H334 H 0.90396 0.04254 0.1699 0.0
H335 H 0.86632 0.0453 0.2095 0.0
H336 H 0.8927 0.01056 0.2219 0.0
H337 H 0.94168 0.15447 0.28517 0.0
H338 H 0.93788 0.15342 0.36872 0.0
H339 H 0.90195 0.15399 0.31727 0.0
C340 C 0.35409 0.37087 0.65905 0.0
C341 C 0.37359 0.36464 0.60755 0.0
C342 C 0.36732 0.38613 0.7137 0.0
C343 C 0.40054 0.39596 0.71608 0.0
C344 C 0.42053 0.38869 0.66512 0.0
C345 C 0.40697 0.37261 0.61214 0.0
C346 C 0.34557 0.39256 0.76807 0.0
C347 C 0.456 0.39902 0.66544 0.0
C348 C 0.42921 0.46777 0.81805 0.0
C349 C 0.44824 0.45208 0.86414 0.0
C350 C 0.41267 0.44968 0.77043 0.0
C351 C 0.41443 0.41512 0.77032 0.0
C352 C 0.43223 0.39916 0.81878 0.0
C353 C 0.44943 0.41788 0.86456 0.0
C354 C 0.39465 0.46761 0.71862 0.0
C355 C 0.43382 0.36236 0.82138 0.0
H356 H 0.3283 0.36483 0.65599 0.0
H357 H 0.42249 0.36695 0.57338 0.0
H358 H 0.3577 0.38439 0.81232 0.0
H359 H 0.34112 0.41917 0.77307 0.0
H360 H 0.3216 0.37997 0.76185 0.0
H361 H 0.46814 0.39153 0.62183 0.0
H362 H 0.45781 0.42597 0.67087 0.0
H363 H 0.46964 0.38823 0.70575 0.0
H364 H 0.42831 0.49423 0.81786 0.0
H365 H 0.46374 0.40575 0.90094 0.0
H366 H 0.36905 0.45884 0.71352 0.0
H367 H 0.40644 0.46251 0.67354 0.0
H368 H 0.39443 0.49445 0.72706 0.0
H369 H 0.40894 0.35172 0.81546 0.0
H370 H 0.44512 0.35384 0.86618 0.0
H371 H 0.44843 0.35276 0.78245 0.0
C372 C 0.63714 0.65129 0.35004 0.0
C373 C 0.64268 0.63208 0.40305 0.0
C374 C 0.62198 0.63796 0.29532 0.0
C375 C 0.61159 0.60494 0.29435 0.0
C376 C 0.61816 0.58522 0.34691 0.0
C377 C 0.63412 0.59887 0.40003 0.0
C378 C 0.61623 0.6594 0.23932 0.0
C379 C 0.60723 0.54997 0.34809 0.0
C380 C 0.5398 0.57686 0.19014 0.0
C381 C 0.55541 0.55736 0.14588 0.0
C382 C 0.55792 0.59335 0.23782 0.0
C383 C 0.59248 0.59103 0.23988 0.0
C384 C 0.6084 0.57268 0.19329 0.0
C385 C 0.58962 0.55559 0.14739 0.0
C386 C 0.54001 0.61197 0.2876 0.0
C387 C 0.64522 0.57045 0.19284 0.0
H388 H 0.64366 0.67695 0.35191 0.0
H389 H 0.63924 0.58357 0.44006 0.0
H390 H 0.62452 0.64687 0.19629 0.0
H391 H 0.58969 0.6642 0.23246 0.0
H392 H 0.62915 0.6832 0.24489 0.0
H393 H 0.61431 0.53801 0.39278 0.0
H394 H 0.58024 0.54859 0.34137 0.0
H395 H 0.61797 0.53591 0.30913 0.0
H396 H 0.51333 0.57822 0.18887 0.0
H397 H 0.60172 0.54093 0.11242 0.0
H398 H 0.54918 0.63743 0.2917 0.0
H399 H 0.54467 0.60042 0.33362 0.0
H400 H 0.51319 0.61258 0.27769 0.0
H401 H 0.65626 0.59516 0.19772 0.0
H402 H 0.65381 0.55864 0.14926 0.0
H403 H 0.65436 0.55605 0.23326 0.0
C404 C 0.90422 0.1354 0.87797 0.0
C405 C 0.87065 0.14249 0.87684 0.0
C406 C 0.91871 0.12013 0.82697 0.0
C407 C 0.89943 0.11269 0.77242 0.0
C408 C 0.86601 0.12174 0.76916 0.0
C409 C 0.85189 0.1363 0.82175 0.0
C410 C 0.95438 0.11068 0.83264 0.0
C411 C 0.84496 0.11504 0.71098 0.0
C412 C 0.94954 0.09187 0.63156 0.0
C413 C 0.94885 0.05764 0.63158 0.0
C414 C 0.93195 0.11021 0.67493 0.0
C415 C 0.91417 0.09387 0.72055 0.0
C416 C 0.913 0.05928 0.72008 0.0
C417 C 0.93 0.04156 0.6749 0.0
C418 C 0.93298 0.14704 0.6728 0.0
C419 C 0.89497 0.04095 0.76893 0.0
H420 H 0.91913 0.14103 0.91969 0.0
H421 H 0.82596 0.14173 0.82044 0.0
H422 H 0.95678 0.08375 0.828 0.0
H423 H 0.96808 0.1216 0.79439 0.0
H424 H 0.96601 0.11864 0.8781 0.0
H425 H 0.82072 0.12711 0.71313 0.0
H426 H 0.85738 0.12358 0.66896 0.0
H427 H 0.84106 0.08834 0.70497 0.0
H428 H 0.96371 0.10433 0.59732 0.0
H429 H 0.92947 0.01508 0.67484 0.0
H430 H 0.94687 0.15686 0.71446 0.0
H431 H 0.90788 0.15719 0.67414 0.0
H432 H 0.94471 0.15587 0.63019 0.0
H433 H 0.90623 0.04639 0.81595 0.0
H434 H 0.89543 0.0141 0.76063 0.0
H435 H 0.86915 0.04907 0.76963 0.0
C436 C 0.40711 0.37189 0.37573 0.0
C437 C 0.37365 0.36426 0.37513 0.0
C438 C 0.42091 0.38766 0.32557 0.0
C439 C 0.40107 0.39495 0.27217 0.0
C440 C 0.36779 0.38535 0.2692 0.0
C441 C 0.35432 0.37039 0.32111 0.0
C442 C 0.45644 0.39774 0.33096 0.0
C443 C 0.3462 0.3918 0.21208 0.0
C444 C 0.43014 0.46685 0.1797 0.0
C445 C 0.44921 0.45123 0.13516 0.0
C446 C 0.41347 0.44871 0.22357 0.0
C447 C 0.41513 0.41415 0.22134 0.0
C448 C 0.43303 0.39826 0.17429 0.0
C449 C 0.45036 0.41704 0.13237 0.0
C450 C 0.39536 0.46658 0.27407 0.0
C451 C 0.43451 0.36147 0.16916 0.0
H452 H 0.42249 0.36625 0.41641 0.0
H453 H 0.32848 0.36453 0.32013 0.0
H454 H 0.47006 0.38696 0.29176 0.0
H455 H 0.45843 0.42469 0.32782 0.0
H456 H 0.46849 0.39008 0.37571 0.0
H457 H 0.32223 0.37918 0.21391 0.0
H458 H 0.34172 0.41841 0.2083 0.0
H459 H 0.35846 0.38369 0.16905 0.0
H460 H 0.42925 0.49332 0.1817 0.0
H461 H 0.46469 0.40496 0.09711 0.0
H462 H 0.40695 0.46128 0.3205 0.0
H463 H 0.3697 0.45794 0.27465 0.0
H464 H 0.39531 0.49345 0.2677 0.0
H465 H 0.44899 0.35172 0.20948 0.0
H466 H 0.4459 0.35301 0.12536 0.0
H467 H 0.40959 0.35089 0.17066 0.0
C468 C 0.10136 0.87782 0.88187 0.0
C469 C 0.13487 0.87051 0.88624 0.0
C470 C 0.08761 0.8935 0.82972 0.0
C471 C 0.10755 0.90103 0.77931 0.0
C472 C 0.14099 0.89207 0.78152 0.0
C473 C 0.15439 0.87718 0.83538 0.0
C474 C 0.05189 0.90288 0.82955 0.0
C475 C 0.16271 0.89885 0.72768 0.0
C476 C 0.05775 0.92002 0.63197 0.0
C477 C 0.05759 0.95424 0.63385 0.0
C478 C 0.07585 0.9023 0.67671 0.0
C479 C 0.09321 0.91927 0.72561 0.0
C480 C 0.09373 0.95388 0.72679 0.0
C481 C 0.07628 0.97098 0.68017 0.0
C482 C 0.07555 0.86544 0.67277 0.0
C483 C 0.11125 0.97284 0.77908 0.0
H484 H 0.08581 0.87177 0.92 0.0
H485 H 0.18027 0.87162 0.83828 0.0
H486 H 0.04937 0.92971 0.82459 0.0
H487 H 0.03856 0.8912 0.78903 0.0
H488 H 0.03991 0.89562 0.87301 0.0
H489 H 0.18713 0.88727 0.73385 0.0
H490 H 0.15106 0.88979 0.68304 0.0
H491 H 0.16616 0.92558 0.72346 0.0
H492 H 0.04372 0.90708 0.59537 0.0
H493 H 0.07615 0.99747 0.68146 0.0
H494 H 0.06111 0.85562 0.71114 0.0
H495 H 0.10075 0.85573 0.67863 0.0
H496 H 0.0647 0.85619 0.6275 0.0
H497 H 0.09948 0.968 0.82395 0.0
H498 H 0.11086 0.99959 0.7712 0.0
H499 H 0.13704 0.96477 0.78421 0.0
loop_
_geom_bond_atom_site_label_1
_geom_bond_atom_site_label_2
_geom_bond_distance
_geom_bond_site_symmetry_2
_ccdc_geom_bond_type
H0 C5 0.930 . S
H1 C8 0.930 . S
H2 C10 0.930 . S
H3 C4 1.016 . S
C4 H3 1.016 . S
C4 N11 1.286 1_554 S
C5 H0 0.930 . S
C5 C6 1.397 . S
C5 C7 1.361 1_556 S
C6 C5 1.397 . S
C6 C10 1.390 1_556 S
C7 C5 1.361 1_554 S
C7 C8 1.393 . S
C7 N11 1.413 1_554 S
C8 H1 0.930 . S
C8 C7 1.393 . S
C8 C9 1.399 . S
C9 C8 1.399 . S
C9 C10 1.381 . S
C10 H2 0.930 . S
C10 C6 1.390 1_554 S
C10 C9 1.381 . S
N11 C4 1.286 1_556 S
N11 C7 1.413 1_556 S
H12 C17 0.930 . S
H13 C20 0.930 . S
H14 C22 0.930 . S
H15 C16 1.016 . S
C16 H15 1.016 . S
C16 N23 1.286 . S
C17 H12 0.930 . S
C17 C18 1.397 . S
C17 C19 1.361 . S
C18 C17 1.397 . S
C18 C22 1.390 . S
C19 C17 1.361 . S
C19 C20 1.393 . S
C19 N23 1.413 . S
C20 H13 0.930 . S
C20 C19 1.393 . S
C20 C21 1.399 . S
C21 C20 1.399 . S
C21 C22 1.381 . S
C22 H14 0.930 . S
C22 C18 1.390 . S
C22 C21 1.381 . S
N23 C16 1.286 . S
N23 C19 1.413 . S
H24 C29 0.930 . S
H25 C32 0.930 . S
H26 C34 0.931 . S
H27 C28 1.016 . S
C28 H27 1.016 . S
C28 N35 1.286 1_554 S
C29 H24 0.930 . S
C29 C30 1.397 . S
C29 C31 1.361 . S
C30 C29 1.397 . S
C30 C34 1.377 1_556 S
C31 C29 1.361 . S
C31 C32 1.393 1_556 S
C31 N35 1.413 . S
C32 H25 0.930 . S
C32 C31 1.393 1_554 S
C32 C33 1.399 . S
C33 C32 1.399 . S
C33 C34 1.393 . S
C34 H26 0.931 . S
C34 C30 1.377 1_554 S
C34 C33 1.393 . S
N35 C28 1.286 1_556 S
N35 C31 1.413 . S
H36 C41 0.930 . S
H37 C44 0.930 . S
H38 C46 0.930 . S
H39 C40 1.016 . S
C40 H39 1.016 . S
C40 N47 1.286 . S
C41 H36 0.930 . S
C41 C42 1.397 . S
C41 C43 1.361 . S
C42 C41 1.397 . S
C42 C46 1.390 . S
C43 C41 1.361 . S
C43 C44 1.393 . S
C43 N47 1.413 . S
C44 H37 0.930 . S
C44 C43 1.393 . S
C44 C45 1.399 . S
C45 C44 1.399 . S
C45 C46 1.381 . S
C46 H38 0.930 . S
C46 C42 1.390 . S
C46 C45 1.381 . S
N47 C40 1.286 . S
N47 C43 1.413 . S
C48 O64 1.267 . S
C48 O66 1.254 . S
N49 C50 1.333 . S
N49 C54 1.307 . S
N49 Zn55 2.020 . S
C50 N49 1.333 . S
C50 C51 1.379 . S
C50 H68 0.952 . S
C51 C50 1.379 . S
C51 C52 1.390 . S
C51 H78 0.949 . S
C52 C51 1.390 . S
C52 C53 1.357 . S
C53 C52 1.357 . S
C53 C54 1.370 . S
C53 H79 0.950 . S
C54 N49 1.307 . S
C54 C53 1.370 . S
C54 H72 0.948 . S
Zn55 N49 2.020 . S
Zn55 O64 2.028 1_545 S
Zn55 O70 2.034 1_545 S
Zn55 O74 2.025 1_455 S
Zn55 O76 2.024 1_455 S
C56 O75 1.246 . S
C56 O76 1.249 . S
N57 C58 1.307 . S
N57 C59 1.333 . S
N57 Zn63 2.020 . S
C58 N57 1.307 . S
C58 C62 1.370 . S
C58 H69 0.948 . S
C59 N57 1.333 . S
C59 C60 1.379 . S
C59 H67 0.952 . S
C60 C59 1.379 . S
C60 C61 1.390 . S
C60 H80 0.949 . S
C61 C60 1.390 . S
C61 C62 1.357 . S
C62 C58 1.370 . S
C62 C61 1.357 . S
C62 H81 0.950 . S
Zn63 N57 2.020 . S
Zn63 O66 2.025 1_655 S
Zn63 O71 2.024 1_655 S
Zn63 O73 2.039 1_565 S
Zn63 O75 2.034 1_565 S
O64 C48 1.267 . S
O64 Zn55 2.028 1_565 S
C65 O70 1.246 . S
C65 O71 1.249 . S
O66 C48 1.254 . S
O66 Zn63 2.025 1_455 S
H67 C59 0.952 . S
H68 C50 0.952 . S
H69 C58 0.948 . S
O70 Zn55 2.034 1_565 S
O70 C65 1.246 . S
O71 Zn63 2.024 1_455 S
O71 C65 1.249 . S
H72 C54 0.948 . S
O73 Zn63 2.039 1_545 S
O73 C77 1.251 . S
O74 Zn55 2.025 1_655 S
O74 C77 1.254 . S
O75 C56 1.246 . S
O75 Zn63 2.034 1_545 S
O76 Zn55 2.024 1_655 S
O76 C56 1.249 . S
C77 O73 1.251 . S
C77 O74 1.254 . S
H78 C51 0.949 . S
H79 C53 0.950 . S
H80 C60 0.949 . S
H81 C62 0.950 . S
C82 O98 1.251 . S
C82 O100 1.254 . S
N83 C84 1.333 . S
N83 C88 1.307 . S
N83 Zn89 2.020 . S
C84 N83 1.333 . S
C84 C85 1.379 1_554 S
C84 H102 0.952 1_554 S
C85 C84 1.379 1_556 S
C85 C86 1.388 1_556 S
C85 H112 0.951 . S
C86 C85 1.388 1_554 S
C86 C87 1.357 . S
C87 C86 1.357 . S
C87 C88 1.370 . S
C87 H113 0.950 . S
C88 N83 1.307 . S
C88 C87 1.370 . S
C88 H106 0.948 . S
Zn89 N83 2.020 . S
Zn89 O98 2.039 1_554 S
Zn89 O104 2.034 . S
Zn89 O108 2.025 . S
Zn89 O110 2.024 1_554 S
C90 O109 1.246 . S
C90 O110 1.249 . S
N91 C92 1.307 . S
N91 C93 1.333 . S
N91 Zn97 2.020 . S
C92 N91 1.307 . S
C92 C96 1.370 . S
C92 H103 0.948 1_554 S
C93 N91 1.333 . S
C93 C94 1.379 . S
C93 H101 0.952 . S
C94 C93 1.379 . S
C94 C95 1.390 . S
C94 H114 0.949 . S
C95 C94 1.390 . S
C95 C96 1.357 . S
C96 C92 1.370 . S
C96 C95 1.357 . S
C96 H115 0.950 1_554 S
Zn97 N91 2.020 . S
Zn97 O100 2.025 1_554 S
Zn97 O105 2.024 . S
Zn97 O107 2.039 . S
Zn97 O109 2.034 1_554 S
O98 C82 1.251 . S
O98 Zn89 2.039 1_556 S
C99 O104 1.246 . S
C99 O105 1.249 . S
O100 C82 1.254 . S
O100 Zn97 2.025 1_556 S
H101 C93 0.952 . S
H102 C84 0.952 1_556 S
H103 C92 0.948 1_556 S
O104 Zn89 2.034 . S
O104 C99 1.246 . S
O105 Zn97 2.024 . S
O105 C99 1.249 . S
H106 C88 0.948 . S
O107 Zn97 2.039 . S
O107 C111 1.251 . S
O108 Zn89 2.025 . S
O108 C111 1.254 . S
O109 C90 1.246 . S
O109 Zn97 2.034 1_556 S
O110 Zn89 2.024 1_556 S
O110 C90 1.249 . S
C111 O107 1.251 . S
C111 O108 1.254 . S
H112 C85 0.951 . S
H113 C87 0.950 . S
H114 C94 0.949 . S
H115 C96 0.950 1_556 S
C116 C117 1.391 . S
C116 C118 1.394 . S
C116 H132 0.931 . S
C117 C116 1.391 . S
C117 C121 1.376 . S
C118 C116 1.394 . S
C118 C119 1.369 . S
C118 C122 1.531 . S
C119 C118 1.369 . S
C119 C120 1.410 . S
C119 C127 1.503 . S
C120 C119 1.410 . S
C120 C121 1.392 . S
C120 C123 1.511 . S
C121 C117 1.376 . S
C121 C120 1.392 . S
C121 H133 0.929 . S
C122 C118 1.531 . S
C122 H134 0.960 . S
C122 H135 0.962 . S
C122 H136 0.960 . S
C123 C120 1.511 . S
C123 H137 0.961 . S
C123 H138 0.961 . S
C123 H139 0.961 . S
C124 C125 1.370 . S
C124 C126 1.363 . S
C124 H140 0.931 . S
C125 C124 1.370 . S
C125 C129 1.408 . S
C126 C124 1.363 . S
C126 C127 1.370 . S
C126 C130 1.524 . S
C127 C119 1.503 . S
C127 C126 1.370 . S
C127 C128 1.403 . S
C128 C127 1.403 . S
C128 C129 1.404 . S
C128 C131 1.539 . S
C129 C125 1.408 . S
C129 C128 1.404 . S
C129 H141 0.930 . S
C130 C126 1.524 . S
C130 H142 0.956 . S
C130 H143 0.961 . S
C130 H144 0.961 . S
C131 C128 1.539 . S
C131 H145 0.958 . S
C131 H146 0.961 . S
C131 H147 0.960 . S
H132 C116 0.931 . S
H133 C121 0.929 . S
H134 C122 0.960 . S
H135 C122 0.962 . S
H136 C122 0.960 . S
H137 C123 0.961 . S
H138 C123 0.961 . S
H139 C123 0.961 . S
H140 C124 0.931 . S
H141 C129 0.930 . S
H142 C130 0.956 . S
H143 C130 0.961 . S
H144 C130 0.961 . S
H145 C131 0.958 . S
H146 C131 0.961 . S
H147 C131 0.960 . S
C148 C149 1.391 1_556 S
C148 C150 1.394 . S
C148 H164 0.931 . S
C149 C148 1.391 1_554 S
C149 C153 1.376 . S
C150 C148 1.394 . S
C150 C151 1.369 1_556 S
C150 C154 1.531 . S
C151 C150 1.369 1_554 S
C151 C152 1.410 . S
C151 C159 1.503 . S
C152 C151 1.410 . S
C152 C153 1.392 . S
C152 C155 1.511 . S
C153 C149 1.376 . S
C153 C152 1.392 . S
C153 H165 0.929 . S
C154 C150 1.531 . S
C154 H166 0.960 . S
C154 H167 0.962 . S
C154 H168 0.960 . S
C155 C152 1.511 . S
C155 H169 0.961 . S
C155 H170 0.961 . S
C155 H171 0.961 . S
C156 C157 1.370 . S
C156 C158 1.363 . S
C156 H172 0.931 1_554 S
C157 C156 1.370 . S
C157 C161 1.408 . S
C158 C156 1.363 . S
C158 C159 1.370 . S
C158 C162 1.524 1_554 S
C159 C151 1.503 . S
C159 C158 1.370 . S
C159 C160 1.403 . S
C160 C159 1.403 . S
C160 C161 1.404 . S
C160 C163 1.539 . S
C161 C157 1.408 . S
C161 C160 1.404 . S
C161 H173 0.930 . S
C162 C158 1.524 1_556 S
C162 H174 0.956 . S
C162 H175 0.961 1_556 S
C162 H176 0.961 . S
C163 C160 1.539 . S
C163 H177 0.958 . S
C163 H178 0.961 . S
C163 H179 0.960 . S
H164 C148 0.931 . S
H165 C153 0.929 . S
H166 C154 0.960 . S
H167 C154 0.962 . S
H168 C154 0.960 . S
H169 C155 0.961 . S
H170 C155 0.961 . S
H171 C155 0.961 . S
H172 C156 0.931 1_556 S
H173 C161 0.930 . S
H174 C162 0.956 . S
H175 C162 0.961 1_554 S
H176 C162 0.961 . S
H177 C163 0.958 . S
H178 C163 0.961 . S
H179 C163 0.960 . S
C180 C181 1.391 . S
C180 C182 1.394 . S
C180 H196 0.931 . S
C181 C180 1.391 . S
C181 C185 1.376 . S
C182 C180 1.394 . S
C182 C183 1.369 . S
C182 C186 1.531 . S
C183 C182 1.369 . S
C183 C184 1.410 . S
C183 C191 1.503 . S
C184 C183 1.410 . S
C184 C185 1.392 . S
C184 C187 1.511 . S
C185 C181 1.376 . S
C185 C184 1.392 . S
C185 H197 0.929 . S
C186 C182 1.531 . S
C186 H198 0.960 . S
C186 H199 0.962 . S
C186 H200 0.960 . S
C187 C184 1.511 . S
C187 H201 0.961 . S
C187 H202 0.961 . S
C187 H203 0.961 . S
C188 C189 1.370 . S
C188 C190 1.363 . S
C188 H204 0.931 . S
C189 C188 1.370 . S
C189 C193 1.408 . S
C190 C188 1.363 . S
C190 C191 1.370 . S
C190 C194 1.524 . S
C191 C183 1.503 . S
C191 C190 1.370 . S
C191 C192 1.403 . S
C192 C191 1.403 . S
C192 C193 1.404 . S
C192 C195 1.539 . S
C193 C189 1.408 . S
C193 C192 1.404 . S
C193 H205 0.930 . S
C194 C190 1.524 . S
C194 H206 0.956 . S
C194 H207 0.961 . S
C194 H208 0.961 . S
C195 C192 1.539 . S
C195 H209 0.958 . S
C195 H210 0.961 . S
C195 H211 0.960 . S
H196 C180 0.931 . S
H197 C185 0.929 . S
H198 C186 0.960 . S
H199 C186 0.962 . S
H200 C186 0.960 . S
H201 C187 0.961 . S
H202 C187 0.961 . S
H203 C187 0.961 . S
H204 C188 0.931 . S
H205 C193 0.930 . S
H206 C194 0.956 . S
H207 C194 0.961 . S
H208 C194 0.961 . S
H209 C195 0.958 . S
H210 C195 0.961 . S
H211 C195 0.960 . S
C212 C213 1.391 . S
C212 C214 1.394 . S
C212 H228 0.931 . S
C213 C212 1.391 . S
C213 C217 1.376 1_554 S
C214 C212 1.394 . S
C214 C215 1.368 1_554 S
C214 C218 1.531 . S
C215 C214 1.368 1_556 S
C215 C216 1.411 . S
C215 C223 1.503 1_556 S
C216 C215 1.411 . S
C216 C217 1.392 . S
C216 C219 1.511 . S
C217 C213 1.376 1_556 S
C217 C216 1.392 . S
C217 H229 0.929 . S
C218 C214 1.531 . S
C218 H230 0.960 1_554 S
C218 H231 0.962 . S
C218 H232 0.960 . S
C219 C216 1.511 . S
C219 H233 0.961 . S
C219 H234 0.961 . S
C219 H235 0.961 . S
C220 C221 1.370 . S
C220 C222 1.363 . S
C220 H236 0.931 . S
C221 C220 1.370 . S
C221 C225 1.408 1_554 S
C222 C220 1.363 . S
C222 C223 1.370 . S
C222 C226 1.524 . S
C223 C215 1.503 1_554 S
C223 C222 1.370 . S
C223 C224 1.403 1_554 S
C224 C223 1.403 1_556 S
C224 C225 1.404 . S
C224 C227 1.539 . S
C225 C221 1.408 1_556 S
C225 C224 1.404 . S
C225 H237 0.930 . S
C226 C222 1.524 . S
C226 H238 0.956 . S
C226 H239 0.961 . S
C226 H240 0.961 . S
C227 C224 1.539 . S
C227 H241 0.958 . S
C227 H242 0.961 . S
C227 H243 0.960 . S
H228 C212 0.931 . S
H229 C217 0.929 . S
H230 C218 0.960 1_556 S
H231 C218 0.962 . S
H232 C218 0.960 . S
H233 C219 0.961 . S
H234 C219 0.961 . S
H235 C219 0.961 . S
H236 C220 0.931 . S
H237 C225 0.930 . S
H238 C226 0.956 . S
H239 C226 0.961 . S
H240 C226 0.961 . S
H241 C227 0.958 . S
H242 C227 0.961 . S
H243 C227 0.960 . S
C244 C245 1.391 . S
C244 C246 1.394 . S
C244 H260 0.931 . S
C245 C244 1.391 . S
C245 C249 1.376 . S
C246 C244 1.394 . S
C246 C247 1.369 . S
C246 C250 1.531 . S
C247 C246 1.369 . S
C247 C248 1.410 . S
C247 C255 1.503 . S
C248 C247 1.410 . S
C248 C249 1.392 . S
C248 C251 1.511 . S
C249 C245 1.376 . S
C249 C248 1.392 . S
C249 H261 0.929 . S
C250 C246 1.531 . S
C250 H262 0.960 . S
C250 H263 0.962 . S
C250 H264 0.960 . S
C251 C248 1.511 . S
C251 H265 0.961 . S
C251 H266 0.961 . S
C251 H267 0.961 . S
C252 C253 1.370 . S
C252 C254 1.363 . S
C252 H268 0.931 . S
C253 C252 1.370 . S
C253 C257 1.408 . S
C254 C252 1.363 . S
C254 C255 1.370 . S
C254 C258 1.524 . S
C255 C247 1.503 . S
C255 C254 1.370 . S
C255 C256 1.403 . S
C256 C255 1.403 . S
C256 C257 1.404 . S
C256 C259 1.539 . S
C257 C253 1.408 . S
C257 C256 1.404 . S
C257 H269 0.930 . S
C258 C254 1.524 . S
C258 H270 0.956 . S
C258 H271 0.961 . S
C258 H272 0.961 . S
C259 C256 1.539 . S
C259 H273 0.958 . S
C259 H274 0.961 . S
C259 H275 0.960 . S
H260 C244 0.931 . S
H261 C249 0.929 . S
H262 C250 0.960 . S
H263 C250 0.962 . S
H264 C250 0.960 . S
H265 C251 0.961 . S
H266 C251 0.961 . S
H267 C251 0.961 . S
H268 C252 0.931 . S
H269 C257 0.930 . S
H270 C258 0.956 . S
H271 C258 0.961 . S
H272 C258 0.961 . S
H273 C259 0.958 . S
H274 C259 0.961 . S
H275 C259 0.960 . S
C276 C277 1.391 . S
C276 C278 1.394 . S
C276 H292 0.931 . S
C277 C276 1.391 . S
C277 C281 1.376 . S
C278 C276 1.394 . S
C278 C279 1.369 . S
C278 C282 1.531 . S
C279 C278 1.369 . S
C279 C280 1.410 . S
C279 C287 1.503 . S
C280 C279 1.410 . S
C280 C281 1.392 . S
C280 C283 1.511 . S
C281 C277 1.376 . S
C281 C280 1.392 . S
C281 H293 0.929 . S
C282 C278 1.531 . S
C282 H294 0.960 . S
C282 H295 0.962 . S
C282 H296 0.960 . S
C283 C280 1.511 . S
C283 H297 0.961 . S
C283 H298 0.961 . S
C283 H299 0.961 . S
C284 C285 1.370 . S
C284 C286 1.363 . S
C284 H300 0.931 . S
C285 C284 1.370 . S
C285 C289 1.408 . S
C286 C284 1.363 . S
C286 C287 1.370 . S
C286 C290 1.524 . S
C287 C279 1.503 . S
C287 C286 1.370 . S
C287 C288 1.403 . S
C288 C287 1.403 . S
C288 C289 1.404 . S
C288 C291 1.539 . S
C289 C285 1.408 . S
C289 C288 1.404 . S
C289 H301 0.930 . S
C290 C286 1.524 . S
C290 H302 0.956 . S
C290 H303 0.961 . S
C290 H304 0.961 . S
C291 C288 1.539 . S
C291 H305 0.958 . S
C291 H306 0.961 . S
C291 H307 0.960 . S
H292 C276 0.931 . S
H293 C281 0.929 . S
H294 C282 0.960 . S
H295 C282 0.962 . S
H296 C282 0.960 . S
H297 C283 0.961 . S
H298 C283 0.961 . S
H299 C283 0.961 . S
H300 C284 0.931 . S
H301 C289 0.930 . S
H302 C290 0.956 . S
H303 C290 0.961 . S
H304 C290 0.961 . S
H305 C291 0.958 . S
H306 C291 0.961 . S
H307 C291 0.960 . S
C308 C309 1.391 . S
C308 C310 1.394 . S
C308 H324 0.931 . S
C309 C308 1.391 . S
C309 C313 1.376 . S
C310 C308 1.394 . S
C310 C311 1.369 . S
C310 C314 1.531 . S
C311 C310 1.369 . S
C311 C312 1.410 . S
C311 C319 1.503 . S
C312 C311 1.410 . S
C312 C313 1.392 . S
C312 C315 1.511 . S
C313 C309 1.376 . S
C313 C312 1.392 . S
C313 H325 0.929 . S
C314 C310 1.531 . S
C314 H326 0.960 . S
C314 H327 0.962 . S
C314 H328 0.960 . S
C315 C312 1.511 . S
C315 H329 0.961 . S
C315 H330 0.961 . S
C315 H331 0.961 . S
C316 C317 1.370 . S
C316 C318 1.363 . S
C316 H332 0.931 . S
C317 C316 1.370 . S
C317 C321 1.408 . S
C318 C316 1.363 . S
C318 C319 1.370 . S
C318 C322 1.524 . S
C319 C311 1.503 . S
C319 C318 1.370 . S
C319 C320 1.403 . S
C320 C319 1.403 . S
C320 C321 1.404 . S
C320 C323 1.539 . S
C321 C317 1.408 . S
C321 C320 1.404 . S
C321 H333 0.930 . S
C322 C318 1.524 . S
C322 H334 0.956 . S
C322 H335 0.961 . S
C322 H336 0.961 . S
C323 C320 1.539 . S
C323 H337 0.958 . S
C323 H338 0.961 . S
C323 H339 0.960 . S
H324 C308 0.931 . S
H325 C313 0.929 . S
H326 C314 0.960 . S
H327 C314 0.962 . S
H328 C314 0.960 . S
H329 C315 0.961 . S
H330 C315 0.961 . S
H331 C315 0.961 . S
H332 C316 0.931 . S
H333 C321 0.930 . S
H334 C322 0.956 . S
H335 C322 0.961 . S
H336 C322 0.961 . S
H337 C323 0.958 . S
H338 C323 0.961 . S
H339 C323 0.960 . S
C340 C341 1.391 . S
C340 C342 1.394 . S
C340 H356 0.931 . S
C341 C340 1.391 . S
C341 C345 1.376 . S
C342 C340 1.394 . S
C342 C343 1.369 . S
C342 C346 1.531 . S
C343 C342 1.369 . S
C343 C344 1.410 . S
C343 C351 1.503 . S
C344 C343 1.410 . S
C344 C345 1.392 . S
C344 C347 1.511 . S
C345 C341 1.376 . S
C345 C344 1.392 . S
C345 H357 0.929 . S
C346 C342 1.531 . S
C346 H358 0.960 . S
C346 H359 0.962 . S
C346 H360 0.960 . S
C347 C344 1.511 . S
C347 H361 0.961 . S
C347 H362 0.961 . S
C347 H363 0.961 . S
C348 C349 1.370 . S
C348 C350 1.363 . S
C348 H364 0.931 . S
C349 C348 1.370 . S
C349 C353 1.408 . S
C350 C348 1.363 . S
C350 C351 1.370 . S
C350 C354 1.524 . S
C351 C343 1.503 . S
C351 C350 1.370 . S
C351 C352 1.403 . S
C352 C351 1.403 . S
C352 C353 1.404 . S
C352 C355 1.539 . S
C353 C349 1.408 . S
C353 C352 1.404 . S
C353 H365 0.930 . S
C354 C350 1.524 . S
C354 H366 0.956 . S
C354 H367 0.961 . S
C354 H368 0.961 . S
C355 C352 1.539 . S
C355 H369 0.958 . S
C355 H370 0.961 . S
C355 H371 0.960 . S
H356 C340 0.931 . S
H357 C345 0.929 . S
H358 C346 0.960 . S
H359 C346 0.962 . S
H360 C346 0.960 . S
H361 C347 0.961 . S
H362 C347 0.961 . S
H363 C347 0.961 . S
H364 C348 0.931 . S
H365 C353 0.930 . S
H366 C354 0.956 . S
H367 C354 0.961 . S
H368 C354 0.961 . S
H369 C355 0.958 . S
H370 C355 0.961 . S
H371 C355 0.960 . S
C372 C373 1.391 . S
C372 C374 1.394 . S
C372 H388 0.931 . S
C373 C372 1.391 . S
C373 C377 1.376 . S
C374 C372 1.394 . S
C374 C375 1.369 . S
C374 C378 1.531 . S
C375 C374 1.369 . S
C375 C376 1.410 . S
C375 C383 1.503 . S
C376 C375 1.410 . S
C376 C377 1.392 . S
C376 C379 1.511 . S
C377 C373 1.376 . S
C377 C376 1.392 . S
C377 H389 0.929 . S
C378 C374 1.531 . S
C378 H390 0.960 . S
C378 H391 0.962 . S
C378 H392 0.960 . S
C379 C376 1.511 . S
C379 H393 0.961 . S
C379 H394 0.961 . S
C379 H395 0.961 . S
C380 C381 1.370 . S
C380 C382 1.363 . S
C380 H396 0.931 . S
C381 C380 1.370 . S
C381 C385 1.408 . S
C382 C380 1.363 . S
C382 C383 1.370 . S
C382 C386 1.524 . S
C383 C375 1.503 . S
C383 C382 1.370 . S
C383 C384 1.403 . S
C384 C383 1.403 . S
C384 C385 1.404 . S
C384 C387 1.539 . S
C385 C381 1.408 . S
C385 C384 1.404 . S
C385 H397 0.930 . S
C386 C382 1.524 . S
C386 H398 0.956 . S
C386 H399 0.961 . S
C386 H400 0.961 . S
C387 C384 1.539 . S
C387 H401 0.958 . S
C387 H402 0.961 . S
C387 H403 0.960 . S
H388 C372 0.931 . S
H389 C377 0.929 . S
H390 C378 0.960 . S
H391 C378 0.962 . S
H392 C378 0.960 . S
H393 C379 0.961 . S
H394 C379 0.961 . S
H395 C379 0.961 . S
H396 C380 0.931 . S
H397 C385 0.930 . S
H398 C386 0.956 . S
H399 C386 0.961 . S
H400 C386 0.961 . S
H401 C387 0.958 . S
H402 C387 0.961 . S
H403 C387 0.960 . S
C404 C405 1.391 . S
C404 C406 1.394 . S
C404 H420 0.931 . S
C405 C404 1.391 . S
C405 C409 1.376 . S
C406 C404 1.394 . S
C406 C407 1.369 . S
C406 C410 1.531 . S
C407 C406 1.369 . S
C407 C408 1.410 . S
C407 C415 1.503 . S
C408 C407 1.410 . S
C408 C409 1.392 . S
C408 C411 1.511 . S
C409 C405 1.376 . S
C409 C408 1.392 . S
C409 H421 0.929 . S
C410 C406 1.531 . S
C410 H422 0.960 . S
C410 H423 0.962 . S
C410 H424 0.960 . S
C411 C408 1.511 . S
C411 H425 0.961 . S
C411 H426 0.961 . S
C411 H427 0.961 . S
C412 C413 1.370 . S
C412 C414 1.363 . S
C412 H428 0.931 . S
C413 C412 1.370 . S
C413 C417 1.408 . S
C414 C412 1.363 . S
C414 C415 1.370 . S
C414 C418 1.524 . S
C415 C407 1.503 . S
C415 C414 1.370 . S
C415 C416 1.403 . S
C416 C415 1.403 . S
C416 C417 1.404 . S
C416 C419 1.539 . S
C417 C413 1.408 . S
C417 C416 1.404 . S
C417 H429 0.930 . S
C418 C414 1.524 . S
C418 H430 0.956 . S
C418 H431 0.961 . S
C418 H432 0.961 . S
C419 C416 1.539 . S
C419 H433 0.958 . S
C419 H434 0.961 1_545 S
C419 H435 0.960 . S
H420 C404 0.931 . S
H421 C409 0.929 . S
H422 C410 0.960 . S
H423 C410 0.962 . S
H424 C410 0.960 . S
H425 C411 0.961 . S
H426 C411 0.961 . S
H427 C411 0.961 . S
H428 C412 0.931 . S
H429 C417 0.930 . S
H430 C418 0.956 . S
H431 C418 0.961 . S
H432 C418 0.961 . S
H433 C419 0.958 . S
H434 C419 0.961 1_565 S
H435 C419 0.960 . S
C436 C437 1.391 . S
C436 C438 1.394 . S
C436 H452 0.931 . S
C437 C436 1.391 . S
C437 C441 1.376 . S
C438 C436 1.394 . S
C438 C439 1.369 . S
C438 C442 1.531 . S
C439 C438 1.369 . S
C439 C440 1.410 . S
C439 C447 1.503 . S
C440 C439 1.410 . S
C440 C441 1.392 . S
C440 C443 1.511 . S
C441 C437 1.376 . S
C441 C440 1.392 . S
C441 H453 0.929 . S
C442 C438 1.531 . S
C442 H454 0.960 . S
C442 H455 0.962 . S
C442 H456 0.960 . S
C443 C440 1.511 . S
C443 H457 0.961 . S
C443 H458 0.961 . S
C443 H459 0.961 . S
C444 C445 1.370 . S
C444 C446 1.363 . S
C444 H460 0.931 . S
C445 C444 1.370 . S
C445 C449 1.408 . S
C446 C444 1.363 . S
C446 C447 1.370 . S
C446 C450 1.524 . S
C447 C439 1.503 . S
C447 C446 1.370 . S
C447 C448 1.403 . S
C448 C447 1.403 . S
C448 C449 1.404 . S
C448 C451 1.539 . S
C449 C445 1.408 . S
C449 C448 1.404 . S
C449 H461 0.930 . S
C450 C446 1.524 . S
C450 H462 0.956 . S
C450 H463 0.961 . S
C450 H464 0.961 . S
C451 C448 1.539 . S
C451 H465 0.958 . S
C451 H466 0.961 . S
C451 H467 0.960 . S
H452 C436 0.931 . S
H453 C441 0.929 . S
H454 C442 0.960 . S
H455 C442 0.962 . S
H456 C442 0.960 . S
H457 C443 0.961 . S
H458 C443 0.961 . S
H459 C443 0.961 . S
H460 C444 0.931 . S
H461 C449 0.930 . S
H462 C450 0.956 . S
H463 C450 0.961 . S
H464 C450 0.961 . S
H465 C451 0.958 . S
H466 C451 0.961 . S
H467 C451 0.960 . S
C468 C469 1.391 . S
C468 C470 1.394 . S
C468 H484 0.931 . S
C469 C468 1.391 . S
C469 C473 1.376 . S
C470 C468 1.394 . S
C470 C471 1.369 . S
C470 C474 1.531 . S
C471 C470 1.369 . S
C471 C472 1.410 . S
C471 C479 1.503 . S
C472 C471 1.410 . S
C472 C473 1.392 . S
C472 C475 1.511 . S
C473 C469 1.376 . S
C473 C472 1.392 . S
C473 H485 0.929 . S
C474 C470 1.531 . S
C474 H486 0.960 . S
C474 H487 0.962 . S
C474 H488 0.960 . S
C475 C472 1.511 . S
C475 H489 0.961 . S
C475 H490 0.961 . S
C475 H491 0.961 . S
C476 C477 1.370 . S
C476 C478 1.363 . S
C476 H492 0.931 . S
C477 C476 1.370 . S
C477 C481 1.408 . S
C478 C476 1.363 . S
C478 C479 1.370 . S
C478 C482 1.524 . S
C479 C471 1.503 . S
C479 C478 1.370 . S
C479 C480 1.403 . S
C480 C479 1.403 . S
C480 C481 1.404 . S
C480 C483 1.539 . S
C481 C477 1.408 . S
C481 C480 1.404 . S
C481 H493 0.930 1_565 S
C482 C478 1.524 . S
C482 H494 0.956 . S
C482 H495 0.961 . S
C482 H496 0.961 . S
C483 C480 1.539 . S
C483 H497 0.958 . S
C483 H498 0.961 1_565 S
C483 H499 0.960 . S
H484 C468 0.931 . S
H485 C473 0.929 . S
H486 C474 0.960 . S
H487 C474 0.962 . S
H488 C474 0.960 . S
H489 C475 0.961 . S
H490 C475 0.961 . S
H491 C475 0.961 . S
H492 C476 0.931 . S
H493 C481 0.930 1_545 S
H494 C482 0.956 . S
H495 C482 0.961 . S
H496 C482 0.961 . S
H497 C483 0.958 . S
H498 C483 0.961 1_545 S
H499 C483 0.960 . S
C125 C52 1.505 . S
C117 C40 1.491 . S
C149 C4 1.499 . S
C157 C95 1.512 . S
C181 C16 1.501 . S
C189 C61 1.511 . S
C213 C28 1.511 . S
C221 C86 1.510 . S
C253 C48 1.556 . S
C245 C9 1.512 . S
C285 C90 1.541 . S
C277 C18 1.524 . S
C309 C33 1.549 . S
C317 C56 1.548 . S
C341 C45 1.523 . S
C349 C82 1.540 . S
C381 C111 1.481 . S
C373 C21 1.472 . S
C413 C77 1.470 . S
C405 C30 1.463 . S
C445 C99 1.479 . S
C437 C42 1.485 . S
C469 C6 1.465 . S
C477 C65 1.469 . S
