# Generated by pormake.
# Topology dag, (6,3)-cn, num edge types: 1
# Building blocks:
#     Node 0, Type 0, BuildingBlock: IZENUY_clean_sbu_0, # of connection points: 6
#     Node 1, Type 0, BuildingBlock: IZENUY_clean_sbu_0, # of connection points: 6
#     Node 2, Type 0, BuildingBlock: IZENUY_clean_sbu_0, # of connection points: 6
#     Node 3, Type 0, BuildingBlock: IZENUY_clean_sbu_0, # of connection points: 6
#     Node 4, Type 1, BuildingBlock: KAKCAD_clean_linker_0, # of connection points: 3
#     Node 5, Type 1, BuildingBlock: KAKCAD_clean_linker_0, # of connection points: 3
#     Node 6, Type 1, BuildingBlock: KAKCAD_clean_linker_0, # of connection points: 3
#     Node 7, Type 1, BuildingBlock: KAKCAD_clean_linker_0, # of connection points: 3
#     Node 8, Type 1, BuildingBlock: KAKCAD_clean_linker_0, # of connection points: 3
#     Node 9, Type 1, BuildingBlock: KAKCAD_clean_linker_0, # of connection points: 3
#     Node 10, Type 1, BuildingBlock: KAKCAD_clean_linker_0, # of connection points: 3
#     Node 11, Type 1, BuildingBlock: KAKCAD_clean_linker_0, # of connection points: 3
#     Edge 12, Type (0, 1), BuildingBlock: OJICUG_clean_linker_0, # of connection points: 2
#     Edge 13, Type (0, 1), BuildingBlock: OJICUG_clean_linker_0, # of connection points: 2
#     Edge 14, Type (0, 1), BuildingBlock: OJICUG_clean_linker_0, # of connection points: 2
#     Edge 15, Type (0, 1), BuildingBlock: OJICUG_clean_linker_0, # of connection points: 2
#     Edge 16, Type (0, 1), BuildingBlock: OJICUG_clean_linker_0, # of connection points: 2
#     Edge 17, Type (0, 1), BuildingBlock: OJICUG_clean_linker_0, # of connection points: 2
#     Edge 18, Type (0, 1), BuildingBlock: OJICUG_clean_linker_0, # of connection points: 2
#     Edge 19, Type (0, 1), BuildingBlock: OJICUG_clean_linker_0, # of connection points: 2
#     Edge 20, Type (0, 1), BuildingBlock: OJICUG_clean_linker_0, # of connection points: 2
#     Edge 21, Type (0, 1), BuildingBlock: OJICUG_clean_linker_0, # of connection points: 2
#     Edge 22, Type (0, 1), BuildingBlock: OJICUG_clean_linker_0, # of connection points: 2
#     Edge 23, Type (0, 1), BuildingBlock: OJICUG_clean_linker_0, # of connection points: 2
#     Edge 24, Type (0, 1), BuildingBlock: OJICUG_clean_linker_0, # of connection points: 2
#     Edge 25, Type (0, 1), BuildingBlock: OJICUG_clean_linker_0, # of connection points: 2
#     Edge 26, Type (0, 1), BuildingBlock: OJICUG_clean_linker_0, # of connection points: 2
#     Edge 27, Type (0, 1), BuildingBlock: OJICUG_clean_linker_0, # of connection points: 2
#     Edge 28, Type (0, 1), BuildingBlock: OJICUG_clean_linker_0, # of connection points: 2
#     Edge 29, Type (0, 1), BuildingBlock: OJICUG_clean_linker_0, # of connection points: 2
#     Edge 30, Type (0, 1), BuildingBlock: OJICUG_clean_linker_0, # of connection points: 2
#     Edge 31, Type (0, 1), BuildingBlock: OJICUG_clean_linker_0, # of connection points: 2
#     Edge 32, Type (0, 1), BuildingBlock: OJICUG_clean_linker_0, # of connection points: 2
#     Edge 33, Type (0, 1), BuildingBlock: OJICUG_clean_linker_0, # of connection points: 2
#     Edge 34, Type (0, 1), BuildingBlock: OJICUG_clean_linker_0, # of connection points: 2
#     Edge 35, Type (0, 1), BuildingBlock: OJICUG_clean_linker_0, # of connection points: 2
# Relax obj value: 0.253
# Max RMSD: 0.194
# Mean RMSD: 0.160
data_MOF--net-dag--node1-IZENUY_clean_sbu_0--node2-KAKCAD_clean_linker_0--edge1-OJICUG_clean_linker_0
_symmetry_space_group_name_H-M    P1
_symmetry_Int_Tables_number       1
_symmetry_cell_setting            triclinic
loop_
_symmetry_equiv_pos_as_xyz
'x, y, z'
_cell_length_a     36.574488
_cell_length_b     38.139851
_cell_length_c     32.248694
_cell_angle_alpha  95.132547
_cell_angle_beta   90.188064
_cell_angle_gamma 90.104136
loop_
_atom_site_label
_atom_site_type_symbol
_atom_site_fract_x
_atom_site_fract_y
_atom_site_fract_z
_atom_type_partial_charge
Fe0 Fe 0.19303 0.85108 0.0879 0.0
Fe1 Fe 0.12235 0.8724 0.04557 0.0
O2 O 0.1529 0.83941 0.05877 0.0
Fe3 Fe 0.1432 0.79475 0.0426 0.0
O4 O 0.16486 0.77734 0.08807 0.0
O5 O 0.17921 0.82457 0.12892 0.0
O6 O 0.17196 0.88865 0.11857 0.0
C7 C 0.13864 0.89585 0.12597 0.0
C8 C 0.21658 0.7979 0.02726 0.0
O9 O 0.11405 0.88622 0.09986 0.0
C10 C 0.12268 0.83036 0.97276 0.0
O11 O 0.20968 0.87879 0.04898 0.0
O12 O 0.15748 0.90604 0.04167 0.0
O13 O 0.18501 0.791 0.01297 0.0
O14 O 0.22109 0.81537 0.06224 0.0
C15 C 0.07493 0.81742 0.06497 0.0
O16 O 0.12903 0.86052 0.99061 0.0
O17 O 0.12017 0.80392 0.9938 0.0
C18 C 0.19148 0.90335 0.03534 0.0
O19 O 0.08139 0.84481 0.04675 0.0
O20 O 0.10028 0.79609 0.07125 0.0
C21 C 0.17216 0.79214 0.12389 0.0
Fe22 Fe 0.70687 0.65301 0.48619 0.0
Fe23 Fe 0.64484 0.70337 0.51688 0.0
O24 O 0.6622 0.66016 0.50609 0.0
Fe25 Fe 0.63465 0.62368 0.51507 0.0
O26 O 0.66683 0.60989 0.55306 0.0
O27 O 0.71478 0.61274 0.5126 0.0
O28 O 0.72681 0.67738 0.53142 0.0
C29 C 0.71881 0.70867 0.5442 0.0
C30 C 0.67022 0.60073 0.4404 0.0
O31 O 0.6894 0.7227 0.5329 0.0
C32 C 0.58529 0.66517 0.47923 0.0
O33 O 0.70715 0.69204 0.45696 0.0
O34 O 0.65122 0.71299 0.46318 0.0
O35 O 0.65467 0.59404 0.47366 0.0
O36 O 0.68953 0.62805 0.43915 0.0
C37 C 0.61854 0.67183 0.58359 0.0
O38 O 0.59732 0.69128 0.50248 0.0
O39 O 0.60134 0.63582 0.47736 0.0
C40 C 0.68129 0.71027 0.44417 0.0
O41 O 0.63724 0.69679 0.57153 0.0
O42 O 0.60938 0.64611 0.5583 0.0
C43 C 0.6997 0.60228 0.54468 0.0
Fe44 Fe 0.85532 0.20987 0.04181 0.0
Fe45 Fe 0.87992 0.13296 0.03082 0.0
O46 O 0.84729 0.16559 0.02221 0.0
Fe47 Fe 0.80695 0.15359 0.99384 0.0
O48 O 0.81796 0.18311 0.95493 0.0
O49 O 0.83251 0.22902 0.99817 0.0
O50 O 0.89766 0.21202 0.01289 0.0
C51 C 0.92386 0.19105 0.01579 0.0
C52 C 0.78229 0.20457 0.05739 0.0
O53 O 0.91959 0.16233 0.03175 0.0
C54 C 0.81287 0.09716 0.03906 0.0
O55 O 0.87919 0.1982 0.08915 0.0
O56 O 0.87403 0.14052 0.08645 0.0
O57 O 0.7778 0.18658 0.02275 0.0
O58 O 0.81381 0.21116 0.0719 0.0
C59 C 0.86245 0.11386 0.94993 0.0
O60 O 0.84674 0.09704 0.03141 0.0
O61 O 0.79326 0.12285 0.03105 0.0
C62 C 0.87867 0.16988 0.10713 0.0
O63 O 0.88734 0.12382 0.97551 0.0
O64 O 0.82903 0.11864 0.95938 0.0
C65 C 0.82444 0.21556 0.96192 0.0
Fe66 Fe 0.36606 0.37113 0.56051 0.0
Fe67 Fe 0.29485 0.34476 0.5953 0.0
O68 O 0.33821 0.33584 0.57276 0.0
Fe69 Fe 0.35366 0.29195 0.56237 0.0
O70 O 0.4022 0.30279 0.57229 0.0
O71 O 0.40146 0.35879 0.59574 0.0
O72 O 0.34927 0.40201 0.60292 0.0
C73 C 0.33559 0.39594 0.63751 0.0
C74 C 0.37633 0.32106 0.49234 0.0
O75 O 0.31539 0.36945 0.64048 0.0
C76 C 0.27869 0.28872 0.53997 0.0
O77 O 0.33209 0.38492 0.52447 0.0
O78 O 0.28669 0.38497 0.56881 0.0
O79 O 0.35807 0.29686 0.50682 0.0
O80 O 0.38785 0.34695 0.51597 0.0
C81 C 0.32112 0.2881 0.63769 0.0
O82 O 0.27226 0.32055 0.5516 0.0
O83 O 0.30765 0.27374 0.55091 0.0
C84 C 0.29984 0.3932 0.53471 0.0
O85 O 0.29493 0.30617 0.62531 0.0
O86 O 0.35026 0.28414 0.61705 0.0
C87 C 0.41674 0.32903 0.59312 0.0
C88 C 0.97124 0.18815 0.27853 0.0
C89 C 0.93948 0.16749 0.27183 0.0
C90 C 0.9973 0.17983 0.30782 0.0
C91 C 0.99224 0.15052 0.33056 0.0
C92 C 0.95886 0.13229 0.32725 0.0
C93 C 0.9325 0.14097 0.29848 0.0
C94 C 0.02438 0.13457 0.34931 0.0
C95 C 0.04765 0.15463 0.37679 0.0
C96 C 0.08226 0.14165 0.38722 0.0
C97 C 0.0929 0.10804 0.36966 0.0
C98 C 0.06952 0.08755 0.34272 0.0
C99 C 0.0351 0.1008 0.33335 0.0
C100 C 0.08252 0.05452 0.31975 0.0
C101 C 0.11681 0.05355 0.30019 0.0
C102 C 0.05926 0.02516 0.31338 0.0
C103 C 0.06933 0.99614 0.28634 0.0
C104 C 0.10281 0.99597 0.26501 0.0
C105 C 0.10858 0.16399 0.41343 0.0
C106 C 0.10926 0.20078 0.4122 0.0
C107 C 0.13462 0.14853 0.4383 0.0
C108 C 0.16162 0.16894 0.45953 0.0
C109 C 0.16268 0.20568 0.45782 0.0
C110 C 0.13553 0.22134 0.43458 0.0
C111 C 0.12684 0.0246 0.2731 0.0
H112 H 0.97774 0.20867 0.25861 0.0
H113 H 0.02298 0.19411 0.30959 0.0
H114 H 0.95433 0.1097 0.34472 0.0
H115 H 0.90784 0.12521 0.29503 0.0
H116 H 0.0389 0.18061 0.38903 0.0
H117 H 0.01786 0.08605 0.31054 0.0
H118 H 0.12 0.09816 0.37546 0.0
H119 H 0.13509 0.07599 0.30395 0.0
H120 H 0.03282 0.02509 0.3284 0.0
H121 H 0.0505 0.97422 0.28134 0.0
H122 H 0.09018 0.21389 0.39309 0.0
H123 H 0.13463 0.12046 0.44105 0.0
H124 H 0.15261 0.02555 0.2568 0.0
H125 H 0.13454 0.24956 0.4332 0.0
H126 H 0.18212 0.15552 0.47644 0.0
C127 C 0.35057 0.53226 0.77811 0.0
C128 C 0.37245 0.50259 0.76804 0.0
C129 C 0.36495 0.5618 0.8011 0.0
C130 C 0.40167 0.56243 0.8143 0.0
C131 C 0.42302 0.53197 0.80616 0.0
C132 C 0.40842 0.50216 0.78342 0.0
C133 C 0.41811 0.59619 0.83196 0.0
C134 C 0.39801 0.61892 0.8597 0.0
C135 C 0.40847 0.65427 0.86862 0.0
C136 C 0.44103 0.66626 0.8515 0.0
C137 C 0.46246 0.64328 0.82515 0.0
C138 C 0.45089 0.60826 0.81578 0.0
C139 C 0.49396 0.6564 0.80214 0.0
C140 C 0.48969 0.68518 0.77822 0.0
C141 C 0.52652 0.63695 0.7988 0.0
C142 C 0.55295 0.64423 0.7696 0.0
C143 C 0.54712 0.6708 0.74272 0.0
C144 C 0.38288 0.67907 0.89167 0.0
C145 C 0.34525 0.67643 0.88306 0.0
C146 C 0.39527 0.70522 0.92199 0.0
C147 C 0.37028 0.72775 0.94381 0.0
C148 C 0.33255 0.7246 0.93547 0.0
C149 C 0.32047 0.6986 0.90486 0.0
C150 C 0.51603 0.69228 0.74868 0.0
H151 H 0.32277 0.53317 0.76652 0.0
H152 H 0.34787 0.58494 0.80628 0.0
H153 H 0.45133 0.53168 0.81609 0.0
H154 H 0.42588 0.47962 0.77569 0.0
H155 H 0.37296 0.60943 0.87272 0.0
H156 H 0.46586 0.59129 0.79304 0.0
H157 H 0.44883 0.69371 0.85707 0.0
H158 H 0.46471 0.70044 0.77999 0.0
H159 H 0.53062 0.61487 0.81722 0.0
H160 H 0.57699 0.62768 0.76638 0.0
H161 H 0.33477 0.65713 0.85926 0.0
H162 H 0.42413 0.70789 0.92926 0.0
H163 H 0.51058 0.71281 0.72837 0.0
H164 H 0.29164 0.69488 0.89804 0.0
H165 H 0.3805 0.74769 0.96701 0.0
C166 C 0.89558 0.79587 0.07879 0.0
C167 C 0.92374 0.79552 0.10856 0.0
C168 C 0.85938 0.80151 0.09119 0.0
C169 C 0.85052 0.80663 0.13362 0.0
C170 C 0.8781 0.80305 0.1634 0.0
C171 C 0.91445 0.79759 0.15098 0.0
C172 C 0.81422 0.82093 0.14659 0.0
C173 C 0.79472 0.80773 0.17919 0.0
C174 C 0.76281 0.82468 0.19467 0.0
C175 C 0.75059 0.85525 0.17767 0.0
C176 C 0.76937 0.86814 0.14434 0.0
C177 C 0.80091 0.85067 0.12885 0.0
C178 C 0.75884 0.90158 0.12758 0.0
C179 C 0.75755 0.90352 0.08435 0.0
C180 C 0.75607 0.93271 0.15417 0.0
C181 C 0.75586 0.96547 0.13771 0.0
C182 C 0.75835 0.96741 0.09449 0.0
C183 C 0.74369 0.8114 0.23029 0.0
C184 C 0.73065 0.77664 0.2277 0.0
C185 C 0.74068 0.83264 0.26796 0.0
C186 C 0.72645 0.81873 0.30316 0.0
C187 C 0.71424 0.7837 0.30082 0.0
C188 C 0.71563 0.76299 0.26266 0.0
C189 C 0.75717 0.93612 0.06795 0.0
H190 H 0.90179 0.79361 0.04584 0.0
H191 H 0.83855 0.80368 0.0676 0.0
H192 H 0.87205 0.8071 0.19634 0.0
H193 H 0.93552 0.79759 0.17466 0.0
H194 H 0.80491 0.7849 0.19334 0.0
H195 H 0.81651 0.86168 0.10456 0.0
H196 H 0.72652 0.86887 0.19026 0.0
H197 H 0.75921 0.87983 0.06323 0.0
H198 H 0.75717 0.93187 0.18764 0.0
H199 H 0.7569 0.98917 0.15888 0.0
H200 H 0.73278 0.75988 0.19885 0.0
H201 H 0.75084 0.85946 0.2706 0.0
H202 H 0.75851 0.93689 0.03449 0.0
H203 H 0.70672 0.73577 0.26042 0.0
H204 H 0.7258 0.83499 0.33248 0.0
C205 C 0.57688 0.33096 0.69154 0.0
C206 C 0.5663 0.32435 0.64965 0.0
C207 C 0.61372 0.33582 0.70214 0.0
C208 C 0.64055 0.33462 0.67098 0.0
C209 C 0.63011 0.32666 0.62924 0.0
C210 C 0.59332 0.32134 0.61869 0.0
C211 C 0.67865 0.34511 0.68164 0.0
C212 C 0.69684 0.3317 0.71509 0.0
C213 C 0.73176 0.34417 0.72732 0.0
C214 C 0.74828 0.37069 0.70628 0.0
C215 C 0.73006 0.38465 0.67314 0.0
C216 C 0.69563 0.37121 0.66051 0.0
C217 C 0.74381 0.41647 0.65519 0.0
C218 C 0.7518 0.44689 0.6815 0.0
C219 C 0.74264 0.41857 0.61196 0.0
C220 C 0.74599 0.45108 0.59561 0.0
C221 C 0.75024 0.48204 0.62228 0.0
C222 C 0.75018 0.33028 0.76318 0.0
C223 C 0.73165 0.32951 0.80113 0.0
C224 C 0.78568 0.3165 0.75924 0.0
C225 C 0.80181 0.30079 0.79229 0.0
C226 C 0.7829 0.2993 0.82995 0.0
C227 C 0.74798 0.31437 0.83434 0.0
C228 C 0.75484 0.47947 0.66517 0.0
H229 H 0.55655 0.33319 0.71599 0.0
H230 H 0.62103 0.34221 0.73452 0.0
H231 H 0.65033 0.3255 0.60468 0.0
H232 H 0.58587 0.31652 0.58614 0.0
H233 H 0.68381 0.31155 0.73163 0.0
H234 H 0.68082 0.38289 0.63602 0.0
H235 H 0.77465 0.38126 0.71659 0.0
H236 H 0.75265 0.44599 0.71498 0.0
H237 H 0.73667 0.39541 0.59107 0.0
H238 H 0.74213 0.45225 0.56244 0.0
H239 H 0.70433 0.34024 0.80489 0.0
H240 H 0.8004 0.31681 0.73018 0.0
H241 H 0.75844 0.50294 0.68634 0.0
H242 H 0.73272 0.31322 0.86292 0.0
H243 H 0.82879 0.28936 0.78826 0.0
C244 C 0.62916 0.48249 0.28104 0.0
C245 C 0.62812 0.48668 0.32477 0.0
C246 C 0.6123 0.45331 0.25919 0.0
C247 C 0.59364 0.42823 0.28072 0.0
C248 C 0.59209 0.43298 0.32436 0.0
C249 C 0.60906 0.46179 0.34605 0.0
C250 C 0.57728 0.39609 0.25855 0.0
C251 C 0.59749 0.37555 0.22856 0.0
C252 C 0.58467 0.34232 0.21196 0.0
C253 C 0.551 0.32983 0.22585 0.0
C254 C 0.53034 0.35035 0.2554 0.0
C255 C 0.54329 0.3836 0.271 0.0
C256 C 0.49772 0.33585 0.27475 0.0
C257 C 0.46485 0.35476 0.27654 0.0
C258 C 0.50134 0.30664 0.298 0.0
C259 C 0.47402 0.29878 0.32601 0.0
C260 C 0.44254 0.31989 0.3309 0.0
C261 C 0.60824 0.31974 0.18312 0.0
C262 C 0.63016 0.33494 0.15372 0.0
C263 C 0.61127 0.28334 0.1869 0.0
C264 C 0.63687 0.26307 0.1633 0.0
C265 C 0.66018 0.27892 0.136 0.0
C266 C 0.6561 0.3148 0.13072 0.0
C267 C 0.43729 0.34654 0.30394 0.0
H268 H 0.64358 0.50134 0.26389 0.0
H269 H 0.61386 0.45032 0.22553 0.0
H270 H 0.57844 0.41393 0.34196 0.0
H271 H 0.60722 0.46459 0.37971 0.0
H272 H 0.62442 0.38449 0.22026 0.0
H273 H 0.52772 0.39899 0.29468 0.0
H274 H 0.54097 0.30405 0.21422 0.0
H275 H 0.46145 0.37727 0.25864 0.0
H276 H 0.52662 0.29183 0.29726 0.0
H277 H 0.47914 0.27819 0.34632 0.0
H278 H 0.62799 0.36267 0.14927 0.0
H279 H 0.59521 0.27077 0.20953 0.0
H280 H 0.41296 0.36274 0.30613 0.0
H281 H 0.67364 0.32744 0.10947 0.0
H282 H 0.63979 0.23544 0.168 0.0
C283 C 0.08845 0.21065 0.93595 0.0
C284 C 0.07527 0.2071 0.9762 0.0
C285 C 0.12524 0.20465 0.92653 0.0
C286 C 0.14982 0.19501 0.95719 0.0
C287 C 0.13708 0.19352 0.99808 0.0
C288 C 0.10017 0.19956 0.00751 0.0
C289 C 0.18717 0.18266 0.94501 0.0
C290 C 0.20657 0.19871 0.91437 0.0
C291 C 0.23746 0.18251 0.89516 0.0
C292 C 0.25045 0.15095 0.90925 0.0
C293 C 0.23244 0.13547 0.94146 0.0
C294 C 0.20094 0.15154 0.9592 0.0
C295 C 0.24255 0.0999 0.9526 0.0
C296 C 0.24509 0.07185 0.92141 0.0
C297 C 0.2442 0.09278 0.99456 0.0
C298 C 0.24555 0.05807 0.00516 0.0
C299 C 0.24478 0.0299 0.97396 0.0
C300 C 0.25305 0.19642 0.8573 0.0
C301 C 0.22954 0.21011 0.82822 0.0
C302 C 0.29081 0.19522 0.84901 0.0
C303 C 0.30459 0.20743 0.81239 0.0
C304 C 0.28087 0.22111 0.78343 0.0
C305 C 0.24327 0.22263 0.79218 0.0
C306 C 0.246 0.03712 0.93201 0.0
H307 H 0.07001 0.21682 0.91128 0.0
H308 H 0.1339 0.20564 0.89458 0.0
H309 H 0.15537 0.18647 0.02247 0.0
H310 H 0.09082 0.19643 0.0388 0.0
H311 H 0.19648 0.22321 0.90413 0.0
H312 H 0.18545 0.13814 0.98167 0.0
H313 H 0.27347 0.13749 0.89396 0.0
H314 H 0.24359 0.07657 0.88882 0.0
H315 H 0.24238 0.114 0.01915 0.0
H316 H 0.24428 0.05326 0.03773 0.0
H317 H 0.20023 0.21075 0.83283 0.0
H318 H 0.30971 0.18497 0.87082 0.0
H319 H 0.24549 0.01584 0.90739 0.0
H320 H 0.22415 0.23371 0.77124 0.0
H321 H 0.3337 0.20573 0.80658 0.0
C322 C 0.41554 0.68833 0.40916 0.0
C323 C 0.44059 0.66024 0.40771 0.0
C324 C 0.37866 0.6822 0.39897 0.0
C325 C 0.3662 0.64787 0.38712 0.0
C326 C 0.39159 0.62018 0.38381 0.0
C327 C 0.42813 0.6262 0.39429 0.0
C328 C 0.32673 0.64012 0.38026 0.0
C329 C 0.30455 0.66113 0.35702 0.0
C330 C 0.26765 0.65201 0.34855 0.0
C331 C 0.25317 0.62143 0.36398 0.0
C332 C 0.27541 0.60016 0.38669 0.0
C333 C 0.31162 0.6101 0.39549 0.0
C334 C 0.26309 0.56567 0.39868 0.0
C335 C 0.23666 0.56305 0.42964 0.0
C336 C 0.28283 0.53569 0.38397 0.0
C337 C 0.27876 0.50434 0.40241 0.0
C338 C 0.25457 0.50209 0.43594 0.0
C339 C 0.24564 0.67286 0.32066 0.0
C340 C 0.25003 0.70956 0.32186 0.0
C341 C 0.22219 0.65599 0.29045 0.0
C342 C 0.20491 0.67513 0.26105 0.0
C343 C 0.21102 0.71153 0.26076 0.0
C344 C 0.23318 0.7286 0.29214 0.0
C345 C 0.23234 0.53138 0.44811 0.0
H346 H 0.42427 0.71497 0.41876 0.0
H347 H 0.35973 0.70408 0.40171 0.0
H348 H 0.38305 0.59352 0.3739 0.0
H349 H 0.44628 0.60374 0.39329 0.0
H350 H 0.31663 0.68354 0.34378 0.0
H351 H 0.32837 0.59375 0.41378 0.0
H352 H 0.22512 0.61355 0.35739 0.0
H353 H 0.22122 0.58601 0.44142 0.0
H354 H 0.30341 0.53725 0.36009 0.0
H355 H 0.29685 0.48285 0.39231 0.0
H356 H 0.26732 0.72354 0.34516 0.0
H357 H 0.21831 0.62774 0.28827 0.0
H358 H 0.21295 0.53044 0.47328 0.0
H359 H 0.23889 0.75651 0.29285 0.0
H360 H 0.18746 0.66117 0.23791 0.0
C361 C 0.0641 0.84885 0.78035 0.0
C362 C 0.05699 0.82493 0.81017 0.0
C363 C 0.03661 0.85769 0.753 0.0
C364 C 0.00187 0.84219 0.75441 0.0
C365 C 0.99631 0.81494 0.78018 0.0
C366 C 0.02357 0.80647 0.808 0.0
C367 C 0.96971 0.8599 0.73801 0.0
C368 C 0.943 0.84102 0.71411 0.0
C369 C 0.90926 0.85674 0.70583 0.0
C370 C 0.90212 0.8913 0.72313 0.0
C371 C 0.92845 0.91015 0.74798 0.0
C372 C 0.96274 0.89472 0.75341 0.0
C373 C 0.91916 0.94387 0.77255 0.0
C374 C 0.89683 0.96941 0.75624 0.0
C375 C 0.9319 0.95005 0.81378 0.0
C376 C 0.92332 0.98103 0.83777 0.0
C377 C 0.90121 0.00654 0.82157 0.0
C378 C 0.88068 0.83604 0.68166 0.0
C379 C 0.89008 0.81404 0.64601 0.0
C380 C 0.84399 0.83733 0.69465 0.0
C381 C 0.81739 0.81692 0.67261 0.0
C382 C 0.8269 0.79466 0.63723 0.0
C383 C 0.8635 0.79356 0.62406 0.0
C384 C 0.88773 0.00043 0.7807 0.0
H385 H 0.08992 0.86279 0.78031 0.0
H386 H 0.04152 0.87867 0.73315 0.0
H387 H 0.96962 0.8028 0.78205 0.0
H388 H 0.01693 0.78798 0.83044 0.0
H389 H 0.94798 0.81369 0.70345 0.0
H390 H 0.98333 0.90895 0.77247 0.0
H391 H 0.87561 0.90297 0.71852 0.0
H392 H 0.88657 0.96552 0.72463 0.0
H393 H 0.94795 0.93056 0.82812 0.0
H394 H 0.93327 0.98463 0.86955 0.0
H395 H 0.91801 0.81279 0.63491 0.0
H396 H 0.83594 0.85349 0.72242 0.0
H397 H 0.87046 0.01972 0.76764 0.0
H398 H 0.87156 0.77706 0.59653 0.0
H399 H 0.78949 0.81799 0.68382 0.0
C400 C 0.09282 0.93095 0.16973 0.0
C401 C 0.12895 0.91922 0.16343 0.0
H402 H 0.05636 0.96453 0.20643 0.0
C403 C 0.15595 0.93097 0.1926 0.0
H404 H 0.07131 0.92234 0.14797 0.0
C405 C 0.14726 0.95492 0.22645 0.0
C406 C 0.1114 0.96764 0.23188 0.0
H407 H 0.18399 0.92216 0.18895 0.0
H408 H 0.16875 0.96382 0.24809 0.0
C409 C 0.08417 0.95493 0.20351 0.0
C410 C 0.59713 0.70461 0.6506 0.0
C411 C 0.60438 0.67283 0.62655 0.0
H412 H 0.57318 0.72908 0.70673 0.0
C413 C 0.59583 0.6409 0.64283 0.0
H414 H 0.60351 0.7296 0.63878 0.0
C415 C 0.57893 0.64055 0.68136 0.0
C416 C 0.5699 0.67217 0.70477 0.0
H417 H 0.60144 0.61594 0.62523 0.0
H418 H 0.57134 0.61534 0.69182 0.0
C419 C 0.57968 0.70428 0.68931 0.0
C420 C 0.76505 0.06459 0.07669 0.0
C421 C 0.79609 0.06437 0.05109 0.0
H422 H 0.72861 0.03371 0.11114 0.0
C423 C 0.81263 0.03213 0.03794 0.0
H424 H 0.75188 0.08918 0.08727 0.0
C425 C 0.79916 0.0008 0.05083 0.0
C426 C 0.76899 0.00084 0.07762 0.0
H427 H 0.83643 0.03108 0.01793 0.0
H428 H 0.81337 0.97658 0.04105 0.0
C429 C 0.75184 0.033 0.09034 0.0
C430 C 0.47719 0.29838 0.59494 0.0
C431 C 0.45412 0.32609 0.60995 0.0
H432 H 0.53098 0.27614 0.59577 0.0
C433 C 0.46762 0.35187 0.64 0.0
H434 H 0.46758 0.27812 0.57177 0.0
C435 C 0.5037 0.35048 0.65399 0.0
C436 C 0.52714 0.32352 0.63786 0.0
H437 H 0.45043 0.37342 0.65233 0.0
H438 H 0.51365 0.37123 0.67634 0.0
C439 C 0.51347 0.29728 0.60852 0.0
C440 C 0.67702 0.53868 0.4131 0.0
C441 C 0.66881 0.57338 0.40535 0.0
H442 H 0.67151 0.48406 0.39287 0.0
C443 C 0.65206 0.57987 0.36758 0.0
H444 H 0.68985 0.53314 0.44216 0.0
C445 C 0.6409 0.5516 0.33947 0.0
C446 C 0.64642 0.51669 0.34904 0.0
H447 H 0.64496 0.60648 0.3614 0.0
H448 H 0.62567 0.557 0.3119 0.0
C449 C 0.6662 0.51064 0.38511 0.0
C450 C 0.98388 0.22021 0.03097 0.0
C451 C 0.9607 0.20046 0.00311 0.0
H452 H 0.03866 0.23826 0.04408 0.0
C453 C 0.97456 0.18519 0.96534 0.0
H454 H 0.9736 0.23166 0.06062 0.0
C455 C 0.01149 0.18882 0.95587 0.0
C456 C 0.03532 0.20744 0.98432 0.0
H457 H 0.9571 0.16927 0.9439 0.0
H458 H 0.02173 0.17548 0.92719 0.0
C459 C 0.021 0.22367 0.02167 0.0
C460 C 0.26676 0.44962 0.52931 0.0
C461 C 0.28045 0.41793 0.51014 0.0
H462 H 0.24826 0.50156 0.52085 0.0
C463 C 0.27944 0.41183 0.46669 0.0
H464 H 0.26746 0.4548 0.5629 0.0
C465 C 0.26712 0.43799 0.4425 0.0
C466 C 0.25707 0.47134 0.46128 0.0
H467 H 0.28947 0.38727 0.45139 0.0
H468 H 0.26754 0.43272 0.40895 0.0
C469 C 0.2555 0.47629 0.50509 0.0
C470 C 0.11077 0.85739 0.90626 0.0
C471 C 0.11182 0.82726 0.92831 0.0
H472 H 0.09258 0.88032 0.8521 0.0
C473 C 0.09974 0.79499 0.90839 0.0
H474 H 0.12021 0.88263 0.92042 0.0
C475 C 0.08437 0.79348 0.86846 0.0
C476 C 0.08067 0.82423 0.84774 0.0
H477 H 0.1007 0.77116 0.92428 0.0
H478 H 0.07402 0.76851 0.85457 0.0
C479 C 0.09527 0.85593 0.86661 0.0
C480 C 0.90927 0.08295 0.90372 0.0
C481 C 0.87235 0.09072 0.91232 0.0
H482 H 0.94725 0.05045 0.86767 0.0
C483 C 0.84518 0.07387 0.88668 0.0
H484 H 0.93095 0.09578 0.92238 0.0
C485 C 0.85466 0.04797 0.85506 0.0
C486 C 0.89142 0.03846 0.84871 0.0
H487 H 0.81651 0.07946 0.89224 0.0
H488 H 0.83316 0.03395 0.83729 0.0
C489 C 0.91866 0.05702 0.87236 0.0
C490 C 0.39336 0.35063 0.43004 0.0
C491 C 0.38736 0.31906 0.44822 0.0
H492 H 0.41522 0.37559 0.37926 0.0
C493 C 0.39515 0.28696 0.42517 0.0
H494 H 0.38718 0.37578 0.44691 0.0
C495 C 0.41128 0.28677 0.38567 0.0
C496 C 0.41931 0.31866 0.36858 0.0
H497 H 0.39065 0.26224 0.43851 0.0
H498 H 0.4186 0.2618 0.36918 0.0
C499 C 0.40905 0.35046 0.39083 0.0
C500 C 0.19261 0.94564 0.98153 0.0
C501 C 0.20976 0.93178 0.0154 0.0
H502 H 0.19094 0.98718 0.94136 0.0
C503 C 0.24154 0.948 0.03254 0.0
H504 H 0.16805 0.9335 0.96784 0.0
C505 C 0.25439 0.97923 0.01779 0.0
C506 C 0.23612 0.99397 0.98507 0.0
H507 H 0.25501 0.93783 0.05891 0.0
H508 H 0.27773 0.99252 0.03286 0.0
C509 C 0.20586 0.97621 0.96623 0.0
C510 C 0.5421 0.64528 0.42204 0.0
C511 C 0.54963 0.66738 0.4582 0.0
H512 H 0.50244 0.62709 0.37639 0.0
C513 C 0.5222 0.69 0.47514 0.0
H514 H 0.56302 0.62805 0.40791 0.0
C515 C 0.48709 0.68883 0.45772 0.0
C516 C 0.47897 0.66545 0.4226 0.0
H517 H 0.52734 0.7073 0.50305 0.0
H518 H 0.46597 0.70502 0.47306 0.0
C519 C 0.50732 0.64464 0.40414 0.0
C520 C 0.35093 0.41291 0.71233 0.0
C521 C 0.34047 0.42253 0.67297 0.0
H522 H 0.37015 0.4311 0.77368 0.0
C523 C 0.33845 0.45827 0.66616 0.0
H524 H 0.35307 0.38541 0.71797 0.0
C525 C 0.34747 0.48408 0.69782 0.0
C526 C 0.35947 0.47466 0.73669 0.0
H527 H 0.33055 0.46624 0.63597 0.0
H528 H 0.3465 0.51146 0.69136 0.0
C529 C 0.3609 0.43889 0.74392 0.0
C530 C 0.02734 0.78494 0.10337 0.0
C531 C 0.03647 0.80934 0.07483 0.0
H532 H 0.98428 0.76123 0.13659 0.0
C533 C 0.00821 0.82739 0.0562 0.0
H534 H 0.04854 0.77069 0.11827 0.0
C535 C 0.97184 0.82184 0.06634 0.0
C536 C 0.96254 0.7982 0.09558 0.0
H537 H 0.01415 0.84627 0.03394 0.0
H538 H 0.95102 0.83712 0.05221 0.0
C539 C 0.99065 0.77962 0.11392 0.0
C540 C 0.74546 0.55397 0.54896 0.0
C541 C 0.71774 0.57536 0.56772 0.0
H542 H 0.77788 0.50743 0.55185 0.0
C543 C 0.70484 0.56852 0.60714 0.0
H544 H 0.75597 0.55865 0.51858 0.0
C545 C 0.71764 0.53953 0.62626 0.0
C546 C 0.74335 0.51659 0.60616 0.0
H547 H 0.68368 0.58472 0.62247 0.0
H548 H 0.70555 0.5338 0.65554 0.0
C549 C 0.75795 0.52464 0.5679 0.0
C550 C 0.89184 0.13859 0.17031 0.0
C551 C 0.88906 0.17036 0.1516 0.0
H552 H 0.91004 0.11276 0.22239 0.0
C553 C 0.89848 0.20197 0.17504 0.0
H554 H 0.88453 0.11375 0.15337 0.0
C555 C 0.9126 0.2015 0.21539 0.0
C556 C 0.91769 0.1694 0.23302 0.0
H557 H 0.89619 0.22697 0.16174 0.0
H558 H 0.92069 0.22616 0.23219 0.0
C559 C 0.9061 0.1381 0.21036 0.0
C560 C 0.18617 0.73464 0.15207 0.0
C561 C 0.17795 0.77061 0.15919 0.0
H562 H 0.20393 0.68808 0.17818 0.0
C563 C 0.17758 0.78632 0.20028 0.0
H564 H 0.18683 0.72183 0.12071 0.0
C565 C 0.18658 0.76677 0.23346 0.0
C566 C 0.19676 0.73119 0.22625 0.0
H567 H 0.17085 0.81392 0.20675 0.0
H568 H 0.18618 0.77978 0.26471 0.0
C569 C 0.19576 0.71522 0.18517 0.0
C570 C 0.73813 0.76545 0.5835 0.0
C571 C 0.74596 0.73035 0.56921 0.0
H572 H 0.75765 0.81335 0.61584 0.0
C573 C 0.78036 0.71642 0.57825 0.0
H574 H 0.71192 0.77701 0.57713 0.0
C575 C 0.80651 0.73725 0.60044 0.0
C576 C 0.79882 0.77244 0.61428 0.0
H577 H 0.78729 0.68944 0.56789 0.0
H578 H 0.8327 0.72572 0.60701 0.0
C579 C 0.76427 0.78624 0.60585 0.0
C580 C 0.75631 0.25335 0.10478 0.0
C581 C 0.75074 0.2224 0.07843 0.0
H582 H 0.73177 0.29559 0.143 0.0
C583 C 0.71491 0.20973 0.07142 0.0
H584 H 0.78354 0.26392 0.11063 0.0
C585 C 0.68523 0.22775 0.09056 0.0
C586 C 0.69099 0.25909 0.11606 0.0
H587 H 0.70987 0.18591 0.05131 0.0
H588 H 0.65781 0.21761 0.08489 0.0
C589 C 0.72672 0.27165 0.12307 0.0
C590 C 0.2828 0.24641 0.67272 0.0
C591 C 0.31453 0.26699 0.67275 0.0
H592 H 0.24844 0.21416 0.70669 0.0
C593 C 0.33753 0.26957 0.70777 0.0
H594 H 0.26495 0.24378 0.64571 0.0
C595 C 0.32749 0.25353 0.74351 0.0
C596 C 0.29461 0.23428 0.74428 0.0
H597 H 0.36209 0.28553 0.70829 0.0
H598 H 0.34454 0.25765 0.77102 0.0
C599 C 0.27325 0.22977 0.70781 0.0
C600 C 0.72294 0.74615 0.40429 0.0
C601 C 0.68819 0.73133 0.40894 0.0
H602 H 0.75789 0.77519 0.36658 0.0
C603 C 0.66109 0.7355 0.37882 0.0
H604 H 0.74421 0.74341 0.42725 0.0
C605 C 0.66923 0.75304 0.34362 0.0
C606 C 0.70415 0.76749 0.33895 0.0
H607 H 0.63417 0.7241 0.38174 0.0
H608 H 0.64847 0.75506 0.31992 0.0
C609 C 0.73071 0.76443 0.36984 0.0
C610 C 0.808 0.27384 0.93711 0.0
C611 C 0.81796 0.23843 0.92812 0.0
H612 H 0.78886 0.32103 0.91272 0.0
C613 C 0.81939 0.22427 0.88641 0.0
H614 H 0.80663 0.28542 0.96899 0.0
C615 C 0.80975 0.24473 0.85435 0.0
C616 C 0.79797 0.27956 0.86346 0.0
H617 H 0.82723 0.1971 0.87859 0.0
H618 H 0.80989 0.23281 0.82257 0.0
C619 C 0.79773 0.29415 0.90503 0.0
C620 C 0.23787 0.23643 0.53472 0.0
C621 C 0.24958 0.26751 0.51882 0.0
H622 H 0.2 0.19377 0.52981 0.0
C623 C 0.23266 0.27866 0.48331 0.0
H624 H 0.25032 0.22775 0.56257 0.0
C625 C 0.20482 0.25847 0.46328 0.0
C626 C 0.1924 0.22735 0.47929 0.0
H627 H 0.24152 0.3026 0.47057 0.0
H628 H 0.19354 0.26717 0.4349 0.0
C629 C 0.20917 0.21687 0.51562 0.0
C630 C 0.28039 0.77364 0.0244 0.0
C631 C 0.24823 0.78267 0.00394 0.0
H632 H 0.33224 0.74755 0.01887 0.0
C633 C 0.24568 0.77566 0.96059 0.0
H634 H 0.28304 0.77886 0.05785 0.0
C635 C 0.27399 0.7586 0.93825 0.0
C636 C 0.30526 0.74741 0.95881 0.0
H637 H 0.2215 0.78301 0.94391 0.0
H638 H 0.27095 0.75347 0.90484 0.0
C639 C 0.30861 0.75592 0.00204 0.0
loop_
_geom_bond_atom_site_label_1
_geom_bond_atom_site_label_2
_geom_bond_distance
_geom_bond_site_symmetry_2
_ccdc_geom_bond_type
Fe0 O2 1.918 . S
Fe0 O5 1.997 . S
Fe0 O6 2.002 . S
Fe0 O11 1.976 . S
Fe0 O14 1.996 . S
Fe1 O2 1.918 . S
Fe1 O9 1.997 . S
Fe1 O12 1.996 . S
Fe1 O16 1.979 . S
Fe1 O19 2.002 . S
O2 Fe0 1.918 . S
O2 Fe1 1.918 . S
O2 Fe3 1.918 . S
Fe3 O2 1.918 . S
Fe3 O4 2.002 . S
Fe3 O13 1.976 . S
Fe3 O17 1.996 1_554 S
Fe3 O20 1.997 . S
O4 Fe3 2.002 . S
O4 C21 1.295 . S
O5 Fe0 1.997 . S
O5 C21 1.235 . S
O6 Fe0 2.002 . S
O6 C7 1.295 . S
C7 O6 1.295 . S
C7 O9 1.235 . S
C8 O13 1.287 . S
C8 O14 1.255 . S
O9 Fe1 1.997 . S
O9 C7 1.235 . S
C10 O16 1.285 1_556 S
C10 O17 1.255 . S
O11 Fe0 1.976 . S
O11 C18 1.287 . S
O12 Fe1 1.996 . S
O12 C18 1.255 . S
O13 Fe3 1.976 . S
O13 C8 1.287 . S
O14 Fe0 1.996 . S
O14 C8 1.255 . S
C15 O19 1.295 . S
C15 O20 1.235 . S
O16 Fe1 1.979 . S
O16 C10 1.285 1_554 S
O17 Fe3 1.996 1_556 S
O17 C10 1.255 . S
C18 O11 1.287 . S
C18 O12 1.255 . S
O19 Fe1 2.002 . S
O19 C15 1.295 . S
O20 Fe3 1.997 . S
O20 C15 1.235 . S
C21 O4 1.295 . S
C21 O5 1.235 . S
Fe22 O24 1.918 . S
Fe22 O27 1.997 . S
Fe22 O28 2.002 . S
Fe22 O33 1.976 . S
Fe22 O36 1.996 . S
Fe23 O24 1.918 . S
Fe23 O31 1.997 . S
Fe23 O34 1.996 . S
Fe23 O38 1.976 . S
Fe23 O41 2.002 . S
O24 Fe22 1.918 . S
O24 Fe23 1.918 . S
O24 Fe25 1.918 . S
Fe25 O24 1.918 . S
Fe25 O26 2.002 . S
Fe25 O35 1.976 . S
Fe25 O39 1.996 . S
Fe25 O42 1.997 . S
O26 Fe25 2.002 . S
O26 C43 1.295 . S
O27 Fe22 1.997 . S
O27 C43 1.235 . S
O28 Fe22 2.002 . S
O28 C29 1.295 . S
C29 O28 1.295 . S
C29 O31 1.235 . S
C30 O35 1.287 . S
C30 O36 1.255 . S
O31 Fe23 1.997 . S
O31 C29 1.235 . S
C32 O38 1.287 . S
C32 O39 1.255 . S
O33 Fe22 1.976 . S
O33 C40 1.287 . S
O34 Fe23 1.996 . S
O34 C40 1.255 . S
O35 Fe25 1.976 . S
O35 C30 1.287 . S
O36 Fe22 1.996 . S
O36 C30 1.255 . S
C37 O41 1.295 . S
C37 O42 1.235 . S
O38 Fe23 1.976 . S
O38 C32 1.287 . S
O39 Fe25 1.996 . S
O39 C32 1.255 . S
C40 O33 1.287 . S
C40 O34 1.255 . S
O41 Fe23 2.002 . S
O41 C37 1.295 . S
O42 Fe25 1.997 . S
O42 C37 1.235 . S
C43 O26 1.295 . S
C43 O27 1.235 . S
Fe44 O46 1.918 . S
Fe44 O49 1.997 1_554 S
Fe44 O50 2.002 . S
Fe44 O55 1.976 . S
Fe44 O58 1.996 . S
Fe45 O46 1.918 . S
Fe45 O53 1.994 1_554 S
Fe45 O56 1.996 . S
Fe45 O60 1.976 . S
Fe45 O63 2.002 1_554 S
O46 Fe44 1.918 . S
O46 Fe45 1.918 . S
O46 Fe47 1.918 1_554 S
Fe47 O46 1.918 1_556 S
Fe47 O48 2.002 . S
Fe47 O57 1.976 1_556 S
Fe47 O61 1.996 1_556 S
Fe47 O64 1.997 . S
O48 Fe47 2.002 . S
O48 C65 1.295 . S
O49 Fe44 1.997 1_556 S
O49 C65 1.235 . S
O50 Fe44 2.002 . S
O50 C51 1.295 1_554 S
C51 O50 1.295 1_556 S
C51 O53 1.237 . S
C52 O57 1.287 . S
C52 O58 1.255 . S
O53 Fe45 1.994 1_556 S
O53 C51 1.237 . S
C54 O60 1.287 . S
C54 O61 1.255 . S
O55 Fe44 1.976 . S
O55 C62 1.287 . S
O56 Fe45 1.996 . S
O56 C62 1.255 . S
O57 Fe47 1.976 1_554 S
O57 C52 1.287 . S
O58 Fe44 1.996 . S
O58 C52 1.255 . S
C59 O63 1.295 . S
C59 O64 1.235 . S
O60 Fe45 1.976 . S
O60 C54 1.287 . S
O61 Fe47 1.996 1_554 S
O61 C54 1.255 . S
C62 O55 1.287 . S
C62 O56 1.255 . S
O63 Fe45 2.002 1_556 S
O63 C59 1.295 . S
O64 Fe47 1.997 . S
O64 C59 1.235 . S
C65 O48 1.295 . S
C65 O49 1.235 . S
Fe66 O68 1.918 . S
Fe66 O71 1.997 . S
Fe66 O72 2.002 . S
Fe66 O77 1.976 . S
Fe66 O80 1.996 . S
Fe67 O68 1.918 . S
Fe67 O75 1.997 . S
Fe67 O78 1.996 . S
Fe67 O82 1.976 . S
Fe67 O85 2.002 . S
O68 Fe66 1.918 . S
O68 Fe67 1.918 . S
O68 Fe69 1.918 . S
Fe69 O68 1.918 . S
Fe69 O70 2.002 . S
Fe69 O79 1.976 . S
Fe69 O83 1.996 . S
Fe69 O86 1.997 . S
O70 Fe69 2.002 . S
O70 C87 1.295 . S
O71 Fe66 1.997 . S
O71 C87 1.235 . S
O72 Fe66 2.002 . S
O72 C73 1.295 . S
C73 O72 1.295 . S
C73 O75 1.235 . S
C74 O79 1.287 . S
C74 O80 1.255 . S
O75 Fe67 1.997 . S
O75 C73 1.235 . S
C76 O82 1.287 . S
C76 O83 1.255 . S
O77 Fe66 1.976 . S
O77 C84 1.287 . S
O78 Fe67 1.996 . S
O78 C84 1.255 . S
O79 Fe69 1.976 . S
O79 C74 1.287 . S
O80 Fe66 1.996 . S
O80 C74 1.255 . S
C81 O85 1.295 . S
C81 O86 1.235 . S
O82 Fe67 1.976 . S
O82 C76 1.287 . S
O83 Fe69 1.996 . S
O83 C76 1.255 . S
C84 O77 1.287 . S
C84 O78 1.255 . S
O85 Fe67 2.002 . S
O85 C81 1.295 . S
O86 Fe69 1.997 . S
O86 C81 1.235 . S
C87 O70 1.295 . S
C87 O71 1.235 . S
C88 C89 1.386 . S
C88 C90 1.397 1_655 S
C88 H112 0.931 . S
C89 C88 1.386 . S
C89 C93 1.397 . S
C90 C88 1.397 1_455 S
C90 C91 1.384 . S
C90 H113 0.930 . S
C91 C90 1.384 . S
C91 C92 1.377 1_455 S
C91 C94 1.481 . S
C92 C91 1.377 1_655 S
C92 C93 1.389 . S
C92 H114 0.929 . S
C93 C89 1.397 . S
C93 C92 1.389 . S
C93 H115 0.931 . S
C94 C91 1.481 . S
C94 C95 1.387 . S
C94 C99 1.390 . S
C95 C94 1.387 . S
C95 C96 1.401 . S
C95 H116 0.930 . S
C96 C95 1.401 . S
C96 C97 1.376 . S
C96 C105 1.511 . S
C97 C96 1.376 . S
C97 C98 1.392 . S
C97 H118 0.931 . S
C98 C97 1.392 . S
C98 C99 1.361 . S
C98 C100 1.500 . S
C99 C94 1.390 . S
C99 C98 1.361 . S
C99 H117 0.931 . S
C100 C98 1.500 . S
C100 C101 1.371 . S
C100 C102 1.365 . S
C101 C100 1.371 . S
C101 C111 1.386 . S
C101 H119 0.931 . S
C102 C100 1.365 . S
C102 C103 1.409 . S
C102 H120 0.929 . S
C103 C102 1.409 . S
C103 C104 1.380 1_545 S
C103 H121 0.930 1_545 S
C104 C103 1.380 1_565 S
C104 C111 1.357 1_565 S
C105 C96 1.511 . S
C105 C106 1.341 . S
C105 C107 1.371 . S
C106 C105 1.341 . S
C106 C110 1.394 . S
C106 H122 0.930 . S
C107 C105 1.371 . S
C107 C108 1.392 . S
C107 H123 0.931 . S
C108 C107 1.392 . S
C108 C109 1.331 . S
C108 H126 0.932 . S
C109 C108 1.331 . S
C109 C110 1.336 . S
C110 C106 1.394 . S
C110 C109 1.336 . S
C110 H125 0.929 . S
C111 C101 1.386 . S
C111 C104 1.357 1_545 S
C111 H124 0.928 . S
H112 C88 0.931 . S
H113 C90 0.930 . S
H114 C92 0.929 . S
H115 C93 0.931 . S
H116 C95 0.930 . S
H117 C99 0.931 . S
H118 C97 0.931 . S
H119 C101 0.931 . S
H120 C102 0.929 . S
H121 C103 0.930 1_565 S
H122 C106 0.930 . S
H123 C107 0.931 . S
H124 C111 0.928 . S
H125 C110 0.929 . S
H126 C108 0.932 . S
C127 C128 1.386 . S
C127 C129 1.397 . S
C127 H151 0.931 . S
C128 C127 1.386 . S
C128 C132 1.397 . S
C129 C127 1.397 . S
C129 C130 1.384 . S
C129 H152 0.930 . S
C130 C129 1.384 . S
C130 C131 1.377 . S
C130 C133 1.481 . S
C131 C130 1.377 . S
C131 C132 1.389 . S
C131 H153 0.929 . S
C132 C128 1.397 . S
C132 C131 1.389 . S
C132 H154 0.931 . S
C133 C130 1.481 . S
C133 C134 1.387 . S
C133 C138 1.390 . S
C134 C133 1.387 . S
C134 C135 1.401 . S
C134 H155 0.930 . S
C135 C134 1.401 . S
C135 C136 1.376 . S
C135 C144 1.511 . S
C136 C135 1.376 . S
C136 C137 1.392 . S
C136 H157 0.931 . S
C137 C136 1.392 . S
C137 C138 1.361 . S
C137 C139 1.500 . S
C138 C133 1.390 . S
C138 C137 1.361 . S
C138 H156 0.931 . S
C139 C137 1.500 . S
C139 C140 1.371 . S
C139 C141 1.365 . S
C140 C139 1.371 . S
C140 C150 1.386 . S
C140 H158 0.931 . S
C141 C139 1.365 . S
C141 C142 1.409 . S
C141 H159 0.929 . S
C142 C141 1.409 . S
C142 C143 1.380 . S
C142 H160 0.930 . S
C143 C142 1.380 . S
C143 C150 1.357 . S
C144 C135 1.511 . S
C144 C145 1.341 . S
C144 C146 1.371 . S
C145 C144 1.341 . S
C145 C149 1.394 . S
C145 H161 0.930 . S
C146 C144 1.371 . S
C146 C147 1.392 . S
C146 H162 0.931 . S
C147 C146 1.392 . S
C147 C148 1.331 . S
C147 H165 0.932 . S
C148 C147 1.331 . S
C148 C149 1.336 . S
C149 C145 1.394 . S
C149 C148 1.336 . S
C149 H164 0.929 . S
C150 C140 1.386 . S
C150 C143 1.357 . S
C150 H163 0.928 . S
H151 C127 0.931 . S
H152 C129 0.930 . S
H153 C131 0.929 . S
H154 C132 0.931 . S
H155 C134 0.930 . S
H156 C138 0.931 . S
H157 C136 0.931 . S
H158 C140 0.931 . S
H159 C141 0.929 . S
H160 C142 0.930 . S
H161 C145 0.930 . S
H162 C146 0.931 . S
H163 C150 0.928 . S
H164 C149 0.929 . S
H165 C147 0.932 . S
C166 C167 1.386 . S
C166 C168 1.397 . S
C166 H190 0.931 . S
C167 C166 1.386 . S
C167 C171 1.397 . S
C168 C166 1.397 . S
C168 C169 1.384 . S
C168 H191 0.930 . S
C169 C168 1.384 . S
C169 C170 1.377 . S
C169 C172 1.481 . S
C170 C169 1.377 . S
C170 C171 1.389 . S
C170 H192 0.929 . S
C171 C167 1.397 . S
C171 C170 1.389 . S
C171 H193 0.931 . S
C172 C169 1.481 . S
C172 C173 1.387 . S
C172 C177 1.390 . S
C173 C172 1.387 . S
C173 C174 1.401 . S
C173 H194 0.930 . S
C174 C173 1.401 . S
C174 C175 1.376 . S
C174 C183 1.511 . S
C175 C174 1.376 . S
C175 C176 1.392 . S
C175 H196 0.931 . S
C176 C175 1.392 . S
C176 C177 1.361 . S
C176 C178 1.500 . S
C177 C172 1.390 . S
C177 C176 1.361 . S
C177 H195 0.931 . S
C178 C176 1.500 . S
C178 C179 1.371 . S
C178 C180 1.365 . S
C179 C178 1.371 . S
C179 C189 1.386 . S
C179 H197 0.931 . S
C180 C178 1.365 . S
C180 C181 1.409 . S
C180 H198 0.929 . S
C181 C180 1.409 . S
C181 C182 1.380 . S
C181 H199 0.930 . S
C182 C181 1.380 . S
C182 C189 1.357 . S
C183 C174 1.511 . S
C183 C184 1.341 . S
C183 C185 1.371 . S
C184 C183 1.341 . S
C184 C188 1.394 . S
C184 H200 0.930 . S
C185 C183 1.371 . S
C185 C186 1.392 . S
C185 H201 0.931 . S
C186 C185 1.392 . S
C186 C187 1.331 . S
C186 H204 0.932 . S
C187 C186 1.331 . S
C187 C188 1.336 . S
C188 C184 1.394 . S
C188 C187 1.336 . S
C188 H203 0.929 . S
C189 C179 1.386 . S
C189 C182 1.357 . S
C189 H202 0.928 . S
H190 C166 0.931 . S
H191 C168 0.930 . S
H192 C170 0.929 . S
H193 C171 0.931 . S
H194 C173 0.930 . S
H195 C177 0.931 . S
H196 C175 0.931 . S
H197 C179 0.931 . S
H198 C180 0.929 . S
H199 C181 0.930 . S
H200 C184 0.930 . S
H201 C185 0.931 . S
H202 C189 0.928 . S
H203 C188 0.929 . S
H204 C186 0.932 . S
C205 C206 1.386 . S
C205 C207 1.397 . S
C205 H229 0.931 . S
C206 C205 1.386 . S
C206 C210 1.397 . S
C207 C205 1.397 . S
C207 C208 1.384 . S
C207 H230 0.930 . S
C208 C207 1.384 . S
C208 C209 1.377 . S
C208 C211 1.481 . S
C209 C208 1.377 . S
C209 C210 1.389 . S
C209 H231 0.929 . S
C210 C206 1.397 . S
C210 C209 1.389 . S
C210 H232 0.931 . S
C211 C208 1.481 . S
C211 C212 1.387 . S
C211 C216 1.390 . S
C212 C211 1.387 . S
C212 C213 1.401 . S
C212 H233 0.930 . S
C213 C212 1.401 . S
C213 C214 1.376 . S
C213 C222 1.511 . S
C214 C213 1.376 . S
C214 C215 1.392 . S
C214 H235 0.931 . S
C215 C214 1.392 . S
C215 C216 1.361 . S
C215 C217 1.500 . S
C216 C211 1.390 . S
C216 C215 1.361 . S
C216 H234 0.931 . S
C217 C215 1.500 . S
C217 C218 1.371 . S
C217 C219 1.365 . S
C218 C217 1.371 . S
C218 C228 1.386 . S
C218 H236 0.931 . S
C219 C217 1.365 . S
C219 C220 1.409 . S
C219 H237 0.929 . S
C220 C219 1.409 . S
C220 C221 1.380 . S
C220 H238 0.930 . S
C221 C220 1.380 . S
C221 C228 1.357 . S
C222 C213 1.511 . S
C222 C223 1.341 . S
C222 C224 1.371 . S
C223 C222 1.341 . S
C223 C227 1.394 . S
C223 H239 0.930 . S
C224 C222 1.371 . S
C224 C225 1.392 . S
C224 H240 0.931 . S
C225 C224 1.392 . S
C225 C226 1.331 . S
C225 H243 0.932 . S
C226 C225 1.331 . S
C226 C227 1.336 . S
C227 C223 1.394 . S
C227 C226 1.336 . S
C227 H242 0.929 . S
C228 C218 1.386 . S
C228 C221 1.357 . S
C228 H241 0.928 . S
H229 C205 0.931 . S
H230 C207 0.930 . S
H231 C209 0.929 . S
H232 C210 0.931 . S
H233 C212 0.930 . S
H234 C216 0.931 . S
H235 C214 0.931 . S
H236 C218 0.931 . S
H237 C219 0.929 . S
H238 C220 0.930 . S
H239 C223 0.930 . S
H240 C224 0.931 . S
H241 C228 0.928 . S
H242 C227 0.929 . S
H243 C225 0.932 . S
C244 C245 1.386 . S
C244 C246 1.397 . S
C244 H268 0.931 . S
C245 C244 1.386 . S
C245 C249 1.397 . S
C246 C244 1.397 . S
C246 C247 1.384 . S
C246 H269 0.930 . S
C247 C246 1.384 . S
C247 C248 1.377 . S
C247 C250 1.481 . S
C248 C247 1.377 . S
C248 C249 1.389 . S
C248 H270 0.929 . S
C249 C245 1.397 . S
C249 C248 1.389 . S
C249 H271 0.931 . S
C250 C247 1.481 . S
C250 C251 1.387 . S
C250 C255 1.390 . S
C251 C250 1.387 . S
C251 C252 1.401 . S
C251 H272 0.930 . S
C252 C251 1.401 . S
C252 C253 1.376 . S
C252 C261 1.511 . S
C253 C252 1.376 . S
C253 C254 1.392 . S
C253 H274 0.931 . S
C254 C253 1.392 . S
C254 C255 1.361 . S
C254 C256 1.500 . S
C255 C250 1.390 . S
C255 C254 1.361 . S
C255 H273 0.931 . S
C256 C254 1.500 . S
C256 C257 1.371 . S
C256 C258 1.365 . S
C257 C256 1.371 . S
C257 C267 1.386 . S
C257 H275 0.931 . S
C258 C256 1.365 . S
C258 C259 1.409 . S
C258 H276 0.929 . S
C259 C258 1.409 . S
C259 C260 1.380 . S
C259 H277 0.930 . S
C260 C259 1.380 . S
C260 C267 1.357 . S
C261 C252 1.511 . S
C261 C262 1.341 . S
C261 C263 1.371 . S
C262 C261 1.341 . S
C262 C266 1.394 . S
C262 H278 0.930 . S
C263 C261 1.371 . S
C263 C264 1.392 . S
C263 H279 0.931 . S
C264 C263 1.392 . S
C264 C265 1.331 . S
C264 H282 0.932 . S
C265 C264 1.331 . S
C265 C266 1.336 . S
C266 C262 1.394 . S
C266 C265 1.336 . S
C266 H281 0.929 . S
C267 C257 1.386 . S
C267 C260 1.357 . S
C267 H280 0.928 . S
H268 C244 0.931 . S
H269 C246 0.930 . S
H270 C248 0.929 . S
H271 C249 0.931 . S
H272 C251 0.930 . S
H273 C255 0.931 . S
H274 C253 0.931 . S
H275 C257 0.931 . S
H276 C258 0.929 . S
H277 C259 0.930 . S
H278 C262 0.930 . S
H279 C263 0.931 . S
H280 C267 0.928 . S
H281 C266 0.929 . S
H282 C264 0.932 . S
C283 C284 1.386 . S
C283 C285 1.397 . S
C283 H307 0.931 . S
C284 C283 1.386 . S
C284 C288 1.397 1_556 S
C285 C283 1.397 . S
C285 C286 1.384 . S
C285 H308 0.930 . S
C286 C285 1.384 . S
C286 C287 1.377 . S
C286 C289 1.481 . S
C287 C286 1.377 . S
C287 C288 1.389 1_556 S
C287 H309 0.929 1_556 S
C288 C284 1.397 1_554 S
C288 C287 1.389 1_554 S
C288 H310 0.931 . S
C289 C286 1.481 . S
C289 C290 1.387 . S
C289 C294 1.390 . S
C290 C289 1.387 . S
C290 C291 1.401 . S
C290 H311 0.930 . S
C291 C290 1.401 . S
C291 C292 1.376 . S
C291 C300 1.511 . S
C292 C291 1.376 . S
C292 C293 1.392 . S
C292 H313 0.931 . S
C293 C292 1.392 . S
C293 C294 1.361 . S
C293 C295 1.500 . S
C294 C289 1.390 . S
C294 C293 1.361 . S
C294 H312 0.931 . S
C295 C293 1.500 . S
C295 C296 1.371 . S
C295 C297 1.365 . S
C296 C295 1.371 . S
C296 C306 1.386 . S
C296 H314 0.931 . S
C297 C295 1.365 . S
C297 C298 1.409 1_556 S
C297 H315 0.929 1_556 S
C298 C297 1.409 1_554 S
C298 C299 1.380 1_554 S
C298 H316 0.930 . S
C299 C298 1.380 1_556 S
C299 C306 1.357 . S
C300 C291 1.511 . S
C300 C301 1.341 . S
C300 C302 1.371 . S
C301 C300 1.341 . S
C301 C305 1.394 . S
C301 H317 0.930 . S
C302 C300 1.371 . S
C302 C303 1.392 . S
C302 H318 0.931 . S
C303 C302 1.392 . S
C303 C304 1.331 . S
C303 H321 0.932 . S
C304 C303 1.331 . S
C304 C305 1.336 . S
C305 C301 1.394 . S
C305 C304 1.336 . S
C305 H320 0.929 . S
C306 C296 1.386 . S
C306 C299 1.357 . S
C306 H319 0.928 . S
H307 C283 0.931 . S
H308 C285 0.930 . S
H309 C287 0.929 1_554 S
H310 C288 0.931 . S
H311 C290 0.930 . S
H312 C294 0.931 . S
H313 C292 0.931 . S
H314 C296 0.931 . S
H315 C297 0.929 1_554 S
H316 C298 0.930 . S
H317 C301 0.930 . S
H318 C302 0.931 . S
H319 C306 0.928 . S
H320 C305 0.929 . S
H321 C303 0.932 . S
C322 C323 1.386 . S
C322 C324 1.397 . S
C322 H346 0.931 . S
C323 C322 1.386 . S
C323 C327 1.397 . S
C324 C322 1.397 . S
C324 C325 1.384 . S
C324 H347 0.930 . S
C325 C324 1.384 . S
C325 C326 1.377 . S
C325 C328 1.481 . S
C326 C325 1.377 . S
C326 C327 1.389 . S
C326 H348 0.929 . S
C327 C323 1.397 . S
C327 C326 1.389 . S
C327 H349 0.931 . S
C328 C325 1.481 . S
C328 C329 1.387 . S
C328 C333 1.390 . S
C329 C328 1.387 . S
C329 C330 1.401 . S
C329 H350 0.930 . S
C330 C329 1.401 . S
C330 C331 1.376 . S
C330 C339 1.511 . S
C331 C330 1.376 . S
C331 C332 1.392 . S
C331 H352 0.931 . S
C332 C331 1.392 . S
C332 C333 1.361 . S
C332 C334 1.500 . S
C333 C328 1.390 . S
C333 C332 1.361 . S
C333 H351 0.931 . S
C334 C332 1.500 . S
C334 C335 1.371 . S
C334 C336 1.365 . S
C335 C334 1.371 . S
C335 C345 1.386 . S
C335 H353 0.931 . S
C336 C334 1.365 . S
C336 C337 1.409 . S
C336 H354 0.929 . S
C337 C336 1.409 . S
C337 C338 1.380 . S
C337 H355 0.930 . S
C338 C337 1.380 . S
C338 C345 1.357 . S
C339 C330 1.511 . S
C339 C340 1.341 . S
C339 C341 1.371 . S
C340 C339 1.341 . S
C340 C344 1.394 . S
C340 H356 0.930 . S
C341 C339 1.371 . S
C341 C342 1.392 . S
C341 H357 0.931 . S
C342 C341 1.392 . S
C342 C343 1.331 . S
C342 H360 0.932 . S
C343 C342 1.331 . S
C343 C344 1.336 . S
C344 C340 1.394 . S
C344 C343 1.336 . S
C344 H359 0.929 . S
C345 C335 1.386 . S
C345 C338 1.357 . S
C345 H358 0.928 . S
H346 C322 0.931 . S
H347 C324 0.930 . S
H348 C326 0.929 . S
H349 C327 0.931 . S
H350 C329 0.930 . S
H351 C333 0.931 . S
H352 C331 0.931 . S
H353 C335 0.931 . S
H354 C336 0.929 . S
H355 C337 0.930 . S
H356 C340 0.930 . S
H357 C341 0.931 . S
H358 C345 0.928 . S
H359 C344 0.929 . S
H360 C342 0.932 . S
C361 C362 1.386 . S
C361 C363 1.397 . S
C361 H385 0.931 . S
C362 C361 1.386 . S
C362 C366 1.397 . S
C363 C361 1.397 . S
C363 C364 1.384 1_455 S
C363 H386 0.930 . S
C364 C363 1.384 1_655 S
C364 C365 1.377 . S
C364 C367 1.481 . S
C365 C364 1.377 . S
C365 C366 1.389 1_655 S
C365 H387 0.929 . S
C366 C362 1.397 . S
C366 C365 1.389 1_455 S
C366 H388 0.931 . S
C367 C364 1.481 . S
C367 C368 1.387 . S
C367 C372 1.390 . S
C368 C367 1.387 . S
C368 C369 1.401 . S
C368 H389 0.930 . S
C369 C368 1.401 . S
C369 C370 1.376 . S
C369 C378 1.511 . S
C370 C369 1.376 . S
C370 C371 1.392 . S
C370 H391 0.931 . S
C371 C370 1.392 . S
C371 C372 1.361 . S
C371 C373 1.500 . S
C372 C367 1.390 . S
C372 C371 1.361 . S
C372 H390 0.931 . S
C373 C371 1.500 . S
C373 C374 1.371 . S
C373 C375 1.365 . S
C374 C373 1.371 . S
C374 C384 1.386 . S
C374 H392 0.931 . S
C375 C373 1.365 . S
C375 C376 1.409 . S
C375 H393 0.929 . S
C376 C375 1.409 . S
C376 C377 1.380 1_565 S
C376 H394 0.930 . S
C377 C376 1.380 1_545 S
C377 C384 1.357 1_545 S
C378 C369 1.511 . S
C378 C379 1.341 . S
C378 C380 1.371 . S
C379 C378 1.341 . S
C379 C383 1.394 . S
C379 H395 0.930 . S
C380 C378 1.371 . S
C380 C381 1.392 . S
C380 H396 0.931 . S
C381 C380 1.392 . S
C381 C382 1.331 . S
C381 H399 0.932 . S
C382 C381 1.331 . S
C382 C383 1.336 . S
C383 C379 1.394 . S
C383 C382 1.336 . S
C383 H398 0.929 . S
C384 C374 1.386 . S
C384 C377 1.357 1_565 S
C384 H397 0.928 1_565 S
H385 C361 0.931 . S
H386 C363 0.930 . S
H387 C365 0.929 . S
H388 C366 0.931 . S
H389 C368 0.930 . S
H390 C372 0.931 . S
H391 C370 0.931 . S
H392 C374 0.931 . S
H393 C375 0.929 . S
H394 C376 0.930 . S
H395 C379 0.930 . S
H396 C380 0.931 . S
H397 C384 0.928 1_545 S
H398 C383 0.929 . S
H399 C381 0.932 . S
C400 C401 1.387 . S
C400 H404 0.950 . S
C400 C409 1.390 . S
C401 C400 1.387 . S
C401 C403 1.387 . S
H402 C409 0.950 . S
C403 C401 1.387 . S
C403 C405 1.390 . S
C403 H407 0.950 . S
H404 C400 0.950 . S
C405 C403 1.390 . S
C405 C406 1.387 . S
C405 H408 0.950 . S
C406 C405 1.387 . S
C406 C409 1.387 . S
H407 C403 0.950 . S
H408 C405 0.950 . S
C409 C400 1.390 . S
C409 H402 0.950 . S
C409 C406 1.387 . S
C410 C411 1.387 . S
C410 H414 0.950 . S
C410 C419 1.390 . S
C411 C410 1.387 . S
C411 C413 1.387 . S
H412 C419 0.950 . S
C413 C411 1.387 . S
C413 C415 1.390 . S
C413 H417 0.950 . S
H414 C410 0.950 . S
C415 C413 1.390 . S
C415 C416 1.387 . S
C415 H418 0.950 . S
C416 C415 1.387 . S
C416 C419 1.387 . S
H417 C413 0.950 . S
H418 C415 0.950 . S
C419 C410 1.390 . S
C419 H412 0.950 . S
C419 C416 1.387 . S
C420 C421 1.387 . S
C420 H424 0.950 . S
C420 C429 1.390 . S
C421 C420 1.387 . S
C421 C423 1.387 . S
H422 C429 0.950 . S
C423 C421 1.387 . S
C423 C425 1.390 1_545 S
C423 H427 0.950 . S
H424 C420 0.950 . S
C425 C423 1.390 1_565 S
C425 C426 1.387 . S
C425 H428 0.950 . S
C426 C425 1.387 . S
C426 C429 1.387 1_565 S
H427 C423 0.950 . S
H428 C425 0.950 . S
C429 C420 1.390 . S
C429 H422 0.950 . S
C429 C426 1.387 1_545 S
C430 C431 1.387 . S
C430 H434 0.950 . S
C430 C439 1.390 . S
C431 C430 1.387 . S
C431 C433 1.387 . S
H432 C439 0.950 . S
C433 C431 1.387 . S
C433 C435 1.390 . S
C433 H437 0.950 . S
H434 C430 0.950 . S
C435 C433 1.390 . S
C435 C436 1.387 . S
C435 H438 0.950 . S
C436 C435 1.387 . S
C436 C439 1.387 . S
H437 C433 0.950 . S
H438 C435 0.950 . S
C439 C430 1.390 . S
C439 H432 0.950 . S
C439 C436 1.387 . S
C440 C441 1.387 . S
C440 H444 0.950 . S
C440 C449 1.390 . S
C441 C440 1.387 . S
C441 C443 1.387 . S
H442 C449 0.950 . S
C443 C441 1.387 . S
C443 C445 1.390 . S
C443 H447 0.950 . S
H444 C440 0.950 . S
C445 C443 1.390 . S
C445 C446 1.387 . S
C445 H448 0.950 . S
C446 C445 1.387 . S
C446 C449 1.387 . S
H447 C443 0.950 . S
H448 C445 0.950 . S
C449 C440 1.390 . S
C449 H442 0.950 . S
C449 C446 1.387 . S
C450 C451 1.387 1_554 S
C450 H454 0.950 . S
C450 C459 1.390 1_655 S
C451 C450 1.387 1_556 S
C451 C453 1.387 . S
H452 C459 0.950 . S
C453 C451 1.387 . S
C453 C455 1.390 1_655 S
C453 H457 0.950 . S
H454 C450 0.950 . S
C455 C453 1.390 1_455 S
C455 C456 1.387 . S
C455 H458 0.950 . S
C456 C455 1.387 . S
C456 C459 1.387 1_556 S
H457 C453 0.950 . S
H458 C455 0.950 . S
C459 C450 1.390 1_455 S
C459 H452 0.950 . S
C459 C456 1.387 1_554 S
C460 C461 1.387 . S
C460 H464 0.950 . S
C460 C469 1.390 . S
C461 C460 1.387 . S
C461 C463 1.387 . S
H462 C469 0.950 . S
C463 C461 1.387 . S
C463 C465 1.390 . S
C463 H467 0.950 . S
H464 C460 0.950 . S
C465 C463 1.390 . S
C465 C466 1.387 . S
C465 H468 0.950 . S
C466 C465 1.387 . S
C466 C469 1.387 . S
H467 C463 0.950 . S
H468 C465 0.950 . S
C469 C460 1.390 . S
C469 H462 0.950 . S
C469 C466 1.387 . S
C470 C471 1.387 . S
C470 H474 0.950 . S
C470 C479 1.390 . S
C471 C470 1.387 . S
C471 C473 1.387 . S
H472 C479 0.950 . S
C473 C471 1.387 . S
C473 C475 1.390 . S
C473 H477 0.950 . S
H474 C470 0.950 . S
C475 C473 1.390 . S
C475 C476 1.387 . S
C475 H478 0.950 . S
C476 C475 1.387 . S
C476 C479 1.387 . S
H477 C473 0.950 . S
H478 C475 0.950 . S
C479 C470 1.390 . S
C479 H472 0.950 . S
C479 C476 1.387 . S
C480 C481 1.387 . S
C480 H484 0.950 . S
C480 C489 1.390 . S
C481 C480 1.387 . S
C481 C483 1.387 . S
H482 C489 0.950 . S
C483 C481 1.387 . S
C483 C485 1.390 . S
C483 H487 0.950 . S
H484 C480 0.950 . S
C485 C483 1.390 . S
C485 C486 1.387 . S
C485 H488 0.950 . S
C486 C485 1.387 . S
C486 C489 1.387 . S
H487 C483 0.950 . S
H488 C485 0.950 . S
C489 C480 1.390 . S
C489 H482 0.950 . S
C489 C486 1.387 . S
C490 C491 1.387 . S
C490 H494 0.950 . S
C490 C499 1.390 . S
C491 C490 1.387 . S
C491 C493 1.387 . S
H492 C499 0.950 . S
C493 C491 1.387 . S
C493 C495 1.390 . S
C493 H497 0.950 . S
H494 C490 0.950 . S
C495 C493 1.390 . S
C495 C496 1.387 . S
C495 H498 0.950 . S
C496 C495 1.387 . S
C496 C499 1.387 . S
H497 C493 0.950 . S
H498 C495 0.950 . S
C499 C490 1.390 . S
C499 H492 0.950 . S
C499 C496 1.387 . S
C500 C501 1.387 1_556 S
C500 H504 0.950 . S
C500 C509 1.390 . S
C501 C500 1.387 1_554 S
C501 C503 1.387 . S
H502 C509 0.950 . S
C503 C501 1.387 . S
C503 C505 1.390 1_565 S
C503 H507 0.950 . S
H504 C500 0.950 . S
C505 C503 1.390 1_545 S
C505 C506 1.412 . S
C505 H508 0.950 . S
C506 C505 1.412 . S
C506 C509 1.370 1_544 S
H507 C503 0.950 . S
H508 C505 0.950 . S
C509 C500 1.390 . S
C509 H502 0.950 . S
C509 C506 1.370 1_566 S
C510 C511 1.387 . S
C510 H514 0.950 . S
C510 C519 1.390 . S
C511 C510 1.387 . S
C511 C513 1.387 . S
H512 C519 0.950 . S
C513 C511 1.387 . S
C513 C515 1.390 . S
C513 H517 0.950 . S
H514 C510 0.950 . S
C515 C513 1.390 . S
C515 C516 1.387 . S
C515 H518 0.950 . S
C516 C515 1.387 . S
C516 C519 1.387 . S
H517 C513 0.950 . S
H518 C515 0.950 . S
C519 C510 1.390 . S
C519 H512 0.950 . S
C519 C516 1.387 . S
C520 C521 1.387 . S
C520 H524 0.950 . S
C520 C529 1.390 . S
C521 C520 1.387 . S
C521 C523 1.387 . S
H522 C529 0.950 . S
C523 C521 1.387 . S
C523 C525 1.390 . S
C523 H527 0.950 . S
H524 C520 0.950 . S
C525 C523 1.390 . S
C525 C526 1.387 . S
C525 H528 0.950 . S
C526 C525 1.387 . S
C526 C529 1.387 . S
H527 C523 0.950 . S
H528 C525 0.950 . S
C529 C520 1.390 . S
C529 H522 0.950 . S
C529 C526 1.387 . S
C530 C531 1.387 . S
C530 H534 0.950 . S
C530 C539 1.390 1_455 S
C531 C530 1.387 . S
C531 C533 1.387 . S
H532 C539 0.950 . S
C533 C531 1.387 . S
C533 C535 1.390 1_455 S
C533 H537 0.950 . S
H534 C530 0.950 . S
C535 C533 1.390 1_655 S
C535 C536 1.387 . S
C535 H538 0.950 . S
C536 C535 1.387 . S
C536 C539 1.387 . S
H537 C533 0.950 . S
H538 C535 0.950 . S
C539 C530 1.390 1_655 S
C539 H532 0.950 . S
C539 C536 1.387 . S
C540 C541 1.387 . S
C540 H544 0.950 . S
C540 C549 1.390 . S
C541 C540 1.387 . S
C541 C543 1.387 . S
H542 C549 0.950 . S
C543 C541 1.387 . S
C543 C545 1.390 . S
C543 H547 0.950 . S
H544 C540 0.950 . S
C545 C543 1.390 . S
C545 C546 1.387 . S
C545 H548 0.950 . S
C546 C545 1.387 . S
C546 C549 1.387 . S
H547 C543 0.950 . S
H548 C545 0.950 . S
C549 C540 1.390 . S
C549 H542 0.950 . S
C549 C546 1.387 . S
C550 C551 1.387 . S
C550 H554 0.950 . S
C550 C559 1.390 . S
C551 C550 1.387 . S
C551 C553 1.387 . S
H552 C559 0.950 . S
C553 C551 1.387 . S
C553 C555 1.390 . S
C553 H557 0.950 . S
H554 C550 0.950 . S
C555 C553 1.390 . S
C555 C556 1.387 . S
C555 H558 0.950 . S
C556 C555 1.387 . S
C556 C559 1.387 . S
H557 C553 0.950 . S
H558 C555 0.950 . S
C559 C550 1.390 . S
C559 H552 0.950 . S
C559 C556 1.387 . S
C560 C561 1.387 . S
C560 H564 0.950 . S
C560 C569 1.390 . S
C561 C560 1.387 . S
C561 C563 1.387 . S
H562 C569 0.950 . S
C563 C561 1.387 . S
C563 C565 1.390 . S
C563 H567 0.950 . S
H564 C560 0.950 . S
C565 C563 1.390 . S
C565 C566 1.387 . S
C565 H568 0.950 . S
C566 C565 1.387 . S
C566 C569 1.387 . S
H567 C563 0.950 . S
H568 C565 0.950 . S
C569 C560 1.390 . S
C569 H562 0.950 . S
C569 C566 1.387 . S
C570 C571 1.387 . S
C570 H574 0.950 . S
C570 C579 1.390 . S
C571 C570 1.387 . S
C571 C573 1.387 . S
H572 C579 0.950 . S
C573 C571 1.387 . S
C573 C575 1.390 . S
C573 H577 0.950 . S
H574 C570 0.950 . S
C575 C573 1.390 . S
C575 C576 1.387 . S
C575 H578 0.950 . S
C576 C575 1.387 . S
C576 C579 1.387 . S
H577 C573 0.950 . S
H578 C575 0.950 . S
C579 C570 1.390 . S
C579 H572 0.950 . S
C579 C576 1.387 . S
C580 C581 1.387 . S
C580 H584 0.950 . S
C580 C589 1.390 . S
C581 C580 1.387 . S
C581 C583 1.387 . S
H582 C589 0.950 . S
C583 C581 1.387 . S
C583 C585 1.390 . S
C583 H587 0.950 . S
H584 C580 0.950 . S
C585 C583 1.390 . S
C585 C586 1.387 . S
C585 H588 0.950 . S
C586 C585 1.387 . S
C586 C589 1.387 . S
H587 C583 0.950 . S
H588 C585 0.950 . S
C589 C580 1.390 . S
C589 H582 0.950 . S
C589 C586 1.387 . S
C590 C591 1.387 . S
C590 H594 0.950 . S
C590 C599 1.390 . S
C591 C590 1.387 . S
C591 C593 1.387 . S
H592 C599 0.950 . S
C593 C591 1.387 . S
C593 C595 1.390 . S
C593 H597 0.950 . S
H594 C590 0.950 . S
C595 C593 1.390 . S
C595 C596 1.387 . S
C595 H598 0.950 . S
C596 C595 1.387 . S
C596 C599 1.387 . S
H597 C593 0.950 . S
H598 C595 0.950 . S
C599 C590 1.390 . S
C599 H592 0.950 . S
C599 C596 1.387 . S
C600 C601 1.387 . S
C600 H604 0.950 . S
C600 C609 1.390 . S
C601 C600 1.387 . S
C601 C603 1.387 . S
H602 C609 0.950 . S
C603 C601 1.387 . S
C603 C605 1.390 . S
C603 H607 0.950 . S
H604 C600 0.950 . S
C605 C603 1.390 . S
C605 C606 1.387 . S
C605 H608 0.950 . S
C606 C605 1.387 . S
C606 C609 1.387 . S
H607 C603 0.950 . S
H608 C605 0.950 . S
C609 C600 1.390 . S
C609 H602 0.950 . S
C609 C606 1.387 . S
C610 C611 1.387 . S
C610 H614 0.950 . S
C610 C619 1.390 . S
C611 C610 1.387 . S
C611 C613 1.387 . S
H612 C619 0.950 . S
C613 C611 1.387 . S
C613 C615 1.390 . S
C613 H617 0.950 . S
H614 C610 0.950 . S
C615 C613 1.390 . S
C615 C616 1.387 . S
C615 H618 0.950 . S
C616 C615 1.387 . S
C616 C619 1.387 . S
H617 C613 0.950 . S
H618 C615 0.950 . S
C619 C610 1.390 . S
C619 H612 0.950 . S
C619 C616 1.387 . S
C620 C621 1.387 . S
C620 H624 0.950 . S
C620 C629 1.390 . S
C621 C620 1.387 . S
C621 C623 1.387 . S
H622 C629 0.950 . S
C623 C621 1.387 . S
C623 C625 1.390 . S
C623 H627 0.950 . S
H624 C620 0.950 . S
C625 C623 1.390 . S
C625 C626 1.387 . S
C625 H628 0.950 . S
C626 C625 1.387 . S
C626 C629 1.387 . S
H627 C623 0.950 . S
H628 C625 0.950 . S
C629 C620 1.390 . S
C629 H622 0.950 . S
C629 C626 1.387 . S
C630 C631 1.387 . S
C630 H634 0.950 . S
C630 C639 1.390 . S
C631 C630 1.387 . S
C631 C633 1.387 1_554 S
H632 C639 0.950 . S
C633 C631 1.387 1_556 S
C633 C635 1.390 . S
C633 H637 0.950 . S
H634 C630 0.950 . S
C635 C633 1.390 . S
C635 C636 1.387 . S
C635 H638 0.950 . S
C636 C635 1.387 . S
C636 C639 1.387 1_556 S
H637 C633 0.950 . S
H638 C635 0.950 . S
C639 C630 1.390 . S
C639 H632 0.950 . S
C639 C636 1.387 1_554 S
C401 C7 1.743 . S
C406 C104 1.619 . S
C411 C37 1.780 . S
C416 C143 1.585 . S
C421 C54 1.921 . S
C426 C182 1.726 . S
C436 C206 1.567 . S
C431 C87 1.613 . S
C446 C245 1.582 . S
C441 C30 1.690 . S
C451 C51 1.644 . S
C456 C284 1.592 . S
C461 C84 1.971 . S
C466 C338 1.763 . S
C471 C10 1.728 . S
C476 C362 1.555 . S
C481 C59 1.746 . S
C486 C377 1.620 . S
C496 C260 1.545 . S
C491 C74 1.738 . S
C506 C299 1.758 1_554 S
C501 C18 1.970 . S
C511 C32 1.630 . S
C516 C323 1.562 . S
C526 C128 1.620 . S
C521 C73 1.748 . S
C531 C15 1.629 . S
C536 C167 1.585 . S
C546 C221 1.796 . S
C541 C43 1.979 . S
C556 C89 1.547 . S
C551 C62 1.733 . S
C566 C343 1.658 . S
C561 C21 1.754 . S
C576 C382 1.448 . S
C571 C29 1.473 . S
C581 C52 1.461 . S
C586 C265 1.417 . S
C596 C304 1.617 . S
C591 C81 1.729 . S
C606 C187 1.627 . S
C601 C40 1.691 . S
C611 C65 1.712 . S
C616 C226 1.602 . S
C626 C109 1.403 . S
C621 C76 1.470 . S
C636 C148 1.436 . S
C631 C8 1.496 . S
