# Generated by pormake.
# Topology ftw, (4,12)-cn, num edge types: 1
# Building blocks:
#     Node 0, Type 0, BuildingBlock: NAWXER_clean_linker_0, # of connection points: 4
#     Node 1, Type 0, BuildingBlock: NAWXER_clean_linker_0, # of connection points: 4
#     Node 2, Type 0, BuildingBlock: NAWXER_clean_linker_0, # of connection points: 4
#     Node 3, Type 1, BuildingBlock: QEWDON_clean_sbu_0, # of connection points: 12
#     Edge 4, Type (0, 1), BuildingBlock: KIFKEQ_clean_linker_1, # of connection points: 2
#     Edge 5, Type (0, 1), BuildingBlock: KIFKEQ_clean_linker_1, # of connection points: 2
#     Edge 6, Type (0, 1), BuildingBlock: KIFKEQ_clean_linker_1, # of connection points: 2
#     Edge 7, Type (0, 1), BuildingBlock: KIFKEQ_clean_linker_1, # of connection points: 2
#     Edge 8, Type (0, 1), BuildingBlock: KIFKEQ_clean_linker_1, # of connection points: 2
#     Edge 9, Type (0, 1), BuildingBlock: KIFKEQ_clean_linker_1, # of connection points: 2
#     Edge 10, Type (0, 1), BuildingBlock: KIFKEQ_clean_linker_1, # of connection points: 2
#     Edge 11, Type (0, 1), BuildingBlock: KIFKEQ_clean_linker_1, # of connection points: 2
#     Edge 12, Type (0, 1), BuildingBlock: KIFKEQ_clean_linker_1, # of connection points: 2
#     Edge 13, Type (0, 1), BuildingBlock: KIFKEQ_clean_linker_1, # of connection points: 2
#     Edge 14, Type (0, 1), BuildingBlock: KIFKEQ_clean_linker_1, # of connection points: 2
#     Edge 15, Type (0, 1), BuildingBlock: KIFKEQ_clean_linker_1, # of connection points: 2
# Relax obj value: 0.055
# Max RMSD: 0.158
# Mean RMSD: 0.117
data_MOF--net-ftw--node1-QEWDON_clean_sbu_0--node2-NAWXER_clean_linker_0--edge1-KIFKEQ_clean_linker_1
_symmetry_space_group_name_H-M    P1
_symmetry_Int_Tables_number       1
_symmetry_cell_setting            triclinic
loop_
_symmetry_equiv_pos_as_xyz
'x, y, z'
_cell_length_a     28.535009
_cell_length_b     30.496653
_cell_length_c     29.034623
_cell_angle_alpha  89.749786
_cell_angle_beta   89.848402
_cell_angle_gamma 89.891797
loop_
_atom_site_label
_atom_site_type_symbol
_atom_site_fract_x
_atom_site_fract_y
_atom_site_fract_z
_atom_type_partial_charge
C0 C 0.00022 0.63474 0.61178 0.0
C1 C 0.9647 0.63905 0.64522 0.0
C2 C 0.00022 0.59943 0.58096 0.0
C3 C 0.96485 0.56745 0.58306 0.0
C4 C 0.92887 0.60747 0.6467 0.0
C5 C 0.92929 0.57183 0.61635 0.0
C6 C 0.96704 0.52735 0.55398 0.0
C7 C 0.94118 0.63848 0.45181 0.0
C8 C 0.97071 0.63978 0.41288 0.0
C9 C 0.94293 0.60302 0.48287 0.0
C10 C -0.02492 0.56843 0.47642 0.0
C11 C 0.00332 0.60558 0.40697 0.0
C12 C 0.00541 0.57049 0.4382 0.0
C13 C -0.02564 0.52782 0.50563 0.0
C14 C 0.94741 0.33877 0.45115 0.0
C15 C -0.01898 0.33613 0.41562 0.0
C16 C 0.94657 0.37459 0.48126 0.0
C17 C -0.02043 0.40857 0.47687 0.0
C18 C 0.01434 0.36988 0.41165 0.0
C19 C 0.01336 0.40577 0.44165 0.0
C20 C -0.02333 0.44887 0.5057 0.0
C21 C 0.00379 0.33987 0.61079 0.0
C22 C 0.97051 0.3369 0.64655 0.0
C23 C 0.0028 0.37521 0.57951 0.0
C24 C 0.96802 0.40792 0.5829 0.0
C25 C 0.93504 0.36893 0.64888 0.0
C26 C 0.93395 0.40397 0.61765 0.0
C27 C 0.96917 0.44849 0.55395 0.0
H28 H 0.02831 0.65852 0.60979 0.0
H29 H 0.02867 0.59643 0.55639 0.0
H30 H 0.9014 0.6095 0.67242 0.0
H31 H 0.90197 0.54733 0.61918 0.0
H32 H 0.91526 0.66393 0.45723 0.0
H33 H 0.91773 0.60199 0.51076 0.0
H34 H 0.0271 0.6057 0.37784 0.0
H35 H 0.03045 0.54442 0.43196 0.0
H36 H 0.92132 0.31331 0.45536 0.0
H37 H 0.9192 0.37627 0.50709 0.0
H38 H 0.04024 0.36933 0.38433 0.0
H39 H 0.03882 0.43174 0.43697 0.0
H40 H 0.03181 0.31599 0.60826 0.0
H41 H 0.03028 0.37781 0.55386 0.0
H42 H 0.90844 0.3673 0.67551 0.0
H43 H 0.90674 0.42857 0.62119 0.0
N44 N 0.9645 0.48775 0.57581 0.0
N45 N -0.02094 0.48848 0.48384 0.0
C46 C 0.55727 0.01817 0.68604 0.0
C47 C 0.59579 -0.01062 0.68598 0.0
C48 C 0.52308 0.01566 0.65139 0.0
C49 C 0.52676 0.98394 0.61647 0.0
C50 C 0.5989 0.95719 0.65189 0.0
C51 C 0.56485 0.95455 0.61751 0.0
C52 C 0.49629 0.98489 0.57491 0.0
C53 C 0.38704 0.96047 0.68821 0.0
C54 C 0.34704 -0.01248 0.68656 0.0
C55 C 0.42126 0.96272 0.65338 0.0
C56 C 0.4166 -0.00716 0.61679 0.0
C57 C 0.3431 0.01832 0.65074 0.0
C58 C 0.3775 0.02105 0.61648 0.0
C59 C 0.447 -0.00907 0.575 0.0
C60 C 0.38777 0.95275 0.38136 0.0
C61 C 0.35033 0.98277 0.37837 0.0
C62 C 0.42084 0.95586 0.41696 0.0
C63 C 0.41701 -0.011 0.45033 0.0
C64 C 0.34724 0.01629 0.41139 0.0
C65 C 0.37994 0.01917 0.44697 0.0
C66 C 0.44696 -0.01071 0.49215 0.0
C67 C 0.55367 0.01579 0.37803 0.0
C68 C 0.59314 -0.01206 0.3776 0.0
C69 C 0.52061 0.0134 0.4139 0.0
C70 C 0.5261 0.98285 0.44996 0.0
C71 C 0.59788 0.95694 0.41337 0.0
C72 C 0.56493 0.9545 0.44894 0.0
C73 C 0.49616 0.9839 0.49204 0.0
H74 H 0.55424 0.04319 0.71225 0.0
H75 H 0.49502 0.03959 0.65088 0.0
H76 H 0.62816 0.93449 0.65144 0.0
H77 H 0.56893 0.93003 0.59088 0.0
H78 H 0.39077 0.93622 0.71533 0.0
H79 H 0.44998 0.9395 0.65399 0.0
H80 H 0.31299 0.03995 0.6489 0.0
H81 H 0.37271 0.04446 0.58869 0.0
H82 H 0.39127 0.92665 0.35641 0.0
H83 H 0.44829 0.9314 0.41933 0.0
H84 H 0.31853 0.03957 0.41067 0.0
H85 H 0.37566 0.04461 0.4726 0.0
H86 H 0.54861 0.03988 0.35098 0.0
H87 H 0.49192 0.03666 0.41431 0.0
H88 H 0.62809 0.93546 0.41496 0.0
H89 H 0.57055 0.93106 0.47654 0.0
N90 N 0.51836 0.98171 0.53341 0.0
N91 N 0.42483 -0.00719 0.53355 0.0
C92 C 0.39262 0.34032 1.01131 0.0
C93 C 0.3555 0.3389 0.04298 0.0
C94 C 0.4245 0.37486 1.01258 0.0
C95 C 0.42003 0.40757 0.04627 0.0
C96 C 0.35207 0.37062 0.07755 0.0
C97 C 0.38419 0.40472 0.07922 0.0
C98 C 0.4483 0.44768 0.04414 0.0
C99 C 0.55269 0.34182 0.07194 0.0
C100 C 0.58477 0.33618 0.03587 0.0
C101 C 0.52315 0.37803 0.072 0.0
C102 C 0.52567 0.40862 0.03594 0.0
C103 C 0.58749 0.36686 0.99998 0.0
C104 C 0.55824 0.40324 1.00024 0.0
C105 C 0.49701 0.44809 0.03693 0.0
C106 C 0.55193 0.63313 0.06813 0.0
C107 C 0.58775 0.63526 0.0351 0.0
C108 C 0.52051 0.5982 0.0676 0.0
C109 C 0.52435 0.56582 0.03349 0.0
C110 C 0.58999 0.60411 0.99982 0.0
C111 C 0.55855 0.56953 0.9991 0.0
C112 C 0.49639 0.52566 0.03582 0.0
C113 C 0.39495 0.63225 1.00591 0.0
C114 C 0.36101 0.63773 0.04022 0.0
C115 C 0.42376 0.59562 1.00681 0.0
C116 C 0.41945 0.56499 0.04272 0.0
C117 C 0.35665 0.60719 0.07613 0.0
C118 C 0.38585 0.57083 0.07735 0.0
C119 C 0.44776 0.5253 0.04273 0.0
H120 H 0.39531 0.31621 0.98413 0.0
H121 H 0.45099 0.37713 0.98591 0.0
H122 H 0.32361 0.36976 0.10233 0.0
H123 H 0.38009 0.42977 0.1053 0.0
H124 H 0.55047 0.31817 0.09982 0.0
H125 H 0.49896 0.38251 0.10042 0.0
H126 H 0.61258 0.36289 0.97222 0.0
H127 H 0.56094 0.42715 0.97263 0.0
H128 H 0.54999 0.6569 0.0957 0.0
H129 H 0.49483 0.59538 0.09498 0.0
H130 H 0.61725 0.60565 0.97381 0.0
H131 H 0.56187 0.54487 0.97251 0.0
H132 H 0.39791 0.65539 0.97762 0.0
H133 H 0.44855 0.59072 0.97898 0.0
H134 H 0.33033 0.61126 0.10276 0.0
H135 H 0.38202 0.5471 0.10501 0.0
N136 N 0.42539 0.48644 0.04684 0.0
N137 N 0.51932 0.48698 0.03294 0.0
Zn138 Zn 0.03886 0.05205 0.98706 0.0
Zn139 Zn 0.03896 0.06485 0.10044 0.0
O140 O 0.02247 0.02198 0.0492 0.0
H141 H 0.01515 -0.00871 0.05264 0.0
C142 C 0.96397 0.10704 0.90208 0.0
O143 O -0.01624 0.06831 0.89828 0.0
Zn144 Zn 0.90146 0.90906 0.09962 0.0
Zn145 Zn 0.90097 0.92639 0.98698 0.0
O146 O 0.9165 0.9541 0.04935 0.0
H147 H 0.93342 0.98116 0.05325 0.0
Zn148 Zn 0.9092 0.07316 0.98811 0.0
O149 O 0.94187 0.06811 0.05065 0.0
Zn150 Zn 0.89271 0.0622 0.10085 0.0
H151 H 0.969 0.08658 0.05453 0.0
Zn152 Zn 0.03779 0.90351 0.98702 0.0
O153 O 0.00172 0.9065 0.04876 0.0
H154 H -0.02699 0.88985 0.04984 0.0
Zn155 Zn 0.04907 0.90964 0.10198 0.0
C156 C -0.02388 0.86091 0.90796 0.0
O157 O 0.93756 0.87796 0.92487 0.0
O158 O 0.07623 0.10909 0.99696 0.0
O159 O 0.07777 0.1124 0.07365 0.0
O160 O 0.86056 0.87166 0.99719 0.0
O161 O 0.86606 0.8591 0.07278 0.0
O162 O 0.8407 0.08997 1.00022 0.0
O163 O 0.8342 0.08732 0.07667 0.0
C164 C 0.08674 -0.00381 0.15031 0.0
O165 O 0.10463 0.8834 1.00156 0.0
O166 O 0.10589 0.88236 0.0785 0.0
O167 O 0.87973 0.9603 0.92707 0.0
C168 C 0.08978 0.12681 0.03421 0.0
O169 O 0.06588 0.01827 0.92934 0.0
C170 C 0.85669 0.97659 0.15033 0.0
O171 O 0.93595 0.11434 0.93548 0.0
C172 C 0.85114 0.84903 0.03294 0.0
O173 O 0.01511 0.86802 0.92796 0.0
C174 C 0.95337 0.10683 0.16473 0.0
O175 O 0.08109 0.03713 0.14582 0.0
O176 O 0.06467 0.97123 0.12265 0.0
C177 C 0.81733 0.09579 0.03714 0.0
O178 O 0.86065 0.93535 0.14742 0.0
O179 O 0.87911 3e-05 0.12119 0.0
C180 C -0.01454 0.8683 0.16209 0.0
O181 O 0.91117 0.09785 0.15492 0.0
O182 O -0.01375 0.09077 0.14013 0.0
C183 C 0.12457 0.87463 0.03964 0.0
O184 O 0.02909 0.87375 0.15692 0.0
O185 O 0.95852 0.88719 0.13338 0.0
C186 C 0.84598 -0.01303 0.93241 0.0
O187 O 0.83399 -0.00246 0.97463 0.0
C188 C 0.09768 -0.01076 0.93345 0.0
O189 O 0.1091 0.97594 0.97502 0.0
H190 H 0.90419 0.30169 0.37338 0.0
H191 H 0.05463 0.28881 0.37917 0.0
H192 H 0.90092 0.24534 0.31512 0.0
H193 H 0.05155 0.23042 0.32192 0.0
H194 H 0.03201 0.15636 0.18396 0.0
H195 H 0.04087 0.21011 0.24574 0.0
H196 H 0.90508 0.1729 0.29969 0.0
H197 H 0.89546 0.122 0.23699 0.0
C198 C 0.93661 0.28612 0.36284 0.0
C199 C -0.0204 0.29974 0.38128 0.0
C200 C 0.93483 0.25336 0.32934 0.0
C201 C -0.02406 0.23235 0.31363 0.0
C202 C 0.01908 0.24587 0.33237 0.0
C203 C 0.02089 0.2793 0.3655 0.0
C204 C 0.00427 0.15976 0.20924 0.0
C205 C 0.96269 0.13548 0.20501 0.0
C206 C 0.00933 0.19049 0.24494 0.0
C207 C -0.0268 0.19709 0.27762 0.0
C208 C 0.93302 0.17054 0.27455 0.0
C209 C 0.92764 0.14073 0.23863 0.0
H210 H 0.64293 0.92191 0.33634 0.0
H211 H 0.62826 0.06296 0.33651 0.0
H212 H 0.70914 0.9281 0.28398 0.0
H213 H 0.69442 0.06894 0.2828 0.0
H214 H 0.78731 0.04001 0.14521 0.0
H215 H 0.72209 0.04803 0.20041 0.0
H216 H 0.79034 0.95662 0.29238 0.0
H217 H 0.85452 0.94883 0.23792 0.0
C218 C 0.65379 0.95432 0.32534 0.0
C219 C 0.63046 -0.00806 0.34146 0.0
C220 C 0.69185 0.95787 0.29518 0.0
C221 C 0.70768 -0.00089 0.27984 0.0
C222 C 0.68315 0.03673 0.29405 0.0
C223 C 0.64508 0.0332 0.32469 0.0
C224 C 0.7891 0.02318 0.17806 0.0
C225 C 0.82592 -0.00622 0.18725 0.0
C226 C 0.75158 0.02735 0.20947 0.0
C227 C 0.75042 0.00192 0.25018 0.0
C228 C 0.78948 0.97577 0.26087 0.0
C229 C 0.82659 0.97175 0.22987 0.0
H230 H 0.95845 0.72855 0.426 0.0
H231 H -0.02766 0.63162 0.31899 0.0
H232 H 0.95133 0.78603 0.3676 0.0
H233 H 0.96737 0.68889 0.26073 0.0
H234 H 0.93146 0.7942 0.15894 0.0
H235 H 0.92113 0.74024 0.22097 0.0
H236 H -0.0046 0.82573 0.31405 0.0
H237 H 0.00475 0.87921 0.25225 0.0
C238 C 0.95985 0.71946 0.39 0.0
C239 C 0.96623 0.67535 0.37736 0.0
C240 C 0.95617 0.75254 0.35634 0.0
C241 C 0.95867 0.7425 0.30898 0.0
C242 C 0.96446 0.69822 0.29654 0.0
C243 C 0.96813 0.66525 0.33014 0.0
C244 C 0.94405 0.80187 0.19314 0.0
C245 C 0.9686 0.84094 0.20098 0.0
C246 C 0.93893 0.77066 0.22862 0.0
C247 C 0.95809 0.77797 0.27277 0.0
C248 C -0.02012 0.8186 0.28095 0.0
C249 C -0.01466 0.84943 0.24546 0.0
H250 H 0.30578 0.90837 0.34747 0.0
H251 H 0.31146 0.04857 0.3271 0.0
H252 H 0.23989 0.90401 0.2934 0.0
H253 H 0.24623 0.04423 0.27357 0.0
H254 H 0.09816 0.03602 0.23148 0.0
H255 H 0.1624 0.02821 0.28498 0.0
H256 H 0.21409 0.91689 0.20873 0.0
H257 H 0.14864 0.92511 0.15377 0.0
C258 C 0.29351 0.93813 0.33093 0.0
C259 C 0.31357 0.97892 0.34207 0.0
C260 C 0.25574 0.93559 0.30002 0.0
C261 C 0.23724 0.9738 0.27972 0.0
C262 C 0.2588 0.01422 0.28941 0.0
C263 C 0.29629 0.01675 0.32012 0.0
C264 C 0.12256 0.00918 0.22635 0.0
C265 C 0.11853 0.98152 0.18787 0.0
C266 C 0.15977 0.005 0.25694 0.0
C267 C 0.19429 0.97284 0.25038 0.0
C268 C 0.18828 0.94239 0.21435 0.0
C269 C 0.15065 0.9468 0.1831 0.0
H270 H 0.89434 0.69495 0.67224 0.0
H271 H 0.03903 0.6634 0.6977 0.0
H272 H 0.89699 0.75151 0.73007 0.0
H273 H 0.04207 0.71685 0.75771 0.0
H274 H 0.04906 0.82013 0.86453 0.0
H275 H 0.04744 0.77283 0.79916 0.0
H276 H 0.89607 0.78724 0.7928 0.0
H277 H 0.89934 0.83721 0.85663 0.0
C278 C 0.9268 0.70009 0.6907 0.0
C279 C 0.96651 0.67477 0.68019 0.0
C280 C 0.92854 0.73268 0.72471 0.0
C281 C 0.9698 0.74028 0.75059 0.0
C282 C 0.00944 0.71431 0.73937 0.0
C283 C 0.00791 0.68273 0.70454 0.0
C284 C 0.01545 0.81332 0.84887 0.0
C285 C -0.02565 0.83223 0.86648 0.0
C286 C 0.01412 0.78515 0.81096 0.0
C287 C -0.02865 0.77367 0.78951 0.0
C288 C 0.93021 0.7939 0.80692 0.0
C289 C 0.9318 0.82282 0.84443 0.0
H290 H 0.35395 -0.01075 0.78027 0.0
H291 H 0.25356 0.97572 0.67062 0.0
H292 H 0.29101 0.98417 0.83689 0.0
H293 H 0.19038 0.96826 0.72711 0.0
H294 H 0.08546 0.0103 0.84185 0.0
H295 H 0.14391 0.00578 0.7806 0.0
H296 H 0.23793 0.93807 0.87341 0.0
H297 H 0.18023 0.94387 0.93461 0.0
C298 C 0.31838 0.98445 0.76839 0.0
C299 C 0.3087 0.98289 0.72111 0.0
C300 C 0.28213 0.98115 0.80083 0.0
C301 C 0.23519 0.97528 0.78696 0.0
C302 C 0.22573 0.97329 0.7394 0.0
C303 C 0.26198 0.97738 0.70693 0.0
C304 C 0.11845 -0.00596 0.84898 0.0
C305 C 0.12849 0.9784 0.89357 0.0
C306 C 0.15208 -0.00875 0.8137 0.0
C307 C 0.19661 0.97274 0.82214 0.0
C308 C 0.2049 0.954 0.8658 0.0
C309 C 0.1714 0.9568 0.90094 0.0
H310 H -0.01347 0.24792 0.6376 0.0
H311 H 0.96382 0.34857 0.73908 0.0
H312 H -0.01228 0.19242 0.69853 0.0
H313 H 0.96813 0.29455 0.79994 0.0
H314 H 0.9271 0.18952 0.89964 0.0
H315 H 0.92997 0.24257 0.83803 0.0
H316 H 0.0198 0.15593 0.75948 0.0
H317 H 0.01394 0.10126 0.82079 0.0
C318 C -0.01771 0.25822 0.67302 0.0
C319 C -0.02589 0.30261 0.68334 0.0
C320 C -0.0167 0.22637 0.70826 0.0
C321 C -0.02288 0.23822 0.75492 0.0
C322 C -0.02891 0.28312 0.76485 0.0
C323 C 0.969 0.31454 0.72973 0.0
C324 C 0.94756 0.18168 0.86929 0.0
C325 C 0.97014 0.14092 0.86537 0.0
C326 C 0.94978 0.21261 0.8337 0.0
C327 C -0.02444 0.20446 0.79306 0.0
C328 C -0.00101 0.16375 0.78955 0.0
C329 C -0.00386 0.13238 0.82511 0.0
H330 H 0.67797 0.03487 0.6813 0.0
H331 H 0.5977 0.94895 0.76903 0.0
H332 H 0.74042 0.03763 0.73919 0.0
H333 H 0.6603 0.94934 0.82579 0.0
H334 H 0.7523 -0.01165 0.94085 0.0
H335 H 0.69363 -0.00835 0.88132 0.0
H336 H 0.80246 0.00123 0.77775 0.0
H337 H 0.86195 -0.00118 0.83884 0.0
C338 C 0.67382 0.01672 0.7132 0.0
C339 C 0.63288 -0.00763 0.72137 0.0
C340 C 0.70976 0.01781 0.74616 0.0
C341 C 0.70557 -0.0058 0.78783 0.0
C342 C 0.6646 0.96915 0.79506 0.0
C343 C 0.62864 0.96856 0.76244 0.0
C344 C 0.76386 -0.00796 0.90547 0.0
C345 C 0.81174 -0.0064 0.89467 0.0
C346 C 0.73005 -0.00687 0.87097 0.0
C347 C 0.74282 -0.00417 0.82421 0.0
C348 C 0.791 -0.00098 0.81325 0.0
C349 C 0.82519 -0.00251 0.84818 0.0
H350 H 0.36216 0.24996 0.04318 0.0
H351 H 0.26424 0.35722 0.02988 0.0
H352 H 0.2977 0.19766 0.03621 0.0
H353 H 0.19957 0.30554 0.02443 0.0
H354 H 0.09703 0.20023 0.98023 0.0
H355 H 0.1634 0.25121 0.97777 0.0
H356 H 0.23393 0.17388 0.08211 0.0
H357 H 0.16846 0.12331 0.08368 0.0
C358 C 0.32676 0.26209 0.03857 0.0
C359 C 0.31761 0.30716 0.03742 0.0
C360 C 0.28989 0.23241 0.03492 0.0
C361 C 0.2435 0.24755 0.02996 0.0
C362 C 0.23487 0.29283 0.02768 0.0
C363 C 0.27167 0.32238 0.03137 0.0
C364 C 0.12694 0.19448 1.00236 0.0
C365 C 0.12782 0.15861 0.03254 0.0
C366 C 0.16473 0.22351 1.00119 0.0
C367 C 0.20397 0.21642 0.02966 0.0
C368 C 0.20463 0.17999 0.05932 0.0
C369 C 0.16687 0.15145 0.06078 0.0
H370 H 0.2674 0.63088 0.03591 0.0
H371 H 0.38099 0.7243 0.03571 0.0
H372 H 0.21091 0.69072 0.03081 0.0
H373 H 0.32435 0.78467 0.03215 0.0
H374 H 0.20263 0.876 0.98516 0.0
H375 H 0.26228 0.81781 0.98106 0.0
H376 H 0.18903 0.74589 0.08793 0.0
H377 H 0.13046 0.80311 0.09179 0.0
C378 C 0.27996 0.6644 0.03499 0.0
C379 C 0.32788 0.67368 0.03672 0.0
C380 C 0.24795 0.69841 0.03198 0.0
C381 C 0.26366 0.74198 0.03144 0.0
C382 C 0.31175 0.75118 0.03203 0.0
C383 C 0.34387 0.717 0.03445 0.0
C384 C 0.20012 0.84786 1.00791 0.0
C385 C 0.16315 0.84395 0.03934 0.0
C386 C 0.2338 0.81483 1.0056 0.0
C387 C 0.22963 0.77758 0.03394 0.0
C388 C 0.19261 0.77415 0.06544 0.0
C389 C 0.15967 0.80716 0.06819 0.0
H390 H 0.64823 0.31381 0.10054 0.0
H391 H 0.58955 0.27409 0.97044 0.0
H392 H 0.70014 0.25021 0.09979 0.0
H393 H 0.63918 0.20894 0.97056 0.0
H394 H 0.7767 0.13189 0.96116 0.0
H395 H 0.71776 0.18903 0.96094 0.0
H396 H 0.69955 0.17319 0.10811 0.0
H397 H 0.76015 0.11747 0.10875 0.0
C398 C 0.64627 0.29089 0.07218 0.0
C399 C 0.6154 0.29808 0.0356 0.0
C400 C 0.67546 0.25441 0.07184 0.0
C401 C 0.67324 0.2243 0.03534 0.0
C402 C 0.64198 0.23177 0.99886 0.0
C403 C 0.61354 0.26874 0.99879 0.0
C404 C 0.7594 0.1399 0.99331 0.0
C405 C 0.77351 0.12071 0.03502 0.0
C406 C 0.72552 0.17263 0.99318 0.0
C407 C 0.70464 0.18606 0.03465 0.0
C408 C 0.71597 0.16425 0.0758 0.0
C409 C 0.75021 0.13189 0.07602 0.0
H410 H 0.58158 0.72434 0.04103 0.0
H411 H 0.67946 0.61624 0.03996 0.0
H412 H 0.64723 0.7761 0.04187 0.0
H413 H 0.74471 0.66723 0.03908 0.0
H414 H 0.85053 0.77145 0.0786 0.0
H415 H 0.78528 0.72006 0.08382 0.0
H416 H 0.70664 0.79954 0.98724 0.0
H417 H 0.77175 0.85104 0.98272 0.0
C418 C 0.61717 0.71189 0.04127 0.0
C419 C 0.62599 0.66675 0.03966 0.0
C420 C 0.65459 0.74125 0.04129 0.0
C421 C 0.70101 0.72558 0.03989 0.0
C422 C 0.7094 0.68027 0.04036 0.0
C423 C 0.67218 0.65113 0.04039 0.0
C424 C 0.81945 0.77734 0.05809 0.0
C425 C 0.81598 0.81459 0.02995 0.0
C426 C 0.78217 0.74815 0.06108 0.0
C427 C 0.74075 0.75613 0.03629 0.0
C428 C 0.73788 0.79297 1.00726 0.0
C429 C 0.77537 0.82191 1.00394 0.0
loop_
_geom_bond_atom_site_label_1
_geom_bond_atom_site_label_2
_geom_bond_distance
_geom_bond_site_symmetry_2
_ccdc_geom_bond_type
C0 C1 1.384 1_455 S
C0 C2 1.384 . S
C0 H28 0.931 . S
C1 C0 1.384 1_655 S
C1 C4 1.382 . S
C2 C0 1.384 . S
C2 C3 1.381 1_455 S
C2 H29 0.930 . S
C3 C2 1.381 1_655 S
C3 C5 1.381 . S
C3 C6 1.487 . S
C4 C1 1.382 . S
C4 C5 1.387 . S
C4 H30 0.930 . S
C5 C3 1.381 . S
C5 C4 1.387 . S
C5 H31 0.931 . S
C6 C3 1.487 . S
C6 C13 1.399 1_655 S
C6 N44 1.343 . S
C7 C8 1.384 1_655 S
C7 C9 1.384 . S
C7 H32 0.931 . S
C8 C7 1.384 1_455 S
C8 C11 1.382 . S
C9 C7 1.384 . S
C9 C10 1.381 1_655 S
C9 H33 0.930 . S
C10 C9 1.381 1_455 S
C10 C12 1.381 . S
C10 C13 1.487 . S
C11 C8 1.382 . S
C11 C12 1.387 . S
C11 H34 0.930 . S
C12 C10 1.381 . S
C12 C11 1.387 . S
C12 H35 0.931 . S
C13 C6 1.399 1_455 S
C13 C10 1.487 . S
C13 N45 1.343 . S
C14 C15 1.384 1_655 S
C14 C16 1.384 . S
C14 H36 0.931 . S
C15 C14 1.384 1_455 S
C15 C18 1.382 . S
C16 C14 1.384 . S
C16 C17 1.381 1_655 S
C16 H37 0.930 . S
C17 C16 1.381 1_455 S
C17 C19 1.381 . S
C17 C20 1.487 . S
C18 C15 1.382 . S
C18 C19 1.387 . S
C18 H38 0.930 . S
C19 C17 1.381 . S
C19 C18 1.387 . S
C19 H39 0.931 . S
C20 C17 1.487 . S
C20 C27 1.399 1_455 S
C20 N45 1.343 . S
C21 C22 1.384 1_455 S
C21 C23 1.384 . S
C21 H40 0.931 . S
C22 C21 1.384 1_655 S
C22 C25 1.382 . S
C23 C21 1.384 . S
C23 C24 1.381 1_455 S
C23 H41 0.930 . S
C24 C23 1.381 1_655 S
C24 C26 1.381 . S
C24 C27 1.487 . S
C25 C22 1.382 . S
C25 C26 1.387 . S
C25 H42 0.930 . S
C26 C24 1.381 . S
C26 C25 1.387 . S
C26 H43 0.931 . S
C27 C20 1.399 1_655 S
C27 C24 1.487 . S
C27 N44 1.343 . S
H28 C0 0.931 . S
H29 C2 0.930 . S
H30 C4 0.930 . S
H31 C5 0.931 . S
H32 C7 0.931 . S
H33 C9 0.930 . S
H34 C11 0.930 . S
H35 C12 0.931 . S
H36 C14 0.931 . S
H37 C16 0.930 . S
H38 C18 0.930 . S
H39 C19 0.931 . S
H40 C21 0.931 . S
H41 C23 0.930 . S
H42 C25 0.930 . S
H43 C26 0.931 . S
N44 C6 1.343 . S
N44 C27 1.343 . S
N45 C13 1.343 . S
N45 C20 1.343 . S
C46 C47 1.384 1_545 S
C46 C48 1.384 . S
C46 H74 0.931 . S
C47 C46 1.384 1_565 S
C47 C50 1.382 . S
C48 C46 1.384 . S
C48 C49 1.381 1_545 S
C48 H75 0.930 . S
C49 C48 1.381 1_565 S
C49 C51 1.381 . S
C49 C52 1.487 . S
C50 C47 1.382 . S
C50 C51 1.387 . S
C50 H76 0.930 . S
C51 C49 1.381 . S
C51 C50 1.387 . S
C51 H77 0.931 . S
C52 C49 1.487 . S
C52 C59 1.399 1_565 S
C52 N90 1.343 . S
C53 C54 1.384 1_565 S
C53 C55 1.384 . S
C53 H78 0.931 . S
C54 C53 1.384 1_545 S
C54 C57 1.382 . S
C55 C53 1.384 . S
C55 C56 1.381 1_565 S
C55 H79 0.930 . S
C56 C55 1.381 1_545 S
C56 C58 1.381 . S
C56 C59 1.487 . S
C57 C54 1.382 . S
C57 C58 1.387 . S
C57 H80 0.930 . S
C58 C56 1.381 . S
C58 C57 1.387 . S
C58 H81 0.931 . S
C59 C52 1.399 1_545 S
C59 C56 1.487 . S
C59 N91 1.343 . S
C60 C61 1.384 1_565 S
C60 C62 1.384 . S
C60 H82 0.931 . S
C61 C60 1.384 1_545 S
C61 C64 1.382 . S
C62 C60 1.384 . S
C62 C63 1.381 1_565 S
C62 H83 0.930 . S
C63 C62 1.381 1_545 S
C63 C65 1.381 . S
C63 C66 1.487 . S
C64 C61 1.382 . S
C64 C65 1.387 . S
C64 H84 0.930 . S
C65 C63 1.381 . S
C65 C64 1.387 . S
C65 H85 0.931 . S
C66 C63 1.487 . S
C66 C73 1.399 1_545 S
C66 N91 1.343 . S
C67 C68 1.384 1_545 S
C67 C69 1.384 . S
C67 H86 0.931 . S
C68 C67 1.384 1_565 S
C68 C71 1.382 . S
C69 C67 1.384 . S
C69 C70 1.381 1_545 S
C69 H87 0.930 . S
C70 C69 1.381 1_565 S
C70 C72 1.381 . S
C70 C73 1.487 . S
C71 C68 1.382 . S
C71 C72 1.387 . S
C71 H88 0.930 . S
C72 C70 1.381 . S
C72 C71 1.387 . S
C72 H89 0.931 . S
C73 C66 1.399 1_565 S
C73 C70 1.487 . S
C73 N90 1.343 . S
H74 C46 0.931 . S
H75 C48 0.930 . S
H76 C50 0.930 . S
H77 C51 0.931 . S
H78 C53 0.931 . S
H79 C55 0.930 . S
H80 C57 0.930 . S
H81 C58 0.931 . S
H82 C60 0.931 . S
H83 C62 0.930 . S
H84 C64 0.930 . S
H85 C65 0.931 . S
H86 C67 0.931 . S
H87 C69 0.930 . S
H88 C71 0.930 . S
H89 C72 0.931 . S
N90 C52 1.343 . S
N90 C73 1.343 . S
N91 C59 1.343 . S
N91 C66 1.343 . S
C92 C93 1.384 1_556 S
C92 C94 1.384 . S
C92 H120 0.931 . S
C93 C92 1.384 1_554 S
C93 C96 1.382 . S
C94 C92 1.384 . S
C94 C95 1.381 1_556 S
C94 H121 0.930 . S
C95 C94 1.381 1_554 S
C95 C97 1.381 . S
C95 C98 1.487 . S
C96 C93 1.382 . S
C96 C97 1.387 . S
C96 H122 0.930 . S
C97 C95 1.381 . S
C97 C96 1.387 . S
C97 H123 0.931 . S
C98 C95 1.487 . S
C98 C105 1.399 . S
C98 N136 1.343 . S
C99 C100 1.384 . S
C99 C101 1.384 . S
C99 H124 0.931 . S
C100 C99 1.384 . S
C100 C103 1.382 1_554 S
C101 C99 1.384 . S
C101 C102 1.381 . S
C101 H125 0.930 . S
C102 C101 1.381 . S
C102 C104 1.381 1_554 S
C102 C105 1.487 . S
C103 C100 1.382 1_556 S
C103 C104 1.387 . S
C103 H126 0.930 . S
C104 C102 1.381 1_556 S
C104 C103 1.387 . S
C104 H127 0.931 . S
C105 C98 1.399 . S
C105 C102 1.487 . S
C105 N137 1.343 . S
C106 C107 1.384 . S
C106 C108 1.384 . S
C106 H128 0.931 . S
C107 C106 1.384 . S
C107 C110 1.382 1_554 S
C108 C106 1.384 . S
C108 C109 1.381 . S
C108 H129 0.930 . S
C109 C108 1.381 . S
C109 C111 1.381 1_554 S
C109 C112 1.487 . S
C110 C107 1.382 1_556 S
C110 C111 1.387 . S
C110 H130 0.930 . S
C111 C109 1.381 1_556 S
C111 C110 1.387 . S
C111 H131 0.931 . S
C112 C109 1.487 . S
C112 C119 1.399 . S
C112 N137 1.343 . S
C113 C114 1.384 1_556 S
C113 C115 1.384 . S
C113 H132 0.931 . S
C114 C113 1.384 1_554 S
C114 C117 1.382 . S
C115 C113 1.384 . S
C115 C116 1.381 1_556 S
C115 H133 0.930 . S
C116 C115 1.381 1_554 S
C116 C118 1.381 . S
C116 C119 1.487 . S
C117 C114 1.382 . S
C117 C118 1.387 . S
C117 H134 0.930 . S
C118 C116 1.381 . S
C118 C117 1.387 . S
C118 H135 0.931 . S
C119 C112 1.399 . S
C119 C116 1.487 . S
C119 N136 1.343 . S
H120 C92 0.931 . S
H121 C94 0.930 . S
H122 C96 0.930 . S
H123 C97 0.931 . S
H124 C99 0.931 . S
H125 C101 0.930 . S
H126 C103 0.930 . S
H127 C104 0.931 . S
H128 C106 0.931 . S
H129 C108 0.930 . S
H130 C110 0.930 . S
H131 C111 0.931 . S
H132 C113 0.931 . S
H133 C115 0.930 . S
H134 C117 0.930 . S
H135 C118 0.931 . S
N136 C98 1.343 . S
N136 C119 1.343 . S
N137 C105 1.343 . S
N137 C112 1.343 . S
Zn138 O140 1.933 1_556 S
Zn138 O158 1.985 . S
Zn138 O169 1.955 . S
Zn139 O140 1.911 . S
Zn139 O159 1.970 . S
Zn139 O175 1.945 . S
Zn139 O182 1.981 . S
O140 Zn138 1.933 1_554 S
O140 Zn139 1.911 . S
O140 H141 0.841 . S
H141 O140 0.841 . S
C142 O143 1.246 . S
C142 O171 1.276 1_455 S
O143 C142 1.246 . S
Zn144 O146 1.911 . S
Zn144 O161 1.970 . S
Zn144 O178 1.945 . S
Zn144 O185 1.981 . S
Zn145 O146 1.933 1_556 S
Zn145 O160 1.985 . S
Zn145 O167 1.955 . S
O146 Zn144 1.911 . S
O146 Zn145 1.933 1_554 S
O146 H147 0.841 . S
H147 O146 0.841 . S
Zn148 O149 1.933 1_556 S
Zn148 O162 1.985 . S
Zn148 O171 1.955 . S
O149 Zn148 1.933 1_554 S
O149 Zn150 1.911 . S
O149 H151 0.841 . S
Zn150 O149 1.911 . S
Zn150 O163 1.970 . S
Zn150 O179 1.981 . S
Zn150 O181 1.945 . S
H151 O149 0.841 . S
Zn152 O153 1.933 1_556 S
Zn152 O165 1.985 . S
Zn152 O173 1.955 . S
O153 Zn152 1.933 1_554 S
O153 H154 0.841 . S
O153 Zn155 1.911 . S
H154 O153 0.841 . S
Zn155 O153 1.911 . S
Zn155 O166 1.970 . S
Zn155 O176 1.981 . S
Zn155 O184 1.945 . S
C156 O157 1.246 . S
C156 O173 1.276 1_655 S
O157 C156 1.246 . S
O158 Zn138 1.985 . S
O158 C168 1.245 1_556 S
O159 Zn139 1.970 . S
O159 C168 1.263 . S
O160 Zn145 1.985 . S
O160 C172 1.245 1_556 S
O161 Zn144 1.970 . S
O161 C172 1.263 . S
O162 Zn148 1.985 . S
O162 C177 1.245 1_556 S
O163 Zn150 1.970 . S
O163 C177 1.263 . S
C164 O175 1.262 . S
C164 O176 1.245 1_545 S
O165 Zn152 1.985 . S
O165 C183 1.245 1_556 S
O166 Zn155 1.970 . S
O166 C183 1.263 . S
O167 Zn145 1.955 . S
O167 C186 1.276 1_565 S
C168 O158 1.245 1_554 S
C168 O159 1.263 . S
O169 Zn138 1.955 . S
O169 C188 1.276 1_545 S
C170 O178 1.262 1_545 S
C170 O179 1.245 . S
O171 C142 1.276 1_655 S
O171 Zn148 1.955 . S
C172 O160 1.245 1_554 S
C172 O161 1.263 . S
O173 Zn152 1.955 . S
O173 C156 1.276 1_455 S
C174 O181 1.262 1_455 S
C174 O182 1.245 . S
O175 Zn139 1.945 . S
O175 C164 1.262 . S
O176 Zn155 1.981 . S
O176 C164 1.245 1_565 S
C177 O162 1.245 1_554 S
C177 O163 1.263 . S
O178 Zn144 1.945 . S
O178 C170 1.262 1_565 S
O179 Zn150 1.981 . S
O179 C170 1.245 . S
C180 O184 1.262 . S
C180 O185 1.245 1_455 S
O181 Zn150 1.945 . S
O181 C174 1.262 1_655 S
O182 Zn139 1.981 . S
O182 C174 1.245 . S
C183 O165 1.245 1_554 S
C183 O166 1.263 . S
O184 Zn155 1.945 . S
O184 C180 1.262 . S
O185 Zn144 1.981 . S
O185 C180 1.245 1_655 S
C186 O167 1.276 1_545 S
C186 O187 1.246 . S
O187 C186 1.246 . S
C188 O169 1.276 1_565 S
C188 O189 1.246 . S
O189 C188 1.246 . S
H190 C198 0.950 . S
H191 C203 0.950 . S
H192 C200 0.950 . S
H193 C202 0.950 . S
H194 C204 0.950 . S
H195 C206 0.950 . S
H196 C208 0.950 . S
H197 C209 0.950 . S
C198 H190 0.950 . S
C198 C199 1.386 1_655 S
C198 C200 1.391 . S
C199 C198 1.386 1_455 S
C199 C203 1.393 . S
C200 H192 0.950 . S
C200 C198 1.391 . S
C200 C201 1.400 1_655 S
C201 C200 1.400 1_455 S
C201 C202 1.398 . S
C201 C207 1.491 . S
C202 H193 0.950 . S
C202 C201 1.398 . S
C202 C203 1.391 . S
C203 H191 0.950 . S
C203 C199 1.393 . S
C203 C202 1.391 . S
C204 H194 0.950 . S
C204 C205 1.386 . S
C204 C206 1.391 . S
C205 C204 1.386 . S
C205 C209 1.393 1_455 S
C206 H195 0.950 . S
C206 C204 1.391 . S
C206 C207 1.400 . S
C207 C201 1.491 . S
C207 C206 1.400 . S
C207 C208 1.398 1_455 S
C208 H196 0.950 . S
C208 C207 1.398 1_655 S
C208 C209 1.391 . S
C209 H197 0.950 . S
C209 C205 1.393 1_655 S
C209 C208 1.391 . S
H210 C218 0.950 . S
H211 C223 0.950 . S
H212 C220 0.950 . S
H213 C222 0.950 . S
H214 C224 0.950 . S
H215 C226 0.950 . S
H216 C228 0.950 . S
H217 C229 0.950 . S
C218 H210 0.950 . S
C218 C219 1.375 1_565 S
C218 C220 1.391 . S
C219 C218 1.375 1_545 S
C219 C223 1.404 . S
C220 H212 0.950 . S
C220 C218 1.391 . S
C220 C221 1.400 1_565 S
C221 C220 1.400 1_545 S
C221 C222 1.398 . S
C221 C227 1.491 . S
C222 H213 0.950 . S
C222 C221 1.398 . S
C222 C223 1.391 . S
C223 H211 0.950 . S
C223 C219 1.404 . S
C223 C222 1.391 . S
C224 H214 0.950 . S
C224 C225 1.386 . S
C224 C226 1.391 . S
C225 C224 1.386 . S
C225 C229 1.393 1_545 S
C226 H215 0.950 . S
C226 C224 1.391 . S
C226 C227 1.400 . S
C227 C221 1.491 . S
C227 C226 1.400 . S
C227 C228 1.398 1_545 S
C228 H216 0.950 . S
C228 C227 1.398 1_565 S
C228 C229 1.391 . S
C229 H217 0.950 . S
C229 C225 1.393 1_565 S
C229 C228 1.391 . S
H230 C238 0.950 . S
H231 C243 0.950 . S
H232 C240 0.950 . S
H233 C242 0.950 . S
H234 C244 0.950 . S
H235 C246 0.950 . S
H236 C248 0.947 1_455 S
H237 C249 0.950 1_455 S
C238 H230 0.950 . S
C238 C239 1.387 . S
C238 C240 1.391 . S
C239 C238 1.387 . S
C239 C243 1.392 1_455 S
C240 H232 0.950 . S
C240 C238 1.391 . S
C240 C241 1.400 1_455 S
C241 C240 1.400 1_655 S
C241 C242 1.398 . S
C241 C247 1.491 . S
C242 H233 0.950 . S
C242 C241 1.398 . S
C242 C243 1.391 . S
C243 H231 0.950 . S
C243 C239 1.392 1_655 S
C243 C242 1.391 . S
C244 H234 0.950 . S
C244 C245 1.386 . S
C244 C246 1.391 . S
C245 C244 1.386 . S
C245 C249 1.393 . S
C246 H235 0.950 . S
C246 C244 1.391 . S
C246 C247 1.400 . S
C247 C241 1.491 . S
C247 C246 1.400 . S
C247 C248 1.401 . S
C248 H236 0.947 1_655 S
C248 C247 1.401 . S
C248 C249 1.391 . S
C249 H237 0.950 1_655 S
C249 C245 1.393 . S
C249 C248 1.391 . S
H250 C258 0.950 . S
H251 C263 0.950 . S
H252 C260 0.950 . S
H253 C262 0.950 . S
H254 C264 0.950 . S
H255 C266 0.950 . S
H256 C268 0.950 . S
H257 C269 0.950 . S
C258 H250 0.950 . S
C258 C259 1.402 . S
C258 C260 1.391 . S
C259 C258 1.402 . S
C259 C263 1.377 1_565 S
C260 H252 0.950 . S
C260 C258 1.391 . S
C260 C261 1.400 . S
C261 C260 1.400 . S
C261 C262 1.398 1_565 S
C261 C267 1.491 . S
C262 H253 0.950 . S
C262 C261 1.398 1_545 S
C262 C263 1.391 . S
C263 H251 0.950 . S
C263 C259 1.377 1_545 S
C263 C262 1.391 . S
C264 H254 0.950 . S
C264 C265 1.386 1_545 S
C264 C266 1.391 . S
C265 C264 1.386 1_565 S
C265 C269 1.393 . S
C266 H255 0.950 . S
C266 C264 1.391 . S
C266 C267 1.400 1_545 S
C267 C261 1.491 . S
C267 C266 1.400 1_565 S
C267 C268 1.398 . S
C268 H256 0.950 . S
C268 C267 1.398 . S
C268 C269 1.391 . S
C269 H257 0.950 . S
C269 C265 1.393 . S
C269 C268 1.391 . S
H270 C278 0.950 . S
H271 C283 0.950 . S
H272 C280 0.950 . S
H273 C282 0.950 . S
H274 C284 0.950 . S
H275 C286 0.950 . S
H276 C288 0.950 . S
H277 C289 0.950 . S
C278 H270 0.950 . S
C278 C279 1.386 . S
C278 C280 1.391 . S
C279 C278 1.386 . S
C279 C283 1.393 1_655 S
C280 H272 0.950 . S
C280 C278 1.391 . S
C280 C281 1.400 . S
C281 C280 1.400 . S
C281 C282 1.398 1_655 S
C281 C287 1.491 . S
C282 H273 0.950 . S
C282 C281 1.398 1_455 S
C282 C283 1.391 . S
C283 H271 0.950 . S
C283 C279 1.393 1_455 S
C283 C282 1.391 . S
C284 H274 0.950 . S
C284 C285 1.386 1_455 S
C284 C286 1.391 . S
C285 C284 1.386 1_655 S
C285 C289 1.393 . S
C286 H275 0.950 . S
C286 C284 1.391 . S
C286 C287 1.400 1_455 S
C287 C281 1.491 . S
C287 C286 1.400 1_655 S
C287 C288 1.398 . S
C288 H276 0.950 . S
C288 C287 1.398 . S
C288 C289 1.391 . S
C289 H277 0.950 . S
C289 C285 1.393 . S
C289 C288 1.391 . S
H290 C298 0.950 . S
H291 C303 0.950 . S
H292 C300 0.950 . S
H293 C302 0.950 . S
H294 C304 0.950 . S
H295 C306 0.950 . S
H296 C308 0.950 . S
H297 C309 0.950 . S
C298 H290 0.950 . S
C298 C299 1.386 . S
C298 C300 1.391 1_545 S
C299 C298 1.386 . S
C299 C303 1.393 1_545 S
C300 H292 0.950 . S
C300 C298 1.391 1_565 S
C300 C301 1.400 . S
C301 C300 1.400 . S
C301 C302 1.398 . S
C301 C307 1.491 . S
C302 H293 0.950 . S
C302 C301 1.398 . S
C302 C303 1.391 . S
C303 H291 0.950 . S
C303 C299 1.393 1_565 S
C303 C302 1.391 . S
C304 H294 0.950 . S
C304 C305 1.386 . S
C304 C306 1.391 . S
C305 C304 1.386 . S
C305 C309 1.393 . S
C306 H295 0.950 . S
C306 C304 1.391 . S
C306 C307 1.400 . S
C307 C301 1.491 . S
C307 C306 1.400 . S
C307 C308 1.398 . S
C308 H296 0.950 . S
C308 C307 1.398 . S
C308 C309 1.391 . S
C309 H297 0.950 . S
C309 C305 1.393 . S
C309 C308 1.391 . S
H310 C318 0.950 . S
H311 C323 0.950 . S
H312 C320 0.950 . S
H313 C322 0.950 . S
H314 C324 0.950 . S
H315 C326 0.950 . S
H316 C328 0.950 . S
H317 C329 0.950 . S
C318 H310 0.950 . S
C318 C319 1.386 . S
C318 C320 1.391 . S
C319 C318 1.386 . S
C319 C323 1.393 1_455 S
C320 H312 0.950 . S
C320 C318 1.391 . S
C320 C321 1.400 . S
C321 C320 1.400 . S
C321 C322 1.398 1_455 S
C321 C327 1.491 . S
C322 H313 0.950 . S
C322 C321 1.398 1_655 S
C322 C323 1.391 . S
C323 H311 0.950 . S
C323 C319 1.393 1_655 S
C323 C322 1.391 . S
C324 H314 0.950 . S
C324 C325 1.386 1_655 S
C324 C326 1.391 . S
C325 C324 1.386 1_455 S
C325 C329 1.393 . S
C326 H315 0.950 . S
C326 C324 1.391 . S
C326 C327 1.400 1_655 S
C327 C321 1.491 . S
C327 C326 1.400 1_455 S
C327 C328 1.398 . S
C328 H316 0.950 . S
C328 C327 1.398 . S
C328 C329 1.391 . S
C329 H317 0.950 . S
C329 C325 1.393 . S
C329 C328 1.391 . S
H330 C338 0.950 . S
H331 C343 0.950 . S
H332 C340 0.950 . S
H333 C342 0.950 . S
H334 C344 0.950 . S
H335 C346 0.950 . S
H336 C348 0.950 . S
H337 C349 0.950 . S
C338 H330 0.950 . S
C338 C339 1.386 . S
C338 C340 1.391 . S
C339 C338 1.386 . S
C339 C343 1.393 1_545 S
C340 H332 0.950 . S
C340 C338 1.391 . S
C340 C341 1.400 . S
C341 C340 1.400 . S
C341 C342 1.398 1_545 S
C341 C347 1.491 . S
C342 H333 0.950 . S
C342 C341 1.398 1_565 S
C342 C343 1.391 . S
C343 H331 0.950 . S
C343 C339 1.393 1_565 S
C343 C342 1.391 . S
C344 H334 0.950 . S
C344 C345 1.386 1_565 S
C344 C346 1.391 . S
C345 C344 1.386 1_545 S
C345 C349 1.393 . S
C346 H335 0.950 . S
C346 C344 1.391 . S
C346 C347 1.400 1_565 S
C347 C341 1.491 . S
C347 C346 1.400 1_545 S
C347 C348 1.398 . S
C348 H336 0.950 . S
C348 C347 1.398 . S
C348 C349 1.391 . S
C349 H337 0.950 . S
C349 C345 1.393 . S
C349 C348 1.391 . S
H350 C358 0.950 . S
H351 C363 0.950 1_556 S
H352 C360 0.950 . S
H353 C362 0.950 1_556 S
H354 C364 0.950 1_556 S
H355 C366 0.950 1_556 S
H356 C368 0.950 . S
H357 C369 0.950 . S
C358 H350 0.950 . S
C358 C359 1.386 . S
C358 C360 1.391 . S
C359 C358 1.386 . S
C359 C363 1.393 . S
C360 H352 0.950 . S
C360 C358 1.391 . S
C360 C361 1.400 . S
C361 C360 1.400 . S
C361 C362 1.398 . S
C361 C367 1.491 . S
C362 H353 0.950 1_554 S
C362 C361 1.398 . S
C362 C363 1.391 . S
C363 H351 0.950 1_554 S
C363 C359 1.393 . S
C363 C362 1.391 . S
C364 H354 0.950 1_554 S
C364 C365 1.386 . S
C364 C366 1.391 . S
C365 C364 1.386 . S
C365 C369 1.393 . S
C366 H355 0.950 1_554 S
C366 C364 1.391 . S
C366 C367 1.400 . S
C367 C361 1.491 . S
C367 C366 1.400 . S
C367 C368 1.398 . S
C368 H356 0.950 . S
C368 C367 1.398 . S
C368 C369 1.391 . S
C369 H357 0.950 . S
C369 C365 1.393 . S
C369 C368 1.391 . S
H370 C378 0.950 . S
H371 C383 0.950 1_556 S
H372 C380 0.950 . S
H373 C382 0.950 1_556 S
H374 C384 0.950 1_556 S
H375 C386 0.950 1_556 S
H376 C388 0.950 . S
H377 C389 0.950 . S
C378 H370 0.950 . S
C378 C379 1.386 . S
C378 C380 1.391 . S
C379 C378 1.386 . S
C379 C383 1.393 . S
C380 H372 0.950 . S
C380 C378 1.391 . S
C380 C381 1.400 . S
C381 C380 1.400 . S
C381 C382 1.398 . S
C381 C387 1.491 . S
C382 H373 0.950 1_554 S
C382 C381 1.398 . S
C382 C383 1.391 . S
C383 H371 0.950 1_554 S
C383 C379 1.393 . S
C383 C382 1.391 . S
C384 H374 0.950 1_554 S
C384 C385 1.386 . S
C384 C386 1.391 . S
C385 C384 1.386 . S
C385 C389 1.393 . S
C386 H375 0.950 1_554 S
C386 C384 1.391 . S
C386 C387 1.400 . S
C387 C381 1.491 . S
C387 C386 1.400 . S
C387 C388 1.398 . S
C388 H376 0.950 . S
C388 C387 1.398 . S
C388 C389 1.391 . S
C389 H377 0.950 . S
C389 C385 1.393 . S
C389 C388 1.391 . S
H390 C398 0.950 . S
H391 C403 0.950 . S
H392 C400 0.950 . S
H393 C402 0.950 . S
H394 C404 0.950 . S
H395 C406 0.950 . S
H396 C408 0.950 . S
H397 C409 0.950 . S
C398 H390 0.950 . S
C398 C399 1.386 . S
C398 C400 1.391 . S
C399 C398 1.386 . S
C399 C403 1.393 1_554 S
C400 H392 0.950 . S
C400 C398 1.391 . S
C400 C401 1.400 . S
C401 C400 1.400 . S
C401 C402 1.398 1_554 S
C401 C407 1.491 . S
C402 H393 0.950 . S
C402 C401 1.398 1_556 S
C402 C403 1.391 . S
C403 H391 0.950 . S
C403 C399 1.393 1_556 S
C403 C402 1.391 . S
C404 H394 0.950 . S
C404 C405 1.386 1_556 S
C404 C406 1.391 . S
C405 C404 1.386 1_554 S
C405 C409 1.393 . S
C406 H395 0.950 . S
C406 C404 1.391 . S
C406 C407 1.400 1_556 S
C407 C401 1.491 . S
C407 C406 1.400 1_554 S
C407 C408 1.398 . S
C408 H396 0.950 . S
C408 C407 1.398 . S
C408 C409 1.391 . S
C409 H397 0.950 . S
C409 C405 1.393 . S
C409 C408 1.391 . S
H410 C418 0.950 . S
H411 C423 0.950 . S
H412 C420 0.950 . S
H413 C422 0.950 . S
H414 C424 0.950 . S
H415 C426 0.950 . S
H416 C428 0.950 . S
H417 C429 0.950 . S
C418 H410 0.950 . S
C418 C419 1.386 . S
C418 C420 1.391 . S
C419 C418 1.386 . S
C419 C423 1.393 . S
C420 H412 0.950 . S
C420 C418 1.391 . S
C420 C421 1.400 . S
C421 C420 1.400 . S
C421 C422 1.398 . S
C421 C427 1.491 . S
C422 H413 0.950 . S
C422 C421 1.398 . S
C422 C423 1.391 . S
C423 H411 0.950 . S
C423 C419 1.393 . S
C423 C422 1.391 . S
C424 H414 0.950 . S
C424 C425 1.386 . S
C424 C426 1.391 . S
C425 C424 1.386 . S
C425 C429 1.393 . S
C426 H415 0.950 . S
C426 C424 1.391 . S
C426 C427 1.400 . S
C427 C421 1.491 . S
C427 C426 1.400 . S
C427 C428 1.398 . S
C428 H416 0.950 . S
C428 C427 1.398 . S
C428 C429 1.391 . S
C429 H417 0.950 . S
C429 C425 1.393 . S
C429 C428 1.391 . S
C205 C174 1.897 . S
C199 C15 1.965 . S
C225 C170 1.404 . S
C219 C68 1.477 1_545 S
C245 C180 1.900 1_655 S
C239 C8 1.972 . S
C265 C164 1.378 1_565 S
C259 C61 1.467 1_565 S
C279 C1 2.088 . S
C285 C156 1.995 . S
C305 C188 1.498 . S
C299 C54 1.592 . S
C319 C22 2.092 1_455 S
C325 C142 1.982 . S
C339 C47 1.596 1_545 S
C345 C186 1.487 . S
C359 C93 1.005 . S
C365 C168 0.979 . S
C379 C114 1.012 . S
C385 C183 0.983 . S
C405 C177 0.975 . S
C399 C100 1.012 . S
C425 C172 0.993 . S
C419 C107 1.015 . S
