# Generated by pormake.
# Topology cml, (3,6)-cn, num edge types: 1
# Building blocks:
#     Node 0, Type 0, BuildingBlock: BETDAH_clean_linker_0, # of connection points: 3
#     Node 1, Type 0, BuildingBlock: BETDAH_clean_linker_0, # of connection points: 3
#     Node 2, Type 0, BuildingBlock: BETDAH_clean_linker_0, # of connection points: 3
#     Node 3, Type 0, BuildingBlock: BETDAH_clean_linker_0, # of connection points: 3
#     Node 4, Type 0, BuildingBlock: BETDAH_clean_linker_0, # of connection points: 3
#     Node 5, Type 0, BuildingBlock: BETDAH_clean_linker_0, # of connection points: 3
#     Node 6, Type 0, BuildingBlock: BETDAH_clean_linker_0, # of connection points: 3
#     Node 7, Type 0, BuildingBlock: BETDAH_clean_linker_0, # of connection points: 3
#     Node 8, Type 1, BuildingBlock: IZENUY_clean_sbu_0, # of connection points: 6
#     Node 9, Type 1, BuildingBlock: IZENUY_clean_sbu_0, # of connection points: 6
#     Node 10, Type 1, BuildingBlock: IZENUY_clean_sbu_0, # of connection points: 6
#     Node 11, Type 1, BuildingBlock: IZENUY_clean_sbu_0, # of connection points: 6
#     Edge 12, Type (0, 1), BuildingBlock: OJICUG_clean_linker_0, # of connection points: 2
#     Edge 13, Type (0, 1), BuildingBlock: OJICUG_clean_linker_0, # of connection points: 2
#     Edge 14, Type (0, 1), BuildingBlock: OJICUG_clean_linker_0, # of connection points: 2
#     Edge 15, Type (0, 1), BuildingBlock: OJICUG_clean_linker_0, # of connection points: 2
#     Edge 16, Type (0, 1), BuildingBlock: OJICUG_clean_linker_0, # of connection points: 2
#     Edge 17, Type (0, 1), BuildingBlock: OJICUG_clean_linker_0, # of connection points: 2
#     Edge 18, Type (0, 1), BuildingBlock: OJICUG_clean_linker_0, # of connection points: 2
#     Edge 19, Type (0, 1), BuildingBlock: OJICUG_clean_linker_0, # of connection points: 2
#     Edge 20, Type (0, 1), BuildingBlock: OJICUG_clean_linker_0, # of connection points: 2
#     Edge 21, Type (0, 1), BuildingBlock: OJICUG_clean_linker_0, # of connection points: 2
#     Edge 22, Type (0, 1), BuildingBlock: OJICUG_clean_linker_0, # of connection points: 2
#     Edge 23, Type (0, 1), BuildingBlock: OJICUG_clean_linker_0, # of connection points: 2
#     Edge 24, Type (0, 1), BuildingBlock: OJICUG_clean_linker_0, # of connection points: 2
#     Edge 25, Type (0, 1), BuildingBlock: OJICUG_clean_linker_0, # of connection points: 2
#     Edge 26, Type (0, 1), BuildingBlock: OJICUG_clean_linker_0, # of connection points: 2
#     Edge 27, Type (0, 1), BuildingBlock: OJICUG_clean_linker_0, # of connection points: 2
#     Edge 28, Type (0, 1), BuildingBlock: OJICUG_clean_linker_0, # of connection points: 2
#     Edge 29, Type (0, 1), BuildingBlock: OJICUG_clean_linker_0, # of connection points: 2
#     Edge 30, Type (0, 1), BuildingBlock: OJICUG_clean_linker_0, # of connection points: 2
#     Edge 31, Type (0, 1), BuildingBlock: OJICUG_clean_linker_0, # of connection points: 2
#     Edge 32, Type (0, 1), BuildingBlock: OJICUG_clean_linker_0, # of connection points: 2
#     Edge 33, Type (0, 1), BuildingBlock: OJICUG_clean_linker_0, # of connection points: 2
#     Edge 34, Type (0, 1), BuildingBlock: OJICUG_clean_linker_0, # of connection points: 2
#     Edge 35, Type (0, 1), BuildingBlock: OJICUG_clean_linker_0, # of connection points: 2
# Relax obj value: 0.004
# Max RMSD: 0.062
# Mean RMSD: 0.049
data_MOF--net-cml--node1-IZENUY_clean_sbu_0--node2-BETDAH_clean_linker_0--edge1-OJICUG_clean_linker_0
_symmetry_space_group_name_H-M    P1
_symmetry_Int_Tables_number       1
_symmetry_cell_setting            triclinic
loop_
_symmetry_equiv_pos_as_xyz
'x, y, z'
_cell_length_a     27.243546
_cell_length_b     30.165986
_cell_length_c     26.310623
_cell_angle_alpha  89.410597
_cell_angle_beta   90.525338
_cell_angle_gamma 91.323505
loop_
_atom_site_label
_atom_site_type_symbol
_atom_site_fract_x
_atom_site_fract_y
_atom_site_fract_z
_atom_type_partial_charge
H0 H 0.37357 0.45021 0.0583 0.0
H1 H 0.31063 0.39457 0.92196 0.0
H2 H 0.3145 0.31668 0.05883 0.0
C3 C 0.35301 0.42385 0.03945 0.0
C4 C 0.34354 0.38381 0.06581 0.0
C5 C 0.34149 0.42837 0.9875 0.0
C6 C 0.31847 0.39246 0.96235 0.0
C7 C 0.30812 0.35256 0.9882 0.0
C8 C 0.3205 0.34835 0.03983 0.0
N9 N 0.29516 0.31436 0.95991 0.0
C10 C 0.24736 0.29781 0.9555 0.0
H11 H 0.6487 0.57836 0.56186 0.0
H12 H 0.69333 0.63449 0.41816 0.0
H13 H 0.70976 0.71102 0.55392 0.0
C14 C 0.66541 0.60526 0.54011 0.0
C15 C 0.67873 0.64493 0.56489 0.0
C16 C 0.66971 0.60091 0.4871 0.0
C17 C 0.69115 0.63619 0.45918 0.0
C18 C 0.70677 0.67529 0.48354 0.0
C19 C 0.70001 0.67979 0.53608 0.0
N20 N 0.72105 0.71268 0.45384 0.0
C21 C 0.76985 0.72412 0.44453 0.0
H22 H 0.6342 0.43857 0.05334 0.0
H23 H 0.74933 0.43433 0.94243 0.0
H24 H 0.76304 0.36315 0.08393 0.0
C25 C 0.66879 0.42584 0.04049 0.0
C26 C 0.69539 0.39818 0.07338 0.0
C27 C 0.68727 0.43898 0.99278 0.0
C28 C 0.7335 0.42386 0.97834 0.0
C29 C 0.76047 0.39615 0.01075 0.0
C30 C 0.7412 0.38296 0.05808 0.0
N31 N 0.8101 0.38819 0.99948 0.0
C32 C 0.82515 0.35011 0.97553 0.0
H33 H 0.37178 0.55164 0.56013 0.0
H34 H 0.31202 0.68244 0.5528 0.0
H35 H 0.30744 0.60066 0.42116 0.0
C36 C 0.35093 0.57643 0.53983 0.0
C37 C 0.33941 0.57008 0.48817 0.0
C38 C 0.34092 0.61665 0.56394 0.0
C39 C 0.31811 0.65049 0.5358 0.0
C40 C 0.3063 0.64439 0.4844 0.0
C41 C 0.31593 0.60415 0.46124 0.0
N42 N 0.29465 0.68109 0.45323 0.0
C43 C 0.24843 0.69917 0.4514 0.0
H44 H 0.87597 0.95847 0.06057 0.0
H45 H 0.74581 0.934 0.97033 0.0
H46 H 0.76837 0.86149 0.11016 0.0
C47 C 0.84146 0.94052 0.05448 0.0
C48 C 0.82611 0.90831 0.08986 0.0
C49 C 0.81303 0.94993 0.01129 0.0
C50 C 0.76872 0.92617 1.00293 0.0
C51 C 0.75262 0.89419 0.03882 0.0
C52 C 0.7815 0.88529 0.08199 0.0
N53 N 0.70445 0.87585 0.03626 0.0
C54 C 0.68972 0.84399 1.00126 0.0
H55 H 0.13605 0.07003 0.55586 0.0
H56 H 0.26434 0.09062 0.46375 0.0
H57 H 0.25047 0.16102 0.6041 0.0
C58 C 0.17108 0.08682 0.54926 0.0
C59 C 0.18939 0.11726 0.58505 0.0
C60 C 0.19791 0.07645 0.50585 0.0
C61 C 0.24257 0.09917 0.49633 0.0
C62 C 0.26121 0.1301 0.53167 0.0
C63 C 0.23473 0.13876 0.57595 0.0
N64 N 0.31 0.14685 0.52799 0.0
C65 C 0.32693 0.17419 0.48878 0.0
H66 H 0.12793 0.92795 0.05386 0.0
H67 H 0.23581 0.93274 0.93561 0.0
H68 H 0.25924 0.85236 0.06921 0.0
C69 C 0.1621 0.91679 0.03805 0.0
C70 C 0.19117 0.88789 0.06683 0.0
C71 C 0.17758 0.93323 0.99064 0.0
C72 C 0.22216 0.91891 0.97109 0.0
C73 C 0.25105 0.88885 0.99848 0.0
C74 C 0.23547 0.87316 0.04651 0.0
N75 N 0.29944 0.88195 0.98161 0.0
C76 C 0.31691 0.84116 0.96689 0.0
H77 H 0.87429 0.06007 0.56058 0.0
H78 H 0.80616 0.18743 0.55075 0.0
H79 H 0.82698 0.11202 0.416 0.0
C80 C 0.85487 0.08481 0.53863 0.0
C81 C 0.85096 0.08023 0.48568 0.0
C82 C 0.83901 0.12335 0.56272 0.0
C83 C 0.81709 0.15689 0.53322 0.0
C84 C 0.81285 0.15248 0.48032 0.0
C85 C 0.82953 0.11432 0.45702 0.0
N86 N 0.79947 0.18865 0.44894 0.0
C87 C 0.7551 0.20996 0.45241 0.0
Fe88 Fe 0.02217 0.82429 0.31089 0.0
Fe89 Fe 0.02256 0.87143 0.41439 0.0
O90 O 0.02582 0.87383 0.34705 0.0
Fe91 Fe 0.03173 0.92611 0.31611 0.0
O92 O 0.97436 0.91716 0.28247 0.0
O93 O 0.98772 0.84906 0.25772 0.0
O94 O 0.96305 0.80881 0.33773 0.0
C95 C 0.95327 0.8053 0.38431 0.0
C96 C 0.09137 0.87115 0.25606 0.0
O97 O 0.98181 0.82211 0.4174 0.0
C98 C 0.09404 0.94007 0.39597 0.0
O99 O 0.05597 0.79105 0.35819 0.0
O100 O 0.07684 0.83848 0.41823 0.0
O101 O 0.06729 0.90592 0.26282 0.0
O102 O 0.0808 0.83578 0.28 0.0
C103 C 0.96566 0.9431 0.39574 0.0
O104 O 0.06295 0.9202 0.42421 0.0
O105 O 0.08954 0.93908 0.34822 0.0
C106 C 0.08313 0.80251 0.39551 0.0
O107 O 0.96775 0.90473 0.41506 0.0
O108 O 0.99699 0.95615 0.36337 0.0
C109 C 0.96339 0.88434 0.25502 0.0
Fe110 Fe 0.99897 0.14054 0.91678 0.0
Fe111 Fe 0.99375 0.08866 0.81724 0.0
O112 O 0.99909 0.13995 0.84945 0.0
Fe113 Fe 1.00427 0.19062 0.81457 0.0
O114 O 0.04427 0.21859 0.8617 0.0
O115 O 0.05944 0.16695 0.91896 0.0
O116 O 0.0294 0.08744 0.92472 0.0
C117 C 0.05561 0.06551 0.89505 0.0
C118 C 0.94213 0.2148 0.89038 0.0
O119 O 0.04905 0.06785 0.84758 0.0
C120 C 0.935 0.13963 0.75664 0.0
O121 O 0.93845 0.11403 0.91911 0.0
O122 O 0.95411 0.06152 0.86481 0.0
O123 O 0.94895 0.21179 0.84315 0.0
O124 O 0.96857 0.19374 0.92162 0.0
C125 C 0.06348 0.13779 0.75846 0.0
O126 O 0.93825 0.10549 0.78446 0.0
O127 O 0.96558 0.17167 0.76118 0.0
C128 C 0.92755 0.07713 0.89924 0.0
O129 O 0.03231 0.10637 0.76388 0.0
O130 O 0.05987 0.17332 0.78302 0.0
C131 C 0.07086 0.20318 0.89723 0.0
Fe132 Fe 0.52098 0.32038 0.31219 0.0
Fe133 Fe 0.51679 0.37061 0.41334 0.0
O134 O 0.51842 0.37117 0.34592 0.0
Fe135 Fe 0.51717 0.42249 0.31268 0.0
O136 O 0.46158 0.40622 0.27851 0.0
O137 O 0.48423 0.3394 0.25774 0.0
O138 O 0.46383 0.29956 0.34042 0.0
C139 C 0.45594 0.2972 0.38759 0.0
C140 C 0.58467 0.37283 0.25596 0.0
O141 O 0.48379 0.31745 0.41867 0.0
C142 C 0.57587 0.44751 0.39217 0.0
O143 O 0.55845 0.29255 0.36083 0.0
O144 O 0.57597 0.34429 0.41705 0.0
O145 O 0.55604 0.40486 0.26097 0.0
O146 O 0.57811 0.33703 0.28066 0.0
C147 C 0.4495 0.43409 0.39267 0.0
O148 O 0.54897 0.42395 0.42108 0.0
O149 O 0.57276 0.44343 0.34455 0.0
C150 C 0.58542 0.30789 0.39639 0.0
O151 O 0.45748 0.39722 0.41404 0.0
O152 O 0.47777 0.44917 0.3584 0.0
C153 C 0.45603 0.37188 0.25193 0.0
Fe154 Fe 0.51032 0.64246 0.91223 0.0
Fe155 Fe 0.51497 0.59361 0.81091 0.0
O156 O 0.51217 0.64392 0.8448 0.0
Fe157 Fe 0.51079 0.69553 0.81169 0.0
O158 O 0.54619 0.72589 0.86053 0.0
O159 O 0.56716 0.67495 0.91674 0.0
O160 O 0.54665 0.59227 0.91921 0.0
C161 C 0.57611 0.57382 0.88971 0.0
C162 C 0.445 0.71131 0.88737 0.0
O163 O 0.57209 0.57852 0.84225 0.0
C164 C 0.44999 0.63895 0.75092 0.0
O165 O 0.45329 0.60981 0.91202 0.0
O166 O 0.47797 0.56129 0.85656 0.0
O167 O 0.4525 0.70945 0.84017 0.0
O168 O 0.47332 0.69209 0.91842 0.0
C169 C 0.57794 0.65196 0.7545 0.0
O170 O 0.45819 0.60466 0.77716 0.0
O171 O 0.47551 0.67414 0.75708 0.0
C172 C 0.44833 0.57262 0.89064 0.0
O173 O 0.55222 0.61672 0.75907 0.0
O174 O 0.56872 0.68595 0.78003 0.0
C175 C 0.5738 0.71281 0.89651 0.0
C176 C 0.18765 0.23629 0.96888 0.0
C177 C 0.20047 0.27652 0.94489 0.0
H178 H 0.13646 0.18141 0.97276 0.0
C179 C 0.16991 0.29356 0.90673 0.0
H180 H 0.21124 0.22244 0.99807 0.0
C181 C 0.12728 0.27016 0.89193 0.0
C182 C 0.11462 0.22917 0.91498 0.0
H183 H 0.17963 0.3244 0.88742 0.0
H184 H 0.1048 0.28382 0.8617 0.0
C185 C 0.14501 0.21281 0.95416 0.0
C186 C 0.84997 0.75895 0.46694 0.0
C187 C 0.81813 0.74043 0.43044 0.0
H188 H 0.91803 0.79384 0.4811 0.0
C189 C 0.83167 0.74117 0.37921 0.0
H190 H 0.83984 0.75895 0.50668 0.0
C191 C 0.87617 0.7612 0.36434 0.0
C192 C 0.90792 0.78093 0.40055 0.0
H193 H 0.80726 0.72725 0.35047 0.0
H194 H 0.88514 0.76206 0.32431 0.0
C195 C 0.8946 0.77896 0.45218 0.0
C196 C 0.86738 0.27948 0.98362 0.0
C197 C 0.84837 0.31291 0.95253 0.0
H198 H 0.91153 0.22197 0.9882 0.0
C199 C 0.85704 0.31251 0.90008 0.0
H200 H 0.86127 0.2795 0.02427 0.0
C201 C 0.886 0.2796 0.87911 0.0
C202 C 0.90704 0.24701 0.91057 0.0
H203 H 0.84286 0.33843 0.87561 0.0
H204 H 0.89336 0.28069 0.83873 0.0
C205 C 0.89638 0.24678 0.96288 0.0
C206 C 0.19346 0.76042 0.46847 0.0
C207 C 0.20321 0.72159 0.4422 0.0
H208 H 0.14747 0.81651 0.47447 0.0
C209 C 0.17191 0.70767 0.4027 0.0
H210 H 0.21774 0.77179 0.49873 0.0
C211 C 0.13179 0.7332 0.38843 0.0
C212 C 0.12266 0.77315 0.41342 0.0
H213 H 0.17944 0.67788 0.38173 0.0
H214 H 0.10888 0.72231 0.35688 0.0
C215 C 0.1534 0.78599 0.45431 0.0
C216 C 0.64319 0.82035 0.92519 0.0
C217 C 0.66723 0.80955 0.97071 0.0
H218 H 0.59516 0.79799 0.86552 0.0
C219 C 0.66404 0.76602 0.98971 0.0
H220 H 0.64499 0.85395 0.91024 0.0
C221 C 0.63539 0.73389 0.96445 0.0
C222 C 0.60919 0.74495 0.91992 0.0
H223 H 0.68213 0.75728 0.02515 0.0
H224 H 0.63233 0.70089 0.9809 0.0
C225 C 0.61453 0.78829 0.89986 0.0
C226 C 0.36519 0.24771 0.48071 0.0
C227 C 0.35248 0.2072 0.45823 0.0
H228 H 0.40756 0.308 0.47552 0.0
C229 C 0.3701 0.19769 0.40964 0.0
H230 H 0.35215 0.25549 0.51832 0.0
C231 C 0.40184 0.22803 0.38467 0.0
C232 C 0.41686 0.26763 0.40866 0.0
H233 H 0.36094 0.16626 0.39196 0.0
H234 H 0.41658 0.2195 0.34805 0.0
C235 C 0.39711 0.27757 0.4563 0.0
C236 C 0.34795 0.79962 0.89427 0.0
C237 C 0.34285 0.80402 0.94695 0.0
H238 H 0.384 0.76658 0.83378 0.0
C239 C 0.36838 0.7758 0.97982 0.0
H240 H 0.32885 0.82156 0.86833 0.0
C241 C 0.40009 0.74448 0.96026 0.0
C242 C 0.4071 0.74108 0.90741 0.0
H243 H 0.36525 0.77905 0.02063 0.0
H244 H 0.42032 0.72393 0.98674 0.0
C245 C 0.37968 0.76831 0.87458 0.0
C246 C 0.67397 0.21375 0.41242 0.0
C247 C 0.70961 0.23251 0.44474 0.0
H248 H 0.60664 0.22281 0.37183 0.0
C249 C 0.70334 0.2752 0.46373 0.0
H250 H 0.67862 0.18094 0.39699 0.0
C251 C 0.66213 0.29944 0.44934 0.0
C252 C 0.62703 0.28137 0.41531 0.0
H253 H 0.73101 0.29032 0.48827 0.0
H254 H 0.65863 0.33279 0.46352 0.0
C255 C 0.63302 0.23791 0.3978 0.0
C256 C 0.38393 0.4617 0.91159 0.0
C257 C 0.3609 0.46761 0.95853 0.0
H258 H 0.42878 0.49019 0.85322 0.0
C259 C 0.36195 0.51022 0.98001 0.0
H260 H 0.38453 0.42939 0.89411 0.0
C261 C 0.38814 0.54528 0.95671 0.0
C262 C 0.4138 0.53843 0.91145 0.0
H263 H 0.34401 0.51605 0.01581 0.0
H264 H 0.39003 0.57713 0.97535 0.0
C265 C 0.40986 0.49665 0.88832 0.0
C266 C 0.60249 0.54315 0.47991 0.0
C267 C 0.64668 0.56163 0.46115 0.0
H268 H 0.54658 0.49305 0.47339 0.0
C269 C 0.66727 0.54268 0.41763 0.0
H270 H 0.58403 0.55766 0.51175 0.0
C271 C 0.64449 0.50568 0.39428 0.0
C272 C 0.60131 0.48665 0.41467 0.0
H273 H 0.70118 0.55606 0.40198 0.0
H274 H 0.66099 0.49156 0.36102 0.0
C275 C 0.58062 0.50604 0.45752 0.0
C276 C 0.68361 0.50536 0.93324 0.0
C277 C 0.6594 0.4709 0.9605 0.0
H278 H 0.67596 0.56512 0.88861 0.0
C279 C 0.60773 0.46909 0.95988 0.0
H280 H 0.72329 0.50817 0.93315 0.0
C281 C 0.58109 0.50226 0.93577 0.0
C282 C 0.60532 0.53738 0.91044 0.0
H283 H 0.58769 0.4425 0.97907 0.0
H284 H 0.54133 0.50078 0.93744 0.0
C285 C 0.65669 0.53817 0.908 0.0
C286 C 0.36425 0.48986 0.48416 0.0
C287 C 0.35956 0.53173 0.46057 0.0
H288 H 0.39618 0.42553 0.48113 0.0
C289 C 0.37932 0.53834 0.41184 0.0
H290 H 0.34879 0.48335 0.52134 0.0
C291 C 0.40534 0.50517 0.38861 0.0
C292 C 0.41329 0.4646 0.4137 0.0
H293 H 0.37751 0.57012 0.39252 0.0
H294 H 0.42155 0.51241 0.35191 0.0
C295 C 0.39101 0.45658 0.46097 0.0
C296 C 0.84794 0.97546 0.92834 0.0
C297 C 0.83073 0.98563 0.97676 0.0
H298 H 0.89215 0.99678 0.86542 0.0
C299 C 0.83955 0.02832 0.99615 0.0
H300 H 0.84197 0.94257 0.91297 0.0
C301 C 0.86822 0.05935 0.96925 0.0
C302 C 0.88919 0.04803 0.92268 0.0
H303 H 0.82674 0.0367 0.03364 0.0
H304 H 0.87644 0.09113 0.98653 0.0
C305 C 0.87703 1.00641 0.9015 0.0
C306 C 0.17203 0.04349 0.42171 0.0
C307 C 0.1803 0.03876 0.47425 0.0
H308 H 0.13814 0.01536 0.35497 0.0
C309 C 0.16666 0.99866 0.4984 0.0
H310 H 0.18233 0.07408 0.40225 0.0
C311 C 0.14155 0.96543 0.47177 0.0
C312 C 0.12962 0.97132 0.42018 0.0
H313 H 0.17346 0.99383 0.53871 0.0
H314 H 0.12947 0.93585 0.49225 0.0
C315 C 0.14682 0.00989 0.39476 0.0
C316 C 0.14004 0.96744 0.91173 0.0
C317 C 0.14915 0.96838 0.96444 0.0
H318 H 0.10319 0.99748 0.84803 0.0
C319 C 0.13017 1.00313 0.99286 0.0
H320 H 0.15435 0.94114 0.88883 0.0
C321 C 0.10102 0.03502 0.96979 0.0
C322 C 0.09013 0.03329 0.91752 0.0
H323 H 0.13766 1.00561 0.03325 0.0
H324 H 0.08653 0.06086 0.99327 0.0
C325 C 0.11074 0.99965 0.88843 0.0
C326 C 0.9027 0.05163 0.41565 0.0
C327 C 0.87544 0.04313 0.4599 0.0
H328 H 0.95158 0.02683 0.36058 0.0
C329 C 0.87505 1.00001 0.48095 0.0
H330 H 0.90471 0.08451 0.39878 0.0
C331 C 0.90282 0.96668 0.45922 0.0
C332 C 0.93156 0.97594 0.4161 0.0
H333 H 0.85401 0.99226 0.51475 0.0
H334 H 0.90291 0.93416 0.47705 0.0
C335 C 0.93014 0.0185 0.39396 0.0
C336 C 0.39111 0.33917 0.12951 0.0
C337 C 0.36485 0.37754 0.11762 0.0
H338 H 0.44016 0.30715 0.1812 0.0
C339 C 0.36449 0.41203 0.15321 0.0
H340 H 0.39271 0.31218 0.10279 0.0
C341 C 0.39224 0.40938 0.19809 0.0
C342 C 0.42098 0.37216 0.2084 0.0
H343 H 0.34412 0.44181 0.14545 0.0
H344 H 0.3926 0.43728 0.2237 0.0
C345 C 0.41876 0.33648 0.17439 0.0
C346 C 0.64141 0.69035 0.63412 0.0
C347 C 0.66373 0.651 0.61888 0.0
H348 H 0.59719 0.72184 0.68985 0.0
C349 C 0.6646 0.61505 0.65338 0.0
H350 H 0.63964 0.71865 0.60857 0.0
C351 C 0.63928 0.6166 0.69925 0.0
C352 C 0.61363 0.65456 0.71246 0.0
H353 H 0.68252 0.58463 0.64367 0.0
H354 H 0.63785 0.58727 0.72337 0.0
C355 C 0.61687 0.6922 0.68069 0.0
C356 C 0.66477 0.42579 0.15555 0.0
C357 C 0.67629 0.38957 0.12525 0.0
H358 H 0.62784 0.44854 0.22114 0.0
C359 C 0.66381 0.34648 0.14235 0.0
H360 H 0.67448 0.45929 0.14348 0.0
C361 C 0.63675 0.34015 0.18726 0.0
C362 C 0.62193 0.37692 0.21534 0.0
H363 H 0.67229 0.31805 0.11947 0.0
H364 H 0.62482 0.30692 0.19811 0.0
C365 C 0.63801 0.41956 0.2 0.0
C366 C 0.38652 0.66536 0.62604 0.0
C367 C 0.36144 0.62516 0.61562 0.0
H368 H 0.43373 0.70139 0.67697 0.0
C369 C 0.36119 0.59141 0.65291 0.0
H370 H 0.38804 0.69189 0.59802 0.0
C371 C 0.38802 0.59663 0.69809 0.0
C372 C 0.41559 0.63581 0.70704 0.0
H373 H 0.34164 0.56028 0.64634 0.0
H374 H 0.38858 0.56931 0.7251 0.0
C375 C 0.41313 0.67067 0.67127 0.0
C376 C 0.8716 0.93668 0.16563 0.0
C377 C 0.85656 0.90059 0.13565 0.0
H378 H 0.91664 0.95982 0.22701 0.0
C379 C 0.8742 0.85828 0.14713 0.0
H380 H 0.85815 0.96958 0.1576 0.0
C381 C 0.90834 0.85263 0.18663 0.0
C382 C 0.92482 0.88915 0.21553 0.0
H383 H 0.86316 0.83004 0.12426 0.0
H384 H 0.92248 0.81987 0.19388 0.0
C385 C 0.90512 0.93102 0.20533 0.0
C386 C 0.15394 0.16586 0.65274 0.0
C387 C 0.1622 0.12345 0.63319 0.0
H388 H 0.1161 0.204 0.70815 0.0
C389 C 0.14191 0.08624 0.65855 0.0
H390 H 0.16926 0.19513 0.63406 0.0
C391 C 0.1116 0.09124 0.70034 0.0
C392 C 0.10092 0.1336 0.71833 0.0
H393 H 0.14865 0.05303 0.64538 0.0
H394 H 0.09559 0.06173 0.71792 0.0
C395 C 0.12353 0.17092 0.69507 0.0
C396 C 0.17428 0.91577 0.15301 0.0
C397 C 0.17709 0.87941 0.12041 0.0
H398 H 0.14558 0.94129 0.22181 0.0
C399 C 0.15812 0.83797 0.1366 0.0
H400 H 0.18858 0.94807 0.14128 0.0
C401 C 0.13336 0.83394 0.18321 0.0
C402 C 0.12695 0.87147 0.21369 0.0
H403 H 0.15945 0.8096 0.1118 0.0
H404 H 0.11621 0.8024 0.19346 0.0
C405 C 0.14947 0.91189 0.199 0.0
C406 C 0.85061 0.09609 0.65251 0.0
C407 C 0.85333 0.13095 0.61666 0.0
H408 H 0.87372 0.07156 0.72527 0.0
C409 C 0.87685 0.17101 0.63063 0.0
H410 H 0.8322 0.06501 0.64304 0.0
C411 C 0.90064 0.17483 0.67771 0.0
C412 C 0.90149 0.13866 0.71186 0.0
H413 H 0.87999 0.1984 0.60383 0.0
H414 H 0.92071 0.20535 0.68603 0.0
C415 C 0.87437 0.09991 0.69966 0.0
loop_
_geom_bond_atom_site_label_1
_geom_bond_atom_site_label_2
_geom_bond_distance
_geom_bond_site_symmetry_2
_ccdc_geom_bond_type
H0 C3 0.929 . S
H1 C6 0.929 . S
H2 C8 0.930 . S
C3 H0 0.929 . S
C3 C4 1.398 . S
C3 C5 1.396 1_554 S
C4 C3 1.398 . S
C4 C8 1.407 . S
C5 C3 1.396 1_556 S
C5 C6 1.394 . S
C6 H1 0.929 . S
C6 C5 1.394 . S
C6 C7 1.382 1_556 S
C7 C6 1.382 1_554 S
C7 C8 1.392 . S
C7 N9 1.420 1_554 S
C8 H2 0.930 . S
C8 C4 1.407 . S
C8 C7 1.392 . S
N9 C7 1.420 1_556 S
N9 C10 1.244 . S
C10 N9 1.244 . S
H11 C14 0.929 . S
H12 C17 0.929 . S
H13 C19 0.930 . S
C14 H11 0.929 . S
C14 C15 1.398 . S
C14 C16 1.396 . S
C15 C14 1.398 . S
C15 C19 1.407 . S
C16 C14 1.396 . S
C16 C17 1.394 . S
C17 H12 0.929 . S
C17 C16 1.394 . S
C17 C18 1.382 . S
C18 C17 1.382 . S
C18 C19 1.392 . S
C18 N20 1.420 . S
C19 H13 0.930 . S
C19 C15 1.407 . S
C19 C18 1.392 . S
N20 C18 1.420 . S
N20 C21 1.244 . S
C21 N20 1.244 . S
H22 C25 0.929 . S
H23 C28 0.929 . S
H24 C30 0.930 . S
C25 H22 0.929 . S
C25 C26 1.398 . S
C25 C27 1.396 1_554 S
C26 C25 1.398 . S
C26 C30 1.407 . S
C27 C25 1.396 1_556 S
C27 C28 1.394 . S
C28 H23 0.929 . S
C28 C27 1.394 . S
C28 C29 1.382 1_556 S
C29 C28 1.382 1_554 S
C29 C30 1.392 . S
C29 N31 1.420 . S
C30 H24 0.930 . S
C30 C26 1.407 . S
C30 C29 1.392 . S
N31 C29 1.420 . S
N31 C32 1.244 1_554 S
C32 N31 1.244 1_556 S
H33 C36 0.929 . S
H34 C39 0.929 . S
H35 C41 0.930 . S
C36 H33 0.929 . S
C36 C37 1.398 . S
C36 C38 1.396 . S
C37 C36 1.398 . S
C37 C41 1.407 . S
C38 C36 1.396 . S
C38 C39 1.394 . S
C39 H34 0.929 . S
C39 C38 1.394 . S
C39 C40 1.382 . S
C40 C39 1.382 . S
C40 C41 1.392 . S
C40 N42 1.420 . S
C41 H35 0.930 . S
C41 C37 1.407 . S
C41 C40 1.392 . S
N42 C40 1.420 . S
N42 C43 1.244 . S
C43 N42 1.244 . S
H44 C47 0.929 . S
H45 C50 0.929 . S
H46 C52 0.930 . S
C47 H44 0.929 . S
C47 C48 1.398 . S
C47 C49 1.396 1_554 S
C48 C47 1.398 . S
C48 C52 1.407 . S
C49 C47 1.396 1_556 S
C49 C50 1.394 . S
C50 H45 0.929 . S
C50 C49 1.394 . S
C50 C51 1.382 1_556 S
C51 C50 1.382 1_554 S
C51 C52 1.392 . S
C51 N53 1.420 1_554 S
C52 H46 0.930 . S
C52 C48 1.407 . S
C52 C51 1.392 . S
N53 C51 1.420 1_556 S
N53 C54 1.244 . S
C54 N53 1.244 . S
H55 C58 0.929 . S
H56 C61 0.929 . S
H57 C63 0.930 . S
C58 H55 0.929 . S
C58 C59 1.398 . S
C58 C60 1.396 . S
C59 C58 1.398 . S
C59 C63 1.407 . S
C60 C58 1.396 . S
C60 C61 1.394 . S
C61 H56 0.929 . S
C61 C60 1.394 . S
C61 C62 1.382 . S
C62 C61 1.382 . S
C62 C63 1.392 . S
C62 N64 1.420 . S
C63 H57 0.930 . S
C63 C59 1.407 . S
C63 C62 1.392 . S
N64 C62 1.420 . S
N64 C65 1.244 . S
C65 N64 1.244 . S
H66 C69 0.929 . S
H67 C72 0.929 . S
H68 C74 0.930 . S
C69 H66 0.929 . S
C69 C70 1.398 . S
C69 C71 1.396 1_554 S
C70 C69 1.398 . S
C70 C74 1.407 . S
C71 C69 1.396 1_556 S
C71 C72 1.394 . S
C72 H67 0.929 . S
C72 C71 1.394 . S
C72 C73 1.382 1_556 S
C73 C72 1.382 1_554 S
C73 C74 1.392 . S
C73 N75 1.420 . S
C74 H68 0.930 . S
C74 C70 1.407 . S
C74 C73 1.392 . S
N75 C73 1.420 . S
N75 C76 1.244 1_554 S
C76 N75 1.244 1_556 S
H77 C80 0.929 . S
H78 C83 0.929 . S
H79 C85 0.930 . S
C80 H77 0.929 . S
C80 C81 1.398 . S
C80 C82 1.396 . S
C81 C80 1.398 . S
C81 C85 1.407 . S
C82 C80 1.396 . S
C82 C83 1.394 . S
C83 H78 0.929 . S
C83 C82 1.394 . S
C83 C84 1.382 . S
C84 C83 1.382 . S
C84 C85 1.392 . S
C84 N86 1.420 . S
C85 H79 0.930 . S
C85 C81 1.407 . S
C85 C84 1.392 . S
N86 C84 1.420 . S
N86 C87 1.244 . S
C87 N86 1.244 . S
Fe88 O90 1.918 . S
Fe88 O93 1.997 1_455 S
Fe88 O94 2.002 1_455 S
Fe88 O99 1.976 . S
Fe88 O102 1.996 . S
Fe89 O90 1.918 . S
Fe89 O97 1.997 1_455 S
Fe89 O100 1.996 . S
Fe89 O104 1.976 . S
Fe89 O107 2.002 1_455 S
O90 Fe88 1.918 . S
O90 Fe89 1.918 . S
O90 Fe91 1.918 . S
Fe91 O90 1.918 . S
Fe91 O92 2.002 1_455 S
Fe91 O101 1.976 . S
Fe91 O105 1.996 . S
Fe91 O108 1.997 1_455 S
O92 Fe91 2.002 1_655 S
O92 C109 1.295 . S
O93 Fe88 1.997 1_655 S
O93 C109 1.235 . S
O94 Fe88 2.002 1_655 S
O94 C95 1.295 . S
C95 O94 1.295 . S
C95 O97 1.235 . S
C96 O101 1.287 . S
C96 O102 1.255 . S
O97 Fe89 1.997 1_655 S
O97 C95 1.235 . S
C98 O104 1.287 . S
C98 O105 1.255 . S
O99 Fe88 1.976 . S
O99 C106 1.287 . S
O100 Fe89 1.996 . S
O100 C106 1.255 . S
O101 Fe91 1.976 . S
O101 C96 1.287 . S
O102 Fe88 1.996 . S
O102 C96 1.255 . S
C103 O107 1.295 . S
C103 O108 1.235 . S
O104 Fe89 1.976 . S
O104 C98 1.287 . S
O105 Fe91 1.996 . S
O105 C98 1.255 . S
C106 O99 1.287 . S
C106 O100 1.255 . S
O107 Fe89 2.002 1_655 S
O107 C103 1.295 . S
O108 Fe91 1.997 1_655 S
O108 C103 1.235 . S
C109 O92 1.295 . S
C109 O93 1.235 . S
Fe110 O112 1.918 . S
Fe110 O115 1.985 1_655 S
Fe110 O116 1.990 1_655 S
Fe110 O121 1.988 . S
Fe110 O124 2.008 . S
Fe111 O112 1.918 . S
Fe111 O119 1.997 1_655 S
Fe111 O122 1.996 . S
Fe111 O126 1.976 . S
Fe111 O129 2.002 1_655 S
O112 Fe110 1.918 . S
O112 Fe111 1.918 . S
O112 Fe113 1.918 . S
Fe113 O112 1.918 . S
Fe113 O114 2.002 1_655 S
Fe113 O123 1.976 . S
Fe113 O127 1.996 . S
Fe113 O130 1.997 1_655 S
O114 Fe113 2.002 1_455 S
O114 C131 1.295 . S
O115 Fe110 1.985 1_455 S
O115 C131 1.235 . S
O116 Fe110 1.990 1_455 S
O116 C117 1.295 . S
C117 O116 1.295 . S
C117 O119 1.235 . S
C118 O123 1.287 . S
C118 O124 1.255 . S
O119 Fe111 1.997 1_455 S
O119 C117 1.235 . S
C120 O126 1.287 . S
C120 O127 1.255 . S
O121 Fe110 1.988 . S
O121 C128 1.287 . S
O122 Fe111 1.996 . S
O122 C128 1.255 . S
O123 Fe113 1.976 . S
O123 C118 1.287 . S
O124 Fe110 2.008 . S
O124 C118 1.255 . S
C125 O129 1.295 . S
C125 O130 1.235 . S
O126 Fe111 1.976 . S
O126 C120 1.287 . S
O127 Fe113 1.996 . S
O127 C120 1.255 . S
C128 O121 1.287 . S
C128 O122 1.255 . S
O129 Fe111 2.002 1_455 S
O129 C125 1.295 . S
O130 Fe113 1.997 1_455 S
O130 C125 1.235 . S
C131 O114 1.295 . S
C131 O115 1.235 . S
Fe132 O134 1.918 . S
Fe132 O137 1.997 . S
Fe132 O138 2.002 . S
Fe132 O143 1.976 . S
Fe132 O146 1.996 . S
Fe133 O134 1.918 . S
Fe133 O141 1.997 . S
Fe133 O144 1.996 . S
Fe133 O148 1.976 . S
Fe133 O151 2.002 . S
O134 Fe132 1.918 . S
O134 Fe133 1.918 . S
O134 Fe135 1.918 . S
Fe135 O134 1.918 . S
Fe135 O136 2.002 . S
Fe135 O145 1.976 . S
Fe135 O149 1.996 . S
Fe135 O152 1.997 . S
O136 Fe135 2.002 . S
O136 C153 1.295 . S
O137 Fe132 1.997 . S
O137 C153 1.235 . S
O138 Fe132 2.002 . S
O138 C139 1.295 . S
C139 O138 1.295 . S
C139 O141 1.235 . S
C140 O145 1.287 . S
C140 O146 1.255 . S
O141 Fe133 1.997 . S
O141 C139 1.235 . S
C142 O148 1.287 . S
C142 O149 1.255 . S
O143 Fe132 1.976 . S
O143 C150 1.287 . S
O144 Fe133 1.996 . S
O144 C150 1.255 . S
O145 Fe135 1.976 . S
O145 C140 1.287 . S
O146 Fe132 1.996 . S
O146 C140 1.255 . S
C147 O151 1.295 . S
C147 O152 1.235 . S
O148 Fe133 1.976 . S
O148 C142 1.287 . S
O149 Fe135 1.996 . S
O149 C142 1.255 . S
C150 O143 1.287 . S
C150 O144 1.255 . S
O151 Fe133 2.002 . S
O151 C147 1.295 . S
O152 Fe135 1.997 . S
O152 C147 1.235 . S
C153 O136 1.295 . S
C153 O137 1.235 . S
Fe154 O156 1.918 . S
Fe154 O159 1.997 . S
Fe154 O160 2.002 . S
Fe154 O165 1.976 . S
Fe154 O168 1.996 . S
Fe155 O156 1.918 . S
Fe155 O163 1.997 . S
Fe155 O166 1.996 . S
Fe155 O170 1.976 . S
Fe155 O173 2.002 . S
O156 Fe154 1.918 . S
O156 Fe155 1.918 . S
O156 Fe157 1.918 . S
Fe157 O156 1.918 . S
Fe157 O158 2.002 . S
Fe157 O167 1.976 . S
Fe157 O171 1.996 . S
Fe157 O174 1.997 . S
O158 Fe157 2.002 . S
O158 C175 1.295 . S
O159 Fe154 1.997 . S
O159 C175 1.235 . S
O160 Fe154 2.002 . S
O160 C161 1.295 . S
C161 O160 1.295 . S
C161 O163 1.235 . S
C162 O167 1.287 . S
C162 O168 1.255 . S
O163 Fe155 1.997 . S
O163 C161 1.235 . S
C164 O170 1.287 . S
C164 O171 1.255 . S
O165 Fe154 1.976 . S
O165 C172 1.287 . S
O166 Fe155 1.996 . S
O166 C172 1.255 . S
O167 Fe157 1.976 . S
O167 C162 1.287 . S
O168 Fe154 1.996 . S
O168 C162 1.255 . S
C169 O173 1.295 . S
C169 O174 1.235 . S
O170 Fe155 1.976 . S
O170 C164 1.287 . S
O171 Fe157 1.996 . S
O171 C164 1.255 . S
C172 O165 1.287 . S
C172 O166 1.255 . S
O173 Fe155 2.002 . S
O173 C169 1.295 . S
O174 Fe157 1.997 . S
O174 C169 1.235 . S
C175 O158 1.295 . S
C175 O159 1.235 . S
C176 C177 1.387 . S
C176 H180 0.950 1_556 S
C176 C185 1.390 . S
C177 C176 1.387 . S
C177 C179 1.387 . S
H178 C185 0.950 . S
C179 C177 1.387 . S
C179 C181 1.390 . S
C179 H183 0.950 . S
H180 C176 0.950 1_554 S
C181 C179 1.390 . S
C181 C182 1.387 . S
C181 H184 0.950 . S
C182 C181 1.387 . S
C182 C185 1.387 . S
H183 C179 0.950 . S
H184 C181 0.950 . S
C185 C176 1.390 . S
C185 H178 0.950 . S
C185 C182 1.387 . S
C186 C187 1.387 . S
C186 H190 0.950 . S
C186 C195 1.390 . S
C187 C186 1.387 . S
C187 C189 1.387 . S
H188 C195 0.950 . S
C189 C187 1.387 . S
C189 C191 1.390 . S
C189 H193 0.950 . S
H190 C186 0.950 . S
C191 C189 1.390 . S
C191 C192 1.387 . S
C191 H194 0.950 . S
C192 C191 1.387 . S
C192 C195 1.387 . S
H193 C189 0.950 . S
H194 C191 0.950 . S
C195 C186 1.390 . S
C195 H188 0.950 . S
C195 C192 1.387 . S
C196 C197 1.387 . S
C196 H200 0.950 1_556 S
C196 C205 1.390 . S
C197 C196 1.387 . S
C197 C199 1.387 . S
H198 C205 0.950 . S
C199 C197 1.387 . S
C199 C201 1.390 . S
C199 H203 0.950 . S
H200 C196 0.950 1_554 S
C201 C199 1.390 . S
C201 C202 1.387 . S
C201 H204 0.950 . S
C202 C201 1.387 . S
C202 C205 1.387 . S
H203 C199 0.950 . S
H204 C201 0.950 . S
C205 C196 1.390 . S
C205 H198 0.950 . S
C205 C202 1.387 . S
C206 C207 1.387 . S
C206 H210 0.950 . S
C206 C215 1.390 . S
C207 C206 1.387 . S
C207 C209 1.387 . S
H208 C215 0.950 . S
C209 C207 1.387 . S
C209 C211 1.390 . S
C209 H213 0.950 . S
H210 C206 0.950 . S
C211 C209 1.390 . S
C211 C212 1.387 . S
C211 H214 0.950 . S
C212 C211 1.387 . S
C212 C215 1.387 . S
H213 C209 0.950 . S
H214 C211 0.950 . S
C215 C206 1.390 . S
C215 H208 0.950 . S
C215 C212 1.387 . S
C216 C217 1.387 . S
C216 H220 0.950 . S
C216 C225 1.390 . S
C217 C216 1.387 . S
C217 C219 1.387 . S
H218 C225 0.950 . S
C219 C217 1.387 . S
C219 C221 1.390 . S
C219 H223 0.950 . S
H220 C216 0.950 . S
C221 C219 1.390 . S
C221 C222 1.387 . S
C221 H224 0.950 . S
C222 C221 1.387 . S
C222 C225 1.387 . S
H223 C219 0.950 . S
H224 C221 0.950 . S
C225 C216 1.390 . S
C225 H218 0.950 . S
C225 C222 1.387 . S
C226 C227 1.387 . S
C226 H230 0.950 . S
C226 C235 1.390 . S
C227 C226 1.387 . S
C227 C229 1.387 . S
H228 C235 0.950 . S
C229 C227 1.387 . S
C229 C231 1.390 . S
C229 H233 0.950 . S
H230 C226 0.950 . S
C231 C229 1.390 . S
C231 C232 1.387 . S
C231 H234 0.950 . S
C232 C231 1.387 . S
C232 C235 1.387 . S
H233 C229 0.950 . S
H234 C231 0.950 . S
C235 C226 1.390 . S
C235 H228 0.950 . S
C235 C232 1.387 . S
C236 C237 1.387 . S
C236 H240 0.950 . S
C236 C245 1.390 . S
C237 C236 1.387 . S
C237 C239 1.387 . S
H238 C245 0.950 . S
C239 C237 1.387 . S
C239 C241 1.390 . S
C239 H243 0.950 1_556 S
H240 C236 0.950 . S
C241 C239 1.390 . S
C241 C242 1.387 . S
C241 H244 0.950 . S
C242 C241 1.387 . S
C242 C245 1.387 . S
H243 C239 0.950 1_554 S
H244 C241 0.950 . S
C245 C236 1.390 . S
C245 H238 0.950 . S
C245 C242 1.387 . S
C246 C247 1.387 . S
C246 H250 0.950 . S
C246 C255 1.390 . S
C247 C246 1.387 . S
C247 C249 1.387 . S
H248 C255 0.950 . S
C249 C247 1.387 . S
C249 C251 1.390 . S
C249 H253 0.950 . S
H250 C246 0.950 . S
C251 C249 1.390 . S
C251 C252 1.387 . S
C251 H254 0.950 . S
C252 C251 1.387 . S
C252 C255 1.387 . S
H253 C249 0.950 . S
H254 C251 0.950 . S
C255 C246 1.390 . S
C255 H248 0.950 . S
C255 C252 1.387 . S
C256 C257 1.387 . S
C256 H260 0.950 . S
C256 C265 1.390 . S
C257 C256 1.387 . S
C257 C259 1.387 . S
H258 C265 0.950 . S
C259 C257 1.387 . S
C259 C261 1.390 . S
C259 H263 0.942 1_556 S
H260 C256 0.950 . S
C261 C259 1.390 . S
C261 C262 1.387 . S
C261 H264 0.950 . S
C262 C261 1.387 . S
C262 C265 1.387 . S
H263 C259 0.942 1_554 S
H264 C261 0.950 . S
C265 C256 1.390 . S
C265 H258 0.950 . S
C265 C262 1.387 . S
C266 C267 1.387 . S
C266 H270 0.950 . S
C266 C275 1.390 . S
C267 C266 1.387 . S
C267 C269 1.387 . S
H268 C275 0.950 . S
C269 C267 1.387 . S
C269 C271 1.390 . S
C269 H273 0.950 . S
H270 C266 0.950 . S
C271 C269 1.390 . S
C271 C272 1.387 . S
C271 H274 0.950 . S
C272 C271 1.387 . S
C272 C275 1.387 . S
H273 C269 0.950 . S
H274 C271 0.950 . S
C275 C266 1.390 . S
C275 H268 0.950 . S
C275 C272 1.387 . S
C276 C277 1.387 . S
C276 H280 0.950 . S
C276 C285 1.390 . S
C277 C276 1.387 . S
C277 C279 1.387 . S
H278 C285 0.950 . S
C279 C277 1.387 . S
C279 C281 1.390 . S
C279 H283 0.950 1_556 S
H280 C276 0.950 . S
C281 C279 1.390 . S
C281 C282 1.387 . S
C281 H284 0.950 . S
C282 C281 1.387 . S
C282 C285 1.387 . S
H283 C279 0.950 1_554 S
H284 C281 0.950 . S
C285 C276 1.390 . S
C285 H278 0.950 . S
C285 C282 1.387 . S
C286 C287 1.387 . S
C286 H290 0.950 . S
C286 C295 1.390 . S
C287 C286 1.387 . S
C287 C289 1.387 . S
H288 C295 0.950 . S
C289 C287 1.387 . S
C289 C291 1.390 . S
C289 H293 0.950 . S
H290 C286 0.950 . S
C291 C289 1.390 . S
C291 C292 1.387 . S
C291 H294 0.950 . S
C292 C291 1.387 . S
C292 C295 1.387 . S
H293 C289 0.950 . S
H294 C291 0.950 . S
C295 C286 1.390 . S
C295 H288 0.950 . S
C295 C292 1.387 . S
C296 C297 1.387 . S
C296 H300 0.950 . S
C296 C305 1.390 . S
C297 C296 1.387 . S
C297 C299 1.387 . S
H298 C305 0.950 . S
C299 C297 1.387 . S
C299 C301 1.390 1_565 S
C299 H303 0.950 1_556 S
H300 C296 0.950 . S
C301 C299 1.390 1_545 S
C301 C302 1.387 . S
C301 H304 0.950 . S
C302 C301 1.387 . S
C302 C305 1.387 1_545 S
H303 C299 0.950 1_554 S
H304 C301 0.950 . S
C305 C296 1.390 . S
C305 H298 0.950 . S
C305 C302 1.387 1_565 S
C306 C307 1.387 . S
C306 H310 0.950 . S
C306 C315 1.390 . S
C307 C306 1.387 . S
C307 C309 1.387 . S
H308 C315 0.950 . S
C309 C307 1.387 . S
C309 C311 1.390 1_545 S
C309 H313 0.950 . S
H310 C306 0.950 . S
C311 C309 1.390 1_565 S
C311 C312 1.387 . S
C311 H314 0.950 . S
C312 C311 1.387 . S
C312 C315 1.387 1_565 S
H313 C309 0.950 . S
H314 C311 0.950 . S
C315 C306 1.390 . S
C315 H308 0.950 . S
C315 C312 1.387 1_545 S
C316 C317 1.387 . S
C316 H320 0.950 . S
C316 C325 1.390 . S
C317 C316 1.387 . S
C317 C319 1.387 . S
H318 C325 0.950 . S
C319 C317 1.387 . S
C319 C321 1.390 1_565 S
C319 H323 0.950 1_556 S
H320 C316 0.950 . S
C321 C319 1.390 1_545 S
C321 C322 1.387 . S
C321 H324 0.950 . S
C322 C321 1.387 . S
C322 C325 1.387 1_545 S
H323 C319 0.950 1_554 S
H324 C321 0.950 . S
C325 C316 1.390 . S
C325 H318 0.950 . S
C325 C322 1.387 1_565 S
C326 C327 1.387 . S
C326 H330 0.950 . S
C326 C335 1.390 . S
C327 C326 1.387 . S
C327 C329 1.387 1_545 S
H328 C335 0.950 . S
C329 C327 1.387 1_565 S
C329 C331 1.390 . S
C329 H333 0.950 . S
H330 C326 0.950 . S
C331 C329 1.390 . S
C331 C332 1.387 . S
C331 H334 0.950 . S
C332 C331 1.387 . S
C332 C335 1.387 1_565 S
H333 C329 0.950 . S
H334 C331 0.950 . S
C335 C326 1.390 . S
C335 H328 0.950 . S
C335 C332 1.387 1_545 S
C336 C337 1.387 . S
C336 H340 0.950 . S
C336 C345 1.390 . S
C337 C336 1.387 . S
C337 C339 1.387 . S
H338 C345 0.950 . S
C339 C337 1.387 . S
C339 C341 1.390 . S
C339 H343 0.950 . S
H340 C336 0.950 . S
C341 C339 1.390 . S
C341 C342 1.387 . S
C341 H344 0.950 . S
C342 C341 1.387 . S
C342 C345 1.387 . S
H343 C339 0.950 . S
H344 C341 0.950 . S
C345 C336 1.390 . S
C345 H338 0.950 . S
C345 C342 1.387 . S
C346 C347 1.387 . S
C346 H350 0.950 . S
C346 C355 1.390 . S
C347 C346 1.387 . S
C347 C349 1.387 . S
H348 C355 0.950 . S
C349 C347 1.387 . S
C349 C351 1.390 . S
C349 H353 0.950 . S
H350 C346 0.950 . S
C351 C349 1.390 . S
C351 C352 1.387 . S
C351 H354 0.950 . S
C352 C351 1.387 . S
C352 C355 1.387 . S
H353 C349 0.950 . S
H354 C351 0.950 . S
C355 C346 1.390 . S
C355 H348 0.950 . S
C355 C352 1.387 . S
C356 C357 1.387 . S
C356 H360 0.950 . S
C356 C365 1.390 . S
C357 C356 1.387 . S
C357 C359 1.387 . S
H358 C365 0.950 . S
C359 C357 1.387 . S
C359 C361 1.390 . S
C359 H363 0.950 . S
H360 C356 0.950 . S
C361 C359 1.390 . S
C361 C362 1.387 . S
C361 H364 0.950 . S
C362 C361 1.387 . S
C362 C365 1.387 . S
H363 C359 0.950 . S
H364 C361 0.950 . S
C365 C356 1.390 . S
C365 H358 0.950 . S
C365 C362 1.387 . S
C366 C367 1.387 . S
C366 H370 0.950 . S
C366 C375 1.390 . S
C367 C366 1.387 . S
C367 C369 1.387 . S
H368 C375 0.950 . S
C369 C367 1.387 . S
C369 C371 1.390 . S
C369 H373 0.950 . S
H370 C366 0.950 . S
C371 C369 1.390 . S
C371 C372 1.387 . S
C371 H374 0.950 . S
C372 C371 1.387 . S
C372 C375 1.387 . S
H373 C369 0.950 . S
H374 C371 0.950 . S
C375 C366 1.390 . S
C375 H368 0.950 . S
C375 C372 1.387 . S
C376 C377 1.387 . S
C376 H380 0.950 . S
C376 C385 1.390 . S
C377 C376 1.387 . S
C377 C379 1.387 . S
H378 C385 0.950 . S
C379 C377 1.387 . S
C379 C381 1.390 . S
C379 H383 0.950 . S
H380 C376 0.950 . S
C381 C379 1.390 . S
C381 C382 1.387 . S
C381 H384 0.950 . S
C382 C381 1.387 . S
C382 C385 1.387 . S
H383 C379 0.950 . S
H384 C381 0.950 . S
C385 C376 1.390 . S
C385 H378 0.950 . S
C385 C382 1.387 . S
C386 C387 1.387 . S
C386 H390 0.950 . S
C386 C395 1.390 . S
C387 C386 1.387 . S
C387 C389 1.387 . S
H388 C395 0.950 . S
C389 C387 1.387 . S
C389 C391 1.390 . S
C389 H393 0.950 . S
H390 C386 0.950 . S
C391 C389 1.390 . S
C391 C392 1.387 . S
C391 H394 0.950 . S
C392 C391 1.387 . S
C392 C395 1.387 . S
H393 C389 0.950 . S
H394 C391 0.950 . S
C395 C386 1.390 . S
C395 H388 0.950 . S
C395 C392 1.387 . S
C396 C397 1.387 . S
C396 H400 0.950 . S
C396 C405 1.390 . S
C397 C396 1.387 . S
C397 C399 1.387 . S
H398 C405 0.950 . S
C399 C397 1.387 . S
C399 C401 1.390 . S
C399 H403 0.950 . S
H400 C396 0.950 . S
C401 C399 1.390 . S
C401 C402 1.387 . S
C401 H404 0.950 . S
C402 C401 1.387 . S
C402 C405 1.387 . S
H403 C399 0.950 . S
H404 C401 0.950 . S
C405 C396 1.390 . S
C405 H398 0.950 . S
C405 C402 1.387 . S
C406 C407 1.387 . S
C406 H410 0.950 . S
C406 C415 1.390 . S
C407 C406 1.387 . S
C407 C409 1.387 . S
H408 C415 0.950 . S
C409 C407 1.387 . S
C409 C411 1.390 . S
C409 H413 0.950 . S
H410 C406 0.950 . S
C411 C409 1.390 . S
C411 C412 1.387 . S
C411 H414 0.950 . S
C412 C411 1.387 . S
C412 C415 1.387 . S
H413 C409 0.950 . S
H414 C411 0.950 . S
C415 C406 1.390 . S
C415 H408 0.950 . S
C415 C412 1.387 . S
C177 C10 1.540 . S
C182 C131 1.526 . S
C192 C95 1.529 . S
C187 C21 1.540 . S
C202 C118 1.593 . S
C197 C32 1.585 . S
C212 C106 1.494 . S
C207 C43 1.491 . S
C222 C175 1.528 . S
C217 C54 1.541 . S
C232 C139 1.529 . S
C227 C65 1.540 . S
C237 C76 1.584 . S
C242 C162 1.592 . S
C252 C150 1.492 . S
C247 C87 1.490 . S
C257 C5 1.504 . S
C262 C172 1.544 . S
C272 C142 1.522 . S
C267 C16 1.485 . S
C277 C27 1.568 . S
C282 C161 1.600 . S
C287 C37 1.460 . S
C292 C147 1.478 . S
C302 C128 1.544 . S
C297 C49 1.504 . S
C307 C60 1.483 . S
C312 C98 1.522 . S
C322 C117 1.600 . S
C317 C71 1.569 . S
C332 C103 1.477 . S
C327 C81 1.462 . S
C342 C153 1.524 . S
C337 C4 1.516 . S
C352 C169 1.521 . S
C347 C15 1.508 . S
C357 C26 1.501 . S
C362 C140 1.509 . S
C372 C164 1.508 . S
C367 C38 1.471 . S
C382 C109 1.525 . S
C377 C48 1.514 . S
C387 C59 1.508 . S
C392 C125 1.521 . S
C397 C70 1.501 . S
C402 C96 1.509 . S
C407 C82 1.473 . S
C412 C120 1.508 . S
