# Generated by pormake.
# Topology zzz, (3,6)-cn, num edge types: 1
# Building blocks:
#     Node 0, Type 0, BuildingBlock: VETTIZ_charged_linker_0, # of connection points: 3
#     Node 1, Type 0, BuildingBlock: VETTIZ_charged_linker_0, # of connection points: 3
#     Node 2, Type 0, BuildingBlock: VETTIZ_charged_linker_0, # of connection points: 3
#     Node 3, Type 0, BuildingBlock: VETTIZ_charged_linker_0, # of connection points: 3
#     Node 4, Type 0, BuildingBlock: VETTIZ_charged_linker_0, # of connection points: 3
#     Node 5, Type 0, BuildingBlock: VETTIZ_charged_linker_0, # of connection points: 3
#     Node 6, Type 0, BuildingBlock: VETTIZ_charged_linker_0, # of connection points: 3
#     Node 7, Type 0, BuildingBlock: VETTIZ_charged_linker_0, # of connection points: 3
#     Node 8, Type 1, BuildingBlock: BETDIP_clean_sbu_0, # of connection points: 6
#     Node 9, Type 1, BuildingBlock: BETDIP_clean_sbu_0, # of connection points: 6
#     Node 10, Type 1, BuildingBlock: BETDIP_clean_sbu_0, # of connection points: 6
#     Node 11, Type 1, BuildingBlock: BETDIP_clean_sbu_0, # of connection points: 6
#     Edge 12, Type (0, 1), BuildingBlock: XIVTED_clean_linker_0, # of connection points: 2
#     Edge 13, Type (0, 1), BuildingBlock: XIVTED_clean_linker_0, # of connection points: 2
#     Edge 14, Type (0, 1), BuildingBlock: XIVTED_clean_linker_0, # of connection points: 2
#     Edge 15, Type (0, 1), BuildingBlock: XIVTED_clean_linker_0, # of connection points: 2
#     Edge 16, Type (0, 1), BuildingBlock: XIVTED_clean_linker_0, # of connection points: 2
#     Edge 17, Type (0, 1), BuildingBlock: XIVTED_clean_linker_0, # of connection points: 2
#     Edge 18, Type (0, 1), BuildingBlock: XIVTED_clean_linker_0, # of connection points: 2
#     Edge 19, Type (0, 1), BuildingBlock: XIVTED_clean_linker_0, # of connection points: 2
#     Edge 20, Type (0, 1), BuildingBlock: XIVTED_clean_linker_0, # of connection points: 2
#     Edge 21, Type (0, 1), BuildingBlock: XIVTED_clean_linker_0, # of connection points: 2
#     Edge 22, Type (0, 1), BuildingBlock: XIVTED_clean_linker_0, # of connection points: 2
#     Edge 23, Type (0, 1), BuildingBlock: XIVTED_clean_linker_0, # of connection points: 2
#     Edge 24, Type (0, 1), BuildingBlock: XIVTED_clean_linker_0, # of connection points: 2
#     Edge 25, Type (0, 1), BuildingBlock: XIVTED_clean_linker_0, # of connection points: 2
#     Edge 26, Type (0, 1), BuildingBlock: XIVTED_clean_linker_0, # of connection points: 2
#     Edge 27, Type (0, 1), BuildingBlock: XIVTED_clean_linker_0, # of connection points: 2
#     Edge 28, Type (0, 1), BuildingBlock: XIVTED_clean_linker_0, # of connection points: 2
#     Edge 29, Type (0, 1), BuildingBlock: XIVTED_clean_linker_0, # of connection points: 2
#     Edge 30, Type (0, 1), BuildingBlock: XIVTED_clean_linker_0, # of connection points: 2
#     Edge 31, Type (0, 1), BuildingBlock: XIVTED_clean_linker_0, # of connection points: 2
#     Edge 32, Type (0, 1), BuildingBlock: XIVTED_clean_linker_0, # of connection points: 2
#     Edge 33, Type (0, 1), BuildingBlock: XIVTED_clean_linker_0, # of connection points: 2
#     Edge 34, Type (0, 1), BuildingBlock: XIVTED_clean_linker_0, # of connection points: 2
#     Edge 35, Type (0, 1), BuildingBlock: XIVTED_clean_linker_0, # of connection points: 2
# Relax obj value: 0.449
# Max RMSD: 0.268
# Mean RMSD: 0.245
data_MOF--net-zzz--node1-BETDIP_clean_sbu_0--node2-VETTIZ_charged_linker_0--edge1-XIVTED_clean_linker_0
_symmetry_space_group_name_H-M    P1
_symmetry_Int_Tables_number       1
_symmetry_cell_setting            triclinic
loop_
_symmetry_equiv_pos_as_xyz
'x, y, z'
_cell_length_a     59.039236
_cell_length_b     59.099818
_cell_length_c     18.547539
_cell_angle_alpha  89.806532
_cell_angle_beta   89.905931
_cell_angle_gamma 89.974323
loop_
_atom_site_label
_atom_site_type_symbol
_atom_site_fract_x
_atom_site_fract_y
_atom_site_fract_z
_atom_type_partial_charge
C0 C 0.78997 0.49986 0.40397 0.0
C1 C 0.80869 0.48812 0.43431 0.0
C2 C 0.81187 0.46523 0.41697 0.0
C3 C 0.7803 0.46646 0.33419 0.0
C4 C 0.77555 0.48836 0.35494 0.0
C5 C 0.7538 0.49666 0.31932 0.0
H6 H 0.67104 0.47462 0.06598 0.0
C7 C 0.76413 0.4596 0.27794 0.0
C8 C 0.74784 0.47681 0.26957 0.0
H9 H 0.67358 0.53279 0.20502 0.0
H10 H 0.70843 0.51842 0.26043 0.0
H11 H 0.71993 0.47692 0.02398 0.0
H12 H 0.68601 0.43604 0.18172 0.0
H13 H 0.70461 0.41837 0.13306 0.0
H14 H 0.6826 0.43341 0.08589 0.0
H15 H 0.70769 0.45026 1.0004 0.0
H16 H 0.73672 0.45257 0.03013 0.0
C17 C 0.75886 0.51845 0.27641 0.0
C18 C 0.73582 0.49998 0.37875 0.0
C19 C 0.7871 0.395 0.11587 0.0
C20 C 0.77937 0.38826 0.04758 0.0
C21 C 0.75764 0.39521 0.02521 0.0
C22 C 0.74494 0.41043 0.06691 0.0
C23 C 0.75428 0.41917 0.13087 0.0
C24 C 0.77463 0.41074 0.15561 0.0
C25 C 0.78281 0.42276 0.22188 0.0
C26 C 0.76467 0.44086 0.23028 0.0
C27 C 0.748 0.43857 0.17731 0.0
C28 C 0.80644 0.43302 0.20461 0.0
C29 C 0.78266 0.40558 0.28547 0.0
C30 C 0.67884 0.48406 0.10937 0.0
C31 C 0.66942 0.50453 0.13219 0.0
C32 C 0.68042 0.51673 0.18736 0.0
C33 C 0.70057 0.50836 0.21943 0.0
C34 C 0.7098 0.48764 0.19576 0.0
C35 C 0.69878 0.47605 0.14119 0.0
C36 C 0.71115 0.4552 0.11831 0.0
C37 C 0.73064 0.45503 0.17108 0.0
C38 C 0.73028 0.47416 0.21659 0.0
C39 C 0.71923 0.45869 0.03915 0.0
C40 C 0.69533 0.43457 0.12975 0.0
H41 H 0.8016 0.43711 0.35614 0.0
H42 H 0.78669 0.51731 0.41818 0.0
H43 H 0.7356 0.4852 0.41603 0.0
H44 H 0.71852 0.5014 0.35694 0.0
H45 H 0.73955 0.51534 0.41103 0.0
H46 H 0.77372 0.51589 0.24041 0.0
H47 H 0.76275 0.53268 0.31338 0.0
H48 H 0.74456 0.52354 0.24174 0.0
H49 H 0.80377 0.39018 0.13469 0.0
H50 H 0.7511 0.39 0.97333 0.0
H51 H 0.7289 0.41572 0.04571 0.0
H52 H 0.80642 0.44112 0.15036 0.0
H53 H 0.81976 0.41974 0.20485 0.0
H54 H 0.81178 0.44637 0.24205 0.0
H55 H 0.77482 0.4128 0.3347 0.0
H56 H 0.80004 0.39966 0.29849 0.0
H57 H 0.77238 0.39027 0.27339 0.0
H58 H 0.82586 0.45579 0.44005 0.0
C59 C 0.7978 0.45439 0.36783 0.0
C60 C 1.00746 0.79847 0.87303 0.0
C61 C 0.01097 0.82153 0.86001 0.0
C62 C 1.00557 0.83728 0.91438 0.0
C63 C 0.99705 0.80662 0.99707 0.0
C64 C 1.00045 0.79145 0.94163 0.0
C65 C 0.99762 0.76744 0.96576 0.0
H66 H 0.98533 0.68832 0.22431 0.0
C67 C 0.99343 0.79344 0.06426 0.0
C68 C 0.9936 0.77056 0.04611 0.0
H69 H 0.98928 0.68161 0.99238 0.0
H70 H 0.99196 0.72133 0.97919 0.0
H71 H 0.02482 0.73311 0.23412 0.0
H72 H 0.95127 0.73723 0.22484 0.0
H73 H 0.96389 0.75175 0.29862 0.0
H74 H 0.96511 0.72142 0.29527 0.0
H75 H 1.00758 0.71955 0.30173 0.0
H76 H 0.01224 0.74957 0.30352 0.0
C77 C 0.02019 0.75475 0.95008 0.0
C78 C 0.97639 0.75784 0.92687 0.0
C79 C 0.99079 0.83627 0.29899 0.0
C80 C 0.99018 0.83051 0.3724 0.0
C81 C 0.98971 0.80719 0.39067 0.0
C82 C 0.98941 0.7902 0.33642 0.0
C83 C 0.98993 0.79651 0.26293 0.0
C84 C 0.99073 0.81938 0.24622 0.0
C85 C 0.99235 0.82379 0.16701 0.0
C86 C 0.99205 0.79998 0.13764 0.0
C87 C 0.99051 0.78357 0.19321 0.0
C88 C 0.01524 0.83594 0.15213 0.0
C89 C 0.97105 0.83731 0.14357 0.0
C90 C 0.98678 0.69575 0.17108 0.0
C91 C 0.98712 0.68177 0.10876 0.0
C92 C 0.98896 0.69191 0.04067 0.0
C93 C 0.99041 0.7152 0.03314 0.0
C94 C 0.99017 0.72908 0.09429 0.0
C95 C 0.98829 0.71967 0.16232 0.0
C96 C 0.98833 0.73822 0.21971 0.0
C97 C 0.99001 0.75992 0.17393 0.0
C98 C 0.99134 0.75387 0.10062 0.0
C99 C 0.00933 0.73499 0.26782 0.0
C100 C 0.96596 0.73714 0.26233 0.0
H101 H 0.9958 0.8427 0.0229 0.0
H102 H 0.0114 0.78606 0.83198 0.0
H103 H 0.96459 0.77148 0.90937 0.0
H104 H 0.96595 0.74697 0.96262 0.0
H105 H 0.98117 0.74814 0.87797 0.0
H106 H 0.03501 0.76617 0.95691 0.0
H107 H 0.02062 0.74825 0.89398 0.0
H108 H 0.0235 0.74061 0.98767 0.0
H109 H 0.99179 0.85383 0.28232 0.0
H110 H 0.98926 0.8021 0.44679 0.0
H111 H 0.98882 0.77282 0.35333 0.0
H112 H 0.02841 0.83067 0.19164 0.0
H113 H 0.0134 0.8546 0.15609 0.0
H114 H 0.02265 0.8317 0.0992 0.0
H115 H 0.95591 0.83195 0.17511 0.0
H116 H 0.96636 0.83437 0.08669 0.0
H117 H 0.97341 0.85574 0.15224 0.0
H118 H 1.00832 0.85521 0.90563 0.0
C119 C 0.99862 0.82995 0.98284 0.0
C120 C 0.83394 0.9882 0.15987 0.0
C121 C 0.84796 0.98109 0.1015 0.0
C122 C 0.83775 0.97051 0.04181 0.0
C123 C 0.80097 0.97979 0.08798 0.0
C124 C 0.81006 0.98638 0.15263 0.0
C125 C 0.79111 0.98907 0.20844 0.0
H126 H 0.67452 0.99266 0.25482 0.0
C127 C 0.77657 0.98201 0.09045 0.0
C128 C 0.76975 0.98585 0.1619 0.0
H129 H 0.72375 0.99414 0.42648 0.0
H130 H 0.75445 0.99282 0.3371 0.0
H131 H 0.70513 0.02251 0.07959 0.0
H132 H 0.69854 0.95431 0.15628 0.0
H133 H 0.69455 0.96428 0.06724 0.0
H134 H 0.67425 0.97153 0.1361 0.0
H135 H 0.69258 0.02524 0.1652 0.0
H136 H 0.67768 0.01024 0.09723 0.0
C137 C 0.79218 0.01284 0.24172 0.0
C138 C 0.79369 0.97008 0.26495 0.0
C139 C 0.73909 0.01179 0.86473 0.0
C140 C 0.71633 0.01601 0.84816 0.0
C141 C 0.69921 1.00812 0.89485 0.0
C142 C 0.70474 0.99768 0.9602 0.0
C143 C 0.72759 0.99517 0.97892 0.0
C144 C 0.7443 1.00076 0.92976 0.0
C145 C 0.76743 0.99409 0.95603 0.0
C146 C 0.76165 0.98568 0.03227 0.0
C147 C 0.73853 0.98777 0.04623 0.0
C148 C 0.78295 0.01512 0.9576 0.0
C149 C 0.7768 0.97553 0.90528 0.0
C150 C 0.69183 0.99216 0.27407 0.0
C151 C 0.6965 0.99281 0.34819 0.0
C152 C 0.71952 0.99331 0.36977 0.0
C153 C 0.73731 0.99222 0.31808 0.0
C154 C 0.73205 0.99064 0.2441 0.0
C155 C 0.70948 0.9911 0.22385 0.0
C156 C 0.70628 0.9906 0.14385 0.0
C157 C 0.73057 0.98852 0.11851 0.0
C158 C 0.74597 0.98836 0.17689 0.0
C159 C 0.69483 0.01317 0.11987 0.0
C160 C 0.69256 0.96913 0.12442 0.0
H161 H 0.80698 0.9597 0.99304 0.0
H162 H 0.84132 0.99484 0.20878 0.0
H163 H 0.79553 0.95338 0.23806 0.0
H164 H 0.77886 0.96875 0.30081 0.0
H165 H 0.80897 0.97293 0.29861 0.0
H166 H 0.79185 0.02598 0.19866 0.0
H167 H 0.808 0.01498 0.27331 0.0
H168 H 0.77764 0.01603 0.2779 0.0
H169 H 0.7524 0.01733 0.82855 0.0
H170 H 0.68153 0.01115 0.88245 0.0
H171 H 0.6911 0.99242 0.99452 0.0
H172 H 0.77558 0.0285 0.99255 0.0
H173 H 0.78529 0.02222 0.90257 0.0
H174 H 0.8 0.01086 0.97849 0.0
H175 H 0.76982 0.97699 0.84981 0.0
H176 H 0.77248 0.95834 0.92548 0.0
H177 H 0.79538 0.97707 0.89796 0.0
H178 H 0.84791 0.96372 0.99825 0.0
C179 C 0.8143 0.96934 0.03594 0.0
C180 C 0.5041 0.7248 0.39044 0.0
C181 C 0.49286 0.70792 0.4319 0.0
C182 C 0.46905 0.7077 0.43321 0.0
C183 C 0.46783 0.73727 0.34335 0.0
C184 C 0.49096 0.73994 0.34798 0.0
C185 C 0.49844 0.76063 0.30468 0.0
H186 H 0.46561 0.84302 0.06097 0.0
C187 C 0.45888 0.75283 0.28856 0.0
C188 C 0.47632 0.7676 0.26701 0.0
H189 H 0.53072 0.83864 0.1651 0.0
H190 H 0.51874 0.80407 0.22746 0.0
H191 H 0.46541 0.79437 0.01878 0.0
H192 H 0.43246 0.8286 0.19248 0.0
H193 H 0.41266 0.81049 0.15032 0.0
H194 H 0.42642 0.83222 0.09818 0.0
H195 H 0.43719 0.80485 0.009 0.0
H196 H 0.44275 0.77642 0.04049 0.0
C197 C 0.51687 0.75364 0.25026 0.0
C198 C 0.50651 0.77878 0.35838 0.0
C199 C 0.38915 0.72731 0.15556 0.0
C200 C 0.38053 0.73355 0.08773 0.0
C201 C 0.38616 0.75505 0.05976 0.0
C202 C 0.40216 0.76874 0.09468 0.0
C203 C 0.41306 0.76059 0.15703 0.0
C204 C 0.40577 0.74064 0.18808 0.0
C205 C 0.41989 0.73376 0.25188 0.0
C206 C 0.43815 0.75199 0.25008 0.0
C207 C 0.43398 0.76763 0.19484 0.0
C208 C 0.42965 0.70981 0.23727 0.0
C209 C 0.40482 0.73507 0.3205 0.0
C210 C 0.47715 0.83502 0.0986 0.0
C211 C 0.49882 0.84401 0.10977 0.0
C212 C 0.51374 0.83229 0.15644 0.0
C213 C 0.50671 0.8124 0.19313 0.0
C214 C 0.48462 0.80401 0.18245 0.0
C215 C 0.47054 0.81522 0.13443 0.0
C216 C 0.44858 0.80315 0.1228 0.0
C217 C 0.4505 0.7842 0.17747 0.0
C218 C 0.47174 0.78431 0.21251 0.0
C219 C 0.44827 0.79429 0.04386 0.0
C220 C 0.42887 0.81942 0.14148 0.0
H221 H 0.43854 0.72129 0.3928 0.0
H222 H 0.52238 0.7261 0.3912 0.0
H223 H 0.49427 0.78045 0.40372 0.0
H224 H 0.50779 0.7957 0.33369 0.0
H225 H 0.52324 0.77414 0.38144 0.0
H226 H 0.51108 0.73891 0.21801 0.0
H227 H 0.53272 0.74878 0.27856 0.0
H228 H 0.52088 0.76738 0.21186 0.0
H229 H 0.38512 0.71103 0.17905 0.0
H230 H 0.37936 0.76058 0.00844 0.0
H231 H 0.40632 0.78458 0.06965 0.0
H232 H 0.43805 0.70927 0.18355 0.0
H233 H 0.41608 0.69682 0.2382 0.0
H234 H 0.44233 0.70432 0.27695 0.0
H235 H 0.4123 0.74639 0.36181 0.0
H236 H 0.40212 0.71807 0.34474 0.0
H237 H 0.3877 0.74213 0.30932 0.0
H238 H 0.46001 0.69541 0.46585 0.0
C239 C 0.45657 0.72243 0.39007 0.0
C240 C 0.31968 0.5268 0.30085 0.0
C241 C 0.3349 0.53652 0.35117 0.0
C242 C 0.32899 0.557 0.38445 0.0
C243 C 0.29374 0.55839 0.31841 0.0
C244 C 0.29913 0.53827 0.28464 0.0
C245 C 0.28056 0.53154 0.2318 0.0
H246 H 0.18136 0.56418 0.06343 0.0
C247 C 0.27203 0.56682 0.28987 0.0
C248 C 0.26416 0.55163 0.23709 0.0
H249 H 0.2141 0.49943 0.03992 0.0
H250 H 0.24417 0.51141 0.12258 0.0
H251 H 0.18097 0.56336 0.21489 0.0
H252 H 0.22659 0.59655 0.07145 0.0
H253 H 0.22069 0.61583 0.14121 0.0
H254 H 0.19774 0.60465 0.08796 0.0
H255 H 0.17633 0.5921 0.18867 0.0
H256 H 0.19186 0.58484 0.26926 0.0
C257 C 0.26962 0.50944 0.25919 0.0
C258 C 0.29083 0.52935 0.15575 0.0
C259 C 0.23259 0.63195 0.41512 0.0
C260 C 0.21106 0.64162 0.40398 0.0
C261 C 0.20071 0.63892 0.33594 0.0
C262 C 0.20999 0.62439 0.28449 0.0
C263 C 0.22961 0.6121 0.30135 0.0
C264 C 0.24141 0.61705 0.36341 0.0
C265 C 0.26237 0.60273 0.3707 0.0
C266 C 0.25949 0.58655 0.30744 0.0
C267 C 0.24021 0.5921 0.26763 0.0
C268 C 0.26136 0.59017 0.44422 0.0
C269 C 0.28325 0.61847 0.36109 0.0
C270 C 0.19522 0.55266 0.07468 0.0
C271 C 0.19556 0.53108 0.04402 0.0
C272 C 0.21351 0.51628 0.06261 0.0
C273 C 0.23086 0.52322 0.11068 0.0
C274 C 0.2299 0.54493 0.1421 0.0
C275 C 0.21197 0.55896 0.1239 0.0
C276 C 0.21139 0.58022 0.16711 0.0
C277 C 0.23223 0.57726 0.21346 0.0
C278 C 0.24363 0.55677 0.19861 0.0
C279 C 0.18905 0.58035 0.2121 0.0
C280 C 0.21408 0.6005 0.11455 0.0
H281 H 0.30543 0.58331 0.39643 0.0
H282 H 0.32385 0.51105 0.2743 0.0
H283 H 0.30049 0.54488 0.14145 0.0
H284 H 0.27772 0.52712 0.11406 0.0
H285 H 0.30259 0.51469 0.15306 0.0
H286 H 0.2659 0.51058 0.31789 0.0
H287 H 0.28116 0.49483 0.25066 0.0
H288 H 0.25333 0.50585 0.23266 0.0
H289 H 0.24144 0.63436 0.46558 0.0
H290 H 0.18427 0.6462 0.32455 0.0
H291 H 0.20063 0.62214 0.23562 0.0
H292 H 0.24405 0.58338 0.45411 0.0
H293 H 0.2656 0.60175 0.48927 0.0
H294 H 0.27275 0.57542 0.44729 0.0
H295 H 0.29604 0.61113 0.32401 0.0
H296 H 0.29142 0.62218 0.41363 0.0
H297 H 0.27869 0.63502 0.33626 0.0
H298 H 0.34026 0.5647 0.42339 0.0
C299 C 0.30871 0.56789 0.36842 0.0
C300 C 0.06147 0.2437 0.56179 0.0
C301 C 0.06011 0.22044 0.57691 0.0
C302 C 0.06866 0.20496 0.52582 0.0
C303 C 0.07203 0.23519 0.43868 0.0
C304 C 0.06744 0.25075 0.49207 0.0
C305 C 0.06649 0.27449 0.46304 0.0
H306 H 0.01897 0.34215 0.25376 0.0
C307 C 0.07045 0.24675 0.36832 0.0
C308 C 0.06882 0.26993 0.38192 0.0
H309 H 0.07109 0.35853 0.40972 0.0
H310 H 0.08673 0.3204 0.39624 0.0
H311 H 0.06528 0.30923 0.16009 0.0
H312 H 1.00647 0.28656 0.28263 0.0
H313 H 0.00932 0.27537 0.19343 0.0
H314 H 1.003 0.30483 0.20545 0.0
H315 H 0.03716 0.31688 0.13174 0.0
H316 H 0.04797 0.28891 0.11644 0.0
C317 C 0.08643 0.288 0.49554 0.0
C318 C 0.04333 0.28525 0.4822 0.0
C319 C 0.0497 0.19785 0.15504 0.0
C320 C 0.03851 0.20129 0.08915 0.0
C321 C 0.03158 0.22367 0.07199 0.0
C322 C 0.03548 0.24188 0.12036 0.0
C323 C 0.04656 0.23781 0.18645 0.0
C324 C 0.05318 0.21589 0.2025 0.0
C325 C 0.06317 0.2136 0.27634 0.0
C326 C 0.06329 0.23809 0.30056 0.0
C327 C 0.05347 0.25256 0.24821 0.0
C328 C 0.08759 0.20435 0.26932 0.0
C329 C 0.04721 0.19828 0.32249 0.0
C330 C 0.03325 0.33733 0.28694 0.0
C331 C 0.04283 0.3529 0.33701 0.0
C332 C 0.06266 0.34666 0.37437 0.0
C333 C 0.07109 0.32469 0.36985 0.0
C334 C 0.05913 0.3088 0.32998 0.0
C335 C 0.04265 0.31523 0.28222 0.0
C336 C 0.03823 0.29585 0.2293 0.0
C337 C 0.05223 0.27643 0.26288 0.0
C338 C 0.06276 0.28466 0.32522 0.0
C339 C 0.04757 0.30301 0.15507 0.0
C340 C 0.0128 0.29031 0.22738 0.0
H341 H 0.08059 0.19997 0.41876 0.0
H342 H 0.05587 0.2559 0.60139 0.0
H343 H 0.02919 0.27496 0.46015 0.0
H344 H 0.04175 0.30264 0.46058 0.0
H345 H 0.0411 0.28661 0.54145 0.0
H346 H 0.09085 0.28184 0.55048 0.0
H347 H 0.08204 0.30607 0.50296 0.0
H348 H 0.10187 0.28655 0.46151 0.0
H349 H 0.05561 0.18117 0.17044 0.0
H350 H 0.02271 0.227 0.02203 0.0
H351 H 0.0293 0.25834 0.10574 0.0
H352 H 0.09677 0.21302 0.22467 0.0
H353 H 0.08749 0.18591 0.25776 0.0
H354 H 0.09773 0.20731 0.31848 0.0
H355 H 0.03259 0.19161 0.29137 0.0
H356 H 0.03951 0.20764 0.36814 0.0
H357 H 0.05617 0.18314 0.34363 0.0
H358 H 0.06837 0.18693 0.53643 0.0
C359 C 0.07494 0.21235 0.45682 0.0
C360 C 0.29872 1.00085 0.05021 0.0
C361 C 0.31771 0.98896 0.02249 0.0
C362 C 0.3213 0.96647 0.04434 0.0
C363 C 0.28906 0.96827 0.12472 0.0
C364 C 0.28424 0.98987 0.10055 0.0
C365 C 0.26237 0.99855 0.13433 0.0
H366 H 0.176 0.97701 0.3762 0.0
C367 C 0.27236 0.96182 0.18024 0.0
C368 C 0.25606 0.97914 0.18576 0.0
H369 H 0.18098 0.03539 0.2373 0.0
H370 H 0.21717 0.02143 0.18984 0.0
H371 H 0.19273 0.93917 0.26568 0.0
H372 H 0.22475 0.97947 0.42771 0.0
H373 H 0.24115 0.95478 0.42465 0.0
H374 H 0.21162 0.95305 0.4498 0.0
H375 H 0.18799 0.93623 0.36094 0.0
H376 H 0.2105 0.92119 0.31636 0.0
C377 C 0.2447 1.00153 0.0739 0.0
C378 C 0.2674 0.02062 0.1753 0.0
C379 C 0.29158 0.89602 0.34386 0.0
C380 C 0.28271 0.88912 0.41081 0.0
C381 C 0.26098 0.89669 0.43098 0.0
C382 C 0.24933 0.91253 0.38838 0.0
C383 C 0.25973 0.92125 0.32578 0.0
C384 C 0.28013 0.91234 0.30322 0.0
C385 C 0.2895 0.92445 0.23836 0.0
C386 C 0.27199 0.94306 0.22823 0.0
C387 C 0.25459 0.94098 0.27904 0.0
C388 C 0.28969 0.90758 0.17432 0.0
C389 C 0.31313 0.93405 0.25879 0.0
C390 C 0.18476 0.98674 0.33509 0.0
C391 C 0.17556 1.00705 0.30969 0.0
C392 C 0.18775 0.01955 0.25739 0.0
C393 C 0.20858 0.01134 0.22959 0.0
C394 C 0.21731 0.99052 0.25481 0.0
C395 C 0.20537 0.97893 0.30766 0.0
C396 C 0.21713 0.95793 0.33254 0.0
C397 C 0.23742 0.95769 0.28286 0.0
C398 C 0.23791 0.97683 0.23702 0.0
C399 C 0.20132 0.93746 0.31877 0.0
C400 C 0.22395 0.96126 0.41279 0.0
H401 H 0.31129 0.93915 0.1097 0.0
H402 H 0.29526 0.01801 0.03292 0.0
H403 H 0.28226 0.01832 0.21134 0.0
H404 H 0.25312 0.02589 0.20983 0.0
H405 H 0.27126 0.03462 0.13708 0.0
H406 H 0.24441 0.98638 0.03852 0.0
H407 H 0.24882 0.01649 0.03985 0.0
H408 H 0.22735 1.00348 0.09493 0.0
H409 H 0.30835 0.89078 0.32702 0.0
H410 H 0.25365 0.89145 0.48195 0.0
H411 H 0.23321 0.91822 0.40789 0.0
H412 H 0.27807 0.89303 0.18359 0.0
H413 H 0.30688 0.9005 0.16518 0.0
H414 H 0.28355 0.91548 0.12365 0.0
H415 H 0.31282 0.94119 0.31423 0.0
H416 H 0.31885 0.94806 0.22405 0.0
H417 H 0.32627 0.92059 0.25741 0.0
H418 H 0.3356 0.95698 0.02357 0.0
C419 C 0.30715 0.95613 0.09469 0.0
C420 C 0.51169 0.30294 0.05434 0.0
C421 C 0.52217 0.3228 0.02689 0.0
C422 C 0.54518 0.32657 0.04123 0.0
C423 C 0.54661 0.29314 0.11647 0.0
C424 C 0.52454 0.28799 0.09836 0.0
C425 C 0.51754 0.2654 0.13153 0.0
H426 H 0.54782 0.178 0.35991 0.0
C427 C 0.55492 0.27624 0.16864 0.0
C428 C 0.53837 0.25931 0.17712 0.0
H429 H 0.48667 0.18162 0.23362 0.0
H430 H 0.49818 0.21862 0.18662 0.0
H431 H 0.58402 0.19885 0.24518 0.0
H432 H 0.54314 0.2254 0.41637 0.0
H433 H 0.56592 0.24433 0.40998 0.0
H434 H 0.57112 0.21506 0.43324 0.0
H435 H 0.58715 0.19214 0.33923 0.0
H436 H 0.601 0.21634 0.3003 0.0
C437 C 0.51384 0.24841 0.06977 0.0
C438 C 0.4963 0.26896 0.17854 0.0
C439 C 0.62171 0.29861 0.32118 0.0
C440 C 0.62881 0.29099 0.38931 0.0
C441 C 0.62266 0.26899 0.41156 0.0
C442 C 0.60761 0.25599 0.37015 0.0
C443 C 0.59815 0.26537 0.30709 0.0
C444 C 0.60587 0.28603 0.2825 0.0
C445 C 0.59237 0.29483 0.21991 0.0
C446 C 0.57446 0.27654 0.21302 0.0
C447 C 0.5781 0.25921 0.26322 0.0
C448 C 0.60822 0.29569 0.15303 0.0
C449 C 0.58207 0.31804 0.24216 0.0
C450 C 0.5371 0.18646 0.32086 0.0
C451 C 0.51668 0.17657 0.29896 0.0
C452 C 0.50269 0.18874 0.25061 0.0
C453 C 0.50946 0.2101 0.22303 0.0
C454 C 0.53028 0.21953 0.24481 0.0
C455 C 0.54341 0.20769 0.29402 0.0
C456 C 0.56394 0.22058 0.31723 0.0
C457 C 0.56235 0.24121 0.26906 0.0
C458 C 0.54249 0.24099 0.22662 0.0
C459 C 0.58525 0.20628 0.30008 0.0
C460 C 0.56109 0.22661 0.39832 0.0
H461 H 0.5747 0.31619 0.09498 0.0
H462 H 0.49414 0.2993 0.04221 0.0
H463 H 0.49887 0.28339 0.21599 0.0
H464 H 0.49238 0.25404 0.21218 0.0
H465 H 0.48129 0.27277 0.14449 0.0
H466 H 0.5281 0.24925 0.03055 0.0
H467 H 0.49793 0.25227 0.04026 0.0
H468 H 0.51317 0.23075 0.08887 0.0
H469 H 0.62581 0.31551 0.30261 0.0
H470 H 0.62813 0.26257 0.46345 0.0
H471 H 0.60292 0.23972 0.39107 0.0
H472 H 0.62314 0.28434 0.15928 0.0
H473 H 0.6148 0.31305 0.14351 0.0
H474 H 0.59969 0.28963 0.1035 0.0
H475 H 0.57667 0.31775 0.29967 0.0
H476 H 0.56668 0.32276 0.21239 0.0
H477 H 0.59462 0.33189 0.23562 0.0
H478 H 0.55363 0.34144 0.01982 0.0
C479 C 0.55741 0.31186 0.08505 0.0
Tb480 Tb 0.03243 1.0041 0.77596 0.0
Tb481 Tb 0.99876 0.02558 0.69403 0.0
C482 C 0.06305 0.98873 0.85563 0.0
C483 C 0.07982 0.97132 0.83584 0.0
C484 C 0.08101 0.95135 0.87641 0.0
C485 C 0.08954 0.93164 0.84519 0.0
C486 C 0.09666 0.93166 0.77264 0.0
C487 C 0.09862 0.95236 0.7361 0.0
C488 C 0.09039 0.97212 0.76769 0.0
C489 C 0.04546 0.01151 0.64073 0.0
C490 C 1.0059 0.97238 0.67447 0.0
C491 C 0.97112 0.04405 0.60994 0.0
C492 C 0.96014 0.0662 0.62076 0.0
C493 C 0.96328 0.08326 0.56908 0.0
C494 C 0.96114 0.10596 0.58864 0.0
C495 C 0.95602 0.11185 0.66035 0.0
C496 C 0.94984 0.09474 0.7091 0.0
C497 C 0.95176 0.07206 0.68934 0.0
C498 C 0.98505 0.01743 0.82848 0.0
C499 C 0.02409 0.05654 0.79947 0.0
O500 O 0.04206 0.9816 0.85846 0.0
O501 O 0.06474 1.00797 0.82116 0.0
O502 O 0.03488 0.02533 0.68035 0.0
O503 O 0.049 0.99333 0.67707 0.0
O504 O 0.01758 0.97282 0.7351 0.0
O505 O 0.99908 0.9916 0.64453 0.0
O506 O 0.99308 0.04509 0.60095 0.0
O507 O 0.96543 0.028 0.65505 0.0
O508 O 0.99631 1.00402 0.7892 0.0
O509 O 0.98143 0.03574 0.79242 0.0
O510 O 0.01427 0.05638 0.73581 0.0
O511 O 0.02932 0.0371 0.83083 0.0
H512 H 0.07309 0.95036 0.92909 0.0
H513 H 0.08776 0.9159 0.8748 0.0
H514 H 0.1042 0.95286 0.68044 0.0
H515 H 0.09018 0.98743 0.73545 0.0
H516 H 0.96972 0.07916 0.51596 0.0
H517 H 0.9661 0.11878 0.54984 0.0
H518 H 0.94561 0.09884 0.76441 0.0
H519 H 0.9488 0.05928 0.73019 0.0
Tb520 Tb 0.51259 0.02346 0.73544 0.0
Tb521 Tb 0.49885 0.99035 0.63973 0.0
C522 C 0.53389 0.04978 0.81641 0.0
C523 C 0.55273 0.06461 0.7955 0.0
C524 C 0.57031 0.06884 0.84395 0.0
C525 C 0.59064 0.07816 0.81923 0.0
C526 C 0.59369 0.08323 0.74546 0.0
C527 C 0.57522 0.08089 0.6985 0.0
C528 C 0.55495 0.07152 0.72321 0.0
C529 C 0.49512 0.04134 0.61544 0.0
C530 C 0.54832 1.00464 0.62046 0.0
C531 C 0.47841 0.96518 0.55211 0.0
C532 C 0.46022 0.94852 0.56064 0.0
C533 C 0.45131 0.93781 0.4999 0.0
C534 C 0.43365 0.92228 0.50734 0.0
C535 C 0.42461 0.91716 0.57585 0.0
C536 C 0.434 0.92765 0.63688 0.0
C537 C 0.45168 0.94321 0.6293 0.0
C538 C 0.51614 0.97238 0.76009 0.0
C539 C 0.46317 0.00878 0.75502 0.0
O540 O 0.53831 0.02814 0.81211 0.0
O541 O 0.51437 0.05482 0.78775 0.0
O542 O 0.50859 0.02479 0.61922 0.0
O543 O 0.49071 0.0477 0.68025 0.0
O544 O 0.54548 0.01345 0.68539 0.0
O545 O 0.53041 0.99774 0.58463 0.0
O546 O 0.47279 0.98623 0.564 0.0
O547 O 0.49749 0.95981 0.58302 0.0
O548 O 0.5029 0.98909 0.75603 0.0
O549 O 0.52004 0.96551 0.69543 0.0
O550 O 0.46621 1.00001 0.69018 0.0
O551 O 0.48087 0.01622 0.79109 0.0
H552 H 0.56894 0.06345 0.89969 0.0
H553 H 0.60459 0.0794 0.85684 0.0
H554 H 0.57696 0.08476 0.64164 0.0
H555 H 0.54158 0.06825 0.68464 0.0
H556 H 0.45777 0.94174 0.44658 0.0
H557 H 0.42654 0.91493 0.45901 0.0
H558 H 0.42754 0.92401 0.69035 0.0
H559 H 0.45854 0.95128 0.67689 0.0
Tb560 Tb 0.49011 0.52505 0.78375 0.0
Tb561 Tb 0.51833 0.50509 0.66174 0.0
C562 C 0.46974 0.53909 0.89311 0.0
C563 C 0.45358 0.55784 0.90314 0.0
C564 C 0.45735 0.57899 0.87061 0.0
C565 C 0.44127 0.59619 0.87664 0.0
C566 C 0.42086 0.59256 0.91439 0.0
C567 C 0.41709 0.57126 0.94643 0.0
C568 C 0.43333 0.5541 0.94096 0.0
C569 C 0.46912 0.52235 0.65764 0.0
C570 C 0.51128 0.55805 0.67014 0.0
C571 C 0.53234 0.48509 0.55158 0.0
C572 C 0.54961 0.46722 0.54822 0.0
C573 C 0.55853 0.45843 0.61259 0.0
C574 C 0.5746 0.44115 0.61116 0.0
C575 C 0.58199 0.43214 0.54523 0.0
C576 C 0.57329 0.44126 0.48059 0.0
C577 C 0.55721 0.45871 0.48214 0.0
C578 C 0.54543 0.51421 0.77385 0.0
C579 C 0.50235 0.47212 0.78599 0.0
O580 O 0.49076 0.54465 0.87766 0.0
O581 O 0.46224 0.52243 0.85328 0.0
O582 O 0.48258 0.50786 0.68376 0.0
O583 O 0.46627 0.53826 0.70419 0.0
O584 O 0.50584 0.55554 0.73919 0.0
O585 O 0.51337 0.54031 0.62687 0.0
O586 O 0.51369 0.47942 0.58547 0.0
O587 O 0.53982 0.50497 0.57149 0.0
O588 O 0.5244 0.51702 0.76849 0.0
O589 O 0.55206 0.50616 0.71284 0.0
O590 O 0.5117 0.47406 0.72151 0.0
O591 O 0.49417 0.48987 0.82115 0.0
H592 H 0.47269 0.58225 0.84017 0.0
H593 H 0.44506 0.61247 0.85256 0.0
H594 H 0.40151 0.56774 0.97521 0.0
H595 H 0.42994 0.53777 0.96544 0.0
H596 H 0.55289 0.46473 0.66426 0.0
H597 H 0.58109 0.43474 0.66185 0.0
H598 H 0.57837 0.43447 0.42888 0.0
H599 H 0.55049 0.46529 0.43196 0.0
Tb600 Tb 0.99475 0.49544 0.79181 0.0
Tb601 Tb 1.0058 0.53018 0.69429 0.0
C602 C 0.97622 0.46947 0.88205 0.0
C603 C 0.95689 0.45366 0.87884 0.0
C604 C 0.9351 0.46122 0.8604 0.0
C605 C 0.91713 0.44597 0.85599 0.0
C606 C 0.92049 0.42281 0.87018 0.0
C607 C 0.94234 0.41524 0.88837 0.0
C608 C 0.96036 0.43054 0.8926 0.0
C609 C 0.01176 0.47932 0.66827 0.0
C610 C 0.95693 0.5127 0.68092 0.0
C611 C 0.02344 0.5569 0.60435 0.0
C612 C 0.04126 0.57408 0.60896 0.0
C613 C 0.0472 0.5865 0.54752 0.0
C614 C 0.06446 0.6026 0.55088 0.0
C615 C 0.07608 0.60653 0.6159 0.0
C616 C 0.06966 0.59434 0.67791 0.0
C617 C 0.05232 0.57827 0.67449 0.0
C618 C 0.98872 0.54591 0.81758 0.0
C619 C 0.04403 0.51245 0.80294 0.0
O620 O 0.9717 0.4911 0.87696 0.0
O621 O 0.99382 0.46382 0.84356 0.0
O622 O 0.99781 0.49537 0.6751 0.0
O623 O 0.01582 0.47161 0.73208 0.0
O624 O 0.96105 0.50348 0.74479 0.0
O625 O 0.97385 0.52131 0.64347 0.0
O626 O 0.02997 0.53592 0.61308 0.0
O627 O 1.00507 0.5614 0.64062 0.0
O628 O 1.00309 0.53024 0.81098 0.0
O629 O 0.98366 0.5531 0.75397 0.0
O630 O 0.03956 0.52236 0.74043 0.0
O631 O 0.02743 0.50312 0.8402 0.0
H632 H 0.93184 0.47895 0.84998 0.0
H633 H 0.90044 0.45249 0.84352 0.0
H634 H 0.9455 0.39752 0.89944 0.0
H635 H 0.97704 0.4243 0.90669 0.0
H636 H 0.03874 0.5835 0.49664 0.0
H637 H 0.06927 0.61134 0.50178 0.0
H638 H 0.07819 0.59703 0.7288 0.0
H639 H 0.04771 0.56895 0.72273 0.0
H640 H 0.13554 0.98571 0.2893 0.0
H641 H 0.07092 0.04985 0.61091 0.0
H642 H 0.16469 0.04282 0.39867 0.0
H643 H 0.05336 0.98419 0.52796 0.0
H644 H 0.10058 0.05306 0.51714 0.0
H645 H 0.10056 0.99087 0.35782 0.0
C646 C 0.1343 0.99976 0.32651 0.0
C647 C 0.15297 0.01395 0.33795 0.0
C648 C 0.08989 0.03819 0.51864 0.0
C649 C 0.11305 0.0196 0.41889 0.0
C650 C 0.07283 0.03647 0.57159 0.0
C651 C 0.05959 0.01678 0.57669 0.0
C652 C 0.09347 0.02018 0.47028 0.0
C653 C 0.06311 0.9997 0.5256 0.0
C654 C 0.11438 1.00259 0.36621 0.0
C655 C 0.15057 0.03169 0.38768 0.0
N656 N 0.07967 1.00176 0.475 0.0
N657 N 0.13108 0.03386 0.42705 0.0
H658 H 0.54241 0.13815 0.30213 0.0
H659 H 0.46606 0.07671 0.59813 0.0
H660 H 0.47715 0.16367 0.36711 0.0
H661 H 0.52338 0.04455 0.49718 0.0
H662 H 0.46865 0.10767 0.51032 0.0
H663 H 0.53482 0.10307 0.36836 0.0
C664 C 0.5263 0.13621 0.32957 0.0
C665 C 0.51041 0.15393 0.32913 0.0
C666 C 0.48048 0.09372 0.50654 0.0
C667 C 0.50172 0.11377 0.40655 0.0
C668 C 0.47898 0.07599 0.55664 0.0
C669 C 0.49452 0.05799 0.55507 0.0
C670 C 0.49791 0.09374 0.45485 0.0
C671 C 0.51097 0.058 0.50027 0.0
C672 C 0.52198 0.11615 0.36746 0.0
C673 C 0.48982 0.15043 0.36559 0.0
N674 N 0.51241 0.07572 0.45305 0.0
N675 N 0.48621 0.13092 0.40361 0.0
H676 H 0.34435 0.49885 0.43377 0.0
H677 H 0.45895 0.5542 0.55862 0.0
H678 H 0.37627 0.55374 0.31936 0.0
H679 H 0.4437 0.48525 0.61645 0.0
H680 H 0.42896 0.55318 0.46802 0.0
H681 H 0.38038 0.49148 0.49688 0.0
C682 C 0.35918 0.50871 0.41973 0.0
C683 C 0.35739 0.52676 0.37056 0.0
C684 C 0.43235 0.53806 0.49934 0.0
C685 C 0.39832 0.51912 0.44467 0.0
C686 C 0.44953 0.53865 0.55101 0.0
C687 C 0.45398 0.51972 0.59441 0.0
C688 C 0.41882 0.51861 0.49225 0.0
C689 C 0.44102 0.5001 0.58319 0.0
C690 C 0.37968 0.50468 0.45635 0.0
C691 C 0.37697 0.53951 0.3562 0.0
N692 N 0.42372 0.50017 0.53411 0.0
N693 N 0.39639 0.53571 0.3938 0.0
H694 H 0.06022 0.39557 0.32127 0.0
H695 H 0.98816 0.44013 0.65473 0.0
H696 H 1.00287 0.35964 0.40792 0.0
H697 H 0.03588 0.48236 0.54151 0.0
H698 H 0.99137 0.41178 0.55905 0.0
H699 H 0.04941 0.42889 0.39197 0.0
C700 C 0.04481 0.39502 0.35303 0.0
C701 C 0.03223 0.37487 0.35773 0.0
C702 C 1.00093 0.42734 0.55429 0.0
C703 C 0.0203 0.4127 0.44192 0.0
C704 C 0.99909 0.44353 0.60898 0.0
C705 C 0.01173 0.46362 0.60584 0.0
C706 C 0.01587 0.43099 0.49623 0.0
C707 C 0.02577 0.46713 0.54572 0.0
C708 C 0.03879 0.41397 0.3942 0.0
C709 C 0.0128 0.37492 0.4015 0.0
N710 N 0.02767 0.45088 0.49375 0.0
N711 N 1.00767 0.39333 0.44274 0.0
H712 H 0.86977 0.02182 0.11024 0.0
H713 H 0.97465 0.97472 0.88073 0.0
H714 H 0.88219 0.95093 0.07447 0.0
H715 H 0.96069 0.0455 0.91432 0.0
H716 H 0.94495 0.96527 0.96912 0.0
H717 H 0.90722 0.03041 0.05962 0.0
C718 C 0.88074 1.00799 0.0944 0.0
C719 C 0.87278 0.98564 0.0965 0.0
C720 C 0.94862 0.98288 0.95795 0.0
C721 C 0.91543 0.99534 0.03576 0.0
C722 C 0.96564 0.98826 0.90763 0.0
C723 C 0.97 0.01092 0.88956 0.0
C724 C 0.93589 1.0003 0.99044 0.0
C725 C 0.95774 0.02778 0.92606 0.0
C726 C 0.90202 0.01291 0.06435 0.0
C727 C 0.88762 0.96842 0.07368 0.0
N728 N 0.94117 0.02215 0.97397 0.0
N729 N 0.90798 0.97363 0.0432 0.0
H730 H 0.53676 0.8524 0.02667 0.0
H731 H 0.4915 0.97337 0.88629 0.0
H732 H 0.47521 0.88375 0.10177 0.0
H733 H 0.54254 0.93465 0.77506 0.0
H734 H 0.48988 0.94391 0.97984 0.0
H735 H 0.54368 0.88553 0.9488 0.0
C736 C 0.52495 0.86643 0.02785 0.0
C737 C 0.50533 0.86523 0.07061 0.0
C738 C 0.50162 0.94196 0.93537 0.0
C739 C 0.51304 0.90317 0.98138 0.0
C740 C 0.50264 0.95887 0.88213 0.0
C741 C 0.51711 0.95645 0.8225 0.0
C742 C 0.51531 0.92253 0.92947 0.0
C743 C 0.53107 0.93717 0.81991 0.0
C744 C 0.52879 0.88526 0.98297 0.0
C745 C 0.49047 0.88385 0.06929 0.0
N746 N 0.52976 0.92096 0.87226 0.0
N747 N 0.49457 0.90192 0.0254 0.0
H748 H 0.62472 0.4956 0.16123 0.0
H749 H 0.5884 0.52878 0.76249 0.0
H750 H 0.66807 0.53088 0.01191 0.0
H751 H 0.53858 0.51024 0.92192 0.0
H752 H 0.61695 0.53139 0.85668 0.0
H753 H 0.59232 0.50249 0.08033 0.0
C754 C 0.62723 0.50542 0.11245 0.0
C755 C 0.649 0.51307 0.09376 0.0
C756 C 0.59976 0.52708 0.87181 0.0
C757 C 0.61227 0.5203 0.99969 0.0
C758 C 0.58339 0.52562 0.81785 0.0
C759 C 0.56104 0.51941 0.83435 0.0
C760 C 0.59408 0.5217 0.9434 0.0
C761 C 0.55557 0.51534 0.90701 0.0
C762 C 0.60879 0.5092 0.06604 0.0
C763 C 0.65151 0.52508 0.02894 0.0
N764 N 0.57207 0.51619 0.95881 0.0
N765 N 0.63349 0.52809 0.98409 0.0
H766 H 0.02141 0.65083 0.11753 0.0
H767 H 0.95329 0.57336 0.84938 0.0
H768 H 0.94942 0.65643 0.08702 0.0
H769 H 0.0187 0.55322 0.92971 0.0
H770 H 0.95105 0.60219 0.94343 0.0
H771 H 0.02054 0.61331 0.06093 0.0
C772 C 1.00522 0.64363 0.10251 0.0
C773 C 0.98537 0.65664 0.10854 0.0
C774 C 0.96577 0.59128 0.94156 0.0
C775 C 0.9844 0.61421 0.03951 0.0
C776 C 0.96704 0.57479 0.88772 0.0
C777 C 0.98617 0.56082 0.8817 0.0
C778 C 0.98403 0.59437 0.98915 0.0
C779 C 1.00356 0.56352 0.93268 0.0
C780 C 1.00478 0.62235 0.06891 0.0
C781 C 0.96502 0.64682 0.08503 0.0
N782 N 1.00227 0.58023 0.98341 0.0
N783 N 0.96513 0.62652 0.05034 0.0
H784 H 0.06599 0.18462 0.67056 0.0
H785 H 0.9468 0.15371 0.60256 0.0
H786 H 0.01834 0.23674 0.61044 0.0
H787 H 0.98212 0.12091 0.77725 0.0
H788 H 0.97006 0.18739 0.6207 0.0
H789 H 0.03512 0.16371 0.72814 0.0
C790 C 0.04923 0.19207 0.67192 0.0
C791 C 0.04465 0.21215 0.63421 0.0
C792 C 0.9722 0.17312 0.65687 0.0
C793 C 0.00928 0.18823 0.69848 0.0
C794 C 0.95891 0.15392 0.6464 0.0
C795 C 0.96301 0.13435 0.68713 0.0
C796 C 0.99013 0.17235 0.70665 0.0
C797 C 0.97874 0.13554 0.74377 0.0
C798 C 0.0316 0.18019 0.70501 0.0
C799 C 0.02264 0.22119 0.63827 0.0
N800 N 0.99237 0.15392 0.7502 0.0
N801 N 1.00561 0.2088 0.66755 0.0
H802 H 0.31404 0.85507 0.39235 0.0
H803 H 0.38775 0.92311 0.66402 0.0
H804 H 0.28807 0.90147 0.55136 0.0
H805 H 0.4145 0.87827 0.50153 0.0
H806 H 0.35107 0.90471 0.65305 0.0
H807 H 0.34917 0.85207 0.46115 0.0
C808 C 0.3154 0.86397 0.44314 0.0
C809 C 0.29847 0.87923 0.46463 0.0
C810 C 0.36506 0.89852 0.62086 0.0
C811 C 0.33867 0.87626 0.54274 0.0
C812 C 0.38613 0.90898 0.62736 0.0
C813 C 0.4041 0.90271 0.58193 0.0
C814 C 0.36183 0.88193 0.56776 0.0
C815 C 0.40087 0.88423 0.53566 0.0
C816 C 0.33551 0.86235 0.48228 0.0
C817 C 0.30083 0.88985 0.53179 0.0
N818 N 0.38001 0.87484 0.52853 0.0
N819 N 0.32088 0.88873 0.56733 0.0
H820 H 0.65951 0.32567 0.37028 0.0
H821 H 0.58179 0.39531 0.63539 0.0
H822 H 0.61405 0.29665 0.52763 0.0
H823 H 0.61753 0.42361 0.45296 0.0
H824 H 0.60404 0.3608 0.62392 0.0
H825 H 0.65593 0.36224 0.43041 0.0
C826 C 0.64953 0.32674 0.41921 0.0
C827 C 0.63628 0.3083 0.44205 0.0
C828 C 0.60732 0.37471 0.58718 0.0
C829 C 0.63194 0.35002 0.51041 0.0
C830 C 0.59465 0.3945 0.59377 0.0
C831 C 0.59749 0.4123 0.54418 0.0
C832 C 0.62284 0.37254 0.53021 0.0
C833 C 0.61433 0.4101 0.49114 0.0
C834 C 0.64733 0.34769 0.45313 0.0
C835 C 0.62418 0.31048 0.5069 0.0
N836 N 0.62613 0.39044 0.48487 0.0
N837 N 0.62173 0.33116 0.53756 0.0
H838 H 0.21131 0.62527 0.54265 0.0
H839 H 0.08167 0.64776 0.54908 0.0
H840 H 0.17807 0.67498 0.40824 0.0
H841 H 0.1167 0.5993 0.68312 0.0
H842 H 0.11765 0.6669 0.52605 0.0
H843 H 0.17946 0.62628 0.62471 0.0
C844 C 0.19774 0.63708 0.53131 0.0
C845 C 0.19701 0.64928 0.46612 0.0
C846 C 0.11739 0.65242 0.56198 0.0
C847 C 0.1598 0.64964 0.55912 0.0
C848 C 0.09686 0.6414 0.57478 0.0
C849 C 0.09628 0.62148 0.61626 0.0
C850 C 0.1375 0.64328 0.59013 0.0
C851 C 0.11634 0.61442 0.65006 0.0
C852 C 0.17929 0.63741 0.57821 0.0
C853 C 0.17888 0.66438 0.45587 0.0
N854 N 0.13619 0.625 0.63491 0.0
N855 N 0.16061 0.66355 0.50046 0.0
H856 H 0.05148 0.8049 0.81558 0.0
H857 H 0.07237 0.92456 0.65064 0.0
H858 H 1.00147 0.85556 0.76382 0.0
H859 H 0.11542 0.89007 0.80319 0.0
H860 H 0.05402 0.88878 0.62305 0.0
H861 H 0.07929 0.82557 0.7431 0.0
C862 C 0.04606 0.81981 0.78614 0.0
C863 C 0.02439 0.82897 0.79705 0.0
C864 C 0.06823 0.88885 0.65989 0.0
C865 C 0.056 0.85249 0.71464 0.0
C866 C 0.07891 0.90927 0.67543 0.0
C867 C 0.09486 0.91035 0.73149 0.0
C868 C 0.07358 0.86963 0.70089 0.0
C869 C 0.10266 0.88999 0.76132 0.0
C870 C 0.06196 0.83157 0.74491 0.0
C871 C 0.01821 0.8483 0.75797 0.0
N872 N 0.09143 0.87046 0.74732 0.0
N873 N 0.03413 0.85975 0.71965 0.0
H874 H 0.72459 0.06089 0.83774 0.0
H875 H 0.61146 0.06393 0.62399 0.0
H876 H 0.6924 1.00567 0.72707 0.0
H877 H 0.62945 0.10757 0.80101 0.0
H878 H 0.65128 0.05515 0.60656 0.0
H879 H 0.70103 0.08762 0.76985 0.0
C880 C 0.71337 0.0545 0.79637 0.0
C881 C 0.70995 0.03118 0.78862 0.0
C882 C 0.64658 0.06725 0.64755 0.0
C883 C 0.68297 0.06136 0.7121 0.0
C884 C 0.62378 0.07247 0.65741 0.0
C885 C 0.617 0.08572 0.71644 0.0
C886 C 0.66251 0.07498 0.6977 0.0
C887 C 0.63391 0.09645 0.75695 0.0
C888 C 0.69989 0.06972 0.75793 0.0
C889 C 0.69519 0.02359 0.73499 0.0
N890 N 0.6559 0.09026 0.74842 0.0
N891 N 0.68184 0.03867 0.69969 0.0
H892 H 0.35125 0.69881 0.12348 0.0
H893 H 0.40922 0.62572 0.81642 0.0
H894 H 0.3894 0.72624 0.94476 0.0
H895 H 0.3945 0.60251 0.03257 0.0
H896 H 0.38776 0.66024 0.84078 0.0
H897 H 0.35163 0.66184 0.06468 0.0
C898 C 0.359 0.6973 0.07073 0.0
C899 C 0.37123 0.71545 0.0407 0.0
C900 C 0.38883 0.64731 0.88216 0.0
C901 C 0.37153 0.67335 0.97319 0.0
C902 C 0.40129 0.6277 0.8687 0.0
C903 C 0.40433 0.61141 0.92327 0.0
C904 C 0.3792 0.65063 0.95048 0.0
C905 C 0.39284 0.61457 0.98889 0.0
C906 C 0.35925 0.67617 0.03737 0.0
C907 C 0.38018 0.7127 0.97101 0.0
N908 N 0.3811 0.63397 1.00103 0.0
N909 N 0.38071 0.69185 0.94049 0.0
H910 H 0.8125 0.35608 0.0697 0.0
H911 H 0.88452 0.42107 0.77662 0.0
H912 H 0.78525 0.4006 0.90663 0.0
H913 H 0.91145 0.38892 0.96741 0.0
H914 H 0.84868 0.40129 0.7962 0.0
H915 H 0.84825 0.35481 1.00316 0.0
C916 C 0.81374 0.36494 0.01863 0.0
C917 C 0.79616 0.37921 0.9953 0.0
C918 C 0.86261 0.39816 0.83281 0.0
C919 C 0.83696 0.37795 0.91936 0.0
C920 C 0.88303 0.40957 0.82197 0.0
C921 C 0.90079 0.40719 0.8717 0.0
C922 C 0.85989 0.3844 0.89408 0.0
C923 C 0.89816 0.39149 0.92809 0.0
C924 C 0.83419 0.36428 0.98081 0.0
C925 C 0.79845 0.38973 0.92765 0.0
N926 N 0.87792 0.38106 0.93862 0.0
N927 N 0.81873 0.38942 0.89308 0.0
H928 H 0.03989 0.19805 0.93902 0.0
H929 H 0.03051 0.06245 0.94447 0.0
H930 H 0.02649 0.15814 0.12962 0.0
H931 H 0.02334 0.10048 0.74701 0.0
H932 H 0.0327 0.09791 0.01128 0.0
H933 H 0.03618 0.16347 0.86584 0.0
C934 C 0.03601 0.18218 0.9656 0.0
C935 C 0.03398 0.18118 0.04126 0.0
C936 C 0.03068 0.0986 0.9533 0.0
C937 C 0.03014 0.14136 0.95757 0.0
C938 C 0.02957 0.07825 0.91491 0.0
C939 C 0.0267 0.07832 0.83976 0.0
C940 C 0.02924 0.11945 0.91668 0.0
C941 C 0.02549 0.09952 0.80489 0.0
C942 C 0.03404 0.16238 0.9237 0.0
C943 C 0.02896 0.15991 0.07205 0.0
N944 N 0.02686 0.11918 0.84346 0.0
N945 N 0.02746 0.14103 0.03051 0.0
H946 H 0.34908 0.0218 0.05156 0.0
H947 H 0.42383 0.99 0.70331 0.0
H948 H 0.3267 0.97701 0.88364 0.0
H949 H 0.44979 0.02789 0.88356 0.0
H950 H 0.38651 0.98942 0.76087 0.0
H951 H 0.38382 0.02939 0.98208 0.0
C952 C 0.3511 0.01425 0.99881 0.0
C953 C 0.33482 0.99904 0.97279 0.0
C954 C 0.40032 0.99799 0.78775 0.0
C955 C 0.37488 1.00695 0.89398 0.0
C956 C 0.4217 0.99832 0.75482 0.0
C957 C 0.44014 0.00893 0.7886 0.0
C958 C 0.39713 1.0084 0.85513 0.0
C959 C 0.43618 0.0194 0.85551 0.0
C960 C 0.3711 0.01828 0.95962 0.0
C961 C 0.33867 0.98911 0.90512 0.0
N962 N 0.41521 0.01882 0.88653 0.0
N963 N 0.35829 0.99308 0.86847 0.0
H964 H 0.52337 0.32986 0.88188 0.0
H965 H 0.48649 0.46005 0.92117 0.0
H966 H 0.49687 0.35785 0.07855 0.0
H967 H 0.5158 0.43142 0.72863 0.0
H968 H 0.48599 0.42219 0.97584 0.0
H969 H 0.51538 0.3657 0.82008 0.0
C970 C 0.51498 0.34329 0.91126 0.0
C971 C 0.51025 0.34068 0.98498 0.0
C972 C 0.49239 0.42419 0.92146 0.0
C973 C 0.50209 0.38234 0.9156 0.0
C974 C 0.49273 0.44586 0.89015 0.0
C975 C 0.50131 0.44914 0.82006 0.0
C976 C 0.50064 0.4055 0.88256 0.0
C977 C 0.50911 0.42993 0.7828 0.0
C978 C 0.51076 0.36392 0.87633 0.0
C979 C 0.50022 0.35896 0.02123 0.0
N980 N 0.50865 0.40909 0.81447 0.0
N981 N 0.49671 0.37907 0.9865 0.0
H982 H 0.18035 0.55273 0.92313 0.0
H983 H 0.06062 0.48941 0.92069 0.0
H984 H 0.16581 0.49546 0.05965 0.0
H985 H 0.08114 0.53666 0.75534 0.0
H986 H 0.09878 0.49122 0.97209 0.0
H987 H 0.14452 0.5466 0.85972 0.0
C988 C 0.16979 0.53854 0.93876 0.0
C989 C 0.17622 0.52447 0.99647 0.0
C990 C 0.095 0.5011 0.92433 0.0
C991 C 0.13461 0.5177 0.92523 0.0
C992 C 0.07313 0.50015 0.89498 0.0
C993 C 0.06748 0.51295 0.83348 0.0
C994 C 0.11148 0.51516 0.89268 0.0
C995 C 0.08458 0.52647 0.80266 0.0
C996 C 0.14924 0.53512 0.90277 0.0
C997 C 0.16171 0.50652 0.01491 0.0
N998 N 0.10565 0.52733 0.8328 0.0
N999 N 0.14149 0.50383 0.9801 0.0
H1000 H 0.01471 0.83428 0.50001 0.0
H1001 H 0.97902 0.9646 0.55661 0.0
H1002 H 0.96588 0.87004 0.36987 0.0
H1003 H 0.02377 0.92981 0.70343 0.0
H1004 H 0.97378 0.92939 0.49041 0.0
H1005 H 0.0176 0.86777 0.57849 0.0
C1006 C 1.00436 0.84897 0.48843 0.0
C1007 C 0.9902 0.84926 0.4274 0.0
C1008 C 0.98468 0.92931 0.5373 0.0
C1009 C 0.99364 0.88789 0.51687 0.0
C1010 C 0.9877 0.94954 0.57533 0.0
C1011 C 1.00184 0.95038 0.63613 0.0
C1012 C 0.99597 0.90948 0.55931 0.0
C1013 C 0.0126 0.93008 0.65723 0.0
C1014 C 1.00614 0.86819 0.53307 0.0
C1015 C 0.97735 0.869 0.41524 0.0
N1016 N 0.00953 0.91057 0.61883 0.0
N1017 N 0.97949 0.88737 0.45888 0.0
H1018 H 0.68994 0.01796 0.47374 0.0
H1019 H 0.55941 0.98076 0.50027 0.0
H1020 H 0.65798 0.9673 0.34164 0.0
H1021 H 0.58967 0.02345 0.66187 0.0
H1022 H 0.59609 0.97673 0.44262 0.0
H1023 H 0.65493 0.02024 0.54651 0.0
C1024 C 0.67574 1.00718 0.46035 0.0
C1025 C 0.67691 0.99271 0.40027 0.0
C1026 C 0.59491 0.98696 0.49078 0.0
C1027 C 0.63659 0.99572 0.48234 0.0
C1028 C 0.57378 0.98937 0.52382 0.0
C1029 C 0.57123 1.0025 0.58629 0.0
C1030 C 0.61402 0.99788 0.51943 0.0
C1031 C 0.59076 0.01309 0.61395 0.0
C1032 C 0.65567 0.00867 0.50156 0.0
C1033 C 0.65785 0.97917 0.38597 0.0
N1034 N 0.6113 0.01066 0.58018 0.0
N1035 N 0.63862 0.98118 0.42586 0.0
H1036 H 0.51805 0.67321 0.37626 0.0
H1037 H 0.5043 0.59893 0.73759 0.0
H1038 H 0.4921 0.69924 0.57652 0.0
H1039 H 0.52283 0.57066 0.53154 0.0
H1040 H 0.50536 0.63677 0.68383 0.0
H1041 H 0.52637 0.63706 0.43682 0.0
C1042 C 0.51495 0.67161 0.43364 0.0
C1043 C 0.50465 0.68937 0.4716 0.0
C1044 C 0.50937 0.62232 0.65041 0.0
C1045 C 0.51335 0.64777 0.54094 0.0
C1046 C 0.50878 0.60062 0.68118 0.0
C1047 C 0.51337 0.58138 0.63918 0.0
C1048 C 0.51461 0.62502 0.57685 0.0
C1049 C 0.51906 0.58487 0.56621 0.0
C1050 C 0.51934 0.65084 0.468 0.0
C1051 C 0.5003 0.68609 0.54545 0.0
N1052 N 0.51941 0.60616 0.53743 0.0
N1053 N 0.50446 0.66571 0.5774 0.0
H1054 H 0.81791 0.47807 0.57475 0.0
H1055 H 0.94237 0.53174 0.55372 0.0
H1056 H 0.84041 0.52017 0.39894 0.0
H1057 H 0.91807 0.49288 0.73518 0.0
H1058 H 0.9045 0.53013 0.50054 0.0
H1059 H 0.85297 0.48657 0.63975 0.0
C1060 C 0.82993 0.48977 0.55095 0.0
C1061 C 0.82603 0.49874 0.48181 0.0
C1062 C 0.90738 0.52206 0.55221 0.0
C1063 C 0.86687 0.50783 0.5547 0.0
C1064 C 0.92909 0.5229 0.58267 0.0
C1065 C 0.93363 0.51231 0.6492 0.0
C1066 C 0.88987 0.51046 0.58809 0.0
C1067 C 0.91554 0.50124 0.68392 0.0
C1068 C 0.85012 0.49439 0.58768 0.0
C1069 C 0.84251 0.51328 0.45268 0.0
N1070 N 0.8946 0.50051 0.65289 0.0
N1071 N 0.86228 0.51713 0.48876 0.0
loop_
_geom_bond_atom_site_label_1
_geom_bond_atom_site_label_2
_geom_bond_distance
_geom_bond_site_symmetry_2
_ccdc_geom_bond_type
C0 C1 1.391 . S
C0 C4 1.391 . S
C0 H42 0.948 . S
C1 C0 1.391 . S
C1 C2 1.391 . S
C2 C1 1.391 . S
C2 H58 0.947 . S
C2 C59 1.392 . S
C3 C4 1.391 . S
C3 C7 1.397 . S
C3 C59 1.419 . S
C4 C0 1.391 . S
C4 C3 1.391 . S
C4 C5 1.399 . S
C5 C4 1.399 . S
C5 C8 1.396 . S
C5 C17 1.453 . S
C5 C18 1.684 . S
H6 C30 0.948 . S
C7 C3 1.397 . S
C7 C8 1.394 . S
C7 C26 1.723 . S
C8 C5 1.396 . S
C8 C7 1.394 . S
C8 C38 1.723 . S
H9 C32 0.947 . S
H10 C33 0.948 . S
H11 C39 0.982 . S
H12 C40 0.979 . S
H13 C40 0.980 . S
H14 C40 0.983 . S
H15 C39 0.979 . S
H16 C39 0.977 . S
C17 C5 1.453 . S
C17 H46 0.982 . S
C17 H47 0.979 . S
C17 H48 0.977 . S
C18 C5 1.684 . S
C18 H43 0.979 . S
C18 H44 0.980 . S
C18 H45 0.983 . S
C19 C20 1.391 . S
C19 C24 1.391 . S
C19 H49 0.948 . S
C20 C19 1.391 . S
C20 C21 1.391 . S
C21 C20 1.391 . S
C21 C22 1.392 . S
C21 H50 0.947 . S
C22 C21 1.392 . S
C22 C23 1.419 . S
C22 H51 0.948 . S
C23 C22 1.419 . S
C23 C24 1.391 . S
C23 C27 1.397 . S
C24 C19 1.391 . S
C24 C23 1.391 . S
C24 C25 1.399 . S
C25 C24 1.399 . S
C25 C26 1.396 . S
C25 C28 1.453 . S
C25 C29 1.684 . S
C26 C7 1.723 . S
C26 C25 1.396 . S
C26 C27 1.394 . S
C27 C23 1.397 . S
C27 C26 1.394 . S
C27 C37 1.723 . S
C28 C25 1.453 . S
C28 H52 0.982 . S
C28 H53 0.979 . S
C28 H54 0.977 . S
C29 C25 1.684 . S
C29 H55 0.979 . S
C29 H56 0.980 . S
C29 H57 0.983 . S
C30 H6 0.948 . S
C30 C31 1.391 . S
C30 C35 1.391 . S
C31 C30 1.391 . S
C31 C32 1.391 . S
C32 H9 0.947 . S
C32 C31 1.391 . S
C32 C33 1.392 . S
C33 H10 0.948 . S
C33 C32 1.392 . S
C33 C34 1.419 . S
C34 C33 1.419 . S
C34 C35 1.391 . S
C34 C38 1.397 . S
C35 C30 1.391 . S
C35 C34 1.391 . S
C35 C36 1.399 . S
C36 C35 1.399 . S
C36 C37 1.396 . S
C36 C39 1.453 . S
C36 C40 1.684 . S
C37 C27 1.723 . S
C37 C36 1.396 . S
C37 C38 1.394 . S
C38 C8 1.723 . S
C38 C34 1.397 . S
C38 C37 1.394 . S
C39 H11 0.982 . S
C39 H15 0.979 . S
C39 H16 0.977 . S
C39 C36 1.453 . S
C40 H12 0.979 . S
C40 H13 0.980 . S
C40 H14 0.983 . S
C40 C36 1.684 . S
H41 C59 0.948 . S
H42 C0 0.948 . S
H43 C18 0.979 . S
H44 C18 0.980 . S
H45 C18 0.983 . S
H46 C17 0.982 . S
H47 C17 0.979 . S
H48 C17 0.977 . S
H49 C19 0.948 . S
H50 C21 0.947 . S
H51 C22 0.948 . S
H52 C28 0.982 . S
H53 C28 0.979 . S
H54 C28 0.977 . S
H55 C29 0.979 . S
H56 C29 0.980 . S
H57 C29 0.983 . S
H58 C2 0.947 . S
C59 C2 1.392 . S
C59 C3 1.419 . S
C59 H41 0.948 . S
C60 C61 1.391 . S
C60 C64 1.391 . S
C60 H102 0.948 . S
C61 C60 1.391 . S
C61 C62 1.391 . S
C62 C61 1.391 . S
C62 H118 0.947 . S
C62 C119 1.392 . S
C63 C64 1.391 . S
C63 C67 1.397 1_655 S
C63 C119 1.419 . S
C64 C60 1.391 . S
C64 C63 1.391 . S
C64 C65 1.399 . S
C65 C64 1.399 . S
C65 C68 1.396 1_655 S
C65 C77 1.453 1_655 S
C65 C78 1.684 . S
H66 C90 0.948 . S
C67 C63 1.397 1_455 S
C67 C68 1.394 . S
C67 C86 1.723 . S
C68 C65 1.396 1_455 S
C68 C67 1.394 . S
C68 C98 1.723 . S
H69 C92 0.947 . S
H70 C93 0.948 . S
H71 C99 0.982 . S
H72 C100 0.979 . S
H73 C100 0.980 . S
H74 C100 0.983 . S
H75 C99 0.979 . S
H76 C99 0.977 . S
C77 C65 1.453 1_455 S
C77 H106 0.982 . S
C77 H107 0.979 . S
C77 H108 0.977 . S
C78 C65 1.684 . S
C78 H103 0.979 . S
C78 H104 0.980 . S
C78 H105 0.983 . S
C79 C80 1.391 . S
C79 C84 1.391 . S
C79 H109 0.948 . S
C80 C79 1.391 . S
C80 C81 1.391 . S
C81 C80 1.391 . S
C81 C82 1.392 . S
C81 H110 0.947 . S
C82 C81 1.392 . S
C82 C83 1.419 . S
C82 H111 0.948 . S
C83 C82 1.419 . S
C83 C84 1.391 . S
C83 C87 1.397 1_655 S
C84 C79 1.391 . S
C84 C83 1.391 . S
C84 C85 1.399 . S
C85 C84 1.399 . S
C85 C86 1.396 1_655 S
C85 C88 1.453 1_655 S
C85 C89 1.684 . S
C86 C67 1.723 . S
C86 C85 1.396 1_455 S
C86 C87 1.394 . S
C87 C83 1.397 1_455 S
C87 C86 1.394 . S
C87 C97 1.723 . S
C88 C85 1.453 1_455 S
C88 H112 0.982 . S
C88 H113 0.979 . S
C88 H114 0.977 . S
C89 C85 1.684 . S
C89 H115 0.979 . S
C89 H116 0.980 . S
C89 H117 0.983 . S
C90 H66 0.948 . S
C90 C91 1.391 . S
C90 C95 1.391 . S
C91 C90 1.391 . S
C91 C92 1.391 . S
C92 H69 0.947 . S
C92 C91 1.391 . S
C92 C93 1.392 . S
C93 H70 0.948 . S
C93 C92 1.392 . S
C93 C94 1.419 . S
C94 C93 1.419 . S
C94 C95 1.391 . S
C94 C98 1.397 1_655 S
C95 C90 1.391 . S
C95 C94 1.391 . S
C95 C96 1.399 . S
C96 C95 1.399 . S
C96 C97 1.396 1_655 S
C96 C99 1.453 1_655 S
C96 C100 1.684 . S
C97 C87 1.723 . S
C97 C96 1.396 1_455 S
C97 C98 1.394 . S
C98 C68 1.723 . S
C98 C94 1.397 1_455 S
C98 C97 1.394 . S
C99 H71 0.982 . S
C99 H75 0.979 . S
C99 H76 0.977 . S
C99 C96 1.453 1_455 S
C100 H72 0.979 . S
C100 H73 0.980 . S
C100 H74 0.983 . S
C100 C96 1.684 . S
H101 C119 0.948 . S
H102 C60 0.948 . S
H103 C78 0.979 . S
H104 C78 0.980 . S
H105 C78 0.983 . S
H106 C77 0.982 . S
H107 C77 0.979 . S
H108 C77 0.977 . S
H109 C79 0.948 . S
H110 C81 0.947 . S
H111 C82 0.948 . S
H112 C88 0.982 . S
H113 C88 0.979 . S
H114 C88 0.977 . S
H115 C89 0.979 . S
H116 C89 0.980 . S
H117 C89 0.983 . S
H118 C62 0.947 . S
C119 C62 1.392 . S
C119 C63 1.419 . S
C119 H101 0.948 . S
C120 C121 1.391 . S
C120 C124 1.391 . S
C120 H162 0.948 . S
C121 C120 1.391 . S
C121 C122 1.391 . S
C122 C121 1.391 . S
C122 H178 0.947 . S
C122 C179 1.392 . S
C123 C124 1.391 . S
C123 C127 1.397 1_565 S
C123 C179 1.419 . S
C124 C120 1.391 . S
C124 C123 1.391 . S
C124 C125 1.399 . S
C125 C124 1.399 . S
C125 C128 1.396 1_565 S
C125 C137 1.453 1_565 S
C125 C138 1.684 . S
H126 C150 0.948 . S
C127 C123 1.397 1_545 S
C127 C128 1.394 . S
C127 C146 1.723 . S
C128 C125 1.396 1_545 S
C128 C127 1.394 . S
C128 C158 1.723 . S
H129 C152 0.947 . S
H130 C153 0.948 . S
H131 C159 0.982 . S
H132 C160 0.979 . S
H133 C160 0.980 . S
H134 C160 0.983 . S
H135 C159 0.979 . S
H136 C159 0.977 . S
C137 C125 1.453 1_545 S
C137 H166 0.982 . S
C137 H167 0.979 . S
C137 H168 0.977 . S
C138 C125 1.684 . S
C138 H163 0.979 . S
C138 H164 0.980 . S
C138 H165 0.983 . S
C139 C140 1.391 . S
C139 C144 1.391 . S
C139 H169 0.948 . S
C140 C139 1.391 . S
C140 C141 1.391 . S
C141 C140 1.391 . S
C141 C142 1.392 . S
C141 H170 0.947 . S
C142 C141 1.392 . S
C142 C143 1.419 . S
C142 H171 0.948 . S
C143 C142 1.419 . S
C143 C144 1.391 . S
C143 C147 1.397 1_565 S
C144 C139 1.391 . S
C144 C143 1.391 . S
C144 C145 1.399 . S
C145 C144 1.399 . S
C145 C146 1.396 1_565 S
C145 C148 1.453 1_565 S
C145 C149 1.684 . S
C146 C127 1.723 . S
C146 C145 1.396 1_545 S
C146 C147 1.394 . S
C147 C143 1.397 1_545 S
C147 C146 1.394 . S
C147 C157 1.723 . S
C148 C145 1.453 1_545 S
C148 H172 0.982 . S
C148 H173 0.979 . S
C148 H174 0.977 . S
C149 C145 1.684 . S
C149 H175 0.979 . S
C149 H176 0.980 . S
C149 H177 0.983 . S
C150 H126 0.948 . S
C150 C151 1.391 . S
C150 C155 1.391 . S
C151 C150 1.391 . S
C151 C152 1.391 . S
C152 H129 0.947 . S
C152 C151 1.391 . S
C152 C153 1.392 . S
C153 H130 0.948 . S
C153 C152 1.392 . S
C153 C154 1.419 . S
C154 C153 1.419 . S
C154 C155 1.391 . S
C154 C158 1.397 1_565 S
C155 C150 1.391 . S
C155 C154 1.391 . S
C155 C156 1.399 . S
C156 C155 1.399 . S
C156 C157 1.396 1_565 S
C156 C159 1.453 1_565 S
C156 C160 1.684 . S
C157 C147 1.723 . S
C157 C156 1.396 1_545 S
C157 C158 1.394 . S
C158 C128 1.723 . S
C158 C154 1.397 1_545 S
C158 C157 1.394 . S
C159 H131 0.982 . S
C159 H135 0.979 . S
C159 H136 0.977 . S
C159 C156 1.453 1_545 S
C160 H132 0.979 . S
C160 H133 0.980 . S
C160 H134 0.983 . S
C160 C156 1.684 . S
H161 C179 0.948 . S
H162 C120 0.948 . S
H163 C138 0.979 . S
H164 C138 0.980 . S
H165 C138 0.983 . S
H166 C137 0.982 . S
H167 C137 0.979 . S
H168 C137 0.977 . S
H169 C139 0.948 . S
H170 C141 0.947 . S
H171 C142 0.948 . S
H172 C148 0.982 . S
H173 C148 0.979 . S
H174 C148 0.977 . S
H175 C149 0.979 . S
H176 C149 0.980 . S
H177 C149 0.983 . S
H178 C122 0.947 . S
C179 C122 1.392 . S
C179 C123 1.419 . S
C179 H161 0.948 . S
C180 C181 1.391 . S
C180 C184 1.391 . S
C180 H222 0.948 . S
C181 C180 1.391 . S
C181 C182 1.391 . S
C182 C181 1.391 . S
C182 H238 0.947 . S
C182 C239 1.392 . S
C183 C184 1.391 . S
C183 C187 1.397 . S
C183 C239 1.419 . S
C184 C180 1.391 . S
C184 C183 1.391 . S
C184 C185 1.399 . S
C185 C184 1.399 . S
C185 C188 1.396 . S
C185 C197 1.453 . S
C185 C198 1.684 . S
H186 C210 0.948 . S
C187 C183 1.397 . S
C187 C188 1.394 . S
C187 C206 1.723 . S
C188 C185 1.396 . S
C188 C187 1.394 . S
C188 C218 1.723 . S
H189 C212 0.947 . S
H190 C213 0.948 . S
H191 C219 0.982 . S
H192 C220 0.979 . S
H193 C220 0.980 . S
H194 C220 0.983 . S
H195 C219 0.979 . S
H196 C219 0.977 . S
C197 C185 1.453 . S
C197 H226 0.982 . S
C197 H227 0.979 . S
C197 H228 0.977 . S
C198 C185 1.684 . S
C198 H223 0.979 . S
C198 H224 0.980 . S
C198 H225 0.983 . S
C199 C200 1.391 . S
C199 C204 1.391 . S
C199 H229 0.948 . S
C200 C199 1.391 . S
C200 C201 1.391 . S
C201 C200 1.391 . S
C201 C202 1.392 . S
C201 H230 0.947 . S
C202 C201 1.392 . S
C202 C203 1.419 . S
C202 H231 0.948 . S
C203 C202 1.419 . S
C203 C204 1.391 . S
C203 C207 1.397 . S
C204 C199 1.391 . S
C204 C203 1.391 . S
C204 C205 1.399 . S
C205 C204 1.399 . S
C205 C206 1.396 . S
C205 C208 1.453 . S
C205 C209 1.684 . S
C206 C187 1.723 . S
C206 C205 1.396 . S
C206 C207 1.394 . S
C207 C203 1.397 . S
C207 C206 1.394 . S
C207 C217 1.723 . S
C208 C205 1.453 . S
C208 H232 0.982 . S
C208 H233 0.979 . S
C208 H234 0.977 . S
C209 C205 1.684 . S
C209 H235 0.979 . S
C209 H236 0.980 . S
C209 H237 0.983 . S
C210 H186 0.948 . S
C210 C211 1.391 . S
C210 C215 1.391 . S
C211 C210 1.391 . S
C211 C212 1.391 . S
C212 H189 0.947 . S
C212 C211 1.391 . S
C212 C213 1.392 . S
C213 H190 0.948 . S
C213 C212 1.392 . S
C213 C214 1.419 . S
C214 C213 1.419 . S
C214 C215 1.391 . S
C214 C218 1.397 . S
C215 C210 1.391 . S
C215 C214 1.391 . S
C215 C216 1.399 . S
C216 C215 1.399 . S
C216 C217 1.396 . S
C216 C219 1.453 . S
C216 C220 1.684 . S
C217 C207 1.723 . S
C217 C216 1.396 . S
C217 C218 1.394 . S
C218 C188 1.723 . S
C218 C214 1.397 . S
C218 C217 1.394 . S
C219 H191 0.982 . S
C219 H195 0.979 . S
C219 H196 0.977 . S
C219 C216 1.453 . S
C220 H192 0.979 . S
C220 H193 0.980 . S
C220 H194 0.983 . S
C220 C216 1.684 . S
H221 C239 0.948 . S
H222 C180 0.948 . S
H223 C198 0.979 . S
H224 C198 0.980 . S
H225 C198 0.983 . S
H226 C197 0.982 . S
H227 C197 0.979 . S
H228 C197 0.977 . S
H229 C199 0.948 . S
H230 C201 0.947 . S
H231 C202 0.948 . S
H232 C208 0.982 . S
H233 C208 0.979 . S
H234 C208 0.977 . S
H235 C209 0.979 . S
H236 C209 0.980 . S
H237 C209 0.983 . S
H238 C182 0.947 . S
C239 C182 1.392 . S
C239 C183 1.419 . S
C239 H221 0.948 . S
C240 C241 1.391 . S
C240 C244 1.391 . S
C240 H282 0.948 . S
C241 C240 1.391 . S
C241 C242 1.391 . S
C242 C241 1.391 . S
C242 H298 0.947 . S
C242 C299 1.392 . S
C243 C244 1.391 . S
C243 C247 1.397 . S
C243 C299 1.419 . S
C244 C240 1.391 . S
C244 C243 1.391 . S
C244 C245 1.399 1_554 S
C245 C244 1.399 1_556 S
C245 C248 1.396 1_556 S
C245 C257 1.453 . S
C245 C258 1.684 . S
H246 C270 0.948 . S
C247 C243 1.397 . S
C247 C248 1.394 . S
C247 C266 1.723 . S
C248 C245 1.396 1_554 S
C248 C247 1.394 . S
C248 C278 1.723 1_554 S
H249 C272 0.947 . S
H250 C273 0.948 . S
H251 C279 0.982 . S
H252 C280 0.979 . S
H253 C280 0.980 1_554 S
H254 C280 0.983 . S
H255 C279 0.979 . S
H256 C279 0.977 1_554 S
C257 C245 1.453 . S
C257 H286 0.982 . S
C257 H287 0.979 . S
C257 H288 0.977 . S
C258 C245 1.684 . S
C258 H283 0.979 . S
C258 H284 0.980 . S
C258 H285 0.983 . S
C259 C260 1.391 . S
C259 C264 1.391 . S
C259 H289 0.948 . S
C260 C259 1.391 . S
C260 C261 1.391 . S
C261 C260 1.391 . S
C261 C262 1.392 . S
C261 H290 0.947 . S
C262 C261 1.392 . S
C262 C263 1.419 . S
C262 H291 0.948 . S
C263 C262 1.419 . S
C263 C264 1.391 . S
C263 C267 1.397 . S
C264 C259 1.391 . S
C264 C263 1.391 . S
C264 C265 1.399 . S
C265 C264 1.399 . S
C265 C266 1.396 . S
C265 C268 1.453 . S
C265 C269 1.684 . S
C266 C247 1.723 . S
C266 C265 1.396 . S
C266 C267 1.394 . S
C267 C263 1.397 . S
C267 C266 1.394 . S
C267 C277 1.723 . S
C268 C265 1.453 . S
C268 H292 0.982 . S
C268 H293 0.979 . S
C268 H294 0.977 . S
C269 C265 1.684 . S
C269 H295 0.979 . S
C269 H296 0.980 . S
C269 H297 0.983 . S
C270 H246 0.948 . S
C270 C271 1.391 . S
C270 C275 1.391 . S
C271 C270 1.391 . S
C271 C272 1.391 . S
C272 H249 0.947 . S
C272 C271 1.391 . S
C272 C273 1.392 . S
C273 H250 0.948 . S
C273 C272 1.392 . S
C273 C274 1.419 . S
C274 C273 1.419 . S
C274 C275 1.391 . S
C274 C278 1.397 . S
C275 C270 1.391 . S
C275 C274 1.391 . S
C275 C276 1.399 . S
C276 C275 1.399 . S
C276 C277 1.396 1_556 S
C276 C279 1.453 . S
C276 C280 1.684 . S
C277 C267 1.723 . S
C277 C276 1.396 1_554 S
C277 C278 1.394 1_554 S
C278 C248 1.723 1_556 S
C278 C274 1.397 . S
C278 C277 1.394 1_556 S
C279 H251 0.982 . S
C279 H255 0.979 . S
C279 H256 0.977 1_556 S
C279 C276 1.453 . S
C280 H252 0.979 . S
C280 H253 0.980 1_556 S
C280 H254 0.983 . S
C280 C276 1.684 . S
H281 C299 0.948 . S
H282 C240 0.948 . S
H283 C258 0.979 . S
H284 C258 0.980 . S
H285 C258 0.983 . S
H286 C257 0.982 . S
H287 C257 0.979 . S
H288 C257 0.977 . S
H289 C259 0.948 . S
H290 C261 0.947 . S
H291 C262 0.948 . S
H292 C268 0.982 . S
H293 C268 0.979 . S
H294 C268 0.977 . S
H295 C269 0.979 . S
H296 C269 0.980 . S
H297 C269 0.983 . S
H298 C242 0.947 . S
C299 C242 1.392 . S
C299 C243 1.419 . S
C299 H281 0.948 . S
C300 C301 1.391 . S
C300 C304 1.391 . S
C300 H342 0.948 . S
C301 C300 1.391 . S
C301 C302 1.391 . S
C302 C301 1.391 . S
C302 H358 0.947 . S
C302 C359 1.392 . S
C303 C304 1.391 . S
C303 C307 1.396 1_655 S
C303 C359 1.419 . S
C304 C300 1.391 . S
C304 C303 1.391 . S
C304 C305 1.399 . S
C305 C304 1.399 . S
C305 C308 1.396 1_655 S
C305 C317 1.453 1_655 S
C305 C318 1.684 . S
H306 C330 0.948 . S
C307 C303 1.396 1_455 S
C307 C308 1.395 . S
C307 C326 1.723 . S
C308 C305 1.396 1_455 S
C308 C307 1.395 . S
C308 C338 1.723 . S
H309 C332 0.947 . S
H310 C333 0.948 . S
H311 C339 0.982 . S
H312 C340 0.979 . S
H313 C340 0.980 . S
H314 C340 0.983 . S
H315 C339 0.979 . S
H316 C339 0.977 . S
C317 C305 1.453 1_455 S
C317 H346 0.982 . S
C317 H347 0.979 . S
C317 H348 0.977 . S
C318 C305 1.684 . S
C318 H343 0.979 . S
C318 H344 0.980 . S
C318 H345 0.983 . S
C319 C320 1.391 . S
C319 C324 1.391 . S
C319 H349 0.948 . S
C320 C319 1.391 . S
C320 C321 1.391 . S
C321 C320 1.391 . S
C321 C322 1.392 . S
C321 H350 0.947 . S
C322 C321 1.392 . S
C322 C323 1.419 . S
C322 H351 0.948 . S
C323 C322 1.419 . S
C323 C324 1.391 . S
C323 C327 1.396 1_655 S
C324 C319 1.391 . S
C324 C323 1.391 . S
C324 C325 1.399 . S
C325 C324 1.399 . S
C325 C326 1.396 1_656 S
C325 C328 1.453 1_655 S
C325 C329 1.684 . S
C326 C307 1.723 . S
C326 C325 1.396 1_454 S
C326 C327 1.395 1_554 S
C327 C323 1.396 1_455 S
C327 C326 1.395 1_556 S
C327 C337 1.723 1_556 S
C328 C325 1.453 1_455 S
C328 H352 0.982 . S
C328 H353 0.979 . S
C328 H354 0.977 1_556 S
C329 C325 1.684 . S
C329 H355 0.979 . S
C329 H356 0.980 1_556 S
C329 H357 0.983 . S
C330 H306 0.948 . S
C330 C331 1.391 . S
C330 C335 1.391 . S
C331 C330 1.391 . S
C331 C332 1.391 . S
C332 H309 0.947 . S
C332 C331 1.391 . S
C332 C333 1.392 . S
C333 H310 0.948 . S
C333 C332 1.392 . S
C333 C334 1.419 . S
C334 C333 1.419 . S
C334 C335 1.391 . S
C334 C338 1.396 1_655 S
C335 C330 1.391 . S
C335 C334 1.391 . S
C335 C336 1.399 1_554 S
C336 C335 1.399 1_556 S
C336 C337 1.396 1_656 S
C336 C339 1.453 1_655 S
C336 C340 1.684 . S
C337 C327 1.723 1_554 S
C337 C336 1.396 1_454 S
C337 C338 1.395 . S
C338 C308 1.723 . S
C338 C334 1.396 1_455 S
C338 C337 1.395 . S
C339 H311 0.982 . S
C339 H315 0.979 . S
C339 H316 0.977 . S
C339 C336 1.453 1_455 S
C340 H312 0.979 . S
C340 H313 0.980 . S
C340 H314 0.983 . S
C340 C336 1.684 . S
H341 C359 0.948 . S
H342 C300 0.948 . S
H343 C318 0.979 . S
H344 C318 0.980 . S
H345 C318 0.983 . S
H346 C317 0.982 . S
H347 C317 0.979 . S
H348 C317 0.977 . S
H349 C319 0.948 . S
H350 C321 0.947 . S
H351 C322 0.948 . S
H352 C328 0.982 . S
H353 C328 0.979 . S
H354 C328 0.977 1_554 S
H355 C329 0.979 . S
H356 C329 0.980 1_554 S
H357 C329 0.983 . S
H358 C302 0.947 . S
C359 C302 1.392 . S
C359 C303 1.419 . S
C359 H341 0.948 . S
C360 C361 1.391 . S
C360 C364 1.391 . S
C360 H402 0.948 . S
C361 C360 1.391 . S
C361 C362 1.391 . S
C362 C361 1.391 . S
C362 H418 0.947 . S
C362 C419 1.392 . S
C363 C364 1.391 . S
C363 C367 1.397 1_545 S
C363 C419 1.419 . S
C364 C360 1.391 . S
C364 C363 1.391 . S
C364 C365 1.399 . S
C365 C364 1.399 . S
C365 C368 1.396 1_545 S
C365 C377 1.453 1_545 S
C365 C378 1.684 . S
H366 C390 0.948 . S
C367 C363 1.397 1_565 S
C367 C368 1.394 . S
C367 C386 1.723 1_556 S
C368 C365 1.396 1_565 S
C368 C367 1.394 . S
C368 C398 1.723 1_556 S
H369 C392 0.950 . S
H370 C393 0.948 1_556 S
H371 C399 0.982 . S
H372 C400 0.979 . S
H373 C400 0.980 . S
H374 C400 0.983 . S
H375 C399 0.979 . S
H376 C399 0.977 . S
C377 C365 1.453 1_565 S
C377 H406 0.982 . S
C377 H407 0.979 . S
C377 H408 0.977 . S
C378 C365 1.684 . S
C378 H403 0.979 . S
C378 H404 0.980 . S
C378 H405 0.983 . S
C379 C380 1.391 . S
C379 C384 1.391 . S
C379 H409 0.948 . S
C380 C379 1.391 . S
C380 C381 1.391 . S
C381 C380 1.391 . S
C381 C382 1.392 . S
C381 H410 0.947 . S
C382 C381 1.392 . S
C382 C383 1.419 . S
C382 H411 0.948 . S
C383 C382 1.419 . S
C383 C384 1.391 . S
C383 C387 1.397 1_545 S
C384 C379 1.391 . S
C384 C383 1.391 . S
C384 C385 1.399 . S
C385 C384 1.399 . S
C385 C386 1.396 1_545 S
C385 C388 1.453 1_545 S
C385 C389 1.684 . S
C386 C367 1.723 1_554 S
C386 C385 1.396 1_565 S
C386 C387 1.394 . S
C387 C383 1.397 1_565 S
C387 C386 1.394 . S
C387 C397 1.723 . S
C388 C385 1.453 1_565 S
C388 H412 0.982 . S
C388 H413 0.979 . S
C388 H414 0.977 . S
C389 C385 1.684 . S
C389 H415 0.979 . S
C389 H416 0.980 1_554 S
C389 H417 0.983 . S
C390 H366 0.948 . S
C390 C391 1.391 . S
C390 C395 1.391 . S
C391 C390 1.391 . S
C391 C392 1.391 . S
C392 H369 0.950 . S
C392 C391 1.391 . S
C392 C393 1.392 . S
C393 H370 0.948 1_554 S
C393 C392 1.392 . S
C393 C394 1.419 . S
C394 C393 1.419 . S
C394 C395 1.391 . S
C394 C398 1.397 1_545 S
C395 C390 1.391 . S
C395 C394 1.391 . S
C395 C396 1.399 . S
C396 C395 1.399 . S
C396 C397 1.396 1_545 S
C396 C399 1.453 1_545 S
C396 C400 1.684 . S
C397 C387 1.723 . S
C397 C396 1.396 1_565 S
C397 C398 1.394 . S
C398 C368 1.723 1_554 S
C398 C394 1.397 1_565 S
C398 C397 1.394 . S
C399 H371 0.982 . S
C399 H375 0.979 . S
C399 H376 0.977 . S
C399 C396 1.453 1_565 S
C400 H372 0.979 . S
C400 H373 0.980 . S
C400 H374 0.983 . S
C400 C396 1.684 . S
H401 C419 0.948 . S
H402 C360 0.948 . S
H403 C378 0.979 . S
H404 C378 0.980 . S
H405 C378 0.983 . S
H406 C377 0.982 . S
H407 C377 0.979 . S
H408 C377 0.977 . S
H409 C379 0.948 . S
H410 C381 0.947 . S
H411 C382 0.948 . S
H412 C388 0.982 . S
H413 C388 0.979 . S
H414 C388 0.977 . S
H415 C389 0.979 . S
H416 C389 0.980 1_556 S
H417 C389 0.983 . S
H418 C362 0.947 . S
C419 C362 1.392 . S
C419 C363 1.419 . S
C419 H401 0.948 . S
C420 C421 1.391 . S
C420 C424 1.391 . S
C420 H462 0.948 . S
C421 C420 1.391 . S
C421 C422 1.391 . S
C422 C421 1.391 . S
C422 H478 0.947 . S
C422 C479 1.392 . S
C423 C424 1.391 . S
C423 C427 1.397 . S
C423 C479 1.419 . S
C424 C420 1.391 . S
C424 C423 1.391 . S
C424 C425 1.399 . S
C425 C424 1.399 . S
C425 C428 1.396 . S
C425 C437 1.453 . S
C425 C438 1.684 . S
H426 C450 0.948 . S
C427 C423 1.397 . S
C427 C428 1.394 . S
C427 C446 1.723 1_556 S
C428 C425 1.396 . S
C428 C427 1.394 . S
C428 C458 1.723 1_556 S
H429 C452 0.947 1_556 S
H430 C453 0.948 1_556 S
H431 C459 0.982 . S
H432 C460 0.979 . S
H433 C460 0.980 . S
H434 C460 0.983 . S
H435 C459 0.979 . S
H436 C459 0.977 . S
C437 C425 1.453 . S
C437 H466 0.982 . S
C437 H467 0.979 . S
C437 H468 0.977 . S
C438 C425 1.684 . S
C438 H463 0.979 . S
C438 H464 0.980 . S
C438 H465 0.983 . S
C439 C440 1.391 . S
C439 C444 1.391 . S
C439 H469 0.948 . S
C440 C439 1.391 . S
C440 C441 1.391 . S
C441 C440 1.391 . S
C441 C442 1.392 . S
C441 H470 0.947 . S
C442 C441 1.392 . S
C442 C443 1.419 . S
C442 H471 0.948 . S
C443 C442 1.419 . S
C443 C444 1.391 . S
C443 C447 1.397 . S
C444 C439 1.391 . S
C444 C443 1.391 . S
C444 C445 1.399 . S
C445 C444 1.399 . S
C445 C446 1.396 . S
C445 C448 1.453 . S
C445 C449 1.684 . S
C446 C427 1.723 1_554 S
C446 C445 1.396 . S
C446 C447 1.394 . S
C447 C443 1.397 . S
C447 C446 1.394 . S
C447 C457 1.723 . S
C448 C445 1.453 . S
C448 H472 0.982 . S
C448 H473 0.979 . S
C448 H474 0.977 1_554 S
C449 C445 1.684 . S
C449 H475 0.979 . S
C449 H476 0.980 1_554 S
C449 H477 0.983 . S
C450 H426 0.948 . S
C450 C451 1.391 . S
C450 C455 1.391 . S
C451 C450 1.391 . S
C451 C452 1.391 . S
C452 H429 0.947 1_554 S
C452 C451 1.391 . S
C452 C453 1.392 . S
C453 H430 0.948 1_554 S
C453 C452 1.392 . S
C453 C454 1.419 . S
C454 C453 1.419 . S
C454 C455 1.391 . S
C454 C458 1.397 . S
C455 C450 1.391 . S
C455 C454 1.391 . S
C455 C456 1.399 . S
C456 C455 1.399 . S
C456 C457 1.396 . S
C456 C459 1.453 . S
C456 C460 1.684 . S
C457 C447 1.723 . S
C457 C456 1.396 . S
C457 C458 1.394 . S
C458 C428 1.723 1_554 S
C458 C454 1.397 . S
C458 C457 1.394 . S
C459 H431 0.982 . S
C459 H435 0.979 . S
C459 H436 0.977 . S
C459 C456 1.453 . S
C460 H432 0.979 . S
C460 H433 0.980 . S
C460 H434 0.983 . S
C460 C456 1.684 . S
H461 C479 0.948 . S
H462 C420 0.948 . S
H463 C438 0.979 . S
H464 C438 0.980 . S
H465 C438 0.983 . S
H466 C437 0.982 . S
H467 C437 0.979 . S
H468 C437 0.977 . S
H469 C439 0.948 . S
H470 C441 0.947 . S
H471 C442 0.948 . S
H472 C448 0.982 . S
H473 C448 0.979 . S
H474 C448 0.977 1_556 S
H475 C449 0.979 . S
H476 C449 0.980 1_556 S
H477 C449 0.983 . S
H478 C422 0.947 . S
C479 C422 1.392 . S
C479 C423 1.419 . S
C479 H461 0.948 . S
Tb480 C482 2.809 . S
Tb480 O500 2.484 . S
Tb480 O501 2.440 . S
Tb480 O502 2.658 1_565 S
Tb480 O503 2.409 . S
Tb480 O504 2.378 . S
Tb480 O508 2.325 1_455 S
Tb480 O511 2.341 1_565 S
Tb481 C491 2.809 . S
Tb481 O502 2.325 1_655 S
Tb481 O505 2.341 1_545 S
Tb481 O506 2.484 . S
Tb481 O507 2.440 . S
Tb481 O508 2.658 1_545 S
Tb481 O509 2.409 . S
Tb481 O510 2.378 . S
C482 Tb480 2.809 . S
C482 C483 1.514 . S
C482 O500 1.248 . S
C482 O501 1.266 . S
C483 C482 1.514 . S
C483 C484 1.359 . S
C483 C488 1.348 . S
C484 C483 1.359 . S
C484 C485 1.380 . S
C484 H512 0.929 1_455 S
C485 C484 1.380 . S
C485 C486 1.347 . S
C485 H513 0.931 1_455 S
C486 C485 1.347 . S
C486 C487 1.369 . S
C487 C486 1.369 . S
C487 C488 1.408 . S
C487 H514 0.930 . S
C488 C483 1.348 . S
C488 C487 1.408 . S
C488 H515 0.930 . S
C489 O502 1.281 1_565 S
C489 O503 1.254 . S
C490 O504 1.236 1_655 S
C490 O505 1.266 . S
C491 Tb481 2.809 . S
C491 C492 1.514 . S
C491 O506 1.248 . S
C491 O507 1.266 . S
C492 C491 1.514 . S
C492 C493 1.359 . S
C492 C497 1.348 . S
C493 C492 1.359 . S
C493 C494 1.380 . S
C493 H516 0.929 1_655 S
C494 C493 1.380 . S
C494 C495 1.347 . S
C494 H517 0.931 1_655 S
C495 C494 1.347 . S
C495 C496 1.369 . S
C496 C495 1.369 . S
C496 C497 1.408 . S
C496 H518 0.930 . S
C497 C492 1.348 . S
C497 C496 1.408 . S
C497 H519 0.930 . S
C498 O508 1.281 1_545 S
C498 O509 1.254 . S
C499 O510 1.236 1_455 S
C499 O511 1.266 . S
O500 Tb480 2.484 . S
O500 C482 1.248 . S
O501 Tb480 2.440 . S
O501 C482 1.266 . S
O502 Tb480 2.658 1_545 S
O502 Tb481 2.325 1_455 S
O502 C489 1.281 1_545 S
O503 Tb480 2.409 . S
O503 C489 1.254 . S
O504 Tb480 2.378 . S
O504 C490 1.236 1_455 S
O505 Tb481 2.341 1_565 S
O505 C490 1.266 . S
O506 Tb481 2.484 . S
O506 C491 1.248 . S
O507 Tb481 2.440 . S
O507 C491 1.266 . S
O508 Tb480 2.325 1_655 S
O508 Tb481 2.658 1_565 S
O508 C498 1.281 1_565 S
O509 Tb481 2.409 . S
O509 C498 1.254 . S
O510 Tb481 2.378 . S
O510 C499 1.236 1_655 S
O511 Tb480 2.341 1_545 S
O511 C499 1.266 . S
H512 C484 0.929 1_655 S
H513 C485 0.931 1_655 S
H514 C487 0.930 . S
H515 C488 0.930 . S
H516 C493 0.929 1_455 S
H517 C494 0.931 1_455 S
H518 C496 0.930 . S
H519 C497 0.930 . S
Tb520 C522 2.809 . S
Tb520 O540 2.484 . S
Tb520 O541 2.440 . S
Tb520 O542 2.658 . S
Tb520 O543 2.409 . S
Tb520 O544 2.378 . S
Tb520 O548 2.325 1_545 S
Tb520 O551 2.341 . S
Tb521 C531 2.809 . S
Tb521 O542 2.325 1_565 S
Tb521 O545 2.341 . S
Tb521 O546 2.484 . S
Tb521 O547 2.440 . S
Tb521 O548 2.658 . S
Tb521 O549 2.409 . S
Tb521 O550 2.378 . S
C522 Tb520 2.809 . S
C522 C523 1.514 . S
C522 O540 1.248 . S
C522 O541 1.266 . S
C523 C522 1.514 . S
C523 C524 1.359 . S
C523 C528 1.348 . S
C524 C523 1.359 . S
C524 C525 1.380 . S
C524 H552 0.929 1_545 S
C525 C524 1.380 . S
C525 C526 1.347 . S
C525 H553 0.931 1_545 S
C526 C525 1.347 . S
C526 C527 1.369 . S
C527 C526 1.369 . S
C527 C528 1.408 . S
C527 H554 0.930 . S
C528 C523 1.348 . S
C528 C527 1.408 . S
C528 H555 0.930 . S
C529 O542 1.281 . S
C529 O543 1.254 . S
C530 O544 1.236 1_565 S
C530 O545 1.266 . S
C531 Tb521 2.809 . S
C531 C532 1.514 . S
C531 O546 1.248 . S
C531 O547 1.266 . S
C532 C531 1.514 . S
C532 C533 1.359 . S
C532 C537 1.348 . S
C533 C532 1.359 . S
C533 C534 1.380 . S
C533 H556 0.929 1_565 S
C534 C533 1.380 . S
C534 C535 1.347 . S
C534 H557 0.931 1_565 S
C535 C534 1.347 . S
C535 C536 1.369 . S
C536 C535 1.369 . S
C536 C537 1.408 . S
C536 H558 0.930 . S
C537 C532 1.348 . S
C537 C536 1.408 . S
C537 H559 0.930 . S
C538 O548 1.281 . S
C538 O549 1.254 . S
C539 O550 1.236 1_545 S
C539 O551 1.266 . S
O540 Tb520 2.484 . S
O540 C522 1.248 . S
O541 Tb520 2.440 . S
O541 C522 1.266 . S
O542 Tb520 2.658 . S
O542 Tb521 2.325 1_545 S
O542 C529 1.281 . S
O543 Tb520 2.409 . S
O543 C529 1.254 . S
O544 Tb520 2.378 . S
O544 C530 1.236 1_545 S
O545 Tb521 2.341 . S
O545 C530 1.266 . S
O546 Tb521 2.484 . S
O546 C531 1.248 . S
O547 Tb521 2.440 . S
O547 C531 1.266 . S
O548 Tb520 2.325 1_565 S
O548 Tb521 2.658 . S
O548 C538 1.281 . S
O549 Tb521 2.409 . S
O549 C538 1.254 . S
O550 Tb521 2.378 . S
O550 C539 1.236 1_565 S
O551 Tb520 2.341 . S
O551 C539 1.266 . S
H552 C524 0.929 1_565 S
H553 C525 0.931 1_565 S
H554 C527 0.930 . S
H555 C528 0.930 . S
H556 C533 0.929 1_545 S
H557 C534 0.931 1_545 S
H558 C536 0.930 . S
H559 C537 0.930 . S
Tb560 C562 2.809 . S
Tb560 O580 2.484 . S
Tb560 O581 2.440 . S
Tb560 O582 2.658 . S
Tb560 O583 2.409 . S
Tb560 O584 2.378 . S
Tb560 O588 2.325 . S
Tb560 O591 2.341 . S
Tb561 C571 2.809 . S
Tb561 O582 2.325 . S
Tb561 O585 2.341 . S
Tb561 O586 2.484 . S
Tb561 O587 2.440 . S
Tb561 O588 2.658 . S
Tb561 O589 2.409 . S
Tb561 O590 2.378 . S
C562 Tb560 2.809 . S
C562 C563 1.514 . S
C562 O580 1.248 . S
C562 O581 1.266 . S
C563 C562 1.514 . S
C563 C564 1.359 . S
C563 C568 1.348 . S
C564 C563 1.359 . S
C564 C565 1.380 . S
C564 H592 0.929 . S
C565 C564 1.380 . S
C565 C566 1.347 . S
C565 H593 0.931 . S
C566 C565 1.347 . S
C566 C567 1.369 . S
C567 C566 1.369 . S
C567 C568 1.408 . S
C567 H594 0.930 . S
C568 C563 1.348 . S
C568 C567 1.408 . S
C568 H595 0.930 . S
C569 O582 1.281 . S
C569 O583 1.254 . S
C570 O584 1.236 . S
C570 O585 1.266 . S
C571 Tb561 2.809 . S
C571 C572 1.514 . S
C571 O586 1.248 . S
C571 O587 1.266 . S
C572 C571 1.514 . S
C572 C573 1.359 . S
C572 C577 1.348 . S
C573 C572 1.359 . S
C573 C574 1.380 . S
C573 H596 0.929 . S
C574 C573 1.380 . S
C574 C575 1.347 . S
C574 H597 0.931 . S
C575 C574 1.347 . S
C575 C576 1.369 . S
C576 C575 1.369 . S
C576 C577 1.408 . S
C576 H598 0.930 . S
C577 C572 1.348 . S
C577 C576 1.408 . S
C577 H599 0.930 . S
C578 O588 1.281 . S
C578 O589 1.254 . S
C579 O590 1.236 . S
C579 O591 1.266 . S
O580 Tb560 2.484 . S
O580 C562 1.248 . S
O581 Tb560 2.440 . S
O581 C562 1.266 . S
O582 Tb560 2.658 . S
O582 Tb561 2.325 . S
O582 C569 1.281 . S
O583 Tb560 2.409 . S
O583 C569 1.254 . S
O584 Tb560 2.378 . S
O584 C570 1.236 . S
O585 Tb561 2.341 . S
O585 C570 1.266 . S
O586 Tb561 2.484 . S
O586 C571 1.248 . S
O587 Tb561 2.440 . S
O587 C571 1.266 . S
O588 Tb560 2.325 . S
O588 Tb561 2.658 . S
O588 C578 1.281 . S
O589 Tb561 2.409 . S
O589 C578 1.254 . S
O590 Tb561 2.378 . S
O590 C579 1.236 . S
O591 Tb560 2.341 . S
O591 C579 1.266 . S
H592 C564 0.929 . S
H593 C565 0.931 . S
H594 C567 0.930 . S
H595 C568 0.930 . S
H596 C573 0.929 . S
H597 C574 0.931 . S
H598 C576 0.930 . S
H599 C577 0.930 . S
Tb600 C602 2.809 . S
Tb600 O620 2.484 . S
Tb600 O621 2.440 . S
Tb600 O622 2.658 1_655 S
Tb600 O623 2.409 . S
Tb600 O624 2.378 . S
Tb600 O628 2.325 . S
Tb600 O631 2.341 1_655 S
Tb601 C611 2.809 . S
Tb601 O622 2.325 . S
Tb601 O625 2.341 1_455 S
Tb601 O626 2.484 . S
Tb601 O627 2.440 . S
Tb601 O628 2.658 1_455 S
Tb601 O629 2.409 . S
Tb601 O630 2.378 . S
C602 Tb600 2.809 . S
C602 C603 1.514 . S
C602 O620 1.248 . S
C602 O621 1.266 . S
C603 C602 1.514 . S
C603 C604 1.359 . S
C603 C608 1.348 . S
C604 C603 1.359 . S
C604 C605 1.380 . S
C604 H632 0.929 . S
C605 C604 1.380 . S
C605 C606 1.347 . S
C605 H633 0.931 . S
C606 C605 1.347 . S
C606 C607 1.369 . S
C607 C606 1.369 . S
C607 C608 1.408 . S
C607 H634 0.930 . S
C608 C603 1.348 . S
C608 C607 1.408 . S
C608 H635 0.930 . S
C609 O622 1.276 1_655 S
C609 O623 1.261 . S
C610 O624 1.236 . S
C610 O625 1.266 . S
C611 Tb601 2.809 . S
C611 C612 1.514 . S
C611 O626 1.248 . S
C611 O627 1.266 . S
C612 C611 1.514 . S
C612 C613 1.359 . S
C612 C617 1.348 . S
C613 C612 1.359 . S
C613 C614 1.380 . S
C613 H636 0.929 . S
C614 C613 1.380 . S
C614 C615 1.347 . S
C614 H637 0.931 . S
C615 C614 1.347 . S
C615 C616 1.369 . S
C616 C615 1.369 . S
C616 C617 1.408 . S
C616 H638 0.930 . S
C617 C612 1.348 . S
C617 C616 1.408 . S
C617 H639 0.930 . S
C618 O628 1.272 1_455 S
C618 O629 1.266 . S
C619 O630 1.236 . S
C619 O631 1.266 . S
O620 Tb600 2.484 . S
O620 C602 1.248 . S
O621 Tb600 2.440 . S
O621 C602 1.266 . S
O622 Tb600 2.658 1_455 S
O622 Tb601 2.325 . S
O622 C609 1.276 1_455 S
O623 Tb600 2.409 . S
O623 C609 1.261 . S
O624 Tb600 2.378 . S
O624 C610 1.236 . S
O625 Tb601 2.341 1_655 S
O625 C610 1.266 . S
O626 Tb601 2.484 . S
O626 C611 1.248 . S
O627 Tb601 2.440 . S
O627 C611 1.266 . S
O628 Tb600 2.325 . S
O628 Tb601 2.658 1_655 S
O628 C618 1.272 1_655 S
O629 Tb601 2.409 . S
O629 C618 1.266 . S
O630 Tb601 2.378 . S
O630 C619 1.236 . S
O631 Tb600 2.341 1_455 S
O631 C619 1.266 . S
H632 C604 0.929 . S
H633 C605 0.931 . S
H634 C607 0.930 . S
H635 C608 0.930 . S
H636 C613 0.929 . S
H637 C614 0.931 . S
H638 C616 0.930 . S
H639 C617 0.930 . S
H640 C646 0.930 . S
H641 C650 0.930 . S
H642 C655 0.929 . S
H643 C653 0.929 . S
H644 C648 0.929 . S
H645 C654 0.929 . S
C646 H640 0.930 . S
C646 C647 1.371 . S
C646 C654 1.378 . S
C647 C646 1.371 . S
C647 C655 1.429 1_565 S
C648 H644 0.929 . S
C648 C650 1.378 . S
C648 C652 1.376 . S
C649 C652 1.461 1_565 S
C649 C654 1.359 . S
C649 N657 1.419 1_565 S
C650 H641 0.930 . S
C650 C648 1.378 . S
C650 C651 1.389 . S
C651 C650 1.389 . S
C651 C653 1.411 1_545 S
C652 C648 1.376 . S
C652 C649 1.461 1_545 S
C652 N656 1.401 1_545 S
C653 H643 0.929 . S
C653 C651 1.411 1_565 S
C653 N656 1.384 . S
C654 H645 0.929 . S
C654 C646 1.378 . S
C654 C649 1.359 . S
C655 H642 0.929 . S
C655 C647 1.429 1_545 S
C655 N657 1.384 . S
N656 C652 1.401 1_565 S
N656 C653 1.384 . S
N657 C649 1.419 1_545 S
N657 C655 1.384 . S
H658 C664 0.930 . S
H659 C668 0.930 . S
H660 C673 0.929 . S
H661 C671 0.929 . S
H662 C666 0.929 . S
H663 C672 0.929 . S
C664 H658 0.930 . S
C664 C665 1.367 . S
C664 C672 1.378 . S
C665 C664 1.367 . S
C665 C673 1.433 . S
C666 H662 0.929 . S
C666 C668 1.378 . S
C666 C670 1.350 . S
C667 C670 1.463 . S
C667 C672 1.350 . S
C667 N675 1.427 . S
C668 H659 0.930 . S
C668 C666 1.378 . S
C668 C669 1.367 . S
C669 C668 1.367 . S
C669 C671 1.433 . S
C670 C666 1.350 . S
C670 C667 1.463 . S
C670 N674 1.427 . S
C671 H661 0.929 . S
C671 C669 1.433 . S
C671 N674 1.384 . S
C672 H663 0.929 . S
C672 C664 1.378 . S
C672 C667 1.350 . S
C673 H660 0.929 . S
C673 C665 1.433 . S
C673 N675 1.384 . S
N674 C670 1.427 . S
N674 C671 1.384 . S
N675 C667 1.427 . S
N675 C673 1.384 . S
H676 C682 0.930 . S
H677 C686 0.930 . S
H678 C691 0.929 . S
H679 C689 0.929 . S
H680 C684 0.929 . S
H681 C690 0.929 . S
C682 H676 0.930 . S
C682 C683 1.367 . S
C682 C690 1.378 . S
C683 C682 1.367 . S
C683 C691 1.433 . S
C684 H680 0.929 . S
C684 C686 1.378 . S
C684 C688 1.350 . S
C685 C688 1.463 . S
C685 C690 1.350 . S
C685 N693 1.427 . S
C686 H677 0.930 . S
C686 C684 1.378 . S
C686 C687 1.367 . S
C687 C686 1.367 . S
C687 C689 1.433 . S
C688 C684 1.350 . S
C688 C685 1.463 . S
C688 N692 1.427 . S
C689 H679 0.929 . S
C689 C687 1.433 . S
C689 N692 1.384 . S
C690 H681 0.929 . S
C690 C682 1.378 . S
C690 C685 1.350 . S
C691 H678 0.929 . S
C691 C683 1.433 . S
C691 N693 1.384 . S
N692 C688 1.427 . S
N692 C689 1.384 . S
N693 C685 1.427 . S
N693 C691 1.384 . S
H694 C700 0.930 . S
H695 C704 0.934 . S
H696 C709 0.929 . S
H697 C707 0.929 . S
H698 C702 0.934 . S
H699 C708 0.929 . S
C700 H694 0.930 . S
C700 C701 1.368 . S
C700 C708 1.378 . S
C701 C700 1.368 . S
C701 C709 1.432 1_455 S
C702 H698 0.934 . S
C702 C704 1.378 . S
C702 C706 1.347 1_655 S
C703 C706 1.462 . S
C703 C708 1.353 . S
C703 N711 1.425 1_455 S
C704 H695 0.934 . S
C704 C702 1.378 . S
C704 C705 1.364 1_655 S
C705 C704 1.364 1_455 S
C705 C707 1.433 . S
C706 C702 1.347 1_455 S
C706 C703 1.462 . S
C706 N710 1.431 . S
C707 H697 0.929 . S
C707 C705 1.433 . S
C707 N710 1.384 . S
C708 H699 0.929 . S
C708 C700 1.378 . S
C708 C703 1.353 . S
C709 H696 0.929 . S
C709 C701 1.432 1_655 S
C709 N711 1.384 . S
N710 C706 1.431 . S
N710 C707 1.384 . S
N711 C703 1.425 1_655 S
N711 C709 1.384 . S
H712 C718 0.930 . S
H713 C722 0.930 . S
H714 C727 0.929 . S
H715 C725 0.929 . S
H716 C720 0.929 1_554 S
H717 C726 0.929 . S
C718 H712 0.930 . S
C718 C719 1.386 . S
C718 C726 1.378 . S
C719 C718 1.386 . S
C719 C727 1.414 1_545 S
C720 H716 0.929 1_556 S
C720 C722 1.378 . S
C720 C724 1.378 1_556 S
C721 C724 1.460 1_545 S
C721 C726 1.376 . S
C721 N729 1.402 1_545 S
C722 H713 0.930 . S
C722 C720 1.378 . S
C722 C723 1.388 . S
C723 C722 1.388 . S
C723 C725 1.412 1_565 S
C724 C720 1.378 1_554 S
C724 C721 1.460 1_565 S
C724 N728 1.400 1_564 S
C725 H715 0.929 . S
C725 C723 1.412 1_545 S
C725 N728 1.384 . S
C726 H717 0.929 . S
C726 C718 1.378 . S
C726 C721 1.376 . S
C727 H714 0.929 . S
C727 C719 1.414 1_565 S
C727 N729 1.384 . S
N728 C724 1.400 1_546 S
N728 C725 1.384 . S
N729 C721 1.402 1_565 S
N729 C727 1.384 . S
H730 C736 0.930 . S
H731 C740 0.930 . S
H732 C745 0.929 . S
H733 C743 0.929 . S
H734 C738 0.929 . S
H735 C744 0.929 . S
C736 H730 0.930 . S
C736 C737 1.367 . S
C736 C744 1.378 . S
C737 C736 1.367 . S
C737 C745 1.433 . S
C738 H734 0.929 . S
C738 C740 1.378 1_554 S
C738 C742 1.350 . S
C739 C742 1.463 . S
C739 C744 1.350 . S
C739 N747 1.427 . S
C740 H731 0.930 . S
C740 C738 1.378 1_556 S
C740 C741 1.367 . S
C741 C740 1.367 . S
C741 C743 1.433 . S
C742 C738 1.350 . S
C742 C739 1.463 . S
C742 N746 1.427 1_554 S
C743 H733 0.929 . S
C743 C741 1.433 . S
C743 N746 1.384 . S
C744 H735 0.929 . S
C744 C736 1.378 . S
C744 C739 1.350 . S
C745 H732 0.929 . S
C745 C737 1.433 . S
C745 N747 1.384 . S
N746 C742 1.427 1_556 S
N746 C743 1.384 . S
N747 C739 1.427 . S
N747 C745 1.384 . S
H748 C754 0.930 . S
H749 C758 0.930 . S
H750 C763 0.929 . S
H751 C761 0.929 . S
H752 C756 0.929 1_554 S
H753 C762 0.929 . S
C754 H748 0.930 . S
C754 C755 1.367 . S
C754 C762 1.378 . S
C755 C754 1.367 . S
C755 C763 1.433 . S
C756 H752 0.929 1_556 S
C756 C758 1.378 . S
C756 C760 1.350 1_556 S
C757 C760 1.463 . S
C757 C762 1.350 . S
C757 N765 1.427 . S
C758 H749 0.930 . S
C758 C756 1.378 . S
C758 C759 1.367 . S
C759 C758 1.367 . S
C759 C761 1.433 . S
C760 C756 1.350 1_554 S
C760 C757 1.463 . S
C760 N764 1.427 1_554 S
C761 H751 0.929 . S
C761 C759 1.433 . S
C761 N764 1.384 . S
C762 H753 0.929 . S
C762 C754 1.378 . S
C762 C757 1.350 . S
C763 H750 0.929 . S
C763 C755 1.433 . S
C763 N765 1.384 . S
N764 C760 1.427 1_556 S
N764 C761 1.384 . S
N765 C757 1.427 . S
N765 C763 1.384 . S
H766 C772 0.930 . S
H767 C776 0.930 . S
H768 C781 0.929 . S
H769 C779 0.929 . S
H770 C774 0.929 1_554 S
H771 C780 0.929 . S
C772 H766 0.930 . S
C772 C773 1.369 1_455 S
C772 C780 1.378 . S
C773 C772 1.369 1_655 S
C773 C781 1.431 . S
C774 H770 0.929 1_556 S
C774 C776 1.378 . S
C774 C778 1.350 1_556 S
C775 C778 1.463 . S
C775 C780 1.347 1_655 S
C775 N783 1.430 . S
C776 H767 0.930 . S
C776 C774 1.378 . S
C776 C777 1.367 . S
C777 C776 1.367 . S
C777 C779 1.433 1_655 S
C778 C774 1.350 1_554 S
C778 C775 1.463 . S
C778 N782 1.427 1_654 S
C779 H769 0.929 . S
C779 C777 1.433 1_455 S
C779 N782 1.384 . S
C780 H771 0.929 . S
C780 C772 1.378 . S
C780 C775 1.347 1_455 S
C781 H768 0.929 . S
C781 C773 1.431 . S
C781 N783 1.384 . S
N782 C778 1.427 1_456 S
N782 C779 1.384 . S
N783 C775 1.430 . S
N783 C781 1.384 . S
H784 C790 0.930 . S
H785 C794 0.930 . S
H786 C799 0.929 . S
H787 C797 0.929 . S
H788 C792 0.929 . S
H789 C798 0.929 . S
C790 H784 0.930 . S
C790 C791 1.367 . S
C790 C798 1.378 . S
C791 C790 1.367 . S
C791 C799 1.433 1_455 S
C792 H788 0.929 . S
C792 C794 1.378 . S
C792 C796 1.350 . S
C793 C796 1.463 . S
C793 C798 1.350 1_655 S
C793 N801 1.427 . S
C794 H785 0.930 . S
C794 C792 1.378 . S
C794 C795 1.367 . S
C795 C794 1.367 . S
C795 C797 1.433 . S
C796 C792 1.350 . S
C796 C793 1.463 . S
C796 N800 1.427 . S
C797 H787 0.929 . S
C797 C795 1.433 . S
C797 N800 1.384 . S
C798 H789 0.929 . S
C798 C790 1.378 . S
C798 C793 1.350 1_455 S
C799 H786 0.929 . S
C799 C791 1.433 1_655 S
C799 N801 1.384 . S
N800 C796 1.427 . S
N800 C797 1.384 . S
N801 C793 1.427 . S
N801 C799 1.384 . S
H802 C808 0.930 . S
H803 C812 0.930 . S
H804 C817 0.929 . S
H805 C815 0.929 . S
H806 C810 0.929 . S
H807 C816 0.929 . S
C808 H802 0.930 . S
C808 C809 1.367 1_565 S
C808 C816 1.378 . S
C809 C808 1.367 1_545 S
C809 C817 1.433 . S
C810 H806 0.929 . S
C810 C812 1.378 . S
C810 C814 1.350 . S
C811 C814 1.463 . S
C811 C816 1.350 . S
C811 N819 1.427 . S
C812 H803 0.930 . S
C812 C810 1.378 . S
C812 C813 1.367 . S
C813 C812 1.367 . S
C813 C815 1.433 . S
C814 C810 1.350 . S
C814 C811 1.463 . S
C814 N818 1.427 . S
C815 H805 0.929 . S
C815 C813 1.433 . S
C815 N818 1.384 . S
C816 H807 0.929 . S
C816 C808 1.378 . S
C816 C811 1.350 . S
C817 H804 0.929 . S
C817 C809 1.433 . S
C817 N819 1.384 1_545 S
N818 C814 1.427 . S
N818 C815 1.384 . S
N819 C811 1.427 . S
N819 C817 1.384 1_565 S
H820 C826 0.930 . S
H821 C830 0.930 . S
H822 C835 0.929 . S
H823 C833 0.929 . S
H824 C828 0.929 . S
H825 C834 0.929 . S
C826 H820 0.930 . S
C826 C827 1.367 . S
C826 C834 1.378 . S
C827 C826 1.367 . S
C827 C835 1.433 . S
C828 H824 0.929 . S
C828 C830 1.378 . S
C828 C832 1.350 . S
C829 C832 1.463 . S
C829 C834 1.350 . S
C829 N837 1.427 . S
C830 H821 0.930 . S
C830 C828 1.378 . S
C830 C831 1.367 . S
C831 C830 1.367 . S
C831 C833 1.433 . S
C832 C828 1.350 . S
C832 C829 1.463 . S
C832 N836 1.427 . S
C833 H823 0.929 . S
C833 C831 1.433 . S
C833 N836 1.384 . S
C834 H825 0.929 . S
C834 C826 1.378 . S
C834 C829 1.350 . S
C835 H822 0.929 . S
C835 C827 1.433 . S
C835 N837 1.384 . S
N836 C832 1.427 . S
N836 C833 1.384 . S
N837 C829 1.427 . S
N837 C835 1.384 . S
H838 C844 0.930 . S
H839 C848 0.930 . S
H840 C853 0.929 . S
H841 C851 0.929 . S
H842 C846 0.929 . S
H843 C852 0.929 . S
C844 H838 0.930 . S
C844 C845 1.367 . S
C844 C852 1.378 . S
C845 C844 1.367 . S
C845 C853 1.433 . S
C846 H842 0.929 . S
C846 C848 1.378 . S
C846 C850 1.350 . S
C847 C850 1.463 . S
C847 C852 1.350 . S
C847 N855 1.427 . S
C848 H839 0.930 . S
C848 C846 1.378 . S
C848 C849 1.367 . S
C849 C848 1.367 . S
C849 C851 1.433 . S
C850 C846 1.350 . S
C850 C847 1.463 . S
C850 N854 1.427 . S
C851 H841 0.929 . S
C851 C849 1.433 . S
C851 N854 1.384 . S
C852 H843 0.929 . S
C852 C844 1.378 . S
C852 C847 1.350 . S
C853 H840 0.929 . S
C853 C845 1.433 . S
C853 N855 1.384 . S
N854 C850 1.427 . S
N854 C851 1.384 . S
N855 C847 1.427 . S
N855 C853 1.384 . S
H856 C862 0.930 . S
H857 C866 0.930 . S
H858 C871 0.929 . S
H859 C869 0.929 . S
H860 C864 0.929 . S
H861 C870 0.929 . S
C862 H856 0.930 . S
C862 C863 1.367 1_455 S
C862 C870 1.378 . S
C863 C862 1.367 1_655 S
C863 C871 1.433 . S
C864 H860 0.929 . S
C864 C866 1.378 . S
C864 C868 1.350 1_556 S
C865 C868 1.463 . S
C865 C870 1.350 . S
C865 N873 1.427 . S
C866 H857 0.930 . S
C866 C864 1.378 . S
C866 C867 1.367 . S
C867 C866 1.367 . S
C867 C869 1.433 1_556 S
C868 C864 1.350 1_554 S
C868 C865 1.463 . S
C868 N872 1.427 . S
C869 H859 0.929 . S
C869 C867 1.433 1_554 S
C869 N872 1.384 . S
C870 H861 0.929 . S
C870 C862 1.378 . S
C870 C865 1.350 . S
C871 H858 0.929 . S
C871 C863 1.433 . S
C871 N873 1.384 1_655 S
N872 C868 1.427 . S
N872 C869 1.384 . S
N873 C865 1.427 . S
N873 C871 1.384 1_455 S
H874 C880 0.930 . S
H875 C884 0.930 . S
H876 C889 0.929 . S
H877 C887 0.929 . S
H878 C882 0.929 . S
H879 C888 0.929 . S
C880 H874 0.930 . S
C880 C881 1.367 1_545 S
C880 C888 1.378 . S
C881 C880 1.367 1_565 S
C881 C889 1.433 . S
C882 H878 0.929 . S
C882 C884 1.378 . S
C882 C886 1.350 1_556 S
C883 C886 1.463 . S
C883 C888 1.350 . S
C883 N891 1.427 . S
C884 H875 0.930 . S
C884 C882 1.378 . S
C884 C885 1.367 . S
C885 C884 1.367 . S
C885 C887 1.433 1_556 S
C886 C882 1.350 1_554 S
C886 C883 1.463 . S
C886 N890 1.427 . S
C887 H877 0.929 . S
C887 C885 1.433 1_554 S
C887 N890 1.384 . S
C888 H879 0.929 . S
C888 C880 1.378 . S
C888 C883 1.350 . S
C889 H876 0.929 . S
C889 C881 1.433 . S
C889 N891 1.384 1_565 S
N890 C886 1.427 . S
N890 C887 1.384 . S
N891 C883 1.427 . S
N891 C889 1.384 1_545 S
H892 C898 0.930 . S
H893 C902 0.930 . S
H894 C907 0.929 . S
H895 C905 0.929 . S
H896 C900 0.929 . S
H897 C906 0.929 . S
C898 H892 0.930 . S
C898 C899 1.367 . S
C898 C906 1.378 . S
C899 C898 1.367 . S
C899 C907 1.433 . S
C900 H896 0.929 . S
C900 C902 1.378 . S
C900 C904 1.350 1_556 S
C901 C904 1.463 . S
C901 C906 1.350 . S
C901 N909 1.427 . S
C902 H893 0.930 . S
C902 C900 1.378 . S
C902 C903 1.367 . S
C903 C902 1.367 . S
C903 C905 1.433 1_556 S
C904 C900 1.350 1_554 S
C904 C901 1.463 . S
C904 N908 1.427 . S
C905 H895 0.929 . S
C905 C903 1.433 1_554 S
C905 N908 1.384 . S
C906 H897 0.929 . S
C906 C898 1.378 . S
C906 C901 1.350 . S
C907 H894 0.929 . S
C907 C899 1.433 . S
C907 N909 1.384 . S
N908 C904 1.427 . S
N908 C905 1.384 . S
N909 C901 1.427 . S
N909 C907 1.384 . S
H910 C916 0.930 . S
H911 C920 0.930 . S
H912 C925 0.929 . S
H913 C923 0.929 . S
H914 C918 0.929 . S
H915 C924 0.929 . S
C916 H910 0.930 . S
C916 C917 1.367 . S
C916 C924 1.378 . S
C917 C916 1.367 . S
C917 C925 1.433 . S
C918 H914 0.929 . S
C918 C920 1.378 . S
C918 C922 1.350 1_556 S
C919 C922 1.463 . S
C919 C924 1.350 . S
C919 N927 1.427 . S
C920 H911 0.930 . S
C920 C918 1.378 . S
C920 C921 1.367 . S
C921 C920 1.367 . S
C921 C923 1.433 1_556 S
C922 C918 1.350 1_554 S
C922 C919 1.463 . S
C922 N926 1.427 . S
C923 H913 0.929 . S
C923 C921 1.433 1_554 S
C923 N926 1.384 . S
C924 H915 0.929 . S
C924 C916 1.378 . S
C924 C919 1.350 . S
C925 H912 0.929 . S
C925 C917 1.433 . S
C925 N927 1.384 . S
N926 C922 1.427 . S
N926 C923 1.384 . S
N927 C919 1.427 . S
N927 C925 1.384 . S
H928 C934 0.930 . S
H929 C938 0.930 . S
H930 C943 0.929 . S
H931 C941 0.929 . S
H932 C936 0.929 . S
H933 C942 0.929 . S
C934 H928 0.930 . S
C934 C935 1.367 . S
C934 C942 1.378 . S
C935 C934 1.367 . S
C935 C943 1.433 1_455 S
C936 H932 0.929 . S
C936 C938 1.378 . S
C936 C940 1.350 1_655 S
C937 C940 1.463 . S
C937 C942 1.350 . S
C937 N945 1.427 1_455 S
C938 H929 0.930 . S
C938 C936 1.378 . S
C938 C939 1.367 1_655 S
C939 C938 1.367 1_455 S
C939 C941 1.433 . S
C940 C936 1.350 1_455 S
C940 C937 1.463 . S
C940 N944 1.427 . S
C941 H931 0.929 . S
C941 C939 1.433 . S
C941 N944 1.384 . S
C942 H933 0.929 . S
C942 C934 1.378 . S
C942 C937 1.350 . S
C943 H930 0.929 . S
C943 C935 1.433 1_655 S
C943 N945 1.384 . S
N944 C940 1.427 . S
N944 C941 1.384 . S
N945 C937 1.427 1_655 S
N945 C943 1.384 . S
H946 C952 0.930 . S
H947 C956 0.930 . S
H948 C961 0.929 . S
H949 C959 0.929 . S
H950 C954 0.929 . S
H951 C960 0.929 . S
C952 H946 0.930 . S
C952 C953 1.367 . S
C952 C960 1.378 . S
C953 C952 1.367 . S
C953 C961 1.433 1_545 S
C954 H950 0.929 . S
C954 C956 1.378 . S
C954 C958 1.350 1_565 S
C955 C958 1.463 . S
C955 C960 1.350 . S
C955 N963 1.427 1_545 S
C956 H947 0.930 . S
C956 C954 1.378 . S
C956 C957 1.367 1_565 S
C957 C956 1.367 1_545 S
C957 C959 1.433 . S
C958 C954 1.350 1_545 S
C958 C955 1.463 . S
C958 N962 1.427 . S
C959 H949 0.929 . S
C959 C957 1.433 . S
C959 N962 1.384 . S
C960 H951 0.929 . S
C960 C952 1.378 . S
C960 C955 1.350 . S
C961 H948 0.929 . S
C961 C953 1.433 1_565 S
C961 N963 1.384 . S
N962 C958 1.427 . S
N962 C959 1.384 . S
N963 C955 1.427 1_565 S
N963 C961 1.384 . S
H964 C970 0.930 . S
H965 C974 0.930 . S
H966 C979 0.929 . S
H967 C977 0.929 . S
H968 C972 0.929 . S
H969 C978 0.929 . S
C970 H964 0.930 . S
C970 C971 1.367 . S
C970 C978 1.378 . S
C971 C970 1.367 . S
C971 C979 1.433 . S
C972 H968 0.929 . S
C972 C974 1.378 . S
C972 C976 1.350 . S
C973 C976 1.463 . S
C973 C978 1.350 . S
C973 N981 1.427 . S
C974 H965 0.930 . S
C974 C972 1.378 . S
C974 C975 1.367 . S
C975 C974 1.367 . S
C975 C977 1.433 . S
C976 C972 1.350 . S
C976 C973 1.463 . S
C976 N980 1.427 . S
C977 H967 0.929 . S
C977 C975 1.433 . S
C977 N980 1.384 . S
C978 H969 0.929 . S
C978 C970 1.378 . S
C978 C973 1.350 . S
C979 H966 0.929 . S
C979 C971 1.433 . S
C979 N981 1.384 . S
N980 C976 1.427 . S
N980 C977 1.384 . S
N981 C973 1.427 . S
N981 C979 1.384 . S
H982 C988 0.930 . S
H983 C992 0.930 . S
H984 C997 0.929 . S
H985 C995 0.929 . S
H986 C990 0.929 . S
H987 C996 0.929 . S
C988 H982 0.930 . S
C988 C989 1.367 . S
C988 C996 1.378 . S
C989 C988 1.367 . S
C989 C997 1.433 . S
C990 H986 0.929 . S
C990 C992 1.378 . S
C990 C994 1.350 . S
C991 C994 1.463 . S
C991 C996 1.350 . S
C991 N999 1.427 . S
C992 H983 0.930 . S
C992 C990 1.378 . S
C992 C993 1.367 . S
C993 C992 1.367 . S
C993 C995 1.433 . S
C994 C990 1.350 . S
C994 C991 1.463 . S
C994 N998 1.427 . S
C995 H985 0.929 . S
C995 C993 1.433 . S
C995 N998 1.384 . S
C996 H987 0.929 . S
C996 C988 1.378 . S
C996 C991 1.350 . S
C997 H984 0.929 . S
C997 C989 1.433 . S
C997 N999 1.384 . S
N998 C994 1.427 . S
N998 C995 1.384 . S
N999 C991 1.427 . S
N999 C997 1.384 . S
H1000 C1006 0.930 . S
H1001 C1010 0.930 . S
H1002 C1015 0.929 . S
H1003 C1013 0.929 . S
H1004 C1008 0.929 . S
H1005 C1014 0.929 . S
C1006 H1000 0.930 . S
C1006 C1007 1.367 1_455 S
C1006 C1014 1.378 . S
C1007 C1006 1.367 1_655 S
C1007 C1015 1.433 . S
C1008 H1004 0.929 . S
C1008 C1010 1.378 . S
C1008 C1012 1.350 . S
C1009 C1012 1.463 . S
C1009 C1014 1.350 1_655 S
C1009 N1017 1.427 . S
C1010 H1001 0.930 . S
C1010 C1008 1.378 . S
C1010 C1011 1.367 . S
C1011 C1010 1.367 . S
C1011 C1013 1.433 1_655 S
C1012 C1008 1.350 . S
C1012 C1009 1.463 . S
C1012 N1016 1.427 1_655 S
C1013 H1003 0.929 . S
C1013 C1011 1.433 1_455 S
C1013 N1016 1.384 . S
C1014 H1005 0.929 . S
C1014 C1006 1.378 . S
C1014 C1009 1.350 1_455 S
C1015 H1002 0.929 . S
C1015 C1007 1.433 . S
C1015 N1017 1.384 . S
N1016 C1012 1.427 1_455 S
N1016 C1013 1.384 . S
N1017 C1009 1.427 . S
N1017 C1015 1.384 . S
H1018 C1024 0.930 . S
H1019 C1028 0.930 . S
H1020 C1033 0.929 . S
H1021 C1031 0.929 . S
H1022 C1026 0.929 . S
H1023 C1032 0.929 . S
C1024 H1018 0.930 . S
C1024 C1025 1.367 1_545 S
C1024 C1032 1.378 . S
C1025 C1024 1.367 1_565 S
C1025 C1033 1.433 . S
C1026 H1022 0.929 . S
C1026 C1028 1.378 . S
C1026 C1030 1.350 . S
C1027 C1030 1.463 . S
C1027 C1032 1.350 1_565 S
C1027 N1035 1.427 . S
C1028 H1019 0.930 . S
C1028 C1026 1.378 . S
C1028 C1029 1.367 . S
C1029 C1028 1.367 . S
C1029 C1031 1.433 1_565 S
C1030 C1026 1.350 . S
C1030 C1027 1.463 . S
C1030 N1034 1.427 1_565 S
C1031 H1021 0.929 . S
C1031 C1029 1.433 1_545 S
C1031 N1034 1.384 . S
C1032 H1023 0.929 . S
C1032 C1024 1.378 . S
C1032 C1027 1.350 1_545 S
C1033 H1020 0.929 . S
C1033 C1025 1.433 . S
C1033 N1035 1.384 . S
N1034 C1030 1.427 1_545 S
N1034 C1031 1.384 . S
N1035 C1027 1.427 . S
N1035 C1033 1.384 . S
H1036 C1042 0.930 . S
H1037 C1046 0.930 . S
H1038 C1051 0.929 . S
H1039 C1049 0.929 . S
H1040 C1044 0.929 . S
H1041 C1050 0.929 . S
C1042 H1036 0.930 . S
C1042 C1043 1.367 . S
C1042 C1050 1.378 . S
C1043 C1042 1.367 . S
C1043 C1051 1.433 . S
C1044 H1040 0.929 . S
C1044 C1046 1.378 . S
C1044 C1048 1.350 . S
C1045 C1048 1.463 . S
C1045 C1050 1.350 . S
C1045 N1053 1.427 . S
C1046 H1037 0.930 . S
C1046 C1044 1.378 . S
C1046 C1047 1.367 . S
C1047 C1046 1.367 . S
C1047 C1049 1.433 . S
C1048 C1044 1.350 . S
C1048 C1045 1.463 . S
C1048 N1052 1.427 . S
C1049 H1039 0.929 . S
C1049 C1047 1.433 . S
C1049 N1052 1.384 . S
C1050 H1041 0.929 . S
C1050 C1042 1.378 . S
C1050 C1045 1.350 . S
C1051 H1038 0.929 . S
C1051 C1043 1.433 . S
C1051 N1053 1.384 . S
N1052 C1048 1.427 . S
N1052 C1049 1.384 . S
N1053 C1045 1.427 . S
N1053 C1051 1.384 . S
H1054 C1060 0.930 . S
H1055 C1064 0.930 . S
H1056 C1069 0.929 . S
H1057 C1067 0.929 . S
H1058 C1062 0.929 . S
H1059 C1068 0.929 . S
C1060 H1054 0.930 . S
C1060 C1061 1.367 . S
C1060 C1068 1.378 . S
C1061 C1060 1.367 . S
C1061 C1069 1.433 . S
C1062 H1058 0.929 . S
C1062 C1064 1.378 . S
C1062 C1066 1.350 . S
C1063 C1066 1.463 . S
C1063 C1068 1.350 . S
C1063 N1071 1.427 . S
C1064 H1055 0.930 . S
C1064 C1062 1.378 . S
C1064 C1065 1.367 . S
C1065 C1064 1.367 . S
C1065 C1067 1.433 . S
C1066 C1062 1.350 . S
C1066 C1063 1.463 . S
C1066 N1070 1.427 . S
C1067 H1057 0.929 . S
C1067 C1065 1.433 . S
C1067 N1070 1.384 . S
C1068 H1059 0.929 . S
C1068 C1060 1.378 . S
C1068 C1063 1.350 . S
C1069 H1056 0.929 . S
C1069 C1061 1.433 . S
C1069 N1071 1.384 . S
N1070 C1066 1.427 . S
N1070 C1067 1.384 . S
N1071 C1063 1.427 . S
N1071 C1069 1.384 . S
C647 C391 2.257 1_565 S
C651 C489 2.356 1_545 S
C669 C529 2.381 . S
C665 C451 2.278 . S
C687 C569 2.383 . S
C683 C241 2.026 . S
C705 C609 2.364 1_455 S
C701 C331 2.001 1_455 S
C723 C498 2.359 1_565 S
C719 C121 1.986 1_545 S
C737 C211 2.281 . S
C741 C538 2.380 . S
C755 C31 2.291 . S
C759 C578 2.386 . S
C773 C91 1.984 . S
C777 C618 2.364 1_655 S
C795 C495 0.437 . S
C791 C301 0.577 1_455 S
C813 C535 0.416 . S
C809 C380 0.341 . S
C831 C575 0.391 . S
C827 C440 0.334 . S
C845 C260 0.561 . S
C849 C615 0.412 . S
C863 C61 0.450 . S
C867 C486 0.410 . S
C885 C526 0.418 . S
C881 C140 0.457 . S
C903 C566 0.397 . S
C899 C200 0.397 . S
C917 C20 0.396 . S
C921 C606 0.404 . S
C935 C320 3.029 1_455 S
C939 C499 3.236 . S
C953 C361 2.581 . S
C957 C539 3.201 . S
C975 C579 3.188 . S
C971 C421 2.556 . S
C993 C619 3.228 . S
C989 C271 3.009 . S
C1007 C80 3.017 . S
C1011 C490 3.251 . S
C1029 C530 3.206 . S
C1025 C151 2.976 . S
C1047 C570 3.184 . S
C1043 C181 2.583 . S
C1061 C1 2.633 . S
C1065 C610 3.233 . S
