# Generated by pormake.
# Topology sit, (3,6)-cn, num edge types: 1
# Building blocks:
#     Node 0, Type 0, BuildingBlock: ESEHIV_clean_linker_0, # of connection points: 3
#     Node 1, Type 0, BuildingBlock: ESEHIV_clean_linker_0, # of connection points: 3
#     Node 2, Type 0, BuildingBlock: ESEHIV_clean_linker_0, # of connection points: 3
#     Node 3, Type 0, BuildingBlock: ESEHIV_clean_linker_0, # of connection points: 3
#     Node 4, Type 1, BuildingBlock: MIDCAF_clean_sbu_0, # of connection points: 6
#     Node 5, Type 1, BuildingBlock: MIDCAF_clean_sbu_0, # of connection points: 6
#     Edge 6, Type (0, 1), BuildingBlock: XIVTED_clean_linker_0, # of connection points: 2
#     Edge 7, Type (0, 1), BuildingBlock: XIVTED_clean_linker_0, # of connection points: 2
#     Edge 8, Type (0, 1), BuildingBlock: XIVTED_clean_linker_0, # of connection points: 2
#     Edge 9, Type (0, 1), BuildingBlock: XIVTED_clean_linker_0, # of connection points: 2
#     Edge 10, Type (0, 1), BuildingBlock: XIVTED_clean_linker_0, # of connection points: 2
#     Edge 11, Type (0, 1), BuildingBlock: XIVTED_clean_linker_0, # of connection points: 2
#     Edge 12, Type (0, 1), BuildingBlock: XIVTED_clean_linker_0, # of connection points: 2
#     Edge 13, Type (0, 1), BuildingBlock: XIVTED_clean_linker_0, # of connection points: 2
#     Edge 14, Type (0, 1), BuildingBlock: XIVTED_clean_linker_0, # of connection points: 2
#     Edge 15, Type (0, 1), BuildingBlock: XIVTED_clean_linker_0, # of connection points: 2
#     Edge 16, Type (0, 1), BuildingBlock: XIVTED_clean_linker_0, # of connection points: 2
#     Edge 17, Type (0, 1), BuildingBlock: XIVTED_clean_linker_0, # of connection points: 2
# Relax obj value: 0.110
# Max RMSD: 0.193
# Mean RMSD: 0.106
data_MOF--net-sit--node1-MIDCAF_clean_sbu_0--node2-ESEHIV_clean_linker_0--edge1-XIVTED_clean_linker_0
_symmetry_space_group_name_H-M    P1
_symmetry_Int_Tables_number       1
_symmetry_cell_setting            triclinic
loop_
_symmetry_equiv_pos_as_xyz
'x, y, z'
_cell_length_a     23.779441
_cell_length_b     26.327619
_cell_length_c     34.303653
_cell_angle_alpha  90.034225
_cell_angle_beta   89.737641
_cell_angle_gamma 84.209384
loop_
_atom_site_label
_atom_site_type_symbol
_atom_site_fract_x
_atom_site_fract_y
_atom_site_fract_z
_atom_type_partial_charge
H0 H 0.09591 0.41881 0.95095 0.0
H1 H 0.18584 0.31915 0.03432 0.0
H2 H 0.00617 0.31763 0.01933 0.0
C3 C 0.09687 0.38836 0.97225 0.0
C4 C 0.04634 0.36862 -0.01798 0.0
C5 C 0.14756 0.37116 -0.00897 0.0
C6 C 0.1469 0.33326 0.01995 0.0
C7 C 0.09605 0.31339 0.03032 0.0
C8 C 0.04595 0.33148 0.0111 0.0
H9 H 0.07002 0.69624 0.97739 0.0
H10 H -0.05071 0.80323 0.03567 0.0
H11 H 0.12456 0.83113 0.02861 0.0
C12 C 0.06001 0.73137 -0.00641 0.0
C13 C 0.10327 0.76177 0.00223 0.0
C14 C 0.00394 0.74678 0.0044 0.0
C15 C -0.00776 0.79186 0.02637 0.0
C16 C 0.03557 0.82241 0.0361 0.0
C17 C 0.09081 0.80748 0.02282 0.0
H18 H 0.45195 0.95843 0.47502 0.0
H19 H 0.57266 0.85355 0.53437 0.0
H20 H 0.39878 0.8222 0.52536 0.0
C21 C 0.46214 0.92337 0.49119 0.0
C22 C 0.41938 0.8921 0.49933 0.0
C23 C 0.51798 0.90904 0.50269 0.0
C24 C 0.5299 0.86404 0.52456 0.0
C25 C 0.48712 0.83255 0.53365 0.0
C26 C 0.43213 0.84646 0.51987 0.0
H27 H 0.44064 0.20926 0.47614 0.0
H28 H 0.33534 0.31613 0.54706 0.0
H29 H 0.51274 0.33193 0.53244 0.0
C30 C 0.43508 0.24288 0.49454 0.0
C31 C 0.48159 0.26987 0.50162 0.0
C32 C 0.3816 0.25964 0.51 0.0
C33 C 0.37621 0.30257 0.53487 0.0
C34 C 0.42343 0.32893 0.54335 0.0
C35 C 0.4757 0.31263 0.52595 0.0
Zn36 Zn -0.04333 0.18055 0.35347 0.0
Zn37 Zn -0.05237 0.99185 0.33772 0.0
Zn38 Zn -0.04401 0.08628 0.34494 0.0
C39 C 0.94511 1.02889 0.26325 0.0
C40 C 0.85772 1.02573 0.38248 0.0
O41 O 0.02691 0.09949 0.38364 0.0
O42 O 0.00175 0.17903 0.40199 0.0
C43 C -0.00382 0.15879 0.27878 0.0
O44 O -0.03823 1.06697 0.28206 0.0
O45 O 0.92896 0.99137 0.28151 0.0
O46 O 0.88674 0.984 0.37549 0.0
O47 O 0.87437 1.06816 0.37051 0.0
O48 O -0.00243 0.19282 0.30457 0.0
O49 O -0.02444 0.11663 0.28688 0.0
O50 O 0.87509 0.12144 0.36992 0.0
O51 O 0.87554 0.20388 0.35777 0.0
C52 C 0.85023 0.16731 0.37029 0.0
O53 O 0.02657 1.04589 0.37714 0.0
O54 O 0.0253 0.96747 0.35434 0.0
C55 C 0.03438 0.13841 0.4051 0.0
C56 C 0.04862 0.99928 0.37469 0.0
Zn57 Zn 0.57567 0.66521 0.8383 0.0
Zn58 Zn 0.57193 0.47814 0.85005 0.0
Zn59 Zn 0.56867 0.57102 0.84353 0.0
C60 C 0.5246 0.50191 0.77817 0.0
C61 C 0.49576 0.51401 0.90397 0.0
O62 O 0.64916 0.58937 0.87023 0.0
O63 O 0.63448 0.6731 0.87749 0.0
C64 C 0.5793 0.63096 0.76314 0.0
O65 O 0.54765 0.54311 0.78522 0.0
O66 O 0.52431 0.46788 0.80401 0.0
O67 O 0.5328 0.47629 0.90137 0.0
O68 O 0.49911 0.55323 0.88197 0.0
O69 O 0.59591 0.66768 0.78209 0.0
O70 O 0.56228 0.59247 0.78127 0.0
O71 O 0.49732 0.60787 0.87711 0.0
O72 O 0.49677 0.68653 0.8547 0.0
C73 C 0.474 0.65402 0.87485 0.0
O74 O 0.65143 0.53688 0.86544 0.0
O75 O 0.65389 0.45604 0.84754 0.0
C76 C 0.66405 0.63155 0.88395 0.0
C77 C 0.67838 0.49214 0.86157 0.0
H78 H 0.03469 0.23046 0.03598 0.0
H79 H 0.09021 0.20494 0.26445 0.0
H80 H 0.15108 0.31412 0.10018 0.0
H81 H -0.04247 0.13483 0.20621 0.0
H82 H 0.12557 0.23076 0.20154 0.0
H83 H 0.01852 0.18139 0.09485 0.0
C84 C 0.05732 0.23815 0.06232 0.0
C85 C 0.09358 0.27715 0.0633 0.0
C86 C 0.08913 0.2092 0.20229 0.0
C87 C 0.07558 0.22086 0.13053 0.0
C88 C 0.06891 0.19451 0.2382 0.0
C89 C 0.02079 0.16799 0.24034 0.0
C90 C 0.0605 0.19805 0.16816 0.0
C91 C -0.00496 0.15492 0.20561 0.0
C92 C 0.04818 0.21 0.09583 0.0
C93 C 0.12284 0.2845 0.09792 0.0
N94 N 0.01481 0.17072 0.17079 0.0
N95 N 0.11266 0.25707 0.13022 0.0
H96 H 0.10557 0.86047 0.09012 0.0
H97 H 0.86855 1.00225 0.21063 0.0
H98 H 0.9387 0.89023 0.0404 0.0
H99 H 0.04001 1.0398 0.22109 0.0
H100 H 0.89085 0.96702 0.1457 0.0
H101 H 0.08292 0.93006 0.13564 0.0
C102 C 0.06452 0.8821 0.08802 0.0
C103 C 0.02382 0.86851 0.06136 0.0
C104 C 0.92314 0.9845 0.16159 0.0
C105 C -0.0029 0.94775 0.11484 0.0
C106 C 0.91036 1.00469 0.19852 0.0
C107 C -0.0474 1.02378 0.22093 0.0
C108 C -0.02097 0.98181 0.14782 0.0
C109 C 0.00633 1.02558 0.20443 0.0
C110 C 0.05161 0.92196 0.11428 0.0
C111 C -0.02904 0.89787 0.06111 0.0
N112 N 0.01852 1.00351 0.16917 0.0
N113 N -0.04129 0.93538 0.088 0.0
H114 H 0.41667 0.79358 0.58732 0.0
H115 H 0.65495 0.66114 0.71069 0.0
H116 H 0.58513 0.76653 0.53866 0.0
H117 H 0.48526 0.61858 0.72106 0.0
H118 H 0.63265 0.6949 0.64548 0.0
H119 H 0.44033 0.72572 0.63402 0.0
C120 C 0.45829 0.77286 0.5857 0.0
C121 C 0.49917 0.78683 0.55909 0.0
C122 C 0.6008 0.67671 0.66146 0.0
C123 C 0.52696 0.70972 0.61383 0.0
C124 C 0.61355 0.65745 0.69857 0.0
C125 C 0.57181 0.63716 0.72095 0.0
C126 C 0.54537 0.67727 0.64746 0.0
C127 C 0.5186 0.63367 0.7044 0.0
C128 C 0.47178 0.73402 0.61263 0.0
C129 C 0.5527 0.75863 0.55937 0.0
N130 N 0.50636 0.65479 0.66892 0.0
N131 N 0.56544 0.7222 0.58688 0.0
H132 H 0.47416 0.41834 0.54084 0.0
H133 H 0.42647 0.46061 0.76868 0.0
H134 H 0.36663 0.33445 0.61302 0.0
H135 H 0.55892 0.52313 0.70374 0.0
H136 H 0.38638 0.43321 0.70786 0.0
H137 H 0.48732 0.47501 0.59588 0.0
C138 C 0.45257 0.41231 0.56807 0.0
C139 C 0.42041 0.37069 0.57264 0.0
C140 C 0.4237 0.45359 0.70671 0.0
C141 C 0.43492 0.43568 0.63544 0.0
C142 C 0.44661 0.46918 0.74139 0.0
C143 C 0.4963 0.49362 0.74103 0.0
C144 C 0.45122 0.4617 0.67135 0.0
C145 C 0.52043 0.50447 0.70506 0.0
C146 C 0.46004 0.44477 0.59939 0.0
C147 C 0.39205 0.36573 0.60814 0.0
N148 N 0.49813 0.48763 0.67151 0.0
N149 N 0.40071 0.39731 0.63835 0.0
H150 H 0.18162 0.40193 0.91919 0.0
H151 H 0.4853 0.46367 0.97275 0.0
H152 H 0.23351 0.39419 0.03981 0.0
H153 H 0.38829 0.54533 0.88251 0.0
H154 H 0.39801 0.43344 -0.00164 0.0
H155 H 0.26284 0.44751 0.90387 0.0
C156 C 0.2098 0.41004 0.94259 0.0
C157 C 0.20003 0.39468 -0.01897 0.0
C158 C 0.3958 0.45903 0.97358 0.0
C159 C 0.29414 0.44596 0.96324 0.0
C160 C 0.44536 0.47637 0.95909 0.0
C161 C 0.44367 0.5071 0.92563 0.0
C162 C 0.34491 0.47137 0.95366 0.0
C163 C 0.3912 0.52206 0.90859 0.0
C164 C 0.25617 0.43613 0.93374 0.0
C165 C 0.23947 0.40484 0.00973 0.0
N166 N 0.34394 0.50322 0.92235 0.0
N167 N 0.28513 0.42964 0.0002 0.0
H168 H -0.00472 0.69916 0.93385 0.0
H169 H 0.67121 0.6715 0.95593 0.0
H170 H 0.90629 0.72746 0.04307 0.0
H171 H 0.7724 0.5969 0.86403 0.0
H172 H 0.75746 0.68788 -0.00975 0.0
H173 H 0.91616 0.65709 0.90944 0.0
C174 C -0.04038 0.69579 0.95308 0.0
C175 C -0.04243 0.71737 -0.00936 0.0
C176 C 0.761 0.66699 0.963 0.0
C177 C 0.86577 0.67022 0.96213 0.0
C178 C 0.71187 0.65771 0.94347 0.0
C179 C 0.71522 0.63282 0.90736 0.0
C180 C 0.81375 0.65251 0.94564 0.0
C181 C 0.76848 0.61598 0.89203 0.0
C182 C 0.91424 0.67185 0.93894 0.0
C183 C 0.90939 0.71255 0.01365 0.0
N184 N 0.8159 0.62684 0.91101 0.0
N185 N 0.86511 0.69008 -0.00117 0.0
H186 H 0.02554 0.37558 0.90412 0.0
H187 H 0.71844 0.52385 0.93035 0.0
H188 H -0.05179 0.40826 0.01651 0.0
H189 H 0.76661 0.43362 0.82842 0.0
H190 H 0.811 0.49744 0.95903 0.0
H191 H 0.93775 0.41114 0.8727 0.0
C192 C -0.01004 0.39032 0.92206 0.0
C193 C -0.00649 0.3888 0.96282 0.0
C194 C 0.80144 0.48384 0.93024 0.0
C195 C 0.89416 0.42994 0.9274 0.0
C196 C 0.74911 0.49933 0.91375 0.0
C197 C 0.73567 0.48128 0.87691 0.0
C198 C 0.8403 0.45018 0.90959 0.0
C199 C 0.77588 0.44844 0.85688 0.0
C200 C 0.94012 0.41047 0.90422 0.0
C201 C -0.0534 0.4083 -0.01503 0.0
N202 N 0.82665 0.43391 0.87348 0.0
N203 N 0.89876 0.42835 0.96694 0.0
H204 H 0.16619 0.66987 0.0111 0.0
H205 H 0.39736 0.73382 0.85655 0.0
H206 H 0.17058 0.81919 0.96019 0.0
H207 H 0.4306 0.61271 0.94048 0.0
H208 H 0.30942 0.76154 0.89057 0.0
H209 H 0.25915 0.64363 -0.0179 0.0
C210 C 0.18705 0.69712 -0.00599 0.0
C211 C 0.16105 0.74666 -0.01213 0.0
C212 C 0.33586 0.72878 0.90151 0.0
C213 C 0.26622 0.71699 0.95452 0.0
C214 C 0.38596 0.71284 0.88207 0.0
C215 C 0.42055 0.67006 0.89523 0.0
C216 C 0.32004 0.70161 0.93424 0.0
C217 C 0.40395 0.64454 0.92854 0.0
C218 C 0.23994 0.68225 0.97766 0.0
C219 C 0.18957 0.78076 0.96576 0.0
N220 N 0.35448 0.66047 0.94685 0.0
N221 N 0.24047 0.76511 0.9495 0.0
H222 H 0.61217 0.9309 0.54353 0.0
H223 H 0.75072 1.06154 0.36093 0.0
H224 H 0.52931 0.95659 0.43241 0.0
H225 H 0.84658 0.98491 0.45381 0.0
H226 H 0.66287 1.04562 0.395 0.0
H227 H 0.69248 0.97227 0.51843 0.0
C228 C 0.61061 0.94542 0.51399 0.0
C229 C 0.56413 0.93944 0.48991 0.0
C230 C 0.70319 1.03304 0.40816 0.0
C231 C 0.65533 0.98774 0.4614 0.0
C232 C 0.75301 1.04228 0.38886 0.0
C233 C 0.80532 1.02434 0.40481 0.0
C234 C 0.70626 1.00573 0.44344 0.0
C235 C 0.80669 0.99918 0.44077 0.0
C236 C 0.65627 0.96936 0.49982 0.0
C237 C 0.5639 0.96047 0.45222 0.0
N238 N 0.7578 0.99037 0.45887 0.0
N239 N 0.609 0.98329 0.43903 0.0
H240 H 0.36088 0.21741 0.43917 0.0
H241 H 0.04312 0.18256 0.47627 0.0
H242 H 0.28778 0.24191 0.55411 0.0
H243 H 0.14151 0.10096 0.38604 0.0
H244 H 0.1308 0.20292 0.50729 0.0
H245 H 0.28016 0.1742 0.42016 0.0
C246 C 0.32839 0.21305 0.46077 0.0
C247 C 0.33177 0.23314 0.49857 0.0
C248 C 0.13322 0.17942 0.48129 0.0
C249 C 0.23757 0.18477 0.47616 0.0
C250 C 0.08335 0.16777 0.46367 0.0
C251 C 0.08546 0.13993 0.42875 0.0
C252 C 0.1852 0.16425 0.46314 0.0
C253 C 0.13829 0.1221 0.41318 0.0
C254 C 0.28203 0.18839 0.44972 0.0
C255 C 0.28685 0.22771 0.52454 0.0
N256 N 0.18617 0.13529 0.43016 0.0
N257 N 0.24123 0.20449 0.51271 0.0
H258 H 0.35428 0.98242 0.51017 0.0
H259 H 0.12761 0.9227 0.353 0.0
H260 H 0.35447 0.83481 0.45556 0.0
H261 H 0.08811 1.03481 0.44329 0.0
H262 H 0.21577 0.89443 0.38631 0.0
H263 H 0.26092 1.00768 0.48202 0.0
C264 C 0.33435 0.95534 0.49242 0.0
C265 C 0.36168 0.90657 0.48502 0.0
C266 C 0.18787 0.92533 0.39879 0.0
C267 C 0.25611 0.93513 0.45265 0.0
C268 C 0.1377 0.94154 0.3798 0.0
C269 C 0.10153 0.9822 0.39492 0.0
C270 C 0.20202 0.95015 0.43301 0.0
C271 C 0.11619 1.0049 0.42987 0.0
C272 C 0.28123 0.96962 0.47657 0.0
C273 C 0.33439 0.87264 0.46205 0.0
N274 N 0.16577 0.98893 0.44765 0.0
N275 N 0.28322 0.88776 0.44628 0.0
H276 H 0.54447 0.32861 0.45757 0.0
H277 H 0.80746 0.12183 0.4335 0.0
H278 H 0.54146 0.17571 0.50205 0.0
H279 H 0.76786 0.2412 0.34914 0.0
H280 H 0.71542 0.14415 0.46469 0.0
H281 H 0.63359 0.30169 0.42394 0.0
C282 C 0.56295 0.28945 0.46037 0.0
C283 C 0.5361 0.25422 0.48249 0.0
C284 C 0.72661 0.16492 0.43901 0.0
C285 C 0.63728 0.22334 0.44441 0.0
C286 C 0.77859 0.15171 0.42091 0.0
C287 C 0.794 0.17842 0.38791 0.0
C288 C 0.69096 0.20632 0.42469 0.0
C289 C 0.75695 0.2192 0.37423 0.0
C290 C 0.61334 0.27405 0.44101 0.0
C291 C 0.56111 0.2038 0.48506 0.0
N292 N 0.7071 0.23212 0.39283 0.0
N293 N 0.61073 0.18982 0.46639 0.0
loop_
_geom_bond_atom_site_label_1
_geom_bond_atom_site_label_2
_geom_bond_distance
_geom_bond_site_symmetry_2
_ccdc_geom_bond_type
H0 C3 0.931 . S
H1 C6 0.928 . S
H2 C8 0.930 . S
C3 H0 0.931 . S
C3 C4 1.413 1_556 S
C3 C5 1.360 1_556 S
C4 C3 1.413 1_554 S
C4 C8 1.429 . S
C5 C3 1.360 1_554 S
C5 C6 1.372 . S
C6 H1 0.928 . S
C6 C5 1.372 . S
C6 C7 1.404 . S
C7 C6 1.404 . S
C7 C8 1.391 . S
C8 H2 0.930 . S
C8 C4 1.429 . S
C8 C7 1.391 . S
H9 C12 0.931 . S
H10 C15 0.928 . S
H11 C17 0.930 . S
C12 H9 0.931 . S
C12 C13 1.413 1_556 S
C12 C14 1.360 1_456 S
C13 C12 1.413 1_554 S
C13 C17 1.429 . S
C14 C12 1.360 1_654 S
C14 C15 1.372 . S
C15 H10 0.928 . S
C15 C14 1.372 . S
C15 C16 1.404 1_655 S
C16 C15 1.404 1_455 S
C16 C17 1.391 . S
C17 H11 0.930 . S
C17 C13 1.429 . S
C17 C16 1.391 . S
H18 C21 0.931 . S
H19 C24 0.928 . S
H20 C26 0.930 . S
C21 H18 0.931 . S
C21 C22 1.413 . S
C21 C23 1.360 . S
C22 C21 1.413 . S
C22 C26 1.429 . S
C23 C21 1.360 . S
C23 C24 1.372 . S
C24 H19 0.928 . S
C24 C23 1.372 . S
C24 C25 1.404 . S
C25 C24 1.404 . S
C25 C26 1.391 . S
C26 H20 0.930 . S
C26 C22 1.429 . S
C26 C25 1.391 . S
H27 C30 0.931 . S
H28 C33 0.928 . S
H29 C35 0.930 . S
C30 H27 0.931 . S
C30 C31 1.413 . S
C30 C32 1.360 . S
C31 C30 1.413 . S
C31 C35 1.429 . S
C32 C30 1.360 . S
C32 C33 1.372 . S
C33 H28 0.928 . S
C33 C32 1.372 . S
C33 C34 1.404 . S
C34 C33 1.404 . S
C34 C35 1.391 . S
C35 H29 0.930 . S
C35 C31 1.429 . S
C35 C34 1.391 . S
Zn36 O42 1.920 . S
Zn36 O48 1.898 . S
Zn36 O51 1.905 1_455 S
Zn37 O45 1.905 . S
Zn37 O46 1.898 . S
Zn37 O54 1.920 . S
Zn38 O41 2.080 . S
Zn38 O44 2.114 1_545 S
Zn38 O47 2.120 1_545 S
Zn38 O49 2.120 . S
Zn38 O50 2.114 1_455 S
Zn38 O53 2.080 1_545 S
C39 O44 1.166 . S
C39 O45 1.182 . S
C40 O46 1.169 . S
C40 O47 1.311 . S
O41 Zn38 2.080 . S
O41 C55 1.305 . S
O42 Zn36 1.920 . S
O42 C55 1.234 . S
C43 O48 1.167 . S
C43 O49 1.299 . S
O44 Zn38 2.114 1_565 S
O44 C39 1.166 . S
O45 Zn37 1.905 . S
O45 C39 1.182 . S
O46 Zn37 1.898 . S
O46 C40 1.169 . S
O47 Zn38 2.120 1_565 S
O47 C40 1.311 . S
O48 Zn36 1.898 . S
O48 C43 1.167 . S
O49 Zn38 2.120 . S
O49 C43 1.299 . S
O50 Zn38 2.114 1_655 S
O50 C52 1.166 . S
O51 Zn36 1.905 1_655 S
O51 C52 1.182 . S
C52 O50 1.166 . S
C52 O51 1.182 . S
O53 Zn38 2.080 1_565 S
O53 C56 1.305 . S
O54 Zn37 1.920 . S
O54 C56 1.234 . S
C55 O41 1.305 . S
C55 O42 1.234 . S
C56 O53 1.305 . S
C56 O54 1.234 . S
Zn57 O63 1.920 . S
Zn57 O69 1.898 . S
Zn57 O72 1.905 . S
Zn58 O66 1.905 . S
Zn58 O67 1.898 . S
Zn58 O75 1.920 . S
Zn59 O62 2.080 . S
Zn59 O65 2.114 . S
Zn59 O68 2.120 . S
Zn59 O70 2.120 . S
Zn59 O71 2.114 . S
Zn59 O74 2.080 . S
C60 O65 1.166 . S
C60 O66 1.182 . S
C61 O67 1.167 . S
C61 O68 1.299 . S
O62 Zn59 2.080 . S
O62 C76 1.305 . S
O63 Zn57 1.920 . S
O63 C76 1.234 . S
C64 O69 1.167 . S
C64 O70 1.299 . S
O65 Zn59 2.114 . S
O65 C60 1.166 . S
O66 Zn58 1.905 . S
O66 C60 1.182 . S
O67 Zn58 1.898 . S
O67 C61 1.167 . S
O68 Zn59 2.120 . S
O68 C61 1.299 . S
O69 Zn57 1.898 . S
O69 C64 1.167 . S
O70 Zn59 2.120 . S
O70 C64 1.299 . S
O71 Zn59 2.114 . S
O71 C73 1.166 . S
O72 Zn57 1.905 . S
O72 C73 1.182 . S
C73 O71 1.166 . S
C73 O72 1.182 . S
O74 Zn59 2.080 . S
O74 C77 1.305 . S
O75 Zn58 1.920 . S
O75 C77 1.234 . S
C76 O62 1.305 . S
C76 O63 1.234 . S
C77 O74 1.305 . S
C77 O75 1.234 . S
H78 C84 0.930 . S
H79 C88 0.930 . S
H80 C93 0.929 . S
H81 C91 0.929 . S
H82 C86 0.929 . S
H83 C92 0.929 . S
C84 H78 0.930 . S
C84 C85 1.367 . S
C84 C92 1.378 . S
C85 C84 1.367 . S
C85 C93 1.433 . S
C86 H82 0.929 . S
C86 C88 1.378 . S
C86 C90 1.350 . S
C87 C90 1.463 . S
C87 C92 1.350 . S
C87 N95 1.427 . S
C88 H79 0.930 . S
C88 C86 1.378 . S
C88 C89 1.367 . S
C89 C88 1.367 . S
C89 C91 1.433 . S
C90 C86 1.350 . S
C90 C87 1.463 . S
C90 N94 1.427 . S
C91 H81 0.929 . S
C91 C89 1.433 . S
C91 N94 1.384 . S
C92 H83 0.929 . S
C92 C84 1.378 . S
C92 C87 1.350 . S
C93 H80 0.929 . S
C93 C85 1.433 . S
C93 N95 1.384 . S
N94 C90 1.427 . S
N94 C91 1.384 . S
N95 C87 1.427 . S
N95 C93 1.384 . S
H96 C102 0.930 . S
H97 C106 0.930 . S
H98 C111 0.929 . S
H99 C109 0.929 . S
H100 C104 0.929 . S
H101 C110 0.929 . S
C102 H96 0.930 . S
C102 C103 1.367 . S
C102 C110 1.378 . S
C103 C102 1.367 . S
C103 C111 1.433 1_455 S
C104 H100 0.929 . S
C104 C106 1.378 . S
C104 C108 1.350 1_655 S
C105 C108 1.463 . S
C105 C110 1.350 . S
C105 N113 1.427 1_455 S
C106 H97 0.930 . S
C106 C104 1.378 . S
C106 C107 1.367 1_655 S
C107 C106 1.367 1_455 S
C107 C109 1.433 . S
C108 C104 1.350 1_455 S
C108 C105 1.463 . S
C108 N112 1.427 . S
C109 H99 0.929 . S
C109 C107 1.433 . S
C109 N112 1.384 . S
C110 H101 0.929 . S
C110 C102 1.378 . S
C110 C105 1.350 . S
C111 H98 0.929 . S
C111 C103 1.433 1_655 S
C111 N113 1.384 . S
N112 C108 1.427 . S
N112 C109 1.384 . S
N113 C105 1.427 1_655 S
N113 C111 1.384 . S
H114 C120 0.930 . S
H115 C124 0.930 . S
H116 C129 0.929 . S
H117 C127 0.929 . S
H118 C122 0.929 . S
H119 C128 0.929 . S
C120 H114 0.930 . S
C120 C121 1.367 . S
C120 C128 1.378 . S
C121 C120 1.367 . S
C121 C129 1.433 . S
C122 H118 0.929 . S
C122 C124 1.378 . S
C122 C126 1.350 . S
C123 C126 1.463 . S
C123 C128 1.350 . S
C123 N131 1.427 . S
C124 H115 0.930 . S
C124 C122 1.378 . S
C124 C125 1.367 . S
C125 C124 1.367 . S
C125 C127 1.433 . S
C126 C122 1.350 . S
C126 C123 1.463 . S
C126 N130 1.427 . S
C127 H117 0.929 . S
C127 C125 1.433 . S
C127 N130 1.384 . S
C128 H119 0.929 . S
C128 C120 1.378 . S
C128 C123 1.350 . S
C129 H116 0.929 . S
C129 C121 1.433 . S
C129 N131 1.384 . S
N130 C126 1.427 . S
N130 C127 1.384 . S
N131 C123 1.427 . S
N131 C129 1.384 . S
H132 C138 0.930 . S
H133 C142 0.930 . S
H134 C147 0.929 . S
H135 C145 0.929 . S
H136 C140 0.929 . S
H137 C146 0.929 . S
C138 H132 0.930 . S
C138 C139 1.367 . S
C138 C146 1.378 . S
C139 C138 1.367 . S
C139 C147 1.433 . S
C140 H136 0.929 . S
C140 C142 1.378 . S
C140 C144 1.350 . S
C141 C144 1.463 . S
C141 C146 1.350 . S
C141 N149 1.427 . S
C142 H133 0.930 . S
C142 C140 1.378 . S
C142 C143 1.367 . S
C143 C142 1.367 . S
C143 C145 1.433 . S
C144 C140 1.350 . S
C144 C141 1.463 . S
C144 N148 1.427 . S
C145 H135 0.929 . S
C145 C143 1.433 . S
C145 N148 1.384 . S
C146 H137 0.929 . S
C146 C138 1.378 . S
C146 C141 1.350 . S
C147 H134 0.929 . S
C147 C139 1.433 . S
C147 N149 1.384 . S
N148 C144 1.427 . S
N148 C145 1.384 . S
N149 C141 1.427 . S
N149 C147 1.384 . S
H150 C156 0.930 . S
H151 C160 0.938 . S
H152 C165 0.929 . S
H153 C163 0.929 . S
H154 C158 0.929 1_554 S
H155 C164 0.929 . S
C156 H150 0.930 . S
C156 C157 1.367 . S
C156 C164 1.378 . S
C157 C156 1.367 . S
C157 C165 1.433 1_556 S
C158 H154 0.929 1_556 S
C158 C160 1.378 . S
C158 C162 1.350 . S
C159 C162 1.463 . S
C159 C164 1.350 . S
C159 N167 1.427 1_556 S
C160 H151 0.938 . S
C160 C158 1.378 . S
C160 C161 1.367 . S
C161 C160 1.367 . S
C161 C163 1.433 . S
C162 C158 1.350 . S
C162 C159 1.463 . S
C162 N166 1.427 . S
C163 H153 0.929 . S
C163 C161 1.433 . S
C163 N166 1.384 . S
C164 H155 0.929 . S
C164 C156 1.378 . S
C164 C159 1.350 . S
C165 H152 0.929 . S
C165 C157 1.433 1_554 S
C165 N167 1.384 . S
N166 C162 1.427 . S
N166 C163 1.384 . S
N167 C159 1.427 1_554 S
N167 C165 1.384 . S
H168 C174 0.930 . S
H169 C178 0.930 1_554 S
H170 C183 0.929 . S
H171 C181 0.929 . S
H172 C176 0.929 1_554 S
H173 C182 0.929 . S
C174 H168 0.930 . S
C174 C175 1.367 . S
C174 C182 1.378 . S
C175 C174 1.367 . S
C175 C183 1.433 1_556 S
C176 H172 0.929 1_556 S
C176 C178 1.378 . S
C176 C180 1.350 . S
C177 C180 1.463 . S
C177 C182 1.350 . S
C177 N185 1.427 1_556 S
C178 H169 0.930 1_556 S
C178 C176 1.378 . S
C178 C179 1.367 . S
C179 C178 1.367 . S
C179 C181 1.433 . S
C180 C176 1.350 . S
C180 C177 1.463 . S
C180 N184 1.427 . S
C181 H171 0.929 . S
C181 C179 1.433 . S
C181 N184 1.384 . S
C182 H173 0.929 . S
C182 C174 1.378 . S
C182 C177 1.350 . S
C183 H170 0.929 . S
C183 C175 1.433 1_554 S
C183 N185 1.384 . S
N184 C180 1.427 . S
N184 C181 1.384 . S
N185 C177 1.427 1_554 S
N185 C183 1.384 . S
H186 C192 0.930 . S
H187 C196 0.930 . S
H188 C201 0.929 . S
H189 C199 0.929 . S
H190 C194 0.929 . S
H191 C200 0.929 . S
C192 H186 0.930 . S
C192 C193 1.367 . S
C192 C200 1.378 1_455 S
C193 C192 1.367 . S
C193 C201 1.433 1_456 S
C194 H190 0.929 . S
C194 C196 1.378 . S
C194 C198 1.350 . S
C195 C198 1.463 . S
C195 C200 1.350 . S
C195 N203 1.427 . S
C196 H187 0.930 . S
C196 C194 1.378 . S
C196 C197 1.367 . S
C197 C196 1.367 . S
C197 C199 1.433 . S
C198 C194 1.350 . S
C198 C195 1.463 . S
C198 N202 1.427 . S
C199 H189 0.929 . S
C199 C197 1.433 . S
C199 N202 1.384 . S
C200 H191 0.929 . S
C200 C192 1.378 1_655 S
C200 C195 1.350 . S
C201 H188 0.929 . S
C201 C193 1.433 1_654 S
C201 N203 1.384 1_554 S
N202 C198 1.427 . S
N202 C199 1.384 . S
N203 C195 1.427 . S
N203 C201 1.384 1_556 S
H204 C210 0.930 . S
H205 C214 0.930 . S
H206 C219 0.929 . S
H207 C217 0.929 . S
H208 C212 0.929 . S
H209 C218 0.929 . S
C210 H204 0.930 . S
C210 C211 1.367 1_554 S
C210 C218 1.378 1_554 S
C211 C210 1.367 1_556 S
C211 C219 1.433 . S
C212 H208 0.929 . S
C212 C214 1.378 . S
C212 C216 1.350 . S
C213 C216 1.463 . S
C213 C218 1.350 . S
C213 N221 1.427 . S
C214 H205 0.930 . S
C214 C212 1.378 . S
C214 C215 1.367 . S
C215 C214 1.367 . S
C215 C217 1.433 . S
C216 C212 1.350 . S
C216 C213 1.463 . S
C216 N220 1.427 . S
C217 H207 0.929 . S
C217 C215 1.433 . S
C217 N220 1.384 . S
C218 H209 0.929 . S
C218 C210 1.378 1_556 S
C218 C213 1.350 . S
C219 H206 0.929 . S
C219 C211 1.433 . S
C219 N221 1.384 . S
N220 C216 1.427 . S
N220 C217 1.384 . S
N221 C213 1.427 . S
N221 C219 1.384 . S
H222 C228 0.930 . S
H223 C232 0.930 . S
H224 C237 0.929 . S
H225 C235 0.929 . S
H226 C230 0.929 . S
H227 C236 0.929 . S
C228 H222 0.930 . S
C228 C229 1.367 . S
C228 C236 1.378 . S
C229 C228 1.367 . S
C229 C237 1.433 . S
C230 H226 0.929 . S
C230 C232 1.378 . S
C230 C234 1.350 . S
C231 C234 1.463 . S
C231 C236 1.350 . S
C231 N239 1.427 . S
C232 H223 0.930 . S
C232 C230 1.378 . S
C232 C233 1.367 . S
C233 C232 1.367 . S
C233 C235 1.433 . S
C234 C230 1.350 . S
C234 C231 1.463 . S
C234 N238 1.427 . S
C235 H225 0.929 . S
C235 C233 1.433 . S
C235 N238 1.384 . S
C236 H227 0.929 . S
C236 C228 1.378 . S
C236 C231 1.350 . S
C237 H224 0.929 . S
C237 C229 1.433 . S
C237 N239 1.384 . S
N238 C234 1.427 . S
N238 C235 1.384 . S
N239 C231 1.427 . S
N239 C237 1.384 . S
H240 C246 0.930 . S
H241 C250 0.930 . S
H242 C255 0.929 . S
H243 C253 0.929 . S
H244 C248 0.929 . S
H245 C254 0.929 . S
C246 H240 0.930 . S
C246 C247 1.367 . S
C246 C254 1.378 . S
C247 C246 1.367 . S
C247 C255 1.433 . S
C248 H244 0.929 . S
C248 C250 1.378 . S
C248 C252 1.350 . S
C249 C252 1.463 . S
C249 C254 1.350 . S
C249 N257 1.427 . S
C250 H241 0.930 . S
C250 C248 1.378 . S
C250 C251 1.367 . S
C251 C250 1.367 . S
C251 C253 1.433 . S
C252 C248 1.350 . S
C252 C249 1.463 . S
C252 N256 1.427 . S
C253 H243 0.929 . S
C253 C251 1.433 . S
C253 N256 1.384 . S
C254 H245 0.929 . S
C254 C246 1.378 . S
C254 C249 1.350 . S
C255 H242 0.929 . S
C255 C247 1.433 . S
C255 N257 1.384 . S
N256 C252 1.427 . S
N256 C253 1.384 . S
N257 C249 1.427 . S
N257 C255 1.384 . S
H258 C264 0.930 . S
H259 C268 0.930 . S
H260 C273 0.929 . S
H261 C271 0.929 . S
H262 C266 0.929 . S
H263 C272 0.929 . S
C264 H258 0.930 . S
C264 C265 1.367 . S
C264 C272 1.378 . S
C265 C264 1.367 . S
C265 C273 1.433 . S
C266 H262 0.929 . S
C266 C268 1.378 . S
C266 C270 1.350 . S
C267 C270 1.463 . S
C267 C272 1.350 . S
C267 N275 1.427 . S
C268 H259 0.930 . S
C268 C266 1.378 . S
C268 C269 1.367 . S
C269 C268 1.367 . S
C269 C271 1.433 . S
C270 C266 1.350 . S
C270 C267 1.463 . S
C270 N274 1.427 . S
C271 H261 0.929 . S
C271 C269 1.433 . S
C271 N274 1.384 . S
C272 H263 0.929 . S
C272 C264 1.378 . S
C272 C267 1.350 . S
C273 H260 0.929 . S
C273 C265 1.433 . S
C273 N275 1.384 . S
N274 C270 1.427 . S
N274 C271 1.384 . S
N275 C267 1.427 . S
N275 C273 1.384 . S
H276 C282 0.930 . S
H277 C286 0.930 . S
H278 C291 0.929 . S
H279 C289 0.929 . S
H280 C284 0.929 . S
H281 C290 0.929 . S
C282 H276 0.930 . S
C282 C283 1.367 . S
C282 C290 1.378 . S
C283 C282 1.367 . S
C283 C291 1.433 . S
C284 H280 0.929 . S
C284 C286 1.378 . S
C284 C288 1.350 . S
C285 C288 1.463 . S
C285 C290 1.350 . S
C285 N293 1.427 . S
C286 H277 0.930 . S
C286 C284 1.378 . S
C286 C287 1.367 . S
C287 C286 1.367 . S
C287 C289 1.433 . S
C288 C284 1.350 . S
C288 C285 1.463 . S
C288 N292 1.427 . S
C289 H279 0.929 . S
C289 C287 1.433 . S
C289 N292 1.384 . S
C290 H281 0.929 . S
C290 C282 1.378 . S
C290 C285 1.350 . S
C291 H278 0.929 . S
C291 C283 1.433 . S
C291 N293 1.384 . S
N292 C288 1.427 . S
N292 C289 1.384 . S
N293 C285 1.427 . S
N293 C291 1.384 . S
C89 C43 1.362 . S
C85 C7 1.491 . S
C107 C39 1.387 . S
C103 C16 1.486 . S
C125 C64 1.382 . S
C121 C25 1.487 . S
C139 C34 1.490 . S
C143 C60 1.369 . S
C157 C5 1.245 1_556 S
C161 C61 1.126 . S
C179 C76 1.138 . S
C175 C14 1.262 1_556 S
C193 C4 1.640 1_556 S
C197 C77 1.518 . S
C215 C73 1.531 . S
C211 C13 1.652 1_556 S
C233 C40 1.082 1_655 S
C229 C23 1.238 . S
C247 C32 1.263 . S
C251 C55 1.141 . S
C269 C56 1.509 . S
C265 C22 1.638 . S
C287 C52 1.545 . S
C283 C31 1.655 . S
