# Generated by pormake.
# Topology zzz, (3,6)-cn, num edge types: 1
# Building blocks:
#     Node 0, Type 0, BuildingBlock: VETTIZ_charged_linker_0, # of connection points: 3
#     Node 1, Type 0, BuildingBlock: VETTIZ_charged_linker_0, # of connection points: 3
#     Node 2, Type 0, BuildingBlock: VETTIZ_charged_linker_0, # of connection points: 3
#     Node 3, Type 0, BuildingBlock: VETTIZ_charged_linker_0, # of connection points: 3
#     Node 4, Type 0, BuildingBlock: VETTIZ_charged_linker_0, # of connection points: 3
#     Node 5, Type 0, BuildingBlock: VETTIZ_charged_linker_0, # of connection points: 3
#     Node 6, Type 0, BuildingBlock: VETTIZ_charged_linker_0, # of connection points: 3
#     Node 7, Type 0, BuildingBlock: VETTIZ_charged_linker_0, # of connection points: 3
#     Node 8, Type 1, BuildingBlock: KUMBUR_clean_sbu_1, # of connection points: 6
#     Node 9, Type 1, BuildingBlock: KUMBUR_clean_sbu_1, # of connection points: 6
#     Node 10, Type 1, BuildingBlock: KUMBUR_clean_sbu_1, # of connection points: 6
#     Node 11, Type 1, BuildingBlock: KUMBUR_clean_sbu_1, # of connection points: 6
#     Edge 12, Type (0, 1), BuildingBlock: UVAHIK_clean_linker_0, # of connection points: 2
#     Edge 13, Type (0, 1), BuildingBlock: UVAHIK_clean_linker_0, # of connection points: 2
#     Edge 14, Type (0, 1), BuildingBlock: UVAHIK_clean_linker_0, # of connection points: 2
#     Edge 15, Type (0, 1), BuildingBlock: UVAHIK_clean_linker_0, # of connection points: 2
#     Edge 16, Type (0, 1), BuildingBlock: UVAHIK_clean_linker_0, # of connection points: 2
#     Edge 17, Type (0, 1), BuildingBlock: UVAHIK_clean_linker_0, # of connection points: 2
#     Edge 18, Type (0, 1), BuildingBlock: UVAHIK_clean_linker_0, # of connection points: 2
#     Edge 19, Type (0, 1), BuildingBlock: UVAHIK_clean_linker_0, # of connection points: 2
#     Edge 20, Type (0, 1), BuildingBlock: UVAHIK_clean_linker_0, # of connection points: 2
#     Edge 21, Type (0, 1), BuildingBlock: UVAHIK_clean_linker_0, # of connection points: 2
#     Edge 22, Type (0, 1), BuildingBlock: UVAHIK_clean_linker_0, # of connection points: 2
#     Edge 23, Type (0, 1), BuildingBlock: UVAHIK_clean_linker_0, # of connection points: 2
#     Edge 24, Type (0, 1), BuildingBlock: UVAHIK_clean_linker_0, # of connection points: 2
#     Edge 25, Type (0, 1), BuildingBlock: UVAHIK_clean_linker_0, # of connection points: 2
#     Edge 26, Type (0, 1), BuildingBlock: UVAHIK_clean_linker_0, # of connection points: 2
#     Edge 27, Type (0, 1), BuildingBlock: UVAHIK_clean_linker_0, # of connection points: 2
#     Edge 28, Type (0, 1), BuildingBlock: UVAHIK_clean_linker_0, # of connection points: 2
#     Edge 29, Type (0, 1), BuildingBlock: UVAHIK_clean_linker_0, # of connection points: 2
#     Edge 30, Type (0, 1), BuildingBlock: UVAHIK_clean_linker_0, # of connection points: 2
#     Edge 31, Type (0, 1), BuildingBlock: UVAHIK_clean_linker_0, # of connection points: 2
#     Edge 32, Type (0, 1), BuildingBlock: UVAHIK_clean_linker_0, # of connection points: 2
#     Edge 33, Type (0, 1), BuildingBlock: UVAHIK_clean_linker_0, # of connection points: 2
#     Edge 34, Type (0, 1), BuildingBlock: UVAHIK_clean_linker_0, # of connection points: 2
#     Edge 35, Type (0, 1), BuildingBlock: UVAHIK_clean_linker_0, # of connection points: 2
# Relax obj value: 0.294
# Max RMSD: 0.213
# Mean RMSD: 0.183
data_MOF--net-zzz--node1-KUMBUR_clean_sbu_1--node2-VETTIZ_charged_linker_0--edge1-UVAHIK_clean_linker_0
_symmetry_space_group_name_H-M    P1
_symmetry_Int_Tables_number       1
_symmetry_cell_setting            triclinic
loop_
_symmetry_equiv_pos_as_xyz
'x, y, z'
_cell_length_a     69.89808
_cell_length_b     69.998717
_cell_length_c     25.940377
_cell_angle_alpha  90.099094
_cell_angle_beta   89.8705
_cell_angle_gamma 90.350514
loop_
_atom_site_label
_atom_site_type_symbol
_atom_site_fract_x
_atom_site_fract_y
_atom_site_fract_z
_atom_type_partial_charge
C0 C 0.80312 0.54201 0.22896 0.0
C1 C 0.81985 0.55139 0.24793 0.0
C2 C 0.82572 0.56856 0.22417 0.0
C3 C 0.8011 0.56527 0.15991 0.0
C4 C 0.79354 0.5497 0.18537 0.0
C5 C 0.77397 0.54451 0.16278 0.0
H6 H 0.70533 0.56975 0.98299 0.0
C7 C 0.78858 0.57053 0.11747 0.0
C8 C 0.77169 0.55962 0.12013 0.0
H9 H 0.70145 0.52177 0.08655 0.0
H10 H 0.73282 0.5302 0.12279 0.0
H11 H 0.72577 0.60085 0.06159 0.0
H12 H 0.73713 0.56454 0.93947 0.0
H13 H 0.76106 0.57182 0.94859 0.0
H14 H 0.74296 0.58884 0.93019 0.0
H15 H 0.72102 0.60295 0.99373 0.0
H16 H 0.74282 0.61223 0.02146 0.0
C17 C 0.75864 0.54658 0.20512 0.0
C18 C 0.77493 0.52415 0.14042 0.0
C19 C 0.81624 0.59899 0.95466 0.0
C20 C 0.80751 0.60695 0.91068 0.0
C21 C 0.7881 0.61226 0.91377 0.0
C22 C 0.77714 0.60768 0.95732 0.0
C23 C 0.78556 0.59738 0.99751 0.0
C24 C 0.80503 0.59468 0.99803 0.0
C25 C 0.81166 0.58632 0.04836 0.0
C26 C 0.79236 0.58269 0.07514 0.0
C27 C 0.77728 0.58772 0.0427 0.0
C28 C 0.82461 0.60125 0.07531 0.0
C29 C 0.82241 0.56746 0.03861 0.0
C30 C 0.71091 0.5612 0.01426 0.0
C31 C 0.70062 0.54537 0.0325 0.0
C32 C 0.70898 0.5342 0.07192 0.0
C33 C 0.72713 0.53911 0.09296 0.0
C34 C 0.73723 0.55508 0.07357 0.0
C35 C 0.72904 0.56546 0.03397 0.0
C36 C 0.74196 0.5807 0.01313 0.0
C37 C 0.75933 0.57825 0.04735 0.0
C38 C 0.75661 0.56351 0.08399 0.0
C39 C 0.73241 0.60028 0.02259 0.0
C40 C 0.74607 0.57638 0.95509 0.0
H41 H 0.81944 0.58993 0.16882 0.0
H42 H 0.79745 0.52951 0.24832 0.0
H43 H 0.78741 0.5228 0.114 0.0
H44 H 0.76207 0.52044 0.11786 0.0
H45 H 0.77652 0.51348 0.17176 0.0
H46 H 0.75979 0.56084 0.22385 0.0
H47 H 0.76047 0.53549 0.23528 0.0
H48 H 0.744 0.54532 0.18963 0.0
H49 H 0.83122 0.59519 0.95451 0.0
H50 H 0.78121 0.61933 0.88176 0.0
H51 H 0.76244 0.61194 0.958 0.0
H52 H 0.83303 0.60977 0.04703 0.0
H53 H 0.83555 0.59434 0.09975 0.0
H54 H 0.816 0.61144 0.09852 0.0
H55 H 0.81328 0.5572 0.01685 0.0
H56 H 0.82651 0.56069 0.0756 0.0
H57 H 0.83574 0.57004 0.01623 0.0
H58 H 0.83777 0.57666 0.23905 0.0
C59 C 0.81604 0.57577 0.18158 0.0
C60 C 0.92056 0.78767 0.94972 0.0
C61 C 0.9202 0.80756 0.94178 0.0
C62 C 0.92366 0.81964 0.98449 0.0
C63 C 0.93278 0.79244 0.03624 0.0
C64 C 0.92762 0.78047 0.99628 0.0
C65 C 0.93324 0.7601 1.0062 0.0
H66 H 0.99635 0.70047 0.10792 0.0
C67 C 0.94327 0.78103 0.07479 0.0
C68 C 0.94374 0.76212 0.05753 0.0
H69 H 0.95035 0.68874 1.00076 0.0
H70 H 0.93659 0.71924 0.01926 0.0
H71 H 1.0043 0.74807 0.09299 0.0
H72 H 0.96117 0.7224 0.19294 0.0
H73 H 0.97556 0.73997 0.22346 0.0
H74 H 0.98621 0.7179 0.20291 0.0
H75 H 0.01088 0.73127 0.1423 0.0
H76 H 1.00522 0.75548 0.1589 0.0
C77 C 0.94673 0.75379 0.96179 0.0
C78 C 0.91469 0.74788 0.01095 0.0
C79 C 0.97125 0.81589 0.22712 0.0
C80 C 0.98272 0.811 0.26929 0.0
C81 C 0.99059 0.79238 0.27029 0.0
C82 C 0.98629 0.77883 0.23095 0.0
C83 C 0.97396 0.78392 0.19023 0.0
C84 C 0.96695 0.80237 0.18916 0.0
C85 C 0.95462 0.80615 0.14345 0.0
C86 C 0.95387 0.78658 0.11891 0.0
C87 C 0.96551 0.77336 0.14518 0.0
C88 C 0.96516 0.82104 0.1089 0.0
C89 C 0.93461 0.81246 0.1629 0.0
C90 C 0.98348 0.70474 0.08805 0.0
C91 C 0.97482 0.69243 0.05105 0.0
C92 C 0.9575 0.69799 0.0283 0.0
C93 C 0.94961 0.7158 0.03851 0.0
C94 C 0.95921 0.7286 0.07102 0.0
C95 C 0.97495 0.72273 0.09861 0.0
C96 C 0.9802 0.73763 0.13933 0.0
C97 C 0.96665 0.7541 0.12598 0.0
C98 C 0.95493 0.74853 0.08436 0.0
C99 C 1.00135 0.74346 0.13325 0.0
C100 C 0.97566 0.72909 0.19274 0.0
H101 H 0.93268 0.82221 0.06182 0.0
H102 H 0.91715 0.77789 0.9187 0.0
H103 H 0.90159 0.75679 0.01356 0.0
H104 H 0.91461 0.73912 0.04659 0.0
H105 H 0.91282 0.73831 0.97711 0.0
H106 H 0.95833 0.76453 0.956 0.0
H107 H 0.93876 0.75233 0.925 0.0
H108 H 0.95386 0.74008 0.96857 0.0
H109 H 0.96558 0.83019 0.22339 0.0
H110 H 0.99974 0.78818 0.30186 0.0
H111 H 0.99268 0.76496 0.23341 0.0
H112 H 0.98078 0.82169 0.11706 0.0
H113 H 0.95944 0.83564 0.11495 0.0
H114 H 0.96436 0.81742 0.06739 0.0
H115 H 0.93022 0.80403 0.19732 0.0
H116 H 0.92316 0.81003 0.13432 0.0
H117 H 0.93467 0.82779 0.17404 0.0
H118 H 0.92343 0.83502 0.98066 0.0
C119 C 0.92962 0.81216 0.03172 0.0
C120 C 0.81416 0.98813 0.06614 0.0
C121 C 0.82359 0.98184 0.02069 0.0
C122 C 0.81399 0.96921 0.98742 0.0
C123 C 0.7865 0.96842 0.04415 0.0
C124 C 0.7955 0.98104 0.07737 0.0
C125 C 0.78279 0.9853 0.12385 0.0
H126 H 0.6988 0.96236 0.25139 0.0
C127 C 0.76789 0.96277 0.06636 0.0
C128 C 0.76546 0.97223 0.11397 0.0
H129 H 0.7388 1.00625 0.29785 0.0
H130 H 0.75922 0.99858 0.22367 0.0
H131 H 0.69672 0.97412 0.144 0.0
H132 H 0.72955 0.93065 0.21716 0.0
H133 H 0.72168 0.92059 0.15881 0.0
H134 H 0.70433 0.92879 0.20546 0.0
H135 H 0.68695 0.95086 0.15625 0.0
H136 H 0.69876 0.95662 0.09632 0.0
C137 C 0.77727 1.00657 0.12214 0.0
C138 C 0.79343 0.97982 0.17355 0.0
C139 C 0.72262 0.92177 0.95973 0.0
C140 C 0.70402 0.91487 0.96975 0.0
C141 C 0.69722 0.91498 0.02101 0.0
C142 C 0.70781 0.92364 0.06032 0.0
C143 C 0.72535 0.93246 0.04846 0.0
C144 C 0.73299 0.93051 0.99967 0.0
C145 C 0.75217 0.94022 0.99507 0.0
C146 C 0.7538 0.94982 0.04771 0.0
C147 C 0.73796 0.94537 0.0783 0.0
C148 C 0.75105 0.95508 0.95088 0.0
C149 C 0.76747 0.92446 0.98715 0.0
C150 C 0.71213 0.97017 0.24666 0.0
C151 C 0.71725 0.98466 0.28133 0.0
C152 C 0.73445 0.99491 0.27186 0.0
C153 C 0.74627 0.99047 0.22881 0.0
C154 C 0.74066 0.97588 0.19425 0.0
C155 C 0.72369 0.96621 0.20401 0.0
C156 C 0.71857 0.95223 0.16276 0.0
C157 C 0.73522 0.95474 0.12617 0.0
C158 C 0.74858 0.9684 0.14428 0.0
C159 C 0.69925 0.95857 0.13857 0.0
C160 C 0.71834 0.93197 0.187 0.0
H161 H 0.78936 0.95306 0.97123 0.0
H162 H 0.82122 0.99791 0.09238 0.0
H163 H 0.79881 0.96493 0.17077 0.0
H164 H 0.78406 0.98049 0.2078 0.0
H165 H 0.80586 0.98948 0.18008 0.0
H166 H 0.77226 0.01053 0.08294 0.0
H167 H 0.78977 0.01579 0.13178 0.0
H168 H 0.76548 0.00998 0.14882 0.0
H169 H 0.72841 0.92154 0.92099 0.0
H170 H 0.68297 0.90988 0.03024 0.0
H171 H 0.70131 0.92413 0.09775 0.0
H172 H 0.73717 0.96276 0.95214 0.0
H173 H 0.75223 0.94804 0.9126 0.0
H174 H 0.76211 0.96636 0.95345 0.0
H175 H 0.76215 0.91009 0.99886 0.0
H176 H 0.78032 0.9269 0.01132 0.0
H177 H 0.77191 0.9234 0.9461 0.0
H178 H 0.8208 0.96437 0.95218 0.0
C179 C 0.79567 0.96255 0.99875 0.0
C180 C 0.53897 0.72604 0.23788 0.0
C181 C 0.54727 0.70869 0.25524 0.0
C182 C 0.56246 0.7009 0.22666 0.0
C183 C 0.56087 0.72657 0.16465 0.0
C184 C 0.54627 0.73494 0.19251 0.0
C185 C 0.54036 0.75378 0.16769 0.0
H186 H 0.55543 0.81632 0.96477 0.0
C187 C 0.56498 0.73825 0.11863 0.0
C188 C 0.55328 0.75459 0.1197 0.0
H189 H 0.51603 0.82508 0.09043 0.0
H190 H 0.5249 0.79405 0.12715 0.0
H191 H 0.59032 0.79855 0.02696 0.0
H192 H 0.5423 0.7758 0.94437 0.0
H193 H 0.55972 0.75805 0.93847 0.0
H194 H 0.56423 0.78153 0.91202 0.0
H195 H 0.58732 0.79989 0.95832 0.0
H196 H 0.59879 0.77978 0.98795 0.0
C197 C 0.54486 0.77015 0.2056 0.0
C198 C 0.51903 0.75259 0.15316 0.0
C199 C 0.6073 0.70953 0.98019 0.0
C200 C 0.60934 0.7139 0.92741 0.0
C201 C 0.60411 0.7324 0.91093 0.0
C202 C 0.59529 0.74526 0.94473 0.0
C203 C 0.59099 0.73951 0.99529 0.0
C204 C 0.5974 0.72209 0.01259 0.0
C205 C 0.58989 0.71743 0.06543 0.0
C206 C 0.57734 0.73468 0.07622 0.0
C207 C 0.57834 0.74765 0.0355 0.0
C208 C 0.60721 0.71659 0.10266 0.0
C209 C 0.57801 0.6986 0.0613 0.0
C210 C 0.54885 0.81175 1.00061 0.0
C211 C 0.53538 0.82331 0.02517 0.0
C212 C 0.52664 0.81647 0.07091 0.0
C213 C 0.53188 0.79855 0.09227 0.0
C214 C 0.54578 0.78727 0.06721 0.0
C215 C 0.55367 0.79405 0.02163 0.0
C216 C 0.56707 0.78024 0.99705 0.0
C217 C 0.56722 0.76448 0.03671 0.0
C218 C 0.55466 0.76823 0.07827 0.0
C219 C 0.58694 0.79004 0.99183 0.0
C220 C 0.55805 0.77358 0.94519 0.0
H221 H 0.5808 0.70269 0.16283 0.0
H222 H 0.5274 0.73255 0.2593 0.0
H223 H 0.51608 0.73933 0.13082 0.0
H224 H 0.51459 0.76469 0.12885 0.0
H225 H 0.5099 0.75239 0.18829 0.0
H226 H 0.55977 0.76898 0.22006 0.0
H227 H 0.53503 0.76964 0.23931 0.0
H228 H 0.54368 0.78433 0.18745 0.0
H229 H 0.61175 0.69589 0.99545 0.0
H230 H 0.60538 0.73664 0.87101 0.0
H231 H 0.59123 0.7588 0.92911 0.0
H232 H 0.61907 0.7261 0.08955 0.0
H233 H 0.61301 0.70189 0.10526 0.0
H234 H 0.60369 0.72181 0.14185 0.0
H235 H 0.57102 0.69731 0.02293 0.0
H236 H 0.56599 0.6978 0.08885 0.0
H237 H 0.58721 0.68587 0.0664 0.0
H238 H 0.569 0.68759 0.23835 0.0
C239 C 0.5693 0.7097 0.18226 0.0
C240 C 0.31291 0.48883 0.17832 0.0
C241 C 0.32502 0.47893 0.21316 0.0
C242 C 0.31989 0.46027 0.22825 0.0
C243 C 0.28984 0.46293 0.1838 0.0
C244 C 0.29547 0.48007 0.16264 0.0
C245 C 0.2815 0.48593 0.12033 0.0
H246 H 0.19848 0.46126 0.98982 0.0
C247 C 0.27134 0.45731 0.16287 0.0
C248 C 0.26653 0.46972 0.12256 0.0
H249 H 0.23326 0.51115 0.96107 0.0
H250 H 0.25523 0.50161 0.02981 0.0
H251 H 0.23249 0.42987 0.01607 0.0
H252 H 0.19288 0.46514 0.08911 0.0
H253 H 0.20273 0.45502 0.14514 0.0
H254 H 0.19046 0.44022 0.0984 0.0
H255 H 0.20691 0.42777 0.0219 0.0
H256 H 0.22256 0.41738 0.06921 0.0
C257 C 0.29226 0.48627 0.06845 0.0
C258 C 0.27279 0.50539 0.13471 0.0
C259 C 0.22428 0.42364 0.27907 0.0
C260 C 0.20567 0.41646 0.27037 0.0
C261 C 0.19981 0.41319 0.219 0.0
C262 C 0.21118 0.4193 0.17756 0.0
C263 C 0.22844 0.42887 0.18759 0.0
C264 C 0.23551 0.42946 0.23707 0.0
C265 C 0.25543 0.43772 0.23892 0.0
C266 C 0.25789 0.44408 0.18272 0.0
C267 C 0.24144 0.43993 0.15414 0.0
C268 C 0.26921 0.42168 0.2558 0.0
C269 C 0.25609 0.45489 0.27636 0.0
C270 C 0.21104 0.46995 0.9975 0.0
C271 C 0.21439 0.48666 0.96926 0.0
C272 C 0.23051 0.49803 0.98192 0.0
C273 C 0.24324 0.49246 0.02162 0.0
C274 C 0.23955 0.4756 0.04972 0.0
C275 C 0.22332 0.465 0.03786 0.0
C276 C 0.21988 0.44886 0.0746 0.0
C277 C 0.23723 0.45075 0.10932 0.0
C278 C 0.24914 0.46622 0.09448 0.0
C279 C 0.22037 0.42989 0.04397 0.0
C280 C 0.20059 0.45236 0.10337 0.0
H281 H 0.30009 0.43728 0.22024 0.0
H282 H 0.31709 0.50264 0.16319 0.0
H283 H 0.26708 0.50504 0.17476 0.0
H284 H 0.26077 0.50923 0.10935 0.0
H285 H 0.28378 0.51689 0.13244 0.0
H286 H 0.30029 0.47276 0.06282 0.0
H287 H 0.30268 0.49832 0.06728 0.0
H288 H 0.28252 0.48762 0.03531 0.0
H289 H 0.22961 0.42587 0.31772 0.0
H290 H 0.18604 0.40671 0.2108 0.0
H291 H 0.20602 0.41679 0.13926 0.0
H292 H 0.26201 0.41102 0.28111 0.0
H293 H 0.28114 0.42736 0.27952 0.0
H294 H 0.27494 0.41381 0.22193 0.0
H295 H 0.24548 0.46588 0.26504 0.0
H296 H 0.27047 0.46167 0.27655 0.0
H297 H 0.25296 0.45032 0.31649 0.0
H298 H 0.32933 0.45192 0.25232 0.0
C299 C 0.30262 0.4521 0.21253 0.0
C300 C 0.11031 0.2357 0.30252 0.0
C301 C 0.1139 0.21604 0.30664 0.0
C302 C 0.11071 0.20432 0.26312 0.0
C303 C 0.09639 0.23091 0.21781 0.0
C304 C 0.10112 0.24268 0.25862 0.0
C305 C 0.09282 0.26229 0.25311 0.0
H306 H 0.02751 0.32127 0.15198 0.0
C307 C 0.08366 0.24174 0.18295 0.0
C308 C 0.08136 0.26002 0.20365 0.0
H309 H 0.06934 0.3315 0.27182 0.0
H310 H 0.08317 0.30111 0.25634 0.0
H311 H 0.06195 0.2991 0.07049 0.0
H312 H 0.01957 0.27325 0.17222 0.0
H313 H 0.01884 0.26471 0.10758 0.0
H314 H 0.0125 0.28903 0.12105 0.0
H315 H 0.03683 0.30353 0.06182 0.0
H316 H 0.04734 0.28155 0.0403 0.0
C317 C 0.10971 0.27663 0.24664 0.0
C318 C 0.07979 0.26597 0.30074 0.0
C319 C 0.05666 0.20749 0.0278 0.0
C320 C 0.04313 0.21171 0.98975 0.0
C321 C 0.03353 0.22945 0.99293 0.0
C322 C 0.0379 0.24283 0.03253 0.0
C323 C 0.05186 0.23838 0.06977 0.0
C324 C 0.0607 0.22073 0.06683 0.0
C325 C 0.07418 0.21731 0.11044 0.0
C326 C 0.07316 0.23619 0.13863 0.0
C327 C 0.05998 0.24879 0.11551 0.0
C328 C 0.09439 0.21381 0.08773 0.0
C329 C 0.06606 0.20052 0.14326 0.0
C330 C 0.03958 0.3167 0.17482 0.0
C331 C 0.0472 0.32878 0.21395 0.0
C332 C 0.06319 0.32259 0.24183 0.0
C333 C 0.07124 0.3048 0.23279 0.0
C334 C 0.06328 0.29258 0.19566 0.0
C335 C 0.04819 0.29862 0.16567 0.0
C336 C 0.04337 0.28366 0.12467 0.0
C337 C 0.05737 0.26751 0.13759 0.0
C338 C 0.06857 0.27304 0.18023 0.0
C339 C 0.0475 0.29236 0.07123 0.0
C340 C 0.02239 0.27729 0.13145 0.0
H341 H 0.09941 0.20187 0.18772 0.0
H342 H 0.11294 0.24517 0.33484 0.0
H343 H 0.07192 0.25273 0.31186 0.0
H344 H 0.06849 0.27656 0.294 0.0
H345 H 0.08835 0.27065 0.33455 0.0
H346 H 0.12299 0.26948 0.23309 0.0
H347 H 0.11317 0.28388 0.28361 0.0
H348 H 0.10679 0.28756 0.21682 0.0
H349 H 0.06385 0.19382 0.02787 0.0
H350 H 0.02287 0.23307 0.96442 0.0
H351 H 0.03021 0.25606 0.03304 0.0
H352 H 0.09736 0.2238 0.05532 0.0
H353 H 0.09569 0.19901 0.07264 0.0
H354 H 0.10596 0.21638 0.11585 0.0
H355 H 0.05039 0.19856 0.13761 0.0
H356 H 0.06759 0.20302 0.18519 0.0
H357 H 0.073 0.1868 0.13298 0.0
H358 H 0.11334 0.1891 0.26483 0.0
C359 C 0.10216 0.2117 0.21861 0.0
C360 C 0.29807 0.0394 0.99995 0.0
C361 C 0.31601 0.0473 0.98496 0.0
C362 C 0.32351 0.06271 0.01341 0.0
C363 C 0.29576 0.06284 0.06929 0.0
C364 C 0.28802 0.04762 0.04223 0.0
C365 C 0.26852 0.04205 0.06435 0.0
H366 H 0.19719 0.06542 0.23802 0.0
C367 C 0.28215 0.06879 0.10973 0.0
C368 C 0.26573 0.05704 0.10696 0.0
H369 H 0.19708 0.01595 0.13886 0.0
H370 H 0.22823 0.02568 0.10334 0.0
H371 H 0.23526 0.05888 0.27733 0.0
H372 H 0.21591 0.09632 0.15866 0.0
H373 H 0.23262 0.10938 0.19538 0.0
H374 H 0.21153 0.09973 0.22625 0.0
H375 H 0.22724 0.08251 0.29196 0.0
H376 H 0.25206 0.07745 0.27868 0.0
C377 C 0.26997 0.02171 0.08667 0.0
C378 C 0.2533 0.04373 0.0218 0.0
C379 C 0.30357 0.11756 0.24249 0.0
C380 C 0.29468 0.12472 0.28726 0.0
C381 C 0.27474 0.12247 0.29279 0.0
C382 C 0.26426 0.11149 0.25742 0.0
C383 C 0.27384 0.10251 0.2163 0.0
C384 C 0.29293 0.10645 0.20785 0.0
C385 C 0.30068 0.09589 0.16186 0.0
C386 C 0.28352 0.08358 0.14711 0.0
C387 C 0.26797 0.08748 0.17926 0.0
C388 C 0.31782 0.0836 0.17987 0.0
C389 C 0.30566 0.11087 0.11969 0.0
C390 C 0.20358 0.05681 0.20784 0.0
C391 C 0.19445 0.04018 0.19054 0.0
C392 C 0.20377 0.02897 0.15267 0.0
C393 C 0.22182 0.03461 0.13222 0.0
C394 C 0.23084 0.05135 0.1508 0.0
C395 C 0.22156 0.06188 0.1885 0.0
C396 C 0.2334 0.07798 0.20889 0.0
C397 C 0.25125 0.07602 0.17653 0.0
C398 C 0.24997 0.06059 0.14148 0.0
C399 C 0.23717 0.07422 0.26716 0.0
C400 C 0.22286 0.09692 0.19719 0.0
H401 H 0.32039 0.08205 0.07465 0.0
H402 H 0.29193 0.02752 0.97881 0.0
H403 H 0.25414 0.05802 1.00325 0.0
H404 H 0.23864 0.04208 0.03708 0.0
H405 H 0.25552 0.03271 0.99153 0.0
H406 H 0.28295 0.02042 0.11113 0.0
H407 H 0.27097 0.01095 0.05524 0.0
H408 H 0.25769 0.01801 0.1115 0.0
H409 H 0.31886 0.11899 0.23683 0.0
H410 H 0.26744 0.12821 0.32625 0.0
H411 H 0.2493 0.10961 0.26511 0.0
H412 H 0.31472 0.07697 0.21797 0.0
H413 H 0.33099 0.09243 0.18394 0.0
H414 H 0.32098 0.07151 0.15392 0.0
H415 H 0.29824 0.12469 0.12627 0.0
H416 H 0.3009 0.10626 0.08085 0.0
H417 H 0.32125 0.114 0.11858 0.0
H418 H 0.33729 0.06887 1.00334 0.0
C419 C 0.31359 0.07044 0.05499 0.0
C420 C 0.49534 0.29796 0.99642 0.0
C421 C 0.48695 0.31485 0.9764 0.0
C422 C 0.46952 0.32109 0.99722 0.0
C423 C 0.46892 0.2947 0.05723 0.0
C424 C 0.4858 0.28787 0.03668 0.0
C425 C 0.49149 0.26925 0.06297 0.0
H426 H 0.46663 0.20115 0.24463 0.0
C427 C 0.46243 0.28178 0.09865 0.0
C428 C 0.47519 0.26634 0.10212 0.0
H429 H 0.51749 0.20051 0.15037 0.0
H430 H 0.50783 0.23059 0.10993 0.0
H431 H 0.47136 0.24134 0.27747 0.0
H432 H 0.43646 0.21656 0.15926 0.0
H433 H 0.42228 0.23327 0.19263 0.0
H434 H 0.43253 0.2135 0.22718 0.0
H435 H 0.44793 0.23223 0.29138 0.0
H436 H 0.45189 0.25682 0.2732 0.0
C437 C 0.5109 0.27232 0.08986 0.0
C438 C 0.49191 0.25321 0.02226 0.0
C439 C 0.41042 0.30495 0.21829 0.0
C440 C 0.40319 0.29782 0.26527 0.0
C441 C 0.40593 0.27828 0.27641 0.0
C442 C 0.41781 0.26698 0.24525 0.0
C443 C 0.42702 0.27525 0.20238 0.0
C444 C 0.42235 0.29357 0.188 0.0
C445 C 0.43335 0.30015 0.14146 0.0
C446 C 0.44676 0.2834 0.13321 0.0
C447 C 0.443 0.26892 0.16887 0.0
C448 C 0.44436 0.31875 0.15599 0.0
C449 C 0.4189 0.3023 0.09641 0.0
C450 C 0.4756 0.20723 0.21464 0.0
C451 C 0.4926 0.19821 0.20004 0.0
C452 C 0.5042 0.20711 0.16214 0.0
C453 C 0.49856 0.2245 0.13866 0.0
C454 C 0.48132 0.23329 0.15395 0.0
C455 C 0.47041 0.22454 0.19198 0.0
C456 C 0.4535 0.23611 0.20786 0.0
C457 C 0.45532 0.25296 0.17186 0.0
C458 C 0.47155 0.25153 0.13944 0.0
C459 C 0.45611 0.24189 0.26539 0.0
C460 C 0.43515 0.2243 0.1966 0.0
H461 H 0.44749 0.31712 0.05101 0.0
H462 H 0.50868 0.29271 0.98079 0.0
H463 H 0.4784 0.25305 0.99972 0.0
H464 H 0.49331 0.23894 0.03976 0.0
H465 H 0.504 0.25538 0.99495 0.0
H466 H 0.5107 0.28564 0.11329 0.0
H467 H 0.52262 0.27363 0.06102 0.0
H468 H 0.51439 0.2606 0.11652 0.0
H469 H 0.40866 0.31975 0.20757 0.0
H470 H 0.39996 0.27203 0.31108 0.0
H471 H 0.42018 0.25254 0.25737 0.0
H472 H 0.45011 0.31781 0.19588 0.0
H473 H 0.43486 0.33138 0.15426 0.0
H474 H 0.45698 0.32158 0.13157 0.0
H475 H 0.40537 0.29425 0.1035 0.0
H476 H 0.42448 0.29633 0.05976 0.0
H477 H 0.41497 0.31748 0.09038 0.0
H478 H 0.46284 0.33397 0.98292 0.0
C479 C 0.46054 0.31119 0.03697 0.0
Tb480 Tb 0.99443 0.02674 0.57223 0.0
C481 C 0.05016 0.02424 0.75286 0.0
N482 N 0.05261 0.01938 0.70271 0.0
C483 C 0.08214 0.03703 0.7002 0.0
C484 C 0.06307 0.03658 0.77814 0.0
C485 C 0.0688 0.02483 0.67674 0.0
C486 C 0.07911 0.04319 0.75088 0.0
C487 C 0.03228 0.02001 0.83188 0.0
C488 C 0.03506 0.01606 0.77911 0.0
C489 C 0.04438 0.0332 0.8568 0.0
C490 C 0.0598 0.04144 0.82998 0.0
Tb491 Tb 0.03008 0.99959 0.66725 0.0
N492 N 0.0241 1.00303 0.75384 0.0
C493 C 0.01798 0.00995 0.8584 0.0
C494 C 0.01144 0.99191 0.7808 0.0
C495 C 0.00778 0.99555 0.83295 0.0
H496 H 0.07108 0.02014 0.63749 0.0
H497 H 0.99734 0.98703 0.85366 0.0
H498 H 0.95188 0.02583 0.63287 0.0
H499 H 0.01158 1.00744 0.37662 0.0
H500 H 1.0043 0.98002 0.76241 0.0
H501 H 0.01534 0.01256 0.89897 0.0
H502 H 0.01601 0.0243 0.45984 0.0
H503 H 0.0947 0.04171 0.67916 0.0
H504 H 0.04235 0.0366 0.8972 0.0
H505 H 0.0694 0.05112 0.85003 0.0
H506 H 0.92181 0.0076 0.62657 0.0
H507 H 0.08943 0.05267 0.76892 0.0
H508 H 0.98338 0.98634 0.36384 0.0
N509 N 0.96473 0.01249 0.56753 0.0
C510 C 0.96138 1.00165 0.52501 0.0
C511 C 0.93297 1.0055 0.59815 0.0
C512 C 0.94406 0.99152 0.5185 0.0
C513 C 0.9503 0.01549 0.60229 0.0
C514 C 0.92997 0.99314 0.5566 0.0
N515 N 0.9909 0.01246 0.4936 0.0
C516 C 1.00369 0.01516 0.45432 0.0
C517 C 0.97168 0.99196 0.43971 0.0
C518 C 0.97483 1.0019 0.48616 0.0
C519 C 0.98526 0.99374 0.40021 0.0
C520 C 1.00119 1.00564 0.40728 0.0
H521 H 0.91645 0.98561 0.55314 0.0
H522 H 0.92799 0.97271 0.46784 0.0
H523 H 0.95227 0.97305 0.39878 0.0
O524 O 1.0031 0.05135 0.53276 0.0
O525 O 1.00586 0.99857 0.55002 0.0
O526 O 0.00792 0.9829 0.62683 0.0
O527 O 0.97364 0.04734 0.55327 0.0
O528 O 0.02538 0.03145 0.55888 0.0
O529 O 0.04012 1.00405 0.58808 0.0
O530 O 0.04004 0.97547 0.70785 0.0
O531 O 0.03123 0.03131 0.66108 0.0
O532 O 1.00013 0.03954 0.6477 0.0
O533 O 0.05319 0.98427 0.6372 0.0
O534 O 0.99906 0.99427 0.67893 0.0
O535 O 0.98492 0.02228 0.65272 0.0
C536 C 1.00574 0.98262 0.57655 0.0
C537 C 0.98746 0.0782 0.56515 0.0
C538 C 1.00627 0.10685 0.58441 0.0
C539 C 0.99371 0.11123 0.62494 0.0
C540 C 0.9748 0.08292 0.60536 0.0
C541 C 0.97788 0.09944 0.63477 0.0
C542 C 1.00286 0.09048 0.55443 0.0
C543 C 0.03944 0.01893 0.55717 0.0
C544 C 0.98661 0.05954 0.53844 0.0
C545 C 0.94112 0.98077 0.47334 0.0
C546 C 0.95491 0.981 0.43395 0.0
C547 C 0.01704 0.04338 0.66699 0.0
C548 C 0.04983 0.95136 0.64837 0.0
C549 C 0.03224 0.92117 0.63886 0.0
C550 C 0.04338 0.91706 0.59489 0.0
C551 C 0.06106 0.94656 0.60538 0.0
C552 C 0.03579 0.93838 0.66572 0.0
C553 C 0.05781 0.92953 0.57887 0.0
C554 C 0.98522 1.00696 0.68231 0.0
C555 C 0.05169 0.9707 0.67092 0.0
H556 H 0.99605 0.12377 0.64867 0.0
H557 H 0.96289 0.07363 0.6151 0.0
H558 H 0.96823 0.10287 0.66609 0.0
H559 H 0.01285 0.08673 0.52405 0.0
H560 H 0.04081 0.90438 0.572 0.0
H561 H 0.072 0.95628 0.59128 0.0
H562 H 0.02753 0.94188 0.69971 0.0
H563 H 0.06626 0.92618 0.54505 0.0
Tb564 Tb 0.52398 0.03215 0.66876 0.0
C565 C 0.51133 0.96063 0.50148 0.0
N566 N 0.51196 0.97991 0.49896 0.0
C567 C 0.52797 0.97802 0.41713 0.0
C568 C 0.51945 0.94912 0.46271 0.0
C569 C 0.51942 0.98875 0.45643 0.0
C570 C 0.52823 0.95809 0.42062 0.0
C571 C 0.49842 0.93265 0.5437 0.0
C572 C 0.50108 0.95258 0.54103 0.0
C573 C 0.50732 0.92089 0.5069 0.0
C574 C 0.51785 0.92913 0.46638 0.0
Tb575 Tb 0.49957 0.99638 0.5676 0.0
N576 N 0.4924 0.96454 0.57455 0.0
C577 C 0.48631 0.9253 0.58197 0.0
C578 C 0.47959 0.95757 0.60981 0.0
C579 C 0.47661 0.93786 0.61469 0.0
H580 H 0.51909 1.00412 0.45308 0.0
H581 H 0.46682 0.93238 0.64355 0.0
H582 H 0.4987 0.07171 0.6664 0.0
H583 H 0.60118 0.02722 0.68007 0.0
H584 H 0.472 0.96723 0.63503 0.0
H585 H 0.48387 0.91006 0.58548 0.0
H586 H 0.56786 0.01788 0.70054 0.0
H587 H 0.53426 0.98511 0.38409 0.0
H588 H 0.50565 0.9055 0.50847 0.0
H589 H 0.52414 0.91998 0.43729 0.0
H590 H 0.50226 0.10459 0.63186 0.0
H591 H 0.53468 0.9498 0.38994 0.0
H592 H 0.60761 0.05578 0.62638 0.0
N593 N 0.52655 0.06326 0.64304 0.0
C594 C 0.54372 0.06891 0.62417 0.0
C595 C 0.51401 0.09465 0.62908 0.0
C596 C 0.54654 0.08743 0.60435 0.0
C597 C 0.51204 0.0761 0.64868 0.0
C598 C 0.53119 0.10018 0.60553 0.0
N599 N 0.55556 0.04025 0.6564 0.0
C600 C 0.57052 0.03035 0.67705 0.0
C601 C 0.57764 0.06292 0.61889 0.0
C602 C 0.55892 0.05684 0.63109 0.0
C603 C 0.59298 0.05164 0.6349 0.0
C604 C 0.58941 0.03559 0.66549 0.0
H605 H 0.53273 0.11456 0.59067 0.0
H606 H 0.56731 0.10698 0.57102 0.0
H607 H 0.59467 0.08547 0.58399 0.0
O608 O 0.53305 0.04842 0.73268 0.0
O609 O 0.50752 0.04197 0.60168 0.0
O610 O 0.51458 0.02166 0.5364 0.0
O611 O 0.50977 0.02865 0.73969 0.0
O612 O 0.54277 0.01046 0.63193 0.0
O613 O 0.52973 1.00321 0.55227 0.0
O614 O 0.4797 0.01823 0.55625 0.0
O615 O 0.50793 0.98221 0.63989 0.0
O616 O 0.52672 1.00202 0.69279 0.0
O617 O 0.47582 0.99082 0.51968 0.0
O618 O 0.48656 1.00078 0.64386 0.0
O619 O 0.49294 0.03235 0.65552 0.0
C620 C 0.5128 0.0392 0.55367 0.0
C621 C 0.52939 0.03248 0.81158 0.0
C622 C 0.54961 0.00915 0.85423 0.0
C623 C 0.54274 0.01552 0.90223 0.0
C624 C 0.5227 0.03875 0.85959 0.0
C625 C 0.52947 0.03036 0.90479 0.0
C626 C 0.54306 0.01795 0.80911 0.0
C627 C 0.54458 1.00572 0.58284 0.0
C628 C 0.52117 0.04018 0.76414 0.0
C629 C 0.56486 0.09292 0.58725 0.0
C630 C 0.58043 0.08066 0.59458 0.0
C631 C 0.51858 0.9854 0.6812 0.0
C632 C 0.44807 0.00871 0.54301 0.0
C633 C 0.41956 0.02876 0.54827 0.0
C634 C 0.40886 0.01248 0.56286 0.0
C635 C 0.43725 0.99274 0.55799 0.0
C636 C 0.43934 0.02663 0.54014 0.0
C637 C 0.41774 0.99472 0.56839 0.0
C638 C 0.48186 0.01739 0.66339 0.0
C639 C 0.46841 0.00753 0.52899 0.0
H640 H 0.5477 0.0091 0.9377 0.0
H641 H 0.51209 0.04993 0.86206 0.0
H642 H 0.52425 0.03519 0.94186 0.0
H643 H 0.54789 0.01286 0.77195 0.0
H644 H 0.39356 0.01319 0.56863 0.0
H645 H 0.44377 0.9788 0.56128 0.0
H646 H 0.4482 0.0389 0.53078 0.0
H647 H 0.40935 0.98235 0.57954 0.0
Tb648 Tb 0.53178 0.50045 0.56515 0.0
C649 C 0.48277 0.49406 0.75235 0.0
N650 N 0.47781 0.50077 0.70527 0.0
C651 C 0.45012 0.48036 0.70484 0.0
C652 C 0.47217 0.47943 0.77653 0.0
C653 C 0.46121 0.49483 0.68231 0.0
C654 C 0.45579 0.4724 0.75177 0.0
C655 C 0.50353 0.49646 0.82655 0.0
C656 C 0.49821 0.50242 0.77676 0.0
C657 C 0.49378 0.48109 0.84975 0.0
C658 C 0.47808 0.4726 0.8248 0.0
Tb659 Tb 0.49737 0.52365 0.67051 0.0
N660 N 0.50701 0.5174 0.75329 0.0
C661 C 0.51787 0.5067 0.85231 0.0
C662 C 0.51946 0.52864 0.78055 0.0
C663 C 0.52554 0.52315 0.82967 0.0
H664 H 0.45681 0.50094 0.64604 0.0
H665 H 0.53591 0.53177 0.85033 0.0
H666 H 0.5748 0.49225 0.61727 0.0
H667 H 0.51728 0.52864 0.37625 0.0
H668 H 0.5246 0.54197 0.76473 0.0
H669 H 0.52242 0.5026 0.89061 0.0
H670 H 0.51142 0.50826 0.45284 0.0
H671 H 0.43724 0.47532 0.68597 0.0
H672 H 0.49782 0.4761 0.88769 0.0
H673 H 0.47033 0.46113 0.84371 0.0
H674 H 0.60677 0.50744 0.61509 0.0
H675 H 0.44722 0.46115 0.76903 0.0
H676 H 0.54615 0.5493 0.37247 0.0
N677 N 0.56282 0.51129 0.56227 0.0
C678 C 0.56666 0.52465 0.5258 0.0
C679 C 0.59553 0.51264 0.59024 0.0
C680 C 0.58487 0.53326 0.52165 0.0
C681 C 0.57732 0.50423 0.59185 0.0
C682 C 0.59921 0.52754 0.55578 0.0
N683 N 0.53637 0.51791 0.49201 0.0
C684 C 0.52405 0.51724 0.45117 0.0
C685 C 0.55694 0.53975 0.44623 0.0
C686 C 0.55295 0.52792 0.4888 0.0
C687 C 0.54362 0.54043 0.40601 0.0
C688 C 0.52733 0.52873 0.4079 0.0
H689 H 0.6134 0.53381 0.55398 0.0
H690 H 0.60226 0.55338 0.47831 0.0
H691 H 0.57775 0.55903 0.41202 0.0
O692 O 0.52236 0.47249 0.55196 0.0
O693 O 0.51721 0.52774 0.54997 0.0
O694 O 0.51676 0.54285 0.62791 0.0
O695 O 0.54791 0.48285 0.5153 0.0
O696 O 0.50103 0.49785 0.54664 0.0
O697 O 0.48298 0.51904 0.59628 0.0
O698 O 0.48486 0.54202 0.72514 0.0
O699 O 0.49865 0.49271 0.65269 0.0
O700 O 0.53001 0.48637 0.64018 0.0
O701 O 0.47535 0.54195 0.64673 0.0
O702 O 0.52811 0.53154 0.67628 0.0
O703 O 0.54393 0.50544 0.64272 0.0
C704 C 0.51799 0.5435 0.5774 0.0
C705 C 0.52705 0.46266 0.4667 0.0
C706 C 0.502 0.44483 0.42123 0.0
C707 C 0.50971 0.45112 0.37404 0.0
C708 C 0.53459 0.46869 0.41917 0.0
C709 C 0.52591 0.46294 0.37316 0.0
C710 C 0.51084 0.4507 0.46723 0.0
C711 C 0.48501 0.5071 0.55714 0.0
C712 C 0.53501 0.46938 0.51629 0.0
C713 C 0.58845 0.54638 0.48174 0.0
C714 C 0.57449 0.5496 0.44397 0.0
C715 C 0.51369 0.48216 0.66239 0.0
C716 C 0.4765 0.57147 0.68847 0.0
C717 C 0.49681 0.59993 0.6869 0.0
C718 C 0.48047 0.61116 0.67888 0.0
C719 C 0.46036 0.58284 0.68056 0.0
C720 C 0.49466 0.58003 0.69133 0.0
C721 C 0.46237 0.60263 0.67576 0.0
C722 C 0.54311 0.52014 0.67456 0.0
C723 C 0.4745 0.55062 0.6909 0.0
H724 H 0.50346 0.44665 0.33778 0.0
H725 H 0.54701 0.478 0.41748 0.0
H726 H 0.53176 0.46766 0.33665 0.0
H727 H 0.5048 0.44631 0.50389 0.0
H728 H 0.48161 0.62656 0.67592 0.0
H729 H 0.44626 0.57641 0.67773 0.0
H730 H 0.50715 0.57113 0.69645 0.0
H731 H 0.44987 0.61138 0.66972 0.0
Tb732 Tb 0.02382 0.53155 0.57588 0.0
C733 C 0.03127 0.46367 0.70926 0.0
N734 N 0.01824 0.46598 0.67109 0.0
C735 C 0.0271 0.43554 0.63557 0.0
C736 C 0.04355 0.44779 0.71044 0.0
C737 C 0.01512 0.45148 0.63663 0.0
C738 C 0.04169 0.43389 0.67195 0.0
C739 C 0.04382 0.47453 0.79122 0.0
C740 C 0.0313 0.47662 0.7492 0.0
C741 C 0.05688 0.45936 0.79134 0.0
C742 C 0.05673 0.44597 0.75099 0.0
Tb743 Tb 1.00086 0.49383 0.67355 0.0
N744 N 0.01874 0.49126 0.74696 0.0
C745 C 0.04258 0.4876 0.83202 0.0
C746 C 0.01666 0.50341 0.78789 0.0
C747 C 0.02873 0.50193 0.83068 0.0
H748 H 1.00324 0.45196 0.61023 0.0
H749 H 0.02741 0.51189 0.86242 0.0
H750 H 1.00341 0.572 0.6098 0.0
H751 H 0.03282 0.50032 0.38624 0.0
H752 H 1.00611 0.5146 0.78662 0.0
H753 H 0.05197 0.48653 0.86505 0.0
H754 H 0.04221 0.50761 0.47581 0.0
H755 H 0.02487 0.4244 0.60718 0.0
H756 H 0.06682 0.45759 0.82296 0.0
H757 H 0.06648 0.43401 0.75226 0.0
H758 H 0.97959 0.59434 0.57355 0.0
H759 H 0.05083 0.42144 0.67139 0.0
H760 H 1.00494 0.51652 0.34755 0.0
N761 N 1.00259 0.55337 0.54504 0.0
C762 C 0.99619 0.55052 0.49632 0.0
C763 C 0.98402 0.58197 0.5516 0.0
C764 C 0.98259 0.56274 0.47408 0.0
C765 C 0.99747 0.56934 0.57202 0.0
C766 C 0.97629 0.57847 0.50275 0.0
N767 N 0.01835 0.5256 0.49015 0.0
C768 C 0.02939 0.51389 0.46035 0.0
C769 C 0.99869 0.53285 0.41648 0.0
C770 C 1.0041 0.53582 0.46818 0.0
C771 C 0.00864 0.51928 0.38742 0.0
C772 C 0.02437 0.51008 0.40914 0.0
H773 H 0.96585 0.58824 0.48707 0.0
H774 H 0.9655 0.56814 0.40606 0.0
H775 H 0.97965 0.54192 0.35545 0.0
O776 O 0.04364 0.54571 0.5279 0.0
O777 O 0.99247 0.53146 0.58987 0.0
O778 O 0.98472 0.50009 0.60309 0.0
O779 O 0.04264 0.55162 0.60893 0.0
O780 O 0.02957 0.50092 0.5611 0.0
O781 O 1.00267 0.48542 0.59145 0.0
O782 O 0.97784 0.49879 0.72341 0.0
O783 O 0.02823 0.50847 0.68869 0.0
O784 O 0.04243 0.50981 0.61023 0.0
O785 O 0.98277 0.47068 0.69377 0.0
O786 O 0.99419 0.52405 0.69084 0.0
O787 O 0.01883 0.54213 0.65469 0.0
C788 C 0.98064 0.51695 0.58408 0.0
C789 C 0.07286 0.55061 0.57093 0.0
C790 C 0.09999 0.52884 0.56734 0.0
C791 C 0.11194 0.5437 0.58511 0.0
C792 C 0.08495 0.56524 0.58853 0.0
C793 C 0.10442 0.56175 0.59563 0.0
C794 C 0.08039 0.53245 0.56079 0.0
C795 C 0.01708 0.48673 0.55868 0.0
C796 C 0.05222 0.55393 0.56647 0.0
C797 C 0.97619 0.55912 0.42367 0.0
C798 C 0.98421 0.54415 0.39491 0.0
C799 C 0.04368 0.50764 0.66026 0.0
C800 C 0.95077 0.48137 0.69652 0.0
C801 C 0.92255 0.49837 0.66536 0.0
C802 C 0.91267 0.48081 0.66242 0.0
C803 C 0.94064 0.46407 0.69365 0.0
C804 C 0.94184 0.4983 0.68046 0.0
C805 C 0.92177 0.4638 0.67592 0.0
C806 C 1.00519 0.53952 0.68943 0.0
C807 C 0.97058 0.48189 0.71619 0.0
H808 H 0.12716 0.54151 0.58989 0.0
H809 H 0.0793 0.57926 0.59719 0.0
H810 H 0.11373 0.5731 0.60916 0.0
H811 H 0.07091 0.52106 0.54827 0.0
H812 H 0.89773 0.48024 0.65168 0.0
H813 H 0.94729 0.45082 0.70524 0.0
H814 H 0.94979 0.51162 0.68087 0.0
H815 H 0.91398 0.4504 0.67399 0.0
C816 C 0.16131 0.0485 0.22011 0.0
C817 C 0.17582 0.03476 0.21518 0.0
C818 C 0.14551 0.04538 0.25245 0.0
C819 C 0.13161 0.01791 0.36886 0.0
H820 H 0.08106 0.03766 0.34005 0.0
C821 C 0.06815 1.006 0.51 0.0
C822 C 0.05467 0.0207 0.51671 0.0
C823 C 0.08227 1.00713 0.47166 0.0
C824 C 0.09514 0.03226 0.34912 0.0
H825 H 0.18463 1.00657 0.23903 0.0
H826 H 0.15685 1.00089 0.29514 0.0
H827 H 0.10602 0.0396 0.27429 0.0
H828 H 0.04578 0.04825 0.48768 0.0
H829 H 0.07059 0.05038 0.42122 0.0
H830 H 0.12089 0.01082 0.44387 0.0
C831 C 0.15781 0.01425 0.27428 0.0
C832 C 0.10949 0.0333 0.31117 0.0
C833 C 0.17361 0.01734 0.24149 0.0
C834 C 0.05583 0.03663 0.48378 0.0
C835 C 0.07004 0.03777 0.4453 0.0
C836 C 0.11729 0.01691 0.40683 0.0
C837 C 0.14375 0.02843 0.28125 0.0
C838 C 0.128 0.02622 0.32048 0.0
C839 C 0.08351 0.02302 0.43862 0.0
C840 C 0.09881 0.02412 0.39773 0.0
H841 H 0.16263 0.06212 0.2006 0.0
H842 H 0.13518 0.05674 0.25685 0.0
H843 H 0.14573 0.01264 0.3781 0.0
H844 H 0.06773 0.99338 0.5341 0.0
H845 H 0.09205 0.99529 0.46746 0.0
C846 C 0.51496 0.17781 0.25328 0.0
C847 C 0.4977 0.17986 0.22609 0.0
C848 C 0.51788 0.16194 0.28572 0.0
C849 C 0.48952 0.12507 0.35781 0.0
H850 H 0.53883 0.10197 0.383 0.0
C851 C 0.49977 0.07076 0.52361 0.0
C852 C 0.51203 0.05519 0.51571 0.0
C853 C 0.49896 0.08579 0.48795 0.0
C854 C 0.5249 0.10813 0.37621 0.0
H855 H 0.47055 0.16623 0.20919 0.0
H856 H 0.47579 0.1385 0.26373 0.0
H857 H 0.53607 0.12758 0.31947 0.0
H858 H 0.5328 0.04305 0.46325 0.0
H859 H 0.53116 0.06905 0.40034 0.0
H860 H 0.4782 0.10548 0.41341 0.0
C861 C 0.4869 0.14933 0.26177 0.0
C862 C 0.52335 0.12303 0.34004 0.0
C863 C 0.48395 0.16517 0.22987 0.0
C864 C 0.52328 0.0549 0.47069 0.0
C865 C 0.52245 0.06993 0.43482 0.0
C866 C 0.49105 0.11023 0.39379 0.0
C867 C 0.50363 0.1477 0.29157 0.0
C868 C 0.5056 0.13172 0.33008 0.0
C869 C 0.51021 0.08562 0.44275 0.0
C870 C 0.50875 0.10149 0.40378 0.0
H871 H 0.52574 0.18897 0.25168 0.0
H872 H 0.53094 0.16133 0.30799 0.0
H873 H 0.47563 0.1315 0.35227 0.0
H874 H 0.49052 0.07123 0.5571 0.0
H875 H 0.48949 0.0976 0.49609 0.0
C876 C 0.3603 0.47686 0.22951 0.0
C877 C 0.34312 0.48707 0.23476 0.0
C878 C 0.37622 0.48116 0.2603 0.0
C879 C 0.38794 0.50223 0.38776 0.0
H880 H 0.44038 0.49632 0.34182 0.0
C881 C 0.45229 0.51655 0.52478 0.0
C882 C 0.46872 0.50512 0.51992 0.0
C883 C 0.43733 0.51529 0.48887 0.0
C884 C 0.42583 0.4978 0.35564 0.0
H885 H 0.32952 0.51035 0.27528 0.0
H886 H 0.35745 0.5182 0.32864 0.0
H887 H 0.41433 0.49379 0.27974 0.0
H888 H 0.4819 0.4831 0.47303 0.0
H889 H 0.45575 0.48061 0.41135 0.0
H890 H 0.39934 0.50591 0.46374 0.0
C891 C 0.35856 0.50668 0.30091 0.0
C892 C 0.41083 0.49642 0.3198 0.0
C893 C 0.34262 0.50242 0.26971 0.0
C894 C 0.46958 0.49222 0.47821 0.0
C895 C 0.45457 0.4909 0.44238 0.0
C896 C 0.40293 0.50355 0.42362 0.0
C897 C 0.37543 0.49574 0.29772 0.0
C898 C 0.39161 0.49851 0.33529 0.0
C899 C 0.4382 0.50249 0.44692 0.0
C900 C 0.42215 0.50127 0.40829 0.0
H901 H 0.36104 0.46477 0.20345 0.0
H902 H 0.38878 0.47228 0.25673 0.0
H903 H 0.37338 0.50355 0.4016 0.0
H904 H 0.45104 0.52674 0.55604 0.0
H905 H 0.4252 0.52468 0.4936 0.0
C906 C 0.05161 0.3638 0.22813 0.0
C907 C 0.03931 0.34781 0.22873 0.0
C908 C 0.04764 0.38002 0.25792 0.0
C909 C 0.01126 0.40623 0.33367 0.0
H910 H 0.05442 0.42014 0.41983 0.0
C911 C 1.00333 0.46034 0.50341 0.0
C912 C 0.01915 0.4716 0.51816 0.0
C913 C 1.00514 0.4459 0.46608 0.0
C914 C 0.04225 0.41687 0.39561 0.0
H915 H 0.01251 0.3369 0.25877 0.0
H916 H 1.00512 0.36565 0.30956 0.0
H917 H 0.05783 0.39505 0.35577 0.0
H918 H 0.04944 0.47617 0.50511 0.0
H919 H 0.05244 0.45198 0.43816 0.0
H920 H 0.99576 0.42834 0.37242 0.0
C921 C 0.01795 0.36552 0.28611 0.0
C922 C 0.04422 0.40229 0.35881 0.0
C923 C 0.02206 0.34912 0.25653 0.0
C924 C 0.03684 0.46804 0.49425 0.0
C925 C 0.03861 0.45383 0.45622 0.0
C926 C 0.00936 0.42109 0.36996 0.0
C927 C 0.03114 0.38082 0.28897 0.0
C928 C 0.02877 0.39672 0.32733 0.0
C929 C 0.02281 0.44236 0.44159 0.0
C930 C 0.02482 0.42666 0.40183 0.0
H931 H 0.06513 0.36315 0.20767 0.0
H932 H 0.05796 0.39163 0.25846 0.0
H933 H 0.9991 0.4024 0.30995 0.0
H934 H 0.98945 0.4626 0.52097 0.0
H935 H 0.99264 0.43732 0.45721 0.0
C936 C 0.84743 1.00536 0.98409 0.0
C937 C 0.84349 0.98737 1.00584 0.0
C938 C 0.8643 0.00843 0.95529 0.0
C939 C 0.89788 0.98078 0.87458 0.0
H940 H 0.92905 0.02669 0.87375 0.0
C941 C 0.96508 0.9868 0.74296 0.0
C942 C 0.96989 1.00475 0.72226 0.0
C943 C 0.95063 0.98499 0.78048 0.0
C944 C 0.92038 0.01384 0.87276 0.0
H945 H 0.85452 0.95886 0.01654 0.0
H946 H 0.88391 0.96422 0.9675 0.0
H947 H 0.90263 0.02371 0.93509 0.0
H948 H 0.96303 0.0349 0.72497 0.0
H949 H 0.93748 0.03171 0.78815 0.0
H950 H 0.91499 0.97105 0.81147 0.0
C951 C 0.87401 0.97595 0.97203 0.0
C952 C 0.90523 0.01212 0.90832 0.0
C953 C 0.85729 0.97295 1.00088 0.0
C954 C 0.95974 0.02081 0.73988 0.0
C955 C 0.94516 0.01899 0.77685 0.0
C956 C 0.91283 0.98257 0.8387 0.0
C957 C 0.87744 0.99349 0.94716 0.0
C958 C 0.89381 0.99552 0.9099 0.0
C959 C 0.94032 1.00106 0.79796 0.0
C960 C 0.92441 0.99911 0.8371 0.0
H961 H 0.83686 0.01659 0.98616 0.0
H962 H 0.86642 0.02211 0.93663 0.0
H963 H 0.88918 0.96792 0.87382 0.0
H964 H 0.9724 0.97408 0.72992 0.0
H965 H 0.94768 0.97094 0.79597 0.0
C966 C 0.5129 0.84634 0.9812 0.0
C967 C 0.53105 0.84228 1.00154 0.0
C968 C 0.51012 0.86257 0.95001 0.0
C969 C 0.53212 0.90946 0.91265 0.0
H970 H 0.50353 0.90297 0.78596 0.0
C971 C 0.52049 0.97303 0.77223 0.0
C972 C 0.52022 0.96938 0.71896 0.0
C973 C 0.52063 0.95801 0.80807 0.0
C974 C 0.5117 0.90508 0.82093 0.0
H975 H 0.56032 0.85235 1.00633 0.0
H976 H 0.55548 0.88066 0.95338 0.0
H977 H 0.50556 0.87659 0.84715 0.0
H978 H 0.5197 0.94684 0.66169 0.0
H979 H 0.52066 0.92065 0.72376 0.0
H980 H 0.53838 0.93777 0.88667 0.0
C981 C 0.54331 0.87147 0.96129 0.0
C982 C 0.51264 0.88995 0.85651 0.0
C983 C 0.54611 0.85521 0.99178 0.0
C984 C 0.52004 0.95021 0.70245 0.0
C985 C 0.5204 0.93515 0.73827 0.0
C986 C 0.53105 0.9246 0.87737 0.0
C987 C 0.52539 0.87523 0.93893 0.0
C988 C 0.52308 0.89182 0.90266 0.0
C989 C 0.52066 0.93876 0.79183 0.0
C990 C 0.52108 0.92265 0.83046 0.0
H991 H 0.5011 0.8365 0.98733 0.0
H992 H 0.49607 0.86505 0.93393 0.0
H993 H 0.54012 0.91161 0.94792 0.0
H994 H 0.51977 0.98754 0.78639 0.0
H995 H 0.52022 0.96157 0.84865 0.0
C996 C 0.66878 0.55537 0.99671 0.0
C997 C 0.68183 0.54066 1.00743 0.0
C998 C 0.6529 0.5522 0.96483 0.0
C999 C 0.63569 0.51959 0.86072 0.0
H1000 H 0.58837 0.54754 0.87787 0.0
C1001 C 0.56989 0.50675 0.72792 0.0
C1002 C 0.55893 0.52259 0.71286 0.0
C1003 C 0.58439 0.50856 0.76491 0.0
C1004 C 0.60155 0.53977 0.87207 0.0
H1005 H 0.68774 0.51072 0.99455 0.0
H1006 H 0.65971 0.50496 0.93979 0.0
H1007 H 0.61347 0.55042 0.94262 0.0
H1008 H 0.55509 0.55297 0.72458 0.0
H1009 H 0.58036 0.55617 0.78945 0.0
H1010 H 0.62373 0.50893 0.79016 0.0
C1011 C 0.66199 0.51915 0.95534 0.0
C1012 C 0.61602 0.54139 0.90942 0.0
C1013 C 0.67794 0.52235 0.98747 0.0
C1014 C 0.56307 0.5404 0.73563 0.0
C1015 C 0.57755 0.54221 0.773 0.0
C1016 C 0.62119 0.51791 0.82349 0.0
C1017 C 0.64944 0.53416 0.94251 0.0
C1018 C 0.63342 0.53145 0.90425 0.0
C1019 C 0.58844 0.52629 0.78829 0.0
C1020 C 0.60392 0.52806 0.82835 0.0
H1021 H 0.67126 0.56965 0.01152 0.0
H1022 H 0.64383 0.56423 0.9559 0.0
H1023 H 0.64892 0.51195 0.85451 0.0
H1024 H 0.56702 0.49275 0.7118 0.0
H1025 H 0.59219 0.4959 0.77597 0.0
C1026 C 0.97243 0.65728 0.03386 0.0
C1027 C 0.98338 0.67421 0.03219 0.0
C1028 C 0.97694 0.64164 1.00226 0.0
C1029 C 1.00065 0.63168 0.87702 0.0
H1030 H 0.99041 0.57877 0.91185 0.0
C1031 C 0.01558 0.57031 0.73195 0.0
C1032 C 1.0029 0.55459 0.7301 0.0
C1033 C 0.01408 0.58425 0.77062 0.0
C1034 C 0.99313 0.59348 0.90116 0.0
H1035 H 0.00824 0.68758 0.99768 0.0
H1036 H 0.0165 0.66013 0.94337 0.0
H1037 H 0.98773 0.60344 0.97812 0.0
H1038 H 0.97851 0.54151 0.76824 0.0
H1039 H 0.97571 0.56596 0.83531 0.0
H1040 H 1.00577 0.62186 0.80002 0.0
C1041 C 1.00422 0.65899 0.96871 0.0
C1042 C 0.99166 0.60768 0.93939 0.0
C1043 C 0.99974 0.67463 1.00063 0.0
C1044 C 0.98857 0.55334 0.76824 0.0
C1045 C 0.98706 0.56734 0.80707 0.0
C1046 C 1.00209 0.61751 0.83885 0.0
C1047 C 0.99247 0.64251 0.96762 0.0
C1048 C 0.99532 0.62705 0.92791 0.0
C1049 C 0.99981 0.58305 0.80891 0.0
C1050 C 0.99829 0.59816 0.85014 0.0
H1051 H 0.95953 0.65665 0.05705 0.0
H1052 H 0.96742 0.62938 1.00257 0.0
H1053 H 1.00317 0.64641 0.86608 0.0
H1054 H 0.02691 0.57184 0.70371 0.0
H1055 H 0.02439 0.59585 0.77088 0.0
C1056 C 0.1053 0.21371 0.39976 0.0
C1057 C 0.11653 0.20724 0.35828 0.0
C1058 C 0.10289 0.20253 0.44365 0.0
C1059 C 0.09978 0.15152 0.46544 0.0
H1060 H 0.07429 0.16964 0.58902 0.0
C1061 C 0.02777 0.12319 0.5218 0.0
C1062 C 0.02334 0.11876 0.57317 0.0
C1063 C 0.0449 0.13227 0.50948 0.0
C1064 C 0.08171 0.16418 0.55543 0.0
H1065 H 0.13634 0.18531 0.33382 0.0
H1066 H 0.13232 0.16578 0.4111 0.0
H1067 H 0.09834 0.18976 0.54692 0.0
H1068 H 0.03297 0.12102 0.6523 0.0
H1069 H 0.06311 0.13757 0.63057 0.0
H1070 H 0.08266 0.12629 0.47286 0.0
C1071 C 0.12488 0.17928 0.40888 0.0
C1072 C 0.09538 0.17575 0.53099 0.0
C1073 C 0.12721 0.19046 0.36457 0.0
C1074 C 0.03606 0.12438 0.6124 0.0
C1075 C 0.0533 0.13366 0.59999 0.0
C1076 C 0.08633 0.13994 0.49009 0.0
C1077 C 0.11164 0.18456 0.44731 0.0
C1078 C 0.10348 0.17013 0.48353 0.0
C1079 C 0.05804 0.13725 0.54819 0.0
C1080 C 0.07619 0.14674 0.53307 0.0
H1081 H 0.09671 0.22647 0.39648 0.0
H1082 H 0.09249 0.20719 0.47193 0.0
H1083 H 0.10567 0.14651 0.42927 0.0
H1084 H 0.01807 0.11935 0.4909 0.0
H1085 H 0.04786 0.13544 0.46936 0.0
C1086 C 0.30283 0.12258 0.38062 0.0
C1087 C 0.30673 0.13048 0.33184 0.0
C1088 C 0.31715 0.12167 0.41789 0.0
C1089 C 0.36695 0.11216 0.4076 0.0
H1090 H 0.36349 0.10428 0.55519 0.0
C1091 C 0.41801 0.06023 0.50121 0.0
C1092 C 0.41014 0.04751 0.53774 0.0
C1093 C 0.40857 0.07694 0.48772 0.0
C1094 C 0.36469 0.10633 0.51396 0.0
H1095 H 0.32751 0.14665 0.2874 0.0
H1096 H 0.35261 0.14491 0.3525 0.0
H1097 H 0.34016 0.12465 0.51206 0.0
H1098 H 0.38641 0.04359 0.5911 0.0
H1099 H 0.36902 0.07161 0.56345 0.0
H1100 H 0.39006 0.09269 0.4076 0.0
C1101 C 0.33861 0.13906 0.36141 0.0
C1102 C 0.35144 0.11818 0.48942 0.0
C1103 C 0.32426 0.14 0.32409 0.0
C1104 C 0.39277 0.05255 0.56167 0.0
C1105 C 0.38294 0.06899 0.54663 0.0
C1106 C 0.37992 0.10016 0.43179 0.0
C1107 C 0.33561 0.12859 0.40698 0.0
C1108 C 0.35208 0.12068 0.43568 0.0
C1109 C 0.39047 0.08112 0.50826 0.0
C1110 C 0.37863 0.09654 0.48505 0.0
H1111 H 0.2895 0.11511 0.38811 0.0
H1112 H 0.31434 0.11353 0.45259 0.0
H1113 H 0.36766 0.11339 0.36602 0.0
H1114 H 0.43111 0.05707 0.48078 0.0
H1115 H 0.41521 0.08617 0.45931 0.0
C1116 C 0.4035 0.30873 0.35736 0.0
C1117 C 0.39739 0.31166 0.30631 0.0
C1118 C 0.40631 0.32426 0.39035 0.0
C1119 C 0.40839 0.3781 0.39294 0.0
H1120 H 0.46056 0.36743 0.43365 0.0
C1121 C 0.46998 0.43365 0.38764 0.0
C1122 C 0.48509 0.43181 0.42297 0.0
C1123 C 0.45474 0.42058 0.38774 0.0
C1124 C 0.44591 0.37077 0.42383 0.0
H1125 H 0.38471 0.33257 0.25512 0.0
H1126 H 0.39124 0.35969 0.31054 0.0
H1127 H 0.43934 0.34139 0.41377 0.0
H1128 H 0.49554 0.4151 0.48746 0.0
H1129 H 0.46876 0.393 0.48895 0.0
H1130 H 0.41575 0.4078 0.40042 0.0
C1131 C 0.39408 0.34554 0.32531 0.0
C1132 C 0.43356 0.35569 0.41258 0.0
C1133 C 0.39061 0.32991 0.29298 0.0
C1134 C 0.48413 0.41713 0.45986 0.0
C1135 C 0.46884 0.40427 0.4604 0.0
C1136 C 0.42087 0.3933 0.40421 0.0
C1137 C 0.40366 0.343 0.37239 0.0
C1138 C 0.41479 0.35908 0.3955 0.0
C1139 C 0.45424 0.40547 0.42341 0.0
C1140 C 0.43993 0.38977 0.41845 0.0
H1141 H 0.40839 0.29491 0.37025 0.0
H1142 H 0.41273 0.3217 0.42766 0.0
H1143 H 0.39399 0.38127 0.3804 0.0
H1144 H 0.47004 0.44503 0.3594 0.0
H1145 H 0.44381 0.42186 0.35846 0.0
C1146 C 0.19768 0.41161 0.36452 0.0
C1147 C 0.19167 0.41535 0.31374 0.0
C1148 C 0.18572 0.41573 0.40638 0.0
C1149 C 0.13669 0.43129 0.44335 0.0
H1150 H 0.16364 0.46974 0.52326 0.0
C1151 C 0.10136 0.50001 0.50999 0.0
C1152 C 0.10798 0.50984 0.5538 0.0
C1153 C 0.10973 0.48287 0.49478 0.0
C1154 C 0.15585 0.45872 0.50264 0.0
H1155 H 0.16745 0.42447 0.26758 0.0
H1156 H 0.14671 0.431 0.33986 0.0
H1157 H 0.18165 0.4474 0.47098 0.0
H1158 H 0.12788 0.50874 0.61765 0.0
H1159 H 0.14248 0.47867 0.59128 0.0
H1160 H 0.11081 0.44324 0.4732 0.0
C1161 C 0.16068 0.42502 0.34751 0.0
C1162 C 0.16623 0.44585 0.47259 0.0
C1163 C 0.17267 0.4212 0.30579 0.0
C1164 C 0.12268 0.50169 0.58321 0.0
C1165 C 0.131 0.48443 0.56818 0.0
C1166 C 0.12629 0.44406 0.47378 0.0
C1167 C 0.16741 0.42329 0.39821 0.0
C1168 C 0.15672 0.43265 0.44064 0.0
C1169 C 0.12492 0.47504 0.52304 0.0
C1170 C 0.13573 0.45858 0.50163 0.0
H1171 H 0.212 0.40656 0.37217 0.0
H1172 H 0.19117 0.414 0.44514 0.0
H1173 H 0.12901 0.42108 0.4196 0.0
H1174 H 0.09026 0.50598 0.48592 0.0
H1175 H 0.1049 0.47632 0.45923 0.0
C1176 C 0.93022 0.80535 0.84903 0.0
C1177 C 0.92077 0.81554 0.88841 0.0
C1178 C 0.93669 0.81467 0.80485 0.0
C1179 C 0.94041 0.8618 0.7382 0.0
H1180 H 0.99415 0.84837 0.734 0.0
C1181 C 1.00014 0.91469 0.68063 0.0
C1182 C 0.01665 0.90783 0.65559 0.0
C1183 C 0.98566 0.90218 0.69647 0.0
C1184 C 0.97914 0.85211 0.73343 0.0
H1185 H 0.90773 0.8428 0.907 0.0
H1186 H 0.92018 0.8593 0.83156 0.0
H1187 H 0.97189 0.82817 0.78004 0.0
H1188 H 0.03055 0.88201 0.62806 0.0
H1189 H 1.00508 0.86048 0.65389 0.0
H1190 H 0.94807 0.88629 0.69297 0.0
C1191 C 0.92258 0.84409 0.83494 0.0
C1192 C 0.96628 0.84045 0.75988 0.0
C1193 C 0.91568 0.83465 0.87877 0.0
C1194 C 0.01803 0.88806 0.64625 0.0
C1195 C 1.00346 0.87559 0.66166 0.0
C1196 C 0.95334 0.8735 0.71142 0.0
C1197 C 0.93428 0.83444 0.79942 0.0
C1198 C 0.94684 0.84533 0.7636 0.0
C1199 C 0.98724 0.88246 0.68769 0.0
C1200 C 0.97294 0.869 0.70983 0.0
H1201 H 0.93443 0.79063 0.85403 0.0
H1202 H 0.94512 0.80669 0.77719 0.0
H1203 H 0.9255 0.86588 0.74011 0.0
H1204 H 0.99822 0.92974 0.68825 0.0
H1205 H 0.97351 0.90796 0.7171 0.0
C1206 C 0.68909 0.92522 0.88733 0.0
C1207 C 0.69016 0.91168 0.92721 0.0
C1208 C 0.67214 0.92745 0.85972 0.0
C1209 C 0.62393 0.92645 0.90154 0.0
H1210 H 0.61366 0.94984 0.76929 0.0
C1211 C 0.56005 0.97643 0.88017 0.0
C1212 C 0.56314 0.99299 0.85088 0.0
C1213 C 0.57291 0.96128 0.87758 0.0
C1214 C 0.61632 0.94344 0.80653 0.0
H1215 H 0.67576 0.88746 0.96237 0.0
H1216 H 0.64601 0.8916 0.91466 0.0
H1217 H 0.64211 0.93008 0.77996 0.0
H1218 H 0.58191 1.00661 0.79525 0.0
H1219 H 0.60481 0.98062 0.79238 0.0
H1220 H 0.59954 0.94102 0.93009 0.0
C1221 C 0.65813 0.90071 0.90552 0.0
C1222 C 0.63247 0.93192 0.81233 0.0
C1223 C 0.67513 0.8984 0.93293 0.0
C1224 C 0.57913 0.99395 0.81812 0.0
C1225 C 0.59217 0.97892 0.81611 0.0
C1226 C 0.60806 0.93819 0.89608 0.0
C1227 C 0.65602 0.91622 0.87173 0.0
C1228 C 0.63675 0.92384 0.86043 0.0
C1229 C 0.58936 0.96243 0.84633 0.0
C1230 C 0.60437 0.94741 0.84903 0.0
H1231 H 0.70038 0.93567 0.88162 0.0
H1232 H 0.67099 0.9395 0.83378 0.0
H1233 H 0.627 0.92076 0.93943 0.0
H1234 H 0.54764 0.97515 0.90501 0.0
H1235 H 0.57005 0.94875 0.90078 0.0
C1236 C 0.6187 0.70268 0.83786 0.0
C1237 C 0.61286 0.69839 0.88868 0.0
C1238 C 0.61568 0.68952 0.79794 0.0
C1239 C 0.59935 0.64039 0.76648 0.0
H1240 H 0.55742 0.66567 0.69761 0.0
C1241 C 0.52884 0.60238 0.72957 0.0
C1242 C 0.51602 0.6089 0.69201 0.0
C1243 C 0.54653 0.61133 0.73636 0.0
C1244 C 0.56935 0.65826 0.71475 0.0
H1245 H 0.60203 0.67527 0.93734 0.0
H1246 H 0.59804 0.65255 0.86914 0.0
H1247 H 0.58187 0.6846 0.73964 0.0
H1248 H 0.51214 0.62929 0.63021 0.0
H1249 H 0.54329 0.64457 0.6408 0.0
H1250 H 0.58647 0.61399 0.74325 0.0
C1251 C 0.60444 0.66626 0.85988 0.0
C1252 C 0.58347 0.66921 0.73888 0.0
C1253 C 0.60684 0.67953 0.89942 0.0
C1254 C 0.52157 0.62418 0.66019 0.0
C1255 C 0.53947 0.6329 0.66623 0.0
C1256 C 0.58544 0.6294 0.74138 0.0
C1257 C 0.60754 0.67157 0.80848 0.0
C1258 C 0.59788 0.66037 0.7677 0.0
C1259 C 0.55202 0.62692 0.7053 0.0
C1260 C 0.56954 0.63819 0.71824 0.0
H1261 H 0.62428 0.71665 0.82798 0.0
H1262 H 0.61839 0.69385 0.7585 0.0
H1263 H 0.61042 0.63326 0.78823 0.0
H1264 H 0.52491 0.59082 0.75528 0.0
H1265 H 0.55546 0.60653 0.76776 0.0
C1266 C 0.80826 0.60208 0.81487 0.0
C1267 C 0.81787 0.60733 0.86045 0.0
C1268 C 0.8185 0.59788 0.77003 0.0
C1269 C 0.86805 0.59526 0.71445 0.0
H1270 H 0.85084 0.54476 0.67313 0.0
C1271 C 0.91691 0.53234 0.69156 0.0
C1272 C 0.91233 0.51685 0.65909 0.0
C1273 C 0.9056 0.54863 0.69254 0.0
C1274 C 0.85569 0.55906 0.68262 0.0
H1275 H 0.84561 0.61466 0.89239 0.0
H1276 H 0.86352 0.60645 0.8153 0.0
H1277 H 0.82936 0.56537 0.72016 0.0
H1278 H 0.89316 0.50731 0.59844 0.0
H1279 H 0.87279 0.5356 0.60194 0.0
H1280 H 0.895 0.58808 0.68024 0.0
C1281 C 0.84805 0.60571 0.81379 0.0
C1282 C 0.84332 0.57098 0.70981 0.0
C1283 C 0.83779 0.61013 0.85848 0.0
C1284 C 0.89682 0.51871 0.62495 0.0
C1285 C 0.88526 0.53498 0.62656 0.0
C1286 C 0.88047 0.58328 0.68734 0.0
C1287 C 0.8386 0.59858 0.76986 0.0
C1288 C 0.8497 0.58878 0.72864 0.0
C1289 C 0.88919 0.54982 0.6617 0.0
C1290 C 0.87475 0.56463 0.67386 0.0
H1291 H 0.79294 0.59975 0.81465 0.0
H1292 H 0.81073 0.59286 0.73652 0.0
H1293 H 0.87326 0.60908 0.72721 0.0
H1294 H 0.92846 0.53149 0.71917 0.0
H1295 H 0.90888 0.55959 0.72076 0.0
C1296 C 0.05481 0.18775 0.92435 0.0
C1297 C 0.03938 0.19722 0.94809 0.0
C1298 C 0.05177 0.17245 0.8903 0.0
C1299 C 0.01595 0.13491 0.85734 0.0
H1300 H 0.04928 0.12617 0.74011 0.0
C1301 C 1.00359 0.07085 0.71804 0.0
C1302 C 0.0196 0.0615 0.69704 0.0
C1303 C 1.00563 0.08789 0.74613 0.0
C1304 C 0.03993 0.12819 0.77297 0.0
H1305 H 0.00849 0.19817 0.95287 0.0
H1306 H 1.00308 0.17148 0.89296 0.0
H1307 H 0.05296 0.15518 0.79131 0.0
H1308 H 0.05029 0.06337 0.68788 0.0
H1309 H 0.05406 0.09267 0.73836 0.0
H1310 H 1.00309 0.10783 0.83962 0.0
C1311 C 0.01764 0.17584 0.90124 0.0
C1312 C 0.04203 0.14496 0.80244 0.0
C1313 C 0.02071 0.19132 0.93517 0.0
C1314 C 0.03771 0.06987 0.70449 0.0
C1315 C 0.0398 0.08692 0.73285 0.0
C1316 C 0.01388 0.11812 0.82797 0.0
C1317 C 0.03315 0.16596 0.87882 0.0
C1318 C 0.03015 0.14856 0.84536 0.0
C1319 C 0.02377 0.09623 0.75436 0.0
C1320 C 0.02588 0.11439 0.78535 0.0
H1321 H 0.0694 0.19194 0.93305 0.0
H1322 H 0.06413 0.16525 0.87445 0.0
H1323 H 1.00672 0.1369 0.89047 0.0
H1324 H 0.98935 0.06496 0.7129 0.0
H1325 H 0.99284 0.09467 0.76083 0.0
C1326 C 0.33342 0.05401 0.90266 0.0
C1327 C 0.32757 0.04057 0.93989 0.0
C1328 C 0.34844 0.05008 0.86852 0.0
C1329 C 0.37927 0.01286 0.81079 0.0
H1330 H 0.41731 0.05339 0.80942 0.0
C1331 C 0.45389 1.00325 0.71219 0.0
C1332 C 0.46336 0.01938 0.69185 0.0
C1333 C 0.43671 1.00511 0.74 0.0
C1334 C 0.40679 0.042 0.80817 0.0
H1335 H 0.33228 0.01195 0.96818 0.0
H1336 H 0.35835 1.00476 0.90716 0.0
H1337 H 0.38813 0.05725 0.8591 0.0
H1338 H 0.46164 0.05008 0.68336 0.0
H1339 H 0.43149 0.05331 0.72967 0.0
H1340 H 0.39771 0.99774 0.75886 0.0
C1341 C 0.35127 0.01845 0.90476 0.0
C1342 C 0.38998 0.04421 0.83716 0.0
C1343 C 0.33623 0.02248 0.93946 0.0
C1344 C 0.45493 0.03736 0.69907 0.0
C1345 C 0.43759 0.0392 0.72613 0.0
C1346 C 0.39602 0.01074 0.78099 0.0
C1347 C 0.35806 0.03251 0.87023 0.0
C1348 C 0.37594 0.02972 0.83891 0.0
C1349 C 0.42825 0.02314 0.74778 0.0
C1350 C 0.41012 0.0253 0.77911 0.0
H1351 H 0.32711 0.06811 0.9021 0.0
H1352 H 0.35299 0.06112 0.8419 0.0
H1353 H 0.36875 1.00144 0.81101 0.0
H1354 H 0.45998 0.98916 0.70762 0.0
H1355 H 0.43034 0.99236 0.75635 0.0
C1356 C 0.51163 0.33821 0.94305 0.0
C1357 C 0.49537 0.32677 0.93426 0.0
C1358 C 0.51595 0.35372 0.91034 0.0
C1359 C 0.5015 0.37723 0.78482 0.0
H1360 H 0.51993 0.42322 0.85222 0.0
C1361 C 0.49591 0.45245 0.69047 0.0
C1362 C 0.51215 0.46434 0.69347 0.0
C1363 C 0.49491 0.43536 0.71875 0.0
C1364 C 0.51491 0.41047 0.83263 0.0
H1365 H 0.47143 0.32214 0.88299 0.0
H1366 H 0.47872 0.34884 0.82658 0.0
H1367 H 0.51756 0.3935 0.90086 0.0
H1368 H 0.53996 0.46771 0.72895 0.0
H1369 H 0.53813 0.43807 0.77885 0.0
H1370 H 0.49829 0.39448 0.71706 0.0
C1371 C 0.48848 0.34593 0.85787 0.0
C1372 C 0.51366 0.39329 0.86051 0.0
C1373 C 0.48427 0.33046 0.89027 0.0
C1374 C 0.52727 0.45883 0.72575 0.0
C1375 C 0.52616 0.4419 0.75462 0.0
C1376 C 0.50252 0.39446 0.7572 0.0
C1377 C 0.50402 0.35827 0.86818 0.0
C1378 C 0.5068 0.37635 0.83724 0.0
C1379 C 0.51004 0.4298 0.75119 0.0
C1380 C 0.50914 0.41137 0.78073 0.0
H1381 H 0.52026 0.33597 0.97712 0.0
H1382 H 0.52829 0.36253 0.91924 0.0
H1383 H 0.49654 0.36457 0.76478 0.0
H1384 H 0.4841 0.45624 0.66564 0.0
H1385 H 0.48218 0.42653 0.71549 0.0
C1386 C 0.18861 0.50832 0.93553 0.0
C1387 C 0.20019 0.49214 0.92903 0.0
C1388 C 0.17277 0.51136 0.90324 0.0
C1389 C 0.15071 0.49844 0.77772 0.0
H1390 H 0.10263 0.50757 0.84772 0.0
C1391 C 0.07789 0.49648 0.66719 0.0
C1392 C 0.06265 0.50742 0.68624 0.0
C1393 C 0.09511 0.49512 0.695 0.0
C1394 C 0.11589 0.50545 0.82695 0.0
H1395 H 0.20459 0.46683 0.88259 0.0
H1396 H 0.17746 0.4725 0.82506 0.0
H1397 H 0.132 0.50565 0.8973 0.0
H1398 H 0.05378 0.52614 0.74817 0.0
H1399 H 0.08386 0.52489 0.79459 0.0
H1400 H 0.13483 0.49862 0.70725 0.0
C1401 C 0.1805 0.48279 0.85522 0.0
C1402 C 0.13282 0.50425 0.85576 0.0
C1403 C 0.19608 0.47956 0.8881 0.0
C1404 C 0.06522 0.51744 0.73267 0.0
C1405 C 0.08252 0.51651 0.75969 0.0
C1406 C 0.13381 0.49999 0.74868 0.0
C1407 C 0.16832 0.49846 0.86312 0.0
C1408 C 0.15047 0.50065 0.83166 0.0
C1409 C 0.09775 0.50509 0.74195 0.0
C1410 C 0.11603 0.50348 0.77274 0.0
H1411 H 0.19123 0.51808 0.96722 0.0
H1412 H 0.16376 0.52363 0.91026 0.0
H1413 H 0.16406 0.49572 0.75781 0.0
H1414 H 0.07625 0.48844 0.63173 0.0
H1415 H 0.10614 0.48583 0.68015 0.0
C1416 C 1.00394 0.82909 0.33321 0.0
C1417 C 0.98585 0.8257 0.31094 0.0
C1418 C 0.00693 0.84487 0.36635 0.0
C1419 C 0.98886 0.89326 0.38727 0.0
H1420 H 0.0123 0.8923 0.52251 0.0
C1421 C 0.00962 0.96276 0.49618 0.0
C1422 C 1.00444 0.964 0.54851 0.0
C1423 C 0.00814 0.94542 0.46924 0.0
C1424 C 1.00577 0.89281 0.48474 0.0
H1425 H 0.95642 0.83547 0.3103 0.0
H1426 H 0.96181 0.86291 0.36605 0.0
H1427 H 0.00875 0.86248 0.47301 0.0
H1428 H 0.99348 0.94793 0.61319 0.0
H1429 H 0.99112 0.91742 0.56637 0.0
H1430 H 0.98598 0.92347 0.39833 0.0
C1431 C 0.97374 0.85362 0.35743 0.0
C1432 C 1.00385 0.87574 0.45629 0.0
C1433 C 0.9707 0.83785 0.32524 0.0
C1434 C 0.9979 0.94734 0.57326 0.0
C1435 C 0.99654 0.9299 0.5464 0.0
C1436 C 0.99113 0.91031 0.4151 0.0
C1437 C 0.99195 0.85765 0.3775 0.0
C1438 C 0.99517 0.87574 0.40737 0.0
C1439 C 1.00159 0.92871 0.49391 0.0
C1440 C 0.99951 0.91036 0.46437 0.0
H1441 H 0.01595 0.82012 0.32321 0.0
H1442 H 0.02114 0.84755 0.38136 0.0
H1443 H 0.98218 0.8938 0.34967 0.0
H1444 H 0.01503 0.97519 0.47601 0.0
H1445 H 0.01231 0.94507 0.42902 0.0
C1446 C 0.69774 0.00762 0.336 0.0
C1447 C 0.70386 0.98892 0.32523 0.0
C1448 C 0.6825 0.01091 0.37056 0.0
C1449 C 0.65096 0.98659 0.47005 0.0
H1450 H 0.61481 0.02568 0.43132 0.0
C1451 C 0.58031 0.99913 0.58661 0.0
C1452 C 0.56399 1.00446 0.55862 0.0
C1453 C 0.59844 0.9985 0.56274 0.0
C1454 C 0.62462 0.01455 0.44266 0.0
H1455 H 0.69947 0.95918 0.34536 0.0
H1456 H 0.67303 0.96475 0.404 0.0
H1457 H 0.64443 0.02233 0.38309 0.0
H1458 H 0.55406 0.01286 0.48291 0.0
H1459 H 0.58506 0.01103 0.44122 0.0
H1460 H 0.63069 0.9782 0.52799 0.0
C1461 C 0.67989 0.97702 0.38646 0.0
C1462 C 0.6419 0.01283 0.41531 0.0
C1463 C 0.69507 0.97378 0.35224 0.0
C1464 C 0.56625 0.00872 0.50594 0.0
C1465 C 0.58422 0.00794 0.48204 0.0
C1466 C 0.6336 0.98822 0.49717 0.0
C1467 C 0.67297 0.9956 0.39541 0.0
C1468 C 0.65529 0.99863 0.42794 0.0
C1469 C 0.60072 1.00295 0.50994 0.0
C1470 C 0.61995 1.00203 0.48345 0.0
H1471 H 0.70408 0.01963 0.31583 0.0
H1472 H 0.67795 0.02548 0.37696 0.0
H1473 H 0.66092 0.97568 0.48196 0.0
H1474 H 0.57908 0.99531 0.6269 0.0
H1475 H 0.61068 0.99467 0.58593 0.0
C1476 C 0.52198 0.69108 0.30744 0.0
C1477 C 0.54086 0.69783 0.30206 0.0
C1478 C 0.51748 0.67673 0.34377 0.0
C1479 C 0.53916 0.64766 0.45319 0.0
H1480 H 0.50028 0.61102 0.41323 0.0
C1481 C 0.52601 0.57879 0.57495 0.0
C1482 C 0.5189 0.56234 0.55034 0.0
C1483 C 0.52739 0.59627 0.54841 0.0
C1484 C 0.51149 0.62082 0.42488 0.0
H1485 H 0.56945 0.69573 0.33332 0.0
H1486 H 0.56204 0.67074 0.39426 0.0
H1487 H 0.50493 0.6396 0.36248 0.0
H1488 H 0.50682 0.55177 0.47903 0.0
H1489 H 0.51014 0.58148 0.43217 0.0
H1490 H 0.54676 0.62831 0.51308 0.0
C1491 C 0.55038 0.67643 0.37181 0.0
C1492 C 0.51387 0.63767 0.39604 0.0
C1493 C 0.55475 0.69085 0.3363 0.0
C1494 C 0.51289 0.56396 0.49887 0.0
C1495 C 0.5144 0.58133 0.4722 0.0
C1496 C 0.5371 0.63062 0.48123 0.0
C1497 C 0.53179 0.66861 0.37537 0.0
C1498 C 0.52794 0.65136 0.40916 0.0
C1499 C 0.52162 0.59795 0.49641 0.0
C1500 C 0.52335 0.61669 0.46741 0.0
H1501 H 0.51095 0.69603 0.28153 0.0
H1502 H 0.50286 0.67164 0.34583 0.0
H1503 H 0.54982 0.65784 0.46611 0.0
H1504 H 0.53082 0.57812 0.61457 0.0
H1505 H 0.53301 0.60845 0.56902 0.0
C1506 C 0.83708 0.55739 0.3315 0.0
C1507 C 0.83139 0.54442 0.29281 0.0
C1508 C 0.85132 0.55272 0.36721 0.0
C1509 C 0.89266 0.51951 0.38392 0.0
H1510 H 0.89537 0.54346 0.51857 0.0
C1511 C 0.95443 0.50364 0.52783 0.0
C1512 C 0.96243 0.51924 0.55463 0.0
C1513 C 0.93763 0.50569 0.49877 0.0
C1514 C 0.89493 0.5367 0.48103 0.0
H1515 H 0.83562 0.51579 0.26367 0.0
H1516 H 0.86006 0.50725 0.32724 0.0
H1517 H 0.86695 0.54758 0.46568 0.0
H1518 H 0.95835 0.549 0.57398 0.0
H1519 H 0.92914 0.55272 0.52306 0.0
H1520 H 0.92062 0.5085 0.39979 0.0
C1521 C 0.85384 0.52135 0.32911 0.0
C1522 C 0.87856 0.53912 0.45034 0.0
C1523 C 0.83953 0.52609 0.29307 0.0
C1524 C 0.95284 0.53682 0.55286 0.0
C1525 C 0.93592 0.53886 0.52411 0.0
C1526 C 0.90893 0.51692 0.41491 0.0
C1527 C 0.86038 0.5348 0.36594 0.0
C1528 C 0.8772 0.53079 0.40083 0.0
C1529 C 0.92815 0.52336 0.4961 0.0
C1530 C 0.91043 0.52563 0.46377 0.0
H1531 H 0.83111 0.57164 0.33261 0.0
H1532 H 0.85586 0.56366 0.39415 0.0
H1533 H 0.89253 0.51311 0.34592 0.0
H1534 H 0.96134 0.48984 0.5286 0.0
H1535 H 0.932 0.49334 0.47859 0.0
loop_
_geom_bond_atom_site_label_1
_geom_bond_atom_site_label_2
_geom_bond_distance
_geom_bond_site_symmetry_2
_ccdc_geom_bond_type
C0 C1 1.391 . S
C0 C4 1.391 . S
C0 H42 0.948 . S
C1 C0 1.391 . S
C1 C2 1.391 . S
C2 C1 1.391 . S
C2 H58 0.947 . S
C2 C59 1.392 . S
C3 C4 1.391 . S
C3 C7 1.397 . S
C3 C59 1.419 . S
C4 C0 1.391 . S
C4 C3 1.391 . S
C4 C5 1.399 . S
C5 C4 1.399 . S
C5 C8 1.396 . S
C5 C17 1.453 . S
C5 C18 1.684 . S
H6 C30 0.948 . S
C7 C3 1.397 . S
C7 C8 1.394 . S
C7 C26 1.723 . S
C8 C5 1.396 . S
C8 C7 1.394 . S
C8 C38 1.723 . S
H9 C32 0.947 . S
H10 C33 0.948 . S
H11 C39 0.982 . S
H12 C40 0.979 . S
H13 C40 0.980 . S
H14 C40 0.983 . S
H15 C39 0.979 . S
H16 C39 0.977 . S
C17 C5 1.453 . S
C17 H46 0.982 . S
C17 H47 0.979 . S
C17 H48 0.977 . S
C18 C5 1.684 . S
C18 H43 0.979 . S
C18 H44 0.980 . S
C18 H45 0.983 . S
C19 C20 1.391 . S
C19 C24 1.391 . S
C19 H49 0.948 . S
C20 C19 1.391 . S
C20 C21 1.391 . S
C21 C20 1.391 . S
C21 C22 1.392 . S
C21 H50 0.947 1_554 S
C22 C21 1.392 . S
C22 C23 1.419 . S
C22 H51 0.948 . S
C23 C22 1.419 . S
C23 C24 1.391 . S
C23 C27 1.397 . S
C24 C19 1.391 . S
C24 C23 1.391 . S
C24 C25 1.399 . S
C25 C24 1.399 . S
C25 C26 1.396 . S
C25 C28 1.453 . S
C25 C29 1.684 . S
C26 C7 1.723 . S
C26 C25 1.396 . S
C26 C27 1.394 . S
C27 C23 1.397 . S
C27 C26 1.394 . S
C27 C37 1.723 . S
C28 C25 1.453 . S
C28 H52 0.982 . S
C28 H53 0.979 . S
C28 H54 0.977 . S
C29 C25 1.684 . S
C29 H55 0.979 . S
C29 H56 0.980 . S
C29 H57 0.983 . S
C30 H6 0.948 . S
C30 C31 1.391 . S
C30 C35 1.391 . S
C31 C30 1.391 . S
C31 C32 1.391 . S
C32 H9 0.947 . S
C32 C31 1.391 . S
C32 C33 1.392 . S
C33 H10 0.948 . S
C33 C32 1.392 . S
C33 C34 1.419 . S
C34 C33 1.419 . S
C34 C35 1.391 . S
C34 C38 1.397 . S
C35 C30 1.391 . S
C35 C34 1.391 . S
C35 C36 1.399 . S
C36 C35 1.399 . S
C36 C37 1.396 . S
C36 C39 1.453 . S
C36 C40 1.684 . S
C37 C27 1.723 . S
C37 C36 1.396 . S
C37 C38 1.394 . S
C38 C8 1.723 . S
C38 C34 1.397 . S
C38 C37 1.394 . S
C39 H11 0.982 . S
C39 H15 0.979 . S
C39 H16 0.977 . S
C39 C36 1.453 . S
C40 H12 0.979 . S
C40 H13 0.980 . S
C40 H14 0.983 . S
C40 C36 1.684 . S
H41 C59 0.948 . S
H42 C0 0.948 . S
H43 C18 0.979 . S
H44 C18 0.980 . S
H45 C18 0.983 . S
H46 C17 0.982 . S
H47 C17 0.979 . S
H48 C17 0.977 . S
H49 C19 0.948 . S
H50 C21 0.947 1_556 S
H51 C22 0.948 . S
H52 C28 0.982 . S
H53 C28 0.979 . S
H54 C28 0.977 . S
H55 C29 0.979 . S
H56 C29 0.980 . S
H57 C29 0.983 . S
H58 C2 0.947 . S
C59 C2 1.392 . S
C59 C3 1.419 . S
C59 H41 0.948 . S
C60 C61 1.391 . S
C60 C64 1.391 . S
C60 H102 0.948 1_554 S
C61 C60 1.391 . S
C61 C62 1.391 . S
C62 C61 1.391 . S
C62 H118 0.947 . S
C62 C119 1.392 . S
C63 C64 1.391 . S
C63 C67 1.397 . S
C63 C119 1.419 . S
C64 C60 1.391 . S
C64 C63 1.391 . S
C64 C65 1.399 . S
C65 C64 1.399 . S
C65 C68 1.396 . S
C65 C77 1.453 . S
C65 C78 1.684 . S
H66 C90 0.948 . S
C67 C63 1.397 . S
C67 C68 1.394 . S
C67 C86 1.723 . S
C68 C65 1.396 . S
C68 C67 1.394 . S
C68 C98 1.723 . S
H69 C92 0.947 . S
H70 C93 0.948 . S
H71 C99 0.982 . S
H72 C100 0.979 . S
H73 C100 0.980 . S
H74 C100 0.983 . S
H75 C99 0.979 . S
H76 C99 0.977 . S
C77 C65 1.453 . S
C77 H106 0.982 . S
C77 H107 0.979 . S
C77 H108 0.977 . S
C78 C65 1.684 . S
C78 H103 0.979 . S
C78 H104 0.980 . S
C78 H105 0.983 1_554 S
C79 C80 1.391 . S
C79 C84 1.391 . S
C79 H109 0.948 . S
C80 C79 1.391 . S
C80 C81 1.391 . S
C81 C80 1.391 . S
C81 C82 1.392 . S
C81 H110 0.947 . S
C82 C81 1.392 . S
C82 C83 1.419 . S
C82 H111 0.948 . S
C83 C82 1.419 . S
C83 C84 1.391 . S
C83 C87 1.397 . S
C84 C79 1.391 . S
C84 C83 1.391 . S
C84 C85 1.399 . S
C85 C84 1.399 . S
C85 C86 1.396 . S
C85 C88 1.453 . S
C85 C89 1.684 . S
C86 C67 1.723 . S
C86 C85 1.396 . S
C86 C87 1.394 . S
C87 C83 1.397 . S
C87 C86 1.394 . S
C87 C97 1.723 . S
C88 C85 1.453 . S
C88 H112 0.982 . S
C88 H113 0.979 . S
C88 H114 0.977 . S
C89 C85 1.684 . S
C89 H115 0.979 . S
C89 H116 0.980 . S
C89 H117 0.983 . S
C90 H66 0.948 . S
C90 C91 1.391 . S
C90 C95 1.391 . S
C91 C90 1.391 . S
C91 C92 1.391 . S
C92 H69 0.947 . S
C92 C91 1.391 . S
C92 C93 1.392 . S
C93 H70 0.948 . S
C93 C92 1.392 . S
C93 C94 1.419 . S
C94 C93 1.419 . S
C94 C95 1.391 . S
C94 C98 1.397 . S
C95 C90 1.391 . S
C95 C94 1.391 . S
C95 C96 1.399 . S
C96 C95 1.399 . S
C96 C97 1.396 . S
C96 C99 1.453 . S
C96 C100 1.684 . S
C97 C87 1.723 . S
C97 C96 1.396 . S
C97 C98 1.394 . S
C98 C68 1.723 . S
C98 C94 1.397 . S
C98 C97 1.394 . S
C99 H71 0.982 . S
C99 H75 0.979 . S
C99 H76 0.977 . S
C99 C96 1.453 . S
C100 H72 0.979 . S
C100 H73 0.980 . S
C100 H74 0.983 . S
C100 C96 1.684 . S
H101 C119 0.948 . S
H102 C60 0.948 1_556 S
H103 C78 0.979 . S
H104 C78 0.980 . S
H105 C78 0.983 1_556 S
H106 C77 0.982 . S
H107 C77 0.979 . S
H108 C77 0.977 . S
H109 C79 0.948 . S
H110 C81 0.947 . S
H111 C82 0.948 . S
H112 C88 0.982 . S
H113 C88 0.979 . S
H114 C88 0.977 . S
H115 C89 0.979 . S
H116 C89 0.980 . S
H117 C89 0.983 . S
H118 C62 0.947 . S
C119 C62 1.392 . S
C119 C63 1.419 . S
C119 H101 0.948 . S
C120 C121 1.391 . S
C120 C124 1.391 . S
C120 H162 0.948 . S
C121 C120 1.391 . S
C121 C122 1.391 . S
C122 C121 1.391 . S
C122 H178 0.947 . S
C122 C179 1.392 . S
C123 C124 1.391 . S
C123 C127 1.397 . S
C123 C179 1.419 . S
C124 C120 1.391 . S
C124 C123 1.391 . S
C124 C125 1.399 . S
C125 C124 1.399 . S
C125 C128 1.396 . S
C125 C137 1.453 . S
C125 C138 1.684 . S
H126 C150 0.948 . S
C127 C123 1.397 . S
C127 C128 1.394 . S
C127 C146 1.723 . S
C128 C125 1.396 . S
C128 C127 1.394 . S
C128 C158 1.723 . S
H129 C152 0.947 . S
H130 C153 0.948 . S
H131 C159 0.982 . S
H132 C160 0.979 . S
H133 C160 0.980 . S
H134 C160 0.983 . S
H135 C159 0.979 . S
H136 C159 0.977 . S
C137 C125 1.453 . S
C137 H166 0.982 . S
C137 H167 0.979 . S
C137 H168 0.977 . S
C138 C125 1.684 . S
C138 H163 0.979 . S
C138 H164 0.980 . S
C138 H165 0.983 . S
C139 C140 1.391 . S
C139 C144 1.391 . S
C139 H169 0.948 1_554 S
C140 C139 1.391 . S
C140 C141 1.391 . S
C141 C140 1.391 . S
C141 C142 1.392 . S
C141 H170 0.947 . S
C142 C141 1.392 . S
C142 C143 1.419 . S
C142 H171 0.948 . S
C143 C142 1.419 . S
C143 C144 1.391 . S
C143 C147 1.397 . S
C144 C139 1.391 . S
C144 C143 1.391 . S
C144 C145 1.399 . S
C145 C144 1.399 . S
C145 C146 1.396 . S
C145 C148 1.453 . S
C145 C149 1.684 . S
C146 C127 1.723 . S
C146 C145 1.396 . S
C146 C147 1.394 . S
C147 C143 1.397 . S
C147 C146 1.394 . S
C147 C157 1.723 . S
C148 C145 1.453 . S
C148 H172 0.982 . S
C148 H173 0.979 . S
C148 H174 0.977 . S
C149 C145 1.684 . S
C149 H175 0.979 . S
C149 H176 0.980 . S
C149 H177 0.983 1_554 S
C150 H126 0.948 . S
C150 C151 1.391 . S
C150 C155 1.391 . S
C151 C150 1.391 . S
C151 C152 1.391 . S
C152 H129 0.947 . S
C152 C151 1.391 . S
C152 C153 1.392 . S
C153 H130 0.948 . S
C153 C152 1.392 . S
C153 C154 1.419 . S
C154 C153 1.419 . S
C154 C155 1.391 . S
C154 C158 1.397 . S
C155 C150 1.391 . S
C155 C154 1.391 . S
C155 C156 1.399 . S
C156 C155 1.399 . S
C156 C157 1.396 . S
C156 C159 1.453 . S
C156 C160 1.684 . S
C157 C147 1.723 . S
C157 C156 1.396 . S
C157 C158 1.394 . S
C158 C128 1.723 . S
C158 C154 1.397 . S
C158 C157 1.394 . S
C159 H131 0.982 . S
C159 H135 0.979 . S
C159 H136 0.977 . S
C159 C156 1.453 . S
C160 H132 0.979 . S
C160 H133 0.980 . S
C160 H134 0.983 . S
C160 C156 1.684 . S
H161 C179 0.948 . S
H162 C120 0.948 . S
H163 C138 0.979 . S
H164 C138 0.980 . S
H165 C138 0.983 . S
H166 C137 0.982 . S
H167 C137 0.979 . S
H168 C137 0.977 . S
H169 C139 0.948 1_556 S
H170 C141 0.947 . S
H171 C142 0.948 . S
H172 C148 0.982 . S
H173 C148 0.979 . S
H174 C148 0.977 . S
H175 C149 0.979 . S
H176 C149 0.980 . S
H177 C149 0.983 1_556 S
H178 C122 0.947 . S
C179 C122 1.392 . S
C179 C123 1.419 . S
C179 H161 0.948 . S
C180 C181 1.391 . S
C180 C184 1.391 . S
C180 H222 0.948 . S
C181 C180 1.391 . S
C181 C182 1.391 . S
C182 C181 1.391 . S
C182 H238 0.947 . S
C182 C239 1.392 . S
C183 C184 1.391 . S
C183 C187 1.397 . S
C183 C239 1.419 . S
C184 C180 1.391 . S
C184 C183 1.391 . S
C184 C185 1.399 . S
C185 C184 1.399 . S
C185 C188 1.396 . S
C185 C197 1.453 . S
C185 C198 1.684 . S
H186 C210 0.948 . S
C187 C183 1.397 . S
C187 C188 1.394 . S
C187 C206 1.723 . S
C188 C185 1.396 . S
C188 C187 1.394 . S
C188 C218 1.723 . S
H189 C212 0.947 . S
H190 C213 0.948 . S
H191 C219 0.982 . S
H192 C220 0.979 . S
H193 C220 0.980 . S
H194 C220 0.983 . S
H195 C219 0.979 . S
H196 C219 0.977 . S
C197 C185 1.453 . S
C197 H226 0.982 . S
C197 H227 0.979 . S
C197 H228 0.977 . S
C198 C185 1.684 . S
C198 H223 0.979 . S
C198 H224 0.980 . S
C198 H225 0.983 . S
C199 C200 1.391 . S
C199 C204 1.391 . S
C199 H229 0.948 . S
C200 C199 1.391 . S
C200 C201 1.391 . S
C201 C200 1.391 . S
C201 C202 1.392 . S
C201 H230 0.947 1_554 S
C202 C201 1.392 . S
C202 C203 1.419 . S
C202 H231 0.948 . S
C203 C202 1.419 . S
C203 C204 1.391 . S
C203 C207 1.397 . S
C204 C199 1.391 . S
C204 C203 1.391 . S
C204 C205 1.399 . S
C205 C204 1.399 . S
C205 C206 1.396 . S
C205 C208 1.453 . S
C205 C209 1.684 . S
C206 C187 1.723 . S
C206 C205 1.396 . S
C206 C207 1.394 . S
C207 C203 1.397 . S
C207 C206 1.394 . S
C207 C217 1.723 . S
C208 C205 1.453 . S
C208 H232 0.982 . S
C208 H233 0.979 . S
C208 H234 0.977 . S
C209 C205 1.684 . S
C209 H235 0.979 . S
C209 H236 0.980 . S
C209 H237 0.983 . S
C210 H186 0.948 . S
C210 C211 1.391 . S
C210 C215 1.391 . S
C211 C210 1.391 . S
C211 C212 1.391 . S
C212 H189 0.947 . S
C212 C211 1.391 . S
C212 C213 1.392 . S
C213 H190 0.948 . S
C213 C212 1.392 . S
C213 C214 1.419 . S
C214 C213 1.419 . S
C214 C215 1.391 . S
C214 C218 1.397 . S
C215 C210 1.391 . S
C215 C214 1.391 . S
C215 C216 1.399 . S
C216 C215 1.399 . S
C216 C217 1.396 . S
C216 C219 1.453 . S
C216 C220 1.684 . S
C217 C207 1.723 . S
C217 C216 1.396 . S
C217 C218 1.394 . S
C218 C188 1.723 . S
C218 C214 1.397 . S
C218 C217 1.394 . S
C219 H191 0.982 . S
C219 H195 0.979 . S
C219 H196 0.977 . S
C219 C216 1.453 . S
C220 H192 0.979 . S
C220 H193 0.980 . S
C220 H194 0.983 . S
C220 C216 1.684 . S
H221 C239 0.948 . S
H222 C180 0.948 . S
H223 C198 0.979 . S
H224 C198 0.980 . S
H225 C198 0.983 . S
H226 C197 0.982 . S
H227 C197 0.979 . S
H228 C197 0.977 . S
H229 C199 0.948 . S
H230 C201 0.947 1_556 S
H231 C202 0.948 . S
H232 C208 0.982 . S
H233 C208 0.979 . S
H234 C208 0.977 . S
H235 C209 0.979 . S
H236 C209 0.980 . S
H237 C209 0.983 . S
H238 C182 0.947 . S
C239 C182 1.392 . S
C239 C183 1.419 . S
C239 H221 0.948 . S
C240 C241 1.391 . S
C240 C244 1.391 . S
C240 H282 0.948 . S
C241 C240 1.391 . S
C241 C242 1.391 . S
C242 C241 1.391 . S
C242 H298 0.947 . S
C242 C299 1.392 . S
C243 C244 1.391 . S
C243 C247 1.397 . S
C243 C299 1.419 . S
C244 C240 1.391 . S
C244 C243 1.391 . S
C244 C245 1.399 1_554 S
C245 C244 1.399 1_556 S
C245 C248 1.396 1_556 S
C245 C257 1.453 . S
C245 C258 1.684 . S
H246 C270 0.948 . S
C247 C243 1.397 . S
C247 C248 1.394 . S
C247 C266 1.723 . S
C248 C245 1.396 1_554 S
C248 C247 1.394 . S
C248 C278 1.723 1_554 S
H249 C272 0.947 . S
H250 C273 0.948 . S
H251 C279 0.982 . S
H252 C280 0.979 . S
H253 C280 0.980 1_554 S
H254 C280 0.983 . S
H255 C279 0.979 . S
H256 C279 0.977 1_554 S
C257 C245 1.453 . S
C257 H286 0.982 . S
C257 H287 0.979 . S
C257 H288 0.977 . S
C258 C245 1.684 . S
C258 H283 0.979 . S
C258 H284 0.980 . S
C258 H285 0.983 . S
C259 C260 1.391 . S
C259 C264 1.391 . S
C259 H289 0.948 . S
C260 C259 1.391 . S
C260 C261 1.391 . S
C261 C260 1.391 . S
C261 C262 1.392 . S
C261 H290 0.947 . S
C262 C261 1.392 . S
C262 C263 1.419 . S
C262 H291 0.948 . S
C263 C262 1.419 . S
C263 C264 1.391 . S
C263 C267 1.397 . S
C264 C259 1.391 . S
C264 C263 1.391 . S
C264 C265 1.399 . S
C265 C264 1.399 . S
C265 C266 1.396 . S
C265 C268 1.453 . S
C265 C269 1.684 . S
C266 C247 1.723 . S
C266 C265 1.396 . S
C266 C267 1.394 . S
C267 C263 1.397 . S
C267 C266 1.394 . S
C267 C277 1.723 . S
C268 C265 1.453 . S
C268 H292 0.982 . S
C268 H293 0.979 . S
C268 H294 0.977 . S
C269 C265 1.684 . S
C269 H295 0.979 . S
C269 H296 0.980 . S
C269 H297 0.983 . S
C270 H246 0.948 . S
C270 C271 1.391 . S
C270 C275 1.391 . S
C271 C270 1.391 . S
C271 C272 1.391 . S
C272 H249 0.947 . S
C272 C271 1.391 . S
C272 C273 1.392 . S
C273 H250 0.948 . S
C273 C272 1.392 . S
C273 C274 1.419 . S
C274 C273 1.419 . S
C274 C275 1.391 . S
C274 C278 1.397 . S
C275 C270 1.391 . S
C275 C274 1.391 . S
C275 C276 1.399 . S
C276 C275 1.399 . S
C276 C277 1.396 1_556 S
C276 C279 1.453 . S
C276 C280 1.684 . S
C277 C267 1.723 . S
C277 C276 1.396 1_554 S
C277 C278 1.394 1_554 S
C278 C248 1.723 1_556 S
C278 C274 1.397 . S
C278 C277 1.394 1_556 S
C279 H251 0.982 . S
C279 H255 0.979 . S
C279 H256 0.977 1_556 S
C279 C276 1.453 . S
C280 H252 0.979 . S
C280 H253 0.980 1_556 S
C280 H254 0.983 . S
C280 C276 1.684 . S
H281 C299 0.948 . S
H282 C240 0.948 . S
H283 C258 0.979 . S
H284 C258 0.980 . S
H285 C258 0.983 . S
H286 C257 0.982 . S
H287 C257 0.979 . S
H288 C257 0.977 . S
H289 C259 0.948 . S
H290 C261 0.947 . S
H291 C262 0.948 . S
H292 C268 0.982 . S
H293 C268 0.979 . S
H294 C268 0.977 . S
H295 C269 0.979 . S
H296 C269 0.980 . S
H297 C269 0.983 . S
H298 C242 0.947 . S
C299 C242 1.392 . S
C299 C243 1.419 . S
C299 H281 0.948 . S
C300 C301 1.391 . S
C300 C304 1.391 . S
C300 H342 0.948 . S
C301 C300 1.391 . S
C301 C302 1.391 . S
C302 C301 1.391 . S
C302 H358 0.947 . S
C302 C359 1.392 . S
C303 C304 1.391 . S
C303 C307 1.397 . S
C303 C359 1.419 . S
C304 C300 1.391 . S
C304 C303 1.391 . S
C304 C305 1.399 . S
C305 C304 1.399 . S
C305 C308 1.396 . S
C305 C317 1.453 . S
C305 C318 1.684 . S
H306 C330 0.948 . S
C307 C303 1.397 . S
C307 C308 1.394 . S
C307 C326 1.723 . S
C308 C305 1.396 . S
C308 C307 1.394 . S
C308 C338 1.723 . S
H309 C332 0.947 . S
H310 C333 0.948 . S
H311 C339 0.982 . S
H312 C340 0.979 . S
H313 C340 0.980 . S
H314 C340 0.983 . S
H315 C339 0.979 . S
H316 C339 0.977 . S
C317 C305 1.453 . S
C317 H346 0.982 . S
C317 H347 0.979 . S
C317 H348 0.977 . S
C318 C305 1.684 . S
C318 H343 0.979 . S
C318 H344 0.980 . S
C318 H345 0.983 . S
C319 C320 1.391 . S
C319 C324 1.391 . S
C319 H349 0.948 . S
C320 C319 1.391 . S
C320 C321 1.391 . S
C321 C320 1.391 . S
C321 C322 1.392 . S
C321 H350 0.947 . S
C322 C321 1.392 . S
C322 C323 1.419 . S
C322 H351 0.948 . S
C323 C322 1.419 . S
C323 C324 1.391 . S
C323 C327 1.397 . S
C324 C319 1.391 . S
C324 C323 1.391 . S
C324 C325 1.399 . S
C325 C324 1.399 . S
C325 C326 1.396 1_556 S
C325 C328 1.453 . S
C325 C329 1.684 . S
C326 C307 1.723 . S
C326 C325 1.396 1_554 S
C326 C327 1.394 1_554 S
C327 C323 1.397 . S
C327 C326 1.394 1_556 S
C327 C337 1.723 1_556 S
C328 C325 1.453 . S
C328 H352 0.982 . S
C328 H353 0.979 . S
C328 H354 0.977 1_556 S
C329 C325 1.684 . S
C329 H355 0.979 . S
C329 H356 0.980 1_556 S
C329 H357 0.983 . S
C330 H306 0.948 . S
C330 C331 1.391 . S
C330 C335 1.391 . S
C331 C330 1.391 . S
C331 C332 1.391 . S
C332 H309 0.947 . S
C332 C331 1.391 . S
C332 C333 1.392 . S
C333 H310 0.948 . S
C333 C332 1.392 . S
C333 C334 1.419 . S
C334 C333 1.419 . S
C334 C335 1.391 . S
C334 C338 1.397 . S
C335 C330 1.391 . S
C335 C334 1.391 . S
C335 C336 1.399 1_554 S
C336 C335 1.399 1_556 S
C336 C337 1.396 1_556 S
C336 C339 1.453 . S
C336 C340 1.684 . S
C337 C327 1.723 1_554 S
C337 C336 1.396 1_554 S
C337 C338 1.394 . S
C338 C308 1.723 . S
C338 C334 1.397 . S
C338 C337 1.394 . S
C339 H311 0.982 . S
C339 H315 0.979 . S
C339 H316 0.977 . S
C339 C336 1.453 . S
C340 H312 0.979 . S
C340 H313 0.980 . S
C340 H314 0.983 . S
C340 C336 1.684 . S
H341 C359 0.948 . S
H342 C300 0.948 . S
H343 C318 0.979 . S
H344 C318 0.980 . S
H345 C318 0.983 . S
H346 C317 0.982 . S
H347 C317 0.979 . S
H348 C317 0.977 . S
H349 C319 0.948 . S
H350 C321 0.947 . S
H351 C322 0.948 . S
H352 C328 0.982 . S
H353 C328 0.979 . S
H354 C328 0.977 1_554 S
H355 C329 0.979 . S
H356 C329 0.980 1_554 S
H357 C329 0.983 . S
H358 C302 0.947 . S
C359 C302 1.392 . S
C359 C303 1.419 . S
C359 H341 0.948 . S
C360 C361 1.391 . S
C360 C364 1.391 . S
C360 H402 0.948 . S
C361 C360 1.391 . S
C361 C362 1.391 . S
C362 C361 1.391 . S
C362 H418 0.947 . S
C362 C419 1.392 . S
C363 C364 1.391 . S
C363 C367 1.397 . S
C363 C419 1.419 . S
C364 C360 1.391 . S
C364 C363 1.391 . S
C364 C365 1.399 . S
C365 C364 1.399 . S
C365 C368 1.396 . S
C365 C377 1.453 . S
C365 C378 1.684 . S
H366 C390 0.948 . S
C367 C363 1.397 . S
C367 C368 1.394 . S
C367 C386 1.723 1_556 S
C368 C365 1.396 . S
C368 C367 1.394 . S
C368 C398 1.723 1_556 S
H369 C392 0.947 . S
H370 C393 0.948 1_556 S
H371 C399 0.982 . S
H372 C400 0.979 . S
H373 C400 0.980 . S
H374 C400 0.983 . S
H375 C399 0.979 . S
H376 C399 0.977 . S
C377 C365 1.453 . S
C377 H406 0.982 . S
C377 H407 0.979 . S
C377 H408 0.977 . S
C378 C365 1.684 . S
C378 H403 0.979 . S
C378 H404 0.980 . S
C378 H405 0.983 . S
C379 C380 1.391 . S
C379 C384 1.391 . S
C379 H409 0.948 . S
C380 C379 1.391 . S
C380 C381 1.391 . S
C381 C380 1.391 . S
C381 C382 1.392 . S
C381 H410 0.947 . S
C382 C381 1.392 . S
C382 C383 1.419 . S
C382 H411 0.948 . S
C383 C382 1.419 . S
C383 C384 1.391 . S
C383 C387 1.397 . S
C384 C379 1.391 . S
C384 C383 1.391 . S
C384 C385 1.399 . S
C385 C384 1.399 . S
C385 C386 1.396 . S
C385 C388 1.453 . S
C385 C389 1.684 . S
C386 C367 1.723 1_554 S
C386 C385 1.396 . S
C386 C387 1.394 . S
C387 C383 1.397 . S
C387 C386 1.394 . S
C387 C397 1.723 . S
C388 C385 1.453 . S
C388 H412 0.982 . S
C388 H413 0.979 . S
C388 H414 0.977 1_554 S
C389 C385 1.684 . S
C389 H415 0.979 . S
C389 H416 0.980 1_554 S
C389 H417 0.983 . S
C390 H366 0.948 . S
C390 C391 1.391 . S
C390 C395 1.391 . S
C391 C390 1.391 . S
C391 C392 1.391 . S
C392 H369 0.947 . S
C392 C391 1.391 . S
C392 C393 1.392 . S
C393 H370 0.948 1_554 S
C393 C392 1.392 . S
C393 C394 1.419 . S
C394 C393 1.419 . S
C394 C395 1.391 . S
C394 C398 1.397 . S
C395 C390 1.391 . S
C395 C394 1.391 . S
C395 C396 1.399 . S
C396 C395 1.399 . S
C396 C397 1.396 . S
C396 C399 1.453 . S
C396 C400 1.684 . S
C397 C387 1.723 . S
C397 C396 1.396 . S
C397 C398 1.394 . S
C398 C368 1.723 1_554 S
C398 C394 1.397 . S
C398 C397 1.394 . S
C399 H371 0.982 . S
C399 H375 0.979 . S
C399 H376 0.977 . S
C399 C396 1.453 . S
C400 H372 0.979 . S
C400 H373 0.980 . S
C400 H374 0.983 . S
C400 C396 1.684 . S
H401 C419 0.948 . S
H402 C360 0.948 . S
H403 C378 0.979 . S
H404 C378 0.980 . S
H405 C378 0.983 . S
H406 C377 0.982 . S
H407 C377 0.979 . S
H408 C377 0.977 . S
H409 C379 0.948 . S
H410 C381 0.947 . S
H411 C382 0.948 . S
H412 C388 0.982 . S
H413 C388 0.979 . S
H414 C388 0.977 1_556 S
H415 C389 0.979 . S
H416 C389 0.980 1_556 S
H417 C389 0.983 . S
H418 C362 0.947 . S
C419 C362 1.392 . S
C419 C363 1.419 . S
C419 H401 0.948 . S
C420 C421 1.391 . S
C420 C424 1.391 . S
C420 H462 0.948 . S
C421 C420 1.391 . S
C421 C422 1.391 . S
C422 C421 1.391 . S
C422 H478 0.947 . S
C422 C479 1.392 . S
C423 C424 1.391 . S
C423 C427 1.397 . S
C423 C479 1.419 . S
C424 C420 1.391 . S
C424 C423 1.391 . S
C424 C425 1.399 . S
C425 C424 1.399 . S
C425 C428 1.396 . S
C425 C437 1.453 . S
C425 C438 1.684 . S
H426 C450 0.948 . S
C427 C423 1.397 . S
C427 C428 1.394 . S
C427 C446 1.723 1_556 S
C428 C425 1.396 . S
C428 C427 1.394 . S
C428 C458 1.723 1_556 S
H429 C452 0.947 1_556 S
H430 C453 0.948 1_556 S
H431 C459 0.982 . S
H432 C460 0.979 . S
H433 C460 0.980 . S
H434 C460 0.983 . S
H435 C459 0.979 . S
H436 C459 0.977 . S
C437 C425 1.453 . S
C437 H466 0.982 . S
C437 H467 0.979 . S
C437 H468 0.977 . S
C438 C425 1.684 . S
C438 H463 0.979 . S
C438 H464 0.980 . S
C438 H465 0.983 . S
C439 C440 1.391 . S
C439 C444 1.391 . S
C439 H469 0.948 . S
C440 C439 1.391 . S
C440 C441 1.391 . S
C441 C440 1.391 . S
C441 C442 1.392 . S
C441 H470 0.947 . S
C442 C441 1.392 . S
C442 C443 1.419 . S
C442 H471 0.948 . S
C443 C442 1.419 . S
C443 C444 1.391 . S
C443 C447 1.397 . S
C444 C439 1.391 . S
C444 C443 1.391 . S
C444 C445 1.399 . S
C445 C444 1.399 . S
C445 C446 1.396 . S
C445 C448 1.453 . S
C445 C449 1.684 . S
C446 C427 1.723 1_554 S
C446 C445 1.396 . S
C446 C447 1.394 . S
C447 C443 1.397 . S
C447 C446 1.394 . S
C447 C457 1.723 . S
C448 C445 1.453 . S
C448 H472 0.982 . S
C448 H473 0.979 . S
C448 H474 0.977 1_554 S
C449 C445 1.684 . S
C449 H475 0.979 . S
C449 H476 0.980 1_554 S
C449 H477 0.983 . S
C450 H426 0.948 . S
C450 C451 1.391 . S
C450 C455 1.391 . S
C451 C450 1.391 . S
C451 C452 1.391 . S
C452 H429 0.947 1_554 S
C452 C451 1.391 . S
C452 C453 1.392 . S
C453 H430 0.948 1_554 S
C453 C452 1.392 . S
C453 C454 1.419 . S
C454 C453 1.419 . S
C454 C455 1.391 . S
C454 C458 1.397 . S
C455 C450 1.391 . S
C455 C454 1.391 . S
C455 C456 1.399 . S
C456 C455 1.399 . S
C456 C457 1.396 . S
C456 C459 1.453 . S
C456 C460 1.684 . S
C457 C447 1.723 . S
C457 C456 1.396 . S
C457 C458 1.394 . S
C458 C428 1.723 1_554 S
C458 C454 1.397 . S
C458 C457 1.394 . S
C459 H431 0.982 . S
C459 H435 0.979 . S
C459 H436 0.977 . S
C459 C456 1.453 . S
C460 H432 0.979 . S
C460 H433 0.980 . S
C460 H434 0.983 . S
C460 C456 1.684 . S
H461 C479 0.948 . S
H462 C420 0.948 . S
H463 C438 0.979 . S
H464 C438 0.980 . S
H465 C438 0.983 . S
H466 C437 0.982 . S
H467 C437 0.979 . S
H468 C437 0.977 . S
H469 C439 0.948 . S
H470 C441 0.947 . S
H471 C442 0.948 . S
H472 C448 0.982 . S
H473 C448 0.979 . S
H474 C448 0.977 1_556 S
H475 C449 0.979 . S
H476 C449 0.980 1_556 S
H477 C449 0.983 . S
H478 C422 0.947 . S
C479 C422 1.392 . S
C479 C423 1.419 . S
C479 H461 0.948 . S
Tb480 N509 2.617 . S
Tb480 N515 2.572 . S
Tb480 O524 2.461 1_655 S
Tb480 O525 2.387 1_545 S
Tb480 O527 2.428 . S
Tb480 O528 2.308 1_655 S
Tb480 O532 2.349 1_655 S
Tb480 O535 2.393 . S
Tb480 C544 2.802 . S
C481 N482 1.379 1_545 S
C481 C484 1.416 . S
C481 C488 1.424 . S
N482 C481 1.379 1_565 S
N482 C485 1.334 . S
N482 Tb491 2.617 . S
C483 C485 1.390 1_545 S
C483 C486 1.339 . S
C483 H503 0.930 . S
C484 C481 1.416 . S
C484 C486 1.416 . S
C484 C490 1.448 . S
C485 N482 1.334 . S
C485 C483 1.390 1_565 S
C485 H496 0.930 . S
C486 C483 1.339 . S
C486 C484 1.416 . S
C486 H507 0.930 . S
C487 C488 1.413 . S
C487 C489 1.427 . S
C487 C493 1.416 . S
C488 C481 1.424 . S
C488 C487 1.413 . S
C488 N492 1.361 . S
C489 C487 1.427 . S
C489 C490 1.328 . S
C489 H504 0.929 . S
C490 C484 1.448 . S
C490 C489 1.328 . S
C490 H505 0.930 . S
Tb491 N482 2.617 . S
Tb491 N492 2.572 1_565 S
Tb491 O526 2.349 . S
Tb491 O529 2.393 . S
Tb491 O530 2.465 . S
Tb491 O531 2.387 1_565 S
Tb491 O533 2.428 . S
Tb491 O534 2.305 1_465 S
Tb491 C555 2.802 . S
N492 C488 1.361 . S
N492 Tb491 2.572 1_545 S
N492 C494 1.340 . S
C493 C487 1.416 . S
C493 C495 1.332 . S
C493 H501 0.931 . S
C494 N492 1.340 . S
C494 C495 1.407 . S
C494 H500 0.881 1_445 S
C495 C493 1.332 . S
C495 C494 1.407 . S
C495 H497 0.929 . S
H496 C485 0.930 . S
H497 C495 0.929 . S
H498 C513 0.930 . S
H499 C520 0.929 1_455 S
H500 C494 0.881 1_665 S
H501 C493 0.931 . S
H502 C516 0.919 1_455 S
H503 C483 0.930 . S
H504 C489 0.929 . S
H505 C490 0.930 . S
H506 C511 0.930 . S
H507 C486 0.930 . S
H508 C519 0.931 . S
N509 Tb480 2.617 . S
N509 C510 1.379 . S
N509 C513 1.334 . S
C510 N509 1.379 . S
C510 C512 1.416 1_545 S
C510 C518 1.424 . S
C511 H506 0.930 . S
C511 C513 1.390 . S
C511 C514 1.330 1_545 S
C512 C510 1.416 1_565 S
C512 C514 1.418 . S
C512 C545 1.448 . S
C513 H498 0.930 . S
C513 N509 1.334 . S
C513 C511 1.390 . S
C514 C511 1.330 1_565 S
C514 C512 1.418 . S
C514 H521 0.937 . S
N515 Tb480 2.572 . S
N515 C516 1.350 . S
N515 C518 1.361 . S
C516 H502 0.919 1_655 S
C516 N515 1.350 . S
C516 C520 1.408 1_545 S
C517 C518 1.413 1_565 S
C517 C519 1.416 . S
C517 C546 1.427 . S
C518 C510 1.424 . S
C518 N515 1.361 . S
C518 C517 1.413 1_545 S
C519 H508 0.931 . S
C519 C517 1.416 . S
C519 C520 1.332 . S
C520 H499 0.929 1_655 S
C520 C516 1.408 1_565 S
C520 C519 1.332 . S
H521 C514 0.937 . S
H522 C545 0.930 . S
H523 C546 0.929 . S
O524 Tb480 2.461 1_455 S
O524 C544 1.254 1_455 S
O525 Tb480 2.387 1_565 S
O525 C536 1.264 . S
O526 Tb491 2.349 . S
O526 C536 1.243 1_455 S
O527 Tb480 2.428 . S
O527 C544 1.256 . S
O528 Tb480 2.308 1_455 S
O528 C543 1.266 . S
O529 Tb491 2.393 . S
O529 C543 1.248 1_565 S
O530 Tb491 2.465 . S
O530 C555 1.264 . S
O531 Tb491 2.387 1_545 S
O531 C547 1.264 . S
O532 Tb480 2.349 1_455 S
O532 C547 1.243 . S
O533 Tb491 2.428 . S
O533 C555 1.256 . S
O534 Tb491 2.305 1_645 S
O534 C554 1.269 . S
O535 Tb480 2.393 . S
O535 C554 1.248 . S
C536 O525 1.264 . S
C536 O526 1.243 1_655 S
C537 C540 1.399 . S
C537 C542 1.383 . S
C537 C544 1.496 . S
C538 C539 1.399 . S
C538 C542 1.389 . S
C539 C538 1.399 . S
C539 C541 1.380 . S
C539 H556 0.929 . S
C540 C537 1.399 . S
C540 C541 1.392 . S
C540 H557 0.929 . S
C541 C539 1.380 . S
C541 C540 1.392 . S
C541 H558 0.929 . S
C542 C537 1.383 . S
C542 C538 1.389 . S
C542 H559 0.931 1_655 S
C543 O528 1.266 . S
C543 O529 1.248 1_545 S
C544 Tb480 2.802 . S
C544 O524 1.254 1_655 S
C544 O527 1.256 . S
C544 C537 1.496 . S
C545 C512 1.448 . S
C545 H522 0.930 . S
C545 C546 1.328 . S
C546 C517 1.427 . S
C546 H523 0.929 . S
C546 C545 1.328 . S
C547 O531 1.264 . S
C547 O532 1.243 . S
C548 C551 1.399 . S
C548 C552 1.383 . S
C548 C555 1.496 . S
C549 C550 1.399 . S
C549 C552 1.389 . S
C550 C549 1.399 . S
C550 C553 1.380 . S
C550 H560 0.929 . S
C551 C548 1.399 . S
C551 C553 1.392 . S
C551 H561 0.929 . S
C552 C548 1.383 . S
C552 C549 1.389 . S
C552 H562 0.963 . S
C553 C550 1.380 . S
C553 C551 1.392 . S
C553 H563 0.929 . S
C554 O534 1.269 . S
C554 O535 1.248 . S
C555 Tb491 2.802 . S
C555 O530 1.264 . S
C555 O533 1.256 . S
C555 C548 1.496 . S
H556 C539 0.929 . S
H557 C540 0.929 . S
H558 C541 0.929 . S
H559 C542 0.931 1_455 S
H560 C550 0.929 . S
H561 C551 0.929 . S
H562 C552 0.963 . S
H563 C553 0.929 . S
Tb564 N593 2.617 . S
Tb564 N599 2.572 . S
Tb564 O608 2.465 . S
Tb564 O609 2.387 . S
Tb564 O611 2.428 . S
Tb564 O612 2.308 . S
Tb564 O616 2.349 1_545 S
Tb564 O619 2.393 . S
Tb564 C628 2.802 . S
C565 N566 1.379 . S
C565 C568 1.416 . S
C565 C572 1.424 . S
N566 C565 1.379 . S
N566 C569 1.334 . S
N566 Tb575 2.617 . S
C567 C569 1.390 . S
C567 C570 1.339 . S
C567 H587 0.930 . S
C568 C565 1.416 . S
C568 C570 1.416 . S
C568 C574 1.448 . S
C569 N566 1.334 . S
C569 C567 1.390 . S
C569 H580 0.930 . S
C570 C567 1.339 . S
C570 C568 1.416 . S
C570 H591 0.930 . S
C571 C572 1.413 . S
C571 C573 1.427 . S
C571 C577 1.416 . S
C572 C565 1.424 . S
C572 C571 1.413 . S
C572 N576 1.361 . S
C573 C571 1.427 . S
C573 C574 1.328 . S
C573 H588 0.929 . S
C574 C568 1.448 . S
C574 C573 1.328 . S
C574 H589 0.930 . S
Tb575 N566 2.617 . S
Tb575 N576 2.572 . S
Tb575 O610 2.349 1_565 S
Tb575 O613 2.393 . S
Tb575 O614 2.465 . S
Tb575 O615 2.387 . S
Tb575 O617 2.428 . S
Tb575 O618 2.308 1_565 S
Tb575 C639 2.802 . S
N576 C572 1.361 . S
N576 Tb575 2.572 . S
N576 C578 1.340 . S
C577 C571 1.416 . S
C577 C579 1.332 . S
C577 H585 0.931 . S
C578 N576 1.340 . S
C578 C579 1.407 . S
C578 H584 0.930 . S
C579 C577 1.332 . S
C579 C578 1.407 . S
C579 H581 0.929 . S
H580 C569 0.930 . S
H581 C579 0.929 . S
H582 C597 0.930 . S
H583 C604 0.929 . S
H584 C578 0.930 . S
H585 C577 0.931 . S
H586 C600 0.930 . S
H587 C567 0.930 . S
H588 C573 0.929 . S
H589 C574 0.930 . S
H590 C595 0.930 . S
H591 C570 0.930 . S
H592 C603 0.931 . S
N593 Tb564 2.617 . S
N593 C594 1.379 . S
N593 C597 1.334 . S
C594 N593 1.379 . S
C594 C596 1.416 . S
C594 C602 1.424 . S
C595 H590 0.930 . S
C595 C597 1.390 . S
C595 C598 1.339 . S
C596 C594 1.416 . S
C596 C598 1.416 . S
C596 C629 1.448 . S
C597 H582 0.930 . S
C597 N593 1.334 . S
C597 C595 1.390 . S
C598 C595 1.339 . S
C598 C596 1.416 . S
C598 H605 0.930 . S
N599 Tb564 2.572 . S
N599 C600 1.340 . S
N599 C602 1.361 . S
C600 H586 0.930 . S
C600 N599 1.340 . S
C600 C604 1.407 . S
C601 C602 1.413 . S
C601 C603 1.416 . S
C601 C630 1.427 . S
C602 C594 1.424 . S
C602 N599 1.361 . S
C602 C601 1.413 . S
C603 H592 0.931 . S
C603 C601 1.416 . S
C603 C604 1.332 . S
C604 H583 0.929 . S
C604 C600 1.407 . S
C604 C603 1.332 . S
H605 C598 0.930 . S
H606 C629 0.930 . S
H607 C630 0.929 . S
O608 Tb564 2.465 . S
O608 C628 1.264 . S
O609 Tb564 2.387 . S
O609 C620 1.264 . S
O610 Tb575 2.349 1_545 S
O610 C620 1.243 . S
O611 Tb564 2.428 . S
O611 C628 1.256 . S
O612 Tb564 2.308 . S
O612 C627 1.266 1_545 S
O613 Tb575 2.393 . S
O613 C627 1.248 . S
O614 Tb575 2.465 . S
O614 C639 1.264 . S
O615 Tb575 2.387 . S
O615 C631 1.264 . S
O616 Tb564 2.349 1_565 S
O616 C631 1.243 . S
O617 Tb575 2.428 . S
O617 C639 1.256 . S
O618 Tb575 2.308 1_545 S
O618 C638 1.266 . S
O619 Tb564 2.393 . S
O619 C638 1.248 . S
C620 O609 1.264 . S
C620 O610 1.243 . S
C621 C624 1.399 . S
C621 C626 1.383 . S
C621 C628 1.496 . S
C622 C623 1.399 . S
C622 C626 1.389 . S
C623 C622 1.399 . S
C623 C625 1.380 . S
C623 H640 0.929 . S
C624 C621 1.399 . S
C624 C625 1.392 . S
C624 H641 0.929 . S
C625 C623 1.380 . S
C625 C624 1.392 . S
C625 H642 0.929 . S
C626 C621 1.383 . S
C626 C622 1.389 . S
C626 H643 0.931 . S
C627 O612 1.266 1_565 S
C627 O613 1.248 . S
C628 Tb564 2.802 . S
C628 O608 1.264 . S
C628 O611 1.256 . S
C628 C621 1.496 . S
C629 C596 1.448 . S
C629 H606 0.930 . S
C629 C630 1.328 . S
C630 C601 1.427 . S
C630 H607 0.929 . S
C630 C629 1.328 . S
C631 O615 1.264 . S
C631 O616 1.243 . S
C632 C635 1.399 . S
C632 C636 1.383 1_565 S
C632 C639 1.496 . S
C633 C634 1.399 1_545 S
C633 C636 1.389 . S
C634 C633 1.399 1_565 S
C634 C637 1.380 . S
C634 H644 0.929 . S
C635 C632 1.399 . S
C635 C637 1.392 . S
C635 H645 0.929 . S
C636 C632 1.383 1_545 S
C636 C633 1.389 . S
C636 H646 0.931 . S
C637 C634 1.380 . S
C637 C635 1.392 . S
C637 H647 0.929 . S
C638 O618 1.266 . S
C638 O619 1.248 . S
C639 Tb575 2.802 . S
C639 O614 1.264 . S
C639 O617 1.256 . S
C639 C632 1.496 . S
H640 C623 0.929 . S
H641 C624 0.929 . S
H642 C625 0.929 . S
H643 C626 0.931 . S
H644 C634 0.929 . S
H645 C635 0.929 . S
H646 C636 0.931 . S
H647 C637 0.929 . S
Tb648 N677 2.617 . S
Tb648 N683 2.572 . S
Tb648 O692 2.465 . S
Tb648 O693 2.387 . S
Tb648 O695 2.428 . S
Tb648 O696 2.308 . S
Tb648 O700 2.349 . S
Tb648 O703 2.393 . S
Tb648 C712 2.802 . S
C649 N650 1.379 . S
C649 C652 1.416 . S
C649 C656 1.424 . S
N650 C649 1.379 . S
N650 C653 1.334 . S
N650 Tb659 2.617 . S
C651 C653 1.390 . S
C651 C654 1.339 . S
C651 H671 0.930 . S
C652 C649 1.416 . S
C652 C654 1.416 . S
C652 C658 1.448 . S
C653 N650 1.334 . S
C653 C651 1.390 . S
C653 H664 0.930 . S
C654 C651 1.339 . S
C654 C652 1.416 . S
C654 H675 0.930 . S
C655 C656 1.413 . S
C655 C657 1.427 . S
C655 C661 1.416 . S
C656 C649 1.424 . S
C656 C655 1.413 . S
C656 N660 1.361 . S
C657 C655 1.427 . S
C657 C658 1.328 . S
C657 H672 0.929 . S
C658 C652 1.448 . S
C658 C657 1.328 . S
C658 H673 0.930 . S
Tb659 N650 2.617 . S
Tb659 N660 2.572 . S
Tb659 O694 2.349 . S
Tb659 O697 2.393 . S
Tb659 O698 2.465 . S
Tb659 O699 2.387 . S
Tb659 O701 2.428 . S
Tb659 O702 2.308 . S
Tb659 C723 2.802 . S
N660 C656 1.361 . S
N660 Tb659 2.572 . S
N660 C662 1.340 . S
C661 C655 1.416 . S
C661 C663 1.332 . S
C661 H669 0.931 . S
C662 N660 1.340 . S
C662 C663 1.407 . S
C662 H668 0.930 . S
C663 C661 1.332 . S
C663 C662 1.407 . S
C663 H665 0.929 . S
H664 C653 0.930 . S
H665 C663 0.929 . S
H666 C681 0.930 . S
H667 C688 0.929 . S
H668 C662 0.930 . S
H669 C661 0.931 . S
H670 C684 0.930 . S
H671 C651 0.930 . S
H672 C657 0.929 . S
H673 C658 0.930 . S
H674 C679 0.930 . S
H675 C654 0.930 . S
H676 C687 0.931 . S
N677 Tb648 2.617 . S
N677 C678 1.379 . S
N677 C681 1.334 . S
C678 N677 1.379 . S
C678 C680 1.416 . S
C678 C686 1.424 . S
C679 H674 0.930 . S
C679 C681 1.390 . S
C679 C682 1.339 . S
C680 C678 1.416 . S
C680 C682 1.416 . S
C680 C713 1.448 . S
C681 H666 0.930 . S
C681 N677 1.334 . S
C681 C679 1.390 . S
C682 C679 1.339 . S
C682 C680 1.416 . S
C682 H689 0.930 . S
N683 Tb648 2.572 . S
N683 C684 1.340 . S
N683 C686 1.361 . S
C684 H670 0.930 . S
C684 N683 1.340 . S
C684 C688 1.407 . S
C685 C686 1.413 . S
C685 C687 1.416 . S
C685 C714 1.427 . S
C686 C678 1.424 . S
C686 N683 1.361 . S
C686 C685 1.413 . S
C687 H676 0.931 . S
C687 C685 1.416 . S
C687 C688 1.332 . S
C688 H667 0.929 . S
C688 C684 1.407 . S
C688 C687 1.332 . S
H689 C682 0.930 . S
H690 C713 0.930 . S
H691 C714 0.929 . S
O692 Tb648 2.465 . S
O692 C712 1.264 . S
O693 Tb648 2.387 . S
O693 C704 1.264 . S
O694 Tb659 2.349 . S
O694 C704 1.243 . S
O695 Tb648 2.428 . S
O695 C712 1.256 . S
O696 Tb648 2.308 . S
O696 C711 1.266 . S
O697 Tb659 2.393 . S
O697 C711 1.248 . S
O698 Tb659 2.465 . S
O698 C723 1.264 . S
O699 Tb659 2.387 . S
O699 C715 1.264 . S
O700 Tb648 2.349 . S
O700 C715 1.243 . S
O701 Tb659 2.428 . S
O701 C723 1.256 . S
O702 Tb659 2.308 . S
O702 C722 1.266 . S
O703 Tb648 2.393 . S
O703 C722 1.248 . S
C704 O693 1.264 . S
C704 O694 1.243 . S
C705 C708 1.399 . S
C705 C710 1.383 . S
C705 C712 1.496 . S
C706 C707 1.399 . S
C706 C710 1.389 . S
C707 C706 1.399 . S
C707 C709 1.380 . S
C707 H724 0.929 . S
C708 C705 1.399 . S
C708 C709 1.392 . S
C708 H725 0.929 . S
C709 C707 1.380 . S
C709 C708 1.392 . S
C709 H726 0.929 . S
C710 C705 1.383 . S
C710 C706 1.389 . S
C710 H727 0.931 . S
C711 O696 1.266 . S
C711 O697 1.248 . S
C712 Tb648 2.802 . S
C712 O692 1.264 . S
C712 O695 1.256 . S
C712 C705 1.496 . S
C713 C680 1.448 . S
C713 H690 0.930 . S
C713 C714 1.328 . S
C714 C685 1.427 . S
C714 H691 0.929 . S
C714 C713 1.328 . S
C715 O699 1.264 . S
C715 O700 1.243 . S
C716 C719 1.399 . S
C716 C720 1.383 . S
C716 C723 1.496 . S
C717 C718 1.399 . S
C717 C720 1.389 . S
C718 C717 1.399 . S
C718 C721 1.380 . S
C718 H728 0.929 . S
C719 C716 1.399 . S
C719 C721 1.392 . S
C719 H729 0.929 . S
C720 C716 1.383 . S
C720 C717 1.389 . S
C720 H730 0.931 . S
C721 C718 1.380 . S
C721 C719 1.392 . S
C721 H731 0.929 . S
C722 O702 1.266 . S
C722 O703 1.248 . S
C723 Tb659 2.802 . S
C723 O698 1.264 . S
C723 O701 1.256 . S
C723 C716 1.496 . S
H724 C707 0.929 . S
H725 C708 0.929 . S
H726 C709 0.929 . S
H727 C710 0.931 . S
H728 C718 0.929 . S
H729 C719 0.929 . S
H730 C720 0.931 . S
H731 C721 0.929 . S
Tb732 N761 2.617 . S
Tb732 N767 2.572 . S
Tb732 O776 2.465 . S
Tb732 O777 2.387 1_455 S
Tb732 O779 2.428 . S
Tb732 O780 2.308 . S
Tb732 O784 2.349 . S
Tb732 O787 2.393 . S
Tb732 C796 2.802 . S
C733 N734 1.379 1_455 S
C733 C736 1.416 . S
C733 C740 1.424 . S
N734 C733 1.379 1_655 S
N734 C737 1.334 . S
N734 Tb743 2.617 . S
C735 C737 1.390 1_455 S
C735 C738 1.339 . S
C735 H755 0.929 1_455 S
C736 C733 1.416 . S
C736 C738 1.416 . S
C736 C742 1.448 . S
C737 N734 1.334 . S
C737 C735 1.390 1_655 S
C737 H748 0.930 . S
C738 C735 1.339 . S
C738 C736 1.416 . S
C738 H759 0.930 . S
C739 C740 1.413 . S
C739 C741 1.427 . S
C739 C745 1.416 . S
C740 C733 1.424 . S
C740 C739 1.413 . S
C740 N744 1.383 . S
C741 C739 1.427 . S
C741 C742 1.328 . S
C741 H756 0.929 . S
C742 C736 1.448 . S
C742 C741 1.328 . S
C742 H757 0.930 . S
Tb743 N734 2.617 . S
Tb743 N744 2.555 1_655 S
Tb743 O778 2.349 . S
Tb743 O781 2.393 . S
Tb743 O782 2.465 . S
Tb743 O783 2.387 1_655 S
Tb743 O785 2.428 . S
Tb743 O786 2.305 1_655 S
Tb743 C807 2.802 . S
N744 C740 1.383 . S
N744 Tb743 2.555 1_455 S
N744 C746 1.348 . S
C745 C739 1.416 . S
C745 C747 1.332 . S
C745 H753 0.931 . S
C746 N744 1.348 . S
C746 C747 1.407 . S
C746 H752 0.930 1_455 S
C747 C745 1.332 . S
C747 C746 1.407 . S
C747 H749 0.929 . S
H748 C737 0.930 . S
H749 C747 0.929 . S
H750 C765 0.930 . S
H751 C772 0.936 . S
H752 C746 0.930 1_655 S
H753 C745 0.931 . S
H754 C768 0.930 . S
H755 C735 0.929 1_655 S
H756 C741 0.929 . S
H757 C742 0.930 . S
H758 C763 0.930 . S
H759 C738 0.930 . S
H760 C771 0.931 . S
N761 Tb732 2.617 . S
N761 C762 1.379 . S
N761 C765 1.334 . S
C762 N761 1.379 . S
C762 C764 1.402 1_455 S
C762 C770 1.424 . S
C763 H758 0.930 . S
C763 C765 1.390 . S
C763 C766 1.363 . S
C764 C762 1.402 1_655 S
C764 C766 1.412 1_655 S
C764 C797 1.468 . S
C765 H750 0.930 . S
C765 N761 1.334 . S
C765 C763 1.390 . S
C766 C763 1.363 . S
C766 C764 1.412 1_455 S
C766 H773 0.912 1_455 S
N767 Tb732 2.572 . S
N767 C768 1.340 . S
N767 C770 1.361 . S
C768 H754 0.930 . S
C768 N767 1.340 . S
C768 C772 1.385 1_455 S
C769 C770 1.413 1_655 S
C769 C771 1.416 . S
C769 C798 1.427 . S
C770 C762 1.424 . S
C770 N767 1.361 . S
C770 C769 1.413 1_455 S
C771 H760 0.931 . S
C771 C769 1.416 . S
C771 C772 1.352 . S
C772 H751 0.936 . S
C772 C768 1.385 1_655 S
C772 C771 1.352 . S
H773 C766 0.912 1_655 S
H774 C797 0.930 . S
H775 C798 0.929 . S
O776 Tb732 2.465 . S
O776 C796 1.264 . S
O777 Tb732 2.387 1_655 S
O777 C788 1.264 . S
O778 Tb743 2.349 . S
O778 C788 1.243 . S
O779 Tb732 2.428 . S
O779 C796 1.256 . S
O780 Tb732 2.308 . S
O780 C795 1.266 . S
O781 Tb743 2.393 . S
O781 C795 1.248 1_655 S
O782 Tb743 2.465 . S
O782 C807 1.264 . S
O783 Tb743 2.387 1_455 S
O783 C799 1.264 . S
O784 Tb732 2.349 . S
O784 C799 1.243 . S
O785 Tb743 2.428 . S
O785 C807 1.256 . S
O786 Tb743 2.305 1_455 S
O786 C806 1.269 . S
O787 Tb732 2.393 . S
O787 C806 1.248 . S
C788 O777 1.264 . S
C788 O778 1.243 . S
C789 C792 1.399 . S
C789 C794 1.383 . S
C789 C796 1.496 . S
C790 C791 1.399 . S
C790 C794 1.389 . S
C791 C790 1.399 . S
C791 C793 1.380 . S
C791 H808 0.929 . S
C792 C789 1.399 . S
C792 C793 1.392 . S
C792 H809 0.929 . S
C793 C791 1.380 . S
C793 C792 1.392 . S
C793 H810 0.929 . S
C794 C789 1.383 . S
C794 C790 1.389 . S
C794 H811 0.931 . S
C795 O780 1.266 . S
C795 O781 1.248 1_455 S
C796 Tb732 2.802 . S
C796 O776 1.264 . S
C796 O779 1.256 . S
C796 C789 1.496 . S
C797 C764 1.468 . S
C797 H774 0.930 . S
C797 C798 1.328 . S
C798 C769 1.427 . S
C798 H775 0.929 . S
C798 C797 1.328 . S
C799 O783 1.264 . S
C799 O784 1.243 . S
C800 C803 1.399 . S
C800 C804 1.383 . S
C800 C807 1.496 . S
C801 C802 1.399 . S
C801 C804 1.389 . S
C802 C801 1.399 . S
C802 C805 1.380 . S
C802 H812 0.929 . S
C803 C800 1.399 . S
C803 C805 1.392 . S
C803 H813 0.929 . S
C804 C800 1.383 . S
C804 C801 1.389 . S
C804 H814 0.931 . S
C805 C802 1.380 . S
C805 C803 1.392 . S
C805 H815 0.929 . S
C806 O786 1.269 . S
C806 O787 1.248 . S
C807 Tb743 2.802 . S
C807 O782 1.264 . S
C807 O785 1.256 . S
C807 C800 1.496 . S
H808 C791 0.929 . S
H809 C792 0.929 . S
H810 C793 0.929 . S
H811 C794 0.931 . S
H812 C802 0.929 . S
H813 C803 0.929 . S
H814 C804 0.931 . S
H815 C805 0.929 . S
C816 C817 1.349 . S
C816 C818 1.327 . S
C816 H841 0.950 . S
C817 C816 1.349 . S
C817 C833 1.349 . S
C818 C816 1.327 . S
C818 C837 1.429 . S
C818 H842 0.950 . S
C819 C836 1.574 . S
C819 C838 1.368 . S
C819 H843 0.949 . S
H820 C824 0.949 . S
C821 C822 1.349 . S
C821 C823 1.327 . S
C821 H844 0.950 1_545 S
C822 C821 1.349 . S
C822 C834 1.349 . S
C823 C821 1.327 . S
C823 C839 1.429 . S
C823 H845 0.950 1_545 S
C824 H820 0.949 . S
C824 C832 1.574 . S
C824 C840 1.368 . S
H825 C833 0.950 . S
H826 C831 0.950 . S
H827 C832 0.949 . S
H828 C834 0.950 . S
H829 C835 0.950 . S
H830 C836 0.949 . S
C831 H826 0.950 . S
C831 C833 1.327 . S
C831 C837 1.429 . S
C832 C824 1.574 . S
C832 H827 0.949 . S
C832 C838 1.368 . S
C833 C817 1.349 . S
C833 H825 0.950 . S
C833 C831 1.327 . S
C834 C822 1.349 . S
C834 H828 0.950 . S
C834 C835 1.327 . S
C835 H829 0.950 . S
C835 C834 1.327 . S
C835 C839 1.429 . S
C836 C819 1.574 . S
C836 H830 0.949 . S
C836 C840 1.368 . S
C837 C818 1.429 . S
C837 C831 1.429 . S
C837 C838 1.523 . S
C838 C819 1.368 . S
C838 C832 1.368 . S
C838 C837 1.523 . S
C839 C823 1.429 . S
C839 C835 1.429 . S
C839 C840 1.523 . S
C840 C824 1.368 . S
C840 C836 1.368 . S
C840 C839 1.523 . S
H841 C816 0.950 . S
H842 C818 0.950 . S
H843 C819 0.949 . S
H844 C821 0.950 1_565 S
H845 C823 0.950 1_565 S
C846 C847 1.349 . S
C846 C848 1.327 . S
C846 H871 0.950 . S
C847 C846 1.349 . S
C847 C863 1.349 . S
C848 C846 1.327 . S
C848 C867 1.429 . S
C848 H872 0.950 . S
C849 C866 1.574 . S
C849 C868 1.368 . S
C849 H873 0.949 . S
H850 C854 0.949 . S
C851 C852 1.349 . S
C851 C853 1.327 . S
C851 H874 0.950 . S
C852 C851 1.349 . S
C852 C864 1.349 . S
C853 C851 1.327 . S
C853 C869 1.429 . S
C853 H875 0.950 . S
C854 H850 0.949 . S
C854 C862 1.574 . S
C854 C870 1.368 . S
H855 C863 0.950 . S
H856 C861 0.950 . S
H857 C862 0.949 . S
H858 C864 0.950 . S
H859 C865 0.950 . S
H860 C866 0.949 . S
C861 H856 0.950 . S
C861 C863 1.327 . S
C861 C867 1.429 . S
C862 C854 1.574 . S
C862 H857 0.949 . S
C862 C868 1.368 . S
C863 C847 1.349 . S
C863 H855 0.950 . S
C863 C861 1.327 . S
C864 C852 1.349 . S
C864 H858 0.950 . S
C864 C865 1.327 . S
C865 H859 0.950 . S
C865 C864 1.327 . S
C865 C869 1.429 . S
C866 C849 1.574 . S
C866 H860 0.949 . S
C866 C870 1.368 . S
C867 C848 1.429 . S
C867 C861 1.429 . S
C867 C868 1.523 . S
C868 C849 1.368 . S
C868 C862 1.368 . S
C868 C867 1.523 . S
C869 C853 1.429 . S
C869 C865 1.429 . S
C869 C870 1.523 . S
C870 C854 1.368 . S
C870 C866 1.368 . S
C870 C869 1.523 . S
H871 C846 0.950 . S
H872 C848 0.950 . S
H873 C849 0.949 . S
H874 C851 0.950 . S
H875 C853 0.950 . S
C876 C877 1.349 . S
C876 C878 1.327 . S
C876 H901 0.950 . S
C877 C876 1.349 . S
C877 C893 1.349 . S
C878 C876 1.327 . S
C878 C897 1.429 . S
C878 H902 0.950 . S
C879 C896 1.574 . S
C879 C898 1.368 . S
C879 H903 0.949 . S
H880 C884 0.949 . S
C881 C882 1.349 . S
C881 C883 1.327 . S
C881 H904 0.950 . S
C882 C881 1.349 . S
C882 C894 1.349 . S
C883 C881 1.327 . S
C883 C899 1.429 . S
C883 H905 0.950 . S
C884 H880 0.949 . S
C884 C892 1.574 . S
C884 C900 1.368 . S
H885 C893 0.950 . S
H886 C891 0.950 . S
H887 C892 0.949 . S
H888 C894 0.950 . S
H889 C895 0.950 . S
H890 C896 0.949 . S
C891 H886 0.950 . S
C891 C893 1.327 . S
C891 C897 1.429 . S
C892 C884 1.574 . S
C892 H887 0.949 . S
C892 C898 1.368 . S
C893 C877 1.349 . S
C893 H885 0.950 . S
C893 C891 1.327 . S
C894 C882 1.349 . S
C894 H888 0.950 . S
C894 C895 1.327 . S
C895 H889 0.950 . S
C895 C894 1.327 . S
C895 C899 1.429 . S
C896 C879 1.574 . S
C896 H890 0.949 . S
C896 C900 1.368 . S
C897 C878 1.429 . S
C897 C891 1.429 . S
C897 C898 1.523 . S
C898 C879 1.368 . S
C898 C892 1.368 . S
C898 C897 1.523 . S
C899 C883 1.429 . S
C899 C895 1.429 . S
C899 C900 1.523 . S
C900 C884 1.368 . S
C900 C896 1.368 . S
C900 C899 1.523 . S
H901 C876 0.950 . S
H902 C878 0.950 . S
H903 C879 0.949 . S
H904 C881 0.950 . S
H905 C883 0.950 . S
C906 C907 1.349 . S
C906 C908 1.327 . S
C906 H931 0.950 . S
C907 C906 1.349 . S
C907 C923 1.349 . S
C908 C906 1.327 . S
C908 C927 1.429 . S
C908 H932 0.950 . S
C909 C926 1.574 . S
C909 C928 1.368 . S
C909 H933 0.949 . S
H910 C914 0.949 . S
C911 C912 1.349 . S
C911 C913 1.327 . S
C911 H934 0.950 1_455 S
C912 C911 1.349 . S
C912 C924 1.349 . S
C913 C911 1.327 . S
C913 C929 1.429 . S
C913 H935 0.973 . S
C914 H910 0.949 . S
C914 C922 1.574 . S
C914 C930 1.368 . S
H915 C923 0.950 . S
H916 C921 0.950 . S
H917 C922 0.949 . S
H918 C924 0.950 . S
H919 C925 0.950 . S
H920 C926 0.949 . S
C921 H916 0.950 . S
C921 C923 1.327 . S
C921 C927 1.429 . S
C922 C914 1.574 . S
C922 H917 0.949 . S
C922 C928 1.368 . S
C923 C907 1.349 . S
C923 H915 0.950 . S
C923 C921 1.327 . S
C924 C912 1.349 . S
C924 H918 0.950 . S
C924 C925 1.327 . S
C925 H919 0.950 . S
C925 C924 1.327 . S
C925 C929 1.429 . S
C926 C909 1.574 . S
C926 H920 0.949 . S
C926 C930 1.368 . S
C927 C908 1.429 . S
C927 C921 1.429 . S
C927 C928 1.523 . S
C928 C909 1.368 . S
C928 C922 1.368 . S
C928 C927 1.523 . S
C929 C913 1.429 . S
C929 C925 1.429 . S
C929 C930 1.523 . S
C930 C914 1.368 . S
C930 C926 1.368 . S
C930 C929 1.523 . S
H931 C906 0.950 . S
H932 C908 0.950 . S
H933 C909 0.949 . S
H934 C911 0.950 1_655 S
H935 C913 0.973 . S
C936 C937 1.349 . S
C936 C938 1.327 . S
C936 H961 0.950 . S
C937 C936 1.349 . S
C937 C953 1.349 . S
C938 C936 1.327 . S
C938 C957 1.429 1_554 S
C938 H962 0.950 . S
C939 C956 1.574 . S
C939 C958 1.368 . S
C939 H963 0.949 . S
H940 C944 0.949 1_545 S
C941 C942 1.349 . S
C941 C943 1.327 . S
C941 H964 0.950 . S
C942 C941 1.349 . S
C942 C954 1.349 1_565 S
C943 C941 1.327 . S
C943 C959 1.429 . S
C943 H965 0.950 . S
C944 H940 0.949 1_565 S
C944 C952 1.574 . S
C944 C960 1.368 . S
H945 C953 0.950 . S
H946 C951 0.950 . S
H947 C952 0.949 . S
H948 C954 0.950 . S
H949 C955 0.950 . S
H950 C956 0.949 . S
C951 H946 0.950 . S
C951 C953 1.327 1_556 S
C951 C957 1.429 . S
C952 C944 1.574 . S
C952 H947 0.949 . S
C952 C958 1.368 . S
C953 C937 1.349 . S
C953 H945 0.950 . S
C953 C951 1.327 1_554 S
C954 C942 1.349 1_545 S
C954 H948 0.950 . S
C954 C955 1.327 . S
C955 H949 0.950 . S
C955 C954 1.327 . S
C955 C959 1.429 1_545 S
C956 C939 1.574 . S
C956 H950 0.949 . S
C956 C960 1.368 . S
C957 C938 1.429 1_556 S
C957 C951 1.429 . S
C957 C958 1.523 . S
C958 C939 1.368 . S
C958 C952 1.368 . S
C958 C957 1.523 . S
C959 C943 1.429 . S
C959 C955 1.429 1_565 S
C959 C960 1.523 . S
C960 C944 1.368 . S
C960 C956 1.368 . S
C960 C959 1.523 . S
H961 C936 0.950 . S
H962 C938 0.950 . S
H963 C939 0.949 . S
H964 C941 0.950 . S
H965 C943 0.950 . S
C966 C967 1.349 . S
C966 C968 1.327 1_554 S
C966 H991 0.950 . S
C967 C966 1.349 . S
C967 C983 1.349 . S
C968 C966 1.327 1_556 S
C968 C987 1.429 . S
C968 H992 0.950 . S
C969 C986 1.574 . S
C969 C988 1.368 . S
C969 H993 0.949 . S
H970 C974 0.949 . S
C971 C972 1.349 . S
C971 C973 1.327 . S
C971 H994 0.950 . S
C972 C971 1.349 . S
C972 C984 1.349 . S
C973 C971 1.327 . S
C973 C989 1.429 . S
C973 H995 0.950 . S
C974 H970 0.949 . S
C974 C982 1.574 . S
C974 C990 1.368 . S
H975 C983 0.950 . S
H976 C981 0.950 . S
H977 C982 0.949 . S
H978 C984 0.950 . S
H979 C985 0.950 . S
H980 C986 0.949 . S
C981 H976 0.950 . S
C981 C983 1.327 . S
C981 C987 1.429 1_554 S
C982 C974 1.574 . S
C982 H977 0.949 . S
C982 C988 1.368 . S
C983 C967 1.349 . S
C983 H975 0.950 . S
C983 C981 1.327 . S
C984 C972 1.349 . S
C984 H978 0.950 . S
C984 C985 1.327 . S
C985 H979 0.950 . S
C985 C984 1.327 . S
C985 C989 1.429 . S
C986 C969 1.574 . S
C986 H980 0.949 . S
C986 C990 1.368 . S
C987 C968 1.429 . S
C987 C981 1.429 1_556 S
C987 C988 1.523 . S
C988 C969 1.368 . S
C988 C982 1.368 . S
C988 C987 1.523 . S
C989 C973 1.429 . S
C989 C985 1.429 . S
C989 C990 1.523 . S
C990 C974 1.368 . S
C990 C986 1.368 . S
C990 C989 1.523 . S
H991 C966 0.950 . S
H992 C968 0.950 . S
H993 C969 0.949 . S
H994 C971 0.950 . S
H995 C973 0.950 . S
C996 C997 1.349 . S
C996 C998 1.327 . S
C996 H1021 0.950 . S
C997 C996 1.349 . S
C997 C1013 1.349 . S
C998 C996 1.327 . S
C998 C1017 1.429 1_554 S
C998 H1022 0.950 . S
C999 C1016 1.574 . S
C999 C1018 1.368 . S
C999 H1023 0.949 . S
H1000 C1004 0.949 . S
C1001 C1002 1.349 . S
C1001 C1003 1.327 . S
C1001 H1024 0.950 . S
C1002 C1001 1.349 . S
C1002 C1014 1.349 . S
C1003 C1001 1.327 . S
C1003 C1019 1.429 . S
C1003 H1025 0.950 . S
C1004 H1000 0.949 . S
C1004 C1012 1.574 . S
C1004 C1020 1.368 . S
H1005 C1013 0.950 . S
H1006 C1011 0.950 . S
H1007 C1012 0.949 . S
H1008 C1014 0.950 . S
H1009 C1015 0.950 . S
H1010 C1016 0.949 . S
C1011 H1006 0.950 . S
C1011 C1013 1.327 1_556 S
C1011 C1017 1.429 . S
C1012 C1004 1.574 . S
C1012 H1007 0.949 . S
C1012 C1018 1.368 . S
C1013 C997 1.349 . S
C1013 H1005 0.950 . S
C1013 C1011 1.327 1_554 S
C1014 C1002 1.349 . S
C1014 H1008 0.950 . S
C1014 C1015 1.327 . S
C1015 H1009 0.950 . S
C1015 C1014 1.327 . S
C1015 C1019 1.429 . S
C1016 C999 1.574 . S
C1016 H1010 0.949 . S
C1016 C1020 1.368 . S
C1017 C998 1.429 1_556 S
C1017 C1011 1.429 . S
C1017 C1018 1.523 . S
C1018 C999 1.368 . S
C1018 C1012 1.368 . S
C1018 C1017 1.523 . S
C1019 C1003 1.429 . S
C1019 C1015 1.429 . S
C1019 C1020 1.523 . S
C1020 C1004 1.368 . S
C1020 C1016 1.368 . S
C1020 C1019 1.523 . S
H1021 C996 0.950 . S
H1022 C998 0.950 . S
H1023 C999 0.949 . S
H1024 C1001 0.950 . S
H1025 C1003 0.950 . S
C1026 C1027 1.349 . S
C1026 C1028 1.327 . S
C1026 H1051 0.950 . S
C1027 C1026 1.349 . S
C1027 C1043 1.349 . S
C1028 C1026 1.327 . S
C1028 C1047 1.429 1_554 S
C1028 H1052 0.950 . S
C1029 C1046 1.574 . S
C1029 C1048 1.368 . S
C1029 H1053 0.949 . S
H1030 C1034 0.949 . S
C1031 C1032 1.349 1_455 S
C1031 C1033 1.327 . S
C1031 H1054 0.950 . S
C1032 C1031 1.349 1_655 S
C1032 C1044 1.349 . S
C1033 C1031 1.327 . S
C1033 C1049 1.429 1_455 S
C1033 H1055 0.950 . S
C1034 H1030 0.949 . S
C1034 C1042 1.574 . S
C1034 C1050 1.368 . S
H1035 C1043 0.950 . S
H1036 C1041 0.947 1_556 S
H1037 C1042 0.949 . S
H1038 C1044 0.950 . S
H1039 C1045 0.950 . S
H1040 C1046 0.949 1_455 S
C1041 H1036 0.947 1_554 S
C1041 C1043 1.331 . S
C1041 C1047 1.428 1_554 S
C1042 C1034 1.574 . S
C1042 H1037 0.949 . S
C1042 C1048 1.368 . S
C1043 C1027 1.349 . S
C1043 H1035 0.950 . S
C1043 C1041 1.331 . S
C1044 C1032 1.349 . S
C1044 H1038 0.950 . S
C1044 C1045 1.327 . S
C1045 H1039 0.950 . S
C1045 C1044 1.327 . S
C1045 C1049 1.429 . S
C1046 C1029 1.574 . S
C1046 H1040 0.949 1_655 S
C1046 C1050 1.368 . S
C1047 C1028 1.429 1_556 S
C1047 C1041 1.428 1_556 S
C1047 C1048 1.523 . S
C1048 C1029 1.368 . S
C1048 C1042 1.368 . S
C1048 C1047 1.523 . S
C1049 C1033 1.429 1_655 S
C1049 C1045 1.429 . S
C1049 C1050 1.523 . S
C1050 C1034 1.368 . S
C1050 C1046 1.368 . S
C1050 C1049 1.523 . S
H1051 C1026 0.950 . S
H1052 C1028 0.950 . S
H1053 C1029 0.949 . S
H1054 C1031 0.950 . S
H1055 C1033 0.950 . S
C1056 C1057 1.349 . S
C1056 C1058 1.327 . S
C1056 H1081 0.950 . S
C1057 C1056 1.349 . S
C1057 C1073 1.349 . S
C1058 C1056 1.327 . S
C1058 C1077 1.429 . S
C1058 H1082 0.950 . S
C1059 C1076 1.574 . S
C1059 C1078 1.368 . S
C1059 H1083 0.949 . S
H1060 C1064 0.949 . S
C1061 C1062 1.349 . S
C1061 C1063 1.327 . S
C1061 H1084 0.950 . S
C1062 C1061 1.349 . S
C1062 C1074 1.349 1_455 S
C1063 C1061 1.327 . S
C1063 C1079 1.429 . S
C1063 H1085 0.950 . S
C1064 H1060 0.949 . S
C1064 C1072 1.574 . S
C1064 C1080 1.368 . S
H1065 C1073 0.950 . S
H1066 C1071 0.950 . S
H1067 C1072 0.949 . S
H1068 C1074 0.950 . S
H1069 C1075 0.950 1_655 S
H1070 C1076 0.949 . S
C1071 H1066 0.950 . S
C1071 C1073 1.327 . S
C1071 C1077 1.429 . S
C1072 C1064 1.574 . S
C1072 H1067 0.949 . S
C1072 C1078 1.368 . S
C1073 C1057 1.349 . S
C1073 H1065 0.950 . S
C1073 C1071 1.327 . S
C1074 C1062 1.349 1_655 S
C1074 H1068 0.950 . S
C1074 C1075 1.327 1_655 S
C1075 H1069 0.950 1_455 S
C1075 C1074 1.327 1_455 S
C1075 C1079 1.429 . S
C1076 C1059 1.574 . S
C1076 H1070 0.949 . S
C1076 C1080 1.368 . S
C1077 C1058 1.429 . S
C1077 C1071 1.429 . S
C1077 C1078 1.523 . S
C1078 C1059 1.368 . S
C1078 C1072 1.368 . S
C1078 C1077 1.523 . S
C1079 C1063 1.429 . S
C1079 C1075 1.429 . S
C1079 C1080 1.523 . S
C1080 C1064 1.368 . S
C1080 C1076 1.368 . S
C1080 C1079 1.523 . S
H1081 C1056 0.950 . S
H1082 C1058 0.950 . S
H1083 C1059 0.949 . S
H1084 C1061 0.950 . S
H1085 C1063 0.950 . S
C1086 C1087 1.349 . S
C1086 C1088 1.327 . S
C1086 H1111 0.950 . S
C1087 C1086 1.349 . S
C1087 C1103 1.349 . S
C1088 C1086 1.327 . S
C1088 C1107 1.429 . S
C1088 H1112 0.950 . S
C1089 C1106 1.574 . S
C1089 C1108 1.368 . S
C1089 H1113 0.949 . S
H1090 C1094 0.949 1_565 S
C1091 C1092 1.349 . S
C1091 C1093 1.327 . S
C1091 H1114 0.950 . S
C1092 C1091 1.349 . S
C1092 C1104 1.349 1_545 S
C1093 C1091 1.327 . S
C1093 C1109 1.429 . S
C1093 H1115 0.950 . S
C1094 H1090 0.949 1_545 S
C1094 C1102 1.574 . S
C1094 C1110 1.368 . S
H1095 C1103 0.950 . S
H1096 C1101 0.950 . S
H1097 C1102 0.949 . S
H1098 C1104 0.950 . S
H1099 C1105 0.950 . S
H1100 C1106 0.949 . S
C1101 H1096 0.950 . S
C1101 C1103 1.327 . S
C1101 C1107 1.429 . S
C1102 C1094 1.574 . S
C1102 H1097 0.949 . S
C1102 C1108 1.368 . S
C1103 C1087 1.349 . S
C1103 H1095 0.950 . S
C1103 C1101 1.327 . S
C1104 C1092 1.349 1_565 S
C1104 H1098 0.950 . S
C1104 C1105 1.327 . S
C1105 H1099 0.950 . S
C1105 C1104 1.327 . S
C1105 C1109 1.429 1_565 S
C1106 C1089 1.574 . S
C1106 H1100 0.949 . S
C1106 C1110 1.368 . S
C1107 C1088 1.429 . S
C1107 C1101 1.429 . S
C1107 C1108 1.523 . S
C1108 C1089 1.368 . S
C1108 C1102 1.368 . S
C1108 C1107 1.523 . S
C1109 C1093 1.429 . S
C1109 C1105 1.429 1_545 S
C1109 C1110 1.523 . S
C1110 C1094 1.368 . S
C1110 C1106 1.368 . S
C1110 C1109 1.523 . S
H1111 C1086 0.950 . S
H1112 C1088 0.950 . S
H1113 C1089 0.949 . S
H1114 C1091 0.950 . S
H1115 C1093 0.950 . S
C1116 C1117 1.349 . S
C1116 C1118 1.327 . S
C1116 H1141 0.950 . S
C1117 C1116 1.349 . S
C1117 C1133 1.349 . S
C1118 C1116 1.327 . S
C1118 C1137 1.429 . S
C1118 H1142 0.950 . S
C1119 C1136 1.574 . S
C1119 C1138 1.368 . S
C1119 H1143 0.949 . S
H1120 C1124 0.949 . S
C1121 C1122 1.349 . S
C1121 C1123 1.327 . S
C1121 H1144 0.950 . S
C1122 C1121 1.349 . S
C1122 C1134 1.349 . S
C1123 C1121 1.327 . S
C1123 C1139 1.429 . S
C1123 H1145 0.950 . S
C1124 H1120 0.949 . S
C1124 C1132 1.574 . S
C1124 C1140 1.368 . S
H1125 C1133 0.950 . S
H1126 C1131 0.950 . S
H1127 C1132 0.949 . S
H1128 C1134 0.950 . S
H1129 C1135 0.950 . S
H1130 C1136 0.949 . S
C1131 H1126 0.950 . S
C1131 C1133 1.327 . S
C1131 C1137 1.429 . S
C1132 C1124 1.574 . S
C1132 H1127 0.949 . S
C1132 C1138 1.368 . S
C1133 C1117 1.349 . S
C1133 H1125 0.950 . S
C1133 C1131 1.327 . S
C1134 C1122 1.349 . S
C1134 H1128 0.950 . S
C1134 C1135 1.327 . S
C1135 H1129 0.950 . S
C1135 C1134 1.327 . S
C1135 C1139 1.429 . S
C1136 C1119 1.574 . S
C1136 H1130 0.949 . S
C1136 C1140 1.368 . S
C1137 C1118 1.429 . S
C1137 C1131 1.429 . S
C1137 C1138 1.523 . S
C1138 C1119 1.368 . S
C1138 C1132 1.368 . S
C1138 C1137 1.523 . S
C1139 C1123 1.429 . S
C1139 C1135 1.429 . S
C1139 C1140 1.523 . S
C1140 C1124 1.368 . S
C1140 C1136 1.368 . S
C1140 C1139 1.523 . S
H1141 C1116 0.950 . S
H1142 C1118 0.950 . S
H1143 C1119 0.949 . S
H1144 C1121 0.950 . S
H1145 C1123 0.950 . S
C1146 C1147 1.349 . S
C1146 C1148 1.327 . S
C1146 H1171 0.950 . S
C1147 C1146 1.349 . S
C1147 C1163 1.349 . S
C1148 C1146 1.327 . S
C1148 C1167 1.429 . S
C1148 H1172 0.950 . S
C1149 C1166 1.574 . S
C1149 C1168 1.368 . S
C1149 H1173 0.949 . S
H1150 C1154 0.949 . S
C1151 C1152 1.349 . S
C1151 C1153 1.327 . S
C1151 H1174 0.950 . S
C1152 C1151 1.349 . S
C1152 C1164 1.349 . S
C1153 C1151 1.327 . S
C1153 C1169 1.429 . S
C1153 H1175 0.950 . S
C1154 H1150 0.949 . S
C1154 C1162 1.574 . S
C1154 C1170 1.368 . S
H1155 C1163 0.950 . S
H1156 C1161 0.950 . S
H1157 C1162 0.949 . S
H1158 C1164 0.950 . S
H1159 C1165 0.950 . S
H1160 C1166 0.949 . S
C1161 H1156 0.950 . S
C1161 C1163 1.327 . S
C1161 C1167 1.429 . S
C1162 C1154 1.574 . S
C1162 H1157 0.949 . S
C1162 C1168 1.368 . S
C1163 C1147 1.349 . S
C1163 H1155 0.950 . S
C1163 C1161 1.327 . S
C1164 C1152 1.349 . S
C1164 H1158 0.950 . S
C1164 C1165 1.327 . S
C1165 H1159 0.950 . S
C1165 C1164 1.327 . S
C1165 C1169 1.429 . S
C1166 C1149 1.574 . S
C1166 H1160 0.949 . S
C1166 C1170 1.368 . S
C1167 C1148 1.429 . S
C1167 C1161 1.429 . S
C1167 C1168 1.523 . S
C1168 C1149 1.368 . S
C1168 C1162 1.368 . S
C1168 C1167 1.523 . S
C1169 C1153 1.429 . S
C1169 C1165 1.429 . S
C1169 C1170 1.523 . S
C1170 C1154 1.368 . S
C1170 C1166 1.368 . S
C1170 C1169 1.523 . S
H1171 C1146 0.950 . S
H1172 C1148 0.950 . S
H1173 C1149 0.949 . S
H1174 C1151 0.950 . S
H1175 C1153 0.950 . S
C1176 C1177 1.349 . S
C1176 C1178 1.327 . S
C1176 H1201 0.950 . S
C1177 C1176 1.349 . S
C1177 C1193 1.349 1_554 S
C1178 C1176 1.327 . S
C1178 C1197 1.429 1_554 S
C1178 H1202 0.950 . S
C1179 C1196 1.574 . S
C1179 C1198 1.368 . S
C1179 H1203 0.949 . S
H1180 C1184 0.949 1_455 S
C1181 C1182 1.349 1_655 S
C1181 C1183 1.327 . S
C1181 H1204 0.950 . S
C1182 C1181 1.349 1_455 S
C1182 C1194 1.349 . S
C1183 C1181 1.327 . S
C1183 C1199 1.429 . S
C1183 H1205 0.950 . S
C1184 H1180 0.949 1_655 S
C1184 C1192 1.574 . S
C1184 C1200 1.368 . S
H1185 C1193 0.950 . S
H1186 C1191 0.950 . S
H1187 C1192 0.949 . S
H1188 C1194 0.950 . S
H1189 C1195 0.950 . S
H1190 C1196 0.949 . S
C1191 H1186 0.950 . S
C1191 C1193 1.327 . S
C1191 C1197 1.429 . S
C1192 C1184 1.574 . S
C1192 H1187 0.949 . S
C1192 C1198 1.368 . S
C1193 C1177 1.349 1_556 S
C1193 H1185 0.950 . S
C1193 C1191 1.327 . S
C1194 C1182 1.349 . S
C1194 H1188 0.950 . S
C1194 C1195 1.327 . S
C1195 H1189 0.950 . S
C1195 C1194 1.327 . S
C1195 C1199 1.429 1_455 S
C1196 C1179 1.574 . S
C1196 H1190 0.949 . S
C1196 C1200 1.368 . S
C1197 C1178 1.429 1_556 S
C1197 C1191 1.429 . S
C1197 C1198 1.523 . S
C1198 C1179 1.368 . S
C1198 C1192 1.368 . S
C1198 C1197 1.523 . S
C1199 C1183 1.429 . S
C1199 C1195 1.429 1_655 S
C1199 C1200 1.523 . S
C1200 C1184 1.368 . S
C1200 C1196 1.368 . S
C1200 C1199 1.523 . S
H1201 C1176 0.950 . S
H1202 C1178 0.950 . S
H1203 C1179 0.949 . S
H1204 C1181 0.950 . S
H1205 C1183 0.950 . S
C1206 C1207 1.349 . S
C1206 C1208 1.327 1_554 S
C1206 H1231 0.950 . S
C1207 C1206 1.349 . S
C1207 C1223 1.349 . S
C1208 C1206 1.327 1_556 S
C1208 C1227 1.429 . S
C1208 H1232 0.950 . S
C1209 C1226 1.574 . S
C1209 C1228 1.368 . S
C1209 H1233 0.949 . S
H1210 C1214 0.949 . S
C1211 C1212 1.349 1_565 S
C1211 C1213 1.327 . S
C1211 H1234 0.950 . S
C1212 C1211 1.349 1_545 S
C1212 C1224 1.349 . S
C1213 C1211 1.327 . S
C1213 C1229 1.429 . S
C1213 H1235 0.950 . S
C1214 H1210 0.949 . S
C1214 C1222 1.574 1_545 S
C1214 C1230 1.368 1_545 S
H1215 C1223 0.950 . S
H1216 C1221 0.950 . S
H1217 C1222 0.949 1_545 S
H1218 C1224 0.950 . S
H1219 C1225 0.950 . S
H1220 C1226 0.949 . S
C1221 H1216 0.950 . S
C1221 C1223 1.327 1_556 S
C1221 C1227 1.429 . S
C1222 C1214 1.574 1_565 S
C1222 H1217 0.949 1_565 S
C1222 C1228 1.368 . S
C1223 C1207 1.349 . S
C1223 H1215 0.950 . S
C1223 C1221 1.327 1_554 S
C1224 C1212 1.349 . S
C1224 H1218 0.950 . S
C1224 C1225 1.327 . S
C1225 H1219 0.950 . S
C1225 C1224 1.327 . S
C1225 C1229 1.429 1_545 S
C1226 C1209 1.574 . S
C1226 H1220 0.949 . S
C1226 C1230 1.368 . S
C1227 C1208 1.429 . S
C1227 C1221 1.429 . S
C1227 C1228 1.523 . S
C1228 C1209 1.368 . S
C1228 C1222 1.368 . S
C1228 C1227 1.523 . S
C1229 C1213 1.429 . S
C1229 C1225 1.429 1_565 S
C1229 C1230 1.523 . S
C1230 C1214 1.368 1_565 S
C1230 C1226 1.368 . S
C1230 C1229 1.523 . S
H1231 C1206 0.950 . S
H1232 C1208 0.950 . S
H1233 C1209 0.949 . S
H1234 C1211 0.950 . S
H1235 C1213 0.950 . S
C1236 C1237 1.349 1_556 S
C1236 C1238 1.327 . S
C1236 H1261 0.950 . S
C1237 C1236 1.349 1_554 S
C1237 C1253 1.349 . S
C1238 C1236 1.327 . S
C1238 C1257 1.429 . S
C1238 H1262 0.950 . S
C1239 C1256 1.574 . S
C1239 C1258 1.368 . S
C1239 H1263 0.949 . S
H1240 C1244 0.949 . S
C1241 C1242 1.349 . S
C1241 C1243 1.327 . S
C1241 H1264 0.950 . S
C1242 C1241 1.349 . S
C1242 C1254 1.349 . S
C1243 C1241 1.327 . S
C1243 C1259 1.429 . S
C1243 H1265 0.950 . S
C1244 H1240 0.949 . S
C1244 C1252 1.574 . S
C1244 C1260 1.368 . S
H1245 C1253 0.950 . S
H1246 C1251 0.950 . S
H1247 C1252 0.949 . S
H1248 C1254 0.950 . S
H1249 C1255 0.950 . S
H1250 C1256 0.949 . S
C1251 H1246 0.950 . S
C1251 C1253 1.327 . S
C1251 C1257 1.429 1_554 S
C1252 C1244 1.574 . S
C1252 H1247 0.949 . S
C1252 C1258 1.368 . S
C1253 C1237 1.349 . S
C1253 H1245 0.950 . S
C1253 C1251 1.327 . S
C1254 C1242 1.349 . S
C1254 H1248 0.950 . S
C1254 C1255 1.327 . S
C1255 H1249 0.950 . S
C1255 C1254 1.327 . S
C1255 C1259 1.429 . S
C1256 C1239 1.574 . S
C1256 H1250 0.949 . S
C1256 C1260 1.368 . S
C1257 C1238 1.429 . S
C1257 C1251 1.429 1_556 S
C1257 C1258 1.523 . S
C1258 C1239 1.368 . S
C1258 C1252 1.368 . S
C1258 C1257 1.523 . S
C1259 C1243 1.429 . S
C1259 C1255 1.429 . S
C1259 C1260 1.523 . S
C1260 C1244 1.368 . S
C1260 C1256 1.368 . S
C1260 C1259 1.523 . S
H1261 C1236 0.950 . S
H1262 C1238 0.950 . S
H1263 C1239 0.949 . S
H1264 C1241 0.950 . S
H1265 C1243 0.950 . S
C1266 C1267 1.349 1_556 S
C1266 C1268 1.327 . S
C1266 H1291 0.950 . S
C1267 C1266 1.349 1_554 S
C1267 C1283 1.349 . S
C1268 C1266 1.327 . S
C1268 C1287 1.429 . S
C1268 H1292 0.950 . S
C1269 C1286 1.574 . S
C1269 C1288 1.368 . S
C1269 H1293 0.949 . S
H1270 C1274 0.949 . S
C1271 C1272 1.349 . S
C1271 C1273 1.327 . S
C1271 H1294 0.950 . S
C1272 C1271 1.349 . S
C1272 C1284 1.349 . S
C1273 C1271 1.327 . S
C1273 C1289 1.429 . S
C1273 H1295 0.950 . S
C1274 H1270 0.949 . S
C1274 C1282 1.574 . S
C1274 C1290 1.368 . S
H1275 C1283 0.950 . S
H1276 C1281 0.950 . S
H1277 C1282 0.949 . S
H1278 C1284 0.950 . S
H1279 C1285 0.950 . S
H1280 C1286 0.949 . S
C1281 H1276 0.950 . S
C1281 C1283 1.327 . S
C1281 C1287 1.429 1_554 S
C1282 C1274 1.574 . S
C1282 H1277 0.949 . S
C1282 C1288 1.368 . S
C1283 C1267 1.349 . S
C1283 H1275 0.950 . S
C1283 C1281 1.327 . S
C1284 C1272 1.349 . S
C1284 H1278 0.950 . S
C1284 C1285 1.327 . S
C1285 H1279 0.950 . S
C1285 C1284 1.327 . S
C1285 C1289 1.429 . S
C1286 C1269 1.574 . S
C1286 H1280 0.949 . S
C1286 C1290 1.368 . S
C1287 C1268 1.429 . S
C1287 C1281 1.429 1_556 S
C1287 C1288 1.523 . S
C1288 C1269 1.368 . S
C1288 C1282 1.368 . S
C1288 C1287 1.523 . S
C1289 C1273 1.429 . S
C1289 C1285 1.429 . S
C1289 C1290 1.523 . S
C1290 C1274 1.368 . S
C1290 C1286 1.368 . S
C1290 C1289 1.523 . S
H1291 C1266 0.950 . S
H1292 C1268 0.950 . S
H1293 C1269 0.949 . S
H1294 C1271 0.950 . S
H1295 C1273 0.950 . S
C1296 C1297 1.349 . S
C1296 C1298 1.327 . S
C1296 H1321 0.950 . S
C1297 C1296 1.349 . S
C1297 C1313 1.349 . S
C1298 C1296 1.327 . S
C1298 C1317 1.429 . S
C1298 H1322 0.950 . S
C1299 C1316 1.574 . S
C1299 C1318 1.368 . S
C1299 H1323 0.949 . S
H1300 C1304 0.949 . S
C1301 C1302 1.349 . S
C1301 C1303 1.327 . S
C1301 H1324 0.962 . S
C1302 C1301 1.349 . S
C1302 C1314 1.349 . S
C1303 C1301 1.327 . S
C1303 C1319 1.429 . S
C1303 H1325 0.950 . S
C1304 H1300 0.949 . S
C1304 C1312 1.574 . S
C1304 C1320 1.368 . S
H1305 C1313 0.950 . S
H1306 C1311 0.950 . S
H1307 C1312 0.949 . S
H1308 C1314 0.950 . S
H1309 C1315 0.950 . S
H1310 C1316 0.949 . S
C1311 H1306 0.950 . S
C1311 C1313 1.327 . S
C1311 C1317 1.429 . S
C1312 C1304 1.574 . S
C1312 H1307 0.949 . S
C1312 C1318 1.368 . S
C1313 C1297 1.349 . S
C1313 H1305 0.950 . S
C1313 C1311 1.327 . S
C1314 C1302 1.349 . S
C1314 H1308 0.950 . S
C1314 C1315 1.327 . S
C1315 H1309 0.950 . S
C1315 C1314 1.327 . S
C1315 C1319 1.429 . S
C1316 C1299 1.574 . S
C1316 H1310 0.949 . S
C1316 C1320 1.368 . S
C1317 C1298 1.429 . S
C1317 C1311 1.429 . S
C1317 C1318 1.523 . S
C1318 C1299 1.368 . S
C1318 C1312 1.368 . S
C1318 C1317 1.523 . S
C1319 C1303 1.429 . S
C1319 C1315 1.429 . S
C1319 C1320 1.523 . S
C1320 C1304 1.368 . S
C1320 C1316 1.368 . S
C1320 C1319 1.523 . S
H1321 C1296 0.950 . S
H1322 C1298 0.950 . S
H1323 C1299 0.949 . S
H1324 C1301 0.962 . S
H1325 C1303 0.950 . S
C1326 C1327 1.349 . S
C1326 C1328 1.327 . S
C1326 H1351 0.950 . S
C1327 C1326 1.349 . S
C1327 C1343 1.349 . S
C1328 C1326 1.327 . S
C1328 C1347 1.429 . S
C1328 H1352 0.950 . S
C1329 C1346 1.574 . S
C1329 C1348 1.368 . S
C1329 H1353 0.949 . S
H1330 C1334 0.949 . S
C1331 C1332 1.349 . S
C1331 C1333 1.327 . S
C1331 H1354 0.950 1_545 S
C1332 C1331 1.349 . S
C1332 C1344 1.349 . S
C1333 C1331 1.327 . S
C1333 C1349 1.429 . S
C1333 H1355 0.950 1_545 S
C1334 H1330 0.949 . S
C1334 C1342 1.574 . S
C1334 C1350 1.368 . S
H1335 C1343 0.950 . S
H1336 C1341 0.950 . S
H1337 C1342 0.949 . S
H1338 C1344 0.950 . S
H1339 C1345 0.950 . S
H1340 C1346 0.949 . S
C1341 H1336 0.950 . S
C1341 C1343 1.327 . S
C1341 C1347 1.429 . S
C1342 C1334 1.574 . S
C1342 H1337 0.949 . S
C1342 C1348 1.368 . S
C1343 C1327 1.349 . S
C1343 H1335 0.950 . S
C1343 C1341 1.327 . S
C1344 C1332 1.349 . S
C1344 H1338 0.950 . S
C1344 C1345 1.327 . S
C1345 H1339 0.950 . S
C1345 C1344 1.327 . S
C1345 C1349 1.429 . S
C1346 C1329 1.574 . S
C1346 H1340 0.949 . S
C1346 C1350 1.368 . S
C1347 C1328 1.429 . S
C1347 C1341 1.429 . S
C1347 C1348 1.523 . S
C1348 C1329 1.368 . S
C1348 C1342 1.368 . S
C1348 C1347 1.523 . S
C1349 C1333 1.429 . S
C1349 C1345 1.429 . S
C1349 C1350 1.523 . S
C1350 C1334 1.368 . S
C1350 C1346 1.368 . S
C1350 C1349 1.523 . S
H1351 C1326 0.950 . S
H1352 C1328 0.950 . S
H1353 C1329 0.949 . S
H1354 C1331 0.950 1_565 S
H1355 C1333 0.950 1_565 S
C1356 C1357 1.349 . S
C1356 C1358 1.327 . S
C1356 H1381 0.950 . S
C1357 C1356 1.349 . S
C1357 C1373 1.349 . S
C1358 C1356 1.327 . S
C1358 C1377 1.429 . S
C1358 H1382 0.950 . S
C1359 C1376 1.574 . S
C1359 C1378 1.368 . S
C1359 H1383 0.949 . S
H1360 C1364 0.949 . S
C1361 C1362 1.349 . S
C1361 C1363 1.327 . S
C1361 H1384 0.950 . S
C1362 C1361 1.349 . S
C1362 C1374 1.349 . S
C1363 C1361 1.327 . S
C1363 C1379 1.429 . S
C1363 H1385 0.950 . S
C1364 H1360 0.949 . S
C1364 C1372 1.574 . S
C1364 C1380 1.368 . S
H1365 C1373 0.950 . S
H1366 C1371 0.950 . S
H1367 C1372 0.949 . S
H1368 C1374 0.950 . S
H1369 C1375 0.950 . S
H1370 C1376 0.949 . S
C1371 H1366 0.950 . S
C1371 C1373 1.327 . S
C1371 C1377 1.429 . S
C1372 C1364 1.574 . S
C1372 H1367 0.949 . S
C1372 C1378 1.368 . S
C1373 C1357 1.349 . S
C1373 H1365 0.950 . S
C1373 C1371 1.327 . S
C1374 C1362 1.349 . S
C1374 H1368 0.950 . S
C1374 C1375 1.327 . S
C1375 H1369 0.950 . S
C1375 C1374 1.327 . S
C1375 C1379 1.429 . S
C1376 C1359 1.574 . S
C1376 H1370 0.949 . S
C1376 C1380 1.368 . S
C1377 C1358 1.429 . S
C1377 C1371 1.429 . S
C1377 C1378 1.523 . S
C1378 C1359 1.368 . S
C1378 C1372 1.368 . S
C1378 C1377 1.523 . S
C1379 C1363 1.429 . S
C1379 C1375 1.429 . S
C1379 C1380 1.523 . S
C1380 C1364 1.368 . S
C1380 C1376 1.368 . S
C1380 C1379 1.523 . S
H1381 C1356 0.950 . S
H1382 C1358 0.950 . S
H1383 C1359 0.949 . S
H1384 C1361 0.950 . S
H1385 C1363 0.950 . S
C1386 C1387 1.349 . S
C1386 C1388 1.327 . S
C1386 H1411 0.950 . S
C1387 C1386 1.349 . S
C1387 C1403 1.349 . S
C1388 C1386 1.327 . S
C1388 C1407 1.429 . S
C1388 H1412 0.950 . S
C1389 C1406 1.574 . S
C1389 C1408 1.368 . S
C1389 H1413 0.949 . S
H1390 C1394 0.949 . S
C1391 C1392 1.349 . S
C1391 C1393 1.327 . S
C1391 H1414 0.950 . S
C1392 C1391 1.349 . S
C1392 C1404 1.349 . S
C1393 C1391 1.327 . S
C1393 C1409 1.429 . S
C1393 H1415 0.950 . S
C1394 H1390 0.949 . S
C1394 C1402 1.574 . S
C1394 C1410 1.368 . S
H1395 C1403 0.950 . S
H1396 C1401 0.950 . S
H1397 C1402 0.949 . S
H1398 C1404 0.950 . S
H1399 C1405 0.950 . S
H1400 C1406 0.949 . S
C1401 H1396 0.950 . S
C1401 C1403 1.327 . S
C1401 C1407 1.429 . S
C1402 C1394 1.574 . S
C1402 H1397 0.949 . S
C1402 C1408 1.368 . S
C1403 C1387 1.349 . S
C1403 H1395 0.950 . S
C1403 C1401 1.327 . S
C1404 C1392 1.349 . S
C1404 H1398 0.950 . S
C1404 C1405 1.327 . S
C1405 H1399 0.950 . S
C1405 C1404 1.327 . S
C1405 C1409 1.429 . S
C1406 C1389 1.574 . S
C1406 H1400 0.949 . S
C1406 C1410 1.368 . S
C1407 C1388 1.429 . S
C1407 C1401 1.429 . S
C1407 C1408 1.523 . S
C1408 C1389 1.368 . S
C1408 C1402 1.368 . S
C1408 C1407 1.523 . S
C1409 C1393 1.429 . S
C1409 C1405 1.429 . S
C1409 C1410 1.523 . S
C1410 C1394 1.368 . S
C1410 C1406 1.368 . S
C1410 C1409 1.523 . S
H1411 C1386 0.950 . S
H1412 C1388 0.950 . S
H1413 C1389 0.949 . S
H1414 C1391 0.950 . S
H1415 C1393 0.950 . S
C1416 C1417 1.349 . S
C1416 C1418 1.327 . S
C1416 H1441 0.950 . S
C1417 C1416 1.349 . S
C1417 C1433 1.349 . S
C1418 C1416 1.327 . S
C1418 C1437 1.429 . S
C1418 H1442 0.950 . S
C1419 C1436 1.574 . S
C1419 C1438 1.368 . S
C1419 H1443 0.949 . S
H1420 C1424 0.949 . S
C1421 C1422 1.349 . S
C1421 C1423 1.327 . S
C1421 H1444 0.950 . S
C1422 C1421 1.349 . S
C1422 C1434 1.349 . S
C1423 C1421 1.327 . S
C1423 C1439 1.429 . S
C1423 H1445 0.950 . S
C1424 H1420 0.949 . S
C1424 C1432 1.574 . S
C1424 C1440 1.368 . S
H1425 C1433 0.950 . S
H1426 C1431 0.950 . S
H1427 C1432 0.949 . S
H1428 C1434 0.950 1_455 S
H1429 C1435 0.950 1_455 S
H1430 C1436 0.949 . S
C1431 H1426 0.950 . S
C1431 C1433 1.327 . S
C1431 C1437 1.429 . S
C1432 C1424 1.574 . S
C1432 H1427 0.949 . S
C1432 C1438 1.368 . S
C1433 C1417 1.349 . S
C1433 H1425 0.950 . S
C1433 C1431 1.327 . S
C1434 C1422 1.349 . S
C1434 H1428 0.950 1_655 S
C1434 C1435 1.327 . S
C1435 H1429 0.950 1_655 S
C1435 C1434 1.327 . S
C1435 C1439 1.429 . S
C1436 C1419 1.574 . S
C1436 H1430 0.949 . S
C1436 C1440 1.368 . S
C1437 C1418 1.429 . S
C1437 C1431 1.429 . S
C1437 C1438 1.523 . S
C1438 C1419 1.368 . S
C1438 C1432 1.368 . S
C1438 C1437 1.523 . S
C1439 C1423 1.429 . S
C1439 C1435 1.429 . S
C1439 C1440 1.523 . S
C1440 C1424 1.368 . S
C1440 C1436 1.368 . S
C1440 C1439 1.523 . S
H1441 C1416 0.950 . S
H1442 C1418 0.950 . S
H1443 C1419 0.949 . S
H1444 C1421 0.950 . S
H1445 C1423 0.950 . S
C1446 C1447 1.349 . S
C1446 C1448 1.327 . S
C1446 H1471 0.950 . S
C1447 C1446 1.349 . S
C1447 C1463 1.349 . S
C1448 C1446 1.327 . S
C1448 C1467 1.429 . S
C1448 H1472 0.950 . S
C1449 C1466 1.574 . S
C1449 C1468 1.368 . S
C1449 H1473 0.949 . S
H1450 C1454 0.913 1_545 S
C1451 C1452 1.349 . S
C1451 C1453 1.327 . S
C1451 H1474 0.950 . S
C1452 C1451 1.349 . S
C1452 C1464 1.340 1_565 S
C1453 C1451 1.327 . S
C1453 C1469 1.429 . S
C1453 H1475 0.950 . S
C1454 H1450 0.913 1_565 S
C1454 C1462 1.574 . S
C1454 C1470 1.368 . S
H1455 C1463 0.950 . S
H1456 C1461 0.950 . S
H1457 C1462 0.949 . S
H1458 C1464 0.962 . S
H1459 C1465 0.950 1_545 S
H1460 C1466 0.949 . S
C1461 H1456 0.950 . S
C1461 C1463 1.327 . S
C1461 C1467 1.429 . S
C1462 C1454 1.574 . S
C1462 H1457 0.949 . S
C1462 C1468 1.368 . S
C1463 C1447 1.349 . S
C1463 H1455 0.950 . S
C1463 C1461 1.327 . S
C1464 C1452 1.340 1_545 S
C1464 H1458 0.962 . S
C1464 C1465 1.325 1_545 S
C1465 H1459 0.950 1_565 S
C1465 C1464 1.325 1_565 S
C1465 C1469 1.429 . S
C1466 C1449 1.574 . S
C1466 H1460 0.949 . S
C1466 C1470 1.368 . S
C1467 C1448 1.429 . S
C1467 C1461 1.429 . S
C1467 C1468 1.523 . S
C1468 C1449 1.368 . S
C1468 C1462 1.368 . S
C1468 C1467 1.523 . S
C1469 C1453 1.429 . S
C1469 C1465 1.429 . S
C1469 C1470 1.523 . S
C1470 C1454 1.368 . S
C1470 C1466 1.368 . S
C1470 C1469 1.523 . S
H1471 C1446 0.950 . S
H1472 C1448 0.950 . S
H1473 C1449 0.949 . S
H1474 C1451 0.950 . S
H1475 C1453 0.950 . S
C1476 C1477 1.349 . S
C1476 C1478 1.327 . S
C1476 H1501 0.950 . S
C1477 C1476 1.349 . S
C1477 C1493 1.349 . S
C1478 C1476 1.327 . S
C1478 C1497 1.429 . S
C1478 H1502 0.950 . S
C1479 C1496 1.574 . S
C1479 C1498 1.368 . S
C1479 H1503 0.949 . S
H1480 C1484 0.949 . S
C1481 C1482 1.349 . S
C1481 C1483 1.327 . S
C1481 H1504 0.950 . S
C1482 C1481 1.349 . S
C1482 C1494 1.349 . S
C1483 C1481 1.327 . S
C1483 C1499 1.429 . S
C1483 H1505 0.950 . S
C1484 H1480 0.949 . S
C1484 C1492 1.574 . S
C1484 C1500 1.368 . S
H1485 C1493 0.950 . S
H1486 C1491 0.950 . S
H1487 C1492 0.949 . S
H1488 C1494 0.950 . S
H1489 C1495 0.950 . S
H1490 C1496 0.949 . S
C1491 H1486 0.950 . S
C1491 C1493 1.327 . S
C1491 C1497 1.429 . S
C1492 C1484 1.574 . S
C1492 H1487 0.949 . S
C1492 C1498 1.368 . S
C1493 C1477 1.349 . S
C1493 H1485 0.950 . S
C1493 C1491 1.327 . S
C1494 C1482 1.349 . S
C1494 H1488 0.950 . S
C1494 C1495 1.327 . S
C1495 H1489 0.950 . S
C1495 C1494 1.327 . S
C1495 C1499 1.429 . S
C1496 C1479 1.574 . S
C1496 H1490 0.949 . S
C1496 C1500 1.368 . S
C1497 C1478 1.429 . S
C1497 C1491 1.429 . S
C1497 C1498 1.523 . S
C1498 C1479 1.368 . S
C1498 C1492 1.368 . S
C1498 C1497 1.523 . S
C1499 C1483 1.429 . S
C1499 C1495 1.429 . S
C1499 C1500 1.523 . S
C1500 C1484 1.368 . S
C1500 C1496 1.368 . S
C1500 C1499 1.523 . S
H1501 C1476 0.950 . S
H1502 C1478 0.950 . S
H1503 C1479 0.949 . S
H1504 C1481 0.950 . S
H1505 C1483 0.950 . S
C1506 C1507 1.349 . S
C1506 C1508 1.327 . S
C1506 H1531 0.950 . S
C1507 C1506 1.349 . S
C1507 C1523 1.349 . S
C1508 C1506 1.327 . S
C1508 C1527 1.429 . S
C1508 H1532 0.950 . S
C1509 C1526 1.574 . S
C1509 C1528 1.368 . S
C1509 H1533 0.949 . S
H1510 C1514 0.949 . S
C1511 C1512 1.349 . S
C1511 C1513 1.327 . S
C1511 H1534 0.950 . S
C1512 C1511 1.349 . S
C1512 C1524 1.349 . S
C1513 C1511 1.327 . S
C1513 C1529 1.429 . S
C1513 H1535 0.950 . S
C1514 H1510 0.949 . S
C1514 C1522 1.574 . S
C1514 C1530 1.368 . S
H1515 C1523 0.950 . S
H1516 C1521 0.950 . S
H1517 C1522 0.949 . S
H1518 C1524 0.950 . S
H1519 C1525 0.950 . S
H1520 C1526 0.949 . S
C1521 H1516 0.950 . S
C1521 C1523 1.327 . S
C1521 C1527 1.429 . S
C1522 C1514 1.574 . S
C1522 H1517 0.949 . S
C1522 C1528 1.368 . S
C1523 C1507 1.349 . S
C1523 H1515 0.950 . S
C1523 C1521 1.327 . S
C1524 C1512 1.349 . S
C1524 H1518 0.950 . S
C1524 C1525 1.327 . S
C1525 H1519 0.950 . S
C1525 C1524 1.327 . S
C1525 C1529 1.429 . S
C1526 C1509 1.574 . S
C1526 H1520 0.949 . S
C1526 C1530 1.368 . S
C1527 C1508 1.429 . S
C1527 C1521 1.429 . S
C1527 C1528 1.523 . S
C1528 C1509 1.368 . S
C1528 C1522 1.368 . S
C1528 C1527 1.523 . S
C1529 C1513 1.429 . S
C1529 C1525 1.429 . S
C1529 C1530 1.523 . S
C1530 C1514 1.368 . S
C1530 C1526 1.368 . S
C1530 C1529 1.523 . S
H1531 C1506 0.950 . S
H1532 C1508 0.950 . S
H1533 C1509 0.949 . S
H1534 C1511 0.950 . S
H1535 C1513 0.950 . S
C817 C391 2.177 . S
C822 C543 2.194 . S
C852 C620 2.212 . S
C847 C451 2.195 . S
C882 C711 2.185 . S
C877 C241 1.907 . S
C912 C795 2.168 . S
C907 C331 1.893 . S
C942 C554 2.194 1_565 S
C937 C121 1.956 . S
C967 C211 2.159 . S
C972 C631 2.212 . S
C997 C31 2.134 . S
C1002 C722 2.186 . S
C1027 C91 1.929 . S
C1032 C806 2.167 1_655 S
C1062 C538 0.428 1_455 S
C1057 C301 0.482 . S
C1092 C633 0.524 . S
C1087 C380 0.205 . S
C1122 C706 0.425 . S
C1117 C440 0.255 . S
C1147 C260 0.480 . S
C1152 C790 0.422 . S
C1177 C61 0.384 . S
C1182 C549 0.428 . S
C1212 C622 0.524 . S
C1207 C140 0.376 . S
C1242 C717 0.425 . S
C1237 C200 0.390 . S
C1267 C20 0.373 . S
C1272 C801 0.422 . S
C1297 C320 2.522 . S
C1302 C547 2.657 . S
C1327 C361 2.233 . S
C1332 C638 2.667 . S
C1362 C715 2.682 . S
C1357 C421 2.266 . S
C1392 C799 2.684 . S
C1387 C271 2.548 . S
C1417 C80 2.550 . S
C1422 C536 2.656 . S
C1452 C627 2.667 . S
C1447 C151 2.540 . S
C1482 C704 2.683 . S
C1477 C181 2.231 . S
C1507 C1 2.236 . S
C1512 C788 2.684 . S
