# Generated by pormake.
# Topology eea, (3,6)-cn, num edge types: 1
# Building blocks:
#     Node 0, Type 0, BuildingBlock: BETDAH_clean_linker_0, # of connection points: 3
#     Node 1, Type 0, BuildingBlock: BETDAH_clean_linker_0, # of connection points: 3
#     Node 2, Type 0, BuildingBlock: BETDAH_clean_linker_0, # of connection points: 3
#     Node 3, Type 0, BuildingBlock: BETDAH_clean_linker_0, # of connection points: 3
#     Node 4, Type 0, BuildingBlock: BETDAH_clean_linker_0, # of connection points: 3
#     Node 5, Type 0, BuildingBlock: BETDAH_clean_linker_0, # of connection points: 3
#     Node 6, Type 0, BuildingBlock: BETDAH_clean_linker_0, # of connection points: 3
#     Node 7, Type 0, BuildingBlock: BETDAH_clean_linker_0, # of connection points: 3
#     Node 8, Type 0, BuildingBlock: BETDAH_clean_linker_0, # of connection points: 3
#     Node 9, Type 0, BuildingBlock: BETDAH_clean_linker_0, # of connection points: 3
#     Node 10, Type 0, BuildingBlock: BETDAH_clean_linker_0, # of connection points: 3
#     Node 11, Type 0, BuildingBlock: BETDAH_clean_linker_0, # of connection points: 3
#     Node 12, Type 0, BuildingBlock: BETDAH_clean_linker_0, # of connection points: 3
#     Node 13, Type 0, BuildingBlock: BETDAH_clean_linker_0, # of connection points: 3
#     Node 14, Type 0, BuildingBlock: BETDAH_clean_linker_0, # of connection points: 3
#     Node 15, Type 0, BuildingBlock: BETDAH_clean_linker_0, # of connection points: 3
#     Node 16, Type 0, BuildingBlock: BETDAH_clean_linker_0, # of connection points: 3
#     Node 17, Type 0, BuildingBlock: BETDAH_clean_linker_0, # of connection points: 3
#     Node 18, Type 1, BuildingBlock: KUMBUR_clean_sbu_0, # of connection points: 6
#     Node 19, Type 1, BuildingBlock: KUMBUR_clean_sbu_0, # of connection points: 6
#     Node 20, Type 1, BuildingBlock: KUMBUR_clean_sbu_0, # of connection points: 6
#     Node 21, Type 1, BuildingBlock: KUMBUR_clean_sbu_0, # of connection points: 6
#     Node 22, Type 1, BuildingBlock: KUMBUR_clean_sbu_0, # of connection points: 6
#     Node 23, Type 1, BuildingBlock: KUMBUR_clean_sbu_0, # of connection points: 6
#     Node 24, Type 1, BuildingBlock: KUMBUR_clean_sbu_0, # of connection points: 6
#     Node 25, Type 1, BuildingBlock: KUMBUR_clean_sbu_0, # of connection points: 6
#     Node 26, Type 1, BuildingBlock: KUMBUR_clean_sbu_0, # of connection points: 6
#     Edge 27, Type (0, 1), BuildingBlock: MIFKUJ_clean_linker_0, # of connection points: 2
#     Edge 28, Type (0, 1), BuildingBlock: MIFKUJ_clean_linker_0, # of connection points: 2
#     Edge 29, Type (0, 1), BuildingBlock: MIFKUJ_clean_linker_0, # of connection points: 2
#     Edge 30, Type (0, 1), BuildingBlock: MIFKUJ_clean_linker_0, # of connection points: 2
#     Edge 31, Type (0, 1), BuildingBlock: MIFKUJ_clean_linker_0, # of connection points: 2
#     Edge 32, Type (0, 1), BuildingBlock: MIFKUJ_clean_linker_0, # of connection points: 2
#     Edge 33, Type (0, 1), BuildingBlock: MIFKUJ_clean_linker_0, # of connection points: 2
#     Edge 34, Type (0, 1), BuildingBlock: MIFKUJ_clean_linker_0, # of connection points: 2
#     Edge 35, Type (0, 1), BuildingBlock: MIFKUJ_clean_linker_0, # of connection points: 2
#     Edge 36, Type (0, 1), BuildingBlock: MIFKUJ_clean_linker_0, # of connection points: 2
#     Edge 37, Type (0, 1), BuildingBlock: MIFKUJ_clean_linker_0, # of connection points: 2
#     Edge 38, Type (0, 1), BuildingBlock: MIFKUJ_clean_linker_0, # of connection points: 2
#     Edge 39, Type (0, 1), BuildingBlock: MIFKUJ_clean_linker_0, # of connection points: 2
#     Edge 40, Type (0, 1), BuildingBlock: MIFKUJ_clean_linker_0, # of connection points: 2
#     Edge 41, Type (0, 1), BuildingBlock: MIFKUJ_clean_linker_0, # of connection points: 2
#     Edge 42, Type (0, 1), BuildingBlock: MIFKUJ_clean_linker_0, # of connection points: 2
#     Edge 43, Type (0, 1), BuildingBlock: MIFKUJ_clean_linker_0, # of connection points: 2
#     Edge 44, Type (0, 1), BuildingBlock: MIFKUJ_clean_linker_0, # of connection points: 2
#     Edge 45, Type (0, 1), BuildingBlock: MIFKUJ_clean_linker_0, # of connection points: 2
#     Edge 46, Type (0, 1), BuildingBlock: MIFKUJ_clean_linker_0, # of connection points: 2
#     Edge 47, Type (0, 1), BuildingBlock: MIFKUJ_clean_linker_0, # of connection points: 2
#     Edge 48, Type (0, 1), BuildingBlock: MIFKUJ_clean_linker_0, # of connection points: 2
#     Edge 49, Type (0, 1), BuildingBlock: MIFKUJ_clean_linker_0, # of connection points: 2
#     Edge 50, Type (0, 1), BuildingBlock: MIFKUJ_clean_linker_0, # of connection points: 2
#     Edge 51, Type (0, 1), BuildingBlock: MIFKUJ_clean_linker_0, # of connection points: 2
#     Edge 52, Type (0, 1), BuildingBlock: MIFKUJ_clean_linker_0, # of connection points: 2
#     Edge 53, Type (0, 1), BuildingBlock: MIFKUJ_clean_linker_0, # of connection points: 2
#     Edge 54, Type (0, 1), BuildingBlock: MIFKUJ_clean_linker_0, # of connection points: 2
#     Edge 55, Type (0, 1), BuildingBlock: MIFKUJ_clean_linker_0, # of connection points: 2
#     Edge 56, Type (0, 1), BuildingBlock: MIFKUJ_clean_linker_0, # of connection points: 2
#     Edge 57, Type (0, 1), BuildingBlock: MIFKUJ_clean_linker_0, # of connection points: 2
#     Edge 58, Type (0, 1), BuildingBlock: MIFKUJ_clean_linker_0, # of connection points: 2
#     Edge 59, Type (0, 1), BuildingBlock: MIFKUJ_clean_linker_0, # of connection points: 2
#     Edge 60, Type (0, 1), BuildingBlock: MIFKUJ_clean_linker_0, # of connection points: 2
#     Edge 61, Type (0, 1), BuildingBlock: MIFKUJ_clean_linker_0, # of connection points: 2
#     Edge 62, Type (0, 1), BuildingBlock: MIFKUJ_clean_linker_0, # of connection points: 2
#     Edge 63, Type (0, 1), BuildingBlock: MIFKUJ_clean_linker_0, # of connection points: 2
#     Edge 64, Type (0, 1), BuildingBlock: MIFKUJ_clean_linker_0, # of connection points: 2
#     Edge 65, Type (0, 1), BuildingBlock: MIFKUJ_clean_linker_0, # of connection points: 2
#     Edge 66, Type (0, 1), BuildingBlock: MIFKUJ_clean_linker_0, # of connection points: 2
#     Edge 67, Type (0, 1), BuildingBlock: MIFKUJ_clean_linker_0, # of connection points: 2
#     Edge 68, Type (0, 1), BuildingBlock: MIFKUJ_clean_linker_0, # of connection points: 2
#     Edge 69, Type (0, 1), BuildingBlock: MIFKUJ_clean_linker_0, # of connection points: 2
#     Edge 70, Type (0, 1), BuildingBlock: MIFKUJ_clean_linker_0, # of connection points: 2
#     Edge 71, Type (0, 1), BuildingBlock: MIFKUJ_clean_linker_0, # of connection points: 2
#     Edge 72, Type (0, 1), BuildingBlock: MIFKUJ_clean_linker_0, # of connection points: 2
#     Edge 73, Type (0, 1), BuildingBlock: MIFKUJ_clean_linker_0, # of connection points: 2
#     Edge 74, Type (0, 1), BuildingBlock: MIFKUJ_clean_linker_0, # of connection points: 2
#     Edge 75, Type (0, 1), BuildingBlock: MIFKUJ_clean_linker_0, # of connection points: 2
#     Edge 76, Type (0, 1), BuildingBlock: MIFKUJ_clean_linker_0, # of connection points: 2
#     Edge 77, Type (0, 1), BuildingBlock: MIFKUJ_clean_linker_0, # of connection points: 2
#     Edge 78, Type (0, 1), BuildingBlock: MIFKUJ_clean_linker_0, # of connection points: 2
#     Edge 79, Type (0, 1), BuildingBlock: MIFKUJ_clean_linker_0, # of connection points: 2
#     Edge 80, Type (0, 1), BuildingBlock: MIFKUJ_clean_linker_0, # of connection points: 2
# Relax obj value: 0.022
# Max RMSD: 0.151
# Mean RMSD: 0.112
data_MOF--net-eea--node1-KUMBUR_clean_sbu_0--node2-BETDAH_clean_linker_0--edge1-MIFKUJ_clean_linker_0
_symmetry_space_group_name_H-M    P1
_symmetry_Int_Tables_number       1
_symmetry_cell_setting            triclinic
loop_
_symmetry_equiv_pos_as_xyz
'x, y, z'
_cell_length_a     71.552472
_cell_length_b     72.916091
_cell_length_c     82.760685
_cell_angle_alpha  90.212919
_cell_angle_beta   90.198548
_cell_angle_gamma 119.96215
loop_
_atom_site_label
_atom_site_type_symbol
_atom_site_fract_x
_atom_site_fract_y
_atom_site_fract_z
_atom_type_partial_charge
H0 H 0.22373 0.07372 0.44095 0.0
H1 H 0.21478 0.12732 0.43407 0.0
H2 H 0.19375 0.07901 0.39742 0.0
C3 C 0.21764 0.082 0.43371 0.0
C4 C 0.2084 0.07386 0.4185 0.0
C5 C 0.21995 0.10121 0.43943 0.0
C6 C 0.21297 0.11248 0.42973 0.0
C7 C 0.20348 0.10435 0.41454 0.0
C8 C 0.20128 0.08517 0.40908 0.0
N9 N 0.19592 0.11482 0.40426 0.0
C10 C 0.19601 0.1335 0.40782 0.0
H11 H 0.93799 0.15742 0.43724 0.0
H12 H 0.88463 0.09402 0.43009 0.0
H13 H 0.93309 0.12318 0.39358 0.0
C14 C 0.92956 0.14319 0.42993 0.0
C15 C 0.93802 0.14234 0.41482 0.0
C16 C 0.91031 0.12581 0.43563 0.0
C17 C 0.89937 0.10752 0.42584 0.0
C18 C 0.9077 0.10663 0.41066 0.0
C19 C 0.92692 0.12397 0.40535 0.0
N20 N 0.89741 0.08877 0.40021 0.0
C21 C 0.87863 0.06981 0.40335 0.0
H22 H 0.85517 0.78158 0.43706 0.0
H23 H 0.91669 0.78591 0.42823 0.0
H24 H 0.88711 0.80489 0.39165 0.0
C25 C 0.86881 0.78574 0.42924 0.0
C26 C 0.86905 0.79379 0.41377 0.0
C27 C 0.88589 0.78285 0.43467 0.0
C28 C 0.90348 0.78807 0.42425 0.0
C29 C 0.90395 0.79621 0.40874 0.0
C30 C 0.88676 0.79897 0.40371 0.0
N31 N 0.92096 0.80156 0.39752 0.0
C32 C 0.94038 0.8018 0.40001 0.0
H33 H 0.07445 0.21908 0.59068 0.0
H34 H 0.12823 0.20861 0.59777 0.0
H35 H 0.07917 0.18918 0.63394 0.0
C36 C 0.08291 0.21319 0.59796 0.0
C37 C 0.07428 0.20387 0.61298 0.0
C38 C 0.10232 0.21494 0.59222 0.0
C39 C 0.11342 0.20755 0.602 0.0
C40 C 0.1049 0.19812 0.61703 0.0
C41 C 0.08542 0.19628 0.62227 0.0
N42 N 0.11484 0.18972 0.62724 0.0
C43 C 0.13551 0.19244 0.62601 0.0
H44 H 0.7801 0.85206 0.5897 0.0
H45 H 0.78973 0.9149 0.59559 0.0
H46 H 0.81094 0.88828 0.63262 0.0
C47 C 0.78573 0.86629 0.59694 0.0
C48 C 0.79591 0.86802 0.61186 0.0
C49 C 0.78333 0.88307 0.59101 0.0
C50 C 0.79154 0.90193 0.60008 0.0
C51 C 0.80158 0.9037 0.6151 0.0
C52 C 0.80351 0.88675 0.62088 0.0
N53 N 0.80991 0.92209 0.62494 0.0
C54 C 0.81014 0.94069 0.62104 0.0
H55 H 0.15138 0.92987 0.58751 0.0
H56 H 0.09055 0.87431 0.59808 0.0
H57 H 0.1202 0.9247 0.63298 0.0
C58 C 0.13787 0.92131 0.59558 0.0
C59 C 0.13806 0.9299 0.61085 0.0
C60 C 0.12081 0.90132 0.59083 0.0
C61 C 0.10369 0.88973 0.60161 0.0
C62 C 0.1036 0.89831 0.61687 0.0
C63 C 0.12069 0.91823 0.62128 0.0
N64 N 0.0869 0.88764 0.62834 0.0
C65 C 0.06789 0.86846 0.62619 0.0
H66 H 0.89158 0.40778 0.7769 0.0
H67 H 0.88048 0.45995 0.76935 0.0
H68 H 0.85846 0.41002 0.7341 0.0
C69 C 0.88538 0.41572 0.7694 0.0
C70 C 0.87472 0.4063 0.75484 0.0
C71 C 0.88778 0.43518 0.77464 0.0
C72 C 0.87877 0.44501 0.76537 0.0
C73 C 0.86798 0.43563 0.75078 0.0
C74 C 0.86626 0.41659 0.74561 0.0
N75 N 0.85865 0.44466 0.74076 0.0
C76 C 0.85941 0.46383 0.74334 0.0
H77 H 0.60735 0.49259 0.77062 0.0
H78 H 0.55797 0.42715 0.76549 0.0
H79 H 0.60656 0.45656 0.72907 0.0
C80 C 0.59992 0.478 0.76365 0.0
C81 C 0.60936 0.47693 0.74908 0.0
C82 C 0.58142 0.46013 0.76969 0.0
C83 C 0.57217 0.44096 0.76091 0.0
C84 C 0.58136 0.43981 0.7462 0.0
C85 C 0.59982 0.4577 0.74049 0.0
N86 N 0.57295 0.42102 0.73676 0.0
C87 C 0.55321 0.40264 0.73883 0.0
H88 H 0.52295 0.11975 0.77218 0.0
H89 H 0.58454 0.12385 0.76476 0.0
H90 H 0.55601 0.1424 0.72703 0.0
C91 C 0.53671 0.12373 0.76453 0.0
C92 C 0.53729 0.13146 0.74889 0.0
C93 C 0.55364 0.12092 0.77039 0.0
C94 C 0.57148 0.12599 0.76036 0.0
C95 C 0.57242 0.13402 0.74473 0.0
C96 C 0.55532 0.13662 0.73918 0.0
N97 N 0.58993 0.13948 0.734 0.0
C98 C 0.60908 0.13947 0.73722 0.0
H99 H 0.74617 0.56317 0.92684 0.0
H100 H 0.79773 0.54906 0.93165 0.0
H101 H 0.74828 0.52777 0.96763 0.0
C102 C 0.75388 0.55599 0.93352 0.0
C103 C 0.74474 0.54551 0.94814 0.0
C104 C 0.77286 0.55722 0.92734 0.0
C105 C 0.78307 0.54808 0.93618 0.0
C106 C 0.77428 0.53775 0.95089 0.0
C107 C 0.75515 0.53635 0.95655 0.0
N108 N 0.78361 0.52809 0.9604 0.0
C109 C 0.80364 0.52945 0.95853 0.0
H110 H 0.45827 0.1905 0.9144 0.0
H111 H 0.46509 0.25153 0.92474 0.0
H112 H 0.48642 0.22228 0.95939 0.0
C113 C 0.46353 0.20403 0.92238 0.0
C114 C 0.47313 0.2044 0.93731 0.0
C115 C 0.46037 0.22088 0.91776 0.0
C116 C 0.46726 0.2384 0.92822 0.0
C117 C 0.47688 0.23887 0.94317 0.0
C118 C 0.47953 0.22187 0.94762 0.0
N119 N 0.48387 0.25591 0.95429 0.0
C120 C 0.48426 0.27484 0.95143 0.0
H121 H 0.82007 0.2647 0.9217 0.0
H122 H 0.75756 0.20986 0.92962 0.0
H123 H 0.78514 0.25976 0.9651 0.0
C124 C 0.80608 0.2559 0.92929 0.0
C125 C 0.80488 0.26473 0.94408 0.0
C126 C 0.78926 0.23605 0.92395 0.0
C127 C 0.77059 0.22514 0.93353 0.0
C128 C 0.76916 0.2339 0.94838 0.0
C129 C 0.7863 0.25348 0.95349 0.0
N130 N 0.7511 0.22373 0.95883 0.0
C131 C 0.73239 0.2043 0.9565 0.0
H132 H 0.56904 0.74631 0.10574 0.0
H133 H 0.56353 0.80104 0.09434 0.0
H134 H 0.54512 0.75142 0.05922 0.0
C135 C 0.56435 0.75478 0.09744 0.0
C136 C 0.55666 0.74632 0.08197 0.0
C137 C 0.56696 0.77455 0.10201 0.0
C138 C 0.56155 0.78581 0.09094 0.0
C139 C 0.5537 0.77734 0.07547 0.0
C140 C 0.5514 0.7578 0.07113 0.0
N141 N 0.54821 0.78798 0.06372 0.0
C142 C 0.54573 0.80539 0.06661 0.0
H143 H 0.27448 0.82763 0.10721 0.0
H144 H 0.21986 0.76553 0.09807 0.0
H145 H 0.26917 0.79549 0.0623 0.0
C146 C 0.26587 0.81389 0.09943 0.0
C147 C 0.27448 0.81361 0.08424 0.0
C148 C 0.24613 0.79663 0.10459 0.0
C149 C 0.23497 0.77893 0.09425 0.0
C150 C 0.24344 0.77857 0.07901 0.0
C151 C 0.26303 0.79585 0.07418 0.0
N152 N 0.23283 0.76138 0.06796 0.0
C153 C 0.21401 0.74229 0.07072 0.0
H154 H 0.18715 0.44709 0.1072 0.0
H155 H 0.251 0.45626 0.10013 0.0
H156 H 0.22295 0.47817 0.06454 0.0
C157 C 0.20168 0.45316 0.10003 0.0
C158 C 0.20267 0.46272 0.08509 0.0
C159 C 0.21898 0.45075 0.10564 0.0
C160 C 0.23753 0.45784 0.09592 0.0
C161 C 0.23891 0.46781 0.08106 0.0
C162 C 0.22154 0.47019 0.07588 0.0
N163 N 0.25761 0.47657 0.07113 0.0
C164 C 0.27494 0.47286 0.07178 0.0
H165 H 0.41076 0.89421 0.25765 0.0
H166 H 0.4651 0.88433 0.26292 0.0
H167 H 0.41665 0.86284 0.29967 0.0
C168 C 0.41924 0.88788 0.2644 0.0
C169 C 0.41108 0.87822 0.27943 0.0
C170 C 0.43869 0.89017 0.25825 0.0
C171 C 0.45023 0.8828 0.2675 0.0
C172 C 0.44225 0.87304 0.28251 0.0
C173 C 0.42276 0.87074 0.28823 0.0
N174 N 0.45299 0.86508 0.29233 0.0
C175 C 0.47287 0.86649 0.28947 0.0
H176 H 0.12108 0.52591 0.25569 0.0
H177 H 0.14693 0.59341 0.25425 0.0
H178 H 0.17142 0.56675 0.28881 0.0
C179 C 0.132 0.54162 0.26042 0.0
C180 C 0.1459 0.54407 0.27331 0.0
C181 C 0.13232 0.55933 0.2534 0.0
C182 C 0.14651 0.57967 0.25961 0.0
C183 C 0.16049 0.58225 0.27249 0.0
C184 C 0.16025 0.56451 0.2791 0.0
N185 N 0.17569 0.60248 0.27868 0.0
C186 C 0.17264 0.61985 0.27902 0.0
H187 H 0.48373 0.59427 0.25433 0.0
H188 H 0.42275 0.53783 0.26253 0.0
H189 H 0.45029 0.5862 0.29917 0.0
C190 C 0.46986 0.58516 0.26197 0.0
C191 C 0.4692 0.59283 0.27744 0.0
C192 C 0.45321 0.56538 0.25649 0.0
C193 C 0.43558 0.5531 0.26666 0.0
C194 C 0.4346 0.56076 0.28209 0.0
C195 C 0.45137 0.58046 0.28731 0.0
N196 N 0.41727 0.54929 0.29292 0.0
C197 C 0.39834 0.53041 0.28967 0.0
Tb198 Tb 0.49501 0.99319 0.99457 0.0
C199 C 0.53813 0.06587 0.04348 0.0
C200 C 0.57591 0.07648 0.04191 0.0
C201 C 0.56536 0.10254 0.04855 0.0
C202 C 0.55396 0.06086 0.04058 0.0
C203 C 0.54355 0.08664 0.04786 0.0
C204 C 0.58153 0.09747 0.04555 0.0
C205 C 0.50559 0.07397 0.05172 0.0
N206 N 0.51734 0.05002 0.04271 0.0
C207 C 0.50108 0.0536 0.04735 0.0
C208 C 0.5269 0.09064 0.05179 0.0
Tb209 Tb 0.51134 0.01745 0.03439 0.0
N210 N 0.54777 0.0404 0.03717 0.0
C211 C 0.56291 0.03421 0.03618 0.0
C212 C 0.59148 0.07043 0.03993 0.0
C213 C 0.58492 0.04913 0.03731 0.0
H214 H 0.48453 0.04089 0.04721 0.0
H215 H 0.59681 0.04418 0.03606 0.0
H216 H 0.59831 0.10976 0.04644 0.0
H217 H 0.49262 0.07681 0.05501 0.0
H218 H 0.55826 0.0179 0.03401 0.0
H219 H 0.40963 0.96528 0.98959 0.0
H220 H 0.60853 0.08195 0.04078 0.0
H221 H 0.52357 0.97089 0.98307 0.0
H222 H 0.44766 0.99162 0.99418 0.0
H223 H 0.51669 0.93581 0.97431 0.0
H224 H 0.56988 0.11867 0.05173 0.0
H225 H 0.39905 0.92812 0.98307 0.0
H226 H 0.41021 0.90101 0.97783 0.0
H227 H 0.53036 0.10639 0.05521 0.0
H228 H 0.43942 0.89287 0.97388 0.0
N229 N 0.45894 0.96977 0.99082 0.0
C230 C 0.44348 0.97555 0.99145 0.0
C231 C 0.41583 0.93964 0.9853 0.0
C232 C 0.43175 0.93395 0.9841 0.0
C233 C 0.42175 0.96057 0.98888 0.0
C234 C 0.45342 0.94963 0.9868 0.0
H235 H 0.47926 0.90581 0.97236 0.0
N236 N 0.49032 0.96108 0.98629 0.0
C237 C 0.50331 0.9381 0.97734 0.0
C238 C 0.46971 0.94508 0.98451 0.0
C239 C 0.50713 0.95806 0.98223 0.0
C240 C 0.48217 0.92123 0.97623 0.0
C241 C 0.46501 0.92469 0.97955 0.0
O242 O 0.51309 0.00275 0.97311 0.0
O243 O 0.51949 0.0181 0.00933 0.0
O244 O 0.50828 0.03989 0.01876 0.0
O245 O 0.48493 0.01686 0.99894 0.0
O246 O 0.52976 0.00512 0.99236 0.0
O247 O 0.48372 0.0038 0.97517 0.0
O248 O 0.49454 0.00941 0.05646 0.0
O249 O 0.48655 0.99284 0.01959 0.0
O250 O 0.49676 0.97029 0.01041 0.0
O251 O 0.52074 0.99321 0.02993 0.0
O252 O 0.47667 0.00575 0.03697 0.0
O253 O 0.52223 0.00566 0.05317 0.0
C254 C 0.53632 0.01972 1.00318 0.0
C255 C 0.49376 0.99862 0.94901 0.0
C256 C 0.49655 0.00507 0.91979 0.0
C257 C 0.50142 0.01272 0.93587 0.0
C258 C 0.4841 0.98304 0.91723 0.0
C259 C 0.48118 0.97684 0.94605 0.0
C260 C 0.47645 0.96912 0.93025 0.0
C261 C 0.49466 0.03546 0.00651 0.0
C262 C 0.49949 0.00677 0.9657 0.0
C263 C 0.44341 0.90869 0.97757 0.0
C264 C 0.42679 0.91333 0.97981 0.0
C265 C 0.46986 0.99148 0.02586 0.0
C266 C 0.51511 0.01244 0.07974 0.0
C267 C 0.50739 0.9987 0.09309 0.0
C268 C 0.51459 0.00639 0.10892 0.0
C269 C 0.52944 0.0281 0.11107 0.0
C270 C 0.52997 0.03394 0.08226 0.0
C271 C 0.53703 0.0417 0.09785 0.0
C272 C 0.51052 0.97454 0.02249 0.0
C273 C 0.50761 0.00416 0.06327 0.0
H274 H 0.51093 0.02959 0.93821 0.0
H275 H 0.48043 0.97646 0.90512 0.0
H276 H 0.47512 0.96577 0.95591 0.0
H277 H 0.46688 0.95224 0.92807 0.0
H278 H 0.49606 0.98203 0.0911 0.0
H279 H 0.53502 0.03469 0.12304 0.0
H280 H 0.53613 0.04472 0.0722 0.0
H281 H 0.54843 0.05835 0.0997 0.0
Tb282 Tb 0.02086 0.50575 0.99618 0.0
C283 C 0.94503 0.47392 0.04256 0.0
C284 C 0.93373 0.50001 0.04053 0.0
C285 C 0.90738 0.46344 0.04659 0.0
C286 C 0.94992 0.49439 0.03967 0.0
C287 C 0.92382 0.45823 0.04638 0.0
C288 C 0.91233 0.48432 0.04364 0.0
C289 C 0.93707 0.43393 0.05059 0.0
N290 N 0.96138 0.46961 0.04223 0.0
C291 C 0.95786 0.4501 0.04676 0.0
C292 C 0.9199 0.43794 0.05022 0.0
Tb293 Tb 0.99465 0.49668 0.03487 0.0
N294 N 0.97078 0.509 0.03676 0.0
C295 C 0.97681 0.52997 0.03582 0.0
C296 C 0.93965 0.52127 0.0386 0.0
C297 C 0.96134 0.53635 0.03648 0.0
H298 H 0.97098 0.44678 0.04693 0.0
H299 H 0.96617 0.55291 0.03527 0.0
H300 H 0.89961 0.48826 0.04416 0.0
H301 H 0.93428 0.41839 0.05379 0.0
H302 H 0.99343 0.54189 0.03404 0.0
H303 H 0.05193 0.45205 0.9913 0.0
H304 H 0.9277 0.52625 0.03908 0.0
H305 H 0.04275 0.55703 0.9875 0.0
H306 H 0.02464 0.46218 0.99716 0.0
H307 H 0.07765 0.58589 0.97821 0.0
H308 H 0.89092 0.45157 0.04934 0.0
H309 H 0.08828 0.47901 0.98225 0.0
H310 H 0.1132 0.5165 0.97351 0.0
H311 H 0.90382 0.4254 0.05321 0.0
H312 H 0.12086 0.55315 0.97114 0.0
N313 N 0.04576 0.49505 0.99293 0.0
C314 C 0.04062 0.47432 0.99377 0.0
C315 C 0.07656 0.48371 0.98531 0.0
C316 C 0.08149 0.50476 0.98383 0.0
C317 C 0.05603 0.46844 0.99034 0.0
C318 C 0.06566 0.51003 0.98803 0.0
H319 H 0.10781 0.57928 0.97308 0.0
N320 N 0.05316 0.53425 0.98868 0.0
C321 C 0.0756 0.57035 0.98032 0.0
C322 C 0.06955 0.5304 0.98591 0.0
C323 C 0.05576 0.55385 0.98558 0.0
C324 C 0.09261 0.56659 0.97752 0.0
C325 C 0.08958 0.54632 0.97999 0.0
O326 O 0.01203 0.51364 0.97414 0.0
O327 O 0.99439 0.50409 0.00979 0.0
O328 O 0.97256 0.47138 0.01862 0.0
O329 O 0.99692 0.4718 0.99976 0.0
O330 O 0.00801 0.5273 0.99317 0.0
O331 O 0.01117 0.48384 0.97695 0.0
O332 O 1.00122 0.48791 0.05747 0.0
O333 O 0.02066 0.49769 0.02113 0.0
O334 O 0.04367 0.52994 0.01285 0.0
O335 O 0.01928 0.53038 0.03119 0.0
O336 O 0.00753 0.47503 0.03817 0.0
O337 O 0.00583 0.51915 0.05367 0.0
C338 C 0.99264 0.51884 0.00343 0.0
C339 C 0.01714 0.49839 0.9507 0.0
C340 C 0.01088 0.49503 0.92152 0.0
C341 C 0.00301 0.4924 0.93742 0.0
C342 C 0.03323 0.50378 0.9192 0.0
C343 C 0.03927 0.50683 0.9481 0.0
C344 C 0.04725 0.50952 0.93242 0.0
C345 C 0.97763 0.46251 0.00671 0.0
C346 C 0.00843 0.49619 0.96707 0.0
C347 C 0.10552 0.54126 0.976 0.0
C348 C 0.10128 0.52043 0.9776 0.0
C349 C 0.02244 0.48296 0.02748 0.0
C350 C 0.99702 0.50536 0.08001 0.0
C351 C 0.00988 0.50939 0.09386 0.0
C352 C 1.00177 0.50959 0.10932 0.0
C353 C 0.98038 0.50542 0.1106 0.0
C354 C 0.97576 0.50119 0.08157 0.0
C355 C 0.96749 0.50117 0.09682 0.0
C356 C 0.03877 0.53916 0.02462 0.0
C357 C 0.00633 0.50605 0.0641 0.0
H358 H 0.98586 0.48555 0.93955 0.0
H359 H 0.03996 0.50647 0.90717 0.0
H360 H 0.05037 0.51144 0.95809 0.0
H361 H 0.06439 0.51622 0.9305 0.0
H362 H 0.02621 0.5123 0.09254 0.0
H363 H 0.97367 0.50582 0.12222 0.0
H364 H 0.96563 0.49812 0.07106 0.0
H365 H 0.9511 0.49807 0.09795 0.0
Tb366 Tb 0.51697 0.50006 0.03418 0.0
C367 C 0.47695 0.53307 0.98596 0.0
C368 C 0.43928 0.50587 0.98572 0.0
C369 C 0.4493 0.54237 0.98039 0.0
C370 C 0.46121 0.51211 0.98814 0.0
C371 C 0.47116 0.54828 0.98157 0.0
C372 C 0.43338 0.52117 0.98239 0.0
C373 C 0.50889 0.57332 0.97751 0.0
N374 N 0.49795 0.53819 0.98681 0.0
C375 C 0.51382 0.55766 0.98173 0.0
C376 C 0.4875 0.56873 0.97773 0.0
Tb377 Tb 0.50401 0.51159 0.99496 0.0
N378 N 0.46746 0.49764 0.99135 0.0
C379 C 0.45252 0.47646 0.99074 0.0
C380 C 0.42398 0.48434 0.98598 0.0
C381 C 0.43066 0.46958 0.98831 0.0
H382 H 0.53046 0.56154 0.98162 0.0
H383 H 0.41902 0.45282 0.98811 0.0
H384 H 0.41658 0.51666 0.98078 0.0
H385 H 0.52161 0.58891 0.9741 0.0
H386 H 0.45688 0.46446 0.99235 0.0
H387 H 0.60161 0.55816 0.04111 0.0
H388 H 0.40712 0.47895 0.98369 0.0
H389 H 0.49012 0.44891 0.04282 0.0
H390 H 0.56306 0.54609 0.03746 0.0
H391 H 0.49848 0.42087 0.04935 0.0
H392 H 0.44455 0.55389 0.97726 0.0
H393 H 0.61382 0.53208 0.04447 0.0
H394 H 0.60412 0.49397 0.04747 0.0
H395 H 0.48371 0.58083 0.97427 0.0
H396 H 0.576 0.45645 0.04966 0.0
N397 N 0.55322 0.51325 0.03827 0.0
C398 C 0.56798 0.53442 0.03896 0.0
C399 C 0.5968 0.52663 0.04287 0.0
C400 C 0.58151 0.50504 0.0431 0.0
C401 C 0.58996 0.5414 0.04101 0.0
C402 C 0.55959 0.49884 0.04086 0.0
H403 H 0.53646 0.42899 0.05061 0.0
N404 N 0.52305 0.47289 0.04043 0.0
C405 C 0.51144 0.43675 0.04707 0.0
C406 C 0.54392 0.47786 0.04198 0.0
C407 C 0.50676 0.45276 0.04349 0.0
C408 C 0.53289 0.44144 0.04781 0.0
C409 C 0.54949 0.46229 0.04551 0.0
O410 O 0.49856 0.48796 0.05528 0.0
O411 O 0.49296 0.50251 0.01954 0.0
O412 O 0.5105 0.5389 0.01003 0.0
O413 O 0.52495 0.53325 0.03371 0.0
O414 O 0.48233 0.47722 0.03453 0.0
O415 O 0.52646 0.51927 0.05505 0.0
O416 O 0.51945 0.5007 0.97902 0.0
O417 O 0.52823 0.5111 0.01005 0.0
O418 O 0.5166 0.47742 0.01676 0.0
O419 O 0.49252 0.4776 0.99796 0.0
O420 O 0.53811 0.53634 0.99521 0.0
O421 O 0.49895 0.5116 0.96979 0.0
C422 C 0.47601 0.4866 0.02466 0.0
C423 C 0.51683 0.50144 0.08007 0.0
C424 C 0.51412 0.50407 0.10937 0.0
C425 C 0.50915 0.50742 0.09354 0.0
C426 C 0.52694 0.49458 0.11141 0.0
C427 C 0.52968 0.49217 0.08241 0.0
C428 C 0.53468 0.48875 0.09802 0.0
C429 C 0.51976 0.54481 0.02445 0.0
C430 C 0.511 0.50485 0.06375 0.0
C431 C 0.57134 0.46819 0.0471 0.0
C432 C 0.58734 0.48955 0.04587 0.0
C433 C 0.54492 0.52763 0.00538 0.0
C434 C 0.52795 0.51644 0.9533 0.0
C435 C 0.52668 0.50636 0.93845 0.0
C436 C 0.54164 0.51734 0.92611 0.0
C437 C 0.55798 0.53837 0.92889 0.0
C438 C 0.54446 0.53744 0.95575 0.0
C439 C 0.55939 0.54828 0.94363 0.0
C440 C 0.50301 0.46874 0.00452 0.0
C441 C 0.5121 0.50489 0.96609 0.0
H442 H 0.4995 0.5149 0.09163 0.0
H443 H 0.5308 0.49141 0.12337 0.0
H444 H 0.53579 0.48752 0.07223 0.0
H445 H 0.54451 0.48146 0.09975 0.0
H446 H 0.51401 0.49013 0.93646 0.0
H447 H 0.56983 0.54708 0.91968 0.0
H448 H 0.54593 0.54557 0.96696 0.0
H449 H 0.57209 0.56444 0.94568 0.0
Tb450 Tb 0.16034 0.32734 0.33092 0.0
C451 C 0.1958 0.39818 0.38327 0.0
C452 C 0.23416 0.41132 0.38419 0.0
C453 C 0.22011 0.43398 0.39286 0.0
C454 C 0.21301 0.39522 0.38035 0.0
C455 C 0.19905 0.41747 0.38978 0.0
C456 C 0.23761 0.43077 0.39031 0.0
C457 C 0.16046 0.40148 0.39226 0.0
N458 N 0.17572 0.38142 0.38106 0.0
C459 C 0.1581 0.38257 0.38603 0.0
C460 C 0.18102 0.41913 0.39391 0.0
Tb461 Tb 0.17324 0.35086 0.37108 0.0
N462 N 0.20878 0.3758 0.37533 0.0
C463 C 0.22505 0.37111 0.37475 0.0
C464 C 0.251 0.40694 0.38264 0.0
C465 C 0.24638 0.38669 0.378 0.0
H466 H 0.14207 0.36911 0.38492 0.0
H467 H 0.25921 0.38296 0.37714 0.0
H468 H 0.25358 0.44312 0.3938 0.0
H469 H 0.1464 0.40239 0.39583 0.0
H470 H 0.2218 0.35545 0.37151 0.0
H471 H 0.07512 0.30026 0.32465 0.0
H472 H 0.26747 0.41878 0.38554 0.0
H473 H 0.18846 0.30415 0.32088 0.0
H474 H 0.1134 0.3267 0.32847 0.0
H475 H 0.18117 0.26822 0.31385 0.0
H476 H 0.22297 0.44889 0.39792 0.0
H477 H 0.06402 0.26259 0.32028 0.0
H478 H 0.07486 0.23493 0.3162 0.0
H479 H 0.18283 0.43369 0.39892 0.0
H480 H 0.10377 0.22617 0.31323 0.0
N481 N 0.12425 0.30432 0.32666 0.0
C482 C 0.109 0.3104 0.32649 0.0
C483 C 0.08094 0.27416 0.32192 0.0
C484 C 0.09671 0.26821 0.32119 0.0
C485 C 0.08715 0.29541 0.32435 0.0
C486 C 0.11848 0.28389 0.32351 0.0
H487 H 0.14354 0.23855 0.31213 0.0
N488 N 0.15529 0.29483 0.32354 0.0
C489 C 0.16791 0.271 0.31615 0.0
C490 C 0.1346 0.27895 0.32189 0.0
C491 C 0.17198 0.29136 0.32009 0.0
C492 C 0.14665 0.25429 0.31523 0.0
C493 C 0.12964 0.25821 0.31785 0.0
O494 O 0.17936 0.33574 0.30991 0.0
O495 O 0.18343 0.35265 0.34629 0.0
O496 O 0.16962 0.37341 0.35585 0.0
O497 O 0.15071 0.35162 0.33374 0.0
O498 O 0.19521 0.33963 0.33041 0.0
O499 O 0.15028 0.3375 0.31058 0.0
O500 O 0.15524 0.33988 0.39257 0.0
O501 O 0.15007 0.32642 0.35539 0.0
O502 O 0.16187 0.3048 0.34738 0.0
O503 O 0.18473 0.32814 0.36709 0.0
O504 O 0.13823 0.33784 0.37231 0.0
O505 O 0.18456 0.339 0.38949 0.0
C506 C 0.20076 0.35437 0.34104 0.0
C507 C 0.16101 0.33106 0.28513 0.0
C508 C 0.16558 0.33629 0.25584 0.0
C509 C 0.16995 0.34456 0.27174 0.0
C510 C 0.15196 0.31436 0.25363 0.0
C511 C 0.14741 0.3093 0.28254 0.0
C512 C 0.14293 0.30103 0.26688 0.0
C513 C 0.15812 0.36939 0.34231 0.0
C514 C 0.1663 0.33978 0.3017 0.0
C515 C 0.10796 0.24227 0.31617 0.0
C516 C 0.0915 0.24726 0.31786 0.0
C517 C 0.13266 0.32413 0.3609 0.0
C518 C 0.1753 0.34262 0.41613 0.0
C519 C 0.1687 0.32773 0.42872 0.0
C520 C 0.1753 0.3344 0.44482 0.0
C521 C 0.18833 0.35621 0.44804 0.0
C522 C 0.18836 0.3642 0.4197 0.0
C523 C 0.19476 0.37093 0.43557 0.0
C524 C 0.17495 0.30928 0.35995 0.0
C525 C 0.16895 0.33544 0.39931 0.0
H526 H 0.18054 0.36139 0.27371 0.0
H527 H 0.14803 0.30751 0.2416 0.0
H528 H 0.14026 0.2987 0.29259 0.0
H529 H 0.13239 0.28421 0.26499 0.0
H530 H 0.15877 0.31102 0.42594 0.0
H531 H 0.19335 0.36197 0.46026 0.0
H532 H 0.19369 0.37584 0.41025 0.0
H533 H 0.20478 0.38765 0.43822 0.0
Tb534 Tb 0.68503 0.83555 0.32752 0.0
C535 C 0.60969 0.80228 0.37505 0.0
C536 C 0.59875 0.82869 0.37462 0.0
C537 C 0.57281 0.79243 0.38178 0.0
C538 C 0.6145 0.82273 0.37221 0.0
C539 C 0.58893 0.78692 0.38021 0.0
C540 C 0.57783 0.81338 0.3792 0.0
C541 C 0.60265 0.7631 0.38463 0.0
N542 N 0.62607 0.79806 0.37443 0.0
C543 C 0.62308 0.77905 0.37982 0.0
C544 C 0.58542 0.76697 0.38466 0.0
Tb545 Tb 0.65913 0.82494 0.36647 0.0
N546 N 0.63526 0.83724 0.36889 0.0
C547 C 0.64153 0.85833 0.36879 0.0
C548 C 0.60483 0.85006 0.37339 0.0
C549 C 0.62641 0.86498 0.37073 0.0
H550 H 0.63633 0.77595 0.38 0.0
H551 H 0.63145 0.88165 0.3702 0.0
H552 H 0.56576 0.81785 0.3815 0.0
H553 H 0.60028 0.74791 0.38847 0.0
H554 H 0.6581 0.87023 0.36684 0.0
H555 H 0.71453 0.78063 0.32174 0.0
H556 H 0.5932 0.85527 0.37509 0.0
H557 H 0.70746 0.8862 0.3176 0.0
H558 H 0.68723 0.791 0.32622 0.0
H559 H 0.74335 0.91517 0.31006 0.0
H560 H 0.55676 0.78091 0.38574 0.0
H561 H 0.75251 0.80796 0.31661 0.0
H562 H 0.78004 0.84637 0.31301 0.0
H563 H 0.56976 0.75476 0.38878 0.0
H564 H 0.78801 0.88318 0.31005 0.0
N565 N 0.70935 0.82411 0.32424 0.0
C566 C 0.70367 0.8032 0.32415 0.0
C567 C 0.74059 0.81265 0.31887 0.0
C568 C 0.74621 0.83396 0.31842 0.0
C569 C 0.71919 0.7972 0.32164 0.0
C570 C 0.72997 0.83919 0.32102 0.0
H571 H 0.77437 0.90904 0.30872 0.0
N572 N 0.71787 0.86368 0.3207 0.0
C573 C 0.74118 0.89976 0.31282 0.0
C574 C 0.73442 0.85976 0.31921 0.0
C575 C 0.72077 0.88321 0.317 0.0
C576 C 0.7586 0.89619 0.31204 0.0
C577 C 0.75527 0.87588 0.31496 0.0
O578 O 0.67728 0.84534 0.30585 0.0
O579 O 0.65829 0.83272 0.34153 0.0
O580 O 0.63738 0.79851 0.35076 0.0
O581 O 0.6607 0.80169 0.32972 0.0
O582 O 0.67184 0.85702 0.32574 0.0
O583 O 0.67588 0.81518 0.30735 0.0
O584 O 0.66678 0.81616 0.38869 0.0
O585 O 0.68519 0.82661 0.35228 0.0
O586 O 0.70772 0.85949 0.34428 0.0
O587 O 0.68355 0.85884 0.3633 0.0
O588 O 0.67181 0.80318 0.36885 0.0
O589 O 0.67055 0.84708 0.38554 0.0
C590 C 0.65639 0.84773 0.33588 0.0
C591 C 0.68404 0.8321 0.28194 0.0
C592 C 0.68072 0.83307 0.25262 0.0
C593 C 0.67143 0.8292 0.2681 0.0
C594 C 0.70283 0.83989 0.25122 0.0
C595 C 0.70598 0.83868 0.28026 0.0
C596 C 0.71532 0.84261 0.26498 0.0
C597 C 0.64236 0.79109 0.3378 0.0
C598 C 0.67403 0.82851 0.29797 0.0
C599 C 0.77182 0.87101 0.31319 0.0
C600 C 0.76729 0.85005 0.31488 0.0
C601 C 0.68676 0.81151 0.35822 0.0
C602 C 0.66212 0.83263 0.41166 0.0
C603 C 0.67533 0.83812 0.42547 0.0
C604 C 0.66667 0.83691 0.44093 0.0
C605 C 0.64457 0.83016 0.44235 0.0
C606 C 0.64018 0.82607 0.41334 0.0
C607 C 0.63147 0.82481 0.42862 0.0
C608 C 0.70285 0.86814 0.35643 0.0
C609 C 0.67157 0.834 0.39566 0.0
H610 H 0.65447 0.82417 0.26939 0.0
H611 H 0.71037 0.84276 0.23947 0.0
H612 H 0.71589 0.84076 0.29068 0.0
H613 H 0.73228 0.84769 0.26378 0.0
H614 H 0.69228 0.84308 0.42416 0.0
H615 H 0.63749 0.82929 0.45407 0.0
H616 H 0.62982 0.82202 0.4029 0.0
H617 H 0.61451 0.81976 0.42981 0.0
Tb618 Tb 0.18593 0.83627 0.36727 0.0
C619 C 0.14207 0.86738 0.32069 0.0
C620 C 0.10454 0.84051 0.32264 0.0
C621 C 0.11428 0.87683 0.3167 0.0
C622 C 0.12662 0.84677 0.32352 0.0
C623 C 0.13618 0.88258 0.31668 0.0
C624 C 0.09845 0.8558 0.31974 0.0
C625 C 0.17366 0.90702 0.31102 0.0
N626 N 0.16291 0.87207 0.32059 0.0
C627 C 0.17861 0.89129 0.31506 0.0
C628 C 0.15239 0.90277 0.31212 0.0
Tb629 Tb 0.16993 0.84588 0.32822 0.0
N630 N 0.13329 0.8326 0.32606 0.0
C631 C 0.11848 0.81142 0.32634 0.0
C632 C 0.08932 0.81902 0.32414 0.0
C633 C 0.09635 0.80437 0.32569 0.0
H634 H 0.19513 0.89478 0.31429 0.0
H635 H 0.08474 0.78764 0.32646 0.0
H636 H 0.08157 0.85138 0.31924 0.0
H637 H 0.18626 0.9224 0.30711 0.0
H638 H 0.12349 0.7998 0.32764 0.0
H639 H 0.27058 0.89551 0.37387 0.0
H640 H 0.07219 0.81354 0.32361 0.0
H641 H 0.15928 0.78388 0.37557 0.0
H642 H 0.23264 0.88353 0.36932 0.0
H643 H 0.16883 0.757 0.3826 0.0
H644 H 0.10938 0.88831 0.31385 0.0
H645 H 0.28271 0.86964 0.37873 0.0
H646 H 0.27359 0.83207 0.38174 0.0
H647 H 0.14858 0.91492 0.30889 0.0
H648 H 0.24605 0.79453 0.38404 0.0
N649 N 0.22238 0.85047 0.37072 0.0
C650 C 0.23717 0.87168 0.37114 0.0
C651 C 0.26582 0.8641 0.37638 0.0
C652 C 0.25066 0.84251 0.37661 0.0
C653 C 0.25902 0.87873 0.37375 0.0
C654 C 0.22871 0.83605 0.37397 0.0
H655 H 0.20708 0.76651 0.38463 0.0
N656 N 0.19194 0.80908 0.37384 0.0
C657 C 0.18143 0.77315 0.3806 0.0
C658 C 0.2131 0.81479 0.37552 0.0
C659 C 0.17609 0.78864 0.37684 0.0
C660 C 0.20304 0.77859 0.38169 0.0
C661 C 0.21918 0.79963 0.37938 0.0
O662 O 0.16973 0.84483 0.38445 0.0
O663 O 0.16075 0.83627 0.35301 0.0
O664 O 0.17433 0.87168 0.34431 0.0
O665 O 0.19664 0.87001 0.36442 0.0
O666 O 0.15192 0.81147 0.36831 0.0
O667 O 0.19423 0.83825 0.39198 0.0
O668 O 0.18666 0.85523 0.30615 0.0
O669 O 0.19511 0.84561 0.34261 0.0
O670 O 0.18385 0.812 0.35066 0.0
O671 O 0.16142 0.81246 0.33043 0.0
O672 O 0.20465 0.86849 0.32573 0.0
O673 O 0.15901 0.82422 0.30879 0.0
C674 C 0.14445 0.81997 0.35847 0.0
C675 C 0.16556 0.82921 0.41004 0.0
C676 C 0.15224 0.82599 0.43772 0.0
C677 C 0.16512 0.8386 0.42484 0.0
C678 C 0.13991 0.80391 0.43546 0.0
C679 C 0.1528 0.80723 0.40812 0.0
C680 C 0.14011 0.79469 0.42074 0.0
C681 C 0.18749 0.87964 0.35697 0.0
C682 C 0.17944 0.84231 0.39674 0.0
C683 C 0.24109 0.80597 0.3812 0.0
C684 C 0.25678 0.82736 0.37987 0.0
C685 C 0.21175 0.86082 0.33651 0.0
C686 C 0.16603 0.83903 0.2827 0.0
C687 C 0.17304 0.83245 0.26915 0.0
C688 C 0.16613 0.83386 0.25345 0.0
C689 C 0.15213 0.84208 0.25163 0.0
C690 C 0.15195 0.84696 0.28057 0.0
C691 C 0.14509 0.8485 0.2651 0.0
C692 C 0.17141 0.80365 0.33778 0.0
C693 C 0.17357 0.83747 0.29892 0.0
H694 H 0.17497 0.8556 0.42636 0.0
H695 H 0.12962 0.79372 0.44494 0.0
H696 H 0.15263 0.79969 0.3969 0.0
H697 H 0.13032 0.77772 0.41911 0.0
H698 H 0.18366 0.82601 0.2709 0.0
H699 H 0.14681 0.84384 0.23977 0.0
H700 H 0.14627 0.85195 0.29082 0.0
H701 H 0.13432 0.85478 0.26352 0.0
Tb702 Tb 0.82867 0.65968 0.66121 0.0
C703 C 0.87062 0.73124 0.71136 0.0
C704 C 0.90842 0.74177 0.7106 0.0
C705 C 0.89772 0.76774 0.71718 0.0
C706 C 0.88651 0.72624 0.70874 0.0
C707 C 0.87593 0.75192 0.71595 0.0
C708 C 0.91397 0.76267 0.71448 0.0
C709 C 0.83784 0.73929 0.71893 0.0
N710 N 0.84984 0.71546 0.71009 0.0
C711 C 0.83344 0.719 0.7144 0.0
C712 C 0.85917 0.7559 0.71953 0.0
Tb713 Tb 0.84409 0.68307 0.70147 0.0
N714 N 0.8804 0.70587 0.70507 0.0
C715 C 0.89552 0.69963 0.70436 0.0
C716 C 0.92401 0.73569 0.7089 0.0
C717 C 0.91749 0.71445 0.70601 0.0
H718 H 0.81688 0.70636 0.71386 0.0
H719 H 0.92939 0.70948 0.70498 0.0
H720 H 0.93072 0.7749 0.71579 0.0
H721 H 0.82477 0.74211 0.72192 0.0
H722 H 0.89088 0.68335 0.702 0.0
H723 H 0.74382 0.63374 0.65491 0.0
H724 H 0.94103 0.74714 0.71015 0.0
H725 H 0.85654 0.63634 0.65047 0.0
H726 H 0.78191 0.65931 0.66023 0.0
H727 H 0.849 0.6009 0.64189 0.0
H728 H 0.90217 0.7838 0.72053 0.0
H729 H 0.7326 0.59656 0.64792 0.0
H730 H 0.74299 0.5689 0.64275 0.0
H731 H 0.86255 0.77158 0.72308 0.0
H732 H 0.77165 0.55988 0.63934 0.0
N733 N 0.79256 0.63697 0.65686 0.0
C734 C 0.77744 0.64322 0.65731 0.0
C735 C 0.74939 0.60773 0.6505 0.0
C736 C 0.76496 0.60156 0.64952 0.0
C737 C 0.75568 0.62869 0.65432 0.0
C738 C 0.78668 0.6168 0.65264 0.0
H739 H 0.81129 0.57179 0.63883 0.0
N740 N 0.82339 0.62738 0.65281 0.0
C741 C 0.8358 0.60372 0.64436 0.0
C742 C 0.80268 0.61179 0.6506 0.0
C743 C 0.84 0.62384 0.64919 0.0
C744 C 0.8145 0.58732 0.64269 0.0
C745 C 0.79761 0.59132 0.64555 0.0
O746 O 0.84729 0.66907 0.63998 0.0
O747 O 0.85295 0.68395 0.67652 0.0
O748 O 0.84206 0.70614 0.68593 0.0
O749 O 0.81919 0.68383 0.66556 0.0
O750 O 0.86332 0.67097 0.65956 0.0
O751 O 0.81859 0.67135 0.64177 0.0
O752 O 0.82644 0.67402 0.72316 0.0
O753 O 0.81961 0.65913 0.68609 0.0
O754 O 0.82961 0.63632 0.6771 0.0
O755 O 0.85338 0.65887 0.69687 0.0
O756 O 0.80942 0.67166 0.70352 0.0
O757 O 0.85448 0.67082 0.72031 0.0
C758 C 0.86978 0.68526 0.67062 0.0
C759 C 0.82865 0.66597 0.61566 0.0
C760 C 0.83366 0.6722 0.58648 0.0
C761 C 0.83827 0.67987 0.60255 0.0
C762 C 0.81913 0.65054 0.58381 0.0
C763 C 0.81415 0.64451 0.61261 0.0
C764 C 0.80942 0.63687 0.59678 0.0
C765 C 0.82876 0.70215 0.67354 0.0
C766 C 0.83433 0.67386 0.63245 0.0
C767 C 0.77592 0.57576 0.64311 0.0
C768 C 0.75962 0.58089 0.64506 0.0
C769 C 0.80282 0.65778 0.69213 0.0
C770 C 0.8461 0.67644 0.74684 0.0
C771 C 0.83925 0.66208 0.75986 0.0
C772 C 0.84541 0.66944 0.77593 0.0
C773 C 0.85835 0.69141 0.77858 0.0
C774 C 0.85918 0.69814 0.74991 0.0
C775 C 0.86521 0.70555 0.76569 0.0
C776 C 0.84297 0.64023 0.68943 0.0
C777 C 0.83936 0.6687 0.73013 0.0
H778 H 0.84956 0.69647 0.60485 0.0
H779 H 0.81502 0.64418 0.57164 0.0
H780 H 0.80652 0.63363 0.62243 0.0
H781 H 0.79819 0.62026 0.59454 0.0
H782 H 0.82934 0.64528 0.75743 0.0
H783 H 0.86299 0.69782 0.79069 0.0
H784 H 0.86464 0.70938 0.74014 0.0
H785 H 0.87516 0.72237 0.76796 0.0
Tb786 Tb 0.3558 0.17264 0.65955 0.0
C787 C 0.27843 0.14099 0.70443 0.0
C788 C 0.26815 0.16774 0.70183 0.0
C789 C 0.24086 0.13137 0.70747 0.0
C790 C 0.28395 0.16157 0.70143 0.0
C791 C 0.25697 0.12572 0.70805 0.0
C792 C 0.24645 0.15238 0.70432 0.0
C793 C 0.26959 0.1015 0.71464 0.0
N794 N 0.29457 0.13642 0.70515 0.0
C795 C 0.29065 0.11729 0.71099 0.0
C796 C 0.2526 0.10559 0.71287 0.0
Tb797 Tb 0.3284 0.16269 0.698 0.0
N798 N 0.30512 0.17585 0.69934 0.0
C799 C 0.31179 0.19702 0.69908 0.0
C800 C 0.27478 0.18923 0.70037 0.0
C801 C 0.29675 0.20397 0.69934 0.0
H802 H 0.30365 0.11392 0.71226 0.0
H803 H 0.30212 0.2207 0.69861 0.0
H804 H 0.23402 0.15674 0.70444 0.0
H805 H 0.26649 0.08617 0.71878 0.0
H806 H 0.32864 0.2087 0.6981 0.0
H807 H 0.38257 0.11549 0.65493 0.0
H808 H 0.26317 0.19465 0.70055 0.0
H809 H 0.3802 0.22358 0.65 0.0
H810 H 0.35625 0.12717 0.65912 0.0
H811 H 0.41673 0.25173 0.6429 0.0
H812 H 0.22422 0.11984 0.71003 0.0
H813 H 0.42086 0.14178 0.64963 0.0
H814 H 0.44941 0.1798 0.64588 0.0
H815 H 0.23634 0.09339 0.7158 0.0
H816 H 0.45883 0.21705 0.64289 0.0
N817 N 0.37921 0.16002 0.6567 0.0
C818 C 0.37283 0.13894 0.65694 0.0
C819 C 0.40936 0.14705 0.65173 0.0
C820 C 0.41572 0.16854 0.65105 0.0
C821 C 0.38779 0.13219 0.65461 0.0
C822 C 0.40001 0.17454 0.65343 0.0
H823 H 0.44671 0.24406 0.64162 0.0
N824 N 0.38927 0.20006 0.65308 0.0
C825 C 0.41382 0.236 0.6455 0.0
C826 C 0.40528 0.19535 0.65168 0.0
C827 C 0.39306 0.21993 0.64946 0.0
C828 C 0.43067 0.23159 0.64478 0.0
C829 C 0.42644 0.21095 0.64759 0.0
O830 O 0.34839 0.1826 0.63787 0.0
O831 O 0.32914 0.17083 0.67296 0.0
O832 O 0.30686 0.13647 0.68209 0.0
O833 O 0.3306 0.13905 0.66156 0.0
O834 O 0.34398 0.1951 0.65713 0.0
O835 O 0.34676 0.15232 0.63931 0.0
O836 O 0.33507 0.15363 0.72045 0.0
O837 O 0.35448 0.16352 0.68441 0.0
O838 O 0.37822 0.19629 0.67662 0.0
O839 O 0.35375 0.19632 0.69509 0.0
O840 O 0.34035 0.14039 0.70114 0.0
O841 O 0.33902 0.18462 0.7172 0.0
C842 C 0.32812 0.18616 0.66697 0.0
C843 C 0.35421 0.16901 0.61381 0.0
C844 C 0.34885 0.16616 0.58451 0.0
C845 C 0.34043 0.16193 0.6003 0.0
C846 C 0.37143 0.17747 0.5826 0.0
C847 C 0.37659 0.17998 0.61161 0.0
C848 C 0.38513 0.18415 0.59606 0.0
C849 C 0.31189 0.1289 0.66925 0.0
C850 C 0.34479 0.16564 0.63001 0.0
C851 C 0.44243 0.20528 0.64592 0.0
C852 C 0.43706 0.18408 0.6476 0.0
C853 C 0.35559 0.14834 0.69069 0.0
C854 C 0.32973 0.1699 0.74322 0.0
C855 C 0.34279 0.17625 0.75711 0.0
C856 C 0.33383 0.17495 0.77248 0.0
C857 C 0.31149 0.16718 0.77365 0.0
C858 C 0.30756 0.16235 0.74463 0.0
C859 C 0.2985 0.16098 0.7598 0.0
C860 C 0.37329 0.20514 0.68861 0.0
C861 C 0.33965 0.17141 0.72741 0.0
H862 H 0.32315 0.15313 0.60218 0.0
H863 H 0.3786 0.18152 0.57072 0.0
H864 H 0.38745 0.18554 0.62182 0.0
H865 H 0.40244 0.19284 0.59443 0.0
H866 H 0.36 0.18244 0.75589 0.0
H867 H 0.30398 0.16564 0.78529 0.0
H868 H 0.29727 0.15756 0.73407 0.0
H869 H 0.28134 0.15502 0.76083 0.0
Tb870 Tb 0.85099 0.17087 0.69914 0.0
C871 C 0.81613 0.20777 0.64797 0.0
C872 C 0.77778 0.18351 0.64561 0.0
C873 C 0.79258 0.22036 0.63803 0.0
C874 C 0.79865 0.18778 0.64996 0.0
C875 C 0.81335 0.22436 0.64205 0.0
C876 C 0.7749 0.1999 0.63954 0.0
C877 C 0.85202 0.24698 0.64281 0.0
N878 N 0.83604 0.21063 0.65105 0.0
C879 C 0.854 0.22987 0.6482 0.0
C880 C 0.83159 0.24423 0.63975 0.0
Tb881 Tb 0.83762 0.1814 0.65934 0.0
N882 N 0.80236 0.17217 0.6549 0.0
C883 C 0.78581 0.15168 0.65532 0.0
C884 C 0.76064 0.16273 0.6468 0.0
C885 C 0.7647 0.14674 0.65164 0.0
H886 H 0.86995 0.23234 0.65041 0.0
H887 H 0.75162 0.13053 0.65232 0.0
H888 H 0.75919 0.19683 0.63553 0.0
H889 H 0.86627 0.26222 0.64088 0.0
H890 H 0.78871 0.13903 0.65866 0.0
H891 H 0.93639 0.22519 0.70672 0.0
H892 H 0.74434 0.15879 0.64362 0.0
H893 H 0.82113 0.12004 0.70861 0.0
H894 H 0.89878 0.21515 0.70126 0.0
H895 H 0.82695 0.09065 0.71631 0.0
H896 H 0.7901 0.23281 0.63326 0.0
H897 H 0.94595 0.19764 0.71285 0.0
H898 H 0.93387 0.15921 0.71695 0.0
H899 H 0.83012 0.25741 0.6353 0.0
H900 H 0.90404 0.12248 0.71943 0.0
N901 N 0.88673 0.182 0.70373 0.0
C902 C 0.90251 0.20285 0.7038 0.0
C903 C 0.92936 0.19311 0.71021 0.0
C904 C 0.91311 0.17188 0.71065 0.0
C905 C 0.92401 0.20867 0.70687 0.0
C906 C 0.89169 0.16683 0.70748 0.0
H907 H 0.86405 0.09677 0.71937 0.0
N908 N 0.85465 0.1426 0.70679 0.0
C909 C 0.84064 0.10623 0.71424 0.0
C910 C 0.87504 0.14634 0.709 0.0
C911 C 0.83741 0.12298 0.70991 0.0
C912 C 0.8616 0.10973 0.71591 0.0
C913 C 0.87914 0.13007 0.71355 0.0
O914 O 0.83257 0.16178 0.72044 0.0
O915 O 0.82754 0.17312 0.68404 0.0
O916 O 0.83928 0.20571 0.6756 0.0
O917 O 0.86205 0.2048 0.6954 0.0
O918 O 0.81591 0.1494 0.70031 0.0
O919 O 0.86143 0.19216 0.71882 0.0
O920 O 0.85463 0.18872 0.63739 0.0
O921 O 0.86115 0.17948 0.67455 0.0
O922 O 0.84916 0.14664 0.68262 0.0
O923 O 0.82592 0.14744 0.66324 0.0
O924 O 0.87272 0.20215 0.65748 0.0
O925 O 0.82579 0.15863 0.64069 0.0
C926 C 0.81017 0.15821 0.6895 0.0
C927 C 0.85168 0.17659 0.74469 0.0
C928 C 0.84866 0.17973 0.77392 0.0
C929 C 0.84324 0.18217 0.75796 0.0
C930 C 0.86245 0.17138 0.77629 0.0
C931 C 0.86549 0.16846 0.74741 0.0
C932 C 0.87078 0.16584 0.76312 0.0
C933 C 0.8528 0.21433 0.68793 0.0
C934 C 0.84577 0.17913 0.72812 0.0
C935 C 0.90052 0.13477 0.71603 0.0
C936 C 0.91749 0.15568 0.71462 0.0
C937 C 0.87853 0.19401 0.66874 0.0
C938 C 0.83384 0.17171 0.61409 0.0
C939 C 0.84059 0.16394 0.6011 0.0
C940 C 0.83376 0.16447 0.58518 0.0
C941 C 0.82016 0.17297 0.58252 0.0
C942 C 0.8203 0.18007 0.61109 0.0
C943 C 0.81351 0.18069 0.5954 0.0
C944 C 0.83561 0.13809 0.67031 0.0
C945 C 0.84087 0.17076 0.63065 0.0
H946 H 0.83276 0.18869 0.75584 0.0
H947 H 0.86666 0.16891 0.78835 0.0
H948 H 0.87215 0.16412 0.73742 0.0
H949 H 0.88137 0.15944 0.76512 0.0
H950 H 0.85092 0.15729 0.60342 0.0
H951 H 0.81493 0.17398 0.57043 0.0
H952 H 0.81496 0.18612 0.62083 0.0
H953 H 0.80311 0.18725 0.5932 0.0
H954 H 0.30767 0.8126 0.06869 0.0
H955 H 0.34035 0.84229 0.05758 0.0
H956 H 0.32103 0.88576 0.07586 0.0
H957 H 0.28798 0.856 0.0867 0.0
H958 H 0.33408 0.89437 0.04489 0.0
H959 H 0.36184 0.88172 0.09375 0.0
H960 H 0.36856 0.86057 0.11367 0.0
H961 H 0.40229 0.84564 0.07787 0.0
H962 H 0.39552 0.86647 0.05766 0.0
H963 H 0.43293 0.99008 0.03439 0.0
H964 H 0.39911 0.95929 0.04245 0.0
H965 H 0.42432 0.91848 0.02932 0.0
H966 H 0.45875 0.94955 0.02232 0.0
H967 H 0.40776 0.90772 0.05707 0.0
H968 H 0.37727 0.91745 0.0077 0.0
H969 H 0.36901 0.93706 0.98723 0.0
H970 H 0.34034 0.95693 0.02377 0.0
H971 H 0.34822 0.93725 0.04434 0.0
C972 C 0.31036 0.82848 0.07036 0.0
C973 C 0.29516 0.8319 0.07856 0.0
C974 C 0.32916 0.84547 0.06411 0.0
C975 C 0.33327 0.86632 0.06597 0.0
C976 C 0.31824 0.86983 0.0743 0.0
C977 C 0.29944 0.85282 0.08061 0.0
C978 C 0.35286 0.88434 0.05874 0.0
C979 C 0.35022 0.89746 0.04771 0.0
C980 C 0.37391 0.88804 0.06202 0.0
C981 C 0.37797 0.87548 0.07415 0.0
C982 C 0.37053 0.87377 0.09008 0.0
C983 C 0.37438 0.86188 0.10143 0.0
C984 C 0.38579 0.85172 0.09703 0.0
C985 C 0.39342 0.85349 0.08126 0.0
C986 C 0.3896 0.86535 0.06986 0.0
C987 C 0.43106 0.97448 0.03288 0.0
C988 C 0.44837 0.97224 0.02738 0.0
C989 C 0.41159 0.95679 0.03737 0.0
C990 C 0.4088 0.93633 0.03628 0.0
C991 C 0.4259 0.93402 0.03024 0.0
C992 C 0.44556 0.95181 0.02601 0.0
C993 C 0.38906 0.91778 0.04304 0.0
C994 C 0.39164 0.90458 0.05409 0.0
C995 C 0.36793 0.91394 0.03975 0.0
C996 C 0.36361 0.92616 0.02753 0.0
C997 C 0.36942 0.9262 0.01134 0.0
C998 C 0.3647 0.93722 0.99973 0.0
C999 C 0.35433 0.94837 0.00422 0.0
C1000 C 0.34845 0.94835 0.02031 0.0
C1001 C 0.35293 0.93719 0.03193 0.0
H1002 H 0.35076 0.95694 0.99523 0.0
H1003 H 0.38877 0.84253 0.10584 0.0
H1004 H 0.1763 0.47322 0.10224 0.0
H1005 H 0.14634 0.47718 0.09203 0.0
H1006 H 0.1569 0.46109 0.04404 0.0
H1007 H 0.18674 0.45704 0.05414 0.0
H1008 H 0.15151 0.49409 0.04271 0.0
H1009 H 0.11396 0.42588 0.06811 0.0
H1010 H 0.10439 0.40076 0.09064 0.0
H1011 H 0.08263 0.43638 0.11832 0.0
H1012 H 0.09234 0.46189 0.09603 0.0
H1013 H 0.02567 0.44785 0.03128 0.0
H1014 H 0.0574 0.44557 0.03918 0.0
H1015 H 0.09579 0.51376 0.0389 0.0
H1016 H 0.06439 0.51586 0.02993 0.0
H1017 H 0.07765 0.45603 0.06518 0.0
H1018 H 0.13776 0.53147 0.03991 0.0
H1019 H 0.15305 0.55442 0.01606 0.0
H1020 H 0.13251 0.4995 0.98589 0.0
H1021 H 0.1161 0.47632 0.00943 0.0
C1022 C 0.17211 0.4703 0.08954 0.0
C1023 C 0.18407 0.46485 0.07903 0.0
C1024 C 0.15494 0.47259 0.0837 0.0
C1025 C 0.14916 0.46932 0.06724 0.0
C1026 C 0.16103 0.46382 0.05677 0.0
C1027 C 0.17819 0.46158 0.06257 0.0
C1028 C 0.13115 0.47205 0.06073 0.0
C1029 C 0.13534 0.48573 0.04766 0.0
C1030 C 0.10999 0.46125 0.06709 0.0
C1031 C 0.10408 0.44591 0.08047 0.0
C1032 C 0.10729 0.42845 0.07905 0.0
C1033 C 0.10181 0.41412 0.09177 0.0
C1034 C 0.09297 0.417 0.10592 0.0
C1035 C 0.08952 0.43419 0.10737 0.0
C1036 C 0.09499 0.44857 0.09469 0.0
C1037 C 0.04109 0.46231 0.0324 0.0
C1038 C 0.04258 0.48198 0.02963 0.0
C1039 C 0.05927 0.46105 0.03704 0.0
C1040 C 0.07939 0.47946 0.03955 0.0
C1041 C 0.08093 0.49919 0.03651 0.0
C1042 C 0.0628 0.50042 0.03144 0.0
C1043 C 0.09782 0.47779 0.04678 0.0
C1044 C 0.09378 0.46442 0.06018 0.0
C1045 C 0.11911 0.48868 0.04064 0.0
C1046 C 0.1252 0.50224 0.02626 0.0
C1047 C 0.13595 0.52436 0.02807 0.0
C1048 C 0.14485 0.53739 0.01464 0.0
C1049 C 0.14369 0.52843 0.99946 0.0
C1050 C 0.13322 0.50643 0.99763 0.0
C1051 C 0.12377 0.49333 0.01094 0.0
H1052 H 0.15092 0.53854 0.98911 0.0
H1053 H 0.08874 0.40589 0.11575 0.0
H1054 H 0.54096 0.70997 0.09979 0.0
H1055 H 0.53543 0.67551 0.09094 0.0
H1056 H 0.56071 0.70128 0.04401 0.0
H1057 H 0.5667 0.73581 0.05282 0.0
H1058 H 0.52217 0.66341 0.0423 0.0
H1059 H 0.59075 0.69243 0.07014 0.0
H1060 H 0.61549 0.70796 0.09339 0.0
H1061 H 0.57522 0.65292 0.12165 0.0
H1062 H 0.55004 0.6372 0.09863 0.0
H1063 H 0.5348 0.5819 0.00807 0.0
H1064 H 0.54153 0.61593 0.01878 0.0
H1065 H 0.52253 0.58854 0.06622 0.0
H1066 H 0.51611 0.55452 0.05551 0.0
H1067 H 0.5565 0.62649 0.0686 0.0
H1068 H 0.48829 0.59672 0.04182 0.0
H1069 H 0.46278 0.57998 0.01913 0.0
H1070 H 0.50014 0.63496 0.99003 0.0
H1071 H 0.52613 0.65188 0.01244 0.0
C1072 C 0.54563 0.70838 0.08767 0.0
C1073 C 0.55417 0.72561 0.07699 0.0
C1074 C 0.54238 0.68867 0.08262 0.0
C1075 C 0.54767 0.68589 0.06682 0.0
C1076 C 0.55639 0.70309 0.05621 0.0
C1077 C 0.55973 0.72278 0.06125 0.0
C1078 C 0.54375 0.66497 0.06117 0.0
C1079 C 0.52985 0.65542 0.04793 0.0
C1080 C 0.55324 0.65429 0.06887 0.0
C1081 C 0.56838 0.66375 0.08271 0.0
C1082 C 0.58706 0.68372 0.08135 0.0
C1083 C 0.60118 0.69254 0.09449 0.0
C1084 C 0.5969 0.68147 0.10901 0.0
C1085 C 0.5785 0.66151 0.11041 0.0
C1086 C 0.5643 0.65263 0.09732 0.0
C1087 C 0.53177 0.58308 0.0207 0.0
C1088 C 0.52448 0.56552 0.03088 0.0
C1089 C 0.53573 0.60255 0.02685 0.0
C1090 C 0.5321 0.60467 0.04324 0.0
C1091 C 0.52536 0.58725 0.05353 0.0
C1092 C 0.52167 0.56784 0.0474 0.0
C1093 C 0.5351 0.62501 0.0496 0.0
C1094 C 0.54875 0.63442 0.06299 0.0
C1095 C 0.52513 0.63543 0.04219 0.0
C1096 C 0.50925 0.62552 0.02879 0.0
C1097 C 0.49113 0.60521 0.03056 0.0
C1098 C 0.47658 0.59568 0.01774 0.0
C1099 C 0.47983 0.60641 1.00315 0.0
C1100 C 0.49764 0.62668 1.00134 0.0
C1101 C 0.51228 0.63626 0.0141 0.0
H1102 H 0.46854 0.59902 0.99326 0.0
H1103 H 0.60786 0.68832 0.11916 0.0
H1104 H 0.84842 0.27986 0.94102 0.0
H1105 H 0.87818 0.31353 0.95067 0.0
H1106 H 0.83278 0.32996 0.97055 0.0
H1107 H 0.80288 0.29679 0.96016 0.0
H1108 H 0.86456 0.36351 0.95709 0.0
H1109 H 0.8601 0.31137 0.9944 0.0
H1110 H 0.85893 0.27841 1.00284 0.0
H1111 H 0.92173 0.30028 0.98266 0.0
H1112 H 0.92315 0.33326 0.9739 0.0
H1113 H 0.9343 0.44294 0.01234 0.0
H1114 H 0.90602 0.40942 1.00119 0.0
H1115 H 0.9538 0.40125 0.97563 0.0
H1116 H 0.98237 0.43492 0.98679 0.0
H1117 H 0.9219 0.36402 0.99132 0.0
H1118 H 0.92625 0.41741 0.95514 0.0
H1119 H 0.92728 0.45088 0.94863 0.0
H1120 H 0.86396 0.42678 0.96849 0.0
H1121 H 0.8627 0.39328 0.97538 0.0
C1122 C 0.8447 0.29073 0.94723 0.0
C1123 C 0.82314 0.28546 0.94984 0.0
C1124 C 0.86179 0.30993 0.95293 0.0
C1125 C 0.8578 0.32421 0.9616 0.0
C1126 C 0.83633 0.3192 0.96397 0.0
C1127 C 0.81922 0.30007 0.95816 0.0
C1128 C 0.87595 0.34426 0.96833 0.0
C1129 C 0.87694 0.36355 0.96471 0.0
C1130 C 0.89242 0.34448 0.97807 0.0
C1131 C 0.89163 0.32468 0.98335 0.0
C1132 C 0.87359 0.30908 0.99165 0.0
C1133 C 0.87289 0.29041 0.99651 0.0
C1134 C 0.89022 0.28723 0.99325 0.0
C1135 C 0.90831 0.30275 0.98516 0.0
C1136 C 0.90907 0.32144 0.98025 0.0
C1137 C 0.9389 0.43398 0.00449 0.0
C1138 C 0.96065 0.44164 1.00048 0.0
C1139 C 0.92266 0.41484 0.99804 0.0
C1140 C 0.92779 0.40293 0.98748 0.0
C1141 C 0.94951 0.41023 0.98375 0.0
C1142 C 0.96579 0.4295 0.99009 0.0
C1143 C 0.91037 0.38309 0.9801 0.0
C1144 C 0.90954 0.3639 0.98362 0.0
C1145 C 0.89396 0.38294 0.97041 0.0
C1146 C 0.89445 0.40287 0.96589 0.0
C1147 C 0.91259 0.41928 0.95821 0.0
C1148 C 0.91322 0.43826 0.95445 0.0
C1149 C 0.89571 0.44096 0.95818 0.0
C1150 C 0.87752 0.42466 0.96562 0.0
C1151 C 0.87682 0.40566 0.96944 0.0
H1152 H 0.89622 0.45566 0.95526 0.0
H1153 H 0.88965 0.27276 0.99703 0.0
H1154 H 0.70921 0.54093 0.93125 0.0
H1155 H 0.67635 0.53861 0.94198 0.0
H1156 H 0.70018 0.54249 0.99053 0.0
H1157 H 0.73363 0.54633 0.97993 0.0
H1158 H 0.64479 0.51179 0.959 0.0
H1159 H 0.68059 0.56434 0.01629 0.0
H1160 H 0.71465 0.59535 0.02538 0.0
H1161 H 0.73082 0.6156 0.97623 0.0
H1162 H 0.69674 0.58487 0.96687 0.0
H1163 H 0.55591 0.49632 0.00594 0.0
H1164 H 0.59039 0.4995 0.99842 0.0
H1165 H 0.61606 0.56593 0.9888 0.0
H1166 H 0.58201 0.56301 0.99743 0.0
H1167 H 0.6467 0.56189 1.00058 0.0
H1168 H 0.59511 0.5258 0.95821 0.0
H1169 H 0.56051 0.49792 0.94699 0.0
H1170 H 0.57567 0.45037 0.96148 0.0
H1171 H 0.61034 0.47799 0.973 0.0
C1172 C 0.70773 0.54172 0.94421 0.0
C1173 C 0.72438 0.54395 0.95464 0.0
C1174 C 0.68869 0.5401 0.95037 0.0
C1175 C 0.68568 0.54059 0.96712 0.0
C1176 C 0.7021 0.54246 0.97756 0.0
C1177 C 0.72123 0.54436 0.97143 0.0
C1178 C 0.66541 0.5391 0.97365 0.0
C1179 C 0.64529 0.52277 0.9681 0.0
C1180 C 0.66577 0.55354 0.98537 0.0
C1181 C 0.68622 0.57218 0.99088 0.0
C1182 C 0.69138 0.57545 0.00744 0.0
C1183 C 0.7107 0.59297 0.01263 0.0
C1184 C 0.72492 0.60739 1.00139 0.0
C1185 C 0.71983 0.60437 0.98492 0.0
C1186 C 0.70053 0.58689 0.97966 0.0
C1187 C 0.5691 0.51173 1.00274 0.0
C1188 C 0.56636 0.52953 1.00265 0.0
C1189 C 0.58878 0.51349 0.99815 0.0
C1190 C 0.6059 0.5329 0.99269 0.0
C1191 C 0.60326 0.55076 0.99296 0.0
C1192 C 0.58375 0.54908 0.99786 0.0
C1193 C 0.62614 0.53452 0.98602 0.0
C1194 C 0.64624 0.55085 0.99154 0.0
C1195 C 0.62576 0.52052 0.9739 0.0
C1196 C 0.60524 0.50394 0.96657 0.0
C1197 C 0.59105 0.5094 0.95904 0.0
C1198 C 0.57142 0.49364 0.95263 0.0
C1199 C 0.56586 0.47239 0.95353 0.0
C1200 C 0.57999 0.46685 0.96079 0.0
C1201 C 0.59966 0.48254 0.96725 0.0
H1202 H 0.55062 0.46022 0.94859 0.0
H1203 H 0.73987 0.62093 0.00543 0.0
H1204 H 0.4455 0.16178 0.93264 0.0
H1205 H 0.44921 0.13248 0.94307 0.0
H1206 H 0.51011 0.17691 0.96514 0.0
H1207 H 0.50727 0.20622 0.95382 0.0
H1208 H 0.51295 0.14531 0.95414 0.0
H1209 H 0.46124 0.15207 0.98664 0.0
H1210 H 0.42837 0.15397 0.99201 0.0
H1211 H 0.38932 0.09156 0.97212 0.0
H1212 H 0.42201 0.0894 0.96644 0.0
H1213 H 0.51775 0.07784 0.01339 0.0
H1214 H 0.51341 0.10598 1.00121 0.0
H1215 H 0.45923 0.05959 0.97326 0.0
H1216 H 0.46329 0.03131 0.98543 0.0
H1217 H 0.45266 0.09128 0.98683 0.0
H1218 H 0.50651 0.08514 0.95582 0.0
H1219 H 0.54022 0.084 0.95298 0.0
H1220 H 0.57636 0.1468 0.9728 0.0
H1221 H 0.54282 0.1482 0.976 0.0
C1222 C 0.45992 0.16534 0.9394 0.0
C1223 C 0.47596 0.18641 0.94255 0.0
C1224 C 0.46188 0.14855 0.94555 0.0
C1225 C 0.47969 0.15247 0.95524 0.0
C1226 C 0.49613 0.17345 0.95782 0.0
C1227 C 0.49434 0.19022 0.95149 0.0
C1228 C 0.48094 0.13485 0.96315 0.0
C1229 C 0.49982 0.13364 0.9614 0.0
C1230 C 0.46376 0.11943 0.97252 0.0
C1231 C 0.44408 0.12067 0.97596 0.0
C1232 C 0.44565 0.13882 0.98331 0.0
C1233 C 0.42705 0.13993 0.98642 0.0
C1234 C 0.40677 0.12292 0.98237 0.0
C1235 C 0.40504 0.10474 0.97523 0.0
C1236 C 0.4236 0.10355 0.97207 0.0
C1237 C 0.5047 0.07356 0.00484 0.0
C1238 C 0.4909 0.05232 1.00034 0.0
C1239 C 0.50234 0.08968 0.99782 0.0
C1240 C 0.48616 0.08483 0.98621 0.0
C1241 C 0.47185 0.06362 0.98217 0.0
C1242 C 0.47426 0.0475 0.98911 0.0
C1243 C 0.48461 0.1019 0.97783 0.0
C1244 C 0.4657 0.10296 0.9795 0.0
C1245 C 0.50188 0.11734 0.96861 0.0
C1246 C 0.52212 0.11672 0.96626 0.0
C1247 C 0.52163 0.09867 0.95965 0.0
C1248 C 0.54071 0.09797 0.95797 0.0
C1249 C 0.56041 0.11531 0.96274 0.0
C1250 C 0.56108 0.13339 0.96913 0.0
C1251 C 0.54205 0.13415 0.97085 0.0
H1252 H 0.57518 0.11478 0.96144 0.0
H1253 H 0.39239 0.12382 0.98479 0.0
H1254 H 0.69584 0.2033 0.9649 0.0
H1255 H 0.66164 0.1721 0.97241 0.0
H1256 H 0.68781 0.13183 0.96036 0.0
H1257 H 0.72221 0.16323 0.95285 0.0
H1258 H 0.64413 0.11507 0.95044 0.0
H1259 H 0.68795 0.14505 0.99837 0.0
H1260 H 0.70969 0.17356 0.01789 0.0
H1261 H 0.65522 0.18145 0.02772 0.0
H1262 H 0.63324 0.15318 0.00806 0.0
H1263 H 0.57428 0.02347 0.99433 0.0
H1264 H 0.60718 0.0556 0.98615 0.0
H1265 H 0.57754 0.09299 0.99755 0.0
H1266 H 0.54444 0.06086 0.00527 0.0
H1267 H 0.62194 0.11172 0.00764 0.0
H1268 H 0.57745 0.08185 0.96153 0.0
H1269 H 0.55433 0.05361 0.94238 0.0
H1270 H 0.6081 0.04634 0.92862 0.0
H1271 H 0.63149 0.07426 0.94806 0.0
C1272 C 0.69409 0.18773 0.96353 0.0
C1273 C 0.71144 0.18552 0.9582 0.0
C1274 C 0.67462 0.16995 0.96792 0.0
C1275 C 0.67222 0.14963 0.96714 0.0
C1276 C 0.6893 0.14734 0.96107 0.0
C1277 C 0.70888 0.16522 0.95675 0.0
C1278 C 0.65238 0.13104 0.97349 0.0
C1279 C 0.63944 0.11421 0.96298 0.0
C1280 C 0.64584 0.13021 0.98976 0.0
C1281 C 0.65903 0.14717 1.0016 0.0
C1282 C 0.68067 0.153 0.00458 0.0
C1283 C 0.69302 0.16909 0.01569 0.0
C1284 C 0.68386 0.17936 0.024 0.0
C1285 C 0.66231 0.17351 0.02125 0.0
C1286 C 0.64989 0.15745 0.01013 0.0
C1287 C 0.57493 0.0386 0.99534 0.0
C1288 C 0.55692 0.03967 1.00076 0.0
C1289 C 0.59369 0.05691 0.99063 0.0
C1290 C 0.59478 0.07666 0.99119 0.0
C1291 C 0.57709 0.07792 0.99712 0.0
C1292 C 0.55819 0.05953 1.00164 0.0
C1293 C 0.61391 0.09569 0.98464 0.0
C1294 C 0.62665 0.11259 0.99509 0.0
C1295 C 0.6201 0.0967 0.96828 0.0
C1296 C 0.6062 0.08005 0.95639 0.0
C1297 C 0.58434 0.07414 0.95453 0.0
C1298 C 0.57117 0.05818 0.94359 0.0
C1299 C 0.57973 0.04816 0.93426 0.0
C1300 C 0.60149 0.05411 0.93586 0.0
C1301 C 0.61471 0.07 0.94686 0.0
H1302 H 0.5695 0.03582 0.92579 0.0
H1303 H 0.69345 0.19181 0.03261 0.0
H1304 H 0.80451 0.49545 0.96957 0.0
H1305 H 0.83627 0.4927 0.97678 0.0
H1306 H 0.87771 0.55656 0.96034 0.0
H1307 H 0.8457 0.55927 0.95309 0.0
H1308 H 0.8927 0.52928 0.95126 0.0
H1309 H 0.86821 0.54687 0.99984 0.0
H1310 H 0.84187 0.54248 0.02077 0.0
H1311 H 0.83277 0.4812 0.03239 0.0
H1312 H 0.85882 0.4851 0.01135 0.0
H1313 H 0.9889 0.55203 0.99339 0.0
H1314 H 0.95624 0.55241 0.98496 0.0
H1315 H 0.91771 0.48643 0.99718 0.0
H1316 H 0.95047 0.48576 0.00497 0.0
H1317 H 0.90089 0.51356 0.00832 0.0
H1318 H 0.92487 0.49519 0.96081 0.0
H1319 H 0.95024 0.49791 0.9397 0.0
H1320 H 0.95945 0.55854 0.92574 0.0
H1321 H 0.93437 0.55636 0.94704 0.0
C1322 C 0.82042 0.50877 0.96726 0.0
C1323 C 0.82274 0.5275 0.96068 0.0
C1324 C 0.83856 0.50725 0.9715 0.0
C1325 C 0.85946 0.52451 0.96932 0.0
C1326 C 0.86179 0.54304 0.96217 0.0
C1327 C 0.84355 0.54458 0.95799 0.0
C1328 C 0.87871 0.52333 0.97499 0.0
C1329 C 0.89462 0.52616 0.96378 0.0
C1330 C 0.88097 0.51856 0.99124 0.0
C1331 C 0.86527 0.51617 0.00388 0.0
C1332 C 0.86043 0.53237 0.00675 0.0
C1333 C 0.84559 0.52999 0.01866 0.0
C1334 C 0.8356 0.51154 0.02787 0.0
C1335 C 0.84048 0.49546 0.02522 0.0
C1336 C 0.85529 0.49775 0.01331 0.0
C1337 C 0.97344 0.53765 0.99443 0.0
C1338 C 0.97226 0.51902 1.00026 0.0
C1339 C 0.9548 0.53787 0.98956 0.0
C1340 C 0.93451 0.51946 0.99042 0.0
C1341 C 0.93318 0.50086 0.99649 0.0
C1342 C 0.95192 0.50055 1.00109 0.0
C1343 C 0.91488 0.51968 0.98462 0.0
C1344 C 0.89893 0.51669 0.9958 0.0
C1345 C 0.9125 0.52411 0.96832 0.0
C1346 C 0.92792 0.52573 0.95568 0.0
C1347 C 0.9325 0.50924 0.95339 0.0
C1348 C 0.9468 0.51066 0.94135 0.0
C1349 C 0.95652 0.52843 0.93139 0.0
C1350 C 0.95195 0.54481 0.93349 0.0
C1351 C 0.93769 0.54349 0.94555 0.0
H1352 H 0.96753 0.52949 0.92203 0.0
H1353 H 0.82411 0.50973 0.03709 0.0
H1354 H 0.45404 0.28565 0.94421 0.0
H1355 H 0.45709 0.32031 0.94969 0.0
H1356 H 0.52291 0.34481 0.96551 0.0
H1357 H 0.51989 0.31041 0.95994 0.0
H1358 H 0.49517 0.34712 0.98859 0.0
H1359 H 0.51443 0.36319 0.93256 0.0
H1360 H 0.50903 0.35755 0.90314 0.0
H1361 H 0.45179 0.36246 0.90597 0.0
H1362 H 0.45658 0.36771 0.93548 0.0
H1363 H 0.52977 0.45255 0.00805 0.0
H1364 H 0.5259 0.42024 0.99621 0.0
H1365 H 0.46626 0.4075 0.97333 0.0
H1366 H 0.47049 0.44042 0.9847 0.0
H1367 H 0.4884 0.39823 0.95315 0.0
H1368 H 0.46635 0.37966 0.00796 0.0
H1369 H 0.46858 0.38286 0.03767 0.0
H1370 H 0.52751 0.38078 0.03734 0.0
H1371 H 0.52559 0.37753 0.0076 0.0
C1372 C 0.46928 0.29871 0.94841 0.0
C1373 C 0.48679 0.29567 0.95164 0.0
C1374 C 0.47103 0.31841 0.95152 0.0
C1375 C 0.49024 0.33506 0.958 0.0
C1376 C 0.508 0.33216 0.96047 0.0
C1377 C 0.50629 0.3126 0.95726 0.0
C1378 C 0.49115 0.35457 0.96413 0.0
C1379 C 0.49397 0.35845 0.98081 0.0
C1380 C 0.48864 0.3688 0.95403 0.0
C1381 C 0.4857 0.36553 0.93629 0.0
C1382 C 0.50052 0.36279 0.92696 0.0
C1383 C 0.4976 0.35971 0.91025 0.0
C1384 C 0.48 0.3595 0.90271 0.0
C1385 C 0.46535 0.36251 0.91184 0.0
C1386 C 0.46817 0.36554 0.92856 0.0
C1387 C 0.51574 0.44284 1.00058 0.0
C1388 C 0.50026 0.4489 0.99749 0.0
C1389 C 0.51353 0.42432 0.99383 0.0
C1390 C 0.49554 0.41117 0.98415 0.0
C1391 C 0.48022 0.41734 0.98082 0.0
C1392 C 0.4826 0.4361 0.98738 0.0
C1393 C 0.49282 0.39098 0.97761 0.0
C1394 C 0.48954 0.38689 0.96092 0.0
C1395 C 0.4945 0.37625 0.98771 0.0
C1396 C 0.49589 0.37848 0.00556 0.0
C1397 C 0.47983 0.38 0.01422 0.0
C1398 C 0.48099 0.38172 0.03106 0.0
C1399 C 0.49816 0.382 0.03938 0.0
C1400 C 0.51419 0.38052 0.03088 0.0
C1401 C 0.51304 0.37866 0.01403 0.0
H1402 H 0.49907 0.38341 0.05242 0.0
H1403 H 0.47776 0.35711 0.88978 0.0
H1404 H 0.21422 0.70734 0.06131 0.0
H1405 H 0.1828 0.67247 0.05576 0.0
H1406 H 0.14066 0.695 0.07226 0.0
H1407 H 0.17232 0.73012 0.07778 0.0
H1408 H 0.12794 0.65225 0.08209 0.0
H1409 H 0.14669 0.69443 0.03404 0.0
H1410 H 0.17129 0.71768 0.01295 0.0
H1411 H 0.18566 0.66926 0.99911 0.0
H1412 H 0.16139 0.64583 0.02029 0.0
H1413 H 0.03424 0.56732 0.04399 0.0
H1414 H 0.06267 0.60164 0.05404 0.0
H1415 H 0.11048 0.5919 0.02999 0.0
H1416 H 0.08216 0.55803 0.01949 0.0
H1417 H 0.11887 0.62962 0.02463 0.0
H1418 H 0.10101 0.58742 0.07292 0.0
H1419 H 0.07809 0.56465 0.09492 0.0
H1420 H 0.06276 0.61237 0.10886 0.0
H1421 H 0.08539 0.63533 0.08684 0.0
C1422 C 0.19826 0.70467 0.06406 0.0
C1423 C 0.19553 0.72119 0.07002 0.0
C1424 C 0.18035 0.68482 0.06083 0.0
C1425 C 0.15939 0.6812 0.06345 0.0
C1426 C 0.1567 0.69747 0.07017 0.0
C1427 C 0.1747 0.71745 0.07333 0.0
C1428 C 0.14049 0.66092 0.05804 0.0
C1429 C 0.1257 0.64735 0.06951 0.0
C1430 C 0.13785 0.65444 0.04166 0.0
C1431 C 0.15237 0.66846 0.02886 0.0
C1432 C 0.15523 0.68881 0.02659 0.0
C1433 C 0.16909 0.702 0.0146 0.0
C1434 C 0.18007 0.69497 0.00472 0.0
C1435 C 0.17717 0.6747 0.00679 0.0
C1436 C 0.16335 0.66145 0.01877 0.0
C1437 C 0.05082 0.57248 0.04086 0.0
C1438 C 0.05589 0.55994 0.03087 0.0
C1439 C 0.06711 0.59207 0.04674 0.0
C1440 C 0.08885 0.59935 0.043 0.0
C1441 C 0.09388 0.58674 0.03307 0.0
C1442 C 0.07762 0.56732 0.02704 0.0
C1443 C 0.10637 0.62045 0.04873 0.0
C1444 C 0.12093 0.63435 0.03725 0.0
C1445 C 0.10879 0.62709 0.06513 0.0
C1446 C 0.09473 0.61302 0.07811 0.0
C1447 C 0.09257 0.59297 0.08056 0.0
C1448 C 0.07967 0.58004 0.09308 0.0
C1449 C 0.06896 0.58705 0.10328 0.0
C1450 C 0.07107 0.60696 0.10096 0.0
C1451 C 0.08393 0.61994 0.08847 0.0
H1452 H 0.05909 0.57712 0.11302 0.0
H1453 H 0.19079 0.70521 0.99545 0.0
H1454 H 0.30786 0.47871 0.09203 0.0
H1455 H 0.34186 0.4804 0.08407 0.0
H1456 H 0.31971 0.46796 0.03452 0.0
H1457 H 0.28578 0.46568 0.04259 0.0
H1458 H 0.33861 0.447 0.04025 0.0
H1459 H 0.35731 0.5192 0.0499 0.0
H1460 H 0.36053 0.54937 0.06575 0.0
H1461 H 0.40052 0.54142 0.10058 0.0
H1462 H 0.39731 0.51103 0.08502 0.0
H1463 H 0.4647 0.51776 0.02253 0.0
H1464 H 0.42971 0.51442 0.02915 0.0
H1465 H 0.40539 0.44907 0.04201 0.0
H1466 H 0.43935 0.4519 0.03389 0.0
H1467 H 0.40946 0.50912 0.05444 0.0
H1468 H 0.35652 0.41998 0.04337 0.0
H1469 H 0.35184 0.39214 0.02397 0.0
H1470 H 0.37812 0.43825 0.98616 0.0
H1471 H 0.38307 0.46635 0.00549 0.0
C1472 C 0.31024 0.47601 0.07951 0.0
C1473 C 0.2942 0.47183 0.06792 0.0
C1474 C 0.32974 0.47721 0.07491 0.0
C1475 C 0.33364 0.47459 0.0586 0.0
C1476 C 0.31726 0.47 0.04717 0.0
C1477 C 0.29782 0.46866 0.05178 0.0
C1478 C 0.35461 0.47664 0.05321 0.0
C1479 C 0.35407 0.4606 0.04343 0.0
C1480 C 0.37496 0.49449 0.05701 0.0
C1481 C 0.37687 0.5127 0.06639 0.0
C1482 C 0.36665 0.52379 0.061 0.0
C1483 C 0.3685 0.54094 0.06992 0.0
C1484 C 0.38067 0.54727 0.08419 0.0
C1485 C 0.39106 0.53648 0.08954 0.0
C1486 C 0.38925 0.5193 0.08067 0.0
C1487 C 0.45154 0.50248 0.02612 0.0
C1488 C 0.45456 0.48489 0.02711 0.0
C1489 C 0.43157 0.50062 0.03019 0.0
C1490 C 0.41436 0.4813 0.03582 0.0
C1491 C 0.41772 0.46392 0.03707 0.0
C1492 C 0.43737 0.46562 0.03258 0.0
C1493 C 0.39347 0.47955 0.04129 0.0
C1494 C 0.39401 0.49554 0.05123 0.0
C1495 C 0.37301 0.46195 0.03727 0.0
C1496 C 0.37057 0.44525 0.02584 0.0
C1497 C 0.36141 0.42415 0.03093 0.0
C1498 C 0.35874 0.40836 0.01998 0.0
C1499 C 0.36488 0.41347 0.00387 0.0
C1500 C 0.37365 0.43437 0.99868 0.0
C1501 C 0.37654 0.45024 0.00963 0.0
H1502 H 0.36272 0.40122 0.99539 0.0
H1503 H 0.38209 0.56056 0.09107 0.0
H1504 H 0.57288 0.84642 0.07469 0.0
H1505 H 0.56649 0.87615 0.0698 0.0
H1506 H 0.50236 0.83226 0.05237 0.0
H1507 H 0.50875 0.80271 0.0573 0.0
H1508 H 0.5268 0.86402 0.03071 0.0
H1509 H 0.50829 0.85723 0.08715 0.0
H1510 H 0.51451 0.85572 0.11632 0.0
H1511 H 0.56961 0.91834 0.1147 0.0
H1512 H 0.5639 0.92011 0.08546 0.0
H1513 H 0.48569 0.93212 0.01684 0.0
H1514 H 0.49178 0.90399 0.02646 0.0
H1515 H 0.55063 0.95029 0.05005 0.0
H1516 H 0.54417 0.97853 0.04096 0.0
H1517 H 0.53028 0.91811 0.06905 0.0
H1518 H 0.55108 0.92521 0.01344 0.0
H1519 H 0.54725 0.92747 0.984 0.0
H1520 H 0.49072 0.86573 0.98376 0.0
H1521 H 0.49425 0.86309 0.01322 0.0
C1522 C 0.55729 0.84323 0.07021 0.0
C1523 C 0.54121 0.8225 0.06642 0.0
C1524 C 0.55365 0.86012 0.06742 0.0
C1525 C 0.53394 0.85635 0.06072 0.0
C1526 C 0.51765 0.83547 0.05754 0.0
C1527 C 0.52125 0.81865 0.06041 0.0
C1528 C 0.53092 0.87413 0.05559 0.0
C1529 C 0.52727 0.8757 0.03913 0.0
C1530 C 0.53235 0.88976 0.0665 0.0
C1531 C 0.53581 0.8887 0.08407 0.0
C1532 C 0.52186 0.87059 0.09298 0.0
C1533 C 0.52526 0.86971 0.10953 0.0
C1534 C 0.54248 0.8869 0.11735 0.0
C1535 C 0.5563 0.90503 0.10862 0.0
C1536 C 0.55298 0.90598 0.09206 0.0
C1537 C 0.5 0.93636 0.02401 0.0
C1538 C 0.51455 0.95758 0.02803 0.0
C1539 C 0.5035 0.92024 0.02947 0.0
C1540 C 0.52188 0.92502 0.03875 0.0
C1541 C 0.53635 0.9462 0.04289 0.0
C1542 C 0.53268 0.96234 0.03763 0.0
C1543 C 0.52591 0.90788 0.04415 0.0
C1544 C 0.52983 0.90646 0.06063 0.0
C1545 C 0.52506 0.8925 0.03323 0.0
C1546 C 0.52285 0.89402 0.01553 0.0
C1547 C 0.53779 0.91216 0.00711 0.0
C1548 C 0.53571 0.91347 0.99042 0.0
C1549 C 0.51875 0.89676 0.98202 0.0
C1550 C 0.50387 0.87866 0.99028 0.0
C1551 C 0.50594 0.87721 0.00696 0.0
H1552 H 0.51712 0.89786 0.9691 0.0
H1553 H 0.54508 0.88619 0.13016 0.0
H1554 H 0.94936 0.18421 0.41433 0.0
H1555 H 0.98218 0.21387 0.40304 0.0
H1556 H 0.00516 0.17124 0.39016 0.0
H1557 H 0.97245 0.14158 0.40144 0.0
H1558 H 0.0366 0.20836 0.4049 0.0
H1559 H 0.98511 0.18766 0.36151 0.0
H1560 H 0.95045 0.17932 0.34891 0.0
H1561 H 0.96309 0.24225 0.35931 0.0
H1562 H 0.99771 0.25088 0.3722 0.0
H1563 H 0.12524 0.28324 0.35955 0.0
H1564 H 0.09176 0.25093 0.36606 0.0
H1565 H 0.06039 0.28767 0.37378 0.0
H1566 H 0.09368 0.31988 0.36652 0.0
H1567 H 0.03296 0.2518 0.36033 0.0
H1568 H 0.08246 0.27231 0.40521 0.0
H1569 H 0.11567 0.28063 0.42022 0.0
H1570 H 0.10616 0.21904 0.40885 0.0
H1571 H 0.07305 0.21044 0.39357 0.0
C1572 C 0.9615 0.18122 0.40921 0.0
C1573 C 0.95832 0.16057 0.40873 0.0
C1574 C 0.98015 0.19812 0.40265 0.0
C1575 C 0.99601 0.19472 0.3956 0.0
C1576 C 0.99309 0.17421 0.39546 0.0
C1577 C 0.97437 0.15728 0.40185 0.0
C1578 C 0.01571 0.21255 0.38845 0.0
C1579 C 0.03587 0.21767 0.39498 0.0
C1580 C 0.01467 0.22497 0.37577 0.0
C1581 C 0.99391 0.21985 0.36796 0.0
C1582 C 0.98042 0.19967 0.36123 0.0
C1583 C 0.9608 0.1949 0.35402 0.0
C1584 C 0.95455 0.21023 0.35335 0.0
C1585 C 0.96794 0.23039 0.35986 0.0
C1586 C 0.98757 0.23523 0.36711 0.0
C1587 C 0.11106 0.28436 0.36208 0.0
C1588 C 0.11196 0.30405 0.36217 0.0
C1589 C 0.09196 0.26588 0.36607 0.0
C1590 C 0.07358 0.26685 0.37072 0.0
C1591 C 0.07429 0.28644 0.37026 0.0
C1592 C 0.09331 0.30484 0.36611 0.0
C1593 C 0.05397 0.24782 0.37687 0.0
C1594 C 0.03378 0.24243 0.37016 0.0
C1595 C 0.05497 0.23529 0.38955 0.0
C1596 C 0.07539 0.24081 0.39811 0.0
C1597 C 0.0876 0.26064 0.40573 0.0
C1598 C 0.10637 0.26538 0.41432 0.0
C1599 C 0.11297 0.25035 0.41549 0.0
C1600 C 0.10099 0.23064 0.40793 0.0
C1601 C 0.08224 0.22583 0.3993 0.0
H1602 H 0.12725 0.25386 0.42235 0.0
H1603 H 0.93935 0.20651 0.34775 0.0
H1604 H 0.87087 0.82718 0.39713 0.0
H1605 H 0.84084 0.83081 0.38664 0.0
H1606 H 0.79561 0.77013 0.40667 0.0
H1607 H 0.82558 0.76627 0.417 0.0
H1608 H 0.78533 0.77381 0.37558 0.0
H1609 H 0.80354 0.81572 0.42416 0.0
H1610 H 0.82767 0.84396 0.44308 0.0
H1611 H 0.8414 0.8907 0.40662 0.0
H1612 H 0.81758 0.86269 0.38739 0.0
H1613 H 0.68864 0.77681 0.36652 0.0
H1614 H 0.72005 0.77429 0.3745 0.0
H1615 H 0.76147 0.84014 0.36268 0.0
H1616 H 0.72967 0.84302 0.35604 0.0
H1617 H 0.77496 0.83451 0.38879 0.0
H1618 H 0.76176 0.79389 0.3394 0.0
H1619 H 0.74038 0.76631 0.31899 0.0
H1620 H 0.71926 0.71853 0.35557 0.0
H1621 H 0.74072 0.74583 0.37606 0.0
C1622 C 0.85453 0.81458 0.39929 0.0
C1623 C 0.85069 0.79642 0.40793 0.0
C1624 C 0.83734 0.81676 0.39339 0.0
C1625 C 0.81587 0.80082 0.39594 0.0
C1626 C 0.81199 0.78268 0.40457 0.0
C1627 C 0.82917 0.78057 0.41058 0.0
C1628 C 0.79749 0.80274 0.38924 0.0
C1629 C 0.78292 0.78697 0.37863 0.0
C1630 C 0.79465 0.82023 0.39273 0.0
C1631 C 0.80895 0.83708 0.40428 0.0
C1632 C 0.81185 0.832 0.42013 0.0
C1633 C 0.82544 0.84797 0.43092 0.0
C1634 C 0.83611 0.86911 0.42604 0.0
C1635 C 0.83315 0.87432 0.41037 0.0
C1636 C 0.8196 0.85841 0.39953 0.0
C1637 C 0.7045 0.79067 0.36534 0.0
C1638 C 0.70663 0.80996 0.36019 0.0
C1639 C 0.72259 0.78916 0.36975 0.0
C1640 C 0.7435 0.80684 0.36887 0.0
C1641 C 0.74567 0.82613 0.36342 0.0
C1642 C 0.72744 0.82774 0.35936 0.0
C1643 C 0.76268 0.80559 0.37495 0.0
C1644 C 0.77739 0.82142 0.38556 0.0
C1645 C 0.76584 0.78828 0.37132 0.0
C1646 C 0.75248 0.7719 0.35922 0.0
C1647 C 0.75231 0.77752 0.34305 0.0
C1648 C 0.74032 0.76194 0.33148 0.0
C1649 C 0.72831 0.74071 0.33601 0.0
C1650 C 0.72848 0.73499 0.35208 0.0
C1651 C 0.74064 0.75049 0.36365 0.0
H1652 H 0.71898 0.72869 0.32705 0.0
H1653 H 0.84662 0.88145 0.43441 0.0
H1654 H 0.19728 0.03753 0.4354 0.0
H1655 H 0.19473 0.00479 0.42531 0.0
H1656 H 0.21214 0.03165 0.37766 0.0
H1657 H 0.21519 0.06461 0.38769 0.0
H1658 H 0.17738 0.99085 0.37728 0.0
H1659 H 0.24874 0.02865 0.40057 0.0
H1660 H 0.27512 0.04779 0.42233 0.0
H1661 H 0.24442 0.99272 0.45238 0.0
H1662 H 0.21764 0.97333 0.43087 0.0
H1663 H 0.19833 0.91595 0.34055 0.0
H1664 H 0.20272 0.94903 0.35145 0.0
H1665 H 0.19132 0.92293 0.3995 0.0
H1666 H 0.18714 0.8898 0.3885 0.0
H1667 H 0.22245 0.96304 0.4002 0.0
H1668 H 0.15141 0.92486 0.37744 0.0
H1669 H 0.12437 0.90526 0.35616 0.0
H1670 H 0.15305 0.96023 0.32593 0.0
H1671 H 0.18055 0.98005 0.3469 0.0
C1672 C 0.20079 0.03658 0.42281 0.0
C1673 C 0.20648 0.05375 0.41237 0.0
C1674 C 0.19924 0.01781 0.41705 0.0
C1675 C 0.20337 0.01585 0.40076 0.0
C1676 C 0.2088 0.03283 0.39026 0.0
C1677 C 0.21045 0.05162 0.39602 0.0
C1678 C 0.20209 0.99611 0.39463 0.0
C1679 C 0.18741 0.98489 0.38214 0.0
C1680 C 0.21478 0.98807 0.4013 0.0
C1681 C 0.23106 0.9996 0.41416 0.0
C1682 C 0.24752 0.02066 0.41186 0.0
C1683 C 0.26256 0.03156 0.42414 0.0
C1684 C 0.26142 0.0215 0.43874 0.0
C1685 C 0.24527 0.0005 0.44107 0.0
C1686 C 0.23017 0.98955 0.42883 0.0
C1687 C 0.19644 0.91716 0.35335 0.0
C1688 C 0.19175 0.90016 0.3636 0.0
C1689 C 0.19912 0.93613 0.35963 0.0
C1690 C 0.19682 0.93831 0.37626 0.0
C1691 C 0.19303 0.92159 0.38662 0.0
C1692 C 0.19061 0.90268 0.38033 0.0
C1693 C 0.19782 0.9578 0.38275 0.0
C1694 C 0.21239 0.96896 0.39533 0.0
C1695 C 0.18488 0.9657 0.37626 0.0
C1696 C 0.16814 0.95391 0.36372 0.0
C1697 C 0.15204 0.93274 0.36622 0.0
C1698 C 0.13662 0.92159 0.35422 0.0
C1699 C 0.13698 0.93152 0.33973 0.0
C1700 C 0.15279 0.95259 0.33718 0.0
C1701 C 0.16829 0.96379 0.34912 0.0
H1702 H 0.12499 0.9229 0.33048 0.0
H1703 H 0.27308 0.02995 0.44823 0.0
H1704 H 0.49254 0.62981 0.26053 0.0
H1705 H 0.52247 0.66342 0.27037 0.0
H1706 H 0.51638 0.63656 0.3177 0.0
H1707 H 0.48682 0.60278 0.30792 0.0
H1708 H 0.52097 0.67655 0.31888 0.0
H1709 H 0.55581 0.64197 0.29349 0.0
H1710 H 0.5632 0.62419 0.27106 0.0
H1711 H 0.58438 0.67938 0.24161 0.0
H1712 H 0.57681 0.69739 0.26381 0.0
H1713 H 0.61857 0.75423 0.35427 0.0
H1714 H 0.59003 0.72044 0.34356 0.0
H1715 H 0.60129 0.74713 0.29572 0.0
H1716 H 0.63013 0.7809 0.30648 0.0
H1717 H 0.59357 0.70767 0.29424 0.0
H1718 H 0.56216 0.74378 0.32061 0.0
H1719 H 0.55688 0.76217 0.34357 0.0
H1720 H 0.52762 0.70454 0.37075 0.0
H1721 H 0.53432 0.68611 0.34842 0.0
C1722 C 0.49768 0.63095 0.273 0.0
C1723 C 0.48723 0.6135 0.28341 0.0
C1724 C 0.51474 0.65023 0.27862 0.0
C1725 C 0.52172 0.65247 0.29475 0.0
C1726 C 0.51118 0.63522 0.30523 0.0
C1727 C 0.49421 0.61592 0.29961 0.0
C1728 C 0.5402 0.6727 0.30071 0.0
C1729 C 0.53692 0.68326 0.31364 0.0
C1730 C 0.56085 0.6817 0.29356 0.0
C1731 C 0.56553 0.67094 0.28025 0.0
C1732 C 0.56188 0.65026 0.28219 0.0
C1733 C 0.56613 0.64014 0.26952 0.0
C1734 C 0.5742 0.65063 0.2549 0.0
C1735 C 0.57809 0.67127 0.25293 0.0
C1736 C 0.57384 0.68144 0.26555 0.0
C1737 C 0.61479 0.75294 0.34154 0.0
C1738 C 0.62612 0.77028 0.33129 0.0
C1739 C 0.5986 0.73357 0.33538 0.0
C1740 C 0.59316 0.73135 0.31887 0.0
C1741 C 0.60511 0.74847 0.3085 0.0
C1742 C 0.62153 0.76775 0.31465 0.0
C1743 C 0.57445 0.7115 0.31256 0.0
C1744 C 0.57764 0.70103 0.29951 0.0
C1745 C 0.55367 0.70267 0.31956 0.0
C1746 C 0.54893 0.71356 0.33283 0.0
C1747 C 0.55479 0.73502 0.33152 0.0
C1748 C 0.55156 0.74548 0.34445 0.0
C1749 C 0.54161 0.73447 0.35851 0.0
C1750 C 0.53524 0.71304 0.3598 0.0
C1751 C 0.53894 0.70261 0.34706 0.0
H1752 H 0.53888 0.74256 0.36842 0.0
H1753 H 0.57748 0.64277 0.24512 0.0
H1754 H 0.40168 0.8822 0.31102 0.0
H1755 H 0.36819 0.87792 0.32201 0.0
H1756 H 0.34074 0.86654 0.27405 0.0
H1757 H 0.37386 0.86966 0.26302 0.0
H1758 H 0.34863 0.899 0.31897 0.0
H1759 H 0.28565 0.83555 0.27562 0.0
H1760 H 0.28075 0.80516 0.25916 0.0
H1761 H 0.32391 0.79695 0.29054 0.0
H1762 H 0.32881 0.82708 0.30732 0.0
H1763 H 0.24846 0.8956 0.32746 0.0
H1764 H 0.2824 0.89828 0.31931 0.0
H1765 H 0.25799 0.83306 0.33262 0.0
H1766 H 0.22327 0.82997 0.33942 0.0
H1767 H 0.27644 0.83783 0.30639 0.0
H1768 H 0.30477 0.8805 0.35505 0.0
H1769 H 0.31129 0.90901 0.37449 0.0
H1770 H 0.33864 0.95499 0.33668 0.0
H1771 H 0.33245 0.92677 0.31716 0.0
C1772 C 0.38844 0.87842 0.30277 0.0
C1773 C 0.39059 0.87611 0.28608 0.0
C1774 C 0.36928 0.87619 0.3091 0.0
C1775 C 0.35168 0.87165 0.29896 0.0
C1776 C 0.35384 0.86965 0.28224 0.0
C1777 C 0.37298 0.87173 0.2759 0.0
C1778 C 0.33136 0.86951 0.30591 0.0
C1779 C 0.33287 0.88557 0.3162 0.0
C1780 C 0.31066 0.85192 0.30259 0.0
C1781 C 0.30778 0.83373 0.29262 0.0
C1782 C 0.29405 0.82722 0.27903 0.0
C1783 C 0.29127 0.81004 0.26964 0.0
C1784 C 0.30208 0.79918 0.27377 0.0
C1785 C 0.31562 0.80543 0.28732 0.0
C1786 C 0.31842 0.82257 0.29676 0.0
C1787 C 0.25049 0.88194 0.32895 0.0
C1788 C 0.23333 0.86276 0.33457 0.0
C1789 C 0.27008 0.88353 0.3244 0.0
C1790 C 0.27328 0.86605 0.32563 0.0
C1791 C 0.2562 0.8469 0.33158 0.0
C1792 C 0.23637 0.84519 0.33576 0.0
C1793 C 0.29368 0.86731 0.31954 0.0
C1794 C 0.2922 0.85119 0.30926 0.0
C1795 C 0.31448 0.88462 0.32314 0.0
C1796 C 0.31782 0.90154 0.33468 0.0
C1797 C 0.31192 0.89668 0.35092 0.0
C1798 C 0.31567 0.91277 0.36194 0.0
C1799 C 0.32518 0.93376 0.35678 0.0
C1800 C 0.33118 0.93872 0.34064 0.0
C1801 C 0.32766 0.92271 0.32962 0.0
H1802 H 0.328 0.94618 0.36532 0.0
H1803 H 0.29992 0.7859 0.26648 0.0
H1804 H 0.14542 0.51068 0.25772 0.0
H1805 H 0.14606 0.48043 0.26981 0.0
H1806 H 0.14663 0.50504 0.31742 0.0
H1807 H 0.14635 0.53549 0.30537 0.0
H1808 H 0.17465 0.49159 0.31623 0.0
H1809 H 0.1004 0.46287 0.30071 0.0
H1810 H 0.0705 0.45511 0.2819 0.0
H1811 H 0.08938 0.4193 0.25158 0.0
H1812 H 0.11958 0.42708 0.27011 0.0
H1813 H 0.15527 0.40058 0.35876 0.0
H1814 H 0.15006 0.42856 0.34763 0.0
H1815 H 0.14817 0.40466 0.29951 0.0
H1816 H 0.15206 0.37585 0.31076 0.0
H1817 H 0.12023 0.41774 0.30146 0.0
H1818 H 0.19523 0.44736 0.3172 0.0
H1819 H 0.22276 0.45255 0.33754 0.0
H1820 H 0.20143 0.48603 0.36822 0.0
H1821 H 0.17349 0.48068 0.34819 0.0
C1822 C 0.1455 0.50953 0.27076 0.0
C1823 C 0.14576 0.52542 0.2806 0.0
C1824 C 0.14586 0.49224 0.27766 0.0
C1825 C 0.14614 0.4903 0.29455 0.0
C1826 C 0.14647 0.50619 0.30438 0.0
C1827 C 0.1463 0.52358 0.29748 0.0
C1828 C 0.14624 0.4718 0.30196 0.0
C1829 C 0.1626 0.47545 0.31312 0.0
C1830 C 0.13072 0.4507 0.29776 0.0
C1831 C 0.11237 0.44572 0.28673 0.0
C1832 C 0.09825 0.45344 0.28999 0.0
C1833 C 0.08124 0.44903 0.27938 0.0
C1834 C 0.07808 0.43677 0.26553 0.0
C1835 C 0.09186 0.42881 0.2623 0.0
C1836 C 0.10891 0.4332 0.27286 0.0
C1837 C 0.15355 0.40112 0.34588 0.0
C1838 C 0.15417 0.38599 0.33572 0.0
C1839 C 0.15066 0.41723 0.33946 0.0
C1840 C 0.14925 0.41907 0.32267 0.0
C1841 C 0.14928 0.40364 0.3125 0.0
C1842 C 0.15157 0.38719 0.31897 0.0
C1843 C 0.14868 0.43753 0.31563 0.0
C1844 C 0.13228 0.43389 0.30454 0.0
C1845 C 0.16415 0.45864 0.31989 0.0
C1846 C 0.18218 0.46351 0.33124 0.0
C1847 C 0.19648 0.45591 0.32826 0.0
C1848 C 0.2121 0.45881 0.33976 0.0
C1849 C 0.21378 0.46955 0.3542 0.0
C1850 C 0.20007 0.47768 0.35705 0.0
C1851 C 0.18435 0.47474 0.34562 0.0
H1852 H 0.22566 0.47153 0.3632 0.0
H1853 H 0.06492 0.4334 0.25732 0.0
H1854 H 0.38948 0.49046 0.29548 0.0
H1855 H 0.35393 0.46023 0.30188 0.0
H1856 H 0.32455 0.49829 0.29192 0.0
H1857 H 0.36015 0.5285 0.28565 0.0
H1858 H 0.31418 0.4812 0.32121 0.0
H1859 H 0.31357 0.45557 0.26809 0.0
H1860 H 0.32775 0.44534 0.24475 0.0
H1861 H 0.3303 0.39747 0.27316 0.0
H1862 H 0.31643 0.40762 0.29676 0.0
H1863 H 0.20776 0.39499 0.33877 0.0
H1864 H 0.24059 0.42596 0.32906 0.0
H1865 H 0.27323 0.38963 0.32899 0.0
H1866 H 0.24006 0.35847 0.33775 0.0
H1867 H 0.27994 0.40684 0.30215 0.0
H1868 H 0.29394 0.44156 0.35617 0.0
H1869 H 0.28813 0.45771 0.38049 0.0
H1870 H 0.2629 0.48884 0.35109 0.0
H1871 H 0.26941 0.47354 0.32656 0.0
C1872 C 0.37529 0.49206 0.29417 0.0
C1873 C 0.37734 0.51157 0.28993 0.0
C1874 C 0.355 0.47483 0.29782 0.0
C1875 C 0.3365 0.47693 0.29733 0.0
C1876 C 0.33855 0.49625 0.29234 0.0
C1877 C 0.35882 0.51344 0.28867 0.0
C1878 C 0.31563 0.45993 0.30383 0.0
C1879 C 0.30645 0.46498 0.31682 0.0
C1880 C 0.30583 0.43869 0.29844 0.0
C1881 C 0.31411 0.43248 0.28424 0.0
C1882 C 0.31732 0.44297 0.26941 0.0
C1883 C 0.32527 0.43717 0.25612 0.0
C1884 C 0.32997 0.42079 0.25748 0.0
C1885 C 0.32667 0.41016 0.27212 0.0
C1886 C 0.31873 0.41592 0.28546 0.0
C1887 C 0.22214 0.39384 0.33709 0.0
C1888 C 0.22143 0.37437 0.33906 0.0
C1889 C 0.24102 0.41163 0.33158 0.0
C1890 C 0.25963 0.41033 0.32822 0.0
C1891 C 0.25915 0.39114 0.33125 0.0
C1892 C 0.24023 0.37333 0.33639 0.0
C1893 C 0.2788 0.42793 0.32001 0.0
C1894 C 0.28757 0.42303 0.30654 0.0
C1895 C 0.2884 0.44934 0.32502 0.0
C1896 C 0.28166 0.45604 0.33965 0.0
C1897 C 0.28674 0.4515 0.35496 0.0
C1898 C 0.28354 0.46068 0.36875 0.0
C1899 C 0.27471 0.47393 0.36738 0.0
C1900 C 0.2694 0.47831 0.35217 0.0
C1901 C 0.273 0.46953 0.33832 0.0
H1902 H 0.27218 0.48096 0.37809 0.0
H1903 H 0.33613 0.41632 0.24718 0.0
H1904 H 0.51169 0.89635 0.3011 0.0
H1905 H 0.54287 0.89191 0.30688 0.0
H1906 H 0.50912 0.82921 0.28594 0.0
H1907 H 0.47787 0.83365 0.28036 0.0
H1908 H 0.52466 0.82782 0.31428 0.0
H1909 H 0.55405 0.87035 0.26762 0.0
H1910 H 0.5647 0.90096 0.24976 0.0
H1911 H 0.60794 0.9426 0.28633 0.0
H1912 H 0.59734 0.91227 0.3045 0.0
H1913 H 0.61638 0.81362 0.32913 0.0
H1914 H 0.58476 0.81456 0.31922 0.0
H1915 H 0.61789 0.88227 0.32707 0.0
H1916 H 0.65031 0.88141 0.3348 0.0
H1917 H 0.60114 0.87822 0.30183 0.0
H1918 H 0.5532 0.83299 0.35077 0.0
H1919 H 0.53372 0.80021 0.36682 0.0
H1920 H 0.5245 0.76268 0.32436 0.0
H1921 H 0.54263 0.79509 0.30792 0.0
C1922 C 0.51123 0.88188 0.29735 0.0
C1923 C 0.4926 0.86545 0.29009 0.0
C1924 C 0.52904 0.87932 0.30066 0.0
C1925 C 0.52851 0.86024 0.29679 0.0
C1926 C 0.51002 0.84408 0.28905 0.0
C1927 C 0.49223 0.84666 0.28574 0.0
C1928 C 0.54643 0.85653 0.30196 0.0
C1929 C 0.54143 0.83882 0.31149 0.0
C1930 C 0.56832 0.87075 0.29838 0.0
C1931 C 0.57475 0.88904 0.28748 0.0
C1932 C 0.5657 0.88605 0.2719 0.0
C1933 C 0.57176 0.90335 0.26172 0.0
C1934 C 0.58695 0.92371 0.26692 0.0
C1935 C 0.59616 0.92681 0.28232 0.0
C1936 C 0.59015 0.90957 0.29256 0.0
C1937 C 0.61668 0.82862 0.32898 0.0
C1938 C 0.63572 0.84743 0.33299 0.0
C1939 C 0.59832 0.82917 0.32348 0.0
C1940 C 0.59824 0.84847 0.32251 0.0
C1941 C 0.61717 0.86709 0.32734 0.0
C1942 C 0.63577 0.86664 0.33198 0.0
C1943 C 0.57969 0.85006 0.31523 0.0
C1944 C 0.5845 0.86733 0.30499 0.0
C1945 C 0.55756 0.83536 0.3181 0.0
C1946 C 0.54996 0.81641 0.32827 0.0
C1947 C 0.54746 0.81775 0.34496 0.0
C1948 C 0.53643 0.79926 0.35408 0.0
C1949 C 0.52838 0.77945 0.3467 0.0
C1950 C 0.53096 0.77803 0.33011 0.0
C1951 C 0.54144 0.79642 0.32087 0.0
H1952 H 0.51995 0.7652 0.35382 0.0
H1953 H 0.59162 0.93709 0.25902 0.0
H1954 H 0.14244 0.6295 0.2687 0.0
H1955 H 0.13998 0.66083 0.27677 0.0
H1956 H 0.19838 0.68365 0.30496 0.0
H1957 H 0.20076 0.65254 0.29693 0.0
H1958 H 0.16561 0.68256 0.32232 0.0
H1959 H 0.19906 0.70798 0.27037 0.0
H1960 H 0.20231 0.70732 0.24074 0.0
H1961 H 0.14206 0.70612 0.2349 0.0
H1962 H 0.13838 0.70662 0.26451 0.0
H1963 H 0.19717 0.7868 0.34382 0.0
H1964 H 0.19459 0.75491 0.33227 0.0
H1965 H 0.13859 0.74378 0.30464 0.0
H1966 H 0.14132 0.77616 0.316 0.0
H1967 H 0.16532 0.73679 0.28647 0.0
H1968 H 0.13352 0.71442 0.33864 0.0
H1969 H 0.13138 0.71658 0.36826 0.0
H1970 H 0.18874 0.71225 0.37376 0.0
H1971 H 0.19138 0.71031 0.34416 0.0
C1972 C 0.15484 0.64145 0.27641 0.0
C1973 C 0.17181 0.63887 0.28222 0.0
C1974 C 0.15347 0.65929 0.28099 0.0
C1975 C 0.16902 0.67457 0.29146 0.0
C1976 C 0.1862 0.67205 0.29691 0.0
C1977 C 0.1876 0.65436 0.29229 0.0
C1978 C 0.1669 0.69255 0.29769 0.0
C1979 C 0.1657 0.6945 0.31448 0.0
C1980 C 0.16629 0.70773 0.28744 0.0
C1981 C 0.16829 0.70702 0.26965 0.0
C1982 C 0.18638 0.70732 0.26277 0.0
C1983 C 0.18834 0.70705 0.24598 0.0
C1984 C 0.17235 0.70657 0.23595 0.0
C1985 C 0.15439 0.7064 0.24269 0.0
C1986 C 0.15238 0.70672 0.25947 0.0
C1987 C 0.18412 0.77749 0.33545 0.0
C1988 C 0.16924 0.78387 0.33103 0.0
C1989 C 0.18268 0.75922 0.32883 0.0
C1990 C 0.16615 0.7467 0.31781 0.0
C1991 C 0.15141 0.75314 0.31318 0.0
C1992 C 0.15295 0.77159 0.31973 0.0
C1993 C 0.16454 0.72703 0.31113 0.0
C1994 C 0.16494 0.7247 0.29429 0.0
C1995 C 0.16438 0.71142 0.32133 0.0
C1996 C 0.16268 0.7123 0.33917 0.0
C1997 C 0.14573 0.71401 0.34616 0.0
C1998 C 0.14441 0.71517 0.36295 0.0
C1999 C 0.15989 0.7145 0.37288 0.0
C2000 C 0.17673 0.7127 0.36605 0.0
C2001 C 0.17812 0.71153 0.34927 0.0
H2002 H 0.15887 0.71544 0.38588 0.0
H2003 H 0.17393 0.70643 0.22295 0.0
H2004 H 0.83734 0.05733 0.41208 0.0
H2005 H 0.80552 0.02222 0.40684 0.0
H2006 H 0.84696 0.0004 0.38748 0.0
H2007 H 0.87852 0.03521 0.3928 0.0
H2008 H 0.81415 0.99529 0.36645 0.0
H2009 H 0.82299 0.98182 0.4222 0.0
H2010 H 0.82549 0.98807 0.45163 0.0
H2011 H 0.76192 0.98031 0.45162 0.0
H2012 H 0.75919 0.97437 0.42212 0.0
H2013 H 0.74613 0.88739 0.351 0.0
H2014 H 0.77426 0.9216 0.36101 0.0
H2015 H 0.7265 0.9307 0.38576 0.0
H2016 H 0.69815 0.89599 0.37609 0.0
H2017 H 0.76033 0.94369 0.40449 0.0
H2018 H 0.75072 0.95793 0.34977 0.0
H2019 H 0.74749 0.95334 0.32016 0.0
H2020 H 0.81096 0.96103 0.31805 0.0
H2021 H 0.81457 0.96566 0.34766 0.0
C2022 C 0.83955 0.04479 0.4071 0.0
C2023 C 0.8602 0.0487 0.40291 0.0
C2024 C 0.82145 0.02482 0.4041 0.0
C2025 C 0.8239 0.00871 0.39676 0.0
C2026 C 0.84471 0.01257 0.39315 0.0
C2027 C 0.8627 0.03238 0.39625 0.0
C2028 C 0.8049 0.98852 0.39139 0.0
C2029 C 0.8025 0.98389 0.37479 0.0
C2030 C 0.78924 0.97409 0.40221 0.0
C2031 C 0.79101 0.97794 0.41991 0.0
C2032 C 0.80965 0.98171 0.42843 0.0
C2033 C 0.81109 0.98514 0.44513 0.0
C2034 C 0.79391 0.98467 0.45348 0.0
C2035 C 0.77524 0.98073 0.44513 0.0
C2036 C 0.77374 0.97733 0.42842 0.0
C2037 C 0.74152 0.89668 0.35848 0.0
C2038 C 0.71982 0.88903 0.36258 0.0
C2039 C 0.75767 0.91633 0.36418 0.0
C2040 C 0.75252 0.92902 0.37389 0.0
C2041 C 0.73089 0.92128 0.37823 0.0
C2042 C 0.71469 0.90145 0.37266 0.0
C2043 C 0.76983 0.95023 0.37953 0.0
C2044 C 0.77188 0.95512 0.39613 0.0
C2045 C 0.78508 0.96515 0.3687 0.0
C2046 C 0.78285 0.96202 0.35093 0.0
C2047 C 0.76393 0.95852 0.34299 0.0
C2048 C 0.76208 0.95602 0.32621 0.0
C2049 C 0.77904 0.95695 0.31723 0.0
C2050 C 0.79788 0.96038 0.32502 0.0
C2051 C 0.79986 0.96301 0.34179 0.0
H2052 H 0.77754 0.95494 0.30424 0.0
H2053 H 0.79503 0.98728 0.46641 0.0
H2054 H 0.97598 0.83677 0.3902 0.0
H2055 H 0.01105 0.8404 0.38359 0.0
H2056 H 0.98785 0.776 0.39854 0.0
H2057 H 0.95265 0.77243 0.40521 0.0
H2058 H 0.02931 0.80247 0.40893 0.0
H2059 H 0.99025 0.78848 0.35885 0.0
H2060 H 0.96979 0.79427 0.33741 0.0
H2061 H 0.02372 0.85625 0.32886 0.0
H2062 H 0.0444 0.85096 0.35044 0.0
H2063 H 0.10765 0.78543 0.36845 0.0
H2064 H 0.0737 0.7833 0.3767 0.0
H2065 H 0.10011 0.84941 0.36571 0.0
H2066 H 0.13438 0.85182 0.35814 0.0
H2067 H 0.05751 0.82272 0.35325 0.0
H2068 H 0.09652 0.8379 0.40261 0.0
H2069 H 0.1168 0.83485 0.42554 0.0
H2070 H 0.06389 0.77298 0.43605 0.0
H2071 H 0.04338 0.77549 0.41298 0.0
C2072 C 0.97853 0.82352 0.39232 0.0
C2073 C 0.96178 0.8044 0.39835 0.0
C2074 C 0.9985 0.82553 0.38839 0.0
C2075 C 1.00209 0.80838 0.39031 0.0
C2076 C 0.98551 0.78945 0.3969 0.0
C2077 C 0.96545 0.78742 0.40077 0.0
C2078 C 0.02297 0.81015 0.38522 0.0
C2079 C 0.03528 0.80653 0.39667 0.0
C2080 C 0.03122 0.81618 0.36935 0.0
C2081 C 0.01878 0.81942 0.35641 0.0
C2082 C 0.99767 0.80343 0.35252 0.0
C2083 C 0.98605 0.80661 0.34031 0.0
C2084 C 0.99542 0.82565 0.33181 0.0
C2085 C 0.01646 0.84153 0.33548 0.0
C2086 C 0.02814 0.83845 0.34769 0.0
C2087 C 0.10614 0.79947 0.36771 0.0
C2088 C 0.12347 0.81863 0.36218 0.0
C2089 C 0.08679 0.79826 0.37248 0.0
C2090 C 0.08431 0.81618 0.37181 0.0
C2091 C 0.10157 0.83534 0.36625 0.0
C2092 C 0.1211 0.83665 0.36177 0.0
C2093 C 0.06369 0.81484 0.37694 0.0
C2094 C 0.05147 0.81854 0.36548 0.0
C2095 C 0.05559 0.80905 0.39282 0.0
C2096 C 0.06848 0.8068 0.40594 0.0
C2097 C 0.08934 0.82347 0.4096 0.0
C2098 C 0.10085 0.82188 0.42269 0.0
C2099 C 0.0916 0.80376 0.43228 0.0
C2100 C 0.071 0.78703 0.42863 0.0
C2101 C 0.05944 0.78851 0.41554 0.0
H2102 H 0.10028 0.80275 0.44263 0.0
H2103 H 0.9864 0.82807 0.32236 0.0
H2104 H 0.16019 0.13507 0.4017 0.0
H2105 H 0.15765 0.16696 0.39725 0.0
H2106 H 0.2249 0.20591 0.40987 0.0
H2107 H 0.22747 0.17381 0.41426 0.0
H2108 H 0.19483 0.22131 0.42106 0.0
H2109 H 0.21729 0.19888 0.37343 0.0
H2110 H 0.21449 0.17261 0.35328 0.0
H2111 H 0.15094 0.15973 0.34007 0.0
H2112 H 0.15326 0.1857 0.36034 0.0
H2113 H 0.20765 0.31331 0.37968 0.0
H2114 H 0.21234 0.28486 0.39095 0.0
H2115 H 0.15337 0.23853 0.36747 0.0
H2116 H 0.14922 0.26678 0.35559 0.0
H2117 H 0.18184 0.2281 0.36303 0.0
H2118 H 0.15995 0.25248 0.40969 0.0
H2119 H 0.16282 0.27863 0.43009 0.0
H2120 H 0.22396 0.28755 0.44586 0.0
H2121 H 0.22191 0.26206 0.42529 0.0
C2122 C 0.17424 0.15045 0.40395 0.0
C2123 C 0.19398 0.15219 0.40834 0.0
C2124 C 0.17279 0.16861 0.40141 0.0
C2125 C 0.19111 0.18875 0.40317 0.0
C2126 C 0.21058 0.1905 0.40856 0.0
C2127 C 0.21205 0.17224 0.41102 0.0
C2128 C 0.1904 0.20758 0.39733 0.0
C2129 C 0.19224 0.22305 0.40837 0.0
C2130 C 0.18671 0.20955 0.38081 0.0
C2131 C 0.18537 0.19407 0.36851 0.0
C2132 C 0.20265 0.19031 0.36633 0.0
C2133 C 0.20116 0.1755 0.35486 0.0
C2134 C 0.18252 0.16446 0.34543 0.0
C2135 C 0.16536 0.16826 0.3474 0.0
C2136 C 0.16676 0.18304 0.35887 0.0
C2137 C 0.19573 0.29704 0.37691 0.0
C2138 C 0.17812 0.29229 0.36668 0.0
C2139 C 0.19832 0.28078 0.38348 0.0
C2140 C 0.18304 0.25948 0.38029 0.0
C2141 C 0.16541 0.2548 0.37013 0.0
C2142 C 0.16306 0.271 0.36331 0.0
C2143 C 0.18574 0.24193 0.38677 0.0
C2144 C 0.18439 0.22659 0.37577 0.0
C2145 C 0.18977 0.24018 0.40336 0.0
C2146 C 0.19088 0.25549 0.41578 0.0
C2147 C 0.17412 0.26018 0.41738 0.0
C2148 C 0.1756 0.27489 0.42897 0.0
C2149 C 0.19353 0.28472 0.43922 0.0
C2150 C 0.21008 0.27994 0.43789 0.0
C2151 C 0.2088 0.2654 0.42625 0.0
H2152 H 0.19457 0.296 0.44821 0.0
H2153 H 0.1814 0.15301 0.33655 0.0
H2154 H 0.6441 0.47782 0.73437 0.0
H2155 H 0.67578 0.5082 0.72304 0.0
H2156 H 0.65197 0.54921 0.73872 0.0
H2157 H 0.61962 0.51865 0.74944 0.0
H2158 H 0.66687 0.55906 0.70911 0.0
H2159 H 0.69387 0.54752 0.75856 0.0
H2160 H 0.701 0.52732 0.77909 0.0
H2161 H 0.73756 0.51414 0.74463 0.0
H2162 H 0.73038 0.53402 0.72382 0.0
H2163 H 0.76567 0.65629 0.70018 0.0
H2164 H 0.73167 0.62529 0.70775 0.0
H2165 H 0.75729 0.58484 0.6946 0.0
H2166 H 0.79178 0.61599 0.68811 0.0
H2167 H 0.74094 0.57457 0.72266 0.0
H2168 H 0.711 0.5845 0.67268 0.0
H2169 H 0.70288 0.60468 0.65261 0.0
H2170 H 0.67232 0.62206 0.68935 0.0
H2171 H 0.68008 0.60187 0.70952 0.0
C2172 C 0.64545 0.49325 0.73531 0.0
C2173 C 0.62919 0.49571 0.7428 0.0
C2174 C 0.66376 0.51069 0.72897 0.0
C2175 C 0.66646 0.53109 0.73018 0.0
C2176 C 0.65031 0.53365 0.73768 0.0
C2177 C 0.6319 0.51617 0.74395 0.0
C2178 C 0.68591 0.54964 0.72331 0.0
C2179 C 0.68309 0.56259 0.71222 0.0
C2180 C 0.70709 0.5541 0.7271 0.0
C2181 C 0.71139 0.54208 0.73958 0.0
C2182 C 0.70327 0.54016 0.75532 0.0
C2183 C 0.70735 0.5288 0.76701 0.0
C2184 C 0.71967 0.5194 0.76315 0.0
C2185 C 0.72799 0.5214 0.7476 0.0
C2186 C 0.72393 0.53272 0.73585 0.0
C2187 C 0.76383 0.64072 0.69855 0.0
C2188 C 0.78127 0.63859 0.69322 0.0
C2189 C 0.74429 0.62293 0.70276 0.0
C2190 C 0.74161 0.60253 0.70155 0.0
C2191 C 0.75881 0.60034 0.6956 0.0
C2192 C 0.77852 0.6182 0.69167 0.0
C2193 C 0.72196 0.58385 0.70819 0.0
C2194 C 0.72475 0.57095 0.71939 0.0
C2195 C 0.70076 0.57955 0.7046 0.0
C2196 C 0.69637 0.59194 0.69258 0.0
C2197 C 0.70274 0.59282 0.67645 0.0
C2198 C 0.69812 0.60416 0.66507 0.0
C2199 C 0.68726 0.61477 0.66973 0.0
C2200 C 0.6808 0.6139 0.68576 0.0
C2201 C 0.68521 0.60243 0.69714 0.0
H2202 H 0.68376 0.62359 0.66091 0.0
H2203 H 0.72283 0.51062 0.77223 0.0
H2204 H 0.53909 0.16424 0.73134 0.0
H2205 H 0.509 0.16742 0.72037 0.0
H2206 H 0.46387 0.10726 0.7412 0.0
H2207 H 0.49387 0.10382 0.75197 0.0
H2208 H 0.45327 0.10995 0.71018 0.0
H2209 H 0.47192 0.1534 0.75788 0.0
H2210 H 0.4961 0.18217 0.77641 0.0
H2211 H 0.50968 0.22785 0.73909 0.0
H2212 H 0.48581 0.19929 0.72025 0.0
H2213 H 0.35681 0.11358 0.70006 0.0
H2214 H 0.38796 0.11084 0.70852 0.0
H2215 H 0.43009 0.17608 0.69538 0.0
H2216 H 0.39866 0.17925 0.6883 0.0
H2217 H 0.44324 0.17121 0.72189 0.0
H2218 H 0.42934 0.12859 0.67338 0.0
H2219 H 0.40753 0.10019 0.65364 0.0
H2220 H 0.38663 0.05404 0.69145 0.0
H2221 H 0.40852 0.08216 0.71128 0.0
C2222 C 0.52276 0.15165 0.73355 0.0
C2223 C 0.51895 0.13377 0.74258 0.0
C2224 C 0.50554 0.15358 0.72738 0.0
C2225 C 0.48409 0.13767 0.73005 0.0
C2226 C 0.48024 0.11979 0.739 0.0
C2227 C 0.49744 0.11791 0.74527 0.0
C2228 C 0.46566 0.13939 0.72319 0.0
C2229 C 0.45095 0.12325 0.71289 0.0
C2230 C 0.46288 0.15699 0.7263 0.0
C2231 C 0.47725 0.17418 0.7376 0.0
C2232 C 0.48021 0.16955 0.75358 0.0
C2233 C 0.49383 0.18583 0.76414 0.0
C2234 C 0.50447 0.20682 0.75891 0.0
C2235 C 0.50146 0.21158 0.74311 0.0
C2236 C 0.48787 0.19535 0.73249 0.0
C2237 C 0.37277 0.12724 0.6987 0.0
C2238 C 0.37521 0.14646 0.69304 0.0
C2239 C 0.39071 0.12561 0.7034 0.0
C2240 C 0.41173 0.14307 0.70229 0.0
C2241 C 0.4142 0.16224 0.69633 0.0
C2242 C 0.39615 0.164 0.692 0.0
C2243 C 0.43078 0.14182 0.70865 0.0
C2244 C 0.44559 0.15799 0.71899 0.0
C2245 C 0.4338 0.12433 0.70548 0.0
C2246 C 0.4202 0.10747 0.69376 0.0
C2247 C 0.41985 0.1124 0.67744 0.0
C2248 C 0.4076 0.09636 0.66625 0.0
C2249 C 0.39554 0.07536 0.67131 0.0
C2250 C 0.39589 0.07032 0.68755 0.0
C2251 C 0.4083 0.08628 0.69874 0.0
H2252 H 0.38602 0.06297 0.66265 0.0
H2253 H 0.515 0.2194 0.76712 0.0
H2254 H 0.90377 0.39223 0.7584 0.0
H2255 H 0.90061 0.35941 0.74827 0.0
H2256 H 0.83886 0.34224 0.72688 0.0
H2257 H 0.8409 0.37397 0.73828 0.0
H2258 H 0.83635 0.30893 0.73797 0.0
H2259 H 0.88859 0.36482 0.70487 0.0
H2260 H 0.92162 0.39856 0.69898 0.0
H2261 H 0.96029 0.37502 0.72027 0.0
H2262 H 0.92746 0.34122 0.72647 0.0
H2263 H 0.83147 0.2354 0.68001 0.0
H2264 H 0.83681 0.26852 0.69157 0.0
H2265 H 0.88864 0.27332 0.72139 0.0
H2266 H 0.88356 0.24019 0.70983 0.0
H2267 H 0.89689 0.31223 0.70653 0.0
H2268 H 0.84199 0.25475 0.73805 0.0
H2269 H 0.8081 0.22066 0.74039 0.0
H2270 H 0.77316 0.24784 0.71837 0.0
H2271 H 0.80692 0.28199 0.71565 0.0
C2272 C 0.88927 0.3813 0.75186 0.0
C2273 C 0.87268 0.38598 0.74906 0.0
C2274 C 0.88766 0.36264 0.74581 0.0
C2275 C 0.86975 0.34855 0.73643 0.0
C2276 C 0.85294 0.35291 0.73397 0.0
C2277 C 0.85429 0.37129 0.74032 0.0
C2278 C 0.86852 0.32938 0.72902 0.0
C2279 C 0.84955 0.30978 0.73097 0.0
C2280 C 0.88579 0.33028 0.72001 0.0
C2281 C 0.90556 0.35058 0.71628 0.0
C2282 C 0.90413 0.3669 0.7084 0.0
C2283 C 0.92282 0.38602 0.70499 0.0
C2284 C 0.94303 0.38895 0.70929 0.0
C2285 C 0.94461 0.37274 0.71697 0.0
C2286 C 0.92598 0.35359 0.72042 0.0
C2287 C 0.84421 0.24359 0.68887 0.0
C2288 C 0.85704 0.2351 0.69406 0.0
C2289 C 0.84716 0.26247 0.69549 0.0
C2290 C 0.86297 0.27317 0.70742 0.0
C2291 C 0.87634 0.26521 0.7122 0.0
C2292 C 0.87334 0.24625 0.70564 0.0
C2293 C 0.86479 0.29213 0.71544 0.0
C2294 C 0.88383 0.31156 0.71361 0.0
C2295 C 0.84745 0.29116 0.72426 0.0
C2296 C 0.827 0.27089 0.72657 0.0
C2297 C 0.82709 0.25343 0.73367 0.0
C2298 C 0.8079 0.23409 0.73505 0.0
C2299 C 0.78848 0.23206 0.7295 0.0
C2300 C 0.7882 0.24941 0.72265 0.0
C2301 C 0.80736 0.26878 0.72121 0.0
H2302 H 0.77366 0.21705 0.73053 0.0
H2303 H 0.95748 0.40377 0.70665 0.0
H2304 H 0.16132 0.96576 0.5926 0.0
H2305 H 0.19141 0.99994 0.60138 0.0
H2306 H 0.18613 0.97598 0.64969 0.0
H2307 H 0.15663 0.9416 0.64096 0.0
H2308 H 0.18937 0.01605 0.64863 0.0
H2309 H 0.22524 0.98024 0.62663 0.0
H2310 H 0.23329 0.96141 0.60541 0.0
H2311 H 0.25488 0.01493 0.57404 0.0
H2312 H 0.24666 0.03397 0.59501 0.0
H2313 H 0.28566 0.09251 0.68546 0.0
H2314 H 0.25654 0.05942 0.67435 0.0
H2315 H 0.27188 0.08573 0.62639 0.0
H2316 H 0.30121 0.11893 0.6376 0.0
H2317 H 0.26284 0.04573 0.62576 0.0
H2318 H 0.22917 0.08262 0.6472 0.0
H2319 H 0.22145 0.10239 0.66782 0.0
H2320 H 0.19512 0.04832 0.69899 0.0
H2321 H 0.20308 0.02834 0.67869 0.0
C2322 C 0.16671 0.96763 0.60505 0.0
C2323 C 0.15644 0.95083 0.61606 0.0
C2324 C 0.18384 0.98724 0.61006 0.0
C2325 C 0.19099 0.99049 0.62619 0.0
C2326 C 0.18075 0.97386 0.63721 0.0
C2327 C 0.16379 0.95422 0.63219 0.0
C2328 C 0.20922 0.01117 0.63164 0.0
C2329 C 0.20549 0.02247 0.64375 0.0
C2330 C 0.23006 0.01983 0.62489 0.0
C2331 C 0.23511 0.00843 0.61232 0.0
C2332 C 0.23152 0.98792 0.61516 0.0
C2333 C 0.23615 0.97722 0.60319 0.0
C2334 C 0.24453 0.98694 0.58837 0.0
C2335 C 0.24836 0.0074 0.58551 0.0
C2336 C 0.24373 0.01816 0.59744 0.0
C2337 C 0.28262 0.09134 0.67262 0.0
C2338 C 0.2953 0.10841 0.66246 0.0
C2339 C 0.26607 0.07237 0.66623 0.0
C2340 C 0.26168 0.07022 0.64955 0.0
C2341 C 0.27488 0.08704 0.6393 0.0
C2342 C 0.29161 0.10597 0.6457 0.0
C2343 C 0.2431 0.05052 0.64295 0.0
C2344 C 0.24671 0.03943 0.63059 0.0
C2345 C 0.22206 0.04218 0.64932 0.0
C2346 C 0.21684 0.054 0.66145 0.0
C2347 C 0.22184 0.07497 0.65849 0.0
C2348 C 0.21742 0.08622 0.67012 0.0
C2349 C 0.20777 0.07659 0.68469 0.0
C2350 C 0.20256 0.05573 0.68768 0.0
C2351 C 0.20702 0.04443 0.67611 0.0
H2352 H 0.20429 0.08529 0.69366 0.0
H2353 H 0.2481 0.97863 0.57912 0.0
H2354 H 0.04071 0.17035 0.62843 0.0
H2355 H 0.00807 0.16821 0.63955 0.0
H2356 H 0.02843 0.23118 0.62245 0.0
H2357 H 0.06142 0.23363 0.61163 0.0
H2358 H 0.0142 0.22657 0.65295 0.0
H2359 H 0.98783 0.18705 0.60354 0.0
H2360 H 0.98149 0.15927 0.58361 0.0
H2361 H 0.94618 0.11132 0.61889 0.0
H2362 H 0.95257 0.13884 0.63911 0.0
H2363 H 0.91655 0.22805 0.66126 0.0
H2364 H 0.95006 0.22929 0.65387 0.0
H2365 H 0.92214 0.1632 0.66584 0.0
H2366 H 0.88796 0.16166 0.67209 0.0
H2367 H 0.94068 0.16855 0.63907 0.0
H2368 H 0.96899 0.20772 0.68895 0.0
H2369 H 0.9767 0.23545 0.70944 0.0
H2370 H 0.00847 0.28352 0.67359 0.0
H2371 H 1.00112 0.25611 0.653 0.0
C2372 C 0.03832 0.1838 0.62707 0.0
C2373 C 0.05379 0.20218 0.61911 0.0
C2374 C 0.01949 0.18247 0.63332 0.0
C2375 C 0.01559 0.19946 0.63176 0.0
C2376 C 0.03098 0.21782 0.6238 0.0
C2377 C 0.04979 0.21914 0.61749 0.0
C2378 C 0.99576 0.1983 0.63873 0.0
C2379 C 0.99811 0.21399 0.64977 0.0
C2380 C 0.97471 0.18159 0.63501 0.0
C2381 C 0.97088 0.16502 0.62289 0.0
C2382 C 0.97888 0.17059 0.60709 0.0
C2383 C 0.97524 0.15489 0.59573 0.0
C2384 C 0.9635 0.13355 0.6 0.0
C2385 C 0.95531 0.12786 0.61562 0.0
C2386 C 0.95892 0.14351 0.62703 0.0
C2387 C 0.91772 0.21388 0.66267 0.0
C2388 C 0.89971 0.1949 0.66767 0.0
C2389 C 0.93705 0.21464 0.65855 0.0
C2390 C 0.93909 0.19647 0.65955 0.0
C2391 C 0.92122 0.17754 0.66501 0.0
C2392 C 0.90168 0.1767 0.66884 0.0
C2393 C 0.95902 0.19682 0.65342 0.0
C2394 C 0.95673 0.18102 0.64244 0.0
C2395 C 0.98016 0.21339 0.65723 0.0
C2396 C 0.98425 0.22988 0.66946 0.0
C2397 C 0.97742 0.2242 0.68546 0.0
C2398 C 0.98181 0.23985 0.69708 0.0
C2399 C 0.9929 0.2612 0.69279 0.0
C2400 C 0.99981 0.26697 0.67689 0.0
C2401 C 0.99563 0.2514 0.66527 0.0
H2402 H 0.99622 0.27327 0.70179 0.0
H2403 H 0.96069 0.12142 0.59119 0.0
H2404 H 0.83088 0.87114 0.62797 0.0
H2405 H 0.8354 0.84267 0.63891 0.0
H2406 H 0.77298 0.79661 0.61995 0.0
H2407 H 0.76771 0.82517 0.60981 0.0
H2408 H 0.77772 0.78577 0.64917 0.0
H2409 H 0.82082 0.80662 0.60152 0.0
H2410 H 0.84843 0.83128 0.5826 0.0
H2411 H 0.89731 0.84876 0.61912 0.0
H2412 H 0.86994 0.8244 0.63834 0.0
H2413 H 0.79588 0.69805 0.65418 0.0
H2414 H 0.78974 0.72618 0.64438 0.0
H2415 H 0.846 0.7725 0.67052 0.0
H2416 H 0.85227 0.74445 0.68047 0.0
H2417 H 0.84403 0.78257 0.63756 0.0
H2418 H 0.79952 0.76035 0.68499 0.0
H2419 H 0.77133 0.73419 0.70279 0.0
H2420 H 0.72419 0.71753 0.665 0.0
H2421 H 0.7522 0.74337 0.64687 0.0
C2422 C 0.81795 0.85499 0.62628 0.0
C2423 C 0.79889 0.85049 0.61802 0.0
C2424 C 0.8207 0.83868 0.63237 0.0
C2425 C 0.80469 0.81747 0.63003 0.0
C2426 C 0.78561 0.81287 0.62183 0.0
C2427 C 0.78272 0.82921 0.61589 0.0
C2428 C 0.80786 0.80016 0.6363 0.0
C2429 C 0.79208 0.78491 0.64643 0.0
C2430 C 0.82676 0.79921 0.63296 0.0
C2431 C 0.84329 0.81382 0.62141 0.0
C2432 C 0.83743 0.81583 0.60555 0.0
C2433 C 0.85304 0.82974 0.59477 0.0
C2434 C 0.8746 0.84161 0.59967 0.0
C2435 C 0.8806 0.83956 0.61535 0.0
C2436 C 0.86505 0.8257 0.62619 0.0
C2437 C 0.8069 0.71419 0.65793 0.0
C2438 C 0.82453 0.71901 0.66815 0.0
C2439 C 0.80332 0.73022 0.65235 0.0
C2440 C 0.81737 0.75135 0.6568 0.0
C2441 C 0.83498 0.75625 0.66699 0.0
C2442 C 0.83845 0.7402 0.67273 0.0
C2443 C 0.81398 0.76838 0.65042 0.0
C2444 C 0.8297 0.7835 0.64026 0.0
C2445 C 0.79492 0.76904 0.65356 0.0
C2446 C 0.77801 0.75367 0.66451 0.0
C2447 C 0.78318 0.75099 0.68042 0.0
C2448 C 0.76723 0.73624 0.69058 0.0
C2449 C 0.74599 0.72416 0.68501 0.0
C2450 C 0.74066 0.72687 0.66929 0.0
C2451 C 0.75656 0.74159 0.65907 0.0
H2452 H 0.73366 0.71274 0.6929 0.0
H2453 H 0.88666 0.85237 0.5913 0.0
H2454 H 0.03094 0.86735 0.63348 0.0
H2455 H 0.9967 0.83611 0.64089 0.0
H2456 H 0.02389 0.79615 0.6309 0.0
H2457 H 0.05827 0.82756 0.62347 0.0
H2458 H 0.98098 0.77859 0.62017 0.0
H2459 H 0.02245 0.8103 0.66862 0.0
H2460 H 0.04318 0.83936 0.688 0.0
H2461 H 0.98791 0.84671 0.69542 0.0
H2462 H 0.96694 0.81789 0.67589 0.0
H2463 H 0.90762 0.6879 0.66309 0.0
H2464 H 0.94138 0.71957 0.65562 0.0
H2465 H 0.91287 0.75832 0.66574 0.0
H2466 H 0.87899 0.72666 0.6729 0.0
H2467 H 0.95594 0.77668 0.67635 0.0
H2468 H 0.91427 0.74592 0.62857 0.0
H2469 H 0.89251 0.71707 0.60931 0.0
H2470 H 0.94677 0.70856 0.60032 0.0
H2471 H 0.96878 0.73714 0.61976 0.0
C2472 C 0.02939 0.85182 0.63255 0.0
C2473 C 0.047 0.84968 0.62782 0.0
C2474 C 0.00992 0.83403 0.63688 0.0
C2475 C 0.00782 0.81382 0.63666 0.0
C2476 C 0.02517 0.81159 0.63118 0.0
C2477 C 0.04473 0.82946 0.6269 0.0
C2478 C 0.98792 0.79525 0.6429 0.0
C2479 C 0.97567 0.77806 0.6325 0.0
C2480 C 0.98063 0.7948 0.65888 0.0
C2481 C 0.99321 0.8121 0.67065 0.0
C2482 C 0.01478 0.81824 0.67427 0.0
C2483 C 0.02656 0.83464 0.6853 0.0
C2484 C 0.01689 0.84492 0.6929 0.0
C2485 C 0.99539 0.83877 0.68951 0.0
C2486 C 0.98355 0.82239 0.67846 0.0
C2487 C 0.90872 0.70324 0.66399 0.0
C2488 C 0.89081 0.70484 0.66884 0.0
C2489 C 0.92794 0.72128 0.65967 0.0
C2490 C 0.92955 0.74126 0.65997 0.0
C2491 C 0.91197 0.74305 0.66545 0.0
C2492 C 0.89264 0.72494 0.66965 0.0
C2493 C 0.94914 0.76002 0.65365 0.0
C2494 C 0.96128 0.77724 0.66402 0.0
C2495 C 0.9562 0.76059 0.6376 0.0
C2496 C 0.94312 0.74354 0.62575 0.0
C2497 C 0.92152 0.73778 0.62259 0.0
C2498 C 0.90915 0.7215 0.61162 0.0
C2499 C 0.91824 0.71095 0.60362 0.0
C2500 C 0.93975 0.71672 0.60654 0.0
C2501 C 0.95218 0.73298 0.61753 0.0
H2502 H 0.90863 0.69835 0.59513 0.0
H2503 H 0.02603 0.85761 0.70144 0.0
H2504 H 0.14622 0.18128 0.65363 0.0
H2505 H 0.17925 0.18051 0.65995 0.0
H2506 H 0.20302 0.20283 0.612 0.0
H2507 H 0.16952 0.2033 0.6056 0.0
H2508 H 0.21133 0.17158 0.62095 0.0
H2509 H 0.22203 0.23637 0.64441 0.0
H2510 H 0.21297 0.2589 0.66111 0.0
H2511 H 0.21156 0.22447 0.7035 0.0
H2512 H 0.22032 0.20153 0.68702 0.0
H2513 H 0.32483 0.22072 0.66045 0.0
H2514 H 0.29242 0.22225 0.65303 0.0
H2515 H 0.25398 0.15443 0.65771 0.0
H2516 H 0.28642 0.15289 0.6651 0.0
H2517 H 0.25458 0.21028 0.66927 0.0
H2518 H 0.21561 0.13702 0.62746 0.0
H2519 H 0.22696 0.11656 0.61033 0.0
H2520 H 0.28853 0.17227 0.603 0.0
H2521 H 0.27745 0.19308 0.6199 0.0
C2522 C 0.15854 0.18606 0.64445 0.0
C2523 C 0.1555 0.1925 0.6292 0.0
C2524 C 0.17743 0.18566 0.64808 0.0
C2525 C 0.19384 0.19187 0.63655 0.0
C2526 C 0.19065 0.19802 0.62113 0.0
C2527 C 0.17161 0.19839 0.61748 0.0
C2528 C 0.21428 0.19209 0.64081 0.0
C2529 C 0.22076 0.18008 0.6315 0.0
C2530 C 0.22686 0.2033 0.65451 0.0
C2531 C 0.22163 0.21711 0.66445 0.0
C2532 C 0.21962 0.2335 0.65728 0.0
C2533 C 0.21457 0.24636 0.6667 0.0
C2534 C 0.21164 0.24308 0.68335 0.0
C2535 C 0.21381 0.22697 0.6906 0.0
C2536 C 0.21884 0.21404 0.68123 0.0
C2537 C 0.3094 0.20618 0.66003 0.0
C2538 C 0.30806 0.18677 0.6637 0.0
C2539 C 0.29091 0.20706 0.65583 0.0
C2540 C 0.27075 0.18847 0.65477 0.0
C2541 C 0.26936 0.16899 0.65837 0.0
C2542 C 0.28787 0.16813 0.66273 0.0
C2543 C 0.25135 0.18954 0.64958 0.0
C2544 C 0.24508 0.20177 0.65874 0.0
C2545 C 0.2392 0.17879 0.63565 0.0
C2546 C 0.24574 0.16654 0.62505 0.0
C2547 C 0.23151 0.14491 0.62211 0.0
C2548 C 0.23791 0.13325 0.61246 0.0
C2549 C 0.25847 0.1431 0.6056 0.0
C2550 C 0.27263 0.16464 0.60833 0.0
C2551 C 0.26631 0.17637 0.61796 0.0
H2552 H 0.26341 0.13405 0.59816 0.0
H2553 H 0.20773 0.25306 0.69063 0.0
H2554 H 0.84612 0.97689 0.62769 0.0
H2555 H 0.84906 0.01142 0.6324 0.0
H2556 H 0.78244 0.98562 0.6183 0.0
H2557 H 0.77943 0.9508 0.61374 0.0
H2558 H 0.81665 0.03229 0.60822 0.0
H2559 H 0.78543 0.98416 0.65372 0.0
H2560 H 0.78456 0.95831 0.67328 0.0
H2561 H 0.84773 0.00408 0.69045 0.0
H2562 H 0.8491 0.0301 0.6708 0.0
H2563 H 0.80368 0.11145 0.64945 0.0
H2564 H 0.79805 0.07802 0.63816 0.0
H2565 H 0.85348 0.08545 0.66471 0.0
H2566 H 0.85887 0.1185 0.67632 0.0
H2567 H 0.82222 0.04687 0.66722 0.0
H2568 H 0.85458 0.09539 0.62343 0.0
H2569 H 0.85812 0.12218 0.60368 0.0
H2570 H 0.79674 0.07787 0.58287 0.0
H2571 H 0.79264 0.0509 0.60267 0.0
C2572 C 0.83233 0.97881 0.62513 0.0
C2573 C 0.8126 0.96147 0.62033 0.0
C2574 C 0.83401 0.99847 0.62781 0.0
C2575 C 0.81596 0.00097 0.62571 0.0
C2576 C 0.79657 0.98396 0.61984 0.0
C2577 C 0.79484 0.96417 0.61727 0.0
C2578 C 0.8167 0.02033 0.63194 0.0
C2579 C 0.81751 0.03544 0.62111 0.0
C2580 C 0.81837 0.0245 0.64873 0.0
C2581 C 0.81745 0.00898 0.66069 0.0
C2582 C 0.79921 0.98864 0.66157 0.0
C2583 C 0.79861 0.97398 0.67269 0.0
C2584 C 0.8161 0.97953 0.68308 0.0
C2585 C 0.8342 0.99979 0.68239 0.0
C2586 C 0.83489 0.0145 0.67127 0.0
C2587 C 0.81464 0.10593 0.6529 0.0
C2588 C 0.83169 0.11759 0.66381 0.0
C2589 C 0.81148 0.08689 0.64636 0.0
C2590 C 0.82552 0.07937 0.65041 0.0
C2591 C 0.84243 0.09093 0.6614 0.0
C2592 C 0.84547 0.10982 0.66807 0.0
C2593 C 0.82242 0.05922 0.64355 0.0
C2594 C 0.82117 0.04384 0.65431 0.0
C2595 C 0.82068 0.05504 0.62669 0.0
C2596 C 0.8232 0.07118 0.61466 0.0
C2597 C 0.84175 0.0914 0.61472 0.0
C2598 C 0.84387 0.10662 0.60351 0.0
C2599 C 0.82764 0.10174 0.59205 0.0
C2600 C 0.80928 0.08163 0.59177 0.0
C2601 C 0.80705 0.06637 0.60298 0.0
H2602 H 0.82932 0.11352 0.58337 0.0
H2603 H 0.81561 0.96816 0.69168 0.0
H2604 H 0.51262 0.39029 0.74953 0.0
H2605 H 0.47977 0.35635 0.74321 0.0
H2606 H 0.51833 0.33565 0.71741 0.0
H2607 H 0.55088 0.36927 0.72376 0.0
H2608 H 0.4842 0.33207 0.69939 0.0
H2609 H 0.49725 0.31426 0.75279 0.0
H2610 H 0.50253 0.31868 0.78231 0.0
H2611 H 0.44004 0.31274 0.78745 0.0
H2612 H 0.43452 0.30857 0.75792 0.0
H2613 H 0.4165 0.22444 0.68266 0.0
H2614 H 0.44491 0.25833 0.69295 0.0
H2615 H 0.39793 0.26657 0.71966 0.0
H2616 H 0.36922 0.23235 0.70948 0.0
H2617 H 0.43347 0.2782 0.73774 0.0
H2618 H 0.41928 0.29414 0.68483 0.0
H2619 H 0.41379 0.29037 0.65531 0.0
H2620 H 0.47786 0.30061 0.64916 0.0
H2621 H 0.48366 0.30422 0.67867 0.0
C2622 C 0.51397 0.37824 0.74279 0.0
C2623 C 0.53409 0.38212 0.73717 0.0
C2624 C 0.49529 0.35893 0.73918 0.0
C2625 C 0.49663 0.34348 0.72982 0.0
C2626 C 0.51692 0.34733 0.72462 0.0
C2627 C 0.53547 0.36646 0.7283 0.0
C2628 C 0.47698 0.32383 0.72445 0.0
C2629 C 0.47321 0.3202 0.70778 0.0
C2630 C 0.46222 0.30872 0.7354 0.0
C2631 C 0.46559 0.31139 0.75313 0.0
C2632 C 0.48473 0.31413 0.7602 0.0
C2633 C 0.48775 0.31653 0.77693 0.0
C2634 C 0.47166 0.31607 0.78675 0.0
C2635 C 0.45251 0.31315 0.77984 0.0
C2636 C 0.44943 0.31075 0.7631 0.0
C2637 C 0.41209 0.23347 0.6906 0.0
C2638 C 0.39048 0.22577 0.69504 0.0
C2639 C 0.42841 0.25291 0.6965 0.0
C2640 C 0.42354 0.26522 0.70686 0.0
C2641 C 0.40206 0.2574 0.71161 0.0
C2642 C 0.38566 0.23786 0.70574 0.0
C2643 C 0.44102 0.28621 0.71265 0.0
C2644 C 0.44434 0.29015 0.72935 0.0
C2645 C 0.45536 0.30174 0.70174 0.0
C2646 C 0.45186 0.29935 0.68398 0.0
C2647 C 0.43215 0.29545 0.6772 0.0
C2648 C 0.42901 0.29341 0.66046 0.0
C2649 C 0.4455 0.29534 0.65037 0.0
C2650 C 0.46513 0.29921 0.65699 0.0
C2651 C 0.46837 0.30128 0.67372 0.0
H2652 H 0.44304 0.29375 0.63741 0.0
H2653 H 0.47402 0.31791 0.7997 0.0
H2654 H 0.61851 0.10862 0.73064 0.0
H2655 H 0.65427 0.11352 0.72453 0.0
H2656 H 0.68315 0.18015 0.73549 0.0
H2657 H 0.64732 0.1752 0.74141 0.0
H2658 H 0.69664 0.17488 0.70725 0.0
H2659 H 0.69206 0.14644 0.75967 0.0
H2660 H 0.67574 0.12111 0.782 0.0
H2661 H 0.6748 0.07196 0.75267 0.0
H2662 H 0.69083 0.09692 0.73006 0.0
H2663 H 0.80393 0.19222 0.69382 0.0
H2664 H 0.77112 0.19108 0.70341 0.0
H2665 H 0.73698 0.12288 0.69976 0.0
H2666 H 0.77026 0.12408 0.69128 0.0
H2667 H 0.72805 0.13189 0.7268 0.0
H2668 H 0.71582 0.158 0.67278 0.0
H2669 H 0.72633 0.18272 0.64992 0.0
H2670 H 0.75895 0.23552 0.68254 0.0
H2671 H 0.74724 0.21098 0.70568 0.0
C2672 C 0.6326 0.12417 0.73218 0.0
C2673 C 0.6303 0.14149 0.73671 0.0
C2674 C 0.65305 0.12699 0.72868 0.0
C2675 C 0.67157 0.14722 0.72962 0.0
C2676 C 0.66922 0.16439 0.73469 0.0
C2677 C 0.64877 0.16154 0.7382 0.0
C2678 C 0.69297 0.15075 0.72396 0.0
C2679 C 0.70365 0.16569 0.71176 0.0
C2680 C 0.7021 0.1386 0.72954 0.0
C2681 C 0.69248 0.12353 0.74311 0.0
C2682 C 0.68821 0.13019 0.75793 0.0
C2683 C 0.67904 0.1159 0.77065 0.0
C2684 C 0.67419 0.09493 0.76874 0.0
C2685 C 0.67855 0.08821 0.75412 0.0
C2686 C 0.6877 0.10243 0.74135 0.0
C2687 C 0.78925 0.17705 0.69458 0.0
C2688 C 0.78957 0.15823 0.69152 0.0
C2689 C 0.77033 0.17638 0.70003 0.0
C2690 C 0.75116 0.15688 0.70218 0.0
C2691 C 0.75139 0.13817 0.69834 0.0
C2692 C 0.77039 0.13883 0.69333 0.0
C2693 C 0.73142 0.15559 0.70967 0.0
C2694 C 0.72108 0.14114 0.72233 0.0
C2695 C 0.72255 0.16817 0.70457 0.0
C2696 C 0.73122 0.18275 0.69081 0.0
C2697 C 0.72545 0.17488 0.675 0.0
C2698 C 0.73138 0.18885 0.66204 0.0
C2699 C 0.74363 0.2107 0.66472 0.0
C2700 C 0.74961 0.21861 0.68044 0.0
C2701 C 0.74312 0.2047 0.6935 0.0
H2702 H 0.74835 0.22149 0.65463 0.0
H2703 H 0.66709 0.08389 0.77861 0.0
H2704 H 0.82508 0.46557 0.73304 0.0
H2705 H 0.8236 0.49752 0.72639 0.0
H2706 H 0.88865 0.53631 0.74421 0.0
H2707 H 0.89021 0.50411 0.75076 0.0
H2708 H 0.85611 0.55066 0.75167 0.0
H2709 H 0.88702 0.53062 0.70783 0.0
H2710 H 0.88805 0.50531 0.68852 0.0
H2711 H 0.82693 0.49197 0.66874 0.0
H2712 H 0.82539 0.51698 0.68812 0.0
H2713 H 0.87419 0.64327 0.71019 0.0
H2714 H 0.87811 0.61443 0.72134 0.0
H2715 H 0.8222 0.56919 0.69422 0.0
H2716 H 0.81848 0.59797 0.68269 0.0
H2717 H 0.85241 0.55926 0.69246 0.0
H2718 H 0.8205 0.57848 0.73542 0.0
H2719 H 0.81771 0.60274 0.75483 0.0
H2720 H 0.87798 0.61657 0.77652 0.0
H2721 H 0.88133 0.59264 0.75708 0.0
C2722 C 0.83883 0.48094 0.73591 0.0
C2723 C 0.85771 0.48262 0.74243 0.0
C2724 C 0.83799 0.49911 0.73209 0.0
C2725 C 0.85604 0.51919 0.73475 0.0
C2726 C 0.87454 0.5209 0.74217 0.0
C2727 C 0.87544 0.50262 0.74589 0.0
C2728 C 0.85615 0.53803 0.72814 0.0
C2729 C 0.85565 0.55282 0.73874 0.0
C2730 C 0.85503 0.54042 0.71128 0.0
C2731 C 0.856 0.52551 0.69953 0.0
C2732 C 0.87371 0.52214 0.69946 0.0
C2733 C 0.87441 0.50788 0.68849 0.0
C2734 C 0.85754 0.49699 0.67744 0.0
C2735 C 0.83997 0.50039 0.67732 0.0
C2736 C 0.83919 0.51462 0.68829 0.0
C2737 C 0.86276 0.62719 0.70655 0.0
C2738 C 0.84601 0.62291 0.69556 0.0
C2739 C 0.86496 0.61071 0.71302 0.0
C2740 C 0.85023 0.58962 0.70884 0.0
C2741 C 0.83372 0.58534 0.69765 0.0
C2742 C 0.83164 0.60182 0.69105 0.0
C2743 C 0.85213 0.57198 0.71595 0.0
C2744 C 0.853 0.55732 0.70541 0.0
C2745 C 0.85335 0.56966 0.73287 0.0
C2746 C 0.85127 0.58392 0.74467 0.0
C2747 C 0.83325 0.58681 0.74425 0.0
C2748 C 0.83155 0.60049 0.75527 0.0
C2749 C 0.84769 0.61123 0.76687 0.0
C2750 C 0.86552 0.60827 0.76751 0.0
C2751 C 0.86732 0.59464 0.7565 0.0
H2752 H 0.84636 0.62179 0.7754 0.0
H2753 H 0.85811 0.48596 0.66895 0.0
H2754 H 0.41553 0.88485 0.2304 0.0
H2755 H 0.42851 0.90297 0.20462 0.0
H2756 H 0.49335 0.93663 0.22373 0.0
H2757 H 0.48036 0.91895 0.24975 0.0
H2758 H 0.48375 0.96305 0.20815 0.0
H2759 H 0.47754 0.89581 0.19635 0.0
H2760 H 0.45934 0.85688 0.19459 0.0
H2761 H 0.41213 0.85626 0.16208 0.0
H2762 H 0.42988 0.8952 0.16382 0.0
H2763 H 0.53809 0.00619 0.13505 0.0
H2764 H 0.52506 0.98504 0.15954 0.0
H2765 H 0.46045 0.95285 0.13997 0.0
H2766 H 0.4734 0.97414 0.11535 0.0
H2767 H 0.46958 0.92536 0.15555 0.0
H2768 H 0.47517 0.9922 0.16759 0.0
H2769 H 0.49307 0.03112 0.16925 0.0
H2770 H 0.54094 0.03237 0.20138 0.0
H2771 H 0.5235 0.99345 0.19973 0.0
C2772 C 0.43256 0.89615 0.22916 0.0
C2773 C 0.44688 0.90045 0.24222 0.0
C2774 C 0.44001 0.90637 0.21432 0.0
C2775 C 0.46198 0.92107 0.21211 0.0
C2776 C 0.47634 0.92532 0.22509 0.0
C2777 C 0.46891 0.91506 0.23994 0.0
C2778 C 0.46983 0.93254 0.19648 0.0
C2779 C 0.48093 0.95477 0.19669 0.0
C2780 C 0.46563 0.92183 0.18142 0.0
C2781 C 0.45492 0.89841 0.18035 0.0
C2782 C 0.46317 0.88737 0.18893 0.0
C2783 C 0.45296 0.8653 0.18792 0.0
C2784 C 0.43456 0.8541 0.17826 0.0
C2785 C 0.42637 0.86496 0.16957 0.0
C2786 C 0.43651 0.88702 0.17056 0.0
C2787 C 0.52108 0.99468 0.13593 0.0
C2788 C 0.50676 0.99212 0.12326 0.0
C2789 C 0.51365 0.98254 0.14996 0.0
C2790 C 0.49169 0.96758 0.15177 0.0
C2791 C 0.47746 0.96433 0.1389 0.0
C2792 C 0.4849 0.97649 0.1248 0.0
C2793 C 0.48361 0.95583 0.16727 0.0
C2794 C 0.47242 0.9336 0.16703 0.0
C2795 C 0.48766 0.96652 0.18233 0.0
C2796 C 0.49814 0.98992 0.18341 0.0
C2797 C 0.48961 0.00078 0.17491 0.0
C2798 C 0.49966 0.02284 0.17586 0.0
C2799 C 0.51816 0.03422 0.18538 0.0
C2800 C 0.52663 0.02354 0.194 0.0
C2801 C 0.51665 0.00148 0.19307 0.0
H2802 H 0.52592 0.0513 0.1861 0.0
H2803 H 0.42668 0.83702 0.17749 0.0
H2804 H 0.08921 0.53164 0.24988 0.0
H2805 H 0.06719 0.52443 0.22546 0.0
H2806 H 0.12247 0.5726 0.20008 0.0
H2807 H 0.14436 0.58028 0.22468 0.0
H2808 H 0.088 0.57378 0.191 0.0
H2809 H 0.1058 0.51895 0.19641 0.0
H2810 H 0.1085 0.49058 0.21045 0.0
H2811 H 0.03957 0.45489 0.21496 0.0
H2812 H 0.03648 0.4832 0.20116 0.0
H2813 H 0.04504 0.53813 0.11236 0.0
H2814 H 0.06757 0.54692 0.13652 0.0
H2815 H 0.01263 0.50176 0.16386 0.0
H2816 H 0.99016 0.49218 0.13956 0.0
H2817 H 0.04779 0.49941 0.17141 0.0
H2818 H 0.03097 0.55573 0.16603 0.0
H2819 H 0.02934 0.58411 0.15107 0.0
H2820 H 0.0981 0.61681 0.14518 0.0
H2821 H 0.10011 0.58852 0.15999 0.0
C2822 C 0.09658 0.54079 0.23911 0.0
C2823 C 0.11851 0.55641 0.23912 0.0
C2824 C 0.08404 0.53662 0.22515 0.0
C2825 C 0.09329 0.54762 0.21079 0.0
C2826 C 0.11498 0.56383 0.21097 0.0
C2827 C 0.12747 0.56823 0.22503 0.0
C2828 C 0.08054 0.54173 0.1955 0.0
C2829 C 0.07943 0.55755 0.18664 0.0
C2830 C 0.06915 0.52052 0.18981 0.0
C2831 C 0.07093 0.50329 0.19788 0.0
C2832 C 0.09123 0.50511 0.20048 0.0
C2833 C 0.09283 0.48903 0.20839 0.0
C2834 C 0.07422 0.47097 0.21363 0.0
C2835 C 0.05397 0.4689 0.21091 0.0
C2836 C 0.05228 0.48495 0.20303 0.0
C2837 C 0.03776 0.52987 0.12344 0.0
C2838 C 0.01568 0.51458 0.12398 0.0
C2839 C 0.05065 0.53508 0.13731 0.0
C2840 C 0.04171 0.52527 0.15209 0.0
C2841 C 0.01984 0.50964 0.15262 0.0
C2842 C 0.00696 0.50435 0.13873 0.0
C2843 C 0.05507 0.5314 0.16706 0.0
C2844 C 0.05636 0.51562 0.17581 0.0
C2845 C 0.06679 0.55266 0.17254 0.0
C2846 C 0.06567 0.56996 0.16404 0.0
C2847 C 0.04573 0.56895 0.16151 0.0
C2848 C 0.04474 0.58502 0.15306 0.0
C2849 C 0.0636 0.60225 0.14718 0.0
C2850 C 0.08351 0.60347 0.14976 0.0
C2851 C 0.08458 0.58745 0.15821 0.0
H2852 H 0.0628 0.61466 0.14064 0.0
H2853 H 0.0755 0.45856 0.21978 0.0
H2854 H 0.46076 0.58611 0.22786 0.0
H2855 H 0.46718 0.57504 0.20151 0.0
H2856 H 0.45736 0.51673 0.22242 0.0
H2857 H 0.45008 0.52749 0.24865 0.0
H2858 H 0.49757 0.56969 0.1922 0.0
H2859 H 0.44202 0.47811 0.19448 0.0
H2860 H 0.40644 0.45193 0.20519 0.0
H2861 H 0.38612 0.49825 0.20385 0.0
H2862 H 0.42146 0.52461 0.19293 0.0
H2863 H 0.53539 0.52168 0.13785 0.0
H2864 H 0.52198 0.53139 0.16152 0.0
H2865 H 0.46149 0.51157 0.13701 0.0
H2866 H 0.47444 0.50082 0.1135 0.0
H2867 H 0.45385 0.49876 0.167 0.0
H2868 H 0.49929 0.56443 0.14152 0.0
H2869 H 0.53222 0.59259 0.12877 0.0
H2870 H 0.56776 0.60133 0.17278 0.0
H2871 H 0.5351 0.57302 0.18573 0.0
C2872 C 0.45965 0.57078 0.22674 0.0
C2873 C 0.45488 0.55762 0.24026 0.0
C2874 C 0.4634 0.56449 0.21169 0.0
C2875 C 0.4627 0.54499 0.20986 0.0
C2876 C 0.45757 0.53165 0.22336 0.0
C2877 C 0.45345 0.53781 0.23837 0.0
C2878 C 0.46863 0.53927 0.19412 0.0
C2879 C 0.48792 0.55418 0.18671 0.0
C2880 C 0.45589 0.51923 0.18664 0.0
C2881 C 0.43448 0.50339 0.19303 0.0
C2882 C 0.42993 0.48268 0.1964 0.0
C2883 C 0.40981 0.46781 0.20253 0.0
C2884 C 0.39406 0.47344 0.20525 0.0
C2885 C 0.39837 0.49393 0.2018 0.0
C2886 C 0.41845 0.50885 0.19566 0.0
C2887 C 0.51914 0.51914 0.13751 0.0
C2888 C 0.50603 0.51045 0.12371 0.0
C2889 C 0.51156 0.52495 0.15103 0.0
C2890 C 0.4908 0.52249 0.15101 0.0
C2891 C 0.47759 0.51369 0.13731 0.0
C2892 C 0.48512 0.50776 0.1238 0.0
C2893 C 0.48295 0.52904 0.16535 0.0
C2894 C 0.46337 0.51429 0.1725 0.0
C2895 C 0.49504 0.54949 0.17231 0.0
C2896 C 0.51478 0.56647 0.16455 0.0
C2897 C 0.51417 0.57223 0.14844 0.0
C2898 C 0.53278 0.58825 0.14118 0.0
C2899 C 0.55208 0.59871 0.14995 0.0
C2900 C 0.5528 0.5932 0.166 0.0
C2901 C 0.53424 0.57719 0.17331 0.0
H2902 H 0.56646 0.61111 0.14431 0.0
H2903 H 0.3785 0.46191 0.21001 0.0
H2904 H 0.92696 0.44083 0.78323 0.0
H2905 H 0.94511 0.45236 0.80937 0.0
H2906 H 0.89437 0.46292 0.82652 0.0
H2907 H 0.87606 0.45142 0.80013 0.0
H2908 H 0.93555 0.49385 0.83743 0.0
H2909 H 0.89216 0.41855 0.83648 0.0
H2910 H 0.8779 0.38271 0.82503 0.0
H2911 H 0.94134 0.39018 0.82641 0.0
H2912 H 0.95606 0.42622 0.83762 0.0
H2913 H 0.97479 0.49886 0.9179 0.0
H2914 H 0.95057 0.48877 0.89458 0.0
H2915 H 0.98962 0.46809 0.86946 0.0
H2916 H 0.01299 0.4768 0.89308 0.0
H2917 H 0.94891 0.44087 0.86464 0.0
H2918 H 0.99261 0.51783 0.86253 0.0
H2919 H 0.00677 0.55358 0.87418 0.0
H2920 H 0.94223 0.54252 0.87919 0.0
H2921 H 0.9277 0.50662 0.86768 0.0
C2922 C 0.91974 0.44577 0.79252 0.0
C2923 C 0.89994 0.44492 0.78976 0.0
C2924 C 0.93013 0.45237 0.80744 0.0
C2925 C 0.92085 0.45805 0.81998 0.0
C2926 C 0.90172 0.45847 0.817 0.0
C2927 C 0.89131 0.45193 0.80196 0.0
C2928 C 0.93062 0.46221 0.83636 0.0
C2929 C 0.93817 0.48217 0.84353 0.0
C2930 C 0.93408 0.44698 0.84428 0.0
C2931 C 0.92524 0.42515 0.8378 0.0
C2932 C 0.9031 0.4126 0.83425 0.0
C2933 C 0.89493 0.39225 0.82781 0.0
C2934 C 0.90871 0.38419 0.82497 0.0
C2935 C 0.93068 0.39645 0.82861 0.0
C2936 C 0.93894 0.41684 0.83503 0.0
C2937 C 0.97803 0.49186 0.90753 0.0
C2938 C 0.99595 0.48878 0.90739 0.0
C2939 C 0.96431 0.48634 0.89409 0.0
C2940 C 0.96846 0.478 0.88013 0.0
C2941 C 0.98612 0.4746 0.88006 0.0
C2942 C 0.99965 0.47984 0.89353 0.0
C2943 C 0.95464 0.47281 0.86546 0.0
C2944 C 0.94615 0.45253 0.85865 0.0
C2945 C 0.95031 0.48774 0.85793 0.0
C2946 C 0.95908 0.50952 0.86437 0.0
C2947 C 0.98145 0.52302 0.86615 0.0
C2948 C 0.98954 0.5433 0.87273 0.0
C2949 C 0.9754 0.5503 0.87746 0.0
C2950 C 0.95316 0.53707 0.87553 0.0
C2951 C 0.94499 0.51678 0.86896 0.0
H2952 H 0.98169 0.56598 0.88259 0.0
H2953 H 0.90236 0.36843 0.81997 0.0
H2954 H 0.571 0.48977 0.77883 0.0
H2955 H 0.56035 0.49523 0.80565 0.0
H2956 H 0.56156 0.44013 0.82306 0.0
H2957 H 0.57163 0.43426 0.79598 0.0
H2958 H 0.52947 0.44302 0.83722 0.0
H2959 H 0.60462 0.48957 0.82918 0.0
H2960 H 0.63706 0.51612 0.8149 0.0
H2961 H 0.61496 0.56096 0.81842 0.0
H2962 H 0.58219 0.53455 0.83249 0.0
H2963 H 0.54007 0.47955 0.92023 0.0
H2964 H 0.54356 0.46576 0.89397 0.0
H2965 H 0.5443 0.51872 0.87019 0.0
H2966 H 0.54149 0.53273 0.89635 0.0
H2967 H 0.5767 0.51463 0.86036 0.0
H2968 H 0.50014 0.46564 0.86855 0.0
H2969 H 0.46912 0.43826 0.88367 0.0
H2970 H 0.4961 0.39731 0.88134 0.0
H2971 H 0.52738 0.42452 0.86639 0.0
C2972 C 0.56873 0.47868 0.78834 0.0
C2973 C 0.57236 0.46174 0.7854 0.0
C2974 C 0.5627 0.48183 0.80367 0.0
C2975 C 0.56067 0.4684 0.81651 0.0
C2976 C 0.56314 0.45077 0.81339 0.0
C2977 C 0.56889 0.44743 0.79793 0.0
C2978 C 0.55736 0.47368 0.83327 0.0
C2979 C 0.53991 0.4586 0.84236 0.0
C2980 C 0.57102 0.49398 0.84006 0.0
C2981 C 0.59086 0.51001 0.83178 0.0
C2982 C 0.60661 0.50505 0.82682 0.0
C2983 C 0.62506 0.52007 0.81877 0.0
C2984 C 0.62805 0.5402 0.81573 0.0
C2985 C 0.61261 0.54536 0.82077 0.0
C2986 C 0.5941 0.53037 0.8288 0.0
C2987 C 0.54061 0.48799 0.90934 0.0
C2988 C 0.54064 0.50725 0.91029 0.0
C2989 C 0.54257 0.4801 0.89434 0.0
C2990 C 0.54416 0.49117 0.88004 0.0
C2991 C 0.54325 0.50994 0.88102 0.0
C2992 C 0.5416 0.51793 0.89596 0.0
C2993 C 0.54828 0.48428 0.86412 0.0
C2994 C 0.56614 0.49905 0.85523 0.0
C2995 C 0.53518 0.46363 0.8577 0.0
C2996 C 0.51619 0.44719 0.86648 0.0
C2997 C 0.4995 0.45084 0.87135 0.0
C2998 C 0.48186 0.43534 0.87988 0.0
C2999 C 0.48066 0.41607 0.88351 0.0
C3000 C 0.49705 0.41224 0.87856 0.0
C3001 C 0.51472 0.42768 0.87004 0.0
H3002 H 0.46701 0.4041 0.89014 0.0
H3003 H 0.64234 0.55181 0.80948 0.0
H3004 H 0.54481 0.13469 0.79849 0.0
H3005 H 0.53911 0.11885 0.8253 0.0
H3006 H 0.55209 0.07113 0.80629 0.0
H3007 H 0.55861 0.08754 0.77958 0.0
H3008 H 0.51017 0.08391 0.83565 0.0
H3009 H 0.56867 0.05006 0.83535 0.0
H3010 H 0.6046 0.05958 0.82482 0.0
H3011 H 0.6222 0.12515 0.82407 0.0
H3012 H 0.58651 0.11607 0.8348 0.0
H3013 H 0.47491 0.0016 0.8915 0.0
H3014 H 0.48786 0.02399 0.86776 0.0
H3015 H 0.54809 0.06493 0.89215 0.0
H3016 H 0.53563 0.04175 0.91576 0.0
H3017 H 0.55625 0.05981 0.8623 0.0
H3018 H 0.50873 0.07933 0.88659 0.0
H3019 H 0.47517 0.07411 0.89904 0.0
H3020 H 0.44022 0.04531 0.85525 0.0
H3021 H 0.47351 0.05009 0.84259 0.0
C3022 C 0.54672 0.12098 0.80011 0.0
C3023 C 0.55218 0.11236 0.78694 0.0
C3024 C 0.5434 0.11187 0.81544 0.0
C3025 C 0.54523 0.09377 0.81798 0.0
C3026 C 0.55101 0.08533 0.80485 0.0
C3027 C 0.55468 0.09467 0.78954 0.0
C3028 C 0.53981 0.0831 0.83409 0.0
C3029 C 0.52035 0.07874 0.84145 0.0
C3030 C 0.55321 0.07669 0.84202 0.0
C3031 C 0.57482 0.08234 0.83573 0.0
C3032 C 0.58024 0.06652 0.833 0.0
C3033 C 0.60056 0.07184 0.82699 0.0
C3034 C 0.61565 0.09295 0.82373 0.0
C3035 C 0.61048 0.10879 0.82654 0.0
C3036 C 0.59019 0.10357 0.83257 0.0
C3037 C 0.49102 0.01522 0.89184 0.0
C3038 C 0.50422 0.01973 0.90564 0.0
C3039 C 0.49833 0.02823 0.87825 0.0
C3040 C 0.51888 0.0464 0.87814 0.0
C3041 C 0.53214 0.05106 0.8919 0.0
C3042 C 0.52488 0.0379 0.9055 0.0
C3043 C 0.52643 0.06026 0.86357 0.0
C3044 C 0.54621 0.06514 0.8565 0.0
C3045 C 0.51368 0.06779 0.85615 0.0
C3046 C 0.4936 0.06493 0.86368 0.0
C3047 C 0.49386 0.07176 0.87964 0.0
C3048 C 0.47489 0.06889 0.88674 0.0
C3049 C 0.45557 0.05935 0.87795 0.0
C3050 C 0.45519 0.05269 0.86204 0.0
C3051 C 0.47412 0.0555 0.85489 0.0
H3052 H 0.4409 0.05715 0.88346 0.0
H3053 H 0.63136 0.09703 0.81906 0.0
H3054 H 0.14427 0.24267 0.58357 0.0
H3055 H 0.1575 0.26004 0.55749 0.0
H3056 H 0.09276 0.22675 0.53819 0.0
H3057 H 0.07953 0.20886 0.56404 0.0
H3058 H 0.1214 0.2292 0.51565 0.0
H3059 H 0.11444 0.27739 0.55161 0.0
H3060 H 0.12064 0.29804 0.57671 0.0
H3061 H 0.18888 0.33103 0.56811 0.0
H3062 H 0.1831 0.31035 0.54306 0.0
H3063 H 0.13553 0.29943 0.45032 0.0
H3064 H 0.12402 0.27667 0.47418 0.0
H3065 H 0.18849 0.31173 0.49386 0.0
H3066 H 0.20002 0.33452 0.47015 0.0
H3067 H 0.16026 0.30773 0.51595 0.0
H3068 H 0.16723 0.26004 0.47949 0.0
H3069 H 0.16071 0.24041 0.45382 0.0
H3070 H 0.09253 0.20765 0.4626 0.0
H3071 H 0.09864 0.22704 0.48838 0.0
C3072 C 0.13288 0.23877 0.57372 0.0
C3073 C 0.11077 0.22453 0.57603 0.0
C3074 C 0.14045 0.24885 0.55881 0.0
C3075 C 0.12609 0.24497 0.54588 0.0
C3076 C 0.10417 0.2301 0.54795 0.0
C3077 C 0.09659 0.22005 0.56283 0.0
C3078 C 0.13369 0.25723 0.53054 0.0
C3079 C 0.12976 0.24637 0.51571 0.0
C3080 C 0.14485 0.27966 0.53054 0.0
C3081 C 0.14836 0.29216 0.54556 0.0
C3082 C 0.13078 0.28893 0.55514 0.0
C3083 C 0.13421 0.30066 0.56934 0.0
C3084 C 0.15514 0.3158 0.57402 0.0
C3085 C 0.17268 0.31927 0.56448 0.0
C3086 C 0.16934 0.30756 0.55028 0.0
C3087 C 0.14733 0.30207 0.4596 0.0
C3088 C 0.16865 0.31899 0.45839 0.0
C3089 C 0.14073 0.28903 0.47327 0.0
C3090 C 0.15538 0.29245 0.48589 0.0
C3091 C 0.17682 0.30886 0.4844 0.0
C3092 C 0.18338 0.32193 0.47083 0.0
C3093 C 0.14821 0.27976 0.50105 0.0
C3094 C 0.15211 0.29056 0.51587 0.0
C3095 C 0.13705 0.25734 0.501 0.0
C3096 C 0.13338 0.24509 0.48581 0.0
C3097 C 0.15084 0.24867 0.47594 0.0
C3098 C 0.14722 0.2376 0.46136 0.0
C3099 C 0.12622 0.22291 0.45653 0.0
C3100 C 0.10879 0.21907 0.46635 0.0
C3101 C 0.11233 0.23002 0.48098 0.0
H3102 H 0.12344 0.21445 0.44519 0.0
H3103 H 0.15777 0.32486 0.58502 0.0
H3104 H 0.74491 0.84993 0.58122 0.0
H3105 H 0.72749 0.84435 0.55482 0.0
H3106 H 0.77924 0.90473 0.53889 0.0
H3107 H 0.79655 0.91058 0.56555 0.0
H3108 H 0.74177 0.89883 0.52788 0.0
H3109 H 0.77721 0.85843 0.52763 0.0
H3110 H 0.78768 0.8331 0.53785 0.0
H3111 H 0.72166 0.78309 0.53539 0.0
H3112 H 0.71073 0.80819 0.52539 0.0
H3113 H 0.7071 0.87112 0.44544 0.0
H3114 H 0.72946 0.88088 0.46995 0.0
H3115 H 0.6798 0.82569 0.494 0.0
H3116 H 0.65759 0.81566 0.46951 0.0
H3117 H 0.72029 0.83123 0.49914 0.0
H3118 H 0.68557 0.87397 0.50115 0.0
H3119 H 0.67655 0.90005 0.49021 0.0
H3120 H 0.74389 0.94658 0.48798 0.0
H3121 H 0.7533 0.92069 0.49877 0.0
C3122 C 0.75255 0.86203 0.57209 0.0
C3123 C 0.77218 0.88058 0.57535 0.0
C3124 C 0.74263 0.85881 0.557 0.0
C3125 C 0.75232 0.87389 0.54473 0.0
C3126 C 0.77154 0.89281 0.54813 0.0
C3127 C 0.78139 0.89616 0.56335 0.0
C3128 C 0.7424 0.86959 0.52836 0.0
C3129 C 0.73741 0.88421 0.52148 0.0
C3130 C 0.73662 0.85048 0.51998 0.0
C3131 C 0.74313 0.83525 0.52587 0.0
C3132 C 0.7649 0.84206 0.52937 0.0
C3133 C 0.77092 0.82774 0.53512 0.0
C3134 C 0.75534 0.80651 0.5373 0.0
C3135 C 0.73371 0.79954 0.5337 0.0
C3136 C 0.72759 0.81381 0.52798 0.0
C3137 C 0.70106 0.86098 0.45591 0.0
C3138 C 0.68055 0.84267 0.45558 0.0
C3139 C 0.71377 0.86666 0.46993 0.0
C3140 C 0.70619 0.85411 0.48383 0.0
C3141 C 0.68592 0.83562 0.48342 0.0
C3142 C 0.67318 0.83 0.46946 0.0
C3143 C 0.71918 0.86019 0.49893 0.0
C3144 C 0.72483 0.84592 0.50551 0.0
C3145 C 0.72581 0.87972 0.50689 0.0
C3146 C 0.72014 0.89534 0.50061 0.0
C3147 C 0.69845 0.88973 0.49823 0.0
C3148 C 0.69327 0.90448 0.49208 0.0
C3149 C 0.70964 0.92494 0.48837 0.0
C3150 C 0.73123 0.93072 0.49085 0.0
C3151 C 0.73649 0.91602 0.497 0.0
H3152 H 0.70559 0.93633 0.48359 0.0
H3153 H 0.76003 0.79544 0.54175 0.0
H3154 H 0.12824 0.92108 0.56171 0.0
H3155 H 0.13293 0.90835 0.53545 0.0
H3156 H 0.12036 0.84967 0.55725 0.0
H3157 H 0.1155 0.86233 0.58361 0.0
H3158 H 0.15835 0.86944 0.53824 0.0
H3159 H 0.08332 0.84896 0.53379 0.0
H3160 H 0.0522 0.85475 0.53456 0.0
H3161 H 0.08039 0.90114 0.49707 0.0
H3162 H 0.11184 0.89584 0.49624 0.0
H3163 H 0.1505 0.8107 0.46819 0.0
H3164 H 0.14497 0.82412 0.49362 0.0
H3165 H 0.14657 0.8767 0.46864 0.0
H3166 H 0.15102 0.86269 0.44289 0.0
H3167 H 0.11463 0.86116 0.48922 0.0
H3168 H 0.18919 0.88258 0.49301 0.0
H3169 H 0.22148 0.87871 0.49211 0.0
H3170 H 0.19627 0.83345 0.53055 0.0
H3171 H 0.16366 0.83683 0.53153 0.0
C3172 C 0.12627 0.90538 0.56086 0.0
C3173 C 0.1215 0.89268 0.57469 0.0
C3174 C 0.12889 0.89811 0.54585 0.0
C3175 C 0.12697 0.87806 0.54439 0.0
C3176 C 0.1219 0.86519 0.55813 0.0
C3177 C 0.11897 0.87236 0.57313 0.0
C3178 C 0.13115 0.87093 0.52865 0.0
C3179 C 0.1486 0.8673 0.52756 0.0
C3180 C 0.11895 0.86897 0.5146 0.0
C3181 C 0.10004 0.87216 0.51507 0.0
C3182 C 0.08298 0.86054 0.52581 0.0
C3183 C 0.06526 0.8637 0.52624 0.0
C3184 C 0.06434 0.87835 0.5159 0.0
C3185 C 0.08113 0.88982 0.50509 0.0
C3186 C 0.0989 0.88673 0.50462 0.0
C3187 C 0.1496 0.82509 0.46804 0.0
C3188 C 0.15109 0.83553 0.45341 0.0
C3189 C 0.14669 0.8329 0.48267 0.0
C3190 C 0.14558 0.85159 0.48315 0.0
C3191 C 0.14741 0.86228 0.46862 0.0
C3192 C 0.1502 0.85437 0.45391 0.0
C3193 C 0.14179 0.85946 0.49876 0.0
C3194 C 0.12444 0.8633 0.49985 0.0
C3195 C 0.15429 0.86191 0.51278 0.0
C3196 C 0.17388 0.85982 0.51224 0.0
C3197 C 0.19045 0.87168 0.50119 0.0
C3198 C 0.20882 0.86959 0.50068 0.0
C3199 C 0.2109 0.8558 0.51124 0.0
C3200 C 0.19462 0.84411 0.52236 0.0
C3201 C 0.1762 0.84612 0.52291 0.0
H3202 H 0.22515 0.85422 0.51083 0.0
H3203 H 0.05061 0.88077 0.51624 0.0
H3204 H 0.5558 0.7546 0.13116 0.0
H3205 H 0.57368 0.76817 0.15726 0.0
H3206 H 0.61695 0.82828 0.13542 0.0
H3207 H 0.59922 0.81469 0.10918 0.0
H3208 H 0.63821 0.81227 0.15277 0.0
H3209 H 0.57948 0.82482 0.16126 0.0
H3210 H 0.54138 0.8158 0.16193 0.0
H3211 H 0.52792 0.76806 0.19745 0.0
H3212 H 0.56589 0.77657 0.19683 0.0
H3213 H 0.69045 0.8591 0.22655 0.0
H3214 H 0.66964 0.85238 0.20154 0.0
H3215 H 0.62037 0.79252 0.22034 0.0
H3216 H 0.64098 0.79935 0.2455 0.0
H3217 H 0.60236 0.81127 0.20423 0.0
H3218 H 0.65919 0.79578 0.19406 0.0
H3219 H 0.69681 0.80329 0.19326 0.0
H3220 H 0.71321 0.85478 0.16068 0.0
H3221 H 0.67572 0.84775 0.16146 0.0
C3222 C 0.569 0.77078 0.13196 0.0
C3223 C 0.57618 0.78357 0.11813 0.0
C3224 C 0.57909 0.77856 0.14689 0.0
C3225 C 0.59657 0.79927 0.14829 0.0
C3226 C 0.60344 0.81227 0.1346 0.0
C3227 C 0.59322 0.80454 0.11966 0.0
C3228 C 0.60862 0.80672 0.16378 0.0
C3229 C 0.63049 0.81248 0.16397 0.0
C3230 C 0.59836 0.80636 0.17846 0.0
C3231 C 0.57551 0.80123 0.1789 0.0
C3232 C 0.56836 0.81228 0.16912 0.0
C3233 C 0.54679 0.80728 0.16951 0.0
C3234 C 0.53223 0.79134 0.1797 0.0
C3235 C 0.53922 0.78039 0.18955 0.0
C3236 C 0.56077 0.78532 0.1892 0.0
C3237 C 0.67515 0.84453 0.22535 0.0
C3238 C 0.66743 0.82966 0.23791 0.0
C3239 C 0.66328 0.84071 0.21107 0.0
C3240 C 0.64361 0.82177 0.20895 0.0
C3241 C 0.6355 0.80723 0.2217 0.0
C3242 C 0.64728 0.81114 0.23606 0.0
C3243 C 0.63193 0.81672 0.19323 0.0
C3244 C 0.61014 0.81132 0.193 0.0
C3245 C 0.64219 0.8172 0.1785 0.0
C3246 C 0.66471 0.82139 0.17796 0.0
C3247 C 0.67086 0.8088 0.18682 0.0
C3248 C 0.69215 0.81296 0.18636 0.0
C3249 C 0.70741 0.82954 0.17696 0.0
C3250 C 0.70139 0.84196 0.16797 0.0
C3251 C 0.68012 0.8379 0.16841 0.0
H3252 H 0.72389 0.83273 0.17662 0.0
H3253 H 0.51554 0.78749 0.17999 0.0
H3254 H 0.20423 0.78458 0.11194 0.0
H3255 H 0.18984 0.78783 0.1379 0.0
H3256 H 0.25312 0.81412 0.15942 0.0
H3257 H 0.26754 0.81048 0.13357 0.0
H3258 H 0.22134 0.78613 0.17987 0.0
H3259 H 0.2352 0.84637 0.14764 0.0
H3260 H 0.23248 0.86446 0.12338 0.0
H3261 H 0.16368 0.83334 0.12868 0.0
H3262 H 0.16597 0.81481 0.15285 0.0
H3263 H 0.20633 0.83902 0.2476 0.0
H3264 H 0.21872 0.82934 0.2232 0.0
H3265 H 0.15545 0.80408 0.20189 0.0
H3266 H 0.14278 0.81322 0.22633 0.0
H3267 H 0.18671 0.83048 0.18147 0.0
H3268 H 0.17269 0.77152 0.21448 0.0
H3269 H 0.17513 0.75339 0.23879 0.0
H3270 H 0.24348 0.78142 0.23225 0.0
H3271 H 0.24155 0.80013 0.20807 0.0
C3272 C 0.21503 0.79075 0.12225 0.0
C3273 C 0.23708 0.79741 0.12062 0.0
C3274 C 0.20681 0.79274 0.13706 0.0
C3275 C 0.22045 0.80146 0.15058 0.0
C3276 C 0.2423 0.80741 0.14916 0.0
C3277 C 0.25055 0.8055 0.13433 0.0
C3278 C 0.21215 0.8053 0.16595 0.0
C3279 C 0.21398 0.79601 0.18028 0.0
C3280 C 0.20215 0.81784 0.16643 0.0
C3281 C 0.20074 0.82904 0.15195 0.0
C3282 C 0.21948 0.84325 0.14356 0.0
C3283 C 0.21802 0.85361 0.12984 0.0
C3284 C 0.19791 0.85 0.12447 0.0
C3285 C 0.17924 0.83608 0.13284 0.0
C3286 C 0.18061 0.82566 0.14656 0.0
C3287 C 0.19492 0.83106 0.23786 0.0
C3288 C 0.17355 0.82703 0.23895 0.0
C3289 C 0.20206 0.82558 0.22388 0.0
C3290 C 0.18801 0.81594 0.21071 0.0
C3291 C 0.16662 0.81161 0.21186 0.0
C3292 C 0.15944 0.81696 0.22583 0.0
C3293 C 0.19582 0.81128 0.19544 0.0
C3294 C 0.19397 0.8205 0.1811 0.0
C3295 C 0.20575 0.79866 0.195 0.0
C3296 C 0.207 0.78743 0.20954 0.0
C3297 C 0.18829 0.774 0.2183 0.0
C3298 C 0.18956 0.76357 0.23204 0.0
C3299 C 0.20944 0.76624 0.23706 0.0
C3300 C 0.22809 0.77936 0.22835 0.0
C3301 C 0.22691 0.7899 0.21462 0.0
H3302 H 0.21037 0.75811 0.24769 0.0
H3303 H 0.19682 0.85804 0.11385 0.0
H3304 H 0.20529 0.45916 0.13404 0.0
H3305 H 0.19981 0.44127 0.15997 0.0
H3306 H 0.22334 0.40207 0.13977 0.0
H3307 H 0.22874 0.4199 0.11365 0.0
H3308 H 0.18511 0.37888 0.15618 0.0
H3309 H 0.25384 0.44038 0.16648 0.0
H3310 H 0.28022 0.47859 0.16768 0.0
H3311 H 0.24021 0.48786 0.20144 0.0
H3312 H 0.21342 0.44973 0.20028 0.0
H3313 H 0.18444 0.32969 0.22949 0.0
H3314 H 0.19674 0.35059 0.2048 0.0
H3315 H 0.17974 0.39505 0.22466 0.0
H3316 H 0.16776 0.37431 0.2496 0.0
H3317 H 0.21606 0.41577 0.20827 0.0
H3318 H 0.14659 0.35569 0.19713 0.0
H3319 H 0.11907 0.31781 0.19585 0.0
H3320 H 0.1589 0.30628 0.16346 0.0
H3321 H 0.18681 0.34406 0.16474 0.0
C3322 C 0.20939 0.44679 0.13512 0.0
C3323 C 0.21738 0.4409 0.12174 0.0
C3324 C 0.20639 0.43666 0.15001 0.0
C3325 C 0.21126 0.42037 0.1519 0.0
C3326 C 0.2195 0.41462 0.13863 0.0
C3327 C 0.22272 0.42491 0.12374 0.0
C3328 C 0.20676 0.40876 0.16751 0.0
C3329 C 0.19219 0.38689 0.16753 0.0
C3330 C 0.21543 0.41928 0.18242 0.0
C3331 C 0.23153 0.44222 0.18318 0.0
C3332 C 0.25058 0.45059 0.17406 0.0
C3333 C 0.26562 0.47223 0.17475 0.0
C3334 C 0.26187 0.48565 0.1846 0.0
C3335 C 0.24308 0.47745 0.19381 0.0
C3336 C 0.22797 0.45582 0.19315 0.0
C3337 C 0.18338 0.34396 0.22863 0.0
C3338 C 0.17488 0.3502 0.24146 0.0
C3339 C 0.19038 0.3559 0.21447 0.0
C3340 C 0.18874 0.3742 0.21264 0.0
C3341 C 0.1811 0.38096 0.2257 0.0
C3342 C 0.17427 0.36911 0.23997 0.0
C3343 C 0.19439 0.38584 0.19695 0.0
C3344 C 0.20909 0.40772 0.19691 0.0
C3345 C 0.18567 0.37537 0.18201 0.0
C3346 C 0.16888 0.35266 0.18116 0.0
C3347 C 0.14955 0.34505 0.18983 0.0
C3348 C 0.13387 0.3236 0.18909 0.0
C3349 C 0.13726 0.30964 0.17961 0.0
C3350 C 0.15631 0.31711 0.17082 0.0
C3351 C 0.17206 0.33854 0.17154 0.0
H3352 H 0.1251 0.29304 0.17905 0.0
H3353 H 0.27353 0.5024 0.18512 0.0
H3354 H 0.78646 0.543 0.90165 0.0
H3355 H 0.79848 0.55948 0.87512 0.0
H3356 H 0.79128 0.61211 0.8908 0.0
H3357 H 0.77875 0.59541 0.91712 0.0
H3358 H 0.77589 0.60214 0.86217 0.0
H3359 H 0.84203 0.61432 0.88675 0.0
H3360 H 0.8665 0.60444 0.90025 0.0
H3361 H 0.86154 0.56544 0.85961 0.0
H3362 H 0.83681 0.57488 0.84596 0.0
H3363 H 0.86857 0.67208 0.80321 0.0
H3364 H 0.85595 0.65097 0.82764 0.0
H3365 H 0.79406 0.61105 0.80506 0.0
H3366 H 0.80622 0.63302 0.78081 0.0
H3367 H 0.8432 0.61311 0.8365 0.0
H3368 H 0.75435 0.5927 0.83313 0.0
H3369 H 0.73234 0.60679 0.82138 0.0
H3370 H 0.78712 0.66966 0.82272 0.0
H3371 H 0.80937 0.65598 0.83464 0.0
C3372 C 0.78767 0.5582 0.89948 0.0
C3373 C 0.78164 0.56788 0.91153 0.0
C3374 C 0.79456 0.56764 0.88428 0.0
C3375 C 0.796 0.58721 0.88085 0.0
C3376 C 0.79022 0.59698 0.89299 0.0
C3377 C 0.78309 0.58743 0.90809 0.0
C3378 C 0.80322 0.59748 0.86466 0.0
C3379 C 0.79059 0.60444 0.85657 0.0
C3380 C 0.8225 0.60078 0.85725 0.0
C3381 C 0.8374 0.59512 0.86541 0.0
C3382 C 0.84604 0.60351 0.88075 0.0
C3383 C 0.85997 0.59801 0.88842 0.0
C3384 C 0.86552 0.58427 0.88081 0.0
C3385 C 0.8572 0.57605 0.8655 0.0
C3386 C 0.84324 0.58148 0.85779 0.0
C3387 C 0.85217 0.65895 0.80343 0.0
C3388 C 0.83829 0.65467 0.79006 0.0
C3389 C 0.84504 0.64666 0.81741 0.0
C3390 C 0.82386 0.62957 0.81846 0.0
C3391 C 0.81032 0.62443 0.80479 0.0
C3392 C 0.81739 0.63691 0.79081 0.0
C3393 C 0.81594 0.6179 0.83409 0.0
C3394 C 0.8284 0.61062 0.84204 0.0
C3395 C 0.79682 0.61484 0.8416 0.0
C3396 C 0.78356 0.62327 0.83459 0.0
C3397 C 0.76166 0.60954 0.83095 0.0
C3398 C 0.74916 0.61745 0.82426 0.0
C3399 C 0.75835 0.6391 0.82125 0.0
C3400 C 0.78005 0.65289 0.82499 0.0
C3401 C 0.79261 0.64507 0.8317 0.0
H3402 H 0.74864 0.64518 0.81605 0.0
H3403 H 0.87631 0.58003 0.88677 0.0
H3404 H 0.46621 0.20744 0.88826 0.0
H3405 H 0.44573 0.20267 0.8634 0.0
H3406 H 0.40915 0.2272 0.88719 0.0
H3407 H 0.42912 0.23137 0.91229 0.0
H3408 H 0.38312 0.19161 0.87123 0.0
H3409 H 0.447 0.25631 0.85876 0.0
H3410 H 0.48604 0.28075 0.85575 0.0
H3411 H 0.48939 0.2392 0.82044 0.0
H3412 H 0.4504 0.21434 0.82341 0.0
H3413 H 0.33162 0.19661 0.79889 0.0
H3414 H 0.35394 0.2068 0.82333 0.0
H3415 H 0.39007 0.17908 0.80381 0.0
H3416 H 0.36755 0.16843 0.77947 0.0
H3417 H 0.41633 0.21839 0.81766 0.0
H3418 H 0.35265 0.15293 0.83153 0.0
H3419 H 0.31353 0.12883 0.83451 0.0
H3420 H 0.30994 0.17272 0.86731 0.0
H3421 H 0.34902 0.19724 0.86434 0.0
C3422 C 0.45381 0.21184 0.8882 0.0
C3423 C 0.44924 0.21971 0.90227 0.0
C3424 C 0.44227 0.2093 0.87393 0.0
C3425 C 0.42602 0.21475 0.87338 0.0
C3426 C 0.42166 0.22296 0.88732 0.0
C3427 C 0.43321 0.22549 0.90162 0.0
C3428 C 0.41284 0.21079 0.8585 0.0
C3429 C 0.39037 0.19781 0.85957 0.0
C3430 C 0.42232 0.21847 0.84322 0.0
C3431 C 0.4458 0.23336 0.84143 0.0
C3432 C 0.45609 0.25228 0.85046 0.0
C3433 C 0.47821 0.26624 0.84874 0.0
C3434 C 0.4902 0.26151 0.83794 0.0
C3435 C 0.48008 0.24283 0.82882 0.0
C3436 C 0.45797 0.22881 0.8305 0.0
C3437 C 0.34417 0.19249 0.79984 0.0
C3438 C 0.3477 0.1816 0.78723 0.0
C3439 C 0.35698 0.19842 0.81379 0.0
C3440 C 0.37356 0.19357 0.81542 0.0
C3441 C 0.3774 0.18305 0.80277 0.0
C3442 C 0.36454 0.17703 0.78884 0.0
C3443 C 0.3867 0.19915 0.83043 0.0
C3444 C 0.40913 0.21238 0.82937 0.0
C3445 C 0.3772 0.19176 0.84573 0.0
C3446 C 0.35372 0.17702 0.84757 0.0
C3447 C 0.34349 0.15753 0.83927 0.0
C3448 C 0.32133 0.14377 0.84098 0.0
C3449 C 0.30925 0.14927 0.85106 0.0
C3450 C 0.31932 0.16851 0.85948 0.0
C3451 C 0.34147 0.18233 0.8578 0.0
H3452 H 0.29209 0.1386 0.85237 0.0
H3453 H 0.50732 0.27233 0.83662 0.0
H3454 H 0.75948 0.21655 0.8994 0.0
H3455 H 0.76571 0.20573 0.8727 0.0
H3456 H 0.83111 0.22501 0.8867 0.0
H3457 H 0.82496 0.2355 0.91326 0.0
H3458 H 0.82927 0.24199 0.85783 0.0
H3459 H 0.79306 0.17321 0.88357 0.0
H3460 H 0.76276 0.14345 0.89753 0.0
H3461 H 0.72082 0.13508 0.8575 0.0
H3462 H 0.75084 0.165 0.84339 0.0
H3463 H 0.87048 0.20008 0.80147 0.0
H3464 H 0.85657 0.20862 0.82542 0.0
H3465 H 0.79403 0.18267 0.8027 0.0
H3466 H 0.80774 0.17335 0.77872 0.0
H3467 H 0.79009 0.16996 0.8337 0.0
H3468 H 0.82615 0.23591 0.80669 0.0
H3469 H 0.85572 0.26583 0.79232 0.0
H3470 H 0.89671 0.28033 0.83402 0.0
H3471 H 0.86748 0.2503 0.84858 0.0
C3472 C 0.77504 0.21811 0.89686 0.0
C3473 C 0.7918 0.22714 0.9084 0.0
C3474 C 0.77861 0.212 0.88158 0.0
C3475 C 0.79895 0.21471 0.87764 0.0
C3476 C 0.81538 0.22299 0.88937 0.0
C3477 C 0.81183 0.22901 0.90456 0.0
C3478 C 0.80373 0.20987 0.86118 0.0
C3479 C 0.8208 0.22619 0.85261 0.0
C3480 C 0.79213 0.18948 0.85405 0.0
C3481 C 0.77412 0.1715 0.86252 0.0
C3482 C 0.77733 0.16514 0.87781 0.0
C3483 C 0.76022 0.14822 0.88573 0.0
C3484 C 0.73986 0.13742 0.87843 0.0
C3485 C 0.73659 0.14349 0.86316 0.0
C3486 C 0.75364 0.16042 0.85519 0.0
C3487 C 0.85372 0.19605 0.80154 0.0
C3488 C 0.84023 0.18594 0.78815 0.0
C3489 C 0.84583 0.20115 0.81522 0.0
C3490 C 0.82429 0.19651 0.81584 0.0
C3491 C 0.81072 0.18647 0.8025 0.0
C3492 C 0.81864 0.18133 0.78874 0.0
C3493 C 0.81613 0.20195 0.8306 0.0
C3494 C 0.7984 0.18582 0.83882 0.0
C3495 C 0.827 0.22259 0.83738 0.0
C3496 C 0.84464 0.24074 0.82869 0.0
C3497 C 0.84152 0.24538 0.81276 0.0
C3498 C 0.85821 0.26238 0.80459 0.0
C3499 C 0.87809 0.27495 0.81224 0.0
C3500 C 0.8813 0.27057 0.82811 0.0
C3501 C 0.86466 0.25358 0.83633 0.0
H3502 H 0.891 0.28811 0.80589 0.0
H3503 H 0.72663 0.12432 0.88458 0.0
H3504 H 0.25297 0.14092 0.44676 0.0
H3505 H 0.27334 0.15276 0.47221 0.0
H3506 H 0.23046 0.09207 0.49346 0.0
H3507 H 0.21043 0.08008 0.46798 0.0
H3508 H 0.26609 0.15774 0.50302 0.0
H3509 H 0.25892 0.0766 0.51653 0.0
H3510 H 0.25313 0.04475 0.50167 0.0
H3511 H 0.28054 0.0819 0.45905 0.0
H3512 H 0.28682 0.11401 0.47372 0.0
H3513 H 0.30918 0.16347 0.5812 0.0
H3514 H 0.28561 0.15218 0.55757 0.0
H3515 H 0.33229 0.14323 0.53104 0.0
H3516 H 0.3551 0.1527 0.555 0.0
H3517 H 0.29519 0.11311 0.52364 0.0
H3518 H 0.3256 0.18857 0.52678 0.0
H3519 H 0.33442 0.22241 0.53989 0.0
H3520 H 0.26697 0.20067 0.54597 0.0
H3521 H 0.25776 0.16659 0.53306 0.0
C3522 C 0.24771 0.13028 0.45697 0.0
C3523 C 0.23032 0.10952 0.45538 0.0
C3524 C 0.25935 0.13703 0.47149 0.0
C3525 C 0.25369 0.12315 0.48464 0.0
C3526 C 0.23542 0.10289 0.48337 0.0
C3527 C 0.22397 0.09607 0.46883 0.0
C3528 C 0.26764 0.1293 0.49928 0.0
C3529 C 0.27243 0.14798 0.50756 0.0
C3530 C 0.27629 0.11678 0.50502 0.0
C3531 C 0.27312 0.09766 0.4962 0.0
C3532 C 0.26382 0.07798 0.50402 0.0
C3533 C 0.26044 0.05989 0.49562 0.0
C3534 C 0.26639 0.06129 0.47941 0.0
C3535 C 0.27587 0.08082 0.47159 0.0
C3536 C 0.27934 0.09897 0.47994 0.0
C3537 C 0.31432 0.15873 0.57047 0.0
C3538 C 0.33423 0.15916 0.5701 0.0
C3539 C 0.30091 0.15259 0.55683 0.0
C3540 C 0.30732 0.14727 0.54235 0.0
C3541 C 0.32699 0.14738 0.542 0.0
C3542 C 0.3402 0.1531 0.55572 0.0
C3543 C 0.29362 0.14156 0.52753 0.0
C3544 C 0.28884 0.12289 0.51919 0.0
C3545 C 0.28552 0.15442 0.52149 0.0
C3546 C 0.29101 0.17498 0.52908 0.0
C3547 C 0.31266 0.19097 0.53099 0.0
C3548 C 0.31773 0.2102 0.53838 0.0
C3549 C 0.30127 0.21367 0.54379 0.0
C3550 C 0.2797 0.19795 0.54178 0.0
C3551 C 0.27455 0.17869 0.53441 0.0
H3552 H 0.30522 0.22856 0.54952 0.0
H3553 H 0.2637 0.04725 0.47292 0.0
H3554 H 0.9328 0.1415 0.46394 0.0
H3555 H 0.91904 0.14508 0.49006 0.0
H3556 H 0.85467 0.11601 0.4701 0.0
H3557 H 0.86843 0.11283 0.4438 0.0
H3558 H 0.86445 0.15151 0.48682 0.0
H3559 H 0.86922 0.08916 0.49613 0.0
H3560 H 0.8869 0.06754 0.49694 0.0
H3561 H 0.93341 0.11081 0.53118 0.0
H3562 H 0.91619 0.13286 0.5304 0.0
H3563 H 0.80959 0.14058 0.55952 0.0
H3564 H 0.82212 0.13117 0.53513 0.0
H3565 H 0.88669 0.16106 0.55474 0.0
H3566 H 0.87424 0.1706 0.57925 0.0
H3567 H 0.8766 0.12444 0.53841 0.0
H3568 H 0.87312 0.18739 0.52843 0.0
H3569 H 0.85599 0.20951 0.52773 0.0
H3570 H 0.80787 0.16574 0.49463 0.0
H3571 H 0.82454 0.14318 0.49533 0.0
C3572 C 0.91571 0.13589 0.46509 0.0
C3573 C 0.90172 0.12694 0.45175 0.0
C3574 C 0.90783 0.13776 0.48009 0.0
C3575 C 0.88578 0.13065 0.4821 0.0
C3576 C 0.87174 0.12155 0.46885 0.0
C3577 C 0.8796 0.1196 0.45385 0.0
C3578 C 0.87754 0.13359 0.49782 0.0
C3579 C 0.8668 0.14527 0.49805 0.0
C3580 C 0.88115 0.12601 0.51258 0.0
C3581 C 0.89154 0.11278 0.51308 0.0
C3582 C 0.88333 0.09417 0.50373 0.0
C3583 C 0.89325 0.08182 0.5042 0.0
C3584 C 0.9113 0.08783 0.51408 0.0
C3585 C 0.91944 0.10619 0.52352 0.0
C3586 C 0.9096 0.11861 0.52308 0.0
C3587 C 0.82646 0.14514 0.55867 0.0
C3588 C 0.84099 0.15668 0.57122 0.0
C3589 C 0.83359 0.13969 0.54474 0.0
C3590 C 0.85543 0.14578 0.54296 0.0
C3591 C 0.86978 0.15628 0.55582 0.0
C3592 C 0.86263 0.1617 0.56983 0.0
C3593 C 0.86341 0.14222 0.52734 0.0
C3594 C 0.87417 0.13055 0.52715 0.0
C3595 C 0.85992 0.14989 0.51259 0.0
C3596 C 0.84995 0.16349 0.51206 0.0
C3597 C 0.85879 0.1824 0.5211 0.0
C3598 C 0.84918 0.19503 0.52069 0.0
C3599 C 0.83082 0.189 0.51117 0.0
C3600 C 0.82207 0.17036 0.50201 0.0
C3601 C 0.8316 0.15766 0.5024 0.0
H3602 H 0.82341 0.1988 0.51086 0.0
H3603 H 0.91895 0.07824 0.51443 0.0
H3604 H 0.87431 0.79373 0.4631 0.0
H3605 H 0.86916 0.77698 0.48951 0.0
H3606 H 0.8897 0.73501 0.47005 0.0
H3607 H 0.89463 0.75158 0.44347 0.0
H3608 H 0.85238 0.71358 0.48701 0.0
H3609 H 0.92191 0.77476 0.49606 0.0
H3610 H 0.94873 0.81287 0.49659 0.0
H3611 H 0.90989 0.82383 0.53038 0.0
H3612 H 0.88268 0.78581 0.52988 0.0
H3613 H 0.85266 0.66553 0.5603 0.0
H3614 H 0.86512 0.68638 0.53559 0.0
H3615 H 0.84915 0.73153 0.55555 0.0
H3616 H 0.83708 0.71085 0.58055 0.0
H3617 H 0.88505 0.75176 0.53836 0.0
H3618 H 0.81498 0.692 0.52867 0.0
H3619 H 0.78707 0.65423 0.52814 0.0
H3620 H 0.82538 0.64108 0.49539 0.0
H3621 H 0.85367 0.67875 0.4959 0.0
C3622 C 0.87784 0.78099 0.46444 0.0
C3623 C 0.88482 0.77395 0.45111 0.0
C3624 C 0.87504 0.77152 0.47961 0.0
C3625 C 0.87914 0.75476 0.48186 0.0
C3626 C 0.88647 0.74793 0.46865 0.0
C3627 C 0.88943 0.75752 0.45348 0.0
C3628 C 0.87468 0.74369 0.49774 0.0
C3629 C 0.85984 0.72189 0.49819 0.0
C3630 C 0.8838 0.75458 0.51246 0.0
C3631 C 0.90016 0.77745 0.51281 0.0
C3632 C 0.919 0.78532 0.5035 0.0
C3633 C 0.93429 0.8069 0.50382 0.0
C3634 C 0.93099 0.82077 0.51348 0.0
C3635 C 0.91242 0.81307 0.52289 0.0
C3636 C 0.89706 0.7915 0.5226 0.0
C3637 C 0.85195 0.67999 0.55948 0.0
C3638 C 0.84362 0.68639 0.57232 0.0
C3639 C 0.85902 0.69189 0.54531 0.0
C3640 C 0.85759 0.71031 0.54345 0.0
C3641 C 0.85031 0.71733 0.55659 0.0
C3642 C 0.84344 0.70552 0.5709 0.0
C3643 C 0.86284 0.72161 0.52761 0.0
C3644 C 0.87771 0.74344 0.52717 0.0
C3645 C 0.85357 0.7108 0.51287 0.0
C3646 C 0.83653 0.68816 0.51245 0.0
C3647 C 0.81752 0.68103 0.52144 0.0
C3648 C 0.80162 0.65964 0.52114 0.0
C3649 C 0.80448 0.64525 0.51177 0.0
C3650 C 0.82321 0.65224 0.50266 0.0
C3651 C 0.83917 0.67361 0.50294 0.0
H3652 H 0.79215 0.6287 0.51155 0.0
H3653 H 0.94285 0.83748 0.51372 0.0
loop_
_geom_bond_atom_site_label_1
_geom_bond_atom_site_label_2
_geom_bond_distance
_geom_bond_site_symmetry_2
_ccdc_geom_bond_type
H0 C3 0.929 . S
H1 C6 0.929 . S
H2 C8 0.930 . S
C3 H0 0.929 . S
C3 C4 1.398 . S
C3 C5 1.396 . S
C4 C3 1.398 . S
C4 C8 1.407 . S
C5 C3 1.396 . S
C5 C6 1.394 . S
C6 H1 0.929 . S
C6 C5 1.394 . S
C6 C7 1.382 . S
C7 C6 1.382 . S
C7 C8 1.392 . S
C7 N9 1.420 . S
C8 H2 0.930 . S
C8 C4 1.407 . S
C8 C7 1.392 . S
N9 C7 1.420 . S
N9 C10 1.244 . S
C10 N9 1.244 . S
H11 C14 0.929 . S
H12 C17 0.929 . S
H13 C19 0.930 . S
C14 H11 0.929 . S
C14 C15 1.398 . S
C14 C16 1.396 . S
C15 C14 1.398 . S
C15 C19 1.407 . S
C16 C14 1.396 . S
C16 C17 1.394 . S
C17 H12 0.929 . S
C17 C16 1.394 . S
C17 C18 1.382 . S
C18 C17 1.382 . S
C18 C19 1.392 . S
C18 N20 1.420 . S
C19 H13 0.930 . S
C19 C15 1.407 . S
C19 C18 1.392 . S
N20 C18 1.420 . S
N20 C21 1.244 . S
C21 N20 1.244 . S
H22 C25 0.929 . S
H23 C28 0.929 . S
H24 C30 0.930 . S
C25 H22 0.929 . S
C25 C26 1.398 . S
C25 C27 1.396 . S
C26 C25 1.398 . S
C26 C30 1.407 . S
C27 C25 1.396 . S
C27 C28 1.394 . S
C28 H23 0.929 . S
C28 C27 1.394 . S
C28 C29 1.382 . S
C29 C28 1.382 . S
C29 C30 1.392 . S
C29 N31 1.420 . S
C30 H24 0.930 . S
C30 C26 1.407 . S
C30 C29 1.392 . S
N31 C29 1.420 . S
N31 C32 1.244 . S
C32 N31 1.244 . S
H33 C36 0.929 . S
H34 C39 0.929 . S
H35 C41 0.930 . S
C36 H33 0.929 . S
C36 C37 1.398 . S
C36 C38 1.396 . S
C37 C36 1.398 . S
C37 C41 1.407 . S
C38 C36 1.396 . S
C38 C39 1.394 . S
C39 H34 0.929 . S
C39 C38 1.394 . S
C39 C40 1.382 . S
C40 C39 1.382 . S
C40 C41 1.392 . S
C40 N42 1.420 . S
C41 H35 0.930 . S
C41 C37 1.407 . S
C41 C40 1.392 . S
N42 C40 1.420 . S
N42 C43 1.244 . S
C43 N42 1.244 . S
H44 C47 0.929 . S
H45 C50 0.929 . S
H46 C52 0.930 . S
C47 H44 0.929 . S
C47 C48 1.398 . S
C47 C49 1.396 . S
C48 C47 1.398 . S
C48 C52 1.407 . S
C49 C47 1.396 . S
C49 C50 1.394 . S
C50 H45 0.929 . S
C50 C49 1.394 . S
C50 C51 1.382 . S
C51 C50 1.382 . S
C51 C52 1.392 . S
C51 N53 1.420 . S
C52 H46 0.930 . S
C52 C48 1.407 . S
C52 C51 1.392 . S
N53 C51 1.420 . S
N53 C54 1.244 . S
C54 N53 1.244 . S
H55 C58 0.929 . S
H56 C61 0.929 . S
H57 C63 0.930 . S
C58 H55 0.929 . S
C58 C59 1.398 . S
C58 C60 1.396 . S
C59 C58 1.398 . S
C59 C63 1.407 . S
C60 C58 1.396 . S
C60 C61 1.394 . S
C61 H56 0.929 . S
C61 C60 1.394 . S
C61 C62 1.382 . S
C62 C61 1.382 . S
C62 C63 1.392 . S
C62 N64 1.420 . S
C63 H57 0.930 . S
C63 C59 1.407 . S
C63 C62 1.392 . S
N64 C62 1.420 . S
N64 C65 1.244 . S
C65 N64 1.244 . S
H66 C69 0.929 . S
H67 C72 0.929 . S
H68 C74 0.930 . S
C69 H66 0.929 . S
C69 C70 1.398 . S
C69 C71 1.396 . S
C70 C69 1.398 . S
C70 C74 1.407 . S
C71 C69 1.396 . S
C71 C72 1.394 . S
C72 H67 0.929 . S
C72 C71 1.394 . S
C72 C73 1.382 . S
C73 C72 1.382 . S
C73 C74 1.392 . S
C73 N75 1.420 . S
C74 H68 0.930 . S
C74 C70 1.407 . S
C74 C73 1.392 . S
N75 C73 1.420 . S
N75 C76 1.244 . S
C76 N75 1.244 . S
H77 C80 0.929 . S
H78 C83 0.929 . S
H79 C85 0.930 . S
C80 H77 0.929 . S
C80 C81 1.398 . S
C80 C82 1.396 . S
C81 C80 1.398 . S
C81 C85 1.407 . S
C82 C80 1.396 . S
C82 C83 1.394 . S
C83 H78 0.929 . S
C83 C82 1.394 . S
C83 C84 1.382 . S
C84 C83 1.382 . S
C84 C85 1.392 . S
C84 N86 1.420 . S
C85 H79 0.930 . S
C85 C81 1.407 . S
C85 C84 1.392 . S
N86 C84 1.420 . S
N86 C87 1.244 . S
C87 N86 1.244 . S
H88 C91 0.929 . S
H89 C94 0.929 . S
H90 C96 0.930 . S
C91 H88 0.929 . S
C91 C92 1.398 . S
C91 C93 1.396 . S
C92 C91 1.398 . S
C92 C96 1.407 . S
C93 C91 1.396 . S
C93 C94 1.394 . S
C94 H89 0.929 . S
C94 C93 1.394 . S
C94 C95 1.382 . S
C95 C94 1.382 . S
C95 C96 1.392 . S
C95 N97 1.420 . S
C96 H90 0.930 . S
C96 C92 1.407 . S
C96 C95 1.392 . S
N97 C95 1.420 . S
N97 C98 1.244 . S
C98 N97 1.244 . S
H99 C102 0.929 . S
H100 C105 0.929 . S
H101 C107 0.930 . S
C102 H99 0.929 . S
C102 C103 1.398 . S
C102 C104 1.396 . S
C103 C102 1.398 . S
C103 C107 1.407 . S
C104 C102 1.396 . S
C104 C105 1.394 . S
C105 H100 0.929 . S
C105 C104 1.394 . S
C105 C106 1.382 . S
C106 C105 1.382 . S
C106 C107 1.392 . S
C106 N108 1.420 . S
C107 H101 0.930 . S
C107 C103 1.407 . S
C107 C106 1.392 . S
N108 C106 1.420 . S
N108 C109 1.244 . S
C109 N108 1.244 . S
H110 C113 0.929 . S
H111 C116 0.929 . S
H112 C118 0.930 . S
C113 H110 0.929 . S
C113 C114 1.398 . S
C113 C115 1.396 . S
C114 C113 1.398 . S
C114 C118 1.407 . S
C115 C113 1.396 . S
C115 C116 1.394 . S
C116 H111 0.929 . S
C116 C115 1.394 . S
C116 C117 1.382 . S
C117 C116 1.382 . S
C117 C118 1.392 . S
C117 N119 1.420 . S
C118 H112 0.930 . S
C118 C114 1.407 . S
C118 C117 1.392 . S
N119 C117 1.420 . S
N119 C120 1.244 . S
C120 N119 1.244 . S
H121 C124 0.929 . S
H122 C127 0.929 . S
H123 C129 0.930 . S
C124 H121 0.929 . S
C124 C125 1.398 . S
C124 C126 1.396 . S
C125 C124 1.398 . S
C125 C129 1.407 . S
C126 C124 1.396 . S
C126 C127 1.394 . S
C127 H122 0.929 . S
C127 C126 1.394 . S
C127 C128 1.382 . S
C128 C127 1.382 . S
C128 C129 1.392 . S
C128 N130 1.420 . S
C129 H123 0.930 . S
C129 C125 1.407 . S
C129 C128 1.392 . S
N130 C128 1.420 . S
N130 C131 1.244 . S
C131 N130 1.244 . S
H132 C135 0.929 . S
H133 C138 0.929 . S
H134 C140 0.930 . S
C135 H132 0.929 . S
C135 C136 1.398 . S
C135 C137 1.396 . S
C136 C135 1.398 . S
C136 C140 1.407 . S
C137 C135 1.396 . S
C137 C138 1.394 . S
C138 H133 0.929 . S
C138 C137 1.394 . S
C138 C139 1.382 . S
C139 C138 1.382 . S
C139 C140 1.392 . S
C139 N141 1.420 . S
C140 H134 0.930 . S
C140 C136 1.407 . S
C140 C139 1.392 . S
N141 C139 1.420 . S
N141 C142 1.244 . S
C142 N141 1.244 . S
H143 C146 0.929 . S
H144 C149 0.929 . S
H145 C151 0.930 . S
C146 H143 0.929 . S
C146 C147 1.398 . S
C146 C148 1.396 . S
C147 C146 1.398 . S
C147 C151 1.407 . S
C148 C146 1.396 . S
C148 C149 1.394 . S
C149 H144 0.929 . S
C149 C148 1.394 . S
C149 C150 1.382 . S
C150 C149 1.382 . S
C150 C151 1.392 . S
C150 N152 1.420 . S
C151 H145 0.930 . S
C151 C147 1.407 . S
C151 C150 1.392 . S
N152 C150 1.420 . S
N152 C153 1.244 . S
C153 N152 1.244 . S
H154 C157 0.929 . S
H155 C160 0.929 . S
H156 C162 0.930 . S
C157 H154 0.929 . S
C157 C158 1.398 . S
C157 C159 1.396 . S
C158 C157 1.398 . S
C158 C162 1.407 . S
C159 C157 1.396 . S
C159 C160 1.394 . S
C160 H155 0.929 . S
C160 C159 1.394 . S
C160 C161 1.382 . S
C161 C160 1.382 . S
C161 C162 1.392 . S
C161 N163 1.420 . S
C162 H156 0.930 . S
C162 C158 1.407 . S
C162 C161 1.392 . S
N163 C161 1.420 . S
N163 C164 1.244 . S
C164 N163 1.244 . S
H165 C168 0.929 . S
H166 C171 0.929 . S
H167 C173 0.930 . S
C168 H165 0.929 . S
C168 C169 1.398 . S
C168 C170 1.396 . S
C169 C168 1.398 . S
C169 C173 1.407 . S
C170 C168 1.396 . S
C170 C171 1.394 . S
C171 H166 0.929 . S
C171 C170 1.394 . S
C171 C172 1.382 . S
C172 C171 1.382 . S
C172 C173 1.392 . S
C172 N174 1.420 . S
C173 H167 0.930 . S
C173 C169 1.407 . S
C173 C172 1.392 . S
N174 C172 1.420 . S
N174 C175 1.244 . S
C175 N174 1.244 . S
H176 C179 0.929 . S
H177 C182 0.929 . S
H178 C184 0.930 . S
C179 H176 0.929 . S
C179 C180 1.398 . S
C179 C181 1.396 . S
C180 C179 1.398 . S
C180 C184 1.407 . S
C181 C179 1.396 . S
C181 C182 1.394 . S
C182 H177 0.929 . S
C182 C181 1.394 . S
C182 C183 1.382 . S
C183 C182 1.382 . S
C183 C184 1.392 . S
C183 N185 1.420 . S
C184 H178 0.930 . S
C184 C180 1.407 . S
C184 C183 1.392 . S
N185 C183 1.420 . S
N185 C186 1.244 . S
C186 N185 1.244 . S
H187 C190 0.929 . S
H188 C193 0.929 . S
H189 C195 0.930 . S
C190 H187 0.929 . S
C190 C191 1.398 . S
C190 C192 1.396 . S
C191 C190 1.398 . S
C191 C195 1.407 . S
C192 C190 1.396 . S
C192 C193 1.394 . S
C193 H188 0.929 . S
C193 C192 1.394 . S
C193 C194 1.382 . S
C194 C193 1.382 . S
C194 C195 1.392 . S
C194 N196 1.420 . S
C195 H189 0.930 . S
C195 C191 1.407 . S
C195 C194 1.392 . S
N196 C194 1.420 . S
N196 C197 1.244 . S
C197 N196 1.244 . S
Tb198 N229 2.660 . S
Tb198 N236 2.600 . S
Tb198 O242 2.546 . S
Tb198 O243 2.610 1_566 S
Tb198 O245 2.320 1_565 S
Tb198 O246 2.552 1_565 S
Tb198 O247 2.413 1_565 S
Tb198 O249 2.362 1_556 S
Tb198 O250 2.421 1_556 S
Tb198 C262 2.833 1_565 S
C199 C202 1.432 . S
C199 C203 1.414 . S
C199 N206 1.359 . S
C200 C202 1.417 . S
C200 C204 1.432 . S
C200 C212 1.410 . S
C201 C203 1.444 . S
C201 C204 1.317 . S
C201 H224 0.929 . S
C202 C199 1.432 . S
C202 C200 1.417 . S
C202 N210 1.360 . S
C203 C199 1.414 . S
C203 C201 1.444 . S
C203 C208 1.385 . S
C204 C200 1.432 . S
C204 C201 1.317 . S
C204 H216 0.930 . S
C205 C207 1.392 . S
C205 C208 1.370 . S
C205 H217 0.931 . S
N206 C199 1.359 . S
N206 C207 1.327 . S
N206 Tb209 2.600 . S
C207 C205 1.392 . S
C207 N206 1.327 . S
C207 H214 0.930 . S
C208 C203 1.385 . S
C208 C205 1.370 . S
C208 H227 0.930 . S
Tb209 N206 2.600 . S
Tb209 N210 2.660 . S
Tb209 O243 2.362 . S
Tb209 O244 2.421 . S
Tb209 O248 2.546 . S
Tb209 O249 2.610 1_545 S
Tb209 O251 2.320 1_545 S
Tb209 O252 2.552 1_545 S
Tb209 O253 2.413 1_545 S
Tb209 C273 2.833 . S
N210 C202 1.360 . S
N210 Tb209 2.660 . S
N210 C211 1.305 . S
C211 N210 1.305 . S
C211 C213 1.407 . S
C211 H218 0.930 . S
C212 C200 1.410 . S
C212 C213 1.345 . S
C212 H220 0.930 . S
C213 C211 1.407 . S
C213 C212 1.345 . S
C213 H215 0.930 . S
H214 C207 0.930 . S
H215 C213 0.930 . S
H216 C204 0.930 . S
H217 C205 0.931 . S
H218 C211 0.930 . S
H219 C233 0.930 . S
H220 C212 0.930 . S
H221 C239 0.930 . S
H222 C230 0.948 . S
H223 C237 0.931 . S
H224 C201 0.929 . S
H225 C231 0.930 . S
H226 C264 0.930 . S
H227 C208 0.930 . S
H228 C263 0.929 . S
N229 Tb198 2.660 . S
N229 C230 1.305 . S
N229 C234 1.360 . S
C230 H222 0.948 . S
C230 N229 1.305 . S
C230 C233 1.407 . S
C231 H225 0.930 . S
C231 C232 1.410 . S
C231 C233 1.345 . S
C232 C231 1.410 . S
C232 C234 1.417 . S
C232 C264 1.432 . S
C233 H219 0.930 . S
C233 C230 1.407 . S
C233 C231 1.345 . S
C234 N229 1.360 . S
C234 C232 1.417 . S
C234 C238 1.432 . S
H235 C240 0.930 . S
N236 Tb198 2.600 . S
N236 C238 1.359 . S
N236 C239 1.327 . S
C237 H223 0.931 . S
C237 C239 1.392 . S
C237 C240 1.370 . S
C238 C234 1.432 . S
C238 N236 1.359 . S
C238 C241 1.414 . S
C239 H221 0.930 . S
C239 N236 1.327 . S
C239 C237 1.392 . S
C240 H235 0.930 . S
C240 C237 1.370 . S
C240 C241 1.385 . S
C241 C238 1.414 . S
C241 C240 1.385 . S
C241 C263 1.444 . S
O242 Tb198 2.546 . S
O242 C262 1.251 1_565 S
O243 Tb198 2.610 1_544 S
O243 Tb209 2.362 . S
O243 C254 1.283 1_554 S
O244 Tb209 2.421 . S
O244 C261 1.262 . S
O245 Tb198 2.320 1_545 S
O245 C261 1.260 1_556 S
O246 Tb198 2.552 1_545 S
O246 C254 1.243 . S
O247 Tb198 2.413 1_545 S
O247 C262 1.256 . S
O248 Tb209 2.546 . S
O248 C273 1.251 . S
O249 Tb198 2.362 1_554 S
O249 Tb209 2.610 1_565 S
O249 C265 1.283 . S
O250 Tb198 2.421 1_554 S
O250 C272 1.262 . S
O251 Tb209 2.320 1_565 S
O251 C272 1.260 . S
O252 Tb209 2.552 1_565 S
O252 C265 1.243 . S
O253 Tb209 2.413 1_565 S
O253 C273 1.256 1_565 S
C254 O243 1.283 1_556 S
C254 O246 1.243 . S
C255 C257 1.382 . S
C255 C259 1.393 1_545 S
C255 C262 1.500 . S
C256 C257 1.400 . S
C256 C258 1.384 . S
C257 C255 1.382 . S
C257 C256 1.400 . S
C257 H274 0.930 . S
C258 C256 1.384 . S
C258 C260 1.339 1_545 S
C258 H275 0.931 . S
C259 C255 1.393 1_565 S
C259 C260 1.412 . S
C259 H276 0.930 . S
C260 C258 1.339 1_565 S
C260 C259 1.412 . S
C260 H277 0.974 . S
C261 O244 1.262 . S
C261 O245 1.260 1_554 S
C262 Tb198 2.833 1_545 S
C262 O242 1.251 1_545 S
C262 O247 1.256 . S
C262 C255 1.500 . S
C263 H228 0.929 . S
C263 C241 1.444 . S
C263 C264 1.317 . S
C264 H226 0.930 . S
C264 C232 1.432 . S
C264 C263 1.317 . S
C265 O249 1.283 . S
C265 O252 1.243 . S
C266 C267 1.348 1_545 S
C266 C270 1.421 . S
C266 C273 1.506 . S
C267 C266 1.348 1_565 S
C267 C268 1.400 . S
C267 H278 0.930 . S
C268 C267 1.400 . S
C268 C269 1.384 . S
C269 C268 1.384 . S
C269 C271 1.392 1_565 S
C269 H279 0.931 . S
C270 C266 1.421 . S
C270 C271 1.401 . S
C270 H280 0.930 . S
C271 C269 1.392 1_545 S
C271 C270 1.401 . S
C271 H281 0.930 . S
C272 O250 1.262 . S
C272 O251 1.260 . S
C273 Tb209 2.833 . S
C273 O248 1.251 . S
C273 O253 1.256 1_545 S
C273 C266 1.506 . S
H274 C257 0.930 . S
H275 C258 0.931 . S
H276 C259 0.930 . S
H277 C260 0.974 . S
H278 C267 0.930 . S
H279 C269 0.931 . S
H280 C270 0.930 . S
H281 C271 0.930 . S
Tb282 N313 2.660 . S
Tb282 N320 2.600 . S
Tb282 O326 2.546 . S
Tb282 O327 2.610 1_456 S
Tb282 O329 2.320 1_455 S
Tb282 O330 2.552 1_455 S
Tb282 O331 2.422 . S
Tb282 O333 2.362 1_556 S
Tb282 O334 2.421 1_556 S
Tb282 C346 2.833 . S
C283 C286 1.432 . S
C283 C287 1.414 . S
C283 N290 1.359 . S
C284 C286 1.417 . S
C284 C288 1.432 . S
C284 C296 1.410 . S
C285 C287 1.444 . S
C285 C288 1.317 . S
C285 H308 0.929 . S
C286 C283 1.432 . S
C286 C284 1.417 . S
C286 N294 1.360 . S
C287 C283 1.414 . S
C287 C285 1.444 . S
C287 C292 1.385 . S
C288 C284 1.432 . S
C288 C285 1.317 . S
C288 H300 0.930 . S
C289 C291 1.392 . S
C289 C292 1.370 . S
C289 H301 0.931 . S
N290 C283 1.359 . S
N290 C291 1.327 . S
N290 Tb293 2.600 . S
C291 C289 1.392 . S
C291 N290 1.327 . S
C291 H298 0.930 . S
C292 C287 1.385 . S
C292 C289 1.370 . S
C292 H311 0.930 . S
Tb293 N290 2.600 . S
Tb293 N294 2.660 . S
Tb293 O327 2.362 . S
Tb293 O328 2.421 . S
Tb293 O332 2.546 . S
Tb293 O333 2.610 1_655 S
Tb293 O335 2.320 1_655 S
Tb293 O336 2.552 1_655 S
Tb293 O337 2.413 1_655 S
Tb293 C357 2.825 1_655 S
N294 C286 1.360 . S
N294 Tb293 2.660 . S
N294 C295 1.305 . S
C295 N294 1.305 . S
C295 C297 1.407 . S
C295 H302 0.941 . S
C296 C284 1.410 . S
C296 C297 1.345 . S
C296 H304 0.930 . S
C297 C295 1.407 . S
C297 C296 1.345 . S
C297 H299 0.930 . S
H298 C291 0.930 . S
H299 C297 0.930 . S
H300 C288 0.930 . S
H301 C289 0.931 . S
H302 C295 0.941 . S
H303 C317 0.930 . S
H304 C296 0.930 . S
H305 C323 0.930 . S
H306 C314 0.930 . S
H307 C321 0.931 . S
H308 C285 0.929 . S
H309 C315 0.930 . S
H310 C348 0.930 . S
H311 C292 0.930 . S
H312 C347 0.929 . S
N313 Tb282 2.660 . S
N313 C314 1.305 . S
N313 C318 1.360 . S
C314 H306 0.930 . S
C314 N313 1.305 . S
C314 C317 1.407 . S
C315 H309 0.930 . S
C315 C316 1.410 . S
C315 C317 1.345 . S
C316 C315 1.410 . S
C316 C318 1.417 . S
C316 C348 1.432 . S
C317 H303 0.930 . S
C317 C314 1.407 . S
C317 C315 1.345 . S
C318 N313 1.360 . S
C318 C316 1.417 . S
C318 C322 1.432 . S
H319 C324 0.930 . S
N320 Tb282 2.600 . S
N320 C322 1.359 . S
N320 C323 1.327 . S
C321 H307 0.931 . S
C321 C323 1.392 . S
C321 C324 1.370 . S
C322 C318 1.432 . S
C322 N320 1.359 . S
C322 C325 1.414 . S
C323 H305 0.930 . S
C323 N320 1.327 . S
C323 C321 1.392 . S
C324 H319 0.930 . S
C324 C321 1.370 . S
C324 C325 1.385 . S
C325 C322 1.414 . S
C325 C324 1.385 . S
C325 C347 1.444 . S
O326 Tb282 2.546 . S
O326 C346 1.251 . S
O327 Tb282 2.610 1_654 S
O327 Tb293 2.362 . S
O327 C338 1.283 1_554 S
O328 Tb293 2.421 . S
O328 C345 1.262 . S
O329 Tb282 2.320 1_655 S
O329 C345 1.260 1_556 S
O330 Tb282 2.552 1_655 S
O330 C338 1.243 . S
O331 Tb282 2.422 . S
O331 C346 1.254 . S
O332 Tb293 2.546 . S
O332 C357 1.244 1_655 S
O333 Tb282 2.362 1_554 S
O333 Tb293 2.610 1_455 S
O333 C349 1.283 . S
O334 Tb282 2.421 1_554 S
O334 C356 1.262 . S
O335 Tb293 2.320 1_455 S
O335 C356 1.260 . S
O336 Tb293 2.552 1_455 S
O336 C349 1.243 . S
O337 Tb293 2.413 1_455 S
O337 C357 1.254 . S
C338 O327 1.283 1_556 S
C338 O330 1.243 . S
C339 C341 1.382 1_455 S
C339 C343 1.393 . S
C339 C346 1.500 . S
C340 C341 1.400 . S
C340 C342 1.384 . S
C341 C339 1.382 1_655 S
C341 C340 1.400 . S
C341 H358 0.930 . S
C342 C340 1.384 . S
C342 C344 1.392 1_655 S
C342 H359 0.931 . S
C343 C339 1.393 . S
C343 C344 1.401 . S
C343 H360 0.930 . S
C344 C342 1.392 1_455 S
C344 C343 1.401 . S
C344 H361 0.930 . S
C345 O328 1.262 . S
C345 O329 1.260 1_554 S
C346 Tb282 2.833 . S
C346 O326 1.251 . S
C346 O331 1.254 . S
C346 C339 1.500 . S
C347 H312 0.929 . S
C347 C325 1.444 . S
C347 C348 1.317 . S
C348 H310 0.930 . S
C348 C316 1.432 . S
C348 C347 1.317 . S
C349 O333 1.283 . S
C349 O336 1.243 . S
C350 C351 1.382 . S
C350 C354 1.393 1_455 S
C350 C357 1.511 . S
C351 C350 1.382 . S
C351 C352 1.400 . S
C351 H362 0.930 . S
C352 C351 1.400 . S
C352 C353 1.384 . S
C353 C352 1.384 . S
C353 C355 1.392 1_455 S
C353 H363 0.931 . S
C354 C350 1.393 1_655 S
C354 C355 1.401 . S
C354 H364 0.930 . S
C355 C353 1.392 1_655 S
C355 C354 1.401 . S
C355 H365 0.930 . S
C356 O334 1.262 . S
C356 O335 1.260 . S
C357 Tb293 2.825 1_455 S
C357 O332 1.244 1_455 S
C357 O337 1.254 . S
C357 C350 1.511 . S
H358 C341 0.930 . S
H359 C342 0.931 . S
H360 C343 0.930 . S
H361 C344 0.930 . S
H362 C351 0.930 . S
H363 C353 0.931 . S
H364 C354 0.930 . S
H365 C355 0.930 . S
Tb366 N397 2.660 . S
Tb366 N404 2.600 . S
Tb366 O410 2.546 . S
Tb366 O411 2.610 . S
Tb366 O413 2.320 . S
Tb366 O414 2.552 . S
Tb366 O415 2.413 . S
Tb366 O417 2.362 . S
Tb366 O418 2.421 . S
Tb366 C430 2.833 . S
C367 C370 1.432 . S
C367 C371 1.414 . S
C367 N374 1.359 . S
C368 C370 1.417 . S
C368 C372 1.432 . S
C368 C380 1.410 . S
C369 C371 1.444 . S
C369 C372 1.317 . S
C369 H392 0.929 . S
C370 C367 1.432 . S
C370 C368 1.417 . S
C370 N378 1.360 . S
C371 C367 1.414 . S
C371 C369 1.444 . S
C371 C376 1.385 . S
C372 C368 1.432 . S
C372 C369 1.317 . S
C372 H384 0.930 . S
C373 C375 1.392 . S
C373 C376 1.370 . S
C373 H385 0.931 . S
N374 C367 1.359 . S
N374 C375 1.327 . S
N374 Tb377 2.600 . S
C375 C373 1.392 . S
C375 N374 1.327 . S
C375 H382 0.930 . S
C376 C371 1.385 . S
C376 C373 1.370 . S
C376 H395 0.930 . S
Tb377 N374 2.600 . S
Tb377 N378 2.660 . S
Tb377 O411 2.362 1_556 S
Tb377 O412 2.421 1_556 S
Tb377 O416 2.546 . S
Tb377 O417 2.610 1_556 S
Tb377 O419 2.320 . S
Tb377 O420 2.552 . S
Tb377 O421 2.413 . S
Tb377 C441 2.833 . S
N378 C370 1.360 . S
N378 Tb377 2.660 . S
N378 C379 1.305 . S
C379 N378 1.305 . S
C379 C381 1.407 . S
C379 H386 0.930 . S
C380 C368 1.410 . S
C380 C381 1.345 . S
C380 H388 0.930 . S
C381 C379 1.407 . S
C381 C380 1.345 . S
C381 H383 0.930 . S
H382 C375 0.930 . S
H383 C381 0.930 . S
H384 C372 0.930 . S
H385 C373 0.931 . S
H386 C379 0.930 . S
H387 C401 0.930 . S
H388 C380 0.930 . S
H389 C407 0.930 . S
H390 C398 0.930 . S
H391 C405 0.931 . S
H392 C369 0.929 . S
H393 C399 0.930 . S
H394 C432 0.930 . S
H395 C376 0.930 . S
H396 C431 0.929 . S
N397 Tb366 2.660 . S
N397 C398 1.305 . S
N397 C402 1.360 . S
C398 H390 0.930 . S
C398 N397 1.305 . S
C398 C401 1.407 . S
C399 H393 0.930 . S
C399 C400 1.410 . S
C399 C401 1.345 . S
C400 C399 1.410 . S
C400 C402 1.417 . S
C400 C432 1.432 . S
C401 H387 0.930 . S
C401 C398 1.407 . S
C401 C399 1.345 . S
C402 N397 1.360 . S
C402 C400 1.417 . S
C402 C406 1.432 . S
H403 C408 0.930 . S
N404 Tb366 2.600 . S
N404 C406 1.359 . S
N404 C407 1.327 . S
C405 H391 0.931 . S
C405 C407 1.392 . S
C405 C408 1.370 . S
C406 C402 1.432 . S
C406 N404 1.359 . S
C406 C409 1.414 . S
C407 H389 0.930 . S
C407 N404 1.327 . S
C407 C405 1.392 . S
C408 H403 0.930 . S
C408 C405 1.370 . S
C408 C409 1.385 . S
C409 C406 1.414 . S
C409 C408 1.385 . S
C409 C431 1.444 . S
O410 Tb366 2.546 . S
O410 C430 1.251 . S
O411 Tb366 2.610 . S
O411 Tb377 2.362 1_554 S
O411 C422 1.283 . S
O412 Tb377 2.421 1_554 S
O412 C429 1.262 . S
O413 Tb366 2.320 . S
O413 C429 1.260 . S
O414 Tb366 2.552 . S
O414 C422 1.243 . S
O415 Tb366 2.413 . S
O415 C430 1.256 . S
O416 Tb377 2.546 . S
O416 C441 1.251 . S
O417 Tb366 2.362 . S
O417 Tb377 2.610 1_554 S
O417 C433 1.283 1_554 S
O418 Tb366 2.421 . S
O418 C440 1.262 . S
O419 Tb377 2.320 . S
O419 C440 1.260 1_556 S
O420 Tb377 2.552 . S
O420 C433 1.243 . S
O421 Tb377 2.413 . S
O421 C441 1.256 . S
C422 O411 1.283 . S
C422 O414 1.243 . S
C423 C425 1.382 . S
C423 C427 1.393 . S
C423 C430 1.500 . S
C424 C425 1.400 . S
C424 C426 1.384 . S
C425 C423 1.382 . S
C425 C424 1.400 . S
C425 H442 0.930 . S
C426 C424 1.384 . S
C426 C428 1.392 . S
C426 H443 0.931 . S
C427 C423 1.393 . S
C427 C428 1.401 . S
C427 H444 0.930 . S
C428 C426 1.392 . S
C428 C427 1.401 . S
C428 H445 0.930 . S
C429 O412 1.262 . S
C429 O413 1.260 . S
C430 Tb366 2.833 . S
C430 O410 1.251 . S
C430 O415 1.256 . S
C430 C423 1.500 . S
C431 H396 0.929 . S
C431 C409 1.444 . S
C431 C432 1.317 . S
C432 H394 0.930 . S
C432 C400 1.432 . S
C432 C431 1.317 . S
C433 O417 1.283 1_556 S
C433 O420 1.243 . S
C434 C435 1.382 . S
C434 C438 1.393 . S
C434 C441 1.500 . S
C435 C434 1.382 . S
C435 C436 1.400 . S
C435 H446 0.930 . S
C436 C435 1.400 . S
C436 C437 1.384 . S
C437 C436 1.384 . S
C437 C439 1.392 . S
C437 H447 0.931 . S
C438 C434 1.393 . S
C438 C439 1.401 . S
C438 H448 0.930 . S
C439 C437 1.392 . S
C439 C438 1.401 . S
C439 H449 0.930 . S
C440 O418 1.262 . S
C440 O419 1.260 1_554 S
C441 Tb377 2.833 . S
C441 O416 1.251 . S
C441 O421 1.256 . S
C441 C434 1.500 . S
H442 C425 0.930 . S
H443 C426 0.931 . S
H444 C427 0.930 . S
H445 C428 0.930 . S
H446 C435 0.930 . S
H447 C437 0.931 . S
H448 C438 0.930 . S
H449 C439 0.930 . S
Tb450 N481 2.660 . S
Tb450 N488 2.600 . S
Tb450 O494 2.546 . S
Tb450 O495 2.610 . S
Tb450 O497 2.320 . S
Tb450 O498 2.552 . S
Tb450 O499 2.413 . S
Tb450 O501 2.362 . S
Tb450 O502 2.421 . S
Tb450 C514 2.833 . S
C451 C454 1.432 . S
C451 C455 1.414 . S
C451 N458 1.359 . S
C452 C454 1.417 . S
C452 C456 1.432 . S
C452 C464 1.410 . S
C453 C455 1.444 . S
C453 C456 1.317 . S
C453 H476 0.929 . S
C454 C451 1.432 . S
C454 C452 1.417 . S
C454 N462 1.360 . S
C455 C451 1.414 . S
C455 C453 1.444 . S
C455 C460 1.385 . S
C456 C452 1.432 . S
C456 C453 1.317 . S
C456 H468 0.930 . S
C457 C459 1.392 . S
C457 C460 1.370 . S
C457 H469 0.931 . S
N458 C451 1.359 . S
N458 C459 1.327 . S
N458 Tb461 2.600 . S
C459 C457 1.392 . S
C459 N458 1.327 . S
C459 H466 0.930 . S
C460 C455 1.385 . S
C460 C457 1.370 . S
C460 H479 0.930 . S
Tb461 N458 2.600 . S
Tb461 N462 2.660 . S
Tb461 O495 2.362 . S
Tb461 O496 2.421 . S
Tb461 O500 2.546 . S
Tb461 O501 2.610 . S
Tb461 O503 2.320 . S
Tb461 O504 2.552 . S
Tb461 O505 2.413 . S
Tb461 C525 2.833 . S
N462 C454 1.360 . S
N462 Tb461 2.660 . S
N462 C463 1.305 . S
C463 N462 1.305 . S
C463 C465 1.407 . S
C463 H470 0.930 . S
C464 C452 1.410 . S
C464 C465 1.345 . S
C464 H472 0.930 . S
C465 C463 1.407 . S
C465 C464 1.345 . S
C465 H467 0.930 . S
H466 C459 0.930 . S
H467 C465 0.930 . S
H468 C456 0.930 . S
H469 C457 0.931 . S
H470 C463 0.930 . S
H471 C485 0.930 . S
H472 C464 0.930 . S
H473 C491 0.930 . S
H474 C482 0.930 . S
H475 C489 0.931 . S
H476 C453 0.929 . S
H477 C483 0.930 . S
H478 C516 0.930 . S
H479 C460 0.930 . S
H480 C515 0.929 . S
N481 Tb450 2.660 . S
N481 C482 1.305 . S
N481 C486 1.360 . S
C482 H474 0.930 . S
C482 N481 1.305 . S
C482 C485 1.407 . S
C483 H477 0.930 . S
C483 C484 1.410 . S
C483 C485 1.345 . S
C484 C483 1.410 . S
C484 C486 1.417 . S
C484 C516 1.432 . S
C485 H471 0.930 . S
C485 C482 1.407 . S
C485 C483 1.345 . S
C486 N481 1.360 . S
C486 C484 1.417 . S
C486 C490 1.432 . S
H487 C492 0.930 . S
N488 Tb450 2.600 . S
N488 C490 1.359 . S
N488 C491 1.327 . S
C489 H475 0.931 . S
C489 C491 1.392 . S
C489 C492 1.370 . S
C490 C486 1.432 . S
C490 N488 1.359 . S
C490 C493 1.414 . S
C491 H473 0.930 . S
C491 N488 1.327 . S
C491 C489 1.392 . S
C492 H487 0.930 . S
C492 C489 1.370 . S
C492 C493 1.385 . S
C493 C490 1.414 . S
C493 C492 1.385 . S
C493 C515 1.444 . S
O494 Tb450 2.546 . S
O494 C514 1.251 . S
O495 Tb450 2.610 . S
O495 Tb461 2.362 . S
O495 C506 1.283 . S
O496 Tb461 2.421 . S
O496 C513 1.262 . S
O497 Tb450 2.320 . S
O497 C513 1.260 . S
O498 Tb450 2.552 . S
O498 C506 1.243 . S
O499 Tb450 2.413 . S
O499 C514 1.256 . S
O500 Tb461 2.546 . S
O500 C525 1.251 . S
O501 Tb450 2.362 . S
O501 Tb461 2.610 . S
O501 C517 1.283 . S
O502 Tb450 2.421 . S
O502 C524 1.262 . S
O503 Tb461 2.320 . S
O503 C524 1.260 . S
O504 Tb461 2.552 . S
O504 C517 1.243 . S
O505 Tb461 2.413 . S
O505 C525 1.256 . S
C506 O495 1.283 . S
C506 O498 1.243 . S
C507 C509 1.382 . S
C507 C511 1.393 . S
C507 C514 1.500 . S
C508 C509 1.400 . S
C508 C510 1.384 . S
C509 C507 1.382 . S
C509 C508 1.400 . S
C509 H526 0.930 . S
C510 C508 1.384 . S
C510 C512 1.392 . S
C510 H527 0.931 . S
C511 C507 1.393 . S
C511 C512 1.401 . S
C511 H528 0.930 . S
C512 C510 1.392 . S
C512 C511 1.401 . S
C512 H529 0.930 . S
C513 O496 1.262 . S
C513 O497 1.260 . S
C514 Tb450 2.833 . S
C514 O494 1.251 . S
C514 O499 1.256 . S
C514 C507 1.500 . S
C515 H480 0.929 . S
C515 C493 1.444 . S
C515 C516 1.317 . S
C516 H478 0.930 . S
C516 C484 1.432 . S
C516 C515 1.317 . S
C517 O501 1.283 . S
C517 O504 1.243 . S
C518 C519 1.382 . S
C518 C522 1.393 . S
C518 C525 1.500 . S
C519 C518 1.382 . S
C519 C520 1.400 . S
C519 H530 0.930 . S
C520 C519 1.400 . S
C520 C521 1.384 . S
C521 C520 1.384 . S
C521 C523 1.392 . S
C521 H531 0.931 . S
C522 C518 1.393 . S
C522 C523 1.401 . S
C522 H532 0.930 . S
C523 C521 1.392 . S
C523 C522 1.401 . S
C523 H533 0.930 . S
C524 O502 1.262 . S
C524 O503 1.260 . S
C525 Tb461 2.833 . S
C525 O500 1.251 . S
C525 O505 1.256 . S
C525 C518 1.500 . S
H526 C509 0.930 . S
H527 C510 0.931 . S
H528 C511 0.930 . S
H529 C512 0.930 . S
H530 C519 0.930 . S
H531 C521 0.931 . S
H532 C522 0.930 . S
H533 C523 0.930 . S
Tb534 N565 2.660 . S
Tb534 N572 2.600 . S
Tb534 O578 2.546 . S
Tb534 O579 2.610 . S
Tb534 O581 2.320 . S
Tb534 O582 2.552 . S
Tb534 O583 2.413 . S
Tb534 O585 2.362 . S
Tb534 O586 2.421 . S
Tb534 C598 2.833 . S
C535 C538 1.432 . S
C535 C539 1.414 . S
C535 N542 1.359 . S
C536 C538 1.417 . S
C536 C540 1.432 . S
C536 C548 1.410 . S
C537 C539 1.444 . S
C537 C540 1.317 . S
C537 H560 0.929 . S
C538 C535 1.432 . S
C538 C536 1.417 . S
C538 N546 1.360 . S
C539 C535 1.414 . S
C539 C537 1.444 . S
C539 C544 1.385 . S
C540 C536 1.432 . S
C540 C537 1.317 . S
C540 H552 0.930 . S
C541 C543 1.392 . S
C541 C544 1.370 . S
C541 H553 0.931 . S
N542 C535 1.359 . S
N542 C543 1.327 . S
N542 Tb545 2.600 . S
C543 C541 1.392 . S
C543 N542 1.327 . S
C543 H550 0.930 . S
C544 C539 1.385 . S
C544 C541 1.370 . S
C544 H563 0.930 . S
Tb545 N542 2.600 . S
Tb545 N546 2.660 . S
Tb545 O579 2.362 . S
Tb545 O580 2.421 . S
Tb545 O584 2.546 . S
Tb545 O585 2.610 . S
Tb545 O587 2.320 . S
Tb545 O588 2.552 . S
Tb545 O589 2.413 . S
Tb545 C609 2.833 . S
N546 C538 1.360 . S
N546 Tb545 2.660 . S
N546 C547 1.305 . S
C547 N546 1.305 . S
C547 C549 1.407 . S
C547 H554 0.930 . S
C548 C536 1.410 . S
C548 C549 1.345 . S
C548 H556 0.930 . S
C549 C547 1.407 . S
C549 C548 1.345 . S
C549 H551 0.930 . S
H550 C543 0.930 . S
H551 C549 0.930 . S
H552 C540 0.930 . S
H553 C541 0.931 . S
H554 C547 0.930 . S
H555 C569 0.930 . S
H556 C548 0.930 . S
H557 C575 0.930 . S
H558 C566 0.930 . S
H559 C573 0.931 . S
H560 C537 0.929 . S
H561 C567 0.930 . S
H562 C600 0.930 . S
H563 C544 0.930 . S
H564 C599 0.929 . S
N565 Tb534 2.660 . S
N565 C566 1.305 . S
N565 C570 1.360 . S
C566 H558 0.930 . S
C566 N565 1.305 . S
C566 C569 1.407 . S
C567 H561 0.930 . S
C567 C568 1.410 . S
C567 C569 1.345 . S
C568 C567 1.410 . S
C568 C570 1.417 . S
C568 C600 1.432 . S
C569 H555 0.930 . S
C569 C566 1.407 . S
C569 C567 1.345 . S
C570 N565 1.360 . S
C570 C568 1.417 . S
C570 C574 1.432 . S
H571 C576 0.930 . S
N572 Tb534 2.600 . S
N572 C574 1.359 . S
N572 C575 1.327 . S
C573 H559 0.931 . S
C573 C575 1.392 . S
C573 C576 1.370 . S
C574 C570 1.432 . S
C574 N572 1.359 . S
C574 C577 1.414 . S
C575 H557 0.930 . S
C575 N572 1.327 . S
C575 C573 1.392 . S
C576 H571 0.930 . S
C576 C573 1.370 . S
C576 C577 1.385 . S
C577 C574 1.414 . S
C577 C576 1.385 . S
C577 C599 1.444 . S
O578 Tb534 2.546 . S
O578 C598 1.251 . S
O579 Tb534 2.610 . S
O579 Tb545 2.362 . S
O579 C590 1.283 . S
O580 Tb545 2.421 . S
O580 C597 1.262 . S
O581 Tb534 2.320 . S
O581 C597 1.260 . S
O582 Tb534 2.552 . S
O582 C590 1.243 . S
O583 Tb534 2.413 . S
O583 C598 1.256 . S
O584 Tb545 2.546 . S
O584 C609 1.251 . S
O585 Tb534 2.362 . S
O585 Tb545 2.610 . S
O585 C601 1.283 . S
O586 Tb534 2.421 . S
O586 C608 1.262 . S
O587 Tb545 2.320 . S
O587 C608 1.260 . S
O588 Tb545 2.552 . S
O588 C601 1.243 . S
O589 Tb545 2.413 . S
O589 C609 1.256 . S
C590 O579 1.283 . S
C590 O582 1.243 . S
C591 C593 1.382 . S
C591 C595 1.393 . S
C591 C598 1.500 . S
C592 C593 1.400 . S
C592 C594 1.384 . S
C593 C591 1.382 . S
C593 C592 1.400 . S
C593 H610 0.930 . S
C594 C592 1.384 . S
C594 C596 1.392 . S
C594 H611 0.931 . S
C595 C591 1.393 . S
C595 C596 1.401 . S
C595 H612 0.930 . S
C596 C594 1.392 . S
C596 C595 1.401 . S
C596 H613 0.930 . S
C597 O580 1.262 . S
C597 O581 1.260 . S
C598 Tb534 2.833 . S
C598 O578 1.251 . S
C598 O583 1.256 . S
C598 C591 1.500 . S
C599 H564 0.929 . S
C599 C577 1.444 . S
C599 C600 1.317 . S
C600 H562 0.930 . S
C600 C568 1.432 . S
C600 C599 1.317 . S
C601 O585 1.283 . S
C601 O588 1.243 . S
C602 C603 1.382 . S
C602 C606 1.393 . S
C602 C609 1.500 . S
C603 C602 1.382 . S
C603 C604 1.400 . S
C603 H614 0.930 . S
C604 C603 1.400 . S
C604 C605 1.384 . S
C605 C604 1.384 . S
C605 C607 1.392 . S
C605 H615 0.931 . S
C606 C602 1.393 . S
C606 C607 1.401 . S
C606 H616 0.930 . S
C607 C605 1.392 . S
C607 C606 1.401 . S
C607 H617 0.930 . S
C608 O586 1.262 . S
C608 O587 1.260 . S
C609 Tb545 2.833 . S
C609 O584 1.251 . S
C609 O589 1.256 . S
C609 C602 1.500 . S
H610 C593 0.930 . S
H611 C594 0.931 . S
H612 C595 0.930 . S
H613 C596 0.930 . S
H614 C603 0.930 . S
H615 C605 0.931 . S
H616 C606 0.930 . S
H617 C607 0.930 . S
Tb618 N649 2.660 . S
Tb618 N656 2.600 . S
Tb618 O662 2.546 . S
Tb618 O663 2.610 . S
Tb618 O665 2.320 . S
Tb618 O666 2.552 . S
Tb618 O667 2.413 . S
Tb618 O669 2.362 . S
Tb618 O670 2.421 . S
Tb618 C682 2.833 . S
C619 C622 1.432 . S
C619 C623 1.414 . S
C619 N626 1.359 . S
C620 C622 1.417 . S
C620 C624 1.432 . S
C620 C632 1.410 . S
C621 C623 1.444 . S
C621 C624 1.317 . S
C621 H644 0.929 . S
C622 C619 1.432 . S
C622 C620 1.417 . S
C622 N630 1.360 . S
C623 C619 1.414 . S
C623 C621 1.444 . S
C623 C628 1.385 . S
C624 C620 1.432 . S
C624 C621 1.317 . S
C624 H636 0.930 . S
C625 C627 1.392 . S
C625 C628 1.370 . S
C625 H637 0.931 . S
N626 C619 1.359 . S
N626 C627 1.327 . S
N626 Tb629 2.600 . S
C627 C625 1.392 . S
C627 N626 1.327 . S
C627 H634 0.930 . S
C628 C623 1.385 . S
C628 C625 1.370 . S
C628 H647 0.930 . S
Tb629 N626 2.600 . S
Tb629 N630 2.660 . S
Tb629 O663 2.362 . S
Tb629 O664 2.421 . S
Tb629 O668 2.546 . S
Tb629 O669 2.610 . S
Tb629 O671 2.320 . S
Tb629 O672 2.552 . S
Tb629 O673 2.413 . S
Tb629 C693 2.833 . S
N630 C622 1.360 . S
N630 Tb629 2.660 . S
N630 C631 1.305 . S
C631 N630 1.305 . S
C631 C633 1.407 . S
C631 H638 0.930 . S
C632 C620 1.410 . S
C632 C633 1.345 . S
C632 H640 0.930 . S
C633 C631 1.407 . S
C633 C632 1.345 . S
C633 H635 0.930 . S
H634 C627 0.930 . S
H635 C633 0.930 . S
H636 C624 0.930 . S
H637 C625 0.931 . S
H638 C631 0.930 . S
H639 C653 0.930 . S
H640 C632 0.930 . S
H641 C659 0.930 . S
H642 C650 0.930 . S
H643 C657 0.931 . S
H644 C621 0.929 . S
H645 C651 0.930 . S
H646 C684 0.930 . S
H647 C628 0.930 . S
H648 C683 0.929 . S
N649 Tb618 2.660 . S
N649 C650 1.305 . S
N649 C654 1.360 . S
C650 H642 0.930 . S
C650 N649 1.305 . S
C650 C653 1.407 . S
C651 H645 0.930 . S
C651 C652 1.410 . S
C651 C653 1.345 . S
C652 C651 1.410 . S
C652 C654 1.417 . S
C652 C684 1.432 . S
C653 H639 0.930 . S
C653 C650 1.407 . S
C653 C651 1.345 . S
C654 N649 1.360 . S
C654 C652 1.417 . S
C654 C658 1.432 . S
H655 C660 0.930 . S
N656 Tb618 2.600 . S
N656 C658 1.359 . S
N656 C659 1.327 . S
C657 H643 0.931 . S
C657 C659 1.392 . S
C657 C660 1.370 . S
C658 C654 1.432 . S
C658 N656 1.359 . S
C658 C661 1.414 . S
C659 H641 0.930 . S
C659 N656 1.327 . S
C659 C657 1.392 . S
C660 H655 0.930 . S
C660 C657 1.370 . S
C660 C661 1.385 . S
C661 C658 1.414 . S
C661 C660 1.385 . S
C661 C683 1.444 . S
O662 Tb618 2.546 . S
O662 C682 1.251 . S
O663 Tb618 2.610 . S
O663 Tb629 2.362 . S
O663 C674 1.283 . S
O664 Tb629 2.421 . S
O664 C681 1.262 . S
O665 Tb618 2.320 . S
O665 C681 1.260 . S
O666 Tb618 2.552 . S
O666 C674 1.243 . S
O667 Tb618 2.413 . S
O667 C682 1.256 . S
O668 Tb629 2.546 . S
O668 C693 1.251 . S
O669 Tb618 2.362 . S
O669 Tb629 2.610 . S
O669 C685 1.283 . S
O670 Tb618 2.421 . S
O670 C692 1.262 . S
O671 Tb629 2.320 . S
O671 C692 1.260 . S
O672 Tb629 2.552 . S
O672 C685 1.243 . S
O673 Tb629 2.413 . S
O673 C693 1.256 . S
C674 O663 1.283 . S
C674 O666 1.243 . S
C675 C677 1.382 . S
C675 C679 1.393 . S
C675 C682 1.500 . S
C676 C677 1.400 . S
C676 C678 1.384 . S
C677 C675 1.382 . S
C677 C676 1.400 . S
C677 H694 0.930 . S
C678 C676 1.384 . S
C678 C680 1.392 . S
C678 H695 0.931 . S
C679 C675 1.393 . S
C679 C680 1.401 . S
C679 H696 0.930 . S
C680 C678 1.392 . S
C680 C679 1.401 . S
C680 H697 0.930 . S
C681 O664 1.262 . S
C681 O665 1.260 . S
C682 Tb618 2.833 . S
C682 O662 1.251 . S
C682 O667 1.256 . S
C682 C675 1.500 . S
C683 H648 0.929 . S
C683 C661 1.444 . S
C683 C684 1.317 . S
C684 H646 0.930 . S
C684 C652 1.432 . S
C684 C683 1.317 . S
C685 O669 1.283 . S
C685 O672 1.243 . S
C686 C687 1.382 . S
C686 C690 1.393 . S
C686 C693 1.500 . S
C687 C686 1.382 . S
C687 C688 1.400 . S
C687 H698 0.930 . S
C688 C687 1.400 . S
C688 C689 1.384 . S
C689 C688 1.384 . S
C689 C691 1.392 . S
C689 H699 0.931 . S
C690 C686 1.393 . S
C690 C691 1.401 . S
C690 H700 0.930 . S
C691 C689 1.392 . S
C691 C690 1.401 . S
C691 H701 0.930 . S
C692 O670 1.262 . S
C692 O671 1.260 . S
C693 Tb629 2.833 . S
C693 O668 1.251 . S
C693 O673 1.256 . S
C693 C686 1.500 . S
H694 C677 0.930 . S
H695 C678 0.931 . S
H696 C679 0.930 . S
H697 C680 0.930 . S
H698 C687 0.930 . S
H699 C689 0.931 . S
H700 C690 0.930 . S
H701 C691 0.930 . S
Tb702 N733 2.660 . S
Tb702 N740 2.600 . S
Tb702 O746 2.546 . S
Tb702 O747 2.610 . S
Tb702 O749 2.320 . S
Tb702 O750 2.552 . S
Tb702 O751 2.413 . S
Tb702 O753 2.362 . S
Tb702 O754 2.421 . S
Tb702 C766 2.833 . S
C703 C706 1.432 . S
C703 C707 1.414 . S
C703 N710 1.359 . S
C704 C706 1.417 . S
C704 C708 1.432 . S
C704 C716 1.410 . S
C705 C707 1.444 . S
C705 C708 1.317 . S
C705 H728 0.929 . S
C706 C703 1.432 . S
C706 C704 1.417 . S
C706 N714 1.360 . S
C707 C703 1.414 . S
C707 C705 1.444 . S
C707 C712 1.385 . S
C708 C704 1.432 . S
C708 C705 1.317 . S
C708 H720 0.930 . S
C709 C711 1.392 . S
C709 C712 1.370 . S
C709 H721 0.931 . S
N710 C703 1.359 . S
N710 C711 1.327 . S
N710 Tb713 2.600 . S
C711 C709 1.392 . S
C711 N710 1.327 . S
C711 H718 0.930 . S
C712 C707 1.385 . S
C712 C709 1.370 . S
C712 H731 0.930 . S
Tb713 N710 2.600 . S
Tb713 N714 2.660 . S
Tb713 O747 2.362 . S
Tb713 O748 2.421 . S
Tb713 O752 2.546 . S
Tb713 O753 2.610 . S
Tb713 O755 2.320 . S
Tb713 O756 2.552 . S
Tb713 O757 2.413 . S
Tb713 C777 2.833 . S
N714 C706 1.360 . S
N714 Tb713 2.660 . S
N714 C715 1.305 . S
C715 N714 1.305 . S
C715 C717 1.407 . S
C715 H722 0.930 . S
C716 C704 1.410 . S
C716 C717 1.345 . S
C716 H724 0.930 . S
C717 C715 1.407 . S
C717 C716 1.345 . S
C717 H719 0.930 . S
H718 C711 0.930 . S
H719 C717 0.930 . S
H720 C708 0.930 . S
H721 C709 0.931 . S
H722 C715 0.930 . S
H723 C737 0.930 . S
H724 C716 0.930 . S
H725 C743 0.930 . S
H726 C734 0.930 . S
H727 C741 0.931 . S
H728 C705 0.929 . S
H729 C735 0.930 . S
H730 C768 0.930 . S
H731 C712 0.930 . S
H732 C767 0.929 . S
N733 Tb702 2.660 . S
N733 C734 1.305 . S
N733 C738 1.360 . S
C734 H726 0.930 . S
C734 N733 1.305 . S
C734 C737 1.407 . S
C735 H729 0.930 . S
C735 C736 1.410 . S
C735 C737 1.345 . S
C736 C735 1.410 . S
C736 C738 1.417 . S
C736 C768 1.432 . S
C737 H723 0.930 . S
C737 C734 1.407 . S
C737 C735 1.345 . S
C738 N733 1.360 . S
C738 C736 1.417 . S
C738 C742 1.432 . S
H739 C744 0.930 . S
N740 Tb702 2.600 . S
N740 C742 1.359 . S
N740 C743 1.327 . S
C741 H727 0.931 . S
C741 C743 1.392 . S
C741 C744 1.370 . S
C742 C738 1.432 . S
C742 N740 1.359 . S
C742 C745 1.414 . S
C743 H725 0.930 . S
C743 N740 1.327 . S
C743 C741 1.392 . S
C744 H739 0.930 . S
C744 C741 1.370 . S
C744 C745 1.385 . S
C745 C742 1.414 . S
C745 C744 1.385 . S
C745 C767 1.444 . S
O746 Tb702 2.546 . S
O746 C766 1.251 . S
O747 Tb702 2.610 . S
O747 Tb713 2.362 . S
O747 C758 1.283 . S
O748 Tb713 2.421 . S
O748 C765 1.262 . S
O749 Tb702 2.320 . S
O749 C765 1.260 . S
O750 Tb702 2.552 . S
O750 C758 1.243 . S
O751 Tb702 2.413 . S
O751 C766 1.256 . S
O752 Tb713 2.546 . S
O752 C777 1.251 . S
O753 Tb702 2.362 . S
O753 Tb713 2.610 . S
O753 C769 1.283 . S
O754 Tb702 2.421 . S
O754 C776 1.262 . S
O755 Tb713 2.320 . S
O755 C776 1.260 . S
O756 Tb713 2.552 . S
O756 C769 1.243 . S
O757 Tb713 2.413 . S
O757 C777 1.256 . S
C758 O747 1.283 . S
C758 O750 1.243 . S
C759 C761 1.382 . S
C759 C763 1.393 . S
C759 C766 1.500 . S
C760 C761 1.400 . S
C760 C762 1.384 . S
C761 C759 1.382 . S
C761 C760 1.400 . S
C761 H778 0.930 . S
C762 C760 1.384 . S
C762 C764 1.392 . S
C762 H779 0.931 . S
C763 C759 1.393 . S
C763 C764 1.401 . S
C763 H780 0.930 . S
C764 C762 1.392 . S
C764 C763 1.401 . S
C764 H781 0.930 . S
C765 O748 1.262 . S
C765 O749 1.260 . S
C766 Tb702 2.833 . S
C766 O746 1.251 . S
C766 O751 1.256 . S
C766 C759 1.500 . S
C767 H732 0.929 . S
C767 C745 1.444 . S
C767 C768 1.317 . S
C768 H730 0.930 . S
C768 C736 1.432 . S
C768 C767 1.317 . S
C769 O753 1.283 . S
C769 O756 1.243 . S
C770 C771 1.382 . S
C770 C774 1.393 . S
C770 C777 1.500 . S
C771 C770 1.382 . S
C771 C772 1.400 . S
C771 H782 0.930 . S
C772 C771 1.400 . S
C772 C773 1.384 . S
C773 C772 1.384 . S
C773 C775 1.392 . S
C773 H783 0.931 . S
C774 C770 1.393 . S
C774 C775 1.401 . S
C774 H784 0.930 . S
C775 C773 1.392 . S
C775 C774 1.401 . S
C775 H785 0.930 . S
C776 O754 1.262 . S
C776 O755 1.260 . S
C777 Tb713 2.833 . S
C777 O752 1.251 . S
C777 O757 1.256 . S
C777 C770 1.500 . S
H778 C761 0.930 . S
H779 C762 0.931 . S
H780 C763 0.930 . S
H781 C764 0.930 . S
H782 C771 0.930 . S
H783 C773 0.931 . S
H784 C774 0.930 . S
H785 C775 0.930 . S
Tb786 N817 2.660 . S
Tb786 N824 2.600 . S
Tb786 O830 2.546 . S
Tb786 O831 2.610 . S
Tb786 O833 2.320 . S
Tb786 O834 2.552 . S
Tb786 O835 2.413 . S
Tb786 O837 2.362 . S
Tb786 O838 2.421 . S
Tb786 C850 2.833 . S
C787 C790 1.432 . S
C787 C791 1.414 . S
C787 N794 1.359 . S
C788 C790 1.417 . S
C788 C792 1.432 . S
C788 C800 1.410 . S
C789 C791 1.444 . S
C789 C792 1.317 . S
C789 H812 0.929 . S
C790 C787 1.432 . S
C790 C788 1.417 . S
C790 N798 1.360 . S
C791 C787 1.414 . S
C791 C789 1.444 . S
C791 C796 1.385 . S
C792 C788 1.432 . S
C792 C789 1.317 . S
C792 H804 0.930 . S
C793 C795 1.392 . S
C793 C796 1.370 . S
C793 H805 0.931 . S
N794 C787 1.359 . S
N794 C795 1.327 . S
N794 Tb797 2.600 . S
C795 C793 1.392 . S
C795 N794 1.327 . S
C795 H802 0.930 . S
C796 C791 1.385 . S
C796 C793 1.370 . S
C796 H815 0.930 . S
Tb797 N794 2.600 . S
Tb797 N798 2.660 . S
Tb797 O831 2.362 . S
Tb797 O832 2.421 . S
Tb797 O836 2.546 . S
Tb797 O837 2.610 . S
Tb797 O839 2.320 . S
Tb797 O840 2.552 . S
Tb797 O841 2.413 . S
Tb797 C861 2.833 . S
N798 C790 1.360 . S
N798 Tb797 2.660 . S
N798 C799 1.305 . S
C799 N798 1.305 . S
C799 C801 1.407 . S
C799 H806 0.930 . S
C800 C788 1.410 . S
C800 C801 1.345 . S
C800 H808 0.930 . S
C801 C799 1.407 . S
C801 C800 1.345 . S
C801 H803 0.930 . S
H802 C795 0.930 . S
H803 C801 0.930 . S
H804 C792 0.930 . S
H805 C793 0.931 . S
H806 C799 0.930 . S
H807 C821 0.930 . S
H808 C800 0.930 . S
H809 C827 0.930 . S
H810 C818 0.930 . S
H811 C825 0.931 . S
H812 C789 0.929 . S
H813 C819 0.930 . S
H814 C852 0.930 . S
H815 C796 0.930 . S
H816 C851 0.929 . S
N817 Tb786 2.660 . S
N817 C818 1.305 . S
N817 C822 1.360 . S
C818 H810 0.930 . S
C818 N817 1.305 . S
C818 C821 1.407 . S
C819 H813 0.930 . S
C819 C820 1.410 . S
C819 C821 1.345 . S
C820 C819 1.410 . S
C820 C822 1.417 . S
C820 C852 1.432 . S
C821 H807 0.930 . S
C821 C818 1.407 . S
C821 C819 1.345 . S
C822 N817 1.360 . S
C822 C820 1.417 . S
C822 C826 1.432 . S
H823 C828 0.930 . S
N824 Tb786 2.600 . S
N824 C826 1.359 . S
N824 C827 1.327 . S
C825 H811 0.931 . S
C825 C827 1.392 . S
C825 C828 1.370 . S
C826 C822 1.432 . S
C826 N824 1.359 . S
C826 C829 1.414 . S
C827 H809 0.930 . S
C827 N824 1.327 . S
C827 C825 1.392 . S
C828 H823 0.930 . S
C828 C825 1.370 . S
C828 C829 1.385 . S
C829 C826 1.414 . S
C829 C828 1.385 . S
C829 C851 1.444 . S
O830 Tb786 2.546 . S
O830 C850 1.251 . S
O831 Tb786 2.610 . S
O831 Tb797 2.362 . S
O831 C842 1.283 . S
O832 Tb797 2.421 . S
O832 C849 1.262 . S
O833 Tb786 2.320 . S
O833 C849 1.260 . S
O834 Tb786 2.552 . S
O834 C842 1.243 . S
O835 Tb786 2.413 . S
O835 C850 1.256 . S
O836 Tb797 2.546 . S
O836 C861 1.251 . S
O837 Tb786 2.362 . S
O837 Tb797 2.610 . S
O837 C853 1.283 . S
O838 Tb786 2.421 . S
O838 C860 1.262 . S
O839 Tb797 2.320 . S
O839 C860 1.260 . S
O840 Tb797 2.552 . S
O840 C853 1.243 . S
O841 Tb797 2.413 . S
O841 C861 1.256 . S
C842 O831 1.283 . S
C842 O834 1.243 . S
C843 C845 1.382 . S
C843 C847 1.393 . S
C843 C850 1.500 . S
C844 C845 1.400 . S
C844 C846 1.384 . S
C845 C843 1.382 . S
C845 C844 1.400 . S
C845 H862 0.930 . S
C846 C844 1.384 . S
C846 C848 1.392 . S
C846 H863 0.931 . S
C847 C843 1.393 . S
C847 C848 1.401 . S
C847 H864 0.930 . S
C848 C846 1.392 . S
C848 C847 1.401 . S
C848 H865 0.930 . S
C849 O832 1.262 . S
C849 O833 1.260 . S
C850 Tb786 2.833 . S
C850 O830 1.251 . S
C850 O835 1.256 . S
C850 C843 1.500 . S
C851 H816 0.929 . S
C851 C829 1.444 . S
C851 C852 1.317 . S
C852 H814 0.930 . S
C852 C820 1.432 . S
C852 C851 1.317 . S
C853 O837 1.283 . S
C853 O840 1.243 . S
C854 C855 1.382 . S
C854 C858 1.393 . S
C854 C861 1.500 . S
C855 C854 1.382 . S
C855 C856 1.400 . S
C855 H866 0.930 . S
C856 C855 1.400 . S
C856 C857 1.384 . S
C857 C856 1.384 . S
C857 C859 1.392 . S
C857 H867 0.931 . S
C858 C854 1.393 . S
C858 C859 1.401 . S
C858 H868 0.930 . S
C859 C857 1.392 . S
C859 C858 1.401 . S
C859 H869 0.930 . S
C860 O838 1.262 . S
C860 O839 1.260 . S
C861 Tb797 2.833 . S
C861 O836 1.251 . S
C861 O841 1.256 . S
C861 C854 1.500 . S
H862 C845 0.930 . S
H863 C846 0.931 . S
H864 C847 0.930 . S
H865 C848 0.930 . S
H866 C855 0.930 . S
H867 C857 0.931 . S
H868 C858 0.930 . S
H869 C859 0.930 . S
Tb870 N901 2.660 . S
Tb870 N908 2.600 . S
Tb870 O914 2.546 . S
Tb870 O915 2.610 . S
Tb870 O917 2.320 . S
Tb870 O918 2.552 . S
Tb870 O919 2.413 . S
Tb870 O921 2.362 . S
Tb870 O922 2.421 . S
Tb870 C934 2.833 . S
C871 C874 1.432 . S
C871 C875 1.414 . S
C871 N878 1.359 . S
C872 C874 1.417 . S
C872 C876 1.432 . S
C872 C884 1.410 . S
C873 C875 1.444 . S
C873 C876 1.317 . S
C873 H896 0.929 . S
C874 C871 1.432 . S
C874 C872 1.417 . S
C874 N882 1.360 . S
C875 C871 1.414 . S
C875 C873 1.444 . S
C875 C880 1.385 . S
C876 C872 1.432 . S
C876 C873 1.317 . S
C876 H888 0.930 . S
C877 C879 1.392 . S
C877 C880 1.370 . S
C877 H889 0.931 . S
N878 C871 1.359 . S
N878 C879 1.327 . S
N878 Tb881 2.600 . S
C879 C877 1.392 . S
C879 N878 1.327 . S
C879 H886 0.930 . S
C880 C875 1.385 . S
C880 C877 1.370 . S
C880 H899 0.930 . S
Tb881 N878 2.600 . S
Tb881 N882 2.660 . S
Tb881 O915 2.362 . S
Tb881 O916 2.421 . S
Tb881 O920 2.546 . S
Tb881 O921 2.610 . S
Tb881 O923 2.320 . S
Tb881 O924 2.552 . S
Tb881 O925 2.413 . S
Tb881 C945 2.833 . S
N882 C874 1.360 . S
N882 Tb881 2.660 . S
N882 C883 1.305 . S
C883 N882 1.305 . S
C883 C885 1.407 . S
C883 H890 0.930 . S
C884 C872 1.410 . S
C884 C885 1.345 . S
C884 H892 0.930 . S
C885 C883 1.407 . S
C885 C884 1.345 . S
C885 H887 0.930 . S
H886 C879 0.930 . S
H887 C885 0.930 . S
H888 C876 0.930 . S
H889 C877 0.931 . S
H890 C883 0.930 . S
H891 C905 0.930 . S
H892 C884 0.930 . S
H893 C911 0.930 . S
H894 C902 0.930 . S
H895 C909 0.931 . S
H896 C873 0.929 . S
H897 C903 0.930 . S
H898 C936 0.930 . S
H899 C880 0.930 . S
H900 C935 0.929 . S
N901 Tb870 2.660 . S
N901 C902 1.305 . S
N901 C906 1.360 . S
C902 H894 0.930 . S
C902 N901 1.305 . S
C902 C905 1.407 . S
C903 H897 0.930 . S
C903 C904 1.410 . S
C903 C905 1.345 . S
C904 C903 1.410 . S
C904 C906 1.417 . S
C904 C936 1.432 . S
C905 H891 0.930 . S
C905 C902 1.407 . S
C905 C903 1.345 . S
C906 N901 1.360 . S
C906 C904 1.417 . S
C906 C910 1.432 . S
H907 C912 0.930 . S
N908 Tb870 2.600 . S
N908 C910 1.359 . S
N908 C911 1.327 . S
C909 H895 0.931 . S
C909 C911 1.392 . S
C909 C912 1.370 . S
C910 C906 1.432 . S
C910 N908 1.359 . S
C910 C913 1.414 . S
C911 H893 0.930 . S
C911 N908 1.327 . S
C911 C909 1.392 . S
C912 H907 0.930 . S
C912 C909 1.370 . S
C912 C913 1.385 . S
C913 C910 1.414 . S
C913 C912 1.385 . S
C913 C935 1.444 . S
O914 Tb870 2.546 . S
O914 C934 1.251 . S
O915 Tb870 2.610 . S
O915 Tb881 2.362 . S
O915 C926 1.283 . S
O916 Tb881 2.421 . S
O916 C933 1.262 . S
O917 Tb870 2.320 . S
O917 C933 1.260 . S
O918 Tb870 2.552 . S
O918 C926 1.243 . S
O919 Tb870 2.413 . S
O919 C934 1.256 . S
O920 Tb881 2.546 . S
O920 C945 1.251 . S
O921 Tb870 2.362 . S
O921 Tb881 2.610 . S
O921 C937 1.283 . S
O922 Tb870 2.421 . S
O922 C944 1.262 . S
O923 Tb881 2.320 . S
O923 C944 1.260 . S
O924 Tb881 2.552 . S
O924 C937 1.243 . S
O925 Tb881 2.413 . S
O925 C945 1.256 . S
C926 O915 1.283 . S
C926 O918 1.243 . S
C927 C929 1.382 . S
C927 C931 1.393 . S
C927 C934 1.500 . S
C928 C929 1.400 . S
C928 C930 1.384 . S
C929 C927 1.382 . S
C929 C928 1.400 . S
C929 H946 0.930 . S
C930 C928 1.384 . S
C930 C932 1.392 . S
C930 H947 0.931 . S
C931 C927 1.393 . S
C931 C932 1.401 . S
C931 H948 0.930 . S
C932 C930 1.392 . S
C932 C931 1.401 . S
C932 H949 0.930 . S
C933 O916 1.262 . S
C933 O917 1.260 . S
C934 Tb870 2.833 . S
C934 O914 1.251 . S
C934 O919 1.256 . S
C934 C927 1.500 . S
C935 H900 0.929 . S
C935 C913 1.444 . S
C935 C936 1.317 . S
C936 H898 0.930 . S
C936 C904 1.432 . S
C936 C935 1.317 . S
C937 O921 1.283 . S
C937 O924 1.243 . S
C938 C939 1.382 . S
C938 C942 1.393 . S
C938 C945 1.500 . S
C939 C938 1.382 . S
C939 C940 1.400 . S
C939 H950 0.930 . S
C940 C939 1.400 . S
C940 C941 1.384 . S
C941 C940 1.384 . S
C941 C943 1.392 . S
C941 H951 0.931 . S
C942 C938 1.393 . S
C942 C943 1.401 . S
C942 H952 0.930 . S
C943 C941 1.392 . S
C943 C942 1.401 . S
C943 H953 0.930 . S
C944 O922 1.262 . S
C944 O923 1.260 . S
C945 Tb881 2.833 . S
C945 O920 1.251 . S
C945 O925 1.256 . S
C945 C938 1.500 . S
H946 C929 0.930 . S
H947 C930 0.931 . S
H948 C931 0.930 . S
H949 C932 0.930 . S
H950 C939 0.930 . S
H951 C941 0.931 . S
H952 C942 0.930 . S
H953 C943 0.930 . S
H954 C972 0.951 . S
H955 C974 0.951 . S
H956 C976 0.950 . S
H957 C977 0.950 . S
H958 C979 0.950 . S
H959 C982 0.950 . S
H960 C983 0.950 . S
H961 C985 0.950 . S
H962 C986 0.950 . S
H963 C987 0.951 . S
H964 C989 0.951 . S
H965 C991 0.950 . S
H966 C992 0.950 . S
H967 C994 0.950 . S
H968 C997 0.957 . S
H969 C998 0.950 . S
H970 C1000 0.950 . S
H971 C1001 0.950 . S
C972 H954 0.951 . S
C972 C973 1.366 . S
C972 C974 1.388 . S
C973 C972 1.366 . S
C973 C977 1.385 . S
C974 H955 0.951 . S
C974 C972 1.388 . S
C974 C975 1.366 . S
C975 C974 1.366 . S
C975 C976 1.414 . S
C975 C978 1.499 . S
C976 H956 0.950 . S
C976 C975 1.414 . S
C976 C977 1.374 . S
C977 H957 0.950 . S
C977 C973 1.385 . S
C977 C976 1.374 . S
C978 C975 1.499 . S
C978 C979 1.373 . S
C978 C980 1.389 . S
C979 H958 0.950 . S
C979 C978 1.373 . S
C979 C995 1.377 . S
C980 C978 1.389 . S
C980 C981 1.524 . S
C980 C994 1.377 . S
C981 C980 1.524 . S
C981 C982 1.397 . S
C981 C986 1.363 . S
C982 H959 0.950 . S
C982 C981 1.397 . S
C982 C983 1.334 . S
C983 H960 0.950 . S
C983 C982 1.334 . S
C983 C984 1.287 . S
C984 C983 1.287 . S
C984 C985 1.524 . S
C984 H1003 0.913 . S
C985 H961 0.950 . S
C985 C984 1.524 . S
C985 C986 1.415 . S
C986 H962 0.950 . S
C986 C981 1.363 . S
C986 C985 1.415 . S
C987 H963 0.951 . S
C987 C988 1.366 . S
C987 C989 1.388 . S
C988 C987 1.366 . S
C988 C992 1.385 . S
C989 H964 0.951 . S
C989 C987 1.388 . S
C989 C990 1.366 . S
C990 C989 1.366 . S
C990 C991 1.414 . S
C990 C993 1.499 . S
C991 H965 0.950 . S
C991 C990 1.414 . S
C991 C992 1.374 . S
C992 H966 0.950 . S
C992 C988 1.385 . S
C992 C991 1.374 . S
C993 C990 1.499 . S
C993 C994 1.373 . S
C993 C995 1.389 . S
C994 H967 0.950 . S
C994 C980 1.377 . S
C994 C993 1.373 . S
C995 C979 1.377 . S
C995 C993 1.389 . S
C995 C996 1.524 . S
C996 C995 1.524 . S
C996 C997 1.412 . S
C996 C1001 1.363 . S
C997 H968 0.957 . S
C997 C996 1.412 . S
C997 C998 1.312 1_554 S
C998 H969 0.950 . S
C998 C997 1.312 1_556 S
C998 C999 1.287 . S
C999 C998 1.287 . S
C999 C1000 1.524 . S
C999 H1002 0.999 . S
C1000 H970 0.950 . S
C1000 C999 1.524 . S
C1000 C1001 1.415 1_556 S
C1001 H971 0.950 . S
C1001 C996 1.363 . S
C1001 C1000 1.415 1_554 S
H1002 C999 0.999 . S
H1003 C984 0.913 . S
H1004 C1022 0.951 . S
H1005 C1024 0.951 . S
H1006 C1026 0.950 . S
H1007 C1027 0.950 . S
H1008 C1029 0.950 . S
H1009 C1032 0.950 . S
H1010 C1033 0.950 . S
H1011 C1035 0.950 . S
H1012 C1036 0.950 . S
H1013 C1037 0.951 . S
H1014 C1039 0.951 . S
H1015 C1041 0.950 . S
H1016 C1042 0.950 . S
H1017 C1044 0.950 . S
H1018 C1047 0.950 . S
H1019 C1048 0.950 . S
H1020 C1050 0.950 . S
H1021 C1051 0.950 . S
C1022 H1004 0.951 . S
C1022 C1023 1.366 . S
C1022 C1024 1.388 . S
C1023 C1022 1.366 . S
C1023 C1027 1.385 . S
C1024 H1005 0.951 . S
C1024 C1022 1.388 . S
C1024 C1025 1.366 . S
C1025 C1024 1.366 . S
C1025 C1026 1.414 . S
C1025 C1028 1.499 . S
C1026 H1006 0.950 . S
C1026 C1025 1.414 . S
C1026 C1027 1.374 . S
C1027 H1007 0.950 . S
C1027 C1023 1.385 . S
C1027 C1026 1.374 . S
C1028 C1025 1.499 . S
C1028 C1029 1.373 . S
C1028 C1030 1.389 . S
C1029 H1008 0.950 . S
C1029 C1028 1.373 . S
C1029 C1045 1.377 . S
C1030 C1028 1.389 . S
C1030 C1031 1.524 . S
C1030 C1044 1.377 . S
C1031 C1030 1.524 . S
C1031 C1032 1.397 . S
C1031 C1036 1.363 . S
C1032 H1009 0.950 . S
C1032 C1031 1.397 . S
C1032 C1033 1.334 . S
C1033 H1010 0.950 . S
C1033 C1032 1.334 . S
C1033 C1034 1.287 . S
C1034 C1033 1.287 . S
C1034 C1035 1.524 . S
C1034 H1053 0.913 . S
C1035 H1011 0.950 . S
C1035 C1034 1.524 . S
C1035 C1036 1.415 . S
C1036 H1012 0.950 . S
C1036 C1031 1.363 . S
C1036 C1035 1.415 . S
C1037 H1013 0.951 . S
C1037 C1038 1.366 . S
C1037 C1039 1.388 . S
C1038 C1037 1.366 . S
C1038 C1042 1.385 . S
C1039 H1014 0.951 . S
C1039 C1037 1.388 . S
C1039 C1040 1.366 . S
C1040 C1039 1.366 . S
C1040 C1041 1.414 . S
C1040 C1043 1.499 . S
C1041 H1015 0.950 . S
C1041 C1040 1.414 . S
C1041 C1042 1.374 . S
C1042 H1016 0.950 . S
C1042 C1038 1.385 . S
C1042 C1041 1.374 . S
C1043 C1040 1.499 . S
C1043 C1044 1.373 . S
C1043 C1045 1.389 . S
C1044 H1017 0.950 . S
C1044 C1030 1.377 . S
C1044 C1043 1.373 . S
C1045 C1029 1.377 . S
C1045 C1043 1.389 . S
C1045 C1046 1.524 . S
C1046 C1045 1.524 . S
C1046 C1047 1.397 . S
C1046 C1051 1.363 . S
C1047 H1018 0.950 . S
C1047 C1046 1.397 . S
C1047 C1048 1.334 . S
C1048 H1019 0.950 . S
C1048 C1047 1.334 . S
C1048 C1049 1.287 1_554 S
C1049 C1048 1.287 1_556 S
C1049 C1050 1.524 . S
C1049 H1052 0.999 . S
C1050 H1020 0.950 . S
C1050 C1049 1.524 . S
C1050 C1051 1.415 1_556 S
C1051 H1021 0.950 . S
C1051 C1046 1.363 . S
C1051 C1050 1.415 1_554 S
H1052 C1049 0.999 . S
H1053 C1034 0.913 . S
H1054 C1072 0.951 . S
H1055 C1074 0.951 . S
H1056 C1076 0.950 . S
H1057 C1077 0.950 . S
H1058 C1079 0.950 . S
H1059 C1082 0.950 . S
H1060 C1083 0.950 . S
H1061 C1085 0.950 . S
H1062 C1086 0.950 . S
H1063 C1087 0.951 . S
H1064 C1089 0.951 . S
H1065 C1091 0.950 . S
H1066 C1092 0.950 . S
H1067 C1094 0.950 . S
H1068 C1097 0.950 . S
H1069 C1098 0.950 . S
H1070 C1100 0.950 . S
H1071 C1101 0.957 . S
C1072 H1054 0.951 . S
C1072 C1073 1.366 . S
C1072 C1074 1.388 . S
C1073 C1072 1.366 . S
C1073 C1077 1.385 . S
C1074 H1055 0.951 . S
C1074 C1072 1.388 . S
C1074 C1075 1.366 . S
C1075 C1074 1.366 . S
C1075 C1076 1.414 . S
C1075 C1078 1.499 . S
C1076 H1056 0.950 . S
C1076 C1075 1.414 . S
C1076 C1077 1.374 . S
C1077 H1057 0.950 . S
C1077 C1073 1.385 . S
C1077 C1076 1.374 . S
C1078 C1075 1.499 . S
C1078 C1079 1.373 . S
C1078 C1080 1.389 . S
C1079 H1058 0.950 . S
C1079 C1078 1.373 . S
C1079 C1095 1.377 . S
C1080 C1078 1.389 . S
C1080 C1081 1.524 . S
C1080 C1094 1.377 . S
C1081 C1080 1.524 . S
C1081 C1082 1.397 . S
C1081 C1086 1.363 . S
C1082 H1059 0.950 . S
C1082 C1081 1.397 . S
C1082 C1083 1.334 . S
C1083 H1060 0.950 . S
C1083 C1082 1.334 . S
C1083 C1084 1.287 . S
C1084 C1083 1.287 . S
C1084 C1085 1.524 . S
C1084 H1103 0.913 . S
C1085 H1061 0.950 . S
C1085 C1084 1.524 . S
C1085 C1086 1.415 . S
C1086 H1062 0.950 . S
C1086 C1081 1.363 . S
C1086 C1085 1.415 . S
C1087 H1063 0.951 . S
C1087 C1088 1.366 . S
C1087 C1089 1.388 . S
C1088 C1087 1.366 . S
C1088 C1092 1.385 . S
C1089 H1064 0.951 . S
C1089 C1087 1.388 . S
C1089 C1090 1.366 . S
C1090 C1089 1.366 . S
C1090 C1091 1.414 . S
C1090 C1093 1.499 . S
C1091 H1065 0.950 . S
C1091 C1090 1.414 . S
C1091 C1092 1.374 . S
C1092 H1066 0.950 . S
C1092 C1088 1.385 . S
C1092 C1091 1.374 . S
C1093 C1090 1.499 . S
C1093 C1094 1.373 . S
C1093 C1095 1.389 . S
C1094 H1067 0.950 . S
C1094 C1080 1.377 . S
C1094 C1093 1.373 . S
C1095 C1079 1.377 . S
C1095 C1093 1.389 . S
C1095 C1096 1.524 . S
C1096 C1095 1.524 . S
C1096 C1097 1.397 . S
C1096 C1101 1.312 1_554 S
C1097 H1068 0.950 . S
C1097 C1096 1.397 . S
C1097 C1098 1.334 . S
C1098 H1069 0.950 . S
C1098 C1097 1.334 . S
C1098 C1099 1.287 1_554 S
C1099 C1098 1.287 1_556 S
C1099 C1100 1.524 . S
C1099 H1102 0.999 . S
C1100 H1070 0.950 . S
C1100 C1099 1.524 . S
C1100 C1101 1.461 . S
C1101 H1071 0.957 . S
C1101 C1096 1.312 1_556 S
C1101 C1100 1.461 . S
H1102 C1099 0.999 . S
H1103 C1084 0.913 . S
H1104 C1122 0.951 . S
H1105 C1124 0.951 . S
H1106 C1126 0.950 . S
H1107 C1127 0.950 . S
H1108 C1129 0.950 . S
H1109 C1132 0.950 . S
H1110 C1133 0.950 . S
H1111 C1135 0.950 . S
H1112 C1136 0.979 . S
H1113 C1137 0.951 . S
H1114 C1139 0.951 . S
H1115 C1141 0.950 . S
H1116 C1142 0.950 . S
H1117 C1144 0.950 . S
H1118 C1147 0.950 . S
H1119 C1148 0.950 . S
H1120 C1150 0.950 . S
H1121 C1151 0.950 . S
C1122 H1104 0.951 . S
C1122 C1123 1.366 . S
C1122 C1124 1.388 . S
C1123 C1122 1.366 . S
C1123 C1127 1.385 . S
C1124 H1105 0.951 . S
C1124 C1122 1.388 . S
C1124 C1125 1.366 . S
C1125 C1124 1.366 . S
C1125 C1126 1.414 . S
C1125 C1128 1.499 . S
C1126 H1106 0.950 . S
C1126 C1125 1.414 . S
C1126 C1127 1.374 . S
C1127 H1107 0.950 . S
C1127 C1123 1.385 . S
C1127 C1126 1.374 . S
C1128 C1125 1.499 . S
C1128 C1129 1.373 . S
C1128 C1130 1.389 . S
C1129 H1108 0.950 . S
C1129 C1128 1.373 . S
C1129 C1145 1.377 . S
C1130 C1128 1.389 . S
C1130 C1131 1.524 . S
C1130 C1144 1.377 . S
C1131 C1130 1.524 . S
C1131 C1132 1.397 1_556 S
C1131 C1136 1.374 . S
C1132 H1109 0.950 . S
C1132 C1131 1.397 1_554 S
C1132 C1133 1.334 . S
C1133 H1110 0.950 . S
C1133 C1132 1.334 . S
C1133 C1134 1.287 . S
C1134 C1133 1.287 . S
C1134 C1135 1.524 . S
C1134 H1153 0.913 . S
C1135 H1111 0.950 . S
C1135 C1134 1.524 . S
C1135 C1136 1.379 1_554 S
C1136 H1112 0.979 . S
C1136 C1131 1.374 . S
C1136 C1135 1.379 1_556 S
C1137 H1113 0.951 . S
C1137 C1138 1.366 . S
C1137 C1139 1.388 . S
C1138 C1137 1.366 . S
C1138 C1142 1.385 . S
C1139 H1114 0.951 . S
C1139 C1137 1.388 . S
C1139 C1140 1.366 . S
C1140 C1139 1.366 . S
C1140 C1141 1.414 . S
C1140 C1143 1.499 . S
C1141 H1115 0.950 . S
C1141 C1140 1.414 . S
C1141 C1142 1.374 . S
C1142 H1116 0.950 . S
C1142 C1138 1.385 . S
C1142 C1141 1.374 . S
C1143 C1140 1.499 . S
C1143 C1144 1.373 . S
C1143 C1145 1.389 . S
C1144 H1117 0.950 . S
C1144 C1130 1.377 . S
C1144 C1143 1.373 . S
C1145 C1129 1.377 . S
C1145 C1143 1.389 . S
C1145 C1146 1.524 . S
C1146 C1145 1.524 . S
C1146 C1147 1.397 . S
C1146 C1151 1.363 . S
C1147 H1118 0.950 . S
C1147 C1146 1.397 . S
C1147 C1148 1.334 . S
C1148 H1119 0.950 . S
C1148 C1147 1.334 . S
C1148 C1149 1.287 . S
C1149 C1148 1.287 . S
C1149 C1150 1.524 . S
C1149 H1152 0.999 . S
C1150 H1120 0.950 . S
C1150 C1149 1.524 . S
C1150 C1151 1.415 . S
C1151 H1121 0.950 . S
C1151 C1146 1.363 . S
C1151 C1150 1.415 . S
H1152 C1149 0.999 . S
H1153 C1134 0.913 . S
H1154 C1172 0.951 . S
H1155 C1174 0.951 . S
H1156 C1176 0.950 . S
H1157 C1177 0.950 . S
H1158 C1179 0.950 . S
H1159 C1182 0.950 . S
H1160 C1183 0.950 . S
H1161 C1185 0.950 . S
H1162 C1186 0.950 . S
H1163 C1187 0.951 . S
H1164 C1189 0.951 . S
H1165 C1191 0.950 . S
H1166 C1192 0.950 . S
H1167 C1194 0.950 . S
H1168 C1197 0.950 . S
H1169 C1198 0.950 . S
H1170 C1200 0.950 . S
H1171 C1201 0.950 . S
C1172 H1154 0.951 . S
C1172 C1173 1.366 . S
C1172 C1174 1.388 . S
C1173 C1172 1.366 . S
C1173 C1177 1.385 . S
C1174 H1155 0.951 . S
C1174 C1172 1.388 . S
C1174 C1175 1.366 . S
C1175 C1174 1.366 . S
C1175 C1176 1.414 . S
C1175 C1178 1.499 . S
C1176 H1156 0.950 . S
C1176 C1175 1.414 . S
C1176 C1177 1.374 . S
C1177 H1157 0.950 . S
C1177 C1173 1.385 . S
C1177 C1176 1.374 . S
C1178 C1175 1.499 . S
C1178 C1179 1.373 . S
C1178 C1180 1.389 . S
C1179 H1158 0.950 . S
C1179 C1178 1.373 . S
C1179 C1195 1.377 . S
C1180 C1178 1.389 . S
C1180 C1181 1.524 . S
C1180 C1194 1.377 . S
C1181 C1180 1.524 . S
C1181 C1182 1.397 . S
C1181 C1186 1.363 . S
C1182 H1159 0.950 . S
C1182 C1181 1.397 . S
C1182 C1183 1.334 . S
C1183 H1160 0.950 . S
C1183 C1182 1.334 . S
C1183 C1184 1.287 . S
C1184 C1183 1.287 . S
C1184 C1185 1.524 . S
C1184 H1203 0.913 . S
C1185 H1161 0.950 . S
C1185 C1184 1.524 . S
C1185 C1186 1.415 . S
C1186 H1162 0.950 . S
C1186 C1181 1.363 . S
C1186 C1185 1.415 . S
C1187 H1163 0.951 . S
C1187 C1188 1.366 1_554 S
C1187 C1189 1.388 . S
C1188 C1187 1.366 1_556 S
C1188 C1192 1.385 . S
C1189 H1164 0.951 . S
C1189 C1187 1.388 . S
C1189 C1190 1.366 1_554 S
C1190 C1189 1.366 1_556 S
C1190 C1191 1.414 . S
C1190 C1193 1.499 . S
C1191 H1165 0.950 . S
C1191 C1190 1.414 . S
C1191 C1192 1.374 . S
C1192 H1166 0.950 . S
C1192 C1188 1.385 . S
C1192 C1191 1.374 . S
C1193 C1190 1.499 . S
C1193 C1194 1.373 . S
C1193 C1195 1.389 . S
C1194 H1167 0.950 . S
C1194 C1180 1.377 . S
C1194 C1193 1.373 . S
C1195 C1179 1.377 . S
C1195 C1193 1.389 . S
C1195 C1196 1.524 . S
C1196 C1195 1.524 . S
C1196 C1197 1.397 . S
C1196 C1201 1.363 1_556 S
C1197 H1168 0.950 . S
C1197 C1196 1.397 . S
C1197 C1198 1.334 . S
C1198 H1169 0.950 . S
C1198 C1197 1.334 . S
C1198 C1199 1.287 1_556 S
C1199 C1198 1.287 1_554 S
C1199 C1200 1.524 . S
C1199 H1202 0.999 . S
C1200 H1170 0.950 . S
C1200 C1199 1.524 . S
C1200 C1201 1.415 . S
C1201 H1171 0.950 . S
C1201 C1196 1.363 1_554 S
C1201 C1200 1.415 . S
H1202 C1199 0.999 . S
H1203 C1184 0.913 . S
H1204 C1222 0.951 . S
H1205 C1224 0.951 . S
H1206 C1226 0.950 . S
H1207 C1227 0.950 . S
H1208 C1229 0.950 . S
H1209 C1232 0.950 . S
H1210 C1233 0.950 . S
H1211 C1235 0.950 . S
H1212 C1236 0.950 . S
H1213 C1237 0.951 . S
H1214 C1239 0.951 . S
H1215 C1241 0.950 . S
H1216 C1242 0.950 . S
H1217 C1244 0.950 . S
H1218 C1247 0.950 . S
H1219 C1248 0.950 . S
H1220 C1250 0.950 1_554 S
H1221 C1251 0.950 1_554 S
C1222 H1204 0.951 . S
C1222 C1223 1.366 . S
C1222 C1224 1.388 . S
C1223 C1222 1.366 . S
C1223 C1227 1.385 . S
C1224 H1205 0.951 . S
C1224 C1222 1.388 . S
C1224 C1225 1.366 . S
C1225 C1224 1.366 . S
C1225 C1226 1.414 . S
C1225 C1228 1.499 . S
C1226 H1206 0.950 . S
C1226 C1225 1.414 . S
C1226 C1227 1.374 . S
C1227 H1207 0.950 . S
C1227 C1223 1.385 . S
C1227 C1226 1.374 . S
C1228 C1225 1.499 . S
C1228 C1229 1.373 . S
C1228 C1230 1.389 . S
C1229 H1208 0.950 . S
C1229 C1228 1.373 . S
C1229 C1245 1.377 . S
C1230 C1228 1.389 . S
C1230 C1231 1.524 . S
C1230 C1244 1.377 . S
C1231 C1230 1.524 . S
C1231 C1232 1.397 . S
C1231 C1236 1.363 . S
C1232 H1209 0.950 . S
C1232 C1231 1.397 . S
C1232 C1233 1.334 . S
C1233 H1210 0.950 . S
C1233 C1232 1.334 . S
C1233 C1234 1.287 . S
C1234 C1233 1.287 . S
C1234 C1235 1.524 . S
C1234 H1253 0.913 . S
C1235 H1211 0.950 . S
C1235 C1234 1.524 . S
C1235 C1236 1.415 . S
C1236 H1212 0.950 . S
C1236 C1231 1.363 . S
C1236 C1235 1.415 . S
C1237 H1213 0.951 . S
C1237 C1238 1.330 1_554 S
C1237 C1239 1.388 . S
C1238 C1237 1.330 1_556 S
C1238 C1242 1.442 . S
C1239 H1214 0.951 . S
C1239 C1237 1.388 . S
C1239 C1240 1.366 1_554 S
C1240 C1239 1.366 1_556 S
C1240 C1241 1.414 . S
C1240 C1243 1.499 . S
C1241 H1215 0.950 . S
C1241 C1240 1.414 . S
C1241 C1242 1.374 . S
C1242 H1216 0.950 . S
C1242 C1238 1.442 . S
C1242 C1241 1.374 . S
C1243 C1240 1.499 . S
C1243 C1244 1.373 . S
C1243 C1245 1.389 . S
C1244 H1217 0.950 . S
C1244 C1230 1.377 . S
C1244 C1243 1.373 . S
C1245 C1229 1.377 . S
C1245 C1243 1.389 . S
C1245 C1246 1.524 . S
C1246 C1245 1.524 . S
C1246 C1247 1.397 . S
C1246 C1251 1.363 . S
C1247 H1218 0.950 . S
C1247 C1246 1.397 . S
C1247 C1248 1.334 . S
C1248 H1219 0.950 . S
C1248 C1247 1.334 . S
C1248 C1249 1.287 . S
C1249 C1248 1.287 . S
C1249 C1250 1.524 . S
C1249 H1252 0.999 . S
C1250 H1220 0.950 1_556 S
C1250 C1249 1.524 . S
C1250 C1251 1.415 . S
C1251 H1221 0.950 1_556 S
C1251 C1246 1.363 . S
C1251 C1250 1.415 . S
H1252 C1249 0.999 . S
H1253 C1234 0.913 . S
H1254 C1272 0.951 . S
H1255 C1274 0.951 . S
H1256 C1276 0.950 . S
H1257 C1277 0.950 . S
H1258 C1279 0.950 . S
H1259 C1282 0.950 . S
H1260 C1283 0.950 . S
H1261 C1285 0.953 . S
H1262 C1286 0.950 . S
H1263 C1287 0.951 1_554 S
H1264 C1289 0.951 . S
H1265 C1291 0.950 . S
H1266 C1292 0.950 . S
H1267 C1294 0.950 . S
H1268 C1297 0.950 . S
H1269 C1298 0.950 . S
H1270 C1300 0.950 . S
H1271 C1301 0.950 . S
C1272 H1254 0.951 . S
C1272 C1273 1.366 . S
C1272 C1274 1.388 . S
C1273 C1272 1.366 . S
C1273 C1277 1.385 . S
C1274 H1255 0.951 . S
C1274 C1272 1.388 . S
C1274 C1275 1.366 . S
C1275 C1274 1.366 . S
C1275 C1276 1.414 . S
C1275 C1278 1.499 . S
C1276 H1256 0.950 . S
C1276 C1275 1.414 . S
C1276 C1277 1.374 . S
C1277 H1257 0.950 . S
C1277 C1273 1.385 . S
C1277 C1276 1.374 . S
C1278 C1275 1.499 . S
C1278 C1279 1.373 . S
C1278 C1280 1.389 . S
C1279 H1258 0.950 . S
C1279 C1278 1.373 . S
C1279 C1295 1.377 . S
C1280 C1278 1.389 . S
C1280 C1281 1.524 . S
C1280 C1294 1.377 . S
C1281 C1280 1.524 . S
C1281 C1282 1.397 1_556 S
C1281 C1286 1.363 . S
C1282 H1259 0.950 . S
C1282 C1281 1.397 1_554 S
C1282 C1283 1.334 . S
C1283 H1260 0.950 . S
C1283 C1282 1.334 . S
C1283 C1284 1.287 . S
C1284 C1283 1.287 . S
C1284 C1285 1.524 . S
C1284 H1303 0.913 . S
C1285 H1261 0.953 . S
C1285 C1284 1.524 . S
C1285 C1286 1.415 1_554 S
C1286 H1262 0.950 . S
C1286 C1281 1.363 . S
C1286 C1285 1.415 1_556 S
C1287 H1263 0.951 1_556 S
C1287 C1288 1.366 . S
C1287 C1289 1.387 . S
C1288 C1287 1.366 . S
C1288 C1292 1.385 . S
C1289 H1264 0.951 . S
C1289 C1287 1.387 . S
C1289 C1290 1.366 . S
C1290 C1289 1.366 . S
C1290 C1291 1.414 . S
C1290 C1293 1.499 . S
C1291 H1265 0.950 . S
C1291 C1290 1.414 . S
C1291 C1292 1.374 . S
C1292 H1266 0.950 . S
C1292 C1288 1.385 . S
C1292 C1291 1.374 . S
C1293 C1290 1.499 . S
C1293 C1294 1.373 . S
C1293 C1295 1.389 . S
C1294 H1267 0.950 . S
C1294 C1280 1.377 . S
C1294 C1293 1.373 . S
C1295 C1279 1.377 . S
C1295 C1293 1.389 . S
C1295 C1296 1.524 . S
C1296 C1295 1.524 . S
C1296 C1297 1.397 . S
C1296 C1301 1.363 . S
C1297 H1268 0.950 . S
C1297 C1296 1.397 . S
C1297 C1298 1.334 . S
C1298 H1269 0.950 . S
C1298 C1297 1.334 . S
C1298 C1299 1.287 . S
C1299 C1298 1.287 . S
C1299 C1300 1.524 . S
C1299 H1302 0.999 . S
C1300 H1270 0.950 . S
C1300 C1299 1.524 . S
C1300 C1301 1.415 . S
C1301 H1271 0.950 . S
C1301 C1296 1.363 . S
C1301 C1300 1.415 . S
H1302 C1299 0.999 . S
H1303 C1284 0.913 . S
H1304 C1322 0.951 . S
H1305 C1324 0.951 . S
H1306 C1326 0.950 . S
H1307 C1327 0.950 . S
H1308 C1329 0.950 . S
H1309 C1332 0.950 1_556 S
H1310 C1333 0.950 . S
H1311 C1335 0.950 . S
H1312 C1336 0.950 . S
H1313 C1337 0.951 . S
H1314 C1339 0.951 . S
H1315 C1341 0.950 1_554 S
H1316 C1342 0.950 . S
H1317 C1344 0.950 1_554 S
H1318 C1347 0.950 . S
H1319 C1348 0.950 . S
H1320 C1350 0.950 . S
H1321 C1351 0.950 . S
C1322 H1304 0.951 . S
C1322 C1323 1.366 . S
C1322 C1324 1.388 . S
C1323 C1322 1.366 . S
C1323 C1327 1.385 . S
C1324 H1305 0.951 . S
C1324 C1322 1.388 . S
C1324 C1325 1.366 . S
C1325 C1324 1.366 . S
C1325 C1326 1.414 . S
C1325 C1328 1.499 . S
C1326 H1306 0.950 . S
C1326 C1325 1.414 . S
C1326 C1327 1.374 . S
C1327 H1307 0.950 . S
C1327 C1323 1.385 . S
C1327 C1326 1.374 . S
C1328 C1325 1.499 . S
C1328 C1329 1.373 . S
C1328 C1330 1.389 . S
C1329 H1308 0.950 . S
C1329 C1328 1.373 . S
C1329 C1345 1.377 . S
C1330 C1328 1.389 . S
C1330 C1331 1.524 1_556 S
C1330 C1344 1.377 . S
C1331 C1330 1.524 1_554 S
C1331 C1332 1.397 . S
C1331 C1336 1.363 . S
C1332 H1309 0.950 1_554 S
C1332 C1331 1.397 . S
C1332 C1333 1.334 . S
C1333 H1310 0.950 . S
C1333 C1332 1.334 . S
C1333 C1334 1.287 . S
C1334 C1333 1.287 . S
C1334 C1335 1.524 . S
C1334 H1353 0.913 . S
C1335 H1311 0.950 . S
C1335 C1334 1.524 . S
C1335 C1336 1.415 . S
C1336 H1312 0.950 . S
C1336 C1331 1.363 . S
C1336 C1335 1.415 . S
C1337 H1313 0.951 . S
C1337 C1338 1.366 . S
C1337 C1339 1.388 . S
C1338 C1337 1.366 . S
C1338 C1342 1.385 1_556 S
C1339 H1314 0.951 . S
C1339 C1337 1.388 . S
C1339 C1340 1.366 . S
C1340 C1339 1.366 . S
C1340 C1341 1.414 . S
C1340 C1343 1.499 . S
C1341 H1315 0.950 1_556 S
C1341 C1340 1.414 . S
C1341 C1342 1.374 1_556 S
C1342 H1316 0.950 . S
C1342 C1338 1.385 1_554 S
C1342 C1341 1.374 1_554 S
C1343 C1340 1.499 . S
C1343 C1344 1.373 . S
C1343 C1345 1.389 . S
C1344 H1317 0.950 1_556 S
C1344 C1330 1.377 . S
C1344 C1343 1.373 . S
C1345 C1329 1.377 . S
C1345 C1343 1.389 . S
C1345 C1346 1.524 . S
C1346 C1345 1.524 . S
C1346 C1347 1.397 . S
C1346 C1351 1.363 . S
C1347 H1318 0.950 . S
C1347 C1346 1.397 . S
C1347 C1348 1.334 . S
C1348 H1319 0.950 . S
C1348 C1347 1.334 . S
C1348 C1349 1.287 . S
C1349 C1348 1.287 . S
C1349 C1350 1.524 . S
C1349 H1352 0.999 . S
C1350 H1320 0.950 . S
C1350 C1349 1.524 . S
C1350 C1351 1.415 . S
C1351 H1321 0.950 . S
C1351 C1346 1.363 . S
C1351 C1350 1.415 . S
H1352 C1349 0.999 . S
H1353 C1334 0.913 . S
H1354 C1372 0.951 . S
H1355 C1374 0.951 . S
H1356 C1376 0.950 . S
H1357 C1377 0.950 . S
H1358 C1379 0.950 . S
H1359 C1382 0.950 . S
H1360 C1383 0.950 . S
H1361 C1385 0.950 . S
H1362 C1386 0.950 . S
H1363 C1387 0.951 . S
H1364 C1389 0.951 . S
H1365 C1391 0.950 . S
H1366 C1392 0.945 1_554 S
H1367 C1394 0.950 . S
H1368 C1397 0.950 . S
H1369 C1398 0.950 . S
H1370 C1400 0.950 . S
H1371 C1401 0.950 . S
C1372 H1354 0.951 . S
C1372 C1373 1.366 . S
C1372 C1374 1.388 . S
C1373 C1372 1.366 . S
C1373 C1377 1.385 . S
C1374 H1355 0.951 . S
C1374 C1372 1.388 . S
C1374 C1375 1.366 . S
C1375 C1374 1.366 . S
C1375 C1376 1.414 . S
C1375 C1378 1.499 . S
C1376 H1356 0.950 . S
C1376 C1375 1.414 . S
C1376 C1377 1.374 . S
C1377 H1357 0.950 . S
C1377 C1373 1.385 . S
C1377 C1376 1.374 . S
C1378 C1375 1.499 . S
C1378 C1379 1.373 . S
C1378 C1380 1.389 . S
C1379 H1358 0.950 . S
C1379 C1378 1.373 . S
C1379 C1395 1.377 . S
C1380 C1378 1.389 . S
C1380 C1381 1.524 . S
C1380 C1394 1.377 . S
C1381 C1380 1.524 . S
C1381 C1382 1.397 . S
C1381 C1386 1.363 . S
C1382 H1359 0.950 . S
C1382 C1381 1.397 . S
C1382 C1383 1.334 . S
C1383 H1360 0.950 . S
C1383 C1382 1.334 . S
C1383 C1384 1.287 . S
C1384 C1383 1.287 . S
C1384 C1385 1.524 . S
C1384 H1403 0.913 . S
C1385 H1361 0.950 . S
C1385 C1384 1.524 . S
C1385 C1386 1.415 . S
C1386 H1362 0.950 . S
C1386 C1381 1.363 . S
C1386 C1385 1.415 . S
C1387 H1363 0.951 . S
C1387 C1388 1.372 . S
C1387 C1389 1.388 . S
C1388 C1387 1.372 . S
C1388 C1392 1.387 . S
C1389 H1364 0.951 . S
C1389 C1387 1.388 . S
C1389 C1390 1.366 . S
C1390 C1389 1.366 . S
C1390 C1391 1.414 . S
C1390 C1393 1.499 . S
C1391 H1365 0.950 . S
C1391 C1390 1.414 . S
C1391 C1392 1.374 . S
C1392 H1366 0.945 1_556 S
C1392 C1388 1.387 . S
C1392 C1391 1.374 . S
C1393 C1390 1.499 . S
C1393 C1394 1.373 . S
C1393 C1395 1.389 . S
C1394 H1367 0.950 . S
C1394 C1380 1.377 . S
C1394 C1393 1.373 . S
C1395 C1379 1.377 . S
C1395 C1393 1.389 . S
C1395 C1396 1.524 1_556 S
C1396 C1395 1.524 1_554 S
C1396 C1397 1.397 . S
C1396 C1401 1.363 . S
C1397 H1368 0.950 . S
C1397 C1396 1.397 . S
C1397 C1398 1.334 . S
C1398 H1369 0.950 . S
C1398 C1397 1.334 . S
C1398 C1399 1.287 . S
C1399 C1398 1.287 . S
C1399 C1400 1.524 . S
C1399 H1402 0.999 . S
C1400 H1370 0.950 . S
C1400 C1399 1.524 . S
C1400 C1401 1.415 . S
C1401 H1371 0.950 . S
C1401 C1396 1.363 . S
C1401 C1400 1.415 . S
H1402 C1399 0.999 . S
H1403 C1384 0.913 . S
H1404 C1422 0.951 . S
H1405 C1424 0.951 . S
H1406 C1426 0.950 . S
H1407 C1427 0.950 . S
H1408 C1429 0.950 . S
H1409 C1432 0.950 . S
H1410 C1433 0.950 . S
H1411 C1435 0.950 . S
H1412 C1436 0.950 . S
H1413 C1437 0.951 . S
H1414 C1439 0.951 . S
H1415 C1441 0.950 . S
H1416 C1442 0.950 . S
H1417 C1444 0.950 . S
H1418 C1447 0.950 . S
H1419 C1448 0.950 . S
H1420 C1450 0.950 . S
H1421 C1451 0.950 . S
C1422 H1404 0.951 . S
C1422 C1423 1.366 . S
C1422 C1424 1.388 . S
C1423 C1422 1.366 . S
C1423 C1427 1.385 . S
C1424 H1405 0.951 . S
C1424 C1422 1.388 . S
C1424 C1425 1.366 . S
C1425 C1424 1.366 . S
C1425 C1426 1.414 . S
C1425 C1428 1.499 . S
C1426 H1406 0.950 . S
C1426 C1425 1.414 . S
C1426 C1427 1.374 . S
C1427 H1407 0.950 . S
C1427 C1423 1.385 . S
C1427 C1426 1.374 . S
C1428 C1425 1.499 . S
C1428 C1429 1.373 . S
C1428 C1430 1.389 . S
C1429 H1408 0.950 . S
C1429 C1428 1.373 . S
C1429 C1445 1.377 . S
C1430 C1428 1.389 . S
C1430 C1431 1.524 . S
C1430 C1444 1.377 . S
C1431 C1430 1.524 . S
C1431 C1432 1.397 . S
C1431 C1436 1.363 . S
C1432 H1409 0.950 . S
C1432 C1431 1.397 . S
C1432 C1433 1.334 1_554 S
C1433 H1410 0.950 . S
C1433 C1432 1.334 1_556 S
C1433 C1434 1.287 . S
C1434 C1433 1.287 . S
C1434 C1435 1.524 . S
C1434 H1453 0.913 . S
C1435 H1411 0.950 . S
C1435 C1434 1.524 . S
C1435 C1436 1.415 1_556 S
C1436 H1412 0.950 . S
C1436 C1431 1.363 . S
C1436 C1435 1.415 1_554 S
C1437 H1413 0.951 . S
C1437 C1438 1.366 . S
C1437 C1439 1.388 . S
C1438 C1437 1.366 . S
C1438 C1442 1.385 . S
C1439 H1414 0.951 . S
C1439 C1437 1.388 . S
C1439 C1440 1.366 . S
C1440 C1439 1.366 . S
C1440 C1441 1.414 . S
C1440 C1443 1.499 . S
C1441 H1415 0.950 . S
C1441 C1440 1.414 . S
C1441 C1442 1.374 . S
C1442 H1416 0.950 . S
C1442 C1438 1.385 . S
C1442 C1441 1.374 . S
C1443 C1440 1.499 . S
C1443 C1444 1.373 . S
C1443 C1445 1.389 . S
C1444 H1417 0.950 . S
C1444 C1430 1.377 . S
C1444 C1443 1.373 . S
C1445 C1429 1.377 . S
C1445 C1443 1.389 . S
C1445 C1446 1.524 . S
C1446 C1445 1.524 . S
C1446 C1447 1.397 . S
C1446 C1451 1.363 . S
C1447 H1418 0.950 . S
C1447 C1446 1.397 . S
C1447 C1448 1.334 . S
C1448 H1419 0.950 . S
C1448 C1447 1.334 . S
C1448 C1449 1.287 . S
C1449 C1448 1.287 . S
C1449 C1450 1.524 . S
C1449 H1452 0.999 . S
C1450 H1420 0.950 . S
C1450 C1449 1.524 . S
C1450 C1451 1.415 . S
C1451 H1421 0.950 . S
C1451 C1446 1.363 . S
C1451 C1450 1.415 . S
H1452 C1449 0.999 . S
H1453 C1434 0.913 . S
H1454 C1472 0.951 . S
H1455 C1474 0.951 . S
H1456 C1476 0.950 . S
H1457 C1477 0.950 . S
H1458 C1479 0.950 . S
H1459 C1482 0.950 . S
H1460 C1483 0.950 . S
H1461 C1485 0.950 . S
H1462 C1486 0.950 . S
H1463 C1487 0.951 . S
H1464 C1489 0.951 . S
H1465 C1491 0.950 . S
H1466 C1492 0.950 . S
H1467 C1494 0.950 . S
H1468 C1497 0.950 . S
H1469 C1498 0.950 . S
H1470 C1500 0.950 . S
H1471 C1501 0.950 . S
C1472 H1454 0.951 . S
C1472 C1473 1.366 . S
C1472 C1474 1.388 . S
C1473 C1472 1.366 . S
C1473 C1477 1.385 . S
C1474 H1455 0.951 . S
C1474 C1472 1.388 . S
C1474 C1475 1.366 . S
C1475 C1474 1.366 . S
C1475 C1476 1.414 . S
C1475 C1478 1.499 . S
C1476 H1456 0.950 . S
C1476 C1475 1.414 . S
C1476 C1477 1.374 . S
C1477 H1457 0.950 . S
C1477 C1473 1.385 . S
C1477 C1476 1.374 . S
C1478 C1475 1.499 . S
C1478 C1479 1.373 . S
C1478 C1480 1.389 . S
C1479 H1458 0.950 . S
C1479 C1478 1.373 . S
C1479 C1495 1.377 . S
C1480 C1478 1.389 . S
C1480 C1481 1.524 . S
C1480 C1494 1.377 . S
C1481 C1480 1.524 . S
C1481 C1482 1.397 . S
C1481 C1486 1.363 . S
C1482 H1459 0.950 . S
C1482 C1481 1.397 . S
C1482 C1483 1.334 . S
C1483 H1460 0.950 . S
C1483 C1482 1.334 . S
C1483 C1484 1.287 . S
C1484 C1483 1.287 . S
C1484 C1485 1.524 . S
C1484 H1503 0.913 . S
C1485 H1461 0.950 . S
C1485 C1484 1.524 . S
C1485 C1486 1.415 . S
C1486 H1462 0.950 . S
C1486 C1481 1.363 . S
C1486 C1485 1.415 . S
C1487 H1463 0.951 . S
C1487 C1488 1.366 . S
C1487 C1489 1.388 . S
C1488 C1487 1.366 . S
C1488 C1492 1.385 . S
C1489 H1464 0.951 . S
C1489 C1487 1.388 . S
C1489 C1490 1.366 . S
C1490 C1489 1.366 . S
C1490 C1491 1.414 . S
C1490 C1493 1.499 . S
C1491 H1465 0.950 . S
C1491 C1490 1.414 . S
C1491 C1492 1.374 . S
C1492 H1466 0.950 . S
C1492 C1488 1.385 . S
C1492 C1491 1.374 . S
C1493 C1490 1.499 . S
C1493 C1494 1.373 . S
C1493 C1495 1.389 . S
C1494 H1467 0.950 . S
C1494 C1480 1.377 . S
C1494 C1493 1.373 . S
C1495 C1479 1.377 . S
C1495 C1493 1.389 . S
C1495 C1496 1.524 . S
C1496 C1495 1.524 . S
C1496 C1497 1.397 . S
C1496 C1501 1.363 . S
C1497 H1468 0.950 . S
C1497 C1496 1.397 . S
C1497 C1498 1.334 . S
C1498 H1469 0.950 . S
C1498 C1497 1.334 . S
C1498 C1499 1.287 1_554 S
C1499 C1498 1.287 1_556 S
C1499 C1500 1.524 . S
C1499 H1502 0.999 . S
C1500 H1470 0.950 . S
C1500 C1499 1.524 . S
C1500 C1501 1.415 1_556 S
C1501 H1471 0.950 . S
C1501 C1496 1.363 . S
C1501 C1500 1.415 1_554 S
H1502 C1499 0.999 . S
H1503 C1484 0.913 . S
H1504 C1522 0.951 . S
H1505 C1524 0.951 . S
H1506 C1526 0.950 . S
H1507 C1527 0.950 . S
H1508 C1529 0.950 . S
H1509 C1532 0.950 . S
H1510 C1533 0.950 . S
H1511 C1535 0.950 . S
H1512 C1536 0.950 . S
H1513 C1537 0.951 . S
H1514 C1539 0.951 . S
H1515 C1541 0.950 . S
H1516 C1542 0.950 . S
H1517 C1544 0.950 . S
H1518 C1547 0.942 1_556 S
H1519 C1548 0.950 . S
H1520 C1550 0.950 . S
H1521 C1551 0.950 . S
C1522 H1504 0.951 . S
C1522 C1523 1.366 . S
C1522 C1524 1.388 . S
C1523 C1522 1.366 . S
C1523 C1527 1.385 . S
C1524 H1505 0.951 . S
C1524 C1522 1.388 . S
C1524 C1525 1.366 . S
C1525 C1524 1.366 . S
C1525 C1526 1.414 . S
C1525 C1528 1.499 . S
C1526 H1506 0.950 . S
C1526 C1525 1.414 . S
C1526 C1527 1.374 . S
C1527 H1507 0.950 . S
C1527 C1523 1.385 . S
C1527 C1526 1.374 . S
C1528 C1525 1.499 . S
C1528 C1529 1.373 . S
C1528 C1530 1.389 . S
C1529 H1508 0.950 . S
C1529 C1528 1.373 . S
C1529 C1545 1.377 . S
C1530 C1528 1.389 . S
C1530 C1531 1.524 . S
C1530 C1544 1.377 . S
C1531 C1530 1.524 . S
C1531 C1532 1.397 . S
C1531 C1536 1.363 . S
C1532 H1509 0.950 . S
C1532 C1531 1.397 . S
C1532 C1533 1.334 . S
C1533 H1510 0.950 . S
C1533 C1532 1.334 . S
C1533 C1534 1.287 . S
C1534 C1533 1.287 . S
C1534 C1535 1.524 . S
C1534 H1553 0.913 . S
C1535 H1511 0.950 . S
C1535 C1534 1.524 . S
C1535 C1536 1.415 . S
C1536 H1512 0.950 . S
C1536 C1531 1.363 . S
C1536 C1535 1.415 . S
C1537 H1513 0.951 . S
C1537 C1538 1.366 . S
C1537 C1539 1.388 . S
C1538 C1537 1.366 . S
C1538 C1542 1.385 . S
C1539 H1514 0.951 . S
C1539 C1537 1.388 . S
C1539 C1540 1.366 . S
C1540 C1539 1.366 . S
C1540 C1541 1.414 . S
C1540 C1543 1.499 . S
C1541 H1515 0.950 . S
C1541 C1540 1.414 . S
C1541 C1542 1.374 . S
C1542 H1516 0.950 . S
C1542 C1538 1.385 . S
C1542 C1541 1.374 . S
C1543 C1540 1.499 . S
C1543 C1544 1.373 . S
C1543 C1545 1.389 . S
C1544 H1517 0.950 . S
C1544 C1530 1.377 . S
C1544 C1543 1.373 . S
C1545 C1529 1.377 . S
C1545 C1543 1.389 . S
C1545 C1546 1.524 . S
C1546 C1545 1.524 . S
C1546 C1547 1.450 . S
C1546 C1551 1.363 . S
C1547 H1518 0.942 1_554 S
C1547 C1546 1.450 . S
C1547 C1548 1.290 1_554 S
C1548 H1519 0.950 . S
C1548 C1547 1.290 1_556 S
C1548 C1549 1.287 . S
C1549 C1548 1.287 . S
C1549 C1550 1.524 1_556 S
C1549 H1552 0.999 . S
C1550 H1520 0.950 . S
C1550 C1549 1.524 1_554 S
C1550 C1551 1.415 . S
C1551 H1521 0.950 . S
C1551 C1546 1.363 . S
C1551 C1550 1.415 . S
H1552 C1549 0.999 . S
H1553 C1534 0.913 . S
H1554 C1572 0.951 . S
H1555 C1574 0.951 . S
H1556 C1576 0.950 . S
H1557 C1577 0.950 . S
H1558 C1579 0.950 . S
H1559 C1582 0.950 . S
H1560 C1583 0.950 . S
H1561 C1585 0.950 . S
H1562 C1586 0.950 . S
H1563 C1587 0.951 . S
H1564 C1589 0.951 . S
H1565 C1591 0.950 . S
H1566 C1592 0.950 . S
H1567 C1594 0.950 . S
H1568 C1597 0.950 . S
H1569 C1598 0.950 . S
H1570 C1600 0.950 . S
H1571 C1601 0.950 . S
C1572 H1554 0.951 . S
C1572 C1573 1.366 . S
C1572 C1574 1.388 . S
C1573 C1572 1.366 . S
C1573 C1577 1.385 . S
C1574 H1555 0.951 . S
C1574 C1572 1.388 . S
C1574 C1575 1.366 . S
C1575 C1574 1.366 . S
C1575 C1576 1.414 . S
C1575 C1578 1.499 . S
C1576 H1556 0.950 . S
C1576 C1575 1.414 . S
C1576 C1577 1.374 . S
C1577 H1557 0.950 . S
C1577 C1573 1.385 . S
C1577 C1576 1.374 . S
C1578 C1575 1.499 . S
C1578 C1579 1.373 1_655 S
C1578 C1580 1.389 . S
C1579 H1558 0.950 . S
C1579 C1578 1.373 1_455 S
C1579 C1595 1.377 . S
C1580 C1578 1.389 . S
C1580 C1581 1.524 . S
C1580 C1594 1.377 1_655 S
C1581 C1580 1.524 . S
C1581 C1582 1.397 . S
C1581 C1586 1.363 . S
C1582 H1559 0.950 . S
C1582 C1581 1.397 . S
C1582 C1583 1.334 . S
C1583 H1560 0.950 . S
C1583 C1582 1.334 . S
C1583 C1584 1.287 . S
C1584 C1583 1.287 . S
C1584 C1585 1.524 . S
C1584 H1603 0.913 . S
C1585 H1561 0.950 . S
C1585 C1584 1.524 . S
C1585 C1586 1.415 . S
C1586 H1562 0.950 . S
C1586 C1581 1.363 . S
C1586 C1585 1.415 . S
C1587 H1563 0.951 . S
C1587 C1588 1.366 . S
C1587 C1589 1.388 . S
C1588 C1587 1.366 . S
C1588 C1592 1.385 . S
C1589 H1564 0.951 . S
C1589 C1587 1.388 . S
C1589 C1590 1.366 . S
C1590 C1589 1.366 . S
C1590 C1591 1.414 . S
C1590 C1593 1.499 . S
C1591 H1565 0.950 . S
C1591 C1590 1.414 . S
C1591 C1592 1.374 . S
C1592 H1566 0.950 . S
C1592 C1588 1.385 . S
C1592 C1591 1.374 . S
C1593 C1590 1.499 . S
C1593 C1594 1.373 . S
C1593 C1595 1.389 . S
C1594 H1567 0.950 . S
C1594 C1580 1.377 1_455 S
C1594 C1593 1.373 . S
C1595 C1579 1.377 . S
C1595 C1593 1.389 . S
C1595 C1596 1.524 . S
C1596 C1595 1.524 . S
C1596 C1597 1.397 . S
C1596 C1601 1.363 . S
C1597 H1568 0.950 . S
C1597 C1596 1.397 . S
C1597 C1598 1.334 . S
C1598 H1569 0.950 . S
C1598 C1597 1.334 . S
C1598 C1599 1.287 . S
C1599 C1598 1.287 . S
C1599 C1600 1.524 . S
C1599 H1602 0.999 . S
C1600 H1570 0.950 . S
C1600 C1599 1.524 . S
C1600 C1601 1.415 . S
C1601 H1571 0.950 . S
C1601 C1596 1.363 . S
C1601 C1600 1.415 . S
H1602 C1599 0.999 . S
H1603 C1584 0.913 . S
H1604 C1622 0.951 . S
H1605 C1624 0.951 . S
H1606 C1626 0.950 . S
H1607 C1627 0.950 . S
H1608 C1629 0.950 . S
H1609 C1632 0.950 . S
H1610 C1633 0.950 . S
H1611 C1635 0.950 . S
H1612 C1636 0.950 . S
H1613 C1637 0.951 . S
H1614 C1639 0.951 . S
H1615 C1641 0.950 . S
H1616 C1642 0.950 . S
H1617 C1644 0.950 . S
H1618 C1647 0.950 . S
H1619 C1648 0.950 . S
H1620 C1650 0.950 . S
H1621 C1651 0.950 . S
C1622 H1604 0.951 . S
C1622 C1623 1.366 . S
C1622 C1624 1.388 . S
C1623 C1622 1.366 . S
C1623 C1627 1.385 . S
C1624 H1605 0.951 . S
C1624 C1622 1.388 . S
C1624 C1625 1.366 . S
C1625 C1624 1.366 . S
C1625 C1626 1.414 . S
C1625 C1628 1.499 . S
C1626 H1606 0.950 . S
C1626 C1625 1.414 . S
C1626 C1627 1.374 . S
C1627 H1607 0.950 . S
C1627 C1623 1.385 . S
C1627 C1626 1.374 . S
C1628 C1625 1.499 . S
C1628 C1629 1.373 . S
C1628 C1630 1.389 . S
C1629 H1608 0.950 . S
C1629 C1628 1.373 . S
C1629 C1645 1.377 . S
C1630 C1628 1.389 . S
C1630 C1631 1.524 . S
C1630 C1644 1.377 . S
C1631 C1630 1.524 . S
C1631 C1632 1.397 . S
C1631 C1636 1.363 . S
C1632 H1609 0.950 . S
C1632 C1631 1.397 . S
C1632 C1633 1.334 . S
C1633 H1610 0.950 . S
C1633 C1632 1.334 . S
C1633 C1634 1.287 . S
C1634 C1633 1.287 . S
C1634 C1635 1.524 . S
C1634 H1653 0.913 . S
C1635 H1611 0.950 . S
C1635 C1634 1.524 . S
C1635 C1636 1.415 . S
C1636 H1612 0.950 . S
C1636 C1631 1.363 . S
C1636 C1635 1.415 . S
C1637 H1613 0.951 . S
C1637 C1638 1.366 . S
C1637 C1639 1.388 . S
C1638 C1637 1.366 . S
C1638 C1642 1.385 . S
C1639 H1614 0.951 . S
C1639 C1637 1.388 . S
C1639 C1640 1.366 . S
C1640 C1639 1.366 . S
C1640 C1641 1.414 . S
C1640 C1643 1.499 . S
C1641 H1615 0.950 . S
C1641 C1640 1.414 . S
C1641 C1642 1.374 . S
C1642 H1616 0.950 . S
C1642 C1638 1.385 . S
C1642 C1641 1.374 . S
C1643 C1640 1.499 . S
C1643 C1644 1.373 . S
C1643 C1645 1.389 . S
C1644 H1617 0.950 . S
C1644 C1630 1.377 . S
C1644 C1643 1.373 . S
C1645 C1629 1.377 . S
C1645 C1643 1.389 . S
C1645 C1646 1.524 . S
C1646 C1645 1.524 . S
C1646 C1647 1.397 . S
C1646 C1651 1.363 . S
C1647 H1618 0.950 . S
C1647 C1646 1.397 . S
C1647 C1648 1.334 . S
C1648 H1619 0.950 . S
C1648 C1647 1.334 . S
C1648 C1649 1.287 . S
C1649 C1648 1.287 . S
C1649 C1650 1.524 . S
C1649 H1652 0.999 . S
C1650 H1620 0.950 . S
C1650 C1649 1.524 . S
C1650 C1651 1.415 . S
C1651 H1621 0.950 . S
C1651 C1646 1.363 . S
C1651 C1650 1.415 . S
H1652 C1649 0.999 . S
H1653 C1634 0.913 . S
H1654 C1672 0.951 . S
H1655 C1674 0.951 . S
H1656 C1676 0.950 . S
H1657 C1677 0.950 . S
H1658 C1679 0.950 . S
H1659 C1682 0.950 . S
H1660 C1683 0.950 . S
H1661 C1685 0.950 1_565 S
H1662 C1686 0.967 . S
H1663 C1687 0.951 . S
H1664 C1689 0.951 . S
H1665 C1691 0.950 . S
H1666 C1692 0.950 . S
H1667 C1694 0.950 . S
H1668 C1697 0.950 . S
H1669 C1698 0.950 . S
H1670 C1700 0.950 . S
H1671 C1701 0.950 . S
C1672 H1654 0.951 . S
C1672 C1673 1.366 . S
C1672 C1674 1.388 . S
C1673 C1672 1.366 . S
C1673 C1677 1.385 . S
C1674 H1655 0.951 . S
C1674 C1672 1.388 . S
C1674 C1675 1.366 . S
C1675 C1674 1.366 . S
C1675 C1676 1.414 . S
C1675 C1678 1.499 . S
C1676 H1656 0.950 . S
C1676 C1675 1.414 . S
C1676 C1677 1.374 . S
C1677 H1657 0.950 . S
C1677 C1673 1.385 . S
C1677 C1676 1.374 . S
C1678 C1675 1.499 . S
C1678 C1679 1.373 . S
C1678 C1680 1.389 . S
C1679 H1658 0.950 . S
C1679 C1678 1.373 . S
C1679 C1695 1.377 1_545 S
C1680 C1678 1.389 . S
C1680 C1681 1.524 . S
C1680 C1694 1.377 1_545 S
C1681 C1680 1.524 . S
C1681 C1682 1.397 . S
C1681 C1686 1.351 1_545 S
C1682 H1659 0.950 . S
C1682 C1681 1.397 . S
C1682 C1683 1.334 . S
C1683 H1660 0.950 . S
C1683 C1682 1.334 . S
C1683 C1684 1.287 . S
C1684 C1683 1.287 . S
C1684 C1685 1.524 . S
C1684 H1703 0.913 . S
C1685 H1661 0.950 1_545 S
C1685 C1684 1.524 . S
C1685 C1686 1.412 1_545 S
C1686 H1662 0.967 . S
C1686 C1681 1.351 1_565 S
C1686 C1685 1.412 1_565 S
C1687 H1663 0.951 . S
C1687 C1688 1.366 . S
C1687 C1689 1.388 . S
C1688 C1687 1.366 . S
C1688 C1692 1.385 . S
C1689 H1664 0.951 . S
C1689 C1687 1.388 . S
C1689 C1690 1.366 . S
C1690 C1689 1.366 . S
C1690 C1691 1.414 . S
C1690 C1693 1.499 . S
C1691 H1665 0.950 . S
C1691 C1690 1.414 . S
C1691 C1692 1.374 . S
C1692 H1666 0.950 . S
C1692 C1688 1.385 . S
C1692 C1691 1.374 . S
C1693 C1690 1.499 . S
C1693 C1694 1.373 . S
C1693 C1695 1.389 . S
C1694 H1667 0.950 . S
C1694 C1680 1.377 1_565 S
C1694 C1693 1.373 . S
C1695 C1679 1.377 1_565 S
C1695 C1693 1.389 . S
C1695 C1696 1.524 . S
C1696 C1695 1.524 . S
C1696 C1697 1.397 . S
C1696 C1701 1.363 1_565 S
C1697 H1668 0.950 . S
C1697 C1696 1.397 . S
C1697 C1698 1.334 . S
C1698 H1669 0.950 . S
C1698 C1697 1.334 . S
C1698 C1699 1.287 . S
C1699 C1698 1.287 . S
C1699 C1700 1.524 1_565 S
C1699 H1702 0.999 . S
C1700 H1670 0.950 . S
C1700 C1699 1.524 1_545 S
C1700 C1701 1.415 . S
C1701 H1671 0.950 . S
C1701 C1696 1.363 1_545 S
C1701 C1700 1.415 . S
H1702 C1699 0.999 . S
H1703 C1684 0.913 . S
H1704 C1722 0.951 . S
H1705 C1724 0.951 . S
H1706 C1726 0.950 . S
H1707 C1727 0.950 . S
H1708 C1729 0.950 . S
H1709 C1732 0.950 . S
H1710 C1733 0.950 . S
H1711 C1735 0.950 . S
H1712 C1736 0.950 . S
H1713 C1737 0.951 . S
H1714 C1739 0.951 . S
H1715 C1741 0.950 . S
H1716 C1742 0.950 . S
H1717 C1744 0.950 . S
H1718 C1747 0.950 . S
H1719 C1748 0.950 . S
H1720 C1750 0.950 . S
H1721 C1751 0.950 . S
C1722 H1704 0.951 . S
C1722 C1723 1.366 . S
C1722 C1724 1.388 . S
C1723 C1722 1.366 . S
C1723 C1727 1.385 . S
C1724 H1705 0.951 . S
C1724 C1722 1.388 . S
C1724 C1725 1.366 . S
C1725 C1724 1.366 . S
C1725 C1726 1.414 . S
C1725 C1728 1.499 . S
C1726 H1706 0.950 . S
C1726 C1725 1.414 . S
C1726 C1727 1.374 . S
C1727 H1707 0.950 . S
C1727 C1723 1.385 . S
C1727 C1726 1.374 . S
C1728 C1725 1.499 . S
C1728 C1729 1.373 . S
C1728 C1730 1.389 . S
C1729 H1708 0.950 . S
C1729 C1728 1.373 . S
C1729 C1745 1.377 . S
C1730 C1728 1.389 . S
C1730 C1731 1.524 . S
C1730 C1744 1.377 . S
C1731 C1730 1.524 . S
C1731 C1732 1.397 . S
C1731 C1736 1.363 . S
C1732 H1709 0.950 . S
C1732 C1731 1.397 . S
C1732 C1733 1.334 . S
C1733 H1710 0.950 . S
C1733 C1732 1.334 . S
C1733 C1734 1.287 . S
C1734 C1733 1.287 . S
C1734 C1735 1.524 . S
C1734 H1753 0.913 . S
C1735 H1711 0.950 . S
C1735 C1734 1.524 . S
C1735 C1736 1.415 . S
C1736 H1712 0.950 . S
C1736 C1731 1.363 . S
C1736 C1735 1.415 . S
C1737 H1713 0.951 . S
C1737 C1738 1.366 . S
C1737 C1739 1.388 . S
C1738 C1737 1.366 . S
C1738 C1742 1.385 . S
C1739 H1714 0.951 . S
C1739 C1737 1.388 . S
C1739 C1740 1.366 . S
C1740 C1739 1.366 . S
C1740 C1741 1.414 . S
C1740 C1743 1.499 . S
C1741 H1715 0.950 . S
C1741 C1740 1.414 . S
C1741 C1742 1.374 . S
C1742 H1716 0.950 . S
C1742 C1738 1.385 . S
C1742 C1741 1.374 . S
C1743 C1740 1.499 . S
C1743 C1744 1.373 . S
C1743 C1745 1.389 . S
C1744 H1717 0.950 . S
C1744 C1730 1.377 . S
C1744 C1743 1.373 . S
C1745 C1729 1.377 . S
C1745 C1743 1.389 . S
C1745 C1746 1.524 . S
C1746 C1745 1.524 . S
C1746 C1747 1.397 . S
C1746 C1751 1.363 . S
C1747 H1718 0.950 . S
C1747 C1746 1.397 . S
C1747 C1748 1.334 . S
C1748 H1719 0.950 . S
C1748 C1747 1.334 . S
C1748 C1749 1.287 . S
C1749 C1748 1.287 . S
C1749 C1750 1.524 . S
C1749 H1752 0.999 . S
C1750 H1720 0.950 . S
C1750 C1749 1.524 . S
C1750 C1751 1.415 . S
C1751 H1721 0.950 . S
C1751 C1746 1.363 . S
C1751 C1750 1.415 . S
H1752 C1749 0.999 . S
H1753 C1734 0.913 . S
H1754 C1772 0.951 . S
H1755 C1774 0.951 . S
H1756 C1776 0.950 . S
H1757 C1777 0.950 . S
H1758 C1779 0.950 . S
H1759 C1782 0.950 . S
H1760 C1783 0.950 . S
H1761 C1785 0.950 . S
H1762 C1786 0.950 . S
H1763 C1787 0.951 . S
H1764 C1789 0.951 . S
H1765 C1791 0.950 . S
H1766 C1792 0.950 . S
H1767 C1794 0.950 . S
H1768 C1797 0.950 . S
H1769 C1798 0.950 . S
H1770 C1800 0.950 . S
H1771 C1801 0.950 . S
C1772 H1754 0.951 . S
C1772 C1773 1.366 . S
C1772 C1774 1.388 . S
C1773 C1772 1.366 . S
C1773 C1777 1.385 . S
C1774 H1755 0.951 . S
C1774 C1772 1.388 . S
C1774 C1775 1.366 . S
C1775 C1774 1.366 . S
C1775 C1776 1.414 . S
C1775 C1778 1.499 . S
C1776 H1756 0.950 . S
C1776 C1775 1.414 . S
C1776 C1777 1.374 . S
C1777 H1757 0.950 . S
C1777 C1773 1.385 . S
C1777 C1776 1.374 . S
C1778 C1775 1.499 . S
C1778 C1779 1.373 . S
C1778 C1780 1.389 . S
C1779 H1758 0.950 . S
C1779 C1778 1.373 . S
C1779 C1795 1.377 . S
C1780 C1778 1.389 . S
C1780 C1781 1.524 . S
C1780 C1794 1.377 . S
C1781 C1780 1.524 . S
C1781 C1782 1.397 . S
C1781 C1786 1.363 . S
C1782 H1759 0.950 . S
C1782 C1781 1.397 . S
C1782 C1783 1.334 . S
C1783 H1760 0.950 . S
C1783 C1782 1.334 . S
C1783 C1784 1.287 . S
C1784 C1783 1.287 . S
C1784 C1785 1.524 . S
C1784 H1803 0.913 . S
C1785 H1761 0.950 . S
C1785 C1784 1.524 . S
C1785 C1786 1.415 . S
C1786 H1762 0.950 . S
C1786 C1781 1.363 . S
C1786 C1785 1.415 . S
C1787 H1763 0.951 . S
C1787 C1788 1.366 . S
C1787 C1789 1.388 . S
C1788 C1787 1.366 . S
C1788 C1792 1.385 . S
C1789 H1764 0.951 . S
C1789 C1787 1.388 . S
C1789 C1790 1.366 . S
C1790 C1789 1.366 . S
C1790 C1791 1.414 . S
C1790 C1793 1.499 . S
C1791 H1765 0.950 . S
C1791 C1790 1.414 . S
C1791 C1792 1.374 . S
C1792 H1766 0.950 . S
C1792 C1788 1.385 . S
C1792 C1791 1.374 . S
C1793 C1790 1.499 . S
C1793 C1794 1.373 . S
C1793 C1795 1.389 . S
C1794 H1767 0.950 . S
C1794 C1780 1.377 . S
C1794 C1793 1.373 . S
C1795 C1779 1.377 . S
C1795 C1793 1.389 . S
C1795 C1796 1.524 . S
C1796 C1795 1.524 . S
C1796 C1797 1.397 . S
C1796 C1801 1.363 . S
C1797 H1768 0.950 . S
C1797 C1796 1.397 . S
C1797 C1798 1.334 . S
C1798 H1769 0.950 . S
C1798 C1797 1.334 . S
C1798 C1799 1.287 . S
C1799 C1798 1.287 . S
C1799 C1800 1.524 . S
C1799 H1802 0.999 . S
C1800 H1770 0.950 . S
C1800 C1799 1.524 . S
C1800 C1801 1.415 . S
C1801 H1771 0.950 . S
C1801 C1796 1.363 . S
C1801 C1800 1.415 . S
H1802 C1799 0.999 . S
H1803 C1784 0.913 . S
H1804 C1822 0.951 . S
H1805 C1824 0.951 . S
H1806 C1826 0.950 . S
H1807 C1827 0.950 . S
H1808 C1829 0.950 . S
H1809 C1832 0.950 . S
H1810 C1833 0.950 . S
H1811 C1835 0.950 . S
H1812 C1836 0.950 . S
H1813 C1837 0.951 . S
H1814 C1839 0.951 . S
H1815 C1841 0.950 . S
H1816 C1842 0.950 . S
H1817 C1844 0.950 . S
H1818 C1847 0.950 . S
H1819 C1848 0.950 . S
H1820 C1850 0.950 . S
H1821 C1851 0.950 . S
C1822 H1804 0.951 . S
C1822 C1823 1.366 . S
C1822 C1824 1.388 . S
C1823 C1822 1.366 . S
C1823 C1827 1.385 . S
C1824 H1805 0.951 . S
C1824 C1822 1.388 . S
C1824 C1825 1.366 . S
C1825 C1824 1.366 . S
C1825 C1826 1.414 . S
C1825 C1828 1.499 . S
C1826 H1806 0.950 . S
C1826 C1825 1.414 . S
C1826 C1827 1.374 . S
C1827 H1807 0.950 . S
C1827 C1823 1.385 . S
C1827 C1826 1.374 . S
C1828 C1825 1.499 . S
C1828 C1829 1.373 . S
C1828 C1830 1.389 . S
C1829 H1808 0.950 . S
C1829 C1828 1.373 . S
C1829 C1845 1.377 . S
C1830 C1828 1.389 . S
C1830 C1831 1.524 . S
C1830 C1844 1.377 . S
C1831 C1830 1.524 . S
C1831 C1832 1.397 . S
C1831 C1836 1.363 . S
C1832 H1809 0.950 . S
C1832 C1831 1.397 . S
C1832 C1833 1.334 . S
C1833 H1810 0.950 . S
C1833 C1832 1.334 . S
C1833 C1834 1.287 . S
C1834 C1833 1.287 . S
C1834 C1835 1.524 . S
C1834 H1853 0.913 . S
C1835 H1811 0.950 . S
C1835 C1834 1.524 . S
C1835 C1836 1.415 . S
C1836 H1812 0.950 . S
C1836 C1831 1.363 . S
C1836 C1835 1.415 . S
C1837 H1813 0.951 . S
C1837 C1838 1.366 . S
C1837 C1839 1.388 . S
C1838 C1837 1.366 . S
C1838 C1842 1.385 . S
C1839 H1814 0.951 . S
C1839 C1837 1.388 . S
C1839 C1840 1.366 . S
C1840 C1839 1.366 . S
C1840 C1841 1.414 . S
C1840 C1843 1.499 . S
C1841 H1815 0.950 . S
C1841 C1840 1.414 . S
C1841 C1842 1.374 . S
C1842 H1816 0.950 . S
C1842 C1838 1.385 . S
C1842 C1841 1.374 . S
C1843 C1840 1.499 . S
C1843 C1844 1.373 . S
C1843 C1845 1.389 . S
C1844 H1817 0.950 . S
C1844 C1830 1.377 . S
C1844 C1843 1.373 . S
C1845 C1829 1.377 . S
C1845 C1843 1.389 . S
C1845 C1846 1.524 . S
C1846 C1845 1.524 . S
C1846 C1847 1.397 . S
C1846 C1851 1.363 . S
C1847 H1818 0.950 . S
C1847 C1846 1.397 . S
C1847 C1848 1.334 . S
C1848 H1819 0.950 . S
C1848 C1847 1.334 . S
C1848 C1849 1.287 . S
C1849 C1848 1.287 . S
C1849 C1850 1.524 . S
C1849 H1852 0.999 . S
C1850 H1820 0.950 . S
C1850 C1849 1.524 . S
C1850 C1851 1.415 . S
C1851 H1821 0.950 . S
C1851 C1846 1.363 . S
C1851 C1850 1.415 . S
H1852 C1849 0.999 . S
H1853 C1834 0.913 . S
H1854 C1872 0.951 . S
H1855 C1874 0.951 . S
H1856 C1876 0.950 . S
H1857 C1877 0.950 . S
H1858 C1879 0.950 . S
H1859 C1882 0.950 . S
H1860 C1883 0.950 . S
H1861 C1885 0.950 . S
H1862 C1886 0.950 . S
H1863 C1887 0.951 . S
H1864 C1889 0.951 . S
H1865 C1891 0.950 . S
H1866 C1892 0.950 . S
H1867 C1894 0.950 . S
H1868 C1897 0.950 . S
H1869 C1898 0.950 . S
H1870 C1900 0.950 . S
H1871 C1901 0.950 . S
C1872 H1854 0.951 . S
C1872 C1873 1.366 . S
C1872 C1874 1.388 . S
C1873 C1872 1.366 . S
C1873 C1877 1.385 . S
C1874 H1855 0.951 . S
C1874 C1872 1.388 . S
C1874 C1875 1.366 . S
C1875 C1874 1.366 . S
C1875 C1876 1.414 . S
C1875 C1878 1.499 . S
C1876 H1856 0.950 . S
C1876 C1875 1.414 . S
C1876 C1877 1.374 . S
C1877 H1857 0.950 . S
C1877 C1873 1.385 . S
C1877 C1876 1.374 . S
C1878 C1875 1.499 . S
C1878 C1879 1.373 . S
C1878 C1880 1.389 . S
C1879 H1858 0.950 . S
C1879 C1878 1.373 . S
C1879 C1895 1.377 . S
C1880 C1878 1.389 . S
C1880 C1881 1.524 . S
C1880 C1894 1.377 . S
C1881 C1880 1.524 . S
C1881 C1882 1.397 . S
C1881 C1886 1.363 . S
C1882 H1859 0.950 . S
C1882 C1881 1.397 . S
C1882 C1883 1.334 . S
C1883 H1860 0.950 . S
C1883 C1882 1.334 . S
C1883 C1884 1.287 . S
C1884 C1883 1.287 . S
C1884 C1885 1.524 . S
C1884 H1903 0.913 . S
C1885 H1861 0.950 . S
C1885 C1884 1.524 . S
C1885 C1886 1.415 . S
C1886 H1862 0.950 . S
C1886 C1881 1.363 . S
C1886 C1885 1.415 . S
C1887 H1863 0.951 . S
C1887 C1888 1.366 . S
C1887 C1889 1.388 . S
C1888 C1887 1.366 . S
C1888 C1892 1.385 . S
C1889 H1864 0.951 . S
C1889 C1887 1.388 . S
C1889 C1890 1.366 . S
C1890 C1889 1.366 . S
C1890 C1891 1.414 . S
C1890 C1893 1.499 . S
C1891 H1865 0.950 . S
C1891 C1890 1.414 . S
C1891 C1892 1.374 . S
C1892 H1866 0.950 . S
C1892 C1888 1.385 . S
C1892 C1891 1.374 . S
C1893 C1890 1.499 . S
C1893 C1894 1.373 . S
C1893 C1895 1.389 . S
C1894 H1867 0.950 . S
C1894 C1880 1.377 . S
C1894 C1893 1.373 . S
C1895 C1879 1.377 . S
C1895 C1893 1.389 . S
C1895 C1896 1.524 . S
C1896 C1895 1.524 . S
C1896 C1897 1.397 . S
C1896 C1901 1.363 . S
C1897 H1868 0.950 . S
C1897 C1896 1.397 . S
C1897 C1898 1.334 . S
C1898 H1869 0.950 . S
C1898 C1897 1.334 . S
C1898 C1899 1.287 . S
C1899 C1898 1.287 . S
C1899 C1900 1.524 . S
C1899 H1902 0.999 . S
C1900 H1870 0.950 . S
C1900 C1899 1.524 . S
C1900 C1901 1.415 . S
C1901 H1871 0.950 . S
C1901 C1896 1.363 . S
C1901 C1900 1.415 . S
H1902 C1899 0.999 . S
H1903 C1884 0.913 . S
H1904 C1922 0.951 . S
H1905 C1924 0.951 . S
H1906 C1926 0.950 . S
H1907 C1927 0.950 . S
H1908 C1929 0.950 . S
H1909 C1932 0.950 . S
H1910 C1933 0.950 . S
H1911 C1935 0.950 . S
H1912 C1936 0.950 . S
H1913 C1937 0.951 . S
H1914 C1939 0.951 . S
H1915 C1941 0.950 . S
H1916 C1942 0.950 . S
H1917 C1944 0.950 . S
H1918 C1947 0.950 . S
H1919 C1948 0.950 . S
H1920 C1950 0.950 . S
H1921 C1951 0.950 . S
C1922 H1904 0.951 . S
C1922 C1923 1.366 . S
C1922 C1924 1.388 . S
C1923 C1922 1.366 . S
C1923 C1927 1.385 . S
C1924 H1905 0.951 . S
C1924 C1922 1.388 . S
C1924 C1925 1.366 . S
C1925 C1924 1.366 . S
C1925 C1926 1.414 . S
C1925 C1928 1.499 . S
C1926 H1906 0.950 . S
C1926 C1925 1.414 . S
C1926 C1927 1.374 . S
C1927 H1907 0.950 . S
C1927 C1923 1.385 . S
C1927 C1926 1.374 . S
C1928 C1925 1.499 . S
C1928 C1929 1.373 . S
C1928 C1930 1.389 . S
C1929 H1908 0.950 . S
C1929 C1928 1.373 . S
C1929 C1945 1.377 . S
C1930 C1928 1.389 . S
C1930 C1931 1.524 . S
C1930 C1944 1.377 . S
C1931 C1930 1.524 . S
C1931 C1932 1.397 . S
C1931 C1936 1.363 . S
C1932 H1909 0.950 . S
C1932 C1931 1.397 . S
C1932 C1933 1.334 . S
C1933 H1910 0.950 . S
C1933 C1932 1.334 . S
C1933 C1934 1.287 . S
C1934 C1933 1.287 . S
C1934 C1935 1.524 . S
C1934 H1953 0.913 . S
C1935 H1911 0.950 . S
C1935 C1934 1.524 . S
C1935 C1936 1.415 . S
C1936 H1912 0.950 . S
C1936 C1931 1.363 . S
C1936 C1935 1.415 . S
C1937 H1913 0.951 . S
C1937 C1938 1.366 . S
C1937 C1939 1.388 . S
C1938 C1937 1.366 . S
C1938 C1942 1.385 . S
C1939 H1914 0.951 . S
C1939 C1937 1.388 . S
C1939 C1940 1.366 . S
C1940 C1939 1.366 . S
C1940 C1941 1.414 . S
C1940 C1943 1.499 . S
C1941 H1915 0.950 . S
C1941 C1940 1.414 . S
C1941 C1942 1.374 . S
C1942 H1916 0.950 . S
C1942 C1938 1.385 . S
C1942 C1941 1.374 . S
C1943 C1940 1.499 . S
C1943 C1944 1.373 . S
C1943 C1945 1.389 . S
C1944 H1917 0.950 . S
C1944 C1930 1.377 . S
C1944 C1943 1.373 . S
C1945 C1929 1.377 . S
C1945 C1943 1.389 . S
C1945 C1946 1.524 . S
C1946 C1945 1.524 . S
C1946 C1947 1.397 . S
C1946 C1951 1.363 . S
C1947 H1918 0.950 . S
C1947 C1946 1.397 . S
C1947 C1948 1.334 . S
C1948 H1919 0.950 . S
C1948 C1947 1.334 . S
C1948 C1949 1.287 . S
C1949 C1948 1.287 . S
C1949 C1950 1.524 . S
C1949 H1952 0.999 . S
C1950 H1920 0.950 . S
C1950 C1949 1.524 . S
C1950 C1951 1.415 . S
C1951 H1921 0.950 . S
C1951 C1946 1.363 . S
C1951 C1950 1.415 . S
H1952 C1949 0.999 . S
H1953 C1934 0.913 . S
H1954 C1972 0.951 . S
H1955 C1974 0.951 . S
H1956 C1976 0.950 . S
H1957 C1977 0.950 . S
H1958 C1979 0.950 . S
H1959 C1982 0.950 . S
H1960 C1983 0.950 . S
H1961 C1985 0.950 . S
H1962 C1986 0.950 . S
H1963 C1987 0.951 . S
H1964 C1989 0.951 . S
H1965 C1991 0.950 . S
H1966 C1992 0.950 . S
H1967 C1994 0.950 . S
H1968 C1997 0.950 . S
H1969 C1998 0.950 . S
H1970 C2000 0.950 . S
H1971 C2001 0.950 . S
C1972 H1954 0.951 . S
C1972 C1973 1.366 . S
C1972 C1974 1.388 . S
C1973 C1972 1.366 . S
C1973 C1977 1.385 . S
C1974 H1955 0.951 . S
C1974 C1972 1.388 . S
C1974 C1975 1.366 . S
C1975 C1974 1.366 . S
C1975 C1976 1.414 . S
C1975 C1978 1.499 . S
C1976 H1956 0.950 . S
C1976 C1975 1.414 . S
C1976 C1977 1.374 . S
C1977 H1957 0.950 . S
C1977 C1973 1.385 . S
C1977 C1976 1.374 . S
C1978 C1975 1.499 . S
C1978 C1979 1.373 . S
C1978 C1980 1.389 . S
C1979 H1958 0.950 . S
C1979 C1978 1.373 . S
C1979 C1995 1.377 . S
C1980 C1978 1.389 . S
C1980 C1981 1.524 . S
C1980 C1994 1.377 . S
C1981 C1980 1.524 . S
C1981 C1982 1.397 . S
C1981 C1986 1.363 . S
C1982 H1959 0.950 . S
C1982 C1981 1.397 . S
C1982 C1983 1.334 . S
C1983 H1960 0.950 . S
C1983 C1982 1.334 . S
C1983 C1984 1.287 . S
C1984 C1983 1.287 . S
C1984 C1985 1.524 . S
C1984 H2003 0.913 . S
C1985 H1961 0.950 . S
C1985 C1984 1.524 . S
C1985 C1986 1.415 . S
C1986 H1962 0.950 . S
C1986 C1981 1.363 . S
C1986 C1985 1.415 . S
C1987 H1963 0.951 . S
C1987 C1988 1.366 . S
C1987 C1989 1.388 . S
C1988 C1987 1.366 . S
C1988 C1992 1.385 . S
C1989 H1964 0.951 . S
C1989 C1987 1.388 . S
C1989 C1990 1.366 . S
C1990 C1989 1.366 . S
C1990 C1991 1.414 . S
C1990 C1993 1.499 . S
C1991 H1965 0.950 . S
C1991 C1990 1.414 . S
C1991 C1992 1.374 . S
C1992 H1966 0.950 . S
C1992 C1988 1.385 . S
C1992 C1991 1.374 . S
C1993 C1990 1.499 . S
C1993 C1994 1.373 . S
C1993 C1995 1.389 . S
C1994 H1967 0.950 . S
C1994 C1980 1.377 . S
C1994 C1993 1.373 . S
C1995 C1979 1.377 . S
C1995 C1993 1.389 . S
C1995 C1996 1.524 . S
C1996 C1995 1.524 . S
C1996 C1997 1.397 . S
C1996 C2001 1.363 . S
C1997 H1968 0.950 . S
C1997 C1996 1.397 . S
C1997 C1998 1.334 . S
C1998 H1969 0.950 . S
C1998 C1997 1.334 . S
C1998 C1999 1.287 . S
C1999 C1998 1.287 . S
C1999 C2000 1.524 . S
C1999 H2002 0.999 . S
C2000 H1970 0.950 . S
C2000 C1999 1.524 . S
C2000 C2001 1.415 . S
C2001 H1971 0.950 . S
C2001 C1996 1.363 . S
C2001 C2000 1.415 . S
H2002 C1999 0.999 . S
H2003 C1984 0.913 . S
H2004 C2022 0.951 . S
H2005 C2024 0.951 . S
H2006 C2026 0.939 1_565 S
H2007 C2027 0.950 . S
H2008 C2029 0.950 . S
H2009 C2032 0.950 . S
H2010 C2033 0.950 . S
H2011 C2035 0.950 . S
H2012 C2036 0.950 . S
H2013 C2037 0.951 . S
H2014 C2039 0.951 . S
H2015 C2041 0.950 . S
H2016 C2042 0.950 . S
H2017 C2044 0.950 . S
H2018 C2047 0.950 . S
H2019 C2048 0.950 . S
H2020 C2050 0.950 . S
H2021 C2051 0.950 . S
C2022 H2004 0.951 . S
C2022 C2023 1.366 . S
C2022 C2024 1.388 . S
C2023 C2022 1.366 . S
C2023 C2027 1.385 . S
C2024 H2005 0.951 . S
C2024 C2022 1.388 . S
C2024 C2025 1.366 1_545 S
C2025 C2024 1.366 1_565 S
C2025 C2026 1.414 1_565 S
C2025 C2028 1.499 . S
C2026 H2006 0.939 1_545 S
C2026 C2025 1.414 1_545 S
C2026 C2027 1.374 . S
C2027 H2007 0.950 . S
C2027 C2023 1.385 . S
C2027 C2026 1.374 . S
C2028 C2025 1.499 . S
C2028 C2029 1.373 . S
C2028 C2030 1.389 . S
C2029 H2008 0.950 . S
C2029 C2028 1.373 . S
C2029 C2045 1.377 . S
C2030 C2028 1.389 . S
C2030 C2031 1.524 . S
C2030 C2044 1.377 . S
C2031 C2030 1.524 . S
C2031 C2032 1.397 . S
C2031 C2036 1.363 . S
C2032 H2009 0.950 . S
C2032 C2031 1.397 . S
C2032 C2033 1.334 . S
C2033 H2010 0.950 . S
C2033 C2032 1.334 . S
C2033 C2034 1.287 . S
C2034 C2033 1.287 . S
C2034 C2035 1.524 . S
C2034 H2053 0.913 . S
C2035 H2011 0.950 . S
C2035 C2034 1.524 . S
C2035 C2036 1.415 . S
C2036 H2012 0.950 . S
C2036 C2031 1.363 . S
C2036 C2035 1.415 . S
C2037 H2013 0.951 . S
C2037 C2038 1.366 . S
C2037 C2039 1.388 . S
C2038 C2037 1.366 . S
C2038 C2042 1.385 . S
C2039 H2014 0.951 . S
C2039 C2037 1.388 . S
C2039 C2040 1.366 . S
C2040 C2039 1.366 . S
C2040 C2041 1.414 . S
C2040 C2043 1.499 . S
C2041 H2015 0.950 . S
C2041 C2040 1.414 . S
C2041 C2042 1.374 . S
C2042 H2016 0.950 . S
C2042 C2038 1.385 . S
C2042 C2041 1.374 . S
C2043 C2040 1.499 . S
C2043 C2044 1.373 . S
C2043 C2045 1.389 . S
C2044 H2017 0.950 . S
C2044 C2030 1.377 . S
C2044 C2043 1.373 . S
C2045 C2029 1.377 . S
C2045 C2043 1.389 . S
C2045 C2046 1.524 . S
C2046 C2045 1.524 . S
C2046 C2047 1.397 . S
C2046 C2051 1.363 . S
C2047 H2018 0.950 . S
C2047 C2046 1.397 . S
C2047 C2048 1.334 . S
C2048 H2019 0.950 . S
C2048 C2047 1.334 . S
C2048 C2049 1.287 . S
C2049 C2048 1.287 . S
C2049 C2050 1.524 . S
C2049 H2052 0.999 . S
C2050 H2020 0.950 . S
C2050 C2049 1.524 . S
C2050 C2051 1.415 . S
C2051 H2021 0.950 . S
C2051 C2046 1.363 . S
C2051 C2050 1.415 . S
H2052 C2049 0.999 . S
H2053 C2034 0.913 . S
H2054 C2072 0.951 . S
H2055 C2074 0.951 . S
H2056 C2076 0.950 . S
H2057 C2077 0.950 . S
H2058 C2079 0.950 . S
H2059 C2082 0.950 . S
H2060 C2083 0.961 . S
H2061 C2085 0.950 . S
H2062 C2086 0.950 . S
H2063 C2087 0.951 . S
H2064 C2089 0.951 . S
H2065 C2091 0.950 . S
H2066 C2092 0.950 . S
H2067 C2094 0.950 . S
H2068 C2097 0.950 . S
H2069 C2098 0.950 . S
H2070 C2100 0.950 . S
H2071 C2101 0.950 . S
C2072 H2054 0.951 . S
C2072 C2073 1.366 . S
C2072 C2074 1.388 1_655 S
C2073 C2072 1.366 . S
C2073 C2077 1.385 . S
C2074 H2055 0.951 . S
C2074 C2072 1.388 1_455 S
C2074 C2075 1.366 . S
C2075 C2074 1.366 . S
C2075 C2076 1.414 . S
C2075 C2078 1.499 . S
C2076 H2056 0.950 . S
C2076 C2075 1.414 . S
C2076 C2077 1.374 1_455 S
C2077 H2057 0.950 . S
C2077 C2073 1.385 . S
C2077 C2076 1.374 1_655 S
C2078 C2075 1.499 . S
C2078 C2079 1.373 . S
C2078 C2080 1.389 . S
C2079 H2058 0.950 . S
C2079 C2078 1.373 . S
C2079 C2095 1.377 . S
C2080 C2078 1.389 . S
C2080 C2081 1.524 . S
C2080 C2094 1.377 . S
C2081 C2080 1.524 . S
C2081 C2082 1.397 . S
C2081 C2086 1.363 . S
C2082 H2059 0.950 . S
C2082 C2081 1.397 . S
C2082 C2083 1.320 1_455 S
C2083 H2060 0.961 . S
C2083 C2082 1.320 1_655 S
C2083 C2084 1.290 1_655 S
C2084 C2083 1.290 1_455 S
C2084 C2085 1.524 . S
C2084 H2103 0.913 1_455 S
C2085 H2061 0.950 . S
C2085 C2084 1.524 . S
C2085 C2086 1.415 . S
C2086 H2062 0.950 . S
C2086 C2081 1.363 . S
C2086 C2085 1.415 . S
C2087 H2063 0.951 . S
C2087 C2088 1.366 . S
C2087 C2089 1.388 . S
C2088 C2087 1.366 . S
C2088 C2092 1.385 . S
C2089 H2064 0.951 . S
C2089 C2087 1.388 . S
C2089 C2090 1.366 . S
C2090 C2089 1.366 . S
C2090 C2091 1.414 . S
C2090 C2093 1.499 . S
C2091 H2065 0.950 . S
C2091 C2090 1.414 . S
C2091 C2092 1.374 . S
C2092 H2066 0.950 . S
C2092 C2088 1.385 . S
C2092 C2091 1.374 . S
C2093 C2090 1.499 . S
C2093 C2094 1.373 . S
C2093 C2095 1.389 . S
C2094 H2067 0.950 . S
C2094 C2080 1.377 . S
C2094 C2093 1.373 . S
C2095 C2079 1.377 . S
C2095 C2093 1.389 . S
C2095 C2096 1.524 . S
C2096 C2095 1.524 . S
C2096 C2097 1.397 . S
C2096 C2101 1.363 . S
C2097 H2068 0.950 . S
C2097 C2096 1.397 . S
C2097 C2098 1.334 . S
C2098 H2069 0.950 . S
C2098 C2097 1.334 . S
C2098 C2099 1.287 . S
C2099 C2098 1.287 . S
C2099 C2100 1.524 . S
C2099 H2102 0.999 . S
C2100 H2070 0.950 . S
C2100 C2099 1.524 . S
C2100 C2101 1.415 . S
C2101 H2071 0.950 . S
C2101 C2096 1.363 . S
C2101 C2100 1.415 . S
H2102 C2099 0.999 . S
H2103 C2084 0.913 1_655 S
H2104 C2122 0.951 . S
H2105 C2124 0.951 . S
H2106 C2126 0.950 . S
H2107 C2127 0.950 . S
H2108 C2129 0.950 . S
H2109 C2132 0.950 . S
H2110 C2133 0.950 . S
H2111 C2135 0.950 . S
H2112 C2136 0.950 . S
H2113 C2137 0.951 . S
H2114 C2139 0.951 . S
H2115 C2141 0.950 . S
H2116 C2142 0.950 . S
H2117 C2144 0.950 . S
H2118 C2147 0.950 . S
H2119 C2148 0.950 . S
H2120 C2150 0.950 . S
H2121 C2151 0.950 . S
C2122 H2104 0.951 . S
C2122 C2123 1.366 . S
C2122 C2124 1.388 . S
C2123 C2122 1.366 . S
C2123 C2127 1.385 . S
C2124 H2105 0.951 . S
C2124 C2122 1.388 . S
C2124 C2125 1.366 . S
C2125 C2124 1.366 . S
C2125 C2126 1.414 . S
C2125 C2128 1.499 . S
C2126 H2106 0.950 . S
C2126 C2125 1.414 . S
C2126 C2127 1.374 . S
C2127 H2107 0.950 . S
C2127 C2123 1.385 . S
C2127 C2126 1.374 . S
C2128 C2125 1.499 . S
C2128 C2129 1.373 . S
C2128 C2130 1.389 . S
C2129 H2108 0.950 . S
C2129 C2128 1.373 . S
C2129 C2145 1.377 . S
C2130 C2128 1.389 . S
C2130 C2131 1.524 . S
C2130 C2144 1.377 . S
C2131 C2130 1.524 . S
C2131 C2132 1.397 . S
C2131 C2136 1.363 . S
C2132 H2109 0.950 . S
C2132 C2131 1.397 . S
C2132 C2133 1.334 . S
C2133 H2110 0.950 . S
C2133 C2132 1.334 . S
C2133 C2134 1.287 . S
C2134 C2133 1.287 . S
C2134 C2135 1.524 . S
C2134 H2153 0.913 . S
C2135 H2111 0.950 . S
C2135 C2134 1.524 . S
C2135 C2136 1.415 . S
C2136 H2112 0.950 . S
C2136 C2131 1.363 . S
C2136 C2135 1.415 . S
C2137 H2113 0.951 . S
C2137 C2138 1.366 . S
C2137 C2139 1.388 . S
C2138 C2137 1.366 . S
C2138 C2142 1.385 . S
C2139 H2114 0.951 . S
C2139 C2137 1.388 . S
C2139 C2140 1.366 . S
C2140 C2139 1.366 . S
C2140 C2141 1.414 . S
C2140 C2143 1.499 . S
C2141 H2115 0.950 . S
C2141 C2140 1.414 . S
C2141 C2142 1.374 . S
C2142 H2116 0.950 . S
C2142 C2138 1.385 . S
C2142 C2141 1.374 . S
C2143 C2140 1.499 . S
C2143 C2144 1.373 . S
C2143 C2145 1.389 . S
C2144 H2117 0.950 . S
C2144 C2130 1.377 . S
C2144 C2143 1.373 . S
C2145 C2129 1.377 . S
C2145 C2143 1.389 . S
C2145 C2146 1.524 . S
C2146 C2145 1.524 . S
C2146 C2147 1.397 . S
C2146 C2151 1.363 . S
C2147 H2118 0.950 . S
C2147 C2146 1.397 . S
C2147 C2148 1.334 . S
C2148 H2119 0.950 . S
C2148 C2147 1.334 . S
C2148 C2149 1.287 . S
C2149 C2148 1.287 . S
C2149 C2150 1.524 . S
C2149 H2152 0.999 . S
C2150 H2120 0.950 . S
C2150 C2149 1.524 . S
C2150 C2151 1.415 . S
C2151 H2121 0.950 . S
C2151 C2146 1.363 . S
C2151 C2150 1.415 . S
H2152 C2149 0.999 . S
H2153 C2134 0.913 . S
H2154 C2172 0.951 . S
H2155 C2174 0.951 . S
H2156 C2176 0.950 . S
H2157 C2177 0.950 . S
H2158 C2179 0.950 . S
H2159 C2182 0.950 . S
H2160 C2183 0.950 . S
H2161 C2185 0.950 . S
H2162 C2186 0.950 . S
H2163 C2187 0.951 . S
H2164 C2189 0.951 . S
H2165 C2191 0.950 . S
H2166 C2192 0.950 . S
H2167 C2194 0.950 . S
H2168 C2197 0.950 . S
H2169 C2198 0.950 . S
H2170 C2200 0.950 . S
H2171 C2201 0.950 . S
C2172 H2154 0.951 . S
C2172 C2173 1.366 . S
C2172 C2174 1.388 . S
C2173 C2172 1.366 . S
C2173 C2177 1.385 . S
C2174 H2155 0.951 . S
C2174 C2172 1.388 . S
C2174 C2175 1.366 . S
C2175 C2174 1.366 . S
C2175 C2176 1.414 . S
C2175 C2178 1.499 . S
C2176 H2156 0.950 . S
C2176 C2175 1.414 . S
C2176 C2177 1.374 . S
C2177 H2157 0.950 . S
C2177 C2173 1.385 . S
C2177 C2176 1.374 . S
C2178 C2175 1.499 . S
C2178 C2179 1.373 . S
C2178 C2180 1.389 . S
C2179 H2158 0.950 . S
C2179 C2178 1.373 . S
C2179 C2195 1.377 . S
C2180 C2178 1.389 . S
C2180 C2181 1.524 . S
C2180 C2194 1.377 . S
C2181 C2180 1.524 . S
C2181 C2182 1.397 . S
C2181 C2186 1.363 . S
C2182 H2159 0.950 . S
C2182 C2181 1.397 . S
C2182 C2183 1.334 . S
C2183 H2160 0.950 . S
C2183 C2182 1.334 . S
C2183 C2184 1.287 . S
C2184 C2183 1.287 . S
C2184 C2185 1.524 . S
C2184 H2203 0.913 . S
C2185 H2161 0.950 . S
C2185 C2184 1.524 . S
C2185 C2186 1.415 . S
C2186 H2162 0.950 . S
C2186 C2181 1.363 . S
C2186 C2185 1.415 . S
C2187 H2163 0.951 . S
C2187 C2188 1.366 . S
C2187 C2189 1.388 . S
C2188 C2187 1.366 . S
C2188 C2192 1.385 . S
C2189 H2164 0.951 . S
C2189 C2187 1.388 . S
C2189 C2190 1.366 . S
C2190 C2189 1.366 . S
C2190 C2191 1.414 . S
C2190 C2193 1.499 . S
C2191 H2165 0.950 . S
C2191 C2190 1.414 . S
C2191 C2192 1.374 . S
C2192 H2166 0.950 . S
C2192 C2188 1.385 . S
C2192 C2191 1.374 . S
C2193 C2190 1.499 . S
C2193 C2194 1.373 . S
C2193 C2195 1.389 . S
C2194 H2167 0.950 . S
C2194 C2180 1.377 . S
C2194 C2193 1.373 . S
C2195 C2179 1.377 . S
C2195 C2193 1.389 . S
C2195 C2196 1.524 . S
C2196 C2195 1.524 . S
C2196 C2197 1.397 . S
C2196 C2201 1.363 . S
C2197 H2168 0.950 . S
C2197 C2196 1.397 . S
C2197 C2198 1.334 . S
C2198 H2169 0.950 . S
C2198 C2197 1.334 . S
C2198 C2199 1.287 . S
C2199 C2198 1.287 . S
C2199 C2200 1.524 . S
C2199 H2202 0.999 . S
C2200 H2170 0.950 . S
C2200 C2199 1.524 . S
C2200 C2201 1.415 . S
C2201 H2171 0.950 . S
C2201 C2196 1.363 . S
C2201 C2200 1.415 . S
H2202 C2199 0.999 . S
H2203 C2184 0.913 . S
H2204 C2222 0.951 . S
H2205 C2224 0.951 . S
H2206 C2226 0.950 . S
H2207 C2227 0.950 . S
H2208 C2229 0.950 . S
H2209 C2232 0.950 . S
H2210 C2233 0.950 . S
H2211 C2235 0.950 . S
H2212 C2236 0.950 . S
H2213 C2237 0.951 . S
H2214 C2239 0.951 . S
H2215 C2241 0.950 . S
H2216 C2242 0.950 . S
H2217 C2244 0.950 . S
H2218 C2247 0.950 . S
H2219 C2248 0.950 . S
H2220 C2250 0.950 . S
H2221 C2251 0.950 . S
C2222 H2204 0.951 . S
C2222 C2223 1.366 . S
C2222 C2224 1.388 . S
C2223 C2222 1.366 . S
C2223 C2227 1.385 . S
C2224 H2205 0.951 . S
C2224 C2222 1.388 . S
C2224 C2225 1.366 . S
C2225 C2224 1.366 . S
C2225 C2226 1.414 . S
C2225 C2228 1.499 . S
C2226 H2206 0.950 . S
C2226 C2225 1.414 . S
C2226 C2227 1.374 . S
C2227 H2207 0.950 . S
C2227 C2223 1.385 . S
C2227 C2226 1.374 . S
C2228 C2225 1.499 . S
C2228 C2229 1.373 . S
C2228 C2230 1.389 . S
C2229 H2208 0.950 . S
C2229 C2228 1.373 . S
C2229 C2245 1.377 . S
C2230 C2228 1.389 . S
C2230 C2231 1.524 . S
C2230 C2244 1.377 . S
C2231 C2230 1.524 . S
C2231 C2232 1.397 . S
C2231 C2236 1.363 . S
C2232 H2209 0.950 . S
C2232 C2231 1.397 . S
C2232 C2233 1.334 . S
C2233 H2210 0.950 . S
C2233 C2232 1.334 . S
C2233 C2234 1.287 . S
C2234 C2233 1.287 . S
C2234 C2235 1.524 . S
C2234 H2253 0.913 . S
C2235 H2211 0.950 . S
C2235 C2234 1.524 . S
C2235 C2236 1.415 . S
C2236 H2212 0.950 . S
C2236 C2231 1.363 . S
C2236 C2235 1.415 . S
C2237 H2213 0.951 . S
C2237 C2238 1.366 . S
C2237 C2239 1.388 . S
C2238 C2237 1.366 . S
C2238 C2242 1.385 . S
C2239 H2214 0.951 . S
C2239 C2237 1.388 . S
C2239 C2240 1.366 . S
C2240 C2239 1.366 . S
C2240 C2241 1.414 . S
C2240 C2243 1.499 . S
C2241 H2215 0.950 . S
C2241 C2240 1.414 . S
C2241 C2242 1.374 . S
C2242 H2216 0.950 . S
C2242 C2238 1.385 . S
C2242 C2241 1.374 . S
C2243 C2240 1.499 . S
C2243 C2244 1.373 . S
C2243 C2245 1.389 . S
C2244 H2217 0.950 . S
C2244 C2230 1.377 . S
C2244 C2243 1.373 . S
C2245 C2229 1.377 . S
C2245 C2243 1.389 . S
C2245 C2246 1.524 . S
C2246 C2245 1.524 . S
C2246 C2247 1.397 . S
C2246 C2251 1.363 . S
C2247 H2218 0.950 . S
C2247 C2246 1.397 . S
C2247 C2248 1.334 . S
C2248 H2219 0.950 . S
C2248 C2247 1.334 . S
C2248 C2249 1.287 . S
C2249 C2248 1.287 . S
C2249 C2250 1.524 . S
C2249 H2252 0.999 . S
C2250 H2220 0.950 . S
C2250 C2249 1.524 . S
C2250 C2251 1.415 . S
C2251 H2221 0.950 . S
C2251 C2246 1.363 . S
C2251 C2250 1.415 . S
H2252 C2249 0.999 . S
H2253 C2234 0.913 . S
H2254 C2272 0.951 . S
H2255 C2274 0.951 . S
H2256 C2276 0.950 . S
H2257 C2277 0.950 . S
H2258 C2279 0.950 . S
H2259 C2282 0.950 . S
H2260 C2283 0.950 . S
H2261 C2285 0.950 . S
H2262 C2286 0.950 . S
H2263 C2287 0.951 . S
H2264 C2289 0.951 . S
H2265 C2291 0.950 . S
H2266 C2292 0.950 . S
H2267 C2294 0.950 . S
H2268 C2297 0.950 . S
H2269 C2298 0.950 . S
H2270 C2300 0.950 . S
H2271 C2301 0.950 . S
C2272 H2254 0.951 . S
C2272 C2273 1.366 . S
C2272 C2274 1.388 . S
C2273 C2272 1.366 . S
C2273 C2277 1.385 . S
C2274 H2255 0.951 . S
C2274 C2272 1.388 . S
C2274 C2275 1.366 . S
C2275 C2274 1.366 . S
C2275 C2276 1.414 . S
C2275 C2278 1.499 . S
C2276 H2256 0.950 . S
C2276 C2275 1.414 . S
C2276 C2277 1.374 . S
C2277 H2257 0.950 . S
C2277 C2273 1.385 . S
C2277 C2276 1.374 . S
C2278 C2275 1.499 . S
C2278 C2279 1.373 . S
C2278 C2280 1.389 . S
C2279 H2258 0.950 . S
C2279 C2278 1.373 . S
C2279 C2295 1.377 . S
C2280 C2278 1.389 . S
C2280 C2281 1.524 . S
C2280 C2294 1.377 . S
C2281 C2280 1.524 . S
C2281 C2282 1.397 . S
C2281 C2286 1.363 . S
C2282 H2259 0.950 . S
C2282 C2281 1.397 . S
C2282 C2283 1.334 . S
C2283 H2260 0.950 . S
C2283 C2282 1.334 . S
C2283 C2284 1.287 . S
C2284 C2283 1.287 . S
C2284 C2285 1.524 . S
C2284 H2303 0.913 . S
C2285 H2261 0.950 . S
C2285 C2284 1.524 . S
C2285 C2286 1.415 . S
C2286 H2262 0.950 . S
C2286 C2281 1.363 . S
C2286 C2285 1.415 . S
C2287 H2263 0.951 . S
C2287 C2288 1.366 . S
C2287 C2289 1.388 . S
C2288 C2287 1.366 . S
C2288 C2292 1.385 . S
C2289 H2264 0.951 . S
C2289 C2287 1.388 . S
C2289 C2290 1.366 . S
C2290 C2289 1.366 . S
C2290 C2291 1.414 . S
C2290 C2293 1.499 . S
C2291 H2265 0.950 . S
C2291 C2290 1.414 . S
C2291 C2292 1.374 . S
C2292 H2266 0.950 . S
C2292 C2288 1.385 . S
C2292 C2291 1.374 . S
C2293 C2290 1.499 . S
C2293 C2294 1.373 . S
C2293 C2295 1.389 . S
C2294 H2267 0.950 . S
C2294 C2280 1.377 . S
C2294 C2293 1.373 . S
C2295 C2279 1.377 . S
C2295 C2293 1.389 . S
C2295 C2296 1.524 . S
C2296 C2295 1.524 . S
C2296 C2297 1.397 . S
C2296 C2301 1.363 . S
C2297 H2268 0.950 . S
C2297 C2296 1.397 . S
C2297 C2298 1.334 . S
C2298 H2269 0.950 . S
C2298 C2297 1.334 . S
C2298 C2299 1.287 . S
C2299 C2298 1.287 . S
C2299 C2300 1.524 . S
C2299 H2302 0.999 . S
C2300 H2270 0.950 . S
C2300 C2299 1.524 . S
C2300 C2301 1.415 . S
C2301 H2271 0.950 . S
C2301 C2296 1.363 . S
C2301 C2300 1.415 . S
H2302 C2299 0.999 . S
H2303 C2284 0.913 . S
H2304 C2322 0.951 . S
H2305 C2324 0.951 . S
H2306 C2326 0.950 . S
H2307 C2327 0.950 . S
H2308 C2329 0.950 . S
H2309 C2332 0.950 . S
H2310 C2333 0.950 . S
H2311 C2335 0.950 . S
H2312 C2336 0.950 1_545 S
H2313 C2337 0.951 . S
H2314 C2339 0.951 . S
H2315 C2341 0.950 . S
H2316 C2342 0.950 . S
H2317 C2344 0.950 . S
H2318 C2347 0.950 . S
H2319 C2348 0.950 . S
H2320 C2350 0.950 . S
H2321 C2351 0.950 . S
C2322 H2304 0.951 . S
C2322 C2323 1.366 . S
C2322 C2324 1.388 . S
C2323 C2322 1.366 . S
C2323 C2327 1.385 . S
C2324 H2305 0.951 . S
C2324 C2322 1.388 . S
C2324 C2325 1.366 . S
C2325 C2324 1.366 . S
C2325 C2326 1.414 . S
C2325 C2328 1.499 . S
C2326 H2306 0.950 . S
C2326 C2325 1.414 . S
C2326 C2327 1.374 . S
C2327 H2307 0.950 . S
C2327 C2323 1.385 . S
C2327 C2326 1.374 . S
C2328 C2325 1.499 . S
C2328 C2329 1.373 . S
C2328 C2330 1.389 . S
C2329 H2308 0.950 . S
C2329 C2328 1.373 . S
C2329 C2345 1.377 1_565 S
C2330 C2328 1.389 . S
C2330 C2331 1.524 . S
C2330 C2344 1.377 1_565 S
C2331 C2330 1.524 . S
C2331 C2332 1.397 . S
C2331 C2336 1.363 . S
C2332 H2309 0.950 . S
C2332 C2331 1.397 . S
C2332 C2333 1.334 . S
C2333 H2310 0.950 . S
C2333 C2332 1.334 . S
C2333 C2334 1.287 . S
C2334 C2333 1.287 . S
C2334 C2335 1.524 . S
C2334 H2353 0.913 . S
C2335 H2311 0.950 . S
C2335 C2334 1.524 . S
C2335 C2336 1.415 . S
C2336 H2312 0.950 1_565 S
C2336 C2331 1.363 . S
C2336 C2335 1.415 . S
C2337 H2313 0.951 . S
C2337 C2338 1.366 . S
C2337 C2339 1.388 . S
C2338 C2337 1.366 . S
C2338 C2342 1.385 . S
C2339 H2314 0.951 . S
C2339 C2337 1.388 . S
C2339 C2340 1.366 . S
C2340 C2339 1.366 . S
C2340 C2341 1.414 . S
C2340 C2343 1.499 . S
C2341 H2315 0.950 . S
C2341 C2340 1.414 . S
C2341 C2342 1.374 . S
C2342 H2316 0.950 . S
C2342 C2338 1.385 . S
C2342 C2341 1.374 . S
C2343 C2340 1.499 . S
C2343 C2344 1.373 . S
C2343 C2345 1.389 . S
C2344 H2317 0.950 . S
C2344 C2330 1.377 1_545 S
C2344 C2343 1.373 . S
C2345 C2329 1.377 1_545 S
C2345 C2343 1.389 . S
C2345 C2346 1.524 . S
C2346 C2345 1.524 . S
C2346 C2347 1.397 . S
C2346 C2351 1.363 . S
C2347 H2318 0.950 . S
C2347 C2346 1.397 . S
C2347 C2348 1.334 . S
C2348 H2319 0.950 . S
C2348 C2347 1.334 . S
C2348 C2349 1.287 . S
C2349 C2348 1.287 . S
C2349 C2350 1.524 . S
C2349 H2352 0.999 . S
C2350 H2320 0.950 . S
C2350 C2349 1.524 . S
C2350 C2351 1.415 . S
C2351 H2321 0.950 . S
C2351 C2346 1.363 . S
C2351 C2350 1.415 . S
H2352 C2349 0.999 . S
H2353 C2334 0.913 . S
H2354 C2372 0.951 . S
H2355 C2374 0.951 . S
H2356 C2376 0.950 . S
H2357 C2377 0.950 . S
H2358 C2379 0.950 . S
H2359 C2382 0.950 . S
H2360 C2383 0.950 . S
H2361 C2385 0.950 . S
H2362 C2386 0.950 . S
H2363 C2387 0.951 . S
H2364 C2389 0.951 . S
H2365 C2391 0.950 . S
H2366 C2392 0.950 . S
H2367 C2394 0.950 . S
H2368 C2397 0.950 . S
H2369 C2398 0.950 . S
H2370 C2400 0.950 . S
H2371 C2401 0.950 . S
C2372 H2354 0.951 . S
C2372 C2373 1.366 . S
C2372 C2374 1.388 . S
C2373 C2372 1.366 . S
C2373 C2377 1.385 . S
C2374 H2355 0.951 . S
C2374 C2372 1.388 . S
C2374 C2375 1.366 . S
C2375 C2374 1.366 . S
C2375 C2376 1.414 . S
C2375 C2378 1.499 . S
C2376 H2356 0.950 . S
C2376 C2375 1.414 . S
C2376 C2377 1.374 . S
C2377 H2357 0.950 . S
C2377 C2373 1.385 . S
C2377 C2376 1.374 . S
C2378 C2375 1.499 . S
C2378 C2379 1.373 . S
C2378 C2380 1.389 1_455 S
C2379 H2358 0.950 . S
C2379 C2378 1.373 . S
C2379 C2395 1.377 1_455 S
C2380 C2378 1.389 1_655 S
C2380 C2381 1.524 . S
C2380 C2394 1.377 . S
C2381 C2380 1.524 . S
C2381 C2382 1.397 1_655 S
C2381 C2386 1.363 . S
C2382 H2359 0.950 . S
C2382 C2381 1.397 1_455 S
C2382 C2383 1.334 . S
C2383 H2360 0.950 . S
C2383 C2382 1.334 . S
C2383 C2384 1.287 1_455 S
C2384 C2383 1.287 1_655 S
C2384 C2385 1.524 . S
C2384 H2403 0.913 . S
C2385 H2361 0.950 . S
C2385 C2384 1.524 . S
C2385 C2386 1.415 . S
C2386 H2362 0.950 . S
C2386 C2381 1.363 . S
C2386 C2385 1.415 . S
C2387 H2363 0.951 . S
C2387 C2388 1.366 . S
C2387 C2389 1.388 . S
C2388 C2387 1.366 . S
C2388 C2392 1.385 . S
C2389 H2364 0.951 . S
C2389 C2387 1.388 . S
C2389 C2390 1.366 . S
C2390 C2389 1.366 . S
C2390 C2391 1.414 . S
C2390 C2393 1.499 . S
C2391 H2365 0.950 . S
C2391 C2390 1.414 . S
C2391 C2392 1.374 . S
C2392 H2366 0.950 . S
C2392 C2388 1.385 . S
C2392 C2391 1.374 . S
C2393 C2390 1.499 . S
C2393 C2394 1.373 . S
C2393 C2395 1.389 . S
C2394 H2367 0.950 . S
C2394 C2380 1.377 . S
C2394 C2393 1.373 . S
C2395 C2379 1.377 1_655 S
C2395 C2393 1.389 . S
C2395 C2396 1.532 1_655 S
C2396 C2395 1.532 1_455 S
C2396 C2397 1.381 1_455 S
C2396 C2401 1.376 . S
C2397 H2368 0.950 . S
C2397 C2396 1.381 1_655 S
C2397 C2398 1.334 . S
C2398 H2369 0.950 . S
C2398 C2397 1.334 . S
C2398 C2399 1.287 1_655 S
C2399 C2398 1.287 1_455 S
C2399 C2400 1.524 . S
C2399 H2402 0.999 . S
C2400 H2370 0.950 . S
C2400 C2399 1.524 . S
C2400 C2401 1.415 . S
C2401 H2371 0.950 . S
C2401 C2396 1.376 . S
C2401 C2400 1.415 . S
H2402 C2399 0.999 . S
H2403 C2384 0.913 . S
H2404 C2422 0.951 . S
H2405 C2424 0.951 . S
H2406 C2426 0.950 . S
H2407 C2427 0.950 . S
H2408 C2429 0.950 . S
H2409 C2432 0.950 . S
H2410 C2433 0.950 . S
H2411 C2435 0.950 . S
H2412 C2436 0.950 . S
H2413 C2437 0.951 . S
H2414 C2439 0.951 . S
H2415 C2441 0.950 . S
H2416 C2442 0.950 . S
H2417 C2444 0.950 . S
H2418 C2447 0.950 . S
H2419 C2448 0.950 . S
H2420 C2450 0.950 . S
H2421 C2451 0.950 . S
C2422 H2404 0.951 . S
C2422 C2423 1.366 . S
C2422 C2424 1.388 . S
C2423 C2422 1.366 . S
C2423 C2427 1.385 . S
C2424 H2405 0.951 . S
C2424 C2422 1.388 . S
C2424 C2425 1.366 . S
C2425 C2424 1.366 . S
C2425 C2426 1.414 . S
C2425 C2428 1.499 . S
C2426 H2406 0.950 . S
C2426 C2425 1.414 . S
C2426 C2427 1.374 . S
C2427 H2407 0.950 . S
C2427 C2423 1.385 . S
C2427 C2426 1.374 . S
C2428 C2425 1.499 . S
C2428 C2429 1.373 . S
C2428 C2430 1.389 . S
C2429 H2408 0.950 . S
C2429 C2428 1.373 . S
C2429 C2445 1.377 . S
C2430 C2428 1.389 . S
C2430 C2431 1.524 . S
C2430 C2444 1.377 . S
C2431 C2430 1.524 . S
C2431 C2432 1.397 . S
C2431 C2436 1.363 . S
C2432 H2409 0.950 . S
C2432 C2431 1.397 . S
C2432 C2433 1.334 . S
C2433 H2410 0.950 . S
C2433 C2432 1.334 . S
C2433 C2434 1.287 . S
C2434 C2433 1.287 . S
C2434 C2435 1.524 . S
C2434 H2453 0.913 . S
C2435 H2411 0.950 . S
C2435 C2434 1.524 . S
C2435 C2436 1.415 . S
C2436 H2412 0.950 . S
C2436 C2431 1.363 . S
C2436 C2435 1.415 . S
C2437 H2413 0.951 . S
C2437 C2438 1.366 . S
C2437 C2439 1.388 . S
C2438 C2437 1.366 . S
C2438 C2442 1.385 . S
C2439 H2414 0.951 . S
C2439 C2437 1.388 . S
C2439 C2440 1.366 . S
C2440 C2439 1.366 . S
C2440 C2441 1.414 . S
C2440 C2443 1.499 . S
C2441 H2415 0.950 . S
C2441 C2440 1.414 . S
C2441 C2442 1.374 . S
C2442 H2416 0.950 . S
C2442 C2438 1.385 . S
C2442 C2441 1.374 . S
C2443 C2440 1.499 . S
C2443 C2444 1.373 . S
C2443 C2445 1.389 . S
C2444 H2417 0.950 . S
C2444 C2430 1.377 . S
C2444 C2443 1.373 . S
C2445 C2429 1.377 . S
C2445 C2443 1.389 . S
C2445 C2446 1.524 . S
C2446 C2445 1.524 . S
C2446 C2447 1.397 . S
C2446 C2451 1.363 . S
C2447 H2418 0.950 . S
C2447 C2446 1.397 . S
C2447 C2448 1.334 . S
C2448 H2419 0.950 . S
C2448 C2447 1.334 . S
C2448 C2449 1.287 . S
C2449 C2448 1.287 . S
C2449 C2450 1.524 . S
C2449 H2452 0.999 . S
C2450 H2420 0.950 . S
C2450 C2449 1.524 . S
C2450 C2451 1.415 . S
C2451 H2421 0.950 . S
C2451 C2446 1.363 . S
C2451 C2450 1.415 . S
H2452 C2449 0.999 . S
H2453 C2434 0.913 . S
H2454 C2472 0.951 . S
H2455 C2474 0.951 . S
H2456 C2476 0.950 . S
H2457 C2477 0.950 . S
H2458 C2479 0.950 . S
H2459 C2482 0.950 . S
H2460 C2483 0.992 . S
H2461 C2485 0.950 . S
H2462 C2486 0.950 . S
H2463 C2487 0.951 . S
H2464 C2489 0.951 . S
H2465 C2491 0.950 . S
H2466 C2492 0.950 . S
H2467 C2494 0.950 . S
H2468 C2497 0.950 . S
H2469 C2498 0.950 . S
H2470 C2500 0.950 . S
H2471 C2501 0.950 . S
C2472 H2454 0.951 . S
C2472 C2473 1.366 . S
C2472 C2474 1.388 1_455 S
C2473 C2472 1.366 . S
C2473 C2477 1.385 . S
C2474 H2455 0.951 . S
C2474 C2472 1.388 1_655 S
C2474 C2475 1.366 . S
C2475 C2474 1.366 . S
C2475 C2476 1.414 1_655 S
C2475 C2478 1.499 . S
C2476 H2456 0.950 . S
C2476 C2475 1.414 1_455 S
C2476 C2477 1.374 . S
C2477 H2457 0.950 . S
C2477 C2473 1.385 . S
C2477 C2476 1.374 . S
C2478 C2475 1.499 . S
C2478 C2479 1.373 . S
C2478 C2480 1.389 . S
C2479 H2458 0.950 . S
C2479 C2478 1.373 . S
C2479 C2495 1.377 . S
C2480 C2478 1.389 . S
C2480 C2481 1.524 . S
C2480 C2494 1.377 . S
C2481 C2480 1.524 . S
C2481 C2482 1.397 . S
C2481 C2486 1.363 . S
C2482 H2459 0.950 . S
C2482 C2481 1.397 . S
C2482 C2483 1.334 . S
C2483 H2460 0.992 . S
C2483 C2482 1.334 . S
C2483 C2484 1.287 . S
C2484 C2483 1.287 . S
C2484 C2485 1.524 . S
C2484 H2503 0.913 . S
C2485 H2461 0.950 . S
C2485 C2484 1.524 . S
C2485 C2486 1.415 . S
C2486 H2462 0.950 . S
C2486 C2481 1.363 . S
C2486 C2485 1.415 . S
C2487 H2463 0.951 . S
C2487 C2488 1.366 . S
C2487 C2489 1.388 . S
C2488 C2487 1.366 . S
C2488 C2492 1.385 . S
C2489 H2464 0.951 . S
C2489 C2487 1.388 . S
C2489 C2490 1.366 . S
C2490 C2489 1.366 . S
C2490 C2491 1.414 . S
C2490 C2493 1.499 . S
C2491 H2465 0.950 . S
C2491 C2490 1.414 . S
C2491 C2492 1.374 . S
C2492 H2466 0.950 . S
C2492 C2488 1.385 . S
C2492 C2491 1.374 . S
C2493 C2490 1.499 . S
C2493 C2494 1.373 . S
C2493 C2495 1.389 . S
C2494 H2467 0.950 . S
C2494 C2480 1.377 . S
C2494 C2493 1.373 . S
C2495 C2479 1.377 . S
C2495 C2493 1.389 . S
C2495 C2496 1.524 . S
C2496 C2495 1.524 . S
C2496 C2497 1.397 . S
C2496 C2501 1.363 . S
C2497 H2468 0.950 . S
C2497 C2496 1.397 . S
C2497 C2498 1.334 . S
C2498 H2469 0.950 . S
C2498 C2497 1.334 . S
C2498 C2499 1.287 . S
C2499 C2498 1.287 . S
C2499 C2500 1.524 . S
C2499 H2502 0.999 . S
C2500 H2470 0.950 . S
C2500 C2499 1.524 . S
C2500 C2501 1.415 . S
C2501 H2471 0.950 . S
C2501 C2496 1.363 . S
C2501 C2500 1.415 . S
H2502 C2499 0.999 . S
H2503 C2484 0.913 . S
H2504 C2522 0.951 . S
H2505 C2524 0.951 . S
H2506 C2526 0.950 . S
H2507 C2527 0.950 . S
H2508 C2529 0.950 . S
H2509 C2532 0.950 . S
H2510 C2533 0.950 . S
H2511 C2535 0.950 . S
H2512 C2536 0.950 . S
H2513 C2537 0.951 . S
H2514 C2539 0.951 . S
H2515 C2541 0.950 . S
H2516 C2542 0.950 . S
H2517 C2544 0.950 . S
H2518 C2547 0.950 . S
H2519 C2548 0.950 . S
H2520 C2550 0.950 . S
H2521 C2551 0.950 . S
C2522 H2504 0.951 . S
C2522 C2523 1.366 . S
C2522 C2524 1.388 . S
C2523 C2522 1.366 . S
C2523 C2527 1.385 . S
C2524 H2505 0.951 . S
C2524 C2522 1.388 . S
C2524 C2525 1.366 . S
C2525 C2524 1.366 . S
C2525 C2526 1.414 . S
C2525 C2528 1.499 . S
C2526 H2506 0.950 . S
C2526 C2525 1.414 . S
C2526 C2527 1.374 . S
C2527 H2507 0.950 . S
C2527 C2523 1.385 . S
C2527 C2526 1.374 . S
C2528 C2525 1.499 . S
C2528 C2529 1.373 . S
C2528 C2530 1.389 . S
C2529 H2508 0.950 . S
C2529 C2528 1.373 . S
C2529 C2545 1.377 . S
C2530 C2528 1.389 . S
C2530 C2531 1.524 . S
C2530 C2544 1.377 . S
C2531 C2530 1.524 . S
C2531 C2532 1.397 . S
C2531 C2536 1.363 . S
C2532 H2509 0.950 . S
C2532 C2531 1.397 . S
C2532 C2533 1.334 . S
C2533 H2510 0.950 . S
C2533 C2532 1.334 . S
C2533 C2534 1.287 . S
C2534 C2533 1.287 . S
C2534 C2535 1.524 . S
C2534 H2553 0.913 . S
C2535 H2511 0.950 . S
C2535 C2534 1.524 . S
C2535 C2536 1.415 . S
C2536 H2512 0.950 . S
C2536 C2531 1.363 . S
C2536 C2535 1.415 . S
C2537 H2513 0.951 . S
C2537 C2538 1.366 . S
C2537 C2539 1.388 . S
C2538 C2537 1.366 . S
C2538 C2542 1.385 . S
C2539 H2514 0.951 . S
C2539 C2537 1.388 . S
C2539 C2540 1.366 . S
C2540 C2539 1.366 . S
C2540 C2541 1.414 . S
C2540 C2543 1.499 . S
C2541 H2515 0.950 . S
C2541 C2540 1.414 . S
C2541 C2542 1.374 . S
C2542 H2516 0.950 . S
C2542 C2538 1.385 . S
C2542 C2541 1.374 . S
C2543 C2540 1.499 . S
C2543 C2544 1.373 . S
C2543 C2545 1.389 . S
C2544 H2517 0.950 . S
C2544 C2530 1.377 . S
C2544 C2543 1.373 . S
C2545 C2529 1.377 . S
C2545 C2543 1.389 . S
C2545 C2546 1.524 . S
C2546 C2545 1.524 . S
C2546 C2547 1.397 . S
C2546 C2551 1.363 . S
C2547 H2518 0.950 . S
C2547 C2546 1.397 . S
C2547 C2548 1.334 . S
C2548 H2519 0.950 . S
C2548 C2547 1.334 . S
C2548 C2549 1.287 . S
C2549 C2548 1.287 . S
C2549 C2550 1.524 . S
C2549 H2552 0.999 . S
C2550 H2520 0.950 . S
C2550 C2549 1.524 . S
C2550 C2551 1.415 . S
C2551 H2521 0.950 . S
C2551 C2546 1.363 . S
C2551 C2550 1.415 . S
H2552 C2549 0.999 . S
H2553 C2534 0.913 . S
H2554 C2572 0.951 . S
H2555 C2574 0.951 . S
H2556 C2576 0.950 . S
H2557 C2577 0.950 . S
H2558 C2579 0.950 . S
H2559 C2582 0.950 . S
H2560 C2583 0.950 . S
H2561 C2585 0.950 . S
H2562 C2586 0.950 . S
H2563 C2587 0.951 . S
H2564 C2589 0.951 . S
H2565 C2591 0.950 . S
H2566 C2592 0.950 . S
H2567 C2594 0.950 . S
H2568 C2597 0.950 . S
H2569 C2598 0.950 . S
H2570 C2600 0.950 . S
H2571 C2601 0.950 . S
C2572 H2554 0.951 . S
C2572 C2573 1.366 . S
C2572 C2574 1.388 1_565 S
C2573 C2572 1.366 . S
C2573 C2577 1.385 . S
C2574 H2555 0.951 . S
C2574 C2572 1.388 1_545 S
C2574 C2575 1.366 . S
C2575 C2574 1.366 . S
C2575 C2576 1.414 1_545 S
C2575 C2578 1.499 . S
C2576 H2556 0.950 . S
C2576 C2575 1.414 1_565 S
C2576 C2577 1.374 . S
C2577 H2557 0.950 . S
C2577 C2573 1.385 . S
C2577 C2576 1.374 . S
C2578 C2575 1.499 . S
C2578 C2579 1.373 . S
C2578 C2580 1.389 . S
C2579 H2558 0.950 . S
C2579 C2578 1.373 . S
C2579 C2595 1.377 . S
C2580 C2578 1.389 . S
C2580 C2581 1.524 . S
C2580 C2594 1.377 . S
C2581 C2580 1.524 . S
C2581 C2582 1.397 . S
C2581 C2586 1.363 . S
C2582 H2559 0.950 . S
C2582 C2581 1.397 . S
C2582 C2583 1.334 . S
C2583 H2560 0.950 . S
C2583 C2582 1.334 . S
C2583 C2584 1.287 . S
C2584 C2583 1.287 . S
C2584 C2585 1.524 . S
C2584 H2603 0.913 . S
C2585 H2561 0.950 . S
C2585 C2584 1.524 . S
C2585 C2586 1.415 . S
C2586 H2562 0.950 . S
C2586 C2581 1.363 . S
C2586 C2585 1.415 . S
C2587 H2563 0.951 . S
C2587 C2588 1.366 . S
C2587 C2589 1.388 . S
C2588 C2587 1.366 . S
C2588 C2592 1.385 . S
C2589 H2564 0.951 . S
C2589 C2587 1.388 . S
C2589 C2590 1.366 . S
C2590 C2589 1.366 . S
C2590 C2591 1.414 . S
C2590 C2593 1.499 . S
C2591 H2565 0.950 . S
C2591 C2590 1.414 . S
C2591 C2592 1.374 . S
C2592 H2566 0.950 . S
C2592 C2588 1.385 . S
C2592 C2591 1.374 . S
C2593 C2590 1.499 . S
C2593 C2594 1.373 . S
C2593 C2595 1.389 . S
C2594 H2567 0.950 . S
C2594 C2580 1.377 . S
C2594 C2593 1.373 . S
C2595 C2579 1.377 . S
C2595 C2593 1.389 . S
C2595 C2596 1.524 . S
C2596 C2595 1.524 . S
C2596 C2597 1.397 . S
C2596 C2601 1.363 . S
C2597 H2568 0.950 . S
C2597 C2596 1.397 . S
C2597 C2598 1.334 . S
C2598 H2569 0.950 . S
C2598 C2597 1.334 . S
C2598 C2599 1.287 . S
C2599 C2598 1.287 . S
C2599 C2600 1.524 . S
C2599 H2602 0.999 . S
C2600 H2570 0.950 . S
C2600 C2599 1.524 . S
C2600 C2601 1.415 . S
C2601 H2571 0.950 . S
C2601 C2596 1.363 . S
C2601 C2600 1.415 . S
H2602 C2599 0.999 . S
H2603 C2584 0.913 . S
H2604 C2622 0.951 . S
H2605 C2624 0.951 . S
H2606 C2626 0.950 . S
H2607 C2627 0.950 . S
H2608 C2629 0.950 . S
H2609 C2632 0.950 . S
H2610 C2633 0.950 . S
H2611 C2635 0.950 . S
H2612 C2636 0.950 . S
H2613 C2637 0.951 . S
H2614 C2639 0.951 . S
H2615 C2641 0.950 . S
H2616 C2642 0.950 . S
H2617 C2644 0.950 . S
H2618 C2647 0.950 . S
H2619 C2648 0.950 . S
H2620 C2650 0.950 . S
H2621 C2651 0.950 . S
C2622 H2604 0.951 . S
C2622 C2623 1.366 . S
C2622 C2624 1.388 . S
C2623 C2622 1.366 . S
C2623 C2627 1.385 . S
C2624 H2605 0.951 . S
C2624 C2622 1.388 . S
C2624 C2625 1.366 . S
C2625 C2624 1.366 . S
C2625 C2626 1.414 . S
C2625 C2628 1.499 . S
C2626 H2606 0.950 . S
C2626 C2625 1.414 . S
C2626 C2627 1.374 . S
C2627 H2607 0.950 . S
C2627 C2623 1.385 . S
C2627 C2626 1.374 . S
C2628 C2625 1.499 . S
C2628 C2629 1.373 . S
C2628 C2630 1.389 . S
C2629 H2608 0.950 . S
C2629 C2628 1.373 . S
C2629 C2645 1.377 . S
C2630 C2628 1.389 . S
C2630 C2631 1.524 . S
C2630 C2644 1.377 . S
C2631 C2630 1.524 . S
C2631 C2632 1.397 . S
C2631 C2636 1.363 . S
C2632 H2609 0.950 . S
C2632 C2631 1.397 . S
C2632 C2633 1.334 . S
C2633 H2610 0.950 . S
C2633 C2632 1.334 . S
C2633 C2634 1.287 . S
C2634 C2633 1.287 . S
C2634 C2635 1.524 . S
C2634 H2653 0.913 . S
C2635 H2611 0.950 . S
C2635 C2634 1.524 . S
C2635 C2636 1.415 . S
C2636 H2612 0.950 . S
C2636 C2631 1.363 . S
C2636 C2635 1.415 . S
C2637 H2613 0.951 . S
C2637 C2638 1.366 . S
C2637 C2639 1.388 . S
C2638 C2637 1.366 . S
C2638 C2642 1.385 . S
C2639 H2614 0.951 . S
C2639 C2637 1.388 . S
C2639 C2640 1.366 . S
C2640 C2639 1.366 . S
C2640 C2641 1.414 . S
C2640 C2643 1.499 . S
C2641 H2615 0.950 . S
C2641 C2640 1.414 . S
C2641 C2642 1.374 . S
C2642 H2616 0.950 . S
C2642 C2638 1.385 . S
C2642 C2641 1.374 . S
C2643 C2640 1.499 . S
C2643 C2644 1.373 . S
C2643 C2645 1.389 . S
C2644 H2617 0.950 . S
C2644 C2630 1.377 . S
C2644 C2643 1.373 . S
C2645 C2629 1.377 . S
C2645 C2643 1.389 . S
C2645 C2646 1.524 . S
C2646 C2645 1.524 . S
C2646 C2647 1.397 . S
C2646 C2651 1.363 . S
C2647 H2618 0.950 . S
C2647 C2646 1.397 . S
C2647 C2648 1.334 . S
C2648 H2619 0.950 . S
C2648 C2647 1.334 . S
C2648 C2649 1.287 . S
C2649 C2648 1.287 . S
C2649 C2650 1.524 . S
C2649 H2652 0.999 . S
C2650 H2620 0.950 . S
C2650 C2649 1.524 . S
C2650 C2651 1.415 . S
C2651 H2621 0.950 . S
C2651 C2646 1.363 . S
C2651 C2650 1.415 . S
H2652 C2649 0.999 . S
H2653 C2634 0.913 . S
H2654 C2672 0.951 . S
H2655 C2674 0.951 . S
H2656 C2676 0.950 . S
H2657 C2677 0.950 . S
H2658 C2679 0.950 . S
H2659 C2682 0.950 . S
H2660 C2683 0.950 . S
H2661 C2685 0.950 . S
H2662 C2686 0.950 . S
H2663 C2687 0.951 . S
H2664 C2689 0.951 . S
H2665 C2691 0.950 . S
H2666 C2692 0.950 . S
H2667 C2694 0.950 . S
H2668 C2697 0.950 . S
H2669 C2698 0.950 . S
H2670 C2700 0.950 . S
H2671 C2701 0.950 . S
C2672 H2654 0.951 . S
C2672 C2673 1.366 . S
C2672 C2674 1.388 . S
C2673 C2672 1.366 . S
C2673 C2677 1.385 . S
C2674 H2655 0.951 . S
C2674 C2672 1.388 . S
C2674 C2675 1.366 . S
C2675 C2674 1.366 . S
C2675 C2676 1.414 . S
C2675 C2678 1.499 . S
C2676 H2656 0.950 . S
C2676 C2675 1.414 . S
C2676 C2677 1.374 . S
C2677 H2657 0.950 . S
C2677 C2673 1.385 . S
C2677 C2676 1.374 . S
C2678 C2675 1.499 . S
C2678 C2679 1.373 . S
C2678 C2680 1.389 . S
C2679 H2658 0.950 . S
C2679 C2678 1.373 . S
C2679 C2695 1.377 . S
C2680 C2678 1.389 . S
C2680 C2681 1.524 . S
C2680 C2694 1.377 . S
C2681 C2680 1.524 . S
C2681 C2682 1.397 . S
C2681 C2686 1.363 . S
C2682 H2659 0.950 . S
C2682 C2681 1.397 . S
C2682 C2683 1.334 . S
C2683 H2660 0.950 . S
C2683 C2682 1.334 . S
C2683 C2684 1.287 . S
C2684 C2683 1.287 . S
C2684 C2685 1.524 . S
C2684 H2703 0.913 . S
C2685 H2661 0.950 . S
C2685 C2684 1.524 . S
C2685 C2686 1.415 . S
C2686 H2662 0.950 . S
C2686 C2681 1.363 . S
C2686 C2685 1.415 . S
C2687 H2663 0.951 . S
C2687 C2688 1.366 . S
C2687 C2689 1.388 . S
C2688 C2687 1.366 . S
C2688 C2692 1.385 . S
C2689 H2664 0.951 . S
C2689 C2687 1.388 . S
C2689 C2690 1.366 . S
C2690 C2689 1.366 . S
C2690 C2691 1.414 . S
C2690 C2693 1.499 . S
C2691 H2665 0.950 . S
C2691 C2690 1.414 . S
C2691 C2692 1.374 . S
C2692 H2666 0.950 . S
C2692 C2688 1.385 . S
C2692 C2691 1.374 . S
C2693 C2690 1.499 . S
C2693 C2694 1.373 . S
C2693 C2695 1.389 . S
C2694 H2667 0.950 . S
C2694 C2680 1.377 . S
C2694 C2693 1.373 . S
C2695 C2679 1.377 . S
C2695 C2693 1.389 . S
C2695 C2696 1.524 . S
C2696 C2695 1.524 . S
C2696 C2697 1.397 . S
C2696 C2701 1.363 . S
C2697 H2668 0.950 . S
C2697 C2696 1.397 . S
C2697 C2698 1.334 . S
C2698 H2669 0.950 . S
C2698 C2697 1.334 . S
C2698 C2699 1.287 . S
C2699 C2698 1.287 . S
C2699 C2700 1.524 . S
C2699 H2702 0.999 . S
C2700 H2670 0.950 . S
C2700 C2699 1.524 . S
C2700 C2701 1.415 . S
C2701 H2671 0.950 . S
C2701 C2696 1.363 . S
C2701 C2700 1.415 . S
H2702 C2699 0.999 . S
H2703 C2684 0.913 . S
H2704 C2722 0.951 . S
H2705 C2724 0.951 . S
H2706 C2726 0.950 . S
H2707 C2727 0.950 . S
H2708 C2729 0.950 . S
H2709 C2732 0.950 . S
H2710 C2733 0.950 . S
H2711 C2735 0.950 . S
H2712 C2736 0.950 . S
H2713 C2737 0.951 . S
H2714 C2739 0.951 . S
H2715 C2741 0.950 . S
H2716 C2742 0.950 . S
H2717 C2744 0.950 . S
H2718 C2747 0.950 . S
H2719 C2748 0.950 . S
H2720 C2750 0.950 . S
H2721 C2751 0.950 . S
C2722 H2704 0.951 . S
C2722 C2723 1.366 . S
C2722 C2724 1.388 . S
C2723 C2722 1.366 . S
C2723 C2727 1.385 . S
C2724 H2705 0.951 . S
C2724 C2722 1.388 . S
C2724 C2725 1.366 . S
C2725 C2724 1.366 . S
C2725 C2726 1.414 . S
C2725 C2728 1.499 . S
C2726 H2706 0.950 . S
C2726 C2725 1.414 . S
C2726 C2727 1.374 . S
C2727 H2707 0.950 . S
C2727 C2723 1.385 . S
C2727 C2726 1.374 . S
C2728 C2725 1.499 . S
C2728 C2729 1.373 . S
C2728 C2730 1.389 . S
C2729 H2708 0.950 . S
C2729 C2728 1.373 . S
C2729 C2745 1.377 . S
C2730 C2728 1.389 . S
C2730 C2731 1.524 . S
C2730 C2744 1.377 . S
C2731 C2730 1.524 . S
C2731 C2732 1.397 . S
C2731 C2736 1.363 . S
C2732 H2709 0.950 . S
C2732 C2731 1.397 . S
C2732 C2733 1.334 . S
C2733 H2710 0.950 . S
C2733 C2732 1.334 . S
C2733 C2734 1.287 . S
C2734 C2733 1.287 . S
C2734 C2735 1.524 . S
C2734 H2753 0.913 . S
C2735 H2711 0.950 . S
C2735 C2734 1.524 . S
C2735 C2736 1.415 . S
C2736 H2712 0.950 . S
C2736 C2731 1.363 . S
C2736 C2735 1.415 . S
C2737 H2713 0.951 . S
C2737 C2738 1.366 . S
C2737 C2739 1.388 . S
C2738 C2737 1.366 . S
C2738 C2742 1.385 . S
C2739 H2714 0.951 . S
C2739 C2737 1.388 . S
C2739 C2740 1.366 . S
C2740 C2739 1.366 . S
C2740 C2741 1.414 . S
C2740 C2743 1.499 . S
C2741 H2715 0.950 . S
C2741 C2740 1.414 . S
C2741 C2742 1.374 . S
C2742 H2716 0.950 . S
C2742 C2738 1.385 . S
C2742 C2741 1.374 . S
C2743 C2740 1.499 . S
C2743 C2744 1.373 . S
C2743 C2745 1.389 . S
C2744 H2717 0.950 . S
C2744 C2730 1.377 . S
C2744 C2743 1.373 . S
C2745 C2729 1.377 . S
C2745 C2743 1.389 . S
C2745 C2746 1.524 . S
C2746 C2745 1.524 . S
C2746 C2747 1.397 . S
C2746 C2751 1.363 . S
C2747 H2718 0.950 . S
C2747 C2746 1.397 . S
C2747 C2748 1.334 . S
C2748 H2719 0.950 . S
C2748 C2747 1.334 . S
C2748 C2749 1.287 . S
C2749 C2748 1.287 . S
C2749 C2750 1.524 . S
C2749 H2752 0.999 . S
C2750 H2720 0.950 . S
C2750 C2749 1.524 . S
C2750 C2751 1.415 . S
C2751 H2721 0.950 . S
C2751 C2746 1.363 . S
C2751 C2750 1.415 . S
H2752 C2749 0.999 . S
H2753 C2734 0.913 . S
H2754 C2772 0.951 . S
H2755 C2774 0.951 . S
H2756 C2776 0.950 . S
H2757 C2777 0.950 . S
H2758 C2779 0.950 . S
H2759 C2782 0.950 . S
H2760 C2783 0.950 . S
H2761 C2785 0.950 . S
H2762 C2786 0.950 . S
H2763 C2787 0.951 . S
H2764 C2789 0.951 . S
H2765 C2791 0.950 . S
H2766 C2792 0.950 . S
H2767 C2794 0.950 . S
H2768 C2797 0.950 . S
H2769 C2798 0.950 . S
H2770 C2800 0.950 . S
H2771 C2801 0.950 . S
C2772 H2754 0.951 . S
C2772 C2773 1.366 . S
C2772 C2774 1.388 . S
C2773 C2772 1.366 . S
C2773 C2777 1.385 . S
C2774 H2755 0.951 . S
C2774 C2772 1.388 . S
C2774 C2775 1.366 . S
C2775 C2774 1.366 . S
C2775 C2776 1.414 . S
C2775 C2778 1.499 . S
C2776 H2756 0.950 . S
C2776 C2775 1.414 . S
C2776 C2777 1.374 . S
C2777 H2757 0.950 . S
C2777 C2773 1.385 . S
C2777 C2776 1.374 . S
C2778 C2775 1.499 . S
C2778 C2779 1.373 . S
C2778 C2780 1.389 . S
C2779 H2758 0.950 . S
C2779 C2778 1.373 . S
C2779 C2795 1.377 . S
C2780 C2778 1.389 . S
C2780 C2781 1.524 . S
C2780 C2794 1.377 . S
C2781 C2780 1.524 . S
C2781 C2782 1.397 . S
C2781 C2786 1.363 . S
C2782 H2759 0.950 . S
C2782 C2781 1.397 . S
C2782 C2783 1.334 . S
C2783 H2760 0.950 . S
C2783 C2782 1.334 . S
C2783 C2784 1.287 . S
C2784 C2783 1.287 . S
C2784 C2785 1.524 . S
C2784 H2803 0.913 . S
C2785 H2761 0.950 . S
C2785 C2784 1.524 . S
C2785 C2786 1.415 . S
C2786 H2762 0.950 . S
C2786 C2781 1.363 . S
C2786 C2785 1.415 . S
C2787 H2763 0.951 . S
C2787 C2788 1.366 . S
C2787 C2789 1.388 . S
C2788 C2787 1.366 . S
C2788 C2792 1.385 . S
C2789 H2764 0.951 . S
C2789 C2787 1.388 . S
C2789 C2790 1.366 . S
C2790 C2789 1.366 . S
C2790 C2791 1.414 . S
C2790 C2793 1.499 . S
C2791 H2765 0.950 . S
C2791 C2790 1.414 . S
C2791 C2792 1.374 . S
C2792 H2766 0.950 . S
C2792 C2788 1.385 . S
C2792 C2791 1.374 . S
C2793 C2790 1.499 . S
C2793 C2794 1.373 . S
C2793 C2795 1.389 . S
C2794 H2767 0.950 . S
C2794 C2780 1.377 . S
C2794 C2793 1.373 . S
C2795 C2779 1.377 . S
C2795 C2793 1.389 . S
C2795 C2796 1.524 . S
C2796 C2795 1.524 . S
C2796 C2797 1.397 . S
C2796 C2801 1.363 . S
C2797 H2768 0.950 . S
C2797 C2796 1.397 . S
C2797 C2798 1.334 . S
C2798 H2769 0.950 . S
C2798 C2797 1.334 . S
C2798 C2799 1.287 . S
C2799 C2798 1.287 . S
C2799 C2800 1.524 1_565 S
C2799 H2802 0.999 1_565 S
C2800 H2770 0.950 . S
C2800 C2799 1.524 1_545 S
C2800 C2801 1.415 1_545 S
C2801 H2771 0.950 . S
C2801 C2796 1.363 . S
C2801 C2800 1.415 1_565 S
H2802 C2799 0.999 1_545 S
H2803 C2784 0.913 . S
H2804 C2822 0.951 . S
H2805 C2824 0.951 . S
H2806 C2826 0.950 . S
H2807 C2827 0.950 . S
H2808 C2829 0.950 . S
H2809 C2832 0.950 . S
H2810 C2833 0.950 . S
H2811 C2835 0.950 . S
H2812 C2836 0.950 . S
H2813 C2837 0.951 . S
H2814 C2839 0.951 . S
H2815 C2841 0.950 . S
H2816 C2842 0.950 . S
H2817 C2844 0.950 . S
H2818 C2847 0.950 . S
H2819 C2848 0.950 . S
H2820 C2850 0.950 . S
H2821 C2851 0.950 . S
C2822 H2804 0.951 . S
C2822 C2823 1.366 . S
C2822 C2824 1.388 . S
C2823 C2822 1.366 . S
C2823 C2827 1.385 . S
C2824 H2805 0.951 . S
C2824 C2822 1.388 . S
C2824 C2825 1.366 . S
C2825 C2824 1.366 . S
C2825 C2826 1.414 . S
C2825 C2828 1.499 . S
C2826 H2806 0.950 . S
C2826 C2825 1.414 . S
C2826 C2827 1.374 . S
C2827 H2807 0.950 . S
C2827 C2823 1.385 . S
C2827 C2826 1.374 . S
C2828 C2825 1.499 . S
C2828 C2829 1.373 . S
C2828 C2830 1.389 . S
C2829 H2808 0.950 . S
C2829 C2828 1.373 . S
C2829 C2845 1.377 . S
C2830 C2828 1.389 . S
C2830 C2831 1.524 . S
C2830 C2844 1.377 . S
C2831 C2830 1.524 . S
C2831 C2832 1.397 . S
C2831 C2836 1.363 . S
C2832 H2809 0.950 . S
C2832 C2831 1.397 . S
C2832 C2833 1.334 . S
C2833 H2810 0.950 . S
C2833 C2832 1.334 . S
C2833 C2834 1.287 . S
C2834 C2833 1.287 . S
C2834 C2835 1.524 . S
C2834 H2853 0.913 . S
C2835 H2811 0.950 . S
C2835 C2834 1.524 . S
C2835 C2836 1.415 . S
C2836 H2812 0.950 . S
C2836 C2831 1.363 . S
C2836 C2835 1.415 . S
C2837 H2813 0.951 . S
C2837 C2838 1.366 . S
C2837 C2839 1.388 . S
C2838 C2837 1.366 . S
C2838 C2842 1.385 . S
C2839 H2814 0.951 . S
C2839 C2837 1.388 . S
C2839 C2840 1.366 . S
C2840 C2839 1.366 . S
C2840 C2841 1.414 . S
C2840 C2843 1.499 . S
C2841 H2815 0.950 . S
C2841 C2840 1.414 . S
C2841 C2842 1.374 . S
C2842 H2816 0.950 . S
C2842 C2838 1.385 . S
C2842 C2841 1.374 . S
C2843 C2840 1.499 . S
C2843 C2844 1.373 . S
C2843 C2845 1.389 . S
C2844 H2817 0.950 . S
C2844 C2830 1.377 . S
C2844 C2843 1.373 . S
C2845 C2829 1.377 . S
C2845 C2843 1.389 . S
C2845 C2846 1.524 . S
C2846 C2845 1.524 . S
C2846 C2847 1.397 . S
C2846 C2851 1.363 . S
C2847 H2818 0.950 . S
C2847 C2846 1.397 . S
C2847 C2848 1.334 . S
C2848 H2819 0.950 . S
C2848 C2847 1.334 . S
C2848 C2849 1.287 . S
C2849 C2848 1.287 . S
C2849 C2850 1.524 . S
C2849 H2852 0.999 . S
C2850 H2820 0.950 . S
C2850 C2849 1.524 . S
C2850 C2851 1.415 . S
C2851 H2821 0.950 . S
C2851 C2846 1.363 . S
C2851 C2850 1.415 . S
H2852 C2849 0.999 . S
H2853 C2834 0.913 . S
H2854 C2872 0.951 . S
H2855 C2874 0.951 . S
H2856 C2876 0.950 . S
H2857 C2877 0.950 . S
H2858 C2879 0.950 . S
H2859 C2882 0.950 . S
H2860 C2883 0.950 . S
H2861 C2885 0.950 . S
H2862 C2886 0.950 . S
H2863 C2887 0.951 . S
H2864 C2889 0.951 . S
H2865 C2891 0.950 . S
H2866 C2892 0.950 . S
H2867 C2894 0.950 . S
H2868 C2897 0.950 . S
H2869 C2898 0.950 . S
H2870 C2900 0.950 . S
H2871 C2901 0.950 . S
C2872 H2854 0.951 . S
C2872 C2873 1.366 . S
C2872 C2874 1.388 . S
C2873 C2872 1.366 . S
C2873 C2877 1.385 . S
C2874 H2855 0.951 . S
C2874 C2872 1.388 . S
C2874 C2875 1.366 . S
C2875 C2874 1.366 . S
C2875 C2876 1.414 . S
C2875 C2878 1.499 . S
C2876 H2856 0.950 . S
C2876 C2875 1.414 . S
C2876 C2877 1.374 . S
C2877 H2857 0.950 . S
C2877 C2873 1.385 . S
C2877 C2876 1.374 . S
C2878 C2875 1.499 . S
C2878 C2879 1.373 . S
C2878 C2880 1.389 . S
C2879 H2858 0.950 . S
C2879 C2878 1.373 . S
C2879 C2895 1.377 . S
C2880 C2878 1.389 . S
C2880 C2881 1.524 . S
C2880 C2894 1.377 . S
C2881 C2880 1.524 . S
C2881 C2882 1.397 . S
C2881 C2886 1.363 . S
C2882 H2859 0.950 . S
C2882 C2881 1.397 . S
C2882 C2883 1.334 . S
C2883 H2860 0.950 . S
C2883 C2882 1.334 . S
C2883 C2884 1.287 . S
C2884 C2883 1.287 . S
C2884 C2885 1.524 . S
C2884 H2903 0.913 . S
C2885 H2861 0.950 . S
C2885 C2884 1.524 . S
C2885 C2886 1.415 . S
C2886 H2862 0.950 . S
C2886 C2881 1.363 . S
C2886 C2885 1.415 . S
C2887 H2863 0.951 . S
C2887 C2888 1.366 . S
C2887 C2889 1.388 . S
C2888 C2887 1.366 . S
C2888 C2892 1.385 . S
C2889 H2864 0.951 . S
C2889 C2887 1.388 . S
C2889 C2890 1.366 . S
C2890 C2889 1.366 . S
C2890 C2891 1.414 . S
C2890 C2893 1.499 . S
C2891 H2865 0.950 . S
C2891 C2890 1.414 . S
C2891 C2892 1.374 . S
C2892 H2866 0.950 . S
C2892 C2888 1.385 . S
C2892 C2891 1.374 . S
C2893 C2890 1.499 . S
C2893 C2894 1.373 . S
C2893 C2895 1.389 . S
C2894 H2867 0.950 . S
C2894 C2880 1.377 . S
C2894 C2893 1.373 . S
C2895 C2879 1.377 . S
C2895 C2893 1.389 . S
C2895 C2896 1.524 . S
C2896 C2895 1.524 . S
C2896 C2897 1.397 . S
C2896 C2901 1.363 . S
C2897 H2868 0.950 . S
C2897 C2896 1.397 . S
C2897 C2898 1.334 . S
C2898 H2869 0.950 . S
C2898 C2897 1.334 . S
C2898 C2899 1.287 . S
C2899 C2898 1.287 . S
C2899 C2900 1.524 . S
C2899 H2902 0.999 . S
C2900 H2870 0.950 . S
C2900 C2899 1.524 . S
C2900 C2901 1.415 . S
C2901 H2871 0.950 . S
C2901 C2896 1.363 . S
C2901 C2900 1.415 . S
H2902 C2899 0.999 . S
H2903 C2884 0.913 . S
H2904 C2922 0.951 . S
H2905 C2924 0.951 . S
H2906 C2926 0.950 . S
H2907 C2927 0.950 . S
H2908 C2929 0.950 . S
H2909 C2932 0.950 . S
H2910 C2933 0.950 . S
H2911 C2935 0.950 . S
H2912 C2936 0.950 . S
H2913 C2937 0.951 . S
H2914 C2939 0.951 . S
H2915 C2941 0.950 . S
H2916 C2942 0.950 . S
H2917 C2944 0.950 . S
H2918 C2947 0.950 . S
H2919 C2948 0.950 . S
H2920 C2950 0.950 . S
H2921 C2951 0.950 . S
C2922 H2904 0.951 . S
C2922 C2923 1.366 . S
C2922 C2924 1.388 . S
C2923 C2922 1.366 . S
C2923 C2927 1.385 . S
C2924 H2905 0.951 . S
C2924 C2922 1.388 . S
C2924 C2925 1.366 . S
C2925 C2924 1.366 . S
C2925 C2926 1.414 . S
C2925 C2928 1.499 . S
C2926 H2906 0.950 . S
C2926 C2925 1.414 . S
C2926 C2927 1.374 . S
C2927 H2907 0.950 . S
C2927 C2923 1.385 . S
C2927 C2926 1.374 . S
C2928 C2925 1.499 . S
C2928 C2929 1.373 . S
C2928 C2930 1.389 . S
C2929 H2908 0.950 . S
C2929 C2928 1.373 . S
C2929 C2945 1.377 . S
C2930 C2928 1.389 . S
C2930 C2931 1.524 . S
C2930 C2944 1.377 . S
C2931 C2930 1.524 . S
C2931 C2932 1.397 . S
C2931 C2936 1.363 . S
C2932 H2909 0.950 . S
C2932 C2931 1.397 . S
C2932 C2933 1.334 . S
C2933 H2910 0.950 . S
C2933 C2932 1.334 . S
C2933 C2934 1.287 . S
C2934 C2933 1.287 . S
C2934 C2935 1.524 . S
C2934 H2953 0.913 . S
C2935 H2911 0.950 . S
C2935 C2934 1.524 . S
C2935 C2936 1.415 . S
C2936 H2912 0.950 . S
C2936 C2931 1.363 . S
C2936 C2935 1.415 . S
C2937 H2913 0.951 . S
C2937 C2938 1.366 . S
C2937 C2939 1.388 . S
C2938 C2937 1.366 . S
C2938 C2942 1.385 . S
C2939 H2914 0.951 . S
C2939 C2937 1.388 . S
C2939 C2940 1.366 . S
C2940 C2939 1.366 . S
C2940 C2941 1.414 . S
C2940 C2943 1.499 . S
C2941 H2915 0.950 . S
C2941 C2940 1.414 . S
C2941 C2942 1.374 . S
C2942 H2916 0.950 . S
C2942 C2938 1.385 . S
C2942 C2941 1.374 . S
C2943 C2940 1.499 . S
C2943 C2944 1.373 . S
C2943 C2945 1.389 . S
C2944 H2917 0.950 . S
C2944 C2930 1.377 . S
C2944 C2943 1.373 . S
C2945 C2929 1.377 . S
C2945 C2943 1.389 . S
C2945 C2946 1.524 . S
C2946 C2945 1.524 . S
C2946 C2947 1.397 . S
C2946 C2951 1.363 . S
C2947 H2918 0.950 . S
C2947 C2946 1.397 . S
C2947 C2948 1.334 . S
C2948 H2919 0.950 . S
C2948 C2947 1.334 . S
C2948 C2949 1.287 . S
C2949 C2948 1.287 . S
C2949 C2950 1.524 . S
C2949 H2952 0.999 . S
C2950 H2920 0.950 . S
C2950 C2949 1.524 . S
C2950 C2951 1.415 . S
C2951 H2921 0.950 . S
C2951 C2946 1.363 . S
C2951 C2950 1.415 . S
H2952 C2949 0.999 . S
H2953 C2934 0.913 . S
H2954 C2972 0.951 . S
H2955 C2974 0.951 . S
H2956 C2976 0.950 . S
H2957 C2977 0.950 . S
H2958 C2979 0.950 . S
H2959 C2982 0.950 . S
H2960 C2983 0.950 . S
H2961 C2985 0.950 . S
H2962 C2986 0.950 . S
H2963 C2987 0.951 . S
H2964 C2989 0.951 . S
H2965 C2991 0.950 . S
H2966 C2992 0.950 . S
H2967 C2994 0.950 . S
H2968 C2997 0.950 . S
H2969 C2998 0.950 . S
H2970 C3000 0.950 . S
H2971 C3001 0.950 . S
C2972 H2954 0.951 . S
C2972 C2973 1.366 . S
C2972 C2974 1.388 . S
C2973 C2972 1.366 . S
C2973 C2977 1.385 . S
C2974 H2955 0.951 . S
C2974 C2972 1.388 . S
C2974 C2975 1.366 . S
C2975 C2974 1.366 . S
C2975 C2976 1.414 . S
C2975 C2978 1.499 . S
C2976 H2956 0.950 . S
C2976 C2975 1.414 . S
C2976 C2977 1.374 . S
C2977 H2957 0.950 . S
C2977 C2973 1.385 . S
C2977 C2976 1.374 . S
C2978 C2975 1.499 . S
C2978 C2979 1.373 . S
C2978 C2980 1.389 . S
C2979 H2958 0.950 . S
C2979 C2978 1.373 . S
C2979 C2995 1.377 . S
C2980 C2978 1.389 . S
C2980 C2981 1.524 . S
C2980 C2994 1.377 . S
C2981 C2980 1.524 . S
C2981 C2982 1.397 . S
C2981 C2986 1.363 . S
C2982 H2959 0.950 . S
C2982 C2981 1.397 . S
C2982 C2983 1.334 . S
C2983 H2960 0.950 . S
C2983 C2982 1.334 . S
C2983 C2984 1.287 . S
C2984 C2983 1.287 . S
C2984 C2985 1.524 . S
C2984 H3003 0.913 . S
C2985 H2961 0.950 . S
C2985 C2984 1.524 . S
C2985 C2986 1.415 . S
C2986 H2962 0.950 . S
C2986 C2981 1.363 . S
C2986 C2985 1.415 . S
C2987 H2963 0.951 . S
C2987 C2988 1.366 . S
C2987 C2989 1.388 . S
C2988 C2987 1.366 . S
C2988 C2992 1.385 . S
C2989 H2964 0.951 . S
C2989 C2987 1.388 . S
C2989 C2990 1.366 . S
C2990 C2989 1.366 . S
C2990 C2991 1.414 . S
C2990 C2993 1.499 . S
C2991 H2965 0.950 . S
C2991 C2990 1.414 . S
C2991 C2992 1.374 . S
C2992 H2966 0.950 . S
C2992 C2988 1.385 . S
C2992 C2991 1.374 . S
C2993 C2990 1.499 . S
C2993 C2994 1.373 . S
C2993 C2995 1.389 . S
C2994 H2967 0.950 . S
C2994 C2980 1.377 . S
C2994 C2993 1.373 . S
C2995 C2979 1.377 . S
C2995 C2993 1.389 . S
C2995 C2996 1.524 . S
C2996 C2995 1.524 . S
C2996 C2997 1.397 . S
C2996 C3001 1.363 . S
C2997 H2968 0.950 . S
C2997 C2996 1.397 . S
C2997 C2998 1.334 . S
C2998 H2969 0.950 . S
C2998 C2997 1.334 . S
C2998 C2999 1.287 . S
C2999 C2998 1.287 . S
C2999 C3000 1.524 . S
C2999 H3002 0.999 . S
C3000 H2970 0.950 . S
C3000 C2999 1.524 . S
C3000 C3001 1.415 . S
C3001 H2971 0.950 . S
C3001 C2996 1.363 . S
C3001 C3000 1.415 . S
H3002 C2999 0.999 . S
H3003 C2984 0.913 . S
H3004 C3022 0.951 . S
H3005 C3024 0.951 . S
H3006 C3026 0.950 . S
H3007 C3027 0.950 . S
H3008 C3029 0.950 . S
H3009 C3032 0.950 . S
H3010 C3033 0.950 . S
H3011 C3035 0.950 . S
H3012 C3036 0.950 . S
H3013 C3037 0.951 . S
H3014 C3039 0.951 . S
H3015 C3041 0.950 . S
H3016 C3042 0.950 . S
H3017 C3044 0.950 . S
H3018 C3047 0.950 . S
H3019 C3048 0.950 . S
H3020 C3050 0.950 1_565 S
H3021 C3051 0.950 . S
C3022 H3004 0.951 . S
C3022 C3023 1.366 . S
C3022 C3024 1.388 . S
C3023 C3022 1.366 . S
C3023 C3027 1.385 . S
C3024 H3005 0.951 . S
C3024 C3022 1.388 . S
C3024 C3025 1.366 . S
C3025 C3024 1.366 . S
C3025 C3026 1.414 . S
C3025 C3028 1.499 . S
C3026 H3006 0.950 . S
C3026 C3025 1.414 . S
C3026 C3027 1.374 . S
C3027 H3007 0.950 . S
C3027 C3023 1.385 . S
C3027 C3026 1.374 . S
C3028 C3025 1.499 . S
C3028 C3029 1.373 . S
C3028 C3030 1.389 . S
C3029 H3008 0.950 . S
C3029 C3028 1.373 . S
C3029 C3045 1.377 . S
C3030 C3028 1.389 . S
C3030 C3031 1.524 . S
C3030 C3044 1.377 . S
C3031 C3030 1.524 . S
C3031 C3032 1.397 . S
C3031 C3036 1.363 . S
C3032 H3009 0.950 . S
C3032 C3031 1.397 . S
C3032 C3033 1.334 . S
C3033 H3010 0.950 . S
C3033 C3032 1.334 . S
C3033 C3034 1.287 . S
C3034 C3033 1.287 . S
C3034 C3035 1.524 . S
C3034 H3053 0.913 . S
C3035 H3011 0.950 . S
C3035 C3034 1.524 . S
C3035 C3036 1.415 . S
C3036 H3012 0.950 . S
C3036 C3031 1.363 . S
C3036 C3035 1.415 . S
C3037 H3013 0.951 . S
C3037 C3038 1.366 . S
C3037 C3039 1.388 . S
C3038 C3037 1.366 . S
C3038 C3042 1.385 . S
C3039 H3014 0.951 . S
C3039 C3037 1.388 . S
C3039 C3040 1.366 . S
C3040 C3039 1.366 . S
C3040 C3041 1.414 . S
C3040 C3043 1.499 . S
C3041 H3015 0.950 . S
C3041 C3040 1.414 . S
C3041 C3042 1.374 . S
C3042 H3016 0.950 . S
C3042 C3038 1.385 . S
C3042 C3041 1.374 . S
C3043 C3040 1.499 . S
C3043 C3044 1.373 . S
C3043 C3045 1.389 . S
C3044 H3017 0.950 . S
C3044 C3030 1.377 . S
C3044 C3043 1.373 . S
C3045 C3029 1.377 . S
C3045 C3043 1.389 . S
C3045 C3046 1.524 . S
C3046 C3045 1.524 . S
C3046 C3047 1.397 . S
C3046 C3051 1.363 . S
C3047 H3018 0.950 . S
C3047 C3046 1.397 . S
C3047 C3048 1.334 . S
C3048 H3019 0.950 . S
C3048 C3047 1.334 . S
C3048 C3049 1.287 . S
C3049 C3048 1.287 . S
C3049 C3050 1.524 . S
C3049 H3052 0.999 . S
C3050 H3020 0.950 1_545 S
C3050 C3049 1.524 . S
C3050 C3051 1.415 . S
C3051 H3021 0.950 . S
C3051 C3046 1.363 . S
C3051 C3050 1.415 . S
H3052 C3049 0.999 . S
H3053 C3034 0.913 . S
H3054 C3072 0.951 . S
H3055 C3074 0.951 . S
H3056 C3076 0.950 . S
H3057 C3077 0.950 . S
H3058 C3079 0.950 . S
H3059 C3082 0.950 . S
H3060 C3083 0.950 . S
H3061 C3085 0.950 . S
H3062 C3086 0.950 . S
H3063 C3087 0.951 . S
H3064 C3089 0.951 . S
H3065 C3091 0.950 . S
H3066 C3092 0.950 . S
H3067 C3094 0.950 . S
H3068 C3097 0.950 . S
H3069 C3098 0.950 . S
H3070 C3100 0.950 . S
H3071 C3101 0.950 . S
C3072 H3054 0.951 . S
C3072 C3073 1.366 . S
C3072 C3074 1.388 . S
C3073 C3072 1.366 . S
C3073 C3077 1.385 . S
C3074 H3055 0.951 . S
C3074 C3072 1.388 . S
C3074 C3075 1.366 . S
C3075 C3074 1.366 . S
C3075 C3076 1.414 . S
C3075 C3078 1.499 . S
C3076 H3056 0.950 . S
C3076 C3075 1.414 . S
C3076 C3077 1.374 . S
C3077 H3057 0.950 . S
C3077 C3073 1.385 . S
C3077 C3076 1.374 . S
C3078 C3075 1.499 . S
C3078 C3079 1.373 . S
C3078 C3080 1.389 . S
C3079 H3058 0.950 . S
C3079 C3078 1.373 . S
C3079 C3095 1.377 . S
C3080 C3078 1.389 . S
C3080 C3081 1.524 . S
C3080 C3094 1.377 . S
C3081 C3080 1.524 . S
C3081 C3082 1.397 . S
C3081 C3086 1.363 . S
C3082 H3059 0.950 . S
C3082 C3081 1.397 . S
C3082 C3083 1.334 . S
C3083 H3060 0.950 . S
C3083 C3082 1.334 . S
C3083 C3084 1.287 . S
C3084 C3083 1.287 . S
C3084 C3085 1.524 . S
C3084 H3103 0.913 . S
C3085 H3061 0.950 . S
C3085 C3084 1.524 . S
C3085 C3086 1.415 . S
C3086 H3062 0.950 . S
C3086 C3081 1.363 . S
C3086 C3085 1.415 . S
C3087 H3063 0.951 . S
C3087 C3088 1.366 . S
C3087 C3089 1.388 . S
C3088 C3087 1.366 . S
C3088 C3092 1.385 . S
C3089 H3064 0.951 . S
C3089 C3087 1.388 . S
C3089 C3090 1.366 . S
C3090 C3089 1.366 . S
C3090 C3091 1.414 . S
C3090 C3093 1.499 . S
C3091 H3065 0.950 . S
C3091 C3090 1.414 . S
C3091 C3092 1.374 . S
C3092 H3066 0.950 . S
C3092 C3088 1.385 . S
C3092 C3091 1.374 . S
C3093 C3090 1.499 . S
C3093 C3094 1.373 . S
C3093 C3095 1.389 . S
C3094 H3067 0.950 . S
C3094 C3080 1.377 . S
C3094 C3093 1.373 . S
C3095 C3079 1.377 . S
C3095 C3093 1.389 . S
C3095 C3096 1.524 . S
C3096 C3095 1.524 . S
C3096 C3097 1.397 . S
C3096 C3101 1.363 . S
C3097 H3068 0.950 . S
C3097 C3096 1.397 . S
C3097 C3098 1.334 . S
C3098 H3069 0.950 . S
C3098 C3097 1.334 . S
C3098 C3099 1.287 . S
C3099 C3098 1.287 . S
C3099 C3100 1.524 . S
C3099 H3102 0.999 . S
C3100 H3070 0.950 . S
C3100 C3099 1.524 . S
C3100 C3101 1.415 . S
C3101 H3071 0.950 . S
C3101 C3096 1.363 . S
C3101 C3100 1.415 . S
H3102 C3099 0.999 . S
H3103 C3084 0.913 . S
H3104 C3122 0.951 . S
H3105 C3124 0.951 . S
H3106 C3126 0.950 . S
H3107 C3127 0.950 . S
H3108 C3129 0.950 . S
H3109 C3132 0.950 . S
H3110 C3133 0.950 . S
H3111 C3135 0.950 . S
H3112 C3136 0.950 . S
H3113 C3137 0.951 . S
H3114 C3139 0.951 . S
H3115 C3141 0.950 . S
H3116 C3142 0.950 . S
H3117 C3144 0.950 . S
H3118 C3147 0.950 . S
H3119 C3148 0.950 . S
H3120 C3150 0.950 . S
H3121 C3151 0.950 . S
C3122 H3104 0.951 . S
C3122 C3123 1.366 . S
C3122 C3124 1.388 . S
C3123 C3122 1.366 . S
C3123 C3127 1.385 . S
C3124 H3105 0.951 . S
C3124 C3122 1.388 . S
C3124 C3125 1.366 . S
C3125 C3124 1.366 . S
C3125 C3126 1.414 . S
C3125 C3128 1.499 . S
C3126 H3106 0.950 . S
C3126 C3125 1.414 . S
C3126 C3127 1.374 . S
C3127 H3107 0.950 . S
C3127 C3123 1.385 . S
C3127 C3126 1.374 . S
C3128 C3125 1.499 . S
C3128 C3129 1.373 . S
C3128 C3130 1.389 . S
C3129 H3108 0.950 . S
C3129 C3128 1.373 . S
C3129 C3145 1.377 . S
C3130 C3128 1.389 . S
C3130 C3131 1.524 . S
C3130 C3144 1.377 . S
C3131 C3130 1.524 . S
C3131 C3132 1.397 . S
C3131 C3136 1.363 . S
C3132 H3109 0.950 . S
C3132 C3131 1.397 . S
C3132 C3133 1.334 . S
C3133 H3110 0.950 . S
C3133 C3132 1.334 . S
C3133 C3134 1.287 . S
C3134 C3133 1.287 . S
C3134 C3135 1.524 . S
C3134 H3153 0.913 . S
C3135 H3111 0.950 . S
C3135 C3134 1.524 . S
C3135 C3136 1.415 . S
C3136 H3112 0.950 . S
C3136 C3131 1.363 . S
C3136 C3135 1.415 . S
C3137 H3113 0.951 . S
C3137 C3138 1.366 . S
C3137 C3139 1.388 . S
C3138 C3137 1.366 . S
C3138 C3142 1.385 . S
C3139 H3114 0.951 . S
C3139 C3137 1.388 . S
C3139 C3140 1.366 . S
C3140 C3139 1.366 . S
C3140 C3141 1.414 . S
C3140 C3143 1.499 . S
C3141 H3115 0.950 . S
C3141 C3140 1.414 . S
C3141 C3142 1.374 . S
C3142 H3116 0.950 . S
C3142 C3138 1.385 . S
C3142 C3141 1.374 . S
C3143 C3140 1.499 . S
C3143 C3144 1.373 . S
C3143 C3145 1.389 . S
C3144 H3117 0.950 . S
C3144 C3130 1.377 . S
C3144 C3143 1.373 . S
C3145 C3129 1.377 . S
C3145 C3143 1.389 . S
C3145 C3146 1.524 . S
C3146 C3145 1.524 . S
C3146 C3147 1.397 . S
C3146 C3151 1.363 . S
C3147 H3118 0.950 . S
C3147 C3146 1.397 . S
C3147 C3148 1.334 . S
C3148 H3119 0.950 . S
C3148 C3147 1.334 . S
C3148 C3149 1.287 . S
C3149 C3148 1.287 . S
C3149 C3150 1.524 . S
C3149 H3152 0.999 . S
C3150 H3120 0.950 . S
C3150 C3149 1.524 . S
C3150 C3151 1.415 . S
C3151 H3121 0.950 . S
C3151 C3146 1.363 . S
C3151 C3150 1.415 . S
H3152 C3149 0.999 . S
H3153 C3134 0.913 . S
H3154 C3172 0.951 . S
H3155 C3174 0.951 . S
H3156 C3176 0.950 . S
H3157 C3177 0.950 . S
H3158 C3179 0.950 . S
H3159 C3182 0.950 . S
H3160 C3183 0.950 . S
H3161 C3185 0.950 . S
H3162 C3186 0.950 . S
H3163 C3187 0.951 . S
H3164 C3189 0.951 . S
H3165 C3191 0.950 . S
H3166 C3192 0.950 . S
H3167 C3194 0.950 . S
H3168 C3197 0.950 . S
H3169 C3198 0.950 . S
H3170 C3200 0.950 . S
H3171 C3201 0.950 . S
C3172 H3154 0.951 . S
C3172 C3173 1.366 . S
C3172 C3174 1.388 . S
C3173 C3172 1.366 . S
C3173 C3177 1.385 . S
C3174 H3155 0.951 . S
C3174 C3172 1.388 . S
C3174 C3175 1.366 . S
C3175 C3174 1.366 . S
C3175 C3176 1.414 . S
C3175 C3178 1.499 . S
C3176 H3156 0.950 . S
C3176 C3175 1.414 . S
C3176 C3177 1.374 . S
C3177 H3157 0.950 . S
C3177 C3173 1.385 . S
C3177 C3176 1.374 . S
C3178 C3175 1.499 . S
C3178 C3179 1.373 . S
C3178 C3180 1.389 . S
C3179 H3158 0.950 . S
C3179 C3178 1.373 . S
C3179 C3195 1.377 . S
C3180 C3178 1.389 . S
C3180 C3181 1.524 . S
C3180 C3194 1.377 . S
C3181 C3180 1.524 . S
C3181 C3182 1.397 . S
C3181 C3186 1.363 . S
C3182 H3159 0.950 . S
C3182 C3181 1.397 . S
C3182 C3183 1.334 . S
C3183 H3160 0.950 . S
C3183 C3182 1.334 . S
C3183 C3184 1.287 . S
C3184 C3183 1.287 . S
C3184 C3185 1.524 . S
C3184 H3203 0.913 . S
C3185 H3161 0.950 . S
C3185 C3184 1.524 . S
C3185 C3186 1.415 . S
C3186 H3162 0.950 . S
C3186 C3181 1.363 . S
C3186 C3185 1.415 . S
C3187 H3163 0.951 . S
C3187 C3188 1.366 . S
C3187 C3189 1.388 . S
C3188 C3187 1.366 . S
C3188 C3192 1.385 . S
C3189 H3164 0.951 . S
C3189 C3187 1.388 . S
C3189 C3190 1.366 . S
C3190 C3189 1.366 . S
C3190 C3191 1.414 . S
C3190 C3193 1.499 . S
C3191 H3165 0.950 . S
C3191 C3190 1.414 . S
C3191 C3192 1.374 . S
C3192 H3166 0.950 . S
C3192 C3188 1.385 . S
C3192 C3191 1.374 . S
C3193 C3190 1.499 . S
C3193 C3194 1.373 . S
C3193 C3195 1.389 . S
C3194 H3167 0.950 . S
C3194 C3180 1.377 . S
C3194 C3193 1.373 . S
C3195 C3179 1.377 . S
C3195 C3193 1.389 . S
C3195 C3196 1.524 . S
C3196 C3195 1.524 . S
C3196 C3197 1.397 . S
C3196 C3201 1.363 . S
C3197 H3168 0.950 . S
C3197 C3196 1.397 . S
C3197 C3198 1.334 . S
C3198 H3169 0.950 . S
C3198 C3197 1.334 . S
C3198 C3199 1.287 . S
C3199 C3198 1.287 . S
C3199 C3200 1.524 . S
C3199 H3202 0.999 . S
C3200 H3170 0.950 . S
C3200 C3199 1.524 . S
C3200 C3201 1.415 . S
C3201 H3171 0.950 . S
C3201 C3196 1.363 . S
C3201 C3200 1.415 . S
H3202 C3199 0.999 . S
H3203 C3184 0.913 . S
H3204 C3222 0.951 . S
H3205 C3224 0.951 . S
H3206 C3226 0.950 . S
H3207 C3227 0.950 . S
H3208 C3229 0.950 . S
H3209 C3232 0.950 . S
H3210 C3233 0.950 . S
H3211 C3235 0.950 . S
H3212 C3236 0.950 . S
H3213 C3237 0.951 . S
H3214 C3239 0.951 . S
H3215 C3241 0.950 . S
H3216 C3242 0.950 . S
H3217 C3244 0.950 . S
H3218 C3247 0.950 . S
H3219 C3248 0.950 . S
H3220 C3250 0.950 . S
H3221 C3251 0.950 . S
C3222 H3204 0.951 . S
C3222 C3223 1.366 . S
C3222 C3224 1.388 . S
C3223 C3222 1.366 . S
C3223 C3227 1.385 . S
C3224 H3205 0.951 . S
C3224 C3222 1.388 . S
C3224 C3225 1.366 . S
C3225 C3224 1.366 . S
C3225 C3226 1.414 . S
C3225 C3228 1.499 . S
C3226 H3206 0.950 . S
C3226 C3225 1.414 . S
C3226 C3227 1.374 . S
C3227 H3207 0.950 . S
C3227 C3223 1.385 . S
C3227 C3226 1.374 . S
C3228 C3225 1.499 . S
C3228 C3229 1.373 . S
C3228 C3230 1.389 . S
C3229 H3208 0.950 . S
C3229 C3228 1.373 . S
C3229 C3245 1.377 . S
C3230 C3228 1.389 . S
C3230 C3231 1.524 . S
C3230 C3244 1.377 . S
C3231 C3230 1.524 . S
C3231 C3232 1.397 . S
C3231 C3236 1.363 . S
C3232 H3209 0.950 . S
C3232 C3231 1.397 . S
C3232 C3233 1.334 . S
C3233 H3210 0.950 . S
C3233 C3232 1.334 . S
C3233 C3234 1.287 . S
C3234 C3233 1.287 . S
C3234 C3235 1.524 . S
C3234 H3253 0.913 . S
C3235 H3211 0.950 . S
C3235 C3234 1.524 . S
C3235 C3236 1.415 . S
C3236 H3212 0.950 . S
C3236 C3231 1.363 . S
C3236 C3235 1.415 . S
C3237 H3213 0.951 . S
C3237 C3238 1.366 . S
C3237 C3239 1.388 . S
C3238 C3237 1.366 . S
C3238 C3242 1.385 . S
C3239 H3214 0.951 . S
C3239 C3237 1.388 . S
C3239 C3240 1.366 . S
C3240 C3239 1.366 . S
C3240 C3241 1.414 . S
C3240 C3243 1.499 . S
C3241 H3215 0.950 . S
C3241 C3240 1.414 . S
C3241 C3242 1.374 . S
C3242 H3216 0.950 . S
C3242 C3238 1.385 . S
C3242 C3241 1.374 . S
C3243 C3240 1.499 . S
C3243 C3244 1.373 . S
C3243 C3245 1.389 . S
C3244 H3217 0.950 . S
C3244 C3230 1.377 . S
C3244 C3243 1.373 . S
C3245 C3229 1.377 . S
C3245 C3243 1.389 . S
C3245 C3246 1.524 . S
C3246 C3245 1.524 . S
C3246 C3247 1.397 . S
C3246 C3251 1.363 . S
C3247 H3218 0.950 . S
C3247 C3246 1.397 . S
C3247 C3248 1.334 . S
C3248 H3219 0.950 . S
C3248 C3247 1.334 . S
C3248 C3249 1.287 . S
C3249 C3248 1.287 . S
C3249 C3250 1.524 . S
C3249 H3252 0.999 . S
C3250 H3220 0.950 . S
C3250 C3249 1.524 . S
C3250 C3251 1.415 . S
C3251 H3221 0.950 . S
C3251 C3246 1.363 . S
C3251 C3250 1.415 . S
H3252 C3249 0.999 . S
H3253 C3234 0.913 . S
H3254 C3272 0.951 . S
H3255 C3274 0.951 . S
H3256 C3276 0.950 . S
H3257 C3277 0.950 . S
H3258 C3279 0.950 . S
H3259 C3282 0.950 . S
H3260 C3283 0.950 . S
H3261 C3285 0.950 . S
H3262 C3286 0.950 . S
H3263 C3287 0.951 . S
H3264 C3289 0.951 . S
H3265 C3291 0.950 . S
H3266 C3292 0.950 . S
H3267 C3294 0.950 . S
H3268 C3297 0.950 . S
H3269 C3298 0.950 . S
H3270 C3300 0.950 . S
H3271 C3301 0.950 . S
C3272 H3254 0.951 . S
C3272 C3273 1.366 . S
C3272 C3274 1.388 . S
C3273 C3272 1.366 . S
C3273 C3277 1.385 . S
C3274 H3255 0.951 . S
C3274 C3272 1.388 . S
C3274 C3275 1.366 . S
C3275 C3274 1.366 . S
C3275 C3276 1.414 . S
C3275 C3278 1.499 . S
C3276 H3256 0.950 . S
C3276 C3275 1.414 . S
C3276 C3277 1.374 . S
C3277 H3257 0.950 . S
C3277 C3273 1.385 . S
C3277 C3276 1.374 . S
C3278 C3275 1.499 . S
C3278 C3279 1.373 . S
C3278 C3280 1.389 . S
C3279 H3258 0.950 . S
C3279 C3278 1.373 . S
C3279 C3295 1.377 . S
C3280 C3278 1.389 . S
C3280 C3281 1.524 . S
C3280 C3294 1.377 . S
C3281 C3280 1.524 . S
C3281 C3282 1.397 . S
C3281 C3286 1.363 . S
C3282 H3259 0.950 . S
C3282 C3281 1.397 . S
C3282 C3283 1.334 . S
C3283 H3260 0.950 . S
C3283 C3282 1.334 . S
C3283 C3284 1.287 . S
C3284 C3283 1.287 . S
C3284 C3285 1.524 . S
C3284 H3303 0.913 . S
C3285 H3261 0.950 . S
C3285 C3284 1.524 . S
C3285 C3286 1.415 . S
C3286 H3262 0.950 . S
C3286 C3281 1.363 . S
C3286 C3285 1.415 . S
C3287 H3263 0.951 . S
C3287 C3288 1.366 . S
C3287 C3289 1.388 . S
C3288 C3287 1.366 . S
C3288 C3292 1.385 . S
C3289 H3264 0.951 . S
C3289 C3287 1.388 . S
C3289 C3290 1.366 . S
C3290 C3289 1.366 . S
C3290 C3291 1.414 . S
C3290 C3293 1.499 . S
C3291 H3265 0.950 . S
C3291 C3290 1.414 . S
C3291 C3292 1.374 . S
C3292 H3266 0.950 . S
C3292 C3288 1.385 . S
C3292 C3291 1.374 . S
C3293 C3290 1.499 . S
C3293 C3294 1.373 . S
C3293 C3295 1.389 . S
C3294 H3267 0.950 . S
C3294 C3280 1.377 . S
C3294 C3293 1.373 . S
C3295 C3279 1.377 . S
C3295 C3293 1.389 . S
C3295 C3296 1.524 . S
C3296 C3295 1.524 . S
C3296 C3297 1.397 . S
C3296 C3301 1.363 . S
C3297 H3268 0.950 . S
C3297 C3296 1.397 . S
C3297 C3298 1.334 . S
C3298 H3269 0.950 . S
C3298 C3297 1.334 . S
C3298 C3299 1.287 . S
C3299 C3298 1.287 . S
C3299 C3300 1.524 . S
C3299 H3302 0.999 . S
C3300 H3270 0.950 . S
C3300 C3299 1.524 . S
C3300 C3301 1.415 . S
C3301 H3271 0.950 . S
C3301 C3296 1.363 . S
C3301 C3300 1.415 . S
H3302 C3299 0.999 . S
H3303 C3284 0.913 . S
H3304 C3322 0.951 . S
H3305 C3324 0.951 . S
H3306 C3326 0.950 . S
H3307 C3327 0.950 . S
H3308 C3329 0.950 . S
H3309 C3332 0.950 . S
H3310 C3333 0.950 . S
H3311 C3335 0.950 . S
H3312 C3336 0.950 . S
H3313 C3337 0.951 . S
H3314 C3339 0.951 . S
H3315 C3341 0.950 . S
H3316 C3342 0.950 . S
H3317 C3344 0.950 . S
H3318 C3347 0.950 . S
H3319 C3348 0.950 . S
H3320 C3350 0.950 . S
H3321 C3351 0.950 . S
C3322 H3304 0.951 . S
C3322 C3323 1.366 . S
C3322 C3324 1.388 . S
C3323 C3322 1.366 . S
C3323 C3327 1.385 . S
C3324 H3305 0.951 . S
C3324 C3322 1.388 . S
C3324 C3325 1.366 . S
C3325 C3324 1.366 . S
C3325 C3326 1.414 . S
C3325 C3328 1.499 . S
C3326 H3306 0.950 . S
C3326 C3325 1.414 . S
C3326 C3327 1.374 . S
C3327 H3307 0.950 . S
C3327 C3323 1.385 . S
C3327 C3326 1.374 . S
C3328 C3325 1.499 . S
C3328 C3329 1.373 . S
C3328 C3330 1.389 . S
C3329 H3308 0.950 . S
C3329 C3328 1.373 . S
C3329 C3345 1.377 . S
C3330 C3328 1.389 . S
C3330 C3331 1.524 . S
C3330 C3344 1.377 . S
C3331 C3330 1.524 . S
C3331 C3332 1.397 . S
C3331 C3336 1.363 . S
C3332 H3309 0.950 . S
C3332 C3331 1.397 . S
C3332 C3333 1.334 . S
C3333 H3310 0.950 . S
C3333 C3332 1.334 . S
C3333 C3334 1.287 . S
C3334 C3333 1.287 . S
C3334 C3335 1.524 . S
C3334 H3353 0.913 . S
C3335 H3311 0.950 . S
C3335 C3334 1.524 . S
C3335 C3336 1.415 . S
C3336 H3312 0.950 . S
C3336 C3331 1.363 . S
C3336 C3335 1.415 . S
C3337 H3313 0.951 . S
C3337 C3338 1.366 . S
C3337 C3339 1.388 . S
C3338 C3337 1.366 . S
C3338 C3342 1.385 . S
C3339 H3314 0.951 . S
C3339 C3337 1.388 . S
C3339 C3340 1.366 . S
C3340 C3339 1.366 . S
C3340 C3341 1.414 . S
C3340 C3343 1.499 . S
C3341 H3315 0.950 . S
C3341 C3340 1.414 . S
C3341 C3342 1.374 . S
C3342 H3316 0.950 . S
C3342 C3338 1.385 . S
C3342 C3341 1.374 . S
C3343 C3340 1.499 . S
C3343 C3344 1.373 . S
C3343 C3345 1.389 . S
C3344 H3317 0.950 . S
C3344 C3330 1.377 . S
C3344 C3343 1.373 . S
C3345 C3329 1.377 . S
C3345 C3343 1.389 . S
C3345 C3346 1.524 . S
C3346 C3345 1.524 . S
C3346 C3347 1.397 . S
C3346 C3351 1.363 . S
C3347 H3318 0.950 . S
C3347 C3346 1.397 . S
C3347 C3348 1.334 . S
C3348 H3319 0.950 . S
C3348 C3347 1.334 . S
C3348 C3349 1.287 . S
C3349 C3348 1.287 . S
C3349 C3350 1.524 . S
C3349 H3352 0.999 . S
C3350 H3320 0.950 . S
C3350 C3349 1.524 . S
C3350 C3351 1.415 . S
C3351 H3321 0.950 . S
C3351 C3346 1.363 . S
C3351 C3350 1.415 . S
H3352 C3349 0.999 . S
H3353 C3334 0.913 . S
H3354 C3372 0.951 . S
H3355 C3374 0.951 . S
H3356 C3376 0.950 . S
H3357 C3377 0.950 . S
H3358 C3379 0.950 . S
H3359 C3382 0.950 . S
H3360 C3383 0.950 . S
H3361 C3385 0.950 . S
H3362 C3386 0.950 . S
H3363 C3387 0.951 . S
H3364 C3389 0.951 . S
H3365 C3391 0.950 . S
H3366 C3392 0.950 . S
H3367 C3394 0.950 . S
H3368 C3397 0.950 . S
H3369 C3398 0.950 . S
H3370 C3400 0.950 . S
H3371 C3401 0.950 . S
C3372 H3354 0.951 . S
C3372 C3373 1.366 . S
C3372 C3374 1.388 . S
C3373 C3372 1.366 . S
C3373 C3377 1.385 . S
C3374 H3355 0.951 . S
C3374 C3372 1.388 . S
C3374 C3375 1.366 . S
C3375 C3374 1.366 . S
C3375 C3376 1.414 . S
C3375 C3378 1.499 . S
C3376 H3356 0.950 . S
C3376 C3375 1.414 . S
C3376 C3377 1.374 . S
C3377 H3357 0.950 . S
C3377 C3373 1.385 . S
C3377 C3376 1.374 . S
C3378 C3375 1.499 . S
C3378 C3379 1.373 . S
C3378 C3380 1.389 . S
C3379 H3358 0.950 . S
C3379 C3378 1.373 . S
C3379 C3395 1.377 . S
C3380 C3378 1.389 . S
C3380 C3381 1.524 . S
C3380 C3394 1.377 . S
C3381 C3380 1.524 . S
C3381 C3382 1.397 . S
C3381 C3386 1.363 . S
C3382 H3359 0.950 . S
C3382 C3381 1.397 . S
C3382 C3383 1.334 . S
C3383 H3360 0.950 . S
C3383 C3382 1.334 . S
C3383 C3384 1.287 . S
C3384 C3383 1.287 . S
C3384 C3385 1.524 . S
C3384 H3403 0.913 . S
C3385 H3361 0.950 . S
C3385 C3384 1.524 . S
C3385 C3386 1.415 . S
C3386 H3362 0.950 . S
C3386 C3381 1.363 . S
C3386 C3385 1.415 . S
C3387 H3363 0.951 . S
C3387 C3388 1.366 . S
C3387 C3389 1.388 . S
C3388 C3387 1.366 . S
C3388 C3392 1.385 . S
C3389 H3364 0.951 . S
C3389 C3387 1.388 . S
C3389 C3390 1.366 . S
C3390 C3389 1.366 . S
C3390 C3391 1.414 . S
C3390 C3393 1.499 . S
C3391 H3365 0.950 . S
C3391 C3390 1.414 . S
C3391 C3392 1.374 . S
C3392 H3366 0.950 . S
C3392 C3388 1.385 . S
C3392 C3391 1.374 . S
C3393 C3390 1.499 . S
C3393 C3394 1.373 . S
C3393 C3395 1.389 . S
C3394 H3367 0.950 . S
C3394 C3380 1.377 . S
C3394 C3393 1.373 . S
C3395 C3379 1.377 . S
C3395 C3393 1.389 . S
C3395 C3396 1.524 . S
C3396 C3395 1.524 . S
C3396 C3397 1.397 . S
C3396 C3401 1.363 . S
C3397 H3368 0.950 . S
C3397 C3396 1.397 . S
C3397 C3398 1.334 . S
C3398 H3369 0.950 . S
C3398 C3397 1.334 . S
C3398 C3399 1.287 . S
C3399 C3398 1.287 . S
C3399 C3400 1.524 . S
C3399 H3402 0.999 . S
C3400 H3370 0.950 . S
C3400 C3399 1.524 . S
C3400 C3401 1.415 . S
C3401 H3371 0.950 . S
C3401 C3396 1.363 . S
C3401 C3400 1.415 . S
H3402 C3399 0.999 . S
H3403 C3384 0.913 . S
H3404 C3422 0.951 . S
H3405 C3424 0.951 . S
H3406 C3426 0.950 . S
H3407 C3427 0.950 . S
H3408 C3429 0.950 . S
H3409 C3432 0.950 . S
H3410 C3433 0.950 . S
H3411 C3435 0.950 . S
H3412 C3436 0.950 . S
H3413 C3437 0.951 . S
H3414 C3439 0.951 . S
H3415 C3441 0.950 . S
H3416 C3442 0.950 . S
H3417 C3444 0.950 . S
H3418 C3447 0.950 . S
H3419 C3448 0.950 . S
H3420 C3450 0.950 . S
H3421 C3451 0.950 . S
C3422 H3404 0.951 . S
C3422 C3423 1.366 . S
C3422 C3424 1.388 . S
C3423 C3422 1.366 . S
C3423 C3427 1.385 . S
C3424 H3405 0.951 . S
C3424 C3422 1.388 . S
C3424 C3425 1.366 . S
C3425 C3424 1.366 . S
C3425 C3426 1.414 . S
C3425 C3428 1.499 . S
C3426 H3406 0.950 . S
C3426 C3425 1.414 . S
C3426 C3427 1.374 . S
C3427 H3407 0.950 . S
C3427 C3423 1.385 . S
C3427 C3426 1.374 . S
C3428 C3425 1.499 . S
C3428 C3429 1.373 . S
C3428 C3430 1.389 . S
C3429 H3408 0.950 . S
C3429 C3428 1.373 . S
C3429 C3445 1.377 . S
C3430 C3428 1.389 . S
C3430 C3431 1.524 . S
C3430 C3444 1.377 . S
C3431 C3430 1.524 . S
C3431 C3432 1.397 . S
C3431 C3436 1.363 . S
C3432 H3409 0.950 . S
C3432 C3431 1.397 . S
C3432 C3433 1.334 . S
C3433 H3410 0.950 . S
C3433 C3432 1.334 . S
C3433 C3434 1.287 . S
C3434 C3433 1.287 . S
C3434 C3435 1.524 . S
C3434 H3453 0.913 . S
C3435 H3411 0.950 . S
C3435 C3434 1.524 . S
C3435 C3436 1.415 . S
C3436 H3412 0.950 . S
C3436 C3431 1.363 . S
C3436 C3435 1.415 . S
C3437 H3413 0.951 . S
C3437 C3438 1.366 . S
C3437 C3439 1.388 . S
C3438 C3437 1.366 . S
C3438 C3442 1.385 . S
C3439 H3414 0.951 . S
C3439 C3437 1.388 . S
C3439 C3440 1.366 . S
C3440 C3439 1.366 . S
C3440 C3441 1.414 . S
C3440 C3443 1.499 . S
C3441 H3415 0.950 . S
C3441 C3440 1.414 . S
C3441 C3442 1.374 . S
C3442 H3416 0.950 . S
C3442 C3438 1.385 . S
C3442 C3441 1.374 . S
C3443 C3440 1.499 . S
C3443 C3444 1.373 . S
C3443 C3445 1.389 . S
C3444 H3417 0.950 . S
C3444 C3430 1.377 . S
C3444 C3443 1.373 . S
C3445 C3429 1.377 . S
C3445 C3443 1.389 . S
C3445 C3446 1.524 . S
C3446 C3445 1.524 . S
C3446 C3447 1.397 . S
C3446 C3451 1.363 . S
C3447 H3418 0.950 . S
C3447 C3446 1.397 . S
C3447 C3448 1.334 . S
C3448 H3419 0.950 . S
C3448 C3447 1.334 . S
C3448 C3449 1.287 . S
C3449 C3448 1.287 . S
C3449 C3450 1.524 . S
C3449 H3452 0.999 . S
C3450 H3420 0.950 . S
C3450 C3449 1.524 . S
C3450 C3451 1.415 . S
C3451 H3421 0.950 . S
C3451 C3446 1.363 . S
C3451 C3450 1.415 . S
H3452 C3449 0.999 . S
H3453 C3434 0.913 . S
H3454 C3472 0.951 . S
H3455 C3474 0.951 . S
H3456 C3476 0.950 . S
H3457 C3477 0.950 . S
H3458 C3479 0.950 . S
H3459 C3482 0.950 . S
H3460 C3483 0.950 . S
H3461 C3485 0.950 . S
H3462 C3486 0.950 . S
H3463 C3487 0.951 . S
H3464 C3489 0.951 . S
H3465 C3491 0.950 . S
H3466 C3492 0.950 . S
H3467 C3494 0.950 . S
H3468 C3497 0.950 . S
H3469 C3498 0.950 . S
H3470 C3500 0.950 . S
H3471 C3501 0.950 . S
C3472 H3454 0.951 . S
C3472 C3473 1.366 . S
C3472 C3474 1.388 . S
C3473 C3472 1.366 . S
C3473 C3477 1.385 . S
C3474 H3455 0.951 . S
C3474 C3472 1.388 . S
C3474 C3475 1.366 . S
C3475 C3474 1.366 . S
C3475 C3476 1.414 . S
C3475 C3478 1.499 . S
C3476 H3456 0.950 . S
C3476 C3475 1.414 . S
C3476 C3477 1.374 . S
C3477 H3457 0.950 . S
C3477 C3473 1.385 . S
C3477 C3476 1.374 . S
C3478 C3475 1.499 . S
C3478 C3479 1.373 . S
C3478 C3480 1.389 . S
C3479 H3458 0.950 . S
C3479 C3478 1.373 . S
C3479 C3495 1.377 . S
C3480 C3478 1.389 . S
C3480 C3481 1.524 . S
C3480 C3494 1.377 . S
C3481 C3480 1.524 . S
C3481 C3482 1.397 . S
C3481 C3486 1.363 . S
C3482 H3459 0.950 . S
C3482 C3481 1.397 . S
C3482 C3483 1.334 . S
C3483 H3460 0.950 . S
C3483 C3482 1.334 . S
C3483 C3484 1.287 . S
C3484 C3483 1.287 . S
C3484 C3485 1.524 . S
C3484 H3503 0.913 . S
C3485 H3461 0.950 . S
C3485 C3484 1.524 . S
C3485 C3486 1.415 . S
C3486 H3462 0.950 . S
C3486 C3481 1.363 . S
C3486 C3485 1.415 . S
C3487 H3463 0.951 . S
C3487 C3488 1.366 . S
C3487 C3489 1.388 . S
C3488 C3487 1.366 . S
C3488 C3492 1.385 . S
C3489 H3464 0.951 . S
C3489 C3487 1.388 . S
C3489 C3490 1.366 . S
C3490 C3489 1.366 . S
C3490 C3491 1.414 . S
C3490 C3493 1.499 . S
C3491 H3465 0.950 . S
C3491 C3490 1.414 . S
C3491 C3492 1.374 . S
C3492 H3466 0.950 . S
C3492 C3488 1.385 . S
C3492 C3491 1.374 . S
C3493 C3490 1.499 . S
C3493 C3494 1.373 . S
C3493 C3495 1.389 . S
C3494 H3467 0.950 . S
C3494 C3480 1.377 . S
C3494 C3493 1.373 . S
C3495 C3479 1.377 . S
C3495 C3493 1.389 . S
C3495 C3496 1.524 . S
C3496 C3495 1.524 . S
C3496 C3497 1.397 . S
C3496 C3501 1.363 . S
C3497 H3468 0.950 . S
C3497 C3496 1.397 . S
C3497 C3498 1.334 . S
C3498 H3469 0.950 . S
C3498 C3497 1.334 . S
C3498 C3499 1.287 . S
C3499 C3498 1.287 . S
C3499 C3500 1.524 . S
C3499 H3502 0.999 . S
C3500 H3470 0.950 . S
C3500 C3499 1.524 . S
C3500 C3501 1.415 . S
C3501 H3471 0.950 . S
C3501 C3496 1.363 . S
C3501 C3500 1.415 . S
H3502 C3499 0.999 . S
H3503 C3484 0.913 . S
H3504 C3522 0.951 . S
H3505 C3524 0.951 . S
H3506 C3526 0.950 . S
H3507 C3527 0.950 . S
H3508 C3529 0.950 . S
H3509 C3532 0.950 . S
H3510 C3533 0.950 . S
H3511 C3535 0.950 . S
H3512 C3536 0.950 . S
H3513 C3537 0.951 . S
H3514 C3539 0.951 . S
H3515 C3541 0.950 . S
H3516 C3542 0.950 . S
H3517 C3544 0.950 . S
H3518 C3547 0.950 . S
H3519 C3548 0.950 . S
H3520 C3550 0.950 . S
H3521 C3551 0.950 . S
C3522 H3504 0.951 . S
C3522 C3523 1.366 . S
C3522 C3524 1.388 . S
C3523 C3522 1.366 . S
C3523 C3527 1.385 . S
C3524 H3505 0.951 . S
C3524 C3522 1.388 . S
C3524 C3525 1.366 . S
C3525 C3524 1.366 . S
C3525 C3526 1.414 . S
C3525 C3528 1.499 . S
C3526 H3506 0.950 . S
C3526 C3525 1.414 . S
C3526 C3527 1.374 . S
C3527 H3507 0.950 . S
C3527 C3523 1.385 . S
C3527 C3526 1.374 . S
C3528 C3525 1.499 . S
C3528 C3529 1.373 . S
C3528 C3530 1.389 . S
C3529 H3508 0.950 . S
C3529 C3528 1.373 . S
C3529 C3545 1.377 . S
C3530 C3528 1.389 . S
C3530 C3531 1.524 . S
C3530 C3544 1.377 . S
C3531 C3530 1.524 . S
C3531 C3532 1.397 . S
C3531 C3536 1.363 . S
C3532 H3509 0.950 . S
C3532 C3531 1.397 . S
C3532 C3533 1.334 . S
C3533 H3510 0.950 . S
C3533 C3532 1.334 . S
C3533 C3534 1.287 . S
C3534 C3533 1.287 . S
C3534 C3535 1.524 . S
C3534 H3553 0.913 . S
C3535 H3511 0.950 . S
C3535 C3534 1.524 . S
C3535 C3536 1.415 . S
C3536 H3512 0.950 . S
C3536 C3531 1.363 . S
C3536 C3535 1.415 . S
C3537 H3513 0.951 . S
C3537 C3538 1.366 . S
C3537 C3539 1.388 . S
C3538 C3537 1.366 . S
C3538 C3542 1.385 . S
C3539 H3514 0.951 . S
C3539 C3537 1.388 . S
C3539 C3540 1.366 . S
C3540 C3539 1.366 . S
C3540 C3541 1.414 . S
C3540 C3543 1.499 . S
C3541 H3515 0.950 . S
C3541 C3540 1.414 . S
C3541 C3542 1.374 . S
C3542 H3516 0.950 . S
C3542 C3538 1.385 . S
C3542 C3541 1.374 . S
C3543 C3540 1.499 . S
C3543 C3544 1.373 . S
C3543 C3545 1.389 . S
C3544 H3517 0.950 . S
C3544 C3530 1.377 . S
C3544 C3543 1.373 . S
C3545 C3529 1.377 . S
C3545 C3543 1.389 . S
C3545 C3546 1.524 . S
C3546 C3545 1.524 . S
C3546 C3547 1.397 . S
C3546 C3551 1.363 . S
C3547 H3518 0.950 . S
C3547 C3546 1.397 . S
C3547 C3548 1.334 . S
C3548 H3519 0.950 . S
C3548 C3547 1.334 . S
C3548 C3549 1.287 . S
C3549 C3548 1.287 . S
C3549 C3550 1.524 . S
C3549 H3552 0.999 . S
C3550 H3520 0.950 . S
C3550 C3549 1.524 . S
C3550 C3551 1.415 . S
C3551 H3521 0.950 . S
C3551 C3546 1.363 . S
C3551 C3550 1.415 . S
H3552 C3549 0.999 . S
H3553 C3534 0.913 . S
H3554 C3572 0.951 . S
H3555 C3574 0.951 . S
H3556 C3576 0.950 . S
H3557 C3577 0.950 . S
H3558 C3579 0.950 . S
H3559 C3582 0.950 . S
H3560 C3583 0.950 . S
H3561 C3585 0.950 . S
H3562 C3586 0.950 . S
H3563 C3587 0.951 . S
H3564 C3589 0.951 . S
H3565 C3591 0.950 . S
H3566 C3592 0.950 . S
H3567 C3594 0.950 . S
H3568 C3597 0.950 . S
H3569 C3598 0.950 . S
H3570 C3600 0.950 . S
H3571 C3601 0.950 . S
C3572 H3554 0.951 . S
C3572 C3573 1.366 . S
C3572 C3574 1.388 . S
C3573 C3572 1.366 . S
C3573 C3577 1.385 . S
C3574 H3555 0.951 . S
C3574 C3572 1.388 . S
C3574 C3575 1.366 . S
C3575 C3574 1.366 . S
C3575 C3576 1.414 . S
C3575 C3578 1.499 . S
C3576 H3556 0.950 . S
C3576 C3575 1.414 . S
C3576 C3577 1.374 . S
C3577 H3557 0.950 . S
C3577 C3573 1.385 . S
C3577 C3576 1.374 . S
C3578 C3575 1.499 . S
C3578 C3579 1.373 . S
C3578 C3580 1.389 . S
C3579 H3558 0.950 . S
C3579 C3578 1.373 . S
C3579 C3595 1.377 . S
C3580 C3578 1.389 . S
C3580 C3581 1.524 . S
C3580 C3594 1.377 . S
C3581 C3580 1.524 . S
C3581 C3582 1.397 . S
C3581 C3586 1.363 . S
C3582 H3559 0.950 . S
C3582 C3581 1.397 . S
C3582 C3583 1.334 . S
C3583 H3560 0.950 . S
C3583 C3582 1.334 . S
C3583 C3584 1.287 . S
C3584 C3583 1.287 . S
C3584 C3585 1.524 . S
C3584 H3603 0.913 . S
C3585 H3561 0.950 . S
C3585 C3584 1.524 . S
C3585 C3586 1.415 . S
C3586 H3562 0.950 . S
C3586 C3581 1.363 . S
C3586 C3585 1.415 . S
C3587 H3563 0.951 . S
C3587 C3588 1.366 . S
C3587 C3589 1.388 . S
C3588 C3587 1.366 . S
C3588 C3592 1.385 . S
C3589 H3564 0.951 . S
C3589 C3587 1.388 . S
C3589 C3590 1.366 . S
C3590 C3589 1.366 . S
C3590 C3591 1.414 . S
C3590 C3593 1.499 . S
C3591 H3565 0.950 . S
C3591 C3590 1.414 . S
C3591 C3592 1.374 . S
C3592 H3566 0.950 . S
C3592 C3588 1.385 . S
C3592 C3591 1.374 . S
C3593 C3590 1.499 . S
C3593 C3594 1.373 . S
C3593 C3595 1.389 . S
C3594 H3567 0.950 . S
C3594 C3580 1.377 . S
C3594 C3593 1.373 . S
C3595 C3579 1.377 . S
C3595 C3593 1.389 . S
C3595 C3596 1.524 . S
C3596 C3595 1.524 . S
C3596 C3597 1.397 . S
C3596 C3601 1.363 . S
C3597 H3568 0.950 . S
C3597 C3596 1.397 . S
C3597 C3598 1.334 . S
C3598 H3569 0.950 . S
C3598 C3597 1.334 . S
C3598 C3599 1.287 . S
C3599 C3598 1.287 . S
C3599 C3600 1.524 . S
C3599 H3602 0.999 . S
C3600 H3570 0.950 . S
C3600 C3599 1.524 . S
C3600 C3601 1.415 . S
C3601 H3571 0.950 . S
C3601 C3596 1.363 . S
C3601 C3600 1.415 . S
H3602 C3599 0.999 . S
H3603 C3584 0.913 . S
H3604 C3622 0.951 . S
H3605 C3624 0.951 . S
H3606 C3626 0.950 . S
H3607 C3627 0.950 . S
H3608 C3629 0.950 . S
H3609 C3632 0.950 . S
H3610 C3633 0.950 . S
H3611 C3635 0.950 . S
H3612 C3636 0.950 . S
H3613 C3637 0.951 . S
H3614 C3639 0.951 . S
H3615 C3641 0.950 . S
H3616 C3642 0.950 . S
H3617 C3644 0.950 . S
H3618 C3647 0.950 . S
H3619 C3648 0.950 . S
H3620 C3650 0.950 . S
H3621 C3651 0.950 . S
C3622 H3604 0.951 . S
C3622 C3623 1.366 . S
C3622 C3624 1.388 . S
C3623 C3622 1.366 . S
C3623 C3627 1.385 . S
C3624 H3605 0.951 . S
C3624 C3622 1.388 . S
C3624 C3625 1.366 . S
C3625 C3624 1.366 . S
C3625 C3626 1.414 . S
C3625 C3628 1.499 . S
C3626 H3606 0.950 . S
C3626 C3625 1.414 . S
C3626 C3627 1.374 . S
C3627 H3607 0.950 . S
C3627 C3623 1.385 . S
C3627 C3626 1.374 . S
C3628 C3625 1.499 . S
C3628 C3629 1.373 . S
C3628 C3630 1.389 . S
C3629 H3608 0.950 . S
C3629 C3628 1.373 . S
C3629 C3645 1.377 . S
C3630 C3628 1.389 . S
C3630 C3631 1.524 . S
C3630 C3644 1.377 . S
C3631 C3630 1.524 . S
C3631 C3632 1.397 . S
C3631 C3636 1.363 . S
C3632 H3609 0.950 . S
C3632 C3631 1.397 . S
C3632 C3633 1.334 . S
C3633 H3610 0.950 . S
C3633 C3632 1.334 . S
C3633 C3634 1.287 . S
C3634 C3633 1.287 . S
C3634 C3635 1.524 . S
C3634 H3653 0.913 . S
C3635 H3611 0.950 . S
C3635 C3634 1.524 . S
C3635 C3636 1.415 . S
C3636 H3612 0.950 . S
C3636 C3631 1.363 . S
C3636 C3635 1.415 . S
C3637 H3613 0.951 . S
C3637 C3638 1.366 . S
C3637 C3639 1.388 . S
C3638 C3637 1.366 . S
C3638 C3642 1.385 . S
C3639 H3614 0.951 . S
C3639 C3637 1.388 . S
C3639 C3640 1.366 . S
C3640 C3639 1.366 . S
C3640 C3641 1.414 . S
C3640 C3643 1.499 . S
C3641 H3615 0.950 . S
C3641 C3640 1.414 . S
C3641 C3642 1.374 . S
C3642 H3616 0.950 . S
C3642 C3638 1.385 . S
C3642 C3641 1.374 . S
C3643 C3640 1.499 . S
C3643 C3644 1.373 . S
C3643 C3645 1.389 . S
C3644 H3617 0.950 . S
C3644 C3630 1.377 . S
C3644 C3643 1.373 . S
C3645 C3629 1.377 . S
C3645 C3643 1.389 . S
C3645 C3646 1.524 . S
C3646 C3645 1.524 . S
C3646 C3647 1.397 . S
C3646 C3651 1.363 . S
C3647 H3618 0.950 . S
C3647 C3646 1.397 . S
C3647 C3648 1.334 . S
C3648 H3619 0.950 . S
C3648 C3647 1.334 . S
C3648 C3649 1.287 . S
C3649 C3648 1.287 . S
C3649 C3650 1.524 . S
C3649 H3652 0.999 . S
C3650 H3620 0.950 . S
C3650 C3649 1.524 . S
C3650 C3651 1.415 . S
C3651 H3621 0.950 . S
C3651 C3646 1.363 . S
C3651 C3650 1.415 . S
H3652 C3649 0.999 . S
H3653 C3634 0.913 . S
C973 C147 1.433 . S
C988 C265 1.374 . S
C1023 C158 1.460 . S
C1038 C349 1.405 . S
C1073 C136 1.427 . S
C1088 C429 1.419 . S
C1123 C125 1.401 . S
C1138 C345 1.394 1_556 S
C1188 C433 1.351 . S
C1173 C103 1.409 . S
C1223 C114 1.377 . S
C1238 C261 1.348 1_556 S
C1288 C254 1.431 . S
C1273 C131 1.492 . S
C1338 C338 1.458 . S
C1323 C109 1.516 . S
C1373 C120 1.510 . S
C1388 C440 1.467 1_556 S
C1423 C153 1.475 . S
C1438 C356 1.443 . S
C1473 C164 1.459 . S
C1488 C422 1.397 . S
C1538 C272 1.420 . S
C1523 C142 1.453 . S
C1588 C517 1.376 . S
C1573 C15 1.433 . S
C1623 C26 1.460 . S
C1638 C601 1.406 . S
C1673 C4 1.427 . S
C1688 C681 1.419 . S
C1723 C191 1.401 . S
C1738 C597 1.395 . S
C1773 C169 1.408 . S
C1788 C685 1.351 . S
C1823 C180 1.377 . S
C1838 C513 1.369 . S
C1873 C197 1.492 . S
C1888 C506 1.429 . S
C1923 C175 1.517 . S
C1938 C590 1.457 . S
C1988 C692 1.478 . S
C1973 C186 1.511 . S
C2023 C21 1.476 . S
C2038 C608 1.444 . S
C2088 C674 1.398 . S
C2073 C32 1.459 . S
C2123 C10 1.452 . S
C2138 C524 1.420 . S
C2188 C769 1.375 . S
C2173 C81 1.433 . S
C2223 C92 1.460 . S
C2238 C853 1.406 . S
C2288 C933 1.419 . S
C2273 C70 1.427 . S
C2338 C849 1.394 . S
C2323 C59 1.401 . S
C2388 C937 1.350 . S
C2373 C37 1.409 . S
C2423 C48 1.377 . S
C2438 C765 1.369 . S
C2473 C65 1.492 . S
C2488 C758 1.431 . S
C2523 C43 1.516 . S
C2538 C842 1.457 . S
C2588 C944 1.478 . S
C2573 C54 1.510 . S
C2623 C87 1.475 . S
C2638 C860 1.444 . S
C2673 C98 1.460 . S
C2688 C926 1.397 . S
C2723 C76 1.452 . S
C2738 C776 1.420 . S
C2773 C170 1.544 . S
C2788 C268 1.420 . S
C2838 C352 1.476 . S
C2823 C181 1.625 . S
C2873 C192 1.562 . S
C2888 C424 1.384 . S
C2923 C71 1.596 . S
C2938 C340 1.407 . S
C2973 C82 1.578 . S
C2988 C436 1.437 . S
C3038 C256 1.352 . S
C3023 C93 1.516 . S
C3073 C38 1.545 . S
C3088 C520 1.418 . S
C3123 C49 1.625 . S
C3138 C604 1.476 . S
C3173 C60 1.562 . S
C3188 C676 1.384 . S
C3223 C137 1.596 . S
C3238 C592 1.407 . S
C3288 C688 1.436 . S
C3273 C148 1.578 . S
C3323 C159 1.516 . S
C3338 C508 1.352 . S
C3373 C104 1.545 . S
C3388 C772 1.419 . S
C3423 C115 1.625 . S
C3438 C856 1.477 . S
C3488 C928 1.383 . S
C3473 C126 1.562 . S
C3523 C5 1.596 . S
C3538 C844 1.406 . S
C3573 C16 1.577 . S
C3588 C940 1.438 . S
C3623 C27 1.516 . S
C3638 C760 1.353 . S
