# Generated by pormake.
# Topology zzz, (3,6)-cn, num edge types: 1
# Building blocks:
#     Node 0, Type 0, BuildingBlock: CUQRIR_clean_linker_1, # of connection points: 3
#     Node 1, Type 0, BuildingBlock: CUQRIR_clean_linker_1, # of connection points: 3
#     Node 2, Type 0, BuildingBlock: CUQRIR_clean_linker_1, # of connection points: 3
#     Node 3, Type 0, BuildingBlock: CUQRIR_clean_linker_1, # of connection points: 3
#     Node 4, Type 0, BuildingBlock: CUQRIR_clean_linker_1, # of connection points: 3
#     Node 5, Type 0, BuildingBlock: CUQRIR_clean_linker_1, # of connection points: 3
#     Node 6, Type 0, BuildingBlock: CUQRIR_clean_linker_1, # of connection points: 3
#     Node 7, Type 0, BuildingBlock: CUQRIR_clean_linker_1, # of connection points: 3
#     Node 8, Type 1, BuildingBlock: INOVEN_clean_sbu_0, # of connection points: 6
#     Node 9, Type 1, BuildingBlock: INOVEN_clean_sbu_0, # of connection points: 6
#     Node 10, Type 1, BuildingBlock: INOVEN_clean_sbu_0, # of connection points: 6
#     Node 11, Type 1, BuildingBlock: INOVEN_clean_sbu_0, # of connection points: 6
#     Edge 12, Type (0, 1), BuildingBlock: TEMPAE_clean_linker_10, # of connection points: 2
#     Edge 13, Type (0, 1), BuildingBlock: TEMPAE_clean_linker_10, # of connection points: 2
#     Edge 14, Type (0, 1), BuildingBlock: TEMPAE_clean_linker_10, # of connection points: 2
#     Edge 15, Type (0, 1), BuildingBlock: TEMPAE_clean_linker_10, # of connection points: 2
#     Edge 16, Type (0, 1), BuildingBlock: TEMPAE_clean_linker_10, # of connection points: 2
#     Edge 17, Type (0, 1), BuildingBlock: TEMPAE_clean_linker_10, # of connection points: 2
#     Edge 18, Type (0, 1), BuildingBlock: TEMPAE_clean_linker_10, # of connection points: 2
#     Edge 19, Type (0, 1), BuildingBlock: TEMPAE_clean_linker_10, # of connection points: 2
#     Edge 20, Type (0, 1), BuildingBlock: TEMPAE_clean_linker_10, # of connection points: 2
#     Edge 21, Type (0, 1), BuildingBlock: TEMPAE_clean_linker_10, # of connection points: 2
#     Edge 22, Type (0, 1), BuildingBlock: TEMPAE_clean_linker_10, # of connection points: 2
#     Edge 23, Type (0, 1), BuildingBlock: TEMPAE_clean_linker_10, # of connection points: 2
#     Edge 24, Type (0, 1), BuildingBlock: TEMPAE_clean_linker_10, # of connection points: 2
#     Edge 25, Type (0, 1), BuildingBlock: TEMPAE_clean_linker_10, # of connection points: 2
#     Edge 26, Type (0, 1), BuildingBlock: TEMPAE_clean_linker_10, # of connection points: 2
#     Edge 27, Type (0, 1), BuildingBlock: TEMPAE_clean_linker_10, # of connection points: 2
#     Edge 28, Type (0, 1), BuildingBlock: TEMPAE_clean_linker_10, # of connection points: 2
#     Edge 29, Type (0, 1), BuildingBlock: TEMPAE_clean_linker_10, # of connection points: 2
#     Edge 30, Type (0, 1), BuildingBlock: TEMPAE_clean_linker_10, # of connection points: 2
#     Edge 31, Type (0, 1), BuildingBlock: TEMPAE_clean_linker_10, # of connection points: 2
#     Edge 32, Type (0, 1), BuildingBlock: TEMPAE_clean_linker_10, # of connection points: 2
#     Edge 33, Type (0, 1), BuildingBlock: TEMPAE_clean_linker_10, # of connection points: 2
#     Edge 34, Type (0, 1), BuildingBlock: TEMPAE_clean_linker_10, # of connection points: 2
#     Edge 35, Type (0, 1), BuildingBlock: TEMPAE_clean_linker_10, # of connection points: 2
# Relax obj value: 0.296
# Max RMSD: 0.190
# Mean RMSD: 0.157
data_MOF--net-zzz--node1-INOVEN_clean_sbu_0--node2-CUQRIR_clean_linker_1--edge1-TEMPAE_clean_linker_10
_symmetry_space_group_name_H-M    P1
_symmetry_Int_Tables_number       1
_symmetry_cell_setting            triclinic
loop_
_symmetry_equiv_pos_as_xyz
'x, y, z'
_cell_length_a     48.806755
_cell_length_b     48.891011
_cell_length_c     12.278933
_cell_angle_alpha  90.099095
_cell_angle_beta   90.126136
_cell_angle_gamma 90.044065
loop_
_atom_site_label
_atom_site_type_symbol
_atom_site_fract_x
_atom_site_fract_y
_atom_site_fract_z
_atom_type_partial_charge
C0 C 0.74793 0.52818 0.41585 0.0
N1 N 0.77526 0.53354 0.40655 0.0
N2 N 0.73336 0.54081 0.33524 0.0
C3 C 0.73601 0.50817 0.49489 0.0
C4 C 0.75297 0.55473 0.28075 0.0
N5 N 0.7784 0.5487 0.31746 0.0
C6 C 0.74735 0.57372 0.18665 0.0
H7 H 0.73725 0.48734 0.45921 0.0
H8 H 0.71417 0.51294 0.51096 0.0
H9 H 0.74779 0.50831 0.57228 0.0
H10 H 0.72788 0.5849 0.20053 0.0
H11 H 0.74518 0.56206 0.10966 0.0
H12 H 0.76445 0.58849 0.17701 0.0
C13 C 0.02626 0.74692 0.41634 0.0
N14 N 0.04014 0.77116 0.41987 0.0
N15 N 0.03768 0.72957 0.34188 0.0
C16 C 1.00222 0.73992 0.48665 0.0
C17 C 0.05852 0.74432 0.29922 0.0
N18 N 0.06018 0.76912 0.34705 0.0
C19 C 0.07542 0.7356 0.20241 0.0
H20 H 1.00094 0.71749 0.49955 0.0
H21 H 0.98319 0.7467 0.44518 0.0
H22 H 1.00366 0.75061 0.56625 0.0
H23 H 0.06367 0.72167 0.14827 0.0
H24 H 0.09388 0.72463 0.2319 0.0
H25 H 0.08225 0.75346 0.15392 0.0
C26 C 0.79726 0.02342 0.4165 0.0
N27 N 0.77295 0.03701 0.42436 0.0
N28 N 0.81326 0.03435 0.33608 0.0
C29 C 0.80572 1.00041 0.48976 0.0
C30 C 0.79741 0.05464 0.29468 0.0
N31 N 0.77357 0.05651 0.34929 0.0
C32 C 0.80347 0.07038 0.19181 0.0
H33 H 0.79565 1.00229 0.57037 0.0
H34 H 0.8283 1.00011 0.50035 0.0
H35 H 0.79923 0.98076 0.45242 0.0
H36 H 0.81624 0.05819 0.13505 0.0
H37 H 0.81457 0.08947 0.21322 0.0
H38 H 0.78434 0.07623 0.14886 0.0
C39 C 0.51857 0.79218 0.36491 0.0
N40 N 0.50439 0.76829 0.37578 0.0
N41 N 0.5069 0.80843 0.28721 0.0
C42 C 0.54289 0.80011 0.43278 0.0
C43 C 0.48551 0.79327 0.25041 0.0
N44 N 0.48377 0.76945 0.30504 0.0
C45 C 0.46815 0.8002 0.15242 0.0
H46 H 0.54206 0.79009 0.51373 0.0
H47 H 0.54388 0.82264 0.44309 0.0
H48 H 0.56181 0.79329 0.39082 0.0
H49 H 0.47953 0.81331 0.09429 0.0
H50 H 0.44956 0.81128 0.17979 0.0
H51 H 0.46142 0.78144 0.10903 0.0
C52 C 0.30174 0.51042 0.08817 0.0
N53 N 0.27455 0.51255 0.11268 0.0
N54 N 0.3165 0.50153 0.17601 0.0
C55 C 0.31402 0.51902 0.98189 0.0
C56 C 0.29728 0.49831 0.25381 0.0
N57 N 0.27222 0.50571 0.21734 0.0
C58 C 0.30356 0.48984 0.36939 0.0
H59 H 0.33668 0.51726 0.98328 0.0
H60 H 0.30802 0.54045 0.96415 0.0
H61 H 0.30566 0.50599 0.9156 0.0
H62 H 0.31537 0.50627 0.41071 0.0
H63 H 0.31646 0.47118 0.36929 0.0
H64 H 0.28462 0.4855 0.41614 0.0
C65 C 1.02053 0.29578 0.11807 0.0
N66 N 1.00587 0.27225 0.10464 0.0
N67 N 1.0063 0.31434 0.17921 0.0
C68 C 0.04912 0.30005 0.07696 0.0
C69 C 0.98266 0.30103 0.20284 0.0
N70 N 0.98229 0.27596 0.15681 0.0
C71 C 0.96103 0.31143 0.28024 0.0
H72 H 0.05381 0.32218 0.06941 0.0
H73 H 0.05194 0.28987 0.99703 0.0
H74 H 0.06375 0.29077 0.13544 0.0
H75 H 0.94725 0.32562 0.23598 0.0
H76 H 0.97058 0.32273 0.34902 0.0
H77 H 0.94829 0.29466 0.3136 0.0
C78 C 0.25139 0.02977 0.12842 0.0
N79 N 0.27546 1.01585 0.11778 0.0
N80 N 0.23507 1.01781 0.20505 0.0
C81 C 0.24348 0.05424 0.06215 0.0
C82 C 0.25029 0.99652 0.24127 0.0
N83 N 0.27431 0.99516 0.1877 0.0
C84 C 0.24287 0.97852 0.33644 0.0
H85 H 0.2505 0.07297 0.10507 0.0
H86 H 0.2209 0.05535 0.05251 0.0
H87 H 0.25342 0.05357 0.98099 0.0
H88 H 0.23182 0.96021 0.30576 0.0
H89 H 0.22943 0.98948 0.39477 0.0
H90 H 0.26143 0.97144 0.3804 0.0
C91 C 0.52746 0.2558 0.16847 0.0
N92 N 0.54161 0.27984 0.16215 0.0
N93 N 0.53813 0.23935 0.2477 0.0
C94 C 0.50419 0.24792 0.09497 0.0
C95 C 0.55882 0.25448 0.29018 0.0
N96 N 0.56119 0.2785 0.23745 0.0
C97 C 0.57481 0.24714 0.39137 0.0
H98 H 0.50339 0.2254 0.08403 0.0
H99 H 0.50617 0.25806 0.01458 0.0
H100 H 0.48468 0.25464 0.1327 0.0
H101 H 0.59384 0.23631 0.36738 0.0
H102 H 0.56273 0.23363 0.44566 0.0
H103 H 0.58073 0.26571 0.43781 0.0
Gd104 Gd 0.0402 1.01682 0.8598 0.0
Gd105 Gd 1.00376 0.02426 0.68502 0.0
C106 C 0.02554 0.96405 0.71679 0.0
C107 C 0.06574 1.01114 0.04207 0.0
C108 C 0.08436 0.98999 0.08323 0.0
C109 C 0.10766 0.9819 0.02407 0.0
C110 C 0.07663 0.97522 0.1757 0.0
C111 C 0.11346 0.94286 0.14344 0.0
C112 C 0.0908 0.95169 0.20476 0.0
C113 C 0.12217 0.95849 0.05427 0.0
C114 C 0.06839 1.01734 0.66937 0.0
C115 C 1.02235 0.0792 0.81262 0.0
C116 C 0.97178 0.03527 0.52256 0.0
C117 C 0.96012 0.05859 0.46338 0.0
C118 C 0.93178 0.06355 0.46987 0.0
C119 C 0.97655 0.07563 0.39942 0.0
C120 C 0.93649 0.10252 0.34998 0.0
C121 C 0.96485 0.09744 0.34357 0.0
C122 C 0.92006 0.08547 0.41418 0.0
C123 C 0.97851 1.00564 0.86871 0.0
O124 O 0.02981 0.97233 0.81815 0.0
O125 O 1.01971 0.98236 0.64174 0.0
O126 O 0.07484 0.02661 0.96324 0.0
O127 O 0.0405 1.00293 0.02661 0.0
O128 O 0.07241 1.00044 0.74878 0.0
O129 O 0.04864 0.03329 0.69226 0.0
O130 O 1.0073 0.06924 0.73207 0.0
O131 O 0.03699 0.06269 0.87427 0.0
O132 O 0.9634 0.0326 0.62256 0.0
O133 O 0.99789 0.02984 0.511 0.0
O134 O 0.97584 0.9949 0.77314 0.0
O135 O 0.99591 0.02468 0.86373 0.0
H136 H 0.11398 0.99288 0.95181 0.0
H137 H 0.05868 0.98107 0.22208 0.0
H138 H 0.0833 0.93982 0.27289 0.0
H139 H 0.13957 0.9521 0.00591 0.0
H140 H 0.91866 0.05037 0.51784 0.0
H141 H 0.99843 0.07231 0.39299 0.0
H142 H 0.97818 0.11068 0.29682 0.0
H143 H 0.89818 0.08885 0.42009 0.0
Gd144 Gd 0.53013 0.03681 0.88686 0.0
Gd145 Gd 0.51735 1.01155 0.64759 0.0
C146 C 0.58055 0.0258 0.72064 0.0
C147 C 0.53921 0.04575 0.08986 0.0
C148 C 0.5548 0.06737 0.14445 0.0
C149 C 0.55847 0.09282 0.09352 0.0
C150 C 0.5696 0.06123 0.23875 0.0
C151 C 0.59577 0.10326 0.21721 0.0
C152 C 0.58987 0.07912 0.27533 0.0
C153 C 0.57876 0.11072 0.12997 0.0
C154 C 0.52545 0.07696 0.73069 0.0
C155 C 0.46699 0.02303 0.81397 0.0
C156 C 0.5082 1.00273 0.44447 0.0
C157 C 0.49258 0.98126 0.38905 0.0
C158 C 0.48843 0.95587 0.43975 0.0
C159 C 0.4783 0.98752 0.29365 0.0
C160 C 0.45158 0.94575 0.31337 0.0
C161 C 0.45803 0.96981 0.25561 0.0
C162 C 0.46815 0.93814 0.40178 0.0
C163 C 0.52175 0.97129 0.80335 0.0
O164 O 0.57311 0.02814 0.82446 0.0
O165 O 0.5623 0.02341 0.64057 0.0
O166 O 0.51671 0.05362 0.0405 0.0
O167 O 0.55412 0.02886 0.03152 0.0
O168 O 0.53092 0.08166 0.83231 0.0
O169 O 0.52332 0.05151 0.72104 0.0
O170 O 0.47441 1.02071 0.71007 0.0
O171 O 0.48525 0.02502 0.89403 0.0
O172 O 0.53066 0.99474 0.49376 0.0
O173 O 0.4933 1.01955 0.50315 0.0
O174 O 0.51626 0.96674 0.70165 0.0
O175 O 0.52408 0.99674 0.81359 0.0
H176 H 0.54689 0.09817 0.02151 0.0
H177 H 0.56688 0.04175 0.27939 0.0
H178 H 0.60239 0.07282 0.34355 0.0
H179 H 0.5823 0.12951 0.08555 0.0
H180 H 0.49963 0.95043 0.51261 0.0
H181 H 0.48141 1.00694 0.2531 0.0
H182 H 0.44594 0.97624 0.18638 0.0
H183 H 0.46429 0.91937 0.44589 0.0
Gd184 Gd 0.50497 0.53062 0.87122 0.0
Gd185 Gd 0.53942 0.51654 0.65283 0.0
C186 C 0.51905 0.57925 0.70069 0.0
C187 C 0.4895 0.5432 0.0644 0.0
C188 C 0.46684 0.55961 0.10658 0.0
C189 C 0.44239 0.5625 0.04711 0.0
C190 C 0.47071 0.5746 0.20221 0.0
C191 C 0.42754 0.59825 0.17092 0.0
C192 C 0.45122 0.59369 0.23437 0.0
C193 C 0.42279 0.58165 0.07934 0.0
C194 C 0.47074 0.52162 0.69583 0.0
C195 C 0.52618 0.46807 0.82484 0.0
C196 C 0.55649 0.50481 0.46117 0.0
C197 C 0.57972 0.48839 0.42373 0.0
C198 C 0.60401 0.48686 0.48536 0.0
C199 C 0.5761 0.47112 0.33428 0.0
C200 C 0.6192 0.4484 0.3764 0.0
C201 C 0.59552 0.45115 0.31145 0.0
C202 C 0.6237 0.46701 0.46156 0.0
C203 C 0.57295 0.52495 0.83041 0.0
O204 O 0.51325 0.57301 0.80344 0.0
O205 O 0.52566 0.56039 0.6273 0.0
O206 O 0.48271 0.52009 0.01696 0.0
O207 O 0.50827 0.55709 0.01156 0.0
O208 O 0.46244 0.52761 0.79325 0.0
O209 O 0.49651 0.52098 0.69965 0.0
O210 O 0.53132 0.4741 0.72124 0.0
O211 O 0.51957 0.48707 0.89773 0.0
O212 O 0.56266 0.52785 0.51046 0.0
O213 O 0.53705 0.49084 0.50989 0.0
O214 O 0.58185 0.51804 0.73502 0.0
O215 O 0.54739 0.5264 0.8229 0.0
H216 H 0.43901 0.55093 0.97305 0.0
H217 H 0.48944 0.57254 0.2491 0.0
H218 H 0.45577 0.60621 0.3049 0.0
H219 H 0.40468 0.5845 0.02953 0.0
H220 H 0.60717 0.50003 0.55518 0.0
H221 H 0.55742 0.47187 0.28646 0.0
H222 H 0.59108 0.43672 0.24682 0.0
H223 H 0.6416 0.46519 0.51339 0.0
Gd224 Gd 1.0194 0.50484 0.87873 0.0
Gd225 Gd 0.02847 0.53788 0.65522 0.0
C226 C 0.96599 0.51935 0.72799 0.0
C227 C 1.01298 0.49011 0.07741 0.0
C228 C 0.99311 0.47059 0.12003 0.0
C229 C 0.98269 0.45073 0.048 0.0
C230 C 0.97757 0.47856 0.21021 0.0
C231 C 0.93815 0.45684 0.12771 0.0
C232 C 0.95 0.47132 0.21482 0.0
C233 C 0.95494 0.44428 0.05043 0.0
C234 C 1.02178 0.46963 0.7047 0.0
C235 C 0.08187 0.52397 0.80672 0.0
C236 C 0.03497 0.55238 0.45637 0.0
C237 C 0.05392 0.57277 0.4135 0.0
C238 C 0.06255 0.59401 0.48299 0.0
C239 C 0.06998 0.56562 0.32369 0.0
C240 C 0.10709 0.59234 0.39989 0.0
C241 C 0.09661 0.57566 0.31629 0.0
C242 C 0.08937 0.6035 0.47726 0.0
C243 C 0.02531 0.57317 0.82876 0.0
O244 O 0.97477 0.51074 0.82511 0.0
O245 O 0.98305 0.52817 0.65157 0.0
O246 O 0.03224 0.47988 0.01522 0.0
O247 O 1.00147 0.51209 0.03626 0.0
O248 O 1.01751 0.4622 0.80443 0.0
O249 O 0.02424 0.49532 0.70528 0.0
O250 O 0.07303 0.53275 0.71001 0.0
O251 O 0.06491 0.51451 0.88234 0.0
O252 O 1.01503 0.56186 0.51705 0.0
O253 O 0.04735 0.53105 0.49899 0.0
O254 O 0.0295 0.58062 0.72896 0.0
O255 O 1.02343 0.54743 0.82856 0.0
H256 H 0.99459 0.44378 0.97915 0.0
H257 H 0.9854 0.49365 0.26709 0.0
H258 H 0.93715 0.48109 0.27539 0.0
H259 H 0.94606 0.43301 0.98298 0.0
H260 H 0.05019 0.60026 0.55165 0.0
H261 H 0.06352 0.54944 0.26889 0.0
H262 H 0.1102 0.56688 0.2559 0.0
H263 H 0.09723 0.61635 0.54221 0.0
C264 C 0.2016 0.04958 0.29104 0.0
C265 C 0.20761 0.02439 0.24165 0.0
C266 C 0.17714 0.05323 0.35138 0.0
C267 C 0.1588 0.03092 0.36532 0.0
C268 C 0.16446 1.006 0.31114 0.0
C269 C 0.18813 1.00341 0.24726 0.0
C270 C 0.172 0.08027 0.40672 0.0
C271 C 0.14688 0.98112 0.32881 0.0
C272 C 0.1183 1.01875 0.62535 0.0
C273 C 0.09119 0.02401 0.59296 0.0
C274 C 0.1405 0.02284 0.55449 0.0
C275 C 0.13571 0.03187 0.44653 0.0
C276 C 0.10841 0.03797 0.41393 0.0
C277 C 0.08649 0.03433 0.48803 0.0
C278 C 0.16907 1.01618 0.59404 0.0
C279 C 0.10231 0.04729 0.29945 0.0
H280 H 0.21669 0.06582 0.2879 0.0
H281 H 0.19269 0.98399 0.20869 0.0
H282 H 0.15019 0.08631 0.39825 0.0
H283 H 0.17647 0.07834 0.495 0.0
H284 H 0.18514 0.09675 0.37294 0.0
H285 H 0.15317 0.96389 0.27574 0.0
H286 H 0.14863 0.97428 0.41461 0.0
H287 H 0.12511 0.98625 0.31405 0.0
H288 H 0.12224 1.0111 0.70671 0.0
H289 H 0.06563 0.03846 0.46246 0.0
H290 H 0.18315 0.03348 0.57741 0.0
H291 H 0.17704 0.99811 0.54948 0.0
H292 H 0.16964 1.01166 0.68266 0.0
H293 H 0.11427 0.06601 0.28091 0.0
H294 H 0.08019 0.05162 0.28672 0.0
H295 H 0.10876 0.03132 0.24056 0.0
C296 C 0.55212 0.19271 0.29569 0.0
C297 C 0.53105 0.21183 0.28135 0.0
C298 C 0.54847 0.16934 0.36015 0.0
C299 C 0.5224 0.16342 0.40454 0.0
C300 C 0.50011 0.18104 0.37953 0.0
C301 C 0.50481 0.20539 0.32009 0.0
C302 C 0.57332 0.15279 0.39062 0.0
C303 C 0.47177 0.1752 0.42204 0.0
C304 C 0.51757 0.09235 0.53586 0.0
C305 C 0.52279 0.09851 0.6456 0.0
C306 C 0.516 0.11332 0.45677 0.0
C307 C 0.51987 0.14107 0.48805 0.0
C308 C 0.52463 0.14725 0.59929 0.0
C309 C 0.52591 0.12602 0.67615 0.0
C310 C 0.5108 0.10582 0.3394 0.0
C311 C 0.52949 0.1763 0.63695 0.0
H312 H 0.57233 0.19752 0.26474 0.0
H313 H 0.48841 0.22008 0.30958 0.0
H314 H 0.57889 0.15708 0.47663 0.0
H315 H 0.56896 0.13061 0.38434 0.0
H316 H 0.59119 0.15803 0.33905 0.0
H317 H 0.45596 0.18747 0.37899 0.0
H318 H 0.46676 0.15316 0.41311 0.0
H319 H 0.47088 0.18028 0.51004 0.0
H320 H 0.51511 0.07118 0.5116 0.0
H321 H 0.52989 0.13101 0.76079 0.0
H322 H 0.52791 0.11319 0.28795 0.0
H323 H 0.4919 0.11612 0.31034 0.0
H324 H 0.50852 0.08339 0.32757 0.0
H325 H 0.54812 0.18464 0.59737 0.0
H326 H 0.53215 0.17779 0.72665 0.0
H327 H 0.51205 0.18948 0.61265 0.0
C328 C 0.36019 0.48036 0.23036 0.0
C329 C 0.34543 0.50387 0.20123 0.0
C330 C 0.38379 0.48193 0.29697 0.0
C331 C 0.3931 0.50772 0.33525 0.0
C332 C 0.37958 0.53166 0.29782 0.0
C333 C 0.35603 0.52944 0.23141 0.0
C334 C 0.39692 0.45577 0.33559 0.0
C335 C 0.38819 0.55961 0.33686 0.0
C336 C 0.42366 0.51469 0.62086 0.0
C337 C 0.45195 0.51665 0.60137 0.0
C338 C 0.40469 0.51094 0.53566 0.0
C339 C 0.4139 0.50961 0.42637 0.0
C340 C 0.44256 0.51106 0.40598 0.0
C341 C 0.46125 0.51442 0.49366 0.0
C342 C 0.37462 0.50844 0.56313 0.0
C343 C 0.45366 0.50878 0.29198 0.0
H344 H 0.35166 0.46055 0.20964 0.0
H345 H 0.34431 0.54761 0.21188 0.0
H346 H 0.41951 0.45696 0.32803 0.0
H347 H 0.39213 0.45268 0.42304 0.0
H348 H 0.38948 0.43768 0.28923 0.0
H349 H 0.38019 0.57595 0.28283 0.0
H350 H 0.37992 0.56321 0.41968 0.0
H351 H 0.41083 0.56114 0.34201 0.0
H352 H 0.41621 0.51611 0.70378 0.0
H353 H 0.48304 0.5157 0.47766 0.0
H354 H 0.36591 0.48967 0.52558 0.0
H355 H 0.36321 0.52612 0.52941 0.0
H356 H 0.37098 0.50767 0.65235 0.0
H357 H 0.47465 0.51742 0.28604 0.0
H358 H 0.44006 0.5192 0.23267 0.0
H359 H 0.45476 0.4869 0.26854 0.0
C360 C 0.03813 0.34385 0.28605 0.0
C361 C 1.01433 0.34082 0.22279 0.0
C362 C 0.04241 0.3675 0.3505 0.0
C363 C 1.02191 0.38809 0.35545 0.0
C364 C 0.99867 0.38567 0.28675 0.0
C365 C 0.9957 0.36264 0.21896 0.0
C366 C 0.06796 0.36952 0.41925 0.0
C367 C 0.97546 0.40589 0.29286 0.0
C368 C 1.01128 0.42359 0.62898 0.0
C369 C 1.0215 0.45007 0.6111 0.0
C370 C 1.01141 0.40354 0.5469 0.0
C371 C 1.0225 0.40967 0.44329 0.0
C372 C 0.03277 0.43648 0.42395 0.0
C373 C 0.03207 0.45641 0.50799 0.0
C374 C 0.99939 0.37572 0.57134 0.0
C375 C 0.04502 0.44395 0.31537 0.0
H376 H 0.05259 0.3271 0.29024 0.0
H377 H 0.9775 0.3606 0.16896 0.0
H378 H 0.07663 0.39049 0.41524 0.0
H379 H 0.06281 0.36532 0.50557 0.0
H380 H 0.08384 0.35466 0.39292 0.0
H381 H 0.96148 0.40417 0.22174 0.0
H382 H 0.96336 0.40196 0.36762 0.0
H383 H 0.98342 0.42703 0.29848 0.0
H384 H 1.00296 0.41844 0.70814 0.0
H385 H 0.04027 0.47665 0.49366 0.0
H386 H 1.01539 0.35976 0.56277 0.0
H387 H 0.98289 0.37084 0.5121 0.0
H388 H 0.99077 0.37447 0.65485 0.0
H389 H 0.06518 0.4337 0.30683 0.0
H390 H 0.04806 0.46637 0.30702 0.0
H391 H 0.03184 0.43666 0.24756 0.0
C392 C 0.84694 0.99946 0.27229 0.0
C393 C 0.84034 0.02671 0.29723 0.0
C394 C 0.87124 0.99292 0.21524 0.0
C395 C 0.88851 1.0142 0.17675 0.0
C396 C 0.8823 0.04157 0.20517 0.0
C397 C 0.85918 0.04725 0.26927 0.0
C398 C 0.8777 0.96335 0.19185 0.0
C399 C 0.89887 0.06511 0.16065 0.0
C400 C 0.96094 1.00632 0.0613 0.0
C401 C 0.95579 1.00525 0.94907 0.0
C402 C 0.93921 1.00741 0.13693 0.0
C403 C 0.91168 1.00855 0.09936 0.0
C404 C 0.90651 1.00726 0.98576 0.0
C405 C 0.92854 1.00509 0.91246 0.0
C406 C 0.94567 1.00743 0.25701 0.0
C407 C 0.87776 1.00959 0.94097 0.0
H408 H 0.83263 0.98338 0.29309 0.0
H409 H 0.85471 0.06824 0.29119 0.0
H410 H 0.87263 0.95857 0.10582 0.0
H411 H 0.89988 0.95929 0.20372 0.0
H412 H 0.86577 0.94934 0.24486 0.0
H413 H 0.89113 0.08523 0.18918 0.0
H414 H 0.92069 0.06297 0.18433 0.0
H415 H 0.89804 0.06488 0.07032 0.0
H416 H 0.98197 1.00621 0.08988 0.0
H417 H 0.92445 1.00453 0.82566 0.0
H418 H 0.93779 0.98829 0.29403 0.0
H419 H 0.93515 0.02465 0.29791 0.0
H420 H 0.96801 1.00895 0.27341 0.0
H421 H 0.86465 0.99315 0.97462 0.0
H422 H 0.87718 1.00828 0.85066 0.0
H423 H 0.86866 0.02941 0.96619 0.0
C424 C 0.49314 0.85496 0.23493 0.0
C425 C 0.51402 0.83566 0.24966 0.0
C426 C 0.49703 0.87828 0.17035 0.0
C427 C 0.52318 0.884 0.12635 0.0
C428 C 0.54527 0.86612 0.15118 0.0
C429 C 0.54032 0.84181 0.21059 0.0
C430 C 0.47237 0.89511 0.13991 0.0
C431 C 0.57369 0.87171 0.10897 0.0
C432 C 0.52052 0.92216 0.85624 0.0
C433 C 0.524 0.94955 0.88789 0.0
C434 C 0.52138 0.90072 0.93226 0.0
C435 C 0.52606 0.90655 0.04382 0.0
C436 C 0.53027 0.93417 0.07627 0.0
C437 C 0.52913 0.95537 0.99798 0.0
C438 C 0.51617 0.87183 0.89331 0.0
C439 C 0.53541 0.94131 0.19404 0.0
H440 H 0.47293 0.85051 0.26665 0.0
H441 H 0.5566 0.82702 0.22135 0.0
H442 H 0.47697 0.91723 0.14642 0.0
H443 H 0.46679 0.89093 0.05382 0.0
H444 H 0.45441 0.89003 0.1913 0.0
H445 H 0.58934 0.85911 0.15144 0.0
H446 H 0.57453 0.8669 0.02073 0.0
H447 H 0.57898 0.89365 0.11895 0.0
H448 H 0.5166 0.91741 0.77134 0.0
H449 H 0.53188 0.97645 0.0231 0.0
H450 H 0.49739 0.86364 0.93222 0.0
H451 H 0.53341 0.85836 0.91735 0.0
H452 H 0.51359 0.87061 0.80351 0.0
H453 H 0.5181 0.93409 0.24475 0.0
H454 H 0.53804 0.96366 0.2068 0.0
H455 H 0.55409 0.93062 0.22317 0.0
C456 C 0.68213 0.53937 0.3311 0.0
C457 C 0.70754 0.53273 0.28502 0.0
C458 C 0.6575 0.53637 0.27053 0.0
C459 C 0.65845 0.5283 0.15898 0.0
C460 C 0.68414 0.5208 0.11409 0.0
C461 C 0.70784 0.52193 0.179 0.0
C462 C 0.63063 0.5425 0.32575 0.0
C463 C 0.68748 0.51236 0.99636 0.0
C464 C 0.59909 0.50272 0.98051 0.0
C465 C 0.59029 0.52674 0.9296 0.0
C466 C 0.6202 0.50311 0.0591 0.0
C467 C 0.6331 0.52815 0.088 0.0
C468 C 0.62386 0.55261 0.03738 0.0
C469 C 0.6025 0.5516 0.95944 0.0
C470 C 0.63009 0.47628 0.10382 0.0
C471 C 0.63815 0.5795 0.05805 0.0
H472 H 0.68157 0.54758 0.41307 0.0
H473 H 0.72726 0.51601 0.14374 0.0
H474 H 0.62479 0.56404 0.31008 0.0
H475 H 0.614 0.52912 0.2943 0.0
H476 H 0.63223 0.53979 0.41535 0.0
H477 H 0.70687 0.52075 0.96273 0.0
H478 H 0.68902 0.48975 0.99176 0.0
H479 H 0.67039 0.51916 0.94339 0.0
H480 H 0.59034 0.48333 0.95488 0.0
H481 H 0.5964 0.57009 0.91721 0.0
H482 H 0.63699 0.47844 0.18951 0.0
H483 H 0.64773 0.46905 0.05499 0.0
H484 H 0.61391 0.46038 0.09791 0.0
H485 H 0.63711 0.58483 0.14564 0.0
H486 H 0.62905 0.59651 0.01031 0.0
H487 H 0.66016 0.57766 0.03634 0.0
C488 C 1.00506 0.69704 0.25619 0.0
C489 C 0.03018 0.70214 0.30806 0.0
C490 C 1.00105 0.67307 0.19336 0.0
C491 C 1.0229 0.65417 0.17985 0.0
C492 C 0.04745 0.65839 0.23936 0.0
C493 C 0.05051 0.68192 0.3042 0.0
C494 C 0.97424 0.66909 0.13431 0.0
C495 C 0.07169 0.63964 0.22552 0.0
C496 C 1.01558 0.58562 0.02677 0.0
C497 C 0.02437 0.59285 0.92195 0.0
C498 C 1.01431 0.60533 0.11147 0.0
C499 C 1.02211 0.63288 0.09096 0.0
C500 C 0.03102 0.64007 0.98508 0.0
C501 C 0.03188 0.62014 0.90259 0.0
C502 C 1.00413 0.59671 0.22205 0.0
C503 C 0.0401 0.66888 0.9588 0.0
H504 H 0.98934 0.71267 0.25824 0.0
H505 H 0.06995 0.68586 0.34417 0.0
H506 H 0.97706 0.67352 0.04645 0.0
H507 H 0.96728 0.64755 0.14142 0.0
H508 H 0.95799 0.6828 0.16641 0.0
H509 H 0.08717 0.64261 0.29087 0.0
H510 H 0.06497 0.61802 0.2245 0.0
H511 H 0.08164 0.6439 0.14617 0.0
H512 H 1.0094 0.56474 0.04235 0.0
H513 H 0.03873 0.62604 0.82203 0.0
H514 H 0.98264 0.60367 0.23189 0.0
H515 H 1.01639 0.60631 0.28799 0.0
H516 H 1.00465 0.57414 0.23214 0.0
H517 H 0.04623 0.67124 0.87224 0.0
H518 H 0.05775 0.67468 0.0111 0.0
H519 H 1.0233 0.68351 0.97615 0.0
C520 C 0.96631 0.23949 0.27484 0.0
C521 C 0.96289 0.25485 0.18055 0.0
C522 C 0.95134 0.21553 0.29067 0.0
C523 C 0.93052 0.2083 0.21453 0.0
C524 C 0.92448 0.2262 0.12687 0.0
C525 C 0.94146 0.24894 0.10881 0.0
C526 C 0.95972 0.1971 0.38393 0.0
C527 C 0.90127 0.22095 0.0484 0.0
C528 C 0.93499 0.13331 0.19006 0.0
C529 C 0.92493 0.12646 0.29297 0.0
C530 C 0.93288 0.16006 0.15164 0.0
C531 C 0.91968 0.17995 0.21697 0.0
C532 C 0.90381 0.17134 0.30687 0.0
C533 C 0.90722 0.14464 0.34635 0.0
C534 C 0.94714 0.16729 0.04692 0.0
C535 C 0.88579 0.19096 0.36861 0.0
H536 H 0.98252 0.2451 0.33115 0.0
H537 H 0.93839 0.26174 0.03786 0.0
H538 H 0.94352 0.19704 0.44691 0.0
H539 H 0.9627 0.17577 0.35541 0.0
H540 H 0.97906 0.20392 0.42346 0.0
H541 H 0.88887 0.23985 0.03911 0.0
H542 H 0.90972 0.21607 0.96681 0.0
H543 H 0.88757 0.20411 0.07491 0.0
H544 H 0.94684 0.11842 0.14462 0.0
H545 H 0.89807 0.13904 0.42352 0.0
H546 H 0.96029 0.18559 0.05691 0.0
H547 H 0.93149 0.17196 0.98413 0.0
H548 H 0.96 0.15022 0.01629 0.0
H549 H 0.8956 0.19648 0.44716 0.0
H550 H 0.86598 0.18093 0.38823 0.0
H551 H 0.88168 0.2099 0.32154 0.0
C552 C 0.29535 0.94959 0.19741 0.0
C553 C 0.29681 0.97779 0.21555 0.0
C554 C 0.31786 0.93275 0.22073 0.0
C555 C 0.34216 0.94471 0.26226 0.0
C556 C 0.34283 0.97315 0.28688 0.0
C557 C 0.32008 0.98928 0.26256 0.0
C558 C 0.3156 0.90254 0.19744 0.0
C559 C 0.36751 0.98692 0.33799 0.0
C560 C 0.40813 0.92506 0.38222 0.0
C561 C 0.42488 0.93208 0.29353 0.0
C562 C 0.37969 0.92313 0.36898 0.0
C563 C 0.36821 0.92927 0.2664 0.0
C564 C 0.38529 0.93009 0.17362 0.0
C565 C 0.41366 0.93161 0.18836 0.0
C566 C 0.36188 0.9186 0.46744 0.0
C567 C 0.3736 0.93277 0.06038 0.0
H568 H 0.27683 0.94091 0.16275 0.0
H569 H 0.32041 1.01107 0.27905 0.0
H570 H 0.31838 0.89903 0.10887 0.0
H571 H 0.33108 0.89037 0.24257 0.0
H572 H 0.29485 0.89496 0.219 0.0
H573 H 0.3688 0.98117 0.42513 0.0
H574 H 0.38681 0.98039 0.29855 0.0
H575 H 0.36624 1.00958 0.33358 0.0
H576 H 0.41653 0.92428 0.4639 0.0
H577 H 0.42672 0.93523 0.1186 0.0
H578 H 0.34171 0.90982 0.444 0.0
H579 H 0.35829 0.93839 0.50934 0.0
H580 H 0.37212 0.9047 0.52628 0.0
H581 H 0.36259 0.91367 0.03877 0.0
H582 H 0.38971 0.93646 0.9983 0.0
H583 H 0.35858 0.94972 0.05698 0.0
C584 C 0.56921 0.32511 0.30099 0.0
C585 C 0.57966 0.30011 0.26646 0.0
C586 C 0.58675 0.34646 0.33002 0.0
C587 C 0.6156 0.34248 0.32478 0.0
C588 C 0.62622 0.31665 0.29472 0.0
C589 C 0.608 0.29575 0.26483 0.0
C590 C 0.57417 0.3733 0.36524 0.0
C591 C 0.65655 0.31079 0.29209 0.0
C592 C 0.63995 0.41168 0.26406 0.0
C593 C 0.6353 0.4229 0.36744 0.0
C594 C 0.63864 0.38337 0.24881 0.0
C595 C 0.63368 0.36652 0.34008 0.0
C596 C 0.63694 0.37739 0.44595 0.0
C597 C 0.63724 0.40587 0.45901 0.0
C598 C 0.63728 0.3722 0.13441 0.0
C599 C 0.63515 0.35937 0.54512 0.0
H600 H 0.54719 0.32784 0.30486 0.0
H601 H 0.61583 0.276 0.23946 0.0
H602 H 0.58298 0.39046 0.31818 0.0
H603 H 0.55156 0.37357 0.35456 0.0
H604 H 0.57868 0.37706 0.4525 0.0
H605 H 0.66358 0.31049 0.20622 0.0
H606 H 0.66879 0.3261 0.33797 0.0
H607 H 0.66071 0.2902 0.32642 0.0
H608 H 0.64007 0.42492 0.19361 0.0
H609 H 0.63488 0.41439 0.54002 0.0
H610 H 0.61601 0.36555 0.11652 0.0
H611 H 0.65076 0.35409 0.12655 0.0
H612 H 0.64342 0.38764 0.07279 0.0
H613 H 0.61339 0.35703 0.56938 0.0
H614 H 0.64643 0.36859 0.61481 0.0
H615 H 0.64358 0.33872 0.52794 0.0
C616 C 0.22363 0.50792 0.26689 0.0
C617 C 0.25073 0.51528 0.28713 0.0
C618 C 0.20227 0.52293 0.31339 0.0
C619 C 0.20854 0.54406 0.38945 0.0
C620 C 0.23586 0.54852 0.42241 0.0
C621 C 0.25674 0.53494 0.36711 0.0
C622 C 0.17348 0.51677 0.27442 0.0
C623 C 0.24333 0.5689 0.51002 0.0
C624 C 0.15669 0.59997 0.37181 0.0
C625 C 0.1356 0.58773 0.4302 0.0
C626 C 0.18273 0.58802 0.37067 0.0
C627 C 0.18674 0.56276 0.42566 0.0
C628 C 0.16645 0.55261 0.49653 0.0
C629 C 0.14097 0.56545 0.49857 0.0
C630 C 0.205 0.60186 0.30543 0.0
C631 C 0.17066 0.52641 0.55944 0.0
H632 H 0.21922 0.4923 0.20657 0.0
H633 H 0.27782 0.54068 0.38293 0.0
H634 H 0.15834 0.53289 0.29378 0.0
H635 H 0.17337 0.51406 0.18497 0.0
H636 H 0.16651 0.49716 0.31042 0.0
H637 H 0.24718 0.58912 0.47225 0.0
H638 H 0.22672 0.57115 0.57105 0.0
H639 H 0.26241 0.56264 0.5527 0.0
H640 H 0.15231 0.61757 0.32104 0.0
H641 H 0.1243 0.55617 0.54371 0.0
H642 H 0.19626 0.6137 0.23649 0.0
H643 H 0.22036 0.58736 0.27278 0.0
H644 H 0.21584 0.61659 0.35915 0.0
H645 H 0.17225 0.5088 0.50299 0.0
H646 H 0.1535 0.52205 0.61569 0.0
H647 H 0.19019 0.52748 0.60571 0.0
C648 C 0.10548 0.78942 0.31429 0.0
C649 C 0.0769 0.7913 0.31036 0.0
C650 C 0.12188 0.81113 0.27813 0.0
C651 C 0.1091 0.83518 0.23917 0.0
C652 C 0.08007 0.83658 0.2319 0.0
C653 C 0.0644 0.81448 0.26733 0.0
C654 C 0.1526 0.8082 0.28415 0.0
C655 C 0.06532 0.86141 0.1875 0.0
C656 C 0.12844 0.90733 0.27523 0.0
C657 C 0.12551 0.91581 0.16688 0.0
C658 C 0.12814 0.87952 0.30109 0.0
C659 C 0.125 0.86023 0.21611 0.0
C660 C 0.12823 0.86854 0.10677 0.0
C661 C 0.12805 0.89654 0.0828 0.0
C662 C 0.12683 0.8711 0.4191 0.0
C663 C 0.12767 0.84812 0.0147 0.0
H664 H 0.11489 0.77106 0.34651 0.0
H665 H 0.04223 0.81522 0.26212 0.0
H666 H 0.16341 0.8226 0.22925 0.0
H667 H 0.15945 0.81207 0.36901 0.0
H668 H 0.15877 0.78698 0.26299 0.0
H669 H 0.04283 0.86033 0.20062 0.0
H670 H 0.07309 0.88045 0.22585 0.0
H671 H 0.06901 0.86301 0.09867 0.0
H672 H 0.12769 0.92234 0.34024 0.0
H673 H 0.12663 0.90299 0.99855 0.0
H674 H 0.1428 0.85556 0.43609 0.0
H675 H 0.10668 0.86159 0.43629 0.0
H676 H 0.1298 0.88865 0.47548 0.0
H677 H 0.13712 0.82845 0.03986 0.0
H678 H 0.13863 0.85614 0.94224 0.0
H679 H 0.10613 0.84403 0.99063 0.0
C680 C 0.75203 0.10167 0.33282 0.0
C681 C 0.75083 0.07331 0.31906 0.0
C682 C 0.72938 0.11807 0.30685 0.0
C683 C 0.70523 0.10548 0.26695 0.0
C684 C 0.70485 0.07684 0.2464 0.0
C685 C 0.72772 0.06115 0.27347 0.0
C686 C 0.73136 0.14849 0.32555 0.0
C687 C 0.68036 0.06242 0.19676 0.0
C688 C 0.63366 0.11834 0.34023 0.0
C689 C 0.62234 0.11722 0.23533 0.0
C690 C 0.66201 0.1202 0.35436 0.0
C691 C 0.679 0.12057 0.26126 0.0
C692 C 0.66739 0.12593 0.1582 0.0
C693 C 0.63895 0.12378 0.14567 0.0
C694 C 0.67384 0.11818 0.46757 0.0
C695 C 0.68507 0.12986 0.05897 0.0
H696 H 0.77046 0.11085 0.36615 0.0
H697 H 0.72763 0.03922 0.26018 0.0
H698 H 0.71559 0.16007 0.27957 0.0
H699 H 0.72888 0.1528 0.41371 0.0
H700 H 0.75195 0.15607 0.30168 0.0
H701 H 0.68192 0.03982 0.20354 0.0
H702 H 0.66097 0.06898 0.23551 0.0
H703 H 0.67899 0.06758 0.10905 0.0
H704 H 0.62068 0.11491 0.41044 0.0
H705 H 0.63043 0.12399 0.06412 0.0
H706 H 0.68539 0.13714 0.48642 0.0
H707 H 0.68842 0.10087 0.47254 0.0
H708 H 0.65777 0.1154 0.53056 0.0
H709 H 0.67471 0.14331 0.99883 0.0
H710 H 0.6887 0.10981 0.01915 0.0
H711 H 0.70522 0.13888 0.08108 0.0
C712 C 0.43697 0.75109 0.29335 0.0
C713 C 0.46522 0.74756 0.28053 0.0
C714 C 0.41872 0.72966 0.27015 0.0
C715 C 0.42929 0.70424 0.23445 0.0
C716 C 0.45796 0.70119 0.21726 0.0
C717 C 0.4755 0.72297 0.24084 0.0
C718 C 0.38847 0.73449 0.28575 0.0
C719 C 0.47036 0.67501 0.17382 0.0
C720 C 0.40891 0.63379 0.29565 0.0
C721 C 0.41148 0.62354 0.18945 0.0
C722 C 0.40947 0.66204 0.31393 0.0
C723 C 0.41161 0.67975 0.22345 0.0
C724 C 0.40616 0.66954 0.11802 0.0
C725 C 0.40667 0.6412 0.10135 0.0
C726 C 0.41294 0.6725 0.42861 0.0
C727 C 0.4048 0.68834 0.02105 0.0
H728 H 0.42926 0.77053 0.32271 0.0
H729 H 0.49739 0.72091 0.22855 0.0
H730 H 0.3756 0.71916 0.24285 0.0
H731 H 0.38369 0.7338 0.37401 0.0
H732 H 0.38281 0.75521 0.25629 0.0
H733 H 0.4931 0.67514 0.17802 0.0
H734 H 0.46277 0.65705 0.21956 0.0
H735 H 0.46437 0.67224 0.08736 0.0
H736 H 0.41084 0.61996 0.3642 0.0
H737 H 0.40728 0.63349 0.01859 0.0
H738 H 0.39862 0.68968 0.44367 0.0
H739 H 0.43407 0.6804 0.43908 0.0
H740 H 0.40928 0.65632 0.49034 0.0
H741 H 0.39609 0.70851 0.04412 0.0
H742 H 0.3922 0.67919 0.95488 0.0
H743 H 0.42575 0.69172 0.9888 0.0
C744 C 0.79507 0.52862 0.14659 0.0
C745 C 0.80048 0.5435 0.2425 0.0
C746 C 0.81605 0.51615 0.08802 0.0
C747 C 0.84283 0.51707 0.1304 0.0
C748 C 0.84901 0.53473 0.21937 0.0
C749 C 0.82759 0.54817 0.2733 0.0
C750 C 0.80892 0.49967 0.98789 0.0
C751 C 0.87756 0.53811 0.26532 0.0
C752 C 0.88766 0.45523 0.14501 0.0
C753 C 0.91088 0.46562 0.0943 0.0
C754 C 0.86326 0.4702 0.14336 0.0
C755 C 0.86313 0.49657 0.09477 0.0
C756 C 0.88529 0.50491 0.02928 0.0
C757 C 0.90915 0.48923 0.03 0.0
C758 C 0.83829 0.45783 0.1965 0.0
C759 C 0.88483 0.53186 0.9697 0.0
H760 H 0.77421 0.52461 0.12174 0.0
H761 H 0.83181 0.56022 0.34555 0.0
H762 H 0.82629 0.49896 0.9299 0.0
H763 H 0.80381 0.47844 0.01215 0.0
H764 H 0.79076 0.50837 0.94569 0.0
H765 H 0.89402 0.52967 0.2137 0.0
H766 H 0.88185 0.56016 0.27891 0.0
H767 H 0.87877 0.52786 0.34547 0.0
H768 H 0.88909 0.43645 0.19156 0.0
H769 H 0.92738 0.49696 0.99003 0.0
H770 H 0.82726 0.44533 0.13495 0.0
H771 H 0.82386 0.47336 0.22753 0.0
H772 H 0.84407 0.44393 0.26421 0.0
H773 H 0.86549 0.53368 0.92274 0.0
H774 H 0.90253 0.5342 0.91391 0.0
H775 H 0.88539 0.549 0.02898 0.0
C776 C 1.01749 0.24414 0.94129 0.0
C777 C 1.01421 0.24651 0.05436 0.0
C778 C 1.02171 0.21837 0.89091 0.0
C779 C 1.02062 0.1939 0.95395 0.0
C780 C 1.01776 0.19653 0.06893 0.0
C781 C 1.01596 0.22265 0.11704 0.0
C782 C 0.02685 0.21788 0.76989 0.0
C783 C 1.01571 0.17206 0.14362 0.0
C784 C 1.00137 0.1267 0.80631 0.0
C785 C 1.02294 0.10934 0.83685 0.0
C786 C 1.00077 0.15453 0.83872 0.0
C787 C 1.02263 0.16571 0.90221 0.0
C788 C 0.04563 0.14869 0.92391 0.0
C789 C 0.04514 0.12082 0.89387 0.0
C790 C 0.97648 0.17142 0.80308 0.0
C791 C 0.0711 0.15939 0.97954 0.0
H792 H 1.01638 0.26245 0.89184 0.0
H793 H 1.01497 0.22431 0.20473 0.0
H794 H 0.03623 0.19845 0.74189 0.0
H795 H 1.00716 0.22096 0.7263 0.0
H796 H 0.04054 0.23505 0.74653 0.0
H797 H 1.00104 0.17619 0.21068 0.0
H798 H 1.00897 0.1532 0.10111 0.0
H799 H 0.03596 0.16834 0.1819 0.0
H800 H 0.98439 0.11835 0.75987 0.0
H801 H 0.06245 0.10798 0.9151 0.0
H802 H 0.97989 0.17832 0.71813 0.0
H803 H 0.97308 0.18969 0.85479 0.0
H804 H 0.95748 0.15889 0.80262 0.0
H805 H 0.07244 0.18204 0.97899 0.0
H806 H 0.08966 0.15107 0.93911 0.0
H807 H 0.07155 0.15207 0.06497 0.0
C808 C 0.31366 0.04545 0.05288 0.0
C809 C 0.29872 1.02098 0.04646 0.0
C810 C 0.33946 0.04814 1.00127 0.0
C811 C 0.35099 0.02566 0.9437 0.0
C812 C 0.33491 1.00168 0.93048 0.0
C813 C 0.30913 0.9997 0.98173 0.0
C814 C 0.35488 0.07475 0.01184 0.0
C815 C 0.34491 0.97785 0.86317 0.0
C816 C 0.41653 0.03013 0.76863 0.0
C817 C 0.43714 0.02348 0.84438 0.0
C818 C 0.3886 0.03182 0.79962 0.0
C819 C 0.38074 0.026 0.90859 0.0
C820 C 0.40152 1.01911 0.98477 0.0
C821 C 0.42919 1.0181 0.95222 0.0
C822 C 0.3677 0.03971 0.71471 0.0
C823 C 0.39449 1.01175 0.10057 0.0
H824 H 0.30582 0.06196 0.10278 0.0
H825 H 0.29743 0.98092 0.97501 0.0
H826 H 0.37236 0.07215 0.06872 0.0
H827 H 0.36338 0.08089 0.93171 0.0
H828 H 0.34163 0.09148 0.04306 0.0
H829 H 0.34209 0.98268 0.77568 0.0
H830 H 0.36704 0.97394 0.87687 0.0
H831 H 0.33328 0.95883 0.88075 0.0
H832 H 0.42224 0.03452 0.6852 0.0
H833 H 0.44469 1.01266 0.01177 0.0
H834 H 0.3502 0.05098 0.75088 0.0
H835 H 0.35968 1.02092 0.6752 0.0
H836 H 0.37704 0.05258 0.65018 0.0
H837 H 0.3803 0.02689 0.13679 0.0
H838 H 0.41291 1.01049 0.15342 0.0
H839 H 0.38395 0.99168 0.10084 0.0
C840 C 0.55931 0.31473 0.03379 0.0
C841 C 0.5372 0.30326 0.09094 0.0
C842 C 0.55716 0.34034 0.98153 0.0
C843 C 0.53208 0.35497 0.98447 0.0
C844 C 0.5092 0.34271 0.03683 0.0
C845 C 0.51207 0.31716 0.08977 0.0
C846 C 0.58208 0.35211 0.92606 0.0
C847 C 0.48196 0.3572 0.04134 0.0
C848 C 0.53445 0.43338 0.9727 0.0
C849 C 0.52824 0.439 0.8632 0.0
C850 C 0.53592 0.40633 0.01217 0.0
C851 C 0.53051 0.38394 0.94161 0.0
C852 C 0.52414 0.38946 0.83083 0.0
C853 C 0.52344 0.4168 0.79274 0.0
C854 C 0.544 0.40171 0.1293 0.0
C855 C 0.51776 0.36648 0.75266 0.0
H856 H 0.57873 0.304 0.03379 0.0
H857 H 0.49502 0.30867 0.13482 0.0
H858 H 0.57839 0.35328 0.83707 0.0
H859 H 0.58604 0.37325 0.95523 0.0
H860 H 0.60072 0.33957 0.94024 0.0
H861 H 0.46546 0.34385 0.07373 0.0
H862 H 0.4837 0.37551 0.09445 0.0
H863 H 0.47597 0.36437 0.95897 0.0
H864 H 0.53862 0.45024 0.02781 0.0
H865 H 0.5185 0.42081 0.70817 0.0
H866 H 0.56413 0.3912 0.13179 0.0
H867 H 0.52892 0.38825 0.17027 0.0
H868 H 0.54558 0.42112 0.176 0.0
H869 H 0.5116 0.37409 0.67102 0.0
H870 H 0.501 0.35359 0.78564 0.0
H871 H 0.53597 0.35316 0.74312 0.0
C872 C 0.24353 0.50181 0.95682 0.0
C873 C 0.25151 0.51955 0.04113 0.0
C874 C 0.21784 0.50452 0.9035 0.0
C875 C 0.19861 0.52462 0.9387 0.0
C876 C 0.2075 0.54375 0.01899 0.0
C877 C 0.23398 0.54151 0.06587 0.0
C878 C 0.21096 0.4846 0.81363 0.0
C879 C 0.18892 0.56579 0.063 0.0
C880 C 0.1301 0.54445 0.7979 0.0
C881 C 0.11206 0.524 0.83427 0.0
C882 C 0.15822 0.54465 0.82877 0.0
C883 C 0.1689 0.52403 0.89926 0.0
C884 C 0.15055 0.50324 0.93522 0.0
C885 C 0.12275 0.50362 0.90279 0.0
C886 C 0.17634 0.56726 0.78628 0.0
C887 C 0.15941 0.48007 0.00853 0.0
H888 H 0.25686 0.4849 0.93586 0.0
H889 H 0.2401 0.55577 0.12905 0.0
H890 H 0.20282 0.4655 0.84993 0.0
H891 H 0.19542 0.49291 0.75657 0.0
H892 H 0.22962 0.47913 0.76674 0.0
H893 H 0.18803 0.56423 0.15264 0.0
H894 H 0.19769 0.58615 0.04351 0.0
H895 H 0.16759 0.56481 0.03255 0.0
H896 H 0.12217 0.56059 0.74639 0.0
H897 H 0.10923 0.48759 0.93163 0.0
H898 H 0.19717 0.55955 0.76707 0.0
H899 H 0.17836 0.58346 0.849 0.0
H900 H 0.16752 0.57696 0.71246 0.0
H901 H 0.1586 0.46063 0.96176 0.0
H902 H 0.14476 0.47793 0.07713 0.0
H903 H 0.18028 0.48243 0.04268 0.0
C904 C 0.05755 0.80765 0.54218 0.0
C905 C 0.03547 0.79538 0.48697 0.0
C906 C 0.05545 0.83397 0.5889 0.0
C907 C 0.03037 0.84856 0.58267 0.0
C908 C 1.00746 0.83551 0.53287 0.0
C909 C 1.01033 0.80927 0.48501 0.0
C910 C 0.08044 0.84638 0.6423 0.0
C911 C 0.98012 0.84975 0.52642 0.0
C912 C 1.02284 0.91329 0.76089 0.0
C913 C 0.02724 0.93438 0.6852 0.0
C914 C 1.02317 0.8854 0.7289 0.0
C915 C 0.02887 0.87817 0.61906 0.0
C916 C 0.03395 0.89946 0.54328 0.0
C917 C 0.03269 0.92707 0.57664 0.0
C918 C 1.01731 0.86369 0.8128 0.0
C919 C 0.04127 0.89306 0.42672 0.0
H920 H 0.07698 0.79695 0.54465 0.0
H921 H 0.99326 0.80018 0.44149 0.0
H922 H 0.08332 0.86792 0.61641 0.0
H923 H 0.0777 0.8464 0.7319 0.0
H924 H 0.09939 0.83475 0.62321 0.0
H925 H 0.96358 0.83582 0.49805 0.0
H926 H 0.97444 0.85815 0.60732 0.0
H927 H 0.98148 0.86721 0.46907 0.0
H928 H 1.01851 0.9186 0.84485 0.0
H929 H 0.03642 0.94305 0.51739 0.0
H930 H 0.0363 0.85206 0.83032 0.0
H931 H 1.00191 0.84895 0.78124 0.0
H932 H 1.00969 0.87255 0.89039 0.0
H933 H 0.04575 0.91175 0.37858 0.0
H934 H 0.02422 0.88185 0.38683 0.0
H935 H 0.05951 0.87956 0.42473 0.0
C936 C 0.73526 1.00691 0.48986 0.0
C937 C 0.74949 0.03182 0.49463 0.0
C938 C 0.7093 1.00382 0.53979 0.0
C939 C 0.69689 0.02631 0.59438 0.0
C940 C 0.71223 0.05082 0.60604 0.0
C941 C 0.73814 0.05325 0.55602 0.0
C942 C 0.69463 0.97676 0.53054 0.0
C943 C 0.70129 0.07471 0.67063 0.0
C944 C 0.61844 0.03119 0.58274 0.0
C945 C 0.61045 0.02598 0.69065 0.0
C946 C 0.64621 0.03102 0.55117 0.0
C947 C 0.66707 0.02521 0.62849 0.0
C948 C 0.65917 1.01953 0.73754 0.0
C949 C 0.63113 1.02035 0.76746 0.0
C950 C 0.65321 0.03817 0.43514 0.0
C951 C 0.68014 1.01275 0.82369 0.0
H952 H 0.74379 0.99029 0.44234 0.0
H953 H 0.74925 0.07241 0.56125 0.0
H954 H 0.67718 0.97867 0.47305 0.0
H955 H 0.70838 0.96027 0.50077 0.0
H956 H 0.68616 0.97072 0.61083 0.0
H957 H 0.70373 0.07037 0.7587 0.0
H958 H 0.71255 0.09393 0.65259 0.0
H959 H 0.67915 0.07798 0.65471 0.0
H960 H 0.60289 0.03587 0.52238 0.0
H961 H 0.62541 1.01615 0.85103 0.0
H962 H 0.66855 0.02384 0.40107 0.0
H963 H 0.66232 0.05892 0.43367 0.0
H964 H 0.63494 0.0379 0.3812 0.0
H965 H 0.69803 1.0018 0.78897 0.0
H966 H 0.67109 0.99997 0.88916 0.0
H967 H 0.68755 0.03198 0.86165 0.0
C968 C 0.48837 0.73402 0.50959 0.0
C969 C 0.50968 0.74502 0.44667 0.0
C970 C 0.49082 0.70831 0.56071 0.0
C971 C 0.51545 0.69313 0.55061 0.0
C972 C 0.53774 0.70507 0.49337 0.0
C973 C 0.53453 0.73071 0.44146 0.0
C974 C 0.46668 0.6972 0.62331 0.0
C975 C 0.56467 0.6902 0.48296 0.0
C976 C 0.52394 0.63014 0.73594 0.0
C977 C 0.51787 0.60848 0.66436 0.0
C978 C 0.52403 0.65765 0.69998 0.0
C979 C 0.51694 0.66392 0.59057 0.0
C980 C 0.51036 0.64207 0.51886 0.0
C981 C 0.51126 0.6148 0.55594 0.0
C982 C 0.53177 0.67995 0.77932 0.0
C983 C 0.50137 0.64754 0.40344 0.0
H984 H 0.46923 0.74515 0.51479 0.0
H985 H 0.55098 0.73892 0.39226 0.0
H986 H 0.46296 0.67538 0.60302 0.0
H987 H 0.47108 0.6984 0.71178 0.0
H988 H 0.44764 0.70896 0.60708 0.0
H989 H 0.58098 0.70348 0.44864 0.0
H990 H 0.57146 0.68256 0.5637 0.0
H991 H 0.56207 0.67218 0.42885 0.0
H992 H 0.52925 0.62555 0.81969 0.0
H993 H 0.5062 0.59834 0.5001 0.0
H994 H 0.51314 0.69134 0.8038 0.0
H995 H 0.54602 0.69476 0.74093 0.0
H996 H 0.54154 0.67162 0.854 0.0
H997 H 0.49926 0.62847 0.35492 0.0
H998 H 0.51615 0.66118 0.36174 0.0
H999 H 0.4813 0.65818 0.40505 0.0
C1000 C 0.81554 0.50459 0.45482 0.0
C1001 C 0.79774 0.5262 0.47974 0.0
C1002 C 0.84152 0.50194 0.50596 0.0
C1003 C 0.84991 0.52096 0.58785 0.0
C1004 C 0.83063 0.54133 0.62004 0.0
C1005 C 0.80527 0.54395 0.56453 0.0
C1006 C 0.86016 0.47959 0.4649 0.0
C1007 C 0.83687 0.56175 0.70887 0.0
C1008 C 0.91704 0.50041 0.73773 0.0
C1009 C 0.9358 0.52011 0.7005 0.0
C1010 C 0.88903 0.50089 0.70522 0.0
C1011 C 0.87929 0.52123 0.63135 0.0
C1012 C 0.89821 0.54163 0.59679 0.0
C1013 C 0.92584 0.54064 0.63096 0.0
C1014 C 0.87007 0.47922 0.74918 0.0
C1015 C 0.88991 0.56531 0.5252 0.0
H1016 H 0.80982 0.49076 0.3899 0.0
H1017 H 0.79176 0.56082 0.58428 0.0
H1018 H 0.88063 0.4792 0.50366 0.0
H1019 H 0.85012 0.45944 0.47695 0.0
H1020 H 0.86327 0.48215 0.37626 0.0
H1021 H 0.81902 0.5636 0.76437 0.0
H1022 H 0.85517 0.55635 0.7577 0.0
H1023 H 0.84019 0.58217 0.67174 0.0
H1024 H 0.92431 0.48428 0.79082 0.0
H1025 H 0.93983 0.55635 0.60279 0.0
H1026 H 0.87752 0.47107 0.82823 0.0
H1027 H 0.86912 0.4619 0.69083 0.0
H1028 H 0.84899 0.48723 0.76007 0.0
H1029 H 0.90589 0.56925 0.46288 0.0
H1030 H 0.88843 0.58401 0.57623 0.0
H1031 H 0.87003 0.56231 0.48346 0.0
loop_
_geom_bond_atom_site_label_1
_geom_bond_atom_site_label_2
_geom_bond_distance
_geom_bond_site_symmetry_2
_ccdc_geom_bond_type
C0 N1 1.317 . S
C0 N2 1.348 . S
C0 C3 1.485 . S
N1 C0 1.317 . S
N1 N5 1.370 . S
N2 C0 1.348 . S
N2 C4 1.346 . S
C3 C0 1.485 . S
C3 H7 0.960 . S
C3 H8 0.961 . S
C3 H9 0.960 . S
C4 N2 1.346 . S
C4 N5 1.307 . S
C4 C6 1.486 . S
N5 N1 1.370 . S
N5 C4 1.307 . S
C6 C4 1.486 . S
C6 H10 0.960 . S
C6 H11 0.960 . S
C6 H12 0.959 . S
H7 C3 0.960 . S
H8 C3 0.961 . S
H9 C3 0.960 . S
H10 C6 0.960 . S
H11 C6 0.960 . S
H12 C6 0.959 . S
C13 N14 1.317 . S
C13 N15 1.350 . S
C13 C16 1.485 . S
N14 C13 1.317 . S
N14 N18 1.371 . S
N15 C13 1.350 . S
N15 C17 1.345 1_655 S
C16 C13 1.485 . S
C16 H20 0.960 1_655 S
C16 H21 0.961 . S
C16 H22 0.960 . S
C17 N15 1.345 1_455 S
C17 N18 1.307 1_455 S
C17 C19 1.485 . S
N18 N14 1.371 . S
N18 C17 1.307 1_655 S
C19 C17 1.485 . S
C19 H23 0.922 1_455 S
C19 H24 0.991 . S
C19 H25 0.967 . S
H20 C16 0.960 1_455 S
H21 C16 0.961 . S
H22 C16 0.960 . S
H23 C19 0.922 1_655 S
H24 C19 0.991 . S
H25 C19 0.967 . S
C26 N27 1.317 . S
C26 N28 1.350 . S
C26 C29 1.485 . S
N27 C26 1.317 . S
N27 N31 1.371 . S
N28 C26 1.350 . S
N28 C30 1.345 1_565 S
C29 C26 1.485 . S
C29 H33 0.960 1_565 S
C29 H34 0.961 . S
C29 H35 0.960 . S
C30 N28 1.345 1_545 S
C30 N31 1.307 1_545 S
C30 C32 1.486 . S
N31 N27 1.371 . S
N31 C30 1.307 1_565 S
C32 C30 1.486 . S
C32 H36 0.922 1_545 S
C32 H37 0.991 . S
C32 H38 0.967 . S
H33 C29 0.960 1_545 S
H34 C29 0.961 . S
H35 C29 0.960 . S
H36 C32 0.922 1_565 S
H37 C32 0.991 . S
H38 C32 0.967 . S
C39 N40 1.317 . S
C39 N41 1.348 . S
C39 C42 1.485 . S
N40 C39 1.317 . S
N40 N44 1.370 . S
N41 C39 1.348 . S
N41 C43 1.346 . S
C42 C39 1.485 . S
C42 H46 0.960 . S
C42 H47 0.961 . S
C42 H48 0.960 . S
C43 N41 1.346 . S
C43 N44 1.307 . S
C43 C45 1.486 . S
N44 N40 1.370 . S
N44 C43 1.307 . S
C45 C43 1.486 . S
C45 H49 0.960 . S
C45 H50 0.960 . S
C45 H51 0.959 . S
H46 C42 0.960 . S
H47 C42 0.961 . S
H48 C42 0.960 . S
H49 C45 0.960 . S
H50 C45 0.960 . S
H51 C45 0.959 . S
C52 N53 1.317 . S
C52 N54 1.348 1_556 S
C52 C55 1.485 . S
N53 C52 1.317 . S
N53 N57 1.370 1_556 S
N54 C52 1.348 1_554 S
N54 C56 1.346 . S
C55 C52 1.485 . S
C55 H59 0.960 . S
C55 H60 0.961 . S
C55 H61 0.960 . S
C56 N54 1.346 . S
C56 N57 1.307 . S
C56 C58 1.486 . S
N57 N53 1.370 1_554 S
N57 C56 1.307 . S
C58 C56 1.486 . S
C58 H62 0.960 . S
C58 H63 0.960 . S
C58 H64 0.959 . S
H59 C55 0.960 . S
H60 C55 0.961 . S
H61 C55 0.960 . S
H62 C58 0.960 . S
H63 C58 0.960 . S
H64 C58 0.959 . S
C65 N66 1.317 . S
C65 N67 1.350 1_556 S
C65 C68 1.485 . S
N66 C65 1.317 . S
N66 N70 1.370 1_556 S
N67 C65 1.350 1_554 S
N67 C69 1.345 1_655 S
C68 C65 1.485 . S
C68 H72 0.960 1_655 S
C68 H73 0.961 . S
C68 H74 0.960 . S
C69 N67 1.345 1_455 S
C69 N70 1.307 1_455 S
C69 C71 1.486 . S
N70 N66 1.370 1_554 S
N70 C69 1.307 1_655 S
C71 C69 1.486 . S
C71 H75 0.960 1_455 S
C71 H76 0.960 . S
C71 H77 0.959 . S
H72 C68 0.960 1_455 S
H73 C68 0.961 . S
H74 C68 0.960 . S
H75 C71 0.960 1_655 S
H76 C71 0.960 . S
H77 C71 0.959 . S
C78 N79 1.317 . S
C78 N80 1.350 1_556 S
C78 C81 1.485 . S
N79 C78 1.317 . S
N79 N83 1.370 1_556 S
N80 C78 1.350 1_554 S
N80 C82 1.345 1_565 S
C81 C78 1.485 . S
C81 H85 0.960 1_565 S
C81 H86 0.961 . S
C81 H87 0.960 . S
C82 N80 1.345 1_545 S
C82 N83 1.307 1_545 S
C82 C84 1.486 . S
N83 N79 1.370 1_554 S
N83 C82 1.307 1_565 S
C84 C82 1.486 . S
C84 H88 0.960 1_545 S
C84 H89 0.960 . S
C84 H90 0.959 . S
H85 C81 0.960 1_545 S
H86 C81 0.961 . S
H87 C81 0.960 . S
H88 C84 0.960 1_565 S
H89 C84 0.960 . S
H90 C84 0.959 . S
C91 N92 1.317 . S
C91 N93 1.348 1_556 S
C91 C94 1.485 . S
N92 C91 1.317 . S
N92 N96 1.370 1_556 S
N93 C91 1.348 1_554 S
N93 C95 1.346 . S
C94 C91 1.485 . S
C94 H98 0.960 . S
C94 H99 0.961 . S
C94 H100 0.960 . S
C95 N93 1.346 . S
C95 N96 1.307 . S
C95 C97 1.486 . S
N96 N92 1.370 1_554 S
N96 C95 1.307 . S
C97 C95 1.486 . S
C97 H101 0.960 . S
C97 H102 0.960 . S
C97 H103 0.959 . S
H98 C94 0.960 . S
H99 C94 0.961 . S
H100 C94 0.960 . S
H101 C97 0.960 . S
H102 C97 0.960 . S
H103 C97 0.959 . S
Gd104 C107 2.818 . S
Gd104 O124 2.377 . S
Gd104 O126 2.448 . S
Gd104 O127 2.506 . S
Gd104 O128 2.435 . S
Gd104 O129 2.717 1_565 S
Gd104 O131 2.395 1_565 S
Gd104 O135 2.327 1_455 S
Gd105 C116 2.818 . S
Gd105 O125 2.395 1_545 S
Gd105 O129 2.327 1_655 S
Gd105 O130 2.377 . S
Gd105 O132 2.448 . S
Gd105 O133 2.506 . S
Gd105 O134 2.435 . S
Gd105 O135 2.717 1_545 S
C106 O124 1.240 1_655 S
C106 O125 1.240 . S
C107 Gd104 2.818 . S
C107 C108 1.510 1_556 S
C107 O126 1.249 . S
C107 O127 1.252 . S
C108 C107 1.510 1_554 S
C108 C109 1.404 . S
C108 C110 1.352 . S
C109 C108 1.404 . S
C109 C113 1.389 . S
C109 H136 0.930 . S
C110 C108 1.352 . S
C110 C112 1.374 . S
C110 H137 0.931 1_455 S
C111 C112 1.359 . S
C111 C113 1.364 . S
C112 C110 1.374 . S
C112 C111 1.359 . S
C112 H138 0.931 1_455 S
C113 C109 1.389 . S
C113 C111 1.364 . S
C113 H139 0.931 . S
C114 O128 1.256 . S
C114 O129 1.257 1_565 S
C115 O130 1.240 1_455 S
C115 O131 1.240 . S
C116 Gd105 2.818 . S
C116 C117 1.510 . S
C116 O132 1.249 . S
C116 O133 1.252 . S
C117 C116 1.510 . S
C117 C118 1.404 . S
C117 C119 1.352 . S
C118 C117 1.404 . S
C118 C122 1.389 . S
C118 H140 0.930 . S
C119 C117 1.352 . S
C119 C121 1.374 . S
C119 H141 0.931 1_655 S
C120 C121 1.359 . S
C120 C122 1.364 . S
C121 C119 1.374 . S
C121 C120 1.359 . S
C121 H142 0.931 1_655 S
C122 C118 1.389 . S
C122 C120 1.364 . S
C122 H143 0.931 . S
C123 O134 1.256 . S
C123 O135 1.257 1_545 S
O124 Gd104 2.377 . S
O124 C106 1.240 1_455 S
O125 Gd105 2.395 1_565 S
O125 C106 1.240 . S
O126 Gd104 2.448 . S
O126 C107 1.249 . S
O127 Gd104 2.506 . S
O127 C107 1.252 . S
O128 Gd104 2.435 . S
O128 C114 1.256 . S
O129 Gd104 2.717 1_545 S
O129 Gd105 2.327 1_455 S
O129 C114 1.257 1_545 S
O130 Gd105 2.377 . S
O130 C115 1.240 1_655 S
O131 Gd104 2.395 1_545 S
O131 C115 1.240 . S
O132 Gd105 2.448 . S
O132 C116 1.249 . S
O133 Gd105 2.506 . S
O133 C116 1.252 . S
O134 Gd105 2.435 . S
O134 C123 1.256 . S
O135 Gd104 2.327 1_655 S
O135 Gd105 2.717 1_565 S
O135 C123 1.257 1_565 S
H136 C109 0.930 . S
H137 C110 0.931 1_655 S
H138 C112 0.931 1_655 S
H139 C113 0.931 . S
H140 C118 0.930 . S
H141 C119 0.931 1_455 S
H142 C121 0.931 1_455 S
H143 C122 0.931 . S
Gd144 C147 2.818 . S
Gd144 O164 2.377 . S
Gd144 O166 2.448 . S
Gd144 O167 2.506 . S
Gd144 O168 2.435 . S
Gd144 O169 2.717 . S
Gd144 O171 2.395 . S
Gd144 O175 2.327 1_545 S
Gd145 C156 2.818 . S
Gd145 O165 2.395 . S
Gd145 O169 2.327 1_565 S
Gd145 O170 2.377 . S
Gd145 O172 2.448 . S
Gd145 O173 2.506 . S
Gd145 O174 2.435 . S
Gd145 O175 2.717 . S
C146 O164 1.240 1_565 S
C146 O165 1.240 . S
C147 Gd144 2.818 . S
C147 C148 1.510 1_556 S
C147 O166 1.249 . S
C147 O167 1.252 . S
C148 C147 1.510 1_554 S
C148 C149 1.404 . S
C148 C150 1.352 . S
C149 C148 1.404 . S
C149 C153 1.389 . S
C149 H176 0.930 . S
C150 C148 1.352 . S
C150 C152 1.374 . S
C150 H177 0.931 1_545 S
C151 C152 1.359 . S
C151 C153 1.364 . S
C152 C150 1.374 . S
C152 C151 1.359 . S
C152 H178 0.931 1_545 S
C153 C149 1.389 . S
C153 C151 1.364 . S
C153 H179 0.931 . S
C154 O168 1.256 . S
C154 O169 1.257 . S
C155 O170 1.240 1_545 S
C155 O171 1.240 . S
C156 Gd145 2.818 . S
C156 C157 1.510 . S
C156 O172 1.249 . S
C156 O173 1.252 . S
C157 C156 1.510 . S
C157 C158 1.404 . S
C157 C159 1.352 . S
C158 C157 1.404 . S
C158 C162 1.389 . S
C158 H180 0.930 . S
C159 C157 1.352 . S
C159 C161 1.374 . S
C159 H181 0.931 1_565 S
C160 C161 1.359 . S
C160 C162 1.364 . S
C161 C159 1.374 . S
C161 C160 1.359 . S
C161 H182 0.931 1_565 S
C162 C158 1.389 . S
C162 C160 1.364 . S
C162 H183 0.931 . S
C163 O174 1.256 . S
C163 O175 1.257 . S
O164 Gd144 2.377 . S
O164 C146 1.240 1_545 S
O165 Gd145 2.395 . S
O165 C146 1.240 . S
O166 Gd144 2.448 . S
O166 C147 1.249 . S
O167 Gd144 2.506 . S
O167 C147 1.252 . S
O168 Gd144 2.435 . S
O168 C154 1.256 . S
O169 Gd144 2.717 . S
O169 Gd145 2.327 1_545 S
O169 C154 1.257 . S
O170 Gd145 2.377 . S
O170 C155 1.240 1_565 S
O171 Gd144 2.395 . S
O171 C155 1.240 . S
O172 Gd145 2.448 . S
O172 C156 1.249 . S
O173 Gd145 2.506 . S
O173 C156 1.252 . S
O174 Gd145 2.435 . S
O174 C163 1.256 . S
O175 Gd144 2.327 1_565 S
O175 Gd145 2.717 . S
O175 C163 1.257 . S
H176 C149 0.930 . S
H177 C150 0.931 1_565 S
H178 C152 0.931 1_565 S
H179 C153 0.931 . S
H180 C158 0.930 . S
H181 C159 0.931 1_545 S
H182 C161 0.931 1_545 S
H183 C162 0.931 . S
Gd184 C187 2.818 . S
Gd184 O204 2.377 . S
Gd184 O206 2.448 . S
Gd184 O207 2.506 . S
Gd184 O208 2.435 . S
Gd184 O209 2.717 . S
Gd184 O211 2.395 . S
Gd184 O215 2.327 . S
Gd185 C196 2.818 . S
Gd185 O205 2.395 . S
Gd185 O209 2.327 . S
Gd185 O210 2.377 . S
Gd185 O212 2.448 . S
Gd185 O213 2.506 . S
Gd185 O214 2.435 . S
Gd185 O215 2.717 . S
C186 O204 1.240 . S
C186 O205 1.240 . S
C187 Gd184 2.818 . S
C187 C188 1.510 1_556 S
C187 O206 1.249 . S
C187 O207 1.252 . S
C188 C187 1.510 1_554 S
C188 C189 1.404 . S
C188 C190 1.352 . S
C189 C188 1.404 . S
C189 C193 1.389 . S
C189 H216 0.930 . S
C190 C188 1.352 . S
C190 C192 1.374 . S
C190 H217 0.931 . S
C191 C192 1.359 . S
C191 C193 1.364 . S
C192 C190 1.374 . S
C192 C191 1.359 . S
C192 H218 0.931 . S
C193 C189 1.389 . S
C193 C191 1.364 . S
C193 H219 0.931 . S
C194 O208 1.256 . S
C194 O209 1.257 . S
C195 O210 1.240 . S
C195 O211 1.240 . S
C196 Gd185 2.818 . S
C196 C197 1.510 . S
C196 O212 1.249 . S
C196 O213 1.252 . S
C197 C196 1.510 . S
C197 C198 1.404 . S
C197 C199 1.352 . S
C198 C197 1.404 . S
C198 C202 1.389 . S
C198 H220 0.930 . S
C199 C197 1.352 . S
C199 C201 1.374 . S
C199 H221 0.931 . S
C200 C201 1.359 . S
C200 C202 1.364 . S
C201 C199 1.374 . S
C201 C200 1.359 . S
C201 H222 0.931 . S
C202 C198 1.389 . S
C202 C200 1.364 . S
C202 H223 0.931 . S
C203 O214 1.256 . S
C203 O215 1.257 . S
O204 Gd184 2.377 . S
O204 C186 1.240 . S
O205 Gd185 2.395 . S
O205 C186 1.240 . S
O206 Gd184 2.448 . S
O206 C187 1.249 . S
O207 Gd184 2.506 . S
O207 C187 1.252 . S
O208 Gd184 2.435 . S
O208 C194 1.256 . S
O209 Gd184 2.717 . S
O209 Gd185 2.327 . S
O209 C194 1.257 . S
O210 Gd185 2.377 . S
O210 C195 1.240 . S
O211 Gd184 2.395 . S
O211 C195 1.240 . S
O212 Gd185 2.448 . S
O212 C196 1.249 . S
O213 Gd185 2.506 . S
O213 C196 1.252 . S
O214 Gd185 2.435 . S
O214 C203 1.256 . S
O215 Gd184 2.327 . S
O215 Gd185 2.717 . S
O215 C203 1.257 . S
H216 C189 0.930 . S
H217 C190 0.931 . S
H218 C192 0.931 . S
H219 C193 0.931 . S
H220 C198 0.930 . S
H221 C199 0.931 . S
H222 C201 0.931 . S
H223 C202 0.931 . S
Gd224 C227 2.818 . S
Gd224 O244 2.377 . S
Gd224 O246 2.448 . S
Gd224 O247 2.506 . S
Gd224 O248 2.435 . S
Gd224 O249 2.717 1_655 S
Gd224 O251 2.395 1_655 S
Gd224 O255 2.327 . S
Gd225 C236 2.818 . S
Gd225 O245 2.395 1_455 S
Gd225 O249 2.327 . S
Gd225 O250 2.377 . S
Gd225 O252 2.448 . S
Gd225 O253 2.506 . S
Gd225 O254 2.435 . S
Gd225 O255 2.717 1_455 S
C226 O244 1.240 . S
C226 O245 1.240 . S
C227 Gd224 2.818 . S
C227 C228 1.510 1_556 S
C227 O246 1.249 . S
C227 O247 1.252 . S
C228 C227 1.510 1_554 S
C228 C229 1.404 . S
C228 C230 1.352 . S
C229 C228 1.404 . S
C229 C233 1.389 . S
C229 H256 0.930 . S
C230 C228 1.352 . S
C230 C232 1.374 . S
C230 H257 0.931 . S
C231 C232 1.359 . S
C231 C233 1.364 . S
C232 C230 1.374 . S
C232 C231 1.359 . S
C232 H258 0.931 . S
C233 C229 1.389 . S
C233 C231 1.364 . S
C233 H259 0.931 . S
C234 O248 1.278 . S
C234 O249 1.246 1_655 S
C235 O250 1.240 . S
C235 O251 1.240 . S
C236 Gd225 2.818 . S
C236 C237 1.510 . S
C236 O252 1.249 . S
C236 O253 1.252 . S
C237 C236 1.510 . S
C237 C238 1.404 . S
C237 C239 1.352 . S
C238 C237 1.404 . S
C238 C242 1.389 . S
C238 H260 0.930 . S
C239 C237 1.352 . S
C239 C241 1.374 . S
C239 H261 0.931 . S
C240 C241 1.359 . S
C240 C242 1.364 . S
C241 C239 1.374 . S
C241 C240 1.359 . S
C241 H262 0.931 . S
C242 C238 1.389 . S
C242 C240 1.364 . S
C242 H263 0.931 . S
C243 O254 1.256 . S
C243 O255 1.257 1_455 S
O244 Gd224 2.377 . S
O244 C226 1.240 . S
O245 Gd225 2.395 1_655 S
O245 C226 1.240 . S
O246 Gd224 2.448 . S
O246 C227 1.249 . S
O247 Gd224 2.506 . S
O247 C227 1.252 . S
O248 Gd224 2.435 . S
O248 C234 1.278 . S
O249 Gd224 2.717 1_455 S
O249 Gd225 2.327 . S
O249 C234 1.246 1_455 S
O250 Gd225 2.377 . S
O250 C235 1.240 . S
O251 Gd224 2.395 1_455 S
O251 C235 1.240 . S
O252 Gd225 2.448 . S
O252 C236 1.249 . S
O253 Gd225 2.506 . S
O253 C236 1.252 . S
O254 Gd225 2.435 . S
O254 C243 1.256 . S
O255 Gd224 2.327 . S
O255 Gd225 2.717 1_655 S
O255 C243 1.257 1_655 S
H256 C229 0.930 . S
H257 C230 0.931 . S
H258 C232 0.931 . S
H259 C233 0.931 . S
H260 C238 0.930 . S
H261 C239 0.931 . S
H262 C241 0.931 . S
H263 C242 0.931 . S
C264 C265 1.391 . S
C264 C266 1.394 . S
C264 H280 0.931 . S
C265 C264 1.391 . S
C265 C269 1.376 1_545 S
C266 C264 1.394 . S
C266 C267 1.369 . S
C266 C270 1.531 . S
C267 C266 1.369 . S
C267 C268 1.410 1_545 S
C267 C275 1.503 . S
C268 C267 1.410 1_565 S
C268 C269 1.392 . S
C268 C271 1.511 . S
C269 C265 1.376 1_565 S
C269 C268 1.392 . S
C269 H281 0.929 . S
C270 C266 1.531 . S
C270 H282 0.960 . S
C270 H283 0.962 . S
C270 H284 0.960 . S
C271 C268 1.511 . S
C271 H285 0.961 . S
C271 H286 0.961 . S
C271 H287 0.961 . S
C272 C273 1.370 1_565 S
C272 C274 1.363 . S
C272 H288 0.931 . S
C273 C272 1.370 1_545 S
C273 C277 1.408 . S
C274 C272 1.363 . S
C274 C275 1.370 1_565 S
C274 C278 1.524 . S
C275 C267 1.503 . S
C275 C274 1.370 1_545 S
C275 C276 1.403 . S
C276 C275 1.403 . S
C276 C277 1.404 . S
C276 C279 1.539 . S
C277 C273 1.408 . S
C277 C276 1.404 . S
C277 H289 0.930 . S
C278 C274 1.524 . S
C278 H290 0.956 . S
C278 H291 0.961 . S
C278 H292 0.961 . S
C279 C276 1.539 . S
C279 H293 0.958 . S
C279 H294 0.961 . S
C279 H295 0.960 . S
H280 C264 0.931 . S
H281 C269 0.929 . S
H282 C270 0.960 . S
H283 C270 0.962 . S
H284 C270 0.960 . S
H285 C271 0.961 . S
H286 C271 0.961 . S
H287 C271 0.961 . S
H288 C272 0.931 . S
H289 C277 0.930 . S
H290 C278 0.956 . S
H291 C278 0.961 . S
H292 C278 0.961 . S
H293 C279 0.958 . S
H294 C279 0.961 . S
H295 C279 0.960 . S
C296 C297 1.391 . S
C296 C298 1.394 . S
C296 H312 0.931 . S
C297 C296 1.391 . S
C297 C301 1.376 . S
C298 C296 1.394 . S
C298 C299 1.369 . S
C298 C302 1.531 . S
C299 C298 1.369 . S
C299 C300 1.410 . S
C299 C307 1.503 . S
C300 C299 1.410 . S
C300 C301 1.392 . S
C300 C303 1.511 . S
C301 C297 1.376 . S
C301 C300 1.392 . S
C301 H313 0.929 . S
C302 C298 1.531 . S
C302 H314 0.960 . S
C302 H315 0.962 . S
C302 H316 0.960 . S
C303 C300 1.511 . S
C303 H317 0.961 . S
C303 H318 0.961 . S
C303 H319 0.961 . S
C304 C305 1.370 . S
C304 C306 1.363 . S
C304 H320 0.931 . S
C305 C304 1.370 . S
C305 C309 1.408 . S
C306 C304 1.363 . S
C306 C307 1.370 . S
C306 C310 1.524 . S
C307 C299 1.503 . S
C307 C306 1.370 . S
C307 C308 1.403 . S
C308 C307 1.403 . S
C308 C309 1.404 . S
C308 C311 1.539 . S
C309 C305 1.408 . S
C309 C308 1.404 . S
C309 H321 0.930 . S
C310 C306 1.524 . S
C310 H322 0.956 . S
C310 H323 0.961 . S
C310 H324 0.961 . S
C311 C308 1.539 . S
C311 H325 0.958 . S
C311 H326 0.961 . S
C311 H327 0.960 . S
H312 C296 0.931 . S
H313 C301 0.929 . S
H314 C302 0.960 . S
H315 C302 0.962 . S
H316 C302 0.960 . S
H317 C303 0.961 . S
H318 C303 0.961 . S
H319 C303 0.961 . S
H320 C304 0.931 . S
H321 C309 0.930 . S
H322 C310 0.956 . S
H323 C310 0.961 . S
H324 C310 0.961 . S
H325 C311 0.958 . S
H326 C311 0.961 . S
H327 C311 0.960 . S
C328 C329 1.391 . S
C328 C330 1.394 . S
C328 H344 0.931 . S
C329 C328 1.391 . S
C329 C333 1.376 . S
C330 C328 1.394 . S
C330 C331 1.369 . S
C330 C334 1.531 . S
C331 C330 1.369 . S
C331 C332 1.410 . S
C331 C339 1.503 . S
C332 C331 1.410 . S
C332 C333 1.392 . S
C332 C335 1.511 . S
C333 C329 1.376 . S
C333 C332 1.392 . S
C333 H345 0.929 . S
C334 C330 1.531 . S
C334 H346 0.960 . S
C334 H347 0.962 . S
C334 H348 0.960 . S
C335 C332 1.511 . S
C335 H349 0.961 . S
C335 H350 0.961 . S
C335 H351 0.961 . S
C336 C337 1.370 . S
C336 C338 1.363 . S
C336 H352 0.931 . S
C337 C336 1.370 . S
C337 C341 1.408 . S
C338 C336 1.363 . S
C338 C339 1.370 . S
C338 C342 1.524 . S
C339 C331 1.503 . S
C339 C338 1.370 . S
C339 C340 1.403 . S
C340 C339 1.403 . S
C340 C341 1.404 . S
C340 C343 1.539 . S
C341 C337 1.408 . S
C341 C340 1.404 . S
C341 H353 0.930 . S
C342 C338 1.524 . S
C342 H354 0.956 . S
C342 H355 0.961 . S
C342 H356 0.961 . S
C343 C340 1.539 . S
C343 H357 0.958 . S
C343 H358 0.961 . S
C343 H359 0.960 . S
H344 C328 0.931 . S
H345 C333 0.929 . S
H346 C334 0.960 . S
H347 C334 0.962 . S
H348 C334 0.960 . S
H349 C335 0.961 . S
H350 C335 0.961 . S
H351 C335 0.961 . S
H352 C336 0.931 . S
H353 C341 0.930 . S
H354 C342 0.956 . S
H355 C342 0.961 . S
H356 C342 0.961 . S
H357 C343 0.958 . S
H358 C343 0.961 . S
H359 C343 0.960 . S
C360 C361 1.401 . S
C360 C362 1.394 . S
C360 H376 0.931 . S
C361 C360 1.401 . S
C361 C365 1.366 1_455 S
C362 C360 1.394 . S
C362 C363 1.369 . S
C362 C366 1.531 . S
C363 C362 1.369 . S
C363 C364 1.410 1_455 S
C363 C371 1.503 . S
C364 C363 1.410 1_655 S
C364 C365 1.392 . S
C364 C367 1.511 . S
C365 C361 1.366 1_655 S
C365 C364 1.392 . S
C365 H377 0.929 . S
C366 C362 1.531 . S
C366 H378 0.960 . S
C366 H379 0.962 . S
C366 H380 0.960 . S
C367 C364 1.511 . S
C367 H381 0.961 . S
C367 H382 0.961 . S
C367 H383 0.961 . S
C368 C369 1.370 . S
C368 C370 1.363 . S
C368 H384 0.931 . S
C369 C368 1.370 . S
C369 C373 1.408 . S
C370 C368 1.363 . S
C370 C371 1.370 . S
C370 C374 1.524 . S
C371 C363 1.503 . S
C371 C370 1.370 . S
C371 C372 1.403 . S
C372 C371 1.403 . S
C372 C373 1.404 . S
C372 C375 1.538 1_455 S
C373 C369 1.408 . S
C373 C372 1.404 . S
C373 H385 0.930 . S
C374 C370 1.524 . S
C374 H386 0.956 . S
C374 H387 0.961 1_455 S
C374 H388 0.961 . S
C375 C372 1.538 1_655 S
C375 H389 0.938 1_655 S
C375 H390 0.973 . S
C375 H391 0.970 . S
H376 C360 0.931 . S
H377 C365 0.929 . S
H378 C366 0.960 . S
H379 C366 0.962 . S
H380 C366 0.960 . S
H381 C367 0.961 . S
H382 C367 0.961 . S
H383 C367 0.961 . S
H384 C368 0.931 . S
H385 C373 0.930 . S
H386 C374 0.956 . S
H387 C374 0.961 1_655 S
H388 C374 0.961 . S
H389 C375 0.938 1_455 S
H390 C375 0.973 . S
H391 C375 0.970 . S
C392 C393 1.390 1_565 S
C392 C394 1.394 . S
C392 H408 0.931 . S
C393 C392 1.390 1_545 S
C393 C397 1.377 . S
C394 C392 1.394 . S
C394 C395 1.383 . S
C394 C398 1.531 . S
C395 C394 1.383 . S
C395 C396 1.395 1_565 S
C395 C403 1.503 . S
C396 C395 1.395 1_545 S
C396 C397 1.392 . S
C396 C399 1.511 . S
C397 C393 1.377 . S
C397 C396 1.392 . S
C397 H409 0.929 . S
C398 C394 1.531 . S
C398 H410 0.960 . S
C398 H411 0.962 . S
C398 H412 0.960 . S
C399 C396 1.511 . S
C399 H413 0.961 . S
C399 H414 0.961 . S
C399 H415 0.961 . S
C400 C401 1.370 1_554 S
C400 C402 1.363 . S
C400 H416 0.931 . S
C401 C400 1.370 1_556 S
C401 C405 1.408 1_565 S
C402 C400 1.363 . S
C402 C403 1.374 . S
C402 C406 1.524 . S
C403 C395 1.503 . S
C403 C402 1.374 . S
C403 C404 1.400 1_565 S
C404 C403 1.400 1_545 S
C404 C405 1.404 1_554 S
C404 C407 1.539 1_554 S
C405 C401 1.408 1_545 S
C405 C404 1.404 1_556 S
C405 H417 0.930 . S
C406 C402 1.524 . S
C406 H418 0.956 . S
C406 H419 0.961 1_565 S
C406 H420 0.961 . S
C407 C404 1.539 1_556 S
C407 H421 0.958 1_545 S
C407 H422 0.961 . S
C407 H423 0.960 1_556 S
H408 C392 0.931 . S
H409 C397 0.929 . S
H410 C398 0.960 . S
H411 C398 0.962 . S
H412 C398 0.960 . S
H413 C399 0.961 . S
H414 C399 0.961 . S
H415 C399 0.961 . S
H416 C400 0.931 . S
H417 C405 0.930 . S
H418 C406 0.956 . S
H419 C406 0.961 1_545 S
H420 C406 0.961 . S
H421 C407 0.958 1_565 S
H422 C407 0.961 . S
H423 C407 0.960 1_554 S
C424 C425 1.391 . S
C424 C426 1.394 . S
C424 H440 0.931 . S
C425 C424 1.391 . S
C425 C429 1.376 . S
C426 C424 1.394 . S
C426 C427 1.369 . S
C426 C430 1.531 . S
C427 C426 1.369 . S
C427 C428 1.410 . S
C427 C435 1.503 . S
C428 C427 1.410 . S
C428 C429 1.392 . S
C428 C431 1.511 . S
C429 C425 1.376 . S
C429 C428 1.392 . S
C429 H441 0.929 . S
C430 C426 1.531 . S
C430 H442 0.960 . S
C430 H443 0.962 . S
C430 H444 0.960 . S
C431 C428 1.511 . S
C431 H445 0.961 . S
C431 H446 0.961 . S
C431 H447 0.961 . S
C432 C433 1.370 . S
C432 C434 1.363 1_556 S
C432 H448 0.931 . S
C433 C432 1.370 . S
C433 C437 1.408 1_556 S
C434 C432 1.363 1_554 S
C434 C435 1.370 . S
C434 C438 1.524 . S
C435 C427 1.503 . S
C435 C434 1.370 . S
C435 C436 1.403 . S
C436 C435 1.403 . S
C436 C437 1.404 . S
C436 C439 1.539 . S
C437 C433 1.408 1_554 S
C437 C436 1.404 . S
C437 H449 0.930 . S
C438 C434 1.524 . S
C438 H450 0.956 . S
C438 H451 0.961 . S
C438 H452 0.961 1_554 S
C439 C436 1.539 . S
C439 H453 0.958 . S
C439 H454 0.961 . S
C439 H455 0.960 . S
H440 C424 0.931 . S
H441 C429 0.929 . S
H442 C430 0.960 . S
H443 C430 0.962 . S
H444 C430 0.960 . S
H445 C431 0.961 . S
H446 C431 0.961 . S
H447 C431 0.961 . S
H448 C432 0.931 . S
H449 C437 0.930 . S
H450 C438 0.956 . S
H451 C438 0.961 . S
H452 C438 0.961 1_556 S
H453 C439 0.958 . S
H454 C439 0.961 . S
H455 C439 0.960 . S
C456 C457 1.391 . S
C456 C458 1.394 . S
C456 H472 0.931 . S
C457 C456 1.391 . S
C457 C461 1.376 . S
C458 C456 1.394 . S
C458 C459 1.369 . S
C458 C462 1.531 . S
C459 C458 1.369 . S
C459 C460 1.410 . S
C459 C467 1.503 . S
C460 C459 1.410 . S
C460 C461 1.392 . S
C460 C463 1.511 . S
C461 C457 1.376 . S
C461 C460 1.392 . S
C461 H473 0.929 . S
C462 C458 1.531 . S
C462 H474 0.960 . S
C462 H475 0.962 . S
C462 H476 0.960 . S
C463 C460 1.511 . S
C463 H477 0.961 . S
C463 H478 0.961 . S
C463 H479 0.961 . S
C464 C465 1.370 1_554 S
C464 C466 1.363 . S
C464 H480 0.931 . S
C465 C464 1.370 1_556 S
C465 C469 1.408 . S
C466 C464 1.363 . S
C466 C467 1.370 . S
C466 C470 1.524 . S
C467 C459 1.503 . S
C467 C466 1.370 . S
C467 C468 1.403 . S
C468 C467 1.403 . S
C468 C469 1.404 1_554 S
C468 C471 1.539 . S
C469 C465 1.408 . S
C469 C468 1.404 1_556 S
C469 H481 0.930 . S
C470 C466 1.524 . S
C470 H482 0.956 . S
C470 H483 0.961 . S
C470 H484 0.961 . S
C471 C468 1.539 . S
C471 H485 0.958 . S
C471 H486 0.961 . S
C471 H487 0.960 . S
H472 C456 0.931 . S
H473 C461 0.929 . S
H474 C462 0.960 . S
H475 C462 0.962 . S
H476 C462 0.960 . S
H477 C463 0.961 . S
H478 C463 0.961 . S
H479 C463 0.961 . S
H480 C464 0.931 . S
H481 C469 0.930 . S
H482 C470 0.956 . S
H483 C470 0.961 . S
H484 C470 0.961 . S
H485 C471 0.958 . S
H486 C471 0.961 . S
H487 C471 0.960 . S
C488 C489 1.391 . S
C488 C490 1.394 . S
C488 H504 0.932 . S
C489 C488 1.391 . S
C489 C493 1.376 . S
C490 C488 1.394 . S
C490 C491 1.369 . S
C490 C494 1.531 . S
C491 C490 1.369 . S
C491 C492 1.410 . S
C491 C499 1.503 . S
C492 C491 1.410 . S
C492 C493 1.392 . S
C492 C495 1.511 . S
C493 C489 1.376 . S
C493 C492 1.392 . S
C493 H505 0.929 . S
C494 C490 1.531 . S
C494 H506 0.960 . S
C494 H507 0.962 1_455 S
C494 H508 0.960 . S
C495 C492 1.511 . S
C495 H509 0.961 . S
C495 H510 0.982 . S
C495 H511 0.961 . S
C496 C497 1.407 1_554 S
C496 C498 1.363 . S
C496 H512 0.931 1_554 S
C497 C496 1.407 1_556 S
C497 C501 1.368 1_655 S
C498 C496 1.363 . S
C498 C499 1.370 1_655 S
C498 C502 1.524 . S
C499 C491 1.503 . S
C499 C498 1.370 1_455 S
C499 C500 1.403 . S
C500 C499 1.403 . S
C500 C501 1.404 1_554 S
C500 C503 1.539 . S
C501 C497 1.368 1_455 S
C501 C500 1.404 1_556 S
C501 H513 0.930 . S
C502 C498 1.524 . S
C502 H514 0.956 . S
C502 H515 0.961 . S
C502 H516 0.961 . S
C503 C500 1.539 . S
C503 H517 0.958 . S
C503 H518 0.961 . S
C503 H519 0.960 . S
H504 C488 0.932 . S
H505 C493 0.929 . S
H506 C494 0.960 . S
H507 C494 0.962 1_655 S
H508 C494 0.960 . S
H509 C495 0.961 . S
H510 C495 0.982 . S
H511 C495 0.961 . S
H512 C496 0.931 1_556 S
H513 C501 0.930 . S
H514 C502 0.956 . S
H515 C502 0.961 . S
H516 C502 0.961 . S
H517 C503 0.958 . S
H518 C503 0.961 . S
H519 C503 0.960 . S
C520 C521 1.395 . S
C520 C522 1.406 . S
C520 H536 0.931 . S
C521 C520 1.395 . S
C521 C525 1.368 1_455 S
C522 C520 1.406 . S
C522 C523 1.344 1_455 S
C522 C526 1.544 . S
C523 C522 1.344 1_655 S
C523 C524 1.410 . S
C523 C531 1.503 . S
C524 C523 1.410 . S
C524 C525 1.392 . S
C524 C527 1.511 . S
C525 C521 1.368 1_655 S
C525 C524 1.392 . S
C525 H537 0.929 1_554 S
C526 C522 1.544 . S
C526 H538 0.960 1_455 S
C526 H539 0.962 . S
C526 H540 0.960 . S
C527 C524 1.511 . S
C527 H541 0.961 1_554 S
C527 H542 0.961 . S
C527 H543 0.961 . S
C528 C529 1.370 . S
C528 C530 1.363 . S
C528 H544 0.931 . S
C529 C528 1.370 . S
C529 C533 1.408 . S
C530 C528 1.363 . S
C530 C531 1.370 . S
C530 C534 1.524 1_655 S
C531 C523 1.503 . S
C531 C530 1.370 . S
C531 C532 1.403 . S
C532 C531 1.403 . S
C532 C533 1.404 . S
C532 C535 1.539 . S
C533 C529 1.408 . S
C533 C532 1.404 . S
C533 H545 0.930 . S
C534 C530 1.524 1_455 S
C534 H546 0.956 . S
C534 H547 0.961 . S
C534 H548 0.961 . S
C535 C532 1.539 . S
C535 H549 0.958 . S
C535 H550 0.961 . S
C535 H551 0.960 . S
H536 C520 0.931 . S
H537 C525 0.929 1_556 S
H538 C526 0.960 1_655 S
H539 C526 0.962 . S
H540 C526 0.960 . S
H541 C527 0.961 1_556 S
H542 C527 0.961 . S
H543 C527 0.961 . S
H544 C528 0.931 . S
H545 C533 0.930 . S
H546 C534 0.956 . S
H547 C534 0.961 . S
H548 C534 0.961 . S
H549 C535 0.958 . S
H550 C535 0.961 . S
H551 C535 0.960 . S
C552 C553 1.391 1_565 S
C552 C554 1.394 . S
C552 H568 0.931 . S
C553 C552 1.391 1_545 S
C553 C557 1.376 . S
C554 C552 1.394 . S
C554 C555 1.369 . S
C554 C558 1.531 . S
C555 C554 1.369 . S
C555 C556 1.410 1_565 S
C555 C563 1.503 . S
C556 C555 1.410 1_545 S
C556 C557 1.392 . S
C556 C559 1.511 . S
C557 C553 1.376 . S
C557 C556 1.392 . S
C557 H569 0.929 . S
C558 C554 1.531 . S
C558 H570 0.960 . S
C558 H571 0.962 . S
C558 H572 0.960 . S
C559 C556 1.511 . S
C559 H573 0.961 . S
C559 H574 0.961 . S
C559 H575 0.961 . S
C560 C561 1.370 . S
C560 C562 1.363 . S
C560 H576 0.931 . S
C561 C560 1.370 . S
C561 C565 1.408 . S
C562 C560 1.363 . S
C562 C563 1.370 . S
C562 C566 1.524 . S
C563 C555 1.503 . S
C563 C562 1.370 . S
C563 C564 1.403 . S
C564 C563 1.403 . S
C564 C565 1.404 . S
C564 C567 1.539 . S
C565 C561 1.408 . S
C565 C564 1.404 . S
C565 H577 0.930 . S
C566 C562 1.524 . S
C566 H578 0.956 . S
C566 H579 0.961 . S
C566 H580 0.961 . S
C567 C564 1.539 . S
C567 H581 0.958 . S
C567 H582 0.961 . S
C567 H583 0.960 . S
H568 C552 0.931 . S
H569 C557 0.929 . S
H570 C558 0.960 . S
H571 C558 0.962 . S
H572 C558 0.960 . S
H573 C559 0.961 . S
H574 C559 0.961 . S
H575 C559 0.961 . S
H576 C560 0.931 . S
H577 C565 0.930 . S
H578 C566 0.956 . S
H579 C566 0.961 . S
H580 C566 0.961 . S
H581 C567 0.958 . S
H582 C567 0.961 . S
H583 C567 0.960 . S
C584 C585 1.391 . S
C584 C586 1.394 . S
C584 H600 0.931 . S
C585 C584 1.391 . S
C585 C589 1.376 . S
C586 C584 1.394 . S
C586 C587 1.369 . S
C586 C590 1.531 . S
C587 C586 1.369 . S
C587 C588 1.410 . S
C587 C595 1.503 . S
C588 C587 1.410 . S
C588 C589 1.392 . S
C588 C591 1.511 . S
C589 C585 1.376 . S
C589 C588 1.392 . S
C589 H601 0.929 . S
C590 C586 1.531 . S
C590 H602 0.960 . S
C590 H603 0.962 . S
C590 H604 0.960 . S
C591 C588 1.511 . S
C591 H605 0.961 . S
C591 H606 0.961 . S
C591 H607 0.961 . S
C592 C593 1.370 . S
C592 C594 1.363 . S
C592 H608 0.931 . S
C593 C592 1.370 . S
C593 C597 1.408 . S
C594 C592 1.363 . S
C594 C595 1.370 . S
C594 C598 1.524 . S
C595 C587 1.503 . S
C595 C594 1.370 . S
C595 C596 1.403 . S
C596 C595 1.403 . S
C596 C597 1.404 . S
C596 C599 1.539 . S
C597 C593 1.408 . S
C597 C596 1.404 . S
C597 H609 0.930 . S
C598 C594 1.524 . S
C598 H610 0.956 . S
C598 H611 0.961 . S
C598 H612 0.961 . S
C599 C596 1.539 . S
C599 H613 0.958 . S
C599 H614 0.961 . S
C599 H615 0.960 . S
H600 C584 0.931 . S
H601 C589 0.929 . S
H602 C590 0.960 . S
H603 C590 0.962 . S
H604 C590 0.960 . S
H605 C591 0.961 . S
H606 C591 0.961 . S
H607 C591 0.961 . S
H608 C592 0.931 . S
H609 C597 0.930 . S
H610 C598 0.956 . S
H611 C598 0.961 . S
H612 C598 0.961 . S
H613 C599 0.958 . S
H614 C599 0.961 . S
H615 C599 0.960 . S
C616 C617 1.391 . S
C616 C618 1.394 . S
C616 H632 0.931 . S
C617 C616 1.391 . S
C617 C621 1.376 . S
C618 C616 1.394 . S
C618 C619 1.369 . S
C618 C622 1.531 . S
C619 C618 1.369 . S
C619 C620 1.410 . S
C619 C627 1.503 . S
C620 C619 1.410 . S
C620 C621 1.392 . S
C620 C623 1.511 . S
C621 C617 1.376 . S
C621 C620 1.392 . S
C621 H633 0.929 . S
C622 C618 1.531 . S
C622 H634 0.960 . S
C622 H635 0.962 . S
C622 H636 0.960 . S
C623 C620 1.511 . S
C623 H637 0.961 . S
C623 H638 0.961 . S
C623 H639 0.961 . S
C624 C625 1.370 . S
C624 C626 1.363 . S
C624 H640 0.931 . S
C625 C624 1.370 . S
C625 C629 1.408 . S
C626 C624 1.363 . S
C626 C627 1.370 . S
C626 C630 1.524 . S
C627 C619 1.503 . S
C627 C626 1.370 . S
C627 C628 1.403 . S
C628 C627 1.403 . S
C628 C629 1.404 . S
C628 C631 1.539 . S
C629 C625 1.408 . S
C629 C628 1.404 . S
C629 H641 0.930 . S
C630 C626 1.524 . S
C630 H642 0.956 . S
C630 H643 0.961 . S
C630 H644 0.961 . S
C631 C628 1.539 . S
C631 H645 0.958 . S
C631 H646 0.961 . S
C631 H647 0.960 . S
H632 C616 0.931 . S
H633 C621 0.929 . S
H634 C622 0.960 . S
H635 C622 0.962 . S
H636 C622 0.960 . S
H637 C623 0.961 . S
H638 C623 0.961 . S
H639 C623 0.961 . S
H640 C624 0.931 . S
H641 C629 0.930 . S
H642 C630 0.956 . S
H643 C630 0.961 . S
H644 C630 0.961 . S
H645 C631 0.958 . S
H646 C631 0.961 . S
H647 C631 0.960 . S
C648 C649 1.391 1_455 S
C648 C650 1.394 . S
C648 H664 0.931 . S
C649 C648 1.391 1_655 S
C649 C653 1.376 . S
C650 C648 1.394 . S
C650 C651 1.369 . S
C650 C654 1.531 . S
C651 C650 1.369 . S
C651 C652 1.410 1_455 S
C651 C659 1.503 . S
C652 C651 1.410 1_655 S
C652 C653 1.392 . S
C652 C655 1.511 . S
C653 C649 1.376 . S
C653 C652 1.392 . S
C653 H665 0.929 . S
C654 C650 1.531 . S
C654 H666 0.960 . S
C654 H667 0.962 . S
C654 H668 0.960 . S
C655 C652 1.511 . S
C655 H669 0.961 . S
C655 H670 0.961 . S
C655 H671 0.961 . S
C656 C657 1.370 . S
C656 C658 1.363 . S
C656 H672 0.931 . S
C657 C656 1.370 . S
C657 C661 1.408 . S
C658 C656 1.363 . S
C658 C659 1.370 . S
C658 C662 1.524 . S
C659 C651 1.503 . S
C659 C658 1.370 . S
C659 C660 1.403 . S
C660 C659 1.403 . S
C660 C661 1.404 . S
C660 C663 1.539 . S
C661 C657 1.408 . S
C661 C660 1.404 . S
C661 H673 0.930 . S
C662 C658 1.524 . S
C662 H674 0.956 . S
C662 H675 0.961 . S
C662 H676 0.961 . S
C663 C660 1.539 . S
C663 H677 0.958 . S
C663 H678 0.961 . S
C663 H679 0.960 1_455 S
H664 C648 0.931 . S
H665 C653 0.929 . S
H666 C654 0.960 . S
H667 C654 0.962 . S
H668 C654 0.960 . S
H669 C655 0.961 . S
H670 C655 0.961 . S
H671 C655 0.961 . S
H672 C656 0.931 . S
H673 C661 0.930 . S
H674 C662 0.956 . S
H675 C662 0.961 . S
H676 C662 0.961 . S
H677 C663 0.958 . S
H678 C663 0.961 . S
H679 C663 0.960 1_655 S
C680 C681 1.391 1_545 S
C680 C682 1.394 . S
C680 H696 0.931 . S
C681 C680 1.391 1_565 S
C681 C685 1.376 . S
C682 C680 1.394 . S
C682 C683 1.369 . S
C682 C686 1.531 . S
C683 C682 1.369 . S
C683 C684 1.410 1_545 S
C683 C691 1.503 . S
C684 C683 1.410 1_565 S
C684 C685 1.392 . S
C684 C687 1.511 . S
C685 C681 1.376 . S
C685 C684 1.392 . S
C685 H697 0.929 . S
C686 C682 1.531 . S
C686 H698 0.960 . S
C686 H699 0.962 . S
C686 H700 0.960 . S
C687 C684 1.511 . S
C687 H701 0.961 . S
C687 H702 0.961 1_565 S
C687 H703 0.961 . S
C688 C689 1.370 . S
C688 C690 1.363 . S
C688 H704 0.931 . S
C689 C688 1.370 . S
C689 C693 1.408 . S
C690 C688 1.363 . S
C690 C691 1.370 . S
C690 C694 1.524 . S
C691 C683 1.503 . S
C691 C690 1.370 . S
C691 C692 1.403 . S
C692 C691 1.403 . S
C692 C693 1.404 . S
C692 C695 1.539 1_545 S
C693 C689 1.408 . S
C693 C692 1.404 . S
C693 H705 0.930 . S
C694 C690 1.524 . S
C694 H706 0.956 . S
C694 H707 0.961 . S
C694 H708 0.961 . S
C695 C692 1.539 1_565 S
C695 H709 0.958 . S
C695 H710 0.961 . S
C695 H711 0.960 . S
H696 C680 0.931 . S
H697 C685 0.929 . S
H698 C686 0.960 . S
H699 C686 0.962 . S
H700 C686 0.960 . S
H701 C687 0.961 . S
H702 C687 0.961 1_545 S
H703 C687 0.961 . S
H704 C688 0.931 . S
H705 C693 0.930 . S
H706 C694 0.956 . S
H707 C694 0.961 . S
H708 C694 0.961 . S
H709 C695 0.958 . S
H710 C695 0.961 . S
H711 C695 0.960 . S
C712 C713 1.391 . S
C712 C714 1.394 . S
C712 H728 0.931 . S
C713 C712 1.391 . S
C713 C717 1.376 . S
C714 C712 1.394 . S
C714 C715 1.369 . S
C714 C718 1.531 . S
C715 C714 1.369 . S
C715 C716 1.410 . S
C715 C723 1.503 . S
C716 C715 1.410 . S
C716 C717 1.392 . S
C716 C719 1.511 . S
C717 C713 1.376 . S
C717 C716 1.392 . S
C717 H729 0.929 . S
C718 C714 1.531 . S
C718 H730 0.960 . S
C718 H731 0.962 . S
C718 H732 0.960 . S
C719 C716 1.511 . S
C719 H733 0.961 . S
C719 H734 0.961 . S
C719 H735 0.961 . S
C720 C721 1.370 . S
C720 C722 1.363 . S
C720 H736 0.931 . S
C721 C720 1.370 . S
C721 C725 1.408 . S
C722 C720 1.363 . S
C722 C723 1.370 . S
C722 C726 1.524 . S
C723 C715 1.503 . S
C723 C722 1.370 . S
C723 C724 1.403 . S
C724 C723 1.403 . S
C724 C725 1.404 . S
C724 C727 1.539 . S
C725 C721 1.408 . S
C725 C724 1.404 . S
C725 H737 0.930 . S
C726 C722 1.524 . S
C726 H738 0.956 . S
C726 H739 0.961 . S
C726 H740 0.961 . S
C727 C724 1.539 . S
C727 H741 0.958 . S
C727 H742 0.961 . S
C727 H743 0.960 . S
H728 C712 0.931 . S
H729 C717 0.929 . S
H730 C718 0.960 . S
H731 C718 0.962 . S
H732 C718 0.960 . S
H733 C719 0.961 . S
H734 C719 0.961 . S
H735 C719 0.961 . S
H736 C720 0.931 . S
H737 C725 0.930 . S
H738 C726 0.956 . S
H739 C726 0.961 . S
H740 C726 0.961 . S
H741 C727 0.958 . S
H742 C727 0.961 . S
H743 C727 0.960 . S
C744 C745 1.391 . S
C744 C746 1.394 . S
C744 H760 0.931 . S
C745 C744 1.391 . S
C745 C749 1.376 . S
C746 C744 1.394 . S
C746 C747 1.369 . S
C746 C750 1.531 . S
C747 C746 1.369 . S
C747 C748 1.410 . S
C747 C755 1.503 . S
C748 C747 1.410 . S
C748 C749 1.392 . S
C748 C751 1.511 . S
C749 C745 1.376 . S
C749 C748 1.392 . S
C749 H761 0.929 . S
C750 C746 1.531 . S
C750 H762 0.960 . S
C750 H763 0.962 . S
C750 H764 0.960 . S
C751 C748 1.511 . S
C751 H765 0.961 . S
C751 H766 0.961 . S
C751 H767 0.961 . S
C752 C753 1.370 . S
C752 C754 1.363 . S
C752 H768 0.931 . S
C753 C752 1.370 . S
C753 C757 1.408 . S
C754 C752 1.363 . S
C754 C755 1.370 . S
C754 C758 1.524 . S
C755 C747 1.503 . S
C755 C754 1.370 . S
C755 C756 1.403 . S
C756 C755 1.403 . S
C756 C757 1.404 . S
C756 C759 1.539 . S
C757 C753 1.408 . S
C757 C756 1.404 . S
C757 H769 0.930 . S
C758 C754 1.524 . S
C758 H770 0.956 . S
C758 H771 0.961 . S
C758 H772 0.961 . S
C759 C756 1.539 . S
C759 H773 0.958 . S
C759 H774 0.961 . S
C759 H775 0.960 . S
H760 C744 0.931 . S
H761 C749 0.929 . S
H762 C750 0.960 . S
H763 C750 0.962 . S
H764 C750 0.960 . S
H765 C751 0.961 . S
H766 C751 0.961 . S
H767 C751 0.961 . S
H768 C752 0.931 . S
H769 C757 0.930 . S
H770 C758 0.956 . S
H771 C758 0.961 . S
H772 C758 0.961 . S
H773 C759 0.958 . S
H774 C759 0.961 . S
H775 C759 0.960 . S
C776 C777 1.391 1_655 S
C776 C778 1.394 . S
C776 H792 0.931 . S
C777 C776 1.391 1_455 S
C777 C781 1.376 . S
C778 C776 1.394 . S
C778 C779 1.369 1_655 S
C778 C782 1.531 . S
C779 C778 1.369 1_455 S
C779 C780 1.410 . S
C779 C787 1.503 . S
C780 C779 1.410 . S
C780 C781 1.392 . S
C780 C783 1.511 1_556 S
C781 C777 1.376 . S
C781 C780 1.392 . S
C781 H793 0.929 1_556 S
C782 C778 1.531 . S
C782 H794 0.960 . S
C782 H795 0.962 . S
C782 H796 0.960 . S
C783 C780 1.511 1_554 S
C783 H797 0.961 . S
C783 H798 0.961 . S
C783 H799 0.960 1_554 S
C784 C785 1.370 1_655 S
C784 C786 1.363 . S
C784 H800 0.931 . S
C785 C784 1.370 1_455 S
C785 C789 1.408 . S
C786 C784 1.363 . S
C786 C787 1.370 1_655 S
C786 C790 1.524 1_556 S
C787 C779 1.503 . S
C787 C786 1.370 1_455 S
C787 C788 1.403 . S
C788 C787 1.403 . S
C788 C789 1.404 . S
C788 C791 1.539 . S
C789 C785 1.408 . S
C789 C788 1.404 . S
C789 H801 0.930 . S
C790 C786 1.524 1_554 S
C790 H802 0.956 1_554 S
C790 H803 0.961 . S
C790 H804 0.961 . S
C791 C788 1.539 . S
C791 H805 0.958 . S
C791 H806 0.961 . S
C791 H807 0.960 . S
H792 C776 0.931 . S
H793 C781 0.929 1_554 S
H794 C782 0.960 . S
H795 C782 0.962 . S
H796 C782 0.960 . S
H797 C783 0.961 . S
H798 C783 0.961 . S
H799 C783 0.960 1_556 S
H800 C784 0.931 . S
H801 C789 0.930 . S
H802 C790 0.956 1_556 S
H803 C790 0.961 . S
H804 C790 0.961 . S
H805 C791 0.958 . S
H806 C791 0.961 . S
H807 C791 0.960 . S
C808 C809 1.391 . S
C808 C810 1.394 . S
C808 H824 0.931 . S
C809 C808 1.391 . S
C809 C813 1.376 1_545 S
C810 C808 1.394 . S
C810 C811 1.369 . S
C810 C814 1.531 . S
C811 C810 1.369 . S
C811 C812 1.410 1_545 S
C811 C819 1.503 . S
C812 C811 1.410 1_565 S
C812 C813 1.392 . S
C812 C815 1.511 . S
C813 C809 1.376 1_565 S
C813 C812 1.392 . S
C813 H825 0.929 . S
C814 C810 1.531 . S
C814 H826 0.960 . S
C814 H827 0.962 . S
C814 H828 0.960 . S
C815 C812 1.511 . S
C815 H829 0.961 . S
C815 H830 0.961 . S
C815 H831 0.961 1_556 S
C816 C817 1.370 . S
C816 C818 1.363 . S
C816 H832 0.931 . S
C817 C816 1.370 . S
C817 C821 1.408 . S
C818 C816 1.363 . S
C818 C819 1.370 . S
C818 C822 1.524 1_545 S
C819 C811 1.503 . S
C819 C818 1.370 . S
C819 C820 1.403 . S
C820 C819 1.403 . S
C820 C821 1.404 . S
C820 C823 1.539 1_556 S
C821 C817 1.408 . S
C821 C820 1.404 . S
C821 H833 0.930 1_556 S
C822 C818 1.524 1_565 S
C822 H834 0.956 1_565 S
C822 H835 0.961 . S
C822 H836 0.961 . S
C823 C820 1.539 1_554 S
C823 H837 0.958 . S
C823 H838 0.961 . S
C823 H839 0.960 . S
H824 C808 0.931 . S
H825 C813 0.929 . S
H826 C814 0.960 . S
H827 C814 0.962 . S
H828 C814 0.960 . S
H829 C815 0.961 . S
H830 C815 0.961 . S
H831 C815 0.961 1_554 S
H832 C816 0.931 . S
H833 C821 0.930 1_554 S
H834 C822 0.956 1_545 S
H835 C822 0.961 . S
H836 C822 0.961 . S
H837 C823 0.958 . S
H838 C823 0.961 . S
H839 C823 0.960 . S
C840 C841 1.391 . S
C840 C842 1.394 . S
C840 H856 0.931 . S
C841 C840 1.391 . S
C841 C845 1.376 . S
C842 C840 1.394 . S
C842 C843 1.369 . S
C842 C846 1.531 . S
C843 C842 1.369 . S
C843 C844 1.410 . S
C843 C851 1.503 . S
C844 C843 1.410 . S
C844 C845 1.392 . S
C844 C847 1.511 . S
C845 C841 1.376 . S
C845 C844 1.392 . S
C845 H857 0.929 . S
C846 C842 1.531 . S
C846 H858 0.960 . S
C846 H859 0.962 . S
C846 H860 0.960 . S
C847 C844 1.511 . S
C847 H861 0.961 . S
C847 H862 0.961 . S
C847 H863 0.961 . S
C848 C849 1.370 . S
C848 C850 1.363 . S
C848 H864 0.931 . S
C849 C848 1.370 . S
C849 C853 1.408 . S
C850 C848 1.363 . S
C850 C851 1.370 . S
C850 C854 1.524 1_556 S
C851 C843 1.503 . S
C851 C850 1.370 . S
C851 C852 1.403 . S
C852 C851 1.403 . S
C852 C853 1.404 . S
C852 C855 1.539 . S
C853 C849 1.408 . S
C853 C852 1.404 . S
C853 H865 0.930 . S
C854 C850 1.524 1_554 S
C854 H866 0.956 . S
C854 H867 0.961 . S
C854 H868 0.961 . S
C855 C852 1.539 . S
C855 H869 0.958 . S
C855 H870 0.961 . S
C855 H871 0.960 . S
H856 C840 0.931 . S
H857 C845 0.929 . S
H858 C846 0.960 . S
H859 C846 0.962 . S
H860 C846 0.960 . S
H861 C847 0.961 . S
H862 C847 0.961 . S
H863 C847 0.961 . S
H864 C848 0.931 . S
H865 C853 0.930 . S
H866 C854 0.956 . S
H867 C854 0.961 . S
H868 C854 0.961 . S
H869 C855 0.958 . S
H870 C855 0.961 . S
H871 C855 0.960 . S
C872 C873 1.391 . S
C872 C874 1.394 . S
C872 H888 0.931 . S
C873 C872 1.391 . S
C873 C877 1.376 . S
C874 C872 1.394 . S
C874 C875 1.369 . S
C874 C878 1.531 . S
C875 C874 1.369 . S
C875 C876 1.410 . S
C875 C883 1.503 . S
C876 C875 1.410 . S
C876 C877 1.392 . S
C876 C879 1.511 1_556 S
C877 C873 1.376 . S
C877 C876 1.392 . S
C877 H889 0.929 1_556 S
C878 C874 1.531 . S
C878 H890 0.960 . S
C878 H891 0.962 . S
C878 H892 0.960 . S
C879 C876 1.511 1_554 S
C879 H893 0.961 . S
C879 H894 0.961 . S
C879 H895 0.961 . S
C880 C881 1.370 . S
C880 C882 1.363 . S
C880 H896 0.931 . S
C881 C880 1.370 . S
C881 C885 1.408 . S
C882 C880 1.363 . S
C882 C883 1.370 . S
C882 C886 1.524 . S
C883 C875 1.503 . S
C883 C882 1.370 . S
C883 C884 1.403 . S
C884 C883 1.403 . S
C884 C885 1.404 . S
C884 C887 1.539 . S
C885 C881 1.408 . S
C885 C884 1.404 . S
C885 H897 0.930 . S
C886 C882 1.524 . S
C886 H898 0.956 . S
C886 H899 0.961 . S
C886 H900 0.961 . S
C887 C884 1.539 . S
C887 H901 0.958 . S
C887 H902 0.961 1_556 S
C887 H903 0.960 1_556 S
H888 C872 0.931 . S
H889 C877 0.929 1_554 S
H890 C878 0.960 . S
H891 C878 0.962 . S
H892 C878 0.960 . S
H893 C879 0.961 . S
H894 C879 0.961 . S
H895 C879 0.961 . S
H896 C880 0.931 . S
H897 C885 0.930 . S
H898 C886 0.956 . S
H899 C886 0.961 . S
H900 C886 0.961 . S
H901 C887 0.958 . S
H902 C887 0.961 1_554 S
H903 C887 0.960 1_554 S
C904 C905 1.391 1_455 S
C904 C906 1.394 . S
C904 H920 0.931 . S
C905 C904 1.391 1_655 S
C905 C909 1.376 . S
C906 C904 1.394 . S
C906 C907 1.369 1_455 S
C906 C910 1.531 . S
C907 C906 1.369 1_655 S
C907 C908 1.410 . S
C907 C915 1.503 . S
C908 C907 1.410 . S
C908 C909 1.392 . S
C908 C911 1.511 . S
C909 C905 1.376 . S
C909 C908 1.392 . S
C909 H921 0.929 . S
C910 C906 1.531 . S
C910 H922 0.960 . S
C910 H923 0.962 . S
C910 H924 0.960 . S
C911 C908 1.511 . S
C911 H925 0.961 . S
C911 H926 0.961 . S
C911 H927 0.961 . S
C912 C913 1.370 . S
C912 C914 1.363 . S
C912 H928 0.931 . S
C913 C912 1.370 . S
C913 C917 1.408 . S
C914 C912 1.363 . S
C914 C915 1.370 . S
C914 C918 1.524 1_655 S
C915 C907 1.503 . S
C915 C914 1.370 . S
C915 C916 1.403 . S
C916 C915 1.403 . S
C916 C917 1.404 . S
C916 C919 1.539 . S
C917 C913 1.408 . S
C917 C916 1.404 . S
C917 H929 0.930 . S
C918 C914 1.524 1_455 S
C918 H930 0.956 . S
C918 H931 0.961 1_455 S
C918 H932 0.961 . S
C919 C916 1.539 . S
C919 H933 0.958 . S
C919 H934 0.961 . S
C919 H935 0.960 . S
H920 C904 0.931 . S
H921 C909 0.929 . S
H922 C910 0.960 . S
H923 C910 0.962 . S
H924 C910 0.960 . S
H925 C911 0.961 . S
H926 C911 0.961 . S
H927 C911 0.961 . S
H928 C912 0.931 . S
H929 C917 0.930 . S
H930 C918 0.956 . S
H931 C918 0.961 1_655 S
H932 C918 0.961 . S
H933 C919 0.958 . S
H934 C919 0.961 . S
H935 C919 0.960 . S
C936 C937 1.391 . S
C936 C938 1.394 . S
C936 H952 0.931 . S
C937 C936 1.391 . S
C937 C941 1.376 1_565 S
C938 C936 1.394 . S
C938 C939 1.369 . S
C938 C942 1.531 . S
C939 C938 1.369 . S
C939 C940 1.410 1_565 S
C939 C947 1.503 . S
C940 C939 1.410 1_545 S
C940 C941 1.392 . S
C940 C943 1.511 . S
C941 C937 1.376 1_545 S
C941 C940 1.392 . S
C941 H953 0.929 . S
C942 C938 1.531 . S
C942 H954 0.960 . S
C942 H955 0.962 . S
C942 H956 0.960 . S
C943 C940 1.511 . S
C943 H957 0.961 . S
C943 H958 0.961 . S
C943 H959 0.961 . S
C944 C945 1.363 1_545 S
C944 C946 1.364 . S
C944 H960 0.938 . S
C945 C944 1.363 1_565 S
C945 C949 1.408 . S
C946 C944 1.364 . S
C946 C947 1.370 1_545 S
C946 C950 1.524 . S
C947 C939 1.503 . S
C947 C946 1.370 1_565 S
C947 C948 1.403 . S
C948 C947 1.403 . S
C948 C949 1.404 . S
C948 C951 1.539 . S
C949 C945 1.408 . S
C949 C948 1.404 . S
C949 H961 0.930 . S
C950 C946 1.524 . S
C950 H962 0.956 . S
C950 H963 0.961 . S
C950 H964 0.961 . S
C951 C948 1.539 . S
C951 H965 0.958 . S
C951 H966 0.961 . S
C951 H967 0.960 . S
H952 C936 0.931 . S
H953 C941 0.929 . S
H954 C942 0.960 . S
H955 C942 0.962 . S
H956 C942 0.960 . S
H957 C943 0.961 . S
H958 C943 0.961 . S
H959 C943 0.961 . S
H960 C944 0.938 . S
H961 C949 0.930 . S
H962 C950 0.956 . S
H963 C950 0.961 . S
H964 C950 0.961 . S
H965 C951 0.958 . S
H966 C951 0.961 . S
H967 C951 0.960 . S
C968 C969 1.391 . S
C968 C970 1.394 . S
C968 H984 0.931 . S
C969 C968 1.391 . S
C969 C973 1.376 . S
C970 C968 1.394 . S
C970 C971 1.369 . S
C970 C974 1.531 . S
C971 C970 1.369 . S
C971 C972 1.410 . S
C971 C979 1.503 . S
C972 C971 1.410 . S
C972 C973 1.392 . S
C972 C975 1.511 . S
C973 C969 1.376 . S
C973 C972 1.392 . S
C973 H985 0.929 . S
C974 C970 1.531 . S
C974 H986 0.960 . S
C974 H987 0.962 . S
C974 H988 0.960 . S
C975 C972 1.511 . S
C975 H989 0.961 . S
C975 H990 0.961 . S
C975 H991 0.961 . S
C976 C977 1.370 . S
C976 C978 1.363 . S
C976 H992 0.931 . S
C977 C976 1.370 . S
C977 C981 1.408 . S
C978 C976 1.363 . S
C978 C979 1.370 . S
C978 C982 1.524 . S
C979 C971 1.503 . S
C979 C978 1.370 . S
C979 C980 1.403 . S
C980 C979 1.403 . S
C980 C981 1.404 . S
C980 C983 1.539 . S
C981 C977 1.408 . S
C981 C980 1.404 . S
C981 H993 0.930 . S
C982 C978 1.524 . S
C982 H994 0.956 . S
C982 H995 0.961 . S
C982 H996 0.961 . S
C983 C980 1.539 . S
C983 H997 0.958 . S
C983 H998 0.961 . S
C983 H999 0.960 . S
H984 C968 0.931 . S
H985 C973 0.929 . S
H986 C974 0.960 . S
H987 C974 0.962 . S
H988 C974 0.960 . S
H989 C975 0.961 . S
H990 C975 0.961 . S
H991 C975 0.961 . S
H992 C976 0.931 . S
H993 C981 0.930 . S
H994 C982 0.956 . S
H995 C982 0.961 . S
H996 C982 0.961 . S
H997 C983 0.958 . S
H998 C983 0.961 . S
H999 C983 0.960 . S
C1000 C1001 1.391 . S
C1000 C1002 1.394 . S
C1000 H1016 0.931 . S
C1001 C1000 1.391 . S
C1001 C1005 1.376 . S
C1002 C1000 1.394 . S
C1002 C1003 1.369 . S
C1002 C1006 1.531 . S
C1003 C1002 1.369 . S
C1003 C1004 1.410 . S
C1003 C1011 1.503 . S
C1004 C1003 1.410 . S
C1004 C1005 1.392 . S
C1004 C1007 1.511 . S
C1005 C1001 1.376 . S
C1005 C1004 1.392 . S
C1005 H1017 0.929 . S
C1006 C1002 1.531 . S
C1006 H1018 0.960 . S
C1006 H1019 0.962 . S
C1006 H1020 0.960 . S
C1007 C1004 1.511 . S
C1007 H1021 0.961 . S
C1007 H1022 0.961 . S
C1007 H1023 0.961 . S
C1008 C1009 1.370 . S
C1008 C1010 1.363 . S
C1008 H1024 0.931 . S
C1009 C1008 1.370 . S
C1009 C1013 1.408 . S
C1010 C1008 1.363 . S
C1010 C1011 1.370 . S
C1010 C1014 1.524 . S
C1011 C1003 1.503 . S
C1011 C1010 1.370 . S
C1011 C1012 1.403 . S
C1012 C1011 1.403 . S
C1012 C1013 1.404 . S
C1012 C1015 1.539 . S
C1013 C1009 1.408 . S
C1013 C1012 1.404 . S
C1013 H1025 0.930 . S
C1014 C1010 1.524 . S
C1014 H1026 0.956 . S
C1014 H1027 0.961 . S
C1014 H1028 0.961 . S
C1015 C1012 1.539 . S
C1015 H1029 0.958 . S
C1015 H1030 0.961 . S
C1015 H1031 0.960 . S
H1016 C1000 0.931 . S
H1017 C1005 0.929 . S
H1018 C1006 0.960 . S
H1019 C1006 0.962 . S
H1020 C1006 0.960 . S
H1021 C1007 0.961 . S
H1022 C1007 0.961 . S
H1023 C1007 0.961 . S
H1024 C1008 0.931 . S
H1025 C1013 0.930 . S
H1026 C1014 0.956 . S
H1027 C1014 0.961 . S
H1028 C1014 0.961 . S
H1029 C1015 0.958 . S
H1030 C1015 0.961 . S
H1031 C1015 0.960 . S
C265 N80 1.910 1_545 S
C273 C114 1.969 1_545 S
C305 C154 1.970 . S
C297 N93 1.866 . S
C337 C194 1.964 . S
C329 N54 1.883 . S
C369 C234 1.967 1_455 S
C361 N67 1.915 1_455 S
C401 C123 1.965 1_565 S
C393 N28 1.864 1_545 S
C425 N41 1.908 . S
C433 C163 1.976 . S
C457 N2 1.877 . S
C465 C203 1.972 . S
C489 N15 1.887 1_455 S
C497 C243 1.963 1_655 S
C529 C120 0.527 . S
C521 N70 0.405 1_455 S
C561 C160 0.493 . S
C553 N83 0.479 1_545 S
C593 C200 0.487 . S
C585 N96 0.481 . S
C617 N57 0.457 . S
C625 C240 0.497 . S
C649 N18 0.465 . S
C657 C111 0.481 . S
C689 C151 0.461 . S
C681 N31 0.508 . S
C721 C191 0.485 . S
C713 N44 0.458 . S
C745 N5 0.510 . S
C753 C231 0.464 . S
C777 N66 2.158 1_455 S
C785 C115 2.233 . S
C809 N79 2.109 1_545 S
C817 C155 2.232 . S
C849 C195 2.234 . S
C841 N92 2.160 . S
C881 C235 2.237 . S
C873 N53 2.119 . S
C905 N14 2.102 . S
C913 C106 2.241 . S
C945 C146 2.234 . S
C937 N27 2.148 . S
C977 C186 2.230 . S
C969 N40 2.102 . S
C1001 N1 2.101 . S
C1009 C226 2.239 . S
