# Generated by pormake.
# Topology rtl, (3,6)-cn, num edge types: 1
# Building blocks:
#     Node 0, Type 0, BuildingBlock: KAKCAD_clean_linker_0, # of connection points: 3
#     Node 1, Type 0, BuildingBlock: KAKCAD_clean_linker_0, # of connection points: 3
#     Node 2, Type 0, BuildingBlock: KAKCAD_clean_linker_0, # of connection points: 3
#     Node 3, Type 0, BuildingBlock: KAKCAD_clean_linker_0, # of connection points: 3
#     Node 4, Type 1, BuildingBlock: FUNLAD_clean_sbu_0, # of connection points: 6
#     Node 5, Type 1, BuildingBlock: FUNLAD_clean_sbu_0, # of connection points: 6
#     Edge 6, Type (0, 1), BuildingBlock: MIFKUJ_clean_linker_0, # of connection points: 2
#     Edge 7, Type (0, 1), BuildingBlock: MIFKUJ_clean_linker_0, # of connection points: 2
#     Edge 8, Type (0, 1), BuildingBlock: MIFKUJ_clean_linker_0, # of connection points: 2
#     Edge 9, Type (0, 1), BuildingBlock: MIFKUJ_clean_linker_0, # of connection points: 2
#     Edge 10, Type (0, 1), BuildingBlock: MIFKUJ_clean_linker_0, # of connection points: 2
#     Edge 11, Type (0, 1), BuildingBlock: MIFKUJ_clean_linker_0, # of connection points: 2
#     Edge 12, Type (0, 1), BuildingBlock: MIFKUJ_clean_linker_0, # of connection points: 2
#     Edge 13, Type (0, 1), BuildingBlock: MIFKUJ_clean_linker_0, # of connection points: 2
#     Edge 14, Type (0, 1), BuildingBlock: MIFKUJ_clean_linker_0, # of connection points: 2
#     Edge 15, Type (0, 1), BuildingBlock: MIFKUJ_clean_linker_0, # of connection points: 2
#     Edge 16, Type (0, 1), BuildingBlock: MIFKUJ_clean_linker_0, # of connection points: 2
#     Edge 17, Type (0, 1), BuildingBlock: MIFKUJ_clean_linker_0, # of connection points: 2
# Relax obj value: 0.028
# Max RMSD: 0.083
# Mean RMSD: 0.072
data_MOF--net-rtl--node1-FUNLAD_clean_sbu_0--node2-KAKCAD_clean_linker_0--edge1-MIFKUJ_clean_linker_0
_symmetry_space_group_name_H-M    P1
_symmetry_Int_Tables_number       1
_symmetry_cell_setting            triclinic
loop_
_symmetry_equiv_pos_as_xyz
'x, y, z'
_cell_length_a     59.722176
_cell_length_b     49.260286
_cell_length_c     35.358046
_cell_angle_alpha  89.835309
_cell_angle_beta   90.942266
_cell_angle_gamma 90.691801
loop_
_atom_site_label
_atom_site_type_symbol
_atom_site_fract_x
_atom_site_fract_y
_atom_site_fract_z
_atom_type_partial_charge
C0 C 0.09746 0.7746 0.87752 0.0
C1 C 0.09702 0.80302 0.87398 0.0
C2 C 0.10462 0.76252 0.91146 0.0
C3 C 0.11109 0.7787 0.94253 0.0
C4 C 0.11058 0.80709 0.93889 0.0
C5 C 0.10367 0.8191 0.905 0.0
C6 C 0.11858 0.76637 0.97879 0.0
C7 C 0.13483 0.74601 0.97949 0.0
C8 C 0.14374 0.73657 0.01408 0.0
C9 C 0.13571 0.74708 0.04815 0.0
C10 C 0.11926 0.76719 0.04783 0.0
C11 C 0.11072 0.77656 0.01305 0.0
C12 C 0.11193 0.77972 0.08357 0.0
C13 C 0.10645 0.76364 0.11506 0.0
C14 C 0.11039 0.80808 0.08628 0.0
C15 C 0.10341 0.82014 0.11963 0.0
C16 C 0.09773 0.80412 0.15106 0.0
C17 C 0.1629 0.71775 0.01447 0.0
C18 C 0.16255 0.69431 0.99188 0.0
C19 C 0.18219 0.72397 0.03616 0.0
C20 C 0.20097 0.70746 0.03461 0.0
C21 C 0.20077 0.68423 0.01169 0.0
C22 C 0.18128 0.67755 0.99075 0.0
C23 C 0.09928 0.77573 0.14845 0.0
H24 H 0.0925 0.76175 0.85395 0.0
H25 H 0.10484 0.74059 0.91359 0.0
H26 H 0.11573 0.82007 0.96222 0.0
H27 H 0.10327 0.84105 0.90324 0.0
H28 H 0.14153 0.73872 0.95312 0.0
H29 H 0.09798 0.79207 0.01261 0.0
H30 H 0.14279 0.74019 0.07488 0.0
H31 H 0.10742 0.74172 0.11368 0.0
H32 H 0.11477 0.82101 0.06262 0.0
H33 H 0.10216 0.84204 0.12064 0.0
H34 H 0.14785 0.68908 0.97495 0.0
H35 H 0.18299 0.74206 0.05349 0.0
H36 H 0.09514 0.7629 0.17233 0.0
H37 H 0.18077 0.6598 0.97272 0.0
H38 H 0.21575 0.71294 0.0512 0.0
C39 C 0.59335 0.73939 0.64718 0.0
C40 C 0.58241 0.71403 0.64766 0.0
C41 C 0.60059 0.7506 0.61301 0.0
C42 C 0.59743 0.73635 0.57879 0.0
C43 C 0.58655 0.71083 0.57969 0.0
C44 C 0.57892 0.69997 0.61364 0.0
C45 C 0.60597 0.74742 0.54238 0.0
C46 C 0.62631 0.76202 0.54118 0.0
C47 C 0.63512 0.77099 0.50657 0.0
C48 C 0.62367 0.76419 0.47271 0.0
C49 C 0.60357 0.74905 0.47324 0.0
C50 C 0.59443 0.74191 0.50828 0.0
C51 C 0.59303 0.73866 0.43751 0.0
C52 C 0.59346 0.7539 0.40374 0.0
C53 C 0.58334 0.71246 0.43667 0.0
C54 C 0.57439 0.70178 0.40319 0.0
C55 C 0.57521 0.71677 0.36947 0.0
C56 C 0.65668 0.78657 0.50589 0.0
C57 C 0.66208 0.80542 0.5346 0.0
C58 C 0.67214 0.78262 0.4768 0.0
C59 C 0.69234 0.79722 0.47637 0.0
C60 C 0.69773 0.81568 0.50535 0.0
C61 C 0.68247 0.81961 0.5345 0.0
C62 C 0.5848 0.74294 0.36996 0.0
H63 H 0.59616 0.75058 0.67319 0.0
H64 H 0.60861 0.77042 0.61345 0.0
H65 H 0.58434 0.69881 0.55429 0.0
H66 H 0.57085 0.68015 0.61346 0.0
H67 H 0.63578 0.7655 0.56711 0.0
H68 H 0.57835 0.73153 0.50894 0.0
H69 H 0.63066 0.77018 0.44587 0.0
H70 H 0.60052 0.77424 0.40332 0.0
H71 H 0.58324 0.69972 0.46167 0.0
H72 H 0.56747 0.68135 0.40343 0.0
H73 H 0.65047 0.80942 0.55706 0.0
H74 H 0.66889 0.7679 0.45466 0.0
H75 H 0.58555 0.7549 0.34424 0.0
H76 H 0.68621 0.83395 0.55698 0.0
H77 H 0.70399 0.79366 0.4538 0.0
C78 C 0.89373 0.21272 0.13923 0.0
C79 C 0.91642 0.20608 0.14405 0.0
C80 C 0.88614 0.2252 0.10601 0.0
C81 C 0.90106 0.23146 0.07681 0.0
C82 C 0.92387 0.22547 0.08201 0.0
C83 C 0.93147 0.21292 0.11527 0.0
C84 C 0.89256 0.2429 0.04042 0.0
C85 C 0.87559 0.26238 0.04008 0.0
C86 C 0.86565 0.27114 0.00591 0.0
C87 C 0.87369 0.26097 0.97161 0.0
C88 C 0.89104 0.24191 0.97129 0.0
C89 C 0.90027 0.23295 0.00588 0.0
C90 C 0.8987 0.23009 0.93511 0.0
C91 C 0.8832 0.22304 0.9063 0.0
C92 C 0.9215 0.22472 0.92971 0.0
C93 C 0.92854 0.21194 0.89682 0.0
C94 C 0.91298 0.20434 0.86839 0.0
C95 C 0.84596 0.28946 0.00625 0.0
C96 C 0.82977 0.28666 0.03449 0.0
C97 C 0.84265 0.3091 0.97779 0.0
C98 C 0.82338 0.32498 0.97707 0.0
C99 C 0.80704 0.32182 0.00503 0.0
C100 C 0.81072 0.30277 0.03409 0.0
C101 C 0.89026 0.21041 0.87331 0.0
H102 H 0.88175 0.20806 0.16105 0.0
H103 H 0.86842 0.22922 0.1028 0.0
H104 H 0.93583 0.23026 0.06021 0.0
H105 H 0.94903 0.2079 0.11795 0.0
H106 H 0.86999 0.27057 0.06665 0.0
H107 H 0.91277 0.21718 0.00597 0.0
H108 H 0.86611 0.2674 0.94509 0.0
H109 H 0.86548 0.22659 0.90963 0.0
H110 H 0.93392 0.23017 0.95112 0.0
H111 H 0.94614 0.20735 0.89421 0.0
H112 H 0.83147 0.27152 0.05659 0.0
H113 H 0.85488 0.31214 0.95586 0.0
H114 H 0.87786 0.20519 0.85178 0.0
H115 H 0.79879 0.30009 0.05656 0.0
H116 H 0.82107 0.33928 0.95406 0.0
C117 C 0.40106 0.28834 0.36921 0.0
C118 C 0.42427 0.29063 0.36355 0.0
C119 C 0.39278 0.27659 0.40221 0.0
C120 C 0.4075 0.26707 0.4305 0.0
C121 C 0.43067 0.26864 0.42455 0.0
C122 C 0.43897 0.28014 0.39133 0.0
C123 C 0.39862 0.25731 0.46706 0.0
C124 C 0.38009 0.23954 0.46789 0.0
C125 C 0.37001 0.2325 0.5023 0.0
C126 C 0.37901 0.24332 0.53615 0.0
C127 C 0.39775 0.26083 0.53583 0.0
C128 C 0.40755 0.26754 0.50116 0.0
C129 C 0.40622 0.27364 0.57131 0.0
C130 C 0.39121 0.28466 0.59714 0.0
C131 C 0.42935 0.276 0.57882 0.0
C132 C 0.4373 0.28954 0.61113 0.0
C133 C 0.42228 0.30113 0.63647 0.0
C134 C 0.34949 0.21499 0.50278 0.0
C135 C 0.33306 0.21719 0.47395 0.0
C136 C 0.34582 0.19648 0.53253 0.0
C137 C 0.32605 0.18105 0.5338 0.0
C138 C 0.30971 0.18344 0.50504 0.0
C139 C 0.31349 0.20144 0.47493 0.0
C140 C 0.39915 0.29829 0.62933 0.0
H141 H 0.38921 0.2966 0.34886 0.0
H142 H 0.37484 0.276 0.40628 0.0
H143 H 0.44237 0.2612 0.44578 0.0
H144 H 0.45693 0.28106 0.38763 0.0
H145 H 0.37352 0.23127 0.44154 0.0
H146 H 0.4214 0.28195 0.50053 0.0
H147 H 0.37116 0.23861 0.56282 0.0
H148 H 0.3733 0.28343 0.59196 0.0
H149 H 0.44131 0.26754 0.55954 0.0
H150 H 0.45521 0.29156 0.61574 0.0
H151 H 0.33501 0.23159 0.45101 0.0
H152 H 0.35823 0.19383 0.55486 0.0
H153 H 0.38716 0.30675 0.64856 0.0
H154 H 0.301 0.20388 0.45265 0.0
H155 H 0.32357 0.1671 0.55715 0.0
C156 C 0.01709 0.96647 0.45443 0.0
N157 N 0.05081 0.02974 0.51156 0.0
C158 C 0.06909 0.01366 0.50885 0.0
C159 C 0.09057 0.0251 0.50898 0.0
C160 C 0.09328 0.0533 0.51252 0.0
C161 C 0.07419 0.06942 0.51577 0.0
C162 C 0.05298 0.05716 0.51496 0.0
Zn163 Zn 0.01969 0.01203 0.51014 0.0
C164 C 0.98956 0.03788 0.45376 0.0
N165 N 0.95521 0.97372 0.50705 0.0
C166 C 0.95332 0.94623 0.50998 0.0
C167 C 0.93676 0.98955 0.50353 0.0
C168 C 0.91537 0.97779 0.50275 0.0
C169 C 0.91296 0.94952 0.50615 0.0
C170 C 0.93224 0.93367 0.50984 0.0
Zn171 Zn 0.98626 0.99159 0.50846 0.0
O172 O 0.03002 0.98504 0.46735 0.0
C173 C 0.01675 0.96589 0.56473 0.0
O174 O 0.99731 0.96429 0.46687 0.0
H175 H 0.93862 0.01136 0.5015 0.0
H176 H 0.06702 0.99189 0.5065 0.0
H177 H 0.96819 0.93401 0.5125 0.0
O178 O 0.02996 0.9841 0.55223 0.0
O179 O 0.99685 0.96433 0.55154 0.0
H180 H 0.03823 0.06958 0.51687 0.0
O181 O 0.97556 0.019 0.55032 0.0
O182 O 0.0087 0.03868 0.55279 0.0
O183 O 0.97635 0.01926 0.4652 0.0
O184 O 0.00915 0.03977 0.46813 0.0
C185 C 0.98869 0.03695 0.56434 0.0
H186 H 0.10493 0.01201 0.50677 0.0
H187 H 0.07565 0.09128 0.51823 0.0
H188 H 0.90086 0.99069 0.50018 0.0
H189 H 0.93103 0.91177 0.51216 0.0
C190 C 0.49242 0.46817 0.9494 0.0
N191 N 0.55297 0.48067 0.00902 0.0
C192 C 0.55529 0.45329 0.00697 0.0
C193 C 0.57652 0.44185 0.00668 0.0
C194 C 0.59568 0.45866 0.00898 0.0
C195 C 0.59277 0.48688 0.0114 0.0
C196 C 0.57117 0.49751 0.01122 0.0
Zn197 Zn 0.52135 0.49612 0.0078 0.0
C198 C 0.5168 0.54174 0.95351 0.0
N199 N 0.45481 0.52691 0.00416 0.0
C200 C 0.43691 0.50999 0.9984 0.0
C201 C 0.45204 0.55403 0.00901 0.0
C202 C 0.43064 0.56508 0.00846 0.0
C203 C 0.4118 0.5482 0.00217 0.0
C204 C 0.41521 0.52025 0.99702 0.0
Zn205 Zn 0.48652 0.51166 0.00552 0.0
O206 O 0.51181 0.46785 0.96477 0.0
C207 C 0.49114 0.46614 0.06008 0.0
O208 O 0.4782 0.48516 0.96068 0.0
H209 H 0.46647 0.56717 0.01345 0.0
H210 H 0.54062 0.44025 0.00525 0.0
H211 H 0.43946 0.48847 0.99468 0.0
O212 O 0.51146 0.46814 0.05018 0.0
O213 O 0.47661 0.48166 0.04512 0.0
H214 H 0.56895 0.51924 0.01278 0.0
O215 O 0.49549 0.53817 0.05067 0.0
O216 O 0.53036 0.5246 0.05014 0.0
O217 O 0.49686 0.54127 0.9656 0.0
O218 O 0.53079 0.52453 0.96603 0.0
C219 C 0.51547 0.53992 0.06344 0.0
H220 H 0.57784 0.42003 0.00406 0.0
H221 H 0.60699 0.50065 0.01373 0.0
H222 H 0.42895 0.58664 0.01333 0.0
H223 H 0.40132 0.50642 0.99152 0.0
H224 H 0.28123 0.17982 0.56421 0.0
H225 H 0.24502 0.15618 0.56607 0.0
H226 H 0.25436 0.12775 0.45205 0.0
H227 H 0.29019 0.15235 0.44971 0.0
H228 H 0.21424 0.14437 0.45749 0.0
H229 H 0.25944 0.08544 0.53314 0.0
H230 H 0.28582 0.07271 0.58438 0.0
H231 H 0.23949 0.10021 0.66716 0.0
H232 H 0.21295 0.11345 0.61638 0.0
H233 H 0.12674 0.04424 0.46277 0.0
H234 H 0.16415 0.06528 0.46231 0.0
H235 H 0.14835 0.11133 0.56172 0.0
H236 H 0.11081 0.09052 0.56215 0.0
H237 H 0.19159 0.08442 0.56353 0.0
H238 H 0.14676 0.14348 0.48424 0.0
H239 H 0.12083 0.15352 0.43117 0.0
H240 H 0.16788 0.12168 0.35271 0.0
H241 H 0.19396 0.11108 0.40542 0.0
C242 C 0.2756 0.16829 0.53973 0.0
C243 C 0.28846 0.1678 0.50686 0.0
C244 C 0.25496 0.15469 0.54083 0.0
C245 C 0.24706 0.1398 0.50939 0.0
C246 C 0.26006 0.1391 0.47666 0.0
C247 C 0.28052 0.15309 0.47533 0.0
C248 C 0.22485 0.12587 0.51008 0.0
C249 C 0.20949 0.13093 0.48043 0.0
C250 C 0.21839 0.10865 0.54029 0.0
C251 C 0.23429 0.10067 0.57092 0.0
C252 C 0.25495 0.08896 0.56226 0.0
C253 C 0.26992 0.08162 0.59122 0.0
C254 C 0.26436 0.08571 0.62899 0.0
C255 C 0.24379 0.09708 0.63788 0.0
C256 C 0.22876 0.10449 0.60902 0.0
C257 C 0.13131 0.05876 0.4846 0.0
C258 C 0.11593 0.06583 0.51246 0.0
C259 C 0.1526 0.0708 0.48423 0.0
C260 C 0.1589 0.08986 0.51192 0.0
C261 C 0.14373 0.09664 0.54014 0.0
C262 C 0.12231 0.0849 0.54021 0.0
C263 C 0.18127 0.10302 0.51107 0.0
C264 C 0.19654 0.0978 0.54064 0.0
C265 C 0.18781 0.11971 0.48053 0.0
C266 C 0.1722 0.12623 0.44881 0.0
C267 C 0.15149 0.1384 0.45571 0.0
C268 C 0.13678 0.14423 0.42569 0.0
C269 C 0.14267 0.13817 0.3886 0.0
C270 C 0.16332 0.12633 0.38146 0.0
C271 C 0.17807 0.12042 0.41139 0.0
H272 H 0.13127 0.1427 0.3654 0.0
H273 H 0.27597 0.08001 0.65138 0.0
H274 H 0.24309 0.70209 0.99788 0.0
H275 H 0.27708 0.67506 0.99361 0.0
H276 H 0.23859 0.6021 0.01479 0.0
H277 H 0.20436 0.62914 0.01876 0.0
H278 H 0.27951 0.60898 0.06011 0.0
H279 H 0.25405 0.61031 0.93049 0.0
H280 H 0.24063 0.63204 0.87159 0.0
H281 H 0.30157 0.6789 0.86586 0.0
H282 H 0.31524 0.65774 0.92507 0.0
H283 H 0.37257 0.52479 0.02697 0.0
H284 H 0.33515 0.54398 0.02522 0.0
H285 H 0.36159 0.61755 0.97561 0.0
H286 H 0.39868 0.59773 0.9744 0.0
H287 H 0.32415 0.60642 0.94308 0.0
H288 H 0.34862 0.61044 0.07328 0.0
H289 H 0.36275 0.59223 0.13406 0.0
H290 H 0.30512 0.5396 0.14122 0.0
H291 H 0.29078 0.55726 0.0802 0.0
C292 C 0.2419 0.68029 0.00167 0.0
C293 C 0.22116 0.66765 0.00872 0.0
C294 C 0.26126 0.66489 0.99904 0.0
C295 C 0.26026 0.63663 0.00372 0.0
C296 C 0.23962 0.62391 0.01103 0.0
C297 C 0.22014 0.6393 0.01311 0.0
C298 C 0.28098 0.6206 0.0015 0.0
C299 C 0.28913 0.60792 0.03439 0.0
C300 C 0.29369 0.61998 0.96817 0.0
C301 C 0.28559 0.63259 0.93239 0.0
C302 C 0.26452 0.62541 0.91684 0.0
C303 C 0.25688 0.63759 0.88337 0.0
C304 C 0.27022 0.65688 0.86504 0.0
C305 C 0.29125 0.66397 0.8801 0.0
C306 C 0.29896 0.65186 0.9136 0.0
C307 C 0.37043 0.54486 0.01504 0.0
C308 C 0.38882 0.55972 0.00106 0.0
C309 C 0.349 0.55599 0.01458 0.0
C310 C 0.34556 0.58246 0.00098 0.0
C311 C 0.36379 0.59715 0.98645 0.0
C312 C 0.38512 0.58588 0.98628 0.0
C313 C 0.32307 0.59506 0.00198 0.0
C314 C 0.31453 0.60714 0.96881 0.0
C315 C 0.31019 0.59556 0.03529 0.0
C316 C 0.31876 0.58494 0.07198 0.0
C317 C 0.33905 0.59483 0.08768 0.0
C318 C 0.34708 0.58464 0.12219 0.0
C319 C 0.33488 0.56471 0.14143 0.0
C320 C 0.31458 0.555 0.12625 0.0
C321 C 0.30648 0.5651 0.09172 0.0
H322 H 0.34112 0.55684 0.16815 0.0
H323 H 0.26427 0.66629 0.83912 0.0
H324 H 0.72889 0.81835 0.56222 0.0
H325 H 0.76507 0.84213 0.56197 0.0
H326 H 0.75102 0.87112 0.44875 0.0
H327 H 0.71527 0.84619 0.44842 0.0
H328 H 0.79168 0.85648 0.45196 0.0
H329 H 0.74779 0.91255 0.53103 0.0
H330 H 0.72293 0.9235 0.58372 0.0
H331 H 0.7728 0.89644 0.66366 0.0
H332 H 0.79785 0.88497 0.61143 0.0
H333 H 0.87819 0.95849 0.45678 0.0
H334 H 0.84103 0.93673 0.45646 0.0
H335 H 0.85976 0.89002 0.55511 0.0
H336 H 0.89698 0.9116 0.55546 0.0
H337 H 0.81662 0.91551 0.55843 0.0
H338 H 0.85996 0.85924 0.47554 0.0
H339 H 0.88422 0.85112 0.42105 0.0
H340 H 0.83377 0.88295 0.3458 0.0
H341 H 0.80934 0.89163 0.39995 0.0
C342 C 0.73355 0.82992 0.5374 0.0
C343 C 0.71935 0.83059 0.5054 0.0
C344 C 0.75416 0.84363 0.53731 0.0
C345 C 0.76065 0.85891 0.50561 0.0
C346 C 0.74642 0.85952 0.47357 0.0
C347 C 0.72601 0.84534 0.47339 0.0
C348 C 0.78252 0.87368 0.5055 0.0
C349 C 0.79691 0.86972 0.47501 0.0
C350 C 0.78961 0.89073 0.53576 0.0
C351 C 0.77462 0.89767 0.56728 0.0
C352 C 0.75339 0.90875 0.55984 0.0
C353 C 0.73928 0.91508 0.58962 0.0
C354 C 0.74626 0.91061 0.62701 0.0
C355 C 0.7674 0.89986 0.63469 0.0
C356 C 0.78158 0.89347 0.605 0.0
C357 C 0.87431 0.94367 0.47847 0.0
C358 C 0.89043 0.93663 0.50608 0.0
C359 C 0.85317 0.93121 0.47817 0.0
C360 C 0.84776 0.91174 0.50568 0.0
C361 C 0.86368 0.90501 0.53365 0.0
C362 C 0.88492 0.91718 0.53367 0.0
C363 C 0.82554 0.89813 0.50509 0.0
C364 C 0.81118 0.90235 0.53541 0.0
C365 C 0.81831 0.88175 0.47441 0.0
C366 C 0.83292 0.87634 0.44183 0.0
C367 C 0.85412 0.86472 0.44741 0.0
C368 C 0.86789 0.85998 0.41658 0.0
C369 C 0.86057 0.86659 0.38 0.0
C370 C 0.83944 0.87788 0.37416 0.0
C371 C 0.82561 0.88269 0.40491 0.0
H372 H 0.87125 0.8629 0.35616 0.0
H373 H 0.73531 0.91551 0.65003 0.0
H374 H 0.76487 0.3046 0.02384 0.0
H375 H 0.73046 0.33037 0.02254 0.0
H376 H 0.76614 0.40005 0.97879 0.0
H377 H 0.80117 0.3749 0.98259 0.0
H378 H 0.73812 0.41616 0.02917 0.0
H379 H 0.7315 0.35901 0.92135 0.0
H380 H 0.7322 0.31636 0.88509 0.0
H381 H 0.67918 0.28348 0.95251 0.0
H382 H 0.67836 0.32581 0.98954 0.0
H383 H 0.63347 0.47895 0.97497 0.0
H384 H 0.67048 0.45829 0.97278 0.0
H385 H 0.64635 0.3903 0.03812 0.0
H386 H 0.60962 0.41116 0.04186 0.0
H387 H 0.66922 0.37609 0.97091 0.0
H388 H 0.67835 0.4344 0.08045 0.0
H389 H 0.67782 0.47836 0.1136 0.0
H390 H 0.72648 0.51081 0.0371 0.0
H391 H 0.72706 0.46713 0.00314 0.0
C392 C 0.76559 0.32553 0.01449 0.0
C393 C 0.78593 0.33763 0.00343 0.0
C394 C 0.74574 0.34014 0.01317 0.0
C395 C 0.74557 0.367 -0.00018 0.0
C396 C 0.76582 0.37928 0.98895 0.0
C397 C 0.78581 0.36476 0.99077 0.0
C398 C 0.72424 0.38222 0.99789 0.0
C399 C 0.72317 0.40758 0.01581 0.0
C400 C 0.70463 0.37102 0.98072 0.0
C401 C 0.70499 0.34553 0.95841 0.0
C402 C 0.72009 0.34262 0.92862 0.0
C403 C 0.72049 0.31851 0.9079 0.0
C404 C 0.70577 0.29721 0.91654 0.0
C405 C 0.69058 0.3 0.94586 0.0
C406 C 0.69012 0.32406 0.9667 0.0
C407 C 0.6361 0.45983 0.98947 0.0
C408 C 0.61846 0.4467 0.00848 0.0
C409 C 0.65724 0.448 0.98797 0.0
C410 C 0.66107 0.42278 0.00523 0.0
C411 C 0.64363 0.4097 0.02439 0.0
C412 C 0.6226 0.42162 0.02629 0.0
C413 C 0.68312 0.40958 0.00278 0.0
C414 C 0.68428 0.38467 0.98391 0.0
C415 C 0.70284 0.4214 0.01849 0.0
C416 C 0.70256 0.44761 0.039 0.0
C417 C 0.68878 0.45099 0.07048 0.0
C418 C 0.68851 0.47584 0.08946 0.0
C419 C 0.70206 0.49739 0.07739 0.0
C420 C 0.71596 0.49411 0.04638 0.0
C421 C 0.71628 0.46931 0.02727 0.0
H422 H 0.70182 0.51661 0.09213 0.0
H423 H 0.70612 0.27855 0.90047 0.0
H424 H 0.11577 0.84861 0.18641 0.0
H425 H 0.10159 0.87216 0.24163 0.0
H426 H 0.0482 0.81283 0.25048 0.0
H427 H 0.06211 0.78937 0.19462 0.0
H428 H 0.03308 0.86497 0.25454 0.0
H429 H 0.09051 0.81223 0.31381 0.0
H430 H 0.1285 0.79392 0.32237 0.0
H431 H 0.15497 0.87457 0.33844 0.0
H432 H 0.11717 0.89342 0.32943 0.0
H433 H 0.99635 0.92025 0.42824 0.0
H434 H 0.00975 0.889 0.38027 0.0
H435 H 0.06895 0.93891 0.36643 0.0
H436 H 0.05599 0.96979 0.4151 0.0
H437 H 0.07987 0.88734 0.36771 0.0
H438 H 0.02381 0.94047 0.30281 0.0
H439 H 0.98624 0.95973 0.2928 0.0
H440 H 0.9577 0.87943 0.28585 0.0
H441 H 0.99509 0.85969 0.29631 0.0
C442 C 0.10103 0.84055 0.20015 0.0
C443 C 0.09001 0.8172 0.18615 0.0
C444 C 0.09305 0.85389 0.23187 0.0
C445 C 0.07395 0.84411 0.25031 0.0
C446 C 0.06302 0.82063 0.2367 0.0
C447 C 0.07106 0.80717 0.205 0.0
C448 C 0.06491 0.85921 0.28274 0.0
C449 C 0.04314 0.86944 0.27964 0.0
C450 C 0.07826 0.86553 0.31503 0.0
C451 C 0.10101 0.85425 0.32066 0.0
C452 C 0.10445 0.82609 0.31889 0.0
C453 C 0.12595 0.81561 0.32387 0.0
C454 C 0.14414 0.83307 0.33087 0.0
C455 C 0.14086 0.86106 0.33299 0.0
C456 C 0.1194 0.87165 0.328 0.0
C457 C 0.01222 0.92457 0.41496 0.0
C458 C 0.02506 0.94757 0.42532 0.0
C459 C 0.01983 0.90673 0.38746 0.0
C460 C 0.04023 0.91179 0.36939 0.0
C461 C 0.05317 0.93459 0.38 0.0
C462 C 0.04569 0.95228 0.40773 0.0
C463 C 0.04814 0.8935 0.33926 0.0
C464 C 0.06971 0.88266 0.3428 0.0
C465 C 0.03466 0.88677 0.30724 0.0
C466 C 0.0122 0.89861 0.30075 0.0
C467 C 0.00949 0.92692 0.29943 0.0
C468 C 0.98824 0.93792 0.29363 0.0
C469 C 0.96959 0.92081 0.28881 0.0
C470 C 0.97216 0.89266 0.28965 0.0
C471 C 0.99338 0.88155 0.29549 0.0
H472 H 0.95314 0.92937 0.28432 0.0
H473 H 0.16078 0.82492 0.33471 0.0
H474 H 0.54088 0.69514 0.66529 0.0
H475 H 0.53009 0.66985 0.7222 0.0
H476 H 0.59749 0.67813 0.7667 0.0
H477 H 0.60823 0.70398 0.71014 0.0
H478 H 0.57796 0.62249 0.76121 0.0
H479 H 0.56256 0.71171 0.80939 0.0
H480 H 0.54535 0.75695 0.80737 0.0
H481 H 0.47985 0.72006 0.80335 0.0
H482 H 0.49668 0.67457 0.80477 0.0
H483 H 0.55928 0.55715 0.93528 0.0
H484 H 0.57067 0.58993 0.88715 0.0
H485 H 0.50129 0.60412 0.85815 0.0
H486 H 0.48979 0.57215 0.9074 0.0
H487 H 0.52278 0.65 0.85681 0.0
H488 H 0.5353 0.56255 0.80394 0.0
H489 H 0.54992 0.51602 0.80136 0.0
H490 H 0.61729 0.54726 0.80794 0.0
H491 H 0.60307 0.59401 0.81107 0.0
C492 C 0.55325 0.6919 0.68755 0.0
C493 C 0.57534 0.70145 0.68356 0.0
C494 C 0.54709 0.67756 0.71995 0.0
C495 C 0.56302 0.67223 0.7485 0.0
C496 C 0.58499 0.68218 0.74492 0.0
C497 C 0.59106 0.69699 0.71283 0.0
C498 C 0.55704 0.65463 0.78077 0.0
C499 C 0.56622 0.62861 0.78259 0.0
C500 C 0.54105 0.66239 0.80754 0.0
C501 C 0.5309 0.68973 0.80682 0.0
C502 C 0.54449 0.71324 0.80771 0.0
C503 C 0.53481 0.73893 0.80676 0.0
C504 C 0.51152 0.74138 0.80513 0.0
C505 C 0.49788 0.71814 0.80456 0.0
C506 C 0.50749 0.69239 0.80548 0.0
C507 C 0.54645 0.5673 0.91869 0.0
C508 C 0.52365 0.56195 0.92489 0.0
C509 C 0.55298 0.58597 0.89109 0.0
C510 C 0.53685 0.59913 0.8685 0.0
C511 C 0.51405 0.5942 0.87517 0.0
C512 C 0.50749 0.57586 0.90323 0.0
C513 C 0.54377 0.61769 0.83753 0.0
C514 C 0.53468 0.64385 0.83572 0.0
C515 C 0.55948 0.60984 0.81014 0.0
C516 C 0.56811 0.58176 0.80815 0.0
C517 C 0.55323 0.55949 0.80512 0.0
C518 C 0.56145 0.53308 0.80351 0.0
C519 C 0.58451 0.52867 0.80459 0.0
C520 C 0.59943 0.5507 0.80717 0.0
C521 C 0.5913 0.57716 0.80883 0.0
H522 H 0.59084 0.5082 0.80334 0.0
H523 H 0.50406 0.76129 0.8044 0.0
H524 H 0.95509 0.21412 0.18576 0.0
H525 H 0.96815 0.18811 0.24078 0.0
H526 H 0.90831 0.13831 0.2348 0.0
H527 H 0.89525 0.16395 0.17971 0.0
H528 H 0.91852 0.15315 0.30717 0.0
H529 H 0.95713 0.11554 0.20065 0.0
H530 H 0.98126 0.11758 0.14475 0.0
H531 H 0.03565 0.14885 0.21329 0.0
H532 H 0.01173 0.14735 0.26953 0.0
H533 H 0.94966 0.03809 0.41468 0.0
H534 H 0.93798 0.06941 0.36465 0.0
H535 H 0.00104 0.11256 0.37543 0.0
H536 H 0.01304 0.08103 0.42506 0.0
H537 H 0.9905 0.10407 0.30295 0.0
H538 H 0.95318 0.13934 0.4102 0.0
H539 H 0.92945 0.13759 0.46658 0.0
H540 H 0.8732 0.11175 0.39796 0.0
H541 H 0.89668 0.11297 0.34121 0.0
C542 C 0.94477 0.19756 0.19607 0.0
C543 C 0.92414 0.19109 0.1783 0.0
C544 C 0.95222 0.18277 0.22756 0.0
C545 C 0.93927 0.16115 0.24168 0.0
C546 C 0.91851 0.15499 0.22445 0.0
C547 C 0.91105 0.16973 0.19302 0.0
C548 C 0.94745 0.14448 0.27391 0.0
C549 C 0.93416 0.14221 0.30616 0.0
C550 C 0.96815 0.13084 0.27295 0.0
C551 C 0.98257 0.13161 0.2392 0.0
C552 C 0.97418 0.12305 0.20373 0.0
C553 C 0.98783 0.12408 0.172 0.0
C554 C 0.00995 0.13341 0.17544 0.0
C555 C 0.01849 0.14167 0.21065 0.0
C556 C 0.00491 0.14072 0.24247 0.0
C557 C 0.96104 0.05428 0.4065 0.0
C558 C 0.98227 0.05708 0.42388 0.0
C559 C 0.95429 0.07225 0.37801 0.0
C560 C 0.96854 0.09353 0.36662 0.0
C561 C 0.98977 0.09632 0.38383 0.0
C562 C 0.99657 0.0783 0.41224 0.0
C563 C 0.96145 0.11246 0.33612 0.0
C564 C 0.97494 0.11517 0.30417 0.0
C565 C 0.94099 0.12661 0.33745 0.0
C566 C 0.92675 0.12603 0.37148 0.0
C567 C 0.93579 0.13309 0.40716 0.0
C568 C 0.92238 0.13223 0.43919 0.0
C569 C 0.89984 0.12451 0.43586 0.0
C570 C 0.89066 0.11771 0.40049 0.0
C571 C 0.90401 0.11851 0.36837 0.0
H572 H 0.88949 0.12384 0.46069 0.0
H573 H 0.02049 0.13419 0.15084 0.0
H574 H 0.4565 0.28847 0.68579 0.0
H575 H 0.47054 0.31534 0.73957 0.0
H576 H 0.42093 0.37623 0.7156 0.0
H577 H 0.40715 0.34982 0.66147 0.0
H578 H 0.46199 0.39872 0.72912 0.0
H579 H 0.41386 0.33209 0.78723 0.0
H580 H 0.40026 0.28587 0.80201 0.0
H581 H 0.46415 0.26663 0.85201 0.0
H582 H 0.47824 0.31266 0.83703 0.0
H583 H 0.45692 0.47134 0.90028 0.0
H584 H 0.44766 0.44106 0.84754 0.0
H585 H 0.50498 0.39203 0.87533 0.0
H586 H 0.51463 0.42252 0.92806 0.0
H587 H 0.4635 0.36213 0.86009 0.0
H588 H 0.51102 0.42945 0.80473 0.0
H589 H 0.52429 0.47595 0.79123 0.0
H590 H 0.46141 0.49399 0.7367 0.0
H591 H 0.44764 0.44761 0.75036 0.0
C592 C 0.44867 0.30765 0.69192 0.0
C593 C 0.43065 0.31698 0.66952 0.0
C594 C 0.4566 0.32287 0.72277 0.0
C595 C 0.44666 0.34768 0.73171 0.0
C596 C 0.42881 0.35712 0.70922 0.0
C597 C 0.42083 0.34189 0.67851 0.0
C598 C 0.45487 0.364 0.76435 0.0
C599 C 0.46213 0.39078 0.75778 0.0
C600 C 0.45562 0.35339 0.8016 0.0
C601 C 0.44719 0.32571 0.8106 0.0
C602 C 0.42508 0.31793 0.80106 0.0
C603 C 0.41727 0.29178 0.80954 0.0
C604 C 0.43135 0.2733 0.82783 0.0
C605 C 0.45327 0.28095 0.83777 0.0
C606 C 0.46118 0.30707 0.82931 0.0
C607 C 0.46755 0.45408 0.89529 0.0
C608 C 0.48656 0.44936 0.91822 0.0
C609 C 0.46225 0.43686 0.86512 0.0
C610 C 0.47572 0.41446 0.85754 0.0
C611 C 0.49442 0.40927 0.88082 0.0
C612 C 0.49994 0.42674 0.91076 0.0
C613 C 0.47027 0.39685 0.82479 0.0
C614 C 0.46354 0.36991 0.83134 0.0
C615 C 0.46999 0.40728 0.78751 0.0
C616 C 0.47822 0.43513 0.7789 0.0
C617 C 0.49995 0.4434 0.79014 0.0
C618 C 0.50758 0.46973 0.78241 0.0
C619 C 0.49368 0.48797 0.76322 0.0
C620 C 0.47215 0.47985 0.75161 0.0
C621 C 0.46443 0.45352 0.7593 0.0
H622 H 0.49963 0.50836 0.75728 0.0
H623 H 0.42527 0.25307 0.83439 0.0
H624 H 0.59723 0.71294 0.30279 0.0
H625 H 0.58592 0.68619 0.24729 0.0
H626 H 0.52342 0.66551 0.30055 0.0
H627 H 0.53502 0.69159 0.35644 0.0
H628 H 0.54177 0.62182 0.27608 0.0
H629 H 0.52704 0.70915 0.2218 0.0
H630 H 0.53542 0.75646 0.20337 0.0
H631 H 0.58867 0.72936 0.13317 0.0
H632 H 0.58081 0.6819 0.15158 0.0
H633 H 0.48751 0.56339 0.11361 0.0
H634 H 0.49739 0.5964 0.16302 0.0
H635 H 0.56629 0.59544 0.12858 0.0
H636 H 0.55669 0.56181 0.0797 0.0
H637 H 0.54462 0.65041 0.14156 0.0
H638 H 0.5601 0.56362 0.19868 0.0
H639 H 0.55137 0.51636 0.21675 0.0
H640 H 0.49579 0.54339 0.28167 0.0
H641 H 0.50392 0.59084 0.2633 0.0
C642 C 0.58089 0.70314 0.30221 0.0
C643 C 0.567 0.70421 0.33383 0.0
C644 C 0.57441 0.68789 0.2705 0.0
C645 C 0.55375 0.6739 0.26963 0.0
C646 C 0.53948 0.676 0.30062 0.0
C647 C 0.54607 0.69093 0.33247 0.0
C648 C 0.54777 0.65532 0.23795 0.0
C649 C 0.54204 0.62831 0.24674 0.0
C650 C 0.54872 0.66346 0.19953 0.0
C651 C 0.55347 0.69198 0.18836 0.0
C652 C 0.54066 0.71329 0.20267 0.0
C653 C 0.54529 0.74014 0.19218 0.0
C654 C 0.5626 0.74592 0.16719 0.0
C655 C 0.57528 0.72486 0.15256 0.0
C656 C 0.57073 0.69798 0.16298 0.0
C657 C 0.50475 0.57023 0.11655 0.0
C658 C 0.52136 0.55995 0.093 0.0
C659 C 0.51034 0.58907 0.14468 0.0
C660 C 0.53252 0.5983 0.14921 0.0
C661 C 0.54907 0.58856 0.12528 0.0
C662 C 0.54359 0.56926 0.09765 0.0
C663 C 0.53851 0.61733 0.18003 0.0
C664 C 0.54427 0.64423 0.17102 0.0
C665 C 0.5375 0.60922 0.21828 0.0
C666 C 0.53245 0.58073 0.22921 0.0
C667 C 0.54584 0.55946 0.2164 0.0
C668 C 0.54103 0.53265 0.22676 0.0
C669 C 0.523 0.52688 0.25022 0.0
C670 C 0.50972 0.5479 0.26339 0.0
C671 C 0.51442 0.57476 0.25301 0.0
H672 H 0.51942 0.50612 0.25834 0.0
H673 H 0.56616 0.76672 0.1591 0.0
H674 H 0.8913 0.16205 0.83278 0.0
H675 H 0.90397 0.13567 0.77917 0.0
H676 H 0.96434 0.18446 0.77481 0.0
H677 H 0.95126 0.2119 0.82741 0.0
H678 H 0.94867 0.17411 0.70498 0.0
H679 H 0.96431 0.12162 0.81642 0.0
H680 H 0.9557 0.09886 0.87675 0.0
H681 H 0.90714 0.04774 0.82001 0.0
H682 H 0.91525 0.07047 0.75939 0.0
H683 H 0.01124 0.07986 0.59686 0.0
H684 H 0.99816 0.10978 0.64679 0.0
H685 H 0.9353 0.06581 0.64898 0.0
H686 H 0.94822 0.03575 0.59923 0.0
H687 H 0.9531 0.07411 0.71985 0.0
H688 H 0.93793 0.12699 0.60802 0.0
H689 H 0.94739 0.1495 0.54789 0.0
H690 H 0.99623 0.19959 0.60575 0.0
H691 H 0.98728 0.17708 0.66617 0.0
C692 C 0.90709 0.16755 0.82005 0.0
C693 C 0.9203 0.18907 0.83458 0.0
C694 C 0.91444 0.15221 0.78964 0.0
C695 C 0.9353 0.15777 0.77341 0.0
C696 C 0.94825 0.1797 0.78706 0.0
C697 C 0.94084 0.19519 0.81737 0.0
C698 C 0.94376 0.14027 0.74281 0.0
C699 C 0.94992 0.15229 0.7084 0.0
C700 C 0.94507 0.11173 0.74705 0.0
C701 C 0.94024 0.09792 0.78343 0.0
C702 C 0.95168 0.10566 0.81686 0.0
C703 C 0.94691 0.09274 0.8511 0.0
C704 C 0.93085 0.07191 0.85223 0.0
C705 C 0.91956 0.0639 0.8191 0.0
C706 C 0.92425 0.07678 0.78478 0.0
C707 C 0.99461 0.07659 0.6079 0.0
C708 C 0.98076 0.05542 0.59407 0.0
C709 C 0.98713 0.09378 0.63631 0.0
C710 C 0.9657 0.09011 0.65137 0.0
C711 C 0.95189 0.06897 0.63771 0.0
C712 C 0.95929 0.05186 0.60921 0.0
C713 C 0.95781 0.10792 0.68199 0.0
C714 C 0.95184 0.09594 0.71645 0.0
C715 C 0.9568 0.13646 0.67782 0.0
C716 C 0.96209 0.15016 0.64156 0.0
C717 C 0.95081 0.14265 0.60788 0.0
C718 C 0.95606 0.15544 0.57375 0.0
C719 C 0.97244 0.17591 0.57298 0.0
C720 C 0.98356 0.1837 0.60637 0.0
C721 C 0.9784 0.17095 0.64058 0.0
H722 H 0.97648 0.18579 0.54653 0.0
H723 H 0.92718 0.06194 0.87877 0.0
H724 H 0.40733 0.2904 0.29077 0.0
H725 H 0.41945 0.31832 0.23765 0.0
H726 H 0.47365 0.35118 0.30625 0.0
H727 H 0.46081 0.32469 0.36015 0.0
H728 H 0.45386 0.39034 0.27161 0.0
H729 H 0.48182 0.30456 0.23269 0.0
H730 H 0.48034 0.25571 0.2177 0.0
H731 H 0.43145 0.2705 0.12989 0.0
H732 H 0.43241 0.31942 0.14469 0.0
H733 H 0.51724 0.4458 0.11705 0.0
H734 H 0.50594 0.41424 0.1672 0.0
H735 H 0.43933 0.40956 0.11864 0.0
H736 H 0.45026 0.44192 0.0691 0.0
H737 H 0.46547 0.35619 0.14161 0.0
H738 H 0.43874 0.44344 0.18317 0.0
H739 H 0.44244 0.49195 0.19917 0.0
H740 H 0.49191 0.4732 0.28447 0.0
H741 H 0.48914 0.42467 0.26794 0.0
C742 C 0.4218 0.30362 0.29465 0.0
C743 C 0.43301 0.30532 0.32991 0.0
C744 C 0.4289 0.31933 0.26403 0.0
C745 C 0.44761 0.33671 0.26778 0.0
C746 C 0.45918 0.33791 0.30263 0.0
C747 C 0.45195 0.32246 0.33336 0.0
C748 C 0.45437 0.3548 0.23617 0.0
C749 C 0.45671 0.38273 0.24335 0.0
C750 C 0.45766 0.34504 0.19903 0.0
C751 C 0.45702 0.31563 0.19006 0.0
C752 C 0.47061 0.29737 0.21039 0.0
C753 C 0.46989 0.26967 0.20188 0.0
C754 C 0.45576 0.26 0.17293 0.0
C755 C 0.44236 0.27802 0.15235 0.0
C756 C 0.443 0.30574 0.16076 0.0
C757 C 0.50021 0.43797 0.11701 0.0
C758 C 0.48458 0.44632 0.08933 0.0
C759 C 0.4938 0.42002 0.14562 0.0
C760 C 0.47184 0.40971 0.14646 0.0
C761 C 0.45635 0.41738 0.1183 0.0
C762 C 0.46258 0.43589 0.09022 0.0
C763 C 0.46497 0.3914 0.17739 0.0
C764 C 0.46263 0.36357 0.17 0.0
C765 C 0.46199 0.40115 0.21447 0.0
C766 C 0.46403 0.43044 0.2238 0.0
C767 C 0.45076 0.4497 0.20477 0.0
C768 C 0.45265 0.47722 0.214 0.0
C769 C 0.46754 0.4857 0.2426 0.0
C770 C 0.48054 0.46666 0.26206 0.0
C771 C 0.47886 0.43915 0.25271 0.0
H772 H 0.46888 0.50699 0.24984 0.0
H773 H 0.45523 0.23855 0.16638 0.0
H774 H 0.05981 0.79082 0.8308 0.0
H775 H 0.04556 0.81575 0.77554 0.0
H776 H 0.1029 0.86983 0.78183 0.0
H777 H 0.11701 0.84522 0.83717 0.0
H778 H 0.06564 0.89775 0.77615 0.0
H779 H 0.09655 0.82128 0.71172 0.0
H780 H 0.10171 0.77276 0.69772 0.0
H781 H 0.03185 0.76449 0.66885 0.0
H782 H 0.02621 0.8129 0.68318 0.0
H783 H 0.05702 0.96652 0.60226 0.0
H784 H 0.06957 0.93609 0.65268 0.0
H785 H 0.00686 0.89193 0.6453 0.0
H786 H 0.9941 0.92231 0.59454 0.0
H787 H 0.04422 0.85808 0.65171 0.0
H788 H 0.01383 0.93507 0.71454 0.0
H789 H 0.00909 0.9838 0.72757 0.0
H790 H 0.07864 0.99101 0.75912 0.0
H791 H 0.08387 0.94239 0.74573 0.0
C792 C 0.06952 0.80776 0.81995 0.0
C793 C 0.08943 0.81621 0.83837 0.0
C794 C 0.06138 0.82198 0.7884 0.0
C795 C 0.07319 0.84464 0.7745 0.0
C796 C 0.09343 0.85253 0.79221 0.0
C797 C 0.10147 0.83847 0.82382 0.0
C798 C 0.06399 0.86116 0.74286 0.0
C799 C 0.06124 0.88908 0.74881 0.0
C800 C 0.05756 0.84975 0.70756 0.0
C801 C 0.06092 0.82064 0.69893 0.0
C802 C 0.08225 0.80906 0.70271 0.0
C803 C 0.08527 0.78159 0.69464 0.0
C804 C 0.0671 0.76553 0.68251 0.0
C805 C 0.04589 0.77694 0.67831 0.0
C806 C 0.04278 0.80439 0.68637 0.0
C807 C 0.04588 0.95031 0.61123 0.0
C808 C 0.02449 0.94695 0.59458 0.0
C809 C 0.05308 0.93297 0.64009 0.0
C810 C 0.03904 0.91196 0.65292 0.0
C811 C 0.01791 0.90807 0.63578 0.0
C812 C 0.01062 0.92552 0.60694 0.0
C813 C 0.04636 0.89461 0.68494 0.0
C814 C 0.04861 0.86662 0.67914 0.0
C815 C 0.05241 0.90592 0.72042 0.0
C816 C 0.04928 0.93513 0.72881 0.0
C817 C 0.02815 0.94709 0.72398 0.0
C818 C 0.02537 0.97468 0.73148 0.0
C819 C 0.04357 0.9905 0.74408 0.0
C820 C 0.06457 0.97874 0.74932 0.0
C821 C 0.06745 0.95115 0.74181 0.0
H822 H 0.04138 0.01186 0.74987 0.0
H823 H 0.06947 0.74427 0.67627 0.0
loop_
_geom_bond_atom_site_label_1
_geom_bond_atom_site_label_2
_geom_bond_distance
_geom_bond_site_symmetry_2
_ccdc_geom_bond_type
C0 C1 1.386 . S
C0 C2 1.397 . S
C0 H24 0.931 . S
C1 C0 1.386 . S
C1 C5 1.397 . S
C2 C0 1.397 . S
C2 C3 1.384 . S
C2 H25 0.930 . S
C3 C2 1.384 . S
C3 C4 1.377 . S
C3 C6 1.481 . S
C4 C3 1.377 . S
C4 C5 1.389 . S
C4 H26 0.929 . S
C5 C1 1.397 . S
C5 C4 1.389 . S
C5 H27 0.931 . S
C6 C3 1.481 . S
C6 C7 1.387 . S
C6 C11 1.390 1_556 S
C7 C6 1.387 . S
C7 C8 1.401 1_556 S
C7 H28 0.930 . S
C8 C7 1.401 1_554 S
C8 C9 1.376 . S
C8 C17 1.511 . S
C9 C8 1.376 . S
C9 C10 1.392 . S
C9 H30 0.931 . S
C10 C9 1.392 . S
C10 C11 1.361 . S
C10 C12 1.500 . S
C11 C6 1.390 1_554 S
C11 C10 1.361 . S
C11 H29 0.931 . S
C12 C10 1.500 . S
C12 C13 1.371 . S
C12 C14 1.365 . S
C13 C12 1.371 . S
C13 C23 1.386 . S
C13 H31 0.931 . S
C14 C12 1.365 . S
C14 C15 1.409 . S
C14 H32 0.929 . S
C15 C14 1.409 . S
C15 C16 1.380 . S
C15 H33 0.930 . S
C16 C15 1.380 . S
C16 C23 1.357 . S
C17 C8 1.511 . S
C17 C18 1.341 1_554 S
C17 C19 1.371 . S
C18 C17 1.341 1_556 S
C18 C22 1.394 . S
C18 H34 0.930 . S
C19 C17 1.371 . S
C19 C20 1.392 . S
C19 H35 0.931 . S
C20 C19 1.392 . S
C20 C21 1.331 . S
C20 H38 0.932 . S
C21 C20 1.331 . S
C21 C22 1.336 1_554 S
C22 C18 1.394 . S
C22 C21 1.336 1_556 S
C22 H37 0.929 . S
C23 C13 1.386 . S
C23 C16 1.357 . S
C23 H36 0.928 . S
H24 C0 0.931 . S
H25 C2 0.930 . S
H26 C4 0.929 . S
H27 C5 0.931 . S
H28 C7 0.930 . S
H29 C11 0.931 . S
H30 C9 0.931 . S
H31 C13 0.931 . S
H32 C14 0.929 . S
H33 C15 0.930 . S
H34 C18 0.930 . S
H35 C19 0.931 . S
H36 C23 0.928 . S
H37 C22 0.929 . S
H38 C20 0.932 . S
C39 C40 1.386 . S
C39 C41 1.397 . S
C39 H63 0.931 . S
C40 C39 1.386 . S
C40 C44 1.397 . S
C41 C39 1.397 . S
C41 C42 1.384 . S
C41 H64 0.930 . S
C42 C41 1.384 . S
C42 C43 1.377 . S
C42 C45 1.481 . S
C43 C42 1.377 . S
C43 C44 1.389 . S
C43 H65 0.929 . S
C44 C40 1.397 . S
C44 C43 1.389 . S
C44 H66 0.931 . S
C45 C42 1.481 . S
C45 C46 1.387 . S
C45 C50 1.390 . S
C46 C45 1.387 . S
C46 C47 1.401 . S
C46 H67 0.930 . S
C47 C46 1.401 . S
C47 C48 1.376 . S
C47 C56 1.511 . S
C48 C47 1.376 . S
C48 C49 1.392 . S
C48 H69 0.931 . S
C49 C48 1.392 . S
C49 C50 1.361 . S
C49 C51 1.500 . S
C50 C45 1.390 . S
C50 C49 1.361 . S
C50 H68 0.931 . S
C51 C49 1.500 . S
C51 C52 1.371 . S
C51 C53 1.365 . S
C52 C51 1.371 . S
C52 C62 1.386 . S
C52 H70 0.931 . S
C53 C51 1.365 . S
C53 C54 1.409 . S
C53 H71 0.929 . S
C54 C53 1.409 . S
C54 C55 1.380 . S
C54 H72 0.930 . S
C55 C54 1.380 . S
C55 C62 1.357 . S
C56 C47 1.511 . S
C56 C57 1.341 . S
C56 C58 1.371 . S
C57 C56 1.341 . S
C57 C61 1.394 . S
C57 H73 0.930 . S
C58 C56 1.371 . S
C58 C59 1.392 . S
C58 H74 0.931 . S
C59 C58 1.392 . S
C59 C60 1.331 . S
C59 H77 0.932 . S
C60 C59 1.331 . S
C60 C61 1.336 . S
C61 C57 1.394 . S
C61 C60 1.336 . S
C61 H76 0.929 . S
C62 C52 1.386 . S
C62 C55 1.357 . S
C62 H75 0.928 . S
H63 C39 0.931 . S
H64 C41 0.930 . S
H65 C43 0.929 . S
H66 C44 0.931 . S
H67 C46 0.930 . S
H68 C50 0.931 . S
H69 C48 0.931 . S
H70 C52 0.931 . S
H71 C53 0.929 . S
H72 C54 0.930 . S
H73 C57 0.930 . S
H74 C58 0.931 . S
H75 C62 0.928 . S
H76 C61 0.929 . S
H77 C59 0.932 . S
C78 C79 1.386 . S
C78 C80 1.397 . S
C78 H102 0.931 . S
C79 C78 1.386 . S
C79 C83 1.397 . S
C80 C78 1.397 . S
C80 C81 1.384 . S
C80 H103 0.930 . S
C81 C80 1.384 . S
C81 C82 1.377 . S
C81 C84 1.481 . S
C82 C81 1.377 . S
C82 C83 1.389 . S
C82 H104 0.929 . S
C83 C79 1.397 . S
C83 C82 1.389 . S
C83 H105 0.931 . S
C84 C81 1.481 . S
C84 C85 1.387 . S
C84 C89 1.390 . S
C85 C84 1.387 . S
C85 C86 1.401 . S
C85 H106 0.930 . S
C86 C85 1.401 . S
C86 C87 1.376 1_554 S
C86 C95 1.511 . S
C87 C86 1.376 1_556 S
C87 C88 1.392 . S
C87 H108 0.931 . S
C88 C87 1.392 . S
C88 C89 1.361 1_556 S
C88 C90 1.500 . S
C89 C84 1.390 . S
C89 C88 1.361 1_554 S
C89 H107 0.931 . S
C90 C88 1.500 . S
C90 C91 1.371 . S
C90 C92 1.365 . S
C91 C90 1.371 . S
C91 C101 1.386 . S
C91 H109 0.931 . S
C92 C90 1.365 . S
C92 C93 1.409 . S
C92 H110 0.929 . S
C93 C92 1.409 . S
C93 C94 1.380 . S
C93 H111 0.930 . S
C94 C93 1.380 . S
C94 C101 1.357 . S
C95 C86 1.511 . S
C95 C96 1.341 . S
C95 C97 1.371 1_554 S
C96 C95 1.341 . S
C96 C100 1.394 . S
C96 H112 0.930 . S
C97 C95 1.371 1_556 S
C97 C98 1.392 . S
C97 H113 0.931 . S
C98 C97 1.392 . S
C98 C99 1.331 1_556 S
C98 H116 0.932 . S
C99 C98 1.331 1_554 S
C99 C100 1.336 . S
C100 C96 1.394 . S
C100 C99 1.336 . S
C100 H115 0.929 . S
C101 C91 1.386 . S
C101 C94 1.357 . S
C101 H114 0.928 . S
H102 C78 0.931 . S
H103 C80 0.930 . S
H104 C82 0.929 . S
H105 C83 0.931 . S
H106 C85 0.930 . S
H107 C89 0.931 . S
H108 C87 0.931 . S
H109 C91 0.931 . S
H110 C92 0.929 . S
H111 C93 0.930 . S
H112 C96 0.930 . S
H113 C97 0.931 . S
H114 C101 0.928 . S
H115 C100 0.929 . S
H116 C98 0.932 . S
C117 C118 1.386 . S
C117 C119 1.397 . S
C117 H141 0.931 . S
C118 C117 1.386 . S
C118 C122 1.397 . S
C119 C117 1.397 . S
C119 C120 1.384 . S
C119 H142 0.930 . S
C120 C119 1.384 . S
C120 C121 1.377 . S
C120 C123 1.481 . S
C121 C120 1.377 . S
C121 C122 1.389 . S
C121 H143 0.929 . S
C122 C118 1.397 . S
C122 C121 1.389 . S
C122 H144 0.931 . S
C123 C120 1.481 . S
C123 C124 1.387 . S
C123 C128 1.390 . S
C124 C123 1.387 . S
C124 C125 1.401 . S
C124 H145 0.930 . S
C125 C124 1.401 . S
C125 C126 1.376 . S
C125 C134 1.511 . S
C126 C125 1.376 . S
C126 C127 1.392 . S
C126 H147 0.931 . S
C127 C126 1.392 . S
C127 C128 1.361 . S
C127 C129 1.500 . S
C128 C123 1.390 . S
C128 C127 1.361 . S
C128 H146 0.931 . S
C129 C127 1.500 . S
C129 C130 1.371 . S
C129 C131 1.365 . S
C130 C129 1.371 . S
C130 C140 1.386 . S
C130 H148 0.931 . S
C131 C129 1.365 . S
C131 C132 1.409 . S
C131 H149 0.929 . S
C132 C131 1.409 . S
C132 C133 1.380 . S
C132 H150 0.930 . S
C133 C132 1.380 . S
C133 C140 1.357 . S
C134 C125 1.511 . S
C134 C135 1.341 . S
C134 C136 1.371 . S
C135 C134 1.341 . S
C135 C139 1.394 . S
C135 H151 0.930 . S
C136 C134 1.371 . S
C136 C137 1.392 . S
C136 H152 0.931 . S
C137 C136 1.392 . S
C137 C138 1.331 . S
C137 H155 0.932 . S
C138 C137 1.331 . S
C138 C139 1.336 . S
C139 C135 1.394 . S
C139 C138 1.336 . S
C139 H154 0.929 . S
C140 C130 1.386 . S
C140 C133 1.357 . S
C140 H153 0.928 . S
H141 C117 0.931 . S
H142 C119 0.930 . S
H143 C121 0.929 . S
H144 C122 0.931 . S
H145 C124 0.930 . S
H146 C128 0.931 . S
H147 C126 0.931 . S
H148 C130 0.931 . S
H149 C131 0.929 . S
H150 C132 0.930 . S
H151 C135 0.930 . S
H152 C136 0.931 . S
H153 C140 0.928 . S
H154 C139 0.929 . S
H155 C137 0.932 . S
C156 O172 1.251 . S
C156 O174 1.212 1_455 S
N157 C158 1.333 . S
N157 C162 1.307 . S
N157 Zn163 2.020 . S
C158 N157 1.333 . S
C158 C159 1.379 . S
C158 H176 0.952 . S
C159 C158 1.379 . S
C159 C160 1.390 . S
C159 H186 0.949 . S
C160 C159 1.390 . S
C160 C161 1.357 . S
C161 C160 1.357 . S
C161 C162 1.370 . S
C161 H187 0.950 . S
C162 N157 1.307 . S
C162 C161 1.370 . S
C162 H180 0.948 . S
Zn163 N157 2.020 . S
Zn163 O172 2.039 1_545 S
Zn163 O178 2.034 1_545 S
Zn163 O182 2.025 . S
Zn163 O184 2.024 . S
C164 O183 1.246 . S
C164 O184 1.249 1_655 S
N165 C166 1.307 . S
N165 C167 1.333 . S
N165 Zn171 2.020 . S
C166 N165 1.307 . S
C166 C170 1.370 . S
C166 H177 0.948 . S
C167 N165 1.333 . S
C167 C168 1.379 . S
C167 H175 0.952 1_565 S
C168 C167 1.379 . S
C168 C169 1.390 . S
C168 H188 0.949 . S
C169 C168 1.390 . S
C169 C170 1.357 . S
C170 C166 1.370 . S
C170 C169 1.357 . S
C170 H189 0.950 . S
Zn171 N165 2.020 . S
Zn171 O174 2.049 . S
Zn171 O179 2.024 . S
Zn171 O181 2.039 1_565 S
Zn171 O183 2.034 1_565 S
O172 C156 1.251 . S
O172 Zn163 2.039 1_565 S
C173 O178 1.246 . S
C173 O179 1.249 1_455 S
O174 C156 1.212 1_655 S
O174 Zn171 2.049 . S
H175 C167 0.952 1_545 S
H176 C158 0.952 . S
H177 C166 0.948 . S
O178 Zn163 2.034 1_565 S
O178 C173 1.246 . S
O179 Zn171 2.024 . S
O179 C173 1.249 1_655 S
H180 C162 0.948 . S
O181 Zn171 2.039 1_545 S
O181 C185 1.251 . S
O182 Zn163 2.025 . S
O182 C185 1.254 1_455 S
O183 C164 1.246 . S
O183 Zn171 2.034 1_545 S
O184 Zn163 2.024 . S
O184 C164 1.249 1_455 S
C185 O181 1.251 . S
C185 O182 1.254 1_655 S
H186 C159 0.949 . S
H187 C161 0.950 . S
H188 C168 0.949 . S
H189 C170 0.950 . S
C190 O206 1.251 . S
C190 O208 1.254 . S
N191 C192 1.333 1_554 S
N191 C196 1.307 . S
N191 Zn197 2.020 . S
C192 N191 1.333 1_556 S
C192 C193 1.379 . S
C192 H210 0.952 . S
C193 C192 1.379 . S
C193 C194 1.390 1_556 S
C193 H220 0.949 . S
C194 C193 1.390 1_554 S
C194 C195 1.357 . S
C195 C194 1.357 . S
C195 C196 1.370 . S
C195 H221 0.950 . S
C196 N191 1.307 . S
C196 C195 1.370 . S
C196 H214 0.948 . S
Zn197 N191 2.020 . S
Zn197 O206 2.039 1_554 S
Zn197 O212 2.034 . S
Zn197 O216 2.025 . S
Zn197 O218 2.024 1_554 S
C198 O217 1.246 . S
C198 O218 1.249 . S
N199 C200 1.307 1_554 S
N199 C201 1.333 . S
N199 Zn205 2.020 . S
C200 N199 1.307 1_556 S
C200 C204 1.370 . S
C200 H211 0.948 . S
C201 N199 1.333 . S
C201 C202 1.379 . S
C201 H209 0.952 . S
C202 C201 1.379 . S
C202 C203 1.390 . S
C202 H222 0.949 . S
C203 C202 1.390 . S
C203 C204 1.357 1_554 S
C204 C200 1.370 . S
C204 C203 1.357 1_556 S
C204 H223 0.950 . S
Zn205 N199 2.020 . S
Zn205 O208 2.025 1_554 S
Zn205 O213 2.024 . S
Zn205 O215 2.039 . S
Zn205 O217 2.034 1_554 S
O206 C190 1.251 . S
O206 Zn197 2.039 1_556 S
C207 O212 1.246 . S
C207 O213 1.249 . S
O208 C190 1.254 . S
O208 Zn205 2.025 1_556 S
H209 C201 0.952 . S
H210 C192 0.952 . S
H211 C200 0.948 . S
O212 Zn197 2.034 . S
O212 C207 1.246 . S
O213 Zn205 2.024 . S
O213 C207 1.249 . S
H214 C196 0.948 . S
O215 Zn205 2.039 . S
O215 C219 1.251 . S
O216 Zn197 2.025 . S
O216 C219 1.254 . S
O217 C198 1.246 . S
O217 Zn205 2.034 1_556 S
O218 Zn197 2.024 1_556 S
O218 C198 1.249 . S
C219 O215 1.251 . S
C219 O216 1.254 . S
H220 C193 0.949 . S
H221 C195 0.950 . S
H222 C202 0.949 . S
H223 C204 0.950 . S
H224 C242 0.951 . S
H225 C244 0.951 . S
H226 C246 0.950 . S
H227 C247 0.950 . S
H228 C249 0.950 . S
H229 C252 0.950 . S
H230 C253 0.950 . S
H231 C255 0.950 . S
H232 C256 0.950 . S
H233 C257 0.951 . S
H234 C259 0.951 . S
H235 C261 0.950 . S
H236 C262 0.950 . S
H237 C264 0.950 . S
H238 C267 0.950 . S
H239 C268 0.950 . S
H240 C270 0.950 . S
H241 C271 0.950 . S
C242 H224 0.951 . S
C242 C243 1.366 . S
C242 C244 1.388 . S
C243 C242 1.366 . S
C243 C247 1.385 . S
C244 H225 0.951 . S
C244 C242 1.388 . S
C244 C245 1.366 . S
C245 C244 1.366 . S
C245 C246 1.414 . S
C245 C248 1.499 . S
C246 H226 0.950 . S
C246 C245 1.414 . S
C246 C247 1.374 . S
C247 H227 0.950 . S
C247 C243 1.385 . S
C247 C246 1.374 . S
C248 C245 1.499 . S
C248 C249 1.373 . S
C248 C250 1.389 . S
C249 H228 0.950 . S
C249 C248 1.373 . S
C249 C265 1.377 . S
C250 C248 1.389 . S
C250 C251 1.524 . S
C250 C264 1.377 . S
C251 C250 1.524 . S
C251 C252 1.397 . S
C251 C256 1.363 . S
C252 H229 0.950 . S
C252 C251 1.397 . S
C252 C253 1.334 . S
C253 H230 0.950 . S
C253 C252 1.334 . S
C253 C254 1.287 . S
C254 C253 1.287 . S
C254 C255 1.524 . S
C254 H273 0.913 . S
C255 H231 0.950 . S
C255 C254 1.524 . S
C255 C256 1.415 . S
C256 H232 0.950 . S
C256 C251 1.363 . S
C256 C255 1.415 . S
C257 H233 0.951 . S
C257 C258 1.366 . S
C257 C259 1.388 . S
C258 C257 1.366 . S
C258 C262 1.385 . S
C259 H234 0.951 . S
C259 C257 1.388 . S
C259 C260 1.366 . S
C260 C259 1.366 . S
C260 C261 1.414 . S
C260 C263 1.499 . S
C261 H235 0.950 . S
C261 C260 1.414 . S
C261 C262 1.374 . S
C262 H236 0.950 . S
C262 C258 1.385 . S
C262 C261 1.374 . S
C263 C260 1.499 . S
C263 C264 1.373 . S
C263 C265 1.389 . S
C264 H237 0.950 . S
C264 C250 1.377 . S
C264 C263 1.373 . S
C265 C249 1.377 . S
C265 C263 1.389 . S
C265 C266 1.524 . S
C266 C265 1.524 . S
C266 C267 1.397 . S
C266 C271 1.363 . S
C267 H238 0.950 . S
C267 C266 1.397 . S
C267 C268 1.334 . S
C268 H239 0.950 . S
C268 C267 1.334 . S
C268 C269 1.287 . S
C269 C268 1.287 . S
C269 C270 1.524 . S
C269 H272 0.999 . S
C270 H240 0.950 . S
C270 C269 1.524 . S
C270 C271 1.415 . S
C271 H241 0.950 . S
C271 C266 1.363 . S
C271 C270 1.415 . S
H272 C269 0.999 . S
H273 C254 0.913 . S
H274 C292 0.951 . S
H275 C294 0.951 . S
H276 C296 0.950 1_556 S
H277 C297 0.947 1_556 S
H278 C299 0.950 . S
H279 C302 0.950 . S
H280 C303 0.950 . S
H281 C305 0.950 . S
H282 C306 0.950 . S
H283 C307 0.951 1_556 S
H284 C309 0.950 1_556 S
H285 C311 0.950 . S
H286 C312 0.950 . S
H287 C314 0.950 . S
H288 C317 0.950 . S
H289 C318 0.950 . S
H290 C320 0.950 . S
H291 C321 0.950 . S
C292 H274 0.951 . S
C292 C293 1.366 . S
C292 C294 1.388 . S
C293 C292 1.366 . S
C293 C297 1.385 . S
C294 H275 0.951 . S
C294 C292 1.388 . S
C294 C295 1.366 . S
C295 C294 1.366 . S
C295 C296 1.414 . S
C295 C298 1.499 . S
C296 H276 0.950 1_554 S
C296 C295 1.414 . S
C296 C297 1.374 . S
C297 H277 0.947 1_554 S
C297 C293 1.385 . S
C297 C296 1.374 . S
C298 C295 1.499 . S
C298 C299 1.373 . S
C298 C300 1.389 1_554 S
C299 H278 0.950 . S
C299 C298 1.373 . S
C299 C315 1.377 . S
C300 C298 1.389 1_556 S
C300 C301 1.524 . S
C300 C314 1.377 . S
C301 C300 1.524 . S
C301 C302 1.397 . S
C301 C306 1.363 . S
C302 H279 0.950 . S
C302 C301 1.397 . S
C302 C303 1.334 . S
C303 H280 0.950 . S
C303 C302 1.334 . S
C303 C304 1.287 . S
C304 C303 1.287 . S
C304 C305 1.524 . S
C304 H323 0.913 . S
C305 H281 0.950 . S
C305 C304 1.524 . S
C305 C306 1.415 . S
C306 H282 0.950 . S
C306 C301 1.363 . S
C306 C305 1.415 . S
C307 H283 0.951 1_554 S
C307 C308 1.366 . S
C307 C309 1.388 . S
C308 C307 1.366 . S
C308 C312 1.385 . S
C309 H284 0.950 1_554 S
C309 C307 1.388 . S
C309 C310 1.366 . S
C310 C309 1.366 . S
C310 C311 1.414 . S
C310 C313 1.499 . S
C311 H285 0.950 . S
C311 C310 1.414 . S
C311 C312 1.374 . S
C312 H286 0.950 . S
C312 C308 1.385 . S
C312 C311 1.374 . S
C313 C310 1.499 . S
C313 C314 1.373 1_554 S
C313 C315 1.389 . S
C314 H287 0.950 . S
C314 C300 1.377 . S
C314 C313 1.373 1_556 S
C315 C299 1.377 . S
C315 C313 1.389 . S
C315 C316 1.524 . S
C316 C315 1.524 . S
C316 C317 1.397 . S
C316 C321 1.363 . S
C317 H288 0.950 . S
C317 C316 1.397 . S
C317 C318 1.334 . S
C318 H289 0.950 . S
C318 C317 1.334 . S
C318 C319 1.287 . S
C319 C318 1.287 . S
C319 C320 1.524 . S
C319 H322 0.999 . S
C320 H290 0.950 . S
C320 C319 1.524 . S
C320 C321 1.415 . S
C321 H291 0.950 . S
C321 C316 1.363 . S
C321 C320 1.415 . S
H322 C319 0.999 . S
H323 C304 0.913 . S
H324 C342 0.951 . S
H325 C344 0.951 . S
H326 C346 0.950 . S
H327 C347 0.950 . S
H328 C349 0.950 . S
H329 C352 0.950 . S
H330 C353 0.950 . S
H331 C355 0.950 . S
H332 C356 0.950 . S
H333 C357 0.951 . S
H334 C359 0.951 . S
H335 C361 0.950 . S
H336 C362 0.950 . S
H337 C364 0.950 . S
H338 C367 0.950 . S
H339 C368 0.950 . S
H340 C370 0.950 . S
H341 C371 0.950 . S
C342 H324 0.951 . S
C342 C343 1.366 . S
C342 C344 1.388 . S
C343 C342 1.366 . S
C343 C347 1.385 . S
C344 H325 0.951 . S
C344 C342 1.388 . S
C344 C345 1.366 . S
C345 C344 1.366 . S
C345 C346 1.414 . S
C345 C348 1.499 . S
C346 H326 0.950 . S
C346 C345 1.414 . S
C346 C347 1.374 . S
C347 H327 0.950 . S
C347 C343 1.385 . S
C347 C346 1.374 . S
C348 C345 1.499 . S
C348 C349 1.373 . S
C348 C350 1.389 . S
C349 H328 0.950 . S
C349 C348 1.373 . S
C349 C365 1.377 . S
C350 C348 1.389 . S
C350 C351 1.524 . S
C350 C364 1.377 . S
C351 C350 1.524 . S
C351 C352 1.397 . S
C351 C356 1.363 . S
C352 H329 0.950 . S
C352 C351 1.397 . S
C352 C353 1.334 . S
C353 H330 0.950 . S
C353 C352 1.334 . S
C353 C354 1.287 . S
C354 C353 1.287 . S
C354 C355 1.524 . S
C354 H373 0.913 . S
C355 H331 0.950 . S
C355 C354 1.524 . S
C355 C356 1.415 . S
C356 H332 0.950 . S
C356 C351 1.363 . S
C356 C355 1.415 . S
C357 H333 0.951 . S
C357 C358 1.366 . S
C357 C359 1.388 . S
C358 C357 1.366 . S
C358 C362 1.385 . S
C359 H334 0.951 . S
C359 C357 1.388 . S
C359 C360 1.366 . S
C360 C359 1.366 . S
C360 C361 1.414 . S
C360 C363 1.499 . S
C361 H335 0.950 . S
C361 C360 1.414 . S
C361 C362 1.374 . S
C362 H336 0.950 . S
C362 C358 1.385 . S
C362 C361 1.374 . S
C363 C360 1.499 . S
C363 C364 1.373 . S
C363 C365 1.389 . S
C364 H337 0.950 . S
C364 C350 1.377 . S
C364 C363 1.373 . S
C365 C349 1.377 . S
C365 C363 1.389 . S
C365 C366 1.524 . S
C366 C365 1.524 . S
C366 C367 1.397 . S
C366 C371 1.363 . S
C367 H338 0.950 . S
C367 C366 1.397 . S
C367 C368 1.334 . S
C368 H339 0.950 . S
C368 C367 1.334 . S
C368 C369 1.287 . S
C369 C368 1.287 . S
C369 C370 1.524 . S
C369 H372 0.999 . S
C370 H340 0.950 . S
C370 C369 1.524 . S
C370 C371 1.415 . S
C371 H341 0.950 . S
C371 C366 1.363 . S
C371 C370 1.415 . S
H372 C369 0.999 . S
H373 C354 0.913 . S
H374 C392 0.951 . S
H375 C394 0.951 . S
H376 C396 0.950 . S
H377 C397 0.950 . S
H378 C399 0.951 . S
H379 C402 0.950 . S
H380 C403 0.950 . S
H381 C405 0.950 . S
H382 C406 0.950 . S
H383 C407 0.951 . S
H384 C409 0.951 . S
H385 C411 0.950 . S
H386 C412 0.950 . S
H387 C414 0.950 . S
H388 C417 0.950 . S
H389 C418 0.950 . S
H390 C420 0.950 . S
H391 C421 0.950 . S
C392 H374 0.951 . S
C392 C393 1.366 . S
C392 C394 1.388 . S
C393 C392 1.366 . S
C393 C397 1.385 1_554 S
C394 H375 0.951 . S
C394 C392 1.388 . S
C394 C395 1.366 . S
C395 C394 1.366 . S
C395 C396 1.414 1_554 S
C395 C398 1.499 . S
C396 H376 0.950 . S
C396 C395 1.414 1_556 S
C396 C397 1.374 . S
C397 H377 0.950 . S
C397 C393 1.385 1_556 S
C397 C396 1.374 . S
C398 C395 1.499 . S
C398 C399 1.373 1_554 S
C398 C400 1.389 . S
C399 H378 0.951 . S
C399 C398 1.373 1_556 S
C399 C415 1.376 1_556 S
C400 C398 1.389 . S
C400 C401 1.524 . S
C400 C414 1.377 . S
C401 C400 1.524 . S
C401 C402 1.397 1_554 S
C401 C406 1.363 . S
C402 H379 0.950 . S
C402 C401 1.397 1_556 S
C402 C403 1.334 . S
C403 H380 0.950 . S
C403 C402 1.334 . S
C403 C404 1.287 . S
C404 C403 1.287 . S
C404 C405 1.524 1_556 S
C404 H423 0.913 . S
C405 H381 0.950 . S
C405 C404 1.524 1_554 S
C405 C406 1.415 . S
C406 H382 0.950 . S
C406 C401 1.363 . S
C406 C405 1.415 . S
C407 H383 0.951 . S
C407 C408 1.366 1_556 S
C407 C409 1.388 . S
C408 C407 1.366 1_554 S
C408 C412 1.385 . S
C409 H384 0.951 . S
C409 C407 1.388 . S
C409 C410 1.366 1_556 S
C410 C409 1.366 1_554 S
C410 C411 1.414 . S
C410 C413 1.499 . S
C411 H385 0.950 . S
C411 C410 1.414 . S
C411 C412 1.374 . S
C412 H386 0.950 . S
C412 C408 1.385 . S
C412 C411 1.374 . S
C413 C410 1.499 . S
C413 C414 1.373 . S
C413 C415 1.389 . S
C414 H387 0.950 . S
C414 C400 1.377 . S
C414 C413 1.373 . S
C415 C399 1.376 1_554 S
C415 C413 1.389 . S
C415 C416 1.524 . S
C416 C415 1.524 . S
C416 C417 1.397 . S
C416 C421 1.363 1_554 S
C417 H388 0.950 . S
C417 C416 1.397 . S
C417 C418 1.334 . S
C418 H389 0.950 . S
C418 C417 1.334 . S
C418 C419 1.287 . S
C419 C418 1.287 . S
C419 C420 1.524 1_554 S
C419 H422 0.999 . S
C420 H390 0.950 . S
C420 C419 1.524 1_556 S
C420 C421 1.415 . S
C421 H391 0.950 . S
C421 C416 1.363 1_556 S
C421 C420 1.415 . S
H422 C419 0.999 . S
H423 C404 0.913 . S
H424 C442 0.951 . S
H425 C444 0.951 . S
H426 C446 0.950 . S
H427 C447 0.950 . S
H428 C449 0.950 . S
H429 C452 0.950 . S
H430 C453 0.950 . S
H431 C455 0.950 . S
H432 C456 0.950 . S
H433 C457 0.951 . S
H434 C459 0.951 . S
H435 C461 0.950 . S
H436 C462 0.950 . S
H437 C464 0.950 . S
H438 C467 0.950 1_455 S
H439 C468 0.950 . S
H440 C470 0.950 . S
H441 C471 0.962 . S
C442 H424 0.951 . S
C442 C443 1.366 . S
C442 C444 1.388 . S
C443 C442 1.366 . S
C443 C447 1.385 . S
C444 H425 0.951 . S
C444 C442 1.388 . S
C444 C445 1.366 . S
C445 C444 1.366 . S
C445 C446 1.414 . S
C445 C448 1.499 . S
C446 H426 0.950 . S
C446 C445 1.414 . S
C446 C447 1.374 . S
C447 H427 0.950 . S
C447 C443 1.385 . S
C447 C446 1.374 . S
C448 C445 1.499 . S
C448 C449 1.373 . S
C448 C450 1.389 . S
C449 H428 0.950 . S
C449 C448 1.373 . S
C449 C465 1.377 . S
C450 C448 1.389 . S
C450 C451 1.524 . S
C450 C464 1.377 . S
C451 C450 1.524 . S
C451 C452 1.397 . S
C451 C456 1.363 . S
C452 H429 0.950 . S
C452 C451 1.397 . S
C452 C453 1.334 . S
C453 H430 0.950 . S
C453 C452 1.334 . S
C453 C454 1.287 . S
C454 C453 1.287 . S
C454 C455 1.524 . S
C454 H473 0.913 . S
C455 H431 0.950 . S
C455 C454 1.524 . S
C455 C456 1.415 . S
C456 H432 0.950 . S
C456 C451 1.363 . S
C456 C455 1.415 . S
C457 H433 0.951 . S
C457 C458 1.366 . S
C457 C459 1.388 . S
C458 C457 1.366 . S
C458 C462 1.385 . S
C459 H434 0.951 . S
C459 C457 1.388 . S
C459 C460 1.366 . S
C460 C459 1.366 . S
C460 C461 1.414 . S
C460 C463 1.499 . S
C461 H435 0.950 . S
C461 C460 1.414 . S
C461 C462 1.374 . S
C462 H436 0.950 . S
C462 C458 1.385 . S
C462 C461 1.374 . S
C463 C460 1.499 . S
C463 C464 1.373 . S
C463 C465 1.389 . S
C464 H437 0.950 . S
C464 C450 1.377 . S
C464 C463 1.373 . S
C465 C449 1.377 . S
C465 C463 1.389 . S
C465 C466 1.524 . S
C466 C465 1.524 . S
C466 C467 1.397 1_455 S
C466 C471 1.363 1_455 S
C467 H438 0.950 1_655 S
C467 C466 1.397 1_655 S
C467 C468 1.334 . S
C468 H439 0.950 . S
C468 C467 1.334 . S
C468 C469 1.287 . S
C469 C468 1.287 . S
C469 C470 1.524 . S
C469 H472 0.999 . S
C470 H440 0.950 . S
C470 C469 1.524 . S
C470 C471 1.415 . S
C471 H441 0.962 . S
C471 C466 1.363 1_655 S
C471 C470 1.415 . S
H472 C469 0.999 . S
H473 C454 0.913 . S
H474 C492 0.951 . S
H475 C494 0.951 . S
H476 C496 0.950 . S
H477 C497 0.950 . S
H478 C499 0.950 . S
H479 C502 0.950 . S
H480 C503 0.950 . S
H481 C505 0.950 . S
H482 C506 0.950 . S
H483 C507 0.951 . S
H484 C509 0.951 . S
H485 C511 0.950 . S
H486 C512 0.950 . S
H487 C514 0.950 . S
H488 C517 0.950 . S
H489 C518 0.950 . S
H490 C520 0.950 . S
H491 C521 0.950 . S
C492 H474 0.951 . S
C492 C493 1.366 . S
C492 C494 1.388 . S
C493 C492 1.366 . S
C493 C497 1.385 . S
C494 H475 0.951 . S
C494 C492 1.388 . S
C494 C495 1.366 . S
C495 C494 1.366 . S
C495 C496 1.414 . S
C495 C498 1.499 . S
C496 H476 0.950 . S
C496 C495 1.414 . S
C496 C497 1.374 . S
C497 H477 0.950 . S
C497 C493 1.385 . S
C497 C496 1.374 . S
C498 C495 1.499 . S
C498 C499 1.373 . S
C498 C500 1.389 . S
C499 H478 0.950 . S
C499 C498 1.373 . S
C499 C515 1.377 . S
C500 C498 1.389 . S
C500 C501 1.524 . S
C500 C514 1.377 . S
C501 C500 1.524 . S
C501 C502 1.397 . S
C501 C506 1.363 . S
C502 H479 0.950 . S
C502 C501 1.397 . S
C502 C503 1.334 . S
C503 H480 0.950 . S
C503 C502 1.334 . S
C503 C504 1.287 . S
C504 C503 1.287 . S
C504 C505 1.524 . S
C504 H523 0.913 . S
C505 H481 0.950 . S
C505 C504 1.524 . S
C505 C506 1.415 . S
C506 H482 0.950 . S
C506 C501 1.363 . S
C506 C505 1.415 . S
C507 H483 0.951 . S
C507 C508 1.366 . S
C507 C509 1.388 . S
C508 C507 1.366 . S
C508 C512 1.385 . S
C509 H484 0.951 . S
C509 C507 1.388 . S
C509 C510 1.366 . S
C510 C509 1.366 . S
C510 C511 1.414 . S
C510 C513 1.499 . S
C511 H485 0.950 . S
C511 C510 1.414 . S
C511 C512 1.374 . S
C512 H486 0.950 . S
C512 C508 1.385 . S
C512 C511 1.374 . S
C513 C510 1.499 . S
C513 C514 1.373 . S
C513 C515 1.389 . S
C514 H487 0.950 . S
C514 C500 1.377 . S
C514 C513 1.373 . S
C515 C499 1.377 . S
C515 C513 1.389 . S
C515 C516 1.524 . S
C516 C515 1.524 . S
C516 C517 1.397 . S
C516 C521 1.363 . S
C517 H488 0.950 . S
C517 C516 1.397 . S
C517 C518 1.334 . S
C518 H489 0.950 . S
C518 C517 1.334 . S
C518 C519 1.287 . S
C519 C518 1.287 . S
C519 C520 1.524 . S
C519 H522 0.999 . S
C520 H490 0.950 . S
C520 C519 1.524 . S
C520 C521 1.415 . S
C521 H491 0.950 . S
C521 C516 1.363 . S
C521 C520 1.415 . S
H522 C519 0.999 . S
H523 C504 0.913 . S
H524 C542 0.951 . S
H525 C544 0.951 . S
H526 C546 0.950 . S
H527 C547 0.950 . S
H528 C549 0.950 . S
H529 C552 0.950 . S
H530 C553 0.950 . S
H531 C555 0.950 . S
H532 C556 0.950 . S
H533 C557 0.951 . S
H534 C559 0.951 . S
H535 C561 0.950 . S
H536 C562 0.950 1_455 S
H537 C564 0.950 . S
H538 C567 0.950 . S
H539 C568 0.950 . S
H540 C570 0.950 . S
H541 C571 0.950 . S
C542 H524 0.951 . S
C542 C543 1.366 . S
C542 C544 1.388 . S
C543 C542 1.366 . S
C543 C547 1.385 . S
C544 H525 0.951 . S
C544 C542 1.388 . S
C544 C545 1.366 . S
C545 C544 1.366 . S
C545 C546 1.414 . S
C545 C548 1.499 . S
C546 H526 0.950 . S
C546 C545 1.414 . S
C546 C547 1.374 . S
C547 H527 0.950 . S
C547 C543 1.385 . S
C547 C546 1.374 . S
C548 C545 1.499 . S
C548 C549 1.373 . S
C548 C550 1.389 . S
C549 H528 0.950 . S
C549 C548 1.373 . S
C549 C565 1.377 . S
C550 C548 1.389 . S
C550 C551 1.524 . S
C550 C564 1.377 . S
C551 C550 1.524 . S
C551 C552 1.397 . S
C551 C556 1.363 1_655 S
C552 H529 0.950 . S
C552 C551 1.397 . S
C552 C553 1.334 1_655 S
C553 H530 0.950 . S
C553 C552 1.334 1_455 S
C553 C554 1.287 . S
C554 C553 1.287 . S
C554 C555 1.524 . S
C554 H573 0.913 . S
C555 H531 0.950 . S
C555 C554 1.524 . S
C555 C556 1.415 . S
C556 H532 0.950 . S
C556 C551 1.363 1_455 S
C556 C555 1.415 . S
C557 H533 0.951 . S
C557 C558 1.366 . S
C557 C559 1.388 . S
C558 C557 1.366 . S
C558 C562 1.385 . S
C559 H534 0.951 . S
C559 C557 1.388 . S
C559 C560 1.366 . S
C560 C559 1.366 . S
C560 C561 1.414 . S
C560 C563 1.499 . S
C561 H535 0.950 . S
C561 C560 1.414 . S
C561 C562 1.374 . S
C562 H536 0.950 1_655 S
C562 C558 1.385 . S
C562 C561 1.374 . S
C563 C560 1.499 . S
C563 C564 1.373 . S
C563 C565 1.389 . S
C564 H537 0.950 . S
C564 C550 1.377 . S
C564 C563 1.373 . S
C565 C549 1.377 . S
C565 C563 1.389 . S
C565 C566 1.524 . S
C566 C565 1.524 . S
C566 C567 1.397 . S
C566 C571 1.363 . S
C567 H538 0.950 . S
C567 C566 1.397 . S
C567 C568 1.334 . S
C568 H539 0.950 . S
C568 C567 1.334 . S
C568 C569 1.287 . S
C569 C568 1.287 . S
C569 C570 1.524 . S
C569 H572 0.999 . S
C570 H540 0.950 . S
C570 C569 1.524 . S
C570 C571 1.415 . S
C571 H541 0.950 . S
C571 C566 1.363 . S
C571 C570 1.415 . S
H572 C569 0.999 . S
H573 C554 0.913 . S
H574 C592 0.951 . S
H575 C594 0.951 . S
H576 C596 0.950 . S
H577 C597 0.950 . S
H578 C599 0.950 . S
H579 C602 0.950 . S
H580 C603 0.950 . S
H581 C605 0.950 . S
H582 C606 0.950 . S
H583 C607 0.951 . S
H584 C609 0.951 . S
H585 C611 0.950 . S
H586 C612 0.950 . S
H587 C614 0.950 . S
H588 C617 0.950 . S
H589 C618 0.950 . S
H590 C620 0.950 . S
H591 C621 0.950 . S
C592 H574 0.951 . S
C592 C593 1.366 . S
C592 C594 1.388 . S
C593 C592 1.366 . S
C593 C597 1.385 . S
C594 H575 0.951 . S
C594 C592 1.388 . S
C594 C595 1.366 . S
C595 C594 1.366 . S
C595 C596 1.414 . S
C595 C598 1.499 . S
C596 H576 0.950 . S
C596 C595 1.414 . S
C596 C597 1.374 . S
C597 H577 0.950 . S
C597 C593 1.385 . S
C597 C596 1.374 . S
C598 C595 1.499 . S
C598 C599 1.373 . S
C598 C600 1.389 . S
C599 H578 0.950 . S
C599 C598 1.373 . S
C599 C615 1.377 . S
C600 C598 1.389 . S
C600 C601 1.524 . S
C600 C614 1.377 . S
C601 C600 1.524 . S
C601 C602 1.397 . S
C601 C606 1.363 . S
C602 H579 0.950 . S
C602 C601 1.397 . S
C602 C603 1.334 . S
C603 H580 0.950 . S
C603 C602 1.334 . S
C603 C604 1.287 . S
C604 C603 1.287 . S
C604 C605 1.524 . S
C604 H623 0.913 . S
C605 H581 0.950 . S
C605 C604 1.524 . S
C605 C606 1.415 . S
C606 H582 0.950 . S
C606 C601 1.363 . S
C606 C605 1.415 . S
C607 H583 0.951 . S
C607 C608 1.366 . S
C607 C609 1.388 . S
C608 C607 1.366 . S
C608 C612 1.385 . S
C609 H584 0.951 . S
C609 C607 1.388 . S
C609 C610 1.366 . S
C610 C609 1.366 . S
C610 C611 1.414 . S
C610 C613 1.499 . S
C611 H585 0.950 . S
C611 C610 1.414 . S
C611 C612 1.374 . S
C612 H586 0.950 . S
C612 C608 1.385 . S
C612 C611 1.374 . S
C613 C610 1.499 . S
C613 C614 1.373 . S
C613 C615 1.389 . S
C614 H587 0.950 . S
C614 C600 1.377 . S
C614 C613 1.373 . S
C615 C599 1.377 . S
C615 C613 1.389 . S
C615 C616 1.524 . S
C616 C615 1.524 . S
C616 C617 1.397 . S
C616 C621 1.363 . S
C617 H588 0.950 . S
C617 C616 1.397 . S
C617 C618 1.334 . S
C618 H589 0.950 . S
C618 C617 1.334 . S
C618 C619 1.287 . S
C619 C618 1.287 . S
C619 C620 1.524 . S
C619 H622 0.999 . S
C620 H590 0.950 . S
C620 C619 1.524 . S
C620 C621 1.415 . S
C621 H591 0.950 . S
C621 C616 1.363 . S
C621 C620 1.415 . S
H622 C619 0.999 . S
H623 C604 0.913 . S
H624 C642 0.951 . S
H625 C644 0.951 . S
H626 C646 0.950 . S
H627 C647 0.950 . S
H628 C649 0.950 . S
H629 C652 0.950 . S
H630 C653 0.950 . S
H631 C655 0.950 . S
H632 C656 0.950 . S
H633 C657 0.951 . S
H634 C659 0.951 . S
H635 C661 0.950 . S
H636 C662 0.950 . S
H637 C664 0.950 . S
H638 C667 0.950 . S
H639 C668 0.950 . S
H640 C670 0.950 . S
H641 C671 0.950 . S
C642 H624 0.951 . S
C642 C643 1.366 . S
C642 C644 1.388 . S
C643 C642 1.366 . S
C643 C647 1.385 . S
C644 H625 0.951 . S
C644 C642 1.388 . S
C644 C645 1.366 . S
C645 C644 1.366 . S
C645 C646 1.414 . S
C645 C648 1.499 . S
C646 H626 0.950 . S
C646 C645 1.414 . S
C646 C647 1.374 . S
C647 H627 0.950 . S
C647 C643 1.385 . S
C647 C646 1.374 . S
C648 C645 1.499 . S
C648 C649 1.373 . S
C648 C650 1.389 . S
C649 H628 0.950 . S
C649 C648 1.373 . S
C649 C665 1.377 . S
C650 C648 1.389 . S
C650 C651 1.524 . S
C650 C664 1.377 . S
C651 C650 1.524 . S
C651 C652 1.397 . S
C651 C656 1.363 . S
C652 H629 0.950 . S
C652 C651 1.397 . S
C652 C653 1.334 . S
C653 H630 0.950 . S
C653 C652 1.334 . S
C653 C654 1.287 . S
C654 C653 1.287 . S
C654 C655 1.524 . S
C654 H673 0.913 . S
C655 H631 0.950 . S
C655 C654 1.524 . S
C655 C656 1.415 . S
C656 H632 0.950 . S
C656 C651 1.363 . S
C656 C655 1.415 . S
C657 H633 0.951 . S
C657 C658 1.366 . S
C657 C659 1.388 . S
C658 C657 1.366 . S
C658 C662 1.385 . S
C659 H634 0.951 . S
C659 C657 1.388 . S
C659 C660 1.366 . S
C660 C659 1.366 . S
C660 C661 1.414 . S
C660 C663 1.499 . S
C661 H635 0.950 . S
C661 C660 1.414 . S
C661 C662 1.374 . S
C662 H636 0.950 . S
C662 C658 1.385 . S
C662 C661 1.374 . S
C663 C660 1.499 . S
C663 C664 1.373 . S
C663 C665 1.389 . S
C664 H637 0.950 . S
C664 C650 1.377 . S
C664 C663 1.373 . S
C665 C649 1.377 . S
C665 C663 1.389 . S
C665 C666 1.524 . S
C666 C665 1.524 . S
C666 C667 1.397 . S
C666 C671 1.363 . S
C667 H638 0.950 . S
C667 C666 1.397 . S
C667 C668 1.334 . S
C668 H639 0.950 . S
C668 C667 1.334 . S
C668 C669 1.287 . S
C669 C668 1.287 . S
C669 C670 1.524 . S
C669 H672 0.999 . S
C670 H640 0.950 . S
C670 C669 1.524 . S
C670 C671 1.415 . S
C671 H641 0.950 . S
C671 C666 1.363 . S
C671 C670 1.415 . S
H672 C669 0.999 . S
H673 C654 0.913 . S
H674 C692 0.951 . S
H675 C694 0.951 . S
H676 C696 0.950 . S
H677 C697 0.950 . S
H678 C699 0.950 . S
H679 C702 0.950 . S
H680 C703 0.950 . S
H681 C705 0.950 . S
H682 C706 0.950 . S
H683 C707 0.951 1_455 S
H684 C709 0.951 1_455 S
H685 C711 0.950 . S
H686 C712 0.950 . S
H687 C714 0.950 . S
H688 C717 0.950 . S
H689 C718 0.950 1_655 S
H690 C720 0.950 . S
H691 C721 0.950 . S
C692 H674 0.951 . S
C692 C693 1.366 . S
C692 C694 1.388 . S
C693 C692 1.366 . S
C693 C697 1.385 . S
C694 H675 0.951 . S
C694 C692 1.388 . S
C694 C695 1.366 . S
C695 C694 1.366 . S
C695 C696 1.414 . S
C695 C698 1.499 . S
C696 H676 0.950 . S
C696 C695 1.414 . S
C696 C697 1.374 . S
C697 H677 0.950 . S
C697 C693 1.385 . S
C697 C696 1.374 . S
C698 C695 1.499 . S
C698 C699 1.373 . S
C698 C700 1.389 . S
C699 H678 0.950 . S
C699 C698 1.373 . S
C699 C715 1.377 . S
C700 C698 1.389 . S
C700 C701 1.524 . S
C700 C714 1.377 . S
C701 C700 1.524 . S
C701 C702 1.397 . S
C701 C706 1.363 . S
C702 H679 0.950 . S
C702 C701 1.397 . S
C702 C703 1.334 . S
C703 H680 0.950 . S
C703 C702 1.334 . S
C703 C704 1.287 . S
C704 C703 1.287 . S
C704 C705 1.524 . S
C704 H723 0.913 . S
C705 H681 0.950 . S
C705 C704 1.524 . S
C705 C706 1.415 . S
C706 H682 0.950 . S
C706 C701 1.363 . S
C706 C705 1.415 . S
C707 H683 0.951 1_655 S
C707 C708 1.366 . S
C707 C709 1.388 . S
C708 C707 1.366 . S
C708 C712 1.385 . S
C709 H684 0.951 1_655 S
C709 C707 1.388 . S
C709 C710 1.366 . S
C710 C709 1.366 . S
C710 C711 1.414 . S
C710 C713 1.499 . S
C711 H685 0.950 . S
C711 C710 1.414 . S
C711 C712 1.374 . S
C712 H686 0.950 . S
C712 C708 1.385 . S
C712 C711 1.374 . S
C713 C710 1.499 . S
C713 C714 1.373 . S
C713 C715 1.389 . S
C714 H687 0.950 . S
C714 C700 1.377 . S
C714 C713 1.373 . S
C715 C699 1.377 . S
C715 C713 1.389 . S
C715 C716 1.524 . S
C716 C715 1.524 . S
C716 C717 1.397 . S
C716 C721 1.363 1_655 S
C717 H688 0.950 . S
C717 C716 1.397 . S
C717 C718 1.334 1_655 S
C718 H689 0.950 1_455 S
C718 C717 1.334 1_455 S
C718 C719 1.287 . S
C719 C718 1.287 . S
C719 C720 1.524 . S
C719 H722 0.999 . S
C720 H690 0.950 . S
C720 C719 1.524 . S
C720 C721 1.415 . S
C721 H691 0.950 . S
C721 C716 1.363 1_455 S
C721 C720 1.415 . S
H722 C719 0.999 . S
H723 C704 0.913 . S
H724 C742 0.951 . S
H725 C744 0.951 . S
H726 C746 0.950 . S
H727 C747 0.950 . S
H728 C749 0.950 . S
H729 C752 0.950 . S
H730 C753 0.950 . S
H731 C755 0.950 . S
H732 C756 0.950 . S
H733 C757 0.951 . S
H734 C759 0.951 . S
H735 C761 0.950 . S
H736 C762 0.950 . S
H737 C764 0.950 . S
H738 C767 0.950 . S
H739 C768 0.950 . S
H740 C770 0.950 . S
H741 C771 0.950 . S
C742 H724 0.951 . S
C742 C743 1.366 . S
C742 C744 1.388 . S
C743 C742 1.366 . S
C743 C747 1.385 . S
C744 H725 0.951 . S
C744 C742 1.388 . S
C744 C745 1.366 . S
C745 C744 1.366 . S
C745 C746 1.414 . S
C745 C748 1.499 . S
C746 H726 0.950 . S
C746 C745 1.414 . S
C746 C747 1.374 . S
C747 H727 0.950 . S
C747 C743 1.385 . S
C747 C746 1.374 . S
C748 C745 1.499 . S
C748 C749 1.373 . S
C748 C750 1.389 . S
C749 H728 0.950 . S
C749 C748 1.373 . S
C749 C765 1.377 . S
C750 C748 1.389 . S
C750 C751 1.524 . S
C750 C764 1.377 . S
C751 C750 1.524 . S
C751 C752 1.397 . S
C751 C756 1.363 . S
C752 H729 0.950 . S
C752 C751 1.397 . S
C752 C753 1.334 . S
C753 H730 0.950 . S
C753 C752 1.334 . S
C753 C754 1.287 . S
C754 C753 1.287 . S
C754 C755 1.524 . S
C754 H773 0.913 . S
C755 H731 0.950 . S
C755 C754 1.524 . S
C755 C756 1.415 . S
C756 H732 0.950 . S
C756 C751 1.363 . S
C756 C755 1.415 . S
C757 H733 0.951 . S
C757 C758 1.366 . S
C757 C759 1.388 . S
C758 C757 1.366 . S
C758 C762 1.385 . S
C759 H734 0.951 . S
C759 C757 1.388 . S
C759 C760 1.366 . S
C760 C759 1.366 . S
C760 C761 1.414 . S
C760 C763 1.499 . S
C761 H735 0.950 . S
C761 C760 1.414 . S
C761 C762 1.374 . S
C762 H736 0.950 . S
C762 C758 1.385 . S
C762 C761 1.374 . S
C763 C760 1.499 . S
C763 C764 1.373 . S
C763 C765 1.389 . S
C764 H737 0.950 . S
C764 C750 1.377 . S
C764 C763 1.373 . S
C765 C749 1.377 . S
C765 C763 1.389 . S
C765 C766 1.524 . S
C766 C765 1.524 . S
C766 C767 1.397 . S
C766 C771 1.363 . S
C767 H738 0.950 . S
C767 C766 1.397 . S
C767 C768 1.334 . S
C768 H739 0.950 . S
C768 C767 1.334 . S
C768 C769 1.287 . S
C769 C768 1.287 . S
C769 C770 1.524 . S
C769 H772 0.999 . S
C770 H740 0.950 . S
C770 C769 1.524 . S
C770 C771 1.415 . S
C771 H741 0.950 . S
C771 C766 1.363 . S
C771 C770 1.415 . S
H772 C769 0.999 . S
H773 C754 0.913 . S
H774 C792 0.951 . S
H775 C794 0.951 . S
H776 C796 0.950 . S
H777 C797 0.950 . S
H778 C799 0.950 . S
H779 C802 0.950 . S
H780 C803 0.950 . S
H781 C805 0.950 . S
H782 C806 0.950 . S
H783 C807 0.951 . S
H784 C809 0.951 . S
H785 C811 0.950 . S
H786 C812 0.907 1_655 S
H787 C814 0.950 . S
H788 C817 0.950 . S
H789 C818 0.950 . S
H790 C820 0.950 . S
H791 C821 0.950 . S
C792 H774 0.951 . S
C792 C793 1.366 . S
C792 C794 1.388 . S
C793 C792 1.366 . S
C793 C797 1.385 . S
C794 H775 0.951 . S
C794 C792 1.388 . S
C794 C795 1.366 . S
C795 C794 1.366 . S
C795 C796 1.414 . S
C795 C798 1.499 . S
C796 H776 0.950 . S
C796 C795 1.414 . S
C796 C797 1.374 . S
C797 H777 0.950 . S
C797 C793 1.385 . S
C797 C796 1.374 . S
C798 C795 1.499 . S
C798 C799 1.373 . S
C798 C800 1.389 . S
C799 H778 0.950 . S
C799 C798 1.373 . S
C799 C815 1.377 . S
C800 C798 1.389 . S
C800 C801 1.524 . S
C800 C814 1.377 . S
C801 C800 1.524 . S
C801 C802 1.397 . S
C801 C806 1.363 . S
C802 H779 0.950 . S
C802 C801 1.397 . S
C802 C803 1.334 . S
C803 H780 0.950 . S
C803 C802 1.334 . S
C803 C804 1.287 . S
C804 C803 1.287 . S
C804 C805 1.524 . S
C804 H823 0.913 . S
C805 H781 0.950 . S
C805 C804 1.524 . S
C805 C806 1.415 . S
C806 H782 0.950 . S
C806 C801 1.363 . S
C806 C805 1.415 . S
C807 H783 0.951 . S
C807 C808 1.366 . S
C807 C809 1.388 . S
C808 C807 1.366 . S
C808 C812 1.385 . S
C809 H784 0.951 . S
C809 C807 1.388 . S
C809 C810 1.366 . S
C810 C809 1.366 . S
C810 C811 1.414 . S
C810 C813 1.499 . S
C811 H785 0.950 . S
C811 C810 1.414 . S
C811 C812 1.374 . S
C812 H786 0.907 1_455 S
C812 C808 1.385 . S
C812 C811 1.374 . S
C813 C810 1.499 . S
C813 C814 1.373 . S
C813 C815 1.389 . S
C814 H787 0.950 . S
C814 C800 1.377 . S
C814 C813 1.373 . S
C815 C799 1.377 . S
C815 C813 1.389 . S
C815 C816 1.524 . S
C816 C815 1.524 . S
C816 C817 1.397 . S
C816 C821 1.363 . S
C817 H788 0.950 . S
C817 C816 1.397 . S
C817 C818 1.334 . S
C818 H789 0.950 . S
C818 C817 1.334 . S
C818 C819 1.287 . S
C819 C818 1.287 . S
C819 C820 1.524 . S
C819 H822 0.999 1_565 S
C820 H790 0.950 . S
C820 C819 1.524 . S
C820 C821 1.415 . S
C821 H791 0.950 . S
C821 C816 1.363 . S
C821 C820 1.415 . S
H822 C819 0.999 1_545 S
H823 C804 0.913 . S
C258 C160 1.642 . S
C243 C138 1.614 . S
C293 C21 1.556 . S
C308 C203 1.561 . S
C343 C60 1.625 . S
C358 C169 1.642 . S
C393 C99 1.547 . S
C408 C194 1.561 . S
C458 C156 1.613 . S
C443 C16 1.589 . S
C508 C198 1.707 . S
C493 C40 1.679 . S
C543 C79 1.583 . S
C558 C164 1.603 . S
C593 C133 1.671 . S
C608 C190 1.702 . S
C658 C219 1.702 . S
C643 C55 1.667 . S
C708 C185 1.613 . S
C693 C94 1.592 . S
C758 C207 1.707 . S
C743 C118 1.672 . S
C793 C1 1.588 . S
C808 C173 1.603 . S
