# Generated by pormake.
# Topology hwx, (6,3)-cn, num edge types: 1
# Building blocks:
#     Node 0, Type 0, BuildingBlock: OJICUG_clean_sbu_0, # of connection points: 6
#     Node 1, Type 0, BuildingBlock: OJICUG_clean_sbu_0, # of connection points: 6
#     Node 2, Type 0, BuildingBlock: OJICUG_clean_sbu_0, # of connection points: 6
#     Node 3, Type 0, BuildingBlock: OJICUG_clean_sbu_0, # of connection points: 6
#     Node 4, Type 1, BuildingBlock: VETTIZ_charged_linker_0, # of connection points: 3
#     Node 5, Type 1, BuildingBlock: VETTIZ_charged_linker_0, # of connection points: 3
#     Node 6, Type 1, BuildingBlock: VETTIZ_charged_linker_0, # of connection points: 3
#     Node 7, Type 1, BuildingBlock: VETTIZ_charged_linker_0, # of connection points: 3
#     Node 8, Type 1, BuildingBlock: VETTIZ_charged_linker_0, # of connection points: 3
#     Node 9, Type 1, BuildingBlock: VETTIZ_charged_linker_0, # of connection points: 3
#     Node 10, Type 1, BuildingBlock: VETTIZ_charged_linker_0, # of connection points: 3
#     Node 11, Type 1, BuildingBlock: VETTIZ_charged_linker_0, # of connection points: 3
#     Edge 12, Type (0, 1), BuildingBlock: AJUNOK_clean_linker_0, # of connection points: 2
#     Edge 13, Type (0, 1), BuildingBlock: AJUNOK_clean_linker_0, # of connection points: 2
#     Edge 14, Type (0, 1), BuildingBlock: AJUNOK_clean_linker_0, # of connection points: 2
#     Edge 15, Type (0, 1), BuildingBlock: AJUNOK_clean_linker_0, # of connection points: 2
#     Edge 16, Type (0, 1), BuildingBlock: AJUNOK_clean_linker_0, # of connection points: 2
#     Edge 17, Type (0, 1), BuildingBlock: AJUNOK_clean_linker_0, # of connection points: 2
#     Edge 18, Type (0, 1), BuildingBlock: AJUNOK_clean_linker_0, # of connection points: 2
#     Edge 19, Type (0, 1), BuildingBlock: AJUNOK_clean_linker_0, # of connection points: 2
#     Edge 20, Type (0, 1), BuildingBlock: AJUNOK_clean_linker_0, # of connection points: 2
#     Edge 21, Type (0, 1), BuildingBlock: AJUNOK_clean_linker_0, # of connection points: 2
#     Edge 22, Type (0, 1), BuildingBlock: AJUNOK_clean_linker_0, # of connection points: 2
#     Edge 23, Type (0, 1), BuildingBlock: AJUNOK_clean_linker_0, # of connection points: 2
#     Edge 24, Type (0, 1), BuildingBlock: AJUNOK_clean_linker_0, # of connection points: 2
#     Edge 25, Type (0, 1), BuildingBlock: AJUNOK_clean_linker_0, # of connection points: 2
#     Edge 26, Type (0, 1), BuildingBlock: AJUNOK_clean_linker_0, # of connection points: 2
#     Edge 27, Type (0, 1), BuildingBlock: AJUNOK_clean_linker_0, # of connection points: 2
#     Edge 28, Type (0, 1), BuildingBlock: AJUNOK_clean_linker_0, # of connection points: 2
#     Edge 29, Type (0, 1), BuildingBlock: AJUNOK_clean_linker_0, # of connection points: 2
#     Edge 30, Type (0, 1), BuildingBlock: AJUNOK_clean_linker_0, # of connection points: 2
#     Edge 31, Type (0, 1), BuildingBlock: AJUNOK_clean_linker_0, # of connection points: 2
#     Edge 32, Type (0, 1), BuildingBlock: AJUNOK_clean_linker_0, # of connection points: 2
#     Edge 33, Type (0, 1), BuildingBlock: AJUNOK_clean_linker_0, # of connection points: 2
#     Edge 34, Type (0, 1), BuildingBlock: AJUNOK_clean_linker_0, # of connection points: 2
#     Edge 35, Type (0, 1), BuildingBlock: AJUNOK_clean_linker_0, # of connection points: 2
# Relax obj value: 0.080
# Max RMSD: 0.104
# Mean RMSD: 0.097
data_MOF--net-hwx--node1-OJICUG_clean_sbu_0--node2-VETTIZ_charged_linker_0--edge1-AJUNOK_clean_linker_0
_symmetry_space_group_name_H-M    P1
_symmetry_Int_Tables_number       1
_symmetry_cell_setting            triclinic
loop_
_symmetry_equiv_pos_as_xyz
'x, y, z'
_cell_length_a     47.732657
_cell_length_b     47.678752
_cell_length_c     21.85993
_cell_angle_alpha  90.180527
_cell_angle_beta   89.745171
_cell_angle_gamma 89.978954
loop_
_atom_site_label
_atom_site_type_symbol
_atom_site_fract_x
_atom_site_fract_y
_atom_site_fract_z
_atom_type_partial_charge
Sc0 Sc 0.22798 0.23677 0.06744 0.0
Sc1 Sc 0.1839 0.19026 0.98803 0.0
Sc2 Sc 0.23197 0.23285 0.90847 0.0
O3 O 0.21458 0.21985 0.9879 0.0
C4 C 0.22888 0.2901 0.9798 0.0
C5 C 0.16229 0.23607 0.08499 0.0
C6 C 0.16726 0.22695 0.873 0.0
C7 C 0.21731 0.17301 0.10572 0.0
C8 C 0.28486 0.22823 -0.00252 0.0
C9 C 0.22731 0.1669 0.88811 0.0
O10 O 0.23288 0.2785 0.03118 0.0
O11 O 0.15882 0.21364 0.05396 0.0
O12 O 0.1923 0.23461 0.86245 0.0
O13 O 0.22506 0.19797 0.11656 0.0
O14 O 0.27389 0.23312 0.94561 0.0
O15 O 0.20594 0.16409 0.92261 0.0
O16 O 0.27073 0.22656 0.04673 0.0
O17 O 0.20389 0.16594 0.05821 0.0
O18 O 0.23946 0.19034 0.87992 0.0
O19 O 0.186 0.24779 0.09177 0.0
O20 O 0.22565 0.27635 0.93055 0.0
O21 O 0.16062 0.21128 0.91763 0.0
Sc22 Sc 0.27373 0.73101 0.41941 0.0
Sc23 Sc 0.31 0.6868 0.52113 0.0
Sc24 Sc 0.2628 0.73782 0.57724 0.0
O25 O 0.28217 0.7185 0.50593 0.0
C26 C 0.27274 0.78987 0.49044 0.0
C27 C 0.33975 0.72244 0.41548 0.0
C28 C 0.32526 0.73043 0.62645 0.0
C29 C 0.27911 0.66431 0.40332 0.0
C30 C 0.21329 0.73218 0.48012 0.0
C31 C 0.26196 0.67391 0.61923 0.0
O32 O 0.27312 0.77509 0.442 0.0
O33 O 0.33982 0.70295 0.45516 0.0
O34 O 0.30094 0.74121 0.62808 0.0
O35 O 0.27336 0.68878 0.38426 0.0
O36 O 0.22282 0.7369 0.53331 0.0
O37 O 0.28349 0.66687 0.58836 0.0
O38 O 0.2289 0.72779 0.43364 0.0
O39 O 0.29097 0.65965 0.45413 0.0
O40 O 0.25211 0.69864 0.61906 0.0
O41 O 0.31767 0.73541 0.39949 0.0
O42 O 0.2706 0.77927 0.54341 0.0
O43 O 0.33189 0.71061 0.59007 0.0
Sc44 Sc 0.77122 0.76074 0.91056 0.0
Sc45 Sc 0.81242 0.81153 0.98619 0.0
Sc46 Sc 0.76522 0.76881 0.0691 0.0
O47 O 0.78298 0.78042 0.98864 0.0
C48 C 0.71263 0.76616 0.98189 0.0
C49 C 0.77332 0.82512 0.87215 0.0
C50 C 0.76998 0.83536 0.08648 0.0
C51 C 0.83703 0.76863 0.88769 0.0
C52 C 0.77376 0.70961 0.00197 0.0
C53 C 0.82986 0.77568 0.10268 0.0
O54 O 0.72722 0.76134 0.93419 0.0
O55 O 0.79146 0.83254 0.91158 0.0
O56 O 0.75959 0.81152 0.09916 0.0
O57 O 0.81356 0.75706 0.87726 0.0
O58 O 0.76832 0.72445 0.049 0.0
O59 O 0.83572 0.7932 0.06069 0.0
O60 O 0.77643 0.71987 0.94881 0.0
O61 O 0.83978 0.78873 0.92533 0.0
O62 O 0.80548 0.76566 0.11094 0.0
O63 O 0.76477 0.80005 0.86618 0.0
O64 O 0.72344 0.77063 0.03395 0.0
O65 O 0.78928 0.83856 0.04706 0.0
Sc66 Sc 0.72947 0.26816 0.5785 0.0
Sc67 Sc 0.6849 0.31059 0.48877 0.0
Sc68 Sc 0.73008 0.26117 0.41926 0.0
O69 O 0.71477 0.28001 0.49556 0.0
C70 C 0.78534 0.26818 0.49978 0.0
C71 C 0.72307 0.33457 0.59575 0.0
C72 C 0.72739 0.32562 0.38092 0.0
C73 C 0.66347 0.27383 0.60137 0.0
C74 C 0.72602 0.20923 0.50838 0.0
C75 C 0.66533 0.26735 0.38638 0.0
O76 O 0.77266 0.27161 0.55048 0.0
O77 O 0.70549 0.33792 0.55301 0.0
O78 O 0.73704 0.30087 0.37632 0.0
O79 O 0.68747 0.26361 0.61331 0.0
O80 O 0.72482 0.21977 0.45525 0.0
O81 O 0.66035 0.28725 0.42359 0.0
O82 O 0.72868 0.22396 0.55659 0.0
O83 O 0.65943 0.29173 0.55926 0.0
O84 O 0.68946 0.25659 0.37972 0.0
O85 O 0.73276 0.31071 0.61033 0.0
O86 O 0.77267 0.26311 0.45001 0.0
O87 O 0.7077 0.33228 0.41764 0.0
C88 C 0.2196 0.57019 0.80548 0.0
C89 C 0.2183 0.59965 0.80434 0.0
C90 C 0.21273 0.61443 0.85891 0.0
C91 C 0.21371 0.57108 0.91571 0.0
C92 C 0.21696 0.55632 0.86168 0.0
C93 C 0.21893 0.52519 0.87243 0.0
H94 H 0.23041 0.41757 0.07222 0.0
C95 C 0.2161 0.55116 0.96677 0.0
C96 C 0.21872 0.52417 0.94201 0.0
H97 H 0.22039 0.41391 0.8758 0.0
H98 H 0.21875 0.4643 0.87126 0.0
H99 H 0.27526 0.46664 0.06803 0.0
H100 H 0.18621 0.46998 0.10152 0.0
H101 H 0.20465 0.48886 0.15859 0.0
H102 H 0.21074 0.45193 0.14961 0.0
H103 H 0.26082 0.45955 0.14224 0.0
H104 H 0.26917 0.49481 0.11822 0.0
C105 C 0.24707 0.51455 0.84547 0.0
C106 C 0.19262 0.51107 0.84447 0.0
C107 C 0.23169 0.59033 0.17834 0.0
C108 C 0.24319 0.57892 0.2317 0.0
C109 C 0.24619 0.54955 0.23599 0.0
C110 C 0.23914 0.53209 0.18628 0.0
C111 C 0.22956 0.54423 0.13156 0.0
C112 C 0.22588 0.57293 0.12869 0.0
C113 C 0.21903 0.58296 0.06558 0.0
C114 C 0.2194 0.55556 0.03047 0.0
C115 C 0.2249 0.53282 0.06931 0.0
C116 C 0.24253 0.60347 0.04444 0.0
C117 C 0.18926 0.5959 0.0673 0.0
C118 C 0.22785 0.42771 0.02833 0.0
C119 C 0.22479 0.41175 0.97447 0.0
C120 C 0.22186 0.42569 0.91811 0.0
C121 C 0.22109 0.45497 0.91548 0.0
C122 C 0.22368 0.47061 0.96963 0.0
C123 C 0.22716 0.45706 0.02489 0.0
C124 C 0.23029 0.47743 0.07733 0.0
C125 C 0.22612 0.50521 0.04476 0.0
C126 C 0.22275 0.50099 0.98156 0.0
C127 C 0.26031 0.47448 0.10336 0.0
C128 C 0.20683 0.47181 0.12468 0.0
H129 H 0.20703 0.6128 0.95472 0.0
H130 H 0.22357 0.55839 0.76391 0.0
H131 H 0.17498 0.52617 0.83962 0.0
H132 H 0.18414 0.49421 0.87397 0.0
H133 H 0.19714 0.50235 0.7983 0.0
H134 H 0.26441 0.52907 0.85782 0.0
H135 H 0.24614 0.51329 0.79477 0.0
H136 H 0.25329 0.49383 0.86313 0.0
H137 H 0.22896 0.61279 0.17363 0.0
H138 H 0.2552 0.5402 0.27646 0.0
H139 H 0.24236 0.50994 0.19145 0.0
H140 H 0.26222 0.60048 0.0707 0.0
H141 H 0.23607 0.62569 0.05049 0.0
H142 H 0.24901 0.6001 -0.00362 0.0
H143 H 0.1751 0.58339 0.09718 0.0
H144 H 0.17908 0.596 0.02199 0.0
H145 H 0.18975 0.61764 0.08569 0.0
H146 H 0.21189 0.63714 0.85915 0.0
C147 C 0.21026 0.60029 0.91449 0.0
C148 C 0.07593 0.72511 0.51715 0.0
C149 C 0.09208 0.72619 0.46318 0.0
C150 C 0.07846 0.72588 0.40619 0.0
C151 C 0.03333 0.72542 0.45726 0.0
C152 C 0.04668 0.7249 0.51318 0.0
C153 C 0.02632 0.72533 0.56604 0.0
H154 H 0.89086 0.73004 0.66095 0.0
C155 C 0.0029 0.72581 0.46877 0.0
C156 C 0.99856 0.72537 0.53248 0.0
H157 H 0.96454 0.73461 0.77429 0.0
H158 H 0.99424 0.72849 0.68435 0.0
H159 H 0.91095 0.77057 0.56919 0.0
H160 H 0.91273 0.68079 0.56834 0.0
H161 H 0.90464 0.6906 0.4931 0.0
H162 H 0.88151 0.70075 0.555 0.0
H163 H 0.88089 0.75006 0.54917 0.0
H164 H 0.90599 0.76141 0.49258 0.0
C165 C 0.03096 0.75277 0.60278 0.0
C166 C 0.0304 0.69829 0.60382 0.0
C167 C 0.93492 0.73793 0.29205 0.0
C168 C 0.90551 0.73896 0.29035 0.0
C169 C 0.88999 0.73359 0.34392 0.0
C170 C 0.90346 0.72835 0.39911 0.0
C171 C 0.93281 0.72866 0.40106 0.0
C172 C 0.94813 0.73253 0.34799 0.0
C173 C 0.97919 0.7309 0.35933 0.0
C174 C 0.97974 0.72697 0.4284 0.0
C175 C 0.95251 0.72606 0.45225 0.0
C176 C 0.99244 0.75917 0.3399 0.0
C177 C 0.99096 0.70498 0.32469 0.0
C178 C 0.91338 0.72904 0.66669 0.0
C179 C 0.92543 0.73256 0.72445 0.0
C180 C 0.95486 0.73199 0.72992 0.0
C181 C 0.97197 0.72854 0.67775 0.0
C182 C 0.95943 0.72615 0.61971 0.0
C183 C 0.93056 0.72626 0.61539 0.0
C184 C 0.92046 0.72576 0.5507 0.0
C185 C 0.948 0.72538 0.51627 0.0
C186 C 0.97084 0.7253 0.5565 0.0
C187 C 0.90353 0.75314 0.53941 0.0
C188 C 0.90376 0.69822 0.54091 0.0
H189 H 0.04003 0.72563 0.35827 0.0
H190 H 0.08583 0.72475 0.56163 0.0
H191 H 0.03244 0.67975 0.57308 0.0
H192 H 0.01247 0.69375 0.63423 0.0
H193 H 0.04969 0.69959 0.63193 0.0
H194 H 0.03739 0.77023 0.5721 0.0
H195 H 0.04766 0.7501 0.63752 0.0
H196 H 0.0117 0.76037 0.62556 0.0
H197 H 0.94725 0.74146 0.25107 0.0
H198 H 0.8673 0.73429 0.34346 0.0
H199 H 0.8904 0.72503 0.4384 0.0
H200 H 0.97942 0.77704 0.35642 0.0
H201 H 0.99397 0.76067 0.28929 0.0
H202 H 0.01343 0.76264 0.35933 0.0
H203 H 0.97454 0.68875 0.31753 0.0
H204 H 0.00755 0.69408 0.35068 0.0
H205 H -0.00073 0.71086 0.27895 0.0
H206 H 0.09048 0.72672 0.36408 0.0
C207 C 0.04918 0.72542 0.40294 0.0
C208 C 0.76721 0.43038 0.19326 0.0
C209 C 0.76705 0.40092 0.19492 0.0
C210 C 0.77156 0.38558 0.1407 0.0
C211 C 0.7736 0.42864 0.08314 0.0
C212 C 0.77095 0.44383 0.1368 0.0
C213 C 0.77197 0.47498 0.12547 0.0
H214 H 0.77082 0.58201 0.92278 0.0
C215 C 0.77404 0.44847 0.03177 0.0
C216 C 0.77358 0.47569 0.05591 0.0
H217 H 0.78035 0.58649 0.11922 0.0
H218 H 0.77811 0.53598 0.12545 0.0
H219 H 0.81452 0.52945 0.90227 0.0
H220 H 0.72457 0.53324 0.92226 0.0
H221 H 0.73246 0.50799 0.86611 0.0
H222 H 0.7419 0.54416 0.8533 0.0
H223 H 0.79219 0.54564 0.84666 0.0
H224 H 0.79882 0.50849 0.84531 0.0
C225 C 0.79886 0.48687 0.15561 0.0
C226 C 0.74444 0.48816 0.14978 0.0
C227 C 0.76344 0.40987 0.818 0.0
C228 C 0.75829 0.42212 0.76101 0.0
C229 C 0.75819 0.45159 0.75602 0.0
C230 C 0.76278 0.46855 0.80785 0.0
C231 C 0.76719 0.45581 0.86509 0.0
C232 C 0.76756 0.4269 0.86901 0.0
C233 C 0.77065 0.41659 0.93324 0.0
C234 C 0.77216 0.44407 0.96782 0.0
C235 C 0.77034 0.46702 0.92798 0.0
C236 C 0.79849 0.3999 0.93739 0.0
C237 C 0.74391 0.39954 0.94956 0.0
C238 C 0.77289 0.57208 0.96702 0.0
C239 C 0.7761 0.5882 0.02055 0.0
C240 C 0.77783 0.5745 0.07743 0.0
C241 C 0.77669 0.54521 0.08092 0.0
C242 C 0.77375 0.52941 0.027 0.0
C243 C 0.77209 0.54283 0.97121 0.0
C244 C 0.76954 0.52252 0.91867 0.0
C245 C 0.77089 0.49471 0.95206 0.0
C246 C 0.77285 0.49896 0.01561 0.0
C247 C 0.79495 0.52669 0.87545 0.0
C248 C 0.74075 0.52717 0.88788 0.0
H249 H 0.77756 0.38635 0.04512 0.0
H250 H 0.76415 0.44254 0.23469 0.0
H251 H 0.72608 0.4756 0.13466 0.0
H252 H 0.74087 0.5096 0.13275 0.0
H253 H 0.74425 0.4888 0.20059 0.0
H254 H 0.81495 0.4703 0.16252 0.0
H255 H 0.79422 0.49628 0.20109 0.0
H256 H 0.80939 0.5027 0.12653 0.0
H257 H 0.76307 0.38728 0.82344 0.0
H258 H 0.75436 0.46143 0.71226 0.0
H259 H 0.7623 0.49087 0.80161 0.0
H260 H 0.81432 0.40791 0.90425 0.0
H261 H 0.7952 0.37731 0.92717 0.0
H262 H 0.80867 0.40204 0.98255 0.0
H263 H 0.72509 0.40861 0.92719 0.0
H264 H 0.73872 0.39978 -0.00126 0.0
H265 H 0.74583 0.37741 0.93405 0.0
H266 H 0.77133 0.36285 0.14115 0.0
C267 C 0.77495 0.39927 0.08493 0.0
C268 C 0.05629 0.27525 0.27252 0.0
C269 C 0.08551 0.27604 0.26475 0.0
C270 C 0.1028 0.28116 0.31548 0.0
C271 C 0.06236 0.28128 0.38196 0.0
C272 C 0.04512 0.27849 0.33168 0.0
C273 C 0.01459 0.27891 0.34963 0.0
H274 H 0.91653 0.27132 0.5735 0.0
C275 C 0.0448 0.28088 0.43736 0.0
C276 C 0.01674 0.28024 0.41912 0.0
H277 H 0.90393 0.28328 0.37948 0.0
H278 H 0.95392 0.28444 0.36318 0.0
H279 H 0.96748 0.22801 0.56115 0.0
H280 H 0.96683 0.31783 0.58576 0.0
H281 H 0.99224 0.30348 0.63469 0.0
H282 H 0.95593 0.29407 0.64483 0.0
H283 H 0.9574 0.24415 0.63222 0.0
H284 H 0.99354 0.23663 0.61443 0.0
C285 C 0.00101 0.25121 0.32767 0.0
C286 C 0.00099 0.30571 0.32267 0.0
C287 C 0.09187 0.26586 0.64114 0.0
C288 C 0.08191 0.26155 0.70078 0.0
C289 C 0.0528 0.26222 0.71188 0.0
C290 C 0.03395 0.26723 0.66387 0.0
C291 C 0.04439 0.27133 0.60421 0.0
C292 C 0.07296 0.27084 0.59406 0.0
C293 C 0.08065 0.27517 0.52825 0.0
C294 C 0.05189 0.27801 0.49991 0.0
C295 C 0.0307 0.27564 0.54435 0.0
C296 C 0.09622 0.24846 0.50584 0.0
C297 C 0.09792 0.30268 0.52311 0.0
C298 C 0.92454 0.27468 0.52768 0.0
C299 C 0.9063 0.27726 0.47771 0.0
C300 C 0.9176 0.28101 0.4186 0.0
C301 C 0.94659 0.2818 0.40921 0.0
C302 C 0.96454 0.27881 0.45939 0.0
C303 C 0.9535 0.27576 0.51755 0.0
C304 C 0.97593 0.27346 0.5654 0.0
C305 C 0.00216 0.27618 0.52638 0.0
C306 C 0.99529 0.27881 0.46419 0.0
C307 C 0.97354 0.24417 0.59546 0.0
C308 C 0.97263 0.29834 0.61055 0.0
H309 H 0.10573 0.28693 0.4109 0.0
H310 H 0.04264 0.27179 0.23379 0.0
H311 H 0.0169 0.32197 0.31142 0.0
H312 H 0.98665 0.3161 0.35566 0.0
H313 H 0.98938 0.30096 0.27996 0.0
H314 H 0.0143 0.23298 0.34037 0.0
H315 H 0.9986 0.25107 0.27715 0.0
H316 H 0.98028 0.24736 0.34844 0.0
H317 H 0.11407 0.26471 0.63083 0.0
H318 H 0.04468 0.25887 0.75762 0.0
H319 H 0.01202 0.26748 0.67492 0.0
H320 H 0.08546 0.22925 0.52265 0.0
H321 H 0.11807 0.24804 0.52312 0.0
H322 H 0.09693 0.24621 0.45574 0.0
H323 H 0.09414 0.31691 0.56274 0.0
H324 H 0.09199 0.31525 0.48262 0.0
H325 H 0.12076 0.29827 0.52131 0.0
H326 H 0.12539 0.2818 0.31017 0.0
C327 C 0.09138 0.28388 0.37396 0.0
C328 C 0.73147 0.92875 0.68493 0.0
C329 C 0.73242 0.8993 0.68569 0.0
C330 C 0.72769 0.88418 0.63137 0.0
C331 C 0.72354 0.92752 0.5754 0.0
C332 C 0.72666 0.94243 0.62924 0.0
C333 C 0.72494 0.97361 0.61904 0.0
H334 H 0.72772 0.08225 0.42138 0.0
C335 C 0.72197 0.94768 0.52472 0.0
C336 C 0.72246 0.97474 0.54964 0.0
H337 H 0.71634 0.08461 0.61783 0.0
H338 H 0.71674 0.03416 0.62109 0.0
H339 H 0.77174 0.0307 0.41626 0.0
H340 H 0.68154 0.03141 0.40009 0.0
H341 H 0.696 0.01001 0.34209 0.0
H342 H 0.70414 0.04688 0.3436 0.0
H343 H 0.75449 0.04473 0.35022 0.0
H344 H 0.76203 0.00781 0.35682 0.0
C345 C 0.75252 0.98707 0.64174 0.0
C346 C 0.69823 0.98486 0.65165 0.0
C347 C 0.72924 0.91028 0.30923 0.0
C348 C 0.73396 0.92276 0.25222 0.0
C349 C 0.73424 0.95227 0.24796 0.0
C350 C 0.73039 0.96902 0.30053 0.0
C351 C 0.72657 0.95602 0.35778 0.0
C352 C 0.72591 0.92709 0.36094 0.0
C353 C 0.72373 0.91644 0.42511 0.0
C354 C 0.72297 0.94372 0.46053 0.0
C355 C 0.72439 0.96693 0.42123 0.0
C356 C 0.75047 0.89889 0.43872 0.0
C357 C 0.69576 0.90013 0.43131 0.0
C358 C 0.72521 0.07186 0.46507 0.0
C359 C 0.72283 0.08747 0.51966 0.0
C360 C 0.71928 0.07314 0.57545 0.0
C361 C 0.7192 0.04383 0.57724 0.0
C362 C 0.7224 0.02858 0.52268 0.0
C363 C 0.72468 0.04252 0.46758 0.0
C364 C 0.7263 0.02259 0.41403 0.0
C365 C 0.7243 0.99448 0.44627 0.0
C366 C 0.72269 0.99825 0.51003 0.0
C367 C 0.75501 0.02663 0.38207 0.0
C368 C 0.70081 0.02795 0.37223 0.0
H369 H 0.72035 0.88537 0.53636 0.0
H370 H 0.7347 0.94072 0.7265 0.0
H371 H 0.68296 0.96782 0.66163 0.0
H372 H 0.68651 -0.00012 0.62281 0.0
H373 H 0.7034 0.9951 0.69589 0.0
H374 H 0.77092 0.97524 0.62379 0.0
H375 H 0.75353 0.98685 0.69249 0.0
H376 H 0.75526 0.0089 0.62641 0.0
H377 H 0.72958 0.88767 0.31417 0.0
H378 H 0.73777 0.96231 0.20422 0.0
H379 H 0.7311 0.99136 0.29484 0.0
H380 H 0.76853 0.90572 0.41005 0.0
H381 H 0.74699 0.87626 0.42934 0.0
H382 H 0.75803 0.90141 0.48609 0.0
H383 H 0.67903 0.91005 0.40341 0.0
H384 H 0.68739 0.9002 0.47855 0.0
H385 H 0.69809 0.87811 0.41535 0.0
H386 H 0.72852 0.86146 0.63113 0.0
C387 C 0.72315 0.89811 0.57633 0.0
C388 C 0.56052 0.2284 0.19663 0.0
C389 C 0.58991 0.22878 0.20051 0.0
C390 C 0.60611 0.22387 0.14761 0.0
C391 C 0.56412 0.22162 0.08683 0.0
C392 C 0.54807 0.2245 0.13922 0.0
C393 C 0.51719 0.2238 0.12545 0.0
H394 H 0.41363 0.22069 0.91478 0.0
C395 C 0.54521 0.22097 0.03396 0.0
C396 C 0.51764 0.22165 0.05596 0.0
H397 H 0.40617 0.22032 0.1121 0.0
H398 H 0.45636 0.22043 0.12144 0.0
H399 H 0.46045 0.26776 0.91306 0.0
H400 H 0.46811 0.17771 0.90192 0.0
H401 H 0.48865 0.19346 0.84399 0.0
H402 H 0.45131 0.19854 0.84434 0.0
H403 H 0.45319 0.24901 0.84364 0.0
H404 H 0.4882 0.26025 0.86275 0.0
C405 C 0.50411 0.25179 0.14766 0.0
C406 C 0.50449 0.19728 0.15569 0.0
C407 C 0.58716 0.2317 0.82323 0.0
C408 C 0.57576 0.23654 0.76532 0.0
C409 C 0.54645 0.23555 0.75789 0.0
C410 C 0.52877 0.23037 0.80832 0.0
C411 C 0.54063 0.22654 0.86662 0.0
C412 C 0.56941 0.22704 0.87287 0.0
C413 C 0.57866 0.22431 0.93791 0.0
C414 C 0.55067 0.22236 0.97033 0.0
C415 C 0.52842 0.22348 0.92865 0.0
C416 C 0.59486 0.25145 0.95512 0.0
C417 C 0.59584 0.1968 0.94385 0.0
C418 C 0.42286 0.22052 0.95996 0.0
C419 C 0.4059 0.2198 0.01275 0.0
C420 C 0.41872 0.2199 0.07071 0.0
C421 C 0.4479 0.22027 0.07609 0.0
C422 C 0.46453 0.22102 0.02301 0.0
C423 C 0.45203 0.22119 0.96612 0.0
C424 C 0.47316 0.22317 0.91496 0.0
C425 C 0.50037 0.22286 0.95058 0.0
C426 C 0.4951 0.22185 0.01387 0.0
C427 C 0.46857 0.25135 0.88129 0.0
C428 C 0.47021 0.19696 0.87364 0.0
H429 H 0.60694 0.21732 0.05222 0.0
H430 H 0.54765 0.23157 0.23699 0.0
H431 H 0.52043 0.18039 0.16056 0.0
H432 H 0.48774 0.18767 0.1278 0.0
H433 H 0.49616 0.20202 0.20209 0.0
H434 H 0.51796 0.26975 0.13573 0.0
H435 H 0.50121 0.25184 0.19811 0.0
H436 H 0.48381 0.25647 0.12602 0.0
H437 H 0.60959 0.23277 0.83045 0.0
H438 H 0.53727 0.23902 0.71332 0.0
H439 H 0.50661 0.23001 0.80028 0.0
H440 H 0.58511 0.27016 0.93351 0.0
H441 H 0.61697 0.25037 0.93926 0.0
H442 H 0.59464 0.25621 0.00446 0.0
H443 H 0.58951 0.18103 0.90892 0.0
H444 H 0.5923 0.18618 0.98819 0.0
H445 H 0.61861 0.20073 0.9377 0.0
H446 H 0.62879 0.22406 0.14972 0.0
C447 C 0.59339 0.22017 0.09093 0.0
C448 C 0.25274 0.0698 0.30017 0.0
C449 C 0.25496 0.09925 0.29747 0.0
C450 C 0.26686 0.11381 0.34717 0.0
C451 C 0.26912 0.07094 0.40502 0.0
C452 C 0.2604 0.05605 0.35431 0.0
C453 C 0.25978 0.02493 0.36647 0.0
H454 H 0.27748 0.9188 0.56856 0.0
C455 C 0.27187 0.05138 0.45642 0.0
C456 C 0.26734 0.02421 0.43408 0.0
H457 H 0.25966 0.91302 0.37496 0.0
H458 H 0.25874 0.96337 0.36791 0.0
H459 H 0.31945 0.97386 0.57058 0.0
H460 H 0.23063 0.96238 0.59103 0.0
H461 H 0.2383 0.99374 0.62976 0.0
H462 H 0.25346 0.96119 0.65572 0.0
H463 H 0.3026 0.95476 0.63127 0.0
H464 H 0.30687 0.99211 0.63608 0.0
C465 C 0.28246 0.01081 0.32581 0.0
C466 C 0.22967 0.01411 0.35518 0.0
C467 C 0.27197 0.09118 0.6705 0.0
C468 C 0.26764 0.07909 0.72808 0.0
C469 C 0.2682 0.04966 0.73372 0.0
C470 C 0.27195 0.03255 0.68177 0.0
C471 C 0.27457 0.04509 0.62378 0.0
C472 C 0.27487 0.07398 0.61919 0.0
C473 C 0.27544 0.08395 0.5542 0.0
C474 C 0.27455 0.05623 0.52011 0.0
C475 C 0.27438 0.03355 0.56088 0.0
C476 C 0.30334 0.0999 0.5431 0.0
C477 C 0.24869 0.10179 0.54366 0.0
C478 C 0.27345 0.92833 0.52457 0.0
C479 C 0.26982 0.91175 0.47177 0.0
C480 C 0.26397 0.92515 0.41578 0.0
C481 C 0.26313 0.95445 0.41181 0.0
C482 C 0.26749 0.97062 0.46464 0.0
C483 C 0.2719 0.95756 0.52011 0.0
C484 C 0.27362 0.97818 0.57228 0.0
C485 C 0.2721 0.00576 0.53799 0.0
C486 C 0.26838 0.00117 0.475 0.0
C487 C 0.3021 0.97458 0.6047 0.0
C488 C 0.24785 0.97369 0.61476 0.0
H489 H 0.28212 0.11218 0.43759 0.0
H490 H 0.24418 0.05793 0.26233 0.0
H491 H 0.214 0.02892 0.37486 0.0
H492 H 0.22546 0.99375 0.37726 0.0
H493 H 0.22541 0.01207 0.30545 0.0
H494 H 0.30013 0.02539 0.31622 0.0
H495 H 0.27369 0.00413 0.28109 0.0
H496 H 0.29237 0.99259 0.34816 0.0
H497 H 0.27126 0.11374 0.66487 0.0
H498 H 0.26511 0.03996 0.77799 0.0
H499 H 0.27197 0.01026 0.68838 0.0
H500 H 0.3195 0.09439 0.57759 0.0
H501 H 0.30023 0.12297 0.54544 0.0
H502 H 0.31303 0.09439 0.49845 0.0
H503 H 0.22999 0.09115 0.56337 0.0
H504 H 0.24374 0.10523 0.4952 0.0
H505 H 0.25058 0.12268 0.5659 0.0
H506 H 0.26979 0.13633 0.34531 0.0
C507 C 0.27402 0.09981 0.40073 0.0
C508 C 0.57598 0.75973 0.03001 0.0
C509 C 0.5908 0.76423 0.97509 0.0
C510 C 0.57574 0.76875 0.92073 0.0
C511 C 0.53195 0.76329 0.97564 0.0
C512 C 0.54664 0.75956 0.02932 0.0
C513 C 0.52752 0.75583 0.08371 0.0
H514 H 0.39449 0.75369 0.19463 0.0
C515 C 0.50184 0.76238 0.99033 0.0
C516 C 0.499 0.75852 0.05381 0.0
H517 H 0.47032 0.73881 0.29608 0.0
H518 H 0.4981 0.74566 0.20339 0.0
H519 H 0.41696 0.80433 0.10995 0.0
H520 H 0.4098 0.71521 0.09003 0.0
H521 H 0.40425 0.72828 0.01643 0.0
H522 H 0.38064 0.73811 0.07751 0.0
H523 H 0.38425 0.78656 0.09875 0.0
H524 H 0.40527 0.7983 0.03492 0.0
C525 C 0.53315 0.77992 0.12958 0.0
C526 C 0.53233 0.72614 0.11017 0.0
C527 C 0.42974 0.76284 0.81972 0.0
C528 C 0.40031 0.76241 0.8208 0.0
C529 C 0.38605 0.76469 0.87705 0.0
C530 C 0.40081 0.7663 0.93187 0.0
C531 C 0.4302 0.76546 0.93057 0.0
C532 C 0.44426 0.76468 0.8752 0.0
C533 C 0.47557 0.76528 0.88338 0.0
C534 C 0.47776 0.76448 0.9528 0.0
C535 C 0.45112 0.76437 0.97978 0.0
C536 C 0.4869 0.79318 0.85647 0.0
C537 C 0.48808 0.73861 0.85332 0.0
C538 C 0.41714 0.75231 0.19694 0.0
C539 C 0.43045 0.74625 0.25219 0.0
C540 C 0.45982 0.74373 0.25362 0.0
C541 C 0.47577 0.7477 0.19993 0.0
C542 C 0.46199 0.75377 0.14458 0.0
C543 C 0.4331 0.7557 0.14406 0.0
C544 C 0.42147 0.76009 0.08135 0.0
C545 C 0.44813 0.76104 0.04382 0.0
C546 C 0.47188 0.75769 0.0808 0.0
C547 C 0.40595 0.78867 0.08082 0.0
C548 C 0.40292 0.73433 0.06518 0.0
H549 H 0.53619 0.77158 0.87784 0.0
H550 H 0.58697 0.7563 0.07257 0.0
H551 H 0.53696 0.71078 0.07305 0.0
H552 H 0.51364 0.71772 0.13367 0.0
H553 H 0.55031 0.72599 0.14227 0.0
H554 H 0.5353 0.80024 0.10513 0.0
H555 H 0.55286 0.7762 0.15517 0.0
H556 H 0.51594 0.78298 0.16273 0.0
H557 H 0.44108 0.7614 0.7768 0.0
H558 H 0.36336 0.76415 0.87873 0.0
H559 H 0.3887 0.76738 0.97321 0.0
H560 H 0.47019 0.80938 0.85302 0.0
H561 H 0.4957 0.79004 0.80982 0.0
H562 H 0.50306 0.80288 0.88596 0.0
H563 H 0.47576 0.71977 0.86666 0.0
H564 H 0.50981 0.73437 0.86746 0.0
H565 H 0.48766 0.74019 0.80264 0.0
H566 H 0.58662 0.77312 0.87823 0.0
C567 C 0.54644 0.76817 0.92068 0.0
C568 C 0.11697 0.23077 0.14175 0.0
C569 C 0.13831 0.24824 0.11888 0.0
C570 C 0.0976 0.24086 0.18499 0.0
C571 C 0.09899 0.26868 0.20615 0.0
H572 H 0.11649 0.2087 0.12984 0.0
H573 H 0.08301 0.22624 0.20563 0.0
S574 S 0.14672 0.32431 0.15063 0.0
N575 N 0.15653 0.29588 0.11286 0.0
N576 N 0.12029 0.31454 0.19466 0.0
C577 C 0.11832 0.28699 0.1791 0.0
C578 C 0.13797 0.27683 0.13523 0.0
C579 C 0.26356 0.62891 0.67782 0.0
C580 C 0.24851 0.65284 0.65952 0.0
C581 C 0.25269 0.61056 0.72186 0.0
C582 C 0.22637 0.61546 0.74897 0.0
H583 H 0.28446 0.62499 0.66032 0.0
H584 H 0.26568 0.59337 0.73735 0.0
S585 S 0.17641 0.67194 0.70929 0.0
N586 N 0.20421 0.67818 0.66625 0.0
N587 N 0.18402 0.64362 0.74921 0.0
C588 C 0.21026 0.63805 0.72802 0.0
C589 C 0.22126 0.65675 0.68322 0.0
C590 C 0.84922 0.73896 0.17073 0.0
C591 C 0.85217 0.76556 0.14367 0.0
C592 C 0.86791 0.72968 0.21514 0.0
C593 C 0.89025 0.74662 0.23431 0.0
H594 H 0.83184 0.72543 0.15877 0.0
H595 H 0.86417 0.70955 0.23658 0.0
S596 S 0.90871 0.81694 0.17466 0.0
N597 N 0.88042 0.80789 0.13607 0.0
N598 N 0.91554 0.7904 0.22067 0.0
C599 C 0.89455 0.77252 0.20526 0.0
C600 C 0.87548 0.78202 0.15962 0.0
C601 C 0.75938 0.35829 0.65897 0.0
C602 C 0.73305 0.35933 0.63039 0.0
C603 C 0.76837 0.37994 0.69738 0.0
C604 C 0.75133 0.40342 0.70909 0.0
H605 H 0.77292 0.34024 0.65294 0.0
H606 H 0.7883 0.37769 0.72041 0.0
S607 S 0.68147 0.41739 0.64238 0.0
N608 N 0.69083 0.3868 0.61309 0.0
N609 N 0.70765 0.42733 0.68657 0.0
C610 C 0.72567 0.40558 0.67823 0.0
C611 C 0.71653 0.38354 0.63862 0.0
C612 C 0.64538 0.22926 0.3219 0.0
C613 C 0.64256 0.25624 0.34757 0.0
C614 C 0.62669 0.21951 0.27775 0.0
C615 C 0.60445 0.23633 0.25763 0.0
H616 H 0.66282 0.21589 0.33421 0.0
H617 H 0.6305 0.19921 0.25684 0.0
S618 S 0.58593 0.30728 0.31456 0.0
N619 N 0.6142 0.29864 0.35351 0.0
N620 N 0.57913 0.28023 0.26967 0.0
C621 C 0.60009 0.26248 0.28588 0.0
C622 C 0.61916 0.27248 0.33111 0.0
C623 C 0.26551 0.14349 0.82831 0.0
C624 C 0.23864 0.14204 0.8551 0.0
C625 C 0.27578 0.12182 0.79124 0.0
C626 C 0.25966 0.09778 0.77948 0.0
H627 H 0.27849 0.16192 0.83433 0.0
H628 H 0.29597 0.12448 0.76914 0.0
S629 S 0.18916 0.08219 0.84246 0.0
N630 N 0.19703 0.11332 0.87089 0.0
N631 N 0.21639 0.07273 0.80037 0.0
C632 C 0.23356 0.09513 0.80883 0.0
C633 C 0.22302 0.11723 0.8468 0.0
C634 C 0.38535 0.70849 0.3671 0.0
C635 C 0.36628 0.72968 0.38425 0.0
C636 C 0.40814 0.71442 0.32834 0.0
C637 C 0.41265 0.74174 0.30652 0.0
H638 H 0.38161 0.68693 0.38029 0.0
H639 H 0.42108 0.69726 0.31197 0.0
S640 S 0.37222 0.80532 0.34759 0.0
N641 N 0.35583 0.7796 0.38337 0.0
N642 N 0.39874 0.79059 0.31094 0.0
C643 C 0.39524 0.76339 0.32768 0.0
C644 C 0.37199 0.7574 0.36646 0.0
C645 C 0.77694 0.86977 0.81244 0.0
C646 C 0.76113 0.8464 0.83119 0.0
C647 C 0.76666 0.88819 0.76791 0.0
C648 C 0.74025 0.88382 0.74127 0.0
H649 H 0.79788 0.87306 0.82995 0.0
H650 H 0.78005 0.90497 0.75179 0.0
S651 S 0.68867 0.829 0.78268 0.0
N652 N 0.7162 0.82226 0.82566 0.0
N653 N 0.69715 0.85686 0.74194 0.0
C654 C 0.72348 0.86183 0.76284 0.0
C655 C 0.73386 0.84311 0.80786 0.0
C656 C 0.86093 0.73187 0.82451 0.0
C657 C 0.862 0.75822 0.85372 0.0
C658 C 0.88279 0.72263 0.78669 0.0
C659 C 0.90662 0.73931 0.77649 0.0
H660 H 0.84268 0.71855 0.82931 0.0
H661 H 0.88044 0.70282 0.76279 0.0
S662 S 0.9211 0.80881 0.8458 0.0
N663 N 0.89009 0.79994 0.87336 0.0
N664 N 0.931 0.78251 0.80137 0.0
C665 C 0.90886 0.76486 0.80818 0.0
C666 C 0.88658 0.77435 0.84696 0.0
C667 C 0.72327 0.37049 0.32234 0.0
C668 C 0.7395 0.34736 0.34065 0.0
C669 C 0.73326 0.38927 0.27808 0.0
C670 C 0.75979 0.38553 0.25115 0.0
H671 H 0.70219 0.37329 0.33985 0.0
H672 H 0.7195 0.40576 0.26218 0.0
S673 S 0.81245 0.33168 0.29138 0.0
N674 N 0.78498 0.32422 0.33451 0.0
N675 N 0.80346 0.35948 0.25113 0.0
C676 C 0.77701 0.36386 0.27238 0.0
C677 C 0.76692 0.34476 0.31722 0.0
C678 C 0.11935 0.22253 0.82732 0.0
C679 C 0.14486 0.2372 0.832 0.0
C680 C 0.09841 0.23124 0.78675 0.0
C681 C 0.10217 0.25506 0.74987 0.0
H682 H 0.11583 0.20367 0.85377 0.0
H683 H 0.07964 0.21863 0.78249 0.0
S684 S 0.16337 0.30298 0.75057 0.0
N685 N 0.17156 0.27818 0.79987 0.0
N686 N 0.13194 0.29479 0.72501 0.0
C687 C 0.1269 0.27075 0.75649 0.0
C688 C 0.14831 0.26175 0.79712 0.0
C689 C 0.27839 0.64271 0.3003 0.0
C690 C 0.27228 0.64053 0.36289 0.0
C691 C 0.27002 0.62192 0.2592 0.0
C692 C 0.25451 0.59842 0.27869 0.0
H693 H 0.28952 0.66082 0.2828 0.0
H694 H 0.27526 0.62464 0.2113 0.0
S695 S 0.23392 0.5826 0.43872 0.0
N696 N 0.25113 0.6126 0.44356 0.0
N697 N 0.23423 0.57379 0.36553 0.0
C698 C 0.24906 0.59549 0.34164 0.0
C699 C 0.25815 0.61654 0.38391 0.0
C700 C 0.36992 0.72436 0.68476 0.0
C701 C 0.34637 0.74088 0.67048 0.0
C702 C 0.38845 0.73241 0.73115 0.0
C703 C 0.38407 0.75721 0.76468 0.0
H704 H 0.37345 0.70448 0.66187 0.0
H705 H 0.40546 0.7184 0.74302 0.0
S706 S 0.3286 0.81014 0.73898 0.0
N707 N 0.32188 0.78504 0.68898 0.0
N708 N 0.35671 0.79978 0.7764 0.0
C709 C 0.36179 0.77478 0.74841 0.0
C710 C 0.34294 0.76671 0.70123 0.0
C711 C 0.73313 0.85901 0.14969 0.0
C712 C 0.75948 0.86021 0.12063 0.0
C713 C 0.72397 0.88061 0.18831 0.0
C714 C 0.7408 0.90424 0.19969 0.0
H715 H 0.71978 0.84081 0.14412 0.0
H716 H 0.7041 0.87818 0.21189 0.0
S717 S 0.81052 0.91879 0.13156 0.0
N718 N 0.80143 0.88812 0.10252 0.0
N719 N 0.78424 0.92851 0.1762 0.0
C720 C 0.76641 0.9066 0.16823 0.0
C721 C 0.77575 0.88462 0.1285 0.0
C722 C 0.64089 0.23759 0.66713 0.0
C723 C 0.63917 0.2637 0.63751 0.0
C724 C 0.61925 0.22805 0.70494 0.0
C725 C 0.59505 0.24425 0.71495 0.0
H726 H 0.65935 0.22454 0.66202 0.0
H727 H 0.62193 0.20826 0.72846 0.0
S728 S 0.57937 0.31342 0.64612 0.0
N729 N 0.61049 0.30497 0.6183 0.0
N730 N 0.56996 0.28708 0.69057 0.0
C731 C 0.59238 0.26978 0.68361 0.0
C732 C 0.61442 0.27951 0.64467 0.0
C733 C 0.21797 0.15749 0.21328 0.0
C734 C 0.22406 0.15175 0.15174 0.0
C735 C 0.22706 0.13959 0.25947 0.0
C736 C 0.2432 0.1156 0.24603 0.0
H737 H 0.20646 0.17625 0.22589 0.0
H738 H 0.22192 0.14497 0.30639 0.0
S739 S 0.26441 0.0913 0.09125 0.0
N740 N 0.24616 0.12016 0.07874 0.0
N741 N 0.26432 0.08675 0.16618 0.0
C742 C 0.24873 0.10914 0.1843 0.0
C743 C 0.23895 0.12724 0.13697 0.0
C744 C 0.24676 0.3371 0.01117 0.0
C745 C 0.22746 0.32094 0.97788 0.0
C746 C 0.24569 0.36647 0.01018 0.0
C747 C 0.22501 0.38065 0.97655 0.0
H748 H 0.26309 0.32696 0.03735 0.0
H749 H 0.26141 0.37815 0.03517 0.0
S750 S 0.16727 0.34764 0.8889 0.0
N751 N 0.18587 0.32095 0.91437 0.0
N752 N 0.1832 0.37615 0.91399 0.0
C753 C 0.205 0.36461 0.94481 0.0
C754 C 0.20638 0.33475 0.9451 0.0
C755 C 0.16954 0.71309 0.43272 0.0
C756 C 0.18254 0.73195 0.47315 0.0
C757 C 0.14023 0.71136 0.42946 0.0
C758 C 0.12301 0.72859 0.4662 0.0
H759 H 0.18206 0.69903 0.40475 0.0
H760 H 0.13098 0.69606 0.39888 0.0
S761 S 0.14693 0.78403 0.57333 0.0
N762 N 0.17609 0.76974 0.54692 0.0
N763 N 0.12116 0.76692 0.53972 0.0
C764 C 0.13583 0.74828 0.50496 0.0
C765 C 0.16555 0.74986 0.50866 0.0
C766 C 0.76024 0.66484 0.05333 0.0
C767 C 0.77617 0.67889 0.00868 0.0
C768 C 0.76063 0.63552 0.05739 0.0
C769 C 0.77713 0.61924 0.0173 0.0
H770 H 0.74671 0.6765 0.08415 0.0
H771 H 0.74734 0.62551 0.09117 0.0
S772 S 0.82548 0.64616 0.89778 0.0
N773 N 0.81064 0.67453 0.92687 0.0
N774 N 0.81183 0.61947 0.93547 0.0
C775 C 0.79404 0.63311 0.97413 0.0
C776 C 0.79345 0.66292 0.96961 0.0
C777 C 0.83102 0.25535 0.45204 0.0
C778 C 0.81622 0.27016 0.49758 0.0
C779 C 0.86011 0.25759 0.44661 0.0
C780 C 0.87556 0.27493 0.48614 0.0
H781 H 0.82006 0.24179 0.42028 0.0
H782 H 0.87059 0.24555 0.41117 0.0
S783 S 0.8467 0.31923 0.61128 0.0
N784 N 0.81908 0.3032 0.58236 0.0
N785 N 0.87389 0.30786 0.57131 0.0
C786 C 0.86109 0.28988 0.532 0.0
C787 C 0.83139 0.2874 0.5379 0.0
C788 C 0.70909 0.16268 0.47148 0.0
C789 C 0.72481 0.17838 0.51373 0.0
C790 C 0.70841 0.13334 0.47401 0.0
C791 C 0.72369 0.11859 0.51841 0.0
H792 H 0.69706 0.17315 0.43637 0.0
H793 H 0.69566 0.12215 0.44112 0.0
S794 S 0.76988 0.14992 0.63656 0.0
N795 N 0.75674 0.17712 0.59998 0.0
N796 N 0.75623 0.12192 0.60356 0.0
C797 C 0.73977 0.13407 0.56051 0.0
C798 C 0.74013 0.16397 0.55846 0.0
C799 C 0.33293 0.24137 0.96329 0.0
C800 C 0.3155 0.22489 0.00064 0.0
C801 C 0.36212 0.23932 0.96702 0.0
C802 C 0.37493 0.22043 0.00759 0.0
H803 H 0.32395 0.25648 0.93208 0.0
H804 H 0.37473 0.25312 0.93886 0.0
S805 S 0.33831 0.17007 0.10952 0.0
N806 N 0.31285 0.18773 0.07627 0.0
N807 N 0.36778 0.18313 0.08186 0.0
C808 C 0.35764 0.20308 0.04356 0.0
C809 C 0.32792 0.20549 0.04041 0.0
C810 C 0.26036 0.83736 0.53064 0.0
C811 C 0.27319 0.82082 0.48506 0.0
C812 C 0.25929 0.86661 0.52579 0.0
C813 C 0.27142 0.88061 0.47564 0.0
H814 H 0.25041 0.82762 0.56984 0.0
H815 H 0.24843 0.87826 0.56127 0.0
S816 S 0.30925 0.84705 0.34585 0.0
N817 N 0.2989 0.82055 0.38879 0.0
N818 N 0.29814 0.87563 0.3811 0.0
C819 C 0.28489 0.86433 0.43034 0.0
C820 C 0.2855 0.83446 0.43472 0.0
C821 C 0.66558 0.78055 0.02145 0.0
C822 C 0.68168 0.7661 0.97738 0.0
C823 C 0.63627 0.77997 0.02007 0.0
C824 C 0.62189 0.76477 0.97482 0.0
H825 H 0.67567 0.79252 0.05734 0.0
H826 H 0.62479 0.79165 0.0546 0.0
S827 S 0.65412 0.72226 0.85059 0.0
N828 N 0.681 0.73573 0.88772 0.0
N829 N 0.62588 0.73413 0.88604 0.0
C830 C 0.63768 0.75018 0.9305 0.0
C831 C 0.66756 0.75097 0.93155 0.0
loop_
_geom_bond_atom_site_label_1
_geom_bond_atom_site_label_2
_geom_bond_distance
_geom_bond_site_symmetry_2
_ccdc_geom_bond_type
Sc0 O3 2.025 . S
Sc0 O10 2.105 . S
Sc0 O13 2.105 . S
Sc0 O16 2.105 . S
Sc0 O19 2.105 . S
Sc1 O3 2.025 . S
Sc1 O11 2.105 . S
Sc1 O15 2.105 1_554 S
Sc1 O17 2.105 . S
Sc1 O21 2.105 1_554 S
Sc2 O3 2.025 1_556 S
Sc2 O12 2.105 . S
Sc2 O14 2.105 . S
Sc2 O18 2.105 . S
Sc2 O20 2.105 . S
O3 Sc0 2.025 . S
O3 Sc1 2.025 . S
O3 Sc2 2.025 1_554 S
C4 O10 1.268 . S
C4 O20 1.268 1_554 S
C5 O11 1.268 . S
C5 O19 1.268 . S
C6 O12 1.268 . S
C6 O21 1.268 . S
C7 O13 1.268 . S
C7 O17 1.268 . S
C8 O14 1.268 1_554 S
C8 O16 1.268 . S
C9 O15 1.268 . S
C9 O18 1.268 . S
O10 Sc0 2.105 . S
O10 C4 1.268 . S
O11 Sc1 2.105 . S
O11 C5 1.268 . S
O12 Sc2 2.105 . S
O12 C6 1.268 . S
O13 Sc0 2.105 . S
O13 C7 1.268 . S
O14 Sc2 2.105 . S
O14 C8 1.268 1_556 S
O15 Sc1 2.105 1_556 S
O15 C9 1.268 . S
O16 Sc0 2.105 . S
O16 C8 1.268 . S
O17 Sc1 2.105 . S
O17 C7 1.268 . S
O18 Sc2 2.105 . S
O18 C9 1.268 . S
O19 Sc0 2.105 . S
O19 C5 1.268 . S
O20 Sc2 2.105 . S
O20 C4 1.268 1_556 S
O21 Sc1 2.105 1_556 S
O21 C6 1.268 . S
Sc22 O25 2.025 . S
Sc22 O32 2.105 . S
Sc22 O35 2.105 . S
Sc22 O38 2.105 . S
Sc22 O41 2.105 . S
Sc23 O25 2.025 . S
Sc23 O33 2.105 . S
Sc23 O37 2.105 . S
Sc23 O39 2.105 . S
Sc23 O43 2.105 . S
Sc24 O25 2.025 . S
Sc24 O34 2.105 . S
Sc24 O36 2.105 . S
Sc24 O40 2.105 . S
Sc24 O42 2.105 . S
O25 Sc22 2.025 . S
O25 Sc23 2.025 . S
O25 Sc24 2.025 . S
C26 O32 1.268 . S
C26 O42 1.268 . S
C27 O33 1.268 . S
C27 O41 1.268 . S
C28 O34 1.268 . S
C28 O43 1.268 . S
C29 O35 1.268 . S
C29 O39 1.268 . S
C30 O36 1.268 . S
C30 O38 1.268 . S
C31 O37 1.268 . S
C31 O40 1.268 . S
O32 Sc22 2.105 . S
O32 C26 1.268 . S
O33 Sc23 2.105 . S
O33 C27 1.268 . S
O34 Sc24 2.105 . S
O34 C28 1.268 . S
O35 Sc22 2.105 . S
O35 C29 1.268 . S
O36 Sc24 2.105 . S
O36 C30 1.268 . S
O37 Sc23 2.105 . S
O37 C31 1.268 . S
O38 Sc22 2.105 . S
O38 C30 1.268 . S
O39 Sc23 2.105 . S
O39 C29 1.268 . S
O40 Sc24 2.105 . S
O40 C31 1.268 . S
O41 Sc22 2.105 . S
O41 C27 1.268 . S
O42 Sc24 2.105 . S
O42 C26 1.268 . S
O43 Sc23 2.105 . S
O43 C28 1.268 . S
Sc44 O47 2.025 1_556 S
Sc44 O54 2.105 . S
Sc44 O57 2.105 . S
Sc44 O60 2.105 . S
Sc44 O63 2.105 . S
Sc45 O47 2.025 . S
Sc45 O55 2.105 1_554 S
Sc45 O59 2.105 . S
Sc45 O61 2.105 1_554 S
Sc45 O65 2.105 . S
Sc46 O47 2.025 . S
Sc46 O56 2.105 . S
Sc46 O58 2.105 . S
Sc46 O62 2.105 . S
Sc46 O64 2.105 . S
O47 Sc44 2.025 1_554 S
O47 Sc45 2.025 . S
O47 Sc46 2.025 . S
C48 O54 1.268 1_554 S
C48 O64 1.268 . S
C49 O55 1.268 . S
C49 O63 1.268 . S
C50 O56 1.268 . S
C50 O65 1.268 . S
C51 O57 1.268 . S
C51 O61 1.268 . S
C52 O58 1.268 . S
C52 O60 1.268 1_554 S
C53 O59 1.268 . S
C53 O62 1.268 . S
O54 Sc44 2.105 . S
O54 C48 1.268 1_556 S
O55 Sc45 2.105 1_556 S
O55 C49 1.268 . S
O56 Sc46 2.105 . S
O56 C50 1.268 . S
O57 Sc44 2.105 . S
O57 C51 1.268 . S
O58 Sc46 2.105 . S
O58 C52 1.268 . S
O59 Sc45 2.105 . S
O59 C53 1.268 . S
O60 Sc44 2.105 . S
O60 C52 1.268 1_556 S
O61 Sc45 2.105 1_556 S
O61 C51 1.268 . S
O62 Sc46 2.105 . S
O62 C53 1.268 . S
O63 Sc44 2.105 . S
O63 C49 1.268 . S
O64 Sc46 2.105 . S
O64 C48 1.268 . S
O65 Sc45 2.105 . S
O65 C50 1.268 . S
Sc66 O69 2.025 . S
Sc66 O76 2.105 . S
Sc66 O79 2.105 . S
Sc66 O82 2.105 . S
Sc66 O85 2.105 . S
Sc67 O69 2.025 . S
Sc67 O77 2.105 . S
Sc67 O81 2.105 . S
Sc67 O83 2.105 . S
Sc67 O87 2.105 . S
Sc68 O69 2.025 . S
Sc68 O78 2.105 . S
Sc68 O80 2.105 . S
Sc68 O84 2.105 . S
Sc68 O86 2.105 . S
O69 Sc66 2.025 . S
O69 Sc67 2.025 . S
O69 Sc68 2.025 . S
C70 O76 1.268 . S
C70 O86 1.268 . S
C71 O77 1.268 . S
C71 O85 1.268 . S
C72 O78 1.268 . S
C72 O87 1.268 . S
C73 O79 1.268 . S
C73 O83 1.268 . S
C74 O80 1.268 . S
C74 O82 1.268 . S
C75 O81 1.268 . S
C75 O84 1.268 . S
O76 Sc66 2.105 . S
O76 C70 1.268 . S
O77 Sc67 2.105 . S
O77 C71 1.268 . S
O78 Sc68 2.105 . S
O78 C72 1.268 . S
O79 Sc66 2.105 . S
O79 C73 1.268 . S
O80 Sc68 2.105 . S
O80 C74 1.268 . S
O81 Sc67 2.105 . S
O81 C75 1.268 . S
O82 Sc66 2.105 . S
O82 C74 1.268 . S
O83 Sc67 2.105 . S
O83 C73 1.268 . S
O84 Sc68 2.105 . S
O84 C75 1.268 . S
O85 Sc66 2.105 . S
O85 C71 1.268 . S
O86 Sc68 2.105 . S
O86 C70 1.268 . S
O87 Sc67 2.105 . S
O87 C72 1.268 . S
C88 C89 1.391 . S
C88 C92 1.391 . S
C88 H130 0.948 . S
C89 C88 1.391 . S
C89 C90 1.391 . S
C90 C89 1.391 . S
C90 H146 0.947 . S
C90 C147 1.392 . S
C91 C92 1.391 . S
C91 C95 1.397 . S
C91 C147 1.419 . S
C92 C88 1.391 . S
C92 C91 1.391 . S
C92 C93 1.399 . S
C93 C92 1.399 . S
C93 C96 1.396 . S
C93 C105 1.453 . S
C93 C106 1.684 . S
H94 C118 0.948 . S
C95 C91 1.397 . S
C95 C96 1.394 . S
C95 C114 1.723 1_556 S
C96 C93 1.396 . S
C96 C95 1.394 . S
C96 C126 1.723 . S
H97 C120 0.947 . S
H98 C121 0.948 . S
H99 C127 0.982 . S
H100 C128 0.979 . S
H101 C128 0.980 . S
H102 C128 0.983 . S
H103 C127 0.979 . S
H104 C127 0.977 . S
C105 C93 1.453 . S
C105 H134 0.982 . S
C105 H135 0.979 . S
C105 H136 0.977 . S
C106 C93 1.684 . S
C106 H131 0.979 . S
C106 H132 0.980 . S
C106 H133 0.983 . S
C107 C108 1.391 . S
C107 C112 1.391 . S
C107 H137 0.948 . S
C108 C107 1.391 . S
C108 C109 1.391 . S
C109 C108 1.391 . S
C109 C110 1.392 . S
C109 H138 0.947 . S
C110 C109 1.392 . S
C110 C111 1.419 . S
C110 H139 0.948 . S
C111 C110 1.419 . S
C111 C112 1.391 . S
C111 C115 1.397 . S
C112 C107 1.391 . S
C112 C111 1.391 . S
C112 C113 1.399 . S
C113 C112 1.399 . S
C113 C114 1.396 . S
C113 C116 1.453 . S
C113 C117 1.684 . S
C114 C95 1.723 1_554 S
C114 C113 1.396 . S
C114 C115 1.394 . S
C115 C111 1.397 . S
C115 C114 1.394 . S
C115 C125 1.723 . S
C116 C113 1.453 . S
C116 H140 0.982 . S
C116 H141 0.979 . S
C116 H142 0.977 1_554 S
C117 C113 1.684 . S
C117 H143 0.979 . S
C117 H144 0.980 1_554 S
C117 H145 0.983 . S
C118 H94 0.948 . S
C118 C119 1.391 1_554 S
C118 C123 1.391 . S
C119 C118 1.391 1_556 S
C119 C120 1.391 . S
C120 H97 0.947 . S
C120 C119 1.391 . S
C120 C121 1.392 . S
C121 H98 0.948 . S
C121 C120 1.392 . S
C121 C122 1.419 . S
C122 C121 1.419 . S
C122 C123 1.391 1_556 S
C122 C126 1.397 . S
C123 C118 1.391 . S
C123 C122 1.391 1_554 S
C123 C124 1.399 . S
C124 C123 1.399 . S
C124 C125 1.396 . S
C124 C127 1.453 . S
C124 C128 1.684 . S
C125 C115 1.723 . S
C125 C124 1.396 . S
C125 C126 1.394 1_554 S
C126 C96 1.723 . S
C126 C122 1.397 . S
C126 C125 1.394 1_556 S
C127 H99 0.982 . S
C127 H103 0.979 . S
C127 H104 0.977 . S
C127 C124 1.453 . S
C128 H100 0.979 . S
C128 H101 0.980 . S
C128 H102 0.983 . S
C128 C124 1.684 . S
H129 C147 0.948 . S
H130 C88 0.948 . S
H131 C106 0.979 . S
H132 C106 0.980 . S
H133 C106 0.983 . S
H134 C105 0.982 . S
H135 C105 0.979 . S
H136 C105 0.977 . S
H137 C107 0.948 . S
H138 C109 0.947 . S
H139 C110 0.948 . S
H140 C116 0.982 . S
H141 C116 0.979 . S
H142 C116 0.977 1_556 S
H143 C117 0.979 . S
H144 C117 0.980 1_556 S
H145 C117 0.983 . S
H146 C90 0.947 . S
C147 C90 1.392 . S
C147 C91 1.419 . S
C147 H129 0.948 . S
C148 C149 1.391 . S
C148 C152 1.391 . S
C148 H190 0.948 . S
C149 C148 1.391 . S
C149 C150 1.391 . S
C150 C149 1.391 . S
C150 H206 0.947 . S
C150 C207 1.392 . S
C151 C152 1.391 . S
C151 C155 1.397 . S
C151 C207 1.419 . S
C152 C148 1.391 . S
C152 C151 1.391 . S
C152 C153 1.399 . S
C153 C152 1.399 . S
C153 C156 1.396 . S
C153 C165 1.453 . S
C153 C166 1.684 . S
H154 C178 0.948 . S
C155 C151 1.397 . S
C155 C156 1.394 . S
C155 C174 1.723 1_455 S
C156 C153 1.396 . S
C156 C155 1.394 . S
C156 C186 1.723 1_455 S
H157 C180 0.947 . S
H158 C181 0.948 . S
H159 C187 0.982 . S
H160 C188 0.979 . S
H161 C188 0.980 . S
H162 C188 0.983 . S
H163 C187 0.979 . S
H164 C187 0.977 . S
C165 C153 1.453 . S
C165 H194 0.982 . S
C165 H195 0.979 . S
C165 H196 0.977 . S
C166 C153 1.684 . S
C166 H191 0.979 . S
C166 H192 0.980 . S
C166 H193 0.983 . S
C167 C168 1.391 . S
C167 C172 1.391 . S
C167 H197 0.948 . S
C168 C167 1.391 . S
C168 C169 1.391 . S
C169 C168 1.391 . S
C169 C170 1.392 . S
C169 H198 0.947 . S
C170 C169 1.392 . S
C170 C171 1.419 . S
C170 H199 0.948 . S
C171 C170 1.419 . S
C171 C172 1.391 . S
C171 C175 1.397 . S
C172 C167 1.391 . S
C172 C171 1.391 . S
C172 C173 1.399 . S
C173 C172 1.399 . S
C173 C174 1.396 . S
C173 C176 1.453 1_655 S
C173 C177 1.684 1_655 S
C174 C155 1.723 1_655 S
C174 C173 1.396 . S
C174 C175 1.394 . S
C175 C171 1.397 . S
C175 C174 1.394 . S
C175 C185 1.723 . S
C176 C173 1.453 1_455 S
C176 H200 0.982 . S
C176 H201 0.979 . S
C176 H202 0.977 . S
C177 C173 1.684 1_455 S
C177 H203 0.979 1_455 S
C177 H204 0.980 . S
C177 H205 0.983 . S
C178 H154 0.948 . S
C178 C179 1.391 . S
C178 C183 1.391 . S
C179 C178 1.391 . S
C179 C180 1.391 . S
C180 H157 0.947 . S
C180 C179 1.391 . S
C180 C181 1.392 . S
C181 H158 0.948 . S
C181 C180 1.392 . S
C181 C182 1.419 . S
C182 C181 1.419 . S
C182 C183 1.391 . S
C182 C186 1.397 . S
C183 C178 1.391 . S
C183 C182 1.391 . S
C183 C184 1.399 . S
C184 C183 1.399 . S
C184 C185 1.396 . S
C184 C187 1.453 . S
C184 C188 1.684 . S
C185 C175 1.723 . S
C185 C184 1.396 . S
C185 C186 1.394 . S
C186 C156 1.723 1_655 S
C186 C182 1.397 . S
C186 C185 1.394 . S
C187 H159 0.982 . S
C187 H163 0.979 . S
C187 H164 0.977 . S
C187 C184 1.453 . S
C188 H160 0.979 . S
C188 H161 0.980 . S
C188 H162 0.983 . S
C188 C184 1.684 . S
H189 C207 0.948 . S
H190 C148 0.948 . S
H191 C166 0.979 . S
H192 C166 0.980 . S
H193 C166 0.983 . S
H194 C165 0.982 . S
H195 C165 0.979 . S
H196 C165 0.977 . S
H197 C167 0.948 . S
H198 C169 0.947 . S
H199 C170 0.948 . S
H200 C176 0.982 . S
H201 C176 0.979 . S
H202 C176 0.977 . S
H203 C177 0.979 1_655 S
H204 C177 0.980 . S
H205 C177 0.983 . S
H206 C150 0.947 . S
C207 C150 1.392 . S
C207 C151 1.419 . S
C207 H189 0.948 . S
C208 C209 1.391 . S
C208 C212 1.391 . S
C208 H250 0.948 . S
C209 C208 1.391 . S
C209 C210 1.391 . S
C210 C209 1.391 . S
C210 H266 0.947 . S
C210 C267 1.392 . S
C211 C212 1.391 . S
C211 C215 1.397 . S
C211 C267 1.419 . S
C212 C208 1.391 . S
C212 C211 1.391 . S
C212 C213 1.399 . S
C213 C212 1.399 . S
C213 C216 1.396 . S
C213 C225 1.453 . S
C213 C226 1.684 . S
H214 C238 0.948 . S
C215 C211 1.397 . S
C215 C216 1.394 . S
C215 C234 1.723 1_554 S
C216 C213 1.396 . S
C216 C215 1.394 . S
C216 C246 1.723 . S
H217 C240 0.947 . S
H218 C241 0.948 . S
H219 C247 0.982 . S
H220 C248 0.979 . S
H221 C248 0.980 . S
H222 C248 0.983 . S
H223 C247 0.979 . S
H224 C247 0.977 . S
C225 C213 1.453 . S
C225 H254 0.982 . S
C225 H255 0.979 . S
C225 H256 0.977 . S
C226 C213 1.684 . S
C226 H251 0.979 . S
C226 H252 0.980 . S
C226 H253 0.983 . S
C227 C228 1.391 . S
C227 C232 1.391 . S
C227 H257 0.948 . S
C228 C227 1.391 . S
C228 C229 1.391 . S
C229 C228 1.391 . S
C229 C230 1.392 . S
C229 H258 0.947 . S
C230 C229 1.392 . S
C230 C231 1.419 . S
C230 H259 0.948 . S
C231 C230 1.419 . S
C231 C232 1.391 . S
C231 C235 1.397 . S
C232 C227 1.391 . S
C232 C231 1.391 . S
C232 C233 1.399 . S
C233 C232 1.399 . S
C233 C234 1.396 . S
C233 C236 1.453 . S
C233 C237 1.684 . S
C234 C215 1.723 1_556 S
C234 C233 1.396 . S
C234 C235 1.394 . S
C235 C231 1.397 . S
C235 C234 1.394 . S
C235 C245 1.723 . S
C236 C233 1.453 . S
C236 H260 0.982 . S
C236 H261 0.979 . S
C236 H262 0.977 1_556 S
C237 C233 1.684 . S
C237 H263 0.979 . S
C237 H264 0.980 1_556 S
C237 H265 0.983 . S
C238 H214 0.948 . S
C238 C239 1.391 1_556 S
C238 C243 1.391 . S
C239 C238 1.391 1_554 S
C239 C240 1.391 . S
C240 H217 0.947 . S
C240 C239 1.391 . S
C240 C241 1.392 . S
C241 H218 0.948 . S
C241 C240 1.392 . S
C241 C242 1.419 . S
C242 C241 1.419 . S
C242 C243 1.391 1_554 S
C242 C246 1.397 . S
C243 C238 1.391 . S
C243 C242 1.391 1_556 S
C243 C244 1.399 . S
C244 C243 1.399 . S
C244 C245 1.396 . S
C244 C247 1.453 . S
C244 C248 1.684 . S
C245 C235 1.723 . S
C245 C244 1.396 . S
C245 C246 1.394 1_556 S
C246 C216 1.723 . S
C246 C242 1.397 . S
C246 C245 1.394 1_554 S
C247 H219 0.982 . S
C247 H223 0.979 . S
C247 H224 0.977 . S
C247 C244 1.453 . S
C248 H220 0.979 . S
C248 H221 0.980 . S
C248 H222 0.983 . S
C248 C244 1.684 . S
H249 C267 0.948 . S
H250 C208 0.948 . S
H251 C226 0.979 . S
H252 C226 0.980 . S
H253 C226 0.983 . S
H254 C225 0.982 . S
H255 C225 0.979 . S
H256 C225 0.977 . S
H257 C227 0.948 . S
H258 C229 0.947 . S
H259 C230 0.948 . S
H260 C236 0.982 . S
H261 C236 0.979 . S
H262 C236 0.977 1_554 S
H263 C237 0.979 . S
H264 C237 0.980 1_554 S
H265 C237 0.983 . S
H266 C210 0.947 . S
C267 C210 1.392 . S
C267 C211 1.419 . S
C267 H249 0.948 . S
C268 C269 1.391 . S
C268 C272 1.391 . S
C268 H310 0.948 . S
C269 C268 1.391 . S
C269 C270 1.391 . S
C270 C269 1.391 . S
C270 H326 0.947 . S
C270 C327 1.392 . S
C271 C272 1.391 . S
C271 C275 1.397 . S
C271 C327 1.419 . S
C272 C268 1.391 . S
C272 C271 1.391 . S
C272 C273 1.399 . S
C273 C272 1.399 . S
C273 C276 1.396 . S
C273 C285 1.453 1_455 S
C273 C286 1.684 1_455 S
H274 C298 0.948 . S
C275 C271 1.397 . S
C275 C276 1.394 . S
C275 C294 1.723 . S
C276 C273 1.396 . S
C276 C275 1.394 . S
C276 C306 1.723 1_455 S
H277 C300 0.947 . S
H278 C301 0.948 . S
H279 C307 0.982 . S
H280 C308 0.979 . S
H281 C308 0.980 . S
H282 C308 0.983 . S
H283 C307 0.979 . S
H284 C307 0.977 . S
C285 C273 1.453 1_655 S
C285 H314 0.982 . S
C285 H315 0.979 . S
C285 H316 0.977 . S
C286 C273 1.684 1_655 S
C286 H311 0.979 1_655 S
C286 H312 0.980 . S
C286 H313 0.983 . S
C287 C288 1.391 . S
C287 C292 1.391 . S
C287 H317 0.948 . S
C288 C287 1.391 . S
C288 C289 1.391 . S
C289 C288 1.391 . S
C289 C290 1.392 . S
C289 H318 0.947 . S
C290 C289 1.392 . S
C290 C291 1.419 . S
C290 H319 0.948 . S
C291 C290 1.419 . S
C291 C292 1.391 . S
C291 C295 1.397 . S
C292 C287 1.391 . S
C292 C291 1.391 . S
C292 C293 1.399 . S
C293 C292 1.399 . S
C293 C294 1.396 . S
C293 C296 1.453 . S
C293 C297 1.684 . S
C294 C275 1.723 . S
C294 C293 1.396 . S
C294 C295 1.394 . S
C295 C291 1.397 . S
C295 C294 1.394 . S
C295 C305 1.723 1_455 S
C296 C293 1.453 . S
C296 H320 0.982 . S
C296 H321 0.979 . S
C296 H322 0.977 . S
C297 C293 1.684 . S
C297 H323 0.979 . S
C297 H324 0.980 . S
C297 H325 0.983 . S
C298 H274 0.948 . S
C298 C299 1.391 . S
C298 C303 1.391 . S
C299 C298 1.391 . S
C299 C300 1.391 . S
C300 H277 0.947 . S
C300 C299 1.391 . S
C300 C301 1.392 . S
C301 H278 0.948 . S
C301 C300 1.392 . S
C301 C302 1.419 . S
C302 C301 1.419 . S
C302 C303 1.391 . S
C302 C306 1.397 . S
C303 C298 1.391 . S
C303 C302 1.391 . S
C303 C304 1.399 . S
C304 C303 1.399 . S
C304 C305 1.396 . S
C304 C307 1.453 . S
C304 C308 1.684 . S
C305 C295 1.723 1_655 S
C305 C304 1.396 . S
C305 C306 1.394 . S
C306 C276 1.723 1_655 S
C306 C302 1.397 . S
C306 C305 1.394 . S
C307 H279 0.982 . S
C307 H283 0.979 . S
C307 H284 0.977 . S
C307 C304 1.453 . S
C308 H280 0.979 . S
C308 H281 0.980 . S
C308 H282 0.983 . S
C308 C304 1.684 . S
H309 C327 0.948 . S
H310 C268 0.948 . S
H311 C286 0.979 1_455 S
H312 C286 0.980 . S
H313 C286 0.983 . S
H314 C285 0.982 . S
H315 C285 0.979 . S
H316 C285 0.977 . S
H317 C287 0.948 . S
H318 C289 0.947 . S
H319 C290 0.948 . S
H320 C296 0.982 . S
H321 C296 0.979 . S
H322 C296 0.977 . S
H323 C297 0.979 . S
H324 C297 0.980 . S
H325 C297 0.983 . S
H326 C270 0.947 . S
C327 C270 1.392 . S
C327 C271 1.419 . S
C327 H309 0.948 . S
C328 C329 1.391 . S
C328 C332 1.391 . S
C328 H370 0.948 . S
C329 C328 1.391 . S
C329 C330 1.391 . S
C330 C329 1.391 . S
C330 H386 0.947 . S
C330 C387 1.392 . S
C331 C332 1.391 . S
C331 C335 1.397 . S
C331 C387 1.419 . S
C332 C328 1.391 . S
C332 C331 1.391 . S
C332 C333 1.399 . S
C333 C332 1.399 . S
C333 C336 1.396 . S
C333 C345 1.453 1_565 S
C333 C346 1.684 1_565 S
H334 C358 0.948 . S
C335 C331 1.397 . S
C335 C336 1.394 . S
C335 C354 1.723 . S
C336 C333 1.396 . S
C336 C335 1.394 . S
C336 C366 1.723 1_565 S
H337 C360 0.947 . S
H338 C361 0.948 . S
H339 C367 0.982 . S
H340 C368 0.979 . S
H341 C368 0.980 . S
H342 C368 0.983 . S
H343 C367 0.979 . S
H344 C367 0.977 . S
C345 C333 1.453 1_545 S
C345 H374 0.982 . S
C345 H375 0.979 . S
C345 H376 0.977 . S
C346 C333 1.684 1_545 S
C346 H371 0.979 1_545 S
C346 H372 0.980 . S
C346 H373 0.983 . S
C347 C348 1.391 . S
C347 C352 1.391 . S
C347 H377 0.948 . S
C348 C347 1.391 . S
C348 C349 1.391 . S
C349 C348 1.391 . S
C349 C350 1.392 . S
C349 H378 0.947 . S
C350 C349 1.392 . S
C350 C351 1.419 . S
C350 H379 0.948 . S
C351 C350 1.419 . S
C351 C352 1.391 . S
C351 C355 1.397 . S
C352 C347 1.391 . S
C352 C351 1.391 . S
C352 C353 1.399 . S
C353 C352 1.399 . S
C353 C354 1.396 . S
C353 C356 1.453 . S
C353 C357 1.684 . S
C354 C335 1.723 . S
C354 C353 1.396 . S
C354 C355 1.394 . S
C355 C351 1.397 . S
C355 C354 1.394 . S
C355 C365 1.723 1_565 S
C356 C353 1.453 . S
C356 H380 0.982 . S
C356 H381 0.979 . S
C356 H382 0.977 . S
C357 C353 1.684 . S
C357 H383 0.979 . S
C357 H384 0.980 . S
C357 H385 0.983 . S
C358 H334 0.948 . S
C358 C359 1.391 . S
C358 C363 1.391 . S
C359 C358 1.391 . S
C359 C360 1.391 . S
C360 H337 0.947 . S
C360 C359 1.391 . S
C360 C361 1.392 . S
C361 H338 0.948 . S
C361 C360 1.392 . S
C361 C362 1.419 . S
C362 C361 1.419 . S
C362 C363 1.391 . S
C362 C366 1.397 . S
C363 C358 1.391 . S
C363 C362 1.391 . S
C363 C364 1.399 . S
C364 C363 1.399 . S
C364 C365 1.396 . S
C364 C367 1.453 . S
C364 C368 1.684 . S
C365 C355 1.723 1_545 S
C365 C364 1.396 . S
C365 C366 1.394 . S
C366 C336 1.723 1_545 S
C366 C362 1.397 . S
C366 C365 1.394 . S
C367 H339 0.982 . S
C367 H343 0.979 . S
C367 H344 0.977 . S
C367 C364 1.453 . S
C368 H340 0.979 . S
C368 H341 0.980 . S
C368 H342 0.983 . S
C368 C364 1.684 . S
H369 C387 0.948 . S
H370 C328 0.948 . S
H371 C346 0.979 1_565 S
H372 C346 0.980 . S
H373 C346 0.983 . S
H374 C345 0.982 . S
H375 C345 0.979 . S
H376 C345 0.977 . S
H377 C347 0.948 . S
H378 C349 0.947 . S
H379 C350 0.948 . S
H380 C356 0.982 . S
H381 C356 0.979 . S
H382 C356 0.977 . S
H383 C357 0.979 . S
H384 C357 0.980 . S
H385 C357 0.983 . S
H386 C330 0.947 . S
C387 C330 1.392 . S
C387 C331 1.419 . S
C387 H369 0.948 . S
C388 C389 1.391 . S
C388 C392 1.391 . S
C388 H430 0.948 . S
C389 C388 1.391 . S
C389 C390 1.391 . S
C390 C389 1.391 . S
C390 H446 0.947 . S
C390 C447 1.392 . S
C391 C392 1.391 . S
C391 C395 1.397 . S
C391 C447 1.419 . S
C392 C388 1.391 . S
C392 C391 1.391 . S
C392 C393 1.399 . S
C393 C392 1.399 . S
C393 C396 1.396 . S
C393 C405 1.453 . S
C393 C406 1.684 . S
H394 C418 0.948 . S
C395 C391 1.397 . S
C395 C396 1.394 . S
C395 C414 1.723 1_554 S
C396 C393 1.396 . S
C396 C395 1.394 . S
C396 C426 1.723 . S
H397 C420 0.947 . S
H398 C421 0.948 . S
H399 C427 0.982 . S
H400 C428 0.979 . S
H401 C428 0.980 . S
H402 C428 0.983 . S
H403 C427 0.979 . S
H404 C427 0.977 . S
C405 C393 1.453 . S
C405 H434 0.982 . S
C405 H435 0.979 . S
C405 H436 0.977 . S
C406 C393 1.684 . S
C406 H431 0.979 . S
C406 H432 0.980 . S
C406 H433 0.983 . S
C407 C408 1.391 . S
C407 C412 1.391 . S
C407 H437 0.948 . S
C408 C407 1.391 . S
C408 C409 1.391 . S
C409 C408 1.391 . S
C409 C410 1.392 . S
C409 H438 0.947 . S
C410 C409 1.392 . S
C410 C411 1.419 . S
C410 H439 0.948 . S
C411 C410 1.419 . S
C411 C412 1.391 . S
C411 C415 1.397 . S
C412 C407 1.391 . S
C412 C411 1.391 . S
C412 C413 1.399 . S
C413 C412 1.399 . S
C413 C414 1.396 . S
C413 C416 1.453 . S
C413 C417 1.684 . S
C414 C395 1.723 1_556 S
C414 C413 1.396 . S
C414 C415 1.394 . S
C415 C411 1.397 . S
C415 C414 1.394 . S
C415 C425 1.723 . S
C416 C413 1.453 . S
C416 H440 0.982 . S
C416 H441 0.979 . S
C416 H442 0.977 1_556 S
C417 C413 1.684 . S
C417 H443 0.979 . S
C417 H444 0.980 1_556 S
C417 H445 0.983 . S
C418 H394 0.948 . S
C418 C419 1.391 1_556 S
C418 C423 1.391 . S
C419 C418 1.391 1_554 S
C419 C420 1.391 . S
C420 H397 0.947 . S
C420 C419 1.391 . S
C420 C421 1.392 . S
C421 H398 0.948 . S
C421 C420 1.392 . S
C421 C422 1.419 . S
C422 C421 1.419 . S
C422 C423 1.391 1_554 S
C422 C426 1.397 . S
C423 C418 1.391 . S
C423 C422 1.391 1_556 S
C423 C424 1.399 . S
C424 C423 1.399 . S
C424 C425 1.396 . S
C424 C427 1.453 . S
C424 C428 1.684 . S
C425 C415 1.723 . S
C425 C424 1.396 . S
C425 C426 1.394 1_556 S
C426 C396 1.723 . S
C426 C422 1.397 . S
C426 C425 1.394 1_554 S
C427 H399 0.982 . S
C427 H403 0.979 . S
C427 H404 0.977 . S
C427 C424 1.453 . S
C428 H400 0.979 . S
C428 H401 0.980 . S
C428 H402 0.983 . S
C428 C424 1.684 . S
H429 C447 0.948 . S
H430 C388 0.948 . S
H431 C406 0.979 . S
H432 C406 0.980 . S
H433 C406 0.983 . S
H434 C405 0.982 . S
H435 C405 0.979 . S
H436 C405 0.977 . S
H437 C407 0.948 . S
H438 C409 0.947 . S
H439 C410 0.948 . S
H440 C416 0.982 . S
H441 C416 0.979 . S
H442 C416 0.977 1_554 S
H443 C417 0.979 . S
H444 C417 0.980 1_554 S
H445 C417 0.983 . S
H446 C390 0.947 . S
C447 C390 1.392 . S
C447 C391 1.419 . S
C447 H429 0.948 . S
C448 C449 1.391 . S
C448 C452 1.391 . S
C448 H490 0.948 . S
C449 C448 1.391 . S
C449 C450 1.391 . S
C450 C449 1.391 . S
C450 H506 0.947 . S
C450 C507 1.392 . S
C451 C452 1.391 . S
C451 C455 1.397 . S
C451 C507 1.419 . S
C452 C448 1.391 . S
C452 C451 1.391 . S
C452 C453 1.399 . S
C453 C452 1.399 . S
C453 C456 1.396 . S
C453 C465 1.439 1_545 S
C453 C466 1.684 1_545 S
H454 C478 0.948 . S
C455 C451 1.397 . S
C455 C456 1.394 . S
C455 C474 1.723 . S
C456 C453 1.396 . S
C456 C455 1.394 . S
C456 C486 1.723 1_545 S
H457 C480 0.947 . S
H458 C481 0.948 . S
H459 C487 0.982 . S
H460 C488 0.979 . S
H461 C488 0.980 . S
H462 C488 0.983 . S
H463 C487 0.979 . S
H464 C487 0.977 . S
C465 C453 1.439 1_565 S
C465 H494 0.966 1_565 S
C465 H495 0.980 . S
C465 H496 1.006 . S
C466 C453 1.684 1_565 S
C466 H491 0.979 . S
C466 H492 0.980 . S
C466 H493 0.983 . S
C467 C468 1.391 . S
C467 C472 1.391 . S
C467 H497 0.948 . S
C468 C467 1.391 . S
C468 C469 1.391 . S
C469 C468 1.391 . S
C469 C470 1.392 . S
C469 H498 0.947 . S
C470 C469 1.392 . S
C470 C471 1.419 . S
C470 H499 0.948 . S
C471 C470 1.419 . S
C471 C472 1.391 . S
C471 C475 1.397 . S
C472 C467 1.391 . S
C472 C471 1.391 . S
C472 C473 1.399 . S
C473 C472 1.399 . S
C473 C474 1.396 . S
C473 C476 1.453 . S
C473 C477 1.684 . S
C474 C455 1.723 . S
C474 C473 1.396 . S
C474 C475 1.394 . S
C475 C471 1.397 . S
C475 C474 1.394 . S
C475 C485 1.723 1_545 S
C476 C473 1.453 . S
C476 H500 0.982 . S
C476 H501 0.979 . S
C476 H502 0.977 . S
C477 C473 1.684 . S
C477 H503 0.979 . S
C477 H504 0.980 . S
C477 H505 0.983 . S
C478 H454 0.948 . S
C478 C479 1.391 . S
C478 C483 1.391 . S
C479 C478 1.391 . S
C479 C480 1.391 . S
C480 H457 0.947 . S
C480 C479 1.391 . S
C480 C481 1.392 . S
C481 H458 0.948 . S
C481 C480 1.392 . S
C481 C482 1.419 . S
C482 C481 1.419 . S
C482 C483 1.391 . S
C482 C486 1.397 . S
C483 C478 1.391 . S
C483 C482 1.391 . S
C483 C484 1.399 . S
C484 C483 1.399 . S
C484 C485 1.396 . S
C484 C487 1.453 . S
C484 C488 1.684 . S
C485 C475 1.723 1_565 S
C485 C484 1.396 . S
C485 C486 1.394 . S
C486 C456 1.723 1_565 S
C486 C482 1.397 . S
C486 C485 1.394 . S
C487 H459 0.982 . S
C487 H463 0.979 . S
C487 H464 0.977 . S
C487 C484 1.453 . S
C488 H460 0.979 . S
C488 H461 0.980 . S
C488 H462 0.983 . S
C488 C484 1.684 . S
H489 C507 0.948 . S
H490 C448 0.948 . S
H491 C466 0.979 . S
H492 C466 0.980 . S
H493 C466 0.983 . S
H494 C465 0.966 1_545 S
H495 C465 0.980 . S
H496 C465 1.006 . S
H497 C467 0.948 . S
H498 C469 0.947 . S
H499 C470 0.948 . S
H500 C476 0.982 . S
H501 C476 0.979 . S
H502 C476 0.977 . S
H503 C477 0.979 . S
H504 C477 0.980 . S
H505 C477 0.983 . S
H506 C450 0.947 . S
C507 C450 1.392 . S
C507 C451 1.419 . S
C507 H489 0.948 . S
C508 C509 1.391 1_554 S
C508 C512 1.391 . S
C508 H550 0.948 . S
C509 C508 1.391 1_556 S
C509 C510 1.391 . S
C510 C509 1.391 . S
C510 H566 0.947 . S
C510 C567 1.392 . S
C511 C512 1.391 1_556 S
C511 C515 1.397 . S
C511 C567 1.419 . S
C512 C508 1.391 . S
C512 C511 1.391 1_554 S
C512 C513 1.399 . S
C513 C512 1.399 . S
C513 C516 1.396 . S
C513 C525 1.453 . S
C513 C526 1.684 . S
H514 C538 0.948 . S
C515 C511 1.397 . S
C515 C516 1.394 1_556 S
C515 C534 1.723 . S
C516 C513 1.396 . S
C516 C515 1.394 1_554 S
C516 C546 1.723 . S
H517 C540 0.947 . S
H518 C541 0.948 . S
H519 C547 0.982 . S
H520 C548 0.979 . S
H521 C548 0.980 1_556 S
H522 C548 0.983 . S
H523 C547 0.979 . S
H524 C547 0.977 1_556 S
C525 C513 1.453 . S
C525 H554 0.982 . S
C525 H555 0.979 . S
C525 H556 0.977 . S
C526 C513 1.684 . S
C526 H551 0.979 . S
C526 H552 0.980 . S
C526 H553 0.983 . S
C527 C528 1.391 . S
C527 C532 1.391 . S
C527 H557 0.948 . S
C528 C527 1.391 . S
C528 C529 1.391 . S
C529 C528 1.391 . S
C529 C530 1.392 . S
C529 H558 0.947 . S
C530 C529 1.392 . S
C530 C531 1.419 . S
C530 H559 0.948 . S
C531 C530 1.419 . S
C531 C532 1.391 . S
C531 C535 1.397 . S
C532 C527 1.391 . S
C532 C531 1.391 . S
C532 C533 1.399 . S
C533 C532 1.399 . S
C533 C534 1.396 . S
C533 C536 1.453 . S
C533 C537 1.684 . S
C534 C515 1.723 . S
C534 C533 1.396 . S
C534 C535 1.394 . S
C535 C531 1.397 . S
C535 C534 1.394 . S
C535 C545 1.723 1_556 S
C536 C533 1.453 . S
C536 H560 0.982 . S
C536 H561 0.979 . S
C536 H562 0.977 . S
C537 C533 1.684 . S
C537 H563 0.979 . S
C537 H564 0.980 . S
C537 H565 0.983 . S
C538 H514 0.948 . S
C538 C539 1.391 . S
C538 C543 1.391 . S
C539 C538 1.391 . S
C539 C540 1.391 . S
C540 H517 0.947 . S
C540 C539 1.391 . S
C540 C541 1.392 . S
C541 H518 0.948 . S
C541 C540 1.392 . S
C541 C542 1.419 . S
C542 C541 1.419 . S
C542 C543 1.391 . S
C542 C546 1.397 . S
C543 C538 1.391 . S
C543 C542 1.391 . S
C543 C544 1.399 . S
C544 C543 1.399 . S
C544 C545 1.396 . S
C544 C547 1.453 . S
C544 C548 1.684 . S
C545 C535 1.723 1_554 S
C545 C544 1.396 . S
C545 C546 1.394 . S
C546 C516 1.723 . S
C546 C542 1.397 . S
C546 C545 1.394 . S
C547 H519 0.982 . S
C547 H523 0.979 . S
C547 H524 0.977 1_554 S
C547 C544 1.453 . S
C548 H520 0.979 . S
C548 H521 0.980 1_554 S
C548 H522 0.983 . S
C548 C544 1.684 . S
H549 C567 0.948 . S
H550 C508 0.948 . S
H551 C526 0.979 . S
H552 C526 0.980 . S
H553 C526 0.983 . S
H554 C525 0.982 . S
H555 C525 0.979 . S
H556 C525 0.977 . S
H557 C527 0.948 . S
H558 C529 0.947 . S
H559 C530 0.948 . S
H560 C536 0.982 . S
H561 C536 0.979 . S
H562 C536 0.977 . S
H563 C537 0.979 . S
H564 C537 0.980 . S
H565 C537 0.983 . S
H566 C510 0.947 . S
C567 C510 1.392 . S
C567 C511 1.419 . S
C567 H549 0.948 . S
C568 C569 1.369 . S
C568 C570 1.419 . S
C568 H572 0.930 . S
C569 C568 1.369 . S
C569 C578 1.429 . S
C570 C568 1.419 . S
C570 C571 1.363 . S
C570 H573 0.929 . S
C571 C570 1.363 . S
C571 C577 1.428 . S
H572 C568 0.930 . S
H573 C570 0.929 . S
S574 N575 1.613 . S
S574 N576 1.610 . S
N575 S574 1.613 . S
N575 C578 1.350 . S
N576 S574 1.610 . S
N576 C577 1.351 . S
C577 C571 1.428 . S
C577 N576 1.351 . S
C577 C578 1.434 . S
C578 C569 1.429 . S
C578 N575 1.350 . S
C578 C577 1.434 . S
C579 C580 1.369 . S
C579 C581 1.419 . S
C579 H583 0.930 . S
C580 C579 1.369 . S
C580 C589 1.429 . S
C581 C579 1.419 . S
C581 C582 1.363 . S
C581 H584 0.929 . S
C582 C581 1.363 . S
C582 C588 1.428 . S
H583 C579 0.930 . S
H584 C581 0.929 . S
S585 N586 1.613 . S
S585 N587 1.610 . S
N586 S585 1.613 . S
N586 C589 1.350 . S
N587 S585 1.610 . S
N587 C588 1.351 . S
C588 C582 1.428 . S
C588 N587 1.351 . S
C588 C589 1.434 . S
C589 C580 1.429 . S
C589 N586 1.350 . S
C589 C588 1.434 . S
C590 C591 1.369 . S
C590 C592 1.419 . S
C590 H594 0.930 . S
C591 C590 1.369 . S
C591 C600 1.429 . S
C592 C590 1.419 . S
C592 C593 1.363 . S
C592 H595 0.929 . S
C593 C592 1.363 . S
C593 C599 1.428 . S
H594 C590 0.930 . S
H595 C592 0.929 . S
S596 N597 1.613 . S
S596 N598 1.610 . S
N597 S596 1.613 . S
N597 C600 1.350 . S
N598 S596 1.610 . S
N598 C599 1.351 . S
C599 C593 1.428 . S
C599 N598 1.351 . S
C599 C600 1.434 . S
C600 C591 1.429 . S
C600 N597 1.350 . S
C600 C599 1.434 . S
C601 C602 1.369 . S
C601 C603 1.419 . S
C601 H605 0.930 . S
C602 C601 1.369 . S
C602 C611 1.429 . S
C603 C601 1.419 . S
C603 C604 1.363 . S
C603 H606 0.929 . S
C604 C603 1.363 . S
C604 C610 1.428 . S
H605 C601 0.930 . S
H606 C603 0.929 . S
S607 N608 1.613 . S
S607 N609 1.610 . S
N608 S607 1.613 . S
N608 C611 1.350 . S
N609 S607 1.610 . S
N609 C610 1.351 . S
C610 C604 1.428 . S
C610 N609 1.351 . S
C610 C611 1.434 . S
C611 C602 1.429 . S
C611 N608 1.350 . S
C611 C610 1.434 . S
C612 C613 1.369 . S
C612 C614 1.419 . S
C612 H616 0.930 . S
C613 C612 1.369 . S
C613 C622 1.429 . S
C614 C612 1.419 . S
C614 C615 1.363 . S
C614 H617 0.929 . S
C615 C614 1.363 . S
C615 C621 1.428 . S
H616 C612 0.930 . S
H617 C614 0.929 . S
S618 N619 1.613 . S
S618 N620 1.610 . S
N619 S618 1.613 . S
N619 C622 1.350 . S
N620 S618 1.610 . S
N620 C621 1.351 . S
C621 C615 1.428 . S
C621 N620 1.351 . S
C621 C622 1.434 . S
C622 C613 1.429 . S
C622 N619 1.350 . S
C622 C621 1.434 . S
C623 C624 1.369 . S
C623 C625 1.419 . S
C623 H627 0.930 . S
C624 C623 1.369 . S
C624 C633 1.429 . S
C625 C623 1.419 . S
C625 C626 1.363 . S
C625 H628 0.929 . S
C626 C625 1.363 . S
C626 C632 1.428 . S
H627 C623 0.930 . S
H628 C625 0.929 . S
S629 N630 1.613 . S
S629 N631 1.610 . S
N630 S629 1.613 . S
N630 C633 1.350 . S
N631 S629 1.610 . S
N631 C632 1.351 . S
C632 C626 1.428 . S
C632 N631 1.351 . S
C632 C633 1.434 . S
C633 C624 1.429 . S
C633 N630 1.350 . S
C633 C632 1.434 . S
C634 C635 1.369 . S
C634 C636 1.419 . S
C634 H638 0.930 . S
C635 C634 1.369 . S
C635 C644 1.429 . S
C636 C634 1.419 . S
C636 C637 1.363 . S
C636 H639 0.929 . S
C637 C636 1.363 . S
C637 C643 1.428 . S
H638 C634 0.930 . S
H639 C636 0.929 . S
S640 N641 1.613 . S
S640 N642 1.610 . S
N641 S640 1.613 . S
N641 C644 1.350 . S
N642 S640 1.610 . S
N642 C643 1.351 . S
C643 C637 1.428 . S
C643 N642 1.351 . S
C643 C644 1.434 . S
C644 C635 1.429 . S
C644 N641 1.350 . S
C644 C643 1.434 . S
C645 C646 1.369 . S
C645 C647 1.419 . S
C645 H649 0.930 . S
C646 C645 1.369 . S
C646 C655 1.429 . S
C647 C645 1.419 . S
C647 C648 1.363 . S
C647 H650 0.929 . S
C648 C647 1.363 . S
C648 C654 1.428 . S
H649 C645 0.930 . S
H650 C647 0.929 . S
S651 N652 1.613 . S
S651 N653 1.610 . S
N652 S651 1.613 . S
N652 C655 1.350 . S
N653 S651 1.610 . S
N653 C654 1.351 . S
C654 C648 1.428 . S
C654 N653 1.351 . S
C654 C655 1.434 . S
C655 C646 1.429 . S
C655 N652 1.350 . S
C655 C654 1.434 . S
C656 C657 1.369 . S
C656 C658 1.419 . S
C656 H660 0.930 . S
C657 C656 1.369 . S
C657 C666 1.429 . S
C658 C656 1.419 . S
C658 C659 1.363 . S
C658 H661 0.929 . S
C659 C658 1.363 . S
C659 C665 1.428 . S
H660 C656 0.930 . S
H661 C658 0.929 . S
S662 N663 1.613 . S
S662 N664 1.610 . S
N663 S662 1.613 . S
N663 C666 1.350 . S
N664 S662 1.610 . S
N664 C665 1.351 . S
C665 C659 1.428 . S
C665 N664 1.351 . S
C665 C666 1.434 . S
C666 C657 1.429 . S
C666 N663 1.350 . S
C666 C665 1.434 . S
C667 C668 1.369 . S
C667 C669 1.419 . S
C667 H671 0.930 . S
C668 C667 1.369 . S
C668 C677 1.429 . S
C669 C667 1.419 . S
C669 C670 1.363 . S
C669 H672 0.929 . S
C670 C669 1.363 . S
C670 C676 1.428 . S
H671 C667 0.930 . S
H672 C669 0.929 . S
S673 N674 1.613 . S
S673 N675 1.610 . S
N674 S673 1.613 . S
N674 C677 1.350 . S
N675 S673 1.610 . S
N675 C676 1.351 . S
C676 C670 1.428 . S
C676 N675 1.351 . S
C676 C677 1.434 . S
C677 C668 1.429 . S
C677 N674 1.350 . S
C677 C676 1.434 . S
C678 C679 1.369 . S
C678 C680 1.419 . S
C678 H682 0.930 . S
C679 C678 1.369 . S
C679 C688 1.429 . S
C680 C678 1.419 . S
C680 C681 1.363 . S
C680 H683 0.929 . S
C681 C680 1.363 . S
C681 C687 1.428 . S
H682 C678 0.930 . S
H683 C680 0.929 . S
S684 N685 1.613 . S
S684 N686 1.610 . S
N685 S684 1.613 . S
N685 C688 1.350 . S
N686 S684 1.610 . S
N686 C687 1.351 . S
C687 C681 1.428 . S
C687 N686 1.351 . S
C687 C688 1.434 . S
C688 C679 1.429 . S
C688 N685 1.350 . S
C688 C687 1.434 . S
C689 C690 1.369 . S
C689 C691 1.419 . S
C689 H693 0.930 . S
C690 C689 1.369 . S
C690 C699 1.429 . S
C691 C689 1.419 . S
C691 C692 1.363 . S
C691 H694 0.929 . S
C692 C691 1.363 . S
C692 C698 1.428 . S
H693 C689 0.930 . S
H694 C691 0.929 . S
S695 N696 1.613 . S
S695 N697 1.610 . S
N696 S695 1.613 . S
N696 C699 1.350 . S
N697 S695 1.610 . S
N697 C698 1.351 . S
C698 C692 1.428 . S
C698 N697 1.351 . S
C698 C699 1.434 . S
C699 C690 1.429 . S
C699 N696 1.350 . S
C699 C698 1.434 . S
C700 C701 1.369 . S
C700 C702 1.419 . S
C700 H704 0.930 . S
C701 C700 1.369 . S
C701 C710 1.429 . S
C702 C700 1.419 . S
C702 C703 1.363 . S
C702 H705 0.929 . S
C703 C702 1.363 . S
C703 C709 1.428 . S
H704 C700 0.930 . S
H705 C702 0.929 . S
S706 N707 1.613 . S
S706 N708 1.610 . S
N707 S706 1.613 . S
N707 C710 1.350 . S
N708 S706 1.610 . S
N708 C709 1.351 . S
C709 C703 1.428 . S
C709 N708 1.351 . S
C709 C710 1.434 . S
C710 C701 1.429 . S
C710 N707 1.350 . S
C710 C709 1.434 . S
C711 C712 1.369 . S
C711 C713 1.419 . S
C711 H715 0.930 . S
C712 C711 1.369 . S
C712 C721 1.429 . S
C713 C711 1.419 . S
C713 C714 1.363 . S
C713 H716 0.929 . S
C714 C713 1.363 . S
C714 C720 1.428 . S
H715 C711 0.930 . S
H716 C713 0.929 . S
S717 N718 1.613 . S
S717 N719 1.610 . S
N718 S717 1.613 . S
N718 C721 1.350 . S
N719 S717 1.610 . S
N719 C720 1.351 . S
C720 C714 1.428 . S
C720 N719 1.351 . S
C720 C721 1.434 . S
C721 C712 1.429 . S
C721 N718 1.350 . S
C721 C720 1.434 . S
C722 C723 1.369 . S
C722 C724 1.419 . S
C722 H726 0.930 . S
C723 C722 1.369 . S
C723 C732 1.429 . S
C724 C722 1.419 . S
C724 C725 1.363 . S
C724 H727 0.929 . S
C725 C724 1.363 . S
C725 C731 1.428 . S
H726 C722 0.930 . S
H727 C724 0.929 . S
S728 N729 1.613 . S
S728 N730 1.610 . S
N729 S728 1.613 . S
N729 C732 1.350 . S
N730 S728 1.610 . S
N730 C731 1.351 . S
C731 C725 1.428 . S
C731 N730 1.351 . S
C731 C732 1.434 . S
C732 C723 1.429 . S
C732 N729 1.350 . S
C732 C731 1.434 . S
C733 C734 1.369 . S
C733 C735 1.419 . S
C733 H737 0.930 . S
C734 C733 1.369 . S
C734 C743 1.429 . S
C735 C733 1.419 . S
C735 C736 1.363 . S
C735 H738 0.929 . S
C736 C735 1.363 . S
C736 C742 1.428 . S
H737 C733 0.930 . S
H738 C735 0.929 . S
S739 N740 1.613 . S
S739 N741 1.610 . S
N740 S739 1.613 . S
N740 C743 1.350 . S
N741 S739 1.610 . S
N741 C742 1.351 . S
C742 C736 1.428 . S
C742 N741 1.351 . S
C742 C743 1.434 . S
C743 C734 1.429 . S
C743 N740 1.350 . S
C743 C742 1.434 . S
C744 C745 1.367 1_554 S
C744 C746 1.419 . S
C744 H748 0.930 . S
C745 C744 1.367 1_556 S
C745 C754 1.430 . S
C746 C744 1.419 . S
C746 C747 1.362 1_554 S
C746 H749 0.929 . S
C747 C746 1.362 1_556 S
C747 C753 1.429 . S
H748 C744 0.930 . S
H749 C746 0.929 . S
S750 N751 1.613 . S
S750 N752 1.610 . S
N751 S750 1.613 . S
N751 C754 1.350 . S
N752 S750 1.610 . S
N752 C753 1.351 . S
C753 C747 1.429 . S
C753 N752 1.351 . S
C753 C754 1.434 . S
C754 C745 1.430 . S
C754 N751 1.350 . S
C754 C753 1.434 . S
C755 C756 1.369 . S
C755 C757 1.419 . S
C755 H759 0.930 . S
C756 C755 1.369 . S
C756 C765 1.429 . S
C757 C755 1.419 . S
C757 C758 1.363 . S
C757 H760 0.929 . S
C758 C757 1.363 . S
C758 C764 1.428 . S
H759 C755 0.930 . S
H760 C757 0.929 . S
S761 N762 1.613 . S
S761 N763 1.610 . S
N762 S761 1.613 . S
N762 C765 1.350 . S
N763 S761 1.610 . S
N763 C764 1.351 . S
C764 C758 1.428 . S
C764 N763 1.351 . S
C764 C765 1.434 . S
C765 C756 1.429 . S
C765 N762 1.350 . S
C765 C764 1.434 . S
C766 C767 1.367 1_554 S
C766 C768 1.419 . S
C766 H770 0.930 . S
C767 C766 1.367 1_556 S
C767 C776 1.431 . S
C768 C766 1.419 . S
C768 C769 1.362 1_554 S
C768 H771 0.929 . S
C769 C768 1.362 1_556 S
C769 C775 1.429 . S
H770 C766 0.930 . S
H771 C768 0.929 . S
S772 N773 1.613 . S
S772 N774 1.610 . S
N773 S772 1.613 . S
N773 C776 1.350 . S
N774 S772 1.610 . S
N774 C775 1.351 . S
C775 C769 1.429 . S
C775 N774 1.351 . S
C775 C776 1.434 . S
C776 C767 1.431 . S
C776 N773 1.350 . S
C776 C775 1.434 . S
C777 C778 1.369 . S
C777 C779 1.419 . S
C777 H781 0.930 . S
C778 C777 1.369 . S
C778 C787 1.429 . S
C779 C777 1.419 . S
C779 C780 1.363 . S
C779 H782 0.929 . S
C780 C779 1.363 . S
C780 C786 1.428 . S
H781 C777 0.930 . S
H782 C779 0.929 . S
S783 N784 1.613 . S
S783 N785 1.610 . S
N784 S783 1.613 . S
N784 C787 1.350 . S
N785 S783 1.610 . S
N785 C786 1.351 . S
C786 C780 1.428 . S
C786 N785 1.351 . S
C786 C787 1.434 . S
C787 C778 1.429 . S
C787 N784 1.350 . S
C787 C786 1.434 . S
C788 C789 1.369 . S
C788 C790 1.419 . S
C788 H792 0.930 . S
C789 C788 1.369 . S
C789 C798 1.429 . S
C790 C788 1.419 . S
C790 C791 1.363 . S
C790 H793 0.929 . S
C791 C790 1.363 . S
C791 C797 1.428 . S
H792 C788 0.930 . S
H793 C790 0.929 . S
S794 N795 1.613 . S
S794 N796 1.610 . S
N795 S794 1.613 . S
N795 C798 1.350 . S
N796 S794 1.610 . S
N796 C797 1.351 . S
C797 C791 1.428 . S
C797 N796 1.351 . S
C797 C798 1.434 . S
C798 C789 1.429 . S
C798 N795 1.350 . S
C798 C797 1.434 . S
C799 C800 1.360 1_556 S
C799 C801 1.419 . S
C799 H803 0.930 . S
C800 C799 1.360 1_554 S
C800 C809 1.438 . S
C801 C799 1.419 . S
C801 C802 1.356 1_556 S
C801 H804 0.929 . S
C802 C801 1.356 1_554 S
C802 C808 1.436 . S
H803 C799 0.930 . S
H804 C801 0.929 . S
S805 N806 1.613 . S
S805 N807 1.610 . S
N806 S805 1.613 . S
N806 C809 1.350 . S
N807 S805 1.610 . S
N807 C808 1.351 . S
C808 C802 1.436 . S
C808 N807 1.351 . S
C808 C809 1.434 . S
C809 C800 1.438 . S
C809 N806 1.350 . S
C809 C808 1.434 . S
C810 C811 1.369 . S
C810 C812 1.419 . S
C810 H814 0.930 . S
C811 C810 1.369 . S
C811 C820 1.429 . S
C812 C810 1.419 . S
C812 C813 1.363 . S
C812 H815 0.929 . S
C813 C812 1.363 . S
C813 C819 1.428 . S
H814 C810 0.930 . S
H815 C812 0.929 . S
S816 N817 1.613 . S
S816 N818 1.610 . S
N817 S816 1.613 . S
N817 C820 1.350 . S
N818 S816 1.610 . S
N818 C819 1.351 . S
C819 C813 1.428 . S
C819 N818 1.351 . S
C819 C820 1.434 . S
C820 C811 1.429 . S
C820 N817 1.350 . S
C820 C819 1.434 . S
C821 C822 1.366 1_554 S
C821 C823 1.419 . S
C821 H825 0.930 . S
C822 C821 1.366 1_556 S
C822 C831 1.432 . S
C823 C821 1.419 . S
C823 C824 1.362 1_554 S
C823 H826 0.929 . S
C824 C823 1.362 1_556 S
C824 C830 1.430 . S
H825 C821 0.930 . S
H826 C823 0.929 . S
S827 N828 1.613 . S
S827 N829 1.610 . S
N828 S827 1.613 . S
N828 C831 1.350 . S
N829 S827 1.610 . S
N829 C830 1.351 . S
C830 C824 1.430 . S
C830 N829 1.351 . S
C830 C831 1.434 . S
C831 C822 1.432 . S
C831 N828 1.350 . S
C831 C830 1.434 . S
C569 C5 1.551 . S
C571 C269 1.477 . S
C580 C31 1.549 . S
C582 C89 1.478 . S
C593 C168 1.481 . S
C591 C53 1.550 . S
C602 C71 1.551 . S
C604 C228 1.514 . S
C615 C389 1.473 . S
C613 C75 1.547 . S
C626 C468 1.510 . S
C624 C9 1.549 . S
C637 C539 1.515 . S
C635 C27 1.549 . S
C648 C329 1.473 . S
C646 C49 1.549 . S
C657 C51 1.548 . S
C659 C179 1.556 . S
C668 C72 1.548 . S
C670 C209 1.426 . S
C679 C6 1.550 . S
C681 C288 1.557 . S
C692 C108 1.556 . S
C690 C29 1.550 . S
C701 C28 1.549 . S
C703 C528 1.431 . S
C714 C348 1.554 . S
C712 C50 1.547 . S
C725 C408 1.554 . S
C723 C73 1.550 . S
C734 C7 1.551 . S
C736 C449 1.434 . S
C747 C119 1.515 . S
C745 C4 1.534 1_556 S
C758 C149 1.516 . S
C756 C30 1.533 . S
C767 C52 1.534 1_556 S
C769 C239 1.475 1_556 S
C778 C70 1.534 . S
C780 C299 1.518 . S
C791 C359 1.513 . S
C789 C74 1.533 . S
C800 C8 1.534 . S
C802 C419 1.516 . S
C811 C26 1.534 . S
C813 C479 1.473 . S
C822 C48 1.533 1_556 S
C824 C509 1.469 . S
