# Generated by pormake.
# Topology zzz, (3,6)-cn, num edge types: 1
# Building blocks:
#     Node 0, Type 0, BuildingBlock: BELTOD_clean_linker_0, # of connection points: 3
#     Node 1, Type 0, BuildingBlock: BELTOD_clean_linker_0, # of connection points: 3
#     Node 2, Type 0, BuildingBlock: BELTOD_clean_linker_0, # of connection points: 3
#     Node 3, Type 0, BuildingBlock: BELTOD_clean_linker_0, # of connection points: 3
#     Node 4, Type 0, BuildingBlock: BELTOD_clean_linker_0, # of connection points: 3
#     Node 5, Type 0, BuildingBlock: BELTOD_clean_linker_0, # of connection points: 3
#     Node 6, Type 0, BuildingBlock: BELTOD_clean_linker_0, # of connection points: 3
#     Node 7, Type 0, BuildingBlock: BELTOD_clean_linker_0, # of connection points: 3
#     Node 8, Type 1, BuildingBlock: BETDIP_clean_sbu_0, # of connection points: 6
#     Node 9, Type 1, BuildingBlock: BETDIP_clean_sbu_0, # of connection points: 6
#     Node 10, Type 1, BuildingBlock: BETDIP_clean_sbu_0, # of connection points: 6
#     Node 11, Type 1, BuildingBlock: BETDIP_clean_sbu_0, # of connection points: 6
#     Edge 12, Type (0, 1), BuildingBlock: OJICUG_clean_linker_0, # of connection points: 2
#     Edge 13, Type (0, 1), BuildingBlock: OJICUG_clean_linker_0, # of connection points: 2
#     Edge 14, Type (0, 1), BuildingBlock: OJICUG_clean_linker_0, # of connection points: 2
#     Edge 15, Type (0, 1), BuildingBlock: OJICUG_clean_linker_0, # of connection points: 2
#     Edge 16, Type (0, 1), BuildingBlock: OJICUG_clean_linker_0, # of connection points: 2
#     Edge 17, Type (0, 1), BuildingBlock: OJICUG_clean_linker_0, # of connection points: 2
#     Edge 18, Type (0, 1), BuildingBlock: OJICUG_clean_linker_0, # of connection points: 2
#     Edge 19, Type (0, 1), BuildingBlock: OJICUG_clean_linker_0, # of connection points: 2
#     Edge 20, Type (0, 1), BuildingBlock: OJICUG_clean_linker_0, # of connection points: 2
#     Edge 21, Type (0, 1), BuildingBlock: OJICUG_clean_linker_0, # of connection points: 2
#     Edge 22, Type (0, 1), BuildingBlock: OJICUG_clean_linker_0, # of connection points: 2
#     Edge 23, Type (0, 1), BuildingBlock: OJICUG_clean_linker_0, # of connection points: 2
#     Edge 24, Type (0, 1), BuildingBlock: OJICUG_clean_linker_0, # of connection points: 2
#     Edge 25, Type (0, 1), BuildingBlock: OJICUG_clean_linker_0, # of connection points: 2
#     Edge 26, Type (0, 1), BuildingBlock: OJICUG_clean_linker_0, # of connection points: 2
#     Edge 27, Type (0, 1), BuildingBlock: OJICUG_clean_linker_0, # of connection points: 2
#     Edge 28, Type (0, 1), BuildingBlock: OJICUG_clean_linker_0, # of connection points: 2
#     Edge 29, Type (0, 1), BuildingBlock: OJICUG_clean_linker_0, # of connection points: 2
#     Edge 30, Type (0, 1), BuildingBlock: OJICUG_clean_linker_0, # of connection points: 2
#     Edge 31, Type (0, 1), BuildingBlock: OJICUG_clean_linker_0, # of connection points: 2
#     Edge 32, Type (0, 1), BuildingBlock: OJICUG_clean_linker_0, # of connection points: 2
#     Edge 33, Type (0, 1), BuildingBlock: OJICUG_clean_linker_0, # of connection points: 2
#     Edge 34, Type (0, 1), BuildingBlock: OJICUG_clean_linker_0, # of connection points: 2
#     Edge 35, Type (0, 1), BuildingBlock: OJICUG_clean_linker_0, # of connection points: 2
# Relax obj value: 0.498
# Max RMSD: 0.243
# Mean RMSD: 0.233
data_MOF--net-zzz--node1-BETDIP_clean_sbu_0--node2-BELTOD_clean_linker_0--edge1-OJICUG_clean_linker_0
_symmetry_space_group_name_H-M    P1
_symmetry_Int_Tables_number       1
_symmetry_cell_setting            triclinic
loop_
_symmetry_equiv_pos_as_xyz
'x, y, z'
_cell_length_a     42.1492
_cell_length_b     42.169881
_cell_length_c     13.399578
_cell_angle_alpha  89.366709
_cell_angle_beta   89.84162
_cell_angle_gamma 89.963148
loop_
_atom_site_label
_atom_site_type_symbol
_atom_site_fract_x
_atom_site_fract_y
_atom_site_fract_z
_atom_type_partial_charge
P0 P 0.72389 0.47685 0.43404 0.0
H1 H 0.74763 0.48157 0.63804 0.0
H2 H 0.79968 0.49249 0.7029 0.0
H3 H 0.82796 0.53014 0.41422 0.0
H4 H 0.77599 0.51624 0.34811 0.0
H5 H 0.65643 0.49458 0.4373 0.0
H6 H 0.61875 0.50691 0.30539 0.0
H7 H 0.69577 0.51131 0.09209 0.0
H8 H 0.73353 0.5002 0.22617 0.0
H9 H 0.7779 0.43724 0.49212 0.0
H10 H 0.70793 0.43733 0.2579 0.0
O11 O 0.70104 0.46377 0.52772 0.0
H12 H 0.81174 0.40378 0.39517 0.0
H13 H 0.74142 0.40208 0.16027 0.0
C14 C 0.75726 0.49842 0.48792 0.0
C15 C 0.7646 0.49315 0.58903 0.0
C16 C 0.79499 0.49944 0.62649 0.0
C17 C 0.81924 0.51193 0.56467 0.0
C18 C 0.81087 0.51957 0.46483 0.0
C19 C 0.78055 0.51244 0.42678 0.0
C20 C 0.69808 0.49629 0.34248 0.0
C21 C 0.66548 0.49909 0.36281 0.0
C22 C 0.64369 0.50568 0.28625 0.0
C23 C 0.65375 0.50936 0.18633 0.0
C24 C 0.68677 0.5088 0.16746 0.0
C25 C 0.70862 0.50257 0.24465 0.0
C26 C 0.74175 0.44232 0.3784 0.0
C27 C 0.76948 0.42966 0.4201 0.0
C28 C 0.78875 0.40968 0.36451 0.0
C29 C 0.78024 0.40133 0.26664 0.0
C30 C 0.74959 0.4094 0.233 0.0
C31 C 0.73044 0.42981 0.28867 0.0
P32 P 0.04112 0.72926 0.41147 0.0
H33 H 0.03848 0.7526 0.61604 0.0
H34 H 0.02793 0.80421 0.68338 0.0
H35 H 0.9881 0.83392 0.3999 0.0
H36 H 1.00161 0.78227 0.33088 0.0
H37 H 0.02419 0.66171 0.42482 0.0
H38 H 0.0115 0.62275 0.29903 0.0
H39 H 1.00339 0.69782 0.07828 0.0
H40 H 0.0145 0.7369 0.20691 0.0
H41 H 0.08284 0.7818 0.46339 0.0
H42 H 0.07672 0.71423 0.22471 0.0
O43 O 0.05583 0.70694 0.50405 0.0
H44 H 0.11647 0.8153 0.36152 0.0
H45 H 0.11072 0.74798 0.1212 0.0
C46 C 0.02043 0.76284 0.46815 0.0
C47 C 0.02656 0.76978 0.56867 0.0
C48 C 0.02045 0.79996 0.60766 0.0
C49 C 1.00731 0.82448 0.54818 0.0
C50 C 0.99908 0.81662 0.44886 0.0
C51 C 1.006 0.78647 0.40918 0.0
C52 C 0.02068 0.70253 0.32607 0.0
C53 C 0.01877 0.67006 0.35012 0.0
C54 C 0.01201 0.64749 0.27686 0.0
C55 C 1.00734 0.65656 0.17631 0.0
C56 C 1.00676 0.68945 0.15412 0.0
C57 C 0.01299 0.7121 0.22824 0.0
C58 C 0.07483 0.74691 0.34863 0.0
C59 C 0.08904 0.77384 0.3894 0.0
C60 C 0.10895 0.79283 0.33121 0.0
C61 C 0.11535 0.78493 0.23144 0.0
C62 C 0.10527 0.75526 0.19661 0.0
C63 C 0.08534 0.73618 0.25538 0.0
P64 P 0.79017 0.05004 0.42083 0.0
H65 H 0.77416 0.0285 0.62475 0.0
H66 H 0.72364 0.0142 0.70147 0.0
H67 H 0.681 0.00983 0.40903 0.0
H68 H 0.73204 0.02256 0.33308 0.0
H69 H 0.85383 0.07093 0.37532 0.0
H70 H 0.89212 0.05841 0.2468 0.0
H71 H 0.83106 0.98344 0.14279 0.0
H72 H 0.79189 0.99718 0.27206 0.0
H73 H 0.76315 0.10986 0.48964 0.0
H74 H 0.77114 0.05909 0.21332 0.0
O75 O 0.80978 0.06557 0.51672 0.0
H76 H 0.72275 0.1442 0.41556 0.0
H77 H 0.73002 0.09151 0.14089 0.0
C78 C 0.75733 0.02672 0.47245 0.0
C79 C 0.75429 0.02333 0.57657 0.0
C80 C 0.72494 0.01573 0.62088 0.0
C81 C 0.69749 0.01156 0.56249 0.0
C82 C 0.70123 0.01266 0.45761 0.0
C83 C 0.73074 0.01991 0.41341 0.0
C84 C 0.82014 0.03454 0.3357 0.0
C85 C 0.84886 0.05121 0.32671 0.0
C86 C 0.87101 0.04391 0.25239 0.0
C87 C 0.86526 0.01963 0.18346 0.0
C88 C 0.83651 1.00247 0.1935 0.0
C89 C 0.81414 0.00996 0.26846 0.0
C90 C 0.77023 0.08197 0.35695 0.0
C91 C 0.75703 0.10682 0.41189 0.0
C92 C 0.73359 0.1262 0.36966 0.0
C93 C 0.72234 0.12037 0.27269 0.0
C94 C 0.73798 0.09729 0.21519 0.0
C95 C 0.76169 0.07837 0.25693 0.0
P96 P 0.46795 0.79296 0.42752 0.0
H97 H 0.45824 0.76409 0.62374 0.0
H98 H 0.47056 0.71247 0.69205 0.0
H99 H 0.53249 0.69471 0.44085 0.0
H100 H 0.51788 0.74616 0.36912 0.0
H101 H 0.44871 0.85743 0.38587 0.0
H102 H 0.46446 0.89686 0.26369 0.0
H103 H 0.54388 0.83819 0.17793 0.0
H104 H 0.52719 0.79794 0.30113 0.0
H105 H 0.402 0.77102 0.44259 0.0
H106 H 0.47822 0.7692 0.2275 0.0
O107 O 0.44533 0.81104 0.51218 0.0
H108 H 0.37186 0.73381 0.3412 0.0
H109 H 0.44929 0.73173 0.12853 0.0
C110 C 0.48769 0.75997 0.49179 0.0
C111 C 0.4753 0.74969 0.5842 0.0
C112 C 0.48246 0.71961 0.62382 0.0
C113 C 0.50257 0.69848 0.57289 0.0
C114 C 0.51636 0.70955 0.48244 0.0
C115 C 0.50866 0.73962 0.44188 0.0
C116 C 0.48698 0.82464 0.35514 0.0
C117 C 0.47017 0.85323 0.34343 0.0
C118 C 0.4793 0.87606 0.27251 0.0
C119 C 0.50561 0.87116 0.20965 0.0
C120 C 0.52326 0.8429 0.22374 0.0
C121 C 0.51399 0.81987 0.29546 0.0
C122 C 0.44224 0.77311 0.34207 0.0
C123 C 0.41183 0.76343 0.37204 0.0
C124 C 0.3947 0.742 0.31425 0.0
C125 C 0.40809 0.72949 0.22672 0.0
C126 C 0.43769 0.74115 0.19401 0.0
C127 C 0.45457 0.76262 0.25129 0.0
P128 P 0.29814 0.44864 0.11503 0.0
H129 H 0.27726 0.45807 0.90832 0.0
H130 H 0.22625 0.47439 0.84237 0.0
H131 H 0.2011 0.51262 0.1298 0.0
H132 H 0.25221 0.49499 0.19622 0.0
H133 H 0.34843 0.41249 0.20626 0.0
H134 H 0.38793 0.42315 0.33418 0.0
H135 H 0.35732 0.52071 0.34397 0.0
H136 H 0.31691 0.50962 0.2152 0.0
H137 H 0.25299 0.4009 0.0504 0.0
H138 H 0.28272 0.44243 0.32749 0.0
O139 O 0.31528 0.42749 0.02516 0.0
H140 H 0.20174 0.38761 0.12514 0.0
H141 H 0.23226 0.42945 0.40184 0.0
C142 C 0.26927 0.47553 0.05757 0.0
C143 C 0.26149 0.47119 0.95658 0.0
C144 C 0.23179 0.48043 0.91863 0.0
C145 C 0.20869 0.49442 0.98046 0.0
C146 C 0.21763 0.50124 0.07965 0.0
C147 C 0.24742 0.49187 0.11758 0.0
C148 C 0.3297 0.46024 0.20021 0.0
C149 C 0.35035 0.43637 0.23462 0.0
C150 C 0.37291 0.44242 0.30844 0.0
C151 C 0.37576 0.47272 0.34998 0.0
C152 C 0.35584 0.49712 0.31314 0.0
C153 C 0.33272 0.49085 0.23957 0.0
C154 C 0.27156 0.423 0.18287 0.0
C155 C 0.24929 0.40542 0.129 0.0
C156 C 0.21985 0.39807 0.17156 0.0
C157 C 0.21251 0.40829 0.26844 0.0
C158 C 0.2369 0.42119 0.32698 0.0
C159 C 0.26611 0.42872 0.28418 0.0
P160 P 0.06993 0.30038 0.11157 0.0
H161 H 0.06083 0.28048 0.90473 0.0
H162 H 0.04444 0.23001 0.83752 0.0
H163 H 1.00561 0.20337 0.12524 0.0
H164 H 0.02358 0.25384 0.19299 0.0
H165 H 0.10726 0.34634 0.21662 0.0
H166 H 0.09642 0.38468 0.34709 0.0
H167 H 0.99701 0.36067 0.33739 0.0
H168 H 1.00828 0.32127 0.20628 0.0
H169 H 0.1173 0.25603 0.03758 0.0
H170 H 0.07832 0.28312 0.32216 0.0
O171 O 0.09026 0.31889 0.02117 0.0
H172 H 0.13109 0.20408 0.10703 0.0
H173 H 0.09209 0.23216 0.3914 0.0
C174 C 0.04313 0.27172 0.05426 0.0
C175 C 0.04759 0.26448 0.95288 0.0
C176 C 0.03829 0.23506 0.91415 0.0
C177 C 0.02405 0.21166 0.97543 0.0
C178 C 0.0172 0.22005 0.07527 0.0
C179 C 0.02674 0.24953 0.11406 0.0
C180 C 0.05865 0.33073 0.20131 0.0
C181 C 0.083 0.34936 0.24169 0.0
C182 C 0.07681 0.3713 0.31692 0.0
C183 C 0.04589 0.37577 0.35359 0.0
C184 C 0.02111 0.35792 0.31069 0.0
C185 C 0.02749 0.33534 0.23581 0.0
C186 C 0.09636 0.27334 0.17413 0.0
C187 C 0.11351 0.25162 0.1165 0.0
C188 C 0.12119 0.22179 0.1561 0.0
C189 C 0.11183 0.21358 0.25379 0.0
C190 C 0.09966 0.23746 0.31574 0.0
C191 C 0.09166 0.26699 0.27585 0.0
P192 P 0.21748 0.07159 0.09574 0.0
H193 H 0.23895 0.05707 0.89208 0.0
H194 H 0.29082 0.04029 0.83238 0.0
H195 H 0.31619 0.01152 0.13188 0.0
H196 H 0.26394 0.02846 0.19109 0.0
H197 H 0.16151 0.10429 0.16546 0.0
H198 H 0.12304 0.09361 0.29797 0.0
H199 H 0.16337 1.00073 0.34398 0.0
H200 H 0.20321 0.01204 0.21264 0.0
H201 H 0.27267 0.10936 0.03869 0.0
H202 H 0.21922 0.09117 0.30831 0.0
O203 O 0.2017 0.09214 1.00098 0.0
H204 H 0.32156 0.10799 0.13408 0.0
H205 H 0.26763 0.09231 0.40418 0.0
C206 C 0.24694 0.04388 0.04649 0.0
C207 C 0.25493 0.04573 0.94456 0.0
C208 C 0.28505 0.03635 0.91032 0.0
C209 C 0.30833 0.02505 0.97716 0.0
C210 C 0.2993 0.02062 0.07796 0.0
C211 C 0.26896 0.02965 0.11186 0.0
C212 C 0.1851 0.05881 0.1774 0.0
C213 C 0.16176 0.08125 0.20207 0.0
C214 C 0.1398 0.07527 0.27853 0.0
C215 C 0.13999 0.04636 0.33144 0.0
C216 C 0.16244 0.02317 0.30398 0.0
C217 C 0.18515 0.02953 0.22861 0.0
C218 C 0.24263 0.09785 0.16513 0.0
C219 C 0.27107 0.10757 0.11926 0.0
C220 C 0.29921 0.10684 0.17411 0.0
C221 C 0.29829 0.09798 0.27536 0.0
C222 C 0.26889 0.09771 0.325 0.0
C223 C 0.241 0.09708 0.26965 0.0
P224 P 0.46329 0.21333 0.09099 0.0
H225 H 0.46725 0.23678 0.88478 0.0
H226 H 0.48176 0.28869 0.82012 0.0
H227 H 0.52789 0.30969 0.09924 0.0
H228 H 0.51204 0.25773 0.16473 0.0
H229 H 0.4298 0.16231 0.18844 0.0
H230 H 0.44297 0.12424 0.31817 0.0
H231 H 0.54077 0.15528 0.30705 0.0
H232 H 0.52647 0.19507 0.17933 0.0
H233 H 0.41457 0.25935 0.03732 0.0
H234 H 0.46147 0.22666 0.3051 0.0
O235 O 0.44025 0.19668 1.0051 0.0
H236 H 0.40316 0.30989 0.11705 0.0
H237 H 0.45019 0.27638 0.38432 0.0
C238 C 0.48881 0.24267 0.02978 0.0
C239 C 0.48173 0.25184 0.93104 0.0
C240 C 0.48992 0.28204 0.89393 0.0
C241 C 0.50556 0.30422 0.95443 0.0
C242 C 0.51516 0.29388 0.05049 0.0
C243 C 0.50682 0.26361 0.08763 0.0
C244 C 0.4771 0.18155 0.17329 0.0
C245 C 0.45426 0.16064 0.21258 0.0
C246 C 0.46198 0.13851 0.28717 0.0
C247 C 0.49308 0.13619 0.32483 0.0
C248 C 0.51639 0.15649 0.28219 0.0
C249 C 0.5084 0.17913 0.2079 0.0
C250 C 0.4392 0.23933 0.16464 0.0
C251 C 0.42069 0.26222 0.11515 0.0
C252 C 0.41442 0.29125 0.16049 0.0
C253 C 0.42651 0.29747 0.25594 0.0
C254 C 0.44048 0.2725 0.31072 0.0
C255 C 0.44701 0.24373 0.26506 0.0
Tb256 Tb 0.02766 0.00984 0.84493 0.0
Tb257 Tb 0.98582 0.02762 0.68432 0.0
C258 C 0.05613 0.98663 0.99321 0.0
C259 C 0.07701 0.95932 0.00862 0.0
C260 C 0.08785 0.95208 0.10467 0.0
C261 C 0.10495 0.92425 0.12222 0.0
C262 C 0.11141 0.90322 0.04375 0.0
C263 C 0.10218 0.91172 0.94624 0.0
C264 C 0.08506 0.9396 0.92883 0.0
C265 C 0.05771 0.02887 0.67901 0.0
C266 C 1.002 0.95528 0.69994 0.0
C267 C 0.96887 0.05398 0.52557 0.0
C268 C 0.98926 0.07576 0.46674 0.0
C269 C 1.00726 0.06399 0.38646 0.0
C270 C 0.03292 0.08129 0.34817 0.0
C271 C 0.04094 0.11061 0.38953 0.0
C272 C 0.02177 0.12323 0.46527 0.0
C273 C 0.99611 0.1061 0.50305 0.0
C274 C 0.95382 0.00994 0.84729 0.0
C275 C 0.01174 0.08052 0.83097 0.0
O276 O 0.02668 0.97993 0.97086 0.0
O277 O 0.06771 0.00929 0.93696 0.0
O278 O 0.0336 0.01148 0.68549 0.0
O279 O 0.06678 0.03518 0.76853 0.0
O280 O 0.01625 0.96227 0.78513 0.0
O281 O 0.98957 0.97785 0.64345 0.0
O282 O 0.97918 0.02485 0.52981 0.0
O283 O 0.95954 0.06378 0.61329 0.0
O284 O 0.97929 0.02572 0.8439 0.0
O285 O 0.9442 1.00609 0.75632 0.0
O286 O 1.00591 0.07359 0.73629 0.0
O287 O 0.01529 0.05707 0.89573 0.0
H288 H 0.08196 0.96726 0.16682 0.0
H289 H 0.11119 0.91826 0.19848 0.0
H290 H 0.10698 0.89614 0.88426 0.0
H291 H 0.07712 0.94517 0.85383 0.0
H292 H 1.00262 0.04063 0.35701 0.0
H293 H 0.04709 0.0713 0.2887 0.0
H294 H 0.02677 0.14634 0.49601 0.0
H295 H 0.98265 0.11604 0.56413 0.0
Tb296 Tb 0.51403 0.03185 0.86523 0.0
Tb297 Tb 0.49645 0.98776 0.70512 0.0
C298 C 0.52254 0.06172 0.0239 0.0
C299 C 0.54544 0.08427 0.06488 0.0
C300 C 0.55466 0.08064 0.16446 0.0
C301 C 0.57979 0.09832 0.20184 0.0
C302 C 0.59606 0.12033 0.14043 0.0
C303 C 0.5847 0.1259 0.04299 0.0
C304 C 0.55982 0.10775 1.0051 0.0
C305 C 0.51246 0.05844 0.68455 0.0
C306 C 0.56861 1.00531 0.73 0.0
C307 C 0.47447 0.96537 0.54811 0.0
C308 C 0.44664 0.97658 0.49164 0.0
C309 C 0.45103 0.99235 0.39965 0.0
C310 C 0.42675 0.01097 0.35904 0.0
C311 C 0.39766 0.01387 0.40958 0.0
C312 C 0.39264 0.99621 0.49779 0.0
C313 C 0.41676 0.97758 0.53792 0.0
C314 C 0.51726 0.95877 0.87061 0.0
C315 C 0.44082 0.01427 0.84124 0.0
O316 O 0.53342 0.03298 0.00889 0.0
O317 O 0.50461 0.07202 0.95072 0.0
O318 O 0.4934 0.03798 0.71932 0.0
O319 O 0.53209 0.066 0.75435 0.0
O320 O 0.56154 0.01504 0.82135 0.0
O321 O 0.54593 0.99749 0.66702 0.0
O322 O 0.49796 0.98568 0.5494 0.0
O323 O 0.46902 0.95273 0.6365 0.0
O324 O 0.50006 0.98318 0.86444 0.0
O325 O 0.52188 0.94882 0.78058 0.0
O326 O 0.44825 0.9993 0.75792 0.0
O327 O 0.4631 0.02726 0.89672 0.0
H328 H 0.54357 0.06283 0.21192 0.0
H329 H 0.58774 0.09285 0.27679 0.0
H330 H 0.59601 0.14315 0.99422 0.0
H331 H 0.55275 0.11119 0.92806 0.0
H332 H 0.4739 0.99194 0.36253 0.0
H333 H 0.43105 0.02378 0.28981 0.0
H334 H 0.37059 0.99802 0.53903 0.0
H335 H 0.4125 0.96565 0.60864 0.0
Tb336 Tb 0.49124 0.50753 0.85363 0.0
Tb337 Tb 0.53306 0.49522 0.68775 0.0
C338 C 0.46376 0.52564 0.00959 0.0
C339 C 0.44206 0.5513 0.0358 0.0
C340 C 0.43991 0.5606 0.13528 0.0
C341 C 0.42251 0.58745 0.16045 0.0
C342 C 0.40674 0.60544 0.08634 0.0
C343 C 0.40725 0.59461 0.98731 0.0
C344 C 0.42502 0.56787 0.96208 0.0
C345 C 0.46091 0.49 0.68879 0.0
C346 C 0.51339 0.56611 0.71353 0.0
C347 C 0.55218 0.47297 0.52629 0.0
C348 C 0.53588 0.44825 0.46843 0.0
C349 C 0.51675 0.45712 0.38679 0.0
C350 C 0.4944 0.43603 0.3487 0.0
C351 C 0.49094 0.40569 0.3914 0.0
C352 C 0.51161 0.39609 0.4681 0.0
C353 C 0.53392 0.41708 0.50598 0.0
C354 C 0.56433 0.51174 0.85162 0.0
C355 C 0.51078 0.43815 0.82758 0.0
O356 O 0.49249 0.53442 0.98423 0.0
O357 O 0.45232 0.50412 0.95034 0.0
O358 O 0.48428 0.50846 0.69442 0.0
O359 O 0.45283 0.48185 0.77849 0.0
O360 O 0.4991 0.5567 0.79732 0.0
O361 O 0.52745 0.54547 0.65488 0.0
O362 O 0.5364 0.49951 0.53239 0.0
O363 O 0.56406 0.46439 0.61272 0.0
O364 O 0.54015 0.49419 0.84674 0.0
O365 O 0.57314 0.51865 0.76112 0.0
O366 O 0.5158 0.44727 0.73377 0.0
O367 O 0.50639 0.45998 0.89577 0.0
H368 H 0.45291 0.54794 0.19296 0.0
H369 H 0.42332 0.59516 0.23718 0.0
H370 H 0.39506 0.60754 0.92861 0.0
H371 H 0.42636 0.56079 0.88469 0.0
H372 H 0.51773 0.48101 0.35633 0.0
H373 H 0.47903 0.44387 0.28865 0.0
H374 H 0.51021 0.37241 0.50003 0.0
H375 H 0.54846 0.40933 0.56816 0.0
Tb376 Tb 1.00602 0.49038 0.85535 0.0
Tb377 Tb 0.02318 0.53152 0.69156 0.0
C378 C 0.98163 0.46235 1.00292 0.0
C379 C 0.95133 0.44571 0.01973 0.0
C380 C 0.9223 0.46121 1.0039 0.0
C381 C 0.89383 0.4455 0.02254 0.0
C382 C 0.89357 0.41373 0.05634 0.0
C383 C 0.92272 0.3979 0.06863 0.0
C384 C 0.95134 0.41382 0.05093 0.0
C385 C 0.02535 0.45976 0.69285 0.0
C386 C 0.95104 0.51594 0.70941 0.0
C387 C 0.04921 0.54797 0.53168 0.0
C388 C 0.07141 0.5277 0.47522 0.0
C389 C 0.05993 0.50873 0.39727 0.0
C390 C 0.078 0.48347 0.36133 0.0
C391 C 0.10783 0.47679 0.40267 0.0
C392 C 0.12006 0.49688 0.47611 0.0
C393 C 0.10215 0.52215 0.51159 0.0
C394 C 1.00549 0.56404 0.85159 0.0
C395 C 0.07676 0.50581 0.84016 0.0
O396 O 0.98026 0.49311 0.98883 0.0
O397 O 1.0012 0.44873 0.94109 0.0
O398 O 1.00749 0.48363 0.69637 0.0
O399 O 0.03236 0.45161 0.78337 0.0
O400 O 0.95835 0.50229 0.79596 0.0
O401 O 0.9734 0.52765 0.65085 0.0
O402 O 0.02029 0.53711 0.53636 0.0
O403 O 0.05885 0.55801 0.61863 0.0
O404 O 0.02175 0.53883 0.85046 0.0
O405 O 1.00089 0.57303 0.75983 0.0
O406 O 0.06947 0.51215 0.74558 0.0
O407 O 0.05366 0.50145 0.9053 0.0
H408 H 0.92147 0.48573 0.97912 0.0
H409 H 0.87206 0.45892 0.0145 0.0
H410 H 0.9235 0.37341 0.09366 0.0
H411 H 0.97351 0.40131 0.06265 0.0
H412 H 0.03628 0.51235 0.3678 0.0
H413 H 0.06824 0.46859 0.30362 0.0
H414 H 0.14352 0.49296 0.50676 0.0
H415 H 0.11188 0.53639 0.57087 0.0
C416 C 0.11868 0.06347 0.49818 0.0
C417 C 0.11826 0.04175 0.41913 0.0
H418 H 0.10033 0.07612 0.64217 0.0
C419 C 0.09678 0.01624 0.42456 0.0
H420 H 0.1348 0.08347 0.49604 0.0
C421 C 0.07631 0.01256 0.50724 0.0
C422 C 0.07755 0.03376 0.58769 0.0
H423 H 0.09564 0.99933 0.36441 0.0
H424 H 0.06005 0.99267 0.50937 0.0
C425 C 0.09893 0.05928 0.58188 0.0
C426 C 0.52307 0.12241 0.48403 0.0
C427 C 0.50014 0.11432 0.41228 0.0
H428 H 0.54496 0.11121 0.62442 0.0
C429 C 0.48246 0.08623 0.42925 0.0
H430 H 0.537 0.14383 0.47576 0.0
C431 C 0.48648 0.06792 0.51676 0.0
C432 C 0.50881 0.07667 0.58902 0.0
H433 H 0.46516 0.07837 0.37543 0.0
H434 H 0.47186 0.0471 0.52831 0.0
C435 C 0.52745 0.10378 0.57048 0.0
C436 C 0.42044 0.50251 0.43561 0.0
C437 C 0.39808 0.47768 0.43559 0.0
H438 H 0.45855 0.52543 0.51408 0.0
C439 C 0.39745 0.45671 0.51809 0.0
H440 H 0.4218 0.51888 0.37288 0.0
C441 C 0.41801 0.46073 0.59911 0.0
C442 C 0.44034 0.48546 0.59947 0.0
H443 H 0.38058 0.43734 0.52074 0.0
H444 H 0.41643 0.44437 0.66183 0.0
C445 C 0.44162 0.50611 0.51613 0.0
C446 C 0.06009 0.3964 0.52396 0.0
C447 C 0.04034 0.39787 0.43934 0.0
H448 H 0.07064 0.41437 0.6695 0.0
C449 C 0.01601 0.42081 0.43752 0.0
H450 H 0.07907 0.3791 0.52823 0.0
C451 C 0.01163 0.44162 0.51819 0.0
C452 C 0.03095 0.43945 0.60368 0.0
H453 H 1.00062 0.42291 0.37321 0.0
H454 H 0.99271 0.45899 0.51449 0.0
C455 C 0.05526 0.41662 0.60517 0.0
C456 C 0.92136 0.0192 0.11174 0.0
C457 C 0.88849 0.01385 0.0993 0.0
H458 H 0.96748 0.02225 0.04315 0.0
C459 C 0.878 1.00493 1.00376 0.0
H460 H 0.93081 0.02532 0.18402 0.0
C461 C 0.89934 1.00258 0.92321 0.0
C462 C 0.93183 0.00933 0.93518 0.0
H463 H 0.85305 1.00091 0.98981 0.0
H464 H 0.89014 0.99645 0.85055 0.0
C465 C 0.94261 0.01718 0.03091 0.0
C466 C 0.52376 0.88404 0.03253 0.0
C467 C 0.51268 0.89445 0.12603 0.0
H468 H 0.53422 0.89601 0.87974 0.0
C469 C 0.50593 0.9271 0.136 0.0
H470 H 0.52893 0.85923 0.02057 0.0
C471 C 0.50843 0.94814 0.05424 0.0
C472 C 0.5182 0.93735 0.96019 0.0
H473 H 0.49807 0.93647 0.2068 0.0
H474 H 0.50198 0.97278 0.0642 0.0
C475 C 0.52661 0.90519 0.95109 0.0
C476 C 0.63649 0.52918 0.01419 0.0
C477 C 0.62992 0.51176 0.10235 0.0
H478 H 0.62111 0.54302 0.86714 0.0
C479 C 0.60063 0.49552 0.10797 0.0
H480 H 0.65835 0.54246 1.00667 0.0
C481 C 0.57906 0.49626 0.02812 0.0
C482 C 0.5861 0.513 0.93951 0.0
H483 H 0.59461 0.48131 0.17305 0.0
H484 H 0.55714 0.483 0.03498 0.0
C485 C 0.61495 0.52972 0.93405 0.0
C486 C 0.98773 0.63758 1.00673 0.0
C487 C 1.00507 0.63189 0.09512 0.0
H488 H 0.97416 0.62087 0.86193 0.0
C489 C 0.02135 0.60263 0.10349 0.0
H490 H 0.97436 0.6593 0.99694 0.0
C491 C 0.02068 0.58027 0.02631 0.0
C492 C 1.00406 0.58649 0.93741 0.0
H493 H 0.03557 0.59719 0.16856 0.0
H494 H 0.03397 0.55843 0.03526 0.0
C495 C 0.98736 0.61532 0.92914 0.0
C496 C 0.10697 0.17031 0.38222 0.0
C497 C 0.10545 0.18003 0.28166 0.0
H498 H 0.08719 0.1402 0.49605 0.0
C499 C 0.0891 0.1608 0.21358 0.0
H500 H 0.12005 0.18413 0.43594 0.0
C501 C 0.0705 0.13559 0.24799 0.0
C502 C 0.06787 0.12946 0.35063 0.0
H503 H 0.08745 0.16738 0.13541 0.0
H504 H 0.05579 0.12302 0.19548 0.0
C505 C 0.08801 0.14537 0.41669 0.0
C506 C 0.31701 0.04796 0.35336 0.0
C507 C 0.32437 0.07842 0.31638 0.0
H508 H 0.33415 1.0035 0.40698 0.0
C509 C 0.35631 0.08735 0.30667 0.0
H510 H 0.29268 0.03977 0.3578 0.0
C511 C 0.38038 0.0663 0.33581 0.0
C512 C 0.37276 0.0359 0.37343 0.0
H513 H 0.3626 0.11044 0.27642 0.0
H514 H 0.40484 0.07394 0.32999 0.0
C515 C 0.34083 0.02697 0.38087 0.0
C516 C 0.43248 0.3382 0.38909 0.0
C517 C 0.43273 0.33047 0.28739 0.0
H518 H 0.45079 0.3686 0.50206 0.0
C519 C 0.44663 0.35184 0.21865 0.0
H520 H 0.42145 0.32252 0.44354 0.0
C521 C 0.46347 0.37811 0.25214 0.0
C522 C 0.46673 0.38334 0.35474 0.0
H523 H 0.44741 0.3466 0.13974 0.0
H524 H 0.47626 0.39259 0.19827 0.0
C525 C 0.44946 0.36439 0.42256 0.0
C526 C 0.15864 0.4293 0.22955 0.0
C527 C 0.17911 0.41427 0.29829 0.0
H528 H 0.11945 0.46099 0.20963 0.0
C529 C 0.17041 0.41335 0.39961 0.0
H530 H 0.16445 0.43051 0.15083 0.0
C531 C 0.14492 0.4315 0.43328 0.0
C532 C 0.12752 0.45035 0.36584 0.0
H533 H 0.18522 0.40128 0.454 0.0
H534 H 0.1404 0.43276 0.51278 0.0
C535 C 0.13294 0.44713 0.26322 0.0
C536 C 0.14526 0.83494 0.19139 0.0
C537 C 0.12491 0.81052 0.16062 0.0
H538 H 0.15747 0.88406 0.17637 0.0
C539 C 0.10713 0.81499 0.07292 0.0
H540 H 0.1599 0.83193 0.25713 0.0
C541 C 0.10574 0.84474 0.02687 0.0
C542 C 0.12217 0.87052 0.06754 0.0
H543 H 0.09118 0.79678 0.04669 0.0
H544 H 0.08892 0.84821 0.96677 0.0
C545 C 0.1438 0.8648 0.14535 0.0
C546 C 0.66584 0.13569 0.30742 0.0
C547 C 0.69102 0.13289 0.23876 0.0
H548 H 0.61566 0.13609 0.32971 0.0
C549 C 0.6841 0.13544 0.13636 0.0
H550 H 0.66989 0.13435 0.38705 0.0
C551 C 0.65272 0.13477 0.10346 0.0
C552 C 0.62755 0.13262 0.17251 0.0
H553 H 0.70289 0.13488 0.08114 0.0
H554 H 0.64866 0.13275 0.02409 0.0
C555 C 0.63445 0.13608 0.27444 0.0
C556 C 0.38418 0.67538 0.24221 0.0
C557 C 0.39518 0.70031 0.18068 0.0
H558 H 0.3775 0.62538 0.25844 0.0
C559 C 0.40063 0.69427 0.07909 0.0
H560 H 0.37926 0.67902 0.32057 0.0
C561 C 0.40094 0.66319 0.04453 0.0
C562 C 0.39492 0.6377 0.11052 0.0
H563 H 0.40792 0.71316 0.02862 0.0
H564 H 0.40921 0.65921 0.96915 0.0
C565 C 0.38369 0.64438 0.20693 0.0
C566 C 0.8334 0.37683 0.22995 0.0
C567 C 0.80563 0.3918 0.19516 0.0
H568 H 0.88362 0.37284 0.21497 0.0
C569 C 0.80593 0.40508 0.09827 0.0
H570 H 0.83378 0.36484 0.3018 0.0
C571 C 0.83441 0.40838 0.04603 0.0
C572 C 0.86319 0.39924 0.0906 0.0
H573 H 0.78509 0.41632 0.06683 0.0
H574 H 0.83418 0.421 0.97518 0.0
C575 C 0.8621 0.38105 0.17914 0.0
C576 C 0.01324 0.17179 0.83588 0.0
C577 C 0.01894 0.17817 0.93777 0.0
H578 H 1.00664 0.13668 0.7222 0.0
C579 C 0.02152 0.15183 1.003 0.0
H580 H 0.01054 0.19105 0.78254 0.0
C581 C 0.0191 0.12059 0.96816 0.0
C582 C 0.01389 0.11425 0.86642 0.0
H583 H 0.02623 0.15519 0.08136 0.0
H584 H 0.0216 0.10131 0.02163 0.0
C585 C 0.01079 0.1404 0.80087 0.0
C586 C 0.36774 0.02985 1.00465 0.0
C587 C 0.3423 0.02058 0.94341 0.0
H588 H 0.41801 0.03543 0.02105 0.0
C589 C 0.34977 1.00878 0.84794 0.0
H590 H 0.36325 0.03958 0.07782 0.0
C591 C 0.38149 1.00648 0.81491 0.0
C592 C 0.40683 0.01616 0.8758 0.0
H593 H 0.33106 1.00119 0.79846 0.0
H594 H 0.38608 0.9974 0.74108 0.0
C595 C 0.39936 0.02776 0.97139 0.0
C596 C 0.50669 0.36323 0.99049 0.0
C597 C 0.50906 0.33849 0.921 0.0
H598 H 0.50515 0.41321 0.01636 0.0
C599 C 0.51277 0.34711 0.81933 0.0
H600 H 0.50339 0.35805 0.06903 0.0
C601 C 0.51354 0.37922 0.78858 0.0
C602 C 0.51063 0.40377 0.85838 0.0
H603 H 0.5151 0.32907 0.76297 0.0
H604 H 0.51612 0.38475 0.70992 0.0
C605 C 0.50741 0.39518 0.95985 0.0
C606 C 0.14904 0.49547 0.00997 0.0
C607 C 0.17495 0.49924 0.94413 0.0
H608 H 0.0986 0.49431 0.02981 0.0
C609 C 0.16798 0.50578 0.84277 0.0
H610 H 0.15294 0.48998 0.08796 0.0
C611 C 0.13638 0.50799 0.80873 0.0
C612 C 0.11065 0.5038 0.8748 0.0
H613 H 0.18694 0.50931 0.78919 0.0
H614 H 0.13218 0.51285 0.73042 0.0
C615 C 0.11758 0.49769 0.97607 0.0
C616 C 1.00343 0.88473 0.52274 0.0
C617 C 1.00412 0.85812 0.58789 0.0
H618 H 1.0018 0.93542 0.50622 0.0
C619 C 1.00324 0.86439 0.69164 0.0
H620 H 1.00484 0.88189 0.44279 0.0
C621 C 1.00278 0.89564 0.72809 0.0
C622 C 1.00207 0.92185 0.66247 0.0
H623 H 1.00281 0.84526 0.74594 0.0
H624 H 1.00259 0.89925 0.80801 0.0
C625 C 1.00199 0.91587 0.55932 0.0
C626 C 0.64084 0.99048 0.56367 0.0
C627 C 0.66505 1.00795 0.61023 0.0
H628 H 0.59217 0.97582 0.56443 0.0
C629 C 0.65737 0.02314 0.70079 0.0
H630 H 0.64553 0.97783 0.49536 0.0
C631 C 0.62656 0.02147 0.74179 0.0
C632 C 0.60228 1.00484 0.69312 0.0
H633 H 0.67487 0.03731 0.73887 0.0
H634 H 0.62154 0.03411 0.80996 0.0
C635 C 0.61005 0.98911 0.60403 0.0
C636 C 0.51353 0.63973 0.54434 0.0
C637 C 0.50722 0.6647 0.61082 0.0
H638 H 0.52062 0.58987 0.52401 0.0
C639 C 0.50378 0.65658 0.71315 0.0
H640 H 0.51565 0.64418 0.46497 0.0
C641 C 0.50566 0.62483 0.74678 0.0
C642 C 0.51185 0.60014 0.67981 0.0
H643 H 0.49964 0.67468 0.76821 0.0
H644 H 0.50248 0.61968 0.82555 0.0
C645 C 0.51611 0.60818 0.57833 0.0
C646 C 0.86016 0.51661 0.70561 0.0
C647 C 0.85316 0.51488 0.6024 0.0
H648 H 0.8959 0.51762 0.82013 0.0
C649 C 0.87926 0.51438 0.53595 0.0
H650 H 0.84141 0.51794 0.76059 0.0
C651 C 0.91068 0.51549 0.57083 0.0
C652 C 0.91738 0.51624 0.67357 0.0
H653 H 0.87579 0.51224 0.45643 0.0
H654 H 0.92986 0.51476 0.5169 0.0
C655 C 0.89167 0.51673 0.7405 0.0
loop_
_geom_bond_atom_site_label_1
_geom_bond_atom_site_label_2
_geom_bond_distance
_geom_bond_site_symmetry_2
_ccdc_geom_bond_type
P0 O11 1.490 . S
P0 C14 1.812 . S
P0 C20 1.803 . S
P0 C26 1.819 . S
H1 C15 0.941 . S
H2 C16 0.939 . S
H3 C18 0.940 . S
H4 C19 0.940 . S
H5 C21 0.939 . S
H6 C22 0.942 . S
H7 C24 0.940 . S
H8 C25 0.939 . S
H9 C27 0.941 . S
H10 C31 0.939 . S
O11 P0 1.490 . S
H12 C28 0.939 . S
H13 C30 0.940 . S
C14 P0 1.812 . S
C14 C15 1.389 . S
C14 C19 1.391 . S
C15 H1 0.941 . S
C15 C14 1.389 . S
C15 C16 1.397 . S
C16 H2 0.939 . S
C16 C15 1.397 . S
C16 C17 1.378 . S
C17 C16 1.378 . S
C17 C18 1.378 . S
C18 H3 0.940 . S
C18 C17 1.378 . S
C18 C19 1.396 . S
C19 H4 0.940 . S
C19 C14 1.391 . S
C19 C18 1.396 . S
C20 P0 1.803 . S
C20 C21 1.378 . S
C20 C25 1.400 . S
C21 H5 0.939 . S
C21 C20 1.378 . S
C21 C22 1.361 . S
C22 H6 0.942 . S
C22 C21 1.361 . S
C22 C23 1.369 . S
C23 C22 1.369 . S
C23 C24 1.404 . S
C24 H7 0.940 . S
C24 C23 1.404 . S
C24 C25 1.389 . S
C25 H8 0.939 . S
C25 C20 1.400 . S
C25 C24 1.389 . S
C26 P0 1.819 . S
C26 C27 1.391 . S
C26 C31 1.391 . S
C27 H9 0.941 . S
C27 C26 1.391 . S
C27 C28 1.396 . S
C28 H12 0.939 . S
C28 C27 1.396 . S
C28 C29 1.397 . S
C29 C28 1.397 . S
C29 C30 1.385 . S
C30 H13 0.940 . S
C30 C29 1.385 . S
C30 C31 1.388 . S
C31 H10 0.939 . S
C31 C26 1.391 . S
C31 C30 1.388 . S
P32 O43 1.490 . S
P32 C46 1.812 . S
P32 C52 1.803 . S
P32 C58 1.819 . S
H33 C47 0.941 . S
H34 C48 0.939 . S
H35 C50 0.940 . S
H36 C51 0.950 . S
H37 C53 0.939 . S
H38 C54 0.942 . S
H39 C56 0.940 . S
H40 C57 0.959 . S
H41 C59 0.941 . S
H42 C63 0.929 1_655 S
O43 P32 1.490 . S
H44 C60 0.939 . S
H45 C62 0.940 . S
C46 P32 1.812 . S
C46 C47 1.389 . S
C46 C51 1.375 1_455 S
C47 H33 0.941 . S
C47 C46 1.389 . S
C47 C48 1.397 . S
C48 H34 0.939 . S
C48 C47 1.397 . S
C48 C49 1.378 . S
C49 C48 1.378 . S
C49 C50 1.378 1_455 S
C50 H35 0.940 . S
C50 C49 1.378 1_655 S
C50 C51 1.403 . S
C51 H36 0.950 . S
C51 C46 1.375 1_655 S
C51 C50 1.403 . S
C52 P32 1.803 . S
C52 C53 1.378 . S
C52 C57 1.368 1_455 S
C53 H37 0.939 . S
C53 C52 1.378 . S
C53 C54 1.361 . S
C54 H38 0.942 . S
C54 C53 1.361 . S
C54 C55 1.369 . S
C55 C54 1.369 . S
C55 C56 1.404 1_455 S
C56 H39 0.940 . S
C56 C55 1.404 1_655 S
C56 C57 1.402 . S
C57 H40 0.959 . S
C57 C52 1.368 1_655 S
C57 C56 1.402 . S
C58 P32 1.819 . S
C58 C59 1.391 . S
C58 C63 1.391 . S
C59 H41 0.941 . S
C59 C58 1.391 . S
C59 C60 1.396 . S
C60 H44 0.939 . S
C60 C59 1.396 . S
C60 C61 1.397 . S
C61 C60 1.397 . S
C61 C62 1.385 1_455 S
C62 H45 0.940 . S
C62 C61 1.385 1_655 S
C62 C63 1.388 1_655 S
C63 H42 0.929 1_455 S
C63 C58 1.391 . S
C63 C62 1.388 1_455 S
P64 O75 1.490 . S
P64 C78 1.812 . S
P64 C84 1.803 . S
P64 C90 1.819 . S
H65 C79 0.941 . S
H66 C80 0.939 . S
H67 C82 0.940 . S
H68 C83 0.950 . S
H69 C85 0.939 . S
H70 C86 0.942 . S
H71 C88 0.940 . S
H72 C89 0.959 . S
H73 C91 0.941 . S
H74 C95 0.929 1_565 S
O75 P64 1.490 . S
H76 C92 0.939 . S
H77 C94 0.940 . S
C78 P64 1.812 . S
C78 C79 1.389 . S
C78 C83 1.375 1_545 S
C79 H65 0.941 . S
C79 C78 1.389 . S
C79 C80 1.397 . S
C80 H66 0.939 . S
C80 C79 1.397 . S
C80 C81 1.378 . S
C81 C80 1.378 . S
C81 C82 1.378 1_545 S
C82 H67 0.940 . S
C82 C81 1.378 1_565 S
C82 C83 1.402 . S
C83 H68 0.950 . S
C83 C78 1.375 1_565 S
C83 C82 1.402 . S
C84 P64 1.803 . S
C84 C85 1.378 . S
C84 C89 1.368 1_545 S
C85 H69 0.939 . S
C85 C84 1.378 . S
C85 C86 1.361 . S
C86 H70 0.942 . S
C86 C85 1.361 . S
C86 C87 1.369 . S
C87 C86 1.369 . S
C87 C88 1.404 1_545 S
C88 H71 0.940 . S
C88 C87 1.404 1_565 S
C88 C89 1.402 . S
C89 H72 0.959 . S
C89 C84 1.368 1_565 S
C89 C88 1.402 . S
C90 P64 1.819 . S
C90 C91 1.391 . S
C90 C95 1.391 . S
C91 H73 0.941 . S
C91 C90 1.391 . S
C91 C92 1.396 . S
C92 H76 0.939 . S
C92 C91 1.396 . S
C92 C93 1.397 . S
C93 C92 1.397 . S
C93 C94 1.385 1_545 S
C94 H77 0.940 . S
C94 C93 1.385 1_565 S
C94 C95 1.388 1_565 S
C95 H74 0.929 1_545 S
C95 C90 1.391 . S
C95 C94 1.388 1_545 S
P96 O107 1.490 . S
P96 C110 1.812 . S
P96 C116 1.803 . S
P96 C122 1.819 . S
H97 C111 0.941 . S
H98 C112 0.939 . S
H99 C114 0.940 . S
H100 C115 0.940 . S
H101 C117 0.939 . S
H102 C118 0.942 . S
H103 C120 0.940 . S
H104 C121 0.939 . S
H105 C123 0.941 . S
H106 C127 0.939 . S
O107 P96 1.490 . S
H108 C124 0.939 . S
H109 C126 0.940 . S
C110 P96 1.812 . S
C110 C111 1.389 . S
C110 C115 1.391 . S
C111 H97 0.941 . S
C111 C110 1.389 . S
C111 C112 1.397 . S
C112 H98 0.939 . S
C112 C111 1.397 . S
C112 C113 1.378 . S
C113 C112 1.378 . S
C113 C114 1.378 . S
C114 H99 0.940 . S
C114 C113 1.378 . S
C114 C115 1.396 . S
C115 H100 0.940 . S
C115 C110 1.391 . S
C115 C114 1.396 . S
C116 P96 1.803 . S
C116 C117 1.378 . S
C116 C121 1.400 . S
C117 H101 0.939 . S
C117 C116 1.378 . S
C117 C118 1.361 . S
C118 H102 0.942 . S
C118 C117 1.361 . S
C118 C119 1.369 . S
C119 C118 1.369 . S
C119 C120 1.404 . S
C120 H103 0.940 . S
C120 C119 1.404 . S
C120 C121 1.389 . S
C121 H104 0.939 . S
C121 C116 1.400 . S
C121 C120 1.389 . S
C122 P96 1.819 . S
C122 C123 1.391 . S
C122 C127 1.391 . S
C123 H105 0.941 . S
C123 C122 1.391 . S
C123 C124 1.396 . S
C124 H108 0.939 . S
C124 C123 1.396 . S
C124 C125 1.397 . S
C125 C124 1.397 . S
C125 C126 1.385 . S
C126 H109 0.940 . S
C126 C125 1.385 . S
C126 C127 1.388 . S
C127 H106 0.939 . S
C127 C122 1.391 . S
C127 C126 1.388 . S
P128 O139 1.490 . S
P128 C142 1.812 1_554 S
P128 C148 1.803 . S
P128 C154 1.819 . S
H129 C143 0.941 . S
H130 C144 0.939 . S
H131 C146 0.940 . S
H132 C147 0.940 . S
H133 C149 0.939 . S
H134 C150 0.942 . S
H135 C152 0.940 . S
H136 C153 0.939 . S
H137 C155 0.941 . S
H138 C159 0.939 . S
O139 P128 1.490 . S
H140 C156 0.939 . S
H141 C158 0.940 . S
C142 P128 1.812 1_556 S
C142 C143 1.389 . S
C142 C147 1.391 . S
C143 H129 0.941 . S
C143 C142 1.389 . S
C143 C144 1.397 . S
C144 H130 0.939 . S
C144 C143 1.397 . S
C144 C145 1.378 . S
C145 C144 1.378 . S
C145 C146 1.378 . S
C146 H131 0.940 . S
C146 C145 1.378 . S
C146 C147 1.396 . S
C147 H132 0.940 . S
C147 C142 1.391 . S
C147 C146 1.396 . S
C148 P128 1.803 . S
C148 C149 1.378 . S
C148 C153 1.400 . S
C149 H133 0.939 . S
C149 C148 1.378 . S
C149 C150 1.361 . S
C150 H134 0.942 . S
C150 C149 1.361 . S
C150 C151 1.369 . S
C151 C150 1.369 . S
C151 C152 1.404 . S
C152 H135 0.940 . S
C152 C151 1.404 . S
C152 C153 1.389 . S
C153 H136 0.939 . S
C153 C148 1.400 . S
C153 C152 1.389 . S
C154 P128 1.819 . S
C154 C155 1.391 . S
C154 C159 1.391 . S
C155 H137 0.941 . S
C155 C154 1.391 . S
C155 C156 1.396 . S
C156 H140 0.939 . S
C156 C155 1.396 . S
C156 C157 1.397 . S
C157 C156 1.397 . S
C157 C158 1.385 . S
C158 H141 0.940 . S
C158 C157 1.385 . S
C158 C159 1.388 . S
C159 H138 0.939 . S
C159 C154 1.391 . S
C159 C158 1.388 . S
P160 O171 1.490 . S
P160 C174 1.812 1_554 S
P160 C180 1.803 . S
P160 C186 1.819 . S
H161 C175 0.941 . S
H162 C176 0.939 . S
H163 C178 0.940 . S
H164 C179 0.945 . S
H165 C181 0.939 . S
H166 C182 0.942 . S
H167 C184 0.940 . S
H168 C185 0.954 . S
H169 C187 0.941 . S
H170 C191 0.932 1_655 S
O171 P160 1.490 . S
H172 C188 0.939 . S
H173 C190 0.940 . S
C174 P160 1.812 1_556 S
C174 C175 1.389 . S
C174 C179 1.383 1_455 S
C175 H161 0.941 . S
C175 C174 1.389 . S
C175 C176 1.397 . S
C176 H162 0.939 . S
C176 C175 1.397 . S
C176 C177 1.378 . S
C177 C176 1.378 . S
C177 C178 1.378 1_455 S
C178 H163 0.940 . S
C178 C177 1.378 1_655 S
C178 C179 1.400 . S
C179 H164 0.945 . S
C179 C174 1.383 1_655 S
C179 C178 1.400 . S
C180 P160 1.803 . S
C180 C181 1.378 . S
C180 C185 1.376 1_455 S
C181 H165 0.939 . S
C181 C180 1.378 . S
C181 C182 1.361 . S
C182 H166 0.942 . S
C182 C181 1.361 . S
C182 C183 1.369 . S
C183 C182 1.369 . S
C183 C184 1.404 1_455 S
C184 H167 0.940 . S
C184 C183 1.404 1_655 S
C184 C185 1.399 . S
C185 H168 0.954 . S
C185 C180 1.376 1_655 S
C185 C184 1.399 . S
C186 P160 1.819 . S
C186 C187 1.391 . S
C186 C191 1.391 . S
C187 H169 0.941 . S
C187 C186 1.391 . S
C187 C188 1.396 . S
C188 H172 0.939 . S
C188 C187 1.396 . S
C188 C189 1.397 . S
C189 C188 1.397 . S
C189 C190 1.385 1_455 S
C190 H173 0.940 . S
C190 C189 1.385 1_655 S
C190 C191 1.388 1_655 S
C191 H170 0.932 1_455 S
C191 C186 1.391 . S
C191 C190 1.388 1_455 S
P192 O203 1.490 . S
P192 C206 1.812 1_554 S
P192 C212 1.803 . S
P192 C218 1.819 . S
H193 C207 0.941 . S
H194 C208 0.939 . S
H195 C210 0.940 . S
H196 C211 0.945 . S
H197 C213 0.939 . S
H198 C214 0.942 . S
H199 C216 0.940 . S
H200 C217 0.954 . S
H201 C219 0.941 . S
H202 C223 0.932 1_565 S
O203 P192 1.490 . S
H204 C220 0.939 . S
H205 C222 0.940 . S
C206 P192 1.812 1_556 S
C206 C207 1.389 . S
C206 C211 1.383 1_545 S
C207 H193 0.941 . S
C207 C206 1.389 . S
C207 C208 1.397 . S
C208 H194 0.939 . S
C208 C207 1.397 . S
C208 C209 1.378 . S
C209 C208 1.378 . S
C209 C210 1.378 1_545 S
C210 H195 0.940 . S
C210 C209 1.378 1_565 S
C210 C211 1.400 . S
C211 H196 0.945 . S
C211 C206 1.383 1_565 S
C211 C210 1.400 . S
C212 P192 1.803 . S
C212 C213 1.378 . S
C212 C217 1.376 1_545 S
C213 H197 0.939 . S
C213 C212 1.378 . S
C213 C214 1.361 . S
C214 H198 0.942 . S
C214 C213 1.361 . S
C214 C215 1.369 . S
C215 C214 1.369 . S
C215 C216 1.404 1_545 S
C216 H199 0.940 . S
C216 C215 1.404 1_565 S
C216 C217 1.398 . S
C217 H200 0.954 . S
C217 C212 1.376 1_565 S
C217 C216 1.398 . S
C218 P192 1.819 . S
C218 C219 1.391 . S
C218 C223 1.391 . S
C219 H201 0.941 . S
C219 C218 1.391 . S
C219 C220 1.396 . S
C220 H204 0.939 . S
C220 C219 1.396 . S
C220 C221 1.397 . S
C221 C220 1.397 . S
C221 C222 1.385 1_545 S
C222 H205 0.940 . S
C222 C221 1.385 1_565 S
C222 C223 1.388 1_565 S
C223 H202 0.932 1_545 S
C223 C218 1.391 . S
C223 C222 1.388 1_545 S
P224 O235 1.490 . S
P224 C238 1.812 1_554 S
P224 C244 1.803 . S
P224 C250 1.819 . S
H225 C239 0.941 . S
H226 C240 0.939 . S
H227 C242 0.940 . S
H228 C243 0.940 . S
H229 C245 0.939 . S
H230 C246 0.942 . S
H231 C248 0.940 . S
H232 C249 0.939 . S
H233 C251 0.941 . S
H234 C255 0.939 . S
O235 P224 1.490 . S
H236 C252 0.939 . S
H237 C254 0.940 . S
C238 P224 1.812 1_556 S
C238 C239 1.389 . S
C238 C243 1.391 . S
C239 H225 0.941 . S
C239 C238 1.389 . S
C239 C240 1.397 . S
C240 H226 0.939 . S
C240 C239 1.397 . S
C240 C241 1.378 . S
C241 C240 1.378 . S
C241 C242 1.378 . S
C242 H227 0.940 . S
C242 C241 1.378 . S
C242 C243 1.396 . S
C243 H228 0.940 . S
C243 C238 1.391 . S
C243 C242 1.396 . S
C244 P224 1.803 . S
C244 C245 1.378 . S
C244 C249 1.400 . S
C245 H229 0.939 . S
C245 C244 1.378 . S
C245 C246 1.361 . S
C246 H230 0.942 . S
C246 C245 1.361 . S
C246 C247 1.369 . S
C247 C246 1.369 . S
C247 C248 1.404 . S
C248 H231 0.940 . S
C248 C247 1.404 . S
C248 C249 1.389 . S
C249 H232 0.939 . S
C249 C244 1.400 . S
C249 C248 1.389 . S
C250 P224 1.819 . S
C250 C251 1.391 . S
C250 C255 1.391 . S
C251 H233 0.941 . S
C251 C250 1.391 . S
C251 C252 1.396 . S
C252 H236 0.939 . S
C252 C251 1.396 . S
C252 C253 1.397 . S
C253 C252 1.397 . S
C253 C254 1.385 . S
C254 H237 0.940 . S
C254 C253 1.385 . S
C254 C255 1.388 . S
C255 H234 0.939 . S
C255 C250 1.391 . S
C255 C254 1.388 . S
Tb256 C258 2.809 . S
Tb256 O276 2.484 . S
Tb256 O277 2.440 . S
Tb256 O278 2.658 1_565 S
Tb256 O279 2.409 . S
Tb256 O280 2.378 . S
Tb256 O284 2.325 1_455 S
Tb256 O287 2.341 1_565 S
Tb257 C267 2.809 . S
Tb257 O278 2.325 1_655 S
Tb257 O281 2.341 1_545 S
Tb257 O282 2.484 . S
Tb257 O283 2.440 . S
Tb257 O284 2.658 1_545 S
Tb257 O285 2.409 . S
Tb257 O286 2.378 . S
C258 Tb256 2.809 . S
C258 C259 1.514 . S
C258 O276 1.248 . S
C258 O277 1.266 . S
C259 C258 1.514 . S
C259 C260 1.359 1_556 S
C259 C264 1.348 . S
C260 C259 1.359 1_554 S
C260 C261 1.380 . S
C260 H288 0.929 1_455 S
C261 C260 1.380 . S
C261 C262 1.347 . S
C261 H289 0.931 . S
C262 C261 1.347 . S
C262 C263 1.369 . S
C263 C262 1.369 . S
C263 C264 1.408 1_554 S
C263 H290 0.930 . S
C264 C259 1.348 . S
C264 C263 1.408 1_556 S
C264 H291 0.930 . S
C265 O278 1.281 1_565 S
C265 O279 1.254 . S
C266 O280 1.236 1_655 S
C266 O281 1.266 . S
C267 Tb257 2.809 . S
C267 C268 1.514 . S
C267 O282 1.248 . S
C267 O283 1.266 . S
C268 C267 1.514 . S
C268 C269 1.359 . S
C268 C273 1.348 . S
C269 C268 1.359 . S
C269 C270 1.380 . S
C269 H292 0.929 1_655 S
C270 C269 1.380 . S
C270 C271 1.347 . S
C270 H293 0.931 . S
C271 C270 1.347 . S
C271 C272 1.369 . S
C272 C271 1.369 . S
C272 C273 1.408 . S
C272 H294 0.930 . S
C273 C268 1.348 . S
C273 C272 1.408 . S
C273 H295 0.930 . S
C274 O284 1.281 1_545 S
C274 O285 1.254 . S
C275 O286 1.236 1_455 S
C275 O287 1.266 . S
O276 Tb256 2.484 . S
O276 C258 1.248 . S
O277 Tb256 2.440 . S
O277 C258 1.266 . S
O278 Tb256 2.658 1_545 S
O278 Tb257 2.325 1_455 S
O278 C265 1.281 1_545 S
O279 Tb256 2.409 . S
O279 C265 1.254 . S
O280 Tb256 2.378 . S
O280 C266 1.236 1_455 S
O281 Tb257 2.341 1_565 S
O281 C266 1.266 . S
O282 Tb257 2.484 . S
O282 C267 1.248 . S
O283 Tb257 2.440 . S
O283 C267 1.266 . S
O284 Tb256 2.325 1_655 S
O284 Tb257 2.658 1_565 S
O284 C274 1.281 1_565 S
O285 Tb257 2.409 . S
O285 C274 1.254 . S
O286 Tb257 2.378 . S
O286 C275 1.236 1_655 S
O287 Tb256 2.341 1_545 S
O287 C275 1.266 . S
H288 C260 0.929 1_655 S
H289 C261 0.931 . S
H290 C263 0.930 . S
H291 C264 0.930 . S
H292 C269 0.929 1_455 S
H293 C270 0.931 . S
H294 C272 0.930 . S
H295 C273 0.930 . S
Tb296 C298 2.809 . S
Tb296 O316 2.484 . S
Tb296 O317 2.440 . S
Tb296 O318 2.658 . S
Tb296 O319 2.409 . S
Tb296 O320 2.378 . S
Tb296 O324 2.325 1_545 S
Tb296 O327 2.341 . S
Tb297 C307 2.809 . S
Tb297 O318 2.325 1_565 S
Tb297 O321 2.341 . S
Tb297 O322 2.484 . S
Tb297 O323 2.440 . S
Tb297 O324 2.658 . S
Tb297 O325 2.409 . S
Tb297 O326 2.378 . S
C298 Tb296 2.809 . S
C298 C299 1.514 . S
C298 O316 1.248 . S
C298 O317 1.266 . S
C299 C298 1.514 . S
C299 C300 1.359 1_556 S
C299 C304 1.348 . S
C300 C299 1.359 1_554 S
C300 C301 1.380 . S
C300 H328 0.929 1_545 S
C301 C300 1.380 . S
C301 C302 1.347 . S
C301 H329 0.924 1_545 S
C302 C301 1.347 . S
C302 C303 1.369 . S
C303 C302 1.369 . S
C303 C304 1.408 1_554 S
C303 H330 0.930 . S
C304 C299 1.348 . S
C304 C303 1.408 1_556 S
C304 H331 0.930 . S
C305 O318 1.281 . S
C305 O319 1.254 . S
C306 O320 1.236 1_565 S
C306 O321 1.266 . S
C307 Tb297 2.809 . S
C307 C308 1.514 . S
C307 O322 1.248 . S
C307 O323 1.266 . S
C308 C307 1.514 . S
C308 C309 1.359 . S
C308 C313 1.348 . S
C309 C308 1.359 . S
C309 C310 1.380 . S
C309 H332 0.929 1_565 S
C310 C309 1.380 . S
C310 C311 1.347 . S
C310 H333 0.918 1_565 S
C311 C310 1.347 . S
C311 C312 1.369 . S
C312 C311 1.369 . S
C312 C313 1.408 . S
C312 H334 0.930 . S
C313 C308 1.348 . S
C313 C312 1.408 . S
C313 H335 0.930 . S
C314 O324 1.281 . S
C314 O325 1.254 . S
C315 O326 1.236 1_545 S
C315 O327 1.266 . S
O316 Tb296 2.484 . S
O316 C298 1.248 . S
O317 Tb296 2.440 . S
O317 C298 1.266 . S
O318 Tb296 2.658 . S
O318 Tb297 2.325 1_545 S
O318 C305 1.281 . S
O319 Tb296 2.409 . S
O319 C305 1.254 . S
O320 Tb296 2.378 . S
O320 C306 1.236 1_545 S
O321 Tb297 2.341 . S
O321 C306 1.266 . S
O322 Tb297 2.484 . S
O322 C307 1.248 . S
O323 Tb297 2.440 . S
O323 C307 1.266 . S
O324 Tb296 2.325 1_565 S
O324 Tb297 2.658 . S
O324 C314 1.281 . S
O325 Tb297 2.409 . S
O325 C314 1.254 . S
O326 Tb297 2.378 . S
O326 C315 1.236 1_565 S
O327 Tb296 2.341 . S
O327 C315 1.266 . S
H328 C300 0.929 1_565 S
H329 C301 0.924 1_565 S
H330 C303 0.930 . S
H331 C304 0.930 . S
H332 C309 0.929 1_545 S
H333 C310 0.918 1_545 S
H334 C312 0.930 . S
H335 C313 0.930 . S
Tb336 C338 2.809 . S
Tb336 O356 2.484 . S
Tb336 O357 2.440 . S
Tb336 O358 2.658 . S
Tb336 O359 2.409 . S
Tb336 O360 2.378 . S
Tb336 O364 2.325 . S
Tb336 O367 2.341 . S
Tb337 C347 2.809 . S
Tb337 O358 2.325 . S
Tb337 O361 2.341 . S
Tb337 O362 2.484 . S
Tb337 O363 2.440 . S
Tb337 O364 2.658 . S
Tb337 O365 2.409 . S
Tb337 O366 2.378 . S
C338 Tb336 2.809 . S
C338 C339 1.514 1_556 S
C338 O356 1.248 . S
C338 O357 1.266 . S
C339 C338 1.514 1_554 S
C339 C340 1.359 . S
C339 C344 1.348 1_554 S
C340 C339 1.359 . S
C340 C341 1.380 . S
C340 H368 0.929 . S
C341 C340 1.380 . S
C341 C342 1.347 . S
C341 H369 0.931 . S
C342 C341 1.347 . S
C342 C343 1.369 . S
C343 C342 1.369 . S
C343 C344 1.408 1_554 S
C343 H370 0.930 . S
C344 C339 1.348 1_556 S
C344 C343 1.408 1_556 S
C344 H371 0.930 . S
C345 O358 1.281 . S
C345 O359 1.254 . S
C346 O360 1.236 . S
C346 O361 1.266 . S
C347 Tb337 2.809 . S
C347 C348 1.514 . S
C347 O362 1.248 . S
C347 O363 1.266 . S
C348 C347 1.514 . S
C348 C349 1.359 . S
C348 C353 1.348 . S
C349 C348 1.359 . S
C349 C350 1.380 . S
C349 H372 0.929 . S
C350 C349 1.380 . S
C350 C351 1.347 . S
C350 H373 0.931 . S
C351 C350 1.347 . S
C351 C352 1.369 . S
C352 C351 1.369 . S
C352 C353 1.408 . S
C352 H374 0.930 . S
C353 C348 1.348 . S
C353 C352 1.408 . S
C353 H375 0.930 . S
C354 O364 1.281 . S
C354 O365 1.254 . S
C355 O366 1.236 . S
C355 O367 1.266 . S
O356 Tb336 2.484 . S
O356 C338 1.248 . S
O357 Tb336 2.440 . S
O357 C338 1.266 . S
O358 Tb336 2.658 . S
O358 Tb337 2.325 . S
O358 C345 1.281 . S
O359 Tb336 2.409 . S
O359 C345 1.254 . S
O360 Tb336 2.378 . S
O360 C346 1.236 . S
O361 Tb337 2.341 . S
O361 C346 1.266 . S
O362 Tb337 2.484 . S
O362 C347 1.248 . S
O363 Tb337 2.440 . S
O363 C347 1.266 . S
O364 Tb336 2.325 . S
O364 Tb337 2.658 . S
O364 C354 1.281 . S
O365 Tb337 2.409 . S
O365 C354 1.254 . S
O366 Tb337 2.378 . S
O366 C355 1.236 . S
O367 Tb336 2.341 . S
O367 C355 1.266 . S
H368 C340 0.929 . S
H369 C341 0.931 . S
H370 C343 0.930 . S
H371 C344 0.930 . S
H372 C349 0.929 . S
H373 C350 0.931 . S
H374 C352 0.930 . S
H375 C353 0.930 . S
Tb376 C378 2.809 . S
Tb376 O396 2.484 . S
Tb376 O397 2.440 . S
Tb376 O398 2.658 1_655 S
Tb376 O399 2.409 . S
Tb376 O400 2.378 . S
Tb376 O404 2.325 . S
Tb376 O407 2.341 1_655 S
Tb377 C387 2.809 . S
Tb377 O398 2.325 . S
Tb377 O401 2.341 1_455 S
Tb377 O402 2.484 . S
Tb377 O403 2.440 . S
Tb377 O404 2.658 1_455 S
Tb377 O405 2.409 . S
Tb377 O406 2.378 . S
C378 Tb376 2.809 . S
C378 C379 1.509 1_556 S
C378 O396 1.248 . S
C378 O397 1.266 . S
C379 C378 1.509 1_554 S
C379 C380 1.364 . S
C379 C384 1.348 1_554 S
C380 C379 1.364 . S
C380 C381 1.380 . S
C380 H408 0.929 . S
C381 C380 1.380 . S
C381 C382 1.347 . S
C381 H409 0.931 . S
C382 C381 1.347 . S
C382 C383 1.369 . S
C383 C382 1.369 . S
C383 C384 1.408 1_554 S
C383 H410 0.930 . S
C384 C379 1.348 1_556 S
C384 C383 1.408 1_556 S
C384 H411 0.930 . S
C385 O398 1.281 1_655 S
C385 O399 1.254 . S
C386 O400 1.236 . S
C386 O401 1.266 . S
C387 Tb377 2.809 . S
C387 C388 1.514 . S
C387 O402 1.248 . S
C387 O403 1.266 . S
C388 C387 1.514 . S
C388 C389 1.359 . S
C388 C393 1.348 . S
C389 C388 1.359 . S
C389 C390 1.380 . S
C389 H412 0.929 . S
C390 C389 1.380 . S
C390 C391 1.347 . S
C390 H413 0.931 . S
C391 C390 1.347 . S
C391 C392 1.369 . S
C392 C391 1.369 . S
C392 C393 1.408 . S
C392 H414 0.930 . S
C393 C388 1.348 . S
C393 C392 1.408 . S
C393 H415 0.930 . S
C394 O404 1.278 1_455 S
C394 O405 1.257 . S
C395 O406 1.236 . S
C395 O407 1.266 . S
O396 Tb376 2.484 . S
O396 C378 1.248 . S
O397 Tb376 2.440 . S
O397 C378 1.266 . S
O398 Tb376 2.658 1_455 S
O398 Tb377 2.325 . S
O398 C385 1.281 1_455 S
O399 Tb376 2.409 . S
O399 C385 1.254 . S
O400 Tb376 2.378 . S
O400 C386 1.236 . S
O401 Tb377 2.341 1_655 S
O401 C386 1.266 . S
O402 Tb377 2.484 . S
O402 C387 1.248 . S
O403 Tb377 2.440 . S
O403 C387 1.266 . S
O404 Tb376 2.325 . S
O404 Tb377 2.658 1_655 S
O404 C394 1.278 1_655 S
O405 Tb377 2.409 . S
O405 C394 1.257 . S
O406 Tb377 2.378 . S
O406 C395 1.236 . S
O407 Tb376 2.341 1_455 S
O407 C395 1.266 . S
H408 C380 0.929 . S
H409 C381 0.931 . S
H410 C383 0.930 . S
H411 C384 0.930 . S
H412 C389 0.929 . S
H413 C390 0.931 . S
H414 C392 0.930 . S
H415 C393 0.930 . S
C416 C417 1.389 1_545 S
C416 H420 0.950 . S
C416 C425 1.390 . S
C417 C416 1.389 1_565 S
C417 C419 1.386 . S
H418 C425 0.950 . S
C419 C417 1.386 . S
C419 C421 1.390 . S
C419 H423 0.950 . S
H420 C416 0.950 . S
C421 C419 1.390 . S
C421 C422 1.393 . S
C421 H424 0.950 . S
C422 C421 1.393 . S
C422 C425 1.382 1_565 S
H423 C419 0.950 . S
H424 C421 0.950 . S
C425 C416 1.390 . S
C425 H418 0.950 . S
C425 C422 1.382 1_545 S
C426 C427 1.387 . S
C426 H430 0.950 . S
C426 C435 1.390 . S
C427 C426 1.387 . S
C427 C429 1.387 . S
H428 C435 0.950 . S
C429 C427 1.387 . S
C429 C431 1.390 . S
C429 H433 0.950 . S
H430 C426 0.950 . S
C431 C429 1.390 . S
C431 C432 1.387 . S
C431 H434 0.950 . S
C432 C431 1.387 . S
C432 C435 1.387 . S
H433 C429 0.950 . S
H434 C431 0.950 . S
C435 C426 1.390 . S
C435 H428 0.950 . S
C435 C432 1.387 . S
C436 C437 1.387 . S
C436 H440 0.950 . S
C436 C445 1.390 . S
C437 C436 1.387 . S
C437 C439 1.387 . S
H438 C445 0.950 . S
C439 C437 1.387 . S
C439 C441 1.390 . S
C439 H443 0.950 . S
H440 C436 0.950 . S
C441 C439 1.390 . S
C441 C442 1.387 . S
C441 H444 0.950 . S
C442 C441 1.387 . S
C442 C445 1.387 . S
H443 C439 0.950 . S
H444 C441 0.950 . S
C445 C436 1.390 . S
C445 H438 0.950 . S
C445 C442 1.387 . S
C446 C447 1.406 . S
C446 H450 0.950 . S
C446 C455 1.390 . S
C447 C446 1.406 . S
C447 C449 1.369 1_455 S
H448 C455 0.950 . S
C449 C447 1.369 1_655 S
C449 C451 1.390 . S
C449 H453 0.950 . S
H450 C446 0.950 . S
C451 C449 1.390 . S
C451 C452 1.387 1_655 S
C451 H454 0.950 . S
C452 C451 1.387 1_455 S
C452 C455 1.387 . S
H453 C449 0.950 . S
H454 C451 0.950 . S
C455 C446 1.390 . S
C455 H448 0.950 . S
C455 C452 1.387 . S
C456 C457 1.392 . S
C456 H460 0.950 . S
C456 C465 1.390 . S
C457 C456 1.392 . S
C457 C459 1.382 1_545 S
H458 C465 0.950 . S
C459 C457 1.382 1_565 S
C459 C461 1.390 . S
C459 H463 0.950 . S
H460 C456 0.950 . S
C461 C459 1.390 . S
C461 C462 1.374 1_565 S
C461 H464 0.950 . S
C462 C461 1.374 1_545 S
C462 C465 1.401 . S
H463 C459 0.950 . S
H464 C461 0.950 . S
C465 C456 1.390 . S
C465 H458 0.950 . S
C465 C462 1.401 . S
C466 C467 1.387 . S
C466 H470 0.950 . S
C466 C475 1.390 . S
C467 C466 1.387 . S
C467 C469 1.387 . S
H468 C475 0.950 . S
C469 C467 1.387 . S
C469 C471 1.390 . S
C469 H473 0.950 . S
H470 C466 0.950 . S
C471 C469 1.390 . S
C471 C472 1.387 . S
C471 H474 0.950 . S
C472 C471 1.387 . S
C472 C475 1.387 . S
H473 C469 0.950 . S
H474 C471 0.950 . S
C475 C466 1.390 . S
C475 H468 0.950 . S
C475 C472 1.387 . S
C476 C477 1.387 . S
C476 H480 0.950 . S
C476 C485 1.390 . S
C477 C476 1.387 . S
C477 C479 1.387 . S
H478 C485 0.950 . S
C479 C477 1.387 . S
C479 C481 1.390 . S
C479 H483 0.950 . S
H480 C476 0.950 . S
C481 C479 1.390 . S
C481 C482 1.387 . S
C481 H484 0.950 . S
C482 C481 1.387 . S
C482 C485 1.387 . S
H483 C479 0.950 . S
H484 C481 0.950 . S
C485 C476 1.390 . S
C485 H478 0.950 . S
C485 C482 1.387 . S
C486 C487 1.399 . S
C486 H490 0.950 . S
C486 C495 1.390 . S
C487 C486 1.399 . S
C487 C489 1.376 1_655 S
H488 C495 0.950 . S
C489 C487 1.376 1_455 S
C489 C491 1.390 . S
C489 H493 0.950 . S
H490 C486 0.950 . S
C491 C489 1.390 . S
C491 C492 1.387 1_455 S
C491 H494 0.950 . S
C492 C491 1.387 1_655 S
C492 C495 1.387 . S
H493 C489 0.950 . S
H494 C491 0.950 . S
C495 C486 1.390 . S
C495 H488 0.950 . S
C495 C492 1.387 . S
C496 C497 1.387 . S
C496 H500 0.950 . S
C496 C505 1.390 . S
C497 C496 1.387 . S
C497 C499 1.387 1_655 S
H498 C505 0.950 . S
C499 C497 1.387 1_455 S
C499 C501 1.390 1_455 S
C499 H503 0.950 . S
H500 C496 0.950 . S
C501 C499 1.390 1_655 S
C501 C502 1.387 . S
C501 H504 0.950 . S
C502 C501 1.387 . S
C502 C505 1.387 . S
H503 C499 0.950 . S
H504 C501 0.950 . S
C505 C496 1.390 . S
C505 H498 0.950 . S
C505 C502 1.387 . S
C506 C507 1.413 . S
C506 H510 0.950 . S
C506 C515 1.390 . S
C507 C506 1.413 . S
C507 C509 1.383 1_565 S
H508 C515 0.950 . S
C509 C507 1.383 1_545 S
C509 C511 1.390 1_545 S
C509 H513 0.950 . S
H510 C506 0.950 . S
C511 C509 1.390 1_565 S
C511 C512 1.387 . S
C511 H514 0.950 . S
C512 C511 1.387 . S
C512 C515 1.387 . S
H513 C509 0.950 . S
H514 C511 0.950 . S
C515 C506 1.390 . S
C515 H508 0.950 . S
C515 C512 1.387 . S
C516 C517 1.387 . S
C516 H520 0.950 . S
C516 C525 1.390 . S
C517 C516 1.387 . S
C517 C519 1.387 . S
H518 C525 0.950 . S
C519 C517 1.387 . S
C519 C521 1.390 . S
C519 H523 0.950 . S
H520 C516 0.950 . S
C521 C519 1.390 . S
C521 C522 1.387 . S
C521 H524 0.950 . S
C522 C521 1.387 . S
C522 C525 1.387 . S
H523 C519 0.950 . S
H524 C521 0.950 . S
C525 C516 1.390 . S
C525 H518 0.950 . S
C525 C522 1.387 . S
C526 C527 1.387 . S
C526 H530 0.950 . S
C526 C535 1.390 . S
C527 C526 1.387 . S
C527 C529 1.387 . S
H528 C535 0.950 . S
C529 C527 1.387 . S
C529 C531 1.390 . S
C529 H533 0.950 . S
H530 C526 0.950 . S
C531 C529 1.390 . S
C531 C532 1.387 . S
C531 H534 0.950 . S
C532 C531 1.387 . S
C532 C535 1.387 . S
H533 C529 0.950 . S
H534 C531 0.950 . S
C535 C526 1.390 . S
C535 H528 0.950 . S
C535 C532 1.387 . S
C536 C537 1.387 . S
C536 H540 0.950 . S
C536 C545 1.390 . S
C537 C536 1.387 . S
C537 C539 1.387 1_455 S
H538 C545 0.950 . S
C539 C537 1.387 1_655 S
C539 C541 1.390 1_655 S
C539 H543 0.950 . S
H540 C536 0.950 . S
C541 C539 1.390 1_455 S
C541 C542 1.387 . S
C541 H544 0.950 . S
C542 C541 1.387 . S
C542 C545 1.387 . S
H543 C539 0.950 . S
H544 C541 0.950 . S
C545 C536 1.390 . S
C545 H538 0.950 . S
C545 C542 1.387 . S
C546 C547 1.415 . S
C546 H550 0.950 . S
C546 C555 1.390 . S
C547 C546 1.415 . S
C547 C549 1.384 1_545 S
H548 C555 0.950 . S
C549 C547 1.384 1_565 S
C549 C551 1.390 1_565 S
C549 H553 0.950 . S
H550 C546 0.950 . S
C551 C549 1.390 1_545 S
C551 C552 1.387 . S
C551 H554 0.950 . S
C552 C551 1.387 . S
C552 C555 1.387 . S
H553 C549 0.950 . S
H554 C551 0.950 . S
C555 C546 1.390 . S
C555 H548 0.950 . S
C555 C552 1.387 . S
C556 C557 1.387 . S
C556 H560 0.950 . S
C556 C565 1.390 . S
C557 C556 1.387 . S
C557 C559 1.387 . S
H558 C565 0.950 . S
C559 C557 1.387 . S
C559 C561 1.390 . S
C559 H563 0.950 . S
H560 C556 0.950 . S
C561 C559 1.390 . S
C561 C562 1.387 . S
C561 H564 0.950 . S
C562 C561 1.387 . S
C562 C565 1.387 . S
H563 C559 0.950 . S
H564 C561 0.950 . S
C565 C556 1.390 . S
C565 H558 0.950 . S
C565 C562 1.387 . S
C566 C567 1.387 . S
C566 H570 0.950 . S
C566 C575 1.390 . S
C567 C566 1.387 . S
C567 C569 1.387 . S
H568 C575 0.950 . S
C569 C567 1.387 . S
C569 C571 1.390 . S
C569 H573 0.950 . S
H570 C566 0.950 . S
C571 C569 1.390 . S
C571 C572 1.387 . S
C571 H574 0.950 . S
C572 C571 1.387 . S
C572 C575 1.387 . S
H573 C569 0.950 . S
H574 C571 0.950 . S
C575 C566 1.390 . S
C575 H568 0.950 . S
C575 C572 1.387 . S
C576 C577 1.387 . S
C576 H580 0.950 . S
C576 C585 1.390 . S
C577 C576 1.387 . S
C577 C579 1.387 1_455 S
H578 C585 0.950 . S
C579 C577 1.387 1_655 S
C579 C581 1.390 . S
C579 H583 0.950 . S
H580 C576 0.950 . S
C581 C579 1.390 . S
C581 C582 1.387 1_655 S
C581 H584 0.950 . S
C582 C581 1.387 1_455 S
C582 C585 1.387 . S
H583 C579 0.950 . S
H584 C581 0.950 . S
C585 C576 1.390 . S
C585 H578 0.950 . S
C585 C582 1.387 . S
C586 C587 1.387 . S
C586 H590 0.950 . S
C586 C595 1.390 . S
C587 C586 1.387 . S
C587 C589 1.387 1_545 S
H588 C595 0.950 . S
C589 C587 1.387 1_565 S
C589 C591 1.390 . S
C589 H593 0.950 . S
H590 C586 0.950 . S
C591 C589 1.390 . S
C591 C592 1.387 1_565 S
C591 H594 0.950 . S
C592 C591 1.387 1_545 S
C592 C595 1.387 . S
H593 C589 0.950 . S
H594 C591 0.950 . S
C595 C586 1.390 . S
C595 H588 0.950 . S
C595 C592 1.387 . S
C596 C597 1.387 . S
C596 H600 0.950 . S
C596 C605 1.390 . S
C597 C596 1.387 . S
C597 C599 1.387 . S
H598 C605 0.950 . S
C599 C597 1.387 . S
C599 C601 1.390 . S
C599 H603 0.950 . S
H600 C596 0.950 . S
C601 C599 1.390 . S
C601 C602 1.387 . S
C601 H604 0.950 . S
C602 C601 1.387 . S
C602 C605 1.387 . S
H603 C599 0.950 . S
H604 C601 0.950 . S
C605 C596 1.390 . S
C605 H598 0.950 . S
C605 C602 1.387 . S
C606 C607 1.387 . S
C606 H610 0.950 . S
C606 C615 1.390 . S
C607 C606 1.387 . S
C607 C609 1.387 . S
H608 C615 0.950 . S
C609 C607 1.387 . S
C609 C611 1.390 . S
C609 H613 0.950 . S
H610 C606 0.950 . S
C611 C609 1.390 . S
C611 C612 1.387 . S
C611 H614 0.950 . S
C612 C611 1.387 . S
C612 C615 1.387 . S
H613 C609 0.950 . S
H614 C611 0.950 . S
C615 C606 1.390 . S
C615 H608 0.950 . S
C615 C612 1.387 . S
C616 C617 1.387 1_455 S
C616 H620 0.950 . S
C616 C625 1.390 1_455 S
C617 C616 1.387 1_655 S
C617 C619 1.387 . S
H618 C625 0.950 1_455 S
C619 C617 1.387 . S
C619 C621 1.390 . S
C619 H623 0.950 . S
H620 C616 0.950 . S
C621 C619 1.390 . S
C621 C622 1.387 . S
C621 H624 0.950 . S
C622 C621 1.387 . S
C622 C625 1.387 . S
H623 C619 0.950 . S
H624 C621 0.950 . S
C625 C616 1.390 1_655 S
C625 H618 0.950 1_655 S
C625 C622 1.387 . S
C626 C627 1.387 . S
C626 H630 0.950 . S
C626 C635 1.390 . S
C627 C626 1.387 . S
C627 C629 1.387 1_565 S
H628 C635 0.950 . S
C629 C627 1.387 1_545 S
C629 C631 1.390 . S
C629 H633 0.950 . S
H630 C626 0.950 . S
C631 C629 1.390 . S
C631 C632 1.387 1_545 S
C631 H634 0.950 . S
C632 C631 1.387 1_565 S
C632 C635 1.387 . S
H633 C629 0.950 . S
H634 C631 0.950 . S
C635 C626 1.390 . S
C635 H628 0.950 . S
C635 C632 1.387 . S
C636 C637 1.387 . S
C636 H640 0.950 . S
C636 C645 1.390 . S
C637 C636 1.387 . S
C637 C639 1.387 . S
H638 C645 0.950 . S
C639 C637 1.387 . S
C639 C641 1.390 . S
C639 H643 0.950 . S
H640 C636 0.950 . S
C641 C639 1.390 . S
C641 C642 1.387 . S
C641 H644 0.950 . S
C642 C641 1.387 . S
C642 C645 1.387 . S
H643 C639 0.950 . S
H644 C641 0.950 . S
C645 C636 1.390 . S
C645 H638 0.950 . S
C645 C642 1.387 . S
C646 C647 1.387 . S
C646 H650 0.950 . S
C646 C655 1.390 . S
C647 C646 1.387 . S
C647 C649 1.387 . S
H648 C655 0.950 . S
C649 C647 1.387 . S
C649 C651 1.390 . S
C649 H653 0.950 . S
H650 C646 0.950 . S
C651 C649 1.390 . S
C651 C652 1.387 . S
C651 H654 0.950 . S
C652 C651 1.387 . S
C652 C655 1.387 . S
H653 C649 0.950 . S
H654 C651 0.950 . S
C655 C646 1.390 . S
C655 H648 0.950 . S
C655 C652 1.387 . S
C417 C215 2.305 1_565 S
C422 C265 2.610 . S
C432 C305 2.638 . S
C427 C247 2.312 . S
C442 C345 2.648 . S
C437 C151 2.323 . S
C452 C385 2.619 1_455 S
C447 C183 2.316 . S
C462 C274 2.611 1_554 S
C457 C87 2.305 . S
C467 C119 2.360 . S
C472 C314 2.639 1_554 S
C477 C23 2.374 . S
C482 C354 2.648 1_554 S
C487 C55 2.319 1_655 S
C492 C394 2.620 1_654 S
C502 C271 0.790 . S
C497 C189 0.811 1_655 S
C512 C311 0.777 . S
C507 C221 0.784 1_565 S
C522 C351 0.746 . S
C517 C253 0.741 . S
C527 C157 0.746 . S
C532 C391 0.741 . S
C537 C61 0.773 . S
C542 C262 0.790 . S
C552 C302 0.782 . S
C547 C93 0.779 . S
C562 C342 0.746 . S
C557 C125 0.748 . S
C567 C29 0.750 . S
C572 C382 0.754 . S
C577 C177 2.859 . S
C582 C275 3.281 . S
C587 C209 2.806 . S
C592 C315 3.234 . S
C602 C355 3.217 . S
C597 C241 2.772 . S
C612 C395 3.269 . S
C607 C145 2.819 . S
C617 C49 2.896 1_655 S
C622 C266 3.289 . S
C632 C306 3.233 . S
C627 C81 2.844 1_565 S
C642 C346 3.219 . S
C637 C113 2.851 . S
C647 C17 2.900 . S
C652 C386 3.273 . S
