# Generated by pormake.
# Topology zzz, (3,6)-cn, num edge types: 1
# Building blocks:
#     Node 0, Type 0, BuildingBlock: CUQRIR_clean_linker_1, # of connection points: 3
#     Node 1, Type 0, BuildingBlock: CUQRIR_clean_linker_1, # of connection points: 3
#     Node 2, Type 0, BuildingBlock: CUQRIR_clean_linker_1, # of connection points: 3
#     Node 3, Type 0, BuildingBlock: CUQRIR_clean_linker_1, # of connection points: 3
#     Node 4, Type 0, BuildingBlock: CUQRIR_clean_linker_1, # of connection points: 3
#     Node 5, Type 0, BuildingBlock: CUQRIR_clean_linker_1, # of connection points: 3
#     Node 6, Type 0, BuildingBlock: CUQRIR_clean_linker_1, # of connection points: 3
#     Node 7, Type 0, BuildingBlock: CUQRIR_clean_linker_1, # of connection points: 3
#     Node 8, Type 1, BuildingBlock: GEDQOX_clean_sbu_0, # of connection points: 6
#     Node 9, Type 1, BuildingBlock: GEDQOX_clean_sbu_0, # of connection points: 6
#     Node 10, Type 1, BuildingBlock: GEDQOX_clean_sbu_0, # of connection points: 6
#     Node 11, Type 1, BuildingBlock: GEDQOX_clean_sbu_0, # of connection points: 6
#     Edge 12, Type (0, 1), BuildingBlock: ZUJKAS_clean_linker_0, # of connection points: 2
#     Edge 13, Type (0, 1), BuildingBlock: ZUJKAS_clean_linker_0, # of connection points: 2
#     Edge 14, Type (0, 1), BuildingBlock: ZUJKAS_clean_linker_0, # of connection points: 2
#     Edge 15, Type (0, 1), BuildingBlock: ZUJKAS_clean_linker_0, # of connection points: 2
#     Edge 16, Type (0, 1), BuildingBlock: ZUJKAS_clean_linker_0, # of connection points: 2
#     Edge 17, Type (0, 1), BuildingBlock: ZUJKAS_clean_linker_0, # of connection points: 2
#     Edge 18, Type (0, 1), BuildingBlock: ZUJKAS_clean_linker_0, # of connection points: 2
#     Edge 19, Type (0, 1), BuildingBlock: ZUJKAS_clean_linker_0, # of connection points: 2
#     Edge 20, Type (0, 1), BuildingBlock: ZUJKAS_clean_linker_0, # of connection points: 2
#     Edge 21, Type (0, 1), BuildingBlock: ZUJKAS_clean_linker_0, # of connection points: 2
#     Edge 22, Type (0, 1), BuildingBlock: ZUJKAS_clean_linker_0, # of connection points: 2
#     Edge 23, Type (0, 1), BuildingBlock: ZUJKAS_clean_linker_0, # of connection points: 2
#     Edge 24, Type (0, 1), BuildingBlock: ZUJKAS_clean_linker_0, # of connection points: 2
#     Edge 25, Type (0, 1), BuildingBlock: ZUJKAS_clean_linker_0, # of connection points: 2
#     Edge 26, Type (0, 1), BuildingBlock: ZUJKAS_clean_linker_0, # of connection points: 2
#     Edge 27, Type (0, 1), BuildingBlock: ZUJKAS_clean_linker_0, # of connection points: 2
#     Edge 28, Type (0, 1), BuildingBlock: ZUJKAS_clean_linker_0, # of connection points: 2
#     Edge 29, Type (0, 1), BuildingBlock: ZUJKAS_clean_linker_0, # of connection points: 2
#     Edge 30, Type (0, 1), BuildingBlock: ZUJKAS_clean_linker_0, # of connection points: 2
#     Edge 31, Type (0, 1), BuildingBlock: ZUJKAS_clean_linker_0, # of connection points: 2
#     Edge 32, Type (0, 1), BuildingBlock: ZUJKAS_clean_linker_0, # of connection points: 2
#     Edge 33, Type (0, 1), BuildingBlock: ZUJKAS_clean_linker_0, # of connection points: 2
#     Edge 34, Type (0, 1), BuildingBlock: ZUJKAS_clean_linker_0, # of connection points: 2
#     Edge 35, Type (0, 1), BuildingBlock: ZUJKAS_clean_linker_0, # of connection points: 2
# Relax obj value: 0.117
# Max RMSD: 0.163
# Mean RMSD: 0.092
data_MOF--net-zzz--node1-GEDQOX_clean_sbu_0--node2-CUQRIR_clean_linker_1--edge1-ZUJKAS_clean_linker_0
_symmetry_space_group_name_H-M    P1
_symmetry_Int_Tables_number       1
_symmetry_cell_setting            triclinic
loop_
_symmetry_equiv_pos_as_xyz
'x, y, z'
_cell_length_a     67.208304
_cell_length_b     66.348085
_cell_length_c     19.460982
_cell_angle_alpha  80.809737
_cell_angle_beta   88.891407
_cell_angle_gamma 98.590736
loop_
_atom_site_label
_atom_site_type_symbol
_atom_site_fract_x
_atom_site_fract_y
_atom_site_fract_z
_atom_type_partial_charge
C0 C 0.75656 0.55598 0.18644 0.0
N1 N 0.77586 0.55273 0.18055 0.0
N2 N 0.74641 0.55137 0.13011 0.0
C3 C 0.74732 0.5625 0.24869 0.0
C4 C 0.76022 0.54511 0.0899 0.0
N5 N 0.77812 0.54582 0.12087 0.0
C6 C 0.75602 0.53765 0.02177 0.0
H7 H 0.74295 0.54867 0.28929 0.0
H8 H 0.73368 0.56957 0.23474 0.0
H9 H 0.75828 0.57363 0.27101 0.0
H10 H 0.76985 0.5407 0.98728 0.0
H11 H 0.7441 0.54512 0.99423 0.0
H12 H 0.75076 0.52074 0.0323 0.0
C13 C 0.01457 0.74831 0.28154 0.0
N14 N 0.01925 0.76907 0.27874 0.0
N15 N 0.02158 0.74251 0.22271 0.0
C16 C 0.00215 0.73396 0.33933 0.0
C17 C 0.03081 0.76052 0.18464 0.0
N18 N 0.02935 0.77656 0.21848 0.0
C19 C 0.04227 0.76229 0.1162 0.0
H20 H 0.0124 0.72756 0.37817 0.0
H21 H 0.99317 0.7209 0.31909 0.0
H22 H 0.99197 0.74228 0.36589 0.0
H23 H 0.03186 0.76469 0.07313 0.0
H24 H 0.04867 0.74797 0.11297 0.0
H25 H 0.05463 0.77565 0.10918 0.0
C26 C 0.76696 0.96705 0.21374 0.0
N27 N 0.74779 0.97067 0.20551 0.0
N28 N 0.7777 0.97235 0.15215 0.0
C29 C 0.77495 0.9576 0.28092 0.0
C30 C 0.76443 0.97948 0.1064 0.0
N31 N 0.74626 0.9784 0.13885 0.0
C32 C 0.7697 0.98918 0.03171 0.0
H33 H 0.78069 0.97007 0.3105 0.0
H34 H 0.78751 0.9492 0.27084 0.0
H35 H 0.76284 0.94686 0.31333 0.0
H36 H 0.76753 0.97693 0.99866 0.0
H37 H 0.78566 0.99672 0.02516 0.0
H38 H 0.75987 1.00079 0.01339 0.0
C39 C 0.49567 0.77883 0.44682 0.0
N40 N 0.48931 0.75828 0.45101 0.0
N41 N 0.48855 0.78949 0.3895 0.0
C42 C 0.50829 0.78849 0.49926 0.0
C43 C 0.47788 0.77467 0.35874 0.0
N44 N 0.47822 0.75577 0.39636 0.0
C45 C 0.46881 0.77851 0.28856 0.0
H46 H 0.50551 0.80453 0.49997 0.0
H47 H 0.52442 0.78898 0.48473 0.0
H48 H 0.50512 0.77919 0.55205 0.0
H49 H 0.47682 0.79278 0.256 0.0
H50 H 0.45282 0.78036 0.29625 0.0
H51 H 0.46929 0.76533 0.26028 0.0
C52 C 0.27406 0.49475 0.58049 0.0
N53 N 0.25471 0.49803 0.58524 0.0
N54 N 0.28398 0.49953 0.63707 0.0
C55 C 0.28359 0.48818 0.51887 0.0
C56 C 0.26999 0.50577 0.67648 0.0
N57 N 0.25219 0.50495 0.64483 0.0
C58 C 0.27335 0.51102 0.74819 0.0
H59 H 0.28188 0.47106 0.5272 0.0
H60 H 0.2999 0.49443 0.51287 0.0
H61 H 0.27614 0.4934 0.47026 0.0
H62 H 0.27837 0.5279 0.74374 0.0
H63 H 0.28519 0.50289 0.77382 0.0
H64 H 0.25924 0.50682 0.78128 0.0
C65 C 0.01336 0.29918 0.48844 0.0
N66 N 0.01017 0.27838 0.49103 0.0
N67 N 0.00833 0.30418 0.55109 0.0
C68 C 0.02041 0.31452 0.42416 0.0
C69 C 0.00213 0.28556 0.59162 0.0
N70 N 0.00313 0.27002 0.55506 0.0
C71 C 0.99674 0.28243 0.66842 0.0
H72 H 0.01423 0.3291 0.42457 0.0
H73 H 0.01592 0.30808 0.37654 0.0
H74 H 0.03709 0.31805 0.42278 0.0
H75 H 0.98027 0.28204 0.67585 0.0
H76 H 0.00469 0.2952 0.69276 0.0
H77 H 0.00058 0.26755 0.69526 0.0
C78 C 0.26835 0.08626 0.5632 0.0
N79 N 0.28722 0.08177 0.57189 0.0
N80 N 0.25805 0.08324 0.62545 0.0
C81 C 0.2595 0.0919 0.49369 0.0
C82 C 0.27129 0.07661 0.6722 0.0
N83 N 0.28899 0.07554 0.63958 0.0
C84 C 0.26652 0.07027 0.74926 0.0
H85 H 0.2699 0.10433 0.46039 0.0
H86 H 0.24472 0.09713 0.49937 0.0
H87 H 0.25756 0.0782 0.46694 0.0
H88 H 0.25835 0.0542 0.7592 0.0
H89 H 0.25669 0.08033 0.76855 0.0
H90 H 0.28043 0.07104 0.77913 0.0
C91 C 0.53674 0.25955 0.32507 0.0
N92 N 0.54267 0.28018 0.32049 0.0
N93 N 0.54342 0.24924 0.38393 0.0
C94 C 0.52498 0.24947 0.27159 0.0
C95 C 0.55338 0.26435 0.41523 0.0
N96 N 0.55299 0.28309 0.37657 0.0
C97 C 0.56179 0.26092 0.48658 0.0
H98 H 0.50866 0.24841 0.28446 0.0
H99 H 0.52839 0.23361 0.27167 0.0
H100 H 0.52836 0.25877 0.21888 0.0
H101 H 0.57786 0.25908 0.481 0.0
H102 H 0.55359 0.24674 0.51912 0.0
H103 H 0.56094 0.27428 0.51367 0.0
Nd104 Nd 0.00944 0.01374 0.83137 0.0
Nd105 Nd 0.02657 0.03319 0.95456 0.0
C106 C 0.99165 0.98858 0.74966 0.0
C107 C 0.99463 0.96974 0.72067 0.0
C108 C 0.9791 0.95273 0.72874 0.0
C109 C 0.98106 0.93524 0.69854 0.0
C110 C 0.99859 0.93434 0.65901 0.0
C111 C 0.01427 0.9513 0.65182 0.0
C112 C 0.01234 0.96875 0.68236 0.0
C113 C 0.0483 0.03383 0.80898 0.0
C114 C 0.03198 0.98627 0.95575 0.0
C115 C 0.04448 0.05813 0.0368 0.0
C116 C 0.04192 0.0774 0.06282 0.0
C117 C 0.05649 0.08593 0.10492 0.0
C118 C 0.05407 0.10371 0.13255 0.0
C119 C 0.03696 0.11341 0.11888 0.0
C120 C 0.02251 0.10495 0.07545 0.0
C121 C 0.02496 0.08712 0.04776 0.0
C122 C 0.98762 0.01305 0.97588 0.0
C123 C 0.00405 0.06073 0.83124 0.0
O124 O 0.98725 0.98639 0.81653 0.0
O125 O 0.00385 0.00572 0.72639 0.0
O126 O 0.03515 0.03362 0.76116 0.0
O127 O 0.04125 0.02252 0.86503 0.0
O128 O 0.01853 0.98651 0.90704 0.0
O129 O 0.04023 1.00341 0.977 0.0
O130 O 0.04947 0.05972 0.97061 0.0
O131 O 0.0311 0.04186 0.05929 0.0
O132 O 0.00071 0.01294 0.02395 0.0
O133 O 0.99484 0.02455 0.92052 0.0
O134 O 0.01777 0.06046 0.87894 0.0
O135 O 0.9956 0.04355 0.81047 0.0
H136 H 0.96525 0.95309 0.75762 0.0
H137 H 0.96857 0.92263 0.70468 0.0
H138 H 0.0281 0.95109 0.62268 0.0
H139 H 0.02466 0.98154 0.67532 0.0
H140 H 0.06973 0.07873 0.11694 0.0
H141 H 0.06572 0.10989 0.16451 0.0
H142 H 0.00905 0.11181 0.06414 0.0
H143 H 0.01352 0.08078 0.01534 0.0
Nd144 Nd 0.51489 1.0042 0.83944 0.0
Nd145 Nd 0.51434 0.03469 0.93634 0.0
C146 C 0.52324 0.9744 0.77346 0.0
C147 C 0.54045 0.97202 0.72846 0.0
C148 C 0.55197 0.95629 0.74918 0.0
C149 C 0.56903 0.95468 0.70926 0.0
C150 C 0.57488 0.96876 0.64761 0.0
C151 C 0.56305 0.98422 0.62627 0.0
C152 C 0.54609 0.98589 0.66627 0.0
C153 C 0.51615 0.04411 0.77226 0.0
C154 C 0.55764 0.02521 0.89838 0.0
C155 C 0.50673 0.06498 1.00143 0.0
C156 C 0.48902 0.06947 0.03861 0.0
C157 C 0.46948 0.06427 0.0159 0.0
C158 C 0.45272 0.06716 0.05472 0.0
C159 C 0.45517 0.07525 0.11711 0.0
C160 C 0.47479 0.08079 0.13892 0.0
C161 C 0.49154 0.07791 0.1 0.0
C162 C 0.51367 0.99479 1.00282 0.0
C163 C 0.47159 0.01313 0.8794 0.0
O164 O 0.5268 0.97471 0.83915 0.0
O165 O 0.51197 0.98803 0.74826 0.0
O166 O 0.50626 0.02812 0.75118 0.0
O167 O 0.52592 0.0388 0.82511 0.0
O168 O 0.54762 0.00946 0.87366 0.0
O169 O 0.5484 0.03973 0.91739 0.0
O170 O 0.50578 0.06578 0.93396 0.0
O171 O 0.51466 0.0492 0.03151 0.0
O172 O 0.52387 0.01082 0.02292 0.0
O173 O 0.50349 1.00005 0.95092 0.0
O174 O 0.48144 0.02898 0.90406 0.0
O175 O 0.48091 0.99882 0.85941 0.0
H176 H 0.54797 0.94545 0.797 0.0
H177 H 0.5779 0.94271 0.7276 0.0
H178 H 0.56689 0.99509 0.57845 0.0
H179 H 0.53756 0.99822 0.6487 0.0
H180 H 0.46713 0.05763 0.96884 0.0
H181 H 0.43783 0.06251 0.03685 0.0
H182 H 0.4772 0.08731 0.18624 0.0
H183 H 0.50649 0.08199 0.11845 0.0
Nd184 Nd 0.49804 0.51918 0.95077 0.0
Nd185 Nd 0.53017 0.51994 0.83865 0.0
C186 C 0.46559 0.52245 0.02466 0.0
C187 C 0.45767 0.53911 0.05252 0.0
C188 C 0.46124 0.55947 0.01639 0.0
C189 C 0.45545 0.57551 0.04667 0.0
C190 C 0.44617 0.5715 0.11387 0.0
C191 C 0.44212 0.55101 0.14906 0.0
C192 C 0.4478 0.53494 0.11849 0.0
C193 C 0.53691 0.52888 0.99004 0.0
C194 C 0.51334 0.56238 0.84031 0.0
C195 C 0.56211 0.51579 0.76404 0.0
C196 C 0.567 0.49859 0.73159 0.0
C197 C 0.58424 0.501 0.68765 0.0
C198 C 0.58781 0.485 0.65231 0.0
C199 C 0.57403 0.46653 0.66021 0.0
C200 C 0.55709 0.46404 0.70601 0.0
C201 C 0.5536 0.47994 0.74134 0.0
C202 C 0.49133 0.51019 0.7993 0.0
C203 C 0.51515 0.47675 0.94998 0.0
O204 O 0.46604 0.52349 0.95688 0.0
O205 O 0.48193 0.51707 0.05265 0.0
O206 O 0.52271 0.51767 0.03145 0.0
O207 O 0.53017 0.53546 0.93235 0.0
O208 O 0.49826 0.55096 0.88013 0.0
O209 O 0.52972 0.55469 0.82674 0.0
O210 O 0.56121 0.51263 0.83224 0.0
O211 O 0.54704 0.52426 0.73734 0.0
O212 O 0.50555 0.52133 0.75792 0.0
O213 O 0.49808 0.5036 0.85699 0.0
O214 O 0.52989 0.48801 0.90828 0.0
O215 O 0.49902 0.48453 0.9657 0.0
H216 H 0.46905 0.56307 0.96572 0.0
H217 H 0.45905 0.59118 0.01873 0.0
H218 H 0.4349 0.54748 0.20074 0.0
H219 H 0.445 0.51932 0.14719 0.0
H220 H 0.59467 0.51538 0.6795 0.0
H221 H 0.60093 0.48732 0.61712 0.0
H222 H 0.5464 0.44984 0.71396 0.0
H223 H 0.54019 0.47785 0.77514 0.0
Nd224 Nd 0.01217 0.53707 0.82349 0.0
Nd225 Nd 0.01913 0.5072 0.95921 0.0
C226 C -0.00094 0.56447 0.72806 0.0
C227 C 0.98073 0.56441 0.68812 0.0
C228 C 0.97542 0.58304 0.65468 0.0
C229 C 0.95806 0.58296 0.61609 0.0
C230 C 0.94584 0.56422 0.61013 0.0
C231 C 0.95114 0.5456 0.64446 0.0
C232 C 0.96839 0.5457 0.68339 0.0
C233 C 0.0175 0.49796 0.80441 0.0
C234 C 0.97288 0.51135 0.92309 0.0
C235 C 0.03038 0.47619 0.04361 0.0
C236 C 0.04788 0.47594 0.08769 0.0
C237 C 0.05032 0.45828 0.13486 0.0
C238 C 0.06716 0.45844 0.17631 0.0
C239 C 0.08177 0.47628 0.17107 0.0
C240 C 0.07919 0.49388 0.12324 0.0
C241 C 0.06239 0.49372 0.08226 0.0
C242 C 0.02244 0.54696 0.99015 0.0
C243 C 0.05759 0.53543 0.86451 0.0
O244 O 0.99659 0.56427 0.795 0.0
O245 O 0.01114 0.55184 0.71361 0.0
O246 O 0.02468 0.51471 0.76187 0.0
O247 O 0.00722 0.50209 0.85416 0.0
O248 O 0.97984 0.52459 0.86659 0.0
O249 O 0.98471 0.50188 0.96647 0.0
O250 O 0.03477 0.47988 0.97639 0.0
O251 O 0.0167 0.48673 0.06186 0.0
O252 O 0.02449 0.53084 0.03509 0.0
O253 O 0.01892 0.54148 0.93192 0.0
O254 O 0.05059 0.51804 0.90651 0.0
O255 O 0.04567 0.54778 0.83318 0.0
H256 H 0.98476 0.59761 0.65807 0.0
H257 H 0.95441 0.59753 0.58983 0.0
H258 H 0.94186 0.53095 0.64163 0.0
H259 H 0.97216 0.53117 0.70958 0.0
H260 H 0.03922 0.44445 0.13977 0.0
H261 H 0.0686 0.4447 0.21305 0.0
H262 H 0.09028 0.50775 0.11679 0.0
H263 H 0.06076 0.50752 0.04602 0.0
H264 H 0.22901 0.05687 0.58046 0.0
H265 H 0.19286 0.052 0.61174 0.0
H266 H 0.20339 0.10114 0.73391 0.0
H267 H 0.23946 0.10647 0.69992 0.0
H268 H 0.17652 0.04035 0.74235 0.0
H269 H 0.15496 0.11566 0.62723 0.0
H270 H 0.17846 0.10787 0.604 0.0
H271 H 0.17567 0.11778 0.68385 0.0
C272 C 0.2234 0.06689 0.61255 0.0
C273 C 0.23675 0.08202 0.63793 0.0
C274 C 0.20287 0.06406 0.63077 0.0
C275 C 0.1954 0.0763 0.67479 0.0
C276 C 0.20874 0.09178 0.69887 0.0
H277 H 0.07856 0.03444 0.90083 0.0
H278 H 0.11461 0.04644 0.87368 0.0
C279 C 0.22928 0.09472 0.68005 0.0
C280 C 0.17393 0.07176 0.69912 0.0
H281 H 0.13041 0.09244 0.70182 0.0
C282 C 0.16643 0.05174 0.73349 0.0
C283 C 0.16081 0.08664 0.68726 0.0
C284 C 0.16779 0.10814 0.64802 0.0
C285 C 0.1461 0.04605 0.75555 0.0
C286 C 0.13302 0.06099 0.74461 0.0
C287 C 0.14054 0.0811 0.71083 0.0
C288 C 0.11118 0.05559 0.76317 0.0
C289 C 0.13871 0.0239 0.78807 0.0
C290 C 0.09726 0.05762 0.71066 0.0
C291 C 0.07674 0.05105 0.72618 0.0
C292 C 0.06978 0.04225 0.79446 0.0
C293 C 0.0836 0.04095 0.8476 0.0
C294 C 0.10416 0.04769 0.83211 0.0
H295 H 0.14944 0.01344 0.77727 0.0
H296 H 0.13703 0.02286 0.84541 0.0
H297 H 0.12383 0.01826 0.76854 0.0
H298 H 0.10235 0.06375 0.6572 0.0
H299 H 0.06639 0.05236 0.68428 0.0
H300 H 0.5714 0.22481 0.41727 0.0
H301 H 0.5656 0.18896 0.47847 0.0
H302 H 0.50145 0.18901 0.47506 0.0
H303 H 0.50738 0.22504 0.41422 0.0
H304 H 0.51589 0.17558 0.60885 0.0
H305 H 0.54392 0.1347 0.40805 0.0
H306 H 0.56099 0.15681 0.42431 0.0
H307 H 0.5372 0.16027 0.38734 0.0
C308 C 0.5561 0.21694 0.42859 0.0
C309 C 0.53982 0.22745 0.41086 0.0
C310 C 0.55278 0.19652 0.46329 0.0
C311 C 0.53309 0.18626 0.4808 0.0
C312 C 0.51676 0.19662 0.46168 0.0
H313 H 0.49868 0.05626 0.6511 0.0
H314 H 0.50227 0.09091 0.58227 0.0
C315 C 0.5201 0.21705 0.42658 0.0
C316 C 0.52968 0.16521 0.52281 0.0
H317 H 0.53808 0.11569 0.52293 0.0
C318 C 0.52063 0.16245 0.58999 0.0
C319 C 0.53578 0.14809 0.49792 0.0
C320 C 0.54486 0.14999 0.42524 0.0
C321 C 0.51786 0.14309 0.63348 0.0
C322 C 0.52451 0.12611 0.60934 0.0
C323 C 0.5332 0.12879 0.54163 0.0
C324 C 0.52212 0.10528 0.65273 0.0
C325 C 0.50763 0.14088 0.70455 0.0
C326 C 0.53216 0.10182 0.71525 0.0
C327 C 0.53016 0.08196 0.75477 0.0
C328 C 0.51814 0.06526 0.73219 0.0
C329 C 0.50807 0.06882 0.6698 0.0
C330 C 0.51011 0.0886 0.63034 0.0
H331 H 0.49938 0.15397 0.70895 0.0
H332 H 0.49689 0.12622 0.71627 0.0
H333 H 0.51916 0.14058 0.7446 0.0
H334 H 0.54174 0.11442 0.73297 0.0
H335 H 0.53811 0.07964 0.8026 0.0
H336 H 0.30339 0.46655 0.64459 0.0
H337 H 0.33865 0.46528 0.67462 0.0
H338 H 0.34651 0.53011 0.69044 0.0
H339 H 0.31129 0.53118 0.66144 0.0
H340 H 0.37402 0.48626 0.6111 0.0
H341 H 0.36568 0.50499 0.87632 0.0
H342 H 0.34432 0.49788 0.82564 0.0
H343 H 0.35765 0.52393 0.81072 0.0
C344 C 0.31279 0.48045 0.65433 0.0
C345 C 0.3048 0.49892 0.65143 0.0
C346 C 0.33282 0.47974 0.67158 0.0
C347 C 0.34508 0.4975 0.68624 0.0
C348 C 0.33718 0.51609 0.68127 0.0
H349 H 0.47427 0.52662 0.68202 0.0
H350 H 0.43866 0.52159 0.65513 0.0
C351 C 0.31717 0.51675 0.66444 0.0
C352 C 0.3662 0.49676 0.7058 0.0
H353 H 0.3994 0.50787 0.83 0.0
C354 C 0.37955 0.4908 0.65924 0.0
C355 C 0.37331 0.50228 0.76927 0.0
C356 C 0.35944 0.50742 0.82369 0.0
C357 C 0.39999 0.49098 0.67325 0.0
C358 C 0.40734 0.49774 0.73473 0.0
C359 C 0.39382 0.50294 0.78246 0.0
C360 C 0.42904 0.50008 0.74984 0.0
C361 C 0.41346 0.48382 0.62222 0.0
C362 C 0.43543 0.49009 0.81284 0.0
C363 C 0.45575 0.49316 0.8287 0.0
C364 C 0.47 0.50631 0.78182 0.0
C365 C 0.46362 0.51625 0.71876 0.0
C366 C 0.4433 0.51327 0.70313 0.0
H367 H 0.40468 0.47319 0.59122 0.0
H368 H 0.42107 0.49741 0.58534 0.0
H369 H 0.42519 0.47581 0.64928 0.0
H370 H 0.42467 0.47998 0.8499 0.0
H371 H 0.46028 0.48538 0.87782 0.0
H372 H 0.03997 0.33546 0.5341 0.0
H373 H 0.04196 0.36851 0.5773 0.0
H374 H 0.98082 0.35092 0.6612 0.0
H375 H 0.97855 0.31853 0.61449 0.0
H376 H 0.98649 0.39005 0.60557 0.0
H377 H 0.05046 0.37697 0.7736 0.0
H378 H 0.05646 0.37674 0.68359 0.0
H379 H 0.03744 0.35707 0.73044 0.0
C380 C 0.0269 0.33886 0.56078 0.0
C381 C 0.00916 0.32436 0.57144 0.0
C382 C 0.02813 0.3576 0.58657 0.0
C383 C 0.01174 0.36208 0.62458 0.0
C384 C 0.99378 0.34785 0.63293 0.0
H385 H 0.99332 0.46138 0.8594 0.0
H386 H 0.99172 0.42785 0.81891 0.0
C387 C 0.9925 0.32928 0.60652 0.0
C388 C 0.01308 0.38154 0.65533 0.0
H389 H 0.04076 0.41043 0.76153 0.0
C390 C 0.9983 0.39436 0.64005 0.0
C391 C 0.02838 0.38727 0.70096 0.0
C392 C 0.04396 0.37369 0.72375 0.0
C393 C 0.99863 0.41277 0.66774 0.0
C394 C 0.01414 0.41864 0.71193 0.0
C395 C 0.02888 0.40589 0.72759 0.0
C396 C 0.01569 0.43845 0.73978 0.0
C397 C 0.98262 0.4261 0.64871 0.0
C398 C 0.0299 0.45539 0.70966 0.0
C399 C 0.03072 0.4745 0.73222 0.0
C400 C 0.0175 0.47706 0.78602 0.0
C401 C 0.00372 0.45989 0.81796 0.0
C402 C 0.00275 0.44076 0.79472 0.0
H403 H 0.97262 0.42036 0.60892 0.0
H404 H 0.97325 0.42642 0.69603 0.0
H405 H 0.98971 0.44223 0.62846 0.0
H406 H 0.04006 0.45396 0.6674 0.0
H407 H 0.04156 0.4874 0.70672 0.0
H408 H 0.80841 0.99101 0.21717 0.0
H409 H 0.84446 0.99441 0.18556 0.0
H410 H 0.83037 0.95782 0.02349 0.0
H411 H 0.79431 0.95416 0.05616 0.0
H412 H 0.86471 0.94845 0.1039 0.0
H413 H 0.86805 0.03203 1.00139 0.0
H414 H 0.85793 0.02414 0.08935 0.0
H415 H 0.8446 0.01451 0.01922 0.0
C416 C 0.81314 0.98339 0.17585 0.0
C417 C 0.7988 0.97238 0.13882 0.0
C418 C 0.83362 0.98546 0.15743 0.0
C419 C 0.83998 0.9766 0.10157 0.0
C420 C 0.82571 0.96482 0.06654 0.0
H421 H 0.95735 0.01606 0.88519 0.0
H422 H 0.92118 1.00492 0.91116 0.0
C423 C 0.80523 0.96278 0.08495 0.0
C424 C 0.86142 0.98051 0.07758 0.0
H425 H 0.89916 0.0192 0.00907 0.0
C426 C 0.87227 0.96388 0.08289 0.0
C427 C 0.87106 1.00061 0.04894 0.0
C428 C 0.85981 0.01885 0.03866 0.0
C429 C 0.89279 0.96695 0.06225 0.0
C430 C 0.90263 0.9872 0.03643 0.0
C431 C 0.89159 1.00371 0.02925 0.0
C432 C 0.92454 0.99187 0.0188 0.0
C433 C 0.90371 0.94852 0.06786 0.0
C434 C 0.93837 0.98808 0.07058 0.0
C435 C 0.95898 0.99443 0.0559 0.0
C436 C 0.96607 1.00481 0.98934 0.0
C437 C 0.95227 0.00812 0.93699 0.0
C438 C 0.93164 1.00177 0.95172 0.0
H439 H 0.89308 0.93391 0.06912 0.0
H440 H 0.91485 0.9502 0.02364 0.0
H441 H 0.91192 0.94724 0.11692 0.0
H442 H 0.93319 0.98085 0.12303 0.0
H443 H 0.96931 0.9917 0.0972 0.0
H444 H 0.4606 0.81428 0.36238 0.0
H445 H 0.46609 0.85004 0.30036 0.0
H446 H 0.53021 0.84949 0.29414 0.0
H447 H 0.52456 0.81352 0.3556 0.0
H448 H 0.48914 0.88677 0.32966 0.0
H449 H 0.51671 0.86368 0.08701 0.0
H450 H 0.50388 0.8452 0.15814 0.0
H451 H 0.52987 0.85582 0.16387 0.0
C452 C 0.47584 0.822 0.34857 0.0
C453 C 0.49217 0.81133 0.36343 0.0
C454 C 0.47898 0.84233 0.31317 0.0
C455 C 0.49853 0.85229 0.29159 0.0
C456 C 0.51498 0.84196 0.30935 0.0
H457 H 0.53262 0.98257 0.12078 0.0
H458 H 0.5291 0.94803 0.19037 0.0
C459 C 0.51181 0.82159 0.34504 0.0
C460 C 0.50147 0.87317 0.24841 0.0
H461 H 0.51719 0.89943 0.08614 0.0
C462 C 0.49533 0.88958 0.27651 0.0
C463 C 0.50922 0.87669 0.17863 0.0
C464 C 0.51515 0.85942 0.14465 0.0
C465 C 0.49695 0.90946 0.23699 0.0
C466 C 0.50512 0.91309 0.16774 0.0
C467 C 0.51105 0.89664 0.13936 0.0
C468 C 0.50764 0.93388 0.12408 0.0
C469 C 0.48953 0.92635 0.26923 0.0
C470 C 0.49719 0.93728 0.06247 0.0
C471 C 0.49922 0.95706 0.02234 0.0
C472 C 0.51183 0.97368 0.04309 0.0
C473 C 0.52264 0.97009 0.10382 0.0
C474 C 0.52058 0.95039 0.14385 0.0
H475 H 0.47924 0.91999 0.31551 0.0
H476 H 0.5026 0.93637 0.28629 0.0
H477 H 0.48151 0.93613 0.2309 0.0
H478 H 0.48723 0.9247 0.04603 0.0
H479 H 0.49081 0.95937 0.97553 0.0
H480 H 0.71576 0.52708 0.2073 0.0
H481 H 0.67963 0.5252 0.18522 0.0
H482 H 0.69372 0.57313 1.00591 0.0
H483 H 0.7298 0.57506 0.0287 0.0
H484 H 0.65469 0.55852 0.17026 0.0
H485 H 0.66058 0.52291 0.93192 0.0
H486 H 0.67972 0.52301 0.99577 0.0
H487 H 0.678 0.54607 0.93531 0.0
C488 C 0.71098 0.53725 0.16362 0.0
C489 C 0.72531 0.55101 0.11902 0.0
C490 C 0.69048 0.53619 0.151 0.0
C491 C 0.68409 0.54883 0.09339 0.0
C492 C 0.6984 0.56303 0.04998 0.0
H493 H 0.5677 0.55334 0.90979 0.0
H494 H 0.60331 0.5594 0.93687 0.0
C495 C 0.71889 0.56414 0.06285 0.0
C496 C 0.66249 0.54685 0.07797 0.0
H497 H 0.62888 0.53124 0.96065 0.0
C498 C 0.64899 0.55255 0.12451 0.0
C499 C 0.6552 0.53912 0.01811 0.0
C500 C 0.66904 0.53226 0.96749 0.0
C501 C 0.62833 0.55095 0.11231 0.0
C502 C 0.62097 0.54296 0.05285 0.0
C503 C 0.63454 0.53737 1.00617 0.0
C504 C 0.59924 0.54 0.03825 0.0
C505 C 0.61466 0.55822 0.16245 0.0
C506 C 0.58515 0.52699 0.08606 0.0
C507 C 0.5648 0.52361 0.07086 0.0
C508 C 0.55824 0.53301 1.00726 0.0
C509 C 0.57234 0.54597 0.95935 0.0
C510 C 0.59267 0.54942 0.97471 0.0
H511 H 0.62319 0.56929 0.19249 0.0
H512 H 0.60275 0.56576 0.13465 0.0
H513 H 0.60725 0.54473 0.20019 0.0
H514 H 0.58995 0.51914 0.13461 0.0
H515 H 0.55425 0.5134 0.1084 0.0
H516 H 0.03164 0.70713 0.29368 0.0
H517 H 0.03044 0.67384 0.25165 0.0
H518 H 0.00475 0.69933 0.06199 0.0
H519 H 0.00578 0.73236 0.10431 0.0
H520 H 0.99746 0.64693 0.20589 0.0
H521 H 0.05508 0.67841 0.99212 0.0
H522 H 0.05117 0.69186 0.06372 0.0
H523 H 0.03412 0.69228 0.99374 0.0
C524 C 0.0255 0.70544 0.24354 0.0
C525 C 0.01899 0.72232 0.2019 0.0
C526 C 0.02491 0.68651 0.21934 0.0
C527 C 0.01791 0.68419 0.1529 0.0
C528 C 0.01066 0.70084 0.11261 0.0
H529 H 0.01256 0.58212 0.91001 0.0
H530 H 0.0106 0.61559 0.94748 0.0
C531 C 0.01119 0.71967 0.13686 0.0
C532 C 0.01833 0.66448 0.12536 0.0
H533 H 0.03922 0.64393 0.99572 0.0
C534 C 0.00662 0.64627 0.16004 0.0
C535 C 0.03014 0.66361 0.06507 0.0
C536 C 0.04349 0.68252 0.02664 0.0
C537 C 0.00628 0.6273 0.13596 0.0
C538 C 0.0184 0.62632 0.07642 0.0
C539 C 0.02992 0.6446 0.04121 0.0
C540 C 0.02002 0.60632 0.05211 0.0
C541 C 0.99263 0.60854 0.17399 0.0
C542 C 0.02651 0.59016 0.09744 0.0
C543 C 0.02756 0.57116 0.07624 0.0
C544 C 0.0224 0.56784 0.0088 0.0
C545 C 0.01657 0.5842 0.96232 0.0
C546 C 0.01543 0.6033 0.98378 0.0
H547 H 0.97998 0.61297 0.20294 0.0
H548 H 0.98628 0.59825 0.13747 0.0
H549 H 0.00139 0.59969 0.21246 0.0
H550 H 0.03072 0.5922 0.1496 0.0
H551 H 0.0323 0.55896 0.11318 0.0
H552 H 0.02925 0.24305 0.55875 0.0
H553 H 0.02226 0.2057 0.59968 0.0
H554 H 0.96054 0.21058 0.65044 0.0
H555 H 0.96776 0.24816 0.60966 0.0
H556 H 0.97678 0.18711 0.75448 0.0
H557 H 0.9922 0.16082 0.50629 0.0
H558 H 0.01264 0.17936 0.52602 0.0
H559 H 0.98824 0.18693 0.51063 0.0
C560 C 0.0142 0.23601 0.57816 0.0
C561 C -0.00102 0.24821 0.58094 0.0
C562 C 0.01015 0.21473 0.60101 0.0
C563 C 0.99074 0.20527 0.62651 0.0
C564 C 0.97556 0.21754 0.63026 0.0
H565 H 0.9774 0.06931 0.72863 0.0
H566 H 0.96929 0.10343 0.67918 0.0
C567 C 0.97966 0.2389 0.60745 0.0
C568 C 0.98683 0.18275 0.65284 0.0
H569 H 0.99461 0.13643 0.61095 0.0
C570 C 0.9803 0.17597 0.72275 0.0
C571 C 0.9909 0.1681 0.61105 0.0
C572 C 0.99617 0.17414 0.53411 0.0
C573 C 0.9792 0.15517 0.75328 0.0
C574 C 0.98526 0.14093 0.71322 0.0
C575 C 0.99029 0.14741 0.642 0.0
C576 C 0.98869 0.12004 0.74577 0.0
C577 C 0.97201 0.14879 0.82863 0.0
C578 C 0.00239 0.11812 0.79892 0.0
C579 C 0.007 0.09882 0.82709 0.0
C580 C 0.9982 0.08092 0.8022 0.0
C581 C 0.98439 0.08278 0.74904 0.0
C582 C 0.97974 0.10224 0.7208 0.0
H583 H 0.96123 0.15871 0.84325 0.0
H584 H 0.96462 0.13241 0.83948 0.0
H585 H 0.98509 0.15065 0.86228 0.0
H586 H 0.00996 0.13166 0.81761 0.0
H587 H 0.01776 0.09806 0.86779 0.0
H588 H 0.28882 0.03885 0.72268 0.0
H589 H 0.31777 0.02542 0.77692 0.0
H590 H 0.35704 0.07955 0.67211 0.0
H591 H 0.32778 0.09378 0.62348 0.0
H592 H 0.34871 0.01385 0.72822 0.0
H593 H 0.37635 0.07923 0.86217 0.0
H594 H 0.35241 0.07717 0.82168 0.0
H595 H 0.37531 0.08805 0.77063 0.0
C596 C 0.3036 0.04807 0.71305 0.0
C597 C 0.3061 0.06754 0.6705 0.0
C598 C 0.32015 0.04031 0.74324 0.0
C599 C 0.33959 0.05169 0.73015 0.0
C600 C 0.34216 0.07081 0.68525 0.0
H601 H 0.45152 1.00372 0.76652 0.0
H602 H 0.41782 0.01064 0.7364 0.0
C603 C 0.32552 0.07882 0.65664 0.0
C604 C 0.35719 0.04328 0.7618 0.0
H605 H 0.39989 0.05629 0.84672 0.0
C606 C 0.35976 0.02304 0.75502 0.0
C607 C 0.37138 0.05498 0.79845 0.0
C608 C 0.36858 0.07595 0.81436 0.0
C609 C 0.37645 0.01447 0.78173 0.0
C610 C 0.39149 0.02682 0.81323 0.0
C611 C 0.38855 0.04681 0.82195 0.0
C612 C 0.41079 0.01989 0.83495 0.0
C613 C 0.37753 0.9922 0.77664 0.0
C614 C 0.41829 0.02293 0.90008 0.0
C615 C 0.43782 0.01968 0.91619 0.0
C616 C 0.45002 0.01283 0.8682 0.0
C617 C 0.44219 0.00859 0.80488 0.0
C618 C 0.42286 0.01245 0.78785 0.0
H619 H 0.3622 0.9831 0.7777 0.0
H620 H 0.38519 0.99145 0.7263 0.0
H621 H 0.38592 0.98482 0.81978 0.0
H622 H 0.40932 0.02864 0.93741 0.0
H623 H 0.44362 0.02308 0.96532 0.0
H624 H 0.59062 0.29878 0.40597 0.0
H625 H 0.60134 0.33253 0.44229 0.0
H626 H 0.54025 0.34518 0.4291 0.0
H627 H 0.52968 0.31156 0.39341 0.0
H628 H 0.57013 0.37863 0.36691 0.0
H629 H 0.58748 0.34554 0.63675 0.0
H630 H 0.59978 0.33698 0.56626 0.0
H631 H 0.57299 0.33026 0.58087 0.0
C632 C 0.57962 0.30887 0.4112 0.0
C633 C 0.5594 0.3028 0.39724 0.0
C634 C 0.58568 0.32802 0.43178 0.0
C635 C 0.57153 0.34121 0.43886 0.0
C636 C 0.55139 0.33522 0.42382 0.0
H637 H 0.54563 0.44574 0.58924 0.0
H638 H 0.54903 0.41708 0.52775 0.0
C639 C 0.54536 0.31611 0.40349 0.0
C640 C 0.57729 0.36109 0.46372 0.0
H641 H 0.58953 0.38154 0.6102 0.0
C642 C 0.57466 0.37933 0.41977 0.0
C643 C 0.58334 0.36192 0.53254 0.0
C644 C 0.58598 0.34267 0.58226 0.0
C645 C 0.57707 0.39833 0.44381 0.0
C646 C 0.58197 0.39897 0.51381 0.0
C647 C 0.58577 0.38095 0.55653 0.0
C648 C 0.58073 0.41745 0.54621 0.0
C649 C 0.57381 0.41744 0.39462 0.0
C650 C 0.59739 0.42697 0.57785 0.0
C651 C 0.59543 0.44333 0.61361 0.0
C652 C 0.57671 0.4501 0.6191 0.0
C653 C 0.56018 0.44069 0.58648 0.0
C654 C 0.56217 0.42449 0.55058 0.0
H655 H 0.57674 0.41585 0.3395 0.0
H656 H 0.55789 0.41978 0.40043 0.0
H657 H 0.58367 0.43137 0.40617 0.0
H658 H 0.61178 0.42156 0.57564 0.0
H659 H 0.60837 0.45024 0.63868 0.0
H660 H 0.21572 0.48108 0.65673 0.0
H661 H 0.18378 0.49033 0.6938 0.0
H662 H 0.21523 0.54842 0.73617 0.0
H663 H 0.24686 0.5399 0.69254 0.0
H664 H 0.17061 0.49651 0.81049 0.0
H665 H 0.17174 0.56945 0.6262 0.0
H666 H 0.1897 0.55221 0.61864 0.0
H667 H 0.19331 0.57029 0.67895 0.0
C668 C 0.21567 0.49597 0.67273 0.0
C669 C 0.23362 0.5099 0.67107 0.0
C670 C 0.19748 0.5012 0.69447 0.0
C671 C 0.19696 0.52029 0.71651 0.0
C672 C 0.21507 0.53391 0.71731 0.0
H673 H 0.08824 0.53173 0.95206 0.0
H674 H 0.12353 0.53135 0.91935 0.0
C675 C 0.23319 0.52889 0.6937 0.0
C676 C 0.1775 0.52549 0.74052 0.0
H677 H 0.1466 0.56229 0.71829 0.0
C678 C 0.16535 0.51088 0.79003 0.0
C679 C 0.17045 0.54412 0.71325 0.0
C680 C 0.18188 0.5598 0.6558 0.0
C681 C 0.14631 0.51416 0.81235 0.0
C682 C 0.13963 0.53317 0.78744 0.0
C683 C 0.15184 0.54789 0.73833 0.0
C684 C 0.11945 0.53741 0.80816 0.0
C685 C 0.13329 0.49673 0.8599 0.0
C686 C 0.10588 0.5429 0.7569 0.0
C687 C 0.08596 0.54406 0.77575 0.0
C688 C 0.07927 0.53939 0.846 0.0
C689 C 0.09311 0.53526 0.89748 0.0
C690 C 0.11317 0.53476 0.87875 0.0
H691 H 0.13799 0.48155 0.85644 0.0
H692 H 0.13477 0.49928 0.91466 0.0
H693 H 0.11719 0.49584 0.84708 0.0
H694 H 0.11038 0.54519 0.70211 0.0
H695 H 0.07546 0.54709 0.73519 0.0
H696 H 0.01984 0.79824 0.0983 0.0
H697 H 0.02846 0.83559 0.05961 0.0
H698 H 0.0618 0.84104 0.24474 0.0
H699 H 0.0534 0.80346 0.28273 0.0
H700 H 0.03339 0.8683 0.21949 0.0
H701 H 0.0818 0.8717 0.98347 0.0
H702 H 0.05875 0.85403 0.98487 0.0
H703 H 0.07679 0.84904 0.05014 0.0
C704 C 0.02946 0.8074 0.12953 0.0
C705 C 0.03613 0.79813 0.19295 0.0
C706 C 0.03436 0.82867 0.10763 0.0
C707 C 0.04604 0.84101 0.14882 0.0
C708 C 0.05293 0.83174 0.21196 0.0
H709 H 0.05591 0.97763 0.06665 0.0
H710 H 0.06333 0.94354 0.1195 0.0
C711 C 0.04813 0.81039 0.23361 0.0
C712 C 0.04951 0.86374 0.12796 0.0
H713 H 0.06571 0.90156 0.98977 0.0
C714 C 0.04086 0.87573 0.17004 0.0
C715 C 0.05938 0.87332 0.06368 0.0
C716 C 0.06989 0.86138 0.01825 0.0
C717 C 0.04045 0.89682 0.14692 0.0
C718 C 0.04918 0.9061 0.08053 0.0
C719 C 0.05896 0.89437 0.04054 0.0
C720 C 0.04599 0.92701 0.04771 0.0
C721 C 0.02951 0.90868 0.1915 0.0
C722 C 0.03424 0.929 0.98903 0.0
C723 C 0.03005 0.9483 0.95879 0.0
C724 C 0.03759 0.96611 0.98644 0.0
C725 C 0.04983 0.9642 0.04428 0.0
C726 C 0.054 0.94475 0.07472 0.0
H727 H 0.02128 0.89848 0.23729 0.0
H728 H 0.04055 0.92044 0.21075 0.0
H729 H 0.0186 0.9169 0.16035 0.0
H730 H 0.02795 0.91549 0.96736 0.0
H731 H 0.02068 0.94915 0.91408 0.0
H732 H 0.72697 0.00746 0.17997 0.0
H733 H 0.6958 0.01849 0.13379 0.0
H734 H 0.69534 0.97694 0.9842 0.0
H735 H 0.72635 0.96575 0.03127 0.0
H736 H 0.68758 0.03519 0.98742 0.0
H737 H 0.63991 0.9609 0.09923 0.0
H738 H 0.66483 0.96863 0.1283 0.0
H739 H 0.66178 0.95854 0.04823 0.0
C740 C 0.72013 1.0008 0.13715 0.0
C741 C 0.72877 0.98576 0.10903 0.0
C742 C 0.7025 0.00714 0.1107 0.0
C743 C 0.69331 0.99842 0.05599 0.0
C744 C 0.70221 0.98372 0.02679 0.0
H745 H 0.58223 1.00135 0.84803 0.0
H746 H 0.61628 0.99722 0.88222 0.0
C747 C 0.71985 0.97742 0.05321 0.0
C748 C 0.67404 1.00416 0.03072 0.0
H749 H 0.62449 0.98459 0.02149 0.0
C750 C 0.67372 0.02422 0.99498 0.0
C751 C 0.65608 0.98978 0.04127 0.0
C752 C 0.65551 0.9683 0.08187 0.0
C753 C 0.65589 0.0301 0.96748 0.0
C754 C 0.63798 0.01558 0.97706 0.0
C755 C 0.6383 0.99563 0.01382 0.0
C756 C 0.61865 0.02048 0.94913 0.0
C757 C 0.65641 0.05155 0.92697 0.0
C758 C 0.6089 0.03532 0.97419 0.0
C759 C 0.58938 0.0378 0.95452 0.0
C760 C 0.5793 0.0253 0.91013 0.0
C761 C 0.58952 0.01114 0.88268 0.0
C762 C 0.60899 0.00875 0.90211 0.0
H763 H 0.67204 0.05913 0.91078 0.0
H764 H 0.64741 0.05113 0.87982 0.0
H765 H 0.64976 0.06118 0.96016 0.0
H766 H 0.616 0.0443 0.0114 0.0
H767 H 0.58187 0.04874 0.97684 0.0
H768 H 0.50065 0.72705 0.37415 0.0
H769 H 0.48927 0.69476 0.33041 0.0
H770 H 0.4286 0.70874 0.32474 0.0
H771 H 0.44006 0.74101 0.3699 0.0
H772 H 0.43332 0.66542 0.38114 0.0
H773 H 0.47233 0.69626 0.12344 0.0
H774 H 0.48788 0.69889 0.19656 0.0
H775 H 0.46681 0.71269 0.18464 0.0
C776 C 0.48486 0.72297 0.36458 0.0
C777 C 0.47115 0.73629 0.37509 0.0
C778 C 0.4784 0.7047 0.33929 0.0
C779 C 0.45817 0.69958 0.32372 0.0
C780 C 0.44429 0.71254 0.33633 0.0
H781 H 0.42964 0.60559 0.05991 0.0
H782 H 0.42803 0.63642 0.113 0.0
C783 C 0.45078 0.73087 0.3617 0.0
C784 C 0.45188 0.68111 0.29145 0.0
H785 H 0.4609 0.66005 0.14752 0.0
C786 C 0.4391 0.66425 0.32974 0.0
C787 C 0.4592 0.67987 0.22396 0.0
C788 C 0.47217 0.69794 0.17934 0.0
C789 C 0.43421 0.6457 0.30335 0.0
C790 C 0.44256 0.64404 0.23754 0.0
C791 C 0.45457 0.66129 0.1981 0.0
C792 C 0.44036 0.62428 0.21017 0.0
C793 C 0.42029 0.62807 0.34635 0.0
C794 C 0.44753 0.60714 0.24762 0.0
C795 C 0.44842 0.58954 0.21751 0.0
C796 C 0.4424 0.58888 0.14903 0.0
C797 C 0.43452 0.60576 0.11257 0.0
C798 C 0.43352 0.62331 0.14291 0.0
H799 H 0.41011 0.63378 0.38198 0.0
H800 H 0.411 0.61868 0.31281 0.0
H801 H 0.42939 0.61791 0.37888 0.0
H802 H 0.45342 0.60775 0.29877 0.0
H803 H 0.45487 0.57693 0.24643 0.0
H804 H 0.81476 0.56916 0.10546 0.0
H805 H 0.8463 0.5592 0.06762 0.0
H806 H 0.81413 0.50011 0.03757 0.0
H807 H 0.78283 0.50959 0.08086 0.0
H808 H 0.84779 0.49482 0.09666 0.0
H809 H 0.86533 0.55841 0.87391 0.0
H810 H 0.86264 0.56848 0.95306 0.0
H811 H 0.84135 0.55317 0.92154 0.0
C812 C 0.81453 0.55403 0.09115 0.0
C813 C 0.79644 0.54019 0.09537 0.0
C814 C 0.83246 0.54844 0.06855 0.0
C815 C 0.83253 0.52911 0.0478 0.0
C816 C 0.81443 0.51519 0.0525 0.0
H817 H 0.94272 0.51356 0.8321 0.0
H818 H 0.90713 0.51379 0.85973 0.0
C819 C 0.79655 0.52066 0.07646 0.0
C820 C 0.85161 0.52327 0.02329 0.0
H821 H 0.89291 0.54106 0.91393 0.0
C822 C 0.85754 0.50479 0.056 0.0
C823 C 0.86414 0.53596 0.96904 0.0
C824 C 0.85791 0.55497 0.92689 0.0
C825 C 0.87602 0.4991 0.03796 0.0
C826 C 0.88927 0.51266 0.98767 0.0
C827 C 0.88295 0.53072 0.95312 0.0
C828 C 0.91006 0.50905 0.97163 0.0
C829 C 0.88096 0.47854 0.07262 0.0
C830 C 0.92352 0.50572 0.02519 0.0
C831 C 0.94377 0.505 0.00945 0.0
C832 C 0.95103 0.50826 0.93982 0.0
C833 C 0.93749 0.511 0.88627 0.0
C834 C 0.91717 0.5112 0.90205 0.0
H835 H 0.86704 0.46721 0.08755 0.0
H836 H 0.89073 0.47198 0.03814 0.0
H837 H 0.88889 0.4806 0.12108 0.0
H838 H 0.91866 0.50468 0.07916 0.0
H839 H 0.95396 0.50321 0.05168 0.0
H840 H 0.04505 0.27397 0.42798 0.0
H841 H 0.04957 0.24806 0.35399 0.0
H842 H 0.98512 0.2297 0.35864 0.0
H843 H 0.9809 0.25507 0.43451 0.0
H844 H 0.00207 0.19727 0.38971 0.0
H845 H 0.04301 0.24337 0.15365 0.0
H846 H 0.05578 0.24754 0.23137 0.0
H847 H 0.03132 0.25512 0.21812 0.0
C848 C 0.03192 0.26482 0.41102 0.0
C849 C 0.01263 0.26665 0.43578 0.0
C850 C 0.03445 0.24999 0.36877 0.0
C851 C 0.01768 0.23696 0.34956 0.0
C852 C 0.99834 0.23951 0.37222 0.0
H853 H 0.02131 0.14811 0.06076 0.0
H854 H 0.0162 0.17794 0.11509 0.0
C855 C 0.99587 0.25411 0.41501 0.0
C856 C 0.0202 0.21945 0.31176 0.0
H857 H 0.04274 0.20676 0.16858 0.0
C858 C 0.0109 0.19943 0.34123 0.0
C859 C 0.03145 0.22213 0.24768 0.0
C860 C 0.04078 0.24323 0.21046 0.0
C861 C 0.01281 0.18213 0.30966 0.0
C862 C 0.02481 0.18466 0.24736 0.0
C863 C 0.03376 0.20471 0.2168 0.0
C864 C 0.02828 0.16667 0.21364 0.0
C865 C 0.00161 0.16133 0.34304 0.0
C866 C 0.03698 0.15043 0.2504 0.0
C867 C 0.03976 0.13327 0.21973 0.0
C868 C 0.03407 0.13193 0.15108 0.0
C869 C 0.02562 0.14839 0.11396 0.0
C870 C 0.02284 0.16558 0.14479 0.0
H871 H 0.98827 0.16296 0.37516 0.0
H872 H 0.99644 0.15163 0.30338 0.0
H873 H 0.01176 0.15314 0.37786 0.0
H874 H 0.04162 0.15099 0.30314 0.0
H875 H 0.04611 0.12089 0.25044 0.0
H876 H 0.3061 0.11456 0.48316 0.0
H877 H 0.33332 0.11473 0.39672 0.0
H878 H 0.32985 0.04877 0.45709 0.0
H879 H 0.30225 0.04867 0.54186 0.0
H880 H 0.37015 0.10309 0.42353 0.0
H881 H 0.33001 0.05516 0.24543 0.0
H882 H 0.31695 0.06626 0.30852 0.0
H883 H 0.32744 0.04297 0.33505 0.0
C884 C 0.31091 0.10012 0.47639 0.0
C885 C 0.30208 0.08158 0.51793 0.0
C886 C 0.32649 0.1002 0.42766 0.0
C887 C 0.33341 0.08172 0.41972 0.0
C888 C 0.32445 0.06314 0.46113 0.0
H889 H 0.44949 0.06563 0.25873 0.0
H890 H 0.41997 0.06837 0.32989 0.0
C891 C 0.30883 0.06307 0.50967 0.0
C892 C 0.3508 0.08204 0.37125 0.0
H893 H 0.36595 0.06116 0.23335 0.0
C894 C 0.3692 0.09405 0.38158 0.0
C895 C 0.34947 0.07044 0.31605 0.0
C896 C 0.32986 0.05814 0.30002 0.0
C897 C 0.38644 0.09436 0.33937 0.0
C898 C 0.38534 0.08201 0.28623 0.0
C899 C 0.36681 0.07045 0.2746 0.0
C900 C 0.40333 0.08061 0.24289 0.0
C901 C 0.40564 0.10802 0.35179 0.0
C902 C 0.40359 0.08613 0.17014 0.0
C903 C 0.42045 0.08453 0.12923 0.0
C904 C 0.43734 0.07731 0.16035 0.0
C905 C 0.43692 0.07166 0.23324 0.0
C906 C 0.42006 0.07321 0.27402 0.0
H907 H 0.40258 0.12068 0.37965 0.0
H908 H 0.41535 0.09863 0.38453 0.0
H909 H 0.4141 0.11493 0.30195 0.0
H910 H 0.3908 0.0918 0.14506 0.0
H911 H 0.42034 0.08913 0.0733 0.0
H912 H 0.57055 0.3091 0.24681 0.0
H913 H 0.56455 0.34116 0.17359 0.0
H914 H 0.5005 0.32087 0.20123 0.0
H915 H 0.50657 0.28882 0.27551 0.0
H916 H 0.52183 0.34329 0.05015 0.0
H917 H 0.53515 0.38324 0.28016 0.0
H918 H 0.55164 0.36539 0.26299 0.0
H919 H 0.52584 0.35589 0.28953 0.0
C920 C 0.55524 0.31133 0.23566 0.0
C921 C 0.53901 0.29659 0.26633 0.0
C922 C 0.55182 0.3296 0.19416 0.0
C923 C 0.5321 0.33338 0.18241 0.0
C924 C 0.51583 0.31815 0.20959 0.0
H925 H 0.49076 0.45092 0.05158 0.0
H926 H 0.49425 0.41572 0.10476 0.0
C927 C 0.51927 0.29984 0.25142 0.0
C928 C 0.52861 0.35396 0.14703 0.0
H929 H 0.5297 0.40375 0.17367 0.0
C930 C 0.52349 0.35653 0.07698 0.0
C931 C 0.53075 0.37111 0.1825 0.0
C932 C 0.53606 0.36895 0.25807 0.0
C933 C 0.52067 0.376 0.04112 0.0
C934 C 0.5231 0.39324 0.07632 0.0
C935 C 0.52792 0.39053 0.14673 0.0
C936 C 0.52059 0.41425 0.0413 0.0
C937 C 0.51493 0.378 0.96609 0.0
C938 C 0.5343 0.42515 0.988 0.0
C939 C 0.53244 0.44537 0.95765 0.0
C940 C 0.51677 0.45504 0.97996 0.0
C941 C 0.50295 0.44395 0.03285 0.0
C942 C 0.50493 0.42382 0.06346 0.0
H943 H 0.50975 0.36271 0.95075 0.0
H944 H 0.50281 0.38768 0.95672 0.0
H945 H 0.52822 0.3857 0.93198 0.0
H946 H 0.54666 0.41815 0.97075 0.0
H947 H 0.54335 0.45344 0.9171 0.0
H948 H 0.24137 0.46314 0.53507 0.0
H949 H 0.21331 0.45778 0.45733 0.0
H950 H 0.20525 0.52147 0.448 0.0
H951 H 0.23364 0.52685 0.52377 0.0
H952 H 0.17396 0.46214 0.48382 0.0
H953 H 0.20463 0.51529 0.24391 0.0
H954 H 0.22031 0.50718 0.31416 0.0
H955 H 0.20582 0.52763 0.31963 0.0
C956 C 0.23384 0.47602 0.5148 0.0
C957 C 0.23959 0.4954 0.53464 0.0
C958 C 0.21778 0.47296 0.47102 0.0
C959 C 0.20735 0.4893 0.44614 0.0
C960 C 0.21334 0.50876 0.46525 0.0
H961 H 0.09917 0.5079 0.23524 0.0
H962 H 0.12972 0.50955 0.3014 0.0
C963 C 0.22942 0.51182 0.50876 0.0
C964 C 0.18945 0.48576 0.40368 0.0
H965 H 0.16907 0.50369 0.25077 0.0
C966 C 0.17297 0.47102 0.43246 0.0
C967 C 0.1882 0.49736 0.33671 0.0
C968 C 0.20576 0.51261 0.30144 0.0
C969 C 0.155 0.46813 0.39711 0.0
C970 C 0.15359 0.48016 0.33107 0.0
C971 C 0.1702 0.49456 0.30163 0.0
C972 C 0.13477 0.47861 0.29261 0.0
C973 C 0.13741 0.45278 0.43157 0.0
C974 C 0.12749 0.46063 0.2658 0.0
C975 C 0.11008 0.45968 0.22734 0.0
C976 C 0.0997 0.47674 0.21486 0.0
C977 C 0.10695 0.4946 0.24279 0.0
C978 C 0.12436 0.49555 0.28093 0.0
H979 H 0.13971 0.44747 0.48754 0.0
H980 H 0.1233 0.45964 0.42712 0.0
H981 H 0.13543 0.43908 0.40487 0.0
H982 H 0.13549 0.44749 0.2735 0.0
H983 H 0.10507 0.4458 0.20584 0.0
H984 H 0.99457 0.79757 0.25487 0.0
H985 H 0.98988 0.82392 0.3267 0.0
H986 H 0.02662 0.79602 0.48266 0.0
H987 H 0.03139 0.76974 0.40998 0.0
H988 H 0.97489 0.82207 0.46593 0.0
H989 H 0.05569 0.85643 0.42758 0.0
H990 H 0.04375 0.83835 0.37519 0.0
H991 H 0.05089 0.82925 0.46176 0.0
C992 C 0.00121 0.79685 0.30529 0.0
C993 C 0.01325 0.78166 0.32727 0.0
C994 C 0.99862 0.81192 0.34614 0.0
C995 C 0.00815 0.81219 0.40967 0.0
C996 C 0.01935 0.79633 0.43341 0.0
H997 H 0.98654 0.8931 0.71076 0.0
H998 H 0.98874 0.86334 0.65268 0.0
C999 C 0.02187 0.78118 0.39252 0.0
C1000 C 0.00705 0.82959 0.44904 0.0
H1001 H 0.03573 0.87097 0.50191 0.0
C1002 C 0.9882 0.8327 0.47416 0.0
C1003 C 0.02434 0.84377 0.45838 0.0
C1004 C 0.04482 0.842 0.42887 0.0
C1005 C 0.9862 0.84943 0.50893 0.0
C1006 C 0.00358 0.86331 0.52008 0.0
C1007 C 0.02241 0.86027 0.49426 0.0
C1008 C 0.00252 0.8814 0.55645 0.0
C1009 C 0.96537 0.8524 0.53146 0.0
C1010 C 0.0101 0.90155 0.52295 0.0
C1011 C 0.00899 0.91863 0.55631 0.0
C1012 C 0.0003 0.91602 0.62422 0.0
C1013 C 0.993 0.89579 0.65807 0.0
C1014 C 0.9942 0.87871 0.62477 0.0
H1015 H 0.95354 0.84417 0.50249 0.0
H1016 H 0.9626 0.84608 0.58771 0.0
H1017 H 0.96384 0.86904 0.52354 0.0
H1018 H 0.01663 0.90412 0.47037 0.0
H1019 H 0.01459 0.93393 0.5282 0.0
H1020 H 0.71161 0.94747 0.20142 0.0
H1021 H 0.68236 0.945 0.28164 0.0
H1022 H 0.71828 0.9836 0.40616 0.0
H1023 H 0.7475 0.98607 0.32547 0.0
H1024 H 0.69241 0.94924 0.48499 0.0
H1025 H 0.65215 0.99466 0.2833 0.0
H1026 H 0.65988 0.97202 0.25817 0.0
H1027 H 0.67858 0.99297 0.27351 0.0
C1028 C 0.7132 0.95517 0.2465 0.0
C1029 C 0.73163 0.96697 0.25768 0.0
C1030 C 0.69656 0.95385 0.29196 0.0
C1031 C 0.69811 0.96439 0.34914 0.0
C1032 C 0.71679 0.97539 0.3622 0.0
H1033 H 0.60283 1.00083 0.5831 0.0
H1034 H 0.63277 0.99909 0.5124 0.0
C1035 C 0.73345 0.97672 0.31659 0.0
C1036 C 0.68005 0.96467 0.39356 0.0
H1037 H 0.63402 0.98059 0.39018 0.0
C1038 C 0.67962 0.95607 0.46439 0.0
C1039 C 0.66353 0.97383 0.3665 0.0
C1040 C 0.66354 0.98407 0.29137 0.0
C1041 C 0.66293 0.95616 0.50888 0.0
C1042 C 0.64625 0.96494 0.48149 0.0
C1043 C 0.64678 0.97373 0.41081 0.0
C1044 C 0.62827 0.96571 0.52564 0.0
C1045 C 0.66342 0.94726 0.58505 0.0
C1046 C 0.61575 0.94749 0.55614 0.0
C1047 C 0.59848 0.94842 0.59612 0.0
C1048 C 0.5934 0.96761 0.60611 0.0
C1049 C 0.60609 0.9858 0.57559 0.0
C1050 C 0.62328 0.98485 0.53552 0.0
H1051 H 0.67889 0.94517 0.60061 0.0
H1052 H 0.65747 0.95738 0.61813 0.0
H1053 H 0.65372 0.93193 0.59553 0.0
H1054 H 0.61917 0.93257 0.54811 0.0
H1055 H 0.58891 0.93413 0.61802 0.0
H1056 H 0.46122 0.73108 0.53005 0.0
H1057 H 0.46642 0.69948 0.60737 0.0
H1058 H 0.53059 0.71559 0.56506 0.0
H1059 H 0.52523 0.7475 0.48892 0.0
H1060 H 0.48198 0.66839 0.56675 0.0
H1061 H 0.5286 0.69718 0.77315 0.0
H1062 H 0.51541 0.71377 0.71376 0.0
H1063 H 0.53898 0.70711 0.68662 0.0
C1064 C 0.47643 0.72804 0.53903 0.0
C1065 C 0.49285 0.74168 0.50457 0.0
C1066 C 0.47941 0.71 0.58277 0.0
C1067 C 0.49892 0.70518 0.59277 0.0
C1068 C 0.51544 0.71916 0.55974 0.0
H1069 H 0.54265 0.59174 0.76828 0.0
H1070 H 0.53926 0.62662 0.71096 0.0
C1071 C 0.51243 0.73736 0.51632 0.0
C1072 C 0.50163 0.68472 0.63261 0.0
H1073 H 0.52546 0.66108 0.76953 0.0
C1074 C 0.49137 0.66684 0.61142 0.0
C1075 C 0.51399 0.68263 0.69067 0.0
C1076 C 0.52473 0.70119 0.7179 0.0
C1077 C 0.49323 0.64701 0.64615 0.0
C1078 C 0.50557 0.64493 0.70408 0.0
C1079 C 0.51597 0.66274 0.72514 0.0
C1080 C 0.50789 0.6243 0.74285 0.0
C1081 C 0.48225 0.62838 0.61986 0.0
C1082 C 0.49148 0.61157 0.78098 0.0
C1083 C 0.49336 0.59164 0.81402 0.0
C1084 C 0.51171 0.58402 0.80946 0.0
C1085 C 0.52827 0.59704 0.77266 0.0
C1086 C 0.52639 0.61702 0.73997 0.0
H1087 H 0.47675 0.63247 0.56673 0.0
H1088 H 0.49219 0.61646 0.61891 0.0
H1089 H 0.46905 0.62147 0.65549 0.0
H1090 H 0.47712 0.61698 0.78443 0.0
H1091 H 0.48029 0.58207 0.84183 0.0
H1092 H 0.7919 0.52175 0.25361 0.0
H1093 H 0.81996 0.52497 0.33262 0.0
H1094 H 0.82242 0.59117 0.29727 0.0
H1095 H 0.79427 0.58781 0.21854 0.0
H1096 H 0.86084 0.57356 0.27632 0.0
H1097 H 0.81975 0.54429 0.53234 0.0
H1098 H 0.81381 0.52965 0.46306 0.0
H1099 H 0.80752 0.55521 0.45637 0.0
C1100 C 0.7983 0.53687 0.264 0.0
C1101 C 0.79095 0.55452 0.23143 0.0
C1102 C 0.81423 0.53873 0.3088 0.0
C1103 C 0.82307 0.55829 0.3211 0.0
C1104 C 0.81564 0.57594 0.28878 0.0
H1105 H 0.91667 0.589 0.60833 0.0
H1106 H 0.88682 0.58847 0.53752 0.0
C1107 C 0.79959 0.57405 0.24444 0.0
C1108 C 0.84076 0.56034 0.36486 0.0
H1109 H 0.85541 0.55017 0.53225 0.0
C1110 C 0.85968 0.56856 0.33231 0.0
C1111 C 0.83909 0.55387 0.43778 0.0
C1112 C 0.81896 0.54536 0.47492 0.0
C1113 C 0.87712 0.57006 0.37086 0.0
C1114 C 0.87552 0.56316 0.44358 0.0
C1115 C 0.85654 0.55537 0.47637 0.0
C1116 C 0.8935 0.56352 0.48616 0.0
C1117 C 0.89718 0.57896 0.33379 0.0
C1118 C 0.90697 0.54956 0.48082 0.0
C1119 C 0.92393 0.54976 0.52125 0.0
C1120 C 0.92775 0.56401 0.5675 0.0
C1121 C 0.91421 0.57799 0.57266 0.0
C1122 C 0.89713 0.57765 0.53261 0.0
H1123 H 0.89546 0.5868 0.27984 0.0
H1124 H 0.90582 0.59018 0.36301 0.0
H1125 H 0.90614 0.56632 0.33109 0.0
H1126 H 0.90431 0.53847 0.44546 0.0
H1127 H 0.93418 0.53892 0.51573 0.0
loop_
_geom_bond_atom_site_label_1
_geom_bond_atom_site_label_2
_geom_bond_distance
_geom_bond_site_symmetry_2
_ccdc_geom_bond_type
C0 N1 1.317 . S
C0 N2 1.348 1_554 S
C0 C3 1.485 . S
N1 C0 1.317 . S
N1 N5 1.370 1_554 S
N2 C0 1.348 1_556 S
N2 C4 1.346 . S
C3 C0 1.485 . S
C3 H7 0.960 . S
C3 H8 0.961 . S
C3 H9 0.960 . S
C4 N2 1.346 . S
C4 N5 1.307 . S
C4 C6 1.486 . S
N5 N1 1.370 1_556 S
N5 C4 1.307 . S
C6 C4 1.486 . S
C6 H10 0.960 . S
C6 H11 0.960 . S
C6 H12 0.959 . S
H7 C3 0.960 . S
H8 C3 0.961 . S
H9 C3 0.960 . S
H10 C6 0.960 . S
H11 C6 0.960 . S
H12 C6 0.959 . S
C13 N14 1.317 . S
C13 N15 1.348 . S
C13 C16 1.485 . S
N14 C13 1.317 . S
N14 N18 1.370 . S
N15 C13 1.348 . S
N15 C17 1.343 . S
C16 C13 1.485 . S
C16 H20 0.960 1_655 S
C16 H21 0.961 . S
C16 H22 0.960 . S
C17 N15 1.343 . S
C17 N18 1.313 . S
C17 C19 1.486 1_554 S
N18 N14 1.370 . S
N18 C17 1.313 . S
C19 C17 1.486 1_556 S
C19 H23 0.955 . S
C19 H24 0.965 1_655 S
C19 H25 0.959 1_655 S
H20 C16 0.960 1_455 S
H21 C16 0.961 . S
H22 C16 0.960 . S
H23 C19 0.955 . S
H24 C19 0.965 1_455 S
H25 C19 0.959 1_455 S
C26 N27 1.317 . S
C26 N28 1.348 . S
C26 C29 1.485 . S
N27 C26 1.317 . S
N27 N31 1.370 . S
N28 C26 1.348 . S
N28 C30 1.346 . S
C29 C26 1.485 . S
C29 H33 0.960 . S
C29 H34 0.961 . S
C29 H35 0.960 . S
C30 N28 1.346 . S
C30 N31 1.307 . S
C30 C32 1.486 1_554 S
N31 N27 1.370 . S
N31 C30 1.307 . S
C32 C30 1.486 1_556 S
C32 H36 0.960 . S
C32 H37 0.960 . S
C32 H38 0.959 . S
H33 C29 0.960 . S
H34 C29 0.961 . S
H35 C29 0.960 . S
H36 C32 0.960 . S
H37 C32 0.960 . S
H38 C32 0.959 . S
C39 N40 1.317 . S
C39 N41 1.348 . S
C39 C42 1.485 . S
N40 C39 1.317 . S
N40 N44 1.370 . S
N41 C39 1.348 . S
N41 C43 1.346 . S
C42 C39 1.485 . S
C42 H46 0.960 . S
C42 H47 0.961 . S
C42 H48 0.960 . S
C43 N41 1.346 . S
C43 N44 1.307 . S
C43 C45 1.486 . S
N44 N40 1.370 . S
N44 C43 1.307 . S
C45 C43 1.486 . S
C45 H49 0.960 . S
C45 H50 0.960 . S
C45 H51 0.959 . S
H46 C42 0.960 . S
H47 C42 0.961 . S
H48 C42 0.960 . S
H49 C45 0.960 . S
H50 C45 0.960 . S
H51 C45 0.959 . S
C52 N53 1.317 . S
C52 N54 1.348 . S
C52 C55 1.485 . S
N53 C52 1.317 . S
N53 N57 1.370 . S
N54 C52 1.348 . S
N54 C56 1.346 . S
C55 C52 1.485 . S
C55 H59 0.960 . S
C55 H60 0.961 . S
C55 H61 0.960 . S
C56 N54 1.346 . S
C56 N57 1.307 . S
C56 C58 1.486 . S
N57 N53 1.370 . S
N57 C56 1.307 . S
C58 C56 1.486 . S
C58 H62 0.960 . S
C58 H63 0.960 . S
C58 H64 0.959 . S
H59 C55 0.960 . S
H60 C55 0.961 . S
H61 C55 0.960 . S
H62 C58 0.960 . S
H63 C58 0.960 . S
H64 C58 0.959 . S
C65 N66 1.317 . S
C65 N67 1.348 . S
C65 C68 1.485 . S
N66 C65 1.317 . S
N66 N70 1.370 . S
N67 C65 1.348 . S
N67 C69 1.346 . S
C68 C65 1.485 . S
C68 H72 0.960 . S
C68 H73 0.961 . S
C68 H74 0.960 . S
C69 N67 1.346 . S
C69 N70 1.307 . S
C69 C71 1.486 . S
N70 N66 1.370 . S
N70 C69 1.307 . S
C71 C69 1.486 . S
C71 H75 0.960 . S
C71 H76 0.960 . S
C71 H77 0.959 . S
H72 C68 0.960 . S
H73 C68 0.961 . S
H74 C68 0.960 . S
H75 C71 0.960 . S
H76 C71 0.960 . S
H77 C71 0.959 . S
C78 N79 1.317 . S
C78 N80 1.348 . S
C78 C81 1.485 . S
N79 C78 1.317 . S
N79 N83 1.370 . S
N80 C78 1.348 . S
N80 C82 1.346 . S
C81 C78 1.485 . S
C81 H85 0.960 . S
C81 H86 0.961 . S
C81 H87 0.960 . S
C82 N80 1.346 . S
C82 N83 1.307 . S
C82 C84 1.486 . S
N83 N79 1.370 . S
N83 C82 1.307 . S
C84 C82 1.486 . S
C84 H88 0.960 . S
C84 H89 0.960 . S
C84 H90 0.959 . S
H85 C81 0.960 . S
H86 C81 0.961 . S
H87 C81 0.960 . S
H88 C84 0.960 . S
H89 C84 0.960 . S
H90 C84 0.959 . S
C91 N92 1.317 . S
C91 N93 1.348 . S
C91 C94 1.485 . S
N92 C91 1.317 . S
N92 N96 1.370 . S
N93 C91 1.348 . S
N93 C95 1.346 . S
C94 C91 1.485 . S
C94 H98 0.960 . S
C94 H99 0.961 . S
C94 H100 0.960 . S
C95 N93 1.346 . S
C95 N96 1.307 . S
C95 C97 1.486 . S
N96 N92 1.370 . S
N96 C95 1.307 . S
C97 C95 1.486 . S
C97 H101 0.960 . S
C97 H102 0.960 . S
C97 H103 0.959 . S
H98 C94 0.960 . S
H99 C94 0.961 . S
H100 C94 0.960 . S
H101 C97 0.960 . S
H102 C97 0.960 . S
H103 C97 0.959 . S
Nd104 C106 2.836 1_545 S
Nd104 O124 2.500 1_445 S
Nd104 O125 2.492 1_545 S
Nd104 O126 2.487 . S
Nd104 O127 2.682 . S
Nd104 O128 2.410 1_545 S
Nd104 O133 2.414 1_455 S
Nd104 O135 2.424 . S
Nd105 C115 2.836 1_556 S
Nd105 O127 2.414 . S
Nd105 O129 2.424 1_545 S
Nd105 O130 2.500 1_556 S
Nd105 O131 2.492 1_556 S
Nd105 O132 2.487 1_455 S
Nd105 O133 2.682 1_455 S
Nd105 O134 2.410 . S
C106 Nd104 2.836 1_565 S
C106 C107 1.498 . S
C106 O124 1.258 1_455 S
C106 O125 1.239 . S
C107 C106 1.498 . S
C107 C108 1.366 1_455 S
C107 C112 1.407 . S
C108 C107 1.366 1_655 S
C108 C109 1.392 . S
C108 H136 0.930 . S
C109 C108 1.392 . S
C109 C110 1.398 1_655 S
C109 H137 0.929 . S
C110 C109 1.398 1_455 S
C110 C111 1.352 . S
C111 C110 1.352 . S
C111 C112 1.384 . S
C111 H138 0.930 . S
C112 C107 1.407 . S
C112 C111 1.384 . S
C112 H139 0.929 . S
C113 O126 1.241 . S
C113 O127 1.273 . S
C114 O128 1.251 . S
C114 O129 1.268 . S
C115 Nd105 2.836 1_554 S
C115 C116 1.498 . S
C115 O130 1.258 . S
C115 O131 1.239 . S
C116 C115 1.498 . S
C116 C117 1.366 . S
C116 C121 1.407 . S
C117 C116 1.366 . S
C117 C118 1.392 . S
C117 H140 0.930 . S
C118 C117 1.392 . S
C118 C119 1.398 . S
C118 H141 0.929 . S
C119 C118 1.398 . S
C119 C120 1.352 . S
C120 C119 1.352 . S
C120 C121 1.384 . S
C120 H142 0.930 . S
C121 C116 1.407 . S
C121 C120 1.384 . S
C121 H143 0.929 1_455 S
C122 O132 1.241 . S
C122 O133 1.273 . S
C123 O134 1.251 . S
C123 O135 1.268 . S
O124 Nd104 2.500 1_665 S
O124 C106 1.258 1_655 S
O125 Nd104 2.492 1_565 S
O125 C106 1.239 . S
O126 Nd104 2.487 . S
O126 C113 1.241 . S
O127 Nd104 2.682 . S
O127 Nd105 2.414 . S
O127 C113 1.273 . S
O128 Nd104 2.410 1_565 S
O128 C114 1.251 . S
O129 Nd105 2.424 1_565 S
O129 C114 1.268 . S
O130 Nd105 2.500 1_554 S
O130 C115 1.258 . S
O131 Nd105 2.492 1_554 S
O131 C115 1.239 . S
O132 Nd105 2.487 1_655 S
O132 C122 1.241 . S
O133 Nd104 2.414 1_655 S
O133 Nd105 2.682 1_655 S
O133 C122 1.273 . S
O134 Nd105 2.410 . S
O134 C123 1.251 . S
O135 Nd104 2.424 . S
O135 C123 1.268 . S
H136 C108 0.930 . S
H137 C109 0.929 . S
H138 C111 0.930 . S
H139 C112 0.929 . S
H140 C117 0.930 . S
H141 C118 0.929 . S
H142 C120 0.930 . S
H143 C121 0.929 1_655 S
Nd144 C146 2.836 1_545 S
Nd144 O164 2.500 1_545 S
Nd144 O165 2.492 . S
Nd144 O166 2.487 . S
Nd144 O167 2.682 . S
Nd144 O168 2.410 . S
Nd144 O173 2.414 1_545 S
Nd144 O175 2.424 . S
Nd145 C155 2.836 1_556 S
Nd145 O167 2.414 . S
Nd145 O169 2.424 . S
Nd145 O170 2.500 . S
Nd145 O171 2.492 1_556 S
Nd145 O172 2.487 1_546 S
Nd145 O173 2.682 1_545 S
Nd145 O174 2.410 . S
C146 Nd144 2.836 1_565 S
C146 C147 1.498 . S
C146 O164 1.258 . S
C146 O165 1.239 1_565 S
C147 C146 1.498 . S
C147 C148 1.366 . S
C147 C152 1.407 . S
C148 C147 1.366 . S
C148 C149 1.392 . S
C148 H176 0.930 . S
C149 C148 1.392 . S
C149 C150 1.398 . S
C149 H177 0.929 . S
C150 C149 1.398 . S
C150 C151 1.352 . S
C151 C150 1.352 . S
C151 C152 1.384 . S
C151 H178 0.930 . S
C152 C147 1.407 . S
C152 C151 1.384 . S
C152 H179 0.929 1_565 S
C153 O166 1.241 . S
C153 O167 1.273 . S
C154 O168 1.251 . S
C154 O169 1.268 . S
C155 Nd145 2.836 1_554 S
C155 C156 1.498 . S
C155 O170 1.258 1_554 S
C155 O171 1.239 . S
C156 C155 1.498 . S
C156 C157 1.366 . S
C156 C161 1.407 . S
C157 C156 1.366 . S
C157 C158 1.392 . S
C157 H180 0.930 . S
C158 C157 1.392 . S
C158 C159 1.398 . S
C158 H181 0.929 . S
C159 C158 1.398 . S
C159 C160 1.352 . S
C160 C159 1.352 . S
C160 C161 1.384 . S
C160 H182 0.930 . S
C161 C156 1.407 . S
C161 C160 1.384 . S
C161 H183 0.929 . S
C162 O172 1.241 1_556 S
C162 O173 1.273 . S
C163 O174 1.251 . S
C163 O175 1.268 . S
O164 Nd144 2.500 1_565 S
O164 C146 1.258 . S
O165 Nd144 2.492 . S
O165 C146 1.239 1_545 S
O166 Nd144 2.487 . S
O166 C153 1.241 . S
O167 Nd144 2.682 . S
O167 Nd145 2.414 . S
O167 C153 1.273 . S
O168 Nd144 2.410 . S
O168 C154 1.251 . S
O169 Nd145 2.424 . S
O169 C154 1.268 . S
O170 Nd145 2.500 . S
O170 C155 1.258 1_556 S
O171 Nd145 2.492 1_554 S
O171 C155 1.239 . S
O172 Nd145 2.487 1_564 S
O172 C162 1.241 1_554 S
O173 Nd144 2.414 1_565 S
O173 Nd145 2.682 1_565 S
O173 C162 1.273 . S
O174 Nd145 2.410 . S
O174 C163 1.251 . S
O175 Nd144 2.424 . S
O175 C163 1.268 . S
H176 C148 0.930 . S
H177 C149 0.929 . S
H178 C151 0.930 . S
H179 C152 0.929 1_545 S
H180 C157 0.930 . S
H181 C158 0.929 . S
H182 C160 0.930 . S
H183 C161 0.929 . S
Nd184 C186 2.836 1_556 S
Nd184 O204 2.500 . S
Nd184 O205 2.492 1_556 S
Nd184 O206 2.487 . S
Nd184 O207 2.682 . S
Nd184 O208 2.410 . S
Nd184 O213 2.414 . S
Nd184 O215 2.424 . S
Nd185 C195 2.836 . S
Nd185 O207 2.414 . S
Nd185 O209 2.424 . S
Nd185 O210 2.500 . S
Nd185 O211 2.492 . S
Nd185 O212 2.487 . S
Nd185 O213 2.682 . S
Nd185 O214 2.410 . S
C186 Nd184 2.836 1_554 S
C186 C187 1.498 . S
C186 O204 1.258 1_554 S
C186 O205 1.239 . S
C187 C186 1.498 . S
C187 C188 1.366 . S
C187 C192 1.407 . S
C188 C187 1.366 . S
C188 C189 1.392 . S
C188 H216 0.930 1_554 S
C189 C188 1.392 . S
C189 C190 1.398 . S
C189 H217 0.929 . S
C190 C189 1.398 . S
C190 C191 1.352 . S
C191 C190 1.352 . S
C191 C192 1.384 . S
C191 H218 0.930 . S
C192 C187 1.407 . S
C192 C191 1.384 . S
C192 H219 0.929 . S
C193 O206 1.241 . S
C193 O207 1.273 . S
C194 O208 1.251 . S
C194 O209 1.268 . S
C195 Nd185 2.836 . S
C195 C196 1.498 . S
C195 O210 1.258 . S
C195 O211 1.239 . S
C196 C195 1.498 . S
C196 C197 1.366 . S
C196 C201 1.407 . S
C197 C196 1.366 . S
C197 C198 1.392 . S
C197 H220 0.930 . S
C198 C197 1.392 . S
C198 C199 1.398 . S
C198 H221 0.929 . S
C199 C198 1.398 . S
C199 C200 1.352 . S
C200 C199 1.352 . S
C200 C201 1.384 . S
C200 H222 0.930 . S
C201 C196 1.407 . S
C201 C200 1.384 . S
C201 H223 0.929 . S
C202 O212 1.241 . S
C202 O213 1.273 . S
C203 O214 1.251 . S
C203 O215 1.268 . S
O204 Nd184 2.500 . S
O204 C186 1.258 1_556 S
O205 Nd184 2.492 1_554 S
O205 C186 1.239 . S
O206 Nd184 2.487 . S
O206 C193 1.241 . S
O207 Nd184 2.682 . S
O207 Nd185 2.414 . S
O207 C193 1.273 . S
O208 Nd184 2.410 . S
O208 C194 1.251 . S
O209 Nd185 2.424 . S
O209 C194 1.268 . S
O210 Nd185 2.500 . S
O210 C195 1.258 . S
O211 Nd185 2.492 . S
O211 C195 1.239 . S
O212 Nd185 2.487 . S
O212 C202 1.241 . S
O213 Nd184 2.414 . S
O213 Nd185 2.682 . S
O213 C202 1.273 . S
O214 Nd185 2.410 . S
O214 C203 1.251 . S
O215 Nd184 2.424 . S
O215 C203 1.268 . S
H216 C188 0.930 1_556 S
H217 C189 0.929 . S
H218 C191 0.930 . S
H219 C192 0.929 . S
H220 C197 0.930 . S
H221 C198 0.929 . S
H222 C200 0.930 . S
H223 C201 0.929 . S
Nd224 C226 2.836 1_455 S
Nd224 O244 2.500 1_455 S
Nd224 O245 2.492 1_455 S
Nd224 O246 2.487 . S
Nd224 O247 2.682 . S
Nd224 O248 2.410 1_455 S
Nd224 O253 2.414 . S
Nd224 O255 2.424 . S
Nd225 C235 2.836 1_556 S
Nd225 O247 2.414 . S
Nd225 O249 2.424 1_455 S
Nd225 O250 2.500 1_556 S
Nd225 O251 2.492 1_556 S
Nd225 O252 2.487 . S
Nd225 O253 2.682 . S
Nd225 O254 2.410 . S
C226 Nd224 2.836 1_655 S
C226 C227 1.498 . S
C226 O244 1.258 . S
C226 O245 1.239 . S
C227 C226 1.498 . S
C227 C228 1.366 . S
C227 C232 1.407 . S
C228 C227 1.366 . S
C228 C229 1.392 . S
C228 H256 0.930 . S
C229 C228 1.392 . S
C229 C230 1.398 . S
C229 H257 0.929 . S
C230 C229 1.398 . S
C230 C231 1.352 . S
C231 C230 1.352 . S
C231 C232 1.384 . S
C231 H258 0.930 . S
C232 C227 1.407 . S
C232 C231 1.384 . S
C232 H259 0.929 . S
C233 O246 1.241 . S
C233 O247 1.273 . S
C234 O248 1.251 . S
C234 O249 1.268 . S
C235 Nd225 2.836 1_554 S
C235 C236 1.498 . S
C235 O250 1.258 . S
C235 O251 1.239 . S
C236 C235 1.498 . S
C236 C237 1.366 . S
C236 C241 1.407 . S
C237 C236 1.366 . S
C237 C238 1.392 . S
C237 H260 0.930 . S
C238 C237 1.392 . S
C238 C239 1.398 . S
C238 H261 0.929 . S
C239 C238 1.398 . S
C239 C240 1.352 . S
C240 C239 1.352 . S
C240 C241 1.384 . S
C240 H262 0.930 . S
C241 C236 1.407 . S
C241 C240 1.384 . S
C241 H263 0.929 . S
C242 O252 1.241 . S
C242 O253 1.273 . S
C243 O254 1.251 . S
C243 O255 1.268 . S
O244 Nd224 2.500 1_655 S
O244 C226 1.258 . S
O245 Nd224 2.492 1_655 S
O245 C226 1.239 . S
O246 Nd224 2.487 . S
O246 C233 1.241 . S
O247 Nd224 2.682 . S
O247 Nd225 2.414 . S
O247 C233 1.273 . S
O248 Nd224 2.410 1_655 S
O248 C234 1.251 . S
O249 Nd225 2.424 1_655 S
O249 C234 1.268 . S
O250 Nd225 2.500 1_554 S
O250 C235 1.258 . S
O251 Nd225 2.492 1_554 S
O251 C235 1.239 . S
O252 Nd225 2.487 . S
O252 C242 1.241 . S
O253 Nd224 2.414 . S
O253 Nd225 2.682 . S
O253 C242 1.273 . S
O254 Nd225 2.410 . S
O254 C243 1.251 . S
O255 Nd224 2.424 . S
O255 C243 1.268 . S
H256 C228 0.930 . S
H257 C229 0.929 . S
H258 C231 0.930 . S
H259 C232 0.929 . S
H260 C237 0.930 . S
H261 C238 0.929 . S
H262 C240 0.930 . S
H263 C241 0.929 . S
H264 C272 0.929 . S
H265 C274 0.930 . S
H266 C276 0.930 . S
H267 C279 0.929 . S
H268 C282 0.930 . S
H269 C284 0.960 . S
H270 C284 0.960 . S
H271 C284 0.960 . S
C272 H264 0.929 . S
C272 C273 1.377 . S
C272 C274 1.384 . S
C273 C272 1.377 . S
C273 C279 1.390 . S
C274 H265 0.930 . S
C274 C272 1.384 . S
C274 C275 1.372 . S
C275 C274 1.372 . S
C275 C276 1.400 . S
C275 C280 1.490 . S
C276 H266 0.930 . S
C276 C275 1.400 . S
C276 C279 1.386 . S
H277 C293 0.930 . S
H278 C294 0.931 . S
C279 H267 0.929 . S
C279 C273 1.390 . S
C279 C276 1.386 . S
C280 C275 1.490 . S
C280 C282 1.395 . S
C280 C283 1.403 . S
H281 C287 0.930 . S
C282 H268 0.930 . S
C282 C280 1.395 . S
C282 C285 1.403 . S
C283 C280 1.403 . S
C283 C284 1.524 . S
C283 C287 1.400 . S
C284 H269 0.960 . S
C284 H270 0.960 . S
C284 H271 0.960 . S
C284 C283 1.524 . S
C285 C282 1.403 . S
C285 C286 1.392 . S
C285 C289 1.495 . S
C286 C285 1.392 . S
C286 C287 1.385 . S
C286 C288 1.478 . S
C287 H281 0.930 . S
C287 C283 1.400 . S
C287 C286 1.385 . S
C288 C286 1.478 . S
C288 C290 1.381 . S
C288 C294 1.383 . S
C289 C285 1.495 . S
C289 H295 0.959 . S
C289 H296 0.961 . S
C289 H297 0.960 . S
C290 C288 1.381 . S
C290 C291 1.394 . S
C290 H298 0.930 . S
C291 C290 1.394 . S
C291 C292 1.383 . S
C291 H299 0.929 . S
C292 C291 1.383 . S
C292 C293 1.377 . S
C293 H277 0.930 . S
C293 C292 1.377 . S
C293 C294 1.379 . S
C294 H278 0.931 . S
C294 C288 1.383 . S
C294 C293 1.379 . S
H295 C289 0.959 . S
H296 C289 0.961 . S
H297 C289 0.960 . S
H298 C290 0.930 . S
H299 C291 0.929 . S
H300 C308 0.929 . S
H301 C310 0.930 . S
H302 C312 0.930 . S
H303 C315 0.929 . S
H304 C318 0.930 . S
H305 C320 0.960 . S
H306 C320 0.960 . S
H307 C320 0.960 . S
C308 H300 0.929 . S
C308 C309 1.377 . S
C308 C310 1.384 . S
C309 C308 1.377 . S
C309 C315 1.390 . S
C310 H301 0.930 . S
C310 C308 1.384 . S
C310 C311 1.372 . S
C311 C310 1.372 . S
C311 C312 1.400 . S
C311 C316 1.490 . S
C312 H302 0.930 . S
C312 C311 1.400 . S
C312 C315 1.386 . S
H313 C329 0.930 . S
H314 C330 0.931 . S
C315 H303 0.929 . S
C315 C309 1.390 . S
C315 C312 1.386 . S
C316 C311 1.490 . S
C316 C318 1.395 . S
C316 C319 1.403 . S
H317 C323 0.930 . S
C318 H304 0.930 . S
C318 C316 1.395 . S
C318 C321 1.403 . S
C319 C316 1.403 . S
C319 C320 1.524 . S
C319 C323 1.400 . S
C320 H305 0.960 . S
C320 H306 0.960 . S
C320 H307 0.960 . S
C320 C319 1.524 . S
C321 C318 1.403 . S
C321 C322 1.392 . S
C321 C325 1.495 . S
C322 C321 1.392 . S
C322 C323 1.385 . S
C322 C324 1.478 . S
C323 H317 0.930 . S
C323 C319 1.400 . S
C323 C322 1.385 . S
C324 C322 1.478 . S
C324 C326 1.381 . S
C324 C330 1.383 . S
C325 C321 1.495 . S
C325 H331 0.959 . S
C325 H332 0.961 . S
C325 H333 0.960 . S
C326 C324 1.381 . S
C326 C327 1.394 . S
C326 H334 0.930 . S
C327 C326 1.394 . S
C327 C328 1.383 . S
C327 H335 0.929 . S
C328 C327 1.383 . S
C328 C329 1.377 . S
C329 H313 0.930 . S
C329 C328 1.377 . S
C329 C330 1.379 . S
C330 H314 0.931 . S
C330 C324 1.383 . S
C330 C329 1.379 . S
H331 C325 0.959 . S
H332 C325 0.961 . S
H333 C325 0.960 . S
H334 C326 0.930 . S
H335 C327 0.929 . S
H336 C344 0.929 . S
H337 C346 0.930 . S
H338 C348 0.930 . S
H339 C351 0.929 . S
H340 C354 0.930 . S
H341 C356 0.960 . S
H342 C356 0.960 . S
H343 C356 0.960 . S
C344 H336 0.929 . S
C344 C345 1.377 . S
C344 C346 1.384 . S
C345 C344 1.377 . S
C345 C351 1.390 . S
C346 H337 0.930 . S
C346 C344 1.384 . S
C346 C347 1.372 . S
C347 C346 1.372 . S
C347 C348 1.400 . S
C347 C352 1.490 . S
C348 H338 0.930 . S
C348 C347 1.400 . S
C348 C351 1.386 . S
H349 C365 0.930 . S
H350 C366 0.931 . S
C351 H339 0.929 . S
C351 C345 1.390 . S
C351 C348 1.386 . S
C352 C347 1.490 . S
C352 C354 1.395 . S
C352 C355 1.403 . S
H353 C359 0.930 . S
C354 H340 0.930 . S
C354 C352 1.395 . S
C354 C357 1.403 . S
C355 C352 1.403 . S
C355 C356 1.524 . S
C355 C359 1.400 . S
C356 H341 0.960 . S
C356 H342 0.960 . S
C356 H343 0.960 . S
C356 C355 1.524 . S
C357 C354 1.403 . S
C357 C358 1.392 . S
C357 C361 1.495 . S
C358 C357 1.392 . S
C358 C359 1.385 . S
C358 C360 1.478 . S
C359 H353 0.930 . S
C359 C355 1.400 . S
C359 C358 1.385 . S
C360 C358 1.478 . S
C360 C362 1.381 . S
C360 C366 1.383 . S
C361 C357 1.495 . S
C361 H367 0.959 . S
C361 H368 0.961 . S
C361 H369 0.960 . S
C362 C360 1.381 . S
C362 C363 1.394 . S
C362 H370 0.930 . S
C363 C362 1.394 . S
C363 C364 1.383 . S
C363 H371 0.929 . S
C364 C363 1.383 . S
C364 C365 1.377 . S
C365 H349 0.930 . S
C365 C364 1.377 . S
C365 C366 1.379 . S
C366 H350 0.931 . S
C366 C360 1.383 . S
C366 C365 1.379 . S
H367 C361 0.959 . S
H368 C361 0.961 . S
H369 C361 0.960 . S
H370 C362 0.930 . S
H371 C363 0.929 . S
H372 C380 0.929 . S
H373 C382 0.930 . S
H374 C384 0.930 . S
H375 C387 0.929 . S
H376 C390 0.930 . S
H377 C392 0.960 . S
H378 C392 0.960 . S
H379 C392 0.960 . S
C380 H372 0.929 . S
C380 C381 1.377 . S
C380 C382 1.384 . S
C381 C380 1.377 . S
C381 C387 1.390 . S
C382 H373 0.930 . S
C382 C380 1.384 . S
C382 C383 1.372 . S
C383 C382 1.372 . S
C383 C384 1.400 . S
C383 C388 1.490 . S
C384 H374 0.930 . S
C384 C383 1.400 . S
C384 C387 1.386 . S
H385 C401 0.930 . S
H386 C402 0.931 . S
C387 H375 0.929 . S
C387 C381 1.390 . S
C387 C384 1.386 . S
C388 C383 1.490 . S
C388 C390 1.395 . S
C388 C391 1.403 . S
H389 C395 0.930 . S
C390 H376 0.930 . S
C390 C388 1.395 . S
C390 C393 1.403 . S
C391 C388 1.403 . S
C391 C392 1.524 . S
C391 C395 1.400 . S
C392 H377 0.960 . S
C392 H378 0.960 . S
C392 H379 0.960 . S
C392 C391 1.524 . S
C393 C390 1.403 . S
C393 C394 1.392 . S
C393 C397 1.495 1_455 S
C394 C393 1.392 . S
C394 C395 1.385 . S
C394 C396 1.478 . S
C395 H389 0.930 . S
C395 C391 1.400 . S
C395 C394 1.385 . S
C396 C394 1.478 . S
C396 C398 1.381 . S
C396 C402 1.383 . S
C397 C393 1.495 1_655 S
C397 H403 0.959 . S
C397 H404 0.961 . S
C397 H405 0.975 . S
C398 C396 1.381 . S
C398 C399 1.394 . S
C398 H406 0.930 . S
C399 C398 1.394 . S
C399 C400 1.383 . S
C399 H407 0.929 . S
C400 C399 1.383 . S
C400 C401 1.377 . S
C401 H385 0.930 . S
C401 C400 1.377 . S
C401 C402 1.379 . S
C402 H386 0.931 . S
C402 C396 1.383 . S
C402 C401 1.379 . S
H403 C397 0.959 . S
H404 C397 0.961 . S
H405 C397 0.975 . S
H406 C398 0.930 . S
H407 C399 0.929 . S
H408 C416 0.929 . S
H409 C418 0.930 . S
H410 C420 0.930 . S
H411 C423 0.929 . S
H412 C426 0.930 . S
H413 C428 0.960 . S
H414 C428 0.960 . S
H415 C428 0.960 . S
C416 H408 0.929 . S
C416 C417 1.377 . S
C416 C418 1.384 . S
C417 C416 1.377 . S
C417 C423 1.390 . S
C418 H409 0.930 . S
C418 C416 1.384 . S
C418 C419 1.372 . S
C419 C418 1.372 . S
C419 C420 1.400 . S
C419 C424 1.490 . S
C420 H410 0.930 . S
C420 C419 1.400 . S
C420 C423 1.386 . S
H421 C437 0.930 . S
H422 C438 0.931 . S
C423 H411 0.929 . S
C423 C417 1.390 . S
C423 C420 1.386 . S
C424 C419 1.490 . S
C424 C426 1.395 . S
C424 C427 1.403 1_554 S
H425 C431 0.930 . S
C426 H412 0.930 . S
C426 C424 1.395 . S
C426 C429 1.403 . S
C427 C424 1.403 1_556 S
C427 C428 1.524 . S
C427 C431 1.400 . S
C428 H413 0.960 . S
C428 H414 0.960 . S
C428 H415 0.960 . S
C428 C427 1.524 . S
C429 C426 1.403 . S
C429 C430 1.392 1_554 S
C429 C433 1.495 . S
C430 C429 1.392 1_556 S
C430 C431 1.385 . S
C430 C432 1.478 . S
C431 H425 0.930 . S
C431 C427 1.400 . S
C431 C430 1.385 . S
C432 C430 1.478 . S
C432 C434 1.381 1_565 S
C432 C438 1.383 . S
C433 C429 1.495 . S
C433 H439 0.959 . S
C433 H440 0.961 . S
C433 H441 0.960 1_565 S
C434 C432 1.381 1_545 S
C434 C435 1.394 . S
C434 H442 0.930 . S
C435 C434 1.394 . S
C435 C436 1.381 1_545 S
C435 H443 0.929 . S
C436 C435 1.381 1_565 S
C436 C437 1.379 . S
C437 H421 0.930 . S
C437 C436 1.379 . S
C437 C438 1.379 . S
C438 H422 0.931 . S
C438 C432 1.383 . S
C438 C437 1.379 . S
H439 C433 0.959 . S
H440 C433 0.961 . S
H441 C433 0.960 1_545 S
H442 C434 0.930 . S
H443 C435 0.929 . S
H444 C452 0.929 . S
H445 C454 0.930 . S
H446 C456 0.930 . S
H447 C459 0.929 . S
H448 C462 0.930 . S
H449 C464 0.960 . S
H450 C464 0.960 . S
H451 C464 0.960 . S
C452 H444 0.929 . S
C452 C453 1.377 . S
C452 C454 1.384 . S
C453 C452 1.377 . S
C453 C459 1.390 . S
C454 H445 0.930 . S
C454 C452 1.384 . S
C454 C455 1.372 . S
C455 C454 1.372 . S
C455 C456 1.400 . S
C455 C460 1.490 . S
C456 H446 0.930 . S
C456 C455 1.400 . S
C456 C459 1.386 . S
H457 C473 0.930 . S
H458 C474 0.931 . S
C459 H447 0.929 . S
C459 C453 1.390 . S
C459 C456 1.386 . S
C460 C455 1.490 . S
C460 C462 1.395 . S
C460 C463 1.403 . S
H461 C467 0.930 . S
C462 H448 0.930 . S
C462 C460 1.395 . S
C462 C465 1.403 . S
C463 C460 1.403 . S
C463 C464 1.524 . S
C463 C467 1.400 . S
C464 H449 0.960 . S
C464 H450 0.960 . S
C464 H451 0.960 . S
C464 C463 1.524 . S
C465 C462 1.403 . S
C465 C466 1.392 . S
C465 C469 1.495 . S
C466 C465 1.392 . S
C466 C467 1.385 . S
C466 C468 1.478 . S
C467 H461 0.930 . S
C467 C463 1.400 . S
C467 C466 1.385 . S
C468 C466 1.478 . S
C468 C470 1.381 . S
C468 C474 1.383 . S
C469 C465 1.495 . S
C469 H475 0.959 . S
C469 H476 0.961 . S
C469 H477 0.960 . S
C470 C468 1.381 . S
C470 C471 1.394 . S
C470 H478 0.930 . S
C471 C470 1.394 . S
C471 C472 1.383 1_554 S
C471 H479 0.929 . S
C472 C471 1.383 1_556 S
C472 C473 1.377 . S
C473 H457 0.930 . S
C473 C472 1.377 . S
C473 C474 1.379 1_556 S
C474 H458 0.931 . S
C474 C468 1.383 . S
C474 C473 1.379 1_554 S
H475 C469 0.959 . S
H476 C469 0.961 . S
H477 C469 0.960 . S
H478 C470 0.930 . S
H479 C471 0.929 . S
H480 C488 0.929 . S
H481 C490 0.930 . S
H482 C492 0.930 . S
H483 C495 0.929 . S
H484 C498 0.930 1_554 S
H485 C500 0.960 . S
H486 C500 0.960 . S
H487 C500 0.960 . S
C488 H480 0.929 . S
C488 C489 1.377 . S
C488 C490 1.384 . S
C489 C488 1.377 . S
C489 C495 1.390 . S
C490 H481 0.930 . S
C490 C488 1.384 . S
C490 C491 1.372 . S
C491 C490 1.372 . S
C491 C492 1.400 . S
C491 C496 1.490 . S
C492 H482 0.930 . S
C492 C491 1.400 . S
C492 C495 1.386 . S
H493 C509 0.930 . S
H494 C510 0.931 . S
C495 H483 0.929 . S
C495 C489 1.390 . S
C495 C492 1.386 . S
C496 C491 1.490 . S
C496 C498 1.395 . S
C496 C499 1.403 . S
H497 C503 0.930 . S
C498 H484 0.930 1_556 S
C498 C496 1.395 . S
C498 C501 1.403 . S
C499 C496 1.403 . S
C499 C500 1.524 . S
C499 C503 1.400 . S
C500 H485 0.960 . S
C500 H486 0.960 . S
C500 H487 0.960 . S
C500 C499 1.524 . S
C501 C498 1.403 . S
C501 C502 1.392 . S
C501 C505 1.495 1_556 S
C502 C501 1.392 . S
C502 C503 1.385 . S
C502 C504 1.478 . S
C503 H497 0.930 . S
C503 C499 1.400 . S
C503 C502 1.385 . S
C504 C502 1.478 . S
C504 C506 1.381 . S
C504 C510 1.383 . S
C505 C501 1.495 1_554 S
C505 H511 0.959 . S
C505 H512 0.961 . S
C505 H513 0.960 . S
C506 C504 1.381 . S
C506 C507 1.394 . S
C506 H514 0.930 . S
C507 C506 1.394 . S
C507 C508 1.383 . S
C507 H515 0.929 . S
C508 C507 1.383 . S
C508 C509 1.377 . S
C509 H493 0.930 . S
C509 C508 1.377 . S
C509 C510 1.379 . S
C510 H494 0.931 . S
C510 C504 1.383 . S
C510 C509 1.379 . S
H511 C505 0.959 . S
H512 C505 0.961 . S
H513 C505 0.960 . S
H514 C506 0.930 . S
H515 C507 0.929 . S
H516 C524 0.929 . S
H517 C526 0.930 . S
H518 C528 0.930 . S
H519 C531 0.929 . S
H520 C534 0.930 . S
H521 C536 0.960 . S
H522 C536 0.960 . S
H523 C536 0.960 1_655 S
C524 H516 0.929 . S
C524 C525 1.423 . S
C524 C526 1.384 . S
C525 C524 1.423 . S
C525 C531 1.357 1_455 S
C526 H517 0.930 . S
C526 C524 1.384 . S
C526 C527 1.372 . S
C527 C526 1.372 . S
C527 C528 1.400 1_455 S
C527 C532 1.490 . S
C528 H518 0.930 . S
C528 C527 1.400 1_655 S
C528 C531 1.386 . S
H529 C545 0.968 . S
H530 C546 0.931 . S
C531 H519 0.929 . S
C531 C525 1.357 1_655 S
C531 C528 1.386 . S
C532 C527 1.490 . S
C532 C534 1.395 . S
C532 C535 1.403 1_554 S
H533 C539 0.930 . S
C534 H520 0.930 . S
C534 C532 1.395 . S
C534 C537 1.403 . S
C535 C532 1.403 1_556 S
C535 C536 1.524 . S
C535 C539 1.400 . S
C536 H521 0.960 . S
C536 H522 0.960 . S
C536 H523 0.960 1_455 S
C536 C535 1.524 . S
C537 C534 1.403 . S
C537 C538 1.392 1_554 S
C537 C541 1.495 . S
C538 C537 1.392 1_556 S
C538 C539 1.385 . S
C538 C540 1.478 . S
C539 H533 0.930 . S
C539 C535 1.400 . S
C539 C538 1.385 . S
C540 C538 1.478 . S
C540 C542 1.381 . S
C540 C546 1.383 1_455 S
C541 C537 1.495 . S
C541 H547 0.959 . S
C541 H548 0.961 . S
C541 H549 0.960 . S
C542 C540 1.381 . S
C542 C543 1.394 . S
C542 H550 0.930 . S
C543 C542 1.394 . S
C543 C544 1.383 . S
C543 H551 0.929 . S
C544 C543 1.383 . S
C544 C545 1.328 1_455 S
C545 H529 0.968 . S
C545 C544 1.328 1_655 S
C545 C546 1.392 . S
C546 H530 0.931 . S
C546 C540 1.383 1_655 S
C546 C545 1.392 . S
H547 C541 0.959 . S
H548 C541 0.961 . S
H549 C541 0.960 . S
H550 C542 0.930 . S
H551 C543 0.929 . S
H552 C560 0.929 . S
H553 C562 0.930 . S
H554 C564 0.930 . S
H555 C567 0.929 . S
H556 C570 0.930 . S
H557 C572 0.960 . S
H558 C572 0.960 1_455 S
H559 C572 0.960 . S
C560 H552 0.929 . S
C560 C561 1.377 . S
C560 C562 1.384 . S
C561 C560 1.377 . S
C561 C567 1.390 . S
C562 H553 0.930 . S
C562 C560 1.384 . S
C562 C563 1.372 . S
C563 C562 1.372 . S
C563 C564 1.400 . S
C563 C568 1.490 . S
C564 H554 0.930 . S
C564 C563 1.400 . S
C564 C567 1.386 . S
H565 C581 0.930 1_655 S
H566 C582 0.931 1_655 S
C567 H555 0.929 . S
C567 C561 1.390 . S
C567 C564 1.386 . S
C568 C563 1.490 . S
C568 C570 1.395 . S
C568 C571 1.403 . S
H569 C575 0.930 . S
C570 H556 0.930 . S
C570 C568 1.395 . S
C570 C573 1.403 . S
C571 C568 1.403 . S
C571 C572 1.524 1_455 S
C571 C575 1.400 . S
C572 H557 0.960 . S
C572 H558 0.960 1_655 S
C572 H559 0.960 . S
C572 C571 1.524 1_655 S
C573 C570 1.403 . S
C573 C574 1.392 . S
C573 C577 1.495 . S
C574 C573 1.392 . S
C574 C575 1.385 . S
C574 C576 1.478 . S
C575 H569 0.930 . S
C575 C571 1.400 . S
C575 C574 1.385 . S
C576 C574 1.478 . S
C576 C578 1.381 . S
C576 C582 1.383 . S
C577 C573 1.495 . S
C577 H583 0.959 . S
C577 H584 0.961 . S
C577 H585 0.960 . S
C578 C576 1.381 . S
C578 C579 1.394 . S
C578 H586 0.930 . S
C579 C578 1.394 . S
C579 C580 1.383 . S
C579 H587 0.929 . S
C580 C579 1.383 . S
C580 C581 1.377 . S
C581 H565 0.930 1_455 S
C581 C580 1.377 . S
C581 C582 1.379 . S
C582 H566 0.931 1_455 S
C582 C576 1.383 . S
C582 C581 1.379 . S
H583 C577 0.959 . S
H584 C577 0.961 . S
H585 C577 0.960 . S
H586 C578 0.930 . S
H587 C579 0.929 . S
H588 C596 0.929 . S
H589 C598 0.930 . S
H590 C600 0.930 . S
H591 C603 0.929 . S
H592 C606 0.930 . S
H593 C608 0.960 . S
H594 C608 0.960 . S
H595 C608 0.960 . S
C596 H588 0.929 . S
C596 C597 1.377 . S
C596 C598 1.384 . S
C597 C596 1.377 . S
C597 C603 1.390 . S
C598 H589 0.930 . S
C598 C596 1.384 . S
C598 C599 1.372 . S
C599 C598 1.372 . S
C599 C600 1.400 . S
C599 C604 1.490 . S
C600 H590 0.930 . S
C600 C599 1.400 . S
C600 C603 1.386 . S
H601 C617 0.930 . S
H602 C618 0.931 . S
C603 H591 0.929 . S
C603 C597 1.390 . S
C603 C600 1.386 . S
C604 C599 1.490 . S
C604 C606 1.395 . S
C604 C607 1.403 . S
H605 C611 0.930 . S
C606 H592 0.930 . S
C606 C604 1.395 . S
C606 C609 1.403 . S
C607 C604 1.403 . S
C607 C608 1.524 . S
C607 C611 1.400 . S
C608 H593 0.960 . S
C608 H594 0.960 . S
C608 H595 0.960 . S
C608 C607 1.524 . S
C609 C606 1.403 . S
C609 C610 1.392 . S
C609 C613 1.495 . S
C610 C609 1.392 . S
C610 C611 1.385 . S
C610 C612 1.478 . S
C611 H605 0.930 . S
C611 C607 1.400 . S
C611 C610 1.385 . S
C612 C610 1.478 . S
C612 C614 1.381 . S
C612 C618 1.383 . S
C613 C609 1.495 . S
C613 H619 0.959 . S
C613 H620 0.961 . S
C613 H621 0.960 . S
C614 C612 1.381 . S
C614 C615 1.394 . S
C614 H622 0.930 . S
C615 C614 1.394 . S
C615 C616 1.383 . S
C615 H623 0.929 . S
C616 C615 1.383 . S
C616 C617 1.377 . S
C617 H601 0.930 . S
C617 C616 1.377 . S
C617 C618 1.379 . S
C618 H602 0.931 . S
C618 C612 1.383 . S
C618 C617 1.379 . S
H619 C613 0.959 . S
H620 C613 0.961 . S
H621 C613 0.960 . S
H622 C614 0.930 . S
H623 C615 0.929 . S
H624 C632 0.929 . S
H625 C634 0.930 . S
H626 C636 0.930 . S
H627 C639 0.929 . S
H628 C642 0.930 . S
H629 C644 0.960 . S
H630 C644 0.960 . S
H631 C644 0.960 . S
C632 H624 0.929 . S
C632 C633 1.377 . S
C632 C634 1.384 . S
C633 C632 1.377 . S
C633 C639 1.390 . S
C634 H625 0.930 . S
C634 C632 1.384 . S
C634 C635 1.372 . S
C635 C634 1.372 . S
C635 C636 1.400 . S
C635 C640 1.490 . S
C636 H626 0.930 . S
C636 C635 1.400 . S
C636 C639 1.386 . S
H637 C653 0.930 . S
H638 C654 0.931 . S
C639 H627 0.929 . S
C639 C633 1.390 . S
C639 C636 1.386 . S
C640 C635 1.490 . S
C640 C642 1.395 . S
C640 C643 1.403 . S
H641 C647 0.930 . S
C642 H628 0.930 . S
C642 C640 1.395 . S
C642 C645 1.403 . S
C643 C640 1.403 . S
C643 C644 1.524 . S
C643 C647 1.400 . S
C644 H629 0.960 . S
C644 H630 0.960 . S
C644 H631 0.960 . S
C644 C643 1.524 . S
C645 C642 1.403 . S
C645 C646 1.392 . S
C645 C649 1.495 . S
C646 C645 1.392 . S
C646 C647 1.385 . S
C646 C648 1.478 . S
C647 H641 0.930 . S
C647 C643 1.400 . S
C647 C646 1.385 . S
C648 C646 1.478 . S
C648 C650 1.381 . S
C648 C654 1.383 . S
C649 C645 1.495 . S
C649 H655 0.959 . S
C649 H656 0.961 . S
C649 H657 0.960 . S
C650 C648 1.381 . S
C650 C651 1.394 . S
C650 H658 0.930 . S
C651 C650 1.394 . S
C651 C652 1.383 . S
C651 H659 0.929 . S
C652 C651 1.383 . S
C652 C653 1.377 . S
C653 H637 0.930 . S
C653 C652 1.377 . S
C653 C654 1.379 . S
C654 H638 0.931 . S
C654 C648 1.383 . S
C654 C653 1.379 . S
H655 C649 0.959 . S
H656 C649 0.961 . S
H657 C649 0.960 . S
H658 C650 0.930 . S
H659 C651 0.929 . S
H660 C668 0.929 . S
H661 C670 0.930 . S
H662 C672 0.930 . S
H663 C675 0.929 . S
H664 C678 0.930 . S
H665 C680 0.960 . S
H666 C680 0.960 . S
H667 C680 0.960 . S
C668 H660 0.929 . S
C668 C669 1.377 . S
C668 C670 1.384 . S
C669 C668 1.377 . S
C669 C675 1.390 . S
C670 H661 0.930 . S
C670 C668 1.384 . S
C670 C671 1.372 . S
C671 C670 1.372 . S
C671 C672 1.400 . S
C671 C676 1.490 . S
C672 H662 0.930 . S
C672 C671 1.400 . S
C672 C675 1.386 . S
H673 C689 0.930 . S
H674 C690 0.931 . S
C675 H663 0.929 . S
C675 C669 1.390 . S
C675 C672 1.386 . S
C676 C671 1.490 . S
C676 C678 1.395 . S
C676 C679 1.403 . S
H677 C683 0.930 . S
C678 H664 0.930 . S
C678 C676 1.395 . S
C678 C681 1.403 . S
C679 C676 1.403 . S
C679 C680 1.524 . S
C679 C683 1.400 . S
C680 H665 0.960 . S
C680 H666 0.960 . S
C680 H667 0.960 . S
C680 C679 1.524 . S
C681 C678 1.403 . S
C681 C682 1.392 . S
C681 C685 1.495 . S
C682 C681 1.392 . S
C682 C683 1.385 . S
C682 C684 1.478 . S
C683 H677 0.930 . S
C683 C679 1.400 . S
C683 C682 1.385 . S
C684 C682 1.478 . S
C684 C686 1.381 . S
C684 C690 1.383 . S
C685 C681 1.495 . S
C685 H691 0.959 . S
C685 H692 0.961 . S
C685 H693 0.960 . S
C686 C684 1.381 . S
C686 C687 1.394 . S
C686 H694 0.930 . S
C687 C686 1.394 . S
C687 C688 1.383 . S
C687 H695 0.929 . S
C688 C687 1.383 . S
C688 C689 1.377 . S
C689 H673 0.930 . S
C689 C688 1.377 . S
C689 C690 1.379 . S
C690 H674 0.931 . S
C690 C684 1.383 . S
C690 C689 1.379 . S
H691 C685 0.959 . S
H692 C685 0.961 . S
H693 C685 0.960 . S
H694 C686 0.930 . S
H695 C687 0.929 . S
H696 C704 0.929 1_556 S
H697 C706 0.930 . S
H698 C708 0.930 . S
H699 C711 0.929 . S
H700 C714 0.930 . S
H701 C716 0.960 . S
H702 C716 0.960 . S
H703 C716 0.960 1_554 S
C704 H696 0.929 1_554 S
C704 C705 1.409 . S
C704 C706 1.384 1_554 S
C705 C704 1.409 . S
C705 C711 1.362 1_655 S
C706 H697 0.930 . S
C706 C704 1.384 1_556 S
C706 C707 1.372 1_656 S
C707 C706 1.372 1_454 S
C707 C708 1.400 . S
C707 C712 1.490 . S
C708 H698 0.930 . S
C708 C707 1.400 . S
C708 C711 1.386 . S
H709 C725 0.930 1_554 S
H710 C726 0.931 . S
C711 H699 0.929 . S
C711 C705 1.362 1_455 S
C711 C708 1.386 . S
C712 C707 1.490 . S
C712 C714 1.395 1_455 S
C712 C715 1.403 1_554 S
H713 C719 0.930 . S
C714 H700 0.930 . S
C714 C712 1.395 1_655 S
C714 C717 1.403 . S
C715 C712 1.403 1_556 S
C715 C716 1.524 . S
C715 C719 1.400 . S
C716 H701 0.960 . S
C716 H702 0.960 . S
C716 H703 0.960 1_556 S
C716 C715 1.524 . S
C717 C714 1.403 . S
C717 C718 1.392 1_654 S
C717 C721 1.495 . S
C718 C717 1.392 1_456 S
C718 C719 1.385 . S
C718 C720 1.478 . S
C719 H713 0.930 . S
C719 C715 1.400 . S
C719 C718 1.385 . S
C720 C718 1.478 . S
C720 C722 1.365 1_455 S
C720 C726 1.383 1_556 S
C721 C717 1.495 . S
C721 H727 0.959 . S
C721 H728 0.961 . S
C721 H729 0.960 1_554 S
C722 C720 1.365 1_655 S
C722 C723 1.394 1_655 S
C722 H730 0.947 . S
C723 C722 1.394 1_455 S
C723 C724 1.383 . S
C723 H731 0.929 1_455 S
C724 C723 1.383 . S
C724 C725 1.377 . S
C725 H709 0.930 1_556 S
C725 C724 1.377 . S
C725 C726 1.379 1_556 S
C726 H710 0.931 . S
C726 C720 1.383 1_554 S
C726 C725 1.379 1_554 S
H727 C721 0.959 . S
H728 C721 0.961 . S
H729 C721 0.960 1_556 S
H730 C722 0.947 . S
H731 C723 0.929 1_655 S
H732 C740 0.929 . S
H733 C742 0.930 1_556 S
H734 C744 0.930 . S
H735 C747 0.929 . S
H736 C750 0.930 . S
H737 C752 0.960 . S
H738 C752 0.960 . S
H739 C752 0.960 . S
C740 H732 0.929 . S
C740 C741 1.377 . S
C740 C742 1.384 . S
C741 C740 1.377 . S
C741 C747 1.390 . S
C742 H733 0.930 1_554 S
C742 C740 1.384 . S
C742 C743 1.372 . S
C743 C742 1.372 . S
C743 C744 1.400 . S
C743 C748 1.490 1_554 S
C744 H734 0.930 . S
C744 C743 1.400 . S
C744 C747 1.386 . S
H745 C761 0.930 . S
H746 C762 0.931 . S
C747 H735 0.929 . S
C747 C741 1.390 . S
C747 C744 1.386 . S
C748 C743 1.490 1_556 S
C748 C750 1.395 . S
C748 C751 1.403 1_556 S
H749 C755 0.930 . S
C750 H736 0.930 . S
C750 C748 1.395 . S
C750 C753 1.403 . S
C751 C748 1.403 1_554 S
C751 C752 1.524 . S
C751 C755 1.400 . S
C752 H737 0.960 . S
C752 H738 0.960 . S
C752 H739 0.960 . S
C752 C751 1.524 . S
C753 C750 1.403 . S
C753 C754 1.392 . S
C753 C757 1.495 . S
C754 C753 1.392 . S
C754 C755 1.385 1_556 S
C754 C756 1.478 . S
C755 H749 0.930 . S
C755 C751 1.400 . S
C755 C754 1.385 1_554 S
C756 C754 1.478 . S
C756 C758 1.381 1_565 S
C756 C762 1.383 . S
C757 C753 1.495 . S
C757 H763 0.959 . S
C757 H764 0.961 . S
C757 H765 0.960 1_565 S
C758 C756 1.381 1_545 S
C758 C759 1.394 . S
C758 H766 0.930 . S
C759 C758 1.394 . S
C759 C760 1.383 . S
C759 H767 0.929 . S
C760 C759 1.383 . S
C760 C761 1.377 1_545 S
C761 H745 0.930 . S
C761 C760 1.377 1_565 S
C761 C762 1.379 . S
C762 H746 0.931 . S
C762 C756 1.383 . S
C762 C761 1.379 . S
H763 C757 0.959 . S
H764 C757 0.961 . S
H765 C757 0.960 1_545 S
H766 C758 0.930 . S
H767 C759 0.929 . S
H768 C776 0.929 . S
H769 C778 0.930 . S
H770 C780 0.930 . S
H771 C783 0.929 . S
H772 C786 0.930 . S
H773 C788 0.960 . S
H774 C788 0.960 . S
H775 C788 0.960 . S
C776 H768 0.929 . S
C776 C777 1.377 . S
C776 C778 1.384 . S
C777 C776 1.377 . S
C777 C783 1.390 . S
C778 H769 0.930 . S
C778 C776 1.384 . S
C778 C779 1.372 . S
C779 C778 1.372 . S
C779 C780 1.400 . S
C779 C784 1.490 . S
C780 H770 0.930 . S
C780 C779 1.400 . S
C780 C783 1.386 . S
H781 C797 0.930 . S
H782 C798 0.931 . S
C783 H771 0.929 . S
C783 C777 1.390 . S
C783 C780 1.386 . S
C784 C779 1.490 . S
C784 C786 1.395 . S
C784 C787 1.403 . S
H785 C791 0.930 . S
C786 H772 0.930 . S
C786 C784 1.395 . S
C786 C789 1.403 . S
C787 C784 1.403 . S
C787 C788 1.524 . S
C787 C791 1.400 . S
C788 H773 0.960 . S
C788 H774 0.960 . S
C788 H775 0.960 . S
C788 C787 1.524 . S
C789 C786 1.403 . S
C789 C790 1.392 . S
C789 C793 1.495 . S
C790 C789 1.392 . S
C790 C791 1.385 . S
C790 C792 1.478 . S
C791 H785 0.930 . S
C791 C787 1.400 . S
C791 C790 1.385 . S
C792 C790 1.478 . S
C792 C794 1.381 . S
C792 C798 1.383 . S
C793 C789 1.495 . S
C793 H799 0.959 . S
C793 H800 0.961 . S
C793 H801 0.960 . S
C794 C792 1.381 . S
C794 C795 1.394 . S
C794 H802 0.930 . S
C795 C794 1.394 . S
C795 C796 1.383 . S
C795 H803 0.929 . S
C796 C795 1.383 . S
C796 C797 1.377 . S
C797 H781 0.930 . S
C797 C796 1.377 . S
C797 C798 1.379 . S
C798 H782 0.931 . S
C798 C792 1.383 . S
C798 C797 1.379 . S
H799 C793 0.959 . S
H800 C793 0.961 . S
H801 C793 0.960 . S
H802 C794 0.930 . S
H803 C795 0.929 . S
H804 C812 0.929 . S
H805 C814 0.930 . S
H806 C816 0.930 . S
H807 C819 0.929 . S
H808 C822 0.922 1_554 S
H809 C824 0.960 . S
H810 C824 0.960 . S
H811 C824 0.960 . S
C812 H804 0.929 . S
C812 C813 1.377 1_554 S
C812 C814 1.384 . S
C813 C812 1.377 1_556 S
C813 C819 1.390 . S
C814 H805 0.930 . S
C814 C812 1.384 . S
C814 C815 1.372 1_554 S
C815 C814 1.372 1_556 S
C815 C816 1.400 . S
C815 C820 1.490 . S
C816 H806 0.930 . S
C816 C815 1.400 . S
C816 C819 1.386 . S
H817 C833 0.930 . S
H818 C834 0.931 . S
C819 H807 0.929 . S
C819 C813 1.390 . S
C819 C816 1.386 . S
C820 C815 1.490 . S
C820 C822 1.395 . S
C820 C823 1.403 . S
H821 C827 0.930 . S
C822 H808 0.922 1_556 S
C822 C820 1.395 . S
C822 C825 1.403 . S
C823 C820 1.403 . S
C823 C824 1.524 . S
C823 C827 1.400 . S
C824 H809 0.960 . S
C824 H810 0.960 . S
C824 H811 0.960 . S
C824 C823 1.524 . S
C825 C822 1.403 . S
C825 C826 1.392 . S
C825 C829 1.495 1_556 S
C826 C825 1.392 . S
C826 C827 1.385 . S
C826 C828 1.478 . S
C827 H821 0.930 . S
C827 C823 1.400 . S
C827 C826 1.385 . S
C828 C826 1.478 . S
C828 C830 1.381 . S
C828 C834 1.383 . S
C829 C825 1.495 1_554 S
C829 H835 0.959 . S
C829 H836 0.961 1_554 S
C829 H837 0.960 . S
C830 C828 1.381 . S
C830 C831 1.394 . S
C830 H838 0.930 1_556 S
C831 C830 1.394 . S
C831 C832 1.383 . S
C831 H839 0.929 1_556 S
C832 C831 1.383 . S
C832 C833 1.377 . S
C833 H817 0.930 . S
C833 C832 1.377 . S
C833 C834 1.379 . S
C834 H818 0.931 . S
C834 C828 1.383 . S
C834 C833 1.379 . S
H835 C829 0.959 . S
H836 C829 0.961 1_556 S
H837 C829 0.960 . S
H838 C830 0.930 1_554 S
H839 C831 0.929 1_554 S
H840 C848 0.929 . S
H841 C850 0.930 . S
H842 C852 0.930 . S
H843 C855 0.929 . S
H844 C858 0.930 . S
H845 C860 0.960 . S
H846 C860 0.960 . S
H847 C860 0.960 . S
C848 H840 0.929 . S
C848 C849 1.377 . S
C848 C850 1.384 . S
C849 C848 1.377 . S
C849 C855 1.390 . S
C850 H841 0.930 . S
C850 C848 1.384 . S
C850 C851 1.372 . S
C851 C850 1.372 . S
C851 C852 1.400 . S
C851 C856 1.490 . S
C852 H842 0.930 . S
C852 C851 1.400 . S
C852 C855 1.386 . S
H853 C869 0.930 . S
H854 C870 0.931 . S
C855 H843 0.929 . S
C855 C849 1.390 . S
C855 C852 1.386 . S
C856 C851 1.490 . S
C856 C858 1.395 . S
C856 C859 1.403 . S
H857 C863 0.930 . S
C858 H844 0.930 . S
C858 C856 1.395 . S
C858 C861 1.403 . S
C859 C856 1.403 . S
C859 C860 1.524 . S
C859 C863 1.400 . S
C860 H845 0.960 . S
C860 H846 0.960 . S
C860 H847 0.960 . S
C860 C859 1.524 . S
C861 C858 1.403 . S
C861 C862 1.392 . S
C861 C865 1.495 . S
C862 C861 1.392 . S
C862 C863 1.385 . S
C862 C864 1.478 . S
C863 H857 0.930 . S
C863 C859 1.400 . S
C863 C862 1.385 . S
C864 C862 1.478 . S
C864 C866 1.381 . S
C864 C870 1.383 . S
C865 C861 1.495 . S
C865 H871 0.959 . S
C865 H872 0.961 . S
C865 H873 0.960 . S
C866 C864 1.381 . S
C866 C867 1.394 . S
C866 H874 0.930 . S
C867 C866 1.394 . S
C867 C868 1.383 . S
C867 H875 0.929 . S
C868 C867 1.383 . S
C868 C869 1.377 . S
C869 H853 0.930 . S
C869 C868 1.377 . S
C869 C870 1.379 . S
C870 H854 0.931 . S
C870 C864 1.383 . S
C870 C869 1.379 . S
H871 C865 0.959 . S
H872 C865 0.961 . S
H873 C865 0.960 . S
H874 C866 0.930 . S
H875 C867 0.929 . S
H876 C884 0.929 . S
H877 C886 0.930 . S
H878 C888 0.930 . S
H879 C891 0.929 . S
H880 C894 0.930 . S
H881 C896 0.960 . S
H882 C896 0.960 . S
H883 C896 0.960 . S
C884 H876 0.929 . S
C884 C885 1.377 . S
C884 C886 1.384 . S
C885 C884 1.377 . S
C885 C891 1.390 . S
C886 H877 0.930 . S
C886 C884 1.384 . S
C886 C887 1.372 . S
C887 C886 1.372 . S
C887 C888 1.400 . S
C887 C892 1.490 . S
C888 H878 0.930 . S
C888 C887 1.400 . S
C888 C891 1.386 . S
H889 C905 0.930 . S
H890 C906 0.931 . S
C891 H879 0.929 . S
C891 C885 1.390 . S
C891 C888 1.386 . S
C892 C887 1.490 . S
C892 C894 1.395 . S
C892 C895 1.403 . S
H893 C899 0.930 . S
C894 H880 0.930 . S
C894 C892 1.395 . S
C894 C897 1.403 . S
C895 C892 1.403 . S
C895 C896 1.524 . S
C895 C899 1.400 . S
C896 H881 0.960 . S
C896 H882 0.960 . S
C896 H883 0.960 . S
C896 C895 1.524 . S
C897 C894 1.403 . S
C897 C898 1.392 . S
C897 C901 1.495 . S
C898 C897 1.392 . S
C898 C899 1.385 . S
C898 C900 1.478 . S
C899 H893 0.930 . S
C899 C895 1.400 . S
C899 C898 1.385 . S
C900 C898 1.478 . S
C900 C902 1.381 . S
C900 C906 1.383 . S
C901 C897 1.495 . S
C901 H907 0.959 . S
C901 H908 0.961 . S
C901 H909 0.960 . S
C902 C900 1.381 . S
C902 C903 1.394 . S
C902 H910 0.930 . S
C903 C902 1.394 . S
C903 C904 1.383 . S
C903 H911 0.929 . S
C904 C903 1.383 . S
C904 C905 1.377 . S
C905 H889 0.930 . S
C905 C904 1.377 . S
C905 C906 1.379 . S
C906 H890 0.931 . S
C906 C900 1.383 . S
C906 C905 1.379 . S
H907 C901 0.959 . S
H908 C901 0.961 . S
H909 C901 0.960 . S
H910 C902 0.930 . S
H911 C903 0.929 . S
H912 C920 0.929 . S
H913 C922 0.930 . S
H914 C924 0.930 . S
H915 C927 0.929 . S
H916 C930 0.930 . S
H917 C932 0.960 . S
H918 C932 0.960 . S
H919 C932 0.960 . S
C920 H912 0.929 . S
C920 C921 1.377 . S
C920 C922 1.384 . S
C921 C920 1.377 . S
C921 C927 1.390 . S
C922 H913 0.930 . S
C922 C920 1.384 . S
C922 C923 1.372 . S
C923 C922 1.372 . S
C923 C924 1.400 . S
C923 C928 1.490 . S
C924 H914 0.930 . S
C924 C923 1.400 . S
C924 C927 1.386 . S
H925 C941 0.930 . S
H926 C942 0.931 . S
C927 H915 0.929 . S
C927 C921 1.390 . S
C927 C924 1.386 . S
C928 C923 1.490 . S
C928 C930 1.395 . S
C928 C931 1.403 . S
H929 C935 0.930 . S
C930 H916 0.930 . S
C930 C928 1.395 . S
C930 C933 1.403 . S
C931 C928 1.403 . S
C931 C932 1.524 . S
C931 C935 1.400 . S
C932 H917 0.960 . S
C932 H918 0.960 . S
C932 H919 0.960 . S
C932 C931 1.524 . S
C933 C930 1.403 . S
C933 C934 1.392 . S
C933 C937 1.495 1_554 S
C934 C933 1.392 . S
C934 C935 1.385 . S
C934 C936 1.478 . S
C935 H929 0.930 . S
C935 C931 1.400 . S
C935 C934 1.385 . S
C936 C934 1.478 . S
C936 C938 1.381 1_554 S
C936 C942 1.383 . S
C937 C933 1.495 1_556 S
C937 H943 0.959 . S
C937 H944 0.961 . S
C937 H945 0.960 . S
C938 C936 1.381 1_556 S
C938 C939 1.394 . S
C938 H946 0.930 . S
C939 C938 1.394 . S
C939 C940 1.383 . S
C939 H947 0.929 . S
C940 C939 1.383 . S
C940 C941 1.377 1_556 S
C941 H925 0.930 . S
C941 C940 1.377 1_554 S
C941 C942 1.379 . S
C942 H926 0.931 . S
C942 C936 1.383 . S
C942 C941 1.379 . S
H943 C937 0.959 . S
H944 C937 0.961 . S
H945 C937 0.960 . S
H946 C938 0.930 . S
H947 C939 0.929 . S
H948 C956 0.929 . S
H949 C958 0.930 . S
H950 C960 0.930 . S
H951 C963 0.929 . S
H952 C966 0.930 . S
H953 C968 0.960 . S
H954 C968 0.960 . S
H955 C968 0.960 . S
C956 H948 0.929 . S
C956 C957 1.377 . S
C956 C958 1.384 . S
C957 C956 1.377 . S
C957 C963 1.390 . S
C958 H949 0.930 . S
C958 C956 1.384 . S
C958 C959 1.372 . S
C959 C958 1.372 . S
C959 C960 1.400 . S
C959 C964 1.490 . S
C960 H950 0.930 . S
C960 C959 1.400 . S
C960 C963 1.386 . S
H961 C977 0.930 . S
H962 C978 0.931 . S
C963 H951 0.929 . S
C963 C957 1.390 . S
C963 C960 1.386 . S
C964 C959 1.490 . S
C964 C966 1.395 . S
C964 C967 1.403 . S
H965 C971 0.930 . S
C966 H952 0.930 . S
C966 C964 1.395 . S
C966 C969 1.403 . S
C967 C964 1.403 . S
C967 C968 1.524 . S
C967 C971 1.400 . S
C968 H953 0.960 . S
C968 H954 0.960 . S
C968 H955 0.960 . S
C968 C967 1.524 . S
C969 C966 1.403 . S
C969 C970 1.392 . S
C969 C973 1.495 . S
C970 C969 1.392 . S
C970 C971 1.385 . S
C970 C972 1.478 . S
C971 H965 0.930 . S
C971 C967 1.400 . S
C971 C970 1.385 . S
C972 C970 1.478 . S
C972 C974 1.381 . S
C972 C978 1.383 . S
C973 C969 1.495 . S
C973 H979 0.959 . S
C973 H980 0.961 . S
C973 H981 0.960 . S
C974 C972 1.381 . S
C974 C975 1.394 . S
C974 H982 0.930 . S
C975 C974 1.394 . S
C975 C976 1.383 . S
C975 H983 0.929 . S
C976 C975 1.383 . S
C976 C977 1.377 . S
C977 H961 0.930 . S
C977 C976 1.377 . S
C977 C978 1.379 . S
C978 H962 0.931 . S
C978 C972 1.383 . S
C978 C977 1.379 . S
H979 C973 0.959 . S
H980 C973 0.961 . S
H981 C973 0.960 . S
H982 C974 0.930 . S
H983 C975 0.929 . S
H984 C992 0.929 . S
H985 C994 0.930 . S
H986 C996 0.930 . S
H987 C999 0.929 . S
H988 C1002 0.930 . S
H989 C1004 0.960 . S
H990 C1004 0.960 . S
H991 C1004 0.960 . S
C992 H984 0.929 . S
C992 C993 1.391 . S
C992 C994 1.384 . S
C993 C992 1.391 . S
C993 C999 1.379 1_655 S
C994 H985 0.930 . S
C994 C992 1.384 . S
C994 C995 1.380 . S
C995 C994 1.380 . S
C995 C996 1.389 1_655 S
C995 C1000 1.486 . S
C996 H986 0.930 . S
C996 C995 1.389 1_455 S
C996 C999 1.386 . S
H997 C1013 0.930 . S
H998 C1014 0.931 . S
C999 H987 0.929 . S
C999 C993 1.379 1_455 S
C999 C996 1.386 . S
C1000 C995 1.486 . S
C1000 C1002 1.444 . S
C1000 C1003 1.362 1_655 S
H1001 C1007 0.930 . S
C1002 H988 0.930 . S
C1002 C1000 1.444 . S
C1002 C1005 1.403 . S
C1003 C1000 1.362 1_455 S
C1003 C1004 1.524 . S
C1003 C1007 1.400 . S
C1004 H989 0.960 . S
C1004 H990 0.960 . S
C1004 H991 0.960 . S
C1004 C1003 1.524 . S
C1005 C1002 1.403 . S
C1005 C1006 1.392 . S
C1005 C1009 1.495 . S
C1006 C1005 1.392 . S
C1006 C1007 1.385 1_655 S
C1006 C1008 1.478 . S
C1007 H1001 0.930 . S
C1007 C1003 1.400 . S
C1007 C1006 1.385 1_455 S
C1008 C1006 1.478 . S
C1008 C1010 1.381 . S
C1008 C1014 1.383 1_655 S
C1009 C1005 1.495 . S
C1009 H1015 0.959 . S
C1009 H1016 0.961 . S
C1009 H1017 0.960 . S
C1010 C1008 1.381 . S
C1010 C1011 1.394 . S
C1010 H1018 0.930 . S
C1011 C1010 1.394 . S
C1011 C1012 1.384 . S
C1011 H1019 0.929 . S
C1012 C1011 1.384 . S
C1012 C1013 1.376 1_655 S
C1013 H997 0.930 . S
C1013 C1012 1.376 1_455 S
C1013 C1014 1.379 . S
C1014 H998 0.931 . S
C1014 C1008 1.383 1_455 S
C1014 C1013 1.379 . S
H1015 C1009 0.959 . S
H1016 C1009 0.961 . S
H1017 C1009 0.960 . S
H1018 C1010 0.930 . S
H1019 C1011 0.929 . S
H1020 C1028 0.929 . S
H1021 C1030 0.930 . S
H1022 C1032 0.930 . S
H1023 C1035 0.929 . S
H1024 C1038 0.930 . S
H1025 C1040 0.960 . S
H1026 C1040 0.960 . S
H1027 C1040 0.960 . S
C1028 H1020 0.929 . S
C1028 C1029 1.377 . S
C1028 C1030 1.384 . S
C1029 C1028 1.377 . S
C1029 C1035 1.390 . S
C1030 H1021 0.930 . S
C1030 C1028 1.384 . S
C1030 C1031 1.372 . S
C1031 C1030 1.372 . S
C1031 C1032 1.400 . S
C1031 C1036 1.490 . S
C1032 H1022 0.930 . S
C1032 C1031 1.400 . S
C1032 C1035 1.386 . S
H1033 C1049 0.930 . S
H1034 C1050 0.931 . S
C1035 H1023 0.929 . S
C1035 C1029 1.390 . S
C1035 C1032 1.386 . S
C1036 C1031 1.490 . S
C1036 C1038 1.395 . S
C1036 C1039 1.403 . S
H1037 C1043 0.930 . S
C1038 H1024 0.930 . S
C1038 C1036 1.395 . S
C1038 C1041 1.403 . S
C1039 C1036 1.403 . S
C1039 C1040 1.524 . S
C1039 C1043 1.400 . S
C1040 H1025 0.960 . S
C1040 H1026 0.960 . S
C1040 H1027 0.960 . S
C1040 C1039 1.524 . S
C1041 C1038 1.403 . S
C1041 C1042 1.392 . S
C1041 C1045 1.495 . S
C1042 C1041 1.392 . S
C1042 C1043 1.385 . S
C1042 C1044 1.478 . S
C1043 H1037 0.930 . S
C1043 C1039 1.400 . S
C1043 C1042 1.385 . S
C1044 C1042 1.478 . S
C1044 C1046 1.381 . S
C1044 C1050 1.383 . S
C1045 C1041 1.495 . S
C1045 H1051 0.959 . S
C1045 H1052 0.961 . S
C1045 H1053 0.960 . S
C1046 C1044 1.381 . S
C1046 C1047 1.394 . S
C1046 H1054 0.930 . S
C1047 C1046 1.394 . S
C1047 C1048 1.383 . S
C1047 H1055 0.929 . S
C1048 C1047 1.383 . S
C1048 C1049 1.377 . S
C1049 H1033 0.930 . S
C1049 C1048 1.377 . S
C1049 C1050 1.379 . S
C1050 H1034 0.931 . S
C1050 C1044 1.383 . S
C1050 C1049 1.379 . S
H1051 C1045 0.959 . S
H1052 C1045 0.961 . S
H1053 C1045 0.960 . S
H1054 C1046 0.930 . S
H1055 C1047 0.929 . S
H1056 C1064 0.929 . S
H1057 C1066 0.930 . S
H1058 C1068 0.930 . S
H1059 C1071 0.929 . S
H1060 C1074 0.930 . S
H1061 C1076 0.960 . S
H1062 C1076 0.960 . S
H1063 C1076 0.960 . S
C1064 H1056 0.929 . S
C1064 C1065 1.377 . S
C1064 C1066 1.384 . S
C1065 C1064 1.377 . S
C1065 C1071 1.390 . S
C1066 H1057 0.930 . S
C1066 C1064 1.384 . S
C1066 C1067 1.372 . S
C1067 C1066 1.372 . S
C1067 C1068 1.400 . S
C1067 C1072 1.490 . S
C1068 H1058 0.930 . S
C1068 C1067 1.400 . S
C1068 C1071 1.386 . S
H1069 C1085 0.930 . S
H1070 C1086 0.931 . S
C1071 H1059 0.929 . S
C1071 C1065 1.390 . S
C1071 C1068 1.386 . S
C1072 C1067 1.490 . S
C1072 C1074 1.395 . S
C1072 C1075 1.403 . S
H1073 C1079 0.930 . S
C1074 H1060 0.930 . S
C1074 C1072 1.395 . S
C1074 C1077 1.403 . S
C1075 C1072 1.403 . S
C1075 C1076 1.524 . S
C1075 C1079 1.400 . S
C1076 H1061 0.960 . S
C1076 H1062 0.960 . S
C1076 H1063 0.960 . S
C1076 C1075 1.524 . S
C1077 C1074 1.403 . S
C1077 C1078 1.392 . S
C1077 C1081 1.495 . S
C1078 C1077 1.392 . S
C1078 C1079 1.385 . S
C1078 C1080 1.478 . S
C1079 H1073 0.930 . S
C1079 C1075 1.400 . S
C1079 C1078 1.385 . S
C1080 C1078 1.478 . S
C1080 C1082 1.381 . S
C1080 C1086 1.383 . S
C1081 C1077 1.495 . S
C1081 H1087 0.959 . S
C1081 H1088 0.961 . S
C1081 H1089 0.960 . S
C1082 C1080 1.381 . S
C1082 C1083 1.394 . S
C1082 H1090 0.930 . S
C1083 C1082 1.394 . S
C1083 C1084 1.383 . S
C1083 H1091 0.929 . S
C1084 C1083 1.383 . S
C1084 C1085 1.377 . S
C1085 H1069 0.930 . S
C1085 C1084 1.377 . S
C1085 C1086 1.379 . S
C1086 H1070 0.931 . S
C1086 C1080 1.383 . S
C1086 C1085 1.379 . S
H1087 C1081 0.959 . S
H1088 C1081 0.961 . S
H1089 C1081 0.960 . S
H1090 C1082 0.930 . S
H1091 C1083 0.929 . S
H1092 C1100 0.929 . S
H1093 C1102 0.930 . S
H1094 C1104 0.930 . S
H1095 C1107 0.929 . S
H1096 C1110 0.930 . S
H1097 C1112 0.960 . S
H1098 C1112 0.960 . S
H1099 C1112 0.960 . S
C1100 H1092 0.929 . S
C1100 C1101 1.377 . S
C1100 C1102 1.384 . S
C1101 C1100 1.377 . S
C1101 C1107 1.390 . S
C1102 H1093 0.930 . S
C1102 C1100 1.384 . S
C1102 C1103 1.372 . S
C1103 C1102 1.372 . S
C1103 C1104 1.400 . S
C1103 C1108 1.490 . S
C1104 H1094 0.930 . S
C1104 C1103 1.400 . S
C1104 C1107 1.386 . S
H1105 C1121 0.930 . S
H1106 C1122 0.931 . S
C1107 H1095 0.929 . S
C1107 C1101 1.390 . S
C1107 C1104 1.386 . S
C1108 C1103 1.490 . S
C1108 C1110 1.395 . S
C1108 C1111 1.403 . S
H1109 C1115 0.930 . S
C1110 H1096 0.930 . S
C1110 C1108 1.395 . S
C1110 C1113 1.403 . S
C1111 C1108 1.403 . S
C1111 C1112 1.524 . S
C1111 C1115 1.400 . S
C1112 H1097 0.960 . S
C1112 H1098 0.960 . S
C1112 H1099 0.960 . S
C1112 C1111 1.524 . S
C1113 C1110 1.403 . S
C1113 C1114 1.392 . S
C1113 C1117 1.495 . S
C1114 C1113 1.392 . S
C1114 C1115 1.385 . S
C1114 C1116 1.478 . S
C1115 H1109 0.930 . S
C1115 C1111 1.400 . S
C1115 C1114 1.385 . S
C1116 C1114 1.478 . S
C1116 C1118 1.381 . S
C1116 C1122 1.383 . S
C1117 C1113 1.495 . S
C1117 H1123 0.959 . S
C1117 H1124 0.961 . S
C1117 H1125 0.960 . S
C1118 C1116 1.381 . S
C1118 C1119 1.394 . S
C1118 H1126 0.930 . S
C1119 C1118 1.394 . S
C1119 C1120 1.383 . S
C1119 H1127 0.929 . S
C1120 C1119 1.383 . S
C1120 C1121 1.377 . S
C1121 H1105 0.930 . S
C1121 C1120 1.377 . S
C1121 C1122 1.379 . S
C1122 H1106 0.931 . S
C1122 C1116 1.383 . S
C1122 C1121 1.379 . S
H1123 C1117 0.959 . S
H1124 C1117 0.961 . S
H1125 C1117 0.960 . S
H1126 C1118 0.930 . S
H1127 C1119 0.929 . S
C273 N80 1.658 . S
C292 C113 1.647 . S
C328 C153 1.295 . S
C309 N93 1.336 . S
C364 C202 1.230 . S
C345 N54 1.309 . S
C400 C233 1.578 . S
C381 N67 1.684 . S
C436 C122 1.604 1_565 S
C417 N28 1.674 . S
C453 N41 1.329 . S
C472 C162 1.246 . S
C489 N2 1.312 . S
C508 C193 1.246 . S
C525 N15 1.676 1_455 S
C544 C242 1.567 . S
C580 C123 0.684 . S
C561 N70 0.669 . S
C616 C163 1.190 . S
C597 N83 1.163 . S
C652 C199 0.583 . S
C633 N96 0.560 . S
C669 N57 0.826 . S
C688 C243 0.833 . S
C705 N18 0.673 . S
C724 C114 0.680 . S
C760 C154 1.191 . S
C741 N31 1.154 . S
C796 C190 0.543 . S
C777 N44 0.560 . S
C813 N5 0.822 . S
C832 C234 0.830 . S
C849 N66 1.651 . S
C868 C119 1.642 . S
C885 N79 1.399 . S
C904 C159 1.398 . S
C940 C203 1.851 . S
C921 N92 1.819 . S
C976 C239 1.423 . S
C957 N53 1.425 . S
C993 N14 1.650 . S
C1012 C110 1.654 1_655 S
C1048 C150 1.396 . S
C1029 N27 1.408 . S
C1084 C194 1.853 . S
C1065 N40 1.807 . S
C1101 N1 1.427 . S
C1120 C230 1.411 . S
