# Generated by pormake.
# Topology zzz, (3,6)-cn, num edge types: 1
# Building blocks:
#     Node 0, Type 0, BuildingBlock: BETDIP_clean_linker_0, # of connection points: 3
#     Node 1, Type 0, BuildingBlock: BETDIP_clean_linker_0, # of connection points: 3
#     Node 2, Type 0, BuildingBlock: BETDIP_clean_linker_0, # of connection points: 3
#     Node 3, Type 0, BuildingBlock: BETDIP_clean_linker_0, # of connection points: 3
#     Node 4, Type 0, BuildingBlock: BETDIP_clean_linker_0, # of connection points: 3
#     Node 5, Type 0, BuildingBlock: BETDIP_clean_linker_0, # of connection points: 3
#     Node 6, Type 0, BuildingBlock: BETDIP_clean_linker_0, # of connection points: 3
#     Node 7, Type 0, BuildingBlock: BETDIP_clean_linker_0, # of connection points: 3
#     Node 8, Type 1, BuildingBlock: VOLQOD_clean_sbu_1, # of connection points: 6
#     Node 9, Type 1, BuildingBlock: VOLQOD_clean_sbu_1, # of connection points: 6
#     Node 10, Type 1, BuildingBlock: VOLQOD_clean_sbu_1, # of connection points: 6
#     Node 11, Type 1, BuildingBlock: VOLQOD_clean_sbu_1, # of connection points: 6
#     Edge 12, Type (0, 1), BuildingBlock: EZIPEK_clean_linker_0, # of connection points: 2
#     Edge 13, Type (0, 1), BuildingBlock: EZIPEK_clean_linker_0, # of connection points: 2
#     Edge 14, Type (0, 1), BuildingBlock: EZIPEK_clean_linker_0, # of connection points: 2
#     Edge 15, Type (0, 1), BuildingBlock: EZIPEK_clean_linker_0, # of connection points: 2
#     Edge 16, Type (0, 1), BuildingBlock: EZIPEK_clean_linker_0, # of connection points: 2
#     Edge 17, Type (0, 1), BuildingBlock: EZIPEK_clean_linker_0, # of connection points: 2
#     Edge 18, Type (0, 1), BuildingBlock: EZIPEK_clean_linker_0, # of connection points: 2
#     Edge 19, Type (0, 1), BuildingBlock: EZIPEK_clean_linker_0, # of connection points: 2
#     Edge 20, Type (0, 1), BuildingBlock: EZIPEK_clean_linker_0, # of connection points: 2
#     Edge 21, Type (0, 1), BuildingBlock: EZIPEK_clean_linker_0, # of connection points: 2
#     Edge 22, Type (0, 1), BuildingBlock: EZIPEK_clean_linker_0, # of connection points: 2
#     Edge 23, Type (0, 1), BuildingBlock: EZIPEK_clean_linker_0, # of connection points: 2
#     Edge 24, Type (0, 1), BuildingBlock: EZIPEK_clean_linker_0, # of connection points: 2
#     Edge 25, Type (0, 1), BuildingBlock: EZIPEK_clean_linker_0, # of connection points: 2
#     Edge 26, Type (0, 1), BuildingBlock: EZIPEK_clean_linker_0, # of connection points: 2
#     Edge 27, Type (0, 1), BuildingBlock: EZIPEK_clean_linker_0, # of connection points: 2
#     Edge 28, Type (0, 1), BuildingBlock: EZIPEK_clean_linker_0, # of connection points: 2
#     Edge 29, Type (0, 1), BuildingBlock: EZIPEK_clean_linker_0, # of connection points: 2
#     Edge 30, Type (0, 1), BuildingBlock: EZIPEK_clean_linker_0, # of connection points: 2
#     Edge 31, Type (0, 1), BuildingBlock: EZIPEK_clean_linker_0, # of connection points: 2
#     Edge 32, Type (0, 1), BuildingBlock: EZIPEK_clean_linker_0, # of connection points: 2
#     Edge 33, Type (0, 1), BuildingBlock: EZIPEK_clean_linker_0, # of connection points: 2
#     Edge 34, Type (0, 1), BuildingBlock: EZIPEK_clean_linker_0, # of connection points: 2
#     Edge 35, Type (0, 1), BuildingBlock: EZIPEK_clean_linker_0, # of connection points: 2
# Relax obj value: 0.187
# Max RMSD: 0.232
# Mean RMSD: 0.111
data_MOF--net-zzz--node1-VOLQOD_clean_sbu_1--node2-BETDIP_clean_linker_0--edge1-EZIPEK_clean_linker_0
_symmetry_space_group_name_H-M    P1
_symmetry_Int_Tables_number       1
_symmetry_cell_setting            triclinic
loop_
_symmetry_equiv_pos_as_xyz
'x, y, z'
_cell_length_a     37.692333
_cell_length_b     37.472212
_cell_length_c     13.14102
_cell_angle_alpha  89.678249
_cell_angle_beta   90.037702
_cell_angle_gamma 90.971712
loop_
_atom_site_label
_atom_site_type_symbol
_atom_site_fract_x
_atom_site_fract_y
_atom_site_fract_z
_atom_type_partial_charge
H0 H 0.7818 0.54637 0.27 0.0
H1 H 0.80406 0.48818 -0.00545 0.0
H2 H 0.88805 0.51403 0.20097 0.0
H3 H 0.76051 0.52353 0.93646 0.0
C4 C 0.74077 0.52064 -0.00373 0.0
C5 C 0.80008 0.53226 0.22169 0.0
C6 C 0.83622 0.53068 0.24824 0.0
C7 C 0.78798 0.51702 0.12984 0.0
C8 C 0.81239 0.49969 0.06619 0.0
C9 C 0.84852 0.49962 0.09103 0.0
C10 C 0.85991 0.51388 0.18306 0.0
N11 N 0.7519 0.52121 0.09996 0.0
H12 H 0.01529 0.75684 0.28588 0.0
H13 H 0.05984 0.80273 0.01208 0.0
H14 H 0.05078 0.86641 0.28018 0.0
H15 H 0.08321 0.74451 -0.00128 0.0
C16 C 0.05885 0.72983 0.01624 0.0
C17 C 0.02834 0.77891 0.24665 0.0
C18 C 0.03143 0.81234 0.2939 0.0
C19 C 0.04104 0.77451 0.1469 0.0
C20 C 0.05395 0.80465 0.09248 0.0
C21 C 0.05687 0.83801 0.14034 0.0
C22 C 0.04871 0.84055 0.24347 0.0
N23 N 0.03766 0.74047 0.09997 0.0
H24 H 0.76551 1.00344 0.27796 0.0
H25 H 0.72425 0.03692 -0.01336 0.0
H26 H 0.65715 0.03569 0.24904 0.0
H27 H 0.76687 0.99849 0.93542 0.0
C28 C 0.78944 1.00549 -0.01686 0.0
C29 C 0.74436 0.01457 0.2325 0.0
C30 C 0.71053 0.0187 0.27504 0.0
C31 C 0.74994 0.02189 0.12852 0.0
C32 C 0.72116 0.03299 0.06782 0.0
C33 C 0.68764 0.03768 0.11168 0.0
C34 C 0.68344 0.03314 0.21625 0.0
N35 N 0.784 0.01589 0.08588 0.0
H36 H 0.5194 0.76036 0.28569 0.0
H37 H 0.47336 0.70947 0.02256 0.0
H38 H 0.4751 0.65418 0.30828 0.0
H39 H 0.46043 0.76573 0.97377 0.0
C40 C 0.48305 0.78128 0.00075 0.0
C41 C 0.50481 0.73826 0.25188 0.0
C42 C 0.49898 0.70669 0.30792 0.0
C43 C 0.49333 0.74051 0.15018 0.0
C44 C 0.47846 0.70982 0.10358 0.0
C45 C 0.47225 0.67849 0.16058 0.0
C46 C 0.47958 0.67853 0.26458 0.0
N47 N 0.49978 0.77272 0.09462 0.0
H48 H 0.27293 0.50435 0.03231 0.0
H49 H 0.22913 0.55211 0.30085 0.0
H50 H 0.16839 0.54836 0.02557 0.0
H51 H 0.28783 0.57108 0.32317 0.0
C52 C 0.30103 0.54632 0.30549 0.0
C53 C 0.25206 0.51905 0.06905 0.0
C54 C 0.21978 0.52458 0.01815 0.0
C55 C 0.25671 0.53146 0.16924 0.0
C56 C 0.22758 0.54646 0.22025 0.0
C57 C 0.19548 0.55205 0.16864 0.0
C58 C 0.19329 0.54419 0.06523 0.0
N59 N 0.28967 0.52604 0.21974 0.0
H60 H 0.05273 0.25379 0.02488 0.0
H61 H 0.99907 0.22931 0.3075 0.0
H62 H 0.01546 0.14691 0.08993 0.0
H63 H 0.97868 0.28822 0.28113 0.0
C64 C 1.00491 0.29959 0.26665 0.0
C65 C 0.03837 0.23513 0.07351 0.0
C66 C 0.035 0.19901 0.0455 0.0
C67 C 0.02352 0.24686 0.1657 0.0
C68 C 1.00744 0.22165 0.23201 0.0
C69 C 1.00483 0.18569 0.20435 0.0
C70 C 0.01697 0.17502 0.10961 0.0
N71 N 0.02762 0.28327 0.1947 0.0
H72 H 0.25982 0.02366 0.00131 0.0
H73 H 0.29415 0.98559 0.29597 0.0
H74 H 0.37098 0.01638 0.07168 0.0
H75 H 0.23837 0.95468 0.27686 0.0
C76 C 0.22422 0.97925 0.26289 0.0
C77 C 0.28079 0.01796 0.05511 0.0
C78 C 0.31651 0.0213 0.0251 0.0
C79 C 0.27232 1.00529 0.1535 0.0
C80 C 0.29993 0.9956 0.22022 0.0
C81 C 0.33541 1.00012 0.19055 0.0
C82 C 0.34337 0.01391 0.09485 0.0
N83 N 0.23622 1.00304 0.18495 0.0
H84 H 0.48707 0.26617 0.06744 0.0
H85 H 0.53565 0.29517 0.35374 0.0
H86 H 0.52087 0.37457 0.12343 0.0
H87 H 0.4888 0.2523 0.40043 0.0
C88 C 0.50009 0.23198 0.35206 0.0
C89 C 0.50032 0.28569 0.11537 0.0
C90 C 0.50335 0.32152 0.08316 0.0
C91 C 0.51243 0.27576 0.21292 0.0
C92 C 0.52759 0.30193 0.27697 0.0
C93 C 0.53048 0.33744 0.24424 0.0
C94 C 0.51972 0.34669 0.14654 0.0
N95 N 0.50753 0.24003 0.24814 0.0
O96 O 0.10209 1.00538 0.60415 0.0
Zn97 Zn 0.06554 0.01357 0.71472 0.0
O98 O 0.01686 1.00466 0.66304 0.0
Zn99 Zn 0.98814 0.0459 0.68998 0.0
Zn100 Zn 0.01808 0.99445 0.51779 0.0
Zn101 Zn 0.99352 0.9649 0.7306 0.0
O102 O 0.94177 0.0345 0.76005 0.0
O103 O 0.94513 0.97613 0.78702 0.0
O104 O 0.07132 0.06508 0.76283 0.0
O105 O 0.01516 0.08177 0.77212 0.0
O106 O 0.97939 0.07133 0.56006 0.0
O107 O 0.99574 0.03434 0.43736 0.0
O108 O 1.00091 0.94397 0.48707 0.0
O109 O 0.07573 0.97984 0.83368 0.0
O110 O 0.99016 0.92207 0.6418 0.0
O111 O 0.02425 0.94986 0.84248 0.0
C112 C 0.09872 0.99837 0.50978 0.0
C113 C 0.92854 1.00533 0.79401 0.0
C114 C 0.98352 0.06412 0.46656 0.0
C115 C 0.04803 0.08769 0.78803 0.0
C116 C 0.99359 0.91786 0.54659 0.0
C117 C 0.05558 0.95605 0.87424 0.0
O118 O 0.06841 0.99431 0.46865 0.0
O119 O 0.50372 0.08714 0.63204 0.0
Zn120 Zn 0.50279 0.04274 0.72181 0.0
O121 O 0.51393 1.00005 0.64043 0.0
Zn122 Zn 0.47357 0.96761 0.63911 0.0
Zn123 Zn 0.52571 0.01364 0.50165 0.0
Zn124 Zn 0.55282 0.97352 0.69858 0.0
O125 O 0.48098 0.92299 0.72213 0.0
O126 O 0.53825 0.92603 0.76116 0.0
O127 O 0.45299 0.03779 0.78357 0.0
O128 O 0.43182 0.99128 0.69789 0.0
O129 O 0.45725 0.95578 0.5006 0.0
O130 O 0.48832 0.99432 0.40576 0.0
O131 O 0.5766 1.00121 0.46949 0.0
O132 O 0.53999 0.05046 0.83246 0.0
O133 O 0.59398 0.96931 0.6036 0.0
O134 O 0.57273 1.00228 0.80919 0.0
C135 C 0.51193 0.09214 0.53883 0.0
C136 C 0.50816 0.91017 0.76558 0.0
C137 C 0.46244 0.97235 0.41742 0.0
C138 C 0.42731 0.01684 0.7591 0.0
C139 C 0.6001 0.98365 0.51738 0.0
C140 C 0.56665 0.03137 0.85427 0.0
O141 O 0.52151 0.06658 0.48245 0.0
O142 O 0.42527 0.51231 0.63594 0.0
Zn143 Zn 0.4623 0.50457 0.74632 0.0
O144 O 0.51053 0.51738 0.69709 0.0
Zn145 Zn 0.54201 0.47806 0.72392 0.0
Zn146 Zn 0.50885 0.52826 0.5521 0.0
Zn147 Zn 0.53092 0.55815 0.76651 0.0
O148 O 0.58772 0.49221 0.79398 0.0
O149 O 0.57929 0.5494 0.82784 0.0
O150 O 0.46007 0.45232 0.79203 0.0
O151 O 0.51738 0.44036 0.80676 0.0
O152 O 0.55209 0.45342 0.59419 0.0
O153 O 0.53159 0.48899 0.47214 0.0
O154 O 0.52638 0.5786 0.52133 0.0
O155 O 0.44954 0.53622 0.86659 0.0
O156 O 0.53382 0.6012 0.67623 0.0
O157 O 0.49824 0.57071 0.87597 0.0
C158 C 0.42823 0.52196 0.54309 0.0
C159 C 0.59831 0.52168 0.83199 0.0
C160 C 0.54628 0.46024 0.50095 0.0
C161 C 0.4849 0.4317 0.81989 0.0
C162 C 0.53207 0.60503 0.58028 0.0
C163 C 0.46754 0.5615 0.90731 0.0
O164 O 0.45836 0.52851 0.50307 0.0
O165 O 0.96967 0.57112 0.53282 0.0
Zn166 Zn 0.02062 0.56583 0.5827 0.0
O167 O 0.02873 0.51685 0.63516 0.0
Zn168 Zn 0.03869 0.51846 0.781 0.0
Zn169 Zn 0.98718 0.48726 0.60754 0.0
Zn170 Zn 0.06805 0.49399 0.56832 0.0
O171 O 0.08812 0.50076 0.81321 0.0
O172 O 0.10984 0.48815 0.66046 0.0
O173 O 0.02913 0.60263 0.69258 0.0
O174 O 0.04027 0.56942 0.82929 0.0
O175 O 0.99839 0.49513 0.86032 0.0
O176 O 0.96218 0.47628 0.73716 0.0
O177 O 0.99732 0.44245 0.52936 0.0
O178 O 0.0546 0.57721 0.46548 0.0
O179 O 0.05519 0.44717 0.49995 0.0
O180 O 0.08495 0.52671 0.46168 0.0
C181 C 0.9464 0.54743 0.5099 0.0
C182 C 0.11377 0.49191 0.75583 0.0
C183 C 0.96908 0.4811 0.83076 0.0
C184 C 0.03644 0.59972 0.78688 0.0
C185 C 0.02566 0.43051 0.49068 0.0
C186 C 0.07893 0.55792 0.42856 0.0
O187 O 0.95146 0.51455 0.52837 0.0
C188 C 0.16447 0.95837 0.32437 0.0
C189 C 0.19108 0.98557 0.32079 0.0
C190 C 0.15525 0.02278 0.43281 0.0
C191 C 0.13071 0.99397 0.44565 0.0
N192 N 0.1148 0.93212 0.41664 0.0
N193 N 0.21503 0.04104 0.38665 0.0
C194 C 0.13601 0.96114 0.39469 0.0
C195 C 0.18733 0.01719 0.37867 0.0
N196 N 0.16581 0.93035 0.25832 0.0
N197 N 0.14742 0.05582 0.46928 0.0
H198 H 0.23935 0.03764 0.35063 0.0
H199 H 0.21508 0.06249 0.43674 0.0
H200 H 0.12406 0.06112 0.5085 0.0
H201 H 0.16249 0.07865 0.45243 0.0
H202 H 0.14518 0.91177 0.24953 0.0
H203 H 0.18609 0.92758 0.20508 0.0
H204 H 0.11966 0.90657 0.38975 0.0
H205 H 0.09418 0.93273 0.46945 0.0
C206 C 0.47218 0.17699 0.42835 0.0
C207 C 0.50319 0.19527 0.39394 0.0
C208 C 0.53995 0.14562 0.45222 0.0
C209 C 0.50913 0.12829 0.49256 0.0
N210 N 0.44613 0.1282 0.52657 0.0
N211 N 0.56692 0.19995 0.3836 0.0
C212 C 0.47531 0.14429 0.48321 0.0
C213 C 0.53717 0.18025 0.40779 0.0
N214 N 0.43958 0.19025 0.40443 0.0
N215 N 0.57197 0.12903 0.45692 0.0
H216 H 0.566 0.22527 0.35046 0.0
H217 H 0.59257 0.19251 0.40254 0.0
H218 H 0.57591 0.10532 0.49702 0.0
H219 H 0.59441 0.13777 0.4173 0.0
H220 H 0.41572 0.17658 0.41708 0.0
H221 H 0.43634 0.21399 0.36386 0.0
H222 H 0.4217 0.14044 0.53393 0.0
H223 H 0.44656 0.10307 0.56075 0.0
C224 C 0.33947 0.50521 0.40958 0.0
C225 C 0.33472 0.53854 0.35984 0.0
C226 C 0.38971 0.56163 0.43704 0.0
C227 C 0.3959 0.52748 0.48049 0.0
N228 N 0.38049 0.46483 0.49104 0.0
N229 N 0.3591 0.59569 0.30782 0.0
C230 C 0.37186 0.49866 0.46188 0.0
C231 C 0.36098 0.56595 0.36822 0.0
N232 N 0.31245 0.48042 0.41129 0.0
N233 N 0.41029 0.59037 0.46494 0.0
H234 H 0.33877 0.59957 0.25521 0.0
H235 H 0.37949 0.61474 0.30239 0.0
H236 H 0.43104 0.5887 0.51722 0.0
H237 H 0.40471 0.61652 0.44386 0.0
H238 H 0.31295 0.45735 0.45581 0.0
H239 H 0.28817 0.48428 0.3752 0.0
H240 H 0.36585 0.44225 0.46985 0.0
H241 H 0.40409 0.45892 0.5286 0.0
C242 C 0.99482 0.36506 0.28748 0.0
C243 C 0.01419 0.33431 0.31452 0.0
C244 C 0.04214 0.36675 0.45625 0.0
C245 C 0.0235 0.39783 0.42732 0.0
N246 N 0.98888 0.42917 0.30195 0.0
N247 N 0.06057 0.30694 0.41259 0.0
C248 C 1.00177 0.39773 0.33894 0.0
C249 C 0.03946 0.33562 0.39462 0.0
N250 N 0.96938 0.36289 0.21344 0.0
N251 N 0.06071 0.36631 0.54569 0.0
H252 H 0.05828 0.28316 0.3721 0.0
H253 H 0.08208 0.30752 0.4623 0.0
H254 H 0.06307 0.38842 0.59319 0.0
H255 H 0.07154 0.34338 0.57715 0.0
H256 H 0.95129 0.38299 0.19898 0.0
H257 H 0.96498 0.34005 0.16985 0.0
H258 H 0.9759 0.43148 0.23231 0.0
H259 H 0.99405 0.45376 0.3362 0.0
C260 C 0.85422 0.98904 -0.01379 0.0
C261 C 0.82544 1.00589 0.93669 0.0
C262 C 0.86342 0.01861 0.78881 0.0
C263 C 0.89307 1.00546 0.8431 0.0
N264 N 0.91802 0.98483 0.00185 0.0
N265 N 0.80433 0.04265 0.79851 0.0
C266 C 0.88888 0.99257 0.9443 0.0
C267 C 0.8305 0.02234 0.84004 0.0
N268 N 0.84833 0.96798 0.06997 0.0
N269 N 0.8662 0.02613 0.68715 0.0
H270 H 0.78001 0.04668 0.83411 0.0
H271 H 0.80801 0.05834 0.73355 0.0
H272 H 0.88956 0.02293 0.64598 0.0
H273 H 0.84447 0.03213 0.64151 0.0
H274 H 0.86786 0.95227 0.10274 0.0
H275 H 0.82315 0.96306 0.10014 0.0
H276 H 0.91662 0.97892 0.07933 0.0
H277 H 0.94395 0.98775 0.97496 0.0
C278 C 0.4722 0.84611 0.96767 0.0
C279 C 0.49185 0.81511 0.94671 0.0
C280 C 0.52224 0.84607 0.80573 0.0
C281 C 0.50379 0.87766 0.82978 0.0
N282 N 0.4675 0.91018 0.94759 0.0
N283 N 0.5396 0.78664 0.85871 0.0
C284 C 0.4805 0.87838 0.91476 0.0
C285 C 0.51824 0.81548 0.86985 0.0
N286 N 0.44509 0.84454 0.03673 0.0
N287 N 0.54217 0.84477 0.71897 0.0
H288 H 0.53685 0.76358 0.9031 0.0
H289 H 0.56175 0.78655 0.81142 0.0
H290 H 0.54554 0.86652 0.66989 0.0
H291 H 0.55313 0.82145 0.69117 0.0
H292 H 0.42698 0.86493 0.04618 0.0
H293 H 0.43914 0.82178 0.07993 0.0
H294 H 0.45336 0.91297 0.01503 0.0
H295 H 0.47371 0.93455 0.91262 0.0
C296 C 0.69355 0.55007 0.8936 0.0
C297 C 0.70287 0.52356 0.96594 0.0
C298 C 0.64146 0.5007 0.96462 0.0
C299 C 0.63375 0.52368 0.88143 0.0
N300 N 0.65416 0.56692 0.75665 0.0
N301 N 0.68684 0.47016 0.06031 0.0
C302 C 0.66016 0.5477 0.84356 0.0
C303 C 0.67708 0.49809 -0.00029 0.0
N304 N 0.71631 0.5781 0.87448 0.0
N305 N 0.61463 0.48201 0.01173 0.0
H306 H 0.71271 0.46667 0.08596 0.0
H307 H 0.66995 0.44871 0.07779 0.0
H308 H 0.58816 0.48365 -0.01088 0.0
H309 H 0.61808 0.46771 0.07913 0.0
H310 H 0.7095 0.60009 0.83018 0.0
H311 H 0.74065 0.58124 0.9115 0.0
H312 H 0.6739 0.58173 0.71936 0.0
H313 H 0.63038 0.56555 0.71617 0.0
C314 C 0.07902 0.66971 0.95956 0.0
C315 C 0.05187 0.69545 0.96329 0.0
C316 C 0.01298 0.65612 0.86232 0.0
C317 C 0.04155 0.63242 0.84873 0.0
N318 N 0.1035 0.61904 0.87181 0.0
N319 N 0.99487 0.7159 0.90546 0.0
C320 C 0.07504 0.63976 0.89429 0.0
C321 C 0.01923 0.68935 0.91174 0.0
N322 N 0.10814 0.67328 0.02102 0.0
N323 N 0.97963 0.64642 0.83086 0.0
H324 H 0.99858 0.74081 0.93917 0.0
H325 H 0.97241 0.71441 0.8594 0.0
H326 H 0.97397 0.62223 0.79487 0.0
H327 H 0.95707 0.66079 0.84858 0.0
H328 H 0.12692 0.65344 0.03009 0.0
H329 H 0.11182 0.69465 0.0707 0.0
H330 H 0.12938 0.62536 0.89394 0.0
H331 H 0.10193 0.59715 0.82325 0.0
C332 C 0.02712 0.1425 0.33215 0.0
C333 C 0.99768 0.1574 0.28082 0.0
C334 C 0.95864 0.10925 0.34488 0.0
C335 C 0.9879 0.09509 0.39825 0.0
N336 N 0.04867 0.1005 0.45692 0.0
N337 N 0.93517 0.15844 0.24477 0.0
C338 C 0.02177 0.11237 0.39587 0.0
C339 C 0.96324 0.14181 0.28934 0.0
N340 N 0.06056 0.15633 0.31648 0.0
N341 N 0.92688 0.09109 0.34603 0.0
H342 H 0.93809 0.18223 0.20372 0.0
H343 H 0.90885 0.15021 0.25336 0.0
H344 H 0.92303 0.06739 0.38697 0.0
H345 H 0.90498 0.09811 0.30258 0.0
H346 H 0.08363 0.14353 0.3387 0.0
H347 H 0.0657 0.17979 0.27566 0.0
H348 H 0.0722 0.11477 0.46925 0.0
H349 H 0.04684 0.07748 0.5017 0.0
C350 C 0.38619 0.96008 0.23052 0.0
C351 C 0.36535 0.99 0.25695 0.0
C352 C 0.40919 1.00854 0.38398 0.0
C353 C 0.43016 0.97866 0.35731 0.0
N354 N 0.43756 0.92364 0.26739 0.0
N355 N 0.35385 0.04011 0.36556 0.0
C356 C 0.41832 0.95366 0.28407 0.0
C357 C 0.37589 0.01338 0.33603 0.0
N358 N 0.3754 0.93833 0.15272 0.0
N359 N 0.42149 0.03265 0.45431 0.0
H360 H 0.33018 0.04592 0.32855 0.0
H361 H 0.35754 0.05538 0.43065 0.0
H362 H 0.44442 0.02927 0.49739 0.0
H363 H 0.41004 0.05723 0.46762 0.0
H364 H 0.391 0.9187 0.12086 0.0
H365 H 0.35079 0.94068 0.11706 0.0
H366 H 0.42902 0.90243 0.2224 0.0
H367 H 0.46183 0.91912 0.30308 0.0
C368 C 0.56983 0.3841 0.32453 0.0
C369 C 0.5362 0.36668 0.31761 0.0
C370 C 0.51036 0.41004 0.43299 0.0
C371 C 0.54327 0.42912 0.43379 0.0
N372 N 0.60351 0.43692 0.37709 0.0
N373 N 0.4732 0.36528 0.35251 0.0
C374 C 0.57291 0.41684 0.3788 0.0
C375 C 0.50616 0.38014 0.36881 0.0
N376 N 0.59864 0.369 0.27995 0.0
N377 N 0.48329 0.41995 0.49586 0.0
H378 H 0.46877 0.3423 0.30967 0.0
H379 H 0.44974 0.37708 0.37553 0.0
H380 H 0.48427 0.44259 0.54165 0.0
H381 H 0.46066 0.40427 0.5089 0.0
H382 H 0.62454 0.37858 0.28818 0.0
H383 H 0.59687 0.34511 0.23963 0.0
H384 H 0.62528 0.43137 0.33157 0.0
H385 H 0.6063 0.46076 0.41724 0.0
C386 C 0.13231 0.53628 0.21382 0.0
C387 C 0.16214 0.55984 0.2246 0.0
C388 C 0.12983 0.59292 0.35443 0.0
C389 C 0.10041 0.56944 0.34056 0.0
N390 N 0.06869 0.52938 0.23045 0.0
N391 N 0.18502 0.61659 0.28423 0.0
C392 C 0.09986 0.54556 0.25853 0.0
C393 C 0.15952 0.59033 0.28795 0.0
N394 N 0.13563 0.50338 0.17077 0.0
N395 N 0.1302 0.61605 0.4342 0.0
H396 H 0.20661 0.61566 0.2347 0.0
H397 H 0.18294 0.64061 0.32316 0.0
H398 H 0.10821 0.61918 0.48129 0.0
H399 H 0.15263 0.63082 0.45557 0.0
H400 H 0.11493 0.4846 0.16858 0.0
H401 H 0.15997 0.4929 0.14999 0.0
H402 H 0.06647 0.51307 0.16664 0.0
H403 H 0.04472 0.53555 0.26559 0.0
C404 C 0.03548 0.89843 0.0878 0.0
C405 C 0.06171 0.87167 0.08073 0.0
C406 C 0.09275 0.90764 0.95109 0.0
C407 C 0.06682 0.93436 0.96217 0.0
N408 N 0.02299 0.96111 0.06836 0.0
N409 N 0.12045 0.85568 0.02614 0.0
C410 C 0.04206 0.93193 0.04212 0.0
C411 C 0.0922 0.87786 0.01914 0.0
N412 N 1.00289 0.89101 0.12921 0.0
N413 N 0.11641 0.90954 0.87265 0.0
H414 H 0.12092 0.83404 0.07643 0.0
H415 H 0.14447 0.86073 -0.01086 0.0
H416 H 0.11828 0.93154 0.82394 0.0
H417 H 0.13298 0.88864 0.85359 0.0
H418 H 0.98227 0.90921 0.12858 0.0
H419 H 0.99483 0.86544 0.15161 0.0
H420 H 1.00591 0.96126 0.13078 0.0
H421 H 0.02736 0.98593 0.03351 0.0
C422 C 0.62976 0.01085 0.05692 0.0
C423 C 0.65503 0.03932 0.04857 0.0
C424 C 0.61723 0.06854 0.92251 0.0
C425 C 0.59144 0.04093 0.93659 0.0
N426 N 0.56821 0.99284 0.03968 0.0
N427 N 0.6696 0.09887 -0.01033 0.0
C428 C 0.59601 0.01475 0.01266 0.0
C429 C 0.64776 0.06945 -0.01347 0.0
N430 N 0.63873 0.97911 0.1011 0.0
N431 N 0.61352 0.0926 0.845 0.0
H432 H 0.69217 0.10019 0.03559 0.0
H433 H 0.66378 0.1228 0.95312 0.0
H434 H 0.59099 0.09325 0.79896 0.0
H435 H 0.63351 0.11062 0.82331 0.0
H436 H 0.622 0.95668 0.10124 0.0
H437 H 0.66427 0.97375 0.12682 0.0
H438 H 0.56931 0.975 0.10073 0.0
H439 H 0.54302 0.99542 0.00755 0.0
C440 C 0.48662 0.61431 0.12466 0.0
C441 C 0.46383 0.6439 0.10981 0.0
C442 C 0.43121 0.61005 0.97996 0.0
C443 C 0.45449 0.5813 -0.00439 0.0
N444 N 0.49294 0.55038 0.10957 0.0
N445 N 0.40786 0.66523 0.04638 0.0
C446 C 0.4774 0.58136 0.07988 0.0
C447 C 0.43373 0.6402 0.04524 0.0
N448 N 0.5189 0.61834 0.17112 0.0
N449 N 0.40846 0.60944 0.8992 0.0
H450 H 0.40879 0.68714 0.09506 0.0
H451 H 0.38412 0.66243 0.00632 0.0
H452 H 0.40542 0.58701 0.85311 0.0
H453 H 0.39386 0.63144 0.87628 0.0
H454 H 0.53717 0.59783 0.17616 0.0
H455 H 0.52955 0.643 0.19241 0.0
H456 H 0.50852 0.54843 0.17491 0.0
H457 H 0.48691 0.5262 0.07372 0.0
C458 C 0.88701 0.51966 0.94778 0.0
C459 C 0.87602 0.49169 0.01441 0.0
C460 C 0.92546 0.45492 0.95706 0.0
C461 C 0.93806 0.48419 0.89796 0.0
N462 N 0.93392 0.54597 0.84535 0.0
N463 N 0.88479 0.43362 0.0886 0.0
C464 C 0.91959 0.51693 0.89529 0.0
C465 C 0.89519 0.45942 0.02047 0.0
N466 N 0.86625 0.54896 0.93456 0.0
N467 N 0.94228 0.42297 0.95154 0.0
H468 H 0.86179 0.43559 0.13224 0.0
H469 H 0.89943 0.41102 0.10499 0.0
H470 H 0.9651 0.41952 0.90799 0.0
H471 H 0.9328 0.39952 -0.01465 0.0
H472 H 0.87036 0.56783 0.87715 0.0
H473 H 0.84309 0.55333 0.97547 0.0
H474 H 0.92429 0.57172 0.85204 0.0
H475 H 0.9572 0.54526 0.80263 0.0
C476 C 0.0352 0.18274 0.86151 0.0
C477 C 0.05291 0.18334 0.95611 0.0
C478 C 0.07949 0.12558 0.92166 0.0
C479 C 0.05821 0.12287 0.83254 0.0
N480 N 0.02882 0.1543 0.69693 0.0
N481 N 0.10245 0.16428 0.05536 0.0
C482 C 0.04066 0.15357 0.79514 0.0
C483 C 0.07936 0.15801 0.97725 0.0
N484 N 0.01128 0.20854 0.83891 0.0
N485 N 0.09708 0.09668 0.95858 0.0
H486 H 0.10167 0.18784 0.0974 0.0
H487 H 0.12401 0.14816 0.07141 0.0
H488 H 0.09808 0.07234 0.9212 0.0
H489 H 0.10923 0.09621 0.02976 0.0
H490 H 0.99418 0.20727 0.77668 0.0
H491 H 1.00787 0.2307 0.88538 0.0
H492 H 0.01798 0.1768 0.66292 0.0
H493 H 0.0333 0.13335 0.64677 0.0
C494 C 0.34686 0.0567 0.88996 0.0
C495 C 0.32816 0.02517 0.91813 0.0
C496 C 0.37164 0.98893 0.83395 0.0
C497 C 0.39166 0.02024 0.80678 0.0
N498 N 0.39077 0.08411 0.77813 0.0
N499 N 0.31357 0.96459 0.87659 0.0
C500 C 0.37681 0.05436 0.82443 0.0
C501 C 0.33691 0.99273 0.87212 0.0
N502 N 0.33719 0.08833 0.93146 0.0
N503 N 0.38669 0.95598 0.83521 0.0
H504 H 0.28835 0.96714 0.90824 0.0
H505 H 0.31805 0.94051 0.83969 0.0
H506 H 0.4136 0.95184 0.82323 0.0
H507 H 0.37345 0.93323 0.86254 0.0
H508 H 0.35216 0.11183 0.92385 0.0
H509 H 0.3146 0.09015 0.97707 0.0
H510 H 0.37931 0.10914 0.78348 0.0
H511 H 0.41147 0.08302 0.72568 0.0
C512 C 0.50438 0.33799 0.89888 0.0
C513 C 0.4855 0.33591 -0.00863 0.0
C514 C 0.45512 0.39147 0.95226 0.0
C515 C 0.47717 0.39586 0.86513 0.0
N516 N 0.51079 0.36695 0.73413 0.0
N517 N 0.43341 0.35107 0.08471 0.0
C518 C 0.4976 0.36669 0.83089 0.0
C519 C 0.45698 0.35912 0.00891 0.0
N520 N 0.53044 0.31409 0.87992 0.0
N521 N 0.43505 0.41891 -0.01332 0.0
H522 H 0.43539 0.32764 0.12767 0.0
H523 H 0.41048 0.36547 0.09776 0.0
H524 H 0.43277 0.44319 0.94877 0.0
H525 H 0.42211 0.41838 0.05668 0.0
H526 H 0.54822 0.31663 0.81959 0.0
H527 H 0.5348 0.29226 0.92772 0.0
H528 H 0.52384 0.34544 0.70227 0.0
H529 H 0.50537 0.38746 0.68264 0.0
C530 C 0.18974 0.47327 0.93463 0.0
C531 C 0.20915 0.50582 0.92354 0.0
C532 C 0.17292 0.52265 0.77783 0.0
C533 C 0.15015 0.49273 0.79844 0.0
N534 N 0.14181 0.43458 0.87328 0.0
N535 N 0.22873 0.5536 0.81585 0.0
C536 C 0.16046 0.46613 0.86888 0.0
C537 C 0.20422 0.52739 0.83687 0.0
N538 N 0.19784 0.45087 0.01324 0.0
N539 N 0.1632 0.54797 0.70829 0.0
H540 H 0.25126 0.55717 0.86132 0.0
H541 H 0.22851 0.56921 0.75009 0.0
H542 H 0.14047 0.54575 0.66344 0.0
H543 H 0.17662 0.57223 0.69837 0.0
H544 H 0.1826 0.42863 0.03425 0.0
H545 H 0.22008 0.4552 0.05909 0.0
H546 H 0.14889 0.41298 0.91855 0.0
H547 H 0.12036 0.42913 0.82517 0.0
C548 C 0.03353 0.82947 0.47342 0.0
C549 C 0.01228 0.82179 0.3881 0.0
C550 C 0.97039 0.86772 0.43879 0.0
C551 C 0.99638 0.88114 0.50702 0.0
N552 N 0.05211 0.87387 0.59633 0.0
N553 N 0.95691 0.82699 0.2998 0.0
C554 C 0.02731 0.86113 0.52906 0.0
C555 C 0.97889 0.83816 0.37629 0.0
N556 N 0.06082 0.80734 0.49613 0.0
N557 N 0.93814 0.88372 0.43326 0.0
H558 H 0.96245 0.80453 0.25642 0.0
H559 H 0.93384 0.83987 0.27826 0.0
H560 H 0.9317 0.90535 0.47904 0.0
H561 H 0.91705 0.87433 0.38933 0.0
H562 H 0.07638 0.8096 0.56132 0.0
H563 H 0.06545 0.78456 0.4529 0.0
H564 H 0.07688 0.86255 0.60678 0.0
H565 H 0.04895 0.89707 0.63841 0.0
C566 C 0.68338 0.96744 0.36418 0.0
C567 C 0.69915 1.00187 0.37215 0.0
C568 C 0.65831 0.01621 0.50958 0.0
C569 C 0.63717 0.98605 0.48146 0.0
N570 N 0.63063 0.93048 0.39221 0.0
N571 N 0.70722 0.05641 0.46302 0.0
C572 C 0.65042 0.96039 0.41344 0.0
C573 C 0.68901 0.02491 0.45112 0.0
N574 N 0.69926 0.9425 0.30516 0.0
N575 N 0.64839 0.03677 0.59 0.0
H576 H 0.73028 0.0621 0.4215 0.0
H577 H 0.69942 0.07679 0.5111 0.0
H578 H 0.62573 0.03118 0.63319 0.0
H579 H 0.66372 0.05777 0.61866 0.0
H580 H 0.69041 0.91612 0.29954 0.0
H581 H 0.72341 0.94771 0.26886 0.0
H582 H 0.63685 0.91252 0.33508 0.0
H583 H 0.60692 0.92434 0.42997 0.0
C584 C 0.49609 0.69365 0.49085 0.0
C585 C 0.51763 0.69846 0.40432 0.0
C586 C 0.55777 0.65251 0.46688 0.0
C587 C 0.53113 0.64148 0.5366 0.0
N588 N 0.47548 0.65274 0.62199 0.0
N589 N 0.57263 0.68844 0.31782 0.0
C590 C 0.50095 0.66307 0.55333 0.0
C591 C 0.55035 0.68053 0.39696 0.0
N592 N 0.46973 0.71735 0.50821 0.0
N593 N 0.58965 0.63571 0.4671 0.0
H594 H 0.5682 0.70986 0.26873 0.0
H595 H 0.59483 0.67368 0.29948 0.0
H596 H 0.59532 0.61522 0.51848 0.0
H597 H 0.61126 0.64371 0.42283 0.0
H598 H 0.45414 0.71721 0.57359 0.0
H599 H 0.46603 0.73926 0.46003 0.0
H600 H 0.45111 0.66515 0.62877 0.0
H601 H 0.47769 0.63044 0.6691 0.0
C602 C 0.87742 0.57649 0.31627 0.0
C603 C 0.85206 0.5492 0.33746 0.0
C604 C 0.88086 0.53873 0.50081 0.0
C605 C 0.91166 0.55701 0.46398 0.0
N606 N 0.93832 0.59639 0.33727 0.0
N607 N 0.82653 0.50697 0.45575 0.0
C608 C 0.90941 0.57791 0.37359 0.0
C609 C 0.8522 0.53186 0.43311 0.0
N610 N 0.87158 0.59922 0.23677 0.0
N611 N 0.87958 0.52751 0.59981 0.0
H612 H 0.80473 0.50239 0.40838 0.0
H613 H 0.82758 0.49017 0.51905 0.0
H614 H 0.90017 0.53307 0.65082 0.0
H615 H 0.85699 0.51618 0.63328 0.0
H616 H 0.88771 0.62139 0.22072 0.0
H617 H 0.84837 0.59751 0.19339 0.0
H618 H 0.93915 0.60815 0.26531 0.0
H619 H 0.96226 0.59864 0.37616 0.0
loop_
_geom_bond_atom_site_label_1
_geom_bond_atom_site_label_2
_geom_bond_distance
_geom_bond_site_symmetry_2
_ccdc_geom_bond_type
H0 C5 0.930 . S
H1 C8 0.930 . S
H2 C10 0.930 . S
H3 C4 1.016 . S
C4 H3 1.016 . S
C4 N11 1.286 1_556 S
C5 H0 0.930 . S
C5 C6 1.397 . S
C5 C7 1.361 . S
C6 C5 1.397 . S
C6 C10 1.390 . S
C7 C5 1.361 . S
C7 C8 1.393 1_554 S
C7 N11 1.413 . S
C8 H1 0.930 . S
C8 C7 1.393 1_556 S
C8 C9 1.399 . S
C9 C8 1.399 . S
C9 C10 1.381 1_556 S
C10 H2 0.930 . S
C10 C6 1.390 . S
C10 C9 1.381 1_554 S
N11 C4 1.286 1_554 S
N11 C7 1.413 . S
H12 C17 0.930 . S
H13 C20 0.930 1_556 S
H14 C22 0.930 . S
H15 C16 1.016 1_556 S
C16 H15 1.016 1_554 S
C16 N23 1.286 1_655 S
C17 H12 0.930 . S
C17 C18 1.397 . S
C17 C19 1.361 . S
C18 C17 1.397 . S
C18 C22 1.390 1_455 S
C19 C17 1.361 . S
C19 C20 1.393 . S
C19 N23 1.413 . S
C20 H13 0.930 1_554 S
C20 C19 1.393 . S
C20 C21 1.399 . S
C21 C20 1.399 . S
C21 C22 1.381 1_455 S
C22 H14 0.930 . S
C22 C18 1.390 1_655 S
C22 C21 1.381 1_655 S
N23 C16 1.286 1_455 S
N23 C19 1.413 . S
H24 C29 0.930 . S
H25 C32 0.930 . S
H26 C34 0.930 . S
H27 C28 1.016 . S
C28 H27 1.016 . S
C28 N35 1.286 1_566 S
C29 H24 0.930 . S
C29 C30 1.397 . S
C29 C31 1.361 . S
C30 C29 1.397 . S
C30 C34 1.390 1_545 S
C31 C29 1.361 . S
C31 C32 1.393 1_554 S
C31 N35 1.413 . S
C32 H25 0.930 . S
C32 C31 1.393 1_556 S
C32 C33 1.399 . S
C33 C32 1.399 . S
C33 C34 1.378 1_546 S
C34 H26 0.930 . S
C34 C30 1.390 1_565 S
C34 C33 1.378 1_564 S
N35 C28 1.286 1_544 S
N35 C31 1.413 . S
H36 C41 0.930 . S
H37 C44 0.930 . S
H38 C46 0.930 . S
H39 C40 1.016 . S
C40 H39 1.016 . S
C40 N47 1.286 1_556 S
C41 H36 0.930 . S
C41 C42 1.397 . S
C41 C43 1.361 . S
C42 C41 1.397 . S
C42 C46 1.390 . S
C43 C41 1.361 . S
C43 C44 1.393 1_554 S
C43 N47 1.413 . S
C44 H37 0.930 . S
C44 C43 1.393 1_556 S
C44 C45 1.399 . S
C45 C44 1.399 . S
C45 C46 1.381 1_556 S
C46 H38 0.930 . S
C46 C42 1.390 . S
C46 C45 1.381 1_554 S
N47 C40 1.286 1_554 S
N47 C43 1.413 . S
H48 C53 0.930 . S
H49 C56 0.930 . S
H50 C58 0.930 . S
H51 C52 1.016 . S
C52 H51 1.016 . S
C52 N59 1.286 . S
C53 H48 0.930 . S
C53 C54 1.397 . S
C53 C55 1.361 . S
C54 C53 1.397 . S
C54 C58 1.390 . S
C55 C53 1.361 . S
C55 C56 1.393 . S
C55 N59 1.413 . S
C56 H49 0.930 . S
C56 C55 1.393 . S
C56 C57 1.399 . S
C57 C56 1.399 . S
C57 C58 1.381 . S
C58 H50 0.930 . S
C58 C54 1.390 . S
C58 C57 1.381 . S
N59 C52 1.286 . S
N59 C55 1.413 . S
H60 C65 0.930 . S
H61 C68 0.930 . S
H62 C70 0.930 . S
H63 C64 1.016 . S
C64 H63 1.016 . S
C64 N71 1.286 . S
C65 H60 0.930 . S
C65 C66 1.397 . S
C65 C67 1.361 . S
C66 C65 1.397 . S
C66 C70 1.390 . S
C67 C65 1.361 . S
C67 C68 1.393 . S
C67 N71 1.413 . S
C68 H61 0.930 . S
C68 C67 1.393 . S
C68 C69 1.399 . S
C69 C68 1.399 . S
C69 C70 1.381 . S
C70 H62 0.930 . S
C70 C66 1.390 . S
C70 C69 1.381 . S
N71 C64 1.286 . S
N71 C67 1.413 . S
H72 C77 0.930 . S
H73 C80 0.930 . S
H74 C82 0.930 . S
H75 C76 1.007 1_565 S
C76 H75 1.007 1_545 S
C76 N83 1.286 . S
C77 H72 0.930 . S
C77 C78 1.397 . S
C77 C79 1.361 . S
C78 C77 1.397 . S
C78 C82 1.390 . S
C79 C77 1.361 . S
C79 C80 1.393 . S
C79 N83 1.413 . S
C80 H73 0.930 . S
C80 C79 1.393 . S
C80 C81 1.399 . S
C81 C80 1.399 . S
C81 C82 1.381 . S
C82 H74 0.930 . S
C82 C78 1.390 . S
C82 C81 1.381 . S
N83 C76 1.286 . S
N83 C79 1.413 . S
H84 C89 0.930 . S
H85 C92 0.930 . S
H86 C94 0.930 . S
H87 C88 1.016 . S
C88 H87 1.016 . S
C88 N95 1.286 . S
C89 H84 0.930 . S
C89 C90 1.397 . S
C89 C91 1.361 . S
C90 C89 1.397 . S
C90 C94 1.390 . S
C91 C89 1.361 . S
C91 C92 1.393 . S
C91 N95 1.413 . S
C92 H85 0.930 . S
C92 C91 1.393 . S
C92 C93 1.399 . S
C93 C92 1.399 . S
C93 C94 1.381 . S
C94 H86 0.930 . S
C94 C90 1.390 . S
C94 C93 1.381 . S
N95 C88 1.286 . S
N95 C91 1.413 . S
O96 Zn97 1.953 . S
O96 C112 1.225 1_545 S
Zn97 O96 1.953 . S
Zn97 O98 1.948 1_545 S
Zn97 O104 1.919 . S
Zn97 O109 1.924 1_545 S
O98 Zn97 1.948 1_565 S
O98 Zn99 1.899 1_465 S
O98 Zn100 1.952 . S
O98 Zn101 1.968 1_455 S
Zn99 O98 1.899 1_645 S
Zn99 O102 1.933 . S
Zn99 O105 1.941 1_655 S
Zn99 O106 1.965 . S
Zn100 O98 1.952 . S
Zn100 O107 1.938 1_565 S
Zn100 O108 1.906 . S
Zn100 O118 1.953 . S
Zn101 O98 1.968 1_655 S
Zn101 O103 1.932 . S
Zn101 O110 1.977 . S
Zn101 O111 1.910 1_655 S
O102 Zn99 1.933 . S
O102 C113 1.226 . S
O103 Zn101 1.932 . S
O103 C113 1.307 1_565 S
O104 Zn97 1.919 . S
O104 C115 1.253 . S
O105 Zn99 1.941 1_455 S
O105 C115 1.283 . S
O106 Zn99 1.965 . S
O106 C114 1.303 1_655 S
O107 Zn100 1.938 1_545 S
O107 C114 1.247 . S
O108 Zn100 1.906 . S
O108 C116 1.304 1_455 S
O109 Zn97 1.924 1_565 S
O109 C117 1.311 . S
O110 Zn101 1.977 . S
O110 C116 1.272 . S
O111 Zn101 1.910 1_455 S
O111 C117 1.231 . S
C112 O96 1.225 1_565 S
C112 O118 1.298 . S
C113 O102 1.226 . S
C113 O103 1.307 1_545 S
C114 O106 1.303 1_455 S
C114 O107 1.247 . S
C115 O104 1.253 . S
C115 O105 1.283 . S
C116 O108 1.304 1_655 S
C116 O110 1.272 . S
C117 O109 1.311 . S
C117 O111 1.231 . S
O118 Zn100 1.953 . S
O118 C112 1.298 . S
O119 Zn120 1.953 . S
O119 C135 1.225 . S
Zn120 O119 1.953 . S
Zn120 O121 1.949 . S
Zn120 O127 1.919 . S
Zn120 O132 1.924 . S
O121 Zn120 1.949 . S
O121 Zn122 1.923 1_545 S
O121 Zn123 1.950 . S
O121 Zn124 1.945 1_545 S
Zn122 O121 1.923 1_565 S
Zn122 O125 1.933 . S
Zn122 O128 1.941 . S
Zn122 O129 1.965 . S
Zn123 O121 1.950 . S
Zn123 O130 1.938 . S
Zn123 O131 1.906 . S
Zn123 O141 1.953 . S
Zn124 O121 1.945 1_565 S
Zn124 O126 1.932 . S
Zn124 O133 1.977 . S
Zn124 O134 1.910 1_565 S
O125 Zn122 1.933 . S
O125 C136 1.226 . S
O126 Zn124 1.932 . S
O126 C136 1.307 . S
O127 Zn120 1.919 . S
O127 C138 1.253 . S
O128 Zn122 1.941 . S
O128 C138 1.283 1_565 S
O129 Zn122 1.965 . S
O129 C137 1.303 1_565 S
O130 Zn123 1.938 . S
O130 C137 1.247 . S
O131 Zn123 1.906 . S
O131 C139 1.304 1_545 S
O132 Zn120 1.924 . S
O132 C140 1.311 . S
O133 Zn124 1.977 . S
O133 C139 1.272 . S
O134 Zn124 1.910 1_545 S
O134 C140 1.231 . S
C135 O119 1.225 . S
C135 O141 1.298 . S
C136 O125 1.226 . S
C136 O126 1.307 . S
C137 O129 1.303 1_545 S
C137 O130 1.247 . S
C138 O127 1.253 . S
C138 O128 1.283 1_545 S
C139 O131 1.304 1_565 S
C139 O133 1.272 . S
C140 O132 1.311 . S
C140 O134 1.231 . S
O141 Zn123 1.953 . S
O141 C135 1.298 . S
O142 Zn143 1.953 . S
O142 C158 1.225 . S
Zn143 O142 1.953 . S
Zn143 O144 1.949 . S
Zn143 O150 1.919 . S
Zn143 O155 1.924 . S
O144 Zn143 1.949 . S
O144 Zn145 1.923 . S
O144 Zn146 1.950 . S
O144 Zn147 1.945 . S
Zn145 O144 1.923 . S
Zn145 O148 1.933 . S
Zn145 O151 1.941 . S
Zn145 O152 1.965 . S
Zn146 O144 1.950 . S
Zn146 O153 1.938 . S
Zn146 O154 1.906 . S
Zn146 O164 1.953 . S
Zn147 O144 1.945 . S
Zn147 O149 1.932 . S
Zn147 O156 1.977 . S
Zn147 O157 1.910 . S
O148 Zn145 1.933 . S
O148 C159 1.226 . S
O149 Zn147 1.932 . S
O149 C159 1.307 . S
O150 Zn143 1.919 . S
O150 C161 1.253 . S
O151 Zn145 1.941 . S
O151 C161 1.283 . S
O152 Zn145 1.965 . S
O152 C160 1.303 . S
O153 Zn146 1.938 . S
O153 C160 1.247 . S
O154 Zn146 1.906 . S
O154 C162 1.304 . S
O155 Zn143 1.924 . S
O155 C163 1.311 . S
O156 Zn147 1.977 . S
O156 C162 1.272 . S
O157 Zn147 1.910 . S
O157 C163 1.231 . S
C158 O142 1.225 . S
C158 O164 1.298 . S
C159 O148 1.226 . S
C159 O149 1.307 . S
C160 O152 1.303 . S
C160 O153 1.247 . S
C161 O150 1.253 . S
C161 O151 1.283 . S
C162 O154 1.304 . S
C162 O156 1.272 . S
C163 O155 1.311 . S
C163 O157 1.231 . S
O164 Zn146 1.953 . S
O164 C158 1.298 . S
O165 Zn166 1.953 1_655 S
O165 C181 1.225 . S
Zn166 O165 1.953 1_455 S
Zn166 O167 1.949 . S
Zn166 O173 1.919 . S
Zn166 O178 1.924 . S
O167 Zn166 1.949 . S
O167 Zn168 1.917 1_455 S
O167 Zn169 1.929 1_455 S
O167 Zn170 1.973 . S
Zn168 O167 1.917 1_655 S
Zn168 O171 1.933 1_655 S
Zn168 O174 1.941 . S
Zn168 O175 1.965 . S
Zn169 O167 1.929 1_655 S
Zn169 O176 1.938 . S
Zn169 O177 1.906 . S
Zn169 O187 1.953 . S
Zn170 O167 1.973 . S
Zn170 O172 1.932 . S
Zn170 O179 1.977 . S
Zn170 O180 1.910 . S
O171 Zn168 1.933 1_455 S
O171 C182 1.226 . S
O172 Zn170 1.932 . S
O172 C182 1.307 . S
O173 Zn166 1.919 . S
O173 C184 1.253 . S
O174 Zn168 1.941 . S
O174 C184 1.283 1_655 S
O175 Zn168 1.965 . S
O175 C183 1.303 . S
O176 Zn169 1.938 . S
O176 C183 1.247 . S
O177 Zn169 1.906 . S
O177 C185 1.304 1_655 S
O178 Zn166 1.924 . S
O178 C186 1.311 . S
O179 Zn170 1.977 . S
O179 C185 1.272 . S
O180 Zn170 1.910 . S
O180 C186 1.231 . S
C181 O165 1.225 . S
C181 O187 1.298 . S
C182 O171 1.226 . S
C182 O172 1.307 . S
C183 O175 1.303 . S
C183 O176 1.247 . S
C184 O173 1.253 . S
C184 O174 1.283 1_455 S
C185 O177 1.304 1_455 S
C185 O179 1.272 . S
C186 O178 1.311 . S
C186 O180 1.231 . S
O187 Zn169 1.953 . S
O187 C181 1.298 . S
C188 C189 1.363 1_565 S
C188 C194 1.379 . S
C188 N196 1.356 . S
C189 C188 1.363 1_545 S
C189 C195 1.363 . S
C190 C191 1.345 1_545 S
C190 C195 1.379 . S
C190 N197 1.356 . S
C191 C190 1.345 1_565 S
C191 C194 1.379 . S
N192 C194 1.356 . S
N192 H204 0.984 . S
N192 H205 0.985 . S
N193 C195 1.356 . S
N193 H198 0.984 . S
N193 H199 0.985 . S
C194 C188 1.379 . S
C194 C191 1.379 . S
C194 N192 1.356 . S
C195 C189 1.363 . S
C195 C190 1.379 . S
C195 N193 1.356 . S
N196 C188 1.356 . S
N196 H202 0.984 . S
N196 H203 0.984 . S
N197 C190 1.356 . S
N197 H200 0.984 . S
N197 H201 0.985 . S
H198 N193 0.984 . S
H199 N193 0.985 . S
H200 N197 0.984 . S
H201 N197 0.985 . S
H202 N196 0.984 . S
H203 N196 0.984 . S
H204 N192 0.984 . S
H205 N192 0.985 . S
C206 C207 1.363 . S
C206 C212 1.379 . S
C206 N214 1.356 . S
C207 C206 1.363 . S
C207 C213 1.363 . S
C208 C209 1.363 . S
C208 C213 1.379 . S
C208 N215 1.356 . S
C209 C208 1.363 . S
C209 C212 1.363 . S
N210 C212 1.356 . S
N210 H222 0.984 . S
N210 H223 0.985 . S
N211 C213 1.356 . S
N211 H216 0.984 . S
N211 H217 0.985 . S
C212 C206 1.379 . S
C212 C209 1.363 . S
C212 N210 1.356 . S
C213 C207 1.363 . S
C213 C208 1.379 . S
C213 N211 1.356 . S
N214 C206 1.356 . S
N214 H220 0.984 . S
N214 H221 0.984 . S
N215 C208 1.356 . S
N215 H218 0.984 . S
N215 H219 0.985 . S
H216 N211 0.984 . S
H217 N211 0.985 . S
H218 N215 0.984 . S
H219 N215 0.985 . S
H220 N214 0.984 . S
H221 N214 0.984 . S
H222 N210 0.984 . S
H223 N210 0.985 . S
C224 C225 1.363 . S
C224 C230 1.379 . S
C224 N232 1.356 . S
C225 C224 1.363 . S
C225 C231 1.363 . S
C226 C227 1.363 . S
C226 C231 1.379 . S
C226 N233 1.356 . S
C227 C226 1.363 . S
C227 C230 1.363 . S
N228 C230 1.356 . S
N228 H240 0.984 . S
N228 H241 0.985 . S
N229 C231 1.356 . S
N229 H234 0.984 . S
N229 H235 0.985 . S
C230 C224 1.379 . S
C230 C227 1.363 . S
C230 N228 1.356 . S
C231 C225 1.363 . S
C231 C226 1.379 . S
C231 N229 1.356 . S
N232 C224 1.356 . S
N232 H238 0.984 . S
N232 H239 0.984 . S
N233 C226 1.356 . S
N233 H236 0.984 . S
N233 H237 0.985 . S
H234 N229 0.984 . S
H235 N229 0.985 . S
H236 N233 0.984 . S
H237 N233 0.985 . S
H238 N232 0.984 . S
H239 N232 0.984 . S
H240 N228 0.984 . S
H241 N228 0.985 . S
C242 C243 1.363 . S
C242 C248 1.379 1_455 S
C242 N250 1.356 1_455 S
C243 C242 1.363 . S
C243 C249 1.363 . S
C244 C245 1.363 . S
C244 C249 1.379 . S
C244 N251 1.356 . S
C245 C244 1.363 . S
C245 C248 1.363 1_455 S
N246 C248 1.356 . S
N246 H258 0.984 . S
N246 H259 0.985 . S
N247 C249 1.356 . S
N247 H252 0.984 . S
N247 H253 0.985 . S
C248 C242 1.379 1_655 S
C248 C245 1.363 1_655 S
C248 N246 1.356 . S
C249 C243 1.363 . S
C249 C244 1.379 . S
C249 N247 1.356 . S
N250 C242 1.356 1_655 S
N250 H256 0.984 . S
N250 H257 0.984 1_655 S
N251 C244 1.356 . S
N251 H254 0.984 . S
N251 H255 0.985 . S
H252 N247 0.984 . S
H253 N247 0.985 . S
H254 N251 0.984 . S
H255 N251 0.985 . S
H256 N250 0.984 . S
H257 N250 0.984 1_455 S
H258 N246 0.984 . S
H259 N246 0.985 . S
C260 C261 1.367 . S
C260 C266 1.379 . S
C260 N268 1.356 1_556 S
C261 C260 1.367 . S
C261 C267 1.359 1_565 S
C262 C263 1.363 . S
C262 C267 1.379 . S
C262 N269 1.356 . S
C263 C262 1.363 . S
C263 C266 1.363 1_545 S
N264 C266 1.356 . S
N264 H276 0.984 . S
N264 H277 0.985 . S
N265 C267 1.356 . S
N265 H270 0.984 . S
N265 H271 0.985 . S
C266 C260 1.379 . S
C266 C263 1.363 1_565 S
C266 N264 1.356 . S
C267 C261 1.359 1_545 S
C267 C262 1.379 . S
C267 N265 1.356 . S
N268 C260 1.356 1_554 S
N268 H274 0.984 . S
N268 H275 0.984 . S
N269 C262 1.356 . S
N269 H272 0.984 . S
N269 H273 0.985 . S
H270 N265 0.984 . S
H271 N265 0.985 . S
H272 N269 0.984 . S
H273 N269 0.985 . S
H274 N268 0.984 . S
H275 N268 0.984 . S
H276 N264 0.984 . S
H277 N264 0.985 . S
C278 C279 1.363 . S
C278 C284 1.379 . S
C278 N286 1.356 1_556 S
C279 C278 1.363 . S
C279 C285 1.363 . S
C280 C281 1.363 . S
C280 C285 1.379 . S
C280 N287 1.356 . S
C281 C280 1.363 . S
C281 C284 1.363 . S
N282 C284 1.356 . S
N282 H294 0.984 . S
N282 H295 0.985 . S
N283 C285 1.356 . S
N283 H288 0.984 . S
N283 H289 0.985 . S
C284 C278 1.379 . S
C284 C281 1.363 . S
C284 N282 1.356 . S
C285 C279 1.363 . S
C285 C280 1.379 . S
C285 N283 1.356 . S
N286 C278 1.356 1_554 S
N286 H292 0.984 . S
N286 H293 0.984 . S
N287 C280 1.356 . S
N287 H290 0.984 . S
N287 H291 0.985 . S
H288 N283 0.984 . S
H289 N283 0.985 . S
H290 N287 0.984 . S
H291 N287 0.985 . S
H292 N286 0.984 . S
H293 N286 0.984 . S
H294 N282 0.984 . S
H295 N282 0.985 . S
C296 C297 1.363 . S
C296 C302 1.379 . S
C296 N304 1.356 . S
C297 C296 1.363 . S
C297 C303 1.363 . S
C298 C299 1.363 . S
C298 C303 1.379 . S
C298 N305 1.356 . S
C299 C298 1.363 . S
C299 C302 1.363 . S
N300 C302 1.356 . S
N300 H312 0.984 . S
N300 H313 0.985 . S
N301 C303 1.356 . S
N301 H306 0.984 . S
N301 H307 0.985 . S
C302 C296 1.379 . S
C302 C299 1.363 . S
C302 N300 1.356 . S
C303 C297 1.363 . S
C303 C298 1.379 . S
C303 N301 1.356 . S
N304 C296 1.356 . S
N304 H310 0.984 . S
N304 H311 0.984 1_556 S
N305 C298 1.356 . S
N305 H308 0.984 . S
N305 H309 0.985 . S
H306 N301 0.984 . S
H307 N301 0.985 . S
H308 N305 0.984 . S
H309 N305 0.985 . S
H310 N304 0.984 . S
H311 N304 0.984 1_554 S
H312 N300 0.984 . S
H313 N300 0.985 . S
C314 C315 1.350 1_454 S
C314 C320 1.379 1_554 S
C314 N322 1.356 . S
C315 C314 1.350 1_656 S
C315 C321 1.374 . S
C316 C317 1.363 1_655 S
C316 C321 1.379 . S
C316 N323 1.356 . S
C317 C316 1.363 1_455 S
C317 C320 1.363 . S
N318 C320 1.356 . S
N318 H330 0.984 . S
N318 H331 0.985 . S
N319 C321 1.356 . S
N319 H324 0.984 . S
N319 H325 0.985 . S
C320 C314 1.379 1_556 S
C320 C317 1.363 . S
C320 N318 1.356 . S
C321 C315 1.374 . S
C321 C316 1.379 . S
C321 N319 1.356 . S
N322 C314 1.356 . S
N322 H328 0.984 . S
N322 H329 0.984 . S
N323 C316 1.356 . S
N323 H326 0.984 . S
N323 H327 0.985 . S
H324 N319 0.984 . S
H325 N319 0.985 . S
H326 N323 0.984 . S
H327 N323 0.985 . S
H328 N322 0.984 . S
H329 N322 0.984 . S
H330 N318 0.984 . S
H331 N318 0.985 . S
C332 C333 1.363 . S
C332 C338 1.379 . S
C332 N340 1.356 . S
C333 C332 1.363 . S
C333 C339 1.363 . S
C334 C335 1.363 . S
C334 C339 1.379 . S
C334 N341 1.356 1_455 S
C335 C334 1.363 . S
C335 C338 1.363 . S
N336 C338 1.356 . S
N336 H348 0.984 . S
N336 H349 0.985 . S
N337 C339 1.356 1_655 S
N337 H342 0.984 1_655 S
N337 H343 0.985 . S
C338 C332 1.379 . S
C338 C335 1.363 . S
C338 N336 1.356 . S
C339 C333 1.363 . S
C339 C334 1.379 . S
C339 N337 1.356 1_455 S
N340 C332 1.356 . S
N340 H346 0.984 . S
N340 H347 0.984 . S
N341 C334 1.356 1_655 S
N341 H344 0.984 . S
N341 H345 0.985 . S
H342 N337 0.984 1_455 S
H343 N337 0.985 . S
H344 N341 0.984 . S
H345 N341 0.985 . S
H346 N340 0.984 . S
H347 N340 0.984 . S
H348 N336 0.984 . S
H349 N336 0.985 . S
C350 C351 1.363 1_565 S
C350 C356 1.379 . S
C350 N358 1.356 . S
C351 C350 1.363 1_545 S
C351 C357 1.363 . S
C352 C353 1.363 . S
C352 C357 1.379 . S
C352 N359 1.356 . S
C353 C352 1.363 . S
C353 C356 1.363 1_545 S
N354 C356 1.356 . S
N354 H366 0.984 . S
N354 H367 0.985 . S
N355 C357 1.356 . S
N355 H360 0.984 . S
N355 H361 0.985 . S
C356 C350 1.379 . S
C356 C353 1.363 1_565 S
C356 N354 1.356 . S
C357 C351 1.363 . S
C357 C352 1.379 . S
C357 N355 1.356 . S
N358 C350 1.356 . S
N358 H364 0.984 . S
N358 H365 0.984 . S
N359 C352 1.356 . S
N359 H362 0.984 . S
N359 H363 0.985 . S
H360 N355 0.984 . S
H361 N355 0.985 . S
H362 N359 0.984 . S
H363 N359 0.985 . S
H364 N358 0.984 . S
H365 N358 0.984 . S
H366 N354 0.984 . S
H367 N354 0.985 . S
C368 C369 1.363 . S
C368 C374 1.379 . S
C368 N376 1.356 . S
C369 C368 1.363 . S
C369 C375 1.363 . S
C370 C371 1.363 . S
C370 C375 1.379 . S
C370 N377 1.356 . S
C371 C370 1.363 . S
C371 C374 1.363 . S
N372 C374 1.356 . S
N372 H384 0.984 . S
N372 H385 0.985 . S
N373 C375 1.356 . S
N373 H378 0.984 . S
N373 H379 0.985 . S
C374 C368 1.379 . S
C374 C371 1.363 . S
C374 N372 1.356 . S
C375 C369 1.363 . S
C375 C370 1.379 . S
C375 N373 1.356 . S
N376 C368 1.356 . S
N376 H382 0.984 . S
N376 H383 0.984 . S
N377 C370 1.356 . S
N377 H380 0.984 . S
N377 H381 0.985 . S
H378 N373 0.984 . S
H379 N373 0.985 . S
H380 N377 0.984 . S
H381 N377 0.985 . S
H382 N376 0.984 . S
H383 N376 0.984 . S
H384 N372 0.984 . S
H385 N372 0.985 . S
C386 C387 1.363 . S
C386 C392 1.379 . S
C386 N394 1.356 . S
C387 C386 1.363 . S
C387 C393 1.363 . S
C388 C389 1.363 . S
C388 C393 1.379 . S
C388 N395 1.356 . S
C389 C388 1.363 . S
C389 C392 1.363 . S
N390 C392 1.356 . S
N390 H402 0.984 . S
N390 H403 0.985 . S
N391 C393 1.356 . S
N391 H396 0.984 . S
N391 H397 0.985 . S
C392 C386 1.379 . S
C392 C389 1.363 . S
C392 N390 1.356 . S
C393 C387 1.363 . S
C393 C388 1.379 . S
C393 N391 1.356 . S
N394 C386 1.356 . S
N394 H400 0.984 . S
N394 H401 0.984 . S
N395 C388 1.356 . S
N395 H398 0.984 . S
N395 H399 0.985 . S
H396 N391 0.984 . S
H397 N391 0.985 . S
H398 N395 0.984 . S
H399 N395 0.985 . S
H400 N394 0.984 . S
H401 N394 0.984 . S
H402 N390 0.984 . S
H403 N390 0.985 . S
C404 C405 1.363 1_654 S
C404 C410 1.379 1_654 S
C404 N412 1.356 . S
C405 C404 1.363 1_456 S
C405 C411 1.363 . S
C406 C407 1.363 . S
C406 C411 1.379 . S
C406 N413 1.356 . S
C407 C406 1.363 . S
C407 C410 1.363 . S
N408 C410 1.356 . S
N408 H420 0.985 1_456 S
N408 H421 0.984 . S
N409 C411 1.356 . S
N409 H414 0.984 . S
N409 H415 0.985 . S
C410 C404 1.379 1_456 S
C410 C407 1.363 . S
C410 N408 1.356 . S
C411 C405 1.363 . S
C411 C406 1.379 . S
C411 N409 1.356 . S
N412 C404 1.356 . S
N412 H418 0.984 . S
N412 H419 0.984 . S
N413 C406 1.356 . S
N413 H416 0.984 . S
N413 H417 0.985 . S
H414 N409 0.984 . S
H415 N409 0.985 . S
H416 N413 0.984 . S
H417 N413 0.985 . S
H418 N412 0.984 . S
H419 N412 0.984 . S
H420 N408 0.985 1_654 S
H421 N408 0.984 . S
C422 C423 1.363 1_554 S
C422 C428 1.379 1_554 S
C422 N430 1.356 1_545 S
C423 C422 1.363 1_556 S
C423 C429 1.363 . S
C424 C425 1.363 . S
C424 C429 1.379 . S
C424 N431 1.356 . S
C425 C424 1.363 . S
C425 C428 1.363 . S
N426 C428 1.356 1_554 S
N426 H438 0.984 . S
N426 H439 0.985 1_554 S
N427 C429 1.356 . S
N427 H432 0.984 . S
N427 H433 0.985 . S
C428 C422 1.379 1_556 S
C428 C425 1.363 . S
C428 N426 1.356 1_556 S
C429 C423 1.363 . S
C429 C424 1.379 . S
C429 N427 1.356 . S
N430 C422 1.356 1_565 S
N430 H436 0.984 . S
N430 H437 0.984 . S
N431 C424 1.356 . S
N431 H434 0.984 . S
N431 H435 0.985 . S
H432 N427 0.984 . S
H433 N427 0.985 . S
H434 N431 0.984 . S
H435 N431 0.985 . S
H436 N430 0.984 . S
H437 N430 0.984 . S
H438 N426 0.984 . S
H439 N426 0.985 1_556 S
C440 C441 1.363 . S
C440 C446 1.379 . S
C440 N448 1.356 . S
C441 C440 1.363 . S
C441 C447 1.363 . S
C442 C443 1.363 . S
C442 C447 1.379 . S
C442 N449 1.356 . S
C443 C442 1.363 . S
C443 C446 1.363 . S
N444 C446 1.356 . S
N444 H456 0.984 . S
N444 H457 0.985 . S
N445 C447 1.356 . S
N445 H450 0.984 . S
N445 H451 0.985 . S
C446 C440 1.379 . S
C446 C443 1.363 . S
C446 N444 1.356 . S
C447 C441 1.363 . S
C447 C442 1.379 . S
C447 N445 1.356 . S
N448 C440 1.356 . S
N448 H454 0.984 . S
N448 H455 0.984 . S
N449 C442 1.356 . S
N449 H452 0.984 . S
N449 H453 0.985 . S
H450 N445 0.984 . S
H451 N445 0.985 . S
H452 N449 0.984 . S
H453 N449 0.985 . S
H454 N448 0.984 . S
H455 N448 0.984 . S
H456 N444 0.984 . S
H457 N444 0.985 . S
C458 C459 1.363 . S
C458 C464 1.379 . S
C458 N466 1.356 . S
C459 C458 1.363 . S
C459 C465 1.363 . S
C460 C461 1.363 . S
C460 C465 1.379 . S
C460 N467 1.356 . S
C461 C460 1.363 . S
C461 C464 1.363 . S
N462 C464 1.356 . S
N462 H474 0.984 . S
N462 H475 0.985 . S
N463 C465 1.356 . S
N463 H468 0.984 . S
N463 H469 0.985 . S
C464 C458 1.379 . S
C464 C461 1.363 . S
C464 N462 1.356 . S
C465 C459 1.363 . S
C465 C460 1.379 . S
C465 N463 1.356 . S
N466 C458 1.356 . S
N466 H472 0.984 . S
N466 H473 0.984 . S
N467 C460 1.356 . S
N467 H470 0.984 . S
N467 H471 0.985 . S
H468 N463 0.984 . S
H469 N463 0.985 . S
H470 N467 0.984 . S
H471 N467 0.985 . S
H472 N466 0.984 . S
H473 N466 0.984 . S
H474 N462 0.984 . S
H475 N462 0.985 . S
C476 C477 1.363 . S
C476 C482 1.379 1_554 S
C476 N484 1.356 . S
C477 C476 1.363 . S
C477 C483 1.363 . S
C478 C479 1.363 . S
C478 C483 1.379 . S
C478 N485 1.356 . S
C479 C478 1.363 . S
C479 C482 1.363 1_554 S
N480 C482 1.356 1_655 S
N480 H492 0.984 . S
N480 H493 0.985 . S
N481 C483 1.356 . S
N481 H486 0.984 . S
N481 H487 0.985 . S
C482 C476 1.379 1_556 S
C482 C479 1.363 1_556 S
C482 N480 1.356 1_455 S
C483 C477 1.363 . S
C483 C478 1.379 . S
C483 N481 1.356 . S
N484 C476 1.356 . S
N484 H490 0.985 1_455 S
N484 H491 0.984 . S
N485 C478 1.356 . S
N485 H488 0.984 . S
N485 H489 0.985 . S
H486 N481 0.984 . S
H487 N481 0.985 . S
H488 N485 0.984 . S
H489 N485 0.985 . S
H490 N484 0.985 1_655 S
H491 N484 0.984 . S
H492 N480 0.984 . S
H493 N480 0.985 . S
C494 C495 1.363 . S
C494 C500 1.379 1_554 S
C494 N502 1.356 1_554 S
C495 C494 1.363 . S
C495 C501 1.363 1_545 S
C496 C497 1.363 1_564 S
C496 C501 1.379 . S
C496 N503 1.356 . S
C497 C496 1.363 1_546 S
C497 C500 1.363 . S
N498 C500 1.356 . S
N498 H510 0.984 . S
N498 H511 0.985 . S
N499 C501 1.356 . S
N499 H504 0.984 . S
N499 H505 0.985 . S
C500 C494 1.379 1_556 S
C500 C497 1.363 . S
C500 N498 1.356 . S
C501 C495 1.363 1_565 S
C501 C496 1.379 . S
C501 N499 1.356 . S
N502 C494 1.356 1_556 S
N502 H508 0.984 . S
N502 H509 0.984 1_556 S
N503 C496 1.356 . S
N503 H506 0.984 . S
N503 H507 0.985 . S
H504 N499 0.984 . S
H505 N499 0.985 . S
H506 N503 0.984 . S
H507 N503 0.985 . S
H508 N502 0.984 . S
H509 N502 0.984 1_554 S
H510 N498 0.984 . S
H511 N498 0.985 . S
C512 C513 1.363 1_556 S
C512 C518 1.379 . S
C512 N520 1.356 . S
C513 C512 1.363 1_554 S
C513 C519 1.363 . S
C514 C515 1.363 1_554 S
C514 C519 1.379 . S
C514 N521 1.356 . S
C515 C514 1.363 1_556 S
C515 C518 1.363 . S
N516 C518 1.356 . S
N516 H528 0.984 . S
N516 H529 0.985 . S
N517 C519 1.356 . S
N517 H522 0.984 . S
N517 H523 0.985 . S
C518 C512 1.379 . S
C518 C515 1.363 . S
C518 N516 1.356 . S
C519 C513 1.363 . S
C519 C514 1.379 . S
C519 N517 1.356 . S
N520 C512 1.356 . S
N520 H526 0.984 . S
N520 H527 0.984 1_556 S
N521 C514 1.356 . S
N521 H524 0.984 1_554 S
N521 H525 0.985 . S
H522 N517 0.984 . S
H523 N517 0.985 . S
H524 N521 0.984 1_556 S
H525 N521 0.985 . S
H526 N520 0.984 . S
H527 N520 0.984 1_554 S
H528 N516 0.984 . S
H529 N516 0.985 . S
C530 C531 1.363 . S
C530 C536 1.379 1_554 S
C530 N538 1.356 . S
C531 C530 1.363 . S
C531 C537 1.363 . S
C532 C533 1.363 1_554 S
C532 C537 1.379 . S
C532 N539 1.356 1_554 S
C533 C532 1.363 1_556 S
C533 C536 1.363 . S
N534 C536 1.356 . S
N534 H546 0.984 . S
N534 H547 0.985 . S
N535 C537 1.356 . S
N535 H540 0.984 . S
N535 H541 0.985 . S
C536 C530 1.379 1_556 S
C536 C533 1.363 . S
C536 N534 1.356 . S
C537 C531 1.363 . S
C537 C532 1.379 . S
C537 N535 1.356 . S
N538 C530 1.356 . S
N538 H544 0.984 . S
N538 H545 0.984 . S
N539 C532 1.356 1_556 S
N539 H542 0.984 . S
N539 H543 0.985 1_556 S
H540 N535 0.984 . S
H541 N535 0.985 . S
H542 N539 0.984 . S
H543 N539 0.985 1_554 S
H544 N538 0.984 . S
H545 N538 0.984 . S
H546 N534 0.984 . S
H547 N534 0.985 . S
C548 C549 1.363 1_455 S
C548 C554 1.379 . S
C548 N556 1.356 . S
C549 C548 1.363 1_655 S
C549 C555 1.363 . S
C550 C551 1.363 . S
C550 C555 1.379 . S
C550 N557 1.356 . S
C551 C550 1.363 . S
C551 C554 1.363 1_655 S
N552 C554 1.356 . S
N552 H564 0.984 . S
N552 H565 0.982 1_455 S
N553 C555 1.356 . S
N553 H558 0.984 . S
N553 H559 0.985 . S
C554 C548 1.379 . S
C554 C551 1.363 1_455 S
C554 N552 1.356 . S
C555 C549 1.363 . S
C555 C550 1.379 . S
C555 N553 1.356 . S
N556 C548 1.356 . S
N556 H562 0.984 . S
N556 H563 0.984 . S
N557 C550 1.356 . S
N557 H560 0.984 . S
N557 H561 0.985 . S
H558 N553 0.984 . S
H559 N553 0.985 . S
H560 N557 0.984 . S
H561 N557 0.985 . S
H562 N556 0.984 . S
H563 N556 0.984 . S
H564 N552 0.984 . S
H565 N552 0.982 1_655 S
C566 C567 1.363 . S
C566 C572 1.379 . S
C566 N574 1.356 . S
C567 C566 1.363 . S
C567 C573 1.363 1_565 S
C568 C569 1.363 . S
C568 C573 1.379 1_565 S
C568 N575 1.361 . S
C569 C568 1.363 . S
C569 C572 1.363 . S
N570 C572 1.356 . S
N570 H582 0.984 . S
N570 H583 0.985 . S
N571 C573 1.356 . S
N571 H576 0.984 . S
N571 H577 0.985 . S
C572 C566 1.379 . S
C572 C569 1.363 . S
C572 N570 1.356 . S
C573 C567 1.363 1_545 S
C573 C568 1.379 1_545 S
C573 N571 1.356 . S
N574 C566 1.356 . S
N574 H580 0.984 . S
N574 H581 0.984 . S
N575 C568 1.361 . S
N575 H578 0.997 . S
N575 H579 0.969 1_565 S
H576 N571 0.984 . S
H577 N571 0.985 . S
H578 N575 0.997 . S
H579 N575 0.969 1_545 S
H580 N574 0.984 . S
H581 N574 0.984 . S
H582 N570 0.984 . S
H583 N570 0.985 . S
C584 C585 1.363 . S
C584 C590 1.379 . S
C584 N592 1.356 . S
C585 C584 1.363 . S
C585 C591 1.363 . S
C586 C587 1.363 . S
C586 C591 1.379 . S
C586 N593 1.356 . S
C587 C586 1.363 . S
C587 C590 1.363 . S
N588 C590 1.356 . S
N588 H600 0.984 . S
N588 H601 0.985 . S
N589 C591 1.356 . S
N589 H594 0.984 . S
N589 H595 0.985 . S
C590 C584 1.379 . S
C590 C587 1.363 . S
C590 N588 1.356 . S
C591 C585 1.363 . S
C591 C586 1.379 . S
C591 N589 1.356 . S
N592 C584 1.356 . S
N592 H598 0.984 . S
N592 H599 0.984 . S
N593 C586 1.356 . S
N593 H596 0.984 . S
N593 H597 0.985 . S
H594 N589 0.984 . S
H595 N589 0.985 . S
H596 N593 0.984 . S
H597 N593 0.985 . S
H598 N592 0.984 . S
H599 N592 0.984 . S
H600 N588 0.984 . S
H601 N588 0.985 . S
C602 C603 1.363 . S
C602 C608 1.379 . S
C602 N610 1.356 . S
C603 C602 1.363 . S
C603 C609 1.363 . S
C604 C605 1.363 . S
C604 C609 1.379 . S
C604 N611 1.356 . S
C605 C604 1.363 . S
C605 C608 1.363 . S
N606 C608 1.356 . S
N606 H618 0.984 . S
N606 H619 0.985 . S
N607 C609 1.356 . S
N607 H612 0.984 . S
N607 H613 0.985 . S
C608 C602 1.379 . S
C608 C605 1.363 . S
C608 N606 1.356 . S
C609 C603 1.363 . S
C609 C604 1.379 . S
C609 N607 1.356 . S
N610 C602 1.356 . S
N610 H616 0.984 . S
N610 H617 0.984 . S
N611 C604 1.356 . S
N611 H614 0.984 . S
N611 H615 0.985 . S
H612 N607 0.984 . S
H613 N607 0.985 . S
H614 N611 0.984 . S
H615 N611 0.985 . S
H616 N610 0.984 . S
H617 N610 0.984 . S
H618 N606 0.984 . S
H619 N606 0.985 . S
C189 C76 1.577 . S
C191 C112 1.625 . S
C209 C135 1.647 . S
C207 C88 1.596 . S
C227 C158 1.645 . S
C225 C52 1.598 . S
C245 C185 1.523 . S
C243 C64 1.572 . S
C263 C113 1.570 . S
C261 C28 1.530 . S
C279 C40 1.492 . S
C281 C136 1.536 . S
C297 C4 1.491 . S
C299 C159 1.529 . S
C315 C16 1.564 1_556 S
C317 C184 1.596 . S
C335 C114 0.753 . S
C333 C69 0.750 . S
C353 C137 0.721 . S
C351 C81 0.725 . S
C371 C160 0.745 . S
C369 C93 0.745 . S
C387 C57 0.897 . S
C389 C186 0.869 . S
C405 C21 0.996 1_556 S
C407 C117 0.950 . S
C425 C140 0.940 . S
C423 C33 0.994 . S
C443 C163 0.915 . S
C441 C45 0.963 . S
C459 C9 0.723 . S
C461 C183 0.722 . S
C477 C66 1.577 . S
C479 C115 1.548 1_554 S
C495 C78 1.534 . S
C497 C138 1.534 . S
C515 C161 1.547 . S
C513 C90 1.551 . S
C533 C182 1.465 . S
C531 C54 1.406 . S
C549 C18 1.659 1_655 S
C551 C116 1.570 . S
C569 C139 1.521 . S
C567 C30 1.617 1_565 S
C587 C162 1.507 . S
C585 C42 1.593 . S
C603 C6 1.652 . S
C605 C181 1.702 . S
