# Generated by pormake.
# Topology ptr, (4,4)-cn, num edge types: 1
# Building blocks:
#     Node 0, Type 0, BuildingBlock: QUQFOY_clean_sbu_3, # of connection points: 4
#     Node 1, Type 0, BuildingBlock: QUQFOY_clean_sbu_3, # of connection points: 4
#     Node 2, Type 0, BuildingBlock: QUQFOY_clean_sbu_3, # of connection points: 4
#     Node 3, Type 0, BuildingBlock: QUQFOY_clean_sbu_3, # of connection points: 4
#     Node 4, Type 0, BuildingBlock: QUQFOY_clean_sbu_3, # of connection points: 4
#     Node 5, Type 0, BuildingBlock: QUQFOY_clean_sbu_3, # of connection points: 4
#     Node 6, Type 0, BuildingBlock: QUQFOY_clean_sbu_3, # of connection points: 4
#     Node 7, Type 0, BuildingBlock: QUQFOY_clean_sbu_3, # of connection points: 4
#     Node 8, Type 0, BuildingBlock: QUQFOY_clean_sbu_3, # of connection points: 4
#     Node 9, Type 0, BuildingBlock: QUQFOY_clean_sbu_3, # of connection points: 4
#     Node 10, Type 0, BuildingBlock: QUQFOY_clean_sbu_3, # of connection points: 4
#     Node 11, Type 0, BuildingBlock: QUQFOY_clean_sbu_3, # of connection points: 4
#     Node 12, Type 0, BuildingBlock: QUQFOY_clean_sbu_3, # of connection points: 4
#     Node 13, Type 0, BuildingBlock: QUQFOY_clean_sbu_3, # of connection points: 4
#     Node 14, Type 0, BuildingBlock: QUQFOY_clean_sbu_3, # of connection points: 4
#     Node 15, Type 0, BuildingBlock: QUQFOY_clean_sbu_3, # of connection points: 4
#     Node 16, Type 0, BuildingBlock: QUQFOY_clean_sbu_3, # of connection points: 4
#     Node 17, Type 0, BuildingBlock: QUQFOY_clean_sbu_3, # of connection points: 4
#     Node 18, Type 1, BuildingBlock: GIZVER_clean_linker_0, # of connection points: 4
#     Node 19, Type 1, BuildingBlock: GIZVER_clean_linker_0, # of connection points: 4
#     Node 20, Type 1, BuildingBlock: GIZVER_clean_linker_0, # of connection points: 4
#     Node 21, Type 1, BuildingBlock: GIZVER_clean_linker_0, # of connection points: 4
#     Node 22, Type 1, BuildingBlock: GIZVER_clean_linker_0, # of connection points: 4
#     Node 23, Type 1, BuildingBlock: GIZVER_clean_linker_0, # of connection points: 4
#     Node 24, Type 1, BuildingBlock: GIZVER_clean_linker_0, # of connection points: 4
#     Node 25, Type 1, BuildingBlock: GIZVER_clean_linker_0, # of connection points: 4
#     Node 26, Type 1, BuildingBlock: GIZVER_clean_linker_0, # of connection points: 4
#     Node 27, Type 1, BuildingBlock: GIZVER_clean_linker_0, # of connection points: 4
#     Node 28, Type 1, BuildingBlock: GIZVER_clean_linker_0, # of connection points: 4
#     Node 29, Type 1, BuildingBlock: GIZVER_clean_linker_0, # of connection points: 4
#     Node 30, Type 1, BuildingBlock: GIZVER_clean_linker_0, # of connection points: 4
#     Node 31, Type 1, BuildingBlock: GIZVER_clean_linker_0, # of connection points: 4
#     Node 32, Type 1, BuildingBlock: GIZVER_clean_linker_0, # of connection points: 4
#     Node 33, Type 1, BuildingBlock: GIZVER_clean_linker_0, # of connection points: 4
#     Node 34, Type 1, BuildingBlock: GIZVER_clean_linker_0, # of connection points: 4
#     Node 35, Type 1, BuildingBlock: GIZVER_clean_linker_0, # of connection points: 4
#     Edge 36, Type (0, 1), BuildingBlock: OJICUG_clean_linker_0, # of connection points: 2
#     Edge 37, Type (0, 1), BuildingBlock: OJICUG_clean_linker_0, # of connection points: 2
#     Edge 38, Type (0, 1), BuildingBlock: OJICUG_clean_linker_0, # of connection points: 2
#     Edge 39, Type (0, 1), BuildingBlock: OJICUG_clean_linker_0, # of connection points: 2
#     Edge 40, Type (0, 1), BuildingBlock: OJICUG_clean_linker_0, # of connection points: 2
#     Edge 41, Type (0, 1), BuildingBlock: OJICUG_clean_linker_0, # of connection points: 2
#     Edge 42, Type (0, 1), BuildingBlock: OJICUG_clean_linker_0, # of connection points: 2
#     Edge 43, Type (0, 1), BuildingBlock: OJICUG_clean_linker_0, # of connection points: 2
#     Edge 44, Type (0, 1), BuildingBlock: OJICUG_clean_linker_0, # of connection points: 2
#     Edge 45, Type (0, 1), BuildingBlock: OJICUG_clean_linker_0, # of connection points: 2
#     Edge 46, Type (0, 1), BuildingBlock: OJICUG_clean_linker_0, # of connection points: 2
#     Edge 47, Type (0, 1), BuildingBlock: OJICUG_clean_linker_0, # of connection points: 2
#     Edge 48, Type (0, 1), BuildingBlock: OJICUG_clean_linker_0, # of connection points: 2
#     Edge 49, Type (0, 1), BuildingBlock: OJICUG_clean_linker_0, # of connection points: 2
#     Edge 50, Type (0, 1), BuildingBlock: OJICUG_clean_linker_0, # of connection points: 2
#     Edge 51, Type (0, 1), BuildingBlock: OJICUG_clean_linker_0, # of connection points: 2
#     Edge 52, Type (0, 1), BuildingBlock: OJICUG_clean_linker_0, # of connection points: 2
#     Edge 53, Type (0, 1), BuildingBlock: OJICUG_clean_linker_0, # of connection points: 2
#     Edge 54, Type (0, 1), BuildingBlock: OJICUG_clean_linker_0, # of connection points: 2
#     Edge 55, Type (0, 1), BuildingBlock: OJICUG_clean_linker_0, # of connection points: 2
#     Edge 56, Type (0, 1), BuildingBlock: OJICUG_clean_linker_0, # of connection points: 2
#     Edge 57, Type (0, 1), BuildingBlock: OJICUG_clean_linker_0, # of connection points: 2
#     Edge 58, Type (0, 1), BuildingBlock: OJICUG_clean_linker_0, # of connection points: 2
#     Edge 59, Type (0, 1), BuildingBlock: OJICUG_clean_linker_0, # of connection points: 2
#     Edge 60, Type (0, 1), BuildingBlock: OJICUG_clean_linker_0, # of connection points: 2
#     Edge 61, Type (0, 1), BuildingBlock: OJICUG_clean_linker_0, # of connection points: 2
#     Edge 62, Type (0, 1), BuildingBlock: OJICUG_clean_linker_0, # of connection points: 2
#     Edge 63, Type (0, 1), BuildingBlock: OJICUG_clean_linker_0, # of connection points: 2
#     Edge 64, Type (0, 1), BuildingBlock: OJICUG_clean_linker_0, # of connection points: 2
#     Edge 65, Type (0, 1), BuildingBlock: OJICUG_clean_linker_0, # of connection points: 2
#     Edge 66, Type (0, 1), BuildingBlock: OJICUG_clean_linker_0, # of connection points: 2
#     Edge 67, Type (0, 1), BuildingBlock: OJICUG_clean_linker_0, # of connection points: 2
#     Edge 68, Type (0, 1), BuildingBlock: OJICUG_clean_linker_0, # of connection points: 2
#     Edge 69, Type (0, 1), BuildingBlock: OJICUG_clean_linker_0, # of connection points: 2
#     Edge 70, Type (0, 1), BuildingBlock: OJICUG_clean_linker_0, # of connection points: 2
#     Edge 71, Type (0, 1), BuildingBlock: OJICUG_clean_linker_0, # of connection points: 2
#     Edge 72, Type (0, 1), BuildingBlock: OJICUG_clean_linker_0, # of connection points: 2
#     Edge 73, Type (0, 1), BuildingBlock: OJICUG_clean_linker_0, # of connection points: 2
#     Edge 74, Type (0, 1), BuildingBlock: OJICUG_clean_linker_0, # of connection points: 2
#     Edge 75, Type (0, 1), BuildingBlock: OJICUG_clean_linker_0, # of connection points: 2
#     Edge 76, Type (0, 1), BuildingBlock: OJICUG_clean_linker_0, # of connection points: 2
#     Edge 77, Type (0, 1), BuildingBlock: OJICUG_clean_linker_0, # of connection points: 2
#     Edge 78, Type (0, 1), BuildingBlock: OJICUG_clean_linker_0, # of connection points: 2
#     Edge 79, Type (0, 1), BuildingBlock: OJICUG_clean_linker_0, # of connection points: 2
#     Edge 80, Type (0, 1), BuildingBlock: OJICUG_clean_linker_0, # of connection points: 2
#     Edge 81, Type (0, 1), BuildingBlock: OJICUG_clean_linker_0, # of connection points: 2
#     Edge 82, Type (0, 1), BuildingBlock: OJICUG_clean_linker_0, # of connection points: 2
#     Edge 83, Type (0, 1), BuildingBlock: OJICUG_clean_linker_0, # of connection points: 2
#     Edge 84, Type (0, 1), BuildingBlock: OJICUG_clean_linker_0, # of connection points: 2
#     Edge 85, Type (0, 1), BuildingBlock: OJICUG_clean_linker_0, # of connection points: 2
#     Edge 86, Type (0, 1), BuildingBlock: OJICUG_clean_linker_0, # of connection points: 2
#     Edge 87, Type (0, 1), BuildingBlock: OJICUG_clean_linker_0, # of connection points: 2
#     Edge 88, Type (0, 1), BuildingBlock: OJICUG_clean_linker_0, # of connection points: 2
#     Edge 89, Type (0, 1), BuildingBlock: OJICUG_clean_linker_0, # of connection points: 2
#     Edge 90, Type (0, 1), BuildingBlock: OJICUG_clean_linker_0, # of connection points: 2
#     Edge 91, Type (0, 1), BuildingBlock: OJICUG_clean_linker_0, # of connection points: 2
#     Edge 92, Type (0, 1), BuildingBlock: OJICUG_clean_linker_0, # of connection points: 2
#     Edge 93, Type (0, 1), BuildingBlock: OJICUG_clean_linker_0, # of connection points: 2
#     Edge 94, Type (0, 1), BuildingBlock: OJICUG_clean_linker_0, # of connection points: 2
#     Edge 95, Type (0, 1), BuildingBlock: OJICUG_clean_linker_0, # of connection points: 2
#     Edge 96, Type (0, 1), BuildingBlock: OJICUG_clean_linker_0, # of connection points: 2
#     Edge 97, Type (0, 1), BuildingBlock: OJICUG_clean_linker_0, # of connection points: 2
#     Edge 98, Type (0, 1), BuildingBlock: OJICUG_clean_linker_0, # of connection points: 2
#     Edge 99, Type (0, 1), BuildingBlock: OJICUG_clean_linker_0, # of connection points: 2
#     Edge 100, Type (0, 1), BuildingBlock: OJICUG_clean_linker_0, # of connection points: 2
#     Edge 101, Type (0, 1), BuildingBlock: OJICUG_clean_linker_0, # of connection points: 2
#     Edge 102, Type (0, 1), BuildingBlock: OJICUG_clean_linker_0, # of connection points: 2
#     Edge 103, Type (0, 1), BuildingBlock: OJICUG_clean_linker_0, # of connection points: 2
#     Edge 104, Type (0, 1), BuildingBlock: OJICUG_clean_linker_0, # of connection points: 2
#     Edge 105, Type (0, 1), BuildingBlock: OJICUG_clean_linker_0, # of connection points: 2
#     Edge 106, Type (0, 1), BuildingBlock: OJICUG_clean_linker_0, # of connection points: 2
#     Edge 107, Type (0, 1), BuildingBlock: OJICUG_clean_linker_0, # of connection points: 2
# Relax obj value: 0.043
# Max RMSD: 0.108
# Mean RMSD: 0.075
data_MOF--net-ptr--node1-QUQFOY_clean_sbu_3--node2-GIZVER_clean_linker_0--edge1-OJICUG_clean_linker_0
_symmetry_space_group_name_H-M    P1
_symmetry_Int_Tables_number       1
_symmetry_cell_setting            triclinic
loop_
_symmetry_equiv_pos_as_xyz
'x, y, z'
_cell_length_a     59.556251
_cell_length_b     59.750253
_cell_length_c     37.040929
_cell_angle_alpha  90.736005
_cell_angle_beta   89.943794
_cell_angle_gamma 120.72012
loop_
_atom_site_label
_atom_site_type_symbol
_atom_site_fract_x
_atom_site_fract_y
_atom_site_fract_z
_atom_type_partial_charge
C0 C 0.96076 0.34453 -0.00261 0.0
O1 O 0.95045 0.3567 0.01105 0.0
Cd2 Cd 0.97733 0.40243 0.02051 0.0
O3 O 0.98517 0.35654 -0.00942 0.0
Cd4 Cd 0.02587 0.40024 -0.00261 0.0
C5 C 0.00307 0.42369 0.93552 0.0
O6 O 0.01334 0.40729 0.0566 0.0
O7 O 0.04523 0.4416 0.03262 0.0
O8 O 0.04251 0.3711 0.00621 0.0
C9 C 0.03172 0.43065 0.06028 0.0
O10 O 0.98658 0.42098 0.95955 0.0
C11 C 0.06595 0.38714 -0.0022 0.0
O12 O 0.01987 0.4171 0.94167 0.0
O13 O 0.07107 0.40959 0.98828 0.0
C14 C 0.60805 0.65918 0.0017 0.0
O15 O 0.58408 0.64484 -0.00668 0.0
Cd16 Cd 0.56554 0.59948 0.97744 0.0
O17 O 0.62307 0.6498 0.00123 0.0
Cd18 Cd 0.62065 0.60779 0.98678 0.0
C19 C 0.57804 0.57635 0.05372 0.0
O20 O 0.59308 0.59611 0.93255 0.0
O21 O 0.59917 0.56611 0.95354 0.0
O22 O 0.66486 0.63409 0.96327 0.0
C23 C 0.59046 0.57379 0.92837 0.0
O24 O 0.56056 0.57589 0.03343 0.0
C25 C 0.67387 0.6213 0.97832 0.0
O26 O 0.60183 0.58833 0.04411 0.0
O27 O 0.65826 0.60255 -0.00191 0.0
C28 C 0.33133 0.95256 -0.00331 0.0
O29 O 0.34046 0.9415 0.97711 0.0
Cd30 Cd 0.38593 0.96288 0.96284 0.0
O31 O 0.34527 0.97662 0.00546 0.0
Cd32 Cd 0.38832 0.01641 -0.00534 0.0
C33 C 0.41077 0.98681 0.04891 0.0
O34 O 0.39478 0.00255 0.9367 0.0
O35 O 0.42883 0.03633 0.95903 0.0
O36 O 0.36451 0.03834 0.98099 0.0
C37 C 0.41849 0.02007 0.93319 0.0
O38 O 0.40606 0.97062 0.02311 0.0
C39 C 0.37972 0.05931 -0.00188 0.0
O40 O 0.40581 0.00509 0.04579 0.0
O41 O 0.39853 0.06 0.01537 0.0
C42 C 0.94195 0.59491 0.00228 0.0
O43 O 0.93367 0.5714 0.0105 0.0
Cd44 Cd 0.96306 0.5562 0.02326 0.0
O45 O 0.96642 0.61124 0.00121 0.0
Cd46 Cd 0.00794 0.6118 0.01186 0.0
C47 C 0.99466 0.56883 0.94322 0.0
O48 O 0.99448 0.5863 0.06711 0.0
O49 O 0.03081 0.59338 0.04399 0.0
O50 O 0.02499 0.65647 0.03334 0.0
C51 C 0.01514 0.58534 0.07028 0.0
O52 O 0.97889 0.55096 0.96418 0.0
C53 C 0.0469 0.66596 0.01766 0.0
O54 O 0.0065 0.59249 0.95367 0.0
O55 O 0.05055 0.65036 -0.00152 0.0
C56 C 0.32646 0.40224 0.00465 0.0
O57 O 0.33319 0.42522 -0.00448 0.0
Cd58 Cd 0.37794 0.45635 0.98313 0.0
O59 O 0.34319 0.39497 0.00523 0.0
Cd60 Cd 0.38961 0.41126 -0.00933 0.0
C61 C 0.40903 0.45464 0.06021 0.0
O62 O 0.3922 0.43689 0.93835 0.0
O63 O 0.42886 0.44309 0.95912 0.0
O64 O 0.37798 0.37242 0.95506 0.0
C65 C 0.41653 0.44652 0.93393 0.0
O66 O 0.40067 0.4666 0.04139 0.0
C67 C 0.38976 0.36406 0.97411 0.0
O68 O 0.40706 0.43354 0.04862 0.0
O69 O 0.40159 0.37744 0.00211 0.0
C70 C 0.67719 0.07733 0.01601 0.0
O71 O 0.66308 0.08744 0.0201 0.0
Cd72 Cd 0.61721 0.06138 0.03395 0.0
O73 O 0.66715 0.05279 0.01859 0.0
Cd74 Cd 0.62348 0.01397 0.03001 0.0
C75 C 0.59408 0.02366 0.95846 0.0
O76 O 0.61099 0.03162 0.08182 0.0
O77 O 0.58054 0.9956 0.05828 0.0
O78 O 0.64525 0.9939 0.06056 0.0
C79 C 0.588 0.01217 0.0839 0.0
O80 O 0.59329 0.04105 0.9777 0.0
C81 C 0.63415 0.97278 0.0423 0.0
O82 O 0.60584 0.01236 0.96994 0.0
O83 O 0.61819 0.97082 0.01801 0.0
C84 C 0.62803 0.67948 0.31184 0.0
O85 O 0.61845 0.69334 0.32147 0.0
Cd86 Cd 0.64558 0.73841 0.33801 0.0
O87 O 0.65278 0.6895 0.30994 0.0
Cd88 Cd 0.69451 0.73193 0.32098 0.0
C89 C 0.67996 0.76468 0.25982 0.0
O90 O 0.67712 0.73774 0.37729 0.0
O91 O 0.7151 0.7696 0.36326 0.0
O92 O 0.70998 0.70175 0.33218 0.0
C93 C 0.69693 0.75931 0.38621 0.0
O94 O 0.6629 0.76293 0.2822 0.0
C95 C 0.73372 0.71749 0.32462 0.0
O96 O 0.69321 0.75386 0.26624 0.0
O97 O 0.73929 0.73984 0.31393 0.0
C98 C 0.27914 0.01754 0.3381 0.0
O99 O 0.25576 0.00842 0.32753 0.0
Cd100 Cd 0.22845 0.96251 0.31618 0.0
O101 O 0.28865 0.00272 0.34018 0.0
Cd102 Cd 0.27751 0.95723 0.32753 0.0
C103 C 0.23486 0.93819 0.39653 0.0
O104 O 0.25038 0.94936 0.27335 0.0
O105 O 0.24931 0.91588 0.29657 0.0
O106 O 0.32174 0.97807 0.30357 0.0
C107 C 0.24297 0.92535 0.27081 0.0
O108 O 0.22077 0.94322 0.37628 0.0
C109 C 0.32806 0.96282 0.31775 0.0
O110 O 0.25686 0.94208 0.38583 0.0
O111 O 0.31088 0.94476 0.33708 0.0
C112 C 0.98525 0.26889 0.32284 0.0
O113 O 0.995 0.25842 0.30329 0.0
Cd114 Cd 0.04032 0.28172 0.28736 0.0
O115 O 0.99835 0.29313 0.33094 0.0
Cd116 Cd 0.04049 0.33355 0.31829 0.0
C117 C 0.06702 0.30742 0.37153 0.0
O118 O 0.04719 0.32038 0.25938 0.0
O119 O 0.08051 0.35472 0.28192 0.0
O120 O 0.01674 0.35613 0.30737 0.0
C121 C 0.07059 0.33868 0.25579 0.0
O122 O 0.06256 0.29087 0.34635 0.0
C123 C 0.03209 0.3764 0.32578 0.0
O124 O 0.06046 0.3245 0.36821 0.0
O125 O 0.05081 0.37628 0.34203 0.0
C126 C 0.59306 0.91894 0.33793 0.0
O127 O 0.58158 0.89797 0.35555 0.0
Cd128 Cd 0.6056 0.8768 0.36928 0.0
O129 O 0.61757 0.93031 0.3322 0.0
Cd130 Cd 0.65674 0.92786 0.34902 0.0
C131 C 0.63473 0.87864 0.28814 0.0
O132 O 0.64207 0.90618 0.40737 0.0
O133 O 0.67565 0.90707 0.38362 0.0
O134 O 0.67718 0.97382 0.36601 0.0
C135 C 0.66076 0.9019 0.41059 0.0
O136 O 0.61636 0.86516 0.31011 0.0
C137 C 0.69893 0.98112 0.3508 0.0
O138 O 0.65182 0.90219 0.29552 0.0
O139 O 0.70105 0.96371 0.33375 0.0
C140 C 0.01807 0.73332 0.35661 0.0
O141 O 0.03314 0.7572 0.34943 0.0
Cd142 Cd 0.07841 0.77524 0.33537 0.0
O143 O 0.02697 0.71794 0.35863 0.0
Cd144 Cd 0.06939 0.71947 0.35189 0.0
C145 C 0.10267 0.76715 0.41452 0.0
O146 O 0.07782 0.7429 0.29596 0.0
O147 O 0.10872 0.73689 0.31381 0.0
O148 O 0.04114 0.67363 0.33521 0.0
C149 C 0.09944 0.74454 0.28939 0.0
O150 O 0.10282 0.78301 0.39175 0.0
C151 C 0.05573 0.66604 0.34842 0.0
O152 O 0.09022 0.74278 0.40786 0.0
O153 O 0.07619 0.68311 0.36484 0.0
C154 C 0.33105 0.41145 0.33867 0.0
O155 O 0.31391 0.41775 0.34384 0.0
Cd156 Cd 0.26971 0.38566 0.36001 0.0
O157 O 0.32496 0.38778 0.34133 0.0
Cd158 Cd 0.28505 0.3454 0.35433 0.0
C159 C 0.24967 0.34784 0.28471 0.0
O160 O 0.26977 0.35852 0.40819 0.0
O161 O 0.243 0.32075 0.38496 0.0
O162 O 0.31388 0.33263 0.38198 0.0
C163 C 0.24882 0.33671 0.4111 0.0
O164 O 0.2459 0.36317 0.30452 0.0
C165 C 0.30505 0.31133 0.3645 0.0
O166 O 0.26487 0.34013 0.29529 0.0
O167 O 0.28692 0.30585 0.34183 0.0
C168 C 0.30175 0.03553 0.66298 0.0
O169 O 0.29513 0.05228 0.66965 0.0
Cd170 Cd 0.32559 0.09685 0.68557 0.0
O171 O 0.32582 0.04213 0.66345 0.0
Cd172 Cd 0.36952 0.08267 0.67414 0.0
C173 C 0.36076 0.11617 0.60765 0.0
O174 O 0.35437 0.09434 0.72842 0.0
O175 O 0.39369 0.1223 0.713 0.0
O176 O 0.38173 0.05055 0.68929 0.0
C177 C 0.37551 0.11521 0.73578 0.0
O178 O 0.34533 0.11867 0.62889 0.0
C179 C 0.40509 0.06378 0.67821 0.0
O180 O 0.37081 0.10269 0.61668 0.0
O181 O 0.412 0.08581 0.66485 0.0
C182 C 0.92535 0.33303 0.66693 0.0
O183 O 0.90076 0.31812 0.66454 0.0
Cd184 Cd 0.8805 0.27234 0.65052 0.0
O185 O 0.94041 0.32385 0.66298 0.0
Cd186 Cd 0.93536 0.28019 0.6521 0.0
C187 C 0.89713 0.25266 0.72551 0.0
O188 O 0.90409 0.26686 0.60124 0.0
O189 O 0.91102 0.23743 0.62211 0.0
O190 O 0.97904 0.30348 0.62487 0.0
C191 C 0.90102 0.24433 0.5977 0.0
O192 O 0.87802 0.25041 0.70715 0.0
C193 C 0.98745 0.29021 0.6401 0.0
O194 O 0.92009 0.26445 0.71261 0.0
O195 O 0.97183 0.27257 0.66128 0.0
C196 C 0.65545 0.58913 0.64752 0.0
O197 O 0.66829 0.57969 0.63329 0.0
Cd198 Cd 0.71388 0.60506 0.61947 0.0
O199 O 0.66642 0.61351 0.65424 0.0
Cd200 Cd 0.70936 0.65427 0.64675 0.0
C201 C 0.73801 0.63171 0.70344 0.0
O202 O 0.71895 0.6421 0.58833 0.0
O203 O 0.74985 0.6777 0.61228 0.0
O204 O 0.68408 0.67472 0.63275 0.0
C205 C 0.74165 0.66189 0.58577 0.0
O206 O 0.73576 0.61585 0.67842 0.0
C207 C 0.69796 0.69525 0.65149 0.0
O208 O 0.72918 0.64696 0.69931 0.0
O209 O 0.71669 0.69633 0.66938 0.0
C210 C 0.24826 0.24384 0.67341 0.0
O211 O 0.23828 0.21949 0.67715 0.0
Cd212 Cd 0.26423 0.20051 0.69198 0.0
O213 O 0.27273 0.25913 0.678 0.0
Cd214 Cd 0.31069 0.25445 0.69372 0.0
C215 C 0.30361 0.21725 0.61979 0.0
O216 O 0.29155 0.22405 0.74382 0.0
O217 O 0.32822 0.23023 0.72344 0.0
O218 O 0.33192 0.29489 0.72917 0.0
C219 C 0.3115 0.22199 0.74856 0.0
O220 O 0.28494 0.19799 0.63571 0.0
C221 C 0.35241 0.3063 0.71011 0.0
O222 O 0.3149 0.23968 0.63465 0.0
O223 O 0.35339 0.29386 0.68274 0.0
C224 C 0.67118 0.05319 0.68533 0.0
O225 O 0.6857 0.07685 0.67659 0.0
Cd226 Cd 0.73098 0.09488 0.66237 0.0
O227 O 0.68053 0.03824 0.68777 0.0
Cd228 Cd 0.72263 0.03981 0.67998 0.0
C229 C 0.75343 0.08716 0.74316 0.0
O230 O 0.73126 0.06262 0.62344 0.0
O231 O 0.76246 0.05767 0.64319 0.0
O232 O 0.69438 0.99388 0.66457 0.0
C233 C 0.75311 0.0645 0.61781 0.0
O234 O 0.75428 0.1031 0.71995 0.0
C235 C 0.70907 0.98654 0.67821 0.0
O236 O 0.74154 0.06286 0.73623 0.0
O237 O 0.72972 0.00387 0.69396 0.0
C238 C 0.01952 0.74538 0.67453 0.0
O239 O 0.00471 0.7543 0.68188 0.0
Cd240 Cd 0.95888 0.72507 0.69396 0.0
O241 O 0.01016 0.72087 0.67256 0.0
Cd242 Cd 0.96782 0.67955 0.67937 0.0
C243 C 0.93613 0.69225 0.61424 0.0
O244 O 0.95502 0.69239 0.73567 0.0
O245 O 0.92595 0.65643 0.71027 0.0
O246 O 0.99499 0.66228 0.69941 0.0
C247 C 0.93285 0.67172 0.73735 0.0
O248 O 0.93512 0.7081 0.63655 0.0
C249 C 0.98275 0.64083 0.68208 0.0
O250 O 0.9487 0.68099 0.62215 0.0
O251 O 0.96351 0.63728 0.66293 0.0
H252 H 0.13699 0.31572 0.1391 0.0
H253 H 0.14464 0.33794 0.02754 0.0
H254 H 0.11457 0.3698 0.10543 0.0
H255 H 0.14169 0.2894 0.0878 0.0
H256 H 0.15326 0.30428 0.04493 0.0
H257 H 0.17098 0.30895 0.14378 0.0
H258 H 0.25319 0.34818 0.12273 0.0
H259 H 0.19949 0.33322 0.03569 0.0
C260 C 0.13623 0.32781 0.11821 0.0
C261 C 0.12617 0.34389 0.12649 0.0
C262 C 0.14418 0.32646 0.08292 0.0
C263 C 0.14042 0.34028 0.05534 0.0
C264 C 0.12989 0.3561 0.06349 0.0
C265 C 0.12381 0.35856 0.09932 0.0
C266 C 0.15428 0.30838 0.07446 0.0
C267 C 0.18196 0.31964 0.08806 0.0
C268 C 0.18696 0.31827 0.12493 0.0
C269 C 0.21264 0.32869 0.1376 0.0
C270 C 0.23326 0.33976 0.11303 0.0
C271 C 0.22866 0.34134 0.07636 0.0
C272 C 0.20304 0.33174 0.06401 0.0
H273 H 0.67353 0.82761 0.11597 0.0
H274 H 0.63045 0.7777 0.02547 0.0
H275 H 0.66205 0.75082 0.10652 0.0
H276 H 0.66056 0.83644 0.03519 0.0
H277 H 0.62635 0.81476 0.03749 0.0
H278 H 0.63206 0.82089 0.12881 0.0
H279 H 0.63746 0.89472 0.14096 0.0
H280 H 0.64728 0.86967 0.03592 0.0
C281 C 0.66519 0.8092 0.1015 0.0
C282 C 0.66872 0.78944 0.11553 0.0
C283 C 0.65008 0.80466 0.06993 0.0
C284 C 0.64117 0.78108 0.05053 0.0
C285 C 0.64651 0.76211 0.06277 0.0
C286 C 0.65983 0.76632 0.09555 0.0
C287 C 0.64441 0.82479 0.05429 0.0
C288 C 0.64181 0.84363 0.07966 0.0
C289 C 0.63577 0.83882 0.11668 0.0
C290 C 0.63564 0.85794 0.13881 0.0
C291 C 0.63836 0.88045 0.12356 0.0
C292 C 0.64191 0.88463 0.0864 0.0
C293 C 0.64391 0.86627 0.06463 0.0
H294 H 0.18116 0.79356 0.15685 0.0
H295 H 0.15987 0.77888 0.04412 0.0
H296 H 0.10169 0.74119 0.12627 0.0
H297 H 0.21466 0.80598 0.10728 0.0
H298 H 0.20507 0.80526 0.06132 0.0
H299 H 0.19214 0.83411 0.14673 0.0
H300 H 0.23871 0.91202 0.11061 0.0
H301 H 0.23324 0.8489 0.04639 0.0
C302 C 0.16642 0.78459 0.13585 0.0
C303 C 0.14031 0.76835 0.14547 0.0
C304 C 0.17342 0.79008 0.09936 0.0
C305 C 0.15441 0.77615 0.07234 0.0
C306 C 0.12849 0.75807 0.08194 0.0
C307 C 0.12158 0.75509 0.11848 0.0
C308 C 0.20153 0.80919 0.08957 0.0
C309 C 0.20938 0.83769 0.09395 0.0
C310 C 0.20391 0.84715 0.12583 0.0
C311 C 0.21509 0.87394 0.13252 0.0
C312 C 0.23048 0.89139 0.10575 0.0
C313 C 0.23796 0.88286 0.07497 0.0
C314 C 0.22691 0.85587 0.06907 0.0
H315 H 0.36343 0.19872 0.88917 0.0
H316 H 0.40836 0.26487 0.96051 0.0
H317 H 0.34747 0.26048 0.89308 0.0
H318 H 0.42589 0.23442 0.92575 0.0
H319 H 0.40964 0.22303 0.96713 0.0
H320 H 0.40443 0.20218 0.86837 0.0
H321 H 0.37605 0.12239 0.89431 0.0
H322 H 0.39308 0.17822 0.97975 0.0
C323 C 0.36789 0.21715 0.9009 0.0
C324 C 0.35397 0.22845 0.88786 0.0
C325 C 0.38785 0.23012 0.92705 0.0
C326 C 0.39255 0.25424 0.94132 0.0
C327 C 0.37797 0.26534 0.92937 0.0
C328 C 0.35838 0.25188 0.9032 0.0
C329 C 0.40646 0.22072 0.9374 0.0
C330 C 0.39867 0.19324 0.92539 0.0
C331 C 0.39869 0.18716 0.88839 0.0
C332 C 0.3892 0.16132 0.87715 0.0
C333 C 0.38227 0.14213 0.90308 0.0
C334 C 0.38416 0.1481 0.94 0.0
C335 C 0.39203 0.17364 0.95118 0.0
H336 H 0.85808 0.18375 0.87139 0.0
H337 H 0.87826 0.2157 0.97987 0.0
H338 H 0.90915 0.26537 0.88807 0.0
H339 H 0.86136 0.15887 0.93373 0.0
H340 H 0.85291 0.16994 0.97334 0.0
H341 H 0.83082 0.14316 0.87919 0.0
H342 H 0.74972 0.10796 0.90426 0.0
H343 H 0.80735 0.15467 0.98476 0.0
C344 C 0.86732 0.19997 0.89002 0.0
C345 C 0.88302 0.22482 0.87568 0.0
C346 C 0.86504 0.19623 0.92775 0.0
C347 C 0.879 0.2181 0.95086 0.0
C348 C 0.8952 0.24291 0.93644 0.0
C349 C 0.89682 0.2461 0.89905 0.0
C350 C 0.85114 0.16901 0.94339 0.0
C351 C 0.82264 0.15262 0.9324 0.0
C352 C 0.81587 0.14106 0.89776 0.0
C353 C 0.78971 0.12577 0.88715 0.0
C354 C 0.77005 0.12036 0.91212 0.0
C355 C 0.77628 0.13033 0.94739 0.0
C356 C 0.80256 0.14697 0.95741 0.0
H357 H 0.83562 0.62628 0.84806 0.0
H358 H 0.83749 0.59871 0.95423 0.0
H359 H 0.90848 0.64422 0.89501 0.0
H360 H 0.79774 0.57893 0.8822 0.0
H361 H 0.7964 0.58531 0.92876 0.0
H362 H 0.79334 0.60623 0.83514 0.0
H363 H 0.74702 0.63908 0.86682 0.0
H364 H 0.77914 0.61232 0.9478 0.0
C365 C 0.84629 0.62573 0.87117 0.0
C366 C 0.87354 0.63785 0.86875 0.0
C367 C 0.83298 0.61187 0.90215 0.0
C368 C 0.84755 0.61028 0.9309 0.0
C369 C 0.87487 0.62212 0.92873 0.0
C370 C 0.88765 0.63632 0.89786 0.0
C371 C 0.80341 0.59497 0.90227 0.0
C372 C 0.78933 0.60923 0.89267 0.0
C373 C 0.78564 0.61307 0.85624 0.0
C374 C 0.77142 0.62498 0.84684 0.0
C375 C 0.75976 0.63186 0.87422 0.0
C376 C 0.76201 0.62704 0.91062 0.0
C377 C 0.77744 0.61632 0.9198 0.0
H378 H 0.81766 0.6561 0.46675 0.0
H379 H 0.82358 0.68087 0.35656 0.0
H380 H 0.78048 0.69778 0.43441 0.0
H381 H 0.83037 0.63642 0.41405 0.0
H382 H 0.84098 0.6538 0.37279 0.0
H383 H 0.85631 0.66052 0.47369 0.0
H384 H 0.93878 0.70396 0.4564 0.0
H385 H 0.88667 0.68245 0.36564 0.0
C386 C 0.81461 0.66707 0.44636 0.0
C387 C 0.79941 0.67808 0.45488 0.0
C388 C 0.8248 0.66922 0.41145 0.0
C389 C 0.81763 0.6808 0.38423 0.0
C390 C 0.80154 0.69102 0.39255 0.0
C391 C 0.79343 0.69049 0.42815 0.0
C392 C 0.8404 0.6563 0.40253 0.0
C393 C 0.86794 0.67111 0.41794 0.0
C394 C 0.8724 0.67099 0.4554 0.0
C395 C 0.89792 0.68304 0.46924 0.0
C396 C 0.91902 0.69515 0.44577 0.0
C397 C 0.91508 0.69486 0.40862 0.0
C398 C 0.8896 0.68308 0.39459 0.0
H399 H 0.37494 0.18346 0.4611 0.0
H400 H 0.33157 0.14334 0.36492 0.0
H401 H 0.34231 0.10098 0.44936 0.0
H402 H 0.37839 0.20666 0.40098 0.0
H403 H 0.35329 0.18959 0.36776 0.0
H404 H 0.33718 0.18499 0.46824 0.0
H405 H 0.31512 0.24239 0.46383 0.0
H406 H 0.34428 0.22486 0.36823 0.0
C407 C 0.3638 0.16564 0.4454 0.0
C408 C 0.35917 0.14205 0.45965 0.0
C409 C 0.3529 0.16617 0.41195 0.0
C410 C 0.33934 0.14304 0.39124 0.0
C411 C 0.33659 0.1197 0.40395 0.0
C412 C 0.34612 0.11934 0.4384 0.0
C413 C 0.3574 0.19171 0.3973 0.0
C414 C 0.34178 0.20249 0.41531 0.0
C415 C 0.33466 0.19842 0.45216 0.0
C416 C 0.32545 0.21305 0.46963 0.0
C417 C 0.32216 0.23101 0.45014 0.0
C418 C 0.32854 0.23508 0.41359 0.0
C419 C 0.33826 0.22079 0.39617 0.0
H420 H 0.83552 0.10926 0.48599 0.0
H421 H 0.81532 0.09312 0.37306 0.0
H422 H 0.75618 0.05749 0.45445 0.0
H423 H 0.8695 0.12065 0.43689 0.0
H424 H 0.8604 0.12024 0.39078 0.0
H425 H 0.8497 0.15 0.47736 0.0
H426 H 0.89421 0.22734 0.43879 0.0
H427 H 0.88796 0.16373 0.37478 0.0
C428 C 0.82098 0.1004 0.46475 0.0
C429 C 0.79473 0.08459 0.47404 0.0
C430 C 0.8284 0.10536 0.42832 0.0
C431 C 0.80961 0.09097 0.40116 0.0
C432 C 0.78351 0.07324 0.41056 0.0
C433 C 0.77623 0.07103 0.4469 0.0
C434 C 0.85673 0.12422 0.41893 0.0
C435 C 0.8651 0.1529 0.42336 0.0
C436 C 0.86058 0.16272 0.45569 0.0
C437 C 0.87156 0.18954 0.46171 0.0
C438 C 0.88619 0.2067 0.43429 0.0
C439 C 0.89333 0.19795 0.40339 0.0
C440 C 0.88213 0.17089 0.3978 0.0
H441 H 0.06292 0.54754 0.19348 0.0
H442 H 0.06817 0.56428 0.30758 0.0
H443 H 0.02893 0.59011 0.23707 0.0
H444 H 0.09868 0.5489 0.23804 0.0
H445 H 0.08974 0.54306 0.28442 0.0
H446 H 0.07275 0.5157 0.19064 0.0
H447 H 0.0247 0.43699 0.22562 0.0
H448 H 0.0588 0.4993 0.30397 0.0
C449 C 0.0577 0.55505 0.21665 0.0
C450 C 0.04427 0.56837 0.21125 0.0
C451 C 0.06571 0.55273 0.25147 0.0
C452 C 0.06096 0.56484 0.28095 0.0
C453 C 0.04789 0.57861 0.27587 0.0
C454 C 0.03891 0.57944 0.24118 0.0
C455 C 0.08165 0.53977 0.25652 0.0
C456 C 0.06582 0.51091 0.24803 0.0
C457 C 0.06275 0.50195 0.21198 0.0
C458 C 0.04789 0.47527 0.20358 0.0
C459 C 0.03616 0.45764 0.23178 0.0
C460 C 0.04073 0.46591 0.268 0.0
C461 C 0.05515 0.4927 0.27605 0.0
H462 H 0.52414 0.51007 0.2031 0.0
H463 H 0.53297 0.5547 0.30028 0.0
H464 H 0.5833 0.59068 0.2097 0.0
H465 H 0.50503 0.48878 0.26389 0.0
H466 H 0.50356 0.50821 0.29985 0.0
H467 H 0.48428 0.50173 0.1994 0.0
H468 H 0.40354 0.46937 0.22272 0.0
H469 H 0.45814 0.48829 0.30993 0.0
C470 C 0.53331 0.52835 0.21802 0.0
C471 C 0.55365 0.55048 0.20187 0.0
C472 C 0.52473 0.52981 0.25297 0.0
C473 C 0.53865 0.55343 0.27288 0.0
C474 C 0.56067 0.57502 0.25783 0.0
C475 C 0.56749 0.57348 0.22214 0.0
C476 C 0.50246 0.5056 0.26999 0.0
C477 C 0.47528 0.49825 0.25665 0.0
C478 C 0.46939 0.49634 0.21945 0.0
C479 C 0.4437 0.48624 0.2072 0.0
C480 C 0.42355 0.47821 0.23227 0.0
C481 C 0.42858 0.47872 0.2693 0.0
C482 C 0.45443 0.48875 0.28138 0.0
H483 H 0.49245 0.97347 0.20071 0.0
H484 H 0.49536 0.92937 0.28988 0.0
H485 H 0.56564 0.98532 0.23615 0.0
H486 H 0.45403 0.91731 0.23195 0.0
H487 H 0.45467 0.92641 0.27762 0.0
H488 H 0.45193 0.9464 0.1823 0.0
H489 H 0.40443 0.97857 0.21081 0.0
H490 H 0.43162 0.94815 0.29359 0.0
C491 C 0.50306 0.96909 0.22004 0.0
C492 C 0.53009 0.98079 0.21515 0.0
C493 C 0.4902 0.95104 0.24785 0.0
C494 C 0.50525 0.94479 0.27049 0.0
C495 C 0.53252 0.95675 0.26628 0.0
C496 C 0.54472 0.97583 0.23978 0.0
C497 C 0.46045 0.93454 0.25005 0.0
C498 C 0.4454 0.94774 0.23951 0.0
C499 C 0.44303 0.95234 0.20291 0.0
C500 C 0.42977 0.96506 0.19281 0.0
C501 C 0.41631 0.97053 0.2191 0.0
C502 C 0.41622 0.96393 0.25529 0.0
C503 C 0.43138 0.9531 0.26561 0.0
H504 H 0.48216 0.99445 0.81459 0.0
H505 H 0.48383 0.01238 0.70195 0.0
H506 H 0.45601 0.04551 0.78124 0.0
H507 H 0.48539 0.96689 0.76267 0.0
H508 H 0.49629 0.98156 0.71959 0.0
H509 H 0.51552 0.98876 0.81873 0.0
H510 H 0.59705 0.02479 0.79525 0.0
H511 H 0.54232 0.00699 0.70868 0.0
C512 C 0.48035 0.00572 0.79345 0.0
C513 C 0.47002 0.02149 0.80205 0.0
C514 C 0.48698 0.0035 0.75769 0.0
C515 C 0.48094 0.01563 0.72998 0.0
C516 C 0.46976 0.03083 0.73857 0.0
C517 C 0.46551 0.03458 0.77472 0.0
C518 C 0.49762 0.98584 0.74909 0.0
C519 C 0.52553 0.99737 0.76221 0.0
C520 C 0.5311 0.99734 0.79927 0.0
C521 C 0.55688 0.00755 0.81136 0.0
C522 C 0.57706 0.01709 0.78618 0.0
C523 C 0.57186 0.01673 0.74936 0.0
C524 C 0.54621 0.00727 0.73731 0.0
H525 H 0.02425 0.49116 0.79216 0.0
H526 H 0.98453 0.46327 0.68984 0.0
H527 H 0.96579 0.41083 0.77843 0.0
H528 H 0.03964 0.51804 0.73451 0.0
H529 H 0.01803 0.50829 0.69647 0.0
H530 H 0.01093 0.51831 0.79788 0.0
H531 H 0.99279 0.57747 0.7792 0.0
H532 H 0.00768 0.5414 0.6887 0.0
C533 C 0.00903 0.47587 0.77565 0.0
C534 C 0.99408 0.45096 0.79 0.0
C535 C 0.00407 0.48113 0.74055 0.0
C536 C 0.98696 0.46002 0.71791 0.0
C537 C 0.9737 0.43453 0.73133 0.0
C538 C 0.97632 0.43041 0.76782 0.0
C539 C 0.01874 0.50876 0.7265 0.0
C540 C 0.00871 0.52602 0.74113 0.0
C541 C 0.00676 0.52905 0.77871 0.0
C542 C 0.00102 0.54747 0.79246 0.0
C543 C 0.99708 0.56304 0.76862 0.0
C544 C 0.99953 0.56103 0.73139 0.0
C545 C 0.00508 0.54237 0.71751 0.0
H546 H 0.49037 0.47627 0.79037 0.0
H547 H 0.46743 0.40879 0.7221 0.0
H548 H 0.41089 0.41509 0.78662 0.0
H549 H 0.51604 0.44071 0.7632 0.0
H550 H 0.51199 0.44623 0.71769 0.0
H551 H 0.52876 0.47932 0.81008 0.0
H552 H 0.58412 0.55372 0.7672 0.0
H553 H 0.54069 0.48836 0.69517 0.0
C554 C 0.47588 0.45784 0.77888 0.0
C555 C 0.4504 0.44688 0.79195 0.0
C556 C 0.48253 0.44424 0.75381 0.0
C557 C 0.46247 0.42004 0.74009 0.0
C558 C 0.43643 0.40945 0.75146 0.0
C559 C 0.43065 0.42346 0.77672 0.0
C560 C 0.51079 0.45238 0.74576 0.0
C561 C 0.53108 0.48095 0.75177 0.0
C562 C 0.53806 0.49158 0.78701 0.0
C563 C 0.55582 0.51825 0.7924 0.0
C564 C 0.56893 0.53359 0.76266 0.0
C565 C 0.56427 0.52285 0.72769 0.0
C566 C 0.54468 0.49668 0.72222 0.0
H567 H 0.70504 0.85736 0.53198 0.0
H568 H 0.72048 0.88396 0.64278 0.0
H569 H 0.67643 0.90486 0.57351 0.0
H570 H 0.7496 0.8695 0.57584 0.0
H571 H 0.73941 0.86013 0.621 0.0
H572 H 0.72745 0.83795 0.52419 0.0
H573 H 0.6898 0.75718 0.54985 0.0
H574 H 0.71329 0.81432 0.63537 0.0
C575 C 0.70239 0.8671 0.55476 0.0
C576 C 0.68842 0.87986 0.54939 0.0
C577 C 0.71375 0.86799 0.58851 0.0
C578 C 0.71094 0.88215 0.6171 0.0
C579 C 0.69714 0.89522 0.61206 0.0
C580 C 0.68565 0.89354 0.5783 0.0
C581 C 0.73211 0.85753 0.59272 0.0
C582 C 0.72013 0.82931 0.58102 0.0
C583 C 0.71898 0.82277 0.54414 0.0
C584 C 0.7067 0.79671 0.53276 0.0
C585 C 0.69764 0.77721 0.55867 0.0
C586 C 0.70052 0.78334 0.59567 0.0
C587 C 0.7112 0.80944 0.60681 0.0
H588 H 0.19391 0.87296 0.54379 0.0
H589 H 0.21891 0.90768 0.64999 0.0
H590 H 0.23363 0.95545 0.55701 0.0
H591 H 0.20875 0.85438 0.60793 0.0
H592 H 0.19501 0.86146 0.64569 0.0
H593 H 0.18082 0.83206 0.55189 0.0
H594 H 0.09939 0.78123 0.57255 0.0
H595 H 0.14794 0.83734 0.65348 0.0
C596 C 0.20207 0.8895 0.56191 0.0
C597 C 0.21272 0.91418 0.5467 0.0
C598 C 0.20315 0.88658 0.59948 0.0
C599 C 0.2163 0.90928 0.62138 0.0
C600 C 0.22702 0.93413 0.60618 0.0
C601 C 0.22448 0.93632 0.56902 0.0
C602 C 0.19427 0.86005 0.61569 0.0
C603 C 0.16741 0.83842 0.60338 0.0
C604 C 0.16419 0.82624 0.56933 0.0
C605 C 0.13956 0.80629 0.55763 0.0
C606 C 0.11848 0.79688 0.58128 0.0
C607 C 0.12145 0.80756 0.61595 0.0
C608 C 0.14572 0.8289 0.62671 0.0
H609 H 0.15287 0.29429 0.52346 0.0
H610 H 0.15133 0.25959 0.62546 0.0
H611 H 0.22309 0.3028 0.56702 0.0
H612 H 0.11189 0.24409 0.55769 0.0
H613 H 0.11148 0.2528 0.60334 0.0
H614 H 0.11183 0.27311 0.50764 0.0
H615 H 0.06616 0.30781 0.53237 0.0
H616 H 0.09177 0.27797 0.61803 0.0
C617 C 0.16254 0.29111 0.54558 0.0
C618 C 0.18949 0.30094 0.54258 0.0
C619 C 0.14839 0.27636 0.57564 0.0
C620 C 0.16201 0.2718 0.60292 0.0
C621 C 0.18902 0.28149 0.60028 0.0
C622 C 0.20261 0.29649 0.57035 0.0
C623 C 0.11861 0.26117 0.57618 0.0
C624 C 0.10544 0.27599 0.56454 0.0
C625 C 0.10364 0.28023 0.52766 0.0
C626 C 0.09092 0.29319 0.51631 0.0
C627 C 0.07781 0.2998 0.54176 0.0
C628 C 0.07733 0.29383 0.57835 0.0
C629 C 0.09192 0.28262 0.58982 0.0
C630 C 0.0402 0.4679 0.10117 0.0
C631 C 0.03791 0.44353 0.09583 0.0
H632 H 0.04425 0.49682 0.1398 0.0
C633 C 0.04056 0.4306 0.12522 0.0
H634 H 0.03818 0.47813 0.07863 0.0
C635 C 0.04499 0.44156 0.15971 0.0
C636 C 0.04576 0.46525 0.16592 0.0
H637 H 0.03929 0.41196 0.12147 0.0
H638 H 0.04759 0.43121 0.18155 0.0
C639 C 0.04379 0.47858 0.1361 0.0
C640 C 0.5909 0.56918 0.11477 0.0
C641 C 0.57111 0.56486 0.09007 0.0
H642 H 0.60073 0.56747 0.16986 0.0
C643 C 0.54498 0.55148 0.10156 0.0
H644 H 0.61121 0.57915 0.10676 0.0
C645 C 0.53901 0.54449 0.13769 0.0
C646 C 0.55909 0.55097 0.16289 0.0
H647 H 0.52925 0.54758 0.0831 0.0
H648 H 0.51892 0.53581 0.14641 0.0
C649 C 0.58495 0.56241 0.15088 0.0
C650 C 0.41886 0.95934 0.09153 0.0
C651 C 0.41964 0.9828 0.08423 0.0
H652 H 0.42123 0.93517 0.13179 0.0
C653 C 0.42669 0.00141 0.11208 0.0
H654 H 0.41354 0.9446 0.07063 0.0
C655 C 0.43129 0.99606 0.14691 0.0
C656 C 0.42879 0.97194 0.15477 0.0
H657 H 0.42781 0.0198 0.1073 0.0
H658 H 0.43602 0.01054 0.16804 0.0
C659 C 0.42335 0.95394 0.12653 0.0
C660 C 0.45519 0.04363 0.88997 0.0
C661 C 0.43358 0.02028 0.90169 0.0
H662 H 0.48376 0.06233 0.84838 0.0
C663 C 0.42574 0.9971 0.88224 0.0
H664 H 0.46153 0.06173 0.90458 0.0
C665 C 0.43882 0.99736 0.85091 0.0
C666 C 0.45957 0.02088 0.83822 0.0
H667 H 0.40924 0.97882 0.89094 0.0
H668 H 0.43193 0.9794 0.83565 0.0
C669 C 0.4679 0.04399 0.85806 0.0
C670 C 0.978 0.43012 0.88682 0.0
C671 C 0.00158 0.4329 0.89929 0.0
H672 H 0.95719 0.43342 0.84195 0.0
C673 C 0.02318 0.44307 0.87604 0.0
H674 H 0.96099 0.42224 0.90405 0.0
C675 C 0.02107 0.44985 0.84075 0.0
C676 C 0.99718 0.44605 0.82802 0.0
H677 H 0.04162 0.44549 0.88498 0.0
H678 H 0.03779 0.45725 0.82305 0.0
C679 C 0.97575 0.43638 0.85135 0.0
C680 C 0.57667 0.53357 0.89061 0.0
C681 C 0.57893 0.55808 0.89508 0.0
H682 H 0.56734 0.50153 0.85449 0.0
C683 C 0.57124 0.56807 0.86668 0.0
H684 H 0.58231 0.52529 0.91212 0.0
C685 C 0.56268 0.55448 0.83391 0.0
C686 C 0.56155 0.53057 0.82881 0.0
H687 H 0.57252 0.58677 0.86934 0.0
H688 H 0.55751 0.563 0.81215 0.0
C689 C 0.56796 0.51988 0.85776 0.0
C690 C 0.98461 0.5368 0.89208 0.0
C691 C 0.9981 0.56256 0.90557 0.0
H692 H 0.97509 0.51174 0.8454 0.0
C693 C 0.01394 0.58283 0.88202 0.0
H694 H 0.97234 0.52074 0.90956 0.0
C695 C 0.01535 0.57768 0.8456 0.0
C696 C 0.00107 0.55214 0.8318 0.0
H697 H 0.02479 0.60288 0.89144 0.0
H698 H 0.02736 0.5938 0.82802 0.0
C699 C 0.9862 0.53162 0.85546 0.0
C700 C 0.41282 0.45386 0.86851 0.0
C701 C 0.42832 0.45508 0.89794 0.0
H702 H 0.40813 0.45126 0.81101 0.0
C703 C 0.45377 0.4603 0.89153 0.0
H704 H 0.39328 0.45037 0.87263 0.0
C705 C 0.46223 0.46075 0.85628 0.0
C706 C 0.44537 0.45603 0.82684 0.0
H707 H 0.46635 0.46176 0.91367 0.0
H708 H 0.48092 0.46212 0.85246 0.0
C709 C 0.4213 0.45437 0.8332 0.0
C710 C 0.58843 0.00316 0.89726 0.0
C711 C 0.58222 0.01727 0.92186 0.0
H712 H 0.58507 0.98891 0.843 0.0
C713 C 0.56547 0.02602 0.91059 0.0
H714 H 0.60118 0.99605 0.90505 0.0
C715 C 0.55593 0.02156 0.87508 0.0
C716 C 0.5633 0.00862 0.85016 0.0
H717 H 0.56014 0.03677 0.92897 0.0
H718 H 0.5438 0.02925 0.86666 0.0
C719 C 0.57922 0.99904 0.86174 0.0
C720 C 0.58207 0.02252 0.14778 0.0
C721 C 0.57144 0.00773 0.11594 0.0
H722 H 0.57693 0.02596 0.2045 0.0
C723 C 0.54542 0.98704 0.11597 0.0
H724 H 0.602 0.03874 0.14851 0.0
C725 C 0.53102 0.97994 0.14786 0.0
C726 C 0.54241 0.99325 0.18046 0.0
H727 H 0.53657 0.97546 0.09175 0.0
H728 H 0.51168 0.96272 0.14747 0.0
C729 C 0.56771 0.01528 0.1798 0.0
C730 C 0.03298 0.60068 0.13153 0.0
C731 C 0.02318 0.58077 0.10541 0.0
H732 H 0.04826 0.61276 0.18481 0.0
C733 C 0.02097 0.55685 0.11336 0.0
H734 H 0.03505 0.61936 0.1256 0.0
C735 C 0.02799 0.55272 0.14767 0.0
C736 C 0.03747 0.57258 0.17428 0.0
H737 H 0.01345 0.5413 0.0933 0.0
H738 H 0.02552 0.53389 0.15356 0.0
C739 C 0.04029 0.59674 0.16549 0.0
C740 C 0.41325 0.48108 0.11553 0.0
C741 C 0.4199 0.4647 0.09667 0.0
H742 H 0.4155 0.50063 0.16561 0.0
C743 C 0.436 0.45711 0.11362 0.0
H744 H 0.4008 0.4872 0.10322 0.0
C745 C 0.44478 0.46523 0.14902 0.0
C746 C 0.43723 0.48069 0.16832 0.0
H747 H 0.44154 0.44461 0.09972 0.0
H748 H 0.45661 0.45854 0.16182 0.0
C749 C 0.4216 0.48876 0.15119 0.0
C750 C 0.72247 0.79268 0.43449 0.0
C751 C 0.69899 0.77093 0.42234 0.0
H752 H 0.74343 0.81795 0.47928 0.0
C753 C 0.6776 0.75929 0.44583 0.0
H754 H 0.73926 0.80207 0.41692 0.0
C755 C 0.67995 0.76842 0.48121 0.0
C756 C 0.70374 0.78935 0.49397 0.0
H757 H 0.65915 0.74268 0.43716 0.0
H758 H 0.66324 0.75872 0.49889 0.0
C759 C 0.72483 0.80184 0.47008 0.0
C760 C 0.21088 0.93698 0.45263 0.0
C761 C 0.22642 0.92933 0.43373 0.0
H762 H 0.19457 0.93835 0.50378 0.0
C763 C 0.23534 0.91469 0.45152 0.0
H764 H 0.20386 0.94839 0.43959 0.0
C765 C 0.22949 0.90847 0.48784 0.0
C766 C 0.21512 0.91727 0.50716 0.0
H767 H 0.24726 0.90848 0.43754 0.0
H768 H 0.23725 0.89784 0.50131 0.0
C769 C 0.20558 0.93129 0.48923 0.0
C770 C 0.08607 0.32553 0.43233 0.0
C771 C 0.0776 0.30533 0.40655 0.0
H772 H 0.09759 0.33767 0.48709 0.0
C773 C 0.07686 0.28224 0.41596 0.0
H774 H 0.08722 0.34371 0.42578 0.0
C775 C 0.08257 0.27869 0.45129 0.0
C776 C 0.08928 0.29826 0.47765 0.0
H777 H 0.07043 0.26633 0.39665 0.0
H778 H 0.08026 0.26011 0.45841 0.0
C779 C 0.09194 0.32206 0.46746 0.0
C780 C 0.07891 0.31729 0.20362 0.0
C781 C 0.08609 0.33991 0.22413 0.0
H782 H 0.0867 0.30089 0.15693 0.0
C783 C 0.10787 0.36365 0.21383 0.0
H784 H 0.06231 0.29872 0.21119 0.0
C785 C 0.12159 0.36491 0.18254 0.0
C786 C 0.11411 0.34233 0.1618 0.0
H787 H 0.11376 0.38134 0.22926 0.0
H788 H 0.13773 0.38354 0.17416 0.0
C789 C 0.09298 0.31846 0.17288 0.0
C790 C 0.69679 0.77441 0.19641 0.0
C791 C 0.68226 0.77699 0.22439 0.0
H792 H 0.70448 0.77715 0.13964 0.0
C793 C 0.66767 0.78896 0.21697 0.0
H794 H 0.70852 0.76563 0.20123 0.0
C795 C 0.66556 0.79576 0.18167 0.0
C796 C 0.67787 0.79058 0.15313 0.0
H797 H 0.65656 0.79162 0.23799 0.0
H798 H 0.65249 0.80296 0.17637 0.0
C799 C 0.69457 0.7811 0.16112 0.0
C800 C 0.2239 0.92065 0.20887 0.0
C801 C 0.23066 0.90997 0.2375 0.0
H802 H 0.21234 0.91699 0.15336 0.0
C803 C 0.22771 0.88525 0.23286 0.0
H804 H 0.22557 0.9395 0.21183 0.0
C805 C 0.22046 0.87252 0.19935 0.0
C806 C 0.21573 0.8841 0.16972 0.0
H807 H 0.23255 0.87637 0.25448 0.0
H808 H 0.22053 0.85452 0.19615 0.0
C809 C 0.21634 0.90775 0.17537 0.0
C810 C 0.61187 0.84993 0.2344 0.0
C811 C 0.63522 0.86794 0.2522 0.0
H812 H 0.59368 0.83238 0.18343 0.0
C813 C 0.65892 0.87837 0.2335 0.0
H814 H 0.59332 0.84169 0.2482 0.0
C815 C 0.65909 0.87265 0.19696 0.0
C816 C 0.63558 0.85659 0.17842 0.0
H817 H 0.67721 0.89211 0.24663 0.0
H818 H 0.67742 0.88235 0.18249 0.0
C819 C 0.61203 0.84449 0.19752 0.0
C820 C 0.1345 0.7525 0.24492 0.0
C821 C 0.11201 0.75336 0.25398 0.0
H822 H 0.16128 0.75669 0.20302 0.0
C823 C 0.10046 0.76129 0.228 0.0
H824 H 0.14384 0.74652 0.2645 0.0
C825 C 0.11036 0.76702 0.19317 0.0
C826 C 0.13205 0.76501 0.18356 0.0
H827 H 0.08327 0.76241 0.23424 0.0
H828 H 0.10068 0.77252 0.17343 0.0
C829 C 0.14451 0.75837 0.20989 0.0
C830 C 0.24536 0.32711 0.22399 0.0
C831 C 0.23748 0.33999 0.24836 0.0
H832 H 0.24336 0.31317 0.16984 0.0
C833 C 0.21895 0.34639 0.23694 0.0
H834 H 0.25946 0.32172 0.2319 0.0
C835 C 0.20949 0.34116 0.20138 0.0
C836 C 0.21862 0.32969 0.17658 0.0
H837 H 0.21231 0.35613 0.25512 0.0
H838 H 0.19612 0.34732 0.19278 0.0
C839 C 0.23614 0.32216 0.18844 0.0
C840 C 0.24265 0.34356 0.4765 0.0
C841 C 0.23256 0.32952 0.44398 0.0
H842 H 0.23683 0.34551 0.5334 0.0
C843 C 0.20729 0.30748 0.44364 0.0
H844 H 0.26207 0.36063 0.47759 0.0
C845 C 0.19277 0.29908 0.47538 0.0
C846 C 0.20333 0.31236 0.50826 0.0
H847 H 0.19894 0.29631 0.41897 0.0
H848 H 0.17376 0.28145 0.4745 0.0
C849 C 0.22825 0.33493 0.50842 0.0
C850 C 0.68926 0.89247 0.44924 0.0
C851 C 0.66622 0.89323 0.44496 0.0
H852 H 0.71447 0.88793 0.48553 0.0
C853 C 0.64927 0.88704 0.47441 0.0
H854 H 0.70272 0.89712 0.42704 0.0
C855 C 0.65582 0.88136 0.50791 0.0
C856 C 0.67952 0.88191 0.5127 0.0
H857 H 0.63124 0.88722 0.47185 0.0
H858 H 0.64262 0.87719 0.53033 0.0
C859 C 0.69589 0.88697 0.48276 0.0
C860 C 0.13189 0.80398 0.45651 0.0
C861 C 0.11573 0.77706 0.44997 0.0
H862 H 0.15267 0.83432 0.49598 0.0
C863 C 0.11076 0.75978 0.47837 0.0
H864 H 0.13633 0.8178 0.43511 0.0
C865 C 0.12011 0.76928 0.51312 0.0
C866 C 0.13484 0.79621 0.52005 0.0
H867 H 0.09858 0.73894 0.47422 0.0
H868 H 0.11485 0.7556 0.53494 0.0
C869 C 0.14148 0.81346 0.49124 0.0
C870 C 0.40307 0.15122 0.78037 0.0
C871 C 0.37872 0.12981 0.76986 0.0
H872 H 0.4255 0.17846 0.82294 0.0
C873 C 0.3574 0.12137 0.79327 0.0
H874 H 0.41981 0.15826 0.76279 0.0
C875 C 0.36066 0.13295 0.82724 0.0
C876 C 0.38527 0.15327 0.83864 0.0
H877 H 0.33832 0.10517 0.78588 0.0
H878 H 0.34412 0.12528 0.84532 0.0
C879 C 0.40632 0.16291 0.81458 0.0
C880 C 0.86781 0.22777 0.7772 0.0
C881 C 0.89308 0.24292 0.76292 0.0
H882 H 0.8448 0.20973 0.82431 0.0
C883 C 0.91476 0.24989 0.78538 0.0
H884 H 0.85071 0.22191 0.76053 0.0
C885 C 0.91134 0.24308 0.82166 0.0
C886 C 0.88617 0.22891 0.83626 0.0
H887 H 0.93449 0.26141 0.77529 0.0
H888 H 0.92843 0.24941 0.83859 0.0
C889 C 0.86439 0.22067 0.81357 0.0
C890 C 0.75187 0.60991 0.74814 0.0
C891 C 0.74965 0.63139 0.73852 0.0
H892 H 0.7601 0.59079 0.79006 0.0
C893 C 0.75722 0.65187 0.76358 0.0
H894 H 0.74618 0.5938 0.7294 0.0
C895 C 0.76569 0.65038 0.79808 0.0
C896 C 0.76642 0.62821 0.80851 0.0
H897 H 0.75609 0.66886 0.7568 0.0
H898 H 0.77099 0.66633 0.81699 0.0
C899 C 0.76003 0.60826 0.78286 0.0
C900 C 0.77781 0.6911 0.5445 0.0
C901 C 0.75786 0.66595 0.5537 0.0
H902 H 0.80659 0.71467 0.50529 0.0
C903 C 0.75302 0.64471 0.53146 0.0
H904 H 0.78188 0.70782 0.56125 0.0
C905 C 0.76756 0.64862 0.50015 0.0
C906 C 0.78678 0.67384 0.49031 0.0
H907 H 0.73787 0.62514 0.53808 0.0
H908 H 0.76314 0.63204 0.4829 0.0
C909 C 0.79194 0.69506 0.51272 0.0
C910 C 0.37594 0.11862 0.54396 0.0
C911 C 0.36491 0.12685 0.5708 0.0
H912 H 0.38308 0.1173 0.48747 0.0
C913 C 0.35563 0.1434 0.56119 0.0
H914 H 0.38342 0.10599 0.55046 0.0
C915 C 0.35571 0.15006 0.52515 0.0
C916 C 0.36485 0.14012 0.49802 0.0
H917 H 0.34721 0.15027 0.58124 0.0
H918 H 0.34699 0.16155 0.51829 0.0
C919 C 0.37577 0.12506 0.50789 0.0
C920 C 0.87963 0.23676 0.53686 0.0
C921 C 0.88865 0.22789 0.56517 0.0
H922 H 0.86612 0.23101 0.48201 0.0
C923 C 0.88769 0.20402 0.5609 0.0
H924 H 0.8798 0.25492 0.53948 0.0
C925 C 0.87991 0.19038 0.52804 0.0
C926 C 0.87284 0.20026 0.49869 0.0
H927 H 0.89429 0.19652 0.5823 0.0
H928 H 0.88131 0.17308 0.52493 0.0
C929 C 0.87176 0.22305 0.50395 0.0
C930 C 0.33153 0.2364 0.56566 0.0
C931 C 0.31128 0.21446 0.58271 0.0
H932 H 0.3518 0.25284 0.51651 0.0
C933 C 0.29752 0.19087 0.56302 0.0
H934 H 0.34277 0.25481 0.57999 0.0
C935 C 0.30299 0.18978 0.5264 0.0
C936 C 0.32208 0.21229 0.50914 0.0
H937 H 0.28193 0.17359 0.57545 0.0
H938 H 0.2915 0.1718 0.51121 0.0
C939 C 0.33677 0.23533 0.52929 0.0
C940 C 0.78837 0.07138 0.5744 0.0
C941 C 0.76581 0.07239 0.58232 0.0
H942 H 0.81536 0.07446 0.53352 0.0
C943 C 0.75428 0.07945 0.55515 0.0
H944 H 0.79769 0.06604 0.59489 0.0
C945 C 0.76432 0.08421 0.52035 0.0
C946 C 0.78613 0.08205 0.51194 0.0
H947 H 0.73703 0.08065 0.56048 0.0
H948 H 0.75471 0.08912 0.49974 0.0
C949 C 0.79852 0.07625 0.53941 0.0
C950 C 0.90824 0.69849 0.5691 0.0
C951 C 0.9234 0.68742 0.57833 0.0
H952 H 0.88764 0.70523 0.52695 0.0
C953 C 0.92721 0.67237 0.5523 0.0
H954 H 0.90476 0.71002 0.58862 0.0
C955 C 0.91742 0.66969 0.51735 0.0
C956 C 0.90339 0.68175 0.50773 0.0
H957 H 0.93859 0.6634 0.55846 0.0
H958 H 0.92169 0.65901 0.49733 0.0
C959 C 0.89822 0.69559 0.53402 0.0
C960 C 0.89154 0.64236 0.77011 0.0
C961 C 0.91644 0.66492 0.76996 0.0
H962 H 0.85843 0.61621 0.80144 0.0
C963 C 0.926 0.68 0.80177 0.0
H964 H 0.88358 0.63039 0.74598 0.0
C965 C 0.91149 0.67191 0.83359 0.0
C966 C 0.88709 0.64871 0.83411 0.0
H967 H 0.94506 0.69756 0.80244 0.0
H968 H 0.91965 0.68341 0.85806 0.0
C969 C 0.877 0.63436 0.80183 0.0
C970 C 0.34019 0.21388 0.78872 0.0
C971 C 0.31807 0.21625 0.78441 0.0
H972 H 0.36864 0.21536 0.82535 0.0
C973 C 0.30476 0.21712 0.81528 0.0
H974 H 0.35069 0.2129 0.76543 0.0
C975 C 0.3151 0.2186 0.84969 0.0
C976 C 0.33871 0.21892 0.85376 0.0
H977 H 0.28752 0.21873 0.81283 0.0
H978 H 0.30561 0.22128 0.87292 0.0
C979 C 0.35036 0.21509 0.82311 0.0
C980 C 0.78318 0.12322 0.78563 0.0
C981 C 0.76483 0.09673 0.77942 0.0
H982 H 0.80587 0.15308 0.82494 0.0
C983 C 0.7563 0.07957 0.80865 0.0
H984 H 0.79021 0.13685 0.76359 0.0
C985 C 0.76498 0.08891 0.84362 0.0
C986 C 0.7827 0.11547 0.8499 0.0
H987 H 0.74216 0.05906 0.80473 0.0
H988 H 0.7575 0.07547 0.86587 0.0
C989 C 0.79224 0.13248 0.8206 0.0
C990 C 0.08019 0.35467 0.00149 0.0
C991 C 0.08648 0.38072 0.00379 0.0
H992 H 0.09033 0.32663 0.01749 0.0
C993 C 0.11079 0.39958 0.01827 0.0
H994 H 0.06158 0.33981 -0.00968 0.0
C995 C 0.12705 0.39195 0.03435 0.0
C996 C 0.11948 0.36551 0.03516 0.0
H997 H 0.116 0.41977 0.02051 0.0
H998 H 0.1443 0.40633 0.04895 0.0
C999 C 0.09675 0.34717 0.01669 0.0
C1000 C 0.60201 0.69711 0.01601 0.0
C1001 C 0.6184 0.68656 0.01371 0.0
H1002 H 0.59807 0.72939 0.03319 0.0
C1003 C 0.64463 0.70208 0.0246 0.0
H1004 H 0.58173 0.68574 0.0077 0.0
C1005 C 0.65394 0.72702 0.039 0.0
C1006 C 0.63729 0.73713 0.04283 0.0
H1007 H 0.6579 0.69474 0.02293 0.0
H1008 H 0.6741 0.73824 0.04796 0.0
C1009 C 0.61139 0.72218 0.03037 0.0
C1010 C 0.30266 0.94228 0.04975 0.0
C1011 C 0.30582 0.93652 0.01405 0.0
H1012 H 0.28017 0.92957 0.09733 0.0
C1013 C 0.28571 0.91397 -0.00284 0.0
H1014 H 0.31809 0.95926 0.06367 0.0
C1015 C 0.26295 0.89717 0.01611 0.0
C1016 C 0.2603 0.90218 0.05268 0.0
H1017 H 0.28777 0.90914 0.96953 0.0
H1018 H 0.24777 0.87999 0.0023 0.0
C1019 C 0.28053 0.92516 0.069 0.0
C1020 C 0.3559 0.08068 0.97556 0.0
C1021 C 0.37773 0.08281 -0.0066 0.0
H1022 H 0.34057 0.10032 0.94547 0.0
C1023 C 0.39923 0.10776 0.00098 0.0
H1024 H 0.3389 0.06177 0.96973 0.0
C1025 C 0.40012 0.12992 0.98709 0.0
C1026 C 0.37949 0.12734 0.96561 0.0
H1027 H 0.4163 0.11004 0.01482 0.0
H1028 H 0.41792 0.14865 -0.00986 0.0
C1029 C 0.35676 0.10276 0.96185 0.0
C1030 C 0.91701 0.30322 -0.00664 0.0
C1031 C 0.94416 0.31663 0.98737 0.0
H1032 H 0.87998 0.26865 0.98229 0.0
C1033 C 0.9551 0.30363 0.96937 0.0
H1034 H 0.90798 0.3126 0.00738 0.0
C1035 C 0.93908 0.27857 0.95532 0.0
C1036 C 0.91188 0.26592 0.95928 0.0
H1037 H 0.97591 0.31325 0.96455 0.0
H1038 H 0.94781 0.26958 0.9396 0.0
C1039 C 0.90097 0.278 0.97939 0.0
C1040 C 0.70635 0.6066 0.97537 0.0
C1041 C 0.70014 0.62602 0.96952 0.0
H1042 H 0.73126 0.59179 0.96127 0.0
C1043 C 0.71789 0.64847 0.95081 0.0
H1044 H 0.69312 0.58914 -0.01007 0.0
C1045 C 0.74003 0.65023 0.93505 0.0
C1046 C 0.74459 0.62939 0.93717 0.0
H1047 H 0.71386 0.66398 0.94643 0.0
H1048 H 0.75249 0.66702 0.91878 0.0
C1049 C 0.72836 0.60821 0.95919 0.0
C1050 C 0.89697 0.58388 0.98349 0.0
C1051 C 0.92327 0.60277 -0.00966 0.0
H1052 H 0.86097 0.57522 0.95863 0.0
C1053 C 0.93205 0.62888 0.98225 0.0
H1054 H 0.8895 0.56361 0.98961 0.0
C1055 C 0.91552 0.6356 0.96498 0.0
C1056 C 0.88993 0.61634 0.95518 0.0
H1057 H 0.95208 0.64399 0.98768 0.0
H1058 H 0.92322 0.65569 0.9575 0.0
C1059 C 0.88049 0.59059 0.96599 0.0
C1060 C 0.392 0.32401 0.98865 0.0
C1061 C 0.38959 0.34002 0.9633 0.0
H1062 H 0.38985 0.28747 -0.00201 0.0
C1063 C 0.38582 0.33238 0.9268 0.0
H1064 H 0.39503 0.32952 0.01698 0.0
C1065 C 0.38347 0.30887 0.91592 0.0
C1066 C 0.38411 0.29188 0.94132 0.0
H1067 H 0.38444 0.34454 0.90651 0.0
H1068 H 0.38064 0.3038 0.88744 0.0
C1069 C 0.38913 0.30002 0.97776 0.0
C1070 C 0.71419 0.11852 -0.0094 0.0
C1071 C 0.7049 0.09368 0.00518 0.0
H1072 H 0.74476 0.15002 0.96086 0.0
C1073 C 0.72164 0.08356 0.00608 0.0
H1074 H 0.70178 0.12687 0.98946 0.0
C1075 C 0.74636 0.0971 -0.00959 0.0
C1076 C 0.75475 0.12093 0.97349 0.0
H1077 H 0.71518 0.06458 0.01733 0.0
H1078 H 0.75817 0.08807 0.98919 0.0
C1079 C 0.73884 0.13192 0.97453 0.0
C1080 C 0.65556 0.95361 0.07849 0.0
C1081 C 0.63861 0.95108 0.05031 0.0
H1082 H 0.67037 0.93477 0.11135 0.0
C1083 C 0.62497 0.92718 0.03134 0.0
H1084 H 0.66655 0.97179 0.09344 0.0
C1085 C 0.62722 0.9059 0.04162 0.0
C1086 C 0.64304 0.90809 0.07116 0.0
H1087 H 0.61186 0.92464 0.00935 0.0
H1088 H 0.61555 0.88739 0.02768 0.0
C1089 C 0.65774 0.93239 0.08878 0.0
C1090 C 0.06258 0.71044 0.04319 0.0
C1091 C 0.06809 0.69303 0.02509 0.0
H1092 H 0.07788 0.74578 0.07415 0.0
C1093 C 0.0943 0.70058 0.01869 0.0
H1094 H 0.04259 0.70538 0.04799 0.0
C1095 C 0.11456 0.72372 0.03387 0.0
C1096 C 0.10885 0.73966 0.05546 0.0
H1097 H 0.09915 0.68763 0.00455 0.0
H1098 H 0.13444 0.72781 0.03158 0.0
C1099 C 0.08279 0.73364 0.05801 0.0
C1100 C 0.2805 0.39162 0.01618 0.0
C1101 C 0.29963 0.38446 0.01758 0.0
H1102 H 0.24251 0.38306 0.03339 0.0
C1103 C 0.29355 0.36103 0.03424 0.0
H1104 H 0.28451 0.40945 0.00329 0.0
C1105 C 0.26965 0.34611 0.05144 0.0
C1106 C 0.25124 0.35413 0.05195 0.0
H1107 H 0.30772 0.35482 0.03561 0.0
H1108 H 0.26596 0.32885 0.06574 0.0
C1109 C 0.25641 0.37648 0.03312 0.0
C1110 C 0.77932 0.73073 0.34317 0.0
C1111 C 0.7541 0.71104 0.33254 0.0
H1112 H 0.81471 0.73965 0.37085 0.0
C1113 C 0.74737 0.6849 0.33497 0.0
H1114 H 0.78496 0.75104 0.3418 0.0
C1115 C 0.76469 0.6785 0.35054 0.0
C1116 C 0.78883 0.6981 0.36444 0.0
H1117 H 0.72809 0.66935 0.32693 0.0
H1118 H 0.75823 0.65818 0.35479 0.0
C1119 C 0.79644 0.72428 0.35953 0.0
C1120 C 0.32037 0.05463 0.364 0.0
C1121 C 0.29496 0.04503 0.35051 0.0
H1122 H 0.3535 0.08594 0.39094 0.0
C1123 C 0.28438 0.06139 0.35135 0.0
H1124 H 0.32926 0.04271 0.3635 0.0
C1125 C 0.29841 0.08632 0.36707 0.0
C1126 C 0.32318 0.0952 0.38236 0.0
H1127 H 0.26491 0.05464 0.34103 0.0
H1128 H 0.28939 0.0981 0.36883 0.0
C1129 C 0.33427 0.0794 0.37978 0.0
C1130 C 0.95728 0.25788 0.37677 0.0
C1131 C 0.96017 0.25216 0.34094 0.0
H1132 H 0.93549 0.24499 0.42487 0.0
C1133 C 0.94026 0.22921 0.32455 0.0
H1134 H 0.97261 0.27513 0.39034 0.0
C1135 C 0.91787 0.21211 0.34403 0.0
C1136 C 0.91542 0.21724 0.38063 0.0
H1137 H 0.94215 0.22438 0.29686 0.0
H1138 H 0.9028 0.1947 0.33055 0.0
C1139 C 0.93558 0.24048 0.39652 0.0
C1140 C 0.05312 0.42481 0.33027 0.0
C1141 C 0.03078 0.40039 0.32309 0.0
H1142 H 0.07362 0.46552 0.31862 0.0
C1143 C 0.00898 0.39941 0.30692 0.0
H1144 H 0.07015 0.42622 0.34307 0.0
C1145 C 0.01078 0.42205 0.29365 0.0
C1146 C 0.03458 0.44589 0.29572 0.0
H1147 H 0.9913 0.38092 0.30167 0.0
H1148 H 0.99457 0.4204 0.27816 0.0
C1149 C 0.05504 0.44744 0.31657 0.0
C1150 C 0.58297 0.64016 0.30339 0.0
C1151 C 0.61035 0.65159 0.30221 0.0
H1152 H 0.54554 0.6065 0.2908 0.0
C1153 C 0.62074 0.63626 0.2907 0.0
H1154 H 0.57429 0.65134 0.31244 0.0
C1155 C 0.60429 0.61068 0.27869 0.0
C1156 C 0.57706 0.59976 0.278 0.0
H1157 H 0.64166 0.64424 0.28982 0.0
H1158 H 0.61292 0.59971 0.26847 0.0
C1159 C 0.56646 0.61442 0.29143 0.0
C1160 C 0.37342 0.98769 0.29358 0.0
C1161 C 0.35344 0.96498 0.30945 0.0
H1162 H 0.40976 0.00556 0.26541 0.0
C1163 C 0.35705 0.94365 0.31371 0.0
H1164 H 0.37144 0.0046 0.29046 0.0
C1165 C 0.37906 0.94416 0.29911 0.0
C1166 C 0.39783 0.96608 0.28028 0.0
H1167 H 0.34204 0.92592 0.32602 0.0
H1168 H 0.38027 0.9267 0.30001 0.0
C1169 C 0.39544 0.98829 0.2794 0.0
C1170 C 0.58402 0.93885 0.28597 0.0
C1171 C 0.57771 0.92906 0.32095 0.0
H1172 H 0.57399 0.95333 0.24067 0.0
C1173 C 0.55631 0.92818 0.33838 0.0
H1174 H 0.60004 0.93915 0.27162 0.0
C1175 C 0.54181 0.93757 0.32117 0.0
C1176 C 0.54804 0.94731 0.28584 0.0
H1177 H 0.55104 0.92058 0.36542 0.0
H1178 H 0.52586 0.93728 0.33562 0.0
C1179 C 0.56912 0.94731 0.2684 0.0
C1180 C 0.07205 0.63513 0.34112 0.0
C1181 C 0.0512 0.6398 0.33991 0.0
H1182 H 0.08728 0.61167 0.32164 0.0
C1183 C 0.02728 0.62069 0.32476 0.0
H1184 H 0.09069 0.64945 0.35282 0.0
C1185 C 0.02517 0.59876 0.30753 0.0
C1186 C 0.04706 0.5958 0.30456 0.0
H1187 H 0.01074 0.62356 0.32398 0.0
H1188 H 0.00702 0.58525 0.29391 0.0
C1189 C 0.07003 0.61334 0.32343 0.0
C1190 C 0.36214 0.45427 0.31047 0.0
C1191 C 0.35762 0.43116 0.32662 0.0
H1192 H 0.38849 0.48767 0.27963 0.0
C1193 C 0.37819 0.42606 0.32829 0.0
H1194 H 0.34673 0.45878 0.30875 0.0
C1195 C 0.40225 0.44292 0.31228 0.0
C1196 C 0.40605 0.46496 0.29386 0.0
H1197 H 0.37538 0.40851 0.34076 0.0
H1198 H 0.41725 0.43777 0.3122 0.0
C1199 C 0.38604 0.47086 0.29391 0.0
C1200 C 0.30231 0.2682 0.35564 0.0
C1201 C 0.31417 0.29302 0.37224 0.0
H1202 H 0.298 0.23019 0.35552 0.0
C1203 C 0.33353 0.29953 0.39865 0.0
H1204 H 0.28742 0.26268 0.33504 0.0
C1205 C 0.33954 0.28106 0.41011 0.0
C1206 C 0.32644 0.25575 0.39529 0.0
H1207 H 0.34321 0.31853 0.41172 0.0
H1208 H 0.35353 0.28613 0.43191 0.0
C1209 C 0.30845 0.24968 0.36708 0.0
C1210 C 0.71732 0.02721 0.37147 0.0
C1211 C 0.7214 0.00787 0.35651 0.0
H1212 H 0.73436 0.06405 0.39905 0.0
C1213 C 0.74719 0.01339 0.35186 0.0
H1214 H 0.69773 0.02373 0.37491 0.0
C1215 C 0.76825 0.03659 0.36578 0.0
C1216 C 0.76379 0.0546 0.38433 0.0
H1217 H 0.75096 0.99891 0.34021 0.0
H1218 H 0.78765 0.03923 0.36509 0.0
C1219 C 0.73832 0.0504 0.38505 0.0
C1220 C 0.97215 0.69646 0.36444 0.0
C1221 C 0.99009 0.7234 0.36367 0.0
H1222 H 0.93344 0.66626 0.3781 0.0
C1223 C 0.98125 0.74072 0.37151 0.0
H1224 H 0.97826 0.68261 0.35815 0.0
C1225 C 0.95557 0.73128 0.38277 0.0
C1226 C 0.93822 0.70442 0.38558 0.0
H1227 H 0.99455 0.76158 0.37103 0.0
H1228 H 0.94976 0.74494 0.39157 0.0
C1229 C 0.94641 0.68706 0.37522 0.0
C1230 C 0.45036 0.07314 0.6908 0.0
C1231 C 0.42384 0.05494 0.68409 0.0
H1232 H 0.48637 0.07949 0.71351 0.0
C1233 C 0.41481 0.02831 0.68773 0.0
H1234 H 0.45779 0.0938 0.68829 0.0
C1235 C 0.43142 0.02015 0.70084 0.0
C1236 C 0.45712 0.03851 0.71122 0.0
H1237 H 0.39451 0.01388 0.68252 0.0
H1238 H 0.42341 0.99968 0.70634 0.0
C1239 C 0.4668 0.06499 0.70484 0.0
C1240 C 0.92144 0.36871 0.69693 0.0
C1241 C 0.93652 0.36075 0.67743 0.0
H1242 H 0.92162 0.39882 0.72946 0.0
C1243 C 0.96295 0.379 0.671 0.0
H1244 H 0.90104 0.35509 0.70242 0.0
C1245 C 0.97444 0.40421 0.68561 0.0
C1246 C 0.95982 0.41145 0.70736 0.0
H1247 H 0.97501 0.37349 0.65591 0.0
H1248 H 0.99521 0.41743 0.68215 0.0
C1249 C 0.9331 0.39375 0.7122 0.0
C1250 C 0.61802 0.54425 0.65965 0.0
C1251 C 0.62851 0.57137 0.66024 0.0
H1252 H 0.58897 0.50742 0.68044 0.0
C1253 C 0.61426 0.58142 0.67696 0.0
H1254 H 0.62832 0.53581 0.64664 0.0
C1255 C 0.59149 0.56504 0.69591 0.0
C1256 C 0.58262 0.53835 0.69866 0.0
H1257 H 0.62152 0.60215 0.67735 0.0
H1258 H 0.58184 0.57355 0.71058 0.0
C1259 C 0.59528 0.52789 0.67874 0.0
C1260 C 0.673 0.71564 0.62972 0.0
C1261 C 0.69489 0.71816 0.64784 0.0
H1262 H 0.65715 0.73496 0.60006 0.0
C1263 C 0.7157 0.74324 0.65666 0.0
H1264 H 0.65648 0.69658 0.62307 0.0
C1265 C 0.7161 0.76526 0.64333 0.0
C1266 C 0.69565 0.76244 0.6212 0.0
H1267 H 0.73277 0.74581 0.67087 0.0
H1268 H 0.73359 0.78415 0.64716 0.0
C1269 C 0.67332 0.73761 0.61669 0.0
C1270 C 0.2868 0.98817 0.653 0.0
C1271 C 0.28136 0.00849 0.65296 0.0
H1272 H 0.27323 0.94821 0.63917 0.0
C1273 C 0.25648 0.00298 0.64162 0.0
H1274 H 0.3057 0.99172 0.66179 0.0
C1275 C 0.23807 0.9782 0.62853 0.0
C1276 C 0.24391 0.95824 0.62727 0.0
H1277 H 0.25161 0.01814 0.64126 0.0
H1278 H 0.21962 0.97486 0.61801 0.0
C1279 C 0.26815 0.96321 0.64049 0.0
C1280 C 0.01872 0.2738 0.63804 0.0
C1281 C 0.01329 0.29367 0.63115 0.0
H1282 H 0.0435 0.25831 0.6268 0.0
C1283 C 0.03183 0.31581 0.61262 0.0
H1284 H 0.00487 0.25655 0.65247 0.0
C1285 C 0.05429 0.31711 0.59872 0.0
C1286 C 0.05844 0.29607 0.60236 0.0
H1287 H 0.02844 0.33165 0.60745 0.0
H1288 H 0.06759 0.33392 0.58305 0.0
C1289 C 0.04103 0.27492 0.62363 0.0
C1290 C 0.20537 0.23721 0.65159 0.0
C1291 C 0.23182 0.25421 0.66042 0.0
H1292 H 0.1711 0.2325 0.62572 0.0
C1293 C 0.24293 0.28093 0.65375 0.0
H1294 H 0.19613 0.21653 0.6565 0.0
C1295 C 0.22844 0.29013 0.63639 0.0
C1296 C 0.20254 0.27284 0.6253 0.0
H1297 H 0.26316 0.29463 0.66054 0.0
H1298 H 0.23785 0.31066 0.6303 0.0
C1299 C 0.1909 0.24641 0.63419 0.0
C1300 C 0.72505 0.95538 0.67117 0.0
C1301 C 0.70418 0.96003 0.67122 0.0
H1302 H 0.73919 0.93092 0.65213 0.0
C1303 C 0.67953 0.94032 0.65898 0.0
H1304 H 0.74426 0.97022 0.68061 0.0
C1305 C 0.67647 0.91751 0.64344 0.0
C1306 C 0.69813 0.91428 0.63913 0.0
H1307 H 0.663 0.94321 0.65926 0.0
H1308 H 0.65761 0.90334 0.63215 0.0
C1309 C 0.72209 0.93273 0.65504 0.0
C1310 C 0.0645 0.75354 0.66346 0.0
C1311 C 0.04752 0.7633 0.66629 0.0
H1312 H 0.10187 0.76059 0.64622 0.0
C1313 C 0.05715 0.78969 0.65853 0.0
H1314 H 0.05787 0.73343 0.66962 0.0
C1315 C 0.08256 0.80532 0.64532 0.0
C1316 C 0.09872 0.79484 0.64015 0.0
H1317 H 0.04458 0.79783 0.66056 0.0
H1318 H 0.0889 0.82493 0.63678 0.0
C1319 C 0.08981 0.76915 0.65052 0.0
C1320 C 0.97109 0.59404 0.67852 0.0
C1321 C 0.9894 0.6203 0.68667 0.0
H1322 H 0.96021 0.5541 0.68612 0.0
C1323 C 0.0132 0.62653 0.70303 0.0
H1324 H 0.95258 0.58867 0.66586 0.0
C1325 C 0.01767 0.60686 0.71386 0.0
C1326 C 0.99841 0.58058 0.70872 0.0
H1327 H 0.0278 0.64658 0.70933 0.0
H1328 H 0.03535 0.61213 0.72888 0.0
C1329 C 0.9755 0.57426 0.68974 0.0
C1330 C 0.3933 0.3483 0.69488 0.0
C1331 C 0.37429 0.33247 0.72016 0.0
H1332 H 0.42763 0.38531 0.68464 0.0
C1333 C 0.37645 0.34168 0.75572 0.0
H1334 H 0.39215 0.3416 0.66726 0.0
C1335 C 0.39697 0.36623 0.76584 0.0
C1336 C 0.41557 0.38264 0.74043 0.0
H1337 H 0.36243 0.32974 0.776 0.0
H1338 H 0.39824 0.37226 0.79382 0.0
C1339 C 0.41368 0.37324 0.70487 0.0
C1340 C 0.63445 0.06046 0.70146 0.0
C1341 C 0.64361 0.04322 0.6951 0.0
H1342 H 0.60375 0.06522 0.72355 0.0
C1343 C 0.62675 0.01649 0.70102 0.0
H1344 H 0.64693 0.08115 0.69708 0.0
C1345 C 0.60201 0.00747 0.71555 0.0
C1346 C 0.59372 0.02498 0.72429 0.0
H1347 H 0.6331 0.00268 0.69607 0.0
H1348 H 0.59004 0.98708 0.72223 0.0
C1349 C 0.60971 0.0514 0.71624 0.0
loop_
_geom_bond_atom_site_label_1
_geom_bond_atom_site_label_2
_geom_bond_distance
_geom_bond_site_symmetry_2
_ccdc_geom_bond_type
C0 O1 1.306 1_556 S
C0 O3 1.160 . S
O1 C0 1.306 1_554 S
O1 Cd2 2.228 . S
Cd2 O1 2.228 . S
Cd2 O6 2.273 . S
Cd2 O10 2.277 1_554 S
O3 C0 1.160 . S
O3 Cd4 2.203 1_656 S
Cd4 O3 2.203 1_454 S
Cd4 O6 2.411 1_455 S
Cd4 O7 2.333 . S
Cd4 O8 2.352 . S
Cd4 O12 2.277 1_554 S
Cd4 O13 2.356 . S
C5 O10 1.209 1_455 S
C5 O12 1.226 . S
O6 Cd2 2.273 . S
O6 Cd4 2.411 1_655 S
O6 C9 1.311 1_655 S
O7 Cd4 2.333 . S
O7 C9 1.236 . S
O8 Cd4 2.352 . S
O8 C11 1.258 . S
C9 O6 1.311 1_455 S
C9 O7 1.236 . S
O10 Cd2 2.277 1_556 S
O10 C5 1.209 1_655 S
C11 O8 1.258 . S
C11 O13 1.282 . S
O12 Cd4 2.277 1_556 S
O12 C5 1.226 . S
O13 Cd4 2.356 . S
O13 C11 1.282 . S
C14 O15 1.306 . S
C14 O17 1.160 . S
O15 C14 1.306 . S
O15 Cd16 2.228 . S
Cd16 O15 2.228 . S
Cd16 O20 2.273 1_554 S
Cd16 O24 2.277 . S
O17 C14 1.160 . S
O17 Cd18 2.203 . S
Cd18 O17 2.203 . S
Cd18 O20 2.411 1_554 S
Cd18 O21 2.333 1_554 S
Cd18 O22 2.352 1_554 S
Cd18 O26 2.277 . S
Cd18 O27 2.356 . S
C19 O24 1.209 . S
C19 O26 1.226 . S
O20 Cd16 2.273 1_556 S
O20 Cd18 2.411 1_556 S
O20 C23 1.320 . S
O21 Cd18 2.333 1_556 S
O21 C23 1.214 . S
O22 Cd18 2.352 1_556 S
O22 C25 1.258 . S
C23 O20 1.320 . S
C23 O21 1.214 . S
O24 Cd16 2.277 . S
O24 C19 1.209 . S
C25 O22 1.258 . S
C25 O27 1.282 1_556 S
O26 Cd18 2.277 . S
O26 C19 1.226 . S
O27 Cd18 2.356 . S
O27 C25 1.282 1_554 S
C28 O29 1.306 . S
C28 O31 1.160 . S
O29 C28 1.306 . S
O29 Cd30 2.228 . S
Cd30 O29 2.228 . S
Cd30 O34 2.273 1_554 S
Cd30 O38 2.277 . S
O31 C28 1.160 . S
O31 Cd32 2.203 1_565 S
Cd32 O31 2.203 1_545 S
Cd32 O34 2.411 1_544 S
Cd32 O35 2.333 1_554 S
Cd32 O36 2.352 1_554 S
Cd32 O40 2.277 . S
Cd32 O41 2.356 . S
C33 O38 1.209 1_545 S
C33 O40 1.226 . S
O34 Cd30 2.273 1_556 S
O34 Cd32 2.411 1_566 S
O34 C37 1.320 1_565 S
O35 Cd32 2.333 1_556 S
O35 C37 1.214 . S
O36 Cd32 2.352 1_556 S
O36 C39 1.258 . S
C37 O34 1.320 1_545 S
C37 O35 1.214 . S
O38 Cd30 2.277 . S
O38 C33 1.209 1_565 S
C39 O36 1.258 . S
C39 O41 1.282 1_556 S
O40 Cd32 2.277 . S
O40 C33 1.226 . S
O41 Cd32 2.356 . S
O41 C39 1.282 1_554 S
C42 O43 1.306 . S
C42 O45 1.160 . S
O43 C42 1.306 . S
O43 Cd44 2.228 1_556 S
Cd44 O43 2.228 1_554 S
Cd44 O48 2.273 . S
Cd44 O52 2.277 1_554 S
O45 C42 1.160 . S
O45 Cd46 2.203 1_656 S
Cd46 O45 2.203 1_454 S
Cd46 O48 2.411 1_455 S
Cd46 O49 2.333 . S
Cd46 O50 2.352 . S
Cd46 O54 2.277 1_554 S
Cd46 O55 2.356 . S
C47 O52 1.209 1_455 S
C47 O54 1.226 . S
O48 Cd44 2.273 . S
O48 Cd46 2.411 1_655 S
O48 C51 1.300 1_655 S
O49 Cd46 2.333 . S
O49 C51 1.229 . S
O50 Cd46 2.352 . S
O50 C53 1.258 . S
C51 O48 1.300 1_455 S
C51 O49 1.229 . S
O52 Cd44 2.277 1_556 S
O52 C47 1.209 1_655 S
C53 O50 1.258 . S
C53 O55 1.282 . S
O54 Cd46 2.277 1_556 S
O54 C47 1.226 . S
O55 Cd46 2.356 . S
O55 C53 1.282 . S
C56 O57 1.306 . S
C56 O59 1.160 . S
O57 C56 1.306 . S
O57 Cd58 2.228 . S
Cd58 O57 2.228 . S
Cd58 O62 2.273 1_554 S
Cd58 O66 2.277 . S
O59 C56 1.160 . S
O59 Cd60 2.203 . S
Cd60 O59 2.203 . S
Cd60 O62 2.411 1_554 S
Cd60 O63 2.333 1_554 S
Cd60 O64 2.352 1_554 S
Cd60 O68 2.277 . S
Cd60 O69 2.356 . S
C61 O66 1.209 . S
C61 O68 1.226 . S
O62 Cd58 2.273 1_556 S
O62 Cd60 2.411 1_556 S
O62 C65 1.320 . S
O63 Cd60 2.333 1_556 S
O63 C65 1.214 . S
O64 Cd60 2.352 1_556 S
O64 C67 1.258 . S
C65 O62 1.320 . S
C65 O63 1.214 . S
O66 Cd58 2.277 . S
O66 C61 1.209 . S
C67 O64 1.258 . S
C67 O69 1.282 1_556 S
O68 Cd60 2.277 . S
O68 C61 1.226 . S
O69 Cd60 2.356 . S
O69 C67 1.282 1_554 S
C70 O71 1.304 1_556 S
C70 O73 1.160 . S
O71 C70 1.304 1_554 S
O71 Cd72 2.229 . S
Cd72 O71 2.229 . S
Cd72 O76 2.273 . S
Cd72 O80 2.277 1_554 S
O73 C70 1.160 . S
O73 Cd74 2.203 1_546 S
Cd74 O73 2.203 1_564 S
Cd74 O76 2.411 1_565 S
Cd74 O77 2.333 . S
Cd74 O78 2.352 . S
Cd74 O82 2.277 1_554 S
Cd74 O83 2.356 . S
C75 O80 1.177 1_565 S
C75 O82 1.271 . S
O76 Cd72 2.273 . S
O76 Cd74 2.411 1_545 S
O76 C79 1.340 . S
O77 Cd74 2.333 . S
O77 C79 1.173 1_565 S
O78 Cd74 2.352 . S
O78 C81 1.258 . S
C79 O76 1.340 . S
C79 O77 1.173 1_545 S
O80 Cd72 2.277 1_556 S
O80 C75 1.177 1_545 S
C81 O78 1.258 . S
C81 O83 1.282 . S
O82 Cd74 2.277 1_556 S
O82 C75 1.271 . S
O83 Cd74 2.356 . S
O83 C81 1.282 . S
C84 O85 1.306 . S
C84 O87 1.160 . S
O85 C84 1.306 . S
O85 Cd86 2.228 . S
Cd86 O85 2.228 . S
Cd86 O90 2.273 . S
Cd86 O94 2.277 . S
O87 C84 1.160 . S
O87 Cd88 2.203 . S
Cd88 O87 2.203 . S
Cd88 O90 2.411 . S
Cd88 O91 2.333 . S
Cd88 O92 2.352 . S
Cd88 O96 2.277 . S
Cd88 O97 2.356 . S
C89 O94 1.209 . S
C89 O96 1.226 . S
O90 Cd86 2.273 . S
O90 Cd88 2.411 . S
O90 C93 1.320 . S
O91 Cd88 2.333 . S
O91 C93 1.214 . S
O92 Cd88 2.352 . S
O92 C95 1.258 . S
C93 O90 1.320 . S
C93 O91 1.214 . S
O94 Cd86 2.277 . S
O94 C89 1.209 . S
C95 O92 1.258 . S
C95 O97 1.282 . S
O96 Cd88 2.277 . S
O96 C89 1.226 . S
O97 Cd88 2.356 . S
O97 C95 1.282 . S
C98 O99 1.306 . S
C98 O101 1.160 . S
O99 C98 1.306 . S
O99 Cd100 2.228 1_545 S
Cd100 O99 2.228 1_565 S
Cd100 O104 2.273 . S
Cd100 O108 2.277 . S
O101 C98 1.160 . S
O101 Cd102 2.203 1_545 S
Cd102 O101 2.203 1_565 S
Cd102 O104 2.411 . S
Cd102 O105 2.333 . S
Cd102 O106 2.352 1_565 S
Cd102 O110 2.277 . S
Cd102 O111 2.356 . S
C103 O108 1.209 . S
C103 O110 1.226 . S
O104 Cd100 2.273 . S
O104 Cd102 2.411 . S
O104 C107 1.320 . S
O105 Cd102 2.333 . S
O105 C107 1.214 . S
O106 Cd102 2.352 1_545 S
O106 C109 1.258 1_545 S
C107 O104 1.320 . S
C107 O105 1.214 . S
O108 Cd100 2.277 . S
O108 C103 1.209 . S
C109 O106 1.258 1_565 S
C109 O111 1.282 . S
O110 Cd102 2.277 . S
O110 C103 1.226 . S
O111 Cd102 2.356 . S
O111 C109 1.282 . S
C112 O113 1.306 . S
C112 O115 1.160 . S
O113 C112 1.306 . S
O113 Cd114 2.228 1_655 S
Cd114 O113 2.228 1_455 S
Cd114 O118 2.273 . S
Cd114 O122 2.277 . S
O115 C112 1.160 . S
O115 Cd116 2.203 1_655 S
Cd116 O115 2.203 1_455 S
Cd116 O118 2.411 . S
Cd116 O119 2.333 . S
Cd116 O120 2.352 . S
Cd116 O124 2.277 . S
Cd116 O125 2.356 . S
C117 O122 1.209 . S
C117 O124 1.226 . S
O118 Cd114 2.273 . S
O118 Cd116 2.411 . S
O118 C121 1.320 . S
O119 Cd116 2.333 . S
O119 C121 1.214 . S
O120 Cd116 2.352 . S
O120 C123 1.258 . S
C121 O118 1.320 . S
C121 O119 1.214 . S
O122 Cd114 2.277 . S
O122 C117 1.209 . S
C123 O120 1.258 . S
C123 O125 1.282 . S
O124 Cd116 2.277 . S
O124 C117 1.226 . S
O125 Cd116 2.356 . S
O125 C123 1.282 . S
C126 O127 1.306 . S
C126 O129 1.161 . S
O127 C126 1.306 . S
O127 Cd128 2.228 . S
Cd128 O127 2.228 . S
Cd128 O132 2.273 . S
Cd128 O136 2.277 . S
O129 C126 1.161 . S
O129 Cd130 2.225 . S
Cd130 O129 2.225 . S
Cd130 O132 2.411 . S
Cd130 O133 2.333 . S
Cd130 O134 2.352 1_565 S
Cd130 O138 2.277 . S
Cd130 O139 2.356 1_565 S
C131 O136 1.209 . S
C131 O138 1.226 . S
O132 Cd128 2.273 . S
O132 Cd130 2.411 . S
O132 C135 1.320 . S
O133 Cd130 2.333 . S
O133 C135 1.214 . S
O134 Cd130 2.352 1_545 S
O134 C137 1.258 . S
C135 O132 1.320 . S
C135 O133 1.214 . S
O136 Cd128 2.277 . S
O136 C131 1.209 . S
C137 O134 1.258 . S
C137 O139 1.282 . S
O138 Cd130 2.277 . S
O138 C131 1.226 . S
O139 Cd130 2.356 1_545 S
O139 C137 1.282 . S
C140 O141 1.306 . S
C140 O143 1.160 . S
O141 C140 1.306 . S
O141 Cd142 2.228 1_655 S
Cd142 O141 2.228 1_455 S
Cd142 O146 2.273 . S
Cd142 O150 2.277 . S
O143 C140 1.160 . S
O143 Cd144 2.203 1_655 S
Cd144 O143 2.203 1_455 S
Cd144 O146 2.411 . S
Cd144 O147 2.333 . S
Cd144 O148 2.352 1_455 S
Cd144 O152 2.277 . S
Cd144 O153 2.356 . S
C145 O150 1.209 . S
C145 O152 1.226 . S
O146 Cd142 2.273 . S
O146 Cd144 2.411 . S
O146 C149 1.320 . S
O147 Cd144 2.333 . S
O147 C149 1.214 . S
O148 Cd144 2.352 1_655 S
O148 C151 1.258 1_655 S
C149 O146 1.320 . S
C149 O147 1.214 . S
O150 Cd142 2.277 . S
O150 C145 1.209 . S
C151 O148 1.258 1_455 S
C151 O153 1.282 . S
O152 Cd144 2.277 . S
O152 C145 1.226 . S
O153 Cd144 2.356 . S
O153 C151 1.282 . S
C154 O155 1.306 . S
C154 O157 1.160 . S
O155 C154 1.306 . S
O155 Cd156 2.228 . S
Cd156 O155 2.228 . S
Cd156 O160 2.273 . S
Cd156 O164 2.277 . S
O157 C154 1.160 . S
O157 Cd158 2.203 . S
Cd158 O157 2.203 . S
Cd158 O160 2.411 . S
Cd158 O161 2.333 . S
Cd158 O162 2.352 . S
Cd158 O166 2.277 . S
Cd158 O167 2.356 . S
C159 O164 1.209 . S
C159 O166 1.226 . S
O160 Cd156 2.273 . S
O160 Cd158 2.411 . S
O160 C163 1.320 . S
O161 Cd158 2.333 . S
O161 C163 1.214 . S
O162 Cd158 2.352 . S
O162 C165 1.258 . S
C163 O160 1.320 . S
C163 O161 1.214 . S
O164 Cd156 2.277 . S
O164 C159 1.209 . S
C165 O162 1.258 . S
C165 O167 1.282 . S
O166 Cd158 2.277 . S
O166 C159 1.226 . S
O167 Cd158 2.356 . S
O167 C165 1.282 . S
C168 O169 1.306 . S
C168 O171 1.160 . S
O169 C168 1.306 . S
O169 Cd170 2.228 1_565 S
Cd170 O169 2.228 1_545 S
Cd170 O174 2.273 . S
Cd170 O178 2.277 . S
O171 C168 1.160 . S
O171 Cd172 2.203 1_565 S
Cd172 O171 2.203 1_545 S
Cd172 O174 2.411 . S
Cd172 O175 2.333 . S
Cd172 O176 2.352 1_545 S
Cd172 O180 2.277 . S
Cd172 O181 2.356 . S
C173 O178 1.209 . S
C173 O180 1.226 . S
O174 Cd170 2.273 . S
O174 Cd172 2.411 . S
O174 C177 1.320 . S
O175 Cd172 2.333 . S
O175 C177 1.214 . S
O176 Cd172 2.352 1_565 S
O176 C179 1.258 1_565 S
C177 O174 1.320 . S
C177 O175 1.214 . S
O178 Cd170 2.277 . S
O178 C173 1.209 . S
C179 O176 1.258 1_545 S
C179 O181 1.282 . S
O180 Cd172 2.277 . S
O180 C173 1.226 . S
O181 Cd172 2.356 . S
O181 C179 1.282 . S
C182 O183 1.306 . S
C182 O185 1.160 1_655 S
O183 C182 1.306 . S
O183 Cd184 2.228 . S
Cd184 O183 2.228 . S
Cd184 O188 2.273 . S
Cd184 O192 2.277 . S
O185 C182 1.160 1_455 S
O185 Cd186 2.203 1_455 S
Cd186 O185 2.203 1_655 S
Cd186 O188 2.411 . S
Cd186 O189 2.333 . S
Cd186 O190 2.352 1_655 S
Cd186 O194 2.277 . S
Cd186 O195 2.356 1_655 S
C187 O192 1.209 . S
C187 O194 1.226 . S
O188 Cd184 2.273 . S
O188 Cd186 2.411 . S
O188 C191 1.320 . S
O189 Cd186 2.333 . S
O189 C191 1.214 . S
O190 Cd186 2.352 1_455 S
O190 C193 1.258 . S
C191 O188 1.320 . S
C191 O189 1.214 . S
O192 Cd184 2.277 . S
O192 C187 1.209 . S
C193 O190 1.258 . S
C193 O195 1.282 . S
O194 Cd186 2.277 . S
O194 C187 1.226 . S
O195 Cd186 2.356 1_455 S
O195 C193 1.282 . S
C196 O197 1.306 . S
C196 O199 1.160 . S
O197 C196 1.306 . S
O197 Cd198 2.228 . S
Cd198 O197 2.228 . S
Cd198 O202 2.273 . S
Cd198 O206 2.277 . S
O199 C196 1.160 . S
O199 Cd200 2.203 . S
Cd200 O199 2.203 . S
Cd200 O202 2.411 . S
Cd200 O203 2.333 . S
Cd200 O204 2.352 . S
Cd200 O208 2.277 . S
Cd200 O209 2.356 . S
C201 O206 1.209 . S
C201 O208 1.226 . S
O202 Cd198 2.273 . S
O202 Cd200 2.411 . S
O202 C205 1.320 . S
O203 Cd200 2.333 . S
O203 C205 1.214 . S
O204 Cd200 2.352 . S
O204 C207 1.258 . S
C205 O202 1.320 . S
C205 O203 1.214 . S
O206 Cd198 2.277 . S
O206 C201 1.209 . S
C207 O204 1.258 . S
C207 O209 1.282 . S
O208 Cd200 2.277 . S
O208 C201 1.226 . S
O209 Cd200 2.356 . S
O209 C207 1.282 . S
C210 O211 1.306 . S
C210 O213 1.160 . S
O211 C210 1.306 . S
O211 Cd212 2.228 . S
Cd212 O211 2.228 . S
Cd212 O216 2.273 . S
Cd212 O220 2.277 . S
O213 C210 1.160 . S
O213 Cd214 2.203 . S
Cd214 O213 2.203 . S
Cd214 O216 2.411 . S
Cd214 O217 2.333 . S
Cd214 O218 2.352 . S
Cd214 O222 2.277 . S
Cd214 O223 2.356 . S
C215 O220 1.209 . S
C215 O222 1.226 . S
O216 Cd212 2.273 . S
O216 Cd214 2.411 . S
O216 C219 1.320 . S
O217 Cd214 2.333 . S
O217 C219 1.214 . S
O218 Cd214 2.352 . S
O218 C221 1.258 . S
C219 O216 1.320 . S
C219 O217 1.214 . S
O220 Cd212 2.277 . S
O220 C215 1.209 . S
C221 O218 1.258 . S
C221 O223 1.282 . S
O222 Cd214 2.277 . S
O222 C215 1.226 . S
O223 Cd214 2.356 . S
O223 C221 1.282 . S
C224 O225 1.306 . S
C224 O227 1.160 . S
O225 C224 1.306 . S
O225 Cd226 2.228 . S
Cd226 O225 2.228 . S
Cd226 O230 2.273 . S
Cd226 O234 2.277 . S
O227 C224 1.160 . S
O227 Cd228 2.203 . S
Cd228 O227 2.203 . S
Cd228 O230 2.411 . S
Cd228 O231 2.333 . S
Cd228 O232 2.352 1_545 S
Cd228 O236 2.277 . S
Cd228 O237 2.356 1_545 S
C229 O234 1.209 . S
C229 O236 1.226 . S
O230 Cd226 2.273 . S
O230 Cd228 2.411 . S
O230 C233 1.320 . S
O231 Cd228 2.333 . S
O231 C233 1.214 . S
O232 Cd228 2.352 1_565 S
O232 C235 1.258 . S
C233 O230 1.320 . S
C233 O231 1.214 . S
O234 Cd226 2.277 . S
O234 C229 1.209 . S
C235 O232 1.258 . S
C235 O237 1.282 . S
O236 Cd228 2.277 . S
O236 C229 1.226 . S
O237 Cd228 2.356 1_565 S
O237 C235 1.282 . S
C238 O239 1.306 . S
C238 O241 1.160 . S
O239 C238 1.306 . S
O239 Cd240 2.228 1_455 S
Cd240 O239 2.228 1_655 S
Cd240 O244 2.273 . S
Cd240 O248 2.277 . S
O241 C238 1.160 . S
O241 Cd242 2.203 1_455 S
Cd242 O241 2.203 1_655 S
Cd242 O244 2.411 . S
Cd242 O245 2.333 . S
Cd242 O246 2.352 1_655 S
Cd242 O250 2.277 . S
Cd242 O251 2.356 . S
C243 O248 1.209 . S
C243 O250 1.226 . S
O244 Cd240 2.273 . S
O244 Cd242 2.411 . S
O244 C247 1.320 . S
O245 Cd242 2.333 . S
O245 C247 1.214 . S
O246 Cd242 2.352 1_455 S
O246 C249 1.258 1_455 S
C247 O244 1.320 . S
C247 O245 1.214 . S
O248 Cd240 2.277 . S
O248 C243 1.209 . S
C249 O246 1.258 1_655 S
C249 O251 1.282 . S
O250 Cd242 2.277 . S
O250 C243 1.226 . S
O251 Cd242 2.356 . S
O251 C249 1.282 . S
H252 C260 0.930 . S
H253 C263 0.930 . S
H254 C265 0.930 . S
H255 C266 0.970 . S
H256 C266 0.970 . S
H257 C268 0.930 . S
H258 C270 0.930 . S
H259 C272 0.930 . S
C260 H252 0.930 . S
C260 C261 1.382 . S
C260 C262 1.426 . S
C261 C260 1.382 . S
C261 C265 1.389 . S
C262 C260 1.426 . S
C262 C263 1.375 . S
C262 C266 1.532 . S
C263 H253 0.930 . S
C263 C262 1.375 . S
C263 C264 1.416 . S
C264 C263 1.416 . S
C264 C265 1.371 . S
C265 H254 0.930 . S
C265 C261 1.389 . S
C265 C264 1.371 . S
C266 H255 0.970 . S
C266 H256 0.970 . S
C266 C262 1.532 . S
C266 C267 1.499 . S
C267 C266 1.499 . S
C267 C268 1.370 . S
C267 C272 1.415 . S
C268 H257 0.930 . S
C268 C267 1.370 . S
C268 C269 1.407 . S
C269 C268 1.407 . S
C269 C270 1.365 . S
C270 H258 0.930 . S
C270 C269 1.365 . S
C270 C271 1.393 . S
C271 C270 1.393 . S
C271 C272 1.387 . S
C272 H259 0.930 . S
C272 C267 1.415 . S
C272 C271 1.387 . S
H273 C281 0.930 . S
H274 C284 0.930 . S
H275 C286 0.930 . S
H276 C287 0.970 . S
H277 C287 0.970 . S
H278 C289 0.930 . S
H279 C291 0.930 . S
H280 C293 0.930 . S
C281 H273 0.930 . S
C281 C282 1.382 . S
C281 C283 1.426 . S
C282 C281 1.382 . S
C282 C286 1.389 . S
C283 C281 1.426 . S
C283 C284 1.375 . S
C283 C287 1.532 . S
C284 H274 0.930 . S
C284 C283 1.375 . S
C284 C285 1.416 . S
C285 C284 1.416 . S
C285 C286 1.371 . S
C286 H275 0.930 . S
C286 C282 1.389 . S
C286 C285 1.371 . S
C287 H276 0.970 . S
C287 H277 0.970 . S
C287 C283 1.532 . S
C287 C288 1.499 . S
C288 C287 1.499 . S
C288 C289 1.370 . S
C288 C293 1.415 . S
C289 H278 0.930 . S
C289 C288 1.370 . S
C289 C290 1.407 . S
C290 C289 1.407 . S
C290 C291 1.365 . S
C291 H279 0.930 . S
C291 C290 1.365 . S
C291 C292 1.393 . S
C292 C291 1.393 . S
C292 C293 1.387 . S
C293 H280 0.930 . S
C293 C288 1.415 . S
C293 C292 1.387 . S
H294 C302 0.930 . S
H295 C305 0.930 . S
H296 C307 0.930 . S
H297 C308 0.970 . S
H298 C308 0.970 . S
H299 C310 0.930 . S
H300 C312 0.930 . S
H301 C314 0.930 . S
C302 H294 0.930 . S
C302 C303 1.382 . S
C302 C304 1.426 . S
C303 C302 1.382 . S
C303 C307 1.389 . S
C304 C302 1.426 . S
C304 C305 1.375 . S
C304 C308 1.532 . S
C305 H295 0.930 . S
C305 C304 1.375 . S
C305 C306 1.416 . S
C306 C305 1.416 . S
C306 C307 1.371 . S
C307 H296 0.930 . S
C307 C303 1.389 . S
C307 C306 1.371 . S
C308 H297 0.970 . S
C308 H298 0.970 . S
C308 C304 1.532 . S
C308 C309 1.499 . S
C309 C308 1.499 . S
C309 C310 1.370 . S
C309 C314 1.415 . S
C310 H299 0.930 . S
C310 C309 1.370 . S
C310 C311 1.407 . S
C311 C310 1.407 . S
C311 C312 1.365 . S
C312 H300 0.930 . S
C312 C311 1.365 . S
C312 C313 1.393 . S
C313 C312 1.393 . S
C313 C314 1.387 . S
C314 H301 0.930 . S
C314 C309 1.415 . S
C314 C313 1.387 . S
H315 C323 0.930 . S
H316 C326 0.930 . S
H317 C328 0.930 . S
H318 C329 0.970 . S
H319 C329 0.970 . S
H320 C331 0.930 . S
H321 C333 0.930 . S
H322 C335 0.930 . S
C323 H315 0.930 . S
C323 C324 1.382 . S
C323 C325 1.426 . S
C324 C323 1.382 . S
C324 C328 1.389 . S
C325 C323 1.426 . S
C325 C326 1.375 . S
C325 C329 1.532 . S
C326 H316 0.930 . S
C326 C325 1.375 . S
C326 C327 1.416 . S
C327 C326 1.416 . S
C327 C328 1.371 . S
C328 H317 0.930 . S
C328 C324 1.389 . S
C328 C327 1.371 . S
C329 H318 0.970 . S
C329 H319 0.970 . S
C329 C325 1.532 . S
C329 C330 1.499 . S
C330 C329 1.499 . S
C330 C331 1.370 . S
C330 C335 1.415 . S
C331 H320 0.930 . S
C331 C330 1.370 . S
C331 C332 1.407 . S
C332 C331 1.407 . S
C332 C333 1.365 . S
C333 H321 0.930 . S
C333 C332 1.365 . S
C333 C334 1.393 . S
C334 C333 1.393 . S
C334 C335 1.387 . S
C335 H322 0.930 . S
C335 C330 1.415 . S
C335 C334 1.387 . S
H336 C344 0.930 . S
H337 C347 0.930 . S
H338 C349 0.930 . S
H339 C350 0.970 . S
H340 C350 0.970 . S
H341 C352 0.930 . S
H342 C354 0.930 . S
H343 C356 0.930 . S
C344 H336 0.930 . S
C344 C345 1.382 . S
C344 C346 1.426 . S
C345 C344 1.382 . S
C345 C349 1.389 . S
C346 C344 1.426 . S
C346 C347 1.375 . S
C346 C350 1.532 . S
C347 H337 0.930 . S
C347 C346 1.375 . S
C347 C348 1.416 . S
C348 C347 1.416 . S
C348 C349 1.371 . S
C349 H338 0.930 . S
C349 C345 1.389 . S
C349 C348 1.371 . S
C350 H339 0.970 . S
C350 H340 0.970 . S
C350 C346 1.532 . S
C350 C351 1.499 . S
C351 C350 1.499 . S
C351 C352 1.370 . S
C351 C356 1.415 . S
C352 H341 0.930 . S
C352 C351 1.370 . S
C352 C353 1.407 . S
C353 C352 1.407 . S
C353 C354 1.365 . S
C354 H342 0.930 . S
C354 C353 1.365 . S
C354 C355 1.393 . S
C355 C354 1.393 . S
C355 C356 1.387 . S
C356 H343 0.930 . S
C356 C351 1.415 . S
C356 C355 1.387 . S
H357 C365 0.930 . S
H358 C368 0.930 . S
H359 C370 0.930 . S
H360 C371 0.970 . S
H361 C371 0.970 . S
H362 C373 0.930 . S
H363 C375 0.930 . S
H364 C377 0.930 . S
C365 H357 0.930 . S
C365 C366 1.382 . S
C365 C367 1.426 . S
C366 C365 1.382 . S
C366 C370 1.389 . S
C367 C365 1.426 . S
C367 C368 1.375 . S
C367 C371 1.532 . S
C368 H358 0.930 . S
C368 C367 1.375 . S
C368 C369 1.416 . S
C369 C368 1.416 . S
C369 C370 1.371 . S
C370 H359 0.930 . S
C370 C366 1.389 . S
C370 C369 1.371 . S
C371 H360 0.970 . S
C371 H361 0.970 . S
C371 C367 1.532 . S
C371 C372 1.499 . S
C372 C371 1.499 . S
C372 C373 1.370 . S
C372 C377 1.415 . S
C373 H362 0.930 . S
C373 C372 1.370 . S
C373 C374 1.407 . S
C374 C373 1.407 . S
C374 C375 1.365 . S
C375 H363 0.930 . S
C375 C374 1.365 . S
C375 C376 1.393 . S
C376 C375 1.393 . S
C376 C377 1.387 . S
C377 H364 0.930 . S
C377 C372 1.415 . S
C377 C376 1.387 . S
H378 C386 0.930 . S
H379 C389 0.930 . S
H380 C391 0.930 . S
H381 C392 0.970 . S
H382 C392 0.970 . S
H383 C394 0.930 . S
H384 C396 0.930 . S
H385 C398 0.930 . S
C386 H378 0.930 . S
C386 C387 1.382 . S
C386 C388 1.426 . S
C387 C386 1.382 . S
C387 C391 1.389 . S
C388 C386 1.426 . S
C388 C389 1.375 . S
C388 C392 1.532 . S
C389 H379 0.930 . S
C389 C388 1.375 . S
C389 C390 1.416 . S
C390 C389 1.416 . S
C390 C391 1.371 . S
C391 H380 0.930 . S
C391 C387 1.389 . S
C391 C390 1.371 . S
C392 H381 0.970 . S
C392 H382 0.970 . S
C392 C388 1.532 . S
C392 C393 1.499 . S
C393 C392 1.499 . S
C393 C394 1.370 . S
C393 C398 1.415 . S
C394 H383 0.930 . S
C394 C393 1.370 . S
C394 C395 1.407 . S
C395 C394 1.407 . S
C395 C396 1.365 . S
C396 H384 0.930 . S
C396 C395 1.365 . S
C396 C397 1.393 . S
C397 C396 1.393 . S
C397 C398 1.387 . S
C398 H385 0.930 . S
C398 C393 1.415 . S
C398 C397 1.387 . S
H399 C407 0.930 . S
H400 C410 0.930 . S
H401 C412 0.930 . S
H402 C413 0.970 . S
H403 C413 0.970 . S
H404 C415 0.930 . S
H405 C417 0.930 . S
H406 C419 0.930 . S
C407 H399 0.930 . S
C407 C408 1.382 . S
C407 C409 1.426 . S
C408 C407 1.382 . S
C408 C412 1.389 . S
C409 C407 1.426 . S
C409 C410 1.375 . S
C409 C413 1.532 . S
C410 H400 0.930 . S
C410 C409 1.375 . S
C410 C411 1.416 . S
C411 C410 1.416 . S
C411 C412 1.371 . S
C412 H401 0.930 . S
C412 C408 1.389 . S
C412 C411 1.371 . S
C413 H402 0.970 . S
C413 H403 0.970 . S
C413 C409 1.532 . S
C413 C414 1.499 . S
C414 C413 1.499 . S
C414 C415 1.370 . S
C414 C419 1.415 . S
C415 H404 0.930 . S
C415 C414 1.370 . S
C415 C416 1.407 . S
C416 C415 1.407 . S
C416 C417 1.365 . S
C417 H405 0.930 . S
C417 C416 1.365 . S
C417 C418 1.393 . S
C418 C417 1.393 . S
C418 C419 1.387 . S
C419 H406 0.930 . S
C419 C414 1.415 . S
C419 C418 1.387 . S
H420 C428 0.930 . S
H421 C431 0.930 . S
H422 C433 0.930 . S
H423 C434 0.970 . S
H424 C434 0.970 . S
H425 C436 0.930 . S
H426 C438 0.930 . S
H427 C440 0.930 . S
C428 H420 0.930 . S
C428 C429 1.382 . S
C428 C430 1.426 . S
C429 C428 1.382 . S
C429 C433 1.389 . S
C430 C428 1.426 . S
C430 C431 1.375 . S
C430 C434 1.532 . S
C431 H421 0.930 . S
C431 C430 1.375 . S
C431 C432 1.416 . S
C432 C431 1.416 . S
C432 C433 1.371 . S
C433 H422 0.930 . S
C433 C429 1.389 . S
C433 C432 1.371 . S
C434 H423 0.970 . S
C434 H424 0.970 . S
C434 C430 1.532 . S
C434 C435 1.499 . S
C435 C434 1.499 . S
C435 C436 1.370 . S
C435 C440 1.415 . S
C436 H425 0.930 . S
C436 C435 1.370 . S
C436 C437 1.407 . S
C437 C436 1.407 . S
C437 C438 1.365 . S
C438 H426 0.930 . S
C438 C437 1.365 . S
C438 C439 1.393 . S
C439 C438 1.393 . S
C439 C440 1.387 . S
C440 H427 0.930 . S
C440 C435 1.415 . S
C440 C439 1.387 . S
H441 C449 0.930 . S
H442 C452 0.930 . S
H443 C454 0.930 . S
H444 C455 0.970 . S
H445 C455 0.970 . S
H446 C457 0.930 . S
H447 C459 0.930 . S
H448 C461 0.930 . S
C449 H441 0.930 . S
C449 C450 1.382 . S
C449 C451 1.426 . S
C450 C449 1.382 . S
C450 C454 1.389 1_455 S
C451 C449 1.426 . S
C451 C452 1.375 . S
C451 C455 1.532 . S
C452 H442 0.930 . S
C452 C451 1.375 . S
C452 C453 1.416 . S
C453 C452 1.416 . S
C453 C454 1.371 1_455 S
C454 H443 0.930 . S
C454 C450 1.389 1_655 S
C454 C453 1.371 1_655 S
C455 H444 0.970 . S
C455 H445 0.970 . S
C455 C451 1.532 . S
C455 C456 1.499 . S
C456 C455 1.499 . S
C456 C457 1.370 . S
C456 C461 1.415 . S
C457 H446 0.930 . S
C457 C456 1.370 . S
C457 C458 1.410 . S
C458 C457 1.410 . S
C458 C459 1.370 1_455 S
C459 H447 0.930 . S
C459 C458 1.370 1_655 S
C459 C460 1.393 1_655 S
C460 C459 1.393 1_455 S
C460 C461 1.387 . S
C461 H448 0.930 . S
C461 C456 1.415 . S
C461 C460 1.387 . S
H462 C470 0.930 . S
H463 C473 0.930 . S
H464 C475 0.930 . S
H465 C476 0.970 . S
H466 C476 0.970 . S
H467 C478 0.930 . S
H468 C480 0.930 . S
H469 C482 0.930 . S
C470 H462 0.930 . S
C470 C471 1.382 . S
C470 C472 1.426 . S
C471 C470 1.382 . S
C471 C475 1.389 . S
C472 C470 1.426 . S
C472 C473 1.375 . S
C472 C476 1.532 . S
C473 H463 0.930 . S
C473 C472 1.375 . S
C473 C474 1.416 . S
C474 C473 1.416 . S
C474 C475 1.371 . S
C475 H464 0.930 . S
C475 C471 1.389 . S
C475 C474 1.371 . S
C476 H465 0.970 . S
C476 H466 0.970 . S
C476 C472 1.532 . S
C476 C477 1.499 . S
C477 C476 1.499 . S
C477 C478 1.370 . S
C477 C482 1.415 . S
C478 H467 0.930 . S
C478 C477 1.370 . S
C478 C479 1.407 . S
C479 C478 1.407 . S
C479 C480 1.365 . S
C480 H468 0.930 . S
C480 C479 1.365 . S
C480 C481 1.393 . S
C481 C480 1.393 . S
C481 C482 1.387 . S
C482 H469 0.930 . S
C482 C477 1.415 . S
C482 C481 1.387 . S
H483 C491 0.930 . S
H484 C494 0.930 . S
H485 C496 0.930 . S
H486 C497 0.970 . S
H487 C497 0.970 . S
H488 C499 0.930 . S
H489 C501 0.930 . S
H490 C503 0.930 . S
C491 H483 0.930 . S
C491 C492 1.382 . S
C491 C493 1.426 . S
C492 C491 1.382 . S
C492 C496 1.389 1_565 S
C493 C491 1.426 . S
C493 C494 1.375 . S
C493 C497 1.532 . S
C494 H484 0.930 . S
C494 C493 1.375 . S
C494 C495 1.416 . S
C495 C494 1.416 . S
C495 C496 1.371 1_565 S
C496 H485 0.930 . S
C496 C492 1.389 1_545 S
C496 C495 1.371 1_545 S
C497 H486 0.970 . S
C497 H487 0.970 . S
C497 C493 1.532 . S
C497 C498 1.499 . S
C498 C497 1.499 . S
C498 C499 1.370 . S
C498 C503 1.415 . S
C499 H488 0.930 . S
C499 C498 1.370 . S
C499 C500 1.426 . S
C500 C499 1.426 . S
C500 C501 1.357 1_565 S
C501 H489 0.930 . S
C501 C500 1.357 1_545 S
C501 C502 1.393 1_545 S
C502 C501 1.393 1_565 S
C502 C503 1.387 . S
C503 H490 0.930 . S
C503 C498 1.415 . S
C503 C502 1.387 . S
H504 C512 0.930 . S
H505 C515 0.930 . S
H506 C517 0.930 . S
H507 C518 0.970 . S
H508 C518 0.970 . S
H509 C520 0.930 . S
H510 C522 0.930 . S
H511 C524 0.930 . S
C512 H504 0.930 . S
C512 C513 1.382 . S
C512 C514 1.426 . S
C513 C512 1.382 . S
C513 C517 1.389 1_565 S
C514 C512 1.426 . S
C514 C515 1.375 . S
C514 C518 1.532 . S
C515 H505 0.930 . S
C515 C514 1.375 . S
C515 C516 1.416 . S
C516 C515 1.416 . S
C516 C517 1.371 1_565 S
C517 H506 0.930 . S
C517 C513 1.389 1_545 S
C517 C516 1.371 1_545 S
C518 H507 0.970 . S
C518 H508 0.970 . S
C518 C514 1.532 . S
C518 C519 1.499 . S
C519 C518 1.499 . S
C519 C520 1.370 . S
C519 C524 1.415 . S
C520 H509 0.930 . S
C520 C519 1.370 . S
C520 C521 1.407 . S
C521 C520 1.407 . S
C521 C522 1.365 1_565 S
C522 H510 0.930 . S
C522 C521 1.365 1_545 S
C522 C523 1.393 1_545 S
C523 C522 1.393 1_565 S
C523 C524 1.387 . S
C524 H511 0.930 . S
C524 C519 1.415 . S
C524 C523 1.387 . S
H525 C533 0.930 . S
H526 C536 0.930 . S
H527 C538 0.930 . S
H528 C539 0.970 . S
H529 C539 0.970 . S
H530 C541 0.930 . S
H531 C543 0.930 . S
H532 C545 0.930 . S
C533 H525 0.930 . S
C533 C534 1.382 . S
C533 C535 1.426 . S
C534 C533 1.382 . S
C534 C538 1.389 1_455 S
C535 C533 1.426 . S
C535 C536 1.375 . S
C535 C539 1.532 . S
C536 H526 0.930 . S
C536 C535 1.375 . S
C536 C537 1.416 . S
C537 C536 1.416 . S
C537 C538 1.371 1_455 S
C538 H527 0.930 . S
C538 C534 1.389 1_655 S
C538 C537 1.371 1_655 S
C539 H528 0.970 . S
C539 H529 0.970 . S
C539 C535 1.532 . S
C539 C540 1.499 . S
C540 C539 1.499 . S
C540 C541 1.370 . S
C540 C545 1.415 . S
C541 H530 0.930 . S
C541 C540 1.370 . S
C541 C542 1.407 . S
C542 C541 1.407 . S
C542 C543 1.365 1_455 S
C543 H531 0.930 . S
C543 C542 1.365 1_655 S
C543 C544 1.393 1_655 S
C544 C543 1.393 1_455 S
C544 C545 1.387 . S
C545 H532 0.930 . S
C545 C540 1.415 . S
C545 C544 1.387 . S
H546 C554 0.930 . S
H547 C557 0.930 . S
H548 C559 0.930 . S
H549 C560 0.970 . S
H550 C560 0.970 . S
H551 C562 0.930 . S
H552 C564 0.930 . S
H553 C566 0.930 . S
C554 H546 0.930 . S
C554 C555 1.382 . S
C554 C556 1.426 . S
C555 C554 1.382 . S
C555 C559 1.389 . S
C556 C554 1.426 . S
C556 C557 1.375 . S
C556 C560 1.532 . S
C557 H547 0.930 . S
C557 C556 1.375 . S
C557 C558 1.416 . S
C558 C557 1.416 . S
C558 C559 1.371 . S
C559 H548 0.930 . S
C559 C555 1.389 . S
C559 C558 1.371 . S
C560 H549 0.970 . S
C560 H550 0.970 . S
C560 C556 1.532 . S
C560 C561 1.499 . S
C561 C560 1.499 . S
C561 C562 1.370 . S
C561 C566 1.415 . S
C562 H551 0.930 . S
C562 C561 1.370 . S
C562 C563 1.407 . S
C563 C562 1.407 . S
C563 C564 1.365 . S
C564 H552 0.930 . S
C564 C563 1.365 . S
C564 C565 1.393 . S
C565 C564 1.393 . S
C565 C566 1.387 . S
C566 H553 0.930 . S
C566 C561 1.415 . S
C566 C565 1.387 . S
H567 C575 0.930 . S
H568 C578 0.930 . S
H569 C580 0.930 . S
H570 C581 0.970 . S
H571 C581 0.970 . S
H572 C583 0.930 . S
H573 C585 0.930 . S
H574 C587 0.930 . S
C575 H567 0.930 . S
C575 C576 1.382 . S
C575 C577 1.426 . S
C576 C575 1.382 . S
C576 C580 1.389 . S
C577 C575 1.426 . S
C577 C578 1.375 . S
C577 C581 1.532 . S
C578 H568 0.930 . S
C578 C577 1.375 . S
C578 C579 1.416 . S
C579 C578 1.416 . S
C579 C580 1.371 . S
C580 H569 0.930 . S
C580 C576 1.389 . S
C580 C579 1.371 . S
C581 H570 0.970 . S
C581 H571 0.970 . S
C581 C577 1.532 . S
C581 C582 1.499 . S
C582 C581 1.499 . S
C582 C583 1.370 . S
C582 C587 1.415 . S
C583 H572 0.930 . S
C583 C582 1.370 . S
C583 C584 1.407 . S
C584 C583 1.407 . S
C584 C585 1.365 . S
C585 H573 0.930 . S
C585 C584 1.365 . S
C585 C586 1.393 . S
C586 C585 1.393 . S
C586 C587 1.387 . S
C587 H574 0.930 . S
C587 C582 1.415 . S
C587 C586 1.387 . S
H588 C596 0.930 . S
H589 C599 0.930 . S
H590 C601 0.930 . S
H591 C602 0.970 . S
H592 C602 0.970 . S
H593 C604 0.930 . S
H594 C606 0.930 . S
H595 C608 0.930 . S
C596 H588 0.930 . S
C596 C597 1.382 . S
C596 C598 1.426 . S
C597 C596 1.382 . S
C597 C601 1.389 . S
C598 C596 1.426 . S
C598 C599 1.375 . S
C598 C602 1.532 . S
C599 H589 0.930 . S
C599 C598 1.375 . S
C599 C600 1.416 . S
C600 C599 1.416 . S
C600 C601 1.371 . S
C601 H590 0.930 . S
C601 C597 1.389 . S
C601 C600 1.371 . S
C602 H591 0.970 . S
C602 H592 0.970 . S
C602 C598 1.532 . S
C602 C603 1.499 . S
C603 C602 1.499 . S
C603 C604 1.370 . S
C603 C608 1.415 . S
C604 H593 0.930 . S
C604 C603 1.370 . S
C604 C605 1.407 . S
C605 C604 1.407 . S
C605 C606 1.365 . S
C606 H594 0.930 . S
C606 C605 1.365 . S
C606 C607 1.393 . S
C607 C606 1.393 . S
C607 C608 1.387 . S
C608 H595 0.930 . S
C608 C603 1.415 . S
C608 C607 1.387 . S
H609 C617 0.930 . S
H610 C620 0.930 . S
H611 C622 0.930 . S
H612 C623 0.970 . S
H613 C623 0.970 . S
H614 C625 0.930 . S
H615 C627 0.930 . S
H616 C629 0.930 . S
C617 H609 0.930 . S
C617 C618 1.382 . S
C617 C619 1.426 . S
C618 C617 1.382 . S
C618 C622 1.389 . S
C619 C617 1.426 . S
C619 C620 1.375 . S
C619 C623 1.532 . S
C620 H610 0.930 . S
C620 C619 1.375 . S
C620 C621 1.416 . S
C621 C620 1.416 . S
C621 C622 1.371 . S
C622 H611 0.930 . S
C622 C618 1.389 . S
C622 C621 1.371 . S
C623 H612 0.970 . S
C623 H613 0.970 . S
C623 C619 1.532 . S
C623 C624 1.499 . S
C624 C623 1.499 . S
C624 C625 1.370 . S
C624 C629 1.415 . S
C625 H614 0.930 . S
C625 C624 1.370 . S
C625 C626 1.407 . S
C626 C625 1.407 . S
C626 C627 1.365 . S
C627 H615 0.930 . S
C627 C626 1.365 . S
C627 C628 1.393 . S
C628 C627 1.393 . S
C628 C629 1.387 . S
C629 H616 0.930 . S
C629 C624 1.415 . S
C629 C628 1.387 . S
C630 C631 1.387 . S
C630 H634 0.950 . S
C630 C639 1.390 . S
C631 C630 1.387 . S
C631 C633 1.387 1_655 S
H632 C639 0.950 . S
C633 C631 1.387 1_455 S
C633 C635 1.390 . S
C633 H637 0.950 . S
H634 C630 0.950 . S
C635 C633 1.390 . S
C635 C636 1.387 1_455 S
C635 H638 0.950 . S
C636 C635 1.387 1_655 S
C636 C639 1.387 . S
H637 C633 0.950 . S
H638 C635 0.950 . S
C639 C630 1.390 . S
C639 H632 0.950 . S
C639 C636 1.387 . S
C640 C641 1.387 . S
C640 H644 0.950 . S
C640 C649 1.390 . S
C641 C640 1.387 . S
C641 C643 1.387 . S
H642 C649 0.950 . S
C643 C641 1.387 . S
C643 C645 1.390 . S
C643 H647 0.950 . S
H644 C640 0.950 . S
C645 C643 1.390 . S
C645 C646 1.387 . S
C645 H648 0.950 . S
C646 C645 1.387 . S
C646 C649 1.387 . S
H647 C643 0.950 . S
H648 C645 0.950 . S
C649 C640 1.390 . S
C649 H642 0.950 . S
C649 C646 1.387 . S
C650 C651 1.387 1_565 S
C650 H654 0.950 . S
C650 C659 1.390 . S
C651 C650 1.387 1_545 S
C651 C653 1.387 . S
H652 C659 0.950 . S
C653 C651 1.387 . S
C653 C655 1.390 . S
C653 H657 0.950 . S
H654 C650 0.950 . S
C655 C653 1.390 . S
C655 C656 1.387 . S
C655 H658 0.950 . S
C656 C655 1.387 . S
C656 C659 1.387 1_545 S
H657 C653 0.950 . S
H658 C655 0.950 . S
C659 C650 1.390 . S
C659 H652 0.950 . S
C659 C656 1.387 1_565 S
C660 C661 1.387 1_545 S
C660 H664 0.950 . S
C660 C669 1.390 . S
C661 C660 1.387 1_565 S
C661 C663 1.387 . S
H662 C669 0.950 . S
C663 C661 1.387 . S
C663 C665 1.390 . S
C663 H667 0.950 . S
H664 C660 0.950 . S
C665 C663 1.390 . S
C665 C666 1.387 . S
C665 H668 0.950 . S
C666 C665 1.387 . S
C666 C669 1.387 1_565 S
H667 C663 0.950 . S
H668 C665 0.950 . S
C669 C660 1.390 . S
C669 H662 0.950 . S
C669 C666 1.387 1_545 S
C670 C671 1.387 1_655 S
C670 H674 0.950 . S
C670 C679 1.390 . S
C671 C670 1.387 1_455 S
C671 C673 1.387 . S
H672 C679 0.950 . S
C673 C671 1.387 . S
C673 C675 1.390 . S
C673 H677 0.950 . S
H674 C670 0.950 . S
C675 C673 1.390 . S
C675 C676 1.387 . S
C675 H678 0.950 . S
C676 C675 1.387 . S
C676 C679 1.387 1_455 S
H677 C673 0.950 . S
H678 C675 0.950 . S
C679 C670 1.390 . S
C679 H672 0.950 . S
C679 C676 1.387 1_655 S
C680 C681 1.387 . S
C680 H684 0.950 . S
C680 C689 1.390 . S
C681 C680 1.387 . S
C681 C683 1.387 . S
H682 C689 0.950 . S
C683 C681 1.387 . S
C683 C685 1.390 . S
C683 H687 0.950 . S
H684 C680 0.950 . S
C685 C683 1.390 . S
C685 C686 1.387 . S
C685 H688 0.950 . S
C686 C685 1.387 . S
C686 C689 1.387 . S
H687 C683 0.950 . S
H688 C685 0.950 . S
C689 C680 1.390 . S
C689 H682 0.950 . S
C689 C686 1.387 . S
C690 C691 1.387 . S
C690 H694 0.950 . S
C690 C699 1.390 . S
C691 C690 1.387 . S
C691 C693 1.387 1_455 S
H692 C699 0.950 . S
C693 C691 1.387 1_655 S
C693 C695 1.390 . S
C693 H697 0.950 . S
H694 C690 0.950 . S
C695 C693 1.390 . S
C695 C696 1.358 1_655 S
C695 H698 0.950 . S
C696 C695 1.358 1_455 S
C696 C699 1.399 . S
H697 C693 0.950 . S
H698 C695 0.950 . S
C699 C690 1.390 . S
C699 H692 0.950 . S
C699 C696 1.399 . S
C700 C701 1.387 . S
C700 H704 0.950 . S
C700 C709 1.390 . S
C701 C700 1.387 . S
C701 C703 1.387 . S
H702 C709 0.950 . S
C703 C701 1.387 . S
C703 C705 1.390 . S
C703 H707 0.950 . S
H704 C700 0.950 . S
C705 C703 1.390 . S
C705 C706 1.387 . S
C705 H708 0.950 . S
C706 C705 1.387 . S
C706 C709 1.387 . S
H707 C703 0.950 . S
H708 C705 0.950 . S
C709 C700 1.390 . S
C709 H702 0.950 . S
C709 C706 1.387 . S
C710 C711 1.387 . S
C710 H714 0.950 . S
C710 C719 1.390 . S
C711 C710 1.387 . S
C711 C713 1.387 1_565 S
H712 C719 0.950 . S
C713 C711 1.387 1_545 S
C713 C715 1.390 . S
C713 H717 0.950 . S
H714 C710 0.950 . S
C715 C713 1.390 . S
C715 C716 1.364 1_545 S
C715 H718 0.950 . S
C716 C715 1.364 1_565 S
C716 C719 1.431 . S
H717 C713 0.950 . S
H718 C715 0.950 . S
C719 C710 1.390 . S
C719 H712 0.950 . S
C719 C716 1.431 . S
C720 C721 1.387 . S
C720 H724 0.950 . S
C720 C729 1.390 . S
C721 C720 1.387 . S
C721 C723 1.387 1_545 S
H722 C729 0.950 . S
C723 C721 1.387 1_565 S
C723 C725 1.390 . S
C723 H727 0.950 . S
H724 C720 0.950 . S
C725 C723 1.390 . S
C725 C726 1.387 1_565 S
C725 H728 0.950 . S
C726 C725 1.387 1_545 S
C726 C729 1.387 . S
H727 C723 0.950 . S
H728 C725 0.950 . S
C729 C720 1.390 . S
C729 H722 0.950 . S
C729 C726 1.387 . S
C730 C731 1.387 1_455 S
C730 H734 0.950 . S
C730 C739 1.390 . S
C731 C730 1.387 1_655 S
C731 C733 1.387 . S
H732 C739 0.950 . S
C733 C731 1.387 . S
C733 C735 1.390 . S
C733 H737 0.950 . S
H734 C730 0.950 . S
C735 C733 1.390 . S
C735 C736 1.387 . S
C735 H738 0.950 . S
C736 C735 1.387 . S
C736 C739 1.387 1_655 S
H737 C733 0.950 . S
H738 C735 0.950 . S
C739 C730 1.390 . S
C739 H732 0.950 . S
C739 C736 1.387 1_455 S
C740 C741 1.387 . S
C740 H744 0.950 . S
C740 C749 1.390 . S
C741 C740 1.387 . S
C741 C743 1.387 . S
H742 C749 0.950 . S
C743 C741 1.387 . S
C743 C745 1.390 . S
C743 H747 0.950 . S
H744 C740 0.950 . S
C745 C743 1.390 . S
C745 C746 1.387 . S
C745 H748 0.950 . S
C746 C745 1.387 . S
C746 C749 1.387 . S
H747 C743 0.950 . S
H748 C745 0.950 . S
C749 C740 1.390 . S
C749 H742 0.950 . S
C749 C746 1.387 . S
C750 C751 1.387 . S
C750 H754 0.950 . S
C750 C759 1.390 . S
C751 C750 1.387 . S
C751 C753 1.387 . S
H752 C759 0.950 . S
C753 C751 1.387 . S
C753 C755 1.390 . S
C753 H757 0.950 . S
H754 C750 0.950 . S
C755 C753 1.390 . S
C755 C756 1.387 . S
C755 H758 0.950 . S
C756 C755 1.387 . S
C756 C759 1.387 . S
H757 C753 0.950 . S
H758 C755 0.950 . S
C759 C750 1.390 . S
C759 H752 0.950 . S
C759 C756 1.387 . S
C760 C761 1.387 . S
C760 H764 0.950 . S
C760 C769 1.390 . S
C761 C760 1.387 . S
C761 C763 1.387 . S
H762 C769 0.950 . S
C763 C761 1.387 . S
C763 C765 1.390 . S
C763 H767 0.950 . S
H764 C760 0.950 . S
C765 C763 1.390 . S
C765 C766 1.387 . S
C765 H768 0.950 . S
C766 C765 1.387 . S
C766 C769 1.387 . S
H767 C763 0.950 . S
H768 C765 0.950 . S
C769 C760 1.390 . S
C769 H762 0.950 . S
C769 C766 1.387 . S
C770 C771 1.387 . S
C770 H774 0.950 . S
C770 C779 1.390 . S
C771 C770 1.387 . S
C771 C773 1.387 . S
H772 C779 0.950 . S
C773 C771 1.387 . S
C773 C775 1.390 . S
C773 H777 0.950 . S
H774 C770 0.950 . S
C775 C773 1.390 . S
C775 C776 1.387 . S
C775 H778 0.950 . S
C776 C775 1.387 . S
C776 C779 1.387 . S
H777 C773 0.950 . S
H778 C775 0.950 . S
C779 C770 1.390 . S
C779 H772 0.950 . S
C779 C776 1.387 . S
C780 C781 1.387 . S
C780 H784 0.950 . S
C780 C789 1.390 . S
C781 C780 1.387 . S
C781 C783 1.387 . S
H782 C789 0.950 . S
C783 C781 1.387 . S
C783 C785 1.390 . S
C783 H787 0.950 . S
H784 C780 0.950 . S
C785 C783 1.390 . S
C785 C786 1.387 . S
C785 H788 0.950 . S
C786 C785 1.387 . S
C786 C789 1.387 . S
H787 C783 0.950 . S
H788 C785 0.950 . S
C789 C780 1.390 . S
C789 H782 0.950 . S
C789 C786 1.387 . S
C790 C791 1.387 . S
C790 H794 0.950 . S
C790 C799 1.390 . S
C791 C790 1.387 . S
C791 C793 1.387 . S
H792 C799 0.950 . S
C793 C791 1.387 . S
C793 C795 1.390 . S
C793 H797 0.950 . S
H794 C790 0.950 . S
C795 C793 1.390 . S
C795 C796 1.387 . S
C795 H798 0.950 . S
C796 C795 1.387 . S
C796 C799 1.387 . S
H797 C793 0.950 . S
H798 C795 0.950 . S
C799 C790 1.390 . S
C799 H792 0.950 . S
C799 C796 1.387 . S
C800 C801 1.387 . S
C800 H804 0.950 . S
C800 C809 1.390 . S
C801 C800 1.387 . S
C801 C803 1.387 . S
H802 C809 0.950 . S
C803 C801 1.387 . S
C803 C805 1.390 . S
C803 H807 0.950 . S
H804 C800 0.950 . S
C805 C803 1.390 . S
C805 C806 1.387 . S
C805 H808 0.950 . S
C806 C805 1.387 . S
C806 C809 1.387 . S
H807 C803 0.950 . S
H808 C805 0.950 . S
C809 C800 1.390 . S
C809 H802 0.950 . S
C809 C806 1.387 . S
C810 C811 1.387 . S
C810 H814 0.950 . S
C810 C819 1.390 . S
C811 C810 1.387 . S
C811 C813 1.387 . S
H812 C819 0.950 . S
C813 C811 1.387 . S
C813 C815 1.390 . S
C813 H817 0.950 . S
H814 C810 0.950 . S
C815 C813 1.390 . S
C815 C816 1.387 . S
C815 H818 0.950 . S
C816 C815 1.387 . S
C816 C819 1.387 . S
H817 C813 0.950 . S
H818 C815 0.950 . S
C819 C810 1.390 . S
C819 H812 0.950 . S
C819 C816 1.387 . S
C820 C821 1.387 . S
C820 H824 0.950 . S
C820 C829 1.390 . S
C821 C820 1.387 . S
C821 C823 1.387 . S
H822 C829 0.950 . S
C823 C821 1.387 . S
C823 C825 1.390 . S
C823 H827 0.950 . S
H824 C820 0.950 . S
C825 C823 1.390 . S
C825 C826 1.387 . S
C825 H828 0.950 . S
C826 C825 1.387 . S
C826 C829 1.387 . S
H827 C823 0.950 . S
H828 C825 0.950 . S
C829 C820 1.390 . S
C829 H822 0.950 . S
C829 C826 1.387 . S
C830 C831 1.387 . S
C830 H834 0.950 . S
C830 C839 1.390 . S
C831 C830 1.387 . S
C831 C833 1.387 . S
H832 C839 0.950 . S
C833 C831 1.387 . S
C833 C835 1.390 . S
C833 H837 0.950 . S
H834 C830 0.950 . S
C835 C833 1.390 . S
C835 C836 1.387 . S
C835 H838 0.950 . S
C836 C835 1.387 . S
C836 C839 1.387 . S
H837 C833 0.950 . S
H838 C835 0.950 . S
C839 C830 1.390 . S
C839 H832 0.950 . S
C839 C836 1.387 . S
C840 C841 1.387 . S
C840 H844 0.950 . S
C840 C849 1.390 . S
C841 C840 1.387 . S
C841 C843 1.387 . S
H842 C849 0.950 . S
C843 C841 1.387 . S
C843 C845 1.390 . S
C843 H847 0.950 . S
H844 C840 0.950 . S
C845 C843 1.390 . S
C845 C846 1.387 . S
C845 H848 0.950 . S
C846 C845 1.387 . S
C846 C849 1.387 . S
H847 C843 0.950 . S
H848 C845 0.950 . S
C849 C840 1.390 . S
C849 H842 0.950 . S
C849 C846 1.387 . S
C850 C851 1.387 . S
C850 H854 0.950 . S
C850 C859 1.390 . S
C851 C850 1.387 . S
C851 C853 1.387 . S
H852 C859 0.950 . S
C853 C851 1.387 . S
C853 C855 1.390 . S
C853 H857 0.950 . S
H854 C850 0.950 . S
C855 C853 1.390 . S
C855 C856 1.387 . S
C855 H858 0.950 . S
C856 C855 1.387 . S
C856 C859 1.387 . S
H857 C853 0.950 . S
H858 C855 0.950 . S
C859 C850 1.390 . S
C859 H852 0.950 . S
C859 C856 1.387 . S
C860 C861 1.387 . S
C860 H864 0.950 . S
C860 C869 1.390 . S
C861 C860 1.387 . S
C861 C863 1.387 . S
H862 C869 0.950 . S
C863 C861 1.387 . S
C863 C865 1.390 . S
C863 H867 0.950 . S
H864 C860 0.950 . S
C865 C863 1.390 . S
C865 C866 1.387 . S
C865 H868 0.950 . S
C866 C865 1.387 . S
C866 C869 1.387 . S
H867 C863 0.950 . S
H868 C865 0.950 . S
C869 C860 1.390 . S
C869 H862 0.950 . S
C869 C866 1.387 . S
C870 C871 1.387 . S
C870 H874 0.950 . S
C870 C879 1.390 . S
C871 C870 1.387 . S
C871 C873 1.387 . S
H872 C879 0.950 . S
C873 C871 1.387 . S
C873 C875 1.390 . S
C873 H877 0.950 . S
H874 C870 0.950 . S
C875 C873 1.390 . S
C875 C876 1.387 . S
C875 H878 0.950 . S
C876 C875 1.387 . S
C876 C879 1.387 . S
H877 C873 0.950 . S
H878 C875 0.950 . S
C879 C870 1.390 . S
C879 H872 0.950 . S
C879 C876 1.387 . S
C880 C881 1.387 . S
C880 H884 0.950 . S
C880 C889 1.390 . S
C881 C880 1.387 . S
C881 C883 1.387 . S
H882 C889 0.950 . S
C883 C881 1.387 . S
C883 C885 1.390 . S
C883 H887 0.950 . S
H884 C880 0.950 . S
C885 C883 1.390 . S
C885 C886 1.387 . S
C885 H888 0.950 . S
C886 C885 1.387 . S
C886 C889 1.387 . S
H887 C883 0.950 . S
H888 C885 0.950 . S
C889 C880 1.390 . S
C889 H882 0.950 . S
C889 C886 1.387 . S
C890 C891 1.387 . S
C890 H894 0.950 . S
C890 C899 1.390 . S
C891 C890 1.387 . S
C891 C893 1.387 . S
H892 C899 0.950 . S
C893 C891 1.387 . S
C893 C895 1.390 . S
C893 H897 0.950 . S
H894 C890 0.950 . S
C895 C893 1.390 . S
C895 C896 1.387 . S
C895 H898 0.950 . S
C896 C895 1.387 . S
C896 C899 1.387 . S
H897 C893 0.950 . S
H898 C895 0.950 . S
C899 C890 1.390 . S
C899 H892 0.950 . S
C899 C896 1.387 . S
C900 C901 1.387 . S
C900 H904 0.950 . S
C900 C909 1.390 . S
C901 C900 1.387 . S
C901 C903 1.387 . S
H902 C909 0.950 . S
C903 C901 1.387 . S
C903 C905 1.390 . S
C903 H907 0.950 . S
H904 C900 0.950 . S
C905 C903 1.390 . S
C905 C906 1.387 . S
C905 H908 0.950 . S
C906 C905 1.387 . S
C906 C909 1.387 . S
H907 C903 0.950 . S
H908 C905 0.950 . S
C909 C900 1.390 . S
C909 H902 0.950 . S
C909 C906 1.387 . S
C910 C911 1.387 . S
C910 H914 0.950 . S
C910 C919 1.390 . S
C911 C910 1.387 . S
C911 C913 1.387 . S
H912 C919 0.950 . S
C913 C911 1.387 . S
C913 C915 1.390 . S
C913 H917 0.950 . S
H914 C910 0.950 . S
C915 C913 1.390 . S
C915 C916 1.387 . S
C915 H918 0.950 . S
C916 C915 1.387 . S
C916 C919 1.387 . S
H917 C913 0.950 . S
H918 C915 0.950 . S
C919 C910 1.390 . S
C919 H912 0.950 . S
C919 C916 1.387 . S
C920 C921 1.387 . S
C920 H924 0.950 . S
C920 C929 1.390 . S
C921 C920 1.387 . S
C921 C923 1.387 . S
H922 C929 0.950 . S
C923 C921 1.387 . S
C923 C925 1.390 . S
C923 H927 0.950 . S
H924 C920 0.950 . S
C925 C923 1.390 . S
C925 C926 1.387 . S
C925 H928 0.950 . S
C926 C925 1.387 . S
C926 C929 1.387 . S
H927 C923 0.950 . S
H928 C925 0.950 . S
C929 C920 1.390 . S
C929 H922 0.950 . S
C929 C926 1.387 . S
C930 C931 1.387 . S
C930 H934 0.950 . S
C930 C939 1.390 . S
C931 C930 1.387 . S
C931 C933 1.387 . S
H932 C939 0.950 . S
C933 C931 1.387 . S
C933 C935 1.390 . S
C933 H937 0.950 . S
H934 C930 0.950 . S
C935 C933 1.390 . S
C935 C936 1.387 . S
C935 H938 0.950 . S
C936 C935 1.387 . S
C936 C939 1.387 . S
H937 C933 0.950 . S
H938 C935 0.950 . S
C939 C930 1.390 . S
C939 H932 0.950 . S
C939 C936 1.387 . S
C940 C941 1.387 . S
C940 H944 0.950 . S
C940 C949 1.390 . S
C941 C940 1.387 . S
C941 C943 1.387 . S
H942 C949 0.950 . S
C943 C941 1.387 . S
C943 C945 1.390 . S
C943 H947 0.950 . S
H944 C940 0.950 . S
C945 C943 1.390 . S
C945 C946 1.387 . S
C945 H948 0.950 . S
C946 C945 1.387 . S
C946 C949 1.387 . S
H947 C943 0.950 . S
H948 C945 0.950 . S
C949 C940 1.390 . S
C949 H942 0.950 . S
C949 C946 1.387 . S
C950 C951 1.387 . S
C950 H954 0.950 . S
C950 C959 1.390 . S
C951 C950 1.387 . S
C951 C953 1.387 . S
H952 C959 0.950 . S
C953 C951 1.387 . S
C953 C955 1.390 . S
C953 H957 0.950 . S
H954 C950 0.950 . S
C955 C953 1.390 . S
C955 C956 1.387 . S
C955 H958 0.950 . S
C956 C955 1.387 . S
C956 C959 1.387 . S
H957 C953 0.950 . S
H958 C955 0.950 . S
C959 C950 1.390 . S
C959 H952 0.950 . S
C959 C956 1.387 . S
C960 C961 1.387 . S
C960 H964 0.950 . S
C960 C969 1.390 . S
C961 C960 1.387 . S
C961 C963 1.387 . S
H962 C969 0.950 . S
C963 C961 1.387 . S
C963 C965 1.390 . S
C963 H967 0.950 . S
H964 C960 0.950 . S
C965 C963 1.390 . S
C965 C966 1.387 . S
C965 H968 0.950 . S
C966 C965 1.387 . S
C966 C969 1.387 . S
H967 C963 0.950 . S
H968 C965 0.950 . S
C969 C960 1.390 . S
C969 H962 0.950 . S
C969 C966 1.387 . S
C970 C971 1.387 . S
C970 H974 0.950 . S
C970 C979 1.390 . S
C971 C970 1.387 . S
C971 C973 1.387 . S
H972 C979 0.950 . S
C973 C971 1.387 . S
C973 C975 1.390 . S
C973 H977 0.950 . S
H974 C970 0.950 . S
C975 C973 1.390 . S
C975 C976 1.387 . S
C975 H978 0.950 . S
C976 C975 1.387 . S
C976 C979 1.387 . S
H977 C973 0.950 . S
H978 C975 0.950 . S
C979 C970 1.390 . S
C979 H972 0.950 . S
C979 C976 1.387 . S
C980 C981 1.387 . S
C980 H984 0.950 . S
C980 C989 1.390 . S
C981 C980 1.387 . S
C981 C983 1.387 . S
H982 C989 0.950 . S
C983 C981 1.387 . S
C983 C985 1.390 . S
C983 H987 0.950 . S
H984 C980 0.950 . S
C985 C983 1.390 . S
C985 C986 1.387 . S
C985 H988 0.950 . S
C986 C985 1.387 . S
C986 C989 1.387 . S
H987 C983 0.950 . S
H988 C985 0.950 . S
C989 C980 1.390 . S
C989 H982 0.950 . S
C989 C986 1.387 . S
C990 C991 1.387 . S
C990 H994 0.950 . S
C990 C999 1.390 . S
C991 C990 1.387 . S
C991 C993 1.387 . S
H992 C999 0.950 . S
C993 C991 1.387 . S
C993 C995 1.390 . S
C993 H997 0.950 . S
H994 C990 0.950 . S
C995 C993 1.390 . S
C995 C996 1.387 . S
C995 H998 0.950 . S
C996 C995 1.387 . S
C996 C999 1.387 . S
H997 C993 0.950 . S
H998 C995 0.950 . S
C999 C990 1.390 . S
C999 H992 0.950 . S
C999 C996 1.387 . S
C1000 C1001 1.387 . S
C1000 H1004 0.950 . S
C1000 C1009 1.390 . S
C1001 C1000 1.387 . S
C1001 C1003 1.387 . S
H1002 C1009 0.950 . S
C1003 C1001 1.387 . S
C1003 C1005 1.390 . S
C1003 H1007 0.950 . S
H1004 C1000 0.950 . S
C1005 C1003 1.390 . S
C1005 C1006 1.387 . S
C1005 H1008 0.950 . S
C1006 C1005 1.387 . S
C1006 C1009 1.387 . S
H1007 C1003 0.950 . S
H1008 C1005 0.950 . S
C1009 C1000 1.390 . S
C1009 H1002 0.950 . S
C1009 C1006 1.387 . S
C1010 C1011 1.387 . S
C1010 H1014 0.950 . S
C1010 C1019 1.390 . S
C1011 C1010 1.387 . S
C1011 C1013 1.387 . S
H1012 C1019 0.950 . S
C1013 C1011 1.387 . S
C1013 C1015 1.390 . S
C1013 H1017 0.950 . S
H1014 C1010 0.950 . S
C1015 C1013 1.390 . S
C1015 C1016 1.387 . S
C1015 H1018 0.950 . S
C1016 C1015 1.387 . S
C1016 C1019 1.387 . S
H1017 C1013 0.950 . S
H1018 C1015 0.950 . S
C1019 C1010 1.390 . S
C1019 H1012 0.950 . S
C1019 C1016 1.387 . S
C1020 C1021 1.387 . S
C1020 H1024 0.950 . S
C1020 C1029 1.390 . S
C1021 C1020 1.387 . S
C1021 C1023 1.387 . S
H1022 C1029 0.950 . S
C1023 C1021 1.387 . S
C1023 C1025 1.390 . S
C1023 H1027 0.950 . S
H1024 C1020 0.950 . S
C1025 C1023 1.390 . S
C1025 C1026 1.387 . S
C1025 H1028 0.950 . S
C1026 C1025 1.387 . S
C1026 C1029 1.387 . S
H1027 C1023 0.950 . S
H1028 C1025 0.950 . S
C1029 C1020 1.390 . S
C1029 H1022 0.950 . S
C1029 C1026 1.387 . S
C1030 C1031 1.387 . S
C1030 H1034 0.950 1_556 S
C1030 C1039 1.390 . S
C1031 C1030 1.387 . S
C1031 C1033 1.387 . S
H1032 C1039 0.950 . S
C1033 C1031 1.387 . S
C1033 C1035 1.390 . S
C1033 H1037 0.950 . S
H1034 C1030 0.950 1_554 S
C1035 C1033 1.390 . S
C1035 C1036 1.387 . S
C1035 H1038 0.950 . S
C1036 C1035 1.387 . S
C1036 C1039 1.387 . S
H1037 C1033 0.950 . S
H1038 C1035 0.950 . S
C1039 C1030 1.390 . S
C1039 H1032 0.950 . S
C1039 C1036 1.387 . S
C1040 C1041 1.387 . S
C1040 H1044 0.950 . S
C1040 C1049 1.390 . S
C1041 C1040 1.387 . S
C1041 C1043 1.387 . S
H1042 C1049 0.950 . S
C1043 C1041 1.387 . S
C1043 C1045 1.390 . S
C1043 H1047 0.950 . S
H1044 C1040 0.950 . S
C1045 C1043 1.390 . S
C1045 C1046 1.387 . S
C1045 H1048 0.950 . S
C1046 C1045 1.387 . S
C1046 C1049 1.387 . S
H1047 C1043 0.950 . S
H1048 C1045 0.950 . S
C1049 C1040 1.390 . S
C1049 H1042 0.950 . S
C1049 C1046 1.387 . S
C1050 C1051 1.387 . S
C1050 H1054 0.950 . S
C1050 C1059 1.390 . S
C1051 C1050 1.387 . S
C1051 C1053 1.387 . S
H1052 C1059 0.950 . S
C1053 C1051 1.387 . S
C1053 C1055 1.390 . S
C1053 H1057 0.950 1_556 S
H1054 C1050 0.950 . S
C1055 C1053 1.390 . S
C1055 C1056 1.387 . S
C1055 H1058 0.950 . S
C1056 C1055 1.387 . S
C1056 C1059 1.387 . S
H1057 C1053 0.950 1_554 S
H1058 C1055 0.950 . S
C1059 C1050 1.390 . S
C1059 H1052 0.950 . S
C1059 C1056 1.387 . S
C1060 C1061 1.387 . S
C1060 H1064 0.950 1_556 S
C1060 C1069 1.390 . S
C1061 C1060 1.387 . S
C1061 C1063 1.387 . S
H1062 C1069 0.950 . S
C1063 C1061 1.387 . S
C1063 C1065 1.390 . S
C1063 H1067 0.950 . S
H1064 C1060 0.950 1_554 S
C1065 C1063 1.390 . S
C1065 C1066 1.387 . S
C1065 H1068 0.950 . S
C1066 C1065 1.387 . S
C1066 C1069 1.387 . S
H1067 C1063 0.950 . S
H1068 C1065 0.950 . S
C1069 C1060 1.390 . S
C1069 H1062 0.950 . S
C1069 C1066 1.387 . S
C1070 C1071 1.387 . S
C1070 H1074 0.950 1_556 S
C1070 C1079 1.390 . S
C1071 C1070 1.387 . S
C1071 C1073 1.387 . S
H1072 C1079 0.950 . S
C1073 C1071 1.387 . S
C1073 C1075 1.390 . S
C1073 H1077 0.950 . S
H1074 C1070 0.950 1_554 S
C1075 C1073 1.390 . S
C1075 C1076 1.387 . S
C1075 H1078 0.950 . S
C1076 C1075 1.387 . S
C1076 C1079 1.387 . S
H1077 C1073 0.950 . S
H1078 C1075 0.950 . S
C1079 C1070 1.390 . S
C1079 H1072 0.950 . S
C1079 C1076 1.387 . S
C1080 C1081 1.387 . S
C1080 H1084 0.950 . S
C1080 C1089 1.390 . S
C1081 C1080 1.387 . S
C1081 C1083 1.387 . S
H1082 C1089 0.950 . S
C1083 C1081 1.387 . S
C1083 C1085 1.390 . S
C1083 H1087 0.950 . S
H1084 C1080 0.950 . S
C1085 C1083 1.390 . S
C1085 C1086 1.387 . S
C1085 H1088 0.950 . S
C1086 C1085 1.387 . S
C1086 C1089 1.387 . S
H1087 C1083 0.950 . S
H1088 C1085 0.950 . S
C1089 C1080 1.390 . S
C1089 H1082 0.950 . S
C1089 C1086 1.387 . S
C1090 C1091 1.387 . S
C1090 H1094 0.950 . S
C1090 C1099 1.390 . S
C1091 C1090 1.387 . S
C1091 C1093 1.387 . S
H1092 C1099 0.950 . S
C1093 C1091 1.387 . S
C1093 C1095 1.390 . S
C1093 H1097 0.950 . S
H1094 C1090 0.950 . S
C1095 C1093 1.390 . S
C1095 C1096 1.387 . S
C1095 H1098 0.950 . S
C1096 C1095 1.387 . S
C1096 C1099 1.387 . S
H1097 C1093 0.950 . S
H1098 C1095 0.950 . S
C1099 C1090 1.390 . S
C1099 H1092 0.950 . S
C1099 C1096 1.387 . S
C1100 C1101 1.387 . S
C1100 H1104 0.950 . S
C1100 C1109 1.390 . S
C1101 C1100 1.387 . S
C1101 C1103 1.387 . S
H1102 C1109 0.950 . S
C1103 C1101 1.387 . S
C1103 C1105 1.390 . S
C1103 H1107 0.950 . S
H1104 C1100 0.950 . S
C1105 C1103 1.390 . S
C1105 C1106 1.387 . S
C1105 H1108 0.950 . S
C1106 C1105 1.387 . S
C1106 C1109 1.387 . S
H1107 C1103 0.950 . S
H1108 C1105 0.950 . S
C1109 C1100 1.390 . S
C1109 H1102 0.950 . S
C1109 C1106 1.387 . S
C1110 C1111 1.387 . S
C1110 H1114 0.950 . S
C1110 C1119 1.390 . S
C1111 C1110 1.387 . S
C1111 C1113 1.387 . S
H1112 C1119 0.950 . S
C1113 C1111 1.387 . S
C1113 C1115 1.390 . S
C1113 H1117 0.950 . S
H1114 C1110 0.950 . S
C1115 C1113 1.390 . S
C1115 C1116 1.387 . S
C1115 H1118 0.950 . S
C1116 C1115 1.387 . S
C1116 C1119 1.387 . S
H1117 C1113 0.950 . S
H1118 C1115 0.950 . S
C1119 C1110 1.390 . S
C1119 H1112 0.950 . S
C1119 C1116 1.387 . S
C1120 C1121 1.387 . S
C1120 H1124 0.950 . S
C1120 C1129 1.390 . S
C1121 C1120 1.387 . S
C1121 C1123 1.387 . S
H1122 C1129 0.950 . S
C1123 C1121 1.387 . S
C1123 C1125 1.390 . S
C1123 H1127 0.950 . S
H1124 C1120 0.950 . S
C1125 C1123 1.390 . S
C1125 C1126 1.387 . S
C1125 H1128 0.950 . S
C1126 C1125 1.387 . S
C1126 C1129 1.387 . S
H1127 C1123 0.950 . S
H1128 C1125 0.950 . S
C1129 C1120 1.390 . S
C1129 H1122 0.950 . S
C1129 C1126 1.387 . S
C1130 C1131 1.387 . S
C1130 H1134 0.950 . S
C1130 C1139 1.390 . S
C1131 C1130 1.387 . S
C1131 C1133 1.387 . S
H1132 C1139 0.950 . S
C1133 C1131 1.387 . S
C1133 C1135 1.390 . S
C1133 H1137 0.950 . S
H1134 C1130 0.950 . S
C1135 C1133 1.390 . S
C1135 C1136 1.387 . S
C1135 H1138 0.950 . S
C1136 C1135 1.387 . S
C1136 C1139 1.387 . S
H1137 C1133 0.950 . S
H1138 C1135 0.950 . S
C1139 C1130 1.390 . S
C1139 H1132 0.950 . S
C1139 C1136 1.387 . S
C1140 C1141 1.387 . S
C1140 H1144 0.950 . S
C1140 C1149 1.390 . S
C1141 C1140 1.387 . S
C1141 C1143 1.387 1_455 S
H1142 C1149 0.950 . S
C1143 C1141 1.387 1_655 S
C1143 C1145 1.390 . S
C1143 H1147 0.950 . S
H1144 C1140 0.950 . S
C1145 C1143 1.390 . S
C1145 C1146 1.387 1_655 S
C1145 H1148 0.950 . S
C1146 C1145 1.387 1_455 S
C1146 C1149 1.387 . S
H1147 C1143 0.950 . S
H1148 C1145 0.950 . S
C1149 C1140 1.390 . S
C1149 H1142 0.950 . S
C1149 C1146 1.387 . S
C1150 C1151 1.387 . S
C1150 H1154 0.950 . S
C1150 C1159 1.390 . S
C1151 C1150 1.387 . S
C1151 C1153 1.387 . S
H1152 C1159 0.950 . S
C1153 C1151 1.387 . S
C1153 C1155 1.390 . S
C1153 H1157 0.950 . S
H1154 C1150 0.950 . S
C1155 C1153 1.390 . S
C1155 C1156 1.387 . S
C1155 H1158 0.950 . S
C1156 C1155 1.387 . S
C1156 C1159 1.387 . S
H1157 C1153 0.950 . S
H1158 C1155 0.950 . S
C1159 C1150 1.390 . S
C1159 H1152 0.950 . S
C1159 C1156 1.387 . S
C1160 C1161 1.387 1_545 S
C1160 H1164 0.950 . S
C1160 C1169 1.390 . S
C1161 C1160 1.387 1_565 S
C1161 C1163 1.387 . S
H1162 C1169 0.950 . S
C1163 C1161 1.387 . S
C1163 C1165 1.390 . S
C1163 H1167 0.950 . S
H1164 C1160 0.950 . S
C1165 C1163 1.390 . S
C1165 C1166 1.387 . S
C1165 H1168 0.950 . S
C1166 C1165 1.387 . S
C1166 C1169 1.387 1_565 S
H1167 C1163 0.950 . S
H1168 C1165 0.950 . S
C1169 C1160 1.390 . S
C1169 H1162 0.950 . S
C1169 C1166 1.387 1_545 S
C1170 C1171 1.387 . S
C1170 H1174 0.950 . S
C1170 C1179 1.390 . S
C1171 C1170 1.387 . S
C1171 C1173 1.387 1_565 S
H1172 C1179 0.950 . S
C1173 C1171 1.387 1_545 S
C1173 C1175 1.390 . S
C1173 H1177 0.950 . S
H1174 C1170 0.950 . S
C1175 C1173 1.390 . S
C1175 C1176 1.387 1_545 S
C1175 H1178 0.950 . S
C1176 C1175 1.387 1_565 S
C1176 C1179 1.387 . S
H1177 C1173 0.950 . S
H1178 C1175 0.950 . S
C1179 C1170 1.390 . S
C1179 H1172 0.950 . S
C1179 C1176 1.387 . S
C1180 C1181 1.387 . S
C1180 H1184 0.950 . S
C1180 C1189 1.390 . S
C1181 C1180 1.387 . S
C1181 C1183 1.387 1_455 S
H1182 C1189 0.950 . S
C1183 C1181 1.387 1_655 S
C1183 C1185 1.390 . S
C1183 H1187 0.950 . S
H1184 C1180 0.950 . S
C1185 C1183 1.390 . S
C1185 C1186 1.387 1_655 S
C1185 H1188 0.950 . S
C1186 C1185 1.387 1_455 S
C1186 C1189 1.387 . S
H1187 C1183 0.950 . S
H1188 C1185 0.950 . S
C1189 C1180 1.390 . S
C1189 H1182 0.950 . S
C1189 C1186 1.387 . S
C1190 C1191 1.387 . S
C1190 H1194 0.950 . S
C1190 C1199 1.390 . S
C1191 C1190 1.387 . S
C1191 C1193 1.387 . S
H1192 C1199 0.950 . S
C1193 C1191 1.387 . S
C1193 C1195 1.390 . S
C1193 H1197 0.950 . S
H1194 C1190 0.950 . S
C1195 C1193 1.390 . S
C1195 C1196 1.387 . S
C1195 H1198 0.950 . S
C1196 C1195 1.387 . S
C1196 C1199 1.387 . S
H1197 C1193 0.950 . S
H1198 C1195 0.950 . S
C1199 C1190 1.390 . S
C1199 H1192 0.950 . S
C1199 C1196 1.387 . S
C1200 C1201 1.387 . S
C1200 H1204 0.950 . S
C1200 C1209 1.390 . S
C1201 C1200 1.387 . S
C1201 C1203 1.387 . S
H1202 C1209 0.950 . S
C1203 C1201 1.387 . S
C1203 C1205 1.390 . S
C1203 H1207 0.950 . S
H1204 C1200 0.950 . S
C1205 C1203 1.390 . S
C1205 C1206 1.387 . S
C1205 H1208 0.950 . S
C1206 C1205 1.387 . S
C1206 C1209 1.387 . S
H1207 C1203 0.950 . S
H1208 C1205 0.950 . S
C1209 C1200 1.390 . S
C1209 H1202 0.950 . S
C1209 C1206 1.387 . S
C1210 C1211 1.387 . S
C1210 H1214 0.950 . S
C1210 C1219 1.390 . S
C1211 C1210 1.387 . S
C1211 C1213 1.387 . S
H1212 C1219 0.950 . S
C1213 C1211 1.387 . S
C1213 C1215 1.390 . S
C1213 H1217 0.950 . S
H1214 C1210 0.950 . S
C1215 C1213 1.390 . S
C1215 C1216 1.387 . S
C1215 H1218 0.950 . S
C1216 C1215 1.387 . S
C1216 C1219 1.387 . S
H1217 C1213 0.950 . S
H1218 C1215 0.950 . S
C1219 C1210 1.390 . S
C1219 H1212 0.950 . S
C1219 C1216 1.387 . S
C1220 C1221 1.387 . S
C1220 H1224 0.950 . S
C1220 C1229 1.390 . S
C1221 C1220 1.387 . S
C1221 C1223 1.387 . S
H1222 C1229 0.950 . S
C1223 C1221 1.387 . S
C1223 C1225 1.390 . S
C1223 H1227 0.950 . S
H1224 C1220 0.950 . S
C1225 C1223 1.390 . S
C1225 C1226 1.387 . S
C1225 H1228 0.950 . S
C1226 C1225 1.387 . S
C1226 C1229 1.387 . S
H1227 C1223 0.950 . S
H1228 C1225 0.950 . S
C1229 C1220 1.390 . S
C1229 H1222 0.950 . S
C1229 C1226 1.387 . S
C1230 C1231 1.387 . S
C1230 H1234 0.950 . S
C1230 C1239 1.390 . S
C1231 C1230 1.387 . S
C1231 C1233 1.387 1_545 S
H1232 C1239 0.950 . S
C1233 C1231 1.387 1_565 S
C1233 C1235 1.390 . S
C1233 H1237 0.950 . S
H1234 C1230 0.950 . S
C1235 C1233 1.390 . S
C1235 C1236 1.387 1_565 S
C1235 H1238 0.950 . S
C1236 C1235 1.387 1_545 S
C1236 C1239 1.387 . S
H1237 C1233 0.950 . S
H1238 C1235 0.950 . S
C1239 C1230 1.390 . S
C1239 H1232 0.950 . S
C1239 C1236 1.387 . S
C1240 C1241 1.399 1_455 S
C1240 H1244 0.963 . S
C1240 C1249 1.381 . S
C1241 C1240 1.399 1_655 S
C1241 C1243 1.387 . S
H1242 C1249 0.943 . S
C1243 C1241 1.387 . S
C1243 C1245 1.390 . S
C1243 H1247 0.950 . S
H1244 C1240 0.963 . S
C1245 C1243 1.390 . S
C1245 C1246 1.387 . S
C1245 H1248 0.950 . S
C1246 C1245 1.387 . S
C1246 C1249 1.381 1_655 S
H1247 C1243 0.950 . S
H1248 C1245 0.950 . S
C1249 C1240 1.381 . S
C1249 H1242 0.943 . S
C1249 C1246 1.381 1_455 S
C1250 C1251 1.387 . S
C1250 H1254 0.950 . S
C1250 C1259 1.390 . S
C1251 C1250 1.387 . S
C1251 C1253 1.387 . S
H1252 C1259 0.950 . S
C1253 C1251 1.387 . S
C1253 C1255 1.390 . S
C1253 H1257 0.950 . S
H1254 C1250 0.950 . S
C1255 C1253 1.390 . S
C1255 C1256 1.387 . S
C1255 H1258 0.950 . S
C1256 C1255 1.387 . S
C1256 C1259 1.387 . S
H1257 C1253 0.950 . S
H1258 C1255 0.950 . S
C1259 C1250 1.390 . S
C1259 H1252 0.950 . S
C1259 C1256 1.387 . S
C1260 C1261 1.387 . S
C1260 H1264 0.950 . S
C1260 C1269 1.390 . S
C1261 C1260 1.387 . S
C1261 C1263 1.387 . S
H1262 C1269 0.950 . S
C1263 C1261 1.387 . S
C1263 C1265 1.390 . S
C1263 H1267 0.950 . S
H1264 C1260 0.950 . S
C1265 C1263 1.390 . S
C1265 C1266 1.387 . S
C1265 H1268 0.950 . S
C1266 C1265 1.387 . S
C1266 C1269 1.387 . S
H1267 C1263 0.950 . S
H1268 C1265 0.950 . S
C1269 C1260 1.390 . S
C1269 H1262 0.950 . S
C1269 C1266 1.387 . S
C1270 C1271 1.387 . S
C1270 H1274 0.950 . S
C1270 C1279 1.390 . S
C1271 C1270 1.387 . S
C1271 C1273 1.387 . S
H1272 C1279 0.950 . S
C1273 C1271 1.387 . S
C1273 C1275 1.390 . S
C1273 H1277 0.950 . S
H1274 C1270 0.950 . S
C1275 C1273 1.390 . S
C1275 C1276 1.387 . S
C1275 H1278 0.950 . S
C1276 C1275 1.387 . S
C1276 C1279 1.387 . S
H1277 C1273 0.950 . S
H1278 C1275 0.950 . S
C1279 C1270 1.390 . S
C1279 H1272 0.950 . S
C1279 C1276 1.387 . S
C1280 C1281 1.387 . S
C1280 H1284 0.950 . S
C1280 C1289 1.390 . S
C1281 C1280 1.387 . S
C1281 C1283 1.387 . S
H1282 C1289 0.950 . S
C1283 C1281 1.387 . S
C1283 C1285 1.390 . S
C1283 H1287 0.950 . S
H1284 C1280 0.950 . S
C1285 C1283 1.390 . S
C1285 C1286 1.387 . S
C1285 H1288 0.950 . S
C1286 C1285 1.387 . S
C1286 C1289 1.387 . S
H1287 C1283 0.950 . S
H1288 C1285 0.950 . S
C1289 C1280 1.390 . S
C1289 H1282 0.950 . S
C1289 C1286 1.387 . S
C1290 C1291 1.387 . S
C1290 H1294 0.950 . S
C1290 C1299 1.390 . S
C1291 C1290 1.387 . S
C1291 C1293 1.387 . S
H1292 C1299 0.950 . S
C1293 C1291 1.387 . S
C1293 C1295 1.390 . S
C1293 H1297 0.950 . S
H1294 C1290 0.950 . S
C1295 C1293 1.390 . S
C1295 C1296 1.387 . S
C1295 H1298 0.950 . S
C1296 C1295 1.387 . S
C1296 C1299 1.387 . S
H1297 C1293 0.950 . S
H1298 C1295 0.950 . S
C1299 C1290 1.390 . S
C1299 H1292 0.950 . S
C1299 C1296 1.387 . S
C1300 C1301 1.387 . S
C1300 H1304 0.950 . S
C1300 C1309 1.390 . S
C1301 C1300 1.387 . S
C1301 C1303 1.387 . S
H1302 C1309 0.950 . S
C1303 C1301 1.387 . S
C1303 C1305 1.390 . S
C1303 H1307 0.950 . S
H1304 C1300 0.950 . S
C1305 C1303 1.390 . S
C1305 C1306 1.387 . S
C1305 H1308 0.950 . S
C1306 C1305 1.387 . S
C1306 C1309 1.387 . S
H1307 C1303 0.950 . S
H1308 C1305 0.950 . S
C1309 C1300 1.390 . S
C1309 H1302 0.950 . S
C1309 C1306 1.387 . S
C1310 C1311 1.387 . S
C1310 H1314 0.950 . S
C1310 C1319 1.390 . S
C1311 C1310 1.387 . S
C1311 C1313 1.387 . S
H1312 C1319 0.950 . S
C1313 C1311 1.387 . S
C1313 C1315 1.390 . S
C1313 H1317 0.950 . S
H1314 C1310 0.950 . S
C1315 C1313 1.390 . S
C1315 C1316 1.387 . S
C1315 H1318 0.950 . S
C1316 C1315 1.387 . S
C1316 C1319 1.387 . S
H1317 C1313 0.950 . S
H1318 C1315 0.950 . S
C1319 C1310 1.390 . S
C1319 H1312 0.950 . S
C1319 C1316 1.387 . S
C1320 C1321 1.387 . S
C1320 H1324 0.950 . S
C1320 C1329 1.390 . S
C1321 C1320 1.387 . S
C1321 C1323 1.387 1_655 S
H1322 C1329 0.950 . S
C1323 C1321 1.387 1_455 S
C1323 C1325 1.390 . S
C1323 H1327 0.950 . S
H1324 C1320 0.950 . S
C1325 C1323 1.390 . S
C1325 C1326 1.387 1_455 S
C1325 H1328 0.950 . S
C1326 C1325 1.387 1_655 S
C1326 C1329 1.387 . S
H1327 C1323 0.950 . S
H1328 C1325 0.950 . S
C1329 C1320 1.390 . S
C1329 H1322 0.950 . S
C1329 C1326 1.387 . S
C1330 C1331 1.387 . S
C1330 H1334 0.950 . S
C1330 C1339 1.390 . S
C1331 C1330 1.387 . S
C1331 C1333 1.387 . S
H1332 C1339 0.950 . S
C1333 C1331 1.387 . S
C1333 C1335 1.390 . S
C1333 H1337 0.950 . S
H1334 C1330 0.950 . S
C1335 C1333 1.390 . S
C1335 C1336 1.387 . S
C1335 H1338 0.950 . S
C1336 C1335 1.387 . S
C1336 C1339 1.387 . S
H1337 C1333 0.950 . S
H1338 C1335 0.950 . S
C1339 C1330 1.390 . S
C1339 H1332 0.950 . S
C1339 C1336 1.387 . S
C1340 C1341 1.387 . S
C1340 H1344 0.950 . S
C1340 C1349 1.390 . S
C1341 C1340 1.387 . S
C1341 C1343 1.387 1_545 S
H1342 C1349 0.950 . S
C1343 C1341 1.387 1_565 S
C1343 C1345 1.390 . S
C1343 H1347 0.950 . S
H1344 C1340 0.950 . S
C1345 C1343 1.390 . S
C1345 C1346 1.387 1_565 S
C1345 H1348 0.950 . S
C1346 C1345 1.387 1_545 S
C1346 C1349 1.387 . S
H1347 C1343 0.950 . S
H1348 C1345 0.950 . S
C1349 C1340 1.390 . S
C1349 H1342 0.950 . S
C1349 C1346 1.387 . S
C631 C9 1.549 1_655 S
C636 C458 1.498 1_655 S
C641 C19 1.563 . S
C646 C471 1.534 . S
C656 C500 1.489 1_545 S
C651 C33 1.569 . S
C661 C37 1.551 1_565 S
C666 C513 1.513 . S
C671 C5 1.541 . S
C676 C534 1.504 . S
C681 C23 1.595 . S
C686 C563 1.496 . S
C691 C47 1.553 . S
C696 C542 1.516 . S
C706 C555 1.511 . S
C701 C65 1.584 . S
C716 C521 1.473 . S
C711 C75 1.519 . S
C721 C79 1.527 . S
C726 C492 1.467 1_545 S
C736 C450 1.519 1_655 S
C731 C51 1.573 1_655 S
C741 C61 1.560 . S
C746 C479 1.517 . S
C751 C93 1.645 . S
C756 C584 1.534 . S
C761 C103 1.594 . S
C766 C597 1.569 . S
C776 C626 1.515 . S
C771 C117 1.618 . S
C781 C121 1.600 . S
C786 C261 1.568 . S
C791 C89 1.602 . S
C796 C282 1.575 . S
C801 C107 1.615 . S
C806 C311 1.510 . S
C811 C131 1.578 . S
C816 C290 1.536 . S
C821 C149 1.599 . S
C826 C303 1.521 . S
C836 C269 1.529 . S
C831 C159 1.570 . S
C846 C618 1.503 . S
C841 C163 1.577 . S
C856 C576 1.530 . S
C851 C135 1.621 . S
C866 C605 1.550 . S
C861 C145 1.586 . S
C871 C177 1.617 . S
C876 C332 1.509 . S
C881 C187 1.579 . S
C886 C345 1.552 . S
C891 C201 1.619 . S
C896 C374 1.518 . S
C901 C205 1.629 . S
C906 C387 1.597 . S
C916 C408 1.578 . S
C911 C173 1.604 . S
C926 C437 1.521 . S
C921 C191 1.630 . S
C936 C416 1.566 . S
C931 C215 1.608 . S
C946 C429 1.538 . S
C941 C233 1.616 . S
C951 C243 1.567 . S
C956 C395 1.526 . S
C966 C366 1.472 . S
C961 C247 1.545 . S
C971 C219 1.619 . S
C976 C324 1.532 . S
C986 C353 1.541 . S
C981 C229 1.579 . S
C996 C264 1.403 . S
C991 C11 1.508 . S
C1001 C14 1.480 . S
C1006 C285 1.369 . S
C1016 C313 1.424 . S
C1011 C28 1.542 . S
C1026 C334 1.416 . S
C1021 C39 1.531 . S
C1036 C348 1.406 . S
C1031 C0 1.511 . S
C1046 C376 1.339 . S
C1041 C25 1.455 . S
C1051 C42 1.580 . S
C1056 C369 1.402 . S
C1061 C67 1.511 . S
C1066 C327 1.338 . S
C1071 C70 1.495 . S
C1076 C355 1.409 . S
C1081 C81 1.502 . S
C1086 C292 1.422 . S
C1096 C306 1.373 . S
C1091 C53 1.546 . S
C1101 C56 1.531 . S
C1106 C271 1.446 . S
C1116 C390 1.383 . S
C1111 C95 1.501 . S
C1121 C98 1.523 . S
C1126 C411 1.411 . S
C1131 C112 1.570 . S
C1136 C439 1.449 . S
C1146 C460 1.387 . S
C1141 C123 1.469 . S
C1151 C84 1.507 . S
C1156 C474 1.392 . S
C1161 C109 1.442 . S
C1166 C502 1.368 . S
C1171 C126 1.514 . S
C1176 C495 1.380 . S
C1181 C151 1.469 . S
C1186 C453 1.348 . S
C1196 C481 1.411 . S
C1191 C154 1.501 . S
C1201 C165 1.491 . S
C1206 C418 1.401 . S
C1211 C137 1.565 . S
C1216 C432 1.386 . S
C1226 C397 1.485 . S
C1221 C140 1.573 . S
C1236 C516 1.345 1_545 S
C1231 C179 1.468 . S
C1241 C182 1.457 . S
C1246 C537 1.341 1_655 S
C1251 C196 1.539 . S
C1256 C565 1.420 . S
C1266 C586 1.401 . S
C1261 C207 1.522 . S
C1276 C600 1.418 . S
C1271 C168 1.534 . S
C1281 C193 1.505 . S
C1286 C628 1.391 . S
C1291 C210 1.577 . S
C1296 C621 1.392 . S
C1301 C235 1.554 . S
C1306 C579 1.382 . S
C1316 C607 1.433 . S
C1311 C238 1.528 . S
C1326 C544 1.346 1_655 S
C1321 C249 1.431 . S
C1336 C558 1.367 . S
C1331 C221 1.536 . S
C1341 C224 1.489 . S
C1346 C523 1.411 1_545 S
