# Generated by pormake.
# Topology zzz, (3,6)-cn, num edge types: 1
# Building blocks:
#     Node 0, Type 0, BuildingBlock: KAKCAD_clean_linker_0, # of connection points: 3
#     Node 1, Type 0, BuildingBlock: KAKCAD_clean_linker_0, # of connection points: 3
#     Node 2, Type 0, BuildingBlock: KAKCAD_clean_linker_0, # of connection points: 3
#     Node 3, Type 0, BuildingBlock: KAKCAD_clean_linker_0, # of connection points: 3
#     Node 4, Type 0, BuildingBlock: KAKCAD_clean_linker_0, # of connection points: 3
#     Node 5, Type 0, BuildingBlock: KAKCAD_clean_linker_0, # of connection points: 3
#     Node 6, Type 0, BuildingBlock: KAKCAD_clean_linker_0, # of connection points: 3
#     Node 7, Type 0, BuildingBlock: KAKCAD_clean_linker_0, # of connection points: 3
#     Node 8, Type 1, BuildingBlock: BETDAH_clean_sbu_0, # of connection points: 6
#     Node 9, Type 1, BuildingBlock: BETDAH_clean_sbu_0, # of connection points: 6
#     Node 10, Type 1, BuildingBlock: BETDAH_clean_sbu_0, # of connection points: 6
#     Node 11, Type 1, BuildingBlock: BETDAH_clean_sbu_0, # of connection points: 6
#     Edge 12, Type (0, 1), BuildingBlock: UVAHIK_clean_linker_0, # of connection points: 2
#     Edge 13, Type (0, 1), BuildingBlock: UVAHIK_clean_linker_0, # of connection points: 2
#     Edge 14, Type (0, 1), BuildingBlock: UVAHIK_clean_linker_0, # of connection points: 2
#     Edge 15, Type (0, 1), BuildingBlock: UVAHIK_clean_linker_0, # of connection points: 2
#     Edge 16, Type (0, 1), BuildingBlock: UVAHIK_clean_linker_0, # of connection points: 2
#     Edge 17, Type (0, 1), BuildingBlock: UVAHIK_clean_linker_0, # of connection points: 2
#     Edge 18, Type (0, 1), BuildingBlock: UVAHIK_clean_linker_0, # of connection points: 2
#     Edge 19, Type (0, 1), BuildingBlock: UVAHIK_clean_linker_0, # of connection points: 2
#     Edge 20, Type (0, 1), BuildingBlock: UVAHIK_clean_linker_0, # of connection points: 2
#     Edge 21, Type (0, 1), BuildingBlock: UVAHIK_clean_linker_0, # of connection points: 2
#     Edge 22, Type (0, 1), BuildingBlock: UVAHIK_clean_linker_0, # of connection points: 2
#     Edge 23, Type (0, 1), BuildingBlock: UVAHIK_clean_linker_0, # of connection points: 2
#     Edge 24, Type (0, 1), BuildingBlock: UVAHIK_clean_linker_0, # of connection points: 2
#     Edge 25, Type (0, 1), BuildingBlock: UVAHIK_clean_linker_0, # of connection points: 2
#     Edge 26, Type (0, 1), BuildingBlock: UVAHIK_clean_linker_0, # of connection points: 2
#     Edge 27, Type (0, 1), BuildingBlock: UVAHIK_clean_linker_0, # of connection points: 2
#     Edge 28, Type (0, 1), BuildingBlock: UVAHIK_clean_linker_0, # of connection points: 2
#     Edge 29, Type (0, 1), BuildingBlock: UVAHIK_clean_linker_0, # of connection points: 2
#     Edge 30, Type (0, 1), BuildingBlock: UVAHIK_clean_linker_0, # of connection points: 2
#     Edge 31, Type (0, 1), BuildingBlock: UVAHIK_clean_linker_0, # of connection points: 2
#     Edge 32, Type (0, 1), BuildingBlock: UVAHIK_clean_linker_0, # of connection points: 2
#     Edge 33, Type (0, 1), BuildingBlock: UVAHIK_clean_linker_0, # of connection points: 2
#     Edge 34, Type (0, 1), BuildingBlock: UVAHIK_clean_linker_0, # of connection points: 2
#     Edge 35, Type (0, 1), BuildingBlock: UVAHIK_clean_linker_0, # of connection points: 2
# Relax obj value: 0.409
# Max RMSD: 0.275
# Mean RMSD: 0.253
data_MOF--net-zzz--node1-BETDAH_clean_sbu_0--node2-KAKCAD_clean_linker_0--edge1-UVAHIK_clean_linker_0
_symmetry_space_group_name_H-M    P1
_symmetry_Int_Tables_number       1
_symmetry_cell_setting            triclinic
loop_
_symmetry_equiv_pos_as_xyz
'x, y, z'
_cell_length_a     74.935382
_cell_length_b     75.016733
_cell_length_c     22.502934
_cell_angle_alpha  89.860915
_cell_angle_beta   89.949753
_cell_angle_gamma 90.211144
loop_
_atom_site_label
_atom_site_type_symbol
_atom_site_fract_x
_atom_site_fract_y
_atom_site_fract_z
_atom_type_partial_charge
C0 C 0.75521 0.47811 0.02561 0.0
C1 C 0.7669 0.46373 0.0342 0.0
C2 C 0.74642 0.48577 0.07387 0.0
C3 C 0.74912 0.47918 0.13168 0.0
C4 C 0.75978 0.46398 0.13963 0.0
C5 C 0.76857 0.45632 0.09136 0.0
C6 C 0.74226 0.48914 0.1837 0.0
C7 C 0.72518 0.4966 0.18283 0.0
C8 C 0.71928 0.50748 0.22939 0.0
C9 C 0.73066 0.51103 0.27784 0.0
C10 C 0.74778 0.50326 0.27973 0.0
C11 C 0.75336 0.49237 0.23262 0.0
C12 C 0.7607 0.50676 0.32832 0.0
C13 C 0.76767 0.52395 0.33721 0.0
C14 C 0.76861 0.49231 0.35797 0.0
C15 C 0.78382 0.49479 0.39292 0.0
C16 C 0.79162 0.51178 0.39871 0.0
C17 C 0.7011 0.51485 0.22448 0.0
C18 C 0.69819 0.52973 0.18786 0.0
C19 C 0.6865 0.50432 0.24192 0.0
C20 C 0.66945 0.50782 0.21948 0.0
C21 C 0.66672 0.52184 0.17884 0.0
C22 C 0.68112 0.53326 0.1655 0.0
C23 C 0.78303 0.52643 0.37192 0.0
H24 H 0.75353 0.48397 0.98195 0.0
H25 H 0.73834 0.4975 0.06627 0.0
H26 H 0.76187 0.45844 0.18357 0.0
H27 H 0.77757 0.44533 0.09954 0.0
H28 H 0.71641 0.49403 0.14548 0.0
H29 H 0.76679 0.48704 0.23294 0.0
H30 H 0.72624 0.51959 0.3136 0.0
H31 H 0.76195 0.53527 0.31422 0.0
H32 H 0.76358 0.4789 0.35133 0.0
H33 H 0.79009 0.48317 0.4123 0.0
H34 H 0.70936 0.53774 0.17267 0.0
H35 H 0.68853 0.49257 0.26913 0.0
H36 H 0.78856 0.53973 0.37605 0.0
H37 H 0.67956 0.54408 0.13399 0.0
H38 H 0.65859 0.49891 0.23129 0.0
C39 C 0.0687 0.76301 0.06697 0.0
C40 C 0.08227 0.77212 0.09782 0.0
C41 C 0.0572 0.75139 0.09702 0.0
C42 C 0.059 0.74871 0.1585 0.0
C43 C 0.07351 0.75653 0.18823 0.0
C44 C 0.08508 0.76808 0.15813 0.0
C45 C 0.04442 0.74002 0.19256 0.0
C46 C 0.03632 0.72432 0.17236 0.0
C47 C 0.02121 0.71724 0.2012 0.0
C48 C 0.014 0.72624 0.25074 0.0
C49 C 0.02207 0.74209 0.27131 0.0
C50 C 0.03734 0.74864 0.24234 0.0
C51 C 0.01417 0.75327 0.31889 0.0
C52 C 0.99714 0.76069 0.31161 0.0
C53 C 0.02513 0.75966 0.36488 0.0
C54 C 0.01979 0.77411 0.39969 0.0
C55 C 0.00337 0.78259 0.38925 0.0
C56 C 0.01318 0.7006 0.17748 0.0
C57 C 0.00876 0.69956 0.11695 0.0
C58 C 0.01227 0.68509 0.21239 0.0
C59 C 0.00809 0.66862 0.18626 0.0
C60 C 0.00453 0.66744 0.12491 0.0
C61 C 0.0044 0.68321 0.09103 0.0
C62 C 0.99179 0.77523 0.34638 0.0
H63 H 0.06604 0.76591 0.02066 0.0
H64 H 0.04607 0.74562 0.07302 0.0
H65 H 0.07536 0.75444 0.23548 0.0
H66 H 0.09562 0.77461 0.18287 0.0
H67 H 0.0418 0.71759 0.13389 0.0
H68 H 0.0431 0.76122 0.25647 0.0
H69 H 1.00209 0.72115 0.27231 0.0
H70 H 0.9885 0.75614 0.27611 0.0
H71 H 0.03838 0.75425 0.37117 0.0
H72 H 0.02914 0.7794 0.43186 0.0
H73 H 0.00941 0.71134 0.08905 0.0
H74 H 0.01577 0.68553 0.25907 0.0
H75 H 0.97893 0.78123 0.33782 0.0
H76 H 1.00192 0.68282 0.04365 0.0
H77 H 0.00815 0.65673 0.21369 0.0
C78 C 0.75186 0.04788 0.03961 0.0
C79 C 0.739 0.06076 0.05402 0.0
C80 C 0.76068 0.03848 0.08426 0.0
C81 C 0.75718 0.04202 0.14453 0.0
C82 C 0.74581 0.05627 0.15873 0.0
C83 C 0.7367 0.06545 0.11402 0.0
C84 C 0.76356 0.02952 0.19147 0.0
C85 C 0.77984 0.02059 0.18527 0.0
C86 C 0.78449 0.00658 0.22356 0.0
C87 C 0.77298 1.00179 0.27055 0.0
C88 C 0.75688 0.01117 0.27892 0.0
C89 C 0.75234 0.02486 0.23904 0.0
C90 C 0.74368 0.00628 0.32562 0.0
C91 C 0.73615 0.98912 0.32778 0.0
C92 C 0.73631 0.01973 0.3613 0.0
C93 C 0.72106 0.01645 0.39544 0.0
C94 C 0.71271 0.99962 0.39473 0.0
C95 C 0.8008 0.99644 0.20911 0.0
C96 C 0.80101 0.98613 0.15721 0.0
C97 C 0.81695 1.00012 0.23813 0.0
C98 C 0.83318 0.99446 0.21348 0.0
C99 C 0.83352 0.98515 0.15909 0.0
C100 C 0.81714 0.98054 0.13251 0.0
C101 C 0.72077 0.98583 0.36188 0.0
H102 H 0.75431 0.04425 0.99377 0.0
H103 H 0.76929 0.02762 0.07115 0.0
H104 H 0.74319 0.05975 0.20458 0.0
H105 H 0.72694 0.07531 0.12696 0.0
H106 H 0.7888 0.02412 0.14921 0.0
H107 H 0.7394 0.03114 0.24327 0.0
H108 H 0.77637 0.99078 0.29962 0.0
H109 H 0.74146 0.97856 0.30027 0.0
H110 H 0.74181 0.0331 0.36024 0.0
H111 H 0.71523 0.02746 0.41956 0.0
H112 H 0.78871 0.98346 0.13347 0.0
H113 H 0.8171 0.00832 0.2777 0.0
H114 H 0.71486 0.97264 0.36094 0.0
H115 H 0.81673 0.97366 0.0903 0.0
H116 H 0.84548 0.99804 0.23573 0.0
C117 C 0.4859 0.73419 0.41957 0.0
C118 C 0.50239 0.72551 0.41286 0.0
C119 C 0.48172 0.74909 0.3849 0.0
C120 C 0.49394 0.7558 0.34299 0.0
C121 C 0.51092 0.74802 0.33924 0.0
C122 C 0.51509 0.73297 0.37369 0.0
C123 C 0.48759 0.76801 0.29553 0.0
C124 C 0.49611 0.78434 0.28192 0.0
C125 C 0.49013 0.79464 0.23334 0.0
C126 C 0.47609 0.78833 0.19783 0.0
C127 C 0.46765 0.77214 0.2109 0.0
C128 C 0.47327 0.76224 0.26023 0.0
C129 C 0.45429 0.76442 0.16997 0.0
C130 C 0.43841 0.75697 0.19212 0.0
C131 C 0.45846 0.76239 0.10958 0.0
C132 C 0.44774 0.75179 0.07315 0.0
C133 C 0.43253 0.74315 0.09631 0.0
C134 C 0.49829 0.81195 0.2171 0.0
C135 C 0.49153 0.82774 0.24147 0.0
C136 C 0.50979 0.81297 0.16797 0.0
C137 C 0.51375 0.82945 0.14169 0.0
C138 C 0.50608 0.84524 0.16358 0.0
C139 C 0.4954 0.84425 0.21502 0.0
C140 C 0.42753 0.74658 0.15549 0.0
H141 H 0.47573 0.7288 0.44879 0.0
H142 H 0.46847 0.75474 0.38822 0.0
H143 H 0.5205 0.75279 0.30675 0.0
H144 H 0.528 0.72677 0.36798 0.0
H145 H 0.50725 0.78892 0.30855 0.0
H146 H 0.46713 0.74939 0.26917 0.0
H147 H 0.4718 0.79604 0.15959 0.0
H148 H 0.43483 0.75855 0.23846 0.0
H149 H 0.47071 0.76791 0.09156 0.0
H150 H 0.45218 0.74935 0.02812 0.0
H151 H 0.48235 0.82721 0.27866 0.0
H152 H 0.5148 0.8009 0.14765 0.0
H153 H 0.41569 0.74049 0.17442 0.0
H154 H 0.48943 0.85615 0.23338 0.0
H155 H 0.52185 0.82965 0.10181 0.0
C156 C 0.24687 0.56945 0.21617 0.0
C157 C 0.22867 0.56573 0.2244 0.0
C158 C 0.25772 0.55734 0.18561 0.0
C159 C 0.2505 0.54129 0.16363 0.0
C160 C 0.23246 0.53735 0.17474 0.0
C161 C 0.22166 0.54948 0.20432 0.0
C162 C 0.26133 0.52885 0.12729 0.0
C163 C 0.27906 0.52497 0.14189 0.0
C164 C 0.28901 0.51264 0.10839 0.0
C165 C 0.28085 0.50394 0.05975 0.0
C166 C 0.26309 0.50802 0.04443 0.0
C167 C 0.25363 0.5205 0.07795 0.0
C168 C 0.25351 0.49981 0.99392 0.0
C169 C 0.25264 0.50908 0.93978 0.0
C170 C 0.24097 0.48629 0.00543 0.0
C171 C 0.22697 0.48305 0.96564 0.0
C172 C 0.22513 0.49341 0.91376 0.0
C173 C 0.30777 0.50908 0.12633 0.0
C174 C 0.31919 0.52346 0.13919 0.0
C175 C 0.31374 0.49167 0.13776 0.0
C176 C 0.33038 0.48882 0.16487 0.0
C177 C 0.34141 0.50333 0.18061 0.0
C178 C 0.33574 0.52065 0.16593 0.0
C179 C 0.23863 0.50588 0.89997 0.0
H180 H 0.25253 0.5819 0.23172 0.0
H181 H 0.27157 0.56077 0.17767 0.0
H182 H 0.22659 0.5249 0.16011 0.0
H183 H 0.20773 0.54616 0.21143 0.0
H184 H 0.28502 0.53118 0.18058 0.0
H185 H 0.24007 0.52375 0.06509 0.0
H186 H 0.28826 0.49434 0.03376 0.0
H187 H 0.26191 0.51986 0.9306 0.0
H188 H 0.24108 0.47933 0.04767 0.0
H189 H 0.21679 0.47345 0.97806 0.0
H190 H 0.31498 0.53703 0.13061 0.0
H191 H 0.30519 0.48034 0.12856 0.0
H192 H 0.23781 0.5139 0.86 0.0
H193 H 0.34367 0.53219 0.17783 0.0
H194 H 0.3344 0.47529 0.17482 0.0
C195 C 0.00461 0.25228 0.30486 0.0
C196 C 0.01618 0.23825 0.3194 0.0
C197 C 0.00532 0.26017 0.24864 0.0
C198 C 0.01752 0.25408 0.20583 0.0
C199 C 0.02945 0.24043 0.22099 0.0
C200 C 0.02883 0.23263 0.27731 0.0
C201 C 0.01747 0.26168 0.14508 0.0
C202 C 0.01654 0.28011 0.13693 0.0
C203 C 0.01612 0.28758 0.07984 0.0
C204 C 0.01639 0.27634 0.02962 0.0
C205 C 0.01735 0.25766 0.03745 0.0
C206 C 0.01802 0.25055 0.09522 0.0
C207 C 0.01715 0.24493 0.98709 0.0
C208 C 1.00133 0.2418 0.95534 0.0
C209 C 0.03159 0.23329 0.97919 0.0
C210 C 0.02999 0.2183 0.94261 0.0
C211 C 0.01379 0.21443 0.91378 0.0
C212 C 0.01607 0.30726 0.07632 0.0
C213 C 1.00074 0.31646 0.09468 0.0
C214 C 0.03244 0.31637 0.07458 0.0
C215 C 0.03378 0.3338 0.09641 0.0
C216 C 0.01876 0.34241 0.12048 0.0
C217 C 1.00204 0.3339 0.11625 0.0
C218 C 0.99964 0.22665 0.9192 0.0
H219 H 0.99474 0.25686 0.33649 0.0
H220 H 0.99591 0.27063 0.23801 0.0
H221 H 0.03911 0.23564 0.18902 0.0
H222 H 0.03774 0.22167 0.28697 0.0
H223 H 0.01649 0.2888 0.17542 0.0
H224 H 0.01842 0.23621 0.10131 0.0
H225 H 0.01598 0.28201 0.98533 0.0
H226 H 0.98991 0.2504 0.96153 0.0
H227 H 0.04382 0.23526 0.00402 0.0
H228 H 0.0411 0.20914 0.94002 0.0
H229 H 0.98805 0.30954 0.0978 0.0
H230 H 0.04451 0.30943 0.06185 0.0
H231 H 0.98703 0.22416 0.89719 0.0
H232 H 0.99022 0.34004 0.1347 0.0
H233 H 0.04681 0.34008 0.09821 0.0
C234 C 0.24394 0.96937 0.28004 0.0
C235 C 0.25665 0.97942 0.31131 0.0
C236 C 0.23578 0.97646 0.22949 0.0
C237 C 0.24055 0.9935 0.20886 0.0
C238 C 0.25301 0.00367 0.2407 0.0
C239 C 0.26089 0.99674 0.29187 0.0
C240 C 0.23279 1.00055 0.15349 0.0
C241 C 0.21432 1.00169 0.14727 0.0
C242 C 0.20668 0.00854 0.09518 0.0
C243 C 0.21784 0.01393 0.04772 0.0
C244 C 0.23657 0.01248 0.05349 0.0
C245 C 0.24384 0.00607 0.1068 0.0
C246 C 0.2492 0.01689 0.00488 0.0
C247 C 0.25293 0.00417 0.96098 0.0
C248 C 0.26064 0.03163 0.0109 0.0
C249 C 0.27606 0.03312 0.97604 0.0
C250 C 0.2806 0.01972 0.93497 0.0
C251 C 0.187 0.01034 0.09446 0.0
C252 C 0.17647 0.99502 0.10289 0.0
C253 C 0.17922 0.02714 0.10273 0.0
C254 C 0.1617 0.02852 0.12437 0.0
C255 C 0.15169 0.01311 0.13836 0.0
C256 C 0.15903 0.99637 0.12449 0.0
C257 C 0.26846 0.00557 0.92629 0.0
H258 H 0.24059 0.95595 0.29414 0.0
H259 H 0.22618 0.96842 0.20539 0.0
H260 H 0.25676 0.01689 0.22563 0.0
H261 H 0.27086 0.00462 0.31485 0.0
H262 H 0.20582 0.99765 0.18402 0.0
H263 H 0.25821 0.00492 0.11139 0.0
H264 H 0.21208 0.01909 0.00706 0.0
H265 H 0.24455 0.99245 0.95657 0.0
H266 H 0.25819 0.04145 0.04515 0.0
H267 H 0.28483 0.04442 0.98315 0.0
H268 H 0.18228 0.98191 0.0978 0.0
H269 H 0.18716 0.03914 0.09746 0.0
H270 H 0.2715 0.99492 0.89556 0.0
H271 H 0.15193 0.98417 0.13498 0.0
H272 H 0.15639 0.04165 0.13334 0.0
C273 C 0.48807 0.28078 0.94778 0.0
C274 C 0.5027 0.2925 0.94244 0.0
C275 C 0.48969 0.26474 0.97998 0.0
C276 C 0.50601 0.26017 0.00684 0.0
C277 C 0.52091 0.27126 0.99691 0.0
C278 C 0.51925 0.28725 0.9656 0.0
C279 C 0.50717 0.2459 0.05301 0.0
C280 C 0.50064 0.22836 0.04456 0.0
C281 C 0.50266 0.21555 0.09019 0.0
C282 C 0.51069 0.22043 0.14399 0.0
C283 C 0.51642 0.23788 0.15398 0.0
C284 C 0.51475 0.25045 0.10816 0.0
C285 C 0.52272 0.24344 0.21372 0.0
C286 C 0.51392 0.23732 0.26518 0.0
C287 C 0.53638 0.25617 0.21956 0.0
C288 C 0.53999 0.26385 0.27467 0.0
C289 C 0.53011 0.25884 0.3253 0.0
C290 C 0.49587 0.19704 0.08652 0.0
C291 C 0.47812 0.19354 0.10292 0.0
C292 C 0.50822 0.18301 0.08759 0.0
C293 C 0.50342 0.16632 0.11054 0.0
C294 C 0.48615 0.16332 0.1332 0.0
C295 C 0.47329 0.17682 0.12591 0.0
C296 C 0.51767 0.24486 0.32044 0.0
H297 H 0.47515 0.28452 0.93026 0.0
H298 H 0.47795 0.25654 0.98712 0.0
H299 H 0.53372 0.26802 0.01636 0.0
H300 H 0.5308 0.2959 0.96143 0.0
H301 H 0.49435 0.22468 0.00302 0.0
H302 H 0.5187 0.26414 0.1162 0.0
H303 H 0.51207 0.21055 0.17899 0.0
H304 H 0.50331 0.22752 0.26241 0.0
H305 H 0.5437 0.26085 0.18101 0.0
H306 H 0.5496 0.27464 0.27641 0.0
H307 H 0.46844 0.20423 0.10363 0.0
H308 H 0.52208 0.18551 0.07649 0.0
H309 H 0.51005 0.24048 0.35872 0.0
H310 H 0.45977 0.17487 0.14175 0.0
H311 H 0.51374 0.15636 0.11558 0.0
Ho312 Ho 0.01069 0.99079 0.72393 0.0
Ho313 Ho 0.98537 1.00227 0.61637 0.0
C314 C 0.99726 0.96163 0.62478 0.0
C315 C 0.02256 0.97824 0.82261 0.0
C316 C 0.03494 0.96374 0.83732 0.0
C317 C 0.03581 0.94842 0.80179 0.0
C318 C 0.04754 0.93467 0.8161 0.0
C319 C 0.05885 0.93605 0.86581 0.0
C320 C 0.05823 0.95165 0.90043 0.0
C321 C 0.04634 0.96535 0.88634 0.0
C322 C 0.0296 0.99656 0.62165 0.0
C323 C 1.00177 0.03235 0.70681 0.0
C324 C 0.97083 0.01973 0.53127 0.0
C325 C 0.97261 0.03902 0.51858 0.0
C326 C 0.98853 0.04595 0.4946 0.0
C327 C 0.99202 0.06421 0.49657 0.0
C328 C 0.97963 0.07593 0.52216 0.0
C329 C 0.96313 0.0692 0.54175 0.0
C330 C 0.95963 0.05092 0.53977 0.0
C331 C 0.96951 0.98906 0.71503 0.0
O332 O 1.00268 0.9647 0.68021 0.0
O333 O 0.99196 0.97452 0.5884 0.0
O334 O 0.02974 0.99207 0.79588 0.0
O335 O 0.00721 0.97338 0.79939 0.0
O336 O 0.03675 0.99084 0.67055 0.0
O337 O 0.01335 0.9986 0.6323 0.0
O338 O 0.99497 0.02854 0.65394 0.0
O339 O 0.00706 0.01984 0.74451 0.0
O340 O 0.96242 0.01586 0.58075 0.0
O341 O 0.98518 0.00999 0.52367 0.0
O342 O 0.96387 0.9861 0.66134 0.0
O343 O 0.98279 0.99944 0.71362 0.0
H344 H 0.02728 0.94699 0.76324 0.0
H345 H 0.04741 0.92277 0.78894 0.0
H346 H 0.06691 0.95329 0.93847 0.0
H347 H 0.04602 0.9772 0.91377 0.0
H348 H 0.99871 0.03723 0.47697 0.0
H349 H 0.00465 0.0691 0.47953 0.0
H350 H 0.9533 0.07792 0.5615 0.0
H351 H 0.94719 0.046 0.55821 0.0
Ho352 Ho 0.50152 0.01983 0.70771 0.0
Ho353 Ho 0.48943 0.99491 0.60089 0.0
C354 C 0.53117 0.00401 0.61258 0.0
C355 C 0.51733 0.03445 0.79741 0.0
C356 C 0.5358 0.03988 0.80981 0.0
C357 C 0.55008 0.03108 0.78266 0.0
C358 C 0.56751 0.03724 0.79021 0.0
C359 C 0.57109 0.0521 0.82645 0.0
C360 C 0.5567 0.06063 0.85482 0.0
C361 C 0.53919 0.05464 0.84614 0.0
C362 C 0.4898 0.0361 0.60773 0.0
C363 C 0.46057 0.0087 0.70031 0.0
C364 C 0.47343 0.98396 0.50723 0.0
C365 C 0.45673 0.97377 0.50572 0.0
C366 C 0.44617 0.97337 0.45448 0.0
C367 C 0.42883 0.96643 0.45715 0.0
C368 C 0.42184 0.96001 0.5113 0.0
C369 C 0.43283 0.95967 0.56171 0.0
C370 C 0.4501 0.96651 0.55894 0.0
C371 C 0.49445 0.97541 0.70207 0.0
O372 O 0.52773 0.01227 0.66361 0.0
O373 O 0.51845 0.99732 0.57817 0.0
O374 O 0.50938 0.04355 0.75557 0.0
O375 O 0.51436 0.01729 0.79326 0.0
O376 O 0.48687 0.04203 0.66104 0.0
O377 O 0.49937 0.02234 0.61028 0.0
O378 O 0.4636 0.00341 0.64494 0.0
O379 O 0.47362 0.01351 0.73662 0.0
O380 O 0.48715 0.97558 0.53023 0.0
O381 O 0.47159 1.00019 0.52782 0.0
O382 O 0.49021 0.96856 0.65118 0.0
O383 O 0.49582 0.99193 0.69432 0.0
H384 H 0.54775 0.01953 0.75509 0.0
H385 H 0.57811 0.03045 0.76679 0.0
H386 H 0.55891 0.07186 0.88402 0.0
H387 H 0.5283 0.06159 0.86752 0.0
H388 H 0.451 0.97916 0.41333 0.0
H389 H 0.42055 0.96704 0.41777 0.0
H390 H 0.42783 0.95473 0.60385 0.0
H391 H 0.45797 0.96693 0.59923 0.0
Ho392 Ho 0.49079 0.51655 0.74577 0.0
Ho393 Ho 0.51405 0.50443 0.63372 0.0
C394 C 0.5037 0.5455 0.64466 0.0
C395 C 0.48097 0.53045 0.84469 0.0
C396 C 0.46902 0.54542 0.85697 0.0
C397 C 0.46964 0.55406 0.91196 0.0
C398 C 0.45947 0.56938 0.92154 0.0
C399 C 0.44852 0.57628 0.87615 0.0
C400 C 0.44766 0.56725 0.82155 0.0
C401 C 0.45788 0.55202 0.81197 0.0
C402 C 0.47001 0.51108 0.64765 0.0
C403 C 0.49901 0.47487 0.72936 0.0
C404 C 0.52696 0.48812 0.54295 0.0
C405 C 0.526 0.4693 0.52585 0.0
C406 C 0.5116 0.45872 0.54491 0.0
C407 C 0.51218 0.44026 0.53849 0.0
C408 C 0.52706 0.43214 0.51238 0.0
C409 C 0.54107 0.4428 0.49056 0.0
C410 C 0.5406 0.4613 0.49771 0.0
C411 C 0.53187 0.51697 0.72951 0.0
O412 O 0.49883 0.54241 0.70062 0.0
O413 O 0.50818 0.53258 0.60746 0.0
O414 O 0.47335 0.5162 0.82214 0.0
O415 O 0.49586 0.53488 0.81757 0.0
O416 O 0.46381 0.5165 0.69826 0.0
O417 O 0.48645 0.5091 0.65429 0.0
O418 O 0.50467 0.47836 0.67458 0.0
O419 O 0.49483 0.48761 0.76765 0.0
O420 O 0.53609 0.49104 0.59152 0.0
O421 O 0.51194 0.49703 0.54118 0.0
O422 O 0.53701 0.51947 0.67495 0.0
O423 O 0.51815 0.50721 0.73022 0.0
H424 H 0.47834 0.54925 0.94687 0.0
H425 H 0.4607 0.57616 0.96376 0.0
H426 H 0.43924 0.57208 0.78591 0.0
H427 H 0.45738 0.5456 0.76894 0.0
H428 H 0.50018 0.46464 0.56664 0.0
H429 H 0.5011 0.43228 0.55466 0.0
H430 H 0.55267 0.43677 0.47018 0.0
H431 H 0.5519 0.46927 0.48331 0.0
Ho432 Ho 0.00517 0.48864 0.6889 0.0
Ho433 Ho 0.01635 0.51366 0.58137 0.0
C434 C 0.97452 0.50505 0.60037 0.0
C435 C 0.99038 0.47347 0.7796 0.0
C436 C 0.97178 0.46904 0.79426 0.0
C437 C 0.95777 0.47971 0.77339 0.0
C438 C 0.94009 0.4743 0.78116 0.0
C439 C 0.93614 0.45826 0.8107 0.0
C440 C 0.95016 0.44788 0.83335 0.0
C441 C 0.96788 0.45318 0.82476 0.0
C442 C 0.01605 0.47253 0.58785 0.0
C443 C 0.04611 0.49915 0.67567 0.0
C444 C 0.02886 0.5257 0.48283 0.0
C445 C 0.04371 0.53804 0.47062 0.0
C446 C 0.05891 0.53806 0.50705 0.0
C447 C 0.07275 0.55014 0.49673 0.0
C448 C 0.07161 0.56266 0.45026 0.0
C449 C 0.05619 0.56281 0.4145 0.0
C450 C 0.04238 0.55057 0.42459 0.0
C451 C 0.0133 0.5329 0.68362 0.0
O452 O 0.97848 0.49664 0.65058 0.0
O453 O 0.98689 0.51162 0.56425 0.0
O454 O 0.99696 0.46463 0.73473 0.0
O455 O 0.99454 0.49044 0.77803 0.0
O456 O 0.01978 0.4668 0.64089 0.0
O457 O 0.00634 0.48619 0.59107 0.0
O458 O 0.04261 0.50417 0.62019 0.0
O459 O 0.03335 0.4949 0.71399 0.0
O460 O 0.0151 0.53284 0.50969 0.0
O461 O 0.03328 0.51009 0.50479 0.0
O462 O 0.01812 0.53968 0.63308 0.0
O463 O 0.01071 0.51658 0.67536 0.0
H464 H 0.96047 0.49208 0.75022 0.0
H465 H 0.9295 0.48268 0.76421 0.0
H466 H 0.94741 0.43546 0.85632 0.0
H467 H 0.97854 0.44473 0.84083 0.0
H468 H 0.06013 0.52868 0.54349 0.0
H469 H 0.08452 0.54936 0.52448 0.0
H470 H 0.05477 0.57241 0.37881 0.0
H471 H 0.03061 0.55095 0.39668 0.0
C472 C 0.13347 0.02649 0.22116 0.0
C473 C 0.13489 0.01417 0.17423 0.0
C474 C 0.11916 0.02566 0.26115 0.0
C475 C 0.08837 0.99279 0.32502 0.0
H476 H 0.06622 0.03389 0.39844 0.0
C477 C 0.0553 0.98972 0.55559 0.0
C478 C 0.03893 0.9984 0.56403 0.0
C479 C 0.06476 0.99172 0.50246 0.0
C480 C 0.07213 0.02227 0.37793 0.0
H481 H 0.12147 0.99214 0.13053 0.0
H482 H 0.09667 0.99057 0.20079 0.0
H483 H 0.08631 0.03805 0.31351 0.0
H484 H 0.01981 0.0163 0.52424 0.0
H485 H 0.03648 0.02 0.43074 0.0
H486 H 0.07462 0.97706 0.39023 0.0
C487 C 0.10681 1.00073 0.20696 0.0
C488 C 0.08374 0.02466 0.3296 0.0
C489 C 0.12105 1.00163 0.16668 0.0
C490 C 0.03222 0.00922 0.51828 0.0
C491 C 0.04185 0.01145 0.46517 0.0
C492 C 0.07694 0.99043 0.37362 0.0
C493 C 0.10592 0.01244 0.25559 0.0
C494 C 0.0922 0.00996 0.30306 0.0
C495 C 0.05824 0.00267 0.45666 0.0
C496 C 0.06891 0.00515 0.40129 0.0
H497 H 0.14393 0.03617 0.22924 0.0
H498 H 0.119 0.03479 0.29837 0.0
H499 H 0.09477 0.98119 0.30614 0.0
H500 H 0.06084 0.98137 0.59027 0.0
H501 H 0.07745 0.98498 0.49777 0.0
C502 C 0.47284 0.14944 0.22501 0.0
C503 C 0.48248 0.14744 0.17174 0.0
C504 C 0.47147 0.1354 0.26583 0.0
C505 C 0.49517 0.09455 0.31222 0.0
H506 H 0.45344 0.08764 0.41175 0.0
C507 C 0.49317 0.04082 0.49778 0.0
C508 C 0.48625 0.04639 0.55272 0.0
C509 C 0.49111 0.05141 0.44684 0.0
C510 C 0.46525 0.08945 0.38455 0.0
H511 H 0.49748 0.12863 0.11863 0.0
H512 H 0.495 0.10407 0.18975 0.0
H513 H 0.45242 0.10896 0.32981 0.0
H514 H 0.4713 0.06713 0.59705 0.0
H515 H 0.46773 0.08562 0.50852 0.0
H516 H 0.50808 0.07524 0.36754 0.0
C517 C 0.48875 0.11666 0.20037 0.0
C518 C 0.46466 0.10169 0.33749 0.0
C519 C 0.49013 0.13074 0.15944 0.0
C520 C 0.47676 0.06248 0.55532 0.0
C521 C 0.47464 0.07303 0.50442 0.0
C522 C 0.49574 0.08227 0.3592 0.0
C523 C 0.47971 0.11892 0.25471 0.0
C524 C 0.47972 0.10464 0.30124 0.0
C525 C 0.48201 0.06778 0.44964 0.0
C526 C 0.48088 0.07976 0.39661 0.0
H527 H 0.46707 0.16216 0.23684 0.0
H528 H 0.46463 0.13778 0.30745 0.0
H529 H 0.50712 0.09661 0.28596 0.0
H530 H 0.50051 0.02845 0.49438 0.0
H531 H 0.49676 0.04683 0.4053 0.0
C532 C 0.37299 0.5119 0.20721 0.0
C533 C 0.35803 0.50081 0.21634 0.0
C534 C 0.38747 0.5115 0.24641 0.0
C535 C 0.40924 0.48589 0.36743 0.0
H536 H 0.42279 0.53266 0.42547 0.0
C537 C 0.46501 0.49845 0.54529 0.0
C538 C 0.45948 0.50936 0.59244 0.0
C539 C 0.45431 0.49661 0.49439 0.0
C540 C 0.41924 0.51951 0.4095 0.0
H541 H 0.34717 0.47988 0.27261 0.0
H542 H 0.37257 0.479 0.34033 0.0
H543 H 0.40138 0.53011 0.34438 0.0
H544 H 0.43859 0.52691 0.62353 0.0
H545 H 0.42021 0.52405 0.53469 0.0
H546 H 0.42695 0.47535 0.4338 0.0
C547 C 0.37305 0.48803 0.30271 0.0
C548 C 0.40707 0.51804 0.36271 0.0
C549 C 0.35848 0.48851 0.26369 0.0
C550 C 0.44321 0.51847 0.58773 0.0
C551 C 0.43272 0.51689 0.53674 0.0
C552 C 0.42164 0.48737 0.41388 0.0
C553 C 0.38747 0.49989 0.29553 0.0
C554 C 0.40168 0.50122 0.3417 0.0
C555 C 0.43809 0.50592 0.48953 0.0
C556 C 0.42649 0.50421 0.43616 0.0
H557 H 0.37332 0.52127 0.17052 0.0
H558 H 0.39852 0.52059 0.239 0.0
H559 H 0.40544 0.47275 0.35203 0.0
H560 H 0.47733 0.49106 0.54834 0.0
H561 H 0.45876 0.48804 0.45871 0.0
C562 C 0.00812 0.37243 0.15708 0.0
C563 C 0.02086 0.35868 0.15796 0.0
C564 C 0.00896 0.3864 0.19841 0.0
C565 C 0.02467 0.39493 0.34969 0.0
H566 H 0.01761 0.44494 0.31341 0.0
C567 C 0.03076 0.44752 0.53391 0.0
C568 C 0.0188 0.46186 0.53337 0.0
C569 C 0.03221 0.43623 0.48477 0.0
C570 C 0.01939 0.43102 0.32452 0.0
H571 H 0.04466 0.34914 0.20256 0.0
H572 H 0.04611 0.37341 0.274 0.0
H573 H 0.01764 0.42303 0.23302 0.0
H574 H 0.99934 0.47601 0.48029 0.0
H575 H 1.00136 0.45599 0.39509 0.0
H576 H 0.0258 0.40254 0.44089 0.0
C577 C 0.03548 0.3734 0.2414 0.0
C578 C 0.01947 0.41848 0.27831 0.0
C579 C 0.03476 0.35959 0.19987 0.0
C580 C 0.00871 0.46506 0.48188 0.0
C581 C 0.00995 0.45359 0.4329 0.0
C582 C 0.02437 0.40738 0.39579 0.0
C583 C 0.0224 0.38677 0.24201 0.0
C584 C 0.02223 0.4003 0.2904 0.0
C585 C 0.02149 0.4388 0.43404 0.0
C586 C 0.02185 0.42564 0.38404 0.0
H587 H 0.99728 0.37217 0.12531 0.0
H588 H 0.99865 0.39648 0.19785 0.0
H589 H 0.02646 0.38099 0.36066 0.0
H590 H 0.03885 0.44485 0.57279 0.0
H591 H 0.04163 0.42535 0.48696 0.0
C592 C 0.86426 0.9949 0.1262 0.0
C593 C 0.85062 0.98192 0.12656 0.0
C594 C 0.87906 0.9932 0.0886 0.0
C595 C 0.89046 0.97434 0.94474 0.0
H596 H 0.93946 0.98515 0.98683 0.0
C597 C 0.94543 0.97197 0.76667 0.0
C598 C 0.95881 0.98508 0.7687 0.0
C599 C 0.93387 0.96944 0.81481 0.0
C600 C 0.92583 0.98228 0.97404 0.0
H601 H 0.84274 0.95626 0.09046 0.0
H602 H 0.86831 0.95359 0.02394 0.0
H603 H 0.91643 0.98479 0.06386 0.0
H604 H 0.97103 0.00545 0.82335 0.0
H605 H 0.95044 1.00163 0.9065 0.0
H606 H 0.89938 0.97268 0.85494 0.0
C607 C 0.8674 0.96516 0.05247 0.0
C608 C 0.91266 0.98199 0.01837 0.0
C609 C 0.85271 0.96674 0.09053 0.0
C610 C 0.96084 0.9952 0.82068 0.0
C611 C 0.94905 0.99291 0.86852 0.0
C612 C 0.90352 0.9749 0.90039 0.0
C613 C 0.88051 0.97858 0.05003 0.0
C614 C 0.89482 0.97803 0.00414 0.0
C615 C 0.93513 0.98023 0.86583 0.0
C616 C 0.92143 0.97891 0.91419 0.0
H617 H 0.86308 0.0069 0.15256 0.0
H618 H 0.88889 0.00382 0.08745 0.0
H619 H 0.87678 0.97157 0.93215 0.0
H620 H 0.9437 0.96384 0.72734 0.0
H621 H 0.92374 0.95916 0.81145 0.0
C622 C 0.4926 0.8729 0.11924 0.0
C623 C 0.5077 0.86221 0.12912 0.0
C624 C 0.49342 0.88757 0.08078 0.0
C625 C 0.49931 0.92186 0.01052 0.0
H626 H 0.52575 0.91372 0.86509 0.0
C627 C 0.50021 0.97259 0.81251 0.0
C628 C 0.49822 0.96481 0.75619 0.0
C629 C 0.50326 0.96185 0.86282 0.0
C630 C 0.51828 0.91624 0.90541 0.0
H631 H 0.53581 0.85928 0.10883 0.0
H632 H 0.53735 0.88503 0.04243 0.0
H633 H 0.52737 0.89205 0.94517 0.0
H634 H 0.49766 0.93976 0.70842 0.0
H635 H 0.50277 0.92122 0.79507 0.0
H636 H 0.48955 0.94569 0.96901 0.0
C637 C 0.52471 0.88182 0.06334 0.0
C638 C 0.51939 0.90388 0.95185 0.0
C639 C 0.52386 0.86707 0.10159 0.0
C640 C 0.49929 0.9462 0.75113 0.0
C641 C 0.50237 0.93554 0.8009 0.0
C642 C 0.49816 0.93424 0.96384 0.0
C643 C 0.50939 0.89203 0.05124 0.0
C644 C 0.50965 0.9063 0.00467 0.0
C645 C 0.50444 0.94317 0.85747 0.0
C646 C 0.5073 0.93135 0.91011 0.0
H647 H 0.47986 0.86941 0.13893 0.0
H648 H 0.48127 0.89489 0.07209 0.0
H649 H 0.49183 0.92433 0.05083 0.0
H650 H 0.49912 0.98687 0.81784 0.0
H651 H 0.50477 0.96817 0.90575 0.0
C652 C 0.6419 0.50759 0.12106 0.0
C653 C 0.64974 0.5231 0.14456 0.0
C654 C 0.62716 0.50863 0.08321 0.0
C655 C 0.60434 0.54002 0.9812 0.0
H656 H 0.56943 0.50183 0.97446 0.0
C657 C 0.5601 0.52834 0.77499 0.0
C658 C 0.54305 0.52084 0.78214 0.0
C659 C 0.57145 0.53047 0.82382 0.0
C660 C 0.57885 0.5128 0.97608 0.0
H661 H 0.64774 0.55188 0.14827 0.0
H662 H 0.62172 0.55372 0.0831 0.0
H663 H 0.59143 0.50216 0.05364 0.0
H664 H 0.52418 0.51032 0.84632 0.0
H665 H 0.54372 0.51455 0.93202 0.0
H666 H 0.59152 0.55085 0.9043 0.0
C667 C 0.62723 0.54073 0.09296 0.0
C668 C 0.59169 0.51284 0.02119 0.0
C669 C 0.6421 0.53969 0.13059 0.0
C670 C 0.53729 0.5161 0.83946 0.0
C671 C 0.54858 0.51838 0.88849 0.0
C672 C 0.59138 0.54007 0.93637 0.0
C673 C 0.61972 0.52522 0.06794 0.0
C674 C 0.60487 0.52623 0.02368 0.0
C675 C 0.56596 0.5253 0.88123 0.0
C676 C 0.57867 0.52625 0.93239 0.0
H677 H 0.64764 0.49461 0.12974 0.0
H678 H 0.62208 0.4964 0.06407 0.0
H679 H 0.6143 0.55051 0.98117 0.0
H680 H 0.56493 0.53207 0.73128 0.0
H681 H 0.58478 0.53558 0.816 0.0
C682 C 0.99016 0.64746 0.04864 0.0
C683 C 1.0026 0.64984 0.09476 0.0
C684 C 0.99013 0.63186 0.01456 0.0
C685 C 0.02122 0.59745 0.96434 0.0
H686 H 0.97886 0.57545 0.89742 0.0
C687 C 0.02205 0.559 0.74453 0.0
C688 C 0.01242 0.54298 0.73991 0.0
C689 C 0.02078 0.56952 0.79539 0.0
C690 C 0.9908 0.58128 0.91635 0.0
H691 H 0.02428 0.63727 0.1427 0.0
H692 H 0.02412 0.61002 0.08364 0.0
H693 H 0.97584 0.59825 0.97458 0.0
H694 H 0.99371 0.52546 0.78455 0.0
H695 H 0.99126 0.5441 0.87412 0.0
H696 H 0.03616 0.58091 0.90506 0.0
C697 C 0.01447 0.6203 0.07353 0.0
C698 C 0.98908 0.59445 0.96013 0.0
C699 C 0.01443 0.63585 0.10782 0.0
C700 C 1.0015 0.5376 0.78747 0.0
C701 C 0.99998 0.54834 0.83834 0.0
C702 C 0.02292 0.58444 0.92032 0.0
C703 C 1.00261 0.61829 0.02553 0.0
C704 C 0.00427 0.60292 0.98391 0.0
C705 C 0.00962 0.56444 0.84273 0.0
C706 C 0.00774 0.57646 0.89493 0.0
H707 H 0.98076 0.6579 0.03776 0.0
H708 H 0.98088 0.63083 0.97777 0.0
H709 H 0.0332 0.60377 0.98115 0.0
H710 H 0.03052 0.56351 0.70843 0.0
H711 H 0.02818 0.58194 0.79691 0.0
C712 C 0.99667 0.22217 0.39173 0.0
C713 C 0.01378 0.22803 0.37519 0.0
C714 C 0.99458 0.20929 0.43598 0.0
C715 C 0.0199 0.17125 0.48795 0.0
H716 H 0.97605 0.16149 0.57383 0.0
C717 C 1.0014 0.09985 0.55033 0.0
C718 C 0.98428 0.09497 0.53052 0.0
C719 C 0.00615 0.11777 0.55551 0.0
C720 C 0.98844 0.16408 0.5505 0.0
H721 H 0.04193 0.22666 0.39647 0.0
H722 H 0.03828 0.20428 0.47466 0.0
H723 H 0.98292 0.19197 0.54241 0.0
H724 H 0.95849 0.10502 0.50293 0.0
H725 H 0.9669 0.13632 0.51053 0.0
H726 H 0.02501 0.14335 0.49296 0.0
C727 C 0.02651 0.20929 0.45236 0.0
C728 C 0.99239 0.18151 0.53255 0.0
C729 C 0.02862 0.22209 0.40767 0.0
C730 C 0.97176 0.10837 0.51846 0.0
C731 C 0.97654 0.12631 0.52332 0.0
C732 C 0.016 0.1539 0.50607 0.0
C733 C 0.00956 0.20207 0.4648 0.0
C734 C 0.00773 0.18511 0.49844 0.0
C735 C 0.99392 0.1312 0.54058 0.0
C736 C 0.99983 0.14999 0.53495 0.0
H737 H 0.98499 0.22643 0.36725 0.0
H738 H 0.98133 0.20396 0.44381 0.0
H739 H 0.03174 0.17342 0.46125 0.0
H740 H 0.01117 0.08979 0.56161 0.0
H741 H 0.01955 0.12113 0.56976 0.0
C742 C 0.26934 0.98032 0.41389 0.0
C743 C 0.26709 0.97134 0.35981 0.0
C744 C 0.28218 0.97459 0.45455 0.0
C745 C 0.31779 0.93995 0.47832 0.0
H746 H 0.34516 0.9814 0.52654 0.0
C747 C 0.3926 0.96279 0.56367 0.0
C748 C 0.40266 0.95559 0.51676 0.0
C749 C 0.37408 0.96088 0.56469 0.0
C750 C 0.33755 0.96962 0.51477 0.0
H751 H 0.27543 0.94875 0.30719 0.0
H752 H 0.29834 0.93921 0.37617 0.0
H753 H 0.31479 0.98514 0.4931 0.0
H754 H 0.40145 0.93972 0.43658 0.0
H755 H 0.36898 0.93644 0.43813 0.0
H756 H 0.34147 0.92477 0.49528 0.0
C757 C 0.28997 0.9503 0.38882 0.0
C758 C 0.32 0.97173 0.49574 0.0
C759 C 0.27688 0.95581 0.34887 0.0
C760 C 0.39397 0.94551 0.47292 0.0
C761 C 0.37545 0.94346 0.47424 0.0
C762 C 0.3355 0.9379 0.49647 0.0
C763 C 0.29334 0.96009 0.44097 0.0
C764 C 0.31012 0.95704 0.47483 0.0
C765 C 0.3653 0.95163 0.51907 0.0
C766 C 0.34571 0.95283 0.51271 0.0
H767 H 0.26173 0.99223 0.42341 0.0
H768 H 0.28402 0.98215 0.49502 0.0
H769 H 0.31044 0.92827 0.46406 0.0
H770 H 0.39892 0.97076 0.59784 0.0
H771 H 0.36655 0.96729 0.5997 0.0
C772 C 0.54626 0.27907 0.39634 0.0
C773 C 0.53046 0.27037 0.37887 0.0
C774 C 0.54553 0.29395 0.43348 0.0
C775 C 0.5148 0.33002 0.44696 0.0
H776 H 0.54917 0.35018 0.55692 0.0
C777 C 0.5316 0.40418 0.45479 0.0
C778 C 0.52806 0.41255 0.50914 0.0
C779 C 0.53165 0.38564 0.45117 0.0
C780 C 0.53941 0.34459 0.52671 0.0
H781 H 0.50179 0.26903 0.39342 0.0
H782 H 0.50069 0.29458 0.459 0.0
H783 H 0.54937 0.31793 0.53691 0.0
H784 H 0.5225 0.40835 0.60275 0.0
H785 H 0.52299 0.37567 0.59641 0.0
H786 H 0.50549 0.35667 0.43413 0.0
C787 C 0.51356 0.29014 0.44295 0.0
C788 C 0.53952 0.32625 0.5153 0.0
C789 C 0.51426 0.27537 0.40564 0.0
C790 C 0.52512 0.40212 0.56025 0.0
C791 C 0.52551 0.38353 0.55681 0.0
C792 C 0.51489 0.34827 0.45761 0.0
C793 C 0.529 0.30025 0.45387 0.0
C794 C 0.52737 0.31887 0.47455 0.0
C795 C 0.52849 0.37522 0.50203 0.0
C796 C 0.52741 0.35572 0.49653 0.0
H797 H 0.559 0.27526 0.37762 0.0
H798 H 0.55767 0.30145 0.44146 0.0
H799 H 0.50549 0.3248 0.4145 0.0
H800 H 0.53384 0.41199 0.41488 0.0
H801 H 0.53401 0.37939 0.40852 0.0
C802 C 0.20081 0.58344 0.22372 0.0
C803 C 0.21655 0.57855 0.25307 0.0
C804 C 0.18717 0.59196 0.25442 0.0
C805 C 0.16933 0.59037 0.40357 0.0
H806 H 0.13091 0.61605 0.32654 0.0
C807 C 0.09761 0.58151 0.48348 0.0
C808 C 0.08698 0.57466 0.43722 0.0
C809 C 0.11368 0.59027 0.47094 0.0
C810 C 0.14159 0.6091 0.34916 0.0
H811 H 0.23123 0.58014 0.33562 0.0
H812 H 0.20725 0.59521 0.38999 0.0
H813 H 0.16109 0.61782 0.28582 0.0
H814 H 0.0844 0.57281 0.34136 0.0
H815 H 0.11216 0.58823 0.31967 0.0
H816 H 0.14969 0.58082 0.46478 0.0
C817 C 0.2054 0.59229 0.34328 0.0
C818 C 0.15886 0.61009 0.32586 0.0
C819 C 0.21915 0.58379 0.31224 0.0
C820 C 0.09211 0.57802 0.37814 0.0
C821 C 0.10806 0.58692 0.36565 0.0
C822 C 0.15212 0.58953 0.42714 0.0
C823 C 0.18894 0.59571 0.31536 0.0
C824 C 0.17266 0.59979 0.35057 0.0
C825 C 0.11932 0.59256 0.4119 0.0
C826 C 0.1379 0.59801 0.39804 0.0
H827 H 0.19861 0.57961 0.17789 0.0
H828 H 0.17468 0.59417 0.2314 0.0
H829 H 0.17956 0.5822 0.42373 0.0
H830 H 0.09384 0.57956 0.52951 0.0
H831 H 0.12204 0.59463 0.50742 0.0
C832 C 0.09593 0.78767 0.00937 0.0
C833 C 0.09123 0.78772 0.06988 0.0
C834 C 0.10067 0.80356 0.98058 0.0
C835 C 0.1092 0.85227 0.00633 0.0
H836 H 0.08051 0.85767 0.86421 0.0
C837 C 0.07244 0.91617 0.94328 0.0
C838 C 0.07043 0.92083 0.88309 0.0
C839 C 0.08151 0.90068 0.9594 0.0
C840 C 0.08896 0.85636 0.90301 0.0
H841 H 0.08899 0.80435 0.14833 0.0
H842 H 0.09702 0.83178 0.0986 0.0
H843 H 0.08557 0.82812 0.90476 0.0
H844 H 0.07759 0.91346 0.79293 0.0
H845 H 0.09299 0.88609 0.82125 0.0
H846 H 0.11138 0.88077 0.0066 0.0
C847 C 0.0974 0.81955 0.07319 0.0
C848 C 0.09193 0.83937 0.92627 0.0
C849 C 0.09274 0.80372 0.1019 0.0
C850 C 0.07852 0.91006 0.83962 0.0
C851 C 0.08745 0.89446 0.85576 0.0
C852 C 0.10607 0.8693 0.98333 0.0
C853 C 0.10071 0.81981 0.01169 0.0
C854 C 0.10144 0.83717 0.97965 0.0
C855 C 0.08868 0.88941 0.91574 0.0
C856 C 0.09533 0.87153 0.93277 0.0
H857 H 0.09516 0.7755 0.9837 0.0
H858 H 0.10348 0.80323 0.93338 0.0
H859 H 0.11693 0.85102 0.04677 0.0
H860 H 0.06622 0.92396 0.97796 0.0
H861 H 0.082 0.897 0.00595 0.0
C862 C 0.71869 0.0842 0.01055 0.0
C863 C 0.7261 0.06701 0.00835 0.0
C864 C 0.70407 0.08861 0.97473 0.0
C865 C 0.67544 0.07134 0.85109 0.0
H866 H 0.6366 0.08955 0.94714 0.0
C867 C 0.60392 0.04619 0.83639 0.0
C868 C 0.58977 0.05846 0.83501 0.0
C869 C 0.62143 0.05199 0.84446 0.0
C870 C 0.64738 0.08484 0.91921 0.0
H871 H 0.72442 0.04131 0.96428 0.0
H872 H 0.69938 0.04893 0.9025 0.0
H873 H 0.66719 0.09205 0.98311 0.0
H874 H 0.58319 0.08661 0.84037 0.0
H875 H 0.61388 0.09657 0.85774 0.0
H876 H 0.65535 0.06276 0.78971 0.0
C877 C 0.70489 0.0592 0.93091 0.0
C878 C 0.66493 0.08632 0.93963 0.0
C879 C 0.71937 0.0548 0.96662 0.0
C880 C 0.59367 0.07673 0.84217 0.0
C881 C 0.61122 0.08249 0.85147 0.0
C882 C 0.6579 0.06965 0.83113 0.0
C883 C 0.69665 0.07592 0.93593 0.0
C884 C 0.67906 0.07881 0.9071 0.0
C885 C 0.62523 0.07015 0.85247 0.0
C886 C 0.64369 0.07569 0.86628 0.0
H887 H 0.72373 0.09402 0.04155 0.0
H888 H 0.69816 0.10169 0.97907 0.0
H889 H 0.68608 0.0658 0.82433 0.0
H890 H 0.60151 0.03201 0.83263 0.0
H891 H 0.63199 0.04217 0.84642 0.0
C892 C 0.41882 0.71272 0.0908 0.0
C893 C 0.42374 0.72865 0.06191 0.0
C894 C 0.41425 0.69762 0.05813 0.0
C895 C 0.4274 0.67758 0.91963 0.0
H896 H 0.39628 0.63934 0.97292 0.0
C897 C 0.43847 0.60615 0.83869 0.0
C898 C 0.43895 0.5934 0.88461 0.0
C899 C 0.43114 0.62299 0.84851 0.0
C900 C 0.40501 0.6499 0.95735 0.0
H901 H 0.42586 0.74163 0.97589 0.0
H902 H 0.41822 0.71503 0.91869 0.0
H903 H 0.39209 0.66945 0.01154 0.0
H904 H 0.43107 0.58797 0.97562 0.0
H905 H 0.4189 0.61749 0.99347 0.0
H906 H 0.44107 0.65799 0.86848 0.0
C907 C 0.41809 0.71428 0.96677 0.0
C908 C 0.40255 0.66714 0.97925 0.0
C909 C 0.42254 0.72948 0.99955 0.0
C910 C 0.43118 0.59759 0.93964 0.0
C911 C 0.42393 0.61444 0.94954 0.0
C912 C 0.4299 0.66036 0.89796 0.0
C913 C 0.41459 0.69802 0.99575 0.0
C914 C 0.41418 0.681 0.96236 0.0
C915 C 0.42421 0.62749 0.90454 0.0
C916 C 0.41919 0.64618 0.91836 0.0
H917 H 0.41981 0.7114 0.13861 0.0
H918 H 0.41184 0.68526 0.08186 0.0
H919 H 0.43673 0.6879 0.90625 0.0
H920 H 0.44444 0.60344 0.79584 0.0
H921 H 0.43138 0.63265 0.81269 0.0
C922 C 0.78841 0.47135 0.95352 0.0
C923 C 0.77928 0.45823 0.98629 0.0
C924 C 0.80263 0.46675 0.9168 0.0
C925 C 0.83708 0.43241 0.90908 0.0
H926 H 0.8537 0.46299 0.78134 0.0
C927 C 0.91099 0.44761 0.87457 0.0
C928 C 0.91737 0.45257 0.81833 0.0
C929 C 0.89292 0.44378 0.88293 0.0
C930 C 0.84925 0.45397 0.81599 0.0
H931 H 0.77684 0.42983 0.00229 0.0
H932 H 0.80159 0.42168 0.93698 0.0
H933 H 0.82266 0.46407 0.81152 0.0
H934 H 0.91025 0.45638 0.72591 0.0
H935 H 0.87872 0.44918 0.73994 0.0
H936 H 0.86365 0.42224 0.91334 0.0
C937 C 0.79801 0.4356 0.94089 0.0
C938 C 0.83143 0.45479 0.83388 0.0
C939 C 0.78382 0.44024 0.97813 0.0
C940 C 0.90555 0.45283 0.76995 0.0
C941 C 0.88751 0.44874 0.77808 0.0
C942 C 0.85483 0.43139 0.89054 0.0
C943 C 0.80803 0.44888 0.91159 0.0
C944 C 0.82536 0.4447 0.88267 0.0
C945 C 0.88088 0.44458 0.83497 0.0
C946 C 0.86135 0.4428 0.84581 0.0
H947 H 0.78545 0.48535 0.95945 0.0
H948 H 0.81014 0.47742 0.89595 0.0
H949 H 0.83296 0.42442 0.94682 0.0
H950 H 0.91983 0.44744 0.91264 0.0
H951 H 0.88833 0.441 0.92763 0.0
C952 C 0.02479 0.18963 0.84749 0.0
C953 C 0.01125 0.19693 0.88324 0.0
C954 C 0.02306 0.1724 0.82397 0.0
C955 C 1.00068 0.12961 0.85463 0.0
H956 H 0.01514 0.1171 0.69463 0.0
C957 C 0.00963 0.05627 0.78101 0.0
C958 C 0.00304 0.05145 0.72473 0.0
C959 C 0.01039 0.07419 0.79829 0.0
C960 C 0.01096 0.12038 0.73936 0.0
H961 H 0.98514 0.19182 0.92141 0.0
H962 H 0.98214 0.16187 0.8804 0.0
H963 H 0.01636 0.14826 0.72651 0.0
H964 H 0.99214 0.06195 0.64248 0.0
H965 H 0.99327 0.09312 0.67312 0.0
H966 H 0.99531 0.10181 0.8677 0.0
C967 C 0.99412 0.16946 0.87062 0.0
C968 C 0.01179 0.13823 0.75776 0.0
C969 C 0.99575 0.18673 0.89358 0.0
C970 C 0.99735 0.06509 0.68608 0.0
C971 C 0.99812 0.08302 0.70341 0.0
C972 C 1.00002 0.11178 0.83647 0.0
C973 C 0.00785 0.16196 0.83623 0.0
C974 C 0.00666 0.14307 0.81568 0.0
C975 C 0.00462 0.08781 0.75978 0.0
C976 C 0.00519 0.1069 0.77867 0.0
H977 H 0.03685 0.19715 0.83838 0.0
H978 H 0.03393 0.16703 0.79791 0.0
H979 H 0.99678 0.13282 0.89971 0.0
H980 H 0.01416 0.04619 0.81199 0.0
H981 H 0.01565 0.0774 0.8418 0.0
C982 C 0.31381 0.02509 0.93766 0.0
C983 C 0.29858 0.01969 0.90571 0.0
C984 C 0.33082 0.0243 0.9121 0.0
C985 C 0.35664 1.00221 0.79263 0.0
H986 H 0.39112 0.03946 0.82647 0.0
C987 C 0.42748 0.00406 0.68555 0.0
C988 C 0.44176 0.00958 0.72187 0.0
C989 C 0.40978 0.00533 0.70544 0.0
C990 C 0.38175 0.02882 0.81705 0.0
H991 H 0.28953 0.00938 0.82092 0.0
H992 H 0.31927 0.00799 0.77629 0.0
H993 H 0.36081 0.04195 0.86442 0.0
H994 H 0.44845 0.02051 0.80824 0.0
H995 H 0.41776 0.02254 0.84295 0.0
H996 H 0.37768 0.98904 0.74549 0.0
C997 C 0.318 0.01269 0.82155 0.0
C998 C 0.3643 0.03026 0.83881 0.0
C999 C 0.30092 0.01352 0.84716 0.0
C1000 C 0.43785 0.01621 0.77882 0.0
C1001 C 0.42018 0.0175 0.79863 0.0
C1002 C 0.37413 1.00076 0.77083 0.0
C1003 C 0.3332 0.01805 0.85377 0.0
C1004 C 0.35153 0.01689 0.82752 0.0
C1005 C 0.40586 0.0122 0.76214 0.0
C1006 C 0.387 0.01396 0.7833 0.0
H1007 H 0.31271 0.02948 0.98331 0.0
H1008 H 0.34219 0.0282 0.93882 0.0
H1009 H 0.34725 0.99155 0.78352 0.0
H1010 H 0.42993 0.99884 0.64146 0.0
H1011 H 0.39915 1.00123 0.67586 0.0
C1012 C 0.49422 0.31408 0.86069 0.0
C1013 C 0.50066 0.31089 0.91834 0.0
C1014 C 0.49353 0.33154 0.83791 0.0
C1015 C 0.51168 0.37752 0.8677 0.0
H1016 H 0.47548 0.39224 0.75508 0.0
C1017 C 0.49877 0.45156 0.80992 0.0
C1018 C 0.49806 0.45593 0.74916 0.0
C1019 C 0.49876 0.43371 0.8285 0.0
C1020 C 0.48572 0.38827 0.7863 0.0
H1021 H 0.51052 0.32346 0.99833 0.0
H1022 H 0.50854 0.35371 0.96039 0.0
H1023 H 0.47571 0.36152 0.7917 0.0
H1024 H 0.49621 0.44488 0.66052 0.0
H1025 H 0.49589 0.4137 0.69305 0.0
H1026 H 0.52127 0.40445 0.86363 0.0
C1027 C 0.50478 0.34289 0.9312 0.0
C1028 C 0.48594 0.37061 0.80717 0.0
C1029 C 0.50577 0.3255 0.95336 0.0
C1030 C 0.49692 0.44199 0.70756 0.0
C1031 C 0.49661 0.42413 0.7262 0.0
C1032 C 0.51125 0.39519 0.84768 0.0
C1033 C 0.49898 0.34624 0.8727 0.0
C1034 C 0.49887 0.36496 0.84861 0.0
C1035 C 0.49773 0.41978 0.78689 0.0
C1036 C 0.49823 0.40082 0.80699 0.0
H1037 H 0.49024 0.30304 0.8327 0.0
H1038 H 0.48913 0.33343 0.79255 0.0
H1039 H 0.52222 0.37374 0.898 0.0
H1040 H 0.49971 0.46193 0.8432 0.0
H1041 H 0.49951 0.4308 0.8756 0.0
C1042 C 0.20014 0.50875 0.85969 0.0
C1043 C 0.20821 0.49281 0.87866 0.0
C1044 C 0.18337 0.50858 0.83238 0.0
C1045 C 0.14252 0.48075 0.81931 0.0
H1046 H 0.12999 0.51552 0.69878 0.0
C1047 C 0.06913 0.49421 0.75523 0.0
C1048 C 0.06504 0.49798 0.69552 0.0
C1049 C 0.08688 0.49296 0.77415 0.0
C1050 C 0.13326 0.50557 0.73192 0.0
H1051 H 0.20509 0.46409 0.8816 0.0
H1052 H 0.17592 0.46374 0.83313 0.0
H1053 H 0.1606 0.51392 0.73454 0.0
H1054 H 0.07659 0.50334 0.60884 0.0
H1055 H 0.1075 0.50089 0.64161 0.0
H1056 H 0.11528 0.47218 0.81592 0.0
C1057 C 0.18244 0.47645 0.84047 0.0
C1058 C 0.15083 0.50479 0.75305 0.0
C1059 C 0.19922 0.47663 0.86807 0.0
C1060 C 0.0792 0.50049 0.65522 0.0
C1061 C 0.09698 0.49916 0.67413 0.0
C1062 C 0.12498 0.48148 0.79804 0.0
C1063 C 0.17415 0.49246 0.82301 0.0
C1064 C 0.15569 0.49251 0.79756 0.0
C1065 C 0.10108 0.49535 0.7339 0.0
C1066 C 0.12002 0.49404 0.75453 0.0
H1067 H 0.20643 0.52151 0.86818 0.0
H1068 H 0.17736 0.52121 0.82067 0.0
H1069 H 0.14563 0.47123 0.85399 0.0
H1070 H 0.05863 0.49231 0.78773 0.0
H1071 H 0.08943 0.49036 0.82071 0.0
C1072 C 0.99207 0.81412 0.3848 0.0
C1073 C 0.99941 0.80006 0.41817 0.0
C1074 C 0.99048 0.83121 0.40909 0.0
C1075 C 0.9912 0.85674 0.55077 0.0
H1076 H 0.0051 0.89594 0.44788 0.0
C1077 C 1.00263 0.9287 0.63871 0.0
C1078 C 0.99688 0.94293 0.60268 0.0
C1079 C 1.0023 0.91114 0.61751 0.0
C1080 C 1.00094 0.88521 0.47711 0.0
H1081 H 0.01 0.79289 0.50462 0.0
H1082 H 0.00744 0.82273 0.54671 0.0
H1083 H 0.00494 0.86568 0.40935 0.0
H1084 H 0.9861 0.94963 0.51598 0.0
H1085 H 0.98536 0.91916 0.47953 0.0
H1086 H 0.98729 0.87635 0.61866 0.0
C1087 C 1.00285 0.82052 0.50171 0.0
C1088 C 1.00083 0.8678 0.45492 0.0
C1089 C 0.00445 0.80342 0.47737 0.0
C1090 C 0.99072 0.93909 0.54503 0.0
C1091 C 0.99039 0.92157 0.5239 0.0
C1092 C 0.99129 0.87419 0.573 0.0
C1093 C 0.99619 0.83474 0.46746 0.0
C1094 C 0.99594 0.85331 0.49136 0.0
C1095 C 0.99623 0.90733 0.5597 0.0
C1096 C 0.99615 0.88868 0.53642 0.0
H1097 H 0.98822 0.81216 0.33891 0.0
H1098 H 0.98502 0.84174 0.38168 0.0
H1099 H 0.98719 0.84595 0.57997 0.0
H1100 H 0.00748 0.9311 0.6833 0.0
H1101 H 0.0071 0.90058 0.64614 0.0
C1102 C 0.68125 0.98756 0.39516 0.0
C1103 C 0.69493 0.99713 0.42388 0.0
C1104 C 0.66394 0.98704 0.4188 0.0
C1105 C 0.63411 0.01292 0.5165 0.0
H1106 H 0.60402 0.97082 0.51055 0.0
C1107 C 0.56376 0.01182 0.62243 0.0
C1108 C 0.55008 0.00263 0.59249 0.0
C1109 C 0.58154 0.01048 0.60383 0.0
C1110 C 0.61216 0.98277 0.51195 0.0
H1111 H 0.70122 0.01281 0.50202 0.0
H1112 H 0.67109 0.01193 0.54305 0.0
H1113 H 0.63486 0.96919 0.47595 0.0
H1114 H 0.54454 0.98491 0.51865 0.0
H1115 H 0.57543 0.98288 0.48545 0.0
H1116 H 0.61144 0.0266 0.55152 0.0
C1117 C 0.67367 0.0051 0.50159 0.0
C1118 C 0.62988 0.98181 0.49221 0.0
C1119 C 0.69098 0.00557 0.47808 0.0
C1120 C 0.55468 0.99215 0.54304 0.0
C1121 C 0.57247 0.99085 0.52425 0.0
C1122 C 0.6164 0.0139 0.53598 0.0
C1123 C 0.65984 0.99612 0.4717 0.0
C1124 C 0.64109 0.99688 0.49419 0.0
C1125 C 0.58617 1.0 0.55438 0.0
C1126 C 0.60514 0.99885 0.53396 0.0
H1127 H 0.68368 0.98111 0.35295 0.0
H1128 H 0.65361 0.98013 0.39426 0.0
H1129 H 0.64223 0.02488 0.51766 0.0
H1130 H 0.56079 0.02021 0.66006 0.0
H1131 H 0.59168 0.01757 0.62867 0.0
C1132 C 0.49941 0.70459 0.50044 0.0
C1133 C 0.50547 0.7079 0.44223 0.0
C1134 C 0.50048 0.68749 0.52534 0.0
C1135 C 0.5217 0.64288 0.50621 0.0
H1136 H 0.48089 0.62638 0.59725 0.0
C1137 C 0.51095 0.5684 0.56611 0.0
C1138 C 0.5044 0.56429 0.62318 0.0
C1139 C 0.51174 0.58609 0.54609 0.0
C1140 C 0.4925 0.63082 0.57257 0.0
H1141 H 0.51769 0.69569 0.36506 0.0
H1142 H 0.51952 0.66597 0.40823 0.0
H1143 H 0.48159 0.65687 0.55983 0.0
H1144 H 0.49348 0.57577 0.7038 0.0
H1145 H 0.49491 0.60654 0.66893 0.0
H1146 H 0.53248 0.6167 0.51836 0.0
C1147 C 0.51417 0.67664 0.43515 0.0
C1148 C 0.49293 0.64836 0.55114 0.0
C1149 C 0.51315 0.69375 0.41033 0.0
C1150 C 0.49861 0.57837 0.65959 0.0
C1151 C 0.49933 0.59605 0.63945 0.0
C1152 C 0.52125 0.62531 0.52751 0.0
C1153 C 0.50758 0.67318 0.49266 0.0
C1154 C 0.5075 0.65464 0.51743 0.0
C1155 C 0.50593 0.60016 0.58245 0.0
C1156 C 0.5066 0.61901 0.56077 0.0
H1157 H 0.49363 0.71521 0.52661 0.0
H1158 H 0.49561 0.68546 0.57017 0.0
H1159 H 0.53328 0.64728 0.48126 0.0
H1160 H 0.51552 0.55796 0.53671 0.0
H1161 H 0.51668 0.58871 0.50166 0.0
C1162 C 0.82282 0.52435 0.40145 0.0
C1163 C 0.80944 0.51374 0.42774 0.0
C1164 C 0.8402 0.52453 0.42432 0.0
C1165 C 0.87083 0.4969 0.51491 0.0
H1166 H 0.90052 0.53932 0.51323 0.0
C1167 C 0.94203 0.49748 0.6148 0.0
C1168 C 0.9554 0.50671 0.58319 0.0
C1169 C 0.92406 0.49894 0.59858 0.0
C1170 C 0.89247 0.52731 0.51349 0.0
H1171 H 0.80374 0.49569 0.50078 0.0
H1172 H 0.83396 0.49613 0.54102 0.0
H1173 H 0.86942 0.54123 0.48185 0.0
H1174 H 0.96016 0.52477 0.50935 0.0
H1175 H 0.92888 0.52716 0.48069 0.0
H1176 H 0.89388 0.48295 0.54617 0.0
C1177 C 0.83113 0.50402 0.50182 0.0
C1178 C 0.8746 0.5284 0.49551 0.0
C1179 C 0.81376 0.50382 0.47887 0.0
C1180 C 0.95028 0.51747 0.53485 0.0
C1181 C 0.93229 0.51895 0.51866 0.0
C1182 C 0.88867 0.49581 0.53295 0.0
C1183 C 0.84469 0.51411 0.4742 0.0
C1184 C 0.86355 0.51319 0.49568 0.0
C1185 C 0.91893 0.50968 0.55021 0.0
C1186 C 0.89978 0.51097 0.53222 0.0
H1187 H 0.82008 0.53194 0.36149 0.0
H1188 H 0.85028 0.5323 0.40137 0.0
H1189 H 0.86287 0.48482 0.51464 0.0
H1190 H 0.94542 0.48895 0.65189 0.0
H1191 H 0.91416 0.49173 0.62433 0.0
loop_
_geom_bond_atom_site_label_1
_geom_bond_atom_site_label_2
_geom_bond_distance
_geom_bond_site_symmetry_2
_ccdc_geom_bond_type
C0 C1 1.386 . S
C0 C2 1.397 . S
C0 H24 0.931 . S
C1 C0 1.386 . S
C1 C5 1.397 . S
C2 C0 1.397 . S
C2 C3 1.384 . S
C2 H25 0.930 . S
C3 C2 1.384 . S
C3 C4 1.377 . S
C3 C6 1.481 . S
C4 C3 1.377 . S
C4 C5 1.389 . S
C4 H26 0.929 . S
C5 C1 1.397 . S
C5 C4 1.389 . S
C5 H27 0.931 . S
C6 C3 1.481 . S
C6 C7 1.387 . S
C6 C11 1.390 . S
C7 C6 1.387 . S
C7 C8 1.401 . S
C7 H28 0.930 . S
C8 C7 1.401 . S
C8 C9 1.376 . S
C8 C17 1.511 . S
C9 C8 1.376 . S
C9 C10 1.392 . S
C9 H30 0.931 . S
C10 C9 1.392 . S
C10 C11 1.361 . S
C10 C12 1.500 . S
C11 C6 1.390 . S
C11 C10 1.361 . S
C11 H29 0.931 . S
C12 C10 1.500 . S
C12 C13 1.371 . S
C12 C14 1.365 . S
C13 C12 1.371 . S
C13 C23 1.386 . S
C13 H31 0.931 . S
C14 C12 1.365 . S
C14 C15 1.409 . S
C14 H32 0.929 . S
C15 C14 1.409 . S
C15 C16 1.380 . S
C15 H33 0.930 . S
C16 C15 1.380 . S
C16 C23 1.357 . S
C17 C8 1.511 . S
C17 C18 1.341 . S
C17 C19 1.371 . S
C18 C17 1.341 . S
C18 C22 1.394 . S
C18 H34 0.930 . S
C19 C17 1.371 . S
C19 C20 1.392 . S
C19 H35 0.931 . S
C20 C19 1.392 . S
C20 C21 1.331 . S
C20 H38 0.932 . S
C21 C20 1.331 . S
C21 C22 1.336 . S
C22 C18 1.394 . S
C22 C21 1.336 . S
C22 H37 0.929 . S
C23 C13 1.386 . S
C23 C16 1.357 . S
C23 H36 0.928 . S
H24 C0 0.931 . S
H25 C2 0.930 . S
H26 C4 0.929 . S
H27 C5 0.931 . S
H28 C7 0.930 . S
H29 C11 0.931 . S
H30 C9 0.931 . S
H31 C13 0.931 . S
H32 C14 0.929 . S
H33 C15 0.930 . S
H34 C18 0.930 . S
H35 C19 0.931 . S
H36 C23 0.928 . S
H37 C22 0.929 . S
H38 C20 0.932 . S
C39 C40 1.394 . S
C39 C41 1.397 . S
C39 H63 0.931 . S
C40 C39 1.394 . S
C40 C44 1.389 1_655 S
C41 C39 1.397 . S
C41 C42 1.389 . S
C41 H64 0.930 . S
C42 C41 1.389 . S
C42 C43 1.373 1_655 S
C42 C45 1.480 . S
C43 C42 1.373 1_455 S
C43 C44 1.389 . S
C43 H65 0.929 . S
C44 C40 1.389 1_455 S
C44 C43 1.389 . S
C44 H66 0.931 . S
C45 C42 1.480 . S
C45 C46 1.388 . S
C45 C50 1.390 . S
C46 C45 1.388 . S
C46 C47 1.402 . S
C46 H67 0.930 . S
C47 C46 1.402 . S
C47 C48 1.376 . S
C47 C56 1.513 . S
C48 C47 1.376 . S
C48 C49 1.392 . S
C48 H69 0.934 . S
C49 C48 1.392 . S
C49 C50 1.361 . S
C49 C51 1.499 1_655 S
C50 C45 1.390 . S
C50 C49 1.361 . S
C50 H68 0.931 . S
C51 C49 1.499 1_455 S
C51 C52 1.364 1_455 S
C51 C53 1.373 . S
C52 C51 1.364 1_655 S
C52 C62 1.386 . S
C52 H70 0.931 . S
C53 C51 1.373 . S
C53 C54 1.409 . S
C53 H71 0.929 . S
C54 C53 1.409 . S
C54 C55 1.378 . S
C54 H72 0.930 . S
C55 C54 1.378 . S
C55 C62 1.360 1_455 S
C56 C47 1.513 . S
C56 C57 1.341 . S
C56 C58 1.371 1_655 S
C57 C56 1.341 . S
C57 C61 1.394 . S
C57 H73 0.930 . S
C58 C56 1.371 1_455 S
C58 C59 1.392 . S
C58 H74 0.931 . S
C59 C58 1.392 . S
C59 C60 1.322 1_455 S
C59 H77 0.932 . S
C60 C59 1.322 1_655 S
C60 C61 1.345 . S
C61 C57 1.394 . S
C61 C60 1.345 . S
C61 H76 0.929 . S
C62 C52 1.386 . S
C62 C55 1.360 1_655 S
C62 H75 0.928 . S
H63 C39 0.931 . S
H64 C41 0.930 . S
H65 C43 0.929 . S
H66 C44 0.931 . S
H67 C46 0.930 . S
H68 C50 0.931 . S
H69 C48 0.934 . S
H70 C52 0.931 . S
H71 C53 0.929 . S
H72 C54 0.930 . S
H73 C57 0.930 . S
H74 C58 0.931 . S
H75 C62 0.928 . S
H76 C61 0.929 . S
H77 C59 0.932 . S
C78 C79 1.386 . S
C78 C80 1.397 . S
C78 H102 0.931 . S
C79 C78 1.386 . S
C79 C83 1.397 1_565 S
C80 C78 1.397 . S
C80 C81 1.384 . S
C80 H103 0.930 . S
C81 C80 1.384 . S
C81 C82 1.377 1_565 S
C81 C84 1.481 . S
C82 C81 1.377 1_545 S
C82 C83 1.389 . S
C82 H104 0.929 . S
C83 C79 1.397 1_545 S
C83 C82 1.389 . S
C83 H105 0.931 . S
C84 C81 1.481 . S
C84 C85 1.387 . S
C84 C89 1.390 . S
C85 C84 1.387 . S
C85 C86 1.401 . S
C85 H106 0.930 . S
C86 C85 1.401 . S
C86 C87 1.376 . S
C86 C95 1.511 . S
C87 C86 1.376 . S
C87 C88 1.392 . S
C87 H108 0.931 . S
C88 C87 1.392 . S
C88 C89 1.361 . S
C88 C90 1.500 . S
C89 C84 1.390 . S
C89 C88 1.361 . S
C89 H107 0.931 . S
C90 C88 1.500 . S
C90 C91 1.371 . S
C90 C92 1.365 1_565 S
C91 C90 1.371 . S
C91 C101 1.386 . S
C91 H109 0.931 . S
C92 C90 1.365 1_545 S
C92 C93 1.409 . S
C92 H110 0.929 . S
C93 C92 1.409 . S
C93 C94 1.380 1_545 S
C93 H111 0.930 . S
C94 C93 1.380 1_565 S
C94 C101 1.357 . S
C95 C86 1.511 . S
C95 C96 1.341 . S
C95 C97 1.390 . S
C96 C95 1.341 . S
C96 C100 1.394 . S
C96 H112 0.930 . S
C97 C95 1.390 . S
C97 C98 1.392 . S
C97 H113 0.916 1_565 S
C98 C97 1.392 . S
C98 C99 1.336 . S
C98 H116 0.926 1_565 S
C99 C98 1.336 . S
C99 C100 1.336 . S
C100 C96 1.394 . S
C100 C99 1.336 . S
C100 H115 0.929 . S
C101 C91 1.386 . S
C101 C94 1.357 . S
C101 H114 0.928 . S
H102 C78 0.931 . S
H103 C80 0.930 . S
H104 C82 0.929 . S
H105 C83 0.931 . S
H106 C85 0.930 . S
H107 C89 0.931 . S
H108 C87 0.931 . S
H109 C91 0.931 . S
H110 C92 0.929 . S
H111 C93 0.930 . S
H112 C96 0.930 . S
H113 C97 0.916 1_545 S
H114 C101 0.928 . S
H115 C100 0.929 . S
H116 C98 0.926 1_545 S
C117 C118 1.386 . S
C117 C119 1.397 . S
C117 H141 0.931 . S
C118 C117 1.386 . S
C118 C122 1.397 . S
C119 C117 1.397 . S
C119 C120 1.384 . S
C119 H142 0.930 . S
C120 C119 1.384 . S
C120 C121 1.377 . S
C120 C123 1.481 . S
C121 C120 1.377 . S
C121 C122 1.389 . S
C121 H143 0.929 . S
C122 C118 1.397 . S
C122 C121 1.389 . S
C122 H144 0.931 . S
C123 C120 1.481 . S
C123 C124 1.387 . S
C123 C128 1.390 . S
C124 C123 1.387 . S
C124 C125 1.401 . S
C124 H145 0.930 . S
C125 C124 1.401 . S
C125 C126 1.376 . S
C125 C134 1.511 . S
C126 C125 1.376 . S
C126 C127 1.392 . S
C126 H147 0.931 . S
C127 C126 1.392 . S
C127 C128 1.361 . S
C127 C129 1.500 . S
C128 C123 1.390 . S
C128 C127 1.361 . S
C128 H146 0.931 . S
C129 C127 1.500 . S
C129 C130 1.371 . S
C129 C131 1.365 . S
C130 C129 1.371 . S
C130 C140 1.386 . S
C130 H148 0.931 . S
C131 C129 1.365 . S
C131 C132 1.409 . S
C131 H149 0.929 . S
C132 C131 1.409 . S
C132 C133 1.380 . S
C132 H150 0.930 . S
C133 C132 1.380 . S
C133 C140 1.357 . S
C134 C125 1.511 . S
C134 C135 1.341 . S
C134 C136 1.371 . S
C135 C134 1.341 . S
C135 C139 1.394 . S
C135 H151 0.930 . S
C136 C134 1.371 . S
C136 C137 1.392 . S
C136 H152 0.931 . S
C137 C136 1.392 . S
C137 C138 1.331 . S
C137 H155 0.932 . S
C138 C137 1.331 . S
C138 C139 1.336 . S
C139 C135 1.394 . S
C139 C138 1.336 . S
C139 H154 0.929 . S
C140 C130 1.386 . S
C140 C133 1.357 . S
C140 H153 0.928 . S
H141 C117 0.931 . S
H142 C119 0.930 . S
H143 C121 0.929 . S
H144 C122 0.931 . S
H145 C124 0.930 . S
H146 C128 0.931 . S
H147 C126 0.931 . S
H148 C130 0.931 . S
H149 C131 0.929 . S
H150 C132 0.930 . S
H151 C135 0.930 . S
H152 C136 0.931 . S
H153 C140 0.928 . S
H154 C139 0.929 . S
H155 C137 0.932 . S
C156 C157 1.386 . S
C156 C158 1.397 . S
C156 H180 0.931 . S
C157 C156 1.386 . S
C157 C161 1.397 . S
C158 C156 1.397 . S
C158 C159 1.384 . S
C158 H181 0.930 . S
C159 C158 1.384 . S
C159 C160 1.377 . S
C159 C162 1.481 . S
C160 C159 1.377 . S
C160 C161 1.389 . S
C160 H182 0.929 . S
C161 C157 1.397 . S
C161 C160 1.389 . S
C161 H183 0.931 . S
C162 C159 1.481 . S
C162 C163 1.387 . S
C162 C167 1.390 . S
C163 C162 1.387 . S
C163 C164 1.401 . S
C163 H184 0.930 . S
C164 C163 1.401 . S
C164 C165 1.376 1_554 S
C164 C173 1.511 . S
C165 C164 1.376 1_556 S
C165 C166 1.392 . S
C165 H186 0.931 . S
C166 C165 1.392 . S
C166 C167 1.361 1_556 S
C166 C168 1.500 . S
C167 C162 1.390 . S
C167 C166 1.361 1_554 S
C167 H185 0.931 . S
C168 C166 1.500 . S
C168 C169 1.371 . S
C168 C170 1.365 . S
C169 C168 1.371 . S
C169 C179 1.386 . S
C169 H187 0.931 . S
C170 C168 1.365 . S
C170 C171 1.409 . S
C170 H188 0.929 . S
C171 C170 1.409 . S
C171 C172 1.380 . S
C171 H189 0.930 . S
C172 C171 1.380 . S
C172 C179 1.357 . S
C173 C164 1.511 . S
C173 C174 1.341 . S
C173 C175 1.371 . S
C174 C173 1.341 . S
C174 C178 1.394 . S
C174 H190 0.930 . S
C175 C173 1.371 . S
C175 C176 1.392 . S
C175 H191 0.931 1_554 S
C176 C175 1.392 . S
C176 C177 1.331 . S
C176 H194 0.932 . S
C177 C176 1.331 . S
C177 C178 1.336 . S
C178 C174 1.394 . S
C178 C177 1.336 . S
C178 H193 0.929 . S
C179 C169 1.386 . S
C179 C172 1.357 . S
C179 H192 0.928 . S
H180 C156 0.931 . S
H181 C158 0.930 . S
H182 C160 0.929 . S
H183 C161 0.931 . S
H184 C163 0.930 . S
H185 C167 0.931 . S
H186 C165 0.931 . S
H187 C169 0.931 . S
H188 C170 0.929 . S
H189 C171 0.930 . S
H190 C174 0.930 . S
H191 C175 0.931 1_556 S
H192 C179 0.928 . S
H193 C178 0.929 . S
H194 C176 0.932 . S
C195 C196 1.385 . S
C195 C197 1.397 . S
C195 H219 0.931 . S
C196 C195 1.385 . S
C196 C200 1.398 1_655 S
C197 C195 1.397 . S
C197 C198 1.389 1_655 S
C197 H220 0.930 . S
C198 C197 1.389 1_455 S
C198 C199 1.373 . S
C198 C201 1.480 1_455 S
C199 C198 1.373 . S
C199 C200 1.389 . S
C199 H221 0.929 . S
C200 C196 1.398 1_455 S
C200 C199 1.389 . S
C200 H222 0.931 . S
C201 C198 1.480 1_655 S
C201 C202 1.386 . S
C201 C206 1.390 . S
C202 C201 1.386 . S
C202 C203 1.400 . S
C202 H223 0.935 . S
C203 C202 1.400 . S
C203 C204 1.376 1_554 S
C203 C212 1.512 . S
C204 C203 1.376 1_556 S
C204 C205 1.392 1_655 S
C204 H225 0.933 . S
C205 C204 1.392 1_455 S
C205 C206 1.361 1_456 S
C205 C207 1.499 . S
C206 C201 1.390 . S
C206 C205 1.361 1_654 S
C206 H224 0.931 1_655 S
C207 C205 1.499 . S
C207 C208 1.357 1_455 S
C207 C209 1.380 . S
C208 C207 1.357 1_655 S
C208 C218 1.386 . S
C208 H226 0.931 . S
C209 C207 1.380 . S
C209 C210 1.409 . S
C209 H227 0.929 . S
C210 C209 1.409 . S
C210 C211 1.384 . S
C210 H228 0.930 . S
C211 C210 1.384 . S
C211 C218 1.353 1_455 S
C212 C203 1.512 . S
C212 C213 1.341 . S
C212 C214 1.371 1_655 S
C213 C212 1.341 . S
C213 C217 1.394 . S
C213 H229 0.930 . S
C214 C212 1.371 1_455 S
C214 C215 1.392 . S
C214 H230 0.931 1_554 S
C215 C214 1.392 . S
C215 C216 1.326 1_455 S
C215 H233 0.932 . S
C216 C215 1.326 1_655 S
C216 C217 1.341 . S
C217 C213 1.394 . S
C217 C216 1.341 . S
C217 H232 0.929 . S
C218 C208 1.386 . S
C218 C211 1.353 1_655 S
C218 H231 0.928 . S
H219 C195 0.931 . S
H220 C197 0.930 . S
H221 C199 0.929 . S
H222 C200 0.931 . S
H223 C202 0.935 . S
H224 C206 0.931 1_455 S
H225 C204 0.933 . S
H226 C208 0.931 . S
H227 C209 0.929 . S
H228 C210 0.930 . S
H229 C213 0.930 . S
H230 C214 0.931 1_556 S
H231 C218 0.928 . S
H232 C217 0.929 . S
H233 C215 0.932 . S
C234 C235 1.386 . S
C234 C236 1.397 . S
C234 H258 0.931 1_545 S
C235 C234 1.386 . S
C235 C239 1.397 . S
C236 C234 1.397 . S
C236 C237 1.384 . S
C236 H259 0.930 1_545 S
C237 C236 1.384 . S
C237 C238 1.377 . S
C237 C240 1.481 . S
C238 C237 1.377 . S
C238 C239 1.389 . S
C238 H260 0.929 . S
C239 C235 1.397 . S
C239 C238 1.389 . S
C239 H261 0.931 . S
C240 C237 1.481 . S
C240 C241 1.387 . S
C240 C245 1.390 . S
C241 C240 1.387 . S
C241 C242 1.401 . S
C241 H262 0.930 . S
C242 C241 1.401 . S
C242 C243 1.376 1_554 S
C242 C251 1.511 . S
C243 C242 1.376 1_556 S
C243 C244 1.392 . S
C243 H264 0.931 . S
C244 C243 1.392 . S
C244 C245 1.361 1_556 S
C244 C246 1.500 . S
C245 C240 1.390 . S
C245 C244 1.361 1_554 S
C245 H263 0.931 . S
C246 C244 1.500 . S
C246 C247 1.371 . S
C246 C248 1.365 . S
C247 C246 1.371 . S
C247 C257 1.386 . S
C247 H265 0.931 1_545 S
C248 C246 1.365 . S
C248 C249 1.409 . S
C248 H266 0.929 . S
C249 C248 1.409 . S
C249 C250 1.380 . S
C249 H267 0.930 . S
C250 C249 1.380 . S
C250 C257 1.357 . S
C251 C242 1.511 . S
C251 C252 1.341 . S
C251 C253 1.371 . S
C252 C251 1.341 . S
C252 C256 1.394 . S
C252 H268 0.930 . S
C253 C251 1.371 . S
C253 C254 1.392 . S
C253 H269 0.931 1_554 S
C254 C253 1.392 . S
C254 C255 1.331 . S
C254 H272 0.932 . S
C255 C254 1.331 . S
C255 C256 1.336 . S
C256 C252 1.394 . S
C256 C255 1.336 . S
C256 H271 0.929 . S
C257 C247 1.386 . S
C257 C250 1.357 . S
C257 H270 0.908 1_545 S
H258 C234 0.931 1_565 S
H259 C236 0.930 1_565 S
H260 C238 0.929 . S
H261 C239 0.931 . S
H262 C241 0.930 . S
H263 C245 0.931 . S
H264 C243 0.931 . S
H265 C247 0.931 1_565 S
H266 C248 0.929 . S
H267 C249 0.930 . S
H268 C252 0.930 . S
H269 C253 0.931 1_556 S
H270 C257 0.908 1_565 S
H271 C256 0.929 . S
H272 C254 0.932 . S
C273 C274 1.386 . S
C273 C275 1.397 . S
C273 H297 0.931 . S
C274 C273 1.386 . S
C274 C278 1.397 . S
C275 C273 1.397 . S
C275 C276 1.384 . S
C275 H298 0.930 . S
C276 C275 1.384 . S
C276 C277 1.377 . S
C276 C279 1.481 . S
C277 C276 1.377 . S
C277 C278 1.389 . S
C277 H299 0.929 . S
C278 C274 1.397 . S
C278 C277 1.389 . S
C278 H300 0.931 . S
C279 C276 1.481 . S
C279 C280 1.387 . S
C279 C284 1.390 1_556 S
C280 C279 1.387 . S
C280 C281 1.401 1_556 S
C280 H301 0.930 . S
C281 C280 1.401 1_554 S
C281 C282 1.376 . S
C281 C290 1.511 . S
C282 C281 1.376 . S
C282 C283 1.392 . S
C282 H303 0.931 . S
C283 C282 1.392 . S
C283 C284 1.361 . S
C283 C285 1.500 . S
C284 C279 1.390 1_554 S
C284 C283 1.361 . S
C284 H302 0.931 . S
C285 C283 1.500 . S
C285 C286 1.371 . S
C285 C287 1.365 . S
C286 C285 1.371 . S
C286 C296 1.386 . S
C286 H304 0.931 . S
C287 C285 1.365 . S
C287 C288 1.409 . S
C287 H305 0.929 . S
C288 C287 1.409 . S
C288 C289 1.380 . S
C288 H306 0.930 . S
C289 C288 1.380 . S
C289 C296 1.357 . S
C290 C281 1.511 . S
C290 C291 1.341 . S
C290 C292 1.371 . S
C291 C290 1.341 . S
C291 C295 1.394 . S
C291 H307 0.930 1_554 S
C292 C290 1.371 . S
C292 C293 1.392 . S
C292 H308 0.931 . S
C293 C292 1.392 . S
C293 C294 1.331 . S
C293 H311 0.932 . S
C294 C293 1.331 . S
C294 C295 1.336 . S
C295 C291 1.394 . S
C295 C294 1.336 . S
C295 H310 0.929 . S
C296 C286 1.386 . S
C296 C289 1.357 . S
C296 H309 0.928 . S
H297 C273 0.931 . S
H298 C275 0.930 . S
H299 C277 0.929 . S
H300 C278 0.931 . S
H301 C280 0.930 . S
H302 C284 0.931 . S
H303 C282 0.931 . S
H304 C286 0.931 . S
H305 C287 0.929 . S
H306 C288 0.930 . S
H307 C291 0.930 1_556 S
H308 C292 0.931 . S
H309 C296 0.928 . S
H310 C295 0.929 . S
H311 C293 0.932 . S
Ho312 C315 2.811 . S
Ho312 O332 2.322 . S
Ho312 O334 2.378 . S
Ho312 O335 2.539 . S
Ho312 O336 2.381 . S
Ho312 O337 2.669 1_565 S
Ho312 O339 2.346 1_565 S
Ho312 O343 2.317 1_455 S
Ho313 C324 2.811 . S
Ho313 O333 2.346 1_545 S
Ho313 O337 2.305 1_655 S
Ho313 O338 2.322 . S
Ho313 O340 2.378 . S
Ho313 O341 2.533 . S
Ho313 O342 2.381 . S
Ho313 O343 2.643 1_545 S
C314 O332 1.259 1_655 S
C314 O333 1.268 . S
C315 Ho312 2.811 . S
C315 C316 1.488 . S
C315 O334 1.215 . S
C315 O335 1.324 . S
C316 C315 1.488 . S
C316 C317 1.348 . S
C316 C321 1.413 . S
C317 C316 1.348 . S
C317 C318 1.442 . S
C317 H344 0.930 1_455 S
C318 C317 1.442 . S
C318 C319 1.381 . S
C318 H345 0.931 1_455 S
C319 C318 1.381 . S
C319 C320 1.321 . S
C320 C319 1.321 . S
C320 C321 1.403 . S
C320 H346 0.934 . S
C321 C316 1.413 . S
C321 C320 1.403 . S
C321 H347 0.930 . S
C322 O336 1.275 1_545 S
C322 O337 1.256 . S
C323 O338 1.259 1_455 S
C323 O339 1.268 . S
C324 Ho313 2.811 . S
C324 C325 1.488 . S
C324 O340 1.215 . S
C324 O341 1.310 . S
C325 C324 1.488 . S
C325 C326 1.348 . S
C325 C330 1.413 . S
C326 C325 1.348 . S
C326 C327 1.442 . S
C326 H348 0.930 1_655 S
C327 C326 1.442 . S
C327 C328 1.381 . S
C327 H349 0.931 1_655 S
C328 C327 1.381 . S
C328 C329 1.321 . S
C329 C328 1.321 . S
C329 C330 1.403 . S
C329 H350 0.934 . S
C330 C325 1.413 . S
C330 C329 1.403 . S
C330 H351 0.930 . S
C331 O342 1.275 . S
C331 O343 1.239 1_545 S
O332 Ho312 2.322 . S
O332 C314 1.259 1_455 S
O333 Ho313 2.346 1_565 S
O333 C314 1.268 . S
O334 Ho312 2.378 . S
O334 C315 1.215 . S
O335 Ho312 2.539 . S
O335 C315 1.324 . S
O336 Ho312 2.381 . S
O336 C322 1.275 1_565 S
O337 Ho312 2.669 1_545 S
O337 Ho313 2.305 1_455 S
O337 C322 1.256 . S
O338 Ho313 2.322 . S
O338 C323 1.259 1_655 S
O339 Ho312 2.346 1_545 S
O339 C323 1.268 . S
O340 Ho313 2.378 . S
O340 C324 1.215 . S
O341 Ho313 2.533 . S
O341 C324 1.310 . S
O342 Ho313 2.381 . S
O342 C331 1.275 . S
O343 Ho312 2.317 1_655 S
O343 Ho313 2.643 1_565 S
O343 C331 1.239 1_565 S
H344 C317 0.930 1_655 S
H345 C318 0.931 1_655 S
H346 C320 0.934 . S
H347 C321 0.930 . S
H348 C326 0.930 1_455 S
H349 C327 0.931 1_455 S
H350 C329 0.934 . S
H351 C330 0.930 . S
Ho352 C355 2.811 . S
Ho352 O372 2.322 . S
Ho352 O374 2.378 . S
Ho352 O375 2.524 . S
Ho352 O376 2.381 . S
Ho352 O377 2.669 . S
Ho352 O379 2.346 . S
Ho352 O383 2.305 1_545 S
Ho353 C364 2.811 . S
Ho353 O373 2.346 . S
Ho353 O377 2.305 1_565 S
Ho353 O378 2.322 . S
Ho353 O380 2.378 . S
Ho353 O381 2.524 1_565 S
Ho353 O382 2.381 . S
Ho353 O383 2.669 . S
C354 O372 1.259 1_565 S
C354 O373 1.268 . S
C355 Ho352 2.811 . S
C355 C356 1.488 . S
C355 O374 1.215 . S
C355 O375 1.289 . S
C356 C355 1.488 . S
C356 C357 1.348 . S
C356 C361 1.413 . S
C357 C356 1.348 . S
C357 C358 1.442 . S
C357 H384 0.930 1_545 S
C358 C357 1.442 . S
C358 C359 1.381 . S
C358 H385 0.931 1_545 S
C359 C358 1.381 . S
C359 C360 1.321 . S
C360 C359 1.321 . S
C360 C361 1.403 . S
C360 H386 0.934 . S
C361 C356 1.413 . S
C361 C360 1.403 . S
C361 H387 0.930 . S
C362 O376 1.275 . S
C362 O377 1.256 . S
C363 O378 1.259 1_545 S
C363 O379 1.268 . S
C364 Ho353 2.811 . S
C364 C365 1.488 . S
C364 O380 1.215 . S
C364 O381 1.289 1_565 S
C365 C364 1.488 . S
C365 C366 1.348 1_565 S
C365 C370 1.413 . S
C366 C365 1.348 1_545 S
C366 C367 1.441 1_545 S
C366 H388 0.930 . S
C367 C366 1.441 1_565 S
C367 C368 1.385 . S
C367 H389 0.927 1_565 S
C368 C367 1.385 . S
C368 C369 1.321 . S
C369 C368 1.321 . S
C369 C370 1.403 . S
C369 H390 0.934 . S
C370 C365 1.413 . S
C370 C369 1.403 . S
C370 H391 0.930 . S
C371 O382 1.275 . S
C371 O383 1.256 . S
O372 Ho352 2.322 . S
O372 C354 1.259 1_545 S
O373 Ho353 2.346 . S
O373 C354 1.268 . S
O374 Ho352 2.378 . S
O374 C355 1.215 . S
O375 Ho352 2.524 . S
O375 C355 1.289 . S
O376 Ho352 2.381 . S
O376 C362 1.275 . S
O377 Ho352 2.669 . S
O377 Ho353 2.305 1_545 S
O377 C362 1.256 . S
O378 Ho353 2.322 . S
O378 C363 1.259 1_565 S
O379 Ho352 2.346 . S
O379 C363 1.268 . S
O380 Ho353 2.378 . S
O380 C364 1.215 . S
O381 Ho353 2.524 1_545 S
O381 C364 1.289 1_545 S
O382 Ho353 2.381 . S
O382 C371 1.275 . S
O383 Ho352 2.305 1_565 S
O383 Ho353 2.669 . S
O383 C371 1.256 . S
H384 C357 0.930 1_565 S
H385 C358 0.931 1_565 S
H386 C360 0.934 . S
H387 C361 0.930 . S
H388 C366 0.930 . S
H389 C367 0.927 1_545 S
H390 C369 0.934 . S
H391 C370 0.930 . S
Ho392 C395 2.811 . S
Ho392 O412 2.322 . S
Ho392 O414 2.378 . S
Ho392 O415 2.524 . S
Ho392 O416 2.381 . S
Ho392 O417 2.669 . S
Ho392 O419 2.346 . S
Ho392 O423 2.305 . S
Ho393 C404 2.811 . S
Ho393 O413 2.346 . S
Ho393 O417 2.305 . S
Ho393 O418 2.322 . S
Ho393 O420 2.378 . S
Ho393 O421 2.524 . S
Ho393 O422 2.381 . S
Ho393 O423 2.669 . S
C394 O412 1.259 . S
C394 O413 1.268 . S
C395 Ho392 2.811 . S
C395 C396 1.488 . S
C395 O414 1.215 . S
C395 O415 1.289 . S
C396 C395 1.488 . S
C396 C397 1.348 . S
C396 C401 1.413 . S
C397 C396 1.348 . S
C397 C398 1.442 . S
C397 H424 0.930 . S
C398 C397 1.442 . S
C398 C399 1.381 . S
C398 H425 0.931 . S
C399 C398 1.381 . S
C399 C400 1.321 . S
C400 C399 1.321 . S
C400 C401 1.403 . S
C400 H426 0.934 . S
C401 C396 1.413 . S
C401 C400 1.403 . S
C401 H427 0.930 . S
C402 O416 1.275 . S
C402 O417 1.256 . S
C403 O418 1.259 . S
C403 O419 1.268 . S
C404 Ho393 2.811 . S
C404 C405 1.488 . S
C404 O420 1.215 . S
C404 O421 1.289 . S
C405 C404 1.488 . S
C405 C406 1.348 . S
C405 C410 1.413 . S
C406 C405 1.348 . S
C406 C407 1.442 . S
C406 H428 0.930 . S
C407 C406 1.442 . S
C407 C408 1.381 . S
C407 H429 0.931 . S
C408 C407 1.381 . S
C408 C409 1.321 . S
C409 C408 1.321 . S
C409 C410 1.403 . S
C409 H430 0.934 . S
C410 C405 1.413 . S
C410 C409 1.403 . S
C410 H431 0.930 . S
C411 O422 1.275 . S
C411 O423 1.256 . S
O412 Ho392 2.322 . S
O412 C394 1.259 . S
O413 Ho393 2.346 . S
O413 C394 1.268 . S
O414 Ho392 2.378 . S
O414 C395 1.215 . S
O415 Ho392 2.524 . S
O415 C395 1.289 . S
O416 Ho392 2.381 . S
O416 C402 1.275 . S
O417 Ho392 2.669 . S
O417 Ho393 2.305 . S
O417 C402 1.256 . S
O418 Ho393 2.322 . S
O418 C403 1.259 . S
O419 Ho392 2.346 . S
O419 C403 1.268 . S
O420 Ho393 2.378 . S
O420 C404 1.215 . S
O421 Ho393 2.524 . S
O421 C404 1.289 . S
O422 Ho393 2.381 . S
O422 C411 1.275 . S
O423 Ho392 2.305 . S
O423 Ho393 2.669 . S
O423 C411 1.256 . S
H424 C397 0.930 . S
H425 C398 0.931 . S
H426 C400 0.934 . S
H427 C401 0.930 . S
H428 C406 0.930 . S
H429 C407 0.931 . S
H430 C409 0.934 . S
H431 C410 0.930 . S
Ho432 C435 2.811 . S
Ho432 O452 2.322 . S
Ho432 O454 2.378 . S
Ho432 O455 2.524 . S
Ho432 O456 2.381 . S
Ho432 O457 2.669 1_655 S
Ho432 O459 2.346 1_655 S
Ho432 O463 2.305 . S
Ho433 C444 2.811 . S
Ho433 O453 2.346 1_455 S
Ho433 O457 2.305 . S
Ho433 O458 2.322 . S
Ho433 O460 2.378 . S
Ho433 O461 2.524 . S
Ho433 O462 2.381 . S
Ho433 O463 2.669 1_455 S
C434 O452 1.259 . S
C434 O453 1.268 . S
C435 Ho432 2.811 . S
C435 C436 1.488 . S
C435 O454 1.215 . S
C435 O455 1.289 . S
C436 C435 1.488 . S
C436 C437 1.348 . S
C436 C441 1.413 . S
C437 C436 1.348 . S
C437 C438 1.442 . S
C437 H464 0.930 . S
C438 C437 1.442 . S
C438 C439 1.381 . S
C438 H465 0.931 . S
C439 C438 1.381 . S
C439 C440 1.321 . S
C440 C439 1.321 . S
C440 C441 1.403 . S
C440 H466 0.934 . S
C441 C436 1.413 . S
C441 C440 1.403 . S
C441 H467 0.930 . S
C442 O456 1.275 . S
C442 O457 1.256 1_655 S
C443 O458 1.259 . S
C443 O459 1.268 . S
C444 Ho433 2.811 . S
C444 C445 1.488 . S
C444 O460 1.215 . S
C444 O461 1.289 . S
C445 C444 1.488 . S
C445 C446 1.348 . S
C445 C450 1.413 . S
C446 C445 1.348 . S
C446 C447 1.442 . S
C446 H468 0.930 . S
C447 C446 1.442 . S
C447 C448 1.381 . S
C447 H469 0.931 . S
C448 C447 1.381 . S
C448 C449 1.321 . S
C449 C448 1.321 . S
C449 C450 1.403 . S
C449 H470 0.934 . S
C450 C445 1.413 . S
C450 C449 1.403 . S
C450 H471 0.930 . S
C451 O462 1.275 . S
C451 O463 1.256 1_455 S
O452 Ho432 2.322 . S
O452 C434 1.259 . S
O453 Ho433 2.346 1_655 S
O453 C434 1.268 . S
O454 Ho432 2.378 . S
O454 C435 1.215 . S
O455 Ho432 2.524 . S
O455 C435 1.289 . S
O456 Ho432 2.381 . S
O456 C442 1.275 . S
O457 Ho432 2.669 1_455 S
O457 Ho433 2.305 . S
O457 C442 1.256 1_455 S
O458 Ho433 2.322 . S
O458 C443 1.259 . S
O459 Ho432 2.346 1_455 S
O459 C443 1.268 . S
O460 Ho433 2.378 . S
O460 C444 1.215 . S
O461 Ho433 2.524 . S
O461 C444 1.289 . S
O462 Ho433 2.381 . S
O462 C451 1.275 . S
O463 Ho432 2.305 . S
O463 Ho433 2.669 1_655 S
O463 C451 1.256 1_655 S
H464 C437 0.930 . S
H465 C438 0.931 . S
H466 C440 0.934 . S
H467 C441 0.930 . S
H468 C446 0.930 . S
H469 C447 0.931 . S
H470 C449 0.934 . S
H471 C450 0.930 . S
C472 C473 1.349 . S
C472 C474 1.327 . S
C472 H497 0.950 . S
C473 C472 1.349 . S
C473 C489 1.349 1_545 S
C474 C472 1.327 . S
C474 C493 1.429 . S
C474 H498 0.950 . S
C475 C492 1.574 . S
C475 C494 1.368 1_565 S
C475 H499 0.949 . S
H476 C480 0.949 . S
C477 C478 1.349 1_565 S
C477 C479 1.327 . S
C477 H500 0.950 . S
C478 C477 1.349 1_545 S
C478 C490 1.349 . S
C479 C477 1.327 . S
C479 C495 1.429 1_565 S
C479 H501 0.950 . S
C480 H476 0.949 . S
C480 C488 1.574 . S
C480 C496 1.368 . S
H481 C489 0.950 . S
H482 C487 0.950 . S
H483 C488 0.949 . S
H484 C490 0.950 . S
H485 C491 0.950 . S
H486 C492 0.949 . S
C487 H482 0.950 . S
C487 C489 1.327 . S
C487 C493 1.429 1_565 S
C488 C480 1.574 . S
C488 H483 0.949 . S
C488 C494 1.368 . S
C489 C473 1.349 1_565 S
C489 H481 0.950 . S
C489 C487 1.327 . S
C490 C478 1.349 . S
C490 H484 0.950 . S
C490 C491 1.327 . S
C491 H485 0.950 . S
C491 C490 1.327 . S
C491 C495 1.429 . S
C492 C475 1.574 . S
C492 H486 0.949 . S
C492 C496 1.368 1_565 S
C493 C474 1.429 . S
C493 C487 1.429 1_545 S
C493 C494 1.523 . S
C494 C475 1.368 1_545 S
C494 C488 1.368 . S
C494 C493 1.523 . S
C495 C479 1.429 1_545 S
C495 C491 1.429 . S
C495 C496 1.523 . S
C496 C480 1.368 . S
C496 C492 1.368 1_545 S
C496 C495 1.523 . S
H497 C472 0.950 . S
H498 C474 0.950 . S
H499 C475 0.949 . S
H500 C477 0.950 . S
H501 C479 0.950 . S
C502 C503 1.349 . S
C502 C504 1.327 . S
C502 H527 0.950 . S
C503 C502 1.349 . S
C503 C519 1.349 . S
C504 C502 1.327 . S
C504 C523 1.429 . S
C504 H528 0.950 . S
C505 C522 1.574 . S
C505 C524 1.368 . S
C505 H529 0.949 . S
H506 C510 0.949 . S
C507 C508 1.349 . S
C507 C509 1.327 . S
C507 H530 0.950 . S
C508 C507 1.349 . S
C508 C520 1.349 . S
C509 C507 1.327 . S
C509 C525 1.429 . S
C509 H531 0.950 . S
C510 H506 0.949 . S
C510 C518 1.574 . S
C510 C526 1.368 . S
H511 C519 0.950 . S
H512 C517 0.950 . S
H513 C518 0.949 . S
H514 C520 0.950 . S
H515 C521 0.950 . S
H516 C522 0.949 . S
C517 H512 0.950 . S
C517 C519 1.327 . S
C517 C523 1.429 . S
C518 C510 1.574 . S
C518 H513 0.949 . S
C518 C524 1.368 . S
C519 C503 1.349 . S
C519 H511 0.950 . S
C519 C517 1.327 . S
C520 C508 1.349 . S
C520 H514 0.950 . S
C520 C521 1.327 . S
C521 H515 0.950 . S
C521 C520 1.327 . S
C521 C525 1.429 . S
C522 C505 1.574 . S
C522 H516 0.949 . S
C522 C526 1.368 . S
C523 C504 1.429 . S
C523 C517 1.429 . S
C523 C524 1.523 . S
C524 C505 1.368 . S
C524 C518 1.368 . S
C524 C523 1.523 . S
C525 C509 1.429 . S
C525 C521 1.429 . S
C525 C526 1.523 . S
C526 C510 1.368 . S
C526 C522 1.368 . S
C526 C525 1.523 . S
H527 C502 0.950 . S
H528 C504 0.950 . S
H529 C505 0.949 . S
H530 C507 0.950 . S
H531 C509 0.950 . S
C532 C533 1.349 . S
C532 C534 1.327 . S
C532 H557 0.950 . S
C533 C532 1.349 . S
C533 C549 1.349 . S
C534 C532 1.327 . S
C534 C553 1.429 . S
C534 H558 0.950 . S
C535 C552 1.574 . S
C535 C554 1.368 . S
C535 H559 0.949 . S
H536 C540 0.949 . S
C537 C538 1.349 . S
C537 C539 1.327 . S
C537 H560 0.950 . S
C538 C537 1.349 . S
C538 C550 1.349 . S
C539 C537 1.327 . S
C539 C555 1.429 . S
C539 H561 0.950 . S
C540 H536 0.949 . S
C540 C548 1.574 . S
C540 C556 1.368 . S
H541 C549 0.950 . S
H542 C547 0.950 . S
H543 C548 0.949 . S
H544 C550 0.950 . S
H545 C551 0.950 . S
H546 C552 0.949 . S
C547 H542 0.950 . S
C547 C549 1.327 . S
C547 C553 1.429 . S
C548 C540 1.574 . S
C548 H543 0.949 . S
C548 C554 1.368 . S
C549 C533 1.349 . S
C549 H541 0.950 . S
C549 C547 1.327 . S
C550 C538 1.349 . S
C550 H544 0.950 . S
C550 C551 1.327 . S
C551 H545 0.950 . S
C551 C550 1.327 . S
C551 C555 1.429 . S
C552 C535 1.574 . S
C552 H546 0.949 . S
C552 C556 1.368 . S
C553 C534 1.429 . S
C553 C547 1.429 . S
C553 C554 1.523 . S
C554 C535 1.368 . S
C554 C548 1.368 . S
C554 C553 1.523 . S
C555 C539 1.429 . S
C555 C551 1.429 . S
C555 C556 1.523 . S
C556 C540 1.368 . S
C556 C552 1.368 . S
C556 C555 1.523 . S
H557 C532 0.950 . S
H558 C534 0.950 . S
H559 C535 0.949 . S
H560 C537 0.950 . S
H561 C539 0.950 . S
C562 C563 1.347 1_655 S
C562 C564 1.327 . S
C562 H587 0.950 . S
C563 C562 1.347 1_455 S
C563 C579 1.351 . S
C564 C562 1.327 . S
C564 C583 1.423 1_655 S
C564 H588 0.950 . S
C565 C582 1.574 . S
C565 C584 1.377 . S
C565 H589 0.949 . S
H566 C570 0.949 . S
C567 C568 1.367 . S
C567 C569 1.327 . S
C567 H590 0.950 . S
C568 C567 1.367 . S
C568 C580 1.332 1_455 S
C569 C567 1.327 . S
C569 C585 1.442 . S
C569 H591 0.950 . S
C570 H566 0.949 . S
C570 C578 1.574 . S
C570 C586 1.356 1_655 S
H571 C579 0.950 . S
H572 C577 0.950 . S
H573 C578 0.949 . S
H574 C580 0.950 . S
H575 C581 0.950 . S
H576 C582 0.949 . S
C577 H572 0.950 . S
C577 C579 1.327 . S
C577 C583 1.434 . S
C578 C570 1.574 . S
C578 H573 0.949 . S
C578 C584 1.360 1_655 S
C579 C563 1.351 . S
C579 H571 0.950 . S
C579 C577 1.327 . S
C580 C568 1.332 1_655 S
C580 H574 0.950 . S
C580 C581 1.327 . S
C581 H575 0.950 . S
C581 C580 1.327 . S
C581 C585 1.416 1_655 S
C582 C565 1.574 . S
C582 H576 0.949 . S
C582 C586 1.381 . S
C583 C564 1.423 1_455 S
C583 C577 1.434 . S
C583 C584 1.523 . S
C584 C565 1.377 . S
C584 C578 1.360 1_455 S
C584 C583 1.523 . S
C585 C569 1.442 . S
C585 C581 1.416 1_455 S
C585 C586 1.523 . S
C586 C570 1.356 1_455 S
C586 C582 1.381 . S
C586 C585 1.523 . S
H587 C562 0.950 . S
H588 C564 0.950 . S
H589 C565 0.949 . S
H590 C567 0.950 . S
H591 C569 0.950 . S
C592 C593 1.349 1_545 S
C592 C594 1.327 . S
C592 H617 0.950 . S
C593 C592 1.349 1_565 S
C593 C609 1.349 . S
C594 C592 1.327 . S
C594 C613 1.429 1_545 S
C594 H618 0.950 . S
C595 C612 1.574 . S
C595 C614 1.368 1_556 S
C595 H619 0.949 . S
H596 C600 0.949 . S
C597 C598 1.318 1_565 S
C597 C599 1.327 . S
C597 H620 0.950 . S
C598 C597 1.318 1_545 S
C598 C610 1.380 . S
C599 C597 1.327 . S
C599 C615 1.442 . S
C599 H621 0.950 . S
C600 H596 0.949 . S
C600 C608 1.574 1_556 S
C600 C616 1.368 1_545 S
H601 C609 0.950 . S
H602 C607 0.950 . S
H603 C608 0.949 . S
H604 C610 0.950 . S
H605 C611 0.950 . S
H606 C612 0.949 . S
C607 H602 0.950 . S
C607 C609 1.327 . S
C607 C613 1.429 . S
C608 C600 1.574 1_554 S
C608 H603 0.949 . S
C608 C614 1.368 1_545 S
C609 C593 1.349 . S
C609 H601 0.950 . S
C609 C607 1.327 . S
C610 C598 1.380 . S
C610 H604 0.950 . S
C610 C611 1.327 . S
C611 H605 0.950 . S
C611 C610 1.327 . S
C611 C615 1.415 1_545 S
C612 C595 1.574 . S
C612 H606 0.949 . S
C612 C616 1.368 . S
C613 C594 1.429 1_565 S
C613 C607 1.429 . S
C613 C614 1.523 . S
C614 C595 1.368 1_554 S
C614 C608 1.368 1_565 S
C614 C613 1.523 . S
C615 C599 1.442 . S
C615 C611 1.415 1_565 S
C615 C616 1.524 . S
C616 C600 1.368 1_565 S
C616 C612 1.368 . S
C616 C615 1.524 . S
H617 C592 0.950 . S
H618 C594 0.950 . S
H619 C595 0.949 . S
H620 C597 0.950 . S
H621 C599 0.950 . S
C622 C623 1.349 . S
C622 C624 1.327 . S
C622 H647 0.950 . S
C623 C622 1.349 . S
C623 C639 1.349 . S
C624 C622 1.327 . S
C624 C643 1.429 . S
C624 H648 0.950 . S
C625 C642 1.574 1_554 S
C625 C644 1.368 . S
C625 H649 0.949 . S
H626 C630 0.949 . S
C627 C628 1.349 . S
C627 C629 1.327 . S
C627 H650 0.950 . S
C628 C627 1.349 . S
C628 C640 1.349 . S
C629 C627 1.327 . S
C629 C645 1.429 . S
C629 H651 0.950 . S
C630 H626 0.949 . S
C630 C638 1.574 . S
C630 C646 1.368 . S
H631 C639 0.950 . S
H632 C637 0.950 . S
H633 C638 0.949 . S
H634 C640 0.950 . S
H635 C641 0.950 . S
H636 C642 0.949 . S
C637 H632 0.950 . S
C637 C639 1.327 . S
C637 C643 1.429 . S
C638 C630 1.574 . S
C638 H633 0.949 . S
C638 C644 1.368 1_556 S
C639 C623 1.349 . S
C639 H631 0.950 . S
C639 C637 1.327 . S
C640 C628 1.349 . S
C640 H634 0.950 . S
C640 C641 1.327 . S
C641 H635 0.950 . S
C641 C640 1.327 . S
C641 C645 1.429 . S
C642 C625 1.574 1_556 S
C642 H636 0.949 . S
C642 C646 1.368 . S
C643 C624 1.429 . S
C643 C637 1.429 . S
C643 C644 1.523 . S
C644 C625 1.368 . S
C644 C638 1.368 1_554 S
C644 C643 1.523 . S
C645 C629 1.429 . S
C645 C641 1.429 . S
C645 C646 1.523 . S
C646 C630 1.368 . S
C646 C642 1.368 . S
C646 C645 1.523 . S
H647 C622 0.950 . S
H648 C624 0.950 . S
H649 C625 0.949 . S
H650 C627 0.950 . S
H651 C629 0.950 . S
C652 C653 1.349 . S
C652 C654 1.327 . S
C652 H677 0.950 . S
C653 C652 1.349 . S
C653 C669 1.349 . S
C654 C652 1.327 . S
C654 C673 1.429 . S
C654 H678 0.950 . S
C655 C672 1.574 . S
C655 C674 1.368 1_556 S
C655 H679 0.947 1_556 S
H656 C660 0.949 . S
C657 C658 1.349 . S
C657 C659 1.327 . S
C657 H680 0.950 . S
C658 C657 1.349 . S
C658 C670 1.349 . S
C659 C657 1.327 . S
C659 C675 1.429 . S
C659 H681 0.950 . S
C660 H656 0.949 . S
C660 C668 1.574 1_556 S
C660 C676 1.368 . S
H661 C669 0.950 . S
H662 C667 0.950 . S
H663 C668 0.949 . S
H664 C670 0.950 . S
H665 C671 0.950 . S
H666 C672 0.949 . S
C667 H662 0.950 . S
C667 C669 1.327 . S
C667 C673 1.429 . S
C668 C660 1.574 1_554 S
C668 H663 0.949 . S
C668 C674 1.368 . S
C669 C653 1.349 . S
C669 H661 0.950 . S
C669 C667 1.327 . S
C670 C658 1.349 . S
C670 H664 0.950 . S
C670 C671 1.327 . S
C671 H665 0.950 . S
C671 C670 1.327 . S
C671 C675 1.429 . S
C672 C655 1.574 . S
C672 H666 0.949 . S
C672 C676 1.368 . S
C673 C654 1.429 . S
C673 C667 1.429 . S
C673 C674 1.523 . S
C674 C655 1.368 1_554 S
C674 C668 1.368 . S
C674 C673 1.523 . S
C675 C659 1.429 . S
C675 C671 1.429 . S
C675 C676 1.523 . S
C676 C660 1.368 . S
C676 C672 1.368 . S
C676 C675 1.523 . S
H677 C652 0.950 . S
H678 C654 0.950 . S
H679 C655 0.947 1_554 S
H680 C657 0.950 . S
H681 C659 0.950 . S
C682 C683 1.353 . S
C682 C684 1.327 . S
C682 H707 0.950 . S
C683 C682 1.353 . S
C683 C699 1.344 1_655 S
C684 C682 1.327 . S
C684 C703 1.442 . S
C684 H708 0.950 . S
C685 C702 1.575 . S
C685 C704 1.348 1_456 S
C685 H709 0.949 1_556 S
H686 C690 0.949 . S
C687 C688 1.307 1_455 S
C687 C689 1.327 . S
C687 H710 0.950 . S
C688 C687 1.307 1_655 S
C688 C700 1.391 . S
C689 C687 1.327 . S
C689 C705 1.397 1_455 S
C689 H711 0.950 . S
C690 H686 0.949 . S
C690 C698 1.574 1_556 S
C690 C706 1.398 . S
H691 C699 0.950 . S
H692 C697 0.950 . S
H693 C698 0.949 . S
H694 C700 0.950 . S
H695 C701 0.950 . S
H696 C702 0.949 . S
C697 H692 0.950 . S
C697 C699 1.327 . S
C697 C703 1.415 1_455 S
C698 C690 1.574 1_554 S
C698 H693 0.949 . S
C698 C704 1.388 . S
C699 C683 1.344 1_455 S
C699 H691 0.950 . S
C699 C697 1.327 . S
C700 C688 1.391 . S
C700 H694 0.950 . S
C700 C701 1.327 . S
C701 H695 0.950 . S
C701 C700 1.327 . S
C701 C705 1.460 . S
C702 C685 1.575 . S
C702 H696 0.949 . S
C702 C706 1.339 1_455 S
C703 C684 1.442 . S
C703 C697 1.415 1_655 S
C703 C704 1.523 . S
C704 C685 1.348 1_654 S
C704 C698 1.388 . S
C704 C703 1.523 . S
C705 C689 1.397 1_655 S
C705 C701 1.460 . S
C705 C706 1.523 . S
C706 C690 1.398 . S
C706 C702 1.339 1_655 S
C706 C705 1.523 . S
H707 C682 0.950 . S
H708 C684 0.950 . S
H709 C685 0.949 1_554 S
H710 C687 0.950 . S
H711 C689 0.950 . S
C712 C713 1.349 1_655 S
C712 C714 1.327 . S
C712 H737 0.950 . S
C713 C712 1.349 1_455 S
C713 C729 1.349 . S
C714 C712 1.327 . S
C714 C733 1.429 . S
C714 H738 0.950 . S
C715 C732 1.574 . S
C715 C734 1.368 1_455 S
C715 H739 0.949 . S
H716 C720 0.949 . S
C717 C718 1.349 . S
C717 C719 1.327 . S
C717 H740 0.950 . S
C718 C717 1.349 . S
C718 C730 1.349 . S
C719 C717 1.327 . S
C719 C735 1.429 . S
C719 H741 0.950 1_655 S
C720 H716 0.949 . S
C720 C728 1.574 . S
C720 C736 1.368 . S
H721 C729 0.950 . S
H722 C727 0.950 . S
H723 C728 0.949 . S
H724 C730 0.950 . S
H725 C731 0.950 . S
H726 C732 0.949 . S
C727 H722 0.950 . S
C727 C729 1.327 . S
C727 C733 1.429 1_455 S
C728 C720 1.574 . S
C728 H723 0.949 . S
C728 C734 1.368 . S
C729 C713 1.349 . S
C729 H721 0.950 . S
C729 C727 1.327 . S
C730 C718 1.349 . S
C730 H724 0.950 . S
C730 C731 1.327 . S
C731 H725 0.950 . S
C731 C730 1.327 . S
C731 C735 1.429 . S
C732 C715 1.574 . S
C732 H726 0.949 . S
C732 C736 1.368 1_455 S
C733 C714 1.429 . S
C733 C727 1.429 1_655 S
C733 C734 1.523 . S
C734 C715 1.368 1_655 S
C734 C728 1.368 . S
C734 C733 1.523 . S
C735 C719 1.429 . S
C735 C731 1.429 . S
C735 C736 1.523 . S
C736 C720 1.368 . S
C736 C732 1.368 1_655 S
C736 C735 1.523 . S
H737 C712 0.950 . S
H738 C714 0.950 . S
H739 C715 0.949 . S
H740 C717 0.950 . S
H741 C719 0.950 1_455 S
C742 C743 1.349 . S
C742 C744 1.327 . S
C742 H767 0.950 . S
C743 C742 1.349 . S
C743 C759 1.293 1_545 S
C744 C742 1.327 . S
C744 C763 1.429 . S
C744 H768 0.950 . S
C745 C762 1.574 . S
C745 C764 1.368 1_565 S
C745 H769 0.949 . S
H746 C750 0.949 . S
C747 C748 1.349 . S
C747 C749 1.327 . S
C747 H770 0.950 . S
C748 C747 1.349 . S
C748 C760 1.349 . S
C749 C747 1.327 . S
C749 C765 1.429 . S
C749 H771 0.950 . S
C750 H746 0.949 . S
C750 C758 1.574 . S
C750 C766 1.368 1_545 S
H751 C759 0.992 . S
H752 C757 0.950 . S
H753 C758 0.949 . S
H754 C760 0.950 1_545 S
H755 C761 0.926 1_545 S
H756 C762 0.949 . S
C757 H752 0.950 . S
C757 C759 1.345 . S
C757 C763 1.429 1_565 S
C758 C750 1.574 . S
C758 H753 0.949 . S
C758 C764 1.368 . S
C759 C743 1.293 1_565 S
C759 H751 0.992 . S
C759 C757 1.345 . S
C760 C748 1.349 . S
C760 H754 0.950 1_565 S
C760 C761 1.334 . S
C761 H755 0.926 1_565 S
C761 C760 1.334 . S
C761 C765 1.445 . S
C762 C745 1.574 . S
C762 H756 0.949 . S
C762 C766 1.368 . S
C763 C744 1.429 . S
C763 C757 1.429 1_545 S
C763 C764 1.523 . S
C764 C745 1.368 1_545 S
C764 C758 1.368 . S
C764 C763 1.523 . S
C765 C749 1.429 . S
C765 C761 1.445 . S
C765 C766 1.523 . S
C766 C750 1.368 1_565 S
C766 C762 1.368 . S
C766 C765 1.523 . S
H767 C742 0.950 . S
H768 C744 0.950 . S
H769 C745 0.949 . S
H770 C747 0.950 . S
H771 C749 0.950 . S
C772 C773 1.349 . S
C772 C774 1.327 . S
C772 H797 0.950 . S
C773 C772 1.349 . S
C773 C789 1.349 . S
C774 C772 1.327 . S
C774 C793 1.429 . S
C774 H798 0.950 . S
C775 C792 1.574 . S
C775 C794 1.368 . S
C775 H799 0.949 . S
H776 C780 0.949 . S
C777 C778 1.349 . S
C777 C779 1.327 . S
C777 H800 0.950 . S
C778 C777 1.349 . S
C778 C790 1.349 . S
C779 C777 1.327 . S
C779 C795 1.429 . S
C779 H801 0.950 . S
C780 H776 0.949 . S
C780 C788 1.574 . S
C780 C796 1.368 . S
H781 C789 0.950 . S
H782 C787 0.950 . S
H783 C788 0.949 . S
H784 C790 0.950 . S
H785 C791 0.950 . S
H786 C792 0.949 . S
C787 H782 0.950 . S
C787 C789 1.327 . S
C787 C793 1.429 . S
C788 C780 1.574 . S
C788 H783 0.949 . S
C788 C794 1.368 . S
C789 C773 1.349 . S
C789 H781 0.950 . S
C789 C787 1.327 . S
C790 C778 1.349 . S
C790 H784 0.950 . S
C790 C791 1.327 . S
C791 H785 0.950 . S
C791 C790 1.327 . S
C791 C795 1.429 . S
C792 C775 1.574 . S
C792 H786 0.949 . S
C792 C796 1.368 . S
C793 C774 1.429 . S
C793 C787 1.429 . S
C793 C794 1.523 . S
C794 C775 1.368 . S
C794 C788 1.368 . S
C794 C793 1.523 . S
C795 C779 1.429 . S
C795 C791 1.429 . S
C795 C796 1.523 . S
C796 C780 1.368 . S
C796 C792 1.368 . S
C796 C795 1.523 . S
H797 C772 0.950 . S
H798 C774 0.950 . S
H799 C775 0.949 . S
H800 C777 0.950 . S
H801 C779 0.950 . S
C802 C803 1.349 . S
C802 C804 1.327 . S
C802 H827 0.950 . S
C803 C802 1.349 . S
C803 C819 1.349 . S
C804 C802 1.327 . S
C804 C823 1.429 . S
C804 H828 0.950 . S
C805 C822 1.574 . S
C805 C824 1.368 . S
C805 H829 0.949 . S
H806 C810 0.949 . S
C807 C808 1.349 . S
C807 C809 1.327 . S
C807 H830 0.950 . S
C808 C807 1.349 . S
C808 C820 1.349 . S
C809 C807 1.327 . S
C809 C825 1.429 . S
C809 H831 0.950 . S
C810 H806 0.949 . S
C810 C818 1.574 . S
C810 C826 1.368 . S
H811 C819 0.950 . S
H812 C817 0.950 . S
H813 C818 0.949 . S
H814 C820 0.950 . S
H815 C821 0.950 . S
H816 C822 0.949 . S
C817 H812 0.950 . S
C817 C819 1.327 . S
C817 C823 1.429 . S
C818 C810 1.574 . S
C818 H813 0.949 . S
C818 C824 1.368 . S
C819 C803 1.349 . S
C819 H811 0.950 . S
C819 C817 1.327 . S
C820 C808 1.349 . S
C820 H814 0.950 . S
C820 C821 1.327 . S
C821 H815 0.950 . S
C821 C820 1.327 . S
C821 C825 1.429 . S
C822 C805 1.574 . S
C822 H816 0.949 . S
C822 C826 1.368 . S
C823 C804 1.429 . S
C823 C817 1.429 . S
C823 C824 1.523 . S
C824 C805 1.368 . S
C824 C818 1.368 . S
C824 C823 1.523 . S
C825 C809 1.429 . S
C825 C821 1.429 . S
C825 C826 1.523 . S
C826 C810 1.368 . S
C826 C822 1.368 . S
C826 C825 1.523 . S
H827 C802 0.950 . S
H828 C804 0.950 . S
H829 C805 0.949 . S
H830 C807 0.950 . S
H831 C809 0.950 . S
C832 C833 1.349 . S
C832 C834 1.327 . S
C832 H857 0.950 . S
C833 C832 1.349 . S
C833 C849 1.349 1_655 S
C834 C832 1.327 . S
C834 C853 1.429 1_655 S
C834 H858 0.950 1_554 S
C835 C852 1.574 . S
C835 C854 1.368 . S
C835 H859 0.949 . S
H836 C840 0.949 . S
C837 C838 1.349 . S
C837 C839 1.327 . S
C837 H860 0.950 . S
C838 C837 1.349 . S
C838 C850 1.349 . S
C839 C837 1.327 . S
C839 C855 1.429 . S
C839 H861 0.950 . S
C840 H836 0.949 . S
C840 C848 1.574 . S
C840 C856 1.368 . S
H841 C849 0.950 . S
H842 C847 0.950 . S
H843 C848 0.949 1_655 S
H844 C850 0.950 . S
H845 C851 0.950 . S
H846 C852 0.949 . S
C847 H842 0.950 . S
C847 C849 1.327 . S
C847 C853 1.429 . S
C848 C840 1.574 . S
C848 H843 0.949 1_455 S
C848 C854 1.368 1_556 S
C849 C833 1.349 1_455 S
C849 H841 0.950 . S
C849 C847 1.327 . S
C850 C838 1.349 . S
C850 H844 0.950 . S
C850 C851 1.327 . S
C851 H845 0.950 . S
C851 C850 1.327 . S
C851 C855 1.429 . S
C852 C835 1.574 . S
C852 H846 0.949 . S
C852 C856 1.368 1_554 S
C853 C834 1.429 1_455 S
C853 C847 1.429 . S
C853 C854 1.523 . S
C854 C835 1.368 . S
C854 C848 1.368 1_554 S
C854 C853 1.523 . S
C855 C839 1.429 . S
C855 C851 1.429 . S
C855 C856 1.523 . S
C856 C840 1.368 . S
C856 C852 1.368 1_556 S
C856 C855 1.523 . S
H857 C832 0.950 . S
H858 C834 0.950 1_556 S
H859 C835 0.949 . S
H860 C837 0.950 . S
H861 C839 0.950 . S
C862 C863 1.349 1_545 S
C862 C864 1.327 . S
C862 H887 0.950 . S
C863 C862 1.349 1_565 S
C863 C879 1.349 . S
C864 C862 1.327 . S
C864 C883 1.429 . S
C864 H888 0.950 . S
C865 C882 1.574 1_554 S
C865 C884 1.368 1_565 S
C865 H889 0.949 . S
H866 C870 0.949 . S
C867 C868 1.349 . S
C867 C869 1.327 . S
C867 H890 0.950 . S
C868 C867 1.349 . S
C868 C880 1.349 . S
C869 C867 1.327 . S
C869 C885 1.429 . S
C869 H891 0.950 1_545 S
C870 H866 0.949 . S
C870 C878 1.574 . S
C870 C886 1.368 . S
H871 C879 0.950 . S
H872 C877 0.950 . S
H873 C878 0.949 . S
H874 C880 0.950 . S
H875 C881 0.950 . S
H876 C882 0.949 . S
C877 H872 0.950 . S
C877 C879 1.327 . S
C877 C883 1.429 1_565 S
C878 C870 1.574 . S
C878 H873 0.949 . S
C878 C884 1.368 1_556 S
C879 C863 1.349 . S
C879 H871 0.950 . S
C879 C877 1.327 . S
C880 C868 1.349 . S
C880 H874 0.950 . S
C880 C881 1.327 . S
C881 H875 0.950 . S
C881 C880 1.327 . S
C881 C885 1.429 . S
C882 C865 1.574 1_556 S
C882 H876 0.949 . S
C882 C886 1.368 1_565 S
C883 C864 1.429 . S
C883 C877 1.429 1_545 S
C883 C884 1.523 . S
C884 C865 1.368 1_545 S
C884 C878 1.368 1_554 S
C884 C883 1.523 . S
C885 C869 1.429 . S
C885 C881 1.429 . S
C885 C886 1.523 . S
C886 C870 1.368 . S
C886 C882 1.368 1_545 S
C886 C885 1.523 . S
H887 C862 0.950 . S
H888 C864 0.950 . S
H889 C865 0.949 . S
H890 C867 0.950 . S
H891 C869 0.950 1_565 S
C892 C893 1.349 . S
C892 C894 1.327 . S
C892 H917 0.950 . S
C893 C892 1.349 . S
C893 C909 1.349 . S
C894 C892 1.327 . S
C894 C913 1.429 . S
C894 H918 0.950 . S
C895 C912 1.574 . S
C895 C914 1.368 1_556 S
C895 H919 0.949 . S
H896 C900 0.951 . S
C897 C898 1.349 . S
C897 C899 1.327 . S
C897 H920 0.950 . S
C898 C897 1.349 . S
C898 C910 1.349 . S
C899 C897 1.327 . S
C899 C915 1.429 . S
C899 H921 0.950 . S
C900 H896 0.951 . S
C900 C908 1.577 . S
C900 C916 1.363 1_554 S
H901 C909 0.950 . S
H902 C907 0.950 1_556 S
H903 C908 0.949 . S
H904 C910 0.950 . S
H905 C911 0.950 . S
H906 C912 0.949 . S
C907 H902 0.950 1_554 S
C907 C909 1.327 . S
C907 C913 1.429 . S
C908 C900 1.577 . S
C908 H903 0.949 . S
C908 C914 1.368 . S
C909 C893 1.349 . S
C909 H901 0.950 . S
C909 C907 1.327 . S
C910 C898 1.349 . S
C910 H904 0.950 . S
C910 C911 1.327 . S
C911 H905 0.950 . S
C911 C910 1.327 . S
C911 C915 1.429 . S
C912 C895 1.574 . S
C912 H906 0.949 . S
C912 C916 1.368 . S
C913 C894 1.429 . S
C913 C907 1.429 . S
C913 C914 1.523 . S
C914 C895 1.368 1_554 S
C914 C908 1.368 . S
C914 C913 1.523 . S
C915 C899 1.429 . S
C915 C911 1.429 . S
C915 C916 1.523 . S
C916 C900 1.363 1_556 S
C916 C912 1.368 . S
C916 C915 1.523 . S
H917 C892 0.950 . S
H918 C894 0.950 . S
H919 C895 0.949 . S
H920 C897 0.950 . S
H921 C899 0.950 . S
C922 C923 1.349 . S
C922 C924 1.327 . S
C922 H947 0.950 . S
C923 C922 1.349 . S
C923 C939 1.349 . S
C924 C922 1.327 . S
C924 C943 1.429 . S
C924 H948 0.950 . S
C925 C942 1.574 1_554 S
C925 C944 1.368 . S
C925 H949 0.949 . S
H926 C930 0.949 . S
C927 C928 1.349 . S
C927 C929 1.327 . S
C927 H950 0.950 . S
C928 C927 1.349 . S
C928 C940 1.349 . S
C929 C927 1.327 . S
C929 C945 1.429 . S
C929 H951 0.950 . S
C930 H926 0.949 . S
C930 C938 1.574 . S
C930 C946 1.368 . S
H931 C939 0.950 . S
H932 C937 0.950 . S
H933 C938 0.949 . S
H934 C940 0.950 . S
H935 C941 0.950 . S
H936 C942 0.949 . S
C937 H932 0.950 . S
C937 C939 1.327 . S
C937 C943 1.429 . S
C938 C930 1.574 . S
C938 H933 0.949 . S
C938 C944 1.368 1_556 S
C939 C923 1.349 . S
C939 H931 0.950 . S
C939 C937 1.327 . S
C940 C928 1.349 . S
C940 H934 0.950 . S
C940 C941 1.327 . S
C941 H935 0.950 . S
C941 C940 1.327 . S
C941 C945 1.429 . S
C942 C925 1.574 1_556 S
C942 H936 0.949 . S
C942 C946 1.368 . S
C943 C924 1.429 . S
C943 C937 1.429 . S
C943 C944 1.523 . S
C944 C925 1.368 . S
C944 C938 1.368 1_554 S
C944 C943 1.523 . S
C945 C929 1.429 . S
C945 C941 1.429 . S
C945 C946 1.523 . S
C946 C930 1.368 . S
C946 C942 1.368 . S
C946 C945 1.523 . S
H947 C922 0.950 . S
H948 C924 0.950 . S
H949 C925 0.949 . S
H950 C927 0.950 . S
H951 C929 0.950 . S
C952 C953 1.349 . S
C952 C954 1.327 . S
C952 H977 0.950 . S
C953 C952 1.349 . S
C953 C969 1.349 1_455 S
C954 C952 1.327 . S
C954 C973 1.429 . S
C954 H978 0.950 . S
C955 C972 1.574 . S
C955 C974 1.368 1_655 S
C955 H979 0.949 . S
H956 C960 0.949 . S
C957 C958 1.322 1_655 S
C957 C959 1.332 . S
C957 H980 0.976 . S
C958 C957 1.322 1_455 S
C958 C970 1.349 . S
C959 C957 1.332 . S
C959 C975 1.429 1_655 S
C959 H981 0.950 . S
C960 H956 0.949 . S
C960 C968 1.574 . S
C960 C976 1.368 . S
H961 C969 0.950 . S
H962 C967 0.950 . S
H963 C968 0.949 . S
H964 C970 0.950 . S
H965 C971 0.950 . S
H966 C972 0.949 . S
C967 H962 0.950 . S
C967 C969 1.327 . S
C967 C973 1.429 1_655 S
C968 C960 1.574 . S
C968 H963 0.949 . S
C968 C974 1.368 . S
C969 C953 1.349 1_655 S
C969 H961 0.950 . S
C969 C967 1.327 . S
C970 C958 1.349 . S
C970 H964 0.950 . S
C970 C971 1.327 . S
C971 H965 0.950 . S
C971 C970 1.327 . S
C971 C975 1.429 . S
C972 C955 1.574 . S
C972 H966 0.949 . S
C972 C976 1.368 1_655 S
C973 C954 1.429 . S
C973 C967 1.429 1_455 S
C973 C974 1.523 . S
C974 C955 1.368 1_455 S
C974 C968 1.368 . S
C974 C973 1.523 . S
C975 C959 1.429 1_455 S
C975 C971 1.429 . S
C975 C976 1.523 . S
C976 C960 1.368 . S
C976 C972 1.368 1_455 S
C976 C975 1.523 . S
H977 C952 0.950 . S
H978 C954 0.950 . S
H979 C955 0.949 . S
H980 C957 0.976 . S
H981 C959 0.950 . S
C982 C983 1.349 . S
C982 C984 1.327 . S
C982 H1007 0.950 . S
C983 C982 1.349 . S
C983 C999 1.349 . S
C984 C982 1.327 . S
C984 C1003 1.429 . S
C984 H1008 0.950 . S
C985 C1002 1.574 . S
C985 C1004 1.368 . S
C985 H1009 0.955 . S
H986 C990 0.949 . S
C987 C988 1.349 . S
C987 C989 1.327 . S
C987 H1010 0.950 . S
C988 C987 1.349 . S
C988 C1000 1.349 . S
C989 C987 1.327 . S
C989 C1005 1.429 . S
C989 H1011 0.975 . S
C990 H986 0.949 . S
C990 C998 1.574 . S
C990 C1006 1.368 . S
H991 C999 0.956 . S
H992 C997 0.952 . S
H993 C998 0.949 . S
H994 C1000 0.950 . S
H995 C1001 0.950 . S
H996 C1002 0.964 . S
C997 H992 0.952 . S
C997 C999 1.327 . S
C997 C1003 1.429 . S
C998 C990 1.574 . S
C998 H993 0.949 . S
C998 C1004 1.368 . S
C999 C983 1.349 . S
C999 H991 0.956 . S
C999 C997 1.327 . S
C1000 C988 1.349 . S
C1000 H994 0.950 . S
C1000 C1001 1.327 . S
C1001 H995 0.950 . S
C1001 C1000 1.327 . S
C1001 C1005 1.429 . S
C1002 C985 1.574 . S
C1002 H996 0.964 . S
C1002 C1006 1.368 . S
C1003 C984 1.429 . S
C1003 C997 1.429 . S
C1003 C1004 1.523 . S
C1004 C985 1.368 . S
C1004 C998 1.368 . S
C1004 C1003 1.523 . S
C1005 C989 1.429 . S
C1005 C1001 1.429 . S
C1005 C1006 1.523 . S
C1006 C990 1.368 . S
C1006 C1002 1.368 . S
C1006 C1005 1.523 . S
H1007 C982 0.950 . S
H1008 C984 0.950 . S
H1009 C985 0.955 . S
H1010 C987 0.950 . S
H1011 C989 0.975 . S
C1012 C1013 1.349 . S
C1012 C1014 1.327 . S
C1012 H1037 0.950 . S
C1013 C1012 1.349 . S
C1013 C1029 1.349 . S
C1014 C1012 1.327 . S
C1014 C1033 1.429 . S
C1014 H1038 0.950 . S
C1015 C1032 1.574 . S
C1015 C1034 1.368 . S
C1015 H1039 0.949 . S
H1016 C1020 0.949 . S
C1017 C1018 1.349 . S
C1017 C1019 1.327 . S
C1017 H1040 0.950 . S
C1018 C1017 1.349 . S
C1018 C1030 1.349 . S
C1019 C1017 1.327 . S
C1019 C1035 1.429 . S
C1019 H1041 0.950 . S
C1020 H1016 0.949 . S
C1020 C1028 1.574 . S
C1020 C1036 1.368 . S
H1021 C1029 0.950 . S
H1022 C1027 0.950 . S
H1023 C1028 0.949 . S
H1024 C1030 0.950 . S
H1025 C1031 0.950 . S
H1026 C1032 0.949 . S
C1027 H1022 0.950 . S
C1027 C1029 1.327 . S
C1027 C1033 1.429 . S
C1028 C1020 1.574 . S
C1028 H1023 0.949 . S
C1028 C1034 1.368 . S
C1029 C1013 1.349 . S
C1029 H1021 0.950 . S
C1029 C1027 1.327 . S
C1030 C1018 1.349 . S
C1030 H1024 0.950 . S
C1030 C1031 1.327 . S
C1031 H1025 0.950 . S
C1031 C1030 1.327 . S
C1031 C1035 1.429 . S
C1032 C1015 1.574 . S
C1032 H1026 0.949 . S
C1032 C1036 1.368 . S
C1033 C1014 1.429 . S
C1033 C1027 1.429 . S
C1033 C1034 1.523 . S
C1034 C1015 1.368 . S
C1034 C1028 1.368 . S
C1034 C1033 1.523 . S
C1035 C1019 1.429 . S
C1035 C1031 1.429 . S
C1035 C1036 1.523 . S
C1036 C1020 1.368 . S
C1036 C1032 1.368 . S
C1036 C1035 1.523 . S
H1037 C1012 0.950 . S
H1038 C1014 0.950 . S
H1039 C1015 0.949 . S
H1040 C1017 0.950 . S
H1041 C1019 0.950 . S
C1042 C1043 1.349 . S
C1042 C1044 1.327 . S
C1042 H1067 0.950 . S
C1043 C1042 1.349 . S
C1043 C1059 1.349 . S
C1044 C1042 1.327 . S
C1044 C1063 1.429 . S
C1044 H1068 0.950 . S
C1045 C1062 1.574 . S
C1045 C1064 1.368 . S
C1045 H1069 0.949 . S
H1046 C1050 0.949 . S
C1047 C1048 1.349 . S
C1047 C1049 1.327 . S
C1047 H1070 0.950 . S
C1048 C1047 1.349 . S
C1048 C1060 1.349 . S
C1049 C1047 1.327 . S
C1049 C1065 1.429 . S
C1049 H1071 0.950 . S
C1050 H1046 0.949 . S
C1050 C1058 1.574 . S
C1050 C1066 1.368 . S
H1051 C1059 0.950 . S
H1052 C1057 0.950 . S
H1053 C1058 0.949 . S
H1054 C1060 0.950 . S
H1055 C1061 0.950 . S
H1056 C1062 0.949 . S
C1057 H1052 0.950 . S
C1057 C1059 1.327 . S
C1057 C1063 1.429 . S
C1058 C1050 1.574 . S
C1058 H1053 0.949 . S
C1058 C1064 1.368 . S
C1059 C1043 1.349 . S
C1059 H1051 0.950 . S
C1059 C1057 1.327 . S
C1060 C1048 1.349 . S
C1060 H1054 0.950 . S
C1060 C1061 1.327 . S
C1061 H1055 0.950 . S
C1061 C1060 1.327 . S
C1061 C1065 1.429 . S
C1062 C1045 1.574 . S
C1062 H1056 0.949 . S
C1062 C1066 1.368 . S
C1063 C1044 1.429 . S
C1063 C1057 1.429 . S
C1063 C1064 1.523 . S
C1064 C1045 1.368 . S
C1064 C1058 1.368 . S
C1064 C1063 1.523 . S
C1065 C1049 1.429 . S
C1065 C1061 1.429 . S
C1065 C1066 1.523 . S
C1066 C1050 1.368 . S
C1066 C1062 1.368 . S
C1066 C1065 1.523 . S
H1067 C1042 0.950 . S
H1068 C1044 0.950 . S
H1069 C1045 0.949 . S
H1070 C1047 0.950 . S
H1071 C1049 0.950 . S
C1072 C1073 1.349 . S
C1072 C1074 1.327 . S
C1072 H1097 0.950 . S
C1073 C1072 1.349 . S
C1073 C1089 1.349 1_655 S
C1074 C1072 1.327 . S
C1074 C1093 1.429 . S
C1074 H1098 0.950 . S
C1075 C1092 1.574 . S
C1075 C1094 1.368 1_455 S
C1075 H1099 0.949 . S
H1076 C1080 0.949 . S
C1077 C1078 1.349 1_455 S
C1077 C1079 1.327 . S
C1077 H1100 0.950 . S
C1078 C1077 1.349 1_655 S
C1078 C1090 1.349 . S
C1079 C1077 1.327 . S
C1079 C1095 1.429 1_455 S
C1079 H1101 0.950 . S
C1080 H1076 0.949 . S
C1080 C1088 1.574 . S
C1080 C1096 1.368 . S
H1081 C1089 0.950 . S
H1082 C1087 0.950 . S
H1083 C1088 0.949 . S
H1084 C1090 0.950 . S
H1085 C1091 0.950 . S
H1086 C1092 0.949 . S
C1087 H1082 0.950 . S
C1087 C1089 1.327 . S
C1087 C1093 1.429 1_455 S
C1088 C1080 1.574 . S
C1088 H1083 0.949 . S
C1088 C1094 1.368 . S
C1089 C1073 1.349 1_455 S
C1089 H1081 0.950 . S
C1089 C1087 1.327 . S
C1090 C1078 1.349 . S
C1090 H1084 0.950 . S
C1090 C1091 1.327 . S
C1091 H1085 0.950 . S
C1091 C1090 1.327 . S
C1091 C1095 1.429 . S
C1092 C1075 1.574 . S
C1092 H1086 0.949 . S
C1092 C1096 1.368 1_455 S
C1093 C1074 1.429 . S
C1093 C1087 1.429 1_655 S
C1093 C1094 1.523 . S
C1094 C1075 1.368 1_655 S
C1094 C1088 1.368 . S
C1094 C1093 1.523 . S
C1095 C1079 1.429 1_655 S
C1095 C1091 1.429 . S
C1095 C1096 1.523 . S
C1096 C1080 1.368 . S
C1096 C1092 1.368 1_655 S
C1096 C1095 1.523 . S
H1097 C1072 0.950 . S
H1098 C1074 0.950 . S
H1099 C1075 0.949 . S
H1100 C1077 0.950 . S
H1101 C1079 0.950 . S
C1102 C1103 1.349 . S
C1102 C1104 1.327 . S
C1102 H1127 0.950 . S
C1103 C1102 1.349 . S
C1103 C1119 1.349 1_565 S
C1104 C1102 1.327 . S
C1104 C1123 1.429 . S
C1104 H1128 0.950 . S
C1105 C1122 1.574 . S
C1105 C1124 1.368 1_545 S
C1105 H1129 0.949 . S
H1106 C1110 0.949 . S
C1107 C1108 1.349 1_545 S
C1107 C1109 1.327 . S
C1107 H1130 0.950 . S
C1108 C1107 1.349 1_565 S
C1108 C1120 1.349 . S
C1109 C1107 1.327 . S
C1109 C1125 1.429 1_545 S
C1109 H1131 0.950 . S
C1110 H1106 0.949 . S
C1110 C1118 1.574 . S
C1110 C1126 1.368 . S
H1111 C1119 0.950 . S
H1112 C1117 0.950 . S
H1113 C1118 0.949 . S
H1114 C1120 0.950 . S
H1115 C1121 0.950 . S
H1116 C1122 0.949 . S
C1117 H1112 0.950 . S
C1117 C1119 1.327 . S
C1117 C1123 1.429 1_545 S
C1118 C1110 1.574 . S
C1118 H1113 0.949 . S
C1118 C1124 1.368 . S
C1119 C1103 1.349 1_545 S
C1119 H1111 0.950 . S
C1119 C1117 1.327 . S
C1120 C1108 1.349 . S
C1120 H1114 0.950 . S
C1120 C1121 1.327 . S
C1121 H1115 0.950 . S
C1121 C1120 1.327 . S
C1121 C1125 1.429 . S
C1122 C1105 1.574 . S
C1122 H1116 0.949 . S
C1122 C1126 1.368 1_545 S
C1123 C1104 1.429 . S
C1123 C1117 1.429 1_565 S
C1123 C1124 1.523 . S
C1124 C1105 1.368 1_565 S
C1124 C1118 1.368 . S
C1124 C1123 1.523 . S
C1125 C1109 1.429 1_565 S
C1125 C1121 1.429 . S
C1125 C1126 1.523 . S
C1126 C1110 1.368 . S
C1126 C1122 1.368 1_565 S
C1126 C1125 1.523 . S
H1127 C1102 0.950 . S
H1128 C1104 0.950 . S
H1129 C1105 0.949 . S
H1130 C1107 0.950 . S
H1131 C1109 0.950 . S
C1132 C1133 1.349 . S
C1132 C1134 1.327 . S
C1132 H1157 0.950 . S
C1133 C1132 1.349 . S
C1133 C1149 1.349 . S
C1134 C1132 1.327 . S
C1134 C1153 1.429 . S
C1134 H1158 0.950 . S
C1135 C1152 1.574 . S
C1135 C1154 1.368 . S
C1135 H1159 0.949 . S
H1136 C1140 0.949 . S
C1137 C1138 1.349 . S
C1137 C1139 1.327 . S
C1137 H1160 0.950 . S
C1138 C1137 1.349 . S
C1138 C1150 1.349 . S
C1139 C1137 1.327 . S
C1139 C1155 1.429 . S
C1139 H1161 0.950 . S
C1140 H1136 0.949 . S
C1140 C1148 1.574 . S
C1140 C1156 1.368 . S
H1141 C1149 0.950 . S
H1142 C1147 0.950 . S
H1143 C1148 0.949 . S
H1144 C1150 0.950 . S
H1145 C1151 0.950 . S
H1146 C1152 0.949 . S
C1147 H1142 0.950 . S
C1147 C1149 1.327 . S
C1147 C1153 1.429 . S
C1148 C1140 1.574 . S
C1148 H1143 0.949 . S
C1148 C1154 1.368 . S
C1149 C1133 1.349 . S
C1149 H1141 0.950 . S
C1149 C1147 1.327 . S
C1150 C1138 1.349 . S
C1150 H1144 0.950 . S
C1150 C1151 1.327 . S
C1151 H1145 0.950 . S
C1151 C1150 1.327 . S
C1151 C1155 1.429 . S
C1152 C1135 1.574 . S
C1152 H1146 0.949 . S
C1152 C1156 1.368 . S
C1153 C1134 1.429 . S
C1153 C1147 1.429 . S
C1153 C1154 1.523 . S
C1154 C1135 1.368 . S
C1154 C1148 1.368 . S
C1154 C1153 1.523 . S
C1155 C1139 1.429 . S
C1155 C1151 1.429 . S
C1155 C1156 1.523 . S
C1156 C1140 1.368 . S
C1156 C1152 1.368 . S
C1156 C1155 1.523 . S
H1157 C1132 0.950 . S
H1158 C1134 0.950 . S
H1159 C1135 0.949 . S
H1160 C1137 0.950 . S
H1161 C1139 0.950 . S
C1162 C1163 1.349 . S
C1162 C1164 1.327 . S
C1162 H1187 0.950 . S
C1163 C1162 1.349 . S
C1163 C1179 1.349 . S
C1164 C1162 1.327 . S
C1164 C1183 1.429 . S
C1164 H1188 0.950 . S
C1165 C1182 1.574 . S
C1165 C1184 1.368 . S
C1165 H1189 0.949 . S
H1166 C1170 0.949 . S
C1167 C1168 1.349 . S
C1167 C1169 1.327 . S
C1167 H1190 0.950 . S
C1168 C1167 1.349 . S
C1168 C1180 1.349 . S
C1169 C1167 1.327 . S
C1169 C1185 1.429 . S
C1169 H1191 0.950 . S
C1170 H1166 0.949 . S
C1170 C1178 1.574 . S
C1170 C1186 1.368 . S
H1171 C1179 0.950 . S
H1172 C1177 0.950 . S
H1173 C1178 0.949 . S
H1174 C1180 0.950 . S
H1175 C1181 0.950 . S
H1176 C1182 0.949 . S
C1177 H1172 0.950 . S
C1177 C1179 1.327 . S
C1177 C1183 1.429 . S
C1178 C1170 1.574 . S
C1178 H1173 0.949 . S
C1178 C1184 1.368 . S
C1179 C1163 1.349 . S
C1179 H1171 0.950 . S
C1179 C1177 1.327 . S
C1180 C1168 1.349 . S
C1180 H1174 0.950 . S
C1180 C1181 1.327 . S
C1181 H1175 0.950 . S
C1181 C1180 1.327 . S
C1181 C1185 1.429 . S
C1182 C1165 1.574 . S
C1182 H1176 0.949 . S
C1182 C1186 1.368 . S
C1183 C1164 1.429 . S
C1183 C1177 1.429 . S
C1183 C1184 1.523 . S
C1184 C1165 1.368 . S
C1184 C1178 1.368 . S
C1184 C1183 1.523 . S
C1185 C1169 1.429 . S
C1185 C1181 1.429 . S
C1185 C1186 1.523 . S
C1186 C1170 1.368 . S
C1186 C1182 1.368 . S
C1186 C1185 1.523 . S
H1187 C1162 0.950 . S
H1188 C1164 0.950 . S
H1189 C1165 0.949 . S
H1190 C1167 0.950 . S
H1191 C1169 0.950 . S
C473 C255 1.912 . S
C478 C322 2.022 . S
C508 C362 2.030 . S
C503 C294 1.898 . S
C538 C402 2.026 . S
C533 C177 1.913 . S
C568 C442 2.024 1_455 S
C563 C216 1.916 1_455 S
C598 C331 2.032 . S
C593 C99 1.918 . S
C623 C138 1.898 . S
C628 C371 2.030 . S
C653 C21 1.915 . S
C658 C411 2.026 . S
C683 C60 1.916 . S
C688 C451 2.025 1_655 S
C718 C328 0.265 . S
C713 C196 0.271 1_455 S
C748 C368 0.277 . S
C743 C235 0.289 . S
C778 C408 0.262 . S
C773 C289 0.269 . S
C803 C157 0.288 . S
C808 C448 0.275 . S
C833 C40 0.264 . S
C838 C319 0.252 . S
C868 C359 0.277 . S
C863 C79 0.274 . S
C898 C399 0.262 . S
C893 C133 0.261 . S
C923 C1 0.273 . S
C928 C439 0.281 . S
C953 C211 2.533 . S
C958 C323 2.846 . S
C983 C250 2.521 . S
C988 C363 2.834 . S
C1018 C403 2.840 . S
C1013 C274 2.533 . S
C1048 C443 2.842 . S
C1043 C172 2.521 . S
C1073 C55 2.534 1_655 S
C1078 C314 2.847 . S
C1108 C354 2.834 . S
C1103 C94 2.520 . S
C1138 C394 2.840 . S
C1133 C118 2.534 . S
C1163 C16 2.529 . S
C1168 C434 2.850 . S
