# Generated by pormake.
# Topology pyr, (3,6)-cn, num edge types: 1
# Building blocks:
#     Node 0, Type 0, BuildingBlock: QEWDON_clean_linker_0, # of connection points: 3
#     Node 1, Type 0, BuildingBlock: QEWDON_clean_linker_0, # of connection points: 3
#     Node 2, Type 0, BuildingBlock: QEWDON_clean_linker_0, # of connection points: 3
#     Node 3, Type 0, BuildingBlock: QEWDON_clean_linker_0, # of connection points: 3
#     Node 4, Type 0, BuildingBlock: QEWDON_clean_linker_0, # of connection points: 3
#     Node 5, Type 0, BuildingBlock: QEWDON_clean_linker_0, # of connection points: 3
#     Node 6, Type 0, BuildingBlock: QEWDON_clean_linker_0, # of connection points: 3
#     Node 7, Type 0, BuildingBlock: QEWDON_clean_linker_0, # of connection points: 3
#     Node 8, Type 1, BuildingBlock: VOLQOD_clean_sbu_1, # of connection points: 6
#     Node 9, Type 1, BuildingBlock: VOLQOD_clean_sbu_1, # of connection points: 6
#     Node 10, Type 1, BuildingBlock: VOLQOD_clean_sbu_1, # of connection points: 6
#     Node 11, Type 1, BuildingBlock: VOLQOD_clean_sbu_1, # of connection points: 6
#     Edge 12, Type (0, 1), BuildingBlock: ZUJKAS_clean_linker_0, # of connection points: 2
#     Edge 13, Type (0, 1), BuildingBlock: ZUJKAS_clean_linker_0, # of connection points: 2
#     Edge 14, Type (0, 1), BuildingBlock: ZUJKAS_clean_linker_0, # of connection points: 2
#     Edge 15, Type (0, 1), BuildingBlock: ZUJKAS_clean_linker_0, # of connection points: 2
#     Edge 16, Type (0, 1), BuildingBlock: ZUJKAS_clean_linker_0, # of connection points: 2
#     Edge 17, Type (0, 1), BuildingBlock: ZUJKAS_clean_linker_0, # of connection points: 2
#     Edge 18, Type (0, 1), BuildingBlock: ZUJKAS_clean_linker_0, # of connection points: 2
#     Edge 19, Type (0, 1), BuildingBlock: ZUJKAS_clean_linker_0, # of connection points: 2
#     Edge 20, Type (0, 1), BuildingBlock: ZUJKAS_clean_linker_0, # of connection points: 2
#     Edge 21, Type (0, 1), BuildingBlock: ZUJKAS_clean_linker_0, # of connection points: 2
#     Edge 22, Type (0, 1), BuildingBlock: ZUJKAS_clean_linker_0, # of connection points: 2
#     Edge 23, Type (0, 1), BuildingBlock: ZUJKAS_clean_linker_0, # of connection points: 2
#     Edge 24, Type (0, 1), BuildingBlock: ZUJKAS_clean_linker_0, # of connection points: 2
#     Edge 25, Type (0, 1), BuildingBlock: ZUJKAS_clean_linker_0, # of connection points: 2
#     Edge 26, Type (0, 1), BuildingBlock: ZUJKAS_clean_linker_0, # of connection points: 2
#     Edge 27, Type (0, 1), BuildingBlock: ZUJKAS_clean_linker_0, # of connection points: 2
#     Edge 28, Type (0, 1), BuildingBlock: ZUJKAS_clean_linker_0, # of connection points: 2
#     Edge 29, Type (0, 1), BuildingBlock: ZUJKAS_clean_linker_0, # of connection points: 2
#     Edge 30, Type (0, 1), BuildingBlock: ZUJKAS_clean_linker_0, # of connection points: 2
#     Edge 31, Type (0, 1), BuildingBlock: ZUJKAS_clean_linker_0, # of connection points: 2
#     Edge 32, Type (0, 1), BuildingBlock: ZUJKAS_clean_linker_0, # of connection points: 2
#     Edge 33, Type (0, 1), BuildingBlock: ZUJKAS_clean_linker_0, # of connection points: 2
#     Edge 34, Type (0, 1), BuildingBlock: ZUJKAS_clean_linker_0, # of connection points: 2
#     Edge 35, Type (0, 1), BuildingBlock: ZUJKAS_clean_linker_0, # of connection points: 2
# Relax obj value: 0.163
# Max RMSD: 0.275
# Mean RMSD: 0.205
data_MOF--net-pry--node1-VOLQOD_clean_sbu_1--node2-QEWDON_clean_linker_0--edge1-ZUJKAS_clean_linker_0
_symmetry_space_group_name_H-M    P1
_symmetry_Int_Tables_number       1
_symmetry_cell_setting            triclinic
loop_
_symmetry_equiv_pos_as_xyz
'x, y, z'
_cell_length_a     47.211586
_cell_length_b     47.679794
_cell_length_c     50.844688
_cell_angle_alpha  90.162998
_cell_angle_beta   90.555002
_cell_angle_gamma 99.574676
loop_
_atom_site_label
_atom_site_type_symbol
_atom_site_fract_x
_atom_site_fract_y
_atom_site_fract_z
_atom_type_partial_charge
H0 H 0.20738 0.24778 0.16181 0.0
C1 C 0.19527 0.23462 0.17655 0.0
C2 C 0.19926 0.20616 0.18001 0.0
C3 C 0.17674 0.24662 0.19305 0.0
H4 H 0.18781 0.16843 0.20363 0.0
C5 C 0.18388 0.18982 0.19989 0.0
C6 C 0.1651 0.20149 0.21637 0.0
C7 C 0.16151 0.22983 0.21255 0.0
C8 C 0.17605 0.27758 0.19286 0.0
H9 H 0.14729 0.23923 0.22526 0.0
C10 C 0.16619 0.29131 0.17087 0.0
C11 C 0.16408 0.32055 0.17218 0.0
C12 C 0.18438 0.29331 0.21584 0.0
H13 H 0.19209 0.28318 0.23292 0.0
C14 C 0.18261 0.3221 0.21717 0.0
H15 H 0.15982 0.27918 0.15311 0.0
C16 C 0.17234 0.33558 0.1957 0.0
H17 H 0.1703 0.35775 0.19783 0.0
H18 H 0.18882 0.33395 0.23509 0.0
H19 H 0.33996 0.91013 0.75666 0.0
C20 C 0.35332 0.89607 0.74825 0.0
C21 C 0.38071 0.89493 0.75908 0.0
C22 C 0.34234 0.87806 0.72744 0.0
H23 H 0.41824 0.87444 0.7563 0.0
C24 C 0.39749 0.87622 0.74777 0.0
C25 C 0.38675 0.85821 0.72669 0.0
C26 C 0.3591 0.85934 0.71673 0.0
C27 C 0.3119 0.87565 0.71936 0.0
H28 H 0.35029 0.84526 0.70081 0.0
C29 C 0.30175 0.89738 0.7052 0.0
C30 C 0.27255 0.89426 0.69764 0.0
C31 C 0.29281 0.85093 0.72593 0.0
H32 H 0.3003 0.83401 0.73679 0.0
C33 C 0.26393 0.84787 0.71871 0.0
H34 H 0.3165 0.91644 0.70003 0.0
C35 C 0.25382 0.86932 0.70466 0.0
H36 H 0.23139 0.8661 0.69881 0.0
H37 H 0.24935 0.82872 0.72385 0.0
H38 H 0.62601 0.50606 0.96958 0.0
C39 C 0.61933 0.48425 0.97579 0.0
C40 C 0.63993 0.46769 0.98359 0.0
C41 C 0.58998 0.47276 0.97609 0.0
H42 H 0.64665 0.42592 0.99554 0.0
C43 C 0.63079 0.43925 0.99094 0.0
C44 C 0.6015 0.4274 0.99092 0.0
C45 C 0.5812 0.44456 0.98399 0.0
C46 C 0.56835 0.48888 0.96557 0.0
H47 H 0.5585 0.43571 0.98382 0.0
C48 C 0.56895 0.49625 0.93889 0.0
C49 C 0.54589 0.50706 0.92713 0.0
C50 C 0.54527 0.4938 0.98108 0.0
H51 H 0.54434 0.48793 1.00167 0.0
C52 C 0.52297 0.50581 0.96995 0.0
H53 H 0.58695 0.49238 0.92715 0.0
C54 C 0.52303 0.51209 0.94312 0.0
H55 H 0.50467 0.51997 0.93484 0.0
H56 H 0.50512 0.50943 0.98197 0.0
H57 H 0.88094 0.67435 0.37913 0.0
C58 C 0.87332 0.6654 0.39782 0.0
C59 C 0.87679 0.68293 0.42028 0.0
C60 C 0.85818 0.63731 0.39911 0.0
H61 H 0.86714 0.68569 0.46152 0.0
C62 C 0.86505 0.67221 0.44416 0.0
C63 C 0.84919 0.64479 0.4457 0.0
C64 C 0.84689 0.62703 0.4235 0.0
C65 C 0.85159 0.61979 0.37468 0.0
H66 H 0.83477 0.60574 0.42501 0.0
C67 C 0.8707 0.62258 0.35331 0.0
C68 C 0.86344 0.60738 0.32972 0.0
C69 C 0.82524 0.60105 0.37207 0.0
H70 H 0.80936 0.59895 0.38744 0.0
C71 C 0.81847 0.58521 0.34913 0.0
H72 H 0.89096 0.63699 0.35473 0.0
C73 C 0.83736 0.5883 0.3281 0.0
H74 H 0.83145 0.57581 0.31047 0.0
H75 H 0.79824 0.57079 0.3475 0.0
H76 H 0.85123 0.89816 0.90575 0.0
C77 C 0.86129 0.90532 0.88737 0.0
C78 C 0.88797 0.8979 0.88038 0.0
C79 C 0.84647 0.92059 0.86998 0.0
H80 H 0.91989 0.90099 0.84971 0.0
C81 C 0.90011 0.90746 0.85603 0.0
C82 C 0.88584 0.92369 0.83881 0.0
C83 C 0.85908 0.93019 0.84615 0.0
C84 C 0.81597 0.92261 0.87439 0.0
H85 H 0.84748 0.94223 0.83302 0.0
C86 C 0.80729 0.93836 0.89544 0.0
C87 C 0.77805 0.9407 0.89821 0.0
C88 C 0.79529 0.90867 0.85665 0.0
H89 H 0.80159 0.89634 0.84043 0.0
C90 C 0.76636 0.91028 0.85976 0.0
H91 H 0.82326 0.94944 0.90894 0.0
C92 C 0.75775 0.92617 0.88033 0.0
H93 H 0.73507 0.92697 0.88231 0.0
H94 H 0.75055 0.89927 0.84612 0.0
H95 H 0.66842 0.16608 0.4714 0.0
C96 C 0.66133 0.16541 0.45103 0.0
C97 C 0.67787 0.15502 0.43155 0.0
C98 C 0.63497 0.1739 0.4447 0.0
H99 H 0.67997 0.14527 0.3902 0.0
C100 C 0.66741 0.15303 0.40551 0.0
C101 C 0.64079 0.16083 0.39889 0.0
C102 C 0.62494 0.17191 0.41855 0.0
C103 C 0.6165 0.18135 0.46611 0.0
H104 H 0.60407 0.17734 0.41386 0.0
C105 C 0.60955 0.20887 0.46855 0.0
C106 C 0.59342 0.21577 0.49019 0.0
C107 C 0.60655 0.16064 0.48491 0.0
H108 H 0.61163 0.13936 0.48332 0.0
C109 C 0.58994 0.16713 0.50586 0.0
H110 H 0.61761 0.22504 0.4543 0.0
C111 C 0.5835 0.19447 0.50858 0.0
H112 H 0.57065 0.19897 0.52513 0.0
H113 H 0.58223 0.15097 0.52019 0.0
H114 H 0.44162 0.68189 0.19685 0.0
C115 C 0.42093 0.67712 0.18695 0.0
C116 C 0.40765 0.69936 0.1775 0.0
C117 C 0.40748 0.6487 0.18367 0.0
H118 H 0.37092 0.71016 0.15693 0.0
C119 C 0.38085 0.69301 0.16485 0.0
C120 C 0.36722 0.66481 0.16135 0.0
C121 C 0.3808 0.64266 0.17057 0.0
C122 C 0.42055 0.62533 0.19503 0.0
H123 H 0.37019 0.62078 0.16838 0.0
C124 C 0.4279 0.62585 0.22186 0.0
C125 C 0.43873 0.60301 0.23342 0.0
C126 C 0.42459 0.60194 0.17954 0.0
H127 H 0.41899 0.60111 0.1588 0.0
C128 C 0.43604 0.5795 0.19072 0.0
H129 H 0.42465 0.64389 0.23382 0.0
C130 C 0.44302 0.57993 0.21751 0.0
H131 H 0.4511 0.5619 0.22587 0.0
H132 H 0.43916 0.56153 0.17867 0.0
H133 H 0.12358 0.45792 0.65754 0.0
C134 C 0.11355 0.44356 0.64231 0.0
C135 C 0.12979 0.43732 0.62066 0.0
C136 C 0.08524 0.42935 0.64552 0.0
H137 H 0.13036 0.41075 0.58641 0.0
C138 C 0.1174 0.41661 0.60231 0.0
C139 C 0.0892 0.40215 0.60534 0.0
C140 C 0.07284 0.41002 0.62614 0.0
C141 C 0.07001 0.43095 0.67075 0.0
H142 H 0.05078 0.39961 0.62832 0.0
C143 C 0.07025 0.45698 0.68396 0.0
C144 C 0.0565 0.45768 0.70838 0.0
C145 C 0.056 0.40566 0.68231 0.0
H146 H 0.05607 0.3852 0.67301 0.0
C147 C 0.0424 0.40626 0.70638 0.0
H148 H 0.08083 0.47655 0.67512 0.0
C149 C 0.04272 0.43198 0.71941 0.0
H150 H 0.0327 0.43158 0.7385 0.0
H151 H 0.03195 0.38664 0.71517 0.0
O152 O 0.01388 0.09917 0.5434 0.0
Zn153 Zn 0.99238 0.05954 0.53748 0.0
O154 O 0.01448 0.03837 0.51451 0.0
Zn155 Zn 0.99464 0.03149 0.48051 0.0
Zn156 Zn 0.05306 0.05987 0.50874 0.0
Zn157 Zn 0.01808 0.00249 0.53133 0.0
O158 O 0.98693 0.98957 0.47237 0.0
O159 O 0.00211 0.96935 0.50803 0.0
O160 O 0.95486 0.0645 0.52018 0.0
O161 O 0.95665 0.04614 0.48018 0.0
O162 O 0.0191 0.0502 0.451 0.0
O163 O 0.06164 0.06442 0.46995 0.0
O164 O 0.08411 0.04183 0.52696 0.0
O165 O 0.98343 0.03982 0.5725 0.0
O166 O 0.05939 0.00046 0.53961 0.0
O167 O 0.99821 0.99849 0.56634 0.0
C168 C 0.03803 0.11226 0.53552 0.0
C169 C 0.99087 0.96753 0.48507 0.0
C170 C 0.04555 0.06119 0.44952 0.0
C171 C 0.94376 0.05864 0.49747 0.0
C172 C 0.08305 0.01757 0.53776 0.0
C173 C 0.98643 0.01519 0.58063 0.0
O174 O 0.05492 0.09971 0.52219 0.0
O175 O 0.50431 0.11513 0.03744 0.0
Zn176 Zn 0.48261 0.07652 0.04723 0.0
O177 O 0.50566 0.05775 0.07194 0.0
Zn178 Zn 0.51265 0.02255 0.0559 0.0
Zn179 Zn 0.54297 0.08174 0.07933 0.0
Zn180 Zn 0.48472 0.04944 0.10502 0.0
O181 O 0.49982 0.9896 0.07954 0.0
O182 O 0.47779 0.00716 0.11265 0.0
O183 O 0.47214 0.05318 0.01373 0.0
O184 O 0.49245 0.01515 0.02098 0.0
O185 O 0.55445 0.02333 0.04922 0.0
O186 O 0.57665 0.06405 0.06621 0.0
O187 O 0.54848 0.09017 0.11823 0.0
O188 O 0.44606 0.08374 0.06451 0.0
O189 O 0.50788 0.06842 0.13584 0.0
O190 O 0.44692 0.06442 0.10416 0.0
C191 C 0.52825 0.12944 0.04502 0.0
C192 C 0.48609 0.98628 0.10102 0.0
C193 C 0.57741 0.04062 0.05431 0.0
C194 C 0.47765 0.02905 0.00644 0.0
C195 C 0.53265 0.08367 0.1382 0.0
C196 C 0.43475 0.07791 0.08693 0.0
O197 O 0.54459 0.11921 0.06117 0.0
O198 O 0.53505 0.56323 0.63797 0.0
Zn199 Zn 0.53502 0.58344 0.60349 0.0
O200 O 0.50873 0.5604 0.57851 0.0
Zn201 Zn 0.53019 0.55175 0.54804 0.0
Zn202 Zn 0.491 0.52439 0.59481 0.0
Zn203 Zn 0.47915 0.58212 0.56686 0.0
O204 O 0.5148 0.56584 0.51479 0.0
O205 O 0.47993 0.58861 0.52748 0.0
O206 O 0.57612 0.5905 0.59058 0.0
O207 O 0.57122 0.56987 0.5512 0.0
O208 O 0.52978 0.50984 0.54401 0.0
O209 O 0.50278 0.48985 0.57656 0.0
O210 O 0.44772 0.52066 0.59396 0.0
O211 O 0.52194 0.62115 0.61118 0.0
O212 O 0.43997 0.5609 0.57547 0.0
O213 O 0.48333 0.61997 0.58566 0.0
C214 C 0.52085 0.5404 0.64717 0.0
C215 C 0.49522 0.58035 0.50943 0.0
C216 C 0.51838 0.4878 0.5565 0.0
C217 C 0.58671 0.58392 0.56892 0.0
C218 C 0.43063 0.537 0.58602 0.0
C219 C 0.50097 0.6325 0.60277 0.0
O220 O 0.50276 0.52385 0.63312 0.0
O221 O 0.98941 0.58211 0.06942 0.0
Zn222 Zn 0.99553 0.5658 0.03399 0.0
O223 O 0.01915 0.59418 0.0123 0.0
Zn224 Zn 0.9975 0.60295 0.98144 0.0
Zn225 Zn 0.03117 0.62953 0.03275 0.0
Zn226 Zn 0.05218 0.57775 1.00053 0.0
O227 O 0.01711 0.59549 0.94794 0.0
O228 O 0.0552 0.57728 0.96109 0.0
O229 O 0.95642 0.55404 0.01739 0.0
O230 O 0.95736 0.58046 0.98138 0.0
O231 O 0.99461 0.64423 0.98024 0.0
O232 O 0.01846 0.66408 0.01526 0.0
O233 O 0.07435 0.63623 0.03766 0.0
O234 O 0.01404 0.5309 0.04028 0.0
O235 O 0.08812 0.6007 0.01536 0.0
O236 O 0.05158 0.53774 0.01378 0.0
C237 C 0.99793 0.60585 0.08084 0.0
C238 C 0.03978 0.58543 0.94291 0.0
C239 C 0.00386 0.66599 0.99428 0.0
C240 C 0.94417 0.56186 0.99687 0.0
C241 C 0.09396 0.62287 0.02973 0.0
C242 C 0.03582 0.5225 0.03027 0.0
O243 O 0.01407 0.62602 0.06921 0.0
H244 H 0.14011 0.14515 0.21722 0.0
H245 H 0.11787 0.11795 0.25471 0.0
H246 H 0.13621 0.19287 0.30367 0.0
H247 H 0.15876 0.22003 0.26662 0.0
H248 H 0.14281 0.10885 0.30434 0.0
H249 H 0.04973 0.1652 0.31446 0.0
H250 H 0.07139 0.16751 0.28522 0.0
H251 H 0.08378 0.18848 0.31379 0.0
C252 C 0.13945 0.15581 0.23599 0.0
C253 C 0.15095 0.18487 0.23881 0.0
C254 C 0.12665 0.14027 0.25734 0.0
C255 C 0.12497 0.15352 0.28183 0.0
C256 C 0.13667 0.18239 0.28478 0.0
H257 H 0.10059 0.08674 0.43866 0.0
H258 H 0.11925 0.10657 0.39681 0.0
C259 C 0.14949 0.19791 0.26352 0.0
C260 C 0.11171 0.13714 0.30461 0.0
H261 H 0.0589 0.13563 0.35024 0.0
C262 C 0.12431 0.11451 0.31426 0.0
C263 C 0.08736 0.14435 0.31732 0.0
C264 C 0.07207 0.16753 0.30706 0.0
C265 C 0.11379 0.0995 0.33685 0.0
C266 C 0.09028 0.10761 0.35027 0.0
C267 C 0.07709 0.12961 0.34008 0.0
C268 C 0.07938 0.09406 0.37526 0.0
C269 C 0.12788 0.07508 0.34612 0.0
C270 C 0.05066 0.08074 0.37715 0.0
C271 C 0.03984 0.06948 0.4011 0.0
C272 C 0.0575 0.07153 0.42373 0.0
C273 C 0.08639 0.08464 0.42166 0.0
C274 C 0.09717 0.09586 0.39768 0.0
H275 H 0.13982 0.06657 0.33003 0.0
H276 H 0.14344 0.08263 0.36214 0.0
H277 H 0.11174 0.05754 0.35393 0.0
H278 H 0.03652 0.07926 0.36011 0.0
H279 H 0.01749 0.05959 0.40194 0.0
H280 H 0.43528 0.92204 0.77207 0.0
H281 H 0.45156 0.94608 0.81351 0.0
H282 H 0.36485 0.92993 0.84239 0.0
H283 H 0.34864 0.9048 0.80179 0.0
H284 H 0.4367 0.99286 0.83875 0.0
H285 H 0.40858 0.89652 0.9001 0.0
H286 H 0.40926 0.89498 0.86466 0.0
H287 H 0.37879 0.90479 0.88118 0.0
C288 C 0.41969 0.92341 0.78731 0.0
C289 C 0.39063 0.91133 0.7835 0.0
C290 C 0.42901 0.93736 0.81092 0.0
C291 C 0.40952 0.93941 0.83126 0.0
C292 C 0.3804 0.92815 0.82722 0.0
H293 H 0.4411 0.04889 0.9711 0.0
H294 H 0.42444 0.02816 0.92838 0.0
C295 C 0.3711 0.91411 0.80374 0.0
C296 C 0.41959 0.95294 0.85684 0.0
H297 H 0.4216 0.94035 0.92289 0.0
C298 C 0.43348 0.98139 0.85716 0.0
C299 C 0.41573 0.93785 0.88083 0.0
C300 C 0.40254 0.90677 0.88175 0.0
C301 C 0.44329 0.99523 0.88083 0.0
C302 C 0.43858 0.98038 0.9049 0.0
C303 C 0.42494 0.95186 0.9045 0.0
C304 C 0.44868 0.99346 0.93068 0.0
C305 C 0.45921 0.02537 0.87974 0.0
C306 C 0.46723 0.98051 0.94656 0.0
C307 C 0.47645 0.99205 0.97107 0.0
C308 C 0.46737 0.01691 0.98039 0.0
C309 C 0.44867 0.02985 0.9645 0.0
C310 C 0.43929 0.01813 0.93996 0.0
H311 H 0.46766 0.03093 0.85976 0.0
H312 H 0.44431 0.04021 0.88484 0.0
H313 H 0.47743 0.02872 0.89401 0.0
H314 H 0.47472 0.96143 0.93991 0.0
H315 H 0.49087 0.98148 0.98266 0.0
H316 H 0.56588 0.47516 0.88858 0.0
H317 H 0.56415 0.48148 0.84129 0.0
H318 H 0.51854 0.55189 0.85183 0.0
H319 H 0.5227 0.54759 0.8994 0.0
H320 H 0.52165 0.47558 0.80928 0.0
H321 H 0.57699 0.58692 0.80137 0.0
H322 H 0.57625 0.5673 0.83166 0.0
H323 H 0.54628 0.58419 0.8222 0.0
C324 C 0.55631 0.49266 0.88104 0.0
C325 C 0.54486 0.51116 0.89808 0.0
C326 C 0.55496 0.49595 0.85384 0.0
C327 C 0.54166 0.51747 0.8429 0.0
C328 C 0.52967 0.53564 0.85974 0.0
H329 H 0.48081 0.51268 0.68046 0.0
H330 H 0.48593 0.50626 0.72786 0.0
C331 C 0.53162 0.5328 0.88703 0.0
C332 C 0.53945 0.52 0.81387 0.0
H333 H 0.55144 0.56701 0.76316 0.0
C334 C 0.52841 0.49554 0.79918 0.0
C335 C 0.54869 0.54591 0.80059 0.0
C336 C 0.563 0.57246 0.81476 0.0
C337 C 0.52618 0.49628 0.77167 0.0
C338 C 0.53396 0.52251 0.75852 0.0
C339 C 0.54519 0.54692 0.7732 0.0
C340 C 0.53093 0.52527 0.72959 0.0
C341 C 0.51625 0.46872 0.75707 0.0
C342 C 0.55423 0.53881 0.71482 0.0
C343 C 0.55106 0.54328 0.68791 0.0
C344 C 0.52467 0.53385 0.67516 0.0
C345 C 0.50152 0.51973 0.68976 0.0
C346 C 0.5045 0.5159 0.71682 0.0
H347 H 0.52076 0.45015 0.76859 0.0
H348 H 0.49268 0.466 0.75383 0.0
H349 H 0.52684 0.46849 0.73769 0.0
H350 H 0.57484 0.54625 0.72418 0.0
H351 H 0.56925 0.55421 0.67709 0.0
H352 H 0.84717 0.61221 0.27859 0.0
H353 H 0.87737 0.61709 0.23975 0.0
H354 H 0.95279 0.61983 0.28887 0.0
H355 H 0.92244 0.61363 0.32801 0.0
H356 H 0.92149 0.65876 0.22477 0.0
H357 H 0.95936 0.55514 0.23797 0.0
H358 H 0.9301 0.56475 0.25664 0.0
H359 H 0.96655 0.57986 0.26489 0.0
C360 C 0.87015 0.61351 0.28119 0.0
C361 C 0.88234 0.61201 0.30639 0.0
C362 C 0.88742 0.61663 0.25896 0.0
C363 C 0.91727 0.61843 0.26139 0.0
C364 C 0.92973 0.61797 0.28654 0.0
H365 H 0.01664 0.6503 0.1147 0.0
H366 H 1.0013 0.65591 0.16006 0.0
C367 C 0.91239 0.61469 0.30888 0.0
C368 C 0.9348 0.61982 0.23726 0.0
H369 H 0.97432 0.58117 0.20007 0.0
C370 C 0.93338 0.64201 0.21945 0.0
C371 C 0.95011 0.59781 0.23039 0.0
C372 C 0.95155 0.57289 0.24832 0.0
C373 C 0.9458 0.64218 0.19447 0.0
C374 C 0.96056 0.61982 0.18738 0.0
C375 C 0.96306 0.59831 0.20564 0.0
C376 C 0.97083 0.61661 0.16027 0.0
C377 C 0.94165 0.66539 0.17539 0.0
C378 C 0.95928 0.59238 0.14559 0.0
C379 C 0.96815 0.58898 0.11988 0.0
C380 C 0.98878 0.60978 0.10821 0.0
C381 C 1.00053 0.634 0.12302 0.0
C382 C 0.99173 0.6373 0.14891 0.0
H383 H 0.92502 0.67769 0.1821 0.0
H384 H 0.96218 0.68036 0.17345 0.0
H385 H 0.93535 0.65634 0.15563 0.0
H386 H 0.9431 0.57617 0.15398 0.0
H387 H 0.95861 0.57006 0.10911 0.0
H388 H 0.25316 0.23259 0.16607 0.0
H389 H 0.29118 0.21116 0.1458 0.0
H390 H 0.23448 0.13041 0.14138 0.0
H391 H 0.19591 0.15199 0.16037 0.0
H392 H 0.31604 0.1699 0.16626 0.0
H393 H 0.2691 0.13366 0.06937 0.0
H394 H 0.25389 0.1581 0.08998 0.0
H395 H 0.24625 0.12044 0.09611 0.0
C396 C 0.24844 0.21049 0.16004 0.0
C397 C 0.22137 0.19406 0.16487 0.0
C398 C 0.27034 0.19818 0.14867 0.0
C399 C 0.2657 0.1692 0.14181 0.0
C400 C 0.2385 0.15292 0.14597 0.0
H401 H 0.40178 0.0668 0.13106 0.0
H402 H 0.36013 0.08798 0.14368 0.0
C403 C 0.21653 0.16524 0.15717 0.0
C404 C 0.28991 0.15557 0.13232 0.0
H405 H 0.31043 0.11434 0.08322 0.0
C406 C 0.31486 0.15793 0.148 0.0
C407 C 0.28854 0.14013 0.10838 0.0
C408 C 0.26312 0.13815 0.08986 0.0
C409 C 0.33824 0.14498 0.14066 0.0
C410 C 0.3364 0.12852 0.11729 0.0
C411 C 0.31168 0.12658 0.10133 0.0
C412 C 0.36027 0.11388 0.10876 0.0
C413 C 0.3649 0.14956 0.15781 0.0
C414 C 0.37339 0.12031 0.08437 0.0
C415 C 0.39699 0.10794 0.07692 0.0
C416 C 0.408 0.08884 0.09373 0.0
C417 C 0.3941 0.08162 0.11773 0.0
C418 C 0.37037 0.09387 0.12507 0.0
H419 H 0.36595 0.16874 0.17048 0.0
H420 H 0.36466 0.13092 0.17088 0.0
H421 H 0.38464 0.15191 0.14576 0.0
H422 H 0.36587 0.13553 0.07137 0.0
H423 H 0.40706 0.11398 0.05827 0.0
H424 H 0.29613 0.92157 0.65365 0.0
H425 H 0.27362 0.95196 0.62378 0.0
H426 H 0.20049 0.94522 0.67496 0.0
H427 H 0.22307 0.91559 0.705 0.0
H428 H 0.22331 0.93453 0.59762 0.0
H429 H 0.21291 0.02898 0.65745 0.0
H430 H 0.23685 0.00467 0.66655 0.0
H431 H 0.19929 0.99682 0.67459 0.0
C432 C 0.27564 0.9273 0.65887 0.0
C433 C 0.26131 0.91611 0.68161 0.0
C434 C 0.26274 0.94452 0.64173 0.0
C435 C 0.23548 0.95116 0.64724 0.0
C436 C 0.22176 0.94095 0.67052 0.0
H437 H 0.08957 0.96554 0.55672 0.0
H438 H 0.13085 0.9526 0.57987 0.0
C439 C 0.23456 0.92373 0.68755 0.0
C440 C 0.21974 0.96583 0.62753 0.0
H441 H 0.17847 0.01795 0.62155 0.0
C442 C 0.21403 0.95315 0.60266 0.0
C443 C 0.20792 0.99039 0.63385 0.0
C444 C 0.21483 0.00617 0.65948 0.0
C445 C 0.19522 0.96312 0.58474 0.0
C446 C 0.18142 0.98609 0.59203 0.0
C447 C 0.18873 8e-05 0.61609 0.0
C448 C 0.15734 0.994 0.57624 0.0
C449 C 0.18971 0.94846 0.55841 0.0
C450 C 0.15831 0.02177 0.56672 0.0
C451 C 0.13456 0.02934 0.55341 0.0
C452 C 0.10928 0.00935 0.54974 0.0
C453 C 0.10863 0.9815 0.55909 0.0
C454 C 0.13234 0.97397 0.57221 0.0
H455 H 0.20821 0.93831 0.55241 0.0
H456 H 0.17062 0.93149 0.55982 0.0
H457 H 0.18548 0.96361 0.54288 0.0
H458 H 0.17733 0.03763 0.56982 0.0
H459 H 0.13574 0.05101 0.54661 0.0
H460 H 0.68049 0.46054 0.02044 0.0
H461 H 0.73229 0.4771 0.01871 0.0
H462 H 0.72181 0.51782 0.94445 0.0
H463 H 0.66988 0.50103 0.94586 0.0
H464 H 0.76959 0.46444 0.97767 0.0
H465 H 0.77071 0.58066 0.99008 0.0
H466 H 0.74003 0.55442 0.99855 0.0
H467 H 0.74739 0.56312 0.96471 0.0
C468 C 0.68919 0.47302 0.00372 0.0
C469 C 0.67109 0.47944 0.98326 0.0
C470 C 0.71875 0.48252 0.00282 0.0
C471 C 0.73079 0.49881 0.98155 0.0
C472 C 0.71283 0.50563 0.96123 0.0
H473 H 0.91009 0.57437 0.95601 0.0
H474 H 0.85862 0.55769 0.94958 0.0
C475 C 0.68319 0.49608 0.9621 0.0
C476 C 0.76228 0.50774 0.98042 0.0
H477 H 0.81534 0.56577 0.98378 0.0
C478 C 0.77964 0.4866 0.97891 0.0
C479 C 0.77521 0.53665 0.98184 0.0
C480 C 0.75749 0.56011 0.98408 0.0
C481 C 0.80969 0.49359 0.97903 0.0
C482 C 0.82266 0.52245 0.98126 0.0
C483 C 0.8053 0.54365 0.98209 0.0
C484 C 0.85415 0.53105 0.98415 0.0
C485 C 0.82726 0.47001 0.97667 0.0
C486 C 0.86867 0.52156 0.00572 0.0
C487 C 0.89806 0.53096 0.00944 0.0
C488 C 0.91349 0.55026 0.99177 0.0
C489 C 0.89891 0.55946 0.96997 0.0
C490 C 0.86949 0.55001 0.96627 0.0
H491 H 0.81471 0.45078 0.96721 0.0
H492 H 0.847 0.47692 0.96509 0.0
H493 H 0.83376 0.46396 0.99662 0.0
H494 H 0.85712 0.50741 0.02007 0.0
H495 H 0.90851 0.52355 0.02651 0.0
H496 H 0.84242 0.5954 0.47465 0.0
H497 H 0.80602 0.58089 0.50844 0.0
H498 H 0.77652 0.66146 0.50038 0.0
H499 H 0.81328 0.67629 0.46792 0.0
H500 H 0.77236 0.64495 0.54979 0.0
H501 H 0.72543 0.55444 0.48471 0.0
H502 H 0.76096 0.55364 0.49715 0.0
H503 H 0.75489 0.58092 0.47439 0.0
C504 C 0.82846 0.61009 0.4806 0.0
C505 C 0.83057 0.6369 0.46867 0.0
C506 C 0.80762 0.60178 0.49974 0.0
C507 C 0.78808 0.61983 0.50651 0.0
C508 C 0.79133 0.64715 0.49559 0.0
H509 H 0.61219 0.59629 0.52209 0.0
H510 H 0.66331 0.60352 0.51251 0.0
C511 C 0.81239 0.65562 0.47698 0.0
C512 C 0.76227 0.60995 0.52257 0.0
H513 H 0.69794 0.56519 0.5198 0.0
C514 C 0.7562 0.62722 0.54356 0.0
C515 C 0.74123 0.58677 0.51437 0.0
C516 C 0.74573 0.56795 0.49134 0.0
C517 C 0.72889 0.62349 0.55503 0.0
C518 C 0.70747 0.60122 0.54585 0.0
C519 C 0.71439 0.58241 0.52658 0.0
C520 C 0.67682 0.5992 0.55293 0.0
C521 C 0.72262 0.64463 0.57542 0.0
C522 C 0.66739 0.59517 0.57899 0.0
C523 C 0.638 0.59168 0.58459 0.0
C524 C 0.61775 0.59152 0.56411 0.0
C525 C 0.62734 0.59617 0.53822 0.0
C526 C 0.65654 0.60019 0.53273 0.0
H527 H 0.73988 0.66353 0.57668 0.0
H528 H 0.70197 0.65193 0.57094 0.0
H529 H 0.7208 0.63428 0.59499 0.0
H530 H 0.68259 0.59385 0.59483 0.0
H531 H 0.63105 0.58779 0.60469 0.0
H532 H 0.11934 0.30031 0.13819 0.0
H533 H 0.09666 0.32738 0.10558 0.0
H534 H 0.15754 0.40258 0.12527 0.0
H535 H 0.18159 0.37534 0.15592 0.0
H536 H 0.06876 0.36798 0.11249 0.0
H537 H 0.15853 0.41153 0.04883 0.0
H538 H 0.16152 0.38383 0.07224 0.0
H539 H 0.16882 0.42079 0.08208 0.0
C540 C 0.12851 0.32236 0.1349 0.0
C541 C 0.15223 0.33561 0.14993 0.0
C542 C 0.11531 0.33794 0.11641 0.0
C543 C 0.1255 0.36708 0.11257 0.0
C544 C 0.14961 0.38004 0.12711 0.0
H545 H 0.02786 0.49857 0.07879 0.0
H546 H 0.04738 0.45791 0.09583 0.0
C547 C 0.16308 0.36445 0.14514 0.0
C548 C 0.10968 0.38471 0.09536 0.0
H549 H 0.1204 0.44017 0.05231 0.0
C550 C 0.08 0.38337 0.09891 0.0
C551 C 0.12389 0.40435 0.07699 0.0
C552 C 0.15487 0.40492 0.06962 0.0
C553 C 0.06462 0.40218 0.08592 0.0
C554 C 0.07954 0.42391 0.06985 0.0
C555 C 0.10885 0.42407 0.06504 0.0
C556 C 0.06576 0.44746 0.05887 0.0
C557 C 0.03253 0.3983 0.08959 0.0
C558 C 0.07019 0.45603 0.03255 0.0
C559 C 0.05991 0.48003 0.02304 0.0
C560 C 0.04445 0.49566 0.03947 0.0
C561 C 0.03924 0.48664 0.06551 0.0
C562 C 0.05022 0.46315 0.07523 0.0
H563 H 0.02344 0.37554 0.09274 0.0
H564 H 0.02779 0.41016 0.10738 0.0
H565 H 0.02149 0.40605 0.07237 0.0
H566 H 0.08213 0.44448 0.01945 0.0
H567 H 0.06428 0.48652 0.00288 0.0
H568 H 0.56039 0.38995 0.96497 0.0
H569 H 0.54681 0.33892 0.9726 0.0
H570 H 0.60899 0.3439 0.0358 0.0
H571 H 0.62229 0.39519 0.0288 0.0
H572 H 0.61048 0.29979 0.99435 0.0
H573 H 0.50257 0.29923 0.03781 0.0
H574 H 0.51047 0.31927 0.00808 0.0
H575 H 0.52995 0.3306 0.03776 0.0
C576 C 0.57078 0.38035 0.98086 0.0
C577 C 0.59232 0.39668 0.99639 0.0
C578 C 0.56308 0.35118 0.98508 0.0
C579 C 0.57679 0.33784 0.00485 0.0
C580 C 0.59819 0.35396 0.02046 0.0
H581 H 0.57497 0.16774 0.06078 0.0
H582 H 0.5869 0.2177 0.04881 0.0
C583 C 0.60582 0.38318 0.01636 0.0
C584 C 0.56947 0.30683 0.00865 0.0
H585 H 0.51646 0.25469 0.03004 0.0
C586 C 0.58995 0.28985 1.00216 0.0
C587 C 0.54256 0.2941 0.01855 0.0
C588 C 0.52009 0.31165 0.02615 0.0
C589 C 0.5842 0.26025 0.00531 0.0
C590 C 0.55752 0.24752 0.01584 0.0
C591 C 0.53688 0.26453 0.02196 0.0
C592 C 0.55103 0.21678 0.02181 0.0
C593 C 0.60658 0.24289 0.99702 0.0
C594 C 0.5266 0.19977 0.01093 0.0
C595 C 0.51949 0.17116 0.01795 0.0
C596 C 0.53667 0.15913 0.03607 0.0
C597 C 0.56136 0.17621 0.04662 0.0
C598 C 0.56834 0.20479 0.03969 0.0
H599 H 0.62125 0.25423 0.98211 0.0
H600 H 0.61978 0.23905 0.01441 0.0
H601 H 0.59649 0.22197 0.98877 0.0
H602 H 0.51288 0.20872 0.9972 0.0
H603 H 0.50031 0.15864 0.00948 0.0
H604 H 0.92621 0.70618 0.39469 0.0
H605 H 0.94974 0.75621 0.39543 0.0
H606 H 0.88156 0.77751 0.44361 0.0
H607 H 0.85741 0.72838 0.44179 0.0
H608 H 0.89715 0.81721 0.40701 0.0
H609 H 0.99379 0.79155 0.45926 0.0
H610 H 0.986 0.77515 0.42758 0.0
H611 H 0.96179 0.76555 0.45436 0.0
C612 C 0.91612 0.72169 0.4051 0.0
C613 C 0.89033 0.71326 0.4187 0.0
C614 C 0.92969 0.75016 0.40571 0.0
C615 C 0.91772 0.77044 0.42009 0.0
C616 C 0.89132 0.76221 0.43257 0.0
H617 H 0.98162 0.91607 0.50959 0.0
H618 H 0.96627 0.86936 0.48961 0.0
C619 C 0.8777 0.73401 0.43177 0.0
C620 C 0.93276 0.80008 0.42351 0.0
H621 H 0.99072 0.8397 0.45402 0.0
C622 C 0.91781 0.82224 0.41696 0.0
C623 C 0.95962 0.80646 0.43666 0.0
C624 C 0.97623 0.78349 0.44509 0.0
C625 C 0.92811 0.85041 0.42457 0.0
C626 C 0.95464 0.8567 0.4383 0.0
C627 C 0.97039 0.83477 0.4435 0.0
C628 C 0.96504 0.88518 0.44979 0.0
C629 C 0.90956 0.87275 0.41931 0.0
C630 C 0.96975 0.90959 0.43403 0.0
C631 C 0.97801 0.93642 0.44549 0.0
C632 C 0.98231 0.93921 0.47285 0.0
C633 C 0.97845 0.91464 0.48847 0.0
C634 C 0.96977 0.88792 0.47705 0.0
H635 H 0.88709 0.86316 0.41418 0.0
H636 H 0.90916 0.88681 0.43671 0.0
H637 H 0.91844 0.88608 0.40252 0.0
H638 H 0.96694 0.90792 0.41289 0.0
H639 H 0.98123 0.95494 0.4329 0.0
H640 H 0.36717 0.80225 0.71561 0.0
H641 H 0.39345 0.76755 0.69608 0.0
H642 H 0.47026 0.83064 0.69424 0.0
H643 H 0.44383 0.86585 0.71353 0.0
H644 H 0.4572 0.79993 0.64608 0.0
H645 H 0.45461 0.72731 0.73121 0.0
H646 H 0.41996 0.73557 0.72257 0.0
H647 H 0.44779 0.76335 0.73427 0.0
C648 C 0.38965 0.80882 0.71103 0.0
C649 C 0.40339 0.83687 0.71599 0.0
C650 C 0.40472 0.78885 0.70011 0.0
C651 C 0.43389 0.79639 0.69398 0.0
C652 C 0.44779 0.82433 0.69898 0.0
H653 H 0.52933 0.66253 0.64412 0.0
H654 H 0.5172 0.70489 0.66573 0.0
C655 C 0.43272 0.84436 0.7101 0.0
C656 C 0.44929 0.7752 0.68141 0.0
H657 H 0.46542 0.70851 0.68945 0.0
C658 C 0.45937 0.7801 0.65567 0.0
C659 C 0.45245 0.74949 0.69405 0.0
C660 C 0.44339 0.74366 0.72215 0.0
C661 C 0.47125 0.75937 0.64179 0.0
C662 C 0.47279 0.73295 0.65388 0.0
C663 C 0.464 0.72864 0.68007 0.0
C664 C 0.48189 0.70889 0.63934 0.0
C665 C 0.48183 0.76585 0.61421 0.0
C666 C 0.46616 0.69711 0.61726 0.0
C667 C 0.47299 0.6729 0.60487 0.0
C668 C 0.49565 0.6598 0.61438 0.0
C669 C 0.51182 0.67206 0.63617 0.0
C670 C 0.50489 0.69626 0.64861 0.0
H671 H 0.48729 0.78914 0.61088 0.0
H672 H 0.50104 0.75598 0.61009 0.0
H673 H 0.46463 0.75713 0.59997 0.0
H674 H 0.44796 0.7061 0.61006 0.0
H675 H 0.45999 0.66406 0.58822 0.0
H676 H 0.9421 0.94312 0.82555 0.0
H677 H 0.96089 0.95814 0.78215 0.0
H678 H 0.87522 0.93986 0.74929 0.0
H679 H 0.85659 0.92339 0.792 0.0
H680 H 0.91219 0.92068 0.71796 0.0
H681 H 0.95562 0.03219 0.74592 0.0
H682 H 0.97023 0.00634 0.76508 0.0
H683 H 0.93264 0.00848 0.76725 0.0
C684 C 0.92731 0.94208 0.80903 0.0
C685 C 0.89774 0.93241 0.81244 0.0
C686 C 0.93803 0.95105 0.78428 0.0
C687 C 0.91938 0.9508 0.76253 0.0
C688 C 0.89001 0.94057 0.76579 0.0
H689 H 0.95282 0.0403 0.61425 0.0
H690 H 0.93671 0.0243 0.65818 0.0
C691 C 0.87934 0.93141 0.79037 0.0
C692 C 0.93022 0.96059 0.73616 0.0
H693 H 0.96612 0.01767 0.70291 0.0
C694 C 0.92398 0.9419 0.71469 0.0
C695 C 0.94521 0.98844 0.73177 0.0
C696 C 0.9511 0.01014 0.75366 0.0
C697 C 0.9323 0.9502 0.68905 0.0
C698 C 0.94809 0.97773 0.68478 0.0
C699 C 0.95424 0.99649 0.70621 0.0
C700 C 0.95814 0.98754 0.65819 0.0
C701 C 0.92333 0.9296 0.66672 0.0
C702 C 0.97586 0.97246 0.64369 0.0
C703 C 0.98481 0.98134 0.61849 0.0
C704 C 0.97665 0.00583 0.60736 0.0
C705 C 0.95943 0.0213 0.62216 0.0
C706 C 0.95024 0.01222 0.64731 0.0
H707 H 0.90453 0.91342 0.67202 0.0
H708 H 0.91781 0.94084 0.64877 0.0
H709 H 0.94134 0.91821 0.66203 0.0
H710 H 0.98291 0.95382 0.65192 0.0
H711 H 0.99838 0.96911 0.60785 0.0
H712 H 0.63869 0.11253 0.36981 0.0
H713 H 0.62011 0.1031 0.32516 0.0
H714 H 0.5972 0.18691 0.32193 0.0
H715 H 0.61538 0.1963 0.36711 0.0
H716 H 0.5552 0.14739 0.3013 0.0
H717 H 0.65899 0.13284 0.25848 0.0
H718 H 0.6495 0.10943 0.28567 0.0
H719 H 0.65639 0.14734 0.29101 0.0
C720 C 0.62994 0.12908 0.35952 0.0
C721 C 0.6289 0.15534 0.37183 0.0
C722 C 0.6194 0.12368 0.33394 0.0
C723 C 0.60796 0.14455 0.31987 0.0
C724 C 0.6062 0.17058 0.33231 0.0
H725 H 0.57862 0.12497 0.15022 0.0
H726 H 0.59582 0.14218 0.1938 0.0
C727 C 0.61653 0.17592 0.3581 0.0
C728 C 0.59743 0.1388 0.29239 0.0
H729 H 0.61695 0.11572 0.23263 0.0
C730 C 0.56877 0.14074 0.2862 0.0
C731 C 0.61526 0.13065 0.27249 0.0
C732 C 0.64682 0.13024 0.27715 0.0
C733 C 0.5572 0.13378 0.26097 0.0
C734 C 0.57455 0.12386 0.24158 0.0
C735 C 0.60348 0.1229 0.24754 0.0
C736 C 0.56321 0.11412 0.21508 0.0
C737 C 0.52659 0.13745 0.25534 0.0
C738 C 0.53927 0.09241 0.21242 0.0
C739 C 0.52919 0.08272 0.18749 0.0
C740 C 0.54317 0.09415 0.16465 0.0
C741 C 0.56735 0.11565 0.16737 0.0
C742 C 0.57721 0.12555 0.1923 0.0
H743 H 0.51974 0.15355 0.26864 0.0
H744 H 0.5238 0.14403 0.23468 0.0
H745 H 0.51215 0.11694 0.25868 0.0
H746 H 0.5286 0.0826 0.22965 0.0
H747 H 0.51069 0.06595 0.18616 0.0
H748 H 0.48447 0.58635 0.25905 0.0
H749 H 0.49313 0.58533 0.30659 0.0
H750 H 0.4153 0.61918 0.32017 0.0
H751 H 0.40596 0.61937 0.27284 0.0
H752 H 0.4994 0.63079 0.34306 0.0
H753 H 0.40568 0.54796 0.36632 0.0
H754 H 0.41865 0.55448 0.33325 0.0
H755 H 0.39712 0.57778 0.34818 0.0
C756 C 0.46906 0.5933 0.27218 0.0
C757 C 0.4445 0.60288 0.26217 0.0
C758 C 0.47413 0.59289 0.29929 0.0
C759 C 0.45466 0.60185 0.31685 0.0
C760 C 0.43035 0.61176 0.30694 0.0
H761 H 0.4512 0.60473 0.48871 0.0
H762 H 0.44151 0.61294 0.44214 0.0
C763 C 0.42524 0.61216 0.27988 0.0
C764 C 0.4599 0.601 0.34554 0.0
H765 H 0.43251 0.57019 0.4024 0.0
C766 C 0.4848 0.61756 0.35606 0.0
C767 C 0.4407 0.5838 0.36241 0.0
C768 C 0.41415 0.56479 0.35201 0.0
C769 C 0.49104 0.61739 0.38308 0.0
C770 C 0.47205 0.59989 0.39988 0.0
C771 C 0.44692 0.58369 0.38944 0.0
C772 C 0.47874 0.59666 0.42807 0.0
C773 C 0.5178 0.63603 0.39347 0.0
C774 C 0.50279 0.58471 0.43545 0.0
C775 C 0.50835 0.57994 0.4619 0.0
C776 C 0.48987 0.58692 0.48155 0.0
C777 C 0.46591 0.59921 0.4741 0.0
C778 C 0.46032 0.60389 0.44753 0.0
H779 H 0.52553 0.6537 0.37977 0.0
H780 H 0.51396 0.64516 0.41298 0.0
H781 H 0.53511 0.62305 0.3958 0.0
H782 H 0.51696 0.57849 0.42069 0.0
H783 H 0.52697 0.5704 0.46689 0.0
H784 H 0.01362 0.47399 0.73732 0.0
H785 H 0.01807 0.51203 0.76939 0.0
H786 H 0.10479 0.54245 0.74413 0.0
H787 H 0.10132 0.50239 0.71348 0.0
H788 H 0.10668 0.539 0.79254 0.0
H789 H 0.01498 0.59262 0.77486 0.0
H790 H 1.00021 0.55565 0.7762 0.0
H791 H 0.02548 0.56862 0.7507 0.0
C792 C 0.03363 0.48884 0.7384 0.0
C793 C 0.05733 0.48467 0.72327 0.0
C794 C 0.03594 0.51115 0.75641 0.0
C795 C 0.06165 0.53058 0.75907 0.0
C796 C 0.08468 0.52782 0.74246 0.0
H797 H 0.03538 0.62271 0.90327 0.0
H798 H 0.04799 0.61801 0.85704 0.0
C799 C 0.08259 0.50499 0.72477 0.0
C800 C 0.06558 0.55027 0.78202 0.0
H801 H 0.02607 0.58525 0.82251 0.0
C802 C 0.08944 0.54991 0.79868 0.0
C803 C 0.04394 0.56571 0.78993 0.0
C804 C 0.01998 0.5709 0.77169 0.0
C805 C 0.09049 0.56158 0.82408 0.0
C806 C 0.06637 0.57247 0.83355 0.0
C807 C 0.04417 0.5759 0.81583 0.0
C808 C 0.06218 0.57737 0.86204 0.0
C809 C 0.1172 0.56138 0.84056 0.0
C810 C 0.06605 0.55626 0.8804 0.0
C811 C 0.05973 0.55939 0.90688 0.0
C812 C 0.04823 0.58309 0.91534 0.0
C813 C 0.04413 0.60416 0.89711 0.0
C814 C 0.05136 0.60148 0.87073 0.0
H815 H 0.13664 0.56524 0.82808 0.0
H816 H 0.11951 0.57776 0.85635 0.0
H817 H 0.11639 0.54009 0.84957 0.0
H818 H 0.07308 0.53683 0.87419 0.0
H819 H 0.06269 0.5427 0.92055 0.0
H820 H 0.73975 0.97721 0.89346 0.0
H821 H 0.71755 0.00049 0.92841 0.0
H822 H 0.77191 0.96842 0.98578 0.0
H823 H 0.79351 0.94379 0.95061 0.0
H824 H 0.71819 0.95729 1.00046 0.0
H825 H 0.73891 0.06993 0.97236 0.0
H826 H 0.72401 0.04937 0.94451 0.0
H827 H 0.75831 0.04421 0.95793 0.0
C828 C 0.74722 0.97529 0.91348 0.0
C829 C 0.76813 0.95834 0.9193 0.0
C830 C 0.73481 0.98905 0.93346 0.0
C831 C 0.74335 0.9867 0.95977 0.0
C832 C 0.76514 0.97077 0.9656 0.0
H833 H 0.63206 0.07072 0.06192 0.0
H834 H 0.67719 0.05885 0.04504 0.0
C835 C 0.77756 0.95681 0.9455 0.0
C836 C 0.72675 0.99789 0.98097 0.0
H837 H 0.69335 0.05422 0.99537 0.0
C838 C 0.71338 0.97875 0.99978 0.0
C839 C 0.7209 0.02608 0.98074 0.0
C840 C 0.73662 0.0486 0.96295 0.0
C841 C 0.69238 0.98619 0.01657 0.0
C842 C 0.68393 0.01319 0.01396 0.0
C843 C 0.69926 0.03325 0.99698 0.0
C844 C 0.65724 0.01969 0.02612 0.0
C845 C 0.67883 0.96466 0.03637 0.0
C846 C 0.63103 0.00184 0.0209 0.0
C847 C 0.60539 0.00844 0.03054 0.0
C848 C 0.60517 0.03337 0.04536 0.0
C849 C 0.63145 0.05132 0.05064 0.0
C850 C 0.65726 0.04457 0.04103 0.0
H851 H 0.69438 0.95103 0.04313 0.0
H852 H 0.67094 0.97507 0.05377 0.0
H853 H 0.66043 0.95054 0.02697 0.0
H854 H 0.63026 0.98304 0.00873 0.0
H855 H 0.58563 0.99419 0.02585 0.0
H856 H 0.69872 0.1088 0.41188 0.0
H857 H 0.74382 0.0927 0.42315 0.0
H858 H 0.764 0.16142 0.47899 0.0
H859 H 0.71938 0.17844 0.46722 0.0
H860 H 0.80402 0.13055 0.42246 0.0
H861 H 0.76857 0.08234 0.5188 0.0
H862 H 0.74339 0.087 0.49281 0.0
H863 H 0.76061 0.11717 0.51142 0.0
C864 C 0.71287 0.12083 0.42629 0.0
C865 C 0.70535 0.14507 0.43854 0.0
C866 C 0.73855 0.11142 0.43283 0.0
C867 C 0.75708 0.12578 0.45198 0.0
C868 C 0.74979 0.14991 0.46431 0.0
H869 H 0.91488 0.09361 0.52579 0.0
H870 H 0.87001 0.10985 0.5141 0.0
C871 C 0.72421 0.15951 0.45764 0.0
C872 C 0.78422 0.11564 0.45885 0.0
H873 H 0.81654 0.08177 0.50681 0.0
C874 C 0.80683 0.11983 0.44086 0.0
C875 C 0.78775 0.10186 0.48292 0.0
C876 C 0.76383 0.09659 0.50267 0.0
C877 C 0.83317 0.11094 0.44648 0.0
C878 C 0.83663 0.09669 0.47043 0.0
C879 C 0.8139 0.09257 0.48842 0.0
C880 C 0.86378 0.08635 0.47745 0.0
C881 C 0.85725 0.11766 0.42701 0.0
C882 C 0.87506 0.0673 0.46098 0.0
C883 C 0.90093 0.05815 0.46749 0.0
C884 C 0.91582 0.06749 0.49085 0.0
C885 C 0.90404 0.08596 0.50764 0.0
C886 C 0.87834 0.09529 0.50099 0.0
H887 H 0.8541 0.13555 0.41394 0.0
H888 H 0.87836 0.12326 0.43718 0.0
H889 H 0.85783 0.09873 0.41441 0.0
H890 H 0.86384 0.05944 0.44308 0.0
H891 H 0.90921 0.04372 0.45422 0.0
H892 H 0.34927 0.62539 0.12285 0.0
H893 H 0.30324 0.61841 0.09887 0.0
H894 H 0.27563 0.68445 0.14545 0.0
H895 H 0.32115 0.6911 0.16979 0.0
H896 H 0.2342 0.6344 0.13938 0.0
H897 H 0.28051 0.67508 0.04393 0.0
H898 H 0.29636 0.64708 0.05868 0.0
H899 H 0.30009 0.68114 0.07467 0.0
C900 C 0.33322 0.63816 0.12813 0.0
C901 C 0.33883 0.65895 0.148 0.0
C902 C 0.30713 0.63437 0.11427 0.0
C903 C 0.28636 0.65131 0.12012 0.0
C904 C 0.29155 0.67139 0.14051 0.0
H905 H 0.11436 0.66473 0.06551 0.0
H906 H 0.16195 0.67334 0.08636 0.0
C907 C 0.31757 0.67522 0.1543 0.0
C908 C 0.25905 0.64821 0.10514 0.0
H909 H 0.23067 0.65723 0.04436 0.0
C910 C 0.23336 0.63942 0.11862 0.0
C911 C 0.2582 0.65483 0.07809 0.0
C912 C 0.2852 0.66528 0.06294 0.0
C913 C 0.20671 0.63672 0.10566 0.0
C914 C 0.20581 0.64358 0.07865 0.0
C915 C 0.23151 0.65221 0.06511 0.0
C916 C 0.17832 0.64093 0.064 0.0
C917 C 0.1798 0.62596 0.12085 0.0
C918 C 0.17239 0.62089 0.04365 0.0
C919 C 0.14536 0.61605 0.03156 0.0
C920 C 0.12377 0.63124 0.03961 0.0
C921 C 0.13039 0.65253 0.05896 0.0
C922 C 0.1575 0.65735 0.07102 0.0
H923 H 0.18461 0.61543 0.13946 0.0
H924 H 0.16893 0.64414 0.12593 0.0
H925 H 0.16463 0.61062 0.10887 0.0
H926 H 0.18831 0.60818 0.03783 0.0
H927 H 0.1411 0.59964 0.01659 0.0
H928 H 0.15469 0.49295 0.62894 0.0
H929 H 0.20554 0.5139 0.62377 0.0
H930 H 0.22492 0.43171 0.60226 0.0
H931 H 0.17469 0.41054 0.60798 0.0
H932 H 0.25703 0.49456 0.64948 0.0
H933 H 0.25436 0.4882 0.54029 0.0
H934 H 0.2224 0.48779 0.55965 0.0
H935 H 0.2385 0.45634 0.55706 0.0
C936 C 0.16986 0.47935 0.6233 0.0
C937 C 0.16057 0.4502 0.61841 0.0
C938 C 0.1988 0.49134 0.62029 0.0
C939 C 0.21873 0.47436 0.61223 0.0
C940 C 0.20968 0.4452 0.60801 0.0
H941 H 0.40265 0.49093 0.61281 0.0
H942 H 0.35094 0.4779 0.61978 0.0
C943 C 0.18093 0.43321 0.61114 0.0
C944 C 0.24914 0.48679 0.60813 0.0
H945 H 0.30042 0.49823 0.56076 0.0
C946 C 0.26654 0.49567 0.6301 0.0
C947 C 0.26128 0.48834 0.58277 0.0
C948 C 0.2432 0.47989 0.5585 0.0
C949 C 0.29615 0.50517 0.62742 0.0
C950 C 0.3085 0.50554 0.60217 0.0
C951 C 0.29088 0.49765 0.58012 0.0
C952 C 0.33978 0.51363 0.59822 0.0
C953 C 0.31401 0.51465 0.65159 0.0
C954 C 0.35047 0.53767 0.5833 0.0
C955 C 0.37997 0.54515 0.57921 0.0
C956 C 0.3993 0.52854 0.58978 0.0
C957 C 0.3884 0.5042 0.60442 0.0
C958 C 0.35889 0.49683 0.60859 0.0
H959 H 0.30052 0.51953 0.66823 0.0
H960 H 0.32568 0.49738 0.65784 0.0
H961 H 0.33017 0.53379 0.64736 0.0
H962 H 0.33598 0.55075 0.57497 0.0
H963 H 0.38758 0.56398 0.56777 0.0
H964 H 0.86143 0.85386 0.91106 0.0
H965 H 0.88324 0.81981 0.93615 0.0
H966 H 0.96717 0.85968 0.91065 0.0
H967 H 0.94575 0.89581 0.88755 0.0
H968 H 0.90878 0.7817 0.91838 0.0
H969 H 0.98654 0.84696 0.98492 0.0
H970 H 0.95978 0.86184 0.96653 0.0
H971 H 0.99301 0.85711 0.95133 0.0
C972 C 0.88462 0.85631 0.91149 0.0
C973 C 0.90168 0.87801 0.89719 0.0
C974 C 0.8971 0.8364 0.92569 0.0
C975 C 0.92696 0.83716 0.92564 0.0
C976 C 0.94417 0.85891 0.91167 0.0
H977 H 0.99904 0.68368 0.94414 0.0
H978 H 0.9824 0.72666 0.92895 0.0
C979 C 0.93174 0.87931 0.89794 0.0
C980 C 0.93948 0.81361 0.93808 0.0
H981 H 0.99338 0.79849 0.97839 0.0
C982 C 0.92708 0.78552 0.93174 0.0
C983 C 0.96315 0.8183 0.95586 0.0
C984 C 0.97616 0.84769 0.96528 0.0
C985 C 0.93784 0.76216 0.94215 0.0
C986 C 0.96267 0.76686 0.95849 0.0
C987 C 0.9747 0.79487 0.96547 0.0
C988 C 0.97645 0.74282 0.968 0.0
C989 C 0.92206 0.73266 0.9358 0.0
C990 C 0.98069 0.73853 0.99502 0.0
C991 C 0.99104 0.71419 0.00379 0.0
C992 C 0.99696 0.6937 0.98562 0.0
C993 C 0.99414 0.69886 0.95861 0.0
C994 C 0.98444 0.72334 0.9499 0.0
H995 H 0.89909 0.73291 0.93099 0.0
H996 H 0.93187 0.7243 0.91832 0.0
H997 H 0.92314 0.71786 0.95245 0.0
H998 H 0.97497 0.75343 0.00936 0.0
H999 H 0.99308 0.71074 0.02472 0.0
H1000 H 0.38507 0.74455 0.19564 0.0
H1001 H 0.40428 0.79495 0.18893 0.0
H1002 H 0.48107 0.77224 0.1557 0.0
H1003 H 0.46193 0.72168 0.16233 0.0
H1004 H 0.46467 0.83298 0.2009 0.0
H1005 H 0.43222 0.80966 0.09633 0.0
H1006 H 0.41726 0.7871 0.12293 0.0
H1007 H 0.45331 0.78647 0.11247 0.0
C1008 C 0.40638 0.75039 0.18756 0.0
C1009 C 0.42195 0.72934 0.17923 0.0
C1010 C 0.41734 0.77911 0.18386 0.0
C1011 C 0.44392 0.78712 0.17169 0.0
C1012 C 0.4605 0.76631 0.16518 0.0
H1013 H 0.50993 0.94022 0.08714 0.0
H1014 H 0.50158 0.89295 0.10646 0.0
C1015 C 0.44962 0.73753 0.16904 0.0
C1016 C 0.45212 0.81655 0.16232 0.0
H1017 H 0.452 0.85671 0.10701 0.0
C1018 C 0.46212 0.83829 0.18038 0.0
C1019 C 0.44848 0.82319 0.13558 0.0
C1020 C 0.43709 0.80051 0.1156 0.0
C1021 C 0.46901 0.86673 0.17221 0.0
C1022 C 0.46503 0.87343 0.14546 0.0
C1023 C 0.45505 0.85153 0.12749 0.0
C1024 C 0.47129 0.90287 0.13531 0.0
C1025 C 0.48093 0.8892 0.19216 0.0
C1026 C 0.45693 0.9242 0.14507 0.0
C1027 C 0.4618 0.95146 0.13413 0.0
C1028 C 0.48075 0.95765 0.11296 0.0
C1029 C 0.49503 0.93617 0.10329 0.0
C1030 C 0.49038 0.90913 0.11438 0.0
H1031 H 0.49015 0.8798 0.20958 0.0
H1032 H 0.49783 0.90538 0.18342 0.0
H1033 H 0.46335 0.90011 0.19907 0.0
H1034 H 0.44154 0.91964 0.16078 0.0
H1035 H 0.45039 0.96751 0.14195 0.0
H1036 H 0.09962 0.39019 0.55332 0.0
H1037 H 0.08997 0.34336 0.53186 0.0
H1038 H 0.04517 0.30788 0.60065 0.0
H1039 H 0.05604 0.35339 0.62283 0.0
H1040 H 0.10914 0.29258 0.56241 0.0
H1041 H 0.9942 0.27754 0.53217 0.0
H1042 H 0.01666 0.31217 0.53413 0.0
H1043 H 0.00294 0.29443 0.56359 0.0
C1044 C 0.08751 0.3725 0.56383 0.0
C1045 C 0.07873 0.37578 0.58992 0.0
C1046 C 0.08183 0.34587 0.55142 0.0
C1047 C 0.06669 0.32243 0.56469 0.0
C1048 C 0.05647 0.32594 0.58999 0.0
H1049 H 0.01382 0.14496 0.5702 0.0
H1050 H 0.02291 0.19678 0.57407 0.0
C1051 C 0.06257 0.35221 0.60256 0.0
C1052 C 0.06453 0.29338 0.55412 0.0
H1053 H 0.01515 0.2356 0.53698 0.0
C1054 C 0.08881 0.28012 0.55619 0.0
C1055 C 0.03786 0.27742 0.54646 0.0
C1056 C 0.01138 0.29107 0.54373 0.0
C1057 C 0.08671 0.2507 0.55245 0.0
C1058 C 0.05971 0.23443 0.54575 0.0
C1059 C 0.03577 0.24809 0.54228 0.0
C1060 C 0.05535 0.20304 0.54387 0.0
C1061 C 0.11298 0.23714 0.55739 0.0
C1062 C 0.0708 0.18939 0.52581 0.0
C1063 C 0.06604 0.15976 0.52391 0.0
C1064 C 0.0453 0.1433 0.53967 0.0
C1065 C 0.02997 0.15704 0.55783 0.0
C1066 C 0.03503 0.18664 0.55996 0.0
H1067 H 0.12984 0.25145 0.56864 0.0
H1068 H 0.10738 0.21694 0.5684 0.0
H1069 H 0.12225 0.2323 0.53827 0.0
H1070 H 0.08612 0.20165 0.51281 0.0
H1071 H 0.0779 0.14984 0.50943 0.0
H1072 H 0.57413 0.25148 0.45429 0.0
H1073 H 0.56151 0.29872 0.46273 0.0
H1074 H 0.58606 0.293 0.54418 0.0
H1075 H 0.59893 0.24625 0.53589 0.0
H1076 H 0.51995 0.31207 0.50097 0.0
H1077 H 0.6298 0.37126 0.51991 0.0
H1078 H 0.62319 0.33748 0.50285 0.0
H1079 H 0.62106 0.33876 0.53809 0.0
C1080 C 0.57718 0.26052 0.47389 0.0
C1081 C 0.58744 0.24512 0.49443 0.0
C1082 C 0.5698 0.28737 0.47872 0.0
C1083 C 0.57302 0.29942 0.50405 0.0
C1084 C 0.58368 0.28425 0.52444 0.0
H1085 H 0.49888 0.43503 0.57767 0.0
H1086 H 0.51086 0.38915 0.56376 0.0
C1087 C 0.59083 0.25744 0.51969 0.0
C1088 C 0.56456 0.32747 0.50961 0.0
H1089 H 0.59093 0.39446 0.53188 0.0
C1090 C 0.53546 0.33018 0.50754 0.0
C1091 C 0.58486 0.35108 0.51804 0.0
C1092 C 0.61653 0.34971 0.51967 0.0
C1093 C 0.52604 0.35572 0.51431 0.0
C1094 C 0.54623 0.37903 0.5236 0.0
C1095 C 0.57542 0.37649 0.52503 0.0
C1096 C 0.53774 0.40649 0.53149 0.0
C1097 C 0.49461 0.35766 0.51125 0.0
C1098 C 0.54908 0.4315 0.51819 0.0
C1099 C 0.54238 0.45768 0.5261 0.0
C1100 C 0.52429 0.45956 0.54769 0.0
C1101 C 0.51277 0.4344 0.56093 0.0
C1102 C 0.51948 0.40813 0.55291 0.0
H1103 H 0.48324 0.34062 0.49818 0.0
H1104 H 0.48432 0.35535 0.53083 0.0
H1105 H 0.4918 0.37863 0.50314 0.0
H1106 H 0.56329 0.43077 0.50167 0.0
H1107 H 0.5517 0.47652 0.5154 0.0
loop_
_geom_bond_atom_site_label_1
_geom_bond_atom_site_label_2
_geom_bond_distance
_geom_bond_site_symmetry_2
_ccdc_geom_bond_type
H0 C1 0.949 . S
C1 H0 0.949 . S
C1 C2 1.395 . S
C1 C3 1.391 . S
C2 C1 1.395 . S
C2 C5 1.390 . S
C3 C1 1.391 . S
C3 C7 1.387 . S
C3 C8 1.491 . S
H4 C5 0.950 . S
C5 C2 1.390 . S
C5 H4 0.950 . S
C5 C6 1.378 . S
C6 C5 1.378 . S
C6 C7 1.409 . S
C7 C3 1.387 . S
C7 C6 1.409 . S
C7 H9 0.951 . S
C8 C3 1.491 . S
C8 C10 1.382 . S
C8 C12 1.404 . S
H9 C7 0.951 . S
C10 C8 1.382 . S
C10 C11 1.390 . S
C10 H15 0.949 . S
C11 C10 1.390 . S
C11 C16 1.399 . S
C12 C8 1.404 . S
C12 H13 0.950 . S
C12 C14 1.375 . S
H13 C12 0.950 . S
C14 C12 1.375 . S
C14 C16 1.382 . S
C14 H18 0.950 . S
H15 C10 0.949 . S
C16 C11 1.399 . S
C16 C14 1.382 . S
C16 H17 0.952 . S
H17 C16 0.952 . S
H18 C14 0.950 . S
H19 C20 0.949 . S
C20 H19 0.949 . S
C20 C21 1.395 . S
C20 C22 1.391 . S
C21 C20 1.395 . S
C21 C24 1.390 . S
C22 C20 1.391 . S
C22 C26 1.387 . S
C22 C27 1.491 . S
H23 C24 0.950 . S
C24 C21 1.390 . S
C24 H23 0.950 . S
C24 C25 1.378 . S
C25 C24 1.378 . S
C25 C26 1.409 . S
C26 C22 1.387 . S
C26 C25 1.409 . S
C26 H28 0.951 . S
C27 C22 1.491 . S
C27 C29 1.382 . S
C27 C31 1.404 . S
H28 C26 0.951 . S
C29 C27 1.382 . S
C29 C30 1.390 . S
C29 H34 0.949 . S
C30 C29 1.390 . S
C30 C35 1.399 . S
C31 C27 1.404 . S
C31 H32 0.950 . S
C31 C33 1.375 . S
H32 C31 0.950 . S
C33 C31 1.375 . S
C33 C35 1.382 . S
C33 H37 0.950 . S
H34 C29 0.949 . S
C35 C30 1.399 . S
C35 C33 1.382 . S
C35 H36 0.952 . S
H36 C35 0.952 . S
H37 C33 0.950 . S
H38 C39 0.949 . S
C39 H38 0.949 . S
C39 C40 1.395 . S
C39 C41 1.391 . S
C40 C39 1.395 . S
C40 C43 1.390 . S
C41 C39 1.391 . S
C41 C45 1.387 . S
C41 C46 1.491 . S
H42 C43 0.950 . S
C43 C40 1.390 . S
C43 H42 0.950 . S
C43 C44 1.378 . S
C44 C43 1.378 . S
C44 C45 1.409 . S
C45 C41 1.387 . S
C45 C44 1.409 . S
C45 H47 0.951 . S
C46 C41 1.491 . S
C46 C48 1.382 . S
C46 C50 1.404 . S
H47 C45 0.951 . S
C48 C46 1.382 . S
C48 C49 1.390 . S
C48 H53 0.949 . S
C49 C48 1.390 . S
C49 C54 1.399 . S
C50 C46 1.404 . S
C50 H51 0.950 . S
C50 C52 1.375 . S
H51 C50 0.950 . S
C52 C50 1.375 . S
C52 C54 1.382 . S
C52 H56 0.950 . S
H53 C48 0.949 . S
C54 C49 1.399 . S
C54 C52 1.382 . S
C54 H55 0.952 . S
H55 C54 0.952 . S
H56 C52 0.950 . S
H57 C58 0.949 . S
C58 H57 0.949 . S
C58 C59 1.395 . S
C58 C60 1.391 . S
C59 C58 1.395 . S
C59 C62 1.390 . S
C60 C58 1.391 . S
C60 C64 1.387 . S
C60 C65 1.491 . S
H61 C62 0.950 . S
C62 C59 1.390 . S
C62 H61 0.950 . S
C62 C63 1.378 . S
C63 C62 1.378 . S
C63 C64 1.409 . S
C64 C60 1.387 . S
C64 C63 1.409 . S
C64 H66 0.951 . S
C65 C60 1.491 . S
C65 C67 1.382 . S
C65 C69 1.404 . S
H66 C64 0.951 . S
C67 C65 1.382 . S
C67 C68 1.390 . S
C67 H72 0.949 . S
C68 C67 1.390 . S
C68 C73 1.399 . S
C69 C65 1.404 . S
C69 H70 0.950 . S
C69 C71 1.375 . S
H70 C69 0.950 . S
C71 C69 1.375 . S
C71 C73 1.382 . S
C71 H75 0.950 . S
H72 C67 0.949 . S
C73 C68 1.399 . S
C73 C71 1.382 . S
C73 H74 0.952 . S
H74 C73 0.952 . S
H75 C71 0.950 . S
H76 C77 0.949 . S
C77 H76 0.949 . S
C77 C78 1.395 . S
C77 C79 1.391 . S
C78 C77 1.395 . S
C78 C81 1.390 . S
C79 C77 1.391 . S
C79 C83 1.387 1_565 S
C79 C84 1.491 1_565 S
H80 C81 0.950 . S
C81 C78 1.390 . S
C81 H80 0.950 . S
C81 C82 1.378 . S
C82 C81 1.378 . S
C82 C83 1.409 1_565 S
C83 C79 1.387 1_545 S
C83 C82 1.409 1_545 S
C83 H85 0.951 . S
C84 C79 1.491 1_545 S
C84 C86 1.382 . S
C84 C88 1.404 . S
H85 C83 0.951 . S
C86 C84 1.382 . S
C86 C87 1.390 . S
C86 H91 0.949 . S
C87 C86 1.390 . S
C87 C92 1.399 . S
C88 C84 1.404 . S
C88 H89 0.950 . S
C88 C90 1.375 . S
H89 C88 0.950 . S
C90 C88 1.375 . S
C90 C92 1.382 . S
C90 H94 0.950 . S
H91 C86 0.949 . S
C92 C87 1.399 . S
C92 C90 1.382 . S
C92 H93 0.952 . S
H93 C92 0.952 . S
H94 C90 0.950 . S
H95 C96 0.949 . S
C96 H95 0.949 . S
C96 C97 1.395 . S
C96 C98 1.391 . S
C97 C96 1.395 . S
C97 C100 1.390 . S
C98 C96 1.391 . S
C98 C102 1.387 . S
C98 C103 1.491 . S
H99 C100 0.950 . S
C100 C97 1.390 . S
C100 H99 0.950 . S
C100 C101 1.378 . S
C101 C100 1.378 . S
C101 C102 1.409 . S
C102 C98 1.387 . S
C102 C101 1.409 . S
C102 H104 0.951 . S
C103 C98 1.491 . S
C103 C105 1.382 . S
C103 C107 1.404 . S
H104 C102 0.951 . S
C105 C103 1.382 . S
C105 C106 1.390 . S
C105 H110 0.949 . S
C106 C105 1.390 . S
C106 C111 1.399 . S
C107 C103 1.404 . S
C107 H108 0.950 . S
C107 C109 1.375 . S
H108 C107 0.950 . S
C109 C107 1.375 . S
C109 C111 1.382 . S
C109 H113 0.950 . S
H110 C105 0.949 . S
C111 C106 1.399 . S
C111 C109 1.382 . S
C111 H112 0.952 . S
H112 C111 0.952 . S
H113 C109 0.950 . S
H114 C115 0.949 . S
C115 H114 0.949 . S
C115 C116 1.395 . S
C115 C117 1.391 . S
C116 C115 1.395 . S
C116 C119 1.390 . S
C117 C115 1.391 . S
C117 C121 1.387 . S
C117 C122 1.491 . S
H118 C119 0.950 . S
C119 C116 1.390 . S
C119 H118 0.950 . S
C119 C120 1.378 . S
C120 C119 1.378 . S
C120 C121 1.409 . S
C121 C117 1.387 . S
C121 C120 1.409 . S
C121 H123 0.951 . S
C122 C117 1.491 . S
C122 C124 1.382 . S
C122 C126 1.404 . S
H123 C121 0.951 . S
C124 C122 1.382 . S
C124 C125 1.390 . S
C124 H129 0.949 . S
C125 C124 1.390 . S
C125 C130 1.399 . S
C126 C122 1.404 . S
C126 H127 0.950 . S
C126 C128 1.375 . S
H127 C126 0.950 . S
C128 C126 1.375 . S
C128 C130 1.382 . S
C128 H132 0.950 . S
H129 C124 0.949 . S
C130 C125 1.399 . S
C130 C128 1.382 . S
C130 H131 0.952 . S
H131 C130 0.952 . S
H132 C128 0.950 . S
H133 C134 0.949 . S
C134 H133 0.949 . S
C134 C135 1.395 . S
C134 C136 1.391 . S
C135 C134 1.395 . S
C135 C138 1.390 . S
C136 C134 1.391 . S
C136 C140 1.387 . S
C136 C141 1.491 . S
H137 C138 0.950 . S
C138 C135 1.390 . S
C138 H137 0.950 . S
C138 C139 1.378 . S
C139 C138 1.378 . S
C139 C140 1.409 . S
C140 C136 1.387 . S
C140 C139 1.409 . S
C140 H142 0.951 . S
C141 C136 1.491 . S
C141 C143 1.382 . S
C141 C145 1.404 . S
H142 C140 0.951 . S
C143 C141 1.382 . S
C143 C144 1.390 . S
C143 H148 0.949 . S
C144 C143 1.390 . S
C144 C149 1.399 . S
C145 C141 1.404 . S
C145 H146 0.950 . S
C145 C147 1.375 . S
H146 C145 0.950 . S
C147 C145 1.375 . S
C147 C149 1.382 . S
C147 H151 0.950 . S
H148 C143 0.949 . S
C149 C144 1.399 . S
C149 C147 1.382 . S
C149 H150 0.952 . S
H150 C149 0.952 . S
H151 C147 0.950 . S
O152 Zn153 1.943 1_455 S
O152 C168 1.256 . S
Zn153 O152 1.943 1_655 S
Zn153 O154 1.949 1_655 S
Zn153 O160 1.919 . S
Zn153 O165 1.924 . S
O154 Zn153 1.949 1_455 S
O154 Zn155 1.923 1_455 S
O154 Zn156 1.950 . S
O154 Zn157 1.945 . S
Zn155 O154 1.923 1_655 S
Zn155 O158 1.933 1_545 S
Zn155 O161 1.941 . S
Zn155 O162 1.965 1_655 S
Zn156 O154 1.950 . S
Zn156 O163 1.938 . S
Zn156 O164 1.906 . S
Zn156 O174 1.953 . S
Zn157 O154 1.945 . S
Zn157 O159 1.932 1_445 S
Zn157 O166 1.977 . S
Zn157 O167 1.910 1_455 S
O158 Zn155 1.933 1_565 S
O158 C169 1.226 . S
O159 Zn157 1.932 1_665 S
O159 C169 1.307 . S
O160 Zn153 1.919 . S
O160 C171 1.253 . S
O161 Zn155 1.941 . S
O161 C171 1.283 . S
O162 Zn155 1.965 1_455 S
O162 C170 1.303 . S
O163 Zn156 1.938 . S
O163 C170 1.247 . S
O164 Zn156 1.906 . S
O164 C172 1.304 . S
O165 Zn153 1.924 . S
O165 C173 1.311 . S
O166 Zn157 1.977 . S
O166 C172 1.272 . S
O167 Zn157 1.910 1_655 S
O167 C173 1.231 . S
C168 O152 1.256 . S
C168 O174 1.298 . S
C169 O158 1.226 . S
C169 O159 1.307 . S
C170 O162 1.303 . S
C170 O163 1.247 . S
C171 O160 1.253 . S
C171 O161 1.283 . S
C172 O164 1.304 . S
C172 O166 1.272 . S
C173 O165 1.311 . S
C173 O167 1.231 . S
O174 Zn156 1.953 . S
O174 C168 1.298 . S
O175 Zn176 1.953 . S
O175 C191 1.225 . S
Zn176 O175 1.953 . S
Zn176 O177 1.949 . S
Zn176 O183 1.919 . S
Zn176 O188 1.924 . S
O177 Zn176 1.949 . S
O177 Zn178 1.923 . S
O177 Zn179 1.950 . S
O177 Zn180 1.945 . S
Zn178 O177 1.923 . S
Zn178 O181 1.933 1_545 S
Zn178 O184 1.941 . S
Zn178 O185 1.965 . S
Zn179 O177 1.950 . S
Zn179 O186 1.938 . S
Zn179 O187 1.906 . S
Zn179 O197 1.953 . S
Zn180 O177 1.945 . S
Zn180 O182 1.932 1_545 S
Zn180 O189 1.977 . S
Zn180 O190 1.910 . S
O181 Zn178 1.933 1_565 S
O181 C192 1.226 . S
O182 Zn180 1.932 1_565 S
O182 C192 1.307 . S
O183 Zn176 1.919 . S
O183 C194 1.253 . S
O184 Zn178 1.941 . S
O184 C194 1.283 . S
O185 Zn178 1.965 . S
O185 C193 1.303 . S
O186 Zn179 1.938 . S
O186 C193 1.247 . S
O187 Zn179 1.906 . S
O187 C195 1.304 . S
O188 Zn176 1.924 . S
O188 C196 1.311 . S
O189 Zn180 1.977 . S
O189 C195 1.272 . S
O190 Zn180 1.910 . S
O190 C196 1.231 . S
C191 O175 1.225 . S
C191 O197 1.298 . S
C192 O181 1.226 . S
C192 O182 1.307 . S
C193 O185 1.303 . S
C193 O186 1.247 . S
C194 O183 1.253 . S
C194 O184 1.283 . S
C195 O187 1.304 . S
C195 O189 1.272 . S
C196 O188 1.311 . S
C196 O190 1.231 . S
O197 Zn179 1.953 . S
O197 C191 1.298 . S
O198 Zn199 1.953 . S
O198 C214 1.225 . S
Zn199 O198 1.953 . S
Zn199 O200 1.949 . S
Zn199 O206 1.919 . S
Zn199 O211 1.924 . S
O200 Zn199 1.949 . S
O200 Zn201 1.923 . S
O200 Zn202 1.950 . S
O200 Zn203 1.945 . S
Zn201 O200 1.923 . S
Zn201 O204 1.933 . S
Zn201 O207 1.941 . S
Zn201 O208 1.965 . S
Zn202 O200 1.950 . S
Zn202 O209 1.938 . S
Zn202 O210 1.906 . S
Zn202 O220 1.953 . S
Zn203 O200 1.945 . S
Zn203 O205 1.932 . S
Zn203 O212 1.977 . S
Zn203 O213 1.910 . S
O204 Zn201 1.933 . S
O204 C215 1.226 . S
O205 Zn203 1.932 . S
O205 C215 1.307 . S
O206 Zn199 1.919 . S
O206 C217 1.253 . S
O207 Zn201 1.941 . S
O207 C217 1.283 . S
O208 Zn201 1.965 . S
O208 C216 1.303 . S
O209 Zn202 1.938 . S
O209 C216 1.247 . S
O210 Zn202 1.906 . S
O210 C218 1.304 . S
O211 Zn199 1.924 . S
O211 C219 1.311 . S
O212 Zn203 1.977 . S
O212 C218 1.272 . S
O213 Zn203 1.910 . S
O213 C219 1.231 . S
C214 O198 1.225 . S
C214 O220 1.298 . S
C215 O204 1.226 . S
C215 O205 1.307 . S
C216 O208 1.303 . S
C216 O209 1.247 . S
C217 O206 1.253 . S
C217 O207 1.283 . S
C218 O210 1.304 . S
C218 O212 1.272 . S
C219 O211 1.311 . S
C219 O213 1.231 . S
O220 Zn202 1.953 . S
O220 C214 1.298 . S
O221 Zn222 1.953 . S
O221 C237 1.225 . S
Zn222 O221 1.953 . S
Zn222 O223 1.949 1_655 S
Zn222 O229 1.919 . S
Zn222 O234 1.924 . S
O223 Zn222 1.949 1_455 S
O223 Zn224 1.923 1_554 S
O223 Zn225 1.950 . S
O223 Zn226 1.945 . S
Zn224 O223 1.923 1_556 S
Zn224 O227 1.933 . S
Zn224 O230 1.941 1_455 S
Zn224 O231 1.965 . S
Zn225 O223 1.950 . S
Zn225 O232 1.938 . S
Zn225 O233 1.906 . S
Zn225 O243 1.953 . S
Zn226 O223 1.945 . S
Zn226 O228 1.932 1_554 S
Zn226 O235 1.977 . S
Zn226 O236 1.910 . S
O227 Zn224 1.933 . S
O227 C238 1.226 . S
O228 Zn226 1.932 1_556 S
O228 C238 1.307 . S
O229 Zn222 1.919 . S
O229 C240 1.253 1_554 S
O230 Zn224 1.941 1_655 S
O230 C240 1.283 . S
O231 Zn224 1.965 . S
O231 C239 1.303 1_556 S
O232 Zn225 1.938 . S
O232 C239 1.247 . S
O233 Zn225 1.906 . S
O233 C241 1.304 . S
O234 Zn222 1.924 . S
O234 C242 1.311 1_655 S
O235 Zn226 1.977 . S
O235 C241 1.272 . S
O236 Zn226 1.910 . S
O236 C242 1.231 . S
C237 O221 1.225 . S
C237 O243 1.298 1_655 S
C238 O227 1.226 . S
C238 O228 1.307 . S
C239 O231 1.303 1_554 S
C239 O232 1.247 . S
C240 O229 1.253 1_556 S
C240 O230 1.283 . S
C241 O233 1.304 . S
C241 O235 1.272 . S
C242 O234 1.311 1_455 S
C242 O236 1.231 . S
O243 Zn225 1.953 . S
O243 C237 1.298 1_455 S
H244 C252 0.929 . S
H245 C254 0.930 . S
H246 C256 0.930 . S
H247 C259 0.929 . S
H248 C262 0.930 . S
H249 C264 0.960 . S
H250 C264 0.960 . S
H251 C264 0.960 . S
C252 H244 0.929 . S
C252 C253 1.377 . S
C252 C254 1.384 . S
C253 C252 1.377 . S
C253 C259 1.390 . S
C254 H245 0.930 . S
C254 C252 1.384 . S
C254 C255 1.372 . S
C255 C254 1.372 . S
C255 C256 1.400 . S
C255 C260 1.490 . S
C256 H246 0.930 . S
C256 C255 1.400 . S
C256 C259 1.386 . S
H257 C273 0.930 . S
H258 C274 0.931 . S
C259 H247 0.929 . S
C259 C253 1.390 . S
C259 C256 1.386 . S
C260 C255 1.490 . S
C260 C262 1.395 . S
C260 C263 1.403 . S
H261 C267 0.930 . S
C262 H248 0.930 . S
C262 C260 1.395 . S
C262 C265 1.403 . S
C263 C260 1.403 . S
C263 C264 1.524 . S
C263 C267 1.400 . S
C264 H249 0.960 . S
C264 H250 0.960 . S
C264 H251 0.960 . S
C264 C263 1.524 . S
C265 C262 1.403 . S
C265 C266 1.392 . S
C265 C269 1.495 . S
C266 C265 1.392 . S
C266 C267 1.385 . S
C266 C268 1.478 . S
C267 H261 0.930 . S
C267 C263 1.400 . S
C267 C266 1.385 . S
C268 C266 1.478 . S
C268 C270 1.381 . S
C268 C274 1.383 . S
C269 C265 1.495 . S
C269 H275 0.959 . S
C269 H276 0.961 . S
C269 H277 0.960 . S
C270 C268 1.381 . S
C270 C271 1.394 . S
C270 H278 0.930 . S
C271 C270 1.394 . S
C271 C272 1.383 . S
C271 H279 0.929 . S
C272 C271 1.383 . S
C272 C273 1.377 . S
C273 H257 0.930 . S
C273 C272 1.377 . S
C273 C274 1.379 . S
C274 H258 0.931 . S
C274 C268 1.383 . S
C274 C273 1.379 . S
H275 C269 0.959 . S
H276 C269 0.961 . S
H277 C269 0.960 . S
H278 C270 0.930 . S
H279 C271 0.929 . S
H280 C288 0.929 . S
H281 C290 0.930 . S
H282 C292 0.930 . S
H283 C295 0.929 . S
H284 C298 0.930 . S
H285 C300 0.960 . S
H286 C300 0.960 . S
H287 C300 0.960 . S
C288 H280 0.929 . S
C288 C289 1.377 . S
C288 C290 1.384 . S
C289 C288 1.377 . S
C289 C295 1.390 . S
C290 H281 0.930 . S
C290 C288 1.384 . S
C290 C291 1.372 . S
C291 C290 1.372 . S
C291 C292 1.400 . S
C291 C296 1.490 . S
C292 H282 0.930 . S
C292 C291 1.400 . S
C292 C295 1.386 . S
H293 C309 0.930 . S
H294 C310 0.931 . S
C295 H283 0.929 . S
C295 C289 1.390 . S
C295 C292 1.386 . S
C296 C291 1.490 . S
C296 C298 1.395 . S
C296 C299 1.403 . S
H297 C303 0.930 . S
C298 H284 0.930 . S
C298 C296 1.395 . S
C298 C301 1.403 . S
C299 C296 1.403 . S
C299 C300 1.524 . S
C299 C303 1.400 . S
C300 H285 0.960 . S
C300 H286 0.960 . S
C300 H287 0.960 . S
C300 C299 1.524 . S
C301 C298 1.403 . S
C301 C302 1.392 . S
C301 C305 1.495 1_565 S
C302 C301 1.392 . S
C302 C303 1.385 . S
C302 C304 1.478 . S
C303 H297 0.930 . S
C303 C299 1.400 . S
C303 C302 1.385 . S
C304 C302 1.478 . S
C304 C306 1.381 . S
C304 C310 1.383 . S
C305 C301 1.495 1_545 S
C305 H311 0.959 . S
C305 H312 0.961 . S
C305 H313 0.960 . S
C306 C304 1.381 . S
C306 C307 1.394 . S
C306 H314 0.930 . S
C307 C306 1.394 . S
C307 C308 1.383 . S
C307 H315 0.929 1_565 S
C308 C307 1.383 . S
C308 C309 1.377 . S
C309 H293 0.930 . S
C309 C308 1.377 . S
C309 C310 1.379 . S
C310 H294 0.931 . S
C310 C304 1.383 . S
C310 C309 1.379 . S
H311 C305 0.959 . S
H312 C305 0.961 . S
H313 C305 0.960 . S
H314 C306 0.930 . S
H315 C307 0.929 1_545 S
H316 C324 0.929 . S
H317 C326 0.930 . S
H318 C328 0.930 . S
H319 C331 0.929 . S
H320 C334 0.930 . S
H321 C336 0.960 . S
H322 C336 0.960 . S
H323 C336 0.960 . S
C324 H316 0.929 . S
C324 C325 1.377 . S
C324 C326 1.384 . S
C325 C324 1.377 . S
C325 C331 1.390 . S
C326 H317 0.930 . S
C326 C324 1.384 . S
C326 C327 1.372 . S
C327 C326 1.372 . S
C327 C328 1.400 . S
C327 C332 1.490 . S
C328 H318 0.930 . S
C328 C327 1.400 . S
C328 C331 1.386 . S
H329 C345 0.930 . S
H330 C346 0.931 . S
C331 H319 0.929 . S
C331 C325 1.390 . S
C331 C328 1.386 . S
C332 C327 1.490 . S
C332 C334 1.395 . S
C332 C335 1.403 . S
H333 C339 0.930 . S
C334 H320 0.930 . S
C334 C332 1.395 . S
C334 C337 1.403 . S
C335 C332 1.403 . S
C335 C336 1.524 . S
C335 C339 1.400 . S
C336 H321 0.960 . S
C336 H322 0.960 . S
C336 H323 0.960 . S
C336 C335 1.524 . S
C337 C334 1.403 . S
C337 C338 1.392 . S
C337 C341 1.495 . S
C338 C337 1.392 . S
C338 C339 1.385 . S
C338 C340 1.478 . S
C339 H333 0.930 . S
C339 C335 1.400 . S
C339 C338 1.385 . S
C340 C338 1.478 . S
C340 C342 1.381 . S
C340 C346 1.383 . S
C341 C337 1.495 . S
C341 H347 0.959 . S
C341 H348 0.961 . S
C341 H349 0.960 . S
C342 C340 1.381 . S
C342 C343 1.394 . S
C342 H350 0.930 . S
C343 C342 1.394 . S
C343 C344 1.383 . S
C343 H351 0.929 . S
C344 C343 1.383 . S
C344 C345 1.377 . S
C345 H329 0.930 . S
C345 C344 1.377 . S
C345 C346 1.379 . S
C346 H330 0.931 . S
C346 C340 1.383 . S
C346 C345 1.379 . S
H347 C341 0.959 . S
H348 C341 0.961 . S
H349 C341 0.960 . S
H350 C342 0.930 . S
H351 C343 0.929 . S
H352 C360 0.929 . S
H353 C362 0.930 . S
H354 C364 0.930 . S
H355 C367 0.929 . S
H356 C370 0.930 . S
H357 C372 0.960 . S
H358 C372 0.960 . S
H359 C372 0.960 . S
C360 H352 0.929 . S
C360 C361 1.377 . S
C360 C362 1.384 . S
C361 C360 1.377 . S
C361 C367 1.390 . S
C362 H353 0.930 . S
C362 C360 1.384 . S
C362 C363 1.372 . S
C363 C362 1.372 . S
C363 C364 1.400 . S
C363 C368 1.490 . S
C364 H354 0.930 . S
C364 C363 1.400 . S
C364 C367 1.386 . S
H365 C381 0.930 . S
H366 C382 0.931 1_455 S
C367 H355 0.929 . S
C367 C361 1.390 . S
C367 C364 1.386 . S
C368 C363 1.490 . S
C368 C370 1.395 . S
C368 C371 1.403 . S
H369 C375 0.930 . S
C370 H356 0.930 . S
C370 C368 1.395 . S
C370 C373 1.403 . S
C371 C368 1.403 . S
C371 C372 1.524 . S
C371 C375 1.400 . S
C372 H357 0.960 . S
C372 H358 0.960 . S
C372 H359 0.960 . S
C372 C371 1.524 . S
C373 C370 1.403 . S
C373 C374 1.392 . S
C373 C377 1.495 . S
C374 C373 1.392 . S
C374 C375 1.385 . S
C374 C376 1.478 . S
C375 H369 0.930 . S
C375 C371 1.400 . S
C375 C374 1.385 . S
C376 C374 1.478 . S
C376 C378 1.381 . S
C376 C382 1.383 . S
C377 C373 1.495 . S
C377 H383 0.959 . S
C377 H384 0.961 . S
C377 H385 0.960 . S
C378 C376 1.381 . S
C378 C379 1.394 . S
C378 H386 0.930 . S
C379 C378 1.394 . S
C379 C380 1.383 . S
C379 H387 0.929 . S
C380 C379 1.383 . S
C380 C381 1.377 1_655 S
C381 H365 0.930 . S
C381 C380 1.377 1_455 S
C381 C382 1.379 1_455 S
C382 H366 0.931 1_655 S
C382 C376 1.383 . S
C382 C381 1.379 1_655 S
H383 C377 0.959 . S
H384 C377 0.961 . S
H385 C377 0.960 . S
H386 C378 0.930 . S
H387 C379 0.929 . S
H388 C396 0.929 . S
H389 C398 0.930 . S
H390 C400 0.930 . S
H391 C403 0.929 . S
H392 C406 0.930 . S
H393 C408 0.960 . S
H394 C408 0.960 . S
H395 C408 0.960 . S
C396 H388 0.929 . S
C396 C397 1.377 . S
C396 C398 1.384 . S
C397 C396 1.377 . S
C397 C403 1.390 . S
C398 H389 0.930 . S
C398 C396 1.384 . S
C398 C399 1.372 . S
C399 C398 1.372 . S
C399 C400 1.400 . S
C399 C404 1.490 . S
C400 H390 0.930 . S
C400 C399 1.400 . S
C400 C403 1.386 . S
H401 C417 0.930 . S
H402 C418 0.931 . S
C403 H391 0.929 . S
C403 C397 1.390 . S
C403 C400 1.386 . S
C404 C399 1.490 . S
C404 C406 1.395 . S
C404 C407 1.403 . S
H405 C411 0.930 . S
C406 H392 0.930 . S
C406 C404 1.395 . S
C406 C409 1.403 . S
C407 C404 1.403 . S
C407 C408 1.524 . S
C407 C411 1.400 . S
C408 H393 0.960 . S
C408 H394 0.960 . S
C408 H395 0.960 . S
C408 C407 1.524 . S
C409 C406 1.403 . S
C409 C410 1.392 . S
C409 C413 1.495 . S
C410 C409 1.392 . S
C410 C411 1.385 . S
C410 C412 1.478 . S
C411 H405 0.930 . S
C411 C407 1.400 . S
C411 C410 1.385 . S
C412 C410 1.478 . S
C412 C414 1.381 . S
C412 C418 1.383 . S
C413 C409 1.495 . S
C413 H419 0.959 . S
C413 H420 0.961 . S
C413 H421 0.960 . S
C414 C412 1.381 . S
C414 C415 1.394 . S
C414 H422 0.930 . S
C415 C414 1.394 . S
C415 C416 1.383 . S
C415 H423 0.929 . S
C416 C415 1.383 . S
C416 C417 1.377 . S
C417 H401 0.930 . S
C417 C416 1.377 . S
C417 C418 1.379 . S
C418 H402 0.931 . S
C418 C412 1.383 . S
C418 C417 1.379 . S
H419 C413 0.959 . S
H420 C413 0.961 . S
H421 C413 0.960 . S
H422 C414 0.930 . S
H423 C415 0.929 . S
H424 C432 0.929 . S
H425 C434 0.930 . S
H426 C436 0.930 . S
H427 C439 0.929 . S
H428 C442 0.930 . S
H429 C444 0.960 . S
H430 C444 0.960 1_545 S
H431 C444 0.960 . S
C432 H424 0.929 . S
C432 C433 1.377 . S
C432 C434 1.384 . S
C433 C432 1.377 . S
C433 C439 1.390 . S
C434 H425 0.930 . S
C434 C432 1.384 . S
C434 C435 1.372 . S
C435 C434 1.372 . S
C435 C436 1.400 . S
C435 C440 1.490 . S
C436 H426 0.930 . S
C436 C435 1.400 . S
C436 C439 1.386 . S
H437 C453 0.930 . S
H438 C454 0.931 . S
C439 H427 0.929 . S
C439 C433 1.390 . S
C439 C436 1.386 . S
C440 C435 1.490 . S
C440 C442 1.395 . S
C440 C443 1.403 . S
H441 C447 0.930 . S
C442 H428 0.930 . S
C442 C440 1.395 . S
C442 C445 1.403 . S
C443 C440 1.403 . S
C443 C444 1.524 . S
C443 C447 1.400 . S
C444 H429 0.960 . S
C444 H430 0.960 1_565 S
C444 H431 0.960 . S
C444 C443 1.524 . S
C445 C442 1.403 . S
C445 C446 1.392 . S
C445 C449 1.495 . S
C446 C445 1.392 . S
C446 C447 1.385 . S
C446 C448 1.478 . S
C447 H441 0.930 . S
C447 C443 1.400 . S
C447 C446 1.385 . S
C448 C446 1.478 . S
C448 C450 1.381 1_565 S
C448 C454 1.383 . S
C449 C445 1.495 . S
C449 H455 0.959 . S
C449 H456 0.961 . S
C449 H457 0.960 . S
C450 C448 1.381 1_545 S
C450 C451 1.394 . S
C450 H458 0.930 . S
C451 C450 1.394 . S
C451 C452 1.383 . S
C451 H459 0.929 . S
C452 C451 1.383 . S
C452 C453 1.377 1_545 S
C453 H437 0.930 . S
C453 C452 1.377 1_565 S
C453 C454 1.379 . S
C454 H438 0.931 . S
C454 C448 1.383 . S
C454 C453 1.379 . S
H455 C449 0.959 . S
H456 C449 0.961 . S
H457 C449 0.960 . S
H458 C450 0.930 . S
H459 C451 0.929 . S
H460 C468 0.929 . S
H461 C470 0.930 . S
H462 C472 0.930 . S
H463 C475 0.929 . S
H464 C478 0.930 . S
H465 C480 0.960 . S
H466 C480 0.960 . S
H467 C480 0.960 . S
C468 H460 0.929 . S
C468 C469 1.377 . S
C468 C470 1.384 . S
C469 C468 1.377 . S
C469 C475 1.390 . S
C470 H461 0.930 . S
C470 C468 1.384 . S
C470 C471 1.372 . S
C471 C470 1.372 . S
C471 C472 1.400 . S
C471 C476 1.490 . S
C472 H462 0.930 . S
C472 C471 1.400 . S
C472 C475 1.386 . S
H473 C489 0.930 . S
H474 C490 0.931 . S
C475 H463 0.929 . S
C475 C469 1.390 . S
C475 C472 1.386 . S
C476 C471 1.490 . S
C476 C478 1.395 . S
C476 C479 1.403 . S
H477 C483 0.930 . S
C478 H464 0.930 . S
C478 C476 1.395 . S
C478 C481 1.403 . S
C479 C476 1.403 . S
C479 C480 1.524 . S
C479 C483 1.400 . S
C480 H465 0.960 . S
C480 H466 0.960 . S
C480 H467 0.960 . S
C480 C479 1.524 . S
C481 C478 1.403 . S
C481 C482 1.392 . S
C481 C485 1.495 . S
C482 C481 1.392 . S
C482 C483 1.385 . S
C482 C484 1.478 . S
C483 H477 0.930 . S
C483 C479 1.400 . S
C483 C482 1.385 . S
C484 C482 1.478 . S
C484 C486 1.381 . S
C484 C490 1.383 . S
C485 C481 1.495 . S
C485 H491 0.959 . S
C485 H492 0.961 . S
C485 H493 0.960 . S
C486 C484 1.381 . S
C486 C487 1.394 . S
C486 H494 0.930 1_556 S
C487 C486 1.394 . S
C487 C488 1.383 . S
C487 H495 0.929 1_556 S
C488 C487 1.383 . S
C488 C489 1.377 . S
C489 H473 0.930 . S
C489 C488 1.377 . S
C489 C490 1.379 . S
C490 H474 0.931 . S
C490 C484 1.383 . S
C490 C489 1.379 . S
H491 C485 0.959 . S
H492 C485 0.961 . S
H493 C485 0.960 . S
H494 C486 0.930 1_554 S
H495 C487 0.929 1_554 S
H496 C504 0.929 . S
H497 C506 0.930 . S
H498 C508 0.930 . S
H499 C511 0.929 . S
H500 C514 0.930 . S
H501 C516 0.960 . S
H502 C516 0.960 . S
H503 C516 0.960 . S
C504 H496 0.929 . S
C504 C505 1.377 . S
C504 C506 1.384 . S
C505 C504 1.377 . S
C505 C511 1.390 . S
C506 H497 0.930 . S
C506 C504 1.384 . S
C506 C507 1.372 . S
C507 C506 1.372 . S
C507 C508 1.400 . S
C507 C512 1.490 . S
C508 H498 0.930 . S
C508 C507 1.400 . S
C508 C511 1.386 . S
H509 C525 0.930 . S
H510 C526 0.931 . S
C511 H499 0.929 . S
C511 C505 1.390 . S
C511 C508 1.386 . S
C512 C507 1.490 . S
C512 C514 1.395 . S
C512 C515 1.403 . S
H513 C519 0.930 . S
C514 H500 0.930 . S
C514 C512 1.395 . S
C514 C517 1.403 . S
C515 C512 1.403 . S
C515 C516 1.524 . S
C515 C519 1.400 . S
C516 H501 0.960 . S
C516 H502 0.960 . S
C516 H503 0.960 . S
C516 C515 1.524 . S
C517 C514 1.403 . S
C517 C518 1.392 . S
C517 C521 1.495 . S
C518 C517 1.392 . S
C518 C519 1.385 . S
C518 C520 1.478 . S
C519 H513 0.930 . S
C519 C515 1.400 . S
C519 C518 1.385 . S
C520 C518 1.478 . S
C520 C522 1.381 . S
C520 C526 1.383 . S
C521 C517 1.495 . S
C521 H527 0.959 . S
C521 H528 0.961 . S
C521 H529 0.960 . S
C522 C520 1.381 . S
C522 C523 1.394 . S
C522 H530 0.930 . S
C523 C522 1.394 . S
C523 C524 1.383 . S
C523 H531 0.929 . S
C524 C523 1.383 . S
C524 C525 1.377 . S
C525 H509 0.930 . S
C525 C524 1.377 . S
C525 C526 1.379 . S
C526 H510 0.931 . S
C526 C520 1.383 . S
C526 C525 1.379 . S
H527 C521 0.959 . S
H528 C521 0.961 . S
H529 C521 0.960 . S
H530 C522 0.930 . S
H531 C523 0.929 . S
H532 C540 0.929 . S
H533 C542 0.930 . S
H534 C544 0.930 . S
H535 C547 0.929 . S
H536 C550 0.930 . S
H537 C552 0.960 . S
H538 C552 0.960 . S
H539 C552 0.960 . S
C540 H532 0.929 . S
C540 C541 1.377 . S
C540 C542 1.384 . S
C541 C540 1.377 . S
C541 C547 1.390 . S
C542 H533 0.930 . S
C542 C540 1.384 . S
C542 C543 1.372 . S
C543 C542 1.372 . S
C543 C544 1.400 . S
C543 C548 1.490 . S
C544 H534 0.930 . S
C544 C543 1.400 . S
C544 C547 1.386 . S
H545 C561 0.930 . S
H546 C562 0.931 . S
C547 H535 0.929 . S
C547 C541 1.390 . S
C547 C544 1.386 . S
C548 C543 1.490 . S
C548 C550 1.395 . S
C548 C551 1.403 . S
H549 C555 0.930 . S
C550 H536 0.930 . S
C550 C548 1.395 . S
C550 C553 1.403 . S
C551 C548 1.403 . S
C551 C552 1.524 . S
C551 C555 1.400 . S
C552 H537 0.960 . S
C552 H538 0.960 . S
C552 H539 0.960 . S
C552 C551 1.524 . S
C553 C550 1.403 . S
C553 C554 1.392 . S
C553 C557 1.495 . S
C554 C553 1.392 . S
C554 C555 1.385 . S
C554 C556 1.478 . S
C555 H549 0.930 . S
C555 C551 1.400 . S
C555 C554 1.385 . S
C556 C554 1.478 . S
C556 C558 1.381 . S
C556 C562 1.383 . S
C557 C553 1.495 . S
C557 H563 0.959 1_455 S
C557 H564 0.961 1_455 S
C557 H565 0.960 . S
C558 C556 1.381 . S
C558 C559 1.394 . S
C558 H566 0.930 . S
C559 C558 1.394 . S
C559 C560 1.383 . S
C559 H567 0.929 . S
C560 C559 1.383 . S
C560 C561 1.377 . S
C561 H545 0.930 . S
C561 C560 1.377 . S
C561 C562 1.379 . S
C562 H546 0.931 . S
C562 C556 1.383 . S
C562 C561 1.379 . S
H563 C557 0.959 1_655 S
H564 C557 0.961 1_655 S
H565 C557 0.960 . S
H566 C558 0.930 . S
H567 C559 0.929 . S
H568 C576 0.929 . S
H569 C578 0.930 . S
H570 C580 0.930 . S
H571 C583 0.929 1_554 S
H572 C586 0.930 . S
H573 C588 0.960 . S
H574 C588 0.960 1_556 S
H575 C588 0.960 . S
C576 H568 0.929 . S
C576 C577 1.377 . S
C576 C578 1.384 . S
C577 C576 1.377 . S
C577 C583 1.390 . S
C578 H569 0.930 . S
C578 C576 1.384 . S
C578 C579 1.372 . S
C579 C578 1.372 . S
C579 C580 1.400 1_556 S
C579 C584 1.490 . S
C580 H570 0.930 . S
C580 C579 1.400 1_554 S
C580 C583 1.386 1_554 S
H581 C597 0.930 . S
H582 C598 0.931 . S
C583 H571 0.929 1_556 S
C583 C577 1.390 . S
C583 C580 1.386 1_556 S
C584 C579 1.490 . S
C584 C586 1.395 . S
C584 C587 1.403 1_556 S
H585 C591 0.930 . S
C586 H572 0.930 . S
C586 C584 1.395 . S
C586 C589 1.403 . S
C587 C584 1.403 1_554 S
C587 C588 1.524 . S
C587 C591 1.400 . S
C588 H573 0.960 . S
C588 H574 0.960 1_554 S
C588 H575 0.960 . S
C588 C587 1.524 . S
C589 C586 1.403 . S
C589 C590 1.392 1_556 S
C589 C593 1.495 . S
C590 C589 1.392 1_554 S
C590 C591 1.385 . S
C590 C592 1.478 . S
C591 H585 0.930 . S
C591 C587 1.400 . S
C591 C590 1.385 . S
C592 C590 1.478 . S
C592 C594 1.381 . S
C592 C598 1.383 . S
C593 C589 1.495 . S
C593 H599 0.959 . S
C593 H600 0.961 1_556 S
C593 H601 0.960 . S
C594 C592 1.381 . S
C594 C595 1.394 . S
C594 H602 0.930 1_554 S
C595 C594 1.394 . S
C595 C596 1.383 . S
C595 H603 0.929 . S
C596 C595 1.383 . S
C596 C597 1.377 . S
C597 H581 0.930 . S
C597 C596 1.377 . S
C597 C598 1.379 . S
C598 H582 0.931 . S
C598 C592 1.383 . S
C598 C597 1.379 . S
H599 C593 0.959 . S
H600 C593 0.961 1_554 S
H601 C593 0.960 . S
H602 C594 0.930 1_556 S
H603 C595 0.929 . S
H604 C612 0.929 . S
H605 C614 0.930 . S
H606 C616 0.930 . S
H607 C619 0.929 . S
H608 C622 0.930 . S
H609 C624 0.960 . S
H610 C624 0.960 . S
H611 C624 0.960 . S
C612 H604 0.929 . S
C612 C613 1.377 . S
C612 C614 1.384 . S
C613 C612 1.377 . S
C613 C619 1.390 . S
C614 H605 0.930 . S
C614 C612 1.384 . S
C614 C615 1.372 . S
C615 C614 1.372 . S
C615 C616 1.400 . S
C615 C620 1.490 . S
C616 H606 0.930 . S
C616 C615 1.400 . S
C616 C619 1.386 . S
H617 C633 0.930 . S
H618 C634 0.931 . S
C619 H607 0.929 . S
C619 C613 1.390 . S
C619 C616 1.386 . S
C620 C615 1.490 . S
C620 C622 1.395 . S
C620 C623 1.403 . S
H621 C627 0.930 . S
C622 H608 0.930 . S
C622 C620 1.395 . S
C622 C625 1.403 . S
C623 C620 1.403 . S
C623 C624 1.524 . S
C623 C627 1.400 . S
C624 H609 0.960 . S
C624 H610 0.960 . S
C624 H611 0.960 . S
C624 C623 1.524 . S
C625 C622 1.403 . S
C625 C626 1.392 . S
C625 C629 1.495 . S
C626 C625 1.392 . S
C626 C627 1.385 . S
C626 C628 1.478 . S
C627 H621 0.930 . S
C627 C623 1.400 . S
C627 C626 1.385 . S
C628 C626 1.478 . S
C628 C630 1.381 . S
C628 C634 1.383 . S
C629 C625 1.495 . S
C629 H635 0.959 . S
C629 H636 0.961 . S
C629 H637 0.960 . S
C630 C628 1.381 . S
C630 C631 1.394 . S
C630 H638 0.930 . S
C631 C630 1.394 . S
C631 C632 1.383 . S
C631 H639 0.929 1_655 S
C632 C631 1.383 . S
C632 C633 1.377 . S
C633 H617 0.930 . S
C633 C632 1.377 . S
C633 C634 1.379 . S
C634 H618 0.931 . S
C634 C628 1.383 . S
C634 C633 1.379 . S
H635 C629 0.959 . S
H636 C629 0.961 . S
H637 C629 0.960 . S
H638 C630 0.930 . S
H639 C631 0.929 1_455 S
H640 C648 0.929 . S
H641 C650 0.930 . S
H642 C652 0.930 . S
H643 C655 0.929 . S
H644 C658 0.930 . S
H645 C660 0.960 . S
H646 C660 0.960 . S
H647 C660 0.960 . S
C648 H640 0.929 . S
C648 C649 1.377 . S
C648 C650 1.384 . S
C649 C648 1.377 . S
C649 C655 1.390 . S
C650 H641 0.930 . S
C650 C648 1.384 . S
C650 C651 1.372 . S
C651 C650 1.372 . S
C651 C652 1.400 . S
C651 C656 1.490 . S
C652 H642 0.930 . S
C652 C651 1.400 . S
C652 C655 1.386 . S
H653 C669 0.930 . S
H654 C670 0.931 . S
C655 H643 0.929 . S
C655 C649 1.390 . S
C655 C652 1.386 . S
C656 C651 1.490 . S
C656 C658 1.395 . S
C656 C659 1.403 . S
H657 C663 0.930 . S
C658 H644 0.930 . S
C658 C656 1.395 . S
C658 C661 1.403 . S
C659 C656 1.403 . S
C659 C660 1.524 . S
C659 C663 1.400 . S
C660 H645 0.960 . S
C660 H646 0.960 . S
C660 H647 0.960 . S
C660 C659 1.524 . S
C661 C658 1.403 . S
C661 C662 1.392 . S
C661 C665 1.495 . S
C662 C661 1.392 . S
C662 C663 1.385 . S
C662 C664 1.478 . S
C663 H657 0.930 . S
C663 C659 1.400 . S
C663 C662 1.385 . S
C664 C662 1.478 . S
C664 C666 1.381 . S
C664 C670 1.383 . S
C665 C661 1.495 . S
C665 H671 0.959 . S
C665 H672 0.961 . S
C665 H673 0.960 . S
C666 C664 1.381 . S
C666 C667 1.394 . S
C666 H674 0.930 . S
C667 C666 1.394 . S
C667 C668 1.383 . S
C667 H675 0.929 . S
C668 C667 1.383 . S
C668 C669 1.377 . S
C669 H653 0.930 . S
C669 C668 1.377 . S
C669 C670 1.379 . S
C670 H654 0.931 . S
C670 C664 1.383 . S
C670 C669 1.379 . S
H671 C665 0.959 . S
H672 C665 0.961 . S
H673 C665 0.960 . S
H674 C666 0.930 . S
H675 C667 0.929 . S
H676 C684 0.929 . S
H677 C686 0.892 1_455 S
H678 C688 0.930 . S
H679 C691 0.931 . S
H680 C694 0.930 . S
H681 C696 0.960 . S
H682 C696 0.960 . S
H683 C696 0.960 . S
C684 H676 0.929 . S
C684 C685 1.377 . S
C684 C686 1.384 . S
C685 C684 1.377 . S
C685 C691 1.390 . S
C686 H677 0.892 1_655 S
C686 C684 1.384 . S
C686 C687 1.372 . S
C687 C686 1.372 . S
C687 C688 1.400 . S
C687 C692 1.490 . S
C688 H678 0.930 . S
C688 C687 1.400 . S
C688 C691 1.386 . S
H689 C705 0.930 . S
H690 C706 0.931 . S
C691 H679 0.931 . S
C691 C685 1.390 . S
C691 C688 1.386 . S
C692 C687 1.490 . S
C692 C694 1.395 1_545 S
C692 C695 1.403 . S
H693 C699 0.930 . S
C694 H680 0.930 . S
C694 C692 1.395 1_565 S
C694 C697 1.403 . S
C695 C692 1.403 . S
C695 C696 1.524 . S
C695 C699 1.400 . S
C696 H681 0.960 . S
C696 H682 0.960 . S
C696 H683 0.960 . S
C696 C695 1.524 . S
C697 C694 1.403 . S
C697 C698 1.392 1_565 S
C697 C701 1.495 . S
C698 C697 1.392 1_545 S
C698 C699 1.385 . S
C698 C700 1.478 . S
C699 H693 0.930 . S
C699 C695 1.400 . S
C699 C698 1.385 . S
C700 C698 1.478 . S
C700 C702 1.381 1_655 S
C700 C706 1.383 . S
C701 C697 1.495 . S
C701 H707 0.959 1_655 S
C701 H708 0.961 . S
C701 H709 0.960 1_655 S
C702 C700 1.381 1_455 S
C702 C703 1.394 . S
C702 H710 0.930 . S
C703 C702 1.394 . S
C703 C704 1.383 1_455 S
C703 H711 0.929 . S
C704 C703 1.383 1_655 S
C704 C705 1.377 . S
C705 H689 0.930 . S
C705 C704 1.377 . S
C705 C706 1.379 . S
C706 H690 0.931 . S
C706 C700 1.383 . S
C706 C705 1.379 . S
H707 C701 0.959 1_455 S
H708 C701 0.961 . S
H709 C701 0.960 1_455 S
H710 C702 0.930 . S
H711 C703 0.929 . S
H712 C720 0.929 . S
H713 C722 0.930 . S
H714 C724 0.930 . S
H715 C727 0.929 . S
H716 C730 0.930 . S
H717 C732 0.960 . S
H718 C732 0.960 . S
H719 C732 0.960 . S
C720 H712 0.929 . S
C720 C721 1.377 . S
C720 C722 1.384 . S
C721 C720 1.377 . S
C721 C727 1.390 . S
C722 H713 0.930 . S
C722 C720 1.384 . S
C722 C723 1.372 . S
C723 C722 1.372 . S
C723 C724 1.400 . S
C723 C728 1.490 . S
C724 H714 0.930 . S
C724 C723 1.400 . S
C724 C727 1.386 . S
H725 C741 0.930 . S
H726 C742 0.931 . S
C727 H715 0.929 . S
C727 C721 1.390 . S
C727 C724 1.386 . S
C728 C723 1.490 . S
C728 C730 1.395 . S
C728 C731 1.403 . S
H729 C735 0.930 . S
C730 H716 0.930 . S
C730 C728 1.395 . S
C730 C733 1.403 . S
C731 C728 1.403 . S
C731 C732 1.524 . S
C731 C735 1.400 . S
C732 H717 0.960 . S
C732 H718 0.960 . S
C732 H719 0.960 . S
C732 C731 1.524 . S
C733 C730 1.403 . S
C733 C734 1.392 . S
C733 C737 1.495 . S
C734 C733 1.392 . S
C734 C735 1.385 . S
C734 C736 1.478 . S
C735 H729 0.930 . S
C735 C731 1.400 . S
C735 C734 1.385 . S
C736 C734 1.478 . S
C736 C738 1.381 . S
C736 C742 1.383 . S
C737 C733 1.495 . S
C737 H743 0.959 . S
C737 H744 0.961 . S
C737 H745 0.960 . S
C738 C736 1.381 . S
C738 C739 1.394 . S
C738 H746 0.930 . S
C739 C738 1.394 . S
C739 C740 1.383 . S
C739 H747 0.929 . S
C740 C739 1.383 . S
C740 C741 1.377 . S
C741 H725 0.930 . S
C741 C740 1.377 . S
C741 C742 1.379 . S
C742 H726 0.931 . S
C742 C736 1.383 . S
C742 C741 1.379 . S
H743 C737 0.959 . S
H744 C737 0.961 . S
H745 C737 0.960 . S
H746 C738 0.930 . S
H747 C739 0.929 . S
H748 C756 0.929 . S
H749 C758 0.930 . S
H750 C760 0.930 . S
H751 C763 0.929 . S
H752 C766 0.930 . S
H753 C768 0.960 . S
H754 C768 0.960 . S
H755 C768 0.960 . S
C756 H748 0.929 . S
C756 C757 1.377 . S
C756 C758 1.384 . S
C757 C756 1.377 . S
C757 C763 1.390 . S
C758 H749 0.930 . S
C758 C756 1.384 . S
C758 C759 1.372 . S
C759 C758 1.372 . S
C759 C760 1.400 . S
C759 C764 1.490 . S
C760 H750 0.930 . S
C760 C759 1.400 . S
C760 C763 1.386 . S
H761 C777 0.930 . S
H762 C778 0.931 . S
C763 H751 0.929 . S
C763 C757 1.390 . S
C763 C760 1.386 . S
C764 C759 1.490 . S
C764 C766 1.395 . S
C764 C767 1.403 . S
H765 C771 0.930 . S
C766 H752 0.930 . S
C766 C764 1.395 . S
C766 C769 1.403 . S
C767 C764 1.403 . S
C767 C768 1.524 . S
C767 C771 1.400 . S
C768 H753 0.960 . S
C768 H754 0.960 . S
C768 H755 0.960 . S
C768 C767 1.524 . S
C769 C766 1.403 . S
C769 C770 1.392 . S
C769 C773 1.495 . S
C770 C769 1.392 . S
C770 C771 1.385 . S
C770 C772 1.478 . S
C771 H765 0.930 . S
C771 C767 1.400 . S
C771 C770 1.385 . S
C772 C770 1.478 . S
C772 C774 1.381 . S
C772 C778 1.383 . S
C773 C769 1.495 . S
C773 H779 0.959 . S
C773 H780 0.961 . S
C773 H781 0.960 . S
C774 C772 1.381 . S
C774 C775 1.394 . S
C774 H782 0.930 . S
C775 C774 1.394 . S
C775 C776 1.383 . S
C775 H783 0.929 . S
C776 C775 1.383 . S
C776 C777 1.377 . S
C777 H761 0.930 . S
C777 C776 1.377 . S
C777 C778 1.379 . S
C778 H762 0.931 . S
C778 C772 1.383 . S
C778 C777 1.379 . S
H779 C773 0.959 . S
H780 C773 0.961 . S
H781 C773 0.960 . S
H782 C774 0.930 . S
H783 C775 0.929 . S
H784 C792 0.929 . S
H785 C794 0.930 . S
H786 C796 0.930 . S
H787 C799 0.929 . S
H788 C802 0.930 . S
H789 C804 0.960 . S
H790 C804 0.960 . S
H791 C804 0.960 . S
C792 H784 0.929 . S
C792 C793 1.377 . S
C792 C794 1.384 . S
C793 C792 1.377 . S
C793 C799 1.390 . S
C794 H785 0.930 . S
C794 C792 1.384 . S
C794 C795 1.372 . S
C795 C794 1.372 . S
C795 C796 1.400 . S
C795 C800 1.490 . S
C796 H786 0.930 . S
C796 C795 1.400 . S
C796 C799 1.386 . S
H797 C813 0.930 . S
H798 C814 0.931 . S
C799 H787 0.929 . S
C799 C793 1.390 . S
C799 C796 1.386 . S
C800 C795 1.490 . S
C800 C802 1.395 . S
C800 C803 1.403 . S
H801 C807 0.930 . S
C802 H788 0.930 . S
C802 C800 1.395 . S
C802 C805 1.403 . S
C803 C800 1.403 . S
C803 C804 1.524 . S
C803 C807 1.400 . S
C804 H789 0.960 . S
C804 H790 0.960 . S
C804 H791 0.960 . S
C804 C803 1.524 . S
C805 C802 1.403 . S
C805 C806 1.392 . S
C805 C809 1.495 . S
C806 C805 1.392 . S
C806 C807 1.385 . S
C806 C808 1.478 . S
C807 H801 0.930 . S
C807 C803 1.400 . S
C807 C806 1.385 . S
C808 C806 1.478 . S
C808 C810 1.381 . S
C808 C814 1.383 . S
C809 C805 1.495 . S
C809 H815 0.959 . S
C809 H816 0.961 . S
C809 H817 0.960 . S
C810 C808 1.381 . S
C810 C811 1.394 . S
C810 H818 0.930 . S
C811 C810 1.394 . S
C811 C812 1.383 . S
C811 H819 0.929 . S
C812 C811 1.383 . S
C812 C813 1.377 . S
C813 H797 0.930 . S
C813 C812 1.377 . S
C813 C814 1.379 . S
C814 H798 0.931 . S
C814 C808 1.383 . S
C814 C813 1.379 . S
H815 C809 0.959 . S
H816 C809 0.961 . S
H817 C809 0.960 . S
H818 C810 0.930 . S
H819 C811 0.929 . S
H820 C828 0.929 . S
H821 C830 0.930 . S
H822 C832 0.930 . S
H823 C835 0.929 . S
H824 C838 0.930 . S
H825 C840 0.960 . S
H826 C840 0.960 . S
H827 C840 0.960 . S
C828 H820 0.929 . S
C828 C829 1.377 . S
C828 C830 1.384 . S
C829 C828 1.377 . S
C829 C835 1.390 1_556 S
C830 H821 0.930 . S
C830 C828 1.384 . S
C830 C831 1.373 1_556 S
C831 C830 1.373 1_554 S
C831 C832 1.399 . S
C831 C836 1.490 . S
C832 H822 0.930 . S
C832 C831 1.399 . S
C832 C835 1.386 . S
H833 C849 0.930 . S
H834 C850 0.931 . S
C835 H823 0.929 . S
C835 C829 1.390 1_554 S
C835 C832 1.386 . S
C836 C831 1.490 . S
C836 C838 1.395 1_554 S
C836 C839 1.403 . S
H837 C843 0.930 . S
C838 H824 0.930 . S
C838 C836 1.395 1_556 S
C838 C841 1.403 . S
C839 C836 1.403 . S
C839 C840 1.524 . S
C839 C843 1.400 . S
C840 H825 0.960 . S
C840 H826 0.960 . S
C840 H827 0.960 . S
C840 C839 1.524 . S
C841 C838 1.403 . S
C841 C842 1.392 1_556 S
C841 C845 1.495 1_545 S
C842 C841 1.392 1_554 S
C842 C843 1.385 . S
C842 C844 1.478 . S
C843 H837 0.930 . S
C843 C839 1.400 . S
C843 C842 1.385 . S
C844 C842 1.478 . S
C844 C846 1.381 . S
C844 C850 1.383 . S
C845 C841 1.495 1_565 S
C845 H851 0.959 . S
C845 H852 0.961 . S
C845 H853 0.960 1_565 S
C846 C844 1.381 . S
C846 C847 1.394 . S
C846 H854 0.930 1_554 S
C847 C846 1.394 . S
C847 C848 1.383 . S
C847 H855 0.929 . S
C848 C847 1.383 . S
C848 C849 1.377 . S
C849 H833 0.930 . S
C849 C848 1.377 . S
C849 C850 1.379 . S
C850 H834 0.931 . S
C850 C844 1.383 . S
C850 C849 1.379 . S
H851 C845 0.959 . S
H852 C845 0.961 . S
H853 C845 0.960 1_545 S
H854 C846 0.930 1_556 S
H855 C847 0.929 . S
H856 C864 0.929 . S
H857 C866 0.930 . S
H858 C868 0.930 . S
H859 C871 0.929 . S
H860 C874 0.930 . S
H861 C876 0.960 . S
H862 C876 0.960 . S
H863 C876 0.960 . S
C864 H856 0.929 . S
C864 C865 1.377 . S
C864 C866 1.384 . S
C865 C864 1.377 . S
C865 C871 1.390 . S
C866 H857 0.930 . S
C866 C864 1.384 . S
C866 C867 1.372 . S
C867 C866 1.372 . S
C867 C868 1.400 . S
C867 C872 1.490 . S
C868 H858 0.930 . S
C868 C867 1.400 . S
C868 C871 1.386 . S
H869 C885 0.930 . S
H870 C886 0.931 . S
C871 H859 0.929 . S
C871 C865 1.390 . S
C871 C868 1.386 . S
C872 C867 1.490 . S
C872 C874 1.395 . S
C872 C875 1.403 . S
H873 C879 0.930 . S
C874 H860 0.930 . S
C874 C872 1.395 . S
C874 C877 1.403 . S
C875 C872 1.403 . S
C875 C876 1.524 . S
C875 C879 1.400 . S
C876 H861 0.960 . S
C876 H862 0.960 . S
C876 H863 0.960 . S
C876 C875 1.524 . S
C877 C874 1.403 . S
C877 C878 1.392 . S
C877 C881 1.495 . S
C878 C877 1.392 . S
C878 C879 1.385 . S
C878 C880 1.478 . S
C879 H873 0.930 . S
C879 C875 1.400 . S
C879 C878 1.385 . S
C880 C878 1.478 . S
C880 C882 1.381 . S
C880 C886 1.383 . S
C881 C877 1.495 . S
C881 H887 0.959 . S
C881 H888 0.961 . S
C881 H889 0.960 . S
C882 C880 1.381 . S
C882 C883 1.394 . S
C882 H890 0.930 . S
C883 C882 1.394 . S
C883 C884 1.383 . S
C883 H891 0.929 . S
C884 C883 1.383 . S
C884 C885 1.377 . S
C885 H869 0.930 . S
C885 C884 1.377 . S
C885 C886 1.379 . S
C886 H870 0.931 . S
C886 C880 1.383 . S
C886 C885 1.379 . S
H887 C881 0.959 . S
H888 C881 0.961 . S
H889 C881 0.960 . S
H890 C882 0.930 . S
H891 C883 0.929 . S
H892 C900 0.929 . S
H893 C902 0.930 . S
H894 C904 0.930 . S
H895 C907 0.929 . S
H896 C910 0.930 . S
H897 C912 0.960 . S
H898 C912 0.960 . S
H899 C912 0.960 . S
C900 H892 0.929 . S
C900 C901 1.377 . S
C900 C902 1.384 . S
C901 C900 1.377 . S
C901 C907 1.390 . S
C902 H893 0.930 . S
C902 C900 1.384 . S
C902 C903 1.372 . S
C903 C902 1.372 . S
C903 C904 1.400 . S
C903 C908 1.490 . S
C904 H894 0.930 . S
C904 C903 1.400 . S
C904 C907 1.386 . S
H905 C921 0.930 . S
H906 C922 0.931 . S
C907 H895 0.929 . S
C907 C901 1.390 . S
C907 C904 1.386 . S
C908 C903 1.490 . S
C908 C910 1.395 . S
C908 C911 1.403 . S
H909 C915 0.930 . S
C910 H896 0.930 . S
C910 C908 1.395 . S
C910 C913 1.403 . S
C911 C908 1.403 . S
C911 C912 1.524 . S
C911 C915 1.400 . S
C912 H897 0.960 . S
C912 H898 0.960 . S
C912 H899 0.960 . S
C912 C911 1.524 . S
C913 C910 1.403 . S
C913 C914 1.392 . S
C913 C917 1.495 . S
C914 C913 1.392 . S
C914 C915 1.385 . S
C914 C916 1.478 . S
C915 H909 0.930 . S
C915 C911 1.400 . S
C915 C914 1.385 . S
C916 C914 1.478 . S
C916 C918 1.381 . S
C916 C922 1.383 . S
C917 C913 1.495 . S
C917 H923 0.959 . S
C917 H924 0.961 . S
C917 H925 0.960 . S
C918 C916 1.381 . S
C918 C919 1.394 . S
C918 H926 0.930 . S
C919 C918 1.394 . S
C919 C920 1.383 . S
C919 H927 0.929 . S
C920 C919 1.383 . S
C920 C921 1.377 . S
C921 H905 0.930 . S
C921 C920 1.377 . S
C921 C922 1.379 . S
C922 H906 0.931 . S
C922 C916 1.383 . S
C922 C921 1.379 . S
H923 C917 0.959 . S
H924 C917 0.961 . S
H925 C917 0.960 . S
H926 C918 0.930 . S
H927 C919 0.929 . S
H928 C936 0.929 . S
H929 C938 0.930 . S
H930 C940 0.930 . S
H931 C943 0.929 . S
H932 C946 0.930 . S
H933 C948 0.960 . S
H934 C948 0.960 . S
H935 C948 0.960 . S
C936 H928 0.929 . S
C936 C937 1.377 . S
C936 C938 1.384 . S
C937 C936 1.377 . S
C937 C943 1.390 . S
C938 H929 0.930 . S
C938 C936 1.384 . S
C938 C939 1.372 . S
C939 C938 1.372 . S
C939 C940 1.400 . S
C939 C944 1.490 . S
C940 H930 0.930 . S
C940 C939 1.400 . S
C940 C943 1.386 . S
H941 C957 0.930 . S
H942 C958 0.931 . S
C943 H931 0.929 . S
C943 C937 1.390 . S
C943 C940 1.386 . S
C944 C939 1.490 . S
C944 C946 1.395 . S
C944 C947 1.403 . S
H945 C951 0.930 . S
C946 H932 0.930 . S
C946 C944 1.395 . S
C946 C949 1.403 . S
C947 C944 1.403 . S
C947 C948 1.524 . S
C947 C951 1.400 . S
C948 H933 0.960 . S
C948 H934 0.960 . S
C948 H935 0.960 . S
C948 C947 1.524 . S
C949 C946 1.403 . S
C949 C950 1.392 . S
C949 C953 1.495 . S
C950 C949 1.392 . S
C950 C951 1.385 . S
C950 C952 1.478 . S
C951 H945 0.930 . S
C951 C947 1.400 . S
C951 C950 1.385 . S
C952 C950 1.478 . S
C952 C954 1.381 . S
C952 C958 1.383 . S
C953 C949 1.495 . S
C953 H959 0.959 . S
C953 H960 0.961 . S
C953 H961 0.960 . S
C954 C952 1.381 . S
C954 C955 1.394 . S
C954 H962 0.930 . S
C955 C954 1.394 . S
C955 C956 1.383 . S
C955 H963 0.929 . S
C956 C955 1.383 . S
C956 C957 1.377 . S
C957 H941 0.930 . S
C957 C956 1.377 . S
C957 C958 1.379 . S
C958 H942 0.931 . S
C958 C952 1.383 . S
C958 C957 1.379 . S
H959 C953 0.959 . S
H960 C953 0.961 . S
H961 C953 0.960 . S
H962 C954 0.930 . S
H963 C955 0.929 . S
H964 C972 0.929 . S
H965 C974 0.930 . S
H966 C976 0.930 . S
H967 C979 0.929 . S
H968 C982 0.930 . S
H969 C984 0.960 . S
H970 C984 0.960 . S
H971 C984 0.960 . S
C972 H964 0.929 . S
C972 C973 1.377 . S
C972 C974 1.384 . S
C973 C972 1.377 . S
C973 C979 1.390 . S
C974 H965 0.930 . S
C974 C972 1.384 . S
C974 C975 1.372 . S
C975 C974 1.372 . S
C975 C976 1.400 . S
C975 C980 1.490 . S
C976 H966 0.930 . S
C976 C975 1.400 . S
C976 C979 1.386 . S
H977 C993 0.930 . S
H978 C994 0.931 1_455 S
C979 H967 0.929 . S
C979 C973 1.390 . S
C979 C976 1.386 . S
C980 C975 1.490 . S
C980 C982 1.395 . S
C980 C983 1.403 . S
H981 C987 0.930 1_455 S
C982 H968 0.930 . S
C982 C980 1.395 . S
C982 C985 1.403 . S
C983 C980 1.403 . S
C983 C984 1.524 1_655 S
C983 C987 1.400 . S
C984 H969 0.960 . S
C984 H970 0.960 . S
C984 H971 0.960 . S
C984 C983 1.524 1_455 S
C985 C982 1.403 . S
C985 C986 1.392 . S
C985 C989 1.495 . S
C986 C985 1.392 . S
C986 C987 1.385 . S
C986 C988 1.478 . S
C987 H981 0.930 1_655 S
C987 C983 1.400 . S
C987 C986 1.385 . S
C988 C986 1.478 . S
C988 C990 1.381 1_556 S
C988 C994 1.383 . S
C989 C985 1.495 . S
C989 H995 0.959 . S
C989 H996 0.961 . S
C989 H997 0.960 . S
C990 C988 1.381 1_554 S
C990 C991 1.394 . S
C990 H998 0.930 . S
C991 C990 1.394 . S
C991 C992 1.383 1_554 S
C991 H999 0.929 . S
C992 C991 1.383 1_556 S
C992 C993 1.377 1_655 S
C993 H977 0.930 . S
C993 C992 1.377 1_455 S
C993 C994 1.379 1_455 S
C994 H978 0.931 1_655 S
C994 C988 1.383 . S
C994 C993 1.379 1_655 S
H995 C989 0.959 . S
H996 C989 0.961 . S
H997 C989 0.960 . S
H998 C990 0.930 . S
H999 C991 0.929 . S
H1000 C1008 0.929 . S
H1001 C1010 0.930 . S
H1002 C1012 0.930 . S
H1003 C1015 0.929 . S
H1004 C1018 0.930 . S
H1005 C1020 0.960 . S
H1006 C1020 0.960 . S
H1007 C1020 0.960 . S
C1008 H1000 0.929 . S
C1008 C1009 1.377 . S
C1008 C1010 1.384 . S
C1009 C1008 1.377 . S
C1009 C1015 1.390 . S
C1010 H1001 0.930 . S
C1010 C1008 1.384 . S
C1010 C1011 1.372 . S
C1011 C1010 1.372 . S
C1011 C1012 1.400 . S
C1011 C1016 1.490 . S
C1012 H1002 0.930 . S
C1012 C1011 1.400 . S
C1012 C1015 1.386 . S
H1013 C1029 0.930 . S
H1014 C1030 0.931 . S
C1015 H1003 0.929 . S
C1015 C1009 1.390 . S
C1015 C1012 1.386 . S
C1016 C1011 1.490 . S
C1016 C1018 1.395 . S
C1016 C1019 1.403 . S
H1017 C1023 0.930 . S
C1018 H1004 0.930 . S
C1018 C1016 1.395 . S
C1018 C1021 1.403 . S
C1019 C1016 1.403 . S
C1019 C1020 1.524 . S
C1019 C1023 1.400 . S
C1020 H1005 0.960 . S
C1020 H1006 0.960 . S
C1020 H1007 0.960 . S
C1020 C1019 1.524 . S
C1021 C1018 1.403 . S
C1021 C1022 1.392 . S
C1021 C1025 1.495 . S
C1022 C1021 1.392 . S
C1022 C1023 1.385 . S
C1022 C1024 1.478 . S
C1023 H1017 0.930 . S
C1023 C1019 1.400 . S
C1023 C1022 1.385 . S
C1024 C1022 1.478 . S
C1024 C1026 1.381 . S
C1024 C1030 1.383 . S
C1025 C1021 1.495 . S
C1025 H1031 0.959 . S
C1025 H1032 0.961 . S
C1025 H1033 0.960 . S
C1026 C1024 1.381 . S
C1026 C1027 1.394 . S
C1026 H1034 0.930 . S
C1027 C1026 1.394 . S
C1027 C1028 1.383 . S
C1027 H1035 0.929 . S
C1028 C1027 1.383 . S
C1028 C1029 1.377 . S
C1029 H1013 0.930 . S
C1029 C1028 1.377 . S
C1029 C1030 1.379 . S
C1030 H1014 0.931 . S
C1030 C1024 1.383 . S
C1030 C1029 1.379 . S
H1031 C1025 0.959 . S
H1032 C1025 0.961 . S
H1033 C1025 0.960 . S
H1034 C1026 0.930 . S
H1035 C1027 0.929 . S
H1036 C1044 0.929 . S
H1037 C1046 0.930 . S
H1038 C1048 0.930 . S
H1039 C1051 0.929 . S
H1040 C1054 0.930 . S
H1041 C1056 0.960 . S
H1042 C1056 0.960 . S
H1043 C1056 0.960 . S
C1044 H1036 0.929 . S
C1044 C1045 1.377 . S
C1044 C1046 1.384 . S
C1045 C1044 1.377 . S
C1045 C1051 1.390 . S
C1046 H1037 0.930 . S
C1046 C1044 1.384 . S
C1046 C1047 1.372 . S
C1047 C1046 1.372 . S
C1047 C1048 1.400 . S
C1047 C1052 1.490 . S
C1048 H1038 0.930 . S
C1048 C1047 1.400 . S
C1048 C1051 1.386 . S
H1049 C1065 0.930 . S
H1050 C1066 0.931 . S
C1051 H1039 0.929 . S
C1051 C1045 1.390 . S
C1051 C1048 1.386 . S
C1052 C1047 1.490 . S
C1052 C1054 1.395 . S
C1052 C1055 1.403 . S
H1053 C1059 0.930 . S
C1054 H1040 0.930 . S
C1054 C1052 1.395 . S
C1054 C1057 1.403 . S
C1055 C1052 1.403 . S
C1055 C1056 1.524 . S
C1055 C1059 1.400 . S
C1056 H1041 0.960 . S
C1056 H1042 0.960 . S
C1056 H1043 0.960 . S
C1056 C1055 1.524 . S
C1057 C1054 1.403 . S
C1057 C1058 1.392 . S
C1057 C1061 1.495 . S
C1058 C1057 1.392 . S
C1058 C1059 1.385 . S
C1058 C1060 1.478 . S
C1059 H1053 0.930 . S
C1059 C1055 1.400 . S
C1059 C1058 1.385 . S
C1060 C1058 1.478 . S
C1060 C1062 1.381 . S
C1060 C1066 1.383 . S
C1061 C1057 1.495 . S
C1061 H1067 0.959 . S
C1061 H1068 0.961 . S
C1061 H1069 0.960 . S
C1062 C1060 1.381 . S
C1062 C1063 1.394 . S
C1062 H1070 0.930 . S
C1063 C1062 1.394 . S
C1063 C1064 1.383 . S
C1063 H1071 0.929 . S
C1064 C1063 1.383 . S
C1064 C1065 1.377 . S
C1065 H1049 0.930 . S
C1065 C1064 1.377 . S
C1065 C1066 1.379 . S
C1066 H1050 0.931 . S
C1066 C1060 1.383 . S
C1066 C1065 1.379 . S
H1067 C1061 0.959 . S
H1068 C1061 0.961 . S
H1069 C1061 0.960 . S
H1070 C1062 0.930 . S
H1071 C1063 0.929 . S
H1072 C1080 0.929 . S
H1073 C1082 0.930 . S
H1074 C1084 0.930 . S
H1075 C1087 0.929 . S
H1076 C1090 0.930 . S
H1077 C1092 0.960 . S
H1078 C1092 0.960 . S
H1079 C1092 0.960 . S
C1080 H1072 0.929 . S
C1080 C1081 1.377 . S
C1080 C1082 1.384 . S
C1081 C1080 1.377 . S
C1081 C1087 1.390 . S
C1082 H1073 0.930 . S
C1082 C1080 1.384 . S
C1082 C1083 1.372 . S
C1083 C1082 1.372 . S
C1083 C1084 1.400 . S
C1083 C1088 1.490 . S
C1084 H1074 0.930 . S
C1084 C1083 1.400 . S
C1084 C1087 1.386 . S
H1085 C1101 0.930 . S
H1086 C1102 0.931 . S
C1087 H1075 0.929 . S
C1087 C1081 1.390 . S
C1087 C1084 1.386 . S
C1088 C1083 1.490 . S
C1088 C1090 1.395 . S
C1088 C1091 1.403 . S
H1089 C1095 0.930 . S
C1090 H1076 0.930 . S
C1090 C1088 1.395 . S
C1090 C1093 1.403 . S
C1091 C1088 1.403 . S
C1091 C1092 1.524 . S
C1091 C1095 1.400 . S
C1092 H1077 0.960 . S
C1092 H1078 0.960 . S
C1092 H1079 0.960 . S
C1092 C1091 1.524 . S
C1093 C1090 1.403 . S
C1093 C1094 1.392 . S
C1093 C1097 1.495 . S
C1094 C1093 1.392 . S
C1094 C1095 1.385 . S
C1094 C1096 1.478 . S
C1095 H1089 0.930 . S
C1095 C1091 1.400 . S
C1095 C1094 1.385 . S
C1096 C1094 1.478 . S
C1096 C1098 1.381 . S
C1096 C1102 1.383 . S
C1097 C1093 1.495 . S
C1097 H1103 0.959 . S
C1097 H1104 0.961 . S
C1097 H1105 0.960 . S
C1098 C1096 1.381 . S
C1098 C1099 1.394 . S
C1098 H1106 0.930 . S
C1099 C1098 1.394 . S
C1099 C1100 1.383 . S
C1099 H1107 0.929 . S
C1100 C1099 1.383 . S
C1100 C1101 1.377 . S
C1101 H1085 0.930 . S
C1101 C1100 1.377 . S
C1101 C1102 1.379 . S
C1102 H1086 0.931 . S
C1102 C1096 1.383 . S
C1102 C1101 1.379 . S
H1103 C1097 0.959 . S
H1104 C1097 0.961 . S
H1105 C1097 0.960 . S
H1106 C1098 0.930 . S
H1107 C1099 0.929 . S
C253 C6 1.906 . S
C272 C170 1.857 . S
C289 C21 2.258 . S
C308 C194 2.181 1_566 S
C344 C214 0.676 . S
C325 C49 0.702 . S
C361 C68 1.073 . S
C380 C237 1.201 . S
C416 C196 2.536 . S
C397 C2 2.544 . S
C452 C172 1.400 . S
C433 C30 1.284 . S
C488 C240 1.363 . S
C469 C40 1.393 . S
C524 C217 1.297 . S
C505 C63 1.325 . S
C541 C11 1.308 . S
C560 C242 1.429 . S
C596 C191 1.802 . S
C577 C44 1.794 . S
C613 C59 1.204 . S
C632 C169 1.206 . S
C649 C25 1.700 . S
C668 C219 1.651 . S
C704 C173 2.167 . S
C685 C82 2.157 1_545 S
C721 C101 1.870 . S
C740 C195 1.864 . S
C757 C125 1.489 . S
C776 C215 1.552 . S
C793 C144 1.068 . S
C812 C238 1.210 . S
C829 C87 1.152 . S
C848 C193 1.316 . S
C884 C171 2.256 . S
C865 C97 2.276 . S
C920 C241 1.193 . S
C901 C120 1.295 . S
C956 C218 1.208 . S
C937 C135 1.234 . S
C973 C78 2.232 . S
C992 C239 2.232 1_656 S
C1028 C192 1.095 . S
C1009 C116 1.067 . S
C1064 C168 1.679 . S
C1045 C139 1.655 . S
C1081 C106 1.723 . S
C1100 C216 1.770 . S
