# Generated by pormake.
# Topology pth, (4,4)-cn, num edge types: 1
# Building blocks:
#     Node 0, Type 0, BuildingBlock: QUQFOY_clean_sbu_3, # of connection points: 4
#     Node 1, Type 0, BuildingBlock: QUQFOY_clean_sbu_3, # of connection points: 4
#     Node 2, Type 0, BuildingBlock: QUQFOY_clean_sbu_3, # of connection points: 4
#     Node 3, Type 1, BuildingBlock: AZAVOO_clean_linker_0, # of connection points: 4
#     Node 4, Type 1, BuildingBlock: AZAVOO_clean_linker_0, # of connection points: 4
#     Node 5, Type 1, BuildingBlock: AZAVOO_clean_linker_0, # of connection points: 4
#     Edge 6, Type (0, 1), BuildingBlock: ZUJKAS_clean_linker_0, # of connection points: 2
#     Edge 7, Type (0, 1), BuildingBlock: ZUJKAS_clean_linker_0, # of connection points: 2
#     Edge 8, Type (0, 1), BuildingBlock: ZUJKAS_clean_linker_0, # of connection points: 2
#     Edge 9, Type (0, 1), BuildingBlock: ZUJKAS_clean_linker_0, # of connection points: 2
#     Edge 10, Type (0, 1), BuildingBlock: ZUJKAS_clean_linker_0, # of connection points: 2
#     Edge 11, Type (0, 1), BuildingBlock: ZUJKAS_clean_linker_0, # of connection points: 2
#     Edge 12, Type (0, 1), BuildingBlock: ZUJKAS_clean_linker_0, # of connection points: 2
#     Edge 13, Type (0, 1), BuildingBlock: ZUJKAS_clean_linker_0, # of connection points: 2
#     Edge 14, Type (0, 1), BuildingBlock: ZUJKAS_clean_linker_0, # of connection points: 2
#     Edge 15, Type (0, 1), BuildingBlock: ZUJKAS_clean_linker_0, # of connection points: 2
#     Edge 16, Type (0, 1), BuildingBlock: ZUJKAS_clean_linker_0, # of connection points: 2
#     Edge 17, Type (0, 1), BuildingBlock: ZUJKAS_clean_linker_0, # of connection points: 2
# Relax obj value: 0.099
# Max RMSD: 0.224
# Mean RMSD: 0.148
data_MOF--net-pth--node1-QUQFOY_clean_sbu_3--node2-AZAVOO_clean_linker_0--edge1-ZUJKAS_clean_linker_0
_symmetry_space_group_name_H-M    P1
_symmetry_Int_Tables_number       1
_symmetry_cell_setting            triclinic
loop_
_symmetry_equiv_pos_as_xyz
'x, y, z'
_cell_length_a     32.941037
_cell_length_b     32.97665
_cell_length_c     90.993835
_cell_angle_alpha  92.262119
_cell_angle_beta   89.684323
_cell_angle_gamma 120.75301
loop_
_atom_site_label
_atom_site_type_symbol
_atom_site_fract_x
_atom_site_fract_y
_atom_site_fract_z
_atom_type_partial_charge
C0 C 0.99014 0.11385 0.09599 0.0
O1 O 0.96975 0.11895 0.08501 0.0
Cd2 Cd 0.97674 0.09652 0.0602 0.0
O3 O 0.01519 0.09477 0.09431 0.0
Cd4 Cd 0.03937 0.05798 0.07464 0.0
C5 C 0.09762 0.15939 0.05642 0.0
O6 O 0.96552 0.01916 0.06074 0.0
O7 O 0.02374 0.01751 0.05041 0.0
O8 O 0.02569 -0.00323 0.09125 0.0
C9 C 0.98063 0.00582 0.04987 0.0
O10 O 0.05716 0.15267 0.05294 0.0
C11 C 0.06743 0.00409 0.09092 0.0
O12 O 0.10157 0.13164 0.06486 0.0
O13 O 0.09658 0.03665 0.08285 0.0
C14 C 0.10737 0.10579 0.40798 0.0
O15 O 0.12095 0.12261 0.39538 0.0
Cd16 Cd 0.06364 0.10638 0.37634 0.0
O17 O 0.06358 0.0829 0.41091 0.0
Cd18 Cd 0.98482 0.05719 0.40055 0.0
C19 C -0.00068 0.98461 0.37701 0.0
O20 O 0.00893 0.12692 0.38666 0.0
O21 O 0.93836 0.06856 0.38193 0.0
O22 O 0.9711 0.08216 0.42447 0.0
C23 C 0.96981 0.11113 0.3799 0.0
O24 O 0.02806 0.02167 0.37037 0.0
C25 C 0.93203 0.04464 0.42655 0.0
O26 O 0.9797 0.9874 0.38878 0.0
O27 O 0.91696 0.01253 0.41637 0.0
C28 C 0.95291 0.10622 0.72058 0.0
O29 O 0.95794 0.13318 0.73165 0.0
Cd30 Cd 0.01323 0.15303 0.75146 0.0
O31 O 0.97794 0.08696 0.71936 0.0
Cd32 Cd 0.03983 0.08501 0.73419 0.0
C33 C 0.96855 0.04153 0.76349 0.0
O34 O 0.08597 0.16936 0.74053 0.0
O35 O 0.10517 0.12548 0.752 0.0
O36 O 0.07721 0.08188 0.71145 0.0
C37 C 0.11446 0.16664 0.74914 0.0
O38 O 0.97746 0.08347 0.76625 0.0
C39 C 0.08189 0.04748 0.71482 0.0
O40 O 0.98412 0.03143 0.75193 0.0
O41 O 0.06507 0.02904 0.72703 0.0
H42 H 0.06063 0.55009 0.14209 0.0
H43 H 0.13536 0.87779 0.27398 0.0
H44 H 0.96163 0.4795 0.21903 0.0
H45 H 0.94441 0.40477 0.20693 0.0
H46 H 0.07958 0.42897 0.22211 0.0
H47 H 0.09545 0.5029 0.23468 0.0
H48 H 0.00429 0.57695 0.20106 0.0
H49 H 0.01637 0.56616 0.17497 0.0
H50 H 0.1403 0.5599 0.18636 0.0
H51 H 0.12805 0.57124 0.2124 0.0
H52 H 0.01547 0.66403 0.22065 0.0
H53 H 0.0383 0.72481 0.20266 0.0
H54 H 0.17442 0.73596 0.19856 0.0
H55 H 0.15117 0.67497 0.21667 0.0
H56 H 0.98949 0.65196 0.25308 0.0
H57 H 0.00136 0.72719 0.26318 0.0
H58 H 0.15249 0.78918 0.25946 0.0
H59 H 0.14012 0.7135 0.24957 0.0
H60 H 0.95174 0.55345 0.26502 0.0
H61 H 0.9286 0.57241 0.28875 0.0
H62 H 0.07582 0.663 0.30104 0.0
H63 H 0.0986 0.64345 0.27733 0.0
H64 H 0.94622 0.46971 0.25071 0.0
H65 H 0.92375 0.40358 0.26678 0.0
H66 H 0.06564 0.47535 0.28508 0.0
H67 H 0.08778 0.54081 0.26889 0.0
O68 O 0.05654 0.55436 0.15246 0.0
O69 O 0.11977 0.55106 0.15891 0.0
O70 O 0.05171 0.81396 0.27179 0.0
O71 O 0.12966 0.84764 0.27 0.0
C72 C 0.0413 0.54332 0.23375 0.0
C73 C 0.05791 0.58159 0.2244 0.0
C74 C 0.06607 0.62574 0.22999 0.0
C75 C 0.0567 0.63123 0.24488 0.0
C76 C 0.04 0.5927 0.2542 0.0
C77 C 0.03302 0.54904 0.24867 0.0
C78 C 0.02982 0.49644 0.2276 0.0
C79 C 0.98711 0.46818 0.21989 0.0
C80 C 0.97755 0.42574 0.21293 0.0
C81 C 0.01088 0.41117 0.2134 0.0
C82 C 0.05298 0.4389 0.22164 0.0
C83 C 0.06229 0.48122 0.22875 0.0
C84 C 0.0653 0.57487 0.20858 0.0
C85 C 0.03408 0.57336 0.19788 0.0
C86 C 0.04103 0.56712 0.18299 0.0
C87 C 0.0793 0.56215 0.17857 0.0
C88 C 0.11046 0.56359 0.18938 0.0
C89 C 0.10352 0.56995 0.20426 0.0
C90 C 0.08173 0.66528 0.21998 0.0
C91 C 0.05051 0.6802 0.21606 0.0
C92 C 0.06366 0.71496 0.2058 0.0
C93 C 0.10822 0.73521 0.19922 0.0
C94 C 0.13976 0.72072 0.20337 0.0
C95 C 0.12665 0.68611 0.21372 0.0
C96 C 0.06396 0.67726 0.25068 0.0
C97 C 0.02513 0.68179 0.25452 0.0
C98 C 0.03201 0.72482 0.26024 0.0
C99 C 0.07792 0.76422 0.26215 0.0
C100 C 0.11671 0.75957 0.25816 0.0
C101 C 0.10976 0.71644 0.25247 0.0
C102 C 0.02679 0.59738 0.26948 0.0
C103 C 0.97892 0.57628 0.27302 0.0
C104 C 0.96579 0.58728 0.28652 0.0
C105 C 0.00042 0.61935 0.29667 0.0
C106 C 0.0484 0.63778 0.29348 0.0
C107 C 0.06149 0.62693 0.27995 0.0
C108 C 0.01862 0.50974 0.25864 0.0
C109 C 0.97231 0.47098 0.25821 0.0
C110 C 0.95953 0.43349 0.26742 0.0
C111 C 0.99305 0.43424 0.2771 0.0
C112 C 0.03928 0.4735 0.27757 0.0
C113 C 0.05191 0.51098 0.26843 0.0
C114 C 0.08658 0.55551 0.16275 0.0
C115 C 0.08543 0.80999 0.26827 0.0
H116 H 0.54468 0.04115 0.47127 0.0
H117 H 0.27659 0.13317 0.59154 0.0
H118 H 0.53393 0.98733 0.54975 0.0
H119 H 0.59712 0.98011 0.53817 0.0
H120 H 0.69923 0.12118 0.5546 0.0
H121 H 0.6353 0.12836 0.56591 0.0
H122 H 0.46535 0.00701 0.53025 0.0
H123 H 0.48665 0.00881 0.50438 0.0
H124 H 0.615 0.14283 0.51327 0.0
H125 H 0.59291 0.14087 0.53907 0.0
H126 H 0.38527 0.01765 0.54711 0.0
H127 H 0.34179 0.02982 0.52781 0.0
H128 H 0.46489 0.16617 0.52014 0.0
H129 H 0.50709 0.15461 0.54002 0.0
H130 H 0.37831 0.00391 0.58106 0.0
H131 H 0.31025 0.00985 0.58885 0.0
H132 H 0.3853 0.15741 0.57851 0.0
H133 H 0.45336 0.15113 0.57095 0.0
H134 H 0.45675 0.98828 0.59768 0.0
H135 H 0.41627 0.97202 0.62115 0.0
H136 H 0.44194 0.11461 0.62391 0.0
H137 H 0.48529 0.1313 0.60103 0.0
H138 H 0.53475 0.98786 0.58547 0.0
H139 H 0.58913 0.9866 0.60361 0.0
H140 H 0.64685 0.13541 0.61368 0.0
H141 H 0.59212 0.13623 0.59573 0.0
O142 O 0.53684 0.04125 0.48153 0.0
O143 O 0.60255 0.10986 0.48671 0.0
O144 O 0.26594 0.05385 0.59368 0.0
O145 O 0.30289 0.12978 0.58846 0.0
C146 C 0.54088 0.0654 0.56308 0.0
C147 C 0.51471 0.07229 0.55225 0.0
C148 C 0.47604 0.07723 0.55636 0.0
C149 C 0.46265 0.07379 0.57124 0.0
C150 C 0.48918 0.06718 0.58209 0.0
C151 C 0.52887 0.06404 0.578 0.0
C152 C 0.58017 0.05843 0.55855 0.0
C153 C 0.57011 0.0162 0.55112 0.0
C154 C 0.60629 0.01208 0.5446 0.0
C155 C 0.65312 0.05021 0.54541 0.0
C156 C 0.66339 0.09144 0.55367 0.0
C157 C 0.6271 0.09551 0.56021 0.0
C158 C 0.52761 0.07377 0.53651 0.0
C159 C 0.49793 0.0368 0.52656 0.0
C160 C 0.51026 0.03789 0.51181 0.0
C161 C 0.55257 0.07594 0.50676 0.0
C162 C 0.58219 0.11298 0.51679 0.0
C163 C 0.56973 0.11191 0.53153 0.0
C164 C 0.44922 0.08529 0.54497 0.0
C165 C 0.40253 0.05038 0.54138 0.0
C166 C 0.37799 0.0572 0.53023 0.0
C167 C 0.39996 0.09886 0.52234 0.0
C168 C 0.4467 0.13395 0.5261 0.0
C169 C 0.47101 0.12729 0.53736 0.0
C170 C 0.42075 0.07711 0.57547 0.0
C171 C 0.37996 0.03748 0.5805 0.0
C172 C 0.34114 0.04097 0.58492 0.0
C173 C 0.34236 0.08415 0.58431 0.0
C174 C 0.38319 0.12366 0.57912 0.0
C175 C 0.42205 0.12015 0.57475 0.0
C176 C 0.47347 0.06081 0.59758 0.0
C177 C 0.45513 0.01648 0.60366 0.0
C178 C 0.4314 0.00707 0.61698 0.0
C179 C 0.42483 0.04162 0.62431 0.0
C180 C 0.44646 0.08714 0.6187 0.0
C181 C 0.47098 0.09674 0.60552 0.0
C182 C 0.55958 0.06211 0.58939 0.0
C183 C 0.55891 0.01999 0.59171 0.0
C184 C 0.58981 0.01933 0.60203 0.0
C185 C 0.62222 0.06099 0.60993 0.0
C186 C 0.62249 0.10298 0.60761 0.0
C187 C 0.59118 0.10344 0.59747 0.0
C188 C 0.56566 0.07689 0.49108 0.0
C189 C 0.30135 0.08814 0.5891 0.0
H190 H 0.58865 0.69502 -0.0008 0.0
H191 H 0.28101 0.28834 0.88956 0.0
H192 H 0.56528 0.70544 0.92198 0.0
H193 H 0.63436 0.77362 0.93354 0.0
H194 H 0.72288 0.72216 0.91607 0.0
H195 H 0.65299 0.65297 0.90501 0.0
H196 H 0.493 0.62375 0.94195 0.0
H197 H 0.52134 0.65425 0.96707 0.0
H198 H 0.64338 0.64022 0.95944 0.0
H199 H 0.61419 0.60896 0.93445 0.0
H200 H 0.40642 0.52859 0.92678 0.0
H201 H 0.36334 0.47843 0.94716 0.0
H202 H 0.48166 0.46041 0.95627 0.0
H203 H 0.52428 0.51019 0.93577 0.0
H204 H 0.39584 0.52401 0.89191 0.0
H205 H 0.32414 0.44813 0.88603 0.0
H206 H 0.39381 0.3754 0.90067 0.0
H207 H 0.46544 0.45151 0.90632 0.0
H208 H 0.47366 0.6091 0.8728 0.0
H209 H 0.43919 0.58007 0.84815 0.0
H210 H 0.46469 0.46431 0.85111 0.0
H211 H 0.50104 0.49495 0.8754 0.0
H212 H 0.55881 0.69647 0.8865 0.0
H213 H 0.61097 0.74753 0.86758 0.0
H214 H 0.6542 0.64611 0.85719 0.0
H215 H 0.60101 0.5949 0.87589 0.0
O216 O 0.57758 0.68196 0.98934 0.0
O217 O 0.64024 0.67514 0.98471 0.0
O218 O 0.27478 0.35791 0.8843 0.0
O219 O 0.30889 0.31882 0.89177 0.0
C220 C 0.56144 0.62774 0.90932 0.0
C221 C 0.53564 0.59829 0.92087 0.0
C222 C 0.49482 0.55397 0.91766 0.0
C223 C 0.47943 0.53937 0.90291 0.0
C224 C 0.50573 0.56874 0.89136 0.0
C225 C 0.54704 0.61262 0.89458 0.0
C226 C 0.6042 0.67411 0.91288 0.0
C227 C 0.59981 0.70966 0.92031 0.0
C228 C 0.63941 0.74874 0.92683 0.0
C229 C 0.68401 0.75292 0.92588 0.0
C230 C 0.68882 0.71943 0.91718 0.0
C231 C 0.6491 0.68016 0.91076 0.0
C232 C 0.55157 0.61424 0.93639 0.0
C233 C 0.52557 0.62682 0.94579 0.0
C234 C 0.54197 0.64444 0.96011 0.0
C235 C 0.58475 0.64988 0.96525 0.0
C236 C 0.61037 0.63658 0.95583 0.0
C237 C 0.5938 0.61875 0.94155 0.0
C238 C 0.46837 0.5229 0.92981 0.0
C239 C 0.42281 0.51347 0.93311 0.0
C240 C 0.39833 0.48487 0.94472 0.0
C241 C 0.41925 0.46563 0.95329 0.0
C242 C 0.46494 0.47521 0.94995 0.0
C243 C 0.4892 0.50343 0.93824 0.0
C244 C 0.43579 0.49322 0.89953 0.0
C245 C 0.39554 0.49163 0.8938 0.0
C246 C 0.35464 0.44826 0.89048 0.0
C247 C 0.35324 0.40567 0.89289 0.0
C248 C 0.39366 0.40748 0.89868 0.0
C249 C 0.43458 0.45089 0.90196 0.0
C250 C 0.4894 0.55383 0.8759 0.0
C251 C 0.47269 0.57808 0.86795 0.0
C252 C 0.45274 0.56126 0.85393 0.0
C253 C 0.44885 0.51968 0.8477 0.0
C254 C 0.46766 0.49676 0.85547 0.0
C255 C 0.48797 0.51386 0.86943 0.0
C256 C 0.57631 0.64217 0.88254 0.0
C257 C 0.57932 0.68525 0.88003 0.0
C258 C 0.60933 0.71442 0.8693 0.0
C259 C 0.63701 0.70103 0.86094 0.0
C260 C 0.633 0.65723 0.8633 0.0
C261 C 0.60282 0.62802 0.874 0.0
C262 C 0.60265 0.66967 0.98034 0.0
C263 C 0.30988 0.35949 0.88938 0.0
H264 H 0.0287 0.10907 0.122 0.0
H265 H 0.0257 0.14304 0.14609 0.0
H266 H 0.9404 0.19346 0.12741 0.0
H267 H 0.94248 0.15913 0.10343 0.0
H268 H 0.06054 0.23628 0.15244 0.0
H269 H 0.87029 0.13692 0.16476 0.0
H270 H 0.89596 0.11676 0.15082 0.0
H271 H 0.88014 0.16 0.14674 0.0
C272 C 0.00872 0.1268 0.12306 0.0
C273 C 0.98589 0.13148 0.11077 0.0
C274 C 0.00698 0.14607 0.13685 0.0
C275 C 0.98214 0.17 0.13859 0.0
C276 C 0.95869 0.17401 0.1264 0.0
H277 H 0.97365 0.38453 0.18562 0.0
H278 H 0.9649 0.31851 0.17014 0.0
C279 C 0.96032 0.15473 0.11265 0.0
C280 C 0.98451 0.19515 0.15267 0.0
H281 H 0.916 0.21518 0.17662 0.0
C282 C 0.02904 0.23089 0.158 0.0
C283 C 0.94335 0.18779 0.15993 0.0
C284 C 0.8948 0.14791 0.15534 0.0
C285 C 0.03329 0.26194 0.16967 0.0
C286 C 0.99194 0.25669 0.17619 0.0
C287 C 0.94758 0.21911 0.17151 0.0
C288 C 0.99386 0.29359 0.18635 0.0
C289 C 0.08169 0.30209 0.17431 0.0
C290 C 0.01243 0.30083 0.20067 0.0
C291 C 0.01708 0.33842 0.20967 0.0
C292 C 0.00324 0.36923 0.20442 0.0
C293 C 0.9838 0.36102 0.19014 0.0
C294 C 0.97897 0.32345 0.18123 0.0
H295 H 0.11003 0.30328 0.16734 0.0
H296 H 0.08297 0.33632 0.17376 0.0
H297 H 0.08907 0.29815 0.18589 0.0
H298 H 0.02384 0.27782 0.2048 0.0
H299 H 0.0317 0.34351 0.22068 0.0
H300 H 0.84489 0.97113 0.43346 0.0
H301 H 0.79929 0.96516 0.4555 0.0
H302 H 0.91303 0.09994 0.47218 0.0
H303 H 0.9589 0.10614 0.45032 0.0
H304 H 0.87004 0.02666 0.49362 0.0
H305 H 0.74107 0.05103 0.46154 0.0
H306 H 0.7505 0.00432 0.45505 0.0
H307 H 0.79765 0.06464 0.45435 0.0
C308 C 0.86028 -0.00068 0.44187 0.0
C309 C 0.90525 0.03932 0.4401 0.0
C310 C 0.83421 -0.00415 0.45443 0.0
C311 C 0.85276 0.03232 0.46535 0.0
C312 C 0.89821 0.07147 0.46384 0.0
H313 H 0.71765 0.11965 0.52848 0.0
H314 H 0.76934 0.1137 0.51032 0.0
C315 C 0.92422 0.07502 0.45131 0.0
C316 C 0.82398 0.03135 0.47796 0.0
H317 H 0.72889 0.04155 0.48696 0.0
C318 C 0.83894 0.02953 0.49221 0.0
C319 C 0.78385 0.03567 0.476 0.0
C320 C 0.76731 0.03939 0.46094 0.0
C321 C 0.81478 0.03225 0.50462 0.0
C322 C 0.77482 0.03677 0.50263 0.0
C323 C 0.75962 0.03804 0.48838 0.0
C324 C 0.74893 0.04207 0.51512 0.0
C325 C 0.83278 0.03166 0.51977 0.0
C326 C 0.72124 0.00402 0.52403 0.0
C327 C 0.69179 0.00739 0.53451 0.0
C328 C 0.68962 0.04884 0.53618 0.0
C329 C 0.71907 0.08754 0.52765 0.0
C330 C 0.74835 0.0841 0.51719 0.0
H331 H 0.86835 0.03562 0.51948 0.0
H332 H 0.83445 0.06046 0.52699 0.0
H333 H 0.808 -0.00237 0.52476 0.0
H334 H 0.7209 0.97112 0.52246 0.0
H335 H 0.66963 0.9771 0.54098 0.0
H336 H 0.92988 0.94586 0.75924 0.0
H337 H 0.87309 0.88389 0.77492 0.0
H338 H 0.88109 0.99004 0.80598 0.0
H339 H 0.93705 0.05205 0.79035 0.0
H340 H 0.87867 0.86464 0.80438 0.0
H341 H 0.73991 0.9097 0.7961 0.0
H342 H 0.79152 0.9319 0.78476 0.0
H343 H 0.79511 0.95917 0.80261 0.0
C344 C 0.91975 0.95601 0.76944 0.0
C345 C 0.93755 0.0039 0.77346 0.0
C346 C 0.8873 0.92057 0.77837 0.0
C347 C 0.87218 0.93248 0.79141 0.0
C348 C 0.89145 0.98017 0.79576 0.0
H349 H 0.69445 0.79688 0.86396 0.0
H350 H 0.75072 0.85017 0.84629 0.0
C351 C 0.92362 0.01555 0.78684 0.0
C352 C 0.83577 0.89526 0.80046 0.0
H353 H 0.72762 0.85785 0.81541 0.0
C354 C 0.8454 0.86274 0.80668 0.0
C355 C 0.7923 0.89277 0.80332 0.0
C356 C 0.7788 0.92493 0.79623 0.0
C357 C 0.81338 0.82892 0.81621 0.0
C358 C 0.77074 0.82762 0.81944 0.0
C359 C 0.76059 0.8593 0.81294 0.0
C360 C 0.73685 0.79482 0.83001 0.0
C361 C 0.82588 0.79583 0.82314 0.0
C362 C 0.71017 0.74618 0.82657 0.0
C363 C 0.67749 0.71563 0.83657 0.0
C364 C 0.67104 0.73331 0.85016 0.0
C365 C 0.69794 0.78218 0.8535 0.0
C366 C 0.73036 0.81264 0.84348 0.0
H367 H 0.86319 0.80601 0.82121 0.0
H368 H 0.81996 0.79511 0.83518 0.0
H369 H 0.80262 0.7595 0.81842 0.0
H370 H 0.7143 0.73198 0.8161 0.0
H371 H 0.65689 0.67827 0.83357 0.0
H372 H 0.15572 0.01648 0.0945 0.0
H373 H 0.17845 0.97268 0.11041 0.0
H374 H 0.0336 0.88692 0.12356 0.0
H375 H 0.0106 0.92996 0.10772 0.0
H376 H 0.16704 0.96563 0.14094 0.0
H377 H 0.0713 0.78904 0.11271 0.0
H378 H 0.08323 0.84211 0.1039 0.0
H379 H 0.03385 0.81311 0.11598 0.0
C380 C 0.12868 0.98792 0.10067 0.0
C381 C 0.08136 0.97659 0.09985 0.0
C382 C 0.14173 0.96301 0.10973 0.0
C383 C 0.10756 0.92613 0.11796 0.0
C384 C 0.06032 0.91458 0.11704 0.0
H385 H 0.09309 0.80921 0.19905 0.0
H386 H 0.10393 0.85938 0.1786 0.0
C387 C 0.0473 0.93945 0.10806 0.0
C388 C 0.1211 0.90145 0.12831 0.0
H389 H 0.09048 0.79104 0.1384 0.0
C390 C 0.15113 0.92754 0.14026 0.0
C391 C 0.101 0.85192 0.12724 0.0
C392 C 0.07095 0.82247 0.11417 0.0
C393 C 0.15883 0.90494 0.15173 0.0
C394 C 0.13529 0.85506 0.15129 0.0
C395 C 0.10807 0.82929 0.13882 0.0
C396 C 0.13443 0.82858 0.16416 0.0
C397 C 0.19113 0.93461 0.16439 0.0
C398 C 0.14766 0.79438 0.1628 0.0
C399 C 0.14095 0.76523 0.17444 0.0
C400 C 0.12045 0.76956 0.18756 0.0
C401 C 0.10862 0.80484 0.18903 0.0
C402 C 0.11538 0.83394 0.17742 0.0
H403 H 0.21812 0.97029 0.16086 0.0
H404 H 0.16997 0.93922 0.17311 0.0
H405 H 0.20937 0.91758 0.16917 0.0
H406 H 0.16196 0.78938 0.1526 0.0
H407 H 0.14988 0.73798 0.17292 0.0
H408 H 0.20411 0.16101 0.40742 0.0
H409 H 0.26071 0.16896 0.42634 0.0
H410 H 0.14564 0.07101 0.45284 0.0
H411 H 0.08908 0.06382 0.43431 0.0
H412 H 0.21093 0.14745 0.46896 0.0
H413 H 0.29751 0.07159 0.43431 0.0
H414 H 0.29873 0.12205 0.42704 0.0
H415 H 0.24322 0.06802 0.4288 0.0
C416 C 0.19093 0.14121 0.41729 0.0
C417 C 0.14211 0.11166 0.41933 0.0
C418 C 0.2233 0.14561 0.42804 0.0
C419 C 0.20735 0.12003 0.44088 0.0
C420 C 0.15869 0.09103 0.443 0.0
H421 H 0.34064 0.03247 0.50171 0.0
H422 H 0.29677 0.04221 0.48203 0.0
C423 C 0.1264 0.08692 0.43236 0.0
C424 C 0.24085 0.12301 0.45224 0.0
H425 H 0.32736 0.09762 0.45849 0.0
C426 C 0.23663 0.13685 0.46668 0.0
C427 C 0.27394 0.10868 0.44921 0.0
C428 C 0.27851 0.09134 0.43404 0.0
C429 C 0.26379 0.13567 0.47828 0.0
C430 C 0.29703 0.12152 0.47524 0.0
C431 C 0.30203 0.10873 0.46074 0.0
C432 C 0.32461 0.11659 0.48709 0.0
C433 C 0.25511 0.14756 0.49373 0.0
C434 C 0.35517 0.15531 0.49637 0.0
C435 C 0.37961 0.14965 0.50785 0.0
C436 C 0.37441 0.10526 0.5101 0.0
C437 C 0.34466 0.06687 0.50051 0.0
C438 C 0.31996 0.07249 0.48914 0.0
H439 H 0.22076 0.14618 0.49456 0.0
H440 H 0.25545 0.12293 0.50163 0.0
H441 H 0.28348 0.18391 0.49705 0.0
H442 H 0.35997 0.18987 0.49479 0.0
H443 H 0.40202 0.17989 0.51507 0.0
H444 H 0.17711 0.17032 0.76938 0.0
H445 H 0.23797 0.24002 0.78323 0.0
H446 H 0.20077 0.32828 0.76003 0.0
H447 H 0.13976 0.25871 0.74603 0.0
H448 H 0.30382 0.36427 0.76432 0.0
H449 H 0.19756 0.3082 0.81509 0.0
H450 H 0.20603 0.26376 0.80599 0.0
H451 H 0.17233 0.28478 0.79698 0.0
C452 C 0.18207 0.20457 0.76713 0.0
C453 C 0.15333 0.20902 0.75675 0.0
C454 C 0.21681 0.24428 0.77505 0.0
C455 C 0.22332 0.28898 0.77271 0.0
C456 C 0.19605 0.29392 0.76196 0.0
H457 H 0.36618 0.51318 0.83936 0.0
H458 H 0.31393 0.46571 0.81888 0.0
C459 C 0.16118 0.25417 0.75404 0.0
C460 C 0.25675 0.32994 0.78214 0.0
H461 H 0.27667 0.37148 0.8178 0.0
C462 C 0.29789 0.36625 0.776 0.0
C463 C 0.24826 0.33256 0.79727 0.0
C464 C 0.20348 0.29551 0.80425 0.0
C465 C 0.33186 0.40451 0.78481 0.0
C466 C 0.32439 0.40588 0.80009 0.0
C467 C 0.28238 0.37031 0.80608 0.0
C468 C 0.36028 0.4422 0.81038 0.0
C469 C 0.37534 0.44298 0.77771 0.0
C470 C 0.40434 0.44585 0.81212 0.0
C471 C 0.43466 0.4735 0.82373 0.0
C472 C 0.42112 0.49746 0.83391 0.0
C473 C 0.37806 0.49573 0.83164 0.0
C474 C 0.34795 0.46836 0.81998 0.0
H475 H 0.36907 0.44451 0.76581 0.0
H476 H 0.38691 0.47803 0.78315 0.0
H477 H 0.40448 0.4356 0.77873 0.0
H478 H 0.4142 0.42529 0.805 0.0
H479 H 0.46785 0.47459 0.82509 0.0
H480 H 0.87733 0.11832 0.72308 0.0
H481 H 0.81904 0.10439 0.70411 0.0
H482 H 0.89081 0.06147 0.67302 0.0
H483 H 0.94828 0.07354 0.69217 0.0
H484 H 0.83189 0.14734 0.67949 0.0
H485 H 0.75712 0.9566 0.66616 0.0
H486 H 0.79496 0.98625 0.68202 0.0
H487 H 0.81998 0.99032 0.66411 0.0
C488 C 0.88051 0.10555 0.71224 0.0
C489 C 0.91734 0.09697 0.70911 0.0
C490 C 0.84713 0.09754 0.70141 0.0
C491 C 0.85011 0.08123 0.68719 0.0
C492 C 0.88699 0.07279 0.68401 0.0
H493 H 0.71728 0.12093 0.61142 0.0
H494 H 0.77299 0.12409 0.62976 0.0
C495 C 0.92003 0.08007 0.69493 0.0
C496 C 0.81613 0.07581 0.67558 0.0
H497 H 0.73697 -0.00161 0.64967 0.0
C498 C 0.81096 0.11465 0.67303 0.0
C499 C 0.78838 0.03298 0.66728 0.0
C500 C 0.78997 0.98903 0.67012 0.0
C501 C 0.7791 0.11204 0.66238 0.0
C502 C 0.75289 0.06992 0.65363 0.0
C503 C 0.75759 0.03085 0.65626 0.0
C504 C 0.71986 0.06565 0.64188 0.0
C505 C 0.7731 0.15414 0.66088 0.0
C506 C 0.67195 0.03025 0.64218 0.0
C507 C 0.64025 0.02788 0.63155 0.0
C508 C 0.65602 0.06109 0.62055 0.0
C509 C 0.70421 0.09549 0.61998 0.0
C510 C 0.73595 0.09741 0.63046 0.0
H511 H 0.7844 0.17714 0.67108 0.0
H512 H 0.79539 0.17565 0.65181 0.0
H513 H 0.73579 0.14296 0.65834 0.0
H514 H 0.65889 0.00521 0.65085 0.0
H515 H 0.60322 0.00107 0.63221 0.0
H516 H 0.00415 0.9741 0.02497 0.0
H517 H 0.95624 0.93871 0.00256 0.0
H518 H 0.84385 0.95258 0.0219 0.0
H519 H 0.8912 0.98729 0.04446 0.0
H520 H 0.81305 0.86496 0.00931 0.0
H521 H 0.92566 0.00288 0.9706 0.0
H522 H 0.95718 0.98142 0.98061 0.0
H523 H 0.93286 0.01251 0.99032 0.0
C524 C 0.96927 0.96969 0.02444 0.0
C525 C 0.95141 0.98347 0.03646 0.0
C526 C 0.94215 0.94991 0.01158 0.0
C527 C 0.89696 0.94399 0.01048 0.0
C528 C 0.87886 0.9573 0.02251 0.0
H529 H 0.71139 0.8455 0.93267 0.0
H530 H 0.76522 0.89586 0.95275 0.0
C531 C 0.90588 0.97695 0.03539 0.0
C532 C 0.86749 0.92135 -0.0029 0.0
H533 H 0.86536 0.9288 0.95981 0.0
C534 C 0.82429 0.87914 -0.00149 0.0
C535 C 0.88199 0.94035 0.98306 0.0
C536 C 0.92673 0.98704 0.98103 0.0
C537 C 0.7959 0.85444 0.98618 0.0
C538 C 0.81165 0.87209 0.97207 0.0
C539 C 0.85392 0.91517 0.97066 0.0
C540 C 0.78479 0.84521 0.95871 0.0
C541 C 0.74934 0.80951 0.98831 0.0
C542 C 0.77974 0.80114 0.95515 0.0
C543 C 0.74903 0.77235 0.94383 0.0
C544 C 0.72306 0.78732 0.93579 0.0
C545 C 0.73059 0.83288 0.93877 0.0
C546 C 0.76138 0.8617 0.95017 0.0
H547 H 0.73718 0.8071 -0.00017 0.0
H548 H 0.72156 0.80705 0.98084 0.0
H549 H 0.75353 0.77869 0.98573 0.0
H550 H 0.798 0.78815 0.96158 0.0
H551 H 0.74359 0.73724 0.94199 0.0
H552 H 0.95243 0.89987 0.39047 0.0
H553 H 0.94517 0.82494 0.38198 0.0
H554 H 0.0193 0.88933 0.34247 0.0
H555 H 0.02747 0.96425 0.35091 0.0
H556 H 0.9046 0.76726 0.35689 0.0
H557 H 0.09671 0.83656 0.35915 0.0
H558 H 0.07028 0.86752 0.36783 0.0
H559 H 0.08328 0.87298 0.34851 0.0
C560 C 0.967 0.898 0.37994 0.0
C561 C 0.99104 0.9382 0.37143 0.0
C562 C 0.96286 0.8552 0.37513 0.0
C563 C 0.98274 0.85202 0.36179 0.0
C564 C 0.00488 0.89147 0.353 0.0
H565 H 0.93931 0.65137 0.29676 0.0
H566 H 0.9286 0.69755 0.3162 0.0
C567 C 0.00926 0.93421 0.35781 0.0
C568 C 0.9807 0.80776 0.35684 0.0
H569 H 0.0507 0.7676 0.34314 0.0
C570 C 0.93649 0.76688 0.35414 0.0
C571 C 0.0223 0.80681 0.35374 0.0
C572 C 0.0708 0.84819 0.35762 0.0
C573 C 0.93286 0.72631 0.34721 0.0
C574 C 0.97447 0.72732 0.3426 0.0
C575 C 0.01866 0.76685 0.34647 0.0
C576 C 0.97349 0.69121 0.33213 0.0
C577 C 0.88446 0.6833 0.34463 0.0
C578 C 0.00232 0.67205 0.33454 0.0
C579 C 0.00918 0.64618 0.32327 0.0
C580 C 0.98703 0.63883 0.30947 0.0
C581 C 0.95608 0.65564 0.30738 0.0
C582 C 0.94969 0.6819 0.31855 0.0
H583 H 0.8603 0.68048 0.35362 0.0
H584 H 0.86918 0.68662 0.33422 0.0
H585 H 0.88582 0.65033 0.34385 0.0
H586 H 0.02129 0.67905 0.3449 0.0
H587 H 0.03315 0.63348 0.32515 0.0
H588 H 0.12477 0.08398 0.68901 0.0
H589 H 0.17731 0.06585 0.67509 0.0
H590 H 0.15387 0.95928 0.70557 0.0
H591 H 0.10169 0.97796 0.71982 0.0
H592 H 0.24732 0.0185 0.70063 0.0
H593 H 0.15033 0.95572 0.64751 0.0
H594 H 0.15811 0.01186 0.65333 0.0
H595 H 0.12306 0.96108 0.66416 0.0
C596 C 0.13011 0.05614 0.69264 0.0
C597 C 0.10901 0.03234 0.7055 0.0
C598 C 0.15999 0.04562 0.68462 0.0
C599 C 0.16893 0.01072 0.68917 0.0
C600 C 0.14716 0.98613 0.70183 0.0
H601 H 0.34139 0.95856 0.62747 0.0
H602 H 0.28028 0.94188 0.64537 0.0
C603 C 0.11728 -0.00326 0.70992 0.0
C604 C 0.20372 0.00275 0.68121 0.0
H605 H 0.23438 0.98626 0.64665 0.0
C606 C 0.24416 0.01053 0.68887 0.0
C607 C 0.19916 0.99141 0.66594 0.0
C608 C 0.15504 0.97903 0.6573 0.0
C609 C 0.28152 0.01021 0.68147 0.0
C610 C 0.27868 0.00306 0.66599 0.0
C611 C 0.23695 0.99237 0.6585 0.0
C612 C 0.31936 0.0097 0.6571 0.0
C613 C 0.32372 0.01807 0.69031 0.0
C614 C 0.36241 0.05287 0.65801 0.0
C615 C 0.3981 0.06217 0.64797 0.0
C616 C 0.39104 0.02888 0.63662 0.0
C617 C 0.34863 0.98485 0.63617 0.0
C618 C 0.3133 0.97534 0.64634 0.0
H619 H 0.31347 0.00532 0.70162 0.0
H620 H 0.34085 -0.00016 0.68502 0.0
H621 H 0.34993 0.05648 0.69131 0.0
H622 H 0.36763 0.08041 0.666 0.0
H623 H 0.4305 0.09618 0.64878 0.0
H624 H 0.1874 0.17412 0.05635 0.0
H625 H 0.25469 0.23216 0.04244 0.0
H626 H 0.17084 0.28875 0.02703 0.0
H627 H 0.10369 0.23131 0.04088 0.0
H628 H 0.25115 0.23596 0.01173 0.0
H629 H 0.29713 0.40773 0.03894 0.0
H630 H 0.263 0.35226 0.04782 0.0
H631 H 0.23507 0.37074 0.03493 0.0
C632 C 0.18358 0.19956 0.05024 0.0
C633 C 0.14011 0.19796 0.04966 0.0
C634 C 0.22204 0.23262 0.04231 0.0
C635 C 0.21781 0.26499 0.03386 0.0
C636 C 0.17509 0.26465 0.03372 0.0
H637 H 0.32754 0.39371 0.95341 0.0
H638 H 0.28429 0.34501 0.974 0.0
C639 C 0.13661 0.23151 0.04155 0.0
C640 C 0.25588 0.29569 0.02389 0.0
H641 H 0.3227 0.41003 0.01395 0.0
C642 C 0.26751 0.2741 0.01236 0.0
C643 C 0.27739 0.34539 0.02482 0.0
C644 C 0.26789 0.37047 0.03738 0.0
C645 C 0.29805 0.30078 0.00124 0.0
C646 C 0.31697 0.35012 0.00165 0.0
C647 C 0.30762 0.37206 0.01362 0.0
C648 C 0.34381 0.37902 0.98924 0.0
C649 C 0.30896 0.27591 0.98896 0.0
C650 C 0.3913 0.41465 0.99112 0.0
C651 C 0.41606 0.44257 0.97938 0.0
C652 C 0.39342 0.43561 0.96567 0.0
C653 C 0.34574 0.40003 0.96388 0.0
C654 C 0.32116 0.37196 0.97557 0.0
H655 H 0.30227 0.2409 0.99221 0.0
H656 H 0.28598 0.27019 0.97929 0.0
H657 H 0.34632 0.29755 0.98558 0.0
H658 H 0.40915 0.42078 0.00165 0.0
H659 H 0.45265 0.47011 0.98109 0.0
H660 H 0.03033 0.20359 0.37445 0.0
H661 H 0.01975 0.25163 0.35689 0.0
H662 H 0.88278 0.13325 0.34431 0.0
H663 H 0.89313 0.08458 0.36189 0.0
H664 H 0.94236 0.17943 0.32043 0.0
H665 H 0.93205 0.30657 0.35966 0.0
H666 H 0.98188 0.29987 0.36311 0.0
H667 H 0.92302 0.25046 0.36509 0.0
C668 C -0.00222 0.18779 0.36804 0.0
C669 C 0.96251 0.14032 0.36957 0.0
C670 C 0.99168 0.21539 0.35808 0.0
C671 C 0.95019 0.19614 0.3495 0.0
C672 C 0.91487 0.14877 0.35095 0.0
H673 H 0.9139 0.38708 0.2937 0.0
H674 H 0.89507 0.32338 0.31042 0.0
C675 C 0.92085 0.12109 0.36098 0.0
C676 C 0.94528 0.22517 0.33848 0.0
H677 H 0.95083 0.33038 0.33473 0.0
C678 C 0.94341 0.21205 0.32353 0.0
C679 C 0.94595 0.2673 0.34259 0.0
C680 C 0.94535 0.28172 0.35849 0.0
C681 C 0.94503 0.24149 0.31255 0.0
C682 C 0.94914 0.28524 0.31668 0.0
C683 C 0.94815 0.297 0.33161 0.0
C684 C 0.9583 0.32095 0.3058 0.0
C685 C 0.94327 0.22598 0.29663 0.0
C686 C 9e-05 0.34061 0.29774 0.0
C687 C 0.01091 0.37684 0.28824 0.0
C688 C 0.98019 0.39423 0.28667 0.0
C689 C 0.93797 0.37403 0.2946 0.0
C690 C 0.92727 0.33785 0.30417 0.0
H691 H 0.92598 0.18695 0.29527 0.0
H692 H 0.92398 0.23794 0.28973 0.0
H693 H 0.97984 0.24168 0.29253 0.0
H694 H 0.02492 0.32865 0.29905 0.0
H695 H 0.04348 0.39145 0.28218 0.0
loop_
_geom_bond_atom_site_label_1
_geom_bond_atom_site_label_2
_geom_bond_distance
_geom_bond_site_symmetry_2
_ccdc_geom_bond_type
C0 O1 1.306 . S
C0 O3 1.160 . S
O1 C0 1.306 . S
O1 Cd2 2.228 . S
Cd2 O1 2.228 . S
Cd2 O6 2.273 1_455 S
Cd2 O10 2.277 . S
O3 C0 1.160 . S
O3 Cd4 2.203 . S
Cd4 O3 2.203 . S
Cd4 O6 2.411 1_455 S
Cd4 O7 2.333 . S
Cd4 O8 2.352 . S
Cd4 O12 2.277 . S
Cd4 O13 2.356 . S
C5 O10 1.209 . S
C5 O12 1.226 . S
O6 Cd2 2.273 1_655 S
O6 Cd4 2.411 1_655 S
O6 C9 1.320 . S
O7 Cd4 2.333 . S
O7 C9 1.214 1_455 S
O8 Cd4 2.352 . S
O8 C11 1.258 . S
C9 O6 1.320 . S
C9 O7 1.214 1_655 S
O10 Cd2 2.277 . S
O10 C5 1.209 . S
C11 O8 1.258 . S
C11 O13 1.282 . S
O12 Cd4 2.277 . S
O12 C5 1.226 . S
O13 Cd4 2.356 . S
O13 C11 1.282 . S
C14 O15 1.306 . S
C14 O17 1.160 . S
O15 C14 1.306 . S
O15 Cd16 2.228 . S
Cd16 O15 2.228 . S
Cd16 O20 2.273 . S
Cd16 O24 2.277 . S
O17 C14 1.160 . S
O17 Cd18 2.203 1_455 S
Cd18 O17 2.203 1_655 S
Cd18 O20 2.411 1_655 S
Cd18 O21 2.333 . S
Cd18 O22 2.352 . S
Cd18 O26 2.277 1_545 S
Cd18 O27 2.355 . S
C19 O24 1.209 1_565 S
C19 O26 1.226 1_455 S
O20 Cd16 2.273 . S
O20 Cd18 2.411 1_455 S
O20 C23 1.320 . S
O21 Cd18 2.333 . S
O21 C23 1.214 1_655 S
O22 Cd18 2.352 . S
O22 C25 1.258 . S
C23 O20 1.320 . S
C23 O21 1.214 1_455 S
O24 Cd16 2.277 . S
O24 C19 1.209 1_545 S
C25 O22 1.258 . S
C25 O27 1.293 . S
O26 Cd18 2.277 1_565 S
O26 C19 1.226 1_655 S
O27 Cd18 2.355 . S
O27 C25 1.293 . S
C28 O29 1.306 1_655 S
C28 O31 1.160 1_655 S
O29 C28 1.306 1_455 S
O29 Cd30 2.228 . S
Cd30 O29 2.228 . S
Cd30 O34 2.273 . S
Cd30 O38 2.277 . S
O31 C28 1.160 1_455 S
O31 Cd32 2.203 . S
Cd32 O31 2.203 . S
Cd32 O34 2.411 . S
Cd32 O35 2.333 . S
Cd32 O36 2.352 . S
Cd32 O40 2.277 . S
Cd32 O41 2.356 . S
C33 O38 1.216 1_655 S
C33 O40 1.213 1_655 S
O34 Cd30 2.273 . S
O34 Cd32 2.411 . S
O34 C37 1.320 . S
O35 Cd32 2.333 . S
O35 C37 1.214 . S
O36 Cd32 2.352 . S
O36 C39 1.258 . S
C37 O34 1.320 . S
C37 O35 1.214 . S
O38 Cd30 2.277 . S
O38 C33 1.216 1_455 S
C39 O36 1.258 . S
C39 O41 1.282 . S
O40 Cd32 2.277 . S
O40 C33 1.213 1_455 S
O41 Cd32 2.356 . S
O41 C39 1.282 . S
H42 O68 0.856 . S
H43 O71 0.854 . S
H44 C79 0.930 . S
H45 C80 0.930 . S
H46 C82 0.930 . S
H47 C83 0.930 . S
H48 C85 0.931 1_655 S
H49 C86 0.930 1_655 S
H50 C88 0.930 . S
H51 C89 0.929 . S
H52 C91 0.930 1_655 S
H53 C92 0.931 1_655 S
H54 C94 0.930 . S
H55 C95 0.929 . S
H56 C97 0.931 . S
H57 C98 0.930 1_655 S
H58 C100 0.930 . S
H59 C101 0.932 . S
H60 C103 0.930 . S
H61 C104 0.929 . S
H62 C106 0.931 . S
H63 C107 0.930 . S
H64 C109 0.929 . S
H65 C110 0.931 . S
H66 C112 0.930 . S
H67 C113 0.929 . S
O68 H42 0.856 . S
O68 C114 1.300 . S
O69 C114 1.209 . S
O70 C115 1.199 . S
O71 H43 0.854 . S
O71 C115 1.297 . S
C72 C73 1.404 . S
C72 C77 1.397 . S
C72 C78 1.492 . S
C73 C72 1.404 . S
C73 C74 1.396 . S
C73 C84 1.492 . S
C74 C73 1.396 . S
C74 C75 1.397 . S
C74 C90 1.509 . S
C75 C74 1.397 . S
C75 C76 1.412 . S
C75 C96 1.485 . S
C76 C75 1.412 . S
C76 C77 1.388 . S
C76 C102 1.490 . S
C77 C72 1.397 . S
C77 C76 1.388 . S
C77 C108 1.519 . S
C78 C72 1.492 . S
C78 C79 1.363 1_455 S
C78 C83 1.390 . S
C79 H44 0.930 . S
C79 C78 1.363 1_655 S
C79 C80 1.372 . S
C80 H45 0.930 . S
C80 C79 1.372 . S
C80 C81 1.383 1_655 S
C81 C80 1.383 1_455 S
C81 C82 1.395 . S
C82 H46 0.930 . S
C82 C81 1.395 . S
C82 C83 1.362 . S
C83 H47 0.930 . S
C83 C78 1.390 . S
C83 C82 1.362 . S
C84 C73 1.492 . S
C84 C85 1.377 . S
C84 C89 1.397 . S
C85 H48 0.931 1_455 S
C85 C84 1.377 . S
C85 C86 1.376 . S
C86 H49 0.930 1_455 S
C86 C85 1.376 . S
C86 C87 1.376 . S
C87 C86 1.376 . S
C87 C88 1.378 . S
C87 C114 1.486 . S
C88 H50 0.930 . S
C88 C87 1.378 . S
C88 C89 1.376 . S
C89 H51 0.929 . S
C89 C84 1.397 . S
C89 C88 1.376 . S
C90 C74 1.509 . S
C90 C91 1.391 . S
C90 C95 1.386 . S
C91 H52 0.930 1_455 S
C91 C90 1.391 . S
C91 C92 1.375 . S
C92 H53 0.931 1_455 S
C92 C91 1.375 . S
C92 C93 1.375 . S
C93 C92 1.375 . S
C93 C94 1.361 . S
C94 H54 0.930 . S
C94 C93 1.361 . S
C94 C95 1.399 . S
C95 H55 0.929 . S
C95 C90 1.386 . S
C95 C94 1.399 . S
C96 C75 1.485 . S
C96 C97 1.395 1_455 S
C96 C101 1.360 . S
C97 H56 0.931 . S
C97 C96 1.395 1_655 S
C97 C98 1.371 1_655 S
C98 H57 0.930 1_455 S
C98 C97 1.371 1_455 S
C98 C99 1.397 . S
C99 C98 1.397 . S
C99 C100 1.390 . S
C99 C115 1.476 . S
C100 H58 0.930 . S
C100 C99 1.390 . S
C100 C101 1.366 . S
C101 H59 0.932 . S
C101 C96 1.360 . S
C101 C100 1.366 . S
C102 C76 1.490 . S
C102 C103 1.380 1_455 S
C102 C107 1.386 . S
C103 H60 0.930 . S
C103 C102 1.380 1_655 S
C103 C104 1.381 . S
C104 H61 0.929 . S
C104 C103 1.381 . S
C104 C105 1.371 1_655 S
C105 C104 1.371 1_455 S
C105 C106 1.380 . S
C106 H62 0.931 . S
C106 C105 1.380 . S
C106 C107 1.387 . S
C107 H63 0.930 . S
C107 C102 1.386 . S
C107 C106 1.387 . S
C108 C77 1.519 . S
C108 C109 1.377 1_455 S
C108 C113 1.361 . S
C109 H64 0.929 . S
C109 C108 1.377 1_655 S
C109 C110 1.386 . S
C110 H65 0.931 . S
C110 C109 1.386 . S
C110 C111 1.363 1_655 S
C111 C110 1.363 1_455 S
C111 C112 1.385 . S
C112 H66 0.930 . S
C112 C111 1.385 . S
C112 C113 1.396 . S
C113 H67 0.929 . S
C113 C108 1.361 . S
C113 C112 1.396 . S
C114 O68 1.300 . S
C114 O69 1.209 . S
C114 C87 1.486 . S
C115 O70 1.199 . S
C115 O71 1.297 . S
C115 C99 1.476 . S
H116 O142 0.856 . S
H117 O145 0.854 . S
H118 C153 0.930 . S
H119 C154 0.930 1_565 S
H120 C156 0.930 . S
H121 C157 0.930 . S
H122 C159 0.931 . S
H123 C160 0.930 . S
H124 C162 0.930 . S
H125 C163 0.929 . S
H126 C165 0.930 . S
H127 C166 0.931 . S
H128 C168 0.930 . S
H129 C169 0.929 . S
H130 C171 0.931 . S
H131 C172 0.930 . S
H132 C174 0.930 . S
H133 C175 0.932 . S
H134 C177 0.930 . S
H135 C178 0.929 . S
H136 C180 0.931 . S
H137 C181 0.930 . S
H138 C183 0.929 . S
H139 C184 0.931 . S
H140 C186 0.930 . S
H141 C187 0.929 . S
O142 H116 0.856 . S
O142 C188 1.300 . S
O143 C188 1.209 . S
O144 C189 1.199 . S
O145 H117 0.854 . S
O145 C189 1.297 . S
C146 C147 1.404 . S
C146 C151 1.397 . S
C146 C152 1.492 . S
C147 C146 1.404 . S
C147 C148 1.396 . S
C147 C158 1.492 . S
C148 C147 1.396 . S
C148 C149 1.397 . S
C148 C164 1.509 . S
C149 C148 1.397 . S
C149 C150 1.412 . S
C149 C170 1.485 . S
C150 C149 1.412 . S
C150 C151 1.388 . S
C150 C176 1.490 . S
C151 C146 1.397 . S
C151 C150 1.388 . S
C151 C182 1.519 . S
C152 C146 1.492 . S
C152 C153 1.363 . S
C152 C157 1.390 . S
C153 H118 0.930 . S
C153 C152 1.363 . S
C153 C154 1.372 . S
C154 H119 0.930 1_545 S
C154 C153 1.372 . S
C154 C155 1.383 . S
C155 C154 1.383 . S
C155 C156 1.395 . S
C156 H120 0.930 . S
C156 C155 1.395 . S
C156 C157 1.362 . S
C157 H121 0.930 . S
C157 C152 1.390 . S
C157 C156 1.362 . S
C158 C147 1.492 . S
C158 C159 1.377 . S
C158 C163 1.397 . S
C159 H122 0.931 . S
C159 C158 1.377 . S
C159 C160 1.376 . S
C160 H123 0.930 . S
C160 C159 1.376 . S
C160 C161 1.376 . S
C161 C160 1.376 . S
C161 C162 1.378 . S
C161 C188 1.486 . S
C162 H124 0.930 . S
C162 C161 1.378 . S
C162 C163 1.376 . S
C163 H125 0.929 . S
C163 C158 1.397 . S
C163 C162 1.376 . S
C164 C148 1.509 . S
C164 C165 1.391 . S
C164 C169 1.386 . S
C165 H126 0.930 . S
C165 C164 1.391 . S
C165 C166 1.375 . S
C166 H127 0.931 . S
C166 C165 1.375 . S
C166 C167 1.375 . S
C167 C166 1.375 . S
C167 C168 1.361 . S
C168 H128 0.930 . S
C168 C167 1.361 . S
C168 C169 1.399 . S
C169 H129 0.929 . S
C169 C164 1.386 . S
C169 C168 1.399 . S
C170 C149 1.485 . S
C170 C171 1.394 . S
C170 C175 1.360 . S
C171 H130 0.931 . S
C171 C170 1.394 . S
C171 C172 1.372 . S
C172 H131 0.930 . S
C172 C171 1.372 . S
C172 C173 1.397 . S
C173 C172 1.397 . S
C173 C174 1.390 . S
C173 C189 1.476 . S
C174 H132 0.930 . S
C174 C173 1.390 . S
C174 C175 1.366 . S
C175 H133 0.932 . S
C175 C170 1.360 . S
C175 C174 1.366 . S
C176 C150 1.490 . S
C176 C177 1.380 . S
C176 C181 1.386 . S
C177 H134 0.930 . S
C177 C176 1.380 . S
C177 C178 1.381 . S
C178 H135 0.929 . S
C178 C177 1.381 . S
C178 C179 1.371 . S
C179 C178 1.371 . S
C179 C180 1.380 . S
C180 H136 0.931 . S
C180 C179 1.380 . S
C180 C181 1.387 . S
C181 H137 0.930 . S
C181 C176 1.386 . S
C181 C180 1.387 . S
C182 C151 1.519 . S
C182 C183 1.377 . S
C182 C187 1.361 . S
C183 H138 0.929 . S
C183 C182 1.377 . S
C183 C184 1.386 . S
C184 H139 0.931 . S
C184 C183 1.386 . S
C184 C185 1.363 . S
C185 C184 1.363 . S
C185 C186 1.385 . S
C186 H140 0.930 . S
C186 C185 1.385 . S
C186 C187 1.396 . S
C187 H141 0.929 . S
C187 C182 1.361 . S
C187 C186 1.396 . S
C188 O142 1.300 . S
C188 O143 1.209 . S
C188 C161 1.486 . S
C189 O144 1.199 . S
C189 O145 1.297 . S
C189 C173 1.476 . S
H190 O216 0.856 . S
H191 O219 0.854 . S
H192 C227 0.930 . S
H193 C228 0.930 . S
H194 C230 0.930 . S
H195 C231 0.930 . S
H196 C233 0.931 . S
H197 C234 0.930 . S
H198 C236 0.930 . S
H199 C237 0.929 . S
H200 C239 0.930 . S
H201 C240 0.931 . S
H202 C242 0.930 . S
H203 C243 0.929 . S
H204 C245 0.931 . S
H205 C246 0.930 . S
H206 C248 0.930 . S
H207 C249 0.932 . S
H208 C251 0.930 . S
H209 C252 0.929 . S
H210 C254 0.931 . S
H211 C255 0.930 . S
H212 C257 0.929 . S
H213 C258 0.931 . S
H214 C260 0.930 . S
H215 C261 0.929 . S
O216 H190 0.856 . S
O216 C262 1.276 1_554 S
O217 C262 1.197 1_554 S
O218 C263 1.199 . S
O219 H191 0.854 . S
O219 C263 1.297 . S
C220 C221 1.404 . S
C220 C225 1.397 . S
C220 C226 1.492 . S
C221 C220 1.404 . S
C221 C222 1.396 . S
C221 C232 1.492 . S
C222 C221 1.396 . S
C222 C223 1.397 . S
C222 C238 1.509 . S
C223 C222 1.397 . S
C223 C224 1.412 . S
C223 C244 1.485 . S
C224 C223 1.412 . S
C224 C225 1.388 . S
C224 C250 1.490 . S
C225 C220 1.397 . S
C225 C224 1.388 . S
C225 C256 1.519 . S
C226 C220 1.492 . S
C226 C227 1.363 . S
C226 C231 1.390 . S
C227 H192 0.930 . S
C227 C226 1.363 . S
C227 C228 1.372 . S
C228 H193 0.930 . S
C228 C227 1.372 . S
C228 C229 1.383 . S
C229 C228 1.383 . S
C229 C230 1.395 . S
C230 H194 0.930 . S
C230 C229 1.395 . S
C230 C231 1.362 . S
C231 H195 0.930 . S
C231 C226 1.390 . S
C231 C230 1.362 . S
C232 C221 1.492 . S
C232 C233 1.377 . S
C232 C237 1.397 . S
C233 H196 0.931 . S
C233 C232 1.377 . S
C233 C234 1.376 . S
C234 H197 0.930 . S
C234 C233 1.376 . S
C234 C235 1.376 . S
C235 C234 1.376 . S
C235 C236 1.378 . S
C235 C262 1.524 . S
C236 H198 0.930 . S
C236 C235 1.378 . S
C236 C237 1.376 . S
C237 H199 0.929 . S
C237 C232 1.397 . S
C237 C236 1.376 . S
C238 C222 1.509 . S
C238 C239 1.391 . S
C238 C243 1.386 . S
C239 H200 0.930 . S
C239 C238 1.391 . S
C239 C240 1.375 . S
C240 H201 0.931 . S
C240 C239 1.375 . S
C240 C241 1.375 . S
C241 C240 1.375 . S
C241 C242 1.361 . S
C242 H202 0.930 . S
C242 C241 1.361 . S
C242 C243 1.399 . S
C243 H203 0.929 . S
C243 C238 1.386 . S
C243 C242 1.399 . S
C244 C223 1.485 . S
C244 C245 1.394 . S
C244 C249 1.360 . S
C245 H204 0.931 . S
C245 C244 1.394 . S
C245 C246 1.372 . S
C246 H205 0.930 . S
C246 C245 1.372 . S
C246 C247 1.397 . S
C247 C246 1.397 . S
C247 C248 1.390 . S
C247 C263 1.476 . S
C248 H206 0.930 . S
C248 C247 1.390 . S
C248 C249 1.366 . S
C249 H207 0.932 . S
C249 C244 1.360 . S
C249 C248 1.366 . S
C250 C224 1.490 . S
C250 C251 1.380 . S
C250 C255 1.386 . S
C251 H208 0.930 . S
C251 C250 1.380 . S
C251 C252 1.381 . S
C252 H209 0.929 . S
C252 C251 1.381 . S
C252 C253 1.371 . S
C253 C252 1.371 . S
C253 C254 1.380 . S
C254 H210 0.931 . S
C254 C253 1.380 . S
C254 C255 1.387 . S
C255 H211 0.930 . S
C255 C250 1.386 . S
C255 C254 1.387 . S
C256 C225 1.519 . S
C256 C257 1.377 . S
C256 C261 1.361 . S
C257 H212 0.929 . S
C257 C256 1.377 . S
C257 C258 1.386 . S
C258 H213 0.931 . S
C258 C257 1.386 . S
C258 C259 1.363 . S
C259 C258 1.363 . S
C259 C260 1.385 . S
C260 H214 0.930 . S
C260 C259 1.385 . S
C260 C261 1.396 . S
C261 H215 0.929 . S
C261 C256 1.361 . S
C261 C260 1.396 . S
C262 O216 1.276 1_556 S
C262 O217 1.197 1_556 S
C262 C235 1.524 . S
C263 O218 1.199 . S
C263 O219 1.297 . S
C263 C247 1.476 . S
H264 C272 0.929 . S
H265 C274 0.930 . S
H266 C276 0.931 1_655 S
H267 C279 0.929 . S
H268 C282 0.930 . S
H269 C284 0.960 . S
H270 C284 0.960 . S
H271 C284 0.960 . S
C272 H264 0.929 . S
C272 C273 1.377 . S
C272 C274 1.384 . S
C273 C272 1.377 . S
C273 C279 1.390 . S
C274 H265 0.930 . S
C274 C272 1.384 . S
C274 C275 1.372 . S
C275 C274 1.372 . S
C275 C276 1.400 . S
C275 C280 1.490 . S
C276 H266 0.931 1_455 S
C276 C275 1.400 . S
C276 C279 1.386 . S
H277 C293 0.930 1_655 S
H278 C294 0.937 . S
C279 H267 0.929 . S
C279 C273 1.390 . S
C279 C276 1.386 . S
C280 C275 1.490 . S
C280 C282 1.395 . S
C280 C283 1.403 1_455 S
H281 C287 0.930 . S
C282 H268 0.930 . S
C282 C280 1.395 . S
C282 C285 1.403 . S
C283 C280 1.403 1_655 S
C283 C284 1.524 . S
C283 C287 1.400 . S
C284 H269 0.960 . S
C284 H270 0.960 . S
C284 H271 0.960 . S
C284 C283 1.524 . S
C285 C282 1.403 . S
C285 C286 1.392 . S
C285 C289 1.495 . S
C286 C285 1.392 . S
C286 C287 1.385 1_455 S
C286 C288 1.478 . S
C287 H281 0.930 . S
C287 C283 1.400 . S
C287 C286 1.385 1_655 S
C288 C286 1.478 . S
C288 C290 1.381 . S
C288 C294 1.383 . S
C289 C285 1.495 . S
C289 H295 0.959 . S
C289 H296 0.961 . S
C289 H297 0.960 . S
C290 C288 1.381 . S
C290 C291 1.394 . S
C290 H298 0.930 . S
C291 C290 1.394 . S
C291 C292 1.383 . S
C291 H299 0.929 . S
C292 C291 1.383 . S
C292 C293 1.377 . S
C293 H277 0.930 1_455 S
C293 C292 1.377 . S
C293 C294 1.379 . S
C294 H278 0.937 . S
C294 C288 1.383 . S
C294 C293 1.379 . S
H295 C289 0.959 . S
H296 C289 0.961 . S
H297 C289 0.960 . S
H298 C290 0.930 . S
H299 C291 0.929 . S
H300 C308 0.929 1_565 S
H301 C310 0.930 1_565 S
H302 C312 0.930 . S
H303 C315 0.929 . S
H304 C318 0.930 . S
H305 C320 0.960 . S
H306 C320 0.960 . S
H307 C320 0.960 . S
C308 H300 0.929 1_545 S
C308 C309 1.377 . S
C308 C310 1.384 . S
C309 C308 1.377 . S
C309 C315 1.390 . S
C310 H301 0.930 1_545 S
C310 C308 1.384 . S
C310 C311 1.372 . S
C311 C310 1.372 . S
C311 C312 1.400 . S
C311 C316 1.490 . S
C312 H302 0.930 . S
C312 C311 1.400 . S
C312 C315 1.386 . S
H313 C329 0.930 . S
H314 C330 0.931 . S
C315 H303 0.929 . S
C315 C309 1.390 . S
C315 C312 1.386 . S
C316 C311 1.490 . S
C316 C318 1.395 . S
C316 C319 1.403 . S
H317 C323 0.930 . S
C318 H304 0.930 . S
C318 C316 1.395 . S
C318 C321 1.403 . S
C319 C316 1.403 . S
C319 C320 1.524 . S
C319 C323 1.400 . S
C320 H305 0.960 . S
C320 H306 0.960 . S
C320 H307 0.960 . S
C320 C319 1.524 . S
C321 C318 1.403 . S
C321 C322 1.392 . S
C321 C325 1.495 . S
C322 C321 1.392 . S
C322 C323 1.385 . S
C322 C324 1.478 . S
C323 H317 0.930 . S
C323 C319 1.400 . S
C323 C322 1.385 . S
C324 C322 1.478 . S
C324 C326 1.381 . S
C324 C330 1.383 . S
C325 C321 1.495 . S
C325 H331 0.959 . S
C325 H332 0.961 . S
C325 H333 0.960 . S
C326 C324 1.381 . S
C326 C327 1.394 . S
C326 H334 0.930 1_545 S
C327 C326 1.394 . S
C327 C328 1.383 . S
C327 H335 0.929 1_545 S
C328 C327 1.383 . S
C328 C329 1.377 . S
C329 H313 0.930 . S
C329 C328 1.377 . S
C329 C330 1.379 . S
C330 H314 0.931 . S
C330 C324 1.383 . S
C330 C329 1.379 . S
H331 C325 0.959 . S
H332 C325 0.961 . S
H333 C325 0.960 . S
H334 C326 0.930 1_565 S
H335 C327 0.929 1_565 S
H336 C344 0.929 . S
H337 C346 0.930 . S
H338 C348 0.930 . S
H339 C351 0.929 1_545 S
H340 C354 0.930 . S
H341 C356 0.960 . S
H342 C356 0.960 . S
H343 C356 0.960 . S
C344 H336 0.929 . S
C344 C345 1.377 . S
C344 C346 1.384 . S
C345 C344 1.377 . S
C345 C351 1.390 . S
C346 H337 0.930 . S
C346 C344 1.384 . S
C346 C347 1.372 . S
C347 C346 1.372 . S
C347 C348 1.400 . S
C347 C352 1.490 . S
C348 H338 0.930 . S
C348 C347 1.400 . S
C348 C351 1.386 . S
H349 C365 0.930 . S
H350 C366 0.931 . S
C351 H339 0.929 1_565 S
C351 C345 1.390 . S
C351 C348 1.386 . S
C352 C347 1.490 . S
C352 C354 1.395 . S
C352 C355 1.403 . S
H353 C359 0.930 . S
C354 H340 0.930 . S
C354 C352 1.395 . S
C354 C357 1.403 . S
C355 C352 1.403 . S
C355 C356 1.524 . S
C355 C359 1.400 . S
C356 H341 0.960 . S
C356 H342 0.960 . S
C356 H343 0.960 . S
C356 C355 1.524 . S
C357 C354 1.403 . S
C357 C358 1.392 . S
C357 C361 1.495 . S
C358 C357 1.392 . S
C358 C359 1.385 . S
C358 C360 1.478 . S
C359 H353 0.930 . S
C359 C355 1.400 . S
C359 C358 1.385 . S
C360 C358 1.478 . S
C360 C362 1.381 . S
C360 C366 1.383 . S
C361 C357 1.495 . S
C361 H367 0.959 . S
C361 H368 0.961 . S
C361 H369 0.960 . S
C362 C360 1.381 . S
C362 C363 1.394 . S
C362 H370 0.930 . S
C363 C362 1.394 . S
C363 C364 1.383 . S
C363 H371 0.929 . S
C364 C363 1.383 . S
C364 C365 1.377 . S
C365 H349 0.930 . S
C365 C364 1.377 . S
C365 C366 1.379 . S
C366 H350 0.931 . S
C366 C360 1.383 . S
C366 C365 1.379 . S
H367 C361 0.959 . S
H368 C361 0.961 . S
H369 C361 0.960 . S
H370 C362 0.930 . S
H371 C363 0.929 . S
H372 C380 0.929 . S
H373 C382 0.930 . S
H374 C384 0.930 . S
H375 C387 0.929 1_545 S
H376 C390 0.930 . S
H377 C392 0.960 . S
H378 C392 0.960 . S
H379 C392 0.960 . S
C380 H372 0.929 . S
C380 C381 1.377 . S
C380 C382 1.384 . S
C381 C380 1.377 . S
C381 C387 1.390 . S
C382 H373 0.930 . S
C382 C380 1.384 . S
C382 C383 1.372 . S
C383 C382 1.372 . S
C383 C384 1.400 . S
C383 C388 1.490 . S
C384 H374 0.930 . S
C384 C383 1.400 . S
C384 C387 1.386 . S
H385 C401 0.930 . S
H386 C402 0.931 . S
C387 H375 0.929 1_565 S
C387 C381 1.390 . S
C387 C384 1.386 . S
C388 C383 1.490 . S
C388 C390 1.395 . S
C388 C391 1.403 . S
H389 C395 0.930 . S
C390 H376 0.930 . S
C390 C388 1.395 . S
C390 C393 1.403 . S
C391 C388 1.403 . S
C391 C392 1.524 1_455 S
C391 C395 1.400 . S
C392 H377 0.960 . S
C392 H378 0.960 . S
C392 H379 0.960 . S
C392 C391 1.524 1_655 S
C393 C390 1.403 . S
C393 C394 1.392 . S
C393 C397 1.495 . S
C394 C393 1.392 . S
C394 C395 1.385 . S
C394 C396 1.478 . S
C395 H389 0.930 . S
C395 C391 1.400 . S
C395 C394 1.385 . S
C396 C394 1.478 . S
C396 C398 1.381 . S
C396 C402 1.383 . S
C397 C393 1.495 . S
C397 H403 0.959 . S
C397 H404 0.961 . S
C397 H405 0.960 . S
C398 C396 1.381 . S
C398 C399 1.394 . S
C398 H406 0.930 . S
C399 C398 1.394 . S
C399 C400 1.383 . S
C399 H407 0.929 . S
C400 C399 1.383 . S
C400 C401 1.377 . S
C401 H385 0.930 . S
C401 C400 1.377 . S
C401 C402 1.379 . S
C402 H386 0.931 . S
C402 C396 1.383 . S
C402 C401 1.379 . S
H403 C397 0.959 . S
H404 C397 0.961 . S
H405 C397 0.960 . S
H406 C398 0.930 . S
H407 C399 0.929 . S
H408 C416 0.929 . S
H409 C418 0.930 . S
H410 C420 0.930 1_565 S
H411 C423 0.929 1_565 S
H412 C426 0.930 . S
H413 C428 0.960 . S
H414 C428 0.960 . S
H415 C428 0.960 1_565 S
C416 H408 0.929 . S
C416 C417 1.377 . S
C416 C418 1.384 . S
C417 C416 1.377 . S
C417 C423 1.390 . S
C418 H409 0.930 . S
C418 C416 1.384 . S
C418 C419 1.372 . S
C419 C418 1.372 . S
C419 C420 1.400 . S
C419 C424 1.490 . S
C420 H410 0.930 1_545 S
C420 C419 1.400 . S
C420 C423 1.386 . S
H421 C437 0.930 . S
H422 C438 0.931 . S
C423 H411 0.929 1_545 S
C423 C417 1.390 . S
C423 C420 1.386 . S
C424 C419 1.490 . S
C424 C426 1.395 . S
C424 C427 1.403 . S
H425 C431 0.930 . S
C426 H412 0.930 . S
C426 C424 1.395 . S
C426 C429 1.403 . S
C427 C424 1.403 . S
C427 C428 1.524 . S
C427 C431 1.400 . S
C428 H413 0.960 . S
C428 H414 0.960 . S
C428 H415 0.960 1_545 S
C428 C427 1.524 . S
C429 C426 1.403 . S
C429 C430 1.392 . S
C429 C433 1.495 . S
C430 C429 1.392 . S
C430 C431 1.385 . S
C430 C432 1.478 . S
C431 H425 0.930 . S
C431 C427 1.400 . S
C431 C430 1.385 . S
C432 C430 1.478 . S
C432 C434 1.381 . S
C432 C438 1.383 . S
C433 C429 1.495 . S
C433 H439 0.959 . S
C433 H440 0.961 . S
C433 H441 0.960 . S
C434 C432 1.381 . S
C434 C435 1.394 . S
C434 H442 0.930 . S
C435 C434 1.394 . S
C435 C436 1.383 . S
C435 H443 0.929 . S
C436 C435 1.383 . S
C436 C437 1.377 . S
C437 H421 0.930 . S
C437 C436 1.377 . S
C437 C438 1.379 . S
C438 H422 0.931 . S
C438 C432 1.383 . S
C438 C437 1.379 . S
H439 C433 0.959 . S
H440 C433 0.961 . S
H441 C433 0.960 . S
H442 C434 0.930 . S
H443 C435 0.929 . S
H444 C452 0.929 . S
H445 C454 0.930 . S
H446 C456 0.930 . S
H447 C459 0.929 . S
H448 C462 0.930 . S
H449 C464 0.960 . S
H450 C464 0.960 . S
H451 C464 0.960 . S
C452 H444 0.929 . S
C452 C453 1.377 . S
C452 C454 1.384 . S
C453 C452 1.377 . S
C453 C459 1.390 . S
C454 H445 0.930 . S
C454 C452 1.384 . S
C454 C455 1.372 . S
C455 C454 1.372 . S
C455 C456 1.400 . S
C455 C460 1.490 . S
C456 H446 0.930 . S
C456 C455 1.400 . S
C456 C459 1.386 . S
H457 C473 0.930 . S
H458 C474 0.931 . S
C459 H447 0.929 . S
C459 C453 1.390 . S
C459 C456 1.386 . S
C460 C455 1.490 . S
C460 C462 1.395 . S
C460 C463 1.403 . S
H461 C467 0.930 . S
C462 H448 0.930 . S
C462 C460 1.395 . S
C462 C465 1.403 . S
C463 C460 1.403 . S
C463 C464 1.524 . S
C463 C467 1.400 . S
C464 H449 0.960 . S
C464 H450 0.960 . S
C464 H451 0.960 . S
C464 C463 1.524 . S
C465 C462 1.403 . S
C465 C466 1.392 . S
C465 C469 1.495 . S
C466 C465 1.392 . S
C466 C467 1.385 . S
C466 C468 1.478 . S
C467 H461 0.930 . S
C467 C463 1.400 . S
C467 C466 1.385 . S
C468 C466 1.478 . S
C468 C470 1.381 . S
C468 C474 1.383 . S
C469 C465 1.495 . S
C469 H475 0.959 . S
C469 H476 0.961 . S
C469 H477 0.960 . S
C470 C468 1.381 . S
C470 C471 1.394 . S
C470 H478 0.930 . S
C471 C470 1.394 . S
C471 C472 1.383 . S
C471 H479 0.929 . S
C472 C471 1.383 . S
C472 C473 1.377 . S
C473 H457 0.930 . S
C473 C472 1.377 . S
C473 C474 1.379 . S
C474 H458 0.931 . S
C474 C468 1.383 . S
C474 C473 1.379 . S
H475 C469 0.959 . S
H476 C469 0.961 . S
H477 C469 0.960 . S
H478 C470 0.930 . S
H479 C471 0.929 . S
H480 C488 0.929 . S
H481 C490 0.930 . S
H482 C492 0.930 . S
H483 C495 0.929 . S
H484 C498 0.930 . S
H485 C500 0.960 . S
H486 C500 0.960 . S
H487 C500 0.960 . S
C488 H480 0.929 . S
C488 C489 1.377 . S
C488 C490 1.384 . S
C489 C488 1.377 . S
C489 C495 1.390 . S
C490 H481 0.930 . S
C490 C488 1.384 . S
C490 C491 1.372 . S
C491 C490 1.372 . S
C491 C492 1.400 . S
C491 C496 1.490 . S
C492 H482 0.930 . S
C492 C491 1.400 . S
C492 C495 1.386 . S
H493 C509 0.930 . S
H494 C510 0.931 . S
C495 H483 0.929 . S
C495 C489 1.390 . S
C495 C492 1.386 . S
C496 C491 1.490 . S
C496 C498 1.395 . S
C496 C499 1.403 . S
H497 C503 0.930 . S
C498 H484 0.930 . S
C498 C496 1.395 . S
C498 C501 1.403 . S
C499 C496 1.403 . S
C499 C500 1.524 . S
C499 C503 1.400 . S
C500 H485 0.960 . S
C500 H486 0.960 . S
C500 H487 0.960 . S
C500 C499 1.524 . S
C501 C498 1.403 . S
C501 C502 1.392 . S
C501 C505 1.495 . S
C502 C501 1.392 . S
C502 C503 1.385 . S
C502 C504 1.478 . S
C503 H497 0.930 . S
C503 C499 1.400 . S
C503 C502 1.385 . S
C504 C502 1.478 . S
C504 C506 1.381 . S
C504 C510 1.383 . S
C505 C501 1.495 . S
C505 H511 0.959 . S
C505 H512 0.961 . S
C505 H513 0.960 . S
C506 C504 1.381 . S
C506 C507 1.394 . S
C506 H514 0.930 . S
C507 C506 1.394 . S
C507 C508 1.383 . S
C507 H515 0.929 . S
C508 C507 1.383 . S
C508 C509 1.377 . S
C509 H493 0.930 . S
C509 C508 1.377 . S
C509 C510 1.379 . S
C510 H494 0.931 . S
C510 C504 1.383 . S
C510 C509 1.379 . S
H511 C505 0.959 . S
H512 C505 0.961 . S
H513 C505 0.960 . S
H514 C506 0.930 . S
H515 C507 0.929 . S
H516 C524 0.929 . S
H517 C526 0.930 . S
H518 C528 0.930 . S
H519 C531 0.929 . S
H520 C534 0.930 . S
H521 C536 0.960 . S
H522 C536 0.960 . S
H523 C536 0.960 1_545 S
C524 H516 0.929 . S
C524 C525 1.377 . S
C524 C526 1.384 . S
C525 C524 1.377 . S
C525 C531 1.390 1_565 S
C526 H517 0.930 . S
C526 C524 1.384 . S
C526 C527 1.372 . S
C527 C526 1.372 . S
C527 C528 1.400 . S
C527 C532 1.490 . S
C528 H518 0.930 . S
C528 C527 1.400 . S
C528 C531 1.386 1_565 S
H529 C545 0.930 . S
H530 C546 0.931 . S
C531 H519 0.929 . S
C531 C525 1.390 1_545 S
C531 C528 1.386 1_545 S
C532 C527 1.490 . S
C532 C534 1.395 . S
C532 C535 1.403 1_554 S
H533 C539 0.930 . S
C534 H520 0.930 . S
C534 C532 1.395 . S
C534 C537 1.403 . S
C535 C532 1.403 1_556 S
C535 C536 1.524 . S
C535 C539 1.400 . S
C536 H521 0.960 . S
C536 H522 0.960 . S
C536 H523 0.960 1_565 S
C536 C535 1.524 . S
C537 C534 1.403 . S
C537 C538 1.392 1_554 S
C537 C541 1.495 . S
C538 C537 1.392 1_556 S
C538 C539 1.385 . S
C538 C540 1.478 . S
C539 H533 0.930 . S
C539 C535 1.400 . S
C539 C538 1.385 . S
C540 C538 1.478 . S
C540 C542 1.381 . S
C540 C546 1.383 . S
C541 C537 1.495 . S
C541 H547 0.959 . S
C541 H548 0.961 . S
C541 H549 0.960 1_554 S
C542 C540 1.381 . S
C542 C543 1.394 . S
C542 H550 0.930 . S
C543 C542 1.394 . S
C543 C544 1.383 . S
C543 H551 0.929 . S
C544 C543 1.383 . S
C544 C545 1.377 . S
C545 H529 0.930 . S
C545 C544 1.377 . S
C545 C546 1.379 . S
C546 H530 0.931 . S
C546 C540 1.383 . S
C546 C545 1.379 . S
H547 C541 0.959 . S
H548 C541 0.961 . S
H549 C541 0.960 1_556 S
H550 C542 0.930 . S
H551 C543 0.929 . S
H552 C560 0.929 . S
H553 C562 0.930 . S
H554 C564 0.930 . S
H555 C567 0.929 . S
H556 C570 0.930 . S
H557 C572 0.960 . S
H558 C572 0.960 . S
H559 C572 0.960 . S
C560 H552 0.929 . S
C560 C561 1.377 1_655 S
C560 C562 1.384 . S
C561 C560 1.377 1_455 S
C561 C567 1.390 . S
C562 H553 0.930 . S
C562 C560 1.384 . S
C562 C563 1.372 1_655 S
C563 C562 1.372 1_455 S
C563 C564 1.400 . S
C563 C568 1.495 1_455 S
C564 H554 0.930 . S
C564 C563 1.400 . S
C564 C567 1.386 . S
H565 C581 0.930 . S
H566 C582 0.931 . S
C567 H555 0.929 . S
C567 C561 1.390 . S
C567 C564 1.386 . S
C568 C563 1.495 1_655 S
C568 C570 1.401 . S
C568 C571 1.391 1_655 S
H569 C575 0.930 . S
C570 H556 0.930 . S
C570 C568 1.401 . S
C570 C573 1.403 . S
C571 C568 1.391 1_455 S
C571 C572 1.524 . S
C571 C575 1.400 . S
C572 H557 0.960 . S
C572 H558 0.960 . S
C572 H559 0.960 . S
C572 C571 1.524 . S
C573 C570 1.403 . S
C573 C574 1.392 . S
C573 C577 1.495 . S
C574 C573 1.392 . S
C574 C575 1.385 1_655 S
C574 C576 1.478 . S
C575 H569 0.930 . S
C575 C571 1.400 . S
C575 C574 1.385 1_455 S
C576 C574 1.478 . S
C576 C578 1.381 . S
C576 C582 1.383 1_655 S
C577 C573 1.495 . S
C577 H583 0.959 . S
C577 H584 0.961 . S
C577 H585 0.960 . S
C578 C576 1.381 . S
C578 C579 1.394 . S
C578 H586 0.930 . S
C579 C578 1.394 . S
C579 C580 1.383 . S
C579 H587 0.929 . S
C580 C579 1.383 . S
C580 C581 1.377 1_655 S
C581 H565 0.930 . S
C581 C580 1.377 1_455 S
C581 C582 1.379 . S
C582 H566 0.931 . S
C582 C576 1.383 1_455 S
C582 C581 1.379 . S
H583 C577 0.959 . S
H584 C577 0.961 . S
H585 C577 0.960 . S
H586 C578 0.930 . S
H587 C579 0.929 . S
H588 C596 0.929 . S
H589 C598 0.930 . S
H590 C600 0.930 . S
H591 C603 0.929 . S
H592 C606 0.930 . S
H593 C608 0.960 . S
H594 C608 0.960 . S
H595 C608 0.960 . S
C596 H588 0.929 . S
C596 C597 1.377 . S
C596 C598 1.384 . S
C597 C596 1.377 . S
C597 C603 1.390 . S
C598 H589 0.930 . S
C598 C596 1.384 . S
C598 C599 1.372 . S
C599 C598 1.372 . S
C599 C600 1.400 . S
C599 C604 1.490 . S
C600 H590 0.930 . S
C600 C599 1.400 . S
C600 C603 1.386 . S
H601 C617 0.930 . S
H602 C618 0.931 . S
C603 H591 0.929 . S
C603 C597 1.390 . S
C603 C600 1.386 . S
C604 C599 1.490 . S
C604 C606 1.395 . S
C604 C607 1.403 . S
H605 C611 0.930 . S
C606 H592 0.930 . S
C606 C604 1.395 . S
C606 C609 1.403 . S
C607 C604 1.403 . S
C607 C608 1.524 . S
C607 C611 1.400 . S
C608 H593 0.960 . S
C608 H594 0.960 . S
C608 H595 0.960 . S
C608 C607 1.524 . S
C609 C606 1.403 . S
C609 C610 1.392 . S
C609 C613 1.495 . S
C610 C609 1.392 . S
C610 C611 1.385 . S
C610 C612 1.478 . S
C611 H605 0.930 . S
C611 C607 1.400 . S
C611 C610 1.385 . S
C612 C610 1.478 . S
C612 C614 1.381 . S
C612 C618 1.383 . S
C613 C609 1.495 . S
C613 H619 0.959 . S
C613 H620 0.961 . S
C613 H621 0.960 . S
C614 C612 1.381 . S
C614 C615 1.394 . S
C614 H622 0.930 . S
C615 C614 1.394 . S
C615 C616 1.383 . S
C615 H623 0.929 . S
C616 C615 1.383 . S
C616 C617 1.377 . S
C617 H601 0.930 . S
C617 C616 1.377 . S
C617 C618 1.379 . S
C618 H602 0.931 . S
C618 C612 1.383 . S
C618 C617 1.379 . S
H619 C613 0.959 . S
H620 C613 0.961 . S
H621 C613 0.960 . S
H622 C614 0.930 . S
H623 C615 0.929 . S
H624 C632 0.929 . S
H625 C634 0.930 . S
H626 C636 0.930 . S
H627 C639 0.929 . S
H628 C642 0.930 . S
H629 C644 0.960 . S
H630 C644 0.960 . S
H631 C644 0.960 . S
C632 H624 0.929 . S
C632 C633 1.377 . S
C632 C634 1.384 . S
C633 C632 1.377 . S
C633 C639 1.390 . S
C634 H625 0.930 . S
C634 C632 1.384 . S
C634 C635 1.372 . S
C635 C634 1.372 . S
C635 C636 1.400 . S
C635 C640 1.490 . S
C636 H626 0.930 . S
C636 C635 1.400 . S
C636 C639 1.386 . S
H637 C653 0.930 . S
H638 C654 0.931 . S
C639 H627 0.929 . S
C639 C633 1.390 . S
C639 C636 1.386 . S
C640 C635 1.490 . S
C640 C642 1.395 . S
C640 C643 1.403 . S
H641 C647 0.930 1_556 S
C642 H628 0.930 . S
C642 C640 1.395 . S
C642 C645 1.403 . S
C643 C640 1.403 . S
C643 C644 1.524 . S
C643 C647 1.400 . S
C644 H629 0.960 . S
C644 H630 0.960 . S
C644 H631 0.960 . S
C644 C643 1.524 . S
C645 C642 1.403 . S
C645 C646 1.392 . S
C645 C649 1.495 . S
C646 C645 1.392 . S
C646 C647 1.385 . S
C646 C648 1.478 1_554 S
C647 H641 0.930 1_554 S
C647 C643 1.400 . S
C647 C646 1.385 . S
C648 C646 1.478 1_556 S
C648 C650 1.381 . S
C648 C654 1.383 . S
C649 C645 1.495 . S
C649 H655 0.959 . S
C649 H656 0.961 . S
C649 H657 0.960 . S
C650 C648 1.381 . S
C650 C651 1.394 . S
C650 H658 0.930 1_556 S
C651 C650 1.394 . S
C651 C652 1.383 . S
C651 H659 0.929 . S
C652 C651 1.383 . S
C652 C653 1.377 . S
C653 H637 0.930 . S
C653 C652 1.377 . S
C653 C654 1.379 . S
C654 H638 0.931 . S
C654 C648 1.383 . S
C654 C653 1.379 . S
H655 C649 0.959 . S
H656 C649 0.961 . S
H657 C649 0.960 . S
H658 C650 0.930 1_554 S
H659 C651 0.929 . S
H660 C668 0.929 . S
H661 C670 0.930 . S
H662 C672 0.930 . S
H663 C675 0.929 . S
H664 C678 0.930 . S
H665 C680 0.960 . S
H666 C680 0.960 1_455 S
H667 C680 0.960 . S
C668 H660 0.929 . S
C668 C669 1.377 . S
C668 C670 1.384 . S
C669 C668 1.377 . S
C669 C675 1.390 1_455 S
C670 H661 0.930 . S
C670 C668 1.384 . S
C670 C671 1.372 . S
C671 C670 1.372 . S
C671 C672 1.400 1_455 S
C671 C676 1.490 . S
C672 H662 0.930 . S
C672 C671 1.400 1_655 S
C672 C675 1.386 . S
H673 C689 0.930 . S
H674 C690 0.931 . S
C675 H663 0.929 . S
C675 C669 1.390 1_655 S
C675 C672 1.386 . S
C676 C671 1.490 . S
C676 C678 1.395 . S
C676 C679 1.403 . S
H677 C683 0.930 . S
C678 H664 0.930 . S
C678 C676 1.395 . S
C678 C681 1.403 . S
C679 C676 1.403 . S
C679 C680 1.524 1_455 S
C679 C683 1.400 . S
C680 H665 0.960 . S
C680 H666 0.960 1_655 S
C680 H667 0.960 . S
C680 C679 1.524 1_655 S
C681 C678 1.403 . S
C681 C682 1.392 . S
C681 C685 1.495 . S
C682 C681 1.392 . S
C682 C683 1.385 . S
C682 C684 1.478 . S
C683 H677 0.930 . S
C683 C679 1.400 . S
C683 C682 1.385 . S
C684 C682 1.478 . S
C684 C686 1.381 . S
C684 C690 1.383 1_455 S
C685 C681 1.495 . S
C685 H691 0.959 . S
C685 H692 0.961 . S
C685 H693 0.960 . S
C686 C684 1.381 . S
C686 C687 1.394 . S
C686 H694 0.930 . S
C687 C686 1.394 . S
C687 C688 1.383 . S
C687 H695 0.929 . S
C688 C687 1.383 . S
C688 C689 1.377 1_455 S
C689 H673 0.930 . S
C689 C688 1.377 1_655 S
C689 C690 1.379 . S
C690 H674 0.931 . S
C690 C684 1.383 1_655 S
C690 C689 1.379 . S
H691 C685 0.959 . S
H692 C685 0.961 . S
H693 C685 0.960 . S
H694 C686 0.930 . S
H695 C687 0.929 . S
C292 C81 1.341 . S
C273 C0 1.433 . S
C309 C25 1.381 . S
C328 C155 1.345 . S
C345 C33 2.217 1_565 S
C364 C259 2.210 . S
C381 C11 0.674 1_565 S
C400 C93 0.694 . S
C436 C167 0.682 . S
C417 C14 0.675 . S
C453 C37 1.459 . S
C472 C253 1.394 . S
C508 C185 2.207 . S
C489 C28 2.214 . S
C525 C9 1.505 1_565 S
C544 C229 1.391 . S
C580 C105 1.436 1_655 S
C561 C19 1.508 . S
C616 C179 1.345 . S
C597 C39 1.387 . S
C652 C241 0.734 . S
C633 C5 0.724 . S
C669 C23 2.329 . S
C688 C111 2.327 . S
