# Generated by pormake.
# Topology dag, (6,3)-cn, num edge types: 1
# Building blocks:
#     Node 0, Type 0, BuildingBlock: MIDCAF_clean_sbu_0, # of connection points: 6
#     Node 1, Type 0, BuildingBlock: MIDCAF_clean_sbu_0, # of connection points: 6
#     Node 2, Type 0, BuildingBlock: MIDCAF_clean_sbu_0, # of connection points: 6
#     Node 3, Type 0, BuildingBlock: MIDCAF_clean_sbu_0, # of connection points: 6
#     Node 4, Type 1, BuildingBlock: MIDCAF_clean_linker_0, # of connection points: 3
#     Node 5, Type 1, BuildingBlock: MIDCAF_clean_linker_0, # of connection points: 3
#     Node 6, Type 1, BuildingBlock: MIDCAF_clean_linker_0, # of connection points: 3
#     Node 7, Type 1, BuildingBlock: MIDCAF_clean_linker_0, # of connection points: 3
#     Node 8, Type 1, BuildingBlock: MIDCAF_clean_linker_0, # of connection points: 3
#     Node 9, Type 1, BuildingBlock: MIDCAF_clean_linker_0, # of connection points: 3
#     Node 10, Type 1, BuildingBlock: MIDCAF_clean_linker_0, # of connection points: 3
#     Node 11, Type 1, BuildingBlock: MIDCAF_clean_linker_0, # of connection points: 3
#     Edge 12, Type (0, 1), BuildingBlock: AJUNOK_clean_linker_0, # of connection points: 2
#     Edge 13, Type (0, 1), BuildingBlock: AJUNOK_clean_linker_0, # of connection points: 2
#     Edge 14, Type (0, 1), BuildingBlock: AJUNOK_clean_linker_0, # of connection points: 2
#     Edge 15, Type (0, 1), BuildingBlock: AJUNOK_clean_linker_0, # of connection points: 2
#     Edge 16, Type (0, 1), BuildingBlock: AJUNOK_clean_linker_0, # of connection points: 2
#     Edge 17, Type (0, 1), BuildingBlock: AJUNOK_clean_linker_0, # of connection points: 2
#     Edge 18, Type (0, 1), BuildingBlock: AJUNOK_clean_linker_0, # of connection points: 2
#     Edge 19, Type (0, 1), BuildingBlock: AJUNOK_clean_linker_0, # of connection points: 2
#     Edge 20, Type (0, 1), BuildingBlock: AJUNOK_clean_linker_0, # of connection points: 2
#     Edge 21, Type (0, 1), BuildingBlock: AJUNOK_clean_linker_0, # of connection points: 2
#     Edge 22, Type (0, 1), BuildingBlock: AJUNOK_clean_linker_0, # of connection points: 2
#     Edge 23, Type (0, 1), BuildingBlock: AJUNOK_clean_linker_0, # of connection points: 2
#     Edge 24, Type (0, 1), BuildingBlock: AJUNOK_clean_linker_0, # of connection points: 2
#     Edge 25, Type (0, 1), BuildingBlock: AJUNOK_clean_linker_0, # of connection points: 2
#     Edge 26, Type (0, 1), BuildingBlock: AJUNOK_clean_linker_0, # of connection points: 2
#     Edge 27, Type (0, 1), BuildingBlock: AJUNOK_clean_linker_0, # of connection points: 2
#     Edge 28, Type (0, 1), BuildingBlock: AJUNOK_clean_linker_0, # of connection points: 2
#     Edge 29, Type (0, 1), BuildingBlock: AJUNOK_clean_linker_0, # of connection points: 2
#     Edge 30, Type (0, 1), BuildingBlock: AJUNOK_clean_linker_0, # of connection points: 2
#     Edge 31, Type (0, 1), BuildingBlock: AJUNOK_clean_linker_0, # of connection points: 2
#     Edge 32, Type (0, 1), BuildingBlock: AJUNOK_clean_linker_0, # of connection points: 2
#     Edge 33, Type (0, 1), BuildingBlock: AJUNOK_clean_linker_0, # of connection points: 2
#     Edge 34, Type (0, 1), BuildingBlock: AJUNOK_clean_linker_0, # of connection points: 2
#     Edge 35, Type (0, 1), BuildingBlock: AJUNOK_clean_linker_0, # of connection points: 2
# Relax obj value: 0.310
# Max RMSD: 0.193
# Mean RMSD: 0.181
data_MOF--net-dag--node1-MIDCAF_clean_sbu_0--node2-MIDCAF_clean_linker_0--edge1-AJUNOK_clean_linker_0
_symmetry_space_group_name_H-M    P1
_symmetry_Int_Tables_number       1
_symmetry_cell_setting            triclinic
loop_
_symmetry_equiv_pos_as_xyz
'x, y, z'
_cell_length_a     37.666048
_cell_length_b     38.585189
_cell_length_c     28.494168
_cell_angle_alpha  86.104968
_cell_angle_beta   90.1219
_cell_angle_gamma 90.017518
loop_
_atom_site_label
_atom_site_type_symbol
_atom_site_fract_x
_atom_site_fract_y
_atom_site_fract_z
_atom_type_partial_charge
Zn0 Zn 0.2145 0.84577 0.08249 0.0
Zn1 Zn 0.1623 0.83455 0.85965 0.0
Zn2 Zn 0.20118 0.84203 0.99628 0.0
C3 C 0.19744 0.89029 0.91757 0.0
C4 C 0.11882 0.81944 0.9493 0.0
O5 O 0.24407 0.80339 0.01205 0.0
O6 O 0.25388 0.81206 0.08682 0.0
C7 C 0.22738 0.91239 0.04182 0.0
O8 O 0.2085 0.89261 0.95948 0.0
O9 O 0.19131 0.85977 0.90632 0.0
O10 O 0.12156 0.82179 0.90426 0.0
O11 O 0.14448 0.82625 0.97812 0.0
O12 O 0.22748 0.89569 0.08147 0.0
O13 O 0.21859 0.89669 0.00496 0.0
O14 O 0.15036 0.83138 0.031 0.0
O15 O 0.16624 0.83167 0.10566 0.0
C16 C 0.14242 0.82854 0.07495 0.0
O17 O 0.23467 0.80279 0.96502 0.0
O18 O 0.19805 0.82179 0.91169 0.0
C19 C 0.26146 0.7966 0.05051 0.0
C20 C 0.22222 0.80026 0.92381 0.0
Zn21 Zn 0.70097 0.64386 0.51189 0.0
Zn22 Zn 0.64728 0.6764 0.66845 0.0
Zn23 Zn 0.67484 0.66256 0.59086 0.0
C24 C 0.65153 0.60601 0.67445 0.0
C25 C 0.60083 0.70378 0.60124 0.0
O26 O 0.72352 0.69455 0.57691 0.0
O27 O 0.73814 0.67903 0.50606 0.0
C28 C 0.70638 0.58613 0.57225 0.0
O29 O 0.6694 0.61411 0.63678 0.0
O30 O 0.636 0.62923 0.69573 0.0
O31 O 0.60738 0.70516 0.64447 0.0
O32 O 0.62194 0.68696 0.57537 0.0
O33 O 0.71748 0.59683 0.53218 0.0
O34 O 0.68852 0.60639 0.59755 0.0
O35 O 0.63275 0.66927 0.53666 0.0
O36 O 0.65675 0.64831 0.47371 0.0
C37 C 0.63013 0.6604 0.49392 0.0
O38 O 0.71023 0.70163 0.62164 0.0
O39 O 0.68713 0.70194 0.69302 0.0
C40 C 0.74408 0.69688 0.54072 0.0
C41 C 0.71048 0.71218 0.66364 0.0
Zn42 Zn 0.78905 0.18348 0.9988 0.0
Zn43 Zn 0.84883 0.18718 0.16154 0.0
Zn44 Zn 0.81873 0.18572 0.08251 0.0
C45 C 0.90261 0.19695 0.09892 0.0
C46 C 0.81451 0.12415 0.16417 0.0
O47 O 0.77253 0.22128 0.07979 0.0
O48 O 0.74639 0.21033 0.01264 0.0
C49 C 0.85752 0.20477 0.9823 0.0
O50 O 0.87535 0.20014 0.07159 0.0
O51 O 0.89874 0.18766 0.14187 0.0
O52 O 0.82931 0.14361 0.19221 0.0
O53 O 0.81061 0.13469 0.1206 0.0
O54 O 0.82825 0.20544 0.96057 0.0
O55 O 0.85842 0.19761 0.02712 0.0
O56 O 0.80646 0.13097 0.07236 0.0
O57 O 0.78673 0.1319 0.99908 0.0
C58 C 0.7966 0.11493 0.03627 0.0
O59 O 0.79055 0.22508 0.12216 0.0
O60 O 0.82887 0.23129 0.1797 0.0
C61 C 0.74667 0.2256 0.05039 0.0
C62 C 0.80083 0.24081 0.1583 0.0
Zn63 Zn 0.2854 0.31111 0.63819 0.0
Zn64 Zn 0.36459 0.33251 0.44989 0.0
Zn65 Zn 0.33051 0.31473 0.51309 0.0
C66 C 0.41311 0.30146 0.49916 0.0
C67 C 0.30304 0.36833 0.44571 0.0
O68 O 0.27892 0.29524 0.4935 0.0
O69 O 0.28083 0.30209 0.56779 0.0
C70 C 0.34509 0.2708 0.59052 0.0
O71 O 0.38333 0.28878 0.51407 0.0
O72 O 0.41365 0.3294 0.47343 0.0
O73 O 0.33562 0.3763 0.44674 0.0
O74 O 0.29356 0.33759 0.4605 0.0
O75 O 0.31569 0.28638 0.5927 0.0
O76 O 0.359 0.27218 0.54971 0.0
O77 O 0.32628 0.35997 0.55621 0.0
O78 O 0.30246 0.36127 0.6287 0.0
C79 C 0.31805 0.37625 0.59281 0.0
O80 O 0.30004 0.29835 0.45061 0.0
O81 O 0.34845 0.29395 0.40838 0.0
C82 C 0.26296 0.29278 0.53298 0.0
C83 C 0.31592 0.28689 0.4145 0.0
C84 C 0.0673 0.1933 0.01429 0.0
C85 C 0.0484 0.21627 0.04094 0.0
C86 C 0.06701 0.23959 0.06751 0.0
C87 C 0.10396 0.23751 0.07129 0.0
H88 H 0.17021 0.22166 0.19367 0.0
H89 H 0.19367 0.23779 0.26886 0.0
H90 H 0.3 0.23765 0.21191 0.0
H91 H 0.27647 0.21861 0.13796 0.0
H92 H 0.26971 0.13096 0.08765 0.0
H93 H 0.28402 0.07048 0.07612 0.0
H94 H 0.19544 0.06491 0.98073 0.0
H95 H 0.18139 0.12541 0.99107 0.0
H96 H 0.11779 0.1717 0.99911 0.0
H97 H 0.05327 0.17494 0.99383 0.0
H98 H 0.05278 0.25729 0.08866 0.0
H99 H 0.11738 0.2542 0.09475 0.0
N100 N 0.17509 0.2176 0.09955 0.0
N101 N 0.22411 0.18041 0.0952 0.0
N102 N 0.17711 0.17741 0.04165 0.0
C103 C 0.20729 0.20648 0.11599 0.0
C104 C 0.20914 0.16567 0.05789 0.0
C105 C 0.16003 0.20355 0.06183 0.0
C106 C 0.22155 0.2192 0.15995 0.0
C107 C 0.19857 0.22539 0.19721 0.0
C108 C 0.21205 0.23492 0.24025 0.0
C109 C 0.24876 0.23968 0.24646 0.0
C110 C 0.27163 0.23391 0.20869 0.0
C111 C 0.25821 0.22331 0.16615 0.0
C112 C 0.22369 0.13285 0.04146 0.0
C113 C 0.25382 0.11724 0.06316 0.0
C114 C 0.26203 0.08256 0.05669 0.0
C115 C 0.24019 0.06284 0.02863 0.0
C116 C 0.21257 0.07947 1.00282 0.0
C117 C 0.20443 0.11417 0.00906 0.0
C118 C 0.12278 0.21203 0.04847 0.0
C119 C 0.10424 0.19134 0.01772 0.0
C120 C 0.34757 0.54732 0.56001 0.0
C121 C 0.32293 0.52707 0.58663 0.0
C122 C 0.29692 0.54382 0.61224 0.0
C123 C 0.29714 0.5799 0.61397 0.0
H124 H 0.26834 0.65428 0.7057 0.0
H125 H 0.24635 0.67644 0.77857 0.0
H126 H 0.31075 0.76832 0.75405 0.0
H127 H 0.33301 0.74643 0.68154 0.0
H128 H 0.38221 0.75531 0.59633 0.0
H129 H 0.44331 0.77385 0.58358 0.0
H130 H 0.46127 0.68791 0.49763 0.0
H131 H 0.40027 0.66883 0.51031 0.0
H132 H 0.36789 0.59815 0.54185 0.0
H133 H 0.36774 0.53513 0.53965 0.0
H134 H 0.27678 0.52894 0.63176 0.0
H135 H 0.27748 0.59185 0.6354 0.0
N136 N 0.31037 0.65147 0.63372 0.0
N137 N 0.34021 0.70412 0.61679 0.0
N138 N 0.34967 0.65746 0.56997 0.0
C139 C 0.31699 0.68477 0.64399 0.0
C140 C 0.35648 0.69082 0.57946 0.0
C141 C 0.32651 0.63767 0.5966 0.0
C142 C 0.30232 0.69862 0.68737 0.0
C143 C 0.27779 0.67926 0.71568 0.0
C144 C 0.26518 0.69189 0.75745 0.0
C145 C 0.2769 0.72407 0.7719 0.0
C146 C 0.30155 0.74328 0.74394 0.0
C147 C 0.31401 0.73081 0.70211 0.0
C148 C 0.38688 0.70952 0.55639 0.0
C149 C 0.39856 0.7411 0.57299 0.0
C150 C 0.43349 0.75209 0.56523 0.0
C151 C 0.45703 0.73177 0.54063 0.0
C152 C 0.44361 0.70386 0.51698 0.0
C153 C 0.40868 0.69272 0.52484 0.0
C154 C 0.32305 0.6001 0.58952 0.0
C155 C 0.3476 0.58347 0.56134 0.0
C156 C 0.80914 0.79679 0.40148 0.0
C157 C 0.83362 0.78337 0.43519 0.0
C158 C 0.87011 0.78497 0.42432 0.0
C159 C 0.88164 0.7998 0.38054 0.0
H160 H 0.93944 0.78387 0.22109 0.0
H161 H 0.99354 0.77678 0.17459 0.0
H162 H 0.00562 0.88836 0.15929 0.0
H163 H 0.95087 0.8952 0.20234 0.0
H164 H 0.84657 0.91083 0.15894 0.0
H165 H 0.82149 0.96865 0.13994 0.0
H166 H 0.79442 0.97668 0.28566 0.0
H167 H 0.81748 0.91836 0.30459 0.0
H168 H 0.80071 0.82186 0.33353 0.0
H169 H 0.78083 0.79511 0.40794 0.0
H170 H 0.88966 0.77494 0.44962 0.0
H171 H 0.90982 0.80136 0.37321 0.0
N172 N 0.89816 0.82573 0.27979 0.0
N173 N 0.88565 0.87203 0.22396 0.0
N174 N 0.84682 0.8596 0.28652 0.0
C175 C 0.90707 0.84537 0.23982 0.0
C176 C 0.8554 0.87911 0.24707 0.0
C177 C 0.86768 0.83289 0.30311 0.0
C178 C 0.94085 0.84006 0.21491 0.0
C179 C 0.95373 0.80674 0.20746 0.0
C180 C 0.98463 0.80275 0.18082 0.0
C181 C 0.0035 0.83202 0.16194 0.0
C182 C 0.99105 0.86522 0.17113 0.0
C183 C 0.95987 0.86917 0.19652 0.0
C184 C 0.83457 0.91047 0.23334 0.0
C185 C 0.83428 0.92455 0.1866 0.0
C186 C 0.81985 0.95746 0.17567 0.0
C187 C 0.80668 0.97703 0.21153 0.0
C188 C 0.80437 0.96187 0.25751 0.0
C189 C 0.81777 0.92862 0.26824 0.0
C190 C 0.85685 0.81354 0.34735 0.0
C191 C 0.82056 0.81172 0.3584 0.0
C192 C 0.61918 0.33381 0.98828 0.0
C193 C 0.62391 0.29812 0.99968 0.0
C194 C 0.6047 0.27428 0.97417 0.0
C195 C 0.58399 0.28576 0.93543 0.0
H196 H 0.47912 0.28682 0.84255 0.0
H197 H 0.42983 0.26222 0.7988 0.0
H198 H 0.48319 0.29099 0.66832 0.0
H199 H 0.53201 0.31563 0.71122 0.0
H200 H 0.56654 0.39554 0.7136 0.0
H201 H 0.58927 0.44989 0.67636 0.0
H202 H 0.64711 0.46888 0.80289 0.0
H203 H 0.62495 0.41446 0.84031 0.0
H204 H 0.59796 0.37283 0.93913 0.0
H205 H 0.63333 0.3528 0.00748 0.0
H206 H 0.60822 0.24657 0.98115 0.0
H207 H 0.57178 0.26663 0.91443 0.0
N208 N 0.54537 0.31361 0.85073 0.0
N209 N 0.55242 0.35077 0.78256 0.0
N210 N 0.5851 0.36056 0.85021 0.0
C211 C 0.53653 0.32278 0.80522 0.0
C212 C 0.57672 0.36983 0.80481 0.0
C213 C 0.56973 0.33257 0.87339 0.0
C214 C 0.50931 0.30332 0.78027 0.0
C215 C 0.48069 0.28704 0.80458 0.0
C216 C 0.45257 0.27297 0.7797 0.0
C217 C 0.45324 0.27414 0.73035 0.0
C218 C 0.48263 0.28885 0.70636 0.0
C219 C 0.51031 0.30338 0.73098 0.0
C220 C 0.5933 0.40088 0.78035 0.0
C221 C 0.58439 0.41102 0.73344 0.0
C222 C 0.59741 0.4421 0.71202 0.0
C223 C 0.61948 0.46366 0.73709 0.0
C224 C 0.63014 0.45263 0.78286 0.0
C225 C 0.61716 0.42157 0.80433 0.0
C226 C 0.58268 0.32121 0.92095 0.0
C227 C 0.59898 0.34524 0.94908 0.0
C228 C 0.57127 0.28334 0.56766 0.0
C229 C 0.5562 0.259 0.53896 0.0
C230 C 0.57888 0.23872 0.51288 0.0
C231 C 0.61486 0.24717 0.50869 0.0
H232 H 0.69537 0.25105 0.40106 0.0
H233 H 0.71274 0.24456 0.31988 0.0
H234 H 0.73648 0.35425 0.30259 0.0
H235 H 0.72088 0.36036 0.38475 0.0
H236 H 0.74449 0.39309 0.48393 0.0
H237 H 0.75149 0.45007 0.51372 0.0
H238 H 0.68519 0.41939 0.63284 0.0
H239 H 0.67742 0.36222 0.60265 0.0
H240 H 0.61721 0.3125 0.58357 0.0
H241 H 0.55473 0.29913 0.58881 0.0
H242 H 0.56826 0.21857 0.4922 0.0
H243 H 0.631 0.23365 0.48432 0.0
N244 N 0.67312 0.2881 0.47021 0.0
N245 N 0.71067 0.33643 0.4728 0.0
N246 N 0.67475 0.31975 0.53742 0.0
C247 C 0.69778 0.30964 0.44927 0.0
C248 C 0.69961 0.34137 0.51726 0.0
C249 C 0.66144 0.29298 0.51433 0.0
C250 C 0.70752 0.30602 0.3996 0.0
C251 C 0.70432 0.27378 0.37995 0.0
C252 C 0.71385 0.27017 0.33321 0.0
C253 C 0.72631 0.29884 0.30479 0.0
C254 C 0.72785 0.33148 0.32383 0.0
C255 C 0.71898 0.33495 0.37092 0.0
C256 C 0.70991 0.37315 0.54038 0.0
C257 C 0.73205 0.39803 0.51708 0.0
C258 C 0.7364 0.43069 0.53446 0.0
C259 C 0.71902 0.43912 0.57579 0.0
C260 C 0.69885 0.41354 0.60087 0.0
C261 C 0.69444 0.38081 0.58347 0.0
C262 C 0.62871 0.27532 0.53167 0.0
C263 C 0.60731 0.2912 0.5644 0.0
C264 C 0.14915 0.17816 0.59693 0.0
C265 C 0.14004 0.2134 0.5896 0.0
C266 C 0.10942 0.22562 0.61108 0.0
C267 C 0.08969 0.20361 0.64199 0.0
H268 H 0.03051 0.20954 0.77146 0.0
H269 H 0.98971 0.23063 0.8305 0.0
H270 H 0.94829 0.12674 0.85622 0.0
H271 H 0.98944 0.10563 0.7991 0.0
H272 H 0.05794 0.05169 0.81266 0.0
H273 H 0.08817 0.002 0.85129 0.0
H274 H 0.17683 0.018 0.75666 0.0
H275 H 0.14656 0.06812 0.71731 0.0
H276 H 0.13833 0.12955 0.63457 0.0
H277 H 0.17297 0.16818 0.58142 0.0
H278 H 0.10192 0.25273 0.60598 0.0
H279 H 0.0672 0.21436 0.65962 0.0
N280 N 0.05587 0.16044 0.71531 0.0
N281 N 0.05527 0.11002 0.76586 0.0
N282 N 0.09716 0.11583 0.70538 0.0
C283 C 0.04152 0.14158 0.75247 0.0
C284 C 0.08312 0.09693 0.74283 0.0
C285 C 0.08337 0.14745 0.69102 0.0
C286 C 0.01339 0.15589 0.78133 0.0
C287 C 0.01231 0.19142 0.78942 0.0
C288 C 0.9892 0.20344 0.82325 0.0
C289 C 0.96687 0.18005 0.84903 0.0
C290 C 0.96629 0.14507 0.83825 0.0
C291 C 0.98956 0.13305 0.80521 0.0
C292 C 0.09991 0.0642 0.762 0.0
C293 C 0.08374 0.04462 0.79957 0.0
C294 C 0.10106 0.01617 0.82192 0.0
C295 C 0.13488 0.00641 0.80717 0.0
C296 C 0.15063 0.02494 0.76848 0.0
C297 C 0.13328 0.05362 0.74603 0.0
C298 C 0.10041 0.16899 0.65231 0.0
C299 C 0.12951 0.15615 0.62794 0.0
C300 C 0.37807 0.68301 0.14149 0.0
C301 C 0.34351 0.68253 0.1228 0.0
C302 C 0.31903 0.65824 0.14258 0.0
C303 C 0.32791 0.63709 0.18256 0.0
H304 H 0.29743 0.55034 0.26777 0.0
H305 H 0.26334 0.49961 0.29722 0.0
H306 H 0.31295 0.50469 0.43328 0.0
H307 H 0.34655 0.55528 0.4045 0.0
H308 H 0.43027 0.58335 0.39971 0.0
H309 H 0.48386 0.59802 0.44215 0.0
H310 H 0.49553 0.69163 0.3515 0.0
H311 H 0.44278 0.67626 0.30765 0.0
H312 H 0.41306 0.66463 0.19698 0.0
H313 H 0.39758 0.7013 0.12681 0.0
H314 H 0.29196 0.65759 0.12983 0.0
H315 H 0.30764 0.62018 0.19839 0.0
N316 N 0.34509 0.59855 0.26992 0.0
N317 N 0.37821 0.59373 0.33979 0.0
N318 N 0.39616 0.63253 0.27743 0.0
C319 C 0.34988 0.58391 0.31415 0.0
C320 C 0.40142 0.61808 0.32174 0.0
C321 C 0.36811 0.6228 0.25123 0.0
C322 C 0.32532 0.55652 0.33352 0.0
C323 C 0.30044 0.54116 0.30433 0.0
C324 C 0.28071 0.51221 0.32118 0.0
C325 C 0.28519 0.49828 0.36764 0.0
C326 C 0.30819 0.51518 0.39764 0.0
C327 C 0.328 0.54393 0.38082 0.0
C328 C 0.43251 0.62832 0.34973 0.0
C329 C 0.44417 0.60712 0.38883 0.0
C330 C 0.47482 0.61561 0.41336 0.0
C331 C 0.49436 0.64565 0.39965 0.0
C332 C 0.48173 0.66773 0.36201 0.0
C333 C 0.45137 0.659 0.33703 0.0
C334 C 0.36129 0.64012 0.20406 0.0
C335 C 0.38684 0.66216 0.1819 0.0
C336 C 0.85055 0.95492 0.00868 0.0
C337 C 0.81588 0.96712 0.01563 0.0
C338 C 0.78718 0.94428 0.00995 0.0
C339 C 0.79307 0.91035 0.99711 0.0
H340 H 0.80495 0.86028 0.84664 0.0
H341 H 0.78506 0.84104 0.77102 0.0
H342 H 0.80121 0.73425 0.82243 0.0
H343 H 0.82301 0.75362 0.89681 0.0
H344 H 0.90697 0.7581 0.95065 0.0
H345 H 0.97061 0.74889 0.95905 0.0
H346 H 0.97431 0.82097 0.06781 0.0
H347 H 0.91077 0.83051 0.06005 0.0
H348 H 0.88345 0.91218 0.99236 0.0
H349 H 0.87327 0.97196 0.01035 0.0
H350 H 0.76014 0.95271 0.01511 0.0
H351 H 0.77061 0.89339 0.99238 0.0
N352 N 0.81909 0.85109 0.93858 0.0
N353 N 0.85489 0.80117 0.94595 0.0
N354 N 0.86096 0.84406 0.99959 0.0
C355 C 0.82899 0.81999 0.92283 0.0
C356 C 0.87094 0.81291 0.98454 0.0
C357 C 0.8348 0.86296 0.97738 0.0
C358 C 0.815 0.80841 0.87792 0.0
C359 C 0.80407 0.8327 0.84178 0.0
C360 C 0.79272 0.82166 0.79842 0.0
C361 C 0.79114 0.78605 0.79071 0.0
C362 C 0.8025 0.76188 0.82682 0.0
C363 C 0.81457 0.77294 0.86972 0.0
C364 C 0.90409 0.79638 1.00304 0.0
C365 C 0.92086 0.77077 0.97807 0.0
C366 C 0.95731 0.76507 0.98321 0.0
C367 C 0.97717 0.78468 0.01354 0.0
C368 C 0.95945 0.8056 0.04425 0.0
C369 C 0.92303 0.81135 0.03922 0.0
C370 C 0.82778 0.89836 0.99117 0.0
C371 C 0.85643 0.92076 0.99759 0.0
C372 C 0.23879 0.9691 0.99504 0.0
C373 C 0.2349 0.95036 0.03894 0.0
C374 C 0.2419 0.00547 0.99173 0.0
C375 C 0.2421 0.02435 0.03225 0.0
H376 H 0.23872 0.95575 0.96287 0.0
H377 H 0.24351 0.01899 0.9572 0.0
S378 S 0.23444 0.98802 0.15575 0.0
N379 N 0.23286 0.95384 0.12405 0.0
N380 N 0.23898 0.02178 0.11755 0.0
C381 C 0.23977 0.00591 0.07637 0.0
C382 C 0.23623 0.96904 0.0798 0.0
C383 C 0.53729 0.71401 0.61611 0.0
C384 C 0.56569 0.71624 0.58409 0.0
C385 C 0.50267 0.72131 0.60159 0.0
C386 C 0.4948 0.73108 0.5544 0.0
H387 H 0.54148 0.70495 0.65253 0.0
H388 H 0.48156 0.71746 0.62723 0.0
S389 S 0.55981 0.74692 0.45811 0.0
N390 N 0.5843 0.73413 0.50434 0.0
N391 N 0.51814 0.74602 0.47629 0.0
C392 C 0.52288 0.73523 0.52221 0.0
C393 C 0.55863 0.72839 0.53731 0.0
C394 C 0.82978 0.07149 0.21466 0.0
C395 C 0.80732 0.08767 0.18032 0.0
C396 C 0.82792 0.03582 0.22598 0.0
C397 C 0.8036 0.01498 0.20336 0.0
H398 H 0.85027 0.08614 0.23129 0.0
H399 H 0.84689 0.02417 0.25099 0.0
S400 S 0.73441 0.04527 0.11786 0.0
N401 N 0.75624 0.08093 0.12926 0.0
N402 N 0.75398 0.01307 0.1492 0.0
C403 C 0.77958 0.03087 0.17103 0.0
C404 C 0.78105 0.06749 0.15997 0.0
C405 C 0.36471 0.28575 0.67031 0.0
C406 C 0.36768 0.26407 0.6327 0.0
C407 C 0.39122 0.28638 0.70481 0.0
C408 C 0.42152 0.26536 0.70287 0.0
H409 H 0.34338 0.30444 0.6712 0.0
H410 H 0.38936 0.30546 0.73091 0.0
S411 S 0.43804 0.1986 0.618 0.0
N412 N 0.40025 0.21694 0.60022 0.0
N413 N 0.45041 0.21848 0.66497 0.0
C414 C 0.4231 0.24115 0.6683 0.0
C415 C 0.39599 0.24036 0.63327 0.0
C416 C 0.68114 0.52784 0.59315 0.0
C417 C 0.71109 0.54923 0.5867 0.0
C418 C 0.68436 0.49162 0.59404 0.0
C419 C 0.71762 0.47583 0.588 0.0
H420 H 0.65485 0.53916 0.59398 0.0
H421 H 0.66032 0.47617 0.59563 0.0
S422 S 0.80456 0.52076 0.57805 0.0
N423 N 0.77521 0.55245 0.57994 0.0
N424 N 0.78149 0.48426 0.5823 0.0
C425 C 0.74802 0.49699 0.58571 0.0
C426 C 0.74468 0.53378 0.58468 0.0
C427 C 0.89343 0.22507 0.91213 0.0
C428 C 0.89038 0.20412 0.95432 0.0
C429 C 0.92005 0.21888 0.8793 0.0
C430 C 0.94415 0.19132 0.88755 0.0
H431 H 0.87395 0.24514 0.90332 0.0
H432 H 0.92028 0.23425 0.84604 0.0
S433 S 0.94877 0.1302 0.99352 0.0
N434 N 0.91428 0.1552 1.00271 0.0
N435 N 0.96554 0.14515 0.94267 0.0
C436 C 0.94288 0.17181 0.931 0.0
C437 C 0.91562 0.17776 0.96398 0.0
C438 C 0.28498 0.40135 0.37372 0.0
C439 C 0.27898 0.39358 0.42189 0.0
C440 C 0.28187 0.43545 0.35406 0.0
C441 C 0.27265 0.46267 0.38218 0.0
H442 H 0.297 0.38208 0.35276 0.0
H443 H 0.29124 0.44099 0.31841 0.0
S444 S 0.24197 0.45294 0.50587 0.0
N445 N 0.2545 0.41344 0.49396 0.0
N446 N 0.2482 0.4778 0.45703 0.0
C447 C 0.26055 0.45395 0.42814 0.0
C448 C 0.26371 0.41916 0.44803 0.0
C449 C 0.07782 0.78404 1.00299 0.0
C450 C 0.0833 0.81118 0.96814 0.0
C451 C 0.04334 0.77539 0.01882 0.0
C452 C 0.01382 0.79377 1.00003 0.0
H453 H 0.10018 0.76925 0.01751 0.0
H454 H 0.03971 0.75423 0.04533 0.0
S455 S 0.01434 0.86738 0.90951 0.0
N456 N 0.05652 0.85652 0.91635 0.0
N457 N 0.99212 0.84038 0.94602 0.0
C458 C 0.01916 0.82104 0.9657 0.0
C459 C 0.05384 0.82964 0.94959 0.0
C460 C 0.77722 0.0584 0.00707 0.0
C461 C 0.79982 0.07673 0.03589 0.0
C462 C 0.78192 0.02283 1.00208 0.0
C463 C 0.80961 0.00412 0.02545 0.0
H464 H 0.75602 0.07178 0.98752 0.0
H465 H 0.76444 0.01027 0.97824 0.0
S466 S 0.8762 0.0403 0.10535 0.0
N467 N 0.85127 0.07383 0.08764 0.0
N468 N 0.85938 0.0068 0.0799 0.0
C469 C 0.83202 0.02212 0.05522 0.0
C470 C 0.82731 0.05842 0.06004 0.0
C471 C 0.45873 0.27784 0.55596 0.0
C472 C 0.44672 0.28338 0.50952 0.0
C473 C 0.49342 0.26619 0.5656 0.0
C474 C 0.51747 0.26081 0.52902 0.0
H475 H 0.44209 0.28477 0.58473 0.0
H476 H 0.50222 0.26339 0.60182 0.0
S477 S 0.49745 0.27074 0.40094 0.0
N478 N 0.45997 0.28076 0.42667 0.0
N479 N 0.52571 0.26079 0.4441 0.0
C480 C 0.50492 0.26483 0.48229 0.0
C481 C 0.46948 0.276 0.47272 0.0
C482 C 0.17214 0.95009 0.90971 0.0
C483 C 0.18494 0.92087 0.88822 0.0
C484 C 0.15683 0.97799 0.88299 0.0
C485 C 0.15381 0.97772 0.83378 0.0
H486 H 0.17267 0.9509 0.94762 0.0
H487 H 0.14674 -0.00026 0.90106 0.0
S488 S 0.18442 0.90788 0.76043 0.0
N489 N 0.19477 0.89377 0.81477 0.0
N490 N 0.16559 0.94622 0.76449 0.0
C491 C 0.16734 0.94909 0.8117 0.0
C492 C 0.18286 0.92059 0.83897 0.0
C493 C 0.56423 0.65241 0.4954 0.0
C494 C 0.59531 0.66057 0.46969 0.0
C495 C 0.53151 0.64866 0.47266 0.0
C496 C 0.52865 0.65277 0.4233 0.0
H497 H 0.56531 0.64791 0.53331 0.0
H498 H 0.50839 0.64194 0.4939 0.0
S499 S 0.60235 0.67435 0.33997 0.0
N500 N 0.62117 0.67328 0.39241 0.0
N501 N 0.56001 0.6654 0.34951 0.0
C502 C 0.55952 0.66143 0.39727 0.0
C503 C 0.59277 0.66535 0.42047 0.0
C504 C 0.32843 0.43429 0.54956 0.0
C505 C 0.32398 0.41433 0.5924 0.0
C506 C 0.32879 0.47073 0.54792 0.0
C507 C 0.32499 0.48853 0.58909 0.0
H508 H 0.33011 0.42182 0.51675 0.0
H509 H 0.33082 0.48502 0.51402 0.0
S510 S 0.32012 0.44859 0.71108 0.0
N511 N 0.32068 0.41529 0.67768 0.0
N512 N 0.32204 0.48355 0.67447 0.0
C513 C 0.32311 0.46892 0.63241 0.0
C514 C 0.32253 0.43191 0.63411 0.0
C515 C 0.09637 0.80287 0.12965 0.0
C516 C 0.10522 0.82583 0.09103 0.0
C517 C 0.06281 0.80386 0.15086 0.0
C518 C 0.03698 0.82824 0.13467 0.0
H519 H 0.11598 0.78474 0.14456 0.0
H520 H 0.0578 0.78656 0.18166 0.0
S521 S 0.04698 0.89346 0.03339 0.0
N522 N 0.08565 0.87332 0.037 0.0
N523 N 0.02216 0.87453 0.07538 0.0
C524 C 0.04519 0.85048 0.09477 0.0
C525 C 0.0794 0.84948 0.07337 0.0
C526 C 0.67126 0.54596 0.70163 0.0
C527 C 0.64397 0.56945 0.68848 0.0
C528 C 0.66338 0.51133 0.71654 0.0
C529 C 0.62807 0.49926 0.71787 0.0
H530 H 0.69866 0.55452 0.70101 0.0
H531 H 0.68493 0.49395 0.72723 0.0
S532 S 0.54752 0.55088 0.68571 0.0
N533 N 0.58071 0.57849 0.67686 0.0
N534 N 0.56585 0.51362 0.70454 0.0
C535 C 0.60077 0.52254 0.7039 0.0
C536 C 0.60875 0.55765 0.68937 0.0
C537 C 0.9487 0.22944 0.04991 0.0
C538 C 0.93892 0.20079 0.08033 0.0
C539 C 0.98425 0.23427 0.03579 0.0
C540 C 0.01046 0.20999 0.05066 0.0
H541 H 0.92909 0.24873 0.03841 0.0
H542 H 0.99138 0.25723 0.01386 0.0
S543 S -0.00241 0.12922 0.12667 0.0
N544 N 0.95779 0.14708 0.12257 0.0
N545 N 0.02405 0.15568 0.09507 0.0
C546 C 0.00058 0.18063 0.07933 0.0
C547 C 0.96489 0.17615 0.09446 0.0
C548 C 0.3172 0.77409 0.08644 0.0
C549 C 0.28904 0.76951 0.05506 0.0
C550 C 0.33758 0.74598 0.10415 0.0
C551 C 0.33044 0.71211 0.09134 0.0
H552 H 0.32172 0.79917 0.10038 0.0
H553 H 0.35666 0.75052 0.13157 0.0
S554 S 0.26524 0.68782 1.00145 0.0
N555 N 0.25903 0.72992 0.00534 0.0
N556 N 0.29778 0.67667 0.03846 0.0
C557 C 0.30521 0.70788 0.05559 0.0
C558 C 0.28443 0.73674 0.03734 0.0
C559 C 0.77039 0.72698 0.6927 0.0
C560 C 0.73605 0.73773 0.67931 0.0
C561 C 0.78962 0.74469 0.72601 0.0
C562 C 0.77493 0.77346 0.74719 0.0
H563 H 0.78102 0.70299 0.68088 0.0
H564 H 0.81513 0.73435 0.73762 0.0
S565 S 0.68739 0.81391 0.71854 0.0
N566 N 0.68981 0.78089 0.68481 0.0
N567 N 0.72514 0.81367 0.74808 0.0
C568 C 0.74191 0.7862 0.73047 0.0
C569 C 0.72268 0.7684 0.69633 0.0
C570 C 0.74223 0.25705 0.19013 0.0
C571 C 0.77796 0.26556 0.18128 0.0
C572 C 0.72418 0.27066 0.22784 0.0
C573 C 0.74129 0.29324 0.2576 0.0
H574 H 0.7294 0.23705 0.17124 0.0
H575 H 0.6976 0.26137 0.23592 0.0
S576 S 0.8324 0.3289 0.24197 0.0
N577 N 0.8277 0.30239 0.19931 0.0
N578 N 0.79434 0.32743 0.27061 0.0
C579 C 0.77557 0.3051 0.24521 0.0
C580 C 0.79374 0.29139 0.20681 0.0
C581 C 0.20845 0.28449 0.58074 0.0
C582 C 0.22731 0.27761 0.53992 0.0
C583 C 0.17833 0.26528 0.59434 0.0
C584 C 0.16615 0.23823 0.56785 0.0
H585 H 0.21803 0.3037 0.60374 0.0
H586 H 0.16605 0.27007 0.62764 0.0
S587 S 0.20294 0.21339 0.4543 0.0
N588 N 0.22932 0.24481 0.47002 0.0
N589 N 0.17264 0.20818 0.49608 0.0
C590 C 0.18315 0.23278 0.52509 0.0
C591 C 0.21371 0.25272 0.51088 0.0
C592 C 0.76748 0.75675 0.52986 0.0
C593 C 0.77425 0.72102 0.53614 0.0
C594 C 0.79002 0.7784 0.50172 0.0
C595 C 0.81965 0.76479 0.47882 0.0
H596 H 0.74258 0.76719 0.54163 0.0
H597 H 0.78208 0.80515 0.49377 0.0
S598 S 0.85304 0.67439 0.49521 0.0
N599 N 0.81615 0.67438 0.52639 0.0
N600 N 0.85805 0.71464 0.47264 0.0
C601 C 0.82936 0.73019 0.491 0.0
C602 C 0.80665 0.70837 0.51998 0.0
C603 C 0.71916 0.28273 0.03434 0.0
C604 C 0.71749 0.24964 0.05773 0.0
C605 C 0.68809 0.30055 0.02057 0.0
C606 C 0.65437 0.28566 0.02959 0.0
H607 H 0.74444 0.29314 0.02194 0.0
H608 H 0.69078 0.32424 0.99819 0.0
S609 S 0.63655 0.20337 0.10045 0.0
N610 N 0.68029 0.20533 0.09681 0.0
N611 N 0.62154 0.23923 0.07214 0.0
C612 C 0.65261 0.25472 0.05861 0.0
C613 C 0.68434 0.23655 0.07236 0.0
C614 C 0.31151 0.24632 0.35046 0.0
C615 C 0.29583 0.2721 0.37607 0.0
C616 C 0.29545 0.23522 0.3097 0.0
C617 C 0.2635 0.25011 0.29214 0.0
H618 H 0.33673 0.23501 0.36165 0.0
H619 H 0.30856 0.21511 0.29142 0.0
S620 S 0.21236 0.31949 0.34622 0.0
N621 N 0.24642 0.31192 0.38197 0.0
N622 N 0.21708 0.29264 0.30396 0.0
C623 C 0.24728 0.27566 0.31806 0.0
C624 C 0.26326 0.28629 0.3603 0.0
C625 C 0.27197 0.76926 0.88641 0.0
C626 C 0.2354 0.77547 0.89063 0.0
C627 C 0.28524 0.75146 0.84873 0.0
C628 C 0.26231 0.73874 0.81471 0.0
H629 H 0.29053 0.77988 0.91074 0.0
H630 H 0.31371 0.74844 0.84543 0.0
S631 S 0.16406 0.74482 0.81365 0.0
N632 N 0.17631 0.76487 0.86043 0.0
N633 N 0.20115 0.73151 0.78987 0.0
C634 C 0.22558 0.74297 0.8204 0.0
C635 C 0.21216 0.76133 0.85833 0.0
loop_
_geom_bond_atom_site_label_1
_geom_bond_atom_site_label_2
_geom_bond_distance
_geom_bond_site_symmetry_2
_ccdc_geom_bond_type
Zn0 O6 1.920 . S
Zn0 O12 1.898 . S
Zn0 O15 1.905 . S
Zn1 O9 1.905 . S
Zn1 O10 1.898 . S
Zn1 O18 1.920 . S
Zn2 O5 2.080 . S
Zn2 O8 2.114 1_554 S
Zn2 O11 2.120 1_554 S
Zn2 O13 2.120 . S
Zn2 O14 2.114 . S
Zn2 O17 2.080 1_554 S
C3 O8 1.166 . S
C3 O9 1.182 . S
C4 O10 1.167 . S
C4 O11 1.299 . S
O5 Zn2 2.080 . S
O5 C19 1.305 . S
O6 Zn0 1.920 . S
O6 C19 1.234 . S
C7 O12 1.167 . S
C7 O13 1.299 . S
O8 Zn2 2.114 1_556 S
O8 C3 1.166 . S
O9 Zn1 1.905 . S
O9 C3 1.182 . S
O10 Zn1 1.898 . S
O10 C4 1.167 . S
O11 Zn2 2.120 1_556 S
O11 C4 1.299 . S
O12 Zn0 1.898 . S
O12 C7 1.167 . S
O13 Zn2 2.120 . S
O13 C7 1.299 . S
O14 Zn2 2.114 . S
O14 C16 1.166 . S
O15 Zn0 1.905 . S
O15 C16 1.182 . S
C16 O14 1.166 . S
C16 O15 1.182 . S
O17 Zn2 2.080 1_556 S
O17 C20 1.305 . S
O18 Zn1 1.920 . S
O18 C20 1.234 . S
C19 O5 1.305 . S
C19 O6 1.234 . S
C20 O17 1.305 . S
C20 O18 1.234 . S
Zn21 O27 1.920 . S
Zn21 O33 1.898 . S
Zn21 O36 1.905 . S
Zn22 O30 1.905 . S
Zn22 O31 1.898 . S
Zn22 O39 1.920 . S
Zn23 O26 2.080 . S
Zn23 O29 2.114 . S
Zn23 O32 2.120 . S
Zn23 O34 2.120 . S
Zn23 O35 2.114 . S
Zn23 O38 2.080 . S
C24 O29 1.166 . S
C24 O30 1.182 . S
C25 O31 1.167 . S
C25 O32 1.299 . S
O26 Zn23 2.080 . S
O26 C40 1.305 . S
O27 Zn21 1.920 . S
O27 C40 1.234 . S
C28 O33 1.167 . S
C28 O34 1.299 . S
O29 Zn23 2.114 . S
O29 C24 1.166 . S
O30 Zn22 1.905 . S
O30 C24 1.182 . S
O31 Zn22 1.898 . S
O31 C25 1.167 . S
O32 Zn23 2.120 . S
O32 C25 1.299 . S
O33 Zn21 1.898 . S
O33 C28 1.167 . S
O34 Zn23 2.120 . S
O34 C28 1.299 . S
O35 Zn23 2.114 . S
O35 C37 1.166 . S
O36 Zn21 1.905 . S
O36 C37 1.182 . S
C37 O35 1.166 . S
C37 O36 1.182 . S
O38 Zn23 2.080 . S
O38 C41 1.305 . S
O39 Zn22 1.920 . S
O39 C41 1.234 . S
C40 O26 1.305 . S
C40 O27 1.234 . S
C41 O38 1.305 . S
C41 O39 1.234 . S
Zn42 O48 1.920 . S
Zn42 O54 1.898 . S
Zn42 O57 1.905 . S
Zn43 O51 1.905 . S
Zn43 O52 1.898 . S
Zn43 O60 1.920 . S
Zn44 O47 2.080 . S
Zn44 O50 2.114 . S
Zn44 O53 2.120 . S
Zn44 O55 2.120 . S
Zn44 O56 2.114 . S
Zn44 O59 2.080 . S
C45 O50 1.166 . S
C45 O51 1.182 . S
C46 O52 1.167 . S
C46 O53 1.299 . S
O47 Zn44 2.080 . S
O47 C61 1.305 . S
O48 Zn42 1.920 . S
O48 C61 1.234 1_556 S
C49 O54 1.167 . S
C49 O55 1.299 1_556 S
O50 Zn44 2.114 . S
O50 C45 1.166 . S
O51 Zn43 1.905 . S
O51 C45 1.182 . S
O52 Zn43 1.898 . S
O52 C46 1.167 . S
O53 Zn44 2.120 . S
O53 C46 1.299 . S
O54 Zn42 1.898 . S
O54 C49 1.167 . S
O55 Zn44 2.120 . S
O55 C49 1.299 1_554 S
O56 Zn44 2.114 . S
O56 C58 1.172 . S
O57 Zn42 1.905 . S
O57 C58 1.174 1_556 S
C58 O56 1.172 . S
C58 O57 1.174 1_554 S
O59 Zn44 2.080 . S
O59 C62 1.305 . S
O60 Zn43 1.920 . S
O60 C62 1.234 . S
C61 O47 1.305 . S
C61 O48 1.234 1_554 S
C62 O59 1.305 . S
C62 O60 1.234 . S
Zn63 O69 1.920 . S
Zn63 O75 1.898 . S
Zn63 O78 1.905 . S
Zn64 O72 1.905 . S
Zn64 O73 1.898 . S
Zn64 O81 1.920 . S
Zn65 O68 2.080 . S
Zn65 O71 2.114 . S
Zn65 O74 2.120 . S
Zn65 O76 2.120 . S
Zn65 O77 2.114 . S
Zn65 O80 2.080 . S
C66 O71 1.166 . S
C66 O72 1.182 . S
C67 O73 1.167 . S
C67 O74 1.299 . S
O68 Zn65 2.080 . S
O68 C82 1.305 . S
O69 Zn63 1.920 . S
O69 C82 1.234 . S
C70 O75 1.167 . S
C70 O76 1.299 . S
O71 Zn65 2.114 . S
O71 C66 1.166 . S
O72 Zn64 1.905 . S
O72 C66 1.182 . S
O73 Zn64 1.898 . S
O73 C67 1.167 . S
O74 Zn65 2.120 . S
O74 C67 1.299 . S
O75 Zn63 1.898 . S
O75 C70 1.167 . S
O76 Zn65 2.120 . S
O76 C70 1.299 . S
O77 Zn65 2.114 . S
O77 C79 1.166 . S
O78 Zn63 1.905 . S
O78 C79 1.182 . S
C79 O77 1.166 . S
C79 O78 1.182 . S
O80 Zn65 2.080 . S
O80 C83 1.305 . S
O81 Zn64 1.920 . S
O81 C83 1.234 . S
C82 O68 1.305 . S
C82 O69 1.234 . S
C83 O80 1.305 . S
C83 O81 1.234 . S
C84 C85 1.384 . S
C84 H97 0.947 . S
C84 C119 1.382 . S
C85 C84 1.384 . S
C85 C86 1.378 . S
C86 C85 1.378 . S
C86 C87 1.378 . S
C86 H98 0.952 . S
C87 C86 1.378 . S
C87 H99 0.950 . S
C87 C118 1.383 . S
H88 C107 0.947 . S
H89 C108 0.946 . S
H90 C110 0.953 . S
H91 C111 0.945 . S
H92 C113 0.952 . S
H93 C114 0.949 . S
H94 C116 0.950 . S
H95 C117 0.948 . S
H96 C119 0.951 . S
H97 C84 0.947 . S
H98 C86 0.952 . S
H99 C87 0.950 . S
N100 C103 1.382 . S
N100 C105 1.363 . S
N101 C103 1.371 . S
N101 C104 1.372 . S
N102 C104 1.361 . S
N102 C105 1.377 . S
C103 N100 1.382 . S
C103 N101 1.371 . S
C103 C106 1.480 . S
C104 N101 1.372 . S
C104 N102 1.361 . S
C104 C112 1.457 . S
C105 N100 1.363 . S
C105 N102 1.377 . S
C105 C118 1.479 . S
C106 C103 1.480 . S
C106 C107 1.383 . S
C106 C111 1.385 . S
C107 H88 0.947 . S
C107 C106 1.383 . S
C107 C108 1.388 . S
C108 H89 0.946 . S
C108 C107 1.388 . S
C108 C109 1.384 . S
C109 C108 1.384 . S
C109 C110 1.377 . S
C110 H90 0.953 . S
C110 C109 1.377 . S
C110 C111 1.369 . S
C111 H91 0.945 . S
C111 C106 1.385 . S
C111 C110 1.369 . S
C112 C104 1.457 . S
C112 C113 1.372 . S
C112 C117 1.364 . S
C113 H92 0.952 . S
C113 C112 1.372 . S
C113 C114 1.389 . S
C114 H93 0.949 . S
C114 C113 1.389 . S
C114 C115 1.387 . S
C115 C114 1.387 . S
C115 C116 1.372 . S
C116 H94 0.950 . S
C116 C115 1.372 . S
C116 C117 1.379 . S
C117 H95 0.948 . S
C117 C112 1.364 . S
C117 C116 1.379 . S
C118 C87 1.383 . S
C118 C105 1.479 . S
C118 C119 1.398 . S
C119 C84 1.382 . S
C119 H96 0.951 . S
C119 C118 1.398 . S
C120 C121 1.384 . S
C120 H133 0.947 . S
C120 C155 1.382 . S
C121 C120 1.384 . S
C121 C122 1.378 . S
C122 C121 1.378 . S
C122 C123 1.378 . S
C122 H134 0.952 . S
C123 C122 1.378 . S
C123 H135 0.950 . S
C123 C154 1.383 . S
H124 C143 0.947 . S
H125 C144 0.946 . S
H126 C146 0.953 . S
H127 C147 0.945 . S
H128 C149 0.952 . S
H129 C150 0.949 . S
H130 C152 0.950 . S
H131 C153 0.948 . S
H132 C155 0.951 . S
H133 C120 0.947 . S
H134 C122 0.952 . S
H135 C123 0.950 . S
N136 C139 1.382 . S
N136 C141 1.363 . S
N137 C139 1.371 . S
N137 C140 1.372 . S
N138 C140 1.361 . S
N138 C141 1.377 . S
C139 N136 1.382 . S
C139 N137 1.371 . S
C139 C142 1.480 . S
C140 N137 1.372 . S
C140 N138 1.361 . S
C140 C148 1.457 . S
C141 N136 1.363 . S
C141 N138 1.377 . S
C141 C154 1.479 . S
C142 C139 1.480 . S
C142 C143 1.383 . S
C142 C147 1.385 . S
C143 H124 0.947 . S
C143 C142 1.383 . S
C143 C144 1.388 . S
C144 H125 0.946 . S
C144 C143 1.388 . S
C144 C145 1.384 . S
C145 C144 1.384 . S
C145 C146 1.377 . S
C146 H126 0.953 . S
C146 C145 1.377 . S
C146 C147 1.369 . S
C147 H127 0.945 . S
C147 C142 1.385 . S
C147 C146 1.369 . S
C148 C140 1.457 . S
C148 C149 1.372 . S
C148 C153 1.364 . S
C149 H128 0.952 . S
C149 C148 1.372 . S
C149 C150 1.389 . S
C150 H129 0.949 . S
C150 C149 1.389 . S
C150 C151 1.387 . S
C151 C150 1.387 . S
C151 C152 1.372 . S
C152 H130 0.950 . S
C152 C151 1.372 . S
C152 C153 1.379 . S
C153 H131 0.948 . S
C153 C148 1.364 . S
C153 C152 1.379 . S
C154 C123 1.383 . S
C154 C141 1.479 . S
C154 C155 1.398 . S
C155 C120 1.382 . S
C155 H132 0.951 . S
C155 C154 1.398 . S
C156 C157 1.384 . S
C156 H169 0.947 . S
C156 C191 1.382 . S
C157 C156 1.384 . S
C157 C158 1.378 . S
C158 C157 1.378 . S
C158 C159 1.378 . S
C158 H170 0.952 . S
C159 C158 1.378 . S
C159 H171 0.950 . S
C159 C190 1.383 . S
H160 C179 0.947 . S
H161 C180 0.946 . S
H162 C182 0.953 1_455 S
H163 C183 0.945 . S
H164 C185 0.952 . S
H165 C186 0.949 . S
H166 C188 0.950 . S
H167 C189 0.948 . S
H168 C191 0.951 . S
H169 C156 0.947 . S
H170 C158 0.952 . S
H171 C159 0.950 . S
N172 C175 1.382 . S
N172 C177 1.363 . S
N173 C175 1.371 . S
N173 C176 1.372 . S
N174 C176 1.361 . S
N174 C177 1.377 . S
C175 N172 1.382 . S
C175 N173 1.371 . S
C175 C178 1.480 . S
C176 N173 1.372 . S
C176 N174 1.361 . S
C176 C184 1.457 . S
C177 N172 1.363 . S
C177 N174 1.377 . S
C177 C190 1.479 . S
C178 C175 1.480 . S
C178 C179 1.383 . S
C178 C183 1.385 . S
C179 H160 0.947 . S
C179 C178 1.383 . S
C179 C180 1.388 . S
C180 H161 0.946 . S
C180 C179 1.388 . S
C180 C181 1.384 1_655 S
C181 C180 1.384 1_455 S
C181 C182 1.377 1_455 S
C182 H162 0.953 1_655 S
C182 C181 1.377 1_655 S
C182 C183 1.369 . S
C183 H163 0.945 . S
C183 C178 1.385 . S
C183 C182 1.369 . S
C184 C176 1.457 . S
C184 C185 1.372 . S
C184 C189 1.364 . S
C185 H164 0.952 . S
C185 C184 1.372 . S
C185 C186 1.389 1_565 S
C186 H165 0.949 . S
C186 C185 1.389 1_545 S
C186 C187 1.387 . S
C187 C186 1.387 . S
C187 C188 1.372 . S
C188 H166 0.950 . S
C188 C187 1.372 . S
C188 C189 1.379 1_545 S
C189 H167 0.948 . S
C189 C184 1.364 . S
C189 C188 1.379 1_565 S
C190 C159 1.383 . S
C190 C177 1.479 . S
C190 C191 1.398 . S
C191 C156 1.382 . S
C191 H168 0.951 . S
C191 C190 1.398 . S
C192 C193 1.384 . S
C192 H205 0.947 . S
C192 C227 1.382 . S
C193 C192 1.384 . S
C193 C194 1.378 . S
C194 C193 1.378 . S
C194 C195 1.378 . S
C194 H206 0.952 . S
C195 C194 1.378 . S
C195 H207 0.950 . S
C195 C226 1.383 . S
H196 C215 0.947 . S
H197 C216 0.946 . S
H198 C218 0.953 . S
H199 C219 0.945 . S
H200 C221 0.952 . S
H201 C222 0.949 . S
H202 C224 0.950 . S
H203 C225 0.948 . S
H204 C227 0.951 . S
H205 C192 0.947 . S
H206 C194 0.952 . S
H207 C195 0.950 . S
N208 C211 1.382 . S
N208 C213 1.363 . S
N209 C211 1.371 . S
N209 C212 1.372 . S
N210 C212 1.361 . S
N210 C213 1.377 . S
C211 N208 1.382 . S
C211 N209 1.371 . S
C211 C214 1.480 . S
C212 N209 1.372 . S
C212 N210 1.361 . S
C212 C220 1.457 . S
C213 N208 1.363 . S
C213 N210 1.377 . S
C213 C226 1.479 . S
C214 C211 1.480 . S
C214 C215 1.383 . S
C214 C219 1.385 . S
C215 H196 0.947 . S
C215 C214 1.383 . S
C215 C216 1.388 . S
C216 H197 0.946 . S
C216 C215 1.388 . S
C216 C217 1.384 . S
C217 C216 1.384 . S
C217 C218 1.377 . S
C218 H198 0.953 . S
C218 C217 1.377 . S
C218 C219 1.369 . S
C219 H199 0.945 . S
C219 C214 1.385 . S
C219 C218 1.369 . S
C220 C212 1.457 . S
C220 C221 1.372 . S
C220 C225 1.364 . S
C221 H200 0.952 . S
C221 C220 1.372 . S
C221 C222 1.389 . S
C222 H201 0.949 . S
C222 C221 1.389 . S
C222 C223 1.387 . S
C223 C222 1.387 . S
C223 C224 1.372 . S
C224 H202 0.950 . S
C224 C223 1.372 . S
C224 C225 1.379 . S
C225 H203 0.948 . S
C225 C220 1.364 . S
C225 C224 1.379 . S
C226 C195 1.383 . S
C226 C213 1.479 . S
C226 C227 1.398 . S
C227 C192 1.382 . S
C227 H204 0.951 . S
C227 C226 1.398 . S
C228 C229 1.384 . S
C228 H241 0.947 . S
C228 C263 1.382 . S
C229 C228 1.384 . S
C229 C230 1.378 . S
C230 C229 1.378 . S
C230 C231 1.378 . S
C230 H242 0.952 . S
C231 C230 1.378 . S
C231 H243 0.950 . S
C231 C262 1.383 . S
H232 C251 0.947 . S
H233 C252 0.946 . S
H234 C254 0.953 . S
H235 C255 0.945 . S
H236 C257 0.952 . S
H237 C258 0.949 . S
H238 C260 0.950 . S
H239 C261 0.948 . S
H240 C263 0.951 . S
H241 C228 0.947 . S
H242 C230 0.952 . S
H243 C231 0.950 . S
N244 C247 1.382 . S
N244 C249 1.363 . S
N245 C247 1.371 . S
N245 C248 1.372 . S
N246 C248 1.361 . S
N246 C249 1.377 . S
C247 N244 1.382 . S
C247 N245 1.371 . S
C247 C250 1.480 . S
C248 N245 1.372 . S
C248 N246 1.361 . S
C248 C256 1.457 . S
C249 N244 1.363 . S
C249 N246 1.377 . S
C249 C262 1.479 . S
C250 C247 1.480 . S
C250 C251 1.383 . S
C250 C255 1.385 . S
C251 H232 0.947 . S
C251 C250 1.383 . S
C251 C252 1.388 . S
C252 H233 0.946 . S
C252 C251 1.388 . S
C252 C253 1.384 . S
C253 C252 1.384 . S
C253 C254 1.377 . S
C254 H234 0.953 . S
C254 C253 1.377 . S
C254 C255 1.369 . S
C255 H235 0.945 . S
C255 C250 1.385 . S
C255 C254 1.369 . S
C256 C248 1.457 . S
C256 C257 1.372 . S
C256 C261 1.364 . S
C257 H236 0.952 . S
C257 C256 1.372 . S
C257 C258 1.389 . S
C258 H237 0.949 . S
C258 C257 1.389 . S
C258 C259 1.387 . S
C259 C258 1.387 . S
C259 C260 1.372 . S
C260 H238 0.950 . S
C260 C259 1.372 . S
C260 C261 1.379 . S
C261 H239 0.948 . S
C261 C256 1.364 . S
C261 C260 1.379 . S
C262 C231 1.383 . S
C262 C249 1.479 . S
C262 C263 1.398 . S
C263 C228 1.382 . S
C263 H240 0.951 . S
C263 C262 1.398 . S
C264 C265 1.384 . S
C264 H277 0.947 . S
C264 C299 1.382 . S
C265 C264 1.384 . S
C265 C266 1.378 . S
C266 C265 1.378 . S
C266 C267 1.378 . S
C266 H278 0.952 . S
C267 C266 1.378 . S
C267 H279 0.950 . S
C267 C298 1.383 . S
H268 C287 0.947 1_455 S
H269 C288 0.946 . S
H270 C290 0.953 . S
H271 C291 0.945 . S
H272 C293 0.952 . S
H273 C294 0.949 . S
H274 C296 0.950 . S
H275 C297 0.948 . S
H276 C299 0.951 . S
H277 C264 0.947 . S
H278 C266 0.952 . S
H279 C267 0.950 . S
N280 C283 1.382 . S
N280 C285 1.363 . S
N281 C283 1.371 . S
N281 C284 1.372 . S
N282 C284 1.361 . S
N282 C285 1.377 . S
C283 N280 1.382 . S
C283 N281 1.371 . S
C283 C286 1.480 . S
C284 N281 1.372 . S
C284 N282 1.361 . S
C284 C292 1.457 . S
C285 N280 1.363 . S
C285 N282 1.377 . S
C285 C298 1.479 . S
C286 C283 1.480 . S
C286 C287 1.383 1_455 S
C286 C291 1.385 1_455 S
C287 H268 0.947 1_655 S
C287 C286 1.383 1_655 S
C287 C288 1.388 . S
C288 H269 0.946 . S
C288 C287 1.388 . S
C288 C289 1.384 . S
C289 C288 1.384 . S
C289 C290 1.377 . S
C290 H270 0.953 . S
C290 C289 1.377 . S
C290 C291 1.369 . S
C291 H271 0.945 . S
C291 C286 1.385 1_655 S
C291 C290 1.369 . S
C292 C284 1.457 . S
C292 C293 1.372 . S
C292 C297 1.364 . S
C293 H272 0.952 . S
C293 C292 1.372 . S
C293 C294 1.389 . S
C294 H273 0.949 . S
C294 C293 1.389 . S
C294 C295 1.387 . S
C295 C294 1.387 . S
C295 C296 1.372 . S
C296 H274 0.950 . S
C296 C295 1.372 . S
C296 C297 1.379 . S
C297 H275 0.948 . S
C297 C292 1.364 . S
C297 C296 1.379 . S
C298 C267 1.383 . S
C298 C285 1.479 . S
C298 C299 1.398 . S
C299 C264 1.382 . S
C299 H276 0.951 . S
C299 C298 1.398 . S
C300 C301 1.384 . S
C300 H313 0.947 . S
C300 C335 1.382 . S
C301 C300 1.384 . S
C301 C302 1.378 . S
C302 C301 1.378 . S
C302 C303 1.378 . S
C302 H314 0.952 . S
C303 C302 1.378 . S
C303 H315 0.950 . S
C303 C334 1.383 . S
H304 C323 0.947 . S
H305 C324 0.946 . S
H306 C326 0.953 . S
H307 C327 0.945 . S
H308 C329 0.952 . S
H309 C330 0.949 . S
H310 C332 0.950 . S
H311 C333 0.948 . S
H312 C335 0.951 . S
H313 C300 0.947 . S
H314 C302 0.952 . S
H315 C303 0.950 . S
N316 C319 1.382 . S
N316 C321 1.363 . S
N317 C319 1.371 . S
N317 C320 1.372 . S
N318 C320 1.361 . S
N318 C321 1.377 . S
C319 N316 1.382 . S
C319 N317 1.371 . S
C319 C322 1.480 . S
C320 N317 1.372 . S
C320 N318 1.361 . S
C320 C328 1.457 . S
C321 N316 1.363 . S
C321 N318 1.377 . S
C321 C334 1.479 . S
C322 C319 1.480 . S
C322 C323 1.383 . S
C322 C327 1.385 . S
C323 H304 0.947 . S
C323 C322 1.383 . S
C323 C324 1.388 . S
C324 H305 0.946 . S
C324 C323 1.388 . S
C324 C325 1.384 . S
C325 C324 1.384 . S
C325 C326 1.377 . S
C326 H306 0.953 . S
C326 C325 1.377 . S
C326 C327 1.369 . S
C327 H307 0.945 . S
C327 C322 1.385 . S
C327 C326 1.369 . S
C328 C320 1.457 . S
C328 C329 1.372 . S
C328 C333 1.364 . S
C329 H308 0.952 . S
C329 C328 1.372 . S
C329 C330 1.389 . S
C330 H309 0.949 . S
C330 C329 1.389 . S
C330 C331 1.387 . S
C331 C330 1.387 . S
C331 C332 1.372 . S
C332 H310 0.950 . S
C332 C331 1.372 . S
C332 C333 1.379 . S
C333 H311 0.948 . S
C333 C328 1.364 . S
C333 C332 1.379 . S
C334 C303 1.383 . S
C334 C321 1.479 . S
C334 C335 1.398 . S
C335 C300 1.382 . S
C335 H312 0.951 . S
C335 C334 1.398 . S
C336 C337 1.384 1_554 S
C336 H349 0.948 . S
C336 C371 1.381 1_554 S
C337 C336 1.384 1_556 S
C337 C338 1.378 . S
C338 C337 1.378 . S
C338 C339 1.378 . S
C338 H350 0.952 . S
C339 C338 1.378 . S
C339 H351 0.950 . S
C339 C370 1.383 . S
H340 C359 0.947 . S
H341 C360 0.946 . S
H342 C362 0.953 . S
H343 C363 0.945 . S
H344 C365 0.952 . S
H345 C366 0.949 . S
H346 C368 0.950 1_554 S
H347 C369 0.948 1_554 S
H348 C371 0.951 . S
H349 C336 0.948 . S
H350 C338 0.952 . S
H351 C339 0.950 . S
N352 C355 1.382 . S
N352 C357 1.363 . S
N353 C355 1.371 . S
N353 C356 1.372 . S
N354 C356 1.361 . S
N354 C357 1.377 . S
C355 N352 1.382 . S
C355 N353 1.371 . S
C355 C358 1.480 . S
C356 N353 1.372 . S
C356 N354 1.361 . S
C356 C364 1.457 . S
C357 N352 1.363 . S
C357 N354 1.377 . S
C357 C370 1.479 . S
C358 C355 1.480 . S
C358 C359 1.383 . S
C358 C363 1.385 . S
C359 H340 0.947 . S
C359 C358 1.383 . S
C359 C360 1.388 . S
C360 H341 0.946 . S
C360 C359 1.388 . S
C360 C361 1.384 . S
C361 C360 1.384 . S
C361 C362 1.377 . S
C362 H342 0.953 . S
C362 C361 1.377 . S
C362 C363 1.369 . S
C363 H343 0.945 . S
C363 C358 1.385 . S
C363 C362 1.369 . S
C364 C356 1.457 . S
C364 C365 1.372 . S
C364 C369 1.364 . S
C365 H344 0.952 . S
C365 C364 1.372 . S
C365 C366 1.389 . S
C366 H345 0.949 . S
C366 C365 1.389 . S
C366 C367 1.387 . S
C367 C366 1.387 . S
C367 C368 1.372 . S
C368 H346 0.950 1_556 S
C368 C367 1.372 . S
C368 C369 1.379 . S
C369 H347 0.948 1_556 S
C369 C364 1.364 . S
C369 C368 1.379 . S
C370 C339 1.383 . S
C370 C357 1.479 . S
C370 C371 1.398 . S
C371 C336 1.381 1_556 S
C371 H348 0.951 . S
C371 C370 1.398 . S
C372 C373 1.369 . S
C372 C374 1.419 . S
C372 H376 0.930 1_554 S
C373 C372 1.369 . S
C373 C382 1.429 . S
C374 C372 1.419 . S
C374 C375 1.363 . S
C374 H377 0.929 . S
C375 C374 1.363 . S
C375 C381 1.428 . S
H376 C372 0.930 1_556 S
H377 C374 0.929 . S
S378 N379 1.613 . S
S378 N380 1.610 . S
N379 S378 1.613 . S
N379 C382 1.350 . S
N380 S378 1.610 . S
N380 C381 1.351 . S
C381 C375 1.428 . S
C381 N380 1.351 . S
C381 C382 1.434 . S
C382 C373 1.429 . S
C382 N379 1.350 . S
C382 C381 1.434 . S
C383 C384 1.369 . S
C383 C385 1.419 . S
C383 H387 0.930 . S
C384 C383 1.369 . S
C384 C393 1.429 . S
C385 C383 1.419 . S
C385 C386 1.363 . S
C385 H388 0.929 . S
C386 C385 1.363 . S
C386 C392 1.428 . S
H387 C383 0.930 . S
H388 C385 0.929 . S
S389 N390 1.613 . S
S389 N391 1.610 . S
N390 S389 1.613 . S
N390 C393 1.350 . S
N391 S389 1.610 . S
N391 C392 1.351 . S
C392 C386 1.428 . S
C392 N391 1.351 . S
C392 C393 1.434 . S
C393 C384 1.429 . S
C393 N390 1.350 . S
C393 C392 1.434 . S
C394 C395 1.369 . S
C394 C396 1.419 . S
C394 H398 0.930 . S
C395 C394 1.369 . S
C395 C404 1.429 . S
C396 C394 1.419 . S
C396 C397 1.363 . S
C396 H399 0.929 . S
C397 C396 1.363 . S
C397 C403 1.428 . S
H398 C394 0.930 . S
H399 C396 0.929 . S
S400 N401 1.613 . S
S400 N402 1.610 . S
N401 S400 1.613 . S
N401 C404 1.350 . S
N402 S400 1.610 . S
N402 C403 1.351 . S
C403 C397 1.428 . S
C403 N402 1.351 . S
C403 C404 1.434 . S
C404 C395 1.429 . S
C404 N401 1.350 . S
C404 C403 1.434 . S
C405 C406 1.369 . S
C405 C407 1.419 . S
C405 H409 0.930 . S
C406 C405 1.369 . S
C406 C415 1.429 . S
C407 C405 1.419 . S
C407 C408 1.363 . S
C407 H410 0.929 . S
C408 C407 1.363 . S
C408 C414 1.428 . S
H409 C405 0.930 . S
H410 C407 0.929 . S
S411 N412 1.613 . S
S411 N413 1.610 . S
N412 S411 1.613 . S
N412 C415 1.350 . S
N413 S411 1.610 . S
N413 C414 1.351 . S
C414 C408 1.428 . S
C414 N413 1.351 . S
C414 C415 1.434 . S
C415 C406 1.429 . S
C415 N412 1.350 . S
C415 C414 1.434 . S
C416 C417 1.369 . S
C416 C418 1.419 . S
C416 H420 0.930 . S
C417 C416 1.369 . S
C417 C426 1.429 . S
C418 C416 1.419 . S
C418 C419 1.363 . S
C418 H421 0.929 . S
C419 C418 1.363 . S
C419 C425 1.428 . S
H420 C416 0.930 . S
H421 C418 0.929 . S
S422 N423 1.613 . S
S422 N424 1.610 . S
N423 S422 1.613 . S
N423 C426 1.350 . S
N424 S422 1.610 . S
N424 C425 1.351 . S
C425 C419 1.428 . S
C425 N424 1.351 . S
C425 C426 1.434 . S
C426 C417 1.429 . S
C426 N423 1.350 . S
C426 C425 1.434 . S
C427 C428 1.369 . S
C427 C429 1.419 . S
C427 H431 0.930 . S
C428 C427 1.369 . S
C428 C437 1.429 . S
C429 C427 1.419 . S
C429 C430 1.363 . S
C429 H432 0.929 . S
C430 C429 1.363 . S
C430 C436 1.428 . S
H431 C427 0.930 . S
H432 C429 0.929 . S
S433 N434 1.620 . S
S433 N435 1.614 . S
N434 S433 1.620 . S
N434 C437 1.350 . S
N435 S433 1.614 . S
N435 C436 1.351 . S
C436 C430 1.428 . S
C436 N435 1.351 . S
C436 C437 1.434 . S
C437 C428 1.429 . S
C437 N434 1.350 . S
C437 C436 1.434 . S
C438 C439 1.369 . S
C438 C440 1.419 . S
C438 H442 0.930 . S
C439 C438 1.369 . S
C439 C448 1.429 . S
C440 C438 1.419 . S
C440 C441 1.363 . S
C440 H443 0.929 . S
C441 C440 1.363 . S
C441 C447 1.428 . S
H442 C438 0.930 . S
H443 C440 0.929 . S
S444 N445 1.613 . S
S444 N446 1.610 . S
N445 S444 1.613 . S
N445 C448 1.350 . S
N446 S444 1.610 . S
N446 C447 1.351 . S
C447 C441 1.428 . S
C447 N446 1.351 . S
C447 C448 1.434 . S
C448 C439 1.429 . S
C448 N445 1.350 . S
C448 C447 1.434 . S
C449 C450 1.369 . S
C449 C451 1.419 . S
C449 H453 0.930 . S
C450 C449 1.369 . S
C450 C459 1.429 . S
C451 C449 1.419 . S
C451 C452 1.363 1_455 S
C451 H454 0.929 . S
C452 C451 1.363 1_655 S
C452 C458 1.428 . S
H453 C449 0.930 . S
H454 C451 0.929 . S
S455 N456 1.613 1_655 S
S455 N457 1.610 . S
N456 S455 1.613 1_455 S
N456 C459 1.350 . S
N457 S455 1.610 . S
N457 C458 1.351 . S
C458 C452 1.428 . S
C458 N457 1.351 . S
C458 C459 1.434 1_655 S
C459 C450 1.429 . S
C459 N456 1.350 . S
C459 C458 1.434 1_455 S
C460 C461 1.369 1_556 S
C460 C462 1.419 . S
C460 H464 0.930 . S
C461 C460 1.369 1_554 S
C461 C470 1.429 . S
C462 C460 1.419 . S
C462 C463 1.363 1_546 S
C462 H465 0.929 . S
C463 C462 1.363 1_564 S
C463 C469 1.428 . S
H464 C460 0.930 . S
H465 C462 0.929 . S
S466 N467 1.613 1_565 S
S466 N468 1.610 . S
N467 S466 1.613 1_545 S
N467 C470 1.350 . S
N468 S466 1.610 . S
N468 C469 1.351 . S
C469 C463 1.428 . S
C469 N468 1.351 . S
C469 C470 1.434 1_565 S
C470 C461 1.429 . S
C470 N467 1.350 . S
C470 C469 1.434 1_545 S
C471 C472 1.369 . S
C471 C473 1.419 . S
C471 H475 0.930 . S
C472 C471 1.369 . S
C472 C481 1.429 . S
C473 C471 1.419 . S
C473 C474 1.363 . S
C473 H476 0.929 . S
C474 C473 1.363 . S
C474 C480 1.428 . S
H475 C471 0.930 . S
H476 C473 0.929 . S
S477 N478 1.613 . S
S477 N479 1.610 . S
N478 S477 1.613 . S
N478 C481 1.350 . S
N479 S477 1.610 . S
N479 C480 1.351 . S
C480 C474 1.428 . S
C480 N479 1.351 . S
C480 C481 1.434 . S
C481 C472 1.429 . S
C481 N478 1.350 . S
C481 C480 1.434 . S
C482 C483 1.369 . S
C482 C484 1.419 1_565 S
C482 H486 0.930 . S
C483 C482 1.369 . S
C483 C492 1.429 . S
C484 C482 1.419 1_545 S
C484 C485 1.362 1_545 S
C484 H487 0.929 . S
C485 C484 1.362 1_565 S
C485 C491 1.432 . S
H486 C482 0.930 . S
H487 C484 0.929 . S
S488 N489 1.613 . S
S488 N490 1.610 . S
N489 S488 1.613 . S
N489 C492 1.350 . S
N490 S488 1.610 . S
N490 C491 1.351 . S
C491 C485 1.432 . S
C491 N490 1.351 . S
C491 C492 1.434 . S
C492 C483 1.429 . S
C492 N489 1.350 . S
C492 C491 1.434 . S
C493 C494 1.369 . S
C493 C495 1.419 . S
C493 H497 0.930 . S
C494 C493 1.369 . S
C494 C503 1.429 . S
C495 C493 1.419 . S
C495 C496 1.363 . S
C495 H498 0.929 . S
C496 C495 1.363 . S
C496 C502 1.428 . S
H497 C493 0.930 . S
H498 C495 0.929 . S
S499 N500 1.613 . S
S499 N501 1.610 . S
N500 S499 1.613 . S
N500 C503 1.350 . S
N501 S499 1.610 . S
N501 C502 1.351 . S
C502 C496 1.428 . S
C502 N501 1.351 . S
C502 C503 1.434 . S
C503 C494 1.429 . S
C503 N500 1.350 . S
C503 C502 1.434 . S
C504 C505 1.369 . S
C504 C506 1.419 . S
C504 H508 0.930 . S
C505 C504 1.369 . S
C505 C514 1.429 . S
C506 C504 1.419 . S
C506 C507 1.363 . S
C506 H509 0.929 . S
C507 C506 1.363 . S
C507 C513 1.428 . S
H508 C504 0.930 . S
H509 C506 0.929 . S
S510 N511 1.613 . S
S510 N512 1.610 . S
N511 S510 1.613 . S
N511 C514 1.350 . S
N512 S510 1.610 . S
N512 C513 1.351 . S
C513 C507 1.428 . S
C513 N512 1.351 . S
C513 C514 1.434 . S
C514 C505 1.429 . S
C514 N511 1.350 . S
C514 C513 1.434 . S
C515 C516 1.369 . S
C515 C517 1.419 . S
C515 H519 0.930 . S
C516 C515 1.369 . S
C516 C525 1.429 . S
C517 C515 1.419 . S
C517 C518 1.363 . S
C517 H520 0.929 . S
C518 C517 1.363 . S
C518 C524 1.428 . S
H519 C515 0.930 . S
H520 C517 0.929 . S
S521 N522 1.613 . S
S521 N523 1.610 . S
N522 S521 1.613 . S
N522 C525 1.350 . S
N523 S521 1.610 . S
N523 C524 1.351 . S
C524 C518 1.428 . S
C524 N523 1.351 . S
C524 C525 1.434 . S
C525 C516 1.429 . S
C525 N522 1.350 . S
C525 C524 1.434 . S
C526 C527 1.369 . S
C526 C528 1.419 . S
C526 H530 0.930 . S
C527 C526 1.369 . S
C527 C536 1.429 . S
C528 C526 1.419 . S
C528 C529 1.363 . S
C528 H531 0.929 . S
C529 C528 1.363 . S
C529 C535 1.428 . S
H530 C526 0.930 . S
H531 C528 0.929 . S
S532 N533 1.613 . S
S532 N534 1.610 . S
N533 S532 1.613 . S
N533 C536 1.350 . S
N534 S532 1.610 . S
N534 C535 1.351 . S
C535 C529 1.428 . S
C535 N534 1.351 . S
C535 C536 1.434 . S
C536 C527 1.429 . S
C536 N533 1.350 . S
C536 C535 1.434 . S
C537 C538 1.369 . S
C537 C539 1.419 1_655 S
C537 H541 0.930 . S
C538 C537 1.369 . S
C538 C547 1.429 . S
C539 C537 1.419 1_455 S
C539 C540 1.363 . S
C539 H542 0.929 . S
C540 C539 1.363 . S
C540 C546 1.428 . S
H541 C537 0.930 . S
H542 C539 0.929 . S
S543 N544 1.613 1_455 S
S543 N545 1.610 . S
N544 S543 1.613 1_655 S
N544 C547 1.350 . S
N545 S543 1.610 . S
N545 C546 1.351 . S
C546 C540 1.428 . S
C546 N545 1.351 . S
C546 C547 1.434 1_455 S
C547 C538 1.429 . S
C547 N544 1.350 . S
C547 C546 1.434 1_655 S
C548 C549 1.369 . S
C548 C550 1.419 . S
C548 H552 0.930 . S
C549 C548 1.369 . S
C549 C558 1.429 . S
C550 C548 1.419 . S
C550 C551 1.363 . S
C550 H553 0.929 . S
C551 C550 1.363 . S
C551 C557 1.428 . S
H552 C548 0.930 . S
H553 C550 0.929 . S
S554 N555 1.615 . S
S554 N556 1.614 . S
N555 S554 1.615 . S
N555 C558 1.350 . S
N556 S554 1.614 . S
N556 C557 1.351 . S
C557 C551 1.428 . S
C557 N556 1.351 . S
C557 C558 1.434 . S
C558 C549 1.429 . S
C558 N555 1.350 . S
C558 C557 1.434 . S
C559 C560 1.369 . S
C559 C561 1.419 . S
C559 H563 0.930 . S
C560 C559 1.369 . S
C560 C569 1.429 . S
C561 C559 1.419 . S
C561 C562 1.363 . S
C561 H564 0.929 . S
C562 C561 1.363 . S
C562 C568 1.428 . S
H563 C559 0.930 . S
H564 C561 0.929 . S
S565 N566 1.613 . S
S565 N567 1.610 . S
N566 S565 1.613 . S
N566 C569 1.350 . S
N567 S565 1.610 . S
N567 C568 1.351 . S
C568 C562 1.428 . S
C568 N567 1.351 . S
C568 C569 1.434 . S
C569 C560 1.429 . S
C569 N566 1.350 . S
C569 C568 1.434 . S
C570 C571 1.369 . S
C570 C572 1.419 . S
C570 H574 0.930 . S
C571 C570 1.369 . S
C571 C580 1.429 . S
C572 C570 1.419 . S
C572 C573 1.363 . S
C572 H575 0.929 . S
C573 C572 1.363 . S
C573 C579 1.428 . S
H574 C570 0.930 . S
H575 C572 0.929 . S
S576 N577 1.613 . S
S576 N578 1.610 . S
N577 S576 1.613 . S
N577 C580 1.350 . S
N578 S576 1.610 . S
N578 C579 1.351 . S
C579 C573 1.428 . S
C579 N578 1.351 . S
C579 C580 1.434 . S
C580 C571 1.429 . S
C580 N577 1.350 . S
C580 C579 1.434 . S
C581 C582 1.369 . S
C581 C583 1.419 . S
C581 H585 0.930 . S
C582 C581 1.369 . S
C582 C591 1.429 . S
C583 C581 1.419 . S
C583 C584 1.363 . S
C583 H586 0.929 . S
C584 C583 1.363 . S
C584 C590 1.428 . S
H585 C581 0.930 . S
H586 C583 0.929 . S
S587 N588 1.613 . S
S587 N589 1.610 . S
N588 S587 1.613 . S
N588 C591 1.350 . S
N589 S587 1.610 . S
N589 C590 1.351 . S
C590 C584 1.428 . S
C590 N589 1.351 . S
C590 C591 1.434 . S
C591 C582 1.429 . S
C591 N588 1.350 . S
C591 C590 1.434 . S
C592 C593 1.369 . S
C592 C594 1.419 . S
C592 H596 0.930 . S
C593 C592 1.369 . S
C593 C602 1.429 . S
C594 C592 1.419 . S
C594 C595 1.363 . S
C594 H597 0.929 . S
C595 C594 1.363 . S
C595 C601 1.428 . S
H596 C592 0.930 . S
H597 C594 0.929 . S
S598 N599 1.613 . S
S598 N600 1.610 . S
N599 S598 1.613 . S
N599 C602 1.350 . S
N600 S598 1.610 . S
N600 C601 1.351 . S
C601 C595 1.428 . S
C601 N600 1.351 . S
C601 C602 1.434 . S
C602 C593 1.429 . S
C602 N599 1.350 . S
C602 C601 1.434 . S
C603 C604 1.369 1_556 S
C603 C605 1.419 . S
C603 H607 0.929 1_556 S
C604 C603 1.369 1_554 S
C604 C613 1.429 . S
C605 C603 1.419 . S
C605 C606 1.363 . S
C605 H608 0.929 . S
C606 C605 1.363 . S
C606 C612 1.428 . S
H607 C603 0.929 1_554 S
H608 C605 0.929 . S
S609 N610 1.613 . S
S609 N611 1.610 1_554 S
N610 S609 1.613 . S
N610 C613 1.350 . S
N611 S609 1.610 1_556 S
N611 C612 1.351 . S
C612 C606 1.428 . S
C612 N611 1.351 . S
C612 C613 1.434 1_556 S
C613 C604 1.429 . S
C613 N610 1.350 . S
C613 C612 1.434 1_554 S
C614 C615 1.369 . S
C614 C616 1.419 . S
C614 H618 0.930 . S
C615 C614 1.369 . S
C615 C624 1.429 . S
C616 C614 1.419 . S
C616 C617 1.363 . S
C616 H619 0.929 . S
C617 C616 1.363 . S
C617 C623 1.428 . S
H618 C614 0.930 . S
H619 C616 0.929 . S
S620 N621 1.613 . S
S620 N622 1.610 . S
N621 S620 1.613 . S
N621 C624 1.350 . S
N622 S620 1.610 . S
N622 C623 1.351 . S
C623 C617 1.428 . S
C623 N622 1.351 . S
C623 C624 1.434 . S
C624 C615 1.429 . S
C624 N621 1.350 . S
C624 C623 1.434 . S
C625 C626 1.369 . S
C625 C627 1.419 . S
C625 H629 0.930 . S
C626 C625 1.369 . S
C626 C635 1.429 . S
C627 C625 1.419 . S
C627 C628 1.363 . S
C627 H630 0.929 . S
C628 C627 1.363 . S
C628 C634 1.428 . S
H629 C625 0.930 . S
H630 C627 0.929 . S
S631 N632 1.613 . S
S631 N633 1.610 . S
N632 S631 1.613 . S
N632 C635 1.350 . S
N633 S631 1.610 . S
N633 C634 1.351 . S
C634 C628 1.428 . S
C634 N633 1.351 . S
C634 C635 1.434 . S
C635 C626 1.429 . S
C635 N632 1.350 . S
C635 C634 1.434 . S
C373 C7 1.429 . S
C375 C115 1.328 1_565 S
C384 C25 1.303 . S
C386 C151 1.230 . S
C395 C46 1.012 . S
C397 C187 1.098 . S
C408 C217 1.199 . S
C406 C70 1.237 . S
C419 C259 1.348 . S
C417 C28 1.440 . S
C428 C49 1.258 . S
C430 C289 1.208 . S
C439 C67 1.009 . S
C441 C325 1.027 . S
C450 C4 1.293 . S
C452 C367 1.216 . S
C461 C58 2.059 . S
C463 C337 2.026 1_554 S
C474 C229 1.881 . S
C472 C66 1.826 . S
C485 C295 1.838 1_565 S
C483 C3 1.705 . S
C494 C37 1.643 . S
C496 C331 1.707 . S
C507 C121 2.041 . S
C505 C79 2.065 . S
C516 C16 1.631 . S
C518 C181 1.692 . S
C529 C223 1.851 . S
C527 C24 1.720 . S
C540 C85 1.871 . S
C538 C45 1.815 . S
C551 C301 1.244 . S
C549 C19 1.244 . S
C562 C361 1.497 . S
C560 C41 1.216 . S
C571 C62 1.321 . S
C573 C253 1.671 . S
C584 C265 1.415 . S
C582 C82 1.375 . S
C595 C157 1.270 . S
C593 C40 1.227 . S
C604 C61 1.370 . S
C606 C193 1.412 . S
C617 C109 1.655 . S
C615 C83 1.324 . S
C628 C145 1.513 . S
C626 C20 1.219 . S
