# Generated by pormake.
# Topology ctn, (3,4)-cn, num edge types: 1
# Building blocks:
#     Node 0, Type 0, BuildingBlock: MIDCAF_clean_linker_0, # of connection points: 3
#     Node 1, Type 0, BuildingBlock: MIDCAF_clean_linker_0, # of connection points: 3
#     Node 2, Type 0, BuildingBlock: MIDCAF_clean_linker_0, # of connection points: 3
#     Node 3, Type 0, BuildingBlock: MIDCAF_clean_linker_0, # of connection points: 3
#     Node 4, Type 0, BuildingBlock: MIDCAF_clean_linker_0, # of connection points: 3
#     Node 5, Type 0, BuildingBlock: MIDCAF_clean_linker_0, # of connection points: 3
#     Node 6, Type 0, BuildingBlock: MIDCAF_clean_linker_0, # of connection points: 3
#     Node 7, Type 0, BuildingBlock: MIDCAF_clean_linker_0, # of connection points: 3
#     Node 8, Type 0, BuildingBlock: MIDCAF_clean_linker_0, # of connection points: 3
#     Node 9, Type 0, BuildingBlock: MIDCAF_clean_linker_0, # of connection points: 3
#     Node 10, Type 0, BuildingBlock: MIDCAF_clean_linker_0, # of connection points: 3
#     Node 11, Type 0, BuildingBlock: MIDCAF_clean_linker_0, # of connection points: 3
#     Node 12, Type 0, BuildingBlock: MIDCAF_clean_linker_0, # of connection points: 3
#     Node 13, Type 0, BuildingBlock: MIDCAF_clean_linker_0, # of connection points: 3
#     Node 14, Type 0, BuildingBlock: MIDCAF_clean_linker_0, # of connection points: 3
#     Node 15, Type 0, BuildingBlock: MIDCAF_clean_linker_0, # of connection points: 3
#     Node 16, Type 1, BuildingBlock: AZAVOO_clean_sbu_0, # of connection points: 4
#     Node 17, Type 1, BuildingBlock: AZAVOO_clean_sbu_0, # of connection points: 4
#     Node 18, Type 1, BuildingBlock: AZAVOO_clean_sbu_0, # of connection points: 4
#     Node 19, Type 1, BuildingBlock: AZAVOO_clean_sbu_0, # of connection points: 4
#     Node 20, Type 1, BuildingBlock: AZAVOO_clean_sbu_0, # of connection points: 4
#     Node 21, Type 1, BuildingBlock: AZAVOO_clean_sbu_0, # of connection points: 4
#     Node 22, Type 1, BuildingBlock: AZAVOO_clean_sbu_0, # of connection points: 4
#     Node 23, Type 1, BuildingBlock: AZAVOO_clean_sbu_0, # of connection points: 4
#     Node 24, Type 1, BuildingBlock: AZAVOO_clean_sbu_0, # of connection points: 4
#     Node 25, Type 1, BuildingBlock: AZAVOO_clean_sbu_0, # of connection points: 4
#     Node 26, Type 1, BuildingBlock: AZAVOO_clean_sbu_0, # of connection points: 4
#     Node 27, Type 1, BuildingBlock: AZAVOO_clean_sbu_0, # of connection points: 4
#     Edge 28, Type (0, 1), BuildingBlock: MIFKUJ_clean_linker_0, # of connection points: 2
#     Edge 29, Type (0, 1), BuildingBlock: MIFKUJ_clean_linker_0, # of connection points: 2
#     Edge 30, Type (0, 1), BuildingBlock: MIFKUJ_clean_linker_0, # of connection points: 2
#     Edge 31, Type (0, 1), BuildingBlock: MIFKUJ_clean_linker_0, # of connection points: 2
#     Edge 32, Type (0, 1), BuildingBlock: MIFKUJ_clean_linker_0, # of connection points: 2
#     Edge 33, Type (0, 1), BuildingBlock: MIFKUJ_clean_linker_0, # of connection points: 2
#     Edge 34, Type (0, 1), BuildingBlock: MIFKUJ_clean_linker_0, # of connection points: 2
#     Edge 35, Type (0, 1), BuildingBlock: MIFKUJ_clean_linker_0, # of connection points: 2
#     Edge 36, Type (0, 1), BuildingBlock: MIFKUJ_clean_linker_0, # of connection points: 2
#     Edge 37, Type (0, 1), BuildingBlock: MIFKUJ_clean_linker_0, # of connection points: 2
#     Edge 38, Type (0, 1), BuildingBlock: MIFKUJ_clean_linker_0, # of connection points: 2
#     Edge 39, Type (0, 1), BuildingBlock: MIFKUJ_clean_linker_0, # of connection points: 2
#     Edge 40, Type (0, 1), BuildingBlock: MIFKUJ_clean_linker_0, # of connection points: 2
#     Edge 41, Type (0, 1), BuildingBlock: MIFKUJ_clean_linker_0, # of connection points: 2
#     Edge 42, Type (0, 1), BuildingBlock: MIFKUJ_clean_linker_0, # of connection points: 2
#     Edge 43, Type (0, 1), BuildingBlock: MIFKUJ_clean_linker_0, # of connection points: 2
#     Edge 44, Type (0, 1), BuildingBlock: MIFKUJ_clean_linker_0, # of connection points: 2
#     Edge 45, Type (0, 1), BuildingBlock: MIFKUJ_clean_linker_0, # of connection points: 2
#     Edge 46, Type (0, 1), BuildingBlock: MIFKUJ_clean_linker_0, # of connection points: 2
#     Edge 47, Type (0, 1), BuildingBlock: MIFKUJ_clean_linker_0, # of connection points: 2
#     Edge 48, Type (0, 1), BuildingBlock: MIFKUJ_clean_linker_0, # of connection points: 2
#     Edge 49, Type (0, 1), BuildingBlock: MIFKUJ_clean_linker_0, # of connection points: 2
#     Edge 50, Type (0, 1), BuildingBlock: MIFKUJ_clean_linker_0, # of connection points: 2
#     Edge 51, Type (0, 1), BuildingBlock: MIFKUJ_clean_linker_0, # of connection points: 2
#     Edge 52, Type (0, 1), BuildingBlock: MIFKUJ_clean_linker_0, # of connection points: 2
#     Edge 53, Type (0, 1), BuildingBlock: MIFKUJ_clean_linker_0, # of connection points: 2
#     Edge 54, Type (0, 1), BuildingBlock: MIFKUJ_clean_linker_0, # of connection points: 2
#     Edge 55, Type (0, 1), BuildingBlock: MIFKUJ_clean_linker_0, # of connection points: 2
#     Edge 56, Type (0, 1), BuildingBlock: MIFKUJ_clean_linker_0, # of connection points: 2
#     Edge 57, Type (0, 1), BuildingBlock: MIFKUJ_clean_linker_0, # of connection points: 2
#     Edge 58, Type (0, 1), BuildingBlock: MIFKUJ_clean_linker_0, # of connection points: 2
#     Edge 59, Type (0, 1), BuildingBlock: MIFKUJ_clean_linker_0, # of connection points: 2
#     Edge 60, Type (0, 1), BuildingBlock: MIFKUJ_clean_linker_0, # of connection points: 2
#     Edge 61, Type (0, 1), BuildingBlock: MIFKUJ_clean_linker_0, # of connection points: 2
#     Edge 62, Type (0, 1), BuildingBlock: MIFKUJ_clean_linker_0, # of connection points: 2
#     Edge 63, Type (0, 1), BuildingBlock: MIFKUJ_clean_linker_0, # of connection points: 2
#     Edge 64, Type (0, 1), BuildingBlock: MIFKUJ_clean_linker_0, # of connection points: 2
#     Edge 65, Type (0, 1), BuildingBlock: MIFKUJ_clean_linker_0, # of connection points: 2
#     Edge 66, Type (0, 1), BuildingBlock: MIFKUJ_clean_linker_0, # of connection points: 2
#     Edge 67, Type (0, 1), BuildingBlock: MIFKUJ_clean_linker_0, # of connection points: 2
#     Edge 68, Type (0, 1), BuildingBlock: MIFKUJ_clean_linker_0, # of connection points: 2
#     Edge 69, Type (0, 1), BuildingBlock: MIFKUJ_clean_linker_0, # of connection points: 2
#     Edge 70, Type (0, 1), BuildingBlock: MIFKUJ_clean_linker_0, # of connection points: 2
#     Edge 71, Type (0, 1), BuildingBlock: MIFKUJ_clean_linker_0, # of connection points: 2
#     Edge 72, Type (0, 1), BuildingBlock: MIFKUJ_clean_linker_0, # of connection points: 2
#     Edge 73, Type (0, 1), BuildingBlock: MIFKUJ_clean_linker_0, # of connection points: 2
#     Edge 74, Type (0, 1), BuildingBlock: MIFKUJ_clean_linker_0, # of connection points: 2
#     Edge 75, Type (0, 1), BuildingBlock: MIFKUJ_clean_linker_0, # of connection points: 2
# Relax obj value: 0.002
# Max RMSD: 0.044
# Mean RMSD: 0.023
data_MOF--net-ctn--node1-AZAVOO_clean_sbu_0--node2-MIDCAF_clean_linker_0--edge1-MIFKUJ_clean_linker_0
_symmetry_space_group_name_H-M    P1
_symmetry_Int_Tables_number       1
_symmetry_cell_setting            triclinic
loop_
_symmetry_equiv_pos_as_xyz
'x, y, z'
_cell_length_a     82.859155
_cell_length_b     83.981962
_cell_length_c     83.960846
_cell_angle_alpha  90.127472
_cell_angle_beta   92.47749
_cell_angle_gamma 92.79846
loop_
_atom_site_label
_atom_site_type_symbol
_atom_site_fract_x
_atom_site_fract_y
_atom_site_fract_z
_atom_type_partial_charge
C0 C 0.98478 0.02282 0.05366 0.0
C1 C 0.98747 0.01055 0.06468 0.0
C2 C 0.99934 -0.00035 0.06163 0.0
C3 C 0.0085 0.00119 0.04806 0.0
H4 H 0.04848 0.98398 0.0272 0.0
H5 H 0.07259 0.96885 0.02479 0.0
H6 H 0.0862 0.99749 0.98439 0.0
H7 H 0.06197 0.01239 0.98652 0.0
H8 H 0.0423 0.0412 0.97632 0.0
H9 H 0.03913 0.06471 0.95988 0.0
H10 H 0.99477 0.07397 0.9827 0.0
H11 H 0.99811 0.05065 0.99948 0.0
H12 H 0.9916 0.03411 0.03205 0.0
H13 H 0.97592 0.03158 0.05573 0.0
H14 H 0.00157 0.98993 0.06976 0.0
H15 H 0.01765 0.99267 0.0462 0.0
N16 N 0.02905 0.00662 0.02126 0.0
N17 N 0.03592 0.02115 0.99852 0.0
N18 N 0.01349 0.02783 0.01272 0.0
C19 C 0.03891 0.00916 0.00889 0.0
C20 C 0.02321 0.03051 0.0003 0.0
C21 C 0.01628 0.0159 0.02325 0.0
C22 C 0.05325 0.99947 0.0071 0.0
C23 C 0.05654 0.98702 0.01775 0.0
C24 C 0.07044 0.97839 0.01643 0.0
C25 C 0.08137 0.98201 0.00445 0.0
C26 C 0.07794 0.99427 0.99364 0.0
C27 C 0.06405 0.00288 0.99494 0.0
C28 C 0.02055 0.04407 0.98936 0.0
C29 C 0.03179 0.04815 0.97778 0.0
C30 C 0.02992 0.0616 0.96825 0.0
C31 C 0.01674 0.07127 0.97002 0.0
C32 C 0.00521 0.06691 0.98122 0.0
C33 C 0.0071 0.05349 0.9908 0.0
C34 C 0.006 0.01365 0.0372 0.0
C35 C 0.99388 0.02433 0.04009 0.0
C36 C 0.27794 0.66856 0.24216 0.0
C37 C 0.2628 0.6688 0.23397 0.0
C38 C 0.25952 0.68169 0.22391 0.0
C39 C 0.27122 0.694 0.22193 0.0
H40 H 0.28664 0.72648 0.18806 0.0
H41 H 0.28339 0.74476 0.16584 0.0
H42 H 0.32215 0.77569 0.18606 0.0
H43 H 0.32546 0.75742 0.20844 0.0
H44 H 0.34917 0.74209 0.2346 0.0
H45 H 0.37249 0.74537 0.25316 0.0
H46 H 0.35411 0.70572 0.28084 0.0
H47 H 0.33063 0.70252 0.26245 0.0
H48 H 0.30113 0.68037 0.2468 0.0
H49 H 0.28072 0.65883 0.25011 0.0
H50 H 0.24799 0.68212 0.21737 0.0
H51 H 0.26831 0.7037 0.214 0.0
N52 N 0.29705 0.71726 0.21571 0.0
N53 N 0.32152 0.7307 0.22369 0.0
N54 N 0.31211 0.70837 0.23793 0.0
C55 C 0.30834 0.72923 0.21351 0.0
C56 C 0.32352 0.72031 0.23593 0.0
C57 C 0.29882 0.70679 0.22788 0.0
C58 C 0.30633 0.74045 0.20006 0.0
C59 C 0.29448 0.73717 0.18784 0.0
C60 C 0.29267 0.74759 0.17503 0.0
C61 C 0.30257 0.7616 0.17421 0.0
C62 C 0.31431 0.76501 0.18646 0.0
C63 C 0.31624 0.75449 0.19922 0.0
C64 C 0.33794 0.72207 0.24702 0.0
C65 C 0.35007 0.73403 0.24461 0.0
C66 C 0.36352 0.73586 0.2552 0.0
C67 C 0.36514 0.72582 0.26847 0.0
C68 C 0.35311 0.71377 0.27082 0.0
C69 C 0.33968 0.7119 0.26021 0.0
C70 C 0.28639 0.69377 0.2301 0.0
C71 C 0.28958 0.68095 0.24032 0.0
C72 C 0.00056 0.42955 0.01904 0.0
C73 C 0.98898 0.42474 0.00705 0.0
C74 C 0.97459 0.43287 0.00544 0.0
C75 C 0.97181 0.44555 0.01562 0.0
H76 H 0.94059 0.48137 0.02264 0.0
H77 H 0.91868 0.499 0.01632 0.0
H78 H 0.93792 0.5321 0.05257 0.0
H79 H 0.95989 0.51459 0.05889 0.0
H80 H 0.99206 0.50601 0.07973 0.0
H81 H 0.00963 0.51038 0.10365 0.0
H82 H 0.02381 0.46169 0.1013 0.0
H83 H 0.00642 0.45728 0.07734 0.0
H84 H 0.00688 0.44545 0.03848 0.0
H85 H 0.0117 0.42339 0.02066 0.0
H86 H 0.9655 0.42948 0.99623 0.0
H87 H 0.96057 0.45154 0.01405 0.0
N88 N 0.96807 0.47344 0.0353 0.0
N89 N 0.97522 0.48845 0.05835 0.0
N90 N 0.9899 0.46628 0.05203 0.0
C91 C 0.96544 0.48589 0.04507 0.0
C92 C 0.98741 0.47864 0.06196 0.0
C93 C 0.98033 0.46364 0.03864 0.0
C94 C 0.95205 0.49655 0.04127 0.0
C95 C 0.94019 0.49241 0.02926 0.0
C96 C 0.92757 0.50246 0.02569 0.0
C97 C 0.92661 0.51693 0.03392 0.0
C98 C 0.93845 0.52109 0.0459 0.0
C99 C 0.95099 0.51099 0.04958 0.0
C100 C 0.99786 0.48131 0.07659 0.0
C101 C 0.99888 0.49621 0.08433 0.0
C102 C 0.00898 0.49875 0.09798 0.0
C103 C 0.01803 0.48636 0.10431 0.0
C104 C 0.01685 0.4714 0.09673 0.0
C105 C 0.00698 0.46893 0.08295 0.0
C106 C 0.98331 0.45027 0.02775 0.0
C107 C 0.99773 0.44212 0.02932 0.0
C108 C 0.73484 0.78066 0.16698 0.0
C109 C 0.72609 0.76598 0.16808 0.0
C110 C 0.71545 0.76365 0.18053 0.0
C111 C 0.7135 0.77581 0.19159 0.0
H112 H 0.68411 0.78917 0.2272 0.0
H113 H 0.66299 0.78688 0.24648 0.0
H114 H 0.67771 0.83358 0.2651 0.0
H115 H 0.69902 0.8358 0.24612 0.0
H116 H 0.73277 0.85107 0.23715 0.0
H117 H 0.75224 0.87375 0.23892 0.0
H118 H 0.77181 0.85971 0.19447 0.0
H119 H 0.75228 0.837 0.19257 0.0
H120 H 0.73998 0.80392 0.17688 0.0
H121 H 0.74326 0.78274 0.1576 0.0
H122 H 0.70846 0.7525 0.1816 0.0
H123 H 0.70517 0.77363 0.20102 0.0
N124 N 0.7083 0.80223 0.21279 0.0
N125 N 0.71714 0.8268 0.22417 0.0
N126 N 0.73081 0.81641 0.20292 0.0
C127 C 0.70656 0.81392 0.22371 0.0
C128 C 0.7293 0.82816 0.21384 0.0
C129 C 0.72038 0.80339 0.20234 0.0
C130 C 0.69337 0.81263 0.23512 0.0
C131 C 0.68285 0.79898 0.23537 0.0
C132 C 0.67065 0.7977 0.24637 0.0
C133 C 0.66868 0.81004 0.25736 0.0
C134 C 0.67905 0.82376 0.25696 0.0
C135 C 0.69125 0.82505 0.246 0.0
C136 C 0.74095 0.84215 0.21472 0.0
C137 C 0.74116 0.8528 0.2277 0.0
C138 C 0.75238 0.86577 0.22878 0.0
C139 C 0.76357 0.86847 0.21686 0.0
C140 C 0.76324 0.85798 0.20378 0.0
C141 C 0.75211 0.84492 0.20275 0.0
C142 C 0.72229 0.79052 0.19053 0.0
C143 C 0.73301 0.79277 0.1781 0.0
C144 C 0.05026 0.93865 0.51668 0.0
C145 C 0.03563 0.92946 0.51542 0.0
C146 C 0.0233 0.93427 0.50474 0.0
C147 C 0.02566 0.9478 0.49529 0.0
H148 H 0.00894 0.96749 0.45329 0.0
H149 H 0.9908 0.97158 0.43022 0.0
H150 H 0.0162 0.01649 0.42097 0.0
H151 H 0.03434 0.01254 0.44411 0.0
H152 H 0.06795 0.02064 0.46231 0.0
H153 H 0.09242 0.03767 0.46625 0.0
H154 H 0.10879 0.00738 0.50456 0.0
H155 H 0.08445 0.99015 0.50052 0.0
H156 H 0.06408 0.95896 0.50854 0.0
H157 H 0.05993 0.93531 0.52492 0.0
H158 H 0.01195 0.92734 0.50338 0.0
H159 H 0.01596 0.95103 0.48705 0.0
N160 N 0.03229 0.97405 0.47388 0.0
N161 N 0.04832 0.99641 0.46659 0.0
N162 N 0.05657 0.98074 0.48825 0.0
C163 C 0.0348 0.98674 0.46412 0.0
C164 C 0.05927 0.9935 0.47863 0.0
C165 C 0.04309 0.97098 0.486 0.0
C166 C 0.02321 0.98964 0.45056 0.0
C167 C 0.01064 0.97831 0.44644 0.0
C168 C 0.00026 0.9806 0.43316 0.0
C169 C 0.00211 0.99433 0.42374 0.0
C170 C 0.01438 0.00586 0.42807 0.0
C171 C 0.02485 0.00352 0.44129 0.0
C172 C 0.07415 0.00398 0.4811 0.0
C173 C 0.07673 0.01756 0.47158 0.0
C174 C 0.09074 0.0274 0.47389 0.0
C175 C 0.10254 0.0239 0.48574 0.0
C176 C 0.10002 0.01031 0.49521 0.0
C177 C 0.08598 0.00049 0.49295 0.0
C178 C 0.04038 0.95691 0.49639 0.0
C179 C 0.0526 0.95225 0.50733 0.0
C180 C 0.22598 0.74431 0.82676 0.0
C181 C 0.21353 0.75441 0.8302 0.0
C182 C 0.19976 0.75444 0.81982 0.0
C183 C 0.19833 0.74436 0.8065 0.0
H184 H 0.17076 0.73482 0.76598 0.0
H185 H 0.14839 0.73722 0.74664 0.0
H186 H 0.16436 0.69699 0.72045 0.0
H187 H 0.18705 0.69472 0.73967 0.0
H188 H 0.21964 0.67831 0.75178 0.0
H189 H 0.23975 0.65824 0.74933 0.0
H190 H 0.2637 0.67492 0.79338 0.0
H191 H 0.24394 0.69509 0.79573 0.0
H192 H 0.23433 0.7265 0.81135 0.0
H193 H 0.23689 0.74421 0.83433 0.0
H194 H 0.18987 0.76196 0.8222 0.0
H195 H 0.18744 0.74452 0.7989 0.0
N196 N 0.19634 0.72366 0.7787 0.0
N197 N 0.20555 0.70193 0.76464 0.0
N198 N 0.21971 0.71135 0.78783 0.0
C199 C 0.19458 0.71333 0.76619 0.0
C200 C 0.21816 0.70086 0.77545 0.0
C201 C 0.20888 0.72278 0.78956 0.0
C202 C 0.18079 0.71457 0.75442 0.0
C203 C 0.16956 0.72644 0.75613 0.0
C204 C 0.15662 0.72777 0.74507 0.0
C205 C 0.15454 0.71727 0.73201 0.0
C206 C 0.16572 0.70538 0.73029 0.0
C207 C 0.17869 0.70403 0.74137 0.0
C208 C 0.23016 0.68842 0.77391 0.0
C209 C 0.22919 0.67771 0.76095 0.0
C210 C 0.24067 0.66613 0.75958 0.0
C211 C 0.25338 0.66502 0.77112 0.0
C212 C 0.25424 0.67562 0.78413 0.0
C213 C 0.24281 0.68716 0.78551 0.0
C214 C 0.21062 0.73397 0.80329 0.0
C215 C 0.22453 0.73419 0.81351 0.0
C216 C 0.98949 0.56748 0.49482 0.0
C217 C 0.9783 0.57162 0.50606 0.0
C218 C 0.96394 0.56214 0.50716 0.0
C219 C 0.96076 0.54894 0.49716 0.0
H220 H 0.92704 0.51305 0.48715 0.0
H221 H 0.90274 0.4961 0.49033 0.0
H222 H 0.91624 0.46595 0.45185 0.0
H223 H 0.94071 0.48271 0.44877 0.0
H224 H 0.97132 0.49338 0.42885 0.0
H225 H 0.99042 0.48753 0.40853 0.0
H226 H 0.0249 0.52252 0.42958 0.0
H227 H 0.00599 0.52832 0.44994 0.0
H228 H 0.99521 0.5515 0.47626 0.0
H229 H 0.00076 0.57442 0.4938 0.0
H230 H 0.95496 0.56512 0.51553 0.0
H231 H 0.94948 0.54202 0.49826 0.0
N232 N 0.95446 0.52189 0.4761 0.0
N233 N 0.96162 0.50596 0.45481 0.0
N234 N 0.97878 0.52753 0.46356 0.0
C235 C 0.95101 0.5093 0.46613 0.0
C236 C 0.97554 0.51502 0.45345 0.0
C237 C 0.9683 0.53107 0.47491 0.0
C238 C 0.93593 0.49924 0.46773 0.0
C239 C 0.92486 0.50283 0.47931 0.0
C240 C 0.91084 0.49317 0.48109 0.0
C241 C 0.90756 0.47966 0.47136 0.0
C242 C 0.91852 0.47616 0.45967 0.0
C243 C 0.93253 0.48583 0.45786 0.0
C244 C 0.98709 0.51133 0.44108 0.0
C245 C 0.98299 0.49981 0.42919 0.0
C246 C 0.99389 0.4965 0.41749 0.0
C247 C 0.00917 0.50452 0.41749 0.0
C248 C 0.01329 0.51598 0.42939 0.0
C249 C 0.00238 0.51938 0.44101 0.0
C250 C 0.97186 0.54488 0.48578 0.0
C251 C 0.98632 0.55428 0.4848 0.0
C252 C 0.84368 0.76753 0.75059 0.0
C253 C 0.84647 0.78033 0.74011 0.0
C254 C 0.83605 0.79304 0.74013 0.0
C255 C 0.82299 0.79284 0.75011 0.0
H256 H 0.78244 0.81641 0.75809 0.0
H257 H 0.76304 0.83709 0.75529 0.0
H258 H 0.73308 0.81307 0.78956 0.0
H259 H 0.75272 0.79251 0.79272 0.0
H260 H 0.76496 0.76191 0.8097 0.0
H261 H 0.76296 0.74436 0.83255 0.0
H262 H 0.81192 0.73063 0.82668 0.0
H263 H 0.81386 0.74797 0.80349 0.0
H264 H 0.82875 0.75722 0.76842 0.0
H265 H 0.85133 0.75744 0.75076 0.0
H266 H 0.83801 0.80324 0.73245 0.0
H267 H 0.81522 0.80284 0.7497 0.0
N268 N 0.79448 0.79062 0.76861 0.0
N269 N 0.77989 0.77926 0.78934 0.0
N270 N 0.80421 0.76849 0.78232 0.0
C271 C 0.78142 0.7905 0.77784 0.0
C272 C 0.7912 0.76823 0.79169 0.0
C273 C 0.8059 0.77965 0.77071 0.0
C274 C 0.76921 0.80277 0.77567 0.0
C275 C 0.7717 0.81545 0.765 0.0
C276 C 0.76049 0.82728 0.7633 0.0
C277 C 0.74645 0.82673 0.77216 0.0
C278 C 0.74385 0.81396 0.7827 0.0
C279 C 0.7551 0.80213 0.78444 0.0
C280 C 0.78965 0.75653 0.80482 0.0
C281 C 0.7753 0.7551 0.81317 0.0
C282 C 0.77415 0.74506 0.82633 0.0
C283 C 0.78735 0.73625 0.83158 0.0
C284 C 0.80149 0.73718 0.82289 0.0
C285 C 0.80263 0.74719 0.80963 0.0
C286 C 0.82005 0.77996 0.76043 0.0
C287 C 0.83065 0.76736 0.76066 0.0
C288 C 0.34785 0.27028 0.25125 0.0
C289 C 0.3501 0.28238 0.23989 0.0
C290 C 0.33936 0.29482 0.23921 0.0
C291 C 0.3265 0.29503 0.2494 0.0
H292 H 0.28778 0.32066 0.25918 0.0
H293 H 0.2684 0.34132 0.25591 0.0
H294 H 0.23742 0.31702 0.28914 0.0
H295 H 0.25703 0.29652 0.29279 0.0
H296 H 0.27274 0.2709 0.31501 0.0
H297 H 0.26963 0.25191 0.33644 0.0
H298 H 0.30959 0.22618 0.3198 0.0
H299 H 0.31306 0.24556 0.29843 0.0
H300 H 0.33348 0.26087 0.26995 0.0
H301 H 0.35581 0.26044 0.25199 0.0
H302 H 0.3409 0.30448 0.23079 0.0
H303 H 0.31845 0.30479 0.24841 0.0
N304 N 0.29897 0.29421 0.26913 0.0
N305 N 0.28427 0.28321 0.28995 0.0
N306 N 0.30809 0.27168 0.2826 0.0
C307 C 0.28603 0.29445 0.27849 0.0
C308 C 0.29522 0.2718 0.29212 0.0
C309 C 0.31005 0.28289 0.27107 0.0
C310 C 0.27402 0.3069 0.27628 0.0
C311 C 0.27683 0.31966 0.26579 0.0
C312 C 0.26564 0.33149 0.26382 0.0
C313 C 0.2513 0.33082 0.27221 0.0
C314 C 0.24843 0.31801 0.28263 0.0
C315 C 0.25967 0.30621 0.28467 0.0
C316 C 0.29317 0.25981 0.30494 0.0
C317 C 0.28087 0.26118 0.3158 0.0
C318 C 0.27899 0.25018 0.32808 0.0
C319 C 0.28927 0.23741 0.3298 0.0
C320 C 0.30154 0.23595 0.3189 0.0
C321 C 0.30348 0.24703 0.30661 0.0
C322 C 0.32404 0.2828 0.2606 0.0
C323 C 0.33497 0.27049 0.26149 0.0
C324 C 0.50296 0.932 0.51613 0.0
C325 C 0.49117 0.92716 0.50436 0.0
C326 C 0.47667 0.93515 0.50314 0.0
C327 C 0.4739 0.94756 0.51363 0.0
H328 H 0.44577 0.98589 0.51892 0.0
H329 H 0.42206 0.00151 0.51431 0.0
H330 H 0.42901 0.02172 0.56158 0.0
H331 H 0.45274 0.00599 0.56634 0.0
H332 H 0.48501 0.99862 0.58686 0.0
H333 H 0.503 0.00279 0.61044 0.0
H334 H 0.53496 0.96851 0.59246 0.0
H335 H 0.51722 0.96447 0.56885 0.0
H336 H 0.5094 0.94759 0.53582 0.0
H337 H 0.5142 0.92596 0.51744 0.0
H338 H 0.46742 0.93176 0.49408 0.0
H339 H 0.46251 0.95333 0.51242 0.0
N340 N 0.46905 0.9737 0.53505 0.0
N341 N 0.47556 0.98743 0.55899 0.0
N342 N 0.49203 0.96739 0.55052 0.0
C343 C 0.46564 0.98505 0.54578 0.0
C344 C 0.48881 0.97866 0.56144 0.0
C345 C 0.4822 0.96481 0.53731 0.0
C346 C 0.45121 0.99465 0.54302 0.0
C347 C 0.44229 0.99363 0.52838 0.0
C348 C 0.42873 0.00266 0.52567 0.0
C349 C 0.42369 0.01286 0.53757 0.0
C350 C 0.43253 0.01385 0.55224 0.0
C351 C 0.44618 0.0049 0.55492 0.0
C352 C 0.49964 0.98123 0.57588 0.0
C353 C 0.49588 0.99198 0.5879 0.0
C354 C 0.50614 0.99431 0.60148 0.0
C355 C 0.52044 0.98602 0.6033 0.0
C356 C 0.52416 0.97526 0.59132 0.0
C357 C 0.5139 0.97288 0.5778 0.0
C358 C 0.48552 0.95217 0.52569 0.0
C359 C 0.50015 0.94433 0.52673 0.0
C360 C 0.24101 0.27698 0.67024 0.0
C361 C 0.23036 0.26347 0.66858 0.0
C362 C 0.21704 0.26209 0.67839 0.0
C363 C 0.2144 0.27398 0.68954 0.0
H364 H 0.18604 0.28465 0.72688 0.0
H365 H 0.1632 0.28206 0.74404 0.0
H366 H 0.17092 0.3315 0.75801 0.0
H367 H 0.19415 0.33397 0.74124 0.0
H368 H 0.22919 0.35048 0.73549 0.0
H369 H 0.24891 0.37283 0.73893 0.0
H370 H 0.27706 0.35366 0.70193 0.0
H371 H 0.25758 0.33117 0.69864 0.0
H372 H 0.2468 0.29913 0.6822 0.0
H373 H 0.25124 0.27855 0.6627 0.0
H374 H 0.2087 0.25175 0.67753 0.0
H375 H 0.204 0.2725 0.69688 0.0
N376 N 0.20903 0.29921 0.71199 0.0
N377 N 0.21685 0.32377 0.72405 0.0
N378 N 0.23259 0.31324 0.70441 0.0
C379 C 0.20628 0.3109 0.72262 0.0
C380 C 0.23007 0.32502 0.715 0.0
C381 C 0.22213 0.3003 0.70281 0.0
C382 C 0.19201 0.3095 0.7327 0.0
C383 C 0.18286 0.295 0.73356 0.0
C384 C 0.16966 0.29354 0.74334 0.0
C385 C 0.16516 0.30657 0.75243 0.0
C386 C 0.17418 0.32114 0.75139 0.0
C387 C 0.18748 0.32257 0.7417 0.0
C388 C 0.24178 0.33893 0.71682 0.0
C389 C 0.23956 0.35101 0.72805 0.0
C390 C 0.25083 0.36389 0.72998 0.0
C391 C 0.26459 0.365 0.72075 0.0
C392 C 0.26672 0.35303 0.70941 0.0
C393 C 0.25547 0.34017 0.70747 0.0
C394 C 0.22501 0.28754 0.69114 0.0
C395 C 0.23838 0.28886 0.68137 0.0
C396 C 0.77959 0.17099 0.74653 0.0
C397 C 0.76576 0.16869 0.73634 0.0
C398 C 0.76377 0.17887 0.72322 0.0
C399 C 0.77534 0.19108 0.72036 0.0
H400 H 0.78891 0.22399 0.68666 0.0
H401 H 0.785 0.24149 0.66387 0.0
H402 H 0.82315 0.27387 0.68288 0.0
H403 H 0.82709 0.25643 0.70578 0.0
H404 H 0.85015 0.24409 0.73364 0.0
H405 H 0.87334 0.2487 0.75214 0.0
H406 H 0.85729 0.20826 0.78003 0.0
H407 H 0.83391 0.20375 0.76175 0.0
H408 H 0.80168 0.18456 0.75178 0.0
H409 H 0.78161 0.16321 0.75662 0.0
H410 H 0.75316 0.17754 0.71525 0.0
H411 H 0.77336 0.19872 0.71016 0.0
N412 N 0.79954 0.21614 0.71478 0.0
N413 N 0.82362 0.23054 0.72227 0.0
N414 N 0.81459 0.20891 0.73767 0.0
C415 C 0.81056 0.22822 0.71204 0.0
C416 C 0.82576 0.22092 0.7351 0.0
C417 C 0.80143 0.20644 0.72758 0.0
C418 C 0.80831 0.23879 0.69809 0.0
C419 C 0.79649 0.23482 0.68602 0.0
C420 C 0.79431 0.24479 0.6729 0.0
C421 C 0.8038 0.25902 0.6716 0.0
C422 C 0.81559 0.26303 0.68364 0.0
C423 C 0.81789 0.25298 0.69671 0.0
C424 C 0.84007 0.22357 0.7462 0.0
C425 C 0.85153 0.23614 0.7437 0.0
C426 C 0.86491 0.23875 0.75425 0.0
C427 C 0.86716 0.22886 0.76756 0.0
C428 C 0.85579 0.21622 0.77001 0.0
C429 C 0.84241 0.2136 0.75946 0.0
C430 C 0.78919 0.19341 0.73056 0.0
C431 C 0.79117 0.1832 0.74369 0.0
C432 C 0.48357 0.52343 0.55251 0.0
C433 C 0.48562 0.51098 0.56345 0.0
C434 C 0.49724 0.49976 0.5606 0.0
C435 C 0.50672 0.50111 0.54723 0.0
H436 H 0.54517 0.48149 0.52556 0.0
H437 H 0.56877 0.46556 0.5234 0.0
H438 H 0.58468 0.49487 0.48431 0.0
H439 H 0.56095 0.51054 0.48614 0.0
H440 H 0.53375 0.53381 0.46954 0.0
H441 H 0.5318 0.55712 0.45248 0.0
H442 H 0.50615 0.58082 0.48877 0.0
H443 H 0.50743 0.55728 0.5054 0.0
H444 H 0.49117 0.53466 0.53114 0.0
H445 H 0.47492 0.53242 0.55446 0.0
H446 H 0.49899 0.48991 0.56869 0.0
H447 H 0.51562 0.49231 0.54547 0.0
N448 N 0.52741 0.50562 0.52035 0.0
N449 N 0.53484 0.51987 0.49759 0.0
N450 N 0.51309 0.52778 0.51215 0.0
C451 C 0.53727 0.50768 0.5079 0.0
C452 C 0.52277 0.52995 0.49962 0.0
C453 C 0.51524 0.5156 0.52252 0.0
C454 C 0.55114 0.49738 0.50608 0.0
C455 C 0.55363 0.4845 0.51643 0.0
C456 C 0.56723 0.47541 0.51526 0.0
C457 C 0.57869 0.479 0.50375 0.0
C458 C 0.57602 0.49165 0.49319 0.0
C459 C 0.56241 0.50071 0.49432 0.0
C460 C 0.5208 0.54371 0.48885 0.0
C461 C 0.52757 0.54396 0.47379 0.0
C462 C 0.52652 0.55738 0.46404 0.0
C463 C 0.5189 0.57096 0.46924 0.0
C464 C 0.51185 0.57053 0.48419 0.0
C465 C 0.51268 0.55703 0.49382 0.0
C466 C 0.5048 0.5137 0.5364 0.0
C467 C 0.493 0.52477 0.53916 0.0
C468 C 0.54356 0.44267 0.01733 0.0
C469 C 0.53223 0.43072 0.0118 0.0
C470 C 0.52337 0.4331 0.99743 0.0
C471 C 0.52604 0.44696 0.98858 0.0
H472 H 0.50439 0.47647 0.95418 0.0
H473 H 0.4871 0.48159 0.93063 0.0
H474 H 0.52482 0.51273 0.91221 0.0
H475 H 0.54214 0.50767 0.93567 0.0
H476 H 0.57617 0.51228 0.95584 0.0
H477 H 0.60069 0.52913 0.96121 0.0
H478 H 0.59974 0.51708 0.0111 0.0
H479 H 0.57533 0.49994 0.00576 0.0
H480 H 0.55543 0.46532 0.01282 0.0
H481 H 0.55061 0.44111 0.02833 0.0
H482 H 0.51442 0.42416 0.99297 0.0
H483 H 0.51914 0.44825 0.97744 0.0
N484 N 0.53167 0.47597 0.97079 0.0
N485 N 0.54905 0.49757 0.96416 0.0
N486 N 0.55494 0.48235 0.98689 0.0
C487 C 0.53536 0.48835 0.96098 0.0
C488 C 0.55885 0.4947 0.97713 0.0
C489 C 0.54141 0.47285 0.98374 0.0
C490 C 0.5247 0.49162 0.94682 0.0
C491 C 0.50902 0.48442 0.94513 0.0
C492 C 0.49906 0.48743 0.93169 0.0
C493 C 0.50463 0.49753 0.91958 0.0
C494 C 0.52026 0.50477 0.92129 0.0
C495 C 0.53015 0.50192 0.93479 0.0
C496 C 0.57379 0.5048 0.98039 0.0
C497 C 0.58118 0.51319 0.96796 0.0
C498 C 0.59527 0.52275 0.97099 0.0
C499 C 0.60206 0.52436 0.98655 0.0
C500 C 0.59468 0.51605 0.999 0.0
C501 C 0.58076 0.50622 0.99593 0.0
C502 C 0.53775 0.45873 0.9938 0.0
C503 C 0.54637 0.45649 0.00838 0.0
C504 C 0.72324 0.23874 0.32807 0.0
C505 C 0.71392 0.25224 0.32887 0.0
C506 C 0.70223 0.25476 0.31661 0.0
C507 C 0.70006 0.2441 0.30377 0.0
H508 H 0.66471 0.22362 0.2699 0.0
H509 H 0.64236 0.22638 0.25058 0.0
H510 H 0.66987 0.20451 0.21452 0.0
H511 H 0.69189 0.20102 0.23416 0.0
H512 H 0.7183 0.17512 0.25123 0.0
H513 H 0.73878 0.15544 0.24837 0.0
H514 H 0.76449 0.17404 0.29077 0.0
H515 H 0.74433 0.19374 0.29356 0.0
H516 H 0.72861 0.21793 0.31506 0.0
H517 H 0.7321 0.23621 0.33748 0.0
H518 H 0.69494 0.26511 0.31678 0.0
H519 H 0.69107 0.24649 0.29444 0.0
N520 N 0.69525 0.22067 0.27819 0.0
N521 N 0.7049 0.19953 0.26352 0.0
N522 N 0.71869 0.20836 0.28711 0.0
C523 C 0.69374 0.21069 0.26538 0.0
C524 C 0.71741 0.19826 0.27442 0.0
C525 C 0.70772 0.21961 0.28909 0.0
C526 C 0.6801 0.21212 0.25357 0.0
C527 C 0.66597 0.21936 0.25785 0.0
C528 C 0.65317 0.22104 0.2467 0.0
C529 C 0.65426 0.21578 0.23087 0.0
C530 C 0.66841 0.20848 0.22663 0.0
C531 C 0.68112 0.20655 0.23787 0.0
C532 C 0.72964 0.1861 0.27259 0.0
C533 C 0.72832 0.17503 0.25994 0.0
C534 C 0.74001 0.16368 0.25834 0.0
C535 C 0.7533 0.16323 0.26931 0.0
C536 C 0.75454 0.17422 0.28198 0.0
C537 C 0.74288 0.18549 0.28361 0.0
C538 C 0.70958 0.23072 0.30288 0.0
C539 C 0.72115 0.22816 0.31523 0.0
C540 C 0.48094 0.0732 0.98691 0.0
C541 C 0.47565 0.07307 0.00263 0.0
C542 C 0.46786 0.05906 0.00829 0.0
C543 C 0.46509 0.04571 0.9984 0.0
H544 H 0.42905 0.01037 0.9884 0.0
H545 H 0.40591 0.99222 0.99291 0.0
H546 H 0.41893 0.96268 0.95377 0.0
H547 H 0.44223 0.98068 0.94932 0.0
H548 H 0.47338 0.9904 0.93035 0.0
H549 H 0.48997 0.98645 0.90752 0.0
H550 H 0.51221 0.03367 0.91438 0.0
H551 H 0.49559 0.03775 0.93715 0.0
H552 H 0.48246 0.06033 0.96502 0.0
H553 H 0.48671 0.08381 0.98199 0.0
H554 H 0.46394 0.05832 0.02041 0.0
H555 H 0.45896 0.03517 0.00313 0.0
N556 N 0.4547 0.02117 0.97512 0.0
N557 N 0.46069 0.00622 0.95271 0.0
N558 N 0.47607 0.0297 0.95928 0.0
C559 C 0.45141 0.00834 0.96544 0.0
C560 C 0.47306 0.01683 0.94956 0.0
C561 C 0.467 0.03189 0.97214 0.0
C562 C 0.43755 0.99704 0.96847 0.0
C563 C 0.42706 -1e-05 0.98076 0.0
C564 C 0.4137 0.98964 0.9833 0.0
C565 C 0.41055 0.97605 0.97366 0.0
C566 C 0.42112 0.97298 0.9615 0.0
C567 C 0.43445 0.98336 0.9589 0.0
C568 C 0.48312 0.01441 0.93563 0.0
C569 C 0.48177 -2e-05 0.927 0.0
C570 C 0.49134 0.99766 0.91396 0.0
C571 C 0.50237 0.00975 0.90915 0.0
C572 C 0.50368 0.02419 0.9177 0.0
C573 C 0.49422 0.02648 0.93082 0.0
C574 C 0.47029 0.04592 0.98269 0.0
C575 C 0.4784 0.05974 0.97711 0.0
Mg576 Mg 0.23895 0.85641 0.01057 0.0
O577 O 0.26316 0.8691 0.00457 0.0
O578 O 0.28156 0.85047 0.00477 0.0
Mg579 Mg 0.26957 0.82633 0.01101 0.0
C580 C 0.27763 0.8649 0.00294 0.0
C581 C 0.21735 0.88445 0.01415 0.0
O582 O 0.21903 0.87875 0.02865 0.0
O583 O 0.2365 0.84566 0.98548 0.0
O584 O 0.25444 0.82664 0.98743 0.0
O585 O 0.24491 0.86018 0.03662 0.0
O586 O 0.25112 0.83894 0.02315 0.0
C587 C 0.24349 0.83391 0.97958 0.0
C588 C 0.25191 0.84677 0.03636 0.0
O589 O 0.22474 0.87802 0.00303 0.0
Mg590 Mg 0.14858 0.50446 0.27243 0.0
O591 O 0.13346 0.50381 0.24867 0.0
O592 O 0.15076 0.50776 0.22914 0.0
Mg593 Mg 0.17652 0.50911 0.23993 0.0
C594 C 0.13642 0.50555 0.23394 0.0
C595 C 0.12974 0.49368 0.301 0.0
O596 O 0.14487 0.495 0.30643 0.0
O597 O 0.15608 0.47908 0.26806 0.0
O598 O 0.17326 0.48314 0.24845 0.0
O599 O 0.1482 0.53109 0.27329 0.0
O600 O 0.16712 0.51783 0.26212 0.0
C601 C 0.16591 0.47392 0.25817 0.0
C602 C 0.16121 0.53131 0.26529 0.0
O603 O 0.12668 0.49609 0.28627 0.0
Mg604 Mg 0.77479 0.64891 0.01775 0.0
O605 O 0.75025 0.635 0.0139 0.0
O606 O 0.73129 0.65312 0.0134 0.0
Mg607 Mg 0.74335 0.67809 0.01609 0.0
C608 C 0.73545 0.63869 0.01276 0.0
C609 C 0.80374 0.63022 0.01025 0.0
O610 O 0.80893 0.64526 0.01025 0.0
O611 O 0.77379 0.65658 0.99164 0.0
O612 O 0.75547 0.67524 0.99217 0.0
O613 O 0.77251 0.6484 0.04429 0.0
O614 O 0.7638 0.66752 0.02868 0.0
C615 C 0.76569 0.66738 0.98478 0.0
C616 C 0.76512 0.66157 0.04274 0.0
O617 O 0.78883 0.627 0.01235 0.0
Mg618 Mg 0.90218 0.02981 0.24188 0.0
O619 O 0.88703 0.00628 0.23825 0.0
O620 O 0.90392 0.98718 0.23301 0.0
Mg621 Mg 0.92966 0.99826 0.23353 0.0
C622 C 0.88969 0.99179 0.23502 0.0
C623 C 0.8825 0.05633 0.25556 0.0
O624 O 0.89711 0.06312 0.25527 0.0
O625 O 0.91107 0.02193 0.26669 0.0
O626 O 0.92805 0.00323 0.26038 0.0
O627 O 0.90005 0.03428 0.21576 0.0
O628 O 0.91993 0.02146 0.2275 0.0
C629 C 0.92123 0.01153 0.2707 0.0
C630 C 0.9129 0.02628 0.21452 0.0
O631 O 0.88041 0.04179 0.2514 0.0
Mg632 Mg 0.27645 0.14798 0.51443 0.0
O633 O 0.25187 0.13382 0.51167 0.0
O634 O 0.2328 0.15174 0.50988 0.0
Mg635 Mg 0.24466 0.17679 0.51128 0.0
C636 C 0.23703 0.13733 0.51013 0.0
C637 C 0.29011 0.11461 0.52036 0.0
O638 O 0.28097 0.11583 0.53267 0.0
O639 O 0.27513 0.15424 0.48795 0.0
O640 O 0.25598 0.17216 0.48727 0.0
O641 O 0.27461 0.14898 0.54093 0.0
O642 O 0.26543 0.16717 0.52443 0.0
C643 C 0.26634 0.16405 0.48038 0.0
C644 C 0.26706 0.16199 0.53879 0.0
O645 O 0.29021 0.12562 0.51 0.0
Mg646 Mg 0.39923 0.52988 0.73989 0.0
O647 O 0.38499 0.50576 0.73777 0.0
O648 O 0.40258 0.48726 0.73267 0.0
Mg649 Mg 0.42779 0.49942 0.73112 0.0
C650 C 0.38822 0.49129 0.73511 0.0
C651 C 0.37995 0.55533 0.75605 0.0
O652 O 0.39481 0.56159 0.75716 0.0
O653 O 0.40958 0.52305 0.76456 0.0
O654 O 0.42787 0.50583 0.75776 0.0
O655 O 0.39582 0.53353 0.7136 0.0
O656 O 0.41661 0.52183 0.72495 0.0
C657 C 0.42102 0.51388 0.76826 0.0
C658 C 0.40898 0.52607 0.7121 0.0
O659 O 0.37754 0.54145 0.75009 0.0
Mg660 Mg 0.73888 0.35524 0.50854 0.0
O661 O 0.76256 0.3696 0.50348 0.0
O662 O 0.78216 0.35221 0.50357 0.0
Mg663 Mg 0.77142 0.32722 0.50812 0.0
C664 C 0.77737 0.36638 0.50214 0.0
C665 C 0.71545 0.38164 0.51304 0.0
O666 O 0.71692 0.37511 0.52719 0.0
O667 O 0.73741 0.34566 0.48299 0.0
O668 O 0.75728 0.32853 0.48404 0.0
O669 O 0.74423 0.35798 0.53479 0.0
O670 O 0.75183 0.33787 0.52043 0.0
C671 C 0.74583 0.33532 0.47645 0.0
C672 C 0.75194 0.345 0.534 0.0
O673 O 0.72359 0.37636 0.50183 0.0
Mg674 Mg 0.64914 0.00404 0.77257 0.0
O675 O 0.63487 0.00374 0.74838 0.0
O676 O 0.65287 0.00605 0.72936 0.0
Mg677 Mg 0.67829 0.0078 0.74102 0.0
C678 C 0.6383 0.00458 0.7337 0.0
C679 C 0.61461 0.00536 0.78484 0.0
O680 O 0.61564 0.01823 0.77601 0.0
O681 O 0.65621 0.97839 0.7685 0.0
O682 O 0.67443 0.98202 0.74976 0.0
O683 O 0.6495 0.03069 0.77349 0.0
O684 O 0.66838 0.017 0.76283 0.0
C685 C 0.66646 0.97299 0.75917 0.0
C686 C 0.66277 0.03063 0.76592 0.0
O687 O 0.62636 0.99615 0.78538 0.0
Mg688 Mg 0.03442 0.2572 0.89874 0.0
O689 O 0.01015 0.25388 0.88443 0.0
O690 O 0.9917 0.24424 0.90101 0.0
Mg691 Mg 0.00379 0.24189 0.92575 0.0
C692 C 0.99572 0.24889 0.8872 0.0
C693 C 0.04481 0.26556 0.86442 0.0
O694 O 0.03658 0.25199 0.86166 0.0
O695 O 0.02576 0.27964 0.91043 0.0
O696 O 0.00758 0.26919 0.92688 0.0
O697 O 0.03978 0.23202 0.89345 0.0
O698 O 0.02702 0.23953 0.91456 0.0
C699 C 0.01535 0.28118 0.92106 0.0
C700 C 0.03204 0.22815 0.90605 0.0
O701 O 0.04559 0.27132 0.87847 0.0
Mg702 Mg 0.53317 0.7577 0.39808 0.0
O703 O 0.50891 0.7532 0.38394 0.0
O704 O 0.4909 0.74404 0.40123 0.0
Mg705 Mg 0.50336 0.74242 0.42586 0.0
C706 C 0.49461 0.74816 0.38716 0.0
C707 C 0.55667 0.78011 0.38039 0.0
O708 O 0.56239 0.78142 0.39521 0.0
O709 O 0.52392 0.78009 0.40923 0.0
O710 O 0.5066 0.76979 0.42657 0.0
O711 O 0.53982 0.73294 0.39327 0.0
O712 O 0.52636 0.73994 0.41414 0.0
C713 C 0.5139 0.78174 0.42017 0.0
C714 C 0.5321 0.72877 0.4058 0.0
O715 O 0.54376 0.77163 0.37748 0.0
Mg716 Mg 0.98858 0.74739 0.60337 0.0
O717 O 0.01259 0.7427 0.61707 0.0
O718 O 0.0302 0.73612 0.59901 0.0
Mg719 Mg 0.01788 0.73681 0.5742 0.0
C720 C 0.02664 0.7386 0.61343 0.0
C721 C 0.96634 0.76697 0.62312 0.0
O722 O 0.96172 0.77031 0.60839 0.0
O723 O 0.99899 0.77146 0.59504 0.0
O724 O 0.0161 0.76399 0.57686 0.0
O725 O 0.98099 0.72166 0.60486 0.0
O726 O 0.99448 0.73225 0.58504 0.0
C727 C 0.00929 0.77481 0.58451 0.0
C728 C 0.98829 0.71972 0.59171 0.0
O729 O 0.97828 0.7582 0.62545 0.0
Mg730 Mg 0.49025 0.24903 0.10102 0.0
O731 O 0.51402 0.24369 0.11471 0.0
O732 O 0.53134 0.23639 0.09663 0.0
Mg733 Mg 0.51906 0.23753 0.07176 0.0
C734 C 0.52785 0.23905 0.11104 0.0
C735 C 0.46744 0.26773 0.12069 0.0
O736 O 0.46193 0.26969 0.10594 0.0
O737 O 0.50144 0.27278 0.09279 0.0
O738 O 0.51744 0.26482 0.07386 0.0
O739 O 0.4815 0.22359 0.10242 0.0
O740 O 0.49566 0.23346 0.08274 0.0
C741 C 0.51119 0.27586 0.08171 0.0
C742 C 0.48876 0.22122 0.08934 0.0
O743 O 0.48025 0.26019 0.12306 0.0
H744 H 0.20445 0.78524 0.83388 0.0
H745 H 0.20625 0.80136 0.85831 0.0
H746 H 0.22751 0.76252 0.88389 0.0
H747 H 0.22514 0.74619 0.85982 0.0
H748 H 0.20513 0.77504 0.90081 0.0
H749 H 0.25029 0.79534 0.87075 0.0
H750 H 0.26308 0.80755 0.84745 0.0
H751 H 0.2352 0.84893 0.85229 0.0
H752 H 0.22208 0.83686 0.87551 0.0
H753 H 0.2511 0.80597 0.96595 0.0
H754 H 0.24255 0.79554 0.93972 0.0
H755 H 0.21627 0.83773 0.92992 0.0
H756 H 0.22471 0.84837 0.95646 0.0
H757 H 0.23638 0.82696 0.90431 0.0
H758 H 0.19431 0.80748 0.93727 0.0
H759 H 0.1829 0.79502 0.96113 0.0
H760 H 0.20607 0.7517 0.95115 0.0
H761 H 0.21783 0.76397 0.92735 0.0
C762 C 0.20937 0.7801 0.84475 0.0
C763 C 0.21474 0.76444 0.84487 0.0
C764 C 0.21052 0.78938 0.85867 0.0
C765 C 0.21714 0.7832 0.8729 0.0
C766 C 0.22237 0.76756 0.87304 0.0
C767 C 0.22118 0.75828 0.85921 0.0
C768 C 0.21868 0.79283 0.88778 0.0
C769 C 0.212 0.78637 0.90156 0.0
C770 C 0.22719 0.80788 0.88868 0.0
C771 C 0.23506 0.81512 0.87472 0.0
C772 C 0.24678 0.80698 0.86675 0.0
C773 C 0.25411 0.81389 0.85358 0.0
C774 C 0.24991 0.82898 0.84836 0.0
C775 C 0.23841 0.83722 0.85633 0.0
C776 C 0.23103 0.83036 0.8695 0.0
C777 C 0.24355 0.81313 0.95827 0.0
C778 C 0.23855 0.82801 0.96336 0.0
C779 C 0.23864 0.8071 0.94328 0.0
C780 C 0.22868 0.81581 0.93298 0.0
C781 C 0.22392 0.83083 0.93777 0.0
C782 C 0.22871 0.83685 0.95293 0.0
C783 C 0.22328 0.80885 0.91733 0.0
C784 C 0.22921 0.8158 0.90344 0.0
C785 C 0.21417 0.79418 0.91632 0.0
C786 C 0.20703 0.78669 0.93057 0.0
C787 C 0.19707 0.79533 0.94022 0.0
C788 C 0.19052 0.7883 0.95373 0.0
C789 C 0.19378 0.77259 0.95767 0.0
C790 C 0.20356 0.76387 0.94808 0.0
C791 C 0.21015 0.77085 0.93457 0.0
H792 H 0.1887 0.76716 0.96813 0.0
H793 H 0.25561 0.83431 0.83817 0.0
H794 H 0.04154 0.50031 0.42169 0.0
H795 H 0.06102 0.49634 0.40119 0.0
H796 H 0.02269 0.49715 0.36479 0.0
H797 H 0.00307 0.50099 0.38532 0.0
H798 H 0.04355 0.47458 0.35835 0.0
H799 H 0.04742 0.52996 0.3721 0.0
H800 H 0.05053 0.55326 0.39009 0.0
H801 H 0.09755 0.53896 0.4061 0.0
H802 H 0.09462 0.51544 0.38837 0.0
H803 H 0.09693 0.49264 0.2944 0.0
H804 H 0.0755 0.49204 0.31364 0.0
H805 H 0.1113 0.48923 0.35225 0.0
H806 H 0.13272 0.48988 0.33321 0.0
H807 H 0.09085 0.51302 0.35666 0.0
H808 H 0.08658 0.45739 0.34236 0.0
H809 H 0.0831 0.43449 0.3239 0.0
H810 H 0.03649 0.44999 0.30802 0.0
H811 H 0.03979 0.47312 0.32625 0.0
C812 C 0.03726 0.49965 0.40932 0.0
C813 C 0.0208 0.50113 0.4051 0.0
C814 C 0.0484 0.49736 0.39762 0.0
C815 C 0.04336 0.49672 0.38143 0.0
C816 C 0.02685 0.49764 0.37721 0.0
C817 C 0.01566 0.49982 0.38894 0.0
C818 C 0.05544 0.49565 0.36896 0.0
C819 C 0.05379 0.4831 0.35784 0.0
C820 C 0.06889 0.50666 0.3684 0.0
C821 C 0.07074 0.52086 0.37901 0.0
C822 C 0.05838 0.53172 0.37955 0.0
C823 C 0.06011 0.54498 0.38968 0.0
C824 C 0.07421 0.54757 0.39926 0.0
C825 C 0.08662 0.53693 0.39869 0.0
C826 C 0.08494 0.52364 0.38859 0.0
C827 C 0.10022 0.49166 0.30697 0.0
C828 C 0.11655 0.49141 0.31227 0.0
C829 C 0.08795 0.49128 0.31795 0.0
C830 C 0.09182 0.4906 0.33438 0.0
C831 C 0.10806 0.48982 0.33963 0.0
C832 C 0.12029 0.49015 0.3287 0.0
C833 C 0.07913 0.4918 0.34621 0.0
C834 C 0.08063 0.50448 0.35717 0.0
C835 C 0.06551 0.48098 0.3465 0.0
C836 C 0.06351 0.46708 0.33555 0.0
C837 C 0.07565 0.456 0.33483 0.0
C838 C 0.07369 0.44296 0.32443 0.0
C839 C 0.0596 0.44081 0.31476 0.0
C840 C 0.04741 0.45168 0.3155 0.0
C841 C 0.04931 0.46475 0.32587 0.0
H842 H 0.05811 0.43071 0.30672 0.0
H843 H 0.07553 0.55784 0.4071 0.0
H844 H 0.77435 0.74493 0.85938 0.0
H845 H 0.77334 0.73013 0.88422 0.0
H846 H 0.79817 0.69192 0.86312 0.0
H847 H 0.79877 0.70654 0.83783 0.0
H848 H 0.77322 0.6806 0.88109 0.0
H849 H 0.81885 0.71647 0.88857 0.0
H850 H 0.83453 0.74215 0.88794 0.0
H851 H 0.80282 0.76214 0.92094 0.0
H852 H 0.78679 0.73664 0.92158 0.0
H853 H 0.78336 0.65166 0.96311 0.0
H854 H 0.78947 0.66026 0.93597 0.0
H855 H 0.76142 0.70163 0.94173 0.0
H856 H 0.75511 0.69318 0.96853 0.0
H857 H 0.7932 0.7082 0.93095 0.0
H858 H 0.74579 0.67262 0.92002 0.0
H859 H 0.73065 0.64661 0.92048 0.0
H860 H 0.76742 0.62546 0.8941 0.0
H861 H 0.78289 0.65133 0.89368 0.0
C862 C 0.77941 0.73329 0.85989 0.0
C863 C 0.7866 0.72691 0.84658 0.0
C864 C 0.77898 0.72491 0.87418 0.0
C865 C 0.7859 0.71003 0.8756 0.0
C866 C 0.79285 0.70343 0.8623 0.0
C867 C 0.79328 0.71185 0.84791 0.0
C868 C 0.78579 0.70161 0.89111 0.0
C869 C 0.7779 0.68647 0.89197 0.0
C870 C 0.7919 0.70927 0.90531 0.0
C871 C 0.80155 0.72464 0.90505 0.0
C872 C 0.81515 0.72637 0.89561 0.0
C873 C 0.82411 0.74089 0.89526 0.0
C874 C 0.81966 0.75378 0.90438 0.0
C875 C 0.80625 0.75215 0.91389 0.0
C876 C 0.79723 0.73765 0.91426 0.0
C877 C 0.7784 0.66252 0.95853 0.0
C878 C 0.76876 0.67173 0.96803 0.0
C879 C 0.78189 0.66739 0.94304 0.0
C880 C 0.77593 0.6816 0.93692 0.0
C881 C 0.76618 0.69066 0.94628 0.0
C882 C 0.76254 0.68574 0.9616 0.0
C883 C 0.78009 0.68753 0.92095 0.0
C884 C 0.78882 0.7022 0.92004 0.0
C885 C 0.7749 0.67935 0.90676 0.0
C886 C 0.7656 0.66384 0.90701 0.0
C887 C 0.75073 0.66238 0.91446 0.0
C888 C 0.74207 0.64768 0.91468 0.0
C889 C 0.7481 0.63438 0.90738 0.0
C890 C 0.76279 0.63577 0.89979 0.0
C891 C 0.7715 0.65044 0.89955 0.0
H892 H 0.74138 0.62301 0.90755 0.0
H893 H 0.82661 0.76501 0.90409 0.0
H894 H 0.9873 0.02112 0.41327 0.0
H895 H 0.97136 0.02442 0.38829 0.0
H896 H 0.97768 0.97527 0.3761 0.0
H897 H 0.99371 0.97193 0.4009 0.0
H898 H 0.98501 0.9961 0.35179 0.0
H899 H 0.94196 0.98622 0.38795 0.0
H900 H 0.9267 0.99116 0.41189 0.0
H901 H 0.91794 0.03853 0.39563 0.0
H902 H 0.93336 0.03395 0.37168 0.0
H903 H 0.93366 0.98532 0.2846 0.0
H904 H 0.94499 0.98284 0.31171 0.0
H905 H 0.93203 0.03074 0.3223 0.0
H906 H 0.9201 0.0331 0.2952 0.0
H907 H 0.92816 0.01224 0.34774 0.0
H908 H 0.97065 0.02294 0.31204 0.0
H909 H 0.98642 0.01918 0.28819 0.0
H910 H 0.99721 0.97205 0.30376 0.0
H911 H 0.98131 0.97545 0.3276 0.0
C912 C 0.98525 0.01102 0.40526 0.0
C913 C 0.99174 0.99626 0.40905 0.0
C914 C 0.97605 0.01289 0.39107 0.0
C915 C 0.97327 6e-05 0.3804 0.0
C916 C 0.97965 0.98531 0.38421 0.0
C917 C 0.98871 0.98339 0.39842 0.0
C918 C 0.96438 0.00213 0.36488 0.0
C919 C 0.97251 0.99942 0.3509 0.0
C920 C 0.94827 0.00705 0.36375 0.0
C921 C 0.93896 0.0098 0.37811 0.0
C922 C 0.93691 0.99774 0.38955 0.0
C923 C 0.9282 0.00046 0.4031 0.0
C924 C 0.92139 0.01516 0.4053 0.0
C925 C 0.92324 0.02716 0.39392 0.0
C926 C 0.93195 0.0245 0.38035 0.0
C927 C 0.93304 0.99527 0.29275 0.0
C928 C 0.92617 0.00949 0.2877 0.0
C929 C 0.93959 0.99386 0.30823 0.0
C930 C 0.93978 0.00676 0.31892 0.0
C931 C 0.93213 0.02067 0.31422 0.0
C932 C 0.92532 0.02201 0.29874 0.0
C933 C 0.9487 0.00589 0.33462 0.0
C934 C 0.94065 0.00892 0.34861 0.0
C935 C 0.965 0.00146 0.33582 0.0
C936 C 0.97467 0.99941 0.32154 0.0
C937 C 0.9763 0.01174 0.31033 0.0
C938 C 0.98527 0.00967 0.29682 0.0
C939 C 0.99278 0.99537 0.29445 0.0
C940 C 0.99137 0.98312 0.30561 0.0
C941 C 0.98239 0.98511 0.31913 0.0
H942 H 0.99972 0.99379 0.28398 0.0
H943 H 0.91465 0.01725 0.4158 0.0
H944 H 0.25899 0.25111 0.6609 0.0
H945 H 0.26358 0.23232 0.63948 0.0
H946 H 0.21241 0.2289 0.62739 0.0
H947 H 0.20772 0.24783 0.64871 0.0
H948 H 0.22598 0.19972 0.62588 0.0
H949 H 0.23621 0.25281 0.60627 0.0
H950 H 0.24883 0.28003 0.60679 0.0
H951 H 0.29588 0.26093 0.60517 0.0
H952 H 0.28353 0.23358 0.60489 0.0
H953 H 0.25223 0.19031 0.5379 0.0
H954 H 0.24379 0.20586 0.56035 0.0
H955 H 0.25985 0.16961 0.59286 0.0
H956 H 0.26804 0.15375 0.57035 0.0
H957 H 0.26237 0.21873 0.58376 0.0
H958 H 0.23707 0.17031 0.62622 0.0
H959 H 0.2229 0.14378 0.62464 0.0
H960 H 0.2029 0.15475 0.57815 0.0
H961 H 0.21675 0.18141 0.57954 0.0
C962 C 0.24871 0.24638 0.65368 0.0
C963 C 0.23301 0.2511 0.6564 0.0
C964 C 0.25134 0.23558 0.6415 0.0
C965 C 0.23835 0.22936 0.63174 0.0
C966 C 0.22259 0.23355 0.63481 0.0
C967 C 0.21994 0.24435 0.64701 0.0
C968 C 0.24133 0.21923 0.61779 0.0
C969 C 0.23395 0.20383 0.61668 0.0
C970 C 0.25151 0.22473 0.60565 0.0
C971 C 0.25895 0.24116 0.60571 0.0
C972 C 0.24925 0.25442 0.60614 0.0
C973 C 0.25635 0.26987 0.60638 0.0
C974 C 0.27315 0.27221 0.60605 0.0
C975 C 0.28287 0.2591 0.60545 0.0
C976 C 0.27583 0.24363 0.60524 0.0
C977 C 0.25372 0.18547 0.54978 0.0
C978 C 0.26076 0.17075 0.55232 0.0
C979 C 0.24897 0.19444 0.56262 0.0
C980 C 0.25113 0.18889 0.57828 0.0
C981 C 0.25787 0.17404 0.58086 0.0
C982 C 0.2626 0.16502 0.56799 0.0
C983 C 0.24717 0.1991 0.59188 0.0
C984 C 0.25441 0.21455 0.59296 0.0
C985 C 0.23667 0.19372 0.60381 0.0
C986 C 0.22809 0.17779 0.60293 0.0
C987 C 0.22959 0.16708 0.61569 0.0
C988 C 0.22162 0.15202 0.61482 0.0
C989 C 0.21205 0.14756 0.60128 0.0
C990 C 0.21037 0.15819 0.5886 0.0
C991 C 0.2183 0.17327 0.58942 0.0
H992 H 0.2059 0.13589 0.60063 0.0
H993 H 0.27863 0.28418 0.60623 0.0
H994 H 0.49605 0.50353 0.59381 0.0
H995 H 0.48071 0.50365 0.618 0.0
H996 H 0.43833 0.51692 0.59048 0.0
H997 H 0.45353 0.5166 0.56616 0.0
H998 H 0.44409 0.53575 0.61652 0.0
H999 H 0.44022 0.47977 0.60549 0.0
H1000 H 0.45041 0.45346 0.59933 0.0
H1001 H 0.47894 0.45462 0.64328 0.0
H1002 H 0.4691 0.48106 0.64961 0.0
H1003 H 0.39382 0.53003 0.68285 0.0
H1004 H 0.40461 0.52522 0.65667 0.0
H1005 H 0.44866 0.50936 0.67938 0.0
H1006 H 0.43787 0.51386 0.7055 0.0
H1007 H 0.43984 0.49079 0.65457 0.0
H1008 H 0.44601 0.54738 0.66445 0.0
H1009 H 0.43669 0.57403 0.67074 0.0
H1010 H 0.40474 0.57198 0.62906 0.0
H1011 H 0.41372 0.54521 0.62263 0.0
C1012 C 0.48338 0.50617 0.59283 0.0
C1013 C 0.47603 0.51007 0.57803 0.0
C1014 C 0.47463 0.50627 0.60669 0.0
C1015 C 0.45834 0.5102 0.60602 0.0
C1016 C 0.4509 0.51389 0.59126 0.0
C1017 C 0.45963 0.51376 0.57739 0.0
C1018 C 0.44935 0.51124 0.62086 0.0
C1019 C 0.44289 0.52583 0.6247 0.0
C1020 C 0.44812 0.4984 0.6317 0.0
C1021 C 0.45402 0.48246 0.62796 0.0
C1022 C 0.44877 0.47448 0.61379 0.0
C1023 C 0.45446 0.45953 0.61027 0.0
C1024 C 0.46534 0.45239 0.62089 0.0
C1025 C 0.47052 0.46017 0.63506 0.0
C1026 C 0.46487 0.47513 0.63863 0.0
C1027 C 0.40576 0.52541 0.68225 0.0
C1028 C 0.415 0.52236 0.69625 0.0
C1029 C 0.41193 0.52271 0.66729 0.0
C1030 C 0.42754 0.51712 0.66606 0.0
C1031 C 0.43659 0.51366 0.68003 0.0
C1032 C 0.4304 0.51626 0.69497 0.0
C1033 C 0.43474 0.51536 0.6503 0.0
C1034 C 0.44089 0.50065 0.6463 0.0
C1035 C 0.43578 0.52812 0.63934 0.0
C1036 C 0.4304 0.54422 0.64316 0.0
C1037 C 0.4369 0.55256 0.6567 0.0
C1038 C 0.4317 0.56769 0.66027 0.0
C1039 C 0.42009 0.57467 0.65033 0.0
C1040 C 0.4137 0.56654 0.63676 0.0
C1041 C 0.41885 0.5514 0.63314 0.0
H1042 H 0.41608 0.58639 0.65312 0.0
H1043 H 0.46973 0.44081 0.61814 0.0
H1044 H 0.80019 0.25068 0.64017 0.0
H1045 H 0.79463 0.26809 0.61747 0.0
H1046 H 0.79605 0.30877 0.64904 0.0
H1047 H 0.80147 0.29137 0.67186 0.0
H1048 H 0.76911 0.30711 0.62844 0.0
H1049 H 0.82639 0.30477 0.62514 0.0
H1050 H 0.85234 0.2917 0.62423 0.0
H1051 H 0.83584 0.26724 0.58115 0.0
H1052 H 0.80969 0.27999 0.58192 0.0
H1053 H 0.75828 0.35933 0.56306 0.0
H1054 H 0.77044 0.34749 0.58705 0.0
H1055 H 0.77642 0.30394 0.56104 0.0
H1056 H 0.76472 0.31582 0.53699 0.0
H1057 H 0.80181 0.30994 0.5803 0.0
H1058 H 0.74391 0.30889 0.58522 0.0
H1059 H 0.71722 0.32058 0.58602 0.0
H1060 H 0.73413 0.34992 0.62586 0.0
H1061 H 0.76099 0.33853 0.62516 0.0
C1062 C 0.79935 0.26334 0.64226 0.0
C1063 C 0.80123 0.26968 0.65777 0.0
C1064 C 0.7963 0.27328 0.62929 0.0
C1065 C 0.79507 0.28973 0.63158 0.0
C1066 C 0.79704 0.29612 0.64703 0.0
C1067 C 0.80022 0.28619 0.66002 0.0
C1068 C 0.7909 0.30005 0.61789 0.0
C1069 C 0.77642 0.30802 0.61803 0.0
C1070 C 0.80027 0.3009 0.60421 0.0
C1071 C 0.81602 0.29326 0.60366 0.0
C1072 C 0.82824 0.29651 0.61554 0.0
C1073 C 0.843 0.28917 0.61503 0.0
C1074 C 0.84572 0.27862 0.60266 0.0
C1075 C 0.83371 0.27541 0.59073 0.0
C1076 C 0.81892 0.28271 0.59119 0.0
C1077 C 0.76235 0.34729 0.56243 0.0
C1078 C 0.76047 0.33848 0.54817 0.0
C1079 C 0.76924 0.34052 0.57616 0.0
C1080 C 0.7741 0.32473 0.57591 0.0
C1081 C 0.77277 0.31614 0.56152 0.0
C1082 C 0.76604 0.32295 0.54778 0.0
C1083 C 0.77986 0.31679 0.59073 0.0
C1084 C 0.79462 0.30925 0.5908 0.0
C1085 C 0.77065 0.31617 0.60456 0.0
C1086 C 0.75451 0.323 0.60501 0.0
C1087 C 0.74197 0.31792 0.59407 0.0
C1088 C 0.72681 0.32448 0.59452 0.0
C1089 C 0.724 0.33602 0.60595 0.0
C1090 C 0.73633 0.341 0.61699 0.0
C1091 C 0.75152 0.3345 0.61658 0.0
H1092 H 0.71225 0.34108 0.60628 0.0
H1093 H 0.85716 0.27295 0.60229 0.0
H1094 H 0.55341 0.98944 0.60428 0.0
H1095 H 0.57176 0.99249 0.62773 0.0
H1096 H 0.53104 0.99152 0.6581 0.0
H1097 H 0.51253 0.98848 0.63459 0.0
H1098 H 0.5536 0.0141 0.66783 0.0
H1099 H 0.55303 0.95884 0.65473 0.0
H1100 H 0.55482 0.93529 0.63742 0.0
H1101 H 0.60396 0.94943 0.62795 0.0
H1102 H 0.6024 0.9732 0.64503 0.0
H1103 H 0.60546 0.00214 0.73758 0.0
H1104 H 0.58393 0.99909 0.7167 0.0
H1105 H 0.61961 0.00112 0.68076 0.0
H1106 H 0.64113 0.00405 0.7014 0.0
H1107 H 0.59758 0.97649 0.67569 0.0
H1108 H 0.59706 0.03282 0.68779 0.0
H1109 H 0.59492 0.05605 0.70546 0.0
H1110 H 0.54729 0.03909 0.71756 0.0
H1111 H 0.54924 0.01564 0.70011 0.0
C1112 C 0.54834 0.98978 0.61595 0.0
C1113 C 0.53151 0.98855 0.61758 0.0
C1114 C 0.55885 0.99155 0.62935 0.0
C1115 C 0.55279 0.99196 0.6447 0.0
C1116 C 0.53599 0.99118 0.64637 0.0
C1117 C 0.52543 0.98948 0.63293 0.0
C1118 C 0.5641 0.99305 0.65892 0.0
C1119 C 0.56305 0.00572 0.6697 0.0
C1120 C 0.57653 0.9822 0.6613 0.0
C1121 C 0.57755 0.96788 0.65106 0.0
C1122 C 0.56418 0.95699 0.64887 0.0
C1123 C 0.56516 0.9436 0.63911 0.0
C1124 C 0.57948 0.94089 0.63156 0.0
C1125 C 0.59287 0.95155 0.63379 0.0
C1126 C 0.59195 0.96498 0.64352 0.0
C1127 C 0.60873 0.00201 0.72523 0.0
C1128 C 0.62506 0.00333 0.7212 0.0
C1129 C 0.5964 0.00031 0.71331 0.0
C1130 C 0.60017 -6e-05 0.69717 0.0
C1131 C 0.61643 0.00134 0.69314 0.0
C1132 C 0.62872 0.00307 0.70499 0.0
C1133 C 0.58733 0.99775 0.68437 0.0
C1134 C 0.58805 0.98479 0.67388 0.0
C1135 C 0.57457 0.00827 0.68235 0.0
C1136 C 0.57337 0.02239 0.69279 0.0
C1137 C 0.58618 0.03398 0.69432 0.0
C1138 C 0.58499 0.0472 0.70428 0.0
C1139 C 0.57099 0.04902 0.71267 0.0
C1140 C 0.55814 0.03765 0.71108 0.0
C1141 C 0.55927 0.0244 0.70115 0.0
H1142 H 0.5701 0.05926 0.72037 0.0
H1143 H 0.58022 0.93051 0.62401 0.0
H1144 H 0.86738 0.22759 0.8001 0.0
H1145 H 0.89034 0.23253 0.81895 0.0
H1146 H 0.92149 0.24237 0.77993 0.0
H1147 H 0.89862 0.23692 0.76092 0.0
H1148 H 0.93572 0.22367 0.80197 0.0
H1149 H 0.90901 0.27267 0.80204 0.0
H1150 H 0.88599 0.29003 0.80373 0.0
H1151 H 0.87855 0.27425 0.85158 0.0
H1152 H 0.90139 0.25661 0.8501 0.0
H1153 H 0.99973 0.25439 0.85533 0.0
H1154 H 0.97893 0.25264 0.83368 0.0
H1155 H 0.94275 0.24022 0.86754 0.0
H1156 H 0.96331 0.24201 0.88919 0.0
H1157 H 0.93253 0.26246 0.84626 0.0
H1158 H 0.95795 0.21187 0.84504 0.0
H1159 H 0.98101 0.19457 0.84319 0.0
H1160 H 0.99106 0.21388 0.79715 0.0
H1161 H 0.96817 0.23146 0.79883 0.0
C1162 C 0.87914 0.23065 0.7955 0.0
C1163 C 0.88116 0.23187 0.779 0.0
C1164 C 0.89222 0.23364 0.8063 0.0
C1165 C 0.90758 0.23804 0.80085 0.0
C1166 C 0.90972 0.23908 0.78439 0.0
C1167 C 0.89662 0.23608 0.77356 0.0
C1168 C 0.92139 0.24137 0.8124 0.0
C1169 C 0.93515 0.23236 0.81148 0.0
C1170 C 0.92056 0.25257 0.82493 0.0
C1171 C 0.90685 0.26322 0.82591 0.0
C1172 C 0.9024 0.27281 0.81288 0.0
C1173 C 0.88939 0.28272 0.81381 0.0
C1174 C 0.8808 0.28322 0.82774 0.0
C1175 C 0.88521 0.27384 0.84079 0.0
C1176 C 0.8982 0.2639 0.83992 0.0
C1177 C 0.98734 0.25134 0.85818 0.0
C1178 C 0.98322 0.24828 0.87401 0.0
C1179 C 0.97549 0.2503 0.84578 0.0
C1180 C 0.95933 0.24619 0.84901 0.0
C1181 C 0.95515 0.24342 0.8648 0.0
C1182 C 0.96696 0.24439 0.87716 0.0
C1183 C 0.94669 0.24455 0.83599 0.0
C1184 C 0.93316 0.2539 0.83663 0.0
C1185 C 0.94776 0.23372 0.82319 0.0
C1186 C 0.96148 0.22311 0.82215 0.0
C1187 C 0.96516 0.21252 0.83459 0.0
C1188 C 0.97819 0.20265 0.83356 0.0
C1189 C 0.98753 0.20316 0.82009 0.0
C1190 C 0.98383 0.21352 0.80759 0.0
C1191 C 0.97083 0.22343 0.80857 0.0
H1192 H 0.9976 0.1955 0.81931 0.0
H1193 H 0.87073 0.2909 0.82843 0.0
H1194 H 0.46981 0.90229 0.4969 0.0
H1195 H 0.47425 0.8788 0.48071 0.0
H1196 H 0.52258 0.89713 0.47203 0.0
H1197 H 0.51819 0.9208 0.48821 0.0
H1198 H 0.50493 0.8836 0.44435 0.0
H1199 H 0.51958 0.87035 0.4986 0.0
H1200 H 0.51537 0.86814 0.52742 0.0
H1201 H 0.47355 0.83679 0.51793 0.0
H1202 H 0.47737 0.83901 0.48902 0.0
H1203 H 0.533 0.80911 0.41734 0.0
H1204 H 0.52945 0.83498 0.42984 0.0
H1205 H 0.4847 0.81676 0.44893 0.0
H1206 H 0.48845 0.79081 0.43696 0.0
H1207 H 0.50212 0.83108 0.4713 0.0
H1208 H 0.48657 0.84435 0.41734 0.0
H1209 H 0.48983 0.84676 0.38838 0.0
H1210 H 0.53199 0.87791 0.3968 0.0
H1211 H 0.52911 0.87553 0.42583 0.0
C1212 C 0.48131 0.90143 0.49137 0.0
C1213 C 0.49367 0.91336 0.49384 0.0
C1214 C 0.48385 0.88798 0.4822 0.0
C1215 C 0.49877 0.88622 0.47527 0.0
C1216 C 0.51099 0.8983 0.47729 0.0
C1217 C 0.5085 0.91172 0.48661 0.0
C1218 C 0.50176 0.87137 0.46658 0.0
C1219 C 0.50454 0.8721 0.45023 0.0
C1220 C 0.50093 0.85641 0.47425 0.0
C1221 C 0.49867 0.85497 0.49164 0.0
C1222 C 0.50941 0.86309 0.50265 0.0
C1223 C 0.50711 0.86182 0.51901 0.0
C1224 C 0.49418 0.85236 0.5245 0.0
C1225 C 0.48355 0.84412 0.51365 0.0
C1226 C 0.48578 0.84538 0.49728 0.0
C1227 C 0.52231 0.81069 0.42404 0.0
C1228 C 0.51106 0.79788 0.42624 0.0
C1229 C 0.52026 0.82551 0.43114 0.0
C1230 C 0.50676 0.82787 0.44029 0.0
C1231 C 0.49527 0.81522 0.44202 0.0
C1232 C 0.49741 0.80039 0.43514 0.0
C1233 C 0.50498 0.84314 0.44888 0.0
C1234 C 0.50252 0.84252 0.46531 0.0
C1235 C 0.50598 0.85815 0.44121 0.0
C1236 C 0.50772 0.85962 0.42376 0.0
C1237 C 0.49661 0.85162 0.41302 0.0
C1238 C 0.49838 0.853 0.39659 0.0
C1239 C 0.51114 0.86245 0.39075 0.0
C1240 C 0.52213 0.87058 0.40134 0.0
C1241 C 0.52043 0.86923 0.41778 0.0
H1242 H 0.51248 0.8635 0.37803 0.0
H1243 H 0.49242 0.85138 0.53717 0.0
H1244 H 0.13625 0.28959 0.74717 0.0
H1245 H 0.11454 0.2853 0.76563 0.0
H1246 H 0.14072 0.31581 0.80029 0.0
H1247 H 0.1629 0.31944 0.78225 0.0
H1248 H 0.13011 0.28995 0.81408 0.0
H1249 H 0.10609 0.32756 0.77882 0.0
H1250 H 0.09709 0.33864 0.75294 0.0
H1251 H 0.06521 0.29741 0.74417 0.0
H1252 H 0.07418 0.28598 0.76991 0.0
H1253 H 0.0666 0.29109 0.8673 0.0
H1254 H 0.08539 0.30088 0.84748 0.0
H1255 H 0.06454 0.26637 0.81346 0.0
H1256 H 0.04563 0.25652 0.83317 0.0
H1257 H 0.07201 0.29589 0.79967 0.0
H1258 H 0.09768 0.25779 0.83414 0.0
H1259 H 0.1067 0.24684 0.86008 0.0
H1260 H 0.13564 0.28976 0.87029 0.0
H1261 H 0.1266 0.30105 0.84448 0.0
C1262 C 0.13745 0.29533 0.75875 0.0
C1263 C 0.15139 0.30483 0.76321 0.0
C1264 C 0.1249 0.29304 0.76922 0.0
C1265 C 0.12587 0.30039 0.7843 0.0
C1266 C 0.13965 0.31006 0.7887 0.0
C1267 C 0.15227 0.31225 0.77829 0.0
C1268 C 0.11298 0.29727 0.79582 0.0
C1269 C 0.11745 0.29156 0.811 0.0
C1270 C 0.09638 0.29899 0.79171 0.0
C1271 C 0.09092 0.30585 0.77624 0.0
C1272 C 0.09725 0.3208 0.77132 0.0
C1273 C 0.09214 0.32715 0.75668 0.0
C1274 C 0.08061 0.31872 0.7469 0.0
C1275 C 0.07415 0.30392 0.75175 0.0
C1276 C 0.07923 0.29751 0.76637 0.0
C1277 C 0.06583 0.28572 0.85553 0.0
C1278 C 0.05473 0.27289 0.85187 0.0
C1279 C 0.07661 0.29132 0.84424 0.0
C1280 C 0.0765 0.28419 0.82909 0.0
C1281 C 0.06485 0.272 0.8251 0.0
C1282 C 0.05409 0.26635 0.83641 0.0
C1283 C 0.08924 0.28865 0.81783 0.0
C1284 C 0.08472 0.2945 0.80273 0.0
C1285 C 0.10582 0.28713 0.82199 0.0
C1286 C 0.11132 0.28033 0.83747 0.0
C1287 C 0.10586 0.26494 0.84198 0.0
C1288 C 0.111 0.25867 0.85664 0.0
C1289 C 0.1217 0.26762 0.86684 0.0
C1290 C 0.12733 0.28285 0.86238 0.0
C1291 C 0.12221 0.28919 0.84774 0.0
H1292 H 0.12567 0.26274 0.87819 0.0
H1293 H 0.07667 0.32365 0.73557 0.0
H1294 H 0.54304 0.5831 0.4507 0.0
H1295 H 0.54421 0.60842 0.43667 0.0
H1296 H 0.49699 0.61853 0.45268 0.0
H1297 H 0.49516 0.59264 0.46579 0.0
H1298 H 0.49983 0.62944 0.42379 0.0
H1299 H 0.53258 0.63342 0.4723 0.0
H1300 H 0.55392 0.6259 0.49184 0.0
H1301 H 0.58978 0.63408 0.45696 0.0
H1302 H 0.5686 0.64145 0.43713 0.0
H1303 H 0.50943 0.71492 0.42497 0.0
H1304 H 0.50641 0.68688 0.43251 0.0
H1305 H 0.54672 0.67616 0.4042 0.0
H1306 H 0.54961 0.70417 0.39629 0.0
H1307 H 0.54773 0.66538 0.43769 0.0
H1308 H 0.51369 0.66358 0.38982 0.0
H1309 H 0.49167 0.67259 0.37187 0.0
H1310 H 0.45732 0.66189 0.40766 0.0
H1311 H 0.47921 0.65305 0.42594 0.0
C1312 C 0.53268 0.59046 0.45092 0.0
C1313 C 0.51906 0.58582 0.45957 0.0
C1314 C 0.53348 0.60508 0.44305 0.0
C1315 C 0.52087 0.61557 0.44395 0.0
C1316 C 0.50694 0.6107 0.45193 0.0
C1317 C 0.50601 0.59595 0.4596 0.0
C1318 C 0.52255 0.63192 0.43733 0.0
C1319 C 0.51025 0.63732 0.42694 0.0
C1320 C 0.53622 0.6422 0.44128 0.0
C1321 C 0.54899 0.63781 0.45319 0.0
C1322 C 0.545 0.6335 0.46876 0.0
C1323 C 0.55707 0.62928 0.47989 0.0
C1324 C 0.57319 0.62947 0.47563 0.0
C1325 C 0.57728 0.63392 0.46023 0.0
C1326 C 0.56526 0.63812 0.44905 0.0
C1327 C 0.5176 0.70663 0.42026 0.0
C1328 C 0.52978 0.71179 0.41006 0.0
C1329 C 0.5158 0.6906 0.42453 0.0
C1330 C 0.52631 0.67952 0.41885 0.0
C1331 C 0.53847 0.68458 0.40865 0.0
C1332 C 0.54007 0.70055 0.40413 0.0
C1333 C 0.52507 0.6628 0.42422 0.0
C1334 C 0.53742 0.65739 0.43444 0.0
C1335 C 0.51134 0.65267 0.42033 0.0
C1336 C 0.49812 0.6578 0.40931 0.0
C1337 C 0.50147 0.66328 0.39392 0.0
C1338 C 0.489 0.66833 0.38367 0.0
C1339 C 0.47311 0.66786 0.38864 0.0
C1340 C 0.46965 0.66227 0.40384 0.0
C1341 C 0.48208 0.65723 0.41414 0.0
H1342 H 0.46348 0.67179 0.38069 0.0
H1343 H 0.58252 0.6262 0.48426 0.0
H1344 H 0.87726 0.77019 0.74568 0.0
H1345 H 0.8989 0.76935 0.72683 0.0
H1346 H 0.86799 0.78997 0.69056 0.0
H1347 H 0.84611 0.79016 0.70905 0.0
H1348 H 0.8824 0.76581 0.67875 0.0
H1349 H 0.89962 0.81179 0.71029 0.0
H1350 H 0.90703 0.82673 0.73506 0.0
H1351 H 0.94583 0.79572 0.7452 0.0
H1352 H 0.93852 0.78045 0.72058 0.0
H1353 H 0.93944 0.78451 0.62173 0.0
H1354 H 0.92069 0.7885 0.64284 0.0
H1355 H 0.95135 0.76316 0.67581 0.0
H1356 H 0.97032 0.75917 0.65474 0.0
H1357 H 0.93783 0.78944 0.6898 0.0
H1358 H 0.92022 0.74348 0.6582 0.0
H1359 H 0.91281 0.72885 0.63324 0.0
H1360 H 0.87446 0.76042 0.62318 0.0
H1361 H 0.88179 0.77537 0.64799 0.0
C1362 C 0.87503 0.77445 0.73366 0.0
C1363 C 0.85992 0.78027 0.72891 0.0
C1364 C 0.88749 0.77415 0.72295 0.0
C1365 C 0.88515 0.77979 0.70732 0.0
C1366 C 0.87011 0.78562 0.70257 0.0
C1367 C 0.85765 0.78585 0.71322 0.0
C1368 C 0.8981 0.77907 0.69567 0.0
C1369 C 0.89444 0.77119 0.68111 0.0
C1370 C 0.91397 0.7857 0.69888 0.0
C1371 C 0.91841 0.79488 0.71367 0.0
C1372 C 0.90965 0.80808 0.71786 0.0
C1373 C 0.91385 0.81662 0.73187 0.0
C1374 C 0.92686 0.81215 0.74172 0.0
C1375 C 0.93574 0.79916 0.73757 0.0
C1376 C 0.93158 0.79056 0.72359 0.0
C1377 C 0.94236 0.77997 0.63352 0.0
C1378 C 0.95629 0.77134 0.63649 0.0
C1379 C 0.93159 0.78224 0.64557 0.0
C1380 C 0.9345 0.77588 0.66081 0.0
C1381 C 0.94886 0.7681 0.6641 0.0
C1382 C 0.95966 0.76581 0.65203 0.0
C1383 C 0.92198 0.7764 0.67288 0.0
C1384 C 0.92575 0.78413 0.68749 0.0
C1385 C 0.90616 0.76968 0.66974 0.0
C1386 C 0.90166 0.76063 0.65487 0.0
C1387 C 0.91028 0.74737 0.65061 0.0
C1388 C 0.90609 0.73901 0.6365 0.0
C1389 C 0.8932 0.74373 0.62661 0.0
C1390 C 0.88445 0.75679 0.63084 0.0
C1391 C 0.88862 0.7652 0.64493 0.0
H1392 H 0.88997 0.73724 0.61569 0.0
H1393 H 0.9301 0.81879 0.75255 0.0
H1394 H 0.05708 0.90608 0.5201 0.0
H1395 H 0.05293 0.88082 0.53413 0.0
H1396 H 0.00503 0.89371 0.54562 0.0
H1397 H 0.00918 0.91916 0.53173 0.0
H1398 H 0.02234 0.87929 0.57127 0.0
H1399 H 0.00813 0.86975 0.51573 0.0
H1400 H 0.01269 0.87055 0.48691 0.0
H1401 H 0.05415 0.84224 0.49406 0.0
H1402 H 0.04997 0.84147 0.52297 0.0
H1403 H 0.99131 0.80071 0.58987 0.0
H1404 H 0.99626 0.82794 0.58029 0.0
H1405 H 0.04079 0.8143 0.56048 0.0
H1406 H 0.03564 0.78703 0.56951 0.0
H1407 H 0.0246 0.82973 0.53934 0.0
H1408 H 0.03928 0.83884 0.59461 0.0
H1409 H 0.03553 0.83825 0.62359 0.0
H1410 H 0.99446 0.86724 0.61748 0.0
H1411 H 0.99783 0.86783 0.58843 0.0
C1412 C 0.04575 0.90366 0.52582 0.0
C1413 C 0.03342 0.91457 0.52476 0.0
C1414 C 0.04337 0.88919 0.53375 0.0
C1415 C 0.02863 0.88537 0.54079 0.0
C1416 C 0.01649 0.89645 0.54024 0.0
C1417 C 0.01882 0.9109 0.53221 0.0
C1418 C 0.02564 0.86946 0.54801 0.0
C1419 C 0.02264 0.86842 0.5643 0.0
C1420 C 0.02636 0.85534 0.53893 0.0
C1421 C 0.02883 0.85569 0.52153 0.0
C1422 C 0.01829 0.8638 0.51117 0.0
C1423 C 0.0208 0.86423 0.49482 0.0
C1424 C 0.03372 0.85648 0.48866 0.0
C1425 C 0.04415 0.84825 0.49885 0.0
C1426 C 0.04171 0.84781 0.51522 0.0
C1427 C 0.00226 0.80358 0.58365 0.0
C1428 C 0.01304 0.79169 0.58036 0.0
C1429 C 0.00511 0.81918 0.57823 0.0
C1430 C 0.01896 0.82323 0.56971 0.0
C1431 C 0.02998 0.81147 0.56693 0.0
C1432 C 0.02703 0.79587 0.57213 0.0
C1433 C 0.02152 0.8394 0.56277 0.0
C1434 C 0.02435 0.84053 0.54643 0.0
C1435 C 0.02076 0.85356 0.57186 0.0
C1436 C 0.01871 0.85324 0.58933 0.0
C1437 C 0.02937 0.84499 0.59943 0.0
C1438 C 0.02733 0.84467 0.61587 0.0
C1439 C 0.01474 0.85267 0.62237 0.0
C1440 C 0.00419 0.86104 0.61243 0.0
C1441 C 0.00617 0.86138 0.59598 0.0
H1442 H 0.01318 0.85241 0.6351 0.0
H1443 H 0.03564 0.85683 0.47599 0.0
H1444 H 0.12316 0.72355 0.73771 0.0
H1445 H 0.10098 0.72736 0.71816 0.0
H1446 H 0.13258 0.71817 0.68003 0.0
H1447 H 0.15498 0.71487 0.6995 0.0
H1448 H 0.11534 0.74381 0.67376 0.0
H1449 H 0.10401 0.69016 0.69137 0.0
H1450 H 0.09912 0.66897 0.71111 0.0
H1451 H 0.05765 0.69245 0.72666 0.0
H1452 H 0.06243 0.71391 0.70714 0.0
H1453 H 0.05799 0.73088 0.61008 0.0
H1454 H 0.07889 0.72762 0.63095 0.0
H1455 H 0.0452 0.73854 0.66669 0.0
H1456 H 0.02402 0.74171 0.64581 0.0
H1457 H 0.06282 0.7129 0.67498 0.0
H1458 H 0.07364 0.76612 0.65682 0.0
H1459 H 0.07846 0.78725 0.637 0.0
H1460 H 0.12085 0.76462 0.62252 0.0
H1461 H 0.11616 0.74322 0.64211 0.0
C1462 C 0.12542 0.72242 0.72516 0.0
C1463 C 0.14086 0.71891 0.72017 0.0
C1464 C 0.11269 0.72445 0.714 0.0
C1465 C 0.11508 0.72291 0.69763 0.0
C1466 C 0.13045 0.71938 0.69261 0.0
C1467 C 0.1432 0.71735 0.70376 0.0
C1468 C 0.10167 0.72531 0.68571 0.0
C1469 C 0.10393 0.7369 0.6739 0.0
C1470 C 0.0866 0.71663 0.68619 0.0
C1471 C 0.08368 0.70372 0.6979 0.0
C1472 C 0.09393 0.69087 0.69908 0.0
C1473 C 0.09116 0.6788 0.71022 0.0
C1474 C 0.07811 0.67939 0.72016 0.0
C1475 C 0.06777 0.69203 0.71896 0.0
C1476 C 0.0705 0.70414 0.70786 0.0
C1477 C 0.05496 0.73262 0.62236 0.0
C1478 C 0.0393 0.73663 0.62623 0.0
C1479 C 0.06697 0.7308 0.63429 0.0
C1480 C 0.06366 0.73303 0.65036 0.0
C1481 C 0.04801 0.73681 0.65434 0.0
C1482 C 0.03595 0.73867 0.64239 0.0
C1483 C 0.07658 0.73128 0.66294 0.0
C1484 C 0.07421 0.71983 0.67488 0.0
C1485 C 0.09156 0.7401 0.6626 0.0
C1486 C 0.09446 0.75299 0.65084 0.0
C1487 C 0.08392 0.76558 0.64933 0.0
C1488 C 0.08664 0.77762 0.63815 0.0
C1489 C 0.09993 0.77726 0.62848 0.0
C1490 C 0.11055 0.76488 0.63001 0.0
C1491 C 0.10788 0.7528 0.64116 0.0
H1492 H 0.10202 0.78659 0.61983 0.0
H1493 H 0.07598 0.67003 0.72877 0.0
H1494 H 0.97253 0.57485 0.53777 0.0
H1495 H 0.97616 0.59898 0.55418 0.0
H1496 H 0.99472 0.62493 0.51407 0.0
H1497 H 0.991 0.60092 0.49756 0.0
H1498 H 0.01226 0.63227 0.54164 0.0
H1499 H 0.95601 0.62803 0.52388 0.0
H1500 H 0.92894 0.6146 0.52043 0.0
H1501 H 0.92597 0.61078 0.57123 0.0
H1502 H 0.95314 0.624 0.57496 0.0
H1503 H 0.0001 0.71227 0.5629 0.0
H1504 H 0.00051 0.68599 0.55052 0.0
H1505 H 0.97972 0.6646 0.59208 0.0
H1506 H 0.97904 0.69094 0.60447 0.0
H1507 H 0.96417 0.65376 0.56576 0.0
H1508 H 0.01951 0.65995 0.58376 0.0
H1509 H 0.04649 0.67353 0.58728 0.0
H1510 H 0.05139 0.67369 0.53658 0.0
H1511 H 0.02432 0.66032 0.53273 0.0
C1512 C 0.97734 0.58571 0.53243 0.0
C1513 C 0.98137 0.58599 0.51632 0.0
C1514 C 0.97946 0.59946 0.54184 0.0
C1515 C 0.98556 0.61378 0.53529 0.0
C1516 C 0.99004 0.61399 0.51937 0.0
C1517 C 0.98793 0.60024 0.50996 0.0
C1518 C 0.9867 0.62871 0.54483 0.0
C1519 C 0.00174 0.63706 0.54682 0.0
C1520 C 0.97303 0.63471 0.55192 0.0
C1521 C 0.95667 0.62684 0.54969 0.0
C1522 C 0.94963 0.62421 0.53431 0.0
C1523 C 0.93427 0.61666 0.5323 0.0
C1524 C 0.92576 0.6118 0.5456 0.0
C1525 C 0.93259 0.61453 0.56094 0.0
C1526 C 0.94796 0.62205 0.563 0.0
C1527 C 0.99582 0.70197 0.56951 0.0
C1528 C 0.98958 0.70369 0.58469 0.0
C1529 C 0.9961 0.68693 0.56243 0.0
C1530 C 0.99031 0.67329 0.57044 0.0
C1531 C 0.98428 0.67495 0.58569 0.0
C1532 C 0.98393 0.69001 0.59277 0.0
C1533 C 0.98973 0.65745 0.5625 0.0
C1534 C 0.97476 0.64892 0.56077 0.0
C1535 C 0.00348 0.65128 0.55569 0.0
C1536 C 0.01982 0.65924 0.55795 0.0
C1537 C 0.02629 0.66299 0.57335 0.0
C1538 C 0.04161 0.67063 0.57541 0.0
C1539 C 0.05063 0.6745 0.56216 0.0
C1540 C 0.04437 0.6707 0.54683 0.0
C1541 C 0.02905 0.66307 0.5447 0.0
H1542 H 0.06249 0.68042 0.56378 0.0
H1543 H 0.91386 0.60595 0.54403 0.0
H1544 H 0.78223 0.87796 0.24308 0.0
H1545 H 0.80229 0.90025 0.24532 0.0
H1546 H 0.79221 0.91212 0.19602 0.0
H1547 H 0.7723 0.88962 0.19366 0.0
H1548 H 0.82324 0.91381 0.20186 0.0
H1549 H 0.7783 0.93448 0.22699 0.0
H1550 H 0.75607 0.93483 0.24557 0.0
H1551 H 0.79028 0.93367 0.2854 0.0
H1552 H 0.81271 0.93308 0.26705 0.0
H1553 H 0.85729 0.99731 0.23334 0.0
H1554 H 0.83466 0.97771 0.22918 0.0
H1555 H 0.8681 0.93992 0.22887 0.0
H1556 H 0.89074 0.95939 0.23262 0.0
H1557 H 0.82337 0.95352 0.24573 0.0
H1558 H 0.85478 0.91079 0.20356 0.0
H1559 H 0.87534 0.91228 0.18315 0.0
H1560 H 0.86498 0.96108 0.17389 0.0
H1561 H 0.8442 0.95981 0.19407 0.0
C1562 C 0.7842 0.88541 0.23276 0.0
C1563 C 0.77565 0.8821 0.21821 0.0
C1564 C 0.79565 0.89816 0.23406 0.0
C1565 C 0.79861 0.90803 0.22091 0.0
C1566 C 0.79014 0.90468 0.20633 0.0
C1567 C 0.77879 0.89182 0.20499 0.0
C1568 C 0.81081 0.92158 0.22229 0.0
C1569 C 0.82323 0.92251 0.21143 0.0
C1570 C 0.81062 0.93318 0.23454 0.0
C1571 C 0.79718 0.93361 0.24564 0.0
C1572 C 0.78108 0.93419 0.23971 0.0
C1573 C 0.76844 0.93445 0.2502 0.0
C1574 C 0.77176 0.93424 0.26665 0.0
C1575 C 0.78773 0.93381 0.27265 0.0
C1576 C 0.80041 0.93354 0.26221 0.0
C1577 C 0.85983 0.98483 0.2324 0.0
C1578 C 0.87585 0.97995 0.23319 0.0
C1579 C 0.84688 0.97363 0.23004 0.0
C1580 C 0.84969 0.95736 0.22845 0.0
C1581 C 0.86564 0.95243 0.22969 0.0
C1582 C 0.87858 0.9636 0.23191 0.0
C1583 C 0.836 0.94548 0.22554 0.0
C1584 C 0.82332 0.94486 0.23611 0.0
C1585 C 0.8357 0.93442 0.21275 0.0
C1586 C 0.84803 0.93523 0.20043 0.0
C1587 C 0.85683 0.92181 0.19711 0.0
C1588 C 0.86854 0.92262 0.1856 0.0
C1589 C 0.8715 0.93678 0.17727 0.0
C1590 C 0.86272 0.95014 0.18039 0.0
C1591 C 0.85099 0.94939 0.19188 0.0
H1592 H 0.88058 0.93739 0.16837 0.0
H1593 H 0.76196 0.93444 0.27476 0.0
H1594 H 0.74925 0.13144 0.26168 0.0
H1595 H 0.7703 0.11214 0.25942 0.0
H1596 H 0.80692 0.14911 0.27103 0.0
H1597 H 0.78604 0.16848 0.27291 0.0
H1598 H 0.81518 0.13124 0.24631 0.0
H1599 H 0.79521 0.12186 0.29871 0.0
H1600 H 0.77432 0.11562 0.31811 0.0
H1601 H 0.76278 0.07062 0.29494 0.0
H1602 H 0.78346 0.07669 0.27525 0.0
H1603 H 0.88317 0.08745 0.2651 0.0
H1604 H 0.86026 0.1043 0.26776 0.0
H1605 H 0.82728 0.06432 0.25579 0.0
H1606 H 0.8502 0.04725 0.25329 0.0
H1607 H 0.81605 0.08246 0.27952 0.0
H1608 H 0.83654 0.09131 0.2277 0.0
H1609 H 0.85737 0.09743 0.20821 0.0
H1610 H 0.86767 0.14333 0.22995 0.0
H1611 H 0.84705 0.1374 0.24973 0.0
C1612 C 0.7618 0.13547 0.26361 0.0
C1613 C 0.76597 0.15148 0.26756 0.0
C1614 C 0.7738 0.1244 0.26246 0.0
C1615 C 0.79017 0.12915 0.26524 0.0
C1616 C 0.79436 0.14517 0.2689 0.0
C1617 C 0.7824 0.1562 0.27009 0.0
C1618 C 0.80304 0.11753 0.26426 0.0
C1619 C 0.81546 0.12067 0.25369 0.0
C1620 C 0.80316 0.10348 0.27356 0.0
C1621 C 0.79075 0.0998 0.28541 0.0
C1622 C 0.78812 0.11069 0.29767 0.0
C1623 C 0.77634 0.10718 0.30873 0.0
C1624 C 0.7672 0.09275 0.30773 0.0
C1625 C 0.76985 0.0818 0.29568 0.0
C1626 C 0.78161 0.08526 0.28458 0.0
C1627 C 0.87105 0.08216 0.26317 0.0
C1628 C 0.86853 0.06603 0.25883 0.0
C1629 C 0.85796 0.09184 0.26464 0.0
C1630 C 0.84207 0.08564 0.26167 0.0
C1631 C 0.83945 0.06937 0.25805 0.0
C1632 C 0.85256 0.05964 0.25661 0.0
C1633 C 0.82832 0.09634 0.26176 0.0
C1634 C 0.81573 0.093 0.27209 0.0
C1635 C 0.828 0.1102 0.25221 0.0
C1636 C 0.84035 0.11385 0.24028 0.0
C1637 C 0.84333 0.10266 0.2284 0.0
C1638 C 0.85508 0.1061 0.21729 0.0
C1639 C 0.86386 0.12074 0.21787 0.0
C1640 C 0.86087 0.13199 0.22953 0.0
C1641 C 0.84914 0.1286 0.24069 0.0
H1642 H 0.87296 0.12338 0.20925 0.0
H1643 H 0.75808 0.09005 0.31631 0.0
H1644 H 0.37973 0.98407 0.97947 0.0
H1645 H 0.35618 0.96612 0.98373 0.0
H1646 H 0.38542 0.92555 0.97791 0.0
H1647 H 0.40899 0.94344 0.97358 0.0
H1648 H 0.3571 0.92126 0.96182 0.0
H1649 H 0.37467 0.93793 0.01492 0.0
H1650 H 0.38221 0.95736 0.03635 0.0
H1651 H 0.33493 0.97612 0.03209 0.0
H1652 H 0.32718 0.95693 0.01047 0.0
H1653 H 0.30903 0.86008 0.99629 0.0
H1654 H 0.33024 0.88002 0.99036 0.0
H1655 H 0.29665 0.91728 0.99469 0.0
H1656 H 0.27525 0.89735 0.00078 0.0
H1657 H 0.32567 0.92451 0.01061 0.0
H1658 H 0.30768 0.90655 0.95847 0.0
H1659 H 0.30027 0.88678 0.93733 0.0
H1660 H 0.34849 0.87015 0.94 0.0
H1661 H 0.35614 0.88968 0.96132 0.0
C1662 C 0.38117 0.97132 0.97923 0.0
C1663 C 0.39624 0.96517 0.97625 0.0
C1664 C 0.3677 0.96108 0.98165 0.0
C1665 C 0.36907 0.94449 0.98131 0.0
C1666 C 0.38407 0.93832 0.9782 0.0
C1667 C 0.39752 0.94855 0.9757 0.0
C1668 C 0.3549 0.93352 0.98412 0.0
C1669 C 0.35034 0.92186 0.97257 0.0
C1670 C 0.34578 0.93459 0.99794 0.0
C1671 C 0.35041 0.94611 0.01096 0.0
C1672 C 0.36592 0.94628 0.01847 0.0
C1673 C 0.37023 0.95724 0.03066 0.0
C1674 C 0.35907 0.968 0.03555 0.0
C1675 C 0.34357 0.9678 0.02827 0.0
C1676 C 0.33921 0.95688 0.01606 0.0
C1677 C 0.30607 0.8725 0.99595 0.0
C1678 C 0.29038 0.87709 0.99899 0.0
C1679 C 0.31823 0.88389 0.99248 0.0
C1680 C 0.31498 0.90012 0.99191 0.0
C1681 C 0.29939 0.9048 0.99502 0.0
C1682 C 0.28717 0.89338 0.99845 0.0
C1683 C 0.32804 0.91214 0.9884 0.0
C1684 C 0.33237 0.92399 -0.00019 0.0
C1685 C 0.33698 0.91122 0.97447 0.0
C1686 C 0.33244 0.8995 0.96159 0.0
C1687 C 0.31667 0.8986 0.95464 0.0
C1688 C 0.31243 0.88744 0.9426 0.0
C1689 C 0.32389 0.87719 0.93735 0.0
C1690 C 0.33962 0.87809 0.94409 0.0
C1691 C 0.34392 0.88921 0.95614 0.0
H1692 H 0.32058 0.86856 0.92803 0.0
H1693 H 0.36243 0.97647 0.04499 0.0
H1694 H 0.23401 0.34463 0.29527 0.0
H1695 H 0.21607 0.3668 0.29221 0.0
H1696 H 0.22443 0.36848 0.24189 0.0
H1697 H 0.24207 0.3461 0.24474 0.0
H1698 H 0.22961 0.39758 0.25672 0.0
H1699 H 0.18853 0.35504 0.2543 0.0
H1700 H 0.17393 0.33087 0.26385 0.0
H1701 H 0.16243 0.35563 0.30638 0.0
H1702 H 0.17716 0.3799 0.29718 0.0
H1703 H 0.17737 0.45645 0.23416 0.0
H1704 H 0.18839 0.43008 0.23602 0.0
H1705 H 0.1758 0.427 0.28528 0.0
H1706 H 0.16419 0.45326 0.28333 0.0
H1707 H 0.17226 0.39821 0.2714 0.0
H1708 H 0.21384 0.43985 0.27533 0.0
H1709 H 0.22901 0.46423 0.2671 0.0
H1710 H 0.24055 0.44133 0.22354 0.0
H1711 H 0.22525 0.41686 0.23143 0.0
C1712 C 0.23178 0.34949 0.28349 0.0
C1713 C 0.23958 0.34363 0.27026 0.0
C1714 C 0.22154 0.36218 0.28177 0.0
C1715 C 0.21889 0.36924 0.26682 0.0
C1716 C 0.22636 0.36322 0.25355 0.0
C1717 C 0.23652 0.35049 0.25523 0.0
C1718 C 0.20926 0.38361 0.26515 0.0
C1719 C 0.21699 0.39764 0.25967 0.0
C1720 C 0.19299 0.38381 0.26958 0.0
C1721 C 0.18409 0.36924 0.27512 0.0
C1722 C 0.18301 0.35529 0.26575 0.0
C1723 C 0.17468 0.34158 0.27109 0.0
C1724 C 0.16729 0.3417 0.28573 0.0
C1725 C 0.16818 0.35555 0.29505 0.0
C1726 C 0.1765 0.36929 0.28977 0.0
C1727 C 0.1767 0.45005 0.24532 0.0
C1728 C 0.17013 0.45702 0.25867 0.0
C1729 C 0.18304 0.435 0.24638 0.0
C1730 C 0.18333 0.42676 0.26091 0.0
C1731 C 0.17581 0.4332 0.27398 0.0
C1732 C 0.16919 0.4482 0.27285 0.0
C1733 C 0.19257 0.41211 0.26273 0.0
C1734 C 0.18485 0.3981 0.26835 0.0
C1735 C 0.20897 0.41192 0.25864 0.0
C1736 C 0.21827 0.42658 0.2539 0.0
C1737 C 0.21952 0.44005 0.26395 0.0
C1738 C 0.22815 0.45388 0.25935 0.0
C1739 C 0.2357 0.45434 0.24479 0.0
C1740 C 0.23468 0.44096 0.23481 0.0
C1741 C 0.22604 0.4271 0.23934 0.0
H1742 H 0.24238 0.46506 0.24125 0.0
H1743 H 0.16085 0.33107 0.28984 0.0
H1744 H 0.10477 0.05648 0.48604 0.0
H1745 H 0.12908 0.07392 0.48979 0.0
H1746 H 0.15815 0.03287 0.49505 0.0
H1747 H 0.13379 0.01528 0.4913 0.0
H1748 H 0.16734 0.05527 0.51697 0.0
H1749 H 0.15787 0.05391 0.46059 0.0
H1750 H 0.14207 0.05571 0.43515 0.0
H1751 H 0.1336 0.10474 0.44493 0.0
H1752 H 0.14916 0.10317 0.47054 0.0
H1753 H 0.24038 0.10485 0.51018 0.0
H1754 H 0.21899 0.08387 0.50586 0.0
H1755 H 0.18343 0.11959 0.50119 0.0
H1756 H 0.20455 0.14052 0.50535 0.0
H1757 H 0.17965 0.09759 0.47755 0.0
H1758 H 0.18757 0.0979 0.53504 0.0
H1759 H 0.2036 0.09583 0.56033 0.0
H1760 H 0.21557 0.04833 0.54792 0.0
H1761 H 0.19978 0.0502 0.52245 0.0
C1762 C 0.11635 0.05114 0.48785 0.0
C1763 C 0.11736 0.03448 0.48825 0.0
C1764 C 0.13024 0.06113 0.49001 0.0
C1765 C 0.14548 0.0547 0.49246 0.0
C1766 C 0.14652 0.03809 0.49315 0.0
C1767 C 0.13259 0.02806 0.49104 0.0
C1768 C 0.16024 0.06542 0.49434 0.0
C1769 C 0.1702 0.06435 0.50822 0.0
C1770 C 0.1639 0.07736 0.48299 0.0
C1771 C 0.15459 0.07838 0.46755 0.0
C1772 C 0.15254 0.06504 0.45737 0.0
C1773 C 0.14364 0.06603 0.44291 0.0
C1774 C 0.1368 0.08032 0.43844 0.0
C1775 C 0.13889 0.09367 0.44841 0.0
C1776 C 0.14777 0.09275 0.46289 0.0
C1777 C 0.228 0.10823 0.50829 0.0
C1778 C 0.22422 0.1244 0.50811 0.0
C1779 C 0.21579 0.09623 0.50587 0.0
C1780 C 0.19961 0.10018 0.50325 0.0
C1781 C 0.19584 0.11627 0.50313 0.0
C1782 C 0.20797 0.12823 0.50558 0.0
C1783 C 0.18649 0.0877 0.50036 0.0
C1784 C 0.17688 0.08841 0.48623 0.0
C1785 C 0.18322 0.07541 0.51143 0.0
C1786 C 0.19266 0.07426 0.52676 0.0
C1787 C 0.19374 0.08706 0.53764 0.0
C1788 C 0.20275 0.08591 0.55202 0.0
C1789 C 0.21064 0.07197 0.55571 0.0
C1790 C 0.20948 0.05913 0.54504 0.0
C1791 C 0.2005 0.06022 0.53063 0.0
H1792 H 0.21761 0.07111 0.56685 0.0
H1793 H 0.12992 0.08105 0.42724 0.0
H1794 H 0.74985 0.14857 0.71453 0.0
H1795 H 0.73028 0.12665 0.71963 0.0
H1796 H 0.73451 0.1372 0.76999 0.0
H1797 H 0.754 0.15922 0.76498 0.0
H1798 H 0.73668 0.10619 0.76477 0.0
H1799 H 0.70083 0.14629 0.74802 0.0
H1800 H 0.69007 0.16707 0.73038 0.0
H1801 H 0.68095 0.13257 0.69285 0.0
H1802 H 0.69187 0.11162 0.71019 0.0
H1803 H 0.6533 0.0612 0.76941 0.0
H1804 H 0.66907 0.08595 0.7642 0.0
H1805 H 0.70751 0.05868 0.74689 0.0
H1806 H 0.69201 0.03399 0.75223 0.0
H1807 H 0.68238 0.09948 0.73755 0.0
H1808 H 0.74322 0.07559 0.76117 0.0
H1809 H 0.75312 0.05576 0.78042 0.0
H1810 H 0.71065 0.05999 0.80738 0.0
H1811 H 0.70062 0.08 0.78842 0.0
C1812 C 0.74645 0.14638 0.72667 0.0
C1813 C 0.75351 0.15564 0.73935 0.0
C1814 C 0.73526 0.13383 0.72956 0.0
C1815 C 0.73084 0.13036 0.74518 0.0
C1816 C 0.73778 0.13965 0.75785 0.0
C1817 C 0.74896 0.15218 0.75497 0.0
C1818 C 0.71952 0.11662 0.74837 0.0
C1819 C 0.7248 0.10476 0.75883 0.0
C1820 C 0.70391 0.11486 0.74082 0.0
C1821 C 0.6973 0.12742 0.73036 0.0
C1822 C 0.69665 0.14316 0.73596 0.0
C1823 C 0.6905 0.15496 0.72602 0.0
C1824 C 0.68487 0.15115 0.71049 0.0
C1825 C 0.68534 0.13551 0.70488 0.0
C1826 C 0.69149 0.12366 0.71476 0.0
C1827 C 0.66504 0.06049 0.76434 0.0
C1828 C 0.67143 0.04562 0.7613 0.0
C1829 C 0.67401 0.07463 0.76133 0.0
C1830 C 0.68953 0.07412 0.75535 0.0
C1831 C 0.69564 0.05932 0.7517 0.0
C1832 C 0.6867 0.04521 0.75468 0.0
C1833 C 0.69974 0.08896 0.75364 0.0
C1834 C 0.69425 0.10098 0.74348 0.0
C1835 C 0.71507 0.09103 0.76168 0.0
C1836 C 0.72111 0.07918 0.77328 0.0
C1837 C 0.73603 0.07233 0.77124 0.0
C1838 C 0.74166 0.06106 0.7821 0.0
C1839 C 0.73249 0.05659 0.79509 0.0
C1840 C 0.71771 0.06342 0.79728 0.0
C1841 C 0.71204 0.07472 0.78647 0.0
H1842 H 0.73686 0.04784 0.80347 0.0
H1843 H 0.68011 0.16031 0.70282 0.0
H1844 H 0.3991 0.01746 0.55756 0.0
H1845 H 0.37537 0.0333 0.55262 0.0
H1846 H 0.39185 0.04554 0.50597 0.0
H1847 H 0.41573 0.02992 0.51092 0.0
H1848 H 0.38228 0.07149 0.52225 0.0
H1849 H 0.36112 0.01874 0.50926 0.0
H1850 H 0.35553 0.99005 0.51385 0.0
H1851 H 0.32817 0.00086 0.55445 0.0
H1852 H 0.3338 0.02962 0.55025 0.0
H1853 H 0.31115 0.10877 0.49696 0.0
H1854 H 0.33262 0.08978 0.4978 0.0
H1855 H 0.31737 0.07297 0.54354 0.0
H1856 H 0.29567 0.09162 0.54264 0.0
H1857 H 0.32619 0.04869 0.526 0.0
H1858 H 0.34882 0.10087 0.5405 0.0
H1859 H 0.35475 0.12966 0.53681 0.0
H1860 H 0.3797 0.11998 0.49434 0.0
H1861 H 0.37372 0.09113 0.49767 0.0
C1862 C 0.3977 0.0236 0.54628 0.0
C1863 C 0.40927 0.02243 0.53462 0.0
C1864 C 0.38408 0.03252 0.54342 0.0
C1865 C 0.38177 0.04045 0.52886 0.0
C1866 C 0.39337 0.03944 0.51725 0.0
C1867 C 0.40694 0.03045 0.52006 0.0
C1868 C 0.36746 0.05015 0.52591 0.0
C1869 C 0.37001 0.06646 0.52279 0.0
C1870 C 0.35147 0.04363 0.52699 0.0
C1871 C 0.34801 0.02634 0.52952 0.0
C1872 C 0.35403 0.015 0.51925 0.0
C1873 C 0.35083 0.99872 0.52177 0.0
C1874 C 0.34153 0.99363 0.53446 0.0
C1875 C 0.33538 0.00482 0.54464 0.0
C1876 C 0.33856 0.02111 0.54218 0.0
C1877 C 0.31222 0.10088 0.5071 0.0
C1878 C 0.3018 0.10184 0.51982 0.0
C1879 C 0.32455 0.09008 0.50759 0.0
C1880 C 0.32682 0.08018 0.52089 0.0
C1881 C 0.31591 0.08054 0.5332 0.0
C1882 C 0.30352 0.09125 0.53267 0.0
C1883 C 0.34101 0.07006 0.52241 0.0
C1884 C 0.33846 0.05369 0.52531 0.0
C1885 C 0.35703 0.07653 0.52124 0.0
C1886 C 0.36067 0.09386 0.51924 0.0
C1887 C 0.35546 0.10489 0.53031 0.0
C1888 C 0.35885 0.12122 0.5283 0.0
C1889 C 0.36755 0.12665 0.51532 0.0
C1890 C 0.37293 0.11576 0.50436 0.0
C1891 C 0.36955 0.09942 0.50631 0.0
H1892 H 0.37017 0.13929 0.51379 0.0
H1893 H 0.33906 0.98103 0.53639 0.0
H1894 H 0.59376 0.46909 0.47723 0.0
H1895 H 0.61871 0.45478 0.4763 0.0
H1896 H 0.62208 0.45364 0.5277 0.0
H1897 H 0.59757 0.4685 0.52874 0.0
H1898 H 0.65084 0.46131 0.51608 0.0
H1899 H 0.60818 0.42091 0.50521 0.0
H1900 H 0.58412 0.4089 0.49059 0.0
H1901 H 0.61023 0.40856 0.44752 0.0
H1902 H 0.63439 0.42076 0.46185 0.0
H1903 H 0.69906 0.39709 0.53527 0.0
H1904 H 0.67787 0.41587 0.53084 0.0
H1905 H 0.68356 0.41319 0.48009 0.0
H1906 H 0.70486 0.39414 0.48443 0.0
H1907 H 0.65195 0.40946 0.48781 0.0
H1908 H 0.69584 0.44681 0.49995 0.0
H1909 H 0.71983 0.45826 0.51506 0.0
H1910 H 0.6915 0.46404 0.55612 0.0
H1911 H 0.66737 0.4524 0.54134 0.0
C1912 C 0.59989 0.46591 0.48834 0.0
C1913 C 0.59361 0.46989 0.50306 0.0
C1914 C 0.61408 0.45761 0.48778 0.0
C1915 C 0.62219 0.453 0.50193 0.0
C1916 C 0.61602 0.45705 0.51663 0.0
C1917 C 0.60188 0.46539 0.5172 0.0
C1918 C 0.63708 0.44388 0.50155 0.0
C1919 C 0.65106 0.44991 0.50999 0.0
C1920 C 0.63752 0.42928 0.49316 0.0
C1921 C 0.62302 0.42191 0.48456 0.0
C1922 C 0.60875 0.41839 0.49259 0.0
C1923 C 0.5951 0.41153 0.48437 0.0
C1924 C 0.59563 0.40802 0.46813 0.0
C1925 C 0.60983 0.41131 0.46009 0.0
C1926 C 0.6235 0.41819 0.46826 0.0
C1927 C 0.69595 0.40058 0.52315 0.0
C1928 C 0.70363 0.39409 0.51019 0.0
C1929 C 0.68388 0.41141 0.52065 0.0
C1930 C 0.67923 0.41605 0.50515 0.0
C1931 C 0.68702 0.4098 0.49216 0.0
C1932 C 0.6992 0.39897 0.49466 0.0
C1933 C 0.66558 0.42669 0.50268 0.0
C1934 C 0.65183 0.42097 0.49369 0.0
C1935 C 0.66532 0.44156 0.51062 0.0
C1936 C 0.6798 0.44863 0.51955 0.0
C1937 C 0.69474 0.45041 0.51224 0.0
C1938 C 0.70837 0.45696 0.52074 0.0
C1939 C 0.7072 0.46185 0.53655 0.0
C1940 C 0.69239 0.46024 0.54388 0.0
C1941 C 0.67873 0.45369 0.53543 0.0
H1942 H 0.71777 0.46691 0.54311 0.0
H1943 H 0.58505 0.40271 0.46178 0.0
H1944 H 0.691 0.26761 0.34502 0.0
H1945 H 0.69532 0.2847 0.36865 0.0
H1946 H 0.74672 0.27918 0.36748 0.0
H1947 H 0.74261 0.26251 0.34368 0.0
H1948 H 0.73382 0.27182 0.39679 0.0
H1949 H 0.73211 0.3137 0.35755 0.0
H1950 H 0.7199 0.32858 0.33519 0.0
H1951 H 0.67929 0.33811 0.36321 0.0
H1952 H 0.69115 0.32308 0.38568 0.0
H1953 H 0.76625 0.32299 0.45575 0.0
H1954 H 0.75955 0.31175 0.42938 0.0
H1955 H 0.71007 0.32465 0.43304 0.0
H1956 H 0.71687 0.33646 0.45941 0.0
H1957 H 0.71961 0.32819 0.40279 0.0
H1958 H 0.72058 0.28702 0.44188 0.0
H1959 H 0.73178 0.27179 0.4645 0.0
H1960 H 0.7721 0.26 0.43704 0.0
H1961 H 0.76126 0.27535 0.41431 0.0
C1962 C 0.70325 0.27029 0.3496 0.0
C1963 C 0.71645 0.26354 0.34254 0.0
C1964 C 0.70568 0.28003 0.36312 0.0
C1965 C 0.72134 0.28317 0.3698 0.0
C1966 C 0.73454 0.27681 0.36254 0.0
C1967 C 0.73214 0.2672 0.349 0.0
C1968 C 0.72399 0.29213 0.38497 0.0
C1969 C 0.73089 0.28421 0.39805 0.0
C1970 C 0.71956 0.30808 0.38673 0.0
C1971 C 0.71243 0.31711 0.37323 0.0
C1972 C 0.7205 0.31884 0.3589 0.0
C1973 C 0.71366 0.32733 0.34621 0.0
C1974 C 0.69881 0.33424 0.34776 0.0
C1975 C 0.69078 0.33272 0.36202 0.0
C1976 C 0.69756 0.32423 0.37473 0.0
C1977 C 0.75397 0.32361 0.45089 0.0
C1978 C 0.74202 0.33038 0.45974 0.0
C1979 C 0.75015 0.31715 0.43582 0.0
C1980 C 0.73421 0.31698 0.42942 0.0
C1981 C 0.72242 0.32455 0.43781 0.0
C1982 C 0.72631 0.33127 0.45286 0.0
C1983 C 0.72983 0.30797 0.4145 0.0
C1984 C 0.7225 0.3158 0.40153 0.0
C1985 C 0.73366 0.29181 0.41284 0.0
C1986 C 0.74017 0.28245 0.42644 0.0
C1987 C 0.73189 0.28127 0.4407 0.0
C1988 C 0.73817 0.2726 0.45354 0.0
C1989 C 0.75266 0.26496 0.45222 0.0
C1990 C 0.76088 0.26593 0.43805 0.0
C1991 C 0.75467 0.2746 0.42518 0.0
H1992 H 0.7575 0.25826 0.46218 0.0
H1993 H 0.69353 0.34082 0.33793 0.0
H1994 H 0.51909 0.98351 0.90212 0.0
H1995 H 0.5365 0.97988 0.87968 0.0
H1996 H 0.52621 0.02687 0.86261 0.0
H1997 H 0.50863 0.0305 0.8849 0.0
H1998 H 0.52519 0.0042 0.83833 0.0
H1999 H 0.56067 0.02153 0.8829 0.0
H2000 H 0.57245 0.01997 0.9103 0.0
H2001 H 0.5888 0.97336 0.90047 0.0
H2002 H 0.57691 0.97456 0.87306 0.0
H2003 H 0.58966 0.02478 0.78898 0.0
H2004 H 0.56898 0.02231 0.80868 0.0
H2005 H 0.58769 0.97772 0.82458 0.0
H2006 H 0.60878 0.98033 0.80509 0.0
H2007 H 0.58354 0.99605 0.84915 0.0
H2008 H 0.55048 0.97948 0.80379 0.0
H2009 H 0.53874 0.98078 0.77637 0.0
H2010 H 0.51763 0.02497 0.78732 0.0
H2011 H 0.52944 0.02407 0.81476 0.0
C2012 C 0.52041 0.993 0.89349 0.0
C2013 C 0.51255 0.00732 0.89531 0.0
C2014 C 0.53042 0.99094 0.88073 0.0
C2015 C 0.53272 0.00316 0.86955 0.0
C2016 C 0.5246 0.01731 0.87112 0.0
C2017 C 0.51468 0.01941 0.88392 0.0
C2018 C 0.54398 0.00143 0.85647 0.0
C2019 C 0.53798 0.00253 0.84065 0.0
C2020 C 0.56055 0.99877 0.85954 0.0
C2021 C 0.56774 0.99806 0.876 0.0
C2022 C 0.56665 0.01089 0.88663 0.0
C2023 C 0.57337 0.01009 0.90215 0.0
C2024 C 0.58132 0.99655 0.90714 0.0
C2025 C 0.58261 0.98382 0.8966 0.0
C2026 C 0.57589 0.98456 0.88107 0.0
C2027 C 0.58927 0.01432 0.7965 0.0
C2028 C 0.60093 0.00278 0.79548 0.0
C2029 C 0.57735 0.01288 0.80773 0.0
C2030 C 0.57665 -0.00025 0.81805 0.0
C2031 C 0.58798 0.98795 0.81675 0.0
C2032 C 0.6 0.98944 0.80556 0.0
C2033 C 0.56483 0.999 0.83089 0.0
C2034 C 0.57073 0.99748 0.84672 0.0
C2035 C 0.54814 0.00119 0.8278 0.0
C2036 C 0.54096 0.00176 0.81131 0.0
C2037 C 0.54344 0.98954 0.80033 0.0
C2038 C 0.53675 0.99019 0.78478 0.0
C2039 C 0.52747 0.00296 0.7801 0.0
C2040 C 0.52483 0.01509 0.79096 0.0
C2041 C 0.5315 0.0145 0.80652 0.0
H2042 H 0.5223 0.00344 0.76806 0.0
H2043 H 0.58652 0.99595 0.91916 0.0
H2044 H 0.31305 0.22405 0.34848 0.0
H2045 H 0.30962 0.20764 0.37228 0.0
H2046 H 0.25783 0.20911 0.36568 0.0
H2047 H 0.26108 0.22504 0.34165 0.0
H2048 H 0.27024 0.21957 0.3958 0.0
H2049 H 0.27458 0.17535 0.35972 0.0
H2050 H 0.28774 0.15984 0.33942 0.0
H2051 H 0.32904 0.15499 0.37141 0.0
H2052 H 0.31622 0.17068 0.39183 0.0
H2053 H 0.24378 0.17278 0.4581 0.0
H2054 H 0.2482 0.18142 0.43084 0.0
H2055 H 0.2987 0.17147 0.43693 0.0
H2056 H 0.29414 0.16211 0.46411 0.0
H2057 H 0.28839 0.16513 0.40704 0.0
H2058 H 0.2858 0.20932 0.44254 0.0
H2059 H 0.27431 0.22572 0.46324 0.0
H2060 H 0.23214 0.23214 0.43283 0.0
H2061 H 0.24328 0.21559 0.41202 0.0
C2062 C 0.30092 0.22056 0.35185 0.0
C2063 C 0.28734 0.22604 0.34324 0.0
C2064 C 0.299 0.21121 0.36549 0.0
C2065 C 0.28347 0.20722 0.37074 0.0
C2066 C 0.26991 0.21215 0.36185 0.0
C2067 C 0.27181 0.22135 0.34818 0.0
C2068 C 0.28129 0.19917 0.38623 0.0
C2069 C 0.27399 0.20757 0.39818 0.0
C2070 C 0.28681 0.18379 0.3895 0.0
C2071 C 0.29451 0.17434 0.37724 0.0
C2072 C 0.28653 0.17111 0.36237 0.0
C2073 C 0.29392 0.16226 0.35086 0.0
C2074 C 0.30924 0.15647 0.3541 0.0
C2075 C 0.31719 0.1595 0.3689 0.0
C2076 C 0.30986 0.16836 0.38045 0.0
C2077 C 0.25578 0.17219 0.45354 0.0
C2078 C 0.26867 0.16699 0.46328 0.0
C2079 C 0.25831 0.17718 0.43798 0.0
C2080 C 0.27388 0.17754 0.43199 0.0
C2081 C 0.2866 0.17141 0.44134 0.0
C2082 C 0.28399 0.16608 0.45686 0.0
C2083 C 0.27699 0.18542 0.41652 0.0
C2084 C 0.28459 0.1771 0.40464 0.0
C2085 C 0.27201 0.20105 0.41334 0.0
C2086 C 0.26532 0.2111 0.42578 0.0
C2087 C 0.27403 0.21415 0.44031 0.0
C2088 C 0.26759 0.22348 0.45205 0.0
C2089 C 0.25249 0.22994 0.44936 0.0
C2090 C 0.24383 0.22712 0.4349 0.0
C2091 C 0.2502 0.21777 0.42312 0.0
H2092 H 0.24752 0.23716 0.45847 0.0
H2093 H 0.31493 0.14962 0.34517 0.0
H2094 H 0.4727 0.50471 0.91757 0.0
H2095 H 0.45599 0.5094 0.89339 0.0
H2096 H 0.49664 0.50077 0.86464 0.0
H2097 H 0.51341 0.49648 0.88873 0.0
H2098 H 0.48234 0.52545 0.85371 0.0
H2099 H 0.46418 0.47263 0.86981 0.0
H2100 H 0.45292 0.45252 0.88818 0.0
H2101 H 0.40953 0.47822 0.89052 0.0
H2102 H 0.42063 0.4986 0.87231 0.0
H2103 H 0.44911 0.50136 0.77908 0.0
H2104 H 0.46038 0.50079 0.80631 0.0
H2105 H 0.41869 0.52351 0.82297 0.0
H2106 H 0.40724 0.52437 0.79546 0.0
H2107 H 0.43038 0.4951 0.84146 0.0
H2108 H 0.4485 0.54635 0.82214 0.0
H2109 H 0.46029 0.56491 0.8026 0.0
H2110 H 0.5046 0.5404 0.8054 0.0
H2111 H 0.49298 0.52153 0.82478 0.0
C2112 C 0.47801 0.50376 0.90606 0.0
C2113 C 0.49436 0.50025 0.90502 0.0
C2114 C 0.46846 0.50641 0.89226 0.0
C2115 C 0.475 0.5053 0.87714 0.0
C2116 C 0.49132 0.50178 0.87613 0.0
C2117 C 0.50091 0.49933 0.88991 0.0
C2118 C 0.46502 0.50786 0.86229 0.0
C2119 C 0.47102 0.51873 0.85105 0.0
C2120 C 0.44999 0.49947 0.85893 0.0
C2121 C 0.44331 0.48723 0.86986 0.0
C2122 C 0.45229 0.47405 0.87435 0.0
C2123 C 0.44593 0.4626 0.88471 0.0
C2124 C 0.43054 0.46412 0.89056 0.0
C2125 C 0.42146 0.47707 0.88601 0.0
C2126 C 0.42778 0.48858 0.87567 0.0
C2127 C 0.44221 0.50617 0.78848 0.0
C2128 C 0.42726 0.51296 0.78505 0.0
C2129 C 0.44872 0.50586 0.80405 0.0
C2130 C 0.4404 0.51219 0.81659 0.0
C2131 C 0.42527 0.51859 0.81339 0.0
C2132 C 0.4188 0.51911 0.7977 0.0
C2133 C 0.44798 0.51232 0.83288 0.0
C2134 C 0.44155 0.50199 0.84433 0.0
C2135 C 0.46273 0.52104 0.8364 0.0
C2136 C 0.46982 0.53245 0.82483 0.0
C2137 C 0.46071 0.54483 0.8185 0.0
C2138 C 0.46737 0.55543 0.80746 0.0
C2139 C 0.48318 0.55382 0.80274 0.0
C2140 C 0.49236 0.54163 0.80906 0.0
C2141 C 0.48575 0.531 0.82009 0.0
H2142 H 0.48831 0.56203 0.79419 0.0
H2143 H 0.42564 0.45523 0.89858 0.0
H2144 H 0.72677 0.76884 0.13575 0.0
H2145 H 0.73081 0.74796 0.11619 0.0
H2146 H 0.73383 0.7133 0.1539 0.0
H2147 H 0.72996 0.73424 0.17362 0.0
H2148 H 0.75835 0.71141 0.13268 0.0
H2149 H 0.7008 0.71252 0.13034 0.0
H2150 H 0.6744 0.72486 0.12816 0.0
H2151 H 0.68517 0.74248 0.08164 0.0
H2152 H 0.71174 0.73044 0.08363 0.0
H2153 H 0.76288 0.65074 0.07344 0.0
H2154 H 0.75352 0.66527 0.09639 0.0
H2155 H 0.74368 0.70541 0.0661 0.0
H2156 H 0.75266 0.69095 0.04323 0.0
H2157 H 0.72034 0.70093 0.08613 0.0
H2158 H 0.77894 0.70365 0.09002 0.0
H2159 H 0.8059 0.69239 0.092 0.0
H2160 H 0.79357 0.66853 0.13532 0.0
H2161 H 0.76645 0.6795 0.13348 0.0
C2162 C 0.72833 0.75678 0.13988 0.0
C2163 C 0.72807 0.75317 0.15621 0.0
C2164 C 0.73049 0.74484 0.12869 0.0
C2165 C 0.73246 0.72906 0.13359 0.0
C2166 C 0.73225 0.7254 0.14988 0.0
C2167 C 0.72996 0.73733 0.1611 0.0
C2168 C 0.73526 0.71658 0.12164 0.0
C2169 C 0.74989 0.70885 0.12267 0.0
C2170 C 0.72433 0.71346 0.10847 0.0
C2171 C 0.70832 0.72066 0.10719 0.0
C2172 C 0.69759 0.71913 0.11969 0.0
C2173 C 0.68259 0.72605 0.11848 0.0
C2174 C 0.67812 0.73447 0.10479 0.0
C2175 C 0.68864 0.73596 0.09225 0.0
C2176 C 0.70367 0.72907 0.0934 0.0
C2177 C 0.75857 0.6626 0.07167 0.0
C2178 C 0.75851 0.66969 0.05651 0.0
C2179 C 0.75329 0.67091 0.0848 0.0
C2180 C 0.74807 0.68651 0.08301 0.0
C2181 C 0.7476 0.69338 0.06779 0.0
C2182 C 0.75276 0.68507 0.0547 0.0
C2183 C 0.74364 0.69607 0.09692 0.0
C2184 C 0.72868 0.70326 0.09628 0.0
C2185 C 0.75433 0.6988 0.11038 0.0
C2186 C 0.77062 0.69223 0.11151 0.0
C2187 C 0.78194 0.6959 0.0999 0.0
C2188 C 0.79725 0.68959 0.10101 0.0
C2189 C 0.80142 0.67971 0.11375 0.0
C2190 C 0.79031 0.67616 0.12544 0.0
C2191 C 0.77497 0.68242 0.12437 0.0
H2192 H 0.81328 0.67484 0.11459 0.0
H2193 H 0.6665 0.73983 0.10387 0.0
H2194 H 0.99894 0.00348 0.09481 0.0
H2195 H 0.9844 0.00364 0.11949 0.0
H2196 H 0.941 0.01606 0.09314 0.0
H2197 H 0.95538 0.01564 0.06832 0.0
H2198 H 0.94781 0.03547 0.11885 0.0
H2199 H 0.9437 0.97929 0.1084 0.0
H2200 H 0.95383 0.95295 0.10227 0.0
H2201 H 0.98344 0.95474 0.14555 0.0
H2202 H 0.97366 0.98121 0.15183 0.0
H2203 H 0.89809 0.03031 0.18518 0.0
H2204 H 0.90902 0.02534 0.15914 0.0
H2205 H 0.95277 0.00917 0.18219 0.0
H2206 H 0.94176 0.01374 0.20824 0.0
H2207 H 0.94432 0.9908 0.15732 0.0
H2208 H 0.95046 0.0473 0.16692 0.0
H2209 H 0.94132 0.07401 0.17324 0.0
H2210 H 0.90907 0.07202 0.13177 0.0
H2211 H 0.91788 0.04519 0.12532 0.0
C2212 C 0.98622 0.00592 0.09419 0.0
C2213 C 0.97835 0.00957 0.07956 0.0
C2214 C 0.97793 0.00605 0.10833 0.0
C2215 C 0.9616 0.00978 0.10814 0.0
C2216 C 0.95362 0.01319 0.09355 0.0
C2217 C 0.96188 0.01301 0.0794 0.0
C2218 C 0.9531 0.01098 0.12325 0.0
C2219 C 0.94678 0.02561 0.12714 0.0
C2220 C 0.95217 0.99825 0.13424 0.0
C2221 C 0.95804 0.98231 0.13051 0.0
C2222 C 0.95247 0.97413 0.11655 0.0
C2223 C 0.95813 0.95916 0.11305 0.0
C2224 C 0.9693 0.95219 0.12349 0.0
C2225 C 0.9748 0.96016 0.13747 0.0
C2226 C 0.96919 0.97514 0.14101 0.0
C2227 C 0.91 0.02561 0.1847 0.0
C2228 C 0.9191 0.0225 0.19877 0.0
C2229 C 0.91625 0.02282 0.16981 0.0
C2230 C 0.93183 0.01713 0.1687 0.0
C2231 C 0.94074 0.01358 0.18274 0.0
C2232 C 0.93443 0.01622 0.19763 0.0
C2233 C 0.93908 0.01533 0.15296 0.0
C2234 C 0.94521 0.00061 0.14897 0.0
C2235 C 0.93997 0.02803 0.14191 0.0
C2236 C 0.9347 0.04418 0.14574 0.0
C2237 C 0.94133 0.05251 0.15922 0.0
C2238 C 0.93622 0.06768 0.16281 0.0
C2239 C 0.92458 0.07469 0.15294 0.0
C2240 C 0.91806 0.06656 0.13942 0.0
C2241 C 0.92311 0.05138 0.13579 0.0
H2242 H 0.92064 0.08643 0.15574 0.0
H2243 H 0.97367 0.9406 0.12077 0.0
H2244 H 0.29948 0.75388 0.14265 0.0
H2245 H 0.29458 0.77173 0.12019 0.0
H2246 H 0.29618 0.81193 0.15239 0.0
H2247 H 0.30095 0.79404 0.17501 0.0
H2248 H 0.26949 0.81097 0.13152 0.0
H2249 H 0.3266 0.80823 0.12853 0.0
H2250 H 0.35256 0.79515 0.12782 0.0
H2251 H 0.33642 0.7708 0.08457 0.0
H2252 H 0.31026 0.78355 0.08514 0.0
H2253 H 0.25876 0.86201 0.06489 0.0
H2254 H 0.27107 0.85083 0.08916 0.0
H2255 H 0.2762 0.80632 0.06455 0.0
H2256 H 0.26424 0.81747 0.04027 0.0
H2257 H 0.30219 0.8132 0.08337 0.0
H2258 H 0.2442 0.81221 0.08852 0.0
H2259 H 0.21758 0.82406 0.0892 0.0
H2260 H 0.23486 0.85422 0.12829 0.0
H2261 H 0.26166 0.84267 0.12771 0.0
C2262 C 0.29883 0.76653 0.14493 0.0
C2263 C 0.30054 0.77258 0.16056 0.0
C2264 C 0.29617 0.77672 0.13209 0.0
C2265 C 0.29517 0.79316 0.13463 0.0
C2266 C 0.29701 0.79928 0.1502 0.0
C2267 C 0.29981 0.78909 0.16307 0.0
C2268 C 0.29125 0.8037 0.12104 0.0
C2269 C 0.27683 0.81177 0.12113 0.0
C2270 C 0.30066 0.80444 0.10738 0.0
C2271 C 0.31642 0.79678 0.10695 0.0
C2272 C 0.32853 0.8 0.11893 0.0
C2273 C 0.34329 0.79265 0.11854 0.0
C2274 C 0.34612 0.78213 0.10617 0.0
C2275 C 0.33421 0.77895 0.09415 0.0
C2276 C 0.31942 0.78625 0.09449 0.0
C2277 C 0.26267 0.8499 0.06462 0.0
C2278 C 0.26048 0.8406 0.05068 0.0
C2279 C 0.26966 0.84352 0.0785 0.0
C2280 C 0.27436 0.82767 0.07872 0.0
C2281 C 0.27269 0.81858 0.06465 0.0
C2282 C 0.26582 0.82497 0.05077 0.0
C2283 C 0.28025 0.82017 0.09371 0.0
C2284 C 0.29502 0.81265 0.09388 0.0
C2285 C 0.27108 0.81981 0.10757 0.0
C2286 C 0.25498 0.82673 0.10794 0.0
C2287 C 0.24236 0.82146 0.09718 0.0
C2288 C 0.22723 0.8281 0.09756 0.0
C2289 C 0.22455 0.83992 0.10874 0.0
C2290 C 0.23697 0.84509 0.11961 0.0
C2291 C 0.25212 0.8385 0.11926 0.0
H2292 H 0.21283 0.84505 0.10902 0.0
H2293 H 0.35756 0.77645 0.10589 0.0
H2294 H 0.02026 0.46804 0.13109 0.0
H2295 H 0.03919 0.47206 0.15422 0.0
H2296 H 0.05959 0.51458 0.13266 0.0
H2297 H 0.0406 0.51072 0.1096 0.0
H2298 H 0.08253 0.49169 0.14379 0.0
H2299 H 0.03689 0.51958 0.1618 0.0
H2300 H 0.00825 0.52184 0.16792 0.0
H2301 H 0.01188 0.4838 0.20177 0.0
H2302 H 0.04049 0.48115 0.19568 0.0
H2303 H 0.13476 0.52111 0.20563 0.0
H2304 H 0.11338 0.51864 0.18474 0.0
H2305 H 0.08657 0.48505 0.21359 0.0
H2306 H 0.10763 0.48822 0.23495 0.0
H2307 H 0.06628 0.50245 0.19884 0.0
H2308 H 0.11043 0.47334 0.18176 0.0
H2309 H 0.13868 0.4687 0.17569 0.0
H2310 H 0.1376 0.5054 0.14018 0.0
H2311 H 0.10939 0.5104 0.14618 0.0
C2312 C 0.02875 0.47827 0.13135 0.0
C2313 C 0.02899 0.48908 0.11859 0.0
C2314 C 0.03948 0.48059 0.14456 0.0
C2315 C 0.05072 0.49364 0.14513 0.0
C2316 C 0.05096 0.50446 0.13243 0.0
C2317 C 0.04008 0.50229 0.11933 0.0
C2318 C 0.06265 0.49571 0.15871 0.0
C2319 C 0.07904 0.49426 0.15581 0.0
C2320 C 0.05796 0.49841 0.17444 0.0
C2321 C 0.04079 0.50006 0.17816 0.0
C2322 C 0.03154 0.5116 0.17044 0.0
C2323 C 0.01532 0.51297 0.17393 0.0
C2324 C 0.00824 0.50294 0.1852 0.0
C2325 C 0.01737 0.49155 0.19303 0.0
C2326 C 0.0336 0.49012 0.18958 0.0
C2327 C 0.12425 0.51328 0.20755 0.0
C2328 C 0.12292 0.50473 0.22183 0.0
C2329 C 0.11207 0.51179 0.19556 0.0
C2330 C 0.09855 0.50129 0.19735 0.0
C2331 C 0.09692 0.49315 0.21185 0.0
C2332 C 0.10896 0.49495 0.22405 0.0
C2333 C 0.08633 0.49864 0.18396 0.0
C2334 C 0.06986 0.49988 0.18686 0.0
C2335 C 0.09091 0.49537 0.16824 0.0
C2336 C 0.10784 0.49234 0.16452 0.0
C2337 C 0.11625 0.48049 0.17273 0.0
C2338 C 0.13225 0.47779 0.16929 0.0
C2339 C 0.13994 0.48678 0.15758 0.0
C2340 C 0.13163 0.49845 0.14925 0.0
C2341 C 0.11563 0.50122 0.15266 0.0
H2342 H 0.15233 0.48467 0.15494 0.0
H2343 H 0.99568 0.50402 0.18788 0.0
H2344 H 0.36494 0.72507 0.30099 0.0
H2345 H 0.38786 0.72946 0.32003 0.0
H2346 H 0.41988 0.73659 0.28123 0.0
H2347 H 0.397 0.73183 0.26205 0.0
H2348 H 0.43272 0.71767 0.3048 0.0
H2349 H 0.40833 0.76817 0.30112 0.0
H2350 H 0.38596 0.78646 0.30143 0.0
H2351 H 0.37747 0.77387 0.35 0.0
H2352 H 0.39965 0.75532 0.34991 0.0
H2353 H 0.4981 0.75076 0.35487 0.0
H2354 H 0.47688 0.74764 0.33371 0.0
H2355 H 0.44116 0.73932 0.36901 0.0
H2356 H 0.46216 0.74242 0.39018 0.0
H2357 H 0.43123 0.7601 0.34588 0.0
H2358 H 0.45412 0.70863 0.34925 0.0
H2359 H 0.47612 0.68989 0.3493 0.0
H2360 H 0.48715 0.70399 0.3017 0.0
H2361 H 0.46533 0.72298 0.30146 0.0
C2362 C 0.37688 0.72739 0.29649 0.0
C2363 C 0.37915 0.72814 0.28001 0.0
C2364 C 0.38994 0.73004 0.30739 0.0
C2365 C 0.40553 0.73354 0.30204 0.0
C2366 C 0.40792 0.73398 0.2856 0.0
C2367 C 0.39484 0.73137 0.27467 0.0
C2368 C 0.41926 0.73688 0.31366 0.0
C2369 C 0.43253 0.72712 0.31361 0.0
C2370 C 0.41886 0.74902 0.32533 0.0
C2371 C 0.40557 0.76025 0.32546 0.0
C2372 C 0.40162 0.76921 0.31183 0.0
C2373 C 0.38898 0.77964 0.31197 0.0
C2374 C 0.38028 0.7813 0.32571 0.0
C2375 C 0.38422 0.77256 0.33936 0.0
C2376 C 0.39683 0.7621 0.33928 0.0
C2377 C 0.48573 0.74833 0.35814 0.0
C2378 C 0.48186 0.74678 0.37423 0.0
C2379 C 0.47363 0.74649 0.34603 0.0
C2380 C 0.45748 0.74315 0.34981 0.0
C2381 C 0.45355 0.7419 0.36585 0.0
C2382 C 0.46561 0.74362 0.37793 0.0
C2383 C 0.4446 0.74079 0.33712 0.0
C2384 C 0.43148 0.75074 0.33697 0.0
C2385 C 0.44513 0.7288 0.32531 0.0
C2386 C 0.45822 0.71736 0.32541 0.0
C2387 C 0.46133 0.70784 0.33885 0.0
C2388 C 0.47375 0.69715 0.3389 0.0
C2389 C 0.48306 0.69579 0.32553 0.0
C2390 C 0.47994 0.70508 0.31206 0.0
C2391 C 0.46754 0.7158 0.31195 0.0
H2392 H 0.49267 0.68751 0.32559 0.0
H2393 H 0.3705 0.78938 0.3258 0.0
H2394 H 0.01642 0.41858 0.99158 0.0
H2395 H 0.02123 0.39524 0.97515 0.0
H2396 H 0.9727 0.37662 0.98249 0.0
H2397 H 0.96784 0.39984 0.99896 0.0
H2398 H 0.99638 0.35463 0.98854 0.0
H2399 H 0.98123 0.39197 0.94755 0.0
H2400 H 0.9834 0.41739 0.93298 0.0
H2401 H 0.03223 0.40835 0.92187 0.0
H2402 H 0.03043 0.38296 0.93658 0.0
H2403 H 0.98876 0.29033 0.93592 0.0
H2404 H 0.98477 0.31586 0.94863 0.0
H2405 H 0.03145 0.33372 0.93382 0.0
H2406 H 0.03532 0.30823 0.92054 0.0
H2407 H 0.01044 0.35661 0.93169 0.0
H2408 H 0.02643 0.31988 0.97192 0.0
H2409 H 0.02562 0.2947 0.98697 0.0
H2410 H 0.97731 0.30291 0.00044 0.0
H2411 H 0.97775 0.32805 0.98529 0.0
C2412 C 0.00678 0.40951 0.98965 0.0
C2413 C 0.99175 0.41101 0.99654 0.0
C2414 C 0.00951 0.39626 0.98019 0.0
C2415 C 0.99728 0.38427 0.97756 0.0
C2416 C 0.98226 0.38578 0.98436 0.0
C2417 C 0.97948 0.39908 0.99368 0.0
C2418 C 0.00032 0.36977 0.96829 0.0
C2419 C 0.99925 0.35502 0.97605 0.0
C2420 C 0.00467 0.37041 0.95218 0.0
C2421 C 0.00575 0.38565 0.94331 0.0
C2422 C 0.99248 0.39547 0.94212 0.0
C2423 C 0.99363 0.40986 0.93381 0.0
C2424 C 0.00796 0.4145 0.92654 0.0
C2425 C 0.02115 0.40475 0.92753 0.0
C2426 C 0.02006 0.39035 0.93584 0.0
C2427 C 0.99815 0.29971 0.93525 0.0
C2428 C 0.01245 0.29719 0.9274 0.0
C2429 C 0.99587 0.3143 0.94257 0.0
C2430 C 0.00799 0.32657 0.94254 0.0
C2431 C 0.02198 0.32437 0.93409 0.0
C2432 C 0.02418 0.30981 0.92653 0.0
C2433 C 0.00619 0.34139 0.95186 0.0
C2434 C 0.00759 0.35619 0.94417 0.0
C2435 C 0.00237 0.34086 0.96814 0.0
C2436 C 0.00208 0.32579 0.97736 0.0
C2437 C 0.01559 0.31627 0.97801 0.0
C2438 C 0.0152 0.302 0.98656 0.0
C2439 C 0.0014 0.29719 0.99463 0.0
C2440 C 0.98798 0.30665 0.99418 0.0
C2441 C 0.9883 0.32091 0.98562 0.0
H2442 H 0.00113 0.28614 0.00125 0.0
H2443 H 0.00882 0.42565 0.92011 0.0
H2444 H 0.6716 0.81856 0.28883 0.0
H2445 H 0.65128 0.81544 0.30892 0.0
H2446 H 0.61726 0.79433 0.27369 0.0
H2447 H 0.63742 0.7979 0.25332 0.0
H2448 H 0.60287 0.81511 0.29299 0.0
H2449 H 0.6369 0.77091 0.29945 0.0
H2450 H 0.66269 0.75763 0.30299 0.0
H2451 H 0.67284 0.78248 0.34731 0.0
H2452 H 0.6472 0.79609 0.34393 0.0
H2453 H 0.55004 0.77679 0.34825 0.0
H2454 H 0.5679 0.78416 0.32675 0.0
H2455 H 0.60304 0.805 0.36109 0.0
H2456 H 0.58537 0.79753 0.38266 0.0
H2457 H 0.61643 0.78441 0.34176 0.0
H2458 H 0.58164 0.82822 0.33532 0.0
H2459 H 0.55559 0.84099 0.33154 0.0
H2460 H 0.54642 0.81618 0.28705 0.0
H2461 H 0.57233 0.80308 0.29067 0.0
C2462 C 0.65973 0.81346 0.28527 0.0
C2463 C 0.65615 0.80844 0.26947 0.0
C2464 C 0.64817 0.81156 0.29681 0.0
C2465 C 0.63283 0.80447 0.29284 0.0
C2466 C 0.62905 0.79978 0.27701 0.0
C2467 C 0.64063 0.80169 0.26543 0.0
C2468 C 0.62093 0.8016 0.30534 0.0
C2469 C 0.60574 0.80824 0.30357 0.0
C2470 C 0.62479 0.79284 0.31925 0.0
C2471 C 0.6402 0.78464 0.32135 0.0
C2472 C 0.64469 0.77364 0.30989 0.0
C2473 C 0.65927 0.76604 0.31188 0.0
C2474 C 0.66942 0.76924 0.32534 0.0
C2475 C 0.66498 0.78003 0.33687 0.0
C2476 C 0.65042 0.78768 0.33494 0.0
C2477 C 0.56146 0.78317 0.35122 0.0
C2478 C 0.56634 0.78647 0.36719 0.0
C2479 C 0.57163 0.78742 0.3389 0.0
C2480 C 0.5868 0.79514 0.34232 0.0
C2481 C 0.59141 0.799 0.35819 0.0
C2482 C 0.58126 0.79476 0.37051 0.0
C2483 C 0.5984 0.79809 0.32955 0.0
C2484 C 0.61355 0.79135 0.33123 0.0
C2485 C 0.59443 0.80667 0.31555 0.0
C2486 C 0.57886 0.81455 0.31334 0.0
C2487 C 0.57401 0.82538 0.32479 0.0
C2488 C 0.55928 0.8327 0.32267 0.0
C2489 C 0.54934 0.82937 0.30908 0.0
C2490 C 0.55412 0.81874 0.29758 0.0
C2491 C 0.56884 0.81137 0.29965 0.0
H2492 H 0.53794 0.83505 0.30746 0.0
H2493 H 0.6807 0.76334 0.32686 0.0
H2494 H 0.00782 0.10016 0.98075 0.0
H2495 H 0.00768 0.12533 0.96635 0.0
H2496 H 0.02329 0.10191 0.92431 0.0
H2497 H 0.02326 0.07653 0.93862 0.0
H2498 H 0.04156 0.12871 0.93131 0.0
H2499 H 0.98525 0.11464 0.92509 0.0
H2500 H 0.95818 0.10573 0.93359 0.0
H2501 H 0.95716 0.14679 0.96403 0.0
H2502 H 0.98434 0.15583 0.9559 0.0
H2503 H 0.037 0.20157 0.88832 0.0
H2504 H 0.03196 0.17368 0.89586 0.0
H2505 H 0.01443 0.1888 0.94084 0.0
H2506 H 0.01921 0.2166 0.93333 0.0
H2507 H 0.9957 0.16459 0.92856 0.0
H2508 H 0.05311 0.17652 0.93761 0.0
H2509 H 0.08048 0.18537 0.92985 0.0
H2510 H 0.07944 0.14818 0.89458 0.0
H2511 H 0.05197 0.13925 0.902 0.0
C2512 C 0.01088 0.10025 0.96833 0.0
C2513 C 0.01553 0.08631 0.96083 0.0
C2514 C 0.01082 0.11468 0.96012 0.0
C2515 C 0.01533 0.11547 0.94421 0.0
C2516 C 0.01975 0.10155 0.93659 0.0
C2517 C 0.01979 0.08708 0.9448 0.0
C2518 C 0.01642 0.13105 0.93598 0.0
C2519 C 0.03143 0.13643 0.93038 0.0
C2520 C 0.00329 0.14122 0.93506 0.0
C2521 C 0.9869 0.13585 0.93996 0.0
C2522 C 0.97931 0.12171 0.93369 0.0
C2523 C 0.96393 0.11665 0.93842 0.0
C2524 C 0.95597 0.12567 0.94936 0.0
C2525 C 0.96335 0.1398 0.95556 0.0
C2526 C 0.97874 0.14492 0.95088 0.0
C2527 C 0.032 0.19894 0.89978 0.0
C2528 C 0.02852 0.21129 0.91024 0.0
C2529 C 0.02915 0.183 0.90408 0.0
C2530 C 0.02296 0.17916 0.91898 0.0
C2531 C 0.01916 0.19149 0.92927 0.0
C2532 C 0.02193 0.20739 0.92496 0.0
C2533 C 0.02092 0.16235 0.9242 0.0
C2534 C 0.00574 0.15676 0.92925 0.0
C2535 C 0.03391 0.152 0.92467 0.0
C2536 C 0.05042 0.15734 0.92023 0.0
C2537 C 0.05867 0.17032 0.92811 0.0
C2538 C 0.07421 0.17533 0.92379 0.0
C2539 C 0.08167 0.16738 0.91169 0.0
C2540 C 0.07363 0.15436 0.90392 0.0
C2541 C 0.05808 0.14931 0.90819 0.0
H2542 H 0.0937 0.17127 0.90836 0.0
H2543 H 0.94406 0.12174 0.95301 0.0
H2544 H 0.38147 0.27411 0.24578 0.0
H2545 H 0.40287 0.27276 0.22666 0.0
H2546 H 0.3701 0.28847 0.18925 0.0
H2547 H 0.34857 0.28931 0.2081 0.0
H2548 H 0.38592 0.26373 0.17964 0.0
H2549 H 0.40009 0.31359 0.20616 0.0
H2550 H 0.40686 0.33122 0.22925 0.0
H2551 H 0.44836 0.30429 0.24135 0.0
H2552 H 0.44171 0.28635 0.21843 0.0
H2553 H 0.4389 0.28262 0.11924 0.0
H2554 H 0.42068 0.28645 0.14083 0.0
H2555 H 0.45503 0.26643 0.17423 0.0
H2556 H 0.47347 0.26259 0.15264 0.0
H2557 H 0.4395 0.29253 0.18677 0.0
H2558 H 0.42538 0.24295 0.15997 0.0
H2559 H 0.41863 0.22555 0.1367 0.0
H2560 H 0.37684 0.25224 0.12516 0.0
H2561 H 0.38347 0.26997 0.14825 0.0
C2562 C 0.37881 0.27719 0.23346 0.0
C2563 C 0.36331 0.28186 0.22848 0.0
C2564 C 0.3911 0.27657 0.22258 0.0
C2565 C 0.38813 0.28068 0.20655 0.0
C2566 C 0.37268 0.28531 0.20157 0.0
C2567 C 0.36042 0.28591 0.2124 0.0
C2568 C 0.40091 0.27968 0.19476 0.0
C2569 C 0.39756 0.2702 0.18113 0.0
C2570 C 0.41627 0.28775 0.19691 0.0
C2571 C 0.4203 0.29852 0.21068 0.0
C2572 C 0.41058 0.31134 0.21382 0.0
C2573 C 0.41441 0.32141 0.22686 0.0
C2574 C 0.428 0.31885 0.23679 0.0
C2575 C 0.43782 0.30624 0.23367 0.0
C2576 C 0.43403 0.29613 0.22065 0.0
C2577 C 0.44273 0.27923 0.1312 0.0
C2578 C 0.45757 0.27211 0.13417 0.0
C2579 C 0.43227 0.2814 0.14352 0.0
C2580 C 0.4364 0.27647 0.15906 0.0
C2581 C 0.4516 0.27025 0.1623 0.0
C2582 C 0.4621 0.26804 0.14994 0.0
C2583 C 0.42435 0.27683 0.17159 0.0
C2584 C 0.42786 0.28608 0.18535 0.0
C2585 C 0.40909 0.26857 0.16959 0.0
C2586 C 0.40501 0.25787 0.15575 0.0
C2587 C 0.41482 0.24519 0.1524 0.0
C2588 C 0.41101 0.23525 0.13926 0.0
C2589 C 0.39734 0.23781 0.12944 0.0
C2590 C 0.38743 0.25029 0.13277 0.0
C2591 C 0.3912 0.26027 0.14589 0.0
H2592 H 0.3944 0.2301 0.11927 0.0
H2593 H 0.43095 0.32666 0.24688 0.0
H2594 H 0.52844 0.42652 0.04382 0.0
H2595 H 0.52459 0.40126 0.05807 0.0
H2596 H 0.52778 0.37547 0.01387 0.0
H2597 H 0.53119 0.40062 0.99961 0.0
H2598 H 0.5041 0.36305 0.02931 0.0
H2599 H 0.55952 0.37895 0.0433 0.0
H2600 H 0.58184 0.39686 0.0541 0.0
H2601 H 0.56071 0.39626 0.09991 0.0
H2602 H 0.53814 0.37849 0.08932 0.0
H2603 H 0.52465 0.28659 0.05442 0.0
H2604 H 0.52786 0.31405 0.04526 0.0
H2605 H 0.50867 0.3308 0.0888 0.0
H2606 H 0.5051 0.30318 0.09807 0.0
H2607 H 0.53858 0.34858 0.07635 0.0
H2608 H 0.48381 0.33069 0.06154 0.0
H2609 H 0.46285 0.31172 0.04994 0.0
H2610 H 0.48457 0.31528 0.00449 0.0
H2611 H 0.50582 0.3341 0.01589 0.0
C2612 C 0.52837 0.41543 0.0372 0.0
C2613 C 0.53005 0.41552 0.02061 0.0
C2614 C 0.52622 0.40101 0.04534 0.0
C2615 C 0.52604 0.38641 0.03708 0.0
C2616 C 0.52778 0.38654 0.02052 0.0
C2617 C 0.52972 0.40092 0.01237 0.0
C2618 C 0.5238 0.37094 0.0455 0.0
C2619 C 0.51175 0.35991 0.03952 0.0
C2620 C 0.53349 0.36689 0.05909 0.0
C2621 C 0.54705 0.37755 0.06547 0.0
C2622 C 0.55956 0.38274 0.05564 0.0
C2623 C 0.57227 0.39285 0.06173 0.0
C2624 C 0.57266 0.39773 0.07767 0.0
C2625 C 0.56037 0.39249 0.08756 0.0
C2626 C 0.54762 0.3824 0.08153 0.0
C2627 C 0.52126 0.29607 0.06218 0.0
C2628 C 0.51453 0.29266 0.07697 0.0
C2629 C 0.52309 0.31177 0.05689 0.0
C2630 C 0.51843 0.32439 0.06633 0.0
C2631 C 0.51234 0.32117 0.08138 0.0
C2632 C 0.51026 0.3054 0.08661 0.0
C2633 C 0.51916 0.34079 0.05991 0.0
C2634 C 0.53087 0.35192 0.06626 0.0
C2635 C 0.50932 0.3449 0.04653 0.0
C2636 C 0.49648 0.33369 0.03961 0.0
C2637 C 0.4842 0.32732 0.04911 0.0
C2638 C 0.47225 0.31662 0.04256 0.0
C2639 C 0.4724 0.31227 0.0265 0.0
C2640 C 0.48447 0.31865 0.01694 0.0
C2641 C 0.49647 0.32935 0.02343 0.0
H2642 H 0.46313 0.30398 0.02146 0.0
H2643 H 0.58251 0.40555 0.08236 0.0
H2644 H 0.64364 0.19595 0.20602 0.0
H2645 H 0.62203 0.20023 0.18599 0.0
H2646 H 0.61206 0.24451 0.20873 0.0
H2647 H 0.63417 0.24086 0.22834 0.0
H2648 H 0.58383 0.22277 0.20052 0.0
H2649 H 0.63109 0.24816 0.17767 0.0
H2650 H 0.65912 0.24899 0.16886 0.0
H2651 H 0.64687 0.21044 0.13617 0.0
H2652 H 0.6188 0.20923 0.14497 0.0
H2653 H 0.53121 0.25343 0.14035 0.0
H2654 H 0.55234 0.24964 0.16105 0.0
H2655 H 0.57314 0.21448 0.13158 0.0
H2656 H 0.55259 0.21889 0.11056 0.0
H2657 H 0.59611 0.23175 0.14384 0.0
H2658 H 0.54971 0.20521 0.16576 0.0
H2659 H 0.52174 0.20234 0.17464 0.0
H2660 H 0.53191 0.2399 0.20893 0.0
H2661 H 0.55989 0.24314 0.20011 0.0
C2662 C 0.63705 0.20673 0.20669 0.0
C2663 C 0.64077 0.21807 0.21886 0.0
C2664 C 0.6246 0.20907 0.19529 0.0
C2665 C 0.61549 0.22267 0.19592 0.0
C2666 C 0.61891 0.23388 0.20814 0.0
C2667 C 0.63152 0.2317 0.21939 0.0
C2668 C 0.60257 0.22536 0.18364 0.0
C2669 C 0.58646 0.22493 0.18814 0.0
C2670 C 0.60606 0.2277 0.16747 0.0
C2671 C 0.6229 0.22849 0.1621 0.0
C2672 C 0.63441 0.23976 0.1687 0.0
C2673 C 0.6503 0.24032 0.16369 0.0
C2674 C 0.65479 0.22974 0.15199 0.0
C2675 C 0.64338 0.21861 0.14525 0.0
C2676 C 0.62748 0.21799 0.15024 0.0
C2677 C 0.54028 0.24487 0.13833 0.0
C2678 C 0.54026 0.23646 0.12384 0.0
C2679 C 0.55231 0.24263 0.15022 0.0
C2680 C 0.56425 0.23157 0.14804 0.0
C2681 C 0.56413 0.22311 0.13358 0.0
C2682 C 0.55235 0.22561 0.12157 0.0
C2683 C 0.57713 0.22907 0.16059 0.0
C2684 C 0.59332 0.22956 0.15617 0.0
C2685 C 0.57366 0.22647 0.1768 0.0
C2686 C 0.55685 0.22453 0.18216 0.0
C2687 C 0.54595 0.21294 0.17511 0.0
C2688 C 0.5301 0.21123 0.18015 0.0
C2689 C 0.52504 0.22096 0.19231 0.0
C2690 C 0.53584 0.23239 0.19949 0.0
C2691 C 0.5517 0.23416 0.19449 0.0
H2692 H 0.51276 0.21962 0.19619 0.0
H2693 H 0.66709 0.2302 0.14813 0.0
H2694 H 0.45526 0.08377 0.02484 0.0
H2695 H 0.45868 0.10766 0.0413 0.0
H2696 H 0.50382 0.11996 0.01956 0.0
H2697 H 0.50115 0.09539 0.00393 0.0
H2698 H 0.50697 0.12697 0.04947 0.0
H2699 H 0.46721 0.13753 0.00835 0.0
H2700 H 0.44216 0.13284 0.9917 0.0
H2701 H 0.41389 0.13551 0.03321 0.0
H2702 H 0.43879 0.14001 0.05014 0.0
H2703 H 0.50722 0.21119 0.06524 0.0
H2704 H 0.50606 0.18495 0.05251 0.0
H2705 H 0.46899 0.16868 0.08396 0.0
H2706 H 0.47033 0.19481 0.09706 0.0
H2707 H 0.46183 0.16366 0.05 0.0
H2708 H 0.50321 0.15471 0.09061 0.0
H2709 H 0.5289 0.16099 0.10574 0.0
H2710 H 0.55496 0.1572 0.06289 0.0
H2711 H 0.52938 0.15114 0.04745 0.0
C2712 C 0.4661 0.09133 0.02374 0.0
C2713 C 0.47789 0.08759 0.01292 0.0
C2714 C 0.46792 0.10517 0.03303 0.0
C2715 C 0.48133 0.11584 0.03144 0.0
C2716 C 0.4933 0.11199 0.02094 0.0
C2717 C 0.49164 0.098 0.01183 0.0
C2718 C 0.48274 0.1311 0.04053 0.0
C2719 C 0.49715 0.13506 0.04942 0.0
C2720 C 0.46988 0.14162 0.04068 0.0
C2721 C 0.45487 0.13894 0.03053 0.0
C2722 C 0.45565 0.137 0.01394 0.0
C2723 C 0.44148 0.13439 0.00445 0.0
C2724 C 0.42645 0.13383 0.0114 0.0
C2725 C 0.42555 0.13592 0.02785 0.0
C2726 C 0.43968 0.13851 0.03739 0.0
C2727 C 0.49898 0.20201 0.06962 0.0
C2728 C 0.48891 0.2051 0.08221 0.0
C2729 C 0.49834 0.18701 0.06233 0.0
C2730 C 0.48747 0.17491 0.06734 0.0
C2731 C 0.47748 0.17789 0.07997 0.0
C2732 C 0.47831 0.1928 0.08745 0.0
C2733 C 0.48598 0.15941 0.05887 0.0
C2734 C 0.47158 0.15548 0.05007 0.0
C2735 C 0.49894 0.14911 0.05856 0.0
C2736 C 0.51435 0.15263 0.06785 0.0
C2737 C 0.5144 0.15536 0.08438 0.0
C2738 C 0.52895 0.15885 0.09302 0.0
C2739 C 0.54355 0.15954 0.08527 0.0
C2740 C 0.54364 0.15669 0.06888 0.0
C2741 C 0.52912 0.15321 0.06018 0.0
H2742 H 0.5548 0.16224 0.09198 0.0
H2743 H 0.41549 0.13181 0.00403 0.0
H2744 H 0.25928 0.39664 0.72534 0.0
H2745 H 0.2795 0.41872 0.729 0.0
H2746 H 0.31764 0.38602 0.72459 0.0
H2747 H 0.29754 0.36384 0.72143 0.0
H2748 H 0.32446 0.40654 0.74875 0.0
H2749 H 0.30635 0.40992 0.69367 0.0
H2750 H 0.28622 0.41192 0.67135 0.0
H2751 H 0.27163 0.45639 0.68998 0.0
H2752 H 0.29154 0.45455 0.71255 0.0
H2753 H 0.39057 0.45909 0.73161 0.0
H2754 H 0.36871 0.43854 0.73045 0.0
H2755 H 0.33388 0.47436 0.73643 0.0
H2756 H 0.35569 0.49511 0.73749 0.0
H2757 H 0.32433 0.4533 0.71272 0.0
H2758 H 0.34367 0.45054 0.76708 0.0
H2759 H 0.36408 0.44851 0.78914 0.0
H2760 H 0.37656 0.40281 0.7717 0.0
H2761 H 0.35637 0.40467 0.74939 0.0
C2762 C 0.27198 0.39413 0.72529 0.0
C2763 C 0.2768 0.37848 0.72302 0.0
C2764 C 0.28351 0.40678 0.72725 0.0
C2765 C 0.30008 0.40404 0.72689 0.0
C2766 C 0.30492 0.38842 0.72485 0.0
C2767 C 0.29341 0.37578 0.7229 0.0
C2768 C 0.31242 0.41742 0.72861 0.0
C2769 C 0.32453 0.41669 0.74077 0.0
C2770 C 0.31226 0.43086 0.71846 0.0
C2771 C 0.30031 0.43201 0.70489 0.0
C2772 C 0.29876 0.42006 0.69308 0.0
C2773 C 0.28741 0.42117 0.68037 0.0
C2774 C 0.27762 0.43425 0.67928 0.0
C2775 C 0.2792 0.44626 0.69086 0.0
C2776 C 0.29052 0.44519 0.70361 0.0
C2777 C 0.37828 0.46265 0.73273 0.0
C2778 C 0.37492 0.47878 0.73468 0.0
C2779 C 0.36579 0.45085 0.73213 0.0
C2780 C 0.34968 0.4549 0.73353 0.0
C2781 C 0.34624 0.47098 0.73537 0.0
C2782 C 0.35874 0.48281 0.73602 0.0
C2783 C 0.33646 0.44232 0.73275 0.0
C2784 C 0.32419 0.44321 0.72077 0.0
C2785 C 0.33648 0.429 0.74305 0.0
C2786 C 0.3486 0.42781 0.75648 0.0
C2787 C 0.35085 0.44012 0.76788 0.0
C2788 C 0.36237 0.43899 0.78044 0.0
C2789 C 0.37164 0.42556 0.7818 0.0
C2790 C 0.36938 0.41321 0.77062 0.0
C2791 C 0.35789 0.41429 0.75803 0.0
H2792 H 0.38054 0.4247 0.79154 0.0
H2793 H 0.26885 0.43509 0.66942 0.0
H2794 H 0.24902 0.63372 0.76164 0.0
H2795 H 0.2697 0.61406 0.75944 0.0
H2796 H 0.30648 0.64935 0.77538 0.0
H2797 H 0.28602 0.66915 0.77707 0.0
H2798 H 0.31611 0.63314 0.75055 0.0
H2799 H 0.2921 0.62002 0.80036 0.0
H2800 H 0.26972 0.61281 0.8178 0.0
H2801 H 0.25858 0.5701 0.79048 0.0
H2802 H 0.28078 0.57716 0.77274 0.0
H2803 H 0.38121 0.58525 0.76896 0.0
H2804 H 0.35881 0.60263 0.7722 0.0
H2805 H 0.32512 0.56529 0.75449 0.0
H2806 H 0.3475 0.54769 0.75139 0.0
H2807 H 0.31309 0.58157 0.77928 0.0
H2808 H 0.33741 0.5944 0.72985 0.0
H2809 H 0.35983 0.60155 0.71242 0.0
H2810 H 0.37023 0.64488 0.73896 0.0
H2811 H 0.34801 0.63788 0.75669 0.0
C2812 C 0.26154 0.63732 0.76453 0.0
C2813 C 0.26585 0.653 0.7696 0.0
C2814 C 0.27332 0.62603 0.76343 0.0
C2815 C 0.28962 0.63017 0.76744 0.0
C2816 C 0.29397 0.64585 0.77229 0.0
C2817 C 0.28223 0.65713 0.77338 0.0
C2818 C 0.30227 0.6183 0.7664 0.0
C2819 C 0.31553 0.62196 0.75699 0.0
C2820 C 0.30131 0.6035 0.77444 0.0
C2821 C 0.28799 0.59921 0.78512 0.0
C2822 C 0.2848 0.60916 0.79799 0.0
C2823 C 0.27216 0.60508 0.80795 0.0
C2824 C 0.2627 0.59103 0.80523 0.0
C2825 C 0.2659 0.58099 0.79256 0.0
C2826 C 0.27851 0.58502 0.78256 0.0
C2827 C 0.36903 0.58064 0.76591 0.0
C2828 C 0.36617 0.56512 0.75975 0.0
C2829 C 0.35624 0.59062 0.76772 0.0
C2830 C 0.34033 0.58536 0.76329 0.0
C2831 C 0.33732 0.56962 0.75789 0.0
C2832 C 0.35013 0.55958 0.75611 0.0
C2833 C 0.32702 0.59656 0.76363 0.0
C2834 C 0.31363 0.59275 0.77283 0.0
C2835 C 0.32783 0.61125 0.75539 0.0
C2836 C 0.34114 0.61554 0.74468 0.0
C2837 C 0.34455 0.6054 0.73204 0.0
C2838 C 0.35721 0.60943 0.72209 0.0
C2839 C 0.36647 0.62364 0.7246 0.0
C2840 C 0.36306 0.63387 0.73704 0.0
C2841 C 0.35043 0.62988 0.74703 0.0
H2842 H 0.37627 0.62675 0.71689 0.0
H2843 H 0.25292 0.58789 0.81295 0.0
H2844 H 0.87675 0.48826 0.47674 0.0
H2845 H 0.85293 0.47066 0.48111 0.0
H2846 H 0.88155 0.42961 0.47557 0.0
H2847 H 0.90537 0.44709 0.47122 0.0
H2848 H 0.85307 0.42564 0.45953 0.0
H2849 H 0.87152 0.44275 0.51243 0.0
H2850 H 0.87925 0.46247 0.53355 0.0
H2851 H 0.83184 0.48097 0.52966 0.0
H2852 H 0.8239 0.46148 0.50835 0.0
H2853 H 0.80916 0.36348 0.49593 0.0
H2854 H 0.82914 0.38448 0.48969 0.0
H2855 H 0.79338 0.4197 0.4939 0.0
H2856 H 0.77314 0.39865 0.50028 0.0
H2857 H 0.8229 0.42873 0.50915 0.0
H2858 H 0.8038 0.40963 0.45784 0.0
H2859 H 0.79626 0.38941 0.43716 0.0
H2860 H 0.84506 0.37432 0.4383 0.0
H2861 H 0.85286 0.3943 0.45916 0.0
C2862 C 0.87798 0.47548 0.47655 0.0
C2863 C 0.89296 0.46907 0.47366 0.0
C2864 C 0.86435 0.46544 0.47903 0.0
C2865 C 0.86549 0.44882 0.47881 0.0
C2866 C 0.88038 0.4424 0.47573 0.0
C2867 C 0.89397 0.45241 0.4732 0.0
C2868 C 0.85125 0.438 0.48184 0.0
C2869 C 0.84656 0.42624 0.47044 0.0
C2870 C 0.84244 0.43909 0.49585 0.0
C2871 C 0.84718 0.45079 0.50867 0.0
C2872 C 0.86279 0.45111 0.51599 0.0
C2873 C 0.8672 0.46223 0.52801 0.0
C2874 C 0.85606 0.473 0.53291 0.0
C2875 C 0.84047 0.47264 0.52583 0.0
C2876 C 0.836 0.46156 0.51379 0.0
C2877 C 0.80546 0.37567 0.49556 0.0
C2878 C 0.78948 0.37934 0.49856 0.0
C2879 C 0.81692 0.38766 0.49191 0.0
C2880 C 0.81269 0.40361 0.49113 0.0
C2881 C 0.79686 0.40744 0.49438 0.0
C2882 C 0.78531 0.39539 0.49798 0.0
C2883 C 0.82498 0.41618 0.487 0.0
C2884 C 0.82929 0.42826 0.49816 0.0
C2885 C 0.83349 0.41537 0.47279 0.0
C2886 C 0.82888 0.4034 0.46015 0.0
C2887 C 0.8129 0.40192 0.45376 0.0
C2888 C 0.80858 0.39051 0.442 0.0
C2889 C 0.82016 0.38056 0.43644 0.0
C2890 C 0.8361 0.38203 0.44262 0.0
C2891 C 0.84048 0.39341 0.4544 0.0
H2892 H 0.8168 0.37173 0.42733 0.0
H2893 H 0.85949 0.4816 0.54222 0.0
H2894 H 0.73626 0.842 0.74502 0.0
H2895 H 0.71947 0.86508 0.74296 0.0
H2896 H 0.71331 0.86379 0.79368 0.0
H2897 H 0.7304 0.84087 0.79594 0.0
H2898 H 0.68455 0.87067 0.77531 0.0
H2899 H 0.7406 0.88859 0.78121 0.0
H2900 H 0.76932 0.88934 0.77455 0.0
H2901 H 0.75669 0.90496 0.72717 0.0
H2902 H 0.72785 0.90407 0.73349 0.0
H2903 H 0.66303 0.95216 0.78406 0.0
H2904 H 0.67333 0.92536 0.78614 0.0
H2905 H 0.6884 0.92854 0.73763 0.0
H2906 H 0.67866 0.95542 0.73569 0.0
H2907 H 0.71227 0.92012 0.75584 0.0
H2908 H 0.65625 0.90286 0.74966 0.0
H2909 H 0.62741 0.90176 0.7559 0.0
H2910 H 0.63939 0.88486 0.80296 0.0
H2911 H 0.66834 0.88606 0.79708 0.0
C2912 C 0.73134 0.8466 0.75576 0.0
C2913 C 0.73487 0.8397 0.77068 0.0
C2914 C 0.72166 0.85972 0.75453 0.0
C2915 C 0.71529 0.86621 0.76819 0.0
C2916 C 0.71808 0.85891 0.78299 0.0
C2917 C 0.72784 0.8458 0.78425 0.0
C2918 C 0.70683 0.88133 0.76713 0.0
C2919 C 0.6906 0.88156 0.77121 0.0
C2920 C 0.71471 0.89542 0.76155 0.0
C2921 C 0.73206 0.89612 0.75778 0.0
C2922 C 0.74394 0.89207 0.76934 0.0
C2923 C 0.76024 0.89253 0.76563 0.0
C2924 C 0.76483 0.89715 0.75043 0.0
C2925 C 0.75312 0.90136 0.73893 0.0
C2926 C 0.7368 0.90089 0.74257 0.0
C2927 C 0.66826 0.947 0.77375 0.0
C2928 C 0.67017 0.95594 0.75976 0.0
C2929 C 0.67411 0.93166 0.77494 0.0
C2930 C 0.68166 0.9249 0.76203 0.0
C2931 C 0.68275 0.93353 0.74779 0.0
C2932 C 0.67715 0.94889 0.74669 0.0
C2933 C 0.68975 0.90953 0.76369 0.0
C2934 C 0.70607 0.90927 0.75985 0.0
C2935 C 0.68188 0.89546 0.76941 0.0
C2936 C 0.66448 0.89471 0.77298 0.0
C2937 C 0.65275 0.89904 0.76139 0.0
C2938 C 0.63638 0.89837 0.76485 0.0
C2939 C 0.63158 0.89328 0.77983 0.0
C2940 C 0.64313 0.88881 0.79137 0.0
C2941 C 0.65952 0.88947 0.78797 0.0
H2942 H 0.6189 0.89277 0.78249 0.0
H2943 H 0.77745 0.89751 0.74758 0.0
H2944 H 0.6308 0.52447 0.97183 0.0
H2945 H 0.65453 0.54284 0.97665 0.0
H2946 H 0.62953 0.56689 0.01295 0.0
H2947 H 0.60593 0.54835 0.00844 0.0
H2948 H 0.6445 0.58676 0.98718 0.0
H2949 H 0.65608 0.54579 0.0262 0.0
H2950 H 0.66027 0.51809 0.03448 0.0
H2951 H 0.69947 0.51569 0.00288 0.0
H2952 H 0.69534 0.54331 0.99422 0.0
H2953 H 0.70413 0.63958 0.02105 0.0
H2954 H 0.68251 0.61911 0.01676 0.0
H2955 H 0.7157 0.58873 0.99463 0.0
H2956 H 0.73766 0.60899 0.99964 0.0
H2957 H 0.69698 0.57119 0.01163 0.0
H2958 H 0.68718 0.61073 0.97248 0.0
H2959 H 0.68344 0.63765 0.96172 0.0
H2960 H 0.64168 0.64203 0.98966 0.0
H2961 H 0.6453 0.6152 0.00077 0.0
C2962 C 0.63045 0.53363 0.98089 0.0
C2963 C 0.6166 0.53502 0.98979 0.0
C2964 C 0.64397 0.54405 0.98365 0.0
C2965 C 0.64373 0.55616 0.99516 0.0
C2966 C 0.62991 0.55758 0.00404 0.0
C2967 C 0.61651 0.54698 0.00151 0.0
C2968 C 0.65769 0.56769 0.99761 0.0
C2969 C 0.65594 0.58346 0.9927 0.0
C2970 C 0.67275 0.56312 0.00418 0.0
C2971 C 0.67528 0.54655 0.00943 0.0
C2972 C 0.66548 0.5393 0.02089 0.0
C2973 C 0.66787 0.52363 0.02568 0.0
C2974 C 0.6801 0.51512 0.01917 0.0
C2975 C 0.68999 0.52228 0.00789 0.0
C2976 C 0.68764 0.53795 0.00305 0.0
C2977 C 0.70685 0.62853 0.01529 0.0
C2978 C 0.72257 0.62595 0.01055 0.0
C2979 C 0.69444 0.61685 0.01276 0.0
C2980 C 0.69732 0.6025 0.00498 0.0
C2981 C 0.71312 0.59972 0.00057 0.0
C2982 C 0.72566 0.61131 0.00342 0.0
C2983 C 0.68379 0.59051 0.00146 0.0
C2984 C 0.68561 0.5746 0.00606 0.0
C2985 C 0.66886 0.59486 0.99423 0.0
C2986 C 0.6666 0.611 0.98756 0.0
C2987 C 0.67727 0.61747 0.97641 0.0
C2988 C 0.67516 0.63271 0.97024 0.0
C2989 C 0.66235 0.64156 0.97503 0.0
C2990 C 0.6516 0.63517 0.98598 0.0
C2991 C 0.65367 0.61994 0.9922 0.0
H2992 H 0.66074 0.65336 0.97024 0.0
H2993 H 0.68193 0.50298 0.0229 0.0
H2994 H 0.2306 0.67086 0.23916 0.0
H2995 H 0.21048 0.64885 0.2425 0.0
H2996 H 0.2472 0.61497 0.23623 0.0
H2997 H 0.26733 0.63689 0.23281 0.0
H2998 H 0.21797 0.60737 0.21881 0.0
H2999 H 0.23663 0.62298 0.27244 0.0
H3000 H 0.24173 0.64211 0.29462 0.0
H3001 H 0.1912 0.65135 0.29417 0.0
H3002 H 0.18584 0.63243 0.27181 0.0
H3003 H 0.19043 0.53525 0.25184 0.0
H3004 H 0.20442 0.56006 0.2444 0.0
H3005 H 0.16415 0.58645 0.25904 0.0
H3006 H 0.15009 0.56149 0.26686 0.0
H3007 H 0.19161 0.60007 0.27042 0.0
H3008 H 0.172 0.58223 0.21926 0.0
H3009 H 0.16636 0.56327 0.19703 0.0
H3010 H 0.21729 0.55877 0.19205 0.0
H3011 H 0.22326 0.57752 0.21442 0.0
C3012 C 0.23433 0.65871 0.23839 0.0
C3013 C 0.25053 0.65556 0.2358 0.0
C3014 C 0.22286 0.64618 0.24036 0.0
C3015 C 0.22739 0.63031 0.23967 0.0
C3016 C 0.24348 0.62715 0.23679 0.0
C3017 C 0.25497 0.63965 0.23498 0.0
C3018 C 0.21552 0.61694 0.24233 0.0
C3019 C 0.21225 0.60569 0.2301 0.0
C3020 C 0.20765 0.61512 0.25687 0.0
C3021 C 0.21087 0.62645 0.27034 0.0
C3022 C 0.22663 0.6292 0.27697 0.0
C3023 C 0.22957 0.63999 0.2896 0.0
C3024 C 0.21681 0.64798 0.29577 0.0
C3025 C 0.20107 0.64518 0.28936 0.0
C3026 C 0.19808 0.63442 0.27672 0.0
C3027 C 0.1844 0.54628 0.25328 0.0
C3028 C 0.16909 0.54638 0.25985 0.0
C3029 C 0.19242 0.56049 0.24896 0.0
C3030 C 0.18524 0.57512 0.25091 0.0
C3031 C 0.16988 0.57529 0.25736 0.0
C3032 C 0.16186 0.56103 0.26179 0.0
C3033 C 0.19429 0.5902 0.24701 0.0
C3034 C 0.19706 0.60182 0.25899 0.0
C3035 C 0.20158 0.59243 0.23217 0.0
C3036 C 0.19807 0.58122 0.2186 0.0
C3037 C 0.18201 0.57712 0.2135 0.0
C3038 C 0.17875 0.56642 0.20086 0.0
C3039 C 0.19146 0.5598 0.19315 0.0
C3040 C 0.20746 0.56391 0.19804 0.0
C3041 C 0.21079 0.57459 0.21068 0.0
H3042 H 0.18891 0.55152 0.18336 0.0
H3043 H 0.2191 0.65632 0.30555 0.0
H3044 H 0.92902 0.54915 0.02972 0.0
H3045 H 0.90716 0.56711 0.0242 0.0
H3046 H 0.87237 0.52715 0.02394 0.0
H3047 H 0.89429 0.50906 0.02922 0.0
H3048 H 0.86484 0.54726 0.0006 0.0
H3049 H 0.87775 0.55193 0.05641 0.0
H3050 H 0.89538 0.55597 0.08064 0.0
H3051 H 0.90954 0.60307 0.06506 0.0
H3052 H 0.89216 0.59923 0.04061 0.0
H3053 H 0.79771 0.59777 0.01165 0.0
H3054 H 0.81772 0.57722 0.01385 0.0
H3055 H 0.85618 0.61335 0.01027 0.0
H3056 H 0.8364 0.63386 0.00805 0.0
H3057 H 0.86041 0.5939 0.03624 0.0
H3058 H 0.8472 0.58836 0.97988 0.0
H3059 H 0.82891 0.58378 0.95619 0.0
H3060 H 0.81413 0.53764 0.97389 0.0
H3061 H 0.83218 0.54204 0.99781 0.0
C3062 C 0.91671 0.5442 0.02853 0.0
C3063 C 0.91335 0.52773 0.03005 0.0
C3064 C 0.90422 0.55446 0.02538 0.0
C3065 C 0.88808 0.54852 0.02394 0.0
C3066 C 0.88472 0.53202 0.02503 0.0
C3067 C 0.89725 0.5217 0.02805 0.0
C3068 C 0.87476 0.55961 0.02161 0.0
C3069 C 0.86373 0.55733 0.00853 0.0
C3070 C 0.87336 0.57283 0.03187 0.0
C3071 C 0.88376 0.57523 0.04661 0.0
C3072 C 0.88471 0.56311 0.05809 0.0
C3073 C 0.89464 0.56537 0.07188 0.0
C3074 C 0.9036 0.57975 0.07437 0.0
C3075 C 0.90261 0.59192 0.06311 0.0
C3076 C 0.8927 0.58972 0.04929 0.0
C3077 C 0.81042 0.6013 0.01111 0.0
C3078 C 0.81546 0.61747 0.00978 0.0
C3079 C 0.82183 0.58955 0.01234 0.0
C3080 C 0.83843 0.59378 0.01226 0.0
C3081 C 0.84343 0.60984 0.01042 0.0
C3082 C 0.83208 0.62155 0.00912 0.0
C3083 C 0.85073 0.58173 0.01507 0.0
C3084 C 0.86151 0.5838 0.02834 0.0
C3085 C 0.85175 0.56826 0.00509 0.0
C3086 C 0.8409 0.56561 0.99072 0.0
C3087 C 0.83993 0.5773 0.97879 0.0
C3088 C 0.82964 0.57472 0.96531 0.0
C3089 C 0.82033 0.56045 0.96355 0.0
C3090 C 0.82133 0.5487 0.97527 0.0
C3091 C 0.8316 0.55123 0.98879 0.0
H3092 H 0.81237 0.55847 0.9531 0.0
H3093 H 0.91129 0.58148 0.08505 0.0
H3094 H 0.10158 0.9729 0.02901 0.0
H3095 H 0.12641 0.95863 0.02746 0.0
H3096 H 0.12066 0.95761 0.97615 0.0
H3097 H 0.09541 0.97141 0.97764 0.0
H3098 H 0.12886 0.92925 0.98733 0.0
H3099 H 0.14905 0.9829 0.99464 0.0
H3100 H 0.15162 0.00959 0.00704 0.0
H3101 H 0.16831 0.98912 0.05121 0.0
H3102 H 0.16561 0.96227 0.03914 0.0
H3103 H 0.20646 0.89573 0.98509 0.0
H3104 H 0.18542 0.91492 0.98019 0.0
H3105 H 0.18127 0.92074 0.03089 0.0
H3106 H 0.20227 0.90186 0.03587 0.0
H3107 H 0.17973 0.94895 0.01572 0.0
H3108 H 0.15545 0.89529 0.00925 0.0
H3109 H 0.15252 0.86852 0.99701 0.0
H3110 H 0.14356 0.88941 0.95103 0.0
H3111 H 0.14663 0.91632 0.96299 0.0
C3112 C 0.10549 0.96952 0.01739 0.0
C3113 C 0.09649 0.9733 0.00345 0.0
C3114 C 0.11981 0.96153 0.01651 0.0
C3115 C 0.12554 0.95728 0.00167 0.0
C3116 C 0.11653 0.96088 0.98772 0.0
C3117 C 0.10216 0.96886 0.98859 0.0
C3118 C 0.14069 0.94864 0.00086 0.0
C3119 C 0.14009 0.93372 0.99324 0.0
C3120 C 0.1553 0.9544 0.0087 0.0
C3121 C 0.15702 0.97055 0.016 0.0
C3122 C 0.15316 0.98407 0.00703 0.0
C3123 C 0.15466 0.99924 0.01399 0.0
C3124 C 0.1601 0.00105 0.02991 0.0
C3125 C 0.16409 0.9877 0.03888 0.0
C3126 C 0.1626 0.9725 0.03198 0.0
C3127 C 0.2012 0.90127 0.99518 0.0
C3128 C 0.20593 0.89717 0.01087 0.0
C3129 C 0.18915 0.91218 0.99236 0.0
C3130 C 0.18165 0.91911 0.00518 0.0
C3131 C 0.18688 0.91554 0.02081 0.0
C3132 C 0.19885 0.90467 0.02363 0.0
C3133 C 0.16774 0.92941 0.00258 0.0
C3134 C 0.16859 0.94465 0.00955 0.0
C3135 C 0.15337 0.92397 0.99413 0.0
C3136 C 0.15147 0.9078 0.98697 0.0
C3137 C 0.15298 0.89417 0.99651 0.0
C3138 C 0.15127 0.87897 0.98963 0.0
C3139 C 0.14791 0.87726 0.97324 0.0
C3140 C 0.1462 0.89075 0.96371 0.0
C3141 C 0.14792 0.90597 0.97053 0.0
H3142 H 0.14659 0.86549 0.96794 0.0
H3143 H 0.16125 0.0128 0.03528 0.0
loop_
_geom_bond_atom_site_label_1
_geom_bond_atom_site_label_2
_geom_bond_distance
_geom_bond_site_symmetry_2
_ccdc_geom_bond_type
C0 C1 1.384 . S
C0 H13 0.947 . S
C0 C35 1.382 1_655 S
C1 C0 1.384 . S
C1 C2 1.378 1_655 S
C2 C1 1.378 1_455 S
C2 C3 1.378 . S
C2 H14 0.952 . S
C3 C2 1.378 . S
C3 H15 0.950 . S
C3 C34 1.383 . S
H4 C23 0.947 . S
H5 C24 0.946 . S
H6 C26 0.953 . S
H7 C27 0.945 . S
H8 C29 0.952 . S
H9 C30 0.949 . S
H10 C32 0.950 . S
H11 C33 0.948 . S
H12 C35 0.951 . S
H13 C0 0.947 . S
H14 C2 0.952 . S
H15 C3 0.950 . S
N16 C19 1.382 . S
N16 C21 1.363 . S
N17 C19 1.371 . S
N17 C20 1.372 . S
N18 C20 1.361 . S
N18 C21 1.377 . S
C19 N16 1.382 . S
C19 N17 1.371 . S
C19 C22 1.480 . S
C20 N17 1.372 . S
C20 N18 1.361 . S
C20 C28 1.457 . S
C21 N16 1.363 . S
C21 N18 1.377 . S
C21 C34 1.479 . S
C22 C19 1.480 . S
C22 C23 1.383 . S
C22 C27 1.385 . S
C23 H4 0.947 . S
C23 C22 1.383 . S
C23 C24 1.388 1_545 S
C24 H5 0.946 . S
C24 C23 1.388 1_565 S
C24 C25 1.384 . S
C25 C24 1.384 . S
C25 C26 1.377 1_565 S
C26 H6 0.953 . S
C26 C25 1.377 1_545 S
C26 C27 1.369 . S
C27 H7 0.945 . S
C27 C22 1.385 . S
C27 C26 1.369 . S
C28 C20 1.457 . S
C28 C29 1.372 1_554 S
C28 C33 1.364 . S
C29 H8 0.952 . S
C29 C28 1.372 1_556 S
C29 C30 1.389 . S
C30 H9 0.949 . S
C30 C29 1.389 . S
C30 C31 1.387 . S
C31 C30 1.387 . S
C31 C32 1.372 1_556 S
C32 H10 0.950 . S
C32 C31 1.372 1_554 S
C32 C33 1.379 . S
C33 H11 0.948 . S
C33 C28 1.364 . S
C33 C32 1.379 . S
C34 C3 1.383 . S
C34 C21 1.479 . S
C34 C35 1.398 . S
C35 C0 1.382 1_455 S
C35 H12 0.951 . S
C35 C34 1.398 . S
C36 C37 1.384 . S
C36 H49 0.947 . S
C36 C71 1.382 . S
C37 C36 1.384 . S
C37 C38 1.378 . S
C38 C37 1.378 . S
C38 C39 1.378 . S
C38 H50 0.952 . S
C39 C38 1.378 . S
C39 H51 0.950 . S
C39 C70 1.383 . S
H40 C59 0.947 . S
H41 C60 0.946 . S
H42 C62 0.953 . S
H43 C63 0.945 . S
H44 C65 0.952 . S
H45 C66 0.949 . S
H46 C68 0.950 . S
H47 C69 0.948 . S
H48 C71 0.951 . S
H49 C36 0.947 . S
H50 C38 0.952 . S
H51 C39 0.950 . S
N52 C55 1.382 . S
N52 C57 1.363 . S
N53 C55 1.371 . S
N53 C56 1.372 . S
N54 C56 1.361 . S
N54 C57 1.377 . S
C55 N52 1.382 . S
C55 N53 1.371 . S
C55 C58 1.480 . S
C56 N53 1.372 . S
C56 N54 1.361 . S
C56 C64 1.457 . S
C57 N52 1.363 . S
C57 N54 1.377 . S
C57 C70 1.479 . S
C58 C55 1.480 . S
C58 C59 1.383 . S
C58 C63 1.385 . S
C59 H40 0.947 . S
C59 C58 1.383 . S
C59 C60 1.388 . S
C60 H41 0.946 . S
C60 C59 1.388 . S
C60 C61 1.384 . S
C61 C60 1.384 . S
C61 C62 1.377 . S
C62 H42 0.953 . S
C62 C61 1.377 . S
C62 C63 1.369 . S
C63 H43 0.945 . S
C63 C58 1.385 . S
C63 C62 1.369 . S
C64 C56 1.457 . S
C64 C65 1.372 . S
C64 C69 1.364 . S
C65 H44 0.952 . S
C65 C64 1.372 . S
C65 C66 1.389 . S
C66 H45 0.949 . S
C66 C65 1.389 . S
C66 C67 1.387 . S
C67 C66 1.387 . S
C67 C68 1.372 . S
C68 H46 0.950 . S
C68 C67 1.372 . S
C68 C69 1.379 . S
C69 H47 0.948 . S
C69 C64 1.364 . S
C69 C68 1.379 . S
C70 C39 1.383 . S
C70 C57 1.479 . S
C70 C71 1.398 . S
C71 C36 1.382 . S
C71 H48 0.951 . S
C71 C70 1.398 . S
C72 C73 1.384 . S
C72 H85 0.947 1_655 S
C72 C107 1.382 . S
C73 C72 1.384 . S
C73 C74 1.372 1_554 S
C74 C73 1.372 1_556 S
C74 C75 1.359 1_556 S
C74 H86 0.978 . S
C75 C74 1.359 1_554 S
C75 H87 0.950 . S
C75 C106 1.383 . S
H76 C95 0.947 . S
H77 C96 0.946 . S
H78 C98 0.953 . S
H79 C99 0.945 . S
H80 C101 0.952 . S
H81 C102 0.949 . S
H82 C104 0.950 . S
H83 C105 0.948 . S
H84 C107 0.951 1_455 S
H85 C72 0.947 1_455 S
H86 C74 0.978 . S
H87 C75 0.950 . S
N88 C91 1.382 . S
N88 C93 1.363 . S
N89 C91 1.371 . S
N89 C92 1.372 . S
N90 C92 1.361 . S
N90 C93 1.377 . S
C91 N88 1.382 . S
C91 N89 1.371 . S
C91 C94 1.480 . S
C92 N89 1.372 . S
C92 N90 1.361 . S
C92 C100 1.457 1_655 S
C93 N88 1.363 . S
C93 N90 1.377 . S
C93 C106 1.479 . S
C94 C91 1.480 . S
C94 C95 1.383 . S
C94 C99 1.385 . S
C95 H76 0.947 . S
C95 C94 1.383 . S
C95 C96 1.388 . S
C96 H77 0.946 . S
C96 C95 1.388 . S
C96 C97 1.384 . S
C97 C96 1.384 . S
C97 C98 1.377 . S
C98 H78 0.953 . S
C98 C97 1.377 . S
C98 C99 1.369 . S
C99 H79 0.945 . S
C99 C94 1.385 . S
C99 C98 1.369 . S
C100 C92 1.457 1_455 S
C100 C101 1.372 1_455 S
C100 C105 1.364 . S
C101 H80 0.952 . S
C101 C100 1.372 1_655 S
C101 C102 1.389 1_655 S
C102 H81 0.949 . S
C102 C101 1.389 1_455 S
C102 C103 1.387 . S
C103 C102 1.387 . S
C103 C104 1.372 . S
C104 H82 0.950 . S
C104 C103 1.372 . S
C104 C105 1.379 . S
C105 H83 0.948 . S
C105 C100 1.364 . S
C105 C104 1.379 . S
C106 C75 1.383 . S
C106 C93 1.479 . S
C106 C107 1.398 . S
C107 C72 1.382 . S
C107 H84 0.951 1_655 S
C107 C106 1.398 . S
C108 C109 1.384 . S
C108 H121 0.947 . S
C108 C143 1.382 . S
C109 C108 1.384 . S
C109 C110 1.378 . S
C110 C109 1.378 . S
C110 C111 1.378 . S
C110 H122 0.952 . S
C111 C110 1.378 . S
C111 H123 0.950 . S
C111 C142 1.383 . S
H112 C131 0.947 . S
H113 C132 0.946 . S
H114 C134 0.953 . S
H115 C135 0.945 . S
H116 C137 0.952 . S
H117 C138 0.949 . S
H118 C140 0.950 . S
H119 C141 0.948 . S
H120 C143 0.951 . S
H121 C108 0.947 . S
H122 C110 0.952 . S
H123 C111 0.950 . S
N124 C127 1.382 . S
N124 C129 1.363 . S
N125 C127 1.371 . S
N125 C128 1.372 . S
N126 C128 1.361 . S
N126 C129 1.377 . S
C127 N124 1.382 . S
C127 N125 1.371 . S
C127 C130 1.480 . S
C128 N125 1.372 . S
C128 N126 1.361 . S
C128 C136 1.457 . S
C129 N124 1.363 . S
C129 N126 1.377 . S
C129 C142 1.479 . S
C130 C127 1.480 . S
C130 C131 1.383 . S
C130 C135 1.385 . S
C131 H112 0.947 . S
C131 C130 1.383 . S
C131 C132 1.388 . S
C132 H113 0.946 . S
C132 C131 1.388 . S
C132 C133 1.384 . S
C133 C132 1.384 . S
C133 C134 1.377 . S
C134 H114 0.953 . S
C134 C133 1.377 . S
C134 C135 1.369 . S
C135 H115 0.945 . S
C135 C130 1.385 . S
C135 C134 1.369 . S
C136 C128 1.457 . S
C136 C137 1.372 . S
C136 C141 1.364 . S
C137 H116 0.952 . S
C137 C136 1.372 . S
C137 C138 1.389 . S
C138 H117 0.949 . S
C138 C137 1.389 . S
C138 C139 1.387 . S
C139 C138 1.387 . S
C139 C140 1.372 . S
C140 H118 0.950 . S
C140 C139 1.372 . S
C140 C141 1.379 . S
C141 H119 0.948 . S
C141 C136 1.364 . S
C141 C140 1.379 . S
C142 C111 1.383 . S
C142 C129 1.479 . S
C142 C143 1.398 . S
C143 C108 1.382 . S
C143 H120 0.951 . S
C143 C142 1.398 . S
C144 C145 1.384 . S
C144 H157 0.947 . S
C144 C179 1.382 . S
C145 C144 1.384 . S
C145 C146 1.378 . S
C146 C145 1.378 . S
C146 C147 1.378 . S
C146 H158 0.952 . S
C147 C146 1.378 . S
C147 H159 0.950 . S
C147 C178 1.383 . S
H148 C167 0.947 . S
H149 C168 0.946 1_655 S
H150 C170 0.953 1_545 S
H151 C171 0.945 . S
H152 C173 0.952 . S
H153 C174 0.949 . S
H154 C176 0.950 . S
H155 C177 0.948 . S
H156 C179 0.951 . S
H157 C144 0.947 . S
H158 C146 0.952 . S
H159 C147 0.950 . S
N160 C163 1.382 . S
N160 C165 1.363 . S
N161 C163 1.371 . S
N161 C164 1.372 . S
N162 C164 1.361 . S
N162 C165 1.377 . S
C163 N160 1.382 . S
C163 N161 1.371 . S
C163 C166 1.480 . S
C164 N161 1.372 . S
C164 N162 1.361 . S
C164 C172 1.457 . S
C165 N160 1.363 . S
C165 N162 1.377 . S
C165 C178 1.479 . S
C166 C163 1.480 . S
C166 C167 1.383 . S
C166 C171 1.385 . S
C167 H148 0.947 . S
C167 C166 1.383 . S
C167 C168 1.388 . S
C168 H149 0.946 1_455 S
C168 C167 1.388 . S
C168 C169 1.384 . S
C169 C168 1.384 . S
C169 C170 1.377 . S
C170 H150 0.953 1_565 S
C170 C169 1.377 . S
C170 C171 1.369 . S
C171 H151 0.945 . S
C171 C166 1.385 . S
C171 C170 1.369 . S
C172 C164 1.457 . S
C172 C173 1.372 1_565 S
C172 C177 1.364 . S
C173 H152 0.952 . S
C173 C172 1.372 1_545 S
C173 C174 1.389 . S
C174 H153 0.949 . S
C174 C173 1.389 . S
C174 C175 1.387 . S
C175 C174 1.387 . S
C175 C176 1.372 1_545 S
C176 H154 0.950 . S
C176 C175 1.372 1_565 S
C176 C177 1.379 . S
C177 H155 0.948 . S
C177 C172 1.364 . S
C177 C176 1.379 . S
C178 C147 1.383 . S
C178 C165 1.479 . S
C178 C179 1.398 . S
C179 C144 1.382 . S
C179 H156 0.951 . S
C179 C178 1.398 . S
C180 C181 1.384 . S
C180 H193 0.947 . S
C180 C215 1.382 . S
C181 C180 1.384 . S
C181 C182 1.378 . S
C182 C181 1.378 . S
C182 C183 1.378 . S
C182 H194 0.952 . S
C183 C182 1.378 . S
C183 H195 0.950 . S
C183 C214 1.383 . S
H184 C203 0.947 . S
H185 C204 0.946 . S
H186 C206 0.953 . S
H187 C207 0.945 . S
H188 C209 0.952 . S
H189 C210 0.949 . S
H190 C212 0.950 . S
H191 C213 0.948 . S
H192 C215 0.951 . S
H193 C180 0.947 . S
H194 C182 0.952 . S
H195 C183 0.950 . S
N196 C199 1.382 . S
N196 C201 1.363 . S
N197 C199 1.371 . S
N197 C200 1.372 . S
N198 C200 1.361 . S
N198 C201 1.377 . S
C199 N196 1.382 . S
C199 N197 1.371 . S
C199 C202 1.480 . S
C200 N197 1.372 . S
C200 N198 1.361 . S
C200 C208 1.457 . S
C201 N196 1.363 . S
C201 N198 1.377 . S
C201 C214 1.479 . S
C202 C199 1.480 . S
C202 C203 1.383 . S
C202 C207 1.385 . S
C203 H184 0.947 . S
C203 C202 1.383 . S
C203 C204 1.388 . S
C204 H185 0.946 . S
C204 C203 1.388 . S
C204 C205 1.384 . S
C205 C204 1.384 . S
C205 C206 1.377 . S
C206 H186 0.953 . S
C206 C205 1.377 . S
C206 C207 1.369 . S
C207 H187 0.945 . S
C207 C202 1.385 . S
C207 C206 1.369 . S
C208 C200 1.457 . S
C208 C209 1.372 . S
C208 C213 1.364 . S
C209 H188 0.952 . S
C209 C208 1.372 . S
C209 C210 1.389 . S
C210 H189 0.949 . S
C210 C209 1.389 . S
C210 C211 1.387 . S
C211 C210 1.387 . S
C211 C212 1.372 . S
C212 H190 0.950 . S
C212 C211 1.372 . S
C212 C213 1.379 . S
C213 H191 0.948 . S
C213 C208 1.364 . S
C213 C212 1.379 . S
C214 C183 1.383 . S
C214 C201 1.479 . S
C214 C215 1.398 . S
C215 C180 1.382 . S
C215 H192 0.951 . S
C215 C214 1.398 . S
C216 C217 1.384 . S
C216 H229 0.947 . S
C216 C251 1.382 . S
C217 C216 1.384 . S
C217 C218 1.378 . S
C218 C217 1.378 . S
C218 C219 1.378 . S
C218 H230 0.952 . S
C219 C218 1.378 . S
C219 H231 0.950 . S
C219 C250 1.383 . S
H220 C239 0.947 . S
H221 C240 0.946 . S
H222 C242 0.953 . S
H223 C243 0.945 . S
H224 C245 0.952 . S
H225 C246 0.949 . S
H226 C248 0.950 . S
H227 C249 0.948 . S
H228 C251 0.951 . S
H229 C216 0.947 . S
H230 C218 0.952 . S
H231 C219 0.950 . S
N232 C235 1.382 . S
N232 C237 1.363 . S
N233 C235 1.371 . S
N233 C236 1.372 . S
N234 C236 1.361 . S
N234 C237 1.377 . S
C235 N232 1.382 . S
C235 N233 1.371 . S
C235 C238 1.480 . S
C236 N233 1.372 . S
C236 N234 1.361 . S
C236 C244 1.457 . S
C237 N232 1.363 . S
C237 N234 1.377 . S
C237 C250 1.479 . S
C238 C235 1.480 . S
C238 C239 1.383 . S
C238 C243 1.385 . S
C239 H220 0.947 . S
C239 C238 1.383 . S
C239 C240 1.388 . S
C240 H221 0.946 . S
C240 C239 1.388 . S
C240 C241 1.384 . S
C241 C240 1.384 . S
C241 C242 1.377 . S
C242 H222 0.953 . S
C242 C241 1.377 . S
C242 C243 1.369 . S
C243 H223 0.945 . S
C243 C238 1.385 . S
C243 C242 1.369 . S
C244 C236 1.457 . S
C244 C245 1.372 . S
C244 C249 1.364 1_655 S
C245 H224 0.952 . S
C245 C244 1.372 . S
C245 C246 1.389 . S
C246 H225 0.949 . S
C246 C245 1.389 . S
C246 C247 1.387 1_655 S
C247 C246 1.387 1_455 S
C247 C248 1.372 . S
C248 H226 0.950 . S
C248 C247 1.372 . S
C248 C249 1.379 . S
C249 H227 0.948 . S
C249 C244 1.364 1_455 S
C249 C248 1.379 . S
C250 C219 1.383 . S
C250 C237 1.479 . S
C250 C251 1.398 . S
C251 C216 1.382 . S
C251 H228 0.951 . S
C251 C250 1.398 . S
C252 C253 1.384 . S
C252 H265 0.947 . S
C252 C287 1.382 . S
C253 C252 1.384 . S
C253 C254 1.378 . S
C254 C253 1.378 . S
C254 C255 1.378 . S
C254 H266 0.952 . S
C255 C254 1.378 . S
C255 H267 0.950 . S
C255 C286 1.383 . S
H256 C275 0.947 . S
H257 C276 0.946 . S
H258 C278 0.953 . S
H259 C279 0.945 . S
H260 C281 0.952 . S
H261 C282 0.949 . S
H262 C284 0.950 . S
H263 C285 0.948 . S
H264 C287 0.951 . S
H265 C252 0.947 . S
H266 C254 0.952 . S
H267 C255 0.950 . S
N268 C271 1.382 . S
N268 C273 1.363 . S
N269 C271 1.371 . S
N269 C272 1.372 . S
N270 C272 1.361 . S
N270 C273 1.377 . S
C271 N268 1.382 . S
C271 N269 1.371 . S
C271 C274 1.480 . S
C272 N269 1.372 . S
C272 N270 1.361 . S
C272 C280 1.457 . S
C273 N268 1.363 . S
C273 N270 1.377 . S
C273 C286 1.479 . S
C274 C271 1.480 . S
C274 C275 1.383 . S
C274 C279 1.385 . S
C275 H256 0.947 . S
C275 C274 1.383 . S
C275 C276 1.388 . S
C276 H257 0.946 . S
C276 C275 1.388 . S
C276 C277 1.384 . S
C277 C276 1.384 . S
C277 C278 1.377 . S
C278 H258 0.953 . S
C278 C277 1.377 . S
C278 C279 1.369 . S
C279 H259 0.945 . S
C279 C274 1.385 . S
C279 C278 1.369 . S
C280 C272 1.457 . S
C280 C281 1.372 . S
C280 C285 1.364 . S
C281 H260 0.952 . S
C281 C280 1.372 . S
C281 C282 1.389 . S
C282 H261 0.949 . S
C282 C281 1.389 . S
C282 C283 1.387 . S
C283 C282 1.387 . S
C283 C284 1.372 . S
C284 H262 0.950 . S
C284 C283 1.372 . S
C284 C285 1.379 . S
C285 H263 0.948 . S
C285 C280 1.364 . S
C285 C284 1.379 . S
C286 C255 1.383 . S
C286 C273 1.479 . S
C286 C287 1.398 . S
C287 C252 1.382 . S
C287 H264 0.951 . S
C287 C286 1.398 . S
C288 C289 1.384 . S
C288 H301 0.947 . S
C288 C323 1.382 . S
C289 C288 1.384 . S
C289 C290 1.378 . S
C290 C289 1.378 . S
C290 C291 1.378 . S
C290 H302 0.952 . S
C291 C290 1.378 . S
C291 H303 0.950 . S
C291 C322 1.383 . S
H292 C311 0.947 . S
H293 C312 0.946 . S
H294 C314 0.953 . S
H295 C315 0.945 . S
H296 C317 0.952 . S
H297 C318 0.949 . S
H298 C320 0.950 . S
H299 C321 0.948 . S
H300 C323 0.951 . S
H301 C288 0.947 . S
H302 C290 0.952 . S
H303 C291 0.950 . S
N304 C307 1.382 . S
N304 C309 1.363 . S
N305 C307 1.371 . S
N305 C308 1.372 . S
N306 C308 1.361 . S
N306 C309 1.377 . S
C307 N304 1.382 . S
C307 N305 1.371 . S
C307 C310 1.480 . S
C308 N305 1.372 . S
C308 N306 1.361 . S
C308 C316 1.457 . S
C309 N304 1.363 . S
C309 N306 1.377 . S
C309 C322 1.479 . S
C310 C307 1.480 . S
C310 C311 1.383 . S
C310 C315 1.385 . S
C311 H292 0.947 . S
C311 C310 1.383 . S
C311 C312 1.388 . S
C312 H293 0.946 . S
C312 C311 1.388 . S
C312 C313 1.384 . S
C313 C312 1.384 . S
C313 C314 1.377 . S
C314 H294 0.953 . S
C314 C313 1.377 . S
C314 C315 1.369 . S
C315 H295 0.945 . S
C315 C310 1.385 . S
C315 C314 1.369 . S
C316 C308 1.457 . S
C316 C317 1.372 . S
C316 C321 1.364 . S
C317 H296 0.952 . S
C317 C316 1.372 . S
C317 C318 1.389 . S
C318 H297 0.949 . S
C318 C317 1.389 . S
C318 C319 1.387 . S
C319 C318 1.387 . S
C319 C320 1.372 . S
C320 H298 0.950 . S
C320 C319 1.372 . S
C320 C321 1.379 . S
C321 H299 0.948 . S
C321 C316 1.364 . S
C321 C320 1.379 . S
C322 C291 1.383 . S
C322 C309 1.479 . S
C322 C323 1.398 . S
C323 C288 1.382 . S
C323 H300 0.951 . S
C323 C322 1.398 . S
C324 C325 1.384 . S
C324 H337 0.947 . S
C324 C359 1.382 . S
C325 C324 1.384 . S
C325 C326 1.378 . S
C326 C325 1.378 . S
C326 C327 1.378 . S
C326 H338 0.952 . S
C327 C326 1.378 . S
C327 H339 0.950 . S
C327 C358 1.383 . S
H328 C347 0.947 . S
H329 C348 0.946 . S
H330 C350 0.953 . S
H331 C351 0.945 . S
H332 C353 0.952 . S
H333 C354 0.949 . S
H334 C356 0.950 . S
H335 C357 0.948 . S
H336 C359 0.951 . S
H337 C324 0.947 . S
H338 C326 0.952 . S
H339 C327 0.950 . S
N340 C343 1.382 . S
N340 C345 1.363 . S
N341 C343 1.371 . S
N341 C344 1.372 . S
N342 C344 1.361 . S
N342 C345 1.377 . S
C343 N340 1.382 . S
C343 N341 1.371 . S
C343 C346 1.480 . S
C344 N341 1.372 . S
C344 N342 1.361 . S
C344 C352 1.457 . S
C345 N340 1.363 . S
C345 N342 1.377 . S
C345 C358 1.479 . S
C346 C343 1.480 . S
C346 C347 1.383 . S
C346 C351 1.385 1_565 S
C347 H328 0.947 . S
C347 C346 1.383 . S
C347 C348 1.388 . S
C348 H329 0.946 . S
C348 C347 1.388 . S
C348 C349 1.384 1_565 S
C349 C348 1.384 1_545 S
C349 C350 1.377 . S
C350 H330 0.953 . S
C350 C349 1.377 . S
C350 C351 1.369 . S
C351 H331 0.945 . S
C351 C346 1.385 1_545 S
C351 C350 1.369 . S
C352 C344 1.457 . S
C352 C353 1.372 . S
C352 C357 1.364 . S
C353 H332 0.952 . S
C353 C352 1.372 . S
C353 C354 1.389 . S
C354 H333 0.949 . S
C354 C353 1.389 . S
C354 C355 1.387 . S
C355 C354 1.387 . S
C355 C356 1.372 . S
C356 H334 0.950 . S
C356 C355 1.372 . S
C356 C357 1.379 . S
C357 H335 0.948 . S
C357 C352 1.364 . S
C357 C356 1.379 . S
C358 C327 1.383 . S
C358 C345 1.479 . S
C358 C359 1.398 . S
C359 C324 1.382 . S
C359 H336 0.951 . S
C359 C358 1.398 . S
C360 C361 1.384 . S
C360 H373 0.947 . S
C360 C395 1.382 . S
C361 C360 1.384 . S
C361 C362 1.378 . S
C362 C361 1.378 . S
C362 C363 1.378 . S
C362 H374 0.952 . S
C363 C362 1.378 . S
C363 H375 0.950 . S
C363 C394 1.383 . S
H364 C383 0.947 . S
H365 C384 0.946 . S
H366 C386 0.953 . S
H367 C387 0.945 . S
H368 C389 0.952 . S
H369 C390 0.949 . S
H370 C392 0.950 . S
H371 C393 0.948 . S
H372 C395 0.951 . S
H373 C360 0.947 . S
H374 C362 0.952 . S
H375 C363 0.950 . S
N376 C379 1.382 . S
N376 C381 1.363 . S
N377 C379 1.371 . S
N377 C380 1.372 . S
N378 C380 1.361 . S
N378 C381 1.377 . S
C379 N376 1.382 . S
C379 N377 1.371 . S
C379 C382 1.480 . S
C380 N377 1.372 . S
C380 N378 1.361 . S
C380 C388 1.457 . S
C381 N376 1.363 . S
C381 N378 1.377 . S
C381 C394 1.479 . S
C382 C379 1.480 . S
C382 C383 1.383 . S
C382 C387 1.385 . S
C383 H364 0.947 . S
C383 C382 1.383 . S
C383 C384 1.388 . S
C384 H365 0.946 . S
C384 C383 1.388 . S
C384 C385 1.384 . S
C385 C384 1.384 . S
C385 C386 1.377 . S
C386 H366 0.953 . S
C386 C385 1.377 . S
C386 C387 1.369 . S
C387 H367 0.945 . S
C387 C382 1.385 . S
C387 C386 1.369 . S
C388 C380 1.457 . S
C388 C389 1.372 . S
C388 C393 1.364 . S
C389 H368 0.952 . S
C389 C388 1.372 . S
C389 C390 1.389 . S
C390 H369 0.949 . S
C390 C389 1.389 . S
C390 C391 1.387 . S
C391 C390 1.387 . S
C391 C392 1.372 . S
C392 H370 0.950 . S
C392 C391 1.372 . S
C392 C393 1.379 . S
C393 H371 0.948 . S
C393 C388 1.364 . S
C393 C392 1.379 . S
C394 C363 1.383 . S
C394 C381 1.479 . S
C394 C395 1.398 . S
C395 C360 1.382 . S
C395 H372 0.951 . S
C395 C394 1.398 . S
C396 C397 1.384 . S
C396 H409 0.947 . S
C396 C431 1.382 . S
C397 C396 1.384 . S
C397 C398 1.378 . S
C398 C397 1.378 . S
C398 C399 1.378 . S
C398 H410 0.952 . S
C399 C398 1.378 . S
C399 H411 0.950 . S
C399 C430 1.383 . S
H400 C419 0.947 . S
H401 C420 0.946 . S
H402 C422 0.953 . S
H403 C423 0.945 . S
H404 C425 0.952 . S
H405 C426 0.949 . S
H406 C428 0.950 . S
H407 C429 0.948 . S
H408 C431 0.951 . S
H409 C396 0.947 . S
H410 C398 0.952 . S
H411 C399 0.950 . S
N412 C415 1.382 . S
N412 C417 1.363 . S
N413 C415 1.371 . S
N413 C416 1.372 . S
N414 C416 1.361 . S
N414 C417 1.377 . S
C415 N412 1.382 . S
C415 N413 1.371 . S
C415 C418 1.480 . S
C416 N413 1.372 . S
C416 N414 1.361 . S
C416 C424 1.457 . S
C417 N412 1.363 . S
C417 N414 1.377 . S
C417 C430 1.479 . S
C418 C415 1.480 . S
C418 C419 1.383 . S
C418 C423 1.385 . S
C419 H400 0.947 . S
C419 C418 1.383 . S
C419 C420 1.388 . S
C420 H401 0.946 . S
C420 C419 1.388 . S
C420 C421 1.384 . S
C421 C420 1.384 . S
C421 C422 1.377 . S
C422 H402 0.953 . S
C422 C421 1.377 . S
C422 C423 1.369 . S
C423 H403 0.945 . S
C423 C418 1.385 . S
C423 C422 1.369 . S
C424 C416 1.457 . S
C424 C425 1.372 . S
C424 C429 1.364 . S
C425 H404 0.952 . S
C425 C424 1.372 . S
C425 C426 1.389 . S
C426 H405 0.949 . S
C426 C425 1.389 . S
C426 C427 1.387 . S
C427 C426 1.387 . S
C427 C428 1.372 . S
C428 H406 0.950 . S
C428 C427 1.372 . S
C428 C429 1.379 . S
C429 H407 0.948 . S
C429 C424 1.364 . S
C429 C428 1.379 . S
C430 C399 1.383 . S
C430 C417 1.479 . S
C430 C431 1.398 . S
C431 C396 1.382 . S
C431 H408 0.951 . S
C431 C430 1.398 . S
C432 C433 1.384 . S
C432 H445 0.947 . S
C432 C467 1.382 . S
C433 C432 1.384 . S
C433 C434 1.378 . S
C434 C433 1.378 . S
C434 C435 1.378 . S
C434 H446 0.952 . S
C435 C434 1.378 . S
C435 H447 0.950 . S
C435 C466 1.383 . S
H436 C455 0.947 . S
H437 C456 0.946 . S
H438 C458 0.953 . S
H439 C459 0.945 . S
H440 C461 0.952 . S
H441 C462 0.949 . S
H442 C464 0.950 . S
H443 C465 0.948 . S
H444 C467 0.951 . S
H445 C432 0.947 . S
H446 C434 0.952 . S
H447 C435 0.950 . S
N448 C451 1.382 . S
N448 C453 1.363 . S
N449 C451 1.371 . S
N449 C452 1.372 . S
N450 C452 1.361 . S
N450 C453 1.377 . S
C451 N448 1.382 . S
C451 N449 1.371 . S
C451 C454 1.480 . S
C452 N449 1.372 . S
C452 N450 1.361 . S
C452 C460 1.457 . S
C453 N448 1.363 . S
C453 N450 1.377 . S
C453 C466 1.479 . S
C454 C451 1.480 . S
C454 C455 1.383 . S
C454 C459 1.385 . S
C455 H436 0.947 . S
C455 C454 1.383 . S
C455 C456 1.388 . S
C456 H437 0.946 . S
C456 C455 1.388 . S
C456 C457 1.384 . S
C457 C456 1.384 . S
C457 C458 1.377 . S
C458 H438 0.953 . S
C458 C457 1.377 . S
C458 C459 1.369 . S
C459 H439 0.945 . S
C459 C454 1.385 . S
C459 C458 1.369 . S
C460 C452 1.457 . S
C460 C461 1.372 . S
C460 C465 1.364 . S
C461 H440 0.952 . S
C461 C460 1.372 . S
C461 C462 1.389 . S
C462 H441 0.949 . S
C462 C461 1.389 . S
C462 C463 1.387 . S
C463 C462 1.387 . S
C463 C464 1.372 . S
C464 H442 0.950 . S
C464 C463 1.372 . S
C464 C465 1.379 . S
C465 H443 0.948 . S
C465 C460 1.364 . S
C465 C464 1.379 . S
C466 C435 1.383 . S
C466 C453 1.479 . S
C466 C467 1.398 . S
C467 C432 1.382 . S
C467 H444 0.951 . S
C467 C466 1.398 . S
C468 C469 1.384 . S
C468 H481 0.947 . S
C468 C503 1.382 1_554 S
C469 C468 1.384 . S
C469 C470 1.378 1_554 S
C470 C469 1.378 1_556 S
C470 C471 1.378 . S
C470 H482 0.952 . S
C471 C470 1.378 . S
C471 H483 0.950 . S
C471 C502 1.383 . S
H472 C491 0.947 . S
H473 C492 0.946 . S
H474 C494 0.953 . S
H475 C495 0.945 . S
H476 C497 0.952 . S
H477 C498 0.949 . S
H478 C500 0.950 . S
H479 C501 0.948 . S
H480 C503 0.951 . S
H481 C468 0.947 . S
H482 C470 0.952 . S
H483 C471 0.950 . S
N484 C487 1.382 . S
N484 C489 1.363 . S
N485 C487 1.371 . S
N485 C488 1.372 . S
N486 C488 1.361 . S
N486 C489 1.377 . S
C487 N484 1.382 . S
C487 N485 1.371 . S
C487 C490 1.480 . S
C488 N485 1.372 . S
C488 N486 1.361 . S
C488 C496 1.457 . S
C489 N484 1.363 . S
C489 N486 1.377 . S
C489 C502 1.479 . S
C490 C487 1.480 . S
C490 C491 1.383 . S
C490 C495 1.385 . S
C491 H472 0.947 . S
C491 C490 1.383 . S
C491 C492 1.388 . S
C492 H473 0.946 . S
C492 C491 1.388 . S
C492 C493 1.384 . S
C493 C492 1.384 . S
C493 C494 1.377 . S
C494 H474 0.953 . S
C494 C493 1.377 . S
C494 C495 1.369 . S
C495 H475 0.945 . S
C495 C490 1.385 . S
C495 C494 1.369 . S
C496 C488 1.457 . S
C496 C497 1.372 . S
C496 C501 1.364 . S
C497 H476 0.952 . S
C497 C496 1.372 . S
C497 C498 1.389 . S
C498 H477 0.949 . S
C498 C497 1.389 . S
C498 C499 1.387 . S
C499 C498 1.387 . S
C499 C500 1.372 . S
C500 H478 0.950 . S
C500 C499 1.372 . S
C500 C501 1.379 . S
C501 H479 0.948 . S
C501 C496 1.364 . S
C501 C500 1.379 . S
C502 C471 1.383 . S
C502 C489 1.479 . S
C502 C503 1.398 . S
C503 C468 1.382 1_556 S
C503 H480 0.951 . S
C503 C502 1.398 . S
C504 C505 1.384 . S
C504 H517 0.947 . S
C504 C539 1.382 . S
C505 C504 1.384 . S
C505 C506 1.378 . S
C506 C505 1.378 . S
C506 C507 1.378 . S
C506 H518 0.952 . S
C507 C506 1.378 . S
C507 H519 0.950 . S
C507 C538 1.383 . S
H508 C527 0.947 . S
H509 C528 0.946 . S
H510 C530 0.953 . S
H511 C531 0.945 . S
H512 C533 0.952 . S
H513 C534 0.949 . S
H514 C536 0.950 . S
H515 C537 0.948 . S
H516 C539 0.951 . S
H517 C504 0.947 . S
H518 C506 0.952 . S
H519 C507 0.950 . S
N520 C523 1.382 . S
N520 C525 1.363 . S
N521 C523 1.371 . S
N521 C524 1.372 . S
N522 C524 1.361 . S
N522 C525 1.377 . S
C523 N520 1.382 . S
C523 N521 1.371 . S
C523 C526 1.480 . S
C524 N521 1.372 . S
C524 N522 1.361 . S
C524 C532 1.457 . S
C525 N520 1.363 . S
C525 N522 1.377 . S
C525 C538 1.479 . S
C526 C523 1.480 . S
C526 C527 1.383 . S
C526 C531 1.385 . S
C527 H508 0.947 . S
C527 C526 1.383 . S
C527 C528 1.388 . S
C528 H509 0.946 . S
C528 C527 1.388 . S
C528 C529 1.384 . S
C529 C528 1.384 . S
C529 C530 1.377 . S
C530 H510 0.953 . S
C530 C529 1.377 . S
C530 C531 1.369 . S
C531 H511 0.945 . S
C531 C526 1.385 . S
C531 C530 1.369 . S
C532 C524 1.457 . S
C532 C533 1.372 . S
C532 C537 1.364 . S
C533 H512 0.952 . S
C533 C532 1.372 . S
C533 C534 1.389 . S
C534 H513 0.949 . S
C534 C533 1.389 . S
C534 C535 1.387 . S
C535 C534 1.387 . S
C535 C536 1.372 . S
C536 H514 0.950 . S
C536 C535 1.372 . S
C536 C537 1.379 . S
C537 H515 0.948 . S
C537 C532 1.364 . S
C537 C536 1.379 . S
C538 C507 1.383 . S
C538 C525 1.479 . S
C538 C539 1.398 . S
C539 C504 1.382 . S
C539 H516 0.951 . S
C539 C538 1.398 . S
C540 C541 1.333 1_556 S
C540 H553 0.964 . S
C540 C575 1.419 . S
C541 C540 1.333 1_554 S
C541 C542 1.378 . S
C542 C541 1.378 . S
C542 C543 1.378 . S
C542 H554 0.952 . S
C543 C542 1.378 . S
C543 H555 0.950 . S
C543 C574 1.383 1_554 S
H544 C563 0.947 . S
H545 C564 0.946 . S
H546 C566 0.953 . S
H547 C567 0.945 . S
H548 C569 0.952 . S
H549 C570 0.949 . S
H550 C572 0.950 . S
H551 C573 0.948 . S
H552 C575 0.951 . S
H553 C540 0.964 . S
H554 C542 0.952 . S
H555 C543 0.950 . S
N556 C559 1.382 . S
N556 C561 1.363 . S
N557 C559 1.371 . S
N557 C560 1.372 . S
N558 C560 1.361 . S
N558 C561 1.377 . S
C559 N556 1.382 . S
C559 N557 1.371 . S
C559 C562 1.480 . S
C560 N557 1.372 . S
C560 N558 1.361 . S
C560 C568 1.457 . S
C561 N556 1.363 . S
C561 N558 1.377 . S
C561 C574 1.479 . S
C562 C559 1.480 . S
C562 C563 1.383 . S
C562 C567 1.385 1_545 S
C563 H544 0.947 . S
C563 C562 1.383 . S
C563 C564 1.388 . S
C564 H545 0.946 . S
C564 C563 1.388 . S
C564 C565 1.384 1_545 S
C565 C564 1.384 1_565 S
C565 C566 1.377 . S
C566 H546 0.953 . S
C566 C565 1.377 . S
C566 C567 1.369 . S
C567 H547 0.945 . S
C567 C562 1.385 1_565 S
C567 C566 1.369 . S
C568 C560 1.457 . S
C568 C569 1.372 . S
C568 C573 1.364 . S
C569 H548 0.952 . S
C569 C568 1.372 . S
C569 C570 1.389 . S
C570 H549 0.949 . S
C570 C569 1.389 . S
C570 C571 1.387 . S
C571 C570 1.387 . S
C571 C572 1.372 . S
C572 H550 0.950 . S
C572 C571 1.372 . S
C572 C573 1.379 . S
C573 H551 0.948 . S
C573 C568 1.364 . S
C573 C572 1.379 . S
C574 C543 1.383 1_556 S
C574 C561 1.479 . S
C574 C575 1.398 . S
C575 C540 1.419 . S
C575 H552 0.951 . S
C575 C574 1.398 . S
Mg576 O577 2.039 . S
Mg576 O583 1.986 1_554 S
Mg576 O585 2.114 . S
Mg576 O586 2.251 . S
Mg576 O589 2.010 . S
O577 Mg576 2.039 . S
O577 C580 1.242 1_554 S
O578 Mg579 2.028 . S
O578 C580 1.248 . S
Mg579 O578 2.028 . S
Mg579 O584 2.032 . S
Mg579 O586 2.079 1_556 S
C580 O577 1.242 1_556 S
C580 O578 1.248 . S
C581 O582 1.264 . S
C581 O589 1.249 . S
O582 C581 1.264 . S
O583 Mg576 1.986 1_556 S
O583 C587 1.246 . S
O584 Mg579 2.032 . S
O584 C587 1.259 . S
O585 Mg576 2.114 . S
O585 C588 1.252 . S
O586 Mg576 2.251 . S
O586 Mg579 2.079 1_554 S
O586 C588 1.273 . S
C587 O583 1.246 . S
C587 O584 1.259 . S
C588 O585 1.252 . S
C588 O586 1.273 . S
O589 Mg576 2.010 . S
O589 C581 1.249 . S
Mg590 O591 2.028 . S
Mg590 O597 1.986 . S
Mg590 O599 2.114 . S
Mg590 O600 2.251 . S
Mg590 O603 2.010 . S
O591 Mg590 2.028 . S
O591 C594 1.250 . S
O592 Mg593 2.028 . S
O592 C594 1.248 . S
Mg593 O592 2.028 . S
Mg593 O598 2.032 . S
Mg593 O600 2.079 . S
C594 O591 1.250 . S
C594 O592 1.248 . S
C595 O596 1.264 . S
C595 O603 1.249 . S
O596 C595 1.264 . S
O597 Mg590 1.986 . S
O597 C601 1.246 . S
O598 Mg593 2.032 . S
O598 C601 1.259 . S
O599 Mg590 2.114 . S
O599 C602 1.252 . S
O600 Mg590 2.251 . S
O600 Mg593 2.079 . S
O600 C602 1.273 . S
C601 O597 1.246 . S
C601 O598 1.259 . S
C602 O599 1.252 . S
C602 O600 1.273 . S
O603 Mg590 2.010 . S
O603 C595 1.249 . S
Mg604 O605 2.028 . S
Mg604 O611 1.986 1_554 S
Mg604 O613 2.114 . S
Mg604 O614 2.251 . S
Mg604 O617 2.010 . S
O605 Mg604 2.028 . S
O605 C608 1.263 . S
O606 Mg607 2.031 . S
O606 C608 1.243 1_556 S
Mg607 O606 2.031 . S
Mg607 O612 2.032 . S
Mg607 O614 2.079 1_556 S
C608 O605 1.263 . S
C608 O606 1.243 1_554 S
C609 O610 1.264 . S
C609 O617 1.249 . S
O610 C609 1.264 . S
O611 Mg604 1.986 1_556 S
O611 C615 1.246 . S
O612 Mg607 2.032 . S
O612 C615 1.259 . S
O613 Mg604 2.114 . S
O613 C616 1.252 . S
O614 Mg604 2.251 . S
O614 Mg607 2.079 1_554 S
O614 C616 1.273 . S
C615 O611 1.246 . S
C615 O612 1.259 . S
C616 O613 1.252 . S
C616 O614 1.273 . S
O617 Mg604 2.010 . S
O617 C609 1.249 . S
Mg618 O619 2.028 . S
Mg618 O625 1.986 . S
Mg618 O627 2.114 . S
Mg618 O628 2.251 . S
Mg618 O631 2.010 . S
O619 Mg618 2.028 . S
O619 C622 1.250 1_545 S
O620 Mg621 2.028 . S
O620 C622 1.248 . S
Mg621 O620 2.028 . S
Mg621 O626 2.032 . S
Mg621 O628 2.079 1_565 S
C622 O619 1.250 1_565 S
C622 O620 1.248 . S
C623 O624 1.264 . S
C623 O631 1.249 . S
O624 C623 1.264 . S
O625 Mg618 1.986 . S
O625 C629 1.246 . S
O626 Mg621 2.032 . S
O626 C629 1.259 1_565 S
O627 Mg618 2.114 . S
O627 C630 1.252 . S
O628 Mg618 2.251 . S
O628 Mg621 2.079 1_545 S
O628 C630 1.273 . S
C629 O625 1.246 . S
C629 O626 1.259 1_545 S
C630 O627 1.252 . S
C630 O628 1.273 . S
O631 Mg618 2.010 . S
O631 C623 1.249 . S
Mg632 O633 2.028 . S
Mg632 O639 1.986 . S
Mg632 O641 2.114 . S
Mg632 O642 2.251 . S
Mg632 O645 2.010 . S
O633 Mg632 2.028 . S
O633 C636 1.250 . S
O634 Mg635 2.028 . S
O634 C636 1.248 . S
Mg635 O634 2.028 . S
Mg635 O640 2.032 . S
Mg635 O642 2.079 . S
C636 O633 1.250 . S
C636 O634 1.248 . S
C637 O638 1.264 . S
C637 O645 1.249 . S
O638 C637 1.264 . S
O639 Mg632 1.986 . S
O639 C643 1.246 . S
O640 Mg635 2.032 . S
O640 C643 1.259 . S
O641 Mg632 2.114 . S
O641 C644 1.252 . S
O642 Mg632 2.251 . S
O642 Mg635 2.079 . S
O642 C644 1.273 . S
C643 O639 1.246 . S
C643 O640 1.259 . S
C644 O641 1.252 . S
C644 O642 1.273 . S
O645 Mg632 2.010 . S
O645 C637 1.249 . S
Mg646 O647 2.028 . S
Mg646 O653 1.986 . S
Mg646 O655 2.114 . S
Mg646 O656 2.251 . S
Mg646 O659 2.010 . S
O647 Mg646 2.028 . S
O647 C650 1.250 . S
O648 Mg649 2.028 . S
O648 C650 1.248 . S
Mg649 O648 2.028 . S
Mg649 O654 2.032 . S
Mg649 O656 2.079 . S
C650 O647 1.250 . S
C650 O648 1.248 . S
C651 O652 1.264 . S
C651 O659 1.249 . S
O652 C651 1.264 . S
O653 Mg646 1.986 . S
O653 C657 1.246 . S
O654 Mg649 2.032 . S
O654 C657 1.259 . S
O655 Mg646 2.114 . S
O655 C658 1.252 . S
O656 Mg646 2.251 . S
O656 Mg649 2.079 . S
O656 C658 1.273 . S
C657 O653 1.246 . S
C657 O654 1.259 . S
C658 O655 1.252 . S
C658 O656 1.273 . S
O659 Mg646 2.010 . S
O659 C651 1.249 . S
Mg660 O661 2.028 . S
Mg660 O667 1.986 . S
Mg660 O669 2.114 . S
Mg660 O670 2.251 . S
Mg660 O673 2.010 . S
O661 Mg660 2.028 . S
O661 C664 1.250 . S
O662 Mg663 2.028 . S
O662 C664 1.248 . S
Mg663 O662 2.028 . S
Mg663 O668 2.032 . S
Mg663 O670 2.079 . S
C664 O661 1.250 . S
C664 O662 1.248 . S
C665 O666 1.264 . S
C665 O673 1.249 . S
O666 C665 1.264 . S
O667 Mg660 1.986 . S
O667 C671 1.246 . S
O668 Mg663 2.032 . S
O668 C671 1.259 . S
O669 Mg660 2.114 . S
O669 C672 1.252 . S
O670 Mg660 2.251 . S
O670 Mg663 2.079 . S
O670 C672 1.273 . S
C671 O667 1.246 . S
C671 O668 1.259 . S
C672 O669 1.252 . S
C672 O670 1.273 . S
O673 Mg660 2.010 . S
O673 C665 1.249 . S
Mg674 O675 2.028 1_545 S
Mg674 O681 1.986 1_545 S
Mg674 O683 2.114 . S
Mg674 O684 2.251 . S
Mg674 O687 2.010 . S
O675 Mg674 2.028 1_565 S
O675 C678 1.250 . S
O676 Mg677 2.028 . S
O676 C678 1.248 . S
Mg677 O676 2.028 . S
Mg677 O682 2.032 . S
Mg677 O684 2.079 1_565 S
C678 O675 1.250 . S
C678 O676 1.248 . S
C679 O680 1.264 . S
C679 O687 1.249 . S
O680 C679 1.264 . S
O681 Mg674 1.986 1_565 S
O681 C685 1.246 . S
O682 Mg677 2.032 . S
O682 C685 1.259 . S
O683 Mg674 2.114 . S
O683 C686 1.252 . S
O684 Mg674 2.251 . S
O684 Mg677 2.079 1_545 S
O684 C686 1.273 . S
C685 O681 1.246 . S
C685 O682 1.259 . S
C686 O683 1.252 . S
C686 O684 1.273 . S
O687 Mg674 2.010 . S
O687 C679 1.249 . S
Mg688 O689 2.028 . S
Mg688 O695 1.986 . S
Mg688 O697 2.114 . S
Mg688 O698 2.251 . S
Mg688 O701 2.010 . S
O689 Mg688 2.028 . S
O689 C692 1.250 1_455 S
O690 Mg691 2.028 . S
O690 C692 1.248 . S
Mg691 O690 2.028 . S
Mg691 O696 2.032 . S
Mg691 O698 2.079 1_655 S
C692 O689 1.250 1_655 S
C692 O690 1.248 . S
C693 O694 1.264 . S
C693 O701 1.249 . S
O694 C693 1.264 . S
O695 Mg688 1.986 . S
O695 C699 1.246 . S
O696 Mg691 2.032 . S
O696 C699 1.259 1_655 S
O697 Mg688 2.114 . S
O697 C700 1.252 . S
O698 Mg688 2.251 . S
O698 Mg691 2.079 1_455 S
O698 C700 1.273 . S
C699 O695 1.246 . S
C699 O696 1.259 1_455 S
C700 O697 1.252 . S
C700 O698 1.273 . S
O701 Mg688 2.010 . S
O701 C693 1.249 . S
Mg702 O703 2.028 . S
Mg702 O709 1.986 . S
Mg702 O711 2.114 . S
Mg702 O712 2.251 . S
Mg702 O715 2.010 . S
O703 Mg702 2.028 . S
O703 C706 1.250 . S
O704 Mg705 2.028 . S
O704 C706 1.248 . S
Mg705 O704 2.028 . S
Mg705 O710 2.032 . S
Mg705 O712 2.079 . S
C706 O703 1.250 . S
C706 O704 1.248 . S
C707 O708 1.264 . S
C707 O715 1.249 . S
O708 C707 1.264 . S
O709 Mg702 1.986 . S
O709 C713 1.246 . S
O710 Mg705 2.032 . S
O710 C713 1.259 . S
O711 Mg702 2.114 . S
O711 C714 1.252 . S
O712 Mg702 2.251 . S
O712 Mg705 2.079 . S
O712 C714 1.273 . S
C713 O709 1.246 . S
C713 O710 1.259 . S
C714 O711 1.252 . S
C714 O712 1.273 . S
O715 Mg702 2.010 . S
O715 C707 1.249 . S
Mg716 O717 2.028 1_655 S
Mg716 O723 2.001 . S
Mg716 O725 2.114 . S
Mg716 O726 2.251 1_655 S
Mg716 O729 2.010 . S
O717 Mg716 2.028 1_455 S
O717 C720 1.250 . S
O718 Mg719 2.028 . S
O718 C720 1.248 . S
Mg719 O718 2.028 . S
Mg719 O724 2.032 . S
Mg719 O726 2.079 . S
C720 O717 1.250 . S
C720 O718 1.248 . S
C721 O722 1.264 . S
C721 O729 1.249 . S
O722 C721 1.264 . S
O723 Mg716 2.001 . S
O723 C727 1.206 1_655 S
O724 Mg719 2.032 . S
O724 C727 1.259 . S
O725 Mg716 2.114 . S
O725 C728 1.252 . S
O726 Mg716 2.251 1_455 S
O726 Mg719 2.079 . S
O726 C728 1.273 1_455 S
C727 O723 1.206 1_455 S
C727 O724 1.259 . S
C728 O725 1.252 . S
C728 O726 1.273 1_655 S
O729 Mg716 2.010 . S
O729 C721 1.249 . S
Mg730 O731 2.028 . S
Mg730 O737 1.986 . S
Mg730 O739 2.114 . S
Mg730 O740 2.251 . S
Mg730 O743 2.010 . S
O731 Mg730 2.028 . S
O731 C734 1.250 . S
O732 Mg733 2.028 . S
O732 C734 1.248 . S
Mg733 O732 2.028 . S
Mg733 O738 2.032 . S
Mg733 O740 2.079 . S
C734 O731 1.250 . S
C734 O732 1.248 . S
C735 O736 1.264 . S
C735 O743 1.249 . S
O736 C735 1.264 . S
O737 Mg730 1.986 . S
O737 C741 1.246 . S
O738 Mg733 2.032 . S
O738 C741 1.259 . S
O739 Mg730 2.114 . S
O739 C742 1.252 . S
O740 Mg730 2.251 . S
O740 Mg733 2.079 . S
O740 C742 1.273 . S
C741 O737 1.246 . S
C741 O738 1.259 . S
C742 O739 1.252 . S
C742 O740 1.273 . S
O743 Mg730 2.010 . S
O743 C735 1.249 . S
H744 C762 0.951 . S
H745 C764 0.951 . S
H746 C766 0.950 . S
H747 C767 0.950 . S
H748 C769 0.950 . S
H749 C772 0.950 . S
H750 C773 0.950 . S
H751 C775 0.950 . S
H752 C776 0.950 . S
H753 C777 0.951 . S
H754 C779 0.951 . S
H755 C781 0.950 . S
H756 C782 0.950 . S
H757 C784 0.950 . S
H758 C787 0.950 . S
H759 C788 0.950 . S
H760 C790 0.950 . S
H761 C791 0.950 . S
C762 H744 0.951 . S
C762 C763 1.366 . S
C762 C764 1.388 . S
C763 C762 1.366 . S
C763 C767 1.385 . S
C764 H745 0.951 . S
C764 C762 1.388 . S
C764 C765 1.366 . S
C765 C764 1.366 . S
C765 C766 1.414 . S
C765 C768 1.499 . S
C766 H746 0.950 . S
C766 C765 1.414 . S
C766 C767 1.374 . S
C767 H747 0.950 . S
C767 C763 1.385 . S
C767 C766 1.374 . S
C768 C765 1.499 . S
C768 C769 1.373 . S
C768 C770 1.389 . S
C769 H748 0.950 . S
C769 C768 1.373 . S
C769 C785 1.377 . S
C770 C768 1.389 . S
C770 C771 1.524 . S
C770 C784 1.377 . S
C771 C770 1.524 . S
C771 C772 1.397 . S
C771 C776 1.363 . S
C772 H749 0.950 . S
C772 C771 1.397 . S
C772 C773 1.334 . S
C773 H750 0.950 . S
C773 C772 1.334 . S
C773 C774 1.287 . S
C774 C773 1.287 . S
C774 C775 1.524 . S
C774 H793 0.913 . S
C775 H751 0.950 . S
C775 C774 1.524 . S
C775 C776 1.415 . S
C776 H752 0.950 . S
C776 C771 1.363 . S
C776 C775 1.415 . S
C777 H753 0.951 . S
C777 C778 1.366 . S
C777 C779 1.388 . S
C778 C777 1.366 . S
C778 C782 1.385 . S
C779 H754 0.951 . S
C779 C777 1.388 . S
C779 C780 1.366 . S
C780 C779 1.366 . S
C780 C781 1.414 . S
C780 C783 1.499 . S
C781 H755 0.950 . S
C781 C780 1.414 . S
C781 C782 1.374 . S
C782 H756 0.950 . S
C782 C778 1.385 . S
C782 C781 1.374 . S
C783 C780 1.499 . S
C783 C784 1.373 . S
C783 C785 1.389 . S
C784 H757 0.950 . S
C784 C770 1.377 . S
C784 C783 1.373 . S
C785 C769 1.377 . S
C785 C783 1.389 . S
C785 C786 1.524 . S
C786 C785 1.524 . S
C786 C787 1.397 . S
C786 C791 1.363 . S
C787 H758 0.950 . S
C787 C786 1.397 . S
C787 C788 1.334 . S
C788 H759 0.950 . S
C788 C787 1.334 . S
C788 C789 1.287 . S
C789 C788 1.287 . S
C789 C790 1.524 . S
C789 H792 0.999 . S
C790 H760 0.950 . S
C790 C789 1.524 . S
C790 C791 1.415 . S
C791 H761 0.950 . S
C791 C786 1.363 . S
C791 C790 1.415 . S
H792 C789 0.999 . S
H793 C774 0.913 . S
H794 C812 0.951 . S
H795 C814 0.951 . S
H796 C816 0.950 . S
H797 C817 0.950 . S
H798 C819 0.950 . S
H799 C822 0.950 . S
H800 C823 0.950 . S
H801 C825 0.950 . S
H802 C826 0.950 . S
H803 C827 0.951 . S
H804 C829 0.951 . S
H805 C831 0.950 . S
H806 C832 0.950 . S
H807 C834 0.950 . S
H808 C837 0.950 . S
H809 C838 0.950 . S
H810 C840 0.950 . S
H811 C841 0.950 . S
C812 H794 0.951 . S
C812 C813 1.366 . S
C812 C814 1.388 . S
C813 C812 1.366 . S
C813 C817 1.385 . S
C814 H795 0.951 . S
C814 C812 1.388 . S
C814 C815 1.366 . S
C815 C814 1.366 . S
C815 C816 1.414 . S
C815 C818 1.499 . S
C816 H796 0.950 . S
C816 C815 1.414 . S
C816 C817 1.374 . S
C817 H797 0.950 . S
C817 C813 1.385 . S
C817 C816 1.374 . S
C818 C815 1.499 . S
C818 C819 1.373 . S
C818 C820 1.389 . S
C819 H798 0.950 . S
C819 C818 1.373 . S
C819 C835 1.377 . S
C820 C818 1.389 . S
C820 C821 1.524 . S
C820 C834 1.377 . S
C821 C820 1.524 . S
C821 C822 1.397 . S
C821 C826 1.363 . S
C822 H799 0.950 . S
C822 C821 1.397 . S
C822 C823 1.334 . S
C823 H800 0.950 . S
C823 C822 1.334 . S
C823 C824 1.287 . S
C824 C823 1.287 . S
C824 C825 1.524 . S
C824 H843 0.913 . S
C825 H801 0.950 . S
C825 C824 1.524 . S
C825 C826 1.415 . S
C826 H802 0.950 . S
C826 C821 1.363 . S
C826 C825 1.415 . S
C827 H803 0.951 . S
C827 C828 1.366 . S
C827 C829 1.388 . S
C828 C827 1.366 . S
C828 C832 1.385 . S
C829 H804 0.951 . S
C829 C827 1.388 . S
C829 C830 1.366 . S
C830 C829 1.366 . S
C830 C831 1.414 . S
C830 C833 1.499 . S
C831 H805 0.950 . S
C831 C830 1.414 . S
C831 C832 1.374 . S
C832 H806 0.950 . S
C832 C828 1.385 . S
C832 C831 1.374 . S
C833 C830 1.499 . S
C833 C834 1.373 . S
C833 C835 1.389 . S
C834 H807 0.950 . S
C834 C820 1.377 . S
C834 C833 1.373 . S
C835 C819 1.377 . S
C835 C833 1.389 . S
C835 C836 1.524 . S
C836 C835 1.524 . S
C836 C837 1.397 . S
C836 C841 1.363 . S
C837 H808 0.950 . S
C837 C836 1.397 . S
C837 C838 1.334 . S
C838 H809 0.950 . S
C838 C837 1.334 . S
C838 C839 1.287 . S
C839 C838 1.287 . S
C839 C840 1.524 . S
C839 H842 0.999 . S
C840 H810 0.950 . S
C840 C839 1.524 . S
C840 C841 1.415 . S
C841 H811 0.950 . S
C841 C836 1.363 . S
C841 C840 1.415 . S
H842 C839 0.999 . S
H843 C824 0.913 . S
H844 C862 0.951 . S
H845 C864 0.951 . S
H846 C866 0.950 . S
H847 C867 0.950 . S
H848 C869 0.950 . S
H849 C872 0.950 . S
H850 C873 0.950 . S
H851 C875 0.950 . S
H852 C876 0.950 . S
H853 C877 0.951 . S
H854 C879 0.951 . S
H855 C881 0.950 . S
H856 C882 0.950 . S
H857 C884 0.950 . S
H858 C887 0.950 . S
H859 C888 0.950 . S
H860 C890 0.950 . S
H861 C891 0.950 . S
C862 H844 0.951 . S
C862 C863 1.366 . S
C862 C864 1.388 . S
C863 C862 1.366 . S
C863 C867 1.385 . S
C864 H845 0.951 . S
C864 C862 1.388 . S
C864 C865 1.366 . S
C865 C864 1.366 . S
C865 C866 1.414 . S
C865 C868 1.499 . S
C866 H846 0.950 . S
C866 C865 1.414 . S
C866 C867 1.374 . S
C867 H847 0.950 . S
C867 C863 1.385 . S
C867 C866 1.374 . S
C868 C865 1.499 . S
C868 C869 1.373 . S
C868 C870 1.389 . S
C869 H848 0.950 . S
C869 C868 1.373 . S
C869 C885 1.377 . S
C870 C868 1.389 . S
C870 C871 1.524 . S
C870 C884 1.377 . S
C871 C870 1.524 . S
C871 C872 1.397 . S
C871 C876 1.363 . S
C872 H849 0.950 . S
C872 C871 1.397 . S
C872 C873 1.334 . S
C873 H850 0.950 . S
C873 C872 1.334 . S
C873 C874 1.287 . S
C874 C873 1.287 . S
C874 C875 1.524 . S
C874 H893 0.913 . S
C875 H851 0.950 . S
C875 C874 1.524 . S
C875 C876 1.415 . S
C876 H852 0.950 . S
C876 C871 1.363 . S
C876 C875 1.415 . S
C877 H853 0.951 . S
C877 C878 1.366 . S
C877 C879 1.388 . S
C878 C877 1.366 . S
C878 C882 1.385 . S
C879 H854 0.951 . S
C879 C877 1.388 . S
C879 C880 1.366 . S
C880 C879 1.366 . S
C880 C881 1.414 . S
C880 C883 1.499 . S
C881 H855 0.950 . S
C881 C880 1.414 . S
C881 C882 1.374 . S
C882 H856 0.950 . S
C882 C878 1.385 . S
C882 C881 1.374 . S
C883 C880 1.499 . S
C883 C884 1.373 . S
C883 C885 1.389 . S
C884 H857 0.950 . S
C884 C870 1.377 . S
C884 C883 1.373 . S
C885 C869 1.377 . S
C885 C883 1.389 . S
C885 C886 1.524 . S
C886 C885 1.524 . S
C886 C887 1.397 . S
C886 C891 1.363 . S
C887 H858 0.950 . S
C887 C886 1.397 . S
C887 C888 1.334 . S
C888 H859 0.950 . S
C888 C887 1.334 . S
C888 C889 1.287 . S
C889 C888 1.287 . S
C889 C890 1.524 . S
C889 H892 0.999 . S
C890 H860 0.950 . S
C890 C889 1.524 . S
C890 C891 1.415 . S
C891 H861 0.950 . S
C891 C886 1.363 . S
C891 C890 1.415 . S
H892 C889 0.999 . S
H893 C874 0.913 . S
H894 C912 0.989 1_455 S
H895 C914 0.951 . S
H896 C916 0.950 . S
H897 C917 0.950 . S
H898 C919 0.950 . S
H899 C922 0.950 . S
H900 C923 0.950 . S
H901 C925 0.950 . S
H902 C926 0.950 . S
H903 C927 0.951 . S
H904 C929 0.951 . S
H905 C931 0.950 . S
H906 C932 0.950 . S
H907 C934 0.950 . S
H908 C937 0.950 . S
H909 C938 0.950 . S
H910 C940 0.950 . S
H911 C941 0.950 . S
C912 H894 0.989 1_655 S
C912 C913 1.314 1_545 S
C912 C914 1.404 . S
C913 C912 1.314 1_565 S
C913 C917 1.385 . S
C914 H895 0.951 . S
C914 C912 1.404 . S
C914 C915 1.366 1_545 S
C915 C914 1.366 1_565 S
C915 C916 1.414 . S
C915 C918 1.499 . S
C916 H896 0.950 . S
C916 C915 1.414 . S
C916 C917 1.374 . S
C917 H897 0.950 . S
C917 C913 1.385 . S
C917 C916 1.374 . S
C918 C915 1.499 . S
C918 C919 1.373 . S
C918 C920 1.389 1_565 S
C919 H898 0.950 . S
C919 C918 1.373 . S
C919 C935 1.377 . S
C920 C918 1.389 1_545 S
C920 C921 1.524 . S
C920 C934 1.377 . S
C921 C920 1.524 . S
C921 C922 1.397 . S
C921 C926 1.363 . S
C922 H899 0.950 . S
C922 C921 1.397 . S
C922 C923 1.334 . S
C923 H900 0.950 . S
C923 C922 1.334 . S
C923 C924 1.287 . S
C924 C923 1.287 . S
C924 C925 1.524 . S
C924 H943 0.913 . S
C925 H901 0.950 . S
C925 C924 1.524 . S
C925 C926 1.415 . S
C926 H902 0.950 . S
C926 C921 1.363 . S
C926 C925 1.415 . S
C927 H903 0.951 . S
C927 C928 1.366 1_565 S
C927 C929 1.388 . S
C928 C927 1.366 1_545 S
C928 C932 1.385 . S
C929 H904 0.951 . S
C929 C927 1.388 . S
C929 C930 1.366 1_565 S
C930 C929 1.366 1_545 S
C930 C931 1.414 . S
C930 C933 1.499 . S
C931 H905 0.950 . S
C931 C930 1.414 . S
C931 C932 1.374 . S
C932 H906 0.950 . S
C932 C928 1.385 . S
C932 C931 1.374 . S
C933 C930 1.499 . S
C933 C934 1.374 . S
C933 C935 1.389 1_545 S
C934 H907 0.950 . S
C934 C920 1.377 . S
C934 C933 1.374 . S
C935 C919 1.377 . S
C935 C933 1.389 1_565 S
C935 C936 1.524 . S
C936 C935 1.524 . S
C936 C937 1.397 . S
C936 C941 1.363 . S
C937 H908 0.950 . S
C937 C936 1.397 . S
C937 C938 1.334 . S
C938 H909 0.950 . S
C938 C937 1.334 . S
C938 C939 1.287 . S
C939 C938 1.287 . S
C939 C940 1.524 . S
C939 H942 0.999 . S
C940 H910 0.950 . S
C940 C939 1.524 . S
C940 C941 1.415 . S
C941 H911 0.950 . S
C941 C936 1.363 . S
C941 C940 1.415 . S
H942 C939 0.999 . S
H943 C924 0.913 . S
H944 C962 0.951 . S
H945 C964 0.951 . S
H946 C966 0.950 . S
H947 C967 0.950 . S
H948 C969 0.950 . S
H949 C972 0.950 . S
H950 C973 0.950 . S
H951 C975 0.950 . S
H952 C976 0.950 . S
H953 C977 0.951 . S
H954 C979 0.951 . S
H955 C981 0.950 . S
H956 C982 0.950 . S
H957 C984 0.950 . S
H958 C987 0.950 . S
H959 C988 0.950 . S
H960 C990 0.950 . S
H961 C991 0.950 . S
C962 H944 0.951 . S
C962 C963 1.366 . S
C962 C964 1.388 . S
C963 C962 1.366 . S
C963 C967 1.385 . S
C964 H945 0.951 . S
C964 C962 1.388 . S
C964 C965 1.366 . S
C965 C964 1.366 . S
C965 C966 1.414 . S
C965 C968 1.499 . S
C966 H946 0.950 . S
C966 C965 1.414 . S
C966 C967 1.374 . S
C967 H947 0.950 . S
C967 C963 1.385 . S
C967 C966 1.374 . S
C968 C965 1.499 . S
C968 C969 1.373 . S
C968 C970 1.389 . S
C969 H948 0.950 . S
C969 C968 1.373 . S
C969 C985 1.377 . S
C970 C968 1.389 . S
C970 C971 1.524 . S
C970 C984 1.377 . S
C971 C970 1.524 . S
C971 C972 1.397 . S
C971 C976 1.363 . S
C972 H949 0.950 . S
C972 C971 1.397 . S
C972 C973 1.334 . S
C973 H950 0.950 . S
C973 C972 1.334 . S
C973 C974 1.287 . S
C974 C973 1.287 . S
C974 C975 1.524 . S
C974 H993 0.913 . S
C975 H951 0.950 . S
C975 C974 1.524 . S
C975 C976 1.415 . S
C976 H952 0.950 . S
C976 C971 1.363 . S
C976 C975 1.415 . S
C977 H953 0.951 . S
C977 C978 1.366 . S
C977 C979 1.388 . S
C978 C977 1.366 . S
C978 C982 1.385 . S
C979 H954 0.951 . S
C979 C977 1.388 . S
C979 C980 1.366 . S
C980 C979 1.366 . S
C980 C981 1.414 . S
C980 C983 1.499 . S
C981 H955 0.950 . S
C981 C980 1.414 . S
C981 C982 1.374 . S
C982 H956 0.950 . S
C982 C978 1.385 . S
C982 C981 1.374 . S
C983 C980 1.499 . S
C983 C984 1.373 . S
C983 C985 1.389 . S
C984 H957 0.950 . S
C984 C970 1.377 . S
C984 C983 1.373 . S
C985 C969 1.377 . S
C985 C983 1.389 . S
C985 C986 1.524 . S
C986 C985 1.524 . S
C986 C987 1.397 . S
C986 C991 1.363 . S
C987 H958 0.950 . S
C987 C986 1.397 . S
C987 C988 1.334 . S
C988 H959 0.950 . S
C988 C987 1.334 . S
C988 C989 1.287 . S
C989 C988 1.287 . S
C989 C990 1.524 . S
C989 H992 0.999 . S
C990 H960 0.950 . S
C990 C989 1.524 . S
C990 C991 1.415 . S
C991 H961 0.950 . S
C991 C986 1.363 . S
C991 C990 1.415 . S
H992 C989 0.999 . S
H993 C974 0.913 . S
H994 C1012 0.951 . S
H995 C1014 0.951 . S
H996 C1016 0.950 . S
H997 C1017 0.950 . S
H998 C1019 0.950 . S
H999 C1022 0.950 . S
H1000 C1023 0.950 . S
H1001 C1025 0.950 . S
H1002 C1026 0.950 . S
H1003 C1027 0.951 . S
H1004 C1029 0.951 . S
H1005 C1031 0.950 . S
H1006 C1032 0.950 . S
H1007 C1034 0.950 . S
H1008 C1037 0.950 . S
H1009 C1038 0.950 . S
H1010 C1040 0.950 . S
H1011 C1041 0.950 . S
C1012 H994 0.951 . S
C1012 C1013 1.366 . S
C1012 C1014 1.388 . S
C1013 C1012 1.366 . S
C1013 C1017 1.385 . S
C1014 H995 0.951 . S
C1014 C1012 1.388 . S
C1014 C1015 1.366 . S
C1015 C1014 1.366 . S
C1015 C1016 1.414 . S
C1015 C1018 1.499 . S
C1016 H996 0.950 . S
C1016 C1015 1.414 . S
C1016 C1017 1.374 . S
C1017 H997 0.950 . S
C1017 C1013 1.385 . S
C1017 C1016 1.374 . S
C1018 C1015 1.499 . S
C1018 C1019 1.373 . S
C1018 C1020 1.389 . S
C1019 H998 0.950 . S
C1019 C1018 1.373 . S
C1019 C1035 1.377 . S
C1020 C1018 1.389 . S
C1020 C1021 1.524 . S
C1020 C1034 1.377 . S
C1021 C1020 1.524 . S
C1021 C1022 1.397 . S
C1021 C1026 1.363 . S
C1022 H999 0.950 . S
C1022 C1021 1.397 . S
C1022 C1023 1.334 . S
C1023 H1000 0.950 . S
C1023 C1022 1.334 . S
C1023 C1024 1.287 . S
C1024 C1023 1.287 . S
C1024 C1025 1.524 . S
C1024 H1043 0.913 . S
C1025 H1001 0.950 . S
C1025 C1024 1.524 . S
C1025 C1026 1.415 . S
C1026 H1002 0.950 . S
C1026 C1021 1.363 . S
C1026 C1025 1.415 . S
C1027 H1003 0.951 . S
C1027 C1028 1.366 . S
C1027 C1029 1.388 . S
C1028 C1027 1.366 . S
C1028 C1032 1.385 . S
C1029 H1004 0.951 . S
C1029 C1027 1.388 . S
C1029 C1030 1.366 . S
C1030 C1029 1.366 . S
C1030 C1031 1.414 . S
C1030 C1033 1.499 . S
C1031 H1005 0.950 . S
C1031 C1030 1.414 . S
C1031 C1032 1.374 . S
C1032 H1006 0.950 . S
C1032 C1028 1.385 . S
C1032 C1031 1.374 . S
C1033 C1030 1.499 . S
C1033 C1034 1.373 . S
C1033 C1035 1.389 . S
C1034 H1007 0.950 . S
C1034 C1020 1.377 . S
C1034 C1033 1.373 . S
C1035 C1019 1.377 . S
C1035 C1033 1.389 . S
C1035 C1036 1.524 . S
C1036 C1035 1.524 . S
C1036 C1037 1.397 . S
C1036 C1041 1.363 . S
C1037 H1008 0.950 . S
C1037 C1036 1.397 . S
C1037 C1038 1.334 . S
C1038 H1009 0.950 . S
C1038 C1037 1.334 . S
C1038 C1039 1.287 . S
C1039 C1038 1.287 . S
C1039 C1040 1.524 . S
C1039 H1042 0.999 . S
C1040 H1010 0.950 . S
C1040 C1039 1.524 . S
C1040 C1041 1.415 . S
C1041 H1011 0.950 . S
C1041 C1036 1.363 . S
C1041 C1040 1.415 . S
H1042 C1039 0.999 . S
H1043 C1024 0.913 . S
H1044 C1062 0.951 . S
H1045 C1064 0.951 . S
H1046 C1066 0.950 . S
H1047 C1067 0.950 . S
H1048 C1069 0.950 . S
H1049 C1072 0.950 . S
H1050 C1073 0.950 . S
H1051 C1075 0.950 . S
H1052 C1076 0.950 . S
H1053 C1077 0.951 . S
H1054 C1079 0.951 . S
H1055 C1081 0.950 . S
H1056 C1082 0.950 . S
H1057 C1084 0.950 . S
H1058 C1087 0.950 . S
H1059 C1088 0.950 . S
H1060 C1090 0.950 . S
H1061 C1091 0.950 . S
C1062 H1044 0.951 . S
C1062 C1063 1.366 . S
C1062 C1064 1.388 . S
C1063 C1062 1.366 . S
C1063 C1067 1.385 . S
C1064 H1045 0.951 . S
C1064 C1062 1.388 . S
C1064 C1065 1.366 . S
C1065 C1064 1.366 . S
C1065 C1066 1.414 . S
C1065 C1068 1.499 . S
C1066 H1046 0.950 . S
C1066 C1065 1.414 . S
C1066 C1067 1.374 . S
C1067 H1047 0.950 . S
C1067 C1063 1.385 . S
C1067 C1066 1.374 . S
C1068 C1065 1.499 . S
C1068 C1069 1.373 . S
C1068 C1070 1.389 . S
C1069 H1048 0.950 . S
C1069 C1068 1.373 . S
C1069 C1085 1.377 . S
C1070 C1068 1.389 . S
C1070 C1071 1.524 . S
C1070 C1084 1.377 . S
C1071 C1070 1.524 . S
C1071 C1072 1.397 . S
C1071 C1076 1.363 . S
C1072 H1049 0.950 . S
C1072 C1071 1.397 . S
C1072 C1073 1.334 . S
C1073 H1050 0.950 . S
C1073 C1072 1.334 . S
C1073 C1074 1.287 . S
C1074 C1073 1.287 . S
C1074 C1075 1.524 . S
C1074 H1093 0.913 . S
C1075 H1051 0.950 . S
C1075 C1074 1.524 . S
C1075 C1076 1.415 . S
C1076 H1052 0.950 . S
C1076 C1071 1.363 . S
C1076 C1075 1.415 . S
C1077 H1053 0.951 . S
C1077 C1078 1.366 . S
C1077 C1079 1.388 . S
C1078 C1077 1.366 . S
C1078 C1082 1.385 . S
C1079 H1054 0.951 . S
C1079 C1077 1.388 . S
C1079 C1080 1.366 . S
C1080 C1079 1.366 . S
C1080 C1081 1.414 . S
C1080 C1083 1.499 . S
C1081 H1055 0.950 . S
C1081 C1080 1.414 . S
C1081 C1082 1.374 . S
C1082 H1056 0.950 . S
C1082 C1078 1.385 . S
C1082 C1081 1.374 . S
C1083 C1080 1.499 . S
C1083 C1084 1.373 . S
C1083 C1085 1.389 . S
C1084 H1057 0.950 . S
C1084 C1070 1.377 . S
C1084 C1083 1.373 . S
C1085 C1069 1.377 . S
C1085 C1083 1.389 . S
C1085 C1086 1.524 . S
C1086 C1085 1.524 . S
C1086 C1087 1.397 . S
C1086 C1091 1.363 . S
C1087 H1058 0.950 . S
C1087 C1086 1.397 . S
C1087 C1088 1.334 . S
C1088 H1059 0.950 . S
C1088 C1087 1.334 . S
C1088 C1089 1.287 . S
C1089 C1088 1.287 . S
C1089 C1090 1.524 . S
C1089 H1092 0.999 . S
C1090 H1060 0.950 . S
C1090 C1089 1.524 . S
C1090 C1091 1.415 . S
C1091 H1061 0.950 . S
C1091 C1086 1.363 . S
C1091 C1090 1.415 . S
H1092 C1089 0.999 . S
H1093 C1074 0.913 . S
H1094 C1112 0.951 . S
H1095 C1114 0.951 . S
H1096 C1116 0.950 . S
H1097 C1117 0.950 . S
H1098 C1119 0.950 1_545 S
H1099 C1122 0.950 . S
H1100 C1123 0.950 . S
H1101 C1125 0.950 . S
H1102 C1126 0.950 . S
H1103 C1127 0.967 . S
H1104 C1129 0.951 . S
H1105 C1131 0.950 . S
H1106 C1132 0.950 . S
H1107 C1134 0.950 . S
H1108 C1137 0.950 . S
H1109 C1138 0.950 . S
H1110 C1140 0.950 . S
H1111 C1141 0.950 . S
C1112 H1094 0.951 . S
C1112 C1113 1.366 . S
C1112 C1114 1.388 . S
C1113 C1112 1.366 . S
C1113 C1117 1.385 . S
C1114 H1095 0.951 . S
C1114 C1112 1.388 . S
C1114 C1115 1.366 . S
C1115 C1114 1.366 . S
C1115 C1116 1.414 . S
C1115 C1118 1.499 . S
C1116 H1096 0.950 . S
C1116 C1115 1.414 . S
C1116 C1117 1.374 . S
C1117 H1097 0.950 . S
C1117 C1113 1.385 . S
C1117 C1116 1.374 . S
C1118 C1115 1.499 . S
C1118 C1119 1.373 . S
C1118 C1120 1.389 . S
C1119 H1098 0.950 1_565 S
C1119 C1118 1.373 . S
C1119 C1135 1.379 . S
C1120 C1118 1.389 . S
C1120 C1121 1.524 . S
C1120 C1134 1.377 . S
C1121 C1120 1.524 . S
C1121 C1122 1.397 . S
C1121 C1126 1.363 . S
C1122 H1099 0.950 . S
C1122 C1121 1.397 . S
C1122 C1123 1.334 . S
C1123 H1100 0.950 . S
C1123 C1122 1.334 . S
C1123 C1124 1.287 . S
C1124 C1123 1.287 . S
C1124 C1125 1.524 . S
C1124 H1143 0.913 . S
C1125 H1101 0.950 . S
C1125 C1124 1.524 . S
C1125 C1126 1.415 . S
C1126 H1102 0.950 . S
C1126 C1121 1.363 . S
C1126 C1125 1.415 . S
C1127 H1103 0.967 . S
C1127 C1128 1.366 . S
C1127 C1129 1.388 . S
C1128 C1127 1.366 . S
C1128 C1132 1.385 . S
C1129 H1104 0.951 . S
C1129 C1127 1.388 . S
C1129 C1130 1.366 . S
C1130 C1129 1.366 . S
C1130 C1131 1.414 . S
C1130 C1133 1.499 . S
C1131 H1105 0.950 . S
C1131 C1130 1.414 . S
C1131 C1132 1.374 . S
C1132 H1106 0.950 . S
C1132 C1128 1.385 . S
C1132 C1131 1.374 . S
C1133 C1130 1.499 . S
C1133 C1134 1.373 . S
C1133 C1135 1.402 . S
C1134 H1107 0.950 . S
C1134 C1120 1.377 . S
C1134 C1133 1.373 . S
C1135 C1119 1.379 . S
C1135 C1133 1.402 . S
C1135 C1136 1.508 1_565 S
C1136 C1135 1.508 1_545 S
C1136 C1137 1.397 . S
C1136 C1141 1.363 . S
C1137 H1108 0.950 . S
C1137 C1136 1.397 . S
C1137 C1138 1.334 . S
C1138 H1109 0.950 . S
C1138 C1137 1.334 . S
C1138 C1139 1.287 . S
C1139 C1138 1.287 . S
C1139 C1140 1.524 . S
C1139 H1142 0.999 . S
C1140 H1110 0.950 . S
C1140 C1139 1.524 . S
C1140 C1141 1.415 . S
C1141 H1111 0.950 . S
C1141 C1136 1.363 . S
C1141 C1140 1.415 . S
H1142 C1139 0.999 . S
H1143 C1124 0.913 . S
H1144 C1162 0.951 . S
H1145 C1164 0.951 . S
H1146 C1166 0.950 . S
H1147 C1167 0.950 . S
H1148 C1169 0.950 . S
H1149 C1172 0.950 . S
H1150 C1173 0.950 . S
H1151 C1175 0.950 . S
H1152 C1176 0.950 . S
H1153 C1177 0.951 . S
H1154 C1179 0.951 . S
H1155 C1181 0.950 . S
H1156 C1182 0.950 . S
H1157 C1184 0.950 . S
H1158 C1187 0.950 . S
H1159 C1188 0.950 . S
H1160 C1190 0.950 . S
H1161 C1191 0.950 . S
C1162 H1144 0.951 . S
C1162 C1163 1.366 . S
C1162 C1164 1.388 . S
C1163 C1162 1.366 . S
C1163 C1167 1.385 . S
C1164 H1145 0.951 . S
C1164 C1162 1.388 . S
C1164 C1165 1.366 . S
C1165 C1164 1.366 . S
C1165 C1166 1.414 . S
C1165 C1168 1.499 . S
C1166 H1146 0.950 . S
C1166 C1165 1.414 . S
C1166 C1167 1.374 . S
C1167 H1147 0.950 . S
C1167 C1163 1.385 . S
C1167 C1166 1.374 . S
C1168 C1165 1.499 . S
C1168 C1169 1.373 . S
C1168 C1170 1.389 . S
C1169 H1148 0.950 . S
C1169 C1168 1.373 . S
C1169 C1185 1.377 . S
C1170 C1168 1.389 . S
C1170 C1171 1.524 . S
C1170 C1184 1.377 . S
C1171 C1170 1.524 . S
C1171 C1172 1.397 . S
C1171 C1176 1.363 . S
C1172 H1149 0.950 . S
C1172 C1171 1.397 . S
C1172 C1173 1.334 . S
C1173 H1150 0.950 . S
C1173 C1172 1.334 . S
C1173 C1174 1.287 . S
C1174 C1173 1.287 . S
C1174 C1175 1.524 . S
C1174 H1193 0.913 . S
C1175 H1151 0.950 . S
C1175 C1174 1.524 . S
C1175 C1176 1.415 . S
C1176 H1152 0.950 . S
C1176 C1171 1.363 . S
C1176 C1175 1.415 . S
C1177 H1153 0.951 . S
C1177 C1178 1.366 . S
C1177 C1179 1.388 . S
C1178 C1177 1.366 . S
C1178 C1182 1.385 . S
C1179 H1154 0.951 . S
C1179 C1177 1.388 . S
C1179 C1180 1.366 . S
C1180 C1179 1.366 . S
C1180 C1181 1.414 . S
C1180 C1183 1.499 . S
C1181 H1155 0.950 . S
C1181 C1180 1.414 . S
C1181 C1182 1.374 . S
C1182 H1156 0.950 . S
C1182 C1178 1.385 . S
C1182 C1181 1.374 . S
C1183 C1180 1.499 . S
C1183 C1184 1.373 . S
C1183 C1185 1.389 . S
C1184 H1157 0.950 . S
C1184 C1170 1.377 . S
C1184 C1183 1.373 . S
C1185 C1169 1.377 . S
C1185 C1183 1.389 . S
C1185 C1186 1.524 . S
C1186 C1185 1.524 . S
C1186 C1187 1.397 . S
C1186 C1191 1.363 . S
C1187 H1158 0.950 . S
C1187 C1186 1.397 . S
C1187 C1188 1.334 . S
C1188 H1159 0.950 . S
C1188 C1187 1.334 . S
C1188 C1189 1.287 . S
C1189 C1188 1.287 . S
C1189 C1190 1.524 . S
C1189 H1192 0.999 . S
C1190 H1160 0.950 . S
C1190 C1189 1.524 . S
C1190 C1191 1.415 . S
C1191 H1161 0.950 . S
C1191 C1186 1.363 . S
C1191 C1190 1.415 . S
H1192 C1189 0.999 . S
H1193 C1174 0.913 . S
H1194 C1212 0.951 . S
H1195 C1214 0.951 . S
H1196 C1216 0.950 . S
H1197 C1217 0.950 . S
H1198 C1219 0.950 . S
H1199 C1222 0.950 . S
H1200 C1223 0.950 . S
H1201 C1225 0.950 . S
H1202 C1226 0.950 . S
H1203 C1227 0.951 . S
H1204 C1229 0.951 . S
H1205 C1231 0.950 . S
H1206 C1232 0.950 . S
H1207 C1234 0.950 . S
H1208 C1237 0.950 . S
H1209 C1238 0.950 . S
H1210 C1240 0.950 . S
H1211 C1241 0.950 . S
C1212 H1194 0.951 . S
C1212 C1213 1.366 . S
C1212 C1214 1.388 . S
C1213 C1212 1.366 . S
C1213 C1217 1.385 . S
C1214 H1195 0.951 . S
C1214 C1212 1.388 . S
C1214 C1215 1.366 . S
C1215 C1214 1.366 . S
C1215 C1216 1.414 . S
C1215 C1218 1.499 . S
C1216 H1196 0.950 . S
C1216 C1215 1.414 . S
C1216 C1217 1.374 . S
C1217 H1197 0.950 . S
C1217 C1213 1.385 . S
C1217 C1216 1.374 . S
C1218 C1215 1.499 . S
C1218 C1219 1.373 . S
C1218 C1220 1.389 . S
C1219 H1198 0.950 . S
C1219 C1218 1.373 . S
C1219 C1235 1.377 . S
C1220 C1218 1.389 . S
C1220 C1221 1.524 . S
C1220 C1234 1.377 . S
C1221 C1220 1.524 . S
C1221 C1222 1.397 . S
C1221 C1226 1.363 . S
C1222 H1199 0.950 . S
C1222 C1221 1.397 . S
C1222 C1223 1.334 . S
C1223 H1200 0.950 . S
C1223 C1222 1.334 . S
C1223 C1224 1.287 . S
C1224 C1223 1.287 . S
C1224 C1225 1.524 . S
C1224 H1243 0.913 . S
C1225 H1201 0.950 . S
C1225 C1224 1.524 . S
C1225 C1226 1.415 . S
C1226 H1202 0.950 . S
C1226 C1221 1.363 . S
C1226 C1225 1.415 . S
C1227 H1203 0.951 . S
C1227 C1228 1.366 . S
C1227 C1229 1.388 . S
C1228 C1227 1.366 . S
C1228 C1232 1.385 . S
C1229 H1204 0.951 . S
C1229 C1227 1.388 . S
C1229 C1230 1.366 . S
C1230 C1229 1.366 . S
C1230 C1231 1.414 . S
C1230 C1233 1.499 . S
C1231 H1205 0.950 . S
C1231 C1230 1.414 . S
C1231 C1232 1.374 . S
C1232 H1206 0.950 . S
C1232 C1228 1.385 . S
C1232 C1231 1.374 . S
C1233 C1230 1.499 . S
C1233 C1234 1.373 . S
C1233 C1235 1.389 . S
C1234 H1207 0.950 . S
C1234 C1220 1.377 . S
C1234 C1233 1.373 . S
C1235 C1219 1.377 . S
C1235 C1233 1.389 . S
C1235 C1236 1.524 . S
C1236 C1235 1.524 . S
C1236 C1237 1.397 . S
C1236 C1241 1.363 . S
C1237 H1208 0.950 . S
C1237 C1236 1.397 . S
C1237 C1238 1.334 . S
C1238 H1209 0.950 . S
C1238 C1237 1.334 . S
C1238 C1239 1.287 . S
C1239 C1238 1.287 . S
C1239 C1240 1.524 . S
C1239 H1242 0.999 . S
C1240 H1210 0.950 . S
C1240 C1239 1.524 . S
C1240 C1241 1.415 . S
C1241 H1211 0.950 . S
C1241 C1236 1.363 . S
C1241 C1240 1.415 . S
H1242 C1239 0.999 . S
H1243 C1224 0.913 . S
H1244 C1262 0.951 . S
H1245 C1264 0.951 . S
H1246 C1266 0.950 . S
H1247 C1267 0.950 . S
H1248 C1269 0.950 . S
H1249 C1272 0.950 . S
H1250 C1273 0.950 . S
H1251 C1275 0.950 . S
H1252 C1276 0.950 . S
H1253 C1277 0.951 . S
H1254 C1279 0.951 . S
H1255 C1281 0.950 . S
H1256 C1282 0.950 . S
H1257 C1284 0.950 . S
H1258 C1287 0.950 . S
H1259 C1288 0.950 . S
H1260 C1290 0.950 . S
H1261 C1291 0.950 . S
C1262 H1244 0.951 . S
C1262 C1263 1.366 . S
C1262 C1264 1.388 . S
C1263 C1262 1.366 . S
C1263 C1267 1.385 . S
C1264 H1245 0.951 . S
C1264 C1262 1.388 . S
C1264 C1265 1.366 . S
C1265 C1264 1.366 . S
C1265 C1266 1.414 . S
C1265 C1268 1.499 . S
C1266 H1246 0.950 . S
C1266 C1265 1.414 . S
C1266 C1267 1.374 . S
C1267 H1247 0.950 . S
C1267 C1263 1.385 . S
C1267 C1266 1.374 . S
C1268 C1265 1.499 . S
C1268 C1269 1.373 . S
C1268 C1270 1.389 . S
C1269 H1248 0.950 . S
C1269 C1268 1.373 . S
C1269 C1285 1.377 . S
C1270 C1268 1.389 . S
C1270 C1271 1.524 . S
C1270 C1284 1.377 . S
C1271 C1270 1.524 . S
C1271 C1272 1.397 . S
C1271 C1276 1.363 . S
C1272 H1249 0.950 . S
C1272 C1271 1.397 . S
C1272 C1273 1.334 . S
C1273 H1250 0.950 . S
C1273 C1272 1.334 . S
C1273 C1274 1.287 . S
C1274 C1273 1.287 . S
C1274 C1275 1.524 . S
C1274 H1293 0.913 . S
C1275 H1251 0.950 . S
C1275 C1274 1.524 . S
C1275 C1276 1.415 . S
C1276 H1252 0.950 . S
C1276 C1271 1.363 . S
C1276 C1275 1.415 . S
C1277 H1253 0.951 . S
C1277 C1278 1.366 . S
C1277 C1279 1.388 . S
C1278 C1277 1.366 . S
C1278 C1282 1.385 . S
C1279 H1254 0.951 . S
C1279 C1277 1.388 . S
C1279 C1280 1.366 . S
C1280 C1279 1.366 . S
C1280 C1281 1.414 . S
C1280 C1283 1.499 . S
C1281 H1255 0.950 . S
C1281 C1280 1.414 . S
C1281 C1282 1.374 . S
C1282 H1256 0.950 . S
C1282 C1278 1.385 . S
C1282 C1281 1.374 . S
C1283 C1280 1.499 . S
C1283 C1284 1.373 . S
C1283 C1285 1.389 . S
C1284 H1257 0.950 . S
C1284 C1270 1.377 . S
C1284 C1283 1.373 . S
C1285 C1269 1.377 . S
C1285 C1283 1.389 . S
C1285 C1286 1.524 . S
C1286 C1285 1.524 . S
C1286 C1287 1.397 . S
C1286 C1291 1.363 . S
C1287 H1258 0.950 . S
C1287 C1286 1.397 . S
C1287 C1288 1.334 . S
C1288 H1259 0.950 . S
C1288 C1287 1.334 . S
C1288 C1289 1.287 . S
C1289 C1288 1.287 . S
C1289 C1290 1.524 . S
C1289 H1292 0.999 . S
C1290 H1260 0.950 . S
C1290 C1289 1.524 . S
C1290 C1291 1.415 . S
C1291 H1261 0.950 . S
C1291 C1286 1.363 . S
C1291 C1290 1.415 . S
H1292 C1289 0.999 . S
H1293 C1274 0.913 . S
H1294 C1312 0.951 . S
H1295 C1314 0.951 . S
H1296 C1316 0.950 . S
H1297 C1317 0.950 . S
H1298 C1319 0.950 . S
H1299 C1322 0.950 . S
H1300 C1323 0.950 . S
H1301 C1325 0.950 . S
H1302 C1326 0.950 . S
H1303 C1327 0.951 . S
H1304 C1329 0.951 . S
H1305 C1331 0.950 . S
H1306 C1332 0.950 . S
H1307 C1334 0.950 . S
H1308 C1337 0.950 . S
H1309 C1338 0.950 . S
H1310 C1340 0.950 . S
H1311 C1341 0.950 . S
C1312 H1294 0.951 . S
C1312 C1313 1.366 . S
C1312 C1314 1.388 . S
C1313 C1312 1.366 . S
C1313 C1317 1.385 . S
C1314 H1295 0.951 . S
C1314 C1312 1.388 . S
C1314 C1315 1.366 . S
C1315 C1314 1.366 . S
C1315 C1316 1.414 . S
C1315 C1318 1.499 . S
C1316 H1296 0.950 . S
C1316 C1315 1.414 . S
C1316 C1317 1.374 . S
C1317 H1297 0.950 . S
C1317 C1313 1.385 . S
C1317 C1316 1.374 . S
C1318 C1315 1.499 . S
C1318 C1319 1.373 . S
C1318 C1320 1.389 . S
C1319 H1298 0.950 . S
C1319 C1318 1.373 . S
C1319 C1335 1.377 . S
C1320 C1318 1.389 . S
C1320 C1321 1.524 . S
C1320 C1334 1.377 . S
C1321 C1320 1.524 . S
C1321 C1322 1.397 . S
C1321 C1326 1.363 . S
C1322 H1299 0.950 . S
C1322 C1321 1.397 . S
C1322 C1323 1.334 . S
C1323 H1300 0.950 . S
C1323 C1322 1.334 . S
C1323 C1324 1.287 . S
C1324 C1323 1.287 . S
C1324 C1325 1.524 . S
C1324 H1343 0.913 . S
C1325 H1301 0.950 . S
C1325 C1324 1.524 . S
C1325 C1326 1.415 . S
C1326 H1302 0.950 . S
C1326 C1321 1.363 . S
C1326 C1325 1.415 . S
C1327 H1303 0.951 . S
C1327 C1328 1.366 . S
C1327 C1329 1.388 . S
C1328 C1327 1.366 . S
C1328 C1332 1.385 . S
C1329 H1304 0.951 . S
C1329 C1327 1.388 . S
C1329 C1330 1.366 . S
C1330 C1329 1.366 . S
C1330 C1331 1.414 . S
C1330 C1333 1.499 . S
C1331 H1305 0.950 . S
C1331 C1330 1.414 . S
C1331 C1332 1.374 . S
C1332 H1306 0.950 . S
C1332 C1328 1.385 . S
C1332 C1331 1.374 . S
C1333 C1330 1.499 . S
C1333 C1334 1.373 . S
C1333 C1335 1.389 . S
C1334 H1307 0.950 . S
C1334 C1320 1.377 . S
C1334 C1333 1.373 . S
C1335 C1319 1.377 . S
C1335 C1333 1.389 . S
C1335 C1336 1.524 . S
C1336 C1335 1.524 . S
C1336 C1337 1.397 . S
C1336 C1341 1.363 . S
C1337 H1308 0.950 . S
C1337 C1336 1.397 . S
C1337 C1338 1.334 . S
C1338 H1309 0.950 . S
C1338 C1337 1.334 . S
C1338 C1339 1.287 . S
C1339 C1338 1.287 . S
C1339 C1340 1.524 . S
C1339 H1342 0.999 . S
C1340 H1310 0.950 . S
C1340 C1339 1.524 . S
C1340 C1341 1.415 . S
C1341 H1311 0.950 . S
C1341 C1336 1.363 . S
C1341 C1340 1.415 . S
H1342 C1339 0.999 . S
H1343 C1324 0.913 . S
H1344 C1362 0.951 . S
H1345 C1364 0.951 . S
H1346 C1366 0.950 . S
H1347 C1367 0.950 . S
H1348 C1369 0.950 . S
H1349 C1372 0.950 . S
H1350 C1373 0.950 . S
H1351 C1375 0.950 . S
H1352 C1376 0.950 . S
H1353 C1377 0.951 . S
H1354 C1379 0.951 . S
H1355 C1381 0.950 . S
H1356 C1382 0.950 . S
H1357 C1384 0.950 . S
H1358 C1387 0.950 . S
H1359 C1388 0.950 . S
H1360 C1390 0.950 . S
H1361 C1391 0.950 . S
C1362 H1344 0.951 . S
C1362 C1363 1.366 . S
C1362 C1364 1.388 . S
C1363 C1362 1.366 . S
C1363 C1367 1.385 . S
C1364 H1345 0.951 . S
C1364 C1362 1.388 . S
C1364 C1365 1.366 . S
C1365 C1364 1.366 . S
C1365 C1366 1.414 . S
C1365 C1368 1.499 . S
C1366 H1346 0.950 . S
C1366 C1365 1.414 . S
C1366 C1367 1.374 . S
C1367 H1347 0.950 . S
C1367 C1363 1.385 . S
C1367 C1366 1.374 . S
C1368 C1365 1.499 . S
C1368 C1369 1.373 . S
C1368 C1370 1.389 . S
C1369 H1348 0.950 . S
C1369 C1368 1.373 . S
C1369 C1385 1.377 . S
C1370 C1368 1.389 . S
C1370 C1371 1.524 . S
C1370 C1384 1.377 . S
C1371 C1370 1.524 . S
C1371 C1372 1.397 . S
C1371 C1376 1.363 . S
C1372 H1349 0.950 . S
C1372 C1371 1.397 . S
C1372 C1373 1.334 . S
C1373 H1350 0.950 . S
C1373 C1372 1.334 . S
C1373 C1374 1.287 . S
C1374 C1373 1.287 . S
C1374 C1375 1.524 . S
C1374 H1393 0.913 . S
C1375 H1351 0.950 . S
C1375 C1374 1.524 . S
C1375 C1376 1.415 . S
C1376 H1352 0.950 . S
C1376 C1371 1.363 . S
C1376 C1375 1.415 . S
C1377 H1353 0.951 . S
C1377 C1378 1.366 . S
C1377 C1379 1.388 . S
C1378 C1377 1.366 . S
C1378 C1382 1.385 . S
C1379 H1354 0.951 . S
C1379 C1377 1.388 . S
C1379 C1380 1.366 . S
C1380 C1379 1.366 . S
C1380 C1381 1.414 . S
C1380 C1383 1.499 . S
C1381 H1355 0.950 . S
C1381 C1380 1.414 . S
C1381 C1382 1.374 . S
C1382 H1356 0.950 . S
C1382 C1378 1.385 . S
C1382 C1381 1.374 . S
C1383 C1380 1.499 . S
C1383 C1384 1.373 . S
C1383 C1385 1.389 . S
C1384 H1357 0.950 . S
C1384 C1370 1.377 . S
C1384 C1383 1.373 . S
C1385 C1369 1.377 . S
C1385 C1383 1.389 . S
C1385 C1386 1.524 . S
C1386 C1385 1.524 . S
C1386 C1387 1.397 . S
C1386 C1391 1.363 . S
C1387 H1358 0.950 . S
C1387 C1386 1.397 . S
C1387 C1388 1.334 . S
C1388 H1359 0.950 . S
C1388 C1387 1.334 . S
C1388 C1389 1.287 . S
C1389 C1388 1.287 . S
C1389 C1390 1.524 . S
C1389 H1392 0.999 . S
C1390 H1360 0.950 . S
C1390 C1389 1.524 . S
C1390 C1391 1.415 . S
C1391 H1361 0.950 . S
C1391 C1386 1.363 . S
C1391 C1390 1.415 . S
H1392 C1389 0.999 . S
H1393 C1374 0.913 . S
H1394 C1412 0.951 . S
H1395 C1414 0.951 . S
H1396 C1416 0.950 . S
H1397 C1417 0.950 . S
H1398 C1419 0.950 . S
H1399 C1422 0.950 . S
H1400 C1423 0.950 . S
H1401 C1425 0.950 . S
H1402 C1426 0.950 . S
H1403 C1427 0.961 . S
H1404 C1429 0.951 1_655 S
H1405 C1431 0.950 . S
H1406 C1432 0.950 . S
H1407 C1434 0.950 . S
H1408 C1437 0.950 1_455 S
H1409 C1438 0.950 . S
H1410 C1440 0.950 . S
H1411 C1441 0.950 . S
C1412 H1394 0.951 . S
C1412 C1413 1.366 . S
C1412 C1414 1.388 . S
C1413 C1412 1.366 . S
C1413 C1417 1.385 . S
C1414 H1395 0.951 . S
C1414 C1412 1.388 . S
C1414 C1415 1.366 . S
C1415 C1414 1.366 . S
C1415 C1416 1.414 . S
C1415 C1418 1.499 . S
C1416 H1396 0.950 . S
C1416 C1415 1.414 . S
C1416 C1417 1.374 . S
C1417 H1397 0.950 . S
C1417 C1413 1.385 . S
C1417 C1416 1.374 . S
C1418 C1415 1.499 . S
C1418 C1419 1.373 . S
C1418 C1420 1.389 . S
C1419 H1398 0.950 . S
C1419 C1418 1.373 . S
C1419 C1435 1.377 . S
C1420 C1418 1.389 . S
C1420 C1421 1.524 . S
C1420 C1434 1.377 . S
C1421 C1420 1.524 . S
C1421 C1422 1.397 . S
C1421 C1426 1.363 . S
C1422 H1399 0.950 . S
C1422 C1421 1.397 . S
C1422 C1423 1.334 . S
C1423 H1400 0.950 . S
C1423 C1422 1.334 . S
C1423 C1424 1.287 . S
C1424 C1423 1.287 . S
C1424 C1425 1.524 . S
C1424 H1443 0.913 . S
C1425 H1401 0.950 . S
C1425 C1424 1.524 . S
C1425 C1426 1.415 . S
C1426 H1402 0.950 . S
C1426 C1421 1.363 . S
C1426 C1425 1.415 . S
C1427 H1403 0.961 . S
C1427 C1428 1.358 1_655 S
C1427 C1429 1.386 1_655 S
C1428 C1427 1.358 1_455 S
C1428 C1432 1.385 . S
C1429 H1404 0.951 1_455 S
C1429 C1427 1.386 1_455 S
C1429 C1430 1.366 . S
C1430 C1429 1.366 . S
C1430 C1431 1.414 . S
C1430 C1433 1.499 . S
C1431 H1405 0.950 . S
C1431 C1430 1.414 . S
C1431 C1432 1.374 . S
C1432 H1406 0.950 . S
C1432 C1428 1.385 . S
C1432 C1431 1.374 . S
C1433 C1430 1.499 . S
C1433 C1434 1.373 . S
C1433 C1435 1.389 . S
C1434 H1407 0.950 . S
C1434 C1420 1.377 . S
C1434 C1433 1.373 . S
C1435 C1419 1.377 . S
C1435 C1433 1.389 . S
C1435 C1436 1.524 1_455 S
C1436 C1435 1.524 1_655 S
C1436 C1437 1.397 . S
C1436 C1441 1.363 . S
C1437 H1408 0.950 1_655 S
C1437 C1436 1.397 . S
C1437 C1438 1.334 . S
C1438 H1409 0.950 . S
C1438 C1437 1.334 . S
C1438 C1439 1.287 . S
C1439 C1438 1.287 . S
C1439 C1440 1.524 . S
C1439 H1442 0.999 . S
C1440 H1410 0.950 . S
C1440 C1439 1.524 . S
C1440 C1441 1.415 . S
C1441 H1411 0.950 . S
C1441 C1436 1.363 . S
C1441 C1440 1.415 . S
H1442 C1439 0.999 . S
H1443 C1424 0.913 . S
H1444 C1462 0.951 . S
H1445 C1464 0.951 . S
H1446 C1466 0.950 . S
H1447 C1467 0.950 . S
H1448 C1469 0.950 . S
H1449 C1472 0.950 . S
H1450 C1473 0.950 . S
H1451 C1475 0.950 . S
H1452 C1476 0.950 . S
H1453 C1477 0.951 . S
H1454 C1479 0.951 . S
H1455 C1481 0.950 . S
H1456 C1482 0.950 . S
H1457 C1484 0.950 . S
H1458 C1487 0.950 . S
H1459 C1488 0.950 . S
H1460 C1490 0.950 . S
H1461 C1491 0.950 . S
C1462 H1444 0.951 . S
C1462 C1463 1.366 . S
C1462 C1464 1.388 . S
C1463 C1462 1.366 . S
C1463 C1467 1.385 . S
C1464 H1445 0.951 . S
C1464 C1462 1.388 . S
C1464 C1465 1.366 . S
C1465 C1464 1.366 . S
C1465 C1466 1.414 . S
C1465 C1468 1.499 . S
C1466 H1446 0.950 . S
C1466 C1465 1.414 . S
C1466 C1467 1.374 . S
C1467 H1447 0.950 . S
C1467 C1463 1.385 . S
C1467 C1466 1.374 . S
C1468 C1465 1.499 . S
C1468 C1469 1.373 . S
C1468 C1470 1.389 . S
C1469 H1448 0.950 . S
C1469 C1468 1.373 . S
C1469 C1485 1.377 . S
C1470 C1468 1.389 . S
C1470 C1471 1.524 . S
C1470 C1484 1.377 . S
C1471 C1470 1.524 . S
C1471 C1472 1.397 . S
C1471 C1476 1.363 . S
C1472 H1449 0.950 . S
C1472 C1471 1.397 . S
C1472 C1473 1.334 . S
C1473 H1450 0.950 . S
C1473 C1472 1.334 . S
C1473 C1474 1.287 . S
C1474 C1473 1.287 . S
C1474 C1475 1.524 . S
C1474 H1493 0.913 . S
C1475 H1451 0.950 . S
C1475 C1474 1.524 . S
C1475 C1476 1.415 . S
C1476 H1452 0.950 . S
C1476 C1471 1.363 . S
C1476 C1475 1.415 . S
C1477 H1453 0.951 . S
C1477 C1478 1.366 . S
C1477 C1479 1.388 . S
C1478 C1477 1.366 . S
C1478 C1482 1.385 . S
C1479 H1454 0.951 . S
C1479 C1477 1.388 . S
C1479 C1480 1.366 . S
C1480 C1479 1.366 . S
C1480 C1481 1.414 . S
C1480 C1483 1.499 . S
C1481 H1455 0.950 . S
C1481 C1480 1.414 . S
C1481 C1482 1.374 . S
C1482 H1456 0.950 . S
C1482 C1478 1.385 . S
C1482 C1481 1.374 . S
C1483 C1480 1.499 . S
C1483 C1484 1.373 . S
C1483 C1485 1.389 . S
C1484 H1457 0.950 . S
C1484 C1470 1.377 . S
C1484 C1483 1.373 . S
C1485 C1469 1.377 . S
C1485 C1483 1.389 . S
C1485 C1486 1.524 . S
C1486 C1485 1.524 . S
C1486 C1487 1.397 . S
C1486 C1491 1.363 . S
C1487 H1458 0.950 . S
C1487 C1486 1.397 . S
C1487 C1488 1.334 . S
C1488 H1459 0.950 . S
C1488 C1487 1.334 . S
C1488 C1489 1.287 . S
C1489 C1488 1.287 . S
C1489 C1490 1.524 . S
C1489 H1492 0.999 . S
C1490 H1460 0.950 . S
C1490 C1489 1.524 . S
C1490 C1491 1.415 . S
C1491 H1461 0.950 . S
C1491 C1486 1.363 . S
C1491 C1490 1.415 . S
H1492 C1489 0.999 . S
H1493 C1474 0.913 . S
H1494 C1512 0.951 . S
H1495 C1514 0.951 . S
H1496 C1516 0.950 . S
H1497 C1517 0.950 . S
H1498 C1519 0.950 . S
H1499 C1522 0.950 . S
H1500 C1523 0.950 . S
H1501 C1525 0.950 . S
H1502 C1526 0.950 . S
H1503 C1527 0.951 . S
H1504 C1529 0.951 . S
H1505 C1531 0.942 1_455 S
H1506 C1532 0.950 . S
H1507 C1534 0.950 . S
H1508 C1537 0.950 . S
H1509 C1538 0.950 . S
H1510 C1540 0.950 . S
H1511 C1541 0.950 . S
C1512 H1494 0.951 . S
C1512 C1513 1.366 . S
C1512 C1514 1.388 . S
C1513 C1512 1.366 . S
C1513 C1517 1.385 . S
C1514 H1495 0.951 . S
C1514 C1512 1.388 . S
C1514 C1515 1.366 . S
C1515 C1514 1.366 . S
C1515 C1516 1.414 . S
C1515 C1518 1.499 . S
C1516 H1496 0.950 . S
C1516 C1515 1.414 . S
C1516 C1517 1.374 . S
C1517 H1497 0.950 . S
C1517 C1513 1.385 . S
C1517 C1516 1.374 . S
C1518 C1515 1.499 . S
C1518 C1519 1.373 . S
C1518 C1520 1.389 . S
C1519 H1498 0.950 . S
C1519 C1518 1.373 . S
C1519 C1535 1.377 . S
C1520 C1518 1.389 . S
C1520 C1521 1.524 . S
C1520 C1534 1.377 . S
C1521 C1520 1.524 . S
C1521 C1522 1.397 . S
C1521 C1526 1.363 . S
C1522 H1499 0.950 . S
C1522 C1521 1.397 . S
C1522 C1523 1.334 . S
C1523 H1500 0.950 . S
C1523 C1522 1.334 . S
C1523 C1524 1.287 . S
C1524 C1523 1.287 . S
C1524 C1525 1.524 . S
C1524 H1543 0.913 . S
C1525 H1501 0.950 . S
C1525 C1524 1.524 . S
C1525 C1526 1.415 . S
C1526 H1502 0.950 . S
C1526 C1521 1.363 . S
C1526 C1525 1.415 . S
C1527 H1503 0.951 . S
C1527 C1528 1.366 . S
C1527 C1529 1.388 . S
C1528 C1527 1.366 . S
C1528 C1532 1.385 1_655 S
C1529 H1504 0.951 . S
C1529 C1527 1.388 . S
C1529 C1530 1.366 . S
C1530 C1529 1.366 . S
C1530 C1531 1.424 . S
C1530 C1533 1.499 . S
C1531 H1505 0.942 1_655 S
C1531 C1530 1.424 . S
C1531 C1532 1.373 1_655 S
C1532 H1506 0.950 . S
C1532 C1528 1.385 1_455 S
C1532 C1531 1.373 1_455 S
C1533 C1530 1.499 . S
C1533 C1534 1.373 . S
C1533 C1535 1.389 . S
C1534 H1507 0.950 . S
C1534 C1520 1.377 . S
C1534 C1533 1.373 . S
C1535 C1519 1.377 . S
C1535 C1533 1.389 . S
C1535 C1536 1.524 1_655 S
C1536 C1535 1.524 1_455 S
C1536 C1537 1.397 . S
C1536 C1541 1.363 1_455 S
C1537 H1508 0.950 . S
C1537 C1536 1.397 . S
C1537 C1538 1.334 . S
C1538 H1509 0.950 . S
C1538 C1537 1.334 . S
C1538 C1539 1.287 . S
C1539 C1538 1.287 . S
C1539 C1540 1.524 . S
C1539 H1542 0.999 . S
C1540 H1510 0.950 . S
C1540 C1539 1.524 . S
C1540 C1541 1.415 1_455 S
C1541 H1511 0.950 . S
C1541 C1536 1.363 1_655 S
C1541 C1540 1.415 1_655 S
H1542 C1539 0.999 . S
H1543 C1524 0.913 . S
H1544 C1562 0.951 . S
H1545 C1564 0.951 . S
H1546 C1566 0.950 . S
H1547 C1567 0.950 . S
H1548 C1569 0.950 . S
H1549 C1572 0.950 . S
H1550 C1573 0.950 . S
H1551 C1575 0.950 . S
H1552 C1576 0.950 . S
H1553 C1577 0.951 . S
H1554 C1579 0.951 . S
H1555 C1581 0.950 . S
H1556 C1582 0.950 . S
H1557 C1584 0.950 . S
H1558 C1587 0.950 . S
H1559 C1588 0.950 . S
H1560 C1590 0.950 . S
H1561 C1591 0.950 . S
C1562 H1544 0.951 . S
C1562 C1563 1.366 . S
C1562 C1564 1.388 . S
C1563 C1562 1.366 . S
C1563 C1567 1.385 . S
C1564 H1545 0.951 . S
C1564 C1562 1.388 . S
C1564 C1565 1.366 . S
C1565 C1564 1.366 . S
C1565 C1566 1.414 . S
C1565 C1568 1.499 . S
C1566 H1546 0.950 . S
C1566 C1565 1.414 . S
C1566 C1567 1.374 . S
C1567 H1547 0.950 . S
C1567 C1563 1.385 . S
C1567 C1566 1.374 . S
C1568 C1565 1.499 . S
C1568 C1569 1.373 . S
C1568 C1570 1.389 . S
C1569 H1548 0.950 . S
C1569 C1568 1.373 . S
C1569 C1585 1.377 . S
C1570 C1568 1.389 . S
C1570 C1571 1.524 . S
C1570 C1584 1.377 . S
C1571 C1570 1.524 . S
C1571 C1572 1.397 . S
C1571 C1576 1.363 . S
C1572 H1549 0.950 . S
C1572 C1571 1.397 . S
C1572 C1573 1.334 . S
C1573 H1550 0.950 . S
C1573 C1572 1.334 . S
C1573 C1574 1.287 . S
C1574 C1573 1.287 . S
C1574 C1575 1.524 . S
C1574 H1593 0.913 . S
C1575 H1551 0.950 . S
C1575 C1574 1.524 . S
C1575 C1576 1.415 . S
C1576 H1552 0.950 . S
C1576 C1571 1.363 . S
C1576 C1575 1.415 . S
C1577 H1553 0.951 . S
C1577 C1578 1.366 . S
C1577 C1579 1.388 . S
C1578 C1577 1.366 . S
C1578 C1582 1.385 . S
C1579 H1554 0.951 . S
C1579 C1577 1.388 . S
C1579 C1580 1.366 . S
C1580 C1579 1.366 . S
C1580 C1581 1.414 . S
C1580 C1583 1.499 . S
C1581 H1555 0.950 . S
C1581 C1580 1.414 . S
C1581 C1582 1.374 . S
C1582 H1556 0.950 . S
C1582 C1578 1.385 . S
C1582 C1581 1.374 . S
C1583 C1580 1.499 . S
C1583 C1584 1.373 . S
C1583 C1585 1.389 . S
C1584 H1557 0.950 . S
C1584 C1570 1.377 . S
C1584 C1583 1.373 . S
C1585 C1569 1.377 . S
C1585 C1583 1.389 . S
C1585 C1586 1.524 . S
C1586 C1585 1.524 . S
C1586 C1587 1.397 . S
C1586 C1591 1.363 . S
C1587 H1558 0.950 . S
C1587 C1586 1.397 . S
C1587 C1588 1.334 . S
C1588 H1559 0.950 . S
C1588 C1587 1.334 . S
C1588 C1589 1.287 . S
C1589 C1588 1.287 . S
C1589 C1590 1.524 . S
C1589 H1592 0.999 . S
C1590 H1560 0.950 . S
C1590 C1589 1.524 . S
C1590 C1591 1.415 . S
C1591 H1561 0.950 . S
C1591 C1586 1.363 . S
C1591 C1590 1.415 . S
H1592 C1589 0.999 . S
H1593 C1574 0.913 . S
H1594 C1612 0.951 . S
H1595 C1614 0.951 . S
H1596 C1616 0.950 . S
H1597 C1617 0.950 . S
H1598 C1619 0.950 . S
H1599 C1622 0.950 . S
H1600 C1623 0.950 . S
H1601 C1625 0.950 . S
H1602 C1626 0.950 . S
H1603 C1627 0.951 . S
H1604 C1629 0.951 . S
H1605 C1631 0.950 . S
H1606 C1632 0.950 . S
H1607 C1634 0.950 . S
H1608 C1637 0.950 . S
H1609 C1638 0.950 . S
H1610 C1640 0.950 . S
H1611 C1641 0.950 . S
C1612 H1594 0.951 . S
C1612 C1613 1.366 . S
C1612 C1614 1.388 . S
C1613 C1612 1.366 . S
C1613 C1617 1.385 . S
C1614 H1595 0.951 . S
C1614 C1612 1.388 . S
C1614 C1615 1.366 . S
C1615 C1614 1.366 . S
C1615 C1616 1.414 . S
C1615 C1618 1.499 . S
C1616 H1596 0.950 . S
C1616 C1615 1.414 . S
C1616 C1617 1.374 . S
C1617 H1597 0.950 . S
C1617 C1613 1.385 . S
C1617 C1616 1.374 . S
C1618 C1615 1.499 . S
C1618 C1619 1.373 . S
C1618 C1620 1.389 . S
C1619 H1598 0.950 . S
C1619 C1618 1.373 . S
C1619 C1635 1.377 . S
C1620 C1618 1.389 . S
C1620 C1621 1.524 . S
C1620 C1634 1.377 . S
C1621 C1620 1.524 . S
C1621 C1622 1.397 . S
C1621 C1626 1.363 . S
C1622 H1599 0.950 . S
C1622 C1621 1.397 . S
C1622 C1623 1.334 . S
C1623 H1600 0.950 . S
C1623 C1622 1.334 . S
C1623 C1624 1.287 . S
C1624 C1623 1.287 . S
C1624 C1625 1.524 . S
C1624 H1643 0.913 . S
C1625 H1601 0.950 . S
C1625 C1624 1.524 . S
C1625 C1626 1.415 . S
C1626 H1602 0.950 . S
C1626 C1621 1.363 . S
C1626 C1625 1.415 . S
C1627 H1603 0.951 . S
C1627 C1628 1.366 . S
C1627 C1629 1.388 . S
C1628 C1627 1.366 . S
C1628 C1632 1.385 . S
C1629 H1604 0.951 . S
C1629 C1627 1.388 . S
C1629 C1630 1.366 . S
C1630 C1629 1.366 . S
C1630 C1631 1.414 . S
C1630 C1633 1.499 . S
C1631 H1605 0.950 . S
C1631 C1630 1.414 . S
C1631 C1632 1.374 . S
C1632 H1606 0.950 . S
C1632 C1628 1.385 . S
C1632 C1631 1.374 . S
C1633 C1630 1.499 . S
C1633 C1634 1.373 . S
C1633 C1635 1.389 . S
C1634 H1607 0.950 . S
C1634 C1620 1.377 . S
C1634 C1633 1.373 . S
C1635 C1619 1.377 . S
C1635 C1633 1.389 . S
C1635 C1636 1.524 . S
C1636 C1635 1.524 . S
C1636 C1637 1.397 . S
C1636 C1641 1.363 . S
C1637 H1608 0.950 . S
C1637 C1636 1.397 . S
C1637 C1638 1.334 . S
C1638 H1609 0.950 . S
C1638 C1637 1.334 . S
C1638 C1639 1.287 . S
C1639 C1638 1.287 . S
C1639 C1640 1.524 . S
C1639 H1642 0.999 . S
C1640 H1610 0.950 . S
C1640 C1639 1.524 . S
C1640 C1641 1.415 . S
C1641 H1611 0.950 . S
C1641 C1636 1.363 . S
C1641 C1640 1.415 . S
H1642 C1639 0.999 . S
H1643 C1624 0.913 . S
H1644 C1662 0.951 . S
H1645 C1664 0.951 . S
H1646 C1666 0.950 . S
H1647 C1667 0.950 . S
H1648 C1669 0.950 . S
H1649 C1672 0.950 . S
H1650 C1673 0.950 . S
H1651 C1675 0.950 1_545 S
H1652 C1676 0.950 1_556 S
H1653 C1677 0.954 . S
H1654 C1679 0.950 1_554 S
H1655 C1681 0.950 . S
H1656 C1682 0.950 . S
H1657 C1684 0.950 1_554 S
H1658 C1687 0.950 . S
H1659 C1688 0.950 . S
H1660 C1690 0.950 . S
H1661 C1691 0.950 . S
C1662 H1644 0.951 . S
C1662 C1663 1.366 . S
C1662 C1664 1.388 . S
C1663 C1662 1.366 . S
C1663 C1667 1.385 . S
C1664 H1645 0.951 . S
C1664 C1662 1.388 . S
C1664 C1665 1.366 . S
C1665 C1664 1.366 . S
C1665 C1666 1.414 . S
C1665 C1668 1.499 . S
C1666 H1646 0.950 . S
C1666 C1665 1.414 . S
C1666 C1667 1.374 . S
C1667 H1647 0.950 . S
C1667 C1663 1.385 . S
C1667 C1666 1.374 . S
C1668 C1665 1.499 . S
C1668 C1669 1.373 . S
C1668 C1670 1.389 . S
C1669 H1648 0.950 . S
C1669 C1668 1.373 . S
C1669 C1685 1.377 . S
C1670 C1668 1.389 . S
C1670 C1671 1.524 1_556 S
C1670 C1684 1.377 . S
C1671 C1670 1.524 1_554 S
C1671 C1672 1.397 . S
C1671 C1676 1.363 . S
C1672 H1649 0.950 . S
C1672 C1671 1.397 . S
C1672 C1673 1.334 . S
C1673 H1650 0.950 . S
C1673 C1672 1.334 . S
C1673 C1674 1.287 . S
C1674 C1673 1.287 . S
C1674 C1675 1.524 . S
C1674 H1693 0.913 1_565 S
C1675 H1651 0.950 1_565 S
C1675 C1674 1.524 . S
C1675 C1676 1.415 . S
C1676 H1652 0.950 1_554 S
C1676 C1671 1.363 . S
C1676 C1675 1.415 . S
C1677 H1653 0.954 . S
C1677 C1678 1.365 1_554 S
C1677 C1679 1.386 1_554 S
C1678 C1677 1.365 1_556 S
C1678 C1682 1.385 . S
C1679 H1654 0.950 1_556 S
C1679 C1677 1.386 1_556 S
C1679 C1680 1.366 . S
C1680 C1679 1.366 . S
C1680 C1681 1.414 . S
C1680 C1683 1.499 . S
C1681 H1655 0.950 . S
C1681 C1680 1.414 . S
C1681 C1682 1.374 . S
C1682 H1656 0.950 . S
C1682 C1678 1.385 . S
C1682 C1681 1.374 . S
C1683 C1680 1.499 . S
C1683 C1684 1.373 . S
C1683 C1685 1.389 . S
C1684 H1657 0.950 1_556 S
C1684 C1670 1.377 . S
C1684 C1683 1.373 . S
C1685 C1669 1.377 . S
C1685 C1683 1.389 . S
C1685 C1686 1.524 . S
C1686 C1685 1.524 . S
C1686 C1687 1.397 . S
C1686 C1691 1.363 . S
C1687 H1658 0.950 . S
C1687 C1686 1.397 . S
C1687 C1688 1.334 . S
C1688 H1659 0.950 . S
C1688 C1687 1.334 . S
C1688 C1689 1.287 . S
C1689 C1688 1.287 . S
C1689 C1690 1.524 . S
C1689 H1692 0.999 . S
C1690 H1660 0.950 . S
C1690 C1689 1.524 . S
C1690 C1691 1.415 . S
C1691 H1661 0.950 . S
C1691 C1686 1.363 . S
C1691 C1690 1.415 . S
H1692 C1689 0.999 . S
H1693 C1674 0.913 1_545 S
H1694 C1712 0.951 . S
H1695 C1714 0.951 . S
H1696 C1716 0.950 . S
H1697 C1717 0.950 . S
H1698 C1719 0.950 . S
H1699 C1722 0.950 . S
H1700 C1723 0.950 . S
H1701 C1725 0.950 . S
H1702 C1726 0.950 . S
H1703 C1727 0.951 . S
H1704 C1729 0.951 . S
H1705 C1731 0.950 . S
H1706 C1732 0.950 . S
H1707 C1734 0.950 . S
H1708 C1737 0.950 . S
H1709 C1738 0.950 . S
H1710 C1740 0.950 . S
H1711 C1741 0.950 . S
C1712 H1694 0.951 . S
C1712 C1713 1.366 . S
C1712 C1714 1.388 . S
C1713 C1712 1.366 . S
C1713 C1717 1.385 . S
C1714 H1695 0.951 . S
C1714 C1712 1.388 . S
C1714 C1715 1.366 . S
C1715 C1714 1.366 . S
C1715 C1716 1.414 . S
C1715 C1718 1.499 . S
C1716 H1696 0.950 . S
C1716 C1715 1.414 . S
C1716 C1717 1.374 . S
C1717 H1697 0.950 . S
C1717 C1713 1.385 . S
C1717 C1716 1.374 . S
C1718 C1715 1.499 . S
C1718 C1719 1.373 . S
C1718 C1720 1.389 . S
C1719 H1698 0.950 . S
C1719 C1718 1.373 . S
C1719 C1735 1.377 . S
C1720 C1718 1.389 . S
C1720 C1721 1.524 . S
C1720 C1734 1.377 . S
C1721 C1720 1.524 . S
C1721 C1722 1.397 . S
C1721 C1726 1.363 . S
C1722 H1699 0.950 . S
C1722 C1721 1.397 . S
C1722 C1723 1.334 . S
C1723 H1700 0.950 . S
C1723 C1722 1.334 . S
C1723 C1724 1.287 . S
C1724 C1723 1.287 . S
C1724 C1725 1.524 . S
C1724 H1743 0.913 . S
C1725 H1701 0.950 . S
C1725 C1724 1.524 . S
C1725 C1726 1.415 . S
C1726 H1702 0.950 . S
C1726 C1721 1.363 . S
C1726 C1725 1.415 . S
C1727 H1703 0.951 . S
C1727 C1728 1.366 . S
C1727 C1729 1.388 . S
C1728 C1727 1.366 . S
C1728 C1732 1.385 . S
C1729 H1704 0.951 . S
C1729 C1727 1.388 . S
C1729 C1730 1.366 . S
C1730 C1729 1.366 . S
C1730 C1731 1.414 . S
C1730 C1733 1.499 . S
C1731 H1705 0.950 . S
C1731 C1730 1.414 . S
C1731 C1732 1.374 . S
C1732 H1706 0.950 . S
C1732 C1728 1.385 . S
C1732 C1731 1.374 . S
C1733 C1730 1.499 . S
C1733 C1734 1.373 . S
C1733 C1735 1.389 . S
C1734 H1707 0.950 . S
C1734 C1720 1.377 . S
C1734 C1733 1.373 . S
C1735 C1719 1.377 . S
C1735 C1733 1.389 . S
C1735 C1736 1.524 . S
C1736 C1735 1.524 . S
C1736 C1737 1.397 . S
C1736 C1741 1.363 . S
C1737 H1708 0.950 . S
C1737 C1736 1.397 . S
C1737 C1738 1.334 . S
C1738 H1709 0.950 . S
C1738 C1737 1.334 . S
C1738 C1739 1.287 . S
C1739 C1738 1.287 . S
C1739 C1740 1.524 . S
C1739 H1742 0.999 . S
C1740 H1710 0.950 . S
C1740 C1739 1.524 . S
C1740 C1741 1.415 . S
C1741 H1711 0.950 . S
C1741 C1736 1.363 . S
C1741 C1740 1.415 . S
H1742 C1739 0.999 . S
H1743 C1724 0.913 . S
H1744 C1762 0.951 . S
H1745 C1764 0.951 . S
H1746 C1766 0.950 . S
H1747 C1767 0.950 . S
H1748 C1769 0.950 . S
H1749 C1772 0.950 . S
H1750 C1773 0.950 . S
H1751 C1775 0.950 . S
H1752 C1776 0.950 . S
H1753 C1777 0.951 . S
H1754 C1779 0.951 . S
H1755 C1781 0.950 . S
H1756 C1782 0.950 . S
H1757 C1784 0.950 . S
H1758 C1787 0.950 . S
H1759 C1788 0.950 . S
H1760 C1790 0.950 . S
H1761 C1791 0.950 . S
C1762 H1744 0.951 . S
C1762 C1763 1.366 . S
C1762 C1764 1.388 . S
C1763 C1762 1.366 . S
C1763 C1767 1.385 . S
C1764 H1745 0.951 . S
C1764 C1762 1.388 . S
C1764 C1765 1.366 . S
C1765 C1764 1.366 . S
C1765 C1766 1.414 . S
C1765 C1768 1.499 . S
C1766 H1746 0.950 . S
C1766 C1765 1.414 . S
C1766 C1767 1.374 . S
C1767 H1747 0.950 . S
C1767 C1763 1.385 . S
C1767 C1766 1.374 . S
C1768 C1765 1.499 . S
C1768 C1769 1.373 . S
C1768 C1770 1.389 . S
C1769 H1748 0.950 . S
C1769 C1768 1.373 . S
C1769 C1785 1.377 . S
C1770 C1768 1.389 . S
C1770 C1771 1.524 . S
C1770 C1784 1.377 . S
C1771 C1770 1.524 . S
C1771 C1772 1.397 . S
C1771 C1776 1.363 . S
C1772 H1749 0.950 . S
C1772 C1771 1.397 . S
C1772 C1773 1.334 . S
C1773 H1750 0.950 . S
C1773 C1772 1.334 . S
C1773 C1774 1.287 . S
C1774 C1773 1.287 . S
C1774 C1775 1.524 . S
C1774 H1793 0.913 . S
C1775 H1751 0.950 . S
C1775 C1774 1.524 . S
C1775 C1776 1.415 . S
C1776 H1752 0.950 . S
C1776 C1771 1.363 . S
C1776 C1775 1.415 . S
C1777 H1753 0.951 . S
C1777 C1778 1.366 . S
C1777 C1779 1.388 . S
C1778 C1777 1.366 . S
C1778 C1782 1.385 . S
C1779 H1754 0.951 . S
C1779 C1777 1.388 . S
C1779 C1780 1.366 . S
C1780 C1779 1.366 . S
C1780 C1781 1.414 . S
C1780 C1783 1.499 . S
C1781 H1755 0.950 . S
C1781 C1780 1.414 . S
C1781 C1782 1.374 . S
C1782 H1756 0.950 . S
C1782 C1778 1.385 . S
C1782 C1781 1.374 . S
C1783 C1780 1.499 . S
C1783 C1784 1.373 . S
C1783 C1785 1.389 . S
C1784 H1757 0.950 . S
C1784 C1770 1.377 . S
C1784 C1783 1.373 . S
C1785 C1769 1.377 . S
C1785 C1783 1.389 . S
C1785 C1786 1.524 . S
C1786 C1785 1.524 . S
C1786 C1787 1.397 . S
C1786 C1791 1.363 . S
C1787 H1758 0.950 . S
C1787 C1786 1.397 . S
C1787 C1788 1.334 . S
C1788 H1759 0.950 . S
C1788 C1787 1.334 . S
C1788 C1789 1.287 . S
C1789 C1788 1.287 . S
C1789 C1790 1.524 . S
C1789 H1792 0.999 . S
C1790 H1760 0.950 . S
C1790 C1789 1.524 . S
C1790 C1791 1.415 . S
C1791 H1761 0.950 . S
C1791 C1786 1.363 . S
C1791 C1790 1.415 . S
H1792 C1789 0.999 . S
H1793 C1774 0.913 . S
H1794 C1812 0.951 . S
H1795 C1814 0.951 . S
H1796 C1816 0.950 . S
H1797 C1817 0.950 . S
H1798 C1819 0.950 . S
H1799 C1822 0.950 . S
H1800 C1823 0.950 . S
H1801 C1825 0.950 . S
H1802 C1826 0.950 . S
H1803 C1827 0.951 . S
H1804 C1829 0.951 . S
H1805 C1831 0.950 . S
H1806 C1832 0.950 . S
H1807 C1834 0.950 . S
H1808 C1837 0.950 . S
H1809 C1838 0.950 . S
H1810 C1840 0.950 . S
H1811 C1841 0.950 . S
C1812 H1794 0.951 . S
C1812 C1813 1.366 . S
C1812 C1814 1.388 . S
C1813 C1812 1.366 . S
C1813 C1817 1.385 . S
C1814 H1795 0.951 . S
C1814 C1812 1.388 . S
C1814 C1815 1.366 . S
C1815 C1814 1.366 . S
C1815 C1816 1.414 . S
C1815 C1818 1.499 . S
C1816 H1796 0.950 . S
C1816 C1815 1.414 . S
C1816 C1817 1.374 . S
C1817 H1797 0.950 . S
C1817 C1813 1.385 . S
C1817 C1816 1.374 . S
C1818 C1815 1.499 . S
C1818 C1819 1.373 . S
C1818 C1820 1.389 . S
C1819 H1798 0.950 . S
C1819 C1818 1.373 . S
C1819 C1835 1.377 . S
C1820 C1818 1.389 . S
C1820 C1821 1.524 . S
C1820 C1834 1.377 . S
C1821 C1820 1.524 . S
C1821 C1822 1.397 . S
C1821 C1826 1.363 . S
C1822 H1799 0.950 . S
C1822 C1821 1.397 . S
C1822 C1823 1.334 . S
C1823 H1800 0.950 . S
C1823 C1822 1.334 . S
C1823 C1824 1.287 . S
C1824 C1823 1.287 . S
C1824 C1825 1.524 . S
C1824 H1843 0.913 . S
C1825 H1801 0.950 . S
C1825 C1824 1.524 . S
C1825 C1826 1.415 . S
C1826 H1802 0.950 . S
C1826 C1821 1.363 . S
C1826 C1825 1.415 . S
C1827 H1803 0.951 . S
C1827 C1828 1.366 . S
C1827 C1829 1.388 . S
C1828 C1827 1.366 . S
C1828 C1832 1.385 . S
C1829 H1804 0.951 . S
C1829 C1827 1.388 . S
C1829 C1830 1.366 . S
C1830 C1829 1.366 . S
C1830 C1831 1.414 . S
C1830 C1833 1.499 . S
C1831 H1805 0.950 . S
C1831 C1830 1.414 . S
C1831 C1832 1.374 . S
C1832 H1806 0.950 . S
C1832 C1828 1.385 . S
C1832 C1831 1.374 . S
C1833 C1830 1.499 . S
C1833 C1834 1.373 . S
C1833 C1835 1.389 . S
C1834 H1807 0.950 . S
C1834 C1820 1.377 . S
C1834 C1833 1.373 . S
C1835 C1819 1.377 . S
C1835 C1833 1.389 . S
C1835 C1836 1.524 . S
C1836 C1835 1.524 . S
C1836 C1837 1.397 . S
C1836 C1841 1.363 . S
C1837 H1808 0.950 . S
C1837 C1836 1.397 . S
C1837 C1838 1.334 . S
C1838 H1809 0.950 . S
C1838 C1837 1.334 . S
C1838 C1839 1.287 . S
C1839 C1838 1.287 . S
C1839 C1840 1.524 . S
C1839 H1842 0.999 . S
C1840 H1810 0.950 . S
C1840 C1839 1.524 . S
C1840 C1841 1.415 . S
C1841 H1811 0.950 . S
C1841 C1836 1.363 . S
C1841 C1840 1.415 . S
H1842 C1839 0.999 . S
H1843 C1824 0.913 . S
H1844 C1862 0.951 . S
H1845 C1864 0.951 . S
H1846 C1866 0.950 . S
H1847 C1867 0.950 . S
H1848 C1869 0.950 . S
H1849 C1872 0.950 . S
H1850 C1873 0.950 . S
H1851 C1875 0.950 1_565 S
H1852 C1876 0.950 . S
H1853 C1877 0.951 . S
H1854 C1879 0.951 . S
H1855 C1881 0.950 . S
H1856 C1882 0.950 . S
H1857 C1884 0.950 . S
H1858 C1887 0.950 . S
H1859 C1888 0.950 . S
H1860 C1890 0.950 . S
H1861 C1891 0.950 . S
C1862 H1844 0.951 . S
C1862 C1863 1.366 . S
C1862 C1864 1.388 . S
C1863 C1862 1.366 . S
C1863 C1867 1.385 . S
C1864 H1845 0.951 . S
C1864 C1862 1.388 . S
C1864 C1865 1.366 . S
C1865 C1864 1.366 . S
C1865 C1866 1.414 . S
C1865 C1868 1.499 . S
C1866 H1846 0.950 . S
C1866 C1865 1.414 . S
C1866 C1867 1.374 . S
C1867 H1847 0.950 . S
C1867 C1863 1.385 . S
C1867 C1866 1.374 . S
C1868 C1865 1.499 . S
C1868 C1869 1.373 . S
C1868 C1870 1.389 . S
C1869 H1848 0.950 . S
C1869 C1868 1.373 . S
C1869 C1885 1.377 . S
C1870 C1868 1.389 . S
C1870 C1871 1.524 . S
C1870 C1884 1.377 . S
C1871 C1870 1.524 . S
C1871 C1872 1.397 . S
C1871 C1876 1.363 . S
C1872 H1849 0.950 . S
C1872 C1871 1.397 . S
C1872 C1873 1.334 1_545 S
C1873 H1850 0.950 . S
C1873 C1872 1.334 1_565 S
C1873 C1874 1.287 . S
C1874 C1873 1.287 . S
C1874 C1875 1.524 1_565 S
C1874 H1893 0.913 . S
C1875 H1851 0.950 1_545 S
C1875 C1874 1.524 1_545 S
C1875 C1876 1.415 . S
C1876 H1852 0.950 . S
C1876 C1871 1.363 . S
C1876 C1875 1.415 . S
C1877 H1853 0.951 . S
C1877 C1878 1.366 . S
C1877 C1879 1.388 . S
C1878 C1877 1.366 . S
C1878 C1882 1.385 . S
C1879 H1854 0.951 . S
C1879 C1877 1.388 . S
C1879 C1880 1.366 . S
C1880 C1879 1.366 . S
C1880 C1881 1.414 . S
C1880 C1883 1.499 . S
C1881 H1855 0.950 . S
C1881 C1880 1.414 . S
C1881 C1882 1.374 . S
C1882 H1856 0.950 . S
C1882 C1878 1.385 . S
C1882 C1881 1.374 . S
C1883 C1880 1.499 . S
C1883 C1884 1.373 . S
C1883 C1885 1.389 . S
C1884 H1857 0.950 . S
C1884 C1870 1.377 . S
C1884 C1883 1.373 . S
C1885 C1869 1.377 . S
C1885 C1883 1.389 . S
C1885 C1886 1.524 . S
C1886 C1885 1.524 . S
C1886 C1887 1.397 . S
C1886 C1891 1.363 . S
C1887 H1858 0.950 . S
C1887 C1886 1.397 . S
C1887 C1888 1.334 . S
C1888 H1859 0.950 . S
C1888 C1887 1.334 . S
C1888 C1889 1.287 . S
C1889 C1888 1.287 . S
C1889 C1890 1.524 . S
C1889 H1892 0.999 . S
C1890 H1860 0.950 . S
C1890 C1889 1.524 . S
C1890 C1891 1.415 . S
C1891 H1861 0.950 . S
C1891 C1886 1.363 . S
C1891 C1890 1.415 . S
H1892 C1889 0.999 . S
H1893 C1874 0.913 . S
H1894 C1912 0.951 . S
H1895 C1914 0.951 . S
H1896 C1916 0.950 . S
H1897 C1917 0.950 . S
H1898 C1919 0.950 . S
H1899 C1922 0.950 . S
H1900 C1923 0.950 . S
H1901 C1925 0.950 . S
H1902 C1926 0.950 . S
H1903 C1927 0.951 . S
H1904 C1929 0.951 . S
H1905 C1931 0.950 . S
H1906 C1932 0.950 . S
H1907 C1934 0.950 . S
H1908 C1937 0.950 . S
H1909 C1938 0.950 . S
H1910 C1940 0.950 . S
H1911 C1941 0.950 . S
C1912 H1894 0.951 . S
C1912 C1913 1.366 . S
C1912 C1914 1.388 . S
C1913 C1912 1.366 . S
C1913 C1917 1.385 . S
C1914 H1895 0.951 . S
C1914 C1912 1.388 . S
C1914 C1915 1.366 . S
C1915 C1914 1.366 . S
C1915 C1916 1.414 . S
C1915 C1918 1.499 . S
C1916 H1896 0.950 . S
C1916 C1915 1.414 . S
C1916 C1917 1.374 . S
C1917 H1897 0.950 . S
C1917 C1913 1.385 . S
C1917 C1916 1.374 . S
C1918 C1915 1.499 . S
C1918 C1919 1.373 . S
C1918 C1920 1.389 . S
C1919 H1898 0.950 . S
C1919 C1918 1.373 . S
C1919 C1935 1.377 . S
C1920 C1918 1.389 . S
C1920 C1921 1.524 . S
C1920 C1934 1.377 . S
C1921 C1920 1.524 . S
C1921 C1922 1.397 . S
C1921 C1926 1.363 . S
C1922 H1899 0.950 . S
C1922 C1921 1.397 . S
C1922 C1923 1.334 . S
C1923 H1900 0.950 . S
C1923 C1922 1.334 . S
C1923 C1924 1.287 . S
C1924 C1923 1.287 . S
C1924 C1925 1.524 . S
C1924 H1943 0.913 . S
C1925 H1901 0.950 . S
C1925 C1924 1.524 . S
C1925 C1926 1.415 . S
C1926 H1902 0.950 . S
C1926 C1921 1.363 . S
C1926 C1925 1.415 . S
C1927 H1903 0.951 . S
C1927 C1928 1.366 . S
C1927 C1929 1.388 . S
C1928 C1927 1.366 . S
C1928 C1932 1.385 . S
C1929 H1904 0.951 . S
C1929 C1927 1.388 . S
C1929 C1930 1.366 . S
C1930 C1929 1.366 . S
C1930 C1931 1.414 . S
C1930 C1933 1.499 . S
C1931 H1905 0.950 . S
C1931 C1930 1.414 . S
C1931 C1932 1.374 . S
C1932 H1906 0.950 . S
C1932 C1928 1.385 . S
C1932 C1931 1.374 . S
C1933 C1930 1.499 . S
C1933 C1934 1.373 . S
C1933 C1935 1.389 . S
C1934 H1907 0.950 . S
C1934 C1920 1.377 . S
C1934 C1933 1.373 . S
C1935 C1919 1.377 . S
C1935 C1933 1.389 . S
C1935 C1936 1.524 . S
C1936 C1935 1.524 . S
C1936 C1937 1.397 . S
C1936 C1941 1.363 . S
C1937 H1908 0.950 . S
C1937 C1936 1.397 . S
C1937 C1938 1.334 . S
C1938 H1909 0.950 . S
C1938 C1937 1.334 . S
C1938 C1939 1.287 . S
C1939 C1938 1.287 . S
C1939 C1940 1.524 . S
C1939 H1942 0.999 . S
C1940 H1910 0.950 . S
C1940 C1939 1.524 . S
C1940 C1941 1.415 . S
C1941 H1911 0.950 . S
C1941 C1936 1.363 . S
C1941 C1940 1.415 . S
H1942 C1939 0.999 . S
H1943 C1924 0.913 . S
H1944 C1962 0.951 . S
H1945 C1964 0.951 . S
H1946 C1966 0.950 . S
H1947 C1967 0.950 . S
H1948 C1969 0.950 . S
H1949 C1972 0.950 . S
H1950 C1973 0.950 . S
H1951 C1975 0.950 . S
H1952 C1976 0.950 . S
H1953 C1977 0.951 . S
H1954 C1979 0.951 . S
H1955 C1981 0.950 . S
H1956 C1982 0.950 . S
H1957 C1984 0.950 . S
H1958 C1987 0.950 . S
H1959 C1988 0.950 . S
H1960 C1990 0.950 . S
H1961 C1991 0.950 . S
C1962 H1944 0.951 . S
C1962 C1963 1.366 . S
C1962 C1964 1.388 . S
C1963 C1962 1.366 . S
C1963 C1967 1.385 . S
C1964 H1945 0.951 . S
C1964 C1962 1.388 . S
C1964 C1965 1.366 . S
C1965 C1964 1.366 . S
C1965 C1966 1.414 . S
C1965 C1968 1.499 . S
C1966 H1946 0.950 . S
C1966 C1965 1.414 . S
C1966 C1967 1.374 . S
C1967 H1947 0.950 . S
C1967 C1963 1.385 . S
C1967 C1966 1.374 . S
C1968 C1965 1.499 . S
C1968 C1969 1.373 . S
C1968 C1970 1.389 . S
C1969 H1948 0.950 . S
C1969 C1968 1.373 . S
C1969 C1985 1.377 . S
C1970 C1968 1.389 . S
C1970 C1971 1.524 . S
C1970 C1984 1.377 . S
C1971 C1970 1.524 . S
C1971 C1972 1.397 . S
C1971 C1976 1.363 . S
C1972 H1949 0.950 . S
C1972 C1971 1.397 . S
C1972 C1973 1.334 . S
C1973 H1950 0.950 . S
C1973 C1972 1.334 . S
C1973 C1974 1.287 . S
C1974 C1973 1.287 . S
C1974 C1975 1.524 . S
C1974 H1993 0.913 . S
C1975 H1951 0.950 . S
C1975 C1974 1.524 . S
C1975 C1976 1.415 . S
C1976 H1952 0.950 . S
C1976 C1971 1.363 . S
C1976 C1975 1.415 . S
C1977 H1953 0.951 . S
C1977 C1978 1.366 . S
C1977 C1979 1.388 . S
C1978 C1977 1.366 . S
C1978 C1982 1.385 . S
C1979 H1954 0.951 . S
C1979 C1977 1.388 . S
C1979 C1980 1.366 . S
C1980 C1979 1.366 . S
C1980 C1981 1.414 . S
C1980 C1983 1.499 . S
C1981 H1955 0.950 . S
C1981 C1980 1.414 . S
C1981 C1982 1.374 . S
C1982 H1956 0.950 . S
C1982 C1978 1.385 . S
C1982 C1981 1.374 . S
C1983 C1980 1.499 . S
C1983 C1984 1.373 . S
C1983 C1985 1.389 . S
C1984 H1957 0.950 . S
C1984 C1970 1.377 . S
C1984 C1983 1.373 . S
C1985 C1969 1.377 . S
C1985 C1983 1.389 . S
C1985 C1986 1.524 . S
C1986 C1985 1.524 . S
C1986 C1987 1.397 . S
C1986 C1991 1.363 . S
C1987 H1958 0.950 . S
C1987 C1986 1.397 . S
C1987 C1988 1.334 . S
C1988 H1959 0.950 . S
C1988 C1987 1.334 . S
C1988 C1989 1.287 . S
C1989 C1988 1.287 . S
C1989 C1990 1.524 . S
C1989 H1992 0.999 . S
C1990 H1960 0.950 . S
C1990 C1989 1.524 . S
C1990 C1991 1.415 . S
C1991 H1961 0.950 . S
C1991 C1986 1.363 . S
C1991 C1990 1.415 . S
H1992 C1989 0.999 . S
H1993 C1974 0.913 . S
H1994 C2012 0.941 1_565 S
H1995 C2014 0.951 1_565 S
H1996 C2016 0.950 . S
H1997 C2017 0.950 . S
H1998 C2019 0.950 . S
H1999 C2022 0.950 . S
H2000 C2023 0.950 . S
H2001 C2025 0.950 1_565 S
H2002 C2026 0.950 1_565 S
H2003 C2027 0.951 . S
H2004 C2029 0.951 . S
H2005 C2031 0.950 . S
H2006 C2032 0.950 . S
H2007 C2034 0.950 . S
H2008 C2037 0.950 . S
H2009 C2038 0.950 . S
H2010 C2040 0.950 . S
H2011 C2041 0.950 . S
C2012 H1994 0.941 1_545 S
C2012 C2013 1.366 . S
C2012 C2014 1.388 . S
C2013 C2012 1.366 . S
C2013 C2017 1.385 . S
C2014 H1995 0.951 1_545 S
C2014 C2012 1.388 . S
C2014 C2015 1.366 . S
C2015 C2014 1.366 . S
C2015 C2016 1.414 . S
C2015 C2018 1.499 . S
C2016 H1996 0.950 . S
C2016 C2015 1.414 . S
C2016 C2017 1.374 . S
C2017 H1997 0.950 . S
C2017 C2013 1.385 . S
C2017 C2016 1.374 . S
C2018 C2015 1.499 . S
C2018 C2019 1.373 . S
C2018 C2020 1.389 . S
C2019 H1998 0.950 . S
C2019 C2018 1.373 . S
C2019 C2035 1.377 . S
C2020 C2018 1.389 . S
C2020 C2021 1.524 . S
C2020 C2034 1.377 . S
C2021 C2020 1.524 . S
C2021 C2022 1.397 . S
C2021 C2026 1.363 . S
C2022 H1999 0.950 . S
C2022 C2021 1.397 . S
C2022 C2023 1.334 . S
C2023 H2000 0.950 . S
C2023 C2022 1.334 . S
C2023 C2024 1.287 . S
C2024 C2023 1.287 . S
C2024 C2025 1.524 . S
C2024 H2043 0.913 . S
C2025 H2001 0.950 1_545 S
C2025 C2024 1.524 . S
C2025 C2026 1.415 . S
C2026 H2002 0.950 1_545 S
C2026 C2021 1.363 . S
C2026 C2025 1.415 . S
C2027 H2003 0.951 . S
C2027 C2028 1.366 . S
C2027 C2029 1.388 . S
C2028 C2027 1.366 . S
C2028 C2032 1.385 1_545 S
C2029 H2004 0.951 . S
C2029 C2027 1.388 . S
C2029 C2030 1.366 . S
C2030 C2029 1.366 . S
C2030 C2031 1.414 1_545 S
C2030 C2033 1.499 . S
C2031 H2005 0.950 . S
C2031 C2030 1.414 1_565 S
C2031 C2032 1.374 . S
C2032 H2006 0.950 . S
C2032 C2028 1.385 1_565 S
C2032 C2031 1.374 . S
C2033 C2030 1.499 . S
C2033 C2034 1.373 . S
C2033 C2035 1.389 . S
C2034 H2007 0.950 . S
C2034 C2020 1.377 . S
C2034 C2033 1.373 . S
C2035 C2019 1.377 . S
C2035 C2033 1.389 . S
C2035 C2036 1.524 . S
C2036 C2035 1.524 . S
C2036 C2037 1.397 1_545 S
C2036 C2041 1.363 . S
C2037 H2008 0.950 . S
C2037 C2036 1.397 1_565 S
C2037 C2038 1.334 . S
C2038 H2009 0.950 . S
C2038 C2037 1.334 . S
C2038 C2039 1.287 1_565 S
C2039 C2038 1.287 1_545 S
C2039 C2040 1.524 . S
C2039 H2042 0.999 . S
C2040 H2010 0.950 . S
C2040 C2039 1.524 . S
C2040 C2041 1.415 . S
C2041 H2011 0.950 . S
C2041 C2036 1.363 . S
C2041 C2040 1.415 . S
H2042 C2039 0.999 . S
H2043 C2024 0.913 . S
H2044 C2062 0.951 . S
H2045 C2064 0.951 . S
H2046 C2066 0.950 . S
H2047 C2067 0.950 . S
H2048 C2069 0.950 . S
H2049 C2072 0.950 . S
H2050 C2073 0.950 . S
H2051 C2075 0.950 . S
H2052 C2076 0.950 . S
H2053 C2077 0.951 . S
H2054 C2079 0.951 . S
H2055 C2081 0.950 . S
H2056 C2082 0.950 . S
H2057 C2084 0.950 . S
H2058 C2087 0.950 . S
H2059 C2088 0.950 . S
H2060 C2090 0.950 . S
H2061 C2091 0.950 . S
C2062 H2044 0.951 . S
C2062 C2063 1.366 . S
C2062 C2064 1.388 . S
C2063 C2062 1.366 . S
C2063 C2067 1.385 . S
C2064 H2045 0.951 . S
C2064 C2062 1.388 . S
C2064 C2065 1.366 . S
C2065 C2064 1.366 . S
C2065 C2066 1.414 . S
C2065 C2068 1.499 . S
C2066 H2046 0.950 . S
C2066 C2065 1.414 . S
C2066 C2067 1.374 . S
C2067 H2047 0.950 . S
C2067 C2063 1.385 . S
C2067 C2066 1.374 . S
C2068 C2065 1.499 . S
C2068 C2069 1.373 . S
C2068 C2070 1.389 . S
C2069 H2048 0.950 . S
C2069 C2068 1.373 . S
C2069 C2085 1.377 . S
C2070 C2068 1.389 . S
C2070 C2071 1.524 . S
C2070 C2084 1.377 . S
C2071 C2070 1.524 . S
C2071 C2072 1.397 . S
C2071 C2076 1.363 . S
C2072 H2049 0.950 . S
C2072 C2071 1.397 . S
C2072 C2073 1.334 . S
C2073 H2050 0.950 . S
C2073 C2072 1.334 . S
C2073 C2074 1.287 . S
C2074 C2073 1.287 . S
C2074 C2075 1.524 . S
C2074 H2093 0.913 . S
C2075 H2051 0.950 . S
C2075 C2074 1.524 . S
C2075 C2076 1.415 . S
C2076 H2052 0.950 . S
C2076 C2071 1.363 . S
C2076 C2075 1.415 . S
C2077 H2053 0.951 . S
C2077 C2078 1.366 . S
C2077 C2079 1.388 . S
C2078 C2077 1.366 . S
C2078 C2082 1.385 . S
C2079 H2054 0.951 . S
C2079 C2077 1.388 . S
C2079 C2080 1.366 . S
C2080 C2079 1.366 . S
C2080 C2081 1.414 . S
C2080 C2083 1.499 . S
C2081 H2055 0.950 . S
C2081 C2080 1.414 . S
C2081 C2082 1.374 . S
C2082 H2056 0.950 . S
C2082 C2078 1.385 . S
C2082 C2081 1.374 . S
C2083 C2080 1.499 . S
C2083 C2084 1.373 . S
C2083 C2085 1.389 . S
C2084 H2057 0.950 . S
C2084 C2070 1.377 . S
C2084 C2083 1.373 . S
C2085 C2069 1.377 . S
C2085 C2083 1.389 . S
C2085 C2086 1.524 . S
C2086 C2085 1.524 . S
C2086 C2087 1.397 . S
C2086 C2091 1.363 . S
C2087 H2058 0.950 . S
C2087 C2086 1.397 . S
C2087 C2088 1.334 . S
C2088 H2059 0.950 . S
C2088 C2087 1.334 . S
C2088 C2089 1.287 . S
C2089 C2088 1.287 . S
C2089 C2090 1.524 . S
C2089 H2092 0.999 . S
C2090 H2060 0.950 . S
C2090 C2089 1.524 . S
C2090 C2091 1.415 . S
C2091 H2061 0.950 . S
C2091 C2086 1.363 . S
C2091 C2090 1.415 . S
H2092 C2089 0.999 . S
H2093 C2074 0.913 . S
H2094 C2112 0.951 . S
H2095 C2114 0.951 . S
H2096 C2116 0.950 . S
H2097 C2117 0.950 . S
H2098 C2119 0.950 . S
H2099 C2122 0.950 . S
H2100 C2123 0.950 . S
H2101 C2125 0.950 . S
H2102 C2126 0.950 . S
H2103 C2127 0.951 . S
H2104 C2129 0.951 . S
H2105 C2131 0.950 . S
H2106 C2132 0.950 . S
H2107 C2134 0.950 . S
H2108 C2137 0.950 . S
H2109 C2138 0.950 . S
H2110 C2140 0.950 . S
H2111 C2141 0.950 . S
C2112 H2094 0.951 . S
C2112 C2113 1.366 . S
C2112 C2114 1.388 . S
C2113 C2112 1.366 . S
C2113 C2117 1.385 . S
C2114 H2095 0.951 . S
C2114 C2112 1.388 . S
C2114 C2115 1.366 . S
C2115 C2114 1.366 . S
C2115 C2116 1.414 . S
C2115 C2118 1.499 . S
C2116 H2096 0.950 . S
C2116 C2115 1.414 . S
C2116 C2117 1.374 . S
C2117 H2097 0.950 . S
C2117 C2113 1.385 . S
C2117 C2116 1.374 . S
C2118 C2115 1.499 . S
C2118 C2119 1.373 . S
C2118 C2120 1.389 . S
C2119 H2098 0.950 . S
C2119 C2118 1.373 . S
C2119 C2135 1.377 . S
C2120 C2118 1.389 . S
C2120 C2121 1.524 . S
C2120 C2134 1.377 . S
C2121 C2120 1.524 . S
C2121 C2122 1.397 . S
C2121 C2126 1.363 . S
C2122 H2099 0.950 . S
C2122 C2121 1.397 . S
C2122 C2123 1.334 . S
C2123 H2100 0.950 . S
C2123 C2122 1.334 . S
C2123 C2124 1.287 . S
C2124 C2123 1.287 . S
C2124 C2125 1.524 . S
C2124 H2143 0.913 . S
C2125 H2101 0.950 . S
C2125 C2124 1.524 . S
C2125 C2126 1.415 . S
C2126 H2102 0.950 . S
C2126 C2121 1.363 . S
C2126 C2125 1.415 . S
C2127 H2103 0.951 . S
C2127 C2128 1.366 . S
C2127 C2129 1.388 . S
C2128 C2127 1.366 . S
C2128 C2132 1.385 . S
C2129 H2104 0.951 . S
C2129 C2127 1.388 . S
C2129 C2130 1.366 . S
C2130 C2129 1.366 . S
C2130 C2131 1.414 . S
C2130 C2133 1.499 . S
C2131 H2105 0.950 . S
C2131 C2130 1.414 . S
C2131 C2132 1.374 . S
C2132 H2106 0.950 . S
C2132 C2128 1.385 . S
C2132 C2131 1.374 . S
C2133 C2130 1.499 . S
C2133 C2134 1.373 . S
C2133 C2135 1.389 . S
C2134 H2107 0.950 . S
C2134 C2120 1.377 . S
C2134 C2133 1.373 . S
C2135 C2119 1.377 . S
C2135 C2133 1.389 . S
C2135 C2136 1.524 . S
C2136 C2135 1.524 . S
C2136 C2137 1.397 . S
C2136 C2141 1.363 . S
C2137 H2108 0.950 . S
C2137 C2136 1.397 . S
C2137 C2138 1.334 . S
C2138 H2109 0.950 . S
C2138 C2137 1.334 . S
C2138 C2139 1.287 . S
C2139 C2138 1.287 . S
C2139 C2140 1.524 . S
C2139 H2142 0.999 . S
C2140 H2110 0.950 . S
C2140 C2139 1.524 . S
C2140 C2141 1.415 . S
C2141 H2111 0.950 . S
C2141 C2136 1.363 . S
C2141 C2140 1.415 . S
H2142 C2139 0.999 . S
H2143 C2124 0.913 . S
H2144 C2162 0.951 . S
H2145 C2164 0.951 . S
H2146 C2166 0.950 . S
H2147 C2167 0.950 . S
H2148 C2169 0.950 . S
H2149 C2172 0.950 . S
H2150 C2173 0.950 . S
H2151 C2175 0.950 . S
H2152 C2176 0.950 . S
H2153 C2177 0.951 . S
H2154 C2179 0.951 . S
H2155 C2181 0.950 . S
H2156 C2182 0.950 . S
H2157 C2184 0.950 . S
H2158 C2187 0.950 . S
H2159 C2188 0.950 . S
H2160 C2190 0.950 . S
H2161 C2191 0.950 . S
C2162 H2144 0.951 . S
C2162 C2163 1.366 . S
C2162 C2164 1.388 . S
C2163 C2162 1.366 . S
C2163 C2167 1.385 . S
C2164 H2145 0.951 . S
C2164 C2162 1.388 . S
C2164 C2165 1.366 . S
C2165 C2164 1.366 . S
C2165 C2166 1.414 . S
C2165 C2168 1.499 . S
C2166 H2146 0.950 . S
C2166 C2165 1.414 . S
C2166 C2167 1.374 . S
C2167 H2147 0.950 . S
C2167 C2163 1.385 . S
C2167 C2166 1.374 . S
C2168 C2165 1.499 . S
C2168 C2169 1.373 . S
C2168 C2170 1.389 . S
C2169 H2148 0.950 . S
C2169 C2168 1.373 . S
C2169 C2185 1.377 . S
C2170 C2168 1.389 . S
C2170 C2171 1.524 . S
C2170 C2184 1.377 . S
C2171 C2170 1.524 . S
C2171 C2172 1.397 . S
C2171 C2176 1.363 . S
C2172 H2149 0.950 . S
C2172 C2171 1.397 . S
C2172 C2173 1.334 . S
C2173 H2150 0.950 . S
C2173 C2172 1.334 . S
C2173 C2174 1.287 . S
C2174 C2173 1.287 . S
C2174 C2175 1.524 . S
C2174 H2193 0.913 . S
C2175 H2151 0.950 . S
C2175 C2174 1.524 . S
C2175 C2176 1.415 . S
C2176 H2152 0.950 . S
C2176 C2171 1.363 . S
C2176 C2175 1.415 . S
C2177 H2153 0.951 . S
C2177 C2178 1.366 . S
C2177 C2179 1.388 . S
C2178 C2177 1.366 . S
C2178 C2182 1.385 . S
C2179 H2154 0.951 . S
C2179 C2177 1.388 . S
C2179 C2180 1.366 . S
C2180 C2179 1.366 . S
C2180 C2181 1.414 . S
C2180 C2183 1.499 . S
C2181 H2155 0.950 . S
C2181 C2180 1.414 . S
C2181 C2182 1.374 . S
C2182 H2156 0.950 . S
C2182 C2178 1.385 . S
C2182 C2181 1.374 . S
C2183 C2180 1.499 . S
C2183 C2184 1.373 . S
C2183 C2185 1.389 . S
C2184 H2157 0.950 . S
C2184 C2170 1.377 . S
C2184 C2183 1.373 . S
C2185 C2169 1.377 . S
C2185 C2183 1.389 . S
C2185 C2186 1.524 . S
C2186 C2185 1.524 . S
C2186 C2187 1.397 . S
C2186 C2191 1.363 . S
C2187 H2158 0.950 . S
C2187 C2186 1.397 . S
C2187 C2188 1.334 . S
C2188 H2159 0.950 . S
C2188 C2187 1.334 . S
C2188 C2189 1.287 . S
C2189 C2188 1.287 . S
C2189 C2190 1.524 . S
C2189 H2192 0.999 . S
C2190 H2160 0.950 . S
C2190 C2189 1.524 . S
C2190 C2191 1.415 . S
C2191 H2161 0.950 . S
C2191 C2186 1.363 . S
C2191 C2190 1.415 . S
H2192 C2189 0.999 . S
H2193 C2174 0.913 . S
H2194 C2212 0.951 1_455 S
H2195 C2214 0.951 . S
H2196 C2216 0.950 . S
H2197 C2217 0.950 . S
H2198 C2219 0.950 . S
H2199 C2222 0.950 . S
H2200 C2223 0.950 . S
H2201 C2225 0.950 1_455 S
H2202 C2226 0.974 . S
H2203 C2227 0.951 . S
H2204 C2229 0.951 . S
H2205 C2231 0.950 . S
H2206 C2232 0.950 . S
H2207 C2234 0.950 . S
H2208 C2237 0.950 . S
H2209 C2238 0.950 . S
H2210 C2240 0.950 . S
H2211 C2241 0.950 . S
C2212 H2194 0.951 1_655 S
C2212 C2213 1.366 . S
C2212 C2214 1.388 . S
C2213 C2212 1.366 . S
C2213 C2217 1.385 . S
C2214 H2195 0.951 . S
C2214 C2212 1.388 . S
C2214 C2215 1.366 . S
C2215 C2214 1.366 . S
C2215 C2216 1.414 . S
C2215 C2218 1.499 . S
C2216 H2196 0.950 . S
C2216 C2215 1.414 . S
C2216 C2217 1.374 . S
C2217 H2197 0.950 . S
C2217 C2213 1.385 . S
C2217 C2216 1.374 . S
C2218 C2215 1.499 . S
C2218 C2219 1.373 . S
C2218 C2220 1.389 . S
C2219 H2198 0.950 . S
C2219 C2218 1.373 . S
C2219 C2235 1.377 . S
C2220 C2218 1.389 . S
C2220 C2221 1.524 . S
C2220 C2234 1.377 . S
C2221 C2220 1.524 . S
C2221 C2222 1.397 1_545 S
C2221 C2226 1.367 . S
C2222 H2199 0.950 . S
C2222 C2221 1.397 1_565 S
C2222 C2223 1.334 . S
C2223 H2200 0.950 . S
C2223 C2222 1.334 . S
C2223 C2224 1.287 . S
C2224 C2223 1.287 . S
C2224 C2225 1.524 . S
C2224 H2243 0.877 1_655 S
C2225 H2201 0.950 1_655 S
C2225 C2224 1.524 . S
C2225 C2226 1.388 1_565 S
C2226 H2202 0.974 . S
C2226 C2221 1.367 . S
C2226 C2225 1.388 1_545 S
C2227 H2203 0.951 . S
C2227 C2228 1.366 . S
C2227 C2229 1.388 . S
C2228 C2227 1.366 . S
C2228 C2232 1.385 . S
C2229 H2204 0.951 . S
C2229 C2227 1.388 . S
C2229 C2230 1.366 . S
C2230 C2229 1.366 . S
C2230 C2231 1.414 . S
C2230 C2233 1.499 . S
C2231 H2205 0.950 . S
C2231 C2230 1.414 . S
C2231 C2232 1.374 . S
C2232 H2206 0.950 . S
C2232 C2228 1.385 . S
C2232 C2231 1.374 . S
C2233 C2230 1.499 . S
C2233 C2234 1.373 . S
C2233 C2235 1.389 . S
C2234 H2207 0.950 . S
C2234 C2220 1.377 . S
C2234 C2233 1.373 . S
C2235 C2219 1.377 . S
C2235 C2233 1.389 . S
C2235 C2236 1.524 . S
C2236 C2235 1.524 . S
C2236 C2237 1.397 . S
C2236 C2241 1.363 . S
C2237 H2208 0.950 . S
C2237 C2236 1.397 . S
C2237 C2238 1.334 . S
C2238 H2209 0.950 . S
C2238 C2237 1.334 . S
C2238 C2239 1.287 . S
C2239 C2238 1.287 . S
C2239 C2240 1.524 . S
C2239 H2242 0.999 . S
C2240 H2210 0.950 . S
C2240 C2239 1.524 . S
C2240 C2241 1.415 . S
C2241 H2211 0.950 . S
C2241 C2236 1.363 . S
C2241 C2240 1.415 . S
H2242 C2239 0.999 . S
H2243 C2224 0.877 1_455 S
H2244 C2262 0.951 . S
H2245 C2264 0.951 . S
H2246 C2266 0.950 . S
H2247 C2267 0.950 . S
H2248 C2269 0.950 . S
H2249 C2272 0.950 . S
H2250 C2273 0.950 . S
H2251 C2275 0.950 . S
H2252 C2276 0.950 . S
H2253 C2277 0.951 . S
H2254 C2279 0.951 . S
H2255 C2281 0.950 . S
H2256 C2282 0.950 . S
H2257 C2284 0.950 . S
H2258 C2287 0.950 . S
H2259 C2288 0.950 . S
H2260 C2290 0.950 . S
H2261 C2291 0.950 . S
C2262 H2244 0.951 . S
C2262 C2263 1.366 . S
C2262 C2264 1.388 . S
C2263 C2262 1.366 . S
C2263 C2267 1.385 . S
C2264 H2245 0.951 . S
C2264 C2262 1.388 . S
C2264 C2265 1.366 . S
C2265 C2264 1.366 . S
C2265 C2266 1.414 . S
C2265 C2268 1.499 . S
C2266 H2246 0.950 . S
C2266 C2265 1.414 . S
C2266 C2267 1.374 . S
C2267 H2247 0.950 . S
C2267 C2263 1.385 . S
C2267 C2266 1.374 . S
C2268 C2265 1.499 . S
C2268 C2269 1.373 . S
C2268 C2270 1.389 . S
C2269 H2248 0.950 . S
C2269 C2268 1.373 . S
C2269 C2285 1.377 . S
C2270 C2268 1.389 . S
C2270 C2271 1.524 . S
C2270 C2284 1.377 . S
C2271 C2270 1.524 . S
C2271 C2272 1.397 . S
C2271 C2276 1.363 . S
C2272 H2249 0.950 . S
C2272 C2271 1.397 . S
C2272 C2273 1.334 . S
C2273 H2250 0.950 . S
C2273 C2272 1.334 . S
C2273 C2274 1.287 . S
C2274 C2273 1.287 . S
C2274 C2275 1.524 . S
C2274 H2293 0.913 . S
C2275 H2251 0.950 . S
C2275 C2274 1.524 . S
C2275 C2276 1.415 . S
C2276 H2252 0.950 . S
C2276 C2271 1.363 . S
C2276 C2275 1.415 . S
C2277 H2253 0.951 . S
C2277 C2278 1.366 . S
C2277 C2279 1.388 . S
C2278 C2277 1.366 . S
C2278 C2282 1.385 . S
C2279 H2254 0.951 . S
C2279 C2277 1.388 . S
C2279 C2280 1.366 . S
C2280 C2279 1.366 . S
C2280 C2281 1.414 . S
C2280 C2283 1.499 . S
C2281 H2255 0.950 . S
C2281 C2280 1.414 . S
C2281 C2282 1.374 . S
C2282 H2256 0.950 . S
C2282 C2278 1.385 . S
C2282 C2281 1.374 . S
C2283 C2280 1.499 . S
C2283 C2284 1.373 . S
C2283 C2285 1.389 . S
C2284 H2257 0.950 . S
C2284 C2270 1.377 . S
C2284 C2283 1.373 . S
C2285 C2269 1.377 . S
C2285 C2283 1.389 . S
C2285 C2286 1.524 . S
C2286 C2285 1.524 . S
C2286 C2287 1.397 . S
C2286 C2291 1.363 . S
C2287 H2258 0.950 . S
C2287 C2286 1.397 . S
C2287 C2288 1.334 . S
C2288 H2259 0.950 . S
C2288 C2287 1.334 . S
C2288 C2289 1.287 . S
C2289 C2288 1.287 . S
C2289 C2290 1.524 . S
C2289 H2292 0.999 . S
C2290 H2260 0.950 . S
C2290 C2289 1.524 . S
C2290 C2291 1.415 . S
C2291 H2261 0.950 . S
C2291 C2286 1.363 . S
C2291 C2290 1.415 . S
H2292 C2289 0.999 . S
H2293 C2274 0.913 . S
H2294 C2312 0.951 . S
H2295 C2314 0.951 . S
H2296 C2316 0.950 . S
H2297 C2317 0.950 . S
H2298 C2319 0.950 . S
H2299 C2322 0.950 . S
H2300 C2323 0.950 . S
H2301 C2325 0.950 . S
H2302 C2326 0.950 . S
H2303 C2327 0.951 . S
H2304 C2329 0.951 . S
H2305 C2331 0.950 . S
H2306 C2332 0.950 . S
H2307 C2334 0.950 . S
H2308 C2337 0.950 . S
H2309 C2338 0.950 . S
H2310 C2340 0.950 . S
H2311 C2341 0.950 . S
C2312 H2294 0.951 . S
C2312 C2313 1.366 . S
C2312 C2314 1.388 . S
C2313 C2312 1.366 . S
C2313 C2317 1.385 . S
C2314 H2295 0.951 . S
C2314 C2312 1.388 . S
C2314 C2315 1.366 . S
C2315 C2314 1.366 . S
C2315 C2316 1.414 . S
C2315 C2318 1.499 . S
C2316 H2296 0.950 . S
C2316 C2315 1.414 . S
C2316 C2317 1.374 . S
C2317 H2297 0.950 . S
C2317 C2313 1.385 . S
C2317 C2316 1.374 . S
C2318 C2315 1.499 . S
C2318 C2319 1.373 . S
C2318 C2320 1.389 . S
C2319 H2298 0.950 . S
C2319 C2318 1.373 . S
C2319 C2335 1.377 . S
C2320 C2318 1.389 . S
C2320 C2321 1.524 . S
C2320 C2334 1.377 . S
C2321 C2320 1.524 . S
C2321 C2322 1.397 . S
C2321 C2326 1.363 . S
C2322 H2299 0.950 . S
C2322 C2321 1.397 . S
C2322 C2323 1.334 . S
C2323 H2300 0.950 . S
C2323 C2322 1.334 . S
C2323 C2324 1.287 . S
C2324 C2323 1.287 . S
C2324 C2325 1.524 . S
C2324 H2343 0.913 . S
C2325 H2301 0.950 . S
C2325 C2324 1.524 . S
C2325 C2326 1.415 . S
C2326 H2302 0.950 . S
C2326 C2321 1.363 . S
C2326 C2325 1.415 . S
C2327 H2303 0.951 . S
C2327 C2328 1.366 . S
C2327 C2329 1.388 . S
C2328 C2327 1.366 . S
C2328 C2332 1.385 . S
C2329 H2304 0.951 . S
C2329 C2327 1.388 . S
C2329 C2330 1.366 . S
C2330 C2329 1.366 . S
C2330 C2331 1.414 . S
C2330 C2333 1.499 . S
C2331 H2305 0.950 . S
C2331 C2330 1.414 . S
C2331 C2332 1.374 . S
C2332 H2306 0.950 . S
C2332 C2328 1.385 . S
C2332 C2331 1.374 . S
C2333 C2330 1.499 . S
C2333 C2334 1.373 . S
C2333 C2335 1.389 . S
C2334 H2307 0.950 . S
C2334 C2320 1.377 . S
C2334 C2333 1.373 . S
C2335 C2319 1.377 . S
C2335 C2333 1.389 . S
C2335 C2336 1.524 . S
C2336 C2335 1.524 . S
C2336 C2337 1.397 . S
C2336 C2341 1.363 . S
C2337 H2308 0.950 . S
C2337 C2336 1.397 . S
C2337 C2338 1.334 . S
C2338 H2309 0.950 . S
C2338 C2337 1.334 . S
C2338 C2339 1.287 . S
C2339 C2338 1.287 . S
C2339 C2340 1.524 . S
C2339 H2342 0.999 . S
C2340 H2310 0.950 . S
C2340 C2339 1.524 . S
C2340 C2341 1.415 . S
C2341 H2311 0.950 . S
C2341 C2336 1.363 . S
C2341 C2340 1.415 . S
H2342 C2339 0.999 . S
H2343 C2324 0.913 . S
H2344 C2362 0.951 . S
H2345 C2364 0.951 . S
H2346 C2366 0.950 . S
H2347 C2367 0.950 . S
H2348 C2369 0.950 . S
H2349 C2372 0.950 . S
H2350 C2373 0.950 . S
H2351 C2375 0.950 . S
H2352 C2376 0.950 . S
H2353 C2377 0.951 . S
H2354 C2379 0.951 . S
H2355 C2381 0.950 . S
H2356 C2382 0.950 . S
H2357 C2384 0.950 . S
H2358 C2387 0.950 . S
H2359 C2388 0.950 . S
H2360 C2390 0.950 . S
H2361 C2391 0.950 . S
C2362 H2344 0.951 . S
C2362 C2363 1.366 . S
C2362 C2364 1.388 . S
C2363 C2362 1.366 . S
C2363 C2367 1.385 . S
C2364 H2345 0.951 . S
C2364 C2362 1.388 . S
C2364 C2365 1.366 . S
C2365 C2364 1.366 . S
C2365 C2366 1.414 . S
C2365 C2368 1.499 . S
C2366 H2346 0.950 . S
C2366 C2365 1.414 . S
C2366 C2367 1.374 . S
C2367 H2347 0.950 . S
C2367 C2363 1.385 . S
C2367 C2366 1.374 . S
C2368 C2365 1.499 . S
C2368 C2369 1.373 . S
C2368 C2370 1.389 . S
C2369 H2348 0.950 . S
C2369 C2368 1.373 . S
C2369 C2385 1.377 . S
C2370 C2368 1.389 . S
C2370 C2371 1.524 . S
C2370 C2384 1.377 . S
C2371 C2370 1.524 . S
C2371 C2372 1.397 . S
C2371 C2376 1.363 . S
C2372 H2349 0.950 . S
C2372 C2371 1.397 . S
C2372 C2373 1.334 . S
C2373 H2350 0.950 . S
C2373 C2372 1.334 . S
C2373 C2374 1.287 . S
C2374 C2373 1.287 . S
C2374 C2375 1.524 . S
C2374 H2393 0.913 . S
C2375 H2351 0.950 . S
C2375 C2374 1.524 . S
C2375 C2376 1.415 . S
C2376 H2352 0.950 . S
C2376 C2371 1.363 . S
C2376 C2375 1.415 . S
C2377 H2353 0.951 . S
C2377 C2378 1.366 . S
C2377 C2379 1.388 . S
C2378 C2377 1.366 . S
C2378 C2382 1.385 . S
C2379 H2354 0.951 . S
C2379 C2377 1.388 . S
C2379 C2380 1.366 . S
C2380 C2379 1.366 . S
C2380 C2381 1.414 . S
C2380 C2383 1.499 . S
C2381 H2355 0.950 . S
C2381 C2380 1.414 . S
C2381 C2382 1.374 . S
C2382 H2356 0.950 . S
C2382 C2378 1.385 . S
C2382 C2381 1.374 . S
C2383 C2380 1.499 . S
C2383 C2384 1.373 . S
C2383 C2385 1.389 . S
C2384 H2357 0.950 . S
C2384 C2370 1.377 . S
C2384 C2383 1.373 . S
C2385 C2369 1.377 . S
C2385 C2383 1.389 . S
C2385 C2386 1.524 . S
C2386 C2385 1.524 . S
C2386 C2387 1.397 . S
C2386 C2391 1.363 . S
C2387 H2358 0.950 . S
C2387 C2386 1.397 . S
C2387 C2388 1.334 . S
C2388 H2359 0.950 . S
C2388 C2387 1.334 . S
C2388 C2389 1.287 . S
C2389 C2388 1.287 . S
C2389 C2390 1.524 . S
C2389 H2392 0.999 . S
C2390 H2360 0.950 . S
C2390 C2389 1.524 . S
C2390 C2391 1.415 . S
C2391 H2361 0.950 . S
C2391 C2386 1.363 . S
C2391 C2390 1.415 . S
H2392 C2389 0.999 . S
H2393 C2374 0.913 . S
H2394 C2412 0.951 . S
H2395 C2414 0.951 . S
H2396 C2416 0.950 . S
H2397 C2417 0.950 . S
H2398 C2419 0.950 . S
H2399 C2422 0.950 . S
H2400 C2423 0.954 1_655 S
H2401 C2425 0.950 . S
H2402 C2426 0.950 . S
H2403 C2427 0.951 . S
H2404 C2429 0.951 . S
H2405 C2431 0.950 . S
H2406 C2432 0.950 . S
H2407 C2434 0.950 . S
H2408 C2437 0.950 . S
H2409 C2438 0.989 . S
H2410 C2440 0.950 . S
H2411 C2441 0.950 . S
C2412 H2394 0.951 . S
C2412 C2413 1.366 1_455 S
C2412 C2414 1.388 . S
C2413 C2412 1.366 1_655 S
C2413 C2417 1.385 . S
C2414 H2395 0.951 . S
C2414 C2412 1.388 . S
C2414 C2415 1.366 1_455 S
C2415 C2414 1.366 1_655 S
C2415 C2416 1.414 . S
C2415 C2418 1.499 . S
C2416 H2396 0.950 . S
C2416 C2415 1.414 . S
C2416 C2417 1.374 . S
C2417 H2397 0.950 . S
C2417 C2413 1.385 . S
C2417 C2416 1.374 . S
C2418 C2415 1.499 . S
C2418 C2419 1.373 . S
C2418 C2420 1.389 1_655 S
C2419 H2398 0.950 . S
C2419 C2418 1.373 . S
C2419 C2435 1.377 . S
C2420 C2418 1.389 1_455 S
C2420 C2421 1.524 . S
C2420 C2434 1.377 . S
C2421 C2420 1.524 . S
C2421 C2422 1.397 1_455 S
C2421 C2426 1.363 . S
C2422 H2399 0.950 . S
C2422 C2421 1.397 1_655 S
C2422 C2423 1.335 1_655 S
C2423 H2400 0.954 1_455 S
C2423 C2422 1.335 1_455 S
C2423 C2424 1.282 . S
C2424 C2423 1.282 . S
C2424 C2425 1.524 . S
C2424 H2443 0.913 . S
C2425 H2401 0.950 . S
C2425 C2424 1.524 . S
C2425 C2426 1.415 . S
C2426 H2402 0.950 . S
C2426 C2421 1.363 . S
C2426 C2425 1.415 . S
C2427 H2403 0.951 . S
C2427 C2428 1.366 1_655 S
C2427 C2429 1.388 . S
C2428 C2427 1.366 1_455 S
C2428 C2432 1.385 . S
C2429 H2404 0.951 . S
C2429 C2427 1.388 . S
C2429 C2430 1.366 1_655 S
C2430 C2429 1.366 1_455 S
C2430 C2431 1.414 . S
C2430 C2433 1.499 . S
C2431 H2405 0.950 . S
C2431 C2430 1.414 . S
C2431 C2432 1.374 . S
C2432 H2406 0.950 . S
C2432 C2428 1.385 . S
C2432 C2431 1.374 . S
C2433 C2430 1.499 . S
C2433 C2434 1.373 . S
C2433 C2435 1.389 1_455 S
C2434 H2407 0.950 . S
C2434 C2420 1.377 . S
C2434 C2433 1.373 . S
C2435 C2419 1.377 . S
C2435 C2433 1.389 1_655 S
C2435 C2436 1.524 . S
C2436 C2435 1.524 . S
C2436 C2437 1.397 1_655 S
C2436 C2441 1.363 . S
C2437 H2408 0.950 . S
C2437 C2436 1.397 1_455 S
C2437 C2438 1.342 . S
C2438 H2409 0.989 . S
C2438 C2437 1.342 . S
C2438 C2439 1.241 1_455 S
C2439 C2438 1.241 1_655 S
C2439 C2440 1.524 . S
C2439 H2442 0.999 . S
C2440 H2410 0.950 . S
C2440 C2439 1.524 . S
C2440 C2441 1.415 . S
C2441 H2411 0.950 . S
C2441 C2436 1.363 . S
C2441 C2440 1.415 . S
H2442 C2439 0.999 . S
H2443 C2424 0.913 . S
H2444 C2462 0.951 . S
H2445 C2464 0.951 . S
H2446 C2466 0.950 . S
H2447 C2467 0.950 . S
H2448 C2469 0.950 . S
H2449 C2472 0.950 . S
H2450 C2473 0.950 . S
H2451 C2475 0.950 . S
H2452 C2476 0.950 . S
H2453 C2477 0.951 . S
H2454 C2479 0.951 . S
H2455 C2481 0.950 . S
H2456 C2482 0.950 . S
H2457 C2484 0.950 . S
H2458 C2487 0.950 . S
H2459 C2488 0.950 . S
H2460 C2490 0.950 . S
H2461 C2491 0.950 . S
C2462 H2444 0.951 . S
C2462 C2463 1.366 . S
C2462 C2464 1.388 . S
C2463 C2462 1.366 . S
C2463 C2467 1.385 . S
C2464 H2445 0.951 . S
C2464 C2462 1.388 . S
C2464 C2465 1.366 . S
C2465 C2464 1.366 . S
C2465 C2466 1.414 . S
C2465 C2468 1.499 . S
C2466 H2446 0.950 . S
C2466 C2465 1.414 . S
C2466 C2467 1.374 . S
C2467 H2447 0.950 . S
C2467 C2463 1.385 . S
C2467 C2466 1.374 . S
C2468 C2465 1.499 . S
C2468 C2469 1.373 . S
C2468 C2470 1.389 . S
C2469 H2448 0.950 . S
C2469 C2468 1.373 . S
C2469 C2485 1.377 . S
C2470 C2468 1.389 . S
C2470 C2471 1.524 . S
C2470 C2484 1.377 . S
C2471 C2470 1.524 . S
C2471 C2472 1.397 . S
C2471 C2476 1.363 . S
C2472 H2449 0.950 . S
C2472 C2471 1.397 . S
C2472 C2473 1.334 . S
C2473 H2450 0.950 . S
C2473 C2472 1.334 . S
C2473 C2474 1.287 . S
C2474 C2473 1.287 . S
C2474 C2475 1.524 . S
C2474 H2493 0.913 . S
C2475 H2451 0.950 . S
C2475 C2474 1.524 . S
C2475 C2476 1.415 . S
C2476 H2452 0.950 . S
C2476 C2471 1.363 . S
C2476 C2475 1.415 . S
C2477 H2453 0.951 . S
C2477 C2478 1.366 . S
C2477 C2479 1.388 . S
C2478 C2477 1.366 . S
C2478 C2482 1.385 . S
C2479 H2454 0.951 . S
C2479 C2477 1.388 . S
C2479 C2480 1.366 . S
C2480 C2479 1.366 . S
C2480 C2481 1.414 . S
C2480 C2483 1.499 . S
C2481 H2455 0.950 . S
C2481 C2480 1.414 . S
C2481 C2482 1.374 . S
C2482 H2456 0.950 . S
C2482 C2478 1.385 . S
C2482 C2481 1.374 . S
C2483 C2480 1.499 . S
C2483 C2484 1.373 . S
C2483 C2485 1.389 . S
C2484 H2457 0.950 . S
C2484 C2470 1.377 . S
C2484 C2483 1.373 . S
C2485 C2469 1.377 . S
C2485 C2483 1.389 . S
C2485 C2486 1.524 . S
C2486 C2485 1.524 . S
C2486 C2487 1.397 . S
C2486 C2491 1.363 . S
C2487 H2458 0.950 . S
C2487 C2486 1.397 . S
C2487 C2488 1.334 . S
C2488 H2459 0.950 . S
C2488 C2487 1.334 . S
C2488 C2489 1.287 . S
C2489 C2488 1.287 . S
C2489 C2490 1.524 . S
C2489 H2492 0.999 . S
C2490 H2460 0.950 . S
C2490 C2489 1.524 . S
C2490 C2491 1.415 . S
C2491 H2461 0.950 . S
C2491 C2486 1.363 . S
C2491 C2490 1.415 . S
H2492 C2489 0.999 . S
H2493 C2474 0.913 . S
H2494 C2512 0.951 . S
H2495 C2514 0.951 . S
H2496 C2516 0.950 . S
H2497 C2517 0.950 . S
H2498 C2519 0.950 . S
H2499 C2522 0.950 . S
H2500 C2523 0.950 . S
H2501 C2525 0.950 . S
H2502 C2526 0.950 . S
H2503 C2527 0.951 . S
H2504 C2529 0.951 . S
H2505 C2531 0.950 . S
H2506 C2532 0.950 . S
H2507 C2534 0.950 . S
H2508 C2537 0.950 . S
H2509 C2538 0.950 . S
H2510 C2540 0.950 . S
H2511 C2541 0.950 . S
C2512 H2494 0.951 . S
C2512 C2513 1.366 . S
C2512 C2514 1.388 . S
C2513 C2512 1.366 . S
C2513 C2517 1.385 . S
C2514 H2495 0.951 . S
C2514 C2512 1.388 . S
C2514 C2515 1.366 . S
C2515 C2514 1.366 . S
C2515 C2516 1.414 . S
C2515 C2518 1.499 . S
C2516 H2496 0.950 . S
C2516 C2515 1.414 . S
C2516 C2517 1.374 . S
C2517 H2497 0.950 . S
C2517 C2513 1.385 . S
C2517 C2516 1.374 . S
C2518 C2515 1.499 . S
C2518 C2519 1.373 . S
C2518 C2520 1.389 . S
C2519 H2498 0.950 . S
C2519 C2518 1.373 . S
C2519 C2535 1.377 . S
C2520 C2518 1.389 . S
C2520 C2521 1.524 1_455 S
C2520 C2534 1.377 . S
C2521 C2520 1.524 1_655 S
C2521 C2522 1.397 . S
C2521 C2526 1.363 . S
C2522 H2499 0.950 . S
C2522 C2521 1.397 . S
C2522 C2523 1.334 . S
C2523 H2500 0.950 . S
C2523 C2522 1.334 . S
C2523 C2524 1.287 . S
C2524 C2523 1.287 . S
C2524 C2525 1.524 . S
C2524 H2543 0.913 . S
C2525 H2501 0.950 . S
C2525 C2524 1.524 . S
C2525 C2526 1.415 . S
C2526 H2502 0.950 . S
C2526 C2521 1.363 . S
C2526 C2525 1.415 . S
C2527 H2503 0.951 . S
C2527 C2528 1.366 . S
C2527 C2529 1.388 . S
C2528 C2527 1.366 . S
C2528 C2532 1.385 . S
C2529 H2504 0.951 . S
C2529 C2527 1.388 . S
C2529 C2530 1.366 . S
C2530 C2529 1.366 . S
C2530 C2531 1.414 . S
C2530 C2533 1.499 . S
C2531 H2505 0.950 . S
C2531 C2530 1.414 . S
C2531 C2532 1.374 . S
C2532 H2506 0.950 . S
C2532 C2528 1.385 . S
C2532 C2531 1.374 . S
C2533 C2530 1.499 . S
C2533 C2534 1.373 . S
C2533 C2535 1.389 . S
C2534 H2507 0.950 . S
C2534 C2520 1.377 . S
C2534 C2533 1.373 . S
C2535 C2519 1.377 . S
C2535 C2533 1.389 . S
C2535 C2536 1.524 . S
C2536 C2535 1.524 . S
C2536 C2537 1.397 . S
C2536 C2541 1.363 . S
C2537 H2508 0.950 . S
C2537 C2536 1.397 . S
C2537 C2538 1.334 . S
C2538 H2509 0.950 . S
C2538 C2537 1.334 . S
C2538 C2539 1.287 . S
C2539 C2538 1.287 . S
C2539 C2540 1.524 . S
C2539 H2542 0.999 . S
C2540 H2510 0.950 . S
C2540 C2539 1.524 . S
C2540 C2541 1.415 . S
C2541 H2511 0.950 . S
C2541 C2536 1.363 . S
C2541 C2540 1.415 . S
H2542 C2539 0.999 . S
H2543 C2524 0.913 . S
H2544 C2562 0.951 . S
H2545 C2564 0.951 . S
H2546 C2566 0.950 . S
H2547 C2567 0.950 . S
H2548 C2569 0.950 . S
H2549 C2572 0.950 . S
H2550 C2573 0.950 . S
H2551 C2575 0.950 . S
H2552 C2576 0.950 . S
H2553 C2577 0.951 . S
H2554 C2579 0.951 . S
H2555 C2581 0.950 . S
H2556 C2582 0.950 . S
H2557 C2584 0.950 . S
H2558 C2587 0.950 . S
H2559 C2588 0.950 . S
H2560 C2590 0.950 . S
H2561 C2591 0.950 . S
C2562 H2544 0.951 . S
C2562 C2563 1.366 . S
C2562 C2564 1.388 . S
C2563 C2562 1.366 . S
C2563 C2567 1.385 . S
C2564 H2545 0.951 . S
C2564 C2562 1.388 . S
C2564 C2565 1.366 . S
C2565 C2564 1.366 . S
C2565 C2566 1.414 . S
C2565 C2568 1.499 . S
C2566 H2546 0.950 . S
C2566 C2565 1.414 . S
C2566 C2567 1.374 . S
C2567 H2547 0.950 . S
C2567 C2563 1.385 . S
C2567 C2566 1.374 . S
C2568 C2565 1.499 . S
C2568 C2569 1.373 . S
C2568 C2570 1.389 . S
C2569 H2548 0.950 . S
C2569 C2568 1.373 . S
C2569 C2585 1.377 . S
C2570 C2568 1.389 . S
C2570 C2571 1.524 . S
C2570 C2584 1.377 . S
C2571 C2570 1.524 . S
C2571 C2572 1.397 . S
C2571 C2576 1.363 . S
C2572 H2549 0.950 . S
C2572 C2571 1.397 . S
C2572 C2573 1.334 . S
C2573 H2550 0.950 . S
C2573 C2572 1.334 . S
C2573 C2574 1.287 . S
C2574 C2573 1.287 . S
C2574 C2575 1.524 . S
C2574 H2593 0.913 . S
C2575 H2551 0.950 . S
C2575 C2574 1.524 . S
C2575 C2576 1.415 . S
C2576 H2552 0.950 . S
C2576 C2571 1.363 . S
C2576 C2575 1.415 . S
C2577 H2553 0.951 . S
C2577 C2578 1.366 . S
C2577 C2579 1.388 . S
C2578 C2577 1.366 . S
C2578 C2582 1.385 . S
C2579 H2554 0.951 . S
C2579 C2577 1.388 . S
C2579 C2580 1.366 . S
C2580 C2579 1.366 . S
C2580 C2581 1.414 . S
C2580 C2583 1.499 . S
C2581 H2555 0.950 . S
C2581 C2580 1.414 . S
C2581 C2582 1.374 . S
C2582 H2556 0.950 . S
C2582 C2578 1.385 . S
C2582 C2581 1.374 . S
C2583 C2580 1.499 . S
C2583 C2584 1.373 . S
C2583 C2585 1.389 . S
C2584 H2557 0.950 . S
C2584 C2570 1.377 . S
C2584 C2583 1.373 . S
C2585 C2569 1.377 . S
C2585 C2583 1.389 . S
C2585 C2586 1.524 . S
C2586 C2585 1.524 . S
C2586 C2587 1.397 . S
C2586 C2591 1.363 . S
C2587 H2558 0.950 . S
C2587 C2586 1.397 . S
C2587 C2588 1.334 . S
C2588 H2559 0.950 . S
C2588 C2587 1.334 . S
C2588 C2589 1.287 . S
C2589 C2588 1.287 . S
C2589 C2590 1.524 . S
C2589 H2592 0.999 . S
C2590 H2560 0.950 . S
C2590 C2589 1.524 . S
C2590 C2591 1.415 . S
C2591 H2561 0.950 . S
C2591 C2586 1.363 . S
C2591 C2590 1.415 . S
H2592 C2589 0.999 . S
H2593 C2574 0.913 . S
H2594 C2612 0.951 . S
H2595 C2614 0.951 . S
H2596 C2616 0.950 . S
H2597 C2617 0.950 1_556 S
H2598 C2619 0.950 . S
H2599 C2622 0.950 . S
H2600 C2623 0.950 . S
H2601 C2625 0.950 . S
H2602 C2626 0.950 . S
H2603 C2627 0.951 . S
H2604 C2629 0.951 . S
H2605 C2631 0.950 . S
H2606 C2632 0.950 . S
H2607 C2634 0.950 . S
H2608 C2637 0.950 . S
H2609 C2638 0.950 . S
H2610 C2640 0.950 . S
H2611 C2641 0.950 . S
C2612 H2594 0.951 . S
C2612 C2613 1.366 . S
C2612 C2614 1.388 . S
C2613 C2612 1.366 . S
C2613 C2617 1.385 . S
C2614 H2595 0.951 . S
C2614 C2612 1.388 . S
C2614 C2615 1.366 . S
C2615 C2614 1.366 . S
C2615 C2616 1.414 . S
C2615 C2618 1.499 . S
C2616 H2596 0.950 . S
C2616 C2615 1.414 . S
C2616 C2617 1.374 . S
C2617 H2597 0.950 1_554 S
C2617 C2613 1.385 . S
C2617 C2616 1.374 . S
C2618 C2615 1.499 . S
C2618 C2619 1.373 . S
C2618 C2620 1.389 . S
C2619 H2598 0.950 . S
C2619 C2618 1.373 . S
C2619 C2635 1.377 . S
C2620 C2618 1.389 . S
C2620 C2621 1.524 . S
C2620 C2634 1.377 . S
C2621 C2620 1.524 . S
C2621 C2622 1.397 . S
C2621 C2626 1.363 . S
C2622 H2599 0.950 . S
C2622 C2621 1.397 . S
C2622 C2623 1.334 . S
C2623 H2600 0.950 . S
C2623 C2622 1.334 . S
C2623 C2624 1.287 . S
C2624 C2623 1.287 . S
C2624 C2625 1.524 . S
C2624 H2643 0.913 . S
C2625 H2601 0.950 . S
C2625 C2624 1.524 . S
C2625 C2626 1.415 . S
C2626 H2602 0.950 . S
C2626 C2621 1.363 . S
C2626 C2625 1.415 . S
C2627 H2603 0.951 . S
C2627 C2628 1.366 . S
C2627 C2629 1.388 . S
C2628 C2627 1.366 . S
C2628 C2632 1.385 . S
C2629 H2604 0.951 . S
C2629 C2627 1.388 . S
C2629 C2630 1.366 . S
C2630 C2629 1.366 . S
C2630 C2631 1.414 . S
C2630 C2633 1.499 . S
C2631 H2605 0.950 . S
C2631 C2630 1.414 . S
C2631 C2632 1.374 . S
C2632 H2606 0.950 . S
C2632 C2628 1.385 . S
C2632 C2631 1.374 . S
C2633 C2630 1.499 . S
C2633 C2634 1.373 . S
C2633 C2635 1.389 . S
C2634 H2607 0.950 . S
C2634 C2620 1.377 . S
C2634 C2633 1.373 . S
C2635 C2619 1.377 . S
C2635 C2633 1.389 . S
C2635 C2636 1.524 . S
C2636 C2635 1.524 . S
C2636 C2637 1.397 . S
C2636 C2641 1.363 . S
C2637 H2608 0.950 . S
C2637 C2636 1.397 . S
C2637 C2638 1.334 . S
C2638 H2609 0.950 . S
C2638 C2637 1.334 . S
C2638 C2639 1.287 . S
C2639 C2638 1.287 . S
C2639 C2640 1.524 . S
C2639 H2642 0.999 . S
C2640 H2610 0.950 . S
C2640 C2639 1.524 . S
C2640 C2641 1.415 . S
C2641 H2611 0.950 . S
C2641 C2636 1.363 . S
C2641 C2640 1.415 . S
H2642 C2639 0.999 . S
H2643 C2624 0.913 . S
H2644 C2662 0.951 . S
H2645 C2664 0.951 . S
H2646 C2666 0.950 . S
H2647 C2667 0.950 . S
H2648 C2669 0.950 . S
H2649 C2672 0.950 . S
H2650 C2673 0.950 . S
H2651 C2675 0.950 . S
H2652 C2676 0.950 . S
H2653 C2677 0.951 . S
H2654 C2679 0.951 . S
H2655 C2681 0.950 . S
H2656 C2682 0.950 . S
H2657 C2684 0.950 . S
H2658 C2687 0.950 . S
H2659 C2688 0.950 . S
H2660 C2690 0.950 . S
H2661 C2691 0.950 . S
C2662 H2644 0.951 . S
C2662 C2663 1.366 . S
C2662 C2664 1.388 . S
C2663 C2662 1.366 . S
C2663 C2667 1.385 . S
C2664 H2645 0.951 . S
C2664 C2662 1.388 . S
C2664 C2665 1.366 . S
C2665 C2664 1.366 . S
C2665 C2666 1.414 . S
C2665 C2668 1.499 . S
C2666 H2646 0.950 . S
C2666 C2665 1.414 . S
C2666 C2667 1.374 . S
C2667 H2647 0.950 . S
C2667 C2663 1.385 . S
C2667 C2666 1.374 . S
C2668 C2665 1.499 . S
C2668 C2669 1.373 . S
C2668 C2670 1.389 . S
C2669 H2648 0.950 . S
C2669 C2668 1.373 . S
C2669 C2685 1.377 . S
C2670 C2668 1.389 . S
C2670 C2671 1.524 . S
C2670 C2684 1.377 . S
C2671 C2670 1.524 . S
C2671 C2672 1.397 . S
C2671 C2676 1.363 . S
C2672 H2649 0.950 . S
C2672 C2671 1.397 . S
C2672 C2673 1.334 . S
C2673 H2650 0.950 . S
C2673 C2672 1.334 . S
C2673 C2674 1.287 . S
C2674 C2673 1.287 . S
C2674 C2675 1.524 . S
C2674 H2693 0.913 . S
C2675 H2651 0.950 . S
C2675 C2674 1.524 . S
C2675 C2676 1.415 . S
C2676 H2652 0.950 . S
C2676 C2671 1.363 . S
C2676 C2675 1.415 . S
C2677 H2653 0.951 . S
C2677 C2678 1.366 . S
C2677 C2679 1.388 . S
C2678 C2677 1.366 . S
C2678 C2682 1.385 . S
C2679 H2654 0.951 . S
C2679 C2677 1.388 . S
C2679 C2680 1.366 . S
C2680 C2679 1.366 . S
C2680 C2681 1.414 . S
C2680 C2683 1.499 . S
C2681 H2655 0.950 . S
C2681 C2680 1.414 . S
C2681 C2682 1.374 . S
C2682 H2656 0.950 . S
C2682 C2678 1.385 . S
C2682 C2681 1.374 . S
C2683 C2680 1.499 . S
C2683 C2684 1.373 . S
C2683 C2685 1.389 . S
C2684 H2657 0.950 . S
C2684 C2670 1.377 . S
C2684 C2683 1.373 . S
C2685 C2669 1.377 . S
C2685 C2683 1.389 . S
C2685 C2686 1.524 . S
C2686 C2685 1.524 . S
C2686 C2687 1.397 . S
C2686 C2691 1.363 . S
C2687 H2658 0.950 . S
C2687 C2686 1.397 . S
C2687 C2688 1.334 . S
C2688 H2659 0.950 . S
C2688 C2687 1.334 . S
C2688 C2689 1.287 . S
C2689 C2688 1.287 . S
C2689 C2690 1.524 . S
C2689 H2692 0.999 . S
C2690 H2660 0.950 . S
C2690 C2689 1.524 . S
C2690 C2691 1.415 . S
C2691 H2661 0.950 . S
C2691 C2686 1.363 . S
C2691 C2690 1.415 . S
H2692 C2689 0.999 . S
H2693 C2674 0.913 . S
H2694 C2712 0.951 . S
H2695 C2714 0.951 . S
H2696 C2716 0.950 . S
H2697 C2717 0.950 . S
H2698 C2719 0.950 . S
H2699 C2722 0.950 . S
H2700 C2723 0.950 1_556 S
H2701 C2725 0.950 . S
H2702 C2726 0.950 . S
H2703 C2727 0.951 . S
H2704 C2729 0.951 . S
H2705 C2731 0.950 . S
H2706 C2732 0.950 . S
H2707 C2734 0.950 . S
H2708 C2737 0.950 . S
H2709 C2738 0.950 . S
H2710 C2740 0.950 . S
H2711 C2741 0.950 . S
C2712 H2694 0.951 . S
C2712 C2713 1.366 . S
C2712 C2714 1.388 . S
C2713 C2712 1.366 . S
C2713 C2717 1.385 . S
C2714 H2695 0.951 . S
C2714 C2712 1.388 . S
C2714 C2715 1.366 . S
C2715 C2714 1.366 . S
C2715 C2716 1.414 . S
C2715 C2718 1.499 . S
C2716 H2696 0.950 . S
C2716 C2715 1.414 . S
C2716 C2717 1.374 . S
C2717 H2697 0.950 . S
C2717 C2713 1.385 . S
C2717 C2716 1.374 . S
C2718 C2715 1.499 . S
C2718 C2719 1.373 . S
C2718 C2720 1.389 . S
C2719 H2698 0.950 . S
C2719 C2718 1.373 . S
C2719 C2735 1.377 . S
C2720 C2718 1.389 . S
C2720 C2721 1.524 . S
C2720 C2734 1.377 . S
C2721 C2720 1.524 . S
C2721 C2722 1.397 . S
C2721 C2726 1.363 . S
C2722 H2699 0.950 . S
C2722 C2721 1.397 . S
C2722 C2723 1.334 . S
C2723 H2700 0.950 1_554 S
C2723 C2722 1.334 . S
C2723 C2724 1.287 . S
C2724 C2723 1.287 . S
C2724 C2725 1.524 . S
C2724 H2743 0.913 . S
C2725 H2701 0.950 . S
C2725 C2724 1.524 . S
C2725 C2726 1.415 . S
C2726 H2702 0.950 . S
C2726 C2721 1.363 . S
C2726 C2725 1.415 . S
C2727 H2703 0.951 . S
C2727 C2728 1.366 . S
C2727 C2729 1.388 . S
C2728 C2727 1.366 . S
C2728 C2732 1.385 . S
C2729 H2704 0.951 . S
C2729 C2727 1.388 . S
C2729 C2730 1.366 . S
C2730 C2729 1.366 . S
C2730 C2731 1.414 . S
C2730 C2733 1.499 . S
C2731 H2705 0.950 . S
C2731 C2730 1.414 . S
C2731 C2732 1.374 . S
C2732 H2706 0.950 . S
C2732 C2728 1.385 . S
C2732 C2731 1.374 . S
C2733 C2730 1.499 . S
C2733 C2734 1.373 . S
C2733 C2735 1.389 . S
C2734 H2707 0.950 . S
C2734 C2720 1.377 . S
C2734 C2733 1.373 . S
C2735 C2719 1.377 . S
C2735 C2733 1.389 . S
C2735 C2736 1.524 . S
C2736 C2735 1.524 . S
C2736 C2737 1.397 . S
C2736 C2741 1.363 . S
C2737 H2708 0.950 . S
C2737 C2736 1.397 . S
C2737 C2738 1.334 . S
C2738 H2709 0.950 . S
C2738 C2737 1.334 . S
C2738 C2739 1.287 . S
C2739 C2738 1.287 . S
C2739 C2740 1.524 . S
C2739 H2742 0.999 . S
C2740 H2710 0.950 . S
C2740 C2739 1.524 . S
C2740 C2741 1.415 . S
C2741 H2711 0.950 . S
C2741 C2736 1.363 . S
C2741 C2740 1.415 . S
H2742 C2739 0.999 . S
H2743 C2724 0.913 . S
H2744 C2762 0.951 . S
H2745 C2764 0.951 . S
H2746 C2766 0.950 . S
H2747 C2767 0.950 . S
H2748 C2769 0.950 . S
H2749 C2772 0.950 . S
H2750 C2773 0.950 . S
H2751 C2775 0.950 . S
H2752 C2776 0.950 . S
H2753 C2777 0.951 . S
H2754 C2779 0.951 . S
H2755 C2781 0.950 . S
H2756 C2782 0.950 . S
H2757 C2784 0.950 . S
H2758 C2787 0.950 . S
H2759 C2788 0.950 . S
H2760 C2790 0.950 . S
H2761 C2791 0.950 . S
C2762 H2744 0.951 . S
C2762 C2763 1.366 . S
C2762 C2764 1.388 . S
C2763 C2762 1.366 . S
C2763 C2767 1.385 . S
C2764 H2745 0.951 . S
C2764 C2762 1.388 . S
C2764 C2765 1.366 . S
C2765 C2764 1.366 . S
C2765 C2766 1.414 . S
C2765 C2768 1.499 . S
C2766 H2746 0.950 . S
C2766 C2765 1.414 . S
C2766 C2767 1.374 . S
C2767 H2747 0.950 . S
C2767 C2763 1.385 . S
C2767 C2766 1.374 . S
C2768 C2765 1.499 . S
C2768 C2769 1.373 . S
C2768 C2770 1.389 . S
C2769 H2748 0.950 . S
C2769 C2768 1.373 . S
C2769 C2785 1.377 . S
C2770 C2768 1.389 . S
C2770 C2771 1.524 . S
C2770 C2784 1.377 . S
C2771 C2770 1.524 . S
C2771 C2772 1.397 . S
C2771 C2776 1.363 . S
C2772 H2749 0.950 . S
C2772 C2771 1.397 . S
C2772 C2773 1.334 . S
C2773 H2750 0.950 . S
C2773 C2772 1.334 . S
C2773 C2774 1.287 . S
C2774 C2773 1.287 . S
C2774 C2775 1.524 . S
C2774 H2793 0.913 . S
C2775 H2751 0.950 . S
C2775 C2774 1.524 . S
C2775 C2776 1.415 . S
C2776 H2752 0.950 . S
C2776 C2771 1.363 . S
C2776 C2775 1.415 . S
C2777 H2753 0.951 . S
C2777 C2778 1.366 . S
C2777 C2779 1.388 . S
C2778 C2777 1.366 . S
C2778 C2782 1.385 . S
C2779 H2754 0.951 . S
C2779 C2777 1.388 . S
C2779 C2780 1.366 . S
C2780 C2779 1.366 . S
C2780 C2781 1.414 . S
C2780 C2783 1.499 . S
C2781 H2755 0.950 . S
C2781 C2780 1.414 . S
C2781 C2782 1.374 . S
C2782 H2756 0.950 . S
C2782 C2778 1.385 . S
C2782 C2781 1.374 . S
C2783 C2780 1.499 . S
C2783 C2784 1.373 . S
C2783 C2785 1.389 . S
C2784 H2757 0.950 . S
C2784 C2770 1.377 . S
C2784 C2783 1.373 . S
C2785 C2769 1.377 . S
C2785 C2783 1.389 . S
C2785 C2786 1.524 . S
C2786 C2785 1.524 . S
C2786 C2787 1.397 . S
C2786 C2791 1.363 . S
C2787 H2758 0.950 . S
C2787 C2786 1.397 . S
C2787 C2788 1.334 . S
C2788 H2759 0.950 . S
C2788 C2787 1.334 . S
C2788 C2789 1.287 . S
C2789 C2788 1.287 . S
C2789 C2790 1.524 . S
C2789 H2792 0.999 . S
C2790 H2760 0.950 . S
C2790 C2789 1.524 . S
C2790 C2791 1.415 . S
C2791 H2761 0.950 . S
C2791 C2786 1.363 . S
C2791 C2790 1.415 . S
H2792 C2789 0.999 . S
H2793 C2774 0.913 . S
H2794 C2812 0.951 . S
H2795 C2814 0.951 . S
H2796 C2816 0.950 . S
H2797 C2817 0.950 . S
H2798 C2819 0.950 . S
H2799 C2822 0.950 . S
H2800 C2823 0.950 . S
H2801 C2825 0.950 . S
H2802 C2826 0.950 . S
H2803 C2827 0.951 . S
H2804 C2829 0.951 . S
H2805 C2831 0.950 . S
H2806 C2832 0.950 . S
H2807 C2834 0.950 . S
H2808 C2837 0.950 . S
H2809 C2838 0.950 . S
H2810 C2840 0.950 . S
H2811 C2841 0.950 . S
C2812 H2794 0.951 . S
C2812 C2813 1.366 . S
C2812 C2814 1.388 . S
C2813 C2812 1.366 . S
C2813 C2817 1.385 . S
C2814 H2795 0.951 . S
C2814 C2812 1.388 . S
C2814 C2815 1.366 . S
C2815 C2814 1.366 . S
C2815 C2816 1.414 . S
C2815 C2818 1.499 . S
C2816 H2796 0.950 . S
C2816 C2815 1.414 . S
C2816 C2817 1.374 . S
C2817 H2797 0.950 . S
C2817 C2813 1.385 . S
C2817 C2816 1.374 . S
C2818 C2815 1.499 . S
C2818 C2819 1.373 . S
C2818 C2820 1.389 . S
C2819 H2798 0.950 . S
C2819 C2818 1.373 . S
C2819 C2835 1.377 . S
C2820 C2818 1.389 . S
C2820 C2821 1.524 . S
C2820 C2834 1.377 . S
C2821 C2820 1.524 . S
C2821 C2822 1.397 . S
C2821 C2826 1.363 . S
C2822 H2799 0.950 . S
C2822 C2821 1.397 . S
C2822 C2823 1.334 . S
C2823 H2800 0.950 . S
C2823 C2822 1.334 . S
C2823 C2824 1.287 . S
C2824 C2823 1.287 . S
C2824 C2825 1.524 . S
C2824 H2843 0.913 . S
C2825 H2801 0.950 . S
C2825 C2824 1.524 . S
C2825 C2826 1.415 . S
C2826 H2802 0.950 . S
C2826 C2821 1.363 . S
C2826 C2825 1.415 . S
C2827 H2803 0.951 . S
C2827 C2828 1.366 . S
C2827 C2829 1.388 . S
C2828 C2827 1.366 . S
C2828 C2832 1.385 . S
C2829 H2804 0.951 . S
C2829 C2827 1.388 . S
C2829 C2830 1.366 . S
C2830 C2829 1.366 . S
C2830 C2831 1.414 . S
C2830 C2833 1.499 . S
C2831 H2805 0.950 . S
C2831 C2830 1.414 . S
C2831 C2832 1.374 . S
C2832 H2806 0.950 . S
C2832 C2828 1.385 . S
C2832 C2831 1.374 . S
C2833 C2830 1.499 . S
C2833 C2834 1.373 . S
C2833 C2835 1.389 . S
C2834 H2807 0.950 . S
C2834 C2820 1.377 . S
C2834 C2833 1.373 . S
C2835 C2819 1.377 . S
C2835 C2833 1.389 . S
C2835 C2836 1.524 . S
C2836 C2835 1.524 . S
C2836 C2837 1.397 . S
C2836 C2841 1.363 . S
C2837 H2808 0.950 . S
C2837 C2836 1.397 . S
C2837 C2838 1.334 . S
C2838 H2809 0.950 . S
C2838 C2837 1.334 . S
C2838 C2839 1.287 . S
C2839 C2838 1.287 . S
C2839 C2840 1.524 . S
C2839 H2842 0.999 . S
C2840 H2810 0.950 . S
C2840 C2839 1.524 . S
C2840 C2841 1.415 . S
C2841 H2811 0.950 . S
C2841 C2836 1.363 . S
C2841 C2840 1.415 . S
H2842 C2839 0.999 . S
H2843 C2824 0.913 . S
H2844 C2862 0.951 . S
H2845 C2864 0.951 . S
H2846 C2866 0.950 . S
H2847 C2867 0.950 . S
H2848 C2869 0.950 . S
H2849 C2872 0.950 . S
H2850 C2873 0.950 . S
H2851 C2875 0.950 . S
H2852 C2876 0.950 . S
H2853 C2877 0.951 . S
H2854 C2879 0.951 . S
H2855 C2881 0.950 . S
H2856 C2882 0.950 . S
H2857 C2884 0.950 . S
H2858 C2887 0.950 . S
H2859 C2888 0.950 . S
H2860 C2890 0.950 . S
H2861 C2891 0.950 . S
C2862 H2844 0.951 . S
C2862 C2863 1.366 . S
C2862 C2864 1.388 . S
C2863 C2862 1.366 . S
C2863 C2867 1.385 . S
C2864 H2845 0.951 . S
C2864 C2862 1.388 . S
C2864 C2865 1.366 . S
C2865 C2864 1.366 . S
C2865 C2866 1.414 . S
C2865 C2868 1.499 . S
C2866 H2846 0.950 . S
C2866 C2865 1.414 . S
C2866 C2867 1.374 . S
C2867 H2847 0.950 . S
C2867 C2863 1.385 . S
C2867 C2866 1.374 . S
C2868 C2865 1.499 . S
C2868 C2869 1.373 . S
C2868 C2870 1.389 . S
C2869 H2848 0.950 . S
C2869 C2868 1.373 . S
C2869 C2885 1.377 . S
C2870 C2868 1.389 . S
C2870 C2871 1.524 . S
C2870 C2884 1.377 . S
C2871 C2870 1.524 . S
C2871 C2872 1.397 . S
C2871 C2876 1.363 . S
C2872 H2849 0.950 . S
C2872 C2871 1.397 . S
C2872 C2873 1.334 . S
C2873 H2850 0.950 . S
C2873 C2872 1.334 . S
C2873 C2874 1.287 . S
C2874 C2873 1.287 . S
C2874 C2875 1.524 . S
C2874 H2893 0.913 . S
C2875 H2851 0.950 . S
C2875 C2874 1.524 . S
C2875 C2876 1.415 . S
C2876 H2852 0.950 . S
C2876 C2871 1.363 . S
C2876 C2875 1.415 . S
C2877 H2853 0.951 . S
C2877 C2878 1.366 . S
C2877 C2879 1.388 . S
C2878 C2877 1.366 . S
C2878 C2882 1.385 . S
C2879 H2854 0.951 . S
C2879 C2877 1.388 . S
C2879 C2880 1.366 . S
C2880 C2879 1.366 . S
C2880 C2881 1.414 . S
C2880 C2883 1.499 . S
C2881 H2855 0.950 . S
C2881 C2880 1.414 . S
C2881 C2882 1.374 . S
C2882 H2856 0.950 . S
C2882 C2878 1.385 . S
C2882 C2881 1.374 . S
C2883 C2880 1.499 . S
C2883 C2884 1.373 . S
C2883 C2885 1.389 . S
C2884 H2857 0.950 . S
C2884 C2870 1.377 . S
C2884 C2883 1.373 . S
C2885 C2869 1.377 . S
C2885 C2883 1.389 . S
C2885 C2886 1.524 . S
C2886 C2885 1.524 . S
C2886 C2887 1.397 . S
C2886 C2891 1.363 . S
C2887 H2858 0.950 . S
C2887 C2886 1.397 . S
C2887 C2888 1.334 . S
C2888 H2859 0.950 . S
C2888 C2887 1.334 . S
C2888 C2889 1.287 . S
C2889 C2888 1.287 . S
C2889 C2890 1.524 . S
C2889 H2892 0.999 . S
C2890 H2860 0.950 . S
C2890 C2889 1.524 . S
C2890 C2891 1.415 . S
C2891 H2861 0.950 . S
C2891 C2886 1.363 . S
C2891 C2890 1.415 . S
H2892 C2889 0.999 . S
H2893 C2874 0.913 . S
H2894 C2912 0.951 . S
H2895 C2914 0.951 . S
H2896 C2916 0.950 . S
H2897 C2917 0.950 . S
H2898 C2919 0.950 . S
H2899 C2922 0.950 . S
H2900 C2923 0.950 . S
H2901 C2925 0.950 . S
H2902 C2926 0.950 . S
H2903 C2927 0.951 . S
H2904 C2929 0.951 . S
H2905 C2931 0.950 . S
H2906 C2932 0.950 . S
H2907 C2934 0.950 . S
H2908 C2937 0.950 . S
H2909 C2938 0.950 . S
H2910 C2940 0.950 . S
H2911 C2941 0.950 . S
C2912 H2894 0.951 . S
C2912 C2913 1.366 . S
C2912 C2914 1.388 . S
C2913 C2912 1.366 . S
C2913 C2917 1.385 . S
C2914 H2895 0.951 . S
C2914 C2912 1.388 . S
C2914 C2915 1.366 . S
C2915 C2914 1.366 . S
C2915 C2916 1.414 . S
C2915 C2918 1.499 . S
C2916 H2896 0.950 . S
C2916 C2915 1.414 . S
C2916 C2917 1.374 . S
C2917 H2897 0.950 . S
C2917 C2913 1.385 . S
C2917 C2916 1.374 . S
C2918 C2915 1.499 . S
C2918 C2919 1.373 . S
C2918 C2920 1.389 . S
C2919 H2898 0.950 . S
C2919 C2918 1.373 . S
C2919 C2935 1.377 . S
C2920 C2918 1.389 . S
C2920 C2921 1.524 . S
C2920 C2934 1.377 . S
C2921 C2920 1.524 . S
C2921 C2922 1.397 . S
C2921 C2926 1.363 . S
C2922 H2899 0.950 . S
C2922 C2921 1.397 . S
C2922 C2923 1.334 . S
C2923 H2900 0.950 . S
C2923 C2922 1.334 . S
C2923 C2924 1.287 . S
C2924 C2923 1.287 . S
C2924 C2925 1.524 . S
C2924 H2943 0.913 . S
C2925 H2901 0.950 . S
C2925 C2924 1.524 . S
C2925 C2926 1.415 . S
C2926 H2902 0.950 . S
C2926 C2921 1.363 . S
C2926 C2925 1.415 . S
C2927 H2903 0.951 . S
C2927 C2928 1.366 . S
C2927 C2929 1.388 . S
C2928 C2927 1.366 . S
C2928 C2932 1.385 . S
C2929 H2904 0.951 . S
C2929 C2927 1.388 . S
C2929 C2930 1.366 . S
C2930 C2929 1.366 . S
C2930 C2931 1.414 . S
C2930 C2933 1.499 . S
C2931 H2905 0.950 . S
C2931 C2930 1.414 . S
C2931 C2932 1.374 . S
C2932 H2906 0.950 . S
C2932 C2928 1.385 . S
C2932 C2931 1.374 . S
C2933 C2930 1.499 . S
C2933 C2934 1.373 . S
C2933 C2935 1.389 . S
C2934 H2907 0.950 . S
C2934 C2920 1.377 . S
C2934 C2933 1.373 . S
C2935 C2919 1.377 . S
C2935 C2933 1.389 . S
C2935 C2936 1.524 . S
C2936 C2935 1.524 . S
C2936 C2937 1.397 . S
C2936 C2941 1.363 . S
C2937 H2908 0.950 . S
C2937 C2936 1.397 . S
C2937 C2938 1.334 . S
C2938 H2909 0.950 . S
C2938 C2937 1.334 . S
C2938 C2939 1.287 . S
C2939 C2938 1.287 . S
C2939 C2940 1.524 . S
C2939 H2942 0.999 . S
C2940 H2910 0.950 . S
C2940 C2939 1.524 . S
C2940 C2941 1.415 . S
C2941 H2911 0.950 . S
C2941 C2936 1.363 . S
C2941 C2940 1.415 . S
H2942 C2939 0.999 . S
H2943 C2924 0.913 . S
H2944 C2962 0.951 . S
H2945 C2964 0.951 . S
H2946 C2966 0.950 1_554 S
H2947 C2967 0.950 . S
H2948 C2969 0.950 . S
H2949 C2972 0.950 1_554 S
H2950 C2973 0.950 1_554 S
H2951 C2975 0.950 . S
H2952 C2976 0.950 . S
H2953 C2977 0.951 . S
H2954 C2979 0.951 . S
H2955 C2981 0.950 . S
H2956 C2982 0.950 . S
H2957 C2984 0.950 . S
H2958 C2987 0.950 . S
H2959 C2988 0.950 . S
H2960 C2990 0.950 . S
H2961 C2991 0.950 . S
C2962 H2944 0.951 . S
C2962 C2963 1.366 . S
C2962 C2964 1.388 . S
C2963 C2962 1.366 . S
C2963 C2967 1.385 . S
C2964 H2945 0.951 . S
C2964 C2962 1.388 . S
C2964 C2965 1.366 . S
C2965 C2964 1.366 . S
C2965 C2966 1.414 . S
C2965 C2968 1.499 . S
C2966 H2946 0.950 1_556 S
C2966 C2965 1.414 . S
C2966 C2967 1.374 . S
C2967 H2947 0.950 . S
C2967 C2963 1.385 . S
C2967 C2966 1.374 . S
C2968 C2965 1.499 . S
C2968 C2969 1.373 . S
C2968 C2970 1.389 . S
C2969 H2948 0.950 . S
C2969 C2968 1.373 . S
C2969 C2985 1.377 . S
C2970 C2968 1.389 . S
C2970 C2971 1.524 . S
C2970 C2984 1.377 . S
C2971 C2970 1.524 . S
C2971 C2972 1.397 . S
C2971 C2976 1.363 . S
C2972 H2949 0.950 1_556 S
C2972 C2971 1.397 . S
C2972 C2973 1.334 . S
C2973 H2950 0.950 1_556 S
C2973 C2972 1.334 . S
C2973 C2974 1.287 . S
C2974 C2973 1.287 . S
C2974 C2975 1.524 . S
C2974 H2993 0.913 . S
C2975 H2951 0.950 . S
C2975 C2974 1.524 . S
C2975 C2976 1.415 . S
C2976 H2952 0.950 . S
C2976 C2971 1.363 . S
C2976 C2975 1.415 . S
C2977 H2953 0.951 . S
C2977 C2978 1.320 1_554 S
C2977 C2979 1.388 . S
C2978 C2977 1.320 1_556 S
C2978 C2982 1.442 . S
C2979 H2954 0.951 . S
C2979 C2977 1.388 . S
C2979 C2980 1.366 1_554 S
C2980 C2979 1.366 1_556 S
C2980 C2981 1.414 . S
C2980 C2983 1.499 . S
C2981 H2955 0.950 . S
C2981 C2980 1.414 . S
C2981 C2982 1.374 . S
C2982 H2956 0.950 . S
C2982 C2978 1.442 . S
C2982 C2981 1.374 . S
C2983 C2980 1.499 . S
C2983 C2984 1.373 . S
C2983 C2985 1.389 . S
C2984 H2957 0.950 . S
C2984 C2970 1.377 . S
C2984 C2983 1.373 . S
C2985 C2969 1.377 . S
C2985 C2983 1.389 . S
C2985 C2986 1.524 . S
C2986 C2985 1.524 . S
C2986 C2987 1.397 . S
C2986 C2991 1.363 1_556 S
C2987 H2958 0.950 . S
C2987 C2986 1.397 . S
C2987 C2988 1.334 . S
C2988 H2959 0.950 . S
C2988 C2987 1.334 . S
C2988 C2989 1.287 . S
C2989 C2988 1.287 . S
C2989 C2990 1.524 1_556 S
C2989 H2992 0.999 . S
C2990 H2960 0.950 . S
C2990 C2989 1.524 1_554 S
C2990 C2991 1.415 . S
C2991 H2961 0.950 . S
C2991 C2986 1.363 1_554 S
C2991 C2990 1.415 . S
H2992 C2989 0.999 . S
H2993 C2974 0.913 . S
H2994 C3012 0.951 . S
H2995 C3014 0.951 . S
H2996 C3016 0.950 . S
H2997 C3017 0.950 . S
H2998 C3019 0.950 . S
H2999 C3022 0.950 . S
H3000 C3023 0.950 . S
H3001 C3025 0.950 . S
H3002 C3026 0.950 . S
H3003 C3027 0.951 . S
H3004 C3029 0.951 . S
H3005 C3031 0.950 . S
H3006 C3032 0.950 . S
H3007 C3034 0.950 . S
H3008 C3037 0.950 . S
H3009 C3038 0.950 . S
H3010 C3040 0.950 . S
H3011 C3041 0.950 . S
C3012 H2994 0.951 . S
C3012 C3013 1.366 . S
C3012 C3014 1.388 . S
C3013 C3012 1.366 . S
C3013 C3017 1.385 . S
C3014 H2995 0.951 . S
C3014 C3012 1.388 . S
C3014 C3015 1.366 . S
C3015 C3014 1.366 . S
C3015 C3016 1.414 . S
C3015 C3018 1.499 . S
C3016 H2996 0.950 . S
C3016 C3015 1.414 . S
C3016 C3017 1.374 . S
C3017 H2997 0.950 . S
C3017 C3013 1.385 . S
C3017 C3016 1.374 . S
C3018 C3015 1.499 . S
C3018 C3019 1.373 . S
C3018 C3020 1.389 . S
C3019 H2998 0.950 . S
C3019 C3018 1.373 . S
C3019 C3035 1.377 . S
C3020 C3018 1.389 . S
C3020 C3021 1.524 . S
C3020 C3034 1.377 . S
C3021 C3020 1.524 . S
C3021 C3022 1.397 . S
C3021 C3026 1.363 . S
C3022 H2999 0.950 . S
C3022 C3021 1.397 . S
C3022 C3023 1.334 . S
C3023 H3000 0.950 . S
C3023 C3022 1.334 . S
C3023 C3024 1.287 . S
C3024 C3023 1.287 . S
C3024 C3025 1.524 . S
C3024 H3043 0.913 . S
C3025 H3001 0.950 . S
C3025 C3024 1.524 . S
C3025 C3026 1.415 . S
C3026 H3002 0.950 . S
C3026 C3021 1.363 . S
C3026 C3025 1.415 . S
C3027 H3003 0.951 . S
C3027 C3028 1.366 . S
C3027 C3029 1.388 . S
C3028 C3027 1.366 . S
C3028 C3032 1.385 . S
C3029 H3004 0.951 . S
C3029 C3027 1.388 . S
C3029 C3030 1.366 . S
C3030 C3029 1.366 . S
C3030 C3031 1.414 . S
C3030 C3033 1.499 . S
C3031 H3005 0.950 . S
C3031 C3030 1.414 . S
C3031 C3032 1.374 . S
C3032 H3006 0.950 . S
C3032 C3028 1.385 . S
C3032 C3031 1.374 . S
C3033 C3030 1.499 . S
C3033 C3034 1.373 . S
C3033 C3035 1.389 . S
C3034 H3007 0.950 . S
C3034 C3020 1.377 . S
C3034 C3033 1.373 . S
C3035 C3019 1.377 . S
C3035 C3033 1.389 . S
C3035 C3036 1.524 . S
C3036 C3035 1.524 . S
C3036 C3037 1.397 . S
C3036 C3041 1.363 . S
C3037 H3008 0.950 . S
C3037 C3036 1.397 . S
C3037 C3038 1.334 . S
C3038 H3009 0.950 . S
C3038 C3037 1.334 . S
C3038 C3039 1.287 . S
C3039 C3038 1.287 . S
C3039 C3040 1.524 . S
C3039 H3042 0.999 . S
C3040 H3010 0.950 . S
C3040 C3039 1.524 . S
C3040 C3041 1.415 . S
C3041 H3011 0.950 . S
C3041 C3036 1.363 . S
C3041 C3040 1.415 . S
H3042 C3039 0.999 . S
H3043 C3024 0.913 . S
H3044 C3062 0.951 . S
H3045 C3064 0.951 . S
H3046 C3066 0.950 . S
H3047 C3067 0.950 . S
H3048 C3069 0.950 . S
H3049 C3072 0.950 . S
H3050 C3073 0.950 . S
H3051 C3075 0.950 . S
H3052 C3076 0.950 . S
H3053 C3077 0.951 . S
H3054 C3079 0.951 . S
H3055 C3081 0.950 . S
H3056 C3082 0.950 . S
H3057 C3084 0.950 . S
H3058 C3087 0.950 . S
H3059 C3088 0.950 . S
H3060 C3090 0.950 . S
H3061 C3091 0.951 . S
C3062 H3044 0.951 . S
C3062 C3063 1.366 . S
C3062 C3064 1.388 . S
C3063 C3062 1.366 . S
C3063 C3067 1.385 . S
C3064 H3045 0.951 . S
C3064 C3062 1.388 . S
C3064 C3065 1.366 . S
C3065 C3064 1.366 . S
C3065 C3066 1.414 . S
C3065 C3068 1.499 . S
C3066 H3046 0.950 . S
C3066 C3065 1.414 . S
C3066 C3067 1.374 . S
C3067 H3047 0.950 . S
C3067 C3063 1.385 . S
C3067 C3066 1.374 . S
C3068 C3065 1.499 . S
C3068 C3069 1.373 . S
C3068 C3070 1.389 . S
C3069 H3048 0.950 . S
C3069 C3068 1.373 . S
C3069 C3085 1.377 . S
C3070 C3068 1.389 . S
C3070 C3071 1.524 . S
C3070 C3084 1.377 . S
C3071 C3070 1.524 . S
C3071 C3072 1.397 . S
C3071 C3076 1.363 . S
C3072 H3049 0.950 . S
C3072 C3071 1.397 . S
C3072 C3073 1.334 . S
C3073 H3050 0.950 . S
C3073 C3072 1.334 . S
C3073 C3074 1.287 . S
C3074 C3073 1.287 . S
C3074 C3075 1.524 . S
C3074 H3093 0.913 . S
C3075 H3051 0.950 . S
C3075 C3074 1.524 . S
C3075 C3076 1.415 . S
C3076 H3052 0.950 . S
C3076 C3071 1.363 . S
C3076 C3075 1.415 . S
C3077 H3053 0.951 . S
C3077 C3078 1.366 . S
C3077 C3079 1.388 . S
C3078 C3077 1.366 . S
C3078 C3082 1.385 . S
C3079 H3054 0.951 . S
C3079 C3077 1.388 . S
C3079 C3080 1.366 . S
C3080 C3079 1.366 . S
C3080 C3081 1.414 . S
C3080 C3083 1.499 . S
C3081 H3055 0.950 . S
C3081 C3080 1.414 . S
C3081 C3082 1.374 . S
C3082 H3056 0.950 . S
C3082 C3078 1.385 . S
C3082 C3081 1.374 . S
C3083 C3080 1.499 . S
C3083 C3084 1.373 . S
C3083 C3085 1.389 . S
C3084 H3057 0.950 . S
C3084 C3070 1.377 . S
C3084 C3083 1.373 . S
C3085 C3069 1.377 . S
C3085 C3083 1.389 . S
C3085 C3086 1.524 1_554 S
C3086 C3085 1.524 1_556 S
C3086 C3087 1.397 . S
C3086 C3091 1.363 . S
C3087 H3058 0.950 . S
C3087 C3086 1.397 . S
C3087 C3088 1.334 . S
C3088 H3059 0.950 . S
C3088 C3087 1.334 . S
C3088 C3089 1.287 . S
C3089 C3088 1.287 . S
C3089 C3090 1.524 . S
C3089 H3092 0.999 . S
C3090 H3060 0.950 . S
C3090 C3089 1.524 . S
C3090 C3091 1.415 . S
C3091 H3061 0.951 . S
C3091 C3086 1.363 . S
C3091 C3090 1.415 . S
H3092 C3089 0.999 . S
H3093 C3074 0.913 . S
H3094 C3112 0.951 . S
H3095 C3114 0.951 . S
H3096 C3116 0.911 1_556 S
H3097 C3117 0.950 1_556 S
H3098 C3119 0.950 1_556 S
H3099 C3122 0.950 . S
H3100 C3123 0.950 . S
H3101 C3125 0.950 . S
H3102 C3126 0.950 . S
H3103 C3127 0.951 . S
H3104 C3129 0.951 . S
H3105 C3131 0.950 . S
H3106 C3132 0.950 . S
H3107 C3134 0.950 . S
H3108 C3137 0.950 1_554 S
H3109 C3138 0.950 . S
H3110 C3140 0.950 . S
H3111 C3141 0.950 . S
C3112 H3094 0.951 . S
C3112 C3113 1.366 . S
C3112 C3114 1.388 . S
C3113 C3112 1.366 . S
C3113 C3117 1.385 . S
C3114 H3095 0.951 . S
C3114 C3112 1.388 . S
C3114 C3115 1.366 . S
C3115 C3114 1.366 . S
C3115 C3116 1.449 . S
C3115 C3118 1.499 . S
C3116 H3096 0.911 1_554 S
C3116 C3115 1.449 . S
C3116 C3117 1.379 . S
C3117 H3097 0.950 1_554 S
C3117 C3113 1.385 . S
C3117 C3116 1.379 . S
C3118 C3115 1.499 . S
C3118 C3119 1.373 . S
C3118 C3120 1.389 . S
C3119 H3098 0.950 1_554 S
C3119 C3118 1.373 . S
C3119 C3135 1.377 . S
C3120 C3118 1.389 . S
C3120 C3121 1.524 . S
C3120 C3134 1.377 . S
C3121 C3120 1.524 . S
C3121 C3122 1.397 . S
C3121 C3126 1.363 . S
C3122 H3099 0.950 . S
C3122 C3121 1.397 . S
C3122 C3123 1.334 1_565 S
C3123 H3100 0.950 . S
C3123 C3122 1.334 1_545 S
C3123 C3124 1.287 1_545 S
C3124 C3123 1.287 1_565 S
C3124 C3125 1.520 . S
C3124 H3143 0.918 1_565 S
C3125 H3101 0.950 . S
C3125 C3124 1.520 . S
C3125 C3126 1.415 . S
C3126 H3102 0.950 . S
C3126 C3121 1.363 . S
C3126 C3125 1.415 . S
C3127 H3103 0.951 . S
C3127 C3128 1.366 1_556 S
C3127 C3129 1.388 . S
C3128 C3127 1.366 1_554 S
C3128 C3132 1.385 . S
C3129 H3104 0.951 . S
C3129 C3127 1.388 . S
C3129 C3130 1.366 1_556 S
C3130 C3129 1.366 1_554 S
C3130 C3131 1.414 . S
C3130 C3133 1.499 . S
C3131 H3105 0.950 . S
C3131 C3130 1.414 . S
C3131 C3132 1.374 . S
C3132 H3106 0.950 . S
C3132 C3128 1.385 . S
C3132 C3131 1.374 . S
C3133 C3130 1.499 . S
C3133 C3134 1.373 . S
C3133 C3135 1.389 . S
C3134 H3107 0.950 . S
C3134 C3120 1.377 . S
C3134 C3133 1.373 . S
C3135 C3119 1.377 . S
C3135 C3133 1.389 . S
C3135 C3136 1.524 1_554 S
C3136 C3135 1.524 1_556 S
C3136 C3137 1.397 . S
C3136 C3141 1.363 . S
C3137 H3108 0.950 1_556 S
C3137 C3136 1.397 . S
C3137 C3138 1.334 . S
C3138 H3109 0.950 . S
C3138 C3137 1.334 . S
C3138 C3139 1.287 . S
C3139 C3138 1.287 . S
C3139 C3140 1.524 . S
C3139 H3142 0.999 . S
C3140 H3110 0.950 . S
C3140 C3139 1.524 . S
C3140 C3141 1.415 . S
C3141 H3111 0.950 . S
C3141 C3136 1.363 . S
C3141 C3140 1.415 . S
H3142 C3139 0.999 . S
H3143 C3124 0.918 1_545 S
C778 C587 1.425 . S
C763 C181 1.440 . S
C828 C595 1.289 . S
C813 C247 1.548 . S
C863 C283 1.425 . S
C878 C615 1.410 . S
C928 C629 1.505 . S
C913 C169 1.520 1_655 S
C978 C644 1.538 . S
C963 C361 1.535 . S
C1028 C658 1.512 . S
C1013 C433 1.502 . S
C1063 C421 1.567 . S
C1078 C672 1.573 . S
C1128 C678 1.451 . S
C1113 C355 1.492 . S
C1163 C427 1.533 . S
C1178 C692 1.502 . S
C1228 C713 1.544 . S
C1213 C325 1.568 . S
C1263 C385 1.453 . S
C1278 C693 1.229 . S
C1328 C714 1.546 . S
C1313 C463 1.534 . S
C1363 C253 1.480 . S
C1378 C721 1.237 . S
C1413 C145 1.512 . S
C1428 C727 1.497 . S
C1463 C205 1.482 . S
C1478 C720 1.446 . S
C1513 C217 1.466 . S
C1528 C728 1.466 . S
C1563 C139 1.505 . S
C1578 C622 1.468 . S
C1613 C535 1.483 . S
C1628 C623 1.249 . S
C1678 C580 1.504 . S
C1663 C565 1.548 . S
C1728 C601 1.429 . S
C1713 C313 1.443 . S
C1763 C175 1.500 . S
C1778 C636 1.466 . S
C1828 C686 1.530 . S
C1813 C397 1.523 . S
C1878 C637 1.210 . S
C1863 C349 1.439 . S
C1928 C665 1.297 . S
C1913 C457 1.556 . S
C1978 C671 1.425 . S
C1963 C505 1.440 . S
C2013 C571 1.548 . S
C2028 C679 1.288 . S
C2063 C319 1.425 . S
C2078 C643 1.410 . S
C2128 C657 1.504 . S
C2113 C493 1.520 . S
C2163 C109 1.535 . S
C2178 C616 1.538 . S
C2228 C630 1.512 . S
C2213 C1 1.502 . S
C2278 C588 1.573 . S
C2263 C61 1.567 . S
C2328 C594 1.451 . S
C2313 C103 1.491 . S
C2363 C67 1.533 . S
C2378 C706 1.502 . S
C2413 C73 1.568 1_556 S
C2428 C699 1.545 . S
C2463 C133 1.452 . S
C2478 C707 1.227 . S
C2513 C31 1.533 . S
C2528 C700 1.546 . S
C2578 C735 1.236 . S
C2563 C289 1.479 . S
C2628 C741 1.497 . S
C2613 C469 1.512 . S
C2678 C734 1.447 . S
C2663 C529 1.481 . S
C2713 C541 1.466 . S
C2728 C742 1.466 . S
C2763 C391 1.505 . S
C2778 C650 1.468 . S
C2828 C651 1.249 . S
C2813 C211 1.483 . S
C2878 C664 1.504 . S
C2863 C241 1.548 . S
C2928 C685 1.428 . S
C2913 C277 1.446 . S
C2963 C499 1.500 . S
C2978 C608 1.462 1_556 S
C3028 C602 1.530 . S
C3013 C37 1.526 . S
C3063 C97 1.439 . S
C3078 C609 1.208 . S
C3128 C581 1.299 . S
C3113 C25 1.556 . S
