# Generated by pormake.
# Topology anh, (6,3)-cn, num edge types: 1
# Building blocks:
#     Node 0, Type 0, BuildingBlock: MIFKUJ_clean_sbu_0, # of connection points: 6
#     Node 1, Type 0, BuildingBlock: MIFKUJ_clean_sbu_0, # of connection points: 6
#     Node 2, Type 0, BuildingBlock: MIFKUJ_clean_sbu_0, # of connection points: 6
#     Node 3, Type 1, BuildingBlock: QEWDON_clean_linker_0, # of connection points: 3
#     Node 4, Type 1, BuildingBlock: QEWDON_clean_linker_0, # of connection points: 3
#     Node 5, Type 1, BuildingBlock: QEWDON_clean_linker_0, # of connection points: 3
#     Node 6, Type 1, BuildingBlock: QEWDON_clean_linker_0, # of connection points: 3
#     Node 7, Type 1, BuildingBlock: QEWDON_clean_linker_0, # of connection points: 3
#     Node 8, Type 1, BuildingBlock: QEWDON_clean_linker_0, # of connection points: 3
#     Edge 9, Type (0, 1), BuildingBlock: AJUNOK_clean_linker_0, # of connection points: 2
#     Edge 10, Type (0, 1), BuildingBlock: AJUNOK_clean_linker_0, # of connection points: 2
#     Edge 11, Type (0, 1), BuildingBlock: AJUNOK_clean_linker_0, # of connection points: 2
#     Edge 12, Type (0, 1), BuildingBlock: AJUNOK_clean_linker_0, # of connection points: 2
#     Edge 13, Type (0, 1), BuildingBlock: AJUNOK_clean_linker_0, # of connection points: 2
#     Edge 14, Type (0, 1), BuildingBlock: AJUNOK_clean_linker_0, # of connection points: 2
#     Edge 15, Type (0, 1), BuildingBlock: AJUNOK_clean_linker_0, # of connection points: 2
#     Edge 16, Type (0, 1), BuildingBlock: AJUNOK_clean_linker_0, # of connection points: 2
#     Edge 17, Type (0, 1), BuildingBlock: AJUNOK_clean_linker_0, # of connection points: 2
#     Edge 18, Type (0, 1), BuildingBlock: AJUNOK_clean_linker_0, # of connection points: 2
#     Edge 19, Type (0, 1), BuildingBlock: AJUNOK_clean_linker_0, # of connection points: 2
#     Edge 20, Type (0, 1), BuildingBlock: AJUNOK_clean_linker_0, # of connection points: 2
#     Edge 21, Type (0, 1), BuildingBlock: AJUNOK_clean_linker_0, # of connection points: 2
#     Edge 22, Type (0, 1), BuildingBlock: AJUNOK_clean_linker_0, # of connection points: 2
#     Edge 23, Type (0, 1), BuildingBlock: AJUNOK_clean_linker_0, # of connection points: 2
#     Edge 24, Type (0, 1), BuildingBlock: AJUNOK_clean_linker_0, # of connection points: 2
#     Edge 25, Type (0, 1), BuildingBlock: AJUNOK_clean_linker_0, # of connection points: 2
#     Edge 26, Type (0, 1), BuildingBlock: AJUNOK_clean_linker_0, # of connection points: 2
# Relax obj value: 0.062
# Max RMSD: 0.126
# Mean RMSD: 0.110
data_MOF--net-anh--node1-MIFKUJ_clean_sbu_0--node2-QEWDON_clean_linker_0--edge1-AJUNOK_clean_linker_0
_symmetry_space_group_name_H-M    P1
_symmetry_Int_Tables_number       1
_symmetry_cell_setting            triclinic
loop_
_symmetry_equiv_pos_as_xyz
'x, y, z'
_cell_length_a     25.871334
_cell_length_b     25.761198
_cell_length_c     32.980701
_cell_angle_alpha  98.236279
_cell_angle_beta   95.150777
_cell_angle_gamma 120.39513
loop_
_atom_site_label
_atom_site_type_symbol
_atom_site_fract_x
_atom_site_fract_y
_atom_site_fract_z
_atom_type_partial_charge
Zn0 Zn 0.1161 0.5619 0.15932 0.0
Zn1 Zn 0.92 0.46649 0.15135 0.0
C2 C 0.19775 0.51897 0.17717 0.0
O3 O 0.1715 0.50829 0.20978 0.0
C4 C 0.82151 0.48094 0.138 0.0
O5 O 0.80447 0.42892 0.11213 0.0
O6 O 0.16175 0.65312 0.16268 0.0
O7 O 0.03741 0.51889 0.11627 0.0
O8 O 0.93844 0.46634 0.09307 0.0
C9 C 0.20529 0.67768 0.14307 0.0
O10 O 0.21635 0.64188 0.1176 0.0
O11 O 0.17691 0.53577 0.14872 0.0
C12 C 0.83428 0.38012 0.18854 0.0
O13 O 0.85787 0.43125 0.21717 0.0
O14 O 0.85993 0.38088 0.15734 0.0
O15 O -0.00196 0.50445 0.19241 0.0
O16 O 0.09583 0.55133 0.21655 0.0
O17 O 0.87553 0.51222 0.15941 0.0
C18 C 0.99251 0.49451 0.08589 0.0
C19 C 0.04156 0.52584 0.22313 0.0
Zn20 Zn 0.62301 0.15061 0.51293 0.0
Zn21 Zn 0.51236 0.95785 0.50397 0.0
C22 C 0.72573 0.26873 0.54138 0.0
O23 O 0.69032 0.26518 0.5684 0.0
C24 C 0.38398 0.88628 0.46819 0.0
O25 O 0.40455 0.8906 0.43307 0.0
O26 O 0.57761 0.19489 0.50949 0.0
O27 O 0.5899 0.08819 0.4589 0.0
O28 O 0.53169 0.9864 0.45048 0.0
C29 C 0.58865 0.22815 0.48253 0.0
O30 O 0.62347 0.22671 0.45631 0.0
O31 O 0.71035 0.22006 0.51471 0.0
C32 C 0.55382 0.86891 0.4855 0.0
O33 O 0.5954 0.90761 0.46709 0.0
O34 O 0.52097 0.8844 0.50381 0.0
O35 O 0.55457 0.01997 0.5586 0.0
O36 O 0.61478 0.12161 0.5672 0.0
O37 O 0.42157 0.91608 0.50253 0.0
C38 C 0.56026 0.03428 0.43577 0.0
C39 C 0.58871 0.07346 0.58208 0.0
Zn40 Zn 0.58839 0.50584 0.82771 0.0
Zn41 Zn 0.49563 0.58555 0.82407 0.0
C42 C 0.56218 0.3988 0.85766 0.0
O43 O 0.60827 0.44132 0.88704 0.0
C44 C 0.52589 0.70272 0.81142 0.0
O45 O 0.49515 0.66709 0.77448 0.0
O46 O 0.67023 0.51592 0.83039 0.0
O47 O 0.56518 0.51402 0.77075 0.0
O48 O 0.51316 0.56097 0.76873 0.0
C49 C 0.71608 0.55133 0.8158 0.0
O50 O 0.71485 0.59212 0.79663 0.0
O51 O 0.53875 0.41613 0.83111 0.0
C52 C 0.38747 0.57476 0.84267 0.0
O53 O 0.42247 0.59948 0.87992 0.0
O54 O 0.40795 0.55982 0.8125 0.0
O55 O 0.5059 0.55372 0.87519 0.0
O56 O 0.59707 0.56522 0.87871 0.0
O57 O 0.53722 0.67867 0.83941 0.0
C58 C 0.53828 0.53506 0.75095 0.0
C59 C 0.55452 0.56307 0.89624 0.0
H60 H 0.54467 0.09092 0.2514 0.0
C61 C 0.50503 0.04624 0.23638 0.0
C62 C 0.48224 0.99921 0.25879 0.0
C63 C 0.47588 0.03657 0.19541 0.0
H64 H 0.4093 0.90663 0.25755 0.0
C65 C 0.42902 0.94255 0.24011 0.0
C66 C 0.4 0.93182 0.19923 0.0
C67 C 0.42398 0.97837 0.17671 0.0
C68 C 0.49765 0.08829 0.17334 0.0
H69 H 0.40145 0.9694 0.14496 0.0
C70 C 0.56037 0.13259 0.17876 0.0
C71 C 0.58038 0.1848 0.16158 0.0
C72 C 0.45557 0.09598 0.14881 0.0
H73 H 0.40693 0.06354 0.14454 0.0
C74 C 0.47571 0.14709 0.13068 0.0
H75 H 0.59375 0.12755 0.19721 0.0
C76 C 0.53778 0.19168 0.13733 0.0
H77 H 0.5526 0.23173 0.12379 0.0
H78 H 0.44296 0.15279 0.11214 0.0
H79 H 0.49764 0.54625 0.55392 0.0
C80 C 0.51137 0.5141 0.54328 0.0
C81 C 0.52748 0.48709 0.57217 0.0
C82 C 0.50979 0.49735 0.50034 0.0
H83 H 0.55555 0.42261 0.57953 0.0
C84 C 0.54171 0.44285 0.55755 0.0
C85 C 0.53739 0.42319 0.51493 0.0
C86 C 0.52261 0.4514 0.48645 0.0
C87 C 0.49165 0.52552 0.46992 0.0
H88 H 0.52009 0.43673 0.45349 0.0
C89 C 0.51102 0.58861 0.47972 0.0
C90 C 0.49111 0.61406 0.45176 0.0
C91 C 0.4532 0.48896 0.43125 0.0
H92 H 0.43649 0.44016 0.42294 0.0
C93 C 0.43436 0.51456 0.40319 0.0
H94 H 0.54076 0.61777 0.50923 0.0
C95 C 0.45286 0.57667 0.41342 0.0
H96 H 0.43706 0.59555 0.39152 0.0
H97 H 0.40456 0.48592 0.37364 0.0
H98 H 0.09025 0.5721 0.9129 0.0
C99 C 0.04743 0.56571 0.89874 0.0
C100 C -0.00196 0.54254 0.91974 0.0
C101 C 0.04188 0.58154 0.86005 0.0
H102 H 0.90568 0.52042 0.91889 0.0
C103 C 0.94307 0.53576 0.90198 0.0
C104 C 0.93682 0.55132 0.86361 0.0
C105 C 0.98601 0.57355 0.84267 0.0
C106 C 0.09435 0.60742 0.83803 0.0
H107 H 0.98031 0.58423 0.8126 0.0
C108 C 0.13535 0.58677 0.83926 0.0
C109 C 0.18519 0.61164 0.81884 0.0
C110 C 0.10406 0.65337 0.81574 0.0
H111 H 0.07445 0.6716 0.81489 0.0
C112 C 0.15303 0.67744 0.79489 0.0
H113 H 0.12851 0.551 0.8558 0.0
C114 C 0.19356 0.65689 0.79647 0.0
H115 H 0.23238 0.67756 0.78116 0.0
H116 H 0.16018 0.71292 0.77803 0.0
H117 H 0.97176 0.5318 0.41761 0.0
C118 C 0.01769 0.57176 0.42693 0.0
C119 C 0.05538 0.58826 0.39711 0.0
C120 C 0.0395 0.6072 0.46836 0.0
H121 H 0.14241 0.65386 0.38459 0.0
C122 C 0.11392 0.64124 0.40802 0.0
C123 C 0.13629 0.6781 0.44837 0.0
C124 C 0.09948 0.66009 0.47861 0.0
C125 C 0.0001 0.59064 0.50085 0.0
H126 H 0.11771 0.68801 0.51003 0.0
C127 C 0.95482 0.52872 0.50029 0.0
C128 C 0.91899 0.51465 0.53164 0.0
C129 C 0.00789 0.63766 0.53319 0.0
H130 H 0.03954 0.68586 0.53406 0.0
C131 C 0.97467 0.62358 0.56511 0.0
H132 H 0.94704 0.49153 0.47565 0.0
C133 C 0.93125 0.56269 0.56472 0.0
H134 H 0.90663 0.55327 0.59027 0.0
H135 H 0.98231 0.66022 0.59018 0.0
H136 H 0.55363 0.02035 0.76699 0.0
C137 C 0.5547 0.06177 0.7805 0.0
C138 C 0.56728 0.10611 0.75641 0.0
C139 C 0.54206 0.06992 0.82092 0.0
H140 H 0.57155 0.19106 0.75296 0.0
C141 C 0.56438 0.15791 0.77207 0.0
C142 C 0.55098 0.16686 0.81175 0.0
C143 C 0.54207 0.12407 0.83659 0.0
C144 C 0.52495 0.02022 0.84523 0.0
H145 H 0.53379 0.13275 0.86769 0.0
C146 C 0.5445 0.97785 0.83828 0.0
C147 C 0.52229 0.92684 0.85734 0.0
C148 C 0.48531 0.01201 0.87372 0.0
H149 H 0.46724 0.04158 0.87935 0.0
C150 C 0.46611 0.96366 0.89446 0.0
H151 H 0.57644 0.98366 0.81771 0.0
C152 C 0.48391 0.92107 0.88614 0.0
H153 H 0.46576 0.88225 0.90114 0.0
H154 H 0.43546 0.95795 0.91608 0.0
H155 H 0.5326 0.60595 0.09539 0.0
C156 C 0.56479 0.59268 0.10452 0.0
C157 C 0.59515 0.58037 0.07482 0.0
C158 C 0.57705 0.58936 0.14627 0.0
H159 H 0.66065 0.55381 0.06455 0.0
C160 C 0.63803 0.56501 0.08732 0.0
C161 C 0.65093 0.56193 0.12861 0.0
C162 C 0.62046 0.57392 0.15807 0.0
C163 C 0.5447 0.6019 0.17764 0.0
H164 H 0.62958 0.56983 0.18981 0.0
C165 C 0.4812 0.57694 0.1682 0.0
C166 C 0.45068 0.58716 0.1987 0.0
C167 C 0.57733 0.63832 0.21764 0.0
H168 H 0.62624 0.65878 0.22559 0.0
C169 C 0.54736 0.64941 0.24766 0.0
H170 H 0.45526 0.54816 0.13767 0.0
C171 C 0.4845 0.62403 0.23835 0.0
H172 H 0.46229 0.63367 0.26209 0.0
H173 H 0.57298 0.67785 0.27827 0.0
C174 C 0.29559 0.55491 0.15021 0.0
C175 C 0.25842 0.52538 0.1784 0.0
C176 C 0.3571 0.57203 0.15565 0.0
C177 C 0.38373 0.56047 0.18954 0.0
H178 H 0.27806 0.5677 0.1249 0.0
H179 H 0.38478 0.59727 0.13444 0.0
S180 S 0.30458 0.47605 0.26835 0.0
N181 N 0.25164 0.47897 0.23865 0.0
N182 N 0.36698 0.5115 0.24871 0.0
C183 C 0.34626 0.52744 0.21625 0.0
C184 C 0.28369 0.50973 0.21068 0.0
C185 C 0.82931 0.34059 0.52572 0.0
C186 C 0.77407 0.33031 0.53672 0.0
C187 C 0.87573 0.39994 0.52292 0.0
C188 C 0.86791 0.45062 0.53032 0.0
H189 H 0.83738 0.30302 0.52047 0.0
H190 H 0.91856 0.4065 0.51611 0.0
S191 S 0.72736 0.44518 0.55305 0.0
N192 N 0.712 0.3743 0.551 0.0
N193 N 0.79725 0.48418 0.54376 0.0
C194 C 0.81126 0.43967 0.5388 0.0
C195 C 0.7649 0.38001 0.54252 0.0
C196 C 0.54964 0.7961 0.86425 0.0
C197 C 0.53611 0.76578 0.82217 0.0
C198 C 0.54845 0.85014 0.87535 0.0
C199 C 0.53409 0.87633 0.84487 0.0
H200 H 0.55826 0.7764 0.88899 0.0
H201 H 0.55677 0.87043 0.90818 0.0
S202 S 0.50136 0.81864 0.73013 0.0
N203 N 0.51336 0.76936 0.74973 0.0
N204 N 0.50995 0.86989 0.77066 0.0
C205 C 0.5241 0.84858 0.80264 0.0
C206 C 0.52536 0.7936 0.79131 0.0
C207 C 0.7981 0.56453 0.15219 0.0
C208 C 0.77766 0.50137 0.14169 0.0
C209 C 0.75644 0.5843 0.15047 0.0
C210 C 0.69329 0.54143 0.13916 0.0
H211 H 0.84651 0.5989 0.15965 0.0
H212 H 0.77371 0.63329 0.15625 0.0
S213 S 0.61608 0.37132 0.11381 0.0
N214 N 0.68958 0.39618 0.12302 0.0
N215 N 0.61197 0.4338 0.12047 0.0
C216 C 0.67223 0.47842 0.13107 0.0
C217 C 0.7143 0.45824 0.13224 0.0
C218 C 0.27435 0.8247 0.43359 0.0
C219 C 0.31956 0.83914 0.46762 0.0
C220 C 0.21463 0.7745 0.42896 0.0
C221 C 0.19791 0.73572 0.45767 0.0
H222 H 0.28552 0.85166 0.40982 0.0
H223 H 0.18157 0.76496 0.40194 0.0
S224 S 0.29976 0.7538 0.55232 0.0
N225 N 0.34352 0.81192 0.5313 0.0
N226 N 0.23179 0.71596 0.52169 0.0
C227 C 0.24235 0.7507 0.49254 0.0
C228 C 0.30305 0.8027 0.49768 0.0
C229 C 0.58448 0.3195 0.875 0.0
C230 C 0.54948 0.33458 0.84944 0.0
C231 C 0.58259 0.26378 0.86377 0.0
C232 C 0.54574 0.22104 0.8265 0.0
H233 H 0.61595 0.3522 0.90299 0.0
H234 H 0.61246 0.25553 0.88332 0.0
S235 S 0.43832 0.23304 0.75174 0.0
N236 N 0.47155 0.29815 0.78734 0.0
N237 N 0.4682 0.19374 0.7665 0.0
C238 C 0.50751 0.23343 0.80211 0.0
C239 C 0.5092 0.28999 0.81354 0.0
C240 C 0.58315 0.78936 0.47441 0.0
C241 C 0.53833 0.80413 0.47965 0.0
C242 C 0.56811 0.72772 0.46672 0.0
C243 C 0.50758 0.67897 0.46307 0.0
H244 H 0.63005 0.82561 0.47614 0.0
H245 H 0.60366 0.71799 0.46252 0.0
S246 S 0.37315 0.69231 0.47346 0.0
N247 N 0.43071 0.76425 0.4807 0.0
N248 N 0.40284 0.64898 0.4654 0.0
C249 C 0.46253 0.693 0.46838 0.0
C250 C 0.4778 0.75546 0.47691 0.0
C251 C 0.82917 0.59983 0.82383 0.0
C252 C 0.77148 0.54811 0.82309 0.0
C253 C 0.88256 0.59974 0.83556 0.0
C254 C 0.87994 0.54785 0.84674 0.0
H255 H 0.83331 0.64152 0.81698 0.0
H256 H 0.92625 0.64141 0.83748 0.0
S257 S 0.74002 0.3975 0.84348 0.0
N258 N 0.71476 0.44121 0.83011 0.0
N259 N 0.8152 0.4413 0.85186 0.0
C260 C 0.82254 0.49471 0.84383 0.0
C261 C 0.76827 0.49476 0.83202 0.0
C262 C 0.29794 0.77135 0.13219 0.0
C263 C 0.24843 0.74538 0.1531 0.0
C264 C 0.34529 0.83324 0.14564 0.0
C265 C 0.34475 0.87107 0.1805 0.0
H266 H 0.30169 0.7431 0.10636 0.0
H267 H 0.38412 0.85062 0.13013 0.0
S268 S 0.22209 0.8292 0.24231 0.0
N269 N 0.19882 0.76514 0.20759 0.0
N270 N 0.28832 0.88127 0.23279 0.0
C271 C 0.2938 0.84725 0.19987 0.0
C272 C 0.2454 0.78443 0.18612 0.0
C273 C 0.52729 0.27043 0.5095 0.0
C274 C 0.57047 0.27447 0.48509 0.0
C275 C 0.51502 0.31756 0.51722 0.0
C276 C 0.54567 0.37089 0.5011 0.0
H277 H 0.50385 0.23129 0.52375 0.0
H278 H 0.48233 0.31297 0.537 0.0
S279 S 0.66121 0.40348 0.43395 0.0
N280 N 0.64212 0.33525 0.44314 0.0
N281 N 0.61941 0.42425 0.45844 0.0
C282 C 0.587 0.37455 0.47517 0.0
C283 C 0.59936 0.32626 0.46702 0.0
C284 C 0.30736 0.58912 0.86931 0.0
C285 C 0.33005 0.57448 0.8351 0.0
C286 C 0.25865 0.59841 0.86359 0.0
C287 C 0.23106 0.59375 0.82347 0.0
H288 H 0.32862 0.59552 0.90094 0.0
H289 H 0.24424 0.61198 0.8909 0.0
S290 S 0.26809 0.54964 0.72325 0.0
N291 N 0.31735 0.55056 0.75928 0.0
N292 N 0.2257 0.56824 0.74883 0.0
C293 C 0.25099 0.57608 0.78887 0.0
C294 C 0.3004 0.5662 0.7946 0.0
C295 C 0.75075 0.2694 0.16369 0.0
C296 C 0.77099 0.32916 0.18615 0.0
C297 C 0.68904 0.22223 0.15663 0.0
C298 C 0.64556 0.23384 0.17091 0.0
H299 H 0.78266 0.2593 0.15096 0.0
H300 H 0.67495 0.17688 0.13892 0.0
S301 S 0.67439 0.38155 0.23153 0.0
N302 N 0.7422 0.3966 0.22341 0.0
N303 N 0.62633 0.30808 0.2092 0.0
C304 C 0.6651 0.29286 0.19385 0.0
C305 C 0.72788 0.34052 0.20177 0.0
C306 C 0.9565 0.45978 0.00878 0.0
C307 C 0.00135 0.50372 0.04315 0.0
C308 C 0.95766 0.47144 0.96857 0.0
C309 C 0.00351 0.52766 0.96117 0.0
H310 H 0.91901 0.41676 0.0132 0.0
H311 H 0.92121 0.43698 0.94324 0.0
S312 S 0.13124 0.65817 0.04034 0.0
N313 N 0.09326 0.60539 0.06694 0.0
N314 N 0.09521 0.62744 0.99133 0.0
C315 C 0.04988 0.57111 0.99491 0.0
C316 C 0.04884 0.55911 0.03591 0.0
C317 C 0.5467 0.07403 0.3737 0.0
C318 C 0.54973 0.0279 0.39008 0.0
C319 C 0.52713 0.06535 0.331 0.0
C320 C 0.51068 0.01056 0.3029 0.0
H321 H 0.55618 0.11584 0.39424 0.0
H322 H 0.5221 0.10068 0.32032 0.0
S323 S 0.52039 0.87993 0.32926 0.0
N324 N 0.54049 0.92815 0.37463 0.0
N325 N 0.50625 0.91279 0.29392 0.0
C326 C 0.51751 0.96582 0.31855 0.0
C327 C 0.53642 0.97425 0.36221 0.0
C328 C 0.50739 0.46462 0.68215 0.0
C329 C 0.53239 0.52474 0.70539 0.0
C330 C 0.50358 0.45303 0.63897 0.0
C331 C 0.52662 0.5014 0.61743 0.0
H332 H 0.49051 0.42615 0.69751 0.0
H333 H 0.48306 0.40559 0.62243 0.0
S334 S 0.59664 0.66765 0.66498 0.0
N335 N 0.57844 0.63317 0.70452 0.0
N336 N 0.57511 0.61226 0.62333 0.0
C337 C 0.55093 0.56193 0.64048 0.0
C338 C 0.5531 0.57341 0.6845 0.0
C339 C 0.54545 0.03184 0.64316 0.0
C340 C 0.59046 0.08035 0.62781 0.0
C341 C 0.53974 0.03981 0.68509 0.0
C342 C 0.57903 0.09645 0.71348 0.0
H343 H 0.51234 0.98805 0.6223 0.0
H344 H 0.50252 0.0021 0.69487 0.0
S345 S 0.71051 0.2349 0.69106 0.0
N346 N 0.67916 0.18507 0.64564 0.0
N347 N 0.66892 0.19948 0.72463 0.0
C348 C 0.62659 0.14408 0.69927 0.0
C349 C 0.63224 0.13615 0.65647 0.0
C350 C 0.62189 0.60512 0.96635 0.0
C351 C 0.56259 0.5721 0.94224 0.0
C352 C 0.63162 0.6104 0.00951 0.0
C353 C 0.58252 0.58211 0.03034 0.0
H354 H 0.66134 0.62646 0.95171 0.0
H355 H 0.67823 0.63555 0.02659 0.0
S356 S 0.41809 0.49225 0.98184 0.0
N357 N 0.45372 0.51317 0.94258 0.0
N358 N 0.47219 0.52147 0.02378 0.0
C359 C 0.52283 0.55084 0.00692 0.0
C360 C 0.51284 0.54613 0.96285 0.0
C361 C 0.99288 0.54265 0.28177 0.0
C362 C 0.03118 0.52387 0.26631 0.0
C363 C 0.99544 0.55717 0.32498 0.0
C364 C 0.03572 0.5524 0.35361 0.0
H365 H 0.96492 0.55138 0.26074 0.0
H366 H 0.96987 0.57722 0.3361 0.0
S367 S 0.13627 0.49402 0.32833 0.0
N368 N 0.10372 0.49294 0.28253 0.0
N369 N 0.10788 0.51943 0.36339 0.0
C370 C 0.06919 0.52752 0.33816 0.0
C371 C 0.06715 0.51351 0.29452 0.0
loop_
_geom_bond_atom_site_label_1
_geom_bond_atom_site_label_2
_geom_bond_distance
_geom_bond_site_symmetry_2
_ccdc_geom_bond_type
Zn0 O6 1.969 . S
Zn0 O7 1.965 . S
Zn0 O11 2.024 . S
Zn0 O16 1.969 . S
Zn1 O8 1.969 . S
Zn1 O14 1.969 . S
Zn1 O15 1.965 . S
Zn1 O17 2.024 . S
C2 O3 1.229 . S
C2 O11 1.058 . S
O3 C2 1.229 . S
C4 O5 1.229 . S
C4 O17 1.058 . S
O5 C4 1.229 . S
O6 Zn0 1.969 . S
O6 C9 1.267 . S
O7 Zn0 1.965 . S
O7 C18 1.260 . S
O8 Zn1 1.969 . S
O8 C18 1.258 1_655 S
C9 O6 1.267 . S
C9 O10 1.228 . S
O10 C9 1.228 . S
O11 Zn0 2.024 . S
O11 C2 1.058 . S
C12 O13 1.228 . S
C12 O14 1.267 . S
O13 C12 1.228 . S
O14 Zn1 1.969 . S
O14 C12 1.267 . S
O15 Zn1 1.965 . S
O15 C19 1.260 1_655 S
O16 Zn0 1.969 . S
O16 C19 1.258 . S
O17 Zn1 2.024 . S
O17 C4 1.058 . S
C18 O7 1.260 . S
C18 O8 1.258 1_455 S
C19 O15 1.260 1_455 S
C19 O16 1.258 . S
Zn20 O26 1.969 . S
Zn20 O27 1.965 . S
Zn20 O31 2.024 . S
Zn20 O36 1.969 . S
Zn21 O28 1.969 . S
Zn21 O34 1.969 . S
Zn21 O35 1.965 1_565 S
Zn21 O37 2.024 . S
C22 O23 1.229 . S
C22 O31 1.058 . S
O23 C22 1.229 . S
C24 O25 1.229 . S
C24 O37 1.058 . S
O25 C24 1.229 . S
O26 Zn20 1.969 . S
O26 C29 1.267 . S
O27 Zn20 1.965 . S
O27 C38 1.260 . S
O28 Zn21 1.969 . S
O28 C38 1.258 1_565 S
C29 O26 1.267 . S
C29 O30 1.228 . S
O30 C29 1.228 . S
O31 Zn20 2.024 . S
O31 C22 1.058 . S
C32 O33 1.228 . S
C32 O34 1.267 . S
O33 C32 1.228 . S
O34 Zn21 1.969 . S
O34 C32 1.267 . S
O35 Zn21 1.965 1_545 S
O35 C39 1.260 . S
O36 Zn20 1.969 . S
O36 C39 1.258 . S
O37 Zn21 2.024 . S
O37 C24 1.058 . S
C38 O27 1.260 . S
C38 O28 1.258 1_545 S
C39 O35 1.260 . S
C39 O36 1.258 . S
Zn40 O46 1.969 . S
Zn40 O47 1.965 . S
Zn40 O51 2.024 . S
Zn40 O56 1.969 . S
Zn41 O48 1.969 . S
Zn41 O54 1.969 . S
Zn41 O55 1.965 . S
Zn41 O57 2.024 . S
C42 O43 1.229 . S
C42 O51 1.058 . S
O43 C42 1.229 . S
C44 O45 1.229 . S
C44 O57 1.058 . S
O45 C44 1.229 . S
O46 Zn40 1.969 . S
O46 C49 1.267 . S
O47 Zn40 1.965 . S
O47 C58 1.260 . S
O48 Zn41 1.969 . S
O48 C58 1.258 . S
C49 O46 1.267 . S
C49 O50 1.228 . S
O50 C49 1.228 . S
O51 Zn40 2.024 . S
O51 C42 1.058 . S
C52 O53 1.228 . S
C52 O54 1.267 . S
O53 C52 1.228 . S
O54 Zn41 1.969 . S
O54 C52 1.267 . S
O55 Zn41 1.965 . S
O55 C59 1.260 . S
O56 Zn40 1.969 . S
O56 C59 1.258 . S
O57 Zn41 2.024 . S
O57 C44 1.058 . S
C58 O47 1.260 . S
C58 O48 1.258 . S
C59 O55 1.260 . S
C59 O56 1.258 . S
H60 C61 0.949 . S
C61 H60 0.949 . S
C61 C62 1.395 . S
C61 C63 1.391 . S
C62 C61 1.395 . S
C62 C65 1.390 1_545 S
C63 C61 1.391 . S
C63 C67 1.387 . S
C63 C68 1.491 . S
H64 C65 0.950 . S
C65 C62 1.390 1_565 S
C65 H64 0.950 . S
C65 C66 1.378 . S
C66 C65 1.378 . S
C66 C67 1.409 1_565 S
C67 C63 1.387 . S
C67 C66 1.409 1_545 S
C67 H69 0.951 . S
C68 C63 1.491 . S
C68 C70 1.382 . S
C68 C72 1.404 . S
H69 C67 0.951 . S
C70 C68 1.382 . S
C70 C71 1.390 . S
C70 H75 0.949 . S
C71 C70 1.390 . S
C71 C76 1.399 . S
C72 C68 1.404 . S
C72 H73 0.950 . S
C72 C74 1.375 . S
H73 C72 0.950 . S
C74 C72 1.375 . S
C74 C76 1.382 . S
C74 H78 0.950 . S
H75 C70 0.949 . S
C76 C71 1.399 . S
C76 C74 1.382 . S
C76 H77 0.952 . S
H77 C76 0.952 . S
H78 C74 0.950 . S
H79 C80 0.949 . S
C80 H79 0.949 . S
C80 C81 1.395 . S
C80 C82 1.391 . S
C81 C80 1.395 . S
C81 C84 1.390 . S
C82 C80 1.391 . S
C82 C86 1.387 . S
C82 C87 1.491 . S
H83 C84 0.950 . S
C84 C81 1.390 . S
C84 H83 0.950 . S
C84 C85 1.378 . S
C85 C84 1.378 . S
C85 C86 1.409 . S
C86 C82 1.387 . S
C86 C85 1.409 . S
C86 H88 0.951 . S
C87 C82 1.491 . S
C87 C89 1.382 . S
C87 C91 1.404 . S
H88 C86 0.951 . S
C89 C87 1.382 . S
C89 C90 1.390 . S
C89 H94 0.949 . S
C90 C89 1.390 . S
C90 C95 1.399 . S
C91 C87 1.404 . S
C91 H92 0.950 . S
C91 C93 1.375 . S
H92 C91 0.950 . S
C93 C91 1.375 . S
C93 C95 1.382 . S
C93 H97 0.950 . S
H94 C89 0.949 . S
C95 C90 1.399 . S
C95 C93 1.382 . S
C95 H96 0.952 . S
H96 C95 0.952 . S
H97 C93 0.950 . S
H98 C99 0.949 . S
C99 H98 0.949 . S
C99 C100 1.395 . S
C99 C101 1.391 . S
C100 C99 1.395 . S
C100 C103 1.390 1_455 S
C101 C99 1.391 . S
C101 C105 1.387 . S
C101 C106 1.491 . S
H102 C103 0.950 . S
C103 C100 1.390 1_655 S
C103 H102 0.950 . S
C103 C104 1.378 . S
C104 C103 1.378 . S
C104 C105 1.409 1_655 S
C105 C101 1.387 . S
C105 C104 1.409 1_455 S
C105 H107 0.951 1_455 S
C106 C101 1.491 . S
C106 C108 1.382 . S
C106 C110 1.404 . S
H107 C105 0.951 1_655 S
C108 C106 1.382 . S
C108 C109 1.390 . S
C108 H113 0.949 . S
C109 C108 1.390 . S
C109 C114 1.399 . S
C110 C106 1.404 . S
C110 H111 0.950 . S
C110 C112 1.375 . S
H111 C110 0.950 . S
C112 C110 1.375 . S
C112 C114 1.382 . S
C112 H116 0.950 . S
H113 C108 0.949 . S
C114 C109 1.399 . S
C114 C112 1.382 . S
C114 H115 0.952 . S
H115 C114 0.952 . S
H116 C112 0.950 . S
H117 C118 0.949 1_655 S
C118 H117 0.949 1_455 S
C118 C119 1.395 . S
C118 C120 1.391 . S
C119 C118 1.395 . S
C119 C122 1.390 . S
C120 C118 1.391 . S
C120 C124 1.387 . S
C120 C125 1.491 1_455 S
H121 C122 0.950 . S
C122 C119 1.390 . S
C122 H121 0.950 . S
C122 C123 1.378 . S
C123 C122 1.378 . S
C123 C124 1.409 . S
C124 C120 1.387 . S
C124 C123 1.409 . S
C124 H126 0.951 . S
C125 C120 1.491 1_655 S
C125 C127 1.382 . S
C125 C129 1.404 . S
H126 C124 0.951 . S
C127 C125 1.382 . S
C127 C128 1.390 . S
C127 H132 0.949 . S
C128 C127 1.390 . S
C128 C133 1.399 . S
C129 C125 1.404 . S
C129 H130 0.950 . S
C129 C131 1.375 . S
H130 C129 0.950 . S
C131 C129 1.375 . S
C131 C133 1.382 . S
C131 H135 0.950 . S
H132 C127 0.949 . S
C133 C128 1.399 . S
C133 C131 1.382 . S
C133 H134 0.952 . S
H134 C133 0.952 . S
H135 C131 0.950 . S
H136 C137 0.949 1_565 S
C137 H136 0.949 1_545 S
C137 C138 1.395 . S
C137 C139 1.391 . S
C138 C137 1.395 . S
C138 C141 1.390 . S
C139 C137 1.391 . S
C139 C143 1.387 . S
C139 C144 1.491 1_545 S
H140 C141 0.950 . S
C141 C138 1.390 . S
C141 H140 0.950 . S
C141 C142 1.378 . S
C142 C141 1.378 . S
C142 C143 1.409 . S
C143 C139 1.387 . S
C143 C142 1.409 . S
C143 H145 0.951 . S
C144 C139 1.491 1_565 S
C144 C146 1.382 . S
C144 C148 1.404 . S
H145 C143 0.951 . S
C146 C144 1.382 . S
C146 C147 1.390 . S
C146 H151 0.949 . S
C147 C146 1.390 . S
C147 C152 1.399 . S
C148 C144 1.404 . S
C148 H149 0.950 1_565 S
C148 C150 1.375 . S
H149 C148 0.950 1_545 S
C150 C148 1.375 . S
C150 C152 1.382 . S
C150 H154 0.950 . S
H151 C146 0.949 . S
C152 C147 1.399 . S
C152 C150 1.382 . S
C152 H153 0.952 . S
H153 C152 0.952 . S
H154 C150 0.950 . S
H155 C156 0.949 . S
C156 H155 0.949 . S
C156 C157 1.395 . S
C156 C158 1.391 . S
C157 C156 1.395 . S
C157 C160 1.390 . S
C158 C156 1.391 . S
C158 C162 1.387 . S
C158 C163 1.491 . S
H159 C160 0.950 . S
C160 C157 1.390 . S
C160 H159 0.950 . S
C160 C161 1.378 . S
C161 C160 1.378 . S
C161 C162 1.409 . S
C162 C158 1.387 . S
C162 C161 1.409 . S
C162 H164 0.951 . S
C163 C158 1.491 . S
C163 C165 1.382 . S
C163 C167 1.404 . S
H164 C162 0.951 . S
C165 C163 1.382 . S
C165 C166 1.390 . S
C165 H170 0.949 . S
C166 C165 1.390 . S
C166 C171 1.399 . S
C167 C163 1.404 . S
C167 H168 0.950 . S
C167 C169 1.375 . S
H168 C167 0.950 . S
C169 C167 1.375 . S
C169 C171 1.382 . S
C169 H173 0.950 . S
H170 C165 0.949 . S
C171 C166 1.399 . S
C171 C169 1.382 . S
C171 H172 0.952 . S
H172 C171 0.952 . S
H173 C169 0.950 . S
C174 C175 1.369 . S
C174 C176 1.419 . S
C174 H178 0.930 . S
C175 C174 1.369 . S
C175 C184 1.429 . S
C176 C174 1.419 . S
C176 C177 1.363 . S
C176 H179 0.929 . S
C177 C176 1.363 . S
C177 C183 1.428 . S
H178 C174 0.930 . S
H179 C176 0.929 . S
S180 N181 1.613 . S
S180 N182 1.610 . S
N181 S180 1.613 . S
N181 C184 1.350 . S
N182 S180 1.610 . S
N182 C183 1.351 . S
C183 C177 1.428 . S
C183 N182 1.351 . S
C183 C184 1.434 . S
C184 C175 1.429 . S
C184 N181 1.350 . S
C184 C183 1.434 . S
C185 C186 1.369 . S
C185 C187 1.419 . S
C185 H189 0.930 . S
C186 C185 1.369 . S
C186 C195 1.429 . S
C187 C185 1.419 . S
C187 C188 1.363 . S
C187 H190 0.929 . S
C188 C187 1.363 . S
C188 C194 1.428 . S
H189 C185 0.930 . S
H190 C187 0.929 . S
S191 N192 1.613 . S
S191 N193 1.610 . S
N192 S191 1.613 . S
N192 C195 1.350 . S
N193 S191 1.610 . S
N193 C194 1.351 . S
C194 C188 1.428 . S
C194 N193 1.351 . S
C194 C195 1.434 . S
C195 C186 1.429 . S
C195 N192 1.350 . S
C195 C194 1.434 . S
C196 C197 1.369 . S
C196 C198 1.419 . S
C196 H200 0.930 . S
C197 C196 1.369 . S
C197 C206 1.429 . S
C198 C196 1.419 . S
C198 C199 1.363 . S
C198 H201 0.929 . S
C199 C198 1.363 . S
C199 C205 1.428 . S
H200 C196 0.930 . S
H201 C198 0.929 . S
S202 N203 1.613 . S
S202 N204 1.610 . S
N203 S202 1.613 . S
N203 C206 1.350 . S
N204 S202 1.610 . S
N204 C205 1.351 . S
C205 C199 1.428 . S
C205 N204 1.351 . S
C205 C206 1.434 . S
C206 C197 1.429 . S
C206 N203 1.350 . S
C206 C205 1.434 . S
C207 C208 1.369 . S
C207 C209 1.419 . S
C207 H211 0.930 . S
C208 C207 1.369 . S
C208 C217 1.429 . S
C209 C207 1.419 . S
C209 C210 1.363 . S
C209 H212 0.929 . S
C210 C209 1.363 . S
C210 C216 1.428 . S
H211 C207 0.930 . S
H212 C209 0.929 . S
S213 N214 1.613 . S
S213 N215 1.610 . S
N214 S213 1.613 . S
N214 C217 1.350 . S
N215 S213 1.610 . S
N215 C216 1.351 . S
C216 C210 1.428 . S
C216 N215 1.351 . S
C216 C217 1.434 . S
C217 C208 1.429 . S
C217 N214 1.350 . S
C217 C216 1.434 . S
C218 C219 1.369 . S
C218 C220 1.419 . S
C218 H222 0.930 . S
C219 C218 1.369 . S
C219 C228 1.429 . S
C220 C218 1.419 . S
C220 C221 1.363 . S
C220 H223 0.929 . S
C221 C220 1.363 . S
C221 C227 1.428 . S
H222 C218 0.930 . S
H223 C220 0.929 . S
S224 N225 1.613 . S
S224 N226 1.610 . S
N225 S224 1.613 . S
N225 C228 1.350 . S
N226 S224 1.610 . S
N226 C227 1.351 . S
C227 C221 1.428 . S
C227 N226 1.351 . S
C227 C228 1.434 . S
C228 C219 1.429 . S
C228 N225 1.350 . S
C228 C227 1.434 . S
C229 C230 1.369 . S
C229 C231 1.419 . S
C229 H233 0.930 . S
C230 C229 1.369 . S
C230 C239 1.429 . S
C231 C229 1.419 . S
C231 C232 1.363 . S
C231 H234 0.929 . S
C232 C231 1.363 . S
C232 C238 1.428 . S
H233 C229 0.930 . S
H234 C231 0.929 . S
S235 N236 1.613 . S
S235 N237 1.610 . S
N236 S235 1.613 . S
N236 C239 1.350 . S
N237 S235 1.610 . S
N237 C238 1.351 . S
C238 C232 1.428 . S
C238 N237 1.351 . S
C238 C239 1.434 . S
C239 C230 1.429 . S
C239 N236 1.350 . S
C239 C238 1.434 . S
C240 C241 1.369 . S
C240 C242 1.419 . S
C240 H244 0.930 . S
C241 C240 1.369 . S
C241 C250 1.429 . S
C242 C240 1.419 . S
C242 C243 1.363 . S
C242 H245 0.929 . S
C243 C242 1.363 . S
C243 C249 1.428 . S
H244 C240 0.930 . S
H245 C242 0.929 . S
S246 N247 1.613 . S
S246 N248 1.610 . S
N247 S246 1.613 . S
N247 C250 1.350 . S
N248 S246 1.610 . S
N248 C249 1.351 . S
C249 C243 1.428 . S
C249 N248 1.351 . S
C249 C250 1.434 . S
C250 C241 1.429 . S
C250 N247 1.350 . S
C250 C249 1.434 . S
C251 C252 1.369 . S
C251 C253 1.419 . S
C251 H255 0.930 . S
C252 C251 1.369 . S
C252 C261 1.429 . S
C253 C251 1.419 . S
C253 C254 1.363 . S
C253 H256 0.929 . S
C254 C253 1.363 . S
C254 C260 1.428 . S
H255 C251 0.930 . S
H256 C253 0.929 . S
S257 N258 1.613 . S
S257 N259 1.610 . S
N258 S257 1.613 . S
N258 C261 1.350 . S
N259 S257 1.610 . S
N259 C260 1.351 . S
C260 C254 1.428 . S
C260 N259 1.351 . S
C260 C261 1.434 . S
C261 C252 1.429 . S
C261 N258 1.350 . S
C261 C260 1.434 . S
C262 C263 1.369 . S
C262 C264 1.419 . S
C262 H266 0.930 . S
C263 C262 1.369 . S
C263 C272 1.429 . S
C264 C262 1.419 . S
C264 C265 1.363 . S
C264 H267 0.929 . S
C265 C264 1.363 . S
C265 C271 1.428 . S
H266 C262 0.930 . S
H267 C264 0.929 . S
S268 N269 1.613 . S
S268 N270 1.610 . S
N269 S268 1.613 . S
N269 C272 1.350 . S
N270 S268 1.610 . S
N270 C271 1.351 . S
C271 C265 1.428 . S
C271 N270 1.351 . S
C271 C272 1.434 . S
C272 C263 1.429 . S
C272 N269 1.350 . S
C272 C271 1.434 . S
C273 C274 1.369 . S
C273 C275 1.419 . S
C273 H277 0.930 . S
C274 C273 1.369 . S
C274 C283 1.429 . S
C275 C273 1.419 . S
C275 C276 1.363 . S
C275 H278 0.929 . S
C276 C275 1.363 . S
C276 C282 1.428 . S
H277 C273 0.930 . S
H278 C275 0.929 . S
S279 N280 1.613 . S
S279 N281 1.610 . S
N280 S279 1.613 . S
N280 C283 1.350 . S
N281 S279 1.610 . S
N281 C282 1.351 . S
C282 C276 1.428 . S
C282 N281 1.351 . S
C282 C283 1.434 . S
C283 C274 1.429 . S
C283 N280 1.350 . S
C283 C282 1.434 . S
C284 C285 1.369 . S
C284 C286 1.419 . S
C284 H288 0.930 . S
C285 C284 1.369 . S
C285 C294 1.429 . S
C286 C284 1.419 . S
C286 C287 1.363 . S
C286 H289 0.929 . S
C287 C286 1.363 . S
C287 C293 1.428 . S
H288 C284 0.930 . S
H289 C286 0.929 . S
S290 N291 1.613 . S
S290 N292 1.610 . S
N291 S290 1.613 . S
N291 C294 1.350 . S
N292 S290 1.610 . S
N292 C293 1.351 . S
C293 C287 1.428 . S
C293 N292 1.351 . S
C293 C294 1.434 . S
C294 C285 1.429 . S
C294 N291 1.350 . S
C294 C293 1.434 . S
C295 C296 1.369 . S
C295 C297 1.419 . S
C295 H299 0.930 . S
C296 C295 1.369 . S
C296 C305 1.429 . S
C297 C295 1.419 . S
C297 C298 1.363 . S
C297 H300 0.929 . S
C298 C297 1.363 . S
C298 C304 1.428 . S
H299 C295 0.930 . S
H300 C297 0.929 . S
S301 N302 1.613 . S
S301 N303 1.610 . S
N302 S301 1.613 . S
N302 C305 1.350 . S
N303 S301 1.610 . S
N303 C304 1.351 . S
C304 C298 1.428 . S
C304 N303 1.351 . S
C304 C305 1.434 . S
C305 C296 1.429 . S
C305 N302 1.350 . S
C305 C304 1.434 . S
C306 C307 1.369 1_655 S
C306 C308 1.419 1_554 S
C306 H310 0.930 . S
C307 C306 1.369 1_455 S
C307 C316 1.429 . S
C308 C306 1.419 1_556 S
C308 C309 1.363 1_655 S
C308 H311 0.929 . S
C309 C308 1.363 1_455 S
C309 C315 1.428 1_556 S
H310 C306 0.930 . S
H311 C308 0.929 . S
S312 N313 1.613 . S
S312 N314 1.610 1_554 S
N313 S312 1.613 . S
N313 C316 1.350 . S
N314 S312 1.610 1_556 S
N314 C315 1.351 1_556 S
C315 C309 1.428 1_554 S
C315 N314 1.351 1_554 S
C315 C316 1.434 . S
C316 C307 1.429 . S
C316 N313 1.350 . S
C316 C315 1.434 . S
C317 C318 1.369 . S
C317 C319 1.419 . S
C317 H321 0.930 . S
C318 C317 1.369 . S
C318 C327 1.429 . S
C319 C317 1.419 . S
C319 C320 1.363 . S
C319 H322 0.929 . S
C320 C319 1.363 . S
C320 C326 1.428 . S
H321 C317 0.930 . S
H322 C319 0.929 . S
S323 N324 1.613 . S
S323 N325 1.610 . S
N324 S323 1.613 . S
N324 C327 1.350 . S
N325 S323 1.610 . S
N325 C326 1.351 . S
C326 C320 1.428 . S
C326 N325 1.351 . S
C326 C327 1.434 . S
C327 C318 1.429 . S
C327 N324 1.350 . S
C327 C326 1.434 . S
C328 C329 1.369 . S
C328 C330 1.419 . S
C328 H332 0.930 . S
C329 C328 1.369 . S
C329 C338 1.429 . S
C330 C328 1.419 . S
C330 C331 1.363 . S
C330 H333 0.929 . S
C331 C330 1.363 . S
C331 C337 1.428 . S
H332 C328 0.930 . S
H333 C330 0.929 . S
S334 N335 1.613 . S
S334 N336 1.610 . S
N335 S334 1.613 . S
N335 C338 1.350 . S
N336 S334 1.610 . S
N336 C337 1.351 . S
C337 C331 1.428 . S
C337 N336 1.351 . S
C337 C338 1.434 . S
C338 C329 1.429 . S
C338 N335 1.350 . S
C338 C337 1.434 . S
C339 C340 1.369 . S
C339 C341 1.419 . S
C339 H343 0.930 1_545 S
C340 C339 1.369 . S
C340 C349 1.429 . S
C341 C339 1.419 . S
C341 C342 1.363 . S
C341 H344 0.929 1_545 S
C342 C341 1.363 . S
C342 C348 1.428 . S
H343 C339 0.930 1_565 S
H344 C341 0.929 1_565 S
S345 N346 1.613 . S
S345 N347 1.610 . S
N346 S345 1.613 . S
N346 C349 1.350 . S
N347 S345 1.610 . S
N347 C348 1.351 . S
C348 C342 1.428 . S
C348 N347 1.351 . S
C348 C349 1.434 . S
C349 C340 1.429 . S
C349 N346 1.350 . S
C349 C348 1.434 . S
C350 C351 1.369 . S
C350 C352 1.419 1_556 S
C350 H354 0.930 . S
C351 C350 1.369 . S
C351 C360 1.429 . S
C352 C350 1.419 1_554 S
C352 C353 1.363 . S
C352 H355 0.929 . S
C353 C352 1.363 . S
C353 C359 1.428 . S
H354 C350 0.930 . S
H355 C352 0.929 . S
S356 N357 1.613 . S
S356 N358 1.610 1_556 S
N357 S356 1.613 . S
N357 C360 1.350 . S
N358 S356 1.610 1_554 S
N358 C359 1.351 . S
C359 C353 1.428 . S
C359 N358 1.351 . S
C359 C360 1.434 1_554 S
C360 C351 1.429 . S
C360 N357 1.350 . S
C360 C359 1.434 1_556 S
C361 C362 1.369 . S
C361 C363 1.419 . S
C361 H365 0.930 . S
C362 C361 1.369 . S
C362 C371 1.429 . S
C363 C361 1.419 . S
C363 C364 1.363 . S
C363 H366 0.929 . S
C364 C363 1.363 . S
C364 C370 1.428 . S
H365 C361 0.930 . S
H366 C363 0.929 . S
S367 N368 1.613 . S
S367 N369 1.610 . S
N368 S367 1.613 . S
N368 C371 1.350 . S
N369 S367 1.610 . S
N369 C370 1.351 . S
C370 C364 1.428 . S
C370 N369 1.351 . S
C370 C371 1.434 . S
C371 C362 1.429 . S
C371 N368 1.350 . S
C371 C370 1.434 . S
C175 C2 1.540 . S
C177 C166 1.557 . S
C186 C22 1.531 . S
C188 C128 1.554 . S
C197 C44 1.552 . S
C199 C147 1.574 . S
C208 C4 1.440 . S
C210 C161 1.540 . S
C221 C123 1.541 . S
C219 C24 1.454 . S
C232 C142 1.519 . S
C230 C42 1.424 . S
C241 C32 1.499 . S
C243 C90 1.416 . S
C252 C49 1.190 . S
C254 C104 1.214 . S
C263 C9 1.187 . S
C265 C66 1.213 . S
C276 C85 1.257 . S
C274 C29 1.190 . S
C287 C109 1.393 . S
C285 C52 1.380 . S
C296 C12 1.388 . S
C298 C71 1.380 . S
C309 C100 1.531 . S
C307 C18 1.549 . S
C318 C38 1.517 . S
C320 C62 1.504 . S
C329 C58 1.494 . S
C331 C81 1.531 . S
C342 C138 1.545 . S
C340 C39 1.534 . S
C353 C157 1.553 . S
C351 C59 1.553 . S
C362 C19 1.536 . S
C364 C119 1.569 . S
