# Generated by pormake.
# Topology pyr, (3,6)-cn, num edge types: 1
# Building blocks:
#     Node 0, Type 0, BuildingBlock: BELTOD_clean_linker_0, # of connection points: 3
#     Node 1, Type 0, BuildingBlock: BELTOD_clean_linker_0, # of connection points: 3
#     Node 2, Type 0, BuildingBlock: BELTOD_clean_linker_0, # of connection points: 3
#     Node 3, Type 0, BuildingBlock: BELTOD_clean_linker_0, # of connection points: 3
#     Node 4, Type 0, BuildingBlock: BELTOD_clean_linker_0, # of connection points: 3
#     Node 5, Type 0, BuildingBlock: BELTOD_clean_linker_0, # of connection points: 3
#     Node 6, Type 0, BuildingBlock: BELTOD_clean_linker_0, # of connection points: 3
#     Node 7, Type 0, BuildingBlock: BELTOD_clean_linker_0, # of connection points: 3
#     Node 8, Type 1, BuildingBlock: BETFEN_clean_sbu_0, # of connection points: 6
#     Node 9, Type 1, BuildingBlock: BETFEN_clean_sbu_0, # of connection points: 6
#     Node 10, Type 1, BuildingBlock: BETFEN_clean_sbu_0, # of connection points: 6
#     Node 11, Type 1, BuildingBlock: BETFEN_clean_sbu_0, # of connection points: 6
#     Edge 12, Type (0, 1), BuildingBlock: OJICUG_clean_linker_0, # of connection points: 2
#     Edge 13, Type (0, 1), BuildingBlock: OJICUG_clean_linker_0, # of connection points: 2
#     Edge 14, Type (0, 1), BuildingBlock: OJICUG_clean_linker_0, # of connection points: 2
#     Edge 15, Type (0, 1), BuildingBlock: OJICUG_clean_linker_0, # of connection points: 2
#     Edge 16, Type (0, 1), BuildingBlock: OJICUG_clean_linker_0, # of connection points: 2
#     Edge 17, Type (0, 1), BuildingBlock: OJICUG_clean_linker_0, # of connection points: 2
#     Edge 18, Type (0, 1), BuildingBlock: OJICUG_clean_linker_0, # of connection points: 2
#     Edge 19, Type (0, 1), BuildingBlock: OJICUG_clean_linker_0, # of connection points: 2
#     Edge 20, Type (0, 1), BuildingBlock: OJICUG_clean_linker_0, # of connection points: 2
#     Edge 21, Type (0, 1), BuildingBlock: OJICUG_clean_linker_0, # of connection points: 2
#     Edge 22, Type (0, 1), BuildingBlock: OJICUG_clean_linker_0, # of connection points: 2
#     Edge 23, Type (0, 1), BuildingBlock: OJICUG_clean_linker_0, # of connection points: 2
#     Edge 24, Type (0, 1), BuildingBlock: OJICUG_clean_linker_0, # of connection points: 2
#     Edge 25, Type (0, 1), BuildingBlock: OJICUG_clean_linker_0, # of connection points: 2
#     Edge 26, Type (0, 1), BuildingBlock: OJICUG_clean_linker_0, # of connection points: 2
#     Edge 27, Type (0, 1), BuildingBlock: OJICUG_clean_linker_0, # of connection points: 2
#     Edge 28, Type (0, 1), BuildingBlock: OJICUG_clean_linker_0, # of connection points: 2
#     Edge 29, Type (0, 1), BuildingBlock: OJICUG_clean_linker_0, # of connection points: 2
#     Edge 30, Type (0, 1), BuildingBlock: OJICUG_clean_linker_0, # of connection points: 2
#     Edge 31, Type (0, 1), BuildingBlock: OJICUG_clean_linker_0, # of connection points: 2
#     Edge 32, Type (0, 1), BuildingBlock: OJICUG_clean_linker_0, # of connection points: 2
#     Edge 33, Type (0, 1), BuildingBlock: OJICUG_clean_linker_0, # of connection points: 2
#     Edge 34, Type (0, 1), BuildingBlock: OJICUG_clean_linker_0, # of connection points: 2
#     Edge 35, Type (0, 1), BuildingBlock: OJICUG_clean_linker_0, # of connection points: 2
# Relax obj value: 0.190
# Max RMSD: 0.273
# Mean RMSD: 0.131
data_MOF--net-pyr--node1-BETFEN_clean_sbu_0--node2-BELTOD_clean_linker_0--edge1-OJICUG_clean_linker_0
_symmetry_space_group_name_H-M    P1
_symmetry_Int_Tables_number       1
_symmetry_cell_setting            triclinic
loop_
_symmetry_equiv_pos_as_xyz
'x, y, z'
_cell_length_a     32.132501
_cell_length_b     36.457817
_cell_length_c     32.406713
_cell_angle_alpha  91.651147
_cell_angle_beta   100.01798
_cell_angle_gamma 112.54822
loop_
_atom_site_label
_atom_site_type_symbol
_atom_site_fract_x
_atom_site_fract_y
_atom_site_fract_z
_atom_type_partial_charge
P0 P 0.48299 0.40533 0.33924 0.0
H1 H 0.55548 0.38468 0.31199 0.0
H2 H 0.55187 0.32471 0.27216 0.0
H3 H 0.4055 0.26947 0.26768 0.0
H4 H 0.40924 0.32917 0.30642 0.0
H5 H 0.46257 0.47722 0.34647 0.0
H6 H 0.40619 0.49629 0.30151 0.0
H7 H 0.39356 0.40924 0.20169 0.0
H8 H 0.44684 0.38869 0.2472 0.0
H9 H 0.4846 0.34686 0.39786 0.0
H10 H 0.40815 0.42112 0.37023 0.0
O11 O 0.53649 0.43662 0.361 0.0
H12 H 0.42984 0.30872 0.43947 0.0
H13 H 0.35485 0.38442 0.41307 0.0
C14 C 0.48268 0.36122 0.31226 0.0
C15 C 0.52277 0.35953 0.30254 0.0
C16 C 0.52066 0.32524 0.27995 0.0
C17 C 0.47831 0.29249 0.26651 0.0
C18 C 0.43849 0.29437 0.27694 0.0
C19 C 0.44067 0.32836 0.29945 0.0
C20 C 0.4562 0.42942 0.30157 0.0
C21 C 0.44781 0.46247 0.31476 0.0
C22 C 0.41594 0.47368 0.2888 0.0
C23 C 0.3937 0.45297 0.24861 0.0
C24 C 0.40822 0.42439 0.23325 0.0
C25 C 0.43889 0.41253 0.25955 0.0
C26 C 0.45037 0.3865 0.37981 0.0
C27 C 0.45697 0.3559 0.40171 0.0
C28 C 0.42563 0.33414 0.4258 0.0
C29 C 0.38726 0.34296 0.4289 0.0
C30 C 0.38336 0.37619 0.41042 0.0
C31 C 0.4144 0.39758 0.38589 0.0
P32 P 0.29582 0.87114 0.67266 0.0
H33 H 0.39003 0.91333 0.71785 0.0
H34 H 0.42616 0.92417 0.79217 0.0
H35 H 0.2956 0.85179 0.82293 0.0
H36 H 0.25943 0.84083 0.74785 0.0
H37 H 0.3279 0.85477 0.59791 0.0
H38 H 0.35476 0.80331 0.5805 0.0
H39 H 0.29834 0.73835 0.68078 0.0
H40 H 0.27144 0.79012 0.6981 0.0
H41 H 0.25525 0.90884 0.72517 0.0
H42 H 0.2164 0.84298 0.60227 0.0
O43 O 0.32831 0.91003 0.65071 0.0
H44 H 0.19018 0.92761 0.70909 0.0
H45 H 0.15189 0.86382 0.58494 0.0
C46 C 0.32185 0.87741 0.72759 0.0
C47 C 0.3691 0.89978 0.74049 0.0
C48 C 0.3898 0.90557 0.78296 0.0
C49 C 0.3636 0.88884 0.81333 0.0
C50 C 0.31642 0.86531 0.8002 0.0
C51 C 0.29581 0.85915 0.75745 0.0
C52 C 0.29853 0.82671 0.64989 0.0
C53 C 0.31988 0.82884 0.6153 0.0
C54 C 0.33521 0.79928 0.60529 0.0
C55 C 0.32952 0.7672 0.62987 0.0
C56 C 0.30398 0.76315 0.66182 0.0
C57 C 0.28834 0.79262 0.67157 0.0
C58 C 0.24008 0.87338 0.66538 0.0
C59 C 0.23163 0.89683 0.69531 0.0
C60 C 0.19463 0.90821 0.68582 0.0
C61 C 0.16621 0.89766 0.64558 0.0
C62 C 0.17287 0.87206 0.61641 0.0
C63 C 0.20975 0.86014 0.62625 0.0
P64 P 0.65061 0.31232 0.81612 0.0
H65 H 0.71296 0.28802 0.8734 0.0
H66 H 0.78081 0.32449 0.92853 0.0
H67 H 0.76633 0.43492 0.90257 0.0
H68 H 0.69736 0.39828 0.84875 0.0
H69 H 0.58534 0.22942 0.78899 0.0
H70 H 0.55427 0.17334 0.82999 0.0
H71 H 0.60069 0.25514 0.9431 0.0
H72 H 0.63066 0.31118 0.90187 0.0
H73 H 0.69893 0.36914 0.76333 0.0
H74 H 0.56581 0.33045 0.79687 0.0
O75 O 0.66839 0.28725 0.78418 0.0
H76 H 0.68113 0.41605 0.71901 0.0
H77 H 0.54732 0.37791 0.75188 0.0
C78 C 0.70051 0.34041 0.8564 0.0
C79 C 0.72423 0.32006 0.87971 0.0
C80 C 0.76269 0.3408 0.91138 0.0
C81 C 0.77859 0.38241 0.91972 0.0
C82 C 0.75469 0.4028 0.89658 0.0
C83 C 0.71549 0.38187 0.86556 0.0
C84 C 0.61087 0.27475 0.84216 0.0
C85 C 0.58728 0.23558 0.82231 0.0
C86 C 0.56985 0.20336 0.84595 0.0
C87 C 0.57605 0.20956 0.89009 0.0
C88 C 0.59626 0.24915 0.90934 0.0
C89 C 0.61291 0.28137 0.88557 0.0
C90 C 0.63381 0.34621 0.78358 0.0
C91 C 0.66568 0.3708 0.76116 0.0
C92 C 0.65557 0.39797 0.73594 0.0
C93 C 0.61288 0.40122 0.73188 0.0
C94 C 0.5805 0.37617 0.75406 0.0
C95 C 0.591 0.34906 0.77992 0.0
P96 P 0.84931 0.67432 0.31782 0.0
H97 H 0.82691 0.74518 0.31357 0.0
H98 H 0.86513 0.81338 0.34694 0.0
H99 H 0.97843 0.78608 0.40966 0.0
H100 H 0.9405 0.71801 0.37399 0.0
H101 H 0.91572 0.70777 0.26348 0.0
H102 H 0.94863 0.67834 0.21594 0.0
H103 H 0.886 0.56386 0.26162 0.0
H104 H 0.85287 0.5937 0.30911 0.0
H105 H 0.85978 0.68712 0.41093 0.0
H106 H 0.76714 0.59951 0.30953 0.0
O107 O 0.80839 0.67487 0.2786 0.0
H108 H 0.80794 0.65734 0.45855 0.0
H109 H 0.71465 0.56969 0.35701 0.0
C110 C 0.8811 0.72631 0.34039 0.0
C111 C 0.86041 0.75392 0.33386 0.0
C112 C 0.8822 0.79314 0.35372 0.0
C113 C 0.9252 0.80602 0.38155 0.0
C114 C 0.94587 0.77808 0.38802 0.0
C115 C 0.92415 0.73885 0.36764 0.0
C116 C 0.88262 0.65348 0.2911 0.0
C117 C 0.90993 0.67653 0.26419 0.0
C118 C 0.92828 0.65939 0.23634 0.0
C119 C 0.92 0.6184 0.23429 0.0
C120 C 0.89369 0.59552 0.26225 0.0
C121 C 0.87481 0.61269 0.28981 0.0
C122 C 0.81776 0.64579 0.35617 0.0
C123 C 0.82875 0.66101 0.39884 0.0
C124 C 0.79853 0.64409 0.4262 0.0
C125 C 0.75631 0.61128 0.41185 0.0
C126 C 0.7467 0.5947 0.36965 0.0
C127 C 0.77694 0.61176 0.34227 0.0
P128 P 0.67157 0.68506 0.7464 0.0
H129 H 0.68988 0.707 0.83618 0.0
H130 H 0.66425 0.748 0.87765 0.0
H131 H 0.56038 0.74163 0.76999 0.0
H132 H 0.58596 0.69983 0.72878 0.0
H133 H 0.72371 0.64374 0.71845 0.0
H134 H 0.74526 0.5922 0.74763 0.0
H135 H 0.644 0.56907 0.82641 0.0
H136 H 0.62243 0.62163 0.79639 0.0
H137 H 0.66052 0.75177 0.7076 0.0
H138 H 0.6585 0.63768 0.66527 0.0
O139 O 0.72643 0.71629 0.7628 0.0
H140 H 0.67082 0.77433 0.63942 0.0
H141 H 0.67181 0.66127 0.59699 0.0
C142 C 0.64079 0.70153 0.77908 0.0
C143 C 0.66056 0.71328 0.82188 0.0
C144 C 0.64578 0.7367 0.84561 0.0
C145 C 0.61096 0.74881 0.8268 0.0
C146 C 0.58797 0.73345 0.78505 0.0
C147 C 0.60251 0.70954 0.76147 0.0
C148 C 0.67154 0.63664 0.75521 0.0
C149 C 0.70423 0.62619 0.74027 0.0
C150 C 0.71661 0.59637 0.75723 0.0
C151 C 0.69714 0.57683 0.79026 0.0
C152 C 0.66042 0.58413 0.80168 0.0
C153 C 0.64787 0.61408 0.78439 0.0
C154 C 0.65889 0.69308 0.69193 0.0
C155 C 0.66013 0.73078 0.68305 0.0
C156 C 0.66617 0.74375 0.64375 0.0
C157 C 0.67271 0.71974 0.61286 0.0
C158 C 0.66734 0.68055 0.62037 0.0
C159 C 0.66008 0.6672 0.65962 0.0
P160 P 0.83847 0.27386 0.35485 0.0
H161 H 0.84972 0.33867 0.41696 0.0
H162 H 0.79417 0.35745 0.44556 0.0
H163 H 0.68378 0.25107 0.37752 0.0
H164 H 0.73918 0.23161 0.35165 0.0
H165 H 0.92358 0.26665 0.34762 0.0
H166 H 0.9587 0.22155 0.37555 0.0
H167 H 0.85602 0.17746 0.45233 0.0
H168 H 0.82067 0.22252 0.42364 0.0
H169 H 0.80779 0.29089 0.26975 0.0
H170 H 0.7947 0.1871 0.33582 0.0
O171 O 0.87555 0.31677 0.34283 0.0
H172 H 0.75359 0.2474 0.20795 0.0
H173 H 0.74066 0.14414 0.27487 0.0
C174 C 0.79871 0.28419 0.38149 0.0
C175 C 0.81359 0.31913 0.40892 0.0
C176 C 0.78165 0.33002 0.42483 0.0
C177 C 0.73415 0.30621 0.41331 0.0
C178 C 0.71987 0.27015 0.3875 0.0
C179 C 0.75182 0.25909 0.37218 0.0
C180 C 0.87014 0.24849 0.38421 0.0
C181 C 0.90947 0.24815 0.37143 0.0
C182 C 0.92942 0.22221 0.38732 0.0
C183 C 0.91003 0.19573 0.416 0.0
C184 C 0.87146 0.19717 0.4299 0.0
C185 C 0.85162 0.22332 0.41404 0.0
C186 C 0.80599 0.24223 0.30706 0.0
C187 C 0.79418 0.25883 0.27063 0.0
C188 C 0.76318 0.23409 0.23553 0.0
C189 C 0.74296 0.19261 0.23702 0.0
C190 C 0.75566 0.17609 0.27318 0.0
C191 C 0.78699 0.20067 0.30786 0.0
P192 P 0.4523 0.69265 0.22268 0.0
H193 H 0.40112 0.62226 0.16014 0.0
H194 H 0.32069 0.59252 0.12271 0.0
H195 H 0.29088 0.67785 0.19437 0.0
H196 H 0.37151 0.70806 0.23112 0.0
H197 H 0.50894 0.77561 0.26696 0.0
H198 H 0.52933 0.84213 0.24072 0.0
H199 H 0.45096 0.78579 0.11714 0.0
H200 H 0.43144 0.72089 0.14297 0.0
H201 H 0.38813 0.65229 0.27846 0.0
H202 H 0.53498 0.70396 0.2865 0.0
O203 O 0.48187 0.67294 0.19847 0.0
H204 H 0.39802 0.61813 0.34007 0.0
H205 H 0.54499 0.66969 0.34942 0.0
C206 C 0.39222 0.66737 0.19843 0.0
C207 C 0.37728 0.63441 0.16806 0.0
C208 C 0.33142 0.61751 0.1466 0.0
C209 C 0.29978 0.63299 0.15568 0.0
C210 C 0.31455 0.66519 0.18704 0.0
C211 C 0.36051 0.68247 0.20794 0.0
C212 C 0.46765 0.74311 0.2073 0.0
C213 C 0.49589 0.77781 0.23441 0.0
C214 C 0.50763 0.81578 0.21924 0.0
C215 C 0.49111 0.81957 0.17682 0.0
C216 C 0.46334 0.78449 0.15014 0.0
C217 C 0.45218 0.74707 0.16503 0.0
C218 C 0.46084 0.68112 0.27717 0.0
C219 C 0.42279 0.65761 0.29399 0.0
C220 C 0.42838 0.63752 0.32939 0.0
C221 C 0.4722 0.6405 0.34937 0.0
C222 C 0.5107 0.6667 0.33484 0.0
C223 C 0.50502 0.6866 0.29895 0.0
P224 P 0.19692 0.36434 0.76041 0.0
H225 H 0.22555 0.31286 0.71282 0.0
H226 H 0.18598 0.24883 0.67017 0.0
H227 H 0.05699 0.24275 0.69846 0.0
H228 H 0.0972 0.30845 0.73961 0.0
H229 H 0.28602 0.4332 0.77837 0.0
H230 H 0.34022 0.46711 0.73364 0.0
H231 H 0.23811 0.40263 0.62313 0.0
H232 H 0.18395 0.36918 0.66802 0.0
H233 H 0.14399 0.33137 0.8253 0.0
H234 H 0.18488 0.4415 0.76809 0.0
O235 O 0.23557 0.35633 0.79645 0.0
H236 H 0.11416 0.35986 0.87671 0.0
H237 H 0.15482 0.47035 0.81941 0.0
C238 C 0.16455 0.31582 0.72947 0.0
C239 C 0.18865 0.29785 0.70979 0.0
C240 C 0.16582 0.26071 0.68556 0.0
C241 C 0.11791 0.23972 0.68064 0.0
C242 C 0.09373 0.25783 0.70073 0.0
C243 C 0.11675 0.29547 0.72472 0.0
C244 C 0.23083 0.39814 0.72689 0.0
C245 C 0.27474 0.42714 0.74448 0.0
C246 C 0.3059 0.44651 0.71871 0.0
C247 C 0.29407 0.4372 0.67458 0.0
C248 C 0.24893 0.41005 0.65694 0.0
C249 C 0.21763 0.39107 0.68272 0.0
C250 C 0.16608 0.38378 0.79196 0.0
C251 C 0.14569 0.36148 0.82313 0.0
C252 C 0.12912 0.37812 0.85309 0.0
C253 C 0.13215 0.41776 0.85289 0.0
C254 C 0.15138 0.4397 0.82071 0.0
C255 C 0.1685 0.4231 0.79099 0.0
Pr256 Pr 0.97549 1.0087 0.53129 0.0
Pr257 Pr 0.06381 0.04762 0.50818 0.0
C258 C 0.89335 0.95846 0.54492 0.0
C259 C 0.86286 0.91564 0.5403 0.0
C260 C 0.87161 0.88969 0.56844 0.0
C261 C 0.83924 0.85068 0.56693 0.0
C262 C 0.79742 0.83681 0.53732 0.0
C263 C 0.79005 0.86207 0.50757 0.0
C264 C 0.82236 0.90112 0.50916 0.0
C265 C 1.02437 0.08521 0.57673 0.0
C266 C 0.06095 0.986 0.57584 0.0
C267 C 0.14357 0.09367 0.48651 0.0
C268 C 0.17381 0.13522 0.48249 0.0
C269 C 0.17816 0.14727 0.44219 0.0
C270 C 0.20999 0.18491 0.43738 0.0
C271 C 0.23847 0.21134 0.47279 0.0
C272 C 0.23342 0.1997 0.51321 0.0
C273 C 0.20133 0.16199 0.51805 0.0
C274 C 1.01573 0.96918 0.46724 0.0
C275 C 0.98237 0.07846 0.47178 0.0
O276 O 0.89885 0.97527 0.51016 0.0
O277 O 0.93083 0.97156 0.57422 0.0
O278 O 0.04198 0.0606 0.56954 0.0
O279 O 0.98041 0.06975 0.56238 0.0
O280 O 0.0871 0.02165 0.56779 0.0
O281 O 1.01667 0.97044 0.559 0.0
O282 O 0.14069 0.08287 0.52437 0.0
O283 O 0.1046 0.07738 0.45938 0.0
O284 O 0.99788 0.99426 0.47142 0.0
O285 O 0.05936 0.98489 0.4829 0.0
O286 O 0.95397 0.04288 0.47782 0.0
O287 O 0.02682 0.09002 0.48602 0.0
H288 H 0.9025 0.89993 0.59277 0.0
H289 H 0.84582 0.83233 0.59081 0.0
H290 H 0.75841 0.85221 0.48418 0.0
H291 H 0.81477 0.92048 0.487 0.0
H292 H 0.15789 0.12708 0.41426 0.0
H293 H 0.21357 0.19261 0.40579 0.0
H294 H 0.25471 0.21952 0.54106 0.0
H295 H 0.19893 0.15353 0.54958 0.0
Pr296 Pr 0.50028 0.02509 0.05451 0.0
Pr297 Pr 0.57393 1.01424 1.02849 0.0
C298 C 0.44493 0.04101 0.09942 0.0
C299 C 0.4479 0.07733 0.12366 0.0
C300 C 0.44039 0.1083 0.10298 0.0
C301 C 0.44592 0.14343 0.12596 0.0
C302 C 0.45904 0.14846 0.17014 0.0
C303 C 0.46595 0.1173 0.19086 0.0
C304 C 0.46026 0.08206 0.16788 0.0
C305 C 0.52939 0.07481 0.99131 0.0
C306 C 0.60686 0.08213 0.10301 0.0
C307 C 0.62972 0.99716 0.98524 0.0
C308 C 0.62503 0.95977 0.96283 0.0
C309 C 0.59277 0.9231 0.9706 0.0
C310 C 0.58666 0.88759 0.94796 0.0
C311 C 0.61233 0.88823 0.91683 0.0
C312 C 0.64445 0.92512 0.90904 0.0
C313 C 0.65075 0.96061 0.93191 0.0
C314 C 0.54314 0.96433 0.09131 0.0
C315 C 0.46865 0.95976 0.97626 0.0
O316 O 0.47399 0.02544 0.11497 0.0
O317 O 0.4393 0.04071 0.05849 0.0
O318 O 0.55614 0.07006 1.02238 0.0
O319 O 0.48688 0.05284 0.99177 0.0
O320 O 0.61931 0.07411 0.06863 0.0
O321 O 0.56445 0.06236 0.10804 0.0
O322 O 0.6005 1.01212 0.96859 0.0
O323 O 0.63501 0.99823 1.02622 0.0
O324 O 0.51728 0.96927 0.05969 0.0
O325 O 0.58587 0.98655 0.09189 0.0
O326 O 0.45367 0.96796 1.00908 0.0
O327 O 0.51208 0.97813 0.97403 0.0
H328 H 0.43084 0.10575 0.06896 0.0
H329 H 0.4407 0.16699 0.10901 0.0
H330 H 0.47536 0.12 0.22491 0.0
H331 H 0.46601 0.05864 0.18471 0.0
H332 H 0.57202 0.92201 0.99394 0.0
H333 H 0.56138 0.85971 0.95436 0.0
H334 H 0.6651 0.92649 0.88558 0.0
H335 H 0.67547 0.9887 0.92529 0.0
Pr336 Pr 0.54769 0.56708 0.57599 0.0
Pr337 Pr 0.51425 0.47981 0.52667 0.0
C338 C 0.55123 0.63826 0.60518 0.0
C339 C 0.51655 0.65454 0.60874 0.0
C340 C 0.52814 0.68888 0.63614 0.0
C341 C 0.4952 0.70435 0.63993 0.0
C342 C 0.45018 0.68589 0.61597 0.0
C343 C 0.43874 0.65149 0.58836 0.0
C344 C 0.4716 0.6358 0.58497 0.0
C345 C 0.57598 0.5128 0.61957 0.0
C346 C 0.44238 0.49579 0.57994 0.0
C347 C 0.51365 0.40661 0.51292 0.0
C348 C 0.5378 0.38789 0.49092 0.0
C349 C 0.5622 0.40711 0.4605 0.0
C350 C 0.59107 0.39211 0.44477 0.0
C351 C 0.59699 0.35825 0.46009 0.0
C352 C 0.5712 0.33857 0.48973 0.0
C353 C 0.54177 0.35318 0.5048 0.0
C354 C 0.49229 0.5309 0.47147 0.0
C355 C 0.6137 0.55328 0.51376 0.0
O356 O 0.5553 0.63031 0.56682 0.0
O357 O 0.55243 0.61064 0.62969 0.0
O358 O 0.53717 0.50528 0.59637 0.0
O359 O 0.60234 0.5507 0.62189 0.0
O360 O 0.45112 0.46864 0.55904 0.0
O361 O 0.47091 0.53411 0.58616 0.0
O362 O 0.53997 0.43224 0.5452 0.0
O363 O 0.48399 0.41836 0.49008 0.0
O364 O 0.51179 0.53911 0.5098 0.0
O365 O 0.48056 0.49303 0.46044 0.0
O366 O 0.60459 0.57991 0.53516 0.0
O367 O 0.58805 0.5144 0.51077 0.0
H368 H 0.5627 0.70384 0.65441 0.0
H369 H 0.50518 0.73118 0.66106 0.0
H370 H 0.40427 0.63652 0.56974 0.0
H371 H 0.462 0.60909 0.56372 0.0
H372 H 0.55986 0.43426 0.4498 0.0
H373 H 0.60945 0.40759 0.42129 0.0
H374 H 0.57522 0.3129 0.50291 0.0
H375 H 0.52372 0.3384 0.52883 0.0
Pr376 Pr 1.02303 0.54714 1.01578 0.0
Pr377 Pr 0.04356 0.49346 0.07945 0.0
C378 C 0.98272 0.58406 0.9616 0.0
C379 C 0.93547 0.57452 0.93819 0.0
C380 C 0.91318 0.59961 0.94579 0.0
C381 C 0.86815 0.59075 0.92481 0.0
C382 C 0.84407 0.55628 0.89597 0.0
C383 C 0.86644 0.531 0.88864 0.0
C384 C 0.91181 0.54026 0.90917 0.0
C385 C 0.11381 0.57772 0.06039 0.0
C386 C 0.99183 0.54868 0.11044 0.0
C387 C 0.08475 0.45766 0.13424 0.0
C388 C 0.13088 0.45772 0.14678 0.0
C389 C 0.13687 0.42865 0.17149 0.0
C390 C 0.18076 0.42931 0.18537 0.0
C391 C 0.21953 0.45916 0.17482 0.0
C392 C 0.21341 0.48841 0.15003 0.0
C393 C 0.16929 0.48753 0.13588 0.0
C394 C 0.95306 0.46207 0.03375 0.0
C395 C 0.06759 0.48754 0.98287 0.0
O396 O 1.00424 0.56278 0.95005 0.0
O397 O 0.9896 0.59129 1.00248 0.0
O398 O 0.07873 0.56049 0.07558 0.0
O399 O 0.10271 0.58324 1.02134 0.0
O400 O 1.01712 0.52842 0.12361 0.0
O401 O 0.9845 0.55502 0.07018 0.0
O402 O 0.08111 0.49112 0.14415 0.0
O403 O 0.06174 0.44074 0.09657 0.0
O404 O 0.98849 0.48022 1.01937 0.0
O405 O 0.96371 0.45588 0.07274 0.0
O406 O 0.03855 0.50458 0.97057 0.0
O407 O 0.08076 0.48556 1.0237 0.0
H408 H 0.93079 0.62635 0.96776 0.0
H409 H 0.85282 0.61172 0.93042 0.0
H410 H 0.84909 0.50419 0.86681 0.0
H411 H 0.92826 0.52055 0.90216 0.0
H412 H 0.10762 0.40566 0.18043 0.0
H413 H 0.18444 0.40674 0.20498 0.0
H414 H 0.24257 0.51161 0.14123 0.0
H415 H 0.16513 0.51019 0.11667 0.0
C416 C 0.35658 0.29348 0.48005 0.0
C417 C 0.34852 0.31432 0.44577 0.0
H418 H 0.32799 0.24447 0.51556 0.0
C419 C 0.303 0.30408 0.42414 0.0
H420 H 0.39114 0.30097 0.49772 0.0
C421 C 0.26687 0.27214 0.43468 0.0
C422 C 0.27534 0.2495 0.46694 0.0
H423 H 0.29541 0.31912 0.39731 0.0
H424 H 0.23246 0.26411 0.41636 0.0
C425 C 0.32032 0.26137 0.49054 0.0
C426 C 0.42958 0.89814 0.87174 0.0
C427 C 0.38568 0.89826 0.85851 0.0
H428 H 0.49 0.91704 0.92013 0.0
C429 C 0.36597 0.9124 0.88751 0.0
H430 H 0.44517 0.88664 0.85031 0.0
C431 C 0.3916 0.92962 0.92783 0.0
C432 C 0.43718 0.93297 0.93933 0.0
H433 H 0.33215 0.91285 0.87804 0.0
H434 H 0.37707 0.94299 0.94859 0.0
C435 C 0.45513 0.91543 0.91172 0.0
C436 C 0.55974 0.41963 0.67683 0.0
C437 C 0.60269 0.43034 0.7041 0.0
H438 H 0.51791 0.4368 0.62859 0.0
C439 C 0.63673 0.46872 0.70332 0.0
H440 H 0.53282 0.39034 0.67615 0.0
C441 C 0.62825 0.49537 0.67591 0.0
C442 C 0.58556 0.48436 0.64824 0.0
H443 H 0.67004 0.47831 0.72416 0.0
H444 H 0.65519 0.52463 0.67641 0.0
C445 C 0.55135 0.4462 0.64922 0.0
C446 C 0.93671 0.61093 0.16093 0.0
C447 C 0.9376 0.59973 0.20235 0.0
H448 H 0.95198 0.6037 0.09989 0.0
C449 C 0.9556 0.57067 0.2127 0.0
H450 H 0.92267 0.6327 0.15121 0.0
C451 C 0.97284 0.55412 0.1831 0.0
C452 C 0.97207 0.56547 0.14176 0.0
H453 H 0.95728 0.56123 0.2441 0.0
H454 H 0.9869 0.53234 0.19276 0.0
C455 C 0.95332 0.59397 0.13118 0.0
C456 C 0.50703 0.2392 0.25163 0.0
C457 C 0.47488 0.25654 0.24105 0.0
H458 H 0.5273 0.19142 0.2375 0.0
C459 C 0.4382 0.23855 0.20652 0.0
H460 H 0.53549 0.25225 0.27821 0.0
C461 C 0.43328 0.20369 0.18352 0.0
C462 C 0.46494 0.18592 0.19443 0.0
H463 H 0.41315 0.25144 0.19724 0.0
H464 H 0.40415 0.19027 0.15759 0.0
C465 C 0.50202 0.20415 0.22863 0.0
C466 C 0.09152 0.8987 0.60646 0.0
C467 C 0.13536 0.91862 0.63218 0.0
H468 H 0.03265 0.9045 0.56905 0.0
C469 C 0.15187 0.96015 0.64242 0.0
H470 H 0.07792 0.86673 0.59814 0.0
C471 C 0.12627 0.98156 0.62586 0.0
C472 C 0.08338 0.96202 0.59883 0.0
H473 H 0.18578 0.97659 0.66154 0.0
H474 H 0.1409 1.01373 0.63303 0.0
C475 C 0.06551 0.92024 0.59017 0.0
C476 C 0.82837 0.39364 0.9917 0.0
C477 C 0.82173 0.40461 0.95058 0.0
H478 H 0.87523 0.40397 0.05103 0.0
C479 C 0.85769 0.43555 0.93801 0.0
H480 H 0.80101 0.3698 1.00203 0.0
C481 C 0.9 0.45442 0.96557 0.0
C482 C 0.907 0.44328 1.00647 0.0
H483 H 0.85363 0.44409 0.9063 0.0
H484 H 0.92772 0.47724 0.95465 0.0
C485 C 0.87063 0.41317 1.01966 0.0
C486 C 0.71508 0.62235 0.46836 0.0
C487 C 0.72161 0.59589 0.43995 0.0
H488 H 0.67679 0.63011 0.51356 0.0
C489 C 0.69344 0.55491 0.43772 0.0
H490 H 0.73535 0.65414 0.47082 0.0
C491 C 0.65955 0.54102 0.46241 0.0
C492 C 0.65244 0.56764 0.4901 0.0
H493 H 0.69748 0.53337 0.41677 0.0
H494 H 0.63833 0.50935 0.45913 0.0
C495 C 0.68109 0.6085 0.49289 0.0
C496 C 0.3137 0.4216 0.20604 0.0
C497 C 0.35128 0.45642 0.22551 0.0
H498 H 0.24343 0.39543 0.17423 0.0
C499 C 0.34606 0.49303 0.22559 0.0
H500 H 0.31592 0.3927 0.20598 0.0
C501 C 0.30374 0.49441 0.20769 0.0
C502 C 0.26587 0.45916 0.1898 0.0
H503 H 0.37434 0.52043 0.24011 0.0
H504 H 0.30017 0.52276 0.20928 0.0
C505 C 0.27173 0.42299 0.18833 0.0
C506 C 0.59527 0.17452 0.95239 0.0
C507 C 0.5641 0.17493 0.91609 0.0
H508 H 0.60944 0.14245 1.00404 0.0
C509 C 0.52218 0.14154 0.90433 0.0
H510 H 0.62816 0.19945 0.96208 0.0
C511 C 0.51135 0.10907 0.92858 0.0
C512 C 0.54247 0.10868 0.96482 0.0
H513 H 0.49736 0.14079 0.87667 0.0
H514 H 0.47843 0.08415 0.91892 0.0
C515 C 0.58477 0.14168 0.97624 0.0
C516 C 0.92207 0.86936 0.41443 0.0
C517 C 0.94808 0.84815 0.4035 0.0
H518 H 0.92251 0.92386 0.44259 0.0
C519 C 0.99639 0.86785 0.41363 0.0
H520 H 0.8849 0.85541 0.40822 0.0
C521 C 1.01779 0.90689 0.43404 0.0
C522 C 0.99181 0.92799 0.44457 0.0
H523 H 1.01803 0.8534 0.40534 0.0
H524 H 0.05502 0.9207 0.44134 0.0
C525 C 0.94361 0.90875 0.43442 0.0
C526 C 0.35895 0.72784 0.58627 0.0
C527 C 0.35555 0.7417 0.62597 0.0
H528 H 0.39147 0.69913 0.55199 0.0
C529 C 0.38131 0.7347 0.66232 0.0
H530 H 0.33948 0.73276 0.55773 0.0
C531 C 0.41116 0.71573 0.65905 0.0
C532 C 0.4157 0.70305 0.61936 0.0
H533 H 0.38 0.7455 0.69337 0.0
H534 H 0.43132 0.71157 0.6876 0.0
C535 C 0.38853 0.70848 0.583 0.0
C536 C 0.68338 0.76871 0.55922 0.0
C537 C 0.69545 0.73928 0.57867 0.0
H538 H 0.70665 0.82317 0.53092 0.0
C539 C 0.73683 0.73646 0.57391 0.0
H540 H 0.65135 0.77115 0.56182 0.0
C541 C 0.76857 0.76617 0.55588 0.0
C542 C 0.75935 0.79906 0.54234 0.0
H543 H 0.74709 0.714 0.58833 0.0
H544 H 0.80186 0.76522 0.55596 0.0
C545 C 0.71515 0.79849 0.54135 0.0
C546 C 0.66489 0.13997 0.20981 0.0
C547 C 0.70715 0.16639 0.20189 0.0
H548 H 0.59969 0.09292 0.18451 0.0
C549 C 0.71546 0.16644 0.16083 0.0
H550 H 0.65765 0.13977 0.24126 0.0
C551 C 0.68256 0.13929 0.1284 0.0
C552 C 0.64062 0.11223 0.13652 0.0
H553 H 0.74789 0.1866 0.15413 0.0
H554 H 0.69013 0.13929 0.09711 0.0
C555 C 0.63175 0.11332 0.17734 0.0
C556 C 0.5094 0.62738 0.4202 0.0
C557 C 0.47679 0.61331 0.38213 0.0
H558 H 0.53919 0.6126 0.47885 0.0
C559 C 0.44869 0.57222 0.3747 0.0
H560 H 0.53158 0.6588 0.42693 0.0
C561 C 0.45348 0.54584 0.40399 0.0
C562 C 0.48587 0.55982 0.44203 0.0
H563 H 0.42356 0.56025 0.3456 0.0
H564 H 0.43182 0.51433 0.39672 0.0
C565 C 0.51351 0.60098 0.45006 0.0
C566 C 0.09276 0.46144 0.87644 0.0
C567 C 0.11615 0.4361 0.88645 0.0
H568 H 0.05904 0.49686 0.89808 0.0
C569 C 0.12398 0.42839 0.92899 0.0
H570 H 0.08559 0.46804 0.84425 0.0
C571 C 0.109 0.44532 0.96022 0.0
C572 C 0.08507 0.4702 0.95002 0.0
H573 H 0.14229 0.40952 0.9384 0.0
H574 H 0.11584 0.43854 0.99238 0.0
C575 C 0.07725 0.47791 0.90752 0.0
C576 C 0.60288 0.81437 0.82738 0.0
C577 C 0.60378 0.78158 0.84875 0.0
H578 H 0.6048 0.87373 0.83215 0.0
C579 C 0.60376 0.78293 0.89215 0.0
H580 H 0.60347 0.8145 0.79407 0.0
C581 C 0.60484 0.81703 0.91402 0.0
C582 C 0.60638 0.85058 0.89299 0.0
H583 H 0.60432 0.75807 0.90942 0.0
H584 H 0.60647 0.81776 0.94772 0.0
C585 C 0.60432 0.84854 0.84929 0.0
C586 C 0.89878 0.1259 0.43181 0.0
C587 C 0.92866 0.16549 0.42961 0.0
H588 H 0.89217 0.06721 0.44605 0.0
C589 C 0.97637 0.17564 0.43938 0.0
H590 H 0.86185 0.11691 0.42371 0.0
C591 C 0.99379 0.14705 0.45177 0.0
C592 C 0.9639 0.10761 0.45461 0.0
H593 H 1.00032 0.20591 0.4382 0.0
H594 H 0.03074 0.15612 0.4599 0.0
C595 C 0.91619 0.09728 0.44413 0.0
C596 C 0.21473 0.60623 0.15197 0.0
C597 C 0.25197 0.61701 0.13125 0.0
H598 H 0.14158 0.58481 0.14558 0.0
C599 C 0.24343 0.61422 0.08701 0.0
H600 H 0.22049 0.60793 0.18604 0.0
C601 C 0.19846 0.60173 0.06391 0.0
C602 C 0.16127 0.59119 0.08466 0.0
H603 H 0.27165 0.62265 0.07037 0.0
H604 H 0.19277 0.6002 1.02985 0.0
C605 C 0.16972 0.59307 0.12885 0.0
C606 C 0.36198 0.49339 0.65522 0.0
C607 C 0.32951 0.45356 0.64758 0.0
H608 H 0.42198 0.53815 0.63959 0.0
C609 C 0.33277 0.42868 0.61524 0.0
H610 H 0.36048 0.51361 0.67951 0.0
C611 C 0.36828 0.4427 0.5924 0.0
C612 C 0.40146 0.48223 0.60076 0.0
H613 H 0.30886 0.39775 0.60859 0.0
H614 H 0.37027 0.42215 0.56876 0.0
C615 C 0.39719 0.50757 0.632 0.0
C616 C 0.74834 0.53893 0.80189 0.0
C617 C 0.7227 0.5575 0.81831 0.0
H618 H 0.80772 0.52497 0.81318 0.0
C619 C 0.73069 0.5662 0.86226 0.0
H620 H 0.74226 0.5307 0.76835 0.0
C621 C 0.76759 0.56185 0.88829 0.0
C622 C 0.79774 0.54935 0.8709 0.0
H623 H 0.71159 0.58021 0.8764 0.0
H624 H 0.7745 0.57122 0.92167 0.0
C625 C 0.78587 0.53536 0.82782 0.0
C626 C 0.54874 0.88836 0.1685 0.0
C627 C 0.50346 0.8592 0.1591 0.0
H628 H 0.59674 0.94422 0.15453 0.0
C629 C 0.47062 0.86678 0.12958 0.0
H630 H 0.57505 0.8836 0.19076 0.0
C631 C 0.48308 0.90146 0.10869 0.0
C632 C 0.52877 0.92962 0.11664 0.0
H633 H 0.43523 0.84543 0.12195 0.0
H634 H 0.4571 0.90564 0.08544 0.0
C635 C 0.56124 0.92305 0.14747 0.0
C636 C 0.11604 0.17313 0.65146 0.0
C637 C 0.09373 0.1996 0.65442 0.0
H638 H 0.1123 0.11693 0.6247 0.0
C639 C 0.04836 0.1875 0.63133 0.0
H640 H 0.15056 0.18055 0.66909 0.0
C641 C 0.02622 0.15052 0.60642 0.0
C642 C 0.04869 0.12442 0.60342 0.0
H643 H 0.02996 0.20688 0.63176 0.0
H644 H 0.99141 0.14254 0.58908 0.0
C645 C 0.09399 0.13629 0.62614 0.0
C646 C 0.70677 0.36026 0.42917 0.0
C647 C 0.69942 0.31958 0.42628 0.0
H648 H 0.68112 0.40437 0.4427 0.0
C649 C 0.65773 0.2917 0.4341 0.0
H650 H 0.73798 0.38264 0.42268 0.0
C651 C 0.62419 0.30406 0.44402 0.0
C652 C 0.63168 0.34477 0.44724 0.0
H653 H 0.65088 0.26016 0.43276 0.0
H654 H 0.59227 0.28153 0.449 0.0
C655 C 0.67354 0.3727 0.43979 0.0
loop_
_geom_bond_atom_site_label_1
_geom_bond_atom_site_label_2
_geom_bond_distance
_geom_bond_site_symmetry_2
_ccdc_geom_bond_type
P0 O11 1.490 . S
P0 C14 1.812 . S
P0 C20 1.803 . S
P0 C26 1.819 . S
H1 C15 0.941 . S
H2 C16 0.939 . S
H3 C18 0.940 . S
H4 C19 0.940 . S
H5 C21 0.939 . S
H6 C22 0.942 . S
H7 C24 0.940 . S
H8 C25 0.939 . S
H9 C27 0.941 . S
H10 C31 0.939 . S
O11 P0 1.490 . S
H12 C28 0.939 . S
H13 C30 0.940 . S
C14 P0 1.812 . S
C14 C15 1.389 . S
C14 C19 1.391 . S
C15 H1 0.941 . S
C15 C14 1.389 . S
C15 C16 1.397 . S
C16 H2 0.939 . S
C16 C15 1.397 . S
C16 C17 1.378 . S
C17 C16 1.378 . S
C17 C18 1.378 . S
C18 H3 0.940 . S
C18 C17 1.378 . S
C18 C19 1.396 . S
C19 H4 0.940 . S
C19 C14 1.391 . S
C19 C18 1.396 . S
C20 P0 1.803 . S
C20 C21 1.378 . S
C20 C25 1.400 . S
C21 H5 0.939 . S
C21 C20 1.378 . S
C21 C22 1.361 . S
C22 H6 0.942 . S
C22 C21 1.361 . S
C22 C23 1.369 . S
C23 C22 1.369 . S
C23 C24 1.404 . S
C24 H7 0.940 . S
C24 C23 1.404 . S
C24 C25 1.389 . S
C25 H8 0.939 . S
C25 C20 1.400 . S
C25 C24 1.389 . S
C26 P0 1.819 . S
C26 C27 1.391 . S
C26 C31 1.391 . S
C27 H9 0.941 . S
C27 C26 1.391 . S
C27 C28 1.396 . S
C28 H12 0.939 . S
C28 C27 1.396 . S
C28 C29 1.397 . S
C29 C28 1.397 . S
C29 C30 1.385 . S
C30 H13 0.940 . S
C30 C29 1.385 . S
C30 C31 1.388 . S
C31 H10 0.939 . S
C31 C26 1.391 . S
C31 C30 1.388 . S
P32 O43 1.490 . S
P32 C46 1.812 . S
P32 C52 1.803 . S
P32 C58 1.819 . S
H33 C47 0.941 . S
H34 C48 0.939 . S
H35 C50 0.940 . S
H36 C51 0.940 . S
H37 C53 0.939 . S
H38 C54 0.942 . S
H39 C56 0.940 . S
H40 C57 0.939 . S
H41 C59 0.941 . S
H42 C63 0.939 . S
O43 P32 1.490 . S
H44 C60 0.939 . S
H45 C62 0.940 . S
C46 P32 1.812 . S
C46 C47 1.389 . S
C46 C51 1.391 . S
C47 H33 0.941 . S
C47 C46 1.389 . S
C47 C48 1.397 . S
C48 H34 0.939 . S
C48 C47 1.397 . S
C48 C49 1.378 . S
C49 C48 1.378 . S
C49 C50 1.378 . S
C50 H35 0.940 . S
C50 C49 1.378 . S
C50 C51 1.396 . S
C51 H36 0.940 . S
C51 C46 1.391 . S
C51 C50 1.396 . S
C52 P32 1.803 . S
C52 C53 1.378 . S
C52 C57 1.400 . S
C53 H37 0.939 . S
C53 C52 1.378 . S
C53 C54 1.361 . S
C54 H38 0.942 . S
C54 C53 1.361 . S
C54 C55 1.369 . S
C55 C54 1.369 . S
C55 C56 1.404 . S
C56 H39 0.940 . S
C56 C55 1.404 . S
C56 C57 1.389 . S
C57 H40 0.939 . S
C57 C52 1.400 . S
C57 C56 1.389 . S
C58 P32 1.819 . S
C58 C59 1.391 . S
C58 C63 1.391 . S
C59 H41 0.941 . S
C59 C58 1.391 . S
C59 C60 1.396 . S
C60 H44 0.939 . S
C60 C59 1.396 . S
C60 C61 1.397 . S
C61 C60 1.397 . S
C61 C62 1.385 . S
C62 H45 0.940 . S
C62 C61 1.385 . S
C62 C63 1.388 . S
C63 H42 0.939 . S
C63 C58 1.391 . S
C63 C62 1.388 . S
P64 O75 1.490 . S
P64 C78 1.812 . S
P64 C84 1.803 . S
P64 C90 1.819 . S
H65 C79 0.941 . S
H66 C80 0.939 . S
H67 C82 0.940 . S
H68 C83 0.940 . S
H69 C85 0.939 . S
H70 C86 0.942 . S
H71 C88 0.940 . S
H72 C89 0.939 . S
H73 C91 0.941 . S
H74 C95 0.939 . S
O75 P64 1.490 . S
H76 C92 0.939 . S
H77 C94 0.940 . S
C78 P64 1.812 . S
C78 C79 1.389 . S
C78 C83 1.391 . S
C79 H65 0.941 . S
C79 C78 1.389 . S
C79 C80 1.397 . S
C80 H66 0.939 . S
C80 C79 1.397 . S
C80 C81 1.378 . S
C81 C80 1.378 . S
C81 C82 1.378 . S
C82 H67 0.940 . S
C82 C81 1.378 . S
C82 C83 1.396 . S
C83 H68 0.940 . S
C83 C78 1.391 . S
C83 C82 1.396 . S
C84 P64 1.803 . S
C84 C85 1.378 . S
C84 C89 1.400 . S
C85 H69 0.939 . S
C85 C84 1.378 . S
C85 C86 1.361 . S
C86 H70 0.942 . S
C86 C85 1.361 . S
C86 C87 1.369 . S
C87 C86 1.369 . S
C87 C88 1.404 . S
C88 H71 0.940 . S
C88 C87 1.404 . S
C88 C89 1.389 . S
C89 H72 0.939 . S
C89 C84 1.400 . S
C89 C88 1.389 . S
C90 P64 1.819 . S
C90 C91 1.391 . S
C90 C95 1.391 . S
C91 H73 0.941 . S
C91 C90 1.391 . S
C91 C92 1.396 . S
C92 H76 0.939 . S
C92 C91 1.396 . S
C92 C93 1.397 . S
C93 C92 1.397 . S
C93 C94 1.385 . S
C94 H77 0.940 . S
C94 C93 1.385 . S
C94 C95 1.388 . S
C95 H74 0.939 . S
C95 C90 1.391 . S
C95 C94 1.388 . S
P96 O107 1.490 . S
P96 C110 1.812 . S
P96 C116 1.803 . S
P96 C122 1.819 . S
H97 C111 0.941 . S
H98 C112 0.939 . S
H99 C114 0.940 . S
H100 C115 0.940 . S
H101 C117 0.939 . S
H102 C118 0.942 . S
H103 C120 0.940 . S
H104 C121 0.939 . S
H105 C123 0.941 . S
H106 C127 0.939 . S
O107 P96 1.490 . S
H108 C124 0.939 . S
H109 C126 0.940 . S
C110 P96 1.812 . S
C110 C111 1.389 . S
C110 C115 1.391 . S
C111 H97 0.941 . S
C111 C110 1.389 . S
C111 C112 1.397 . S
C112 H98 0.939 . S
C112 C111 1.397 . S
C112 C113 1.378 . S
C113 C112 1.378 . S
C113 C114 1.378 . S
C114 H99 0.940 . S
C114 C113 1.378 . S
C114 C115 1.396 . S
C115 H100 0.940 . S
C115 C110 1.391 . S
C115 C114 1.396 . S
C116 P96 1.803 . S
C116 C117 1.378 . S
C116 C121 1.400 . S
C117 H101 0.939 . S
C117 C116 1.378 . S
C117 C118 1.361 . S
C118 H102 0.942 . S
C118 C117 1.361 . S
C118 C119 1.369 . S
C119 C118 1.369 . S
C119 C120 1.404 . S
C120 H103 0.940 . S
C120 C119 1.404 . S
C120 C121 1.389 . S
C121 H104 0.939 . S
C121 C116 1.400 . S
C121 C120 1.389 . S
C122 P96 1.819 . S
C122 C123 1.391 . S
C122 C127 1.391 . S
C123 H105 0.941 . S
C123 C122 1.391 . S
C123 C124 1.396 . S
C124 H108 0.939 . S
C124 C123 1.396 . S
C124 C125 1.397 . S
C125 C124 1.397 . S
C125 C126 1.385 . S
C126 H109 0.940 . S
C126 C125 1.385 . S
C126 C127 1.388 . S
C127 H106 0.939 . S
C127 C122 1.391 . S
C127 C126 1.388 . S
P128 O139 1.490 . S
P128 C142 1.812 . S
P128 C148 1.803 . S
P128 C154 1.819 . S
H129 C143 0.941 . S
H130 C144 0.939 . S
H131 C146 0.940 . S
H132 C147 0.940 . S
H133 C149 0.939 . S
H134 C150 0.942 . S
H135 C152 0.940 . S
H136 C153 0.939 . S
H137 C155 0.941 . S
H138 C159 0.939 . S
O139 P128 1.490 . S
H140 C156 0.939 . S
H141 C158 0.940 . S
C142 P128 1.812 . S
C142 C143 1.389 . S
C142 C147 1.391 . S
C143 H129 0.941 . S
C143 C142 1.389 . S
C143 C144 1.397 . S
C144 H130 0.939 . S
C144 C143 1.397 . S
C144 C145 1.378 . S
C145 C144 1.378 . S
C145 C146 1.378 . S
C146 H131 0.940 . S
C146 C145 1.378 . S
C146 C147 1.396 . S
C147 H132 0.940 . S
C147 C142 1.391 . S
C147 C146 1.396 . S
C148 P128 1.803 . S
C148 C149 1.378 . S
C148 C153 1.400 . S
C149 H133 0.939 . S
C149 C148 1.378 . S
C149 C150 1.361 . S
C150 H134 0.942 . S
C150 C149 1.361 . S
C150 C151 1.369 . S
C151 C150 1.369 . S
C151 C152 1.404 . S
C152 H135 0.940 . S
C152 C151 1.404 . S
C152 C153 1.389 . S
C153 H136 0.939 . S
C153 C148 1.400 . S
C153 C152 1.389 . S
C154 P128 1.819 . S
C154 C155 1.391 . S
C154 C159 1.391 . S
C155 H137 0.941 . S
C155 C154 1.391 . S
C155 C156 1.396 . S
C156 H140 0.939 . S
C156 C155 1.396 . S
C156 C157 1.397 . S
C157 C156 1.397 . S
C157 C158 1.385 . S
C158 H141 0.940 . S
C158 C157 1.385 . S
C158 C159 1.388 . S
C159 H138 0.939 . S
C159 C154 1.391 . S
C159 C158 1.388 . S
P160 O171 1.490 . S
P160 C174 1.812 . S
P160 C180 1.803 . S
P160 C186 1.819 . S
H161 C175 0.941 . S
H162 C176 0.939 . S
H163 C178 0.940 . S
H164 C179 0.940 . S
H165 C181 0.939 . S
H166 C182 0.942 . S
H167 C184 0.940 . S
H168 C185 0.939 . S
H169 C187 0.941 . S
H170 C191 0.939 . S
O171 P160 1.490 . S
H172 C188 0.939 . S
H173 C190 0.940 . S
C174 P160 1.812 . S
C174 C175 1.389 . S
C174 C179 1.391 . S
C175 H161 0.941 . S
C175 C174 1.389 . S
C175 C176 1.397 . S
C176 H162 0.939 . S
C176 C175 1.397 . S
C176 C177 1.378 . S
C177 C176 1.378 . S
C177 C178 1.378 . S
C178 H163 0.940 . S
C178 C177 1.378 . S
C178 C179 1.396 . S
C179 H164 0.940 . S
C179 C174 1.391 . S
C179 C178 1.396 . S
C180 P160 1.803 . S
C180 C181 1.378 . S
C180 C185 1.400 . S
C181 H165 0.939 . S
C181 C180 1.378 . S
C181 C182 1.361 . S
C182 H166 0.942 . S
C182 C181 1.361 . S
C182 C183 1.369 . S
C183 C182 1.369 . S
C183 C184 1.404 . S
C184 H167 0.940 . S
C184 C183 1.404 . S
C184 C185 1.389 . S
C185 H168 0.939 . S
C185 C180 1.400 . S
C185 C184 1.389 . S
C186 P160 1.819 . S
C186 C187 1.391 . S
C186 C191 1.391 . S
C187 H169 0.941 . S
C187 C186 1.391 . S
C187 C188 1.396 . S
C188 H172 0.939 . S
C188 C187 1.396 . S
C188 C189 1.397 . S
C189 C188 1.397 . S
C189 C190 1.385 . S
C190 H173 0.940 . S
C190 C189 1.385 . S
C190 C191 1.388 . S
C191 H170 0.939 . S
C191 C186 1.391 . S
C191 C190 1.388 . S
P192 O203 1.490 . S
P192 C206 1.812 . S
P192 C212 1.803 . S
P192 C218 1.819 . S
H193 C207 0.941 . S
H194 C208 0.939 . S
H195 C210 0.940 . S
H196 C211 0.940 . S
H197 C213 0.939 . S
H198 C214 0.942 . S
H199 C216 0.940 . S
H200 C217 0.939 . S
H201 C219 0.941 . S
H202 C223 0.939 . S
O203 P192 1.490 . S
H204 C220 0.939 . S
H205 C222 0.940 . S
C206 P192 1.812 . S
C206 C207 1.389 . S
C206 C211 1.391 . S
C207 H193 0.941 . S
C207 C206 1.389 . S
C207 C208 1.397 . S
C208 H194 0.939 . S
C208 C207 1.397 . S
C208 C209 1.378 . S
C209 C208 1.378 . S
C209 C210 1.378 . S
C210 H195 0.940 . S
C210 C209 1.378 . S
C210 C211 1.396 . S
C211 H196 0.940 . S
C211 C206 1.391 . S
C211 C210 1.396 . S
C212 P192 1.803 . S
C212 C213 1.378 . S
C212 C217 1.400 . S
C213 H197 0.939 . S
C213 C212 1.378 . S
C213 C214 1.361 . S
C214 H198 0.942 . S
C214 C213 1.361 . S
C214 C215 1.369 . S
C215 C214 1.369 . S
C215 C216 1.404 . S
C216 H199 0.940 . S
C216 C215 1.404 . S
C216 C217 1.389 . S
C217 H200 0.939 . S
C217 C212 1.400 . S
C217 C216 1.389 . S
C218 P192 1.819 . S
C218 C219 1.391 . S
C218 C223 1.391 . S
C219 H201 0.941 . S
C219 C218 1.391 . S
C219 C220 1.396 . S
C220 H204 0.939 . S
C220 C219 1.396 . S
C220 C221 1.397 . S
C221 C220 1.397 . S
C221 C222 1.385 . S
C222 H205 0.940 . S
C222 C221 1.385 . S
C222 C223 1.388 . S
C223 H202 0.939 . S
C223 C218 1.391 . S
C223 C222 1.388 . S
P224 O235 1.490 . S
P224 C238 1.812 . S
P224 C244 1.803 . S
P224 C250 1.819 . S
H225 C239 0.941 . S
H226 C240 0.939 . S
H227 C242 0.940 . S
H228 C243 0.940 . S
H229 C245 0.939 . S
H230 C246 0.942 . S
H231 C248 0.940 . S
H232 C249 0.939 . S
H233 C251 0.941 . S
H234 C255 0.939 . S
O235 P224 1.490 . S
H236 C252 0.939 . S
H237 C254 0.940 . S
C238 P224 1.812 . S
C238 C239 1.389 . S
C238 C243 1.391 . S
C239 H225 0.941 . S
C239 C238 1.389 . S
C239 C240 1.397 . S
C240 H226 0.939 . S
C240 C239 1.397 . S
C240 C241 1.378 . S
C241 C240 1.378 . S
C241 C242 1.378 . S
C242 H227 0.940 . S
C242 C241 1.378 . S
C242 C243 1.396 . S
C243 H228 0.940 . S
C243 C238 1.391 . S
C243 C242 1.396 . S
C244 P224 1.803 . S
C244 C245 1.378 . S
C244 C249 1.400 . S
C245 H229 0.939 . S
C245 C244 1.378 . S
C245 C246 1.361 . S
C246 H230 0.942 . S
C246 C245 1.361 . S
C246 C247 1.369 . S
C247 C246 1.369 . S
C247 C248 1.404 . S
C248 H231 0.940 . S
C248 C247 1.404 . S
C248 C249 1.389 . S
C249 H232 0.939 . S
C249 C244 1.400 . S
C249 C248 1.389 . S
C250 P224 1.819 . S
C250 C251 1.391 . S
C250 C255 1.391 . S
C251 H233 0.941 . S
C251 C250 1.391 . S
C251 C252 1.396 . S
C252 H236 0.939 . S
C252 C251 1.396 . S
C252 C253 1.397 . S
C253 C252 1.397 . S
C253 C254 1.385 . S
C254 H237 0.940 . S
C254 C253 1.385 . S
C254 C255 1.388 . S
C255 H234 0.939 . S
C255 C250 1.391 . S
C255 C254 1.388 . S
Pr256 C258 2.880 . S
Pr256 O276 2.562 . S
Pr256 O277 2.490 . S
Pr256 O278 2.695 1_665 S
Pr256 O279 2.512 1_665 S
Pr256 O281 2.437 1_655 S
Pr256 O284 2.436 . S
Pr256 O286 2.438 1_565 S
Pr257 C267 2.880 . S
Pr257 O278 2.436 . S
Pr257 O280 2.438 1_545 S
Pr257 O282 2.562 . S
Pr257 O283 2.490 . S
Pr257 O284 2.695 1_445 S
Pr257 O285 2.512 1_545 S
Pr257 O287 2.437 1_455 S
C258 Pr256 2.880 . S
C258 C259 1.491 . S
C258 O276 1.254 . S
C258 O277 1.225 . S
C259 C258 1.491 . S
C259 C260 1.392 . S
C259 C264 1.356 . S
C260 C259 1.392 . S
C260 C261 1.368 . S
C260 H288 0.929 . S
C261 C260 1.368 . S
C261 C262 1.386 . S
C261 H289 0.929 . S
C262 C261 1.386 . S
C262 C263 1.373 . S
C263 C262 1.373 . S
C263 C264 1.409 . S
C263 H290 0.931 . S
C264 C259 1.356 . S
C264 C263 1.409 . S
C264 H291 0.930 . S
C265 O278 1.270 . S
C265 O279 1.248 . S
C266 O280 1.267 . S
C266 O281 1.278 . S
C267 Pr257 2.880 . S
C267 C268 1.491 . S
C267 O282 1.254 . S
C267 O283 1.225 . S
C268 C267 1.491 . S
C268 C269 1.392 . S
C268 C273 1.356 . S
C269 C268 1.392 . S
C269 C270 1.368 . S
C269 H292 0.929 . S
C270 C269 1.368 . S
C270 C271 1.386 . S
C270 H293 0.929 . S
C271 C270 1.386 . S
C271 C272 1.373 . S
C272 C271 1.373 . S
C272 C273 1.409 . S
C272 H294 0.931 . S
C273 C268 1.356 . S
C273 C272 1.409 . S
C273 H295 0.930 . S
C274 O284 1.270 . S
C274 O285 1.248 1_655 S
C275 O286 1.267 . S
C275 O287 1.278 . S
O276 Pr256 2.562 . S
O276 C258 1.254 . S
O277 Pr256 2.490 . S
O277 C258 1.225 . S
O278 Pr256 2.695 1_445 S
O278 Pr257 2.436 . S
O278 C265 1.270 . S
O279 Pr256 2.512 1_445 S
O279 C265 1.248 . S
O280 Pr257 2.438 1_565 S
O280 C266 1.267 . S
O281 Pr256 2.437 1_455 S
O281 C266 1.278 . S
O282 Pr257 2.562 . S
O282 C267 1.254 . S
O283 Pr257 2.490 . S
O283 C267 1.225 . S
O284 Pr256 2.436 . S
O284 Pr257 2.695 1_665 S
O284 C274 1.270 . S
O285 Pr257 2.512 1_565 S
O285 C274 1.248 1_455 S
O286 Pr256 2.438 1_545 S
O286 C275 1.267 . S
O287 Pr257 2.437 1_655 S
O287 C275 1.278 . S
H288 C260 0.929 . S
H289 C261 0.929 . S
H290 C263 0.931 . S
H291 C264 0.930 . S
H292 C269 0.929 . S
H293 C270 0.929 . S
H294 C272 0.931 . S
H295 C273 0.930 . S
Pr296 C298 2.880 . S
Pr296 O316 2.562 . S
Pr296 O317 2.490 . S
Pr296 O318 2.695 1_554 S
Pr296 O319 2.512 1_554 S
Pr296 O321 2.437 . S
Pr296 O324 2.436 1_545 S
Pr296 O326 2.438 1_544 S
Pr297 C307 2.880 1_554 S
Pr297 O318 2.436 1_564 S
Pr297 O320 2.438 1_565 S
Pr297 O322 2.562 1_554 S
Pr297 O323 2.490 1_554 S
Pr297 O324 2.695 . S
Pr297 O325 2.512 . S
Pr297 O327 2.437 1_554 S
C298 Pr296 2.880 . S
C298 C299 1.491 . S
C298 O316 1.254 . S
C298 O317 1.225 . S
C299 C298 1.491 . S
C299 C300 1.392 . S
C299 C304 1.356 . S
C300 C299 1.392 . S
C300 C301 1.368 . S
C300 H328 0.929 . S
C301 C300 1.368 . S
C301 C302 1.386 . S
C301 H329 0.929 . S
C302 C301 1.386 . S
C302 C303 1.373 . S
C303 C302 1.373 . S
C303 C304 1.409 . S
C303 H330 0.931 . S
C304 C299 1.356 . S
C304 C303 1.409 . S
C304 H331 0.930 . S
C305 O318 1.270 . S
C305 O319 1.248 . S
C306 O320 1.267 . S
C306 O321 1.278 . S
C307 Pr297 2.880 1_556 S
C307 C308 1.491 . S
C307 O322 1.254 . S
C307 O323 1.225 . S
C308 C307 1.491 . S
C308 C309 1.392 . S
C308 C313 1.356 . S
C309 C308 1.392 . S
C309 C310 1.368 . S
C309 H332 0.929 . S
C310 C309 1.368 . S
C310 C311 1.386 . S
C310 H333 0.929 . S
C311 C310 1.386 . S
C311 C312 1.373 . S
C312 C311 1.373 . S
C312 C313 1.409 . S
C312 H334 0.931 . S
C313 C308 1.356 . S
C313 C312 1.409 . S
C313 H335 0.930 . S
C314 O324 1.270 . S
C314 O325 1.248 . S
C315 O326 1.267 . S
C315 O327 1.278 . S
O316 Pr296 2.562 . S
O316 C298 1.254 . S
O317 Pr296 2.490 . S
O317 C298 1.225 . S
O318 Pr296 2.695 1_556 S
O318 Pr297 2.436 1_546 S
O318 C305 1.270 . S
O319 Pr296 2.512 1_556 S
O319 C305 1.248 . S
O320 Pr297 2.438 1_545 S
O320 C306 1.267 . S
O321 Pr296 2.437 . S
O321 C306 1.278 . S
O322 Pr297 2.562 1_556 S
O322 C307 1.254 . S
O323 Pr297 2.490 1_556 S
O323 C307 1.225 . S
O324 Pr296 2.436 1_565 S
O324 Pr297 2.695 . S
O324 C314 1.270 . S
O325 Pr297 2.512 . S
O325 C314 1.248 . S
O326 Pr296 2.438 1_566 S
O326 C315 1.267 . S
O327 Pr297 2.437 1_556 S
O327 C315 1.278 . S
H328 C300 0.929 . S
H329 C301 0.929 . S
H330 C303 0.931 . S
H331 C304 0.930 . S
H332 C309 0.929 . S
H333 C310 0.929 . S
H334 C312 0.931 . S
H335 C313 0.930 . S
Pr336 C338 2.880 . S
Pr336 O356 2.562 . S
Pr336 O357 2.490 . S
Pr336 O358 2.695 . S
Pr336 O359 2.512 . S
Pr336 O361 2.437 . S
Pr336 O364 2.436 . S
Pr336 O366 2.438 . S
Pr337 C347 2.880 . S
Pr337 O358 2.436 . S
Pr337 O360 2.438 . S
Pr337 O362 2.562 . S
Pr337 O363 2.490 . S
Pr337 O364 2.695 . S
Pr337 O365 2.512 . S
Pr337 O367 2.437 . S
C338 Pr336 2.880 . S
C338 C339 1.491 . S
C338 O356 1.254 . S
C338 O357 1.225 . S
C339 C338 1.491 . S
C339 C340 1.392 . S
C339 C344 1.356 . S
C340 C339 1.392 . S
C340 C341 1.368 . S
C340 H368 0.929 . S
C341 C340 1.368 . S
C341 C342 1.386 . S
C341 H369 0.929 . S
C342 C341 1.386 . S
C342 C343 1.373 . S
C343 C342 1.373 . S
C343 C344 1.409 . S
C343 H370 0.931 . S
C344 C339 1.356 . S
C344 C343 1.409 . S
C344 H371 0.930 . S
C345 O358 1.270 . S
C345 O359 1.248 . S
C346 O360 1.267 . S
C346 O361 1.278 . S
C347 Pr337 2.880 . S
C347 C348 1.491 . S
C347 O362 1.254 . S
C347 O363 1.225 . S
C348 C347 1.491 . S
C348 C349 1.392 . S
C348 C353 1.356 . S
C349 C348 1.392 . S
C349 C350 1.368 . S
C349 H372 0.929 . S
C350 C349 1.368 . S
C350 C351 1.386 . S
C350 H373 0.929 . S
C351 C350 1.386 . S
C351 C352 1.373 . S
C352 C351 1.373 . S
C352 C353 1.409 . S
C352 H374 0.931 . S
C353 C348 1.356 . S
C353 C352 1.409 . S
C353 H375 0.930 . S
C354 O364 1.270 . S
C354 O365 1.248 . S
C355 O366 1.267 . S
C355 O367 1.278 . S
O356 Pr336 2.562 . S
O356 C338 1.254 . S
O357 Pr336 2.490 . S
O357 C338 1.225 . S
O358 Pr336 2.695 . S
O358 Pr337 2.436 . S
O358 C345 1.270 . S
O359 Pr336 2.512 . S
O359 C345 1.248 . S
O360 Pr337 2.438 . S
O360 C346 1.267 . S
O361 Pr336 2.437 . S
O361 C346 1.278 . S
O362 Pr337 2.562 . S
O362 C347 1.254 . S
O363 Pr337 2.490 . S
O363 C347 1.225 . S
O364 Pr336 2.436 . S
O364 Pr337 2.695 . S
O364 C354 1.270 . S
O365 Pr337 2.512 . S
O365 C354 1.248 . S
O366 Pr336 2.438 . S
O366 C355 1.267 . S
O367 Pr337 2.437 . S
O367 C355 1.278 . S
H368 C340 0.929 . S
H369 C341 0.929 . S
H370 C343 0.931 . S
H371 C344 0.930 . S
H372 C349 0.929 . S
H373 C350 0.929 . S
H374 C352 0.931 . S
H375 C353 0.930 . S
Pr376 C378 2.880 . S
Pr376 O396 2.562 . S
Pr376 O397 2.490 . S
Pr376 O398 2.695 1_656 S
Pr376 O399 2.512 1_656 S
Pr376 O401 2.437 1_556 S
Pr376 O404 2.436 . S
Pr376 O406 2.438 1_655 S
Pr377 C387 2.880 . S
Pr377 O398 2.436 . S
Pr377 O400 2.438 1_455 S
Pr377 O402 2.562 . S
Pr377 O403 2.490 . S
Pr377 O404 2.695 1_454 S
Pr377 O405 2.512 1_454 S
Pr377 O407 2.437 1_554 S
C378 Pr376 2.880 . S
C378 C379 1.491 . S
C378 O396 1.254 . S
C378 O397 1.225 . S
C379 C378 1.491 . S
C379 C380 1.392 . S
C379 C384 1.356 . S
C380 C379 1.392 . S
C380 C381 1.368 . S
C380 H408 0.929 . S
C381 C380 1.368 . S
C381 C382 1.386 . S
C381 H409 0.929 . S
C382 C381 1.386 . S
C382 C383 1.373 . S
C383 C382 1.373 . S
C383 C384 1.409 . S
C383 H410 0.931 . S
C384 C379 1.356 . S
C384 C383 1.409 . S
C384 H411 0.930 . S
C385 O398 1.270 . S
C385 O399 1.248 . S
C386 O400 1.267 . S
C386 O401 1.278 . S
C387 Pr377 2.880 . S
C387 C388 1.491 . S
C387 O402 1.254 . S
C387 O403 1.225 . S
C388 C387 1.491 . S
C388 C389 1.392 . S
C388 C393 1.356 . S
C389 C388 1.392 . S
C389 C390 1.368 . S
C389 H412 0.929 . S
C390 C389 1.368 . S
C390 C391 1.386 . S
C390 H413 0.929 . S
C391 C390 1.386 . S
C391 C392 1.373 . S
C392 C391 1.373 . S
C392 C393 1.409 . S
C392 H414 0.931 . S
C393 C388 1.356 . S
C393 C392 1.409 . S
C393 H415 0.930 . S
C394 O404 1.270 . S
C394 O405 1.248 . S
C395 O406 1.267 . S
C395 O407 1.278 . S
O396 Pr376 2.562 . S
O396 C378 1.254 . S
O397 Pr376 2.490 . S
O397 C378 1.225 . S
O398 Pr376 2.695 1_454 S
O398 Pr377 2.436 . S
O398 C385 1.270 . S
O399 Pr376 2.512 1_454 S
O399 C385 1.248 . S
O400 Pr377 2.438 1_655 S
O400 C386 1.267 . S
O401 Pr376 2.437 1_554 S
O401 C386 1.278 . S
O402 Pr377 2.562 . S
O402 C387 1.254 . S
O403 Pr377 2.490 . S
O403 C387 1.225 . S
O404 Pr376 2.436 . S
O404 Pr377 2.695 1_656 S
O404 C394 1.270 . S
O405 Pr377 2.512 1_656 S
O405 C394 1.248 . S
O406 Pr376 2.438 1_455 S
O406 C395 1.267 . S
O407 Pr377 2.437 1_556 S
O407 C395 1.278 . S
H408 C380 0.929 . S
H409 C381 0.929 . S
H410 C383 0.931 . S
H411 C384 0.930 . S
H412 C389 0.929 . S
H413 C390 0.929 . S
H414 C392 0.931 . S
H415 C393 0.930 . S
C416 C417 1.387 . S
C416 H420 0.950 . S
C416 C425 1.390 . S
C417 C416 1.387 . S
C417 C419 1.387 . S
H418 C425 0.950 . S
C419 C417 1.387 . S
C419 C421 1.390 . S
C419 H423 0.950 . S
H420 C416 0.950 . S
C421 C419 1.390 . S
C421 C422 1.387 . S
C421 H424 0.950 . S
C422 C421 1.387 . S
C422 C425 1.387 . S
H423 C419 0.950 . S
H424 C421 0.950 . S
C425 C416 1.390 . S
C425 H418 0.950 . S
C425 C422 1.387 . S
C426 C427 1.387 . S
C426 H430 0.950 . S
C426 C435 1.390 . S
C427 C426 1.387 . S
C427 C429 1.387 . S
H428 C435 0.950 . S
C429 C427 1.387 . S
C429 C431 1.390 . S
C429 H433 0.950 . S
H430 C426 0.950 . S
C431 C429 1.390 . S
C431 C432 1.387 . S
C431 H434 0.950 . S
C432 C431 1.387 . S
C432 C435 1.387 . S
H433 C429 0.950 . S
H434 C431 0.950 . S
C435 C426 1.390 . S
C435 H428 0.950 . S
C435 C432 1.387 . S
C436 C437 1.387 . S
C436 H440 0.950 . S
C436 C445 1.390 . S
C437 C436 1.387 . S
C437 C439 1.387 . S
H438 C445 0.950 . S
C439 C437 1.387 . S
C439 C441 1.390 . S
C439 H443 0.950 . S
H440 C436 0.950 . S
C441 C439 1.390 . S
C441 C442 1.387 . S
C441 H444 0.950 . S
C442 C441 1.387 . S
C442 C445 1.387 . S
H443 C439 0.950 . S
H444 C441 0.950 . S
C445 C436 1.390 . S
C445 H438 0.950 . S
C445 C442 1.387 . S
C446 C447 1.387 . S
C446 H450 0.950 . S
C446 C455 1.390 . S
C447 C446 1.387 . S
C447 C449 1.387 . S
H448 C455 0.950 . S
C449 C447 1.387 . S
C449 C451 1.390 . S
C449 H453 0.950 . S
H450 C446 0.950 . S
C451 C449 1.390 . S
C451 C452 1.387 . S
C451 H454 0.950 . S
C452 C451 1.387 . S
C452 C455 1.387 . S
H453 C449 0.950 . S
H454 C451 0.950 . S
C455 C446 1.390 . S
C455 H448 0.950 . S
C455 C452 1.387 . S
C456 C457 1.387 . S
C456 H460 0.950 . S
C456 C465 1.390 . S
C457 C456 1.387 . S
C457 C459 1.387 . S
H458 C465 0.950 . S
C459 C457 1.387 . S
C459 C461 1.390 . S
C459 H463 0.950 . S
H460 C456 0.950 . S
C461 C459 1.390 . S
C461 C462 1.387 . S
C461 H464 0.950 . S
C462 C461 1.387 . S
C462 C465 1.387 . S
H463 C459 0.950 . S
H464 C461 0.950 . S
C465 C456 1.390 . S
C465 H458 0.950 . S
C465 C462 1.387 . S
C466 C467 1.387 . S
C466 H470 0.950 . S
C466 C475 1.390 . S
C467 C466 1.387 . S
C467 C469 1.387 . S
H468 C475 0.950 . S
C469 C467 1.387 . S
C469 C471 1.390 . S
C469 H473 0.950 . S
H470 C466 0.950 . S
C471 C469 1.390 . S
C471 C472 1.387 . S
C471 H474 0.950 . S
C472 C471 1.387 . S
C472 C475 1.387 . S
H473 C469 0.950 . S
H474 C471 0.950 . S
C475 C466 1.390 . S
C475 H468 0.950 . S
C475 C472 1.387 . S
C476 C477 1.387 . S
C476 H480 0.950 . S
C476 C485 1.390 . S
C477 C476 1.387 . S
C477 C479 1.387 . S
H478 C485 0.950 . S
C479 C477 1.387 . S
C479 C481 1.390 . S
C479 H483 0.950 . S
H480 C476 0.950 . S
C481 C479 1.390 . S
C481 C482 1.387 . S
C481 H484 0.950 . S
C482 C481 1.387 . S
C482 C485 1.387 . S
H483 C479 0.950 . S
H484 C481 0.950 . S
C485 C476 1.390 . S
C485 H478 0.950 . S
C485 C482 1.387 . S
C486 C487 1.387 . S
C486 H490 0.950 . S
C486 C495 1.390 . S
C487 C486 1.387 . S
C487 C489 1.387 . S
H488 C495 0.950 . S
C489 C487 1.387 . S
C489 C491 1.390 . S
C489 H493 0.950 . S
H490 C486 0.950 . S
C491 C489 1.390 . S
C491 C492 1.387 . S
C491 H494 0.950 . S
C492 C491 1.387 . S
C492 C495 1.387 . S
H493 C489 0.950 . S
H494 C491 0.950 . S
C495 C486 1.390 . S
C495 H488 0.950 . S
C495 C492 1.387 . S
C496 C497 1.387 . S
C496 H500 0.950 . S
C496 C505 1.390 . S
C497 C496 1.387 . S
C497 C499 1.387 . S
H498 C505 0.950 . S
C499 C497 1.387 . S
C499 C501 1.390 . S
C499 H503 0.950 . S
H500 C496 0.950 . S
C501 C499 1.390 . S
C501 C502 1.387 . S
C501 H504 0.950 . S
C502 C501 1.387 . S
C502 C505 1.387 . S
H503 C499 0.950 . S
H504 C501 0.950 . S
C505 C496 1.390 . S
C505 H498 0.950 . S
C505 C502 1.387 . S
C506 C507 1.387 . S
C506 H510 0.950 . S
C506 C515 1.390 . S
C507 C506 1.387 . S
C507 C509 1.387 . S
H508 C515 0.950 . S
C509 C507 1.387 . S
C509 C511 1.390 . S
C509 H513 0.950 . S
H510 C506 0.950 . S
C511 C509 1.390 . S
C511 C512 1.387 . S
C511 H514 0.950 . S
C512 C511 1.387 . S
C512 C515 1.387 . S
H513 C509 0.950 . S
H514 C511 0.950 . S
C515 C506 1.390 . S
C515 H508 0.950 . S
C515 C512 1.387 . S
C516 C517 1.387 . S
C516 H520 0.950 . S
C516 C525 1.390 . S
C517 C516 1.387 . S
C517 C519 1.387 . S
H518 C525 0.950 . S
C519 C517 1.387 . S
C519 C521 1.390 . S
C519 H523 0.950 . S
H520 C516 0.950 . S
C521 C519 1.390 . S
C521 C522 1.387 . S
C521 H524 0.950 . S
C522 C521 1.387 . S
C522 C525 1.387 . S
H523 C519 0.950 . S
H524 C521 0.950 . S
C525 C516 1.390 . S
C525 H518 0.950 . S
C525 C522 1.387 . S
C526 C527 1.387 . S
C526 H530 0.950 . S
C526 C535 1.390 . S
C527 C526 1.387 . S
C527 C529 1.387 . S
H528 C535 0.950 . S
C529 C527 1.387 . S
C529 C531 1.390 . S
C529 H533 0.950 . S
H530 C526 0.950 . S
C531 C529 1.390 . S
C531 C532 1.387 . S
C531 H534 0.950 . S
C532 C531 1.387 . S
C532 C535 1.387 . S
H533 C529 0.950 . S
H534 C531 0.950 . S
C535 C526 1.390 . S
C535 H528 0.950 . S
C535 C532 1.387 . S
C536 C537 1.387 . S
C536 H540 0.950 . S
C536 C545 1.390 . S
C537 C536 1.387 . S
C537 C539 1.387 . S
H538 C545 0.950 . S
C539 C537 1.387 . S
C539 C541 1.390 . S
C539 H543 0.950 . S
H540 C536 0.950 . S
C541 C539 1.390 . S
C541 C542 1.387 . S
C541 H544 0.950 . S
C542 C541 1.387 . S
C542 C545 1.387 . S
H543 C539 0.950 . S
H544 C541 0.950 . S
C545 C536 1.390 . S
C545 H538 0.950 . S
C545 C542 1.387 . S
C546 C547 1.387 . S
C546 H550 0.950 . S
C546 C555 1.390 . S
C547 C546 1.387 . S
C547 C549 1.387 . S
H548 C555 0.950 . S
C549 C547 1.387 . S
C549 C551 1.390 . S
C549 H553 0.950 . S
H550 C546 0.950 . S
C551 C549 1.390 . S
C551 C552 1.387 . S
C551 H554 0.950 . S
C552 C551 1.387 . S
C552 C555 1.387 . S
H553 C549 0.950 . S
H554 C551 0.950 . S
C555 C546 1.390 . S
C555 H548 0.950 . S
C555 C552 1.387 . S
C556 C557 1.387 . S
C556 H560 0.950 . S
C556 C565 1.390 . S
C557 C556 1.387 . S
C557 C559 1.387 . S
H558 C565 0.950 . S
C559 C557 1.387 . S
C559 C561 1.390 . S
C559 H563 0.950 . S
H560 C556 0.950 . S
C561 C559 1.390 . S
C561 C562 1.387 . S
C561 H564 0.950 . S
C562 C561 1.387 . S
C562 C565 1.387 . S
H563 C559 0.950 . S
H564 C561 0.950 . S
C565 C556 1.390 . S
C565 H558 0.950 . S
C565 C562 1.387 . S
C566 C567 1.387 . S
C566 H570 0.950 . S
C566 C575 1.390 . S
C567 C566 1.387 . S
C567 C569 1.387 . S
H568 C575 0.950 . S
C569 C567 1.387 . S
C569 C571 1.390 . S
C569 H573 0.950 . S
H570 C566 0.950 . S
C571 C569 1.390 . S
C571 C572 1.387 . S
C571 H574 0.950 . S
C572 C571 1.387 . S
C572 C575 1.387 . S
H573 C569 0.950 . S
H574 C571 0.950 . S
C575 C566 1.390 . S
C575 H568 0.950 . S
C575 C572 1.387 . S
C576 C577 1.387 . S
C576 H580 0.950 . S
C576 C585 1.390 . S
C577 C576 1.387 . S
C577 C579 1.387 . S
H578 C585 0.950 . S
C579 C577 1.387 . S
C579 C581 1.390 . S
C579 H583 0.950 . S
H580 C576 0.950 . S
C581 C579 1.390 . S
C581 C582 1.387 . S
C581 H584 0.950 . S
C582 C581 1.387 . S
C582 C585 1.387 . S
H583 C579 0.950 . S
H584 C581 0.950 . S
C585 C576 1.390 . S
C585 H578 0.950 . S
C585 C582 1.387 . S
C586 C587 1.387 . S
C586 H590 0.950 . S
C586 C595 1.390 . S
C587 C586 1.387 . S
C587 C589 1.387 . S
H588 C595 0.950 . S
C589 C587 1.387 . S
C589 C591 1.390 . S
C589 H593 0.950 . S
H590 C586 0.950 . S
C591 C589 1.390 . S
C591 C592 1.387 . S
C591 H594 0.950 1_655 S
C592 C591 1.387 . S
C592 C595 1.387 . S
H593 C589 0.950 . S
H594 C591 0.950 1_455 S
C595 C586 1.390 . S
C595 H588 0.950 . S
C595 C592 1.387 . S
C596 C597 1.387 . S
C596 H600 0.950 . S
C596 C605 1.390 . S
C597 C596 1.387 . S
C597 C599 1.387 . S
H598 C605 0.950 . S
C599 C597 1.387 . S
C599 C601 1.390 . S
C599 H603 0.950 . S
H600 C596 0.950 . S
C601 C599 1.390 . S
C601 C602 1.387 . S
C601 H604 0.950 . S
C602 C601 1.387 . S
C602 C605 1.387 . S
H603 C599 0.950 . S
H604 C601 0.950 . S
C605 C596 1.390 . S
C605 H598 0.950 . S
C605 C602 1.387 . S
C606 C607 1.387 . S
C606 H610 0.950 . S
C606 C615 1.390 . S
C607 C606 1.387 . S
C607 C609 1.387 . S
H608 C615 0.950 . S
C609 C607 1.387 . S
C609 C611 1.390 . S
C609 H613 0.950 . S
H610 C606 0.950 . S
C611 C609 1.390 . S
C611 C612 1.387 . S
C611 H614 0.950 . S
C612 C611 1.387 . S
C612 C615 1.387 . S
H613 C609 0.950 . S
H614 C611 0.950 . S
C615 C606 1.390 . S
C615 H608 0.950 . S
C615 C612 1.387 . S
C616 C617 1.387 . S
C616 H620 0.950 . S
C616 C625 1.390 . S
C617 C616 1.387 . S
C617 C619 1.387 . S
H618 C625 0.950 . S
C619 C617 1.387 . S
C619 C621 1.390 . S
C619 H623 0.950 . S
H620 C616 0.950 . S
C621 C619 1.390 . S
C621 C622 1.387 . S
C621 H624 0.950 . S
C622 C621 1.387 . S
C622 C625 1.387 . S
H623 C619 0.950 . S
H624 C621 0.950 . S
C625 C616 1.390 . S
C625 H618 0.950 . S
C625 C622 1.387 . S
C626 C627 1.387 . S
C626 H630 0.950 . S
C626 C635 1.390 . S
C627 C626 1.387 . S
C627 C629 1.387 . S
H628 C635 0.950 . S
C629 C627 1.387 . S
C629 C631 1.390 . S
C629 H633 0.950 . S
H630 C626 0.950 . S
C631 C629 1.390 . S
C631 C632 1.387 . S
C631 H634 0.950 . S
C632 C631 1.387 . S
C632 C635 1.387 . S
H633 C629 0.950 . S
H634 C631 0.950 . S
C635 C626 1.390 . S
C635 H628 0.950 . S
C635 C632 1.387 . S
C636 C637 1.387 . S
C636 H640 0.950 . S
C636 C645 1.390 . S
C637 C636 1.387 . S
C637 C639 1.387 . S
H638 C645 0.950 . S
C639 C637 1.387 . S
C639 C641 1.390 . S
C639 H643 0.950 . S
H640 C636 0.950 . S
C641 C639 1.390 . S
C641 C642 1.387 . S
C641 H644 0.950 . S
C642 C641 1.387 . S
C642 C645 1.387 . S
H643 C639 0.950 . S
H644 C641 0.950 . S
C645 C636 1.390 . S
C645 H638 0.950 . S
C645 C642 1.387 . S
C646 C647 1.387 . S
C646 H650 0.950 . S
C646 C655 1.390 . S
C647 C646 1.387 . S
C647 C649 1.387 . S
H648 C655 0.950 . S
C649 C647 1.387 . S
C649 C651 1.390 . S
C649 H653 0.950 . S
H650 C646 0.950 . S
C651 C649 1.390 . S
C651 C652 1.387 . S
C651 H654 0.950 . S
C652 C651 1.387 . S
C652 C655 1.387 . S
H653 C649 0.950 . S
H654 C651 0.950 . S
C655 C646 1.390 . S
C655 H648 0.950 . S
C655 C652 1.387 . S
C417 C29 1.436 . S
C422 C271 1.386 . S
C427 C49 1.393 . S
C432 C315 1.552 . S
C442 C345 2.397 . S
C437 C93 2.379 . S
C447 C119 2.712 . S
C452 C386 2.689 . S
C462 C302 0.990 . S
C457 C17 0.987 . S
C472 C266 2.444 . S
C467 C61 2.236 . S
C482 C394 1.245 . S
C477 C81 1.226 . S
C492 C355 2.381 . S
C487 C125 2.512 . S
C497 C23 1.743 . S
C502 C391 1.634 . S
C512 C305 2.126 . S
C507 C87 2.139 . S
C517 C113 2.065 . S
C522 C274 2.002 . S
C527 C55 1.932 . S
C532 C342 2.066 . S
C542 C262 1.385 . S
C537 C157 1.116 . S
C547 C189 1.686 . S
C552 C306 1.606 . S
C557 C221 2.245 . S
C562 C354 2.373 . S
C567 C253 2.768 . S
C572 C395 2.745 . S
C577 C145 0.918 . S
C582 C311 1.036 . S
C592 C275 2.403 . S
C587 C183 2.390 . S
C602 C385 1.270 . S
C597 C209 1.171 . S
C612 C346 2.382 . S
C607 C247 2.468 . S
C617 C151 1.306 . S
C622 C382 1.604 . S
C632 C314 2.105 . S
C627 C215 2.039 . S
C642 C265 2.005 . S
C637 C241 2.034 . S
C647 C177 2.130 . S
C652 C351 2.063 . S
