# Generated by pormake.
# Topology pyr, (3,6)-cn, num edge types: 1
# Building blocks:
#     Node 0, Type 0, BuildingBlock: PAMTOO_clean_linker_0, # of connection points: 3
#     Node 1, Type 0, BuildingBlock: PAMTOO_clean_linker_0, # of connection points: 3
#     Node 2, Type 0, BuildingBlock: PAMTOO_clean_linker_0, # of connection points: 3
#     Node 3, Type 0, BuildingBlock: PAMTOO_clean_linker_0, # of connection points: 3
#     Node 4, Type 0, BuildingBlock: PAMTOO_clean_linker_0, # of connection points: 3
#     Node 5, Type 0, BuildingBlock: PAMTOO_clean_linker_0, # of connection points: 3
#     Node 6, Type 0, BuildingBlock: PAMTOO_clean_linker_0, # of connection points: 3
#     Node 7, Type 0, BuildingBlock: PAMTOO_clean_linker_0, # of connection points: 3
#     Node 8, Type 1, BuildingBlock: BETDEL_clean_sbu_0, # of connection points: 6
#     Node 9, Type 1, BuildingBlock: BETDEL_clean_sbu_0, # of connection points: 6
#     Node 10, Type 1, BuildingBlock: BETDEL_clean_sbu_0, # of connection points: 6
#     Node 11, Type 1, BuildingBlock: BETDEL_clean_sbu_0, # of connection points: 6
#     Edge 12, Type (0, 1), BuildingBlock: TEMPAE_clean_linker_10, # of connection points: 2
#     Edge 13, Type (0, 1), BuildingBlock: TEMPAE_clean_linker_10, # of connection points: 2
#     Edge 14, Type (0, 1), BuildingBlock: TEMPAE_clean_linker_10, # of connection points: 2
#     Edge 15, Type (0, 1), BuildingBlock: TEMPAE_clean_linker_10, # of connection points: 2
#     Edge 16, Type (0, 1), BuildingBlock: TEMPAE_clean_linker_10, # of connection points: 2
#     Edge 17, Type (0, 1), BuildingBlock: TEMPAE_clean_linker_10, # of connection points: 2
#     Edge 18, Type (0, 1), BuildingBlock: TEMPAE_clean_linker_10, # of connection points: 2
#     Edge 19, Type (0, 1), BuildingBlock: TEMPAE_clean_linker_10, # of connection points: 2
#     Edge 20, Type (0, 1), BuildingBlock: TEMPAE_clean_linker_10, # of connection points: 2
#     Edge 21, Type (0, 1), BuildingBlock: TEMPAE_clean_linker_10, # of connection points: 2
#     Edge 22, Type (0, 1), BuildingBlock: TEMPAE_clean_linker_10, # of connection points: 2
#     Edge 23, Type (0, 1), BuildingBlock: TEMPAE_clean_linker_10, # of connection points: 2
#     Edge 24, Type (0, 1), BuildingBlock: TEMPAE_clean_linker_10, # of connection points: 2
#     Edge 25, Type (0, 1), BuildingBlock: TEMPAE_clean_linker_10, # of connection points: 2
#     Edge 26, Type (0, 1), BuildingBlock: TEMPAE_clean_linker_10, # of connection points: 2
#     Edge 27, Type (0, 1), BuildingBlock: TEMPAE_clean_linker_10, # of connection points: 2
#     Edge 28, Type (0, 1), BuildingBlock: TEMPAE_clean_linker_10, # of connection points: 2
#     Edge 29, Type (0, 1), BuildingBlock: TEMPAE_clean_linker_10, # of connection points: 2
#     Edge 30, Type (0, 1), BuildingBlock: TEMPAE_clean_linker_10, # of connection points: 2
#     Edge 31, Type (0, 1), BuildingBlock: TEMPAE_clean_linker_10, # of connection points: 2
#     Edge 32, Type (0, 1), BuildingBlock: TEMPAE_clean_linker_10, # of connection points: 2
#     Edge 33, Type (0, 1), BuildingBlock: TEMPAE_clean_linker_10, # of connection points: 2
#     Edge 34, Type (0, 1), BuildingBlock: TEMPAE_clean_linker_10, # of connection points: 2
#     Edge 35, Type (0, 1), BuildingBlock: TEMPAE_clean_linker_10, # of connection points: 2
# Relax obj value: 0.086
# Max RMSD: 0.194
# Mean RMSD: 0.138
data_MOF--net-pyr--node1-BETDEL_clean_sbu_0--node2-PAMTOO_clean_linker_0--edge1-TEMPAE_clean_linker_10
_symmetry_space_group_name_H-M    P1
_symmetry_Int_Tables_number       1
_symmetry_cell_setting            triclinic
loop_
_symmetry_equiv_pos_as_xyz
'x, y, z'
_cell_length_a     36.188562
_cell_length_b     39.320478
_cell_length_c     35.625422
_cell_angle_alpha  91.894762
_cell_angle_beta   90.585532
_cell_angle_gamma 100.13595
loop_
_atom_site_label
_atom_site_type_symbol
_atom_site_fract_x
_atom_site_fract_y
_atom_site_fract_z
_atom_type_partial_charge
H0 H 0.15936 0.23526 0.22711 0.0
H1 H 0.23653 0.16358 0.22813 0.0
H2 H 0.24205 0.23629 0.14066 0.0
H3 H 0.2488 0.16866 0.11384 0.0
C4 C 0.26029 0.15839 0.13938 0.0
O5 O 0.26957 0.18459 0.16625 0.0
H6 H 0.23816 0.13771 0.14995 0.0
C7 C 0.18267 0.22521 0.21473 0.0
C8 C 0.19922 0.23952 0.18199 0.0
C9 C 0.19608 0.198 0.23173 0.0
C10 C 0.22649 0.18524 0.21598 0.0
C11 C 0.24276 0.19908 0.18318 0.0
C12 C 0.22958 0.2264 0.16652 0.0
H13 H 0.27881 0.88778 0.72696 0.0
H14 H 0.26468 0.81957 0.62859 0.0
H15 H 0.34694 0.80896 0.71292 0.0
H16 H 0.36673 0.81503 0.63048 0.0
C17 C 0.34584 0.79166 0.62192 0.0
O18 O 0.31762 0.78532 0.64798 0.0
H19 H 0.3331 0.79667 0.59457 0.0
C20 C 0.28618 0.86609 0.7109 0.0
C21 C 0.31464 0.84933 0.72439 0.0
C22 C 0.26792 0.85563 0.67631 0.0
C23 C 0.27803 0.82769 0.65556 0.0
C24 C 0.30666 0.8111 0.66874 0.0
C25 C 0.32474 0.82186 0.70308 0.0
H26 H 0.72866 0.30563 0.9301 0.0
H27 H 0.63147 0.30347 0.85821 0.0
H28 H 0.72334 0.38886 0.85607 0.0
H29 H 0.64727 0.40506 0.85599 0.0
C30 C 0.63458 0.38583 0.83376 0.0
O31 O 0.65774 0.36205 0.82659 0.0
H32 H 0.60726 0.37227 0.84427 0.0
C33 C 0.71368 0.31712 0.90877 0.0
C34 C 0.72997 0.34905 0.89467 0.0
C35 C 0.6779 0.30045 0.89621 0.0
C36 C 0.65876 0.31615 0.86884 0.0
C37 C 0.67526 0.34789 0.85426 0.0
C38 C 0.71071 0.36435 0.8674 0.0
H39 H 0.84674 0.7175 0.41818 0.0
H40 H 0.84441 0.63178 0.33936 0.0
H41 H 0.93089 0.72126 0.33287 0.0
H42 H 0.90565 0.69347 0.26005 0.0
C43 C 0.89476 0.66603 0.26627 0.0
O44 O 0.90402 0.66002 0.30295 0.0
H45 H 0.86364 0.6612 0.26279 0.0
C46 C 0.85835 0.70596 0.39397 0.0
C47 C 0.89077 0.72385 0.37719 0.0
C48 C 0.84144 0.67271 0.38076 0.0
C49 C 0.85719 0.65729 0.35009 0.0
C50 C 0.88923 0.67494 0.33273 0.0
C51 C 0.90616 0.70793 0.34654 0.0
H52 H 0.83906 0.92012 0.87554 0.0
H53 H 0.80882 0.85076 0.96582 0.0
H54 H 0.90032 0.83767 0.89501 0.0
H55 H 0.82993 0.77867 0.9164 0.0
C56 C 0.84089 0.78182 0.94591 0.0
O57 O 0.86098 0.81467 0.95282 0.0
H58 H 0.81646 0.77752 0.9649 0.0
C59 C 0.84363 0.89829 0.89165 0.0
C60 C 0.87248 0.88025 0.88143 0.0
C61 C 0.82028 0.88801 0.92202 0.0
C62 C 0.8267 0.85975 0.94267 0.0
C63 C 0.85543 0.84186 0.93283 0.0
C64 C 0.87818 0.85189 0.90226 0.0
H65 H 0.79484 0.13674 0.35026 0.0
H66 H 0.74064 0.22626 0.3505 0.0
H67 H 0.81856 0.21548 0.43838 0.0
H68 H 0.75534 0.24541 0.46811 0.0
C69 C 0.74288 0.25043 0.44061 0.0
O70 O 0.77049 0.25246 0.41383 0.0
H71 H 0.71947 0.22862 0.4336 0.0
C72 C 0.79072 0.16133 0.36256 0.0
C73 C 0.81069 0.17422 0.39569 0.0
C74 C 0.76521 0.17977 0.34563 0.0
C75 C 0.7598 0.21128 0.36274 0.0
C76 C 0.7786 0.22373 0.39622 0.0
C77 C 0.80442 0.20562 0.41226 0.0
H78 H 0.36822 0.7265 0.11048 0.0
H79 H 0.36731 0.64673 0.19082 0.0
H80 H 0.4556 0.73513 0.19513 0.0
H81 H 0.48124 0.66928 0.20967 0.0
C82 C 0.45478 0.65451 0.22077 0.0
O83 O 0.42899 0.67624 0.22564 0.0
H84 H 0.4439 0.6334 0.19978 0.0
C85 C 0.38102 0.71591 0.13404 0.0
C86 C 0.41406 0.73468 0.15082 0.0
C87 C 0.36355 0.6843 0.14844 0.0
C88 C 0.37995 0.67127 0.1796 0.0
C89 C 0.4132 0.68943 0.19611 0.0
C90 C 0.42995 0.72122 0.18203 0.0
H91 H 0.12731 0.31265 0.7544 0.0
H92 H 0.21072 0.40461 0.7425 0.0
H93 H 0.21073 0.31711 0.66817 0.0
H94 H 0.28434 0.3532 0.70468 0.0
C95 C 0.28055 0.38012 0.6992 0.0
O96 O 0.24435 0.37975 0.6863 0.0
H97 H 0.28537 0.39564 0.72601 0.0
C98 C 0.15122 0.32673 0.74009 0.0
C99 C 0.16685 0.31054 0.70964 0.0
C100 C 0.16717 0.3606 0.75283 0.0
C101 C 0.19844 0.3783 0.734 0.0
C102 C 0.21417 0.36244 0.70393 0.0
C103 C 0.19848 0.32877 0.69189 0.0
Dy104 Dy 0.05251 0.02843 0.50876 0.0
C105 C 0.98901 0.96599 0.64121 0.0
C106 C 0.07525 0.06529 0.44721 0.0
Dy107 Dy 0.01509 1.00134 0.57956 0.0
O108 O 0.08116 0.03433 0.45319 0.0
O109 O 0.05676 0.07616 0.47479 0.0
O110 O 0.0941 0.9927 0.51123 0.0
O111 O 0.07333 0.01064 0.56143 0.0
C112 C 0.09258 0.98973 0.54733 0.0
C113 C 0.97701 0.04126 0.54002 0.0
O114 O 0.04746 0.05064 0.60469 0.0
O115 O 0.06606 0.07527 0.54809 0.0
O116 O 0.96816 0.97505 0.61483 0.0
O117 O 0.02417 0.97619 0.63393 0.0
O118 O 0.97692 0.04054 0.57644 0.0
O119 O 0.99479 0.01893 0.5267 0.0
O120 O 0.01344 0.98191 0.48521 0.0
O121 O 0.00784 0.95384 0.54128 0.0
C122 C 0.06307 0.0774 0.58519 0.0
C123 C 0.00414 0.95332 0.50419 0.0
Dy124 Dy 0.56599 0.03726 0.0642 0.0
C125 C 0.46199 0.96333 0.94887 0.0
C126 C 0.60778 0.07315 0.12156 0.0
Dy127 Dy 0.51248 0.0037 0.99598 0.0
O128 O 0.5813 0.04661 0.12523 0.0
O129 O 0.6112 0.0807 0.08629 0.0
O130 O 0.56923 0.98324 0.08052 0.0
O131 O 0.5198 0.99317 0.05517 0.0
C132 C 0.53607 0.96984 0.06742 0.0
C133 C 0.55152 0.06619 0.9785 0.0
O134 O 0.47248 0.02464 0.03372 0.0
O135 O 0.51504 0.06159 0.07279 0.0
O136 O 0.4633 0.99609 0.95621 0.0
O137 O 0.48812 0.95215 0.9679 0.0
O138 O 0.52878 0.04661 0.95514 0.0
O139 O 0.55178 0.05047 0.00855 0.0
O140 O 0.60704 0.0226 0.02322 0.0
O141 O 0.56504 0.98175 0.9875 0.0
C142 C 0.48049 0.05001 0.0596 0.0
C143 C 0.59964 0.99651 0.99809 0.0
Dy144 Dy 0.56295 0.49569 0.5069 0.0
C145 C 0.50144 0.60455 0.58049 0.0
C146 C 0.60263 0.44864 0.47669 0.0
Dy147 Dy 0.54185 0.55791 0.5505 0.0
O148 O 0.56634 0.44381 0.47971 0.0
O149 O 0.61716 0.47942 0.48961 0.0
O150 O 0.50221 0.47001 0.50454 0.0
O151 O 0.52301 0.50238 0.5506 0.0
C152 C 0.49372 0.48505 0.53555 0.0
C153 C 0.61117 0.56815 0.52192 0.0
O154 O 0.56016 0.53034 0.59946 0.0
O155 O 0.58943 0.49227 0.56421 0.0
O156 O 0.53746 0.61061 0.57518 0.0
O157 O 0.48773 0.57286 0.57003 0.0
O158 O 0.60287 0.5829 0.55321 0.0
O159 O 0.58176 0.55124 0.5067 0.0
O160 O 0.5446 0.52336 0.45811 0.0
O161 O 0.51443 0.56055 0.49356 0.0
C162 C 0.58175 0.50633 0.59706 0.0
C163 C 0.52225 0.5467 0.46068 0.0
Dy164 Dy 0.05703 0.48186 0.04049 0.0
C165 C 1.00017 0.60185 0.99462 0.0
C166 C 0.08894 0.42993 0.06744 0.0
Dy167 Dy 0.03696 0.5481 1.00167 0.0
O168 O 0.08318 0.4569 0.08697 0.0
O169 O 0.07709 0.43114 0.03303 0.0
O170 O 0.01182 0.48585 0.08242 0.0
O171 O 0.0409 0.53065 0.05873 0.0
C172 C 0.01418 0.51906 0.07982 0.0
C173 C 0.06725 0.5083 0.95168 0.0
O174 O 0.09153 0.57092 0.02985 0.0
O175 O 0.11189 0.5192 0.04233 0.0
O176 O 0.98682 0.57303 0.01032 0.0
O177 O 0.03402 0.60151 0.98257 0.0
O178 O 0.0573 0.53741 0.94302 0.0
O179 O 0.06088 0.50381 0.98595 0.0
O180 O 0.00572 0.45708 0.00819 0.0
O181 O 0.98511 0.50791 0.99196 0.0
C182 C 0.11781 0.55349 0.04076 0.0
C183 C 0.98041 0.47374 0.99369 0.0
C184 C 0.19755 0.17572 0.2964 0.0
C185 C 0.17687 0.18146 0.26453 0.0
C186 C 0.17977 0.1585 0.32691 0.0
C187 C 0.14055 0.14626 0.32504 0.0
C188 C 0.11948 0.15245 0.29309 0.0
C189 C 0.13792 0.17023 0.26326 0.0
C190 C 0.20302 0.1528 0.36082 0.0
C191 C 0.07773 0.1393 0.28989 0.0
C192 C 0.10496 0.06983 0.38469 0.0
C193 C 0.08975 0.08576 0.4151 0.0
C194 C 0.12082 0.08919 0.35473 0.0
C195 C 0.12197 0.12538 0.35566 0.0
C196 C 0.10618 0.14154 0.38614 0.0
C197 C 0.08992 0.1214 0.41547 0.0
C198 C 0.13682 0.07099 0.32236 0.0
C199 C 0.10733 0.18012 0.38821 0.0
H200 H 0.22766 0.18469 0.29738 0.0
H201 H 0.12204 0.17439 0.23836 0.0
H202 H 0.19093 0.16248 0.38672 0.0
H203 H 0.20253 0.12473 0.36377 0.0
H204 H 0.2327 0.16593 0.35885 0.0
H205 H 0.06523 0.14763 0.26388 0.0
H206 H 0.0722 0.11063 0.28987 0.0
H207 H 0.06327 0.1486 0.31447 0.0
H208 H 0.10464 0.0422 0.38442 0.0
H209 H 0.07823 0.13369 0.43913 0.0
H210 H 0.16747 0.0805 0.32076 0.0
H211 H 0.12398 0.07686 0.29545 0.0
H212 H 0.13203 0.04249 0.32511 0.0
H213 H 0.13694 0.19372 0.38896 0.0
H214 H 0.09302 0.18853 0.41342 0.0
H215 H 0.09382 0.18835 0.36279 0.0
C216 C 0.37434 0.87132 0.75977 0.0
C217 C 0.33518 0.86176 0.75974 0.0
C218 C 0.39417 0.88532 0.79236 0.0
C219 C 0.37438 0.88915 0.82591 0.0
C220 C 0.33494 0.87821 0.82636 0.0
C221 C 0.31572 0.86505 0.79308 0.0
C222 C 0.43607 0.8974 0.79043 0.0
C223 C 0.31298 0.88118 0.86175 0.0
C224 C 0.4341 0.90749 0.91538 0.0
C225 C 0.43737 0.94344 0.91957 0.0
C226 C 0.41247 0.88913 0.88577 0.0
C227 C 0.3946 0.90738 0.85941 0.0
C228 C 0.39746 0.94365 0.864 0.0
C229 C 0.41844 0.96114 0.89426 0.0
C230 C 0.40928 0.85037 0.88228 0.0
C231 C 0.37947 0.9642 0.8362 0.0
H232 H 0.3893 0.86896 0.73386 0.0
H233 H 0.28544 0.85735 0.79304 0.0
H234 H 0.44275 0.9258 0.79579 0.0
H235 H 0.45071 0.8853 0.8125 0.0
H236 H 0.44744 0.8912 0.76267 0.0
H237 H 0.2832 0.86826 0.85841 0.0
H238 H 0.32596 0.86959 0.88541 0.0
H239 H 0.31363 0.90883 0.86953 0.0
H240 H 0.44862 0.89378 0.93507 0.0
H241 H 0.42105 0.98899 0.89736 0.0
H242 H 0.42349 0.84326 0.85648 0.0
H243 H 0.37935 0.83787 0.87957 0.0
H244 H 0.42208 0.83976 0.90678 0.0
H245 H 0.39124 0.96105 0.80791 0.0
H246 H 0.38398 0.99221 0.84411 0.0
H247 H 0.34883 0.9544 0.83402 0.0
C248 C 0.65523 0.43285 0.78797 0.0
C249 C 0.62872 0.40442 0.79837 0.0
C250 C 0.64995 0.45075 0.75536 0.0
C251 C 0.61753 0.43973 0.73246 0.0
C252 C 0.59108 0.41052 0.7425 0.0
C253 C 0.59711 0.39312 0.77524 0.0
C254 C 0.6789 0.4816 0.74557 0.0
C255 C 0.55626 0.39779 0.71879 0.0
C256 C 0.58204 0.50225 0.6673 0.0
C257 C 0.59401 0.49168 0.63212 0.0
C258 C 0.59026 0.48613 0.70026 0.0
C259 C 0.611 0.45876 0.69811 0.0
C260 C 0.62418 0.4487 0.66288 0.0
C261 C 0.61556 0.46525 0.63037 0.0
C262 C 0.57577 0.49771 0.73728 0.0
C263 C 0.64647 0.41973 0.65934 0.0
H264 H 0.67995 0.44123 0.80562 0.0
H265 H 0.57689 0.37082 0.78302 0.0
H266 H 0.68996 0.47752 0.71716 0.0
H267 H 0.66571 0.505 0.74483 0.0
H268 H 0.7028 0.48656 0.766 0.0
H269 H 0.53864 0.37454 0.73027 0.0
H270 H 0.53912 0.41848 0.71702 0.0
H271 H 0.5642 0.39139 0.68975 0.0
H272 H 0.56537 0.52258 0.66908 0.0
H273 H 0.62506 0.45686 0.60343 0.0
H274 H 0.59919 0.50437 0.75806 0.0
H275 H 0.55538 0.47627 0.74871 0.0
H276 H 0.56174 0.52048 0.73453 0.0
H277 H 0.67117 0.42482 0.67871 0.0
H278 H 0.6564 0.41624 0.63029 0.0
H279 H 0.62887 0.39514 0.66753 0.0
C280 C 0.89241 0.63176 0.20483 0.0
C281 C 0.9116 0.64319 0.2386 0.0
C282 C 0.90816 0.61214 0.1776 0.0
C283 C 0.94414 0.6038 0.18418 0.0
C284 C 0.96393 0.61575 0.21798 0.0
C285 C 0.94762 0.63561 0.24458 0.0
C286 C 0.88635 0.6004 0.14174 0.0
C287 C 0.00235 0.60749 0.22609 0.0
C288 C 0.9706 0.52538 0.13255 0.0
C289 C 0.99466 0.54073 0.10488 0.0
C290 C 0.95379 0.54559 0.15829 0.0
C291 C 0.9608 0.58206 0.15606 0.0
C292 C 0.98426 0.59765 0.12746 0.0
C293 C 1.00119 0.57681 0.10244 0.0
C294 C 0.92907 0.52791 0.18835 0.0
C295 C 0.99196 0.63636 0.12361 0.0
H296 H 0.86501 0.63836 0.19964 0.0
H297 H 0.96306 0.64522 0.27011 0.0
H298 H 0.903 0.61016 0.11713 0.0
H299 H 0.88102 0.57176 0.13904 0.0
H300 H 0.85899 0.60949 0.14064 0.0
H301 H 0.01403 0.61861 0.25368 0.0
H302 H 1.00089 0.57905 0.22589 0.0
H303 H 0.02204 0.61767 0.2038 0.0
H304 H 0.96548 0.49751 0.13459 0.0
H305 H 0.01989 0.58882 0.0812 0.0
H306 H 0.9008 0.53506 0.18668 0.0
H307 H 0.94112 0.53672 0.21651 0.0
H308 H 0.92592 0.4993 0.18591 0.0
H309 H 0.96517 0.64626 0.12156 0.0
H310 H 0.0089 0.64423 0.0985 0.0
H311 H 0.00728 0.64891 0.14896 0.0
C312 C 0.30426 0.11698 0.15099 0.0
C313 C 0.29455 0.14357 0.12987 0.0
C314 C 0.33588 0.10244 0.14204 0.0
C315 C 0.35831 0.11515 0.11149 0.0
C316 C 0.34938 0.14297 0.09104 0.0
C317 C 0.31759 0.157 0.10064 0.0
C318 C 0.34471 0.07293 0.16458 0.0
C319 C 0.37278 0.15728 0.05841 0.0
C320 C 0.45585 0.0934 0.10106 0.0
C321 C 0.44924 0.0661 0.07408 0.0
C322 C 0.42642 0.10945 0.1139 0.0
C323 C 0.38966 0.09792 0.09935 0.0
C324 C 0.38274 0.07016 0.0725 0.0
C325 C 0.41259 0.05458 0.06022 0.0
C326 C 0.4347 0.13897 0.14267 0.0
C327 C 0.34385 0.05717 0.05635 0.0
H328 H 0.2867 0.10723 0.17413 0.0
H329 H 0.31034 0.17811 0.08493 0.0
H330 H 0.34187 0.04917 0.14633 0.0
H331 H 0.37417 0.07877 0.17513 0.0
H332 H 0.32582 0.06755 0.18887 0.0
H333 H 0.36322 0.1802 0.0468 0.0
H334 H 0.40267 0.1647 0.06726 0.0
H335 H 0.3713 0.13708 0.03567 0.0
H336 H 0.48405 0.10247 0.11197 0.0
H337 H 0.4071 0.0335 0.03941 0.0
H338 H 0.41686 0.1332 0.1676 0.0
H339 H 0.42779 0.16283 0.13072 0.0
H340 H 0.46462 0.14414 0.152 0.0
H341 H 0.32402 0.04912 0.07927 0.0
H342 H 0.34311 0.03491 0.03615 0.0
H343 H 0.33358 0.07825 0.0417 0.0
C344 C 0.20472 0.85805 0.64788 0.0
C345 C 0.24 0.87523 0.66088 0.0
C346 C 0.17869 0.87639 0.63206 0.0
C347 C 0.18858 0.91262 0.62834 0.0
C348 C 0.22407 0.93008 0.64183 0.0
C349 C 0.24918 0.91122 0.65825 0.0
C350 C 0.14087 0.85691 0.61874 0.0
C351 C 0.23609 0.96852 0.63767 0.0
C352 C 0.14184 0.95283 0.54923 0.0
C353 C 0.11653 0.96993 0.56859 0.0
C354 C 0.16539 0.93421 0.56837 0.0
C355 C 0.16305 0.9319 0.60788 0.0
C356 C 0.13707 0.94864 0.62759 0.0
C357 C 0.1145 0.96792 0.60773 0.0
C358 C 0.19317 0.91739 0.5463 0.0
C359 C 0.13315 0.94624 0.6696 0.0
H360 H 0.19748 0.83026 0.65018 0.0
H361 H 0.27659 0.9245 0.66797 0.0
H362 H 0.11813 0.86924 0.63083 0.0
H363 H 0.13852 0.85788 0.58774 0.0
H364 H 0.13628 0.82938 0.62656 0.0
H365 H 0.26403 0.97841 0.65088 0.0
H366 H 0.23738 0.97447 0.60742 0.0
H367 H 0.21522 0.98268 0.65056 0.0
H368 H 0.14363 0.95434 0.51895 0.0
H369 H 0.09533 0.9814 0.62285 0.0
H370 H 0.18775 0.88909 0.55021 0.0
H371 H 0.22212 0.92751 0.55682 0.0
H372 H 0.19182 0.92203 0.51576 0.0
H373 H 0.12803 0.91876 0.67745 0.0
H374 H 0.10983 0.95864 0.68034 0.0
H375 H 0.15964 0.95895 0.68382 0.0
C376 C 0.79941 0.35378 0.89821 0.0
C377 C 0.76713 0.36648 0.90874 0.0
C378 C 0.83499 0.37014 0.91147 0.0
C379 C 0.83801 0.39929 0.9365 0.0
C380 C 0.80521 0.41179 0.94761 0.0
C381 C 0.77011 0.39541 0.9332 0.0
C382 C 0.86935 0.35655 0.89832 0.0
C383 C 0.8072 0.44239 0.97478 0.0
C384 C 0.92674 0.42443 0.99655 0.0
C385 C 0.945 0.45355 0.97835 0.0
C386 C 0.89177 0.40647 0.98329 0.0
C387 C 0.87549 0.41731 0.9504 0.0
C388 C 0.89458 0.44603 0.93126 0.0
C389 C 0.92883 0.46416 0.94584 0.0
C390 C 0.87177 0.37654 0.00502 0.0
C391 C 0.87873 0.45777 0.89551 0.0
H392 H 0.79677 0.33132 0.87923 0.0
H393 H 0.74488 0.40488 0.94139 0.0
H394 H 0.88853 0.37718 0.88413 0.0
H395 H 0.88496 0.349 0.92273 0.0
H396 H 0.86217 0.33384 0.87855 0.0
H397 H 0.77895 0.44785 0.98188 0.0
H398 H 0.82184 0.4376 1.00109 0.0
H399 H 0.8237 0.46576 0.96254 0.0
H400 H 0.93918 0.41644 0.02187 0.0
H401 H 0.94322 0.48653 0.93159 0.0
H402 H 0.86593 0.35282 0.98666 0.0
H403 H 0.84432 0.38215 0.0146 0.0
H404 H 0.88832 0.37127 0.02993 0.0
H405 H 0.87256 0.43583 0.87467 0.0
H406 H 0.89823 0.47917 0.8828 0.0
H407 H 0.85187 0.46668 0.90134 0.0
C408 C 0.80587 0.62062 0.41164 0.0
C409 C 0.80745 0.65438 0.39944 0.0
C410 C 0.77482 0.60404 0.43158 0.0
C411 C 0.74438 0.62145 0.43889 0.0
C412 C 0.74549 0.65522 0.42572 0.0
C413 C 0.77711 0.67134 0.40645 0.0
C414 C 0.77495 0.56825 0.44559 0.0
C415 C 0.71339 0.67447 0.43225 0.0
C416 C 0.64813 0.57141 0.46284 0.0
C417 C 0.64652 0.57887 0.50151 0.0
C418 C 0.68013 0.58439 0.44223 0.0
C419 C 0.71156 0.60482 0.46085 0.0
C420 C 0.71065 0.61111 0.50022 0.0
C421 C 0.67801 0.59829 0.52003 0.0
C422 C 0.67968 0.57743 0.40028 0.0
C423 C 0.74378 0.63223 0.52126 0.0
H424 H 0.82945 0.60757 0.40655 0.0
H425 H 0.77812 0.69733 0.39674 0.0
H426 H 0.77376 0.56878 0.47671 0.0
H427 H 0.74972 0.55019 0.43489 0.0
H428 H 0.80035 0.55793 0.43688 0.0
H429 H 0.71794 0.69996 0.41887 0.0
H430 H 0.68682 0.65887 0.42094 0.0
H431 H 0.70976 0.67871 0.46283 0.0
H432 H 0.62384 0.55638 0.44838 0.0
H433 H 0.67694 0.60392 0.54995 0.0
H434 H 0.70447 0.56606 0.39197 0.0
H435 H 0.68142 0.60213 0.38565 0.0
H436 H 0.65387 0.55962 0.39035 0.0
H437 H 0.76974 0.62193 0.51483 0.0
H438 H 0.73983 0.63236 0.55215 0.0
H439 H 0.74811 0.6593 0.51207 0.0
C440 C 0.1449 0.265 0.1593 0.0
C441 C 0.18384 0.26714 0.1632 0.0
C442 C 0.12981 0.29113 0.14215 0.0
C443 C 0.15429 0.31993 0.1284 0.0
C444 C 0.19363 0.32197 0.13158 0.0
C445 C 0.20797 0.29553 0.14906 0.0
C446 C 0.08768 0.28815 0.13926 0.0
C447 C 0.22052 0.35237 0.11716 0.0
C448 C 0.11356 0.37494 0.05895 0.0
C449 C 0.1063 0.4021 0.08252 0.0
C450 C 0.12979 0.34814 0.07338 0.0
C451 C 0.1386 0.34866 0.11223 0.0
C452 C 0.13154 0.37624 0.13603 0.0
C453 C 0.11553 0.40273 0.12081 0.0
C454 C 0.1372 0.31919 0.04721 0.0
C455 C 0.14043 0.37753 0.17764 0.0
H456 H 0.12617 0.24275 0.16954 0.0
H457 H 0.23808 0.29738 0.15228 0.0
H458 H 0.07883 0.31007 0.15507 0.0
H459 H 0.07889 0.28963 0.10953 0.0
H460 H 0.07258 0.2636 0.15049 0.0
H461 H 0.25029 0.34914 0.12009 0.0
H462 H 0.21433 0.35593 0.08712 0.0
H463 H 0.21687 0.37637 0.13284 0.0
H464 H 0.10652 0.3746 0.02926 0.0
H465 H 0.10992 0.42381 0.13902 0.0
H466 H 0.12068 0.29427 0.05589 0.0
H467 H 0.16728 0.31685 0.04887 0.0
H468 H 0.1298 0.32324 0.01755 0.0
H469 H 0.12416 0.35454 0.19083 0.0
H470 H 0.13378 0.40114 0.1921 0.0
H471 H 0.17062 0.37679 0.18236 0.0
C472 C 0.68251 0.24047 0.91521 0.0
C473 C 0.66096 0.2666 0.91153 0.0
C474 C 0.66684 0.20816 0.92908 0.0
C475 C 0.62873 0.20186 0.93976 0.0
C476 C 0.6071 0.22844 0.93699 0.0
C477 C 0.62341 0.26042 0.92271 0.0
C478 C 0.69072 0.18039 0.93107 0.0
C479 C 0.56645 0.22283 0.94832 0.0
C480 C 0.57451 0.11011 0.93201 0.0
C481 C 0.57333 0.10023 0.96947 0.0
C482 C 0.59302 0.14283 0.92205 0.0
C483 C 0.61052 0.16654 0.95033 0.0
C484 C 0.60989 0.15655 0.98827 0.0
C485 C 0.59135 0.12333 0.99741 0.0
C486 C 0.59337 0.15216 0.88123 0.0
C487 C 0.62806 0.18118 0.01922 0.0
H488 H 0.71147 0.245 0.90633 0.0
H489 H 0.6068 0.28069 0.92043 0.0
H490 H 0.68957 0.16966 0.95953 0.0
H491 H 0.67957 0.15879 0.91095 0.0
H492 H 0.72052 0.19017 0.92433 0.0
H493 H 0.55438 0.24689 0.94728 0.0
H494 H 0.54966 0.20294 0.92925 0.0
H495 H 0.56357 0.21306 0.97719 0.0
H496 H 0.56067 0.09223 0.9103 0.0
H497 H 0.59017 0.11578 0.0264 0.0
H498 H 0.62269 0.16026 0.87198 0.0
H499 H 0.57866 0.17434 0.87759 0.0
H500 H 0.57959 0.1303 0.86255 0.0
H501 H 0.65796 0.19068 0.01282 0.0
H502 H 0.62655 0.16899 0.04699 0.0
H503 H 0.61398 0.20405 0.02108 0.0
C504 C 0.88611 0.78307 0.40335 0.0
C505 C 0.90851 0.75887 0.39225 0.0
C506 C 0.90205 0.8153 0.41993 0.0
C507 C 0.94144 0.82374 0.42551 0.0
C508 C 0.96434 0.79985 0.41345 0.0
C509 C 0.94762 0.76772 0.39698 0.0
C510 C 0.87661 0.84004 0.43222 0.0
C511 C 0.00644 0.80785 0.41884 0.0
C512 C 0.98465 0.91849 0.44452 0.0
C513 C 0.98859 0.92016 0.48383 0.0
C514 C 0.96974 0.88726 0.42511 0.0
C515 C 0.95841 0.85692 0.44543 0.0
C516 C 0.96253 0.85839 0.48506 0.0
C517 C 0.97756 0.8899 0.50373 0.0
C518 C 0.96588 0.88677 0.38285 0.0
C519 C 0.95074 0.82669 0.50784 0.0
H520 H 0.85594 0.77673 0.39922 0.0
H521 H 0.96513 0.74911 0.38883 0.0
H522 H 0.87895 0.84462 0.46312 0.0
H523 H 0.88537 0.86538 0.41921 0.0
H524 H 0.84672 0.83015 0.4246 0.0
H525 H 0.02046 0.78741 0.40607 0.0
H526 H 0.01799 0.83285 0.40625 0.0
H527 H 0.0136 0.8105 0.44928 0.0
H528 H 0.99314 0.94164 0.42881 0.0
H529 H 0.98049 0.89079 0.53407 0.0
H530 H 0.93593 0.8789 0.37436 0.0
H531 H 0.98135 0.86742 0.37011 0.0
H532 H 0.9767 0.91237 0.3711 0.0
H533 H 0.9203 0.81681 0.50344 0.0
H534 H 0.95634 0.83199 0.53838 0.0
H535 H 0.96589 0.80585 0.49831 0.0
C536 C 0.38093 0.74831 0.65029 0.0
C537 C 0.36637 0.76148 0.61831 0.0
C538 C 0.40238 0.72184 0.64711 0.0
C539 C 0.40994 0.70864 0.61105 0.0
C540 C 0.39524 0.72188 0.57869 0.0
C541 C 0.3737 0.74816 0.58272 0.0
C542 C 0.41743 0.70836 0.68228 0.0
C543 C 0.40286 0.70873 0.53972 0.0
C544 C 0.49523 0.66574 0.59572 0.0
C545 C 0.47873 0.63076 0.59213 0.0
C546 C 0.47329 0.69132 0.6029 0.0
C547 C 0.43395 0.6816 0.60687 0.0
C548 C 0.4174 0.64614 0.6047 0.0
C549 C 0.43998 0.62115 0.59717 0.0
C550 C 0.49203 0.72882 0.60483 0.0
C551 C 0.37567 0.63467 0.60916 0.0
H552 H 0.37582 0.75903 0.67778 0.0
H553 H 0.363 0.75869 0.55793 0.0
H554 H 0.40849 0.67992 0.68295 0.0
H555 H 0.44857 0.71367 0.68232 0.0
H556 H 0.40774 0.72032 0.70821 0.0
H557 H 0.38887 0.72131 0.51749 0.0
H558 H 0.43353 0.71351 0.53475 0.0
H559 H 0.39297 0.68039 0.53703 0.0
H560 H 0.52518 0.67326 0.59175 0.0
H561 H 0.42716 0.59408 0.5945 0.0
H562 H 0.48475 0.74156 0.63131 0.0
H563 H 0.48166 0.74256 0.58128 0.0
H564 H 0.52308 0.73197 0.60324 0.0
H565 H 0.3663 0.64601 0.63557 0.0
H566 H 0.3676 0.60609 0.60953 0.0
H567 H 0.36038 0.64414 0.58563 0.0
C568 C 0.90877 0.92553 0.84207 0.0
C569 C 0.89551 0.8905 0.84816 0.0
C570 C 0.92705 0.93597 0.80883 0.0
C571 C 0.93228 0.91072 0.78109 0.0
C572 C 0.92059 0.87521 0.78782 0.0
C573 C 0.90226 0.8655 0.82133 0.0
C574 C 0.93926 0.97411 0.80272 0.0
C575 C 0.92586 0.84758 0.75893 0.0
C576 C 0.93599 0.94178 0.68159 0.0
C577 C 0.9747 0.94907 0.67565 0.0
C578 C 0.9218 0.92825 0.71545 0.0
C579 C 0.94702 0.92181 0.74391 0.0
C580 C 0.98614 0.92797 0.73751 0.0
C581 C 0.99957 0.94165 0.70335 0.0
C582 C 0.87989 0.922 0.72125 0.0
C583 C 0.01379 0.92115 0.76713 0.0
H584 H 0.90418 0.94488 0.86307 0.0
H585 H 0.89182 0.83839 0.82583 0.0
H586 H 0.96921 0.9796 0.79473 0.0
H587 H 0.92263 0.982 0.77922 0.0
H588 H 0.9355 0.99025 0.8281 0.0
H589 H 0.91895 0.8212 0.77008 0.0
H590 H 0.90748 0.84897 0.73411 0.0
H591 H 0.95525 0.85183 0.74908 0.0
H592 H 0.91676 0.94744 0.66009 0.0
H593 H 0.02955 0.94719 0.69864 0.0
H594 H 0.87305 0.93931 0.74441 0.0
H595 H 0.87004 0.89502 0.72956 0.0
H596 H 0.86406 0.92671 0.69561 0.0
H597 H 0.01315 0.93906 0.79174 0.0
H598 H 0.04297 0.92463 0.7566 0.0
H599 H 0.00589 0.89445 0.7771 0.0
C600 C 0.75946 0.14744 0.28284 0.0
C601 C 0.74336 0.1658 0.31094 0.0
C602 C 0.73868 0.13334 0.2507 0.0
C603 C 0.7011 0.13828 0.24605 0.0
C604 C 0.68497 0.1575 0.27373 0.0
C605 C 0.70604 0.17056 0.30597 0.0
C606 C 0.75668 0.11248 0.22213 0.0
C607 C 0.64512 0.16371 0.26967 0.0
C608 C 0.65437 0.12271 0.14908 0.0
C609 C 0.63181 0.09025 0.15291 0.0
C610 C 0.67708 0.13882 0.17919 0.0
C611 C 0.67781 0.1216 0.21348 0.0
C612 C 0.65548 0.08853 0.2171 0.0
C613 C 0.63245 0.07347 0.18694 0.0
C614 C 0.69985 0.17442 0.17455 0.0
C615 C 0.65595 0.06897 0.25285 0.0
H616 H 0.78839 0.14405 0.28588 0.0
H617 H 0.69284 0.18399 0.32767 0.0
H618 H 0.74081 0.08561 0.22 0.0
H619 H 0.75561 0.12354 0.19399 0.0
H620 H 0.7864 0.1116 0.22946 0.0
H621 H 0.63783 0.18164 0.29203 0.0
H622 H 0.6409 0.17462 0.24194 0.0
H623 H 0.6253 0.13883 0.27094 0.0
H624 H 0.65382 0.13572 0.12276 0.0
H625 H 0.61525 0.0482 0.18985 0.0
H626 H 0.73007 0.17401 0.17952 0.0
H627 H 0.69139 0.19277 0.19576 0.0
H628 H 0.69623 0.18429 0.14613 0.0
H629 H 0.68511 0.06607 0.26006 0.0
H630 H 0.63819 0.04287 0.25052 0.0
H631 H 0.64569 0.08367 0.27648 0.0
C632 C 0.43779 0.60985 0.26987 0.0
C633 C 0.46228 0.63885 0.25755 0.0
C634 C 0.4452 0.59406 0.3033 0.0
C635 C 0.47778 0.60779 0.32499 0.0
C636 C 0.502 0.63772 0.31315 0.0
C637 C 0.49385 0.65298 0.27964 0.0
C638 C 0.41855 0.56237 0.31507 0.0
C639 C 0.53689 0.65329 0.33554 0.0
C640 C 0.4852 0.58539 0.42762 0.0
C641 C 0.5085 0.56036 0.42574 0.0
C642 C 0.47434 0.60053 0.39503 0.0
C643 C 0.48709 0.59048 0.35961 0.0
C644 C 0.50985 0.56465 0.3574 0.0
C645 C 0.52024 0.54989 0.39043 0.0
C646 C 0.44994 0.62789 0.39861 0.0
C647 C 0.52402 0.55318 0.32017 0.0
H648 H 0.41311 0.59924 0.25296 0.0
H649 H 0.51251 0.67569 0.27034 0.0
H650 H 0.43342 0.54001 0.31571 0.0
H651 H 0.40852 0.56657 0.34389 0.0
H652 H 0.39382 0.55564 0.29579 0.0
H653 H 0.55228 0.67708 0.323 0.0
H654 H 0.52937 0.65973 0.36471 0.0
H655 H 0.55603 0.63421 0.33721 0.0
H656 H 0.47585 0.59367 0.45468 0.0
H657 H 0.53826 0.53064 0.38856 0.0
H658 H 0.42458 0.6208 0.38031 0.0
H659 H 0.46553 0.65288 0.38904 0.0
H660 H 0.44093 0.63166 0.42794 0.0
H661 H 0.5001 0.54434 0.30041 0.0
H662 H 0.54026 0.53189 0.32304 0.0
H663 H 0.54228 0.57532 0.30742 0.0
C664 C 0.11271 0.37559 0.78973 0.0
C665 C 0.15159 0.3779 0.78554 0.0
C666 C 0.09809 0.39431 0.8187 0.0
C667 C 0.1229 0.41596 0.84405 0.0
C668 C 0.16208 0.41733 0.84083 0.0
C669 C 0.17589 0.39825 0.8118 0.0
C670 C 0.05611 0.39194 0.82127 0.0
C671 C 0.18957 0.43995 0.86725 0.0
C672 C 0.09061 0.49497 0.88826 0.0
C673 C 0.08192 0.48452 0.92483 0.0
C674 C 0.10377 0.47286 0.86179 0.0
C675 C 0.1082 0.43926 0.87201 0.0
C676 C 0.09933 0.4285 0.90895 0.0
C677 C 0.08631 0.45131 0.93492 0.0
C678 C 0.11312 0.48555 0.82288 0.0
C679 C 0.10346 0.3929 0.92098 0.0
H680 H 0.09368 0.36012 0.76955 0.0
H681 H 0.20595 0.39963 0.80936 0.0
H682 H 0.04683 0.38625 0.85034 0.0
H683 H 0.04842 0.41715 0.81444 0.0
H684 H 0.04055 0.37167 0.80174 0.0
H685 H 0.21899 0.43645 0.86255 0.0
H686 H 0.18781 0.46751 0.86335 0.0
H687 H 0.18239 0.43422 0.89684 0.0
H688 H 0.08717 0.52061 0.88027 0.0
H689 H 0.07916 0.44301 0.96295 0.0
H690 H 0.09606 0.46819 0.80158 0.0
H691 H 0.14307 0.48499 0.81702 0.0
H692 H 0.10794 0.51229 0.81932 0.0
H693 H 0.08561 0.37299 0.90277 0.0
H694 H 0.09548 0.38852 0.9507 0.0
H695 H 0.13292 0.38915 0.91756 0.0
C696 C 0.77911 0.91102 0.96915 0.0
C697 C 0.78859 0.90599 0.93153 0.0
C698 C 0.74813 0.92631 0.97849 0.0
C699 C 0.72668 0.93767 0.94955 0.0
C700 C 0.73657 0.93356 0.9116 0.0
C701 C 0.76714 0.91737 0.903 0.0
C702 C 0.73807 0.92988 0.01931 0.0
C703 C 0.71463 0.94592 0.88007 0.0
C704 C 0.62693 0.94691 0.97256 0.0
C705 C 0.63144 0.9821 0.98282 0.0
C706 C 0.65769 0.93214 0.96114 0.0
C707 C 0.69349 0.95333 0.95917 0.0
C708 C 0.69787 0.98917 0.96807 0.0
C709 C 0.6668 0.00308 0.98027 0.0
C710 C 0.65214 0.89369 0.95255 0.0
C711 C 0.73548 0.01266 0.96541 0.0
H712 H 0.7959 0.90293 0.99141 0.0
H713 H 0.77375 0.91308 0.87382 0.0
H714 H 0.73904 0.95751 0.02738 0.0
H715 H 0.70894 0.91628 0.02371 0.0
H716 H 0.75727 0.91914 0.03835 0.0
H717 H 0.72731 0.94256 0.85222 0.0
H718 H 0.68542 0.93142 0.87935 0.0
H719 H 0.71312 0.97366 0.88493 0.0
H720 H 0.59962 0.93061 0.97486 0.0
H721 H 0.67019 0.03039 0.9879 0.0
H722 H 0.669 0.88149 0.97264 0.0
H723 H 0.66219 0.88855 0.92397 0.0
H724 H 0.62226 0.88106 0.95437 0.0
H725 H 0.75544 0.00539 0.98625 0.0
H726 H 0.73352 0.04029 0.97063 0.0
H727 H 0.74743 0.00964 0.93718 0.0
C728 C 0.82613 0.11891 0.41957 0.0
C729 C 0.83698 0.15439 0.41394 0.0
C730 C 0.84984 0.1003 0.43868 0.0
C731 C 0.88546 0.11748 0.45217 0.0
C732 C 0.89696 0.1531 0.44568 0.0
C733 C 0.87251 0.17115 0.42687 0.0
C734 C 0.83632 0.06246 0.44536 0.0
C735 C 0.93489 0.17227 0.45912 0.0
C736 C 0.92934 0.07978 0.53518 0.0
C737 C 0.95449 0.06137 0.51747 0.0
C738 C 0.90679 0.09814 0.51425 0.0
C739 C 0.90987 0.09856 0.47464 0.0
C740 C 0.93581 0.08054 0.45667 0.0
C741 C 0.95761 0.06192 0.4783 0.0
C742 C 0.87932 0.11675 0.53452 0.0
C743 C 0.94041 0.08079 0.41461 0.0
H744 H 0.79857 0.1059 0.41 0.0
H745 H 0.88118 0.19849 0.42224 0.0
H746 H 0.85678 0.04689 0.43422 0.0
H747 H 0.83423 0.05835 0.47599 0.0
H748 H 0.80845 0.05264 0.43197 0.0
H749 H 0.94048 0.1994 0.44995 0.0
H750 H 0.93654 0.17253 0.49024 0.0
H751 H 0.9574 0.15886 0.44841 0.0
H752 H 0.92684 0.07942 0.56547 0.0
H753 H 0.97714 0.04781 0.46453 0.0
H754 H 0.85035 0.10652 0.52415 0.0
H755 H 0.88536 0.14468 0.5286 0.0
H756 H 0.88035 0.1139 0.56541 0.0
H757 H 0.9137 0.06854 0.40048 0.0
H758 H 0.963 0.06683 0.40516 0.0
H759 H 0.94705 0.1078 0.40528 0.0
C760 C 0.29813 0.65124 0.15416 0.0
C761 C 0.32796 0.66517 0.13131 0.0
C762 C 0.26422 0.63335 0.13845 0.0
C763 C 0.26006 0.62912 0.09891 0.0
C764 C 0.29009 0.64305 0.07568 0.0
C765 C 0.32364 0.661 0.09216 0.0
C766 C 0.23276 0.61911 0.16418 0.0
C767 C 0.28683 0.63884 0.03343 0.0
C768 C 0.18452 0.55568 0.06193 0.0
C769 C 0.15494 0.57311 0.05348 0.0
C770 C 0.21912 0.57367 0.07599 0.0
C771 C 0.22428 0.60998 0.08199 0.0
C772 C 0.19482 0.62783 0.07293 0.0
C773 C 0.16057 0.60921 0.05867 0.0
C774 C 0.24995 0.55373 0.08507 0.0
C775 C 0.19919 0.66652 0.07908 0.0
H776 H 0.30113 0.65478 0.18441 0.0
H777 H 0.34675 0.67142 0.07438 0.0
H778 H 0.20743 0.63027 0.15766 0.0
H779 H 0.22509 0.59068 0.15957 0.0
H780 H 0.24041 0.62478 0.1943 0.0
H781 H 0.31274 0.65126 0.01934 0.0
H782 H 0.28102 0.61097 0.02501 0.0
H783 H 0.26291 0.65031 0.0231 0.0
H784 H 0.1806 0.52783 0.05789 0.0
H785 H 0.13793 0.62297 0.05235 0.0
H786 H 0.25669 0.55644 0.11559 0.0
H787 H 0.2759 0.56445 0.07007 0.0
H788 H 0.24205 0.52579 0.07726 0.0
H789 H 0.20415 0.67345 0.10939 0.0
H790 H 0.17405 0.67667 0.06949 0.0
H791 H 0.22399 0.67965 0.06388 0.0
C792 C 0.34156 0.38207 0.66521 0.0
C793 C 0.30895 0.39602 0.67113 0.0
C794 C 0.36984 0.39783 0.64154 0.0
C795 C 0.36551 0.42844 0.6234 0.0
C796 C 0.33255 0.44263 0.62915 0.0
C797 C 0.30482 0.42644 0.65328 0.0
C798 C 0.40473 0.38208 0.63659 0.0
C799 C 0.32688 0.47519 0.61031 0.0
C800 C 0.45646 0.48447 0.59417 0.0
C801 C 0.45888 0.47368 0.55649 0.0
C802 C 0.42559 0.47083 0.61593 0.0
C803 C 0.39622 0.44604 0.59952 0.0
C804 C 0.39767 0.43634 0.56097 0.0
C805 C 0.42909 0.45019 0.53993 0.0
C806 C 0.42529 0.48181 0.65693 0.0
C807 C 0.36672 0.41034 0.54233 0.0
H808 H 0.34521 0.35898 0.67959 0.0
H809 H 0.28003 0.43774 0.65849 0.0
H810 H 0.40884 0.37634 0.60637 0.0
H811 H 0.42973 0.40076 0.64676 0.0
H812 H 0.40342 0.35783 0.65206 0.0
H813 H 0.2989 0.48193 0.61616 0.0
H814 H 0.34883 0.49712 0.62018 0.0
H815 H 0.32981 0.47212 0.57947 0.0
H816 H 0.47938 0.50271 0.60709 0.0
H817 H 0.43077 0.44195 0.51076 0.0
H818 H 0.42731 0.45944 0.67455 0.0
H819 H 0.39852 0.49048 0.66377 0.0
H820 H 0.44893 0.50305 0.66473 0.0
H821 H 0.3662 0.38464 0.55447 0.0
H822 H 0.3704 0.40785 0.5115 0.0
H823 H 0.33903 0.41782 0.5477 0.0
C824 C 0.88473 0.75725 0.98815 0.0
C825 C 0.86564 0.75589 0.95358 0.0
C826 C 0.90821 0.73348 0.99586 0.0
C827 C 0.91198 0.70742 0.96855 0.0
C828 C 0.89241 0.7057 0.93372 0.0
C829 C 0.8695 0.73009 0.9266 0.0
C830 C 0.92883 0.73616 0.0332 0.0
C831 C 0.89536 0.67789 0.9042 0.0
C832 C 0.99485 0.66045 0.97284 0.0
C833 C 0.97868 0.62981 0.9896 0.0
C834 C 0.97364 0.6864 0.96648 0.0
C835 C 0.93543 0.68118 0.97683 0.0
C836 C 0.91922 0.65045 0.99434 0.0
C837 C 0.94116 0.62519 1.00071 0.0
C838 C 0.9919 0.71913 0.94825 0.0
C839 C 0.8785 0.64389 0.00555 0.0
H840 H 0.88138 0.77711 0.00906 0.0
H841 H 0.85446 0.72893 0.89999 0.0
H842 H 0.91978 0.71231 0.04893 0.0
H843 H 0.95945 0.73848 0.02868 0.0
H844 H 0.92383 0.7587 0.05082 0.0
H845 H 0.87853 0.68036 0.87849 0.0
H846 H 0.92509 0.67903 0.89622 0.0
H847 H 0.88553 0.65203 0.91571 0.0
H848 H 0.02394 0.66401 0.96442 0.0
H849 H 0.92867 0.60148 0.01379 0.0
H850 H 0.98845 0.74201 0.96606 0.0
H851 H 0.97793 0.72141 0.92081 0.0
H852 H 0.02232 0.71983 0.94353 0.0
H853 H 0.87275 0.66503 0.02479 0.0
H854 H 0.87051 0.61895 0.01968 0.0
H855 H 0.86024 0.64358 0.98029 0.0
C856 C 0.43777 0.7722 0.09749 0.0
C857 C 0.43153 0.76857 0.13607 0.0
C858 C 0.45431 0.80413 0.08324 0.0
C859 C 0.46429 0.83323 0.10811 0.0
C860 C 0.45758 0.82976 0.14704 0.0
C861 C 0.44157 0.79742 0.16057 0.0
C862 C 0.4616 0.80663 0.04168 0.0
C863 C 0.46728 0.86025 0.17444 0.0
C864 C 0.5393 0.90945 0.08418 0.0
C865 C 0.51765 0.93393 0.0737 0.0
C866 C 0.52229 0.87609 0.09391 0.0
C867 C 0.48262 0.8672 0.0938 0.0
C868 C 0.46064 0.89152 0.08204 0.0
C869 C 0.47846 0.92455 0.07178 0.0
C870 C 0.54678 0.85072 0.10545 0.0
C871 C 0.4183 0.88318 0.08186 0.0
H872 H 0.43025 0.74986 0.07852 0.0
H873 H 0.43635 0.79478 0.19033 0.0
H874 H 0.44725 0.82663 0.02974 0.0
H875 H 0.49211 0.81472 0.03704 0.0
H876 H 0.45181 0.7817 0.02605 0.0
H877 H 0.45903 0.85353 0.20359 0.0
H878 H 0.49794 0.87013 0.1743 0.0
H879 H 0.45302 0.88159 0.16579 0.0
H880 H 0.56964 0.91659 0.08536 0.0
H881 H 0.46167 0.94346 0.06368 0.0
H882 H 0.53859 0.82583 0.08938 0.0
H883 H 0.54278 0.84529 0.13564 0.0
H884 H 0.57704 0.86059 0.10092 0.0
H885 H 0.40821 0.85883 0.06538 0.0
H886 H 0.40534 0.90412 0.0699 0.0
H887 H 0.40836 0.87913 0.11101 0.0
C888 C 0.11152 0.26513 0.68951 0.0
C889 C 0.15034 0.27483 0.69577 0.0
C890 C 0.09616 0.23252 0.67322 0.0
C891 C 0.12014 0.20892 0.6632 0.0
C892 C 0.1592 0.21816 0.67066 0.0
C893 C 0.17379 0.25096 0.68673 0.0
C894 C 0.0544 0.22377 0.66561 0.0
C895 C 0.18576 0.19372 0.66083 0.0
C896 C 0.07898 0.11352 0.64477 0.0
C897 C 0.0776 0.11097 0.60534 0.0
C898 C 0.09251 0.1452 0.664 0.0
C899 C 0.10477 0.17519 0.64338 0.0
C900 C 0.10319 0.17285 0.60361 0.0
C901 C 0.08978 0.14084 0.58512 0.0
C902 C 0.09397 0.14652 0.70639 0.0
C903 C 0.11579 0.20418 0.5805 0.0
H904 H 0.09326 0.28352 0.69614 0.0
H905 H 0.20376 0.25808 0.69197 0.0
H906 H 0.04894 0.22047 0.63488 0.0
H907 H 0.04254 0.1989 0.67831 0.0
H908 H 0.03934 0.24412 0.67684 0.0
H909 H 0.21506 0.20405 0.67027 0.0
H910 H 0.17645 0.16845 0.67384 0.0
H911 H 0.18552 0.18883 0.62997 0.0
H912 H 0.06969 0.09068 0.66074 0.0
H913 H 0.08867 0.13934 0.55469 0.0
H914 H 0.07736 0.16569 0.71748 0.0
H915 H 0.12336 0.1551 0.71645 0.0
H916 H 0.08297 0.12104 0.71833 0.0
H917 H 0.09979 0.22489 0.58838 0.0
H918 H 0.11195 0.19826 0.54986 0.0
H919 H 0.1459 0.21457 0.58639 0.0
C920 C 0.71719 0.29609 0.47817 0.0
C921 C 0.72653 0.28318 0.44306 0.0
C922 C 0.69834 0.32433 0.48116 0.0
C923 C 0.68841 0.33999 0.44817 0.0
C924 C 0.69816 0.32733 0.41261 0.0
C925 C 0.71675 0.2988 0.41045 0.0
C926 C 0.68811 0.33675 0.51961 0.0
C927 C 0.68819 0.34341 0.37683 0.0
C928 C 0.60608 0.38755 0.4582 0.0
C929 C 0.62437 0.42169 0.46509 0.0
C930 C 0.62658 0.36086 0.45137 0.0
C931 C 0.66632 0.36858 0.45114 0.0
C932 C 0.68484 0.4033 0.45644 0.0
C933 C 0.66362 0.42945 0.46354 0.0
C934 C 0.60573 0.32419 0.44603 0.0
C935 C 0.72712 0.41264 0.45599 0.0
H936 H 0.72397 0.28357 0.50337 0.0
H937 H 0.72314 0.28832 0.38323 0.0
H938 H 0.69957 0.36469 0.52401 0.0
H939 H 0.65713 0.33355 0.52174 0.0
H940 H 0.69887 0.32245 0.5425 0.0
H941 H 0.69996 0.33205 0.35164 0.0
H942 H 0.65723 0.33963 0.37335 0.0
H943 H 0.69876 0.37168 0.3783 0.0
H944 H 0.57572 0.38148 0.45941 0.0
H945 H 0.67783 0.45586 0.46877 0.0
H946 H 0.61249 0.30861 0.46975 0.0
H947 H 0.61474 0.3121 0.41991 0.0
H948 H 0.57481 0.32279 0.44458 0.0
H949 H 0.73925 0.40148 0.48046 0.0
H950 H 0.73702 0.44106 0.45713 0.0
H951 H 0.73813 0.4015 0.43029 0.0
loop_
_geom_bond_atom_site_label_1
_geom_bond_atom_site_label_2
_geom_bond_distance
_geom_bond_site_symmetry_2
_ccdc_geom_bond_type
H0 C7 0.929 . S
H1 C10 0.930 . S
H2 C12 0.929 . S
H3 C4 0.969 . S
C4 H3 0.969 . S
C4 O5 1.550 . S
C4 H6 0.973 . S
O5 C4 1.550 . S
O5 C11 1.412 . S
H6 C4 0.973 . S
C7 H0 0.929 . S
C7 C8 1.400 . S
C7 C9 1.364 . S
C8 C7 1.400 . S
C8 C12 1.377 . S
C9 C7 1.364 . S
C9 C10 1.374 . S
C10 H1 0.930 . S
C10 C9 1.374 . S
C10 C11 1.383 . S
C11 O5 1.412 . S
C11 C10 1.383 . S
C11 C12 1.394 . S
C12 H2 0.929 . S
C12 C8 1.377 . S
C12 C11 1.394 . S
H13 C20 0.929 . S
H14 C23 0.930 . S
H15 C25 0.929 . S
H16 C17 0.969 . S
C17 H16 0.969 . S
C17 O18 1.550 . S
C17 H19 0.973 . S
O18 C17 1.550 . S
O18 C24 1.412 . S
H19 C17 0.973 . S
C20 H13 0.929 . S
C20 C21 1.400 . S
C20 C22 1.364 . S
C21 C20 1.400 . S
C21 C25 1.377 . S
C22 C20 1.364 . S
C22 C23 1.374 . S
C23 H14 0.930 . S
C23 C22 1.374 . S
C23 C24 1.383 . S
C24 O18 1.412 . S
C24 C23 1.383 . S
C24 C25 1.394 . S
C25 H15 0.929 . S
C25 C21 1.377 . S
C25 C24 1.394 . S
H26 C33 0.929 . S
H27 C36 0.930 . S
H28 C38 0.929 . S
H29 C30 0.969 . S
C30 H29 0.969 . S
C30 O31 1.550 . S
C30 H32 0.973 . S
O31 C30 1.550 . S
O31 C37 1.412 . S
H32 C30 0.973 . S
C33 H26 0.929 . S
C33 C34 1.400 . S
C33 C35 1.364 . S
C34 C33 1.400 . S
C34 C38 1.377 . S
C35 C33 1.364 . S
C35 C36 1.374 . S
C36 H27 0.930 . S
C36 C35 1.374 . S
C36 C37 1.383 . S
C37 O31 1.412 . S
C37 C36 1.383 . S
C37 C38 1.394 . S
C38 H28 0.929 . S
C38 C34 1.377 . S
C38 C37 1.394 . S
H39 C46 0.929 . S
H40 C49 0.930 . S
H41 C51 0.929 . S
H42 C43 0.969 . S
C43 H42 0.969 . S
C43 O44 1.550 . S
C43 H45 0.973 . S
O44 C43 1.550 . S
O44 C50 1.412 . S
H45 C43 0.973 . S
C46 H39 0.929 . S
C46 C47 1.400 . S
C46 C48 1.364 . S
C47 C46 1.400 . S
C47 C51 1.377 . S
C48 C46 1.364 . S
C48 C49 1.374 . S
C49 H40 0.930 . S
C49 C48 1.374 . S
C49 C50 1.383 . S
C50 O44 1.412 . S
C50 C49 1.383 . S
C50 C51 1.394 . S
C51 H41 0.929 . S
C51 C47 1.377 . S
C51 C50 1.394 . S
H52 C59 0.929 . S
H53 C62 0.930 . S
H54 C64 0.929 . S
H55 C56 0.969 . S
C56 H55 0.969 . S
C56 O57 1.550 . S
C56 H58 0.973 . S
O57 C56 1.550 . S
O57 C63 1.412 . S
H58 C56 0.973 . S
C59 H52 0.929 . S
C59 C60 1.400 . S
C59 C61 1.364 . S
C60 C59 1.400 . S
C60 C64 1.377 . S
C61 C59 1.364 . S
C61 C62 1.374 . S
C62 H53 0.930 . S
C62 C61 1.374 . S
C62 C63 1.383 . S
C63 O57 1.412 . S
C63 C62 1.383 . S
C63 C64 1.394 . S
C64 H54 0.929 . S
C64 C60 1.377 . S
C64 C63 1.394 . S
H65 C72 0.929 . S
H66 C75 0.930 . S
H67 C77 0.929 . S
H68 C69 0.969 . S
C69 H68 0.969 . S
C69 O70 1.550 . S
C69 H71 0.973 . S
O70 C69 1.550 . S
O70 C76 1.412 . S
H71 C69 0.973 . S
C72 H65 0.929 . S
C72 C73 1.400 . S
C72 C74 1.364 . S
C73 C72 1.400 . S
C73 C77 1.377 . S
C74 C72 1.364 . S
C74 C75 1.374 . S
C75 H66 0.930 . S
C75 C74 1.374 . S
C75 C76 1.383 . S
C76 O70 1.412 . S
C76 C75 1.383 . S
C76 C77 1.394 . S
C77 H67 0.929 . S
C77 C73 1.377 . S
C77 C76 1.394 . S
H78 C85 0.929 . S
H79 C88 0.930 . S
H80 C90 0.929 . S
H81 C82 0.969 . S
C82 H81 0.969 . S
C82 O83 1.550 . S
C82 H84 0.973 . S
O83 C82 1.550 . S
O83 C89 1.412 . S
H84 C82 0.973 . S
C85 H78 0.929 . S
C85 C86 1.400 . S
C85 C87 1.364 . S
C86 C85 1.400 . S
C86 C90 1.377 . S
C87 C85 1.364 . S
C87 C88 1.374 . S
C88 H79 0.930 . S
C88 C87 1.374 . S
C88 C89 1.383 . S
C89 O83 1.412 . S
C89 C88 1.383 . S
C89 C90 1.394 . S
C90 H80 0.929 . S
C90 C86 1.377 . S
C90 C89 1.394 . S
H91 C98 0.929 . S
H92 C101 0.930 . S
H93 C103 0.929 . S
H94 C95 0.969 . S
C95 H94 0.969 . S
C95 O96 1.550 . S
C95 H97 0.973 . S
O96 C95 1.550 . S
O96 C102 1.412 . S
H97 C95 0.973 . S
C98 H91 0.929 . S
C98 C99 1.400 . S
C98 C100 1.364 . S
C99 C98 1.400 . S
C99 C103 1.377 . S
C100 C98 1.364 . S
C100 C101 1.374 . S
C101 H92 0.930 . S
C101 C100 1.374 . S
C101 C102 1.383 . S
C102 O96 1.412 . S
C102 C101 1.383 . S
C102 C103 1.394 . S
C103 H93 0.929 . S
C103 C99 1.377 . S
C103 C102 1.394 . S
Dy104 O108 2.398 . S
Dy104 O109 2.491 . S
Dy104 O110 2.403 . S
Dy104 O111 2.664 . S
Dy104 O115 2.326 . S
Dy104 O119 2.310 1_455 S
Dy104 O120 2.351 1_545 S
C105 O116 1.185 . S
C105 O117 1.355 . S
C106 O108 1.185 . S
C106 O109 1.355 . S
Dy107 O111 2.310 1_655 S
Dy107 O114 2.351 1_655 S
Dy107 O116 2.398 1_545 S
Dy107 O117 2.491 1_545 S
Dy107 O118 2.403 . S
Dy107 O119 2.664 . S
Dy107 O121 2.326 1_545 S
O108 Dy104 2.398 . S
O108 C106 1.185 . S
O109 Dy104 2.491 . S
O109 C106 1.355 . S
O110 Dy104 2.403 . S
O110 C112 1.254 . S
O111 Dy104 2.664 . S
O111 Dy107 2.310 1_455 S
O111 C112 1.268 . S
C112 O110 1.254 . S
C112 O111 1.268 . S
C113 O118 1.254 . S
C113 O119 1.268 . S
O114 Dy107 2.351 1_455 S
O114 C122 1.249 . S
O115 Dy104 2.326 . S
O115 C122 1.267 . S
O116 C105 1.185 . S
O116 Dy107 2.398 1_565 S
O117 C105 1.355 . S
O117 Dy107 2.491 1_565 S
O118 Dy107 2.403 . S
O118 C113 1.254 . S
O119 Dy104 2.310 1_655 S
O119 Dy107 2.664 . S
O119 C113 1.268 . S
O120 Dy104 2.351 1_565 S
O120 C123 1.249 1_455 S
O121 Dy107 2.326 1_565 S
O121 C123 1.267 . S
C122 O114 1.249 . S
C122 O115 1.267 . S
C123 O120 1.249 1_655 S
C123 O121 1.267 . S
Dy124 O128 2.398 . S
Dy124 O129 2.491 . S
Dy124 O130 2.403 1_545 S
Dy124 O131 2.664 1_545 S
Dy124 O135 2.326 . S
Dy124 O139 2.310 . S
Dy124 O140 2.351 1_545 S
C125 O136 1.185 1_565 S
C125 O137 1.355 . S
C126 O128 1.185 . S
C126 O129 1.355 . S
Dy127 O131 2.310 1_546 S
Dy127 O134 2.351 1_556 S
Dy127 O136 2.398 . S
Dy127 O137 2.491 1_545 S
Dy127 O138 2.403 . S
Dy127 O139 2.664 1_556 S
Dy127 O141 2.326 1_545 S
O128 Dy124 2.398 . S
O128 C126 1.185 . S
O129 Dy124 2.491 . S
O129 C126 1.355 . S
O130 Dy124 2.403 1_565 S
O130 C132 1.254 . S
O131 Dy124 2.664 1_565 S
O131 Dy127 2.310 1_564 S
O131 C132 1.268 . S
C132 O130 1.254 . S
C132 O131 1.268 . S
C133 O138 1.254 . S
C133 O139 1.268 1_556 S
O134 Dy127 2.351 1_554 S
O134 C142 1.249 . S
O135 Dy124 2.326 . S
O135 C142 1.267 . S
O136 C125 1.185 1_545 S
O136 Dy127 2.398 . S
O137 C125 1.355 . S
O137 Dy127 2.491 1_565 S
O138 Dy127 2.403 . S
O138 C133 1.254 . S
O139 Dy124 2.310 . S
O139 Dy127 2.664 1_554 S
O139 C133 1.268 1_554 S
O140 Dy124 2.351 1_565 S
O140 C143 1.249 1_554 S
O141 Dy127 2.326 1_565 S
O141 C143 1.267 . S
C142 O134 1.249 . S
C142 O135 1.267 . S
C143 O140 1.249 1_556 S
C143 O141 1.267 . S
Dy144 O148 2.398 . S
Dy144 O149 2.491 . S
Dy144 O150 2.403 . S
Dy144 O151 2.664 . S
Dy144 O155 2.326 . S
Dy144 O159 2.310 . S
Dy144 O160 2.351 . S
C145 O156 1.185 . S
C145 O157 1.355 . S
C146 O148 1.185 . S
C146 O149 1.355 . S
Dy147 O151 2.310 . S
Dy147 O154 2.351 . S
Dy147 O156 2.398 . S
Dy147 O157 2.491 . S
Dy147 O158 2.403 . S
Dy147 O159 2.664 . S
Dy147 O161 2.326 . S
O148 Dy144 2.398 . S
O148 C146 1.185 . S
O149 Dy144 2.491 . S
O149 C146 1.355 . S
O150 Dy144 2.403 . S
O150 C152 1.254 . S
O151 Dy144 2.664 . S
O151 Dy147 2.310 . S
O151 C152 1.268 . S
C152 O150 1.254 . S
C152 O151 1.268 . S
C153 O158 1.254 . S
C153 O159 1.268 . S
O154 Dy147 2.351 . S
O154 C162 1.249 . S
O155 Dy144 2.326 . S
O155 C162 1.267 . S
O156 C145 1.185 . S
O156 Dy147 2.398 . S
O157 C145 1.355 . S
O157 Dy147 2.491 . S
O158 Dy147 2.403 . S
O158 C153 1.254 . S
O159 Dy144 2.310 . S
O159 Dy147 2.664 . S
O159 C153 1.268 . S
O160 Dy144 2.351 . S
O160 C163 1.249 . S
O161 Dy147 2.326 . S
O161 C163 1.267 . S
C162 O154 1.249 . S
C162 O155 1.267 . S
C163 O160 1.249 . S
C163 O161 1.267 . S
Dy164 O168 2.398 . S
Dy164 O169 2.491 . S
Dy164 O170 2.403 . S
Dy164 O171 2.664 . S
Dy164 O175 2.326 . S
Dy164 O179 2.310 . S
Dy164 O180 2.351 1_455 S
C165 O176 1.211 . S
C165 O177 1.355 1_556 S
C166 O168 1.185 . S
C166 O169 1.355 . S
Dy167 O171 2.310 . S
Dy167 O174 2.351 . S
Dy167 O176 2.382 1_454 S
Dy167 O177 2.491 1_455 S
Dy167 O178 2.403 1_554 S
Dy167 O179 2.664 . S
Dy167 O181 2.326 1_454 S
O168 Dy164 2.398 . S
O168 C166 1.185 . S
O169 Dy164 2.491 . S
O169 C166 1.355 . S
O170 Dy164 2.403 . S
O170 C172 1.254 . S
O171 Dy164 2.664 . S
O171 Dy167 2.310 . S
O171 C172 1.268 . S
C172 O170 1.254 . S
C172 O171 1.268 . S
C173 O178 1.254 . S
C173 O179 1.268 1_556 S
O174 Dy167 2.351 . S
O174 C182 1.249 . S
O175 Dy164 2.326 . S
O175 C182 1.267 . S
O176 C165 1.211 . S
O176 Dy167 2.382 1_656 S
O177 C165 1.355 1_554 S
O177 Dy167 2.491 1_655 S
O178 Dy167 2.403 1_556 S
O178 C173 1.254 . S
O179 Dy164 2.310 . S
O179 Dy167 2.664 . S
O179 C173 1.268 1_554 S
O180 Dy164 2.351 1_655 S
O180 C183 1.249 . S
O181 Dy167 2.326 1_656 S
O181 C183 1.267 1_556 S
C182 O174 1.249 . S
C182 O175 1.267 . S
C183 O180 1.249 . S
C183 O181 1.267 1_554 S
C184 C185 1.391 . S
C184 C186 1.394 . S
C184 H200 0.931 . S
C185 C184 1.391 . S
C185 C189 1.376 . S
C186 C184 1.394 . S
C186 C187 1.369 . S
C186 C190 1.531 . S
C187 C186 1.369 . S
C187 C188 1.410 . S
C187 C195 1.503 . S
C188 C187 1.410 . S
C188 C189 1.392 . S
C188 C191 1.511 . S
C189 C185 1.376 . S
C189 C188 1.392 . S
C189 H201 0.929 . S
C190 C186 1.531 . S
C190 H202 0.960 . S
C190 H203 0.962 . S
C190 H204 0.960 . S
C191 C188 1.511 . S
C191 H205 0.961 . S
C191 H206 0.961 . S
C191 H207 0.961 . S
C192 C193 1.370 . S
C192 C194 1.363 . S
C192 H208 0.931 . S
C193 C192 1.370 . S
C193 C197 1.408 . S
C194 C192 1.363 . S
C194 C195 1.370 . S
C194 C198 1.524 . S
C195 C187 1.503 . S
C195 C194 1.370 . S
C195 C196 1.403 . S
C196 C195 1.403 . S
C196 C197 1.404 . S
C196 C199 1.539 . S
C197 C193 1.408 . S
C197 C196 1.404 . S
C197 H209 0.930 . S
C198 C194 1.524 . S
C198 H210 0.956 . S
C198 H211 0.961 . S
C198 H212 0.961 . S
C199 C196 1.539 . S
C199 H213 0.958 . S
C199 H214 0.961 . S
C199 H215 0.960 . S
H200 C184 0.931 . S
H201 C189 0.929 . S
H202 C190 0.960 . S
H203 C190 0.962 . S
H204 C190 0.960 . S
H205 C191 0.961 . S
H206 C191 0.961 . S
H207 C191 0.961 . S
H208 C192 0.931 . S
H209 C197 0.930 . S
H210 C198 0.956 . S
H211 C198 0.961 . S
H212 C198 0.961 . S
H213 C199 0.958 . S
H214 C199 0.961 . S
H215 C199 0.960 . S
C216 C217 1.391 . S
C216 C218 1.394 . S
C216 H232 0.931 . S
C217 C216 1.391 . S
C217 C221 1.376 . S
C218 C216 1.394 . S
C218 C219 1.369 . S
C218 C222 1.531 . S
C219 C218 1.369 . S
C219 C220 1.410 . S
C219 C227 1.503 . S
C220 C219 1.410 . S
C220 C221 1.392 . S
C220 C223 1.511 . S
C221 C217 1.376 . S
C221 C220 1.392 . S
C221 H233 0.929 . S
C222 C218 1.531 . S
C222 H234 0.960 . S
C222 H235 0.962 . S
C222 H236 0.960 . S
C223 C220 1.511 . S
C223 H237 0.961 . S
C223 H238 0.961 . S
C223 H239 0.961 . S
C224 C225 1.370 . S
C224 C226 1.363 . S
C224 H240 0.931 . S
C225 C224 1.370 . S
C225 C229 1.408 . S
C226 C224 1.363 . S
C226 C227 1.370 . S
C226 C230 1.524 . S
C227 C219 1.503 . S
C227 C226 1.370 . S
C227 C228 1.403 . S
C228 C227 1.403 . S
C228 C229 1.404 . S
C228 C231 1.539 1_565 S
C229 C225 1.408 . S
C229 C228 1.404 . S
C229 H241 0.930 1_565 S
C230 C226 1.524 . S
C230 H242 0.956 . S
C230 H243 0.961 . S
C230 H244 0.961 . S
C231 C228 1.539 1_545 S
C231 H245 0.958 . S
C231 H246 0.961 . S
C231 H247 0.967 . S
H232 C216 0.931 . S
H233 C221 0.929 . S
H234 C222 0.960 . S
H235 C222 0.962 . S
H236 C222 0.960 . S
H237 C223 0.961 . S
H238 C223 0.961 . S
H239 C223 0.961 . S
H240 C224 0.931 . S
H241 C229 0.930 1_545 S
H242 C230 0.956 . S
H243 C230 0.961 . S
H244 C230 0.961 . S
H245 C231 0.958 . S
H246 C231 0.961 . S
H247 C231 0.967 . S
C248 C249 1.391 . S
C248 C250 1.394 . S
C248 H264 0.931 . S
C249 C248 1.391 . S
C249 C253 1.376 . S
C250 C248 1.394 . S
C250 C251 1.369 . S
C250 C254 1.531 . S
C251 C250 1.369 . S
C251 C252 1.410 . S
C251 C259 1.503 . S
C252 C251 1.410 . S
C252 C253 1.392 . S
C252 C255 1.511 . S
C253 C249 1.376 . S
C253 C252 1.392 . S
C253 H265 0.929 . S
C254 C250 1.531 . S
C254 H266 0.960 . S
C254 H267 0.962 . S
C254 H268 0.960 . S
C255 C252 1.511 . S
C255 H269 0.961 . S
C255 H270 0.961 . S
C255 H271 0.961 . S
C256 C257 1.370 . S
C256 C258 1.363 . S
C256 H272 0.931 . S
C257 C256 1.370 . S
C257 C261 1.408 . S
C258 C256 1.363 . S
C258 C259 1.370 . S
C258 C262 1.524 . S
C259 C251 1.503 . S
C259 C258 1.370 . S
C259 C260 1.403 . S
C260 C259 1.403 . S
C260 C261 1.404 . S
C260 C263 1.539 . S
C261 C257 1.408 . S
C261 C260 1.404 . S
C261 H273 0.930 . S
C262 C258 1.524 . S
C262 H274 0.956 . S
C262 H275 0.961 . S
C262 H276 0.961 . S
C263 C260 1.539 . S
C263 H277 0.958 . S
C263 H278 0.961 . S
C263 H279 0.960 . S
H264 C248 0.931 . S
H265 C253 0.929 . S
H266 C254 0.960 . S
H267 C254 0.962 . S
H268 C254 0.960 . S
H269 C255 0.961 . S
H270 C255 0.961 . S
H271 C255 0.961 . S
H272 C256 0.931 . S
H273 C261 0.930 . S
H274 C262 0.956 . S
H275 C262 0.961 . S
H276 C262 0.961 . S
H277 C263 0.958 . S
H278 C263 0.961 . S
H279 C263 0.960 . S
C280 C281 1.391 . S
C280 C282 1.394 . S
C280 H296 0.931 . S
C281 C280 1.391 . S
C281 C285 1.376 . S
C282 C280 1.394 . S
C282 C283 1.369 . S
C282 C286 1.531 . S
C283 C282 1.369 . S
C283 C284 1.410 . S
C283 C291 1.503 . S
C284 C283 1.410 . S
C284 C285 1.392 . S
C284 C287 1.511 1_655 S
C285 C281 1.376 . S
C285 C284 1.392 . S
C285 H297 0.929 . S
C286 C282 1.531 . S
C286 H298 0.960 . S
C286 H299 0.962 . S
C286 H300 0.960 . S
C287 C284 1.511 1_455 S
C287 H301 0.961 . S
C287 H302 0.961 . S
C287 H303 0.961 . S
C288 C289 1.370 . S
C288 C290 1.363 . S
C288 H304 0.931 . S
C289 C288 1.370 . S
C289 C293 1.408 . S
C290 C288 1.363 . S
C290 C291 1.370 . S
C290 C294 1.524 . S
C291 C283 1.503 . S
C291 C290 1.370 . S
C291 C292 1.403 . S
C292 C291 1.403 . S
C292 C293 1.404 . S
C292 C295 1.539 . S
C293 C289 1.408 . S
C293 C292 1.404 . S
C293 H305 0.931 . S
C294 C290 1.524 . S
C294 H306 0.956 . S
C294 H307 0.961 . S
C294 H308 0.961 . S
C295 C292 1.539 . S
C295 H309 0.958 . S
C295 H310 0.961 1_655 S
C295 H311 0.960 . S
H296 C280 0.931 . S
H297 C285 0.929 . S
H298 C286 0.960 . S
H299 C286 0.962 . S
H300 C286 0.960 . S
H301 C287 0.961 . S
H302 C287 0.961 . S
H303 C287 0.961 . S
H304 C288 0.931 . S
H305 C293 0.931 . S
H306 C294 0.956 . S
H307 C294 0.961 . S
H308 C294 0.961 . S
H309 C295 0.958 . S
H310 C295 0.961 1_455 S
H311 C295 0.960 . S
C312 C313 1.391 . S
C312 C314 1.394 . S
C312 H328 0.931 . S
C313 C312 1.391 . S
C313 C317 1.376 . S
C314 C312 1.394 . S
C314 C315 1.369 . S
C314 C318 1.531 . S
C315 C314 1.369 . S
C315 C316 1.410 . S
C315 C323 1.503 . S
C316 C315 1.410 . S
C316 C317 1.392 . S
C316 C319 1.511 . S
C317 C313 1.376 . S
C317 C316 1.392 . S
C317 H329 0.929 . S
C318 C314 1.531 . S
C318 H330 0.960 . S
C318 H331 0.962 . S
C318 H332 0.960 . S
C319 C316 1.511 . S
C319 H333 0.961 . S
C319 H334 0.961 . S
C319 H335 0.961 . S
C320 C321 1.370 . S
C320 C322 1.363 . S
C320 H336 0.931 . S
C321 C320 1.370 . S
C321 C325 1.408 . S
C322 C320 1.363 . S
C322 C323 1.370 . S
C322 C326 1.524 . S
C323 C315 1.503 . S
C323 C322 1.370 . S
C323 C324 1.403 . S
C324 C323 1.403 . S
C324 C325 1.404 . S
C324 C327 1.539 . S
C325 C321 1.408 . S
C325 C324 1.404 . S
C325 H337 0.930 . S
C326 C322 1.524 . S
C326 H338 0.956 . S
C326 H339 0.961 . S
C326 H340 0.961 . S
C327 C324 1.539 . S
C327 H341 0.958 . S
C327 H342 0.961 . S
C327 H343 0.960 . S
H328 C312 0.931 . S
H329 C317 0.929 . S
H330 C318 0.960 . S
H331 C318 0.962 . S
H332 C318 0.960 . S
H333 C319 0.961 . S
H334 C319 0.961 . S
H335 C319 0.961 . S
H336 C320 0.931 . S
H337 C325 0.930 . S
H338 C326 0.956 . S
H339 C326 0.961 . S
H340 C326 0.961 . S
H341 C327 0.958 . S
H342 C327 0.961 . S
H343 C327 0.960 . S
C344 C345 1.391 . S
C344 C346 1.394 . S
C344 H360 0.931 . S
C345 C344 1.391 . S
C345 C349 1.376 . S
C346 C344 1.394 . S
C346 C347 1.369 . S
C346 C350 1.531 . S
C347 C346 1.369 . S
C347 C348 1.410 . S
C347 C355 1.503 . S
C348 C347 1.410 . S
C348 C349 1.392 . S
C348 C351 1.511 . S
C349 C345 1.376 . S
C349 C348 1.392 . S
C349 H361 0.929 . S
C350 C346 1.531 . S
C350 H362 0.960 . S
C350 H363 0.962 . S
C350 H364 0.960 . S
C351 C348 1.511 . S
C351 H365 0.961 . S
C351 H366 0.961 . S
C351 H367 0.961 1_565 S
C352 C353 1.370 . S
C352 C354 1.363 . S
C352 H368 0.931 . S
C353 C352 1.370 . S
C353 C357 1.400 1_565 S
C354 C352 1.363 . S
C354 C355 1.370 . S
C354 C358 1.524 . S
C355 C347 1.503 . S
C355 C354 1.370 . S
C355 C356 1.403 . S
C356 C355 1.403 . S
C356 C357 1.391 1_565 S
C356 C359 1.539 1_565 S
C357 C353 1.400 1_545 S
C357 C356 1.391 1_545 S
C357 H369 0.951 . S
C358 C354 1.524 . S
C358 H370 0.956 . S
C358 H371 0.961 . S
C358 H372 0.961 . S
C359 C356 1.539 1_545 S
C359 H373 0.958 1_545 S
C359 H374 0.961 . S
C359 H375 0.960 . S
H360 C344 0.931 . S
H361 C349 0.929 . S
H362 C350 0.960 . S
H363 C350 0.962 . S
H364 C350 0.960 . S
H365 C351 0.961 . S
H366 C351 0.961 . S
H367 C351 0.961 1_545 S
H368 C352 0.931 . S
H369 C357 0.951 . S
H370 C358 0.956 . S
H371 C358 0.961 . S
H372 C358 0.961 . S
H373 C359 0.958 1_565 S
H374 C359 0.961 . S
H375 C359 0.960 . S
C376 C377 1.391 . S
C376 C378 1.394 . S
C376 H392 0.931 . S
C377 C376 1.391 . S
C377 C381 1.376 . S
C378 C376 1.394 . S
C378 C379 1.369 . S
C378 C382 1.531 . S
C379 C378 1.369 . S
C379 C380 1.410 . S
C379 C387 1.503 . S
C380 C379 1.410 . S
C380 C381 1.392 . S
C380 C383 1.511 . S
C381 C377 1.376 . S
C381 C380 1.392 . S
C381 H393 0.929 . S
C382 C378 1.531 . S
C382 H394 0.960 . S
C382 H395 0.962 1_556 S
C382 H396 0.960 . S
C383 C380 1.511 . S
C383 H397 0.961 . S
C383 H398 0.961 . S
C383 H399 0.961 . S
C384 C385 1.370 1_554 S
C384 C386 1.363 1_554 S
C384 H400 0.931 . S
C385 C384 1.370 1_556 S
C385 C389 1.409 . S
C386 C384 1.363 1_556 S
C386 C387 1.370 . S
C386 C390 1.524 . S
C387 C379 1.503 . S
C387 C386 1.370 . S
C387 C388 1.403 . S
C388 C387 1.403 . S
C388 C389 1.404 . S
C388 C391 1.539 . S
C389 C385 1.409 . S
C389 C388 1.404 . S
C389 H401 0.930 . S
C390 C386 1.524 . S
C390 H402 0.956 1_556 S
C390 H403 0.961 . S
C390 H404 0.961 1_556 S
C391 C388 1.539 . S
C391 H405 0.958 . S
C391 H406 0.961 . S
C391 H407 0.960 . S
H392 C376 0.931 . S
H393 C381 0.929 . S
H394 C382 0.960 . S
H395 C382 0.962 1_554 S
H396 C382 0.960 . S
H397 C383 0.961 . S
H398 C383 0.961 . S
H399 C383 0.961 . S
H400 C384 0.931 . S
H401 C389 0.930 . S
H402 C390 0.956 1_554 S
H403 C390 0.961 . S
H404 C390 0.961 1_554 S
H405 C391 0.958 . S
H406 C391 0.961 . S
H407 C391 0.960 . S
C408 C409 1.391 . S
C408 C410 1.394 . S
C408 H424 0.931 . S
C409 C408 1.391 . S
C409 C413 1.376 . S
C410 C408 1.394 . S
C410 C411 1.369 . S
C410 C414 1.531 . S
C411 C410 1.369 . S
C411 C412 1.410 . S
C411 C419 1.503 . S
C412 C411 1.410 . S
C412 C413 1.392 . S
C412 C415 1.511 . S
C413 C409 1.376 . S
C413 C412 1.392 . S
C413 H425 0.929 . S
C414 C410 1.531 . S
C414 H426 0.960 . S
C414 H427 0.962 . S
C414 H428 0.960 . S
C415 C412 1.511 . S
C415 H429 0.961 . S
C415 H430 0.961 . S
C415 H431 0.961 . S
C416 C417 1.370 . S
C416 C418 1.363 . S
C416 H432 0.931 . S
C417 C416 1.370 . S
C417 C421 1.408 . S
C418 C416 1.363 . S
C418 C419 1.370 . S
C418 C422 1.524 . S
C419 C411 1.503 . S
C419 C418 1.370 . S
C419 C420 1.403 . S
C420 C419 1.403 . S
C420 C421 1.404 . S
C420 C423 1.539 . S
C421 C417 1.408 . S
C421 C420 1.404 . S
C421 H433 0.930 . S
C422 C418 1.524 . S
C422 H434 0.956 . S
C422 H435 0.961 . S
C422 H436 0.961 . S
C423 C420 1.539 . S
C423 H437 0.958 . S
C423 H438 0.961 . S
C423 H439 0.960 . S
H424 C408 0.931 . S
H425 C413 0.929 . S
H426 C414 0.960 . S
H427 C414 0.962 . S
H428 C414 0.960 . S
H429 C415 0.961 . S
H430 C415 0.961 . S
H431 C415 0.961 . S
H432 C416 0.931 . S
H433 C421 0.930 . S
H434 C422 0.956 . S
H435 C422 0.961 . S
H436 C422 0.961 . S
H437 C423 0.958 . S
H438 C423 0.961 . S
H439 C423 0.960 . S
C440 C441 1.391 . S
C440 C442 1.394 . S
C440 H456 0.931 . S
C441 C440 1.391 . S
C441 C445 1.376 . S
C442 C440 1.394 . S
C442 C443 1.369 . S
C442 C446 1.531 . S
C443 C442 1.369 . S
C443 C444 1.410 . S
C443 C451 1.503 . S
C444 C443 1.410 . S
C444 C445 1.392 . S
C444 C447 1.511 . S
C445 C441 1.376 . S
C445 C444 1.392 . S
C445 H457 0.929 . S
C446 C442 1.531 . S
C446 H458 0.960 . S
C446 H459 0.962 . S
C446 H460 0.960 . S
C447 C444 1.511 . S
C447 H461 0.961 . S
C447 H462 0.961 . S
C447 H463 0.961 . S
C448 C449 1.370 . S
C448 C450 1.363 . S
C448 H464 0.931 . S
C449 C448 1.370 . S
C449 C453 1.408 . S
C450 C448 1.363 . S
C450 C451 1.370 . S
C450 C454 1.524 . S
C451 C443 1.503 . S
C451 C450 1.370 . S
C451 C452 1.403 . S
C452 C451 1.403 . S
C452 C453 1.404 . S
C452 C455 1.539 . S
C453 C449 1.408 . S
C453 C452 1.404 . S
C453 H465 0.930 . S
C454 C450 1.524 . S
C454 H466 0.956 . S
C454 H467 0.961 . S
C454 H468 0.961 . S
C455 C452 1.539 . S
C455 H469 0.958 . S
C455 H470 0.961 . S
C455 H471 0.960 . S
H456 C440 0.931 . S
H457 C445 0.929 . S
H458 C446 0.960 . S
H459 C446 0.962 . S
H460 C446 0.960 . S
H461 C447 0.961 . S
H462 C447 0.961 . S
H463 C447 0.961 . S
H464 C448 0.931 . S
H465 C453 0.930 . S
H466 C454 0.956 . S
H467 C454 0.961 . S
H468 C454 0.961 . S
H469 C455 0.958 . S
H470 C455 0.961 . S
H471 C455 0.960 . S
C472 C473 1.391 . S
C472 C474 1.394 . S
C472 H488 0.931 . S
C473 C472 1.391 . S
C473 C477 1.376 . S
C474 C472 1.394 . S
C474 C475 1.369 . S
C474 C478 1.531 . S
C475 C474 1.369 . S
C475 C476 1.410 . S
C475 C483 1.503 . S
C476 C475 1.410 . S
C476 C477 1.392 . S
C476 C479 1.511 . S
C477 C473 1.376 . S
C477 C476 1.392 . S
C477 H489 0.929 . S
C478 C474 1.531 . S
C478 H490 0.960 . S
C478 H491 0.962 . S
C478 H492 0.960 . S
C479 C476 1.511 . S
C479 H493 0.961 . S
C479 H494 0.961 . S
C479 H495 0.961 . S
C480 C481 1.370 . S
C480 C482 1.363 . S
C480 H496 0.931 . S
C481 C480 1.370 . S
C481 C485 1.408 . S
C482 C480 1.363 . S
C482 C483 1.370 . S
C482 C486 1.524 . S
C483 C475 1.503 . S
C483 C482 1.370 . S
C483 C484 1.403 . S
C484 C483 1.403 . S
C484 C485 1.404 . S
C484 C487 1.539 1_556 S
C485 C481 1.408 . S
C485 C484 1.404 . S
C485 H497 0.930 1_556 S
C486 C482 1.524 . S
C486 H498 0.956 . S
C486 H499 0.961 . S
C486 H500 0.961 . S
C487 C484 1.539 1_554 S
C487 H501 0.958 . S
C487 H502 0.961 . S
C487 H503 0.960 1_554 S
H488 C472 0.931 . S
H489 C477 0.929 . S
H490 C478 0.960 . S
H491 C478 0.962 . S
H492 C478 0.960 . S
H493 C479 0.961 . S
H494 C479 0.961 . S
H495 C479 0.961 . S
H496 C480 0.931 . S
H497 C485 0.930 1_554 S
H498 C486 0.956 . S
H499 C486 0.961 . S
H500 C486 0.961 . S
H501 C487 0.958 . S
H502 C487 0.961 . S
H503 C487 0.960 1_556 S
C504 C505 1.391 . S
C504 C506 1.394 . S
C504 H520 0.931 . S
C505 C504 1.391 . S
C505 C509 1.376 . S
C506 C504 1.394 . S
C506 C507 1.369 . S
C506 C510 1.531 . S
C507 C506 1.369 . S
C507 C508 1.410 . S
C507 C515 1.503 . S
C508 C507 1.410 . S
C508 C509 1.392 . S
C508 C511 1.511 . S
C509 C505 1.376 . S
C509 C508 1.392 . S
C509 H521 0.929 . S
C510 C506 1.531 . S
C510 H522 0.960 . S
C510 H523 0.962 . S
C510 H524 0.960 . S
C511 C508 1.511 . S
C511 H525 0.961 . S
C511 H526 0.961 . S
C511 H527 0.961 . S
C512 C513 1.370 . S
C512 C514 1.363 . S
C512 H528 0.931 1_655 S
C513 C512 1.370 . S
C513 C517 1.408 . S
C514 C512 1.363 . S
C514 C515 1.370 . S
C514 C518 1.524 1_655 S
C515 C507 1.503 . S
C515 C514 1.370 . S
C515 C516 1.403 . S
C516 C515 1.403 . S
C516 C517 1.404 . S
C516 C519 1.539 . S
C517 C513 1.408 . S
C517 C516 1.404 . S
C517 H529 0.930 . S
C518 C514 1.524 1_455 S
C518 H530 0.956 1_455 S
C518 H531 0.961 . S
C518 H532 0.961 . S
C519 C516 1.539 . S
C519 H533 0.958 . S
C519 H534 0.961 . S
C519 H535 0.960 . S
H520 C504 0.931 . S
H521 C509 0.929 . S
H522 C510 0.960 . S
H523 C510 0.962 . S
H524 C510 0.960 . S
H525 C511 0.961 . S
H526 C511 0.961 . S
H527 C511 0.961 . S
H528 C512 0.931 1_455 S
H529 C517 0.930 . S
H530 C518 0.956 1_655 S
H531 C518 0.961 . S
H532 C518 0.961 . S
H533 C519 0.958 . S
H534 C519 0.961 . S
H535 C519 0.960 . S
C536 C537 1.391 . S
C536 C538 1.394 . S
C536 H552 0.931 . S
C537 C536 1.391 . S
C537 C541 1.376 . S
C538 C536 1.394 . S
C538 C539 1.369 . S
C538 C542 1.531 . S
C539 C538 1.369 . S
C539 C540 1.410 . S
C539 C547 1.503 . S
C540 C539 1.410 . S
C540 C541 1.392 . S
C540 C543 1.511 . S
C541 C537 1.376 . S
C541 C540 1.392 . S
C541 H553 0.929 . S
C542 C538 1.531 . S
C542 H554 0.960 . S
C542 H555 0.962 . S
C542 H556 0.960 . S
C543 C540 1.511 . S
C543 H557 0.961 . S
C543 H558 0.961 . S
C543 H559 0.961 . S
C544 C545 1.370 . S
C544 C546 1.363 . S
C544 H560 0.931 . S
C545 C544 1.370 . S
C545 C549 1.408 . S
C546 C544 1.363 . S
C546 C547 1.370 . S
C546 C550 1.524 . S
C547 C539 1.503 . S
C547 C546 1.370 . S
C547 C548 1.403 . S
C548 C547 1.403 . S
C548 C549 1.404 . S
C548 C551 1.539 . S
C549 C545 1.408 . S
C549 C548 1.404 . S
C549 H561 0.930 . S
C550 C546 1.524 . S
C550 H562 0.956 . S
C550 H563 0.961 . S
C550 H564 0.961 . S
C551 C548 1.539 . S
C551 H565 0.958 . S
C551 H566 0.961 . S
C551 H567 0.960 . S
H552 C536 0.931 . S
H553 C541 0.929 . S
H554 C542 0.960 . S
H555 C542 0.962 . S
H556 C542 0.960 . S
H557 C543 0.961 . S
H558 C543 0.961 . S
H559 C543 0.961 . S
H560 C544 0.931 . S
H561 C549 0.930 . S
H562 C550 0.956 . S
H563 C550 0.961 . S
H564 C550 0.961 . S
H565 C551 0.958 . S
H566 C551 0.961 . S
H567 C551 0.960 . S
C568 C569 1.391 . S
C568 C570 1.394 . S
C568 H584 0.931 . S
C569 C568 1.391 . S
C569 C573 1.376 . S
C570 C568 1.394 . S
C570 C571 1.369 . S
C570 C574 1.531 . S
C571 C570 1.369 . S
C571 C572 1.410 . S
C571 C579 1.503 . S
C572 C571 1.410 . S
C572 C573 1.392 . S
C572 C575 1.511 . S
C573 C569 1.376 . S
C573 C572 1.392 . S
C573 H585 0.929 . S
C574 C570 1.531 . S
C574 H586 0.960 . S
C574 H587 0.962 . S
C574 H588 0.960 . S
C575 C572 1.511 . S
C575 H589 0.961 . S
C575 H590 0.961 . S
C575 H591 0.961 . S
C576 C577 1.370 . S
C576 C578 1.363 . S
C576 H592 0.931 . S
C577 C576 1.370 . S
C577 C581 1.408 . S
C578 C576 1.363 . S
C578 C579 1.370 . S
C578 C582 1.524 . S
C579 C571 1.503 . S
C579 C578 1.370 . S
C579 C580 1.403 . S
C580 C579 1.403 . S
C580 C581 1.404 . S
C580 C583 1.539 . S
C581 C577 1.408 . S
C581 C580 1.404 . S
C581 H593 0.930 . S
C582 C578 1.524 . S
C582 H594 0.956 . S
C582 H595 0.961 . S
C582 H596 0.961 . S
C583 C580 1.539 . S
C583 H597 0.958 . S
C583 H598 0.961 . S
C583 H599 0.960 . S
H584 C568 0.931 . S
H585 C573 0.929 . S
H586 C574 0.960 . S
H587 C574 0.962 . S
H588 C574 0.960 . S
H589 C575 0.961 . S
H590 C575 0.961 . S
H591 C575 0.961 . S
H592 C576 0.931 . S
H593 C581 0.930 . S
H594 C582 0.956 . S
H595 C582 0.961 . S
H596 C582 0.961 . S
H597 C583 0.958 . S
H598 C583 0.961 . S
H599 C583 0.960 . S
C600 C601 1.391 . S
C600 C602 1.394 . S
C600 H616 0.931 . S
C601 C600 1.391 . S
C601 C605 1.376 . S
C602 C600 1.394 . S
C602 C603 1.369 . S
C602 C606 1.531 . S
C603 C602 1.369 . S
C603 C604 1.410 . S
C603 C611 1.503 . S
C604 C603 1.410 . S
C604 C605 1.392 . S
C604 C607 1.511 . S
C605 C601 1.376 . S
C605 C604 1.392 . S
C605 H617 0.929 . S
C606 C602 1.531 . S
C606 H618 0.960 . S
C606 H619 0.962 . S
C606 H620 0.960 . S
C607 C604 1.511 . S
C607 H621 0.961 . S
C607 H622 0.961 . S
C607 H623 0.961 . S
C608 C609 1.370 . S
C608 C610 1.363 . S
C608 H624 0.931 . S
C609 C608 1.370 . S
C609 C613 1.408 . S
C610 C608 1.363 . S
C610 C611 1.370 . S
C610 C614 1.524 . S
C611 C603 1.503 . S
C611 C610 1.370 . S
C611 C612 1.403 . S
C612 C611 1.403 . S
C612 C613 1.404 . S
C612 C615 1.539 . S
C613 C609 1.408 . S
C613 C612 1.404 . S
C613 H625 0.930 . S
C614 C610 1.524 . S
C614 H626 0.956 . S
C614 H627 0.961 . S
C614 H628 0.961 . S
C615 C612 1.539 . S
C615 H629 0.958 . S
C615 H630 0.961 . S
C615 H631 0.960 . S
H616 C600 0.931 . S
H617 C605 0.929 . S
H618 C606 0.960 . S
H619 C606 0.962 . S
H620 C606 0.960 . S
H621 C607 0.961 . S
H622 C607 0.961 . S
H623 C607 0.961 . S
H624 C608 0.931 . S
H625 C613 0.930 . S
H626 C614 0.956 . S
H627 C614 0.961 . S
H628 C614 0.961 . S
H629 C615 0.958 . S
H630 C615 0.961 . S
H631 C615 0.960 . S
C632 C633 1.391 . S
C632 C634 1.394 . S
C632 H648 0.931 . S
C633 C632 1.391 . S
C633 C637 1.376 . S
C634 C632 1.394 . S
C634 C635 1.369 . S
C634 C638 1.531 . S
C635 C634 1.369 . S
C635 C636 1.410 . S
C635 C643 1.503 . S
C636 C635 1.410 . S
C636 C637 1.392 . S
C636 C639 1.511 . S
C637 C633 1.376 . S
C637 C636 1.392 . S
C637 H649 0.929 . S
C638 C634 1.531 . S
C638 H650 0.960 . S
C638 H651 0.962 . S
C638 H652 0.960 . S
C639 C636 1.511 . S
C639 H653 0.961 . S
C639 H654 0.961 . S
C639 H655 0.961 . S
C640 C641 1.370 . S
C640 C642 1.363 . S
C640 H656 0.931 . S
C641 C640 1.370 . S
C641 C645 1.408 . S
C642 C640 1.363 . S
C642 C643 1.370 . S
C642 C646 1.524 . S
C643 C635 1.503 . S
C643 C642 1.370 . S
C643 C644 1.403 . S
C644 C643 1.403 . S
C644 C645 1.404 . S
C644 C647 1.539 . S
C645 C641 1.408 . S
C645 C644 1.404 . S
C645 H657 0.930 . S
C646 C642 1.524 . S
C646 H658 0.956 . S
C646 H659 0.961 . S
C646 H660 0.961 . S
C647 C644 1.539 . S
C647 H661 0.958 . S
C647 H662 0.961 . S
C647 H663 0.960 . S
H648 C632 0.931 . S
H649 C637 0.929 . S
H650 C638 0.960 . S
H651 C638 0.962 . S
H652 C638 0.960 . S
H653 C639 0.961 . S
H654 C639 0.961 . S
H655 C639 0.961 . S
H656 C640 0.931 . S
H657 C645 0.930 . S
H658 C646 0.956 . S
H659 C646 0.961 . S
H660 C646 0.961 . S
H661 C647 0.958 . S
H662 C647 0.961 . S
H663 C647 0.960 . S
C664 C665 1.391 . S
C664 C666 1.394 . S
C664 H680 0.931 . S
C665 C664 1.391 . S
C665 C669 1.376 . S
C666 C664 1.394 . S
C666 C667 1.369 . S
C666 C670 1.531 . S
C667 C666 1.369 . S
C667 C668 1.410 . S
C667 C675 1.503 . S
C668 C667 1.410 . S
C668 C669 1.392 . S
C668 C671 1.511 . S
C669 C665 1.376 . S
C669 C668 1.392 . S
C669 H681 0.929 . S
C670 C666 1.531 . S
C670 H682 0.960 . S
C670 H683 0.962 . S
C670 H684 0.960 . S
C671 C668 1.511 . S
C671 H685 0.961 . S
C671 H686 0.961 . S
C671 H687 0.961 . S
C672 C673 1.370 . S
C672 C674 1.363 . S
C672 H688 0.931 . S
C673 C672 1.370 . S
C673 C677 1.408 . S
C674 C672 1.363 . S
C674 C675 1.370 . S
C674 C678 1.524 . S
C675 C667 1.503 . S
C675 C674 1.370 . S
C675 C676 1.403 . S
C676 C675 1.403 . S
C676 C677 1.404 . S
C676 C679 1.539 . S
C677 C673 1.408 . S
C677 C676 1.404 . S
C677 H689 0.930 . S
C678 C674 1.524 . S
C678 H690 0.956 . S
C678 H691 0.961 . S
C678 H692 0.961 . S
C679 C676 1.539 . S
C679 H693 0.958 . S
C679 H694 0.961 . S
C679 H695 0.960 . S
H680 C664 0.931 . S
H681 C669 0.929 . S
H682 C670 0.960 . S
H683 C670 0.962 . S
H684 C670 0.960 . S
H685 C671 0.961 . S
H686 C671 0.961 . S
H687 C671 0.961 . S
H688 C672 0.931 . S
H689 C677 0.930 . S
H690 C678 0.956 . S
H691 C678 0.961 . S
H692 C678 0.961 . S
H693 C679 0.958 . S
H694 C679 0.961 . S
H695 C679 0.960 . S
C696 C697 1.391 . S
C696 C698 1.394 . S
C696 H712 0.931 . S
C697 C696 1.391 . S
C697 C701 1.376 . S
C698 C696 1.394 . S
C698 C699 1.369 . S
C698 C702 1.531 . S
C699 C698 1.369 . S
C699 C700 1.410 . S
C699 C707 1.503 . S
C700 C699 1.410 . S
C700 C701 1.392 . S
C700 C703 1.511 . S
C701 C697 1.376 . S
C701 C700 1.392 . S
C701 H713 0.929 . S
C702 C698 1.531 . S
C702 H714 0.960 . S
C702 H715 0.962 . S
C702 H716 0.960 . S
C703 C700 1.511 . S
C703 H717 0.961 . S
C703 H718 0.961 . S
C703 H719 0.961 . S
C704 C705 1.370 . S
C704 C706 1.363 . S
C704 H720 0.931 . S
C705 C704 1.370 . S
C705 C709 1.408 . S
C706 C704 1.363 . S
C706 C707 1.370 . S
C706 C710 1.524 . S
C707 C699 1.503 . S
C707 C706 1.370 . S
C707 C708 1.403 . S
C708 C707 1.403 . S
C708 C709 1.404 . S
C708 C711 1.539 . S
C709 C705 1.408 . S
C709 C708 1.404 . S
C709 H721 0.930 . S
C710 C706 1.524 . S
C710 H722 0.956 . S
C710 H723 0.961 . S
C710 H724 0.961 . S
C711 C708 1.539 . S
C711 H725 0.958 . S
C711 H726 0.961 . S
C711 H727 0.960 . S
H712 C696 0.931 . S
H713 C701 0.929 . S
H714 C702 0.960 . S
H715 C702 0.962 . S
H716 C702 0.960 . S
H717 C703 0.961 . S
H718 C703 0.961 . S
H719 C703 0.961 . S
H720 C704 0.931 . S
H721 C709 0.930 . S
H722 C710 0.956 . S
H723 C710 0.961 . S
H724 C710 0.961 . S
H725 C711 0.958 . S
H726 C711 0.961 . S
H727 C711 0.960 . S
C728 C729 1.391 . S
C728 C730 1.394 . S
C728 H744 0.931 . S
C729 C728 1.391 . S
C729 C733 1.376 . S
C730 C728 1.394 . S
C730 C731 1.369 . S
C730 C734 1.531 . S
C731 C730 1.369 . S
C731 C732 1.410 . S
C731 C739 1.503 . S
C732 C731 1.410 . S
C732 C733 1.392 . S
C732 C735 1.511 . S
C733 C729 1.376 . S
C733 C732 1.392 . S
C733 H745 0.929 . S
C734 C730 1.531 . S
C734 H746 0.960 . S
C734 H747 0.962 . S
C734 H748 0.960 . S
C735 C732 1.511 . S
C735 H749 0.961 . S
C735 H750 0.961 . S
C735 H751 0.961 . S
C736 C737 1.370 . S
C736 C738 1.363 . S
C736 H752 0.931 . S
C737 C736 1.370 . S
C737 C741 1.408 . S
C738 C736 1.363 . S
C738 C739 1.370 . S
C738 C742 1.524 . S
C739 C731 1.503 . S
C739 C738 1.370 . S
C739 C740 1.403 . S
C740 C739 1.403 . S
C740 C741 1.404 . S
C740 C743 1.539 . S
C741 C737 1.408 . S
C741 C740 1.404 . S
C741 H753 0.930 . S
C742 C738 1.524 . S
C742 H754 0.956 . S
C742 H755 0.961 . S
C742 H756 0.961 . S
C743 C740 1.539 . S
C743 H757 0.958 . S
C743 H758 0.961 . S
C743 H759 0.960 . S
H744 C728 0.931 . S
H745 C733 0.929 . S
H746 C734 0.960 . S
H747 C734 0.962 . S
H748 C734 0.960 . S
H749 C735 0.961 . S
H750 C735 0.961 . S
H751 C735 0.961 . S
H752 C736 0.931 . S
H753 C741 0.930 . S
H754 C742 0.956 . S
H755 C742 0.961 . S
H756 C742 0.961 . S
H757 C743 0.958 . S
H758 C743 0.961 . S
H759 C743 0.960 . S
C760 C761 1.391 . S
C760 C762 1.394 . S
C760 H776 0.931 . S
C761 C760 1.391 . S
C761 C765 1.376 . S
C762 C760 1.394 . S
C762 C763 1.369 . S
C762 C766 1.531 . S
C763 C762 1.369 . S
C763 C764 1.410 . S
C763 C771 1.503 . S
C764 C763 1.410 . S
C764 C765 1.392 . S
C764 C767 1.511 . S
C765 C761 1.376 . S
C765 C764 1.392 . S
C765 H777 0.929 . S
C766 C762 1.531 . S
C766 H778 0.960 . S
C766 H779 0.962 . S
C766 H780 0.960 . S
C767 C764 1.511 . S
C767 H781 0.961 . S
C767 H782 0.961 . S
C767 H783 0.961 . S
C768 C769 1.370 . S
C768 C770 1.363 . S
C768 H784 0.931 . S
C769 C768 1.370 . S
C769 C773 1.408 . S
C770 C768 1.363 . S
C770 C771 1.370 . S
C770 C774 1.524 . S
C771 C763 1.503 . S
C771 C770 1.370 . S
C771 C772 1.403 . S
C772 C771 1.403 . S
C772 C773 1.404 . S
C772 C775 1.539 . S
C773 C769 1.408 . S
C773 C772 1.404 . S
C773 H785 0.930 . S
C774 C770 1.524 . S
C774 H786 0.956 . S
C774 H787 0.961 . S
C774 H788 0.961 . S
C775 C772 1.539 . S
C775 H789 0.958 . S
C775 H790 0.961 . S
C775 H791 0.960 . S
H776 C760 0.931 . S
H777 C765 0.929 . S
H778 C766 0.960 . S
H779 C766 0.962 . S
H780 C766 0.960 . S
H781 C767 0.961 . S
H782 C767 0.961 . S
H783 C767 0.961 . S
H784 C768 0.931 . S
H785 C773 0.930 . S
H786 C774 0.956 . S
H787 C774 0.961 . S
H788 C774 0.961 . S
H789 C775 0.958 . S
H790 C775 0.961 . S
H791 C775 0.960 . S
C792 C793 1.391 . S
C792 C794 1.394 . S
C792 H808 0.931 . S
C793 C792 1.391 . S
C793 C797 1.376 . S
C794 C792 1.394 . S
C794 C795 1.369 . S
C794 C798 1.531 . S
C795 C794 1.369 . S
C795 C796 1.410 . S
C795 C803 1.503 . S
C796 C795 1.410 . S
C796 C797 1.392 . S
C796 C799 1.511 . S
C797 C793 1.376 . S
C797 C796 1.392 . S
C797 H809 0.929 . S
C798 C794 1.531 . S
C798 H810 0.960 . S
C798 H811 0.962 . S
C798 H812 0.960 . S
C799 C796 1.511 . S
C799 H813 0.961 . S
C799 H814 0.961 . S
C799 H815 0.961 . S
C800 C801 1.370 . S
C800 C802 1.363 . S
C800 H816 0.931 . S
C801 C800 1.370 . S
C801 C805 1.408 . S
C802 C800 1.363 . S
C802 C803 1.370 . S
C802 C806 1.524 . S
C803 C795 1.503 . S
C803 C802 1.370 . S
C803 C804 1.403 . S
C804 C803 1.403 . S
C804 C805 1.404 . S
C804 C807 1.539 . S
C805 C801 1.408 . S
C805 C804 1.404 . S
C805 H817 0.930 . S
C806 C802 1.524 . S
C806 H818 0.956 . S
C806 H819 0.961 . S
C806 H820 0.961 . S
C807 C804 1.539 . S
C807 H821 0.958 . S
C807 H822 0.961 . S
C807 H823 0.960 . S
H808 C792 0.931 . S
H809 C797 0.929 . S
H810 C798 0.960 . S
H811 C798 0.962 . S
H812 C798 0.960 . S
H813 C799 0.961 . S
H814 C799 0.961 . S
H815 C799 0.961 . S
H816 C800 0.931 . S
H817 C805 0.930 . S
H818 C806 0.956 . S
H819 C806 0.961 . S
H820 C806 0.961 . S
H821 C807 0.958 . S
H822 C807 0.961 . S
H823 C807 0.960 . S
C824 C825 1.391 . S
C824 C826 1.394 . S
C824 H840 0.931 . S
C825 C824 1.391 . S
C825 C829 1.376 . S
C826 C824 1.394 . S
C826 C827 1.369 . S
C826 C830 1.531 . S
C827 C826 1.369 . S
C827 C828 1.410 . S
C827 C835 1.503 . S
C828 C827 1.410 . S
C828 C829 1.392 . S
C828 C831 1.511 . S
C829 C825 1.376 . S
C829 C828 1.392 . S
C829 H841 0.929 . S
C830 C826 1.531 . S
C830 H842 0.960 . S
C830 H843 0.962 . S
C830 H844 0.960 . S
C831 C828 1.511 . S
C831 H845 0.961 . S
C831 H846 0.961 . S
C831 H847 0.961 . S
C832 C833 1.370 . S
C832 C834 1.363 . S
C832 H848 0.931 . S
C833 C832 1.370 . S
C833 C837 1.408 . S
C834 C832 1.363 . S
C834 C835 1.370 . S
C834 C838 1.524 . S
C835 C827 1.503 . S
C835 C834 1.370 . S
C835 C836 1.403 . S
C836 C835 1.403 . S
C836 C837 1.404 . S
C836 C839 1.539 . S
C837 C833 1.408 . S
C837 C836 1.404 . S
C837 H849 0.930 . S
C838 C834 1.524 . S
C838 H850 0.956 . S
C838 H851 0.961 . S
C838 H852 0.961 . S
C839 C836 1.539 . S
C839 H853 0.958 . S
C839 H854 0.961 . S
C839 H855 0.960 . S
H840 C824 0.931 . S
H841 C829 0.929 . S
H842 C830 0.960 . S
H843 C830 0.962 . S
H844 C830 0.960 . S
H845 C831 0.961 . S
H846 C831 0.961 . S
H847 C831 0.961 . S
H848 C832 0.931 . S
H849 C837 0.930 . S
H850 C838 0.956 . S
H851 C838 0.961 . S
H852 C838 0.961 . S
H853 C839 0.958 . S
H854 C839 0.961 . S
H855 C839 0.960 . S
C856 C857 1.391 . S
C856 C858 1.394 . S
C856 H872 0.931 . S
C857 C856 1.391 . S
C857 C861 1.376 . S
C858 C856 1.394 . S
C858 C859 1.369 . S
C858 C862 1.531 . S
C859 C858 1.369 . S
C859 C860 1.410 . S
C859 C867 1.503 . S
C860 C859 1.410 . S
C860 C861 1.392 . S
C860 C863 1.511 . S
C861 C857 1.376 . S
C861 C860 1.392 . S
C861 H873 0.929 . S
C862 C858 1.531 . S
C862 H874 0.960 . S
C862 H875 0.962 . S
C862 H876 0.960 . S
C863 C860 1.511 . S
C863 H877 0.961 . S
C863 H878 0.961 . S
C863 H879 0.961 . S
C864 C865 1.370 . S
C864 C866 1.363 . S
C864 H880 0.931 . S
C865 C864 1.370 . S
C865 C869 1.408 . S
C866 C864 1.363 . S
C866 C867 1.370 . S
C866 C870 1.524 . S
C867 C859 1.503 . S
C867 C866 1.370 . S
C867 C868 1.403 . S
C868 C867 1.403 . S
C868 C869 1.404 . S
C868 C871 1.539 . S
C869 C865 1.408 . S
C869 C868 1.404 . S
C869 H881 0.930 . S
C870 C866 1.524 . S
C870 H882 0.956 . S
C870 H883 0.961 . S
C870 H884 0.961 . S
C871 C868 1.539 . S
C871 H885 0.958 . S
C871 H886 0.961 . S
C871 H887 0.960 . S
H872 C856 0.931 . S
H873 C861 0.929 . S
H874 C862 0.960 . S
H875 C862 0.962 . S
H876 C862 0.960 . S
H877 C863 0.961 . S
H878 C863 0.961 . S
H879 C863 0.961 . S
H880 C864 0.931 . S
H881 C869 0.930 . S
H882 C870 0.956 . S
H883 C870 0.961 . S
H884 C870 0.961 . S
H885 C871 0.958 . S
H886 C871 0.961 . S
H887 C871 0.960 . S
C888 C889 1.391 . S
C888 C890 1.394 . S
C888 H904 0.931 . S
C889 C888 1.391 . S
C889 C893 1.376 . S
C890 C888 1.394 . S
C890 C891 1.369 . S
C890 C894 1.531 . S
C891 C890 1.369 . S
C891 C892 1.410 . S
C891 C899 1.503 . S
C892 C891 1.410 . S
C892 C893 1.392 . S
C892 C895 1.511 . S
C893 C889 1.376 . S
C893 C892 1.392 . S
C893 H905 0.929 . S
C894 C890 1.531 . S
C894 H906 0.960 . S
C894 H907 0.962 . S
C894 H908 0.960 . S
C895 C892 1.511 . S
C895 H909 0.961 . S
C895 H910 0.961 . S
C895 H911 0.961 . S
C896 C897 1.370 . S
C896 C898 1.363 . S
C896 H912 0.931 . S
C897 C896 1.370 . S
C897 C901 1.408 . S
C898 C896 1.363 . S
C898 C899 1.370 . S
C898 C902 1.524 . S
C899 C891 1.503 . S
C899 C898 1.370 . S
C899 C900 1.403 . S
C900 C899 1.403 . S
C900 C901 1.404 . S
C900 C903 1.539 . S
C901 C897 1.408 . S
C901 C900 1.404 . S
C901 H913 0.930 . S
C902 C898 1.524 . S
C902 H914 0.956 . S
C902 H915 0.961 . S
C902 H916 0.961 . S
C903 C900 1.539 . S
C903 H917 0.958 . S
C903 H918 0.961 . S
C903 H919 0.960 . S
H904 C888 0.931 . S
H905 C893 0.929 . S
H906 C894 0.960 . S
H907 C894 0.962 . S
H908 C894 0.960 . S
H909 C895 0.961 . S
H910 C895 0.961 . S
H911 C895 0.961 . S
H912 C896 0.931 . S
H913 C901 0.930 . S
H914 C902 0.956 . S
H915 C902 0.961 . S
H916 C902 0.961 . S
H917 C903 0.958 . S
H918 C903 0.961 . S
H919 C903 0.960 . S
C920 C921 1.391 . S
C920 C922 1.394 . S
C920 H936 0.931 . S
C921 C920 1.391 . S
C921 C925 1.376 . S
C922 C920 1.394 . S
C922 C923 1.369 . S
C922 C926 1.531 . S
C923 C922 1.369 . S
C923 C924 1.410 . S
C923 C931 1.503 . S
C924 C923 1.410 . S
C924 C925 1.392 . S
C924 C927 1.511 . S
C925 C921 1.376 . S
C925 C924 1.392 . S
C925 H937 0.929 . S
C926 C922 1.531 . S
C926 H938 0.960 . S
C926 H939 0.962 . S
C926 H940 0.960 . S
C927 C924 1.511 . S
C927 H941 0.961 . S
C927 H942 0.961 . S
C927 H943 0.961 . S
C928 C929 1.370 . S
C928 C930 1.363 . S
C928 H944 0.931 . S
C929 C928 1.370 . S
C929 C933 1.408 . S
C930 C928 1.363 . S
C930 C931 1.370 . S
C930 C934 1.524 . S
C931 C923 1.503 . S
C931 C930 1.370 . S
C931 C932 1.403 . S
C932 C931 1.403 . S
C932 C933 1.404 . S
C932 C935 1.539 . S
C933 C929 1.408 . S
C933 C932 1.404 . S
C933 H945 0.930 . S
C934 C930 1.524 . S
C934 H946 0.956 . S
C934 H947 0.961 . S
C934 H948 0.961 . S
C935 C932 1.539 . S
C935 H949 0.958 . S
C935 H950 0.961 . S
C935 H951 0.960 . S
H936 C920 0.931 . S
H937 C925 0.929 . S
H938 C926 0.960 . S
H939 C926 0.962 . S
H940 C926 0.960 . S
H941 C927 0.961 . S
H942 C927 0.961 . S
H943 C927 0.961 . S
H944 C928 0.931 . S
H945 C933 0.930 . S
H946 C934 0.956 . S
H947 C934 0.961 . S
H948 C934 0.961 . S
H949 C935 0.958 . S
H950 C935 0.961 . S
H951 C935 0.960 . S
C185 C9 1.738 . S
C193 C106 1.735 . S
C217 C21 1.434 . S
C225 C125 1.360 . S
C257 C162 1.481 . S
C249 C30 1.482 . S
C281 C43 1.475 . S
C289 C172 1.534 1_655 S
C321 C142 1.740 . S
C313 C4 1.622 . S
C353 C112 1.931 1_565 S
C345 C22 1.980 . S
C385 C183 1.191 1_556 S
C377 C34 1.229 . S
C417 C153 1.267 . S
C409 C48 1.284 . S
C441 C8 1.681 . S
C449 C166 1.685 . S
C481 C133 1.705 . S
C473 C35 1.751 . S
C505 C47 1.875 . S
C513 C123 1.883 . S
C537 C17 1.182 . S
C545 C145 1.164 . S
C577 C105 1.420 . S
C569 C60 1.398 . S
C601 C74 1.545 . S
C609 C126 1.512 . S
C633 C82 1.253 . S
C641 C163 1.305 . S
C665 C100 1.961 . S
C673 C173 1.927 . S
C697 C61 2.114 . S
C705 C143 2.181 . S
C737 C113 1.476 . S
C729 C73 1.518 . S
C769 C182 1.700 . S
C761 C87 1.747 . S
C801 C152 1.049 . S
C793 C95 1.053 . S
C825 C56 1.661 . S
C833 C165 1.663 . S
C865 C132 1.810 . S
C857 C86 1.851 . S
C897 C122 1.701 . S
C889 C99 1.689 . S
C921 C69 1.154 . S
C929 C146 1.158 . S
