# Generated by pormake.
# Topology apo, (3,6)-cn, num edge types: 1
# Building blocks:
#     Node 0, Type 0, BuildingBlock: QEWDON_clean_linker_0, # of connection points: 3
#     Node 1, Type 0, BuildingBlock: QEWDON_clean_linker_0, # of connection points: 3
#     Node 2, Type 0, BuildingBlock: QEWDON_clean_linker_0, # of connection points: 3
#     Node 3, Type 0, BuildingBlock: QEWDON_clean_linker_0, # of connection points: 3
#     Node 4, Type 0, BuildingBlock: QEWDON_clean_linker_0, # of connection points: 3
#     Node 5, Type 0, BuildingBlock: QEWDON_clean_linker_0, # of connection points: 3
#     Node 6, Type 0, BuildingBlock: QEWDON_clean_linker_0, # of connection points: 3
#     Node 7, Type 0, BuildingBlock: QEWDON_clean_linker_0, # of connection points: 3
#     Node 8, Type 1, BuildingBlock: KUMJIN_clean_sbu_1, # of connection points: 6
#     Node 9, Type 1, BuildingBlock: KUMJIN_clean_sbu_1, # of connection points: 6
#     Node 10, Type 1, BuildingBlock: KUMJIN_clean_sbu_1, # of connection points: 6
#     Node 11, Type 1, BuildingBlock: KUMJIN_clean_sbu_1, # of connection points: 6
#     Edge 12, Type (0, 1), BuildingBlock: OJICUG_clean_linker_0, # of connection points: 2
#     Edge 13, Type (0, 1), BuildingBlock: OJICUG_clean_linker_0, # of connection points: 2
#     Edge 14, Type (0, 1), BuildingBlock: OJICUG_clean_linker_0, # of connection points: 2
#     Edge 15, Type (0, 1), BuildingBlock: OJICUG_clean_linker_0, # of connection points: 2
#     Edge 16, Type (0, 1), BuildingBlock: OJICUG_clean_linker_0, # of connection points: 2
#     Edge 17, Type (0, 1), BuildingBlock: OJICUG_clean_linker_0, # of connection points: 2
#     Edge 18, Type (0, 1), BuildingBlock: OJICUG_clean_linker_0, # of connection points: 2
#     Edge 19, Type (0, 1), BuildingBlock: OJICUG_clean_linker_0, # of connection points: 2
#     Edge 20, Type (0, 1), BuildingBlock: OJICUG_clean_linker_0, # of connection points: 2
#     Edge 21, Type (0, 1), BuildingBlock: OJICUG_clean_linker_0, # of connection points: 2
#     Edge 22, Type (0, 1), BuildingBlock: OJICUG_clean_linker_0, # of connection points: 2
#     Edge 23, Type (0, 1), BuildingBlock: OJICUG_clean_linker_0, # of connection points: 2
#     Edge 24, Type (0, 1), BuildingBlock: OJICUG_clean_linker_0, # of connection points: 2
#     Edge 25, Type (0, 1), BuildingBlock: OJICUG_clean_linker_0, # of connection points: 2
#     Edge 26, Type (0, 1), BuildingBlock: OJICUG_clean_linker_0, # of connection points: 2
#     Edge 27, Type (0, 1), BuildingBlock: OJICUG_clean_linker_0, # of connection points: 2
#     Edge 28, Type (0, 1), BuildingBlock: OJICUG_clean_linker_0, # of connection points: 2
#     Edge 29, Type (0, 1), BuildingBlock: OJICUG_clean_linker_0, # of connection points: 2
#     Edge 30, Type (0, 1), BuildingBlock: OJICUG_clean_linker_0, # of connection points: 2
#     Edge 31, Type (0, 1), BuildingBlock: OJICUG_clean_linker_0, # of connection points: 2
#     Edge 32, Type (0, 1), BuildingBlock: OJICUG_clean_linker_0, # of connection points: 2
#     Edge 33, Type (0, 1), BuildingBlock: OJICUG_clean_linker_0, # of connection points: 2
#     Edge 34, Type (0, 1), BuildingBlock: OJICUG_clean_linker_0, # of connection points: 2
#     Edge 35, Type (0, 1), BuildingBlock: OJICUG_clean_linker_0, # of connection points: 2
# Relax obj value: 0.076
# Max RMSD: 0.275
# Mean RMSD: 0.217
data_MOF--net-apo--node1-KUMJIN_clean_sbu_1--node2-QEWDON_clean_linker_0--edge1-OJICUG_clean_linker_0
_symmetry_space_group_name_H-M    P1
_symmetry_Int_Tables_number       1
_symmetry_cell_setting            triclinic
loop_
_symmetry_equiv_pos_as_xyz
'x, y, z'
_cell_length_a     22.558004
_cell_length_b     31.501676
_cell_length_c     39.855797
_cell_angle_alpha  89.936503
_cell_angle_beta   90.321943
_cell_angle_gamma 90.844392
loop_
_atom_site_label
_atom_site_type_symbol
_atom_site_fract_x
_atom_site_fract_y
_atom_site_fract_z
_atom_type_partial_charge
H0 H 0.26501 0.40748 0.36023 0.0
C1 C 0.28512 0.40812 0.38499 0.0
C2 C 0.33716 0.43227 0.39066 0.0
C3 C 0.2561 0.38818 0.4121 0.0
H4 H 0.40359 0.45074 0.42637 0.0
C5 C 0.36197 0.43373 0.42309 0.0
C6 C 0.33237 0.41615 0.45098 0.0
C7 C 0.27942 0.39301 0.44483 0.0
C8 C 0.19674 0.36763 0.40776 0.0
H9 H 0.25419 0.38003 0.46554 0.0
C10 C 0.18778 0.33125 0.3875 0.0
C11 C 0.13191 0.31018 0.38691 0.0
C12 C 0.14888 0.38353 0.42607 0.0
H13 H 0.15453 0.41153 0.4416 0.0
C14 C 0.09352 0.36341 0.42485 0.0
H15 H 0.22448 0.31848 0.37349 0.0
C16 C 0.08513 0.32685 0.40567 0.0
H17 H 0.0417 0.31169 0.40529 0.0
H18 H 0.05705 0.37599 0.4391 0.0
H19 H 0.23592 0.10062 0.86022 0.0
C20 C 0.21681 0.10678 0.8846 0.0
C21 C 0.16418 0.0856 0.89435 0.0
C22 C 0.24802 0.13275 0.90739 0.0
H23 H 0.10225 0.07553 0.9351 0.0
C24 C 0.14247 0.09177 0.92717 0.0
C25 C 0.17304 0.11817 0.95007 0.0
C26 C 0.22558 0.13865 0.93974 0.0
C27 C 0.30955 0.1467 0.90038 0.0
H28 H 0.25145 0.15719 0.95764 0.0
C29 C 0.32277 0.18094 0.87873 0.0
C30 C 0.38217 0.19493 0.87453 0.0
C31 C 0.35565 0.12614 0.9173 0.0
H32 H 0.34618 0.09983 0.93408 0.0
C33 C 0.41413 0.13957 0.91315 0.0
H34 H 0.28706 0.19669 0.86565 0.0
C35 C 0.42735 0.1738 0.89223 0.0
H36 H 0.47318 0.18424 0.89056 0.0
H37 H 0.44935 0.12378 0.92659 0.0
H38 H 0.7575 0.09138 0.69066 0.0
C39 C 0.77326 0.09879 0.66565 0.0
C40 C 0.82803 0.08349 0.65458 0.0
C41 C 0.73661 0.12158 0.64405 0.0
H42 H 0.88782 0.08069 0.61209 0.0
C43 C 0.84569 0.09202 0.62108 0.0
C44 C 0.80902 0.11541 0.59917 0.0
C45 C 0.75437 0.12976 0.61114 0.0
C46 C 0.67735 0.13431 0.65493 0.0
H47 H 0.72432 0.14635 0.59452 0.0
C48 C 0.66956 0.17296 0.67168 0.0
C49 C 0.61225 0.18656 0.67942 0.0
C50 C 0.62795 0.10874 0.64676 0.0
H51 H 0.63348 0.07892 0.63371 0.0
C52 C 0.57104 0.12184 0.65499 0.0
H53 H 0.7077 0.19302 0.67753 0.0
C54 C 0.56308 0.16072 0.671 0.0
H55 H 0.51853 0.1707 0.67679 0.0
H56 H 0.53298 0.10211 0.64855 0.0
H57 H 0.76718 0.4116 0.18347 0.0
C58 C 0.75116 0.41103 0.15778 0.0
C59 C 0.70193 0.43552 0.14845 0.0
C60 C 0.78319 0.38887 0.13342 0.0
H61 H 0.64603 0.45443 0.10679 0.0
C62 C 0.68402 0.43602 0.11438 0.0
C63 C 0.71555 0.41383 0.08976 0.0
C64 C 0.76477 0.39009 0.09971 0.0
C65 C 0.84096 0.36967 0.14177 0.0
H66 H 0.79101 0.37426 0.08089 0.0
C67 C 0.84538 0.33474 0.16374 0.0
C68 C 0.90064 0.31543 0.16894 0.0
C69 C 0.8923 0.38569 0.12611 0.0
H70 H 0.88985 0.41262 0.10924 0.0
C71 C 0.94709 0.36708 0.13188 0.0
H72 H 0.80599 0.32178 0.17564 0.0
C73 C 0.95125 0.33193 0.15297 0.0
H74 H 0.99403 0.31738 0.15673 0.0
H75 H 0.98633 0.37961 0.11964 0.0
H76 H 0.68654 0.63212 0.67685 0.0
C77 C 0.69432 0.62023 0.65176 0.0
C78 C 0.67887 0.57788 0.64366 0.0
C79 C 0.71708 0.64778 0.62705 0.0
H80 H 0.67237 0.53144 0.6039 0.0
C81 C 0.68658 0.56339 0.61053 0.0
C82 C 0.70811 0.59089 0.58542 0.0
C83 C 0.72451 0.63258 0.59425 0.0
C84 C 0.72438 0.69408 0.63319 0.0
H85 H 0.74136 0.65404 0.57513 0.0
C86 C 0.76354 0.71093 0.65781 0.0
C87 C 0.77069 0.75546 0.66129 0.0
C88 C 0.69239 0.72198 0.61262 0.0
H89 H 0.66186 0.70983 0.59373 0.0
C90 C 0.69955 0.76566 0.6159 0.0
H91 H 0.78827 0.68969 0.67385 0.0
C92 C 0.73852 0.7823 0.6398 0.0
H93 H 0.74386 0.81648 0.64124 0.0
H94 H 0.67503 0.78677 0.59967 0.0
H95 H 0.8261 0.88681 0.18293 0.0
C96 C 0.82118 0.89796 0.15734 0.0
C97 C 0.83946 0.93963 0.1489 0.0
C98 C 0.80138 0.8697 0.13221 0.0
H99 H 0.85332 0.98444 0.10854 0.0
C100 C 0.83708 0.95298 0.11516 0.0
C101 C 0.81677 0.92518 0.08981 0.0
C102 C 0.79794 0.88407 0.09886 0.0
C103 C 0.79504 0.82329 0.13863 0.0
H104 H 0.78268 0.86224 0.07953 0.0
C105 C 0.75477 0.80575 0.1622 0.0
C106 C 0.74962 0.76108 0.16597 0.0
C107 C 0.82999 0.7959 0.11946 0.0
H108 H 0.86157 0.80849 0.10148 0.0
C109 C 0.82466 0.75215 0.12297 0.0
H110 H 0.72781 0.8265 0.17725 0.0
C111 C 0.7847 0.73485 0.14579 0.0
H112 H 0.78102 0.70059 0.14749 0.0
H113 H 0.85149 0.7315 0.10779 0.0
H114 H 0.17472 0.86647 0.35297 0.0
C115 C 0.17079 0.86899 0.37996 0.0
C116 C 0.14878 0.90628 0.39465 0.0
C117 C 0.1832 0.83324 0.39971 0.0
H118 H 0.12451 0.93518 0.44202 0.0
C119 C 0.14061 0.90696 0.42979 0.0
C120 C 0.15104 0.87088 0.44959 0.0
C121 C 0.17339 0.8344 0.43441 0.0
C122 C 0.19544 0.79214 0.38367 0.0
H123 H 0.17952 0.80587 0.44922 0.0
C124 C 0.25274 0.78159 0.3729 0.0
C125 C 0.26342 0.74069 0.36022 0.0
C126 C 0.14895 0.76227 0.38071 0.0
H127 H 0.10467 0.76997 0.38892 0.0
C128 C 0.15926 0.72215 0.3675 0.0
H129 H 0.28893 0.80439 0.37547 0.0
C130 C 0.21615 0.71126 0.35755 0.0
H131 H 0.22335 0.67969 0.34774 0.0
H132 H 0.1232 0.69925 0.36534 0.0
H133 H 0.33499 0.64249 0.85236 0.0
C134 C 0.34021 0.63639 0.87896 0.0
C135 C 0.36012 0.59672 0.89043 0.0
C136 C 0.32914 0.66925 0.90163 0.0
H137 H 0.38407 0.56078 0.93466 0.0
C138 C 0.36647 0.59033 0.92532 0.0
C139 C 0.35292 0.62243 0.94845 0.0
C140 C 0.33494 0.66208 0.9362 0.0
C141 C 0.31917 0.71267 0.8892 0.0
H142 H 0.32539 0.68763 0.95345 0.0
C143 C 0.26419 0.72478 0.8756 0.0
C144 C 0.2557 0.76706 0.86526 0.0
C145 C 0.36578 0.7425 0.89153 0.0
H146 H 0.40835 0.73355 0.90185 0.0
C147 C 0.35799 0.78399 0.88043 0.0
H148 H 0.2279 0.70191 0.87416 0.0
C149 C 0.30338 0.79628 0.86746 0.0
H150 H 0.29832 0.8288 0.85913 0.0
H151 H 0.39427 0.80678 0.8821 0.0
Eu152 Eu 0.07276 0.10558 0.24028 0.0
C153 C 0.80561 0.09675 0.29855 0.0
N154 N 0.8459 0.12934 0.29861 0.0
C155 C 0.76962 0.17853 0.28439 0.0
C156 C 0.74561 0.10391 0.29042 0.0
C157 C 0.82852 0.17001 0.2927 0.0
C158 C 0.72805 0.14533 0.283 0.0
C159 C 0.78334 0.02162 0.30629 0.0
C160 C 0.82419 0.05599 0.30675 0.0
C161 C 0.72375 0.02875 0.298 0.0
C162 C 0.70493 0.06975 0.29015 0.0
Eu163 Eu 0.94329 0.11135 0.31429 0.0
N164 N 0.88245 0.04969 0.31409 0.0
C165 C 0.80372 0.98094 0.31379 0.0
C166 C 0.90243 0.01011 0.32164 0.0
C167 C 0.86348 0.97519 0.32149 0.0
H168 H 0.85944 0.19622 0.29535 0.0
H169 H 0.87961 0.94384 0.32735 0.0
H170 H 0.17812 0.03386 0.2574 0.0
H171 H 0.11049 0.26829 0.19773 0.0
H172 H 0.94827 1.00505 0.32771 0.0
H173 H 0.77372 0.95375 0.31362 0.0
H174 H 0.05543 0.20028 0.20438 0.0
H175 H 0.75615 0.21081 0.27953 0.0
H176 H 0.69182 1.00271 0.29753 0.0
H177 H 0.65873 0.07471 0.2839 0.0
H178 H 0.28138 0.0325 0.27832 0.0
H179 H 0.68237 0.15209 0.2767 0.0
H180 H 0.21203 0.27606 0.22109 0.0
N181 N 0.17379 0.101 0.25688 0.0
C182 C 0.20587 0.13787 0.25718 0.0
C183 C 0.26032 0.0625 0.27322 0.0
C184 C 0.26601 0.13869 0.26712 0.0
C185 C 0.20127 0.06333 0.2624 0.0
C186 C 0.2925 0.1005 0.27635 0.0
N187 N 0.12337 0.1713 0.23288 0.0
C188 C 0.09906 0.20391 0.21521 0.0
C189 C 0.21379 0.21186 0.24059 0.0
C190 C 0.1803 0.174 0.24409 0.0
C191 C 0.18773 0.24643 0.22436 0.0
C192 C 0.13041 0.2422 0.21117 0.0
H193 H 0.33859 0.09973 0.28411 0.0
H194 H 0.3446 0.17835 0.27362 0.0
H195 H 0.29878 0.2425 0.25036 0.0
O196 O 0.05045 0.11144 0.1867 0.0
O197 O 0.07414 0.16259 0.27523 0.0
O198 O 0.04041 0.12918 0.3218 0.0
O199 O 0.11987 0.0698 0.20203 0.0
O200 O 0.98274 0.13609 0.23141 0.0
O201 O 0.95532 0.16887 0.28055 0.0
O202 O 0.92666 0.09458 0.36672 0.0
O203 O 0.9195 0.07767 0.26495 0.0
O204 O 0.00951 0.05068 0.25062 0.0
O205 O 0.92104 0.16008 0.3511 0.0
O206 O 0.01601 0.06492 0.32503 0.0
O207 O 0.08242 0.05339 0.28094 0.0
C208 C 0.06648 0.16197 0.30775 0.0
C209 C 0.13421 0.10758 0.15146 0.0
C210 C 0.158 0.12694 0.09345 0.0
C211 C 0.20992 0.14752 0.10509 0.0
C212 C 0.18713 0.12759 0.16203 0.0
C213 C 0.22435 0.14767 0.13907 0.0
C214 C 0.12 0.10683 0.1169 0.0
C215 C 0.96006 0.16848 0.24761 0.0
C216 C 0.09422 0.08828 0.17677 0.0
C217 C 0.29856 0.17703 0.26573 0.0
C218 C 0.27253 0.21354 0.2524 0.0
C219 C 0.95182 0.05211 0.2466 0.0
C220 C 0.86427 0.13847 0.39866 0.0
C221 C 0.82469 0.13948 0.45579 0.0
C222 C 0.7693 0.15105 0.44256 0.0
C223 C 0.80839 0.14966 0.38617 0.0
C224 C 0.87208 0.13279 0.43357 0.0
C225 C 0.76123 0.1558 0.40802 0.0
C226 C 0.06098 0.04505 0.31138 0.0
C227 C 0.91498 0.13318 0.37585 0.0
H228 H 0.24035 0.16268 0.08771 0.0
H229 H 0.20013 0.12744 0.18808 0.0
H230 H 0.26489 0.16307 0.14764 0.0
H231 H 0.07966 0.09105 0.10836 0.0
H232 H 0.73199 0.15611 0.45901 0.0
H233 H 0.80113 0.15393 0.3596 0.0
H234 H 0.91514 0.12416 0.44345 0.0
H235 H 0.71829 0.16452 0.39816 0.0
Eu236 Eu 0.43785 0.40943 0.74069 0.0
C237 C 0.68776 0.46685 0.77909 0.0
N238 N 0.66943 0.42561 0.78088 0.0
C239 C 0.75721 0.4034 0.75278 0.0
C240 C 0.74166 0.47801 0.76345 0.0
C241 C 0.70324 0.39386 0.76836 0.0
C242 C 0.77638 0.44567 0.75015 0.0
C243 C 0.67055 0.54087 0.79192 0.0
C244 C 0.65191 0.49795 0.79261 0.0
C245 C 0.72357 0.55227 0.77567 0.0
C246 C 0.75896 0.52093 0.76142 0.0
Eu247 Eu 0.57611 0.41263 0.80533 0.0
N248 N 0.60034 0.48604 0.80783 0.0
C249 C 0.63639 0.57086 0.80861 0.0
C250 C 0.57093 0.51434 0.82723 0.0
C251 C 0.58719 0.55734 0.82707 0.0
H252 H 0.6884 0.36119 0.7703 0.0
H253 H 0.56256 0.57986 0.84177 0.0
H254 H 0.35097 0.49293 0.75746 0.0
H255 H 0.38305 0.24006 0.73694 0.0
H256 H 0.5362 0.50376 0.84379 0.0
H257 H 0.64924 0.60414 0.80875 0.0
H258 H 0.4459 0.304 0.72886 0.0
H259 H 0.78388 0.37819 0.7427 0.0
H260 H 0.73819 0.58516 0.77456 0.0
H261 H 0.8 0.53018 0.74925 0.0
H262 H 0.25018 0.50568 0.77869 0.0
H263 H 0.81808 0.45296 0.73791 0.0
H264 H 0.28132 0.24699 0.75896 0.0
N265 N 0.34148 0.42568 0.75893 0.0
C266 C 0.30445 0.39187 0.76425 0.0
C267 C 0.26504 0.47353 0.77494 0.0
C268 C 0.24619 0.39775 0.77582 0.0
C269 C 0.32232 0.46618 0.7633 0.0
C270 C 0.22693 0.43918 0.78145 0.0
N271 N 0.38123 0.34635 0.74697 0.0
C272 C 0.40179 0.30732 0.73852 0.0
C273 C 0.28703 0.31554 0.76263 0.0
C274 C 0.32454 0.35116 0.75767 0.0
C275 C 0.30872 0.27515 0.75539 0.0
C276 C 0.36616 0.27109 0.743 0.0
H277 H 0.1825 0.44501 0.79038 0.0
H278 H 0.16411 0.3662 0.79018 0.0
H279 H 0.1999 0.2943 0.7787 0.0
O280 O 0.45458 0.39735 0.68741 0.0
O281 O 0.42825 0.37244 0.79007 0.0
O282 O 0.52176 0.35207 0.8073 0.0
O283 O 0.37515 0.42957 0.70226 0.0
O284 O 0.51629 0.36804 0.72756 0.0
O285 O 0.57521 0.35223 0.77429 0.0
O286 O 0.57279 0.41578 0.86007 0.0
O287 O 0.58656 0.43364 0.7507 0.0
O288 O 0.49966 0.46683 0.73916 0.0
O289 O 0.64748 0.3867 0.83651 0.0
O290 O 0.48605 0.43903 0.81988 0.0
O291 O 0.45227 0.46889 0.77113 0.0
C292 C 0.46408 0.34613 0.80552 0.0
C293 C 0.41355 0.44655 0.64905 0.0
C294 C 0.40178 0.46181 0.58889 0.0
C295 C 0.41425 0.50499 0.59611 0.0
C296 C 0.42765 0.4893 0.65508 0.0
C297 C 0.42803 0.51828 0.62868 0.0
C298 C 0.40201 0.43273 0.61602 0.0
C299 C 0.55638 0.34501 0.74324 0.0
C300 C 0.40703 0.41669 0.67726 0.0
C301 C 0.20893 0.36228 0.78117 0.0
C302 C 0.22928 0.32131 0.7746 0.0
C303 C 0.55713 0.46365 0.73536 0.0
C304 C 0.66413 0.42257 0.88829 0.0
C305 C 0.69475 0.43909 0.94602 0.0
C306 C 0.73277 0.47109 0.93348 0.0
C307 C 0.70271 0.45452 0.87655 0.0
C308 C 0.66062 0.41466 0.9231 0.0
C309 C 0.73681 0.47854 0.89903 0.0
C310 C 0.45384 0.46715 0.80394 0.0
C311 C 0.62476 0.39938 0.86468 0.0
H312 H 0.41235 0.52916 0.57689 0.0
H313 H 0.43698 0.50041 0.68031 0.0
H314 H 0.43781 0.55145 0.63359 0.0
H315 H 0.39293 0.39932 0.61186 0.0
H316 H 0.76007 0.49005 0.95035 0.0
H317 H 0.70621 0.46113 0.85002 0.0
H318 H 0.63047 0.39028 0.93234 0.0
H319 H 0.76639 0.50317 0.88973 0.0
Eu320 Eu 0.05946 0.90241 0.73787 0.0
C321 C 0.81056 0.86596 0.80677 0.0
N322 N 0.83766 0.90363 0.79969 0.0
C323 C 0.74679 0.9311 0.77796 0.0
C324 C 0.75023 0.859 0.79877 0.0
C325 C 0.80679 0.93641 0.78616 0.0
C326 C 0.71845 0.89213 0.78407 0.0
C327 C 0.81647 0.79475 0.82951 0.0
C328 C 0.84348 0.83424 0.82185 0.0
C329 C 0.75672 0.78733 0.82094 0.0
C330 C 0.72367 0.81938 0.80564 0.0
Eu331 Eu 0.93837 0.91047 0.81429 0.0
N332 N 0.90124 0.84241 0.82992 0.0
C333 C 0.84995 0.76417 0.84622 0.0
C334 C 0.93283 0.81357 0.84805 0.0
C335 C 0.90811 0.77386 0.85591 0.0
H336 H 0.82843 0.96669 0.78177 0.0
H337 H 0.93369 0.75096 0.86989 0.0
H338 H 0.15131 0.8213 0.75458 0.0
H339 H 0.1254 0.06552 0.7081 0.0
H340 H 0.97665 0.82111 0.85736 0.0
H341 H 0.83082 0.73346 0.85257 0.0
H342 H 0.0598 1.00159 0.70792 0.0
H343 H 0.72244 0.95704 0.76696 0.0
H344 H 0.7354 0.75709 0.82647 0.0
H345 H 0.67748 0.81332 0.79946 0.0
H346 H 0.25056 0.8106 0.77954 0.0
H347 H 0.67201 0.88804 0.77757 0.0
H348 H 0.22287 0.06343 0.7369 0.0
N349 N 0.15632 0.88851 0.75812 0.0
C350 C 0.19292 0.92279 0.76227 0.0
C351 C 0.23445 0.8424 0.77548 0.0
C352 C 0.25084 0.91829 0.77521 0.0
C353 C 0.17778 0.84855 0.76204 0.0
C354 C 0.27059 0.87751 0.78296 0.0
N355 N 0.11941 0.9647 0.73687 0.0
C356 C 0.10257 1.00062 0.72028 0.0
C357 C 0.21298 0.99752 0.75166 0.0
C358 C 0.17444 0.96192 0.75065 0.0
C359 C 0.19445 0.0354 0.73674 0.0
C360 C 0.13947 0.03671 0.72041 0.0
H361 H 0.31472 0.87266 0.793 0.0
H362 H 0.33248 0.95146 0.78861 0.0
H363 H 0.29927 0.02088 0.76796 0.0
O364 O 0.04404 0.91773 0.68523 0.0
O365 O 0.06043 0.95943 0.77405 0.0
O366 O 0.03519 0.92417 0.82098 0.0
O367 O 0.1088 0.87098 0.69779 0.0
O368 O 0.97156 0.93265 0.72785 0.0
O369 O 0.94065 0.96592 0.7763 0.0
O370 O 0.9194 0.91 0.86793 0.0
O371 O 0.90864 0.88206 0.7647 0.0
O372 O 0.99021 0.84845 0.74278 0.0
O373 O 0.91558 0.96915 0.8405 0.0
O374 O 0.02315 0.87328 0.82279 0.0
O375 O 0.05226 0.84433 0.77227 0.0
C376 C 0.05946 0.95715 0.80687 0.0
C377 C 0.06074 0.86519 0.64494 0.0
C378 C 0.06291 0.85054 0.58483 0.0
C379 C 0.01387 0.82295 0.58865 0.0
C380 C 0.01207 0.83738 0.6483 0.0
C381 C 0.98899 0.81617 0.62028 0.0
C382 C 0.08662 0.87131 0.61323 0.0
C383 C 0.94699 0.9647 0.74319 0.0
C384 C 0.08159 0.89064 0.67366 0.0
C385 C 0.28813 0.95422 0.77833 0.0
C386 C 0.26928 0.99375 0.76649 0.0
C387 C 0.93225 0.85143 0.747 0.0
C388 C 0.85811 0.9627 0.89085 0.0
C389 C 0.81544 0.96703 0.94729 0.0
C390 C 0.76564 0.98701 0.93336 0.0
C391 C 0.8078 0.9824 0.87758 0.0
C392 C 0.86162 0.9551 0.92567 0.0
C393 C 0.76195 0.99452 0.8988 0.0
C394 C 0.05164 0.84437 0.80536 0.0
C395 C 0.9082 0.95031 0.86941 0.0
H396 H 0.99486 0.80664 0.56713 0.0
H397 H 0.9914 0.83284 0.67246 0.0
H398 H 0.95115 0.79493 0.62301 0.0
H399 H 0.12367 0.89334 0.61045 0.0
H400 H 0.72893 0.99611 0.94906 0.0
H401 H 0.80395 0.98852 0.85092 0.0
H402 H 0.90081 0.94025 0.93593 0.0
H403 H 0.72318 0.00966 0.88841 0.0
Eu404 Eu 0.46336 0.60703 0.23648 0.0
C405 C 0.70818 0.64615 0.31014 0.0
N406 N 0.68318 0.60836 0.30121 0.0
C407 C 0.77637 0.58423 0.28069 0.0
C408 C 0.76856 0.65492 0.30376 0.0
C409 C 0.71625 0.57711 0.28736 0.0
C410 C 0.80258 0.62342 0.28871 0.0
C411 C 0.698 0.71558 0.33537 0.0
C412 C 0.67313 0.67607 0.32563 0.0
C413 C 0.75774 0.72491 0.3283 0.0
C414 C 0.79295 0.69464 0.31257 0.0
Eu415 Eu 0.58224 0.59807 0.3135 0.0
N416 N 0.61554 0.66597 0.33235 0.0
C417 C 0.66254 0.74413 0.35271 0.0
C418 C 0.58221 0.6926 0.35134 0.0
C419 C 0.60469 0.73231 0.36115 0.0
H420 H 0.69624 0.54663 0.28151 0.0
H421 H 0.57767 0.75348 0.37575 0.0
H422 H 0.36402 0.68072 0.25858 0.0
H423 H 0.41522 0.44329 0.19964 0.0
H424 H 0.53878 0.68323 0.35993 0.0
H425 H 0.67999 0.77477 0.36063 0.0
H426 H 0.47343 0.51067 0.20232 0.0
H427 H 0.80245 0.55951 0.26943 0.0
H428 H 0.77741 0.7552 0.33541 0.0
H429 H 0.83913 0.7021 0.30764 0.0
H430 H 0.26518 0.68374 0.28476 0.0
H431 H 0.84913 0.62892 0.28342 0.0
H432 H 0.31804 0.43775 0.22802 0.0
N433 N 0.36636 0.61346 0.25844 0.0
C434 C 0.33337 0.57707 0.26053 0.0
C435 C 0.28438 0.65338 0.27885 0.0
C436 C 0.27566 0.57717 0.27397 0.0
C437 C 0.34101 0.65158 0.26488 0.0
C438 C 0.25213 0.61586 0.28429 0.0
N439 N 0.41014 0.54188 0.23244 0.0
C440 C 0.43089 0.50826 0.21459 0.0
C441 C 0.32083 0.50272 0.24575 0.0
C442 C 0.35534 0.54034 0.24646 0.0
C443 C 0.34325 0.46726 0.22917 0.0
C444 C 0.39812 0.47025 0.2131 0.0
H445 H 0.20796 0.61736 0.29472 0.0
H446 H 0.19818 0.53853 0.2857 0.0
H447 H 0.23788 0.47326 0.26109 0.0
O448 O 0.47618 0.59914 0.1822 0.0
O449 O 0.46624 0.54876 0.27137 0.0
O450 O 0.48612 0.58136 0.32057 0.0
O451 O 0.41044 0.64204 0.2001 0.0
O452 O 0.55147 0.578 0.22482 0.0
O453 O 0.58365 0.54489 0.27369 0.0
O454 O 0.60059 0.59561 0.36716 0.0
O455 O 0.61309 0.62906 0.26516 0.0
O456 O 0.53089 0.66169 0.2428 0.0
O457 O 0.6085 0.53848 0.33759 0.0
O458 O 0.49595 0.63315 0.32216 0.0
O459 O 0.46838 0.6639 0.27198 0.0
C460 C 0.45998 0.55081 0.30397 0.0
C461 C 0.38803 0.60535 0.15011 0.0
C462 C 0.35279 0.59402 0.09253 0.0
C463 C 0.30234 0.57287 0.10534 0.0
C464 C 0.33698 0.58445 0.16206 0.0
C465 C 0.29472 0.56809 0.13981 0.0
C466 C 0.39581 0.61013 0.11527 0.0
C467 C 0.58134 0.54826 0.24048 0.0
C468 C 0.43201 0.62318 0.17401 0.0
C469 C 0.24229 0.53917 0.27507 0.0
C470 C 0.2648 0.50203 0.26094 0.0
C471 C 0.58883 0.65939 0.24726 0.0
C472 C 0.66627 0.54443 0.38832 0.0
C473 C 0.712 0.5432 0.4443 0.0
C474 C 0.76121 0.52266 0.43061 0.0
C475 C 0.716 0.52421 0.37516 0.0
C476 C 0.66456 0.55371 0.42284 0.0
C477 C 0.7631 0.51334 0.3963 0.0
C478 C 0.46852 0.66296 0.30502 0.0
C479 C 0.61488 0.5558 0.36717 0.0
H480 H 0.26783 0.56086 0.08875 0.0
H481 H 0.32915 0.58139 0.18861 0.0
H482 H 0.25541 0.5522 0.14935 0.0
H483 H 0.43514 0.62635 0.10598 0.0
H484 H 0.79875 0.51451 0.44627 0.0
H485 H 0.71849 0.51675 0.3487 0.0
H486 H 0.62577 0.56887 0.43303 0.0
H487 H 0.80141 0.49779 0.38603 0.0
C488 C 0.15472 0.9519 0.34191 0.0
C489 C 0.12874 0.9427 0.37327 0.0
H490 H 0.15294 0.98954 0.2973 0.0
C491 C 0.08105 0.96772 0.38358 0.0
H492 H 0.19181 0.9338 0.33293 0.0
C493 C 0.06087 1.00104 0.36379 0.0
C494 C 0.08599 0.00999 0.33221 0.0
H495 H 0.05778 0.96124 0.40672 0.0
H496 H 0.0243 0.01927 0.37334 0.0
C497 C 0.13303 0.98465 0.32148 0.0
C498 C 0.37321 0.51964 0.87502 0.0
C499 C 0.3779 0.56293 0.86625 0.0
H500 H 0.39436 0.4555 0.86228 0.0
C501 C 0.40295 0.57359 0.83494 0.0
H502 H 0.35256 0.50975 0.89825 0.0
C503 C 0.42433 0.54209 0.81368 0.0
C504 C 0.42296 0.49943 0.82372 0.0
H505 H 0.4086 0.60634 0.82727 0.0
H506 H 0.44517 0.55134 0.79031 0.0
C507 C 0.39648 0.48837 0.85427 0.0
C508 C 0.67132 0.5087 0.67487 0.0
C509 C 0.64971 0.5496 0.66874 0.0
H510 H 0.65925 0.44964 0.70092 0.0
C511 C 0.59788 0.56232 0.68514 0.0
H512 H 0.71112 0.49809 0.66255 0.0
C513 C 0.56756 0.53436 0.70664 0.0
C514 C 0.58909 0.49339 0.71268 0.0
H515 H 0.57991 0.59352 0.68059 0.0
H516 H 0.52738 0.54485 0.71865 0.0
C517 C 0.64163 0.48104 0.69683 0.0
C518 C 0.83307 0.99065 0.19721 0.0
C519 C 0.86752 0.96769 0.17454 0.0
H520 H 0.83232 0.03606 0.23721 0.0
C521 C 0.92945 0.97237 0.17577 0.0
H522 H 0.78517 0.98771 0.19655 0.0
C523 C 0.95662 0.99936 0.19937 0.0
C524 C 0.92241 0.0228 0.22205 0.0
H525 H 0.95687 0.95507 0.15841 0.0
H526 H 0.00453 1.00221 0.19953 0.0
C527 C 0.8602 0.01825 0.22052 0.0
C528 C 0.86537 0.06272 0.71241 0.0
C529 C 0.86343 0.05576 0.67738 0.0
H530 H 0.89271 0.0396 0.76082 0.0
C531 C 0.89138 0.01981 0.6646 0.0
H532 H 0.84509 0.09045 0.7232 0.0
C533 C 0.91891 0.99108 0.68607 0.0
C534 C 0.91922 0.99713 0.72116 0.0
H535 H 0.89011 0.0128 0.63801 0.0
H536 H 0.93879 0.96344 0.67491 0.0
C537 C 0.89276 0.03365 0.73406 0.0
C538 C 0.65635 0.50502 0.16333 0.0
C539 C 0.67287 0.46405 0.17324 0.0
H540 H 0.61592 0.56321 0.17653 0.0
C541 C 0.66223 0.45154 0.20673 0.0
H542 H 0.66555 0.51654 0.13825 0.0
C543 C 0.63395 0.47899 0.22927 0.0
C544 C 0.6157 0.51936 0.21867 0.0
H545 H 0.67458 0.42024 0.21529 0.0
H546 H 0.62507 0.46824 0.25459 0.0
C547 C 0.62814 0.53207 0.18556 0.0
C548 C 0.36698 0.50532 0.37386 0.0
C549 C 0.36118 0.46231 0.3651 0.0
H550 H 0.4019 0.56643 0.36138 0.0
C551 C 0.3827 0.44897 0.33381 0.0
H552 H 0.34994 0.51668 0.39753 0.0
C553 C 0.41298 0.47795 0.31276 0.0
C554 C 0.42173 0.52046 0.32279 0.0
H555 H 0.37862 0.41598 0.32644 0.0
H556 H 0.43179 0.46673 0.28952 0.0
C557 C 0.39689 0.53387 0.35311 0.0
C558 C 0.11572 0.01452 0.88444 0.0
C559 C 0.13554 0.05373 0.87157 0.0
H560 H 0.07696 0.9537 0.87429 0.0
C561 C 0.12988 0.06121 0.83683 0.0
H562 H 0.12043 1.0072 0.91087 0.0
C563 C 0.10487 0.03016 0.8156 0.0
C564 C 0.08563 0.99087 0.82859 0.0
H565 H 0.14435 0.09119 0.82612 0.0
H566 H 0.10016 0.03708 0.78917 0.0
C567 C 0.09113 0.98361 0.8633 0.0
C568 C 0.15828 0.1606 1.0025 0.0
C569 C 0.15486 0.1213 0.98589 0.0
H570 H 0.16037 0.19322 0.04958 0.0
C571 C 0.142 0.08456 1.00483 0.0
H572 H 0.16718 0.18954 0.98858 0.0
C573 C 0.13792 0.0867 0.03994 0.0
C574 C 0.14669 0.1256 0.05664 0.0
H575 H 0.13939 0.05377 0.99281 0.0
H576 H 0.13235 0.05757 0.05411 0.0
C577 C 0.15425 0.16271 0.03741 0.0
C578 C 0.38895 0.46193 0.49317 0.0
C579 C 0.35361 0.42561 0.48628 0.0
H580 H 0.43524 0.49967 0.52909 0.0
C581 C 0.33678 0.39998 0.51379 0.0
H582 H 0.40237 0.48374 0.47362 0.0
C583 C 0.35226 0.41135 0.5468 0.0
C584 C 0.38714 0.44795 0.55353 0.0
H585 H 0.31097 0.37114 0.5102 0.0
H586 H 0.33542 0.39162 0.5669 0.0
C587 C 0.40659 0.47216 0.52586 0.0
C588 C 0.70338 0.38443 0.0311 0.0
C589 C 0.70188 0.41917 0.05329 0.0
H590 H 0.7014 0.36336 0.97983 0.0
C591 C 0.69263 0.45989 0.03992 0.0
H592 H 0.71009 0.35263 0.04061 0.0
C593 C 0.68804 0.466 1.00521 0.0
C594 C 0.69196 0.43154 0.98294 0.0
H595 H 0.69178 0.48739 0.05618 0.0
H596 H 0.68284 0.49797 0.9957 0.0
C597 C 0.69803 0.39051 0.99632 0.0
C598 C 0.84647 0.09121 0.54256 0.0
C599 C 0.82463 0.12358 0.56327 0.0
H600 H 0.86407 0.07094 0.49202 0.0
C601 C 0.81079 0.16284 0.54846 0.0
H602 H 0.85732 0.06055 0.55305 0.0
C603 C 0.81383 0.16847 0.51374 0.0
C604 C 0.83174 0.13528 0.49281 0.0
H605 H 0.79514 0.18882 0.56365 0.0
H606 H 0.80016 0.19844 0.50306 0.0
C607 C 0.85018 0.09708 0.50761 0.0
C608 C 0.79894 0.97696 0.04237 0.0
C609 C 0.81898 0.93731 0.05357 0.0
H610 H 0.78218 0.01756 1.00018 0.0
C611 C 0.84007 0.90842 0.02965 0.0
H612 H 0.78242 0.99992 0.06009 0.0
C613 C 0.83977 0.91837 0.99544 0.0
C614 C 0.81833 0.95754 0.98405 0.0
H615 H 0.85678 0.87785 0.03739 0.0
H616 H 0.85508 0.89485 0.97782 0.0
C617 C 0.79833 0.98687 1.008 0.0
C618 C 0.72954 0.53786 0.53958 0.0
C619 C 0.70878 0.57781 0.54943 0.0
H620 H 0.74693 0.49552 0.49875 0.0
C621 C 0.68829 0.60575 0.52449 0.0
H622 H 0.74566 0.51564 0.55815 0.0
C623 C 0.6892 0.59439 0.49063 0.0
C624 C 0.71056 0.5547 0.48063 0.0
H625 H 0.67104 0.6365 0.53116 0.0
H626 H 0.67387 0.61706 0.47219 0.0
C627 C 0.73072 0.52652 0.50554 0.0
C628 C 0.33941 0.57499 0.99868 0.0
C629 C 0.35742 0.6144 0.9853 0.0
H630 H 0.32551 0.53727 0.04262 0.0
C631 C 0.37795 0.64619 1.0075 0.0
H632 H 0.32295 0.54982 0.98249 0.0
C633 C 0.37844 0.6392 0.04223 0.0
C634 C 0.35854 0.60022 0.05558 0.0
H635 H 0.39322 0.67668 0.9981 0.0
H636 H 0.39255 0.66485 0.05863 0.0
C637 C 0.34022 0.56794 0.03329 0.0
C638 C 0.16819 0.85444 0.51079 0.0
C639 C 0.13092 0.86923 0.48503 0.0
H640 H 0.17604 0.83782 0.56298 0.0
C641 C 0.07213 0.8795 0.49277 0.0
H642 H 0.2136 0.84618 0.50544 0.0
C643 C 0.05047 0.87388 0.52529 0.0
C644 C 0.08743 0.85866 0.55094 0.0
H645 H 0.04222 0.89046 0.47335 0.0
H646 H 0.00457 0.88108 0.53039 0.0
C647 C 0.14681 0.84973 0.54359 0.0
C648 C 0.09342 0.2352 0.38228 0.0
C649 C 0.12099 0.27071 0.36717 0.0
H650 H 0.05519 0.17307 0.37563 0.0
C651 C 0.13255 0.26954 0.33265 0.0
H652 H 0.08392 0.23525 0.40889 0.0
C653 C 0.11501 0.23422 0.31346 0.0
C654 C 0.08674 0.19885 0.32841 0.0
H655 H 0.15286 0.29665 0.32025 0.0
H656 H 0.12241 0.2352 0.28676 0.0
C657 C 0.07684 0.19961 0.36319 0.0
C658 C 0.45225 0.23279 0.83553 0.0
C659 C 0.39825 0.23225 0.85309 0.0
H660 H 0.51534 0.2692 0.80732 0.0
C661 C 0.3631 0.26886 0.85215 0.0
H662 H 0.4796 0.20486 0.83456 0.0
C663 C 0.38329 0.30574 0.8357 0.0
C664 C 0.43929 0.30678 0.82043 0.0
H665 H 0.32131 0.26972 0.86533 0.0
H666 H 0.35627 0.33388 0.83612 0.0
C667 C 0.47281 0.26967 0.81983 0.0
C668 C 0.62829 0.239 0.72598 0.0
C669 C 0.60298 0.22853 0.69475 0.0
H670 H 0.63312 0.28413 0.76615 0.0
C671 C 0.56662 0.25784 0.67848 0.0
H672 H 0.65662 0.21674 0.73888 0.0
C673 C 0.55411 0.29652 0.69357 0.0
C674 C 0.57663 0.30641 0.72569 0.0
H675 H 0.54727 0.25056 0.65418 0.0
H676 H 0.52501 0.31799 0.6804 0.0
C677 C 0.61486 0.27755 0.74148 0.0
C678 C 0.91014 0.27958 0.22464 0.0
C679 C 0.9066 0.27681 0.18958 0.0
H680 H 0.93081 0.24757 0.27061 0.0
C681 C 0.91697 0.23782 0.1739 0.0
H682 H 0.90327 0.30963 0.23711 0.0
C683 C 0.9321 0.20226 0.1929 0.0
C684 C 0.93814 0.20517 0.22797 0.0
H685 H 0.91511 0.23525 0.1468 0.0
H686 H 0.94092 0.17283 0.17994 0.0
C687 C 0.92597 0.24407 0.24371 0.0
C688 C 0.79198 0.81126 0.70431 0.0
C689 C 0.81106 0.77536 0.68677 0.0
H690 H 0.81512 0.8639 0.73512 0.0
C691 C 0.87007 0.76235 0.69117 0.0
H692 H 0.7467 0.82193 0.70192 0.0
C693 C 0.90963 0.78614 0.71147 0.0
C694 C 0.89093 0.82347 0.72744 0.0
H695 H 0.88625 0.73494 0.67785 0.0
H696 H 0.9551 0.77596 0.71391 0.0
C697 C 0.83134 0.83517 0.72386 0.0
C698 C 0.72929 0.70565 0.20933 0.0
C699 C 0.70873 0.7402 0.19049 0.0
H700 H 0.70797 0.65243 0.23982 0.0
C701 C 0.64819 0.75021 0.19225 0.0
H702 H 0.77565 0.69715 0.20881 0.0
C703 C 0.60883 0.72475 0.21125 0.0
C704 C 0.6294 0.68888 0.22873 0.0
H705 H 0.63088 0.77642 0.17779 0.0
H706 H 0.56223 0.73253 0.21154 0.0
C707 C 0.69027 0.68014 0.22763 0.0
C708 C 0.34703 0.69054 0.36527 0.0
C709 C 0.32348 0.7271 0.35054 0.0
H710 H 0.41239 0.64249 0.36301 0.0
C711 C 0.35379 0.74657 0.3238 0.0
H712 H 0.32469 0.6752 0.38612 0.0
C713 C 0.40411 0.72748 0.31018 0.0
C714 C 0.42449 0.68874 0.32316 0.0
H715 H 0.33633 0.77481 0.31205 0.0
H716 H 0.42476 0.74153 0.28827 0.0
C717 C 0.39733 0.67183 0.35198 0.0
C718 C 0.17478 0.81987 0.86612 0.0
C719 C 0.19735 0.78205 0.85314 0.0
H720 H 0.11101 0.86871 0.86142 0.0
C721 C 0.16662 0.76146 0.82686 0.0
H722 H 0.19699 0.83603 0.88674 0.0
C723 C 0.11672 0.78031 0.81216 0.0
C724 C 0.09702 0.81983 0.82369 0.0
H725 H 0.1831 0.73219 0.81646 0.0
H726 H 0.09536 0.76512 0.79083 0.0
C727 C 0.12514 0.83842 0.8517 0.0
loop_
_geom_bond_atom_site_label_1
_geom_bond_atom_site_label_2
_geom_bond_distance
_geom_bond_site_symmetry_2
_ccdc_geom_bond_type
H0 C1 0.949 . S
C1 H0 0.949 . S
C1 C2 1.395 . S
C1 C3 1.391 . S
C2 C1 1.395 . S
C2 C5 1.390 . S
C3 C1 1.391 . S
C3 C7 1.387 . S
C3 C8 1.491 . S
H4 C5 0.950 . S
C5 C2 1.390 . S
C5 H4 0.950 . S
C5 C6 1.378 . S
C6 C5 1.378 . S
C6 C7 1.409 . S
C7 C3 1.387 . S
C7 C6 1.409 . S
C7 H9 0.951 . S
C8 C3 1.491 . S
C8 C10 1.382 . S
C8 C12 1.404 . S
H9 C7 0.951 . S
C10 C8 1.382 . S
C10 C11 1.390 . S
C10 H15 0.949 . S
C11 C10 1.390 . S
C11 C16 1.399 . S
C12 C8 1.404 . S
C12 H13 0.950 . S
C12 C14 1.375 . S
H13 C12 0.950 . S
C14 C12 1.375 . S
C14 C16 1.382 . S
C14 H18 0.950 . S
H15 C10 0.949 . S
C16 C11 1.399 . S
C16 C14 1.382 . S
C16 H17 0.952 . S
H17 C16 0.952 . S
H18 C14 0.950 . S
H19 C20 0.949 . S
C20 H19 0.949 . S
C20 C21 1.395 . S
C20 C22 1.391 . S
C21 C20 1.395 . S
C21 C24 1.390 . S
C22 C20 1.391 . S
C22 C26 1.387 . S
C22 C27 1.491 . S
H23 C24 0.950 . S
C24 C21 1.390 . S
C24 H23 0.950 . S
C24 C25 1.378 . S
C25 C24 1.378 . S
C25 C26 1.409 . S
C26 C22 1.387 . S
C26 C25 1.409 . S
C26 H28 0.951 . S
C27 C22 1.491 . S
C27 C29 1.382 . S
C27 C31 1.404 . S
H28 C26 0.951 . S
C29 C27 1.382 . S
C29 C30 1.390 . S
C29 H34 0.949 . S
C30 C29 1.390 . S
C30 C35 1.399 . S
C31 C27 1.404 . S
C31 H32 0.950 . S
C31 C33 1.375 . S
H32 C31 0.950 . S
C33 C31 1.375 . S
C33 C35 1.382 . S
C33 H37 0.950 . S
H34 C29 0.949 . S
C35 C30 1.399 . S
C35 C33 1.382 . S
C35 H36 0.952 . S
H36 C35 0.952 . S
H37 C33 0.950 . S
H38 C39 0.949 . S
C39 H38 0.949 . S
C39 C40 1.395 . S
C39 C41 1.391 . S
C40 C39 1.395 . S
C40 C43 1.390 . S
C41 C39 1.391 . S
C41 C45 1.387 . S
C41 C46 1.491 . S
H42 C43 0.950 . S
C43 C40 1.390 . S
C43 H42 0.950 . S
C43 C44 1.378 . S
C44 C43 1.378 . S
C44 C45 1.409 . S
C45 C41 1.387 . S
C45 C44 1.409 . S
C45 H47 0.951 . S
C46 C41 1.491 . S
C46 C48 1.382 . S
C46 C50 1.404 . S
H47 C45 0.951 . S
C48 C46 1.382 . S
C48 C49 1.390 . S
C48 H53 0.949 . S
C49 C48 1.390 . S
C49 C54 1.399 . S
C50 C46 1.404 . S
C50 H51 0.950 . S
C50 C52 1.375 . S
H51 C50 0.950 . S
C52 C50 1.375 . S
C52 C54 1.382 . S
C52 H56 0.950 . S
H53 C48 0.949 . S
C54 C49 1.399 . S
C54 C52 1.382 . S
C54 H55 0.952 . S
H55 C54 0.952 . S
H56 C52 0.950 . S
H57 C58 0.949 . S
C58 H57 0.949 . S
C58 C59 1.395 . S
C58 C60 1.391 . S
C59 C58 1.395 . S
C59 C62 1.390 . S
C60 C58 1.391 . S
C60 C64 1.387 . S
C60 C65 1.491 . S
H61 C62 0.950 . S
C62 C59 1.390 . S
C62 H61 0.950 . S
C62 C63 1.378 . S
C63 C62 1.378 . S
C63 C64 1.409 . S
C64 C60 1.387 . S
C64 C63 1.409 . S
C64 H66 0.951 . S
C65 C60 1.491 . S
C65 C67 1.382 . S
C65 C69 1.404 . S
H66 C64 0.951 . S
C67 C65 1.382 . S
C67 C68 1.390 . S
C67 H72 0.949 . S
C68 C67 1.390 . S
C68 C73 1.399 . S
C69 C65 1.404 . S
C69 H70 0.950 . S
C69 C71 1.375 . S
H70 C69 0.950 . S
C71 C69 1.375 . S
C71 C73 1.382 . S
C71 H75 0.950 . S
H72 C67 0.949 . S
C73 C68 1.399 . S
C73 C71 1.382 . S
C73 H74 0.952 . S
H74 C73 0.952 . S
H75 C71 0.950 . S
H76 C77 0.949 . S
C77 H76 0.949 . S
C77 C78 1.395 . S
C77 C79 1.391 . S
C78 C77 1.395 . S
C78 C81 1.390 . S
C79 C77 1.391 . S
C79 C83 1.387 . S
C79 C84 1.491 . S
H80 C81 0.950 . S
C81 C78 1.390 . S
C81 H80 0.950 . S
C81 C82 1.378 . S
C82 C81 1.378 . S
C82 C83 1.409 . S
C83 C79 1.387 . S
C83 C82 1.409 . S
C83 H85 0.951 . S
C84 C79 1.491 . S
C84 C86 1.382 . S
C84 C88 1.404 . S
H85 C83 0.951 . S
C86 C84 1.382 . S
C86 C87 1.390 . S
C86 H91 0.949 . S
C87 C86 1.390 . S
C87 C92 1.399 . S
C88 C84 1.404 . S
C88 H89 0.950 . S
C88 C90 1.375 . S
H89 C88 0.950 . S
C90 C88 1.375 . S
C90 C92 1.382 . S
C90 H94 0.950 . S
H91 C86 0.949 . S
C92 C87 1.399 . S
C92 C90 1.382 . S
C92 H93 0.952 . S
H93 C92 0.952 . S
H94 C90 0.950 . S
H95 C96 0.949 . S
C96 H95 0.949 . S
C96 C97 1.395 . S
C96 C98 1.391 . S
C97 C96 1.395 . S
C97 C100 1.390 . S
C98 C96 1.391 . S
C98 C102 1.387 . S
C98 C103 1.491 . S
H99 C100 0.950 . S
C100 C97 1.390 . S
C100 H99 0.950 . S
C100 C101 1.378 . S
C101 C100 1.378 . S
C101 C102 1.409 . S
C102 C98 1.387 . S
C102 C101 1.409 . S
C102 H104 0.951 . S
C103 C98 1.491 . S
C103 C105 1.382 . S
C103 C107 1.404 . S
H104 C102 0.951 . S
C105 C103 1.382 . S
C105 C106 1.390 . S
C105 H110 0.949 . S
C106 C105 1.390 . S
C106 C111 1.399 . S
C107 C103 1.404 . S
C107 H108 0.950 . S
C107 C109 1.375 . S
H108 C107 0.950 . S
C109 C107 1.375 . S
C109 C111 1.382 . S
C109 H113 0.950 . S
H110 C105 0.949 . S
C111 C106 1.399 . S
C111 C109 1.382 . S
C111 H112 0.952 . S
H112 C111 0.952 . S
H113 C109 0.950 . S
H114 C115 0.949 . S
C115 H114 0.949 . S
C115 C116 1.395 . S
C115 C117 1.391 . S
C116 C115 1.395 . S
C116 C119 1.390 . S
C117 C115 1.391 . S
C117 C121 1.387 . S
C117 C122 1.491 . S
H118 C119 0.950 . S
C119 C116 1.390 . S
C119 H118 0.950 . S
C119 C120 1.378 . S
C120 C119 1.378 . S
C120 C121 1.409 . S
C121 C117 1.387 . S
C121 C120 1.409 . S
C121 H123 0.951 . S
C122 C117 1.491 . S
C122 C124 1.382 . S
C122 C126 1.404 . S
H123 C121 0.951 . S
C124 C122 1.382 . S
C124 C125 1.390 . S
C124 H129 0.949 . S
C125 C124 1.390 . S
C125 C130 1.399 . S
C126 C122 1.404 . S
C126 H127 0.950 . S
C126 C128 1.375 . S
H127 C126 0.950 . S
C128 C126 1.375 . S
C128 C130 1.382 . S
C128 H132 0.950 . S
H129 C124 0.949 . S
C130 C125 1.399 . S
C130 C128 1.382 . S
C130 H131 0.952 . S
H131 C130 0.952 . S
H132 C128 0.950 . S
H133 C134 0.949 . S
C134 H133 0.949 . S
C134 C135 1.395 . S
C134 C136 1.391 . S
C135 C134 1.395 . S
C135 C138 1.390 . S
C136 C134 1.391 . S
C136 C140 1.387 . S
C136 C141 1.491 . S
H137 C138 0.950 . S
C138 C135 1.390 . S
C138 H137 0.950 . S
C138 C139 1.378 . S
C139 C138 1.378 . S
C139 C140 1.409 . S
C140 C136 1.387 . S
C140 C139 1.409 . S
C140 H142 0.951 . S
C141 C136 1.491 . S
C141 C143 1.382 . S
C141 C145 1.404 . S
H142 C140 0.951 . S
C143 C141 1.382 . S
C143 C144 1.390 . S
C143 H148 0.949 . S
C144 C143 1.390 . S
C144 C149 1.399 . S
C145 C141 1.404 . S
C145 H146 0.950 . S
C145 C147 1.375 . S
H146 C145 0.950 . S
C147 C145 1.375 . S
C147 C149 1.382 . S
C147 H151 0.950 . S
H148 C143 0.949 . S
C149 C144 1.399 . S
C149 C147 1.382 . S
C149 H150 0.952 . S
H150 C149 0.952 . S
H151 C147 0.950 . S
Eu152 N181 2.600 . S
Eu152 N187 2.562 . S
Eu152 O196 2.462 . S
Eu152 O197 2.373 . S
Eu152 O199 2.432 . S
Eu152 O200 2.291 1_455 S
Eu152 O204 2.335 1_455 S
Eu152 O207 2.372 . S
Eu152 C216 2.787 . S
C153 N154 1.365 . S
C153 C156 1.405 . S
C153 C160 1.448 . S
N154 C153 1.365 . S
N154 C157 1.319 . S
N154 Eu163 2.600 . S
C155 C157 1.397 . S
C155 C158 1.367 . S
C155 H175 0.931 . S
C156 C153 1.405 . S
C156 C158 1.403 . S
C156 C162 1.439 . S
C157 N154 1.319 . S
C157 C155 1.397 . S
C157 H168 0.930 . S
C158 C155 1.367 . S
C158 C156 1.403 . S
C158 H179 0.929 . S
C159 C160 1.430 1_565 S
C159 C161 1.387 . S
C159 C165 1.404 . S
C160 C153 1.448 . S
C160 C159 1.430 1_545 S
C160 N164 1.351 . S
C161 C159 1.387 . S
C161 C162 1.374 1_565 S
C161 H176 0.931 . S
C162 C156 1.439 . S
C162 C161 1.374 1_545 S
C162 H177 0.931 . S
Eu163 N154 2.600 . S
Eu163 N164 2.562 . S
Eu163 O198 2.335 1_655 S
Eu163 O201 2.372 . S
Eu163 O202 2.462 . S
Eu163 O203 2.373 . S
Eu163 O205 2.432 . S
Eu163 O206 2.291 1_655 S
Eu163 C227 2.787 . S
N164 C160 1.351 . S
N164 Eu163 2.562 . S
N164 C166 1.325 1_545 S
C165 C159 1.404 . S
C165 C167 1.366 . S
C165 H173 0.930 . S
C166 N164 1.325 1_565 S
C166 C167 1.416 . S
C166 H172 0.929 . S
C167 C165 1.366 . S
C167 C166 1.416 . S
C167 H169 0.930 . S
H168 C157 0.930 . S
H169 C167 0.930 . S
H170 C185 0.930 . S
H171 C192 0.930 . S
H172 C166 0.929 . S
H173 C165 0.930 . S
H174 C188 0.929 . S
H175 C155 0.931 . S
H176 C161 0.931 . S
H177 C162 0.931 . S
H178 C183 0.931 . S
H179 C158 0.929 . S
H180 C191 0.930 . S
N181 Eu152 2.600 . S
N181 C182 1.365 . S
N181 C185 1.319 . S
C182 N181 1.365 . S
C182 C184 1.405 . S
C182 C190 1.448 . S
C183 H178 0.931 . S
C183 C185 1.397 . S
C183 C186 1.367 . S
C184 C182 1.405 . S
C184 C186 1.403 . S
C184 C217 1.439 . S
C185 H170 0.930 . S
C185 N181 1.319 . S
C185 C183 1.397 . S
C186 C183 1.367 . S
C186 C184 1.403 . S
C186 H193 0.929 . S
N187 Eu152 2.562 . S
N187 C188 1.325 . S
N187 C190 1.351 . S
C188 H174 0.929 . S
C188 N187 1.325 . S
C188 C192 1.416 . S
C189 C190 1.430 . S
C189 C191 1.404 . S
C189 C218 1.387 . S
C190 C182 1.448 . S
C190 N187 1.351 . S
C190 C189 1.430 . S
C191 H180 0.930 . S
C191 C189 1.404 . S
C191 C192 1.366 . S
C192 H171 0.930 . S
C192 C188 1.416 . S
C192 C191 1.366 . S
H193 C186 0.929 . S
H194 C217 0.931 . S
H195 C218 0.931 . S
O196 Eu152 2.462 . S
O196 C216 1.252 . S
O197 Eu152 2.373 . S
O197 C208 1.249 . S
O198 Eu163 2.335 1_455 S
O198 C208 1.264 . S
O199 Eu152 2.432 . S
O199 C216 1.268 . S
O200 Eu152 2.291 1_655 S
O200 C215 1.255 . S
O201 Eu163 2.372 . S
O201 C215 1.257 . S
O202 Eu163 2.462 . S
O202 C227 1.252 . S
O203 Eu163 2.373 . S
O203 C219 1.249 . S
O204 Eu152 2.335 1_655 S
O204 C219 1.264 . S
O205 Eu163 2.432 . S
O205 C227 1.268 . S
O206 Eu163 2.291 1_455 S
O206 C226 1.255 . S
O207 Eu152 2.372 . S
O207 C226 1.257 . S
C208 O197 1.249 . S
C208 O198 1.264 . S
C209 C212 1.382 . S
C209 C214 1.390 . S
C209 C216 1.506 . S
C210 C211 1.398 . S
C210 C214 1.392 . S
C211 C210 1.398 . S
C211 C213 1.372 . S
C211 H228 0.931 . S
C212 C209 1.382 . S
C212 C213 1.390 . S
C212 H229 0.931 . S
C213 C211 1.372 . S
C213 C212 1.390 . S
C213 H230 0.929 1_545 S
C214 C209 1.390 . S
C214 C210 1.392 . S
C214 H231 0.930 . S
C215 O200 1.255 . S
C215 O201 1.257 . S
C216 Eu152 2.787 . S
C216 O196 1.252 . S
C216 O199 1.268 . S
C216 C209 1.506 . S
C217 C184 1.439 . S
C217 H194 0.931 . S
C217 C218 1.374 . S
C218 C189 1.387 . S
C218 H195 0.931 . S
C218 C217 1.374 . S
C219 O203 1.249 . S
C219 O204 1.264 . S
C220 C223 1.382 . S
C220 C224 1.390 . S
C220 C227 1.506 . S
C221 C222 1.398 . S
C221 C224 1.392 . S
C222 C221 1.398 . S
C222 C225 1.372 . S
C222 H232 0.931 . S
C223 C220 1.382 . S
C223 C225 1.390 . S
C223 H233 0.931 . S
C224 C220 1.390 . S
C224 C221 1.392 . S
C224 H234 0.930 . S
C225 C222 1.372 . S
C225 C223 1.390 . S
C225 H235 0.929 . S
C226 O206 1.255 . S
C226 O207 1.257 . S
C227 Eu163 2.787 . S
C227 O202 1.252 . S
C227 O205 1.268 . S
C227 C220 1.506 . S
H228 C211 0.931 . S
H229 C212 0.931 . S
H230 C213 0.929 1_565 S
H231 C214 0.930 . S
H232 C222 0.931 . S
H233 C223 0.931 . S
H234 C224 0.930 . S
H235 C225 0.929 . S
Eu236 N265 2.600 . S
Eu236 N271 2.562 . S
Eu236 O280 2.462 . S
Eu236 O281 2.373 . S
Eu236 O283 2.432 . S
Eu236 O284 2.291 . S
Eu236 O288 2.335 . S
Eu236 O291 2.372 . S
Eu236 C300 2.787 . S
C237 N238 1.365 . S
C237 C240 1.405 . S
C237 C244 1.448 . S
N238 C237 1.365 . S
N238 C241 1.319 . S
N238 Eu247 2.600 . S
C239 C241 1.397 . S
C239 C242 1.367 . S
C239 H259 0.931 . S
C240 C237 1.405 . S
C240 C242 1.403 . S
C240 C246 1.439 . S
C241 N238 1.319 . S
C241 C239 1.397 . S
C241 H252 0.930 . S
C242 C239 1.367 . S
C242 C240 1.403 . S
C242 H263 0.929 . S
C243 C244 1.430 . S
C243 C245 1.387 . S
C243 C249 1.404 . S
C244 C237 1.448 . S
C244 C243 1.430 . S
C244 N248 1.351 . S
C245 C243 1.387 . S
C245 C246 1.374 . S
C245 H260 0.931 . S
C246 C240 1.439 . S
C246 C245 1.374 . S
C246 H261 0.931 . S
Eu247 N238 2.600 . S
Eu247 N248 2.562 . S
Eu247 O282 2.335 . S
Eu247 O285 2.372 . S
Eu247 O286 2.462 . S
Eu247 O287 2.373 . S
Eu247 O289 2.432 . S
Eu247 O290 2.291 . S
Eu247 C311 2.787 . S
N248 C244 1.351 . S
N248 Eu247 2.562 . S
N248 C250 1.325 . S
C249 C243 1.404 . S
C249 C251 1.366 . S
C249 H257 0.930 . S
C250 N248 1.325 . S
C250 C251 1.416 . S
C250 H256 0.929 . S
C251 C249 1.366 . S
C251 C250 1.416 . S
C251 H253 0.930 . S
H252 C241 0.930 . S
H253 C251 0.930 . S
H254 C269 0.930 . S
H255 C276 0.930 . S
H256 C250 0.929 . S
H257 C249 0.930 . S
H258 C272 0.929 . S
H259 C239 0.931 . S
H260 C245 0.931 . S
H261 C246 0.931 . S
H262 C267 0.931 . S
H263 C242 0.929 . S
H264 C275 0.930 . S
N265 Eu236 2.600 . S
N265 C266 1.365 . S
N265 C269 1.319 . S
C266 N265 1.365 . S
C266 C268 1.405 . S
C266 C274 1.448 . S
C267 H262 0.931 . S
C267 C269 1.397 . S
C267 C270 1.367 . S
C268 C266 1.405 . S
C268 C270 1.403 . S
C268 C301 1.439 . S
C269 H254 0.930 . S
C269 N265 1.319 . S
C269 C267 1.397 . S
C270 C267 1.367 . S
C270 C268 1.403 . S
C270 H277 0.929 . S
N271 Eu236 2.562 . S
N271 C272 1.325 . S
N271 C274 1.351 . S
C272 H258 0.929 . S
C272 N271 1.325 . S
C272 C276 1.416 . S
C273 C274 1.430 . S
C273 C275 1.404 . S
C273 C302 1.387 . S
C274 C266 1.448 . S
C274 N271 1.351 . S
C274 C273 1.430 . S
C275 H264 0.930 . S
C275 C273 1.404 . S
C275 C276 1.366 . S
C276 H255 0.930 . S
C276 C272 1.416 . S
C276 C275 1.366 . S
H277 C270 0.929 . S
H278 C301 0.931 . S
H279 C302 0.931 . S
O280 Eu236 2.462 . S
O280 C300 1.252 . S
O281 Eu236 2.373 . S
O281 C292 1.249 . S
O282 Eu247 2.335 . S
O282 C292 1.264 . S
O283 Eu236 2.432 . S
O283 C300 1.268 . S
O284 Eu236 2.291 . S
O284 C299 1.255 . S
O285 Eu247 2.372 . S
O285 C299 1.257 . S
O286 Eu247 2.462 . S
O286 C311 1.252 . S
O287 Eu247 2.373 . S
O287 C303 1.249 . S
O288 Eu236 2.335 . S
O288 C303 1.264 . S
O289 Eu247 2.432 . S
O289 C311 1.268 . S
O290 Eu247 2.291 . S
O290 C310 1.255 . S
O291 Eu236 2.372 . S
O291 C310 1.257 . S
C292 O281 1.249 . S
C292 O282 1.264 . S
C293 C296 1.382 . S
C293 C298 1.390 . S
C293 C300 1.506 . S
C294 C295 1.398 . S
C294 C298 1.392 . S
C295 C294 1.398 . S
C295 C297 1.372 . S
C295 H312 0.931 . S
C296 C293 1.382 . S
C296 C297 1.390 . S
C296 H313 0.931 . S
C297 C295 1.372 . S
C297 C296 1.390 . S
C297 H314 0.929 . S
C298 C293 1.390 . S
C298 C294 1.392 . S
C298 H315 0.930 . S
C299 O284 1.255 . S
C299 O285 1.257 . S
C300 Eu236 2.787 . S
C300 O280 1.252 . S
C300 O283 1.268 . S
C300 C293 1.506 . S
C301 C268 1.439 . S
C301 H278 0.931 . S
C301 C302 1.374 . S
C302 C273 1.387 . S
C302 H279 0.931 . S
C302 C301 1.374 . S
C303 O287 1.249 . S
C303 O288 1.264 . S
C304 C307 1.382 . S
C304 C308 1.390 . S
C304 C311 1.506 . S
C305 C306 1.398 . S
C305 C308 1.392 . S
C306 C305 1.398 . S
C306 C309 1.372 . S
C306 H316 0.931 . S
C307 C304 1.382 . S
C307 C309 1.390 . S
C307 H317 0.931 . S
C308 C304 1.390 . S
C308 C305 1.392 . S
C308 H318 0.930 . S
C309 C306 1.372 . S
C309 C307 1.390 . S
C309 H319 0.929 . S
C310 O290 1.255 . S
C310 O291 1.257 . S
C311 Eu247 2.787 . S
C311 O286 1.252 . S
C311 O289 1.268 . S
C311 C304 1.506 . S
H312 C295 0.931 . S
H313 C296 0.931 . S
H314 C297 0.929 . S
H315 C298 0.930 . S
H316 C306 0.931 . S
H317 C307 0.931 . S
H318 C308 0.930 . S
H319 C309 0.929 . S
Eu320 N349 2.600 . S
Eu320 N355 2.562 . S
Eu320 O364 2.462 . S
Eu320 O365 2.373 . S
Eu320 O367 2.432 . S
Eu320 O368 2.289 1_455 S
Eu320 O372 2.334 . S
Eu320 O375 2.372 . S
Eu320 C384 2.787 . S
C321 N322 1.365 . S
C321 C324 1.405 . S
C321 C328 1.448 . S
N322 C321 1.365 . S
N322 C325 1.319 . S
N322 Eu331 2.600 . S
C323 C325 1.397 . S
C323 C326 1.367 . S
C323 H343 0.931 . S
C324 C321 1.405 . S
C324 C326 1.403 . S
C324 C330 1.439 . S
C325 N322 1.319 . S
C325 C323 1.397 . S
C325 H336 0.930 . S
C326 C323 1.367 . S
C326 C324 1.403 . S
C326 H347 0.929 . S
C327 C328 1.430 . S
C327 C329 1.387 . S
C327 C333 1.404 . S
C328 C321 1.448 . S
C328 C327 1.430 . S
C328 N332 1.351 . S
C329 C327 1.387 . S
C329 C330 1.374 . S
C329 H344 0.931 . S
C330 C324 1.439 . S
C330 C329 1.374 . S
C330 H345 0.931 . S
Eu331 N322 2.600 . S
Eu331 N332 2.562 . S
Eu331 O366 2.335 1_655 S
Eu331 O369 2.372 . S
Eu331 O370 2.462 . S
Eu331 O371 2.373 . S
Eu331 O373 2.432 . S
Eu331 O374 2.291 1_655 S
Eu331 C395 2.787 . S
N332 C328 1.351 . S
N332 Eu331 2.562 . S
N332 C334 1.325 . S
C333 C327 1.404 . S
C333 C335 1.366 . S
C333 H341 0.930 . S
C334 N332 1.325 . S
C334 C335 1.416 . S
C334 H340 0.929 . S
C335 C333 1.366 . S
C335 C334 1.416 . S
C335 H337 0.930 . S
H336 C325 0.930 . S
H337 C335 0.930 . S
H338 C353 0.930 . S
H339 C360 0.930 . S
H340 C334 0.929 . S
H341 C333 0.930 . S
H342 C356 0.929 . S
H343 C323 0.931 . S
H344 C329 0.931 . S
H345 C330 0.931 . S
H346 C351 0.931 . S
H347 C326 0.929 . S
H348 C359 0.930 . S
N349 Eu320 2.600 . S
N349 C350 1.365 . S
N349 C353 1.319 . S
C350 N349 1.365 . S
C350 C352 1.405 . S
C350 C358 1.448 . S
C351 H346 0.931 . S
C351 C353 1.397 . S
C351 C354 1.367 . S
C352 C350 1.405 . S
C352 C354 1.403 . S
C352 C385 1.439 . S
C353 H338 0.930 . S
C353 N349 1.319 . S
C353 C351 1.397 . S
C354 C351 1.367 . S
C354 C352 1.403 . S
C354 H361 0.929 . S
N355 Eu320 2.562 . S
N355 C356 1.325 1_565 S
N355 C358 1.351 . S
C356 H342 0.929 . S
C356 N355 1.325 1_545 S
C356 C360 1.416 . S
C357 C358 1.430 1_545 S
C357 C359 1.404 . S
C357 C386 1.387 . S
C358 C350 1.448 . S
C358 N355 1.351 . S
C358 C357 1.430 1_565 S
C359 H348 0.930 . S
C359 C357 1.404 . S
C359 C360 1.366 . S
C360 H339 0.930 . S
C360 C356 1.416 . S
C360 C359 1.366 . S
H361 C354 0.929 . S
H362 C385 0.931 . S
H363 C386 0.931 . S
O364 Eu320 2.462 . S
O364 C384 1.252 . S
O365 Eu320 2.373 . S
O365 C376 1.249 . S
O366 Eu331 2.335 1_455 S
O366 C376 1.264 . S
O367 Eu320 2.432 . S
O367 C384 1.268 . S
O368 Eu320 2.289 1_655 S
O368 C383 1.258 . S
O369 Eu331 2.372 . S
O369 C383 1.257 . S
O370 Eu331 2.462 . S
O370 C395 1.252 . S
O371 Eu331 2.373 . S
O371 C387 1.249 . S
O372 Eu320 2.334 . S
O372 C387 1.265 1_455 S
O373 Eu331 2.432 . S
O373 C395 1.268 . S
O374 Eu331 2.291 1_455 S
O374 C394 1.255 . S
O375 Eu320 2.372 . S
O375 C394 1.257 . S
C376 O365 1.249 . S
C376 O366 1.264 . S
C377 C380 1.382 . S
C377 C382 1.390 . S
C377 C384 1.506 . S
C378 C379 1.398 . S
C378 C382 1.392 . S
C379 C378 1.398 . S
C379 C381 1.372 . S
C379 H396 0.931 . S
C380 C377 1.382 . S
C380 C381 1.390 . S
C380 H397 0.931 . S
C381 C379 1.372 . S
C381 C380 1.390 . S
C381 H398 0.929 . S
C382 C377 1.390 . S
C382 C378 1.392 . S
C382 H399 0.930 . S
C383 O368 1.258 . S
C383 O369 1.257 . S
C384 Eu320 2.787 . S
C384 O364 1.252 . S
C384 O367 1.268 . S
C384 C377 1.506 . S
C385 C352 1.439 . S
C385 H362 0.931 . S
C385 C386 1.374 1_565 S
C386 C357 1.387 . S
C386 H363 0.931 . S
C386 C385 1.374 1_545 S
C387 O371 1.249 . S
C387 O372 1.265 1_655 S
C388 C391 1.382 . S
C388 C392 1.390 . S
C388 C395 1.506 . S
C389 C390 1.398 . S
C389 C392 1.392 . S
C390 C389 1.398 . S
C390 C393 1.372 . S
C390 H400 0.931 . S
C391 C388 1.382 . S
C391 C393 1.390 . S
C391 H401 0.931 . S
C392 C388 1.390 . S
C392 C389 1.392 . S
C392 H402 0.930 . S
C393 C390 1.372 . S
C393 C391 1.390 . S
C393 H403 0.929 1_565 S
C394 O374 1.255 . S
C394 O375 1.257 . S
C395 Eu331 2.787 . S
C395 O370 1.252 . S
C395 O373 1.268 . S
C395 C388 1.506 . S
H396 C379 0.931 . S
H397 C380 0.931 . S
H398 C381 0.929 . S
H399 C382 0.930 . S
H400 C390 0.931 . S
H401 C391 0.931 . S
H402 C392 0.930 . S
H403 C393 0.929 1_545 S
Eu404 N433 2.600 . S
Eu404 N439 2.562 . S
Eu404 O448 2.462 . S
Eu404 O449 2.373 . S
Eu404 O451 2.432 . S
Eu404 O452 2.291 . S
Eu404 O456 2.335 . S
Eu404 O459 2.372 . S
Eu404 C468 2.787 . S
C405 N406 1.365 . S
C405 C408 1.405 . S
C405 C412 1.448 . S
N406 C405 1.365 . S
N406 C409 1.319 . S
N406 Eu415 2.600 . S
C407 C409 1.397 . S
C407 C410 1.367 . S
C407 H427 0.931 . S
C408 C405 1.405 . S
C408 C410 1.403 . S
C408 C414 1.439 . S
C409 N406 1.319 . S
C409 C407 1.397 . S
C409 H420 0.930 . S
C410 C407 1.367 . S
C410 C408 1.403 . S
C410 H431 0.929 . S
C411 C412 1.430 . S
C411 C413 1.387 . S
C411 C417 1.404 . S
C412 C405 1.448 . S
C412 C411 1.430 . S
C412 N416 1.351 . S
C413 C411 1.387 . S
C413 C414 1.374 . S
C413 H428 0.931 . S
C414 C408 1.439 . S
C414 C413 1.374 . S
C414 H429 0.931 . S
Eu415 N406 2.600 . S
Eu415 N416 2.562 . S
Eu415 O450 2.335 . S
Eu415 O453 2.372 . S
Eu415 O454 2.462 . S
Eu415 O455 2.373 . S
Eu415 O457 2.432 . S
Eu415 O458 2.291 . S
Eu415 C479 2.787 . S
N416 C412 1.351 . S
N416 Eu415 2.562 . S
N416 C418 1.325 . S
C417 C411 1.404 . S
C417 C419 1.366 . S
C417 H425 0.930 . S
C418 N416 1.325 . S
C418 C419 1.416 . S
C418 H424 0.929 . S
C419 C417 1.366 . S
C419 C418 1.416 . S
C419 H421 0.930 . S
H420 C409 0.930 . S
H421 C419 0.930 . S
H422 C437 0.930 . S
H423 C444 0.930 . S
H424 C418 0.929 . S
H425 C417 0.930 . S
H426 C440 0.929 . S
H427 C407 0.931 . S
H428 C413 0.931 . S
H429 C414 0.931 . S
H430 C435 0.931 . S
H431 C410 0.929 . S
H432 C443 0.930 . S
N433 Eu404 2.600 . S
N433 C434 1.365 . S
N433 C437 1.319 . S
C434 N433 1.365 . S
C434 C436 1.405 . S
C434 C442 1.448 . S
C435 H430 0.931 . S
C435 C437 1.397 . S
C435 C438 1.367 . S
C436 C434 1.405 . S
C436 C438 1.403 . S
C436 C469 1.439 . S
C437 H422 0.930 . S
C437 N433 1.319 . S
C437 C435 1.397 . S
C438 C435 1.367 . S
C438 C436 1.403 . S
C438 H445 0.929 . S
N439 Eu404 2.562 . S
N439 C440 1.325 . S
N439 C442 1.351 . S
C440 H426 0.929 . S
C440 N439 1.325 . S
C440 C444 1.416 . S
C441 C442 1.430 . S
C441 C443 1.404 . S
C441 C470 1.387 . S
C442 C434 1.448 . S
C442 N439 1.351 . S
C442 C441 1.430 . S
C443 H432 0.930 . S
C443 C441 1.404 . S
C443 C444 1.366 . S
C444 H423 0.930 . S
C444 C440 1.416 . S
C444 C443 1.366 . S
H445 C438 0.929 . S
H446 C469 0.931 . S
H447 C470 0.931 . S
O448 Eu404 2.462 . S
O448 C468 1.252 . S
O449 Eu404 2.373 . S
O449 C460 1.249 . S
O450 Eu415 2.335 . S
O450 C460 1.264 . S
O451 Eu404 2.432 . S
O451 C468 1.268 . S
O452 Eu404 2.291 . S
O452 C467 1.255 . S
O453 Eu415 2.372 . S
O453 C467 1.257 . S
O454 Eu415 2.462 . S
O454 C479 1.252 . S
O455 Eu415 2.373 . S
O455 C471 1.249 . S
O456 Eu404 2.335 . S
O456 C471 1.264 . S
O457 Eu415 2.432 . S
O457 C479 1.268 . S
O458 Eu415 2.291 . S
O458 C478 1.255 . S
O459 Eu404 2.372 . S
O459 C478 1.257 . S
C460 O449 1.249 . S
C460 O450 1.264 . S
C461 C464 1.382 . S
C461 C466 1.390 . S
C461 C468 1.506 . S
C462 C463 1.398 . S
C462 C466 1.392 . S
C463 C462 1.398 . S
C463 C465 1.372 . S
C463 H480 0.931 . S
C464 C461 1.382 . S
C464 C465 1.390 . S
C464 H481 0.931 . S
C465 C463 1.372 . S
C465 C464 1.390 . S
C465 H482 0.929 . S
C466 C461 1.390 . S
C466 C462 1.392 . S
C466 H483 0.930 . S
C467 O452 1.255 . S
C467 O453 1.257 . S
C468 Eu404 2.787 . S
C468 O448 1.252 . S
C468 O451 1.268 . S
C468 C461 1.506 . S
C469 C436 1.439 . S
C469 H446 0.931 . S
C469 C470 1.374 . S
C470 C441 1.387 . S
C470 H447 0.931 . S
C470 C469 1.374 . S
C471 O455 1.249 . S
C471 O456 1.264 . S
C472 C475 1.382 . S
C472 C476 1.390 . S
C472 C479 1.506 . S
C473 C474 1.398 . S
C473 C476 1.392 . S
C474 C473 1.398 . S
C474 C477 1.372 . S
C474 H484 0.931 . S
C475 C472 1.382 . S
C475 C477 1.390 . S
C475 H485 0.931 . S
C476 C472 1.390 . S
C476 C473 1.392 . S
C476 H486 0.930 . S
C477 C474 1.372 . S
C477 C475 1.390 . S
C477 H487 0.929 . S
C478 O458 1.255 . S
C478 O459 1.257 . S
C479 Eu415 2.787 . S
C479 O454 1.252 . S
C479 O457 1.268 . S
C479 C472 1.506 . S
H480 C463 0.931 . S
H481 C464 0.931 . S
H482 C465 0.929 . S
H483 C466 0.930 . S
H484 C474 0.931 . S
H485 C475 0.931 . S
H486 C476 0.930 . S
H487 C477 0.929 . S
C488 C489 1.387 . S
C488 H492 0.950 . S
C488 C497 1.390 . S
C489 C488 1.387 . S
C489 C491 1.387 . S
H490 C497 0.950 . S
C491 C489 1.387 . S
C491 C493 1.390 . S
C491 H495 0.950 . S
H492 C488 0.950 . S
C493 C491 1.390 . S
C493 C494 1.387 . S
C493 H496 0.950 . S
C494 C493 1.387 . S
C494 C497 1.387 . S
H495 C491 0.950 . S
H496 C493 0.950 . S
C497 C488 1.390 . S
C497 H490 0.950 . S
C497 C494 1.387 . S
C498 C499 1.387 . S
C498 H502 0.950 . S
C498 C507 1.390 . S
C499 C498 1.387 . S
C499 C501 1.387 . S
H500 C507 0.950 . S
C501 C499 1.387 . S
C501 C503 1.390 . S
C501 H505 0.950 . S
H502 C498 0.950 . S
C503 C501 1.390 . S
C503 C504 1.387 . S
C503 H506 0.950 . S
C504 C503 1.387 . S
C504 C507 1.387 . S
H505 C501 0.950 . S
H506 C503 0.950 . S
C507 C498 1.390 . S
C507 H500 0.950 . S
C507 C504 1.387 . S
C508 C509 1.387 . S
C508 H512 0.950 . S
C508 C517 1.390 . S
C509 C508 1.387 . S
C509 C511 1.387 . S
H510 C517 0.950 . S
C511 C509 1.387 . S
C511 C513 1.390 . S
C511 H515 0.950 . S
H512 C508 0.950 . S
C513 C511 1.390 . S
C513 C514 1.387 . S
C513 H516 0.950 . S
C514 C513 1.387 . S
C514 C517 1.387 . S
H515 C511 0.950 . S
H516 C513 0.950 . S
C517 C508 1.390 . S
C517 H510 0.950 . S
C517 C514 1.387 . S
C518 C519 1.387 . S
C518 H522 0.950 . S
C518 C527 1.390 . S
C519 C518 1.387 . S
C519 C521 1.387 . S
H520 C527 0.950 1_545 S
C521 C519 1.387 . S
C521 C523 1.390 . S
C521 H525 0.950 . S
H522 C518 0.950 . S
C523 C521 1.390 . S
C523 C524 1.387 . S
C523 H526 0.950 . S
C524 C523 1.387 . S
C524 C527 1.387 . S
H525 C521 0.950 . S
H526 C523 0.950 . S
C527 C518 1.390 . S
C527 H520 0.950 1_565 S
C527 C524 1.387 . S
C528 C529 1.387 . S
C528 H532 0.950 . S
C528 C537 1.390 . S
C529 C528 1.387 . S
C529 C531 1.387 . S
H530 C537 0.950 . S
C531 C529 1.387 . S
C531 C533 1.396 . S
C531 H535 0.950 . S
H532 C528 0.950 . S
C533 C531 1.396 . S
C533 C534 1.392 . S
C533 H536 0.939 1_545 S
C534 C533 1.392 . S
C534 C537 1.387 . S
H535 C531 0.950 . S
H536 C533 0.939 1_565 S
C537 C528 1.390 . S
C537 H530 0.950 . S
C537 C534 1.387 . S
C538 C539 1.387 . S
C538 H542 0.950 . S
C538 C547 1.390 . S
C539 C538 1.387 . S
C539 C541 1.387 . S
H540 C547 0.950 . S
C541 C539 1.387 . S
C541 C543 1.390 . S
C541 H545 0.950 . S
H542 C538 0.950 . S
C543 C541 1.390 . S
C543 C544 1.387 . S
C543 H546 0.950 . S
C544 C543 1.387 . S
C544 C547 1.387 . S
H545 C541 0.950 . S
H546 C543 0.950 . S
C547 C538 1.390 . S
C547 H540 0.950 . S
C547 C544 1.387 . S
C548 C549 1.387 . S
C548 H552 0.950 . S
C548 C557 1.390 . S
C549 C548 1.387 . S
C549 C551 1.387 . S
H550 C557 0.950 . S
C551 C549 1.387 . S
C551 C553 1.390 . S
C551 H555 0.950 . S
H552 C548 0.950 . S
C553 C551 1.390 . S
C553 C554 1.387 . S
C553 H556 0.950 . S
C554 C553 1.387 . S
C554 C557 1.387 . S
H555 C551 0.950 . S
H556 C553 0.950 . S
C557 C548 1.390 . S
C557 H550 0.950 . S
C557 C554 1.387 . S
C558 C559 1.387 . S
C558 H562 0.950 . S
C558 C567 1.390 . S
C559 C558 1.387 . S
C559 C561 1.387 . S
H560 C567 0.950 1_565 S
C561 C559 1.387 . S
C561 C563 1.390 . S
C561 H565 0.950 . S
H562 C558 0.950 . S
C563 C561 1.390 . S
C563 C564 1.387 . S
C563 H566 0.950 . S
C564 C563 1.387 . S
C564 C567 1.387 . S
H565 C561 0.950 . S
H566 C563 0.950 . S
C567 C558 1.390 . S
C567 H560 0.950 1_545 S
C567 C564 1.387 . S
C568 C569 1.387 . S
C568 H572 0.950 . S
C568 C577 1.390 1_556 S
C569 C568 1.387 . S
C569 C571 1.387 . S
H570 C577 0.950 . S
C571 C569 1.387 . S
C571 C573 1.390 1_556 S
C571 H575 0.950 . S
H572 C568 0.950 . S
C573 C571 1.390 1_554 S
C573 C574 1.387 . S
C573 H576 0.950 . S
C574 C573 1.387 . S
C574 C577 1.387 . S
H575 C571 0.950 . S
H576 C573 0.950 . S
C577 C568 1.390 1_554 S
C577 H570 0.950 . S
C577 C574 1.387 . S
C578 C579 1.387 . S
C578 H582 0.950 . S
C578 C587 1.390 . S
C579 C578 1.387 . S
C579 C581 1.387 . S
H580 C587 0.950 . S
C581 C579 1.387 . S
C581 C583 1.390 . S
C581 H585 0.950 . S
H582 C578 0.950 . S
C583 C581 1.390 . S
C583 C584 1.387 . S
C583 H586 0.950 . S
C584 C583 1.387 . S
C584 C587 1.387 . S
H585 C581 0.950 . S
H586 C583 0.950 . S
C587 C578 1.390 . S
C587 H580 0.950 . S
C587 C584 1.387 . S
C588 C589 1.387 . S
C588 H592 0.950 . S
C588 C597 1.390 1_554 S
C589 C588 1.387 . S
C589 C591 1.387 . S
H590 C597 0.950 . S
C591 C589 1.387 . S
C591 C593 1.390 1_554 S
C591 H595 0.950 . S
H592 C588 0.950 . S
C593 C591 1.390 1_556 S
C593 C594 1.387 . S
C593 H596 0.950 . S
C594 C593 1.387 . S
C594 C597 1.387 . S
H595 C591 0.950 . S
H596 C593 0.950 . S
C597 C588 1.390 1_556 S
C597 H590 0.950 . S
C597 C594 1.387 . S
C598 C599 1.387 . S
C598 H602 0.950 . S
C598 C607 1.390 . S
C599 C598 1.387 . S
C599 C601 1.387 . S
H600 C607 0.950 . S
C601 C599 1.387 . S
C601 C603 1.390 . S
C601 H605 0.950 . S
H602 C598 0.950 . S
C603 C601 1.390 . S
C603 C604 1.387 . S
C603 H606 0.950 . S
C604 C603 1.387 . S
C604 C607 1.387 . S
H605 C601 0.950 . S
H606 C603 0.950 . S
C607 C598 1.390 . S
C607 H600 0.950 . S
C607 C604 1.387 . S
C608 C609 1.387 . S
C608 H612 0.950 . S
C608 C617 1.390 1_554 S
C609 C608 1.387 . S
C609 C611 1.387 . S
H610 C617 0.950 . S
C611 C609 1.387 . S
C611 C613 1.390 1_554 S
C611 H615 0.950 . S
H612 C608 0.950 . S
C613 C611 1.390 1_556 S
C613 C614 1.387 . S
C613 H616 0.950 . S
C614 C613 1.387 . S
C614 C617 1.387 . S
H615 C611 0.950 . S
H616 C613 0.950 . S
C617 C608 1.390 1_556 S
C617 H610 0.950 . S
C617 C614 1.387 . S
C618 C619 1.387 . S
C618 H622 0.950 . S
C618 C627 1.390 . S
C619 C618 1.387 . S
C619 C621 1.387 . S
H620 C627 0.950 . S
C621 C619 1.387 . S
C621 C623 1.390 . S
C621 H625 0.950 . S
H622 C618 0.950 . S
C623 C621 1.390 . S
C623 C624 1.387 . S
C623 H626 0.950 . S
C624 C623 1.387 . S
C624 C627 1.387 . S
H625 C621 0.950 . S
H626 C623 0.950 . S
C627 C618 1.390 . S
C627 H620 0.950 . S
C627 C624 1.387 . S
C628 C629 1.387 . S
C628 H632 0.950 . S
C628 C637 1.390 1_556 S
C629 C628 1.387 . S
C629 C631 1.387 . S
H630 C637 0.950 . S
C631 C629 1.387 . S
C631 C633 1.390 1_556 S
C631 H635 0.950 . S
H632 C628 0.950 . S
C633 C631 1.390 1_554 S
C633 C634 1.387 . S
C633 H636 0.950 . S
C634 C633 1.387 . S
C634 C637 1.387 . S
H635 C631 0.950 . S
H636 C633 0.950 . S
C637 C628 1.390 1_554 S
C637 H630 0.950 . S
C637 C634 1.387 . S
C638 C639 1.387 . S
C638 H642 0.950 . S
C638 C647 1.390 . S
C639 C638 1.387 . S
C639 C641 1.387 . S
H640 C647 0.950 . S
C641 C639 1.387 . S
C641 C643 1.390 . S
C641 H645 0.950 . S
H642 C638 0.950 . S
C643 C641 1.390 . S
C643 C644 1.387 . S
C643 H646 0.950 . S
C644 C643 1.387 . S
C644 C647 1.387 . S
H645 C641 0.950 . S
H646 C643 0.950 . S
C647 C638 1.390 . S
C647 H640 0.950 . S
C647 C644 1.387 . S
C648 C649 1.387 . S
C648 H652 0.950 . S
C648 C657 1.390 . S
C649 C648 1.387 . S
C649 C651 1.387 . S
H650 C657 0.950 . S
C651 C649 1.387 . S
C651 C653 1.390 . S
C651 H655 0.950 . S
H652 C648 0.950 . S
C653 C651 1.390 . S
C653 C654 1.387 . S
C653 H656 0.950 . S
C654 C653 1.387 . S
C654 C657 1.387 . S
H655 C651 0.950 . S
H656 C653 0.950 . S
C657 C648 1.390 . S
C657 H650 0.950 . S
C657 C654 1.387 . S
C658 C659 1.387 . S
C658 H662 0.950 . S
C658 C667 1.390 . S
C659 C658 1.387 . S
C659 C661 1.387 . S
H660 C667 0.950 . S
C661 C659 1.387 . S
C661 C663 1.390 . S
C661 H665 0.950 . S
H662 C658 0.950 . S
C663 C661 1.390 . S
C663 C664 1.387 . S
C663 H666 0.950 . S
C664 C663 1.387 . S
C664 C667 1.387 . S
H665 C661 0.950 . S
H666 C663 0.950 . S
C667 C658 1.390 . S
C667 H660 0.950 . S
C667 C664 1.387 . S
C668 C669 1.387 . S
C668 H672 0.950 . S
C668 C677 1.390 . S
C669 C668 1.387 . S
C669 C671 1.387 . S
H670 C677 0.950 . S
C671 C669 1.387 . S
C671 C673 1.390 . S
C671 H675 0.950 . S
H672 C668 0.950 . S
C673 C671 1.390 . S
C673 C674 1.387 . S
C673 H676 0.950 . S
C674 C673 1.387 . S
C674 C677 1.387 . S
H675 C671 0.950 . S
H676 C673 0.950 . S
C677 C668 1.390 . S
C677 H670 0.950 . S
C677 C674 1.387 . S
C678 C679 1.387 . S
C678 H682 0.950 . S
C678 C687 1.390 . S
C679 C678 1.387 . S
C679 C681 1.387 . S
H680 C687 0.950 . S
C681 C679 1.387 . S
C681 C683 1.390 . S
C681 H685 0.950 . S
H682 C678 0.950 . S
C683 C681 1.390 . S
C683 C684 1.387 . S
C683 H686 0.950 . S
C684 C683 1.387 . S
C684 C687 1.387 . S
H685 C681 0.950 . S
H686 C683 0.950 . S
C687 C678 1.390 . S
C687 H680 0.950 . S
C687 C684 1.387 . S
C688 C689 1.387 . S
C688 H692 0.950 . S
C688 C697 1.390 . S
C689 C688 1.387 . S
C689 C691 1.387 . S
H690 C697 0.950 . S
C691 C689 1.387 . S
C691 C693 1.390 . S
C691 H695 0.950 . S
H692 C688 0.950 . S
C693 C691 1.390 . S
C693 C694 1.387 . S
C693 H696 0.950 . S
C694 C693 1.387 . S
C694 C697 1.387 . S
H695 C691 0.950 . S
H696 C693 0.950 . S
C697 C688 1.390 . S
C697 H690 0.950 . S
C697 C694 1.387 . S
C698 C699 1.387 . S
C698 H702 0.950 . S
C698 C707 1.390 . S
C699 C698 1.387 . S
C699 C701 1.387 . S
H700 C707 0.950 . S
C701 C699 1.387 . S
C701 C703 1.390 . S
C701 H705 0.950 . S
H702 C698 0.950 . S
C703 C701 1.390 . S
C703 C704 1.387 . S
C703 H706 0.950 . S
C704 C703 1.387 . S
C704 C707 1.387 . S
H705 C701 0.950 . S
H706 C703 0.950 . S
C707 C698 1.390 . S
C707 H700 0.950 . S
C707 C704 1.387 . S
C708 C709 1.387 . S
C708 H712 0.950 . S
C708 C717 1.390 . S
C709 C708 1.387 . S
C709 C711 1.387 . S
H710 C717 0.950 . S
C711 C709 1.387 . S
C711 C713 1.390 . S
C711 H715 0.950 . S
H712 C708 0.950 . S
C713 C711 1.390 . S
C713 C714 1.387 . S
C713 H716 0.950 . S
C714 C713 1.387 . S
C714 C717 1.387 . S
H715 C711 0.950 . S
H716 C713 0.950 . S
C717 C708 1.390 . S
C717 H710 0.950 . S
C717 C714 1.387 . S
C718 C719 1.387 . S
C718 H722 0.950 . S
C718 C727 1.390 . S
C719 C718 1.387 . S
C719 C721 1.387 . S
H720 C727 0.950 . S
C721 C719 1.387 . S
C721 C723 1.390 . S
C721 H725 0.950 . S
H722 C718 0.950 . S
C723 C721 1.390 . S
C723 C724 1.387 . S
C723 H726 0.950 . S
C724 C723 1.387 . S
C724 C727 1.387 . S
H725 C721 0.950 . S
H726 C723 0.950 . S
C727 C718 1.390 . S
C727 H720 0.950 . S
C727 C724 1.387 . S
C489 C116 1.809 . S
C494 C226 1.809 1_565 S
C504 C310 1.809 . S
C499 C135 1.808 . S
C514 C303 1.799 . S
C509 C78 1.808 . S
C519 C97 1.807 . S
C524 C219 1.798 1_565 S
C534 C383 1.808 1_545 S
C529 C40 1.809 . S
C544 C467 1.810 . S
C539 C59 1.810 . S
C549 C2 1.810 . S
C554 C460 1.799 . S
C559 C21 1.810 . S
C564 C376 1.799 1_545 S
C574 C210 1.557 . S
C569 C25 1.728 . S
C584 C294 1.554 . S
C579 C6 1.727 . S
C594 C305 1.428 . S
C589 C63 1.723 . S
C604 C221 1.424 . S
C599 C44 1.722 . S
C614 C389 1.558 . S
C609 C101 1.726 . S
C619 C82 1.726 . S
C624 C473 1.557 . S
C634 C462 1.429 . S
C629 C139 1.721 . S
C639 C120 1.721 . S
C644 C378 1.428 . S
C654 C208 1.508 . S
C649 C11 1.439 . S
C664 C292 1.508 . S
C659 C30 1.436 . S
C669 C49 1.428 . S
C674 C299 1.471 . S
C684 C215 1.472 . S
C679 C68 1.428 . S
C694 C387 1.509 . S
C689 C87 1.373 . S
C699 C106 1.373 . S
C704 C471 1.508 . S
C709 C125 1.377 . S
C714 C478 1.471 . S
C719 C144 1.377 . S
C724 C394 1.471 . S
