# Generated by pormake.
# Topology anh, (6,3)-cn, num edge types: 1
# Building blocks:
#     Node 0, Type 0, BuildingBlock: BETDIP_clean_sbu_0, # of connection points: 6
#     Node 1, Type 0, BuildingBlock: BETDIP_clean_sbu_0, # of connection points: 6
#     Node 2, Type 0, BuildingBlock: BETDIP_clean_sbu_0, # of connection points: 6
#     Node 3, Type 1, BuildingBlock: BETDIP_clean_linker_0, # of connection points: 3
#     Node 4, Type 1, BuildingBlock: BETDIP_clean_linker_0, # of connection points: 3
#     Node 5, Type 1, BuildingBlock: BETDIP_clean_linker_0, # of connection points: 3
#     Node 6, Type 1, BuildingBlock: BETDIP_clean_linker_0, # of connection points: 3
#     Node 7, Type 1, BuildingBlock: BETDIP_clean_linker_0, # of connection points: 3
#     Node 8, Type 1, BuildingBlock: BETDIP_clean_linker_0, # of connection points: 3
#     Edge 9, Type (0, 1), BuildingBlock: AJUNOK_clean_linker_0, # of connection points: 2
#     Edge 10, Type (0, 1), BuildingBlock: AJUNOK_clean_linker_0, # of connection points: 2
#     Edge 11, Type (0, 1), BuildingBlock: AJUNOK_clean_linker_0, # of connection points: 2
#     Edge 12, Type (0, 1), BuildingBlock: AJUNOK_clean_linker_0, # of connection points: 2
#     Edge 13, Type (0, 1), BuildingBlock: AJUNOK_clean_linker_0, # of connection points: 2
#     Edge 14, Type (0, 1), BuildingBlock: AJUNOK_clean_linker_0, # of connection points: 2
#     Edge 15, Type (0, 1), BuildingBlock: AJUNOK_clean_linker_0, # of connection points: 2
#     Edge 16, Type (0, 1), BuildingBlock: AJUNOK_clean_linker_0, # of connection points: 2
#     Edge 17, Type (0, 1), BuildingBlock: AJUNOK_clean_linker_0, # of connection points: 2
#     Edge 18, Type (0, 1), BuildingBlock: AJUNOK_clean_linker_0, # of connection points: 2
#     Edge 19, Type (0, 1), BuildingBlock: AJUNOK_clean_linker_0, # of connection points: 2
#     Edge 20, Type (0, 1), BuildingBlock: AJUNOK_clean_linker_0, # of connection points: 2
#     Edge 21, Type (0, 1), BuildingBlock: AJUNOK_clean_linker_0, # of connection points: 2
#     Edge 22, Type (0, 1), BuildingBlock: AJUNOK_clean_linker_0, # of connection points: 2
#     Edge 23, Type (0, 1), BuildingBlock: AJUNOK_clean_linker_0, # of connection points: 2
#     Edge 24, Type (0, 1), BuildingBlock: AJUNOK_clean_linker_0, # of connection points: 2
#     Edge 25, Type (0, 1), BuildingBlock: AJUNOK_clean_linker_0, # of connection points: 2
#     Edge 26, Type (0, 1), BuildingBlock: AJUNOK_clean_linker_0, # of connection points: 2
# Relax obj value: 0.386
# Max RMSD: 0.193
# Mean RMSD: 0.139
data_MOF--net-anh--node1-BETDIP_clean_sbu_0--node2-BETDIP_clean_linker_0--edge1-AJUNOK_clean_linker_0
_symmetry_space_group_name_H-M    P1
_symmetry_Int_Tables_number       1
_symmetry_cell_setting            triclinic
loop_
_symmetry_equiv_pos_as_xyz
'x, y, z'
_cell_length_a     22.88754
_cell_length_b     23.143043
_cell_length_c     36.769147
_cell_angle_alpha  93.344811
_cell_angle_beta   88.507861
_cell_angle_gamma 120.05205
loop_
_atom_site_label
_atom_site_type_symbol
_atom_site_fract_x
_atom_site_fract_y
_atom_site_fract_z
_atom_type_partial_charge
Tb0 Tb 0.19456 0.7325 0.14381 0.0
Tb1 Tb 1.12964 0.59 0.14548 0.0
C2 C 0.27209 0.85551 0.15717 0.0
C3 C 0.34522 0.89962 0.15317 0.0
C4 C 0.38212 0.9437 0.18233 0.0
C5 C 0.45249 0.9764 0.18215 0.0
C6 C 0.48682 0.96545 0.15274 0.0
C7 C 0.45009 0.92602 0.12218 0.0
C8 C 0.37962 0.89276 0.12246 0.0
C9 C 1.1533 0.66931 0.07989 0.0
C10 C 0.28978 0.66087 0.13271 0.0
C11 C 1.05203 0.46563 0.13697 0.0
C12 C 1.04063 0.40143 0.14946 0.0
C13 C 1.08462 0.37684 0.1406 0.0
C14 C 1.06935 0.31361 0.15121 0.0
C15 C 1.01003 0.27433 0.17076 0.0
C16 C 0.96663 0.29934 0.17974 0.0
C17 C 0.98162 0.36203 0.16906 0.0
C18 C 0.1744 0.6488 0.21123 0.0
C19 C 1.03579 0.66089 0.13778 0.0
O20 O 0.25447 0.81066 0.18153 0.0
O21 O 0.23713 0.83054 0.12709 0.0
O22 O 0.18073 0.65635 0.10462 0.0
O23 O 1.15086 0.72278 0.08961 0.0
O24 O 0.28558 0.71699 0.13608 0.0
O25 O 0.2325 0.6023 0.13483 0.0
O26 O 1.0428 0.50383 0.16122 0.0
O27 O 1.10378 0.49982 0.11593 0.0
O28 O 1.14632 0.66647 0.1881 0.0
O29 O 0.17533 0.59658 0.19749 0.0
O30 O 1.04368 0.6077 0.13054 0.0
O31 O 1.09011 0.71745 0.14949 0.0
H32 H 0.35648 0.94961 0.20623 0.0
H33 H 0.47979 1.00628 0.20619 0.0
H34 H 0.47591 0.91813 0.09906 0.0
H35 H 0.35222 0.85911 0.09951 0.0
H36 H 1.13033 0.40602 0.12531 0.0
H37 H 1.10391 0.29554 0.1443 0.0
H38 H 0.92028 0.26977 0.1945 0.0
H39 H 0.94643 0.37945 0.17576 0.0
Tb40 Tb 0.68084 0.12445 0.50036 0.0
Tb41 Tb 0.61329 0.17788 0.46298 0.0
C42 C 0.71386 1.07577 0.55018 0.0
C43 C 0.73431 1.02567 0.55306 0.0
C44 C 0.73945 1.00611 0.58759 0.0
C45 C 0.77597 0.97354 0.59221 0.0
C46 C 0.80839 0.96093 0.56236 0.0
C47 C 0.7989 0.97645 0.52738 0.0
C48 C 0.76146 1.00791 0.52271 0.0
C49 C 0.70014 0.1171 0.43075 0.0
C50 C 0.52209 1.022 0.46986 0.0
C51 C 0.58213 0.24464 0.42486 0.0
C52 C 0.61137 0.31797 0.42882 0.0
C53 C 0.67453 0.36021 0.41314 0.0
C54 C 0.71731 0.42348 0.42938 0.0
C55 C 0.6967 0.44502 0.46099 0.0
C56 C 0.62957 0.40783 0.47257 0.0
C57 C 0.5868 0.34492 0.45631 0.0
C58 C 0.60914 0.18817 0.53652 0.0
C59 C 0.77503 0.27605 0.47535 0.0
O60 O 0.65123 1.05527 0.54167 0.0
O61 O 0.75599 0.12721 0.53223 0.0
O62 O 0.64539 0.10769 0.44523 0.0
O63 O 0.74128 0.12125 0.45554 0.0
O64 O 0.57306 1.03169 0.492 0.0
O65 O 0.53132 1.07406 0.45205 0.0
O66 O 0.62405 0.22432 0.41393 0.0
O67 O 0.5459 0.21143 0.4524 0.0
O68 O 0.65783 0.19859 0.5164 0.0
O69 O 0.5589 0.17317 0.51524 0.0
O70 O 0.71949 0.26265 0.45745 0.0
O71 O 0.76984 0.23042 0.49797 0.0
H72 H 0.71907 1.01989 0.6113 0.0
H73 H 0.78197 0.96151 0.6194 0.0
H74 H 0.82436 0.96887 0.50393 0.0
H75 H 0.75838 1.02322 0.49587 0.0
H76 H 0.6941 0.34158 0.39116 0.0
H77 H 0.76853 0.45228 0.41954 0.0
H78 H 0.61215 0.42477 0.49634 0.0
H79 H 0.53756 0.31453 0.46826 0.0
Tb80 Tb 0.57822 0.65275 0.79791 0.0
Tb81 Tb 0.72018 0.72341 0.8094 0.0
C82 C 0.45433 0.61142 0.80604 0.0
C83 C 0.39064 0.55219 0.81522 0.0
C84 C 0.38763 0.50761 0.84049 0.0
C85 C 0.32502 0.45589 0.85143 0.0
C86 C 0.26498 0.44835 0.83721 0.0
C87 C 0.26861 0.49116 0.81064 0.0
C88 C 0.33098 0.54275 0.7998 0.0
C89 C 0.6471 0.67969 0.73689 0.0
C90 C 0.65536 0.81807 0.79853 0.0
C91 C 0.84404 0.75966 0.80504 0.0
C92 C 0.88046 0.72366 0.81077 0.0
C93 C 0.94099 0.74087 0.7922 0.0
C94 C 0.97148 0.70157 0.79439 0.0
C95 C 0.94082 0.64394 0.81455 0.0
C96 C 0.88093 0.62775 0.83352 0.0
C97 C 0.85093 0.66704 0.8316 0.0
C98 C 0.65288 0.70027 0.87164 0.0
C99 C 0.63989 0.55657 0.79608 0.0
O100 O 0.48137 0.60807 0.77486 0.0
O101 O 0.49909 0.64126 0.83218 0.0
O102 O 0.66101 0.71762 0.76512 0.0
O103 O 0.59052 0.62505 0.74145 0.0
O104 O 0.59787 0.75942 0.80028 0.0
O105 O 0.71309 0.81608 0.79895 0.0
O106 O 0.8022 0.73504 0.77767 0.0
O107 O 0.81666 0.77256 0.83373 0.0
O108 O 0.63806 0.65876 0.84429 0.0
O109 O 0.70642 0.75561 0.86403 0.0
O110 O 0.69811 0.61514 0.79974 0.0
O111 O 0.58267 0.55847 0.79712 0.0
H112 H 0.43336 0.51389 0.85244 0.0
H113 H 0.3234 0.4228 0.87159 0.0
H114 H 0.22308 0.48661 0.79944 0.0
H115 H 0.33255 0.57675 0.78023 0.0
H116 H 0.96402 0.78402 0.77562 0.0
H117 H 1.01836 0.71564 0.78013 0.0
H118 H 0.85792 0.58509 0.85041 0.0
H119 H 0.80416 0.6527 0.84606 0.0
H120 H 0.78642 0.98792 0.18897 0.0
H121 H 0.82106 1.01295 0.30466 0.0
H122 H 0.67921 1.05884 0.25862 0.0
H123 H 0.92949 0.97254 0.20378 0.0
C124 C 0.911 1.00467 0.2152 0.0
C125 C 0.77669 1.00309 0.21583 0.0
C126 C 0.72818 1.02307 0.22029 0.0
C127 C 0.81075 1.00013 0.24632 0.0
C128 C 0.79546 1.01644 0.28121 0.0
C129 C 0.74837 1.03838 0.28578 0.0
C130 C 0.71599 1.0425 0.25516 0.0
N131 N 0.85984 0.97983 0.24226 0.0
H132 H 0.95629 0.71393 0.54281 0.0
H133 H 0.90773 0.81516 0.62912 0.0
H134 H 0.76642 0.60995 0.59699 0.0
H135 H 1.06689 0.93351 0.59262 0.0
C136 C 1.01696 0.89359 0.58446 0.0
C137 C 0.92137 0.71302 0.56356 0.0
C138 C 0.85697 0.65703 0.56585 0.0
C139 C 0.93974 0.76962 0.58659 0.0
C140 C 0.89325 0.77009 0.61238 0.0
C141 C 0.82892 0.71306 0.61624 0.0
C142 C 0.81334 0.65589 0.59369 0.0
N143 N 1.00439 0.82678 0.58217 0.0
H144 H 0.98705 0.39183 0.85956 0.0
H145 H 1.00391 0.39622 0.9759 0.0
H146 H 1.0496 0.57509 0.92412 0.0
H147 H 0.96043 0.23463 0.88059 0.0
C148 C 0.99415 0.28548 0.89089 0.0
C149 C 0.99856 0.41966 0.88556 0.0
C150 C 1.01736 0.48782 0.88752 0.0
C151 C 0.99247 0.38637 0.91756 0.0
C152 C 1.00788 0.42183 0.9514 0.0
C153 C 1.03032 0.49044 0.95353 0.0
C154 C 1.03416 0.5225 0.92177 0.0
N155 N 0.96918 0.31668 0.91618 0.0
H156 H 0.21317 0.70516 0.47859 0.0
H157 H 1.10889 0.59866 0.37851 0.0
H158 H 0.29066 0.788 0.37362 0.0
H159 H 1.01531 0.55548 0.41216 0.0
C160 C 1.02812 0.54038 0.43672 0.0
C161 C 0.20927 0.70187 0.44919 0.0
C162 C 0.26145 0.75659 0.42867 0.0
C163 C 1.15085 0.64382 0.43159 0.0
C164 C 1.14897 0.64176 0.39305 0.0
C165 C 0.19828 0.6934 0.37222 0.0
C166 C 0.25291 0.74958 0.39019 0.0
N167 N 1.09626 0.58768 0.45152 0.0
H168 H 0.64918 0.24898 0.80342 0.0
H169 H 0.63908 0.13556 0.70307 0.0
H170 H 0.62753 0.31322 0.69847 0.0
H171 H 0.61017 1.04792 0.73581 0.0
C172 C 0.63838 1.06583 0.76114 0.0
C173 C 0.64425 0.24212 0.77409 0.0
C174 C 0.63652 0.29105 0.75384 0.0
C175 C 0.64404 0.1831 0.75631 0.0
C176 C 0.63773 0.17659 0.71787 0.0
C177 C 0.63006 0.22227 0.69747 0.0
C178 C 0.63029 0.27804 0.71547 0.0
N179 N 0.65141 0.13241 0.7761 0.0
H180 H 0.60454 0.66306 0.13628 0.0
H181 H 0.70624 0.66215 0.03505 0.0
H182 H 0.51866 0.66141 0.03246 0.0
H183 H 0.75322 0.61279 0.06753 0.0
C184 C 0.76866 0.64249 0.09307 0.0
C185 C 0.60621 0.66163 0.10682 0.0
C186 C 0.55202 0.66245 0.08696 0.0
C187 C 0.66332 0.66019 0.08851 0.0
C188 C 0.66391 0.66025 0.04988 0.0
C189 C 0.61282 0.66203 0.02981 0.0
C190 C 0.55789 0.66176 0.04853 0.0
N191 N 0.72069 0.66276 0.10829 0.0
C192 C 0.37641 0.61646 0.13529 0.0
C193 C 0.35908 0.66385 0.12356 0.0
C194 C 0.4392 0.61814 0.12591 0.0
C195 C 0.48944 0.66661 0.10336 0.0
H196 H 0.34069 0.57692 0.15197 0.0
H197 H 0.44709 0.57914 0.13537 0.0
S198 S 0.46973 0.80002 0.06276 0.0
N199 N 0.39996 0.76009 0.08676 0.0
N200 N 0.51365 0.76262 0.06907 0.0
C201 C 0.47226 0.71388 0.09146 0.0
C202 C 0.40924 0.71281 0.10147 0.0
C203 C 0.84687 0.38166 0.43869 0.0
C204 C 0.84266 0.34337 0.46842 0.0
C205 C 0.90574 0.44327 0.43034 0.0
C206 C 0.96715 0.47338 0.45064 0.0
H207 H 0.8038 0.36323 0.42076 0.0
H208 H 0.90279 0.46774 0.4068 0.0
S209 S 0.98769 0.39586 0.53181 0.0
N210 N 0.90917 0.34249 0.51874 0.0
N211 N 1.01843 0.45665 0.50303 0.0
C212 C 0.96465 0.43597 0.48066 0.0
C213 C 0.90369 0.37223 0.48934 0.0
C214 C 0.71053 0.94957 0.79034 0.0
C215 C 0.65256 0.88443 0.79314 0.0
C216 C 0.70678 1.00891 0.78338 0.0
C217 C 0.64469 1.00853 0.77901 0.0
H218 H 0.76004 0.95483 0.79261 0.0
H219 H 0.75357 1.05517 0.77978 0.0
S220 S 0.47689 0.85327 0.78317 0.0
N221 N 0.53005 0.8267 0.79079 0.0
N222 N 0.52376 0.93426 0.77762 0.0
C223 C 0.58688 0.94403 0.78204 0.0
C224 C 0.59049 0.88406 0.78922 0.0
C225 C 0.91615 0.60416 0.10739 0.0
C226 C 0.96653 0.65738 0.12953 0.0
C227 C 0.85381 0.60026 0.09759 0.0
C228 C 0.8345 0.64806 0.10964 0.0
H229 H 0.92555 0.56513 0.09643 0.0
H230 H 0.82001 0.55859 0.07956 0.0
S231 S 0.9458 0.79876 0.16869 0.0
N232 N 0.99041 0.76057 0.16326 0.0
N233 N 0.87453 0.75202 0.14583 0.0
C234 C 0.88364 0.70127 0.1324 0.0
C235 C 0.94836 0.70609 0.14192 0.0
C236 C 0.4402 0.88956 0.47423 0.0
C237 C 0.45382 0.95318 0.46278 0.0
C238 C 0.37808 0.82731 0.46538 0.0
C239 C 0.32425 0.82356 0.44455 0.0
H240 H 0.47865 0.88728 0.48958 0.0
H241 H 0.37337 0.78126 0.47403 0.0
S242 S 0.32899 0.97377 0.4095 0.0
N243 N 0.40252 1.00521 0.43027 0.0
N244 N 0.2903 0.89252 0.41457 0.0
C245 C 0.33679 0.88689 0.43397 0.0
C246 C 0.39935 0.9496 0.44275 0.0
C247 C 0.59834 0.44205 0.75958 0.0
C248 C 0.63829 0.48779 0.78819 0.0
C249 C 0.59661 0.37984 0.75046 0.0
C250 C 0.63415 0.3561 0.76916 0.0
H251 H 0.56834 0.455 0.7432 0.0
H252 H 0.5642 0.34961 0.72794 0.0
S253 S 0.7359 0.44848 0.85219 0.0
N254 N 0.71007 0.49889 0.83862 0.0
N255 N 0.70516 0.38335 0.82263 0.0
C256 C 0.67084 0.39945 0.79962 0.0
C257 C 0.67361 0.46404 0.80855 0.0
C258 C 0.90768 0.97295 0.59589 0.0
C259 C 0.85867 0.93989 0.56826 0.0
C260 C 0.95944 0.95843 0.6003 0.0
C261 C 0.96382 0.91018 0.5774 0.0
H262 H 0.90695 1.01145 0.6138 0.0
H263 H 0.99583 0.98454 0.62207 0.0
S264 S 0.85042 0.81199 0.49979 0.0
N265 N 0.81815 0.85695 0.51759 0.0
N266 N 0.91793 0.83257 0.5245 0.0
C267 C 0.91619 0.87773 0.54916 0.0
C268 C 0.86288 0.89177 0.54501 0.0
C269 C 1.03584 0.6323 0.83692 0.0
C270 C 0.97302 0.60316 0.81937 0.0
C271 C 1.05575 0.59258 0.85427 0.0
C272 C 1.01215 0.52285 0.85589 0.0
H273 H 1.06664 0.68618 0.8404 0.0
H274 H 1.10227 0.61758 0.86987 0.0
S275 S 0.85653 0.42224 0.8004 0.0
N276 N 0.87854 0.50062 0.79401 0.0
N277 N 0.91348 0.42566 0.8284 0.0
C278 C 0.95505 0.49278 0.83291 0.0
C279 C 0.93577 0.53325 0.81447 0.0
C280 C 0.60546 1.05058 0.16943 0.0
C281 C 0.55834 0.98484 0.15754 0.0
C282 C 0.66648 1.06521 0.1855 0.0
C283 C 0.68166 1.01431 0.19059 0.0
H284 H 0.59261 1.08969 0.16904 0.0
H285 H 0.69883 0.1152 0.19727 0.0
S286 S 0.57904 0.83605 0.15954 0.0
N287 N 0.53437 0.87019 0.14787 0.0
N288 N 0.64882 0.89765 0.17835 0.0
C289 C 0.63842 0.95005 0.17513 0.0
C290 C 0.57649 0.93522 0.15862 0.0
C291 C 0.75093 0.48505 0.52174 0.0
C292 C 0.74674 0.49892 0.48548 0.0
C293 C 0.79223 0.53584 0.54706 0.0
C294 C 0.83046 0.60242 0.53707 0.0
H295 H 0.7203 0.43477 0.53088 0.0
H296 H 0.79141 0.52351 0.57512 0.0
S297 S 0.84442 0.66257 0.44404 0.0
N298 N 0.7898 0.58164 0.43961 0.0
N299 N 0.86742 0.67808 0.48734 0.0
C300 C 0.83101 0.6159 0.50013 0.0
C301 C 0.78896 0.56386 0.47427 0.0
C302 C 1.14494 0.35749 0.82814 0.0
C303 C 0.19836 0.40015 0.85195 0.0
C304 C 1.07925 0.31799 0.84125 0.0
C305 C 1.06491 0.32101 0.8784 0.0
H306 H 1.15375 0.35593 0.7991 0.0
H307 H 1.03897 0.28722 0.82203 0.0
S308 S 0.18761 0.41984 0.95232 0.0
N309 N 0.23301 0.43996 0.9147 0.0
N310 N 1.10981 0.36468 0.9393 0.0
C311 C 1.11827 0.36082 0.90269 0.0
C312 C 0.18504 0.40074 0.88945 0.0
C313 C 0.97367 0.19068 0.21832 0.0
C314 C 0.9921 0.20703 0.18199 0.0
C315 C 0.94942 0.12563 0.22912 0.0
C316 C 0.94189 1.07432 0.20386 0.0
H317 H 0.97722 0.22839 0.23849 0.0
H318 H 0.93598 0.11549 0.25742 0.0
S319 S 0.98576 1.09148 0.10594 0.0
N320 N 1.00365 0.16727 0.12102 0.0
N321 N 0.95793 1.0445 0.14154 0.0
C322 C 0.96273 1.09041 0.16785 0.0
C323 C 0.98766 0.15687 0.15679 0.0
C324 C 1.1371 0.57489 0.03761 0.0
C325 C 1.11893 0.62306 0.04842 0.0
C326 C 1.10553 0.52963 0.00797 0.0
C327 C 1.05446 0.53083 0.98825 0.0
H328 H 0.17709 0.57301 0.05169 0.0
H329 H 1.123 0.49521 -0.00042 0.0
S330 S 0.98245 0.64148 0.00861 0.0
N331 N 1.04308 0.66586 0.03915 0.0
N332 N 0.98265 0.57985 0.98367 0.0
C333 C 1.03371 0.57681 -0.00017 0.0
C334 C 1.06633 0.62331 0.02984 0.0
C335 C 0.77511 0.12304 0.3799 0.0
C336 C 0.70901 1.1003 0.39259 0.0
C337 C 0.7872 0.10256 0.34542 0.0
C338 C 0.73357 1.05829 0.32236 0.0
H339 H 0.81809 0.15646 0.397 0.0
H340 H 0.83899 0.12173 0.33671 0.0
S341 S 0.55075 0.98303 0.3431 0.0
N342 N 0.58909 1.03135 0.37963 0.0
N343 N 0.61146 0.99133 0.31482 0.0
C344 C 0.66696 1.03555 0.33457 0.0
C345 C 0.65472 1.05703 0.36969 0.0
C346 C 0.757 0.74651 0.70496 0.0
C347 C 0.68933 0.69514 0.70372 0.0
C348 C 0.80166 0.75269 0.67666 0.0
C349 C 0.77901 0.71188 0.64422 0.0
H350 H 0.77643 0.78093 0.72849 0.0
H351 H 0.85447 0.78856 0.68122 0.0
S352 S 0.59835 0.59168 0.62151 0.0
N353 N 0.59759 0.61392 0.6649 0.0
N354 N 0.678 0.63412 0.60878 0.0
C355 C 0.70834 0.66845 0.64041 0.0
C356 C 0.66421 0.65832 0.67063 0.0
C357 C 0.66714 0.19992 0.59642 0.0
C358 C 0.61193 0.19557 0.57757 0.0
C359 C 0.67203 0.2073 0.63486 0.0
C360 C 0.62275 0.21233 0.65642 0.0
H361 H 0.70715 0.19748 0.58132 0.0
H362 H 0.71553 0.21032 0.64779 0.0
S363 S 0.46801 0.20398 0.62104 0.0
N364 N 0.50637 0.1961 0.58397 0.0
N365 N 0.5164 0.2118 0.65571 0.0
C366 C 0.56744 0.20837 0.63795 0.0
C367 C 0.5618 0.19952 0.59881 0.0
C368 C 0.63208 0.62982 0.92666 0.0
C369 C 0.63314 0.68443 0.91076 0.0
C370 C 0.62561 0.62256 0.96494 0.0
C371 C 0.61858 0.66883 0.98889 0.0
H372 H 0.6392 0.59403 0.90965 0.0
H373 H 0.62644 0.58055 0.97591 0.0
S374 S 0.61701 0.81967 0.96088 0.0
N375 N 0.62634 0.78512 0.92222 0.0
N376 N 0.61234 0.77069 -0.00692 0.0
C377 C 0.61794 0.72251 0.973 0.0
C378 C 0.62573 0.73047 0.93437 0.0
C379 C 0.18542 0.61902 0.27462 0.0
C380 C 0.18056 0.664 0.25207 0.0
C381 C 0.1911 0.6292 0.31285 0.0
C382 C 0.19382 0.68578 0.33097 0.0
H383 H 0.18417 0.57451 0.26269 0.0
H384 H 0.19389 0.59235 0.32845 0.0
S385 S 0.18409 0.82014 0.28566 0.0
N386 N 0.17851 0.76783 0.25152 0.0
N387 N 0.19155 0.78818 0.32316 0.0
C388 C 0.19001 0.73194 0.30898 0.0
C389 C 0.18272 0.72077 0.26979 0.0
loop_
_geom_bond_atom_site_label_1
_geom_bond_atom_site_label_2
_geom_bond_distance
_geom_bond_site_symmetry_2
_ccdc_geom_bond_type
Tb0 C2 2.809 . S
Tb0 O20 2.484 . S
Tb0 O21 2.440 . S
Tb0 O22 2.658 . S
Tb0 O23 2.409 . S
Tb0 O24 2.378 . S
Tb0 O28 2.325 . S
Tb0 O31 2.341 1_455 S
Tb1 C11 2.809 . S
Tb1 O22 2.325 1_655 S
Tb1 O25 2.341 1_655 S
Tb1 O26 2.484 . S
Tb1 O27 2.440 . S
Tb1 O28 2.658 1_655 S
Tb1 O29 2.409 1_655 S
Tb1 O30 2.378 . S
C2 Tb0 2.809 . S
C2 C3 1.514 . S
C2 O20 1.248 . S
C2 O21 1.266 . S
C3 C2 1.514 . S
C3 C4 1.359 . S
C3 C8 1.348 . S
C4 C3 1.359 . S
C4 C5 1.380 . S
C4 H32 0.929 . S
C5 C4 1.380 . S
C5 C6 1.347 . S
C5 H33 0.931 . S
C6 C5 1.347 . S
C6 C7 1.369 . S
C7 C6 1.369 . S
C7 C8 1.408 . S
C7 H34 0.930 . S
C8 C3 1.348 . S
C8 C7 1.408 . S
C8 H35 0.930 . S
C9 O22 1.281 . S
C9 O23 1.254 . S
C10 O24 1.236 . S
C10 O25 1.266 . S
C11 Tb1 2.809 . S
C11 C12 1.514 . S
C11 O26 1.248 . S
C11 O27 1.266 . S
C12 C11 1.514 . S
C12 C13 1.359 . S
C12 C17 1.348 . S
C13 C12 1.359 . S
C13 C14 1.380 . S
C13 H36 0.929 . S
C14 C13 1.380 . S
C14 C15 1.347 . S
C14 H37 0.931 . S
C15 C14 1.347 . S
C15 C16 1.369 . S
C16 C15 1.369 . S
C16 C17 1.408 . S
C16 H38 0.930 . S
C17 C12 1.348 . S
C17 C16 1.408 . S
C17 H39 0.930 . S
C18 O28 1.281 . S
C18 O29 1.254 . S
C19 O30 1.236 . S
C19 O31 1.266 . S
O20 Tb0 2.484 . S
O20 C2 1.248 . S
O21 Tb0 2.440 . S
O21 C2 1.266 . S
O22 Tb0 2.658 . S
O22 Tb1 2.325 1_455 S
O22 C9 1.281 . S
O23 Tb0 2.409 . S
O23 C9 1.254 . S
O24 Tb0 2.378 . S
O24 C10 1.236 . S
O25 Tb1 2.341 1_455 S
O25 C10 1.266 . S
O26 Tb1 2.484 . S
O26 C11 1.248 . S
O27 Tb1 2.440 . S
O27 C11 1.266 . S
O28 Tb0 2.325 . S
O28 Tb1 2.658 1_455 S
O28 C18 1.281 . S
O29 Tb1 2.409 1_455 S
O29 C18 1.254 . S
O30 Tb1 2.378 . S
O30 C19 1.236 . S
O31 Tb0 2.341 1_655 S
O31 C19 1.266 . S
H32 C4 0.929 . S
H33 C5 0.931 . S
H34 C7 0.930 . S
H35 C8 0.930 . S
H36 C13 0.929 . S
H37 C14 0.931 . S
H38 C16 0.930 . S
H39 C17 0.930 . S
Tb40 C42 2.809 1_545 S
Tb40 O60 2.485 1_545 S
Tb40 O61 2.441 1_545 S
Tb40 O62 2.658 . S
Tb40 O63 2.409 . S
Tb40 O64 2.378 1_545 S
Tb40 O68 2.325 . S
Tb40 O71 2.341 . S
Tb41 C51 2.809 . S
Tb41 O62 2.325 . S
Tb41 O65 2.341 1_545 S
Tb41 O66 2.484 . S
Tb41 O67 2.440 . S
Tb41 O68 2.658 . S
Tb41 O69 2.409 . S
Tb41 O70 2.378 . S
C42 Tb40 2.809 1_565 S
C42 C43 1.514 . S
C42 O60 1.248 . S
C42 O61 1.266 . S
C43 C42 1.514 . S
C43 C44 1.359 . S
C43 C48 1.348 . S
C44 C43 1.359 . S
C44 C45 1.380 . S
C44 H72 0.929 . S
C45 C44 1.380 . S
C45 C46 1.347 . S
C45 H73 0.931 . S
C46 C45 1.347 . S
C46 C47 1.369 . S
C47 C46 1.369 . S
C47 C48 1.408 . S
C47 H74 0.930 . S
C48 C43 1.348 . S
C48 C47 1.408 . S
C48 H75 0.930 . S
C49 O62 1.281 . S
C49 O63 1.254 . S
C50 O64 1.236 . S
C50 O65 1.266 . S
C51 Tb41 2.809 . S
C51 C52 1.514 . S
C51 O66 1.248 . S
C51 O67 1.266 . S
C52 C51 1.514 . S
C52 C53 1.359 . S
C52 C57 1.348 . S
C53 C52 1.359 . S
C53 C54 1.380 . S
C53 H76 0.929 . S
C54 C53 1.380 . S
C54 C55 1.347 . S
C54 H77 0.931 . S
C55 C54 1.347 . S
C55 C56 1.369 . S
C56 C55 1.369 . S
C56 C57 1.408 . S
C56 H78 0.930 . S
C57 C52 1.348 . S
C57 C56 1.408 . S
C57 H79 0.930 . S
C58 O68 1.281 . S
C58 O69 1.254 . S
C59 O70 1.236 . S
C59 O71 1.266 . S
O60 Tb40 2.485 1_565 S
O60 C42 1.248 . S
O61 Tb40 2.441 1_565 S
O61 C42 1.266 . S
O62 Tb40 2.658 . S
O62 Tb41 2.325 . S
O62 C49 1.281 . S
O63 Tb40 2.409 . S
O63 C49 1.254 . S
O64 Tb40 2.378 1_565 S
O64 C50 1.236 . S
O65 Tb41 2.341 1_565 S
O65 C50 1.266 . S
O66 Tb41 2.484 . S
O66 C51 1.248 . S
O67 Tb41 2.440 . S
O67 C51 1.266 . S
O68 Tb40 2.325 . S
O68 Tb41 2.658 . S
O68 C58 1.281 . S
O69 Tb41 2.409 . S
O69 C58 1.254 . S
O70 Tb41 2.378 . S
O70 C59 1.236 . S
O71 Tb40 2.341 . S
O71 C59 1.266 . S
H72 C44 0.929 . S
H73 C45 0.931 . S
H74 C47 0.930 . S
H75 C48 0.930 . S
H76 C53 0.929 . S
H77 C54 0.931 . S
H78 C56 0.930 . S
H79 C57 0.930 . S
Tb80 C82 2.809 . S
Tb80 O100 2.484 . S
Tb80 O101 2.440 . S
Tb80 O102 2.658 . S
Tb80 O103 2.409 . S
Tb80 O104 2.378 . S
Tb80 O108 2.325 . S
Tb80 O111 2.341 . S
Tb81 C91 2.809 . S
Tb81 O102 2.325 . S
Tb81 O105 2.341 . S
Tb81 O106 2.484 . S
Tb81 O107 2.440 . S
Tb81 O108 2.658 . S
Tb81 O109 2.409 . S
Tb81 O110 2.378 . S
C82 Tb80 2.809 . S
C82 C83 1.514 . S
C82 O100 1.248 . S
C82 O101 1.266 . S
C83 C82 1.514 . S
C83 C84 1.359 . S
C83 C88 1.348 . S
C84 C83 1.359 . S
C84 C85 1.380 . S
C84 H112 0.929 . S
C85 C84 1.380 . S
C85 C86 1.347 . S
C85 H113 0.931 . S
C86 C85 1.347 . S
C86 C87 1.369 . S
C87 C86 1.369 . S
C87 C88 1.408 . S
C87 H114 0.930 . S
C88 C83 1.348 . S
C88 C87 1.408 . S
C88 H115 0.930 . S
C89 O102 1.281 . S
C89 O103 1.254 . S
C90 O104 1.236 . S
C90 O105 1.266 . S
C91 Tb81 2.809 . S
C91 C92 1.514 . S
C91 O106 1.248 . S
C91 O107 1.266 . S
C92 C91 1.514 . S
C92 C93 1.359 . S
C92 C97 1.348 . S
C93 C92 1.359 . S
C93 C94 1.380 . S
C93 H116 0.929 . S
C94 C93 1.380 . S
C94 C95 1.347 . S
C94 H117 0.931 . S
C95 C94 1.347 . S
C95 C96 1.369 . S
C96 C95 1.369 . S
C96 C97 1.408 . S
C96 H118 0.930 . S
C97 C92 1.348 . S
C97 C96 1.408 . S
C97 H119 0.930 . S
C98 O108 1.281 . S
C98 O109 1.254 . S
C99 O110 1.236 . S
C99 O111 1.266 . S
O100 Tb80 2.484 . S
O100 C82 1.248 . S
O101 Tb80 2.440 . S
O101 C82 1.266 . S
O102 Tb80 2.658 . S
O102 Tb81 2.325 . S
O102 C89 1.281 . S
O103 Tb80 2.409 . S
O103 C89 1.254 . S
O104 Tb80 2.378 . S
O104 C90 1.236 . S
O105 Tb81 2.341 . S
O105 C90 1.266 . S
O106 Tb81 2.484 . S
O106 C91 1.248 . S
O107 Tb81 2.440 . S
O107 C91 1.266 . S
O108 Tb80 2.325 . S
O108 Tb81 2.658 . S
O108 C98 1.281 . S
O109 Tb81 2.409 . S
O109 C98 1.254 . S
O110 Tb81 2.378 . S
O110 C99 1.236 . S
O111 Tb80 2.341 . S
O111 C99 1.266 . S
H112 C84 0.929 . S
H113 C85 0.931 . S
H114 C87 0.930 . S
H115 C88 0.930 . S
H116 C93 0.929 . S
H117 C94 0.931 . S
H118 C96 0.930 . S
H119 C97 0.930 . S
H120 C125 0.930 . S
H121 C128 0.930 . S
H122 C130 0.930 1_565 S
H123 C124 1.016 . S
C124 H123 1.016 . S
C124 N131 1.286 . S
C125 H120 0.930 . S
C125 C126 1.397 1_545 S
C125 C127 1.361 . S
C126 C125 1.397 1_565 S
C126 C130 1.390 1_565 S
C127 C125 1.361 . S
C127 C128 1.393 . S
C127 N131 1.413 . S
C128 H121 0.930 . S
C128 C127 1.393 . S
C128 C129 1.399 . S
C129 C128 1.399 . S
C129 C130 1.381 . S
C130 H122 0.930 1_545 S
C130 C126 1.390 1_545 S
C130 C129 1.381 . S
N131 C124 1.286 . S
N131 C127 1.413 . S
H132 C137 0.930 . S
H133 C140 0.930 . S
H134 C142 0.930 . S
H135 C136 1.016 . S
C136 H135 1.016 . S
C136 N143 1.286 . S
C137 H132 0.930 . S
C137 C138 1.397 . S
C137 C139 1.361 . S
C138 C137 1.397 . S
C138 C142 1.390 . S
C139 C137 1.361 . S
C139 C140 1.393 . S
C139 N143 1.413 . S
C140 H133 0.930 . S
C140 C139 1.393 . S
C140 C141 1.399 . S
C141 C140 1.399 . S
C141 C142 1.381 . S
C142 H134 0.930 . S
C142 C138 1.390 . S
C142 C141 1.381 . S
N143 C136 1.286 . S
N143 C139 1.413 . S
H144 C149 0.930 . S
H145 C152 0.930 . S
H146 C154 0.930 . S
H147 C148 1.016 . S
C148 H147 1.016 . S
C148 N155 1.286 . S
C149 H144 0.930 . S
C149 C150 1.397 . S
C149 C151 1.361 1_655 S
C150 C149 1.397 . S
C150 C154 1.390 . S
C151 C149 1.361 1_455 S
C151 C152 1.393 . S
C151 N155 1.413 . S
C152 H145 0.930 . S
C152 C151 1.393 . S
C152 C153 1.399 1_455 S
C153 C152 1.399 1_655 S
C153 C154 1.381 . S
C154 H146 0.930 . S
C154 C150 1.390 . S
C154 C153 1.381 . S
N155 C148 1.286 . S
N155 C151 1.413 . S
H156 C161 0.930 . S
H157 C164 0.932 . S
H158 C166 0.930 . S
H159 C160 1.016 . S
C160 H159 1.016 . S
C160 N167 1.286 . S
C161 H156 0.930 . S
C161 C162 1.397 . S
C161 C163 1.361 . S
C162 C161 1.397 . S
C162 C166 1.390 . S
C163 C161 1.361 . S
C163 C164 1.393 1_455 S
C163 N167 1.413 1_455 S
C164 H157 0.932 . S
C164 C163 1.393 1_655 S
C164 C165 1.398 1_655 S
C165 C164 1.398 1_455 S
C165 C166 1.381 . S
C166 H158 0.930 . S
C166 C162 1.390 . S
C166 C165 1.381 . S
N167 C160 1.286 . S
N167 C163 1.413 1_655 S
H168 C173 0.930 . S
H169 C176 0.930 . S
H170 C178 0.930 . S
H171 C172 1.016 . S
C172 H171 1.016 . S
C172 N179 1.286 . S
C173 H168 0.930 . S
C173 C174 1.397 . S
C173 C175 1.348 1_545 S
C174 C173 1.397 . S
C174 C178 1.390 . S
C175 C173 1.348 1_565 S
C175 C176 1.394 . S
C175 N179 1.425 . S
C176 H169 0.930 . S
C176 C175 1.394 . S
C176 C177 1.399 1_565 S
C177 C176 1.399 1_545 S
C177 C178 1.381 . S
C178 H170 0.930 . S
C178 C174 1.390 . S
C178 C177 1.381 . S
N179 C172 1.286 . S
N179 C175 1.425 . S
H180 C185 0.930 . S
H181 C188 0.930 . S
H182 C190 0.930 . S
H183 C184 1.016 . S
C184 H183 1.016 . S
C184 N191 1.286 . S
C185 H180 0.930 . S
C185 C186 1.397 . S
C185 C187 1.361 . S
C186 C185 1.397 . S
C186 C190 1.390 . S
C187 C185 1.361 . S
C187 C188 1.393 . S
C187 N191 1.413 . S
C188 H181 0.930 . S
C188 C187 1.393 . S
C188 C189 1.399 . S
C189 C188 1.399 . S
C189 C190 1.381 . S
C190 H182 0.930 . S
C190 C186 1.390 . S
C190 C189 1.381 . S
N191 C184 1.286 . S
N191 C187 1.413 . S
C192 C193 1.369 . S
C192 C194 1.419 . S
C192 H196 0.930 . S
C193 C192 1.369 . S
C193 C202 1.429 . S
C194 C192 1.419 . S
C194 C195 1.363 . S
C194 H197 0.929 . S
C195 C194 1.363 . S
C195 C201 1.428 . S
H196 C192 0.930 . S
H197 C194 0.929 . S
S198 N199 1.613 . S
S198 N200 1.610 . S
N199 S198 1.613 . S
N199 C202 1.350 . S
N200 S198 1.610 . S
N200 C201 1.351 . S
C201 C195 1.428 . S
C201 N200 1.351 . S
C201 C202 1.434 . S
C202 C193 1.429 . S
C202 N199 1.350 . S
C202 C201 1.434 . S
C203 C204 1.369 . S
C203 C205 1.419 . S
C203 H207 0.930 . S
C204 C203 1.369 . S
C204 C213 1.429 . S
C205 C203 1.419 . S
C205 C206 1.363 . S
C205 H208 0.929 . S
C206 C205 1.363 . S
C206 C212 1.428 . S
H207 C203 0.930 . S
H208 C205 0.929 . S
S209 N210 1.613 . S
S209 N211 1.610 . S
N210 S209 1.613 . S
N210 C213 1.350 . S
N211 S209 1.610 . S
N211 C212 1.351 . S
C212 C206 1.428 . S
C212 N211 1.351 . S
C212 C213 1.434 . S
C213 C204 1.429 . S
C213 N210 1.350 . S
C213 C212 1.434 . S
C214 C215 1.369 . S
C214 C216 1.419 . S
C214 H218 0.930 . S
C215 C214 1.369 . S
C215 C224 1.429 . S
C216 C214 1.419 . S
C216 C217 1.363 . S
C216 H219 0.929 . S
C217 C216 1.363 . S
C217 C223 1.428 . S
H218 C214 0.930 . S
H219 C216 0.929 . S
S220 N221 1.613 . S
S220 N222 1.610 . S
N221 S220 1.613 . S
N221 C224 1.350 . S
N222 S220 1.610 . S
N222 C223 1.351 . S
C223 C217 1.428 . S
C223 N222 1.351 . S
C223 C224 1.434 . S
C224 C215 1.429 . S
C224 N221 1.350 . S
C224 C223 1.434 . S
C225 C226 1.369 . S
C225 C227 1.419 . S
C225 H229 0.930 . S
C226 C225 1.369 . S
C226 C235 1.429 . S
C227 C225 1.419 . S
C227 C228 1.363 . S
C227 H230 0.929 . S
C228 C227 1.363 . S
C228 C234 1.428 . S
H229 C225 0.930 . S
H230 C227 0.929 . S
S231 N232 1.613 . S
S231 N233 1.610 . S
N232 S231 1.613 . S
N232 C235 1.350 . S
N233 S231 1.610 . S
N233 C234 1.351 . S
C234 C228 1.428 . S
C234 N233 1.351 . S
C234 C235 1.434 . S
C235 C226 1.429 . S
C235 N232 1.350 . S
C235 C234 1.434 . S
C236 C237 1.369 . S
C236 C238 1.419 . S
C236 H240 0.930 . S
C237 C236 1.369 . S
C237 C246 1.429 . S
C238 C236 1.419 . S
C238 C239 1.363 . S
C238 H241 0.929 . S
C239 C238 1.363 . S
C239 C245 1.428 . S
H240 C236 0.930 . S
H241 C238 0.929 . S
S242 N243 1.613 . S
S242 N244 1.610 . S
N243 S242 1.613 . S
N243 C246 1.350 . S
N244 S242 1.610 . S
N244 C245 1.351 . S
C245 C239 1.428 . S
C245 N244 1.351 . S
C245 C246 1.434 . S
C246 C237 1.429 . S
C246 N243 1.350 . S
C246 C245 1.434 . S
C247 C248 1.369 . S
C247 C249 1.419 . S
C247 H251 0.930 . S
C248 C247 1.369 . S
C248 C257 1.429 . S
C249 C247 1.419 . S
C249 C250 1.363 . S
C249 H252 0.929 . S
C250 C249 1.363 . S
C250 C256 1.428 . S
H251 C247 0.930 . S
H252 C249 0.929 . S
S253 N254 1.613 . S
S253 N255 1.610 . S
N254 S253 1.613 . S
N254 C257 1.350 . S
N255 S253 1.610 . S
N255 C256 1.351 . S
C256 C250 1.428 . S
C256 N255 1.351 . S
C256 C257 1.434 . S
C257 C248 1.429 . S
C257 N254 1.350 . S
C257 C256 1.434 . S
C258 C259 1.369 . S
C258 C260 1.419 . S
C258 H262 0.930 . S
C259 C258 1.369 . S
C259 C268 1.429 . S
C260 C258 1.419 . S
C260 C261 1.363 . S
C260 H263 0.929 . S
C261 C260 1.363 . S
C261 C267 1.428 . S
H262 C258 0.930 . S
H263 C260 0.929 . S
S264 N265 1.613 . S
S264 N266 1.610 . S
N265 S264 1.613 . S
N265 C268 1.350 . S
N266 S264 1.610 . S
N266 C267 1.351 . S
C267 C261 1.428 . S
C267 N266 1.351 . S
C267 C268 1.434 . S
C268 C259 1.429 . S
C268 N265 1.350 . S
C268 C267 1.434 . S
C269 C270 1.369 . S
C269 C271 1.419 . S
C269 H273 0.930 . S
C270 C269 1.369 . S
C270 C279 1.429 . S
C271 C269 1.419 . S
C271 C272 1.363 . S
C271 H274 0.929 . S
C272 C271 1.363 . S
C272 C278 1.428 . S
H273 C269 0.930 . S
H274 C271 0.929 . S
S275 N276 1.613 . S
S275 N277 1.610 . S
N276 S275 1.613 . S
N276 C279 1.350 . S
N277 S275 1.610 . S
N277 C278 1.351 . S
C278 C272 1.428 . S
C278 N277 1.351 . S
C278 C279 1.434 . S
C279 C270 1.429 . S
C279 N276 1.350 . S
C279 C278 1.434 . S
C280 C281 1.369 . S
C280 C282 1.419 . S
C280 H284 0.930 . S
C281 C280 1.369 . S
C281 C290 1.429 . S
C282 C280 1.419 . S
C282 C283 1.363 . S
C282 H285 0.929 1_565 S
C283 C282 1.363 . S
C283 C289 1.428 . S
H284 C280 0.930 . S
H285 C282 0.929 1_545 S
S286 N287 1.613 . S
S286 N288 1.610 . S
N287 S286 1.613 . S
N287 C290 1.350 . S
N288 S286 1.610 . S
N288 C289 1.351 . S
C289 C283 1.428 . S
C289 N288 1.351 . S
C289 C290 1.434 . S
C290 C281 1.429 . S
C290 N287 1.350 . S
C290 C289 1.434 . S
C291 C292 1.369 . S
C291 C293 1.419 . S
C291 H295 0.930 . S
C292 C291 1.369 . S
C292 C301 1.429 . S
C293 C291 1.419 . S
C293 C294 1.363 . S
C293 H296 0.929 . S
C294 C293 1.363 . S
C294 C300 1.428 . S
H295 C291 0.930 . S
H296 C293 0.929 . S
S297 N298 1.613 . S
S297 N299 1.610 . S
N298 S297 1.613 . S
N298 C301 1.350 . S
N299 S297 1.610 . S
N299 C300 1.351 . S
C300 C294 1.428 . S
C300 N299 1.351 . S
C300 C301 1.434 . S
C301 C292 1.429 . S
C301 N298 1.350 . S
C301 C300 1.434 . S
C302 C303 1.369 . S
C302 C304 1.419 . S
C302 H306 0.930 . S
C303 C302 1.369 . S
C303 C312 1.429 . S
C304 C302 1.419 . S
C304 C305 1.363 . S
C304 H307 0.929 . S
C305 C304 1.363 . S
C305 C311 1.428 . S
H306 C302 0.930 . S
H307 C304 0.929 . S
S308 N309 1.613 . S
S308 N310 1.610 . S
N309 S308 1.613 . S
N309 C312 1.350 . S
N310 S308 1.610 . S
N310 C311 1.351 . S
C311 C305 1.428 . S
C311 N310 1.351 . S
C311 C312 1.434 . S
C312 C303 1.429 . S
C312 N309 1.350 . S
C312 C311 1.434 . S
C313 C314 1.369 . S
C313 C315 1.419 . S
C313 H317 0.930 . S
C314 C313 1.369 . S
C314 C323 1.429 . S
C315 C313 1.419 . S
C315 C316 1.363 . S
C315 H318 0.929 . S
C316 C315 1.363 . S
C316 C322 1.428 . S
H317 C313 0.930 . S
H318 C315 0.929 . S
S319 N320 1.613 . S
S319 N321 1.610 . S
N320 S319 1.613 . S
N320 C323 1.350 . S
N321 S319 1.610 . S
N321 C322 1.351 . S
C322 C316 1.428 . S
C322 N321 1.351 . S
C322 C323 1.434 . S
C323 C314 1.429 . S
C323 N320 1.350 . S
C323 C322 1.434 . S
C324 C325 1.369 . S
C324 C326 1.419 1_554 S
C324 H328 0.930 . S
C325 C324 1.369 . S
C325 C334 1.429 1_455 S
C326 C324 1.419 1_556 S
C326 C327 1.363 1_455 S
C326 H329 0.929 . S
C327 C326 1.363 1_655 S
C327 C333 1.428 1_556 S
H328 C324 0.930 . S
H329 C326 0.929 . S
S330 N331 1.613 . S
S330 N332 1.610 1_554 S
N331 S330 1.613 . S
N331 C334 1.350 . S
N332 S330 1.610 1_556 S
N332 C333 1.351 1_556 S
C333 C327 1.428 1_554 S
C333 N332 1.351 1_554 S
C333 C334 1.434 . S
C334 C325 1.429 1_655 S
C334 N331 1.350 . S
C334 C333 1.434 . S
C335 C336 1.369 . S
C335 C337 1.419 . S
C335 H339 0.930 . S
C336 C335 1.369 . S
C336 C345 1.429 1_545 S
C337 C335 1.419 . S
C337 C338 1.363 . S
C337 H340 0.929 . S
C338 C337 1.363 . S
C338 C344 1.428 . S
H339 C335 0.930 . S
H340 C337 0.929 . S
S341 N342 1.613 . S
S341 N343 1.610 . S
N342 S341 1.613 . S
N342 C345 1.350 . S
N343 S341 1.610 . S
N343 C344 1.351 1_565 S
C344 C338 1.428 . S
C344 N343 1.351 1_545 S
C344 C345 1.434 1_545 S
C345 C336 1.429 1_565 S
C345 N342 1.350 . S
C345 C344 1.434 1_565 S
C346 C347 1.369 . S
C346 C348 1.419 . S
C346 H350 0.930 . S
C347 C346 1.369 . S
C347 C356 1.429 . S
C348 C346 1.419 . S
C348 C349 1.363 . S
C348 H351 0.929 . S
C349 C348 1.363 . S
C349 C355 1.428 . S
H350 C346 0.930 . S
H351 C348 0.929 . S
S352 N353 1.613 . S
S352 N354 1.610 . S
N353 S352 1.613 . S
N353 C356 1.350 . S
N354 S352 1.610 . S
N354 C355 1.351 . S
C355 C349 1.428 . S
C355 N354 1.351 . S
C355 C356 1.434 . S
C356 C347 1.429 . S
C356 N353 1.350 . S
C356 C355 1.434 . S
C357 C358 1.369 . S
C357 C359 1.419 . S
C357 H361 0.930 . S
C358 C357 1.369 . S
C358 C367 1.429 . S
C359 C357 1.419 . S
C359 C360 1.363 . S
C359 H362 0.929 . S
C360 C359 1.363 . S
C360 C366 1.428 . S
H361 C357 0.930 . S
H362 C359 0.929 . S
S363 N364 1.613 . S
S363 N365 1.610 . S
N364 S363 1.613 . S
N364 C367 1.350 . S
N365 S363 1.610 . S
N365 C366 1.351 . S
C366 C360 1.428 . S
C366 N365 1.351 . S
C366 C367 1.434 . S
C367 C358 1.429 . S
C367 N364 1.350 . S
C367 C366 1.434 . S
C368 C369 1.369 . S
C368 C370 1.407 1_556 S
C368 H372 0.930 . S
C369 C368 1.369 . S
C369 C378 1.429 . S
C370 C368 1.407 1_554 S
C370 C371 1.367 . S
C370 H373 0.937 . S
C371 C370 1.367 . S
C371 C377 1.428 1_554 S
H372 C368 0.930 . S
H373 C370 0.937 . S
S374 N375 1.613 . S
S374 N376 1.610 1_556 S
N375 S374 1.613 . S
N375 C378 1.350 . S
N376 S374 1.610 1_554 S
N376 C377 1.351 1_554 S
C377 C371 1.428 1_556 S
C377 N376 1.351 1_556 S
C377 C378 1.434 . S
C378 C369 1.429 . S
C378 N375 1.350 . S
C378 C377 1.434 . S
C379 C380 1.369 . S
C379 C381 1.419 . S
C379 H383 0.930 . S
C380 C379 1.369 . S
C380 C389 1.429 . S
C381 C379 1.419 . S
C381 C382 1.363 . S
C381 H384 0.929 . S
C382 C381 1.363 . S
C382 C388 1.428 . S
H383 C379 0.930 . S
H384 C381 0.929 . S
S385 N386 1.613 . S
S385 N387 1.610 . S
N386 S385 1.613 . S
N386 C389 1.350 . S
N387 S385 1.610 . S
N387 C388 1.351 . S
C388 C382 1.428 . S
C388 N387 1.351 . S
C388 C389 1.434 . S
C389 C380 1.429 . S
C389 N386 1.350 . S
C389 C388 1.434 . S
C193 C10 3.248 . S
C195 C186 3.261 . S
C204 C59 3.164 . S
C206 C160 3.075 . S
C215 C90 3.097 . S
C217 C172 3.019 . S
C226 C19 2.947 . S
C228 C184 2.824 . S
C239 C162 2.974 . S
C237 C50 3.005 . S
C250 C174 3.013 . S
C248 C99 3.052 . S
C259 C46 0.855 . S
C261 C136 0.864 . S
C270 C95 0.819 . S
C272 C150 0.834 . S
C281 C6 0.522 . S
C283 C126 0.459 . S
C294 C138 0.592 . S
C292 C55 0.676 . S
C305 C148 0.429 . S
C303 C86 0.548 . S
C314 C15 0.736 . S
C316 C124 0.707 . S
C327 C153 1.147 . S
C325 C9 1.133 . S
C336 C49 1.073 . S
C338 C129 1.113 . S
C347 C89 1.170 . S
C349 C141 1.166 . S
C360 C177 1.771 . S
C358 C58 1.722 . S
C371 C189 1.858 . S
C369 C98 1.776 . S
C380 C18 1.709 . S
C382 C165 1.818 . S
