# Generated by pormake.
# Topology eea, (3,6)-cn, num edge types: 1
# Building blocks:
#     Node 0, Type 0, BuildingBlock: BELTOD_clean_linker_0, # of connection points: 3
#     Node 1, Type 0, BuildingBlock: BELTOD_clean_linker_0, # of connection points: 3
#     Node 2, Type 0, BuildingBlock: BELTOD_clean_linker_0, # of connection points: 3
#     Node 3, Type 0, BuildingBlock: BELTOD_clean_linker_0, # of connection points: 3
#     Node 4, Type 0, BuildingBlock: BELTOD_clean_linker_0, # of connection points: 3
#     Node 5, Type 0, BuildingBlock: BELTOD_clean_linker_0, # of connection points: 3
#     Node 6, Type 0, BuildingBlock: BELTOD_clean_linker_0, # of connection points: 3
#     Node 7, Type 0, BuildingBlock: BELTOD_clean_linker_0, # of connection points: 3
#     Node 8, Type 0, BuildingBlock: BELTOD_clean_linker_0, # of connection points: 3
#     Node 9, Type 0, BuildingBlock: BELTOD_clean_linker_0, # of connection points: 3
#     Node 10, Type 0, BuildingBlock: BELTOD_clean_linker_0, # of connection points: 3
#     Node 11, Type 0, BuildingBlock: BELTOD_clean_linker_0, # of connection points: 3
#     Node 12, Type 0, BuildingBlock: BELTOD_clean_linker_0, # of connection points: 3
#     Node 13, Type 0, BuildingBlock: BELTOD_clean_linker_0, # of connection points: 3
#     Node 14, Type 0, BuildingBlock: BELTOD_clean_linker_0, # of connection points: 3
#     Node 15, Type 0, BuildingBlock: BELTOD_clean_linker_0, # of connection points: 3
#     Node 16, Type 0, BuildingBlock: BELTOD_clean_linker_0, # of connection points: 3
#     Node 17, Type 0, BuildingBlock: BELTOD_clean_linker_0, # of connection points: 3
#     Node 18, Type 1, BuildingBlock: KUMJIN_clean_sbu_0, # of connection points: 6
#     Node 19, Type 1, BuildingBlock: KUMJIN_clean_sbu_0, # of connection points: 6
#     Node 20, Type 1, BuildingBlock: KUMJIN_clean_sbu_0, # of connection points: 6
#     Node 21, Type 1, BuildingBlock: KUMJIN_clean_sbu_0, # of connection points: 6
#     Node 22, Type 1, BuildingBlock: KUMJIN_clean_sbu_0, # of connection points: 6
#     Node 23, Type 1, BuildingBlock: KUMJIN_clean_sbu_0, # of connection points: 6
#     Node 24, Type 1, BuildingBlock: KUMJIN_clean_sbu_0, # of connection points: 6
#     Node 25, Type 1, BuildingBlock: KUMJIN_clean_sbu_0, # of connection points: 6
#     Node 26, Type 1, BuildingBlock: KUMJIN_clean_sbu_0, # of connection points: 6
#     Edge 27, Type (0, 1), BuildingBlock: OJICUG_clean_linker_0, # of connection points: 2
#     Edge 28, Type (0, 1), BuildingBlock: OJICUG_clean_linker_0, # of connection points: 2
#     Edge 29, Type (0, 1), BuildingBlock: OJICUG_clean_linker_0, # of connection points: 2
#     Edge 30, Type (0, 1), BuildingBlock: OJICUG_clean_linker_0, # of connection points: 2
#     Edge 31, Type (0, 1), BuildingBlock: OJICUG_clean_linker_0, # of connection points: 2
#     Edge 32, Type (0, 1), BuildingBlock: OJICUG_clean_linker_0, # of connection points: 2
#     Edge 33, Type (0, 1), BuildingBlock: OJICUG_clean_linker_0, # of connection points: 2
#     Edge 34, Type (0, 1), BuildingBlock: OJICUG_clean_linker_0, # of connection points: 2
#     Edge 35, Type (0, 1), BuildingBlock: OJICUG_clean_linker_0, # of connection points: 2
#     Edge 36, Type (0, 1), BuildingBlock: OJICUG_clean_linker_0, # of connection points: 2
#     Edge 37, Type (0, 1), BuildingBlock: OJICUG_clean_linker_0, # of connection points: 2
#     Edge 38, Type (0, 1), BuildingBlock: OJICUG_clean_linker_0, # of connection points: 2
#     Edge 39, Type (0, 1), BuildingBlock: OJICUG_clean_linker_0, # of connection points: 2
#     Edge 40, Type (0, 1), BuildingBlock: OJICUG_clean_linker_0, # of connection points: 2
#     Edge 41, Type (0, 1), BuildingBlock: OJICUG_clean_linker_0, # of connection points: 2
#     Edge 42, Type (0, 1), BuildingBlock: OJICUG_clean_linker_0, # of connection points: 2
#     Edge 43, Type (0, 1), BuildingBlock: OJICUG_clean_linker_0, # of connection points: 2
#     Edge 44, Type (0, 1), BuildingBlock: OJICUG_clean_linker_0, # of connection points: 2
#     Edge 45, Type (0, 1), BuildingBlock: OJICUG_clean_linker_0, # of connection points: 2
#     Edge 46, Type (0, 1), BuildingBlock: OJICUG_clean_linker_0, # of connection points: 2
#     Edge 47, Type (0, 1), BuildingBlock: OJICUG_clean_linker_0, # of connection points: 2
#     Edge 48, Type (0, 1), BuildingBlock: OJICUG_clean_linker_0, # of connection points: 2
#     Edge 49, Type (0, 1), BuildingBlock: OJICUG_clean_linker_0, # of connection points: 2
#     Edge 50, Type (0, 1), BuildingBlock: OJICUG_clean_linker_0, # of connection points: 2
#     Edge 51, Type (0, 1), BuildingBlock: OJICUG_clean_linker_0, # of connection points: 2
#     Edge 52, Type (0, 1), BuildingBlock: OJICUG_clean_linker_0, # of connection points: 2
#     Edge 53, Type (0, 1), BuildingBlock: OJICUG_clean_linker_0, # of connection points: 2
#     Edge 54, Type (0, 1), BuildingBlock: OJICUG_clean_linker_0, # of connection points: 2
#     Edge 55, Type (0, 1), BuildingBlock: OJICUG_clean_linker_0, # of connection points: 2
#     Edge 56, Type (0, 1), BuildingBlock: OJICUG_clean_linker_0, # of connection points: 2
#     Edge 57, Type (0, 1), BuildingBlock: OJICUG_clean_linker_0, # of connection points: 2
#     Edge 58, Type (0, 1), BuildingBlock: OJICUG_clean_linker_0, # of connection points: 2
#     Edge 59, Type (0, 1), BuildingBlock: OJICUG_clean_linker_0, # of connection points: 2
#     Edge 60, Type (0, 1), BuildingBlock: OJICUG_clean_linker_0, # of connection points: 2
#     Edge 61, Type (0, 1), BuildingBlock: OJICUG_clean_linker_0, # of connection points: 2
#     Edge 62, Type (0, 1), BuildingBlock: OJICUG_clean_linker_0, # of connection points: 2
#     Edge 63, Type (0, 1), BuildingBlock: OJICUG_clean_linker_0, # of connection points: 2
#     Edge 64, Type (0, 1), BuildingBlock: OJICUG_clean_linker_0, # of connection points: 2
#     Edge 65, Type (0, 1), BuildingBlock: OJICUG_clean_linker_0, # of connection points: 2
#     Edge 66, Type (0, 1), BuildingBlock: OJICUG_clean_linker_0, # of connection points: 2
#     Edge 67, Type (0, 1), BuildingBlock: OJICUG_clean_linker_0, # of connection points: 2
#     Edge 68, Type (0, 1), BuildingBlock: OJICUG_clean_linker_0, # of connection points: 2
#     Edge 69, Type (0, 1), BuildingBlock: OJICUG_clean_linker_0, # of connection points: 2
#     Edge 70, Type (0, 1), BuildingBlock: OJICUG_clean_linker_0, # of connection points: 2
#     Edge 71, Type (0, 1), BuildingBlock: OJICUG_clean_linker_0, # of connection points: 2
#     Edge 72, Type (0, 1), BuildingBlock: OJICUG_clean_linker_0, # of connection points: 2
#     Edge 73, Type (0, 1), BuildingBlock: OJICUG_clean_linker_0, # of connection points: 2
#     Edge 74, Type (0, 1), BuildingBlock: OJICUG_clean_linker_0, # of connection points: 2
#     Edge 75, Type (0, 1), BuildingBlock: OJICUG_clean_linker_0, # of connection points: 2
#     Edge 76, Type (0, 1), BuildingBlock: OJICUG_clean_linker_0, # of connection points: 2
#     Edge 77, Type (0, 1), BuildingBlock: OJICUG_clean_linker_0, # of connection points: 2
#     Edge 78, Type (0, 1), BuildingBlock: OJICUG_clean_linker_0, # of connection points: 2
#     Edge 79, Type (0, 1), BuildingBlock: OJICUG_clean_linker_0, # of connection points: 2
#     Edge 80, Type (0, 1), BuildingBlock: OJICUG_clean_linker_0, # of connection points: 2
# Relax obj value: 0.007
# Max RMSD: 0.090
# Mean RMSD: 0.080
data_MOF--net-eea--node1-KUMJIN_clean_sbu_0--node2-BELTOD_clean_linker_0--edge1-OJICUG_clean_linker_0
_symmetry_space_group_name_H-M    P1
_symmetry_Int_Tables_number       1
_symmetry_cell_setting            triclinic
loop_
_symmetry_equiv_pos_as_xyz
'x, y, z'
_cell_length_a     44.151872
_cell_length_b     45.152581
_cell_length_c     65.612887
_cell_angle_alpha  90.455109
_cell_angle_beta   89.938176
_cell_angle_gamma 120.00026
loop_
_atom_site_label
_atom_site_type_symbol
_atom_site_fract_x
_atom_site_fract_y
_atom_site_fract_z
_atom_type_partial_charge
P0 P 0.29431 0.14658 0.41745 0.0
H1 H 0.27511 0.11463 0.37762 0.0
H2 H 0.24446 0.05495 0.36605 0.0
H3 H 0.2256 0.02172 0.42861 0.0
H4 H 0.25513 0.08144 0.44013 0.0
H5 H 0.32377 0.2164 0.40314 0.0
H6 H 0.29775 0.24865 0.38939 0.0
H7 H 0.19461 0.16121 0.39775 0.0
H8 H 0.22104 0.12885 0.41138 0.0
H9 H 0.32117 0.11636 0.44629 0.0
H10 H 0.2901 0.19302 0.44774 0.0
O11 O 0.33289 0.16161 0.40592 0.0
H12 H 0.34112 0.13011 0.4817 0.0
H13 H 0.31103 0.20751 0.48292 0.0
C14 C 0.26818 0.10247 0.40971 0.0
C15 C 0.26396 0.09449 0.38885 0.0
C16 C 0.24632 0.06046 0.38225 0.0
C17 C 0.23297 0.03384 0.39646 0.0
C18 C 0.23604 0.04186 0.41738 0.0
C19 C 0.25314 0.07599 0.42396 0.0
C20 C 0.27436 0.17015 0.408 0.0
C21 C 0.29557 0.20412 0.40197 0.0
C22 C 0.28062 0.22257 0.3942 0.0
C23 C 0.24409 0.20745 0.39243 0.0
C24 C 0.22283 0.17339 0.39866 0.0
C25 C 0.23789 0.15496 0.40654 0.0
C26 C 0.30333 0.15302 0.44446 0.0
C27 C 0.31778 0.13552 0.45437 0.0
C28 C 0.32926 0.14343 0.47459 0.0
C29 C 0.32747 0.16977 0.48506 0.0
C30 C 0.31263 0.18704 0.4752 0.0
C31 C 0.30054 0.17865 0.45509 0.0
P32 P 0.92033 0.10169 0.43673 0.0
H33 H 0.91319 0.03982 0.4182 0.0
H34 H 0.86686 0.99323 0.39877 0.0
H35 H 0.80656 0.04473 0.40064 0.0
H36 H 0.85288 0.09097 0.42087 0.0
H37 H 0.9964 0.14081 0.43636 0.0
H38 H 0.03872 0.18761 0.41553 0.0
H39 H 0.95459 0.18872 0.38269 0.0
H40 H 0.91185 0.14105 0.40361 0.0
H41 H 0.9084 0.08319 0.47957 0.0
H42 H 0.8912 0.14799 0.43895 0.0
O43 O 0.94245 0.08471 0.4474 0.0
H44 H 0.88325 0.09914 0.50749 0.0
H45 H 0.86398 0.16279 0.46672 0.0
C46 C 0.88632 0.06865 0.42129 0.0
C47 C 0.89001 0.04115 0.41451 0.0
C48 C 0.86351 0.01457 0.40319 0.0
C49 C 0.83286 0.01514 0.39806 0.0
C50 C 0.82954 0.04318 0.40455 0.0
C51 C 0.85612 0.06977 0.41604 0.0
C52 C 0.9509 0.13713 0.42143 0.0
C53 C 0.98686 0.15081 0.42462 0.0
C54 C 0.01112 0.17752 0.4126 0.0
C55 C 0.99999 0.19152 0.39727 0.0
C56 C 0.96389 0.17832 0.39435 0.0
C57 C 0.9395 0.15115 0.40629 0.0
C58 C 0.90208 0.11468 0.45718 0.0
C59 C 0.89912 0.10087 0.47661 0.0
C60 C 0.88423 0.10972 0.49259 0.0
C61 C 0.8712 0.13211 0.48945 0.0
C62 C 0.87409 0.14584 0.46984 0.0
C63 C 0.88949 0.13726 0.45388 0.0
P64 P 0.86946 0.73621 0.41225 0.0
H65 H 0.833 0.7216 0.37332 0.0
H66 H 0.7945 0.73987 0.35816 0.0
H67 H 0.81756 0.81125 0.40787 0.0
H68 H 0.85596 0.79245 0.42322 0.0
H69 H 0.91806 0.7118 0.41845 0.0
H70 H 0.97609 0.72893 0.4057 0.0
H71 H 0.97638 0.81124 0.37231 0.0
H72 H 0.91835 0.79471 0.38623 0.0
H73 H 0.80971 0.71703 0.43897 0.0
H74 H 0.91967 0.75246 0.44648 0.0
O75 O 0.84807 0.69499 0.40545 0.0
H76 H 0.80031 0.70276 0.47523 0.0
H77 H 0.91015 0.73722 0.48245 0.0
C78 C 0.8468 0.75513 0.39963 0.0
C79 C 0.83015 0.74146 0.3809 0.0
C80 C 0.80809 0.75188 0.37224 0.0
C81 C 0.80263 0.77666 0.38196 0.0
C82 C 0.82127 0.7921 0.40003 0.0
C83 C 0.84313 0.78133 0.40884 0.0
C84 C 0.91391 0.75212 0.40354 0.0
C85 C 0.93075 0.73388 0.40863 0.0
C86 C 0.96391 0.74347 0.40101 0.0
C87 C 0.981 0.7712 0.38759 0.0
C88 C 0.96423 0.78988 0.38267 0.0
C89 C 0.93096 0.78041 0.39059 0.0
C90 C 0.86536 0.73575 0.43981 0.0
C91 C 0.83202 0.72265 0.44848 0.0
C92 C 0.82664 0.71439 0.46924 0.0
C93 C 0.85442 0.71848 0.48168 0.0
C94 C 0.88814 0.73337 0.47321 0.0
C95 C 0.89358 0.74212 0.45254 0.0
P96 P 0.13253 0.26692 0.61412 0.0
H97 H 0.10787 0.28497 0.65066 0.0
H98 H 0.04985 0.26635 0.66454 0.0
H99 H 0.00358 0.19153 0.61609 0.0
H100 H 0.06225 0.21054 0.60209 0.0
H101 H 0.18282 0.28256 0.64709 0.0
H102 H 0.21917 0.25836 0.65675 0.0
H103 H 0.16709 0.17841 0.61154 0.0
H104 H 0.13013 0.20263 0.60215 0.0
H105 H 0.0904 0.27795 0.58357 0.0
H106 H 0.18152 0.26627 0.58429 0.0
O107 O 0.15576 0.30748 0.62209 0.0
H108 H 0.10168 0.29527 0.5478 0.0
H109 H 0.19227 0.28245 0.54866 0.0
C110 C 0.08935 0.24981 0.625 0.0
C111 C 0.08534 0.2645 0.64297 0.0
C112 C 0.05211 0.25383 0.65094 0.0
C113 C 0.02207 0.2278 0.64128 0.0
C114 C 0.02624 0.21165 0.62389 0.0
C115 C 0.05968 0.22261 0.6158 0.0
C116 C 0.15434 0.24488 0.62354 0.0
C117 C 0.17887 0.25961 0.63936 0.0
C118 C 0.19985 0.24584 0.64481 0.0
C119 C 0.19667 0.21692 0.63459 0.0
C120 C 0.17032 0.20077 0.61968 0.0
C121 C 0.14922 0.21461 0.61426 0.0
C122 C 0.13443 0.26974 0.58658 0.0
C123 C 0.11198 0.27773 0.57586 0.0
C124 C 0.11854 0.28775 0.55537 0.0
C125 C 0.14806 0.29051 0.54533 0.0
C126 C 0.16954 0.28101 0.55592 0.0
C127 C 0.16302 0.27115 0.57633 0.0
P128 P 0.81811 0.90577 0.57944 0.0
H129 H 0.87301 0.97396 0.59192 0.0
H130 H 0.8723 0.01945 0.61184 0.0
H131 H 0.76034 0.95695 0.61876 0.0
H132 H 0.76121 0.91154 0.59869 0.0
H133 H 0.79984 0.83548 0.57095 0.0
H134 H 0.79683 0.79016 0.59241 0.0
H135 H 0.819 0.85525 0.64548 0.0
H136 H 0.82283 0.90071 0.62385 0.0
H137 H 0.82365 0.91892 0.53578 0.0
H138 H 0.74198 0.85998 0.57898 0.0
O139 O 0.85761 0.92078 0.56907 0.0
H140 H 0.78045 0.89855 0.50824 0.0
H141 H 0.69837 0.84048 0.55142 0.0
C142 C 0.81708 0.93959 0.59351 0.0
C143 C 0.84825 0.97009 0.59757 0.0
C144 C 0.84785 0.99598 0.60911 0.0
C145 C 0.81624 0.99175 0.61686 0.0
C146 C 0.78501 0.96111 0.61276 0.0
C147 C 0.78548 0.93514 0.60128 0.0
C148 C 0.81095 0.8712 0.59583 0.0
C149 C 0.80341 0.83973 0.58726 0.0
C150 C 0.80159 0.81381 0.59956 0.0
C151 C 0.80759 0.81906 0.62068 0.0
C152 C 0.81453 0.8505 0.62926 0.0
C153 C 0.81641 0.87643 0.61691 0.0
C154 C 0.78601 0.89079 0.55937 0.0
C155 C 0.79644 0.90163 0.53935 0.0
C156 C 0.77179 0.89002 0.52364 0.0
C157 C 0.73622 0.86793 0.52779 0.0
C158 C 0.72567 0.85762 0.54792 0.0
C159 C 0.7505 0.86876 0.56361 0.0
P160 P 0.13724 0.84705 0.61731 0.0
H161 H 0.19342 0.88134 0.64731 0.0
H162 H 0.22766 0.94071 0.65874 0.0
H163 H 0.16476 0.96721 0.62106 0.0
H164 H 0.13061 0.90743 0.60937 0.0
H165 H 0.08821 0.77428 0.61701 0.0
H166 H 0.03026 0.73903 0.63101 0.0
H167 H 0.03307 0.82934 0.65603 0.0
H168 H 0.09045 0.86478 0.64056 0.0
H169 H 0.19059 0.89334 0.58896 0.0
H170 H 0.08985 0.80133 0.58488 0.0
O171 O 0.15908 0.82772 0.62482 0.0
H172 H 0.19967 0.88897 0.5526 0.0
H173 H 0.0993 0.79647 0.54867 0.0
C174 C 0.15968 0.89008 0.62735 0.0
C175 C 0.18677 0.89977 0.64155 0.0
C176 C 0.20639 0.93373 0.64806 0.0
C177 C 0.19899 0.95854 0.64067 0.0
C178 C 0.17088 0.94853 0.62705 0.0
C179 C 0.15148 0.91451 0.62034 0.0
C180 C 0.09355 0.82221 0.62737 0.0
C181 C 0.07616 0.78661 0.62521 0.0
C182 C 0.04312 0.76637 0.63364 0.0
C183 C 0.02692 0.78113 0.64506 0.0
C184 C 0.04447 0.817 0.64723 0.0
C185 C 0.07746 0.83736 0.63839 0.0
C186 C 0.13937 0.84788 0.58979 0.0
C187 C 0.16995 0.87271 0.5802 0.0
C188 C 0.1752 0.87017 0.55938 0.0
C189 C 0.15027 0.84227 0.54782 0.0
C190 C 0.11908 0.81812 0.55725 0.0
C191 C 0.11365 0.82095 0.57803 0.0
P192 P 0.95495 0.47362 0.74266 0.0
H193 H 0.93982 0.43998 0.70307 0.0
H194 H 0.90643 0.37976 0.6925 0.0
H195 H 0.8756 0.35065 0.75489 0.0
H196 H 0.9077 0.41095 0.76531 0.0
H197 H 0.98356 0.54489 0.7318 0.0
H198 H 0.95681 0.57804 0.72068 0.0
H199 H 0.85422 0.48914 0.72759 0.0
H200 H 0.88132 0.45595 0.73862 0.0
H201 H 0.97742 0.43591 0.76826 0.0
H202 H 0.96007 0.52129 0.77533 0.0
O203 O 0.9921 0.48879 0.72954 0.0
H204 H 0.99608 0.44202 0.80364 0.0
H205 H 0.98104 0.52921 0.81044 0.0
C206 C 0.92731 0.42973 0.73505 0.0
C207 C 0.92554 0.42066 0.71443 0.0
C208 C 0.90633 0.38639 0.70839 0.0
C209 C 0.88888 0.36078 0.72296 0.0
C210 C 0.88922 0.37005 0.74347 0.0
C211 C 0.90781 0.40442 0.74942 0.0
C212 C 0.93445 0.49794 0.73576 0.0
C213 C 0.95532 0.53254 0.73095 0.0
C214 C 0.93996 0.55148 0.72469 0.0
C215 C 0.90338 0.53614 0.72319 0.0
C216 C 0.88247 0.50149 0.72833 0.0
C217 C 0.89792 0.48258 0.73473 0.0
C218 C 0.96646 0.47753 0.76928 0.0
C219 C 0.97739 0.45587 0.77751 0.0
C220 C 0.9886 0.45977 0.79773 0.0
C221 C 0.99032 0.48626 0.81003 0.0
C222 C 0.97948 0.50811 0.80164 0.0
C223 C 0.96763 0.50374 0.78145 0.0
P224 P 0.57076 0.43625 0.76321 0.0
H225 H 0.56405 0.42342 0.71902 0.0
H226 H 0.51729 0.37959 0.69803 0.0
H227 H 0.45212 0.34043 0.75147 0.0
H228 H 0.4986 0.38503 0.77219 0.0
H229 H 0.64632 0.46514 0.76092 0.0
H230 H 0.69222 0.51302 0.74241 0.0
H231 H 0.61531 0.53453 0.71655 0.0
H232 H 0.56927 0.4866 0.73569 0.0
H233 H 0.58895 0.44378 0.80643 0.0
H234 H 0.52173 0.46201 0.76727 0.0
O235 O 0.58757 0.41287 0.77193 0.0
H236 H 0.56712 0.46007 0.8361 0.0
H237 H 0.50013 0.47917 0.79696 0.0
C238 C 0.5345 0.40813 0.7471 0.0
C239 C 0.53933 0.4061 0.72612 0.0
C240 C 0.51267 0.38069 0.71416 0.0
C241 C 0.48087 0.35639 0.72303 0.0
C242 C 0.47592 0.35905 0.74402 0.0
C243 C 0.50256 0.38456 0.75592 0.0
C244 C 0.60433 0.47205 0.74947 0.0
C245 C 0.6392 0.47999 0.75121 0.0
C246 C 0.66547 0.5073 0.74045 0.0
C247 C 0.65746 0.52738 0.7277 0.0
C248 C 0.62242 0.51964 0.72623 0.0
C249 C 0.59608 0.49224 0.73711 0.0
C250 C 0.55647 0.4511 0.78471 0.0
C251 C 0.56962 0.45153 0.8042 0.0
C252 C 0.55728 0.46114 0.82117 0.0
C253 C 0.53169 0.47077 0.81897 0.0
C254 C 0.5194 0.47135 0.79925 0.0
C255 C 0.53183 0.46174 0.78226 0.0
P256 P 0.52659 0.06377 0.74294 0.0
H257 H 0.50304 0.06475 0.70168 0.0
H258 H 0.46717 0.0867 0.68716 0.0
H259 H 0.46809 0.13268 0.74534 0.0
H260 H 0.5047 0.11137 0.75955 0.0
H261 H 0.574 0.03794 0.7493 0.0
H262 H 0.63187 0.05406 0.73664 0.0
H263 H 0.63367 0.13675 0.70282 0.0
H264 H 0.57607 0.12141 0.71672 0.0
H265 H 0.4663 0.03821 0.76986 0.0
H266 H 0.57781 0.08235 0.7769 0.0
O267 O 0.50336 0.02348 0.73456 0.0
H268 H 0.45839 0.02426 0.80618 0.0
H269 H 0.56981 0.06721 0.81298 0.0
C270 C 0.50615 0.08598 0.73176 0.0
C271 C 0.49601 0.08007 0.71121 0.0
C272 C 0.47524 0.0924 0.70297 0.0
C273 C 0.46416 0.11099 0.71514 0.0
C274 C 0.47615 0.11857 0.73546 0.0
C275 C 0.497 0.10622 0.74368 0.0
C276 C 0.57079 0.07864 0.73422 0.0
C277 C 0.58703 0.05988 0.7394 0.0
C278 C 0.62007 0.06889 0.73184 0.0
C279 C 0.63754 0.09648 0.71835 0.0
C280 C 0.62127 0.11553 0.71326 0.0
C281 C 0.5882 0.10671 0.72115 0.0
C282 C 0.52258 0.06105 0.77049 0.0
C283 C 0.48916 0.0455 0.77926 0.0
C284 C 0.48464 0.03752 0.80004 0.0
C285 C 0.51345 0.04435 0.81239 0.0
C286 C 0.54709 0.06133 0.80378 0.0
C287 C 0.55164 0.06992 0.78308 0.0
P288 P 0.7991 0.60254 0.94828 0.0
H289 H 0.77448 0.61308 0.98736 0.0
H290 H 0.71603 0.59292 1.00128 0.0
H291 H 0.67061 0.52575 0.94932 0.0
H292 H 0.72946 0.54654 0.93517 0.0
H293 H 0.87075 0.62421 0.93801 0.0
H294 H 0.91241 0.60749 0.94926 0.0
H295 H 0.83388 0.53147 0.9886 0.0
H296 H 0.79146 0.5476 0.97639 0.0
H297 H 0.77366 0.63693 0.92175 0.0
H298 H 0.82028 0.57342 0.91405 0.0
O299 O 0.81888 0.64314 0.95632 0.0
H300 H 0.78227 0.65104 0.88546 0.0
H301 H 0.82981 0.5882 0.87793 0.0
C302 C 0.75632 0.5818 0.96004 0.0
C303 C 0.75204 0.59368 0.97904 0.0
C304 C 0.71862 0.58218 0.987 0.0
C305 C 0.68875 0.55806 0.97629 0.0
C306 C 0.69318 0.54432 0.95792 0.0
C307 C 0.72676 0.55623 0.94981 0.0
C308 C 0.82783 0.58686 0.95608 0.0
C309 C 0.86224 0.60356 0.94883 0.0
C310 C 0.88626 0.59423 0.95553 0.0
C311 C 0.87679 0.56837 0.97009 0.0
C312 C 0.84204 0.5513 0.97726 0.0
C313 C 0.81776 0.56054 0.97033 0.0
C314 C 0.79699 0.60474 0.92079 0.0
C315 C 0.78507 0.62543 0.91218 0.0
C316 C 0.79 0.63348 0.89141 0.0
C317 C 0.80727 0.62119 0.87889 0.0
C318 C 0.81696 0.59853 0.88727 0.0
C319 C 0.81152 0.59008 0.90797 0.0
P320 P 0.48974 0.24153 0.91148 0.0
H321 H 0.54384 0.30835 0.92652 0.0
H322 H 0.54162 0.35259 0.94696 0.0
H323 H 0.42898 0.29074 0.94967 0.0
H324 H 0.43142 0.24667 0.92895 0.0
H325 H 0.4736 0.17194 0.90229 0.0
H326 H 0.46978 0.12598 0.92354 0.0
H327 H 0.48653 0.1884 0.97728 0.0
H328 H 0.49113 0.23441 0.95593 0.0
H329 H 0.49614 0.2626 0.86913 0.0
H330 H 0.41476 0.19151 0.90883 0.0
O331 O 0.52969 0.25726 0.90163 0.0
H332 H 0.45428 0.24546 0.84115 0.0
H333 H 0.37217 0.17505 0.8811 0.0
C334 C 0.48775 0.27452 0.92592 0.0
C335 C 0.51864 0.30439 0.93136 0.0
C336 C 0.51735 0.32954 0.94321 0.0
C337 C 0.48511 0.32515 0.94995 0.0
C338 C 0.45417 0.29506 0.94449 0.0
C339 C 0.45552 0.26986 0.93266 0.0
C340 C 0.48208 0.20635 0.92752 0.0
C341 C 0.47583 0.17545 0.91868 0.0
C342 C 0.47354 0.14917 0.93087 0.0
C343 C 0.4778 0.1535 0.95213 0.0
C344 C 0.48343 0.18436 0.96095 0.0
C345 C 0.48576 0.21061 0.94873 0.0
C346 C 0.45863 0.2279 0.89091 0.0
C347 C 0.4692 0.24323 0.8718 0.0
C348 C 0.44509 0.23365 0.85587 0.0
C349 C 0.40975 0.20888 0.85884 0.0
C350 C 0.39924 0.19379 0.87816 0.0
C351 C 0.4235 0.20327 0.89406 0.0
P352 P 0.80423 0.19148 0.9475 0.0
H353 H 0.83152 0.22586 0.98626 0.0
H354 H 0.86158 0.28626 0.99663 0.0
H355 H 0.84553 0.3141 0.93655 0.0
H356 H 0.81381 0.25346 0.92646 0.0
H357 H 0.78015 0.14629 0.98262 0.0
H358 H 0.72267 0.11025 0.99756 0.0
H359 H 0.67665 0.14539 0.95261 0.0
H360 H 0.73481 0.18202 0.93778 0.0
H361 H 0.85614 0.2318 0.91679 0.0
H362 H 0.75703 0.13789 0.9185 0.0
O363 O 0.83062 0.17857 0.95715 0.0
H364 H 0.86227 0.222 0.8808 0.0
H365 H 0.76344 0.12756 0.88244 0.0
C366 C 0.82156 0.23533 0.95539 0.0
C367 C 0.83396 0.24487 0.9754 0.0
C368 C 0.85099 0.27925 0.98133 0.0
C369 C 0.85604 0.30453 0.96727 0.0
C370 C 0.84207 0.29488 0.94754 0.0
C371 C 0.82426 0.26034 0.94176 0.0
C372 C 0.76157 0.16604 0.95869 0.0
C373 C 0.75778 0.1463 0.97591 0.0
C374 C 0.72487 0.12575 0.98451 0.0
C375 C 0.69504 0.12466 0.97615 0.0
C376 C 0.69915 0.14578 0.95946 0.0
C377 C 0.73225 0.16641 0.95083 0.0
C378 C 0.80538 0.1864 0.9202 0.0
C379 C 0.83509 0.20963 0.90927 0.0
C380 C 0.83869 0.20391 0.88868 0.0
C381 C 0.81317 0.1742 0.87871 0.0
C382 C 0.78344 0.1508 0.88969 0.0
C383 C 0.77961 0.15685 0.91027 0.0
P384 P 0.62651 0.80808 0.07273 0.0
H385 H 0.61029 0.7732 0.03354 0.0
H386 H 0.57598 0.71275 0.02359 0.0
H387 H 0.54626 0.68569 0.08633 0.0
H388 H 0.57927 0.74624 0.09613 0.0
H389 H 0.65583 0.87824 0.05915 0.0
H390 H 0.62948 0.91168 0.04788 0.0
H391 H 0.52659 0.82534 0.05879 0.0
H392 H 0.55328 0.79184 0.06997 0.0
H393 H 0.64843 0.77148 0.09982 0.0
H394 H 0.63162 0.85759 0.10409 0.0
O395 O 0.66376 0.82227 0.05982 0.0
H396 H 0.66706 0.77989 0.13553 0.0
H397 H 0.65131 0.86669 0.13966 0.0
C398 C 0.59839 0.764 0.06565 0.0
C399 C 0.59608 0.75429 0.04512 0.0
C400 C 0.57633 0.71989 0.03943 0.0
C401 C 0.55889 0.69477 0.05427 0.0
C402 C 0.55985 0.7047 0.0747 0.0
C403 C 0.57898 0.73921 0.0803 0.0
C404 C 0.6065 0.83249 0.06509 0.0
C405 C 0.62761 0.86648 0.05908 0.0
C406 C 0.6125 0.8856 0.05274 0.0
C407 C 0.57593 0.87108 0.05239 0.0
C408 C 0.5548 0.83702 0.05863 0.0
C409 C 0.57002 0.81794 0.0651 0.0
C410 C 0.63764 0.81325 0.09944 0.0
C411 C 0.64819 0.79184 0.10853 0.0
C412 C 0.65888 0.79667 0.12889 0.0
C413 C 0.66031 0.82375 0.14034 0.0
C414 C 0.65028 0.84555 0.13115 0.0
C415 C 0.6389 0.84026 0.11085 0.0
P416 P 0.24995 0.77246 0.10173 0.0
H417 H 0.24512 0.74272 0.06157 0.0
H418 H 0.19694 0.69597 0.04294 0.0
H419 H 0.12538 0.68901 0.09023 0.0
H420 H 0.17396 0.73441 0.10919 0.0
H421 H 0.32587 0.80543 0.09937 0.0
H422 H 0.36951 0.85218 0.07898 0.0
H423 H 0.28797 0.86367 0.05032 0.0
H424 H 0.24407 0.81648 0.07099 0.0
H425 H 0.26069 0.77159 0.14564 0.0
H426 H 0.21029 0.80861 0.1052 0.0
O427 O 0.26853 0.75067 0.11047 0.0
H428 H 0.23959 0.78922 0.17498 0.0
H429 H 0.18813 0.82566 0.13466 0.0
C430 C 0.21312 0.74262 0.08655 0.0
C431 C 0.21892 0.73152 0.06772 0.0
C432 C 0.19124 0.70478 0.05705 0.0
C433 C 0.1571 0.68855 0.06504 0.0
C434 C 0.15132 0.70049 0.08371 0.0
C435 C 0.17912 0.72695 0.09447 0.0
C436 C 0.2817 0.80723 0.08653 0.0
C437 C 0.31724 0.81776 0.08861 0.0
C438 C 0.34221 0.84441 0.07682 0.0
C439 C 0.33219 0.86137 0.06281 0.0
C440 C 0.29649 0.8511 0.06097 0.0
C441 C 0.27142 0.82416 0.07274 0.0
C442 C 0.23678 0.7885 0.12322 0.0
C443 C 0.24509 0.78358 0.14304 0.0
C444 C 0.23274 0.79347 0.15987 0.0
C445 C 0.21169 0.80843 0.15724 0.0
C446 C 0.2044 0.81439 0.13727 0.0
C447 C 0.21696 0.80458 0.12041 0.0
P448 P 0.19451 0.39905 0.07865 0.0
H449 H 0.15761 0.38714 0.04007 0.0
H450 H 0.11923 0.40678 0.02641 0.0
H451 H 0.14447 0.47583 0.07761 0.0
H452 H 0.18272 0.45564 0.09146 0.0
H453 H 0.24212 0.3734 0.08451 0.0
H454 H 0.29941 0.38905 0.07116 0.0
H455 H 0.30015 0.47093 0.03701 0.0
H456 H 0.24298 0.456 0.05158 0.0
H457 H 0.13573 0.37844 0.10629 0.0
H458 H 0.24649 0.41653 0.11203 0.0
O459 O 0.17168 0.358 0.07158 0.0
H460 H 0.12821 0.36427 0.14258 0.0
H461 H 0.23885 0.4013 0.14805 0.0
C462 C 0.17249 0.41941 0.067 0.0
C463 C 0.15531 0.40683 0.04827 0.0
C464 C 0.13332 0.41802 0.04047 0.0
C465 C 0.12848 0.44248 0.05108 0.0
C466 C 0.14771 0.45694 0.06912 0.0
C467 C 0.16949 0.44538 0.07706 0.0
C468 C 0.23838 0.41375 0.06933 0.0
C469 C 0.25478 0.39508 0.07439 0.0
C470 C 0.28749 0.40381 0.06642 0.0
C471 C 0.3045 0.431 0.05264 0.0
C472 C 0.2881 0.45 0.04766 0.0
C473 C 0.2553 0.44144 0.05595 0.0
C474 C 0.19159 0.3983 0.10624 0.0
C475 C 0.15858 0.38457 0.11542 0.0
C476 C 0.15428 0.3764 0.13619 0.0
C477 C 0.18287 0.38126 0.14812 0.0
C478 C 0.21625 0.39684 0.13918 0.0
C479 C 0.2206 0.40553 0.11849 0.0
P480 P 0.47287 0.93711 0.27958 0.0
H481 H 0.4512 0.94812 0.31947 0.0
H482 H 0.39389 0.92969 0.33462 0.0
H483 H 0.3439 0.86392 0.28266 0.0
H484 H 0.40161 0.88302 0.26728 0.0
H485 H 0.54456 0.95891 0.26941 0.0
H486 H 0.58596 0.9416 0.28022 0.0
H487 H 0.50696 0.86438 0.31879 0.0
H488 H 0.46481 0.88119 0.30703 0.0
H489 H 0.44623 0.9705 0.25304 0.0
H490 H 0.49369 0.90774 0.24532 0.0
O491 O 0.49346 0.97797 0.28715 0.0
H492 H 0.45445 0.98438 0.21671 0.0
H493 H 0.50279 0.92226 0.20917 0.0
C494 C 0.4307 0.91742 0.29207 0.0
C495 C 0.42798 0.92938 0.31141 0.0
C496 C 0.39521 0.91888 0.32007 0.0
C497 C 0.36441 0.89565 0.30974 0.0
C498 C 0.36721 0.8818 0.29099 0.0
C499 C 0.40015 0.89274 0.28217 0.0
C500 C 0.50147 0.92115 0.28718 0.0
C501 C 0.53592 0.93794 0.28 0.0
C502 C 0.55978 0.92823 0.28643 0.0
C503 C 0.55011 0.90183 0.30064 0.0
C504 C 0.5153 0.88465 0.30773 0.0
C505 C 0.49117 0.89429 0.30106 0.0
C506 C 0.46992 0.93863 0.25207 0.0
C507 C 0.45767 0.95905 0.24346 0.0
C508 C 0.46241 0.96699 0.22266 0.0
C509 C 0.47983 0.95489 0.21012 0.0
C510 C 0.48982 0.93245 0.21851 0.0
C511 C 0.4846 0.92413 0.23924 0.0
P512 P 0.1496 0.57351 0.24983 0.0
H513 H 0.20676 0.63921 0.26404 0.0
H514 H 0.20849 0.68587 0.2839 0.0
H515 H 0.0958 0.62936 0.2886 0.0
H516 H 0.09425 0.58279 0.26846 0.0
H517 H 0.13211 0.50397 0.23982 0.0
H518 H 0.12904 0.45757 0.26023 0.0
H519 H 0.14732 0.51862 0.3148 0.0
H520 H 0.15125 0.56519 0.2942 0.0
H521 H 0.15532 0.58831 0.20637 0.0
H522 H 0.07324 0.52933 0.24933 0.0
O523 O 0.18879 0.58767 0.23922 0.0
H524 H 0.11223 0.5692 0.17883 0.0
H525 H 0.02974 0.51094 0.22176 0.0
C526 C 0.15034 0.60778 0.26444 0.0
C527 C 0.18238 0.63687 0.26922 0.0
C528 C 0.18335 0.66345 0.28074 0.0
C529 C 0.15226 0.66134 0.28782 0.0
C530 C 0.12015 0.63195 0.28313 0.0
C531 C 0.11924 0.60529 0.27163 0.0
C532 C 0.14147 0.53782 0.2655 0.0
C533 C 0.13476 0.50707 0.25623 0.0
C534 C 0.13289 0.48051 0.26794 0.0
C535 C 0.13797 0.48437 0.28917 0.0
C536 C 0.14366 0.51495 0.29846 0.0
C537 C 0.14562 0.54153 0.28671 0.0
C538 C 0.11747 0.56002 0.22984 0.0
C539 C 0.12803 0.57131 0.2099 0.0
C540 C 0.10343 0.5604 0.19417 0.0
C541 C 0.06778 0.53853 0.19823 0.0
C542 C 0.05709 0.5279 0.21831 0.0
C543 C 0.08186 0.53838 0.23401 0.0
P544 P 0.4693 0.51891 0.28116 0.0
H545 H 0.54003 0.5602 0.2972 0.0
H546 H 0.57505 0.62019 0.30672 0.0
H547 H 0.48898 0.63579 0.29108 0.0
H548 H 0.45349 0.5749 0.28196 0.0
H549 H 0.447 0.48596 0.32046 0.0
H550 H 0.38964 0.45224 0.33629 0.0
H551 H 0.34166 0.47315 0.28529 0.0
H552 H 0.39944 0.50694 0.2694 0.0
H553 H 0.50717 0.56703 0.24807 0.0
H554 H 0.42839 0.46083 0.254 0.0
O555 O 0.49067 0.49922 0.28892 0.0
H556 H 0.5129 0.55807 0.21195 0.0
H557 H 0.43372 0.4517 0.21764 0.0
C558 C 0.49403 0.56303 0.28909 0.0
C559 C 0.52847 0.57634 0.29597 0.0
C560 C 0.54864 0.61084 0.30123 0.0
C561 C 0.53495 0.63292 0.29951 0.0
C562 C 0.50021 0.61941 0.29274 0.0
C563 C 0.47994 0.5847 0.28749 0.0
C564 C 0.42726 0.49804 0.29349 0.0
C565 C 0.4242 0.48353 0.31272 0.0
C566 C 0.39146 0.46439 0.3218 0.0
C567 C 0.36119 0.45983 0.31194 0.0
C568 C 0.36459 0.47638 0.29327 0.0
C569 C 0.39748 0.49539 0.2841 0.0
C570 C 0.46693 0.51469 0.25375 0.0
C571 C 0.49023 0.54199 0.24151 0.0
C572 C 0.49351 0.53683 0.22075 0.0
C573 C 0.47391 0.50411 0.21188 0.0
C574 C 0.44947 0.47714 0.22403 0.0
C575 C 0.44612 0.48239 0.24478 0.0
Eu576 Eu 0.48558 0.97656 0.9874 0.0
C577 C 0.5619 0.10827 0.04285 0.0
C578 C 0.62334 0.12538 0.04246 0.0
C579 C 0.60593 0.16833 0.04663 0.0
C580 C 0.58782 0.09979 0.04102 0.0
C581 C 0.5706 0.14256 0.04603 0.0
C582 C 0.63226 0.15975 0.04485 0.0
C583 C 0.50889 0.12303 0.04917 0.0
N584 N 0.52809 0.08275 0.04235 0.0
C585 C 0.5016 0.08941 0.04606 0.0
C586 C 0.54353 0.14978 0.04895 0.0
Eu587 Eu 0.51756 0.02675 0.03587 0.0
N588 N 0.57826 0.06633 0.03888 0.0
C589 C 0.60286 0.05647 0.03968 0.0
C590 C 0.64877 0.11555 0.04203 0.0
C591 C 0.63843 0.08088 0.04094 0.0
H592 H 0.47477 0.06884 0.04606 0.0
H593 H 0.65785 0.07293 0.04098 0.0
H594 H 0.65941 0.1798 0.0458 0.0
H595 H 0.48779 0.12829 0.05169 0.0
H596 H 0.59535 0.02985 0.03873 0.0
H597 H 0.34516 0.92986 0.9903 0.0
H598 H 0.67634 0.13441 0.04303 0.0
H599 H 0.52658 0.93496 0.97185 0.0
H600 H 0.40784 0.97323 0.98947 0.0
H601 H 0.51293 0.87567 0.96487 0.0
H602 H 0.61315 0.19486 0.0489 0.0
H603 H 0.32658 0.86839 0.98765 0.0
H604 H 0.34319 0.82312 0.98223 0.0
H605 H 0.54912 0.1758 0.05142 0.0
H606 H 0.38887 0.80835 0.97521 0.0
N607 N 0.42477 0.93674 0.98703 0.0
C608 C 0.40014 0.94653 0.98827 0.0
C609 C 0.35417 0.88734 0.98731 0.0
C610 C 0.37948 0.87761 0.98478 0.0
C611 C 0.36455 0.922 0.98875 0.0
C612 C 0.41503 0.9033 0.98455 0.0
H613 H 0.45218 0.82782 0.96836 0.0
N614 N 0.47429 0.92064 0.97968 0.0
C615 C 0.49236 0.88071 0.96943 0.0
C616 C 0.44063 0.89497 0.98075 0.0
C617 C 0.5 0.91424 0.97336 0.0
C618 C 0.45806 0.85377 0.97147 0.0
C619 C 0.43156 0.86075 0.97687 0.0
O620 O 0.51258 0.9898 0.95807 0.0
O621 O 0.52912 0.02116 1.00344 0.0
O622 O 0.51293 0.05996 0.01195 0.0
O623 O 0.47004 0.01769 0.99129 0.0
O624 O 0.54312 0.9948 0.98305 0.0
O625 O 0.46278 0.98746 0.96082 0.0
O626 O 0.493 0.0212 0.0657 0.0
O627 O 0.4748 0.98154 0.02001 0.0
O628 O 0.49715 0.94478 0.00932 0.0
O629 O 0.53476 0.98703 0.03249 0.0
O630 O 0.45928 0.00725 0.03936 0.0
O631 O 0.53373 0.00828 0.06199 0.0
C632 C 0.55481 0.02035 0.99556 0.0
C633 C 0.47793 0.97519 0.92842 0.0
C634 C 0.48096 0.97886 0.89122 0.0
C635 C 0.48807 0.99492 0.91052 0.0
C636 C 0.46322 0.94297 0.89006 0.0
C637 C 0.45983 0.9394 0.92688 0.0
C638 C 0.4525 0.92343 0.90778 0.0
C639 C 0.48887 0.04997 0.99747 0.0
C640 C 0.48799 0.99208 0.94856 0.0
C641 C 0.39634 0.83484 0.97793 0.0
C642 C 0.37033 0.84326 0.98192 0.0
C643 C 0.44828 0.98067 0.02775 0.0
C644 C 0.52717 0.02635 0.09476 0.0
C645 C 0.51302 0.00722 0.11265 0.0
C646 C 0.52831 0.02088 0.13181 0.0
C647 C 0.5575 0.05407 0.13279 0.0
C648 C 0.55608 0.05949 0.09615 0.0
C649 C 0.57108 0.07325 0.1151 0.0
C650 C 0.52051 0.95586 0.02434 0.0
C651 C 0.51249 0.01102 0.0747 0.0
H652 H 0.50222 0.0226 0.91161 0.0
H653 H 0.45743 0.93005 0.8754 0.0
H654 H 0.45172 0.92384 0.94042 0.0
H655 H 0.43869 0.8958 0.90671 0.0
H656 H 0.49077 0.98152 0.11162 0.0
H657 H 0.56966 0.06529 0.14731 0.0
H658 H 0.56724 0.07456 0.08259 0.0
H659 H 0.59347 0.09882 0.11606 0.0
Eu660 Eu 0.02911 0.51214 0.98688 0.0
C661 C 0.89085 0.46083 0.03845 0.0
C662 C 0.87632 0.50574 0.03573 0.0
C663 C 0.83022 0.44704 0.04101 0.0
C664 C 0.90122 0.49485 0.03551 0.0
C665 C 0.85535 0.43666 0.0418 0.0
C666 C 0.84069 0.48153 0.03793 0.0
C667 C 0.87259 0.39458 0.04845 0.0
N668 N 0.91579 0.45174 0.03933 0.0
C669 C 0.90744 0.41947 0.04498 0.0
C670 C 0.84634 0.40307 0.04654 0.0
Eu671 Eu 0.97413 0.49499 0.03308 0.0
N672 N 0.93588 0.51761 0.0337 0.0
C673 C 0.94762 0.55193 0.03385 0.0
C674 C 0.8881 0.54076 0.03445 0.0
C675 C 0.92396 0.56399 0.03387 0.0
H676 H 0.92758 0.4127 0.04636 0.0
H677 H 0.9334 0.59118 0.03335 0.0
H678 H 0.82116 0.48936 0.03791 0.0
H679 H 0.86599 0.36885 0.0525 0.0
H680 H 0.97525 0.57018 0.03332 0.0
H681 H 0.05944 0.40843 0.98707 0.0
H682 H 0.86982 0.55016 0.03448 0.0
H683 H 0.08232 0.59318 0.97348 0.0
H684 H 0.02157 0.43382 0.98538 0.0
H685 H 0.14584 0.63426 0.97074 0.0
H686 H 0.80277 0.42879 0.04332 0.0
H687 H 0.12359 0.44564 0.98981 0.0
H688 H 0.17574 0.50501 0.98982 0.0
H689 H 0.81937 0.38376 0.04926 0.0
H690 H 0.19944 0.56685 0.98554 0.0
N691 N 0.0636 0.48523 0.98757 0.0
C692 C 0.04946 0.45054 0.98645 0.0
C693 C 0.10706 0.45702 0.98902 0.0
C694 C 0.12155 0.49254 0.98884 0.0
C695 C 0.07089 0.43595 0.98741 0.0
C696 C 0.09883 0.50602 0.98788 0.0
H697 H 0.18848 0.61525 0.97792 0.0
N698 N 0.08936 0.55219 0.98303 0.0
C699 C 0.13675 0.60809 0.97513 0.0
C700 C 0.11216 0.54072 0.98567 0.0
C701 C 0.1009 0.58485 0.97666 0.0
C702 C 0.16073 0.59729 0.97928 0.0
C703 C 0.14854 0.56301 0.9841 0.0
O704 O 0.02754 0.53266 0.95712 0.0
O705 O 0.98258 0.51138 1.00064 0.0
O706 O 0.94014 0.45532 0.00963 0.0
O707 O 0.98318 0.45707 0.98803 0.0
O708 O 0.01312 0.55219 0.98188 0.0
O709 O 0.01615 0.48037 0.95937 0.0
O710 O 0.98187 0.47781 0.06257 0.0
O711 O 0.02097 0.49613 0.01936 0.0
O712 O 0.06131 0.5538 0.00992 0.0
O713 O 0.01786 0.55079 0.03179 0.0
O714 O 0.98986 0.45465 0.03744 0.0
O715 O 0.98616 0.52762 0.06008 0.0
C716 C 0.98517 0.53798 0.99282 0.0
C717 C 0.04276 0.50998 0.92912 0.0
C718 C 0.04849 0.50967 0.89205 0.0
C719 C 0.02773 0.50373 0.90958 0.0
C720 C 0.08459 0.52214 0.89456 0.0
C721 C 0.07858 0.5217 0.9312 0.0
C722 C 0.09937 0.52784 0.914 0.0
C723 C 0.95056 0.44216 0.99495 0.0
C724 C 0.02103 0.50501 0.94717 0.0
C725 C 0.17138 0.55006 0.98639 0.0
C726 C 0.15789 0.51485 0.98879 0.0
C727 C 0.01822 0.46926 0.0269 0.0
C728 C 0.9695 0.49993 0.09195 0.0
C729 C 0.98983 0.50735 0.1096 0.0
C730 C 0.97439 0.50089 0.12902 0.0
C731 C 0.93802 0.48753 0.13041 0.0
C732 C 0.93333 0.4866 0.09353 0.0
C733 C 0.91772 0.48057 0.11275 0.0
C734 C 0.05033 0.56621 0.02472 0.0
C735 C 0.98684 0.50522 0.0722 0.0
H736 H 0.99987 0.49396 0.90814 0.0
H737 H 0.10161 0.52788 0.88152 0.0
H738 H 0.09055 0.52628 0.94606 0.0
H739 H 0.12711 0.53727 0.91573 0.0
H740 H 0.01787 0.51827 0.1081 0.0
H741 H 0.92517 0.48193 0.14509 0.0
H742 H 0.91727 0.48072 0.08 0.0
H743 H 0.88976 0.47014 0.11396 0.0
Eu744 Eu 0.51175 0.48533 0.03588 0.0
C745 C 0.43066 0.53708 0.98158 0.0
C746 C 0.37035 0.49161 0.98349 0.0
C747 C 0.38376 0.55016 0.97822 0.0
C748 C 0.40646 0.50296 0.98428 0.0
C749 C 0.41962 0.56095 0.9779 0.0
C750 C 0.35915 0.51553 0.98106 0.0
C751 C 0.47996 0.60345 0.97169 0.0
N752 N 0.46499 0.54649 0.98109 0.0
C753 C 0.48958 0.5788 0.97548 0.0
C754 C 0.44488 0.59464 0.97325 0.0
Eu755 Eu 0.47962 0.50386 0.9881 0.0
N756 N 0.41822 0.48054 0.98619 0.0
C757 C 0.39532 0.44614 0.98554 0.0
C758 C 0.34666 0.45646 0.98434 0.0
C759 C 0.35923 0.4336 0.98497 0.0
H760 H 0.51676 0.58579 0.97444 0.0
H761 H 0.34116 0.40632 0.9851 0.0
H762 H 0.33153 0.50736 0.98065 0.0
H763 H 0.49961 0.62923 0.96769 0.0
H764 H 0.40468 0.42821 0.9861 0.0
H765 H 0.64977 0.58374 0.0413 0.0
H766 H 0.31871 0.44669 0.98385 0.0
H767 H 0.47474 0.40148 0.04508 0.0
H768 H 0.58628 0.56143 0.03972 0.0
H769 H 0.49247 0.35785 0.04917 0.0
H770 H 0.37475 0.56818 0.97567 0.0
H771 H 0.67279 0.54381 0.04143 0.0
H772 H 0.6606 0.48318 0.04249 0.0
H773 H 0.43747 0.61374 0.97027 0.0
H774 H 0.61781 0.4217 0.0448 0.0
N775 N 0.57316 0.50921 0.03849 0.0
C776 C 0.5958 0.54361 0.03987 0.0
C777 C 0.64481 0.53381 0.04077 0.0
C778 C 0.62138 0.49855 0.04058 0.0
C779 C 0.63191 0.55642 0.04076 0.0
C780 C 0.58522 0.4869 0.0396 0.0
H781 H 0.55509 0.37478 0.04766 0.0
N782 N 0.52672 0.44237 0.04093 0.0
C783 C 0.51207 0.38433 0.04677 0.0
C784 C 0.56124 0.45238 0.04089 0.0
C785 C 0.50212 0.40907 0.04452 0.0
C786 C 0.54744 0.39398 0.04586 0.0
C787 C 0.57258 0.42843 0.04318 0.0
O788 O 0.48524 0.46458 0.0648 0.0
O789 O 0.4674 0.48666 0.02039 0.0
O790 O 0.48582 0.54406 0.01121 0.0
O791 O 0.52444 0.54083 0.03428 0.0
O792 O 0.45455 0.44439 0.03807 0.0
O793 O 0.5282 0.51669 0.06361 0.0
O794 O 0.50597 0.52213 0.95886 0.0
O795 O 0.52391 0.50353 1.00396 0.0
O796 O 0.51005 0.44926 0.01138 0.0
O797 O 0.46736 0.44824 0.9901 0.0
O798 O 0.53716 0.54421 0.98496 0.0
O799 O 0.46201 0.4707 0.96114 0.0
C800 C 0.44208 0.45933 0.02705 0.0
C801 C 0.51927 0.48702 0.09455 0.0
C802 C 0.51742 0.48466 0.13178 0.0
C803 C 0.50551 0.49058 0.11317 0.0
C804 C 0.54351 0.47542 0.13141 0.0
C805 C 0.54529 0.47788 0.09458 0.0
C806 C 0.55733 0.47215 0.11294 0.0
C807 C 0.50836 0.55645 0.0266 0.0
C808 C 0.50578 0.49216 0.07522 0.0
C809 C 0.60856 0.43973 0.04325 0.0
C810 C 0.63292 0.47474 0.04193 0.0
C811 C 0.54948 0.53019 0.99687 0.0
C812 C 0.47175 0.49808 0.92931 0.0
C813 C 0.48604 0.49327 0.91132 0.0
C814 C 0.47414 0.49697 0.8921 0.0
C815 C 0.44766 0.50564 0.89127 0.0
C816 C 0.44542 0.50672 0.92817 0.0
C817 C 0.43348 0.51049 0.9092 0.0
C818 C 0.48707 0.4355 0.99636 0.0
C819 C 0.48479 0.49405 0.94908 0.0
H820 H 0.48519 0.49739 0.11312 0.0
H821 H 0.5536 0.47116 0.14545 0.0
H822 H 0.55622 0.47512 0.08043 0.0
H823 H 0.57747 0.46515 0.11285 0.0
H824 H 0.50608 0.48616 0.91232 0.0
H825 H 0.43817 0.50906 0.87676 0.0
H826 H 0.43411 0.51049 0.94188 0.0
H827 H 0.4132 0.51725 0.90839 0.0
Eu828 Eu 0.15358 0.30923 0.32252 0.0
C829 C 0.22419 0.44126 0.37753 0.0
C830 C 0.28615 0.46051 0.37772 0.0
C831 C 0.26646 0.50187 0.38112 0.0
C832 C 0.25104 0.434 0.37613 0.0
C833 C 0.23153 0.47519 0.38043 0.0
C834 C 0.29373 0.49454 0.37976 0.0
C835 C 0.16935 0.45355 0.38323 0.0
N836 N 0.19078 0.41487 0.37696 0.0
C837 C 0.16342 0.42033 0.38041 0.0
C838 C 0.20355 0.48116 0.38302 0.0
Eu839 Eu 0.18265 0.35959 0.37102 0.0
N840 N 0.24277 0.40083 0.37439 0.0
C841 C 0.26824 0.39219 0.37576 0.0
C842 C 0.31252 0.45192 0.37783 0.0
C843 C 0.30347 0.41756 0.37717 0.0
H844 H 0.13693 0.39909 0.38042 0.0
H845 H 0.3236 0.41058 0.37766 0.0
H846 H 0.32055 0.51528 0.3808 0.0
H847 H 0.14757 0.45785 0.38552 0.0
H848 H 0.26167 0.36578 0.37515 0.0
H849 H 0.01264 0.26022 0.32348 0.0
H850 H 0.33982 0.47152 0.37895 0.0
H851 H 0.19633 0.26886 0.30799 0.0
H852 H 0.07505 0.30436 0.32331 0.0
H853 H 0.18403 0.20989 0.30134 0.0
H854 H 0.27265 0.52815 0.38316 0.0
H855 H 0.99521 0.199 0.3211 0.0
H856 H 0.01309 0.15452 0.31636 0.0
H857 H 0.20809 0.50687 0.38527 0.0
H858 H 0.05976 0.1408 0.31022 0.0
N859 N 0.09299 0.26859 0.32148 0.0
C860 C 0.06788 0.27779 0.32222 0.0
C861 C 0.02269 0.2183 0.32104 0.0
C862 C 0.04853 0.20917 0.31902 0.0
C863 C 0.03242 0.25282 0.32234 0.0
C864 C 0.08391 0.2353 0.31914 0.0
H865 H 0.12354 0.16133 0.30424 0.0
N866 N 0.14354 0.25364 0.31504 0.0
C867 C 0.16299 0.21448 0.30549 0.0
C868 C 0.11004 0.22756 0.3158 0.0
C869 C 0.16986 0.24782 0.30923 0.0
C870 C 0.12883 0.18713 0.3072 0.0
C871 C 0.10174 0.19351 0.3121 0.0
O872 O 0.18128 0.32206 0.29341 0.0
O873 O 0.19581 0.35431 0.33889 0.0
O874 O 0.17799 0.39225 0.34686 0.0
O875 O 0.13668 0.34957 0.32567 0.0
O876 O 0.21153 0.32868 0.31903 0.0
O877 O 0.13188 0.32068 0.29566 0.0
O878 O 0.15549 0.35149 0.40011 0.0
O879 O 0.14141 0.31359 0.35492 0.0
O880 O 0.16579 0.27833 0.3449 0.0
O881 O 0.20136 0.32091 0.36851 0.0
O882 O 0.12395 0.33844 0.37364 0.0
O883 O 0.20081 0.34512 0.39814 0.0
C884 C 0.22217 0.35416 0.33152 0.0
C885 C 0.14752 0.30849 0.26339 0.0
C886 C 0.15038 0.31298 0.22621 0.0
C887 C 0.15733 0.3286 0.24565 0.0
C888 C 0.13306 0.27711 0.2248 0.0
C889 C 0.1299 0.27274 0.26159 0.0
C890 C 0.12267 0.25719 0.24237 0.0
C891 C 0.15436 0.38181 0.33213 0.0
C892 C 0.15728 0.32499 0.28365 0.0
C893 C 0.06667 0.16717 0.31282 0.0
C894 C 0.0401 0.17498 0.31631 0.0
C895 C 0.11417 0.31188 0.36215 0.0
C896 C 0.18939 0.36242 0.42995 0.0
C897 C 0.17793 0.34344 0.44808 0.0
C898 C 0.18999 0.35967 0.46721 0.0
C899 C 0.21323 0.39522 0.4678 0.0
C900 C 0.21257 0.39776 0.43098 0.0
C901 C 0.22433 0.41403 0.44983 0.0
C902 C 0.18839 0.28988 0.36034 0.0
C903 C 0.17716 0.34517 0.41006 0.0
H904 H 0.17113 0.35625 0.24696 0.0
H905 H 0.12734 0.26449 0.21004 0.0
H906 H 0.12206 0.2569 0.27502 0.0
H907 H 0.10921 0.22959 0.24109 0.0
H908 H 0.16022 0.31605 0.44726 0.0
H909 H 0.22263 0.4086 0.48222 0.0
H910 H 0.22157 0.41273 0.41723 0.0
H911 H 0.24216 0.44135 0.45052 0.0
Eu912 Eu 0.70244 0.84483 0.31636 0.0
C913 C 0.56372 0.79286 0.36661 0.0
C914 C 0.5497 0.83819 0.36467 0.0
C915 C 0.5031 0.77928 0.36846 0.0
C916 C 0.57443 0.82709 0.36439 0.0
C917 C 0.52802 0.76863 0.3692 0.0
C918 C 0.51393 0.81401 0.36617 0.0
C919 C 0.54458 0.72582 0.37503 0.0
N920 N 0.58848 0.78352 0.36749 0.0
C921 C 0.57965 0.75082 0.37242 0.0
C922 C 0.51858 0.73465 0.37312 0.0
Eu923 Eu 0.64718 0.82688 0.36232 0.0
N924 N 0.60919 0.84978 0.36317 0.0
C925 C 0.62116 0.88412 0.36391 0.0
C926 C 0.56175 0.87332 0.36409 0.0
C927 C 0.59767 0.8964 0.36407 0.0
H928 H 0.59965 0.74384 0.37378 0.0
H929 H 0.60731 0.92364 0.36406 0.0
H930 H 0.49452 0.82201 0.36617 0.0
H931 H 0.53762 0.69977 0.37845 0.0
H932 H 0.64884 0.90224 0.36379 0.0
H933 H 0.74521 0.75022 0.31703 0.0
H934 H 0.54361 0.88289 0.3642 0.0
H935 H 0.74922 0.92813 0.30505 0.0
H936 H 0.70267 0.77037 0.3158 0.0
H937 H 0.81115 0.97308 0.30143 0.0
H938 H 0.47551 0.76101 0.3702 0.0
H939 H 0.80862 0.79199 0.31806 0.0
H940 H 0.8569 0.8533 0.3165 0.0
H941 H 0.49143 0.71527 0.3752 0.0
H942 H 0.87489 0.91399 0.31209 0.0
N943 N 0.74144 0.8231 0.31661 0.0
C944 C 0.73022 0.78891 0.31612 0.0
C945 C 0.79004 0.80101 0.31749 0.0
C946 C 0.80141 0.83599 0.3167 0.0
C947 C 0.75428 0.77736 0.31684 0.0
C948 C 0.77612 0.84636 0.3161 0.0
H949 H 0.85801 0.9588 0.30602 0.0
N950 N 0.76105 0.8891 0.31203 0.0
C951 C 0.80452 0.94716 0.30498 0.0
C952 C 0.78626 0.88045 0.3137 0.0
C953 C 0.76949 0.92165 0.307 0.0
C954 C 0.8309 0.93901 0.30764 0.0
C955 C 0.82193 0.90522 0.31175 0.0
O956 O 0.69658 0.86245 0.28654 0.0
O957 O 0.65542 0.84343 0.32997 0.0
O958 O 0.61456 0.78721 0.33838 0.0
O959 O 0.65902 0.78889 0.31823 0.0
O960 O 0.68611 0.88472 0.31164 0.0
O961 O 0.69212 0.81269 0.28922 0.0
O962 O 0.65302 0.80846 0.39183 0.0
O963 O 0.69383 0.82795 0.34863 0.0
O964 O 0.73516 0.88294 0.34071 0.0
O965 O 0.6916 0.88288 0.3609 0.0
O966 O 0.66368 0.78707 0.36721 0.0
O967 O 0.65964 0.85928 0.38948 0.0
C968 C 0.65803 0.87019 0.32241 0.0
C969 C 0.71448 0.84259 0.25842 0.0
C970 C 0.71909 0.84608 0.22138 0.0
C971 C 0.69868 0.83733 0.23917 0.0
C972 C 0.75544 0.85988 0.22309 0.0
C973 C 0.75071 0.85593 0.25983 0.0
C974 C 0.77106 0.86453 0.24223 0.0
C975 C 0.62606 0.77368 0.32455 0.0
C976 C 0.69313 0.83564 0.27685 0.0
C977 C 0.84733 0.89529 0.31333 0.0
C978 C 0.83708 0.86073 0.31584 0.0
C979 C 0.69174 0.80153 0.3564 0.0
C980 C 0.64073 0.83093 0.42106 0.0
C981 C 0.66027 0.83754 0.43896 0.0
C982 C 0.64411 0.83106 0.45817 0.0
C983 C 0.60786 0.81854 0.4591 0.0
C984 C 0.60464 0.81839 0.42216 0.0
C985 C 0.58834 0.81237 0.44117 0.0
C986 C 0.72473 0.89664 0.35501 0.0
C987 C 0.65875 0.83605 0.40155 0.0
H988 H 0.67069 0.82716 0.23804 0.0
H989 H 0.77166 0.86665 0.2096 0.0
H990 H 0.76328 0.85993 0.27449 0.0
H991 H 0.79904 0.87496 0.24344 0.0
H992 H 0.68828 0.84783 0.43783 0.0
H993 H 0.59449 0.81301 0.47361 0.0
H994 H 0.58917 0.81309 0.40842 0.0
H995 H 0.56044 0.80257 0.44201 0.0
Eu996 Eu 0.18941 0.82669 0.37215 0.0
C997 C 0.11072 0.88238 0.31881 0.0
C998 C 0.05004 0.83753 0.3197 0.0
C999 C 0.06466 0.89667 0.31555 0.0
C1000 C 0.08598 0.84825 0.32079 0.0
C1001 C 0.10039 0.90691 0.31561 0.0
C1002 C 0.03951 0.86202 0.31764 0.0
C1003 C 0.16125 0.94916 0.31075 0.0
N1004 N 0.14493 0.8913 0.31871 0.0
C1005 C 0.17016 0.92388 0.31402 0.0
C1006 C 0.12625 0.94076 0.31186 0.0
Eu1007 Eu 0.15829 0.84754 0.3249 0.0
N1008 N 0.0971 0.82528 0.32244 0.0
C1009 C 0.07372 0.79102 0.32127 0.0
C1010 C 0.02583 0.80247 0.31997 0.0
C1011 C 0.03777 0.7791 0.32039 0.0
H1012 H 0.19728 0.93054 0.31331 0.0
H1013 H 0.01932 0.75191 0.3201 0.0
H1014 H 0.01202 0.85432 0.317 0.0
H1015 H 0.18139 0.97511 0.30747 0.0
H1016 H 0.08257 0.77268 0.32166 0.0
H1017 H 0.32851 0.92203 0.37676 0.0
H1018 H 0.99798 0.79318 0.31924 0.0
H1019 H 0.15025 0.7426 0.38134 0.0
H1020 H 0.26528 0.90146 0.37574 0.0
H1021 H 0.16621 0.69766 0.38501 0.0
H1022 H 0.05619 0.91518 0.31333 0.0
H1023 H 0.34971 0.88064 0.37638 0.0
H1024 H 0.33562 0.81939 0.37723 0.0
H1025 H 0.1194 0.96037 0.30928 0.0
H1026 H 0.29147 0.75832 0.37964 0.0
N1027 N 0.25059 0.84884 0.37431 0.0
C1028 C 0.27406 0.88305 0.37568 0.0
C1029 C 0.32186 0.87142 0.37596 0.0
C1030 C 0.29761 0.83636 0.37582 0.0
C1031 C 0.31 0.89486 0.37624 0.0
C1032 C 0.26166 0.82574 0.37515 0.0
H1033 H 0.22827 0.71274 0.38292 0.0
N1034 N 0.20265 0.78245 0.37682 0.0
C1035 C 0.18635 0.72392 0.38253 0.0
C1036 C 0.23691 0.79145 0.37648 0.0
C1037 C 0.1774 0.74942 0.3805 0.0
C1038 C 0.2214 0.73252 0.38129 0.0
C1039 C 0.24726 0.76671 0.37853 0.0
O1040 O 0.16214 0.80671 0.40094 0.0
O1041 O 0.14552 0.82924 0.35693 0.0
O1042 O 0.16427 0.8866 0.34884 0.0
O1043 O 0.20331 0.88261 0.37114 0.0
O1044 O 0.13197 0.78642 0.37427 0.0
O1045 O 0.20785 0.85723 0.40016 0.0
O1046 O 0.18558 0.86677 0.29604 0.0
O1047 O 0.20199 0.84551 0.34036 0.0
O1048 O 0.18621 0.79027 0.34745 0.0
O1049 O 0.14463 0.79141 0.32612 0.0
O1050 O 0.21606 0.88741 0.3223 0.0
O1051 O 0.14074 0.81566 0.29739 0.0
C1052 C 0.11992 0.80186 0.36338 0.0
C1053 C 0.19621 0.8262 0.43079 0.0
C1054 C 0.19332 0.82254 0.46791 0.0
C1055 C 0.18371 0.8313 0.44944 0.0
C1056 C 0.21593 0.80904 0.46746 0.0
C1057 C 0.219 0.81302 0.43067 0.0
C1058 C 0.22882 0.80454 0.44895 0.0
C1059 C 0.18703 0.89848 0.36414 0.0
C1060 C 0.18414 0.83336 0.41157 0.0
C1061 C 0.28299 0.77697 0.37829 0.0
C1062 C 0.30813 0.81175 0.37691 0.0
C1063 C 0.22793 0.87227 0.33363 0.0
C1064 C 0.15301 0.84421 0.2658 0.0
C1065 C 0.16567 0.83625 0.2482 0.0
C1066 C 0.15603 0.84149 0.22869 0.0
C1067 C 0.13347 0.85495 0.22712 0.0
C1068 C 0.13039 0.85741 0.26397 0.0
C1069 C 0.12071 0.86275 0.24468 0.0
C1070 C 0.16316 0.77737 0.33242 0.0
C1071 C 0.16446 0.83919 0.28582 0.0
H1072 H 0.1659 0.84129 0.44955 0.0
H1073 H 0.22391 0.80229 0.48147 0.0
H1074 H 0.22897 0.80906 0.41649 0.0
H1075 H 0.24635 0.79428 0.44876 0.0
H1076 H 0.18353 0.82647 0.24975 0.0
H1077 H 0.1253 0.85901 0.21235 0.0
H1078 H 0.12039 0.86367 0.2774 0.0
H1079 H 0.10323 0.87295 0.24331 0.0
Eu1080 Eu 0.81622 0.64253 0.65593 0.0
C1081 C 0.89148 0.77407 0.7111 0.0
C1082 C 0.95271 0.79045 0.71189 0.0
C1083 C 0.9359 0.83403 0.7146 0.0
C1084 C 0.91714 0.76515 0.71006 0.0
C1085 C 0.90048 0.80853 0.71376 0.0
C1086 C 0.96198 0.825 0.71368 0.0
C1087 C 0.83882 0.78972 0.71604 0.0
N1088 N 0.85757 0.74879 0.71043 0.0
C1089 C 0.83123 0.7559 0.71348 0.0
C1090 C 0.8736 0.81621 0.71596 0.0
Eu1091 Eu 0.8466 0.69244 0.70468 0.0
N1092 N 0.90723 0.73152 0.70855 0.0
C1093 C 0.93135 0.72124 0.71058 0.0
C1094 C 0.97777 0.78016 0.71257 0.0
C1095 C 0.96697 0.74535 0.71228 0.0
H1096 H 0.8043 0.73552 0.71336 0.0
H1097 H 0.98606 0.73705 0.71327 0.0
H1098 H 0.98918 0.84483 0.71489 0.0
H1099 H 0.81786 0.79533 0.71802 0.0
H1100 H 0.92343 0.69447 0.71028 0.0
H1101 H 0.67603 0.59749 0.65621 0.0
H1102 H 0.00537 0.79878 0.71391 0.0
H1103 H 0.85709 0.60031 0.64134 0.0
H1104 H 0.73889 0.64022 0.65665 0.0
H1105 H 0.84302 0.54102 0.63403 0.0
H1106 H 0.94338 0.8607 0.71646 0.0
H1107 H 0.65675 0.53592 0.65298 0.0
H1108 H 0.67278 0.49022 0.64772 0.0
H1109 H 0.87942 0.84238 0.71799 0.0
H1110 H 0.71825 0.47483 0.64159 0.0
N1111 N 0.75528 0.60329 0.65436 0.0
C1112 C 0.73093 0.61349 0.65521 0.0
C1113 C 0.68443 0.55459 0.6532 0.0
C1114 C 0.70951 0.54448 0.65108 0.0
C1115 C 0.69521 0.58931 0.65498 0.0
C1116 C 0.74519 0.56982 0.65158 0.0
H1117 H 0.78177 0.49366 0.63613 0.0
N1118 N 0.8045 0.58653 0.64795 0.0
C1119 C 0.82241 0.54629 0.63813 0.0
C1120 C 0.77065 0.56115 0.64828 0.0
C1121 C 0.83028 0.57985 0.64225 0.0
C1122 C 0.78783 0.51962 0.63937 0.0
C1123 C 0.76134 0.52692 0.6442 0.0
O1124 O 0.84487 0.65634 0.62712 0.0
O1125 O 0.85948 0.68638 0.67264 0.0
O1126 O 0.84379 0.72589 0.68023 0.0
O1127 O 0.80087 0.68376 0.65957 0.0
O1128 O 0.87367 0.6596 0.65266 0.0
O1129 O 0.79566 0.6553 0.62905 0.0
O1130 O 0.82148 0.68795 0.7342 0.0
O1131 O 0.80418 0.64763 0.68833 0.0
O1132 O 0.8263 0.61017 0.6783 0.0
O1133 O 0.86286 0.65195 0.70207 0.0
O1134 O 0.78833 0.67346 0.70739 0.0
O1135 O 0.8611 0.67336 0.73121 0.0
C1136 C 0.88517 0.68485 0.66538 0.0
C1137 C 0.81215 0.64405 0.59676 0.0
C1138 C 0.81692 0.64951 0.55962 0.0
C1139 C 0.82339 0.66465 0.57919 0.0
C1140 C 0.79867 0.61366 0.55788 0.0
C1141 C 0.79364 0.60834 0.5946 0.0
C1142 C 0.7869 0.59329 0.57524 0.0
C1143 C 0.81991 0.71604 0.66567 0.0
C1144 C 0.82136 0.65987 0.61723 0.0
C1145 C 0.72593 0.50133 0.6445 0.0
C1146 C 0.70005 0.5101 0.64797 0.0
C1147 C 0.77754 0.64702 0.69568 0.0
C1148 C 0.8547 0.69254 0.76362 0.0
C1149 C 0.8406 0.67346 0.78152 0.0
C1150 C 0.85593 0.68717 0.80066 0.0
C1151 C 0.88511 0.72037 0.80161 0.0
C1152 C 0.8836 0.72569 0.76497 0.0
C1153 C 0.89864 0.73951 0.7839 0.0
C1154 C 0.84875 0.62086 0.69382 0.0
C1155 C 0.84007 0.67708 0.74359 0.0
H1156 H 0.83789 0.69227 0.58076 0.0
H1157 H 0.79333 0.6014 0.54302 0.0
H1158 H 0.78472 0.59213 0.60786 0.0
H1159 H 0.77275 0.56571 0.5737 0.0
H1160 H 0.81838 0.64773 0.78052 0.0
H1161 H 0.8973 0.73161 0.81612 0.0
H1162 H 0.89472 0.74072 0.7514 0.0
H1163 H 0.92102 0.76508 0.78484 0.0
Eu1164 Eu 0.35916 0.17245 0.64809 0.0
C1165 C 0.2255 0.11685 0.70072 0.0
C1166 C 0.20086 0.15339 0.69473 0.0
C1167 C 0.16251 0.09334 0.70236 0.0
C1168 C 0.22997 0.14847 0.69576 0.0
C1169 C 0.19175 0.0891 0.70455 0.0
C1170 C 0.16706 0.12546 0.69749 0.0
C1171 C 0.21847 0.05607 0.7146 0.0
N1172 N 0.25437 0.11378 0.70302 0.0
C1173 C 0.25139 0.08439 0.71083 0.0
C1174 C 0.18847 0.05825 0.71114 0.0
Eu1175 Eu 0.30923 0.1628 0.69524 0.0
N1176 N 0.26295 0.17496 0.69327 0.0
C1177 C 0.26887 0.20753 0.69137 0.0
C1178 C 0.20668 0.18648 0.69172 0.0
C1179 C 0.24089 0.21376 0.69046 0.0
H1180 H 0.27426 0.08226 0.71367 0.0
H1181 H 0.24574 0.23956 0.68859 0.0
H1182 H 0.14436 0.12866 0.6965 0.0
H1183 H 0.21627 0.03261 0.72022 0.0
H1184 H 0.29521 0.22883 0.69032 0.0
H1185 H 0.29973 0.07201 0.5897 0.0
H1186 H 0.18504 0.19135 0.69087 0.0
H1187 H 0.43953 0.20637 0.66855 0.0
H1188 H 0.30718 0.121 0.6104 0.0
H1189 H 0.48715 0.19322 0.6714 0.0
H1190 H 0.13636 0.07222 0.70503 0.0
H1191 H 0.34089 0.0503 0.59375 0.0
H1192 H 0.39556 0.05688 0.60994 0.0
H1193 H 0.16301 0.03633 0.71421 0.0
H1194 H 0.4467 0.08997 0.6322 0.0
N1195 N 0.3514 0.12635 0.62667 0.0
C1196 C 0.32533 0.11183 0.61236 0.0
C1197 C 0.34423 0.07178 0.60294 0.0
C1198 C 0.37223 0.08822 0.61661 0.0
C1199 C 0.32099 0.084 0.60058 0.0
C1200 C 0.37533 0.11602 0.62823 0.0
H1201 H 0.48143 0.14124 0.65485 0.0
N1202 N 0.40665 0.16206 0.6508 0.0
C1203 C 0.4638 0.17636 0.66279 0.0
C1204 C 0.4039 0.13449 0.64073 0.0
C1205 C 0.43664 0.1837 0.66115 0.0
C1206 C 0.46045 0.14698 0.65347 0.0
C1207 C 0.43048 0.1259 0.64197 0.0
O1208 O 0.40612 0.21523 0.63501 0.0
O1209 O 0.32006 0.18292 0.66368 0.0
O1210 O 0.27833 0.1159 0.67483 0.0
O1211 O 0.32131 0.11607 0.6536 0.0
O1212 O 0.30824 0.16346 0.63419 0.0
O1213 O 0.35627 0.19839 0.62075 0.0
O1214 O 0.33418 0.16485 0.72448 0.0
O1215 O 0.35716 0.16554 0.68163 0.0
O1216 O 0.38969 0.21541 0.67106 0.0
O1217 O 0.34498 0.21871 0.68698 0.0
O1218 O 0.33021 0.12759 0.70296 0.0
O1219 O 0.30762 0.19332 0.72086 0.0
C1220 C 0.29745 0.17329 0.64962 0.0
C1221 C 0.40596 0.22066 0.59901 0.0
C1222 C 0.40129 0.21384 0.56191 0.0
C1223 C 0.38536 0.20856 0.58115 0.0
C1224 C 0.43792 0.23073 0.56065 0.0
C1225 C 0.44258 0.23746 0.59732 0.0
C1226 C 0.45836 0.24222 0.57828 0.0
C1227 C 0.28976 0.10076 0.662 0.0
C1228 C 0.3899 0.21797 0.61925 0.0
C1229 C 0.42677 0.09723 0.63124 0.0
C1230 C 0.39767 0.0784 0.61857 0.0
C1231 C 0.35655 0.14068 0.69079 0.0
C1232 C 0.30728 0.17167 0.75352 0.0
C1233 C 0.32871 0.18172 0.77088 0.0
C1234 C 0.31442 0.16945 0.79023 0.0
C1235 C 0.27823 0.14698 0.79198 0.0
C1236 C 0.27117 0.14939 0.75551 0.0
C1237 C 0.25676 0.13718 0.77469 0.0
C1238 C 0.37834 0.23255 0.68205 0.0
C1239 C 0.32342 0.18353 0.73346 0.0
H1240 H 0.3571 0.19596 0.58208 0.0
H1241 H 0.45072 0.23494 0.546 0.0
H1242 H 0.45908 0.24729 0.61073 0.0
H1243 H 0.48658 0.25522 0.57715 0.0
H1244 H 0.35669 0.19851 0.76922 0.0
H1245 H 0.26653 0.13726 0.80671 0.0
H1246 H 0.25421 0.14131 0.74227 0.0
H1247 H 0.2289 0.11995 0.77616 0.0
Eu1248 Eu 0.84574 0.15294 0.70248 0.0
C1249 C 0.76479 0.2058 0.64854 0.0
C1250 C 0.70437 0.16047 0.65014 0.0
C1251 C 0.71809 0.21917 0.64513 0.0
C1252 C 0.74043 0.17166 0.65103 0.0
C1253 C 0.75393 0.22984 0.64496 0.0
C1254 C 0.69334 0.18453 0.64777 0.0
C1255 C 0.81443 0.27234 0.63924 0.0
N1256 N 0.79911 0.21513 0.64825 0.0
C1257 C 0.82388 0.24755 0.64293 0.0
C1258 C 0.77935 0.26359 0.64059 0.0
Eu1259 Eu 0.81333 0.17213 0.65503 0.0
N1260 N 0.75201 0.14909 0.65293 0.0
C1261 C 0.72898 0.11473 0.65219 0.0
C1262 C 0.68053 0.12534 0.65088 0.0
C1263 C 0.69293 0.10234 0.65153 0.0
H1264 H 0.85106 0.25451 0.64199 0.0
H1265 H 0.67476 0.07508 0.65159 0.0
H1266 H 0.66575 0.17648 0.64727 0.0
H1267 H 0.83421 0.29818 0.63545 0.0
H1268 H 0.73824 0.0967 0.65276 0.0
H1269 H 0.98343 0.25221 0.7075 0.0
H1270 H 0.6526 0.11569 0.65032 0.0
H1271 H 0.80951 0.06896 0.71111 0.0
H1272 H 0.91978 0.22934 0.70631 0.0
H1273 H 0.82788 0.0257 0.71457 0.0
H1274 H 0.70923 0.23732 0.64265 0.0
H1275 H 0.007 0.21273 0.70713 0.0
H1276 H 0.99544 0.15228 0.70774 0.0
H1277 H 0.77208 0.28282 0.6377 0.0
H1278 H 0.95313 0.09064 0.70978 0.0
N1279 N 0.90721 0.17731 0.7048 0.0
C1280 C 0.9296 0.21175 0.70625 0.0
C1281 C 0.97898 0.2025 0.70664 0.0
C1282 C 0.95581 0.16718 0.70635 0.0
C1283 C 0.96577 0.22486 0.70691 0.0
C1284 C 0.91958 0.15522 0.70559 0.0
H1285 H 0.89063 0.04324 0.71267 0.0
N1286 N 0.86125 0.11024 0.70687 0.0
C1287 C 0.84726 0.05228 0.71227 0.0
C1288 C 0.89586 0.12059 0.70667 0.0
C1289 C 0.83695 0.07681 0.71036 0.0
C1290 C 0.8827 0.06228 0.71114 0.0
C1291 C 0.90757 0.09686 0.70861 0.0
O1292 O 0.81852 0.13179 0.73113 0.0
O1293 O 0.80124 0.15409 0.68716 0.0
O1294 O 0.81863 0.21145 0.6785 0.0
O1295 O 0.85737 0.2082 0.70149 0.0
O1296 O 0.78869 0.11161 0.70461 0.0
O1297 O 0.86315 0.18303 0.73072 0.0
O1298 O 0.84157 0.18992 0.62635 0.0
O1299 O 0.85783 0.17182 0.67068 0.0
O1300 O 0.84403 0.11736 0.67768 0.0
O1301 O 0.8011 0.11651 0.65668 0.0
O1302 O 0.87057 0.21323 0.65238 0.0
O1303 O 0.79455 0.14036 0.62746 0.0
C1304 C 0.77607 0.12655 0.69371 0.0
C1305 C 0.8521 0.15152 0.76117 0.0
C1306 C 0.84999 0.14857 0.79837 0.0
C1307 C 0.84007 0.15706 0.77989 0.0
C1308 C 0.87237 0.13479 0.79782 0.0
C1309 C 0.87463 0.13805 0.761 0.0
C1310 C 0.8847 0.12976 0.77925 0.0
C1311 C 0.84096 0.22364 0.69399 0.0
C1312 C 0.8398 0.15851 0.74196 0.0
C1313 C 0.94361 0.10849 0.7085 0.0
C1314 C 0.9677 0.14359 0.70735 0.0
C1315 C 0.88319 0.19899 0.6639 0.0
C1316 C 0.80933 0.16938 0.59592 0.0
C1317 C 0.82087 0.15995 0.57842 0.0
C1318 C 0.81386 0.16776 0.55889 0.0
C1319 C 0.79488 0.18499 0.55711 0.0
C1320 C 0.79005 0.18619 0.59391 0.0
C1321 C 0.78285 0.1939 0.57455 0.0
C1322 C 0.8209 0.10375 0.66272 0.0
C1323 C 0.81937 0.16301 0.61602 0.0
H1324 H 0.82248 0.1673 0.78004 0.0
H1325 H 0.88071 0.12834 0.81179 0.0
H1326 H 0.88423 0.13373 0.74679 0.0
H1327 H 0.90206 0.11932 0.779 0.0
H1328 H 0.8361 0.14728 0.58003 0.0
H1329 H 0.78906 0.19123 0.54225 0.0
H1330 H 0.78092 0.19362 0.60724 0.0
H1331 H 0.76809 0.20701 0.57305 0.0
C1332 C 0.38784 0.88875 0.04262 0.0
C1333 C 0.35937 0.89047 0.05092 0.0
H1334 H 0.43823 0.9158 0.02878 0.0
C1335 C 0.35875 0.9212 0.04929 0.0
H1336 H 0.38888 0.86531 0.04336 0.0
C1337 C 0.38699 0.95012 0.04069 0.0
C1338 C 0.41614 0.94875 0.03332 0.0
H1339 H 0.33732 0.92344 0.05565 0.0
H1340 H 0.38663 0.97393 0.04047 0.0
C1341 C 0.41599 0.91761 0.03404 0.0
C1342 C 0.0669 0.42316 0.0405 0.0
C1343 C 0.101 0.4502 0.04427 0.0
H1344 H 0.0142 0.40828 0.03219 0.0
C1345 C 0.10802 0.484 0.04189 0.0
H1346 H 0.06057 0.39688 0.04249 0.0
C1347 C 0.08147 0.49049 0.03559 0.0
C1348 C 0.04745 0.46327 0.03177 0.0
H1349 H 0.13403 0.50532 0.04475 0.0
H1350 H 0.0874 0.51671 0.034 0.0
C1351 C 0.04036 0.42965 0.03464 0.0
C1352 C 0.55447 0.638 0.05793 0.0
C1353 C 0.5427 0.65828 0.04864 0.0
H1354 H 0.55315 0.59017 0.05818 0.0
C1355 C 0.51754 0.64418 0.03307 0.0
H1356 H 0.57398 0.64845 0.06993 0.0
C1357 C 0.50497 0.61045 0.02655 0.0
C1358 C 0.5183 0.59072 0.03496 0.0
H1359 H 0.50789 0.65937 0.02585 0.0
H1360 H 0.48533 0.60017 0.01469 0.0
C1361 C 0.54259 0.60466 0.05108 0.0
C1362 C 0.91218 0.35936 0.96453 0.0
C1363 C 0.87851 0.34087 0.97278 0.0
H1364 H 0.96147 0.40572 0.96514 0.0
C1365 C 0.86767 0.35644 0.98736 0.0
H1366 H 0.921 0.34765 0.95329 0.0
C1367 C 0.89053 0.38996 0.9939 0.0
C1368 C 0.92503 0.40803 0.98651 0.0
H1369 H 0.84167 0.34254 0.99382 0.0
H1370 H 0.88126 0.40142 1.00496 0.0
C1371 C 0.93532 0.39255 0.97141 0.0
C1372 C 0.62574 0.51622 0.98507 0.0
C1373 C 0.65335 0.55011 0.98323 0.0
H1374 H 0.57114 0.48316 0.99138 0.0
C1375 C 0.6467 0.57699 0.98719 0.0
H1376 H 0.63012 0.49503 0.98209 0.0
C1377 C 0.61307 0.57023 0.99222 0.0
C1378 C 0.58548 0.53647 0.99407 0.0
H1379 H 0.66734 0.60334 0.98567 0.0
H1380 H 0.60849 0.59147 0.9945 0.0
C1381 C 0.59211 0.50945 0.99057 0.0
C1382 C 0.45537 0.09191 0.96102 0.0
C1383 C 0.47856 0.12681 0.96487 0.0
H1384 H 0.44009 0.04023 0.96843 0.0
C1385 C 0.50378 0.13611 0.98035 0.0
H1386 H 0.43537 0.08391 0.94937 0.0
C1387 C 0.50642 0.11114 0.99133 0.0
C1388 C 0.48387 0.07623 0.98711 0.0
H1389 H 0.52239 0.16275 0.98352 0.0
H1390 H 0.52691 0.11934 1.00268 0.0
C1391 C 0.45798 0.06688 0.97203 0.0
C1392 C 0.65159 0.06538 0.98694 0.0
C1393 C 0.65966 0.09927 0.98365 0.0
H1394 H 0.61189 0.01406 0.99351 0.0
C1395 C 0.63326 0.10776 0.9864 0.0
H1396 H 0.67113 0.05786 0.98469 0.0
C1397 C 0.59922 0.08252 0.9917 0.0
C1398 C 0.59118 0.04849 0.99423 0.0
H1399 H 0.63876 0.1337 0.98407 0.0
H1400 H 0.57896 0.08929 0.99292 0.0
C1401 C 0.61769 0.04026 0.99196 0.0
C1402 C 0.89531 0.52611 0.98136 0.0
C1403 C 0.9036 0.56008 0.97774 0.0
H1404 H 0.91466 0.49229 0.98898 0.0
C1405 C 0.93847 0.58639 0.98058 0.0
H1406 H 0.86886 0.50516 0.9792 0.0
C1407 C 0.96452 0.57895 0.98598 0.0
C1408 C 0.95638 0.54512 0.98922 0.0
H1409 H 0.94582 0.6129 0.97844 0.0
H1410 H 0.99122 0.59976 0.98755 0.0
C1411 C 0.92151 0.51869 0.98695 0.0
C1412 C 0.50863 0.36842 0.9783 0.0
C1413 C 0.48399 0.35194 0.96264 0.0
H1414 H 0.52898 0.40757 1.00111 0.0
C1415 C 0.45905 0.36193 0.95887 0.0
H1416 H 0.52786 0.36097 0.98179 0.0
C1417 C 0.4594 0.38853 0.97014 0.0
C1418 C 0.48463 0.40556 0.98547 0.0
H1419 H 0.43989 0.34987 0.9468 0.0
H1420 H 0.44029 0.39609 0.96658 0.0
C1421 C 0.50899 0.39493 0.98955 0.0
C1422 C 0.12648 0.65575 0.03312 0.0
C1423 C 0.12818 0.65812 0.05454 0.0
H1424 H 0.1 0.62521 0.00694 0.0
C1425 C 0.10275 0.63048 0.06589 0.0
H1426 H 0.14502 0.67677 0.02385 0.0
C1427 C 0.07685 0.60108 0.0561 0.0
C1428 C 0.07607 0.5984 0.03477 0.0
H1429 H 0.10344 0.631 0.08239 0.0
H1430 H 0.05816 0.57992 0.06525 0.0
C1431 C 0.10078 0.62615 0.02337 0.0
C1432 C 0.36581 0.47273 0.04017 0.0
C1433 C 0.33897 0.43885 0.04366 0.0
H1434 H 0.41965 0.50598 0.03197 0.0
C1435 C 0.34593 0.41215 0.03955 0.0
H1436 H 0.36163 0.49401 0.0432 0.0
C1437 C 0.37916 0.41909 0.03348 0.0
C1438 C 0.40617 0.45283 0.03069 0.0
H1439 H 0.32583 0.38568 0.04137 0.0
H1440 H 0.38391 0.39796 0.03118 0.0
C1441 C 0.39911 0.47965 0.03375 0.0
C1442 C 0.5748 0.92582 0.05255 0.0
C1443 C 0.56025 0.89184 0.04579 0.0
H1444 H 0.5737 0.97231 0.05131 0.0
C1445 C 0.5314 0.87838 0.03244 0.0
H1446 H 0.59659 0.93673 0.06315 0.0
C1447 C 0.51805 0.8989 0.02557 0.0
C1448 C 0.5333 0.93324 0.03195 0.0
H1449 H 0.51965 0.85223 0.02696 0.0
H1450 H 0.49591 0.88789 0.01525 0.0
C1451 C 0.56149 0.94621 0.04577 0.0
C1452 C 0.02443 0.25043 0.38275 0.0
C1453 C 0.02644 0.22055 0.38506 0.0
H1454 H 0.05097 0.30299 0.37353 0.0
C1455 C 0.05581 0.21982 0.37739 0.0
H1456 H 1.00221 0.25179 0.38862 0.0
C1457 C 0.08354 0.24897 0.36877 0.0
C1458 C 0.08243 0.27944 0.3675 0.0
H1459 H 0.0579 0.19701 0.37875 0.0
H1460 H 0.10647 0.248 0.36401 0.0
C1461 C 0.05233 0.27972 0.3742 0.0
C1462 C 0.78189 0.81742 0.37148 0.0
C1463 C 0.77522 0.7838 0.3742 0.0
H1464 H 0.76084 0.84957 0.36321 0.0
C1465 C 0.74141 0.75645 0.3701 0.0
H1466 H 0.80767 0.83899 0.37453 0.0
C1467 C 0.71471 0.76248 0.36387 0.0
C1468 C 0.72134 0.79596 0.361 0.0
H1469 H 0.73532 0.73029 0.3723 0.0
H1470 H 0.6887 0.7409 0.36136 0.0
C1471 C 0.75521 0.82346 0.36483 0.0
C1472 C 0.19317 0.98438 0.37389 0.0
C1473 C 0.21851 0.99805 0.38941 0.0
H1474 H 0.16209 0.94158 0.35436 0.0
C1475 C 0.23187 0.97812 0.39732 0.0
H1476 H 0.18225 0.9992 0.36768 0.0
C1477 C 0.22118 0.94562 0.38931 0.0
C1478 C 0.19652 0.93213 0.37335 0.0
H1479 H 0.25161 0.98818 0.40921 0.0
H1480 H 0.2328 0.9314 0.39545 0.0
C1481 C 0.1819 0.95152 0.36614 0.0
C1482 C 0.59273 0.68734 0.29903 0.0
C1483 C 0.55729 0.66986 0.30463 0.0
H1484 H 0.64198 0.73347 0.30076 0.0
C1485 C 0.54396 0.68763 0.31568 0.0
H1486 H 0.60368 0.67472 0.29008 0.0
C1487 C 0.56598 0.72172 0.32166 0.0
C1488 C 0.6018 0.73864 0.31684 0.0
H1489 H 0.51676 0.67494 0.32023 0.0
H1490 H 0.55497 0.73461 0.33027 0.0
C1491 C 0.61469 0.72123 0.30506 0.0
C1492 C 0.3015 0.8553 0.31957 0.0
C1493 C 0.32979 0.8888 0.31755 0.0
H1494 H 0.24705 0.8236 0.32682 0.0
C1495 C 0.32457 0.91638 0.32218 0.0
H1496 H 0.30478 0.83358 0.31609 0.0
C1497 C 0.29163 0.91071 0.32802 0.0
C1498 C 0.26333 0.87733 0.33 0.0
H1499 H 0.34575 0.94247 0.32057 0.0
H1500 H 0.28812 0.93249 0.33079 0.0
C1501 C 0.26859 0.8496 0.32588 0.0
C1502 C 0.16607 0.4673 0.31625 0.0
C1503 C 0.14003 0.45773 0.30126 0.0
H1504 H 0.19119 0.45107 0.33752 0.0
C1505 C 0.11756 0.42274 0.29716 0.0
H1506 H 0.18425 0.49399 0.31955 0.0
C1507 C 0.1216 0.39794 0.30749 0.0
C1508 C 0.1482 0.40762 0.32215 0.0
H1509 H 0.09701 0.41452 0.28584 0.0
H1510 H 0.10419 0.37123 0.30378 0.0
C1511 C 0.17012 0.44258 0.32654 0.0
C1512 C 0.3193 0.40142 0.32445 0.0
C1513 C 0.32619 0.43454 0.31982 0.0
H1514 H 0.28062 0.3501 0.33187 0.0
C1515 C 0.2989 0.44202 0.32129 0.0
H1516 H 0.33967 0.39479 0.32321 0.0
C1517 C 0.26508 0.41642 0.32669 0.0
C1518 C 0.25816 0.383 0.33039 0.0
H1519 H 0.30357 0.46737 0.31781 0.0
H1520 H 0.24411 0.42229 0.32693 0.0
C1521 C 0.28557 0.37585 0.32939 0.0
C1522 C 0.61165 0.91925 0.31109 0.0
C1523 C 0.57677 0.89312 0.30802 0.0
H1524 H 0.66431 0.93221 0.31801 0.0
C1525 C 0.56835 0.85899 0.31114 0.0
H1526 H 0.61912 0.94586 0.30932 0.0
C1527 C 0.59444 0.85126 0.3165 0.0
C1528 C 0.62932 0.87754 0.31901 0.0
H1529 H 0.54189 0.83818 0.3088 0.0
H1530 H 0.5875 0.82477 0.31816 0.0
C1531 C 0.63759 0.91151 0.31624 0.0
C1532 C 0.12993 0.70145 0.2962 0.0
C1533 C 0.15356 0.68982 0.29999 0.0
H1534 H 0.11431 0.73821 0.30345 0.0
C1535 C 0.1793 0.70631 0.3151 0.0
H1536 H 0.11 0.68945 0.28452 0.0
C1537 C 0.18191 0.73428 0.32584 0.0
C1538 C 0.15876 0.74641 0.3218 0.0
H1539 H 0.19761 0.6977 0.31858 0.0
H1540 H 0.20263 0.74678 0.33701 0.0
C1541 C 0.13254 0.72951 0.30697 0.0
C1542 C 0.81327 0.97025 0.37062 0.0
C1543 C 0.80465 0.98632 0.38615 0.0
H1544 H 0.7953 0.92929 0.34917 0.0
C1545 C 0.76911 0.97358 0.39073 0.0
H1546 H 0.84026 0.97963 0.36638 0.0
C1547 C 0.74294 0.94492 0.38036 0.0
C1548 C 0.7518 0.92833 0.36523 0.0
H1549 H 0.76151 0.9851 0.40275 0.0
H1550 H 0.71588 0.9354 0.38449 0.0
C1551 C 0.78729 0.94152 0.36047 0.0
C1552 C 0.0233 0.75354 0.37442 0.0
C1553 C 0.01588 0.77983 0.37888 0.0
H1554 H 0.06189 0.74017 0.3661 0.0
C1555 C 0.04263 0.81397 0.37599 0.0
H1556 H 1.0033 0.72693 0.37578 0.0
C1557 C 0.07629 0.82149 0.36988 0.0
C1558 C 0.08376 0.79501 0.36651 0.0
H1559 H 0.03807 0.83494 0.37929 0.0
H1560 H 0.09675 0.84795 0.36862 0.0
C1561 C 0.05683 0.76105 0.36864 0.0
C1562 C 0.20077 0.21364 0.37038 0.0
C1563 C 0.22855 0.22768 0.38452 0.0
H1564 H 0.16607 0.22212 0.35164 0.0
C1565 C 0.24211 0.26173 0.39091 0.0
H1566 H 0.18983 0.18745 0.36514 0.0
C1567 C 0.2288 0.28155 0.38312 0.0
C1568 C 0.20155 0.26794 0.36865 0.0
H1569 H 0.26303 0.27313 0.40206 0.0
H1570 H 0.2402 0.3077 0.38848 0.0
C1571 C 0.18741 0.2336 0.3625 0.0
C1572 C 0.71426 0.55472 0.70851 0.0
C1573 C 0.68601 0.55696 0.71674 0.0
H1574 H 0.7654 0.58136 0.69557 0.0
C1575 C 0.68671 0.58841 0.7158 0.0
H1576 H 0.71433 0.53078 0.70862 0.0
C1577 C 0.71582 0.61732 0.70786 0.0
C1578 C 0.74468 0.61534 0.70058 0.0
H1579 H 0.66559 0.59116 0.72214 0.0
H1580 H 0.71634 0.64157 0.7081 0.0
C1581 C 0.7434 0.58365 0.70074 0.0
C1582 C 0.44081 0.15176 0.71232 0.0
C1583 C 0.43836 0.1203 0.70715 0.0
H1584 H 0.41692 0.18312 0.71071 0.0
C1585 C 0.40974 0.09678 0.69518 0.0
H1586 H 0.46248 0.17053 0.72142 0.0
C1587 C 0.38386 0.10412 0.68904 0.0
C1588 C 0.38643 0.13543 0.69428 0.0
H1589 H 0.40657 0.07206 0.69122 0.0
H1590 H 0.36145 0.08506 0.68051 0.0
C1591 C 0.415 0.15917 0.70602 0.0
C1592 C 0.88548 0.3044 0.72609 0.0
C1593 C 0.87335 0.32451 0.71699 0.0
H1594 H 0.88507 0.25698 0.72589 0.0
C1595 C 0.84849 0.31053 0.70126 0.0
H1596 H 0.90479 0.31478 0.73821 0.0
C1597 C 0.83656 0.27708 0.69442 0.0
C1598 C 0.85025 0.25754 0.70267 0.0
H1599 H 0.83858 0.32559 0.69417 0.0
H1600 H 0.81714 0.26687 0.68244 0.0
C1601 C 0.87425 0.27134 0.71893 0.0
C1602 C 0.25832 0.00987 0.64483 0.0
C1603 C 0.22185 0.99497 0.64634 0.0
H1604 H 0.30824 0.05486 0.6486 0.0
C1605 C 0.2077 0.01506 0.65316 0.0
H1606 H 0.2699 0.99503 0.63944 0.0
C1607 C 0.22972 0.04943 0.65853 0.0
C1608 C 0.26621 0.06435 0.65684 0.0
H1609 H 0.17966 0.0041 0.65454 0.0
H1610 H 0.21818 0.06441 0.66372 0.0
C1611 C 0.28024 0.0442 0.64993 0.0
C1612 C 0.97981 0.24635 0.65253 0.0
C1613 C 0.98671 0.21965 0.64851 0.0
H1614 H 0.9416 0.26045 0.66057 0.0
C1615 C 0.95948 0.18568 0.65085 0.0
H1616 H 1.00006 0.27276 0.65063 0.0
C1617 C 0.926 0.17867 0.65688 0.0
C1618 C 0.91915 0.20552 0.66051 0.0
H1619 H 0.96402 0.16458 0.64792 0.0
H1620 H 0.90529 0.15232 0.65805 0.0
C1621 C 0.94636 0.23934 0.65821 0.0
C1622 C 0.78493 0.7577 0.63013 0.0
C1623 C 0.80878 0.79262 0.63342 0.0
H1624 H 0.76947 0.70612 0.63783 0.0
C1625 C 0.8351 0.80209 0.64824 0.0
H1626 H 0.76408 0.74959 0.61902 0.0
C1627 C 0.83811 0.77722 0.65909 0.0
C1628 C 0.81487 0.74229 0.65539 0.0
H1629 H 0.85423 0.82873 0.65095 0.0
H1630 H 0.85937 0.78547 0.66992 0.0
C1631 C 0.78794 0.7328 0.64099 0.0
C1632 C 0.98215 0.72561 0.66061 0.0
C1633 C 0.99165 0.7588 0.65414 0.0
H1634 H 0.94061 0.6762 0.66916 0.0
C1635 C 0.96624 0.76902 0.65488 0.0
H1636 H 1.00111 0.71709 0.66107 0.0
C1637 C 0.93166 0.74572 0.66043 0.0
C1638 C 0.92201 0.71188 0.66514 0.0
H1639 H 0.97242 0.79427 0.65 0.0
H1640 H 0.91209 0.75346 0.65966 0.0
C1641 C 0.94761 0.70225 0.66557 0.0
C1642 C 0.21142 0.17017 0.64011 0.0
C1643 C 0.22219 0.20518 0.63872 0.0
H1644 H 0.22708 0.13263 0.64502 0.0
C1645 C 0.25798 0.22931 0.64109 0.0
H1646 H 0.18412 0.15094 0.63835 0.0
C1647 C 0.28225 0.21882 0.64513 0.0
C1648 C 0.27126 0.18401 0.64708 0.0
H1649 H 0.26734 0.2564 0.63961 0.0
H1650 H 0.30968 0.2379 0.64668 0.0
C1651 C 0.23585 0.15969 0.6441 0.0
C1652 C 0.84188 0.03652 0.64426 0.0
C1653 C 0.81609 0.01923 0.6293 0.0
H1654 H 0.86366 0.07662 0.66646 0.0
C1655 C 0.7908 0.02893 0.62601 0.0
H1656 H 0.86143 0.02932 0.64734 0.0
C1657 C 0.79185 0.05598 0.63713 0.0
C1658 C 0.81809 0.07369 0.65183 0.0
H1659 H 0.77076 0.0162 0.61446 0.0
H1660 H 0.77239 0.06327 0.63399 0.0
C1661 C 0.84289 0.06343 0.65538 0.0
C1662 C 0.46467 0.31 0.69683 0.0
C1663 C 0.45421 0.32674 0.71093 0.0
H1664 H 0.44907 0.26751 0.67656 0.0
C1665 C 0.41824 0.3135 0.7143 0.0
H1666 H 0.49211 0.31912 0.69404 0.0
C1667 C 0.39343 0.28355 0.70438 0.0
C1668 C 0.40406 0.26619 0.69086 0.0
H1669 H 0.40925 0.32601 0.72484 0.0
H1670 H 0.366 0.27358 0.70772 0.0
C1671 C 0.43992 0.28016 0.68689 0.0
C1672 C 0.69909 0.13881 0.70662 0.0
C1673 C 0.67238 0.10475 0.70979 0.0
H1674 H 0.75299 0.17258 0.69884 0.0
C1675 C 0.67975 0.07833 0.70565 0.0
H1676 H 0.69461 0.15989 0.70971 0.0
C1677 C 0.7132 0.0857 0.69979 0.0
C1678 C 0.74001 0.11959 0.69725 0.0
H1679 H 0.65977 0.05177 0.70725 0.0
H1680 H 0.71825 0.06478 0.69741 0.0
C1681 C 0.7326 0.14615 0.70041 0.0
C1682 C 0.86003 0.54359 0.70207 0.0
C1683 C 0.88747 0.55661 0.71641 0.0
H1684 H 0.8259 0.55347 0.68374 0.0
C1685 C 0.90064 0.59004 0.72386 0.0
H1686 H 0.84935 0.51787 0.69604 0.0
C1687 C 0.88755 0.61041 0.71674 0.0
C1688 C 0.86092 0.59799 0.70188 0.0
H1689 H 0.92126 0.60058 0.73522 0.0
H1690 H 0.89877 0.63612 0.72282 0.0
C1691 C 0.84685 0.5641 0.69487 0.0
C1692 C 0.52571 0.98123 0.18304 0.0
C1693 C 0.49083 0.96851 0.18911 0.0
H1694 H 0.56477 0.00778 0.16027 0.0
C1695 C 0.46768 0.97126 0.17555 0.0
H1696 H 0.54432 0.9799 0.19318 0.0
C1697 C 0.47937 0.98693 0.15651 0.0
C1698 C 0.51461 0.00083 0.15087 0.0
H1699 H 0.44065 0.96166 0.17977 0.0
H1700 H 0.46121 0.98935 0.14653 0.0
C1701 C 0.5375 0.99742 0.16424 0.0
C1702 C 0.04784 0.51189 0.16388 0.0
C1703 C 0.04216 0.52655 0.18132 0.0
H1704 H 0.0302 0.49097 0.13413 0.0
C1705 C 0.01279 0.53082 0.18212 0.0
H1706 H 0.07002 0.50784 0.16306 0.0
C1707 C 0.99026 0.52188 0.16533 0.0
C1708 C 0.99651 0.5081 0.14756 0.0
H1709 H 0.008 0.5422 0.19544 0.0
H1710 H 0.96867 0.52681 0.16605 0.0
C1711 C 0.02511 0.50246 0.14728 0.0
C1712 C 0.48453 0.46864 0.18632 0.0
C1713 C 0.4815 0.49759 0.19068 0.0
H1714 H 0.49789 0.44176 0.16437 0.0
C1715 C 0.48829 0.52126 0.17504 0.0
H1716 H 0.47992 0.45008 0.19803 0.0
C1717 C 0.49882 0.51655 0.1557 0.0
C1718 C 0.50312 0.48824 0.15164 0.0
H1719 H 0.48595 0.54371 0.17784 0.0
H1720 H 0.50478 0.53569 0.14415 0.0
C1721 C 0.49526 0.46407 0.16708 0.0
C1722 C 0.9914 0.50361 0.84686 0.0
C1723 C 0.00455 0.49171 0.83122 0.0
H1724 H 0.99521 0.51929 0.87806 0.0
C1725 C 0.03186 0.48535 0.83592 0.0
H1726 H 0.9701 0.50841 0.84395 0.0
C1727 C 0.04553 0.49059 0.85563 0.0
C1728 C 0.03281 0.50299 0.87121 0.0
H1729 H 0.04321 0.47675 0.8243 0.0
H1730 H 0.0661 0.48477 0.85862 0.0
C1731 C 0.00547 0.50936 0.86657 0.0
C1732 C 0.48118 0.46731 0.83879 0.0
C1733 C 0.51721 0.47907 0.83727 0.0
H1734 H 0.43931 0.46327 0.85729 0.0
C1735 C 0.53907 0.49765 0.85373 0.0
H1736 H 0.46349 0.45247 0.82655 0.0
C1737 C 0.52518 0.50374 0.87139 0.0
C1738 C 0.48908 0.49147 0.87304 0.0
H1739 H 0.56702 0.50759 0.85296 0.0
H1740 H 0.5428 0.51825 0.88373 0.0
C1741 C 0.46729 0.47345 0.85644 0.0
C1742 C 0.48627 0.0356 0.84731 0.0
C1743 C 0.50799 0.03086 0.83354 0.0
H1744 H 0.46142 0.02351 0.8767 0.0
C1745 C 0.5226 0.01086 0.83957 0.0
H1746 H 0.47468 0.0509 0.84307 0.0
C1747 C 0.51454 0.99481 0.85856 0.0
C1748 C 0.4923 0.99897 0.87213 0.0
H1749 H 0.53911 0.00643 0.82924 0.0
H1750 H 0.52518 0.97856 0.86251 0.0
C1751 C 0.47882 0.02011 0.86653 0.0
C1752 C 0.19375 0.33021 0.52073 0.0
C1753 C 0.15849 0.30632 0.52472 0.0
H1754 H 0.23121 0.3652 0.49958 0.0
C1755 C 0.13363 0.29902 0.50922 0.0
H1756 H 0.21361 0.33691 0.53234 0.0
C1757 C 0.14383 0.31552 0.49031 0.0
C1758 C 0.17902 0.34 0.4866 0.0
H1759 H 0.10629 0.28063 0.51172 0.0
H1760 H 0.12403 0.30982 0.4788 0.0
C1761 C 0.20384 0.34679 0.50198 0.0
C1762 C 0.68159 0.86057 0.51145 0.0
C1763 C 0.71054 0.85561 0.51094 0.0
H1764 H 0.63817 0.85736 0.49498 0.0
C1765 C 0.71596 0.84028 0.49374 0.0
H1766 H 0.67701 0.87246 0.5246 0.0
C1767 C 0.69349 0.83101 0.47703 0.0
C1768 C 0.66547 0.83754 0.47695 0.0
H1769 H 0.73784 0.83574 0.49316 0.0
H1770 H 0.69843 0.81912 0.46402 0.0
C1771 C 0.65933 0.85179 0.49454 0.0
C1772 C 0.15411 0.80477 0.52086 0.0
C1773 C 0.15838 0.83669 0.52663 0.0
H1774 H 0.16199 0.77542 0.49781 0.0
C1775 C 0.17261 0.86354 0.5125 0.0
H1776 H 0.14358 0.78372 0.53149 0.0
C1777 C 0.18286 0.85866 0.49312 0.0
C1778 C 0.17973 0.82707 0.48769 0.0
H1779 H 0.17612 0.88838 0.51654 0.0
H1780 H 0.19433 0.8799 0.48264 0.0
C1781 C 0.1649 0.80009 0.50167 0.0
C1782 C 0.66044 0.80327 0.17571 0.0
C1783 C 0.67377 0.82998 0.16152 0.0
H1784 H 0.66411 0.78767 0.20598 0.0
C1785 C 0.70119 0.86234 0.16739 0.0
H1786 H 0.63922 0.77812 0.17153 0.0
C1787 C 0.71572 0.86763 0.18692 0.0
C1788 C 0.70265 0.84084 0.20103 0.0
H1789 H 0.71206 0.88327 0.15668 0.0
H1790 H 0.73728 0.89265 0.19099 0.0
C1791 C 0.67453 0.80875 0.19537 0.0
C1792 C 0.19474 0.84693 0.17605 0.0
C1793 C 0.19679 0.81683 0.1753 0.0
H1794 H 0.18065 0.87852 0.19354 0.0
C1795 C 0.18453 0.79463 0.19206 0.0
H1796 H 0.20425 0.86476 0.16352 0.0
C1797 C 0.17116 0.80256 0.20924 0.0
C1798 C 0.16952 0.83283 0.21012 0.0
H1799 H 0.18493 0.77084 0.19185 0.0
H1800 H 0.16175 0.78475 0.22179 0.0
C1801 C 0.18122 0.85482 0.19326 0.0
C1802 C 0.15651 0.372 0.18336 0.0
C1803 C 0.17728 0.36686 0.16907 0.0
H1804 H 0.13242 0.3596 0.21296 0.0
C1805 C 0.19087 0.34565 0.17436 0.0
H1806 H 0.1457 0.38821 0.17971 0.0
C1807 C 0.18281 0.32894 0.19313 0.0
C1808 C 0.16154 0.33354 0.20725 0.0
H1809 H 0.20661 0.34085 0.16362 0.0
H1810 H 0.19275 0.3119 0.19651 0.0
C1811 C 0.14905 0.3558 0.20238 0.0
C1812 C 0.79523 0.6376 0.84433 0.0
C1813 C 0.81833 0.63479 0.8579 0.0
H1814 H 0.78885 0.65576 0.81533 0.0
C1815 C 0.85322 0.64746 0.85186 0.0
H1816 H 0.7682 0.62803 0.84855 0.0
C1817 C 0.86507 0.66368 0.83309 0.0
C1818 C 0.84222 0.66716 0.81971 0.0
H1819 H 0.87177 0.64606 0.86202 0.0
H1820 H 0.89233 0.67402 0.82912 0.0
C1821 C 0.80698 0.6533 0.82532 0.0
C1822 C 0.35779 0.16461 0.83896 0.0
C1823 C 0.38416 0.19889 0.84181 0.0
H1824 H 0.31513 0.12843 0.82041 0.0
C1825 C 0.38638 0.22353 0.82796 0.0
H1826 H 0.35557 0.14489 0.84916 0.0
C1827 C 0.36345 0.21401 0.8114 0.0
C1828 C 0.33754 0.17969 0.8084 0.0
H1829 H 0.40583 0.25027 0.82991 0.0
H1830 H 0.36594 0.23355 0.80095 0.0
C1831 C 0.33464 0.15514 0.82248 0.0
C1832 C 0.83138 0.19209 0.84246 0.0
C1833 C 0.81916 0.16662 0.85747 0.0
H1834 H 0.85029 0.20619 0.8119 0.0
C1835 C 0.81511 0.13452 0.85244 0.0
H1836 H 0.83461 0.21702 0.84588 0.0
C1837 C 0.82438 0.12846 0.83311 0.0
C1838 C 0.83746 0.1542 0.81827 0.0
H1839 H 0.80605 0.1145 0.86372 0.0
H1840 H 0.82175 0.10373 0.82983 0.0
C1841 C 0.84017 0.18585 0.823 0.0
C1842 C 0.33683 0.15751 0.52114 0.0
C1843 C 0.34392 0.18115 0.50547 0.0
H1844 H 0.34905 0.14957 0.55162 0.0
C1845 C 0.36861 0.21576 0.50893 0.0
H1846 H 0.31787 0.13069 0.51884 0.0
C1847 C 0.38674 0.22635 0.52742 0.0
C1848 C 0.38009 0.20269 0.54297 0.0
H1849 H 0.37481 0.23445 0.49705 0.0
H1850 H 0.40629 0.25305 0.52952 0.0
C1851 C 0.3545 0.16827 0.53985 0.0
C1852 C 0.83522 0.11648 0.52153 0.0
C1853 C 0.85486 0.14094 0.50663 0.0
H1854 H 0.80703 0.10582 0.54963 0.0
C1855 C 0.85948 0.17403 0.50869 0.0
H1856 H 0.83024 0.09049 0.52026 0.0
C1857 C 0.84545 0.18254 0.52539 0.0
C1858 C 0.82688 0.1583 0.54052 0.0
H1859 H 0.87476 0.1937 0.49772 0.0
H1860 H 0.85006 0.20839 0.5268 0.0
C1861 C 0.82169 0.12514 0.53833 0.0
C1862 C 0.82633 0.70934 0.51645 0.0
C1863 C 0.8476 0.70396 0.50266 0.0
H1864 H 0.80067 0.69697 0.54563 0.0
C1865 C 0.86054 0.68243 0.50847 0.0
H1866 H 0.816 0.7258 0.51242 0.0
C1867 C 0.85135 0.66564 0.52722 0.0
C1868 C 0.82956 0.67044 0.54082 0.0
H1869 H 0.87663 0.67741 0.49814 0.0
H1870 H 0.86076 0.6483 0.53096 0.0
C1871 C 0.81772 0.69303 0.53547 0.0
loop_
_geom_bond_atom_site_label_1
_geom_bond_atom_site_label_2
_geom_bond_distance
_geom_bond_site_symmetry_2
_ccdc_geom_bond_type
P0 O11 1.490 . S
P0 C14 1.812 . S
P0 C20 1.803 . S
P0 C26 1.819 . S
H1 C15 0.941 . S
H2 C16 0.939 . S
H3 C18 0.940 . S
H4 C19 0.940 . S
H5 C21 0.939 . S
H6 C22 0.942 . S
H7 C24 0.940 . S
H8 C25 0.939 . S
H9 C27 0.941 . S
H10 C31 0.939 . S
O11 P0 1.490 . S
H12 C28 0.939 . S
H13 C30 0.940 . S
C14 P0 1.812 . S
C14 C15 1.389 . S
C14 C19 1.391 . S
C15 H1 0.941 . S
C15 C14 1.389 . S
C15 C16 1.397 . S
C16 H2 0.939 . S
C16 C15 1.397 . S
C16 C17 1.378 . S
C17 C16 1.378 . S
C17 C18 1.378 . S
C18 H3 0.940 . S
C18 C17 1.378 . S
C18 C19 1.396 . S
C19 H4 0.940 . S
C19 C14 1.391 . S
C19 C18 1.396 . S
C20 P0 1.803 . S
C20 C21 1.378 . S
C20 C25 1.400 . S
C21 H5 0.939 . S
C21 C20 1.378 . S
C21 C22 1.361 . S
C22 H6 0.942 . S
C22 C21 1.361 . S
C22 C23 1.369 . S
C23 C22 1.369 . S
C23 C24 1.404 . S
C24 H7 0.940 . S
C24 C23 1.404 . S
C24 C25 1.389 . S
C25 H8 0.939 . S
C25 C20 1.400 . S
C25 C24 1.389 . S
C26 P0 1.819 . S
C26 C27 1.391 . S
C26 C31 1.391 . S
C27 H9 0.941 . S
C27 C26 1.391 . S
C27 C28 1.396 . S
C28 H12 0.939 . S
C28 C27 1.396 . S
C28 C29 1.397 . S
C29 C28 1.397 . S
C29 C30 1.385 . S
C30 H13 0.940 . S
C30 C29 1.385 . S
C30 C31 1.388 . S
C31 H10 0.939 . S
C31 C26 1.391 . S
C31 C30 1.388 . S
P32 O43 1.490 . S
P32 C46 1.812 . S
P32 C52 1.803 . S
P32 C58 1.819 . S
H33 C47 0.941 . S
H34 C48 0.939 . S
H35 C50 0.940 . S
H36 C51 0.940 . S
H37 C53 0.939 . S
H38 C54 0.942 1_455 S
H39 C56 0.940 . S
H40 C57 0.939 . S
H41 C59 0.941 . S
H42 C63 0.939 . S
O43 P32 1.490 . S
H44 C60 0.939 . S
H45 C62 0.940 . S
C46 P32 1.812 . S
C46 C47 1.389 . S
C46 C51 1.391 . S
C47 H33 0.941 . S
C47 C46 1.389 . S
C47 C48 1.397 . S
C48 H34 0.939 . S
C48 C47 1.397 . S
C48 C49 1.378 . S
C49 C48 1.378 . S
C49 C50 1.378 . S
C50 H35 0.940 . S
C50 C49 1.378 . S
C50 C51 1.396 . S
C51 H36 0.940 . S
C51 C46 1.391 . S
C51 C50 1.396 . S
C52 P32 1.803 . S
C52 C53 1.378 . S
C52 C57 1.400 . S
C53 H37 0.939 . S
C53 C52 1.378 . S
C53 C54 1.361 . S
C54 H38 0.942 1_655 S
C54 C53 1.361 . S
C54 C55 1.369 . S
C55 C54 1.369 . S
C55 C56 1.404 . S
C56 H39 0.940 . S
C56 C55 1.404 . S
C56 C57 1.389 . S
C57 H40 0.939 . S
C57 C52 1.400 . S
C57 C56 1.389 . S
C58 P32 1.819 . S
C58 C59 1.391 . S
C58 C63 1.391 . S
C59 H41 0.941 . S
C59 C58 1.391 . S
C59 C60 1.396 . S
C60 H44 0.939 . S
C60 C59 1.396 . S
C60 C61 1.397 . S
C61 C60 1.397 . S
C61 C62 1.385 . S
C62 H45 0.940 . S
C62 C61 1.385 . S
C62 C63 1.388 . S
C63 H42 0.939 . S
C63 C58 1.391 . S
C63 C62 1.388 . S
P64 O75 1.490 . S
P64 C78 1.812 . S
P64 C84 1.803 . S
P64 C90 1.819 . S
H65 C79 0.941 . S
H66 C80 0.939 . S
H67 C82 0.940 . S
H68 C83 0.940 . S
H69 C85 0.939 . S
H70 C86 0.942 . S
H71 C88 0.940 . S
H72 C89 0.939 . S
H73 C91 0.941 . S
H74 C95 0.939 . S
O75 P64 1.490 . S
H76 C92 0.939 . S
H77 C94 0.940 . S
C78 P64 1.812 . S
C78 C79 1.389 . S
C78 C83 1.391 . S
C79 H65 0.941 . S
C79 C78 1.389 . S
C79 C80 1.397 . S
C80 H66 0.939 . S
C80 C79 1.397 . S
C80 C81 1.378 . S
C81 C80 1.378 . S
C81 C82 1.378 . S
C82 H67 0.940 . S
C82 C81 1.378 . S
C82 C83 1.396 . S
C83 H68 0.940 . S
C83 C78 1.391 . S
C83 C82 1.396 . S
C84 P64 1.803 . S
C84 C85 1.378 . S
C84 C89 1.400 . S
C85 H69 0.939 . S
C85 C84 1.378 . S
C85 C86 1.361 . S
C86 H70 0.942 . S
C86 C85 1.361 . S
C86 C87 1.369 . S
C87 C86 1.369 . S
C87 C88 1.404 . S
C88 H71 0.940 . S
C88 C87 1.404 . S
C88 C89 1.389 . S
C89 H72 0.939 . S
C89 C84 1.400 . S
C89 C88 1.389 . S
C90 P64 1.819 . S
C90 C91 1.391 . S
C90 C95 1.391 . S
C91 H73 0.941 . S
C91 C90 1.391 . S
C91 C92 1.396 . S
C92 H76 0.939 . S
C92 C91 1.396 . S
C92 C93 1.397 . S
C93 C92 1.397 . S
C93 C94 1.385 . S
C94 H77 0.940 . S
C94 C93 1.385 . S
C94 C95 1.388 . S
C95 H74 0.939 . S
C95 C90 1.391 . S
C95 C94 1.388 . S
P96 O107 1.490 . S
P96 C110 1.812 . S
P96 C116 1.803 . S
P96 C122 1.819 . S
H97 C111 0.941 . S
H98 C112 0.939 . S
H99 C114 0.940 . S
H100 C115 0.940 . S
H101 C117 0.939 . S
H102 C118 0.942 . S
H103 C120 0.940 . S
H104 C121 0.939 . S
H105 C123 0.941 . S
H106 C127 0.939 . S
O107 P96 1.490 . S
H108 C124 0.939 . S
H109 C126 0.940 . S
C110 P96 1.812 . S
C110 C111 1.389 . S
C110 C115 1.391 . S
C111 H97 0.941 . S
C111 C110 1.389 . S
C111 C112 1.397 . S
C112 H98 0.939 . S
C112 C111 1.397 . S
C112 C113 1.378 . S
C113 C112 1.378 . S
C113 C114 1.378 . S
C114 H99 0.940 . S
C114 C113 1.378 . S
C114 C115 1.396 . S
C115 H100 0.940 . S
C115 C110 1.391 . S
C115 C114 1.396 . S
C116 P96 1.803 . S
C116 C117 1.378 . S
C116 C121 1.400 . S
C117 H101 0.939 . S
C117 C116 1.378 . S
C117 C118 1.361 . S
C118 H102 0.942 . S
C118 C117 1.361 . S
C118 C119 1.369 . S
C119 C118 1.369 . S
C119 C120 1.404 . S
C120 H103 0.940 . S
C120 C119 1.404 . S
C120 C121 1.389 . S
C121 H104 0.939 . S
C121 C116 1.400 . S
C121 C120 1.389 . S
C122 P96 1.819 . S
C122 C123 1.391 . S
C122 C127 1.391 . S
C123 H105 0.941 . S
C123 C122 1.391 . S
C123 C124 1.396 . S
C124 H108 0.939 . S
C124 C123 1.396 . S
C124 C125 1.397 . S
C125 C124 1.397 . S
C125 C126 1.385 . S
C126 H109 0.940 . S
C126 C125 1.385 . S
C126 C127 1.388 . S
C127 H106 0.939 . S
C127 C122 1.391 . S
C127 C126 1.388 . S
P128 O139 1.490 . S
P128 C142 1.812 . S
P128 C148 1.803 . S
P128 C154 1.819 . S
H129 C143 0.941 . S
H130 C144 0.939 . S
H131 C146 0.940 . S
H132 C147 0.940 . S
H133 C149 0.939 . S
H134 C150 0.942 . S
H135 C152 0.940 . S
H136 C153 0.939 . S
H137 C155 0.941 . S
H138 C159 0.939 . S
O139 P128 1.490 . S
H140 C156 0.939 . S
H141 C158 0.940 . S
C142 P128 1.812 . S
C142 C143 1.389 . S
C142 C147 1.391 . S
C143 H129 0.941 . S
C143 C142 1.389 . S
C143 C144 1.397 . S
C144 H130 0.939 . S
C144 C143 1.397 . S
C144 C145 1.378 . S
C145 C144 1.378 . S
C145 C146 1.378 . S
C146 H131 0.940 . S
C146 C145 1.378 . S
C146 C147 1.396 . S
C147 H132 0.940 . S
C147 C142 1.391 . S
C147 C146 1.396 . S
C148 P128 1.803 . S
C148 C149 1.378 . S
C148 C153 1.400 . S
C149 H133 0.939 . S
C149 C148 1.378 . S
C149 C150 1.361 . S
C150 H134 0.942 . S
C150 C149 1.361 . S
C150 C151 1.369 . S
C151 C150 1.369 . S
C151 C152 1.404 . S
C152 H135 0.940 . S
C152 C151 1.404 . S
C152 C153 1.389 . S
C153 H136 0.939 . S
C153 C148 1.400 . S
C153 C152 1.389 . S
C154 P128 1.819 . S
C154 C155 1.391 . S
C154 C159 1.391 . S
C155 H137 0.941 . S
C155 C154 1.391 . S
C155 C156 1.396 . S
C156 H140 0.939 . S
C156 C155 1.396 . S
C156 C157 1.397 . S
C157 C156 1.397 . S
C157 C158 1.385 . S
C158 H141 0.940 . S
C158 C157 1.385 . S
C158 C159 1.388 . S
C159 H138 0.939 . S
C159 C154 1.391 . S
C159 C158 1.388 . S
P160 O171 1.490 . S
P160 C174 1.812 . S
P160 C180 1.803 . S
P160 C186 1.819 . S
H161 C175 0.941 . S
H162 C176 0.939 . S
H163 C178 0.940 . S
H164 C179 0.940 . S
H165 C181 0.939 . S
H166 C182 0.942 . S
H167 C184 0.940 . S
H168 C185 0.939 . S
H169 C187 0.941 . S
H170 C191 0.939 . S
O171 P160 1.490 . S
H172 C188 0.939 . S
H173 C190 0.940 . S
C174 P160 1.812 . S
C174 C175 1.389 . S
C174 C179 1.391 . S
C175 H161 0.941 . S
C175 C174 1.389 . S
C175 C176 1.397 . S
C176 H162 0.939 . S
C176 C175 1.397 . S
C176 C177 1.378 . S
C177 C176 1.378 . S
C177 C178 1.378 . S
C178 H163 0.940 . S
C178 C177 1.378 . S
C178 C179 1.396 . S
C179 H164 0.940 . S
C179 C174 1.391 . S
C179 C178 1.396 . S
C180 P160 1.803 . S
C180 C181 1.378 . S
C180 C185 1.400 . S
C181 H165 0.939 . S
C181 C180 1.378 . S
C181 C182 1.361 . S
C182 H166 0.942 . S
C182 C181 1.361 . S
C182 C183 1.369 . S
C183 C182 1.369 . S
C183 C184 1.404 . S
C184 H167 0.940 . S
C184 C183 1.404 . S
C184 C185 1.389 . S
C185 H168 0.939 . S
C185 C180 1.400 . S
C185 C184 1.389 . S
C186 P160 1.819 . S
C186 C187 1.391 . S
C186 C191 1.391 . S
C187 H169 0.941 . S
C187 C186 1.391 . S
C187 C188 1.396 . S
C188 H172 0.939 . S
C188 C187 1.396 . S
C188 C189 1.397 . S
C189 C188 1.397 . S
C189 C190 1.385 . S
C190 H173 0.940 . S
C190 C189 1.385 . S
C190 C191 1.388 . S
C191 H170 0.939 . S
C191 C186 1.391 . S
C191 C190 1.388 . S
P192 O203 1.490 . S
P192 C206 1.812 . S
P192 C212 1.803 . S
P192 C218 1.819 . S
H193 C207 0.941 . S
H194 C208 0.939 . S
H195 C210 0.940 . S
H196 C211 0.940 . S
H197 C213 0.939 . S
H198 C214 0.942 . S
H199 C216 0.940 . S
H200 C217 0.939 . S
H201 C219 0.941 . S
H202 C223 0.939 . S
O203 P192 1.490 . S
H204 C220 0.939 . S
H205 C222 0.940 . S
C206 P192 1.812 . S
C206 C207 1.389 . S
C206 C211 1.391 . S
C207 H193 0.941 . S
C207 C206 1.389 . S
C207 C208 1.397 . S
C208 H194 0.939 . S
C208 C207 1.397 . S
C208 C209 1.378 . S
C209 C208 1.378 . S
C209 C210 1.378 . S
C210 H195 0.940 . S
C210 C209 1.378 . S
C210 C211 1.396 . S
C211 H196 0.940 . S
C211 C206 1.391 . S
C211 C210 1.396 . S
C212 P192 1.803 . S
C212 C213 1.378 . S
C212 C217 1.400 . S
C213 H197 0.939 . S
C213 C212 1.378 . S
C213 C214 1.361 . S
C214 H198 0.942 . S
C214 C213 1.361 . S
C214 C215 1.369 . S
C215 C214 1.369 . S
C215 C216 1.404 . S
C216 H199 0.940 . S
C216 C215 1.404 . S
C216 C217 1.389 . S
C217 H200 0.939 . S
C217 C212 1.400 . S
C217 C216 1.389 . S
C218 P192 1.819 . S
C218 C219 1.391 . S
C218 C223 1.391 . S
C219 H201 0.941 . S
C219 C218 1.391 . S
C219 C220 1.396 . S
C220 H204 0.939 . S
C220 C219 1.396 . S
C220 C221 1.397 . S
C221 C220 1.397 . S
C221 C222 1.385 . S
C222 H205 0.940 . S
C222 C221 1.385 . S
C222 C223 1.388 . S
C223 H202 0.939 . S
C223 C218 1.391 . S
C223 C222 1.388 . S
P224 O235 1.490 . S
P224 C238 1.812 . S
P224 C244 1.803 . S
P224 C250 1.819 . S
H225 C239 0.941 . S
H226 C240 0.939 . S
H227 C242 0.940 . S
H228 C243 0.940 . S
H229 C245 0.939 . S
H230 C246 0.942 . S
H231 C248 0.940 . S
H232 C249 0.939 . S
H233 C251 0.941 . S
H234 C255 0.939 . S
O235 P224 1.490 . S
H236 C252 0.939 . S
H237 C254 0.940 . S
C238 P224 1.812 . S
C238 C239 1.389 . S
C238 C243 1.391 . S
C239 H225 0.941 . S
C239 C238 1.389 . S
C239 C240 1.397 . S
C240 H226 0.939 . S
C240 C239 1.397 . S
C240 C241 1.378 . S
C241 C240 1.378 . S
C241 C242 1.378 . S
C242 H227 0.940 . S
C242 C241 1.378 . S
C242 C243 1.396 . S
C243 H228 0.940 . S
C243 C238 1.391 . S
C243 C242 1.396 . S
C244 P224 1.803 . S
C244 C245 1.378 . S
C244 C249 1.400 . S
C245 H229 0.939 . S
C245 C244 1.378 . S
C245 C246 1.361 . S
C246 H230 0.942 . S
C246 C245 1.361 . S
C246 C247 1.369 . S
C247 C246 1.369 . S
C247 C248 1.404 . S
C248 H231 0.940 . S
C248 C247 1.404 . S
C248 C249 1.389 . S
C249 H232 0.939 . S
C249 C244 1.400 . S
C249 C248 1.389 . S
C250 P224 1.819 . S
C250 C251 1.391 . S
C250 C255 1.391 . S
C251 H233 0.941 . S
C251 C250 1.391 . S
C251 C252 1.396 . S
C252 H236 0.939 . S
C252 C251 1.396 . S
C252 C253 1.397 . S
C253 C252 1.397 . S
C253 C254 1.385 . S
C254 H237 0.940 . S
C254 C253 1.385 . S
C254 C255 1.388 . S
C255 H234 0.939 . S
C255 C250 1.391 . S
C255 C254 1.388 . S
P256 O267 1.490 . S
P256 C270 1.812 . S
P256 C276 1.803 . S
P256 C282 1.819 . S
H257 C271 0.941 . S
H258 C272 0.939 . S
H259 C274 0.940 . S
H260 C275 0.940 . S
H261 C277 0.939 . S
H262 C278 0.942 . S
H263 C280 0.940 . S
H264 C281 0.939 . S
H265 C283 0.941 . S
H266 C287 0.939 . S
O267 P256 1.490 . S
H268 C284 0.939 . S
H269 C286 0.940 . S
C270 P256 1.812 . S
C270 C271 1.389 . S
C270 C275 1.391 . S
C271 H257 0.941 . S
C271 C270 1.389 . S
C271 C272 1.397 . S
C272 H258 0.939 . S
C272 C271 1.397 . S
C272 C273 1.378 . S
C273 C272 1.378 . S
C273 C274 1.378 . S
C274 H259 0.940 . S
C274 C273 1.378 . S
C274 C275 1.396 . S
C275 H260 0.940 . S
C275 C270 1.391 . S
C275 C274 1.396 . S
C276 P256 1.803 . S
C276 C277 1.378 . S
C276 C281 1.400 . S
C277 H261 0.939 . S
C277 C276 1.378 . S
C277 C278 1.361 . S
C278 H262 0.942 . S
C278 C277 1.361 . S
C278 C279 1.369 . S
C279 C278 1.369 . S
C279 C280 1.404 . S
C280 H263 0.940 . S
C280 C279 1.404 . S
C280 C281 1.389 . S
C281 H264 0.939 . S
C281 C276 1.400 . S
C281 C280 1.389 . S
C282 P256 1.819 . S
C282 C283 1.391 . S
C282 C287 1.391 . S
C283 H265 0.941 . S
C283 C282 1.391 . S
C283 C284 1.396 . S
C284 H268 0.939 . S
C284 C283 1.396 . S
C284 C285 1.397 . S
C285 C284 1.397 . S
C285 C286 1.385 . S
C286 H269 0.940 . S
C286 C285 1.385 . S
C286 C287 1.388 . S
C287 H266 0.939 . S
C287 C282 1.391 . S
C287 C286 1.388 . S
P288 O299 1.490 . S
P288 C302 1.812 . S
P288 C308 1.803 . S
P288 C314 1.819 . S
H289 C303 0.941 . S
H290 C304 0.939 . S
H291 C306 0.940 . S
H292 C307 0.940 . S
H293 C309 0.939 . S
H294 C310 0.942 . S
H295 C312 0.940 . S
H296 C313 0.939 . S
H297 C315 0.941 . S
H298 C319 0.939 . S
O299 P288 1.490 . S
H300 C316 0.939 . S
H301 C318 0.940 . S
C302 P288 1.812 . S
C302 C303 1.389 . S
C302 C307 1.391 . S
C303 H289 0.941 . S
C303 C302 1.389 . S
C303 C304 1.397 . S
C304 H290 0.939 . S
C304 C303 1.397 . S
C304 C305 1.378 . S
C305 C304 1.378 . S
C305 C306 1.378 . S
C306 H291 0.940 . S
C306 C305 1.378 . S
C306 C307 1.396 . S
C307 H292 0.940 . S
C307 C302 1.391 . S
C307 C306 1.396 . S
C308 P288 1.803 . S
C308 C309 1.378 . S
C308 C313 1.400 . S
C309 H293 0.939 . S
C309 C308 1.378 . S
C309 C310 1.361 . S
C310 H294 0.942 . S
C310 C309 1.361 . S
C310 C311 1.369 . S
C311 C310 1.369 . S
C311 C312 1.404 . S
C312 H295 0.940 . S
C312 C311 1.404 . S
C312 C313 1.389 . S
C313 H296 0.939 . S
C313 C308 1.400 . S
C313 C312 1.389 . S
C314 P288 1.819 . S
C314 C315 1.391 . S
C314 C319 1.391 . S
C315 H297 0.941 . S
C315 C314 1.391 . S
C315 C316 1.396 . S
C316 H300 0.939 . S
C316 C315 1.396 . S
C316 C317 1.397 . S
C317 C316 1.397 . S
C317 C318 1.385 . S
C318 H301 0.940 . S
C318 C317 1.385 . S
C318 C319 1.388 . S
C319 H298 0.939 . S
C319 C314 1.391 . S
C319 C318 1.388 . S
P320 O331 1.490 . S
P320 C334 1.812 . S
P320 C340 1.803 . S
P320 C346 1.819 . S
H321 C335 0.941 . S
H322 C336 0.939 . S
H323 C338 0.940 . S
H324 C339 0.940 . S
H325 C341 0.939 . S
H326 C342 0.942 . S
H327 C344 0.940 . S
H328 C345 0.939 . S
H329 C347 0.941 . S
H330 C351 0.939 . S
O331 P320 1.490 . S
H332 C348 0.939 . S
H333 C350 0.940 . S
C334 P320 1.812 . S
C334 C335 1.389 . S
C334 C339 1.391 . S
C335 H321 0.941 . S
C335 C334 1.389 . S
C335 C336 1.397 . S
C336 H322 0.939 . S
C336 C335 1.397 . S
C336 C337 1.378 . S
C337 C336 1.378 . S
C337 C338 1.378 . S
C338 H323 0.940 . S
C338 C337 1.378 . S
C338 C339 1.396 . S
C339 H324 0.940 . S
C339 C334 1.391 . S
C339 C338 1.396 . S
C340 P320 1.803 . S
C340 C341 1.378 . S
C340 C345 1.400 . S
C341 H325 0.939 . S
C341 C340 1.378 . S
C341 C342 1.361 . S
C342 H326 0.942 . S
C342 C341 1.361 . S
C342 C343 1.369 . S
C343 C342 1.369 . S
C343 C344 1.404 . S
C344 H327 0.940 . S
C344 C343 1.404 . S
C344 C345 1.389 . S
C345 H328 0.939 . S
C345 C340 1.400 . S
C345 C344 1.389 . S
C346 P320 1.819 . S
C346 C347 1.391 . S
C346 C351 1.391 . S
C347 H329 0.941 . S
C347 C346 1.391 . S
C347 C348 1.396 . S
C348 H332 0.939 . S
C348 C347 1.396 . S
C348 C349 1.397 . S
C349 C348 1.397 . S
C349 C350 1.385 . S
C350 H333 0.940 . S
C350 C349 1.385 . S
C350 C351 1.388 . S
C351 H330 0.939 . S
C351 C346 1.391 . S
C351 C350 1.388 . S
P352 O363 1.490 . S
P352 C366 1.812 . S
P352 C372 1.803 . S
P352 C378 1.819 . S
H353 C367 0.941 . S
H354 C368 0.939 . S
H355 C370 0.940 . S
H356 C371 0.940 . S
H357 C373 0.939 . S
H358 C374 0.942 . S
H359 C376 0.940 . S
H360 C377 0.939 . S
H361 C379 0.941 . S
H362 C383 0.939 . S
O363 P352 1.490 . S
H364 C380 0.939 . S
H365 C382 0.940 . S
C366 P352 1.812 . S
C366 C367 1.389 . S
C366 C371 1.391 . S
C367 H353 0.941 . S
C367 C366 1.389 . S
C367 C368 1.397 . S
C368 H354 0.939 . S
C368 C367 1.397 . S
C368 C369 1.378 . S
C369 C368 1.378 . S
C369 C370 1.378 . S
C370 H355 0.940 . S
C370 C369 1.378 . S
C370 C371 1.396 . S
C371 H356 0.940 . S
C371 C366 1.391 . S
C371 C370 1.396 . S
C372 P352 1.803 . S
C372 C373 1.378 . S
C372 C377 1.400 . S
C373 H357 0.939 . S
C373 C372 1.378 . S
C373 C374 1.361 . S
C374 H358 0.942 . S
C374 C373 1.361 . S
C374 C375 1.369 . S
C375 C374 1.369 . S
C375 C376 1.404 . S
C376 H359 0.940 . S
C376 C375 1.404 . S
C376 C377 1.389 . S
C377 H360 0.939 . S
C377 C372 1.400 . S
C377 C376 1.389 . S
C378 P352 1.819 . S
C378 C379 1.391 . S
C378 C383 1.391 . S
C379 H361 0.941 . S
C379 C378 1.391 . S
C379 C380 1.396 . S
C380 H364 0.939 . S
C380 C379 1.396 . S
C380 C381 1.397 . S
C381 C380 1.397 . S
C381 C382 1.385 . S
C382 H365 0.940 . S
C382 C381 1.385 . S
C382 C383 1.388 . S
C383 H362 0.939 . S
C383 C378 1.391 . S
C383 C382 1.388 . S
P384 O395 1.490 . S
P384 C398 1.812 . S
P384 C404 1.803 . S
P384 C410 1.819 . S
H385 C399 0.941 . S
H386 C400 0.939 . S
H387 C402 0.940 . S
H388 C403 0.940 . S
H389 C405 0.939 . S
H390 C406 0.942 . S
H391 C408 0.940 . S
H392 C409 0.939 . S
H393 C411 0.941 . S
H394 C415 0.939 . S
O395 P384 1.490 . S
H396 C412 0.939 . S
H397 C414 0.940 . S
C398 P384 1.812 . S
C398 C399 1.389 . S
C398 C403 1.391 . S
C399 H385 0.941 . S
C399 C398 1.389 . S
C399 C400 1.397 . S
C400 H386 0.939 . S
C400 C399 1.397 . S
C400 C401 1.378 . S
C401 C400 1.378 . S
C401 C402 1.378 . S
C402 H387 0.940 . S
C402 C401 1.378 . S
C402 C403 1.396 . S
C403 H388 0.940 . S
C403 C398 1.391 . S
C403 C402 1.396 . S
C404 P384 1.803 . S
C404 C405 1.378 . S
C404 C409 1.400 . S
C405 H389 0.939 . S
C405 C404 1.378 . S
C405 C406 1.361 . S
C406 H390 0.942 . S
C406 C405 1.361 . S
C406 C407 1.369 . S
C407 C406 1.369 . S
C407 C408 1.404 . S
C408 H391 0.940 . S
C408 C407 1.404 . S
C408 C409 1.389 . S
C409 H392 0.939 . S
C409 C404 1.400 . S
C409 C408 1.389 . S
C410 P384 1.819 . S
C410 C411 1.391 . S
C410 C415 1.391 . S
C411 H393 0.941 . S
C411 C410 1.391 . S
C411 C412 1.396 . S
C412 H396 0.939 . S
C412 C411 1.396 . S
C412 C413 1.397 . S
C413 C412 1.397 . S
C413 C414 1.385 . S
C414 H397 0.940 . S
C414 C413 1.385 . S
C414 C415 1.388 . S
C415 H394 0.939 . S
C415 C410 1.391 . S
C415 C414 1.388 . S
P416 O427 1.490 . S
P416 C430 1.812 . S
P416 C436 1.803 . S
P416 C442 1.819 . S
H417 C431 0.941 . S
H418 C432 0.939 . S
H419 C434 0.940 . S
H420 C435 0.940 . S
H421 C437 0.939 . S
H422 C438 0.942 . S
H423 C440 0.940 . S
H424 C441 0.939 . S
H425 C443 0.941 . S
H426 C447 0.939 . S
O427 P416 1.490 . S
H428 C444 0.939 . S
H429 C446 0.940 . S
C430 P416 1.812 . S
C430 C431 1.389 . S
C430 C435 1.391 . S
C431 H417 0.941 . S
C431 C430 1.389 . S
C431 C432 1.397 . S
C432 H418 0.939 . S
C432 C431 1.397 . S
C432 C433 1.378 . S
C433 C432 1.378 . S
C433 C434 1.378 . S
C434 H419 0.940 . S
C434 C433 1.378 . S
C434 C435 1.396 . S
C435 H420 0.940 . S
C435 C430 1.391 . S
C435 C434 1.396 . S
C436 P416 1.803 . S
C436 C437 1.378 . S
C436 C441 1.400 . S
C437 H421 0.939 . S
C437 C436 1.378 . S
C437 C438 1.361 . S
C438 H422 0.942 . S
C438 C437 1.361 . S
C438 C439 1.369 . S
C439 C438 1.369 . S
C439 C440 1.404 . S
C440 H423 0.940 . S
C440 C439 1.404 . S
C440 C441 1.389 . S
C441 H424 0.939 . S
C441 C436 1.400 . S
C441 C440 1.389 . S
C442 P416 1.819 . S
C442 C443 1.391 . S
C442 C447 1.391 . S
C443 H425 0.941 . S
C443 C442 1.391 . S
C443 C444 1.396 . S
C444 H428 0.939 . S
C444 C443 1.396 . S
C444 C445 1.397 . S
C445 C444 1.397 . S
C445 C446 1.385 . S
C446 H429 0.940 . S
C446 C445 1.385 . S
C446 C447 1.388 . S
C447 H426 0.939 . S
C447 C442 1.391 . S
C447 C446 1.388 . S
P448 O459 1.490 . S
P448 C462 1.812 . S
P448 C468 1.803 . S
P448 C474 1.819 . S
H449 C463 0.941 . S
H450 C464 0.939 . S
H451 C466 0.940 . S
H452 C467 0.940 . S
H453 C469 0.939 . S
H454 C470 0.942 . S
H455 C472 0.940 . S
H456 C473 0.939 . S
H457 C475 0.941 . S
H458 C479 0.939 . S
O459 P448 1.490 . S
H460 C476 0.939 . S
H461 C478 0.940 . S
C462 P448 1.812 . S
C462 C463 1.389 . S
C462 C467 1.391 . S
C463 H449 0.941 . S
C463 C462 1.389 . S
C463 C464 1.397 . S
C464 H450 0.939 . S
C464 C463 1.397 . S
C464 C465 1.378 . S
C465 C464 1.378 . S
C465 C466 1.378 . S
C466 H451 0.940 . S
C466 C465 1.378 . S
C466 C467 1.396 . S
C467 H452 0.940 . S
C467 C462 1.391 . S
C467 C466 1.396 . S
C468 P448 1.803 . S
C468 C469 1.378 . S
C468 C473 1.400 . S
C469 H453 0.939 . S
C469 C468 1.378 . S
C469 C470 1.361 . S
C470 H454 0.942 . S
C470 C469 1.361 . S
C470 C471 1.369 . S
C471 C470 1.369 . S
C471 C472 1.404 . S
C472 H455 0.940 . S
C472 C471 1.404 . S
C472 C473 1.389 . S
C473 H456 0.939 . S
C473 C468 1.400 . S
C473 C472 1.389 . S
C474 P448 1.819 . S
C474 C475 1.391 . S
C474 C479 1.391 . S
C475 H457 0.941 . S
C475 C474 1.391 . S
C475 C476 1.396 . S
C476 H460 0.939 . S
C476 C475 1.396 . S
C476 C477 1.397 . S
C477 C476 1.397 . S
C477 C478 1.385 . S
C478 H461 0.940 . S
C478 C477 1.385 . S
C478 C479 1.388 . S
C479 H458 0.939 . S
C479 C474 1.391 . S
C479 C478 1.388 . S
P480 O491 1.490 . S
P480 C494 1.812 . S
P480 C500 1.803 . S
P480 C506 1.819 . S
H481 C495 0.941 . S
H482 C496 0.939 . S
H483 C498 0.940 . S
H484 C499 0.940 . S
H485 C501 0.939 . S
H486 C502 0.942 . S
H487 C504 0.940 . S
H488 C505 0.939 . S
H489 C507 0.941 . S
H490 C511 0.939 . S
O491 P480 1.490 . S
H492 C508 0.939 . S
H493 C510 0.940 . S
C494 P480 1.812 . S
C494 C495 1.389 . S
C494 C499 1.391 . S
C495 H481 0.941 . S
C495 C494 1.389 . S
C495 C496 1.397 . S
C496 H482 0.939 . S
C496 C495 1.397 . S
C496 C497 1.378 . S
C497 C496 1.378 . S
C497 C498 1.378 . S
C498 H483 0.940 . S
C498 C497 1.378 . S
C498 C499 1.396 . S
C499 H484 0.940 . S
C499 C494 1.391 . S
C499 C498 1.396 . S
C500 P480 1.803 . S
C500 C501 1.378 . S
C500 C505 1.400 . S
C501 H485 0.939 . S
C501 C500 1.378 . S
C501 C502 1.361 . S
C502 H486 0.942 . S
C502 C501 1.361 . S
C502 C503 1.369 . S
C503 C502 1.369 . S
C503 C504 1.404 . S
C504 H487 0.940 . S
C504 C503 1.404 . S
C504 C505 1.389 . S
C505 H488 0.939 . S
C505 C500 1.400 . S
C505 C504 1.389 . S
C506 P480 1.819 . S
C506 C507 1.391 . S
C506 C511 1.391 . S
C507 H489 0.941 . S
C507 C506 1.391 . S
C507 C508 1.396 . S
C508 H492 0.939 . S
C508 C507 1.396 . S
C508 C509 1.397 . S
C509 C508 1.397 . S
C509 C510 1.385 . S
C510 H493 0.940 . S
C510 C509 1.385 . S
C510 C511 1.388 . S
C511 H490 0.939 . S
C511 C506 1.391 . S
C511 C510 1.388 . S
P512 O523 1.490 . S
P512 C526 1.812 . S
P512 C532 1.803 . S
P512 C538 1.819 . S
H513 C527 0.941 . S
H514 C528 0.939 . S
H515 C530 0.940 . S
H516 C531 0.940 . S
H517 C533 0.939 . S
H518 C534 0.942 . S
H519 C536 0.940 . S
H520 C537 0.939 . S
H521 C539 0.941 . S
H522 C543 0.939 . S
O523 P512 1.490 . S
H524 C540 0.939 . S
H525 C542 0.940 . S
C526 P512 1.812 . S
C526 C527 1.389 . S
C526 C531 1.391 . S
C527 H513 0.941 . S
C527 C526 1.389 . S
C527 C528 1.397 . S
C528 H514 0.939 . S
C528 C527 1.397 . S
C528 C529 1.378 . S
C529 C528 1.378 . S
C529 C530 1.378 . S
C530 H515 0.940 . S
C530 C529 1.378 . S
C530 C531 1.396 . S
C531 H516 0.940 . S
C531 C526 1.391 . S
C531 C530 1.396 . S
C532 P512 1.803 . S
C532 C533 1.378 . S
C532 C537 1.400 . S
C533 H517 0.939 . S
C533 C532 1.378 . S
C533 C534 1.361 . S
C534 H518 0.942 . S
C534 C533 1.361 . S
C534 C535 1.369 . S
C535 C534 1.369 . S
C535 C536 1.404 . S
C536 H519 0.940 . S
C536 C535 1.404 . S
C536 C537 1.389 . S
C537 H520 0.939 . S
C537 C532 1.400 . S
C537 C536 1.389 . S
C538 P512 1.819 . S
C538 C539 1.391 . S
C538 C543 1.391 . S
C539 H521 0.941 . S
C539 C538 1.391 . S
C539 C540 1.396 . S
C540 H524 0.939 . S
C540 C539 1.396 . S
C540 C541 1.397 . S
C541 C540 1.397 . S
C541 C542 1.385 . S
C542 H525 0.940 . S
C542 C541 1.385 . S
C542 C543 1.388 . S
C543 H522 0.939 . S
C543 C538 1.391 . S
C543 C542 1.388 . S
P544 O555 1.490 . S
P544 C558 1.812 . S
P544 C564 1.803 . S
P544 C570 1.819 . S
H545 C559 0.941 . S
H546 C560 0.939 . S
H547 C562 0.940 . S
H548 C563 0.940 . S
H549 C565 0.939 . S
H550 C566 0.942 . S
H551 C568 0.940 . S
H552 C569 0.939 . S
H553 C571 0.941 . S
H554 C575 0.939 . S
O555 P544 1.490 . S
H556 C572 0.939 . S
H557 C574 0.940 . S
C558 P544 1.812 . S
C558 C559 1.389 . S
C558 C563 1.391 . S
C559 H545 0.941 . S
C559 C558 1.389 . S
C559 C560 1.397 . S
C560 H546 0.939 . S
C560 C559 1.397 . S
C560 C561 1.378 . S
C561 C560 1.378 . S
C561 C562 1.378 . S
C562 H547 0.940 . S
C562 C561 1.378 . S
C562 C563 1.396 . S
C563 H548 0.940 . S
C563 C558 1.391 . S
C563 C562 1.396 . S
C564 P544 1.803 . S
C564 C565 1.378 . S
C564 C569 1.400 . S
C565 H549 0.939 . S
C565 C564 1.378 . S
C565 C566 1.361 . S
C566 H550 0.942 . S
C566 C565 1.361 . S
C566 C567 1.369 . S
C567 C566 1.369 . S
C567 C568 1.404 . S
C568 H551 0.940 . S
C568 C567 1.404 . S
C568 C569 1.389 . S
C569 H552 0.939 . S
C569 C564 1.400 . S
C569 C568 1.389 . S
C570 P544 1.819 . S
C570 C571 1.391 . S
C570 C575 1.391 . S
C571 H553 0.941 . S
C571 C570 1.391 . S
C571 C572 1.396 . S
C572 H556 0.939 . S
C572 C571 1.396 . S
C572 C573 1.397 . S
C573 C572 1.397 . S
C573 C574 1.385 . S
C574 H557 0.940 . S
C574 C573 1.385 . S
C574 C575 1.388 . S
C575 H554 0.939 . S
C575 C570 1.391 . S
C575 C574 1.388 . S
Eu576 N607 2.657 . S
Eu576 N614 2.609 . S
Eu576 O620 2.558 . S
Eu576 O621 2.612 1_565 S
Eu576 O623 2.339 1_565 S
Eu576 O624 2.563 1_565 S
Eu576 O625 2.419 . S
Eu576 O627 2.380 1_556 S
Eu576 O628 2.432 . S
Eu576 C640 2.848 . S
C577 C580 1.429 . S
C577 C581 1.411 . S
C577 N584 1.377 . S
C578 C580 1.420 . S
C578 C582 1.423 . S
C578 C590 1.392 . S
C579 C581 1.420 . S
C579 C582 1.351 . S
C579 H602 0.931 . S
C580 C577 1.429 . S
C580 C578 1.420 . S
C580 N588 1.362 . S
C581 C577 1.411 . S
C581 C579 1.420 . S
C581 C586 1.395 . S
C582 C578 1.423 . S
C582 C579 1.351 . S
C582 H594 0.930 . S
C583 C585 1.400 . S
C583 C586 1.386 . S
C583 H595 0.930 . S
N584 C577 1.377 . S
N584 C585 1.321 . S
N584 Eu587 2.609 . S
C585 C583 1.400 . S
C585 N584 1.321 . S
C585 H592 0.930 . S
C586 C581 1.395 . S
C586 C583 1.386 . S
C586 H605 0.930 . S
Eu587 N584 2.609 . S
Eu587 N588 2.657 . S
Eu587 O621 2.380 1_554 S
Eu587 O622 2.432 . S
Eu587 O626 2.558 . S
Eu587 O627 2.612 1_545 S
Eu587 O629 2.339 1_545 S
Eu587 O630 2.563 1_545 S
Eu587 O631 2.419 . S
Eu587 C651 2.848 . S
N588 C580 1.362 . S
N588 Eu587 2.657 . S
N588 C589 1.334 . S
C589 N588 1.334 . S
C589 C591 1.413 . S
C589 H596 0.929 . S
C590 C578 1.392 . S
C590 C591 1.367 . S
C590 H598 0.930 . S
C591 C589 1.413 . S
C591 C590 1.367 . S
C591 H593 0.930 . S
H592 C585 0.930 . S
H593 C591 0.930 . S
H594 C582 0.930 . S
H595 C583 0.930 . S
H596 C589 0.929 . S
H597 C611 0.930 . S
H598 C590 0.930 . S
H599 C617 0.930 . S
H600 C608 0.929 . S
H601 C615 0.930 . S
H602 C579 0.931 . S
H603 C609 0.930 . S
H604 C642 0.930 . S
H605 C586 0.930 . S
H606 C641 0.931 . S
N607 Eu576 2.657 . S
N607 C608 1.334 . S
N607 C612 1.362 . S
C608 H600 0.929 . S
C608 N607 1.334 . S
C608 C611 1.413 . S
C609 H603 0.930 . S
C609 C610 1.392 . S
C609 C611 1.367 . S
C610 C609 1.392 . S
C610 C612 1.420 . S
C610 C642 1.423 . S
C611 H597 0.930 . S
C611 C608 1.413 . S
C611 C609 1.367 . S
C612 N607 1.362 . S
C612 C610 1.420 . S
C612 C616 1.429 . S
H613 C618 0.930 . S
N614 Eu576 2.609 . S
N614 C616 1.377 . S
N614 C617 1.321 . S
C615 H601 0.930 . S
C615 C617 1.400 . S
C615 C618 1.386 . S
C616 C612 1.429 . S
C616 N614 1.377 . S
C616 C619 1.411 . S
C617 H599 0.930 . S
C617 N614 1.321 . S
C617 C615 1.400 . S
C618 H613 0.930 . S
C618 C615 1.386 . S
C618 C619 1.395 . S
C619 C616 1.411 . S
C619 C618 1.395 . S
C619 C641 1.420 . S
O620 Eu576 2.558 . S
O620 C640 1.257 . S
O621 Eu576 2.612 1_545 S
O621 Eu587 2.380 1_556 S
O621 C632 1.276 . S
O622 Eu587 2.432 . S
O622 C639 1.264 1_554 S
O623 Eu576 2.339 1_545 S
O623 C639 1.254 . S
O624 Eu576 2.563 1_545 S
O624 C632 1.235 . S
O625 Eu576 2.419 . S
O625 C640 1.249 . S
O626 Eu587 2.558 . S
O626 C651 1.257 . S
O627 Eu576 2.380 1_554 S
O627 Eu587 2.612 1_565 S
O627 C643 1.276 . S
O628 Eu576 2.432 . S
O628 C650 1.264 1_556 S
O629 Eu587 2.339 1_565 S
O629 C650 1.254 . S
O630 Eu587 2.563 1_565 S
O630 C643 1.235 . S
O631 Eu587 2.419 . S
O631 C651 1.249 . S
C632 O621 1.276 . S
C632 O624 1.235 . S
C633 C635 1.393 1_565 S
C633 C637 1.395 . S
C633 C640 1.492 . S
C634 C635 1.392 . S
C634 C636 1.386 1_545 S
C635 C633 1.393 1_545 S
C635 C634 1.392 . S
C635 H652 0.930 . S
C636 C634 1.386 1_565 S
C636 C638 1.395 . S
C636 H653 0.930 . S
C637 C633 1.395 . S
C637 C638 1.379 . S
C637 H654 0.930 . S
C638 C636 1.395 . S
C638 C637 1.379 . S
C638 H655 0.930 . S
C639 O622 1.264 1_556 S
C639 O623 1.254 . S
C640 Eu576 2.848 . S
C640 O620 1.257 . S
C640 O625 1.249 . S
C640 C633 1.492 . S
C641 H606 0.931 . S
C641 C619 1.420 . S
C641 C642 1.351 . S
C642 H604 0.930 . S
C642 C610 1.423 . S
C642 C641 1.351 . S
C643 O627 1.276 . S
C643 O630 1.235 . S
C644 C645 1.393 1_545 S
C644 C648 1.395 . S
C644 C651 1.492 . S
C645 C644 1.393 1_565 S
C645 C646 1.392 . S
C645 H656 0.930 . S
C646 C645 1.392 . S
C646 C647 1.386 1_565 S
C647 C646 1.386 1_545 S
C647 C649 1.395 . S
C647 H657 0.930 . S
C648 C644 1.395 . S
C648 C649 1.379 . S
C648 H658 0.930 . S
C649 C647 1.395 . S
C649 C648 1.379 . S
C649 H659 0.930 . S
C650 O628 1.264 1_554 S
C650 O629 1.254 . S
C651 Eu587 2.848 . S
C651 O626 1.257 . S
C651 O631 1.249 . S
C651 C644 1.492 . S
H652 C635 0.930 . S
H653 C636 0.930 . S
H654 C637 0.930 . S
H655 C638 0.930 . S
H656 C645 0.930 . S
H657 C647 0.930 . S
H658 C648 0.930 . S
H659 C649 0.930 . S
Eu660 N691 2.657 . S
Eu660 N698 2.609 . S
Eu660 O704 2.558 . S
Eu660 O705 2.612 1_455 S
Eu660 O707 2.339 1_455 S
Eu660 O708 2.563 1_455 S
Eu660 O709 2.419 . S
Eu660 O711 2.380 1_556 S
Eu660 O712 2.432 . S
Eu660 C724 2.848 . S
C661 C664 1.429 . S
C661 C665 1.411 . S
C661 N668 1.377 . S
C662 C664 1.420 . S
C662 C666 1.423 . S
C662 C674 1.392 . S
C663 C665 1.420 . S
C663 C666 1.351 . S
C663 H686 0.931 . S
C664 C661 1.429 . S
C664 C662 1.420 . S
C664 N672 1.362 . S
C665 C661 1.411 . S
C665 C663 1.420 . S
C665 C670 1.395 . S
C666 C662 1.423 . S
C666 C663 1.351 . S
C666 H678 0.930 . S
C667 C669 1.400 . S
C667 C670 1.386 . S
C667 H679 0.930 . S
N668 C661 1.377 . S
N668 C669 1.321 . S
N668 Eu671 2.609 . S
C669 C667 1.400 . S
C669 N668 1.321 . S
C669 H676 0.930 . S
C670 C665 1.395 . S
C670 C667 1.386 . S
C670 H689 0.930 . S
Eu671 N668 2.609 . S
Eu671 N672 2.657 . S
Eu671 O705 2.380 1_554 S
Eu671 O706 2.432 . S
Eu671 O710 2.558 . S
Eu671 O711 2.612 1_655 S
Eu671 O713 2.339 1_655 S
Eu671 O714 2.563 1_655 S
Eu671 O715 2.419 . S
Eu671 C735 2.848 . S
N672 C664 1.362 . S
N672 Eu671 2.657 . S
N672 C673 1.334 . S
C673 N672 1.334 . S
C673 C675 1.413 . S
C673 H680 0.929 . S
C674 C662 1.392 . S
C674 C675 1.367 . S
C674 H682 0.930 . S
C675 C673 1.413 . S
C675 C674 1.367 . S
C675 H677 0.930 . S
H676 C669 0.930 . S
H677 C675 0.930 . S
H678 C666 0.930 . S
H679 C667 0.930 . S
H680 C673 0.929 . S
H681 C695 0.930 . S
H682 C674 0.930 . S
H683 C701 0.930 . S
H684 C692 0.929 . S
H685 C699 0.930 . S
H686 C663 0.931 . S
H687 C693 0.930 . S
H688 C726 0.930 . S
H689 C670 0.930 . S
H690 C725 0.931 . S
N691 Eu660 2.657 . S
N691 C692 1.334 . S
N691 C696 1.362 . S
C692 H684 0.929 . S
C692 N691 1.334 . S
C692 C695 1.413 . S
C693 H687 0.930 . S
C693 C694 1.392 . S
C693 C695 1.367 . S
C694 C693 1.392 . S
C694 C696 1.420 . S
C694 C726 1.423 . S
C695 H681 0.930 . S
C695 C692 1.413 . S
C695 C693 1.367 . S
C696 N691 1.362 . S
C696 C694 1.420 . S
C696 C700 1.429 . S
H697 C702 0.930 . S
N698 Eu660 2.609 . S
N698 C700 1.377 . S
N698 C701 1.321 . S
C699 H685 0.930 . S
C699 C701 1.400 . S
C699 C702 1.386 . S
C700 C696 1.429 . S
C700 N698 1.377 . S
C700 C703 1.411 . S
C701 H683 0.930 . S
C701 N698 1.321 . S
C701 C699 1.400 . S
C702 H697 0.930 . S
C702 C699 1.386 . S
C702 C703 1.395 . S
C703 C700 1.411 . S
C703 C702 1.395 . S
C703 C725 1.420 . S
O704 Eu660 2.558 . S
O704 C724 1.257 . S
O705 Eu660 2.612 1_655 S
O705 Eu671 2.380 1_556 S
O705 C716 1.276 . S
O706 Eu671 2.432 . S
O706 C723 1.264 1_554 S
O707 Eu660 2.339 1_655 S
O707 C723 1.254 . S
O708 Eu660 2.563 1_655 S
O708 C716 1.235 . S
O709 Eu660 2.419 . S
O709 C724 1.249 . S
O710 Eu671 2.558 . S
O710 C735 1.257 . S
O711 Eu660 2.380 1_554 S
O711 Eu671 2.612 1_455 S
O711 C727 1.276 . S
O712 Eu660 2.432 . S
O712 C734 1.264 1_556 S
O713 Eu671 2.339 1_455 S
O713 C734 1.254 . S
O714 Eu671 2.563 1_455 S
O714 C727 1.235 . S
O715 Eu671 2.419 . S
O715 C735 1.249 . S
C716 O705 1.276 . S
C716 O708 1.235 . S
C717 C719 1.393 1_455 S
C717 C721 1.395 . S
C717 C724 1.492 . S
C718 C719 1.392 . S
C718 C720 1.386 1_655 S
C719 C717 1.393 1_655 S
C719 C718 1.392 . S
C719 H736 0.930 . S
C720 C718 1.386 1_455 S
C720 C722 1.395 . S
C720 H737 0.930 . S
C721 C717 1.395 . S
C721 C722 1.379 . S
C721 H738 0.930 . S
C722 C720 1.395 . S
C722 C721 1.379 . S
C722 H739 0.930 . S
C723 O706 1.264 1_556 S
C723 O707 1.254 . S
C724 Eu660 2.848 . S
C724 O704 1.257 . S
C724 O709 1.249 . S
C724 C717 1.492 . S
C725 H690 0.931 . S
C725 C703 1.420 . S
C725 C726 1.351 . S
C726 H688 0.930 . S
C726 C694 1.423 . S
C726 C725 1.351 . S
C727 O711 1.276 . S
C727 O714 1.235 . S
C728 C729 1.393 1_655 S
C728 C732 1.395 . S
C728 C735 1.492 . S
C729 C728 1.393 1_455 S
C729 C730 1.392 . S
C729 H740 0.930 . S
C730 C729 1.392 . S
C730 C731 1.386 1_455 S
C731 C730 1.386 1_655 S
C731 C733 1.395 . S
C731 H741 0.930 . S
C732 C728 1.395 . S
C732 C733 1.379 . S
C732 H742 0.930 . S
C733 C731 1.395 . S
C733 C732 1.379 . S
C733 H743 0.930 . S
C734 O712 1.264 1_554 S
C734 O713 1.254 . S
C735 Eu671 2.848 . S
C735 O710 1.257 . S
C735 O715 1.249 . S
C735 C728 1.492 . S
H736 C719 0.930 . S
H737 C720 0.930 . S
H738 C721 0.930 . S
H739 C722 0.930 . S
H740 C729 0.930 . S
H741 C731 0.930 . S
H742 C732 0.930 . S
H743 C733 0.930 . S
Eu744 N775 2.657 . S
Eu744 N782 2.609 . S
Eu744 O788 2.558 . S
Eu744 O789 2.612 . S
Eu744 O791 2.339 . S
Eu744 O792 2.563 . S
Eu744 O793 2.419 . S
Eu744 O795 2.380 1_554 S
Eu744 O796 2.432 . S
Eu744 C808 2.848 . S
C745 C748 1.429 . S
C745 C749 1.411 . S
C745 N752 1.377 . S
C746 C748 1.420 . S
C746 C750 1.423 . S
C746 C758 1.392 . S
C747 C749 1.420 . S
C747 C750 1.351 . S
C747 H770 0.931 . S
C748 C745 1.429 . S
C748 C746 1.420 . S
C748 N756 1.362 . S
C749 C745 1.411 . S
C749 C747 1.420 . S
C749 C754 1.395 . S
C750 C746 1.423 . S
C750 C747 1.351 . S
C750 H762 0.930 . S
C751 C753 1.400 . S
C751 C754 1.386 . S
C751 H763 0.930 . S
N752 C745 1.377 . S
N752 C753 1.321 . S
N752 Eu755 2.609 . S
C753 C751 1.400 . S
C753 N752 1.321 . S
C753 H760 0.930 . S
C754 C749 1.395 . S
C754 C751 1.386 . S
C754 H773 0.930 . S
Eu755 N752 2.609 . S
Eu755 N756 2.657 . S
Eu755 O789 2.380 1_556 S
Eu755 O790 2.432 . S
Eu755 O794 2.558 . S
Eu755 O795 2.612 . S
Eu755 O797 2.339 . S
Eu755 O798 2.563 . S
Eu755 O799 2.419 . S
Eu755 C819 2.848 . S
N756 C748 1.362 . S
N756 Eu755 2.657 . S
N756 C757 1.334 . S
C757 N756 1.334 . S
C757 C759 1.413 . S
C757 H764 0.929 . S
C758 C746 1.392 . S
C758 C759 1.367 . S
C758 H766 0.930 . S
C759 C757 1.413 . S
C759 C758 1.367 . S
C759 H761 0.930 . S
H760 C753 0.930 . S
H761 C759 0.930 . S
H762 C750 0.930 . S
H763 C751 0.930 . S
H764 C757 0.929 . S
H765 C779 0.930 . S
H766 C758 0.930 . S
H767 C785 0.930 . S
H768 C776 0.929 . S
H769 C783 0.930 . S
H770 C747 0.931 . S
H771 C777 0.930 . S
H772 C810 0.930 . S
H773 C754 0.930 . S
H774 C809 0.931 . S
N775 Eu744 2.657 . S
N775 C776 1.334 . S
N775 C780 1.362 . S
C776 H768 0.929 . S
C776 N775 1.334 . S
C776 C779 1.413 . S
C777 H771 0.930 . S
C777 C778 1.392 . S
C777 C779 1.367 . S
C778 C777 1.392 . S
C778 C780 1.420 . S
C778 C810 1.423 . S
C779 H765 0.930 . S
C779 C776 1.413 . S
C779 C777 1.367 . S
C780 N775 1.362 . S
C780 C778 1.420 . S
C780 C784 1.429 . S
H781 C786 0.930 . S
N782 Eu744 2.609 . S
N782 C784 1.377 . S
N782 C785 1.321 . S
C783 H769 0.930 . S
C783 C785 1.400 . S
C783 C786 1.386 . S
C784 C780 1.429 . S
C784 N782 1.377 . S
C784 C787 1.411 . S
C785 H767 0.930 . S
C785 N782 1.321 . S
C785 C783 1.400 . S
C786 H781 0.930 . S
C786 C783 1.386 . S
C786 C787 1.395 . S
C787 C784 1.411 . S
C787 C786 1.395 . S
C787 C809 1.420 . S
O788 Eu744 2.558 . S
O788 C808 1.257 . S
O789 Eu744 2.612 . S
O789 Eu755 2.380 1_554 S
O789 C800 1.276 . S
O790 Eu755 2.432 . S
O790 C807 1.264 1_556 S
O791 Eu744 2.339 . S
O791 C807 1.254 . S
O792 Eu744 2.563 . S
O792 C800 1.235 . S
O793 Eu744 2.419 . S
O793 C808 1.249 . S
O794 Eu755 2.558 . S
O794 C819 1.257 . S
O795 Eu744 2.380 1_556 S
O795 Eu755 2.612 . S
O795 C811 1.276 . S
O796 Eu744 2.432 . S
O796 C818 1.264 1_554 S
O797 Eu755 2.339 . S
O797 C818 1.254 . S
O798 Eu755 2.563 . S
O798 C811 1.235 . S
O799 Eu755 2.419 . S
O799 C819 1.249 . S
C800 O789 1.276 . S
C800 O792 1.235 . S
C801 C803 1.393 . S
C801 C805 1.395 . S
C801 C808 1.492 . S
C802 C803 1.392 . S
C802 C804 1.386 . S
C803 C801 1.393 . S
C803 C802 1.392 . S
C803 H820 0.930 . S
C804 C802 1.386 . S
C804 C806 1.395 . S
C804 H821 0.930 . S
C805 C801 1.395 . S
C805 C806 1.379 . S
C805 H822 0.930 . S
C806 C804 1.395 . S
C806 C805 1.379 . S
C806 H823 0.930 . S
C807 O790 1.264 1_554 S
C807 O791 1.254 . S
C808 Eu744 2.848 . S
C808 O788 1.257 . S
C808 O793 1.249 . S
C808 C801 1.492 . S
C809 H774 0.931 . S
C809 C787 1.420 . S
C809 C810 1.351 . S
C810 H772 0.930 . S
C810 C778 1.423 . S
C810 C809 1.351 . S
C811 O795 1.276 . S
C811 O798 1.235 . S
C812 C813 1.393 . S
C812 C816 1.395 . S
C812 C819 1.492 . S
C813 C812 1.393 . S
C813 C814 1.392 . S
C813 H824 0.930 . S
C814 C813 1.392 . S
C814 C815 1.386 . S
C815 C814 1.386 . S
C815 C817 1.395 . S
C815 H825 0.930 . S
C816 C812 1.395 . S
C816 C817 1.379 . S
C816 H826 0.930 . S
C817 C815 1.395 . S
C817 C816 1.379 . S
C817 H827 0.930 . S
C818 O796 1.264 1_556 S
C818 O797 1.254 . S
C819 Eu755 2.848 . S
C819 O794 1.257 . S
C819 O799 1.249 . S
C819 C812 1.492 . S
H820 C803 0.930 . S
H821 C804 0.930 . S
H822 C805 0.930 . S
H823 C806 0.930 . S
H824 C813 0.930 . S
H825 C815 0.930 . S
H826 C816 0.930 . S
H827 C817 0.930 . S
Eu828 N859 2.657 . S
Eu828 N866 2.609 . S
Eu828 O872 2.558 . S
Eu828 O873 2.612 . S
Eu828 O875 2.339 . S
Eu828 O876 2.563 . S
Eu828 O877 2.419 . S
Eu828 O879 2.380 . S
Eu828 O880 2.432 . S
Eu828 C892 2.848 . S
C829 C832 1.429 . S
C829 C833 1.411 . S
C829 N836 1.377 . S
C830 C832 1.420 . S
C830 C834 1.423 . S
C830 C842 1.392 . S
C831 C833 1.420 . S
C831 C834 1.351 . S
C831 H854 0.931 . S
C832 C829 1.429 . S
C832 C830 1.420 . S
C832 N840 1.362 . S
C833 C829 1.411 . S
C833 C831 1.420 . S
C833 C838 1.395 . S
C834 C830 1.423 . S
C834 C831 1.351 . S
C834 H846 0.930 . S
C835 C837 1.400 . S
C835 C838 1.386 . S
C835 H847 0.930 . S
N836 C829 1.377 . S
N836 C837 1.321 . S
N836 Eu839 2.609 . S
C837 C835 1.400 . S
C837 N836 1.321 . S
C837 H844 0.930 . S
C838 C833 1.395 . S
C838 C835 1.386 . S
C838 H857 0.930 . S
Eu839 N836 2.609 . S
Eu839 N840 2.657 . S
Eu839 O873 2.380 . S
Eu839 O874 2.432 . S
Eu839 O878 2.558 . S
Eu839 O879 2.612 . S
Eu839 O881 2.339 . S
Eu839 O882 2.563 . S
Eu839 O883 2.419 . S
Eu839 C903 2.848 . S
N840 C832 1.362 . S
N840 Eu839 2.657 . S
N840 C841 1.334 . S
C841 N840 1.334 . S
C841 C843 1.413 . S
C841 H848 0.929 . S
C842 C830 1.392 . S
C842 C843 1.367 . S
C842 H850 0.930 . S
C843 C841 1.413 . S
C843 C842 1.367 . S
C843 H845 0.930 . S
H844 C837 0.930 . S
H845 C843 0.930 . S
H846 C834 0.930 . S
H847 C835 0.930 . S
H848 C841 0.929 . S
H849 C863 0.930 . S
H850 C842 0.930 . S
H851 C869 0.930 . S
H852 C860 0.929 . S
H853 C867 0.930 . S
H854 C831 0.931 . S
H855 C861 0.930 1_655 S
H856 C894 0.930 1_655 S
H857 C838 0.930 . S
H858 C893 0.931 . S
N859 Eu828 2.657 . S
N859 C860 1.334 . S
N859 C864 1.362 . S
C860 H852 0.929 . S
C860 N859 1.334 . S
C860 C863 1.413 . S
C861 H855 0.930 1_455 S
C861 C862 1.392 . S
C861 C863 1.367 . S
C862 C861 1.392 . S
C862 C864 1.420 . S
C862 C894 1.423 . S
C863 H849 0.930 . S
C863 C860 1.413 . S
C863 C861 1.367 . S
C864 N859 1.362 . S
C864 C862 1.420 . S
C864 C868 1.429 . S
H865 C870 0.930 . S
N866 Eu828 2.609 . S
N866 C868 1.377 . S
N866 C869 1.321 . S
C867 H853 0.930 . S
C867 C869 1.400 . S
C867 C870 1.386 . S
C868 C864 1.429 . S
C868 N866 1.377 . S
C868 C871 1.411 . S
C869 H851 0.930 . S
C869 N866 1.321 . S
C869 C867 1.400 . S
C870 H865 0.930 . S
C870 C867 1.386 . S
C870 C871 1.395 . S
C871 C868 1.411 . S
C871 C870 1.395 . S
C871 C893 1.420 . S
O872 Eu828 2.558 . S
O872 C892 1.257 . S
O873 Eu828 2.612 . S
O873 Eu839 2.380 . S
O873 C884 1.276 . S
O874 Eu839 2.432 . S
O874 C891 1.264 . S
O875 Eu828 2.339 . S
O875 C891 1.254 . S
O876 Eu828 2.563 . S
O876 C884 1.235 . S
O877 Eu828 2.419 . S
O877 C892 1.249 . S
O878 Eu839 2.558 . S
O878 C903 1.257 . S
O879 Eu828 2.380 . S
O879 Eu839 2.612 . S
O879 C895 1.276 . S
O880 Eu828 2.432 . S
O880 C902 1.264 . S
O881 Eu839 2.339 . S
O881 C902 1.254 . S
O882 Eu839 2.563 . S
O882 C895 1.235 . S
O883 Eu839 2.419 . S
O883 C903 1.249 . S
C884 O873 1.276 . S
C884 O876 1.235 . S
C885 C887 1.393 . S
C885 C889 1.395 . S
C885 C892 1.492 . S
C886 C887 1.392 . S
C886 C888 1.386 . S
C887 C885 1.393 . S
C887 C886 1.392 . S
C887 H904 0.930 . S
C888 C886 1.386 . S
C888 C890 1.395 . S
C888 H905 0.930 . S
C889 C885 1.395 . S
C889 C890 1.379 . S
C889 H906 0.930 . S
C890 C888 1.395 . S
C890 C889 1.379 . S
C890 H907 0.930 . S
C891 O874 1.264 . S
C891 O875 1.254 . S
C892 Eu828 2.848 . S
C892 O872 1.257 . S
C892 O877 1.249 . S
C892 C885 1.492 . S
C893 H858 0.931 . S
C893 C871 1.420 . S
C893 C894 1.351 . S
C894 H856 0.930 1_455 S
C894 C862 1.423 . S
C894 C893 1.351 . S
C895 O879 1.276 . S
C895 O882 1.235 . S
C896 C897 1.393 . S
C896 C900 1.395 . S
C896 C903 1.492 . S
C897 C896 1.393 . S
C897 C898 1.392 . S
C897 H908 0.930 . S
C898 C897 1.392 . S
C898 C899 1.386 . S
C899 C898 1.386 . S
C899 C901 1.395 . S
C899 H909 0.930 . S
C900 C896 1.395 . S
C900 C901 1.379 . S
C900 H910 0.930 . S
C901 C899 1.395 . S
C901 C900 1.379 . S
C901 H911 0.930 . S
C902 O880 1.264 . S
C902 O881 1.254 . S
C903 Eu839 2.848 . S
C903 O878 1.257 . S
C903 O883 1.249 . S
C903 C896 1.492 . S
H904 C887 0.930 . S
H905 C888 0.930 . S
H906 C889 0.930 . S
H907 C890 0.930 . S
H908 C897 0.930 . S
H909 C899 0.930 . S
H910 C900 0.930 . S
H911 C901 0.930 . S
Eu912 N943 2.657 . S
Eu912 N950 2.609 . S
Eu912 O956 2.558 . S
Eu912 O957 2.612 . S
Eu912 O959 2.339 . S
Eu912 O960 2.563 . S
Eu912 O961 2.419 . S
Eu912 O963 2.380 . S
Eu912 O964 2.432 . S
Eu912 C976 2.848 . S
C913 C916 1.429 . S
C913 C917 1.411 . S
C913 N920 1.377 . S
C914 C916 1.420 . S
C914 C918 1.423 . S
C914 C926 1.392 . S
C915 C917 1.420 . S
C915 C918 1.351 . S
C915 H938 0.931 . S
C916 C913 1.429 . S
C916 C914 1.420 . S
C916 N924 1.362 . S
C917 C913 1.411 . S
C917 C915 1.420 . S
C917 C922 1.395 . S
C918 C914 1.423 . S
C918 C915 1.351 . S
C918 H930 0.930 . S
C919 C921 1.400 . S
C919 C922 1.386 . S
C919 H931 0.930 . S
N920 C913 1.377 . S
N920 C921 1.321 . S
N920 Eu923 2.609 . S
C921 C919 1.400 . S
C921 N920 1.321 . S
C921 H928 0.930 . S
C922 C917 1.395 . S
C922 C919 1.386 . S
C922 H941 0.930 . S
Eu923 N920 2.609 . S
Eu923 N924 2.657 . S
Eu923 O957 2.380 . S
Eu923 O958 2.432 . S
Eu923 O962 2.558 . S
Eu923 O963 2.612 . S
Eu923 O965 2.339 . S
Eu923 O966 2.563 . S
Eu923 O967 2.419 . S
Eu923 C987 2.848 . S
N924 C916 1.362 . S
N924 Eu923 2.657 . S
N924 C925 1.334 . S
C925 N924 1.334 . S
C925 C927 1.413 . S
C925 H932 0.929 . S
C926 C914 1.392 . S
C926 C927 1.367 . S
C926 H934 0.930 . S
C927 C925 1.413 . S
C927 C926 1.367 . S
C927 H929 0.930 . S
H928 C921 0.930 . S
H929 C927 0.930 . S
H930 C918 0.930 . S
H931 C919 0.930 . S
H932 C925 0.929 . S
H933 C947 0.930 . S
H934 C926 0.930 . S
H935 C953 0.930 . S
H936 C944 0.929 . S
H937 C951 0.930 . S
H938 C915 0.931 . S
H939 C945 0.930 . S
H940 C978 0.930 . S
H941 C922 0.930 . S
H942 C977 0.931 . S
N943 Eu912 2.657 . S
N943 C944 1.334 . S
N943 C948 1.362 . S
C944 H936 0.929 . S
C944 N943 1.334 . S
C944 C947 1.413 . S
C945 H939 0.930 . S
C945 C946 1.392 . S
C945 C947 1.367 . S
C946 C945 1.392 . S
C946 C948 1.420 . S
C946 C978 1.423 . S
C947 H933 0.930 . S
C947 C944 1.413 . S
C947 C945 1.367 . S
C948 N943 1.362 . S
C948 C946 1.420 . S
C948 C952 1.429 . S
H949 C954 0.930 . S
N950 Eu912 2.609 . S
N950 C952 1.377 . S
N950 C953 1.321 . S
C951 H937 0.930 . S
C951 C953 1.400 . S
C951 C954 1.386 . S
C952 C948 1.429 . S
C952 N950 1.377 . S
C952 C955 1.411 . S
C953 H935 0.930 . S
C953 N950 1.321 . S
C953 C951 1.400 . S
C954 H949 0.930 . S
C954 C951 1.386 . S
C954 C955 1.395 . S
C955 C952 1.411 . S
C955 C954 1.395 . S
C955 C977 1.420 . S
O956 Eu912 2.558 . S
O956 C976 1.257 . S
O957 Eu912 2.612 . S
O957 Eu923 2.380 . S
O957 C968 1.276 . S
O958 Eu923 2.432 . S
O958 C975 1.264 . S
O959 Eu912 2.339 . S
O959 C975 1.254 . S
O960 Eu912 2.563 . S
O960 C968 1.235 . S
O961 Eu912 2.419 . S
O961 C976 1.249 . S
O962 Eu923 2.558 . S
O962 C987 1.257 . S
O963 Eu912 2.380 . S
O963 Eu923 2.612 . S
O963 C979 1.276 . S
O964 Eu912 2.432 . S
O964 C986 1.264 . S
O965 Eu923 2.339 . S
O965 C986 1.254 . S
O966 Eu923 2.563 . S
O966 C979 1.235 . S
O967 Eu923 2.419 . S
O967 C987 1.249 . S
C968 O957 1.276 . S
C968 O960 1.235 . S
C969 C971 1.393 . S
C969 C973 1.395 . S
C969 C976 1.492 . S
C970 C971 1.392 . S
C970 C972 1.386 . S
C971 C969 1.393 . S
C971 C970 1.392 . S
C971 H988 0.930 . S
C972 C970 1.386 . S
C972 C974 1.395 . S
C972 H989 0.930 . S
C973 C969 1.395 . S
C973 C974 1.379 . S
C973 H990 0.930 . S
C974 C972 1.395 . S
C974 C973 1.379 . S
C974 H991 0.930 . S
C975 O958 1.264 . S
C975 O959 1.254 . S
C976 Eu912 2.848 . S
C976 O956 1.257 . S
C976 O961 1.249 . S
C976 C969 1.492 . S
C977 H942 0.931 . S
C977 C955 1.420 . S
C977 C978 1.351 . S
C978 H940 0.930 . S
C978 C946 1.423 . S
C978 C977 1.351 . S
C979 O963 1.276 . S
C979 O966 1.235 . S
C980 C981 1.393 . S
C980 C984 1.395 . S
C980 C987 1.492 . S
C981 C980 1.393 . S
C981 C982 1.392 . S
C981 H992 0.930 . S
C982 C981 1.392 . S
C982 C983 1.386 . S
C983 C982 1.386 . S
C983 C985 1.395 . S
C983 H993 0.930 . S
C984 C980 1.395 . S
C984 C985 1.379 . S
C984 H994 0.930 . S
C985 C983 1.395 . S
C985 C984 1.379 . S
C985 H995 0.930 . S
C986 O964 1.264 . S
C986 O965 1.254 . S
C987 Eu923 2.848 . S
C987 O962 1.257 . S
C987 O967 1.249 . S
C987 C980 1.492 . S
H988 C971 0.930 . S
H989 C972 0.930 . S
H990 C973 0.930 . S
H991 C974 0.930 . S
H992 C981 0.930 . S
H993 C983 0.930 . S
H994 C984 0.930 . S
H995 C985 0.930 . S
Eu996 N1027 2.657 . S
Eu996 N1034 2.609 . S
Eu996 O1040 2.558 . S
Eu996 O1041 2.612 . S
Eu996 O1043 2.339 . S
Eu996 O1044 2.563 . S
Eu996 O1045 2.419 . S
Eu996 O1047 2.380 . S
Eu996 O1048 2.432 . S
Eu996 C1060 2.848 . S
C997 C1000 1.429 . S
C997 C1001 1.411 . S
C997 N1004 1.377 . S
C998 C1000 1.420 . S
C998 C1002 1.423 . S
C998 C1010 1.392 . S
C999 C1001 1.420 . S
C999 C1002 1.351 . S
C999 H1022 0.931 . S
C1000 C997 1.429 . S
C1000 C998 1.420 . S
C1000 N1008 1.362 . S
C1001 C997 1.411 . S
C1001 C999 1.420 . S
C1001 C1006 1.395 . S
C1002 C998 1.423 . S
C1002 C999 1.351 . S
C1002 H1014 0.930 1_455 S
C1003 C1005 1.400 . S
C1003 C1006 1.386 . S
C1003 H1015 0.930 . S
N1004 C997 1.377 . S
N1004 C1005 1.321 . S
N1004 Eu1007 2.609 . S
C1005 C1003 1.400 . S
C1005 N1004 1.321 . S
C1005 H1012 0.930 . S
C1006 C1001 1.395 . S
C1006 C1003 1.386 . S
C1006 H1025 0.930 . S
Eu1007 N1004 2.609 . S
Eu1007 N1008 2.657 . S
Eu1007 O1041 2.380 . S
Eu1007 O1042 2.432 . S
Eu1007 O1046 2.558 . S
Eu1007 O1047 2.612 . S
Eu1007 O1049 2.339 . S
Eu1007 O1050 2.563 . S
Eu1007 O1051 2.419 . S
Eu1007 C1071 2.848 . S
N1008 C1000 1.362 . S
N1008 Eu1007 2.657 . S
N1008 C1009 1.334 . S
C1009 N1008 1.334 . S
C1009 C1011 1.413 . S
C1009 H1016 0.929 . S
C1010 C998 1.392 . S
C1010 C1011 1.367 . S
C1010 H1018 0.930 1_455 S
C1011 C1009 1.413 . S
C1011 C1010 1.367 . S
C1011 H1013 0.930 . S
H1012 C1005 0.930 . S
H1013 C1011 0.930 . S
H1014 C1002 0.930 1_655 S
H1015 C1003 0.930 . S
H1016 C1009 0.929 . S
H1017 C1031 0.930 . S
H1018 C1010 0.930 1_655 S
H1019 C1037 0.930 . S
H1020 C1028 0.929 . S
H1021 C1035 0.930 . S
H1022 C999 0.931 . S
H1023 C1029 0.930 . S
H1024 C1062 0.930 . S
H1025 C1006 0.930 . S
H1026 C1061 0.931 . S
N1027 Eu996 2.657 . S
N1027 C1028 1.334 . S
N1027 C1032 1.362 . S
C1028 H1020 0.929 . S
C1028 N1027 1.334 . S
C1028 C1031 1.413 . S
C1029 H1023 0.930 . S
C1029 C1030 1.392 . S
C1029 C1031 1.367 . S
C1030 C1029 1.392 . S
C1030 C1032 1.420 . S
C1030 C1062 1.423 . S
C1031 H1017 0.930 . S
C1031 C1028 1.413 . S
C1031 C1029 1.367 . S
C1032 N1027 1.362 . S
C1032 C1030 1.420 . S
C1032 C1036 1.429 . S
H1033 C1038 0.930 . S
N1034 Eu996 2.609 . S
N1034 C1036 1.377 . S
N1034 C1037 1.321 . S
C1035 H1021 0.930 . S
C1035 C1037 1.400 . S
C1035 C1038 1.386 . S
C1036 C1032 1.429 . S
C1036 N1034 1.377 . S
C1036 C1039 1.411 . S
C1037 H1019 0.930 . S
C1037 N1034 1.321 . S
C1037 C1035 1.400 . S
C1038 H1033 0.930 . S
C1038 C1035 1.386 . S
C1038 C1039 1.395 . S
C1039 C1036 1.411 . S
C1039 C1038 1.395 . S
C1039 C1061 1.420 . S
O1040 Eu996 2.558 . S
O1040 C1060 1.257 . S
O1041 Eu996 2.612 . S
O1041 Eu1007 2.380 . S
O1041 C1052 1.276 . S
O1042 Eu1007 2.432 . S
O1042 C1059 1.264 . S
O1043 Eu996 2.339 . S
O1043 C1059 1.254 . S
O1044 Eu996 2.563 . S
O1044 C1052 1.235 . S
O1045 Eu996 2.419 . S
O1045 C1060 1.249 . S
O1046 Eu1007 2.558 . S
O1046 C1071 1.257 . S
O1047 Eu996 2.380 . S
O1047 Eu1007 2.612 . S
O1047 C1063 1.276 . S
O1048 Eu996 2.432 . S
O1048 C1070 1.264 . S
O1049 Eu1007 2.339 . S
O1049 C1070 1.254 . S
O1050 Eu1007 2.563 . S
O1050 C1063 1.235 . S
O1051 Eu1007 2.419 . S
O1051 C1071 1.249 . S
C1052 O1041 1.276 . S
C1052 O1044 1.235 . S
C1053 C1055 1.393 . S
C1053 C1057 1.395 . S
C1053 C1060 1.492 . S
C1054 C1055 1.392 . S
C1054 C1056 1.386 . S
C1055 C1053 1.393 . S
C1055 C1054 1.392 . S
C1055 H1072 0.930 . S
C1056 C1054 1.386 . S
C1056 C1058 1.395 . S
C1056 H1073 0.930 . S
C1057 C1053 1.395 . S
C1057 C1058 1.379 . S
C1057 H1074 0.930 . S
C1058 C1056 1.395 . S
C1058 C1057 1.379 . S
C1058 H1075 0.930 . S
C1059 O1042 1.264 . S
C1059 O1043 1.254 . S
C1060 Eu996 2.848 . S
C1060 O1040 1.257 . S
C1060 O1045 1.249 . S
C1060 C1053 1.492 . S
C1061 H1026 0.931 . S
C1061 C1039 1.420 . S
C1061 C1062 1.351 . S
C1062 H1024 0.930 . S
C1062 C1030 1.423 . S
C1062 C1061 1.351 . S
C1063 O1047 1.276 . S
C1063 O1050 1.235 . S
C1064 C1065 1.393 . S
C1064 C1068 1.395 . S
C1064 C1071 1.492 . S
C1065 C1064 1.393 . S
C1065 C1066 1.392 . S
C1065 H1076 0.930 . S
C1066 C1065 1.392 . S
C1066 C1067 1.386 . S
C1067 C1066 1.386 . S
C1067 C1069 1.395 . S
C1067 H1077 0.930 . S
C1068 C1064 1.395 . S
C1068 C1069 1.379 . S
C1068 H1078 0.930 . S
C1069 C1067 1.395 . S
C1069 C1068 1.379 . S
C1069 H1079 0.930 . S
C1070 O1048 1.264 . S
C1070 O1049 1.254 . S
C1071 Eu1007 2.848 . S
C1071 O1046 1.257 . S
C1071 O1051 1.249 . S
C1071 C1064 1.492 . S
H1072 C1055 0.930 . S
H1073 C1056 0.930 . S
H1074 C1057 0.930 . S
H1075 C1058 0.930 . S
H1076 C1065 0.930 . S
H1077 C1067 0.930 . S
H1078 C1068 0.930 . S
H1079 C1069 0.930 . S
Eu1080 N1111 2.657 . S
Eu1080 N1118 2.609 . S
Eu1080 O1124 2.558 . S
Eu1080 O1125 2.612 . S
Eu1080 O1127 2.339 . S
Eu1080 O1128 2.563 . S
Eu1080 O1129 2.419 . S
Eu1080 O1131 2.380 . S
Eu1080 O1132 2.432 . S
Eu1080 C1144 2.848 . S
C1081 C1084 1.429 . S
C1081 C1085 1.411 . S
C1081 N1088 1.377 . S
C1082 C1084 1.420 . S
C1082 C1086 1.423 . S
C1082 C1094 1.392 . S
C1083 C1085 1.420 . S
C1083 C1086 1.351 . S
C1083 H1106 0.931 . S
C1084 C1081 1.429 . S
C1084 C1082 1.420 . S
C1084 N1092 1.362 . S
C1085 C1081 1.411 . S
C1085 C1083 1.420 . S
C1085 C1090 1.395 . S
C1086 C1082 1.423 . S
C1086 C1083 1.351 . S
C1086 H1098 0.930 1_655 S
C1087 C1089 1.400 . S
C1087 C1090 1.386 . S
C1087 H1099 0.930 . S
N1088 C1081 1.377 . S
N1088 C1089 1.321 . S
N1088 Eu1091 2.609 . S
C1089 C1087 1.400 . S
C1089 N1088 1.321 . S
C1089 H1096 0.930 . S
C1090 C1085 1.395 . S
C1090 C1087 1.386 . S
C1090 H1109 0.930 . S
Eu1091 N1088 2.609 . S
Eu1091 N1092 2.657 . S
Eu1091 O1125 2.380 . S
Eu1091 O1126 2.432 . S
Eu1091 O1130 2.558 . S
Eu1091 O1131 2.612 . S
Eu1091 O1133 2.339 . S
Eu1091 O1134 2.563 . S
Eu1091 O1135 2.419 . S
Eu1091 C1155 2.848 . S
N1092 C1084 1.362 . S
N1092 Eu1091 2.657 . S
N1092 C1093 1.334 . S
C1093 N1092 1.334 . S
C1093 C1095 1.413 . S
C1093 H1100 0.929 . S
C1094 C1082 1.392 . S
C1094 C1095 1.367 . S
C1094 H1102 0.930 1_655 S
C1095 C1093 1.413 . S
C1095 C1094 1.367 . S
C1095 H1097 0.930 . S
H1096 C1089 0.930 . S
H1097 C1095 0.930 . S
H1098 C1086 0.930 1_455 S
H1099 C1087 0.930 . S
H1100 C1093 0.929 . S
H1101 C1115 0.930 . S
H1102 C1094 0.930 1_455 S
H1103 C1121 0.930 . S
H1104 C1112 0.929 . S
H1105 C1119 0.930 . S
H1106 C1083 0.931 . S
H1107 C1113 0.930 . S
H1108 C1146 0.930 . S
H1109 C1090 0.930 . S
H1110 C1145 0.931 . S
N1111 Eu1080 2.657 . S
N1111 C1112 1.334 . S
N1111 C1116 1.362 . S
C1112 H1104 0.929 . S
C1112 N1111 1.334 . S
C1112 C1115 1.413 . S
C1113 H1107 0.930 . S
C1113 C1114 1.392 . S
C1113 C1115 1.367 . S
C1114 C1113 1.392 . S
C1114 C1116 1.420 . S
C1114 C1146 1.423 . S
C1115 H1101 0.930 . S
C1115 C1112 1.413 . S
C1115 C1113 1.367 . S
C1116 N1111 1.362 . S
C1116 C1114 1.420 . S
C1116 C1120 1.429 . S
H1117 C1122 0.930 . S
N1118 Eu1080 2.609 . S
N1118 C1120 1.377 . S
N1118 C1121 1.321 . S
C1119 H1105 0.930 . S
C1119 C1121 1.400 . S
C1119 C1122 1.386 . S
C1120 C1116 1.429 . S
C1120 N1118 1.377 . S
C1120 C1123 1.411 . S
C1121 H1103 0.930 . S
C1121 N1118 1.321 . S
C1121 C1119 1.400 . S
C1122 H1117 0.930 . S
C1122 C1119 1.386 . S
C1122 C1123 1.395 . S
C1123 C1120 1.411 . S
C1123 C1122 1.395 . S
C1123 C1145 1.420 . S
O1124 Eu1080 2.558 . S
O1124 C1144 1.257 . S
O1125 Eu1080 2.612 . S
O1125 Eu1091 2.380 . S
O1125 C1136 1.276 . S
O1126 Eu1091 2.432 . S
O1126 C1143 1.264 . S
O1127 Eu1080 2.339 . S
O1127 C1143 1.254 . S
O1128 Eu1080 2.563 . S
O1128 C1136 1.235 . S
O1129 Eu1080 2.419 . S
O1129 C1144 1.249 . S
O1130 Eu1091 2.558 . S
O1130 C1155 1.257 . S
O1131 Eu1080 2.380 . S
O1131 Eu1091 2.612 . S
O1131 C1147 1.276 . S
O1132 Eu1080 2.432 . S
O1132 C1154 1.264 . S
O1133 Eu1091 2.339 . S
O1133 C1154 1.254 . S
O1134 Eu1091 2.563 . S
O1134 C1147 1.235 . S
O1135 Eu1091 2.419 . S
O1135 C1155 1.249 . S
C1136 O1125 1.276 . S
C1136 O1128 1.235 . S
C1137 C1139 1.393 . S
C1137 C1141 1.395 . S
C1137 C1144 1.492 . S
C1138 C1139 1.392 . S
C1138 C1140 1.386 . S
C1139 C1137 1.393 . S
C1139 C1138 1.392 . S
C1139 H1156 0.930 . S
C1140 C1138 1.386 . S
C1140 C1142 1.395 . S
C1140 H1157 0.930 . S
C1141 C1137 1.395 . S
C1141 C1142 1.379 . S
C1141 H1158 0.930 . S
C1142 C1140 1.395 . S
C1142 C1141 1.379 . S
C1142 H1159 0.930 . S
C1143 O1126 1.264 . S
C1143 O1127 1.254 . S
C1144 Eu1080 2.848 . S
C1144 O1124 1.257 . S
C1144 O1129 1.249 . S
C1144 C1137 1.492 . S
C1145 H1110 0.931 . S
C1145 C1123 1.420 . S
C1145 C1146 1.351 . S
C1146 H1108 0.930 . S
C1146 C1114 1.423 . S
C1146 C1145 1.351 . S
C1147 O1131 1.276 . S
C1147 O1134 1.235 . S
C1148 C1149 1.393 . S
C1148 C1152 1.395 . S
C1148 C1155 1.492 . S
C1149 C1148 1.393 . S
C1149 C1150 1.392 . S
C1149 H1160 0.930 . S
C1150 C1149 1.392 . S
C1150 C1151 1.386 . S
C1151 C1150 1.386 . S
C1151 C1153 1.395 . S
C1151 H1161 0.930 . S
C1152 C1148 1.395 . S
C1152 C1153 1.379 . S
C1152 H1162 0.930 . S
C1153 C1151 1.395 . S
C1153 C1152 1.379 . S
C1153 H1163 0.930 . S
C1154 O1132 1.264 . S
C1154 O1133 1.254 . S
C1155 Eu1091 2.848 . S
C1155 O1130 1.257 . S
C1155 O1135 1.249 . S
C1155 C1148 1.492 . S
H1156 C1139 0.930 . S
H1157 C1140 0.930 . S
H1158 C1141 0.930 . S
H1159 C1142 0.930 . S
H1160 C1149 0.930 . S
H1161 C1151 0.930 . S
H1162 C1152 0.930 . S
H1163 C1153 0.930 . S
Eu1164 N1195 2.657 . S
Eu1164 N1202 2.609 . S
Eu1164 O1208 2.558 . S
Eu1164 O1209 2.612 . S
Eu1164 O1211 2.339 . S
Eu1164 O1212 2.563 . S
Eu1164 O1213 2.419 . S
Eu1164 O1215 2.380 . S
Eu1164 O1216 2.432 . S
Eu1164 C1228 2.848 . S
C1165 C1168 1.429 . S
C1165 C1169 1.411 . S
C1165 N1172 1.377 . S
C1166 C1168 1.420 . S
C1166 C1170 1.423 . S
C1166 C1178 1.392 . S
C1167 C1169 1.420 . S
C1167 C1170 1.351 . S
C1167 H1190 0.931 . S
C1168 C1165 1.429 . S
C1168 C1166 1.420 . S
C1168 N1176 1.362 . S
C1169 C1165 1.411 . S
C1169 C1167 1.420 . S
C1169 C1174 1.395 . S
C1170 C1166 1.423 . S
C1170 C1167 1.351 . S
C1170 H1182 0.930 . S
C1171 C1173 1.400 . S
C1171 C1174 1.386 . S
C1171 H1183 0.930 . S
N1172 C1165 1.377 . S
N1172 C1173 1.321 . S
N1172 Eu1175 2.609 . S
C1173 C1171 1.400 . S
C1173 N1172 1.321 . S
C1173 H1180 0.930 . S
C1174 C1169 1.395 . S
C1174 C1171 1.386 . S
C1174 H1193 0.930 . S
Eu1175 N1172 2.609 . S
Eu1175 N1176 2.657 . S
Eu1175 O1209 2.380 . S
Eu1175 O1210 2.432 . S
Eu1175 O1214 2.558 . S
Eu1175 O1215 2.612 . S
Eu1175 O1217 2.339 . S
Eu1175 O1218 2.563 . S
Eu1175 O1219 2.419 . S
Eu1175 C1239 2.848 . S
N1176 C1168 1.362 . S
N1176 Eu1175 2.657 . S
N1176 C1177 1.334 . S
C1177 N1176 1.334 . S
C1177 C1179 1.413 . S
C1177 H1184 0.929 . S
C1178 C1166 1.392 . S
C1178 C1179 1.367 . S
C1178 H1186 0.930 . S
C1179 C1177 1.413 . S
C1179 C1178 1.367 . S
C1179 H1181 0.930 . S
H1180 C1173 0.930 . S
H1181 C1179 0.930 . S
H1182 C1170 0.930 . S
H1183 C1171 0.930 . S
H1184 C1177 0.929 . S
H1185 C1199 0.930 . S
H1186 C1178 0.930 . S
H1187 C1205 0.930 . S
H1188 C1196 0.929 . S
H1189 C1203 0.930 . S
H1190 C1167 0.931 . S
H1191 C1197 0.930 . S
H1192 C1230 0.930 . S
H1193 C1174 0.930 . S
H1194 C1229 0.931 . S
N1195 Eu1164 2.657 . S
N1195 C1196 1.334 . S
N1195 C1200 1.362 . S
C1196 H1188 0.929 . S
C1196 N1195 1.334 . S
C1196 C1199 1.413 . S
C1197 H1191 0.930 . S
C1197 C1198 1.392 . S
C1197 C1199 1.367 . S
C1198 C1197 1.392 . S
C1198 C1200 1.420 . S
C1198 C1230 1.423 . S
C1199 H1185 0.930 . S
C1199 C1196 1.413 . S
C1199 C1197 1.367 . S
C1200 N1195 1.362 . S
C1200 C1198 1.420 . S
C1200 C1204 1.429 . S
H1201 C1206 0.930 . S
N1202 Eu1164 2.609 . S
N1202 C1204 1.377 . S
N1202 C1205 1.321 . S
C1203 H1189 0.930 . S
C1203 C1205 1.400 . S
C1203 C1206 1.386 . S
C1204 C1200 1.429 . S
C1204 N1202 1.377 . S
C1204 C1207 1.411 . S
C1205 H1187 0.930 . S
C1205 N1202 1.321 . S
C1205 C1203 1.400 . S
C1206 H1201 0.930 . S
C1206 C1203 1.386 . S
C1206 C1207 1.395 . S
C1207 C1204 1.411 . S
C1207 C1206 1.395 . S
C1207 C1229 1.420 . S
O1208 Eu1164 2.558 . S
O1208 C1228 1.257 . S
O1209 Eu1164 2.612 . S
O1209 Eu1175 2.380 . S
O1209 C1220 1.276 . S
O1210 Eu1175 2.432 . S
O1210 C1227 1.264 . S
O1211 Eu1164 2.339 . S
O1211 C1227 1.254 . S
O1212 Eu1164 2.563 . S
O1212 C1220 1.235 . S
O1213 Eu1164 2.419 . S
O1213 C1228 1.249 . S
O1214 Eu1175 2.558 . S
O1214 C1239 1.257 . S
O1215 Eu1164 2.380 . S
O1215 Eu1175 2.612 . S
O1215 C1231 1.276 . S
O1216 Eu1164 2.432 . S
O1216 C1238 1.264 . S
O1217 Eu1175 2.339 . S
O1217 C1238 1.254 . S
O1218 Eu1175 2.563 . S
O1218 C1231 1.235 . S
O1219 Eu1175 2.419 . S
O1219 C1239 1.249 . S
C1220 O1209 1.276 . S
C1220 O1212 1.235 . S
C1221 C1223 1.393 . S
C1221 C1225 1.395 . S
C1221 C1228 1.492 . S
C1222 C1223 1.392 . S
C1222 C1224 1.386 . S
C1223 C1221 1.393 . S
C1223 C1222 1.392 . S
C1223 H1240 0.930 . S
C1224 C1222 1.386 . S
C1224 C1226 1.395 . S
C1224 H1241 0.930 . S
C1225 C1221 1.395 . S
C1225 C1226 1.379 . S
C1225 H1242 0.930 . S
C1226 C1224 1.395 . S
C1226 C1225 1.379 . S
C1226 H1243 0.930 . S
C1227 O1210 1.264 . S
C1227 O1211 1.254 . S
C1228 Eu1164 2.848 . S
C1228 O1208 1.257 . S
C1228 O1213 1.249 . S
C1228 C1221 1.492 . S
C1229 H1194 0.931 . S
C1229 C1207 1.420 . S
C1229 C1230 1.351 . S
C1230 H1192 0.930 . S
C1230 C1198 1.423 . S
C1230 C1229 1.351 . S
C1231 O1215 1.276 . S
C1231 O1218 1.235 . S
C1232 C1233 1.393 . S
C1232 C1236 1.395 . S
C1232 C1239 1.492 . S
C1233 C1232 1.393 . S
C1233 C1234 1.392 . S
C1233 H1244 0.930 . S
C1234 C1233 1.392 . S
C1234 C1235 1.386 . S
C1235 C1234 1.386 . S
C1235 C1237 1.395 . S
C1235 H1245 0.930 . S
C1236 C1232 1.395 . S
C1236 C1237 1.379 . S
C1236 H1246 0.930 . S
C1237 C1235 1.395 . S
C1237 C1236 1.379 . S
C1237 H1247 0.930 . S
C1238 O1216 1.264 . S
C1238 O1217 1.254 . S
C1239 Eu1175 2.848 . S
C1239 O1214 1.257 . S
C1239 O1219 1.249 . S
C1239 C1232 1.492 . S
H1240 C1223 0.930 . S
H1241 C1224 0.930 . S
H1242 C1225 0.930 . S
H1243 C1226 0.930 . S
H1244 C1233 0.930 . S
H1245 C1235 0.930 . S
H1246 C1236 0.930 . S
H1247 C1237 0.930 . S
Eu1248 N1279 2.657 . S
Eu1248 N1286 2.609 . S
Eu1248 O1292 2.558 . S
Eu1248 O1293 2.612 . S
Eu1248 O1295 2.339 . S
Eu1248 O1296 2.563 . S
Eu1248 O1297 2.419 . S
Eu1248 O1299 2.380 . S
Eu1248 O1300 2.432 . S
Eu1248 C1312 2.848 . S
C1249 C1252 1.429 . S
C1249 C1253 1.411 . S
C1249 N1256 1.377 . S
C1250 C1252 1.420 . S
C1250 C1254 1.423 . S
C1250 C1262 1.392 . S
C1251 C1253 1.420 . S
C1251 C1254 1.351 . S
C1251 H1274 0.931 . S
C1252 C1249 1.429 . S
C1252 C1250 1.420 . S
C1252 N1260 1.362 . S
C1253 C1249 1.411 . S
C1253 C1251 1.420 . S
C1253 C1258 1.395 . S
C1254 C1250 1.423 . S
C1254 C1251 1.351 . S
C1254 H1266 0.930 . S
C1255 C1257 1.400 . S
C1255 C1258 1.386 . S
C1255 H1267 0.930 . S
N1256 C1249 1.377 . S
N1256 C1257 1.321 . S
N1256 Eu1259 2.609 . S
C1257 C1255 1.400 . S
C1257 N1256 1.321 . S
C1257 H1264 0.930 . S
C1258 C1253 1.395 . S
C1258 C1255 1.386 . S
C1258 H1277 0.930 . S
Eu1259 N1256 2.609 . S
Eu1259 N1260 2.657 . S
Eu1259 O1293 2.380 . S
Eu1259 O1294 2.432 . S
Eu1259 O1298 2.558 . S
Eu1259 O1299 2.612 . S
Eu1259 O1301 2.339 . S
Eu1259 O1302 2.563 . S
Eu1259 O1303 2.419 . S
Eu1259 C1323 2.848 . S
N1260 C1252 1.362 . S
N1260 Eu1259 2.657 . S
N1260 C1261 1.334 . S
C1261 N1260 1.334 . S
C1261 C1263 1.413 . S
C1261 H1268 0.929 . S
C1262 C1250 1.392 . S
C1262 C1263 1.367 . S
C1262 H1270 0.930 . S
C1263 C1261 1.413 . S
C1263 C1262 1.367 . S
C1263 H1265 0.930 . S
H1264 C1257 0.930 . S
H1265 C1263 0.930 . S
H1266 C1254 0.930 . S
H1267 C1255 0.930 . S
H1268 C1261 0.929 . S
H1269 C1283 0.930 . S
H1270 C1262 0.930 . S
H1271 C1289 0.930 . S
H1272 C1280 0.929 . S
H1273 C1287 0.930 . S
H1274 C1251 0.931 . S
H1275 C1281 0.930 1_455 S
H1276 C1314 0.930 1_455 S
H1277 C1258 0.930 . S
H1278 C1313 0.931 . S
N1279 Eu1248 2.657 . S
N1279 C1280 1.334 . S
N1279 C1284 1.362 . S
C1280 H1272 0.929 . S
C1280 N1279 1.334 . S
C1280 C1283 1.413 . S
C1281 H1275 0.930 1_655 S
C1281 C1282 1.392 . S
C1281 C1283 1.367 . S
C1282 C1281 1.392 . S
C1282 C1284 1.420 . S
C1282 C1314 1.423 . S
C1283 H1269 0.930 . S
C1283 C1280 1.413 . S
C1283 C1281 1.367 . S
C1284 N1279 1.362 . S
C1284 C1282 1.420 . S
C1284 C1288 1.429 . S
H1285 C1290 0.930 . S
N1286 Eu1248 2.609 . S
N1286 C1288 1.377 . S
N1286 C1289 1.321 . S
C1287 H1273 0.930 . S
C1287 C1289 1.400 . S
C1287 C1290 1.386 . S
C1288 C1284 1.429 . S
C1288 N1286 1.377 . S
C1288 C1291 1.411 . S
C1289 H1271 0.930 . S
C1289 N1286 1.321 . S
C1289 C1287 1.400 . S
C1290 H1285 0.930 . S
C1290 C1287 1.386 . S
C1290 C1291 1.395 . S
C1291 C1288 1.411 . S
C1291 C1290 1.395 . S
C1291 C1313 1.420 . S
O1292 Eu1248 2.558 . S
O1292 C1312 1.257 . S
O1293 Eu1248 2.612 . S
O1293 Eu1259 2.380 . S
O1293 C1304 1.276 . S
O1294 Eu1259 2.432 . S
O1294 C1311 1.264 . S
O1295 Eu1248 2.339 . S
O1295 C1311 1.254 . S
O1296 Eu1248 2.563 . S
O1296 C1304 1.235 . S
O1297 Eu1248 2.419 . S
O1297 C1312 1.249 . S
O1298 Eu1259 2.558 . S
O1298 C1323 1.257 . S
O1299 Eu1248 2.380 . S
O1299 Eu1259 2.612 . S
O1299 C1315 1.276 . S
O1300 Eu1248 2.432 . S
O1300 C1322 1.264 . S
O1301 Eu1259 2.339 . S
O1301 C1322 1.254 . S
O1302 Eu1259 2.563 . S
O1302 C1315 1.235 . S
O1303 Eu1259 2.419 . S
O1303 C1323 1.249 . S
C1304 O1293 1.276 . S
C1304 O1296 1.235 . S
C1305 C1307 1.393 . S
C1305 C1309 1.395 . S
C1305 C1312 1.492 . S
C1306 C1307 1.392 . S
C1306 C1308 1.386 . S
C1307 C1305 1.393 . S
C1307 C1306 1.392 . S
C1307 H1324 0.930 . S
C1308 C1306 1.386 . S
C1308 C1310 1.395 . S
C1308 H1325 0.930 . S
C1309 C1305 1.395 . S
C1309 C1310 1.379 . S
C1309 H1326 0.930 . S
C1310 C1308 1.395 . S
C1310 C1309 1.379 . S
C1310 H1327 0.930 . S
C1311 O1294 1.264 . S
C1311 O1295 1.254 . S
C1312 Eu1248 2.848 . S
C1312 O1292 1.257 . S
C1312 O1297 1.249 . S
C1312 C1305 1.492 . S
C1313 H1278 0.931 . S
C1313 C1291 1.420 . S
C1313 C1314 1.351 . S
C1314 H1276 0.930 1_655 S
C1314 C1282 1.423 . S
C1314 C1313 1.351 . S
C1315 O1299 1.276 . S
C1315 O1302 1.235 . S
C1316 C1317 1.393 . S
C1316 C1320 1.395 . S
C1316 C1323 1.492 . S
C1317 C1316 1.393 . S
C1317 C1318 1.392 . S
C1317 H1328 0.930 . S
C1318 C1317 1.392 . S
C1318 C1319 1.386 . S
C1319 C1318 1.386 . S
C1319 C1321 1.395 . S
C1319 H1329 0.930 . S
C1320 C1316 1.395 . S
C1320 C1321 1.379 . S
C1320 H1330 0.930 . S
C1321 C1319 1.395 . S
C1321 C1320 1.379 . S
C1321 H1331 0.930 . S
C1322 O1300 1.264 . S
C1322 O1301 1.254 . S
C1323 Eu1259 2.848 . S
C1323 O1298 1.257 . S
C1323 O1303 1.249 . S
C1323 C1316 1.492 . S
H1324 C1307 0.930 . S
H1325 C1308 0.930 . S
H1326 C1309 0.930 . S
H1327 C1310 0.930 . S
H1328 C1317 0.930 . S
H1329 C1319 0.930 . S
H1330 C1320 0.930 . S
H1331 C1321 0.930 . S
C1332 C1333 1.387 . S
C1332 H1336 0.950 . S
C1332 C1341 1.390 . S
C1333 C1332 1.387 . S
C1333 C1335 1.387 . S
H1334 C1341 0.950 . S
C1335 C1333 1.387 . S
C1335 C1337 1.390 . S
C1335 H1339 0.950 . S
H1336 C1332 0.950 . S
C1337 C1335 1.390 . S
C1337 C1338 1.387 . S
C1337 H1340 0.950 . S
C1338 C1337 1.387 . S
C1338 C1341 1.387 . S
H1339 C1335 0.950 . S
H1340 C1337 0.950 . S
C1341 C1332 1.390 . S
C1341 H1334 0.950 . S
C1341 C1338 1.387 . S
C1342 C1343 1.387 . S
C1342 H1346 0.950 . S
C1342 C1351 1.390 . S
C1343 C1342 1.387 . S
C1343 C1345 1.387 . S
H1344 C1351 0.950 . S
C1345 C1343 1.387 . S
C1345 C1347 1.390 . S
C1345 H1349 0.950 . S
H1346 C1342 0.950 . S
C1347 C1345 1.390 . S
C1347 C1348 1.387 . S
C1347 H1350 0.950 . S
C1348 C1347 1.387 . S
C1348 C1351 1.387 . S
H1349 C1345 0.950 . S
H1350 C1347 0.950 . S
C1351 C1342 1.390 . S
C1351 H1344 0.950 . S
C1351 C1348 1.387 . S
C1352 C1353 1.387 . S
C1352 H1356 0.950 . S
C1352 C1361 1.390 . S
C1353 C1352 1.387 . S
C1353 C1355 1.387 . S
H1354 C1361 0.950 . S
C1355 C1353 1.387 . S
C1355 C1357 1.390 . S
C1355 H1359 0.950 . S
H1356 C1352 0.950 . S
C1357 C1355 1.390 . S
C1357 C1358 1.387 . S
C1357 H1360 0.950 . S
C1358 C1357 1.387 . S
C1358 C1361 1.387 . S
H1359 C1355 0.950 . S
H1360 C1357 0.950 . S
C1361 C1352 1.390 . S
C1361 H1354 0.950 . S
C1361 C1358 1.387 . S
C1362 C1363 1.387 . S
C1362 H1366 0.950 . S
C1362 C1371 1.390 . S
C1363 C1362 1.387 . S
C1363 C1365 1.387 . S
H1364 C1371 0.950 . S
C1365 C1363 1.387 . S
C1365 C1367 1.390 . S
C1365 H1369 0.950 . S
H1366 C1362 0.950 . S
C1367 C1365 1.390 . S
C1367 C1368 1.387 . S
C1367 H1370 0.950 1_556 S
C1368 C1367 1.387 . S
C1368 C1371 1.387 . S
H1369 C1365 0.950 . S
H1370 C1367 0.950 1_554 S
C1371 C1362 1.390 . S
C1371 H1364 0.950 . S
C1371 C1368 1.387 . S
C1372 C1373 1.387 . S
C1372 H1376 0.950 . S
C1372 C1381 1.390 . S
C1373 C1372 1.387 . S
C1373 C1375 1.387 . S
H1374 C1381 0.950 . S
C1375 C1373 1.387 . S
C1375 C1377 1.390 . S
C1375 H1379 0.950 . S
H1376 C1372 0.950 . S
C1377 C1375 1.390 . S
C1377 C1378 1.387 . S
C1377 H1380 0.950 . S
C1378 C1377 1.387 . S
C1378 C1381 1.387 . S
H1379 C1375 0.950 . S
H1380 C1377 0.950 . S
C1381 C1372 1.390 . S
C1381 H1374 0.950 . S
C1381 C1378 1.387 . S
C1382 C1383 1.387 . S
C1382 H1386 0.950 . S
C1382 C1391 1.390 . S
C1383 C1382 1.387 . S
C1383 C1385 1.387 . S
H1384 C1391 0.950 . S
C1385 C1383 1.387 . S
C1385 C1387 1.390 . S
C1385 H1389 0.950 1_556 S
H1386 C1382 0.950 . S
C1387 C1385 1.390 . S
C1387 C1388 1.387 . S
C1387 H1390 0.950 1_556 S
C1388 C1387 1.387 . S
C1388 C1391 1.387 . S
H1389 C1385 0.950 1_554 S
H1390 C1387 0.950 1_554 S
C1391 C1382 1.390 . S
C1391 H1384 0.950 . S
C1391 C1388 1.387 . S
C1392 C1393 1.387 . S
C1392 H1396 0.950 . S
C1392 C1401 1.390 . S
C1393 C1392 1.387 . S
C1393 C1395 1.387 . S
H1394 C1401 0.950 . S
C1395 C1393 1.387 . S
C1395 C1397 1.390 . S
C1395 H1399 0.950 . S
H1396 C1392 0.950 . S
C1397 C1395 1.390 . S
C1397 C1398 1.387 . S
C1397 H1400 0.950 1_556 S
C1398 C1397 1.387 . S
C1398 C1401 1.387 . S
H1399 C1395 0.950 . S
H1400 C1397 0.950 1_554 S
C1401 C1392 1.390 . S
C1401 H1394 0.950 . S
C1401 C1398 1.387 . S
C1402 C1403 1.387 . S
C1402 H1406 0.950 . S
C1402 C1411 1.390 . S
C1403 C1402 1.387 . S
C1403 C1405 1.387 . S
H1404 C1411 0.950 . S
C1405 C1403 1.387 . S
C1405 C1407 1.390 . S
C1405 H1409 0.950 . S
H1406 C1402 0.950 . S
C1407 C1405 1.390 . S
C1407 C1408 1.387 . S
C1407 H1410 0.983 . S
C1408 C1407 1.387 . S
C1408 C1411 1.387 . S
H1409 C1405 0.950 . S
H1410 C1407 0.983 . S
C1411 C1402 1.390 . S
C1411 H1404 0.950 . S
C1411 C1408 1.387 . S
C1412 C1413 1.387 . S
C1412 H1416 0.950 . S
C1412 C1421 1.390 . S
C1413 C1412 1.387 . S
C1413 C1415 1.387 . S
H1414 C1421 0.950 . S
C1415 C1413 1.387 . S
C1415 C1417 1.390 . S
C1415 H1419 0.950 . S
H1416 C1412 0.950 . S
C1417 C1415 1.390 . S
C1417 C1418 1.387 . S
C1417 H1420 0.950 . S
C1418 C1417 1.387 . S
C1418 C1421 1.387 . S
H1419 C1415 0.950 . S
H1420 C1417 0.950 . S
C1421 C1412 1.390 . S
C1421 H1414 0.950 . S
C1421 C1418 1.387 . S
C1422 C1423 1.387 . S
C1422 H1426 0.950 . S
C1422 C1431 1.390 . S
C1423 C1422 1.387 . S
C1423 C1425 1.387 . S
H1424 C1431 0.950 . S
C1425 C1423 1.387 . S
C1425 C1427 1.390 . S
C1425 H1429 0.950 . S
H1426 C1422 0.950 . S
C1427 C1425 1.390 . S
C1427 C1428 1.387 . S
C1427 H1430 0.950 . S
C1428 C1427 1.387 . S
C1428 C1431 1.387 . S
H1429 C1425 0.950 . S
H1430 C1427 0.950 . S
C1431 C1422 1.390 . S
C1431 H1424 0.950 . S
C1431 C1428 1.387 . S
C1432 C1433 1.387 . S
C1432 H1436 0.950 . S
C1432 C1441 1.390 . S
C1433 C1432 1.387 . S
C1433 C1435 1.387 . S
H1434 C1441 0.950 . S
C1435 C1433 1.387 . S
C1435 C1437 1.390 . S
C1435 H1439 0.950 . S
H1436 C1432 0.950 . S
C1437 C1435 1.390 . S
C1437 C1438 1.387 . S
C1437 H1440 0.950 . S
C1438 C1437 1.387 . S
C1438 C1441 1.387 . S
H1439 C1435 0.950 . S
H1440 C1437 0.950 . S
C1441 C1432 1.390 . S
C1441 H1434 0.950 . S
C1441 C1438 1.387 . S
C1442 C1443 1.387 . S
C1442 H1446 0.950 . S
C1442 C1451 1.390 . S
C1443 C1442 1.387 . S
C1443 C1445 1.387 . S
H1444 C1451 0.950 . S
C1445 C1443 1.387 . S
C1445 C1447 1.390 . S
C1445 H1449 0.950 . S
H1446 C1442 0.950 . S
C1447 C1445 1.390 . S
C1447 C1448 1.387 . S
C1447 H1450 0.987 . S
C1448 C1447 1.387 . S
C1448 C1451 1.387 . S
H1449 C1445 0.950 . S
H1450 C1447 0.987 . S
C1451 C1442 1.390 . S
C1451 H1444 0.950 . S
C1451 C1448 1.387 . S
C1452 C1453 1.387 . S
C1452 H1456 0.950 . S
C1452 C1461 1.390 . S
C1453 C1452 1.387 . S
C1453 C1455 1.387 . S
H1454 C1461 0.950 . S
C1455 C1453 1.387 . S
C1455 C1457 1.390 . S
C1455 H1459 0.950 . S
H1456 C1452 0.950 . S
C1457 C1455 1.390 . S
C1457 C1458 1.387 . S
C1457 H1460 0.950 . S
C1458 C1457 1.387 . S
C1458 C1461 1.387 . S
H1459 C1455 0.950 . S
H1460 C1457 0.950 . S
C1461 C1452 1.390 . S
C1461 H1454 0.950 . S
C1461 C1458 1.387 . S
C1462 C1463 1.387 . S
C1462 H1466 0.950 . S
C1462 C1471 1.390 . S
C1463 C1462 1.387 . S
C1463 C1465 1.387 . S
H1464 C1471 0.950 . S
C1465 C1463 1.387 . S
C1465 C1467 1.390 . S
C1465 H1469 0.950 . S
H1466 C1462 0.950 . S
C1467 C1465 1.390 . S
C1467 C1468 1.387 . S
C1467 H1470 0.950 . S
C1468 C1467 1.387 . S
C1468 C1471 1.387 . S
H1469 C1465 0.950 . S
H1470 C1467 0.950 . S
C1471 C1462 1.390 . S
C1471 H1464 0.950 . S
C1471 C1468 1.387 . S
C1472 C1473 1.388 . S
C1472 H1476 0.950 . S
C1472 C1481 1.390 . S
C1473 C1472 1.388 . S
C1473 C1475 1.420 . S
H1474 C1481 0.950 . S
C1475 C1473 1.420 . S
C1475 C1477 1.390 . S
C1475 H1479 0.950 . S
H1476 C1472 0.950 . S
C1477 C1475 1.390 . S
C1477 C1478 1.387 . S
C1477 H1480 0.950 . S
C1478 C1477 1.387 . S
C1478 C1481 1.387 . S
H1479 C1475 0.950 . S
H1480 C1477 0.950 . S
C1481 C1472 1.390 . S
C1481 H1474 0.950 . S
C1481 C1478 1.387 . S
C1482 C1483 1.387 . S
C1482 H1486 0.950 . S
C1482 C1491 1.390 . S
C1483 C1482 1.387 . S
C1483 C1485 1.387 . S
H1484 C1491 0.950 . S
C1485 C1483 1.387 . S
C1485 C1487 1.390 . S
C1485 H1489 0.950 . S
H1486 C1482 0.950 . S
C1487 C1485 1.390 . S
C1487 C1488 1.387 . S
C1487 H1490 0.950 . S
C1488 C1487 1.387 . S
C1488 C1491 1.387 . S
H1489 C1485 0.950 . S
H1490 C1487 0.950 . S
C1491 C1482 1.390 . S
C1491 H1484 0.950 . S
C1491 C1488 1.387 . S
C1492 C1493 1.387 . S
C1492 H1496 0.950 . S
C1492 C1501 1.390 . S
C1493 C1492 1.387 . S
C1493 C1495 1.387 . S
H1494 C1501 0.950 . S
C1495 C1493 1.387 . S
C1495 C1497 1.390 . S
C1495 H1499 0.950 . S
H1496 C1492 0.950 . S
C1497 C1495 1.390 . S
C1497 C1498 1.387 . S
C1497 H1500 0.950 . S
C1498 C1497 1.387 . S
C1498 C1501 1.387 . S
H1499 C1495 0.950 . S
H1500 C1497 0.950 . S
C1501 C1492 1.390 . S
C1501 H1494 0.950 . S
C1501 C1498 1.387 . S
C1502 C1503 1.387 . S
C1502 H1506 0.950 . S
C1502 C1511 1.390 . S
C1503 C1502 1.387 . S
C1503 C1505 1.387 . S
H1504 C1511 0.950 . S
C1505 C1503 1.387 . S
C1505 C1507 1.390 . S
C1505 H1509 0.950 . S
H1506 C1502 0.950 . S
C1507 C1505 1.390 . S
C1507 C1508 1.387 . S
C1507 H1510 0.950 . S
C1508 C1507 1.387 . S
C1508 C1511 1.387 . S
H1509 C1505 0.950 . S
H1510 C1507 0.950 . S
C1511 C1502 1.390 . S
C1511 H1504 0.950 . S
C1511 C1508 1.387 . S
C1512 C1513 1.387 . S
C1512 H1516 0.950 . S
C1512 C1521 1.390 . S
C1513 C1512 1.387 . S
C1513 C1515 1.387 . S
H1514 C1521 0.950 . S
C1515 C1513 1.387 . S
C1515 C1517 1.390 . S
C1515 H1519 0.950 . S
H1516 C1512 0.950 . S
C1517 C1515 1.390 . S
C1517 C1518 1.387 . S
C1517 H1520 0.950 . S
C1518 C1517 1.387 . S
C1518 C1521 1.387 . S
H1519 C1515 0.950 . S
H1520 C1517 0.950 . S
C1521 C1512 1.390 . S
C1521 H1514 0.950 . S
C1521 C1518 1.387 . S
C1522 C1523 1.387 . S
C1522 H1526 0.950 . S
C1522 C1531 1.390 . S
C1523 C1522 1.387 . S
C1523 C1525 1.387 . S
H1524 C1531 0.950 . S
C1525 C1523 1.387 . S
C1525 C1527 1.390 . S
C1525 H1529 0.950 . S
H1526 C1522 0.950 . S
C1527 C1525 1.390 . S
C1527 C1528 1.387 . S
C1527 H1530 0.950 . S
C1528 C1527 1.387 . S
C1528 C1531 1.387 . S
H1529 C1525 0.950 . S
H1530 C1527 0.950 . S
C1531 C1522 1.390 . S
C1531 H1524 0.950 . S
C1531 C1528 1.387 . S
C1532 C1533 1.387 . S
C1532 H1536 0.950 . S
C1532 C1541 1.390 . S
C1533 C1532 1.387 . S
C1533 C1535 1.387 . S
H1534 C1541 0.950 . S
C1535 C1533 1.387 . S
C1535 C1537 1.390 . S
C1535 H1539 0.950 . S
H1536 C1532 0.950 . S
C1537 C1535 1.390 . S
C1537 C1538 1.387 . S
C1537 H1540 0.950 . S
C1538 C1537 1.387 . S
C1538 C1541 1.387 . S
H1539 C1535 0.950 . S
H1540 C1537 0.950 . S
C1541 C1532 1.390 . S
C1541 H1534 0.950 . S
C1541 C1538 1.387 . S
C1542 C1543 1.387 . S
C1542 H1546 0.950 . S
C1542 C1551 1.390 . S
C1543 C1542 1.387 . S
C1543 C1545 1.387 . S
H1544 C1551 0.950 . S
C1545 C1543 1.387 . S
C1545 C1547 1.390 . S
C1545 H1549 0.950 . S
H1546 C1542 0.950 . S
C1547 C1545 1.390 . S
C1547 C1548 1.387 . S
C1547 H1550 0.950 . S
C1548 C1547 1.387 . S
C1548 C1551 1.387 . S
H1549 C1545 0.950 . S
H1550 C1547 0.950 . S
C1551 C1542 1.390 . S
C1551 H1544 0.950 . S
C1551 C1548 1.387 . S
C1552 C1553 1.387 . S
C1552 H1556 0.950 1_455 S
C1552 C1561 1.390 . S
C1553 C1552 1.387 . S
C1553 C1555 1.387 . S
H1554 C1561 0.950 . S
C1555 C1553 1.387 . S
C1555 C1557 1.390 . S
C1555 H1559 0.950 . S
H1556 C1552 0.950 1_655 S
C1557 C1555 1.390 . S
C1557 C1558 1.387 . S
C1557 H1560 0.950 . S
C1558 C1557 1.387 . S
C1558 C1561 1.387 . S
H1559 C1555 0.950 . S
H1560 C1557 0.950 . S
C1561 C1552 1.390 . S
C1561 H1554 0.950 . S
C1561 C1558 1.387 . S
C1562 C1563 1.387 . S
C1562 H1566 0.950 . S
C1562 C1571 1.390 . S
C1563 C1562 1.387 . S
C1563 C1565 1.387 . S
H1564 C1571 0.950 . S
C1565 C1563 1.387 . S
C1565 C1567 1.390 . S
C1565 H1569 0.950 . S
H1566 C1562 0.950 . S
C1567 C1565 1.390 . S
C1567 C1568 1.387 . S
C1567 H1570 0.950 . S
C1568 C1567 1.387 . S
C1568 C1571 1.387 . S
H1569 C1565 0.950 . S
H1570 C1567 0.950 . S
C1571 C1562 1.390 . S
C1571 H1564 0.950 . S
C1571 C1568 1.387 . S
C1572 C1573 1.387 . S
C1572 H1576 0.950 . S
C1572 C1581 1.390 . S
C1573 C1572 1.387 . S
C1573 C1575 1.387 . S
H1574 C1581 0.950 . S
C1575 C1573 1.387 . S
C1575 C1577 1.390 . S
C1575 H1579 0.950 . S
H1576 C1572 0.950 . S
C1577 C1575 1.390 . S
C1577 C1578 1.387 . S
C1577 H1580 0.950 . S
C1578 C1577 1.387 . S
C1578 C1581 1.387 . S
H1579 C1575 0.950 . S
H1580 C1577 0.950 . S
C1581 C1572 1.390 . S
C1581 H1574 0.950 . S
C1581 C1578 1.387 . S
C1582 C1583 1.387 . S
C1582 H1586 0.950 . S
C1582 C1591 1.390 . S
C1583 C1582 1.387 . S
C1583 C1585 1.387 . S
H1584 C1591 0.950 . S
C1585 C1583 1.387 . S
C1585 C1587 1.390 . S
C1585 H1589 0.950 . S
H1586 C1582 0.950 . S
C1587 C1585 1.390 . S
C1587 C1588 1.387 . S
C1587 H1590 0.950 . S
C1588 C1587 1.387 . S
C1588 C1591 1.387 . S
H1589 C1585 0.950 . S
H1590 C1587 0.950 . S
C1591 C1582 1.390 . S
C1591 H1584 0.950 . S
C1591 C1588 1.387 . S
C1592 C1593 1.387 . S
C1592 H1596 0.950 . S
C1592 C1601 1.390 . S
C1593 C1592 1.387 . S
C1593 C1595 1.387 . S
H1594 C1601 0.950 . S
C1595 C1593 1.387 . S
C1595 C1597 1.390 . S
C1595 H1599 0.950 . S
H1596 C1592 0.950 . S
C1597 C1595 1.390 . S
C1597 C1598 1.387 . S
C1597 H1600 0.950 . S
C1598 C1597 1.387 . S
C1598 C1601 1.387 . S
H1599 C1595 0.950 . S
H1600 C1597 0.950 . S
C1601 C1592 1.390 . S
C1601 H1594 0.950 . S
C1601 C1598 1.387 . S
C1602 C1603 1.387 . S
C1602 H1606 0.950 1_545 S
C1602 C1611 1.390 . S
C1603 C1602 1.387 . S
C1603 C1605 1.387 . S
H1604 C1611 0.950 . S
C1605 C1603 1.387 . S
C1605 C1607 1.390 . S
C1605 H1609 0.950 . S
H1606 C1602 0.950 1_565 S
C1607 C1605 1.390 . S
C1607 C1608 1.387 . S
C1607 H1610 0.950 . S
C1608 C1607 1.387 . S
C1608 C1611 1.387 . S
H1609 C1605 0.950 . S
H1610 C1607 0.950 . S
C1611 C1602 1.390 . S
C1611 H1604 0.950 . S
C1611 C1608 1.387 . S
C1612 C1613 1.387 . S
C1612 H1616 0.950 . S
C1612 C1621 1.390 . S
C1613 C1612 1.387 . S
C1613 C1615 1.387 . S
H1614 C1621 0.950 . S
C1615 C1613 1.387 . S
C1615 C1617 1.390 . S
C1615 H1619 0.950 . S
H1616 C1612 0.950 . S
C1617 C1615 1.390 . S
C1617 C1618 1.387 . S
C1617 H1620 0.950 . S
C1618 C1617 1.387 . S
C1618 C1621 1.387 . S
H1619 C1615 0.950 . S
H1620 C1617 0.950 . S
C1621 C1612 1.390 . S
C1621 H1614 0.950 . S
C1621 C1618 1.387 . S
C1622 C1623 1.387 . S
C1622 H1626 0.950 . S
C1622 C1631 1.390 . S
C1623 C1622 1.387 . S
C1623 C1625 1.387 . S
H1624 C1631 0.950 . S
C1625 C1623 1.387 . S
C1625 C1627 1.390 . S
C1625 H1629 0.950 . S
H1626 C1622 0.950 . S
C1627 C1625 1.390 . S
C1627 C1628 1.387 . S
C1627 H1630 0.950 . S
C1628 C1627 1.387 . S
C1628 C1631 1.387 . S
H1629 C1625 0.950 . S
H1630 C1627 0.950 . S
C1631 C1622 1.390 . S
C1631 H1624 0.950 . S
C1631 C1628 1.387 . S
C1632 C1633 1.387 . S
C1632 H1636 0.950 1_655 S
C1632 C1641 1.390 . S
C1633 C1632 1.387 . S
C1633 C1635 1.387 . S
H1634 C1641 0.950 . S
C1635 C1633 1.387 . S
C1635 C1637 1.390 . S
C1635 H1639 0.950 . S
H1636 C1632 0.950 1_455 S
C1637 C1635 1.390 . S
C1637 C1638 1.387 . S
C1637 H1640 0.950 . S
C1638 C1637 1.387 . S
C1638 C1641 1.387 . S
H1639 C1635 0.950 . S
H1640 C1637 0.950 . S
C1641 C1632 1.390 . S
C1641 H1634 0.950 . S
C1641 C1638 1.387 . S
C1642 C1643 1.387 . S
C1642 H1646 0.950 . S
C1642 C1651 1.390 . S
C1643 C1642 1.387 . S
C1643 C1645 1.387 . S
H1644 C1651 0.950 . S
C1645 C1643 1.387 . S
C1645 C1647 1.390 . S
C1645 H1649 0.950 . S
H1646 C1642 0.950 . S
C1647 C1645 1.390 . S
C1647 C1648 1.387 . S
C1647 H1650 0.950 . S
C1648 C1647 1.387 . S
C1648 C1651 1.387 . S
H1649 C1645 0.950 . S
H1650 C1647 0.950 . S
C1651 C1642 1.390 . S
C1651 H1644 0.950 . S
C1651 C1648 1.387 . S
C1652 C1653 1.387 . S
C1652 H1656 0.950 . S
C1652 C1661 1.390 . S
C1653 C1652 1.387 . S
C1653 C1655 1.387 . S
H1654 C1661 0.950 . S
C1655 C1653 1.387 . S
C1655 C1657 1.390 . S
C1655 H1659 0.950 . S
H1656 C1652 0.950 . S
C1657 C1655 1.390 . S
C1657 C1658 1.387 . S
C1657 H1660 0.950 . S
C1658 C1657 1.387 . S
C1658 C1661 1.387 . S
H1659 C1655 0.950 . S
H1660 C1657 0.950 . S
C1661 C1652 1.390 . S
C1661 H1654 0.950 . S
C1661 C1658 1.387 . S
C1662 C1663 1.387 . S
C1662 H1666 0.950 . S
C1662 C1671 1.390 . S
C1663 C1662 1.387 . S
C1663 C1665 1.387 . S
H1664 C1671 0.950 . S
C1665 C1663 1.387 . S
C1665 C1667 1.390 . S
C1665 H1669 0.950 . S
H1666 C1662 0.950 . S
C1667 C1665 1.390 . S
C1667 C1668 1.387 . S
C1667 H1670 0.950 . S
C1668 C1667 1.387 . S
C1668 C1671 1.387 . S
H1669 C1665 0.950 . S
H1670 C1667 0.950 . S
C1671 C1662 1.390 . S
C1671 H1664 0.950 . S
C1671 C1668 1.387 . S
C1672 C1673 1.387 . S
C1672 H1676 0.950 . S
C1672 C1681 1.390 . S
C1673 C1672 1.387 . S
C1673 C1675 1.387 . S
H1674 C1681 0.950 . S
C1675 C1673 1.387 . S
C1675 C1677 1.390 . S
C1675 H1679 0.950 . S
H1676 C1672 0.950 . S
C1677 C1675 1.390 . S
C1677 C1678 1.387 . S
C1677 H1680 0.950 . S
C1678 C1677 1.387 . S
C1678 C1681 1.387 . S
H1679 C1675 0.950 . S
H1680 C1677 0.950 . S
C1681 C1672 1.390 . S
C1681 H1674 0.950 . S
C1681 C1678 1.387 . S
C1682 C1683 1.387 . S
C1682 H1686 0.950 . S
C1682 C1691 1.390 . S
C1683 C1682 1.387 . S
C1683 C1685 1.387 . S
H1684 C1691 0.950 . S
C1685 C1683 1.387 . S
C1685 C1687 1.390 . S
C1685 H1689 0.950 . S
H1686 C1682 0.950 . S
C1687 C1685 1.390 . S
C1687 C1688 1.387 . S
C1687 H1690 0.950 . S
C1688 C1687 1.387 . S
C1688 C1691 1.387 . S
H1689 C1685 0.950 . S
H1690 C1687 0.950 . S
C1691 C1682 1.390 . S
C1691 H1684 0.950 . S
C1691 C1688 1.387 . S
C1692 C1693 1.387 . S
C1692 H1696 0.950 . S
C1692 C1701 1.390 . S
C1693 C1692 1.387 . S
C1693 C1695 1.387 . S
H1694 C1701 0.950 . S
C1695 C1693 1.387 . S
C1695 C1697 1.390 . S
C1695 H1699 0.950 . S
H1696 C1692 0.950 . S
C1697 C1695 1.390 . S
C1697 C1698 1.387 . S
C1697 H1700 0.950 . S
C1698 C1697 1.387 . S
C1698 C1701 1.387 . S
H1699 C1695 0.950 . S
H1700 C1697 0.950 . S
C1701 C1692 1.390 . S
C1701 H1694 0.950 . S
C1701 C1698 1.387 . S
C1702 C1703 1.387 . S
C1702 H1706 0.950 . S
C1702 C1711 1.390 . S
C1703 C1702 1.387 . S
C1703 C1705 1.387 . S
H1704 C1711 0.950 . S
C1705 C1703 1.387 . S
C1705 C1707 1.390 . S
C1705 H1709 0.950 . S
H1706 C1702 0.950 . S
C1707 C1705 1.390 . S
C1707 C1708 1.387 . S
C1707 H1710 0.950 1_455 S
C1708 C1707 1.387 . S
C1708 C1711 1.387 . S
H1709 C1705 0.950 . S
H1710 C1707 0.950 1_655 S
C1711 C1702 1.390 . S
C1711 H1704 0.950 . S
C1711 C1708 1.387 . S
C1712 C1713 1.387 . S
C1712 H1716 0.950 . S
C1712 C1721 1.390 . S
C1713 C1712 1.387 . S
C1713 C1715 1.387 . S
H1714 C1721 0.950 . S
C1715 C1713 1.387 . S
C1715 C1717 1.390 . S
C1715 H1719 0.950 . S
H1716 C1712 0.950 . S
C1717 C1715 1.390 . S
C1717 C1718 1.387 . S
C1717 H1720 0.950 . S
C1718 C1717 1.387 . S
C1718 C1721 1.387 . S
H1719 C1715 0.950 . S
H1720 C1717 0.950 . S
C1721 C1712 1.390 . S
C1721 H1714 0.950 . S
C1721 C1718 1.387 . S
C1722 C1723 1.387 . S
C1722 H1726 0.950 . S
C1722 C1731 1.390 . S
C1723 C1722 1.387 . S
C1723 C1725 1.387 . S
H1724 C1731 0.950 . S
C1725 C1723 1.387 . S
C1725 C1727 1.390 . S
C1725 H1729 0.950 1_655 S
H1726 C1722 0.950 . S
C1727 C1725 1.390 . S
C1727 C1728 1.387 . S
C1727 H1730 0.950 1_655 S
C1728 C1727 1.387 . S
C1728 C1731 1.387 . S
H1729 C1725 0.950 1_455 S
H1730 C1727 0.950 1_455 S
C1731 C1722 1.390 . S
C1731 H1724 0.950 . S
C1731 C1728 1.387 . S
C1732 C1733 1.387 . S
C1732 H1736 0.950 . S
C1732 C1741 1.390 . S
C1733 C1732 1.387 . S
C1733 C1735 1.387 . S
H1734 C1741 0.950 . S
C1735 C1733 1.387 . S
C1735 C1737 1.390 . S
C1735 H1739 0.950 . S
H1736 C1732 0.950 . S
C1737 C1735 1.390 . S
C1737 C1738 1.387 . S
C1737 H1740 0.950 . S
C1738 C1737 1.387 . S
C1738 C1741 1.387 . S
H1739 C1735 0.950 . S
H1740 C1737 0.950 . S
C1741 C1732 1.390 . S
C1741 H1734 0.950 . S
C1741 C1738 1.387 . S
C1742 C1743 1.387 . S
C1742 H1746 0.950 . S
C1742 C1751 1.390 . S
C1743 C1742 1.387 . S
C1743 C1745 1.387 . S
H1744 C1751 0.950 . S
C1745 C1743 1.387 . S
C1745 C1747 1.390 . S
C1745 H1749 0.950 . S
H1746 C1742 0.950 . S
C1747 C1745 1.390 . S
C1747 C1748 1.387 . S
C1747 H1750 0.950 . S
C1748 C1747 1.387 . S
C1748 C1751 1.387 . S
H1749 C1745 0.950 . S
H1750 C1747 0.950 . S
C1751 C1742 1.390 . S
C1751 H1744 0.950 . S
C1751 C1748 1.387 . S
C1752 C1753 1.387 . S
C1752 H1756 0.950 . S
C1752 C1761 1.390 . S
C1753 C1752 1.387 . S
C1753 C1755 1.387 . S
H1754 C1761 0.950 . S
C1755 C1753 1.387 . S
C1755 C1757 1.390 . S
C1755 H1759 0.950 . S
H1756 C1752 0.950 . S
C1757 C1755 1.390 . S
C1757 C1758 1.387 . S
C1757 H1760 0.950 . S
C1758 C1757 1.387 . S
C1758 C1761 1.387 . S
H1759 C1755 0.950 . S
H1760 C1757 0.950 . S
C1761 C1752 1.390 . S
C1761 H1754 0.950 . S
C1761 C1758 1.387 . S
C1762 C1763 1.387 . S
C1762 H1766 0.950 . S
C1762 C1771 1.390 . S
C1763 C1762 1.387 . S
C1763 C1765 1.387 . S
H1764 C1771 0.950 . S
C1765 C1763 1.387 . S
C1765 C1767 1.390 . S
C1765 H1769 0.950 . S
H1766 C1762 0.950 . S
C1767 C1765 1.390 . S
C1767 C1768 1.387 . S
C1767 H1770 0.950 . S
C1768 C1767 1.387 . S
C1768 C1771 1.387 . S
H1769 C1765 0.950 . S
H1770 C1767 0.950 . S
C1771 C1762 1.390 . S
C1771 H1764 0.950 . S
C1771 C1768 1.387 . S
C1772 C1773 1.387 . S
C1772 H1776 0.950 . S
C1772 C1781 1.390 . S
C1773 C1772 1.387 . S
C1773 C1775 1.387 . S
H1774 C1781 0.950 . S
C1775 C1773 1.387 . S
C1775 C1777 1.390 . S
C1775 H1779 0.950 . S
H1776 C1772 0.950 . S
C1777 C1775 1.390 . S
C1777 C1778 1.387 . S
C1777 H1780 0.950 . S
C1778 C1777 1.387 . S
C1778 C1781 1.387 . S
H1779 C1775 0.950 . S
H1780 C1777 0.950 . S
C1781 C1772 1.390 . S
C1781 H1774 0.950 . S
C1781 C1778 1.387 . S
C1782 C1783 1.387 . S
C1782 H1786 0.950 . S
C1782 C1791 1.390 . S
C1783 C1782 1.387 . S
C1783 C1785 1.387 . S
H1784 C1791 0.950 . S
C1785 C1783 1.387 . S
C1785 C1787 1.390 . S
C1785 H1789 0.950 . S
H1786 C1782 0.950 . S
C1787 C1785 1.390 . S
C1787 C1788 1.387 . S
C1787 H1790 0.950 . S
C1788 C1787 1.387 . S
C1788 C1791 1.387 . S
H1789 C1785 0.950 . S
H1790 C1787 0.950 . S
C1791 C1782 1.390 . S
C1791 H1784 0.950 . S
C1791 C1788 1.387 . S
C1792 C1793 1.387 . S
C1792 H1796 0.950 . S
C1792 C1801 1.390 . S
C1793 C1792 1.387 . S
C1793 C1795 1.387 . S
H1794 C1801 0.950 . S
C1795 C1793 1.387 . S
C1795 C1797 1.390 . S
C1795 H1799 0.950 . S
H1796 C1792 0.950 . S
C1797 C1795 1.390 . S
C1797 C1798 1.387 . S
C1797 H1800 0.950 . S
C1798 C1797 1.387 . S
C1798 C1801 1.387 . S
H1799 C1795 0.950 . S
H1800 C1797 0.950 . S
C1801 C1792 1.390 . S
C1801 H1794 0.950 . S
C1801 C1798 1.387 . S
C1802 C1803 1.387 . S
C1802 H1806 0.950 . S
C1802 C1811 1.390 . S
C1803 C1802 1.387 . S
C1803 C1805 1.387 . S
H1804 C1811 0.950 . S
C1805 C1803 1.387 . S
C1805 C1807 1.390 . S
C1805 H1809 0.950 . S
H1806 C1802 0.950 . S
C1807 C1805 1.390 . S
C1807 C1808 1.387 . S
C1807 H1810 0.950 . S
C1808 C1807 1.387 . S
C1808 C1811 1.387 . S
H1809 C1805 0.950 . S
H1810 C1807 0.950 . S
C1811 C1802 1.390 . S
C1811 H1804 0.950 . S
C1811 C1808 1.387 . S
C1812 C1813 1.387 . S
C1812 H1816 0.950 . S
C1812 C1821 1.390 . S
C1813 C1812 1.387 . S
C1813 C1815 1.387 . S
H1814 C1821 0.950 . S
C1815 C1813 1.387 . S
C1815 C1817 1.390 . S
C1815 H1819 0.950 . S
H1816 C1812 0.950 . S
C1817 C1815 1.390 . S
C1817 C1818 1.387 . S
C1817 H1820 0.950 . S
C1818 C1817 1.387 . S
C1818 C1821 1.387 . S
H1819 C1815 0.950 . S
H1820 C1817 0.950 . S
C1821 C1812 1.390 . S
C1821 H1814 0.950 . S
C1821 C1818 1.387 . S
C1822 C1823 1.387 . S
C1822 H1826 0.950 . S
C1822 C1831 1.390 . S
C1823 C1822 1.387 . S
C1823 C1825 1.387 . S
H1824 C1831 0.950 . S
C1825 C1823 1.387 . S
C1825 C1827 1.390 . S
C1825 H1829 0.950 . S
H1826 C1822 0.950 . S
C1827 C1825 1.390 . S
C1827 C1828 1.387 . S
C1827 H1830 0.950 . S
C1828 C1827 1.387 . S
C1828 C1831 1.387 . S
H1829 C1825 0.950 . S
H1830 C1827 0.950 . S
C1831 C1822 1.390 . S
C1831 H1824 0.950 . S
C1831 C1828 1.387 . S
C1832 C1833 1.387 . S
C1832 H1836 0.950 . S
C1832 C1841 1.390 . S
C1833 C1832 1.387 . S
C1833 C1835 1.387 . S
H1834 C1841 0.950 . S
C1835 C1833 1.387 . S
C1835 C1837 1.390 . S
C1835 H1839 0.950 . S
H1836 C1832 0.950 . S
C1837 C1835 1.390 . S
C1837 C1838 1.387 . S
C1837 H1840 0.950 . S
C1838 C1837 1.387 . S
C1838 C1841 1.387 . S
H1839 C1835 0.950 . S
H1840 C1837 0.950 . S
C1841 C1832 1.390 . S
C1841 H1834 0.950 . S
C1841 C1838 1.387 . S
C1842 C1843 1.387 . S
C1842 H1846 0.950 . S
C1842 C1851 1.390 . S
C1843 C1842 1.387 . S
C1843 C1845 1.387 . S
H1844 C1851 0.950 . S
C1845 C1843 1.387 . S
C1845 C1847 1.390 . S
C1845 H1849 0.950 . S
H1846 C1842 0.950 . S
C1847 C1845 1.390 . S
C1847 C1848 1.387 . S
C1847 H1850 0.950 . S
C1848 C1847 1.387 . S
C1848 C1851 1.387 . S
H1849 C1845 0.950 . S
H1850 C1847 0.950 . S
C1851 C1842 1.390 . S
C1851 H1844 0.950 . S
C1851 C1848 1.387 . S
C1852 C1853 1.387 . S
C1852 H1856 0.950 . S
C1852 C1861 1.390 . S
C1853 C1852 1.387 . S
C1853 C1855 1.387 . S
H1854 C1861 0.950 . S
C1855 C1853 1.387 . S
C1855 C1857 1.390 . S
C1855 H1859 0.950 . S
H1856 C1852 0.950 . S
C1857 C1855 1.390 . S
C1857 C1858 1.387 . S
C1857 H1860 0.950 . S
C1858 C1857 1.387 . S
C1858 C1861 1.387 . S
H1859 C1855 0.950 . S
H1860 C1857 0.950 . S
C1861 C1852 1.390 . S
C1861 H1854 0.950 . S
C1861 C1858 1.387 . S
C1862 C1863 1.387 . S
C1862 H1866 0.950 . S
C1862 C1871 1.390 . S
C1863 C1862 1.387 . S
C1863 C1865 1.387 . S
H1864 C1871 0.950 . S
C1865 C1863 1.387 . S
C1865 C1867 1.390 . S
C1865 H1869 0.950 . S
H1866 C1862 0.950 . S
C1867 C1865 1.390 . S
C1867 C1868 1.387 . S
C1867 H1870 0.950 . S
C1868 C1867 1.387 . S
C1868 C1871 1.387 . S
H1869 C1865 0.950 . S
H1870 C1867 0.950 . S
C1871 C1862 1.390 . S
C1871 H1864 0.950 . S
C1871 C1868 1.387 . S
C1333 C439 1.380 . S
C1338 C643 1.369 . S
C1343 C465 1.531 . S
C1348 C727 1.458 . S
C1353 C401 1.514 . S
C1358 C807 1.449 . S
C1363 C369 1.468 . S
C1368 C723 1.417 . S
C1378 C811 1.407 . S
C1373 C305 1.484 . S
C1383 C343 1.355 . S
C1388 C639 1.371 . S
C1398 C632 1.399 . S
C1393 C375 1.481 . S
C1408 C716 1.434 . S
C1403 C311 1.506 . S
C1413 C337 1.438 . S
C1418 C818 1.446 . S
C1423 C433 1.411 . S
C1428 C734 1.415 . S
C1433 C471 1.457 . S
C1438 C800 1.379 . S
C1448 C650 1.398 . S
C1443 C407 1.467 . S
C1458 C895 1.370 . S
C1453 C55 1.383 1_455 S
C1463 C81 1.532 . S
C1468 C979 1.461 . S
C1473 C17 1.482 1_565 S
C1478 C1059 1.446 . S
C1483 C561 1.469 . S
C1488 C975 1.416 . S
C1493 C497 1.484 . S
C1498 C1063 1.407 . S
C1503 C535 1.351 . S
C1508 C891 1.368 . S
C1513 C567 1.481 . S
C1518 C884 1.399 . S
C1523 C503 1.505 . S
C1528 C968 1.438 . S
C1538 C1070 1.445 . S
C1533 C529 1.436 . S
C1543 C49 1.412 1_565 S
C1548 C986 1.416 . S
C1558 C1052 1.383 . S
C1553 C87 1.456 1_455 S
C1563 C23 1.467 . S
C1568 C902 1.402 . S
C1578 C1147 1.372 . S
C1573 C247 1.382 . S
C1583 C273 1.532 . S
C1588 C1231 1.460 . S
C1598 C1311 1.449 . S
C1593 C209 1.514 . S
C1608 C1227 1.416 . S
C1603 C177 1.469 1_545 S
C1618 C1315 1.405 . S
C1613 C113 1.483 1_655 S
C1623 C151 1.355 . S
C1628 C1143 1.371 . S
C1633 C183 1.480 1_655 S
C1638 C1136 1.401 . S
C1643 C119 1.505 . S
C1648 C1220 1.436 . S
C1658 C1322 1.448 . S
C1653 C145 1.439 1_545 S
C1663 C241 1.411 . S
C1668 C1238 1.415 . S
C1673 C279 1.457 . S
C1678 C1304 1.379 . S
C1683 C215 1.467 . S
C1688 C1154 1.402 . S
C1693 C509 1.460 . S
C1698 C646 1.399 . S
C1708 C730 1.360 . S
C1703 C541 1.459 . S
C1713 C573 1.468 . S
C1718 C802 1.370 . S
C1723 C221 1.498 . S
C1728 C718 1.373 . S
C1733 C253 1.449 . S
C1738 C814 1.356 . S
C1748 C634 1.396 . S
C1743 C285 1.461 . S
C1753 C125 1.461 . S
C1758 C898 1.399 . S
C1763 C157 1.457 . S
C1768 C982 1.360 . S
C1773 C189 1.467 . S
C1778 C1054 1.371 . S
C1783 C413 1.498 . S
C1788 C970 1.372 . S
C1798 C1066 1.355 . S
C1793 C445 1.449 . S
C1803 C477 1.461 . S
C1808 C886 1.397 . S
C1813 C317 1.463 . S
C1818 C1150 1.395 . S
C1823 C349 1.457 . S
C1828 C1234 1.357 . S
C1838 C1306 1.368 . S
C1833 C381 1.469 . S
C1843 C29 1.499 . S
C1848 C1222 1.371 . S
C1853 C61 1.451 . S
C1858 C1318 1.357 . S
C1863 C93 1.461 . S
C1868 C1138 1.397 . S
