# Generated by pormake.
# Topology ant, (3,6)-cn, num edge types: 1
# Building blocks:
#     Node 0, Type 0, BuildingBlock: CUQRIR_clean_linker_1, # of connection points: 3
#     Node 1, Type 0, BuildingBlock: CUQRIR_clean_linker_1, # of connection points: 3
#     Node 2, Type 0, BuildingBlock: CUQRIR_clean_linker_1, # of connection points: 3
#     Node 3, Type 0, BuildingBlock: CUQRIR_clean_linker_1, # of connection points: 3
#     Node 4, Type 0, BuildingBlock: CUQRIR_clean_linker_1, # of connection points: 3
#     Node 5, Type 0, BuildingBlock: CUQRIR_clean_linker_1, # of connection points: 3
#     Node 6, Type 0, BuildingBlock: CUQRIR_clean_linker_1, # of connection points: 3
#     Node 7, Type 0, BuildingBlock: CUQRIR_clean_linker_1, # of connection points: 3
#     Node 8, Type 1, BuildingBlock: MIDCAF_clean_sbu_0, # of connection points: 6
#     Node 9, Type 1, BuildingBlock: MIDCAF_clean_sbu_0, # of connection points: 6
#     Node 10, Type 1, BuildingBlock: MIDCAF_clean_sbu_0, # of connection points: 6
#     Node 11, Type 1, BuildingBlock: MIDCAF_clean_sbu_0, # of connection points: 6
#     Edge 12, Type (0, 1), BuildingBlock: CIFDUS_clean_linker_0, # of connection points: 2
#     Edge 13, Type (0, 1), BuildingBlock: CIFDUS_clean_linker_0, # of connection points: 2
#     Edge 14, Type (0, 1), BuildingBlock: CIFDUS_clean_linker_0, # of connection points: 2
#     Edge 15, Type (0, 1), BuildingBlock: CIFDUS_clean_linker_0, # of connection points: 2
#     Edge 16, Type (0, 1), BuildingBlock: CIFDUS_clean_linker_0, # of connection points: 2
#     Edge 17, Type (0, 1), BuildingBlock: CIFDUS_clean_linker_0, # of connection points: 2
#     Edge 18, Type (0, 1), BuildingBlock: CIFDUS_clean_linker_0, # of connection points: 2
#     Edge 19, Type (0, 1), BuildingBlock: CIFDUS_clean_linker_0, # of connection points: 2
#     Edge 20, Type (0, 1), BuildingBlock: CIFDUS_clean_linker_0, # of connection points: 2
#     Edge 21, Type (0, 1), BuildingBlock: CIFDUS_clean_linker_0, # of connection points: 2
#     Edge 22, Type (0, 1), BuildingBlock: CIFDUS_clean_linker_0, # of connection points: 2
#     Edge 23, Type (0, 1), BuildingBlock: CIFDUS_clean_linker_0, # of connection points: 2
#     Edge 24, Type (0, 1), BuildingBlock: CIFDUS_clean_linker_0, # of connection points: 2
#     Edge 25, Type (0, 1), BuildingBlock: CIFDUS_clean_linker_0, # of connection points: 2
#     Edge 26, Type (0, 1), BuildingBlock: CIFDUS_clean_linker_0, # of connection points: 2
#     Edge 27, Type (0, 1), BuildingBlock: CIFDUS_clean_linker_0, # of connection points: 2
#     Edge 28, Type (0, 1), BuildingBlock: CIFDUS_clean_linker_0, # of connection points: 2
#     Edge 29, Type (0, 1), BuildingBlock: CIFDUS_clean_linker_0, # of connection points: 2
#     Edge 30, Type (0, 1), BuildingBlock: CIFDUS_clean_linker_0, # of connection points: 2
#     Edge 31, Type (0, 1), BuildingBlock: CIFDUS_clean_linker_0, # of connection points: 2
#     Edge 32, Type (0, 1), BuildingBlock: CIFDUS_clean_linker_0, # of connection points: 2
#     Edge 33, Type (0, 1), BuildingBlock: CIFDUS_clean_linker_0, # of connection points: 2
#     Edge 34, Type (0, 1), BuildingBlock: CIFDUS_clean_linker_0, # of connection points: 2
#     Edge 35, Type (0, 1), BuildingBlock: CIFDUS_clean_linker_0, # of connection points: 2
# Relax obj value: 0.111
# Max RMSD: 0.219
# Mean RMSD: 0.146
data_MOF--net-ant--node1-MIDCAF_clean_sbu_0--node2-CUQRIR_clean_linker_1--edge1-CIFDUS_clean_linker_0
_symmetry_space_group_name_H-M    P1
_symmetry_Int_Tables_number       1
_symmetry_cell_setting            triclinic
loop_
_symmetry_equiv_pos_as_xyz
'x, y, z'
_cell_length_a     23.213193
_cell_length_b     22.998615
_cell_length_c     57.397
_cell_angle_alpha  84.561583
_cell_angle_beta   94.313106
_cell_angle_gamma 89.942236
loop_
_atom_site_label
_atom_site_type_symbol
_atom_site_fract_x
_atom_site_fract_y
_atom_site_fract_z
_atom_type_partial_charge
C0 C 0.20138 0.2849 0.07874 0.0
N1 N 0.20059 0.2332 0.06915 0.0
N2 N 0.18078 0.32894 0.06296 0.0
C3 C 0.2209 0.29246 0.10386 0.0
C4 C 0.16781 0.30239 0.04321 0.0
N5 N 0.17973 0.24439 0.04697 0.0
C6 C 0.13823 0.33182 0.02099 0.0
H7 H 0.18298 0.29052 0.11456 0.0
H8 H 0.24137 0.33576 0.10513 0.0
H9 H 0.25189 0.2574 0.11115 0.0
H10 H 0.14734 0.37926 0.01913 0.0
H11 H 0.09088 0.32597 0.02151 0.0
H12 H 0.15215 0.31178 0.00546 0.0
C13 C 0.09732 0.71808 0.34398 0.0
N14 N 0.13996 0.7181 0.32901 0.0
N15 N 0.04548 0.70624 0.33285 0.0
C16 C 0.10613 0.72893 0.36939 0.0
C17 C 0.05823 0.69859 0.31077 0.0
N18 N 0.11522 0.70595 0.3084 0.0
C19 C 0.01547 0.68083 0.2917 0.0
H20 H 0.11493 0.68657 0.38002 0.0
H21 H 0.0668 0.74865 0.37534 0.0
H22 H 0.1435 0.75786 0.37254 0.0
H23 H 0.99654 0.72064 0.28154 0.0
H24 H 0.98 0.65471 0.29924 0.0
H25 H 0.03697 0.6549 0.27944 0.0
C26 C 0.71702 0.79803 0.58698 0.0
N27 N 0.71925 0.74696 0.57696 0.0
N28 N 0.69707 0.84232 0.57121 0.0
C29 C 0.73409 0.80513 0.61236 0.0
C30 C 0.6879 0.81684 0.551 0.0
N31 N 0.70123 0.75917 0.55447 0.0
C32 C 0.66152 0.84702 0.52831 0.0
H33 H 0.69491 0.80494 0.6223 0.0
H34 H 0.75565 0.84779 0.61393 0.0
H35 H 0.76348 0.76927 0.62025 0.0
H36 H 0.66606 0.89509 0.52778 0.0
H37 H 0.61487 0.83642 0.52653 0.0
H38 H 0.68192 0.83111 0.51321 0.0
C39 C 0.56808 0.30167 0.84545 0.0
N40 N 0.60541 0.29795 0.82852 0.0
N41 N 0.51367 0.2892 0.83731 0.0
C42 C 0.58351 0.32153 0.86934 0.0
C43 C 0.51886 0.27784 0.8149 0.0
N44 N 0.57424 0.28381 0.80947 0.0
C45 C 0.4711 0.25452 0.79914 0.0
H46 H 0.5928 0.28283 0.88214 0.0
H47 H 0.54681 0.3458 0.87527 0.0
H48 H 0.6222 0.34982 0.86917 0.0
H49 H 0.44738 0.29178 0.78903 0.0
H50 H 0.4401 0.22844 0.80953 0.0
H51 H 0.48853 0.22665 0.78653 0.0
C52 C 0.97756 0.7036 0.90144 0.0
N53 N 0.99557 0.74112 0.91739 0.0
N54 N 0.96758 0.64963 0.91215 0.0
C55 C 0.96638 0.72054 0.87554 0.0
C56 C 0.98075 0.65565 0.93522 0.0
N57 N 0.99739 0.71089 0.93836 0.0
C58 C 0.98014 0.60671 0.95466 0.0
H59 H 0.93269 0.6924 0.86779 0.0
H60 H 0.00671 0.71511 0.86675 0.0
H61 H 0.95254 0.76698 0.87222 0.0
H62 H 0.99695 0.56571 0.94885 0.0
H63 H 0.93502 0.59932 0.95928 0.0
H64 H 0.00619 0.61677 0.97071 0.0
C65 C 0.67736 0.79283 0.15698 0.0
N66 N 0.71538 0.77809 0.17578 0.0
N67 N 0.62319 0.80048 0.1637 0.0
C68 C 0.69316 0.79971 0.13194 0.0
C69 C 0.62984 0.78966 0.1874 0.0
N70 N 0.68588 0.77699 0.1948 0.0
C71 C 0.58022 0.78324 0.20301 0.0
H72 H 0.66131 0.82802 0.12074 0.0
H73 H 0.69377 0.75616 0.12515 0.0
H74 H 0.73694 0.81866 0.13089 0.0
H75 H 0.59018 0.75107 0.21842 0.0
H76 H 0.54034 0.76898 0.19338 0.0
H77 H 0.57153 0.82617 0.20942 0.0
C78 C 0.53236 0.20284 0.40398 0.0
N79 N 0.53321 0.24249 0.42009 0.0
N80 N 0.50534 0.15274 0.4118 0.0
C81 C 0.56353 0.21138 0.38188 0.0
C82 C 0.4895 0.16456 0.43322 0.0
N83 N 0.50735 0.21808 0.43836 0.0
C84 C 0.45088 0.12719 0.44831 0.0
H85 H 0.53205 0.22543 0.36689 0.0
H86 H 0.5847 0.17018 0.37837 0.0
H87 H 0.59688 0.2457 0.38317 0.0
H88 H 0.47764 0.09961 0.46191 0.0
H89 H 0.42312 0.09887 0.43765 0.0
H90 H 0.4229 0.15518 0.45754 0.0
C91 C 0.14915 0.34252 0.66234 0.0
N92 N 0.19242 0.32473 0.6789 0.0
N93 N 0.09652 0.33301 0.6708 0.0
C94 C 0.15822 0.37098 0.63825 0.0
C95 C 0.10924 0.30825 0.6929 0.0
N96 N 0.16708 0.30344 0.69788 0.0
C97 C 0.06481 0.28875 0.70977 0.0
H98 H 0.16243 0.41879 0.63912 0.0
H99 H 0.12102 0.3634 0.62566 0.0
H100 H 0.19839 0.35431 0.6318 0.0
H101 H 0.08098 0.25117 0.72207 0.0
H102 H 0.02401 0.27625 0.70024 0.0
H103 H 0.0554 0.32536 0.72021 0.0
Zn104 Zn 0.2204 0.69387 0.13719 0.0
Zn105 Zn 0.08232 0.83738 0.10479 0.0
Zn106 Zn 0.15899 0.77116 0.11995 0.0
C107 C 0.09869 0.77502 0.06788 0.0
C108 C 0.1792 0.90516 0.11327 0.0
O109 O 0.13488 0.75024 0.15623 0.0
O110 O 0.21259 0.70007 0.17073 0.0
C111 C 0.16553 0.64123 0.10333 0.0
O112 O 0.1292 0.74521 0.0846 0.0
O113 O 0.07527 0.82229 0.07169 0.0
O114 O 0.12477 0.90782 0.11238 0.0
O115 O 0.20457 0.85515 0.11426 0.0
O116 O 0.18668 0.62505 0.12376 0.0
O117 O 0.15689 0.69619 0.09708 0.0
O118 O 0.24776 0.80981 0.12355 0.0
O119 O 0.29319 0.72535 0.12513 0.0
C120 C 0.29521 0.78044 0.12363 0.0
O121 O 0.08382 0.77094 0.14444 0.0
O122 O 0.01427 0.81811 0.1219 0.0
C123 C 0.16666 0.72633 0.174 0.0
C124 C 0.03049 0.78862 0.14083 0.0
Zn125 Zn 0.52733 0.59089 0.33248 0.0
Zn126 Zn 0.65449 0.77234 0.39402 0.0
Zn127 Zn 0.59485 0.70319 0.37802 0.0
C128 C 0.55843 0.83541 0.38099 0.0
C129 C 0.72284 0.73314 0.36422 0.0
O130 O 0.59002 0.61756 0.39984 0.0
O131 O 0.555 0.60979 0.36485 0.0
C132 C 0.48163 0.69903 0.35755 0.0
O133 O 0.54054 0.78227 0.38145 0.0
O134 O 0.61196 0.84497 0.38169 0.0
O135 O 0.72966 0.7585 0.38267 0.0
O136 O 0.67252 0.71445 0.35755 0.0
O137 O 0.51555 0.6607 0.35166 0.0
O138 O 0.50531 0.73613 0.37032 0.0
O139 O 0.62534 0.6903 0.34101 0.0
O140 O 0.59284 0.62716 0.31469 0.0
C141 C 0.62657 0.66811 0.32084 0.0
O142 O 0.61604 0.65959 0.41379 0.0
O143 O 0.64762 0.74166 0.42709 0.0
C144 C 0.56747 0.58453 0.38508 0.0
C145 C 0.63386 0.68874 0.43098 0.0
Zn146 Zn 0.57089 0.36291 0.60408 0.0
Zn147 Zn 0.69274 0.21066 0.64429 0.0
Zn148 Zn 0.63912 0.28759 0.62221 0.0
C149 C 0.77551 0.28732 0.62847 0.0
C150 C 0.64613 0.15472 0.60996 0.0
O151 O 0.55859 0.29423 0.64344 0.0
O152 O 0.50194 0.35826 0.62157 0.0
C153 C 0.67345 0.4206 0.61284 0.0
O154 O 0.73035 0.32083 0.62607 0.0
O155 O 0.76959 0.23308 0.6333 0.0
O156 O 0.65652 0.14171 0.63169 0.0
O157 O 0.6423 0.20901 0.60178 0.0
O158 O 0.62012 0.43008 0.60832 0.0
O159 O 0.69263 0.36784 0.61722 0.0
O160 O 0.60929 0.25711 0.58771 0.0
O161 O 0.56181 0.33651 0.57248 0.0
C162 C 0.58068 0.28609 0.57021 0.0
O163 O 0.60705 0.27452 0.65778 0.0
O164 O 0.68019 0.22483 0.67673 0.0
C165 C 0.50968 0.32229 0.63947 0.0
C166 C 0.63412 0.25352 0.67724 0.0
Zn167 Zn 0.02598 0.15305 0.84274 0.0
Zn168 Zn 0.11305 0.26916 0.90195 0.0
Zn169 Zn 0.06575 0.21548 0.87554 0.0
C170 C 0.07208 0.18492 0.92976 0.0
C171 C 0.03668 0.34551 0.87874 0.0
O172 O 0.12027 0.22754 0.84464 0.0
O173 O 0.07772 0.17622 0.81763 0.0
C174 C 0.04953 0.07572 0.88324 0.0
O175 O 0.0771 0.16199 0.91035 0.0
O176 O 0.07364 0.23964 0.92978 0.0
O177 O 0.08899 0.34635 0.88633 0.0
O178 O 0.01182 0.29591 0.87678 0.0
O179 O 0.03947 0.07607 0.8613 0.0
O180 O 0.05772 0.12423 0.89257 0.0
O181 O 0.97922 0.25146 0.86665 0.0
O182 O 0.94674 0.18995 0.84133 0.0
C183 C 0.93822 0.23245 0.85314 0.0
O184 O 0.15147 0.24457 0.86479 0.0
O185 O 0.1955 0.24742 0.90006 0.0
C186 C 0.11695 0.21082 0.82371 0.0
C187 C 0.19814 0.2494 0.87814 0.0
H188 H 0.21862 0.43398 0.04582 0.0
H189 H 0.09977 0.34973 0.09192 0.0
H190 H 0.07546 0.44366 0.10563 0.0
H191 H 0.09863 0.54687 0.10845 0.0
H192 H 0.21974 0.63164 0.06351 0.0
H193 H 0.23098 0.54168 0.04455 0.0
C194 C 0.18656 0.43685 0.05846 0.0
C195 C 0.16154 0.38543 0.06822 0.0
C196 C 0.17295 0.49118 0.06624 0.0
C197 C 0.12004 0.389 0.08458 0.0
C198 C 0.10608 0.44257 0.09231 0.0
C199 C 0.12565 0.54608 0.09384 0.0
C200 C 0.15722 0.59596 0.08694 0.0
C201 C 0.13359 0.49362 0.08381 0.0
C202 C 0.1933 0.5944 0.06845 0.0
C203 C 0.2007 0.54252 0.058 0.0
H204 H 0.95211 0.76662 0.31409 0.0
H205 H 0.01201 0.63962 0.37064 0.0
H206 H 0.91368 0.63065 0.3836 0.0
H207 H 0.81136 0.66166 0.37929 0.0
H208 H 0.75324 0.79221 0.32383 0.0
H209 H 0.84916 0.79474 0.30886 0.0
C210 C 0.94327 0.73678 0.32915 0.0
C211 C 0.98885 0.70398 0.34154 0.0
C212 C 0.88671 0.73117 0.33608 0.0
C213 C 0.97753 0.66588 0.36117 0.0
C214 C 0.92135 0.66029 0.36834 0.0
C215 C 0.8195 0.6891 0.36345 0.0
C216 C 0.77465 0.72426 0.35178 0.0
C217 C 0.87563 0.69269 0.35589 0.0
C218 C 0.78595 0.76186 0.33201 0.0
C219 C 0.8413 0.76452 0.32393 0.0
H220 H 0.78022 0.64928 0.57023 0.0
H221 H 0.65179 0.71545 0.61165 0.0
H222 H 0.64189 0.61953 0.63229 0.0
H223 H 0.65652 0.5154 0.63404 0.0
H224 H 0.76939 0.44275 0.58803 0.0
H225 H 0.80018 0.54166 0.57414 0.0
C226 C 0.75027 0.64243 0.58377 0.0
C227 C 0.7173 0.68973 0.5896 0.0
C228 C 0.74232 0.58578 0.5948 0.0
C229 C 0.6789 0.68032 0.60734 0.0
C230 C 0.67283 0.6253 0.61903 0.0
C231 C 0.68953 0.52126 0.62159 0.0
C232 C 0.71063 0.47238 0.612 0.0
C233 C 0.70295 0.5776 0.61244 0.0
C234 C 0.75311 0.47996 0.59584 0.0
C235 C 0.76966 0.53655 0.58756 0.0
H236 H 0.67412 0.24612 0.8641 0.0
H237 H 0.67685 0.35502 0.7989 0.0
H238 H 0.78256 0.34768 0.80109 0.0
H239 H 0.87366 0.30302 0.82046 0.0
H240 H 0.86968 0.20344 0.88776 0.0
H241 H 0.76488 0.21655 0.88655 0.0
C242 C 0.69785 0.27003 0.8508 0.0
C243 C 0.66771 0.30053 0.83125 0.0
C244 C 0.75834 0.26747 0.85269 0.0
C245 C 0.69913 0.33011 0.81385 0.0
C246 C 0.7595 0.32625 0.81519 0.0
C247 C 0.84973 0.28576 0.83507 0.0
C248 C 0.87867 0.25258 0.85422 0.0
C249 C 0.78952 0.29403 0.83433 0.0
C250 C 0.84785 0.2297 0.87302 0.0
C251 C 0.78805 0.23674 0.87223 0.0
H252 H 0.02088 0.61023 0.87669 0.0
H253 H 0.88886 0.56699 0.92404 0.0
H254 H 0.88912 0.46571 0.91411 0.0
H255 H 0.94184 0.38652 0.89767 0.0
H256 H 0.0702 0.43321 0.84891 0.0
H257 H 0.05394 0.53655 0.85247 0.0
C258 C 0.99034 0.57943 0.88406 0.0
C259 C 0.95633 0.59559 0.90166 0.0
C260 C 0.99002 0.52171 0.87792 0.0
C261 C 0.9171 0.55488 0.91111 0.0
C262 C 0.91701 0.49707 0.90533 0.0
C263 C 0.96391 0.41952 0.88695 0.0
C264 C 0.0074 0.40251 0.87317 0.0
C265 C 0.95541 0.47927 0.88959 0.0
C266 C 0.03642 0.44553 0.85959 0.0
C267 C 0.02776 0.50463 0.86188 0.0
H268 H 0.81076 0.83237 0.19242 0.0
H269 H 0.75312 0.68536 0.15615 0.0
H270 H 0.85179 0.66712 0.14608 0.0
H271 H 0.95048 0.70384 0.1417 0.0
H272 H 0.00736 0.85448 0.17586 0.0
H273 H 0.91464 0.85969 0.19326 0.0
C274 C 0.8205 0.79538 0.18296 0.0
C275 C 0.77494 0.76043 0.17483 0.0
C276 C 0.87747 0.78599 0.17683 0.0
C277 C 0.78765 0.71288 0.1624 0.0
C278 C 0.844 0.70263 0.1566 0.0
C279 C 0.94346 0.73597 0.1539 0.0
C280 C 0.98652 0.77753 0.15809 0.0
C281 C 0.88887 0.74026 0.16292 0.0
C282 C 0.97592 0.82058 0.1731 0.0
C283 C 0.9223 0.82427 0.18267 0.0
H284 H 0.48725 0.32168 0.38719 0.0
H285 H 0.61409 0.29967 0.44589 0.0
H286 H 0.63541 0.40485 0.44137 0.0
H287 H 0.61709 0.50426 0.42012 0.0
H288 H 0.48889 0.52212 0.36133 0.0
H289 H 0.46907 0.41849 0.3664 0.0
C290 C 0.52 0.34006 0.39877 0.0
C291 C 0.54923 0.30333 0.41672 0.0
C292 C 0.53159 0.40018 0.39608 0.0
C293 C 0.59108 0.32738 0.43192 0.0
C294 C 0.60311 0.38746 0.42934 0.0
C295 C 0.5847 0.48535 0.40855 0.0
C296 C 0.55503 0.52125 0.39018 0.0
C297 C 0.57341 0.42459 0.41148 0.0
C298 C 0.51318 0.49583 0.37535 0.0
C299 C 0.50155 0.4363 0.37825 0.0
H300 H 0.04414 0.28629 0.63372 0.0
H301 H 0.01992 0.40811 0.68453 0.0
H302 H 0.91618 0.41442 0.6726 0.0
H303 H 0.83027 0.37206 0.65214 0.0
H304 H 0.85572 0.24686 0.60253 0.0
H305 H 0.96029 0.25636 0.60877 0.0
C306 C 0.0163 0.31575 0.64149 0.0
C307 C 0.03937 0.34682 0.65989 0.0
C308 C 0.95655 0.31819 0.6348 0.0
C309 C 0.00283 0.38399 0.67026 0.0
C310 C 0.94353 0.38731 0.66353 0.0
C311 C 0.85881 0.34882 0.64204 0.0
C312 C 0.83531 0.30901 0.62681 0.0
C313 C 0.91942 0.35289 0.6464 0.0
C314 C 0.87283 0.27806 0.61422 0.0
C315 C 0.93272 0.283 0.61797 0.0
H316 H 0.27718 0.24215 0.68256 0.0
H317 H 0.24509 0.42734 0.67085 0.0
H318 H 0.34461 0.44362 0.6607 0.0
H319 H 0.43619 0.40433 0.65032 0.0
H320 H 0.47132 0.21955 0.66176 0.0
H321 H 0.37627 0.20372 0.67754 0.0
C322 C 0.29268 0.28602 0.67836 0.0
C323 C 0.25374 0.33361 0.67713 0.0
C324 C 0.35039 0.29493 0.67241 0.0
C325 C 0.27413 0.39024 0.67157 0.0
C326 C 0.33098 0.39946 0.66578 0.0
C327 C 0.42361 0.36065 0.65676 0.0
C328 C 0.46054 0.31309 0.65465 0.0
C329 C 0.36886 0.35204 0.66541 0.0
C330 C 0.44385 0.2569 0.66327 0.0
C331 C 0.38918 0.24786 0.67205 0.0
H332 H 0.53212 0.87407 0.16438 0.0
H333 H 0.59189 0.72694 0.13142 0.0
H334 H 0.49617 0.71617 0.11182 0.0
H335 H 0.39302 0.7383 0.10899 0.0
H336 H 0.3289 0.88037 0.14383 0.0
H337 H 0.42829 0.90444 0.1573 0.0
C338 C 0.52414 0.84057 0.15249 0.0
C339 C 0.56919 0.80147 0.14925 0.0
C340 C 0.46801 0.83347 0.1418 0.0
C341 C 0.55843 0.75809 0.13388 0.0
C342 C 0.50345 0.75156 0.12286 0.0
C343 C 0.40081 0.77556 0.11904 0.0
C344 C 0.35352 0.80709 0.12561 0.0
C345 C 0.45758 0.78763 0.12734 0.0
C346 C 0.36442 0.8555 0.13845 0.0
C347 C 0.42129 0.86873 0.14641 0.0
H348 H 0.41135 0.33895 0.82408 0.0
H349 H 0.5017 0.22361 0.8781 0.0
H350 H 0.41102 0.20159 0.89634 0.0
H351 H 0.30473 0.21033 0.89503 0.0
H352 H 0.21492 0.32347 0.84007 0.0
H353 H 0.30601 0.34955 0.82325 0.0
C354 C 0.41085 0.30937 0.83994 0.0
C355 C 0.46251 0.28295 0.84986 0.0
C356 C 0.35853 0.29524 0.84959 0.0
C357 C 0.46222 0.245 0.87048 0.0
C358 C 0.41041 0.23187 0.88066 0.0
C359 C 0.3054 0.24042 0.87931 0.0
C360 C 0.25331 0.26319 0.86806 0.0
C361 C 0.35813 0.25583 0.87007 0.0
C362 C 0.25435 0.30299 0.84805 0.0
C363 C 0.30647 0.31883 0.8388 0.0
H364 H 0.22109 0.63497 0.33272 0.0
H365 H 0.19505 0.8178 0.33832 0.0
H366 H 0.29922 0.82958 0.34839 0.0
H367 H 0.39866 0.78636 0.35542 0.0
H368 H 0.42235 0.60436 0.34555 0.0
H369 H 0.31918 0.59391 0.33667 0.0
C370 C 0.23865 0.67758 0.33551 0.0
C371 C 0.2011 0.72561 0.3344 0.0
C372 C 0.29837 0.68405 0.3405 0.0
C373 C 0.22363 0.78034 0.33902 0.0
C374 C 0.28304 0.78696 0.34472 0.0
C375 C 0.38109 0.74462 0.35121 0.0
C376 C 0.41845 0.69623 0.3512 0.0
C377 C 0.32106 0.739 0.3455 0.0
C378 C 0.39494 0.64246 0.34559 0.0
C379 C 0.33572 0.63625 0.34058 0.0
H380 H 0.73437 0.94977 0.55711 0.0
H381 H 0.60874 0.857 0.5974 0.0
H382 H 0.57485 0.94866 0.61037 0.0
H383 H 0.58837 0.05349 0.61353 0.0
H384 H 0.7161 0.14689 0.57448 0.0
H385 H 0.74085 0.05767 0.55708 0.0
C386 C 0.69901 0.95026 0.5684 0.0
C387 C 0.67427 0.89725 0.57659 0.0
C388 C 0.68001 0.00324 0.5758 0.0
C389 C 0.62856 0.89763 0.59123 0.0
C390 C 0.60919 0.94988 0.59854 0.0
C391 C 0.62026 0.05453 0.60061 0.0
C392 C 0.64936 0.10675 0.5948 0.0
C393 C 0.63547 0.00276 0.59137 0.0
C394 C 0.69193 0.10745 0.57863 0.0
C395 C 0.70663 0.05629 0.56896 0.0
H396 H 0.2657 0.13791 0.06374 0.0
H397 H 0.13336 0.20176 0.10377 0.0
H398 H 0.12797 0.10674 0.126 0.0
H399 H 0.15076 0.00364 0.13046 0.0
H400 H 0.27222 0.93291 0.0873 0.0
H401 H 0.29409 0.03217 0.0705 0.0
C402 C 0.23597 0.13062 0.07737 0.0
C403 C 0.20021 0.17668 0.08231 0.0
C404 C 0.23171 0.0748 0.08962 0.0
C405 C 0.16197 0.16717 0.10006 0.0
C406 C 0.15875 0.11285 0.11269 0.0
C407 C 0.18334 0.0101 0.11786 0.0
C408 C 0.20949 0.96133 0.10996 0.0
C409 C 0.19237 0.06619 0.10726 0.0
C410 C 0.25184 0.96998 0.09377 0.0
C411 C 0.26341 0.02662 0.08384 0.0
H412 H 0.51571 0.04445 0.43487 0.0
H413 H 0.48582 0.13369 0.36546 0.0
H414 H 0.49327 0.04054 0.34851 0.0
H415 H 0.51871 0.93404 0.35409 0.0
H416 H 0.52547 0.84555 0.42384 0.0
H417 H 0.51089 0.93808 0.44017 0.0
C418 C 0.5076 0.04407 0.41611 0.0
C419 C 0.50153 0.09709 0.40161 0.0
C420 C 0.50647 0.99005 0.40657 0.0
C421 C 0.49343 0.09437 0.37717 0.0
C422 C 0.49653 0.04081 0.36743 0.0
C423 C 0.51377 0.93477 0.37269 0.0
C424 C 0.52273 0.88302 0.38776 0.0
C425 C 0.50437 0.98836 0.382 0.0
C426 C 0.51747 0.8846 0.41189 0.0
C427 C 0.51036 0.93772 0.42128 0.0
H428 H 0.96348 0.84233 0.93414 0.0
H429 H 0.07951 0.77066 0.88897 0.0
H430 H 0.11183 0.86881 0.87614 0.0
H431 H 0.10005 0.97518 0.87499 0.0
H432 H 0.99016 0.04799 0.92219 0.0
H433 H 0.96451 0.94914 0.93804 0.0
C434 C 0.99719 0.84796 0.92215 0.0
C435 C 0.01858 0.79912 0.9123 0.0
C436 C 0.01681 0.90474 0.91534 0.0
C437 C 0.06142 0.80764 0.89632 0.0
C438 C 0.0802 0.86369 0.88913 0.0
C439 C 0.07176 0.96932 0.88923 0.0
C440 C 0.04689 0.01863 0.8974 0.0
C441 C 0.05723 0.91261 0.89811 0.0
C442 C 0.01026 0.01065 0.9158 0.0
C443 C 0.99506 0.95412 0.92463 0.0
H444 H 0.07646 0.20457 0.03203 0.0
H445 H 0.25826 0.19436 0.02339 0.0
H446 H 0.23865 0.14995 0.98649 0.0
H447 H 0.16946 0.14118 0.95252 0.0
H448 H 0.98775 0.16296 0.95941 0.0
H449 H 0.00646 0.17225 0.00133 0.0
C450 C 0.11148 0.19008 0.02245 0.0
C451 C 0.16862 0.20243 0.03015 0.0
C452 C 0.09949 0.16688 0.00081 0.0
C453 C 0.21409 0.18453 0.01771 0.0
C454 C 0.20274 0.15971 0.99655 0.0
C455 C 0.1338 0.14406 0.96357 0.0
C456 C 0.0774 0.15176 0.95296 0.0
C457 C 0.14554 0.15408 0.98725 0.0
C458 C 0.03148 0.15648 0.96727 0.0
C459 C 0.04238 0.1633 0.99116 0.0
H460 H 0.09294 0.786 0.27256 0.0
H461 H 0.18909 0.62796 0.29452 0.0
H462 H 0.21571 0.62163 0.25444 0.0
H463 H 0.20365 0.65625 0.21266 0.0
H464 H 0.10003 0.80975 0.18986 0.0
H465 H 0.08152 0.82152 0.23057 0.0
C466 C 0.12106 0.75127 0.26847 0.0
C467 C 0.14121 0.70885 0.28644 0.0
C468 C 0.13251 0.74589 0.24517 0.0
C469 C 0.17583 0.66267 0.28118 0.0
C470 C 0.18968 0.65831 0.25816 0.0
C471 C 0.17695 0.69227 0.2166 0.0
C472 C 0.15221 0.73153 0.19829 0.0
C473 C 0.16703 0.69887 0.23996 0.0
C474 C 0.11791 0.77802 0.20362 0.0
C475 C 0.10818 0.78526 0.22689 0.0
H476 H 0.60624 0.71336 0.53395 0.0
H477 H 0.79115 0.72097 0.53386 0.0
H478 H 0.78721 0.68022 0.4959 0.0
H479 H 0.72954 0.6663 0.45931 0.0
H480 H 0.54404 0.66558 0.45789 0.0
H481 H 0.54902 0.67746 0.49996 0.0
C482 C 0.6455 0.70357 0.52593 0.0
C483 C 0.69899 0.71954 0.53651 0.0
C484 C 0.64245 0.6819 0.50373 0.0
C485 C 0.74982 0.70803 0.52601 0.0
C486 C 0.7474 0.68534 0.50425 0.0
C487 C 0.69042 0.66536 0.46858 0.0
C488 C 0.63656 0.66475 0.45569 0.0
C489 C 0.6938 0.67515 0.49242 0.0
C490 C 0.58595 0.66492 0.4676 0.0
C491 C 0.58886 0.67295 0.49156 0.0
H492 H 0.53933 0.34023 0.76829 0.0
H493 H 0.65338 0.20397 0.80115 0.0
H494 H 0.68119 0.18129 0.76254 0.0
H495 H 0.67036 0.19894 0.71965 0.0
H496 H 0.55572 0.33569 0.68676 0.0
H497 H 0.52872 0.35825 0.72517 0.0
C498 C 0.57054 0.30591 0.7668 0.0
C499 C 0.59498 0.27407 0.78721 0.0
C500 C 0.58488 0.29247 0.74466 0.0
C501 C 0.63506 0.22941 0.78549 0.0
C502 C 0.65033 0.21622 0.7635 0.0
C503 C 0.63924 0.23355 0.72083 0.0
C504 C 0.61425 0.26487 0.70027 0.0
C505 C 0.62504 0.24714 0.74298 0.0
C506 C 0.57427 0.30972 0.70217 0.0
C507 C 0.55948 0.32324 0.72418 0.0
H508 H 0.09685 0.69583 0.96519 0.0
H509 H 0.92578 0.7693 0.96192 0.0
H510 H 0.94227 0.79562 0.00222 0.0
H511 H 0.00376 0.79397 0.03861 0.0
H512 H 0.17331 0.7155 0.04367 0.0
H513 H 0.15885 0.69239 0.0027 0.0
C514 C 0.06408 0.71877 0.97335 0.0
C515 C 0.01107 0.73308 0.96061 0.0
C516 C 0.07305 0.73091 0.9969 0.0
C517 C 0.96754 0.76037 0.97132 0.0
C518 C 0.9767 0.77442 0.99437 0.0
C519 C 0.03753 0.77161 0.03076 0.0
C520 C 0.08929 0.75566 0.04413 0.0
C521 C 0.02898 0.75929 0.00737 0.0
C522 C 0.13257 0.72659 0.03385 0.0
C523 C 0.12459 0.71432 0.01036 0.0
H524 H 0.68821 0.83194 0.23374 0.0
H525 H 0.72101 0.66661 0.20798 0.0
H526 H 0.71625 0.61705 0.24753 0.0
H527 H 0.68137 0.61929 0.28707 0.0
H528 H 0.64115 0.78479 0.31174 0.0
H529 H 0.67068 0.836 0.27538 0.0
C530 C 0.69699 0.78547 0.23717 0.0
C531 C 0.70503 0.75277 0.21817 0.0
C532 C 0.69131 0.75726 0.2597 0.0
C533 C 0.71548 0.6925 0.22247 0.0
C534 C 0.71172 0.66418 0.245 0.0
C535 C 0.68094 0.66665 0.28474 0.0
C536 C 0.65938 0.69822 0.30213 0.0
C537 C 0.69642 0.69575 0.26344 0.0
C538 C 0.65827 0.75951 0.29879 0.0
C539 C 0.67471 0.78882 0.27789 0.0
H540 H 0.56274 0.16245 0.4762 0.0
H541 H 0.46389 0.31758 0.45186 0.0
H542 H 0.4772 0.35217 0.49114 0.0
H543 H 0.51872 0.33831 0.53183 0.0
H544 H 0.6168 0.18248 0.55616 0.0
H545 H 0.60153 0.14694 0.51746 0.0
C546 C 0.54356 0.20341 0.47973 0.0
C547 C 0.51228 0.2376 0.46147 0.0
C548 C 0.55137 0.22249 0.50219 0.0
C549 C 0.48814 0.29098 0.46582 0.0
C550 C 0.49578 0.31049 0.48818 0.0
C551 C 0.53675 0.29642 0.52879 0.0
C552 C 0.56951 0.26292 0.54703 0.0
C553 C 0.52763 0.27668 0.50644 0.0
C554 C 0.59196 0.20887 0.54258 0.0
C555 C 0.58312 0.18872 0.5204 0.0
H556 H 0.17776 0.36508 0.73482 0.0
H557 H 0.20913 0.1963 0.71199 0.0
H558 H 0.20833 0.15136 0.75238 0.0
H559 H 0.17332 0.15798 0.79165 0.0
H560 H 0.13199 0.32654 0.81312 0.0
H561 H 0.16272 0.37414 0.77631 0.0
C562 C 0.18781 0.31906 0.73907 0.0
C563 C 0.19394 0.28393 0.72066 0.0
C564 C 0.18363 0.29342 0.7621 0.0
C565 C 0.20545 0.2241 0.72601 0.0
C566 C 0.20365 0.19836 0.74904 0.0
C567 C 0.17334 0.20525 0.78857 0.0
C568 C 0.15147 0.23886 0.80522 0.0
C569 C 0.18895 0.23212 0.7669 0.0
C570 C 0.15038 0.29995 0.8009 0.0
C571 C 0.16717 0.32712 0.77967 0.0
loop_
_geom_bond_atom_site_label_1
_geom_bond_atom_site_label_2
_geom_bond_distance
_geom_bond_site_symmetry_2
_ccdc_geom_bond_type
C0 N1 1.317 . S
C0 N2 1.348 . S
C0 C3 1.485 . S
N1 C0 1.317 . S
N1 N5 1.370 . S
N2 C0 1.348 . S
N2 C4 1.346 . S
C3 C0 1.485 . S
C3 H7 0.960 . S
C3 H8 0.961 . S
C3 H9 0.960 . S
C4 N2 1.346 . S
C4 N5 1.307 . S
C4 C6 1.486 . S
N5 N1 1.370 . S
N5 C4 1.307 . S
C6 C4 1.486 . S
C6 H10 0.960 . S
C6 H11 0.960 . S
C6 H12 0.959 . S
H7 C3 0.960 . S
H8 C3 0.961 . S
H9 C3 0.960 . S
H10 C6 0.960 . S
H11 C6 0.960 . S
H12 C6 0.959 . S
C13 N14 1.317 . S
C13 N15 1.348 . S
C13 C16 1.485 . S
N14 C13 1.317 . S
N14 N18 1.370 . S
N15 C13 1.348 . S
N15 C17 1.346 . S
C16 C13 1.485 . S
C16 H20 0.960 . S
C16 H21 0.961 . S
C16 H22 0.960 . S
C17 N15 1.346 . S
C17 N18 1.307 . S
C17 C19 1.495 . S
N18 N14 1.370 . S
N18 C17 1.307 . S
C19 C17 1.495 . S
C19 H23 0.954 1_455 S
C19 H24 0.952 1_455 S
C19 H25 0.964 . S
H20 C16 0.960 . S
H21 C16 0.961 . S
H22 C16 0.960 . S
H23 C19 0.954 1_655 S
H24 C19 0.952 1_655 S
H25 C19 0.964 . S
C26 N27 1.317 . S
C26 N28 1.348 . S
C26 C29 1.485 . S
N27 C26 1.317 . S
N27 N31 1.370 . S
N28 C26 1.348 . S
N28 C30 1.346 . S
C29 C26 1.485 . S
C29 H33 0.960 . S
C29 H34 0.961 . S
C29 H35 0.960 . S
C30 N28 1.346 . S
C30 N31 1.307 . S
C30 C32 1.486 . S
N31 N27 1.370 . S
N31 C30 1.307 . S
C32 C30 1.486 . S
C32 H36 0.960 . S
C32 H37 0.960 . S
C32 H38 0.959 . S
H33 C29 0.960 . S
H34 C29 0.961 . S
H35 C29 0.960 . S
H36 C32 0.960 . S
H37 C32 0.960 . S
H38 C32 0.959 . S
C39 N40 1.317 . S
C39 N41 1.348 . S
C39 C42 1.485 . S
N40 C39 1.317 . S
N40 N44 1.370 . S
N41 C39 1.348 . S
N41 C43 1.346 . S
C42 C39 1.485 . S
C42 H46 0.960 . S
C42 H47 0.961 . S
C42 H48 0.960 . S
C43 N41 1.346 . S
C43 N44 1.307 . S
C43 C45 1.486 . S
N44 N40 1.370 . S
N44 C43 1.307 . S
C45 C43 1.486 . S
C45 H49 0.960 . S
C45 H50 0.960 . S
C45 H51 0.959 . S
H46 C42 0.960 . S
H47 C42 0.961 . S
H48 C42 0.960 . S
H49 C45 0.960 . S
H50 C45 0.960 . S
H51 C45 0.959 . S
C52 N53 1.317 . S
C52 N54 1.348 . S
C52 C55 1.485 . S
N53 C52 1.317 . S
N53 N57 1.370 . S
N54 C52 1.348 . S
N54 C56 1.346 . S
C55 C52 1.485 . S
C55 H59 0.960 . S
C55 H60 0.961 . S
C55 H61 0.960 . S
C56 N54 1.346 . S
C56 N57 1.307 . S
C56 C58 1.486 . S
N57 N53 1.370 . S
N57 C56 1.307 . S
C58 C56 1.486 . S
C58 H62 0.960 . S
C58 H63 0.960 . S
C58 H64 0.959 . S
H59 C55 0.960 . S
H60 C55 0.961 . S
H61 C55 0.960 . S
H62 C58 0.960 . S
H63 C58 0.960 . S
H64 C58 0.959 . S
C65 N66 1.317 . S
C65 N67 1.348 . S
C65 C68 1.485 . S
N66 C65 1.317 . S
N66 N70 1.370 . S
N67 C65 1.348 . S
N67 C69 1.346 . S
C68 C65 1.485 . S
C68 H72 0.960 . S
C68 H73 0.961 . S
C68 H74 0.960 . S
C69 N67 1.346 . S
C69 N70 1.307 . S
C69 C71 1.486 . S
N70 N66 1.370 . S
N70 C69 1.307 . S
C71 C69 1.486 . S
C71 H75 0.960 . S
C71 H76 0.960 . S
C71 H77 0.959 . S
H72 C68 0.960 . S
H73 C68 0.961 . S
H74 C68 0.960 . S
H75 C71 0.960 . S
H76 C71 0.960 . S
H77 C71 0.959 . S
C78 N79 1.317 . S
C78 N80 1.348 . S
C78 C81 1.485 . S
N79 C78 1.317 . S
N79 N83 1.370 . S
N80 C78 1.348 . S
N80 C82 1.346 . S
C81 C78 1.485 . S
C81 H85 0.960 . S
C81 H86 0.961 . S
C81 H87 0.960 . S
C82 N80 1.346 . S
C82 N83 1.307 . S
C82 C84 1.486 . S
N83 N79 1.370 . S
N83 C82 1.307 . S
C84 C82 1.486 . S
C84 H88 0.960 . S
C84 H89 0.960 . S
C84 H90 0.959 . S
H85 C81 0.960 . S
H86 C81 0.961 . S
H87 C81 0.960 . S
H88 C84 0.960 . S
H89 C84 0.960 . S
H90 C84 0.959 . S
C91 N92 1.317 . S
C91 N93 1.348 . S
C91 C94 1.485 . S
N92 C91 1.317 . S
N92 N96 1.370 . S
N93 C91 1.348 . S
N93 C95 1.346 . S
C94 C91 1.485 . S
C94 H98 0.960 . S
C94 H99 0.961 . S
C94 H100 0.960 . S
C95 N93 1.346 . S
C95 N96 1.307 . S
C95 C97 1.486 . S
N96 N92 1.370 . S
N96 C95 1.307 . S
C97 C95 1.486 . S
C97 H101 0.960 . S
C97 H102 0.961 1_455 S
C97 H103 0.959 . S
H98 C94 0.960 . S
H99 C94 0.961 . S
H100 C94 0.960 . S
H101 C97 0.960 . S
H102 C97 0.961 1_655 S
H103 C97 0.959 . S
Zn104 O110 1.920 . S
Zn104 O116 1.898 . S
Zn104 O119 1.905 . S
Zn105 O113 1.905 . S
Zn105 O114 1.898 . S
Zn105 O122 1.920 1_455 S
Zn106 O109 2.080 . S
Zn106 O112 2.114 . S
Zn106 O115 2.120 . S
Zn106 O117 2.120 . S
Zn106 O118 2.114 . S
Zn106 O121 2.080 . S
C107 O112 1.166 . S
C107 O113 1.182 . S
C108 O114 1.167 . S
C108 O115 1.299 . S
O109 Zn106 2.080 . S
O109 C123 1.305 . S
O110 Zn104 1.920 . S
O110 C123 1.234 . S
C111 O116 1.167 . S
C111 O117 1.299 . S
O112 Zn106 2.114 . S
O112 C107 1.166 . S
O113 Zn105 1.905 . S
O113 C107 1.182 . S
O114 Zn105 1.898 . S
O114 C108 1.167 . S
O115 Zn106 2.120 . S
O115 C108 1.299 . S
O116 Zn104 1.898 . S
O116 C111 1.167 . S
O117 Zn106 2.120 . S
O117 C111 1.299 . S
O118 Zn106 2.114 . S
O118 C120 1.166 . S
O119 Zn104 1.905 . S
O119 C120 1.182 . S
C120 O118 1.166 . S
C120 O119 1.182 . S
O121 Zn106 2.080 . S
O121 C124 1.305 1_455 S
O122 Zn105 1.920 1_655 S
O122 C124 1.234 . S
C123 O109 1.305 . S
C123 O110 1.234 . S
C124 O121 1.305 1_655 S
C124 O122 1.234 . S
Zn125 O131 1.920 . S
Zn125 O137 1.898 . S
Zn125 O140 1.905 . S
Zn126 O134 1.905 . S
Zn126 O135 1.898 . S
Zn126 O143 1.920 . S
Zn127 O130 2.080 . S
Zn127 O133 2.114 . S
Zn127 O136 2.120 . S
Zn127 O138 2.120 . S
Zn127 O139 2.114 . S
Zn127 O142 2.080 . S
C128 O133 1.166 . S
C128 O134 1.182 . S
C129 O135 1.167 . S
C129 O136 1.299 . S
O130 Zn127 2.080 . S
O130 C144 1.305 . S
O131 Zn125 1.920 . S
O131 C144 1.234 . S
C132 O137 1.167 . S
C132 O138 1.299 . S
O133 Zn127 2.114 . S
O133 C128 1.166 . S
O134 Zn126 1.905 . S
O134 C128 1.182 . S
O135 Zn126 1.898 . S
O135 C129 1.167 . S
O136 Zn127 2.120 . S
O136 C129 1.299 . S
O137 Zn125 1.898 . S
O137 C132 1.167 . S
O138 Zn127 2.120 . S
O138 C132 1.299 . S
O139 Zn127 2.114 . S
O139 C141 1.166 . S
O140 Zn125 1.905 . S
O140 C141 1.182 . S
C141 O139 1.166 . S
C141 O140 1.182 . S
O142 Zn127 2.080 . S
O142 C145 1.305 . S
O143 Zn126 1.920 . S
O143 C145 1.234 . S
C144 O130 1.305 . S
C144 O131 1.234 . S
C145 O142 1.305 . S
C145 O143 1.234 . S
Zn146 O152 1.920 . S
Zn146 O158 1.898 . S
Zn146 O161 1.905 . S
Zn147 O155 1.905 . S
Zn147 O156 1.898 . S
Zn147 O164 1.920 . S
Zn148 O151 2.080 . S
Zn148 O154 2.114 . S
Zn148 O157 2.120 . S
Zn148 O159 2.120 . S
Zn148 O160 2.114 . S
Zn148 O163 2.080 . S
C149 O154 1.166 . S
C149 O155 1.182 . S
C150 O156 1.167 . S
C150 O157 1.299 . S
O151 Zn148 2.080 . S
O151 C165 1.305 . S
O152 Zn146 1.920 . S
O152 C165 1.234 . S
C153 O158 1.167 . S
C153 O159 1.299 . S
O154 Zn148 2.114 . S
O154 C149 1.166 . S
O155 Zn147 1.905 . S
O155 C149 1.182 . S
O156 Zn147 1.898 . S
O156 C150 1.167 . S
O157 Zn148 2.120 . S
O157 C150 1.299 . S
O158 Zn146 1.898 . S
O158 C153 1.167 . S
O159 Zn148 2.120 . S
O159 C153 1.299 . S
O160 Zn148 2.114 . S
O160 C162 1.166 . S
O161 Zn146 1.905 . S
O161 C162 1.182 . S
C162 O160 1.166 . S
C162 O161 1.182 . S
O163 Zn148 2.080 . S
O163 C166 1.305 . S
O164 Zn147 1.920 . S
O164 C166 1.234 . S
C165 O151 1.305 . S
C165 O152 1.234 . S
C166 O163 1.305 . S
C166 O164 1.234 . S
Zn167 O173 1.920 . S
Zn167 O179 1.898 . S
Zn167 O182 1.905 1_455 S
Zn168 O176 1.905 . S
Zn168 O177 1.898 . S
Zn168 O185 1.920 . S
Zn169 O172 2.080 . S
Zn169 O175 2.114 . S
Zn169 O178 2.120 . S
Zn169 O180 2.120 . S
Zn169 O181 2.114 . S
Zn169 O184 2.080 . S
C170 O175 1.166 . S
C170 O176 1.182 . S
C171 O177 1.167 . S
C171 O178 1.299 . S
O172 Zn169 2.080 . S
O172 C186 1.305 . S
O173 Zn167 1.920 . S
O173 C186 1.234 . S
C174 O179 1.167 . S
C174 O180 1.299 . S
O175 Zn169 2.114 . S
O175 C170 1.166 . S
O176 Zn168 1.905 . S
O176 C170 1.182 . S
O177 Zn168 1.898 . S
O177 C171 1.167 . S
O178 Zn169 2.120 . S
O178 C171 1.299 . S
O179 Zn167 1.898 . S
O179 C174 1.167 . S
O180 Zn169 2.120 . S
O180 C174 1.299 . S
O181 Zn169 2.114 . S
O181 C183 1.166 1_455 S
O182 Zn167 1.905 1_655 S
O182 C183 1.182 . S
C183 O181 1.166 1_655 S
C183 O182 1.182 . S
O184 Zn169 2.080 . S
O184 C187 1.305 . S
O185 Zn168 1.920 . S
O185 C187 1.234 . S
C186 O172 1.305 . S
C186 O173 1.234 . S
C187 O184 1.305 . S
C187 O185 1.234 . S
H188 C194 0.930 . S
H189 C197 0.930 . S
H190 C198 0.930 . S
H191 C199 0.930 . S
H192 C202 0.930 . S
H193 C203 0.930 . S
C194 H188 0.930 . S
C194 C195 1.355 . S
C194 C196 1.415 . S
C195 C194 1.355 . S
C195 C197 1.419 . S
C196 C194 1.415 . S
C196 C201 1.425 . S
C196 C203 1.409 . S
C197 H189 0.930 . S
C197 C195 1.419 . S
C197 C198 1.362 . S
C198 H190 0.930 . S
C198 C197 1.362 . S
C198 C201 1.409 . S
C199 H191 0.930 . S
C199 C200 1.355 . S
C199 C201 1.415 . S
C200 C199 1.355 . S
C200 C202 1.419 . S
C201 C196 1.425 . S
C201 C198 1.409 . S
C201 C199 1.415 . S
C202 H192 0.930 . S
C202 C200 1.419 . S
C202 C203 1.362 . S
C203 H193 0.930 . S
C203 C196 1.409 . S
C203 C202 1.362 . S
H204 C210 0.930 . S
H205 C213 0.930 1_455 S
H206 C214 0.930 . S
H207 C215 0.930 . S
H208 C218 0.930 . S
H209 C219 0.930 . S
C210 H204 0.930 . S
C210 C211 1.355 . S
C210 C212 1.415 . S
C211 C210 1.355 . S
C211 C213 1.419 . S
C212 C210 1.415 . S
C212 C217 1.425 . S
C212 C219 1.409 . S
C213 H205 0.930 1_655 S
C213 C211 1.419 . S
C213 C214 1.362 . S
C214 H206 0.930 . S
C214 C213 1.362 . S
C214 C217 1.409 . S
C215 H207 0.930 . S
C215 C216 1.355 . S
C215 C217 1.415 . S
C216 C215 1.355 . S
C216 C218 1.419 . S
C217 C212 1.425 . S
C217 C214 1.409 . S
C217 C215 1.415 . S
C218 H208 0.930 . S
C218 C216 1.419 . S
C218 C219 1.362 . S
C219 H209 0.930 . S
C219 C212 1.409 . S
C219 C218 1.362 . S
H220 C226 0.930 . S
H221 C229 0.930 . S
H222 C230 0.930 . S
H223 C231 0.930 . S
H224 C234 0.930 . S
H225 C235 0.930 . S
C226 H220 0.930 . S
C226 C227 1.355 . S
C226 C228 1.415 . S
C227 C226 1.355 . S
C227 C229 1.419 . S
C228 C226 1.415 . S
C228 C233 1.425 . S
C228 C235 1.409 . S
C229 H221 0.930 . S
C229 C227 1.419 . S
C229 C230 1.362 . S
C230 H222 0.930 . S
C230 C229 1.362 . S
C230 C233 1.409 . S
C231 H223 0.930 . S
C231 C232 1.355 . S
C231 C233 1.415 . S
C232 C231 1.355 . S
C232 C234 1.419 . S
C233 C228 1.425 . S
C233 C230 1.409 . S
C233 C231 1.415 . S
C234 H224 0.930 . S
C234 C232 1.419 . S
C234 C235 1.362 . S
C235 H225 0.930 . S
C235 C228 1.409 . S
C235 C234 1.362 . S
H236 C242 0.930 . S
H237 C245 0.930 . S
H238 C246 0.930 . S
H239 C247 0.930 . S
H240 C250 0.930 . S
H241 C251 0.930 . S
C242 H236 0.930 . S
C242 C243 1.355 . S
C242 C244 1.415 . S
C243 C242 1.355 . S
C243 C245 1.419 . S
C244 C242 1.415 . S
C244 C249 1.425 . S
C244 C251 1.409 . S
C245 H237 0.930 . S
C245 C243 1.419 . S
C245 C246 1.362 . S
C246 H238 0.930 . S
C246 C245 1.362 . S
C246 C249 1.409 . S
C247 H239 0.930 . S
C247 C248 1.355 . S
C247 C249 1.415 . S
C248 C247 1.355 . S
C248 C250 1.419 . S
C249 C244 1.425 . S
C249 C246 1.409 . S
C249 C247 1.415 . S
C250 H240 0.930 . S
C250 C248 1.419 . S
C250 C251 1.362 . S
C251 H241 0.930 . S
C251 C244 1.409 . S
C251 C250 1.362 . S
H252 C258 0.930 . S
H253 C261 0.930 . S
H254 C262 0.930 . S
H255 C263 0.930 . S
H256 C266 0.930 . S
H257 C267 0.930 . S
C258 H252 0.930 . S
C258 C259 1.355 . S
C258 C260 1.415 . S
C259 C258 1.355 . S
C259 C261 1.419 1_455 S
C260 C258 1.415 . S
C260 C265 1.425 . S
C260 C267 1.409 . S
C261 H253 0.930 . S
C261 C259 1.419 1_655 S
C261 C262 1.362 . S
C262 H254 0.930 . S
C262 C261 1.362 . S
C262 C265 1.409 1_655 S
C263 H255 0.930 . S
C263 C264 1.355 . S
C263 C265 1.415 . S
C264 C263 1.355 . S
C264 C266 1.419 . S
C265 C260 1.425 . S
C265 C262 1.409 1_455 S
C265 C263 1.415 . S
C266 H256 0.930 . S
C266 C264 1.419 . S
C266 C267 1.362 . S
C267 H257 0.930 . S
C267 C260 1.409 . S
C267 C266 1.362 . S
H268 C274 0.930 . S
H269 C277 0.930 . S
H270 C278 0.930 . S
H271 C279 0.930 . S
H272 C282 0.930 . S
H273 C283 0.930 . S
C274 H268 0.930 . S
C274 C275 1.355 . S
C274 C276 1.415 . S
C275 C274 1.355 . S
C275 C277 1.419 . S
C276 C274 1.415 . S
C276 C281 1.425 . S
C276 C283 1.409 . S
C277 H269 0.930 . S
C277 C275 1.419 . S
C277 C278 1.362 . S
C278 H270 0.930 . S
C278 C277 1.362 . S
C278 C281 1.409 . S
C279 H271 0.930 . S
C279 C280 1.355 . S
C279 C281 1.415 . S
C280 C279 1.355 . S
C280 C282 1.419 . S
C281 C276 1.425 . S
C281 C278 1.409 . S
C281 C279 1.415 . S
C282 H272 0.930 . S
C282 C280 1.419 . S
C282 C283 1.362 . S
C283 H273 0.930 . S
C283 C276 1.409 . S
C283 C282 1.362 . S
H284 C290 0.930 . S
H285 C293 0.930 . S
H286 C294 0.930 . S
H287 C295 0.930 . S
H288 C298 0.930 . S
H289 C299 0.930 . S
C290 H284 0.930 . S
C290 C291 1.355 . S
C290 C292 1.415 . S
C291 C290 1.355 . S
C291 C293 1.419 . S
C292 C290 1.415 . S
C292 C297 1.425 . S
C292 C299 1.409 . S
C293 H285 0.930 . S
C293 C291 1.419 . S
C293 C294 1.362 . S
C294 H286 0.930 . S
C294 C293 1.362 . S
C294 C297 1.409 . S
C295 H287 0.930 . S
C295 C296 1.355 . S
C295 C297 1.415 . S
C296 C295 1.355 . S
C296 C298 1.419 . S
C297 C292 1.425 . S
C297 C294 1.409 . S
C297 C295 1.415 . S
C298 H288 0.930 . S
C298 C296 1.419 . S
C298 C299 1.362 . S
C299 H289 0.930 . S
C299 C292 1.409 . S
C299 C298 1.362 . S
H300 C306 0.930 . S
H301 C309 0.941 . S
H302 C310 0.930 . S
H303 C311 0.930 . S
H304 C314 0.930 . S
H305 C315 0.930 . S
C306 H300 0.930 . S
C306 C307 1.355 1_655 S
C306 C308 1.415 . S
C307 C306 1.355 1_455 S
C307 C309 1.421 . S
C308 C306 1.415 . S
C308 C313 1.425 . S
C308 C315 1.409 . S
C309 H301 0.941 . S
C309 C307 1.421 . S
C309 C310 1.349 1_455 S
C310 H302 0.930 . S
C310 C309 1.349 1_655 S
C310 C313 1.409 . S
C311 H303 0.930 . S
C311 C312 1.355 . S
C311 C313 1.415 . S
C312 C311 1.355 . S
C312 C314 1.419 . S
C313 C308 1.425 . S
C313 C310 1.409 . S
C313 C311 1.415 . S
C314 H304 0.930 . S
C314 C312 1.419 . S
C314 C315 1.362 . S
C315 H305 0.930 . S
C315 C308 1.409 . S
C315 C314 1.362 . S
H316 C322 0.930 . S
H317 C325 0.930 . S
H318 C326 0.930 . S
H319 C327 0.930 . S
H320 C330 0.930 . S
H321 C331 0.930 . S
C322 H316 0.930 . S
C322 C323 1.355 . S
C322 C324 1.415 . S
C323 C322 1.355 . S
C323 C325 1.419 . S
C324 C322 1.415 . S
C324 C329 1.425 . S
C324 C331 1.409 . S
C325 H317 0.930 . S
C325 C323 1.419 . S
C325 C326 1.362 . S
C326 H318 0.930 . S
C326 C325 1.362 . S
C326 C329 1.409 . S
C327 H319 0.930 . S
C327 C328 1.355 . S
C327 C329 1.415 . S
C328 C327 1.355 . S
C328 C330 1.419 . S
C329 C324 1.425 . S
C329 C326 1.409 . S
C329 C327 1.415 . S
C330 H320 0.930 . S
C330 C328 1.419 . S
C330 C331 1.362 . S
C331 H321 0.930 . S
C331 C324 1.409 . S
C331 C330 1.362 . S
H332 C338 0.930 . S
H333 C341 0.930 . S
H334 C342 0.930 . S
H335 C343 0.930 . S
H336 C346 0.930 . S
H337 C347 0.930 . S
C338 H332 0.930 . S
C338 C339 1.355 . S
C338 C340 1.415 . S
C339 C338 1.355 . S
C339 C341 1.419 . S
C340 C338 1.415 . S
C340 C345 1.425 . S
C340 C347 1.409 . S
C341 H333 0.930 . S
C341 C339 1.419 . S
C341 C342 1.362 . S
C342 H334 0.930 . S
C342 C341 1.362 . S
C342 C345 1.409 . S
C343 H335 0.930 . S
C343 C344 1.355 . S
C343 C345 1.415 . S
C344 C343 1.355 . S
C344 C346 1.419 . S
C345 C340 1.425 . S
C345 C342 1.409 . S
C345 C343 1.415 . S
C346 H336 0.930 . S
C346 C344 1.419 . S
C346 C347 1.362 . S
C347 H337 0.930 . S
C347 C340 1.409 . S
C347 C346 1.362 . S
H348 C354 0.930 . S
H349 C357 0.930 . S
H350 C358 0.930 . S
H351 C359 0.930 . S
H352 C362 0.930 . S
H353 C363 0.930 . S
C354 H348 0.930 . S
C354 C355 1.355 . S
C354 C356 1.415 . S
C355 C354 1.355 . S
C355 C357 1.419 . S
C356 C354 1.415 . S
C356 C361 1.425 . S
C356 C363 1.409 . S
C357 H349 0.930 . S
C357 C355 1.419 . S
C357 C358 1.362 . S
C358 H350 0.930 . S
C358 C357 1.362 . S
C358 C361 1.409 . S
C359 H351 0.930 . S
C359 C360 1.355 . S
C359 C361 1.415 . S
C360 C359 1.355 . S
C360 C362 1.419 . S
C361 C356 1.425 . S
C361 C358 1.409 . S
C361 C359 1.415 . S
C362 H352 0.930 . S
C362 C360 1.419 . S
C362 C363 1.362 . S
C363 H353 0.930 . S
C363 C356 1.409 . S
C363 C362 1.362 . S
H364 C370 0.930 . S
H365 C373 0.930 . S
H366 C374 0.930 . S
H367 C375 0.930 . S
H368 C378 0.930 . S
H369 C379 0.930 . S
C370 H364 0.930 . S
C370 C371 1.355 . S
C370 C372 1.415 . S
C371 C370 1.355 . S
C371 C373 1.419 . S
C372 C370 1.415 . S
C372 C377 1.425 . S
C372 C379 1.409 . S
C373 H365 0.930 . S
C373 C371 1.419 . S
C373 C374 1.362 . S
C374 H366 0.930 . S
C374 C373 1.362 . S
C374 C377 1.409 . S
C375 H367 0.930 . S
C375 C376 1.355 . S
C375 C377 1.415 . S
C376 C375 1.355 . S
C376 C378 1.419 . S
C377 C372 1.425 . S
C377 C374 1.409 . S
C377 C375 1.415 . S
C378 H368 0.930 . S
C378 C376 1.419 . S
C378 C379 1.362 . S
C379 H369 0.930 . S
C379 C372 1.409 . S
C379 C378 1.362 . S
H380 C386 0.930 . S
H381 C389 0.930 . S
H382 C390 0.930 . S
H383 C391 0.930 . S
H384 C394 0.930 . S
H385 C395 0.930 . S
C386 H380 0.930 . S
C386 C387 1.355 . S
C386 C388 1.415 . S
C387 C386 1.355 . S
C387 C389 1.419 . S
C388 C386 1.415 . S
C388 C393 1.425 . S
C388 C395 1.409 . S
C389 H381 0.930 . S
C389 C387 1.419 . S
C389 C390 1.362 . S
C390 H382 0.930 . S
C390 C389 1.362 . S
C390 C393 1.409 . S
C391 H383 0.930 . S
C391 C392 1.355 . S
C391 C393 1.415 1_545 S
C392 C391 1.355 . S
C392 C394 1.419 . S
C393 C388 1.425 . S
C393 C390 1.409 . S
C393 C391 1.415 1_565 S
C394 H384 0.930 . S
C394 C392 1.419 . S
C394 C395 1.362 1_545 S
C395 H385 0.930 . S
C395 C388 1.409 . S
C395 C394 1.362 1_565 S
H396 C402 0.930 . S
H397 C405 0.930 . S
H398 C406 0.930 . S
H399 C407 0.930 1_565 S
H400 C410 0.930 . S
H401 C411 0.930 . S
C402 H396 0.930 . S
C402 C403 1.355 . S
C402 C404 1.415 . S
C403 C402 1.355 . S
C403 C405 1.419 . S
C404 C402 1.415 . S
C404 C409 1.425 . S
C404 C411 1.409 . S
C405 H397 0.930 . S
C405 C403 1.419 . S
C405 C406 1.362 . S
C406 H398 0.930 . S
C406 C405 1.362 . S
C406 C409 1.409 . S
C407 H399 0.930 1_545 S
C407 C408 1.355 1_545 S
C407 C409 1.415 . S
C408 C407 1.355 1_565 S
C408 C410 1.419 . S
C409 C404 1.425 . S
C409 C406 1.409 . S
C409 C407 1.415 . S
C410 H400 0.930 . S
C410 C408 1.419 . S
C410 C411 1.362 1_565 S
C411 H401 0.930 . S
C411 C404 1.409 . S
C411 C410 1.362 1_545 S
H412 C418 0.930 . S
H413 C421 0.930 . S
H414 C422 0.930 . S
H415 C423 0.930 . S
H416 C426 0.930 . S
H417 C427 0.930 . S
C418 H412 0.930 . S
C418 C419 1.355 . S
C418 C420 1.415 1_545 S
C419 C418 1.355 . S
C419 C421 1.419 . S
C420 C418 1.415 1_565 S
C420 C425 1.425 . S
C420 C427 1.409 . S
C421 H413 0.930 . S
C421 C419 1.419 . S
C421 C422 1.362 . S
C422 H414 0.930 . S
C422 C421 1.362 . S
C422 C425 1.409 1_545 S
C423 H415 0.930 . S
C423 C424 1.355 . S
C423 C425 1.415 . S
C424 C423 1.355 . S
C424 C426 1.419 . S
C425 C420 1.425 . S
C425 C422 1.409 1_565 S
C425 C423 1.415 . S
C426 H416 0.930 . S
C426 C424 1.419 . S
C426 C427 1.362 . S
C427 H417 0.930 . S
C427 C420 1.409 . S
C427 C426 1.362 . S
H428 C434 0.930 1_655 S
H429 C437 0.930 . S
H430 C438 0.930 . S
H431 C439 0.930 . S
H432 C442 0.930 . S
H433 C443 0.930 1_655 S
C434 H428 0.930 1_455 S
C434 C435 1.355 . S
C434 C436 1.415 . S
C435 C434 1.355 . S
C435 C437 1.419 . S
C436 C434 1.415 . S
C436 C441 1.425 . S
C436 C443 1.409 . S
C437 H429 0.930 . S
C437 C435 1.419 . S
C437 C438 1.362 . S
C438 H430 0.930 . S
C438 C437 1.362 . S
C438 C441 1.409 . S
C439 H431 0.930 . S
C439 C440 1.355 1_565 S
C439 C441 1.415 . S
C440 C439 1.355 1_545 S
C440 C442 1.419 . S
C441 C436 1.425 . S
C441 C438 1.409 . S
C441 C439 1.415 . S
C442 H432 0.930 . S
C442 C440 1.419 . S
C442 C443 1.362 1_545 S
C443 H433 0.930 1_455 S
C443 C436 1.409 . S
C443 C442 1.362 1_565 S
H444 C450 0.930 . S
H445 C453 0.930 . S
H446 C454 0.930 . S
H447 C455 0.930 . S
H448 C458 0.930 . S
H449 C459 0.920 1_554 S
C450 H444 0.930 . S
C450 C451 1.355 . S
C450 C452 1.438 . S
C451 C450 1.355 . S
C451 C453 1.419 . S
C452 C450 1.438 . S
C452 C457 1.412 1_554 S
C452 C459 1.398 1_554 S
C453 H445 0.930 . S
C453 C451 1.419 . S
C453 C454 1.362 1_554 S
C454 H446 0.930 . S
C454 C453 1.362 1_556 S
C454 C457 1.409 . S
C455 H447 0.930 . S
C455 C456 1.355 . S
C455 C457 1.415 . S
C456 C455 1.355 . S
C456 C458 1.419 . S
C457 C452 1.412 1_556 S
C457 C454 1.409 . S
C457 C455 1.415 . S
C458 H448 0.930 . S
C458 C456 1.419 . S
C458 C459 1.362 . S
C459 H449 0.920 1_556 S
C459 C452 1.398 1_556 S
C459 C458 1.362 . S
H460 C466 0.930 . S
H461 C469 0.930 . S
H462 C470 0.930 . S
H463 C471 0.930 . S
H464 C474 0.930 . S
H465 C475 0.930 . S
C466 H460 0.930 . S
C466 C467 1.355 . S
C466 C468 1.415 . S
C467 C466 1.355 . S
C467 C469 1.419 . S
C468 C466 1.415 . S
C468 C473 1.425 . S
C468 C475 1.409 . S
C469 H461 0.930 . S
C469 C467 1.419 . S
C469 C470 1.362 . S
C470 H462 0.930 . S
C470 C469 1.362 . S
C470 C473 1.409 . S
C471 H463 0.930 . S
C471 C472 1.355 . S
C471 C473 1.415 . S
C472 C471 1.355 . S
C472 C474 1.419 . S
C473 C468 1.425 . S
C473 C470 1.409 . S
C473 C471 1.415 . S
C474 H464 0.930 . S
C474 C472 1.419 . S
C474 C475 1.362 . S
C475 H465 0.930 . S
C475 C468 1.409 . S
C475 C474 1.362 . S
H476 C482 0.930 . S
H477 C485 0.930 . S
H478 C486 0.930 . S
H479 C487 0.930 . S
H480 C490 0.930 . S
H481 C491 0.930 . S
C482 H476 0.930 . S
C482 C483 1.355 . S
C482 C484 1.415 . S
C483 C482 1.355 . S
C483 C485 1.419 . S
C484 C482 1.415 . S
C484 C489 1.425 . S
C484 C491 1.409 . S
C485 H477 0.930 . S
C485 C483 1.419 . S
C485 C486 1.362 . S
C486 H478 0.930 . S
C486 C485 1.362 . S
C486 C489 1.409 . S
C487 H479 0.930 . S
C487 C488 1.355 . S
C487 C489 1.415 . S
C488 C487 1.355 . S
C488 C490 1.419 . S
C489 C484 1.425 . S
C489 C486 1.409 . S
C489 C487 1.415 . S
C490 H480 0.930 . S
C490 C488 1.419 . S
C490 C491 1.362 . S
C491 H481 0.930 . S
C491 C484 1.409 . S
C491 C490 1.362 . S
H492 C498 0.930 . S
H493 C501 0.930 . S
H494 C502 0.930 . S
H495 C503 0.930 . S
H496 C506 0.930 . S
H497 C507 0.930 . S
C498 H492 0.930 . S
C498 C499 1.355 . S
C498 C500 1.415 . S
C499 C498 1.355 . S
C499 C501 1.419 . S
C500 C498 1.415 . S
C500 C505 1.425 . S
C500 C507 1.409 . S
C501 H493 0.930 . S
C501 C499 1.419 . S
C501 C502 1.362 . S
C502 H494 0.930 . S
C502 C501 1.362 . S
C502 C505 1.409 . S
C503 H495 0.930 . S
C503 C504 1.355 . S
C503 C505 1.415 . S
C504 C503 1.355 . S
C504 C506 1.419 . S
C505 C500 1.425 . S
C505 C502 1.409 . S
C505 C503 1.415 . S
C506 H496 0.930 . S
C506 C504 1.419 . S
C506 C507 1.362 . S
C507 H497 0.930 . S
C507 C500 1.409 . S
C507 C506 1.362 . S
H508 C514 0.930 . S
H509 C517 0.930 . S
H510 C518 0.930 1_554 S
H511 C519 0.930 . S
H512 C522 0.930 . S
H513 C523 0.930 . S
C514 H508 0.930 . S
C514 C515 1.355 . S
C514 C516 1.415 1_556 S
C515 C514 1.355 . S
C515 C517 1.419 1_455 S
C516 C514 1.415 1_554 S
C516 C521 1.425 . S
C516 C523 1.409 . S
C517 H509 0.930 . S
C517 C515 1.419 1_655 S
C517 C518 1.362 . S
C518 H510 0.930 1_556 S
C518 C517 1.362 . S
C518 C521 1.409 1_656 S
C519 H511 0.930 . S
C519 C520 1.355 . S
C519 C521 1.415 . S
C520 C519 1.355 . S
C520 C522 1.419 . S
C521 C516 1.425 . S
C521 C518 1.409 1_454 S
C521 C519 1.415 . S
C522 H512 0.930 . S
C522 C520 1.419 . S
C522 C523 1.362 . S
C523 H513 0.930 . S
C523 C516 1.409 . S
C523 C522 1.362 . S
H524 C530 0.930 . S
H525 C533 0.930 . S
H526 C534 0.930 . S
H527 C535 0.930 . S
H528 C538 0.930 . S
H529 C539 0.930 . S
C530 H524 0.930 . S
C530 C531 1.355 . S
C530 C532 1.415 . S
C531 C530 1.355 . S
C531 C533 1.419 . S
C532 C530 1.415 . S
C532 C537 1.425 . S
C532 C539 1.409 . S
C533 H525 0.930 . S
C533 C531 1.419 . S
C533 C534 1.362 . S
C534 H526 0.930 . S
C534 C533 1.362 . S
C534 C537 1.409 . S
C535 H527 0.930 . S
C535 C536 1.355 . S
C535 C537 1.415 . S
C536 C535 1.355 . S
C536 C538 1.419 . S
C537 C532 1.425 . S
C537 C534 1.409 . S
C537 C535 1.415 . S
C538 H528 0.930 . S
C538 C536 1.419 . S
C538 C539 1.362 . S
C539 H529 0.930 . S
C539 C532 1.409 . S
C539 C538 1.362 . S
H540 C546 0.930 . S
H541 C549 0.930 . S
H542 C550 0.930 . S
H543 C551 0.930 . S
H544 C554 0.930 . S
H545 C555 0.930 . S
C546 H540 0.930 . S
C546 C547 1.355 . S
C546 C548 1.415 . S
C547 C546 1.355 . S
C547 C549 1.419 . S
C548 C546 1.415 . S
C548 C553 1.425 . S
C548 C555 1.409 . S
C549 H541 0.930 . S
C549 C547 1.419 . S
C549 C550 1.362 . S
C550 H542 0.930 . S
C550 C549 1.362 . S
C550 C553 1.409 . S
C551 H543 0.930 . S
C551 C552 1.355 . S
C551 C553 1.415 . S
C552 C551 1.355 . S
C552 C554 1.419 . S
C553 C548 1.425 . S
C553 C550 1.409 . S
C553 C551 1.415 . S
C554 H544 0.930 . S
C554 C552 1.419 . S
C554 C555 1.362 . S
C555 H545 0.930 . S
C555 C548 1.409 . S
C555 C554 1.362 . S
H556 C562 0.930 . S
H557 C565 0.930 . S
H558 C566 0.930 . S
H559 C567 0.930 . S
H560 C570 0.930 . S
H561 C571 0.930 . S
C562 H556 0.930 . S
C562 C563 1.355 . S
C562 C564 1.415 . S
C563 C562 1.355 . S
C563 C565 1.419 . S
C564 C562 1.415 . S
C564 C569 1.425 . S
C564 C571 1.409 . S
C565 H557 0.930 . S
C565 C563 1.419 . S
C565 C566 1.362 . S
C566 H558 0.930 . S
C566 C565 1.362 . S
C566 C569 1.409 . S
C567 H559 0.930 . S
C567 C568 1.355 . S
C567 C569 1.415 . S
C568 C567 1.355 . S
C568 C570 1.419 . S
C569 C564 1.425 . S
C569 C566 1.409 . S
C569 C567 1.415 . S
C570 H560 0.930 . S
C570 C568 1.419 . S
C570 C571 1.362 . S
C571 H561 0.930 . S
C571 C564 1.409 . S
C571 C570 1.362 . S
C200 C111 1.422 . S
C195 N2 1.574 . S
C216 C129 1.193 . S
C211 N15 1.234 1_655 S
C227 N27 1.367 . S
C232 C153 1.281 . S
C248 C183 1.476 . S
C243 N40 1.689 . S
C264 C171 1.239 . S
C259 N54 1.453 . S
C275 N66 1.672 . S
C280 C124 1.611 . S
C291 N79 1.516 . S
C296 C144 1.364 . S
C307 N93 1.261 . S
C312 C149 1.099 . S
C323 N92 1.666 . S
C328 C165 1.631 . S
C339 N67 1.217 . S
C344 C120 1.175 . S
C360 C187 1.083 . S
C355 N41 1.202 . S
C376 C132 1.459 . S
C371 N14 1.682 . S
C387 N28 1.567 . S
C392 C150 1.415 . S
C403 N1 1.364 . S
C408 C108 1.253 . S
C424 C128 1.280 . S
C419 N80 1.448 . S
C440 C174 1.378 . S
C435 N53 1.515 . S
C456 C170 1.393 . S
C451 N5 1.570 . S
C472 C123 1.312 . S
C467 N18 1.418 . S
C483 N31 1.579 . S
C488 C145 1.272 . S
C499 N44 1.481 . S
C504 C166 1.419 . S
C520 C107 1.394 . S
C515 N57 1.483 . S
C531 N70 1.567 . S
C536 C141 1.477 . S
C552 C162 1.398 . S
C547 N83 1.495 . S
C568 C186 1.466 . S
C563 N96 1.542 . S
