# Generated by pormake.
# Topology eea, (3,6)-cn, num edge types: 1
# Building blocks:
#     Node 0, Type 0, BuildingBlock: VETTIZ_charged_linker_0, # of connection points: 3
#     Node 1, Type 0, BuildingBlock: VETTIZ_charged_linker_0, # of connection points: 3
#     Node 2, Type 0, BuildingBlock: VETTIZ_charged_linker_0, # of connection points: 3
#     Node 3, Type 0, BuildingBlock: VETTIZ_charged_linker_0, # of connection points: 3
#     Node 4, Type 0, BuildingBlock: VETTIZ_charged_linker_0, # of connection points: 3
#     Node 5, Type 0, BuildingBlock: VETTIZ_charged_linker_0, # of connection points: 3
#     Node 6, Type 0, BuildingBlock: VETTIZ_charged_linker_0, # of connection points: 3
#     Node 7, Type 0, BuildingBlock: VETTIZ_charged_linker_0, # of connection points: 3
#     Node 8, Type 0, BuildingBlock: VETTIZ_charged_linker_0, # of connection points: 3
#     Node 9, Type 0, BuildingBlock: VETTIZ_charged_linker_0, # of connection points: 3
#     Node 10, Type 0, BuildingBlock: VETTIZ_charged_linker_0, # of connection points: 3
#     Node 11, Type 0, BuildingBlock: VETTIZ_charged_linker_0, # of connection points: 3
#     Node 12, Type 0, BuildingBlock: VETTIZ_charged_linker_0, # of connection points: 3
#     Node 13, Type 0, BuildingBlock: VETTIZ_charged_linker_0, # of connection points: 3
#     Node 14, Type 0, BuildingBlock: VETTIZ_charged_linker_0, # of connection points: 3
#     Node 15, Type 0, BuildingBlock: VETTIZ_charged_linker_0, # of connection points: 3
#     Node 16, Type 0, BuildingBlock: VETTIZ_charged_linker_0, # of connection points: 3
#     Node 17, Type 0, BuildingBlock: VETTIZ_charged_linker_0, # of connection points: 3
#     Node 18, Type 1, BuildingBlock: NUHQIS_clean_sbu_0, # of connection points: 6
#     Node 19, Type 1, BuildingBlock: NUHQIS_clean_sbu_0, # of connection points: 6
#     Node 20, Type 1, BuildingBlock: NUHQIS_clean_sbu_0, # of connection points: 6
#     Node 21, Type 1, BuildingBlock: NUHQIS_clean_sbu_0, # of connection points: 6
#     Node 22, Type 1, BuildingBlock: NUHQIS_clean_sbu_0, # of connection points: 6
#     Node 23, Type 1, BuildingBlock: NUHQIS_clean_sbu_0, # of connection points: 6
#     Node 24, Type 1, BuildingBlock: NUHQIS_clean_sbu_0, # of connection points: 6
#     Node 25, Type 1, BuildingBlock: NUHQIS_clean_sbu_0, # of connection points: 6
#     Node 26, Type 1, BuildingBlock: NUHQIS_clean_sbu_0, # of connection points: 6
#     Edge 27, Type (0, 1), BuildingBlock: KIFKEQ_clean_linker_1, # of connection points: 2
#     Edge 28, Type (0, 1), BuildingBlock: KIFKEQ_clean_linker_1, # of connection points: 2
#     Edge 29, Type (0, 1), BuildingBlock: KIFKEQ_clean_linker_1, # of connection points: 2
#     Edge 30, Type (0, 1), BuildingBlock: KIFKEQ_clean_linker_1, # of connection points: 2
#     Edge 31, Type (0, 1), BuildingBlock: KIFKEQ_clean_linker_1, # of connection points: 2
#     Edge 32, Type (0, 1), BuildingBlock: KIFKEQ_clean_linker_1, # of connection points: 2
#     Edge 33, Type (0, 1), BuildingBlock: KIFKEQ_clean_linker_1, # of connection points: 2
#     Edge 34, Type (0, 1), BuildingBlock: KIFKEQ_clean_linker_1, # of connection points: 2
#     Edge 35, Type (0, 1), BuildingBlock: KIFKEQ_clean_linker_1, # of connection points: 2
#     Edge 36, Type (0, 1), BuildingBlock: KIFKEQ_clean_linker_1, # of connection points: 2
#     Edge 37, Type (0, 1), BuildingBlock: KIFKEQ_clean_linker_1, # of connection points: 2
#     Edge 38, Type (0, 1), BuildingBlock: KIFKEQ_clean_linker_1, # of connection points: 2
#     Edge 39, Type (0, 1), BuildingBlock: KIFKEQ_clean_linker_1, # of connection points: 2
#     Edge 40, Type (0, 1), BuildingBlock: KIFKEQ_clean_linker_1, # of connection points: 2
#     Edge 41, Type (0, 1), BuildingBlock: KIFKEQ_clean_linker_1, # of connection points: 2
#     Edge 42, Type (0, 1), BuildingBlock: KIFKEQ_clean_linker_1, # of connection points: 2
#     Edge 43, Type (0, 1), BuildingBlock: KIFKEQ_clean_linker_1, # of connection points: 2
#     Edge 44, Type (0, 1), BuildingBlock: KIFKEQ_clean_linker_1, # of connection points: 2
#     Edge 45, Type (0, 1), BuildingBlock: KIFKEQ_clean_linker_1, # of connection points: 2
#     Edge 46, Type (0, 1), BuildingBlock: KIFKEQ_clean_linker_1, # of connection points: 2
#     Edge 47, Type (0, 1), BuildingBlock: KIFKEQ_clean_linker_1, # of connection points: 2
#     Edge 48, Type (0, 1), BuildingBlock: KIFKEQ_clean_linker_1, # of connection points: 2
#     Edge 49, Type (0, 1), BuildingBlock: KIFKEQ_clean_linker_1, # of connection points: 2
#     Edge 50, Type (0, 1), BuildingBlock: KIFKEQ_clean_linker_1, # of connection points: 2
#     Edge 51, Type (0, 1), BuildingBlock: KIFKEQ_clean_linker_1, # of connection points: 2
#     Edge 52, Type (0, 1), BuildingBlock: KIFKEQ_clean_linker_1, # of connection points: 2
#     Edge 53, Type (0, 1), BuildingBlock: KIFKEQ_clean_linker_1, # of connection points: 2
#     Edge 54, Type (0, 1), BuildingBlock: KIFKEQ_clean_linker_1, # of connection points: 2
#     Edge 55, Type (0, 1), BuildingBlock: KIFKEQ_clean_linker_1, # of connection points: 2
#     Edge 56, Type (0, 1), BuildingBlock: KIFKEQ_clean_linker_1, # of connection points: 2
#     Edge 57, Type (0, 1), BuildingBlock: KIFKEQ_clean_linker_1, # of connection points: 2
#     Edge 58, Type (0, 1), BuildingBlock: KIFKEQ_clean_linker_1, # of connection points: 2
#     Edge 59, Type (0, 1), BuildingBlock: KIFKEQ_clean_linker_1, # of connection points: 2
#     Edge 60, Type (0, 1), BuildingBlock: KIFKEQ_clean_linker_1, # of connection points: 2
#     Edge 61, Type (0, 1), BuildingBlock: KIFKEQ_clean_linker_1, # of connection points: 2
#     Edge 62, Type (0, 1), BuildingBlock: KIFKEQ_clean_linker_1, # of connection points: 2
#     Edge 63, Type (0, 1), BuildingBlock: KIFKEQ_clean_linker_1, # of connection points: 2
#     Edge 64, Type (0, 1), BuildingBlock: KIFKEQ_clean_linker_1, # of connection points: 2
#     Edge 65, Type (0, 1), BuildingBlock: KIFKEQ_clean_linker_1, # of connection points: 2
#     Edge 66, Type (0, 1), BuildingBlock: KIFKEQ_clean_linker_1, # of connection points: 2
#     Edge 67, Type (0, 1), BuildingBlock: KIFKEQ_clean_linker_1, # of connection points: 2
#     Edge 68, Type (0, 1), BuildingBlock: KIFKEQ_clean_linker_1, # of connection points: 2
#     Edge 69, Type (0, 1), BuildingBlock: KIFKEQ_clean_linker_1, # of connection points: 2
#     Edge 70, Type (0, 1), BuildingBlock: KIFKEQ_clean_linker_1, # of connection points: 2
#     Edge 71, Type (0, 1), BuildingBlock: KIFKEQ_clean_linker_1, # of connection points: 2
#     Edge 72, Type (0, 1), BuildingBlock: KIFKEQ_clean_linker_1, # of connection points: 2
#     Edge 73, Type (0, 1), BuildingBlock: KIFKEQ_clean_linker_1, # of connection points: 2
#     Edge 74, Type (0, 1), BuildingBlock: KIFKEQ_clean_linker_1, # of connection points: 2
#     Edge 75, Type (0, 1), BuildingBlock: KIFKEQ_clean_linker_1, # of connection points: 2
#     Edge 76, Type (0, 1), BuildingBlock: KIFKEQ_clean_linker_1, # of connection points: 2
#     Edge 77, Type (0, 1), BuildingBlock: KIFKEQ_clean_linker_1, # of connection points: 2
#     Edge 78, Type (0, 1), BuildingBlock: KIFKEQ_clean_linker_1, # of connection points: 2
#     Edge 79, Type (0, 1), BuildingBlock: KIFKEQ_clean_linker_1, # of connection points: 2
#     Edge 80, Type (0, 1), BuildingBlock: KIFKEQ_clean_linker_1, # of connection points: 2
# Relax obj value: 0.035
# Max RMSD: 0.134
# Mean RMSD: 0.074
data_MOF--net-eea--node1-NUHQIS_clean_sbu_0--node2-VETTIZ_charged_linker_0--edge1-KIFKEQ_clean_linker_1
_symmetry_space_group_name_H-M    P1
_symmetry_Int_Tables_number       1
_symmetry_cell_setting            triclinic
loop_
_symmetry_equiv_pos_as_xyz
'x, y, z'
_cell_length_a     62.653818
_cell_length_b     63.125073
_cell_length_c     91.318647
_cell_angle_alpha  93.255502
_cell_angle_beta   93.169342
_cell_angle_gamma 119.82482
loop_
_atom_site_label
_atom_site_type_symbol
_atom_site_fract_x
_atom_site_fract_y
_atom_site_fract_z
_atom_type_partial_charge
C0 C 0.25674 0.18963 0.391 0.0
C1 C 0.25686 0.2097 0.39855 0.0
C2 C 0.26637 0.21643 0.41348 0.0
C3 C 0.2743 0.18257 0.4133 0.0
C4 C 0.26534 0.17628 0.39859 0.0
C5 C 0.26462 0.15328 0.39251 0.0
H6 H 0.27319 0.05356 0.40549 0.0
C7 C 0.28055 0.16419 0.41809 0.0
C8 C 0.27496 0.14701 0.40593 0.0
H9 H 0.24749 0.06906 0.36483 0.0
H10 H 0.25925 0.10969 0.37567 0.0
H11 H 0.32194 0.10538 0.41211 0.0
H12 H 0.24962 0.07578 0.42705 0.0
H13 H 0.27165 0.09039 0.44243 0.0
H14 H 0.27083 0.06528 0.43167 0.0
H15 H 0.31366 0.08757 0.42759 0.0
H16 H 0.32666 0.12047 0.42976 0.0
C17 C 0.28187 0.15975 0.37996 0.0
C18 C 0.23724 0.13371 0.38771 0.0
C19 C 0.30998 0.16771 0.47175 0.0
C20 C 0.31667 0.15273 0.47932 0.0
C21 C 0.31727 0.13334 0.47125 0.0
C22 C 0.31035 0.12828 0.45608 0.0
C23 C 0.30266 0.14268 0.44881 0.0
C24 C 0.30322 0.16244 0.45652 0.0
C25 C 0.29532 0.17621 0.44673 0.0
C26 C 0.28965 0.1612 0.43196 0.0
C27 C 0.29357 0.14136 0.43336 0.0
C28 C 0.31747 0.20256 0.44663 0.0
C29 C 0.27187 0.17496 0.45237 0.0
C30 C 0.27021 0.06581 0.39894 0.0
C31 C 0.25903 0.05809 0.38442 0.0
C32 C 0.25601 0.07465 0.37606 0.0
C33 C 0.26264 0.09811 0.38243 0.0
C34 C 0.27229 0.10497 0.3973 0.0
C35 C 0.27665 0.08919 0.40514 0.0
C36 C 0.28718 0.09952 0.42075 0.0
C37 C 0.28739 0.12369 0.4212 0.0
C38 C 0.27847 0.12668 0.40749 0.0
C39 C 0.31366 0.10335 0.42278 0.0
C40 C 0.26908 0.0819 0.43112 0.0
H41 H 0.28204 0.20896 0.43225 0.0
H42 H 0.24918 0.18384 0.37959 0.0
H43 H 0.22466 0.13571 0.39508 0.0
H44 H 0.23327 0.11474 0.38844 0.0
H45 H 0.23164 0.13552 0.3763 0.0
H46 H 0.29862 0.17817 0.38265 0.0
H47 H 0.27236 0.16011 0.36943 0.0
H48 H 0.289 0.14702 0.37825 0.0
H49 H 0.30934 0.18279 0.47756 0.0
H50 H 0.32304 0.12194 0.47668 0.0
H51 H 0.31087 0.11306 0.45065 0.0
H52 H 0.33526 0.20257 0.44726 0.0
H53 H 0.31829 0.21474 0.45619 0.0
H54 H 0.31709 0.21086 0.43637 0.0
H55 H 0.25966 0.1567 0.45625 0.0
H56 H 0.26022 0.17706 0.44374 0.0
H57 H 0.2768 0.18908 0.46175 0.0
H58 H 0.2668 0.23198 0.41946 0.0
C59 C 0.27523 0.20307 0.42087 0.0
C60 C 0.95598 0.1796 0.39614 0.0
C61 C 0.97583 0.20222 0.40234 0.0
C62 C 0.9748 0.21131 0.41662 0.0
C63 C 0.93485 0.17516 0.4183 0.0
C64 C 0.93584 0.16651 0.40424 0.0
C65 C 0.91339 0.14225 0.39907 0.0
H66 H 0.80771 0.04392 0.41411 0.0
C67 C 0.91145 0.15672 0.42373 0.0
C68 C 0.8989 0.13742 0.41243 0.0
H69 H 0.84069 0.05763 0.37271 0.0
H70 H 0.87312 0.0972 0.38337 0.0
H71 H 0.85732 0.06753 0.43582 0.0
H72 H 0.81158 0.09473 0.41851 0.0
H73 H 0.82396 0.11108 0.4359 0.0
H74 H 0.80453 0.0781 0.43448 0.0
H75 H 0.82706 0.05852 0.44122 0.0
H76 H 0.85427 0.08488 0.45046 0.0
C77 C 0.92188 0.12329 0.3961 0.0
C78 C 0.89978 0.14566 0.38548 0.0
C79 C 0.88825 0.1694 0.4751 0.0
C80 C 0.86738 0.15482 0.48255 0.0
C81 C 0.84922 0.13162 0.47576 0.0
C82 C 0.85132 0.12322 0.46175 0.0
C83 C 0.87182 0.13808 0.45429 0.0
C84 C 0.89001 0.16069 0.46092 0.0
C85 C 0.91038 0.17371 0.45105 0.0
C86 C 0.90099 0.15537 0.43736 0.0
C87 C 0.87844 0.13454 0.43947 0.0
C88 C 0.9346 0.17693 0.45871 0.0
C89 C 0.91166 0.19809 0.44784 0.0
C90 C 0.82167 0.05544 0.4072 0.0
C91 C 0.82164 0.04719 0.39255 0.0
C92 C 0.84047 0.06303 0.38414 0.0
C93 C 0.85926 0.0862 0.39032 0.0
C94 C 0.85922 0.09387 0.40505 0.0
C95 C 0.84032 0.07879 0.41311 0.0
C96 C 0.84237 0.09057 0.42828 0.0
C97 C 0.86603 0.11499 0.42813 0.0
C98 C 0.87599 0.11663 0.4146 0.0
C99 C 0.84525 0.07459 0.43963 0.0
C100 C 0.81944 0.09371 0.4295 0.0
H101 H 0.95479 0.20571 0.43544 0.0
H102 H 0.95595 0.17231 0.38511 0.0
H103 H 0.90343 0.16483 0.38569 0.0
H104 H 0.87944 0.13429 0.38517 0.0
H105 H 0.90582 0.14148 0.37503 0.0
H106 H 0.93614 0.12576 0.40492 0.0
H107 H 0.93011 0.12547 0.38543 0.0
H108 H 0.90689 0.10412 0.39606 0.0
H109 H 0.90255 0.18729 0.48004 0.0
H110 H 0.8333 0.11978 0.48136 0.0
H111 H 0.83678 0.10542 0.4573 0.0
H112 H 0.93094 0.1603 0.4642 0.0
H113 H 0.94312 0.19281 0.46728 0.0
H114 H 0.94829 0.17925 0.45094 0.0
H115 H 0.89275 0.19542 0.44591 0.0
H116 H 0.92062 0.20527 0.43778 0.0
H117 H 0.92158 0.21234 0.45728 0.0
H118 H 0.98992 0.22867 0.42168 0.0
C119 C 0.95446 0.1979 0.42463 0.0
C120 C 0.96072 0.7877 0.40505 0.0
C121 C 0.97791 0.78031 0.40903 0.0
C122 C 0.97391 0.76662 0.42138 0.0
C123 C 0.93645 0.76796 0.42516 0.0
C124 C 0.94014 0.78097 0.41298 0.0
C125 C 0.91936 0.7857 0.40914 0.0
H126 H 0.80608 0.76731 0.42038 0.0
C127 C 0.91287 0.76364 0.4307 0.0
C128 C 0.90269 0.77371 0.42114 0.0
H129 H 0.85287 0.80648 0.38679 0.0
H130 H 0.88468 0.79951 0.39702 0.0
H131 H 0.81923 0.72368 0.42144 0.0
H132 H 0.84795 0.7939 0.44601 0.0
H133 H 0.85241 0.77567 0.45823 0.0
H134 H 0.82142 0.76718 0.4511 0.0
H135 H 0.80236 0.73133 0.43392 0.0
H136 H 0.82219 0.72007 0.44032 0.0
C137 C 0.90705 0.77248 0.3936 0.0
C138 C 0.92995 0.81383 0.41046 0.0
C139 C 0.88431 0.72306 0.47833 0.0
C140 C 0.86341 0.71746 0.48599 0.0
C141 C 0.84574 0.723 0.47995 0.0
C142 C 0.84857 0.73363 0.46664 0.0
C143 C 0.86939 0.73908 0.45915 0.0
C144 C 0.88692 0.73387 0.46497 0.0
C145 C 0.90783 0.7411 0.45528 0.0
C146 C 0.90031 0.75226 0.44306 0.0
C147 C 0.87758 0.75071 0.44537 0.0
C148 C 0.90773 0.71755 0.4494 0.0
C149 C 0.93218 0.76029 0.46435 0.0
C150 C 0.8232 0.77456 0.41524 0.0
C151 C 0.82649 0.78701 0.40246 0.0
C152 C 0.84928 0.79612 0.39629 0.0
C153 C 0.86793 0.79222 0.40235 0.0
C154 C 0.86406 0.7792 0.41483 0.0
C155 C 0.84221 0.77108 0.42126 0.0
C156 C 0.84202 0.75888 0.435 0.0
C157 C 0.8669 0.76005 0.43532 0.0
C158 C 0.87958 0.77179 0.42341 0.0
C159 C 0.82026 0.73209 0.43269 0.0
C160 C 0.84073 0.77449 0.44831 0.0
H161 H 0.95155 0.75022 0.43872 0.0
H162 H 0.96299 0.79854 0.39589 0.0
H163 H 0.94502 0.82313 0.4196 0.0
H164 H 0.91613 0.81906 0.41321 0.0
H165 H 0.93775 0.82172 0.40016 0.0
H166 H 0.90755 0.75516 0.39175 0.0
H167 H 0.91673 0.78421 0.38482 0.0
H168 H 0.88724 0.76666 0.39199 0.0
H169 H 0.89818 0.71891 0.48254 0.0
H170 H 0.82976 0.71948 0.48565 0.0
H171 H 0.83437 0.73726 0.46272 0.0
H172 H 0.88854 0.70168 0.44752 0.0
H173 H 0.91831 0.71272 0.45736 0.0
H174 H 0.91517 0.71911 0.43858 0.0
H175 H 0.92965 0.77457 0.47039 0.0
H176 H 0.94741 0.77017 0.45745 0.0
H177 H 0.93816 0.75154 0.47259 0.0
H178 H 0.98627 0.76006 0.4247 0.0
C179 C 0.95348 0.76062 0.42949 0.0
C180 C 0.16836 0.21846 0.60726 0.0
C181 C 0.18961 0.22086 0.60128 0.0
C182 C 0.19429 0.22893 0.58707 0.0
C183 C 0.15724 0.23222 0.58529 0.0
C184 C 0.1525 0.22403 0.5991 0.0
C185 C 0.12888 0.22174 0.60379 0.0
H186 H 0.0281 0.23321 0.59004 0.0
C187 C 0.13711 0.23653 0.57985 0.0
C188 C 0.12038 0.23025 0.59062 0.0
H189 H 0.04803 0.20585 0.62773 0.0
H190 H 0.08509 0.21278 0.61745 0.0
H191 H 0.08328 0.27844 0.58744 0.0
H192 H 0.04433 0.20515 0.56521 0.0
H193 H 0.05874 0.22629 0.55222 0.0
H194 H 0.03522 0.2275 0.5621 0.0
H195 H 0.05818 0.26899 0.57343 0.0
H196 H 0.08945 0.28024 0.56887 0.0
C197 C 0.13536 0.23948 0.61789 0.0
C198 C 0.11085 0.19434 0.60568 0.0
C199 C 0.14003 0.27075 0.53042 0.0
C200 C 0.12485 0.27775 0.52262 0.0
C201 C 0.10347 0.27474 0.52885 0.0
C202 C 0.09741 0.26506 0.5425 0.0
C203 C 0.11288 0.25832 0.55014 0.0
C204 C 0.13383 0.2613 0.54407 0.0
C205 C 0.14843 0.25361 0.5538 0.0
C206 C 0.13289 0.24559 0.56674 0.0
C207 C 0.11195 0.24823 0.56454 0.0
C208 C 0.17425 0.27641 0.55834 0.0
C209 C 0.149 0.2319 0.54539 0.0
C210 C 0.04039 0.22856 0.59601 0.0
C211 C 0.03507 0.21912 0.60984 0.0
C212 C 0.05177 0.21357 0.61725 0.0
C213 C 0.07329 0.21742 0.61118 0.0
C214 C 0.07839 0.22688 0.59745 0.0
C215 C 0.06212 0.2323 0.59005 0.0
C216 C 0.07085 0.24225 0.57554 0.0
C217 C 0.0948 0.24153 0.57542 0.0
C218 C 0.09905 0.23257 0.58834 0.0
C219 C 0.07558 0.26882 0.5762 0.0
C220 C 0.0513 0.22457 0.56303 0.0
H221 H 0.18293 0.24064 0.56837 0.0
H222 H 0.16416 0.21257 0.61816 0.0
H223 H 0.1144 0.18201 0.5983 0.0
H224 H 0.09131 0.18869 0.60255 0.0
H225 H 0.11279 0.19017 0.61717 0.0
H226 H 0.15296 0.25692 0.61722 0.0
H227 H 0.13772 0.23124 0.62784 0.0
H228 H 0.12149 0.24509 0.61954 0.0
H229 H 0.15639 0.27237 0.52597 0.0
H230 H 0.09155 0.28025 0.5233 0.0
H231 H 0.08096 0.26333 0.54662 0.0
H232 H 0.17279 0.29316 0.56039 0.0
H233 H 0.18676 0.27965 0.54952 0.0
H234 H 0.18319 0.2751 0.56872 0.0
H235 H 0.13137 0.22 0.53835 0.0
H236 H 0.15077 0.21952 0.55281 0.0
H237 H 0.16424 0.23855 0.53811 0.0
H238 H 0.21017 0.23053 0.58199 0.0
C239 C 0.17831 0.23465 0.57909 0.0
C240 C 0.75539 0.81473 0.61854 0.0
C241 C 0.75152 0.79275 0.61124 0.0
C242 C 0.73892 0.78505 0.59697 0.0
C243 C 0.7355 0.82169 0.59727 0.0
C244 C 0.74721 0.82878 0.61141 0.0
C245 C 0.75033 0.8528 0.61761 0.0
H246 H 0.73796 0.95167 0.60832 0.0
C247 C 0.73023 0.84095 0.59288 0.0
C248 C 0.73872 0.8591 0.60483 0.0
H249 H 0.77249 0.93812 0.64607 0.0
H250 H 0.76159 0.89831 0.63432 0.0
H251 H 0.76155 0.935 0.58566 0.0
H252 H 0.68974 0.89497 0.60126 0.0
H253 H 0.68609 0.88843 0.58199 0.0
H254 H 0.69825 0.91962 0.5898 0.0
H255 H 0.73629 0.93874 0.57895 0.0
H256 H 0.7418 0.91558 0.57047 0.0
C257 C 0.77842 0.87139 0.62084 0.0
C258 C 0.73546 0.84812 0.63124 0.0
C259 C 0.69461 0.83658 0.54061 0.0
C260 C 0.6896 0.85282 0.53323 0.0
C261 C 0.69256 0.87402 0.54122 0.0
C262 C 0.70094 0.87932 0.55622 0.0
C263 C 0.70669 0.86339 0.56333 0.0
C264 C 0.70324 0.84228 0.5556 0.0
C265 C 0.71076 0.82778 0.56499 0.0
C266 C 0.71968 0.84392 0.57952 0.0
C267 C 0.71723 0.86472 0.57845 0.0
C268 C 0.73198 0.8262 0.55803 0.0
C269 C 0.68754 0.80259 0.56631 0.0
C270 C 0.74267 0.93983 0.61413 0.0
C271 C 0.75585 0.94774 0.62814 0.0
C272 C 0.76229 0.93224 0.63526 0.0
C273 C 0.75599 0.9092 0.62839 0.0
C274 C 0.74349 0.9018 0.61415 0.0
C275 C 0.73693 0.91697 0.60729 0.0
C276 C 0.72514 0.90679 0.59183 0.0
C277 C 0.72548 0.88288 0.5906 0.0
C278 C 0.73616 0.88005 0.6037 0.0
C279 C 0.74181 0.92489 0.58109 0.0
C280 C 0.69843 0.9023 0.59103 0.0
H281 H 0.7217 0.79276 0.57903 0.0
H282 H 0.76465 0.82094 0.62959 0.0
H283 H 0.71781 0.83028 0.62939 0.0
H284 H 0.72988 0.86193 0.63364 0.0
H285 H 0.74609 0.84749 0.64118 0.0
H286 H 0.78927 0.86744 0.613 0.0
H287 H 0.78533 0.87063 0.63215 0.0
H288 H 0.78321 0.89046 0.61938 0.0
H289 H 0.69265 0.82021 0.53473 0.0
H290 H 0.68844 0.8866 0.53582 0.0
H291 H 0.70297 0.89583 0.56162 0.0
H292 H 0.74504 0.84398 0.55392 0.0
H293 H 0.72466 0.81185 0.54855 0.0
H294 H 0.74341 0.8225 0.56592 0.0
H295 H 0.67071 0.80429 0.56645 0.0
H296 H 0.68851 0.79485 0.57672 0.0
H297 H 0.68442 0.78916 0.55687 0.0
H298 H 0.73578 0.76819 0.59111 0.0
C299 C 0.73089 0.7994 0.58995 0.0
C300 C 0.05 0.81689 0.61282 0.0
C301 C 0.02974 0.79458 0.60649 0.0
C302 C 0.03033 0.78605 0.59195 0.0
C303 C 0.07063 0.82183 0.59042 0.0
C304 C 0.06995 0.83016 0.60463 0.0
C305 C 0.09223 0.85461 0.60971 0.0
H306 H 0.20144 0.95026 0.59602 0.0
C307 C 0.09407 0.84025 0.58501 0.0
C308 C 0.10666 0.85951 0.59633 0.0
H309 H 0.16219 0.94191 0.63477 0.0
H310 H 0.13013 0.90181 0.62444 0.0
H311 H 0.19243 0.8964 0.59216 0.0
H312 H 0.15439 0.93056 0.57325 0.0
H313 H 0.15454 0.91085 0.55898 0.0
H314 H 0.1835 0.9356 0.56778 0.0
H315 H 0.20368 0.91549 0.57738 0.0
H316 H 0.18253 0.88285 0.57397 0.0
C317 C 0.10605 0.8514 0.62324 0.0
C318 C 0.0835 0.87342 0.6127 0.0
C319 C 0.11741 0.82728 0.53375 0.0
C320 C 0.13865 0.8414 0.52648 0.0
C321 C 0.15771 0.86379 0.53369 0.0
C322 C 0.15595 0.87196 0.54784 0.0
C323 C 0.13486 0.85772 0.55502 0.0
C324 C 0.116 0.83574 0.54807 0.0
C325 C 0.09522 0.82314 0.55775 0.0
C326 C 0.10487 0.84127 0.57154 0.0
C327 C 0.12805 0.86149 0.56973 0.0
C328 C 0.09288 0.79826 0.56082 0.0
C329 C 0.07154 0.82096 0.54997 0.0
C330 C 0.18588 0.93991 0.60226 0.0
C331 C 0.18445 0.94939 0.61625 0.0
C332 C 0.164 0.93499 0.62406 0.0
C333 C 0.14523 0.91175 0.61797 0.0
C334 C 0.14673 0.90277 0.60386 0.0
C335 C 0.16686 0.91678 0.5963 0.0
C336 C 0.16518 0.90455 0.58134 0.0
C337 C 0.14056 0.88097 0.5811 0.0
C338 C 0.1299 0.87999 0.59431 0.0
C339 C 0.1871 0.89964 0.58104 0.0
C340 C 0.16453 0.92117 0.56964 0.0
H341 H 0.04992 0.79209 0.57291 0.0
H342 H 0.05049 0.82397 0.62399 0.0
H343 H 0.06638 0.86844 0.60556 0.0
H344 H 0.09701 0.89206 0.61008 0.0
H345 H 0.07941 0.8743 0.62433 0.0
H346 H 0.10591 0.83372 0.62171 0.0
H347 H 0.09716 0.85135 0.63344 0.0
H348 H 0.12578 0.86564 0.62501 0.0
H349 H 0.10247 0.80997 0.52851 0.0
H350 H 0.17401 0.87529 0.52826 0.0
H351 H 0.17116 0.88917 0.55259 0.0
H352 H 0.11147 0.80024 0.56295 0.0
H353 H 0.08295 0.78434 0.55123 0.0
H354 H 0.0834 0.79101 0.57072 0.0
H355 H 0.07598 0.83779 0.5445 0.0
H356 H 0.05794 0.8192 0.55769 0.0
H357 H 0.06261 0.80511 0.54138 0.0
H358 H 0.01488 0.76914 0.58664 0.0
C359 C 0.05065 0.7995 0.58392 0.0
C360 C 0.93018 0.53028 0.72262 0.0
C361 C 0.92982 0.55037 0.72985 0.0
C362 C 0.93728 0.55622 0.7451 0.0
C363 C 0.9433 0.52122 0.74578 0.0
C364 C 0.93666 0.51589 0.73078 0.0
C365 C 0.93571 0.49265 0.72497 0.0
H366 H 0.9333 0.38804 0.73932 0.0
C367 C 0.94694 0.50152 0.75116 0.0
C368 C 0.94242 0.48466 0.73902 0.0
H369 H 0.92462 0.41122 0.69675 0.0
H370 H 0.93356 0.45032 0.70842 0.0
H371 H 0.98254 0.439 0.75042 0.0
H372 H 0.90597 0.40967 0.75731 0.0
H373 H 0.92335 0.42363 0.77437 0.0
H374 H 0.92476 0.39835 0.76526 0.0
H375 H 0.96802 0.41715 0.76349 0.0
H376 H 0.98219 0.44976 0.76849 0.0
C377 C 0.95552 0.49916 0.71393 0.0
C378 C 0.90889 0.47438 0.7183 0.0
C379 C 0.96889 0.50261 0.80578 0.0
C380 C 0.97141 0.48573 0.81406 0.0
C381 C 0.96785 0.46375 0.80681 0.0
C382 C 0.96192 0.45863 0.79155 0.0
C383 C 0.95932 0.47557 0.78342 0.0
C384 C 0.96272 0.49711 0.79052 0.0
C385 C 0.95829 0.51247 0.78011 0.0
C386 C 0.95253 0.49697 0.76552 0.0
C387 C 0.95309 0.47538 0.76758 0.0
C388 C 0.98248 0.53742 0.78039 0.0
C389 C 0.93577 0.51442 0.78464 0.0
C390 C 0.93368 0.40158 0.73241 0.0
C391 C 0.92774 0.39618 0.71706 0.0
C392 C 0.92841 0.41452 0.70862 0.0
C393 C 0.93372 0.4373 0.71541 0.0
C394 C 0.93845 0.44189 0.73081 0.0
C395 C 0.93916 0.42449 0.73899 0.0
C396 C 0.94577 0.43303 0.75514 0.0
C397 C 0.94807 0.45813 0.75536 0.0
C398 C 0.94336 0.46304 0.74112 0.0
C399 C 0.97082 0.43472 0.75976 0.0
C400 C 0.92401 0.41527 0.76358 0.0
H401 H 0.94925 0.54704 0.76467 0.0
H402 H 0.92498 0.52546 0.71089 0.0
H403 H 0.89534 0.47498 0.72544 0.0
H404 H 0.90442 0.4551 0.7174 0.0
H405 H 0.90527 0.47899 0.70722 0.0
H406 H 0.97148 0.51803 0.71682 0.0
H407 H 0.94779 0.49832 0.70253 0.0
H408 H 0.96369 0.48715 0.71407 0.0
H409 H 0.97119 0.5195 0.81111 0.0
H410 H 0.9699 0.4506 0.81297 0.0
H411 H 0.95945 0.44159 0.78671 0.0
H412 H 0.99873 0.53472 0.78036 0.0
H413 H 0.98516 0.54954 0.79046 0.0
H414 H 0.98314 0.54719 0.77063 0.0
H415 H 0.92293 0.49824 0.79023 0.0
H416 H 0.92422 0.51453 0.77507 0.0
H417 H 0.94171 0.53103 0.79235 0.0
H418 H 0.93697 0.57139 0.75104 0.0
C419 C 0.94415 0.54186 0.75307 0.0
C420 C 0.63003 0.513 0.73379 0.0
C421 C 0.6502 0.53551 0.73996 0.0
C422 C 0.64929 0.54458 0.7543 0.0
C423 C 0.60864 0.50921 0.75575 0.0
C424 C 0.6098 0.50019 0.74185 0.0
C425 C 0.58759 0.47565 0.73688 0.0
H426 H 0.47557 0.38273 0.74901 0.0
C427 C 0.58473 0.49136 0.76095 0.0
C428 C 0.5725 0.47163 0.7499 0.0
H429 H 0.51849 0.38752 0.71263 0.0
H430 H 0.55086 0.42768 0.72295 0.0
H431 H 0.51915 0.40109 0.77315 0.0
H432 H 0.48828 0.43986 0.7516 0.0
H433 H 0.49459 0.45085 0.77035 0.0
H434 H 0.47299 0.41881 0.76497 0.0
H435 H 0.49117 0.39955 0.77816 0.0
H436 H 0.52113 0.42303 0.78664 0.0
C437 C 0.59625 0.45656 0.73492 0.0
C438 C 0.57452 0.47823 0.72275 0.0
C439 C 0.559 0.50803 0.81052 0.0
C440 C 0.53743 0.49464 0.81768 0.0
C441 C 0.51832 0.47208 0.81064 0.0
C442 C 0.52043 0.46306 0.7968 0.0
C443 C 0.54194 0.47656 0.78979 0.0
C444 C 0.56081 0.49867 0.79659 0.0
C445 C 0.58228 0.51027 0.7873 0.0
C446 C 0.57311 0.49137 0.77393 0.0
C447 C 0.54945 0.47169 0.77554 0.0
C448 C 0.60532 0.51244 0.79597 0.0
C449 C 0.5854 0.53506 0.78327 0.0
C450 C 0.49188 0.39266 0.74324 0.0
C451 C 0.4946 0.38223 0.72999 0.0
C452 C 0.51618 0.39532 0.72289 0.0
C453 C 0.53492 0.41858 0.72892 0.0
C454 C 0.53221 0.4287 0.74232 0.0
C455 C 0.51101 0.41573 0.74928 0.0
C456 C 0.51196 0.42879 0.76381 0.0
C457 C 0.53723 0.45174 0.7644 0.0
C458 C 0.54881 0.45167 0.75172 0.0
C459 C 0.51062 0.41236 0.77615 0.0
C460 C 0.49082 0.43483 0.76279 0.0
H461 H 0.62905 0.53949 0.773 0.0
H462 H 0.62969 0.50546 0.72278 0.0
H463 H 0.57415 0.49568 0.72381 0.0
H464 H 0.555 0.46361 0.72053 0.0
H465 H 0.58434 0.47837 0.71296 0.0
H466 H 0.61383 0.46242 0.74181 0.0
H467 H 0.59943 0.45387 0.72329 0.0
H468 H 0.58303 0.43859 0.73859 0.0
H469 H 0.57401 0.52545 0.81559 0.0
H470 H 0.50176 0.46106 0.81597 0.0
H471 H 0.5052 0.44577 0.79215 0.0
H472 H 0.60014 0.49616 0.80219 0.0
H473 H 0.61435 0.529 0.80404 0.0
H474 H 0.61907 0.51292 0.78874 0.0
H475 H 0.56707 0.53326 0.78028 0.0
H476 H 0.59583 0.54168 0.77361 0.0
H477 H 0.59474 0.54939 0.79273 0.0
H478 H 0.66464 0.56161 0.75954 0.0
C479 C 0.62863 0.53162 0.76218 0.0
C480 C 0.62719 0.11674 0.73625 0.0
C481 C 0.64702 0.11429 0.74213 0.0
C482 C 0.6455 0.10536 0.75613 0.0
C483 C 0.60534 0.10197 0.75799 0.0
C484 C 0.6069 0.11079 0.74434 0.0
C485 C 0.58511 0.11358 0.73975 0.0
H486 H 0.47611 0.10423 0.75393 0.0
C487 C 0.58179 0.09784 0.76349 0.0
C488 C 0.57005 0.10485 0.75282 0.0
H489 H 0.51696 0.13136 0.71611 0.0
H490 H 0.54851 0.12359 0.72608 0.0
H491 H 0.48517 0.05783 0.7558 0.0
H492 H 0.52204 0.13098 0.77768 0.0
H493 H 0.52174 0.11172 0.79088 0.0
H494 H 0.49284 0.10738 0.78256 0.0
H495 H 0.47188 0.06748 0.76975 0.0
H496 H 0.49206 0.05562 0.77436 0.0
C497 C 0.57149 0.09633 0.72549 0.0
C498 C 0.59464 0.14115 0.73818 0.0
C499 C 0.55537 0.06177 0.81256 0.0
C500 C 0.5343 0.05588 0.82011 0.0
C501 C 0.51637 0.06091 0.81386 0.0
C502 C 0.51894 0.07101 0.80038 0.0
C503 C 0.53977 0.07641 0.79289 0.0
C504 C 0.55769 0.07198 0.799 0.0
C505 C 0.57877 0.07941 0.78943 0.0
C506 C 0.57026 0.0886 0.77654 0.0
C507 C 0.54735 0.08676 0.77869 0.0
C508 C 0.58023 0.05632 0.78461 0.0
C509 C 0.60259 0.10022 0.79822 0.0
C510 C 0.49177 0.10829 0.74775 0.0
C511 C 0.49406 0.11854 0.73423 0.0
C512 C 0.51489 0.1238 0.72664 0.0
C513 C 0.53319 0.11918 0.73243 0.0
C514 C 0.53084 0.10926 0.74604 0.0
C515 C 0.51037 0.10394 0.75346 0.0
C516 C 0.51125 0.09381 0.76788 0.0
C517 C 0.53566 0.09405 0.76791 0.0
C518 C 0.54697 0.10304 0.75507 0.0
C519 C 0.4889 0.06736 0.76707 0.0
C520 C 0.51182 0.11167 0.78048 0.0
H521 H 0.62486 0.09254 0.7746 0.0
H522 H 0.62727 0.12312 0.72549 0.0
H523 H 0.61149 0.1531 0.74584 0.0
H524 H 0.58128 0.14688 0.74117 0.0
H525 H 0.59949 0.14572 0.72682 0.0
H526 H 0.57138 0.07869 0.72593 0.0
H527 H 0.58069 0.10481 0.71563 0.0
H528 H 0.55182 0.09106 0.72384 0.0
H529 H 0.56955 0.0582 0.81696 0.0
H530 H 0.50029 0.05727 0.81951 0.0
H531 H 0.50454 0.07426 0.79632 0.0
H532 H 0.56141 0.04038 0.78139 0.0
H533 H 0.58892 0.05141 0.79374 0.0
H534 H 0.59054 0.05846 0.77488 0.0
H535 H 0.59848 0.11265 0.80508 0.0
H536 H 0.61641 0.11221 0.79105 0.0
H537 H 0.61116 0.09267 0.80571 0.0
H538 H 0.6605 0.10357 0.76116 0.0
C539 C 0.62481 0.09914 0.76403 0.0
C540 C 0.8304 0.54524 0.9383 0.0
C541 C 0.85289 0.55004 0.93298 0.0
C542 C 0.85912 0.561 0.91965 0.0
C543 C 0.82091 0.56219 0.91729 0.0
C544 C 0.81487 0.55153 0.93036 0.0
C545 C 0.79063 0.54809 0.93472 0.0
H546 H 0.69273 0.56485 0.92281 0.0
C547 C 0.80084 0.56668 0.91192 0.0
C548 C 0.78311 0.55853 0.92214 0.0
H549 H 0.70813 0.52915 0.95766 0.0
H550 H 0.74504 0.53606 0.94732 0.0
H551 H 0.7493 0.60884 0.92084 0.0
H552 H 0.7069 0.53705 0.89687 0.0
H553 H 0.72349 0.5583 0.88443 0.0
H554 H 0.70043 0.56124 0.89387 0.0
H555 H 0.72317 0.60071 0.90787 0.0
H556 H 0.75358 0.61148 0.90199 0.0
C557 C 0.79576 0.5636 0.94963 0.0
C558 C 0.77252 0.5202 0.93499 0.0
C559 C 0.80542 0.60428 0.8635 0.0
C560 C 0.79007 0.61106 0.85567 0.0
C561 C 0.76852 0.60768 0.86186 0.0
C562 C 0.76233 0.59764 0.8754 0.0
C563 C 0.7778 0.59083 0.88298 0.0
C564 C 0.79901 0.59433 0.87702 0.0
C565 C 0.81353 0.58643 0.88667 0.0
C566 C 0.79734 0.57714 0.89925 0.0
C567 C 0.77636 0.57973 0.89708 0.0
C568 C 0.83899 0.60932 0.89186 0.0
C569 C 0.81498 0.56555 0.87786 0.0
C570 C 0.70395 0.55839 0.92819 0.0
C571 C 0.69748 0.54691 0.94138 0.0
C572 C 0.71281 0.53879 0.94785 0.0
C573 C 0.73429 0.54261 0.94172 0.0
C574 C 0.74072 0.55448 0.9288 0.0
C575 C 0.7255 0.56182 0.92208 0.0
C576 C 0.73493 0.5731 0.90798 0.0
C577 C 0.75853 0.57175 0.90759 0.0
C578 C 0.76183 0.56098 0.91993 0.0
C579 C 0.74045 0.59992 0.90961 0.0
C580 C 0.71547 0.5568 0.89504 0.0
H581 H 0.84906 0.5752 0.90169 0.0
H582 H 0.82515 0.53714 0.94859 0.0
H583 H 0.77685 0.50916 0.92705 0.0
H584 H 0.75316 0.51482 0.93151 0.0
H585 H 0.7735 0.51423 0.94609 0.0
H586 H 0.81325 0.58148 0.94994 0.0
H587 H 0.79765 0.55393 0.95898 0.0
H588 H 0.78145 0.56846 0.95161 0.0
H589 H 0.82197 0.6063 0.85912 0.0
H590 H 0.7565 0.61307 0.8563 0.0
H591 H 0.74576 0.59566 0.87948 0.0
H592 H 0.83747 0.62615 0.8932 0.0
H593 H 0.85261 0.6124 0.88377 0.0
H594 H 0.8466 0.60822 0.90281 0.0
H595 H 0.79706 0.55287 0.87129 0.0
H596 H 0.81855 0.55388 0.88497 0.0
H597 H 0.82947 0.57303 0.87009 0.0
H598 H 0.87618 0.56468 0.91521 0.0
C599 C 0.84328 0.56702 0.91178 0.0
C600 C 0.41374 0.13997 0.95587 0.0
C601 C 0.41204 0.11895 0.94852 0.0
C602 C 0.40156 0.11178 0.93378 0.0
C603 C 0.39645 0.14737 0.93363 0.0
C604 C 0.40584 0.15382 0.94826 0.0
C605 C 0.40708 0.17707 0.95434 0.0
H606 H 0.40281 0.27888 0.94142 0.0
C607 C 0.39148 0.16651 0.9287 0.0
C608 C 0.39747 0.18385 0.94083 0.0
H609 H 0.41954 0.25855 0.9832 0.0
H610 H 0.41028 0.2194 0.97145 0.0
H611 H 0.42835 0.25692 0.92114 0.0
H612 H 0.35393 0.22796 0.93262 0.0
H613 H 0.35127 0.21506 0.91461 0.0
H614 H 0.36533 0.24795 0.91827 0.0
H615 H 0.40842 0.26825 0.91518 0.0
H616 H 0.40823 0.24297 0.90493 0.0
C617 C 0.43452 0.19608 0.95932 0.0
C618 C 0.3896 0.17096 0.96678 0.0
C619 C 0.36509 0.1644 0.87472 0.0
C620 C 0.36055 0.18047 0.8668 0.0
C621 C 0.36235 0.20141 0.87446 0.0
C622 C 0.36904 0.20655 0.88966 0.0
C623 C 0.37406 0.19065 0.89735 0.0
C624 C 0.37174 0.16981 0.88993 0.0
C625 C 0.37763 0.15495 0.89999 0.0
C626 C 0.38377 0.17031 0.91466 0.0
C627 C 0.3819 0.1913 0.91298 0.0
C628 C 0.40036 0.15419 0.89474 0.0
C629 C 0.35415 0.12944 0.89999 0.0
C630 C 0.40414 0.26594 0.94816 0.0
C631 C 0.41238 0.27217 0.96326 0.0
C632 C 0.41391 0.25461 0.97148 0.0
C633 C 0.40839 0.23179 0.96465 0.0
C634 C 0.40123 0.22636 0.94944 0.0
C635 C 0.39849 0.24301 0.94156 0.0
C636 C 0.38958 0.23366 0.92564 0.0
C637 C 0.38811 0.20891 0.92519 0.0
C638 C 0.39536 0.20494 0.9391 0.0
C639 C 0.4095 0.25133 0.91611 0.0
C640 C 0.36378 0.23112 0.92249 0.0
H641 H 0.3863 0.1197 0.91502 0.0
H642 H 0.42131 0.14566 0.96728 0.0
H643 H 0.37419 0.15159 0.9651 0.0
H644 H 0.38036 0.18201 0.96706 0.0
H645 H 0.39967 0.17356 0.97773 0.0
H646 H 0.44667 0.19572 0.95099 0.0
H647 H 0.44055 0.192 0.96994 0.0
H648 H 0.43835 0.21515 0.96054 0.0
H649 H 0.36403 0.14823 0.86917 0.0
H650 H 0.35848 0.21384 0.8687 0.0
H651 H 0.37026 0.22286 0.8948 0.0
H652 H 0.41397 0.17222 0.89113 0.0
H653 H 0.39482 0.1401 0.88525 0.0
H654 H 0.41075 0.15069 0.90348 0.0
H655 H 0.33713 0.13081 0.89867 0.0
H656 H 0.3531 0.12126 0.9105 0.0
H657 H 0.35299 0.1165 0.8908 0.0
H658 H 0.40012 0.09567 0.92788 0.0
C659 C 0.39373 0.12586 0.9263 0.0
C660 C 0.71773 0.14555 0.94567 0.0
C661 C 0.69763 0.12319 0.93936 0.0
C662 C 0.698 0.1146 0.92482 0.0
C663 C 0.73782 0.15079 0.92304 0.0
C664 C 0.73738 0.15908 0.93731 0.0
C665 C 0.75929 0.18395 0.94212 0.0
H666 H 0.86311 0.28386 0.92582 0.0
C667 C 0.76048 0.16978 0.91725 0.0
C668 C 0.77296 0.18932 0.92839 0.0
H669 H 0.82939 0.27151 0.96686 0.0
H670 H 0.79773 0.23096 0.95676 0.0
H671 H 0.85847 0.23198 0.9212 0.0
H672 H 0.81283 0.25977 0.90436 0.0
H673 H 0.81465 0.24163 0.88972 0.0
H674 H 0.84251 0.26822 0.89821 0.0
H675 H 0.86637 0.25061 0.90608 0.0
H676 H 0.84726 0.21762 0.90325 0.0
C677 C 0.77428 0.18143 0.95531 0.0
C678 C 0.7497 0.20195 0.94551 0.0
C679 C 0.78213 0.15658 0.86565 0.0
C680 C 0.80212 0.17141 0.85765 0.0
C681 C 0.8199 0.19512 0.864 0.0
C682 C 0.8183 0.20374 0.87809 0.0
C683 C 0.79862 0.18864 0.88605 0.0
C684 C 0.78079 0.16556 0.87982 0.0
C685 C 0.76099 0.15246 0.88999 0.0
C686 C 0.77041 0.17122 0.90344 0.0
C687 C 0.79242 0.19236 0.90097 0.0
C688 C 0.76078 0.12865 0.89344 0.0
C689 C 0.73616 0.14821 0.88256 0.0
C690 C 0.84877 0.27244 0.93257 0.0
C691 C 0.84861 0.28089 0.94711 0.0
C692 C 0.82996 0.26532 0.95565 0.0
C693 C 0.81152 0.24182 0.94974 0.0
C694 C 0.81173 0.23372 0.93512 0.0
C695 C 0.83032 0.24885 0.92686 0.0
C696 C 0.82807 0.23686 0.91172 0.0
C697 C 0.80477 0.21223 0.91214 0.0
C698 C 0.79521 0.21059 0.92582 0.0
C699 C 0.85123 0.23419 0.91033 0.0
C700 C 0.82449 0.25237 0.90031 0.0
H701 H 0.71725 0.12074 0.90566 0.0
H702 H 0.71778 0.15282 0.95671 0.0
H703 H 0.73326 0.1974 0.93783 0.0
H704 H 0.76324 0.22114 0.94397 0.0
H705 H 0.74417 0.20107 0.9569 0.0
H706 H 0.77344 0.16338 0.95415 0.0
H707 H 0.76692 0.18283 0.96588 0.0
H708 H 0.7942 0.19513 0.95605 0.0
H709 H 0.76809 0.13831 0.86111 0.0
H710 H 0.83509 0.20724 0.85799 0.0
H711 H 0.83253 0.22191 0.88221 0.0
H712 H 0.77999 0.13222 0.89565 0.0
H713 H 0.7516 0.11429 0.88399 0.0
H714 H 0.75158 0.12115 0.90338 0.0
H715 H 0.73915 0.1635 0.87588 0.0
H716 H 0.72348 0.14783 0.8906 0.0
H717 H 0.72671 0.13093 0.87509 0.0
H718 H 0.68273 0.09733 0.91977 0.0
C719 C 0.71804 0.12821 0.91666 0.0
C720 C 0.59038 0.85576 0.05659 0.0
C721 C 0.59355 0.8778 0.0633 0.0
C722 C 0.60575 0.88649 0.07761 0.0
C723 C 0.60943 0.85014 0.07877 0.0
C724 C 0.59861 0.84239 0.06444 0.0
C725 C 0.59645 0.81848 0.0589 0.0
H726 H 0.60106 0.71745 0.07361 0.0
C727 C 0.61429 0.83113 0.08411 0.0
C728 C 0.60706 0.81274 0.07243 0.0
H729 H 0.58055 0.73466 0.03179 0.0
H730 H 0.59103 0.77467 0.0427 0.0
H731 H 0.65041 0.76881 0.08098 0.0
H732 H 0.57694 0.74111 0.09391 0.0
H733 H 0.59783 0.75616 0.10969 0.0
H734 H 0.59713 0.73017 0.10003 0.0
H735 H 0.63965 0.74942 0.09566 0.0
H736 H 0.65404 0.78239 0.09894 0.0
C737 C 0.61263 0.82302 0.04588 0.0
C738 C 0.56865 0.79956 0.05494 0.0
C739 C 0.64161 0.83559 0.13829 0.0
C740 C 0.64574 0.81957 0.14654 0.0
C741 C 0.64403 0.79846 0.13917 0.0
C742 C 0.63749 0.79291 0.12397 0.0
C743 C 0.63249 0.80855 0.11598 0.0
C744 C 0.63505 0.82973 0.12306 0.0
C745 C 0.62938 0.84433 0.11264 0.0
C746 C 0.62265 0.82817 0.09822 0.0
C747 C 0.62426 0.80713 0.10033 0.0
C748 C 0.65311 0.86949 0.11218 0.0
C749 C 0.6071 0.84602 0.11782 0.0
C750 C 0.59916 0.72992 0.06671 0.0
C751 C 0.58956 0.72263 0.05184 0.0
C752 C 0.58731 0.73952 0.04335 0.0
C753 C 0.59353 0.76283 0.04969 0.0
C754 C 0.60209 0.76942 0.0647 0.0
C755 C 0.60539 0.75332 0.07285 0.0
C756 C 0.61533 0.76374 0.08854 0.0
C757 C 0.61706 0.7886 0.08851 0.0
C758 C 0.60891 0.79162 0.07458 0.0
C759 C 0.64112 0.76612 0.09132 0.0
C760 C 0.59601 0.74697 0.09868 0.0
H761 H 0.62239 0.87997 0.09638 0.0
H762 H 0.58143 0.84896 0.04549 0.0
H763 H 0.55744 0.80117 0.06351 0.0
H764 H 0.56443 0.78037 0.05438 0.0
H765 H 0.56182 0.80266 0.04424 0.0
H766 H 0.6281 0.84234 0.04668 0.0
H767 H 0.6016 0.8193 0.03513 0.0
H768 H 0.62179 0.81188 0.04576 0.0
H769 H 0.64277 0.85195 0.1436 0.0
H770 H 0.64771 0.78613 0.14518 0.0
H771 H 0.63625 0.77645 0.11908 0.0
H772 H 0.67 0.86801 0.11409 0.0
H773 H 0.65427 0.88329 0.12078 0.0
H774 H 0.65448 0.87665 0.10129 0.0
H775 H 0.59268 0.82795 0.12094 0.0
H776 H 0.59774 0.85092 0.10922 0.0
H777 H 0.6129 0.85961 0.12761 0.0
H778 H 0.6084 0.90353 0.08291 0.0
C779 C 0.61368 0.87273 0.0854 0.0
C780 C 0.29081 0.84847 0.0617 0.0
C781 C 0.31253 0.86924 0.06815 0.0
C782 C 0.31434 0.87671 0.08323 0.0
C783 C 0.27317 0.84256 0.0852 0.0
C784 C 0.27163 0.8353 0.07041 0.0
C785 C 0.2482 0.81173 0.06542 0.0
H786 H 0.14601 0.7118 0.08274 0.0
C787 C 0.25045 0.82409 0.0912 0.0
C788 C 0.23596 0.80586 0.07966 0.0
H789 H 0.17225 0.72895 0.03968 0.0
H790 H 0.20543 0.76822 0.05018 0.0
H791 H 0.19748 0.73386 0.10161 0.0
H792 H 0.15158 0.76442 0.09049 0.0
H793 H 0.16526 0.77732 0.10839 0.0
H794 H 0.14525 0.74451 0.10488 0.0
H795 H 0.16876 0.72506 0.10926 0.0
H796 H 0.19747 0.75071 0.11762 0.0
C797 C 0.25531 0.79252 0.06005 0.0
C798 C 0.23315 0.81699 0.05359 0.0
C799 C 0.2348 0.83499 0.14465 0.0
C800 C 0.21594 0.81971 0.15316 0.0
C801 C 0.19718 0.79651 0.14679 0.0
C802 C 0.19685 0.78868 0.13211 0.0
C803 C 0.2156 0.8041 0.12366 0.0
C804 C 0.2344 0.82669 0.12997 0.0
C805 C 0.25346 0.8398 0.11939 0.0
C806 C 0.24212 0.82197 0.10552 0.0
C807 C 0.21995 0.80115 0.10816 0.0
C808 C 0.27823 0.84221 0.12552 0.0
C809 C 0.25496 0.86459 0.11723 0.0
C810 C 0.15866 0.72403 0.07548 0.0
C811 C 0.15665 0.71677 0.06035 0.0
C812 C 0.1737 0.73354 0.05143 0.0
C813 C 0.19293 0.7565 0.05753 0.0
C814 C 0.1952 0.76301 0.07273 0.0
C815 C 0.17781 0.7472 0.08135 0.0
C816 C 0.18224 0.75794 0.0971 0.0
C817 C 0.20572 0.7824 0.09659 0.0
C818 C 0.2134 0.78506 0.08236 0.0
C819 C 0.18657 0.74105 0.10703 0.0
C820 C 0.15996 0.76113 0.10054 0.0
H821 H 0.297 0.87019 0.10316 0.0
H822 H 0.2891 0.84212 0.05019 0.0
H823 H 0.23684 0.83615 0.0554 0.0
H824 H 0.21296 0.80542 0.05396 0.0
H825 H 0.23794 0.81448 0.04234 0.0
H826 H 0.27098 0.79419 0.06737 0.0
H827 H 0.26113 0.79518 0.04871 0.0
H828 H 0.24037 0.7734 0.06025 0.0
H829 H 0.24963 0.85277 0.14939 0.0
H830 H 0.18247 0.78453 0.15315 0.0
H831 H 0.18195 0.77088 0.12792 0.0
H832 H 0.2751 0.82719 0.13247 0.0
H833 H 0.28991 0.85988 0.13243 0.0
H834 H 0.28888 0.84054 0.11671 0.0
H835 H 0.23609 0.862 0.11522 0.0
H836 H 0.26476 0.87309 0.10764 0.0
H837 H 0.26437 0.87779 0.12718 0.0
H838 H 0.33094 0.89277 0.08838 0.0
C839 C 0.29467 0.8636 0.09177 0.0
C840 C 0.29329 0.45158 0.07129 0.0
C841 C 0.31257 0.44813 0.07698 0.0
C842 C 0.31068 0.43862 0.09081 0.0
C843 C 0.27107 0.43638 0.09288 0.0
C844 C 0.27294 0.44566 0.07935 0.0
C845 C 0.25113 0.44842 0.07472 0.0
H846 H 0.14252 0.44005 0.08918 0.0
C847 C 0.24759 0.43245 0.09841 0.0
C848 C 0.23595 0.4396 0.08775 0.0
H849 H 0.18066 0.46238 0.04998 0.0
H850 H 0.21304 0.45598 0.0603 0.0
H851 H 0.15046 0.39432 0.09187 0.0
H852 H 0.19058 0.46822 0.11261 0.0
H853 H 0.18937 0.44906 0.12613 0.0
H854 H 0.16099 0.44583 0.11775 0.0
H855 H 0.13888 0.40501 0.10635 0.0
H856 H 0.15869 0.39245 0.11023 0.0
C857 C 0.23763 0.4313 0.06038 0.0
C858 C 0.26063 0.47597 0.07324 0.0
C859 C 0.22129 0.39711 0.14773 0.0
C860 C 0.20053 0.39192 0.15545 0.0
C861 C 0.18315 0.39787 0.14942 0.0
C862 C 0.18587 0.40804 0.13594 0.0
C863 C 0.20627 0.41258 0.12824 0.0
C864 C 0.22377 0.40743 0.13419 0.0
C865 C 0.24454 0.41418 0.12444 0.0
C866 C 0.23624 0.42363 0.11158 0.0
C867 C 0.21373 0.42255 0.11392 0.0
C868 C 0.2452 0.39066 0.11959 0.0
C869 C 0.26875 0.43464 0.13307 0.0
C870 C 0.15798 0.44374 0.0829 0.0
C871 C 0.15905 0.45179 0.06875 0.0
C872 C 0.17928 0.45599 0.06084 0.0
C873 C 0.19813 0.45233 0.06688 0.0
C874 C 0.19678 0.44418 0.081 0.0
C875 C 0.17685 0.43988 0.08872 0.0
C876 C 0.17807 0.43038 0.10332 0.0
C877 C 0.20211 0.42992 0.10314 0.0
C878 C 0.21306 0.4382 0.0901 0.0
C879 C 0.15534 0.40426 0.1031 0.0
C880 C 0.17966 0.44913 0.11568 0.0
H881 H 0.28977 0.42548 0.10913 0.0
H882 H 0.29413 0.45912 0.06084 0.0
H883 H 0.27553 0.48767 0.08214 0.0
H884 H 0.24629 0.48106 0.07443 0.0
H885 H 0.26835 0.48126 0.06252 0.0
H886 H 0.23956 0.41468 0.06003 0.0
H887 H 0.2453 0.44078 0.05046 0.0
H888 H 0.21746 0.42403 0.05948 0.0
H889 H 0.23507 0.39288 0.15198 0.0
H890 H 0.16739 0.39486 0.1552 0.0
H891 H 0.17185 0.41195 0.13205 0.0
H892 H 0.22613 0.37493 0.11672 0.0
H893 H 0.25411 0.38571 0.12858 0.0
H894 H 0.25486 0.39226 0.10962 0.0
H895 H 0.26525 0.44769 0.13978 0.0
H896 H 0.28276 0.44604 0.12582 0.0
H897 H 0.27683 0.42682 0.1407 0.0
H898 H 0.32501 0.43542 0.09543 0.0
C899 C 0.29011 0.43273 0.09875 0.0
C900 C 0.49705 0.87953 0.27281 0.0
C901 C 0.51745 0.88038 0.26646 0.0
C902 C 0.52129 0.88715 0.25192 0.0
C903 C 0.4855 0.89257 0.25067 0.0
C904 C 0.48128 0.88531 0.2647 0.0
C905 C 0.45808 0.88381 0.2696 0.0
H906 H 0.36008 0.90016 0.25701 0.0
C907 C 0.46579 0.89761 0.2454 0.0
C908 C 0.44953 0.89224 0.25639 0.0
H909 H 0.37757 0.8687 0.29353 0.0
H910 H 0.41416 0.87489 0.2831 0.0
H911 H 0.4166 0.94364 0.25403 0.0
H912 H 0.37345 0.87059 0.23172 0.0
H913 H 0.3886 0.8914 0.2187 0.0
H914 H 0.36618 0.89429 0.22884 0.0
H915 H 0.39093 0.93535 0.24067 0.0
H916 H 0.42144 0.945 0.23524 0.0
C917 C 0.4653 0.90202 0.28354 0.0
C918 C 0.43963 0.85665 0.27187 0.0
C919 C 0.46939 0.93228 0.1961 0.0
C920 C 0.45492 0.94029 0.1885 0.0
C921 C 0.43414 0.93843 0.19497 0.0
C922 C 0.42801 0.92891 0.20866 0.0
C923 C 0.44279 0.92114 0.21609 0.0
C924 C 0.46314 0.923 0.20978 0.0
C925 C 0.47708 0.91433 0.21928 0.0
C926 C 0.46182 0.90697 0.23236 0.0
C927 C 0.44161 0.91086 0.23045 0.0
C928 C 0.50345 0.93633 0.22364 0.0
C929 C 0.4763 0.89199 0.21073 0.0
C930 C 0.37165 0.89441 0.26273 0.0
C931 C 0.3658 0.88425 0.27635 0.0
C932 C 0.3817 0.87722 0.28331 0.0
C933 C 0.40294 0.88053 0.27712 0.0
C934 C 0.40851 0.89068 0.26362 0.0
C935 C 0.39295 0.89729 0.25655 0.0
C936 C 0.40171 0.90711 0.24201 0.0
C937 C 0.42485 0.90496 0.24152 0.0
C938 C 0.42877 0.89555 0.25433 0.0
C939 C 0.40789 0.93416 0.24288 0.0
C940 C 0.38147 0.89016 0.22958 0.0
H941 H 0.50962 0.89837 0.23311 0.0
H942 H 0.49333 0.87463 0.28392 0.0
H943 H 0.44366 0.84375 0.26544 0.0
H944 H 0.42035 0.85097 0.26787 0.0
H945 H 0.44039 0.85325 0.28364 0.0
H946 H 0.48227 0.91968 0.28221 0.0
H947 H 0.46914 0.8945 0.29341 0.0
H948 H 0.45107 0.90689 0.28577 0.0
H949 H 0.48524 0.93298 0.19146 0.0
H950 H 0.42278 0.94472 0.18956 0.0
H951 H 0.41206 0.9281 0.21297 0.0
H952 H 0.50286 0.95345 0.22626 0.0
H953 H 0.51534 0.93944 0.21449 0.0
H954 H 0.51264 0.93421 0.23363 0.0
H955 H 0.45879 0.88116 0.20341 0.0
H956 H 0.47658 0.87878 0.21807 0.0
H957 H 0.49185 0.89792 0.20371 0.0
H958 H 0.53626 0.88737 0.24644 0.0
C959 C 0.50558 0.89335 0.24407 0.0
C960 C 0.08908 0.47836 0.2854 0.0
C961 C 0.08617 0.45676 0.27809 0.0
C962 C 0.07392 0.44899 0.26372 0.0
C963 C 0.06859 0.48451 0.2641 0.0
C964 C 0.08011 0.49176 0.27828 0.0
C965 C 0.08203 0.51518 0.28458 0.0
H966 H 0.0665 0.61203 0.27541 0.0
C967 C 0.06222 0.50306 0.25979 0.0
C968 C 0.06988 0.52092 0.27182 0.0
H969 H 0.0996 0.59807 0.31372 0.0
H970 H 0.09013 0.55895 0.30172 0.0
H971 H 0.09094 0.59543 0.25264 0.0
H972 H 0.01911 0.5555 0.2683 0.0
H973 H 0.0154 0.54789 0.24916 0.0
H974 H 0.02696 0.57933 0.25628 0.0
H975 H 0.06598 0.60013 0.24666 0.0
H976 H 0.07059 0.57693 0.23738 0.0
C977 C 0.10986 0.53465 0.28789 0.0
C978 C 0.06696 0.50961 0.29818 0.0
C979 C 0.02552 0.49748 0.20765 0.0
C980 C 0.01925 0.51295 0.20032 0.0
C981 C 0.02158 0.53387 0.20835 0.0
C982 C 0.03035 0.53952 0.22329 0.0
C983 C 0.03714 0.52426 0.23034 0.0
C984 C 0.03446 0.50351 0.22258 0.0
C985 C 0.04291 0.48963 0.2319 0.0
C986 C 0.05136 0.50567 0.24644 0.0
C987 C 0.04796 0.52594 0.24542 0.0
C988 C 0.06463 0.48917 0.22486 0.0
C989 C 0.0204 0.46394 0.2332 0.0
C990 C 0.07123 0.60027 0.28129 0.0
C991 C 0.08378 0.60802 0.2955 0.0
C992 C 0.09009 0.59248 0.30271 0.0
C993 C 0.08456 0.56979 0.29572 0.0
C994 C 0.07284 0.56267 0.28129 0.0
C995 C 0.06609 0.57766 0.27438 0.0
C996 C 0.05457 0.56747 0.25887 0.0
C997 C 0.05555 0.54389 0.25763 0.0
C998 C 0.06631 0.54127 0.27077 0.0
C999 C 0.07113 0.58587 0.24825 0.0
C1000 C 0.02763 0.56237 0.25795 0.0
H1001 H 0.05606 0.45594 0.24575 0.0
H1002 H 0.09865 0.48509 0.29636 0.0
H1003 H 0.05049 0.49083 0.2966 0.0
H1004 H 0.05935 0.52189 0.30011 0.0
H1005 H 0.07829 0.51071 0.3083 0.0
H1006 H 0.121 0.53202 0.27967 0.0
H1007 H 0.11719 0.53338 0.29896 0.0
H1008 H 0.11374 0.55361 0.28712 0.0
H1009 H 0.02365 0.48108 0.20189 0.0
H1010 H 0.01726 0.54634 0.20299 0.0
H1011 H 0.03193 0.55584 0.2287 0.0
H1012 H 0.07706 0.50715 0.22073 0.0
H1013 H 0.05776 0.47487 0.21538 0.0
H1014 H 0.07662 0.48613 0.23272 0.0
H1015 H 1.00312 0.46482 0.23347 0.0
H1016 H 0.0219 0.45629 0.24354 0.0
H1017 H 0.01771 0.4508 0.22369 0.0
H1018 H 0.07103 0.4322 0.25791 0.0
C1019 C 0.06511 0.46273 0.2567 0.0
C1020 C 0.38177 0.47655 0.27808 0.0
C1021 C 0.36422 0.45225 0.27273 0.0
C1022 C 0.36714 0.44263 0.25912 0.0
C1023 C 0.40403 0.48139 0.25642 0.0
C1024 C 0.40145 0.49055 0.2699 0.0
C1025 C 0.42174 0.51642 0.27436 0.0
H1026 H 0.52808 0.61572 0.2604 0.0
C1027 C 0.42632 0.50103 0.25067 0.0
C1028 C 0.43684 0.52147 0.26127 0.0
H1029 H 0.48666 0.60689 0.29807 0.0
H1030 H 0.4558 0.56593 0.28786 0.0
H1031 H 0.52003 0.55995 0.25632 0.0
H1032 H 0.4837 0.59595 0.23777 0.0
H1033 H 0.4785 0.57291 0.22403 0.0
H1034 H 0.50976 0.59696 0.22996 0.0
H1035 H 0.53328 0.58362 0.2441 0.0
H1036 H 0.51448 0.55181 0.23714 0.0
C1037 C 0.43626 0.51645 0.28868 0.0
C1038 C 0.41002 0.53297 0.27577 0.0
C1039 C 0.44896 0.48972 0.19907 0.0
C1040 C 0.4676 0.50595 0.19079 0.0
C1041 C 0.48541 0.52939 0.19739 0.0
C1042 C 0.48455 0.53684 0.21193 0.0
C1043 C 0.46549 0.52083 0.21999 0.0
C1044 C 0.44811 0.49766 0.21362 0.0
C1045 C 0.42883 0.4836 0.22389 0.0
C1046 C 0.43728 0.50243 0.23725 0.0
C1047 C 0.45889 0.52406 0.23486 0.0
C1048 C 0.43068 0.46086 0.22744 0.0
C1049 C 0.40331 0.47745 0.21652 0.0
C1050 C 0.51245 0.60475 0.26647 0.0
C1051 C 0.50977 0.61418 0.28008 0.0
C1052 C 0.48898 0.5998 0.28755 0.0
C1053 C 0.47117 0.57605 0.28162 0.0
C1054 C 0.47408 0.56674 0.26798 0.0
C1055 C 0.49429 0.58117 0.26056 0.0
C1056 C 0.49346 0.56895 0.24576 0.0
C1057 C 0.46988 0.5444 0.24577 0.0
C1058 C 0.45876 0.54317 0.25883 0.0
C1059 C 0.51655 0.56597 0.24568 0.0
C1060 C 0.4914 0.58443 0.2337 0.0
H1061 H 0.38803 0.44873 0.24066 0.0
H1062 H 0.38009 0.48484 0.28833 0.0
H1063 H 0.39332 0.526 0.26781 0.0
H1064 H 0.42243 0.55189 0.27309 0.0
H1065 H 0.40428 0.53363 0.287 0.0
H1066 H 0.43781 0.49962 0.28846 0.0
H1067 H 0.42682 0.51695 0.29853 0.0
H1068 H 0.45552 0.53179 0.29019 0.0
H1069 H 0.43501 0.47162 0.1942 0.0
H1070 H 0.50007 0.54202 0.19124 0.0
H1071 H 0.49868 0.55491 0.21628 0.0
H1072 H 0.45022 0.46509 0.2281 0.0
H1073 H 0.41996 0.44535 0.21878 0.0
H1074 H 0.42442 0.45473 0.23828 0.0
H1075 H 0.40464 0.49355 0.21134 0.0
H1076 H 0.38926 0.47285 0.22439 0.0
H1077 H 0.39631 0.46196 0.20776 0.0
H1078 H 0.35424 0.42386 0.25478 0.0
C1079 C 0.38689 0.45706 0.25094 0.0
Tb1080 Tb 0.49572 0.98022 0.98774 0.0
Eu1081 Eu 0.51197 0.01349 0.02019 0.0
C1082 C 0.51901 0.96787 0.01472 0.0
C1083 C 0.45906 0.96486 0.01193 0.0
C1084 C 0.49138 0.96828 0.94732 0.0
C1085 C 0.50343 0.96654 0.92258 0.0
C1086 C 0.49808 0.95701 0.93625 0.0
C1087 C 0.49012 0.98932 0.94451 0.0
C1088 C 0.49525 0.99873 0.93079 0.0
C1089 C 0.50208 0.98752 0.91966 0.0
C1090 C 0.48748 0.95901 0.96203 0.0
O1091 O 0.4783 0.00268 0.98717 0.0
O1092 O 0.50334 0.035 0.00459 0.0
O1093 O 0.54623 0.02807 0.00779 0.0
O1094 O 0.52544 0.01639 0.98476 0.0
C1095 C 0.48646 0.02514 0.99324 0.0
O1096 O 0.50436 0.03245 0.0382 0.0
O1097 O 0.53707 0.02902 0.04034 0.0
O1098 O 0.5097 0.97759 0.02346 0.0
O1099 O 0.5203 0.97172 1.00075 0.0
O1100 O 0.46836 0.95666 1.002 0.0
O1101 O 0.47089 0.98776 0.01772 0.0
C1102 C 0.54602 0.02882 0.99341 0.0
O1103 O 0.50757 0.96607 0.97064 0.0
O1104 O 0.47063 0.96042 0.96912 0.0
C1105 C 0.51591 0.02523 0.06168 0.0
C1106 C 0.50213 0.00696 0.08934 0.0
C1107 C 0.50416 0.02944 0.0862 0.0
C1108 C 0.51104 0.0385 0.07253 0.0
C1109 C 0.51369 0.00267 0.06472 0.0
C1110 C 0.50701 0.99371 0.07841 0.0
C1111 C 0.52248 0.03464 0.04713 0.0
H1112 H 0.50842 0.95734 0.91423 0.0
H1113 H 0.49943 0.94093 0.93824 0.0
H1114 H 0.48547 0.99866 0.95297 0.0
H1115 H 0.49434 0.01509 0.929 0.0
H1116 H 0.50072 0.0402 0.09439 0.0
H1117 H 0.51249 0.05586 0.07041 0.0
H1118 H 0.51699 0.99186 0.05648 0.0
H1119 H 0.50529 0.97618 0.08037 0.0
Tb1120 Tb 0.01616 0.5041 0.99183 0.0
Eu1121 Eu 0.9833 0.49201 0.02038 0.0
C1122 C 0.03144 0.54372 0.01835 0.0
C1123 C 0.03151 0.48666 0.02037 0.0
C1124 C 0.03307 0.51208 0.95361 0.0
C1125 C 0.04208 0.52916 0.93008 0.0
C1126 C 0.04885 0.53026 0.94507 0.0
C1127 C 0.01036 0.49277 0.94701 0.0
C1128 C 0.00369 0.49151 0.93201 0.0
C1129 C 0.01943 0.50973 0.92335 0.0
C1130 C 0.04007 0.51393 0.96946 0.0
O1131 O 0.98206 0.47019 0.98456 0.0
O1132 O 0.97149 0.45625 0.00715 0.0
O1133 O 0.95967 0.49405 1.00168 0.0
O1134 O 0.99108 0.51831 0.98803 0.0
C1135 C 0.96964 0.45236 0.99276 0.0
O1136 O 0.96398 0.46721 0.03682 0.0
O1137 O 0.96384 0.5014 0.03628 0.0
O1138 O 0.00854 0.53292 0.02173 0.0
O1139 O 0.03914 0.53255 0.00938 0.0
O1140 O 0.02914 0.48518 0.00588 0.0
O1141 O 0.01872 0.49343 0.02837 0.0
C1142 C 0.96802 0.50872 0.99118 0.0
O1143 O 0.03764 0.53007 0.97763 0.0
O1144 O 0.03183 0.49328 0.9754 0.0
C1145 C 0.96351 0.48633 0.05947 0.0
C1146 C 0.97455 0.49205 0.09028 0.0
C1147 C 0.95275 0.47162 0.08345 0.0
C1148 C 0.94729 0.46883 0.06819 0.0
C1149 C 0.98526 0.50681 0.06617 0.0
C1150 C 0.99067 0.50971 0.08146 0.0
C1151 C 0.95808 0.48217 0.04338 0.0
H1152 H 0.05447 0.5437 0.92382 0.0
H1153 H 0.06631 0.54545 0.95003 0.0
H1154 H 0.99776 0.47862 0.95343 0.0
H1155 H 0.9863 0.47609 0.92719 0.0
H1156 H 0.94014 0.45745 0.08985 0.0
H1157 H 0.93056 0.45277 0.06316 0.0
H1158 H 0.99814 0.52043 0.05959 0.0
H1159 H 0.00745 0.52582 0.08636 0.0
Tb1160 Tb 0.51451 0.49489 0.0203 0.0
Eu1161 Eu 0.48836 0.50097 0.98981 0.0
C1162 C 0.48196 0.45056 0.99773 0.0
C1163 C 0.54271 0.50776 0.99165 0.0
C1164 C 0.52466 0.48913 0.05946 0.0
C1165 C 0.51742 0.47229 0.08314 0.0
C1166 C 0.52574 0.4732 0.06916 0.0
C1167 C 0.51528 0.50429 0.06394 0.0
C1168 C 0.50716 0.50356 0.07794 0.0
C1169 C 0.50789 0.48738 0.08769 0.0
C1170 C 0.53122 0.48826 0.0443 0.0
O1171 O 0.51487 0.52927 0.02412 0.0
O1172 O 0.51657 0.53855 1.00025 0.0
O1173 O 0.46392 0.50066 0.0072 0.0
O1174 O 0.47637 0.48288 0.02457 0.0
C1175 C 0.52045 0.54534 0.01442 0.0
O1176 O 0.48404 0.52386 0.97408 0.0
O1177 O 0.46429 0.48441 0.96938 0.0
O1178 O 0.46947 0.46129 0.99401 0.0
O1179 O 0.50417 0.46336 0.00464 0.0
O1180 O 0.54448 0.51185 0.00609 0.0
O1181 O 0.52138 0.49832 0.98364 0.0
C1182 C 0.46097 0.48987 0.01947 0.0
O1183 O 0.5139 0.47059 0.03526 0.0
O1184 O 0.54164 0.509 0.03836 0.0
C1185 C 0.48055 0.50812 0.94936 0.0
C1186 C 0.49905 0.51405 0.92136 0.0
C1187 C 0.49204 0.53037 0.92755 0.0
C1188 C 0.48282 0.52737 0.94138 0.0
C1189 C 0.48778 0.49196 0.94329 0.0
C1190 C 0.49676 0.4948 0.92945 0.0
C1191 C 0.47129 0.50541 0.9641 0.0
H1192 H 0.51795 0.45937 0.09025 0.0
H1193 H 0.53253 0.46106 0.06579 0.0
H1194 H 0.51395 0.51651 0.05654 0.0
H1195 H 0.50036 0.51575 0.08111 0.0
H1196 H 0.49386 0.54562 0.92179 0.0
H1197 H 0.47758 0.5402 0.94589 0.0
H1198 H 0.48647 0.47702 0.94921 0.0
H1199 H 0.50149 0.48157 0.92499 0.0
Tb1200 Tb 0.16089 0.31487 0.32271 0.0
Eu1201 Eu 0.18007 0.35007 0.35466 0.0
C1202 C 0.1839 0.30209 0.34997 0.0
C1203 C 0.12624 0.30163 0.34827 0.0
C1204 C 0.15515 0.30274 0.28227 0.0
C1205 C 0.1663 0.30039 0.25732 0.0
C1206 C 0.16071 0.29078 0.27097 0.0
C1207 C 0.15527 0.32454 0.27968 0.0
C1208 C 0.16061 0.33403 0.266 0.0
C1209 C 0.16632 0.32215 0.25465 0.0
C1210 C 0.15108 0.29336 0.29696 0.0
O1211 O 0.14449 0.33815 0.32251 0.0
O1212 O 0.17223 0.37147 0.33846 0.0
O1213 O 0.2135 0.3611 0.34206 0.0
O1214 O 0.19204 0.35025 0.31928 0.0
C1215 C 0.1545 0.36136 0.32756 0.0
O1216 O 0.17436 0.37117 0.37229 0.0
O1217 O 0.20598 0.366 0.37448 0.0
O1218 O 0.17699 0.31418 0.35873 0.0
O1219 O 0.1832 0.30354 0.33567 0.0
O1220 O 0.13335 0.29265 0.33739 0.0
O1221 O 0.13918 0.32474 0.35362 0.0
C1222 C 0.21292 0.36205 0.32774 0.0
O1223 O 0.17111 0.29942 0.30538 0.0
O1224 O 0.13499 0.29579 0.30429 0.0
C1225 C 0.18545 0.36376 0.39576 0.0
C1226 C 0.1714 0.34587 0.42349 0.0
C1227 C 0.18076 0.37088 0.42156 0.0
C1228 C 0.18773 0.37971 0.40784 0.0
C1229 C 0.17598 0.3388 0.39758 0.0
C1230 C 0.16917 0.32999 0.41128 0.0
C1231 C 0.19227 0.37289 0.38121 0.0
H1232 H 0.17041 0.29067 0.2488 0.0
H1233 H 0.16101 0.2741 0.27276 0.0
H1234 H 0.15157 0.33442 0.28832 0.0
H1235 H 0.16077 0.35098 0.2644 0.0
H1236 H 0.18239 0.38364 0.43059 0.0
H1237 H 0.19475 0.39899 0.40664 0.0
H1238 H 0.17386 0.32609 0.38838 0.0
H1239 H 0.16244 0.31073 0.4123 0.0
Tb1240 Tb 0.68054 0.83455 0.32521 0.0
Eu1241 Eu 0.6478 0.8219 0.3536 0.0
C1242 C 0.69581 0.87379 0.3518 0.0
C1243 C 0.69583 0.81707 0.35355 0.0
C1244 C 0.69863 0.84434 0.28718 0.0
C1245 C 0.70875 0.84396 0.26196 0.0
C1246 C 0.71462 0.84452 0.27701 0.0
C1247 C 0.67673 0.84372 0.28219 0.0
C1248 C 0.67089 0.84327 0.26714 0.0
C1249 C 0.68678 0.84326 0.25683 0.0
C1250 C 0.70472 0.84434 0.30292 0.0
O1251 O 0.64561 0.8016 0.31785 0.0
O1252 O 0.63734 0.78646 0.34026 0.0
O1253 O 0.62424 0.82372 0.33476 0.0
O1254 O 0.6563 0.84996 0.3222 0.0
C1255 C 0.63434 0.78319 0.32583 0.0
O1256 O 0.6298 0.79722 0.37036 0.0
O1257 O 0.62705 0.82999 0.36919 0.0
O1258 O 0.67288 0.86292 0.35514 0.0
O1259 O 0.7036 0.86268 0.34284 0.0
O1260 O 0.69249 0.81449 0.33906 0.0
O1261 O 0.68395 0.825 0.36152 0.0
C1262 C 0.63298 0.83957 0.3249 0.0
O1263 O 0.70359 0.86071 0.31168 0.0
O1264 O 0.69437 0.82291 0.30799 0.0
C1265 C 0.62856 0.81658 0.39275 0.0
C1266 C 0.64064 0.82445 0.4235 0.0
C1267 C 0.6205 0.80218 0.41703 0.0
C1268 C 0.61449 0.79833 0.40179 0.0
C1269 C 0.64866 0.83889 0.39915 0.0
C1270 C 0.65455 0.84285 0.41442 0.0
C1271 C 0.62278 0.81148 0.37668 0.0
H1272 H 0.72119 0.84355 0.25432 0.0
H1273 H 0.73153 0.84485 0.28071 0.0
H1274 H 0.66413 0.84351 0.28992 0.0
H1275 H 0.65397 0.84301 0.2636 0.0
H1276 H 0.60935 0.78778 0.42378 0.0
H1277 H 0.59901 0.78095 0.39702 0.0
H1278 H 0.65999 0.85311 0.39235 0.0
H1279 H 0.67033 0.86007 0.4191 0.0
Tb1280 Tb 0.17985 0.82979 0.35334 0.0
Eu1281 Eu 0.15548 0.83586 0.32177 0.0
C1282 C 0.14819 0.78509 0.33024 0.0
C1283 C 0.20935 0.84214 0.32523 0.0
C1284 C 0.18939 0.82457 0.39307 0.0
C1285 C 0.17373 0.8039 0.41502 0.0
C1286 C 0.18087 0.80366 0.4008 0.0
C1287 C 0.19079 0.84583 0.39987 0.0
C1288 C 0.18391 0.84615 0.41416 0.0
C1289 C 0.17523 0.82516 0.42187 0.0
C1290 C 0.19559 0.82337 0.37776 0.0
O1291 O 0.17993 0.86402 0.35679 0.0
O1292 O 0.18231 0.87344 0.3329 0.0
O1293 O 0.12894 0.83417 0.33802 0.0
O1294 O 0.14199 0.81941 0.35715 0.0
C1295 C 0.18565 0.88007 0.34708 0.0
O1296 O 0.15496 0.85947 0.30526 0.0
O1297 O 0.13158 0.82015 0.30119 0.0
O1298 O 0.13657 0.79598 0.32523 0.0
O1299 O 0.1694 0.79749 0.33836 0.0
O1300 O 0.21047 0.84691 0.33957 0.0
O1301 O 0.18831 0.83207 0.31691 0.0
C1302 C 0.12623 0.82497 0.35084 0.0
O1303 O 0.17814 0.8057 0.36877 0.0
O1304 O 0.2066 0.84389 0.37162 0.0
C1305 C 0.151 0.84178 0.28113 0.0
C1306 C 0.17168 0.84445 0.25404 0.0
C1307 C 0.16132 0.85919 0.2577 0.0
C1308 C 0.15105 0.85781 0.2711 0.0
C1309 C 0.16153 0.82724 0.27761 0.0
C1310 C 0.17157 0.82843 0.26419 0.0
C1311 C 0.14105 0.84105 0.29548 0.0
H1312 H 0.16737 0.78754 0.42075 0.0
H1313 H 0.17955 0.78703 0.39577 0.0
H1314 H 0.197 0.86217 0.39414 0.0
H1315 H 0.18505 0.86273 0.41911 0.0
H1316 H 0.16139 0.87202 0.2503 0.0
H1317 H 0.14333 0.86943 0.2737 0.0
H1318 H 0.162 0.81491 0.28523 0.0
H1319 H 0.17894 0.81647 0.26173 0.0
Tb1320 Tb 0.82724 0.64974 0.65503 0.0
Eu1321 Eu 0.84408 0.6845 0.68709 0.0
C1322 C 0.85284 0.63956 0.68208 0.0
C1323 C 0.79199 0.63494 0.67995 0.0
C1324 C 0.82117 0.63549 0.61467 0.0
C1325 C 0.8325 0.63204 0.58993 0.0
C1326 C 0.82737 0.62337 0.60383 0.0
C1327 C 0.82015 0.65646 0.61137 0.0
C1328 C 0.82505 0.66501 0.59743 0.0
C1329 C 0.83143 0.65298 0.58654 0.0
C1330 C 0.81764 0.62715 0.62962 0.0
O1331 O 0.80985 0.67225 0.65424 0.0
O1332 O 0.83573 0.70545 0.67088 0.0
O1333 O 0.87809 0.6991 0.67452 0.0
O1334 O 0.85751 0.68532 0.65137 0.0
C1335 C 0.81865 0.69517 0.65965 0.0
O1336 O 0.836 0.70351 0.70482 0.0
O1337 O 0.86919 0.70102 0.7072 0.0
O1338 O 0.84416 0.64987 0.6909 0.0
O1339 O 0.85216 0.64151 0.66785 0.0
O1340 O 0.80132 0.62666 0.6701 0.0
O1341 O 0.80313 0.65819 0.68494 0.0
C1342 C 0.87791 0.69879 0.66007 0.0
O1343 O 0.83794 0.63422 0.63803 0.0
O1344 O 0.80136 0.62949 0.63679 0.0
C1345 C 0.8479 0.69704 0.7284 0.0
C1346 C 0.83481 0.67886 0.7562 0.0
C1347 C 0.8428 0.70362 0.75421 0.0
C1348 C 0.84927 0.71258 0.74046 0.0
C1349 C 0.83985 0.67234 0.73028 0.0
C1350 C 0.83348 0.66338 0.74401 0.0
C1351 C 0.85434 0.70642 0.71385 0.0
H1352 H 0.83714 0.62222 0.58178 0.0
H1353 H 0.82853 0.60732 0.60619 0.0
H1354 H 0.81588 0.66644 0.61964 0.0
H1355 H 0.82436 0.68136 0.59526 0.0
H1356 H 0.84371 0.71604 0.76321 0.0
H1357 H 0.85523 0.73165 0.73923 0.0
H1358 H 0.83852 0.65994 0.7211 0.0
H1359 H 0.82779 0.64434 0.74509 0.0
Tb1360 Tb 0.35226 0.17427 0.65872 0.0
Eu1361 Eu 0.31996 0.16128 0.68753 0.0
C1362 C 0.36745 0.21265 0.68618 0.0
C1363 C 0.36802 0.15554 0.68622 0.0
C1364 C 0.36983 0.18112 0.62047 0.0
C1365 C 0.38161 0.18164 0.59558 0.0
C1366 C 0.38763 0.18454 0.61081 0.0
C1367 C 0.34586 0.17451 0.61478 0.0
C1368 C 0.33986 0.1718 0.59958 0.0
C1369 C 0.35769 0.17541 0.58978 0.0
C1370 C 0.37653 0.18507 0.63643 0.0
O1371 O 0.32736 0.1346 0.6559 0.0
O1372 O 0.29658 0.1314 0.66974 0.0
O1373 O 0.30671 0.18095 0.67288 0.0
O1374 O 0.31774 0.17188 0.65085 0.0
C1375 C 0.30477 0.12216 0.65981 0.0
O1376 O 0.29658 0.13511 0.70222 0.0
O1377 O 0.30567 0.1731 0.70556 0.0
O1378 O 0.35649 0.19491 0.69461 0.0
O1379 O 0.36289 0.20863 0.67179 0.0
O1380 O 0.37541 0.17097 0.67604 0.0
O1381 O 0.3456 0.14606 0.69044 0.0
C1382 C 0.30506 0.17936 0.65839 0.0
O1383 O 0.37077 0.19963 0.64363 0.0
O1384 O 0.37086 0.16551 0.6431 0.0
C1385 C 0.30211 0.15229 0.72659 0.0
C1386 C 0.31495 0.15472 0.75692 0.0
C1387 C 0.29281 0.15379 0.75191 0.0
C1388 C 0.28645 0.15256 0.73686 0.0
C1389 C 0.32415 0.15309 0.73147 0.0
C1390 C 0.33047 0.15421 0.74651 0.0
C1391 C 0.29569 0.1518 0.71086 0.0
H1392 H 0.39566 0.18411 0.58837 0.0
H1393 H 0.4062 0.18955 0.61505 0.0
H1394 H 0.33186 0.17172 0.62211 0.0
H1395 H 0.32137 0.1673 0.59554 0.0
H1396 H 0.28064 0.15454 0.75963 0.0
H1397 H 0.26946 0.15211 0.73324 0.0
H1398 H 0.33649 0.15296 0.72365 0.0
H1399 H 0.34749 0.15461 0.74998 0.0
Tb1400 Tb 0.8499 0.16804 0.68638 0.0
Eu1401 Eu 0.82495 0.17476 0.65552 0.0
C1402 C 0.81948 0.12436 0.66252 0.0
C1403 C 0.87947 0.18055 0.65832 0.0
C1404 C 0.85534 0.15824 0.7255 0.0
C1405 C 0.84678 0.13645 0.7475 0.0
C1406 C 0.85632 0.14065 0.73377 0.0
C1407 C 0.84419 0.17121 0.73103 0.0
C1408 C 0.83493 0.16724 0.74479 0.0
C1409 C 0.83624 0.14994 0.7533 0.0
C1410 C 0.86588 0.16295 0.71115 0.0
O1411 O 0.86817 0.20686 0.68304 0.0
O1412 O 0.83503 0.2071 0.67168 0.0
O1413 O 0.79396 0.15852 0.67038 0.0
O1414 O 0.81781 0.16988 0.69262 0.0
C1415 C 0.85641 0.2185 0.67961 0.0
O1416 O 0.82615 0.19874 0.6389 0.0
O1417 O 0.79751 0.16037 0.6364 0.0
O1418 O 0.82591 0.1398 0.65244 0.0
O1419 O 0.82142 0.13197 0.67644 0.0
O1420 O 0.8745 0.16857 0.67019 0.0
O1421 O 0.86504 0.18819 0.65264 0.0
C1422 C 0.79631 0.16136 0.6849 0.0
O1423 O 0.85474 0.14522 0.70059 0.0
O1424 O 0.87159 0.18408 0.7065 0.0
C1425 C 0.81472 0.1789 0.61474 0.0
C1426 C 0.82865 0.17698 0.58597 0.0
C1427 C 0.83002 0.19845 0.59239 0.0
C1428 C 0.82301 0.19935 0.6066 0.0
C1429 C 0.81344 0.15744 0.60836 0.0
C1430 C 0.82021 0.15647 0.5941 0.0
C1431 C 0.80872 0.18071 0.63005 0.0
H1432 H 0.84774 0.12266 0.75358 0.0
H1433 H 0.86457 0.13023 0.72964 0.0
H1434 H 0.84291 0.18473 0.72483 0.0
H1435 H 0.82736 0.1783 0.74889 0.0
H1436 H 0.83621 0.21446 0.58635 0.0
H1437 H 0.82426 0.21612 0.6113 0.0
H1438 H 0.80744 0.14145 0.6144 0.0
H1439 H 0.8192 0.13976 0.58951 0.0
H1440 H 0.31121 0.88682 0.04176 0.0
H1441 H 0.36057 0.88112 0.0741 0.0
H1442 H 0.34536 0.90785 0.02647 0.0
H1443 H 0.39466 0.90179 0.05865 0.0
H1444 H 0.44156 0.91752 0.01835 0.0
H1445 H 0.40503 0.89284 0.03143 0.0
H1446 H 0.38711 0.9506 0.0314 0.0
H1447 H 0.42371 0.97535 0.01875 0.0
C1448 C 0.32936 0.89003 0.04555 0.0
C1449 C 0.33336 0.88254 0.05913 0.0
C1450 C 0.34883 0.90199 0.03681 0.0
C1451 C 0.37252 0.90622 0.04135 0.0
C1452 C 0.37647 0.89848 0.05485 0.0
C1453 C 0.3571 0.88694 0.06373 0.0
C1454 C 0.42949 0.92464 0.02091 0.0
C1455 C 0.43531 0.94824 0.01754 0.0
C1456 C 0.4088 0.91068 0.02848 0.0
C1457 C 0.39339 0.91992 0.03244 0.0
C1458 C 0.39863 0.94303 0.02842 0.0
C1459 C 0.41954 0.95716 0.0212 0.0
H1460 H 0.13518 0.4359 0.04105 0.0
H1461 H 0.13801 0.47638 0.0815 0.0
H1462 H 0.10354 0.44314 0.02979 0.0
H1463 H 0.10696 0.48455 0.07012 0.0
H1464 H 0.0357 0.47805 0.04925 0.0
H1465 H 0.06523 0.46839 0.06117 0.0
H1466 H 0.09839 0.47397 0.02024 0.0
H1467 H 0.06831 0.48253 0.00827 0.0
C1468 C 0.12914 0.44654 0.0475 0.0
C1469 C 0.13917 0.45568 0.06213 0.0
C1470 C 0.11105 0.45083 0.04103 0.0
C1471 C 0.10272 0.46469 0.04894 0.0
C1472 C 0.11258 0.47354 0.06369 0.0
C1473 C 0.13047 0.46895 0.07022 0.0
C1474 C 0.04926 0.47713 0.04281 0.0
C1475 C 0.04951 0.48094 0.02778 0.0
C1476 C 0.06634 0.47173 0.04967 0.0
C1477 C 0.08428 0.47027 0.04171 0.0
C1478 C 0.08458 0.47434 0.0267 0.0
C1479 C 0.06737 0.47943 0.01982 0.0
H1480 H 0.54867 0.69336 0.03262 0.0
H1481 H 0.6105 0.69408 0.05667 0.0
H1482 H 0.53309 0.65093 0.02308 0.0
H1483 H 0.59438 0.65131 0.0474 0.0
H1484 H 0.53841 0.56735 0.04244 0.0
H1485 H 0.55635 0.61072 0.05088 0.0
H1486 H 0.54525 0.62603 0.0065 0.0
H1487 H 0.52726 0.58269 0.998 0.0
C1488 C 0.55916 0.68463 0.03571 0.0
C1489 C 0.58087 0.69718 0.04542 0.0
C1490 C 0.55014 0.66028 0.03029 0.0
C1491 C 0.56249 0.64786 0.03455 0.0
C1492 C 0.58434 0.6604 0.04409 0.0
C1493 C 0.59351 0.68486 0.04942 0.0
C1494 C 0.53979 0.57995 0.03447 0.0
C1495 C 0.53136 0.57158 0.01956 0.0
C1496 C 0.55022 0.60479 0.0393 0.0
C1497 C 0.5522 0.62169 0.02933 0.0
C1498 C 0.54378 0.61334 0.01443 0.0
C1499 C 0.53357 0.58855 0.00957 0.0
H1500 H 0.8754 0.29454 0.97394 0.0
H1501 H 0.86471 0.32362 0.9343 0.0
H1502 H 0.9058 0.33587 0.98456 0.0
H1503 H 0.89463 0.36511 0.94502 0.0
H1504 H 0.96542 0.43467 0.96399 0.0
H1505 H 0.93746 0.39305 0.95265 0.0
H1506 H 0.90691 0.37215 0.99424 0.0
H1507 H 0.93527 0.4133 0.00562 0.0
C1508 C 0.87948 0.30984 0.96755 0.0
C1509 C 0.86765 0.30592 0.95334 0.0
C1510 C 0.89683 0.33353 0.97363 0.0
C1511 C 0.90255 0.35388 0.9657 0.0
C1512 C 0.89094 0.34987 0.95137 0.0
C1513 C 0.87375 0.32612 0.94523 0.0
C1514 C 0.95275 0.42115 0.97069 0.0
C1515 C 0.95264 0.42728 0.98571 0.0
C1516 C 0.93664 0.39732 0.96418 0.0
C1517 C 0.91998 0.37918 0.97254 0.0
C1518 C 0.91982 0.38546 0.98753 0.0
C1519 C 0.93602 0.40916 0.99405 0.0
H1520 H 0.65219 0.53688 0.92817 0.0
H1521 H 0.69153 0.54853 0.97094 0.0
H1522 H 0.61548 0.52932 0.93999 0.0
H1523 H 0.65449 0.53883 0.9826 0.0
H1524 H 0.59075 0.53991 1.00211 0.0
H1525 H 0.62778 0.55143 0.98967 0.0
H1526 H 0.583 0.50091 0.95191 0.0
H1527 H 0.54591 0.4906 0.9641 0.0
C1528 C 0.65311 0.53787 0.94008 0.0
C1529 C 0.67499 0.54313 0.94851 0.0
C1530 C 0.63182 0.5331 0.9469 0.0
C1531 C 0.63166 0.53319 0.96234 0.0
C1532 C 0.65369 0.53884 0.97073 0.0
C1533 C 0.675 0.54398 0.96396 0.0
C1534 C 0.58884 0.53126 0.99115 0.0
C1535 C 0.56536 0.51424 0.98415 0.0
C1536 C 0.61016 0.53777 0.98399 0.0
C1537 C 0.60869 0.52705 0.96972 0.0
C1538 C 0.58508 0.50998 0.96275 0.0
C1539 C 0.56372 0.50384 0.96981 0.0
H1540 H 0.39074 0.06931 0.9489 0.0
H1541 H 0.45641 0.13772 0.96482 0.0
H1542 H 0.40839 0.04677 0.96039 0.0
H1543 H 0.47434 0.11529 0.97604 0.0
H1544 H 0.49005 0.06758 0.00547 0.0
H1545 H 0.47113 0.09004 0.99543 0.0
H1546 H 0.44051 0.03755 0.95683 0.0
H1547 H 0.45869 0.01478 0.96702 0.0
C1548 C 0.40898 0.07949 0.95482 0.0
C1549 C 0.42221 0.10522 0.95597 0.0
C1550 C 0.41915 0.06662 0.96136 0.0
C1551 C 0.44286 0.07923 0.96907 0.0
C1552 C 0.45591 0.10501 0.97038 0.0
C1553 C 0.44566 0.11787 0.96393 0.0
C1554 C 0.4793 0.06088 0.99484 0.0
C1555 C 0.4758 0.03937 0.98707 0.0
C1556 C 0.46852 0.07378 0.98906 0.0
C1557 C 0.45419 0.06552 0.97536 0.0
C1558 C 0.45098 0.04415 0.96755 0.0
C1559 C 0.46157 0.03118 0.97336 0.0
H1560 H 0.64921 0.10461 0.9298 0.0
H1561 H 0.6971 0.11158 0.96783 0.0
H1562 H 0.61339 0.08335 0.94351 0.0
H1563 H 0.6611 0.08934 0.98152 0.0
H1564 H 0.59123 0.06686 0.00581 0.0
H1565 H 0.62836 0.09051 0.99312 0.0
H1566 H 0.58972 0.04541 0.95247 0.0
H1567 H 0.55292 0.02288 0.96483 0.0
C1568 C 0.652 0.10122 0.94105 0.0
C1569 C 0.67589 0.10952 0.9477 0.0
C1570 C 0.63147 0.08898 0.94894 0.0
C1571 C 0.63423 0.08434 0.96364 0.0
C1572 C 0.65823 0.09281 0.97031 0.0
C1573 C 0.67884 0.10539 0.96245 0.0
C1574 C 0.59078 0.06218 0.99415 0.0
C1575 C 0.56904 0.04325 0.98631 0.0
C1576 C 0.61206 0.0756 0.98688 0.0
C1577 C 0.61202 0.07012 0.97168 0.0
C1578 C 0.59036 0.05074 0.96404 0.0
C1579 C 0.56918 0.03767 0.9712 0.0
H1580 H 0.84084 0.50834 0.94646 0.0
H1581 H 0.90328 0.57769 0.93852 0.0
H1582 H 0.86845 0.49824 0.96031 0.0
H1583 H 0.93091 0.56786 0.95258 0.0
H1584 H 0.97633 0.53268 0.9662 0.0
H1585 H 0.9486 0.54215 0.95203 0.0
H1586 H 0.89391 0.50849 0.98285 0.0
H1587 H 0.92139 0.49834 0.99676 0.0
C1588 C 0.86046 0.52153 0.94778 0.0
C1589 C 0.86983 0.54382 0.94136 0.0
C1590 C 0.87633 0.51578 0.95577 0.0
C1591 C 0.902 0.53222 0.95763 0.0
C1592 C 0.91134 0.55453 0.95119 0.0
C1593 C 0.89548 0.5602 0.94313 0.0
C1594 C 0.9584 0.52731 0.96998 0.0
C1595 C 0.95115 0.51475 0.98266 0.0
C1596 C 0.9425 0.53287 0.96188 0.0
C1597 C 0.91894 0.52617 0.96626 0.0
C1598 C 0.91172 0.51363 0.97897 0.0
C1599 C 0.92758 0.50793 0.98703 0.0
H1600 H 0.39278 0.3016 0.95753 0.0
H1601 H 0.45063 0.29983 0.98459 0.0
H1602 H 0.40939 0.34427 0.96643 0.0
H1603 H 0.46585 0.34183 0.99454 0.0
H1604 H 0.50615 0.42499 0.99458 0.0
H1605 H 0.4882 0.38136 0.98733 0.0
H1606 H 0.41497 0.3724 0.98594 0.0
H1607 H 0.43316 0.41631 0.99236 0.0
C1608 C 0.4089 0.3102 0.96549 0.0
C1609 C 0.42052 0.29725 0.97016 0.0
C1610 C 0.41821 0.33465 0.97081 0.0
C1611 C 0.43913 0.34668 0.98116 0.0
C1612 C 0.45005 0.33338 0.98634 0.0
C1613 C 0.441 0.30906 0.98082 0.0
C1614 C 0.48622 0.41363 0.99273 0.0
C1615 C 0.47104 0.424 0.99391 0.0
C1616 C 0.47587 0.38856 0.9887 0.0
C1617 C 0.45006 0.37322 0.98604 0.0
C1618 C 0.43491 0.38365 0.98759 0.0
C1619 C 0.44531 0.4088 0.99134 0.0
H1620 H 0.16052 0.68783 0.03834 0.0
H1621 H 0.1092 0.68842 0.06792 0.0
H1622 H 0.12971 0.64692 0.02803 0.0
H1623 H 0.07913 0.64645 0.05854 0.0
H1624 H 0.0215 0.57894 0.0289 0.0
H1625 H 0.05116 0.62103 0.03869 0.0
H1626 H 0.11099 0.60645 0.03329 0.0
H1627 H 0.08141 0.565 0.02277 0.0
C1628 C 0.14265 0.67932 0.04265 0.0
C1629 C 0.13746 0.69164 0.05398 0.0
C1630 C 0.12506 0.65553 0.03691 0.0
C1631 C 0.10191 0.6431 0.04253 0.0
C1632 C 0.09662 0.65544 0.05381 0.0
C1633 C 0.11409 0.67946 0.05938 0.0
C1634 C 0.04101 0.58482 0.02984 0.0
C1635 C 0.04918 0.5688 0.02498 0.0
C1636 C 0.05805 0.60892 0.03552 0.0
C1637 C 0.08359 0.61734 0.03672 0.0
C1638 C 0.09158 0.60095 0.03219 0.0
C1639 C 0.0746 0.57707 0.02625 0.0
H1640 H 0.36148 0.46979 0.08769 0.0
H1641 H 0.31351 0.44112 0.04708 0.0
H1642 H 0.39718 0.48067 0.0739 0.0
H1643 H 0.34922 0.45206 0.03329 0.0
H1644 H 0.42138 0.49609 0.01179 0.0
H1645 H 0.38593 0.48673 0.02568 0.0
H1646 H 0.41614 0.46205 0.05999 0.0
H1647 H 0.45158 0.47177 0.04634 0.0
C1648 C 0.35847 0.46558 0.07584 0.0
C1649 C 0.33449 0.45453 0.06855 0.0
C1650 C 0.37901 0.47187 0.0679 0.0
C1651 C 0.37618 0.4673 0.05243 0.0
C1652 C 0.35221 0.45627 0.04515 0.0
C1653 C 0.33168 0.44996 0.05308 0.0
C1654 C 0.4205 0.48874 0.02232 0.0
C1655 C 0.43939 0.48464 0.02787 0.0
C1656 C 0.40007 0.48322 0.03026 0.0
C1657 C 0.39807 0.47358 0.04399 0.0
C1658 C 0.41711 0.46971 0.04957 0.0
C1659 C 0.43742 0.47514 0.04164 0.0
H1660 H 0.61718 0.92559 0.05711 0.0
H1661 H 0.54594 0.85926 0.05238 0.0
H1662 H 0.5989 0.94694 0.04437 0.0
H1663 H 0.52762 0.88071 0.04001 0.0
H1664 H 0.50582 0.94279 0.03895 0.0
H1665 H 0.52415 0.92056 0.05021 0.0
H1666 H 0.57437 0.93912 0.01641 0.0
H1667 H 0.55563 0.96092 0.00484 0.0
C1668 C 0.59765 0.91568 0.05336 0.0
C1669 C 0.5829 0.89087 0.05565 0.0
C1670 C 0.58728 0.92778 0.04604 0.0
C1671 C 0.56194 0.91535 0.04125 0.0
C1672 C 0.5472 0.8906 0.04363 0.0
C1673 C 0.55766 0.87839 0.05065 0.0
C1674 C 0.52065 0.94198 0.03386 0.0
C1675 C 0.52929 0.95349 0.02101 0.0
C1676 C 0.53106 0.92926 0.04028 0.0
C1677 C 0.55064 0.9283 0.03416 0.0
C1678 C 0.55933 0.93978 0.02132 0.0
C1679 C 0.54852 0.95205 0.01468 0.0
H1680 H 1.00008 0.18458 0.38605 0.0
H1681 H 1.00008 0.25134 0.39927 0.0
H1682 H 0.03562 0.20758 0.37221 0.0
H1683 H 0.03525 0.27427 0.38527 0.0
H1684 H 0.11444 0.312 0.37479 0.0
H1685 H 0.07813 0.28749 0.38714 0.0
H1686 H 0.05009 0.23065 0.35086 0.0
H1687 H 0.08734 0.25531 0.33845 0.0
C1688 C 0.00754 0.20415 0.38588 0.0
C1689 C 0.9974 0.2162 0.39386 0.0
C1690 C 0.02784 0.21731 0.3779 0.0
C1691 C 0.03842 0.24281 0.37767 0.0
C1692 C 0.02793 0.25473 0.38544 0.0
C1693 C 0.00776 0.24161 0.39348 0.0
C1694 C 0.10055 0.29435 0.3693 0.0
C1695 C 0.10371 0.28577 0.35549 0.0
C1696 C 0.07957 0.28029 0.37642 0.0
C1697 C 0.06092 0.25724 0.36993 0.0
C1698 C 0.06415 0.24833 0.3562 0.0
C1699 C 0.08541 0.26246 0.34905 0.0
H1700 H 0.81492 0.78716 0.37302 0.0
H1701 H 0.79213 0.79451 0.41595 0.0
H1702 H 0.78376 0.79459 0.36166 0.0
H1703 H 0.75935 0.79968 0.40442 0.0
H1704 H 0.72014 0.83465 0.38109 0.0
H1705 H 0.75117 0.82709 0.39292 0.0
H1706 H 0.74212 0.77819 0.35492 0.0
H1707 H 0.71218 0.78698 0.34283 0.0
C1708 C 0.80327 0.79032 0.38009 0.0
C1709 C 0.80639 0.79045 0.39548 0.0
C1710 C 0.78495 0.79413 0.3735 0.0
C1711 C 0.76878 0.7977 0.38205 0.0
C1712 C 0.7716 0.7974 0.39743 0.0
C1713 C 0.79024 0.794 0.40406 0.0
C1714 C 0.72478 0.82225 0.3753 0.0
C1715 C 0.71381 0.81151 0.361 0.0
C1716 C 0.7425 0.81775 0.38212 0.0
C1717 C 0.74938 0.80203 0.37493 0.0
C1718 C 0.73787 0.79086 0.36072 0.0
C1719 C 0.72052 0.79575 0.3538 0.0
H1720 H 0.22991 0.01771 0.39793 0.0
H1721 H 0.26448 0.04027 0.35768 0.0
H1722 H 0.21212 0.97493 0.3886 0.0
H1723 H 0.2473 0.99721 0.3484 0.0
H1724 H 0.19142 0.91749 0.33098 0.0
H1725 H 0.20932 0.96069 0.33972 0.0
H1726 H 0.22364 0.94507 0.38351 0.0
H1727 H 0.20491 0.90187 0.37491 0.0
C1728 C 0.23397 0.01344 0.38714 0.0
C1729 C 0.24873 0.03223 0.37856 0.0
C1730 C 0.22385 0.98892 0.38179 0.0
C1731 C 0.22845 0.98259 0.36779 0.0
C1732 C 0.24316 0.00144 0.35916 0.0
C1733 C 0.25309 0.02606 0.36447 0.0
C1734 C 0.19836 0.92331 0.34248 0.0
C1735 C 0.19659 0.90626 0.35228 0.0
C1736 C 0.20878 0.9481 0.34746 0.0
C1737 C 0.21786 0.95637 0.36233 0.0
C1738 C 0.21637 0.93929 0.37206 0.0
C1739 C 0.20572 0.91451 0.36711 0.0
H1740 H 0.50262 0.65229 0.28764 0.0
H1741 H 0.5589 0.63191 0.28666 0.0
H1742 H 0.53388 0.69387 0.29808 0.0
H1743 H 0.59004 0.6733 0.2975 0.0
H1744 H 0.62223 0.73943 0.33621 0.0
H1745 H 0.59258 0.69833 0.32448 0.0
H1746 H 0.57729 0.73018 0.28763 0.0
H1747 H 0.60747 0.77136 0.29912 0.0
C1748 C 0.52167 0.65676 0.28972 0.0
C1749 C 0.5285 0.6391 0.28641 0.0
C1750 C 0.53947 0.68045 0.29559 0.0
C1751 C 0.56421 0.68658 0.29852 0.0
C1752 C 0.57101 0.66886 0.29531 0.0
C1753 C 0.55331 0.64534 0.28912 0.0
C1754 C 0.61264 0.73763 0.32557 0.0
C1755 C 0.6171 0.75849 0.31855 0.0
C1756 C 0.59581 0.7142 0.31887 0.0
C1757 C 0.58278 0.7113 0.30522 0.0
C1758 C 0.58718 0.7321 0.29818 0.0
C1759 C 0.60445 0.75555 0.30472 0.0
H1760 H 0.32002 0.87187 0.26282 0.0
H1761 H 0.36006 0.88802 0.30584 0.0
H1762 H 0.28294 0.86365 0.27438 0.0
H1763 H 0.32269 0.87757 0.31732 0.0
H1764 H 0.25686 0.87597 0.33582 0.0
H1765 H 0.29437 0.88837 0.3237 0.0
H1766 H 0.25139 0.8351 0.28661 0.0
H1767 H 0.21383 0.82392 0.29842 0.0
C1768 C 0.32102 0.87373 0.27473 0.0
C1769 C 0.34319 0.88041 0.28331 0.0
C1770 C 0.29952 0.86856 0.28141 0.0
C1771 C 0.29945 0.86959 0.29688 0.0
C1772 C 0.32179 0.87677 0.30542 0.0
C1773 C 0.34331 0.88235 0.29876 0.0
C1774 C 0.25548 0.86689 0.32509 0.0
C1775 C 0.23237 0.84888 0.31813 0.0
C1776 C 0.27706 0.87392 0.31811 0.0
C1777 C 0.27622 0.86275 0.3041 0.0
C1778 C 0.25298 0.84457 0.29722 0.0
C1779 C 0.23135 0.83792 0.30408 0.0
H1780 H 0.10939 0.43423 0.26562 0.0
H1781 H 0.08615 0.44783 0.30711 0.0
H1782 H 0.12679 0.41199 0.27774 0.0
H1783 H 0.10414 0.42611 0.31923 0.0
H1784 H 0.1626 0.40697 0.33733 0.0
H1785 H 0.14657 0.43068 0.32534 0.0
H1786 H 0.10975 0.37269 0.28986 0.0
H1787 H 0.12553 0.34909 0.30169 0.0
C1788 C 0.1078 0.43232 0.27728 0.0
C1789 C 0.09631 0.44277 0.28538 0.0
C1790 C 0.1179 0.41972 0.28423 0.0
C1791 C 0.11689 0.41745 0.29942 0.0
C1792 C 0.10551 0.42794 0.30755 0.0
C1793 C 0.09521 0.44035 0.30059 0.0
C1794 C 0.15113 0.39935 0.32696 0.0
C1795 C 0.14531 0.37615 0.32049 0.0
C1796 C 0.14189 0.41285 0.32015 0.0
C1797 C 0.12698 0.4035 0.30667 0.0
C1798 C 0.1214 0.38045 0.30016 0.0
C1799 C 0.13036 0.36688 0.30702 0.0
H1800 H 0.36288 0.45245 0.3028 0.0
H1801 H 0.31654 0.41848 0.26188 0.0
H1802 H 0.32699 0.43192 0.31646 0.0
H1803 H 0.28105 0.39627 0.27558 0.0
H1804 H 0.21722 0.38166 0.30162 0.0
H1805 H 0.25403 0.40298 0.28883 0.0
H1806 H 0.29715 0.39518 0.32456 0.0
H1807 H 0.26023 0.37489 0.33772 0.0
C1808 C 0.34508 0.44049 0.29668 0.0
C1809 C 0.34268 0.4375 0.28116 0.0
C1810 C 0.32447 0.42836 0.30457 0.0
C1811 C 0.30092 0.41256 0.29718 0.0
C1812 C 0.29872 0.40876 0.28169 0.0
C1813 C 0.31926 0.42119 0.27379 0.0
C1814 C 0.23462 0.38469 0.30681 0.0
C1815 C 0.23586 0.37662 0.32068 0.0
C1816 C 0.25574 0.3967 0.29939 0.0
C1817 C 0.27865 0.40054 0.3055 0.0
C1818 C 0.27995 0.39281 0.31954 0.0
C1819 C 0.2588 0.38115 0.3271 0.0
H1820 H 0.56739 0.89878 0.26473 0.0
H1821 H 0.50645 0.84761 0.2875 0.0
H1822 H 0.59459 0.888 0.27797 0.0
H1823 H 0.53423 0.83903 0.30195 0.0
H1824 H 0.5836 0.80998 0.31719 0.0
H1825 H 0.55607 0.81914 0.30259 0.0
H1826 H 0.61683 0.89257 0.29968 0.0
H1827 H 0.64453 0.8825 0.31335 0.0
C1828 C 0.55967 0.88526 0.27256 0.0
C1829 C 0.53447 0.87412 0.2749 0.0
C1830 C 0.57554 0.87941 0.28045 0.0
C1831 C 0.56689 0.86267 0.29122 0.0
C1832 C 0.54173 0.85169 0.29363 0.0
C1833 C 0.52574 0.85706 0.28549 0.0
C1834 C 0.59099 0.82807 0.3134 0.0
C1835 C 0.61617 0.84554 0.31642 0.0
C1836 C 0.57516 0.83346 0.30508 0.0
C1837 C 0.58397 0.85673 0.29989 0.0
C1838 C 0.60926 0.87427 0.30312 0.0
C1839 C 0.6252 0.86862 0.3111 0.0
H1840 H 0.12957 0.64169 0.30814 0.0
H1841 H 0.0564 0.63056 0.29789 0.0
H1842 H 0.14425 0.68403 0.31741 0.0
H1843 H 0.07079 0.67279 0.30765 0.0
H1844 H 0.11244 0.75639 0.30813 0.0
H1845 H 0.09598 0.71302 0.30089 0.0
H1846 H 0.14293 0.71032 0.33641 0.0
H1847 H 0.16012 0.75402 0.34326 0.0
C1848 C 0.11652 0.64822 0.30818 0.0
C1849 C 0.09189 0.63295 0.30231 0.0
C1850 C 0.12489 0.67246 0.31353 0.0
C1851 C 0.10873 0.68188 0.31325 0.0
C1852 C 0.08385 0.66629 0.30777 0.0
C1853 C 0.07555 0.6421 0.30225 0.0
C1854 C 0.11918 0.74651 0.31442 0.0
C1855 C 0.13767 0.75861 0.3262 0.0
C1856 C 0.10961 0.72158 0.31034 0.0
C1857 C 0.1181 0.70813 0.31807 0.0
C1858 C 0.13627 0.7202 0.33005 0.0
C1859 C 0.14607 0.74522 0.33402 0.0
H1860 H 0.77282 0.02088 0.39809 0.0
H1861 H 0.82672 0.01622 0.37255 0.0
H1862 H 0.74259 0.97886 0.38916 0.0
H1863 H 0.79579 0.97523 0.36244 0.0
H1864 H 0.74522 0.89374 0.35823 0.0
H1865 H 0.77497 0.93536 0.36838 0.0
H1866 H 0.71616 0.95248 0.36939 0.0
H1867 H 0.68626 0.91019 0.36011 0.0
C1868 C 0.77827 0.01101 0.39052 0.0
C1869 C 0.80243 0.02206 0.3862 0.0
C1870 C 0.7607 0.98694 0.38517 0.0
C1871 C 0.76664 0.97342 0.3751 0.0
C1872 C 0.79058 0.98475 0.37044 0.0
C1873 C 0.80829 0.00859 0.37603 0.0
C1874 C 0.7387 0.90642 0.3607 0.0
C1875 C 0.71351 0.89884 0.35838 0.0
C1876 C 0.75578 0.9304 0.36641 0.0
C1877 C 0.74815 0.94757 0.36957 0.0
C1878 C 0.72278 0.93979 0.36732 0.0
C1879 C 0.70561 0.91559 0.36193 0.0
H1880 H 0.98134 0.78727 0.37941 0.0
H1881 H 0.02413 0.7877 0.41837 0.0
H1882 H 0.01682 0.80024 0.36568 0.0
H1883 H 0.05864 0.79749 0.40411 0.0
H1884 H 0.12602 0.83589 0.3799 0.0
H1885 H 0.09072 0.8263 0.39365 0.0
H1886 H 0.04193 0.79118 0.35354 0.0
H1887 H 0.07778 0.80297 0.33975 0.0
C1888 C 0.99824 0.79007 0.38515 0.0
C1889 C 0.99958 0.78669 0.40024 0.0
C1890 C 0.01868 0.79703 0.37706 0.0
C1891 C 0.04106 0.80012 0.38361 0.0
C1892 C 0.04217 0.79603 0.39859 0.0
C1893 C 0.02195 0.78978 0.4068 0.0
C1894 C 0.10769 0.82642 0.37405 0.0
C1895 C 0.10459 0.82029 0.35877 0.0
C1896 C 0.08728 0.82054 0.38197 0.0
C1897 C 0.06302 0.80753 0.37491 0.0
C1898 C 0.0601 0.80157 0.3595 0.0
C1899 C 0.08066 0.80821 0.35151 0.0
H1900 H 0.22348 0.22105 0.4087 0.0
H1901 H 0.26523 0.22729 0.37154 0.0
H1902 H 0.20463 0.2418 0.39644 0.0
H1903 H 0.24708 0.24894 0.35938 0.0
H1904 H 0.19311 0.26807 0.33613 0.0
H1905 H 0.20998 0.24473 0.34755 0.0
H1906 H 0.21499 0.28117 0.39022 0.0
H1907 H 0.19738 0.30353 0.37897 0.0
C1908 C 0.22885 0.2272 0.39797 0.0
C1909 C 0.24594 0.22279 0.39111 0.0
C1910 C 0.2181 0.23912 0.39093 0.0
C1911 C 0.22446 0.24725 0.37695 0.0
C1912 C 0.24149 0.24267 0.37005 0.0
C1913 C 0.25202 0.23042 0.37703 0.0
C1914 C 0.19771 0.27092 0.34795 0.0
C1915 C 0.19374 0.28751 0.35664 0.0
C1916 C 0.20753 0.25769 0.3545 0.0
C1917 C 0.21378 0.26097 0.36983 0.0
C1918 C 0.2099 0.27771 0.37844 0.0
C1919 C 0.19988 0.29067 0.37195 0.0
H1920 H 0.67017 0.51726 0.72021 0.0
H1921 H 0.6793 0.58553 0.73994 0.0
H1922 H 0.70232 0.5397 0.70439 0.0
H1923 H 0.71311 0.60805 0.72517 0.0
H1924 H 0.75578 0.6436 0.68765 0.0
H1925 H 0.72129 0.61878 0.70157 0.0
H1926 H 0.74424 0.5645 0.70248 0.0
H1927 H 0.77788 0.5889 0.68765 0.0
C1928 C 0.67905 0.53707 0.72125 0.0
C1929 C 0.67169 0.54946 0.73129 0.0
C1930 C 0.6979 0.55003 0.71229 0.0
C1931 C 0.71033 0.5758 0.71329 0.0
C1932 C 0.70361 0.58821 0.72373 0.0
C1933 C 0.68444 0.57524 0.73248 0.0
C1934 C 0.75311 0.62612 0.69062 0.0
C1935 C 0.76937 0.61808 0.68656 0.0
C1936 C 0.73354 0.61201 0.6988 0.0
C1937 C 0.7301 0.58976 0.7035 0.0
C1938 C 0.74603 0.58137 0.69899 0.0
C1939 C 0.76534 0.59531 0.69048 0.0
H1940 H 0.50173 0.15997 0.72205 0.0
H1941 H 0.44356 0.08971 0.73242 0.0
H1942 H 0.47107 0.16873 0.711 0.0
H1943 H 0.41269 0.0982 0.72107 0.0
H1944 H 0.36344 0.13159 0.71108 0.0
H1945 H 0.39353 0.1229 0.72327 0.0
H1946 H 0.44272 0.15654 0.6897 0.0
H1947 H 0.41309 0.16585 0.67783 0.0
C1948 C 0.48235 0.1463 0.72186 0.0
C1949 C 0.4751 0.12407 0.72801 0.0
C1950 C 0.46473 0.15128 0.71548 0.0
C1951 C 0.43933 0.13408 0.71497 0.0
C1952 C 0.43204 0.112 0.72138 0.0
C1953 C 0.44973 0.10709 0.72787 0.0
C1954 C 0.38068 0.1371 0.7063 0.0
C1955 C 0.38587 0.14952 0.6935 0.0
C1956 C 0.3979 0.13201 0.71326 0.0
C1957 C 0.42068 0.13911 0.70755 0.0
C1958 C 0.42564 0.15124 0.69463 0.0
C1959 C 0.40854 0.15645 0.68774 0.0
H1960 H 0.89226 0.37038 0.69402 0.0
H1961 H 0.94457 0.36501 0.72427 0.0
H1962 H 0.87689 0.32853 0.68372 0.0
H1963 H 0.92769 0.32245 0.71486 0.0
H1964 H 0.9051 0.25121 0.68781 0.0
H1965 H 0.92397 0.29492 0.6953 0.0
H1966 H 0.85195 0.28871 0.69006 0.0
H1967 H 0.83344 0.24536 0.68184 0.0
C1968 C 0.90066 0.36039 0.69842 0.0
C1969 C 0.91962 0.37115 0.71006 0.0
C1970 C 0.89149 0.33616 0.69268 0.0
C1971 C 0.90075 0.32189 0.69858 0.0
C1972 C 0.92019 0.33286 0.70993 0.0
C1973 C 0.92964 0.35723 0.71551 0.0
C1974 C 0.89336 0.25926 0.68823 0.0
C1975 C 0.86781 0.24492 0.68425 0.0
C1976 C 0.90415 0.2843 0.69259 0.0
C1977 C 0.88953 0.29545 0.69331 0.0
C1978 C 0.86392 0.28096 0.68934 0.0
C1979 C 0.85323 0.25603 0.68474 0.0
H1980 H 0.20433 0.96507 0.64494 0.0
H1981 H 0.20829 0.99055 0.60167 0.0
H1982 H 0.23441 0.00671 0.6553 0.0
H1983 H 0.23881 0.03201 0.61204 0.0
H1984 H 0.3104 0.09865 0.6354 0.0
H1985 H 0.28251 0.05639 0.62475 0.0
H1986 H 0.23371 0.0462 0.65862 0.0
H1987 H 0.26135 0.08813 0.66926 0.0
C1988 C 0.21156 0.97951 0.63764 0.0
C1989 C 0.20376 0.97445 0.62248 0.0
C1990 C 0.22885 0.00332 0.64357 0.0
C1991 C 0.23887 0.02256 0.63447 0.0
C1992 C 0.23159 0.01746 0.61928 0.0
C1993 C 0.21414 0.99369 0.61335 0.0
C1994 C 0.29374 0.08736 0.64057 0.0
C1995 C 0.28808 0.09675 0.65316 0.0
C1996 C 0.27776 0.06324 0.63444 0.0
C1997 C 0.25605 0.04803 0.64091 0.0
C1998 C 0.25048 0.05742 0.65352 0.0
C1999 C 0.26625 0.08152 0.65953 0.0
H2000 H 0.03024 0.22781 0.63887 0.0
H2001 H 0.98809 0.20037 0.59626 0.0
H2002 H 0.99267 0.21809 0.65035 0.0
H2003 H 0.95042 0.19082 0.60779 0.0
H2004 H 0.89308 0.20065 0.63226 0.0
H2005 H 0.93038 0.21041 0.62047 0.0
H2006 H 0.95438 0.18214 0.65581 0.0
H2007 H 0.91712 0.17262 0.66778 0.0
C2008 C 0.01294 0.21959 0.63194 0.0
C2009 C 0.01223 0.21471 0.61662 0.0
C2010 C 0.99136 0.21398 0.63854 0.0
C2011 C 0.96846 0.20346 0.63003 0.0
C2012 C 0.96778 0.19909 0.61467 0.0
C2013 C 0.9894 0.20464 0.60805 0.0
C2014 C 0.90627 0.19649 0.63757 0.0
C2015 C 0.90207 0.18591 0.65104 0.0
C2016 C 0.92762 0.20196 0.63072 0.0
C2017 C 0.94544 0.19712 0.63718 0.0
C2018 C 0.9412 0.18641 0.65062 0.0
C2019 C 0.91974 0.1808 0.65744 0.0
H2020 H 0.79694 0.80981 0.62594 0.0
H2021 H 0.72785 0.74311 0.61268 0.0
H2022 H 0.81302 0.78631 0.63778 0.0
H2023 H 0.74371 0.71953 0.62476 0.0
H2024 H 0.78943 0.6829 0.63377 0.0
H2025 H 0.77331 0.70644 0.62218 0.0
H2026 H 0.80857 0.76322 0.65849 0.0
H2027 H 0.82539 0.73994 0.6699 0.0
C2028 C 0.7851 0.79012 0.6257 0.0
C2029 C 0.76113 0.77828 0.6184 0.0
C2030 C 0.79428 0.77665 0.63252 0.0
C2031 C 0.77966 0.75103 0.63227 0.0
C2032 C 0.75563 0.7392 0.62498 0.0
C2033 C 0.7465 0.75268 0.61807 0.0
C2034 C 0.79374 0.70039 0.63932 0.0
C2035 C 0.80871 0.70954 0.65278 0.0
C2036 C 0.78435 0.71383 0.6327 0.0
C2037 C 0.78955 0.73669 0.63941 0.0
C2038 C 0.80447 0.74582 0.65291 0.0
C2039 C 0.81403 0.73243 0.6595 0.0
H2040 H 0.00929 0.81276 0.62585 0.0
H2041 H 1.00097 0.74458 0.60656 0.0
H2042 H 0.97408 0.78988 0.63986 0.0
H2043 H 0.9652 0.72184 0.62021 0.0
H2044 H 0.88512 0.69369 0.63134 0.0
H2045 H 0.9224 0.71673 0.61924 0.0
H2046 H 0.96053 0.76026 0.66031 0.0
H2047 H 0.92285 0.73689 0.67266 0.0
C2048 C 1.00019 0.79293 0.62468 0.0
C2049 C 0.00809 0.78057 0.61501 0.0
C2050 C 0.97996 0.77985 0.63272 0.0
C2051 C 0.96692 0.75411 0.63113 0.0
C2052 C 0.9748 0.74171 0.62155 0.0
C2053 C 0.9952 0.75476 0.61364 0.0
C2054 C 0.90136 0.70819 0.63788 0.0
C2055 C 0.90094 0.71351 0.65301 0.0
C2056 C 0.92281 0.72126 0.63092 0.0
C2057 C 0.9444 0.74019 0.63883 0.0
C2058 C 0.94407 0.74577 0.65394 0.0
C2059 C 0.92257 0.73239 0.66101 0.0
H2060 H 0.17784 0.1843 0.61965 0.0
H2061 H 0.24029 0.24387 0.60227 0.0
H2062 H 0.20583 0.17505 0.63381 0.0
H2063 H 0.26809 0.23394 0.61606 0.0
H2064 H 0.30454 0.18862 0.62955 0.0
H2065 H 0.27681 0.19886 0.61596 0.0
H2066 H 0.23977 0.19497 0.65504 0.0
H2067 H 0.26759 0.18475 0.66873 0.0
C2068 C 0.19751 0.19558 0.6189 0.0
C2069 C 0.20671 0.21491 0.60978 0.0
C2070 C 0.21353 0.19018 0.627 0.0
C2071 C 0.23914 0.20376 0.62605 0.0
C2072 C 0.2484 0.22297 0.61689 0.0
C2073 C 0.23241 0.22857 0.60893 0.0
C2074 C 0.29049 0.18991 0.63527 0.0
C2075 C 0.28826 0.18581 0.65024 0.0
C2076 C 0.2747 0.19594 0.62749 0.0
C2077 C 0.25612 0.19772 0.63443 0.0
C2078 C 0.25381 0.19355 0.64938 0.0
C2079 C 0.26983 0.18783 0.65723 0.0
H2080 H 0.72828 0.9693 0.63353 0.0
H2081 H 0.80308 0.98273 0.63722 0.0
H2082 H 0.74352 0.01219 0.64288 0.0
H2083 H 0.8183 0.02565 0.64618 0.0
H2084 H 0.82836 0.10426 0.63815 0.0
H2085 H 0.81264 0.06071 0.63094 0.0
H2086 H 0.77234 0.04172 0.66941 0.0
H2087 H 0.78859 0.08539 0.67694 0.0
C2088 C 0.74791 0.98142 0.63645 0.0
C2089 C 0.76456 0.97287 0.63475 0.0
C2090 C 0.75657 0.00578 0.6418 0.0
C2091 C 0.782 0.02198 0.64517 0.0
C2092 C 0.7986 0.01338 0.64361 0.0
C2093 C 0.78992 0.98892 0.63859 0.0
C2094 C 0.81616 0.0908 0.64507 0.0
C2095 C 0.80969 0.09813 0.65811 0.0
C2096 C 0.80729 0.06599 0.64097 0.0
C2097 C 0.79139 0.04811 0.64966 0.0
C2098 C 0.78459 0.05532 0.66258 0.0
C2099 C 0.79393 0.0802 0.66687 0.0
H2100 H 0.5003 0.34293 0.72371 0.0
H2101 H 0.44584 0.36583 0.72248 0.0
H2102 H 0.46848 0.30148 0.71353 0.0
H2103 H 0.41408 0.32446 0.71191 0.0
H2104 H 0.38036 0.25599 0.6748 0.0
H2105 H 0.41051 0.29739 0.68592 0.0
H2106 H 0.42518 0.2669 0.7237 0.0
H2107 H 0.3946 0.22551 0.71282 0.0
C2108 C 0.48152 0.33904 0.72118 0.0
C2109 C 0.47538 0.35739 0.72382 0.0
C2110 C 0.46339 0.31542 0.71545 0.0
C2111 C 0.43898 0.30997 0.71198 0.0
C2112 C 0.43285 0.32837 0.71449 0.0
C2113 C 0.4509 0.35187 0.72055 0.0
C2114 C 0.38994 0.25816 0.68551 0.0
C2115 C 0.38519 0.2376 0.69296 0.0
C2116 C 0.40704 0.28177 0.69187 0.0
C2117 C 0.42004 0.28514 0.70561 0.0
C2118 C 0.41535 0.26464 0.71306 0.0
C2119 C 0.39784 0.24106 0.70687 0.0
H2120 H 0.66825 0.15147 0.724 0.0
H2121 H 0.67631 0.09307 0.74111 0.0
H2122 H 0.70335 0.162 0.70977 0.0
H2123 H 0.71217 0.10451 0.72732 0.0
H2124 H 0.79173 0.153 0.71387 0.0
H2125 H 0.75571 0.14136 0.72747 0.0
H2126 H 0.71473 0.14259 0.68827 0.0
H2127 H 0.75084 0.15407 0.67451 0.0
C2128 C 0.67727 0.14068 0.72468 0.0
C2129 C 0.66912 0.12123 0.73373 0.0
C2130 C 0.69752 0.14685 0.71653 0.0
C2131 C 0.71049 0.13406 0.71739 0.0
C2132 C 0.70266 0.11485 0.72653 0.0
C2133 C 0.68215 0.1084 0.73452 0.0
C2134 C 0.77509 0.15087 0.70811 0.0
C2135 C 0.77424 0.15457 0.69307 0.0
C2136 C 0.75438 0.14401 0.71591 0.0
C2137 C 0.73237 0.14102 0.70895 0.0
C2138 C 0.7315 0.1449 0.69395 0.0
C2139 C 0.75215 0.15138 0.68606 0.0
H2140 H 0.89123 0.53206 0.70826 0.0
H2141 H 0.94627 0.5998 0.73316 0.0
H2142 H 0.87388 0.55406 0.69592 0.0
H2143 H 0.92822 0.62156 0.72111 0.0
H2144 H 0.86662 0.64065 0.71106 0.0
H2145 H 0.88667 0.61977 0.72177 0.0
H2146 H 0.8857 0.58785 0.67848 0.0
H2147 H 0.86563 0.60887 0.66763 0.0
C2148 C 0.89991 0.55169 0.71095 0.0
C2149 C 0.9202 0.56414 0.72174 0.0
C2150 C 0.88986 0.56425 0.70391 0.0
C2151 C 0.89966 0.58945 0.70761 0.0
C2152 C 0.92015 0.60203 0.71818 0.0
C2153 C 0.93041 0.58954 0.72512 0.0
C2154 C 0.87061 0.62915 0.70379 0.0
C2155 C 0.86448 0.62636 0.68849 0.0
C2156 C 0.88228 0.61738 0.70993 0.0
C2157 C 0.88783 0.60234 0.70094 0.0
C2158 C 0.88153 0.59932 0.68565 0.0
C2159 C 0.87011 0.61137 0.67946 0.0
H2160 H 0.42386 0.93467 0.16417 0.0
H2161 H 0.50128 0.96954 0.17984 0.0
H2162 H 0.43504 0.95106 0.14043 0.0
H2163 H 0.51233 0.9854 0.15604 0.0
H2164 H 0.52226 0.98589 0.10651 0.0
H2165 H 0.51052 0.96991 0.13029 0.0
H2166 H 0.45435 0.99058 0.12914 0.0
H2167 H 0.46583 0.00621 0.1052 0.0
C2168 C 0.44325 0.94598 0.16264 0.0
C2169 C 0.46162 0.95062 0.174 0.0
C2170 C 0.44965 0.95534 0.14899 0.0
C2171 C 0.47459 0.96945 0.14629 0.0
C2172 C 0.49295 0.97425 0.15765 0.0
C2173 C 0.48657 0.96506 0.17131 0.0
C2174 C 0.5073 0.98689 0.11128 0.0
C2175 C 0.495 0.99735 0.10393 0.0
C2176 C 0.50071 0.97793 0.12498 0.0
C2177 C 0.48151 0.979 0.13166 0.0
C2178 C 0.4691 0.98931 0.12427 0.0
C2179 C 0.47584 0.99848 0.11061 0.0
H2180 H 0.03703 0.49595 0.17864 0.0
H2181 H 0.98357 0.51891 0.18558 0.0
H2182 H 0.02526 0.48953 0.15223 0.0
H2183 H 0.97287 0.51391 0.1591 0.0
H2184 H 0.943 0.48112 0.11191 0.0
H2185 H 0.95278 0.48414 0.13838 0.0
H2186 H 0.02989 0.51312 0.1319 0.0
H2187 H 0.01988 0.5087 0.10539 0.0
C2188 C 0.02265 0.49948 0.17456 0.0
C2189 C 0.01127 0.50799 0.18426 0.0
C2190 C 0.01617 0.49616 0.15937 0.0
C2191 C 0.99826 0.50139 0.1535 0.0
C2192 C 0.98658 0.50949 0.16323 0.0
C2193 C 0.99295 0.51266 0.17841 0.0
C2194 C 0.962 0.48785 0.11611 0.0
C2195 C 0.98064 0.49464 0.10649 0.0
C2196 C 0.96766 0.48987 0.13132 0.0
C2197 C 0.99213 0.49888 0.1373 0.0
C2198 C 0.01078 0.50578 0.12768 0.0
C2199 C 0.0051 0.5036 0.11247 0.0
H2200 H 0.46968 0.46625 0.17906 0.0
H2201 H 0.46834 0.53092 0.16748 0.0
H2202 H 0.47661 0.45839 0.15358 0.0
H2203 H 0.47506 0.52309 0.14215 0.0
H2204 H 0.46789 0.49097 0.09516 0.0
H2205 H 0.45472 0.4922 0.11967 0.0
H2206 H 0.51324 0.48173 0.1383 0.0
H2207 H 0.52702 0.48126 0.11388 0.0
C2208 C 0.47042 0.47847 0.17099 0.0
C2209 C 0.46859 0.49921 0.17517 0.0
C2210 C 0.47455 0.4741 0.15649 0.0
C2211 C 0.47643 0.49017 0.14591 0.0
C2212 C 0.47349 0.51028 0.15001 0.0
C2213 C 0.46977 0.51484 0.1645 0.0
C2214 C 0.4781 0.48909 0.10447 0.0
C2215 C 0.49875 0.48633 0.10252 0.0
C2216 C 0.47041 0.48961 0.11849 0.0
C2217 C 0.48297 0.48708 0.13088 0.0
C2218 C 0.50301 0.48341 0.12892 0.0
C2219 C 0.51089 0.48315 0.11491 0.0
H2220 H 0.00805 0.5278 0.82943 0.0
H2221 H 0.94884 0.45504 0.83501 0.0
H2222 H 0.01951 0.53535 0.8561 0.0
H2223 H 0.9603 0.46252 0.86159 0.0
H2224 H 0.9734 0.49471 0.90969 0.0
H2225 H 0.96135 0.49014 0.88334 0.0
H2226 H 0.03717 0.51755 0.87445 0.0
H2227 H 0.04925 0.52144 0.90075 0.0
C2228 C 0.99739 0.51355 0.83639 0.0
C2229 C 0.97764 0.49082 0.8302 0.0
C2230 C 0.00403 0.51779 0.85159 0.0
C2231 C 0.99079 0.4995 0.86087 0.0
C2232 C 0.97069 0.477 0.8547 0.0
C2233 C 0.96426 0.47265 0.8395 0.0
C2234 C 0.98751 0.49958 0.90213 0.0
C2235 C 0.01229 0.50827 0.90736 0.0
C2236 C 0.98059 0.49707 0.88706 0.0
C2237 C 0.99832 0.50346 0.87689 0.0
C2238 C 0.02317 0.51275 0.88208 0.0
C2239 C 0.03007 0.51502 0.89716 0.0
H2240 H 0.49606 0.49248 0.82752 0.0
H2241 H 0.57229 0.51651 0.84156 0.0
H2242 H 0.48926 0.50077 0.85254 0.0
H2243 H 0.56591 0.52631 0.86662 0.0
H2244 H 0.53501 0.50534 0.91166 0.0
H2245 H 0.54617 0.50469 0.88666 0.0
H2246 H 0.49612 0.5295 0.87224 0.0
H2247 H 0.4836 0.52839 0.89703 0.0
C2248 C 0.5115 0.49985 0.83594 0.0
C2249 C 0.53461 0.50339 0.83255 0.0
C2250 C 0.50769 0.50497 0.85032 0.0
C2251 C 0.52697 0.51408 0.86173 0.0
C2252 C 0.55049 0.51888 0.85819 0.0
C2253 C 0.55426 0.51357 0.84377 0.0
C2254 C 0.52622 0.5105 0.90315 0.0
C2255 C 0.50804 0.5165 0.9064 0.0
C2256 C 0.53296 0.51054 0.8888 0.0
C2257 C 0.52194 0.51685 0.87731 0.0
C2258 C 0.50468 0.52405 0.88071 0.0
C2259 C 0.49773 0.52375 0.89503 0.0
H2260 H 0.49114 0.02021 0.82937 0.0
H2261 H 0.56908 0.06575 0.84334 0.0
H2262 H 0.48417 0.00408 0.85328 0.0
H2263 H 0.56205 0.04907 0.8673 0.0
H2264 H 0.54021 0.99417 0.90342 0.0
H2265 H 0.54879 0.01009 0.8793 0.0
H2266 H 0.48536 0.01996 0.87892 0.0
H2267 H 0.47661 0.00379 0.90287 0.0
C2268 C 0.50683 0.02691 0.83755 0.0
C2269 C 0.53066 0.04462 0.83441 0.0
C2270 C 0.5028 0.01758 0.85128 0.0
C2271 C 0.52248 0.02548 0.86229 0.0
C2272 C 0.54648 0.04252 0.85904 0.0
C2273 C 0.55052 0.05203 0.84528 0.0
C2274 C 0.52803 -0.00037 0.89814 0.0
C2275 C 0.50766 0.99762 0.90507 0.0
C2276 C 0.53309 0.00896 0.88438 0.0
C2277 C 0.51772 0.01622 0.87713 0.0
C2278 C 0.49742 0.01429 0.88411 0.0
C2279 C 0.49253 0.00522 0.89791 0.0
H2280 H 0.09361 0.27089 0.49811 0.0
H2281 H 0.17102 0.30857 0.51416 0.0
H2282 H 0.10434 0.28816 0.47466 0.0
H2283 H 0.18181 0.32455 0.49043 0.0
H2284 H 0.19347 0.36863 0.45115 0.0
H2285 H 0.1816 0.35306 0.47491 0.0
H2286 H 0.12169 0.28524 0.45287 0.0
H2287 H 0.13259 0.30141 0.42918 0.0
C2288 C 0.11293 0.28287 0.49669 0.0
C2289 C 0.13139 0.28825 0.50814 0.0
C2290 C 0.11913 0.29254 0.48311 0.0
C2291 C 0.144 0.30777 0.48052 0.0
C2292 C 0.16244 0.31318 0.49199 0.0
C2293 C 0.15624 0.30366 0.50559 0.0
C2294 C 0.17751 0.35054 0.45135 0.0
C2295 C 0.16406 0.33635 0.43814 0.0
C2296 C 0.1709 0.34142 0.46502 0.0
C2297 C 0.15071 0.31776 0.46592 0.0
C2298 C 0.13717 0.30363 0.45271 0.0
C2299 C 0.14368 0.31281 0.43905 0.0
H2300 H 0.70781 0.88549 0.51269 0.0
H2301 H 0.65482 0.80989 0.51753 0.0
H2302 H 0.69593 0.87839 0.48627 0.0
H2303 H 0.64235 0.80281 0.49108 0.0
H2304 H 0.64444 0.79288 0.44124 0.0
H2305 H 0.65621 0.79946 0.46772 0.0
H2306 H 0.66312 0.87119 0.46868 0.0
H2307 H 0.65198 0.86475 0.44215 0.0
C2308 C 0.69339 0.8674 0.50809 0.0
C2309 C 0.68215 0.84827 0.51716 0.0
C2310 C 0.68651 0.86333 0.49295 0.0
C2311 C 0.66806 0.84005 0.48651 0.0
C2312 C 0.65686 0.82088 0.49561 0.0
C2313 C 0.66392 0.82492 0.51077 0.0
C2314 C 0.64835 0.80998 0.44716 0.0
C2315 C 0.64733 0.82832 0.43964 0.0
C2316 C 0.65502 0.81374 0.46234 0.0
C2317 C 0.66065 0.83587 0.47037 0.0
C2318 C 0.65938 0.85411 0.46283 0.0
C2319 C 0.65292 0.85042 0.44763 0.0
H2320 H 0.17938 0.84257 0.51661 0.0
H2321 H 0.10445 0.82293 0.50221 0.0
H2322 H 0.18689 0.83677 0.49122 0.0
H2323 H 0.11196 0.81679 0.47663 0.0
H2324 H 0.13401 0.79077 0.43359 0.0
H2325 H 0.12335 0.79141 0.45901 0.0
H2326 H 0.19018 0.86129 0.46982 0.0
H2327 H 0.20086 0.86058 0.44459 0.0
C2328 C 0.16443 0.83679 0.50801 0.0
C2329 C 0.14145 0.83363 0.51138 0.0
C2330 C 0.16876 0.83351 0.49347 0.0
C2331 C 0.15017 0.82679 0.48192 0.0
C2332 C 0.12664 0.82201 0.48533 0.0
C2333 C 0.12232 0.82544 0.49995 0.0
C2334 C 0.14641 0.80621 0.44145 0.0
C2335 C 0.1683 0.82562 0.43713 0.0
C2336 C 0.14023 0.80663 0.45593 0.0
C2337 C 0.15602 0.8263 0.46641 0.0
C2338 C 0.1778 0.84573 0.46204 0.0
C2339 C 0.18381 0.84545 0.44756 0.0
H2340 H 0.67589 0.86352 0.16308 0.0
H2341 H 0.62759 0.7863 0.16684 0.0
H2342 H 0.68479 0.87082 0.18986 0.0
H2343 H 0.63733 0.79336 0.19341 0.0
H2344 H 0.64119 0.81561 0.24149 0.0
H2345 H 0.63057 0.81175 0.21507 0.0
H2346 H 0.70693 0.86259 0.20925 0.0
H2347 H 0.71735 0.86741 0.2358 0.0
C2348 C 0.66714 0.84813 0.16961 0.0
C2349 C 0.65115 0.82431 0.16282 0.0
C2350 C 0.67243 0.85226 0.18494 0.0
C2351 C 0.66179 0.83267 0.19378 0.0
C2352 C 0.64561 0.80893 0.18697 0.0
C2353 C 0.6403 0.80481 0.17169 0.0
C2354 C 0.65565 0.82633 0.23462 0.0
C2355 C 0.68015 0.84175 0.24078 0.0
C2356 C 0.64961 0.82388 0.21944 0.0
C2357 C 0.66793 0.8367 0.21002 0.0
C2358 C 0.69233 0.85258 0.2162 0.0
C2359 C 0.69836 0.8551 0.2314 0.0
H2360 H 0.21361 0.79574 0.17732 0.0
H2361 H 0.21564 0.86094 0.1636 0.0
H2362 H 0.20642 0.80546 0.2022 0.0
H2363 H 0.20813 0.87063 0.18856 0.0
H2364 H 0.15484 0.85034 0.22698 0.0
H2365 H 0.17003 0.84856 0.2032 0.0
H2366 H 0.22668 0.83774 0.2244 0.0
H2367 H 0.21222 0.84045 0.24831 0.0
C2368 C 0.21289 0.81237 0.17974 0.0
C2369 C 0.21516 0.82761 0.1686 0.0
C2370 C 0.20887 0.81798 0.19397 0.0
C2371 C 0.20663 0.83876 0.1973 0.0
C2372 C 0.20965 0.85444 0.18626 0.0
C2373 C 0.21412 0.84903 0.17205 0.0
C2374 C 0.17091 0.84819 0.22668 0.0
C2375 C 0.18209 0.84528 0.23963 0.0
C2376 C 0.17958 0.84713 0.21302 0.0
C2377 C 0.19945 0.84289 0.21195 0.0
C2378 C 0.21114 0.84075 0.22489 0.0
C2379 C 0.2027 0.84212 0.23857 0.0
H2380 H 0.15679 0.35742 0.16481 0.0
H2381 H 0.2351 0.39988 0.17843 0.0
H2382 H 0.14938 0.34097 0.18862 0.0
H2383 H 0.22759 0.38281 0.20228 0.0
H2384 H 0.20344 0.32689 0.23802 0.0
H2385 H 0.21253 0.34314 0.214 0.0
H2386 H 0.15172 0.35707 0.21445 0.0
H2387 H 0.1425 0.34064 0.23831 0.0
C2388 C 0.17248 0.36339 0.17289 0.0
C2389 C 0.19655 0.38037 0.16968 0.0
C2390 C 0.16819 0.35386 0.18657 0.0
C2391 C 0.18783 0.36078 0.19745 0.0
C2392 C 0.21203 0.37703 0.19412 0.0
C2393 C 0.21634 0.38677 0.18042 0.0
C2394 C 0.19195 0.33332 0.23295 0.0
C2395 C 0.17218 0.33238 0.24009 0.0
C2396 C 0.1973 0.34284 0.21925 0.0
C2397 C 0.18281 0.35133 0.21225 0.0
C2398 C 0.16311 0.35045 0.21944 0.0
C2399 C 0.15794 0.34122 0.23319 0.0
H2400 H 0.83605 0.64263 0.8472 0.0
H2401 H 0.75866 0.60326 0.83108 0.0
H2402 H 0.84656 0.65851 0.82338 0.0
H2403 H 0.76907 0.62024 0.80751 0.0
H2404 H 0.79745 0.6336 0.76201 0.0
H2405 H 0.78705 0.61751 0.78579 0.0
H2406 H 0.84519 0.68654 0.80765 0.0
H2407 H 0.85648 0.70216 0.78382 0.0
C2408 C 0.82122 0.63733 0.8386 0.0
C2409 C 0.79646 0.62151 0.84116 0.0
C2410 C 0.82725 0.64676 0.82494 0.0
C2411 C 0.80871 0.64076 0.81341 0.0
C2412 C 0.78394 0.62508 0.816 0.0
C2413 C 0.77791 0.61558 0.82965 0.0
C2414 C 0.80826 0.6453 0.77186 0.0
C2415 C 0.82793 0.66922 0.77088 0.0
C2416 C 0.80203 0.63615 0.78557 0.0
C2417 C 0.81521 0.65066 0.79876 0.0
C2418 C 0.83477 0.67464 0.79778 0.0
C2419 C 0.84105 0.68377 0.78407 0.0
H2420 H 0.37737 0.21379 0.84642 0.0
H2421 H 0.32991 0.13652 0.8505 0.0
H2422 H 0.36641 0.20654 0.81993 0.0
H2423 H 0.31981 0.12906 0.82383 0.0
H2424 H 0.28526 0.13137 0.77845 0.0
H2425 H 0.29667 0.13702 0.80492 0.0
H2426 H 0.3725 0.18793 0.79802 0.0
H2427 H 0.36089 0.18322 0.77166 0.0
C2428 C 0.36459 0.19524 0.84166 0.0
C2429 C 0.35437 0.17576 0.85059 0.0
C2430 C 0.35857 0.19102 0.82644 0.0
C2431 C 0.34228 0.16721 0.81975 0.0
C2432 C 0.33223 0.14766 0.82865 0.0
C2433 C 0.33822 0.15189 0.84391 0.0
C2434 C 0.30433 0.14388 0.7826 0.0
C2435 C 0.32212 0.15695 0.77294 0.0
C2436 C 0.31093 0.14688 0.79775 0.0
C2437 C 0.33548 0.16298 0.80359 0.0
C2438 C 0.35337 0.17564 0.7939 0.0
C2439 C 0.34676 0.17269 0.77876 0.0
H2440 H 0.84452 0.17842 0.84663 0.0
H2441 H 0.76593 0.14466 0.83489 0.0
H2442 H 0.8503 0.16932 0.82155 0.0
H2443 H 0.77149 0.13401 0.8098 0.0
H2444 H 0.79681 0.15258 0.76318 0.0
H2445 H 0.78696 0.15385 0.78845 0.0
H2446 H 0.84537 0.14 0.80293 0.0
H2447 H 0.85653 0.14076 0.77787 0.0
C2448 C 0.82838 0.16879 0.8387 0.0
C2449 C 0.80481 0.1627 0.84274 0.0
C2450 C 0.83165 0.16318 0.82431 0.0
C2451 C 0.81139 0.15096 0.81352 0.0
C2452 C 0.7876 0.14379 0.81772 0.0
C2453 C 0.78434 0.14962 0.83217 0.0
C2454 C 0.8077 0.14996 0.77175 0.0
C2455 C 0.82783 0.14706 0.76842 0.0
C2456 C 0.80174 0.15027 0.78627 0.0
C2457 C 0.81553 0.14734 0.79785 0.0
C2458 C 0.83467 0.1429 0.79438 0.0
C2459 C 0.84085 0.14295 0.7799 0.0
H2460 H 0.3035 0.1179 0.49873 0.0
H2461 H 0.3425 0.19644 0.49679 0.0
H2462 H 0.31371 0.12391 0.52522 0.0
H2463 H 0.35148 0.2025 0.52352 0.0
H2464 H 0.38653 0.20327 0.5691 0.0
H2465 H 0.37652 0.19804 0.54253 0.0
H2466 H 0.30389 0.1372 0.54736 0.0
H2467 H 0.31444 0.14144 0.57378 0.0
C2468 C 0.31428 0.13649 0.50395 0.0
C2469 C 0.32237 0.15669 0.49559 0.0
C2470 C 0.31981 0.13994 0.5192 0.0
C2471 C 0.33336 0.16369 0.52654 0.0
C2472 C 0.34125 0.18394 0.51821 0.0
C2473 C 0.33584 0.18048 0.5029 0.0
C2474 C 0.36854 0.18857 0.56448 0.0
C2475 C 0.35136 0.17269 0.5736 0.0
C2476 C 0.36266 0.18581 0.54925 0.0
C2477 C 0.3394 0.16718 0.54278 0.0
C2478 C 0.32211 0.15152 0.55193 0.0
C2479 C 0.32805 0.15417 0.56713 0.0
H2480 H 0.82547 0.15197 0.49157 0.0
H2481 H 0.90125 0.17624 0.50693 0.0
H2482 H 0.81725 0.15932 0.51654 0.0
H2483 H 0.893 0.18381 0.53209 0.0
H2484 H 0.86938 0.2111 0.57368 0.0
H2485 H 0.8803 0.20892 0.54848 0.0
H2486 H 0.81456 0.13779 0.53893 0.0
H2487 H 0.80356 0.1401 0.56391 0.0
C2488 C 0.84044 0.15905 0.5003 0.0
C2489 C 0.8639 0.16312 0.49733 0.0
C2490 C 0.83571 0.16322 0.5146 0.0
C2491 C 0.85434 0.1717 0.52632 0.0
C2492 C 0.87827 0.17726 0.52327 0.0
C2493 C 0.88301 0.17299 0.50888 0.0
C2494 C 0.85723 0.19509 0.56614 0.0
C2495 C 0.83558 0.17578 0.57076 0.0
C2496 C 0.86358 0.19377 0.55177 0.0
C2497 C 0.84822 0.17327 0.5417 0.0
C2498 C 0.82663 0.15398 0.54637 0.0
C2499 C 0.82043 0.15519 0.56073 0.0
H2500 H 0.89827 0.72712 0.50909 0.0
H2501 H 0.82018 0.68216 0.49541 0.0
H2502 H 0.89123 0.71115 0.53325 0.0
H2503 H 0.8132 0.6667 0.51952 0.0
H2504 H 0.80618 0.66887 0.56921 0.0
H2505 H 0.81482 0.68375 0.54493 0.0
H2506 H 0.87755 0.67269 0.54588 0.0
H2507 H 0.86908 0.65808 0.57033 0.0
C2508 C 0.87968 0.71364 0.51113 0.0
C2509 C 0.85978 0.70622 0.5003 0.0
C2510 C 0.87563 0.70453 0.52501 0.0
C2511 C 0.85159 0.6879 0.5284 0.0
C2512 C 0.83187 0.6799 0.51741 0.0
C2513 C 0.83591 0.68882 0.50356 0.0
C2514 C 0.82191 0.66976 0.5643 0.0
C2515 C 0.83689 0.66222 0.57173 0.0
C2516 C 0.82674 0.67807 0.55031 0.0
C2517 C 0.84681 0.6793 0.5434 0.0
C2518 C 0.86202 0.67208 0.5509 0.0
C2519 C 0.85702 0.6635 0.56486 0.0
loop_
_geom_bond_atom_site_label_1
_geom_bond_atom_site_label_2
_geom_bond_distance
_geom_bond_site_symmetry_2
_ccdc_geom_bond_type
C0 C1 1.391 . S
C0 C4 1.391 . S
C0 H42 0.948 . S
C1 C0 1.391 . S
C1 C2 1.391 . S
C2 C1 1.391 . S
C2 H58 0.947 . S
C2 C59 1.392 . S
C3 C4 1.391 . S
C3 C7 1.397 . S
C3 C59 1.419 . S
C4 C0 1.391 . S
C4 C3 1.391 . S
C4 C5 1.399 . S
C5 C4 1.399 . S
C5 C8 1.396 . S
C5 C17 1.453 . S
C5 C18 1.684 . S
H6 C30 0.948 . S
C7 C3 1.397 . S
C7 C8 1.394 . S
C7 C26 1.723 . S
C8 C5 1.396 . S
C8 C7 1.394 . S
C8 C38 1.723 . S
H9 C32 0.947 . S
H10 C33 0.948 . S
H11 C39 0.982 . S
H12 C40 0.979 . S
H13 C40 0.980 . S
H14 C40 0.983 . S
H15 C39 0.979 . S
H16 C39 0.977 . S
C17 C5 1.453 . S
C17 H46 0.982 . S
C17 H47 0.979 . S
C17 H48 0.977 . S
C18 C5 1.684 . S
C18 H43 0.979 . S
C18 H44 0.980 . S
C18 H45 0.983 . S
C19 C20 1.391 . S
C19 C24 1.391 . S
C19 H49 0.948 . S
C20 C19 1.391 . S
C20 C21 1.391 . S
C21 C20 1.391 . S
C21 C22 1.392 . S
C21 H50 0.947 . S
C22 C21 1.392 . S
C22 C23 1.419 . S
C22 H51 0.948 . S
C23 C22 1.419 . S
C23 C24 1.391 . S
C23 C27 1.397 . S
C24 C19 1.391 . S
C24 C23 1.391 . S
C24 C25 1.399 . S
C25 C24 1.399 . S
C25 C26 1.396 . S
C25 C28 1.453 . S
C25 C29 1.684 . S
C26 C7 1.723 . S
C26 C25 1.396 . S
C26 C27 1.394 . S
C27 C23 1.397 . S
C27 C26 1.394 . S
C27 C37 1.723 . S
C28 C25 1.453 . S
C28 H52 0.982 . S
C28 H53 0.979 . S
C28 H54 0.977 . S
C29 C25 1.684 . S
C29 H55 0.979 . S
C29 H56 0.980 . S
C29 H57 0.983 . S
C30 H6 0.948 . S
C30 C31 1.391 . S
C30 C35 1.391 . S
C31 C30 1.391 . S
C31 C32 1.391 . S
C32 H9 0.947 . S
C32 C31 1.391 . S
C32 C33 1.392 . S
C33 H10 0.948 . S
C33 C32 1.392 . S
C33 C34 1.419 . S
C34 C33 1.419 . S
C34 C35 1.391 . S
C34 C38 1.397 . S
C35 C30 1.391 . S
C35 C34 1.391 . S
C35 C36 1.399 . S
C36 C35 1.399 . S
C36 C37 1.396 . S
C36 C39 1.453 . S
C36 C40 1.684 . S
C37 C27 1.723 . S
C37 C36 1.396 . S
C37 C38 1.394 . S
C38 C8 1.723 . S
C38 C34 1.397 . S
C38 C37 1.394 . S
C39 H11 0.982 . S
C39 H15 0.979 . S
C39 H16 0.977 . S
C39 C36 1.453 . S
C40 H12 0.979 . S
C40 H13 0.980 . S
C40 H14 0.983 . S
C40 C36 1.684 . S
H41 C59 0.948 . S
H42 C0 0.948 . S
H43 C18 0.979 . S
H44 C18 0.980 . S
H45 C18 0.983 . S
H46 C17 0.982 . S
H47 C17 0.979 . S
H48 C17 0.977 . S
H49 C19 0.948 . S
H50 C21 0.947 . S
H51 C22 0.948 . S
H52 C28 0.982 . S
H53 C28 0.979 . S
H54 C28 0.977 . S
H55 C29 0.979 . S
H56 C29 0.980 . S
H57 C29 0.983 . S
H58 C2 0.947 . S
C59 C2 1.392 . S
C59 C3 1.419 . S
C59 H41 0.948 . S
C60 C61 1.391 . S
C60 C64 1.391 . S
C60 H102 0.948 . S
C61 C60 1.391 . S
C61 C62 1.391 . S
C62 C61 1.391 . S
C62 H118 0.947 . S
C62 C119 1.392 . S
C63 C64 1.391 . S
C63 C67 1.397 . S
C63 C119 1.419 . S
C64 C60 1.391 . S
C64 C63 1.391 . S
C64 C65 1.399 . S
C65 C64 1.399 . S
C65 C68 1.396 . S
C65 C77 1.453 . S
C65 C78 1.684 . S
H66 C90 0.948 . S
C67 C63 1.397 . S
C67 C68 1.394 . S
C67 C86 1.723 . S
C68 C65 1.396 . S
C68 C67 1.394 . S
C68 C98 1.723 . S
H69 C92 0.947 . S
H70 C93 0.948 . S
H71 C99 0.982 . S
H72 C100 0.979 . S
H73 C100 0.980 . S
H74 C100 0.983 . S
H75 C99 0.979 . S
H76 C99 0.977 . S
C77 C65 1.453 . S
C77 H106 0.982 . S
C77 H107 0.979 . S
C77 H108 0.977 . S
C78 C65 1.684 . S
C78 H103 0.979 . S
C78 H104 0.980 . S
C78 H105 0.983 . S
C79 C80 1.391 . S
C79 C84 1.391 . S
C79 H109 0.948 . S
C80 C79 1.391 . S
C80 C81 1.391 . S
C81 C80 1.391 . S
C81 C82 1.392 . S
C81 H110 0.947 . S
C82 C81 1.392 . S
C82 C83 1.419 . S
C82 H111 0.948 . S
C83 C82 1.419 . S
C83 C84 1.391 . S
C83 C87 1.397 . S
C84 C79 1.391 . S
C84 C83 1.391 . S
C84 C85 1.399 . S
C85 C84 1.399 . S
C85 C86 1.396 . S
C85 C88 1.453 . S
C85 C89 1.684 . S
C86 C67 1.723 . S
C86 C85 1.396 . S
C86 C87 1.394 . S
C87 C83 1.397 . S
C87 C86 1.394 . S
C87 C97 1.723 . S
C88 C85 1.453 . S
C88 H112 0.982 . S
C88 H113 0.979 . S
C88 H114 0.977 . S
C89 C85 1.684 . S
C89 H115 0.979 . S
C89 H116 0.980 . S
C89 H117 0.983 . S
C90 H66 0.948 . S
C90 C91 1.391 . S
C90 C95 1.391 . S
C91 C90 1.391 . S
C91 C92 1.391 . S
C92 H69 0.947 . S
C92 C91 1.391 . S
C92 C93 1.392 . S
C93 H70 0.948 . S
C93 C92 1.392 . S
C93 C94 1.419 . S
C94 C93 1.419 . S
C94 C95 1.391 . S
C94 C98 1.397 . S
C95 C90 1.391 . S
C95 C94 1.391 . S
C95 C96 1.399 . S
C96 C95 1.399 . S
C96 C97 1.396 . S
C96 C99 1.453 . S
C96 C100 1.684 . S
C97 C87 1.723 . S
C97 C96 1.396 . S
C97 C98 1.394 . S
C98 C68 1.723 . S
C98 C94 1.397 . S
C98 C97 1.394 . S
C99 H71 0.982 . S
C99 H75 0.979 . S
C99 H76 0.977 . S
C99 C96 1.453 . S
C100 H72 0.979 . S
C100 H73 0.980 . S
C100 H74 0.983 . S
C100 C96 1.684 . S
H101 C119 0.948 . S
H102 C60 0.948 . S
H103 C78 0.979 . S
H104 C78 0.980 . S
H105 C78 0.983 . S
H106 C77 0.982 . S
H107 C77 0.979 . S
H108 C77 0.977 . S
H109 C79 0.948 . S
H110 C81 0.947 . S
H111 C82 0.948 . S
H112 C88 0.982 . S
H113 C88 0.979 . S
H114 C88 0.977 . S
H115 C89 0.979 . S
H116 C89 0.980 . S
H117 C89 0.983 . S
H118 C62 0.947 . S
C119 C62 1.392 . S
C119 C63 1.419 . S
C119 H101 0.948 . S
C120 C121 1.391 . S
C120 C124 1.391 . S
C120 H162 0.948 . S
C121 C120 1.391 . S
C121 C122 1.391 . S
C122 C121 1.391 . S
C122 H178 0.947 . S
C122 C179 1.392 . S
C123 C124 1.391 . S
C123 C127 1.397 . S
C123 C179 1.419 . S
C124 C120 1.391 . S
C124 C123 1.391 . S
C124 C125 1.399 . S
C125 C124 1.399 . S
C125 C128 1.396 . S
C125 C137 1.453 . S
C125 C138 1.684 . S
H126 C150 0.948 . S
C127 C123 1.397 . S
C127 C128 1.394 . S
C127 C146 1.723 . S
C128 C125 1.396 . S
C128 C127 1.394 . S
C128 C158 1.723 . S
H129 C152 0.947 . S
H130 C153 0.948 . S
H131 C159 0.982 . S
H132 C160 0.979 . S
H133 C160 0.980 . S
H134 C160 0.983 . S
H135 C159 0.979 . S
H136 C159 0.977 . S
C137 C125 1.453 . S
C137 H166 0.982 . S
C137 H167 0.979 . S
C137 H168 0.977 . S
C138 C125 1.684 . S
C138 H163 0.979 . S
C138 H164 0.980 . S
C138 H165 0.983 . S
C139 C140 1.391 . S
C139 C144 1.391 . S
C139 H169 0.948 . S
C140 C139 1.391 . S
C140 C141 1.391 . S
C141 C140 1.391 . S
C141 C142 1.392 . S
C141 H170 0.947 . S
C142 C141 1.392 . S
C142 C143 1.419 . S
C142 H171 0.948 . S
C143 C142 1.419 . S
C143 C144 1.391 . S
C143 C147 1.397 . S
C144 C139 1.391 . S
C144 C143 1.391 . S
C144 C145 1.399 . S
C145 C144 1.399 . S
C145 C146 1.396 . S
C145 C148 1.453 . S
C145 C149 1.684 . S
C146 C127 1.723 . S
C146 C145 1.396 . S
C146 C147 1.394 . S
C147 C143 1.397 . S
C147 C146 1.394 . S
C147 C157 1.723 . S
C148 C145 1.453 . S
C148 H172 0.982 . S
C148 H173 0.979 . S
C148 H174 0.977 . S
C149 C145 1.684 . S
C149 H175 0.979 . S
C149 H176 0.980 . S
C149 H177 0.983 . S
C150 H126 0.948 . S
C150 C151 1.391 . S
C150 C155 1.391 . S
C151 C150 1.391 . S
C151 C152 1.391 . S
C152 H129 0.947 . S
C152 C151 1.391 . S
C152 C153 1.392 . S
C153 H130 0.948 . S
C153 C152 1.392 . S
C153 C154 1.419 . S
C154 C153 1.419 . S
C154 C155 1.391 . S
C154 C158 1.397 . S
C155 C150 1.391 . S
C155 C154 1.391 . S
C155 C156 1.399 . S
C156 C155 1.399 . S
C156 C157 1.396 . S
C156 C159 1.453 . S
C156 C160 1.684 . S
C157 C147 1.723 . S
C157 C156 1.396 . S
C157 C158 1.394 . S
C158 C128 1.723 . S
C158 C154 1.397 . S
C158 C157 1.394 . S
C159 H131 0.982 . S
C159 H135 0.979 . S
C159 H136 0.977 . S
C159 C156 1.453 . S
C160 H132 0.979 . S
C160 H133 0.980 . S
C160 H134 0.983 . S
C160 C156 1.684 . S
H161 C179 0.948 . S
H162 C120 0.948 . S
H163 C138 0.979 . S
H164 C138 0.980 . S
H165 C138 0.983 . S
H166 C137 0.982 . S
H167 C137 0.979 . S
H168 C137 0.977 . S
H169 C139 0.948 . S
H170 C141 0.947 . S
H171 C142 0.948 . S
H172 C148 0.982 . S
H173 C148 0.979 . S
H174 C148 0.977 . S
H175 C149 0.979 . S
H176 C149 0.980 . S
H177 C149 0.983 . S
H178 C122 0.947 . S
C179 C122 1.392 . S
C179 C123 1.419 . S
C179 H161 0.948 . S
C180 C181 1.391 . S
C180 C184 1.391 . S
C180 H222 0.948 . S
C181 C180 1.391 . S
C181 C182 1.391 . S
C182 C181 1.391 . S
C182 H238 0.947 . S
C182 C239 1.392 . S
C183 C184 1.391 . S
C183 C187 1.397 . S
C183 C239 1.419 . S
C184 C180 1.391 . S
C184 C183 1.391 . S
C184 C185 1.399 . S
C185 C184 1.399 . S
C185 C188 1.396 . S
C185 C197 1.453 . S
C185 C198 1.684 . S
H186 C210 0.948 . S
C187 C183 1.397 . S
C187 C188 1.394 . S
C187 C206 1.723 . S
C188 C185 1.396 . S
C188 C187 1.394 . S
C188 C218 1.723 . S
H189 C212 0.947 . S
H190 C213 0.948 . S
H191 C219 0.982 . S
H192 C220 0.979 . S
H193 C220 0.980 . S
H194 C220 0.983 . S
H195 C219 0.979 . S
H196 C219 0.977 . S
C197 C185 1.453 . S
C197 H226 0.982 . S
C197 H227 0.979 . S
C197 H228 0.977 . S
C198 C185 1.684 . S
C198 H223 0.979 . S
C198 H224 0.980 . S
C198 H225 0.983 . S
C199 C200 1.391 . S
C199 C204 1.391 . S
C199 H229 0.948 . S
C200 C199 1.391 . S
C200 C201 1.391 . S
C201 C200 1.391 . S
C201 C202 1.392 . S
C201 H230 0.947 . S
C202 C201 1.392 . S
C202 C203 1.419 . S
C202 H231 0.948 . S
C203 C202 1.419 . S
C203 C204 1.391 . S
C203 C207 1.397 . S
C204 C199 1.391 . S
C204 C203 1.391 . S
C204 C205 1.399 . S
C205 C204 1.399 . S
C205 C206 1.396 . S
C205 C208 1.453 . S
C205 C209 1.684 . S
C206 C187 1.723 . S
C206 C205 1.396 . S
C206 C207 1.394 . S
C207 C203 1.397 . S
C207 C206 1.394 . S
C207 C217 1.723 . S
C208 C205 1.453 . S
C208 H232 0.982 . S
C208 H233 0.979 . S
C208 H234 0.977 . S
C209 C205 1.684 . S
C209 H235 0.979 . S
C209 H236 0.980 . S
C209 H237 0.983 . S
C210 H186 0.948 . S
C210 C211 1.391 . S
C210 C215 1.391 . S
C211 C210 1.391 . S
C211 C212 1.391 . S
C212 H189 0.947 . S
C212 C211 1.391 . S
C212 C213 1.392 . S
C213 H190 0.948 . S
C213 C212 1.392 . S
C213 C214 1.419 . S
C214 C213 1.419 . S
C214 C215 1.391 . S
C214 C218 1.397 . S
C215 C210 1.391 . S
C215 C214 1.391 . S
C215 C216 1.399 . S
C216 C215 1.399 . S
C216 C217 1.396 . S
C216 C219 1.453 . S
C216 C220 1.684 . S
C217 C207 1.723 . S
C217 C216 1.396 . S
C217 C218 1.394 . S
C218 C188 1.723 . S
C218 C214 1.397 . S
C218 C217 1.394 . S
C219 H191 0.982 . S
C219 H195 0.979 . S
C219 H196 0.977 . S
C219 C216 1.453 . S
C220 H192 0.979 . S
C220 H193 0.980 . S
C220 H194 0.983 . S
C220 C216 1.684 . S
H221 C239 0.948 . S
H222 C180 0.948 . S
H223 C198 0.979 . S
H224 C198 0.980 . S
H225 C198 0.983 . S
H226 C197 0.982 . S
H227 C197 0.979 . S
H228 C197 0.977 . S
H229 C199 0.948 . S
H230 C201 0.947 . S
H231 C202 0.948 . S
H232 C208 0.982 . S
H233 C208 0.979 . S
H234 C208 0.977 . S
H235 C209 0.979 . S
H236 C209 0.980 . S
H237 C209 0.983 . S
H238 C182 0.947 . S
C239 C182 1.392 . S
C239 C183 1.419 . S
C239 H221 0.948 . S
C240 C241 1.391 . S
C240 C244 1.391 . S
C240 H282 0.948 . S
C241 C240 1.391 . S
C241 C242 1.391 . S
C242 C241 1.391 . S
C242 H298 0.947 . S
C242 C299 1.392 . S
C243 C244 1.391 . S
C243 C247 1.397 . S
C243 C299 1.419 . S
C244 C240 1.391 . S
C244 C243 1.391 . S
C244 C245 1.399 . S
C245 C244 1.399 . S
C245 C248 1.396 . S
C245 C257 1.453 . S
C245 C258 1.684 . S
H246 C270 0.948 . S
C247 C243 1.397 . S
C247 C248 1.394 . S
C247 C266 1.723 . S
C248 C245 1.396 . S
C248 C247 1.394 . S
C248 C278 1.723 . S
H249 C272 0.947 . S
H250 C273 0.948 . S
H251 C279 0.982 . S
H252 C280 0.979 . S
H253 C280 0.980 . S
H254 C280 0.983 . S
H255 C279 0.979 . S
H256 C279 0.977 . S
C257 C245 1.453 . S
C257 H286 0.982 . S
C257 H287 0.979 . S
C257 H288 0.977 . S
C258 C245 1.684 . S
C258 H283 0.979 . S
C258 H284 0.980 . S
C258 H285 0.983 . S
C259 C260 1.391 . S
C259 C264 1.391 . S
C259 H289 0.948 . S
C260 C259 1.391 . S
C260 C261 1.391 . S
C261 C260 1.391 . S
C261 C262 1.392 . S
C261 H290 0.947 . S
C262 C261 1.392 . S
C262 C263 1.419 . S
C262 H291 0.948 . S
C263 C262 1.419 . S
C263 C264 1.391 . S
C263 C267 1.397 . S
C264 C259 1.391 . S
C264 C263 1.391 . S
C264 C265 1.399 . S
C265 C264 1.399 . S
C265 C266 1.396 . S
C265 C268 1.453 . S
C265 C269 1.684 . S
C266 C247 1.723 . S
C266 C265 1.396 . S
C266 C267 1.394 . S
C267 C263 1.397 . S
C267 C266 1.394 . S
C267 C277 1.723 . S
C268 C265 1.453 . S
C268 H292 0.982 . S
C268 H293 0.979 . S
C268 H294 0.977 . S
C269 C265 1.684 . S
C269 H295 0.979 . S
C269 H296 0.980 . S
C269 H297 0.983 . S
C270 H246 0.948 . S
C270 C271 1.391 . S
C270 C275 1.391 . S
C271 C270 1.391 . S
C271 C272 1.391 . S
C272 H249 0.947 . S
C272 C271 1.391 . S
C272 C273 1.392 . S
C273 H250 0.948 . S
C273 C272 1.392 . S
C273 C274 1.419 . S
C274 C273 1.419 . S
C274 C275 1.391 . S
C274 C278 1.397 . S
C275 C270 1.391 . S
C275 C274 1.391 . S
C275 C276 1.399 . S
C276 C275 1.399 . S
C276 C277 1.396 . S
C276 C279 1.453 . S
C276 C280 1.684 . S
C277 C267 1.723 . S
C277 C276 1.396 . S
C277 C278 1.394 . S
C278 C248 1.723 . S
C278 C274 1.397 . S
C278 C277 1.394 . S
C279 H251 0.982 . S
C279 H255 0.979 . S
C279 H256 0.977 . S
C279 C276 1.453 . S
C280 H252 0.979 . S
C280 H253 0.980 . S
C280 H254 0.983 . S
C280 C276 1.684 . S
H281 C299 0.948 . S
H282 C240 0.948 . S
H283 C258 0.979 . S
H284 C258 0.980 . S
H285 C258 0.983 . S
H286 C257 0.982 . S
H287 C257 0.979 . S
H288 C257 0.977 . S
H289 C259 0.948 . S
H290 C261 0.947 . S
H291 C262 0.948 . S
H292 C268 0.982 . S
H293 C268 0.979 . S
H294 C268 0.977 . S
H295 C269 0.979 . S
H296 C269 0.980 . S
H297 C269 0.983 . S
H298 C242 0.947 . S
C299 C242 1.392 . S
C299 C243 1.419 . S
C299 H281 0.948 . S
C300 C301 1.391 . S
C300 C304 1.391 . S
C300 H342 0.948 . S
C301 C300 1.391 . S
C301 C302 1.391 . S
C302 C301 1.391 . S
C302 H358 0.947 . S
C302 C359 1.392 . S
C303 C304 1.391 . S
C303 C307 1.397 . S
C303 C359 1.419 . S
C304 C300 1.391 . S
C304 C303 1.391 . S
C304 C305 1.399 . S
C305 C304 1.399 . S
C305 C308 1.396 . S
C305 C317 1.453 . S
C305 C318 1.684 . S
H306 C330 0.948 . S
C307 C303 1.397 . S
C307 C308 1.394 . S
C307 C326 1.723 . S
C308 C305 1.396 . S
C308 C307 1.394 . S
C308 C338 1.723 . S
H309 C332 0.947 . S
H310 C333 0.948 . S
H311 C339 0.982 . S
H312 C340 0.979 . S
H313 C340 0.980 . S
H314 C340 0.983 . S
H315 C339 0.979 . S
H316 C339 0.977 . S
C317 C305 1.453 . S
C317 H346 0.982 . S
C317 H347 0.979 . S
C317 H348 0.977 . S
C318 C305 1.684 . S
C318 H343 0.979 . S
C318 H344 0.980 . S
C318 H345 0.983 . S
C319 C320 1.391 . S
C319 C324 1.391 . S
C319 H349 0.948 . S
C320 C319 1.391 . S
C320 C321 1.391 . S
C321 C320 1.391 . S
C321 C322 1.392 . S
C321 H350 0.947 . S
C322 C321 1.392 . S
C322 C323 1.419 . S
C322 H351 0.948 . S
C323 C322 1.419 . S
C323 C324 1.391 . S
C323 C327 1.397 . S
C324 C319 1.391 . S
C324 C323 1.391 . S
C324 C325 1.399 . S
C325 C324 1.399 . S
C325 C326 1.396 . S
C325 C328 1.453 . S
C325 C329 1.684 . S
C326 C307 1.723 . S
C326 C325 1.396 . S
C326 C327 1.394 . S
C327 C323 1.397 . S
C327 C326 1.394 . S
C327 C337 1.723 . S
C328 C325 1.453 . S
C328 H352 0.982 . S
C328 H353 0.979 . S
C328 H354 0.977 . S
C329 C325 1.684 . S
C329 H355 0.979 . S
C329 H356 0.980 . S
C329 H357 0.983 . S
C330 H306 0.948 . S
C330 C331 1.391 . S
C330 C335 1.391 . S
C331 C330 1.391 . S
C331 C332 1.391 . S
C332 H309 0.947 . S
C332 C331 1.391 . S
C332 C333 1.392 . S
C333 H310 0.948 . S
C333 C332 1.392 . S
C333 C334 1.419 . S
C334 C333 1.419 . S
C334 C335 1.391 . S
C334 C338 1.397 . S
C335 C330 1.391 . S
C335 C334 1.391 . S
C335 C336 1.399 . S
C336 C335 1.399 . S
C336 C337 1.396 . S
C336 C339 1.453 . S
C336 C340 1.684 . S
C337 C327 1.723 . S
C337 C336 1.396 . S
C337 C338 1.394 . S
C338 C308 1.723 . S
C338 C334 1.397 . S
C338 C337 1.394 . S
C339 H311 0.982 . S
C339 H315 0.979 . S
C339 H316 0.977 . S
C339 C336 1.453 . S
C340 H312 0.979 . S
C340 H313 0.980 . S
C340 H314 0.983 . S
C340 C336 1.684 . S
H341 C359 0.948 . S
H342 C300 0.948 . S
H343 C318 0.979 . S
H344 C318 0.980 . S
H345 C318 0.983 . S
H346 C317 0.982 . S
H347 C317 0.979 . S
H348 C317 0.977 . S
H349 C319 0.948 . S
H350 C321 0.947 . S
H351 C322 0.948 . S
H352 C328 0.982 . S
H353 C328 0.979 . S
H354 C328 0.977 . S
H355 C329 0.979 . S
H356 C329 0.980 . S
H357 C329 0.983 . S
H358 C302 0.947 . S
C359 C302 1.392 . S
C359 C303 1.419 . S
C359 H341 0.948 . S
C360 C361 1.391 . S
C360 C364 1.391 . S
C360 H402 0.948 . S
C361 C360 1.391 . S
C361 C362 1.391 . S
C362 C361 1.391 . S
C362 H418 0.947 . S
C362 C419 1.392 . S
C363 C364 1.391 . S
C363 C367 1.397 . S
C363 C419 1.419 . S
C364 C360 1.391 . S
C364 C363 1.391 . S
C364 C365 1.399 . S
C365 C364 1.399 . S
C365 C368 1.396 . S
C365 C377 1.453 . S
C365 C378 1.684 . S
H366 C390 0.948 . S
C367 C363 1.397 . S
C367 C368 1.394 . S
C367 C386 1.723 . S
C368 C365 1.396 . S
C368 C367 1.394 . S
C368 C398 1.723 . S
H369 C392 0.947 . S
H370 C393 0.948 . S
H371 C399 0.982 . S
H372 C400 0.979 . S
H373 C400 0.980 . S
H374 C400 0.983 . S
H375 C399 0.979 . S
H376 C399 0.977 . S
C377 C365 1.453 . S
C377 H406 0.982 . S
C377 H407 0.979 . S
C377 H408 0.977 . S
C378 C365 1.684 . S
C378 H403 0.979 . S
C378 H404 0.980 . S
C378 H405 0.983 . S
C379 C380 1.391 . S
C379 C384 1.391 . S
C379 H409 0.948 . S
C380 C379 1.391 . S
C380 C381 1.391 . S
C381 C380 1.391 . S
C381 C382 1.392 . S
C381 H410 0.947 . S
C382 C381 1.392 . S
C382 C383 1.419 . S
C382 H411 0.948 . S
C383 C382 1.419 . S
C383 C384 1.391 . S
C383 C387 1.397 . S
C384 C379 1.391 . S
C384 C383 1.391 . S
C384 C385 1.399 . S
C385 C384 1.399 . S
C385 C386 1.396 . S
C385 C388 1.453 . S
C385 C389 1.684 . S
C386 C367 1.723 . S
C386 C385 1.396 . S
C386 C387 1.394 . S
C387 C383 1.397 . S
C387 C386 1.394 . S
C387 C397 1.723 . S
C388 C385 1.453 . S
C388 H412 0.982 1_655 S
C388 H413 0.979 . S
C388 H414 0.977 . S
C389 C385 1.684 . S
C389 H415 0.979 . S
C389 H416 0.980 . S
C389 H417 0.983 . S
C390 H366 0.948 . S
C390 C391 1.391 . S
C390 C395 1.391 . S
C391 C390 1.391 . S
C391 C392 1.391 . S
C392 H369 0.947 . S
C392 C391 1.391 . S
C392 C393 1.392 . S
C393 H370 0.948 . S
C393 C392 1.392 . S
C393 C394 1.419 . S
C394 C393 1.419 . S
C394 C395 1.391 . S
C394 C398 1.397 . S
C395 C390 1.391 . S
C395 C394 1.391 . S
C395 C396 1.399 . S
C396 C395 1.399 . S
C396 C397 1.396 . S
C396 C399 1.453 . S
C396 C400 1.684 . S
C397 C387 1.723 . S
C397 C396 1.396 . S
C397 C398 1.394 . S
C398 C368 1.723 . S
C398 C394 1.397 . S
C398 C397 1.394 . S
C399 H371 0.982 . S
C399 H375 0.979 . S
C399 H376 0.977 . S
C399 C396 1.453 . S
C400 H372 0.979 . S
C400 H373 0.980 . S
C400 H374 0.983 . S
C400 C396 1.684 . S
H401 C419 0.948 . S
H402 C360 0.948 . S
H403 C378 0.979 . S
H404 C378 0.980 . S
H405 C378 0.983 . S
H406 C377 0.982 . S
H407 C377 0.979 . S
H408 C377 0.977 . S
H409 C379 0.948 . S
H410 C381 0.947 . S
H411 C382 0.948 . S
H412 C388 0.982 1_455 S
H413 C388 0.979 . S
H414 C388 0.977 . S
H415 C389 0.979 . S
H416 C389 0.980 . S
H417 C389 0.983 . S
H418 C362 0.947 . S
C419 C362 1.392 . S
C419 C363 1.419 . S
C419 H401 0.948 . S
C420 C421 1.391 . S
C420 C424 1.391 . S
C420 H462 0.948 . S
C421 C420 1.391 . S
C421 C422 1.391 . S
C422 C421 1.391 . S
C422 H478 0.947 . S
C422 C479 1.392 . S
C423 C424 1.391 . S
C423 C427 1.397 . S
C423 C479 1.419 . S
C424 C420 1.391 . S
C424 C423 1.391 . S
C424 C425 1.399 . S
C425 C424 1.399 . S
C425 C428 1.396 . S
C425 C437 1.453 . S
C425 C438 1.684 . S
H426 C450 0.948 . S
C427 C423 1.397 . S
C427 C428 1.394 . S
C427 C446 1.723 . S
C428 C425 1.396 . S
C428 C427 1.394 . S
C428 C458 1.723 . S
H429 C452 0.947 . S
H430 C453 0.948 . S
H431 C459 0.982 . S
H432 C460 0.979 . S
H433 C460 0.980 . S
H434 C460 0.983 . S
H435 C459 0.979 . S
H436 C459 0.977 . S
C437 C425 1.453 . S
C437 H466 0.982 . S
C437 H467 0.979 . S
C437 H468 0.977 . S
C438 C425 1.684 . S
C438 H463 0.979 . S
C438 H464 0.980 . S
C438 H465 0.983 . S
C439 C440 1.391 . S
C439 C444 1.391 . S
C439 H469 0.948 . S
C440 C439 1.391 . S
C440 C441 1.391 . S
C441 C440 1.391 . S
C441 C442 1.392 . S
C441 H470 0.947 . S
C442 C441 1.392 . S
C442 C443 1.419 . S
C442 H471 0.948 . S
C443 C442 1.419 . S
C443 C444 1.391 . S
C443 C447 1.397 . S
C444 C439 1.391 . S
C444 C443 1.391 . S
C444 C445 1.399 . S
C445 C444 1.399 . S
C445 C446 1.396 . S
C445 C448 1.453 . S
C445 C449 1.684 . S
C446 C427 1.723 . S
C446 C445 1.396 . S
C446 C447 1.394 . S
C447 C443 1.397 . S
C447 C446 1.394 . S
C447 C457 1.723 . S
C448 C445 1.453 . S
C448 H472 0.982 . S
C448 H473 0.979 . S
C448 H474 0.977 . S
C449 C445 1.684 . S
C449 H475 0.979 . S
C449 H476 0.980 . S
C449 H477 0.983 . S
C450 H426 0.948 . S
C450 C451 1.391 . S
C450 C455 1.391 . S
C451 C450 1.391 . S
C451 C452 1.391 . S
C452 H429 0.947 . S
C452 C451 1.391 . S
C452 C453 1.392 . S
C453 H430 0.948 . S
C453 C452 1.392 . S
C453 C454 1.419 . S
C454 C453 1.419 . S
C454 C455 1.391 . S
C454 C458 1.397 . S
C455 C450 1.391 . S
C455 C454 1.391 . S
C455 C456 1.399 . S
C456 C455 1.399 . S
C456 C457 1.396 . S
C456 C459 1.453 . S
C456 C460 1.684 . S
C457 C447 1.723 . S
C457 C456 1.396 . S
C457 C458 1.394 . S
C458 C428 1.723 . S
C458 C454 1.397 . S
C458 C457 1.394 . S
C459 H431 0.982 . S
C459 H435 0.979 . S
C459 H436 0.977 . S
C459 C456 1.453 . S
C460 H432 0.979 . S
C460 H433 0.980 . S
C460 H434 0.983 . S
C460 C456 1.684 . S
H461 C479 0.948 . S
H462 C420 0.948 . S
H463 C438 0.979 . S
H464 C438 0.980 . S
H465 C438 0.983 . S
H466 C437 0.982 . S
H467 C437 0.979 . S
H468 C437 0.977 . S
H469 C439 0.948 . S
H470 C441 0.947 . S
H471 C442 0.948 . S
H472 C448 0.982 . S
H473 C448 0.979 . S
H474 C448 0.977 . S
H475 C449 0.979 . S
H476 C449 0.980 . S
H477 C449 0.983 . S
H478 C422 0.947 . S
C479 C422 1.392 . S
C479 C423 1.419 . S
C479 H461 0.948 . S
C480 C481 1.391 . S
C480 C484 1.391 . S
C480 H522 0.948 . S
C481 C480 1.391 . S
C481 C482 1.391 . S
C482 C481 1.391 . S
C482 H538 0.947 . S
C482 C539 1.392 . S
C483 C484 1.391 . S
C483 C487 1.397 . S
C483 C539 1.419 . S
C484 C480 1.391 . S
C484 C483 1.391 . S
C484 C485 1.399 . S
C485 C484 1.399 . S
C485 C488 1.396 . S
C485 C497 1.453 . S
C485 C498 1.684 . S
H486 C510 0.948 . S
C487 C483 1.397 . S
C487 C488 1.394 . S
C487 C506 1.723 . S
C488 C485 1.396 . S
C488 C487 1.394 . S
C488 C518 1.723 . S
H489 C512 0.947 . S
H490 C513 0.948 . S
H491 C519 0.982 . S
H492 C520 0.979 . S
H493 C520 0.980 . S
H494 C520 0.983 . S
H495 C519 0.979 . S
H496 C519 0.977 . S
C497 C485 1.453 . S
C497 H526 0.982 . S
C497 H527 0.979 . S
C497 H528 0.977 . S
C498 C485 1.684 . S
C498 H523 0.979 . S
C498 H524 0.980 . S
C498 H525 0.983 . S
C499 C500 1.391 . S
C499 C504 1.391 . S
C499 H529 0.948 . S
C500 C499 1.391 . S
C500 C501 1.391 . S
C501 C500 1.391 . S
C501 C502 1.392 . S
C501 H530 0.947 . S
C502 C501 1.392 . S
C502 C503 1.419 . S
C502 H531 0.948 . S
C503 C502 1.419 . S
C503 C504 1.391 . S
C503 C507 1.397 . S
C504 C499 1.391 . S
C504 C503 1.391 . S
C504 C505 1.399 . S
C505 C504 1.399 . S
C505 C506 1.396 . S
C505 C508 1.453 . S
C505 C509 1.684 . S
C506 C487 1.723 . S
C506 C505 1.396 . S
C506 C507 1.394 . S
C507 C503 1.397 . S
C507 C506 1.394 . S
C507 C517 1.723 . S
C508 C505 1.453 . S
C508 H532 0.982 . S
C508 H533 0.979 . S
C508 H534 0.977 . S
C509 C505 1.684 . S
C509 H535 0.979 . S
C509 H536 0.980 . S
C509 H537 0.983 . S
C510 H486 0.948 . S
C510 C511 1.391 . S
C510 C515 1.391 . S
C511 C510 1.391 . S
C511 C512 1.391 . S
C512 H489 0.947 . S
C512 C511 1.391 . S
C512 C513 1.392 . S
C513 H490 0.948 . S
C513 C512 1.392 . S
C513 C514 1.419 . S
C514 C513 1.419 . S
C514 C515 1.391 . S
C514 C518 1.397 . S
C515 C510 1.391 . S
C515 C514 1.391 . S
C515 C516 1.399 . S
C516 C515 1.399 . S
C516 C517 1.396 . S
C516 C519 1.453 . S
C516 C520 1.684 . S
C517 C507 1.723 . S
C517 C516 1.396 . S
C517 C518 1.394 . S
C518 C488 1.723 . S
C518 C514 1.397 . S
C518 C517 1.394 . S
C519 H491 0.982 . S
C519 H495 0.979 . S
C519 H496 0.977 . S
C519 C516 1.453 . S
C520 H492 0.979 . S
C520 H493 0.980 . S
C520 H494 0.983 . S
C520 C516 1.684 . S
H521 C539 0.948 . S
H522 C480 0.948 . S
H523 C498 0.979 . S
H524 C498 0.980 . S
H525 C498 0.983 . S
H526 C497 0.982 . S
H527 C497 0.979 . S
H528 C497 0.977 . S
H529 C499 0.948 . S
H530 C501 0.947 . S
H531 C502 0.948 . S
H532 C508 0.982 . S
H533 C508 0.979 . S
H534 C508 0.977 . S
H535 C509 0.979 . S
H536 C509 0.980 . S
H537 C509 0.983 . S
H538 C482 0.947 . S
C539 C482 1.392 . S
C539 C483 1.419 . S
C539 H521 0.948 . S
C540 C541 1.391 . S
C540 C544 1.391 . S
C540 H582 0.948 . S
C541 C540 1.391 . S
C541 C542 1.391 . S
C542 C541 1.391 . S
C542 H598 0.947 . S
C542 C599 1.392 . S
C543 C544 1.391 . S
C543 C547 1.397 . S
C543 C599 1.419 . S
C544 C540 1.391 . S
C544 C543 1.391 . S
C544 C545 1.399 . S
C545 C544 1.399 . S
C545 C548 1.396 . S
C545 C557 1.453 . S
C545 C558 1.684 . S
H546 C570 0.948 . S
C547 C543 1.397 . S
C547 C548 1.394 . S
C547 C566 1.723 . S
C548 C545 1.396 . S
C548 C547 1.394 . S
C548 C578 1.723 . S
H549 C572 0.947 . S
H550 C573 0.948 . S
H551 C579 0.982 . S
H552 C580 0.979 . S
H553 C580 0.980 . S
H554 C580 0.983 . S
H555 C579 0.979 . S
H556 C579 0.977 . S
C557 C545 1.453 . S
C557 H586 0.982 . S
C557 H587 0.979 . S
C557 H588 0.977 . S
C558 C545 1.684 . S
C558 H583 0.979 . S
C558 H584 0.980 . S
C558 H585 0.983 . S
C559 C560 1.391 . S
C559 C564 1.391 . S
C559 H589 0.948 . S
C560 C559 1.391 . S
C560 C561 1.391 . S
C561 C560 1.391 . S
C561 C562 1.392 . S
C561 H590 0.947 . S
C562 C561 1.392 . S
C562 C563 1.419 . S
C562 H591 0.948 . S
C563 C562 1.419 . S
C563 C564 1.391 . S
C563 C567 1.397 . S
C564 C559 1.391 . S
C564 C563 1.391 . S
C564 C565 1.399 . S
C565 C564 1.399 . S
C565 C566 1.396 . S
C565 C568 1.453 . S
C565 C569 1.684 . S
C566 C547 1.723 . S
C566 C565 1.396 . S
C566 C567 1.394 . S
C567 C563 1.397 . S
C567 C566 1.394 . S
C567 C577 1.723 . S
C568 C565 1.453 . S
C568 H592 0.982 . S
C568 H593 0.979 . S
C568 H594 0.977 . S
C569 C565 1.684 . S
C569 H595 0.979 . S
C569 H596 0.980 . S
C569 H597 0.983 . S
C570 H546 0.948 . S
C570 C571 1.391 . S
C570 C575 1.391 . S
C571 C570 1.391 . S
C571 C572 1.391 . S
C572 H549 0.947 . S
C572 C571 1.391 . S
C572 C573 1.392 . S
C573 H550 0.948 . S
C573 C572 1.392 . S
C573 C574 1.419 . S
C574 C573 1.419 . S
C574 C575 1.391 . S
C574 C578 1.397 . S
C575 C570 1.391 . S
C575 C574 1.391 . S
C575 C576 1.399 . S
C576 C575 1.399 . S
C576 C577 1.396 . S
C576 C579 1.453 . S
C576 C580 1.684 . S
C577 C567 1.723 . S
C577 C576 1.396 . S
C577 C578 1.394 . S
C578 C548 1.723 . S
C578 C574 1.397 . S
C578 C577 1.394 . S
C579 H551 0.982 . S
C579 H555 0.979 . S
C579 H556 0.977 . S
C579 C576 1.453 . S
C580 H552 0.979 . S
C580 H553 0.980 . S
C580 H554 0.983 . S
C580 C576 1.684 . S
H581 C599 0.948 . S
H582 C540 0.948 . S
H583 C558 0.979 . S
H584 C558 0.980 . S
H585 C558 0.983 . S
H586 C557 0.982 . S
H587 C557 0.979 . S
H588 C557 0.977 . S
H589 C559 0.948 . S
H590 C561 0.947 . S
H591 C562 0.948 . S
H592 C568 0.982 . S
H593 C568 0.979 . S
H594 C568 0.977 . S
H595 C569 0.979 . S
H596 C569 0.980 . S
H597 C569 0.983 . S
H598 C542 0.947 . S
C599 C542 1.392 . S
C599 C543 1.419 . S
C599 H581 0.948 . S
C600 C601 1.391 . S
C600 C604 1.391 . S
C600 H642 0.948 . S
C601 C600 1.391 . S
C601 C602 1.391 . S
C602 C601 1.391 . S
C602 H658 0.947 . S
C602 C659 1.392 . S
C603 C604 1.391 . S
C603 C607 1.397 . S
C603 C659 1.419 . S
C604 C600 1.391 . S
C604 C603 1.391 . S
C604 C605 1.399 . S
C605 C604 1.399 . S
C605 C608 1.396 . S
C605 C617 1.453 . S
C605 C618 1.684 . S
H606 C630 0.948 . S
C607 C603 1.397 . S
C607 C608 1.394 . S
C607 C626 1.723 . S
C608 C605 1.396 . S
C608 C607 1.394 . S
C608 C638 1.723 . S
H609 C632 0.947 . S
H610 C633 0.948 . S
H611 C639 0.982 . S
H612 C640 0.979 . S
H613 C640 0.980 . S
H614 C640 0.983 . S
H615 C639 0.979 . S
H616 C639 0.977 . S
C617 C605 1.453 . S
C617 H646 0.982 . S
C617 H647 0.979 . S
C617 H648 0.977 . S
C618 C605 1.684 . S
C618 H643 0.979 . S
C618 H644 0.980 . S
C618 H645 0.983 . S
C619 C620 1.391 . S
C619 C624 1.391 . S
C619 H649 0.948 . S
C620 C619 1.391 . S
C620 C621 1.391 . S
C621 C620 1.391 . S
C621 C622 1.392 . S
C621 H650 0.947 . S
C622 C621 1.392 . S
C622 C623 1.419 . S
C622 H651 0.948 . S
C623 C622 1.419 . S
C623 C624 1.391 . S
C623 C627 1.397 . S
C624 C619 1.391 . S
C624 C623 1.391 . S
C624 C625 1.399 . S
C625 C624 1.399 . S
C625 C626 1.396 . S
C625 C628 1.453 . S
C625 C629 1.684 . S
C626 C607 1.723 . S
C626 C625 1.396 . S
C626 C627 1.394 . S
C627 C623 1.397 . S
C627 C626 1.394 . S
C627 C637 1.723 . S
C628 C625 1.453 . S
C628 H652 0.982 . S
C628 H653 0.979 . S
C628 H654 0.977 . S
C629 C625 1.684 . S
C629 H655 0.979 . S
C629 H656 0.980 . S
C629 H657 0.983 . S
C630 H606 0.948 . S
C630 C631 1.391 . S
C630 C635 1.391 . S
C631 C630 1.391 . S
C631 C632 1.391 . S
C632 H609 0.947 . S
C632 C631 1.391 . S
C632 C633 1.392 . S
C633 H610 0.948 . S
C633 C632 1.392 . S
C633 C634 1.419 . S
C634 C633 1.419 . S
C634 C635 1.391 . S
C634 C638 1.397 . S
C635 C630 1.391 . S
C635 C634 1.391 . S
C635 C636 1.399 . S
C636 C635 1.399 . S
C636 C637 1.396 . S
C636 C639 1.453 . S
C636 C640 1.684 . S
C637 C627 1.723 . S
C637 C636 1.396 . S
C637 C638 1.394 . S
C638 C608 1.723 . S
C638 C634 1.397 . S
C638 C637 1.394 . S
C639 H611 0.982 . S
C639 H615 0.979 . S
C639 H616 0.977 . S
C639 C636 1.453 . S
C640 H612 0.979 . S
C640 H613 0.980 . S
C640 H614 0.983 . S
C640 C636 1.684 . S
H641 C659 0.948 . S
H642 C600 0.948 . S
H643 C618 0.979 . S
H644 C618 0.980 . S
H645 C618 0.983 . S
H646 C617 0.982 . S
H647 C617 0.979 . S
H648 C617 0.977 . S
H649 C619 0.948 . S
H650 C621 0.947 . S
H651 C622 0.948 . S
H652 C628 0.982 . S
H653 C628 0.979 . S
H654 C628 0.977 . S
H655 C629 0.979 . S
H656 C629 0.980 . S
H657 C629 0.983 . S
H658 C602 0.947 . S
C659 C602 1.392 . S
C659 C603 1.419 . S
C659 H641 0.948 . S
C660 C661 1.391 . S
C660 C664 1.391 . S
C660 H702 0.948 . S
C661 C660 1.391 . S
C661 C662 1.391 . S
C662 C661 1.391 . S
C662 H718 0.947 . S
C662 C719 1.392 . S
C663 C664 1.391 . S
C663 C667 1.397 . S
C663 C719 1.419 . S
C664 C660 1.391 . S
C664 C663 1.391 . S
C664 C665 1.399 . S
C665 C664 1.399 . S
C665 C668 1.396 . S
C665 C677 1.453 . S
C665 C678 1.684 . S
H666 C690 0.948 . S
C667 C663 1.397 . S
C667 C668 1.394 . S
C667 C686 1.723 . S
C668 C665 1.396 . S
C668 C667 1.394 . S
C668 C698 1.723 . S
H669 C692 0.947 . S
H670 C693 0.948 . S
H671 C699 0.982 . S
H672 C700 0.979 . S
H673 C700 0.980 . S
H674 C700 0.983 . S
H675 C699 0.979 . S
H676 C699 0.977 . S
C677 C665 1.453 . S
C677 H706 0.982 . S
C677 H707 0.979 . S
C677 H708 0.977 . S
C678 C665 1.684 . S
C678 H703 0.979 . S
C678 H704 0.980 . S
C678 H705 0.983 . S
C679 C680 1.391 . S
C679 C684 1.391 . S
C679 H709 0.948 . S
C680 C679 1.391 . S
C680 C681 1.391 . S
C681 C680 1.391 . S
C681 C682 1.392 . S
C681 H710 0.947 . S
C682 C681 1.392 . S
C682 C683 1.419 . S
C682 H711 0.948 . S
C683 C682 1.419 . S
C683 C684 1.391 . S
C683 C687 1.397 . S
C684 C679 1.391 . S
C684 C683 1.391 . S
C684 C685 1.399 . S
C685 C684 1.399 . S
C685 C686 1.396 . S
C685 C688 1.453 . S
C685 C689 1.684 . S
C686 C667 1.723 . S
C686 C685 1.396 . S
C686 C687 1.394 . S
C687 C683 1.397 . S
C687 C686 1.394 . S
C687 C697 1.723 . S
C688 C685 1.453 . S
C688 H712 0.982 . S
C688 H713 0.979 . S
C688 H714 0.977 . S
C689 C685 1.684 . S
C689 H715 0.979 . S
C689 H716 0.980 . S
C689 H717 0.983 . S
C690 H666 0.948 . S
C690 C691 1.391 . S
C690 C695 1.391 . S
C691 C690 1.391 . S
C691 C692 1.391 . S
C692 H669 0.947 . S
C692 C691 1.391 . S
C692 C693 1.392 . S
C693 H670 0.948 . S
C693 C692 1.392 . S
C693 C694 1.419 . S
C694 C693 1.419 . S
C694 C695 1.391 . S
C694 C698 1.397 . S
C695 C690 1.391 . S
C695 C694 1.391 . S
C695 C696 1.399 . S
C696 C695 1.399 . S
C696 C697 1.396 . S
C696 C699 1.453 . S
C696 C700 1.684 . S
C697 C687 1.723 . S
C697 C696 1.396 . S
C697 C698 1.394 . S
C698 C668 1.723 . S
C698 C694 1.397 . S
C698 C697 1.394 . S
C699 H671 0.982 . S
C699 H675 0.979 . S
C699 H676 0.977 . S
C699 C696 1.453 . S
C700 H672 0.979 . S
C700 H673 0.980 . S
C700 H674 0.983 . S
C700 C696 1.684 . S
H701 C719 0.948 . S
H702 C660 0.948 . S
H703 C678 0.979 . S
H704 C678 0.980 . S
H705 C678 0.983 . S
H706 C677 0.982 . S
H707 C677 0.979 . S
H708 C677 0.977 . S
H709 C679 0.948 . S
H710 C681 0.947 . S
H711 C682 0.948 . S
H712 C688 0.982 . S
H713 C688 0.979 . S
H714 C688 0.977 . S
H715 C689 0.979 . S
H716 C689 0.980 . S
H717 C689 0.983 . S
H718 C662 0.947 . S
C719 C662 1.392 . S
C719 C663 1.419 . S
C719 H701 0.948 . S
C720 C721 1.391 . S
C720 C724 1.391 . S
C720 H762 0.948 . S
C721 C720 1.391 . S
C721 C722 1.391 . S
C722 C721 1.391 . S
C722 H778 0.947 . S
C722 C779 1.392 . S
C723 C724 1.391 . S
C723 C727 1.397 . S
C723 C779 1.419 . S
C724 C720 1.391 . S
C724 C723 1.391 . S
C724 C725 1.399 . S
C725 C724 1.399 . S
C725 C728 1.396 . S
C725 C737 1.453 . S
C725 C738 1.684 . S
H726 C750 0.948 . S
C727 C723 1.397 . S
C727 C728 1.394 . S
C727 C746 1.723 . S
C728 C725 1.396 . S
C728 C727 1.394 . S
C728 C758 1.723 . S
H729 C752 0.947 . S
H730 C753 0.948 . S
H731 C759 0.982 . S
H732 C760 0.979 . S
H733 C760 0.980 . S
H734 C760 0.983 . S
H735 C759 0.979 . S
H736 C759 0.977 . S
C737 C725 1.453 . S
C737 H766 0.982 . S
C737 H767 0.979 . S
C737 H768 0.977 . S
C738 C725 1.684 . S
C738 H763 0.979 . S
C738 H764 0.980 . S
C738 H765 0.983 . S
C739 C740 1.391 . S
C739 C744 1.391 . S
C739 H769 0.948 . S
C740 C739 1.391 . S
C740 C741 1.391 . S
C741 C740 1.391 . S
C741 C742 1.392 . S
C741 H770 0.947 . S
C742 C741 1.392 . S
C742 C743 1.419 . S
C742 H771 0.948 . S
C743 C742 1.419 . S
C743 C744 1.391 . S
C743 C747 1.397 . S
C744 C739 1.391 . S
C744 C743 1.391 . S
C744 C745 1.399 . S
C745 C744 1.399 . S
C745 C746 1.396 . S
C745 C748 1.453 . S
C745 C749 1.684 . S
C746 C727 1.723 . S
C746 C745 1.396 . S
C746 C747 1.394 . S
C747 C743 1.397 . S
C747 C746 1.394 . S
C747 C757 1.723 . S
C748 C745 1.453 . S
C748 H772 0.982 . S
C748 H773 0.979 . S
C748 H774 0.977 . S
C749 C745 1.684 . S
C749 H775 0.979 . S
C749 H776 0.980 . S
C749 H777 0.983 . S
C750 H726 0.948 . S
C750 C751 1.391 . S
C750 C755 1.391 . S
C751 C750 1.391 . S
C751 C752 1.391 . S
C752 H729 0.947 . S
C752 C751 1.391 . S
C752 C753 1.392 . S
C753 H730 0.948 . S
C753 C752 1.392 . S
C753 C754 1.419 . S
C754 C753 1.419 . S
C754 C755 1.391 . S
C754 C758 1.397 . S
C755 C750 1.391 . S
C755 C754 1.391 . S
C755 C756 1.399 . S
C756 C755 1.399 . S
C756 C757 1.396 . S
C756 C759 1.453 . S
C756 C760 1.684 . S
C757 C747 1.723 . S
C757 C756 1.396 . S
C757 C758 1.394 . S
C758 C728 1.723 . S
C758 C754 1.397 . S
C758 C757 1.394 . S
C759 H731 0.982 . S
C759 H735 0.979 . S
C759 H736 0.977 . S
C759 C756 1.453 . S
C760 H732 0.979 . S
C760 H733 0.980 . S
C760 H734 0.983 . S
C760 C756 1.684 . S
H761 C779 0.948 . S
H762 C720 0.948 . S
H763 C738 0.979 . S
H764 C738 0.980 . S
H765 C738 0.983 . S
H766 C737 0.982 . S
H767 C737 0.979 . S
H768 C737 0.977 . S
H769 C739 0.948 . S
H770 C741 0.947 . S
H771 C742 0.948 . S
H772 C748 0.982 . S
H773 C748 0.979 . S
H774 C748 0.977 . S
H775 C749 0.979 . S
H776 C749 0.980 . S
H777 C749 0.983 . S
H778 C722 0.947 . S
C779 C722 1.392 . S
C779 C723 1.419 . S
C779 H761 0.948 . S
C780 C781 1.391 . S
C780 C784 1.391 . S
C780 H822 0.948 . S
C781 C780 1.391 . S
C781 C782 1.391 . S
C782 C781 1.391 . S
C782 H838 0.947 . S
C782 C839 1.392 . S
C783 C784 1.391 . S
C783 C787 1.397 . S
C783 C839 1.419 . S
C784 C780 1.391 . S
C784 C783 1.391 . S
C784 C785 1.399 . S
C785 C784 1.399 . S
C785 C788 1.396 . S
C785 C797 1.453 . S
C785 C798 1.684 . S
H786 C810 0.948 . S
C787 C783 1.397 . S
C787 C788 1.394 . S
C787 C806 1.723 . S
C788 C785 1.396 . S
C788 C787 1.394 . S
C788 C818 1.723 . S
H789 C812 0.947 . S
H790 C813 0.948 . S
H791 C819 0.982 . S
H792 C820 0.979 . S
H793 C820 0.980 . S
H794 C820 0.983 . S
H795 C819 0.979 . S
H796 C819 0.977 . S
C797 C785 1.453 . S
C797 H826 0.982 . S
C797 H827 0.979 . S
C797 H828 0.977 . S
C798 C785 1.684 . S
C798 H823 0.979 . S
C798 H824 0.980 . S
C798 H825 0.983 . S
C799 C800 1.391 . S
C799 C804 1.391 . S
C799 H829 0.948 . S
C800 C799 1.391 . S
C800 C801 1.391 . S
C801 C800 1.391 . S
C801 C802 1.392 . S
C801 H830 0.947 . S
C802 C801 1.392 . S
C802 C803 1.419 . S
C802 H831 0.948 . S
C803 C802 1.419 . S
C803 C804 1.391 . S
C803 C807 1.397 . S
C804 C799 1.391 . S
C804 C803 1.391 . S
C804 C805 1.399 . S
C805 C804 1.399 . S
C805 C806 1.396 . S
C805 C808 1.453 . S
C805 C809 1.684 . S
C806 C787 1.723 . S
C806 C805 1.396 . S
C806 C807 1.394 . S
C807 C803 1.397 . S
C807 C806 1.394 . S
C807 C817 1.723 . S
C808 C805 1.453 . S
C808 H832 0.982 . S
C808 H833 0.979 . S
C808 H834 0.977 . S
C809 C805 1.684 . S
C809 H835 0.979 . S
C809 H836 0.980 . S
C809 H837 0.983 . S
C810 H786 0.948 . S
C810 C811 1.391 . S
C810 C815 1.391 . S
C811 C810 1.391 . S
C811 C812 1.391 . S
C812 H789 0.947 . S
C812 C811 1.391 . S
C812 C813 1.392 . S
C813 H790 0.948 . S
C813 C812 1.392 . S
C813 C814 1.419 . S
C814 C813 1.419 . S
C814 C815 1.391 . S
C814 C818 1.397 . S
C815 C810 1.391 . S
C815 C814 1.391 . S
C815 C816 1.399 . S
C816 C815 1.399 . S
C816 C817 1.396 . S
C816 C819 1.453 . S
C816 C820 1.684 . S
C817 C807 1.723 . S
C817 C816 1.396 . S
C817 C818 1.394 . S
C818 C788 1.723 . S
C818 C814 1.397 . S
C818 C817 1.394 . S
C819 H791 0.982 . S
C819 H795 0.979 . S
C819 H796 0.977 . S
C819 C816 1.453 . S
C820 H792 0.979 . S
C820 H793 0.980 . S
C820 H794 0.983 . S
C820 C816 1.684 . S
H821 C839 0.948 . S
H822 C780 0.948 . S
H823 C798 0.979 . S
H824 C798 0.980 . S
H825 C798 0.983 . S
H826 C797 0.982 . S
H827 C797 0.979 . S
H828 C797 0.977 . S
H829 C799 0.948 . S
H830 C801 0.947 . S
H831 C802 0.948 . S
H832 C808 0.982 . S
H833 C808 0.979 . S
H834 C808 0.977 . S
H835 C809 0.979 . S
H836 C809 0.980 . S
H837 C809 0.983 . S
H838 C782 0.947 . S
C839 C782 1.392 . S
C839 C783 1.419 . S
C839 H821 0.948 . S
C840 C841 1.391 . S
C840 C844 1.391 . S
C840 H882 0.948 . S
C841 C840 1.391 . S
C841 C842 1.391 . S
C842 C841 1.391 . S
C842 H898 0.947 . S
C842 C899 1.392 . S
C843 C844 1.391 . S
C843 C847 1.397 . S
C843 C899 1.419 . S
C844 C840 1.391 . S
C844 C843 1.391 . S
C844 C845 1.399 . S
C845 C844 1.399 . S
C845 C848 1.396 . S
C845 C857 1.453 . S
C845 C858 1.684 . S
H846 C870 0.948 . S
C847 C843 1.397 . S
C847 C848 1.394 . S
C847 C866 1.723 . S
C848 C845 1.396 . S
C848 C847 1.394 . S
C848 C878 1.723 . S
H849 C872 0.947 . S
H850 C873 0.948 . S
H851 C879 0.982 . S
H852 C880 0.979 . S
H853 C880 0.980 . S
H854 C880 0.983 . S
H855 C879 0.979 . S
H856 C879 0.977 . S
C857 C845 1.453 . S
C857 H886 0.982 . S
C857 H887 0.979 . S
C857 H888 0.977 . S
C858 C845 1.684 . S
C858 H883 0.979 . S
C858 H884 0.980 . S
C858 H885 0.983 . S
C859 C860 1.391 . S
C859 C864 1.391 . S
C859 H889 0.948 . S
C860 C859 1.391 . S
C860 C861 1.391 . S
C861 C860 1.391 . S
C861 C862 1.392 . S
C861 H890 0.947 . S
C862 C861 1.392 . S
C862 C863 1.419 . S
C862 H891 0.948 . S
C863 C862 1.419 . S
C863 C864 1.391 . S
C863 C867 1.397 . S
C864 C859 1.391 . S
C864 C863 1.391 . S
C864 C865 1.399 . S
C865 C864 1.399 . S
C865 C866 1.396 . S
C865 C868 1.453 . S
C865 C869 1.684 . S
C866 C847 1.723 . S
C866 C865 1.396 . S
C866 C867 1.394 . S
C867 C863 1.397 . S
C867 C866 1.394 . S
C867 C877 1.723 . S
C868 C865 1.453 . S
C868 H892 0.982 . S
C868 H893 0.979 . S
C868 H894 0.977 . S
C869 C865 1.684 . S
C869 H895 0.979 . S
C869 H896 0.980 . S
C869 H897 0.983 . S
C870 H846 0.948 . S
C870 C871 1.391 . S
C870 C875 1.391 . S
C871 C870 1.391 . S
C871 C872 1.391 . S
C872 H849 0.947 . S
C872 C871 1.391 . S
C872 C873 1.392 . S
C873 H850 0.948 . S
C873 C872 1.392 . S
C873 C874 1.419 . S
C874 C873 1.419 . S
C874 C875 1.391 . S
C874 C878 1.397 . S
C875 C870 1.391 . S
C875 C874 1.391 . S
C875 C876 1.399 . S
C876 C875 1.399 . S
C876 C877 1.396 . S
C876 C879 1.453 . S
C876 C880 1.684 . S
C877 C867 1.723 . S
C877 C876 1.396 . S
C877 C878 1.394 . S
C878 C848 1.723 . S
C878 C874 1.397 . S
C878 C877 1.394 . S
C879 H851 0.982 . S
C879 H855 0.979 . S
C879 H856 0.977 . S
C879 C876 1.453 . S
C880 H852 0.979 . S
C880 H853 0.980 . S
C880 H854 0.983 . S
C880 C876 1.684 . S
H881 C899 0.948 . S
H882 C840 0.948 . S
H883 C858 0.979 . S
H884 C858 0.980 . S
H885 C858 0.983 . S
H886 C857 0.982 . S
H887 C857 0.979 . S
H888 C857 0.977 . S
H889 C859 0.948 . S
H890 C861 0.947 . S
H891 C862 0.948 . S
H892 C868 0.982 . S
H893 C868 0.979 . S
H894 C868 0.977 . S
H895 C869 0.979 . S
H896 C869 0.980 . S
H897 C869 0.983 . S
H898 C842 0.947 . S
C899 C842 1.392 . S
C899 C843 1.419 . S
C899 H881 0.948 . S
C900 C901 1.391 . S
C900 C904 1.391 . S
C900 H942 0.948 . S
C901 C900 1.391 . S
C901 C902 1.391 . S
C902 C901 1.391 . S
C902 H958 0.947 . S
C902 C959 1.392 . S
C903 C904 1.391 . S
C903 C907 1.397 . S
C903 C959 1.419 . S
C904 C900 1.391 . S
C904 C903 1.391 . S
C904 C905 1.399 . S
C905 C904 1.399 . S
C905 C908 1.396 . S
C905 C917 1.453 . S
C905 C918 1.684 . S
H906 C930 0.948 . S
C907 C903 1.397 . S
C907 C908 1.394 . S
C907 C926 1.723 . S
C908 C905 1.396 . S
C908 C907 1.394 . S
C908 C938 1.723 . S
H909 C932 0.947 . S
H910 C933 0.948 . S
H911 C939 0.982 . S
H912 C940 0.979 . S
H913 C940 0.980 . S
H914 C940 0.983 . S
H915 C939 0.979 . S
H916 C939 0.977 . S
C917 C905 1.453 . S
C917 H946 0.982 . S
C917 H947 0.979 . S
C917 H948 0.977 . S
C918 C905 1.684 . S
C918 H943 0.979 . S
C918 H944 0.980 . S
C918 H945 0.983 . S
C919 C920 1.391 . S
C919 C924 1.391 . S
C919 H949 0.948 . S
C920 C919 1.391 . S
C920 C921 1.391 . S
C921 C920 1.391 . S
C921 C922 1.392 . S
C921 H950 0.947 . S
C922 C921 1.392 . S
C922 C923 1.419 . S
C922 H951 0.948 . S
C923 C922 1.419 . S
C923 C924 1.391 . S
C923 C927 1.397 . S
C924 C919 1.391 . S
C924 C923 1.391 . S
C924 C925 1.399 . S
C925 C924 1.399 . S
C925 C926 1.396 . S
C925 C928 1.453 . S
C925 C929 1.684 . S
C926 C907 1.723 . S
C926 C925 1.396 . S
C926 C927 1.394 . S
C927 C923 1.397 . S
C927 C926 1.394 . S
C927 C937 1.723 . S
C928 C925 1.453 . S
C928 H952 0.982 . S
C928 H953 0.979 . S
C928 H954 0.977 . S
C929 C925 1.684 . S
C929 H955 0.979 . S
C929 H956 0.980 . S
C929 H957 0.983 . S
C930 H906 0.948 . S
C930 C931 1.391 . S
C930 C935 1.391 . S
C931 C930 1.391 . S
C931 C932 1.391 . S
C932 H909 0.947 . S
C932 C931 1.391 . S
C932 C933 1.392 . S
C933 H910 0.948 . S
C933 C932 1.392 . S
C933 C934 1.419 . S
C934 C933 1.419 . S
C934 C935 1.391 . S
C934 C938 1.397 . S
C935 C930 1.391 . S
C935 C934 1.391 . S
C935 C936 1.399 . S
C936 C935 1.399 . S
C936 C937 1.396 . S
C936 C939 1.453 . S
C936 C940 1.684 . S
C937 C927 1.723 . S
C937 C936 1.396 . S
C937 C938 1.394 . S
C938 C908 1.723 . S
C938 C934 1.397 . S
C938 C937 1.394 . S
C939 H911 0.982 . S
C939 H915 0.979 . S
C939 H916 0.977 . S
C939 C936 1.453 . S
C940 H912 0.979 . S
C940 H913 0.980 . S
C940 H914 0.983 . S
C940 C936 1.684 . S
H941 C959 0.948 . S
H942 C900 0.948 . S
H943 C918 0.979 . S
H944 C918 0.980 . S
H945 C918 0.983 . S
H946 C917 0.982 . S
H947 C917 0.979 . S
H948 C917 0.977 . S
H949 C919 0.948 . S
H950 C921 0.947 . S
H951 C922 0.948 . S
H952 C928 0.982 . S
H953 C928 0.979 . S
H954 C928 0.977 . S
H955 C929 0.979 . S
H956 C929 0.980 . S
H957 C929 0.983 . S
H958 C902 0.947 . S
C959 C902 1.392 . S
C959 C903 1.419 . S
C959 H941 0.948 . S
C960 C961 1.391 . S
C960 C964 1.391 . S
C960 H1002 0.948 . S
C961 C960 1.391 . S
C961 C962 1.391 . S
C962 C961 1.391 . S
C962 H1018 0.947 . S
C962 C1019 1.392 . S
C963 C964 1.391 . S
C963 C967 1.397 . S
C963 C1019 1.419 . S
C964 C960 1.391 . S
C964 C963 1.391 . S
C964 C965 1.399 . S
C965 C964 1.399 . S
C965 C968 1.396 . S
C965 C977 1.453 . S
C965 C978 1.684 . S
H966 C990 0.948 . S
C967 C963 1.397 . S
C967 C968 1.394 . S
C967 C986 1.723 . S
C968 C965 1.396 . S
C968 C967 1.394 . S
C968 C998 1.723 . S
H969 C992 0.947 . S
H970 C993 0.948 . S
H971 C999 0.982 . S
H972 C1000 0.979 1_655 S
H973 C1000 0.980 . S
H974 C1000 0.983 . S
H975 C999 0.979 . S
H976 C999 0.977 . S
C977 C965 1.453 . S
C977 H1006 0.982 . S
C977 H1007 0.979 . S
C977 H1008 0.977 . S
C978 C965 1.684 . S
C978 H1003 0.979 . S
C978 H1004 0.980 . S
C978 H1005 0.983 . S
C979 C980 1.391 . S
C979 C984 1.391 . S
C979 H1009 0.948 . S
C980 C979 1.391 . S
C980 C981 1.391 . S
C981 C980 1.391 . S
C981 C982 1.392 . S
C981 H1010 0.947 . S
C982 C981 1.392 . S
C982 C983 1.419 . S
C982 H1011 0.948 . S
C983 C982 1.419 . S
C983 C984 1.391 . S
C983 C987 1.397 . S
C984 C979 1.391 . S
C984 C983 1.391 . S
C984 C985 1.399 . S
C985 C984 1.399 . S
C985 C986 1.396 . S
C985 C988 1.453 . S
C985 C989 1.684 . S
C986 C967 1.723 . S
C986 C985 1.396 . S
C986 C987 1.394 . S
C987 C983 1.397 . S
C987 C986 1.394 . S
C987 C997 1.723 . S
C988 C985 1.453 . S
C988 H1012 0.982 . S
C988 H1013 0.979 . S
C988 H1014 0.977 . S
C989 C985 1.684 . S
C989 H1015 0.979 1_455 S
C989 H1016 0.980 . S
C989 H1017 0.983 . S
C990 H966 0.948 . S
C990 C991 1.391 . S
C990 C995 1.391 . S
C991 C990 1.391 . S
C991 C992 1.391 . S
C992 H969 0.947 . S
C992 C991 1.391 . S
C992 C993 1.392 . S
C993 H970 0.948 . S
C993 C992 1.392 . S
C993 C994 1.419 . S
C994 C993 1.419 . S
C994 C995 1.391 . S
C994 C998 1.397 . S
C995 C990 1.391 . S
C995 C994 1.391 . S
C995 C996 1.399 . S
C996 C995 1.399 . S
C996 C997 1.396 . S
C996 C999 1.453 . S
C996 C1000 1.684 . S
C997 C987 1.723 . S
C997 C996 1.396 . S
C997 C998 1.394 . S
C998 C968 1.723 . S
C998 C994 1.397 . S
C998 C997 1.394 . S
C999 H971 0.982 . S
C999 H975 0.979 . S
C999 H976 0.977 . S
C999 C996 1.453 . S
C1000 H972 0.979 1_455 S
C1000 H973 0.980 . S
C1000 H974 0.983 . S
C1000 C996 1.684 . S
H1001 C1019 0.948 . S
H1002 C960 0.948 . S
H1003 C978 0.979 . S
H1004 C978 0.980 . S
H1005 C978 0.983 . S
H1006 C977 0.982 . S
H1007 C977 0.979 . S
H1008 C977 0.977 . S
H1009 C979 0.948 . S
H1010 C981 0.947 . S
H1011 C982 0.948 . S
H1012 C988 0.982 . S
H1013 C988 0.979 . S
H1014 C988 0.977 . S
H1015 C989 0.979 1_655 S
H1016 C989 0.980 . S
H1017 C989 0.983 . S
H1018 C962 0.947 . S
C1019 C962 1.392 . S
C1019 C963 1.419 . S
C1019 H1001 0.948 . S
C1020 C1021 1.391 . S
C1020 C1024 1.391 . S
C1020 H1062 0.948 . S
C1021 C1020 1.391 . S
C1021 C1022 1.391 . S
C1022 C1021 1.391 . S
C1022 H1078 0.947 . S
C1022 C1079 1.392 . S
C1023 C1024 1.391 . S
C1023 C1027 1.397 . S
C1023 C1079 1.419 . S
C1024 C1020 1.391 . S
C1024 C1023 1.391 . S
C1024 C1025 1.399 . S
C1025 C1024 1.399 . S
C1025 C1028 1.396 . S
C1025 C1037 1.453 . S
C1025 C1038 1.684 . S
H1026 C1050 0.948 . S
C1027 C1023 1.397 . S
C1027 C1028 1.394 . S
C1027 C1046 1.723 . S
C1028 C1025 1.396 . S
C1028 C1027 1.394 . S
C1028 C1058 1.723 . S
H1029 C1052 0.947 . S
H1030 C1053 0.948 . S
H1031 C1059 0.982 . S
H1032 C1060 0.979 . S
H1033 C1060 0.980 . S
H1034 C1060 0.983 . S
H1035 C1059 0.979 . S
H1036 C1059 0.977 . S
C1037 C1025 1.453 . S
C1037 H1066 0.982 . S
C1037 H1067 0.979 . S
C1037 H1068 0.977 . S
C1038 C1025 1.684 . S
C1038 H1063 0.979 . S
C1038 H1064 0.980 . S
C1038 H1065 0.983 . S
C1039 C1040 1.391 . S
C1039 C1044 1.391 . S
C1039 H1069 0.948 . S
C1040 C1039 1.391 . S
C1040 C1041 1.391 . S
C1041 C1040 1.391 . S
C1041 C1042 1.392 . S
C1041 H1070 0.947 . S
C1042 C1041 1.392 . S
C1042 C1043 1.419 . S
C1042 H1071 0.948 . S
C1043 C1042 1.419 . S
C1043 C1044 1.391 . S
C1043 C1047 1.397 . S
C1044 C1039 1.391 . S
C1044 C1043 1.391 . S
C1044 C1045 1.399 . S
C1045 C1044 1.399 . S
C1045 C1046 1.396 . S
C1045 C1048 1.453 . S
C1045 C1049 1.684 . S
C1046 C1027 1.723 . S
C1046 C1045 1.396 . S
C1046 C1047 1.394 . S
C1047 C1043 1.397 . S
C1047 C1046 1.394 . S
C1047 C1057 1.723 . S
C1048 C1045 1.453 . S
C1048 H1072 0.982 . S
C1048 H1073 0.979 . S
C1048 H1074 0.977 . S
C1049 C1045 1.684 . S
C1049 H1075 0.979 . S
C1049 H1076 0.980 . S
C1049 H1077 0.983 . S
C1050 H1026 0.948 . S
C1050 C1051 1.391 . S
C1050 C1055 1.391 . S
C1051 C1050 1.391 . S
C1051 C1052 1.391 . S
C1052 H1029 0.947 . S
C1052 C1051 1.391 . S
C1052 C1053 1.392 . S
C1053 H1030 0.948 . S
C1053 C1052 1.392 . S
C1053 C1054 1.419 . S
C1054 C1053 1.419 . S
C1054 C1055 1.391 . S
C1054 C1058 1.397 . S
C1055 C1050 1.391 . S
C1055 C1054 1.391 . S
C1055 C1056 1.399 . S
C1056 C1055 1.399 . S
C1056 C1057 1.396 . S
C1056 C1059 1.453 . S
C1056 C1060 1.684 . S
C1057 C1047 1.723 . S
C1057 C1056 1.396 . S
C1057 C1058 1.394 . S
C1058 C1028 1.723 . S
C1058 C1054 1.397 . S
C1058 C1057 1.394 . S
C1059 H1031 0.982 . S
C1059 H1035 0.979 . S
C1059 H1036 0.977 . S
C1059 C1056 1.453 . S
C1060 H1032 0.979 . S
C1060 H1033 0.980 . S
C1060 H1034 0.983 . S
C1060 C1056 1.684 . S
H1061 C1079 0.948 . S
H1062 C1020 0.948 . S
H1063 C1038 0.979 . S
H1064 C1038 0.980 . S
H1065 C1038 0.983 . S
H1066 C1037 0.982 . S
H1067 C1037 0.979 . S
H1068 C1037 0.977 . S
H1069 C1039 0.948 . S
H1070 C1041 0.947 . S
H1071 C1042 0.948 . S
H1072 C1048 0.982 . S
H1073 C1048 0.979 . S
H1074 C1048 0.977 . S
H1075 C1049 0.979 . S
H1076 C1049 0.980 . S
H1077 C1049 0.983 . S
H1078 C1022 0.947 . S
C1079 C1022 1.392 . S
C1079 C1023 1.419 . S
C1079 H1061 0.948 . S
Tb1080 C1090 2.825 . S
Tb1080 O1091 2.347 1_565 S
Tb1080 O1094 2.366 1_565 S
Tb1080 O1099 2.418 . S
Tb1080 O1100 2.384 . S
Tb1080 O1103 2.479 . S
Tb1080 O1104 2.458 1_565 S
Eu1081 O1092 2.418 . S
Eu1081 O1093 2.384 . S
Eu1081 O1096 2.479 . S
Eu1081 O1097 2.464 1_545 S
Eu1081 O1098 2.347 1_545 S
Eu1081 O1101 2.366 1_545 S
Eu1081 C1111 2.825 . S
C1082 O1098 1.259 . S
C1082 O1099 1.265 1_554 S
C1083 O1100 1.255 1_554 S
C1083 O1101 1.265 . S
C1084 C1086 1.380 . S
C1084 C1087 1.374 1_565 S
C1084 C1090 1.507 . S
C1085 C1086 1.384 . S
C1085 C1089 1.387 1_565 S
C1085 H1112 0.930 . S
C1086 C1084 1.380 . S
C1086 C1085 1.384 . S
C1086 H1113 0.931 . S
C1087 C1084 1.374 1_545 S
C1087 C1088 1.390 . S
C1087 H1114 0.930 . S
C1088 C1087 1.390 . S
C1088 C1089 1.391 . S
C1088 H1115 0.930 . S
C1089 C1085 1.387 1_545 S
C1089 C1088 1.391 . S
C1090 Tb1080 2.825 . S
C1090 C1084 1.507 . S
C1090 O1103 1.238 . S
C1090 O1104 1.227 1_565 S
O1091 Tb1080 2.347 1_545 S
O1091 C1095 1.259 . S
O1092 Eu1081 2.418 . S
O1092 C1095 1.265 1_554 S
O1093 Eu1081 2.384 . S
O1093 C1102 1.255 1_554 S
O1094 Tb1080 2.366 1_545 S
O1094 C1102 1.265 . S
C1095 O1091 1.259 . S
C1095 O1092 1.265 1_556 S
O1096 Eu1081 2.479 . S
O1096 C1111 1.238 . S
O1097 Eu1081 2.464 1_565 S
O1097 C1111 1.236 1_565 S
O1098 Eu1081 2.347 1_565 S
O1098 C1082 1.259 . S
O1099 Tb1080 2.418 . S
O1099 C1082 1.265 1_556 S
O1100 Tb1080 2.384 . S
O1100 C1083 1.255 1_556 S
O1101 Eu1081 2.366 1_565 S
O1101 C1083 1.265 . S
C1102 O1093 1.255 1_556 S
C1102 O1094 1.265 . S
O1103 Tb1080 2.479 . S
O1103 C1090 1.238 . S
O1104 Tb1080 2.458 1_545 S
O1104 C1090 1.227 1_545 S
C1105 C1108 1.380 . S
C1105 C1109 1.374 1_545 S
C1105 C1111 1.507 . S
C1106 C1107 1.387 1_565 S
C1106 C1110 1.391 . S
C1107 C1106 1.387 1_545 S
C1107 C1108 1.384 . S
C1107 H1116 0.930 . S
C1108 C1105 1.380 . S
C1108 C1107 1.384 . S
C1108 H1117 0.931 . S
C1109 C1105 1.374 1_565 S
C1109 C1110 1.390 . S
C1109 H1118 0.930 . S
C1110 C1106 1.391 . S
C1110 C1109 1.390 . S
C1110 H1119 0.930 . S
C1111 Eu1081 2.825 . S
C1111 O1096 1.238 . S
C1111 O1097 1.236 1_545 S
C1111 C1105 1.507 . S
H1112 C1085 0.930 . S
H1113 C1086 0.931 . S
H1114 C1087 0.930 . S
H1115 C1088 0.930 . S
H1116 C1107 0.930 . S
H1117 C1108 0.931 . S
H1118 C1109 0.930 . S
H1119 C1110 0.930 . S
Tb1120 C1130 2.825 . S
Tb1120 O1131 2.347 1_455 S
Tb1120 O1134 2.366 1_455 S
Tb1120 O1139 2.418 . S
Tb1120 O1140 2.384 1_556 S
Tb1120 O1143 2.479 . S
Tb1120 O1144 2.471 1_455 S
Eu1121 O1132 2.418 . S
Eu1121 O1133 2.384 1_554 S
Eu1121 O1136 2.479 . S
Eu1121 O1137 2.471 1_655 S
Eu1121 O1138 2.347 1_655 S
Eu1121 O1141 2.366 1_655 S
Eu1121 C1151 2.825 . S
C1122 O1138 1.259 . S
C1122 O1139 1.265 1_554 S
C1123 O1140 1.255 . S
C1123 O1141 1.265 . S
C1124 C1126 1.380 . S
C1124 C1127 1.374 1_455 S
C1124 C1130 1.507 . S
C1125 C1126 1.384 . S
C1125 C1129 1.387 1_455 S
C1125 H1152 0.930 . S
C1126 C1124 1.380 . S
C1126 C1125 1.384 . S
C1126 H1153 0.931 . S
C1127 C1124 1.374 1_655 S
C1127 C1128 1.390 . S
C1127 H1154 0.930 . S
C1128 C1127 1.390 . S
C1128 C1129 1.391 . S
C1128 H1155 0.930 . S
C1129 C1125 1.387 1_655 S
C1129 C1128 1.391 . S
C1130 Tb1120 2.825 . S
C1130 C1124 1.507 . S
C1130 O1143 1.238 . S
C1130 O1144 1.247 1_455 S
O1131 Tb1120 2.347 1_655 S
O1131 C1135 1.259 . S
O1132 Eu1121 2.418 . S
O1132 C1135 1.265 1_554 S
O1133 Eu1121 2.384 1_556 S
O1133 C1142 1.255 . S
O1134 Tb1120 2.366 1_655 S
O1134 C1142 1.265 . S
C1135 O1131 1.259 . S
C1135 O1132 1.265 1_556 S
O1136 Eu1121 2.479 . S
O1136 C1151 1.238 . S
O1137 Eu1121 2.471 1_455 S
O1137 C1151 1.247 1_455 S
O1138 Eu1121 2.347 1_455 S
O1138 C1122 1.259 . S
O1139 Tb1120 2.418 . S
O1139 C1122 1.265 1_556 S
O1140 Tb1120 2.384 1_554 S
O1140 C1123 1.255 . S
O1141 Eu1121 2.366 1_455 S
O1141 C1123 1.265 . S
C1142 O1133 1.255 . S
C1142 O1134 1.265 . S
O1143 Tb1120 2.479 . S
O1143 C1130 1.238 . S
O1144 Tb1120 2.471 1_655 S
O1144 C1130 1.247 1_655 S
C1145 C1148 1.380 . S
C1145 C1149 1.374 1_655 S
C1145 C1151 1.507 . S
C1146 C1147 1.387 1_455 S
C1146 C1150 1.391 . S
C1147 C1146 1.387 1_655 S
C1147 C1148 1.384 . S
C1147 H1156 0.930 . S
C1148 C1145 1.380 . S
C1148 C1147 1.384 . S
C1148 H1157 0.931 . S
C1149 C1145 1.374 1_455 S
C1149 C1150 1.390 . S
C1149 H1158 0.930 . S
C1150 C1146 1.391 . S
C1150 C1149 1.390 . S
C1150 H1159 0.930 . S
C1151 Eu1121 2.825 . S
C1151 O1136 1.238 . S
C1151 O1137 1.247 1_655 S
C1151 C1145 1.507 . S
H1152 C1125 0.930 . S
H1153 C1126 0.931 . S
H1154 C1127 0.930 . S
H1155 C1128 0.930 . S
H1156 C1147 0.930 . S
H1157 C1148 0.931 . S
H1158 C1149 0.930 . S
H1159 C1150 0.930 . S
Tb1160 C1170 2.825 . S
Tb1160 O1171 2.347 . S
Tb1160 O1174 2.366 . S
Tb1160 O1179 2.418 . S
Tb1160 O1180 2.408 . S
Tb1160 O1183 2.479 . S
Tb1160 O1184 2.471 . S
Eu1161 O1172 2.418 . S
Eu1161 O1173 2.384 1_556 S
Eu1161 O1176 2.479 . S
Eu1161 O1177 2.471 . S
Eu1161 O1178 2.347 . S
Eu1161 O1181 2.366 . S
Eu1161 C1191 2.825 . S
C1162 O1178 1.259 . S
C1162 O1179 1.265 1_556 S
C1163 O1180 1.227 1_556 S
C1163 O1181 1.265 . S
C1164 C1166 1.380 . S
C1164 C1167 1.374 . S
C1164 C1170 1.507 . S
C1165 C1166 1.384 . S
C1165 C1169 1.387 . S
C1165 H1192 0.930 . S
C1166 C1164 1.380 . S
C1166 C1165 1.384 . S
C1166 H1193 0.931 . S
C1167 C1164 1.374 . S
C1167 C1168 1.390 . S
C1167 H1194 0.930 . S
C1168 C1167 1.390 . S
C1168 C1169 1.391 . S
C1168 H1195 0.930 . S
C1169 C1165 1.387 . S
C1169 C1168 1.391 . S
C1170 Tb1160 2.825 . S
C1170 C1164 1.507 . S
C1170 O1183 1.238 . S
C1170 O1184 1.247 . S
O1171 Tb1160 2.347 . S
O1171 C1175 1.259 . S
O1172 Eu1161 2.418 . S
O1172 C1175 1.265 1_556 S
O1173 Eu1161 2.384 1_554 S
O1173 C1182 1.255 . S
O1174 Tb1160 2.366 . S
O1174 C1182 1.265 . S
C1175 O1171 1.259 . S
C1175 O1172 1.265 1_554 S
O1176 Eu1161 2.479 . S
O1176 C1191 1.238 . S
O1177 Eu1161 2.471 . S
O1177 C1191 1.247 . S
O1178 Eu1161 2.347 . S
O1178 C1162 1.259 . S
O1179 Tb1160 2.418 . S
O1179 C1162 1.265 1_554 S
O1180 Tb1160 2.408 . S
O1180 C1163 1.227 1_554 S
O1181 Eu1161 2.366 . S
O1181 C1163 1.265 . S
C1182 O1173 1.255 . S
C1182 O1174 1.265 . S
O1183 Tb1160 2.479 . S
O1183 C1170 1.238 . S
O1184 Tb1160 2.471 . S
O1184 C1170 1.247 . S
C1185 C1188 1.380 . S
C1185 C1189 1.374 . S
C1185 C1191 1.507 . S
C1186 C1187 1.387 . S
C1186 C1190 1.391 . S
C1187 C1186 1.387 . S
C1187 C1188 1.384 . S
C1187 H1196 0.930 . S
C1188 C1185 1.380 . S
C1188 C1187 1.384 . S
C1188 H1197 0.931 . S
C1189 C1185 1.374 . S
C1189 C1190 1.390 . S
C1189 H1198 0.930 . S
C1190 C1186 1.391 . S
C1190 C1189 1.390 . S
C1190 H1199 0.930 . S
C1191 Eu1161 2.825 . S
C1191 O1176 1.238 . S
C1191 O1177 1.247 . S
C1191 C1185 1.507 . S
H1192 C1165 0.930 . S
H1193 C1166 0.931 . S
H1194 C1167 0.930 . S
H1195 C1168 0.930 . S
H1196 C1187 0.930 . S
H1197 C1188 0.931 . S
H1198 C1189 0.930 . S
H1199 C1190 0.930 . S
Tb1200 C1210 2.825 . S
Tb1200 O1211 2.347 . S
Tb1200 O1214 2.366 . S
Tb1200 O1219 2.418 . S
Tb1200 O1220 2.384 . S
Tb1200 O1223 2.479 . S
Tb1200 O1224 2.471 . S
Eu1201 O1212 2.418 . S
Eu1201 O1213 2.384 . S
Eu1201 O1216 2.479 . S
Eu1201 O1217 2.471 . S
Eu1201 O1218 2.347 . S
Eu1201 O1221 2.366 . S
Eu1201 C1231 2.825 . S
C1202 O1218 1.259 . S
C1202 O1219 1.265 . S
C1203 O1220 1.255 . S
C1203 O1221 1.265 . S
C1204 C1206 1.380 . S
C1204 C1207 1.374 . S
C1204 C1210 1.507 . S
C1205 C1206 1.384 . S
C1205 C1209 1.387 . S
C1205 H1232 0.930 . S
C1206 C1204 1.380 . S
C1206 C1205 1.384 . S
C1206 H1233 0.931 . S
C1207 C1204 1.374 . S
C1207 C1208 1.390 . S
C1207 H1234 0.930 . S
C1208 C1207 1.390 . S
C1208 C1209 1.391 . S
C1208 H1235 0.930 . S
C1209 C1205 1.387 . S
C1209 C1208 1.391 . S
C1210 Tb1200 2.825 . S
C1210 C1204 1.507 . S
C1210 O1223 1.238 . S
C1210 O1224 1.247 . S
O1211 Tb1200 2.347 . S
O1211 C1215 1.259 . S
O1212 Eu1201 2.418 . S
O1212 C1215 1.265 . S
O1213 Eu1201 2.384 . S
O1213 C1222 1.255 . S
O1214 Tb1200 2.366 . S
O1214 C1222 1.265 . S
C1215 O1211 1.259 . S
C1215 O1212 1.265 . S
O1216 Eu1201 2.479 . S
O1216 C1231 1.238 . S
O1217 Eu1201 2.471 . S
O1217 C1231 1.247 . S
O1218 Eu1201 2.347 . S
O1218 C1202 1.259 . S
O1219 Tb1200 2.418 . S
O1219 C1202 1.265 . S
O1220 Tb1200 2.384 . S
O1220 C1203 1.255 . S
O1221 Eu1201 2.366 . S
O1221 C1203 1.265 . S
C1222 O1213 1.255 . S
C1222 O1214 1.265 . S
O1223 Tb1200 2.479 . S
O1223 C1210 1.238 . S
O1224 Tb1200 2.471 . S
O1224 C1210 1.247 . S
C1225 C1228 1.380 . S
C1225 C1229 1.374 . S
C1225 C1231 1.507 . S
C1226 C1227 1.387 . S
C1226 C1230 1.391 . S
C1227 C1226 1.387 . S
C1227 C1228 1.384 . S
C1227 H1236 0.930 . S
C1228 C1225 1.380 . S
C1228 C1227 1.384 . S
C1228 H1237 0.931 . S
C1229 C1225 1.374 . S
C1229 C1230 1.390 . S
C1229 H1238 0.930 . S
C1230 C1226 1.391 . S
C1230 C1229 1.390 . S
C1230 H1239 0.930 . S
C1231 Eu1201 2.825 . S
C1231 O1216 1.238 . S
C1231 O1217 1.247 . S
C1231 C1225 1.507 . S
H1232 C1205 0.930 . S
H1233 C1206 0.931 . S
H1234 C1207 0.930 . S
H1235 C1208 0.930 . S
H1236 C1227 0.930 . S
H1237 C1228 0.931 . S
H1238 C1229 0.930 . S
H1239 C1230 0.930 . S
Tb1240 C1250 2.825 . S
Tb1240 O1251 2.347 . S
Tb1240 O1254 2.366 . S
Tb1240 O1259 2.418 . S
Tb1240 O1260 2.384 . S
Tb1240 O1263 2.479 . S
Tb1240 O1264 2.471 . S
Eu1241 O1252 2.418 . S
Eu1241 O1253 2.384 . S
Eu1241 O1256 2.479 . S
Eu1241 O1257 2.471 . S
Eu1241 O1258 2.347 . S
Eu1241 O1261 2.366 . S
Eu1241 C1271 2.825 . S
C1242 O1258 1.259 . S
C1242 O1259 1.265 . S
C1243 O1260 1.255 . S
C1243 O1261 1.265 . S
C1244 C1246 1.380 . S
C1244 C1247 1.374 . S
C1244 C1250 1.507 . S
C1245 C1246 1.384 . S
C1245 C1249 1.387 . S
C1245 H1272 0.930 . S
C1246 C1244 1.380 . S
C1246 C1245 1.384 . S
C1246 H1273 0.931 . S
C1247 C1244 1.374 . S
C1247 C1248 1.390 . S
C1247 H1274 0.930 . S
C1248 C1247 1.390 . S
C1248 C1249 1.391 . S
C1248 H1275 0.930 . S
C1249 C1245 1.387 . S
C1249 C1248 1.391 . S
C1250 Tb1240 2.825 . S
C1250 C1244 1.507 . S
C1250 O1263 1.238 . S
C1250 O1264 1.247 . S
O1251 Tb1240 2.347 . S
O1251 C1255 1.259 . S
O1252 Eu1241 2.418 . S
O1252 C1255 1.265 . S
O1253 Eu1241 2.384 . S
O1253 C1262 1.255 . S
O1254 Tb1240 2.366 . S
O1254 C1262 1.265 . S
C1255 O1251 1.259 . S
C1255 O1252 1.265 . S
O1256 Eu1241 2.479 . S
O1256 C1271 1.238 . S
O1257 Eu1241 2.471 . S
O1257 C1271 1.247 . S
O1258 Eu1241 2.347 . S
O1258 C1242 1.259 . S
O1259 Tb1240 2.418 . S
O1259 C1242 1.265 . S
O1260 Tb1240 2.384 . S
O1260 C1243 1.255 . S
O1261 Eu1241 2.366 . S
O1261 C1243 1.265 . S
C1262 O1253 1.255 . S
C1262 O1254 1.265 . S
O1263 Tb1240 2.479 . S
O1263 C1250 1.238 . S
O1264 Tb1240 2.471 . S
O1264 C1250 1.247 . S
C1265 C1268 1.380 . S
C1265 C1269 1.374 . S
C1265 C1271 1.507 . S
C1266 C1267 1.387 . S
C1266 C1270 1.391 . S
C1267 C1266 1.387 . S
C1267 C1268 1.384 . S
C1267 H1276 0.930 . S
C1268 C1265 1.380 . S
C1268 C1267 1.384 . S
C1268 H1277 0.931 . S
C1269 C1265 1.374 . S
C1269 C1270 1.390 . S
C1269 H1278 0.930 . S
C1270 C1266 1.391 . S
C1270 C1269 1.390 . S
C1270 H1279 0.930 . S
C1271 Eu1241 2.825 . S
C1271 O1256 1.238 . S
C1271 O1257 1.247 . S
C1271 C1265 1.507 . S
H1272 C1245 0.930 . S
H1273 C1246 0.931 . S
H1274 C1247 0.930 . S
H1275 C1248 0.930 . S
H1276 C1267 0.930 . S
H1277 C1268 0.931 . S
H1278 C1269 0.930 . S
H1279 C1270 0.930 . S
Tb1280 C1290 2.825 . S
Tb1280 O1291 2.347 . S
Tb1280 O1294 2.366 . S
Tb1280 O1299 2.418 . S
Tb1280 O1300 2.384 . S
Tb1280 O1303 2.479 . S
Tb1280 O1304 2.471 . S
Eu1281 O1292 2.418 . S
Eu1281 O1293 2.384 . S
Eu1281 O1296 2.479 . S
Eu1281 O1297 2.471 . S
Eu1281 O1298 2.347 . S
Eu1281 O1301 2.366 . S
Eu1281 C1311 2.825 . S
C1282 O1298 1.259 . S
C1282 O1299 1.265 . S
C1283 O1300 1.255 . S
C1283 O1301 1.265 . S
C1284 C1286 1.380 . S
C1284 C1287 1.374 . S
C1284 C1290 1.507 . S
C1285 C1286 1.384 . S
C1285 C1289 1.387 . S
C1285 H1312 0.930 . S
C1286 C1284 1.380 . S
C1286 C1285 1.384 . S
C1286 H1313 0.931 . S
C1287 C1284 1.374 . S
C1287 C1288 1.390 . S
C1287 H1314 0.930 . S
C1288 C1287 1.390 . S
C1288 C1289 1.391 . S
C1288 H1315 0.930 . S
C1289 C1285 1.387 . S
C1289 C1288 1.391 . S
C1290 Tb1280 2.825 . S
C1290 C1284 1.507 . S
C1290 O1303 1.238 . S
C1290 O1304 1.247 . S
O1291 Tb1280 2.347 . S
O1291 C1295 1.259 . S
O1292 Eu1281 2.418 . S
O1292 C1295 1.265 . S
O1293 Eu1281 2.384 . S
O1293 C1302 1.255 . S
O1294 Tb1280 2.366 . S
O1294 C1302 1.265 . S
C1295 O1291 1.259 . S
C1295 O1292 1.265 . S
O1296 Eu1281 2.479 . S
O1296 C1311 1.238 . S
O1297 Eu1281 2.471 . S
O1297 C1311 1.247 . S
O1298 Eu1281 2.347 . S
O1298 C1282 1.259 . S
O1299 Tb1280 2.418 . S
O1299 C1282 1.265 . S
O1300 Tb1280 2.384 . S
O1300 C1283 1.255 . S
O1301 Eu1281 2.366 . S
O1301 C1283 1.265 . S
C1302 O1293 1.255 . S
C1302 O1294 1.265 . S
O1303 Tb1280 2.479 . S
O1303 C1290 1.238 . S
O1304 Tb1280 2.471 . S
O1304 C1290 1.247 . S
C1305 C1308 1.380 . S
C1305 C1309 1.374 . S
C1305 C1311 1.507 . S
C1306 C1307 1.387 . S
C1306 C1310 1.391 . S
C1307 C1306 1.387 . S
C1307 C1308 1.384 . S
C1307 H1316 0.930 . S
C1308 C1305 1.380 . S
C1308 C1307 1.384 . S
C1308 H1317 0.931 . S
C1309 C1305 1.374 . S
C1309 C1310 1.390 . S
C1309 H1318 0.930 . S
C1310 C1306 1.391 . S
C1310 C1309 1.390 . S
C1310 H1319 0.930 . S
C1311 Eu1281 2.825 . S
C1311 O1296 1.238 . S
C1311 O1297 1.247 . S
C1311 C1305 1.507 . S
H1312 C1285 0.930 . S
H1313 C1286 0.931 . S
H1314 C1287 0.930 . S
H1315 C1288 0.930 . S
H1316 C1307 0.930 . S
H1317 C1308 0.931 . S
H1318 C1309 0.930 . S
H1319 C1310 0.930 . S
Tb1320 C1330 2.825 . S
Tb1320 O1331 2.347 . S
Tb1320 O1334 2.366 . S
Tb1320 O1339 2.418 . S
Tb1320 O1340 2.384 . S
Tb1320 O1343 2.479 . S
Tb1320 O1344 2.471 . S
Eu1321 O1332 2.418 . S
Eu1321 O1333 2.384 . S
Eu1321 O1336 2.479 . S
Eu1321 O1337 2.471 . S
Eu1321 O1338 2.347 . S
Eu1321 O1341 2.366 . S
Eu1321 C1351 2.825 . S
C1322 O1338 1.259 . S
C1322 O1339 1.265 . S
C1323 O1340 1.255 . S
C1323 O1341 1.265 . S
C1324 C1326 1.380 . S
C1324 C1327 1.374 . S
C1324 C1330 1.507 . S
C1325 C1326 1.384 . S
C1325 C1329 1.387 . S
C1325 H1352 0.930 . S
C1326 C1324 1.380 . S
C1326 C1325 1.384 . S
C1326 H1353 0.931 . S
C1327 C1324 1.374 . S
C1327 C1328 1.390 . S
C1327 H1354 0.930 . S
C1328 C1327 1.390 . S
C1328 C1329 1.391 . S
C1328 H1355 0.930 . S
C1329 C1325 1.387 . S
C1329 C1328 1.391 . S
C1330 Tb1320 2.825 . S
C1330 C1324 1.507 . S
C1330 O1343 1.238 . S
C1330 O1344 1.247 . S
O1331 Tb1320 2.347 . S
O1331 C1335 1.259 . S
O1332 Eu1321 2.418 . S
O1332 C1335 1.265 . S
O1333 Eu1321 2.384 . S
O1333 C1342 1.255 . S
O1334 Tb1320 2.366 . S
O1334 C1342 1.265 . S
C1335 O1331 1.259 . S
C1335 O1332 1.265 . S
O1336 Eu1321 2.479 . S
O1336 C1351 1.238 . S
O1337 Eu1321 2.471 . S
O1337 C1351 1.247 . S
O1338 Eu1321 2.347 . S
O1338 C1322 1.259 . S
O1339 Tb1320 2.418 . S
O1339 C1322 1.265 . S
O1340 Tb1320 2.384 . S
O1340 C1323 1.255 . S
O1341 Eu1321 2.366 . S
O1341 C1323 1.265 . S
C1342 O1333 1.255 . S
C1342 O1334 1.265 . S
O1343 Tb1320 2.479 . S
O1343 C1330 1.238 . S
O1344 Tb1320 2.471 . S
O1344 C1330 1.247 . S
C1345 C1348 1.380 . S
C1345 C1349 1.374 . S
C1345 C1351 1.507 . S
C1346 C1347 1.387 . S
C1346 C1350 1.391 . S
C1347 C1346 1.387 . S
C1347 C1348 1.384 . S
C1347 H1356 0.930 . S
C1348 C1345 1.380 . S
C1348 C1347 1.384 . S
C1348 H1357 0.931 . S
C1349 C1345 1.374 . S
C1349 C1350 1.390 . S
C1349 H1358 0.930 . S
C1350 C1346 1.391 . S
C1350 C1349 1.390 . S
C1350 H1359 0.930 . S
C1351 Eu1321 2.825 . S
C1351 O1336 1.238 . S
C1351 O1337 1.247 . S
C1351 C1345 1.507 . S
H1352 C1325 0.930 . S
H1353 C1326 0.931 . S
H1354 C1327 0.930 . S
H1355 C1328 0.930 . S
H1356 C1347 0.930 . S
H1357 C1348 0.931 . S
H1358 C1349 0.930 . S
H1359 C1350 0.930 . S
Tb1360 C1370 2.825 . S
Tb1360 O1371 2.347 . S
Tb1360 O1374 2.366 . S
Tb1360 O1379 2.418 . S
Tb1360 O1380 2.384 . S
Tb1360 O1383 2.479 . S
Tb1360 O1384 2.471 . S
Eu1361 O1372 2.418 . S
Eu1361 O1373 2.384 . S
Eu1361 O1376 2.479 . S
Eu1361 O1377 2.471 . S
Eu1361 O1378 2.347 . S
Eu1361 O1381 2.366 . S
Eu1361 C1391 2.825 . S
C1362 O1378 1.259 . S
C1362 O1379 1.265 . S
C1363 O1380 1.255 . S
C1363 O1381 1.265 . S
C1364 C1366 1.380 . S
C1364 C1367 1.374 . S
C1364 C1370 1.507 . S
C1365 C1366 1.384 . S
C1365 C1369 1.387 . S
C1365 H1392 0.930 . S
C1366 C1364 1.380 . S
C1366 C1365 1.384 . S
C1366 H1393 0.931 . S
C1367 C1364 1.374 . S
C1367 C1368 1.390 . S
C1367 H1394 0.930 . S
C1368 C1367 1.390 . S
C1368 C1369 1.391 . S
C1368 H1395 0.930 . S
C1369 C1365 1.387 . S
C1369 C1368 1.391 . S
C1370 Tb1360 2.825 . S
C1370 C1364 1.507 . S
C1370 O1383 1.238 . S
C1370 O1384 1.247 . S
O1371 Tb1360 2.347 . S
O1371 C1375 1.259 . S
O1372 Eu1361 2.418 . S
O1372 C1375 1.265 . S
O1373 Eu1361 2.384 . S
O1373 C1382 1.255 . S
O1374 Tb1360 2.366 . S
O1374 C1382 1.265 . S
C1375 O1371 1.259 . S
C1375 O1372 1.265 . S
O1376 Eu1361 2.479 . S
O1376 C1391 1.238 . S
O1377 Eu1361 2.471 . S
O1377 C1391 1.247 . S
O1378 Eu1361 2.347 . S
O1378 C1362 1.259 . S
O1379 Tb1360 2.418 . S
O1379 C1362 1.265 . S
O1380 Tb1360 2.384 . S
O1380 C1363 1.255 . S
O1381 Eu1361 2.366 . S
O1381 C1363 1.265 . S
C1382 O1373 1.255 . S
C1382 O1374 1.265 . S
O1383 Tb1360 2.479 . S
O1383 C1370 1.238 . S
O1384 Tb1360 2.471 . S
O1384 C1370 1.247 . S
C1385 C1388 1.380 . S
C1385 C1389 1.374 . S
C1385 C1391 1.507 . S
C1386 C1387 1.387 . S
C1386 C1390 1.391 . S
C1387 C1386 1.387 . S
C1387 C1388 1.384 . S
C1387 H1396 0.930 . S
C1388 C1385 1.380 . S
C1388 C1387 1.384 . S
C1388 H1397 0.931 . S
C1389 C1385 1.374 . S
C1389 C1390 1.390 . S
C1389 H1398 0.930 . S
C1390 C1386 1.391 . S
C1390 C1389 1.390 . S
C1390 H1399 0.930 . S
C1391 Eu1361 2.825 . S
C1391 O1376 1.238 . S
C1391 O1377 1.247 . S
C1391 C1385 1.507 . S
H1392 C1365 0.930 . S
H1393 C1366 0.931 . S
H1394 C1367 0.930 . S
H1395 C1368 0.930 . S
H1396 C1387 0.930 . S
H1397 C1388 0.931 . S
H1398 C1389 0.930 . S
H1399 C1390 0.930 . S
Tb1400 C1410 2.825 . S
Tb1400 O1411 2.347 . S
Tb1400 O1414 2.366 . S
Tb1400 O1419 2.418 . S
Tb1400 O1420 2.384 . S
Tb1400 O1423 2.479 . S
Tb1400 O1424 2.471 . S
Eu1401 O1412 2.418 . S
Eu1401 O1413 2.384 . S
Eu1401 O1416 2.479 . S
Eu1401 O1417 2.471 . S
Eu1401 O1418 2.347 . S
Eu1401 O1421 2.366 . S
Eu1401 C1431 2.825 . S
C1402 O1418 1.259 . S
C1402 O1419 1.265 . S
C1403 O1420 1.255 . S
C1403 O1421 1.265 . S
C1404 C1406 1.380 . S
C1404 C1407 1.374 . S
C1404 C1410 1.507 . S
C1405 C1406 1.384 . S
C1405 C1409 1.387 . S
C1405 H1432 0.930 . S
C1406 C1404 1.380 . S
C1406 C1405 1.384 . S
C1406 H1433 0.931 . S
C1407 C1404 1.374 . S
C1407 C1408 1.390 . S
C1407 H1434 0.930 . S
C1408 C1407 1.390 . S
C1408 C1409 1.391 . S
C1408 H1435 0.930 . S
C1409 C1405 1.387 . S
C1409 C1408 1.391 . S
C1410 Tb1400 2.825 . S
C1410 C1404 1.507 . S
C1410 O1423 1.238 . S
C1410 O1424 1.247 . S
O1411 Tb1400 2.347 . S
O1411 C1415 1.259 . S
O1412 Eu1401 2.418 . S
O1412 C1415 1.265 . S
O1413 Eu1401 2.384 . S
O1413 C1422 1.255 . S
O1414 Tb1400 2.366 . S
O1414 C1422 1.265 . S
C1415 O1411 1.259 . S
C1415 O1412 1.265 . S
O1416 Eu1401 2.479 . S
O1416 C1431 1.238 . S
O1417 Eu1401 2.471 . S
O1417 C1431 1.247 . S
O1418 Eu1401 2.347 . S
O1418 C1402 1.259 . S
O1419 Tb1400 2.418 . S
O1419 C1402 1.265 . S
O1420 Tb1400 2.384 . S
O1420 C1403 1.255 . S
O1421 Eu1401 2.366 . S
O1421 C1403 1.265 . S
C1422 O1413 1.255 . S
C1422 O1414 1.265 . S
O1423 Tb1400 2.479 . S
O1423 C1410 1.238 . S
O1424 Tb1400 2.471 . S
O1424 C1410 1.247 . S
C1425 C1428 1.380 . S
C1425 C1429 1.374 . S
C1425 C1431 1.507 . S
C1426 C1427 1.387 . S
C1426 C1430 1.391 . S
C1427 C1426 1.387 . S
C1427 C1428 1.384 . S
C1427 H1436 0.930 . S
C1428 C1425 1.380 . S
C1428 C1427 1.384 . S
C1428 H1437 0.931 . S
C1429 C1425 1.374 . S
C1429 C1430 1.390 . S
C1429 H1438 0.930 . S
C1430 C1426 1.391 . S
C1430 C1429 1.390 . S
C1430 H1439 0.930 . S
C1431 Eu1401 2.825 . S
C1431 O1416 1.238 . S
C1431 O1417 1.247 . S
C1431 C1425 1.507 . S
H1432 C1405 0.930 . S
H1433 C1406 0.931 . S
H1434 C1407 0.930 . S
H1435 C1408 0.930 . S
H1436 C1427 0.930 . S
H1437 C1428 0.931 . S
H1438 C1429 0.930 . S
H1439 C1430 0.930 . S
H1440 C1448 0.950 . S
H1441 C1453 0.950 . S
H1442 C1450 0.950 . S
H1443 C1452 0.950 . S
H1444 C1454 0.950 . S
H1445 C1456 0.950 . S
H1446 C1458 0.950 . S
H1447 C1459 0.950 . S
C1448 H1440 0.950 . S
C1448 C1449 1.386 . S
C1448 C1450 1.391 . S
C1449 C1448 1.386 . S
C1449 C1453 1.393 . S
C1450 H1442 0.950 . S
C1450 C1448 1.391 . S
C1450 C1451 1.400 . S
C1451 C1450 1.400 . S
C1451 C1452 1.398 . S
C1451 C1457 1.491 . S
C1452 H1443 0.950 . S
C1452 C1451 1.398 . S
C1452 C1453 1.391 . S
C1453 H1441 0.950 . S
C1453 C1449 1.393 . S
C1453 C1452 1.391 . S
C1454 H1444 0.950 . S
C1454 C1455 1.386 . S
C1454 C1456 1.391 . S
C1455 C1454 1.386 . S
C1455 C1459 1.393 . S
C1456 H1445 0.950 . S
C1456 C1454 1.391 . S
C1456 C1457 1.400 . S
C1457 C1451 1.491 . S
C1457 C1456 1.400 . S
C1457 C1458 1.398 . S
C1458 H1446 0.950 . S
C1458 C1457 1.398 . S
C1458 C1459 1.391 . S
C1459 H1447 0.950 . S
C1459 C1455 1.393 . S
C1459 C1458 1.391 . S
H1460 C1468 0.950 . S
H1461 C1473 0.950 . S
H1462 C1470 0.950 . S
H1463 C1472 0.950 . S
H1464 C1474 0.950 . S
H1465 C1476 0.950 . S
H1466 C1478 0.950 . S
H1467 C1479 0.950 . S
C1468 H1460 0.950 . S
C1468 C1469 1.386 . S
C1468 C1470 1.391 . S
C1469 C1468 1.386 . S
C1469 C1473 1.393 . S
C1470 H1462 0.950 . S
C1470 C1468 1.391 . S
C1470 C1471 1.400 . S
C1471 C1470 1.400 . S
C1471 C1472 1.398 . S
C1471 C1477 1.491 . S
C1472 H1463 0.950 . S
C1472 C1471 1.398 . S
C1472 C1473 1.391 . S
C1473 H1461 0.950 . S
C1473 C1469 1.393 . S
C1473 C1472 1.391 . S
C1474 H1464 0.950 . S
C1474 C1475 1.386 . S
C1474 C1476 1.391 . S
C1475 C1474 1.386 . S
C1475 C1479 1.393 . S
C1476 H1465 0.950 . S
C1476 C1474 1.391 . S
C1476 C1477 1.400 . S
C1477 C1471 1.491 . S
C1477 C1476 1.400 . S
C1477 C1478 1.398 . S
C1478 H1466 0.950 . S
C1478 C1477 1.398 . S
C1478 C1479 1.391 . S
C1479 H1467 0.950 . S
C1479 C1475 1.393 . S
C1479 C1478 1.391 . S
H1480 C1488 0.950 . S
H1481 C1493 0.950 . S
H1482 C1490 0.950 . S
H1483 C1492 0.950 . S
H1484 C1494 0.950 . S
H1485 C1496 0.950 . S
H1486 C1498 0.950 . S
H1487 C1499 0.950 1_556 S
C1488 H1480 0.950 . S
C1488 C1489 1.386 . S
C1488 C1490 1.391 . S
C1489 C1488 1.386 . S
C1489 C1493 1.393 . S
C1490 H1482 0.950 . S
C1490 C1488 1.391 . S
C1490 C1491 1.400 . S
C1491 C1490 1.400 . S
C1491 C1492 1.398 . S
C1491 C1497 1.491 . S
C1492 H1483 0.950 . S
C1492 C1491 1.398 . S
C1492 C1493 1.391 . S
C1493 H1481 0.950 . S
C1493 C1489 1.393 . S
C1493 C1492 1.391 . S
C1494 H1484 0.950 . S
C1494 C1495 1.386 . S
C1494 C1496 1.391 . S
C1495 C1494 1.386 . S
C1495 C1499 1.393 . S
C1496 H1485 0.950 . S
C1496 C1494 1.391 . S
C1496 C1497 1.400 . S
C1497 C1491 1.491 . S
C1497 C1496 1.400 . S
C1497 C1498 1.398 . S
C1498 H1486 0.950 . S
C1498 C1497 1.398 . S
C1498 C1499 1.391 . S
C1499 H1487 0.950 1_554 S
C1499 C1495 1.393 . S
C1499 C1498 1.391 . S
H1500 C1508 0.950 . S
H1501 C1513 0.950 . S
H1502 C1510 0.950 . S
H1503 C1512 0.950 . S
H1504 C1514 0.950 . S
H1505 C1516 0.950 . S
H1506 C1518 0.950 1_554 S
H1507 C1519 0.950 1_554 S
C1508 H1500 0.950 . S
C1508 C1509 1.386 . S
C1508 C1510 1.391 . S
C1509 C1508 1.386 . S
C1509 C1513 1.393 . S
C1510 H1502 0.950 . S
C1510 C1508 1.391 . S
C1510 C1511 1.400 . S
C1511 C1510 1.400 . S
C1511 C1512 1.398 . S
C1511 C1517 1.491 . S
C1512 H1503 0.950 . S
C1512 C1511 1.398 . S
C1512 C1513 1.391 . S
C1513 H1501 0.950 . S
C1513 C1509 1.393 . S
C1513 C1512 1.391 . S
C1514 H1504 0.950 . S
C1514 C1515 1.386 . S
C1514 C1516 1.391 . S
C1515 C1514 1.386 . S
C1515 C1519 1.393 . S
C1516 H1505 0.950 . S
C1516 C1514 1.391 . S
C1516 C1517 1.400 . S
C1517 C1511 1.491 . S
C1517 C1516 1.400 . S
C1517 C1518 1.398 . S
C1518 H1506 0.950 1_556 S
C1518 C1517 1.398 . S
C1518 C1519 1.391 . S
C1519 H1507 0.950 1_556 S
C1519 C1515 1.393 . S
C1519 C1518 1.391 . S
H1520 C1528 0.950 . S
H1521 C1533 0.950 . S
H1522 C1530 0.950 . S
H1523 C1532 0.950 . S
H1524 C1534 0.950 . S
H1525 C1536 0.950 . S
H1526 C1538 0.950 . S
H1527 C1539 0.950 . S
C1528 H1520 0.950 . S
C1528 C1529 1.386 . S
C1528 C1530 1.391 . S
C1529 C1528 1.386 . S
C1529 C1533 1.393 . S
C1530 H1522 0.950 . S
C1530 C1528 1.391 . S
C1530 C1531 1.400 . S
C1531 C1530 1.400 . S
C1531 C1532 1.398 . S
C1531 C1537 1.491 . S
C1532 H1523 0.950 . S
C1532 C1531 1.398 . S
C1532 C1533 1.391 . S
C1533 H1521 0.950 . S
C1533 C1529 1.393 . S
C1533 C1532 1.391 . S
C1534 H1524 0.950 . S
C1534 C1535 1.386 . S
C1534 C1536 1.391 . S
C1535 C1534 1.386 . S
C1535 C1539 1.393 . S
C1536 H1525 0.950 . S
C1536 C1534 1.391 . S
C1536 C1537 1.400 . S
C1537 C1531 1.491 . S
C1537 C1536 1.400 . S
C1537 C1538 1.398 . S
C1538 H1526 0.950 . S
C1538 C1537 1.398 . S
C1538 C1539 1.391 . S
C1539 H1527 0.950 . S
C1539 C1535 1.393 . S
C1539 C1538 1.391 . S
H1540 C1548 0.950 . S
H1541 C1553 0.950 . S
H1542 C1550 0.950 . S
H1543 C1552 0.950 . S
H1544 C1554 0.950 1_554 S
H1545 C1556 0.950 . S
H1546 C1558 0.950 . S
H1547 C1559 0.950 . S
C1548 H1540 0.950 . S
C1548 C1549 1.386 . S
C1548 C1550 1.391 . S
C1549 C1548 1.386 . S
C1549 C1553 1.393 . S
C1550 H1542 0.950 . S
C1550 C1548 1.391 . S
C1550 C1551 1.400 . S
C1551 C1550 1.400 . S
C1551 C1552 1.398 . S
C1551 C1557 1.491 . S
C1552 H1543 0.950 . S
C1552 C1551 1.398 . S
C1552 C1553 1.391 . S
C1553 H1541 0.950 . S
C1553 C1549 1.393 . S
C1553 C1552 1.391 . S
C1554 H1544 0.950 1_556 S
C1554 C1555 1.386 . S
C1554 C1556 1.391 . S
C1555 C1554 1.386 . S
C1555 C1559 1.393 . S
C1556 H1545 0.950 . S
C1556 C1554 1.391 . S
C1556 C1557 1.400 . S
C1557 C1551 1.491 . S
C1557 C1556 1.400 . S
C1557 C1558 1.398 . S
C1558 H1546 0.950 . S
C1558 C1557 1.398 . S
C1558 C1559 1.391 . S
C1559 H1547 0.950 . S
C1559 C1555 1.393 . S
C1559 C1558 1.391 . S
H1560 C1568 0.950 . S
H1561 C1573 0.950 . S
H1562 C1570 0.950 . S
H1563 C1572 0.950 . S
H1564 C1574 0.934 1_554 S
H1565 C1576 0.950 . S
H1566 C1578 0.950 . S
H1567 C1579 0.950 . S
C1568 H1560 0.950 . S
C1568 C1569 1.386 . S
C1568 C1570 1.391 . S
C1569 C1568 1.386 . S
C1569 C1573 1.393 . S
C1570 H1562 0.950 . S
C1570 C1568 1.391 . S
C1570 C1571 1.400 . S
C1571 C1570 1.400 . S
C1571 C1572 1.398 . S
C1571 C1577 1.491 . S
C1572 H1563 0.950 . S
C1572 C1571 1.398 . S
C1572 C1573 1.391 . S
C1573 H1561 0.950 . S
C1573 C1569 1.393 . S
C1573 C1572 1.391 . S
C1574 H1564 0.934 1_556 S
C1574 C1575 1.386 . S
C1574 C1576 1.391 . S
C1575 C1574 1.386 . S
C1575 C1579 1.393 . S
C1576 H1565 0.950 . S
C1576 C1574 1.391 . S
C1576 C1577 1.400 . S
C1577 C1571 1.491 . S
C1577 C1576 1.400 . S
C1577 C1578 1.398 . S
C1578 H1566 0.950 . S
C1578 C1577 1.398 . S
C1578 C1579 1.391 . S
C1579 H1567 0.950 . S
C1579 C1575 1.393 . S
C1579 C1578 1.391 . S
H1580 C1588 0.950 . S
H1581 C1593 0.950 . S
H1582 C1590 0.950 . S
H1583 C1592 0.950 . S
H1584 C1594 0.950 . S
H1585 C1596 0.950 . S
H1586 C1598 0.950 . S
H1587 C1599 0.950 . S
C1588 H1580 0.950 . S
C1588 C1589 1.386 . S
C1588 C1590 1.391 . S
C1589 C1588 1.386 . S
C1589 C1593 1.393 . S
C1590 H1582 0.950 . S
C1590 C1588 1.391 . S
C1590 C1591 1.400 . S
C1591 C1590 1.400 . S
C1591 C1592 1.398 . S
C1591 C1597 1.491 . S
C1592 H1583 0.950 . S
C1592 C1591 1.398 . S
C1592 C1593 1.391 . S
C1593 H1581 0.950 . S
C1593 C1589 1.393 . S
C1593 C1592 1.391 . S
C1594 H1584 0.950 . S
C1594 C1595 1.386 . S
C1594 C1596 1.391 . S
C1595 C1594 1.386 . S
C1595 C1599 1.393 . S
C1596 H1585 0.950 . S
C1596 C1594 1.391 . S
C1596 C1597 1.400 . S
C1597 C1591 1.491 . S
C1597 C1596 1.400 . S
C1597 C1598 1.398 . S
C1598 H1586 0.950 . S
C1598 C1597 1.398 . S
C1598 C1599 1.391 . S
C1599 H1587 0.950 . S
C1599 C1595 1.393 . S
C1599 C1598 1.391 . S
H1600 C1608 0.950 . S
H1601 C1613 0.950 . S
H1602 C1610 0.950 . S
H1603 C1612 0.950 . S
H1604 C1614 0.950 . S
H1605 C1616 0.950 . S
H1606 C1618 0.950 . S
H1607 C1619 0.950 . S
C1608 H1600 0.950 . S
C1608 C1609 1.386 . S
C1608 C1610 1.391 . S
C1609 C1608 1.386 . S
C1609 C1613 1.393 . S
C1610 H1602 0.950 . S
C1610 C1608 1.391 . S
C1610 C1611 1.400 . S
C1611 C1610 1.400 . S
C1611 C1612 1.398 . S
C1611 C1617 1.491 . S
C1612 H1603 0.950 . S
C1612 C1611 1.398 . S
C1612 C1613 1.391 . S
C1613 H1601 0.950 . S
C1613 C1609 1.393 . S
C1613 C1612 1.391 . S
C1614 H1604 0.950 . S
C1614 C1615 1.386 . S
C1614 C1616 1.391 . S
C1615 C1614 1.386 . S
C1615 C1619 1.393 . S
C1616 H1605 0.950 . S
C1616 C1614 1.391 . S
C1616 C1617 1.400 . S
C1617 C1611 1.491 . S
C1617 C1616 1.400 . S
C1617 C1618 1.398 . S
C1618 H1606 0.950 . S
C1618 C1617 1.398 . S
C1618 C1619 1.391 . S
C1619 H1607 0.950 . S
C1619 C1615 1.393 . S
C1619 C1618 1.391 . S
H1620 C1628 0.950 . S
H1621 C1633 0.950 . S
H1622 C1630 0.950 . S
H1623 C1632 0.950 . S
H1624 C1634 0.950 . S
H1625 C1636 0.950 . S
H1626 C1638 0.950 . S
H1627 C1639 0.950 . S
C1628 H1620 0.950 . S
C1628 C1629 1.386 . S
C1628 C1630 1.391 . S
C1629 C1628 1.386 . S
C1629 C1633 1.393 . S
C1630 H1622 0.950 . S
C1630 C1628 1.391 . S
C1630 C1631 1.400 . S
C1631 C1630 1.400 . S
C1631 C1632 1.398 . S
C1631 C1637 1.491 . S
C1632 H1623 0.950 . S
C1632 C1631 1.398 . S
C1632 C1633 1.391 . S
C1633 H1621 0.950 . S
C1633 C1629 1.393 . S
C1633 C1632 1.391 . S
C1634 H1624 0.950 . S
C1634 C1635 1.386 . S
C1634 C1636 1.391 . S
C1635 C1634 1.386 . S
C1635 C1639 1.393 . S
C1636 H1625 0.950 . S
C1636 C1634 1.391 . S
C1636 C1637 1.400 . S
C1637 C1631 1.491 . S
C1637 C1636 1.400 . S
C1637 C1638 1.398 . S
C1638 H1626 0.950 . S
C1638 C1637 1.398 . S
C1638 C1639 1.391 . S
C1639 H1627 0.950 . S
C1639 C1635 1.393 . S
C1639 C1638 1.391 . S
H1640 C1648 0.950 . S
H1641 C1653 0.950 . S
H1642 C1650 0.950 . S
H1643 C1652 0.950 . S
H1644 C1654 0.950 . S
H1645 C1656 0.950 . S
H1646 C1658 0.950 . S
H1647 C1659 0.950 . S
C1648 H1640 0.950 . S
C1648 C1649 1.386 . S
C1648 C1650 1.391 . S
C1649 C1648 1.386 . S
C1649 C1653 1.393 . S
C1650 H1642 0.950 . S
C1650 C1648 1.391 . S
C1650 C1651 1.400 . S
C1651 C1650 1.400 . S
C1651 C1652 1.398 . S
C1651 C1657 1.491 . S
C1652 H1643 0.950 . S
C1652 C1651 1.398 . S
C1652 C1653 1.391 . S
C1653 H1641 0.950 . S
C1653 C1649 1.393 . S
C1653 C1652 1.391 . S
C1654 H1644 0.950 . S
C1654 C1655 1.386 . S
C1654 C1656 1.391 . S
C1655 C1654 1.386 . S
C1655 C1659 1.393 . S
C1656 H1645 0.950 . S
C1656 C1654 1.391 . S
C1656 C1657 1.400 . S
C1657 C1651 1.491 . S
C1657 C1656 1.400 . S
C1657 C1658 1.398 . S
C1658 H1646 0.950 . S
C1658 C1657 1.398 . S
C1658 C1659 1.391 . S
C1659 H1647 0.950 . S
C1659 C1655 1.393 . S
C1659 C1658 1.391 . S
H1660 C1668 0.950 . S
H1661 C1673 0.950 . S
H1662 C1670 0.950 . S
H1663 C1672 0.950 . S
H1664 C1674 0.950 . S
H1665 C1676 0.950 . S
H1666 C1678 0.950 . S
H1667 C1679 0.950 . S
C1668 H1660 0.950 . S
C1668 C1669 1.386 . S
C1668 C1670 1.391 . S
C1669 C1668 1.386 . S
C1669 C1673 1.393 . S
C1670 H1662 0.950 . S
C1670 C1668 1.391 . S
C1670 C1671 1.400 . S
C1671 C1670 1.400 . S
C1671 C1672 1.398 . S
C1671 C1677 1.491 . S
C1672 H1663 0.950 . S
C1672 C1671 1.398 . S
C1672 C1673 1.391 . S
C1673 H1661 0.950 . S
C1673 C1669 1.393 . S
C1673 C1672 1.391 . S
C1674 H1664 0.950 . S
C1674 C1675 1.386 . S
C1674 C1676 1.391 . S
C1675 C1674 1.386 . S
C1675 C1679 1.393 . S
C1676 H1665 0.950 . S
C1676 C1674 1.391 . S
C1676 C1677 1.400 . S
C1677 C1671 1.491 . S
C1677 C1676 1.400 . S
C1677 C1678 1.398 . S
C1678 H1666 0.950 . S
C1678 C1677 1.398 . S
C1678 C1679 1.391 . S
C1679 H1667 0.950 . S
C1679 C1675 1.393 . S
C1679 C1678 1.391 . S
H1680 C1688 0.950 . S
H1681 C1693 0.950 . S
H1682 C1690 0.950 . S
H1683 C1692 0.950 . S
H1684 C1694 0.950 . S
H1685 C1696 0.950 . S
H1686 C1698 0.950 . S
H1687 C1699 0.950 . S
C1688 H1680 0.950 . S
C1688 C1689 1.386 . S
C1688 C1690 1.391 1_655 S
C1689 C1688 1.386 . S
C1689 C1693 1.393 . S
C1690 H1682 0.950 . S
C1690 C1688 1.391 1_455 S
C1690 C1691 1.400 . S
C1691 C1690 1.400 . S
C1691 C1692 1.398 . S
C1691 C1697 1.491 . S
C1692 H1683 0.950 . S
C1692 C1691 1.398 . S
C1692 C1693 1.391 1_455 S
C1693 H1681 0.950 . S
C1693 C1689 1.393 . S
C1693 C1692 1.391 1_655 S
C1694 H1684 0.950 . S
C1694 C1695 1.386 . S
C1694 C1696 1.391 . S
C1695 C1694 1.386 . S
C1695 C1699 1.393 . S
C1696 H1685 0.950 . S
C1696 C1694 1.391 . S
C1696 C1697 1.400 . S
C1697 C1691 1.491 . S
C1697 C1696 1.400 . S
C1697 C1698 1.398 . S
C1698 H1686 0.950 . S
C1698 C1697 1.398 . S
C1698 C1699 1.391 . S
C1699 H1687 0.950 . S
C1699 C1695 1.393 . S
C1699 C1698 1.391 . S
H1700 C1708 0.950 . S
H1701 C1713 0.950 . S
H1702 C1710 0.950 . S
H1703 C1712 0.950 . S
H1704 C1714 0.950 . S
H1705 C1716 0.950 . S
H1706 C1718 0.950 . S
H1707 C1719 0.950 . S
C1708 H1700 0.950 . S
C1708 C1709 1.386 . S
C1708 C1710 1.391 . S
C1709 C1708 1.386 . S
C1709 C1713 1.393 . S
C1710 H1702 0.950 . S
C1710 C1708 1.391 . S
C1710 C1711 1.400 . S
C1711 C1710 1.400 . S
C1711 C1712 1.398 . S
C1711 C1717 1.491 . S
C1712 H1703 0.950 . S
C1712 C1711 1.398 . S
C1712 C1713 1.391 . S
C1713 H1701 0.950 . S
C1713 C1709 1.393 . S
C1713 C1712 1.391 . S
C1714 H1704 0.950 . S
C1714 C1715 1.386 . S
C1714 C1716 1.391 . S
C1715 C1714 1.386 . S
C1715 C1719 1.393 . S
C1716 H1705 0.950 . S
C1716 C1714 1.391 . S
C1716 C1717 1.400 . S
C1717 C1711 1.491 . S
C1717 C1716 1.400 . S
C1717 C1718 1.398 . S
C1718 H1706 0.950 . S
C1718 C1717 1.398 . S
C1718 C1719 1.391 . S
C1719 H1707 0.950 . S
C1719 C1715 1.393 . S
C1719 C1718 1.391 . S
H1720 C1728 0.950 . S
H1721 C1733 0.950 . S
H1722 C1730 0.950 1_565 S
H1723 C1732 0.950 1_565 S
H1724 C1734 0.950 . S
H1725 C1736 0.950 . S
H1726 C1738 0.950 . S
H1727 C1739 0.950 . S
C1728 H1720 0.950 . S
C1728 C1729 1.386 . S
C1728 C1730 1.391 . S
C1729 C1728 1.386 . S
C1729 C1733 1.393 . S
C1730 H1722 0.950 1_545 S
C1730 C1728 1.391 . S
C1730 C1731 1.400 1_545 S
C1731 C1730 1.400 1_565 S
C1731 C1732 1.398 1_565 S
C1731 C1737 1.491 . S
C1732 H1723 0.950 1_545 S
C1732 C1731 1.398 1_545 S
C1732 C1733 1.391 . S
C1733 H1721 0.950 . S
C1733 C1729 1.393 . S
C1733 C1732 1.391 . S
C1734 H1724 0.950 . S
C1734 C1735 1.386 . S
C1734 C1736 1.391 . S
C1735 C1734 1.386 . S
C1735 C1739 1.393 . S
C1736 H1725 0.950 . S
C1736 C1734 1.391 . S
C1736 C1737 1.400 . S
C1737 C1731 1.491 . S
C1737 C1736 1.400 . S
C1737 C1738 1.398 . S
C1738 H1726 0.950 . S
C1738 C1737 1.398 . S
C1738 C1739 1.391 . S
C1739 H1727 0.950 . S
C1739 C1735 1.393 . S
C1739 C1738 1.391 . S
H1740 C1748 0.950 . S
H1741 C1753 0.950 . S
H1742 C1750 0.950 . S
H1743 C1752 0.950 . S
H1744 C1754 0.950 . S
H1745 C1756 0.950 . S
H1746 C1758 0.950 . S
H1747 C1759 0.950 . S
C1748 H1740 0.950 . S
C1748 C1749 1.386 . S
C1748 C1750 1.391 . S
C1749 C1748 1.386 . S
C1749 C1753 1.393 . S
C1750 H1742 0.950 . S
C1750 C1748 1.391 . S
C1750 C1751 1.400 . S
C1751 C1750 1.400 . S
C1751 C1752 1.398 . S
C1751 C1757 1.491 . S
C1752 H1743 0.950 . S
C1752 C1751 1.398 . S
C1752 C1753 1.391 . S
C1753 H1741 0.950 . S
C1753 C1749 1.393 . S
C1753 C1752 1.391 . S
C1754 H1744 0.950 . S
C1754 C1755 1.386 . S
C1754 C1756 1.391 . S
C1755 C1754 1.386 . S
C1755 C1759 1.393 . S
C1756 H1745 0.950 . S
C1756 C1754 1.391 . S
C1756 C1757 1.400 . S
C1757 C1751 1.491 . S
C1757 C1756 1.400 . S
C1757 C1758 1.398 . S
C1758 H1746 0.950 . S
C1758 C1757 1.398 . S
C1758 C1759 1.391 . S
C1759 H1747 0.950 . S
C1759 C1755 1.393 . S
C1759 C1758 1.391 . S
H1760 C1768 0.950 . S
H1761 C1773 0.950 . S
H1762 C1770 0.950 . S
H1763 C1772 0.950 . S
H1764 C1774 0.950 . S
H1765 C1776 0.950 . S
H1766 C1778 0.950 . S
H1767 C1779 0.950 . S
C1768 H1760 0.950 . S
C1768 C1769 1.386 . S
C1768 C1770 1.391 . S
C1769 C1768 1.386 . S
C1769 C1773 1.393 . S
C1770 H1762 0.950 . S
C1770 C1768 1.391 . S
C1770 C1771 1.400 . S
C1771 C1770 1.400 . S
C1771 C1772 1.398 . S
C1771 C1777 1.491 . S
C1772 H1763 0.950 . S
C1772 C1771 1.398 . S
C1772 C1773 1.391 . S
C1773 H1761 0.950 . S
C1773 C1769 1.393 . S
C1773 C1772 1.391 . S
C1774 H1764 0.950 . S
C1774 C1775 1.386 . S
C1774 C1776 1.391 . S
C1775 C1774 1.386 . S
C1775 C1779 1.393 . S
C1776 H1765 0.950 . S
C1776 C1774 1.391 . S
C1776 C1777 1.400 . S
C1777 C1771 1.491 . S
C1777 C1776 1.400 . S
C1777 C1778 1.398 . S
C1778 H1766 0.950 . S
C1778 C1777 1.398 . S
C1778 C1779 1.391 . S
C1779 H1767 0.950 . S
C1779 C1775 1.393 . S
C1779 C1778 1.391 . S
H1780 C1788 0.950 . S
H1781 C1793 0.950 . S
H1782 C1790 0.950 . S
H1783 C1792 0.950 . S
H1784 C1794 0.950 . S
H1785 C1796 0.950 . S
H1786 C1798 0.950 . S
H1787 C1799 0.950 . S
C1788 H1780 0.950 . S
C1788 C1789 1.386 . S
C1788 C1790 1.391 . S
C1789 C1788 1.386 . S
C1789 C1793 1.393 . S
C1790 H1782 0.950 . S
C1790 C1788 1.391 . S
C1790 C1791 1.400 . S
C1791 C1790 1.400 . S
C1791 C1792 1.398 . S
C1791 C1797 1.491 . S
C1792 H1783 0.950 . S
C1792 C1791 1.398 . S
C1792 C1793 1.391 . S
C1793 H1781 0.950 . S
C1793 C1789 1.393 . S
C1793 C1792 1.391 . S
C1794 H1784 0.950 . S
C1794 C1795 1.386 . S
C1794 C1796 1.391 . S
C1795 C1794 1.386 . S
C1795 C1799 1.393 . S
C1796 H1785 0.950 . S
C1796 C1794 1.391 . S
C1796 C1797 1.400 . S
C1797 C1791 1.491 . S
C1797 C1796 1.400 . S
C1797 C1798 1.398 . S
C1798 H1786 0.950 . S
C1798 C1797 1.398 . S
C1798 C1799 1.391 . S
C1799 H1787 0.950 . S
C1799 C1795 1.393 . S
C1799 C1798 1.391 . S
H1800 C1808 0.950 . S
H1801 C1813 0.950 . S
H1802 C1810 0.950 . S
H1803 C1812 0.950 . S
H1804 C1814 0.950 . S
H1805 C1816 0.950 . S
H1806 C1818 0.950 . S
H1807 C1819 0.950 . S
C1808 H1800 0.950 . S
C1808 C1809 1.386 . S
C1808 C1810 1.391 . S
C1809 C1808 1.386 . S
C1809 C1813 1.393 . S
C1810 H1802 0.950 . S
C1810 C1808 1.391 . S
C1810 C1811 1.400 . S
C1811 C1810 1.400 . S
C1811 C1812 1.398 . S
C1811 C1817 1.491 . S
C1812 H1803 0.950 . S
C1812 C1811 1.398 . S
C1812 C1813 1.391 . S
C1813 H1801 0.950 . S
C1813 C1809 1.393 . S
C1813 C1812 1.391 . S
C1814 H1804 0.950 . S
C1814 C1815 1.386 . S
C1814 C1816 1.391 . S
C1815 C1814 1.386 . S
C1815 C1819 1.393 . S
C1816 H1805 0.950 . S
C1816 C1814 1.391 . S
C1816 C1817 1.400 . S
C1817 C1811 1.491 . S
C1817 C1816 1.400 . S
C1817 C1818 1.398 . S
C1818 H1806 0.950 . S
C1818 C1817 1.398 . S
C1818 C1819 1.391 . S
C1819 H1807 0.950 . S
C1819 C1815 1.393 . S
C1819 C1818 1.391 . S
H1820 C1828 0.950 . S
H1821 C1833 0.950 . S
H1822 C1830 0.950 . S
H1823 C1832 0.950 . S
H1824 C1834 0.950 . S
H1825 C1836 0.950 . S
H1826 C1838 0.950 . S
H1827 C1839 0.950 . S
C1828 H1820 0.950 . S
C1828 C1829 1.386 . S
C1828 C1830 1.391 . S
C1829 C1828 1.386 . S
C1829 C1833 1.393 . S
C1830 H1822 0.950 . S
C1830 C1828 1.391 . S
C1830 C1831 1.400 . S
C1831 C1830 1.400 . S
C1831 C1832 1.398 . S
C1831 C1837 1.491 . S
C1832 H1823 0.950 . S
C1832 C1831 1.398 . S
C1832 C1833 1.391 . S
C1833 H1821 0.950 . S
C1833 C1829 1.393 . S
C1833 C1832 1.391 . S
C1834 H1824 0.950 . S
C1834 C1835 1.386 . S
C1834 C1836 1.391 . S
C1835 C1834 1.386 . S
C1835 C1839 1.393 . S
C1836 H1825 0.950 . S
C1836 C1834 1.391 . S
C1836 C1837 1.400 . S
C1837 C1831 1.491 . S
C1837 C1836 1.400 . S
C1837 C1838 1.398 . S
C1838 H1826 0.950 . S
C1838 C1837 1.398 . S
C1838 C1839 1.391 . S
C1839 H1827 0.950 . S
C1839 C1835 1.393 . S
C1839 C1838 1.391 . S
H1840 C1848 0.950 . S
H1841 C1853 0.950 . S
H1842 C1850 0.950 . S
H1843 C1852 0.950 . S
H1844 C1854 0.950 . S
H1845 C1856 0.950 . S
H1846 C1858 0.950 . S
H1847 C1859 0.950 . S
C1848 H1840 0.950 . S
C1848 C1849 1.386 . S
C1848 C1850 1.391 . S
C1849 C1848 1.386 . S
C1849 C1853 1.393 . S
C1850 H1842 0.950 . S
C1850 C1848 1.391 . S
C1850 C1851 1.400 . S
C1851 C1850 1.400 . S
C1851 C1852 1.398 . S
C1851 C1857 1.491 . S
C1852 H1843 0.950 . S
C1852 C1851 1.398 . S
C1852 C1853 1.391 . S
C1853 H1841 0.950 . S
C1853 C1849 1.393 . S
C1853 C1852 1.391 . S
C1854 H1844 0.950 . S
C1854 C1855 1.386 . S
C1854 C1856 1.391 . S
C1855 C1854 1.386 . S
C1855 C1859 1.393 . S
C1856 H1845 0.950 . S
C1856 C1854 1.391 . S
C1856 C1857 1.400 . S
C1857 C1851 1.491 . S
C1857 C1856 1.400 . S
C1857 C1858 1.398 . S
C1858 H1846 0.950 . S
C1858 C1857 1.398 . S
C1858 C1859 1.391 . S
C1859 H1847 0.950 . S
C1859 C1855 1.393 . S
C1859 C1858 1.391 . S
H1860 C1868 0.950 . S
H1861 C1873 0.950 . S
H1862 C1870 0.951 1_565 S
H1863 C1872 0.950 . S
H1864 C1874 0.950 . S
H1865 C1876 0.950 . S
H1866 C1878 0.950 . S
H1867 C1879 0.950 . S
C1868 H1860 0.950 . S
C1868 C1869 1.386 . S
C1868 C1870 1.406 . S
C1869 C1868 1.386 . S
C1869 C1873 1.393 . S
C1870 H1862 0.951 1_545 S
C1870 C1868 1.406 . S
C1870 C1871 1.385 1_545 S
C1871 C1870 1.385 1_565 S
C1871 C1872 1.398 . S
C1871 C1877 1.491 . S
C1872 H1863 0.950 . S
C1872 C1871 1.398 . S
C1872 C1873 1.391 1_565 S
C1873 H1861 0.950 . S
C1873 C1869 1.393 . S
C1873 C1872 1.391 1_545 S
C1874 H1864 0.950 . S
C1874 C1875 1.386 . S
C1874 C1876 1.391 . S
C1875 C1874 1.386 . S
C1875 C1879 1.393 . S
C1876 H1865 0.950 . S
C1876 C1874 1.391 . S
C1876 C1877 1.400 . S
C1877 C1871 1.491 . S
C1877 C1876 1.400 . S
C1877 C1878 1.398 . S
C1878 H1866 0.950 . S
C1878 C1877 1.398 . S
C1878 C1879 1.391 . S
C1879 H1867 0.950 . S
C1879 C1875 1.393 . S
C1879 C1878 1.391 . S
H1880 C1888 0.950 . S
H1881 C1893 0.950 . S
H1882 C1890 0.950 . S
H1883 C1892 0.950 . S
H1884 C1894 0.950 . S
H1885 C1896 0.950 . S
H1886 C1898 0.950 . S
H1887 C1899 0.950 . S
C1888 H1880 0.950 . S
C1888 C1889 1.386 . S
C1888 C1890 1.391 1_655 S
C1889 C1888 1.386 . S
C1889 C1893 1.393 1_655 S
C1890 H1882 0.950 . S
C1890 C1888 1.391 1_455 S
C1890 C1891 1.400 . S
C1891 C1890 1.400 . S
C1891 C1892 1.398 . S
C1891 C1897 1.491 . S
C1892 H1883 0.950 . S
C1892 C1891 1.398 . S
C1892 C1893 1.391 . S
C1893 H1881 0.950 . S
C1893 C1889 1.393 1_455 S
C1893 C1892 1.391 . S
C1894 H1884 0.950 . S
C1894 C1895 1.386 . S
C1894 C1896 1.391 . S
C1895 C1894 1.386 . S
C1895 C1899 1.393 . S
C1896 H1885 0.950 . S
C1896 C1894 1.391 . S
C1896 C1897 1.400 . S
C1897 C1891 1.491 . S
C1897 C1896 1.400 . S
C1897 C1898 1.398 . S
C1898 H1886 0.950 . S
C1898 C1897 1.398 . S
C1898 C1899 1.391 . S
C1899 H1887 0.950 . S
C1899 C1895 1.393 . S
C1899 C1898 1.391 . S
H1900 C1908 0.950 . S
H1901 C1913 0.950 . S
H1902 C1910 0.950 . S
H1903 C1912 0.950 . S
H1904 C1914 0.950 . S
H1905 C1916 0.950 . S
H1906 C1918 0.950 . S
H1907 C1919 0.950 . S
C1908 H1900 0.950 . S
C1908 C1909 1.386 . S
C1908 C1910 1.391 . S
C1909 C1908 1.386 . S
C1909 C1913 1.393 . S
C1910 H1902 0.950 . S
C1910 C1908 1.391 . S
C1910 C1911 1.400 . S
C1911 C1910 1.400 . S
C1911 C1912 1.398 . S
C1911 C1917 1.491 . S
C1912 H1903 0.950 . S
C1912 C1911 1.398 . S
C1912 C1913 1.391 . S
C1913 H1901 0.950 . S
C1913 C1909 1.393 . S
C1913 C1912 1.391 . S
C1914 H1904 0.950 . S
C1914 C1915 1.386 . S
C1914 C1916 1.391 . S
C1915 C1914 1.386 . S
C1915 C1919 1.393 . S
C1916 H1905 0.950 . S
C1916 C1914 1.391 . S
C1916 C1917 1.400 . S
C1917 C1911 1.491 . S
C1917 C1916 1.400 . S
C1917 C1918 1.398 . S
C1918 H1906 0.950 . S
C1918 C1917 1.398 . S
C1918 C1919 1.391 . S
C1919 H1907 0.950 . S
C1919 C1915 1.393 . S
C1919 C1918 1.391 . S
H1920 C1928 0.950 . S
H1921 C1933 0.950 . S
H1922 C1930 0.950 . S
H1923 C1932 0.950 . S
H1924 C1934 0.950 . S
H1925 C1936 0.950 . S
H1926 C1938 0.950 . S
H1927 C1939 0.950 . S
C1928 H1920 0.950 . S
C1928 C1929 1.386 . S
C1928 C1930 1.391 . S
C1929 C1928 1.386 . S
C1929 C1933 1.393 . S
C1930 H1922 0.950 . S
C1930 C1928 1.391 . S
C1930 C1931 1.400 . S
C1931 C1930 1.400 . S
C1931 C1932 1.398 . S
C1931 C1937 1.491 . S
C1932 H1923 0.950 . S
C1932 C1931 1.398 . S
C1932 C1933 1.391 . S
C1933 H1921 0.950 . S
C1933 C1929 1.393 . S
C1933 C1932 1.391 . S
C1934 H1924 0.950 . S
C1934 C1935 1.386 . S
C1934 C1936 1.391 . S
C1935 C1934 1.386 . S
C1935 C1939 1.393 . S
C1936 H1925 0.950 . S
C1936 C1934 1.391 . S
C1936 C1937 1.400 . S
C1937 C1931 1.491 . S
C1937 C1936 1.400 . S
C1937 C1938 1.398 . S
C1938 H1926 0.950 . S
C1938 C1937 1.398 . S
C1938 C1939 1.391 . S
C1939 H1927 0.950 . S
C1939 C1935 1.393 . S
C1939 C1938 1.391 . S
H1940 C1948 0.950 . S
H1941 C1953 0.950 . S
H1942 C1950 0.950 . S
H1943 C1952 0.950 . S
H1944 C1954 0.950 . S
H1945 C1956 0.950 . S
H1946 C1958 0.950 . S
H1947 C1959 0.950 . S
C1948 H1940 0.950 . S
C1948 C1949 1.386 . S
C1948 C1950 1.391 . S
C1949 C1948 1.386 . S
C1949 C1953 1.393 . S
C1950 H1942 0.950 . S
C1950 C1948 1.391 . S
C1950 C1951 1.400 . S
C1951 C1950 1.400 . S
C1951 C1952 1.398 . S
C1951 C1957 1.491 . S
C1952 H1943 0.950 . S
C1952 C1951 1.398 . S
C1952 C1953 1.391 . S
C1953 H1941 0.950 . S
C1953 C1949 1.393 . S
C1953 C1952 1.391 . S
C1954 H1944 0.950 . S
C1954 C1955 1.386 . S
C1954 C1956 1.391 . S
C1955 C1954 1.386 . S
C1955 C1959 1.393 . S
C1956 H1945 0.950 . S
C1956 C1954 1.391 . S
C1956 C1957 1.400 . S
C1957 C1951 1.491 . S
C1957 C1956 1.400 . S
C1957 C1958 1.398 . S
C1958 H1946 0.950 . S
C1958 C1957 1.398 . S
C1958 C1959 1.391 . S
C1959 H1947 0.950 . S
C1959 C1955 1.393 . S
C1959 C1958 1.391 . S
H1960 C1968 0.950 . S
H1961 C1973 0.950 . S
H1962 C1970 0.950 . S
H1963 C1972 0.950 . S
H1964 C1974 0.950 . S
H1965 C1976 0.950 . S
H1966 C1978 0.950 . S
H1967 C1979 0.950 . S
C1968 H1960 0.950 . S
C1968 C1969 1.386 . S
C1968 C1970 1.391 . S
C1969 C1968 1.386 . S
C1969 C1973 1.393 . S
C1970 H1962 0.950 . S
C1970 C1968 1.391 . S
C1970 C1971 1.400 . S
C1971 C1970 1.400 . S
C1971 C1972 1.398 . S
C1971 C1977 1.491 . S
C1972 H1963 0.950 . S
C1972 C1971 1.398 . S
C1972 C1973 1.391 . S
C1973 H1961 0.950 . S
C1973 C1969 1.393 . S
C1973 C1972 1.391 . S
C1974 H1964 0.950 . S
C1974 C1975 1.386 . S
C1974 C1976 1.391 . S
C1975 C1974 1.386 . S
C1975 C1979 1.393 . S
C1976 H1965 0.950 . S
C1976 C1974 1.391 . S
C1976 C1977 1.400 . S
C1977 C1971 1.491 . S
C1977 C1976 1.400 . S
C1977 C1978 1.398 . S
C1978 H1966 0.950 . S
C1978 C1977 1.398 . S
C1978 C1979 1.391 . S
C1979 H1967 0.950 . S
C1979 C1975 1.393 . S
C1979 C1978 1.391 . S
H1980 C1988 0.950 . S
H1981 C1993 0.950 . S
H1982 C1990 0.950 1_545 S
H1983 C1992 0.950 . S
H1984 C1994 0.950 . S
H1985 C1996 0.950 . S
H1986 C1998 0.950 . S
H1987 C1999 0.950 . S
C1988 H1980 0.950 . S
C1988 C1989 1.386 . S
C1988 C1990 1.391 . S
C1989 C1988 1.386 . S
C1989 C1993 1.393 . S
C1990 H1982 0.950 1_565 S
C1990 C1988 1.391 . S
C1990 C1991 1.400 1_565 S
C1991 C1990 1.400 1_545 S
C1991 C1992 1.398 . S
C1991 C1997 1.491 . S
C1992 H1983 0.950 . S
C1992 C1991 1.398 . S
C1992 C1993 1.391 1_545 S
C1993 H1981 0.950 . S
C1993 C1989 1.393 . S
C1993 C1992 1.391 1_565 S
C1994 H1984 0.950 . S
C1994 C1995 1.386 . S
C1994 C1996 1.391 . S
C1995 C1994 1.386 . S
C1995 C1999 1.393 . S
C1996 H1985 0.950 . S
C1996 C1994 1.391 . S
C1996 C1997 1.400 . S
C1997 C1991 1.491 . S
C1997 C1996 1.400 . S
C1997 C1998 1.398 . S
C1998 H1986 0.950 . S
C1998 C1997 1.398 . S
C1998 C1999 1.391 . S
C1999 H1987 0.950 . S
C1999 C1995 1.393 . S
C1999 C1998 1.391 . S
H2000 C2008 0.950 . S
H2001 C2013 0.950 . S
H2002 C2010 0.950 . S
H2003 C2012 0.950 . S
H2004 C2014 0.950 . S
H2005 C2016 0.950 . S
H2006 C2018 0.950 . S
H2007 C2019 0.950 . S
C2008 H2000 0.950 . S
C2008 C2009 1.386 . S
C2008 C2010 1.391 1_455 S
C2009 C2008 1.386 . S
C2009 C2013 1.393 1_455 S
C2010 H2002 0.950 . S
C2010 C2008 1.391 1_655 S
C2010 C2011 1.400 . S
C2011 C2010 1.400 . S
C2011 C2012 1.398 . S
C2011 C2017 1.491 . S
C2012 H2003 0.950 . S
C2012 C2011 1.398 . S
C2012 C2013 1.391 . S
C2013 H2001 0.950 . S
C2013 C2009 1.393 1_655 S
C2013 C2012 1.391 . S
C2014 H2004 0.950 . S
C2014 C2015 1.386 . S
C2014 C2016 1.391 . S
C2015 C2014 1.386 . S
C2015 C2019 1.393 . S
C2016 H2005 0.950 . S
C2016 C2014 1.391 . S
C2016 C2017 1.400 . S
C2017 C2011 1.491 . S
C2017 C2016 1.400 . S
C2017 C2018 1.398 . S
C2018 H2006 0.950 . S
C2018 C2017 1.398 . S
C2018 C2019 1.391 . S
C2019 H2007 0.950 . S
C2019 C2015 1.393 . S
C2019 C2018 1.391 . S
H2020 C2028 0.950 . S
H2021 C2033 0.950 . S
H2022 C2030 0.950 . S
H2023 C2032 0.950 . S
H2024 C2034 0.950 . S
H2025 C2036 0.950 . S
H2026 C2038 0.950 . S
H2027 C2039 0.950 . S
C2028 H2020 0.950 . S
C2028 C2029 1.386 . S
C2028 C2030 1.391 . S
C2029 C2028 1.386 . S
C2029 C2033 1.393 . S
C2030 H2022 0.950 . S
C2030 C2028 1.391 . S
C2030 C2031 1.400 . S
C2031 C2030 1.400 . S
C2031 C2032 1.398 . S
C2031 C2037 1.491 . S
C2032 H2023 0.950 . S
C2032 C2031 1.398 . S
C2032 C2033 1.391 . S
C2033 H2021 0.950 . S
C2033 C2029 1.393 . S
C2033 C2032 1.391 . S
C2034 H2024 0.950 . S
C2034 C2035 1.386 . S
C2034 C2036 1.391 . S
C2035 C2034 1.386 . S
C2035 C2039 1.393 . S
C2036 H2025 0.950 . S
C2036 C2034 1.391 . S
C2036 C2037 1.400 . S
C2037 C2031 1.491 . S
C2037 C2036 1.400 . S
C2037 C2038 1.398 . S
C2038 H2026 0.950 . S
C2038 C2037 1.398 . S
C2038 C2039 1.391 . S
C2039 H2027 0.950 . S
C2039 C2035 1.393 . S
C2039 C2038 1.391 . S
H2040 C2048 0.950 . S
H2041 C2053 0.950 . S
H2042 C2050 0.950 . S
H2043 C2052 0.950 . S
H2044 C2054 0.950 . S
H2045 C2056 0.950 . S
H2046 C2058 0.950 . S
H2047 C2059 0.950 . S
C2048 H2040 0.950 . S
C2048 C2049 1.386 . S
C2048 C2050 1.391 1_455 S
C2049 C2048 1.386 . S
C2049 C2053 1.393 . S
C2050 H2042 0.950 . S
C2050 C2048 1.391 1_655 S
C2050 C2051 1.400 . S
C2051 C2050 1.400 . S
C2051 C2052 1.398 . S
C2051 C2057 1.491 . S
C2052 H2043 0.950 . S
C2052 C2051 1.398 . S
C2052 C2053 1.391 1_655 S
C2053 H2041 0.950 . S
C2053 C2049 1.393 . S
C2053 C2052 1.391 1_455 S
C2054 H2044 0.950 . S
C2054 C2055 1.386 . S
C2054 C2056 1.391 . S
C2055 C2054 1.386 . S
C2055 C2059 1.393 . S
C2056 H2045 0.950 . S
C2056 C2054 1.391 . S
C2056 C2057 1.400 . S
C2057 C2051 1.491 . S
C2057 C2056 1.400 . S
C2057 C2058 1.398 . S
C2058 H2046 0.950 . S
C2058 C2057 1.398 . S
C2058 C2059 1.391 . S
C2059 H2047 0.950 . S
C2059 C2055 1.393 . S
C2059 C2058 1.391 . S
H2060 C2068 0.950 . S
H2061 C2073 0.950 . S
H2062 C2070 0.950 . S
H2063 C2072 0.950 . S
H2064 C2074 0.950 . S
H2065 C2076 0.950 . S
H2066 C2078 0.950 . S
H2067 C2079 0.950 . S
C2068 H2060 0.950 . S
C2068 C2069 1.386 . S
C2068 C2070 1.391 . S
C2069 C2068 1.386 . S
C2069 C2073 1.393 . S
C2070 H2062 0.950 . S
C2070 C2068 1.391 . S
C2070 C2071 1.400 . S
C2071 C2070 1.400 . S
C2071 C2072 1.398 . S
C2071 C2077 1.491 . S
C2072 H2063 0.950 . S
C2072 C2071 1.398 . S
C2072 C2073 1.391 . S
C2073 H2061 0.950 . S
C2073 C2069 1.393 . S
C2073 C2072 1.391 . S
C2074 H2064 0.950 . S
C2074 C2075 1.386 . S
C2074 C2076 1.391 . S
C2075 C2074 1.386 . S
C2075 C2079 1.393 . S
C2076 H2065 0.950 . S
C2076 C2074 1.391 . S
C2076 C2077 1.400 . S
C2077 C2071 1.491 . S
C2077 C2076 1.400 . S
C2077 C2078 1.398 . S
C2078 H2066 0.950 . S
C2078 C2077 1.398 . S
C2078 C2079 1.391 . S
C2079 H2067 0.950 . S
C2079 C2075 1.393 . S
C2079 C2078 1.391 . S
H2080 C2088 0.950 . S
H2081 C2093 0.950 . S
H2082 C2090 0.950 1_545 S
H2083 C2092 0.950 1_545 S
H2084 C2094 0.950 . S
H2085 C2096 0.950 . S
H2086 C2098 0.950 . S
H2087 C2099 0.950 . S
C2088 H2080 0.950 . S
C2088 C2089 1.386 . S
C2088 C2090 1.391 . S
C2089 C2088 1.386 . S
C2089 C2093 1.393 . S
C2090 H2082 0.950 1_565 S
C2090 C2088 1.391 . S
C2090 C2091 1.400 1_565 S
C2091 C2090 1.400 1_545 S
C2091 C2092 1.398 1_545 S
C2091 C2097 1.491 . S
C2092 H2083 0.950 1_565 S
C2092 C2091 1.398 1_565 S
C2092 C2093 1.391 . S
C2093 H2081 0.950 . S
C2093 C2089 1.393 . S
C2093 C2092 1.391 . S
C2094 H2084 0.950 . S
C2094 C2095 1.386 . S
C2094 C2096 1.391 . S
C2095 C2094 1.386 . S
C2095 C2099 1.393 . S
C2096 H2085 0.950 . S
C2096 C2094 1.391 . S
C2096 C2097 1.400 . S
C2097 C2091 1.491 . S
C2097 C2096 1.400 . S
C2097 C2098 1.398 . S
C2098 H2086 0.950 . S
C2098 C2097 1.398 . S
C2098 C2099 1.391 . S
C2099 H2087 0.950 . S
C2099 C2095 1.393 . S
C2099 C2098 1.391 . S
H2100 C2108 0.950 . S
H2101 C2113 0.950 . S
H2102 C2110 0.950 . S
H2103 C2112 0.950 . S
H2104 C2114 0.950 . S
H2105 C2116 0.950 . S
H2106 C2118 0.950 . S
H2107 C2119 0.950 . S
C2108 H2100 0.950 . S
C2108 C2109 1.386 . S
C2108 C2110 1.391 . S
C2109 C2108 1.386 . S
C2109 C2113 1.393 . S
C2110 H2102 0.950 . S
C2110 C2108 1.391 . S
C2110 C2111 1.400 . S
C2111 C2110 1.400 . S
C2111 C2112 1.398 . S
C2111 C2117 1.491 . S
C2112 H2103 0.950 . S
C2112 C2111 1.398 . S
C2112 C2113 1.391 . S
C2113 H2101 0.950 . S
C2113 C2109 1.393 . S
C2113 C2112 1.391 . S
C2114 H2104 0.950 . S
C2114 C2115 1.386 . S
C2114 C2116 1.391 . S
C2115 C2114 1.386 . S
C2115 C2119 1.393 . S
C2116 H2105 0.950 . S
C2116 C2114 1.391 . S
C2116 C2117 1.400 . S
C2117 C2111 1.491 . S
C2117 C2116 1.400 . S
C2117 C2118 1.398 . S
C2118 H2106 0.950 . S
C2118 C2117 1.398 . S
C2118 C2119 1.391 . S
C2119 H2107 0.950 . S
C2119 C2115 1.393 . S
C2119 C2118 1.391 . S
H2120 C2128 0.950 . S
H2121 C2133 0.950 . S
H2122 C2130 0.950 . S
H2123 C2132 0.950 . S
H2124 C2134 0.950 . S
H2125 C2136 0.950 . S
H2126 C2138 0.950 . S
H2127 C2139 0.950 . S
C2128 H2120 0.950 . S
C2128 C2129 1.386 . S
C2128 C2130 1.391 . S
C2129 C2128 1.386 . S
C2129 C2133 1.393 . S
C2130 H2122 0.950 . S
C2130 C2128 1.391 . S
C2130 C2131 1.400 . S
C2131 C2130 1.400 . S
C2131 C2132 1.398 . S
C2131 C2137 1.491 . S
C2132 H2123 0.950 . S
C2132 C2131 1.398 . S
C2132 C2133 1.391 . S
C2133 H2121 0.950 . S
C2133 C2129 1.393 . S
C2133 C2132 1.391 . S
C2134 H2124 0.950 . S
C2134 C2135 1.386 . S
C2134 C2136 1.391 . S
C2135 C2134 1.386 . S
C2135 C2139 1.393 . S
C2136 H2125 0.950 . S
C2136 C2134 1.391 . S
C2136 C2137 1.400 . S
C2137 C2131 1.491 . S
C2137 C2136 1.400 . S
C2137 C2138 1.398 . S
C2138 H2126 0.950 . S
C2138 C2137 1.398 . S
C2138 C2139 1.391 . S
C2139 H2127 0.950 . S
C2139 C2135 1.393 . S
C2139 C2138 1.391 . S
H2140 C2148 0.950 . S
H2141 C2153 0.950 . S
H2142 C2150 0.950 . S
H2143 C2152 0.950 . S
H2144 C2154 0.950 . S
H2145 C2156 0.950 . S
H2146 C2158 0.950 . S
H2147 C2159 0.950 . S
C2148 H2140 0.950 . S
C2148 C2149 1.386 . S
C2148 C2150 1.391 . S
C2149 C2148 1.386 . S
C2149 C2153 1.393 . S
C2150 H2142 0.950 . S
C2150 C2148 1.391 . S
C2150 C2151 1.400 . S
C2151 C2150 1.400 . S
C2151 C2152 1.398 . S
C2151 C2157 1.491 . S
C2152 H2143 0.950 . S
C2152 C2151 1.398 . S
C2152 C2153 1.391 . S
C2153 H2141 0.950 . S
C2153 C2149 1.393 . S
C2153 C2152 1.391 . S
C2154 H2144 0.950 . S
C2154 C2155 1.386 . S
C2154 C2156 1.391 . S
C2155 C2154 1.386 . S
C2155 C2159 1.393 . S
C2156 H2145 0.950 . S
C2156 C2154 1.391 . S
C2156 C2157 1.400 . S
C2157 C2151 1.491 . S
C2157 C2156 1.400 . S
C2157 C2158 1.398 . S
C2158 H2146 0.950 . S
C2158 C2157 1.398 . S
C2158 C2159 1.391 . S
C2159 H2147 0.950 . S
C2159 C2155 1.393 . S
C2159 C2158 1.391 . S
H2160 C2168 0.950 . S
H2161 C2173 0.950 . S
H2162 C2170 0.950 . S
H2163 C2172 0.950 . S
H2164 C2174 0.950 1_545 S
H2165 C2176 0.950 . S
H2166 C2178 0.950 . S
H2167 C2179 0.950 . S
C2168 H2160 0.950 . S
C2168 C2169 1.386 . S
C2168 C2170 1.391 . S
C2169 C2168 1.386 . S
C2169 C2173 1.393 . S
C2170 H2162 0.950 . S
C2170 C2168 1.391 . S
C2170 C2171 1.400 . S
C2171 C2170 1.400 . S
C2171 C2172 1.398 . S
C2171 C2177 1.491 . S
C2172 H2163 0.950 . S
C2172 C2171 1.398 . S
C2172 C2173 1.391 . S
C2173 H2161 0.950 . S
C2173 C2169 1.393 . S
C2173 C2172 1.391 . S
C2174 H2164 0.950 1_565 S
C2174 C2175 1.386 . S
C2174 C2176 1.391 . S
C2175 C2174 1.386 . S
C2175 C2179 1.393 . S
C2176 H2165 0.950 . S
C2176 C2174 1.391 . S
C2176 C2177 1.400 . S
C2177 C2171 1.491 . S
C2177 C2176 1.400 . S
C2177 C2178 1.398 . S
C2178 H2166 0.950 . S
C2178 C2177 1.398 . S
C2178 C2179 1.391 . S
C2179 H2167 0.950 . S
C2179 C2175 1.393 . S
C2179 C2178 1.391 . S
H2180 C2188 0.950 . S
H2181 C2193 0.950 . S
H2182 C2190 0.950 . S
H2183 C2192 0.950 . S
H2184 C2194 0.950 . S
H2185 C2196 0.950 . S
H2186 C2198 0.950 . S
H2187 C2199 0.950 . S
C2188 H2180 0.950 . S
C2188 C2189 1.386 . S
C2188 C2190 1.391 . S
C2189 C2188 1.386 . S
C2189 C2193 1.393 1_455 S
C2190 H2182 0.950 . S
C2190 C2188 1.391 . S
C2190 C2191 1.400 . S
C2191 C2190 1.400 . S
C2191 C2192 1.398 1_455 S
C2191 C2197 1.491 . S
C2192 H2183 0.950 . S
C2192 C2191 1.398 1_655 S
C2192 C2193 1.391 . S
C2193 H2181 0.950 . S
C2193 C2189 1.393 1_655 S
C2193 C2192 1.391 . S
C2194 H2184 0.950 . S
C2194 C2195 1.386 1_655 S
C2194 C2196 1.391 . S
C2195 C2194 1.386 1_455 S
C2195 C2199 1.393 . S
C2196 H2185 0.950 . S
C2196 C2194 1.391 . S
C2196 C2197 1.400 1_655 S
C2197 C2191 1.491 . S
C2197 C2196 1.400 1_455 S
C2197 C2198 1.398 . S
C2198 H2186 0.950 . S
C2198 C2197 1.398 . S
C2198 C2199 1.391 . S
C2199 H2187 0.950 . S
C2199 C2195 1.393 . S
C2199 C2198 1.391 . S
H2200 C2208 0.950 . S
H2201 C2213 0.950 . S
H2202 C2210 0.950 . S
H2203 C2212 0.950 . S
H2204 C2214 0.950 . S
H2205 C2216 0.950 . S
H2206 C2218 0.950 . S
H2207 C2219 0.950 . S
C2208 H2200 0.950 . S
C2208 C2209 1.386 . S
C2208 C2210 1.391 . S
C2209 C2208 1.386 . S
C2209 C2213 1.393 . S
C2210 H2202 0.950 . S
C2210 C2208 1.391 . S
C2210 C2211 1.400 . S
C2211 C2210 1.400 . S
C2211 C2212 1.398 . S
C2211 C2217 1.491 . S
C2212 H2203 0.950 . S
C2212 C2211 1.398 . S
C2212 C2213 1.391 . S
C2213 H2201 0.950 . S
C2213 C2209 1.393 . S
C2213 C2212 1.391 . S
C2214 H2204 0.950 . S
C2214 C2215 1.386 . S
C2214 C2216 1.391 . S
C2215 C2214 1.386 . S
C2215 C2219 1.393 . S
C2216 H2205 0.950 . S
C2216 C2214 1.391 . S
C2216 C2217 1.400 . S
C2217 C2211 1.491 . S
C2217 C2216 1.400 . S
C2217 C2218 1.398 . S
C2218 H2206 0.950 . S
C2218 C2217 1.398 . S
C2218 C2219 1.391 . S
C2219 H2207 0.950 . S
C2219 C2215 1.393 . S
C2219 C2218 1.391 . S
H2220 C2228 0.950 . S
H2221 C2233 0.950 . S
H2222 C2230 0.950 . S
H2223 C2232 0.950 . S
H2224 C2234 0.950 . S
H2225 C2236 0.950 . S
H2226 C2238 0.950 . S
H2227 C2239 0.950 . S
C2228 H2220 0.950 . S
C2228 C2229 1.386 1_455 S
C2228 C2230 1.391 . S
C2229 C2228 1.386 1_655 S
C2229 C2233 1.393 . S
C2230 H2222 0.950 . S
C2230 C2228 1.391 . S
C2230 C2231 1.400 1_455 S
C2231 C2230 1.400 1_655 S
C2231 C2232 1.398 . S
C2231 C2237 1.491 . S
C2232 H2223 0.950 . S
C2232 C2231 1.398 . S
C2232 C2233 1.391 . S
C2233 H2221 0.950 . S
C2233 C2229 1.393 . S
C2233 C2232 1.391 . S
C2234 H2224 0.950 . S
C2234 C2235 1.386 . S
C2234 C2236 1.391 . S
C2235 C2234 1.386 . S
C2235 C2239 1.393 1_655 S
C2236 H2225 0.950 . S
C2236 C2234 1.391 . S
C2236 C2237 1.400 . S
C2237 C2231 1.491 . S
C2237 C2236 1.400 . S
C2237 C2238 1.398 1_655 S
C2238 H2226 0.950 . S
C2238 C2237 1.398 1_455 S
C2238 C2239 1.391 . S
C2239 H2227 0.950 . S
C2239 C2235 1.393 1_455 S
C2239 C2238 1.391 . S
H2240 C2248 0.950 . S
H2241 C2253 0.950 . S
H2242 C2250 0.950 . S
H2243 C2252 0.950 . S
H2244 C2254 0.950 . S
H2245 C2256 0.950 . S
H2246 C2258 0.950 . S
H2247 C2259 0.950 . S
C2248 H2240 0.950 . S
C2248 C2249 1.386 . S
C2248 C2250 1.391 . S
C2249 C2248 1.386 . S
C2249 C2253 1.393 . S
C2250 H2242 0.950 . S
C2250 C2248 1.391 . S
C2250 C2251 1.400 . S
C2251 C2250 1.400 . S
C2251 C2252 1.398 . S
C2251 C2257 1.491 . S
C2252 H2243 0.950 . S
C2252 C2251 1.398 . S
C2252 C2253 1.391 . S
C2253 H2241 0.950 . S
C2253 C2249 1.393 . S
C2253 C2252 1.391 . S
C2254 H2244 0.950 . S
C2254 C2255 1.386 . S
C2254 C2256 1.391 . S
C2255 C2254 1.386 . S
C2255 C2259 1.393 . S
C2256 H2245 0.950 . S
C2256 C2254 1.391 . S
C2256 C2257 1.400 . S
C2257 C2251 1.491 . S
C2257 C2256 1.400 . S
C2257 C2258 1.398 . S
C2258 H2246 0.950 . S
C2258 C2257 1.398 . S
C2258 C2259 1.391 . S
C2259 H2247 0.950 . S
C2259 C2255 1.393 . S
C2259 C2258 1.391 . S
H2260 C2268 0.950 . S
H2261 C2273 0.950 . S
H2262 C2270 0.950 . S
H2263 C2272 0.950 . S
H2264 C2274 0.950 . S
H2265 C2276 0.950 . S
H2266 C2278 0.950 . S
H2267 C2279 0.950 . S
C2268 H2260 0.950 . S
C2268 C2269 1.386 . S
C2268 C2270 1.391 . S
C2269 C2268 1.386 . S
C2269 C2273 1.393 . S
C2270 H2262 0.950 . S
C2270 C2268 1.391 . S
C2270 C2271 1.400 . S
C2271 C2270 1.400 . S
C2271 C2272 1.398 . S
C2271 C2277 1.491 . S
C2272 H2263 0.950 . S
C2272 C2271 1.398 . S
C2272 C2273 1.391 . S
C2273 H2261 0.950 . S
C2273 C2269 1.393 . S
C2273 C2272 1.391 . S
C2274 H2264 0.950 . S
C2274 C2275 1.386 . S
C2274 C2276 1.391 . S
C2275 C2274 1.386 . S
C2275 C2279 1.393 . S
C2276 H2265 0.950 . S
C2276 C2274 1.391 . S
C2276 C2277 1.400 . S
C2277 C2271 1.491 . S
C2277 C2276 1.400 . S
C2277 C2278 1.398 . S
C2278 H2266 0.950 . S
C2278 C2277 1.398 . S
C2278 C2279 1.391 . S
C2279 H2267 0.950 . S
C2279 C2275 1.393 . S
C2279 C2278 1.391 . S
H2280 C2288 0.950 . S
H2281 C2293 0.950 . S
H2282 C2290 0.950 . S
H2283 C2292 0.950 . S
H2284 C2294 0.950 . S
H2285 C2296 0.950 . S
H2286 C2298 0.950 . S
H2287 C2299 0.950 . S
C2288 H2280 0.950 . S
C2288 C2289 1.386 . S
C2288 C2290 1.391 . S
C2289 C2288 1.386 . S
C2289 C2293 1.393 . S
C2290 H2282 0.950 . S
C2290 C2288 1.391 . S
C2290 C2291 1.400 . S
C2291 C2290 1.400 . S
C2291 C2292 1.398 . S
C2291 C2297 1.491 . S
C2292 H2283 0.950 . S
C2292 C2291 1.398 . S
C2292 C2293 1.391 . S
C2293 H2281 0.950 . S
C2293 C2289 1.393 . S
C2293 C2292 1.391 . S
C2294 H2284 0.950 . S
C2294 C2295 1.386 . S
C2294 C2296 1.391 . S
C2295 C2294 1.386 . S
C2295 C2299 1.393 . S
C2296 H2285 0.950 . S
C2296 C2294 1.391 . S
C2296 C2297 1.400 . S
C2297 C2291 1.491 . S
C2297 C2296 1.400 . S
C2297 C2298 1.398 . S
C2298 H2286 0.950 . S
C2298 C2297 1.398 . S
C2298 C2299 1.391 . S
C2299 H2287 0.950 . S
C2299 C2295 1.393 . S
C2299 C2298 1.391 . S
H2300 C2308 0.950 . S
H2301 C2313 0.950 . S
H2302 C2310 0.950 . S
H2303 C2312 0.950 . S
H2304 C2314 0.950 . S
H2305 C2316 0.950 . S
H2306 C2318 0.950 . S
H2307 C2319 0.950 . S
C2308 H2300 0.950 . S
C2308 C2309 1.386 . S
C2308 C2310 1.391 . S
C2309 C2308 1.386 . S
C2309 C2313 1.393 . S
C2310 H2302 0.950 . S
C2310 C2308 1.391 . S
C2310 C2311 1.400 . S
C2311 C2310 1.400 . S
C2311 C2312 1.398 . S
C2311 C2317 1.491 . S
C2312 H2303 0.950 . S
C2312 C2311 1.398 . S
C2312 C2313 1.391 . S
C2313 H2301 0.950 . S
C2313 C2309 1.393 . S
C2313 C2312 1.391 . S
C2314 H2304 0.950 . S
C2314 C2315 1.386 . S
C2314 C2316 1.391 . S
C2315 C2314 1.386 . S
C2315 C2319 1.393 . S
C2316 H2305 0.950 . S
C2316 C2314 1.391 . S
C2316 C2317 1.400 . S
C2317 C2311 1.491 . S
C2317 C2316 1.400 . S
C2317 C2318 1.398 . S
C2318 H2306 0.950 . S
C2318 C2317 1.398 . S
C2318 C2319 1.391 . S
C2319 H2307 0.950 . S
C2319 C2315 1.393 . S
C2319 C2318 1.391 . S
H2320 C2328 0.950 . S
H2321 C2333 0.950 . S
H2322 C2330 0.950 . S
H2323 C2332 0.950 . S
H2324 C2334 0.950 . S
H2325 C2336 0.950 . S
H2326 C2338 0.950 . S
H2327 C2339 0.950 . S
C2328 H2320 0.950 . S
C2328 C2329 1.386 . S
C2328 C2330 1.391 . S
C2329 C2328 1.386 . S
C2329 C2333 1.393 . S
C2330 H2322 0.950 . S
C2330 C2328 1.391 . S
C2330 C2331 1.400 . S
C2331 C2330 1.400 . S
C2331 C2332 1.398 . S
C2331 C2337 1.491 . S
C2332 H2323 0.950 . S
C2332 C2331 1.398 . S
C2332 C2333 1.391 . S
C2333 H2321 0.950 . S
C2333 C2329 1.393 . S
C2333 C2332 1.391 . S
C2334 H2324 0.950 . S
C2334 C2335 1.386 . S
C2334 C2336 1.391 . S
C2335 C2334 1.386 . S
C2335 C2339 1.393 . S
C2336 H2325 0.950 . S
C2336 C2334 1.391 . S
C2336 C2337 1.400 . S
C2337 C2331 1.491 . S
C2337 C2336 1.400 . S
C2337 C2338 1.398 . S
C2338 H2326 0.950 . S
C2338 C2337 1.398 . S
C2338 C2339 1.391 . S
C2339 H2327 0.950 . S
C2339 C2335 1.393 . S
C2339 C2338 1.391 . S
H2340 C2348 0.950 . S
H2341 C2353 0.950 . S
H2342 C2350 0.950 . S
H2343 C2352 0.950 . S
H2344 C2354 0.950 . S
H2345 C2356 0.950 . S
H2346 C2358 0.950 . S
H2347 C2359 0.950 . S
C2348 H2340 0.950 . S
C2348 C2349 1.386 . S
C2348 C2350 1.391 . S
C2349 C2348 1.386 . S
C2349 C2353 1.393 . S
C2350 H2342 0.950 . S
C2350 C2348 1.391 . S
C2350 C2351 1.400 . S
C2351 C2350 1.400 . S
C2351 C2352 1.398 . S
C2351 C2357 1.491 . S
C2352 H2343 0.950 . S
C2352 C2351 1.398 . S
C2352 C2353 1.391 . S
C2353 H2341 0.950 . S
C2353 C2349 1.393 . S
C2353 C2352 1.391 . S
C2354 H2344 0.950 . S
C2354 C2355 1.386 . S
C2354 C2356 1.391 . S
C2355 C2354 1.386 . S
C2355 C2359 1.393 . S
C2356 H2345 0.950 . S
C2356 C2354 1.391 . S
C2356 C2357 1.400 . S
C2357 C2351 1.491 . S
C2357 C2356 1.400 . S
C2357 C2358 1.398 . S
C2358 H2346 0.950 . S
C2358 C2357 1.398 . S
C2358 C2359 1.391 . S
C2359 H2347 0.950 . S
C2359 C2355 1.393 . S
C2359 C2358 1.391 . S
H2360 C2368 0.950 . S
H2361 C2373 0.950 . S
H2362 C2370 0.950 . S
H2363 C2372 0.950 . S
H2364 C2374 0.950 . S
H2365 C2376 0.950 . S
H2366 C2378 0.950 . S
H2367 C2379 0.950 . S
C2368 H2360 0.950 . S
C2368 C2369 1.386 . S
C2368 C2370 1.391 . S
C2369 C2368 1.386 . S
C2369 C2373 1.393 . S
C2370 H2362 0.950 . S
C2370 C2368 1.391 . S
C2370 C2371 1.400 . S
C2371 C2370 1.400 . S
C2371 C2372 1.398 . S
C2371 C2377 1.491 . S
C2372 H2363 0.950 . S
C2372 C2371 1.398 . S
C2372 C2373 1.391 . S
C2373 H2361 0.950 . S
C2373 C2369 1.393 . S
C2373 C2372 1.391 . S
C2374 H2364 0.950 . S
C2374 C2375 1.386 . S
C2374 C2376 1.391 . S
C2375 C2374 1.386 . S
C2375 C2379 1.393 . S
C2376 H2365 0.950 . S
C2376 C2374 1.391 . S
C2376 C2377 1.400 . S
C2377 C2371 1.491 . S
C2377 C2376 1.400 . S
C2377 C2378 1.398 . S
C2378 H2366 0.950 . S
C2378 C2377 1.398 . S
C2378 C2379 1.391 . S
C2379 H2367 0.950 . S
C2379 C2375 1.393 . S
C2379 C2378 1.391 . S
H2380 C2388 0.950 . S
H2381 C2393 0.950 . S
H2382 C2390 0.950 . S
H2383 C2392 0.950 . S
H2384 C2394 0.950 . S
H2385 C2396 0.950 . S
H2386 C2398 0.950 . S
H2387 C2399 0.950 . S
C2388 H2380 0.950 . S
C2388 C2389 1.386 . S
C2388 C2390 1.391 . S
C2389 C2388 1.386 . S
C2389 C2393 1.393 . S
C2390 H2382 0.950 . S
C2390 C2388 1.391 . S
C2390 C2391 1.400 . S
C2391 C2390 1.400 . S
C2391 C2392 1.398 . S
C2391 C2397 1.491 . S
C2392 H2383 0.950 . S
C2392 C2391 1.398 . S
C2392 C2393 1.391 . S
C2393 H2381 0.950 . S
C2393 C2389 1.393 . S
C2393 C2392 1.391 . S
C2394 H2384 0.950 . S
C2394 C2395 1.386 . S
C2394 C2396 1.391 . S
C2395 C2394 1.386 . S
C2395 C2399 1.393 . S
C2396 H2385 0.950 . S
C2396 C2394 1.391 . S
C2396 C2397 1.400 . S
C2397 C2391 1.491 . S
C2397 C2396 1.400 . S
C2397 C2398 1.398 . S
C2398 H2386 0.950 . S
C2398 C2397 1.398 . S
C2398 C2399 1.391 . S
C2399 H2387 0.950 . S
C2399 C2395 1.393 . S
C2399 C2398 1.391 . S
H2400 C2408 0.950 . S
H2401 C2413 0.950 . S
H2402 C2410 0.950 . S
H2403 C2412 0.950 . S
H2404 C2414 0.950 . S
H2405 C2416 0.950 . S
H2406 C2418 0.950 . S
H2407 C2419 0.950 . S
C2408 H2400 0.950 . S
C2408 C2409 1.386 . S
C2408 C2410 1.391 . S
C2409 C2408 1.386 . S
C2409 C2413 1.393 . S
C2410 H2402 0.950 . S
C2410 C2408 1.391 . S
C2410 C2411 1.400 . S
C2411 C2410 1.400 . S
C2411 C2412 1.398 . S
C2411 C2417 1.491 . S
C2412 H2403 0.950 . S
C2412 C2411 1.398 . S
C2412 C2413 1.391 . S
C2413 H2401 0.950 . S
C2413 C2409 1.393 . S
C2413 C2412 1.391 . S
C2414 H2404 0.950 . S
C2414 C2415 1.386 . S
C2414 C2416 1.391 . S
C2415 C2414 1.386 . S
C2415 C2419 1.393 . S
C2416 H2405 0.950 . S
C2416 C2414 1.391 . S
C2416 C2417 1.400 . S
C2417 C2411 1.491 . S
C2417 C2416 1.400 . S
C2417 C2418 1.398 . S
C2418 H2406 0.950 . S
C2418 C2417 1.398 . S
C2418 C2419 1.391 . S
C2419 H2407 0.950 . S
C2419 C2415 1.393 . S
C2419 C2418 1.391 . S
H2420 C2428 0.950 . S
H2421 C2433 0.950 . S
H2422 C2430 0.950 . S
H2423 C2432 0.950 . S
H2424 C2434 0.950 . S
H2425 C2436 0.950 . S
H2426 C2438 0.950 . S
H2427 C2439 0.950 . S
C2428 H2420 0.950 . S
C2428 C2429 1.386 . S
C2428 C2430 1.391 . S
C2429 C2428 1.386 . S
C2429 C2433 1.393 . S
C2430 H2422 0.950 . S
C2430 C2428 1.391 . S
C2430 C2431 1.400 . S
C2431 C2430 1.400 . S
C2431 C2432 1.398 . S
C2431 C2437 1.491 . S
C2432 H2423 0.950 . S
C2432 C2431 1.398 . S
C2432 C2433 1.391 . S
C2433 H2421 0.950 . S
C2433 C2429 1.393 . S
C2433 C2432 1.391 . S
C2434 H2424 0.950 . S
C2434 C2435 1.386 . S
C2434 C2436 1.391 . S
C2435 C2434 1.386 . S
C2435 C2439 1.393 . S
C2436 H2425 0.950 . S
C2436 C2434 1.391 . S
C2436 C2437 1.400 . S
C2437 C2431 1.491 . S
C2437 C2436 1.400 . S
C2437 C2438 1.398 . S
C2438 H2426 0.950 . S
C2438 C2437 1.398 . S
C2438 C2439 1.391 . S
C2439 H2427 0.950 . S
C2439 C2435 1.393 . S
C2439 C2438 1.391 . S
H2440 C2448 0.950 . S
H2441 C2453 0.950 . S
H2442 C2450 0.950 . S
H2443 C2452 0.950 . S
H2444 C2454 0.950 . S
H2445 C2456 0.950 . S
H2446 C2458 0.950 . S
H2447 C2459 0.950 . S
C2448 H2440 0.950 . S
C2448 C2449 1.386 . S
C2448 C2450 1.391 . S
C2449 C2448 1.386 . S
C2449 C2453 1.393 . S
C2450 H2442 0.950 . S
C2450 C2448 1.391 . S
C2450 C2451 1.400 . S
C2451 C2450 1.400 . S
C2451 C2452 1.398 . S
C2451 C2457 1.491 . S
C2452 H2443 0.950 . S
C2452 C2451 1.398 . S
C2452 C2453 1.391 . S
C2453 H2441 0.950 . S
C2453 C2449 1.393 . S
C2453 C2452 1.391 . S
C2454 H2444 0.950 . S
C2454 C2455 1.386 . S
C2454 C2456 1.391 . S
C2455 C2454 1.386 . S
C2455 C2459 1.393 . S
C2456 H2445 0.950 . S
C2456 C2454 1.391 . S
C2456 C2457 1.400 . S
C2457 C2451 1.491 . S
C2457 C2456 1.400 . S
C2457 C2458 1.398 . S
C2458 H2446 0.950 . S
C2458 C2457 1.398 . S
C2458 C2459 1.391 . S
C2459 H2447 0.950 . S
C2459 C2455 1.393 . S
C2459 C2458 1.391 . S
H2460 C2468 0.950 . S
H2461 C2473 0.950 . S
H2462 C2470 0.950 . S
H2463 C2472 0.950 . S
H2464 C2474 0.950 . S
H2465 C2476 0.950 . S
H2466 C2478 0.950 . S
H2467 C2479 0.950 . S
C2468 H2460 0.950 . S
C2468 C2469 1.386 . S
C2468 C2470 1.391 . S
C2469 C2468 1.386 . S
C2469 C2473 1.393 . S
C2470 H2462 0.950 . S
C2470 C2468 1.391 . S
C2470 C2471 1.400 . S
C2471 C2470 1.400 . S
C2471 C2472 1.398 . S
C2471 C2477 1.491 . S
C2472 H2463 0.950 . S
C2472 C2471 1.398 . S
C2472 C2473 1.391 . S
C2473 H2461 0.950 . S
C2473 C2469 1.393 . S
C2473 C2472 1.391 . S
C2474 H2464 0.950 . S
C2474 C2475 1.386 . S
C2474 C2476 1.391 . S
C2475 C2474 1.386 . S
C2475 C2479 1.393 . S
C2476 H2465 0.950 . S
C2476 C2474 1.391 . S
C2476 C2477 1.400 . S
C2477 C2471 1.491 . S
C2477 C2476 1.400 . S
C2477 C2478 1.398 . S
C2478 H2466 0.950 . S
C2478 C2477 1.398 . S
C2478 C2479 1.391 . S
C2479 H2467 0.950 . S
C2479 C2475 1.393 . S
C2479 C2478 1.391 . S
H2480 C2488 0.950 . S
H2481 C2493 0.950 . S
H2482 C2490 0.950 . S
H2483 C2492 0.950 . S
H2484 C2494 0.950 . S
H2485 C2496 0.950 . S
H2486 C2498 0.950 . S
H2487 C2499 0.950 . S
C2488 H2480 0.950 . S
C2488 C2489 1.386 . S
C2488 C2490 1.391 . S
C2489 C2488 1.386 . S
C2489 C2493 1.393 . S
C2490 H2482 0.950 . S
C2490 C2488 1.391 . S
C2490 C2491 1.400 . S
C2491 C2490 1.400 . S
C2491 C2492 1.398 . S
C2491 C2497 1.491 . S
C2492 H2483 0.950 . S
C2492 C2491 1.398 . S
C2492 C2493 1.391 . S
C2493 H2481 0.950 . S
C2493 C2489 1.393 . S
C2493 C2492 1.391 . S
C2494 H2484 0.950 . S
C2494 C2495 1.386 . S
C2494 C2496 1.391 . S
C2495 C2494 1.386 . S
C2495 C2499 1.393 . S
C2496 H2485 0.950 . S
C2496 C2494 1.391 . S
C2496 C2497 1.400 . S
C2497 C2491 1.491 . S
C2497 C2496 1.400 . S
C2497 C2498 1.398 . S
C2498 H2486 0.950 . S
C2498 C2497 1.398 . S
C2498 C2499 1.391 . S
C2499 H2487 0.950 . S
C2499 C2495 1.393 . S
C2499 C2498 1.391 . S
H2500 C2508 0.950 . S
H2501 C2513 0.950 . S
H2502 C2510 0.950 . S
H2503 C2512 0.950 . S
H2504 C2514 0.950 . S
H2505 C2516 0.950 . S
H2506 C2518 0.950 . S
H2507 C2519 0.950 . S
C2508 H2500 0.950 . S
C2508 C2509 1.386 . S
C2508 C2510 1.391 . S
C2509 C2508 1.386 . S
C2509 C2513 1.393 . S
C2510 H2502 0.950 . S
C2510 C2508 1.391 . S
C2510 C2511 1.400 . S
C2511 C2510 1.400 . S
C2511 C2512 1.398 . S
C2511 C2517 1.491 . S
C2512 H2503 0.950 . S
C2512 C2511 1.398 . S
C2512 C2513 1.391 . S
C2513 H2501 0.950 . S
C2513 C2509 1.393 . S
C2513 C2512 1.391 . S
C2514 H2504 0.950 . S
C2514 C2515 1.386 . S
C2514 C2516 1.391 . S
C2515 C2514 1.386 . S
C2515 C2519 1.393 . S
C2516 H2505 0.950 . S
C2516 C2514 1.391 . S
C2516 C2517 1.400 . S
C2517 C2511 1.491 . S
C2517 C2516 1.400 . S
C2517 C2518 1.398 . S
C2518 H2506 0.950 . S
C2518 C2517 1.398 . S
C2518 C2519 1.391 . S
C2519 H2507 0.950 . S
C2519 C2515 1.393 . S
C2519 C2518 1.391 . S
C1449 C781 1.680 . S
C1455 C1083 1.695 . S
C1469 C871 1.767 . S
C1475 C1123 1.798 . S
C1489 C751 1.716 . S
C1495 C1175 1.761 . S
C1509 C691 1.546 . S
C1515 C1135 1.568 . S
C1535 C1163 1.472 . S
C1529 C571 1.397 . S
C1549 C601 1.407 . S
C1555 C1095 1.425 . S
C1575 C1102 1.696 . S
C1569 C661 1.619 . S
C1595 C1142 1.797 . S
C1589 C541 1.731 . S
C1609 C631 1.782 . S
C1615 C1162 1.764 . S
C1629 C811 1.593 . S
C1635 C1122 1.560 . S
C1649 C841 1.446 . S
C1655 C1182 1.479 . S
C1675 C1082 1.445 . S
C1669 C721 1.362 . S
C1695 C1203 1.698 . S
C1689 C61 1.691 . S
C1709 C151 1.763 . S
C1715 C1243 1.798 . S
C1729 C31 1.699 . S
C1735 C1295 1.763 . S
C1749 C1051 1.539 . S
C1755 C1255 1.578 . S
C1769 C931 1.395 . S
C1775 C1283 1.471 . S
C1789 C961 1.424 . S
C1795 C1215 1.442 . S
C1809 C1021 1.613 . S
C1815 C1222 1.687 . S
C1829 C901 1.749 . S
C1835 C1262 1.804 . S
C1855 C1282 1.748 . S
C1849 C991 1.775 . S
C1869 C91 1.588 . S
C1875 C1242 1.579 . S
C1895 C1302 1.471 . S
C1889 C121 1.432 . S
C1909 C1 1.355 . S
C1915 C1202 1.438 . S
C1935 C1323 1.693 . S
C1929 C421 1.691 . S
C1949 C511 1.760 . S
C1955 C1363 1.805 . S
C1975 C1415 1.764 . S
C1969 C391 1.704 . S
C1995 C1375 1.569 . S
C1989 C331 1.546 . S
C2015 C1403 1.479 . S
C2009 C211 1.422 . S
C2029 C241 1.429 . S
C2035 C1335 1.446 . S
C2049 C301 1.606 . S
C2055 C1342 1.689 . S
C2069 C181 1.727 . S
C2075 C1382 1.796 . S
C2095 C1402 1.765 . S
C2089 C271 1.780 . S
C2109 C451 1.594 . S
C2115 C1362 1.560 . S
C2129 C481 1.425 . S
C2135 C1422 1.472 . S
C2149 C361 1.328 . S
C2155 C1322 1.429 . S
C2169 C920 1.301 . S
C2175 C1106 1.313 . S
C2195 C1146 1.861 . S
C2189 C980 1.875 . S
C2209 C1040 1.525 . S
C2215 C1169 1.575 . S
C2229 C380 1.811 . S
C2235 C1129 1.854 . S
C2249 C440 1.547 . S
C2255 C1186 1.578 . S
C2275 C1089 1.313 . S
C2269 C500 1.304 . S
C2289 C200 1.296 . S
C2295 C1226 1.309 . S
C2309 C260 1.867 . S
C2315 C1266 1.853 . S
C2329 C320 1.533 . S
C2335 C1289 1.581 . S
C2349 C740 1.802 . S
C2355 C1249 1.853 . S
C2375 C1306 1.574 . S
C2369 C800 1.563 . S
C2389 C860 1.308 . S
C2395 C1209 1.312 . S
C2409 C560 1.298 . S
C2415 C1346 1.318 . S
C2429 C620 1.866 . S
C2435 C1386 1.853 . S
C2455 C1409 1.576 . S
C2449 C680 1.529 . S
C2469 C20 1.818 . S
C2475 C1369 1.867 . S
C2489 C80 1.551 . S
C2495 C1426 1.575 . S
C2509 C140 1.289 . S
C2515 C1329 1.318 . S
