# Generated by pormake.
# Topology pyr, (3,6)-cn, num edge types: 1
# Building blocks:
#     Node 0, Type 0, BuildingBlock: VETTIZ_charged_linker_0, # of connection points: 3
#     Node 1, Type 0, BuildingBlock: VETTIZ_charged_linker_0, # of connection points: 3
#     Node 2, Type 0, BuildingBlock: VETTIZ_charged_linker_0, # of connection points: 3
#     Node 3, Type 0, BuildingBlock: VETTIZ_charged_linker_0, # of connection points: 3
#     Node 4, Type 0, BuildingBlock: VETTIZ_charged_linker_0, # of connection points: 3
#     Node 5, Type 0, BuildingBlock: VETTIZ_charged_linker_0, # of connection points: 3
#     Node 6, Type 0, BuildingBlock: VETTIZ_charged_linker_0, # of connection points: 3
#     Node 7, Type 0, BuildingBlock: VETTIZ_charged_linker_0, # of connection points: 3
#     Node 8, Type 1, BuildingBlock: BETDIP_clean_sbu_0, # of connection points: 6
#     Node 9, Type 1, BuildingBlock: BETDIP_clean_sbu_0, # of connection points: 6
#     Node 10, Type 1, BuildingBlock: BETDIP_clean_sbu_0, # of connection points: 6
#     Node 11, Type 1, BuildingBlock: BETDIP_clean_sbu_0, # of connection points: 6
#     Edge 12, Type (0, 1), BuildingBlock: TEMPAE_clean_linker_10, # of connection points: 2
#     Edge 13, Type (0, 1), BuildingBlock: TEMPAE_clean_linker_10, # of connection points: 2
#     Edge 14, Type (0, 1), BuildingBlock: TEMPAE_clean_linker_10, # of connection points: 2
#     Edge 15, Type (0, 1), BuildingBlock: TEMPAE_clean_linker_10, # of connection points: 2
#     Edge 16, Type (0, 1), BuildingBlock: TEMPAE_clean_linker_10, # of connection points: 2
#     Edge 17, Type (0, 1), BuildingBlock: TEMPAE_clean_linker_10, # of connection points: 2
#     Edge 18, Type (0, 1), BuildingBlock: TEMPAE_clean_linker_10, # of connection points: 2
#     Edge 19, Type (0, 1), BuildingBlock: TEMPAE_clean_linker_10, # of connection points: 2
#     Edge 20, Type (0, 1), BuildingBlock: TEMPAE_clean_linker_10, # of connection points: 2
#     Edge 21, Type (0, 1), BuildingBlock: TEMPAE_clean_linker_10, # of connection points: 2
#     Edge 22, Type (0, 1), BuildingBlock: TEMPAE_clean_linker_10, # of connection points: 2
#     Edge 23, Type (0, 1), BuildingBlock: TEMPAE_clean_linker_10, # of connection points: 2
#     Edge 24, Type (0, 1), BuildingBlock: TEMPAE_clean_linker_10, # of connection points: 2
#     Edge 25, Type (0, 1), BuildingBlock: TEMPAE_clean_linker_10, # of connection points: 2
#     Edge 26, Type (0, 1), BuildingBlock: TEMPAE_clean_linker_10, # of connection points: 2
#     Edge 27, Type (0, 1), BuildingBlock: TEMPAE_clean_linker_10, # of connection points: 2
#     Edge 28, Type (0, 1), BuildingBlock: TEMPAE_clean_linker_10, # of connection points: 2
#     Edge 29, Type (0, 1), BuildingBlock: TEMPAE_clean_linker_10, # of connection points: 2
#     Edge 30, Type (0, 1), BuildingBlock: TEMPAE_clean_linker_10, # of connection points: 2
#     Edge 31, Type (0, 1), BuildingBlock: TEMPAE_clean_linker_10, # of connection points: 2
#     Edge 32, Type (0, 1), BuildingBlock: TEMPAE_clean_linker_10, # of connection points: 2
#     Edge 33, Type (0, 1), BuildingBlock: TEMPAE_clean_linker_10, # of connection points: 2
#     Edge 34, Type (0, 1), BuildingBlock: TEMPAE_clean_linker_10, # of connection points: 2
#     Edge 35, Type (0, 1), BuildingBlock: TEMPAE_clean_linker_10, # of connection points: 2
# Relax obj value: 0.119
# Max RMSD: 0.192
# Mean RMSD: 0.087
data_MOF--net-pyr--node1-BETDIP_clean_sbu_0--node2-VETTIZ_charged_linker_0--edge1-TEMPAE_clean_linker_10
_symmetry_space_group_name_H-M    P1
_symmetry_Int_Tables_number       1
_symmetry_cell_setting            triclinic
loop_
_symmetry_equiv_pos_as_xyz
'x, y, z'
_cell_length_a     44.678058
_cell_length_b     47.254857
_cell_length_c     45.899332
_cell_angle_alpha  89.013527
_cell_angle_beta   93.011275
_cell_angle_gamma 101.49679
loop_
_atom_site_label
_atom_site_type_symbol
_atom_site_fract_x
_atom_site_fract_y
_atom_site_fract_z
_atom_type_partial_charge
C0 C 0.29508 0.22856 0.33464 0.0
C1 C 0.27081 0.23806 0.34713 0.0
C2 C 0.26155 0.26306 0.33592 0.0
C3 C 0.29827 0.26679 0.29833 0.0
C4 C 0.3085 0.24327 0.31042 0.0
C5 C 0.33356 0.2352 0.2937 0.0
H6 H 0.41521 0.25003 0.17298 0.0
C7 C 0.31507 0.2754 0.27168 0.0
C8 C 0.33612 0.25731 0.2691 0.0
H9 H 0.41684 0.18975 0.24496 0.0
H10 H 0.38303 0.21275 0.27056 0.0
H11 H 0.41432 0.30803 0.21308 0.0
H12 H 0.34404 0.24422 0.17024 0.0
H13 H 0.33398 0.278 0.16467 0.0
H14 H 0.36873 0.27153 0.15026 0.0
H15 H 0.40873 0.30592 0.17409 0.0
H16 H 0.38732 0.32587 0.19545 0.0
C17 C 0.36301 0.23944 0.3139 0.0
C18 C 0.32219 0.20395 0.2824 0.0
C19 C 0.28004 0.34835 0.20282 0.0
C20 C 0.28818 0.35845 0.17478 0.0
C21 C 0.3131 0.34979 0.16235 0.0
C22 C 0.32909 0.3308 0.17739 0.0
C23 C 0.31978 0.32005 0.20496 0.0
C24 C 0.29596 0.32932 0.21737 0.0
C25 C 0.28845 0.31527 0.24636 0.0
C26 C 0.31151 0.29573 0.24932 0.0
C27 C 0.32972 0.29843 0.22498 0.0
C28 C 0.29436 0.33905 0.27001 0.0
C29 C 0.25507 0.29792 0.24373 0.0
C30 C 0.40838 0.24182 0.1943 0.0
C31 C 0.41888 0.2179 0.2068 0.0
C32 C 0.40968 0.20834 0.23484 0.0
C33 C 0.38961 0.22152 0.24962 0.0
C34 C 0.37801 0.24422 0.23614 0.0
C35 C 0.38785 0.25444 0.20921 0.0
C36 C 0.37221 0.27819 0.19793 0.0
C37 C 0.35144 0.28045 0.2226 0.0
C38 C 0.35481 0.26028 0.24475 0.0
C39 C 0.39679 0.30604 0.1947 0.0
C40 C 0.35388 0.26776 0.16917 0.0
H41 H 0.26661 0.29596 0.30358 0.0
H42 H 0.30296 0.20965 0.34314 0.0
H43 H 0.29751 0.20029 0.27537 0.0
H44 H 0.33375 0.19912 0.26298 0.0
H45 H 0.32497 0.18783 0.29973 0.0
H46 H 0.36352 0.2569 0.33 0.0
H47 H 0.36463 0.21941 0.32637 0.0
H48 H 0.38405 0.24647 0.30184 0.0
H49 H 0.26065 0.35406 0.21282 0.0
H50 H 0.31996 0.35745 0.14086 0.0
H51 H 0.34764 0.32472 0.16671 0.0
H52 H 0.31305 0.35722 0.26409 0.0
H53 H 0.2736 0.34813 0.27282 0.0
H54 H 0.30223 0.33123 0.29136 0.0
H55 H 0.25015 0.28724 0.2221 0.0
H56 H 0.25024 0.28019 0.25977 0.0
H57 H 0.23844 0.31228 0.24596 0.0
H58 H 0.24285 0.27073 0.34521 0.0
C59 C 0.27521 0.27752 0.31162 0.0
C60 C 0.10493 0.81574 0.69105 0.0
C61 C 0.0912 0.83604 0.70483 0.0
C62 C 0.09647 0.8399 0.73523 0.0
C63 C 0.13037 0.80581 0.73702 0.0
C64 C 0.12455 0.80111 0.70747 0.0
C65 C 0.14324 0.78088 0.69593 0.0
H66 H 0.2588 0.70841 0.72002 0.0
C67 C 0.15368 0.78931 0.74734 0.0
C68 C 0.16123 0.7744 0.72346 0.0
H69 H 0.20897 0.71834 0.63842 0.0
H70 H 0.17494 0.74259 0.66344 0.0
H71 H 0.2647 0.77038 0.73944 0.0
H72 H 0.19898 0.69439 0.761 0.0
H73 H 0.20889 0.71429 0.7933 0.0
H74 H 0.238 0.70089 0.77499 0.0
H75 H 0.27378 0.74376 0.76491 0.0
H76 H 0.25771 0.77362 0.77626 0.0
C77 C 0.16425 0.79751 0.67285 0.0
C78 C 0.1211 0.75359 0.68416 0.0
C79 C 0.20173 0.80619 0.84964 0.0
C80 C 0.22711 0.79761 0.86394 0.0
C81 C 0.23972 0.77592 0.85132 0.0
C82 C 0.22868 0.76458 0.82392 0.0
C83 C 0.20506 0.77531 0.80879 0.0
C84 C 0.19131 0.79502 0.82211 0.0
C85 C 0.16722 0.8047 0.80251 0.0
C86 C 0.16934 0.78812 0.77491 0.0
C87 C 0.19169 0.77115 0.77864 0.0
C88 C 0.17682 0.83787 0.79799 0.0
C89 C 0.13594 0.79471 0.81638 0.0
C90 C 0.24053 0.71574 0.70749 0.0
C91 C 0.23688 0.71185 0.67714 0.0
C92 C 0.21232 0.72111 0.66182 0.0
C93 C 0.19279 0.73543 0.67634 0.0
C94 C 0.19805 0.74077 0.70644 0.0
C95 C 0.22119 0.73033 0.72155 0.0
C96 C 0.22435 0.73868 0.75313 0.0
C97 C 0.19943 0.75608 0.75458 0.0
C98 C 0.18413 0.75742 0.72717 0.0
C99 C 0.25679 0.75742 0.75905 0.0
C100 C 0.21745 0.71073 0.77179 0.0
H101 H 0.11903 0.82918 0.77423 0.0
H102 H 0.10118 0.81181 0.66785 0.0
H103 H 0.10151 0.74728 0.69851 0.0
H104 H 0.1319 0.73453 0.68376 0.0
H105 H 0.11166 0.75746 0.6619 0.0
H106 H 0.17264 0.8204 0.67941 0.0
H107 H 0.15178 0.79755 0.65127 0.0
H108 H 0.18514 0.78891 0.67027 0.0
H109 H 0.19122 0.82249 0.85897 0.0
H110 H 0.25933 0.76893 0.8618 0.0
H111 H 0.23997 0.74893 0.81499 0.0
H112 H 0.20215 0.84467 0.79788 0.0
H113 H 0.16888 0.84982 0.81573 0.0
H114 H 0.16854 0.84548 0.77679 0.0
H115 H 0.13495 0.77379 0.82818 0.0
H116 H 0.11658 0.79051 0.79998 0.0
H117 H 0.13181 0.81074 0.83234 0.0
H118 H 0.08689 0.85565 0.74657 0.0
C119 C 0.11559 0.82472 0.75135 0.0
C120 C 0.61476 0.27131 0.91546 0.0
C121 C 0.58746 0.25399 0.90426 0.0
C122 C 0.57191 0.26439 0.88002 0.0
C123 C 0.61081 0.30864 0.87888 0.0
C124 C 0.62573 0.29837 0.90278 0.0
C125 C 0.65367 0.31959 0.91332 0.0
H126 H 0.74924 0.44931 0.9031 0.0
C127 C 0.62818 0.33808 0.87162 0.0
C128 C 0.6531 0.3445 0.89214 0.0
H129 H 0.75504 0.37957 0.96403 0.0
H130 H 0.709 0.35123 0.94211 0.0
H131 H 0.67906 0.4467 0.90586 0.0
H132 H 0.72831 0.40696 0.84557 0.0
H133 H 0.70153 0.42345 0.82568 0.0
H134 H 0.73101 0.44527 0.84831 0.0
H135 H 0.69672 0.46637 0.87544 0.0
H136 H 0.65814 0.44545 0.8723 0.0
C137 C 0.64898 0.328 0.94504 0.0
C138 C 0.68191 0.30566 0.9098 0.0
C139 C 0.59739 0.3954 0.78257 0.0
C140 C 0.6084 0.4239 0.77228 0.0
C141 C 0.63206 0.44155 0.78926 0.0
C142 C 0.64541 0.43102 0.81441 0.0
C143 C 0.6349 0.40252 0.82366 0.0
C144 C 0.61065 0.38539 0.80843 0.0
C145 C 0.60066 0.3566 0.82369 0.0
C146 C 0.62408 0.35883 0.84944 0.0
C147 C 0.64429 0.38584 0.849 0.0
C148 C 0.56789 0.35501 0.83385 0.0
C149 C 0.6034 0.3322 0.80266 0.0
C150 C 0.74042 0.42799 0.91176 0.0
C151 C 0.75605 0.41664 0.93527 0.0
C152 C 0.74382 0.38871 0.94571 0.0
C153 C 0.7169 0.37227 0.93298 0.0
C154 C 0.70173 0.38365 0.90933 0.0
C155 C 0.7135 0.41106 0.89904 0.0
C156 C 0.69439 0.41926 0.87337 0.0
C157 C 0.66933 0.39222 0.87 0.0
C158 C 0.67377 0.37156 0.89123 0.0
C159 C 0.68148 0.44593 0.8819 0.0
C160 C 0.71471 0.42421 0.84672 0.0
H161 H 0.57089 0.298 0.84857 0.0
H162 H 0.62706 0.26424 0.93429 0.0
H163 H 0.67851 0.2912 0.89051 0.0
H164 H 0.70291 0.32168 0.90564 0.0
H165 H 0.68621 0.29248 0.92926 0.0
H166 H 0.62456 0.32855 0.94811 0.0
H167 H 0.65579 0.31223 0.96101 0.0
H168 H 0.66149 0.34991 0.9509 0.0
H169 H 0.57904 0.381 0.77083 0.0
H170 H 0.64027 0.46394 0.78353 0.0
H171 H 0.66339 0.4457 0.82586 0.0
H172 H 0.56472 0.37659 0.8409 0.0
H173 H 0.55054 0.34757 0.81596 0.0
H174 H 0.56285 0.34085 0.85308 0.0
H175 H 0.62591 0.33702 0.79244 0.0
H176 H 0.60204 0.31114 0.81378 0.0
H177 H 0.5852 0.32987 0.78491 0.0
H178 H 0.55087 0.25144 0.87086 0.0
C179 C 0.58354 0.29145 0.86714 0.0
C180 C 0.90628 0.79496 0.39275 0.0
C181 C 0.89529 0.80876 0.41593 0.0
C182 C 0.86902 0.79416 0.42954 0.0
C183 C 0.86475 0.75321 0.39731 0.0
C184 C 0.89043 0.76728 0.3836 0.0
C185 C 0.89756 0.74957 0.35854 0.0
H186 H 0.8621 0.62455 0.27959 0.0
C187 C 0.85329 0.72499 0.38289 0.0
C188 C 0.87224 0.72256 0.35993 0.0
H189 H 0.93449 0.69845 0.26528 0.0
H190 H 0.91936 0.72252 0.30634 0.0
H191 H 0.86921 0.62429 0.35065 0.0
H192 H 0.81082 0.66241 0.29043 0.0
H193 H 0.78903 0.64699 0.31957 0.0
H194 H 0.80516 0.6241 0.29638 0.0
H195 H 0.83894 0.60297 0.32848 0.0
H196 H 0.83181 0.61709 0.36308 0.0
C197 C 0.92957 0.74252 0.36505 0.0
C198 C 0.8948 0.76683 0.32993 0.0
C199 C 0.76057 0.6583 0.42291 0.0
C200 C 0.74359 0.63093 0.41491 0.0
C201 C 0.75258 0.61714 0.3907 0.0
C202 C 0.77809 0.63025 0.37504 0.0
C203 C 0.79485 0.65765 0.38344 0.0
C204 C 0.78577 0.67115 0.40698 0.0
C205 C 0.80554 0.70036 0.41264 0.0
C206 C 0.82827 0.70224 0.38885 0.0
C207 C 0.8221 0.67719 0.37174 0.0
C208 C 0.82124 0.69966 0.44353 0.0
C209 C 0.78515 0.72331 0.40837 0.0
C210 C 0.87462 0.64603 0.28491 0.0
C211 C 0.89984 0.65922 0.26876 0.0
C212 C 0.91543 0.68719 0.2773 0.0
C213 C 0.90642 0.7014 0.30114 0.0
C214 C 0.88124 0.68787 0.31688 0.0
C215 C 0.86573 0.66065 0.30852 0.0
C216 C 0.83908 0.64967 0.32728 0.0
C217 C 0.84116 0.67459 0.34833 0.0
C218 C 0.86606 0.69708 0.34231 0.0
C219 C 0.84474 0.62192 0.34317 0.0
C220 C 0.80935 0.6453 0.30755 0.0
H221 H 0.83414 0.75699 0.43205 0.0
H222 H 0.92629 0.80568 0.38168 0.0
H223 H 0.87519 0.77808 0.33023 0.0
H224 H 0.89015 0.75295 0.31048 0.0
H225 H 0.91582 0.78345 0.32693 0.0
H226 H 0.93216 0.73569 0.38821 0.0
H227 H 0.94781 0.76174 0.36126 0.0
H228 H 0.93367 0.72448 0.35191 0.0
H229 H 0.75409 0.66982 0.441 0.0
H230 H 0.74009 0.596 0.38407 0.0
H231 H 0.78381 0.61854 0.357 0.0
H232 H 0.82732 0.67825 0.44815 0.0
H233 H 0.80588 0.7036 0.46063 0.0
H234 H 0.84312 0.7153 0.44614 0.0
H235 H 0.76566 0.71598 0.39238 0.0
H236 H 0.79746 0.74385 0.3991 0.0
H237 H 0.77542 0.72775 0.4292 0.0
H238 H 0.86025 0.80401 0.44756 0.0
C239 C 0.85388 0.76667 0.4205 0.0
C240 C 0.69273 0.71144 0.91601 0.0
C241 C 0.71383 0.69565 0.90635 0.0
C242 C 0.71944 0.69585 0.8764 0.0
C243 C 0.68617 0.72985 0.86689 0.0
C244 C 0.67895 0.72812 0.89585 0.0
C245 C 0.65668 0.74697 0.90232 0.0
H246 H 0.57854 0.84966 0.85688 0.0
C247 C 0.67041 0.75114 0.8522 0.0
C248 C 0.6524 0.76071 0.8726 0.0
H249 H 0.58476 0.81213 0.94324 0.0
H250 H 0.61384 0.77924 0.92526 0.0
H251 H 0.57323 0.7891 0.81801 0.0
H252 H 0.64502 0.85819 0.84852 0.0
H253 H 0.65745 0.84705 0.81591 0.0
H254 H 0.62292 0.86143 0.81535 0.0
H255 H 0.57812 0.82566 0.80484 0.0
H256 H 0.59755 0.80007 0.7891 0.0
C257 C 0.62679 0.72722 0.91193 0.0
C258 C 0.67227 0.76953 0.92536 0.0
C259 C 0.70427 0.79156 0.75361 0.0
C260 C 0.69706 0.81452 0.73658 0.0
C261 C 0.67195 0.82657 0.74369 0.0
C262 C 0.6557 0.81728 0.76854 0.0
C263 C 0.66485 0.79596 0.78667 0.0
C264 C 0.68803 0.78275 0.77855 0.0
C265 C 0.69481 0.76066 0.80059 0.0
C266 C 0.67295 0.76395 0.82401 0.0
C267 C 0.65567 0.78482 0.81582 0.0
C268 C 0.6867 0.73044 0.78622 0.0
C269 C 0.72873 0.76975 0.81158 0.0
C270 C 0.58602 0.83436 0.87201 0.0
C271 C 0.57909 0.83375 0.90163 0.0
C272 C 0.58909 0.81298 0.92023 0.0
C273 C 0.60644 0.79404 0.90983 0.0
C274 C 0.61458 0.79612 0.88063 0.0
C275 C 0.60413 0.81583 0.86218 0.0
C276 C 0.61703 0.81665 0.8325 0.0
C277 C 0.63651 0.79379 0.83605 0.0
C278 C 0.63492 0.78181 0.86428 0.0
C279 C 0.59019 0.8076 0.80971 0.0
C280 C 0.63647 0.84734 0.82751 0.0
H281 H 0.71145 0.71262 0.8343 0.0
H282 H 0.68768 0.71138 0.93885 0.0
H283 H 0.6971 0.7765 0.92174 0.0
H284 H 0.66329 0.78966 0.92426 0.0
H285 H 0.67006 0.76043 0.94779 0.0
H286 H 0.62214 0.70647 0.89983 0.0
H287 H 0.62831 0.72201 0.93558 0.0
H288 H 0.60636 0.73667 0.90706 0.0
H289 H 0.72307 0.78153 0.74834 0.0
H290 H 0.66593 0.84431 0.73097 0.0
H291 H 0.6375 0.82793 0.77339 0.0
H292 H 0.67013 0.73 0.76719 0.0
H293 H 0.70736 0.72385 0.77832 0.0
H294 H 0.67523 0.71361 0.80128 0.0
H295 H 0.73433 0.79321 0.81669 0.0
H296 H 0.7344 0.75861 0.83177 0.0
H297 H 0.7443 0.76568 0.79473 0.0
H298 H 0.73574 0.68403 0.86841 0.0
C299 C 0.7056 0.71273 0.85663 0.0
C300 C 0.89375 0.24689 0.41141 0.0
C301 C 0.91126 0.23051 0.39658 0.0
C302 C 0.91251 0.23342 0.366 0.0
C303 C 0.87544 0.26442 0.36521 0.0
C304 C 0.87631 0.26389 0.39531 0.0
C305 C 0.85582 0.28218 0.40729 0.0
H306 H 0.74213 0.35652 0.38224 0.0
C307 C 0.85249 0.28125 0.35481 0.0
C308 C 0.84147 0.29248 0.37931 0.0
H309 H 0.78701 0.34107 0.46505 0.0
H310 H 0.82178 0.31748 0.44039 0.0
H311 H 0.73708 0.2976 0.35866 0.0
H312 H 0.80555 0.37361 0.34487 0.0
H313 H 0.79552 0.35663 0.31087 0.0
H314 H 0.76668 0.36884 0.33064 0.0
H315 H 0.73141 0.32401 0.33154 0.0
H316 H 0.74893 0.29399 0.32344 0.0
C317 C 0.83183 0.26245 0.42567 0.0
C318 C 0.87609 0.30748 0.4245 0.0
C319 C 0.80922 0.26825 0.25069 0.0
C320 C 0.78335 0.27591 0.23646 0.0
C321 C 0.76953 0.29663 0.24926 0.0
C322 C 0.77963 0.3075 0.27707 0.0
C323 C 0.80354 0.29729 0.2923 0.0
C324 C 0.81872 0.2789 0.27862 0.0
C325 C 0.84297 0.26958 0.29836 0.0
C326 C 0.83873 0.28426 0.32664 0.0
C327 C 0.81546 0.30024 0.32298 0.0
C328 C 0.83508 0.23618 0.30103 0.0
C329 C 0.87464 0.28165 0.2859 0.0
C330 C 0.75988 0.34866 0.39506 0.0
C331 C 0.76186 0.35073 0.42563 0.0
C332 C 0.78485 0.33952 0.44149 0.0
C333 C 0.80505 0.32592 0.42713 0.0
C334 C 0.80207 0.32319 0.3966 0.0
C335 C 0.78005 0.33488 0.38109 0.0
C336 C 0.77935 0.32913 0.34895 0.0
C337 C 0.80504 0.31257 0.34758 0.0
C338 C 0.81811 0.30891 0.37557 0.0
C339 C 0.74762 0.3104 0.33992 0.0
C340 C 0.78695 0.3585 0.33275 0.0
H341 H 0.89608 0.25105 0.32705 0.0
H342 H 0.89246 0.24553 0.43489 0.0
H343 H 0.89902 0.31378 0.41526 0.0
H344 H 0.86658 0.32738 0.42326 0.0
H345 H 0.87962 0.3015 0.44776 0.0
H346 H 0.82281 0.24167 0.41427 0.0
H347 H 0.84208 0.25741 0.44723 0.0
H348 H 0.81164 0.27182 0.42929 0.0
H349 H 0.82055 0.25271 0.24105 0.0
H350 H 0.74956 0.3029 0.23869 0.0
H351 H 0.76734 0.32222 0.28628 0.0
H352 H 0.81045 0.2287 0.30522 0.0
H353 H 0.83969 0.22589 0.2806 0.0
H354 H 0.84777 0.22747 0.31908 0.0
H355 H 0.87395 0.30031 0.27092 0.0
H356 H 0.89216 0.29018 0.30324 0.0
H357 H 0.88274 0.26495 0.2734 0.0
H358 H 0.92667 0.22202 0.35406 0.0
C359 C 0.89481 0.25034 0.35031 0.0
C360 C 0.40882 0.67169 0.32314 0.0
C361 C 0.3937 0.64595 0.33668 0.0
C362 C 0.36408 0.6332 0.32551 0.0
C363 C 0.36626 0.66946 0.2872 0.0
C364 C 0.39455 0.68316 0.29868 0.0
C365 C 0.4066 0.71066 0.28194 0.0
H366 H 0.38297 0.80376 0.17087 0.0
C367 C 0.35787 0.68601 0.26136 0.0
C368 C 0.38123 0.71061 0.25826 0.0
H369 H 0.46089 0.81341 0.23217 0.0
H370 H 0.43937 0.76752 0.25499 0.0
H371 H 0.33051 0.77863 0.21587 0.0
H372 H 0.38244 0.74019 0.15731 0.0
H373 H 0.34689 0.71652 0.15784 0.0
H374 H 0.34889 0.75311 0.1448 0.0
H375 H 0.32586 0.78049 0.17684 0.0
H376 H 0.30499 0.75079 0.19728 0.0
C377 C 0.40952 0.7364 0.30292 0.0
C378 C 0.43706 0.7079 0.2689 0.0
C379 C 0.26169 0.64536 0.19818 0.0
C380 C 0.24897 0.65506 0.172 0.0
C381 C 0.26314 0.68179 0.16011 0.0
C382 C 0.28955 0.69836 0.17362 0.0
C383 C 0.30235 0.68821 0.1994 0.0
C384 C 0.28843 0.66216 0.21132 0.0
C385 C 0.30559 0.65482 0.2387 0.0
C386 C 0.33243 0.68046 0.24076 0.0
C387 C 0.33021 0.69997 0.21777 0.0
C388 C 0.28444 0.65376 0.26461 0.0
C389 C 0.31621 0.62617 0.23339 0.0
C390 C 0.39524 0.79624 0.18947 0.0
C391 C 0.42342 0.81253 0.19997 0.0
C392 C 0.43906 0.80137 0.22369 0.0
C393 C 0.42645 0.77478 0.237 0.0
C394 C 0.39797 0.75891 0.22636 0.0
C395 C 0.3832 0.7697 0.20267 0.0
C396 C 0.35416 0.74959 0.19288 0.0
C397 C 0.35308 0.72538 0.21517 0.0
C398 C 0.37868 0.73075 0.23503 0.0
C399 C 0.32733 0.76558 0.19559 0.0
C400 C 0.35798 0.73936 0.16155 0.0
H401 H 0.32819 0.63346 0.29365 0.0
H402 H 0.4314 0.68246 0.33102 0.0
H403 H 0.43529 0.68602 0.25958 0.0
H404 H 0.44332 0.72319 0.25077 0.0
H405 H 0.45605 0.71125 0.2859 0.0
H406 H 0.38914 0.73379 0.31638 0.0
H407 H 0.43006 0.73789 0.31799 0.0
H408 H 0.41067 0.75722 0.29141 0.0
H409 H 0.25142 0.62492 0.20789 0.0
H410 H 0.25358 0.69008 0.14033 0.0
H411 H 0.29899 0.71848 0.16337 0.0
H412 H 0.26701 0.66738 0.26031 0.0
H413 H 0.27201 0.6314 0.26885 0.0
H414 H 0.29709 0.66264 0.2849 0.0
H415 H 0.32565 0.62632 0.21141 0.0
H416 H 0.3347 0.6224 0.24892 0.0
H417 H 0.2968 0.60745 0.23445 0.0
H418 H 0.35099 0.61429 0.33582 0.0
C419 C 0.35054 0.64459 0.30098 0.0
C420 C 0.0887 0.27023 0.71765 0.0
C421 C 0.09887 0.25562 0.69459 0.0
C422 C 0.12527 0.26929 0.68058 0.0
C423 C 0.13118 0.31096 0.71213 0.0
C424 C 0.10542 0.29776 0.72624 0.0
C425 C 0.09917 0.31616 0.75111 0.0
H426 H 0.13851 0.442 0.82816 0.0
C427 C 0.14357 0.33928 0.72605 0.0
C428 C 0.12509 0.34259 0.74914 0.0
H429 H 0.06493 0.36953 0.8439 0.0
H430 H 0.07894 0.34446 0.80304 0.0
H431 H 0.13077 0.4413 0.75698 0.0
H432 H 0.18849 0.40265 0.81743 0.0
H433 H 0.21023 0.41712 0.78792 0.0
H434 H 0.19505 0.4409 0.81088 0.0
H435 H 0.16151 0.46238 0.77881 0.0
H436 H 0.16809 0.44759 0.74437 0.0
C437 C 0.06749 0.324 0.74473 0.0
C438 C 0.10178 0.29919 0.77994 0.0
C439 C 0.237 0.40352 0.68433 0.0
C440 C 0.25473 0.43071 0.69191 0.0
C441 C 0.24645 0.4451 0.71606 0.0
C442 C 0.22094 0.43277 0.73207 0.0
C443 C 0.20344 0.40554 0.72413 0.0
C444 C 0.2118 0.39143 0.70064 0.0
C445 C 0.1913 0.36244 0.69554 0.0
C446 C 0.16898 0.36145 0.71957 0.0
C447 C 0.17599 0.38675 0.73632 0.0
C448 C 0.17529 0.36304 0.66479 0.0
C449 C 0.21102 0.33896 0.69987 0.0
C450 C 0.12549 0.42062 0.82318 0.0
C451 C 0.10025 0.40815 0.83967 0.0
C452 C 0.084 0.38027 0.83159 0.0
C453 C 0.09236 0.36547 0.80787 0.0
C454 C 0.11755 0.37828 0.79178 0.0
C455 C 0.13373 0.4054 0.79968 0.0
C456 C 0.16031 0.41551 0.78058 0.0
C457 C 0.15739 0.39019 0.75986 0.0
C458 C 0.13213 0.36829 0.76636 0.0
C459 C 0.15522 0.44327 0.76436 0.0
C460 C 0.19021 0.41952 0.80005 0.0
H461 H 0.16106 0.30566 0.67724 0.0
H462 H 0.06864 0.26023 0.72904 0.0
H463 H 0.12067 0.28704 0.77951 0.0
H464 H 0.10747 0.31337 0.79913 0.0
H465 H 0.0803 0.28335 0.78355 0.0
H466 H 0.0648 0.33046 0.72147 0.0
H467 H 0.04884 0.30526 0.74902 0.0
H468 H 0.06414 0.34253 0.75757 0.0
H469 H 0.24291 0.39156 0.66629 0.0
H470 H 0.25952 0.46613 0.72235 0.0
H471 H 0.2158 0.44493 0.75005 0.0
H472 H 0.1694 0.38452 0.66012 0.0
H473 H 0.19036 0.3588 0.64757 0.0
H474 H 0.15328 0.34755 0.66247 0.0
H475 H 0.23084 0.3461 0.71557 0.0
H476 H 0.19838 0.31877 0.70954 0.0
H477 H 0.22025 0.33393 0.67899 0.0
H478 H 0.13344 0.2588 0.66264 0.0
C479 C 0.14129 0.29668 0.68908 0.0
Tb480 Tb 0.96152 1.02555 0.5663 0.0
Tb481 Tb 0.02479 0.03857 0.54824 0.0
C482 C 0.90433 1.01141 0.56868 0.0
C483 C 0.88199 0.98744 0.58026 0.0
C484 C 0.89037 0.96144 0.58924 0.0
C485 C 0.86919 0.93984 0.60244 0.0
C486 C 0.83951 0.9441 0.60698 0.0
C487 C 0.8311 0.96988 0.59711 0.0
C488 C 0.85219 0.99136 0.58388 0.0
C489 C 0.99836 0.066 0.59783 0.0
C490 C 0.00534 0.99139 0.59763 0.0
C491 C 0.0817 0.05393 0.54508 0.0
C492 C 0.10161 0.07384 0.52607 0.0
C493 C 0.12838 0.09122 0.53802 0.0
C494 C 0.1472 0.11079 0.5204 0.0
C495 C 0.1396 0.11317 0.49043 0.0
C496 C 0.11264 0.09565 0.47859 0.0
C497 C 0.09371 0.07633 0.49628 0.0
C498 C 0.98792 0.99864 0.51614 0.0
C499 C 0.98075 0.07244 0.51568 0.0
O500 O 0.91936 1.00565 0.54653 0.0
O501 O 0.92203 1.02729 0.58825 0.0
O502 O 0.99781 0.06274 0.57061 0.0
O503 O 0.97687 0.04656 0.60832 0.0
O504 O 0.9766 0.98973 0.58845 0.0
O505 O 0.02726 1.01185 0.5878 0.0
O506 O 0.06569 0.06603 0.56241 0.0
O507 O 0.0656 1.0306 0.53283 0.0
O508 O 0.98837 1.00147 0.54344 0.0
O509 O 0.00959 1.01818 0.50599 0.0
O510 O 0.00981 0.07185 0.52167 0.0
O511 O 0.9587 0.05479 0.52893 0.0
H512 H 0.9134 0.95815 0.58667 0.0
H513 H 0.87636 0.92028 0.61004 0.0
H514 H 0.80828 0.9736 0.59999 0.0
H515 H 0.84541 1.01133 0.57702 0.0
H516 H 0.13462 0.08981 0.56106 0.0
H517 H 0.1675 0.12427 0.53033 0.0
H518 H 0.10629 0.09658 0.45555 0.0
H519 H 0.07294 0.06332 0.48663 0.0
Tb520 Tb 0.53977 0.04053 0.06033 0.0
Tb521 Tb 0.47396 1.02449 1.04284 0.0
C522 C 0.5962 0.06053 0.0619 0.0
C523 C 0.61551 0.08647 0.07529 0.0
C524 C 0.63546 0.10579 0.05817 0.0
C525 C 0.65327 0.1309 0.07044 0.0
C526 C 0.65151 0.13706 0.1001 0.0
C527 C 0.63143 0.1176 0.11712 0.0
C528 C 0.61349 0.09272 0.10483 0.0
C529 C 0.50828 0.99896 0.09233 0.0
C530 C 0.49704 0.0721 0.09228 0.0
C531 C 0.41722 1.00559 1.04219 0.0
C532 C 0.39707 0.97897 1.03173 0.0
C533 C 0.4089 0.9543 1.02635 0.0
C534 C 0.38989 0.92972 1.01441 0.0
C535 C 0.35878 0.9295 1.00756 0.0
C536 C 0.34692 0.95405 1.01379 0.0
C537 C 0.36595 0.97859 1.02577 0.0
C538 C 0.50541 0.06643 1.01109 0.0
C539 C 0.51686 0.99272 1.01115 0.0
O540 O 0.57754 0.06535 1.04027 0.0
O541 O 0.58318 0.04046 0.07979 0.0
O542 O 0.50538 1.00223 0.0651 0.0
O543 O 0.53071 1.01867 0.10249 0.0
O544 O 0.52539 0.07377 0.08471 0.0
O545 O 0.47413 0.05293 0.08039 0.0
O546 O 0.4359 1.00263 0.06445 0.0
O547 O 0.43072 1.02252 1.02193 0.0
O548 O 0.50821 0.0628 1.03824 0.0
O549 O 0.48274 0.04702 1.00091 0.0
O550 O 0.4884 0.99129 1.01836 0.0
O551 O 0.5398 1.01177 1.02319 0.0
H552 H 0.63712 0.10152 1.03525 0.0
H553 H 0.66825 0.14555 0.05665 0.0
H554 H 0.62989 0.1213 0.14017 0.0
H555 H 0.59811 0.07838 0.11855 0.0
H556 H 0.43292 0.95423 1.03085 0.0
H557 H 0.39962 0.91106 1.0101 0.0
H558 H 0.32319 0.95473 1.00835 0.0
H559 H 0.35653 0.99753 1.02971 0.0
Tb560 Tb 0.49669 0.55898 0.5617 0.0
Tb561 Tb 0.49998 0.50069 0.54142 0.0
C562 C 0.48937 0.61001 0.56552 0.0
C563 C 0.46278 0.62172 0.57421 0.0
C564 C 0.44155 0.62868 0.5529 0.0
C565 C 0.41486 0.63702 0.56104 0.0
C566 C 0.4089 0.63866 0.59066 0.0
C567 C 0.43058 0.63257 0.61193 0.0
C568 C 0.45723 0.62426 0.60382 0.0
C569 C 0.51851 0.52654 0.60188 0.0
C570 C 0.44257 0.50958 0.57688 0.0
C571 C 0.50508 0.44926 0.53462 0.0
C572 C 0.53046 0.43643 0.52475 0.0
C573 C 0.55167 0.42809 0.54522 0.0
C574 C 0.57717 0.41836 0.53601 0.0
C575 C 0.58179 0.41638 0.50614 0.0
C576 C 0.56005 0.42375 0.48566 0.0
C577 C 0.53466 0.43366 0.49486 0.0
C578 C 0.47896 0.53428 0.50191 0.0
C579 C 0.55481 0.54987 0.52751 0.0
O580 O 0.48553 0.59567 0.54103 0.0
O581 O 0.5035 0.59719 0.58594 0.0
O582 O 0.52412 0.52779 0.5751 0.0
O583 O 0.50203 0.54537 0.60708 0.0
O584 O 0.45088 0.53768 0.57254 0.0
O585 O 0.45949 0.49149 0.56825 0.0
O586 O 0.50991 0.46248 0.55973 0.0
O587 O 0.49164 0.46373 0.51517 0.0
O588 O 0.47262 0.53173 0.5284 0.0
O589 O 0.49654 0.51653 0.49644 0.0
O590 O 0.54635 0.52175 0.53187 0.0
O591 O 0.53774 0.56803 0.53571 0.0
H592 H 0.44519 0.62702 0.52988 0.0
H593 H 0.39857 0.64152 0.54414 0.0
H594 H 0.42695 0.63425 0.63493 0.0
H595 H 0.47318 0.61933 0.62082 0.0
H596 H 0.54883 0.42954 0.56839 0.0
H597 H 0.59328 0.41238 0.55229 0.0
H598 H 0.56308 0.42258 0.46249 0.0
H599 H 0.51868 0.43969 0.47848 0.0
Tb600 Tb 0.99863 0.55991 1.03449 0.0
Tb601 Tb 0.00572 0.51077 0.07411 0.0
C602 C 0.97709 0.5965 1.0042 0.0
C603 C 0.9484 0.60731 1.0033 0.0
C604 C 0.92022 0.58853 1.0071 0.0
C605 C 0.89294 0.59866 1.00344 0.0
C606 C 0.89341 0.62778 0.99623 0.0
C607 C 0.92181 0.64678 0.99406 0.0
C608 C 0.94905 0.63657 0.99742 0.0
C609 C 0.05391 0.56447 0.05994 0.0
C610 C 0.97429 0.55751 0.0994 0.0
C611 C 0.0279 0.47446 0.10432 0.0
C612 C 0.05637 0.46298 0.10403 0.0
C613 C 0.08389 0.47867 0.11678 0.0
C614 C 0.11069 0.4678 0.11675 0.0
C615 C 0.11057 0.4409 0.10427 0.0
C616 C 0.08313 0.42503 0.09168 0.0
C617 C 0.05626 0.43601 0.0915 0.0
C618 C 0.95068 0.50622 1.04813 0.0
C619 C 0.02962 0.51282 1.00902 0.0
O620 O 0.97469 0.56957 0.99655 0.0
O621 O 0.99553 0.60331 1.02721 0.0
O622 O 0.02877 0.55454 0.07105 0.0
O623 O 0.04817 0.57542 1.03468 0.0
O624 O 0.97172 0.56672 0.07204 0.0
O625 O 0.98933 0.53669 0.10613 0.0
O626 O 0.03113 0.50168 0.11133 0.0
O627 O 0.00779 0.46732 0.08254 0.0
O628 O 0.976 0.51603 1.03735 0.0
O629 O 0.95585 0.49616 0.07399 0.0
O630 O 0.03199 0.50339 1.03632 0.0
O631 O 0.01495 0.53394 1.00241 0.0
H632 H 0.9192 0.56587 1.01203 0.0
H633 H 0.87151 0.5834 1.00505 0.0
H634 H 0.92298 0.66946 0.98913 0.0
H635 H 0.9706 0.65142 0.99476 0.0
H636 H 0.08477 0.49929 0.12708 0.0
H637 H 0.13138 0.48005 0.12729 0.0
H638 H 0.08248 0.4041 0.08212 0.0
H639 H 0.03537 0.4233 0.08176 0.0
C640 C 0.24368 0.19086 0.36652 0.0
C641 C 0.25365 0.22069 0.37022 0.0
C642 C 0.2258 0.17413 0.38714 0.0
C643 C 0.21797 0.18755 0.41221 0.0
C644 C 0.22849 0.21757 0.41637 0.0
C645 C 0.24606 0.23387 0.39516 0.0
C646 C 0.21466 0.14223 0.38174 0.0
C647 C 0.22093 0.23249 0.44305 0.0
C648 C 0.14718 0.14888 0.44911 0.0
C649 C 0.15981 0.13356 0.47145 0.0
C650 C 0.1659 0.16693 0.42998 0.0
C651 C 0.19804 0.17013 0.43356 0.0
C652 C 0.21101 0.1555 0.4566 0.0
C653 C 0.19173 0.13723 0.47515 0.0
C654 C 0.15122 0.18202 0.40551 0.0
C655 C 0.24522 0.1586 0.4612 0.0
H656 H 0.24916 0.18073 0.34701 0.0
H657 H 0.25393 0.25692 0.39807 0.0
H658 H 0.22212 0.12952 0.40029 0.0
H659 H 0.18929 0.13714 0.38016 0.0
H660 H 0.22323 0.13508 0.36138 0.0
H661 H 0.23192 0.25574 0.44359 0.0
H662 H 0.19581 0.2306 0.44358 0.0
H663 H 0.22845 0.22185 0.4631 0.0
H664 H 0.12258 0.14665 0.44646 0.0
H665 H 0.20171 0.12524 0.4921 0.0
H666 H 0.15724 0.17458 0.38418 0.0
H667 H 0.16006 0.20566 0.40655 0.0
H668 H 0.12591 0.17788 0.40623 0.0
H669 H 0.25444 0.14934 0.44237 0.0
H670 H 0.2517 0.14752 0.48142 0.0
H671 H 0.25636 0.18177 0.46245 0.0
C672 C 0.25528 0.79975 0.91304 0.0
C673 C 0.24285 0.81386 0.88962 0.0
C674 C 0.27308 0.81556 0.9357 0.0
C675 C 0.27865 0.84612 0.93471 0.0
C676 C 0.26528 0.8604 0.91166 0.0
C677 C 0.24761 0.84412 0.88942 0.0
C678 C 0.2868 0.79965 0.96009 0.0
C679 C 0.27076 0.89297 0.90972 0.0
C680 C 0.30875 0.89499 0.9987 0.0
C681 C 0.33928 0.90485 0.99172 0.0
C682 C 0.28905 0.87439 0.98133 0.0
C683 C 0.30018 0.86353 0.95639 0.0
C684 C 0.33141 0.87217 0.95023 0.0
C685 C 0.35058 0.89274 0.96796 0.0
C686 C 0.25595 0.86549 0.98873 0.0
C687 C 0.34417 0.86115 0.92378 0.0
H688 H 0.25148 0.77637 0.9134 0.0
H689 H 0.23861 0.85523 0.87114 0.0
H690 H 0.31201 0.80369 0.95869 0.0
H691 H 0.28201 0.80773 0.98157 0.0
H692 H 0.27788 0.77598 0.95922 0.0
H693 H 0.25723 0.90065 0.89131 0.0
H694 H 0.26478 0.90202 0.93028 0.0
H695 H 0.29536 0.90174 0.90674 0.0
H696 H 0.30004 0.90397 1.01732 0.0
H697 H 0.37406 0.90046 0.96225 0.0
H698 H 0.24845 0.84168 0.98765 0.0
H699 H 0.24143 0.875 0.9725 0.0
H700 H 0.25188 0.8728 1.01079 0.0
H701 H 0.33772 0.83726 0.92275 0.0
H702 H 0.36948 0.86758 0.92379 0.0
H703 H 0.3343 0.86989 0.9037 0.0
C704 C 0.56513 0.42571 0.73394 0.0
C705 C 0.59548 0.43585 0.74457 0.0
C706 C 0.55279 0.43806 0.70893 0.0
C707 C 0.57061 0.46199 0.69467 0.0
C708 C 0.60132 0.47193 0.70478 0.0
C709 C 0.61351 0.45834 0.72886 0.0
C710 C 0.52048 0.4257 0.69797 0.0
C711 C 0.62124 0.49749 0.69056 0.0
C712 C 0.54882 0.48871 0.61842 0.0
C713 C 0.53211 0.50974 0.62509 0.0
C714 C 0.56073 0.47237 0.64064 0.0
C715 C 0.5568 0.47786 0.6704 0.0
C716 C 0.54068 0.49971 0.67716 0.0
C717 C 0.52815 0.51491 0.65453 0.0
C718 C 0.57672 0.44874 0.63199 0.0
C719 C 0.53725 0.50755 0.7084 0.0
H720 H 0.55058 0.40851 0.7454 0.0
H721 H 0.63736 0.46576 0.73542 0.0
H722 H 0.5056 0.44138 0.70153 0.0
H723 H 0.5198 0.42179 0.67414 0.0
H724 H 0.51084 0.40511 0.70916 0.0
H725 H 0.64438 0.50321 0.70153 0.0
H726 H 0.62379 0.49275 0.66734 0.0
H727 H 0.61025 0.51657 0.69102 0.0
H728 H 0.55252 0.48488 0.59584 0.0
H729 H 0.51556 0.53131 0.65999 0.0
H730 H 0.59646 0.44713 0.64715 0.0
H731 H 0.58491 0.45207 0.60951 0.0
H732 H 0.56034 0.42776 0.63271 0.0
H733 H 0.52434 0.48868 0.72013 0.0
H734 H 0.52517 0.52582 0.71002 0.0
H735 H 0.56014 0.51358 0.71978 0.0
C736 C 0.88844 0.62539 0.22519 0.0
C737 C 0.90983 0.64407 0.24327 0.0
C738 C 0.89756 0.61093 0.2015 0.0
C739 C 0.92887 0.61534 0.19511 0.0
C740 C 0.95055 0.63432 0.213 0.0
C741 C 0.94088 0.64816 0.23681 0.0
C742 C 0.87358 0.59076 0.18333 0.0
C743 C 0.98415 0.63994 0.20708 0.0
C744 C 0.95903 0.55926 0.1515 0.0
C745 C 0.9609 0.57152 0.12335 0.0
C746 C 0.9481 0.57291 0.17472 0.0
C747 C 0.93909 0.59984 0.17008 0.0
C748 C 0.94059 0.61219 0.14163 0.0
C749 C 0.95123 0.59786 0.11868 0.0
C750 C 0.94651 0.55858 0.2044 0.0
C751 C 0.93161 0.64093 0.13556 0.0
H752 H 0.86435 0.62223 0.2293 0.0
H753 H 0.95791 0.66194 0.25065 0.0
H754 H 0.87365 0.59824 0.16029 0.0
H755 H 0.87895 0.56882 0.18363 0.0
H756 H 0.85024 0.58926 0.19125 0.0
H757 H 0.99805 0.65605 0.22224 0.0
H758 H 0.99281 0.61953 0.20921 0.0
H759 H 0.9876 0.64788 0.18437 0.0
H760 H 0.96625 0.53891 0.15551 0.0
H761 H 0.95265 0.60771 0.09717 0.0
H762 H 0.923 0.55589 0.2122 0.0
H763 H 0.96204 0.57246 0.22037 0.0
H764 H 0.95298 0.53708 0.20424 0.0
H765 H 0.9078 0.6401 0.1418 0.0
H766 H 0.93334 0.64738 0.11223 0.0
H767 H 0.9466 0.65789 0.14901 0.0
C768 C 0.42976 0.19638 0.1599 0.0
C769 C 0.43676 0.20108 0.18982 0.0
C770 C 0.44322 0.17729 0.14441 0.0
C771 C 0.46365 0.16202 0.1593 0.0
C772 C 0.472 0.16765 0.1891 0.0
C773 C 0.45873 0.18738 0.20392 0.0
C774 C 0.43425 0.17232 0.11244 0.0
C775 C 0.49358 0.15163 0.20575 0.0
C776 C 0.46337 0.08873 0.12709 0.0
C777 C 0.49013 0.09426 0.11163 0.0
C778 C 0.45521 0.11035 0.1437 0.0
C779 C 0.47393 0.13833 0.14428 0.0
C780 C 0.50136 0.14387 0.12923 0.0
C781 C 0.50931 0.12163 0.11329 0.0
C782 C 0.4261 0.10345 0.16 0.0
C783 C 0.52158 0.17356 0.12888 0.0
H784 H 0.4126 0.20649 0.14877 0.0
H785 H 0.46488 0.19137 0.22684 0.0
H786 H 0.45487 0.17341 0.09967 0.0
H787 H 0.41994 0.15041 0.10948 0.0
H788 H 0.42111 0.18835 0.10331 0.0
H789 H 0.49991 0.16036 0.22804 0.0
H790 H 0.48258 0.1285 0.20768 0.0
H791 H 0.51476 0.1527 0.19387 0.0
H792 H 0.44866 0.0675 0.126 0.0
H793 H 0.52991 0.12605 0.10113 0.0
H794 H 0.40939 0.11596 0.15047 0.0
H795 H 0.43081 0.10986 0.18319 0.0
H796 H 0.41542 0.08012 0.15914 0.0
H797 H 0.54331 0.17371 0.11811 0.0
H798 H 0.52707 0.18178 0.15142 0.0
H799 H 0.50926 0.1888 0.11703 0.0
C800 C 0.04936 0.86474 0.69988 0.0
C801 C 0.0736 0.85492 0.68764 0.0
C802 C 0.0357 0.88591 0.68584 0.0
C803 C 0.04576 0.89688 0.65842 0.0
C804 C 0.06872 0.88571 0.645 0.0
C805 C 0.08265 0.8652 0.65991 0.0
C806 C 0.01155 0.89754 0.70103 0.0
C807 C 0.07949 0.89631 0.61536 0.0
C808 C 0.99729 0.93942 0.61168 0.0
C809 C 0.01384 0.96773 0.61545 0.0
C810 C 0.00722 0.91607 0.6257 0.0
C811 C 0.0338 0.92134 0.64458 0.0
C812 C 0.0498 0.95006 0.64941 0.0
C813 C 0.03989 0.97289 0.63439 0.0
C814 C 0.99008 0.88574 0.61931 0.0
C815 C 0.07777 0.95662 0.66998 0.0
H816 H 0.04153 0.85643 0.72088 0.0
H817 H 0.10152 0.85818 0.65025 0.0
H818 H 0.02017 0.92068 0.70622 0.0
H819 H 0.9907 0.89624 0.68651 0.0
H820 H 0.00514 0.8857 0.72162 0.0
H821 H 0.09487 0.88312 0.60651 0.0
H822 H 0.05966 0.89588 0.59966 0.0
H823 H 0.09205 0.91902 0.61695 0.0
H824 H 0.97735 0.93537 0.59668 0.0
H825 H 0.05262 0.9948 0.63732 0.0
H826 H 0.98346 0.87408 0.63988 0.0
H827 H 0.00517 0.87365 0.60838 0.0
H828 H 0.96915 0.88542 0.60503 0.0
H829 H 0.07261 0.94642 0.69158 0.0
H830 H 0.08611 0.98019 0.67306 0.0
H831 H 0.09646 0.94739 0.66134 0.0
C832 C 0.80972 0.41948 0.95571 0.0
C833 C 0.78515 0.4333 0.94899 0.0
C834 C 0.83652 0.43388 0.97065 0.0
C835 C 0.83897 0.46293 0.97928 0.0
C836 C 0.81466 0.47736 0.9718 0.0
C837 C 0.78806 0.4624 0.95665 0.0
C838 C 0.86198 0.41773 0.97777 0.0
C839 C 0.81633 0.50828 0.9806 0.0
C840 C 0.89477 0.48459 1.04442 0.0
C841 C 0.92127 0.49821 1.03086 0.0
C842 C 0.86741 0.47424 1.02799 0.0
C843 C 0.86653 0.47747 0.99721 0.0
C844 C 0.89291 0.49237 0.98356 0.0
C845 C 0.91995 0.50256 1.00055 0.0
C846 C 0.83979 0.45876 1.0435 0.0
C847 C 0.89303 0.49639 0.95087 0.0
H848 H 0.80788 0.39717 0.94942 0.0
H849 H 0.76914 0.47319 0.95167 0.0
H850 H 0.88373 0.42982 0.96935 0.0
H851 H 0.86548 0.41586 1.00179 0.0
H852 H 0.85709 0.39568 0.96839 0.0
H853 H 0.79666 0.51714 0.9712 0.0
H854 H 0.8166 0.50963 1.00473 0.0
H855 H 0.83784 0.52211 0.97352 0.0
H856 H 0.89561 0.48136 0.06786 0.0
H857 H 0.94036 0.51311 0.98993 0.0
H858 H 0.83464 0.43562 1.03736 0.0
H859 H 0.81946 0.4679 1.03674 0.0
H860 H 0.84334 0.46021 0.06761 0.0
H861 H 0.89123 0.47513 0.94031 0.0
H862 H 0.91419 0.51097 0.94394 0.0
H863 H 0.87299 0.50535 0.94276 0.0
C864 C 0.68904 0.60373 0.41723 0.0
C865 C 0.71654 0.61717 0.43169 0.0
C866 C 0.66299 0.59207 0.43282 0.0
C867 C 0.66443 0.59358 0.46371 0.0
C868 C 0.69233 0.60656 0.47845 0.0
C869 C 0.71791 0.61825 0.46232 0.0
C870 C 0.6337 0.57867 0.41617 0.0
C871 C 0.69509 0.60837 0.51132 0.0
C872 C 0.59039 0.59019 0.50292 0.0
C873 C 0.58351 0.56125 0.51224 0.0
C874 C 0.61652 0.60089 0.48713 0.0
C875 C 0.63657 0.58236 0.48058 0.0
C876 C 0.62995 0.55321 0.4902 0.0
C877 C 0.60352 0.543 0.50575 0.0
C878 C 0.62248 0.63204 0.47717 0.0
C879 C 0.65075 0.53272 0.48394 0.0
H880 H 0.68761 0.60302 0.3936 0.0
H881 H 0.73914 0.62821 0.47375 0.0
H882 H 0.62566 0.55615 0.42375 0.0
H883 H 0.61556 0.59083 0.42043 0.0
H884 H 0.63647 0.57849 0.39227 0.0
H885 H 0.71863 0.61818 0.51955 0.0
H886 H 0.6791 0.62149 0.51904 0.0
H887 H 0.68857 0.58649 0.52105 0.0
H888 H 0.57507 0.60448 0.50755 0.0
H889 H 0.5985 0.52061 0.51276 0.0
H890 H 0.62327 0.63318 0.45305 0.0
H891 H 0.64506 0.64346 0.48628 0.0
H892 H 0.60469 0.64365 0.48392 0.0
H893 H 0.65226 0.53077 0.46004 0.0
H894 H 0.64269 0.51083 0.49324 0.0
H895 H 0.67421 0.54136 0.49311 0.0
C896 C 0.25897 0.36916 0.12913 0.0
C897 C 0.26881 0.3759 0.15817 0.0
C898 C 0.2358 0.38145 0.11521 0.0
C899 C 0.22196 0.4005 0.13093 0.0
C900 C 0.23343 0.409 0.15945 0.0
C901 C 0.25694 0.39683 0.17258 0.0
C902 C 0.22476 0.37252 0.08447 0.0
C903 C 0.21934 0.42928 0.17699 0.0
C904 C 0.16677 0.44553 0.09901 0.0
C905 C 0.13865 0.42876 0.10658 0.0
C906 C 0.19414 0.43573 0.10491 0.0
C907 C 0.19328 0.40888 0.11932 0.0
C908 C 0.16476 0.39129 0.12568 0.0
C909 C 0.13774 0.40137 0.119 0.0
C910 C 0.224 0.45472 0.09706 0.0
C911 C 0.16287 0.36263 0.14131 0.0
H912 H 0.268 0.35298 0.11783 0.0
H913 H 0.26499 0.40263 0.19479 0.0
H914 H 0.20268 0.35689 0.08495 0.0
H915 H 0.22077 0.39142 0.07126 0.0
H916 H 0.24133 0.36212 0.07351 0.0
H917 H 0.23238 0.43536 0.19799 0.0
H918 H 0.21813 0.44925 0.16435 0.0
H919 H 0.19559 0.41877 0.1818 0.0
H920 H 0.16738 0.46664 0.08913 0.0
H921 H 0.11601 0.38851 0.12503 0.0
H922 H 0.23888 0.44179 0.08701 0.0
H923 H 0.23638 0.4646 0.11712 0.0
H924 H 0.22045 0.47235 0.08174 0.0
H925 H 0.17575 0.3488 0.12984 0.0
H926 H 0.1389 0.35078 0.14295 0.0
H927 H 0.1735 0.36626 0.16369 0.0
C928 C 0.59461 0.20599 0.92511 0.0
C929 C 0.57528 0.22552 0.91836 0.0
C930 C 0.58397 0.17969 0.93967 0.0
C931 C 0.55335 0.17283 0.94832 0.0
C932 C 0.53371 0.19247 0.94151 0.0
C933 C 0.5448 0.21837 0.92638 0.0
C934 C 0.60557 0.15923 0.94584 0.0
C935 C 0.5011 0.18638 0.95072 0.0
C936 C 0.51573 0.09448 0.96457 0.0
C937 C 0.51895 0.0932 0.99509 0.0
C938 C 0.52727 0.12001 0.94909 0.0
C939 C 0.54189 0.14518 0.96449 0.0
C940 C 0.54532 0.14391 0.99538 0.0
C941 C 0.53413 0.1179 1.01025 0.0
C942 C 0.52372 0.12006 0.9162 0.0
C943 C 0.56033 0.1702 1.01281 0.0
H944 H 0.61813 0.21126 0.91883 0.0
H945 H 0.52983 0.23348 0.92156 0.0
H946 H 0.60873 0.15605 0.96972 0.0
H947 H 0.59569 0.13778 0.93628 0.0
H948 H 0.62835 0.16725 0.93686 0.0
H949 H 0.48882 0.20389 0.94406 0.0
H950 H 0.48846 0.16583 0.94102 0.0
H951 H 0.50076 0.18376 0.97478 0.0
H952 H 0.50416 0.07543 0.95272 0.0
H953 H 0.53664 0.11711 1.03386 0.0
H954 H 0.5464 0.12707 0.90676 0.0
H955 H 0.50943 0.13574 0.90876 0.0
H956 H 0.51299 0.09846 0.9074 0.0
H957 H 0.5841 0.17791 1.00615 0.0
H958 H 0.56093 0.16579 1.03667 0.0
H959 H 0.54781 0.18798 1.0083 0.0
C960 C 0.94156 0.8446 0.43528 0.0
C961 C 0.91039 0.8382 0.42656 0.0
C962 C 0.95476 0.87097 0.4491 0.0
C963 C 0.93652 0.89171 0.45394 0.0
C964 C 0.90533 0.88574 0.44407 0.0
C965 C 0.89268 0.85912 0.43074 0.0
C966 C 0.988 0.87623 0.45945 0.0
C967 C 0.88505 0.90724 0.44818 0.0
C968 C 0.95946 0.94699 0.51531 0.0
C969 C 0.97368 0.97168 0.50019 0.0
C970 C 0.9477 0.92082 0.50064 0.0
C971 C 0.94967 0.91929 0.46995 0.0
C972 C 0.96357 0.94436 0.45456 0.0
C973 C 0.97555 0.97011 0.46985 0.0
C974 C 0.93337 0.89472 0.51809 0.0
C975 C 0.96573 0.944 0.42187 0.0
H976 H 0.95531 0.82846 0.43242 0.0
H977 H 0.86861 0.85442 0.42391 0.0
H978 H 0.00045 0.89685 0.45028 0.0
H979 H 0.98993 0.87824 0.48356 0.0
H980 H -0.00061 0.85854 0.45317 0.0
H981 H 0.86178 0.90008 0.43784 0.0
H982 H 0.88289 0.91047 0.4718 0.0
H983 H 0.89543 0.92849 0.43877 0.0
H984 H 0.95801 0.94795 0.53876 0.0
H985 H 0.98646 0.9891 0.458 0.0
H986 H 0.94515 0.8766 0.51448 0.0
H987 H 0.90906 0.88748 0.51064 0.0
H988 H 0.93445 0.89915 0.54186 0.0
H989 H 0.9789 0.9276 0.41582 0.0
H990 H 0.97693 0.9653 0.41304 0.0
H991 H 0.94252 0.93779 0.4112 0.0
C992 C 0.2514 0.67976 0.63926 0.0
C993 C 0.26003 0.70006 0.66163 0.0
C994 C 0.27351 0.6683 0.62516 0.0
C995 C 0.30485 0.67743 0.63367 0.0
C996 C 0.31364 0.69824 0.6559 0.0
C997 C 0.29118 0.70936 0.66947 0.0
C998 C 0.26335 0.6462 0.60147 0.0
C999 C 0.34682 0.70863 0.66558 0.0
C1000 C 0.36418 0.63196 0.6225 0.0
C1001 C 0.38027 0.64676 0.59956 0.0
C1002 C 0.33856 0.64082 0.63286 0.0
C1003 C 0.32875 0.66505 0.61994 0.0
C1004 C 0.34397 0.67921 0.59584 0.0
C1005 C 0.36959 0.66991 0.58595 0.0
C1006 C 0.3229 0.62507 0.65853 0.0
C1007 C 0.33413 0.70505 0.58142 0.0
H1008 H 0.22737 0.67245 0.63317 0.0
H1009 H 0.29808 0.72555 0.68626 0.0
H1010 H 0.27501 0.65353 0.58113 0.0
H1011 H 0.26996 0.62551 0.60808 0.0
H1012 H 0.23823 0.64214 0.59669 0.0
H1013 H 0.34981 0.72511 0.68302 0.0
H1014 H 0.35677 0.69013 0.67386 0.0
H1015 H 0.36009 0.71808 0.64677 0.0
H1016 H 0.37193 0.61365 0.63267 0.0
H1017 H 0.38198 0.68149 0.56828 0.0
H1018 H 0.29783 0.6194 0.65385 0.0
H1019 H 0.32697 0.63938 0.67785 0.0
H1020 H 0.33137 0.605 0.66419 0.0
H1021 H 0.30911 0.70037 0.57624 0.0
H1022 H 0.34609 0.71158 0.56102 0.0
H1023 H 0.33913 0.72358 0.59664 0.0
C1024 C 0.74947 0.8343 0.72001 0.0
C1025 C 0.71776 0.82821 0.71386 0.0
C1026 C 0.76937 0.85068 0.70067 0.0
C1027 C 0.75727 0.86118 0.67447 0.0
C1028 C 0.72545 0.85387 0.6674 0.0
C1029 C 0.70602 0.83756 0.68727 0.0
C1030 C 0.80313 0.8582 0.70914 0.0
C1031 C 0.71178 0.86444 0.63952 0.0
C1032 C 0.80171 0.93189 0.64561 0.0
C1033 C 0.81786 0.92261 0.62347 0.0
C1034 C 0.78165 0.91209 0.66205 0.0
C1035 C 0.77751 0.88223 0.65614 0.0
C1036 C 0.79351 0.87267 0.63362 0.0
C1037 C 0.81366 0.89302 0.61761 0.0
C1038 C 0.76531 0.92314 0.68613 0.0
C1039 C 0.7895 0.84101 0.62664 0.0
H1040 H 0.75867 0.82753 0.74072 0.0
H1041 H 0.68155 0.83266 0.68232 0.0
H1042 H 0.81677 0.85358 0.69094 0.0
H1043 H 0.80984 0.88166 0.71372 0.0
H1044 H 0.80921 0.8461 0.72881 0.0
H1045 H 0.68727 0.85424 0.63571 0.0
H1046 H 0.71371 0.88818 0.64052 0.0
H1047 H 0.72451 0.85995 0.62058 0.0
H1048 H 0.80528 0.95471 0.65053 0.0
H1049 H 0.82598 0.88581 0.60036 0.0
H1050 H 0.77196 0.91411 0.70743 0.0
H1051 H 0.74022 0.91589 0.68256 0.0
H1052 H 0.77061 0.94709 0.68752 0.0
H1053 H 0.7971 0.8292 0.64584 0.0
H1054 H 0.80269 0.83721 0.60773 0.0
H1055 H 0.76496 0.83166 0.62179 0.0
C1056 C 0.75611 0.27214 0.18687 0.0
C1057 C 0.76788 0.25886 0.21123 0.0
C1058 C 0.73855 0.25549 0.16459 0.0
C1059 C 0.73216 0.22499 0.16721 0.0
C1060 C 0.74471 0.21155 0.19139 0.0
C1061 C 0.76252 0.22864 0.21298 0.0
C1062 C 0.72606 0.27049 0.13878 0.0
C1063 C 0.73812 0.17911 0.19527 0.0
C1064 C 0.65977 0.17806 0.1354 0.0
C1065 C 0.67119 0.163 0.11383 0.0
C1066 C 0.67911 0.19966 0.1518 0.0
C1067 C 0.71056 0.20681 0.14611 0.0
C1068 C 0.72176 0.19341 0.1228 0.0
C1069 C 0.70199 0.17145 0.10707 0.0
C1070 C 0.66625 0.21331 0.17659 0.0
C1071 C 0.75503 0.20089 0.11571 0.0
H1072 H 0.76031 0.29551 0.18547 0.0
H1073 H 0.77107 0.21827 0.23204 0.0
H1074 H 0.73058 0.26063 0.11811 0.0
H1075 H 0.7009 0.26781 0.13979 0.0
H1076 H 0.73615 0.29396 0.13821 0.0
H1077 H 0.75058 0.17207 0.21479 0.0
H1078 H 0.71323 0.17121 0.19755 0.0
H1079 H 0.74461 0.16861 0.17578 0.0
H1080 H 0.63581 0.17224 0.14019 0.0
H1081 H 0.71109 0.15996 0.0905 0.0
H1082 H 0.67319 0.23717 0.1756 0.0
H1083 H 0.67559 0.20609 0.19769 0.0
H1084 H 0.64089 0.20744 0.17635 0.0
H1085 H 0.76339 0.22463 0.11581 0.0
H1086 H 0.75898 0.19239 0.09412 0.0
H1087 H 0.76891 0.19147 0.1326 0.0
C1088 C 0.40152 0.6016 0.36543 0.0
C1089 C 0.40816 0.63185 0.36204 0.0
C1090 C 0.41321 0.58776 0.38957 0.0
C1091 C 0.43311 0.60424 0.41079 0.0
C1092 C 0.44067 0.6347 0.40731 0.0
C1093 C 0.42794 0.64813 0.38322 0.0
C1094 C 0.40422 0.5553 0.39231 0.0
C1095 C 0.46237 0.65309 0.42897 0.0
C1096 C 0.44294 0.56659 0.48437 0.0
C1097 C 0.46841 0.55426 0.48002 0.0
C1098 C 0.43175 0.58375 0.46249 0.0
C1099 C 0.44671 0.58917 0.43581 0.0
C1100 C 0.47336 0.57788 0.43206 0.0
C1101 C 0.48362 0.56035 0.45398 0.0
C1102 C 0.40311 0.59498 0.46745 0.0
C1103 C 0.49065 0.58363 0.40448 0.0
H1104 H 0.3872 0.58841 0.349 0.0
H1105 H 0.43324 0.67144 0.38125 0.0
H1106 H 0.4247 0.54552 0.39098 0.0
H1107 H 0.3946 0.5493 0.41388 0.0
H1108 H 0.38705 0.54574 0.37499 0.0
H1109 H 0.46629 0.6764 0.42311 0.0
H1110 H 0.45321 0.6502 0.45105 0.0
H1111 H 0.4847 0.64611 0.43021 0.0
H1112 H 0.43115 0.56204 0.50448 0.0
H1113 H 0.50358 0.55121 0.45062 0.0
H1114 H 0.3843 0.58405 0.45234 0.0
H1115 H 0.40668 0.61845 0.46262 0.0
H1116 H 0.3958 0.59121 0.4902 0.0
H1117 H 0.47657 0.57235 0.38593 0.0
H1118 H 0.51273 0.57614 0.40626 0.0
H1119 H 0.49529 0.60706 0.39924 0.0
C1120 C 0.05995 0.42044 0.87178 0.0
C1121 C 0.09088 0.42393 0.86504 0.0
C1122 C 0.05084 0.43473 0.89557 0.0
C1123 C 0.07298 0.45358 0.91314 0.0
C1124 C 0.10418 0.45744 0.90642 0.0
C1125 C 0.11272 0.44252 0.88277 0.0
C1126 C 0.01736 0.42968 0.90185 0.0
C1127 C 0.12862 0.47746 0.92424 0.0
C1128 C 0.04429 0.51057 0.95677 0.0
C1129 C 0.04255 0.49849 0.985 0.0
C1130 C 0.05474 0.49657 0.93351 0.0
C1131 C 0.06337 0.46947 0.93821 0.0
C1132 C 0.06201 0.45732 0.96673 0.0
C1133 C 0.05186 0.47198 0.98971 0.0
C1134 C 0.05621 0.5107 0.90374 0.0
C1135 C 0.07059 0.4284 0.97287 0.0
H1136 H 0.04257 0.40676 0.8582 0.0
H1137 H 0.13672 0.44524 0.87843 0.0
H1138 H 0.01405 0.42191 0.92463 0.0
H1139 H 0.00907 0.45027 0.89972 0.0
H1140 H 0.00304 0.41363 0.88688 0.0
H1141 H 0.15178 0.47859 0.91603 0.0
H1142 H 0.1236 0.49954 0.92392 0.0
H1143 H 0.12877 0.47012 0.94732 0.0
H1144 H 0.03733 0.53103 0.95273 0.0
H1145 H 0.05053 0.46225 1.01128 0.0
H1146 H 0.04029 0.49691 0.88799 0.0
H1147 H 0.07956 0.51296 0.89568 0.0
H1148 H 0.05015 0.53239 0.90387 0.0
H1149 H 0.05516 0.41149 0.95971 0.0
H1150 H 0.06912 0.42218 0.99628 0.0
H1151 H 0.09422 0.42883 0.96632 0.0
C1152 C 0.5706 0.88472 0.90287 0.0
C1153 C 0.56418 0.85627 0.91374 0.0
C1154 C 0.55965 0.90691 0.91609 0.0
C1155 C 0.54273 0.9008 0.9414 0.0
C1156 C 0.53507 0.87205 0.95185 0.0
C1157 C 0.54546 0.85007 0.93761 0.0
C1158 C 0.56762 0.93719 0.90384 0.0
C1159 C 0.51745 0.86475 0.97909 0.0
C1160 C 0.55197 0.96171 0.99575 0.0
C1161 C 0.52373 0.97025 0.99217 0.0
C1162 C 0.55821 0.93891 0.97955 0.0
C1163 C 0.53598 0.92487 0.95865 0.0
C1164 C 0.50767 0.93387 0.95442 0.0
C1165 C 0.50168 0.95623 0.97159 0.0
C1166 C 0.5884 0.92949 0.98521 0.0
C1167 C 0.48381 0.91996 0.93174 0.0
H1168 H 0.58537 0.89011 0.88479 0.0
H1169 H 0.53961 0.82812 0.94578 0.0
H1170 H 0.5472 0.94731 0.90251 0.0
H1171 H 0.58511 0.95064 0.91853 0.0
H1172 H 0.57683 0.9376 0.88178 0.0
H1173 H 0.51141 0.8411 0.98313 0.0
H1174 H 0.53145 0.875 0.99821 0.0
H1175 H 0.49614 0.87346 0.97756 0.0
H1176 H 0.56889 0.97225 1.01193 0.0
H1177 H 0.47984 0.96288 0.96879 0.0
H1178 H 0.60141 0.93207 0.96509 0.0
H1179 H 0.58433 0.90626 0.99134 0.0
H1180 H 0.60276 0.94206 1.00291 0.0
H1181 H 0.49371 0.92172 0.90995 0.0
H1182 H 0.46333 0.93004 0.93063 0.0
H1183 H 0.47646 0.89663 0.93666 0.0
C1184 C 0.92538 0.18178 0.39982 0.0
C1185 C 0.92613 0.20881 0.41245 0.0
C1186 C 0.93686 0.16004 0.4152 0.0
C1187 C 0.94897 0.16519 0.44414 0.0
C1188 C 0.95068 0.19264 0.45677 0.0
C1189 C 0.93938 0.21417 0.44073 0.0
C1190 C 0.93479 0.13112 0.40089 0.0
C1191 C 0.96335 0.19888 0.48765 0.0
C1192 C 0.94256 0.10008 0.49452 0.0
C1193 C 0.97258 0.09525 0.49609 0.0
C1194 C 0.93471 0.12285 0.4778 0.0
C1195 C 0.95734 0.14109 0.46195 0.0
C1196 C 0.98758 0.13607 0.46297 0.0
C1197 C 0.99489 0.11327 0.48016 0.0
C1198 C 0.90222 0.12759 0.4774 0.0
C1199 C 0.01219 0.15485 0.44601 0.0
H1200 H 0.91473 0.17713 0.37823 0.0
H1201 H 0.94051 0.23509 0.45051 0.0
H1202 H 0.95716 0.12428 0.40314 0.0
H1203 H 0.91791 0.11452 0.41193 0.0
H1204 H 0.92769 0.13154 0.37735 0.0
H1205 H 0.965 0.22185 0.49359 0.0
H1206 H 0.94839 0.1851 0.50306 0.0
H1207 H 0.98639 0.19351 0.4906 0.0
H1208 H 0.92517 0.08641 0.50685 0.0
H1209 H 0.01814 0.10967 0.48123 0.0
H1210 H 0.89214 0.12609 0.45474 0.0
H1211 H 0.902 0.14958 0.48535 0.0
H1212 H 0.88743 0.11161 0.49116 0.0
H1213 H 0.00514 0.15444 0.42246 0.0
H1214 H 0.03446 0.14779 0.44876 0.0
H1215 H 0.01542 0.17758 0.45325 0.0
C1216 C 0.19541 0.62535 0.17227 0.0
C1217 C 0.22112 0.63773 0.15679 0.0
C1218 C 0.16818 0.61119 0.1576 0.0
C1219 C 0.16666 0.60921 0.12675 0.0
C1220 C 0.19301 0.62049 0.1112 0.0
C1221 C 0.2198 0.63467 0.12635 0.0
C1222 C 0.14073 0.59911 0.17499 0.0
C1223 C 0.19272 0.61803 0.07843 0.0
C1224 C 0.10127 0.55671 0.08763 0.0
C1225 C 0.08225 0.57539 0.07759 0.0
C1226 C 0.1289 0.56728 0.10365 0.0
C1227 C 0.13711 0.5971 0.11047 0.0
C1228 C 0.11746 0.61585 0.10072 0.0
C1229 C 0.09045 0.6048 0.08414 0.0
C1230 C 0.14906 0.54638 0.11319 0.0
C1231 C 0.12511 0.6477 0.10758 0.0
H1232 H 0.19622 0.62762 0.19577 0.0
H1233 H 0.23977 0.64361 0.11428 0.0
H1234 H 0.12179 0.61038 0.16871 0.0
H1235 H 0.13252 0.57588 0.16997 0.0
H1236 H 0.14586 0.60144 0.19887 0.0
H1237 H 0.21557 0.62641 0.06973 0.0
H1238 H 0.18509 0.59511 0.0719 0.0
H1239 H 0.17618 0.6303 0.06811 0.0
H1240 H 0.09484 0.53396 0.08238 0.0
H1241 H 0.07555 0.61916 0.0764 0.0
H1242 H 0.14403 0.53911 0.13584 0.0
H1243 H 0.17368 0.55651 0.11292 0.0
H1244 H 0.14475 0.52705 0.09899 0.0
H1245 H 0.12868 0.65084 0.13151 0.0
H1246 H 0.10684 0.65913 0.09943 0.0
H1247 H 0.14675 0.65784 0.09756 0.0
C1248 C 0.28 0.4425 0.64414 0.0
C1249 C 0.28179 0.44372 0.67476 0.0
C1250 C 0.30548 0.45375 0.62768 0.0
C1251 C 0.33372 0.46634 0.64207 0.0
C1252 C 0.33562 0.46786 0.67297 0.0
C1253 C 0.30966 0.4567 0.68889 0.0
C1254 C 0.30221 0.45198 0.59482 0.0
C1255 C 0.36527 0.48083 0.68927 0.0
C1256 C 0.40703 0.46925 0.60166 0.0
C1257 C 0.41408 0.49824 0.59254 0.0
C1258 C 0.38108 0.45867 0.61776 0.0
C1259 C 0.36138 0.47738 0.62483 0.0
C1260 C 0.36817 0.50658 0.61541 0.0
C1261 C 0.3944 0.51665 0.59953 0.0
C1262 C 0.37493 0.42746 0.62753 0.0
C1263 C 0.34778 0.52729 0.6222 0.0
H1264 H 0.2585 0.43287 0.63297 0.0
H1265 H 0.31141 0.4575 0.71251 0.0
H1266 H 0.30872 0.47387 0.5851 0.0
H1267 H 0.31796 0.43877 0.58678 0.0
H1268 H 0.27852 0.44232 0.58688 0.0
H1269 H 0.36293 0.48082 0.71325 0.0
H1270 H 0.38312 0.4685 0.68452 0.0
H1271 H 0.37343 0.50338 0.68184 0.0
H1272 H 0.42208 0.45483 0.59662 0.0
H1273 H 0.39952 0.53909 0.59267 0.0
H1274 H 0.35214 0.41629 0.61865 0.0
H1275 H 0.3745 0.4262 0.65167 0.0
H1276 H 0.39243 0.4157 0.62038 0.0
H1277 H 0.32419 0.51899 0.61318 0.0
H1278 H 0.35601 0.54924 0.6131 0.0
H1279 H 0.34654 0.52902 0.64616 0.0
C1280 C 0.73885 0.65444 0.92115 0.0
C1281 C 0.73266 0.68157 0.92734 0.0
C1282 C 0.76195 0.64379 0.93701 0.0
C1283 C 0.77929 0.66079 0.95946 0.0
C1284 C 0.77123 0.68696 0.96755 0.0
C1285 C 0.74794 0.69706 0.95136 0.0
C1286 C 0.76955 0.61557 0.92796 0.0
C1287 C 0.78904 0.70562 0.99147 0.0
C1288 C 0.83811 0.62797 1.00414 0.0
C1289 C 0.86448 0.63778 0.98858 0.0
C1290 C 0.8102 0.63576 0.99544 0.0
C1291 C 0.80875 0.65376 0.97066 0.0
C1292 C 0.83547 0.6643 0.95537 0.0
C1293 C 0.8629 0.65609 0.96444 0.0
C1294 C 0.78218 0.62422 1.01229 0.0
C1295 C 0.83492 0.68361 0.92882 0.0
H1296 H 0.72669 0.64222 0.90287 0.0
H1297 H 0.74331 0.71811 0.95617 0.0
H1298 H 0.79105 0.62001 0.91614 0.0
H1299 H 0.77333 0.60216 0.94735 0.0
H1300 H 0.75119 0.60298 0.91341 0.0
H1301 H 0.77665 0.72227 0.99862 0.0
H1302 H 0.79388 0.69233 1.01063 0.0
H1303 H 0.81134 0.71677 0.98336 0.0
H1304 H 0.83924 0.61403 1.023 0.0
H1305 H 0.88296 0.66332 0.95194 0.0
H1306 H 0.76527 0.60931 0.99832 0.0
H1307 H 0.77111 0.64213 1.01846 0.0
H1308 H 0.78765 0.61241 1.03238 0.0
H1309 H 0.81956 0.67188 0.91129 0.0
H1310 H 0.85798 0.69093 0.92018 0.0
H1311 H 0.82576 0.70293 0.93424 0.0
C1312 C 0.46651 0.84709 0.1771 0.0
C1313 C 0.43624 0.84082 0.1858 0.0
C1314 C 0.47805 0.87288 0.16197 0.0
C1315 C 0.45912 0.89329 0.15583 0.0
C1316 C 0.42875 0.88731 0.16518 0.0
C1317 C 0.41764 0.86114 0.17975 0.0
C1318 C 0.51037 0.87805 0.15203 0.0
C1319 C 0.4079 0.90857 0.15971 0.0
C1320 C 0.49843 0.97108 0.13909 0.0
C1321 C 0.49455 0.97241 0.10861 0.0
C1322 C 0.48665 0.9457 0.15472 0.0
C1323 C 0.471 0.92076 0.13952 0.0
C1324 C 0.46684 0.92212 0.10869 0.0
C1325 C 0.47844 0.94793 0.09368 0.0
C1326 C 0.49104 0.94555 0.18755 0.0
C1327 C 0.4506 0.89612 0.09147 0.0
H1328 H 0.48092 0.8314 0.18139 0.0
H1329 H 0.39429 0.85657 0.18659 0.0
H1330 H 0.5102 0.88062 0.12795 0.0
H1331 H 0.52382 0.89837 0.16153 0.0
H1332 H 0.52214 0.8601 0.15836 0.0
H1333 H 0.38526 0.90118 0.16918 0.0
H1334 H 0.41868 0.92982 0.16922 0.0
H1335 H 0.40428 0.91193 0.13591 0.0
H1336 H 0.51073 0.98995 0.15077 0.0
H1337 H 0.47545 0.94874 0.07011 0.0
H1338 H 0.50482 0.92932 0.19456 0.0
H1339 H 0.46856 0.93924 0.19752 0.0
H1340 H 0.50269 0.96695 0.19622 0.0
H1341 H 0.46299 0.8781 0.09504 0.0
H1342 H 0.44892 0.90076 0.06768 0.0
H1343 H 0.42719 0.88863 0.09912 0.0
C1344 C 0.05134 0.22068 0.67648 0.0
C1345 C 0.08268 0.2263 0.68454 0.0
C1346 C 0.03698 0.19428 0.66334 0.0
C1347 C 0.05421 0.17271 0.65854 0.0
C1348 C 0.08558 0.1779 0.66779 0.0
C1349 C 0.0994 0.20458 0.68042 0.0
C1350 C 0.00361 0.18989 0.6536 0.0
C1351 C 0.10482 0.15551 0.6637 0.0
C1352 C 0.01223 0.09489 0.64383 0.0
C1353 C 0.0135 0.09289 0.61346 0.0
C1354 C 0.02539 0.12058 0.65877 0.0
C1355 C 0.03986 0.14516 0.64298 0.0
C1356 C 0.04119 0.14319 0.61227 0.0
C1357 C 0.02825 0.1171 0.59796 0.0
C1358 C 0.02387 0.1214 0.6915 0.0
C1359 C 0.05612 0.16878 0.59443 0.0
H1360 H 0.03834 0.23742 0.67931 0.0
H1361 H 0.12359 0.20866 0.68676 0.0
H1362 H 0.00111 0.18757 0.62953 0.0
H1363 H 0.99074 0.16967 0.6632 0.0
H1364 H 0.99307 0.20814 0.65989 0.0
H1365 H 0.12832 0.16208 0.67371 0.0
H1366 H 0.09388 0.1346 0.67348 0.0
H1367 H 0.10648 0.15183 0.64009 0.0
H1368 H 0.00093 0.07627 0.65597 0.0
H1369 H 0.02925 0.11582 0.57448 0.0
H1370 H 0.01156 0.13844 0.69762 0.0
H1371 H 0.04731 0.12699 0.70178 0.0
H1372 H 0.01213 0.10045 0.70066 0.0
H1373 H 0.0451 0.18742 0.59795 0.0
H1374 H 0.0546 0.16404 0.57071 0.0
H1375 H 0.08058 0.17539 0.60159 0.0
C1376 C 0.72919 0.38771 0.42983 0.0
C1377 C 0.73871 0.36287 0.44076 0.0
C1378 C 0.70498 0.3976 0.44192 0.0
C1379 C 0.6899 0.38222 0.46546 0.0
C1380 C 0.70017 0.35778 0.47732 0.0
C1381 C 0.72449 0.3484 0.46484 0.0
C1382 C 0.69486 0.4239 0.42882 0.0
C1383 C 0.68466 0.34082 0.50242 0.0
C1384 C 0.63838 0.41853 0.50924 0.0
C1385 C 0.60944 0.40712 0.49627 0.0
C1386 C 0.66481 0.41057 0.49954 0.0
C1387 C 0.66218 0.39064 0.47643 0.0
C1388 C 0.633 0.37886 0.46345 0.0
C1389 C 0.607 0.38729 0.47349 0.0
C1390 C 0.69555 0.42374 0.51377 0.0
C1391 C 0.62924 0.35742 0.43884 0.0
H1392 H 0.74038 0.39918 0.41146 0.0
H1393 H 0.73151 0.32901 0.47318 0.0
H1394 H 0.67146 0.41756 0.41862 0.0
H1395 H 0.69392 0.4398 0.44609 0.0
H1396 H 0.71034 0.43459 0.41198 0.0
H1397 H 0.69679 0.32363 0.51048 0.0
H1398 H 0.68331 0.35541 0.52077 0.0
H1399 H 0.66088 0.33061 0.49537 0.0
H1400 H 0.64041 0.43416 0.52661 0.0
H1401 H 0.58464 0.37818 0.46363 0.0
H1402 H 0.71043 0.43597 0.49732 0.0
H1403 H 0.70712 0.40647 0.52258 0.0
H1404 H 0.69363 0.43855 0.53181 0.0
H1405 H 0.64222 0.36731 0.42003 0.0
H1406 H 0.60491 0.35001 0.43138 0.0
H1407 H 0.63876 0.3383 0.44593 0.0
loop_
_geom_bond_atom_site_label_1
_geom_bond_atom_site_label_2
_geom_bond_distance
_geom_bond_site_symmetry_2
_ccdc_geom_bond_type
C0 C1 1.391 . S
C0 C4 1.391 . S
C0 H42 0.948 . S
C1 C0 1.391 . S
C1 C2 1.391 . S
C2 C1 1.391 . S
C2 H58 0.947 . S
C2 C59 1.392 . S
C3 C4 1.391 . S
C3 C7 1.397 . S
C3 C59 1.419 . S
C4 C0 1.391 . S
C4 C3 1.391 . S
C4 C5 1.399 . S
C5 C4 1.399 . S
C5 C8 1.396 . S
C5 C17 1.453 . S
C5 C18 1.684 . S
H6 C30 0.948 . S
C7 C3 1.397 . S
C7 C8 1.394 . S
C7 C26 1.723 . S
C8 C5 1.396 . S
C8 C7 1.394 . S
C8 C38 1.723 . S
H9 C32 0.947 . S
H10 C33 0.948 . S
H11 C39 0.982 . S
H12 C40 0.979 . S
H13 C40 0.980 . S
H14 C40 0.983 . S
H15 C39 0.979 . S
H16 C39 0.977 . S
C17 C5 1.453 . S
C17 H46 0.982 . S
C17 H47 0.979 . S
C17 H48 0.977 . S
C18 C5 1.684 . S
C18 H43 0.979 . S
C18 H44 0.980 . S
C18 H45 0.983 . S
C19 C20 1.391 . S
C19 C24 1.391 . S
C19 H49 0.948 . S
C20 C19 1.391 . S
C20 C21 1.391 . S
C21 C20 1.391 . S
C21 C22 1.392 . S
C21 H50 0.947 . S
C22 C21 1.392 . S
C22 C23 1.419 . S
C22 H51 0.948 . S
C23 C22 1.419 . S
C23 C24 1.391 . S
C23 C27 1.397 . S
C24 C19 1.391 . S
C24 C23 1.391 . S
C24 C25 1.399 . S
C25 C24 1.399 . S
C25 C26 1.396 . S
C25 C28 1.453 . S
C25 C29 1.684 . S
C26 C7 1.723 . S
C26 C25 1.396 . S
C26 C27 1.394 . S
C27 C23 1.397 . S
C27 C26 1.394 . S
C27 C37 1.723 . S
C28 C25 1.453 . S
C28 H52 0.982 . S
C28 H53 0.979 . S
C28 H54 0.977 . S
C29 C25 1.684 . S
C29 H55 0.979 . S
C29 H56 0.980 . S
C29 H57 0.983 . S
C30 H6 0.948 . S
C30 C31 1.391 . S
C30 C35 1.391 . S
C31 C30 1.391 . S
C31 C32 1.391 . S
C32 H9 0.947 . S
C32 C31 1.391 . S
C32 C33 1.392 . S
C33 H10 0.948 . S
C33 C32 1.392 . S
C33 C34 1.419 . S
C34 C33 1.419 . S
C34 C35 1.391 . S
C34 C38 1.397 . S
C35 C30 1.391 . S
C35 C34 1.391 . S
C35 C36 1.399 . S
C36 C35 1.399 . S
C36 C37 1.396 . S
C36 C39 1.453 . S
C36 C40 1.684 . S
C37 C27 1.723 . S
C37 C36 1.396 . S
C37 C38 1.394 . S
C38 C8 1.723 . S
C38 C34 1.397 . S
C38 C37 1.394 . S
C39 H11 0.982 . S
C39 H15 0.979 . S
C39 H16 0.977 . S
C39 C36 1.453 . S
C40 H12 0.979 . S
C40 H13 0.980 . S
C40 H14 0.983 . S
C40 C36 1.684 . S
H41 C59 0.948 . S
H42 C0 0.948 . S
H43 C18 0.979 . S
H44 C18 0.980 . S
H45 C18 0.983 . S
H46 C17 0.982 . S
H47 C17 0.979 . S
H48 C17 0.977 . S
H49 C19 0.948 . S
H50 C21 0.947 . S
H51 C22 0.948 . S
H52 C28 0.982 . S
H53 C28 0.979 . S
H54 C28 0.977 . S
H55 C29 0.979 . S
H56 C29 0.980 . S
H57 C29 0.983 . S
H58 C2 0.947 . S
C59 C2 1.392 . S
C59 C3 1.419 . S
C59 H41 0.948 . S
C60 C61 1.391 . S
C60 C64 1.391 . S
C60 H102 0.948 . S
C61 C60 1.391 . S
C61 C62 1.391 . S
C62 C61 1.391 . S
C62 H118 0.947 . S
C62 C119 1.392 . S
C63 C64 1.391 . S
C63 C67 1.397 . S
C63 C119 1.419 . S
C64 C60 1.391 . S
C64 C63 1.391 . S
C64 C65 1.399 . S
C65 C64 1.399 . S
C65 C68 1.396 . S
C65 C77 1.453 . S
C65 C78 1.684 . S
H66 C90 0.948 . S
C67 C63 1.397 . S
C67 C68 1.394 . S
C67 C86 1.723 . S
C68 C65 1.396 . S
C68 C67 1.394 . S
C68 C98 1.723 . S
H69 C92 0.947 . S
H70 C93 0.948 . S
H71 C99 0.982 . S
H72 C100 0.979 . S
H73 C100 0.980 . S
H74 C100 0.983 . S
H75 C99 0.979 . S
H76 C99 0.977 . S
C77 C65 1.453 . S
C77 H106 0.982 . S
C77 H107 0.979 . S
C77 H108 0.977 . S
C78 C65 1.684 . S
C78 H103 0.979 . S
C78 H104 0.980 . S
C78 H105 0.983 . S
C79 C80 1.391 . S
C79 C84 1.391 . S
C79 H109 0.948 . S
C80 C79 1.391 . S
C80 C81 1.391 . S
C81 C80 1.391 . S
C81 C82 1.392 . S
C81 H110 0.947 . S
C82 C81 1.392 . S
C82 C83 1.419 . S
C82 H111 0.948 . S
C83 C82 1.419 . S
C83 C84 1.391 . S
C83 C87 1.397 . S
C84 C79 1.391 . S
C84 C83 1.391 . S
C84 C85 1.399 . S
C85 C84 1.399 . S
C85 C86 1.396 . S
C85 C88 1.453 . S
C85 C89 1.684 . S
C86 C67 1.723 . S
C86 C85 1.396 . S
C86 C87 1.394 . S
C87 C83 1.397 . S
C87 C86 1.394 . S
C87 C97 1.723 . S
C88 C85 1.453 . S
C88 H112 0.982 . S
C88 H113 0.979 . S
C88 H114 0.977 . S
C89 C85 1.684 . S
C89 H115 0.979 . S
C89 H116 0.980 . S
C89 H117 0.983 . S
C90 H66 0.948 . S
C90 C91 1.391 . S
C90 C95 1.391 . S
C91 C90 1.391 . S
C91 C92 1.391 . S
C92 H69 0.947 . S
C92 C91 1.391 . S
C92 C93 1.392 . S
C93 H70 0.948 . S
C93 C92 1.392 . S
C93 C94 1.419 . S
C94 C93 1.419 . S
C94 C95 1.391 . S
C94 C98 1.397 . S
C95 C90 1.391 . S
C95 C94 1.391 . S
C95 C96 1.399 . S
C96 C95 1.399 . S
C96 C97 1.396 . S
C96 C99 1.453 . S
C96 C100 1.684 . S
C97 C87 1.723 . S
C97 C96 1.396 . S
C97 C98 1.394 . S
C98 C68 1.723 . S
C98 C94 1.397 . S
C98 C97 1.394 . S
C99 H71 0.982 . S
C99 H75 0.979 . S
C99 H76 0.977 . S
C99 C96 1.453 . S
C100 H72 0.979 . S
C100 H73 0.980 . S
C100 H74 0.983 . S
C100 C96 1.684 . S
H101 C119 0.948 . S
H102 C60 0.948 . S
H103 C78 0.979 . S
H104 C78 0.980 . S
H105 C78 0.983 . S
H106 C77 0.982 . S
H107 C77 0.979 . S
H108 C77 0.977 . S
H109 C79 0.948 . S
H110 C81 0.947 . S
H111 C82 0.948 . S
H112 C88 0.982 . S
H113 C88 0.979 . S
H114 C88 0.977 . S
H115 C89 0.979 . S
H116 C89 0.980 . S
H117 C89 0.983 . S
H118 C62 0.947 . S
C119 C62 1.392 . S
C119 C63 1.419 . S
C119 H101 0.948 . S
C120 C121 1.391 . S
C120 C124 1.391 . S
C120 H162 0.948 . S
C121 C120 1.391 . S
C121 C122 1.391 . S
C122 C121 1.391 . S
C122 H178 0.947 . S
C122 C179 1.392 . S
C123 C124 1.391 . S
C123 C127 1.397 . S
C123 C179 1.419 . S
C124 C120 1.391 . S
C124 C123 1.391 . S
C124 C125 1.399 . S
C125 C124 1.399 . S
C125 C128 1.396 . S
C125 C137 1.453 . S
C125 C138 1.684 . S
H126 C150 0.948 . S
C127 C123 1.397 . S
C127 C128 1.394 . S
C127 C146 1.723 . S
C128 C125 1.396 . S
C128 C127 1.394 . S
C128 C158 1.723 . S
H129 C152 0.947 . S
H130 C153 0.948 . S
H131 C159 0.982 . S
H132 C160 0.979 . S
H133 C160 0.980 . S
H134 C160 0.983 . S
H135 C159 0.979 . S
H136 C159 0.977 . S
C137 C125 1.453 . S
C137 H166 0.982 . S
C137 H167 0.979 . S
C137 H168 0.977 . S
C138 C125 1.684 . S
C138 H163 0.979 . S
C138 H164 0.980 . S
C138 H165 0.983 . S
C139 C140 1.391 . S
C139 C144 1.391 . S
C139 H169 0.948 . S
C140 C139 1.391 . S
C140 C141 1.391 . S
C141 C140 1.391 . S
C141 C142 1.392 . S
C141 H170 0.947 . S
C142 C141 1.392 . S
C142 C143 1.419 . S
C142 H171 0.948 . S
C143 C142 1.419 . S
C143 C144 1.391 . S
C143 C147 1.397 . S
C144 C139 1.391 . S
C144 C143 1.391 . S
C144 C145 1.399 . S
C145 C144 1.399 . S
C145 C146 1.396 . S
C145 C148 1.453 . S
C145 C149 1.684 . S
C146 C127 1.723 . S
C146 C145 1.396 . S
C146 C147 1.394 . S
C147 C143 1.397 . S
C147 C146 1.394 . S
C147 C157 1.723 . S
C148 C145 1.453 . S
C148 H172 0.982 . S
C148 H173 0.979 . S
C148 H174 0.977 . S
C149 C145 1.684 . S
C149 H175 0.979 . S
C149 H176 0.980 . S
C149 H177 0.983 . S
C150 H126 0.948 . S
C150 C151 1.391 . S
C150 C155 1.391 . S
C151 C150 1.391 . S
C151 C152 1.391 . S
C152 H129 0.947 . S
C152 C151 1.391 . S
C152 C153 1.392 . S
C153 H130 0.948 . S
C153 C152 1.392 . S
C153 C154 1.419 . S
C154 C153 1.419 . S
C154 C155 1.391 . S
C154 C158 1.397 . S
C155 C150 1.391 . S
C155 C154 1.391 . S
C155 C156 1.399 . S
C156 C155 1.399 . S
C156 C157 1.396 . S
C156 C159 1.453 . S
C156 C160 1.684 . S
C157 C147 1.723 . S
C157 C156 1.396 . S
C157 C158 1.394 . S
C158 C128 1.723 . S
C158 C154 1.397 . S
C158 C157 1.394 . S
C159 H131 0.982 . S
C159 H135 0.979 . S
C159 H136 0.977 . S
C159 C156 1.453 . S
C160 H132 0.979 . S
C160 H133 0.980 . S
C160 H134 0.983 . S
C160 C156 1.684 . S
H161 C179 0.948 . S
H162 C120 0.948 . S
H163 C138 0.979 . S
H164 C138 0.980 . S
H165 C138 0.983 . S
H166 C137 0.982 . S
H167 C137 0.979 . S
H168 C137 0.977 . S
H169 C139 0.948 . S
H170 C141 0.947 . S
H171 C142 0.948 . S
H172 C148 0.982 . S
H173 C148 0.979 . S
H174 C148 0.977 . S
H175 C149 0.979 . S
H176 C149 0.980 . S
H177 C149 0.983 . S
H178 C122 0.947 . S
C179 C122 1.392 . S
C179 C123 1.419 . S
C179 H161 0.948 . S
C180 C181 1.391 . S
C180 C184 1.391 . S
C180 H222 0.948 . S
C181 C180 1.391 . S
C181 C182 1.391 . S
C182 C181 1.391 . S
C182 H238 0.947 . S
C182 C239 1.392 . S
C183 C184 1.391 . S
C183 C187 1.397 . S
C183 C239 1.419 . S
C184 C180 1.391 . S
C184 C183 1.391 . S
C184 C185 1.399 . S
C185 C184 1.399 . S
C185 C188 1.396 . S
C185 C197 1.453 . S
C185 C198 1.684 . S
H186 C210 0.948 . S
C187 C183 1.397 . S
C187 C188 1.394 . S
C187 C206 1.723 . S
C188 C185 1.396 . S
C188 C187 1.394 . S
C188 C218 1.723 . S
H189 C212 0.947 . S
H190 C213 0.948 . S
H191 C219 0.982 . S
H192 C220 0.979 . S
H193 C220 0.980 . S
H194 C220 0.983 . S
H195 C219 0.979 . S
H196 C219 0.977 . S
C197 C185 1.453 . S
C197 H226 0.982 . S
C197 H227 0.979 . S
C197 H228 0.977 . S
C198 C185 1.684 . S
C198 H223 0.979 . S
C198 H224 0.980 . S
C198 H225 0.983 . S
C199 C200 1.391 . S
C199 C204 1.391 . S
C199 H229 0.948 . S
C200 C199 1.391 . S
C200 C201 1.391 . S
C201 C200 1.391 . S
C201 C202 1.392 . S
C201 H230 0.947 . S
C202 C201 1.392 . S
C202 C203 1.419 . S
C202 H231 0.948 . S
C203 C202 1.419 . S
C203 C204 1.391 . S
C203 C207 1.397 . S
C204 C199 1.391 . S
C204 C203 1.391 . S
C204 C205 1.399 . S
C205 C204 1.399 . S
C205 C206 1.396 . S
C205 C208 1.453 . S
C205 C209 1.684 . S
C206 C187 1.723 . S
C206 C205 1.396 . S
C206 C207 1.394 . S
C207 C203 1.397 . S
C207 C206 1.394 . S
C207 C217 1.723 . S
C208 C205 1.453 . S
C208 H232 0.982 . S
C208 H233 0.979 . S
C208 H234 0.977 . S
C209 C205 1.684 . S
C209 H235 0.979 . S
C209 H236 0.980 . S
C209 H237 0.983 . S
C210 H186 0.948 . S
C210 C211 1.391 . S
C210 C215 1.391 . S
C211 C210 1.391 . S
C211 C212 1.391 . S
C212 H189 0.947 . S
C212 C211 1.391 . S
C212 C213 1.392 . S
C213 H190 0.948 . S
C213 C212 1.392 . S
C213 C214 1.419 . S
C214 C213 1.419 . S
C214 C215 1.391 . S
C214 C218 1.397 . S
C215 C210 1.391 . S
C215 C214 1.391 . S
C215 C216 1.399 . S
C216 C215 1.399 . S
C216 C217 1.396 . S
C216 C219 1.453 . S
C216 C220 1.684 . S
C217 C207 1.723 . S
C217 C216 1.396 . S
C217 C218 1.394 . S
C218 C188 1.723 . S
C218 C214 1.397 . S
C218 C217 1.394 . S
C219 H191 0.982 . S
C219 H195 0.979 . S
C219 H196 0.977 . S
C219 C216 1.453 . S
C220 H192 0.979 . S
C220 H193 0.980 . S
C220 H194 0.983 . S
C220 C216 1.684 . S
H221 C239 0.948 . S
H222 C180 0.948 . S
H223 C198 0.979 . S
H224 C198 0.980 . S
H225 C198 0.983 . S
H226 C197 0.982 . S
H227 C197 0.979 . S
H228 C197 0.977 . S
H229 C199 0.948 . S
H230 C201 0.947 . S
H231 C202 0.948 . S
H232 C208 0.982 . S
H233 C208 0.979 . S
H234 C208 0.977 . S
H235 C209 0.979 . S
H236 C209 0.980 . S
H237 C209 0.983 . S
H238 C182 0.947 . S
C239 C182 1.392 . S
C239 C183 1.419 . S
C239 H221 0.948 . S
C240 C241 1.391 . S
C240 C244 1.391 . S
C240 H282 0.948 . S
C241 C240 1.391 . S
C241 C242 1.391 . S
C242 C241 1.391 . S
C242 H298 0.947 . S
C242 C299 1.392 . S
C243 C244 1.391 . S
C243 C247 1.397 . S
C243 C299 1.419 . S
C244 C240 1.391 . S
C244 C243 1.391 . S
C244 C245 1.399 . S
C245 C244 1.399 . S
C245 C248 1.396 . S
C245 C257 1.453 . S
C245 C258 1.684 . S
H246 C270 0.948 . S
C247 C243 1.397 . S
C247 C248 1.394 . S
C247 C266 1.723 . S
C248 C245 1.396 . S
C248 C247 1.394 . S
C248 C278 1.723 . S
H249 C272 0.947 . S
H250 C273 0.948 . S
H251 C279 0.982 . S
H252 C280 0.979 . S
H253 C280 0.980 . S
H254 C280 0.983 . S
H255 C279 0.979 . S
H256 C279 0.977 . S
C257 C245 1.453 . S
C257 H286 0.982 . S
C257 H287 0.979 . S
C257 H288 0.977 . S
C258 C245 1.684 . S
C258 H283 0.979 . S
C258 H284 0.980 . S
C258 H285 0.983 . S
C259 C260 1.391 . S
C259 C264 1.391 . S
C259 H289 0.948 . S
C260 C259 1.391 . S
C260 C261 1.391 . S
C261 C260 1.391 . S
C261 C262 1.392 . S
C261 H290 0.947 . S
C262 C261 1.392 . S
C262 C263 1.419 . S
C262 H291 0.948 . S
C263 C262 1.419 . S
C263 C264 1.391 . S
C263 C267 1.397 . S
C264 C259 1.391 . S
C264 C263 1.391 . S
C264 C265 1.399 . S
C265 C264 1.399 . S
C265 C266 1.396 . S
C265 C268 1.453 . S
C265 C269 1.684 . S
C266 C247 1.723 . S
C266 C265 1.396 . S
C266 C267 1.394 . S
C267 C263 1.397 . S
C267 C266 1.394 . S
C267 C277 1.723 . S
C268 C265 1.453 . S
C268 H292 0.982 . S
C268 H293 0.979 . S
C268 H294 0.977 . S
C269 C265 1.684 . S
C269 H295 0.979 . S
C269 H296 0.980 . S
C269 H297 0.983 . S
C270 H246 0.948 . S
C270 C271 1.391 . S
C270 C275 1.391 . S
C271 C270 1.391 . S
C271 C272 1.391 . S
C272 H249 0.947 . S
C272 C271 1.391 . S
C272 C273 1.392 . S
C273 H250 0.948 . S
C273 C272 1.392 . S
C273 C274 1.419 . S
C274 C273 1.419 . S
C274 C275 1.391 . S
C274 C278 1.397 . S
C275 C270 1.391 . S
C275 C274 1.391 . S
C275 C276 1.399 . S
C276 C275 1.399 . S
C276 C277 1.396 . S
C276 C279 1.453 . S
C276 C280 1.684 . S
C277 C267 1.723 . S
C277 C276 1.396 . S
C277 C278 1.394 . S
C278 C248 1.723 . S
C278 C274 1.397 . S
C278 C277 1.394 . S
C279 H251 0.982 . S
C279 H255 0.979 . S
C279 H256 0.977 . S
C279 C276 1.453 . S
C280 H252 0.979 . S
C280 H253 0.980 . S
C280 H254 0.983 . S
C280 C276 1.684 . S
H281 C299 0.948 . S
H282 C240 0.948 . S
H283 C258 0.979 . S
H284 C258 0.980 . S
H285 C258 0.983 . S
H286 C257 0.982 . S
H287 C257 0.979 . S
H288 C257 0.977 . S
H289 C259 0.948 . S
H290 C261 0.947 . S
H291 C262 0.948 . S
H292 C268 0.982 . S
H293 C268 0.979 . S
H294 C268 0.977 . S
H295 C269 0.979 . S
H296 C269 0.980 . S
H297 C269 0.983 . S
H298 C242 0.947 . S
C299 C242 1.392 . S
C299 C243 1.419 . S
C299 H281 0.948 . S
C300 C301 1.391 . S
C300 C304 1.391 . S
C300 H342 0.948 . S
C301 C300 1.391 . S
C301 C302 1.391 . S
C302 C301 1.391 . S
C302 H358 0.947 . S
C302 C359 1.392 . S
C303 C304 1.391 . S
C303 C307 1.397 . S
C303 C359 1.419 . S
C304 C300 1.391 . S
C304 C303 1.391 . S
C304 C305 1.399 . S
C305 C304 1.399 . S
C305 C308 1.396 . S
C305 C317 1.453 . S
C305 C318 1.684 . S
H306 C330 0.948 . S
C307 C303 1.397 . S
C307 C308 1.394 . S
C307 C326 1.723 . S
C308 C305 1.396 . S
C308 C307 1.394 . S
C308 C338 1.723 . S
H309 C332 0.947 . S
H310 C333 0.948 . S
H311 C339 0.982 . S
H312 C340 0.979 . S
H313 C340 0.980 . S
H314 C340 0.983 . S
H315 C339 0.979 . S
H316 C339 0.977 . S
C317 C305 1.453 . S
C317 H346 0.982 . S
C317 H347 0.979 . S
C317 H348 0.977 . S
C318 C305 1.684 . S
C318 H343 0.979 . S
C318 H344 0.980 . S
C318 H345 0.983 . S
C319 C320 1.391 . S
C319 C324 1.391 . S
C319 H349 0.948 . S
C320 C319 1.391 . S
C320 C321 1.391 . S
C321 C320 1.391 . S
C321 C322 1.392 . S
C321 H350 0.947 . S
C322 C321 1.392 . S
C322 C323 1.419 . S
C322 H351 0.948 . S
C323 C322 1.419 . S
C323 C324 1.391 . S
C323 C327 1.397 . S
C324 C319 1.391 . S
C324 C323 1.391 . S
C324 C325 1.399 . S
C325 C324 1.399 . S
C325 C326 1.396 . S
C325 C328 1.453 . S
C325 C329 1.684 . S
C326 C307 1.723 . S
C326 C325 1.396 . S
C326 C327 1.394 . S
C327 C323 1.397 . S
C327 C326 1.394 . S
C327 C337 1.723 . S
C328 C325 1.453 . S
C328 H352 0.982 . S
C328 H353 0.979 . S
C328 H354 0.977 . S
C329 C325 1.684 . S
C329 H355 0.979 . S
C329 H356 0.980 . S
C329 H357 0.983 . S
C330 H306 0.948 . S
C330 C331 1.391 . S
C330 C335 1.391 . S
C331 C330 1.391 . S
C331 C332 1.391 . S
C332 H309 0.947 . S
C332 C331 1.391 . S
C332 C333 1.392 . S
C333 H310 0.948 . S
C333 C332 1.392 . S
C333 C334 1.419 . S
C334 C333 1.419 . S
C334 C335 1.391 . S
C334 C338 1.397 . S
C335 C330 1.391 . S
C335 C334 1.391 . S
C335 C336 1.399 . S
C336 C335 1.399 . S
C336 C337 1.396 . S
C336 C339 1.453 . S
C336 C340 1.684 . S
C337 C327 1.723 . S
C337 C336 1.396 . S
C337 C338 1.394 . S
C338 C308 1.723 . S
C338 C334 1.397 . S
C338 C337 1.394 . S
C339 H311 0.982 . S
C339 H315 0.979 . S
C339 H316 0.977 . S
C339 C336 1.453 . S
C340 H312 0.979 . S
C340 H313 0.980 . S
C340 H314 0.983 . S
C340 C336 1.684 . S
H341 C359 0.948 . S
H342 C300 0.948 . S
H343 C318 0.979 . S
H344 C318 0.980 . S
H345 C318 0.983 . S
H346 C317 0.982 . S
H347 C317 0.979 . S
H348 C317 0.977 . S
H349 C319 0.948 . S
H350 C321 0.947 . S
H351 C322 0.948 . S
H352 C328 0.982 . S
H353 C328 0.979 . S
H354 C328 0.977 . S
H355 C329 0.979 . S
H356 C329 0.980 . S
H357 C329 0.983 . S
H358 C302 0.947 . S
C359 C302 1.392 . S
C359 C303 1.419 . S
C359 H341 0.948 . S
C360 C361 1.391 . S
C360 C364 1.391 . S
C360 H402 0.948 . S
C361 C360 1.391 . S
C361 C362 1.391 . S
C362 C361 1.391 . S
C362 H418 0.947 . S
C362 C419 1.392 . S
C363 C364 1.391 . S
C363 C367 1.397 . S
C363 C419 1.419 . S
C364 C360 1.391 . S
C364 C363 1.391 . S
C364 C365 1.399 . S
C365 C364 1.399 . S
C365 C368 1.396 . S
C365 C377 1.453 . S
C365 C378 1.684 . S
H366 C390 0.948 . S
C367 C363 1.397 . S
C367 C368 1.394 . S
C367 C386 1.723 . S
C368 C365 1.396 . S
C368 C367 1.394 . S
C368 C398 1.723 . S
H369 C392 0.947 . S
H370 C393 0.948 . S
H371 C399 0.982 . S
H372 C400 0.979 . S
H373 C400 0.980 . S
H374 C400 0.983 . S
H375 C399 0.979 . S
H376 C399 0.977 . S
C377 C365 1.453 . S
C377 H406 0.982 . S
C377 H407 0.979 . S
C377 H408 0.977 . S
C378 C365 1.684 . S
C378 H403 0.979 . S
C378 H404 0.980 . S
C378 H405 0.983 . S
C379 C380 1.391 . S
C379 C384 1.391 . S
C379 H409 0.948 . S
C380 C379 1.391 . S
C380 C381 1.391 . S
C381 C380 1.391 . S
C381 C382 1.392 . S
C381 H410 0.947 . S
C382 C381 1.392 . S
C382 C383 1.419 . S
C382 H411 0.948 . S
C383 C382 1.419 . S
C383 C384 1.391 . S
C383 C387 1.397 . S
C384 C379 1.391 . S
C384 C383 1.391 . S
C384 C385 1.399 . S
C385 C384 1.399 . S
C385 C386 1.396 . S
C385 C388 1.453 . S
C385 C389 1.684 . S
C386 C367 1.723 . S
C386 C385 1.396 . S
C386 C387 1.394 . S
C387 C383 1.397 . S
C387 C386 1.394 . S
C387 C397 1.723 . S
C388 C385 1.453 . S
C388 H412 0.982 . S
C388 H413 0.979 . S
C388 H414 0.977 . S
C389 C385 1.684 . S
C389 H415 0.979 . S
C389 H416 0.980 . S
C389 H417 0.983 . S
C390 H366 0.948 . S
C390 C391 1.391 . S
C390 C395 1.391 . S
C391 C390 1.391 . S
C391 C392 1.391 . S
C392 H369 0.947 . S
C392 C391 1.391 . S
C392 C393 1.392 . S
C393 H370 0.948 . S
C393 C392 1.392 . S
C393 C394 1.419 . S
C394 C393 1.419 . S
C394 C395 1.391 . S
C394 C398 1.397 . S
C395 C390 1.391 . S
C395 C394 1.391 . S
C395 C396 1.399 . S
C396 C395 1.399 . S
C396 C397 1.396 . S
C396 C399 1.453 . S
C396 C400 1.684 . S
C397 C387 1.723 . S
C397 C396 1.396 . S
C397 C398 1.394 . S
C398 C368 1.723 . S
C398 C394 1.397 . S
C398 C397 1.394 . S
C399 H371 0.982 . S
C399 H375 0.979 . S
C399 H376 0.977 . S
C399 C396 1.453 . S
C400 H372 0.979 . S
C400 H373 0.980 . S
C400 H374 0.983 . S
C400 C396 1.684 . S
H401 C419 0.948 . S
H402 C360 0.948 . S
H403 C378 0.979 . S
H404 C378 0.980 . S
H405 C378 0.983 . S
H406 C377 0.982 . S
H407 C377 0.979 . S
H408 C377 0.977 . S
H409 C379 0.948 . S
H410 C381 0.947 . S
H411 C382 0.948 . S
H412 C388 0.982 . S
H413 C388 0.979 . S
H414 C388 0.977 . S
H415 C389 0.979 . S
H416 C389 0.980 . S
H417 C389 0.983 . S
H418 C362 0.947 . S
C419 C362 1.392 . S
C419 C363 1.419 . S
C419 H401 0.948 . S
C420 C421 1.391 . S
C420 C424 1.391 . S
C420 H462 0.948 . S
C421 C420 1.391 . S
C421 C422 1.391 . S
C422 C421 1.391 . S
C422 H478 0.947 . S
C422 C479 1.392 . S
C423 C424 1.391 . S
C423 C427 1.397 . S
C423 C479 1.419 . S
C424 C420 1.391 . S
C424 C423 1.391 . S
C424 C425 1.399 . S
C425 C424 1.399 . S
C425 C428 1.396 . S
C425 C437 1.453 . S
C425 C438 1.684 . S
H426 C450 0.948 . S
C427 C423 1.397 . S
C427 C428 1.394 . S
C427 C446 1.723 . S
C428 C425 1.396 . S
C428 C427 1.394 . S
C428 C458 1.723 . S
H429 C452 0.947 . S
H430 C453 0.948 . S
H431 C459 0.982 . S
H432 C460 0.979 . S
H433 C460 0.980 . S
H434 C460 0.983 . S
H435 C459 0.979 . S
H436 C459 0.977 . S
C437 C425 1.453 . S
C437 H466 0.982 . S
C437 H467 0.979 . S
C437 H468 0.977 . S
C438 C425 1.684 . S
C438 H463 0.979 . S
C438 H464 0.980 . S
C438 H465 0.983 . S
C439 C440 1.391 . S
C439 C444 1.391 . S
C439 H469 0.948 . S
C440 C439 1.391 . S
C440 C441 1.391 . S
C441 C440 1.391 . S
C441 C442 1.392 . S
C441 H470 0.947 . S
C442 C441 1.392 . S
C442 C443 1.419 . S
C442 H471 0.948 . S
C443 C442 1.419 . S
C443 C444 1.391 . S
C443 C447 1.397 . S
C444 C439 1.391 . S
C444 C443 1.391 . S
C444 C445 1.399 . S
C445 C444 1.399 . S
C445 C446 1.396 . S
C445 C448 1.453 . S
C445 C449 1.684 . S
C446 C427 1.723 . S
C446 C445 1.396 . S
C446 C447 1.394 . S
C447 C443 1.397 . S
C447 C446 1.394 . S
C447 C457 1.723 . S
C448 C445 1.453 . S
C448 H472 0.982 . S
C448 H473 0.979 . S
C448 H474 0.977 . S
C449 C445 1.684 . S
C449 H475 0.979 . S
C449 H476 0.980 . S
C449 H477 0.983 . S
C450 H426 0.948 . S
C450 C451 1.391 . S
C450 C455 1.391 . S
C451 C450 1.391 . S
C451 C452 1.391 . S
C452 H429 0.947 . S
C452 C451 1.391 . S
C452 C453 1.392 . S
C453 H430 0.948 . S
C453 C452 1.392 . S
C453 C454 1.419 . S
C454 C453 1.419 . S
C454 C455 1.391 . S
C454 C458 1.397 . S
C455 C450 1.391 . S
C455 C454 1.391 . S
C455 C456 1.399 . S
C456 C455 1.399 . S
C456 C457 1.396 . S
C456 C459 1.453 . S
C456 C460 1.684 . S
C457 C447 1.723 . S
C457 C456 1.396 . S
C457 C458 1.394 . S
C458 C428 1.723 . S
C458 C454 1.397 . S
C458 C457 1.394 . S
C459 H431 0.982 . S
C459 H435 0.979 . S
C459 H436 0.977 . S
C459 C456 1.453 . S
C460 H432 0.979 . S
C460 H433 0.980 . S
C460 H434 0.983 . S
C460 C456 1.684 . S
H461 C479 0.948 . S
H462 C420 0.948 . S
H463 C438 0.979 . S
H464 C438 0.980 . S
H465 C438 0.983 . S
H466 C437 0.982 . S
H467 C437 0.979 . S
H468 C437 0.977 . S
H469 C439 0.948 . S
H470 C441 0.947 . S
H471 C442 0.948 . S
H472 C448 0.982 . S
H473 C448 0.979 . S
H474 C448 0.977 . S
H475 C449 0.979 . S
H476 C449 0.980 . S
H477 C449 0.983 . S
H478 C422 0.947 . S
C479 C422 1.392 . S
C479 C423 1.419 . S
C479 H461 0.948 . S
Tb480 C482 2.809 . S
Tb480 O500 2.484 . S
Tb480 O501 2.440 . S
Tb480 O502 2.658 1_665 S
Tb480 O503 2.409 1_565 S
Tb480 O504 2.378 1_655 S
Tb480 O508 2.325 . S
Tb480 O511 2.341 1_565 S
Tb481 C491 2.809 . S
Tb481 O502 2.325 . S
Tb481 O505 2.341 1_545 S
Tb481 O506 2.484 . S
Tb481 O507 2.440 . S
Tb481 O508 2.658 1_445 S
Tb481 O509 2.409 1_545 S
Tb481 O510 2.378 1_455 S
C482 Tb480 2.809 . S
C482 C483 1.514 . S
C482 O500 1.248 . S
C482 O501 1.266 . S
C483 C482 1.514 . S
C483 C484 1.359 . S
C483 C488 1.348 . S
C484 C483 1.359 . S
C484 C485 1.380 . S
C484 H512 0.929 . S
C485 C484 1.380 . S
C485 C486 1.347 . S
C485 H513 0.931 . S
C486 C485 1.347 . S
C486 C487 1.369 . S
C487 C486 1.369 . S
C487 C488 1.408 . S
C487 H514 0.930 . S
C488 C483 1.348 . S
C488 C487 1.408 . S
C488 H515 0.930 . S
C489 O502 1.281 . S
C489 O503 1.254 1_455 S
C490 O504 1.236 . S
C490 O505 1.266 . S
C491 Tb481 2.809 . S
C491 C492 1.514 . S
C491 O506 1.248 . S
C491 O507 1.266 . S
C492 C491 1.514 . S
C492 C493 1.359 . S
C492 C497 1.348 . S
C493 C492 1.359 . S
C493 C494 1.380 . S
C493 H516 0.929 . S
C494 C493 1.380 . S
C494 C495 1.347 . S
C494 H517 0.931 . S
C495 C494 1.347 . S
C495 C496 1.369 . S
C496 C495 1.369 . S
C496 C497 1.408 . S
C496 H518 0.930 . S
C497 C492 1.348 . S
C497 C496 1.408 . S
C497 H519 0.930 . S
C498 O508 1.281 . S
C498 O509 1.254 1_655 S
C499 O510 1.236 . S
C499 O511 1.266 . S
O500 Tb480 2.484 . S
O500 C482 1.248 . S
O501 Tb480 2.440 . S
O501 C482 1.266 . S
O502 Tb480 2.658 1_445 S
O502 Tb481 2.325 . S
O502 C489 1.281 . S
O503 Tb480 2.409 1_545 S
O503 C489 1.254 1_655 S
O504 Tb480 2.378 1_455 S
O504 C490 1.236 . S
O505 Tb481 2.341 1_565 S
O505 C490 1.266 . S
O506 Tb481 2.484 . S
O506 C491 1.248 . S
O507 Tb481 2.440 . S
O507 C491 1.266 . S
O508 Tb480 2.325 . S
O508 Tb481 2.658 1_665 S
O508 C498 1.281 . S
O509 Tb481 2.409 1_565 S
O509 C498 1.254 1_455 S
O510 Tb481 2.378 1_655 S
O510 C499 1.236 . S
O511 Tb480 2.341 1_545 S
O511 C499 1.266 . S
H512 C484 0.929 . S
H513 C485 0.931 . S
H514 C487 0.930 . S
H515 C488 0.930 . S
H516 C493 0.929 . S
H517 C494 0.931 . S
H518 C496 0.930 . S
H519 C497 0.930 . S
Tb520 C522 2.809 . S
Tb520 O540 2.484 . S
Tb520 O541 2.440 . S
Tb520 O542 2.658 1_545 S
Tb520 O543 2.409 1_545 S
Tb520 O544 2.378 . S
Tb520 O548 2.325 1_554 S
Tb520 O551 2.341 1_544 S
Tb521 C531 2.809 . S
Tb521 O542 2.325 1_556 S
Tb521 O545 2.341 1_566 S
Tb521 O546 2.484 . S
Tb521 O547 2.440 . S
Tb521 O548 2.658 1_565 S
Tb521 O549 2.409 1_565 S
Tb521 O550 2.378 . S
C522 Tb520 2.809 . S
C522 C523 1.514 . S
C522 O540 1.248 . S
C522 O541 1.266 . S
C523 C522 1.514 . S
C523 C524 1.359 . S
C523 C528 1.348 . S
C524 C523 1.359 . S
C524 C525 1.380 . S
C524 H552 0.929 . S
C525 C524 1.380 . S
C525 C526 1.347 . S
C525 H553 0.931 . S
C526 C525 1.347 . S
C526 C527 1.369 . S
C527 C526 1.369 . S
C527 C528 1.408 . S
C527 H554 0.930 . S
C528 C523 1.348 . S
C528 C527 1.408 . S
C528 H555 0.930 . S
C529 O542 1.281 . S
C529 O543 1.254 . S
C530 O544 1.236 . S
C530 O545 1.266 . S
C531 Tb521 2.809 . S
C531 C532 1.514 . S
C531 O546 1.248 . S
C531 O547 1.266 . S
C532 C531 1.514 . S
C532 C533 1.359 . S
C532 C537 1.348 . S
C533 C532 1.359 . S
C533 C534 1.380 . S
C533 H556 0.929 . S
C534 C533 1.380 . S
C534 C535 1.347 . S
C534 H557 0.931 . S
C535 C534 1.347 . S
C535 C536 1.369 . S
C536 C535 1.369 . S
C536 C537 1.408 . S
C536 H558 0.930 . S
C537 C532 1.348 . S
C537 C536 1.408 . S
C537 H559 0.930 . S
C538 O548 1.281 . S
C538 O549 1.254 . S
C539 O550 1.236 . S
C539 O551 1.266 . S
O540 Tb520 2.484 . S
O540 C522 1.248 . S
O541 Tb520 2.440 . S
O541 C522 1.266 . S
O542 Tb520 2.658 1_565 S
O542 Tb521 2.325 1_554 S
O542 C529 1.281 . S
O543 Tb520 2.409 1_565 S
O543 C529 1.254 . S
O544 Tb520 2.378 . S
O544 C530 1.236 . S
O545 Tb521 2.341 1_544 S
O545 C530 1.266 . S
O546 Tb521 2.484 . S
O546 C531 1.248 . S
O547 Tb521 2.440 . S
O547 C531 1.266 . S
O548 Tb520 2.325 1_556 S
O548 Tb521 2.658 1_545 S
O548 C538 1.281 . S
O549 Tb521 2.409 1_545 S
O549 C538 1.254 . S
O550 Tb521 2.378 . S
O550 C539 1.236 . S
O551 Tb520 2.341 1_566 S
O551 C539 1.266 . S
H552 C524 0.929 . S
H553 C525 0.931 . S
H554 C527 0.930 . S
H555 C528 0.930 . S
H556 C533 0.929 . S
H557 C534 0.931 . S
H558 C536 0.930 . S
H559 C537 0.930 . S
Tb560 C562 2.809 . S
Tb560 O580 2.484 . S
Tb560 O581 2.440 . S
Tb560 O582 2.658 . S
Tb560 O583 2.409 . S
Tb560 O584 2.378 . S
Tb560 O588 2.325 . S
Tb560 O591 2.341 . S
Tb561 C571 2.809 . S
Tb561 O582 2.325 . S
Tb561 O585 2.341 . S
Tb561 O586 2.484 . S
Tb561 O587 2.440 . S
Tb561 O588 2.658 . S
Tb561 O589 2.409 . S
Tb561 O590 2.378 . S
C562 Tb560 2.809 . S
C562 C563 1.514 . S
C562 O580 1.248 . S
C562 O581 1.266 . S
C563 C562 1.514 . S
C563 C564 1.359 . S
C563 C568 1.348 . S
C564 C563 1.359 . S
C564 C565 1.380 . S
C564 H592 0.929 . S
C565 C564 1.380 . S
C565 C566 1.347 . S
C565 H593 0.931 . S
C566 C565 1.347 . S
C566 C567 1.369 . S
C567 C566 1.369 . S
C567 C568 1.408 . S
C567 H594 0.930 . S
C568 C563 1.348 . S
C568 C567 1.408 . S
C568 H595 0.930 . S
C569 O582 1.281 . S
C569 O583 1.254 . S
C570 O584 1.236 . S
C570 O585 1.266 . S
C571 Tb561 2.809 . S
C571 C572 1.514 . S
C571 O586 1.248 . S
C571 O587 1.266 . S
C572 C571 1.514 . S
C572 C573 1.359 . S
C572 C577 1.348 . S
C573 C572 1.359 . S
C573 C574 1.380 . S
C573 H596 0.929 . S
C574 C573 1.380 . S
C574 C575 1.347 . S
C574 H597 0.931 . S
C575 C574 1.347 . S
C575 C576 1.369 . S
C576 C575 1.369 . S
C576 C577 1.408 . S
C576 H598 0.930 . S
C577 C572 1.348 . S
C577 C576 1.408 . S
C577 H599 0.930 . S
C578 O588 1.281 . S
C578 O589 1.254 . S
C579 O590 1.236 . S
C579 O591 1.266 . S
O580 Tb560 2.484 . S
O580 C562 1.248 . S
O581 Tb560 2.440 . S
O581 C562 1.266 . S
O582 Tb560 2.658 . S
O582 Tb561 2.325 . S
O582 C569 1.281 . S
O583 Tb560 2.409 . S
O583 C569 1.254 . S
O584 Tb560 2.378 . S
O584 C570 1.236 . S
O585 Tb561 2.341 . S
O585 C570 1.266 . S
O586 Tb561 2.484 . S
O586 C571 1.248 . S
O587 Tb561 2.440 . S
O587 C571 1.266 . S
O588 Tb560 2.325 . S
O588 Tb561 2.658 . S
O588 C578 1.281 . S
O589 Tb561 2.409 . S
O589 C578 1.254 . S
O590 Tb561 2.378 . S
O590 C579 1.236 . S
O591 Tb560 2.341 . S
O591 C579 1.266 . S
H592 C564 0.929 . S
H593 C565 0.931 . S
H594 C567 0.930 . S
H595 C568 0.930 . S
H596 C573 0.929 . S
H597 C574 0.931 . S
H598 C576 0.930 . S
H599 C577 0.930 . S
Tb600 C602 2.809 . S
Tb600 O620 2.484 . S
Tb600 O621 2.440 . S
Tb600 O622 2.658 1_656 S
Tb600 O623 2.406 1_656 S
Tb600 O624 2.378 1_556 S
Tb600 O628 2.325 . S
Tb600 O631 2.341 1_655 S
Tb601 C611 2.809 . S
Tb601 O622 2.325 . S
Tb601 O625 2.341 1_455 S
Tb601 O626 2.484 . S
Tb601 O627 2.440 . S
Tb601 O628 2.658 1_454 S
Tb601 O629 2.410 1_455 S
Tb601 O630 2.378 1_554 S
C602 Tb600 2.809 . S
C602 C603 1.514 . S
C602 O620 1.248 . S
C602 O621 1.266 . S
C603 C602 1.514 . S
C603 C604 1.359 . S
C603 C608 1.348 . S
C604 C603 1.359 . S
C604 C605 1.380 . S
C604 H632 0.929 . S
C605 C604 1.380 . S
C605 C606 1.347 . S
C605 H633 0.931 . S
C606 C605 1.347 . S
C606 C607 1.369 . S
C607 C606 1.369 . S
C607 C608 1.408 . S
C607 H634 0.930 . S
C608 C603 1.348 . S
C608 C607 1.408 . S
C608 H635 0.930 . S
C609 O622 1.281 . S
C609 O623 1.257 . S
C610 O624 1.236 . S
C610 O625 1.266 . S
C611 Tb601 2.809 . S
C611 C612 1.514 . S
C611 O626 1.248 . S
C611 O627 1.266 . S
C612 C611 1.514 . S
C612 C613 1.359 . S
C612 C617 1.348 . S
C613 C612 1.359 . S
C613 C614 1.380 . S
C613 H636 0.929 . S
C614 C613 1.380 . S
C614 C615 1.347 . S
C614 H637 0.931 . S
C615 C614 1.347 . S
C615 C616 1.369 . S
C616 C615 1.369 . S
C616 C617 1.408 . S
C616 H638 0.930 . S
C617 C612 1.348 . S
C617 C616 1.408 . S
C617 H639 0.930 . S
C618 O628 1.281 . S
C618 O629 1.252 1_556 S
C619 O630 1.236 . S
C619 O631 1.266 . S
O620 Tb600 2.484 . S
O620 C602 1.248 . S
O621 Tb600 2.440 . S
O621 C602 1.266 . S
O622 Tb600 2.658 1_454 S
O622 Tb601 2.325 . S
O622 C609 1.281 . S
O623 Tb600 2.406 1_454 S
O623 C609 1.257 . S
O624 Tb600 2.378 1_554 S
O624 C610 1.236 . S
O625 Tb601 2.341 1_655 S
O625 C610 1.266 . S
O626 Tb601 2.484 . S
O626 C611 1.248 . S
O627 Tb601 2.440 . S
O627 C611 1.266 . S
O628 Tb600 2.325 . S
O628 Tb601 2.658 1_656 S
O628 C618 1.281 . S
O629 Tb601 2.410 1_655 S
O629 C618 1.252 1_554 S
O630 Tb601 2.378 1_556 S
O630 C619 1.236 . S
O631 Tb600 2.341 1_455 S
O631 C619 1.266 . S
H632 C604 0.929 . S
H633 C605 0.931 . S
H634 C607 0.930 . S
H635 C608 0.930 . S
H636 C613 0.929 . S
H637 C614 0.931 . S
H638 C616 0.930 . S
H639 C617 0.930 . S
C640 C641 1.391 . S
C640 C642 1.394 . S
C640 H656 0.931 . S
C641 C640 1.391 . S
C641 C645 1.376 . S
C642 C640 1.394 . S
C642 C643 1.369 . S
C642 C646 1.531 . S
C643 C642 1.369 . S
C643 C644 1.410 . S
C643 C651 1.503 . S
C644 C643 1.410 . S
C644 C645 1.392 . S
C644 C647 1.511 . S
C645 C641 1.376 . S
C645 C644 1.392 . S
C645 H657 0.929 . S
C646 C642 1.531 . S
C646 H658 0.960 . S
C646 H659 0.962 . S
C646 H660 0.960 . S
C647 C644 1.511 . S
C647 H661 0.961 . S
C647 H662 0.961 . S
C647 H663 0.961 . S
C648 C649 1.370 . S
C648 C650 1.363 . S
C648 H664 0.931 . S
C649 C648 1.370 . S
C649 C653 1.408 . S
C650 C648 1.363 . S
C650 C651 1.370 . S
C650 C654 1.524 . S
C651 C643 1.503 . S
C651 C650 1.370 . S
C651 C652 1.403 . S
C652 C651 1.403 . S
C652 C653 1.404 . S
C652 C655 1.539 . S
C653 C649 1.408 . S
C653 C652 1.404 . S
C653 H665 0.930 . S
C654 C650 1.524 . S
C654 H666 0.956 . S
C654 H667 0.961 . S
C654 H668 0.961 . S
C655 C652 1.539 . S
C655 H669 0.958 . S
C655 H670 0.961 . S
C655 H671 0.960 . S
H656 C640 0.931 . S
H657 C645 0.929 . S
H658 C646 0.960 . S
H659 C646 0.962 . S
H660 C646 0.960 . S
H661 C647 0.961 . S
H662 C647 0.961 . S
H663 C647 0.961 . S
H664 C648 0.931 . S
H665 C653 0.930 . S
H666 C654 0.956 . S
H667 C654 0.961 . S
H668 C654 0.961 . S
H669 C655 0.958 . S
H670 C655 0.961 . S
H671 C655 0.960 . S
C672 C673 1.391 . S
C672 C674 1.394 . S
C672 H688 0.931 . S
C673 C672 1.391 . S
C673 C677 1.376 . S
C674 C672 1.394 . S
C674 C675 1.369 . S
C674 C678 1.531 . S
C675 C674 1.369 . S
C675 C676 1.410 . S
C675 C683 1.503 . S
C676 C675 1.410 . S
C676 C677 1.392 . S
C676 C679 1.511 . S
C677 C673 1.376 . S
C677 C676 1.392 . S
C677 H689 0.929 . S
C678 C674 1.531 . S
C678 H690 0.960 . S
C678 H691 0.962 . S
C678 H692 0.960 . S
C679 C676 1.511 . S
C679 H693 0.961 . S
C679 H694 0.961 . S
C679 H695 0.961 . S
C680 C681 1.370 . S
C680 C682 1.363 . S
C680 H696 0.931 . S
C681 C680 1.370 . S
C681 C685 1.408 . S
C682 C680 1.363 . S
C682 C683 1.370 . S
C682 C686 1.524 . S
C683 C675 1.503 . S
C683 C682 1.370 . S
C683 C684 1.403 . S
C684 C683 1.403 . S
C684 C685 1.404 . S
C684 C687 1.539 . S
C685 C681 1.408 . S
C685 C684 1.404 . S
C685 H697 0.930 . S
C686 C682 1.524 . S
C686 H698 0.956 . S
C686 H699 0.961 . S
C686 H700 0.961 . S
C687 C684 1.539 . S
C687 H701 0.958 . S
C687 H702 0.961 . S
C687 H703 0.960 . S
H688 C672 0.931 . S
H689 C677 0.929 . S
H690 C678 0.960 . S
H691 C678 0.962 . S
H692 C678 0.960 . S
H693 C679 0.961 . S
H694 C679 0.961 . S
H695 C679 0.961 . S
H696 C680 0.931 . S
H697 C685 0.930 . S
H698 C686 0.956 . S
H699 C686 0.961 . S
H700 C686 0.961 . S
H701 C687 0.958 . S
H702 C687 0.961 . S
H703 C687 0.960 . S
C704 C705 1.391 . S
C704 C706 1.394 . S
C704 H720 0.931 . S
C705 C704 1.391 . S
C705 C709 1.376 . S
C706 C704 1.394 . S
C706 C707 1.369 . S
C706 C710 1.531 . S
C707 C706 1.369 . S
C707 C708 1.410 . S
C707 C715 1.503 . S
C708 C707 1.410 . S
C708 C709 1.392 . S
C708 C711 1.511 . S
C709 C705 1.376 . S
C709 C708 1.392 . S
C709 H721 0.929 . S
C710 C706 1.531 . S
C710 H722 0.960 . S
C710 H723 0.962 . S
C710 H724 0.960 . S
C711 C708 1.511 . S
C711 H725 0.961 . S
C711 H726 0.961 . S
C711 H727 0.961 . S
C712 C713 1.370 . S
C712 C714 1.363 . S
C712 H728 0.931 . S
C713 C712 1.370 . S
C713 C717 1.408 . S
C714 C712 1.363 . S
C714 C715 1.370 . S
C714 C718 1.524 . S
C715 C707 1.503 . S
C715 C714 1.370 . S
C715 C716 1.403 . S
C716 C715 1.403 . S
C716 C717 1.404 . S
C716 C719 1.539 . S
C717 C713 1.408 . S
C717 C716 1.404 . S
C717 H729 0.930 . S
C718 C714 1.524 . S
C718 H730 0.956 . S
C718 H731 0.961 . S
C718 H732 0.961 . S
C719 C716 1.539 . S
C719 H733 0.958 . S
C719 H734 0.961 . S
C719 H735 0.960 . S
H720 C704 0.931 . S
H721 C709 0.929 . S
H722 C710 0.960 . S
H723 C710 0.962 . S
H724 C710 0.960 . S
H725 C711 0.961 . S
H726 C711 0.961 . S
H727 C711 0.961 . S
H728 C712 0.931 . S
H729 C717 0.930 . S
H730 C718 0.956 . S
H731 C718 0.961 . S
H732 C718 0.961 . S
H733 C719 0.958 . S
H734 C719 0.961 . S
H735 C719 0.960 . S
C736 C737 1.391 . S
C736 C738 1.394 . S
C736 H752 0.931 . S
C737 C736 1.391 . S
C737 C741 1.376 . S
C738 C736 1.394 . S
C738 C739 1.369 . S
C738 C742 1.531 . S
C739 C738 1.369 . S
C739 C740 1.410 . S
C739 C747 1.503 . S
C740 C739 1.410 . S
C740 C741 1.392 . S
C740 C743 1.511 . S
C741 C737 1.376 . S
C741 C740 1.392 . S
C741 H753 0.929 . S
C742 C738 1.531 . S
C742 H754 0.960 . S
C742 H755 0.962 . S
C742 H756 0.960 . S
C743 C740 1.511 . S
C743 H757 0.961 . S
C743 H758 0.961 . S
C743 H759 0.961 . S
C744 C745 1.370 . S
C744 C746 1.363 . S
C744 H760 0.931 . S
C745 C744 1.370 . S
C745 C749 1.408 . S
C746 C744 1.363 . S
C746 C747 1.370 . S
C746 C750 1.524 . S
C747 C739 1.503 . S
C747 C746 1.370 . S
C747 C748 1.403 . S
C748 C747 1.403 . S
C748 C749 1.404 . S
C748 C751 1.539 . S
C749 C745 1.408 . S
C749 C748 1.404 . S
C749 H761 0.930 . S
C750 C746 1.524 . S
C750 H762 0.956 . S
C750 H763 0.961 . S
C750 H764 0.961 . S
C751 C748 1.539 . S
C751 H765 0.958 . S
C751 H766 0.961 . S
C751 H767 0.960 . S
H752 C736 0.931 . S
H753 C741 0.929 . S
H754 C742 0.960 . S
H755 C742 0.962 . S
H756 C742 0.960 . S
H757 C743 0.961 . S
H758 C743 0.961 . S
H759 C743 0.961 . S
H760 C744 0.931 . S
H761 C749 0.930 . S
H762 C750 0.956 . S
H763 C750 0.961 . S
H764 C750 0.961 . S
H765 C751 0.958 . S
H766 C751 0.961 . S
H767 C751 0.960 . S
C768 C769 1.391 . S
C768 C770 1.394 . S
C768 H784 0.931 . S
C769 C768 1.391 . S
C769 C773 1.376 . S
C770 C768 1.394 . S
C770 C771 1.369 . S
C770 C774 1.531 . S
C771 C770 1.369 . S
C771 C772 1.410 . S
C771 C779 1.503 . S
C772 C771 1.410 . S
C772 C773 1.392 . S
C772 C775 1.511 . S
C773 C769 1.376 . S
C773 C772 1.392 . S
C773 H785 0.929 . S
C774 C770 1.531 . S
C774 H786 0.960 . S
C774 H787 0.962 . S
C774 H788 0.960 . S
C775 C772 1.511 . S
C775 H789 0.961 . S
C775 H790 0.961 . S
C775 H791 0.961 . S
C776 C777 1.370 . S
C776 C778 1.363 . S
C776 H792 0.931 . S
C777 C776 1.370 . S
C777 C781 1.408 . S
C778 C776 1.363 . S
C778 C779 1.370 . S
C778 C782 1.524 . S
C779 C771 1.503 . S
C779 C778 1.370 . S
C779 C780 1.403 . S
C780 C779 1.403 . S
C780 C781 1.404 . S
C780 C783 1.539 . S
C781 C777 1.408 . S
C781 C780 1.404 . S
C781 H793 0.930 . S
C782 C778 1.524 . S
C782 H794 0.956 . S
C782 H795 0.961 . S
C782 H796 0.961 . S
C783 C780 1.539 . S
C783 H797 0.958 . S
C783 H798 0.961 . S
C783 H799 0.960 . S
H784 C768 0.931 . S
H785 C773 0.929 . S
H786 C774 0.960 . S
H787 C774 0.962 . S
H788 C774 0.960 . S
H789 C775 0.961 . S
H790 C775 0.961 . S
H791 C775 0.961 . S
H792 C776 0.931 . S
H793 C781 0.930 . S
H794 C782 0.956 . S
H795 C782 0.961 . S
H796 C782 0.961 . S
H797 C783 0.958 . S
H798 C783 0.961 . S
H799 C783 0.960 . S
C800 C801 1.391 . S
C800 C802 1.394 . S
C800 H816 0.931 . S
C801 C800 1.391 . S
C801 C805 1.376 . S
C802 C800 1.394 . S
C802 C803 1.369 . S
C802 C806 1.531 . S
C803 C802 1.369 . S
C803 C804 1.410 . S
C803 C811 1.503 . S
C804 C803 1.410 . S
C804 C805 1.392 . S
C804 C807 1.511 . S
C805 C801 1.376 . S
C805 C804 1.392 . S
C805 H817 0.929 . S
C806 C802 1.531 . S
C806 H818 0.960 . S
C806 H819 0.962 1_455 S
C806 H820 0.960 1_455 S
C807 C804 1.511 . S
C807 H821 0.961 . S
C807 H822 0.961 . S
C807 H823 0.961 . S
C808 C809 1.370 . S
C808 C810 1.363 . S
C808 H824 0.931 . S
C809 C808 1.370 . S
C809 C813 1.408 . S
C810 C808 1.363 . S
C810 C811 1.370 . S
C810 C814 1.524 . S
C811 C803 1.503 . S
C811 C810 1.370 . S
C811 C812 1.403 . S
C812 C811 1.403 . S
C812 C813 1.404 . S
C812 C815 1.539 . S
C813 C809 1.408 . S
C813 C812 1.404 . S
C813 H825 0.930 . S
C814 C810 1.524 . S
C814 H826 0.956 1_455 S
C814 H827 0.961 . S
C814 H828 0.971 . S
C815 C812 1.539 . S
C815 H829 0.958 . S
C815 H830 0.961 . S
C815 H831 0.960 . S
H816 C800 0.931 . S
H817 C805 0.929 . S
H818 C806 0.960 . S
H819 C806 0.962 1_655 S
H820 C806 0.960 1_655 S
H821 C807 0.961 . S
H822 C807 0.961 . S
H823 C807 0.961 . S
H824 C808 0.931 . S
H825 C813 0.930 . S
H826 C814 0.956 1_655 S
H827 C814 0.961 . S
H828 C814 0.971 . S
H829 C815 0.958 . S
H830 C815 0.961 . S
H831 C815 0.960 . S
C832 C833 1.391 . S
C832 C834 1.394 . S
C832 H848 0.931 . S
C833 C832 1.391 . S
C833 C837 1.376 . S
C834 C832 1.394 . S
C834 C835 1.369 . S
C834 C838 1.531 . S
C835 C834 1.369 . S
C835 C836 1.410 . S
C835 C843 1.503 . S
C836 C835 1.410 . S
C836 C837 1.392 . S
C836 C839 1.511 . S
C837 C833 1.376 . S
C837 C836 1.392 . S
C837 H849 0.929 . S
C838 C834 1.531 . S
C838 H850 0.960 . S
C838 H851 0.962 . S
C838 H852 0.960 . S
C839 C836 1.511 . S
C839 H853 0.961 . S
C839 H854 0.961 . S
C839 H855 0.961 . S
C840 C841 1.370 . S
C840 C842 1.363 . S
C840 H856 0.931 . S
C841 C840 1.370 . S
C841 C845 1.408 . S
C842 C840 1.363 . S
C842 C843 1.370 . S
C842 C846 1.524 . S
C843 C835 1.503 . S
C843 C842 1.370 . S
C843 C844 1.403 . S
C844 C843 1.403 . S
C844 C845 1.404 . S
C844 C847 1.539 . S
C845 C841 1.408 . S
C845 C844 1.404 . S
C845 H857 0.930 . S
C846 C842 1.524 . S
C846 H858 0.956 . S
C846 H859 0.961 . S
C846 H860 0.961 . S
C847 C844 1.539 . S
C847 H861 0.958 . S
C847 H862 0.961 . S
C847 H863 0.960 . S
H848 C832 0.931 . S
H849 C837 0.929 . S
H850 C838 0.960 . S
H851 C838 0.962 . S
H852 C838 0.960 . S
H853 C839 0.961 . S
H854 C839 0.961 . S
H855 C839 0.961 . S
H856 C840 0.931 . S
H857 C845 0.930 . S
H858 C846 0.956 . S
H859 C846 0.961 . S
H860 C846 0.961 . S
H861 C847 0.958 . S
H862 C847 0.961 . S
H863 C847 0.960 . S
C864 C865 1.391 . S
C864 C866 1.394 . S
C864 H880 0.931 . S
C865 C864 1.391 . S
C865 C869 1.376 . S
C866 C864 1.394 . S
C866 C867 1.369 . S
C866 C870 1.531 . S
C867 C866 1.369 . S
C867 C868 1.410 . S
C867 C875 1.503 . S
C868 C867 1.410 . S
C868 C869 1.392 . S
C868 C871 1.511 . S
C869 C865 1.376 . S
C869 C868 1.392 . S
C869 H881 0.929 . S
C870 C866 1.531 . S
C870 H882 0.960 . S
C870 H883 0.962 . S
C870 H884 0.960 . S
C871 C868 1.511 . S
C871 H885 0.961 . S
C871 H886 0.961 . S
C871 H887 0.961 . S
C872 C873 1.370 . S
C872 C874 1.363 . S
C872 H888 0.931 . S
C873 C872 1.370 . S
C873 C877 1.408 . S
C874 C872 1.363 . S
C874 C875 1.370 . S
C874 C878 1.524 . S
C875 C867 1.503 . S
C875 C874 1.370 . S
C875 C876 1.403 . S
C876 C875 1.403 . S
C876 C877 1.404 . S
C876 C879 1.539 . S
C877 C873 1.408 . S
C877 C876 1.404 . S
C877 H889 0.930 . S
C878 C874 1.524 . S
C878 H890 0.956 . S
C878 H891 0.961 . S
C878 H892 0.961 . S
C879 C876 1.539 . S
C879 H893 0.958 . S
C879 H894 0.961 . S
C879 H895 0.960 . S
H880 C864 0.931 . S
H881 C869 0.929 . S
H882 C870 0.960 . S
H883 C870 0.962 . S
H884 C870 0.960 . S
H885 C871 0.961 . S
H886 C871 0.961 . S
H887 C871 0.961 . S
H888 C872 0.931 . S
H889 C877 0.930 . S
H890 C878 0.956 . S
H891 C878 0.961 . S
H892 C878 0.961 . S
H893 C879 0.958 . S
H894 C879 0.961 . S
H895 C879 0.960 . S
C896 C897 1.391 . S
C896 C898 1.394 . S
C896 H912 0.931 . S
C897 C896 1.391 . S
C897 C901 1.376 . S
C898 C896 1.394 . S
C898 C899 1.369 . S
C898 C902 1.531 . S
C899 C898 1.369 . S
C899 C900 1.410 . S
C899 C907 1.503 . S
C900 C899 1.410 . S
C900 C901 1.392 . S
C900 C903 1.511 . S
C901 C897 1.376 . S
C901 C900 1.392 . S
C901 H913 0.929 . S
C902 C898 1.531 . S
C902 H914 0.960 . S
C902 H915 0.962 . S
C902 H916 0.960 . S
C903 C900 1.511 . S
C903 H917 0.961 . S
C903 H918 0.961 . S
C903 H919 0.961 . S
C904 C905 1.370 . S
C904 C906 1.363 . S
C904 H920 0.931 . S
C905 C904 1.370 . S
C905 C909 1.408 . S
C906 C904 1.363 . S
C906 C907 1.370 . S
C906 C910 1.524 . S
C907 C899 1.503 . S
C907 C906 1.370 . S
C907 C908 1.403 . S
C908 C907 1.403 . S
C908 C909 1.404 . S
C908 C911 1.539 . S
C909 C905 1.408 . S
C909 C908 1.404 . S
C909 H921 0.930 . S
C910 C906 1.524 . S
C910 H922 0.956 . S
C910 H923 0.961 . S
C910 H924 0.961 . S
C911 C908 1.539 . S
C911 H925 0.958 . S
C911 H926 0.961 . S
C911 H927 0.960 . S
H912 C896 0.931 . S
H913 C901 0.929 . S
H914 C902 0.960 . S
H915 C902 0.962 . S
H916 C902 0.960 . S
H917 C903 0.961 . S
H918 C903 0.961 . S
H919 C903 0.961 . S
H920 C904 0.931 . S
H921 C909 0.930 . S
H922 C910 0.956 . S
H923 C910 0.961 . S
H924 C910 0.961 . S
H925 C911 0.958 . S
H926 C911 0.961 . S
H927 C911 0.960 . S
C928 C929 1.391 . S
C928 C930 1.394 . S
C928 H944 0.931 . S
C929 C928 1.391 . S
C929 C933 1.376 . S
C930 C928 1.394 . S
C930 C931 1.369 . S
C930 C934 1.531 . S
C931 C930 1.369 . S
C931 C932 1.410 . S
C931 C939 1.503 . S
C932 C931 1.410 . S
C932 C933 1.392 . S
C932 C935 1.511 . S
C933 C929 1.376 . S
C933 C932 1.392 . S
C933 H945 0.929 . S
C934 C930 1.531 . S
C934 H946 0.960 . S
C934 H947 0.962 . S
C934 H948 0.960 . S
C935 C932 1.511 . S
C935 H949 0.961 . S
C935 H950 0.961 . S
C935 H951 0.961 . S
C936 C937 1.370 . S
C936 C938 1.363 . S
C936 H952 0.931 . S
C937 C936 1.370 . S
C937 C941 1.408 . S
C938 C936 1.363 . S
C938 C939 1.370 . S
C938 C942 1.524 . S
C939 C931 1.503 . S
C939 C938 1.370 . S
C939 C940 1.403 . S
C940 C939 1.403 . S
C940 C941 1.404 . S
C940 C943 1.539 . S
C941 C937 1.408 . S
C941 C940 1.404 . S
C941 H953 0.930 . S
C942 C938 1.524 . S
C942 H954 0.956 . S
C942 H955 0.961 . S
C942 H956 0.961 . S
C943 C940 1.539 . S
C943 H957 0.958 . S
C943 H958 0.961 . S
C943 H959 0.960 . S
H944 C928 0.931 . S
H945 C933 0.929 . S
H946 C934 0.960 . S
H947 C934 0.962 . S
H948 C934 0.960 . S
H949 C935 0.961 . S
H950 C935 0.961 . S
H951 C935 0.961 . S
H952 C936 0.931 . S
H953 C941 0.930 . S
H954 C942 0.956 . S
H955 C942 0.961 . S
H956 C942 0.961 . S
H957 C943 0.958 . S
H958 C943 0.961 . S
H959 C943 0.960 . S
C960 C961 1.391 . S
C960 C962 1.394 . S
C960 H976 0.931 . S
C961 C960 1.391 . S
C961 C965 1.376 . S
C962 C960 1.394 . S
C962 C963 1.369 . S
C962 C966 1.531 . S
C963 C962 1.369 . S
C963 C964 1.410 . S
C963 C971 1.503 . S
C964 C963 1.410 . S
C964 C965 1.392 . S
C964 C967 1.511 . S
C965 C961 1.376 . S
C965 C964 1.392 . S
C965 H977 0.929 . S
C966 C962 1.531 . S
C966 H978 0.960 . S
C966 H979 0.962 . S
C966 H980 0.960 . S
C967 C964 1.511 . S
C967 H981 0.961 . S
C967 H982 0.961 . S
C967 H983 0.961 . S
C968 C969 1.370 . S
C968 C970 1.363 . S
C968 H984 0.931 . S
C969 C968 1.370 . S
C969 C973 1.408 . S
C970 C968 1.363 . S
C970 C971 1.370 . S
C970 C974 1.524 . S
C971 C963 1.503 . S
C971 C970 1.370 . S
C971 C972 1.403 . S
C972 C971 1.403 . S
C972 C973 1.404 . S
C972 C975 1.539 . S
C973 C969 1.408 . S
C973 C972 1.404 . S
C973 H985 0.930 . S
C974 C970 1.524 . S
C974 H986 0.956 . S
C974 H987 0.961 . S
C974 H988 0.961 . S
C975 C972 1.539 . S
C975 H989 0.958 . S
C975 H990 0.961 . S
C975 H991 0.960 . S
H976 C960 0.931 . S
H977 C965 0.929 . S
H978 C966 0.960 . S
H979 C966 0.962 . S
H980 C966 0.960 . S
H981 C967 0.961 . S
H982 C967 0.961 . S
H983 C967 0.961 . S
H984 C968 0.931 . S
H985 C973 0.930 . S
H986 C974 0.956 . S
H987 C974 0.961 . S
H988 C974 0.961 . S
H989 C975 0.958 . S
H990 C975 0.961 . S
H991 C975 0.960 . S
C992 C993 1.391 . S
C992 C994 1.394 . S
C992 H1008 0.931 . S
C993 C992 1.391 . S
C993 C997 1.376 . S
C994 C992 1.394 . S
C994 C995 1.369 . S
C994 C998 1.531 . S
C995 C994 1.369 . S
C995 C996 1.410 . S
C995 C1003 1.503 . S
C996 C995 1.410 . S
C996 C997 1.392 . S
C996 C999 1.511 . S
C997 C993 1.376 . S
C997 C996 1.392 . S
C997 H1009 0.929 . S
C998 C994 1.531 . S
C998 H1010 0.960 . S
C998 H1011 0.962 . S
C998 H1012 0.960 . S
C999 C996 1.511 . S
C999 H1013 0.961 . S
C999 H1014 0.961 . S
C999 H1015 0.961 . S
C1000 C1001 1.370 . S
C1000 C1002 1.363 . S
C1000 H1016 0.931 . S
C1001 C1000 1.370 . S
C1001 C1005 1.408 . S
C1002 C1000 1.363 . S
C1002 C1003 1.370 . S
C1002 C1006 1.524 . S
C1003 C995 1.503 . S
C1003 C1002 1.370 . S
C1003 C1004 1.403 . S
C1004 C1003 1.403 . S
C1004 C1005 1.404 . S
C1004 C1007 1.539 . S
C1005 C1001 1.408 . S
C1005 C1004 1.404 . S
C1005 H1017 0.930 . S
C1006 C1002 1.524 . S
C1006 H1018 0.956 . S
C1006 H1019 0.961 . S
C1006 H1020 0.961 . S
C1007 C1004 1.539 . S
C1007 H1021 0.958 . S
C1007 H1022 0.961 . S
C1007 H1023 0.960 . S
H1008 C992 0.931 . S
H1009 C997 0.929 . S
H1010 C998 0.960 . S
H1011 C998 0.962 . S
H1012 C998 0.960 . S
H1013 C999 0.961 . S
H1014 C999 0.961 . S
H1015 C999 0.961 . S
H1016 C1000 0.931 . S
H1017 C1005 0.930 . S
H1018 C1006 0.956 . S
H1019 C1006 0.961 . S
H1020 C1006 0.961 . S
H1021 C1007 0.958 . S
H1022 C1007 0.961 . S
H1023 C1007 0.960 . S
C1024 C1025 1.391 . S
C1024 C1026 1.394 . S
C1024 H1040 0.931 . S
C1025 C1024 1.391 . S
C1025 C1029 1.376 . S
C1026 C1024 1.394 . S
C1026 C1027 1.369 . S
C1026 C1030 1.531 . S
C1027 C1026 1.369 . S
C1027 C1028 1.410 . S
C1027 C1035 1.503 . S
C1028 C1027 1.410 . S
C1028 C1029 1.392 . S
C1028 C1031 1.511 . S
C1029 C1025 1.376 . S
C1029 C1028 1.392 . S
C1029 H1041 0.929 . S
C1030 C1026 1.531 . S
C1030 H1042 0.960 . S
C1030 H1043 0.962 . S
C1030 H1044 0.960 . S
C1031 C1028 1.511 . S
C1031 H1045 0.961 . S
C1031 H1046 0.961 . S
C1031 H1047 0.961 . S
C1032 C1033 1.370 . S
C1032 C1034 1.363 . S
C1032 H1048 0.931 . S
C1033 C1032 1.370 . S
C1033 C1037 1.408 . S
C1034 C1032 1.363 . S
C1034 C1035 1.370 . S
C1034 C1038 1.524 . S
C1035 C1027 1.503 . S
C1035 C1034 1.370 . S
C1035 C1036 1.403 . S
C1036 C1035 1.403 . S
C1036 C1037 1.404 . S
C1036 C1039 1.539 . S
C1037 C1033 1.408 . S
C1037 C1036 1.404 . S
C1037 H1049 0.930 . S
C1038 C1034 1.524 . S
C1038 H1050 0.956 . S
C1038 H1051 0.961 . S
C1038 H1052 0.961 . S
C1039 C1036 1.539 . S
C1039 H1053 0.958 . S
C1039 H1054 0.961 . S
C1039 H1055 0.960 . S
H1040 C1024 0.931 . S
H1041 C1029 0.929 . S
H1042 C1030 0.960 . S
H1043 C1030 0.962 . S
H1044 C1030 0.960 . S
H1045 C1031 0.961 . S
H1046 C1031 0.961 . S
H1047 C1031 0.961 . S
H1048 C1032 0.931 . S
H1049 C1037 0.930 . S
H1050 C1038 0.956 . S
H1051 C1038 0.961 . S
H1052 C1038 0.961 . S
H1053 C1039 0.958 . S
H1054 C1039 0.961 . S
H1055 C1039 0.960 . S
C1056 C1057 1.391 . S
C1056 C1058 1.394 . S
C1056 H1072 0.931 . S
C1057 C1056 1.391 . S
C1057 C1061 1.376 . S
C1058 C1056 1.394 . S
C1058 C1059 1.369 . S
C1058 C1062 1.531 . S
C1059 C1058 1.369 . S
C1059 C1060 1.410 . S
C1059 C1067 1.503 . S
C1060 C1059 1.410 . S
C1060 C1061 1.392 . S
C1060 C1063 1.511 . S
C1061 C1057 1.376 . S
C1061 C1060 1.392 . S
C1061 H1073 0.929 . S
C1062 C1058 1.531 . S
C1062 H1074 0.960 . S
C1062 H1075 0.962 . S
C1062 H1076 0.960 . S
C1063 C1060 1.511 . S
C1063 H1077 0.961 . S
C1063 H1078 0.961 . S
C1063 H1079 0.961 . S
C1064 C1065 1.370 . S
C1064 C1066 1.363 . S
C1064 H1080 0.931 . S
C1065 C1064 1.370 . S
C1065 C1069 1.408 . S
C1066 C1064 1.363 . S
C1066 C1067 1.370 . S
C1066 C1070 1.524 . S
C1067 C1059 1.503 . S
C1067 C1066 1.370 . S
C1067 C1068 1.403 . S
C1068 C1067 1.403 . S
C1068 C1069 1.404 . S
C1068 C1071 1.539 . S
C1069 C1065 1.408 . S
C1069 C1068 1.404 . S
C1069 H1081 0.930 . S
C1070 C1066 1.524 . S
C1070 H1082 0.956 . S
C1070 H1083 0.961 . S
C1070 H1084 0.961 . S
C1071 C1068 1.539 . S
C1071 H1085 0.958 . S
C1071 H1086 0.961 . S
C1071 H1087 0.960 . S
H1072 C1056 0.931 . S
H1073 C1061 0.929 . S
H1074 C1062 0.960 . S
H1075 C1062 0.962 . S
H1076 C1062 0.960 . S
H1077 C1063 0.961 . S
H1078 C1063 0.961 . S
H1079 C1063 0.961 . S
H1080 C1064 0.931 . S
H1081 C1069 0.930 . S
H1082 C1070 0.956 . S
H1083 C1070 0.961 . S
H1084 C1070 0.961 . S
H1085 C1071 0.958 . S
H1086 C1071 0.961 . S
H1087 C1071 0.960 . S
C1088 C1089 1.391 . S
C1088 C1090 1.394 . S
C1088 H1104 0.931 . S
C1089 C1088 1.391 . S
C1089 C1093 1.376 . S
C1090 C1088 1.394 . S
C1090 C1091 1.369 . S
C1090 C1094 1.531 . S
C1091 C1090 1.369 . S
C1091 C1092 1.410 . S
C1091 C1099 1.503 . S
C1092 C1091 1.410 . S
C1092 C1093 1.392 . S
C1092 C1095 1.511 . S
C1093 C1089 1.376 . S
C1093 C1092 1.392 . S
C1093 H1105 0.929 . S
C1094 C1090 1.531 . S
C1094 H1106 0.960 . S
C1094 H1107 0.962 . S
C1094 H1108 0.960 . S
C1095 C1092 1.511 . S
C1095 H1109 0.961 . S
C1095 H1110 0.961 . S
C1095 H1111 0.961 . S
C1096 C1097 1.370 . S
C1096 C1098 1.363 . S
C1096 H1112 0.931 . S
C1097 C1096 1.370 . S
C1097 C1101 1.408 . S
C1098 C1096 1.363 . S
C1098 C1099 1.370 . S
C1098 C1102 1.524 . S
C1099 C1091 1.503 . S
C1099 C1098 1.370 . S
C1099 C1100 1.403 . S
C1100 C1099 1.403 . S
C1100 C1101 1.404 . S
C1100 C1103 1.539 . S
C1101 C1097 1.408 . S
C1101 C1100 1.404 . S
C1101 H1113 0.930 . S
C1102 C1098 1.524 . S
C1102 H1114 0.956 . S
C1102 H1115 0.961 . S
C1102 H1116 0.961 . S
C1103 C1100 1.539 . S
C1103 H1117 0.958 . S
C1103 H1118 0.961 . S
C1103 H1119 0.960 . S
H1104 C1088 0.931 . S
H1105 C1093 0.929 . S
H1106 C1094 0.960 . S
H1107 C1094 0.962 . S
H1108 C1094 0.960 . S
H1109 C1095 0.961 . S
H1110 C1095 0.961 . S
H1111 C1095 0.961 . S
H1112 C1096 0.931 . S
H1113 C1101 0.930 . S
H1114 C1102 0.956 . S
H1115 C1102 0.961 . S
H1116 C1102 0.961 . S
H1117 C1103 0.958 . S
H1118 C1103 0.961 . S
H1119 C1103 0.960 . S
C1120 C1121 1.391 . S
C1120 C1122 1.394 . S
C1120 H1136 0.931 . S
C1121 C1120 1.391 . S
C1121 C1125 1.376 . S
C1122 C1120 1.394 . S
C1122 C1123 1.369 . S
C1122 C1126 1.531 . S
C1123 C1122 1.369 . S
C1123 C1124 1.410 . S
C1123 C1131 1.503 . S
C1124 C1123 1.410 . S
C1124 C1125 1.392 . S
C1124 C1127 1.511 . S
C1125 C1121 1.376 . S
C1125 C1124 1.392 . S
C1125 H1137 0.929 . S
C1126 C1122 1.531 . S
C1126 H1138 0.960 . S
C1126 H1139 0.962 . S
C1126 H1140 0.960 . S
C1127 C1124 1.511 . S
C1127 H1141 0.961 . S
C1127 H1142 0.961 . S
C1127 H1143 0.961 . S
C1128 C1129 1.370 . S
C1128 C1130 1.363 . S
C1128 H1144 0.931 . S
C1129 C1128 1.370 . S
C1129 C1133 1.408 . S
C1130 C1128 1.363 . S
C1130 C1131 1.370 . S
C1130 C1134 1.524 . S
C1131 C1123 1.503 . S
C1131 C1130 1.370 . S
C1131 C1132 1.403 . S
C1132 C1131 1.403 . S
C1132 C1133 1.404 . S
C1132 C1135 1.539 . S
C1133 C1129 1.408 . S
C1133 C1132 1.404 . S
C1133 H1145 0.930 . S
C1134 C1130 1.524 . S
C1134 H1146 0.956 . S
C1134 H1147 0.961 . S
C1134 H1148 0.961 . S
C1135 C1132 1.539 . S
C1135 H1149 0.958 . S
C1135 H1150 0.961 . S
C1135 H1151 0.960 . S
H1136 C1120 0.931 . S
H1137 C1125 0.929 . S
H1138 C1126 0.960 . S
H1139 C1126 0.962 . S
H1140 C1126 0.960 . S
H1141 C1127 0.961 . S
H1142 C1127 0.961 . S
H1143 C1127 0.961 . S
H1144 C1128 0.931 . S
H1145 C1133 0.930 . S
H1146 C1134 0.956 . S
H1147 C1134 0.961 . S
H1148 C1134 0.961 . S
H1149 C1135 0.958 . S
H1150 C1135 0.961 . S
H1151 C1135 0.960 . S
C1152 C1153 1.391 . S
C1152 C1154 1.394 . S
C1152 H1168 0.931 . S
C1153 C1152 1.391 . S
C1153 C1157 1.376 . S
C1154 C1152 1.394 . S
C1154 C1155 1.369 . S
C1154 C1158 1.531 . S
C1155 C1154 1.369 . S
C1155 C1156 1.410 . S
C1155 C1163 1.503 . S
C1156 C1155 1.410 . S
C1156 C1157 1.392 . S
C1156 C1159 1.511 . S
C1157 C1153 1.376 . S
C1157 C1156 1.392 . S
C1157 H1169 0.929 . S
C1158 C1154 1.531 . S
C1158 H1170 0.960 . S
C1158 H1171 0.962 . S
C1158 H1172 0.960 . S
C1159 C1156 1.511 . S
C1159 H1173 0.961 . S
C1159 H1174 0.961 . S
C1159 H1175 0.961 . S
C1160 C1161 1.370 . S
C1160 C1162 1.363 . S
C1160 H1176 0.931 . S
C1161 C1160 1.370 . S
C1161 C1165 1.408 . S
C1162 C1160 1.363 . S
C1162 C1163 1.370 . S
C1162 C1166 1.524 . S
C1163 C1155 1.503 . S
C1163 C1162 1.370 . S
C1163 C1164 1.403 . S
C1164 C1163 1.403 . S
C1164 C1165 1.404 . S
C1164 C1167 1.539 . S
C1165 C1161 1.408 . S
C1165 C1164 1.404 . S
C1165 H1177 0.930 . S
C1166 C1162 1.524 . S
C1166 H1178 0.956 . S
C1166 H1179 0.961 . S
C1166 H1180 0.961 . S
C1167 C1164 1.539 . S
C1167 H1181 0.958 . S
C1167 H1182 0.961 . S
C1167 H1183 0.960 . S
H1168 C1152 0.931 . S
H1169 C1157 0.929 . S
H1170 C1158 0.960 . S
H1171 C1158 0.962 . S
H1172 C1158 0.960 . S
H1173 C1159 0.961 . S
H1174 C1159 0.961 . S
H1175 C1159 0.961 . S
H1176 C1160 0.931 . S
H1177 C1165 0.930 . S
H1178 C1166 0.956 . S
H1179 C1166 0.961 . S
H1180 C1166 0.961 . S
H1181 C1167 0.958 . S
H1182 C1167 0.961 . S
H1183 C1167 0.960 . S
C1184 C1185 1.391 . S
C1184 C1186 1.394 . S
C1184 H1200 0.931 . S
C1185 C1184 1.391 . S
C1185 C1189 1.376 . S
C1186 C1184 1.394 . S
C1186 C1187 1.369 . S
C1186 C1190 1.531 . S
C1187 C1186 1.369 . S
C1187 C1188 1.410 . S
C1187 C1195 1.503 . S
C1188 C1187 1.410 . S
C1188 C1189 1.392 . S
C1188 C1191 1.511 . S
C1189 C1185 1.376 . S
C1189 C1188 1.392 . S
C1189 H1201 0.929 . S
C1190 C1186 1.531 . S
C1190 H1202 0.960 . S
C1190 H1203 0.962 . S
C1190 H1204 0.960 . S
C1191 C1188 1.511 . S
C1191 H1205 0.961 . S
C1191 H1206 0.961 . S
C1191 H1207 0.961 . S
C1192 C1193 1.370 . S
C1192 C1194 1.363 . S
C1192 H1208 0.931 . S
C1193 C1192 1.370 . S
C1193 C1197 1.408 . S
C1194 C1192 1.363 . S
C1194 C1195 1.370 . S
C1194 C1198 1.524 . S
C1195 C1187 1.503 . S
C1195 C1194 1.370 . S
C1195 C1196 1.403 . S
C1196 C1195 1.403 . S
C1196 C1197 1.404 . S
C1196 C1199 1.539 1_655 S
C1197 C1193 1.408 . S
C1197 C1196 1.404 . S
C1197 H1209 0.930 1_655 S
C1198 C1194 1.524 . S
C1198 H1210 0.956 . S
C1198 H1211 0.961 . S
C1198 H1212 0.961 . S
C1199 C1196 1.539 1_455 S
C1199 H1213 0.958 . S
C1199 H1214 0.961 . S
C1199 H1215 0.960 . S
H1200 C1184 0.931 . S
H1201 C1189 0.929 . S
H1202 C1190 0.960 . S
H1203 C1190 0.962 . S
H1204 C1190 0.960 . S
H1205 C1191 0.961 . S
H1206 C1191 0.961 . S
H1207 C1191 0.961 . S
H1208 C1192 0.931 . S
H1209 C1197 0.930 1_455 S
H1210 C1198 0.956 . S
H1211 C1198 0.961 . S
H1212 C1198 0.961 . S
H1213 C1199 0.958 . S
H1214 C1199 0.961 . S
H1215 C1199 0.960 . S
C1216 C1217 1.391 . S
C1216 C1218 1.394 . S
C1216 H1232 0.931 . S
C1217 C1216 1.391 . S
C1217 C1221 1.376 . S
C1218 C1216 1.394 . S
C1218 C1219 1.369 . S
C1218 C1222 1.531 . S
C1219 C1218 1.369 . S
C1219 C1220 1.410 . S
C1219 C1227 1.503 . S
C1220 C1219 1.410 . S
C1220 C1221 1.392 . S
C1220 C1223 1.511 . S
C1221 C1217 1.376 . S
C1221 C1220 1.392 . S
C1221 H1233 0.929 . S
C1222 C1218 1.531 . S
C1222 H1234 0.960 . S
C1222 H1235 0.962 . S
C1222 H1236 0.960 . S
C1223 C1220 1.511 . S
C1223 H1237 0.961 . S
C1223 H1238 0.961 . S
C1223 H1239 0.961 . S
C1224 C1225 1.370 . S
C1224 C1226 1.363 . S
C1224 H1240 0.931 . S
C1225 C1224 1.370 . S
C1225 C1229 1.408 . S
C1226 C1224 1.363 . S
C1226 C1227 1.370 . S
C1226 C1230 1.524 . S
C1227 C1219 1.503 . S
C1227 C1226 1.370 . S
C1227 C1228 1.403 . S
C1228 C1227 1.403 . S
C1228 C1229 1.404 . S
C1228 C1231 1.539 . S
C1229 C1225 1.408 . S
C1229 C1228 1.404 . S
C1229 H1241 0.930 . S
C1230 C1226 1.524 . S
C1230 H1242 0.956 . S
C1230 H1243 0.961 . S
C1230 H1244 0.961 . S
C1231 C1228 1.539 . S
C1231 H1245 0.958 . S
C1231 H1246 0.961 . S
C1231 H1247 0.960 . S
H1232 C1216 0.931 . S
H1233 C1221 0.929 . S
H1234 C1222 0.960 . S
H1235 C1222 0.962 . S
H1236 C1222 0.960 . S
H1237 C1223 0.961 . S
H1238 C1223 0.961 . S
H1239 C1223 0.961 . S
H1240 C1224 0.931 . S
H1241 C1229 0.930 . S
H1242 C1230 0.956 . S
H1243 C1230 0.961 . S
H1244 C1230 0.961 . S
H1245 C1231 0.958 . S
H1246 C1231 0.961 . S
H1247 C1231 0.960 . S
C1248 C1249 1.391 . S
C1248 C1250 1.394 . S
C1248 H1264 0.931 . S
C1249 C1248 1.391 . S
C1249 C1253 1.376 . S
C1250 C1248 1.394 . S
C1250 C1251 1.369 . S
C1250 C1254 1.531 . S
C1251 C1250 1.369 . S
C1251 C1252 1.410 . S
C1251 C1259 1.503 . S
C1252 C1251 1.410 . S
C1252 C1253 1.392 . S
C1252 C1255 1.511 . S
C1253 C1249 1.376 . S
C1253 C1252 1.392 . S
C1253 H1265 0.929 . S
C1254 C1250 1.531 . S
C1254 H1266 0.960 . S
C1254 H1267 0.962 . S
C1254 H1268 0.960 . S
C1255 C1252 1.511 . S
C1255 H1269 0.961 . S
C1255 H1270 0.961 . S
C1255 H1271 0.961 . S
C1256 C1257 1.370 . S
C1256 C1258 1.363 . S
C1256 H1272 0.931 . S
C1257 C1256 1.370 . S
C1257 C1261 1.408 . S
C1258 C1256 1.363 . S
C1258 C1259 1.370 . S
C1258 C1262 1.524 . S
C1259 C1251 1.503 . S
C1259 C1258 1.370 . S
C1259 C1260 1.403 . S
C1260 C1259 1.403 . S
C1260 C1261 1.404 . S
C1260 C1263 1.539 . S
C1261 C1257 1.408 . S
C1261 C1260 1.404 . S
C1261 H1273 0.930 . S
C1262 C1258 1.524 . S
C1262 H1274 0.956 . S
C1262 H1275 0.961 . S
C1262 H1276 0.961 . S
C1263 C1260 1.539 . S
C1263 H1277 0.958 . S
C1263 H1278 0.961 . S
C1263 H1279 0.960 . S
H1264 C1248 0.931 . S
H1265 C1253 0.929 . S
H1266 C1254 0.960 . S
H1267 C1254 0.962 . S
H1268 C1254 0.960 . S
H1269 C1255 0.961 . S
H1270 C1255 0.961 . S
H1271 C1255 0.961 . S
H1272 C1256 0.931 . S
H1273 C1261 0.930 . S
H1274 C1262 0.956 . S
H1275 C1262 0.961 . S
H1276 C1262 0.961 . S
H1277 C1263 0.958 . S
H1278 C1263 0.961 . S
H1279 C1263 0.960 . S
C1280 C1281 1.391 . S
C1280 C1282 1.394 . S
C1280 H1296 0.931 . S
C1281 C1280 1.391 . S
C1281 C1285 1.376 . S
C1282 C1280 1.394 . S
C1282 C1283 1.369 . S
C1282 C1286 1.531 . S
C1283 C1282 1.369 . S
C1283 C1284 1.410 . S
C1283 C1291 1.503 . S
C1284 C1283 1.410 . S
C1284 C1285 1.392 . S
C1284 C1287 1.511 . S
C1285 C1281 1.376 . S
C1285 C1284 1.392 . S
C1285 H1297 0.929 . S
C1286 C1282 1.531 . S
C1286 H1298 0.960 . S
C1286 H1299 0.962 . S
C1286 H1300 0.960 . S
C1287 C1284 1.511 . S
C1287 H1301 0.961 . S
C1287 H1302 0.961 . S
C1287 H1303 0.961 . S
C1288 C1289 1.370 . S
C1288 C1290 1.363 . S
C1288 H1304 0.931 . S
C1289 C1288 1.370 . S
C1289 C1293 1.408 . S
C1290 C1288 1.363 . S
C1290 C1291 1.370 . S
C1290 C1294 1.524 . S
C1291 C1283 1.503 . S
C1291 C1290 1.370 . S
C1291 C1292 1.403 . S
C1292 C1291 1.403 . S
C1292 C1293 1.404 . S
C1292 C1295 1.539 . S
C1293 C1289 1.408 . S
C1293 C1292 1.404 . S
C1293 H1305 0.930 . S
C1294 C1290 1.524 . S
C1294 H1306 0.956 . S
C1294 H1307 0.961 . S
C1294 H1308 0.961 . S
C1295 C1292 1.539 . S
C1295 H1309 0.958 . S
C1295 H1310 0.961 . S
C1295 H1311 0.960 . S
H1296 C1280 0.931 . S
H1297 C1285 0.929 . S
H1298 C1286 0.960 . S
H1299 C1286 0.962 . S
H1300 C1286 0.960 . S
H1301 C1287 0.961 . S
H1302 C1287 0.961 . S
H1303 C1287 0.961 . S
H1304 C1288 0.931 . S
H1305 C1293 0.930 . S
H1306 C1294 0.956 . S
H1307 C1294 0.961 . S
H1308 C1294 0.961 . S
H1309 C1295 0.958 . S
H1310 C1295 0.961 . S
H1311 C1295 0.960 . S
C1312 C1313 1.391 . S
C1312 C1314 1.394 . S
C1312 H1328 0.931 . S
C1313 C1312 1.391 . S
C1313 C1317 1.376 . S
C1314 C1312 1.394 . S
C1314 C1315 1.369 . S
C1314 C1318 1.531 . S
C1315 C1314 1.369 . S
C1315 C1316 1.410 . S
C1315 C1323 1.503 . S
C1316 C1315 1.410 . S
C1316 C1317 1.392 . S
C1316 C1319 1.511 . S
C1317 C1313 1.376 . S
C1317 C1316 1.392 . S
C1317 H1329 0.929 . S
C1318 C1314 1.531 . S
C1318 H1330 0.960 . S
C1318 H1331 0.962 . S
C1318 H1332 0.960 . S
C1319 C1316 1.511 . S
C1319 H1333 0.961 . S
C1319 H1334 0.961 . S
C1319 H1335 0.961 . S
C1320 C1321 1.370 . S
C1320 C1322 1.363 . S
C1320 H1336 0.931 . S
C1321 C1320 1.370 . S
C1321 C1325 1.408 . S
C1322 C1320 1.363 . S
C1322 C1323 1.370 . S
C1322 C1326 1.524 . S
C1323 C1315 1.503 . S
C1323 C1322 1.370 . S
C1323 C1324 1.403 . S
C1324 C1323 1.403 . S
C1324 C1325 1.404 . S
C1324 C1327 1.539 . S
C1325 C1321 1.408 . S
C1325 C1324 1.404 . S
C1325 H1337 0.930 . S
C1326 C1322 1.524 . S
C1326 H1338 0.956 . S
C1326 H1339 0.961 . S
C1326 H1340 0.961 . S
C1327 C1324 1.539 . S
C1327 H1341 0.958 . S
C1327 H1342 0.961 . S
C1327 H1343 0.960 . S
H1328 C1312 0.931 . S
H1329 C1317 0.929 . S
H1330 C1318 0.960 . S
H1331 C1318 0.962 . S
H1332 C1318 0.960 . S
H1333 C1319 0.961 . S
H1334 C1319 0.961 . S
H1335 C1319 0.961 . S
H1336 C1320 0.931 . S
H1337 C1325 0.930 . S
H1338 C1326 0.956 . S
H1339 C1326 0.961 . S
H1340 C1326 0.961 . S
H1341 C1327 0.958 . S
H1342 C1327 0.961 . S
H1343 C1327 0.960 . S
C1344 C1345 1.391 . S
C1344 C1346 1.394 . S
C1344 H1360 0.931 . S
C1345 C1344 1.391 . S
C1345 C1349 1.376 . S
C1346 C1344 1.394 . S
C1346 C1347 1.369 . S
C1346 C1350 1.531 . S
C1347 C1346 1.369 . S
C1347 C1348 1.410 . S
C1347 C1355 1.503 . S
C1348 C1347 1.410 . S
C1348 C1349 1.392 . S
C1348 C1351 1.511 . S
C1349 C1345 1.376 . S
C1349 C1348 1.392 . S
C1349 H1361 0.929 . S
C1350 C1346 1.531 . S
C1350 H1362 0.960 . S
C1350 H1363 0.962 . S
C1350 H1364 0.960 . S
C1351 C1348 1.511 . S
C1351 H1365 0.961 . S
C1351 H1366 0.961 . S
C1351 H1367 0.961 . S
C1352 C1353 1.370 . S
C1352 C1354 1.363 . S
C1352 H1368 0.931 . S
C1353 C1352 1.370 . S
C1353 C1357 1.408 . S
C1354 C1352 1.363 . S
C1354 C1355 1.370 . S
C1354 C1358 1.524 . S
C1355 C1347 1.503 . S
C1355 C1354 1.370 . S
C1355 C1356 1.403 . S
C1356 C1355 1.403 . S
C1356 C1357 1.404 . S
C1356 C1359 1.539 . S
C1357 C1353 1.408 . S
C1357 C1356 1.404 . S
C1357 H1369 0.930 . S
C1358 C1354 1.524 . S
C1358 H1370 0.956 . S
C1358 H1371 0.961 . S
C1358 H1372 0.961 . S
C1359 C1356 1.539 . S
C1359 H1373 0.958 . S
C1359 H1374 0.961 . S
C1359 H1375 0.960 . S
H1360 C1344 0.931 . S
H1361 C1349 0.929 . S
H1362 C1350 0.960 . S
H1363 C1350 0.962 . S
H1364 C1350 0.960 . S
H1365 C1351 0.961 . S
H1366 C1351 0.961 . S
H1367 C1351 0.961 . S
H1368 C1352 0.931 . S
H1369 C1357 0.930 . S
H1370 C1358 0.956 . S
H1371 C1358 0.961 . S
H1372 C1358 0.961 . S
H1373 C1359 0.958 . S
H1374 C1359 0.961 . S
H1375 C1359 0.960 . S
C1376 C1377 1.391 . S
C1376 C1378 1.394 . S
C1376 H1392 0.931 . S
C1377 C1376 1.391 . S
C1377 C1381 1.376 . S
C1378 C1376 1.394 . S
C1378 C1379 1.369 . S
C1378 C1382 1.531 . S
C1379 C1378 1.369 . S
C1379 C1380 1.410 . S
C1379 C1387 1.503 . S
C1380 C1379 1.410 . S
C1380 C1381 1.392 . S
C1380 C1383 1.511 . S
C1381 C1377 1.376 . S
C1381 C1380 1.392 . S
C1381 H1393 0.929 . S
C1382 C1378 1.531 . S
C1382 H1394 0.960 . S
C1382 H1395 0.962 . S
C1382 H1396 0.960 . S
C1383 C1380 1.511 . S
C1383 H1397 0.961 . S
C1383 H1398 0.961 . S
C1383 H1399 0.961 . S
C1384 C1385 1.370 . S
C1384 C1386 1.363 . S
C1384 H1400 0.931 . S
C1385 C1384 1.370 . S
C1385 C1389 1.408 . S
C1386 C1384 1.363 . S
C1386 C1387 1.370 . S
C1386 C1390 1.524 . S
C1387 C1379 1.503 . S
C1387 C1386 1.370 . S
C1387 C1388 1.403 . S
C1388 C1387 1.403 . S
C1388 C1389 1.404 . S
C1388 C1391 1.539 . S
C1389 C1385 1.408 . S
C1389 C1388 1.404 . S
C1389 H1401 0.930 . S
C1390 C1386 1.524 . S
C1390 H1402 0.956 . S
C1390 H1403 0.961 . S
C1390 H1404 0.961 . S
C1391 C1388 1.539 . S
C1391 H1405 0.958 . S
C1391 H1406 0.961 . S
C1391 H1407 0.960 . S
H1392 C1376 0.931 . S
H1393 C1381 0.929 . S
H1394 C1382 0.960 . S
H1395 C1382 0.962 . S
H1396 C1382 0.960 . S
H1397 C1383 0.961 . S
H1398 C1383 0.961 . S
H1399 C1383 0.961 . S
H1400 C1384 0.931 . S
H1401 C1389 0.930 . S
H1402 C1390 0.956 . S
H1403 C1390 0.961 . S
H1404 C1390 0.961 . S
H1405 C1391 0.958 . S
H1406 C1391 0.961 . S
H1407 C1391 0.960 . S
C641 C1 1.285 . S
C649 C495 1.315 . S
C673 C80 1.262 . S
C681 C535 1.341 . S
C713 C569 2.257 . S
C705 C140 2.229 . S
C737 C211 2.641 . S
C745 C610 2.601 . S
C777 C530 1.449 . S
C769 C31 1.368 . S
C809 C490 2.192 . S
C801 C61 2.036 . S
C841 C618 1.570 . S
C833 C151 1.550 . S
C873 C579 1.839 . S
C865 C200 1.904 . S
C897 C20 1.288 . S
C905 C615 1.400 . S
C937 C538 1.990 . S
C929 C121 2.051 . S
C961 C181 2.420 . S
C969 C498 2.395 . S
C993 C91 1.610 . S
C1001 C566 1.627 . S
C1033 C486 1.323 . S
C1025 C260 1.339 . S
C1057 C320 1.332 . S
C1065 C526 1.313 . S
C1089 C361 2.199 . S
C1097 C578 2.259 . S
C1121 C451 2.642 . S
C1129 C619 2.604 . S
C1153 C271 1.387 . S
C1161 C539 1.447 . S
C1193 C499 2.191 . S
C1185 C301 2.084 . S
C1225 C609 1.562 . S
C1217 C380 1.502 . S
C1257 C570 1.822 . S
C1249 C440 1.907 . S
C1281 C241 1.237 . S
C1289 C606 1.391 . S
C1321 C529 1.997 . S
C1313 C391 2.018 . S
C1353 C489 2.402 . S
C1345 C421 2.395 . S
C1377 C331 1.610 . S
C1385 C575 1.635 . S
