# Generated by pormake.
# Topology eea, (3,6)-cn, num edge types: 1
# Building blocks:
#     Node 0, Type 0, BuildingBlock: CUQRIR_clean_linker_1, # of connection points: 3
#     Node 1, Type 0, BuildingBlock: CUQRIR_clean_linker_1, # of connection points: 3
#     Node 2, Type 0, BuildingBlock: CUQRIR_clean_linker_1, # of connection points: 3
#     Node 3, Type 0, BuildingBlock: CUQRIR_clean_linker_1, # of connection points: 3
#     Node 4, Type 0, BuildingBlock: CUQRIR_clean_linker_1, # of connection points: 3
#     Node 5, Type 0, BuildingBlock: CUQRIR_clean_linker_1, # of connection points: 3
#     Node 6, Type 0, BuildingBlock: CUQRIR_clean_linker_1, # of connection points: 3
#     Node 7, Type 0, BuildingBlock: CUQRIR_clean_linker_1, # of connection points: 3
#     Node 8, Type 0, BuildingBlock: CUQRIR_clean_linker_1, # of connection points: 3
#     Node 9, Type 0, BuildingBlock: CUQRIR_clean_linker_1, # of connection points: 3
#     Node 10, Type 0, BuildingBlock: CUQRIR_clean_linker_1, # of connection points: 3
#     Node 11, Type 0, BuildingBlock: CUQRIR_clean_linker_1, # of connection points: 3
#     Node 12, Type 0, BuildingBlock: CUQRIR_clean_linker_1, # of connection points: 3
#     Node 13, Type 0, BuildingBlock: CUQRIR_clean_linker_1, # of connection points: 3
#     Node 14, Type 0, BuildingBlock: CUQRIR_clean_linker_1, # of connection points: 3
#     Node 15, Type 0, BuildingBlock: CUQRIR_clean_linker_1, # of connection points: 3
#     Node 16, Type 0, BuildingBlock: CUQRIR_clean_linker_1, # of connection points: 3
#     Node 17, Type 0, BuildingBlock: CUQRIR_clean_linker_1, # of connection points: 3
#     Node 18, Type 1, BuildingBlock: HISSIN_clean_sbu_0, # of connection points: 6
#     Node 19, Type 1, BuildingBlock: HISSIN_clean_sbu_0, # of connection points: 6
#     Node 20, Type 1, BuildingBlock: HISSIN_clean_sbu_0, # of connection points: 6
#     Node 21, Type 1, BuildingBlock: HISSIN_clean_sbu_0, # of connection points: 6
#     Node 22, Type 1, BuildingBlock: HISSIN_clean_sbu_0, # of connection points: 6
#     Node 23, Type 1, BuildingBlock: HISSIN_clean_sbu_0, # of connection points: 6
#     Node 24, Type 1, BuildingBlock: HISSIN_clean_sbu_0, # of connection points: 6
#     Node 25, Type 1, BuildingBlock: HISSIN_clean_sbu_0, # of connection points: 6
#     Node 26, Type 1, BuildingBlock: HISSIN_clean_sbu_0, # of connection points: 6
#     Edge 27, Type (0, 1), BuildingBlock: AJUNOK_clean_linker_0, # of connection points: 2
#     Edge 28, Type (0, 1), BuildingBlock: AJUNOK_clean_linker_0, # of connection points: 2
#     Edge 29, Type (0, 1), BuildingBlock: AJUNOK_clean_linker_0, # of connection points: 2
#     Edge 30, Type (0, 1), BuildingBlock: AJUNOK_clean_linker_0, # of connection points: 2
#     Edge 31, Type (0, 1), BuildingBlock: AJUNOK_clean_linker_0, # of connection points: 2
#     Edge 32, Type (0, 1), BuildingBlock: AJUNOK_clean_linker_0, # of connection points: 2
#     Edge 33, Type (0, 1), BuildingBlock: AJUNOK_clean_linker_0, # of connection points: 2
#     Edge 34, Type (0, 1), BuildingBlock: AJUNOK_clean_linker_0, # of connection points: 2
#     Edge 35, Type (0, 1), BuildingBlock: AJUNOK_clean_linker_0, # of connection points: 2
#     Edge 36, Type (0, 1), BuildingBlock: AJUNOK_clean_linker_0, # of connection points: 2
#     Edge 37, Type (0, 1), BuildingBlock: AJUNOK_clean_linker_0, # of connection points: 2
#     Edge 38, Type (0, 1), BuildingBlock: AJUNOK_clean_linker_0, # of connection points: 2
#     Edge 39, Type (0, 1), BuildingBlock: AJUNOK_clean_linker_0, # of connection points: 2
#     Edge 40, Type (0, 1), BuildingBlock: AJUNOK_clean_linker_0, # of connection points: 2
#     Edge 41, Type (0, 1), BuildingBlock: AJUNOK_clean_linker_0, # of connection points: 2
#     Edge 42, Type (0, 1), BuildingBlock: AJUNOK_clean_linker_0, # of connection points: 2
#     Edge 43, Type (0, 1), BuildingBlock: AJUNOK_clean_linker_0, # of connection points: 2
#     Edge 44, Type (0, 1), BuildingBlock: AJUNOK_clean_linker_0, # of connection points: 2
#     Edge 45, Type (0, 1), BuildingBlock: AJUNOK_clean_linker_0, # of connection points: 2
#     Edge 46, Type (0, 1), BuildingBlock: AJUNOK_clean_linker_0, # of connection points: 2
#     Edge 47, Type (0, 1), BuildingBlock: AJUNOK_clean_linker_0, # of connection points: 2
#     Edge 48, Type (0, 1), BuildingBlock: AJUNOK_clean_linker_0, # of connection points: 2
#     Edge 49, Type (0, 1), BuildingBlock: AJUNOK_clean_linker_0, # of connection points: 2
#     Edge 50, Type (0, 1), BuildingBlock: AJUNOK_clean_linker_0, # of connection points: 2
#     Edge 51, Type (0, 1), BuildingBlock: AJUNOK_clean_linker_0, # of connection points: 2
#     Edge 52, Type (0, 1), BuildingBlock: AJUNOK_clean_linker_0, # of connection points: 2
#     Edge 53, Type (0, 1), BuildingBlock: AJUNOK_clean_linker_0, # of connection points: 2
#     Edge 54, Type (0, 1), BuildingBlock: AJUNOK_clean_linker_0, # of connection points: 2
#     Edge 55, Type (0, 1), BuildingBlock: AJUNOK_clean_linker_0, # of connection points: 2
#     Edge 56, Type (0, 1), BuildingBlock: AJUNOK_clean_linker_0, # of connection points: 2
#     Edge 57, Type (0, 1), BuildingBlock: AJUNOK_clean_linker_0, # of connection points: 2
#     Edge 58, Type (0, 1), BuildingBlock: AJUNOK_clean_linker_0, # of connection points: 2
#     Edge 59, Type (0, 1), BuildingBlock: AJUNOK_clean_linker_0, # of connection points: 2
#     Edge 60, Type (0, 1), BuildingBlock: AJUNOK_clean_linker_0, # of connection points: 2
#     Edge 61, Type (0, 1), BuildingBlock: AJUNOK_clean_linker_0, # of connection points: 2
#     Edge 62, Type (0, 1), BuildingBlock: AJUNOK_clean_linker_0, # of connection points: 2
#     Edge 63, Type (0, 1), BuildingBlock: AJUNOK_clean_linker_0, # of connection points: 2
#     Edge 64, Type (0, 1), BuildingBlock: AJUNOK_clean_linker_0, # of connection points: 2
#     Edge 65, Type (0, 1), BuildingBlock: AJUNOK_clean_linker_0, # of connection points: 2
#     Edge 66, Type (0, 1), BuildingBlock: AJUNOK_clean_linker_0, # of connection points: 2
#     Edge 67, Type (0, 1), BuildingBlock: AJUNOK_clean_linker_0, # of connection points: 2
#     Edge 68, Type (0, 1), BuildingBlock: AJUNOK_clean_linker_0, # of connection points: 2
#     Edge 69, Type (0, 1), BuildingBlock: AJUNOK_clean_linker_0, # of connection points: 2
#     Edge 70, Type (0, 1), BuildingBlock: AJUNOK_clean_linker_0, # of connection points: 2
#     Edge 71, Type (0, 1), BuildingBlock: AJUNOK_clean_linker_0, # of connection points: 2
#     Edge 72, Type (0, 1), BuildingBlock: AJUNOK_clean_linker_0, # of connection points: 2
#     Edge 73, Type (0, 1), BuildingBlock: AJUNOK_clean_linker_0, # of connection points: 2
#     Edge 74, Type (0, 1), BuildingBlock: AJUNOK_clean_linker_0, # of connection points: 2
#     Edge 75, Type (0, 1), BuildingBlock: AJUNOK_clean_linker_0, # of connection points: 2
#     Edge 76, Type (0, 1), BuildingBlock: AJUNOK_clean_linker_0, # of connection points: 2
#     Edge 77, Type (0, 1), BuildingBlock: AJUNOK_clean_linker_0, # of connection points: 2
#     Edge 78, Type (0, 1), BuildingBlock: AJUNOK_clean_linker_0, # of connection points: 2
#     Edge 79, Type (0, 1), BuildingBlock: AJUNOK_clean_linker_0, # of connection points: 2
#     Edge 80, Type (0, 1), BuildingBlock: AJUNOK_clean_linker_0, # of connection points: 2
# Relax obj value: 0.109
# Max RMSD: 0.270
# Mean RMSD: 0.197
data_MOF--net-eea--node1-HISSIN_clean_sbu_0--node2-CUQRIR_clean_linker_1--edge1-AJUNOK_clean_linker_0
_symmetry_space_group_name_H-M    P1
_symmetry_Int_Tables_number       1
_symmetry_cell_setting            triclinic
loop_
_symmetry_equiv_pos_as_xyz
'x, y, z'
_cell_length_a     34.750058
_cell_length_b     35.853988
_cell_length_c     50.305328
_cell_angle_alpha  86.11944
_cell_angle_beta   92.456709
_cell_angle_gamma 119.19536
loop_
_atom_site_label
_atom_site_type_symbol
_atom_site_fract_x
_atom_site_fract_y
_atom_site_fract_z
_atom_type_partial_charge
C0 C 0.20308 0.10351 0.41191 0.0
N1 N 0.21561 0.13562 0.42873 0.0
N2 N 0.20463 0.06963 0.42446 0.0
C3 C 0.19073 0.10571 0.38304 0.0
C4 C 0.21799 0.08201 0.44957 0.0
N5 N 0.22431 0.12193 0.45225 0.0
C6 C 0.22765 0.05626 0.47106 0.0
H7 H 0.17426 0.12553 0.37993 0.0
H8 H 0.16869 0.07343 0.37581 0.0
H9 H 0.22113 0.12061 0.37097 0.0
H10 H 0.26384 0.0714 0.47434 0.0
H11 H 0.21485 0.02268 0.46578 0.0
H12 H 0.21272 0.05613 0.4901 0.0
C13 C 0.92078 0.12986 0.41605 0.0
N14 N 0.94103 0.16176 0.43324 0.0
N15 N 0.88102 0.09965 0.42532 0.0
C16 C 0.94002 0.12781 0.39029 0.0
C17 C 0.87733 0.11421 0.44864 0.0
N18 N 0.91353 0.15208 0.45349 0.0
C19 C 0.83836 0.09148 0.46686 0.0
H20 H 0.91386 0.10839 0.37592 0.0
H21 H 0.96099 0.11261 0.39443 0.0
H22 H 0.96075 0.16039 0.38111 0.0
H23 H 0.81273 0.06074 0.45915 0.0
H24 H 0.82347 0.11225 0.46927 0.0
H25 H 0.84962 0.08545 0.48686 0.0
C26 C 0.87792 0.75221 0.4021 0.0
N27 N 0.90045 0.74032 0.42022 0.0
N28 N 0.84309 0.75158 0.41352 0.0
C29 C 0.89285 0.76918 0.37403 0.0
C30 C 0.84516 0.73916 0.43923 0.0
N31 N 0.88039 0.73299 0.44344 0.0
C32 C 0.81487 0.7365 0.46069 0.0
H33 H 0.92594 0.79799 0.37453 0.0
H34 H 0.86952 0.77739 0.3629 0.0
H35 H 0.89575 0.74485 0.36313 0.0
H36 H 0.78216 0.72967 0.4524 0.0
H37 H 0.8297 0.76764 0.4702 0.0
H38 H 0.81041 0.71127 0.47623 0.0
C39 C 0.12474 0.25504 0.67181 0.0
N40 N 0.15646 0.26722 0.65331 0.0
N41 N 0.08959 0.25736 0.66116 0.0
C42 C 0.12714 0.23871 0.69991 0.0
C43 C 0.1005 0.27071 0.63546 0.0
N44 N 0.14101 0.27625 0.63054 0.0
C45 C 0.07064 0.27628 0.61488 0.0
H46 H 0.09485 0.22347 0.70996 0.0
H47 H 0.15065 0.26589 0.7117 0.0
H48 H 0.13949 0.21541 0.69989 0.0
H49 H 0.08998 0.30068 0.59903 0.0
H50 H 0.04839 0.28569 0.62398 0.0
H51 H 0.04977 0.24534 0.60561 0.0
C52 C 0.79742 0.8984 0.66546 0.0
N53 N 0.78694 0.86772 0.64787 0.0
N54 N 0.78279 0.92566 0.65655 0.0
C55 C 0.82274 0.90252 0.69114 0.0
C56 C 0.76259 0.9104 0.63309 0.0
N57 N 0.76447 0.87477 0.62794 0.0
C58 C 0.74326 0.93164 0.61437 0.0
H59 H 0.81183 0.91615 0.70641 0.0
H60 H 0.85826 0.92467 0.68751 0.0
H61 H 0.81858 0.87111 0.69897 0.0
H62 H 0.76128 0.9412 0.59525 0.0
H63 H 0.74487 0.96016 0.6228 0.0
H64 H 0.70831 0.90857 0.60996 0.0
C65 C 0.11422 0.91871 0.66177 0.0
N66 N 0.09545 0.8837 0.64694 0.0
N67 N 0.14999 0.95102 0.64938 0.0
C68 C 0.09609 0.9224 0.68748 0.0
C69 C 0.15236 0.93434 0.62654 0.0
N70 N 0.11886 0.89384 0.62484 0.0
C71 C 0.18965 0.95589 0.60702 0.0
H72 H 0.05996 0.90067 0.68851 0.0
H73 H 0.10327 0.95579 0.68964 0.0
H74 H 0.11206 0.91345 0.70438 0.0
H75 H 0.21965 0.98159 0.61624 0.0
H76 H 0.17931 0.96998 0.58974 0.0
H77 H 0.19774 0.93221 0.59943 0.0
C78 C 0.86436 0.43262 0.74639 0.0
N79 N 0.88061 0.46669 0.76184 0.0
N80 N 0.87219 0.40164 0.75791 0.0
C81 C 0.84423 0.43127 0.71916 0.0
C82 C 0.89403 0.41835 0.78078 0.0
N83 N 0.89946 0.45797 0.78304 0.0
C84 C 0.90873 0.39539 0.80142 0.0
H85 H 0.80866 0.42062 0.72129 0.0
H86 H 0.8477 0.40873 0.7067 0.0
H87 H 0.85986 0.46361 0.70896 0.0
H88 H 0.94304 0.40332 0.7972 0.0
H89 H 0.88731 0.36022 0.80099 0.0
H90 H 0.90823 0.40569 0.82166 0.0
C91 C 0.58921 0.45485 0.7502 0.0
N92 N 0.60881 0.48759 0.76693 0.0
N93 N 0.55298 0.4216 0.76139 0.0
C94 C 0.60497 0.45531 0.72266 0.0
C95 C 0.55156 0.43463 0.78575 0.0
N96 N 0.58548 0.47448 0.78935 0.0
C97 C 0.51578 0.40913 0.80577 0.0
H98 H 0.59496 0.42258 0.71679 0.0
H99 H 0.64139 0.47466 0.72154 0.0
H100 H 0.59005 0.46934 0.7081 0.0
H101 H 0.49539 0.37536 0.80044 0.0
H102 H 0.49435 0.42393 0.80676 0.0
H103 H 0.53047 0.4098 0.82586 0.0
C104 C 0.54382 0.09061 0.73771 0.0
N105 N 0.56637 0.07644 0.75419 0.0
N106 N 0.507 0.08472 0.7496 0.0
C107 C 0.56054 0.11513 0.71138 0.0
C108 C 0.50797 0.06678 0.77392 0.0
N109 N 0.54435 0.06229 0.77694 0.0
C110 C 0.4741 0.055 0.79515 0.0
H111 H 0.54665 0.1368 0.70638 0.0
H112 H 0.5505 0.09205 0.69548 0.0
H113 H 0.59704 0.13434 0.71155 0.0
H114 H 0.44273 0.05158 0.78643 0.0
H115 H 0.48683 0.08033 0.80975 0.0
H116 H 0.46781 0.02464 0.80607 0.0
C117 C 0.79311 0.60077 1.00665 0.0
N118 N 0.82514 0.6126 0.98845 0.0
N119 N 0.75958 0.60614 0.99615 0.0
C120 C 0.79198 0.57845 0.03335 0.0
C121 C 0.77207 0.62118 0.97085 0.0
N122 N 0.81168 0.6247 0.966 0.0
C123 C 0.74456 0.63094 0.95065 0.0
H124 H 0.80202 0.55378 0.03127 0.0
H125 H 0.75893 0.56306 0.04249 0.0
H126 H 0.81598 0.60224 0.047 0.0
H127 H 0.76583 0.65714 0.93622 0.0
H128 H 0.72272 0.64001 0.96066 0.0
H129 H 0.72355 0.602 0.93947 0.0
C130 C 0.46894 0.23032 0.99916 0.0
N131 N 0.45702 0.19965 0.98135 0.0
N132 N 0.46626 0.2643 0.9879 0.0
C133 C 0.48238 0.22697 1.0277 0.0
C134 C 0.45321 0.25371 0.96253 0.0
N135 N 0.44805 0.21465 0.95839 0.0
C136 C 0.44371 0.28074 0.94197 0.0
H137 H 0.45284 0.21389 0.04044 0.0
H138 H 0.50649 0.2588 0.03474 0.0
H139 H 0.49707 0.20554 0.0302 0.0
H140 H 0.45892 0.31447 0.94757 0.0
H141 H 0.4075 0.26752 0.94003 0.0
H142 H 0.4562 0.2797 0.92226 0.0
C143 C 0.7804 0.24952 0.99649 0.0
N144 N 0.76041 0.21518 0.9811 0.0
N145 N 0.81888 0.27989 0.98557 0.0
C146 C 0.76432 0.25216 1.02323 0.0
C147 C 0.82164 0.26281 0.96301 0.0
N148 N 0.78656 0.22337 0.96048 0.0
C149 C 0.85678 0.28578 0.94229 0.0
H150 H 0.74501 0.26932 1.02064 0.0
H151 H 0.79259 0.27038 0.03676 0.0
H152 H 0.74297 0.21983 0.03254 0.0
H153 H 0.88183 0.2751 0.94506 0.0
H154 H 0.87323 0.32096 0.94384 0.0
H155 H 0.84235 0.27773 0.92199 0.0
C156 C 0.54336 0.76918 0.07839 0.0
N157 N 0.56026 0.8031 0.09411 0.0
N158 N 0.54845 0.73673 0.09012 0.0
C159 C 0.51864 0.76628 0.05261 0.0
C160 C 0.56874 0.75181 0.11357 0.0
N161 N 0.57571 0.79196 0.11614 0.0
C162 C 0.58421 0.72823 0.13325 0.0
H163 H 0.50039 0.78441 0.05318 0.0
H164 H 0.49514 0.73248 0.04854 0.0
H165 H 0.54245 0.78035 0.03603 0.0
H166 H 0.59115 0.70562 0.12313 0.0
H167 H 0.55791 0.70964 0.14805 0.0
H168 H 0.61436 0.75086 0.14402 0.0
C169 C 0.2448 0.79135 0.08241 0.0
N170 N 0.2664 0.82479 0.09838 0.0
N171 N 0.20689 0.76092 0.09372 0.0
C172 C 0.26225 0.7867 0.05666 0.0
C173 C 0.20598 0.7767 0.11719 0.0
N174 N 0.24228 0.81523 0.1203 0.0
C175 C 0.16878 0.75525 0.13678 0.0
H176 H 0.25251 0.80258 0.04012 0.0
H177 H 0.24845 0.75251 0.05242 0.0
H178 H 0.29875 0.80203 0.05733 0.0
H179 H 0.13833 0.73029 0.12748 0.0
H180 H 0.16155 0.77912 0.14495 0.0
H181 H 0.17884 0.74024 0.15369 0.0
C182 C 0.2228 0.4501 0.07684 0.0
N183 N 0.24621 0.43767 0.09377 0.0
N184 N 0.18599 0.44427 0.08862 0.0
C185 C 0.23475 0.46607 0.04831 0.0
C186 C 0.18758 0.42778 0.11334 0.0
N187 N 0.22406 0.42341 0.11646 0.0
C188 C 0.15498 0.41823 0.13502 0.0
H189 H 0.25593 0.50135 0.04751 0.0
H190 H 0.20478 0.45825 0.03597 0.0
H191 H 0.25327 0.45185 0.03978 0.0
H192 H 0.13075 0.38356 0.13578 0.0
H193 H 0.13703 0.43658 0.13131 0.0
H194 H 0.17193 0.4259 0.1547 0.0
C195 C 0.4592 0.91996 0.3381 0.0
N196 N 0.49073 0.93155 0.31959 0.0
N197 N 0.42373 0.92142 0.3272 0.0
C198 C 0.46207 0.9047 0.36638 0.0
C199 C 0.43448 0.93404 0.30141 0.0
N200 N 0.47501 0.93955 0.29663 0.0
C201 C 0.40449 0.93919 0.28075 0.0
H202 H 0.46978 0.87808 0.36642 0.0
H203 H 0.43121 0.89399 0.37746 0.0
H204 H 0.48927 0.93112 0.37702 0.0
H205 H 0.38474 0.95183 0.28951 0.0
H206 H 0.38124 0.90738 0.2732 0.0
H207 H 0.42338 0.96101 0.26376 0.0
C208 C 0.12831 0.565 0.33214 0.0
N209 N 0.11734 0.53399 0.31469 0.0
N210 N 0.11339 0.59213 0.32336 0.0
C211 C 0.15384 0.56926 0.35775 0.0
C212 C 0.09268 0.57658 0.30008 0.0
N213 N 0.09439 0.54083 0.29495 0.0
C214 C 0.07211 0.5971 0.28178 0.0
H215 H 0.14348 0.58347 0.37295 0.0
H216 H 0.18939 0.59099 0.35394 0.0
H217 H 0.14932 0.53779 0.36574 0.0
H218 H 0.08506 0.60156 0.26134 0.0
H219 H 0.07839 0.62835 0.28863 0.0
H220 H 0.03597 0.5755 0.28079 0.0
C221 C 0.44859 0.59308 0.32718 0.0
N222 N 0.42747 0.55865 0.31193 0.0
N223 N 0.48199 0.62615 0.31351 0.0
C224 C 0.43783 0.5937 0.35576 0.0
C225 C 0.48035 0.61065 0.28946 0.0
N226 N 0.4471 0.56989 0.28835 0.0
C227 C 0.51283 0.63452 0.26748 0.0
H228 H 0.40158 0.57674 0.35849 0.0
H229 H 0.452 0.62662 0.36251 0.0
H230 H 0.45184 0.57683 0.36864 0.0
H231 H 0.53804 0.62396 0.26814 0.0
H232 H 0.52953 0.66958 0.26967 0.0
H233 H 0.49613 0.62734 0.24773 0.0
Eu234 Eu 0.50699 0.98497 1.00976 0.0
Eu235 Eu 0.53165 0.03256 0.0669 0.0
C236 C 0.49003 0.06306 1.01713 0.0
C237 C 0.50909 0.96771 0.93601 0.0
C238 C 0.55165 1.0024 0.93168 0.0
C239 C 0.49673 0.96436 0.88812 0.0
C240 C 0.56655 0.01803 0.90571 0.0
C241 C 0.48199 0.94861 0.91404 0.0
C242 C 0.53899 0.99959 0.88361 0.0
C243 C 0.4923 0.95167 0.96322 0.0
O244 O 0.4715 0.96938 0.07554 0.0
O245 O 0.44272 0.95691 0.03312 0.0
C246 C 0.43798 0.95012 0.05926 0.0
O247 O 0.51559 0.93955 0.039 0.0
O248 O 0.51316 0.0539 0.1014 0.0
O249 O 0.58063 0.06728 0.09732 0.0
O250 O 0.55945 0.98696 0.07007 0.0
C251 C 0.54289 0.94969 0.0594 0.0
O252 O 0.58028 0.03254 1.00909 0.0
O253 O 0.57993 0.08014 0.03701 0.0
O254 O 0.48881 0.05478 0.04309 0.0
O255 O 0.5204 0.95035 0.98079 0.0
O256 O 0.46808 0.96609 0.97286 0.0
O257 O 0.50602 0.04673 1.00117 0.0
C258 C 0.55055 0.04956 0.14047 0.0
C259 C 0.55182 0.01113 0.14536 0.0
C260 C 0.53988 0.05097 0.18767 0.0
C261 C 0.54663 0.99248 0.17121 0.0
C262 C 0.54521 0.06966 0.16182 0.0
C263 C 0.53964 0.01174 0.19256 0.0
C264 C 0.55157 0.06707 0.11304 0.0
C265 C 0.59815 0.07123 1.01788 0.0
H266 H 0.5732 0.01768 0.94837 0.0
H267 H 0.47446 0.94977 0.87158 0.0
H268 H 0.59945 0.0448 0.90294 0.0
H269 H 0.44906 0.9219 0.91695 0.0
H270 H 0.55586 0.99509 0.12909 0.0
H271 H 0.53415 0.06635 0.20369 0.0
H272 H 0.54723 0.96258 0.17442 0.0
H273 H 0.54388 0.09918 0.1584 0.0
Eu274 Eu 0.02686 0.54048 1.00453 0.0
Eu275 Eu 0.9848 0.51367 0.06518 0.0
C276 C 0.94293 0.44824 1.01939 0.0
C277 C 0.03128 0.55215 0.92924 0.0
C278 C 0.98909 0.51671 0.92666 0.0
C279 C 0.03026 0.5705 0.88193 0.0
C280 C 0.96801 0.50774 0.90177 0.0
C281 C 0.05146 0.57931 0.90683 0.0
C282 C 0.98863 0.53417 0.87904 0.0
C283 C 0.05375 0.56164 0.95535 0.0
O284 O 0.02503 0.48111 0.05978 0.0
O285 O 0.07522 0.52863 1.02938 0.0
C286 C 0.06323 0.49771 0.04795 0.0
O287 O 0.0597 0.6003 1.02793 0.0
O288 O 0.95578 0.46614 0.0984 0.0
O289 O 0.96978 0.53131 0.1025 0.0
O290 O 0.05372 0.5679 0.06939 0.0
C291 C 0.07249 0.60171 0.05299 0.0
O292 O 0.96112 0.53719 1.00213 0.0
O293 O 0.96008 0.5562 0.04439 0.0
O294 O 0.93323 0.46493 0.03878 0.0
O295 O 0.04508 0.58539 0.96983 0.0
O296 O 0.05364 0.52948 0.96927 0.0
O297 O 0.98095 0.46893 1.00704 0.0
C298 C 0.98175 0.49497 0.14064 0.0
C299 C 0.02239 0.53026 0.14722 0.0
C300 C 0.98271 0.46015 0.18382 0.0
C301 C 0.04254 0.53079 0.17203 0.0
C302 C 0.9624 0.45977 0.15906 0.0
C303 C 0.0229 0.49581 0.19074 0.0
C304 C 0.95933 0.49438 0.11477 0.0
C305 C 0.94773 0.55414 1.0192 0.0
H306 H 0.97267 0.49572 0.94384 0.0
H307 H 0.04655 0.59194 0.86491 0.0
H308 H 0.93605 0.47943 0.90017 0.0
H309 H 0.08368 0.60724 0.90857 0.0
H310 H 0.03831 0.55782 0.1334 0.0
H311 H 0.96666 0.4327 0.19771 0.0
H312 H 0.07276 0.55933 0.17685 0.0
H313 H 0.93126 0.43207 0.15439 0.0
Eu314 Eu 0.5035 0.4828 0.0745 0.0
Eu315 Eu 0.48706 0.50404 1.01051 0.0
C316 C 0.50762 0.57114 0.05553 0.0
C317 C 0.49532 0.47726 0.14975 0.0
C318 C 0.49597 0.51648 0.15163 0.0
C319 C 0.46393 0.45522 0.19417 0.0
C320 C 0.48161 0.52531 0.17473 0.0
C321 C 0.47873 0.44654 0.17108 0.0
C322 C 0.46584 0.49501 0.19644 0.0
C323 C 0.5112 0.46799 0.12555 0.0
O324 O 0.55138 0.50413 1.014 0.0
O325 O 0.57013 0.52613 0.05647 0.0
C326 C 0.58121 0.52355 0.03235 0.0
O327 O 0.50919 0.4343 0.05113 0.0
O328 O 0.50927 0.54981 0.97608 0.0
O329 O 0.45473 0.4861 0.97147 0.0
O330 O 0.46298 0.43332 1.01676 0.0
C331 C 0.48301 0.41556 0.03093 0.0
O332 O 0.43091 0.44836 0.0655 0.0
O333 O 0.4277 0.49471 0.03296 0.0
O334 O 0.5167 0.56603 0.0314 0.0
O335 O 0.48113 0.43992 0.11035 0.0
O336 O 0.54095 0.50085 0.11173 0.0
O337 O 0.49162 0.53917 0.07351 0.0
C338 C 0.50354 0.52015 0.93445 0.0
C339 C 0.50694 0.48398 0.92885 0.0
C340 C 0.54101 0.5551 0.89263 0.0
C341 C 0.52668 0.48324 0.90523 0.0
C342 C 0.52108 0.55575 0.91616 0.0
C343 C 0.54369 0.51865 0.88665 0.0
C344 C 0.48296 0.52207 0.95932 0.0
C345 C 0.40963 0.4659 0.05277 0.0
H346 H 0.508 0.54058 0.13534 0.0
H347 H 0.45103 0.4308 0.21022 0.0
H348 H 0.48384 0.55637 0.17582 0.0
H349 H 0.47732 0.41583 0.1699 0.0
H350 H 0.49419 0.45618 0.94264 0.0
H351 H 0.55453 0.5833 0.87917 0.0
H352 H 0.52788 0.4545 0.90129 0.0
H353 H 0.51942 0.58426 0.92013 0.0
Eu354 Eu 0.17658 0.32486 0.34479 0.0
Eu355 Eu 0.20463 0.37474 0.40066 0.0
C356 C 0.16365 0.40649 0.35144 0.0
C357 C 0.17905 0.31049 0.27149 0.0
C358 C 0.18765 0.35242 0.26449 0.0
C359 C 0.20413 0.30678 0.22783 0.0
C360 C 0.20367 0.37111 0.2392 0.0
C361 C 0.18779 0.28799 0.25308 0.0
C362 C 0.21217 0.34855 0.22052 0.0
C363 C 0.16435 0.29134 0.29856 0.0
O364 O 0.13071 0.33138 0.40259 0.0
O365 O 0.12342 0.28063 0.37412 0.0
C366 C 0.10846 0.29275 0.39361 0.0
O367 O 0.21726 0.30138 0.36943 0.0
O368 O 0.19273 0.40332 0.43435 0.0
O369 O 0.25402 0.40176 0.43208 0.0
O370 O 0.19808 0.30981 0.41027 0.0
C371 C 0.21163 0.29062 0.39496 0.0
O372 O 0.23452 0.38958 0.33515 0.0
O373 O 0.26684 0.40049 0.37631 0.0
O374 O 0.19301 0.41857 0.37098 0.0
O375 O 0.19592 0.29571 0.31513 0.0
O376 O 0.1353 0.29853 0.30949 0.0
O377 O 0.14579 0.36788 0.34248 0.0
C378 C 0.22228 0.38895 0.47448 0.0
C379 C 0.22135 0.3495 0.47978 0.0
C380 C 0.20835 0.39006 0.52126 0.0
C381 C 0.21388 0.33047 0.50558 0.0
C382 C 0.21614 0.40926 0.49545 0.0
C383 C 0.20651 0.35016 0.52654 0.0
C384 C 0.22833 0.40821 0.44706 0.0
C385 C 0.26916 0.40957 0.35048 0.0
H386 H 0.18183 0.37069 0.27856 0.0
H387 H 0.2103 0.28853 0.21395 0.0
H388 H 0.20824 0.40283 0.23408 0.0
H389 H 0.18212 0.25589 0.25827 0.0
H390 H 0.22597 0.33311 0.46393 0.0
H391 H 0.20243 0.40584 0.53696 0.0
H392 H 0.21343 0.30011 0.50907 0.0
H393 H 0.21662 0.43961 0.49177 0.0
Eu394 Eu 0.70809 0.87749 0.33485 0.0
Eu395 Eu 0.6659 0.85218 0.39533 0.0
C396 C 0.61866 0.78855 0.34889 0.0
C397 C 0.71453 0.89093 0.25992 0.0
C398 C 0.6719 0.886 0.2575 0.0
C399 C 0.71236 0.87818 0.21296 0.0
C400 C 0.64956 0.87697 0.23302 0.0
C401 C 0.7348 0.88747 0.23746 0.0
C402 C 0.66932 0.87245 0.21055 0.0
C403 C 0.73693 0.89753 0.28605 0.0
O404 O 0.70112 0.81496 0.38903 0.0
O405 O 0.75399 0.8625 0.36011 0.0
C406 C 0.73971 0.83035 0.37788 0.0
O407 O 0.73989 0.93771 0.35784 0.0
O408 O 0.6363 0.8054 0.42883 0.0
O409 O 0.65261 0.87135 0.43261 0.0
O410 O 0.73559 0.9054 0.39902 0.0
C411 C 0.75346 0.93937 0.38271 0.0
O412 O 0.64424 0.87792 0.33122 0.0
O413 O 0.63964 0.89327 0.3741 0.0
O414 O 0.61188 0.80549 0.36932 0.0
O415 O 0.73273 0.92368 0.30098 0.0
O416 O 0.7319 0.86304 0.29951 0.0
O417 O 0.65665 0.80701 0.3364 0.0
C418 C 0.66235 0.83413 0.47113 0.0
C419 C 0.70184 0.86981 0.47881 0.0
C420 C 0.66191 0.7977 0.51392 0.0
C421 C 0.72065 0.86972 0.50399 0.0
C422 C 0.6429 0.79794 0.48881 0.0
C423 C 0.70083 0.83374 0.52196 0.0
C424 C 0.64084 0.83423 0.44502 0.0
C425 C 0.62839 0.89205 0.34869 0.0
H426 H 0.65549 0.88828 0.27466 0.0
H427 H 0.72799 0.87371 0.19622 0.0
H428 H 0.6164 0.87257 0.23179 0.0
H429 H 0.76752 0.8908 0.23903 0.0
H430 H 0.71783 0.89817 0.46559 0.0
H431 H 0.64578 0.76949 0.52722 0.0
H432 H 0.74987 0.89853 0.50969 0.0
H433 H 0.61259 0.76996 0.48331 0.0
Eu434 Eu 0.17292 0.81972 0.40795 0.0
Eu435 Eu 0.15505 0.84202 0.34466 0.0
C436 C 0.1767 0.90927 0.38846 0.0
C437 C 0.16463 0.80727 0.48357 0.0
C438 C 0.12399 0.80676 0.48439 0.0
C439 C 0.17536 0.82053 0.53078 0.0
C440 C 0.10919 0.81311 0.50823 0.0
C441 C 0.19001 0.81391 0.50696 0.0
C442 C 0.1348 0.82029 0.53171 0.0
C443 C 0.18116 0.80168 0.45843 0.0
O444 O 0.228 0.87648 0.35342 0.0
O445 O 0.23218 0.83021 0.38568 0.0
C446 C 0.25022 0.86034 0.36675 0.0
O447 O 0.14156 0.75814 0.38642 0.0
O448 O 0.12331 0.8215 0.30587 0.0
O449 O 0.17228 0.88775 0.31013 0.0
O450 O 0.16905 0.78718 0.3452 0.0
C451 C 0.15163 0.75418 0.3623 0.0
O452 O 0.10957 0.82116 0.40682 0.0
O453 O 0.08809 0.80066 0.36412 0.0
O454 O 0.15047 0.89094 0.3682 0.0
O455 O 0.1516 0.77466 0.44249 0.0
O456 O 0.21002 0.83648 0.44561 0.0
O457 O 0.19585 0.89066 0.40279 0.0
C458 C 0.17062 0.85833 0.26866 0.0
C459 C 0.16931 0.8209 0.26059 0.0
C460 C 0.21284 0.89646 0.22866 0.0
C461 C 0.18901 0.82117 0.23676 0.0
C462 C 0.19288 0.89614 0.25248 0.0
C463 C 0.21074 0.85882 0.22027 0.0
C464 C 0.14859 0.85836 0.2935 0.0
C465 C 0.07863 0.80276 0.38893 0.0
H466 H 0.10388 0.80191 0.46653 0.0
H467 H 0.19658 0.82732 0.54823 0.0
H468 H 0.07796 0.81299 0.50825 0.0
H469 H 0.22158 0.81473 0.5067 0.0
H470 H 0.15266 0.79117 0.27253 0.0
H471 H 0.22995 0.92625 0.21686 0.0
H472 H 0.18629 0.79144 0.23092 0.0
H473 H 0.19468 0.92555 0.2582 0.0
Eu474 Eu 0.83932 0.65554 0.67633 0.0
Eu475 Eu 0.87085 0.7043 0.73306 0.0
C476 C 0.83036 0.7383 0.6844 0.0
C477 C 0.84059 0.63798 0.60267 0.0
C478 C 0.88169 0.67478 0.59839 0.0
C479 C 0.83008 0.63223 0.55475 0.0
C480 C 0.89687 0.69017 0.57244 0.0
C481 C 0.81504 0.61678 0.58068 0.0
C482 C 0.87124 0.66907 0.55028 0.0
C483 C 0.82404 0.62161 0.62988 0.0
O484 O 0.79787 0.66034 0.73844 0.0
O485 O 0.78215 0.61466 0.7042 0.0
C486 C 0.77134 0.62522 0.7263 0.0
O487 O 0.87604 0.6275 0.70094 0.0
O488 O 0.86702 0.74136 0.76452 0.0
O489 O 0.91903 0.7243 0.76567 0.0
O490 O 0.85874 0.6373 0.74215 0.0
C491 C 0.87058 0.61716 0.72651 0.0
O492 O 0.90029 0.71891 0.66753 0.0
O493 O 0.93175 0.72446 0.70871 0.0
O494 O 0.86054 0.74926 0.70344 0.0
O495 O 0.85268 0.62106 0.64724 0.0
O496 O 0.79945 0.63533 0.63977 0.0
O497 O 0.81061 0.69981 0.67537 0.0
C498 C 0.88839 0.72285 0.8068 0.0
C499 C 0.84468 0.69882 0.81555 0.0
C500 C 0.9139 0.71105 0.8508 0.0
C501 C 0.83571 0.68124 0.84165 0.0
C502 C 0.92291 0.72907 0.82471 0.0
C503 C 0.87015 0.68645 0.85946 0.0
C504 C 0.89834 0.73924 0.77878 0.0
C505 C 0.93512 0.73558 0.68316 0.0
H506 H 0.90194 0.69179 0.61509 0.0
H507 H 0.80879 0.61602 0.53819 0.0
H508 H 0.9285 0.71878 0.5697 0.0
H509 H 0.78312 0.58855 0.58354 0.0
H510 H 0.8173 0.69326 0.8022 0.0
H511 H 0.94111 0.71578 0.86407 0.0
H512 H 0.80168 0.66368 0.8479 0.0
H513 H 0.95687 0.74731 0.81835 0.0
Eu514 Eu 0.3672 0.20453 0.66934 0.0
Eu515 Eu 0.327 0.18319 0.73064 0.0
C516 C 0.27885 0.11803 0.68383 0.0
C517 C 0.37163 0.21512 0.59431 0.0
C518 C 0.33394 0.22013 0.59183 0.0
C519 C 0.36137 0.19447 0.5485 0.0
C520 C 0.30996 0.21207 0.56786 0.0
C521 C 0.3855 0.20287 0.57239 0.0
C522 C 0.32285 0.19817 0.54611 0.0
C523 C 0.39429 0.21884 0.6202 0.0
O524 O 0.39045 0.18116 0.73235 0.0
O525 O 0.38729 0.15926 0.69042 0.0
C526 C 0.4014 0.16226 0.71516 0.0
O527 O 0.42098 0.25248 0.69542 0.0
O528 O 0.30201 0.13654 0.76447 0.0
O529 O 0.30954 0.19963 0.76771 0.0
O530 O 0.37618 0.25348 0.72728 0.0
C531 C 0.41413 0.27095 0.71502 0.0
O532 O 0.32644 0.23721 0.67071 0.0
O533 O 0.28086 0.19963 0.70618 0.0
O534 O 0.29172 0.12192 0.7089 0.0
O535 O 0.39784 0.24885 0.63508 0.0
O536 O 0.38262 0.18277 0.63385 0.0
O537 O 0.29766 0.15026 0.66623 0.0
C538 C 0.32391 0.16605 0.80656 0.0
C539 C 0.3636 0.20235 0.81316 0.0
C540 C 0.32601 0.13193 0.84976 0.0
C541 C 0.38385 0.20367 0.83802 0.0
C542 C 0.30559 0.13075 0.82497 0.0
C543 C 0.36508 0.16865 0.85678 0.0
C544 C 0.30193 0.16369 0.78037 0.0
C545 C 0.29109 0.22567 0.68473 0.0
H546 H 0.32246 0.22932 0.6086 0.0
H547 H 0.37193 0.18342 0.53223 0.0
H548 H 0.28092 0.21597 0.56652 0.0
H549 H 0.41423 0.19845 0.574 0.0
H550 H 0.37887 0.22981 0.79919 0.0
H551 H 0.31119 0.10405 0.86344 0.0
H552 H 0.41379 0.23254 0.8428 0.0
H553 H 0.27538 0.10215 0.82015 0.0
Eu554 Eu 0.83794 0.15071 0.74167 0.0
Eu555 Eu 0.82082 0.17374 0.67836 0.0
C556 C 0.83989 0.23959 0.72265 0.0
C557 C 0.8291 0.13907 0.81716 0.0
C558 C 0.81809 0.17175 0.81833 0.0
C559 C 0.80935 0.11886 0.86376 0.0
C560 C 0.80355 0.17841 0.84219 0.0
C561 C 0.82411 0.11237 0.83993 0.0
C562 C 0.7992 0.15216 0.86525 0.0
C563 C 0.84464 0.13183 0.7922 0.0
O564 O 0.89341 0.21022 0.68787 0.0
O565 O 0.89876 0.16417 0.71986 0.0
C566 C 0.91648 0.19521 0.70141 0.0
O567 O 0.80935 0.08985 0.71953 0.0
O568 O 0.79066 0.15247 0.63933 0.0
O569 O 0.83733 0.2194 0.64384 0.0
O570 O 0.83799 0.12115 0.67898 0.0
C571 C 0.82122 0.08753 0.69555 0.0
O572 O 0.77451 0.15192 0.74012 0.0
O573 O 0.75348 0.13211 0.69731 0.0
O574 O 0.81491 0.22186 0.70184 0.0
O575 O 0.8139 0.10588 0.77637 0.0
O576 O 0.87501 0.16555 0.77925 0.0
O577 O 0.85922 0.22129 0.73711 0.0
C578 C 0.8386 0.19071 0.60266 0.0
C579 C 0.84269 0.1553 0.59599 0.0
C580 C 0.87727 0.22868 0.5617 0.0
C581 C 0.86304 0.15631 0.57221 0.0
C582 C 0.8567 0.22757 0.5854 0.0
C583 C 0.87993 0.19274 0.55446 0.0
C584 C 0.81515 0.18967 0.6271 0.0
C585 C 0.74371 0.13401 0.72209 0.0
H586 H 0.82134 0.1925 0.80088 0.0
H587 H 0.80637 0.09811 0.88114 0.0
H588 H 0.79714 0.20502 0.84277 0.0
H589 H 0.83195 0.08667 0.83933 0.0
H590 H 0.82953 0.12647 0.60891 0.0
H591 H 0.89075 0.25763 0.54891 0.0
H592 H 0.86426 0.12795 0.56732 0.0
H593 H 0.85448 0.2555 0.59011 0.0
C594 C 0.31321 0.88525 0.06752 0.0
C595 C 0.30822 0.86229 0.09218 0.0
C596 C 0.35508 0.91355 0.05703 0.0
C597 C 0.3938 0.92079 0.07105 0.0
H598 H 0.2843 0.87934 0.05559 0.0
H599 H 0.35705 0.92944 0.03764 0.0
S600 S 0.39858 0.87095 0.13752 0.0
N601 N 0.34536 0.8498 0.13071 0.0
N602 N 0.42407 0.9045 0.112 0.0
C603 C 0.38916 0.8999 0.09652 0.0
C604 C 0.34642 0.87043 0.10688 0.0
C605 C 0.16933 0.49928 0.0689 0.0
C606 C 0.15483 0.45667 0.07792 0.0
C607 C 0.13949 0.51214 0.05843 0.0
C608 C 0.09422 0.48277 0.05709 0.0
H609 H 0.20392 0.5228 0.0703 0.0
H610 H 0.15175 0.54546 0.05209 0.0
S611 S 0.04052 0.36686 0.07651 0.0
N612 N 0.09335 0.38467 0.0834 0.0
N613 N 0.03653 0.4089 0.06451 0.0
C614 C 0.07943 0.43991 0.06577 0.0
C615 C 0.10997 0.4268 0.07603 0.0
C616 C 0.50772 0.65808 0.09473 0.0
C617 C 0.53612 0.69574 0.08008 0.0
C618 C 0.4981 0.6179 0.08638 0.0
C619 C 0.51653 0.61399 0.063 0.0
H620 H 0.49339 0.6599 0.11296 0.0
H621 H 0.47631 0.58976 0.09849 0.0
S622 S 0.59389 0.70392 1.01806 0.0
N623 N 0.58313 0.72732 0.04162 0.0
N624 N 0.56493 0.65199 1.02543 0.0
C625 C 0.54459 0.65171 0.04798 0.0
C626 C 0.55442 0.69255 0.05664 0.0
C627 C 0.83572 0.35044 1.00093 0.0
C628 C 0.84971 0.32099 0.99547 0.0
C629 C 0.86591 0.39145 1.00921 0.0
C630 C 0.91114 0.40448 1.01178 0.0
H631 H 0.80138 0.34194 0.99825 0.0
H632 H 0.85402 0.41348 1.0129 0.0
S633 S 0.96348 0.33759 1.00269 0.0
N634 N 0.91081 0.30618 0.99572 0.0
N635 N 0.96788 0.38374 1.01005 0.0
C636 C 0.92528 0.37496 1.00696 0.0
C637 C 0.89447 0.33306 0.99913 0.0
C638 C 0.68243 0.55066 0.99321 0.0
C639 C 0.71552 0.58601 1.0059 0.0
C640 C 0.63927 0.53002 1.00243 0.0
C641 C 0.62787 0.5439 1.02483 0.0
H642 H 0.69019 0.53896 0.97605 0.0
H643 H 0.61466 0.50307 0.99183 0.0
S644 S 0.70371 0.63516 0.06507 0.0
N645 N 0.73523 0.63407 0.04179 0.0
N646 N 0.65367 0.59525 0.05959 0.0
C647 C 0.66109 0.57892 0.03801 0.0
C648 C 0.70509 0.60005 1.02839 0.0
C649 C 0.48844 0.15308 0.97361 0.0
C650 C 0.45719 0.15972 0.98617 0.0
C651 C 0.49743 0.12031 0.98302 0.0
C652 C 0.47605 0.09377 1.00565 0.0
H653 H 0.50791 0.17502 0.95753 0.0
H654 H 0.52302 0.11733 0.9734 0.0
S655 S 0.38613 0.0941 0.04254 0.0
N656 N 0.40047 0.13375 1.01967 0.0
N657 N 0.41833 0.07313 0.03814 0.0
C658 C 0.44261 0.09841 1.01718 0.0
C659 C 0.43285 0.13108 1.00718 0.0
C660 C 0.71441 0.13694 0.99038 0.0
C661 C 0.7181 0.17771 0.98585 0.0
C662 C 0.67472 0.1017 0.99963 0.0
C663 C 0.63802 0.10658 1.00505 0.0
H664 H 0.74288 0.13282 0.98793 0.0
H665 H 0.67346 0.07109 1.00381 0.0
S666 S 0.62929 0.20529 0.99227 0.0
N667 N 0.68029 0.21951 0.98397 0.0
N668 N 0.60665 0.15426 1.00234 0.0
C669 C 0.64083 0.14669 0.99913 0.0
C670 C 0.68064 0.18201 0.98924 0.0
C671 C 0.89227 0.62278 1.01222 0.0
C672 C 0.86122 0.60381 0.99172 0.0
C673 C 0.92033 0.60662 1.0211 0.0
C674 C 0.91851 0.57126 1.00946 0.0
H675 H 0.89306 0.64885 1.02237 0.0
H676 H 0.94318 0.62158 0.03734 0.0
S677 S 0.84274 0.51023 0.95509 0.0
N678 N 0.8298 0.54769 0.96038 0.0
N679 N 0.88375 0.5183 0.97594 0.0
C680 C 0.88872 0.55307 0.98821 0.0
C681 C 0.85978 0.56916 0.97956 0.0
C682 C 0.51038 0.3318 1.01026 0.0
C683 C 0.4695 0.30017 1.00087 0.0
C684 C 0.51426 0.36842 1.02129 0.0
C685 C 0.47747 0.37466 1.02265 0.0
H686 H 0.53955 0.32861 1.0084 0.0
H687 H 0.5465 0.39279 1.02768 0.0
S688 S 0.36272 0.29928 1.00255 0.0
N689 N 0.39128 0.27561 0.99538 0.0
N690 N 0.39859 0.34511 1.01513 0.0
C691 C 0.43628 0.34264 1.01391 0.0
C692 C 0.43229 0.30518 1.00322 0.0
C693 C 0.15318 0.72021 0.05894 0.0
C694 C 0.17491 0.72087 0.08323 0.0
C695 C 0.1206 0.68147 0.04901 0.0
C696 C 0.10857 0.64211 0.06314 0.0
H697 H 0.16096 0.74995 0.04785 0.0
H698 H 0.10415 0.68253 0.03042 0.0
S699 S 0.15921 0.62717 0.12675 0.0
N700 N 0.18484 0.67945 0.12027 0.0
N701 N 0.12344 0.60653 0.10209 0.0
C702 C 0.13114 0.64254 0.08721 0.0
C703 C 0.16437 0.68196 0.09713 0.0
C704 C 0.32252 0.48553 0.08063 0.0
C705 C 0.28934 0.44414 0.08849 0.0
C706 C 0.36084 0.49213 0.06835 0.0
C707 C 0.36771 0.45757 0.06411 0.0
H708 H 0.31758 0.51273 0.08286 0.0
H709 H 0.38535 0.52449 0.0623 0.0
S710 S 0.29222 0.3433 0.08268 0.0
N711 N 0.26615 0.3684 0.09187 0.0
N712 N 0.33964 0.38078 0.07014 0.0
C713 C 0.3359 0.41624 0.07317 0.0
C714 C 0.29635 0.40951 0.08514 0.0
C715 C 0.57836 0.86549 0.06316 0.0
C716 C 0.56167 0.84363 0.08784 0.0
C717 C 0.57391 0.9012 0.05457 0.0
C718 C 0.55398 0.91716 0.07076 0.0
H719 H 0.59348 0.85382 0.05 0.0
H720 H 0.5851 0.91577 0.03483 0.0
S721 S 0.50745 0.87347 0.13776 0.0
N722 N 0.52525 0.8412 0.12858 0.0
N723 N 0.51949 0.91015 0.1131 0.0
C724 C 0.53952 0.89729 0.09611 0.0
C725 C 0.54288 0.86011 0.10456 0.0
C726 C 0.02007 0.18884 0.42616 0.0
C727 C 0.98521 0.19732 0.43003 0.0
C728 C 0.05984 0.21993 0.41453 0.0
C729 C 0.06692 0.26127 0.4071 0.0
H730 H 0.01526 0.15686 0.43053 0.0
H731 H 0.08495 0.21131 0.41092 0.0
S732 S 0.98794 0.30115 0.41522 0.0
N733 N 0.96128 0.25064 0.42653 0.0
N734 N 0.03714 0.31016 0.40636 0.0
C735 C 0.03368 0.27121 0.41265 0.0
C736 C 0.99261 0.23903 0.4238 0.0
C737 C 0.77253 0.7467 0.39907 0.0
C738 C 0.81808 0.77143 0.40319 0.0
C739 C 0.74729 0.7661 0.39062 0.0
C740 C 0.76718 0.81068 0.38561 0.0
H741 H 0.75647 0.71233 0.40285 0.0
H742 H 0.71204 0.74613 0.38795 0.0
S743 S 0.88535 0.88922 0.39444 0.0
N744 N 0.88199 0.84233 0.40269 0.0
N745 N 0.83486 0.87899 0.38583 0.0
C746 C 0.81286 0.83563 0.38936 0.0
C747 C 0.8383 0.81592 0.39844 0.0
C748 C 0.15679 1.00025 0.4047 0.0
C749 C 0.19873 0.03135 0.41316 0.0
C750 C 0.15006 0.96119 0.39577 0.0
C751 C 0.18492 0.95178 0.39567 0.0
H752 H 0.12898 1.00588 0.40563 0.0
H753 H 0.11711 0.93761 0.38988 0.0
S754 S 0.30151 0.02423 0.41397 0.0
N755 N 0.27597 0.05171 0.41903 0.0
N756 N 0.26325 0.97775 0.40332 0.0
C757 C 0.22715 0.98311 0.40353 0.0
C758 C 0.23408 0.02307 0.41201 0.0
C759 C 0.55976 0.67613 0.32414 0.0
C760 C 0.51537 0.66645 0.32311 0.0
C761 C 0.59309 0.71594 0.33223 0.0
C762 C 0.583 0.74708 0.34008 0.0
H763 H 0.56863 0.65273 0.31848 0.0
H764 H 0.6269 0.72215 0.33272 0.0
S765 S 0.47207 0.7382 0.33926 0.0
N766 N 0.46334 0.69193 0.32885 0.0
N767 N 0.52556 0.76601 0.34547 0.0
C768 C 0.53868 0.73772 0.33914 0.0
C769 C 0.50495 0.69758 0.33028 0.0
C770 C 0.3658 0.93452 0.343 0.0
C771 C 0.38149 0.90604 0.33891 0.0
C772 C 0.32336 0.9195 0.35273 0.0
C773 C 0.29595 0.87569 0.35916 0.0
H774 H 0.38625 0.96839 0.33811 0.0
H775 H 0.31177 0.94219 0.35504 0.0
S776 S 0.32223 0.78852 0.35166 0.0
N777 N 0.36689 0.83251 0.34144 0.0
N778 N 0.28737 0.80411 0.36073 0.0
C779 C 0.31179 0.84708 0.35576 0.0
C780 C 0.35461 0.86233 0.34535 0.0
C781 C 0.0963 0.45784 0.32291 0.0
C782 C 0.12893 0.50043 0.31745 0.0
C783 C 0.10773 0.42682 0.3329 0.0
C784 C 0.15205 0.43792 0.33831 0.0
H785 H 0.06182 0.44919 0.32096 0.0
H786 H 0.08167 0.39463 0.33779 0.0
S787 S 0.24969 0.54369 0.32345 0.0
N788 N 0.20716 0.55061 0.31462 0.0
N789 N 0.22867 0.49325 0.33462 0.0
C790 C 0.1849 0.47978 0.33136 0.0
C791 C 0.17331 0.51078 0.32052 0.0
C792 C 0.38962 0.49504 0.34295 0.0
C793 C 0.38931 0.51824 0.31932 0.0
C794 C 0.35089 0.45942 0.35263 0.0
C795 C 0.31053 0.44499 0.3387 0.0
H796 H 0.41987 0.50521 0.35437 0.0
H797 H 0.35254 0.44341 0.37135 0.0
S798 S 0.29316 0.49313 0.27463 0.0
N799 N 0.34584 0.52378 0.28186 0.0
N800 N 0.27362 0.45549 0.2989 0.0
C801 C 0.31044 0.46662 0.3142 0.0
C802 C 0.3497 0.50348 0.30476 0.0
C803 C 0.56036 0.94873 0.34316 0.0
C804 C 0.52934 0.92679 0.32321 0.0
C805 C 0.59263 0.93754 0.35135 0.0
C806 C 0.59536 0.90465 0.33938 0.0
H807 H 0.55839 0.97352 0.35319 0.0
H808 H 0.61528 0.95446 0.36726 0.0
S809 S 0.52226 0.83834 0.28568 0.0
N810 N 0.50319 0.87099 0.29173 0.0
N811 N 0.56514 0.85124 0.30586 0.0
C812 C 0.56567 0.88381 0.31852 0.0
C813 C 0.53237 0.89466 0.31068 0.0
C814 C 0.15584 0.67051 0.32214 0.0
C815 C 0.12349 0.63199 0.33408 0.0
C816 C 0.16518 0.70987 0.33172 0.0
C817 C 0.14257 0.71194 0.3537 0.0
H818 H 0.17363 0.67 0.30513 0.0
H819 H 0.19023 0.73887 0.32175 0.0
S820 S 0.05417 0.61908 0.39142 0.0
N821 N 0.06851 0.59749 0.36844 0.0
N822 N 0.08597 0.67138 0.38692 0.0
C823 C 0.11036 0.67327 0.36596 0.0
C824 C 0.10079 0.63327 0.356 0.0
C825 C 0.82593 0.05865 0.39122 0.0
C826 C 0.85104 0.05965 0.41404 0.0
C827 C 0.79521 0.0196 0.38071 0.0
C828 C 0.78829 0.9803 0.39293 0.0
H829 H 0.82976 0.08828 0.38174 0.0
H830 H 0.77595 0.02021 0.36334 0.0
S831 S 0.84849 0.96671 0.45232 0.0
N832 N 0.86907 0.01902 0.44777 0.0
N833 N 0.81115 0.94541 0.42848 0.0
C834 C 0.81407 0.98121 0.41554 0.0
C835 C 0.84548 0.02096 0.42599 0.0
C836 C 0.97959 0.78572 0.42746 0.0
C837 C 0.94495 0.7493 0.41653 0.0
C838 C 0.02276 0.80257 0.4184 0.0
C839 C 0.03258 0.78394 0.39776 0.0
H840 H 0.97273 0.80262 0.44198 0.0
H841 H 0.04838 0.83132 0.42701 0.0
S842 S 0.95388 0.68462 0.36529 0.0
N843 N 0.92347 0.6924 0.38627 0.0
N844 N 0.00466 0.72447 0.36868 0.0
C845 C 0.99847 0.74625 0.38761 0.0
C846 C 0.95465 0.72875 0.39722 0.0
C847 C 0.24318 0.20273 0.4007 0.0
C848 C 0.21855 0.17682 0.42258 0.0
C849 C 0.24185 0.24023 0.39234 0.0
C850 C 0.21648 0.25361 0.40592 0.0
H851 H 0.26272 0.19328 0.38957 0.0
H852 H 0.26029 0.25848 0.37486 0.0
S853 S 0.14768 0.1976 0.46537 0.0
N854 N 0.16886 0.16723 0.45798 0.0
N855 N 0.16766 0.23856 0.44326 0.0
C856 C 0.19337 0.2289 0.42868 0.0
C857 C 0.19416 0.19033 0.43681 0.0
C858 C 0.64879 0.5505 0.73592 0.0
C859 C 0.64714 0.52863 0.76061 0.0
C860 C 0.68897 0.58221 0.72503 0.0
C861 C 0.72879 0.59502 0.73912 0.0
H862 H 0.61899 0.54082 0.72409 0.0
H863 H 0.68898 0.59619 0.70525 0.0
S864 S 0.74188 0.55391 0.80662 0.0
N865 N 0.6887 0.52503 0.79977 0.0
N866 N 0.76358 0.58787 0.78065 0.0
C867 C 0.72713 0.57682 0.76503 0.0
C868 C 0.68642 0.54303 0.77556 0.0
C869 C 0.45348 0.09068 0.71863 0.0
C870 C 0.48053 0.10404 0.74134 0.0
C871 C 0.42829 0.11011 0.71002 0.0
C872 C 0.42942 0.14337 0.72401 0.0
H873 H 0.45188 0.06504 0.70759 0.0
H874 H 0.40736 0.09858 0.69255 0.0
S875 S 0.49865 0.19201 0.78351 0.0
N876 N 0.50979 0.15394 0.77658 0.0
N877 N 0.4619 0.19019 0.76096 0.0
C878 C 0.45712 0.15738 0.74658 0.0
C879 C 0.48289 0.13778 0.75511 0.0
C880 C 0.89815 0.35262 0.74532 0.0
C881 C 0.86355 0.3619 0.74742 0.0
C882 C 0.89017 0.31295 0.73705 0.0
C883 C 0.84744 0.28166 0.72999 0.0
H884 H 0.93154 0.37612 0.75041 0.0
H885 H 0.91763 0.30675 0.73611 0.0
S886 S 0.74555 0.29005 0.73236 0.0
N887 N 0.78498 0.33643 0.74244 0.0
N888 N 0.77011 0.26232 0.72561 0.0
C889 C 0.81268 0.29085 0.73137 0.0
C890 C 0.82071 0.33095 0.74038 0.0
C891 C 0.2008 0.99791 0.6834 0.0
C892 C 0.17952 0.99309 0.6585 0.0
C893 C 0.2321 0.0385 0.69166 0.0
C894 C 0.24372 0.07577 0.67514 0.0
H895 H 0.19398 0.96997 0.69626 0.0
H896 H 0.24812 0.04045 0.71086 0.0
S897 S 0.19474 0.07987 0.60862 0.0
N898 N 0.16946 0.02862 0.61824 0.0
N899 N 0.22968 0.10471 0.63291 0.0
C900 C 0.22186 0.07119 0.65033 0.0
C901 C 0.18943 0.02994 0.64224 0.0
C902 C 0.02025 0.19875 0.67905 0.0
C903 C 0.04768 0.24264 0.67315 0.0
C904 C 0.9783 0.18362 0.68963 0.0
C905 C 0.96251 0.21203 0.694 0.0
H906 H 0.03119 0.17615 0.67498 0.0
H907 H 0.95742 0.14946 0.6933 0.0
S908 S 0.02325 0.33007 0.68332 0.0
N909 N 0.05792 0.3144 0.67401 0.0
N910 N 0.97809 0.28601 0.69284 0.0
C911 C 0.99009 0.25605 0.68866 0.0
C912 C 0.03303 0.27139 0.67846 0.0
C913 C 0.7649 0.79156 0.65622 0.0
C914 C 0.79803 0.8339 0.65081 0.0
C915 C 0.77562 0.76017 0.6663 0.0
C916 C 0.81974 0.77062 0.67178 0.0
H917 H 0.73057 0.78341 0.65412 0.0
H918 H 0.74917 0.72814 0.67108 0.0
S919 S 0.91853 0.87545 0.65685 0.0
N920 N 0.87651 0.88327 0.64816 0.0
N921 N 0.89677 0.82492 0.66797 0.0
C922 C 0.85314 0.81222 0.66485 0.0
C923 C 0.84223 0.84369 0.65404 0.0
C924 C 0.01806 0.82886 0.63907 0.0
C925 C 0.05739 0.84317 0.65391 0.0
C926 C 0.97894 0.79287 0.64809 0.0
C927 C 0.97789 0.77014 0.67236 0.0
H928 H 0.01719 0.84673 0.62103 0.0
H929 H 0.949 0.78396 0.6365 0.0
S930 S 0.07437 0.79225 0.71645 0.0
N931 N 0.09442 0.83 0.69227 0.0
N932 N 0.02135 0.76274 0.70954 0.0
C933 C 0.01786 0.78312 0.68654 0.0
C934 C 0.05749 0.81952 0.67723 0.0
C935 C 0.22434 0.28314 0.67864 0.0
C936 C 0.19583 0.26366 0.65707 0.0
C937 C 0.25564 0.27103 0.68752 0.0
C938 C 0.26018 0.24008 0.67449 0.0
H939 H 0.22065 0.30618 0.68956 0.0
H940 H 0.2758 0.28532 0.70488 0.0
S941 S 0.19748 0.18334 0.61528 0.0
N942 N 0.17593 0.2136 0.62221 0.0
N943 N 0.23721 0.19334 0.63756 0.0
C944 C 0.23438 0.22283 0.65172 0.0
C945 C 0.20165 0.23417 0.64321 0.0
C946 C 0.77351 0.96795 0.68974 0.0
C947 C 0.79406 0.96606 0.66688 0.0
C948 C 0.78342 1.00747 0.69944 0.0
C949 C 0.81396 0.04621 0.68638 0.0
H950 H 0.74926 0.93867 0.69985 0.0
H951 H 0.76618 1.0076 0.71684 0.0
S952 S 0.87844 0.05714 0.62647 0.0
N953 N 0.84738 1.005 0.63218 0.0
N954 N 0.86626 0.07956 0.64998 0.0
C955 C 0.83541 0.04434 0.66375 0.0
C956 C 0.82537 1.00414 0.65409 0.0
C957 C 0.52663 0.35246 0.74064 0.0
C958 C 0.51889 0.38511 0.74844 0.0
C959 C 0.493 0.31618 0.72874 0.0
C960 C 0.45038 0.31112 0.72491 0.0
H961 H 0.55867 0.35478 0.74416 0.0
H962 H 0.49992 0.29128 0.72343 0.0
S963 S 0.41429 0.38871 0.74085 0.0
N964 N 0.46664 0.41132 0.75022 0.0
N965 N 0.40285 0.34247 0.72904 0.0
C966 C 0.44252 0.34382 0.73243 0.0
C967 C 0.47692 0.38099 0.74393 0.0
C968 C 0.64597 0.11554 0.76277 0.0
C969 C 0.61001 0.08381 0.74932 0.0
C970 C 0.68899 0.13127 0.75377 0.0
C971 C 0.69755 0.11621 0.73073 0.0
H972 H 0.64061 0.12999 0.77941 0.0
H973 H 0.71561 0.15651 0.76452 0.0
S974 S 0.61408 0.03059 0.68977 0.0
N975 N 0.5852 0.03582 0.71307 0.0
N976 N 0.66618 0.06556 0.69578 0.0
C977 C 0.66179 0.08335 0.71765 0.0
C978 C 0.61803 0.06703 0.72709 0.0
C979 C 0.91678 0.54299 0.74705 0.0
C980 C 0.87901 0.50564 0.75596 0.0
C981 C 0.91411 0.57948 0.73762 0.0
C982 C 0.87369 0.5796 0.73734 0.0
H983 H 0.94806 0.5433 0.74652 0.0
H984 H 0.9436 0.60755 0.73033 0.0
S985 S 0.76566 0.4895 0.75858 0.0
N986 N 0.80048 0.47074 0.76392 0.0
N987 N 0.79539 0.53938 0.74666 0.0
C988 C 0.83603 0.54269 0.74675 0.0
C989 C 0.8387 0.5056 0.75597 0.0
C990 C 0.53336 0.99455 0.26801 0.0
C991 C 0.49734 0.95325 0.2715 0.0
C992 C 0.54861 0.01262 0.24238 0.0
C993 C 0.52845 0.98973 0.21949 0.0
H994 H 0.54784 0.01387 0.28506 0.0
H995 H 0.57516 0.04534 0.24039 0.0
S996 S 0.43524 0.87865 0.21871 0.0
N997 N 0.44407 0.88869 0.25061 0.0
N998 N 0.47222 0.92231 0.20242 0.0
C999 C 0.49417 0.94726 0.22302 0.0
C1000 C 0.47873 0.92909 0.24906 0.0
C1001 C 0.03168 0.49677 0.26633 0.0
C1002 C 0.07738 0.51777 0.27107 0.0
C1003 C 0.01421 0.48721 0.24045 0.0
C1004 C 0.04191 0.49845 0.21826 0.0
H1005 H 0.00955 0.49095 0.28252 0.0
H1006 H 0.97893 0.47376 0.23768 0.0
S1007 S 0.16395 0.54791 0.22099 0.0
N1008 N 0.1498 0.54544 0.25227 0.0
N1009 N 0.11741 0.52654 0.20356 0.0
C1010 C 0.08763 0.5162 0.22317 0.0
C1011 C 0.10525 0.52595 0.24959 0.0
C1012 C 0.42382 0.54633 0.24285 0.0
C1013 C 0.44162 0.54183 0.26766 0.0
C1014 C 0.42921 0.52855 0.22024 0.0
C1015 C 0.45337 0.50628 0.22152 0.0
H1016 H 0.40802 0.56599 0.24066 0.0
H1017 H 0.41617 0.53406 0.20134 0.0
S1018 S 0.50515 0.48486 0.28251 0.0
N1019 N 0.48213 0.51212 0.29277 0.0
N1020 N 0.49363 0.47945 0.25034 0.0
C1021 C 0.46934 0.49977 0.24666 0.0
C1022 C 0.46323 0.51748 0.26969 0.0
C1023 C 0.90056 0.4907 0.82465 0.0
C1024 C 0.92336 0.48596 0.80397 0.0
C1025 C 0.92237 0.50845 0.84851 0.0
C1026 C 0.96766 0.522 0.85232 0.0
H1027 H 0.86526 0.47822 0.82293 0.0
H1028 H 0.90334 0.51007 0.86446 0.0
S1029 S 0.04184 0.51817 0.80291 0.0
N1030 N 0.99326 0.49805 0.78778 0.0
N1031 N 0.03457 0.53092 0.83252 0.0
C1032 C 0.99106 0.51939 0.83101 0.0
C1033 C 0.96879 0.50145 0.80684 0.0
C1034 C 0.60329 0.48979 0.83649 0.0
C1035 C 0.58866 0.49909 0.81171 0.0
C1036 C 0.59081 0.49853 0.86056 0.0
C1037 C 0.56274 0.51659 0.86087 0.0
H1038 H 0.62137 0.47225 0.83729 0.0
H1039 H 0.60145 0.48906 0.87912 0.0
S1040 S 0.51702 0.54846 0.80097 0.0
N1041 N 0.54672 0.52916 0.78878 0.0
N1042 N 0.52261 0.54537 0.8337 0.0
C1043 C 0.55019 0.52848 0.83606 0.0
C1044 C 0.56331 0.51981 0.81162 0.0
C1045 C 0.54624 1.00755 0.80801 0.0
C1046 C 0.55855 0.05063 0.80186 0.0
C1047 C 0.54322 0.99173 0.83462 0.0
C1048 C 0.55223 0.01852 0.85597 0.0
H1049 H 0.53514 0.98533 0.79224 0.0
H1050 H 0.53114 0.95777 0.83853 0.0
S1051 S 0.58918 0.13486 0.84974 0.0
N1052 N 0.58298 0.12041 0.8187 0.0
N1053 N 0.57719 0.09121 0.86869 0.0
C1054 C 0.56799 0.06245 0.84985 0.0
C1055 C 0.57119 0.07837 0.82279 0.0
C1056 C 0.19883 0.33242 0.60208 0.0
C1057 C 0.1633 0.29079 0.60541 0.0
C1058 C 0.21401 0.35094 0.5765 0.0
C1059 C 0.19425 0.32823 0.55349 0.0
H1060 H 0.2131 0.35152 0.61924 0.0
H1061 H 0.24043 0.38373 0.57467 0.0
S1062 S 0.10196 0.21669 0.55225 0.0
N1063 N 0.11062 0.22634 0.5842 0.0
N1064 N 0.13853 0.26079 0.53614 0.0
C1065 C 0.16019 0.28561 0.55684 0.0
C1066 C 0.14485 0.26699 0.58281 0.0
C1067 C 0.70436 0.83096 0.59768 0.0
C1068 C 0.7497 0.85302 0.6035 0.0
C1069 C 0.6888 0.8223 0.57138 0.0
C1070 C 0.71812 0.83557 0.54987 0.0
H1071 H 0.68093 0.82353 0.61338 0.0
H1072 H 0.6536 0.80792 0.56778 0.0
S1073 S 0.8402 0.8887 0.55548 0.0
N1074 N 0.82367 0.88402 0.58643 0.0
N1075 N 0.79491 0.86685 0.53692 0.0
C1076 C 0.76361 0.85447 0.55583 0.0
C1077 C 0.77928 0.8633 0.58267 0.0
C1078 C 0.1036 0.88098 0.57737 0.0
C1079 C 0.11121 0.86727 0.60288 0.0
C1080 C 0.1086 0.86363 0.55449 0.0
C1081 C 0.12164 0.832 0.55631 0.0
H1082 H 0.09667 0.90739 0.57514 0.0
H1083 H 0.10509 0.87717 0.53523 0.0
S1084 S 0.1395 0.78134 0.61899 0.0
N1085 N 0.12819 0.81783 0.62902 0.0
N1086 N 0.13673 0.7841 0.58608 0.0
C1087 C 0.12607 0.8158 0.58191 0.0
C1088 C 0.12093 0.83363 0.6052 0.0
C1089 C 0.57788 0.80147 0.16406 0.0
C1090 C 0.5962 0.81731 0.13873 0.0
C1091 C 0.60091 0.82093 0.18709 0.0
C1092 C 0.64329 0.8569 0.18561 0.0
H1093 H 0.54624 0.77267 0.166 0.0
H1094 H 0.58634 0.80628 0.20623 0.0
S1095 S 0.70346 0.91312 0.12357 0.0
N1096 N 0.65728 0.87238 0.11311 0.0
N1097 N 0.70077 0.90992 0.15643 0.0
C1098 C 0.66088 0.87446 0.16021 0.0
C1099 C 0.63723 0.85449 0.13674 0.0
C1100 C 0.26198 0.82528 0.16758 0.0
C1101 C 0.25055 0.83986 0.14346 0.0
C1102 C 0.25192 0.8342 0.19235 0.0
C1103 C 0.22937 0.85767 0.1941 0.0
H1104 H 0.27507 0.80341 0.1672 0.0
H1105 H 0.25954 0.82039 0.21025 0.0
S1106 S 0.19488 0.90549 0.13651 0.0
N1107 N 0.21854 0.88134 0.12277 0.0
N1108 N 0.19878 0.89787 0.16905 0.0
C1109 C 0.22074 0.87516 0.17007 0.0
C1110 C 0.23154 0.86633 0.14487 0.0
C1111 C 0.20615 0.35969 0.14519 0.0
C1112 C 0.23373 0.40365 0.13966 0.0
C1113 C 0.20182 0.34152 0.17119 0.0
C1114 C 0.22486 0.3668 0.1927 0.0
H1115 H 0.1848 0.34007 0.12964 0.0
H1116 H 0.1776 0.30814 0.17467 0.0
S1117 S 0.3071 0.48247 0.18762 0.0
N1118 N 0.28819 0.47112 0.15684 0.0
N1119 N 0.28139 0.43713 0.20583 0.0
C1120 C 0.2557 0.41016 0.18693 0.0
C1121 C 0.2599 0.42854 0.16036 0.0
C1122 C 0.86891 0.67631 0.93531 0.0
C1123 C 0.83258 0.63566 0.94045 0.0
C1124 C 0.8825 0.69189 0.90905 0.0
C1125 C 0.8601 0.66715 0.88716 0.0
H1126 H 0.88489 0.69712 0.95156 0.0
H1127 H 0.90903 0.72439 0.90581 0.0
S1128 S 0.76678 0.55601 0.89085 0.0
N1129 N 0.77684 0.56964 0.92213 0.0
N1130 N 0.8034 0.59772 0.87294 0.0
C1131 C 0.82579 0.62515 0.89239 0.0
C1132 C 0.81177 0.6097 0.91899 0.0
C1133 C 0.45206 0.19953 0.91206 0.0
C1134 C 0.42722 0.19119 0.93513 0.0
C1135 C 0.43155 0.18977 0.88686 0.0
C1136 C 0.38542 0.17166 0.88388 0.0
H1137 H 0.48772 0.21659 0.91335 0.0
H1138 H 0.45212 0.19835 0.86948 0.0
S1139 S 0.30607 0.14232 0.93888 0.0
N1140 N 0.35471 0.1621 0.95393 0.0
N1141 N 0.31566 0.14413 0.90681 0.0
C1142 C 0.36018 0.16091 0.90717 0.0
C1143 C 0.38122 0.1706 0.93273 0.0
C1144 C 0.81177 0.18145 0.93738 0.0
C1145 C 0.7808 0.19546 0.93965 0.0
C1146 C 0.81564 0.16507 0.91374 0.0
C1147 C 0.78875 0.16233 0.89137 0.0
H1148 H 0.83512 0.18596 0.95347 0.0
H1149 H 0.84183 0.15715 0.91246 0.0
S1150 S 0.69843 0.18971 0.88873 0.0
N1151 N 0.72018 0.20212 0.91886 0.0
N1152 N 0.72644 0.17048 0.87431 0.0
C1153 C 0.75545 0.17346 0.89414 0.0
C1154 C 0.75163 0.19013 0.91834 0.0
C1155 C 0.29052 0.17833 0.47317 0.0
C1156 C 0.24576 0.1476 0.47461 0.0
C1157 C 0.31481 0.19651 0.49627 0.0
C1158 C 0.29502 0.18452 0.52156 0.0
H1159 H 0.3073 0.18635 0.45427 0.0
H1160 H 0.34973 0.21883 0.49446 0.0
S1161 S 0.17713 0.10789 0.53502 0.0
N1162 N 0.18152 0.10842 0.50243 0.0
N1163 N 0.22682 0.14178 0.54606 0.0
C1164 C 0.24943 0.15567 0.52286 0.0
C1165 C 0.22489 0.13735 0.49931 0.0
C1166 C 0.93548 0.16561 0.50049 0.0
C1167 C 0.91897 0.17579 0.47673 0.0
C1168 C 0.92501 0.17351 0.52555 0.0
C1169 C 0.89741 0.1918 0.52783 0.0
H1170 H 0.95344 0.1481 0.49973 0.0
H1171 H 0.9368 0.16324 0.54331 0.0
S1172 S 0.84708 0.22542 0.47119 0.0
N1173 N 0.87539 0.20645 0.45692 0.0
N1174 N 0.85553 0.22145 0.50355 0.0
C1175 C 0.88307 0.20453 0.50402 0.0
C1176 C 0.89393 0.19655 0.47864 0.0
C1177 C 0.90296 0.74757 0.49016 0.0
C1178 C 0.89303 0.7209 0.46879 0.0
C1179 C 0.89906 0.73122 0.51664 0.0
C1180 C 0.88505 0.68754 0.52263 0.0
H1181 H 0.90991 0.78034 0.4863 0.0
H1182 H 0.90365 0.75222 0.53239 0.0
S1183 S 0.86373 0.6068 0.47342 0.0
N1184 N 0.8747 0.65074 0.45503 0.0
N1185 N 0.86837 0.61976 0.50476 0.0
C1186 C 0.87954 0.66172 0.50131 0.0
C1187 C 0.88348 0.67853 0.47439 0.0
loop_
_geom_bond_atom_site_label_1
_geom_bond_atom_site_label_2
_geom_bond_distance
_geom_bond_site_symmetry_2
_ccdc_geom_bond_type
C0 N1 1.317 . S
C0 N2 1.348 . S
C0 C3 1.485 . S
N1 C0 1.317 . S
N1 N5 1.370 . S
N2 C0 1.348 . S
N2 C4 1.346 . S
C3 C0 1.485 . S
C3 H7 0.960 . S
C3 H8 0.961 . S
C3 H9 0.960 . S
C4 N2 1.346 . S
C4 N5 1.307 . S
C4 C6 1.486 . S
N5 N1 1.370 . S
N5 C4 1.307 . S
C6 C4 1.486 . S
C6 H10 0.960 . S
C6 H11 0.960 . S
C6 H12 0.959 . S
H7 C3 0.960 . S
H8 C3 0.961 . S
H9 C3 0.960 . S
H10 C6 0.960 . S
H11 C6 0.960 . S
H12 C6 0.959 . S
C13 N14 1.317 . S
C13 N15 1.348 . S
C13 C16 1.485 . S
N14 C13 1.317 . S
N14 N18 1.370 . S
N15 C13 1.348 . S
N15 C17 1.346 . S
C16 C13 1.485 . S
C16 H20 0.960 . S
C16 H21 0.961 . S
C16 H22 0.960 . S
C17 N15 1.346 . S
C17 N18 1.307 . S
C17 C19 1.486 . S
N18 N14 1.370 . S
N18 C17 1.307 . S
C19 C17 1.486 . S
C19 H23 0.960 . S
C19 H24 0.960 . S
C19 H25 0.959 . S
H20 C16 0.960 . S
H21 C16 0.961 . S
H22 C16 0.960 . S
H23 C19 0.960 . S
H24 C19 0.960 . S
H25 C19 0.959 . S
C26 N27 1.317 . S
C26 N28 1.348 . S
C26 C29 1.485 . S
N27 C26 1.317 . S
N27 N31 1.370 . S
N28 C26 1.348 . S
N28 C30 1.346 . S
C29 C26 1.485 . S
C29 H33 0.960 . S
C29 H34 0.961 . S
C29 H35 0.960 . S
C30 N28 1.346 . S
C30 N31 1.307 . S
C30 C32 1.486 . S
N31 N27 1.370 . S
N31 C30 1.307 . S
C32 C30 1.486 . S
C32 H36 0.960 . S
C32 H37 0.960 . S
C32 H38 0.959 . S
H33 C29 0.960 . S
H34 C29 0.961 . S
H35 C29 0.960 . S
H36 C32 0.960 . S
H37 C32 0.960 . S
H38 C32 0.959 . S
C39 N40 1.317 . S
C39 N41 1.348 . S
C39 C42 1.485 . S
N40 C39 1.317 . S
N40 N44 1.370 . S
N41 C39 1.348 . S
N41 C43 1.346 . S
C42 C39 1.485 . S
C42 H46 0.960 . S
C42 H47 0.961 . S
C42 H48 0.960 . S
C43 N41 1.346 . S
C43 N44 1.307 . S
C43 C45 1.486 . S
N44 N40 1.370 . S
N44 C43 1.307 . S
C45 C43 1.486 . S
C45 H49 0.960 . S
C45 H50 0.960 1_455 S
C45 H51 0.959 . S
H46 C42 0.960 . S
H47 C42 0.961 . S
H48 C42 0.960 . S
H49 C45 0.960 . S
H50 C45 0.960 1_655 S
H51 C45 0.959 . S
C52 N53 1.317 . S
C52 N54 1.348 . S
C52 C55 1.485 . S
N53 C52 1.317 . S
N53 N57 1.370 . S
N54 C52 1.348 . S
N54 C56 1.346 . S
C55 C52 1.485 . S
C55 H59 0.960 . S
C55 H60 0.961 . S
C55 H61 0.960 . S
C56 N54 1.346 . S
C56 N57 1.307 . S
C56 C58 1.486 . S
N57 N53 1.370 . S
N57 C56 1.307 . S
C58 C56 1.486 . S
C58 H62 0.960 . S
C58 H63 0.960 . S
C58 H64 0.959 . S
H59 C55 0.960 . S
H60 C55 0.961 . S
H61 C55 0.960 . S
H62 C58 0.960 . S
H63 C58 0.960 . S
H64 C58 0.959 . S
C65 N66 1.317 . S
C65 N67 1.348 . S
C65 C68 1.485 . S
N66 C65 1.317 . S
N66 N70 1.370 . S
N67 C65 1.348 . S
N67 C69 1.346 . S
C68 C65 1.485 . S
C68 H72 0.960 . S
C68 H73 0.961 . S
C68 H74 0.960 . S
C69 N67 1.346 . S
C69 N70 1.307 . S
C69 C71 1.486 . S
N70 N66 1.370 . S
N70 C69 1.307 . S
C71 C69 1.486 . S
C71 H75 0.960 . S
C71 H76 0.960 . S
C71 H77 0.959 . S
H72 C68 0.960 . S
H73 C68 0.961 . S
H74 C68 0.960 . S
H75 C71 0.960 . S
H76 C71 0.960 . S
H77 C71 0.959 . S
C78 N79 1.317 . S
C78 N80 1.348 . S
C78 C81 1.485 . S
N79 C78 1.317 . S
N79 N83 1.370 . S
N80 C78 1.348 . S
N80 C82 1.346 . S
C81 C78 1.485 . S
C81 H85 0.960 . S
C81 H86 0.961 . S
C81 H87 0.960 . S
C82 N80 1.346 . S
C82 N83 1.307 . S
C82 C84 1.486 . S
N83 N79 1.370 . S
N83 C82 1.307 . S
C84 C82 1.486 . S
C84 H88 0.960 . S
C84 H89 0.960 . S
C84 H90 0.959 . S
H85 C81 0.960 . S
H86 C81 0.961 . S
H87 C81 0.960 . S
H88 C84 0.960 . S
H89 C84 0.960 . S
H90 C84 0.959 . S
C91 N92 1.317 . S
C91 N93 1.348 . S
C91 C94 1.485 . S
N92 C91 1.317 . S
N92 N96 1.370 . S
N93 C91 1.348 . S
N93 C95 1.346 . S
C94 C91 1.485 . S
C94 H98 0.960 . S
C94 H99 0.961 . S
C94 H100 0.960 . S
C95 N93 1.346 . S
C95 N96 1.307 . S
C95 C97 1.486 . S
N96 N92 1.370 . S
N96 C95 1.307 . S
C97 C95 1.486 . S
C97 H101 0.960 . S
C97 H102 0.960 . S
C97 H103 0.959 . S
H98 C94 0.960 . S
H99 C94 0.961 . S
H100 C94 0.960 . S
H101 C97 0.960 . S
H102 C97 0.960 . S
H103 C97 0.959 . S
C104 N105 1.317 . S
C104 N106 1.348 . S
C104 C107 1.485 . S
N105 C104 1.317 . S
N105 N109 1.370 . S
N106 C104 1.348 . S
N106 C108 1.346 . S
C107 C104 1.485 . S
C107 H111 0.960 . S
C107 H112 0.961 . S
C107 H113 0.960 . S
C108 N106 1.346 . S
C108 N109 1.307 . S
C108 C110 1.486 . S
N109 N105 1.370 . S
N109 C108 1.307 . S
C110 C108 1.486 . S
C110 H114 0.960 . S
C110 H115 0.960 . S
C110 H116 0.959 . S
H111 C107 0.960 . S
H112 C107 0.961 . S
H113 C107 0.960 . S
H114 C110 0.960 . S
H115 C110 0.960 . S
H116 C110 0.959 . S
C117 N118 1.317 . S
C117 N119 1.348 . S
C117 C120 1.485 . S
N118 C117 1.317 . S
N118 N122 1.370 . S
N119 C117 1.348 . S
N119 C121 1.346 . S
C120 C117 1.485 . S
C120 H124 0.960 . S
C120 H125 0.961 1_556 S
C120 H126 0.960 . S
C121 N119 1.346 . S
C121 N122 1.307 . S
C121 C123 1.486 . S
N122 N118 1.370 . S
N122 C121 1.307 . S
C123 C121 1.486 . S
C123 H127 0.960 . S
C123 H128 0.960 . S
C123 H129 0.959 . S
H124 C120 0.960 . S
H125 C120 0.961 1_554 S
H126 C120 0.960 . S
H127 C123 0.960 . S
H128 C123 0.960 . S
H129 C123 0.959 . S
C130 N131 1.317 . S
C130 N132 1.348 . S
C130 C133 1.485 1_556 S
N131 C130 1.317 . S
N131 N135 1.370 . S
N132 C130 1.348 . S
N132 C134 1.346 . S
C133 C130 1.485 1_554 S
C133 H137 0.960 . S
C133 H138 0.961 . S
C133 H139 0.960 . S
C134 N132 1.346 . S
C134 N135 1.307 . S
C134 C136 1.486 . S
N135 N131 1.370 . S
N135 C134 1.307 . S
C136 C134 1.486 . S
C136 H140 0.960 . S
C136 H141 0.960 . S
C136 H142 0.959 . S
H137 C133 0.960 . S
H138 C133 0.961 . S
H139 C133 0.960 . S
H140 C136 0.960 . S
H141 C136 0.960 . S
H142 C136 0.959 . S
C143 N144 1.317 . S
C143 N145 1.348 . S
C143 C146 1.485 1_556 S
N144 C143 1.317 . S
N144 N148 1.370 . S
N145 C143 1.348 . S
N145 C147 1.346 . S
C146 C143 1.485 1_554 S
C146 H150 0.960 . S
C146 H151 0.961 . S
C146 H152 0.960 . S
C147 N145 1.346 . S
C147 N148 1.307 . S
C147 C149 1.486 . S
N148 N144 1.370 . S
N148 C147 1.307 . S
C149 C147 1.486 . S
C149 H153 0.960 . S
C149 H154 0.960 . S
C149 H155 0.959 . S
H150 C146 0.960 . S
H151 C146 0.961 . S
H152 C146 0.960 . S
H153 C149 0.960 . S
H154 C149 0.960 . S
H155 C149 0.959 . S
C156 N157 1.317 . S
C156 N158 1.348 . S
C156 C159 1.485 1_554 S
N157 C156 1.317 . S
N157 N161 1.370 . S
N158 C156 1.348 . S
N158 C160 1.346 . S
C159 C156 1.485 1_556 S
C159 H163 0.960 . S
C159 H164 0.961 . S
C159 H165 0.960 . S
C160 N158 1.346 . S
C160 N161 1.307 . S
C160 C162 1.486 . S
N161 N157 1.370 . S
N161 C160 1.307 . S
C162 C160 1.486 . S
C162 H166 0.960 . S
C162 H167 0.960 . S
C162 H168 0.959 . S
H163 C159 0.960 . S
H164 C159 0.961 . S
H165 C159 0.960 . S
H166 C162 0.960 . S
H167 C162 0.960 . S
H168 C162 0.959 . S
C169 N170 1.317 . S
C169 N171 1.348 . S
C169 C172 1.485 . S
N170 C169 1.317 . S
N170 N174 1.370 . S
N171 C169 1.348 . S
N171 C173 1.346 . S
C172 C169 1.485 . S
C172 H176 0.960 1_554 S
C172 H177 0.961 . S
C172 H178 0.960 . S
C173 N171 1.346 . S
C173 N174 1.307 . S
C173 C175 1.486 . S
N174 N170 1.370 . S
N174 C173 1.307 . S
C175 C173 1.486 . S
C175 H179 0.960 . S
C175 H180 0.960 . S
C175 H181 0.959 . S
H176 C172 0.960 1_556 S
H177 C172 0.961 . S
H178 C172 0.960 . S
H179 C175 0.960 . S
H180 C175 0.960 . S
H181 C175 0.959 . S
C182 N183 1.317 . S
C182 N184 1.348 . S
C182 C185 1.485 . S
N183 C182 1.317 . S
N183 N187 1.370 . S
N184 C182 1.348 . S
N184 C186 1.346 . S
C185 C182 1.485 . S
C185 H189 0.960 . S
C185 H190 0.961 . S
C185 H191 0.960 . S
C186 N184 1.346 . S
C186 N187 1.307 . S
C186 C188 1.486 . S
N187 N183 1.370 . S
N187 C186 1.307 . S
C188 C186 1.486 . S
C188 H192 0.960 . S
C188 H193 0.960 . S
C188 H194 0.959 . S
H189 C185 0.960 . S
H190 C185 0.961 . S
H191 C185 0.960 . S
H192 C188 0.960 . S
H193 C188 0.960 . S
H194 C188 0.959 . S
C195 N196 1.317 . S
C195 N197 1.348 . S
C195 C198 1.485 . S
N196 C195 1.317 . S
N196 N200 1.370 . S
N197 C195 1.348 . S
N197 C199 1.346 . S
C198 C195 1.485 . S
C198 H202 0.960 . S
C198 H203 0.961 . S
C198 H204 0.960 . S
C199 N197 1.346 . S
C199 N200 1.307 . S
C199 C201 1.486 . S
N200 N196 1.370 . S
N200 C199 1.307 . S
C201 C199 1.486 . S
C201 H205 0.960 . S
C201 H206 0.960 . S
C201 H207 0.959 . S
H202 C198 0.960 . S
H203 C198 0.961 . S
H204 C198 0.960 . S
H205 C201 0.960 . S
H206 C201 0.960 . S
H207 C201 0.959 . S
C208 N209 1.317 . S
C208 N210 1.348 . S
C208 C211 1.485 . S
N209 C208 1.317 . S
N209 N213 1.370 . S
N210 C208 1.348 . S
N210 C212 1.346 . S
C211 C208 1.485 . S
C211 H215 0.960 . S
C211 H216 0.961 . S
C211 H217 0.960 . S
C212 N210 1.346 . S
C212 N213 1.307 . S
C212 C214 1.486 . S
N213 N209 1.370 . S
N213 C212 1.307 . S
C214 C212 1.486 . S
C214 H218 0.960 . S
C214 H219 0.960 . S
C214 H220 0.959 . S
H215 C211 0.960 . S
H216 C211 0.961 . S
H217 C211 0.960 . S
H218 C214 0.960 . S
H219 C214 0.960 . S
H220 C214 0.959 . S
C221 N222 1.317 . S
C221 N223 1.348 . S
C221 C224 1.485 . S
N222 C221 1.317 . S
N222 N226 1.370 . S
N223 C221 1.348 . S
N223 C225 1.346 . S
C224 C221 1.485 . S
C224 H228 0.960 . S
C224 H229 0.961 . S
C224 H230 0.960 . S
C225 N223 1.346 . S
C225 N226 1.307 . S
C225 C227 1.486 . S
N226 N222 1.370 . S
N226 C225 1.307 . S
C227 C225 1.486 . S
C227 H231 0.960 . S
C227 H232 0.960 . S
C227 H233 0.959 . S
H228 C224 0.960 . S
H229 C224 0.961 . S
H230 C224 0.960 . S
H231 C227 0.960 . S
H232 C227 0.960 . S
H233 C227 0.959 . S
Eu234 C243 2.828 1_565 S
Eu234 O245 2.392 1_556 S
Eu234 O247 2.418 . S
Eu234 O252 2.373 1_565 S
Eu234 O255 2.488 . S
Eu234 O256 2.471 1_565 S
Eu234 O257 2.349 1_565 S
Eu235 O244 2.373 1_545 S
Eu235 O248 2.488 . S
Eu235 O249 2.471 1_545 S
Eu235 O250 2.349 1_545 S
Eu235 O253 2.392 . S
Eu235 O254 2.418 . S
Eu235 C264 2.828 1_545 S
C236 O254 1.244 . S
C236 O257 1.265 1_554 S
C237 C238 1.379 . S
C237 C241 1.373 . S
C237 C243 1.505 . S
C238 C237 1.379 . S
C238 C240 1.369 . S
C238 H266 0.930 . S
C239 C241 1.383 . S
C239 C242 1.382 . S
C239 H267 0.930 . S
C240 C238 1.369 . S
C240 C242 1.392 . S
C240 H268 0.930 . S
C241 C237 1.373 . S
C241 C239 1.383 . S
C241 H269 0.931 1_545 S
C242 C239 1.382 . S
C242 C240 1.392 . S
C243 Eu234 2.828 1_545 S
C243 C237 1.505 . S
C243 O255 1.249 1_545 S
C243 O256 1.244 . S
O244 Eu235 2.373 1_565 S
O244 C246 1.258 . S
O245 Eu234 2.392 1_554 S
O245 C246 1.242 . S
C246 O244 1.258 . S
C246 O245 1.242 . S
O247 Eu234 2.418 . S
O247 C251 1.244 1_556 S
O248 Eu235 2.488 . S
O248 C264 1.249 1_545 S
O249 Eu235 2.471 1_565 S
O249 C264 1.244 . S
O250 Eu235 2.349 1_565 S
O250 C251 1.265 . S
C251 O247 1.244 1_554 S
C251 O250 1.265 . S
O252 Eu234 2.373 1_545 S
O252 C265 1.258 . S
O253 Eu235 2.392 . S
O253 C265 1.242 1_554 S
O254 Eu235 2.418 . S
O254 C236 1.244 . S
O255 Eu234 2.488 . S
O255 C243 1.249 1_565 S
O256 Eu234 2.471 1_545 S
O256 C243 1.244 . S
O257 Eu234 2.349 1_545 S
O257 C236 1.265 1_556 S
C258 C259 1.379 . S
C258 C262 1.373 . S
C258 C264 1.505 . S
C259 C258 1.379 . S
C259 C261 1.369 . S
C259 H270 0.930 . S
C260 C262 1.383 . S
C260 C263 1.382 . S
C260 H271 0.930 . S
C261 C259 1.369 . S
C261 C263 1.392 . S
C261 H272 0.930 . S
C262 C258 1.373 . S
C262 C260 1.383 . S
C262 H273 0.931 1_565 S
C263 C260 1.382 . S
C263 C261 1.392 . S
C264 Eu235 2.828 1_565 S
C264 O248 1.249 1_565 S
C264 O249 1.244 . S
C264 C258 1.505 . S
C265 O252 1.258 . S
C265 O253 1.242 1_556 S
H266 C238 0.930 . S
H267 C239 0.930 . S
H268 C240 0.930 . S
H269 C241 0.931 1_565 S
H270 C259 0.930 . S
H271 C260 0.930 . S
H272 C261 0.930 . S
H273 C262 0.931 1_545 S
Eu274 C283 2.828 . S
Eu274 O285 2.392 1_556 S
Eu274 O287 2.418 . S
Eu274 O292 2.373 1_455 S
Eu274 O295 2.488 . S
Eu274 O296 2.471 1_455 S
Eu274 O297 2.349 1_455 S
Eu275 O284 2.373 1_655 S
Eu275 O288 2.488 . S
Eu275 O289 2.471 1_655 S
Eu275 O290 2.349 1_655 S
Eu275 O293 2.393 . S
Eu275 O294 2.418 . S
Eu275 C304 2.828 1_655 S
C276 O294 1.252 . S
C276 O297 1.261 1_554 S
C277 C278 1.389 . S
C277 C281 1.368 1_655 S
C277 C283 1.500 1_655 S
C278 C277 1.389 . S
C278 C280 1.369 . S
C278 H306 0.930 . S
C279 C281 1.383 . S
C279 C282 1.382 1_455 S
C279 H307 0.930 . S
C280 C278 1.369 . S
C280 C282 1.392 . S
C280 H308 0.930 . S
C281 C277 1.368 1_455 S
C281 C279 1.383 . S
C281 H309 0.931 . S
C282 C279 1.382 1_655 S
C282 C280 1.392 . S
C283 Eu274 2.828 . S
C283 C277 1.500 1_455 S
C283 O295 1.249 . S
C283 O296 1.244 1_455 S
O284 Eu275 2.373 1_455 S
O284 C286 1.258 . S
O285 Eu274 2.392 1_554 S
O285 C286 1.242 . S
C286 O284 1.258 . S
C286 O285 1.242 . S
O287 Eu274 2.418 . S
O287 C291 1.244 1_556 S
O288 Eu275 2.488 . S
O288 C304 1.249 1_655 S
O289 Eu275 2.471 1_455 S
O289 C304 1.244 . S
O290 Eu275 2.349 1_455 S
O290 C291 1.265 . S
C291 O287 1.244 1_554 S
C291 O290 1.265 . S
O292 Eu274 2.373 1_655 S
O292 C305 1.258 . S
O293 Eu275 2.393 . S
O293 C305 1.241 1_554 S
O294 Eu275 2.418 . S
O294 C276 1.252 . S
O295 Eu274 2.488 . S
O295 C283 1.249 . S
O296 Eu274 2.471 1_655 S
O296 C283 1.244 1_655 S
O297 Eu274 2.349 1_655 S
O297 C276 1.261 1_556 S
C298 C299 1.379 . S
C298 C302 1.373 1_455 S
C298 C304 1.505 . S
C299 C298 1.379 . S
C299 C301 1.369 . S
C299 H310 0.930 . S
C300 C302 1.383 1_455 S
C300 C303 1.382 . S
C300 H311 0.930 1_455 S
C301 C299 1.369 . S
C301 C303 1.392 . S
C301 H312 0.930 . S
C302 C298 1.373 1_655 S
C302 C300 1.383 1_655 S
C302 H313 0.931 . S
C303 C300 1.382 . S
C303 C301 1.392 . S
C304 Eu275 2.828 1_455 S
C304 O288 1.249 1_455 S
C304 O289 1.244 . S
C304 C298 1.505 . S
C305 O292 1.258 . S
C305 O293 1.241 1_556 S
H306 C278 0.930 . S
H307 C279 0.930 . S
H308 C280 0.930 . S
H309 C281 0.931 . S
H310 C299 0.930 . S
H311 C300 0.930 1_655 S
H312 C301 0.930 . S
H313 C302 0.931 . S
Eu314 C323 2.828 . S
Eu314 O325 2.392 . S
Eu314 O327 2.418 . S
Eu314 O332 2.373 . S
Eu314 O335 2.488 . S
Eu314 O336 2.471 . S
Eu314 O337 2.349 . S
Eu315 O324 2.373 . S
Eu315 O328 2.488 . S
Eu315 O329 2.471 . S
Eu315 O330 2.349 1_556 S
Eu315 O333 2.392 1_556 S
Eu315 O334 2.418 . S
Eu315 C344 2.828 . S
C316 O334 1.244 1_554 S
C316 O337 1.265 . S
C317 C318 1.379 . S
C317 C321 1.373 . S
C317 C323 1.505 . S
C318 C317 1.379 . S
C318 C320 1.369 . S
C318 H346 0.930 . S
C319 C321 1.383 . S
C319 C322 1.382 . S
C319 H347 0.930 . S
C320 C318 1.369 . S
C320 C322 1.392 . S
C320 H348 0.930 . S
C321 C317 1.373 . S
C321 C319 1.383 . S
C321 H349 0.931 . S
C322 C319 1.382 . S
C322 C320 1.392 . S
C323 Eu314 2.828 . S
C323 C317 1.505 . S
C323 O335 1.249 . S
C323 O336 1.244 . S
O324 Eu315 2.373 . S
O324 C326 1.258 . S
O325 Eu314 2.392 . S
O325 C326 1.242 1_554 S
C326 O324 1.258 . S
C326 O325 1.242 1_556 S
O327 Eu314 2.418 . S
O327 C331 1.244 . S
O328 Eu315 2.488 . S
O328 C344 1.249 . S
O329 Eu315 2.471 . S
O329 C344 1.244 . S
O330 Eu315 2.349 1_554 S
O330 C331 1.265 . S
C331 O327 1.244 . S
C331 O330 1.265 . S
O332 Eu314 2.373 . S
O332 C345 1.258 . S
O333 Eu315 2.392 1_554 S
O333 C345 1.242 . S
O334 Eu315 2.418 . S
O334 C316 1.244 1_556 S
O335 Eu314 2.488 . S
O335 C323 1.249 . S
O336 Eu314 2.471 . S
O336 C323 1.244 . S
O337 Eu314 2.349 . S
O337 C316 1.265 . S
C338 C339 1.379 . S
C338 C342 1.373 . S
C338 C344 1.505 . S
C339 C338 1.379 . S
C339 C341 1.369 . S
C339 H350 0.930 . S
C340 C342 1.383 . S
C340 C343 1.382 . S
C340 H351 0.930 . S
C341 C339 1.369 . S
C341 C343 1.392 . S
C341 H352 0.930 . S
C342 C338 1.373 . S
C342 C340 1.383 . S
C342 H353 0.931 . S
C343 C340 1.382 . S
C343 C341 1.392 . S
C344 Eu315 2.828 . S
C344 O328 1.249 . S
C344 O329 1.244 . S
C344 C338 1.505 . S
C345 O332 1.258 . S
C345 O333 1.242 . S
H346 C318 0.930 . S
H347 C319 0.930 . S
H348 C320 0.930 . S
H349 C321 0.931 . S
H350 C339 0.930 . S
H351 C340 0.930 . S
H352 C341 0.930 . S
H353 C342 0.931 . S
Eu354 C363 2.828 . S
Eu354 O365 2.392 . S
Eu354 O367 2.418 . S
Eu354 O372 2.373 . S
Eu354 O375 2.488 . S
Eu354 O376 2.471 . S
Eu354 O377 2.349 . S
Eu355 O364 2.373 . S
Eu355 O368 2.488 . S
Eu355 O369 2.471 . S
Eu355 O370 2.349 . S
Eu355 O373 2.392 . S
Eu355 O374 2.418 . S
Eu355 C384 2.828 . S
C356 O374 1.244 . S
C356 O377 1.265 . S
C357 C358 1.379 . S
C357 C361 1.373 . S
C357 C363 1.505 . S
C358 C357 1.379 . S
C358 C360 1.369 . S
C358 H386 0.930 . S
C359 C361 1.383 . S
C359 C362 1.382 . S
C359 H387 0.930 . S
C360 C358 1.369 . S
C360 C362 1.392 . S
C360 H388 0.930 . S
C361 C357 1.373 . S
C361 C359 1.383 . S
C361 H389 0.931 . S
C362 C359 1.382 . S
C362 C360 1.392 . S
C363 Eu354 2.828 . S
C363 C357 1.505 . S
C363 O375 1.249 . S
C363 O376 1.244 . S
O364 Eu355 2.373 . S
O364 C366 1.258 . S
O365 Eu354 2.392 . S
O365 C366 1.242 . S
C366 O364 1.258 . S
C366 O365 1.242 . S
O367 Eu354 2.418 . S
O367 C371 1.244 . S
O368 Eu355 2.488 . S
O368 C384 1.249 . S
O369 Eu355 2.471 . S
O369 C384 1.244 . S
O370 Eu355 2.349 . S
O370 C371 1.265 . S
C371 O367 1.244 . S
C371 O370 1.265 . S
O372 Eu354 2.373 . S
O372 C385 1.258 . S
O373 Eu355 2.392 . S
O373 C385 1.242 . S
O374 Eu355 2.418 . S
O374 C356 1.244 . S
O375 Eu354 2.488 . S
O375 C363 1.249 . S
O376 Eu354 2.471 . S
O376 C363 1.244 . S
O377 Eu354 2.349 . S
O377 C356 1.265 . S
C378 C379 1.379 . S
C378 C382 1.373 . S
C378 C384 1.505 . S
C379 C378 1.379 . S
C379 C381 1.369 . S
C379 H390 0.930 . S
C380 C382 1.383 . S
C380 C383 1.382 . S
C380 H391 0.930 . S
C381 C379 1.369 . S
C381 C383 1.392 . S
C381 H392 0.930 . S
C382 C378 1.373 . S
C382 C380 1.383 . S
C382 H393 0.931 . S
C383 C380 1.382 . S
C383 C381 1.392 . S
C384 Eu355 2.828 . S
C384 O368 1.249 . S
C384 O369 1.244 . S
C384 C378 1.505 . S
C385 O372 1.258 . S
C385 O373 1.242 . S
H386 C358 0.930 . S
H387 C359 0.930 . S
H388 C360 0.930 . S
H389 C361 0.931 . S
H390 C379 0.930 . S
H391 C380 0.930 . S
H392 C381 0.930 . S
H393 C382 0.931 . S
Eu394 C403 2.828 . S
Eu394 O405 2.392 . S
Eu394 O407 2.418 . S
Eu394 O412 2.373 . S
Eu394 O415 2.488 . S
Eu394 O416 2.471 . S
Eu394 O417 2.349 . S
Eu395 O404 2.373 . S
Eu395 O408 2.488 . S
Eu395 O409 2.471 . S
Eu395 O410 2.349 . S
Eu395 O413 2.392 . S
Eu395 O414 2.418 . S
Eu395 C424 2.828 . S
C396 O414 1.244 . S
C396 O417 1.265 . S
C397 C398 1.379 . S
C397 C401 1.373 . S
C397 C403 1.505 . S
C398 C397 1.379 . S
C398 C400 1.369 . S
C398 H426 0.930 . S
C399 C401 1.383 . S
C399 C402 1.382 . S
C399 H427 0.930 . S
C400 C398 1.369 . S
C400 C402 1.392 . S
C400 H428 0.930 . S
C401 C397 1.373 . S
C401 C399 1.383 . S
C401 H429 0.931 . S
C402 C399 1.382 . S
C402 C400 1.392 . S
C403 Eu394 2.828 . S
C403 C397 1.505 . S
C403 O415 1.249 . S
C403 O416 1.244 . S
O404 Eu395 2.373 . S
O404 C406 1.258 . S
O405 Eu394 2.392 . S
O405 C406 1.242 . S
C406 O404 1.258 . S
C406 O405 1.242 . S
O407 Eu394 2.418 . S
O407 C411 1.244 . S
O408 Eu395 2.488 . S
O408 C424 1.249 . S
O409 Eu395 2.471 . S
O409 C424 1.244 . S
O410 Eu395 2.349 . S
O410 C411 1.265 . S
C411 O407 1.244 . S
C411 O410 1.265 . S
O412 Eu394 2.373 . S
O412 C425 1.258 . S
O413 Eu395 2.392 . S
O413 C425 1.242 . S
O414 Eu395 2.418 . S
O414 C396 1.244 . S
O415 Eu394 2.488 . S
O415 C403 1.249 . S
O416 Eu394 2.471 . S
O416 C403 1.244 . S
O417 Eu394 2.349 . S
O417 C396 1.265 . S
C418 C419 1.379 . S
C418 C422 1.373 . S
C418 C424 1.505 . S
C419 C418 1.379 . S
C419 C421 1.369 . S
C419 H430 0.930 . S
C420 C422 1.383 . S
C420 C423 1.382 . S
C420 H431 0.930 . S
C421 C419 1.369 . S
C421 C423 1.392 . S
C421 H432 0.930 . S
C422 C418 1.373 . S
C422 C420 1.383 . S
C422 H433 0.931 . S
C423 C420 1.382 . S
C423 C421 1.392 . S
C424 Eu395 2.828 . S
C424 O408 1.249 . S
C424 O409 1.244 . S
C424 C418 1.505 . S
C425 O412 1.258 . S
C425 O413 1.242 . S
H426 C398 0.930 . S
H427 C399 0.930 . S
H428 C400 0.930 . S
H429 C401 0.931 . S
H430 C419 0.930 . S
H431 C420 0.930 . S
H432 C421 0.930 . S
H433 C422 0.931 . S
Eu434 C443 2.828 . S
Eu434 O445 2.392 . S
Eu434 O447 2.418 . S
Eu434 O452 2.373 . S
Eu434 O455 2.488 . S
Eu434 O456 2.471 . S
Eu434 O457 2.349 . S
Eu435 O444 2.373 . S
Eu435 O448 2.488 . S
Eu435 O449 2.471 . S
Eu435 O450 2.349 . S
Eu435 O453 2.392 . S
Eu435 O454 2.418 . S
Eu435 C464 2.828 . S
C436 O454 1.244 . S
C436 O457 1.265 . S
C437 C438 1.379 . S
C437 C441 1.373 . S
C437 C443 1.505 . S
C438 C437 1.379 . S
C438 C440 1.369 . S
C438 H466 0.930 . S
C439 C441 1.383 . S
C439 C442 1.382 . S
C439 H467 0.930 . S
C440 C438 1.369 . S
C440 C442 1.392 . S
C440 H468 0.930 . S
C441 C437 1.373 . S
C441 C439 1.383 . S
C441 H469 0.931 . S
C442 C439 1.382 . S
C442 C440 1.392 . S
C443 Eu434 2.828 . S
C443 C437 1.505 . S
C443 O455 1.249 . S
C443 O456 1.244 . S
O444 Eu435 2.373 . S
O444 C446 1.258 . S
O445 Eu434 2.392 . S
O445 C446 1.242 . S
C446 O444 1.258 . S
C446 O445 1.242 . S
O447 Eu434 2.418 . S
O447 C451 1.244 . S
O448 Eu435 2.488 . S
O448 C464 1.249 . S
O449 Eu435 2.471 . S
O449 C464 1.244 . S
O450 Eu435 2.349 . S
O450 C451 1.265 . S
C451 O447 1.244 . S
C451 O450 1.265 . S
O452 Eu434 2.373 . S
O452 C465 1.258 . S
O453 Eu435 2.392 . S
O453 C465 1.242 . S
O454 Eu435 2.418 . S
O454 C436 1.244 . S
O455 Eu434 2.488 . S
O455 C443 1.249 . S
O456 Eu434 2.471 . S
O456 C443 1.244 . S
O457 Eu434 2.349 . S
O457 C436 1.265 . S
C458 C459 1.379 . S
C458 C462 1.373 . S
C458 C464 1.505 . S
C459 C458 1.379 . S
C459 C461 1.369 . S
C459 H470 0.930 . S
C460 C462 1.383 . S
C460 C463 1.382 . S
C460 H471 0.930 . S
C461 C459 1.369 . S
C461 C463 1.392 . S
C461 H472 0.930 . S
C462 C458 1.373 . S
C462 C460 1.383 . S
C462 H473 0.931 . S
C463 C460 1.382 . S
C463 C461 1.392 . S
C464 Eu435 2.828 . S
C464 O448 1.249 . S
C464 O449 1.244 . S
C464 C458 1.505 . S
C465 O452 1.258 . S
C465 O453 1.242 . S
H466 C438 0.930 . S
H467 C439 0.930 . S
H468 C440 0.930 . S
H469 C441 0.931 . S
H470 C459 0.930 . S
H471 C460 0.930 . S
H472 C461 0.930 . S
H473 C462 0.931 . S
Eu474 C483 2.828 . S
Eu474 O485 2.392 . S
Eu474 O487 2.418 . S
Eu474 O492 2.373 . S
Eu474 O495 2.488 . S
Eu474 O496 2.471 . S
Eu474 O497 2.349 . S
Eu475 O484 2.373 . S
Eu475 O488 2.488 . S
Eu475 O489 2.471 . S
Eu475 O490 2.349 . S
Eu475 O493 2.392 . S
Eu475 O494 2.418 . S
Eu475 C504 2.828 . S
C476 O494 1.244 . S
C476 O497 1.265 . S
C477 C478 1.379 . S
C477 C481 1.373 . S
C477 C483 1.505 . S
C478 C477 1.379 . S
C478 C480 1.369 . S
C478 H506 0.930 . S
C479 C481 1.383 . S
C479 C482 1.382 . S
C479 H507 0.930 . S
C480 C478 1.369 . S
C480 C482 1.392 . S
C480 H508 0.930 . S
C481 C477 1.373 . S
C481 C479 1.383 . S
C481 H509 0.931 . S
C482 C479 1.382 . S
C482 C480 1.392 . S
C483 Eu474 2.828 . S
C483 C477 1.505 . S
C483 O495 1.249 . S
C483 O496 1.244 . S
O484 Eu475 2.373 . S
O484 C486 1.258 . S
O485 Eu474 2.392 . S
O485 C486 1.242 . S
C486 O484 1.258 . S
C486 O485 1.242 . S
O487 Eu474 2.418 . S
O487 C491 1.244 . S
O488 Eu475 2.488 . S
O488 C504 1.249 . S
O489 Eu475 2.471 . S
O489 C504 1.244 . S
O490 Eu475 2.349 . S
O490 C491 1.265 . S
C491 O487 1.244 . S
C491 O490 1.265 . S
O492 Eu474 2.373 . S
O492 C505 1.258 . S
O493 Eu475 2.392 . S
O493 C505 1.242 . S
O494 Eu475 2.418 . S
O494 C476 1.244 . S
O495 Eu474 2.488 . S
O495 C483 1.249 . S
O496 Eu474 2.471 . S
O496 C483 1.244 . S
O497 Eu474 2.349 . S
O497 C476 1.265 . S
C498 C499 1.379 . S
C498 C502 1.373 . S
C498 C504 1.505 . S
C499 C498 1.379 . S
C499 C501 1.369 . S
C499 H510 0.930 . S
C500 C502 1.383 . S
C500 C503 1.382 . S
C500 H511 0.930 . S
C501 C499 1.369 . S
C501 C503 1.392 . S
C501 H512 0.930 . S
C502 C498 1.373 . S
C502 C500 1.383 . S
C502 H513 0.931 . S
C503 C500 1.382 . S
C503 C501 1.392 . S
C504 Eu475 2.828 . S
C504 O488 1.249 . S
C504 O489 1.244 . S
C504 C498 1.505 . S
C505 O492 1.258 . S
C505 O493 1.242 . S
H506 C478 0.930 . S
H507 C479 0.930 . S
H508 C480 0.930 . S
H509 C481 0.931 . S
H510 C499 0.930 . S
H511 C500 0.930 . S
H512 C501 0.930 . S
H513 C502 0.931 . S
Eu514 C523 2.828 . S
Eu514 O525 2.392 . S
Eu514 O527 2.418 . S
Eu514 O532 2.373 . S
Eu514 O535 2.488 . S
Eu514 O536 2.471 . S
Eu514 O537 2.349 . S
Eu515 O524 2.373 . S
Eu515 O528 2.488 . S
Eu515 O529 2.471 . S
Eu515 O530 2.349 . S
Eu515 O533 2.392 . S
Eu515 O534 2.418 . S
Eu515 C544 2.828 . S
C516 O534 1.244 . S
C516 O537 1.265 . S
C517 C518 1.379 . S
C517 C521 1.373 . S
C517 C523 1.505 . S
C518 C517 1.379 . S
C518 C520 1.369 . S
C518 H546 0.930 . S
C519 C521 1.383 . S
C519 C522 1.382 . S
C519 H547 0.930 . S
C520 C518 1.369 . S
C520 C522 1.392 . S
C520 H548 0.930 . S
C521 C517 1.373 . S
C521 C519 1.383 . S
C521 H549 0.931 . S
C522 C519 1.382 . S
C522 C520 1.392 . S
C523 Eu514 2.828 . S
C523 C517 1.505 . S
C523 O535 1.249 . S
C523 O536 1.244 . S
O524 Eu515 2.373 . S
O524 C526 1.258 . S
O525 Eu514 2.392 . S
O525 C526 1.242 . S
C526 O524 1.258 . S
C526 O525 1.242 . S
O527 Eu514 2.418 . S
O527 C531 1.244 . S
O528 Eu515 2.488 . S
O528 C544 1.249 . S
O529 Eu515 2.471 . S
O529 C544 1.244 . S
O530 Eu515 2.349 . S
O530 C531 1.265 . S
C531 O527 1.244 . S
C531 O530 1.265 . S
O532 Eu514 2.373 . S
O532 C545 1.258 . S
O533 Eu515 2.392 . S
O533 C545 1.242 . S
O534 Eu515 2.418 . S
O534 C516 1.244 . S
O535 Eu514 2.488 . S
O535 C523 1.249 . S
O536 Eu514 2.471 . S
O536 C523 1.244 . S
O537 Eu514 2.349 . S
O537 C516 1.265 . S
C538 C539 1.379 . S
C538 C542 1.373 . S
C538 C544 1.505 . S
C539 C538 1.379 . S
C539 C541 1.369 . S
C539 H550 0.930 . S
C540 C542 1.383 . S
C540 C543 1.382 . S
C540 H551 0.930 . S
C541 C539 1.369 . S
C541 C543 1.392 . S
C541 H552 0.930 . S
C542 C538 1.373 . S
C542 C540 1.383 . S
C542 H553 0.931 . S
C543 C540 1.382 . S
C543 C541 1.392 . S
C544 Eu515 2.828 . S
C544 O528 1.249 . S
C544 O529 1.244 . S
C544 C538 1.505 . S
C545 O532 1.258 . S
C545 O533 1.242 . S
H546 C518 0.930 . S
H547 C519 0.930 . S
H548 C520 0.930 . S
H549 C521 0.931 . S
H550 C539 0.930 . S
H551 C540 0.930 . S
H552 C541 0.930 . S
H553 C542 0.931 . S
Eu554 C563 2.828 . S
Eu554 O565 2.392 . S
Eu554 O567 2.418 . S
Eu554 O572 2.373 . S
Eu554 O575 2.488 . S
Eu554 O576 2.471 . S
Eu554 O577 2.349 . S
Eu555 O564 2.373 . S
Eu555 O568 2.488 . S
Eu555 O569 2.471 . S
Eu555 O570 2.349 . S
Eu555 O573 2.392 . S
Eu555 O574 2.418 . S
Eu555 C584 2.828 . S
C556 O574 1.244 . S
C556 O577 1.265 . S
C557 C558 1.379 . S
C557 C561 1.373 . S
C557 C563 1.505 . S
C558 C557 1.379 . S
C558 C560 1.369 . S
C558 H586 0.930 . S
C559 C561 1.383 . S
C559 C562 1.382 . S
C559 H587 0.930 . S
C560 C558 1.369 . S
C560 C562 1.392 . S
C560 H588 0.930 . S
C561 C557 1.373 . S
C561 C559 1.383 . S
C561 H589 0.931 . S
C562 C559 1.382 . S
C562 C560 1.392 . S
C563 Eu554 2.828 . S
C563 C557 1.505 . S
C563 O575 1.249 . S
C563 O576 1.244 . S
O564 Eu555 2.373 . S
O564 C566 1.258 . S
O565 Eu554 2.392 . S
O565 C566 1.242 . S
C566 O564 1.258 . S
C566 O565 1.242 . S
O567 Eu554 2.418 . S
O567 C571 1.244 . S
O568 Eu555 2.488 . S
O568 C584 1.249 . S
O569 Eu555 2.471 . S
O569 C584 1.244 . S
O570 Eu555 2.349 . S
O570 C571 1.265 . S
C571 O567 1.244 . S
C571 O570 1.265 . S
O572 Eu554 2.373 . S
O572 C585 1.258 . S
O573 Eu555 2.392 . S
O573 C585 1.242 . S
O574 Eu555 2.418 . S
O574 C556 1.244 . S
O575 Eu554 2.488 . S
O575 C563 1.249 . S
O576 Eu554 2.471 . S
O576 C563 1.244 . S
O577 Eu554 2.349 . S
O577 C556 1.265 . S
C578 C579 1.379 . S
C578 C582 1.373 . S
C578 C584 1.505 . S
C579 C578 1.379 . S
C579 C581 1.369 . S
C579 H590 0.930 . S
C580 C582 1.383 . S
C580 C583 1.382 . S
C580 H591 0.930 . S
C581 C579 1.369 . S
C581 C583 1.392 . S
C581 H592 0.930 . S
C582 C578 1.373 . S
C582 C580 1.383 . S
C582 H593 0.931 . S
C583 C580 1.382 . S
C583 C581 1.392 . S
C584 Eu555 2.828 . S
C584 O568 1.249 . S
C584 O569 1.244 . S
C584 C578 1.505 . S
C585 O572 1.258 . S
C585 O573 1.242 . S
H586 C558 0.930 . S
H587 C559 0.930 . S
H588 C560 0.930 . S
H589 C561 0.931 . S
H590 C579 0.930 . S
H591 C580 0.930 . S
H592 C581 0.930 . S
H593 C582 0.931 . S
C594 C595 1.369 . S
C594 C596 1.419 . S
C594 H598 0.930 . S
C595 C594 1.369 . S
C595 C604 1.429 . S
C596 C594 1.419 . S
C596 C597 1.363 . S
C596 H599 0.929 . S
C597 C596 1.363 . S
C597 C603 1.428 . S
H598 C594 0.930 . S
H599 C596 0.929 . S
S600 N601 1.613 . S
S600 N602 1.610 . S
N601 S600 1.613 . S
N601 C604 1.350 . S
N602 S600 1.610 . S
N602 C603 1.351 . S
C603 C597 1.428 . S
C603 N602 1.351 . S
C603 C604 1.434 . S
C604 C595 1.429 . S
C604 N601 1.350 . S
C604 C603 1.434 . S
C605 C606 1.369 . S
C605 C607 1.419 . S
C605 H609 0.930 . S
C606 C605 1.369 . S
C606 C615 1.429 . S
C607 C605 1.419 . S
C607 C608 1.363 . S
C607 H610 0.929 . S
C608 C607 1.363 . S
C608 C614 1.428 . S
H609 C605 0.930 . S
H610 C607 0.929 . S
S611 N612 1.613 . S
S611 N613 1.610 . S
N612 S611 1.613 . S
N612 C615 1.350 . S
N613 S611 1.610 . S
N613 C614 1.351 . S
C614 C608 1.428 . S
C614 N613 1.351 . S
C614 C615 1.434 . S
C615 C606 1.429 . S
C615 N612 1.350 . S
C615 C614 1.434 . S
C616 C617 1.369 . S
C616 C618 1.419 . S
C616 H620 0.930 . S
C617 C616 1.369 . S
C617 C626 1.429 . S
C618 C616 1.419 . S
C618 C619 1.363 . S
C618 H621 0.929 . S
C619 C618 1.363 . S
C619 C625 1.428 . S
H620 C616 0.930 . S
H621 C618 0.929 . S
S622 N623 1.613 . S
S622 N624 1.610 . S
N623 S622 1.613 . S
N623 C626 1.350 . S
N624 S622 1.610 . S
N624 C625 1.351 . S
C625 C619 1.428 . S
C625 N624 1.351 . S
C625 C626 1.434 . S
C626 C617 1.429 . S
C626 N623 1.350 . S
C626 C625 1.434 . S
C627 C628 1.369 1_554 S
C627 C629 1.419 . S
C627 H631 0.930 . S
C628 C627 1.369 1_556 S
C628 C637 1.429 . S
C629 C627 1.419 . S
C629 C630 1.363 1_554 S
C629 H632 0.929 . S
C630 C629 1.363 1_556 S
C630 C636 1.428 . S
H631 C627 0.930 . S
H632 C629 0.929 . S
S633 N634 1.613 . S
S633 N635 1.610 . S
N634 S633 1.613 . S
N634 C637 1.350 . S
N635 S633 1.610 . S
N635 C636 1.351 . S
C636 C630 1.428 . S
C636 N635 1.351 . S
C636 C637 1.434 . S
C637 C628 1.429 . S
C637 N634 1.350 . S
C637 C636 1.434 . S
C638 C639 1.369 . S
C638 C640 1.419 . S
C638 H642 0.930 . S
C639 C638 1.369 . S
C639 C648 1.429 . S
C640 C638 1.419 . S
C640 C641 1.363 . S
C640 H643 0.929 . S
C641 C640 1.363 . S
C641 C647 1.428 . S
H642 C638 0.930 . S
H643 C640 0.929 . S
S644 N645 1.612 . S
S644 N646 1.610 1_556 S
N645 S644 1.612 . S
N645 C648 1.350 . S
N646 S644 1.610 1_554 S
N646 C647 1.351 1_554 S
C647 C641 1.428 . S
C647 N646 1.351 1_556 S
C647 C648 1.434 . S
C648 C639 1.429 . S
C648 N645 1.350 . S
C648 C647 1.434 . S
C649 C650 1.369 . S
C649 C651 1.419 . S
C649 H653 0.930 . S
C650 C649 1.369 . S
C650 C659 1.429 1_556 S
C651 C649 1.419 . S
C651 C652 1.363 . S
C651 H654 0.929 . S
C652 C651 1.363 . S
C652 C658 1.428 1_556 S
H653 C649 0.930 . S
H654 C651 0.929 . S
S655 N656 1.613 . S
S655 N657 1.610 . S
N656 S655 1.613 . S
N656 C659 1.350 . S
N657 S655 1.610 . S
N657 C658 1.351 . S
C658 C652 1.428 1_554 S
C658 N657 1.351 . S
C658 C659 1.434 . S
C659 C650 1.429 1_554 S
C659 N656 1.350 . S
C659 C658 1.434 . S
C660 C661 1.369 . S
C660 C662 1.419 . S
C660 H664 0.945 . S
C661 C660 1.369 . S
C661 C670 1.429 . S
C662 C660 1.419 . S
C662 C663 1.363 . S
C662 H665 0.929 1_556 S
C663 C662 1.363 . S
C663 C669 1.428 . S
H664 C660 0.945 . S
H665 C662 0.929 1_554 S
S666 N667 1.613 . S
S666 N668 1.610 . S
N667 S666 1.613 . S
N667 C670 1.350 . S
N668 S666 1.610 . S
N668 C669 1.351 . S
C669 C663 1.428 . S
C669 N668 1.351 . S
C669 C670 1.434 . S
C670 C661 1.429 . S
C670 N667 1.350 . S
C670 C669 1.434 . S
C671 C672 1.369 . S
C671 C673 1.419 . S
C671 H675 0.930 . S
C672 C671 1.369 . S
C672 C681 1.429 . S
C673 C671 1.419 . S
C673 C674 1.363 . S
C673 H676 0.886 1_556 S
C674 C673 1.363 . S
C674 C680 1.428 . S
H675 C671 0.930 . S
H676 C673 0.886 1_554 S
S677 N678 1.613 . S
S677 N679 1.610 . S
N678 S677 1.613 . S
N678 C681 1.350 . S
N679 S677 1.610 . S
N679 C680 1.351 . S
C680 C674 1.428 . S
C680 N679 1.351 . S
C680 C681 1.434 . S
C681 C672 1.429 . S
C681 N678 1.350 . S
C681 C680 1.434 . S
C682 C683 1.369 . S
C682 C684 1.408 1_556 S
C682 H686 0.930 . S
C683 C682 1.369 . S
C683 C692 1.429 . S
C684 C682 1.408 1_554 S
C684 C685 1.375 . S
C684 H687 0.930 . S
C685 C684 1.375 . S
C685 C691 1.428 . S
H686 C682 0.930 . S
H687 C684 0.930 . S
S688 N689 1.604 1_554 S
S688 N690 1.617 . S
N689 S688 1.604 1_556 S
N689 C692 1.350 . S
N690 S688 1.617 . S
N690 C691 1.351 . S
C691 C685 1.428 . S
C691 N690 1.351 . S
C691 C692 1.434 1_554 S
C692 C683 1.429 . S
C692 N689 1.350 . S
C692 C691 1.434 1_556 S
C693 C694 1.369 . S
C693 C695 1.419 . S
C693 H697 0.930 . S
C694 C693 1.369 . S
C694 C703 1.429 . S
C695 C693 1.419 . S
C695 C696 1.363 . S
C695 H698 0.929 . S
C696 C695 1.363 . S
C696 C702 1.428 . S
H697 C693 0.930 . S
H698 C695 0.929 . S
S699 N700 1.613 . S
S699 N701 1.610 . S
N700 S699 1.613 . S
N700 C703 1.350 . S
N701 S699 1.610 . S
N701 C702 1.351 . S
C702 C696 1.428 . S
C702 N701 1.351 . S
C702 C703 1.434 . S
C703 C694 1.429 . S
C703 N700 1.350 . S
C703 C702 1.434 . S
C704 C705 1.369 . S
C704 C706 1.419 . S
C704 H708 0.930 . S
C705 C704 1.369 . S
C705 C714 1.429 . S
C706 C704 1.419 . S
C706 C707 1.363 . S
C706 H709 0.929 . S
C707 C706 1.363 . S
C707 C713 1.428 . S
H708 C704 0.930 . S
H709 C706 0.929 . S
S710 N711 1.613 . S
S710 N712 1.610 . S
N711 S710 1.613 . S
N711 C714 1.350 . S
N712 S710 1.610 . S
N712 C713 1.351 . S
C713 C707 1.428 . S
C713 N712 1.351 . S
C713 C714 1.434 . S
C714 C705 1.429 . S
C714 N711 1.350 . S
C714 C713 1.434 . S
C715 C716 1.369 . S
C715 C717 1.419 . S
C715 H719 0.930 1_554 S
C716 C715 1.369 . S
C716 C725 1.429 . S
C717 C715 1.419 . S
C717 C718 1.363 . S
C717 H720 0.929 1_554 S
C718 C717 1.363 . S
C718 C724 1.428 . S
H719 C715 0.930 1_556 S
H720 C717 0.929 1_556 S
S721 N722 1.613 . S
S721 N723 1.610 . S
N722 S721 1.613 . S
N722 C725 1.350 . S
N723 S721 1.610 . S
N723 C724 1.351 . S
C724 C718 1.428 . S
C724 N723 1.351 . S
C724 C725 1.434 . S
C725 C716 1.429 . S
C725 N722 1.350 . S
C725 C724 1.434 . S
C726 C727 1.369 . S
C726 C728 1.419 1_655 S
C726 H730 0.930 . S
C727 C726 1.369 . S
C727 C736 1.429 . S
C728 C726 1.419 1_455 S
C728 C729 1.363 . S
C728 H731 0.929 . S
C729 C728 1.363 . S
C729 C735 1.428 . S
H730 C726 0.930 . S
H731 C728 0.929 . S
S732 N733 1.613 1_455 S
S732 N734 1.610 . S
N733 S732 1.613 1_655 S
N733 C736 1.350 . S
N734 S732 1.610 . S
N734 C735 1.351 . S
C735 C729 1.428 . S
C735 N734 1.351 . S
C735 C736 1.434 1_455 S
C736 C727 1.429 . S
C736 N733 1.350 . S
C736 C735 1.434 1_655 S
C737 C738 1.369 . S
C737 C739 1.419 . S
C737 H741 0.930 . S
C738 C737 1.369 . S
C738 C747 1.429 . S
C739 C737 1.419 . S
C739 C740 1.363 . S
C739 H742 0.929 . S
C740 C739 1.363 . S
C740 C746 1.428 . S
H741 C737 0.930 . S
H742 C739 0.929 . S
S743 N744 1.613 . S
S743 N745 1.610 . S
N744 S743 1.613 . S
N744 C747 1.350 . S
N745 S743 1.610 . S
N745 C746 1.351 . S
C746 C740 1.428 . S
C746 N745 1.351 . S
C746 C747 1.434 . S
C747 C738 1.429 . S
C747 N744 1.350 . S
C747 C746 1.434 . S
C748 C749 1.369 . S
C748 C750 1.419 1_545 S
C748 H752 0.930 . S
C749 C748 1.369 . S
C749 C758 1.429 . S
C750 C748 1.419 1_565 S
C750 C751 1.363 . S
C750 H753 0.929 . S
C751 C750 1.363 . S
C751 C757 1.428 . S
H752 C748 0.930 . S
H753 C750 0.929 . S
S754 N755 1.613 1_565 S
S754 N756 1.610 . S
N755 S754 1.613 1_545 S
N755 C758 1.350 . S
N756 S754 1.610 . S
N756 C757 1.351 . S
C757 C751 1.428 . S
C757 N756 1.351 . S
C757 C758 1.434 1_565 S
C758 C749 1.429 . S
C758 N755 1.350 . S
C758 C757 1.434 1_545 S
C759 C760 1.369 . S
C759 C761 1.419 . S
C759 H763 0.930 . S
C760 C759 1.369 . S
C760 C769 1.429 . S
C761 C759 1.419 . S
C761 C762 1.363 . S
C761 H764 0.929 . S
C762 C761 1.363 . S
C762 C768 1.428 . S
H763 C759 0.930 . S
H764 C761 0.929 . S
S765 N766 1.613 . S
S765 N767 1.610 . S
N766 S765 1.613 . S
N766 C769 1.350 . S
N767 S765 1.610 . S
N767 C768 1.351 . S
C768 C762 1.428 . S
C768 N767 1.351 . S
C768 C769 1.434 . S
C769 C760 1.429 . S
C769 N766 1.350 . S
C769 C768 1.434 . S
C770 C771 1.369 . S
C770 C772 1.419 . S
C770 H774 0.930 . S
C771 C770 1.369 . S
C771 C780 1.429 . S
C772 C770 1.419 . S
C772 C773 1.363 . S
C772 H775 0.929 . S
C773 C772 1.363 . S
C773 C779 1.428 . S
H774 C770 0.930 . S
H775 C772 0.929 . S
S776 N777 1.613 . S
S776 N778 1.610 . S
N777 S776 1.613 . S
N777 C780 1.350 . S
N778 S776 1.610 . S
N778 C779 1.351 . S
C779 C773 1.428 . S
C779 N778 1.351 . S
C779 C780 1.434 . S
C780 C771 1.429 . S
C780 N777 1.350 . S
C780 C779 1.434 . S
C781 C782 1.369 . S
C781 C783 1.419 . S
C781 H785 0.930 . S
C782 C781 1.369 . S
C782 C791 1.429 . S
C783 C781 1.419 . S
C783 C784 1.363 . S
C783 H786 0.929 . S
C784 C783 1.363 . S
C784 C790 1.428 . S
H785 C781 0.930 . S
H786 C783 0.929 . S
S787 N788 1.613 . S
S787 N789 1.610 . S
N788 S787 1.613 . S
N788 C791 1.350 . S
N789 S787 1.610 . S
N789 C790 1.351 . S
C790 C784 1.428 . S
C790 N789 1.351 . S
C790 C791 1.434 . S
C791 C782 1.429 . S
C791 N788 1.350 . S
C791 C790 1.434 . S
C792 C793 1.369 . S
C792 C794 1.419 . S
C792 H796 0.930 . S
C793 C792 1.369 . S
C793 C802 1.429 . S
C794 C792 1.419 . S
C794 C795 1.363 . S
C794 H797 0.929 . S
C795 C794 1.363 . S
C795 C801 1.428 . S
H796 C792 0.930 . S
H797 C794 0.929 . S
S798 N799 1.613 . S
S798 N800 1.610 . S
N799 S798 1.613 . S
N799 C802 1.350 . S
N800 S798 1.610 . S
N800 C801 1.351 . S
C801 C795 1.428 . S
C801 N800 1.351 . S
C801 C802 1.434 . S
C802 C793 1.429 . S
C802 N799 1.350 . S
C802 C801 1.434 . S
C803 C804 1.369 . S
C803 C805 1.419 . S
C803 H807 0.930 . S
C804 C803 1.369 . S
C804 C813 1.429 . S
C805 C803 1.419 . S
C805 C806 1.363 . S
C805 H808 0.929 . S
C806 C805 1.363 . S
C806 C812 1.428 . S
H807 C803 0.930 . S
H808 C805 0.929 . S
S809 N810 1.613 . S
S809 N811 1.610 . S
N810 S809 1.613 . S
N810 C813 1.350 . S
N811 S809 1.610 . S
N811 C812 1.351 . S
C812 C806 1.428 . S
C812 N811 1.351 . S
C812 C813 1.434 . S
C813 C804 1.429 . S
C813 N810 1.350 . S
C813 C812 1.434 . S
C814 C815 1.369 . S
C814 C816 1.419 . S
C814 H818 0.930 . S
C815 C814 1.369 . S
C815 C824 1.429 . S
C816 C814 1.419 . S
C816 C817 1.363 . S
C816 H819 0.929 . S
C817 C816 1.363 . S
C817 C823 1.428 . S
H818 C814 0.930 . S
H819 C816 0.929 . S
S820 N821 1.613 . S
S820 N822 1.610 . S
N821 S820 1.613 . S
N821 C824 1.350 . S
N822 S820 1.610 . S
N822 C823 1.351 . S
C823 C817 1.428 . S
C823 N822 1.351 . S
C823 C824 1.434 . S
C824 C815 1.429 . S
C824 N821 1.350 . S
C824 C823 1.434 . S
C825 C826 1.369 . S
C825 C827 1.419 1_545 S
C825 H829 0.930 . S
C826 C825 1.369 . S
C826 C835 1.429 . S
C827 C825 1.419 1_565 S
C827 C828 1.363 . S
C827 H830 0.929 . S
C828 C827 1.363 . S
C828 C834 1.431 . S
H829 C825 0.930 . S
H830 C827 0.929 . S
S831 N832 1.613 . S
S831 N833 1.610 1_545 S
N832 S831 1.613 . S
N832 C835 1.350 . S
N833 S831 1.610 1_565 S
N833 C834 1.358 . S
C834 C828 1.431 . S
C834 N833 1.358 . S
C834 C835 1.423 1_565 S
C835 C826 1.429 . S
C835 N832 1.350 . S
C835 C834 1.423 1_545 S
C836 C837 1.369 1_455 S
C836 C838 1.419 . S
C836 H840 0.930 1_455 S
C837 C836 1.369 1_655 S
C837 C846 1.429 . S
C838 C836 1.419 . S
C838 C839 1.363 . S
C838 H841 0.929 . S
C839 C838 1.363 . S
C839 C845 1.428 . S
H840 C836 0.930 1_655 S
H841 C838 0.929 . S
S842 N843 1.613 . S
S842 N844 1.610 1_655 S
N843 S842 1.613 . S
N843 C846 1.350 . S
N844 S842 1.610 1_455 S
N844 C845 1.351 . S
C845 C839 1.428 . S
C845 N844 1.351 . S
C845 C846 1.434 1_455 S
C846 C837 1.429 . S
C846 N843 1.350 . S
C846 C845 1.434 1_655 S
C847 C848 1.369 . S
C847 C849 1.419 . S
C847 H851 0.930 . S
C848 C847 1.369 . S
C848 C857 1.429 . S
C849 C847 1.419 . S
C849 C850 1.363 . S
C849 H852 0.929 . S
C850 C849 1.363 . S
C850 C856 1.428 . S
H851 C847 0.930 . S
H852 C849 0.929 . S
S853 N854 1.613 . S
S853 N855 1.610 . S
N854 S853 1.613 . S
N854 C857 1.350 . S
N855 S853 1.610 . S
N855 C856 1.351 . S
C856 C850 1.428 . S
C856 N855 1.351 . S
C856 C857 1.434 . S
C857 C848 1.429 . S
C857 N854 1.350 . S
C857 C856 1.434 . S
C858 C859 1.369 . S
C858 C860 1.419 . S
C858 H862 0.930 . S
C859 C858 1.369 . S
C859 C868 1.429 . S
C860 C858 1.419 . S
C860 C861 1.363 . S
C860 H863 0.929 . S
C861 C860 1.363 . S
C861 C867 1.428 . S
H862 C858 0.930 . S
H863 C860 0.929 . S
S864 N865 1.613 . S
S864 N866 1.610 . S
N865 S864 1.613 . S
N865 C868 1.350 . S
N866 S864 1.610 . S
N866 C867 1.351 . S
C867 C861 1.428 . S
C867 N866 1.351 . S
C867 C868 1.434 . S
C868 C859 1.429 . S
C868 N865 1.350 . S
C868 C867 1.434 . S
C869 C870 1.369 . S
C869 C871 1.419 . S
C869 H873 0.930 . S
C870 C869 1.369 . S
C870 C879 1.429 . S
C871 C869 1.419 . S
C871 C872 1.363 . S
C871 H874 0.929 . S
C872 C871 1.363 . S
C872 C878 1.428 . S
H873 C869 0.930 . S
H874 C871 0.929 . S
S875 N876 1.613 . S
S875 N877 1.610 . S
N876 S875 1.613 . S
N876 C879 1.350 . S
N877 S875 1.610 . S
N877 C878 1.351 . S
C878 C872 1.428 . S
C878 N877 1.351 . S
C878 C879 1.434 . S
C879 C870 1.429 . S
C879 N876 1.350 . S
C879 C878 1.434 . S
C880 C881 1.369 . S
C880 C882 1.419 . S
C880 H884 0.930 . S
C881 C880 1.369 . S
C881 C890 1.429 . S
C882 C880 1.419 . S
C882 C883 1.363 . S
C882 H885 0.929 . S
C883 C882 1.363 . S
C883 C889 1.428 . S
H884 C880 0.930 . S
H885 C882 0.929 . S
S886 N887 1.613 . S
S886 N888 1.610 . S
N887 S886 1.613 . S
N887 C890 1.350 . S
N888 S886 1.610 . S
N888 C889 1.351 . S
C889 C883 1.428 . S
C889 N888 1.351 . S
C889 C890 1.434 . S
C890 C881 1.429 . S
C890 N887 1.350 . S
C890 C889 1.434 . S
C891 C892 1.369 . S
C891 C893 1.419 1_565 S
C891 H895 0.930 . S
C892 C891 1.369 . S
C892 C901 1.429 . S
C893 C891 1.419 1_545 S
C893 C894 1.363 . S
C893 H896 0.929 . S
C894 C893 1.363 . S
C894 C900 1.428 . S
H895 C891 0.930 . S
H896 C893 0.929 . S
S897 N898 1.613 1_545 S
S897 N899 1.610 . S
N898 S897 1.613 1_565 S
N898 C901 1.350 . S
N899 S897 1.610 . S
N899 C900 1.351 . S
C900 C894 1.428 . S
C900 N899 1.351 . S
C900 C901 1.434 1_545 S
C901 C892 1.429 . S
C901 N898 1.350 . S
C901 C900 1.434 1_565 S
C902 C903 1.369 1_655 S
C902 C904 1.419 . S
C902 H906 0.930 1_655 S
C903 C902 1.369 1_455 S
C903 C912 1.429 1_455 S
C904 C902 1.419 . S
C904 C905 1.363 . S
C904 H907 0.929 . S
C905 C904 1.363 . S
C905 C911 1.428 . S
H906 C902 0.930 1_455 S
H907 C904 0.929 . S
S908 N909 1.613 1_655 S
S908 N910 1.610 . S
N909 S908 1.613 1_455 S
N909 C912 1.350 1_455 S
N910 S908 1.610 . S
N910 C911 1.351 . S
C911 C905 1.428 . S
C911 N910 1.351 . S
C911 C912 1.434 . S
C912 C903 1.429 1_655 S
C912 N909 1.350 1_655 S
C912 C911 1.434 . S
C913 C914 1.369 . S
C913 C915 1.419 . S
C913 H917 0.930 . S
C914 C913 1.369 . S
C914 C923 1.429 . S
C915 C913 1.419 . S
C915 C916 1.363 . S
C915 H918 0.929 . S
C916 C915 1.363 . S
C916 C922 1.428 . S
H917 C913 0.930 . S
H918 C915 0.929 . S
S919 N920 1.613 . S
S919 N921 1.610 . S
N920 S919 1.613 . S
N920 C923 1.350 . S
N921 S919 1.610 . S
N921 C922 1.351 . S
C922 C916 1.428 . S
C922 N921 1.351 . S
C922 C923 1.434 . S
C923 C914 1.429 . S
C923 N920 1.350 . S
C923 C922 1.434 . S
C924 C925 1.369 . S
C924 C926 1.419 . S
C924 H928 0.930 . S
C925 C924 1.369 . S
C925 C934 1.429 . S
C926 C924 1.419 . S
C926 C927 1.363 1_455 S
C926 H929 0.929 1_455 S
C927 C926 1.363 1_655 S
C927 C933 1.428 1_655 S
H928 C924 0.930 . S
H929 C926 0.929 1_655 S
S930 N931 1.613 . S
S930 N932 1.610 . S
N931 S930 1.613 . S
N931 C934 1.350 . S
N932 S930 1.610 . S
N932 C933 1.351 . S
C933 C927 1.428 1_455 S
C933 N932 1.351 . S
C933 C934 1.434 . S
C934 C925 1.429 . S
C934 N931 1.350 . S
C934 C933 1.434 . S
C935 C936 1.369 . S
C935 C937 1.419 . S
C935 H939 0.930 . S
C936 C935 1.369 . S
C936 C945 1.429 . S
C937 C935 1.419 . S
C937 C938 1.363 . S
C937 H940 0.929 . S
C938 C937 1.363 . S
C938 C944 1.428 . S
H939 C935 0.930 . S
H940 C937 0.929 . S
S941 N942 1.613 . S
S941 N943 1.610 . S
N942 S941 1.613 . S
N942 C945 1.350 . S
N943 S941 1.610 . S
N943 C944 1.351 . S
C944 C938 1.428 . S
C944 N943 1.351 . S
C944 C945 1.434 . S
C945 C936 1.429 . S
C945 N942 1.350 . S
C945 C944 1.434 . S
C946 C947 1.369 . S
C946 C948 1.419 . S
C946 H950 0.930 . S
C947 C946 1.369 . S
C947 C956 1.429 . S
C948 C946 1.419 . S
C948 C949 1.363 1_565 S
C948 H951 0.929 1_565 S
C949 C948 1.363 1_545 S
C949 C955 1.428 . S
H950 C946 0.930 . S
H951 C948 0.929 1_545 S
S952 N953 1.613 1_545 S
S952 N954 1.610 . S
N953 S952 1.613 1_565 S
N953 C956 1.350 . S
N954 S952 1.610 . S
N954 C955 1.351 . S
C955 C949 1.428 . S
C955 N954 1.351 . S
C955 C956 1.434 1_545 S
C956 C947 1.429 . S
C956 N953 1.350 . S
C956 C955 1.434 1_565 S
C957 C958 1.369 . S
C957 C959 1.419 . S
C957 H961 0.930 . S
C958 C957 1.369 . S
C958 C967 1.429 . S
C959 C957 1.419 . S
C959 C960 1.363 . S
C959 H962 0.929 . S
C960 C959 1.363 . S
C960 C966 1.428 . S
H961 C957 0.930 . S
H962 C959 0.929 . S
S963 N964 1.613 . S
S963 N965 1.610 . S
N964 S963 1.613 . S
N964 C967 1.350 . S
N965 S963 1.610 . S
N965 C966 1.351 . S
C966 C960 1.428 . S
C966 N965 1.351 . S
C966 C967 1.434 . S
C967 C958 1.429 . S
C967 N964 1.350 . S
C967 C966 1.434 . S
C968 C969 1.369 . S
C968 C970 1.419 . S
C968 H972 0.930 . S
C969 C968 1.369 . S
C969 C978 1.429 . S
C970 C968 1.419 . S
C970 C971 1.363 . S
C970 H973 0.929 . S
C971 C970 1.363 . S
C971 C977 1.428 . S
H972 C968 0.930 . S
H973 C970 0.929 . S
S974 N975 1.613 . S
S974 N976 1.610 . S
N975 S974 1.613 . S
N975 C978 1.350 . S
N976 S974 1.610 . S
N976 C977 1.351 . S
C977 C971 1.428 . S
C977 N976 1.351 . S
C977 C978 1.434 . S
C978 C969 1.429 . S
C978 N975 1.350 . S
C978 C977 1.434 . S
C979 C980 1.369 . S
C979 C981 1.419 . S
C979 H983 0.930 . S
C980 C979 1.369 . S
C980 C989 1.429 . S
C981 C979 1.419 . S
C981 C982 1.363 . S
C981 H984 0.929 . S
C982 C981 1.363 . S
C982 C988 1.428 . S
H983 C979 0.930 . S
H984 C981 0.929 . S
S985 N986 1.613 . S
S985 N987 1.610 . S
N986 S985 1.613 . S
N986 C989 1.350 . S
N987 S985 1.610 . S
N987 C988 1.351 . S
C988 C982 1.428 . S
C988 N987 1.351 . S
C988 C989 1.434 . S
C989 C980 1.429 . S
C989 N986 1.350 . S
C989 C988 1.434 . S
C990 C991 1.369 . S
C990 C992 1.419 . S
C990 H994 0.930 . S
C991 C990 1.369 . S
C991 C1000 1.429 . S
C992 C990 1.419 . S
C992 C993 1.363 . S
C992 H995 0.929 . S
C993 C992 1.363 . S
C993 C999 1.428 . S
H994 C990 0.930 . S
H995 C992 0.929 . S
S996 N997 1.613 . S
S996 N998 1.610 . S
N997 S996 1.613 . S
N997 C1000 1.350 . S
N998 S996 1.610 . S
N998 C999 1.351 . S
C999 C993 1.428 . S
C999 N998 1.351 . S
C999 C1000 1.434 . S
C1000 C991 1.429 . S
C1000 N997 1.350 . S
C1000 C999 1.434 . S
C1001 C1002 1.369 . S
C1001 C1003 1.419 . S
C1001 H1005 0.930 . S
C1002 C1001 1.369 . S
C1002 C1011 1.429 . S
C1003 C1001 1.419 . S
C1003 C1004 1.363 . S
C1003 H1006 0.929 . S
C1004 C1003 1.363 . S
C1004 C1010 1.428 . S
H1005 C1001 0.930 . S
H1006 C1003 0.929 . S
S1007 N1008 1.613 . S
S1007 N1009 1.610 . S
N1008 S1007 1.613 . S
N1008 C1011 1.350 . S
N1009 S1007 1.610 . S
N1009 C1010 1.351 . S
C1010 C1004 1.428 . S
C1010 N1009 1.351 . S
C1010 C1011 1.434 . S
C1011 C1002 1.429 . S
C1011 N1008 1.350 . S
C1011 C1010 1.434 . S
C1012 C1013 1.369 . S
C1012 C1014 1.419 . S
C1012 H1016 0.930 . S
C1013 C1012 1.369 . S
C1013 C1022 1.429 . S
C1014 C1012 1.419 . S
C1014 C1015 1.363 . S
C1014 H1017 0.929 . S
C1015 C1014 1.363 . S
C1015 C1021 1.428 . S
H1016 C1012 0.930 . S
H1017 C1014 0.929 . S
S1018 N1019 1.613 . S
S1018 N1020 1.610 . S
N1019 S1018 1.613 . S
N1019 C1022 1.350 . S
N1020 S1018 1.610 . S
N1020 C1021 1.351 . S
C1021 C1015 1.428 . S
C1021 N1020 1.351 . S
C1021 C1022 1.434 . S
C1022 C1013 1.429 . S
C1022 N1019 1.350 . S
C1022 C1021 1.434 . S
C1023 C1024 1.369 . S
C1023 C1025 1.419 . S
C1023 H1027 0.930 . S
C1024 C1023 1.369 . S
C1024 C1033 1.429 . S
C1025 C1023 1.419 . S
C1025 C1026 1.363 . S
C1025 H1028 0.929 . S
C1026 C1025 1.363 . S
C1026 C1032 1.428 . S
H1027 C1023 0.930 . S
H1028 C1025 0.929 . S
S1029 N1030 1.613 . S
S1029 N1031 1.610 . S
N1030 S1029 1.613 . S
N1030 C1033 1.350 . S
N1031 S1029 1.610 . S
N1031 C1032 1.351 . S
C1032 C1026 1.428 . S
C1032 N1031 1.351 . S
C1032 C1033 1.434 . S
C1033 C1024 1.429 . S
C1033 N1030 1.350 . S
C1033 C1032 1.434 . S
C1034 C1035 1.369 . S
C1034 C1036 1.419 . S
C1034 H1038 0.930 . S
C1035 C1034 1.369 . S
C1035 C1044 1.429 . S
C1036 C1034 1.419 . S
C1036 C1037 1.363 . S
C1036 H1039 0.929 . S
C1037 C1036 1.363 . S
C1037 C1043 1.428 . S
H1038 C1034 0.930 . S
H1039 C1036 0.929 . S
S1040 N1041 1.613 . S
S1040 N1042 1.610 . S
N1041 S1040 1.613 . S
N1041 C1044 1.350 . S
N1042 S1040 1.610 . S
N1042 C1043 1.351 . S
C1043 C1037 1.428 . S
C1043 N1042 1.351 . S
C1043 C1044 1.434 . S
C1044 C1035 1.429 . S
C1044 N1041 1.350 . S
C1044 C1043 1.434 . S
C1045 C1046 1.369 . S
C1045 C1047 1.419 . S
C1045 H1049 0.930 . S
C1046 C1045 1.369 . S
C1046 C1055 1.429 . S
C1047 C1045 1.419 . S
C1047 C1048 1.363 . S
C1047 H1050 0.929 . S
C1048 C1047 1.363 . S
C1048 C1054 1.428 . S
H1049 C1045 0.930 . S
H1050 C1047 0.929 . S
S1051 N1052 1.613 . S
S1051 N1053 1.610 . S
N1052 S1051 1.613 . S
N1052 C1055 1.350 . S
N1053 S1051 1.610 . S
N1053 C1054 1.351 . S
C1054 C1048 1.428 . S
C1054 N1053 1.351 . S
C1054 C1055 1.434 . S
C1055 C1046 1.429 . S
C1055 N1052 1.350 . S
C1055 C1054 1.434 . S
C1056 C1057 1.369 . S
C1056 C1058 1.419 . S
C1056 H1060 0.930 . S
C1057 C1056 1.369 . S
C1057 C1066 1.429 . S
C1058 C1056 1.419 . S
C1058 C1059 1.363 . S
C1058 H1061 0.929 . S
C1059 C1058 1.363 . S
C1059 C1065 1.428 . S
H1060 C1056 0.930 . S
H1061 C1058 0.929 . S
S1062 N1063 1.613 1_655 S
S1062 N1064 1.610 1_655 S
N1063 S1062 1.613 1_455 S
N1063 C1066 1.350 . S
N1064 S1062 1.610 1_455 S
N1064 C1065 1.351 . S
C1065 C1059 1.428 . S
C1065 N1064 1.351 . S
C1065 C1066 1.434 . S
C1066 C1057 1.429 . S
C1066 N1063 1.350 . S
C1066 C1065 1.434 . S
C1067 C1068 1.369 . S
C1067 C1069 1.419 . S
C1067 H1071 0.930 . S
C1068 C1067 1.369 . S
C1068 C1077 1.429 . S
C1069 C1067 1.419 . S
C1069 C1070 1.363 . S
C1069 H1072 0.929 . S
C1070 C1069 1.363 . S
C1070 C1076 1.428 . S
H1071 C1067 0.930 . S
H1072 C1069 0.929 . S
S1073 N1074 1.613 . S
S1073 N1075 1.610 . S
N1074 S1073 1.613 . S
N1074 C1077 1.350 . S
N1075 S1073 1.610 . S
N1075 C1076 1.351 . S
C1076 C1070 1.428 . S
C1076 N1075 1.351 . S
C1076 C1077 1.434 . S
C1077 C1068 1.429 . S
C1077 N1074 1.350 . S
C1077 C1076 1.434 . S
C1078 C1079 1.369 . S
C1078 C1080 1.419 . S
C1078 H1082 0.930 . S
C1079 C1078 1.369 . S
C1079 C1088 1.429 . S
C1080 C1078 1.419 . S
C1080 C1081 1.363 . S
C1080 H1083 0.929 . S
C1081 C1080 1.363 . S
C1081 C1087 1.428 . S
H1082 C1078 0.930 . S
H1083 C1080 0.929 . S
S1084 N1085 1.613 . S
S1084 N1086 1.610 . S
N1085 S1084 1.613 . S
N1085 C1088 1.350 . S
N1086 S1084 1.610 . S
N1086 C1087 1.351 . S
C1087 C1081 1.428 . S
C1087 N1086 1.351 . S
C1087 C1088 1.434 . S
C1088 C1079 1.429 . S
C1088 N1085 1.350 . S
C1088 C1087 1.434 . S
C1089 C1090 1.369 . S
C1089 C1091 1.419 . S
C1089 H1093 0.930 . S
C1090 C1089 1.369 . S
C1090 C1099 1.429 . S
C1091 C1089 1.419 . S
C1091 C1092 1.363 . S
C1091 H1094 0.929 . S
C1092 C1091 1.363 . S
C1092 C1098 1.428 . S
H1093 C1089 0.930 . S
H1094 C1091 0.929 . S
S1095 N1096 1.613 . S
S1095 N1097 1.610 . S
N1096 S1095 1.613 . S
N1096 C1099 1.350 . S
N1097 S1095 1.610 . S
N1097 C1098 1.351 . S
C1098 C1092 1.428 . S
C1098 N1097 1.351 . S
C1098 C1099 1.434 . S
C1099 C1090 1.429 . S
C1099 N1096 1.350 . S
C1099 C1098 1.434 . S
C1100 C1101 1.369 . S
C1100 C1102 1.419 . S
C1100 H1104 0.930 . S
C1101 C1100 1.369 . S
C1101 C1110 1.429 . S
C1102 C1100 1.419 . S
C1102 C1103 1.363 . S
C1102 H1105 0.929 . S
C1103 C1102 1.363 . S
C1103 C1109 1.428 . S
H1104 C1100 0.930 . S
H1105 C1102 0.929 . S
S1106 N1107 1.613 . S
S1106 N1108 1.610 . S
N1107 S1106 1.613 . S
N1107 C1110 1.350 . S
N1108 S1106 1.610 . S
N1108 C1109 1.351 . S
C1109 C1103 1.428 . S
C1109 N1108 1.351 . S
C1109 C1110 1.434 . S
C1110 C1101 1.429 . S
C1110 N1107 1.350 . S
C1110 C1109 1.434 . S
C1111 C1112 1.369 . S
C1111 C1113 1.419 . S
C1111 H1115 0.930 . S
C1112 C1111 1.369 . S
C1112 C1121 1.429 . S
C1113 C1111 1.419 . S
C1113 C1114 1.363 . S
C1113 H1116 0.929 . S
C1114 C1113 1.363 . S
C1114 C1120 1.428 . S
H1115 C1111 0.930 . S
H1116 C1113 0.929 . S
S1117 N1118 1.613 . S
S1117 N1119 1.610 . S
N1118 S1117 1.613 . S
N1118 C1121 1.350 . S
N1119 S1117 1.610 . S
N1119 C1120 1.351 . S
C1120 C1114 1.428 . S
C1120 N1119 1.351 . S
C1120 C1121 1.434 . S
C1121 C1112 1.429 . S
C1121 N1118 1.350 . S
C1121 C1120 1.434 . S
C1122 C1123 1.369 . S
C1122 C1124 1.419 . S
C1122 H1126 0.930 . S
C1123 C1122 1.369 . S
C1123 C1132 1.429 . S
C1124 C1122 1.419 . S
C1124 C1125 1.363 . S
C1124 H1127 0.929 . S
C1125 C1124 1.363 . S
C1125 C1131 1.428 . S
H1126 C1122 0.930 . S
H1127 C1124 0.929 . S
S1128 N1129 1.613 . S
S1128 N1130 1.610 . S
N1129 S1128 1.613 . S
N1129 C1132 1.350 . S
N1130 S1128 1.610 . S
N1130 C1131 1.351 . S
C1131 C1125 1.428 . S
C1131 N1130 1.351 . S
C1131 C1132 1.434 . S
C1132 C1123 1.429 . S
C1132 N1129 1.350 . S
C1132 C1131 1.434 . S
C1133 C1134 1.369 . S
C1133 C1135 1.419 . S
C1133 H1137 0.930 . S
C1134 C1133 1.369 . S
C1134 C1143 1.429 . S
C1135 C1133 1.419 . S
C1135 C1136 1.363 . S
C1135 H1138 0.929 . S
C1136 C1135 1.363 . S
C1136 C1142 1.428 . S
H1137 C1133 0.930 . S
H1138 C1135 0.929 . S
S1139 N1140 1.613 . S
S1139 N1141 1.610 . S
N1140 S1139 1.613 . S
N1140 C1143 1.350 . S
N1141 S1139 1.610 . S
N1141 C1142 1.351 . S
C1142 C1136 1.428 . S
C1142 N1141 1.351 . S
C1142 C1143 1.434 . S
C1143 C1134 1.429 . S
C1143 N1140 1.350 . S
C1143 C1142 1.434 . S
C1144 C1145 1.369 . S
C1144 C1146 1.419 . S
C1144 H1148 0.930 . S
C1145 C1144 1.369 . S
C1145 C1154 1.429 . S
C1146 C1144 1.419 . S
C1146 C1147 1.363 . S
C1146 H1149 0.929 . S
C1147 C1146 1.363 . S
C1147 C1153 1.428 . S
H1148 C1144 0.930 . S
H1149 C1146 0.929 . S
S1150 N1151 1.613 . S
S1150 N1152 1.610 . S
N1151 S1150 1.613 . S
N1151 C1154 1.350 . S
N1152 S1150 1.610 . S
N1152 C1153 1.351 . S
C1153 C1147 1.428 . S
C1153 N1152 1.351 . S
C1153 C1154 1.434 . S
C1154 C1145 1.429 . S
C1154 N1151 1.350 . S
C1154 C1153 1.434 . S
C1155 C1156 1.369 . S
C1155 C1157 1.419 . S
C1155 H1159 0.930 . S
C1156 C1155 1.369 . S
C1156 C1165 1.429 . S
C1157 C1155 1.419 . S
C1157 C1158 1.363 . S
C1157 H1160 0.929 . S
C1158 C1157 1.363 . S
C1158 C1164 1.428 . S
H1159 C1155 0.930 . S
H1160 C1157 0.929 . S
S1161 N1162 1.613 . S
S1161 N1163 1.610 . S
N1162 S1161 1.613 . S
N1162 C1165 1.350 . S
N1163 S1161 1.610 . S
N1163 C1164 1.351 . S
C1164 C1158 1.428 . S
C1164 N1163 1.351 . S
C1164 C1165 1.434 . S
C1165 C1156 1.429 . S
C1165 N1162 1.350 . S
C1165 C1164 1.434 . S
C1166 C1167 1.369 . S
C1166 C1168 1.419 . S
C1166 H1170 0.930 . S
C1167 C1166 1.369 . S
C1167 C1176 1.429 . S
C1168 C1166 1.419 . S
C1168 C1169 1.363 . S
C1168 H1171 0.929 . S
C1169 C1168 1.363 . S
C1169 C1175 1.428 . S
H1170 C1166 0.930 . S
H1171 C1168 0.929 . S
S1172 N1173 1.613 . S
S1172 N1174 1.610 . S
N1173 S1172 1.613 . S
N1173 C1176 1.350 . S
N1174 S1172 1.610 . S
N1174 C1175 1.351 . S
C1175 C1169 1.428 . S
C1175 N1174 1.351 . S
C1175 C1176 1.434 . S
C1176 C1167 1.429 . S
C1176 N1173 1.350 . S
C1176 C1175 1.434 . S
C1177 C1178 1.369 . S
C1177 C1179 1.419 . S
C1177 H1181 0.930 . S
C1178 C1177 1.369 . S
C1178 C1187 1.429 . S
C1179 C1177 1.419 . S
C1179 C1180 1.363 . S
C1179 H1182 0.929 . S
C1180 C1179 1.363 . S
C1180 C1186 1.428 . S
H1181 C1177 0.930 . S
H1182 C1179 0.929 . S
S1183 N1184 1.613 . S
S1183 N1185 1.610 . S
N1184 S1183 1.613 . S
N1184 C1187 1.350 . S
N1185 S1183 1.610 . S
N1185 C1186 1.351 . S
C1186 C1180 1.428 . S
C1186 N1185 1.351 . S
C1186 C1187 1.434 . S
C1187 C1178 1.429 . S
C1187 N1184 1.350 . S
C1187 C1186 1.434 . S
C595 N170 1.977 . S
C597 C246 2.037 . S
C606 N184 1.226 . S
C608 C286 1.225 . S
C617 N158 1.657 . S
C619 C316 1.645 . S
C628 N145 1.559 . S
C630 C276 1.543 1_556 S
C641 C326 0.966 . S
C639 N119 0.967 . S
C650 N131 1.784 . S
C652 C236 1.831 1_556 S
C663 C265 1.744 . S
C661 N144 1.728 . S
C674 C305 1.644 . S
C672 N118 1.657 . S
C683 N132 1.558 . S
C685 C331 1.572 . S
C694 N171 1.489 . S
C696 C291 1.490 . S
C705 N183 1.368 . S
C707 C345 1.376 . S
C718 C251 1.483 . S
C716 N157 1.490 . S
C729 C366 2.036 . S
C727 N14 1.982 . S
C738 N28 1.227 . S
C740 C406 1.224 . S
C749 N2 1.655 . S
C751 C436 1.646 . S
C760 N223 1.561 . S
C762 C396 1.541 . S
C771 N197 0.966 . S
C773 C446 0.967 . S
C782 N209 1.781 . S
C784 C356 1.834 . S
C793 N222 1.729 . S
C795 C385 1.744 . S
C804 N196 1.656 . S
C806 C425 1.643 . S
C817 C451 1.570 . S
C815 N210 1.560 . S
C826 N15 1.491 . S
C828 C411 1.490 . S
C839 C465 1.374 . S
C837 N27 1.364 . S
C848 N1 1.491 . S
C850 C371 1.484 . S
C861 C486 2.037 . S
C859 N92 1.976 . S
C870 N106 1.226 . S
C872 C526 1.225 . S
C883 C556 1.646 . S
C881 N80 1.652 . S
C894 C516 1.545 . S
C892 N67 1.557 . S
C905 C566 0.966 . S
C903 N41 0.968 . S
C914 N53 1.779 . S
C916 C476 1.833 . S
C925 N66 1.732 . S
C927 C505 1.743 . S
C936 N40 1.657 . S
C938 C545 1.644 . S
C949 C571 1.570 . S
C947 N54 1.553 . S
C958 N93 1.489 . S
C960 C531 1.495 . S
C969 N105 1.364 . S
C971 C585 1.374 . S
C980 N79 1.490 . S
C982 C491 1.479 . S
C991 N200 1.163 . S
C993 C263 1.181 . S
C1004 C303 1.885 . S
C1002 N213 1.883 . S
C1013 N226 1.601 . S
C1015 C322 1.580 . S
C1024 N83 1.809 . S
C1026 C282 1.749 . S
C1035 N96 1.728 . S
C1037 C343 1.757 . S
C1048 C242 1.312 . S
C1046 N109 1.366 . S
C1057 N44 1.163 . S
C1059 C383 1.181 . S
C1068 N57 1.880 . S
C1070 C423 1.884 . S
C1079 N70 1.605 . S
C1081 C442 1.582 . S
C1090 N161 1.812 . S
C1092 C402 1.752 . S
C1103 C463 1.757 . S
C1101 N174 1.729 . S
C1112 N187 1.368 . S
C1114 C362 1.319 . S
C1123 N122 1.170 . S
C1125 C503 1.177 . S
C1134 N135 1.885 . S
C1136 C543 1.881 . S
C1147 C562 1.585 . S
C1145 N148 1.604 . S
C1156 N5 1.808 . S
C1158 C522 1.751 . S
C1167 N18 1.726 . S
C1169 C583 1.756 . S
C1178 N31 1.367 . S
C1180 C482 1.315 . S
