# Generated by pormake.
# Topology cml, (3,6)-cn, num edge types: 1
# Building blocks:
#     Node 0, Type 0, BuildingBlock: VETTIZ_charged_linker_0, # of connection points: 3
#     Node 1, Type 0, BuildingBlock: VETTIZ_charged_linker_0, # of connection points: 3
#     Node 2, Type 0, BuildingBlock: VETTIZ_charged_linker_0, # of connection points: 3
#     Node 3, Type 0, BuildingBlock: VETTIZ_charged_linker_0, # of connection points: 3
#     Node 4, Type 0, BuildingBlock: VETTIZ_charged_linker_0, # of connection points: 3
#     Node 5, Type 0, BuildingBlock: VETTIZ_charged_linker_0, # of connection points: 3
#     Node 6, Type 0, BuildingBlock: VETTIZ_charged_linker_0, # of connection points: 3
#     Node 7, Type 0, BuildingBlock: VETTIZ_charged_linker_0, # of connection points: 3
#     Node 8, Type 1, BuildingBlock: OJICUG_clean_sbu_0, # of connection points: 6
#     Node 9, Type 1, BuildingBlock: OJICUG_clean_sbu_0, # of connection points: 6
#     Node 10, Type 1, BuildingBlock: OJICUG_clean_sbu_0, # of connection points: 6
#     Node 11, Type 1, BuildingBlock: OJICUG_clean_sbu_0, # of connection points: 6
#     Edge 12, Type (0, 1), BuildingBlock: MIFKUJ_clean_linker_0, # of connection points: 2
#     Edge 13, Type (0, 1), BuildingBlock: MIFKUJ_clean_linker_0, # of connection points: 2
#     Edge 14, Type (0, 1), BuildingBlock: MIFKUJ_clean_linker_0, # of connection points: 2
#     Edge 15, Type (0, 1), BuildingBlock: MIFKUJ_clean_linker_0, # of connection points: 2
#     Edge 16, Type (0, 1), BuildingBlock: MIFKUJ_clean_linker_0, # of connection points: 2
#     Edge 17, Type (0, 1), BuildingBlock: MIFKUJ_clean_linker_0, # of connection points: 2
#     Edge 18, Type (0, 1), BuildingBlock: MIFKUJ_clean_linker_0, # of connection points: 2
#     Edge 19, Type (0, 1), BuildingBlock: MIFKUJ_clean_linker_0, # of connection points: 2
#     Edge 20, Type (0, 1), BuildingBlock: MIFKUJ_clean_linker_0, # of connection points: 2
#     Edge 21, Type (0, 1), BuildingBlock: MIFKUJ_clean_linker_0, # of connection points: 2
#     Edge 22, Type (0, 1), BuildingBlock: MIFKUJ_clean_linker_0, # of connection points: 2
#     Edge 23, Type (0, 1), BuildingBlock: MIFKUJ_clean_linker_0, # of connection points: 2
#     Edge 24, Type (0, 1), BuildingBlock: MIFKUJ_clean_linker_0, # of connection points: 2
#     Edge 25, Type (0, 1), BuildingBlock: MIFKUJ_clean_linker_0, # of connection points: 2
#     Edge 26, Type (0, 1), BuildingBlock: MIFKUJ_clean_linker_0, # of connection points: 2
#     Edge 27, Type (0, 1), BuildingBlock: MIFKUJ_clean_linker_0, # of connection points: 2
#     Edge 28, Type (0, 1), BuildingBlock: MIFKUJ_clean_linker_0, # of connection points: 2
#     Edge 29, Type (0, 1), BuildingBlock: MIFKUJ_clean_linker_0, # of connection points: 2
#     Edge 30, Type (0, 1), BuildingBlock: MIFKUJ_clean_linker_0, # of connection points: 2
#     Edge 31, Type (0, 1), BuildingBlock: MIFKUJ_clean_linker_0, # of connection points: 2
#     Edge 32, Type (0, 1), BuildingBlock: MIFKUJ_clean_linker_0, # of connection points: 2
#     Edge 33, Type (0, 1), BuildingBlock: MIFKUJ_clean_linker_0, # of connection points: 2
#     Edge 34, Type (0, 1), BuildingBlock: MIFKUJ_clean_linker_0, # of connection points: 2
#     Edge 35, Type (0, 1), BuildingBlock: MIFKUJ_clean_linker_0, # of connection points: 2
# Relax obj value: 0.076
# Max RMSD: 0.088
# Mean RMSD: 0.083
data_MOF--net-cml--node1-OJICUG_clean_sbu_0--node2-VETTIZ_charged_linker_0--edge1-MIFKUJ_clean_linker_0
_symmetry_space_group_name_H-M    P1
_symmetry_Int_Tables_number       1
_symmetry_cell_setting            triclinic
loop_
_symmetry_equiv_pos_as_xyz
'x, y, z'
_cell_length_a     58.304603
_cell_length_b     58.883089
_cell_length_c     55.785345
_cell_angle_alpha  90.006823
_cell_angle_beta   89.965916
_cell_angle_gamma 90.043378
loop_
_atom_site_label
_atom_site_type_symbol
_atom_site_fract_x
_atom_site_fract_y
_atom_site_fract_z
_atom_type_partial_charge
C0 C 0.28937 0.38278 0.08346 0.0
C1 C 0.30693 0.39484 0.09522 0.0
C2 C 0.31373 0.41614 0.08607 0.0
C3 C 0.2863 0.41278 0.05375 0.0
C4 C 0.27933 0.39206 0.06284 0.0
C5 C 0.26094 0.38127 0.0477 0.0
H6 H 0.19408 0.38484 0.94857 0.0
C7 C 0.2731 0.41727 0.0317 0.0
C8 C 0.2581 0.39896 0.02809 0.0
H9 H 0.19879 0.3314 0.00162 0.0
H10 H 0.22597 0.35352 0.02414 0.0
H11 H 0.19531 0.42738 0.98549 0.0
H12 H 0.24769 0.39266 0.94528 0.0
H13 H 0.25404 0.42175 0.94402 0.0
H14 H 0.22752 0.41152 0.93137 0.0
H15 H 0.19806 0.43007 0.95357 0.0
H16 H 0.21393 0.44811 0.97378 0.0
C17 C 0.23902 0.37894 0.06321 0.0
C18 C 0.27037 0.3585 0.03782 0.0
C19 C 0.292 0.48654 0.98145 0.0
C20 C 0.28398 0.49445 0.95921 0.0
C21 C 0.26531 0.48329 0.94828 0.0
C22 C 0.25538 0.46407 0.95891 0.0
C23 C 0.26433 0.45576 0.9806 0.0
C24 C 0.28202 0.46727 0.99172 0.0
C25 C 0.28962 0.4559 0.01448 0.0
C26 C 0.27387 0.4354 0.01497 0.0
C27 C 0.25918 0.43533 0.99505 0.0
C28 C 0.28482 0.47233 0.03562 0.0
C29 C 0.31515 0.44901 0.01154 0.0
C30 C 0.20102 0.3778 0.96496 0.0
C31 C 0.19413 0.35629 0.97326 0.0
C32 C 0.20344 0.34804 0.99493 0.0
C33 C 0.21943 0.36084 0.00792 0.0
C34 C 0.22644 0.38208 0.99912 0.0
C35 C 0.2172 0.39026 0.97802 0.0
C36 C 0.22724 0.41281 0.97095 0.0
C37 C 0.24392 0.41687 0.99137 0.0
C38 C 0.24338 0.39881 0.00781 0.0
C39 C 0.20771 0.43063 0.97072 0.0
C40 C 0.23968 0.40977 0.94658 0.0
H41 H 0.30965 0.44133 0.05941 0.0
H42 H 0.28363 0.36644 0.09007 0.0
H43 H 0.28914 0.35961 0.03442 0.0
H44 H 0.26291 0.35379 0.02032 0.0
H45 H 0.26749 0.34443 0.05074 0.0
H46 H 0.23687 0.394 0.07505 0.0
H47 H 0.2399 0.36366 0.07485 0.0
H48 H 0.22316 0.37821 0.05245 0.0
H49 H 0.30654 0.49447 0.99018 0.0
H50 H 0.25865 0.48922 0.93127 0.0
H51 H 0.24145 0.45612 0.94954 0.0
H52 H 0.26939 0.48292 0.03208 0.0
H53 H 0.29949 0.48404 0.03858 0.0
H54 H 0.28088 0.46335 0.05253 0.0
H55 H 0.31876 0.44351 0.99283 0.0
H56 H 0.32008 0.43435 0.02273 0.0
H57 H 0.32674 0.46347 0.01566 0.0
H58 H 0.3275 0.42564 0.09442 0.0
C59 C 0.30347 0.42518 0.06554 0.0
C60 C 0.78914 0.62722 0.46218 0.0
C61 C 0.79862 0.64752 0.47113 0.0
C62 C 0.7915 0.6554 0.49385 0.0
C63 C 0.76637 0.62294 0.49837 0.0
C64 C 0.77308 0.6153 0.47602 0.0
C65 C 0.76096 0.59374 0.46896 0.0
H66 H 0.68669 0.50979 0.49809 0.0
C67 C 0.74968 0.60656 0.50823 0.0
C68 C 0.7465 0.58933 0.49114 0.0
H69 H 0.71961 0.52181 0.42961 0.0
H70 H 0.73972 0.55382 0.44628 0.0
H71 H 0.72982 0.52326 0.53287 0.0
H72 H 0.67189 0.55912 0.50411 0.0
H73 H 0.67608 0.57012 0.53292 0.0
H74 H 0.66929 0.54042 0.52934 0.0
H75 H 0.70093 0.51863 0.54289 0.0
H76 H 0.7188 0.54036 0.55602 0.0
C77 C 0.77919 0.57499 0.46516 0.0
C78 C 0.746 0.59871 0.44658 0.0
C79 C 0.71275 0.62092 0.58951 0.0
C80 C 0.69668 0.60855 0.60308 0.0
C81 C 0.68954 0.58703 0.59482 0.0
C82 C 0.69772 0.57825 0.57316 0.0
C83 C 0.7131 0.59113 0.55938 0.0
C84 C 0.72075 0.61186 0.56781 0.0
C85 C 0.73742 0.6229 0.5508 0.0
C86 C 0.73781 0.60572 0.53045 0.0
C87 C 0.72343 0.58725 0.53558 0.0
C88 C 0.76096 0.62468 0.56356 0.0
C89 C 0.72721 0.64596 0.54276 0.0
C90 C 0.69811 0.51926 0.4865 0.0
C91 C 0.70136 0.51302 0.46237 0.0
C92 C 0.71688 0.52581 0.44833 0.0
C93 C 0.72838 0.54467 0.45795 0.0
C94 C 0.7241 0.55115 0.48178 0.0
C95 C 0.70918 0.53848 0.49559 0.0
C96 C 0.70516 0.54883 0.51985 0.0
C97 C 0.72019 0.56981 0.51836 0.0
C98 C 0.73148 0.57094 0.49616 0.0
C99 C 0.71393 0.53195 0.53907 0.0
C100 C 0.67931 0.55486 0.52193 0.0
H101 H 0.7709 0.65014 0.5246 0.0
H102 H 0.79422 0.62058 0.44488 0.0
H103 H 0.74089 0.6169 0.44575 0.0
H104 H 0.72957 0.58931 0.44678 0.0
H105 H 0.75538 0.59473 0.42976 0.0
H106 H 0.79212 0.5754 0.47981 0.0
H107 H 0.78839 0.57746 0.44791 0.0
H108 H 0.77188 0.55771 0.46543 0.0
H109 H 0.71876 0.63738 0.59549 0.0
H110 H 0.67694 0.57726 0.6047 0.0
H111 H 0.69131 0.56197 0.56774 0.0
H112 H 0.76361 0.61021 0.57609 0.0
H113 H 0.76225 0.64059 0.57418 0.0
H114 H 0.77559 0.62373 0.55101 0.0
H115 H 0.70834 0.64456 0.54015 0.0
H116 H 0.73393 0.65185 0.52534 0.0
H117 H 0.73032 0.65933 0.55643 0.0
H118 H 0.79804 0.67122 0.50102 0.0
C119 C 0.77556 0.6432 0.50751 0.0
C120 C 0.70586 0.47151 0.97389 0.0
C121 C 0.68805 0.48366 0.98508 0.0
C122 C 0.6821 0.47823 0.00891 0.0
C123 C 0.70968 0.44751 0.00903 0.0
C124 C 0.71641 0.4536 0.98617 0.0
C125 C 0.73491 0.43834 0.97652 0.0
H126 H 0.79834 0.34299 0.988 0.0
C127 C 0.72258 0.42696 0.01592 0.0
C128 C 0.73756 0.42162 0.99706 0.0
H129 H 0.80036 0.39266 0.93085 0.0
H130 H 0.77204 0.41523 0.95135 0.0
H131 H 0.79809 0.38003 0.03114 0.0
H132 H 0.74418 0.34322 0.99535 0.0
H133 H 0.73773 0.34346 0.02609 0.0
H134 H 0.76361 0.32978 0.01586 0.0
H135 H 0.79361 0.35015 0.03549 0.0
H136 H 0.77846 0.37101 0.0531 0.0
C137 C 0.75688 0.45276 0.97269 0.0
C138 C 0.72571 0.42671 0.95353 0.0
C139 C 0.70192 0.3858 0.0928 0.0
C140 C 0.70901 0.36513 0.10297 0.0
C141 C 0.72645 0.35257 0.09154 0.0
C142 C 0.73643 0.36037 0.07017 0.0
C143 C 0.72875 0.38085 0.05997 0.0
C144 C 0.7119 0.39326 0.07142 0.0
C145 C 0.70527 0.41422 0.05773 0.0
C146 C 0.72097 0.41243 0.03614 0.0
C147 C 0.73464 0.39284 0.03749 0.0
C148 C 0.711 0.43523 0.07337 0.0
C149 C 0.67961 0.41201 0.05075 0.0
C150 C 0.7929 0.35885 0.98 0.0
C151 C 0.80155 0.36593 0.95764 0.0
C152 C 0.79371 0.38657 0.94781 0.0
C153 C 0.77737 0.39976 0.95983 0.0
C154 C 0.76869 0.39228 0.98196 0.0
C155 C 0.77666 0.37229 0.99183 0.0
C156 C 0.76576 0.36722 0.01569 0.0
C157 C 0.75001 0.38755 0.01854 0.0
C158 C 0.75162 0.40201 0.99859 0.0
C159 C 0.78486 0.36689 0.03498 0.0
C160 C 0.75219 0.34469 0.01338 0.0
H161 H 0.68719 0.45673 0.03885 0.0
H162 H 0.71084 0.47517 0.95559 0.0
H163 H 0.70754 0.42138 0.956 0.0
H164 H 0.73502 0.41104 0.94882 0.0
H165 H 0.72638 0.43848 0.93799 0.0
H166 H 0.75749 0.46744 0.98525 0.0
H167 H 0.75769 0.45965 0.95418 0.0
H168 H 0.77276 0.44314 0.97647 0.0
H169 H 0.68824 0.39565 0.10084 0.0
H170 H 0.73231 0.33666 0.09911 0.0
H171 H 0.74952 0.34999 0.06224 0.0
H172 H 0.72637 0.43208 0.0847 0.0
H173 H 0.69655 0.43952 0.08553 0.0
H174 H 0.7155 0.45034 0.06258 0.0
H175 H 0.67529 0.39413 0.04608 0.0
H176 H 0.67497 0.42189 0.03469 0.0
H177 H 0.66829 0.4172 0.0658 0.0
H178 H 0.66882 0.48765 0.01816 0.0
C179 C 0.69283 0.46028 0.02093 0.0
C180 C 0.2017 0.62126 0.46584 0.0
C181 C 0.19157 0.64054 0.47621 0.0
C182 C 0.19862 0.64748 0.49925 0.0
C183 C 0.22689 0.61734 0.5002 0.0
C184 C 0.21924 0.60999 0.47807 0.0
C185 C 0.23251 0.5899 0.46896 0.0
H186 H 0.32606 0.52323 0.47742 0.0
C187 C 0.24649 0.60292 0.50721 0.0
C188 C 0.24971 0.58667 0.48906 0.0
H189 H 0.27344 0.52156 0.42304 0.0
H190 H 0.25144 0.54964 0.44496 0.0
H191 H 0.32695 0.5773 0.48571 0.0
H192 H 0.29189 0.52249 0.52094 0.0
H193 H 0.29663 0.54293 0.54331 0.0
H194 H 0.32084 0.52982 0.52851 0.0
H195 H 0.34098 0.55577 0.50316 0.0
H196 H 0.32988 0.58109 0.51685 0.0
C197 C 0.24422 0.59689 0.44513 0.0
C198 C 0.21591 0.56942 0.46677 0.0
C199 C 0.29362 0.62262 0.58121 0.0
C200 C 0.31379 0.61323 0.59087 0.0
C201 C 0.32307 0.59349 0.58037 0.0
C202 C 0.31308 0.58379 0.56004 0.0
C203 C 0.2936 0.59393 0.54991 0.0
C204 C 0.28384 0.61269 0.56076 0.0
C205 C 0.26293 0.62087 0.54748 0.0
C206 C 0.26195 0.604 0.52686 0.0
C207 C 0.28016 0.5885 0.52828 0.0
C208 C 0.26773 0.64539 0.53871 0.0
C209 C 0.24192 0.61862 0.56432 0.0
C210 C 0.3098 0.52902 0.4703 0.0
C211 C 0.30154 0.52069 0.44839 0.0
C212 C 0.28008 0.52799 0.43986 0.0
C213 C 0.26745 0.54432 0.45255 0.0
C214 C 0.27641 0.5533 0.47397 0.0
C215 C 0.2969 0.54509 0.48286 0.0
C216 C 0.30326 0.55571 0.50643 0.0
C217 C 0.28358 0.57226 0.50983 0.0
C218 C 0.26816 0.57105 0.49058 0.0
C219 C 0.32654 0.56806 0.50311 0.0
C220 C 0.30335 0.53687 0.52588 0.0
H221 H 0.2211 0.64228 0.5286 0.0
H222 H 0.19635 0.61528 0.44835 0.0
H223 H 0.20158 0.57069 0.47989 0.0
H224 H 0.22433 0.55307 0.47097 0.0
H225 H 0.20823 0.56848 0.44858 0.0
H226 H 0.25164 0.61426 0.4466 0.0
H227 H 0.23168 0.59702 0.43015 0.0
H228 H 0.25869 0.58586 0.44008 0.0
H229 H 0.28604 0.63774 0.5889 0.0
H230 H 0.33824 0.58559 0.58783 0.0
H231 H 0.32119 0.569 0.55276 0.0
H232 H 0.28574 0.64707 0.53234 0.0
H233 H 0.26516 0.65786 0.55341 0.0
H234 H 0.25709 0.65043 0.52328 0.0
H235 H 0.24368 0.6036 0.57628 0.0
H236 H 0.22574 0.61572 0.55446 0.0
H237 H 0.24004 0.63386 0.57589 0.0
H238 H 0.19111 0.66233 0.50758 0.0
C239 C 0.21618 0.63594 0.51132 0.0
C240 C 0.78979 0.87541 0.08715 0.0
C241 C 0.80732 0.88731 0.0991 0.0
C242 C 0.8131 0.90936 0.09132 0.0
C243 C 0.78631 0.9062 0.05843 0.0
C244 C 0.77957 0.88516 0.06686 0.0
C245 C 0.76164 0.87441 0.05107 0.0
H246 H 0.70386 0.87452 0.94598 0.0
C247 C 0.77434 0.91046 0.03559 0.0
C248 C 0.75972 0.89199 0.03121 0.0
H249 H 0.69772 0.82676 0.0046 0.0
H250 H 0.72486 0.84853 0.02772 0.0
H251 H 0.70286 0.92009 0.98026 0.0
H252 H 0.75659 0.8804 0.94803 0.0
H253 H 0.76581 0.90873 0.94711 0.0
H254 H 0.74023 0.90054 0.93105 0.0
H255 H 0.70802 0.91922 0.94853 0.0
H256 H 0.723 0.93892 0.96766 0.0
C257 C 0.73911 0.87227 0.06566 0.0
C258 C 0.7712 0.85152 0.04171 0.0
C259 C 0.79815 0.97782 0.9847 0.0
C260 C 0.79383 0.98385 0.96071 0.0
C261 C 0.77731 0.97136 0.94771 0.0
C262 C 0.76602 0.95277 0.95812 0.0
C263 C 0.77147 0.94633 0.9817 0.0
C264 C 0.78718 0.95891 0.99461 0.0
C265 C 0.79224 0.94866 0.0187 0.0
C266 C 0.77687 0.92786 0.01818 0.0
C267 C 0.76462 0.92669 0.99658 0.0
C268 C 0.78461 0.96574 0.03825 0.0
C269 C 0.8181 0.94235 0.01941 0.0
C270 C 0.7081 0.86886 0.96391 0.0
C271 C 0.6987 0.84876 0.97335 0.0
C272 C 0.70501 0.84192 0.99667 0.0
C273 C 0.72066 0.85468 0.01017 0.0
C274 C 0.73018 0.87449 0.00029 0.0
C275 C 0.72359 0.88147 0.97767 0.0
C276 C 0.73515 0.90318 0.97023 0.0
C277 C 0.74956 0.90821 0.99224 0.0
C278 C 0.74684 0.89117 0.00963 0.0
C279 C 0.7164 0.9214 0.96626 0.0
C280 C 0.75015 0.89818 0.94786 0.0
H281 H 0.8082 0.93551 0.06585 0.0
H282 H 0.78489 0.85849 0.09278 0.0
H283 H 0.78939 0.85346 0.03602 0.0
H284 H 0.76205 0.84507 0.02583 0.0
H285 H 0.77057 0.83831 0.0559 0.0
H286 H 0.73799 0.88555 0.07981 0.0
H287 H 0.73789 0.85549 0.07466 0.0
H288 H 0.72366 0.87495 0.05449 0.0
H289 H 0.81042 0.98714 0.99545 0.0
H290 H 0.77373 0.97532 0.92914 0.0
H291 H 0.754 0.94372 0.94714 0.0
H292 H 0.76846 0.97445 0.03293 0.0
H293 H 0.79786 0.97902 0.04115 0.0
H294 H 0.78064 0.95748 0.05554 0.0
H295 H 0.82471 0.93828 0.00119 0.0
H296 H 0.82166 0.9269 0.02996 0.0
H297 H 0.82859 0.95658 0.02655 0.0
H298 H 0.82612 0.91911 0.10062 0.0
C299 C 0.80265 0.91888 0.07115 0.0
C300 C 0.28539 0.13447 0.46009 0.0
C301 C 0.29527 0.15447 0.46923 0.0
C302 C 0.28958 0.16143 0.4927 0.0
C303 C 0.26454 0.12882 0.4973 0.0
C304 C 0.27026 0.12194 0.47438 0.0
C305 C 0.25838 0.10031 0.46729 0.0
H306 H 0.18637 0.01459 0.49594 0.0
C307 C 0.24842 0.11194 0.50736 0.0
C308 C 0.24496 0.09507 0.48993 0.0
H309 H 0.2184 0.02855 0.4274 0.0
H310 H 0.23812 0.06047 0.44452 0.0
H311 H 0.22964 0.02783 0.53059 0.0
H312 H 0.1713 0.06426 0.50345 0.0
H313 H 0.17547 0.07387 0.53281 0.0
H314 H 0.16892 0.04434 0.52765 0.0
H315 H 0.20092 0.02285 0.54096 0.0
H316 H 0.21885 0.04445 0.55424 0.0
C317 C 0.27694 0.08212 0.46222 0.0
C318 C 0.24241 0.10548 0.44573 0.0
C319 C 0.21131 0.12522 0.5887 0.0
C320 C 0.19534 0.1126 0.60217 0.0
C321 C 0.18894 0.0908 0.5941 0.0
C322 C 0.1975 0.08211 0.57253 0.0
C323 C 0.21254 0.09537 0.5587 0.0
C324 C 0.21972 0.11626 0.56713 0.0
C325 C 0.23629 0.12762 0.55022 0.0
C326 C 0.23691 0.11057 0.52976 0.0
C327 C 0.22283 0.09182 0.5348 0.0
C328 C 0.25981 0.12966 0.56296 0.0
C329 C 0.22583 0.15059 0.54232 0.0
C330 C 0.19755 0.02446 0.48447 0.0
C331 C 0.20069 0.01877 0.46016 0.0
C332 C 0.21583 0.03209 0.44625 0.0
C333 C 0.22711 0.0509 0.45616 0.0
C334 C 0.22301 0.05681 0.48018 0.0
C335 C 0.20846 0.04365 0.4939 0.0
C336 C 0.20467 0.05347 0.51847 0.0
C337 C 0.21949 0.07464 0.51728 0.0
C338 C 0.23036 0.07637 0.49491 0.0
C339 C 0.21379 0.0363 0.5372 0.0
C340 C 0.17879 0.0592 0.521 0.0
H341 H 0.27067 0.1549 0.52445 0.0
H342 H 0.28908 0.12879 0.44203 0.0
H343 H 0.23661 0.12348 0.44585 0.0
H344 H 0.22635 0.09548 0.44617 0.0
H345 H 0.2513 0.10245 0.42841 0.0
H346 H 0.29087 0.08306 0.47581 0.0
H347 H 0.28483 0.08472 0.4443 0.0
H348 H 0.27032 0.06459 0.46329 0.0
H349 H 0.21687 0.14185 0.59465 0.0
H350 H 0.17657 0.08078 0.604 0.0
H351 H 0.19159 0.06563 0.56715 0.0
H352 H 0.26232 0.11572 0.57616 0.0
H353 H 0.26129 0.14599 0.57281 0.0
H354 H 0.27442 0.12801 0.55043 0.0
H355 H 0.20723 0.14864 0.53834 0.0
H356 H 0.23353 0.15737 0.52575 0.0
H357 H 0.2276 0.16354 0.55669 0.0
H358 H 0.29717 0.17658 0.50033 0.0
C359 C 0.27431 0.14872 0.50676 0.0
C360 C 0.20112 0.96393 0.96681 0.0
C361 C 0.18368 0.97709 0.97728 0.0
C362 C 0.17696 0.97251 0.00108 0.0
C363 C 0.20399 0.94137 0.0031 0.0
C364 C 0.21103 0.94628 0.98002 0.0
C365 C 0.22941 0.93035 0.97141 0.0
H366 H 0.29526 0.83766 0.99052 0.0
C367 C 0.21697 0.92134 0.01143 0.0
C368 C 0.232 0.9149 0.99302 0.0
H369 H 0.29332 0.88106 0.92801 0.0
H370 H 0.26503 0.9048 0.94699 0.0
H371 H 0.294 0.87851 0.02987 0.0
H372 H 0.24095 0.83672 0.99901 0.0
H373 H 0.23526 0.83933 0.0298 0.0
H374 H 0.2614 0.82583 0.02012 0.0
H375 H 0.2908 0.849 0.03726 0.0
H376 H 0.27502 0.87075 0.05297 0.0
C377 C 0.25143 0.94441 0.96662 0.0
C378 C 0.22004 0.91742 0.94925 0.0
C379 C 0.19758 0.88591 0.09174 0.0
C380 C 0.20556 0.86657 0.10394 0.0
C381 C 0.22371 0.85394 0.09384 0.0
C382 C 0.23338 0.86023 0.07175 0.0
C383 C 0.22474 0.87929 0.05953 0.0
C384 C 0.20736 0.89193 0.06976 0.0
C385 C 0.20013 0.91154 0.05429 0.0
C386 C 0.21585 0.90846 0.03289 0.0
C387 C 0.23017 0.8895 0.03596 0.0
C388 C 0.20531 0.93386 0.06803 0.0
C389 C 0.17456 0.90814 0.04755 0.0
C390 C 0.28887 0.85241 0.98105 0.0
C391 C 0.29645 0.85746 0.9577 0.0
C392 C 0.28751 0.87664 0.94586 0.0
C393 C 0.27116 0.89048 0.95698 0.0
C394 C 0.26352 0.88506 0.98017 0.0
C395 C 0.27243 0.86637 0.99188 0.0
C396 C 0.26204 0.86314 0.01635 0.0
C397 C 0.24554 0.88306 0.01741 0.0
C398 C 0.24647 0.89576 0.99612 0.0
C399 C 0.28137 0.86528 0.03524 0.0
C400 C 0.24933 0.84002 0.01659 0.0
H401 H 0.18091 0.95195 0.03192 0.0
H402 H 0.20685 0.96721 0.94866 0.0
H403 H 0.20143 0.91371 0.95134 0.0
H404 H 0.2281 0.90066 0.94663 0.0
H405 H 0.22219 0.92761 0.93264 0.0
H406 H 0.2528 0.95891 0.97934 0.0
H407 H 0.25145 0.95152 0.94818 0.0
H408 H 0.26732 0.93455 0.96942 0.0
H409 H 0.18342 0.89582 0.09869 0.0
H410 H 0.23037 0.83912 0.10297 0.0
H411 H 0.24701 0.84985 0.06491 0.0
H412 H 0.22065 0.93196 0.07971 0.0
H413 H 0.19068 0.9388 0.07967 0.0
H414 H 0.20958 0.94814 0.05596 0.0
H415 H 0.17075 0.88986 0.04437 0.0
H416 H 0.16968 0.91672 0.03074 0.0
H417 H 0.16309 0.91411 0.06216 0.0
H418 H 0.16339 0.98224 0.00947 0.0
C419 C 0.18703 0.95478 0.01403 0.0
C420 C 0.70664 0.12787 0.46226 0.0
C421 C 0.69625 0.14763 0.47129 0.0
C422 C 0.70237 0.15544 0.49431 0.0
C423 C 0.72911 0.12426 0.49866 0.0
C424 C 0.72288 0.11647 0.47623 0.0
C425 C 0.73561 0.09529 0.46924 0.0
H426 H 0.81756 0.01798 0.49475 0.0
C427 C 0.74652 0.10861 0.50841 0.0
C428 C 0.7502 0.09144 0.49137 0.0
H429 H 0.77867 0.02527 0.42919 0.0
H430 H 0.75634 0.05523 0.44715 0.0
H431 H 0.82556 0.07091 0.50186 0.0
H432 H 0.77599 0.02461 0.53147 0.0
H433 H 0.78207 0.04438 0.55417 0.0
H434 H 0.80469 0.0263 0.5429 0.0
H435 H 0.83275 0.04873 0.52261 0.0
H436 H 0.82365 0.07622 0.53278 0.0
C437 C 0.75034 0.10076 0.4468 0.0
C438 C 0.71791 0.07596 0.46559 0.0
C439 C 0.78642 0.12688 0.58707 0.0
C440 C 0.80318 0.11533 0.60044 0.0
C441 C 0.81022 0.09354 0.59308 0.0
C442 C 0.8015 0.08379 0.57211 0.0
C443 C 0.78562 0.09599 0.55826 0.0
C444 C 0.77772 0.11679 0.56622 0.0
C445 C 0.7598 0.12659 0.54981 0.0
C446 C 0.75913 0.10872 0.53016 0.0
C447 C 0.77458 0.09107 0.53505 0.0
C448 C 0.76868 0.14973 0.5404 0.0
C449 C 0.73682 0.12795 0.56374 0.0
C450 C 0.80424 0.02602 0.48423 0.0
C451 C 0.80009 0.01937 0.46041 0.0
C452 C 0.78219 0.02994 0.4476 0.0
C453 C 0.76939 0.04754 0.45799 0.0
C454 C 0.77467 0.05482 0.48135 0.0
C455 C 0.79159 0.04383 0.49419 0.0
C456 C 0.79553 0.05435 0.51838 0.0
C457 C 0.77842 0.07374 0.51782 0.0
C458 C 0.76626 0.07392 0.49611 0.0
C459 C 0.82067 0.06295 0.51922 0.0
C460 C 0.78945 0.03656 0.53786 0.0
H461 H 0.72278 0.15074 0.52532 0.0
H462 H 0.70211 0.12129 0.44476 0.0
H463 H 0.70401 0.07702 0.47923 0.0
H464 H 0.72539 0.05888 0.46787 0.0
H465 H 0.70981 0.07705 0.44761 0.0
H466 H 0.75611 0.11878 0.4469 0.0
H467 H 0.74046 0.09798 0.43004 0.0
H468 H 0.76638 0.09083 0.446 0.0
H469 H 0.7804 0.14347 0.59261 0.0
H470 H 0.82314 0.08436 0.60311 0.0
H471 H 0.80789 0.06737 0.56717 0.0
H472 H 0.7871 0.14849 0.53531 0.0
H473 H 0.7671 0.16309 0.55436 0.0
H474 H 0.75974 0.15555 0.52411 0.0
H475 H 0.73595 0.11497 0.57821 0.0
H476 H 0.7218 0.12428 0.55225 0.0
H477 H 0.73457 0.14486 0.57227 0.0
H478 H 0.69476 0.17075 0.50156 0.0
C479 C 0.71871 0.14386 0.50804 0.0
Sc480 Sc 7e-05 0.79952 0.31205 0.0
Sc481 Sc 0.00162 0.85947 0.31305 0.0
Sc482 Sc 0.0009 0.82908 0.36713 0.0
O483 O 0.00085 0.82931 0.33072 0.0
C484 C 0.96625 0.78839 0.35525 0.0
C485 C 0.96618 0.83098 0.28156 0.0
C486 C 0.96696 0.86993 0.35618 0.0
C487 C 0.03539 0.82903 0.28133 0.0
C488 C 0.03457 0.78823 0.35509 0.0
C489 C 0.03599 0.86941 0.35591 0.0
O490 O 0.97278 0.78561 0.33369 0.0
O491 O 0.97434 0.84949 0.28956 0.0
O492 O 0.97388 0.85372 0.36933 0.0
O493 O 0.02749 0.81003 0.2884 0.0
O494 O 0.02783 0.80442 0.36839 0.0
O495 O 0.02926 0.87258 0.33454 0.0
O496 O 0.02577 0.78395 0.33469 0.0
O497 O 0.02732 0.84794 0.28834 0.0
O498 O 0.02679 0.85502 0.36989 0.0
O499 O 0.97403 0.81162 0.28754 0.0
O500 O 0.97521 0.80298 0.36917 0.0
O501 O 0.97582 0.87444 0.33588 0.0
Sc502 Sc -0.00068 0.19893 0.81119 0.0
Sc503 Sc 0.99634 0.13912 0.81488 0.0
Sc504 Sc 0.99615 0.17187 0.86758 0.0
O505 O 0.99729 0.17 0.8312 0.0
C506 C 0.03227 0.21083 0.85521 0.0
C507 C 0.03298 0.16585 0.78278 0.0
C508 C 0.02935 0.12947 0.85929 0.0
C509 C 0.96411 0.16861 0.78099 0.0
C510 C 0.96413 0.2134 0.85231 0.0
C511 C 0.96048 0.13204 0.85749 0.0
O512 O 0.02544 0.21384 0.83379 0.0
O513 O 0.02341 0.14776 0.79022 0.0
O514 O 0.02141 0.14565 0.87187 0.0
O515 O 0.97331 0.18758 0.7862 0.0
O516 O 0.97105 0.19853 0.86716 0.0
O517 O 0.96878 0.12691 0.83715 0.0
O518 O 0.97241 0.21545 0.83131 0.0
O519 O 0.9705 0.14992 0.79014 0.0
O520 O 0.96856 0.14778 0.87055 0.0
O521 O 0.02656 0.18559 0.78914 0.0
O522 O 0.02344 0.19617 0.86912 0.0
O523 O 0.02209 0.125 0.83831 0.0
Sc524 Sc 0.4995 0.29927 0.30579 0.0
Sc525 Sc 0.50559 0.35886 0.30975 0.0
Sc526 Sc 0.4981 0.32666 0.36216 0.0
O527 O 0.50109 0.32821 0.32589 0.0
C528 C 0.46165 0.2894 0.34594 0.0
C529 C 0.46972 0.33422 0.27503 0.0
C530 C 0.46893 0.3708 0.35031 0.0
C531 C 0.53846 0.32732 0.2784 0.0
C532 C 0.52977 0.28378 0.35048 0.0
C533 C 0.53758 0.3639 0.35557 0.0
O534 O 0.47083 0.28547 0.32568 0.0
O535 O 0.47945 0.35172 0.28372 0.0
O536 O 0.47352 0.3537 0.36328 0.0
O537 O 0.52816 0.30889 0.28342 0.0
O538 O 0.52185 0.29883 0.36459 0.0
O539 O 0.53229 0.36875 0.33409 0.0
O540 O 0.52371 0.28198 0.32864 0.0
O541 O 0.53216 0.34641 0.28664 0.0
O542 O 0.52649 0.3496 0.36814 0.0
O543 O 0.47509 0.31405 0.2811 0.0
O544 O 0.46945 0.30392 0.36062 0.0
O545 O 0.47954 0.37533 0.331 0.0
Sc546 Sc 0.49933 0.69641 0.81127 0.0
Sc547 Sc 0.49774 0.6367 0.81676 0.0
Sc548 Sc 0.49861 0.67066 0.86845 0.0
O549 O 0.49854 0.66797 0.83213 0.0
C550 C 0.53462 0.70853 0.85337 0.0
C551 C 0.53333 0.66315 0.78328 0.0
C552 C 0.53107 0.6276 0.86079 0.0
C553 C 0.46431 0.66476 0.78254 0.0
C554 C 0.46629 0.71216 0.85338 0.0
C555 C 0.46201 0.63138 0.85997 0.0
O556 O 0.52575 0.71217 0.83288 0.0
O557 O 0.52446 0.64518 0.79188 0.0
O558 O 0.52287 0.64362 0.87337 0.0
O559 O 0.4728 0.68409 0.78755 0.0
O560 O 0.47469 0.69838 0.86851 0.0
O561 O 0.47076 0.6251 0.84016 0.0
O562 O 0.47266 0.71291 0.8316 0.0
O563 O 0.47156 0.64641 0.79178 0.0
O564 O 0.46991 0.64787 0.87219 0.0
O565 O 0.52619 0.68296 0.78855 0.0
O566 O 0.5272 0.69355 0.86783 0.0
O567 O 0.52406 0.62327 0.83975 0.0
H568 H 0.15988 0.32861 0.99009 0.0
H569 H 0.1345 0.30402 0.96687 0.0
H570 H 0.16527 0.328 0.90129 0.0
H571 H 0.19142 0.35202 0.92434 0.0
H572 H 0.11559 0.32618 0.90132 0.0
H573 H 0.18109 0.27925 0.91845 0.0
H574 H 0.21025 0.26186 0.94463 0.0
H575 H 0.15733 0.22861 0.98511 0.0
H576 H 0.12781 0.24609 0.95939 0.0
H577 H 0.05974 0.24115 0.83099 0.0
H578 H 0.08923 0.26602 0.84797 0.0
H579 H 0.07543 0.23893 0.9184 0.0
H580 H 0.04656 0.21376 0.90165 0.0
H581 H 0.11953 0.24265 0.91238 0.0
H582 H 0.05416 0.29099 0.89948 0.0
H583 H 0.02352 0.30902 0.87578 0.0
H584 H 0.07389 0.34018 0.83023 0.0
H585 H 0.10488 0.32204 0.85348 0.0
C586 C 0.16146 0.32853 0.97075 0.0
C587 C 0.17783 0.34222 0.95913 0.0
C588 C 0.14684 0.31458 0.95752 0.0
C589 C 0.14818 0.31415 0.93243 0.0
C590 C 0.16399 0.32819 0.92067 0.0
C591 C 0.17882 0.34198 0.9339 0.0
C592 C 0.13331 0.29862 0.91859 0.0
C593 C 0.11665 0.30788 0.90336 0.0
C594 C 0.1345 0.27484 0.92174 0.0
C595 C 0.15223 0.26414 0.93711 0.0
C596 C 0.17566 0.26837 0.93305 0.0
C597 C 0.19226 0.25848 0.94779 0.0
C598 C 0.18565 0.24418 0.96655 0.0
C599 C 0.16242 0.2397 0.97058 0.0
C600 C 0.14575 0.24959 0.95591 0.0
C601 C 0.06306 0.24044 0.85007 0.0
C602 C 0.05071 0.22549 0.86494 0.0
C603 C 0.07986 0.25472 0.85976 0.0
C604 C 0.08436 0.25451 0.88451 0.0
C605 C 0.0723 0.23936 0.89925 0.0
C606 C 0.05572 0.22499 0.8896 0.0
C607 C 0.10138 0.27015 0.89536 0.0
C608 C 0.11854 0.26092 0.91005 0.0
C609 C 0.1004 0.29398 0.89199 0.0
C610 C 0.08182 0.30494 0.87803 0.0
C611 C 0.0587 0.30154 0.88429 0.0
C612 C 0.04127 0.31181 0.87097 0.0
C613 C 0.04674 0.32569 0.85147 0.0
C614 C 0.06968 0.32939 0.84531 0.0
C615 C 0.08719 0.31912 0.85855 0.0
H616 H 0.03321 0.33363 0.84119 0.0
H617 H 0.19852 0.23653 0.97795 0.0
H618 H 0.83642 0.67025 0.48765 0.0
H619 H 0.86316 0.69364 0.46475 0.0
H620 H 0.82724 0.67716 0.39951 0.0
H621 H 0.79972 0.65437 0.42237 0.0
H622 H 0.87761 0.67477 0.39731 0.0
H623 H 0.81654 0.7254 0.42017 0.0
H624 H 0.78965 0.74314 0.44869 0.0
H625 H 0.84625 0.76928 0.48948 0.0
H626 H 0.87349 0.75138 0.46139 0.0
H627 H 0.93678 0.76046 0.33055 0.0
H628 H 0.90683 0.73595 0.34727 0.0
H629 H 0.92483 0.75801 0.4186 0.0
H630 H 0.95418 0.78288 0.40211 0.0
H631 H 0.88056 0.75744 0.41437 0.0
H632 H 0.94166 0.7057 0.39511 0.0
H633 H 0.97001 0.68711 0.36881 0.0
H634 H 0.91577 0.66214 0.32392 0.0
H635 H 0.88709 0.68091 0.34975 0.0
C636 C 0.83399 0.67173 0.46847 0.0
C637 C 0.81571 0.6606 0.45692 0.0
C638 C 0.84942 0.68496 0.45541 0.0
C639 C 0.84702 0.68719 0.43052 0.0
C640 C 0.82934 0.67555 0.41873 0.0
C641 C 0.81371 0.66248 0.43184 0.0
C642 C 0.8626 0.70239 0.41711 0.0
C643 C 0.87806 0.69292 0.40066 0.0
C644 C 0.8634 0.72593 0.42199 0.0
C645 C 0.84705 0.73689 0.43878 0.0
C646 C 0.82325 0.73478 0.43532 0.0
C647 C 0.80795 0.74489 0.4514 0.0
C648 C 0.81624 0.75729 0.47091 0.0
C649 C 0.83985 0.75965 0.47436 0.0
C650 C 0.85523 0.74955 0.45836 0.0
C651 C 0.93432 0.7601 0.34979 0.0
C652 C 0.94789 0.77365 0.36498 0.0
C653 C 0.91726 0.74601 0.35933 0.0
C654 C 0.91374 0.74496 0.38422 0.0
C655 C 0.92717 0.75858 0.39934 0.0
C656 C 0.944 0.77279 0.38985 0.0
C657 C 0.89604 0.72985 0.39478 0.0
C658 C 0.88007 0.73934 0.41073 0.0
C659 C 0.89505 0.70629 0.38969 0.0
C660 C 0.91225 0.69493 0.3742 0.0
C661 C 0.93579 0.6964 0.37952 0.0
C662 C 0.95191 0.68581 0.36472 0.0
C663 C 0.9447 0.6735 0.34468 0.0
C664 C 0.92133 0.67172 0.33943 0.0
C665 C 0.90514 0.68233 0.35414 0.0
H666 H 0.95721 0.6653 0.33325 0.0
H667 H 0.80436 0.76511 0.48334 0.0
H668 H 0.80384 0.35758 0.90935 0.0
H669 H 0.83155 0.33389 0.88806 0.0
H670 H 0.86468 0.31775 0.95507 0.0
H671 H 0.83778 0.34229 0.97633 0.0
H672 H 0.89569 0.32585 0.92173 0.0
H673 H 0.82684 0.28074 0.92722 0.0
H674 H 0.78573 0.27244 0.92152 0.0
H675 H 0.79363 0.27934 0.84533 0.0
H676 H 0.83475 0.28798 0.85061 0.0
H677 H 0.95126 0.22248 0.89827 0.0
H678 H 0.92346 0.25047 0.91209 0.0
H679 H 0.90882 0.26911 0.83895 0.0
H680 H 0.93698 0.24117 0.82478 0.0
H681 H 0.86887 0.2621 0.87067 0.0
H682 H 0.939 0.3042 0.86583 0.0
H683 H 0.98023 0.31087 0.87244 0.0
H684 H 0.96987 0.30811 0.94861 0.0
H685 H 0.92855 0.30113 0.94243 0.0
C686 C 0.81722 0.34926 0.91953 0.0
C687 C 0.81853 0.35177 0.94458 0.0
C688 C 0.83289 0.33552 0.90735 0.0
C689 C 0.84998 0.3238 0.92001 0.0
C690 C 0.85157 0.32657 0.94494 0.0
C691 C 0.83603 0.34042 0.9571 0.0
C692 C 0.86616 0.30845 0.90744 0.0
C693 C 0.88978 0.31183 0.91071 0.0
C694 C 0.85849 0.2905 0.89253 0.0
C695 C 0.8338 0.28526 0.88933 0.0
C696 C 0.81977 0.28066 0.90926 0.0
C697 C 0.79648 0.27587 0.90611 0.0
C698 C 0.78706 0.27544 0.88309 0.0
C699 C 0.80094 0.27973 0.86316 0.0
C700 C 0.82424 0.28456 0.86622 0.0
C701 C 0.94207 0.23239 0.88504 0.0
C702 C 0.94639 0.22963 0.8604 0.0
C703 C 0.92625 0.24843 0.893 0.0
C704 C 0.91429 0.26189 0.87652 0.0
C705 C 0.918 0.25885 0.85189 0.0
C706 C 0.93411 0.24297 0.84387 0.0
C707 C 0.89821 0.27934 0.88538 0.0
C708 C 0.87468 0.27634 0.88143 0.0
C709 C 0.90591 0.29754 0.89981 0.0
C710 C 0.93071 0.30195 0.90365 0.0
C711 C 0.94554 0.30484 0.88399 0.0
C712 C 0.96893 0.30871 0.88766 0.0
C713 C 0.97769 0.30985 0.91094 0.0
C714 C 0.96306 0.3072 0.93059 0.0
C715 C 0.93964 0.30332 0.92701 0.0
H716 H 0.99581 0.31284 0.91375 0.0
H717 H 0.76903 0.27172 0.88068 0.0
H718 H 0.1943 0.65313 0.42932 0.0
H719 H 0.16769 0.67708 0.40688 0.0
H720 H 0.12468 0.68313 0.46949 0.0
H721 H 0.15112 0.65881 0.49203 0.0
H722 H 0.09973 0.67612 0.42757 0.0
H723 H 0.15973 0.72484 0.45692 0.0
H724 H 0.19979 0.737 0.46299 0.0
H725 H 0.20917 0.74231 0.38685 0.0
H726 H 0.16923 0.72985 0.38031 0.0
H727 H 0.06351 0.79664 0.39243 0.0
H728 H 0.09085 0.7706 0.4107 0.0
H729 H 0.07441 0.71983 0.35766 0.0
H730 H 0.04676 0.74581 0.33922 0.0
H731 H 0.12902 0.74886 0.3945 0.0
H732 H 0.07339 0.66819 0.38764 0.0
H733 H 0.03257 0.65751 0.38423 0.0
H734 H 0.01306 0.71896 0.4203 0.0
H735 H 0.05374 0.72982 0.42424 0.0
C736 C 0.17899 0.65927 0.43821 0.0
C737 C 0.17477 0.65412 0.46243 0.0
C738 C 0.16391 0.67306 0.42541 0.0
C739 C 0.14435 0.68197 0.4366 0.0
C740 C 0.13972 0.67639 0.46058 0.0
C741 C 0.15489 0.66267 0.47345 0.0
C742 C 0.12923 0.69784 0.42354 0.0
C743 C 0.10613 0.69198 0.42024 0.0
C744 C 0.13759 0.71861 0.41423 0.0
C745 C 0.16158 0.72618 0.41812 0.0
C746 C 0.1704 0.72841 0.44146 0.0
C747 C 0.19307 0.73539 0.44499 0.0
C748 C 0.20703 0.74036 0.42532 0.0
C749 C 0.19834 0.73842 0.40207 0.0
C750 C 0.17568 0.73141 0.39844 0.0
C751 C 0.06577 0.78 0.3845 0.0
C752 C 0.05277 0.77321 0.3645 0.0
C753 C 0.08151 0.76519 0.39491 0.0
C754 C 0.08443 0.74325 0.38568 0.0
C755 C 0.07217 0.73665 0.36518 0.0
C756 C 0.05648 0.75154 0.35462 0.0
C757 C 0.09956 0.72706 0.39832 0.0
C758 C 0.12267 0.73288 0.40157 0.0
C759 C 0.09111 0.70643 0.4079 0.0
C760 C 0.0666 0.69991 0.40598 0.0
C761 C 0.06038 0.67937 0.39491 0.0
C762 C 0.03727 0.6733 0.39288 0.0
C763 C 0.02023 0.68759 0.40197 0.0
C764 C 0.02627 0.70795 0.41319 0.0
C765 C 0.04935 0.71408 0.4153 0.0
H766 H 0.00236 0.68285 0.4004 0.0
H767 H 0.22458 0.74577 0.42809 0.0
H768 H 0.69642 0.8024 0.97025 0.0
H769 H 0.66981 0.77961 0.94658 0.0
H770 H 0.63865 0.84071 0.91902 0.0
H771 H 0.66445 0.86364 0.94362 0.0
H772 H 0.60683 0.81141 0.9311 0.0
H773 H 0.67553 0.80803 0.8846 0.0
H774 H 0.71666 0.80169 0.87685 0.0
H775 H 0.70951 0.73171 0.89717 0.0
H776 H 0.66838 0.7377 0.90538 0.0
H777 H 0.54389 0.75242 0.84079 0.0
H778 H 0.57363 0.77718 0.8577 0.0
H779 H 0.59867 0.72156 0.9006 0.0
H780 H 0.56878 0.69686 0.8842 0.0
H781 H 0.63383 0.74962 0.87755 0.0
H782 H 0.566 0.75442 0.92709 0.0
H783 H 0.52487 0.76085 0.93474 0.0
H784 H 0.53084 0.82893 0.90786 0.0
H785 H 0.57195 0.82273 0.89958 0.0
C786 C 0.68375 0.81102 0.95937 0.0
C787 C 0.68259 0.83487 0.95884 0.0
C788 C 0.66875 0.79796 0.94557 0.0
C789 C 0.6525 0.80846 0.9307 0.0
C790 C 0.65117 0.83225 0.93024 0.0
C791 C 0.66606 0.84533 0.94417 0.0
C792 C 0.63643 0.79459 0.91621 0.0
C793 C 0.61279 0.79821 0.91904 0.0
C794 C 0.64417 0.77707 0.90079 0.0
C795 C 0.6689 0.77337 0.8958 0.0
C796 C 0.68276 0.79133 0.88759 0.0
C797 C 0.70607 0.78779 0.88309 0.0
C798 C 0.7157 0.76632 0.88656 0.0
C799 C 0.70203 0.74833 0.8945 0.0
C800 C 0.67871 0.75178 0.89906 0.0
C801 C 0.55595 0.74542 0.85356 0.0
C802 C 0.55395 0.72281 0.86135 0.0
C803 C 0.57285 0.75956 0.86321 0.0
C804 C 0.58818 0.75115 0.88043 0.0
C805 C 0.58696 0.72829 0.88731 0.0
C806 C 0.56983 0.71428 0.87803 0.0
C807 C 0.60445 0.7665 0.8926 0.0
C808 C 0.62803 0.76308 0.88938 0.0
C809 C 0.5967 0.78428 0.90757 0.0
C810 C 0.57197 0.78801 0.91241 0.0
C811 C 0.55849 0.77067 0.92253 0.0
C812 C 0.53519 0.77428 0.92702 0.0
C813 C 0.52523 0.79525 0.9217 0.0
C814 C 0.53856 0.81266 0.91189 0.0
C815 C 0.56186 0.80911 0.90728 0.0
H816 H 0.50722 0.79801 0.92531 0.0
H817 H 0.73376 0.76362 0.88306 0.0
H818 H 0.29812 0.20077 0.4653 0.0
H819 H 0.32486 0.22283 0.44089 0.0
H820 H 0.35509 0.16087 0.41435 0.0
H821 H 0.32906 0.1387 0.43948 0.0
H822 H 0.3874 0.19033 0.42608 0.0
H823 H 0.31873 0.19281 0.37944 0.0
H824 H 0.27763 0.19926 0.37164 0.0
H825 H 0.28539 0.26972 0.38979 0.0
H826 H 0.32649 0.26362 0.39804 0.0
H827 H 0.45142 0.24551 0.33409 0.0
H828 H 0.42101 0.22174 0.35139 0.0
H829 H 0.39644 0.279 0.39217 0.0
H830 H 0.427 0.30268 0.3754 0.0
H831 H 0.36093 0.2505 0.37028 0.0
H832 H 0.42856 0.24692 0.42002 0.0
H833 H 0.46963 0.24054 0.42801 0.0
H834 H 0.46334 0.17161 0.40374 0.0
H835 H 0.42231 0.17775 0.39511 0.0
C836 C 0.31059 0.19183 0.45444 0.0
C837 C 0.31142 0.16796 0.45432 0.0
C838 C 0.32568 0.20446 0.44026 0.0
C839 C 0.34174 0.19349 0.4255 0.0
C840 C 0.34274 0.16969 0.42548 0.0
C841 C 0.32772 0.15704 0.43972 0.0
C842 C 0.35795 0.20687 0.41061 0.0
C843 C 0.38156 0.20317 0.41355 0.0
C844 C 0.35036 0.22395 0.39458 0.0
C845 C 0.32566 0.22771 0.38955 0.0
C846 C 0.31164 0.20965 0.38194 0.0
C847 C 0.28835 0.21324 0.37741 0.0
C848 C 0.27889 0.23487 0.38027 0.0
C849 C 0.29273 0.25296 0.38761 0.0
C850 C 0.31604 0.24945 0.39219 0.0
C851 C 0.43927 0.25309 0.34641 0.0
C852 C 0.44163 0.27586 0.35356 0.0
C853 C 0.422 0.23952 0.3563 0.0
C854 C 0.40664 0.24866 0.37311 0.0
C855 C 0.40815 0.2717 0.3792 0.0
C856 C 0.42566 0.28514 0.36971 0.0
C857 C 0.39018 0.23388 0.38587 0.0
C858 C 0.36662 0.2374 0.38259 0.0
C859 C 0.39776 0.21659 0.40155 0.0
C860 C 0.42245 0.21289 0.4066 0.0
C861 C 0.436 0.23049 0.41609 0.0
C862 C 0.45926 0.22691 0.42078 0.0
C863 C 0.46912 0.20572 0.4163 0.0
C864 C 0.45572 0.18805 0.40712 0.0
C865 C 0.43246 0.19157 0.40231 0.0
H866 H 0.4871 0.20299 0.42006 0.0
H867 H 0.26085 0.23762 0.37675 0.0
H868 H 0.29578 0.84226 0.91143 0.0
H869 H 0.32429 0.81848 0.8913 0.0
H870 H 0.36389 0.81538 0.95651 0.0
H871 H 0.33568 0.83956 0.97663 0.0
H872 H 0.39055 0.82436 0.91739 0.0
H873 H 0.3319 0.77095 0.93973 0.0
H874 H 0.29263 0.7555 0.94162 0.0
H875 H 0.29072 0.75091 0.86483 0.0
H876 H 0.32989 0.76666 0.86247 0.0
H877 H 0.46 0.72755 0.89885 0.0
H878 H 0.43076 0.75392 0.91323 0.0
H879 H 0.4031 0.75921 0.84178 0.0
H880 H 0.43271 0.73301 0.82703 0.0
H881 H 0.36998 0.75044 0.88038 0.0
H882 H 0.42966 0.80167 0.85829 0.0
H883 H 0.469 0.81692 0.85659 0.0
H884 H 0.46907 0.82537 0.93304 0.0
H885 H 0.42984 0.80975 0.93526 0.0
C886 C 0.31064 0.83663 0.92143 0.0
C887 C 0.31353 0.84276 0.9456 0.0
C888 C 0.3268 0.82291 0.90996 0.0
C889 C 0.34609 0.81506 0.92248 0.0
C890 C 0.34909 0.82126 0.94657 0.0
C891 C 0.33289 0.8349 0.95807 0.0
C892 C 0.3633 0.80054 0.91043 0.0
C893 C 0.38611 0.80809 0.90951 0.0
C894 C 0.3573 0.77965 0.89954 0.0
C895 C 0.33372 0.77025 0.90091 0.0
C896 C 0.32303 0.76686 0.92324 0.0
C897 C 0.3008 0.758 0.9244 0.0
C898 C 0.28916 0.7523 0.90335 0.0
C899 C 0.29974 0.75538 0.88111 0.0
C900 C 0.32196 0.76427 0.87985 0.0
C901 C 0.44771 0.73431 0.88616 0.0
C902 C 0.44861 0.72822 0.86181 0.0
C903 C 0.43111 0.74942 0.89439 0.0
C904 C 0.41492 0.75851 0.87852 0.0
C905 C 0.41555 0.75235 0.85423 0.0
C906 C 0.43247 0.7375 0.84586 0.0
C907 C 0.3972 0.77417 0.88765 0.0
C908 C 0.37434 0.76682 0.88806 0.0
C909 C 0.40314 0.79522 0.89812 0.0
C910 C 0.42687 0.80433 0.89696 0.0
C911 C 0.43815 0.80652 0.87478 0.0
C912 C 0.46041 0.81529 0.87371 0.0
C913 C 0.47152 0.8221 0.89469 0.0
C914 C 0.46042 0.82009 0.9168 0.0
C915 C 0.43817 0.81128 0.91797 0.0
H916 H 0.48871 0.82898 0.8938 0.0
H917 H 0.27196 0.74542 0.90429 0.0
H918 H 0.69849 0.15789 0.42355 0.0
H919 H 0.6703 0.17872 0.39963 0.0
H920 H 0.6276 0.18674 0.46225 0.0
H921 H 0.65544 0.16549 0.48614 0.0
H922 H 0.60289 0.17417 0.42287 0.0
H923 H 0.66045 0.22988 0.44303 0.0
H924 H 0.69966 0.24549 0.44494 0.0
H925 H 0.70425 0.2437 0.36813 0.0
H926 H 0.66515 0.22776 0.36579 0.0
H927 H 0.5344 0.27004 0.39675 0.0
H928 H 0.5628 0.24381 0.41314 0.0
H929 H 0.59212 0.23503 0.34276 0.0
H930 H 0.56336 0.26103 0.32602 0.0
H931 H 0.62429 0.24565 0.38134 0.0
H932 H 0.56553 0.19316 0.36095 0.0
H933 H 0.52651 0.17717 0.35889 0.0
H934 H 0.52413 0.17281 0.43567 0.0
H935 H 0.56304 0.18915 0.43824 0.0
C936 C 0.68299 0.16392 0.43216 0.0
C937 C 0.67918 0.16013 0.45673 0.0
C938 C 0.66701 0.17594 0.41852 0.0
C939 C 0.64699 0.18441 0.42924 0.0
C940 C 0.64298 0.18037 0.45367 0.0
C941 C 0.65897 0.16841 0.46733 0.0
C942 C 0.63023 0.19767 0.41512 0.0
C943 C 0.60751 0.18989 0.41396 0.0
C944 C 0.63649 0.21779 0.40288 0.0
C945 C 0.65999 0.22737 0.40426 0.0
C946 C 0.6699 0.23262 0.42656 0.0
C947 C 0.69208 0.24157 0.42772 0.0
C948 C 0.70447 0.24552 0.40667 0.0
C949 C 0.69466 0.24058 0.38442 0.0
C950 C 0.67248 0.23161 0.38317 0.0
C951 C 0.54684 0.26249 0.38473 0.0
C952 C 0.54671 0.26758 0.36012 0.0
C953 C 0.56296 0.24745 0.3941 0.0
C954 C 0.57941 0.23748 0.3791 0.0
C955 C 0.57946 0.24256 0.35454 0.0
C956 C 0.56302 0.25731 0.34504 0.0
C957 C 0.59692 0.22233 0.3895 0.0
C958 C 0.61976 0.22977 0.39001 0.0
C959 C 0.59077 0.20191 0.40116 0.0
C960 C 0.56715 0.19257 0.39979 0.0
C961 C 0.5566 0.18906 0.37742 0.0
C962 C 0.53453 0.17986 0.37616 0.0
C963 C 0.52287 0.17396 0.39713 0.0
C964 C 0.53321 0.17735 0.41944 0.0
C965 C 0.55528 0.18658 0.42081 0.0
H966 H 0.50585 0.16671 0.39609 0.0
H967 H 0.72164 0.25245 0.4076 0.0
H968 H 0.29572 0.49624 0.91187 0.0
H969 H 0.32199 0.52294 0.89268 0.0
H970 H 0.32809 0.56016 0.95896 0.0
H971 H 0.30121 0.53387 0.97816 0.0
H972 H 0.32886 0.58845 0.91902 0.0
H973 H 0.36597 0.52033 0.94704 0.0
H974 H 0.37125 0.47891 0.95041 0.0
H975 H 0.38158 0.47428 0.87434 0.0
H976 H 0.37597 0.51566 0.87048 0.0
H977 H 0.43947 0.63747 0.90268 0.0
H978 H 0.40589 0.6169 0.91737 0.0
H979 H 0.4043 0.57736 0.85228 0.0
H980 H 0.43805 0.5975 0.83759 0.0
H981 H 0.4 0.55089 0.89045 0.0
H982 H 0.36523 0.61978 0.86272 0.0
H983 H 0.3601 0.66124 0.85971 0.0
H984 H 0.34579 0.6648 0.93513 0.0
H985 H 0.35117 0.62338 0.93866 0.0
C986 C 0.30206 0.5105 0.92219 0.0
C987 C 0.29659 0.51281 0.94662 0.0
C988 C 0.31721 0.52564 0.91123 0.0
C989 C 0.32727 0.54325 0.92455 0.0
C990 C 0.32059 0.5466 0.94843 0.0
C991 C 0.3054 0.53147 0.95941 0.0
C992 C 0.34644 0.55662 0.91434 0.0
C993 C 0.3445 0.58032 0.91291 0.0
C994 C 0.36669 0.5459 0.90612 0.0
C995 C 0.37031 0.52105 0.90844 0.0
C996 C 0.36919 0.51046 0.93101 0.0
C997 C 0.37227 0.48699 0.93301 0.0
C998 C 0.37669 0.47396 0.91259 0.0
C999 C 0.37811 0.48439 0.89013 0.0
C1000 C 0.37499 0.50785 0.88803 0.0
C1001 C 0.43197 0.62444 0.89144 0.0
C1002 C 0.44154 0.61912 0.86896 0.0
C1003 C 0.41267 0.6128 0.89981 0.0
C1004 C 0.40244 0.59578 0.88579 0.0
C1005 C 0.41191 0.59046 0.86337 0.0
C1006 C 0.43123 0.60201 0.85502 0.0
C1007 C 0.38246 0.58282 0.89489 0.0
C1008 C 0.38431 0.55911 0.89629 0.0
C1009 C 0.3622 0.59359 0.90309 0.0
C1010 C 0.35881 0.61849 0.90099 0.0
C1011 C 0.36116 0.62942 0.8787 0.0
C1012 C 0.35818 0.65292 0.8769 0.0
C1013 C 0.35268 0.66566 0.89723 0.0
C1014 C 0.35008 0.65492 0.9194 0.0
C1015 C 0.35307 0.63143 0.92131 0.0
H1016 H 0.35038 0.68385 0.8958 0.0
H1017 H 0.37907 0.4558 0.91417 0.0
H1018 H 0.71369 0.48305 0.42648 0.0
H1019 H 0.68953 0.45431 0.40726 0.0
H1020 H 0.6341 0.4708 0.45525 0.0
H1021 H 0.65717 0.50057 0.47339 0.0
H1022 H 0.64807 0.41938 0.44586 0.0
H1023 H 0.62564 0.49267 0.40972 0.0
H1024 H 0.63512 0.52815 0.38838 0.0
H1025 H 0.66471 0.4897 0.33072 0.0
H1026 H 0.65569 0.45399 0.35195 0.0
H1027 H 0.54407 0.37495 0.40257 0.0
H1028 H 0.57578 0.39659 0.4198 0.0
H1029 H 0.60816 0.39999 0.35023 0.0
H1030 H 0.57579 0.37948 0.33274 0.0
H1031 H 0.61106 0.43863 0.36841 0.0
H1032 H 0.62893 0.36569 0.39873 0.0
H1033 H 0.62254 0.32878 0.41851 0.0
H1034 H 0.60649 0.36278 0.4845 0.0
H1035 H 0.61246 0.39993 0.46504 0.0
C1036 C 0.69631 0.48078 0.43286 0.0
C1037 C 0.68753 0.49428 0.45161 0.0
C1038 C 0.68265 0.46415 0.42201 0.0
C1039 C 0.66018 0.46044 0.43002 0.0
C1040 C 0.65154 0.4733 0.44907 0.0
C1041 C 0.66492 0.49024 0.45954 0.0
C1042 C 0.64499 0.44413 0.41772 0.0
C1043 C 0.63985 0.42348 0.42896 0.0
C1044 C 0.63506 0.44929 0.39533 0.0
C1045 C 0.64029 0.47072 0.38254 0.0
C1046 C 0.63439 0.4918 0.39261 0.0
C1047 C 0.63962 0.51195 0.38052 0.0
C1048 C 0.65059 0.51118 0.35825 0.0
C1049 C 0.65627 0.49027 0.348 0.0
C1050 C 0.6511 0.47008 0.36005 0.0
C1051 C 0.55806 0.38018 0.39102 0.0
C1052 C 0.55746 0.37562 0.36633 0.0
C1053 C 0.5763 0.3924 0.4009 0.0
C1054 C 0.59466 0.39966 0.38642 0.0
C1055 C 0.59424 0.39466 0.36181 0.0
C1056 C 0.57574 0.38292 0.35183 0.0
C1057 C 0.6135 0.41367 0.39669 0.0
C1058 C 0.61941 0.43406 0.3851 0.0
C1059 C 0.62455 0.40793 0.41851 0.0
C1060 C 0.62099 0.38562 0.43036 0.0
C1061 C 0.62388 0.36531 0.41742 0.0
C1062 C 0.62036 0.34434 0.42858 0.0
C1063 C 0.61407 0.34344 0.45273 0.0
C1064 C 0.61135 0.36351 0.46579 0.0
C1065 C 0.61484 0.38453 0.45471 0.0
H1066 H 0.61135 0.32718 0.46134 0.0
H1067 H 0.65462 0.52679 0.3489 0.0
H1068 H 0.64173 0.48994 0.9859 0.0
H1069 H 0.61905 0.51594 0.96166 0.0
H1070 H 0.68068 0.54106 0.92802 0.0
H1071 H 0.70375 0.51557 0.95302 0.0
H1072 H 0.65107 0.57526 0.93751 0.0
H1073 H 0.64822 0.5037 0.89851 0.0
H1074 H 0.64315 0.46225 0.89519 0.0
H1075 H 0.57282 0.46867 0.91703 0.0
H1076 H 0.57756 0.51014 0.92084 0.0
H1077 H 0.55679 0.59489 0.83836 0.0
H1078 H 0.58776 0.57218 0.85558 0.0
H1079 H 0.57829 0.60567 0.92366 0.0
H1080 H 0.54773 0.62871 0.90658 0.0
H1081 H 0.58723 0.54219 0.8901 0.0
H1082 H 0.62813 0.60998 0.95338 0.0
H1083 H 0.6351 0.6513 0.95363 0.0
H1084 H 0.63356 0.65238 0.87669 0.0
H1085 H 0.62694 0.61103 0.87595 0.0
C1086 C 0.65057 0.50129 0.97373 0.0
C1087 C 0.67458 0.50066 0.9714 0.0
C1088 C 0.63754 0.51596 0.95966 0.0
C1089 C 0.64816 0.53013 0.94276 0.0
C1090 C 0.67216 0.53013 0.94087 0.0
C1091 C 0.68527 0.51546 0.95503 0.0
C1092 C 0.63396 0.54447 0.9268 0.0
C1093 C 0.63717 0.56808 0.92704 0.0
C1094 C 0.61631 0.53497 0.91255 0.0
C1095 C 0.6133 0.51003 0.9101 0.0
C1096 C 0.63171 0.49626 0.90275 0.0
C1097 C 0.62889 0.47276 0.90077 0.0
C1098 C 0.60769 0.46283 0.90593 0.0
C1099 C 0.58924 0.47639 0.91304 0.0
C1100 C 0.59197 0.4999 0.91509 0.0
C1101 C 0.56134 0.59749 0.85699 0.0
C1102 C 0.54975 0.61365 0.87108 0.0
C1103 C 0.57906 0.5845 0.86678 0.0
C1104 C 0.58555 0.58745 0.8908 0.0
C1105 C 0.57393 0.60345 0.90493 0.0
C1106 C 0.55632 0.61651 0.89516 0.0
C1107 C 0.60371 0.5731 0.90155 0.0
C1108 C 0.60126 0.54943 0.90032 0.0
C1109 C 0.62239 0.58255 0.91436 0.0
C1110 C 0.62686 0.60739 0.91464 0.0
C1111 C 0.62942 0.619 0.93651 0.0
C1112 C 0.63328 0.64244 0.93673 0.0
C1113 C 0.63471 0.65447 0.91519 0.0
C1114 C 0.63238 0.64306 0.89337 0.0
C1115 C 0.62855 0.61962 0.89304 0.0
H1116 H 0.63765 0.67262 0.91541 0.0
H1117 H 0.60554 0.44463 0.90438 0.0
H1118 H 0.29067 0.47807 0.43291 0.0
H1119 H 0.31616 0.45115 0.41216 0.0
H1120 H 0.36976 0.50167 0.41106 0.0
H1121 H 0.3446 0.52832 0.43223 0.0
H1122 H 0.36191 0.47479 0.36579 0.0
H1123 H 0.37385 0.46762 0.45248 0.0
H1124 H 0.35993 0.46081 0.49362 0.0
H1125 H 0.33392 0.39558 0.4724 0.0
H1126 H 0.34739 0.40219 0.43102 0.0
H1127 H 0.4658 0.41679 0.34577 0.0
H1128 H 0.43441 0.44119 0.35923 0.0
H1129 H 0.397 0.38208 0.38337 0.0
H1130 H 0.42907 0.35791 0.37142 0.0
H1131 H 0.39259 0.41145 0.41485 0.0
H1132 H 0.38291 0.4145 0.33034 0.0
H1133 H 0.39399 0.41965 0.28802 0.0
H1134 H 0.41138 0.48928 0.30199 0.0
H1135 H 0.40072 0.48447 0.34449 0.0
C1136 C 0.30781 0.4834 0.42794 0.0
C1137 C 0.31585 0.50507 0.43419 0.0
C1138 C 0.32228 0.46811 0.41614 0.0
C1139 C 0.34475 0.47454 0.41014 0.0
C1140 C 0.35242 0.49652 0.41548 0.0
C1141 C 0.33815 0.51161 0.42765 0.0
C1142 C 0.36098 0.45793 0.39996 0.0
C1143 C 0.36877 0.46094 0.37641 0.0
C1144 C 0.3692 0.43955 0.4137 0.0
C1145 C 0.36137 0.43551 0.43863 0.0
C1146 C 0.36498 0.45192 0.45655 0.0
C1147 C 0.35721 0.44808 0.47991 0.0
C1148 C 0.34599 0.4278 0.4856 0.0
C1149 C 0.34258 0.4113 0.46796 0.0
C1150 C 0.35028 0.41508 0.44455 0.0
C1151 C 0.45082 0.40909 0.35392 0.0
C1152 C 0.44982 0.38556 0.35767 0.0
C1153 C 0.43278 0.42299 0.36141 0.0
C1154 C 0.41304 0.41349 0.37193 0.0
C1155 C 0.412 0.38988 0.37536 0.0
C1156 C 0.43031 0.37607 0.36853 0.0
C1157 C 0.394 0.42822 0.38043 0.0
C1158 C 0.38564 0.42497 0.40382 0.0
C1159 C 0.38485 0.44604 0.36625 0.0
C1160 C 0.39117 0.44906 0.34066 0.0
C1161 C 0.38924 0.43087 0.32443 0.0
C1162 C 0.39543 0.43374 0.3004 0.0
C1163 C 0.40342 0.45476 0.29234 0.0
C1164 C 0.40519 0.47299 0.30827 0.0
C1165 C 0.39905 0.47021 0.33233 0.0
H1166 H 0.40821 0.45695 0.27373 0.0
H1167 H 0.33998 0.42486 0.5037 0.0
H1168 H 0.83917 0.99387 0.96807 0.0
H1169 H 0.86234 0.02268 0.94828 0.0
H1170 H 0.80444 0.04234 0.90511 0.0
H1171 H 0.78038 0.01445 0.92596 0.0
H1172 H 0.85926 0.02642 0.88614 0.0
H1173 H 0.80849 0.08058 0.92765 0.0
H1174 H 0.78832 0.09391 0.9639 0.0
H1175 H 0.85235 0.09762 0.00172 0.0
H1176 H 0.87283 0.08396 0.96576 0.0
H1177 H 0.92621 0.11261 0.83127 0.0
H1178 H 0.89348 0.09079 0.84622 0.0
H1179 H 0.91799 0.09941 0.9187 0.0
H1180 H 0.94991 0.12233 0.90389 0.0
H1181 H 0.87489 0.10287 0.91981 0.0
H1182 H 0.92614 0.04886 0.8834 0.0
H1183 H 0.9495 0.03222 0.85097 0.0
H1184 H 0.88925 0.0243 0.80754 0.0
H1185 H 0.86556 0.04115 0.83962 0.0
C1186 C 0.83102 0.00467 0.95489 0.0
C1187 C 0.80772 0.0019 0.94887 0.0
C1188 C 0.84443 0.02097 0.94342 0.0
C1189 C 0.83499 0.03461 0.92544 0.0
C1190 C 0.8119 0.03196 0.91911 0.0
C1191 C 0.79827 0.01589 0.93092 0.0
C1192 C 0.84986 0.05099 0.91289 0.0
C1193 C 0.86235 0.0434 0.89301 0.0
C1194 C 0.85437 0.07264 0.92261 0.0
C1195 C 0.84212 0.08101 0.94413 0.0
C1196 C 0.81822 0.084 0.94378 0.0
C1197 C 0.80674 0.09167 0.96424 0.0
C1198 C 0.81904 0.09654 0.98512 0.0
C1199 C 0.84284 0.09381 0.98555 0.0
C1200 C 0.85439 0.08612 0.96513 0.0
C1201 C 0.92453 0.10986 0.85039 0.0
C1202 C 0.94064 0.119 0.86643 0.0
C1203 C 0.90587 0.09732 0.85892 0.0
C1204 C 0.90344 0.09305 0.88358 0.0
C1205 C 0.91941 0.10248 0.89961 0.0
C1206 C 0.93771 0.1155 0.89114 0.0
C1207 C 0.88461 0.07842 0.89281 0.0
C1208 C 0.87153 0.08619 0.91233 0.0
C1209 C 0.87994 0.05665 0.88306 0.0
C1210 C 0.89414 0.04651 0.86378 0.0
C1211 C 0.91791 0.04372 0.86686 0.0
C1212 C 0.9312 0.03423 0.84856 0.0
C1213 C 0.92088 0.02728 0.82718 0.0
C1214 C 0.89723 0.02974 0.82409 0.0
C1215 C 0.88386 0.03924 0.84232 0.0
H1216 H 0.93119 0.01993 0.81303 0.0
H1217 H 0.81012 0.10248 0.00095 0.0
H1218 H 0.2133 0.98984 0.42345 0.0
H1219 H 0.18933 0.96158 0.40323 0.0
H1220 H 0.13387 0.97607 0.45191 0.0
H1221 H 0.15676 0.00541 0.47111 0.0
H1222 H 0.14943 0.92474 0.44003 0.0
H1223 H 0.12439 0.99943 0.40805 0.0
H1224 H 0.13304 0.03581 0.38805 0.0
H1225 H 0.16218 -5e-05 0.32832 0.0
H1226 H 0.15398 0.96336 0.34819 0.0
H1227 H 0.04429 0.88193 0.40202 0.0
H1228 H 0.07641 0.90416 0.41723 0.0
H1229 H 0.10456 0.90858 0.34576 0.0
H1230 H 0.07165 0.88728 0.33025 0.0
H1231 H 0.10917 0.94709 0.3653 0.0
H1232 H 0.12819 0.87314 0.39076 0.0
H1233 H 0.12265 0.83527 0.40868 0.0
H1234 H 0.11031 0.86578 0.47739 0.0
H1235 H 0.11541 0.90388 0.45982 0.0
C1236 C 0.19595 0.98724 0.42978 0.0
C1237 C 0.18708 9e-05 0.449 0.0
C1238 C 0.1824 0.97089 0.41834 0.0
C1239 C 0.15997 0.9668 0.42622 0.0
C1240 C 0.15128 0.97893 0.44578 0.0
C1241 C 0.16455 0.9956 0.45686 0.0
C1242 C 0.1449 0.95075 0.41343 0.0
C1243 C 0.14052 0.9295 0.42373 0.0
C1244 C 0.13417 0.95677 0.39168 0.0
C1245 C 0.13887 0.97872 0.37972 0.0
C1246 C 0.13285 0.99933 0.39077 0.0
C1247 C 0.13762 0.01998 0.37943 0.0
C1248 C 0.14823 0.0202 0.35696 0.0
C1249 C 0.15401 -0.00024 0.34574 0.0
C1250 C 0.14931 0.97907 0.35703 0.0
C1251 C 0.05736 0.88761 0.38956 0.0
C1252 C 0.05551 0.88286 0.36498 0.0
C1253 C 0.07584 0.90016 0.39829 0.0
C1254 C 0.09327 0.90762 0.38276 0.0
C1255 C 0.0914 0.90296 0.35813 0.0
C1256 C 0.0726 0.89081 0.34929 0.0
C1257 C 0.11286 0.92103 0.39227 0.0
C1258 C 0.11823 0.94188 0.38136 0.0
C1259 C 0.12497 0.91431 0.41314 0.0
C1260 C 0.12206 0.89141 0.42391 0.0
C1261 C 0.12416 0.8718 0.40966 0.0
C1262 C 0.12111 0.85028 0.41976 0.0
C1263 C 0.1161 0.84812 0.44415 0.0
C1264 C 0.11419 0.86748 0.4585 0.0
C1265 C 0.11719 0.88904 0.44849 0.0
H1266 H 0.11373 0.83144 0.45194 0.0
H1267 H 0.1519 0.0362 0.34821 0.0
H1268 H 0.17144 0.01976 0.99174 0.0
H1269 H 0.14816 0.04733 0.96978 0.0
H1270 H 0.14535 0.00191 0.90917 0.0
H1271 H 0.16865 0.97427 0.93101 0.0
H1272 H 0.15024 0.04615 0.89507 0.0
H1273 H 0.1018 0.00317 0.94811 0.0
H1274 H 0.0899 0.98714 0.98701 0.0
H1275 H 0.08336 0.05433 0.01613 0.0
H1276 H 0.09557 0.07076 0.97748 0.0
H1277 H 0.04925 0.09129 0.84011 0.0
H1278 H 0.07837 0.06705 0.85851 0.0
H1279 H 0.08021 0.11105 0.92031 0.0
H1280 H 0.05098 0.13517 0.90233 0.0
H1281 H 0.07649 0.06766 0.93325 0.0
H1282 H 0.12376 0.11076 0.87935 0.0
H1283 H 0.13548 0.12647 0.84024 0.0
H1284 H 0.14376 0.05902 0.8123 0.0
H1285 H 0.13177 0.04289 0.85117 0.0
C1286 C 0.16595 0.01571 0.97369 0.0
C1287 C 0.17166 0.99477 0.96318 0.0
C1288 C 0.15272 0.03148 0.96115 0.0
C1289 C 0.14476 0.02648 0.938 0.0
C1290 C 0.15133 0.00607 0.92702 0.0
C1291 C 0.16466 0.99032 0.93951 0.0
C1292 C 0.12839 0.04187 0.92588 0.0
C1293 C 0.13401 0.05071 0.90327 0.0
C1294 C 0.10737 0.04802 0.93678 0.0
C1295 C 0.09982 0.03818 0.95997 0.0
C1296 C 0.09799 0.01452 0.96286 0.0
C1297 C 0.09117 0.00536 0.98486 0.0
C1298 C 0.08594 0.0197 0.00405 0.0
C1299 C 0.08745 0.04324 0.00126 0.0
C1300 C 0.09431 0.05249 0.97931 0.0
C1301 C 0.05593 0.0959 0.85756 0.0
C1302 C 0.04766 0.11514 0.86977 0.0
C1303 C 0.07266 0.08208 0.86799 0.0
C1304 C 0.08156 0.08735 0.8907 0.0
C1305 C 0.07355 0.10667 0.90278 0.0
C1306 C 0.05683 0.12044 0.89243 0.0
C1307 C 0.09839 0.0722 0.90249 0.0
C1308 C 0.09277 0.06326 0.92505 0.0
C1309 C 0.11933 0.06596 0.89147 0.0
C1310 C 0.12665 0.07562 0.86811 0.0
C1311 C 0.1279 0.09927 0.86481 0.0
C1312 C 0.13463 0.10826 0.8427 0.0
C1313 C 0.14031 0.09375 0.82378 0.0
C1314 C 0.13933 0.07023 0.82696 0.0
C1315 C 0.13259 0.06116 0.84904 0.0
H1316 H 0.14551 0.10074 0.80667 0.0
H1317 H 0.08066 0.01258 0.02107 0.0
H1318 H 0.78877 0.98544 0.42859 0.0
H1319 H 0.81497 0.95932 0.4081 0.0
H1320 H 0.87226 0.98947 0.44532 0.0
H1321 H 0.84653 0.01618 0.46484 0.0
H1322 H 0.88264 0.98397 0.40022 0.0
H1323 H 0.84882 0.93787 0.46233 0.0
H1324 H 0.81707 0.91997 0.48465 0.0
H1325 H 0.79579 0.88483 0.42097 0.0
H1326 H 0.82726 0.90277 0.39819 0.0
H1327 H 0.94795 0.87012 0.40099 0.0
H1328 H 0.91738 0.89449 0.41598 0.0
H1329 H 0.91143 0.9259 0.34639 0.0
H1330 H 0.94244 0.90192 0.33131 0.0
H1331 H 0.8737 0.90031 0.40517 0.0
H1332 H 0.89845 0.98178 0.3539 0.0
H1333 H 0.93259 -0.00032 0.33575 0.0
H1334 H 0.97609 0.96409 0.38516 0.0
H1335 H 0.9422 0.94622 0.40378 0.0
C1336 C 0.80697 0.98657 0.43227 0.0
C1337 C 0.81552 0.00278 0.44851 0.0
C1338 C 0.82189 0.97153 0.4207 0.0
C1339 C 0.84555 0.97234 0.42533 0.0
C1340 C 0.85407 0.98852 0.44147 0.0
C1341 C 0.83926 0.0036 0.45287 0.0
C1342 C 0.86169 0.95651 0.41342 0.0
C1343 C 0.88059 0.96567 0.40117 0.0
C1344 C 0.85914 0.93264 0.41485 0.0
C1345 C 0.84022 0.92186 0.42851 0.0
C1346 C 0.83726 0.92647 0.45305 0.0
C1347 C 0.81934 0.91629 0.46579 0.0
C1348 C 0.80438 0.90133 0.45422 0.0
C1349 C 0.80736 0.89646 0.4299 0.0
C1350 C 0.82524 0.90662 0.41707 0.0
C1351 C 0.94014 0.88216 0.3888 0.0
C1352 C 0.94784 0.88421 0.36499 0.0
C1353 C 0.92257 0.89601 0.39739 0.0
C1354 C 0.91227 0.91215 0.38238 0.0
C1355 C 0.91939 0.91379 0.35839 0.0
C1356 C 0.93713 0.90006 0.34981 0.0
C1357 C 0.89475 0.9278 0.39223 0.0
C1358 C 0.87556 0.91861 0.40396 0.0
C1359 C 0.89732 0.95166 0.3909 0.0
C1360 C 0.91781 0.96248 0.38001 0.0
C1361 C 0.9153 0.97783 0.36091 0.0
C1362 C 0.93461 0.98796 0.35055 0.0
C1363 C 0.9565 0.98296 0.35924 0.0
C1364 C 0.95913 0.96788 0.37838 0.0
C1365 C 0.93989 0.95773 0.38882 0.0
H1366 H 0.97142 0.9908 0.35118 0.0
H1367 H 0.79052 0.89346 0.46411 0.0
H1368 H 0.32106 0.41689 0.13573 0.0
H1369 H 0.34625 0.40229 0.16708 0.0
H1370 H 0.34506 0.33604 0.13422 0.0
H1371 H 0.32036 0.35066 0.10221 0.0
H1372 H 0.34329 0.33784 0.18839 0.0
H1373 H 0.38722 0.36325 0.12009 0.0
H1374 H 0.39749 0.39051 0.08829 0.0
H1375 H 0.41446 0.4405 0.14146 0.0
H1376 H 0.4039 0.41363 0.17359 0.0
H1377 H 0.4465 0.30211 0.24859 0.0
H1378 H 0.41642 0.30872 0.21875 0.0
H1379 H 0.4207 0.38082 0.23182 0.0
H1380 H 0.45079 0.37451 0.26119 0.0
H1381 H 0.42096 0.37232 0.1853 0.0
H1382 H 0.37631 0.34876 0.25348 0.0
H1383 H 0.36475 0.32306 0.28623 0.0
H1384 H 0.34836 0.27109 0.23501 0.0
H1385 H 0.36014 0.2964 0.20195 0.0
C1386 C 0.32603 0.39917 0.13519 0.0
C1387 C 0.31904 0.38505 0.11622 0.0
C1388 C 0.34024 0.39083 0.15323 0.0
C1389 C 0.34761 0.36818 0.15276 0.0
C1390 C 0.33945 0.35357 0.13485 0.0
C1391 C 0.32533 0.36196 0.11662 0.0
C1392 C 0.36572 0.3607 0.16948 0.0
C1393 C 0.36041 0.34503 0.18757 0.0
C1394 C 0.38787 0.37043 0.16849 0.0
C1395 C 0.39457 0.3865 0.14923 0.0
C1396 C 0.39297 0.38011 0.12499 0.0
C1397 C 0.39886 0.39548 0.10691 0.0
C1398 C 0.40657 0.41724 0.11285 0.0
C1399 C 0.40846 0.42365 0.13689 0.0
C1400 C 0.40254 0.40835 0.15504 0.0
C1401 C 0.441 0.31936 0.24514 0.0
C1402 C 0.45119 0.33777 0.25723 0.0
C1403 C 0.42374 0.3231 0.22816 0.0
C1404 C 0.41626 0.34526 0.22315 0.0
C1405 C 0.42627 0.36358 0.23533 0.0
C1406 C 0.44351 0.3599 0.25216 0.0
C1407 C 0.39854 0.34972 0.20471 0.0
C1408 C 0.40395 0.36486 0.18613 0.0
C1409 C 0.37649 0.3396 0.20543 0.0
C1410 C 0.36937 0.32437 0.22527 0.0
C1411 C 0.37044 0.33178 0.24921 0.0
C1412 C 0.36381 0.3173 0.26783 0.0
C1413 C 0.3559 0.29543 0.26271 0.0
C1414 C 0.35454 0.28802 0.23895 0.0
C1415 C 0.36118 0.30243 0.22027 0.0
H1416 H 0.35076 0.28424 0.27715 0.0
H1417 H 0.41112 0.42912 0.09883 0.0
H1418 H 0.68749 0.58714 0.64546 0.0
H1419 H 0.66324 0.60102 0.67803 0.0
H1420 H 0.6575 0.66597 0.64289 0.0
H1421 H 0.68143 0.65207 0.60988 0.0
H1422 H 0.66022 0.66708 0.69627 0.0
H1423 H 0.61781 0.63328 0.63111 0.0
H1424 H 0.61 0.60329 0.60136 0.0
H1425 H 0.59965 0.55498 0.65801 0.0
H1426 H 0.60783 0.58462 0.6881 0.0
H1427 H 0.55379 0.69588 0.75521 0.0
H1428 H 0.58484 0.69054 0.72612 0.0
H1429 H 0.58811 0.61944 0.74449 0.0
H1430 H 0.55708 0.62446 0.77311 0.0
H1431 H 0.58658 0.62472 0.69758 0.0
H1432 H 0.62919 0.65752 0.76291 0.0
H1433 H 0.6383 0.68659 0.79326 0.0
H1434 H 0.64875 0.736 0.7377 0.0
H1435 H 0.63938 0.70727 0.70701 0.0
C1436 C 0.68134 0.60448 0.6448 0.0
C1437 C 0.68602 0.61837 0.6249 0.0
C1438 C 0.66765 0.61243 0.6635 0.0
C1439 C 0.65842 0.6344 0.66265 0.0
C1440 C 0.66454 0.64897 0.64383 0.0
C1441 C 0.67822 0.64099 0.62501 0.0
C1442 C 0.64006 0.64082 0.67962 0.0
C1443 C 0.64397 0.65809 0.69644 0.0
C1444 C 0.61903 0.62887 0.67987 0.0
C1445 C 0.61364 0.61112 0.66184 0.0
C1446 C 0.61404 0.61622 0.63721 0.0
C1447 C 0.60953 0.59929 0.62029 0.0
C1448 C 0.60439 0.57723 0.62778 0.0
C1449 C 0.60367 0.57207 0.65223 0.0
C1450 C 0.60823 0.58893 0.66922 0.0
C1451 C 0.56122 0.67914 0.75314 0.0
C1452 C 0.55279 0.66057 0.76638 0.0
C1453 C 0.57903 0.67614 0.73659 0.0
C1454 C 0.58884 0.6546 0.7332 0.0
C1455 C 0.58073 0.6362 0.74672 0.0
C1456 C 0.56294 0.63912 0.7631 0.0
C1457 C 0.60679 0.65069 0.71482 0.0
C1458 C 0.60274 0.63388 0.6975 0.0
C1459 C 0.62764 0.66304 0.71426 0.0
C1460 C 0.63332 0.68031 0.73268 0.0
C1461 C 0.63323 0.67463 0.75717 0.0
C1462 C 0.63848 0.69104 0.77443 0.0
C1463 C 0.64403 0.71315 0.76742 0.0
C1464 C 0.64441 0.71888 0.74311 0.0
C1465 C 0.63914 0.70254 0.72577 0.0
H1466 H 0.6481 0.72583 0.78081 0.0
H1467 H 0.60091 0.56414 0.61466 0.0
H1468 H 0.69418 0.32175 0.11144 0.0
H1469 H 0.66988 0.30868 0.14449 0.0
H1470 H 0.67194 0.3757 0.1757 0.0
H1471 H 0.69676 0.38865 0.14317 0.0
H1472 H 0.6728 0.34329 0.21006 0.0
H1473 H 0.62858 0.36016 0.13872 0.0
H1474 H 0.61812 0.35594 0.09612 0.0
H1475 H 0.60384 0.28518 0.10735 0.0
H1476 H 0.61455 0.28893 0.14998 0.0
H1477 H 0.56845 0.36182 0.26907 0.0
H1478 H 0.6014 0.36142 0.24229 0.0
H1479 H 0.58793 0.29133 0.22476 0.0
H1480 H 0.5546 0.29154 0.25158 0.0
H1481 H 0.59532 0.31771 0.18492 0.0
H1482 H 0.63321 0.30365 0.25899 0.0
H1483 H 0.64231 0.3097 0.30167 0.0
H1484 H 0.66747 0.37656 0.2857 0.0
H1485 H 0.65821 0.37106 0.24296 0.0
C1486 C 0.68995 0.33353 0.12568 0.0
C1487 C 0.69715 0.3563 0.12458 0.0
C1488 C 0.67593 0.32608 0.14445 0.0
C1489 C 0.6688 0.34133 0.16232 0.0
C1490 C 0.67716 0.36367 0.16204 0.0
C1491 C 0.69117 0.37111 0.14334 0.0
C1492 C 0.65112 0.33479 0.18014 0.0
C1493 C 0.65585 0.3377 0.2046 0.0
C1494 C 0.62917 0.327 0.17301 0.0
C1495 C 0.62264 0.32475 0.14744 0.0
C1496 C 0.62338 0.34366 0.13205 0.0
C1497 C 0.61739 0.34136 0.10792 0.0
C1498 C 0.61039 0.32029 0.09901 0.0
C1499 C 0.60932 0.30148 0.11425 0.0
C1500 C 0.61535 0.30368 0.1384 0.0
C1501 C 0.57245 0.34624 0.25962 0.0
C1502 C 0.55879 0.32671 0.26245 0.0
C1503 C 0.59144 0.34601 0.24444 0.0
C1504 C 0.59728 0.32626 0.23179 0.0
C1505 C 0.58376 0.3067 0.2345 0.0
C1506 C 0.56475 0.30686 0.24984 0.0
C1507 C 0.61683 0.32669 0.21483 0.0
C1508 C 0.61243 0.32272 0.19048 0.0
C1509 C 0.63901 0.33367 0.22209 0.0
C1510 C 0.64489 0.33697 0.24775 0.0
C1511 C 0.64056 0.3197 0.26459 0.0
C1512 C 0.64576 0.32302 0.2888 0.0
C1513 C 0.65543 0.34351 0.2964 0.0
C1514 C 0.65998 0.36069 0.27979 0.0
C1515 C 0.65479 0.35747 0.25556 0.0
H1516 H 0.65943 0.34606 0.31515 0.0
H1517 H 0.60575 0.31854 0.08032 0.0
H1518 H 0.3596 0.6205 0.5956 0.0
H1519 H 0.38006 0.63527 0.6303 0.0
H1520 H 0.31574 0.64643 0.66675 0.0
H1521 H 0.29507 0.63084 0.63211 0.0
H1522 H 0.38131 0.67434 0.6537 0.0
H1523 H 0.32503 0.63471 0.72689 0.0
H1524 H 0.29729 0.60342 0.73232 0.0
H1525 H 0.33011 0.56569 0.67607 0.0
H1526 H 0.35819 0.59661 0.67054 0.0
H1527 H 0.43798 0.69944 0.76435 0.0
H1528 H 0.40713 0.69649 0.73471 0.0
H1529 H 0.4173 0.62398 0.73114 0.0
H1530 H 0.44748 0.62666 0.76103 0.0
H1531 H 0.37345 0.63265 0.73054 0.0
H1532 H 0.44083 0.66186 0.68923 0.0
H1533 H 0.47189 0.68954 0.68209 0.0
H1534 H 0.42215 0.74235 0.67154 0.0
H1535 H 0.3908 0.715 0.6789 0.0
C1536 C 0.34978 0.62603 0.61101 0.0
C1537 C 0.32575 0.62413 0.61131 0.0
C1538 C 0.36148 0.63474 0.63073 0.0
C1539 C 0.34945 0.64179 0.65119 0.0
C1540 C 0.32537 0.64088 0.65121 0.0
C1541 C 0.31359 0.63209 0.6314 0.0
C1542 C 0.36254 0.64853 0.67283 0.0
C1543 C 0.37938 0.66546 0.67063 0.0
C1544 C 0.36013 0.63686 0.69486 0.0
C1545 C 0.34346 0.6181 0.6981 0.0
C1546 C 0.32631 0.61971 0.71572 0.0
C1547 C 0.31055 0.60205 0.71881 0.0
C1548 C 0.31188 0.58262 0.70448 0.0
C1549 C 0.32904 0.58078 0.68709 0.0
C1550 C 0.34486 0.59838 0.68395 0.0
C1551 C 0.43358 0.68287 0.75729 0.0
C1552 C 0.44533 0.66331 0.76496 0.0
C1553 C 0.41594 0.68122 0.74036 0.0
C1554 C 0.41002 0.66003 0.73055 0.0
C1555 C 0.42145 0.6405 0.73854 0.0
C1556 C 0.43884 0.64209 0.75557 0.0
C1557 C 0.39272 0.65796 0.71117 0.0
C1558 C 0.37499 0.642 0.71385 0.0
C1559 C 0.39471 0.67008 0.68936 0.0
C1560 C 0.41352 0.68648 0.6849 0.0
C1561 C 0.43654 0.67941 0.68555 0.0
C1562 C 0.45419 0.69503 0.68144 0.0
C1563 C 0.44899 0.71771 0.67645 0.0
C1564 C 0.42614 0.72479 0.67547 0.0
C1565 C 0.40844 0.70925 0.6796 0.0
H1566 H 0.46267 0.72977 0.67326 0.0
H1567 H 0.29965 0.56897 0.70689 0.0
H1568 H 0.79142 0.86199 0.13708 0.0
H1569 H 0.81424 0.84512 0.16953 0.0
H1570 H 0.87603 0.8714 0.13715 0.0
H1571 H 0.85357 0.88769 0.10465 0.0
H1572 H 0.88257 0.82891 0.15314 0.0
H1573 H 0.84942 0.89951 0.18262 0.0
H1574 H 0.81736 0.92503 0.19294 0.0
H1575 H 0.79067 0.8751 0.24167 0.0
H1576 H 0.82246 0.84918 0.23138 0.0
H1577 H 0.94485 0.86916 0.26517 0.0
H1578 H 0.91372 0.87185 0.23642 0.0
H1579 H 0.9114 0.79882 0.23085 0.0
H1580 H 0.94306 0.79587 0.25957 0.0
H1581 H 0.87037 0.85745 0.23584 0.0
H1582 H 0.89738 0.78639 0.17185 0.0
H1583 H 0.93182 0.76454 0.16043 0.0
H1584 H 0.97461 0.82121 0.17921 0.0
H1585 H 0.94041 0.84344 0.19046 0.0
C1586 C 0.8099 0.86393 0.13682 0.0
C1587 C 0.8207 0.87644 0.11854 0.0
C1588 C 0.82288 0.85435 0.15536 0.0
C1589 C 0.84681 0.85713 0.1558 0.0
C1590 C 0.8576 0.86901 0.13716 0.0
C1591 C 0.8447 0.87857 0.11875 0.0
C1592 C 0.86085 0.84894 0.17616 0.0
C1593 C 0.8797 0.83484 0.17131 0.0
C1594 C 0.85717 0.85676 0.19983 0.0
C1595 C 0.83811 0.87232 0.206 0.0
C1596 C 0.8366 0.89392 0.19538 0.0
C1597 C 0.81851 0.90846 0.20125 0.0
C1598 C 0.80194 0.90166 0.21788 0.0
C1599 C 0.80348 0.88032 0.22874 0.0
C1600 C 0.82152 0.8657 0.2229 0.0
C1601 C 0.93778 0.85358 0.25795 0.0
C1602 C 0.94667 0.83228 0.26457 0.0
C1603 C 0.91981 0.85518 0.24161 0.0
C1604 C 0.91028 0.83556 0.23144 0.0
C1605 C 0.91865 0.81419 0.23836 0.0
C1606 C 0.93675 0.81255 0.25476 0.0
C1607 C 0.89246 0.83797 0.21267 0.0
C1608 C 0.87285 0.8509 0.21784 0.0
C1609 C 0.89571 0.8295 0.18918 0.0
C1610 C 0.91638 0.81642 0.18229 0.0
C1611 C 0.91415 0.79416 0.1735 0.0
C1612 C 0.93362 0.78173 0.16706 0.0
C1613 C 0.9554 0.79145 0.16919 0.0
C1614 C 0.95775 0.81366 0.17767 0.0
C1615 C 0.93833 0.82617 0.1841 0.0
H1616 H 0.97045 0.78179 0.16421 0.0
H1617 H 0.78795 0.91295 0.22241 0.0
H1618 H 0.17839 0.15555 0.6072 0.0
H1619 H 0.15531 0.17045 0.64026 0.0
H1620 H 0.16252 0.10684 0.67786 0.0
H1621 H 0.18605 0.09203 0.64512 0.0
H1622 H 0.11458 0.15428 0.6537 0.0
H1623 H 0.15857 0.116 0.73821 0.0
H1624 H 0.19757 0.10749 0.75272 0.0
H1625 H 0.22534 0.15854 0.70601 0.0
H1626 H 0.1865 0.16761 0.69148 0.0
H1627 H 0.04117 0.13107 0.75176 0.0
H1628 H 0.07235 0.12782 0.72262 0.0
H1629 H 0.09971 0.19212 0.74608 0.0
H1630 H 0.06814 0.19584 0.77501 0.0
H1631 H 0.13265 0.15182 0.74059 0.0
H1632 H 0.07811 0.19808 0.69918 0.0
H1633 H 0.03973 0.20897 0.68469 0.0
H1634 H 0.03488 0.14658 0.64517 0.0
H1635 H 0.07317 0.13517 0.65971 0.0
C1636 C 0.17557 0.14495 0.62279 0.0
C1637 C 0.18398 0.12258 0.62353 0.0
C1638 C 0.16223 0.15343 0.64158 0.0
C1639 C 0.15723 0.13979 0.66155 0.0
C1640 C 0.16637 0.11777 0.66276 0.0
C1641 C 0.17965 0.10925 0.64395 0.0
C1642 C 0.14081 0.14774 0.68005 0.0
C1643 C 0.11866 0.15393 0.67267 0.0
C1644 C 0.14616 0.14755 0.70481 0.0
C1645 C 0.1696 0.14235 0.7136 0.0
C1646 C 0.17298 0.12549 0.7311 0.0
C1647 C 0.19507 0.12055 0.73932 0.0
C1648 C 0.21393 0.13242 0.73024 0.0
C1649 C 0.21073 0.1493 0.71296 0.0
C1650 C 0.18868 0.15432 0.7047 0.0
C1651 C 0.05385 0.1445 0.7508 0.0
C1652 C 0.05219 0.16374 0.76562 0.0
C1653 C 0.0716 0.14262 0.73414 0.0
C1654 C 0.08822 0.15974 0.73229 0.0
C1655 C 0.08698 0.17876 0.74735 0.0
C1656 C 0.06892 0.18089 0.76373 0.0
C1657 C 0.10653 0.15773 0.71411 0.0
C1658 C 0.12885 0.15247 0.72157 0.0
C1659 C 0.10149 0.15905 0.6894 0.0
C1660 C 0.07842 0.1657 0.6807 0.0
C1661 C 0.06876 0.18658 0.6876 0.0
C1662 C 0.04706 0.19287 0.67933 0.0
C1663 C 0.03488 0.17847 0.66403 0.0
C1664 C 0.04436 0.15772 0.65701 0.0
C1665 C 0.06607 0.15134 0.66524 0.0
H1666 H 0.01814 0.18348 0.65755 0.0
H1667 H 0.23102 0.12856 0.73662 0.0
H1668 H 0.19464 0.82315 0.11762 0.0
H1669 H 0.17085 0.81156 0.15158 0.0
H1670 H 0.16524 0.88149 0.17394 0.0
H1671 H 0.18997 0.89304 0.14084 0.0
H1672 H 0.16711 0.85496 0.21197 0.0
H1673 H 0.1245 0.85579 0.13756 0.0
H1674 H 0.11655 0.84454 0.09579 0.0
H1675 H 0.11092 0.77478 0.11747 0.0
H1676 H 0.11914 0.78561 0.15935 0.0
H1677 H 0.05914 0.86615 0.2656 0.0
H1678 H 0.09206 0.86714 0.23884 0.0
H1679 H 0.09007 0.79417 0.23254 0.0
H1680 H 0.05676 0.79292 0.25937 0.0
H1681 H 0.09499 0.81584 0.18891 0.0
H1682 H 0.1312 0.81797 0.26571 0.0
H1683 H 0.13682 0.83166 0.30707 0.0
H1684 H 0.1526 0.89833 0.2806 0.0
H1685 H 0.14674 0.88514 0.23909 0.0
C1686 C 0.18889 0.83599 0.13014 0.0
C1687 C 0.19392 0.85908 0.12629 0.0
C1688 C 0.17509 0.82936 0.14942 0.0
C1689 C 0.16582 0.84572 0.16498 0.0
C1690 C 0.17204 0.86857 0.16207 0.0
C1691 C 0.18599 0.87518 0.14297 0.0
C1692 C 0.14822 0.8395 0.18308 0.0
C1693 C 0.15134 0.84643 0.20693 0.0
C1694 C 0.12779 0.82797 0.17662 0.0
C1695 C 0.12271 0.82146 0.1515 0.0
C1696 C 0.12172 0.83803 0.13338 0.0
C1697 C 0.11715 0.83174 0.10969 0.0
C1698 C 0.1133 0.80895 0.10397 0.0
C1699 C 0.11395 0.79242 0.12193 0.0
C1700 C 0.11856 0.79862 0.14564 0.0
C1701 C 0.0656 0.85024 0.25859 0.0
C1702 C 0.05525 0.82942 0.2647 0.0
C1703 C 0.08457 0.85085 0.24339 0.0
C1704 C 0.09372 0.83071 0.23402 0.0
C1705 C 0.08333 0.80989 0.23975 0.0
C1706 C 0.06432 0.80923 0.25508 0.0
C1707 C 0.1137 0.83173 0.21764 0.0
C1708 C 0.11099 0.82389 0.19409 0.0
C1709 C 0.13435 0.84268 0.22433 0.0
C1710 C 0.13841 0.85057 0.24927 0.0
C1711 C 0.13576 0.83558 0.26871 0.0
C1712 C 0.13899 0.84325 0.29219 0.0
C1713 C 0.14502 0.86586 0.29647 0.0
C1714 C 0.14793 0.88082 0.27726 0.0
C1715 C 0.1447 0.87324 0.25375 0.0
H1716 H 0.14747 0.87178 0.31466 0.0
H1717 H 0.10977 0.8041 0.08562 0.0
H1718 H 0.81065 0.09761 0.64491 0.0
H1719 H 0.83406 0.11395 0.67702 0.0
H1720 H 0.84545 0.17392 0.6342 0.0
H1721 H 0.82193 0.15765 0.60204 0.0
H1722 H 0.88572 0.15313 0.65071 0.0
H1723 H 0.81475 0.17968 0.68257 0.0
H1724 H 0.77446 0.17684 0.69566 0.0
H1725 H 0.79343 0.12803 0.74925 0.0
H1726 H 0.8338 0.1303 0.73625 0.0
H1727 H 0.95374 0.19949 0.74579 0.0
H1728 H 0.9229 0.19678 0.71597 0.0
H1729 H 0.9003 0.13382 0.7477 0.0
H1730 H 0.93101 0.13625 0.77725 0.0
H1731 H 0.86406 0.1629 0.73612 0.0
H1732 H 0.93171 0.13057 0.70068 0.0
H1733 H 0.97188 0.12956 0.6869 0.0
H1734 H 0.95902 0.18584 0.63988 0.0
H1735 H 0.91878 0.1874 0.65367 0.0
C1736 C 0.81785 0.11443 0.64256 0.0
C1737 C 0.81455 0.12638 0.62105 0.0
C1738 C 0.83109 0.12379 0.66091 0.0
C1739 C 0.84138 0.14517 0.65797 0.0
C1740 C 0.83754 0.15745 0.63681 0.0
C1741 C 0.82404 0.14821 0.61855 0.0
C1742 C 0.85785 0.15355 0.67608 0.0
C1743 C 0.8809 0.1559 0.66928 0.0
C1744 C 0.85158 0.15646 0.70037 0.0
C1745 C 0.82731 0.15506 0.70831 0.0
C1746 C 0.81032 0.1682 0.69702 0.0
C1747 C 0.78746 0.16671 0.70445 0.0
C1748 C 0.78138 0.15223 0.72325 0.0
C1749 C 0.79816 0.13923 0.73469 0.0
C1750 C 0.82104 0.14064 0.72732 0.0
C1751 C 0.94207 0.18519 0.74649 0.0
C1752 C 0.94492 0.16798 0.7637 0.0
C1753 C 0.92452 0.18366 0.72947 0.0
C1754 C 0.90942 0.16507 0.72966 0.0
C1755 C 0.91176 0.14832 0.74732 0.0
C1756 C 0.92943 0.14966 0.76406 0.0
C1757 C 0.89189 0.16222 0.71074 0.0
C1758 C 0.86873 0.16077 0.71743 0.0
C1759 C 0.89806 0.15981 0.68636 0.0
C1760 C 0.92234 0.15932 0.67846 0.0
C1761 C 0.93752 0.14293 0.68764 0.0
C1762 C 0.96027 0.14221 0.67978 0.0
C1763 C 0.968 0.15766 0.66257 0.0
C1764 C 0.953 0.17392 0.65325 0.0
C1765 C 0.93023 0.17473 0.66108 0.0
H1766 H 0.98555 0.15691 0.65635 0.0
H1767 H 0.76368 0.15111 0.72898 0.0
loop_
_geom_bond_atom_site_label_1
_geom_bond_atom_site_label_2
_geom_bond_distance
_geom_bond_site_symmetry_2
_ccdc_geom_bond_type
C0 C1 1.391 . S
C0 C4 1.391 . S
C0 H42 0.948 . S
C1 C0 1.391 . S
C1 C2 1.391 . S
C2 C1 1.391 . S
C2 H58 0.947 . S
C2 C59 1.392 . S
C3 C4 1.391 . S
C3 C7 1.397 . S
C3 C59 1.419 . S
C4 C0 1.391 . S
C4 C3 1.391 . S
C4 C5 1.399 . S
C5 C4 1.399 . S
C5 C8 1.396 . S
C5 C17 1.453 . S
C5 C18 1.684 . S
H6 C30 0.948 . S
C7 C3 1.397 . S
C7 C8 1.394 . S
C7 C26 1.723 . S
C8 C5 1.396 . S
C8 C7 1.394 . S
C8 C38 1.723 . S
H9 C32 0.947 1_554 S
H10 C33 0.948 . S
H11 C39 0.982 . S
H12 C40 0.979 . S
H13 C40 0.980 . S
H14 C40 0.983 . S
H15 C39 0.979 . S
H16 C39 0.977 . S
C17 C5 1.453 . S
C17 H46 0.982 . S
C17 H47 0.979 . S
C17 H48 0.977 . S
C18 C5 1.684 . S
C18 H43 0.979 . S
C18 H44 0.980 . S
C18 H45 0.983 . S
C19 C20 1.391 . S
C19 C24 1.391 . S
C19 H49 0.948 . S
C20 C19 1.391 . S
C20 C21 1.391 . S
C21 C20 1.391 . S
C21 C22 1.392 . S
C21 H50 0.947 . S
C22 C21 1.392 . S
C22 C23 1.419 . S
C22 H51 0.948 . S
C23 C22 1.419 . S
C23 C24 1.391 . S
C23 C27 1.397 . S
C24 C19 1.391 . S
C24 C23 1.391 . S
C24 C25 1.399 1_556 S
C25 C24 1.399 1_554 S
C25 C26 1.396 . S
C25 C28 1.453 . S
C25 C29 1.684 . S
C26 C7 1.723 . S
C26 C25 1.396 . S
C26 C27 1.394 1_554 S
C27 C23 1.397 . S
C27 C26 1.394 1_556 S
C27 C37 1.723 . S
C28 C25 1.453 . S
C28 H52 0.982 . S
C28 H53 0.979 . S
C28 H54 0.977 . S
C29 C25 1.684 . S
C29 H55 0.979 . S
C29 H56 0.980 . S
C29 H57 0.983 . S
C30 H6 0.948 . S
C30 C31 1.391 . S
C30 C35 1.391 . S
C31 C30 1.391 . S
C31 C32 1.391 . S
C32 H9 0.947 1_556 S
C32 C31 1.391 . S
C32 C33 1.392 1_556 S
C33 H10 0.948 . S
C33 C32 1.392 1_554 S
C33 C34 1.419 1_554 S
C34 C33 1.419 1_556 S
C34 C35 1.391 . S
C34 C38 1.397 1_556 S
C35 C30 1.391 . S
C35 C34 1.391 . S
C35 C36 1.399 . S
C36 C35 1.399 . S
C36 C37 1.396 . S
C36 C39 1.453 . S
C36 C40 1.684 . S
C37 C27 1.723 . S
C37 C36 1.396 . S
C37 C38 1.394 1_556 S
C38 C8 1.723 . S
C38 C34 1.397 1_554 S
C38 C37 1.394 1_554 S
C39 H11 0.982 . S
C39 H15 0.979 . S
C39 H16 0.977 . S
C39 C36 1.453 . S
C40 H12 0.979 . S
C40 H13 0.980 . S
C40 H14 0.983 . S
C40 C36 1.684 . S
H41 C59 0.948 . S
H42 C0 0.948 . S
H43 C18 0.979 . S
H44 C18 0.980 . S
H45 C18 0.983 . S
H46 C17 0.982 . S
H47 C17 0.979 . S
H48 C17 0.977 . S
H49 C19 0.948 . S
H50 C21 0.947 . S
H51 C22 0.948 . S
H52 C28 0.982 . S
H53 C28 0.979 . S
H54 C28 0.977 . S
H55 C29 0.979 . S
H56 C29 0.980 . S
H57 C29 0.983 . S
H58 C2 0.947 . S
C59 C2 1.392 . S
C59 C3 1.419 . S
C59 H41 0.948 . S
C60 C61 1.391 . S
C60 C64 1.391 . S
C60 H102 0.948 . S
C61 C60 1.391 . S
C61 C62 1.391 . S
C62 C61 1.391 . S
C62 H118 0.947 . S
C62 C119 1.392 . S
C63 C64 1.391 . S
C63 C67 1.397 . S
C63 C119 1.419 . S
C64 C60 1.391 . S
C64 C63 1.391 . S
C64 C65 1.399 . S
C65 C64 1.399 . S
C65 C68 1.396 . S
C65 C77 1.453 . S
C65 C78 1.684 . S
H66 C90 0.948 . S
C67 C63 1.397 . S
C67 C68 1.394 . S
C67 C86 1.723 . S
C68 C65 1.396 . S
C68 C67 1.394 . S
C68 C98 1.723 . S
H69 C92 0.947 . S
H70 C93 0.948 . S
H71 C99 0.982 . S
H72 C100 0.979 . S
H73 C100 0.980 . S
H74 C100 0.983 . S
H75 C99 0.979 . S
H76 C99 0.977 . S
C77 C65 1.453 . S
C77 H106 0.982 . S
C77 H107 0.979 . S
C77 H108 0.977 . S
C78 C65 1.684 . S
C78 H103 0.979 . S
C78 H104 0.980 . S
C78 H105 0.983 . S
C79 C80 1.391 . S
C79 C84 1.391 . S
C79 H109 0.948 . S
C80 C79 1.391 . S
C80 C81 1.391 . S
C81 C80 1.391 . S
C81 C82 1.392 . S
C81 H110 0.947 . S
C82 C81 1.392 . S
C82 C83 1.419 . S
C82 H111 0.948 . S
C83 C82 1.419 . S
C83 C84 1.391 . S
C83 C87 1.397 . S
C84 C79 1.391 . S
C84 C83 1.391 . S
C84 C85 1.399 . S
C85 C84 1.399 . S
C85 C86 1.396 . S
C85 C88 1.453 . S
C85 C89 1.684 . S
C86 C67 1.723 . S
C86 C85 1.396 . S
C86 C87 1.394 . S
C87 C83 1.397 . S
C87 C86 1.394 . S
C87 C97 1.723 . S
C88 C85 1.453 . S
C88 H112 0.982 . S
C88 H113 0.979 . S
C88 H114 0.977 . S
C89 C85 1.684 . S
C89 H115 0.979 . S
C89 H116 0.980 . S
C89 H117 0.983 . S
C90 H66 0.948 . S
C90 C91 1.391 . S
C90 C95 1.391 . S
C91 C90 1.391 . S
C91 C92 1.391 . S
C92 H69 0.947 . S
C92 C91 1.391 . S
C92 C93 1.392 . S
C93 H70 0.948 . S
C93 C92 1.392 . S
C93 C94 1.419 . S
C94 C93 1.419 . S
C94 C95 1.391 . S
C94 C98 1.397 . S
C95 C90 1.391 . S
C95 C94 1.391 . S
C95 C96 1.399 . S
C96 C95 1.399 . S
C96 C97 1.396 . S
C96 C99 1.453 . S
C96 C100 1.684 . S
C97 C87 1.723 . S
C97 C96 1.396 . S
C97 C98 1.394 . S
C98 C68 1.723 . S
C98 C94 1.397 . S
C98 C97 1.394 . S
C99 H71 0.982 . S
C99 H75 0.979 . S
C99 H76 0.977 . S
C99 C96 1.453 . S
C100 H72 0.979 . S
C100 H73 0.980 . S
C100 H74 0.983 . S
C100 C96 1.684 . S
H101 C119 0.948 . S
H102 C60 0.948 . S
H103 C78 0.979 . S
H104 C78 0.980 . S
H105 C78 0.983 . S
H106 C77 0.982 . S
H107 C77 0.979 . S
H108 C77 0.977 . S
H109 C79 0.948 . S
H110 C81 0.947 . S
H111 C82 0.948 . S
H112 C88 0.982 . S
H113 C88 0.979 . S
H114 C88 0.977 . S
H115 C89 0.979 . S
H116 C89 0.980 . S
H117 C89 0.983 . S
H118 C62 0.947 . S
C119 C62 1.392 . S
C119 C63 1.419 . S
C119 H101 0.948 . S
C120 C121 1.391 . S
C120 C124 1.391 . S
C120 H162 0.948 . S
C121 C120 1.391 . S
C121 C122 1.391 . S
C122 C121 1.391 . S
C122 H178 0.947 . S
C122 C179 1.392 . S
C123 C124 1.391 . S
C123 C127 1.382 1_556 S
C123 C179 1.419 . S
C124 C120 1.391 . S
C124 C123 1.391 . S
C124 C125 1.399 . S
C125 C124 1.399 . S
C125 C128 1.396 . S
C125 C137 1.453 . S
C125 C138 1.684 . S
H126 C150 0.934 1_554 S
C127 C123 1.382 1_554 S
C127 C128 1.373 1_554 S
C127 C146 1.755 . S
C128 C125 1.396 . S
C128 C127 1.373 1_556 S
C128 C158 1.723 . S
H129 C152 0.947 . S
H130 C153 0.948 . S
H131 C159 0.982 . S
H132 C160 0.979 . S
H133 C160 0.980 . S
H134 C160 0.983 . S
H135 C159 0.979 . S
H136 C159 0.977 . S
C137 C125 1.453 . S
C137 H166 0.982 . S
C137 H167 0.979 . S
C137 H168 0.977 . S
C138 C125 1.684 . S
C138 H163 0.979 . S
C138 H164 0.980 . S
C138 H165 0.983 . S
C139 C140 1.391 . S
C139 C144 1.391 . S
C139 H169 0.948 . S
C140 C139 1.391 . S
C140 C141 1.391 . S
C141 C140 1.391 . S
C141 C142 1.392 . S
C141 H170 0.947 . S
C142 C141 1.392 . S
C142 C143 1.419 . S
C142 H171 0.948 . S
C143 C142 1.419 . S
C143 C144 1.391 . S
C143 C147 1.397 . S
C144 C139 1.391 . S
C144 C143 1.391 . S
C144 C145 1.399 . S
C145 C144 1.399 . S
C145 C146 1.396 . S
C145 C148 1.453 . S
C145 C149 1.684 . S
C146 C127 1.755 . S
C146 C145 1.396 . S
C146 C147 1.394 . S
C147 C143 1.397 . S
C147 C146 1.394 . S
C147 C157 1.723 . S
C148 C145 1.453 . S
C148 H172 0.982 . S
C148 H173 0.979 . S
C148 H174 0.977 . S
C149 C145 1.684 . S
C149 H175 0.979 . S
C149 H176 0.980 . S
C149 H177 0.983 . S
C150 H126 0.934 1_556 S
C150 C151 1.391 . S
C150 C155 1.391 . S
C151 C150 1.391 . S
C151 C152 1.391 . S
C152 H129 0.947 . S
C152 C151 1.391 . S
C152 C153 1.392 . S
C153 H130 0.948 . S
C153 C152 1.392 . S
C153 C154 1.419 . S
C154 C153 1.419 . S
C154 C155 1.391 . S
C154 C158 1.397 . S
C155 C150 1.391 . S
C155 C154 1.391 . S
C155 C156 1.399 1_556 S
C156 C155 1.399 1_554 S
C156 C157 1.396 . S
C156 C159 1.453 . S
C156 C160 1.684 . S
C157 C147 1.723 . S
C157 C156 1.396 . S
C157 C158 1.394 1_554 S
C158 C128 1.723 . S
C158 C154 1.397 . S
C158 C157 1.394 1_556 S
C159 H131 0.982 . S
C159 H135 0.979 . S
C159 H136 0.977 . S
C159 C156 1.453 . S
C160 H132 0.979 . S
C160 H133 0.980 . S
C160 H134 0.983 . S
C160 C156 1.684 . S
H161 C179 0.948 1_554 S
H162 C120 0.948 . S
H163 C138 0.979 . S
H164 C138 0.980 . S
H165 C138 0.983 . S
H166 C137 0.982 . S
H167 C137 0.979 . S
H168 C137 0.977 . S
H169 C139 0.948 . S
H170 C141 0.947 . S
H171 C142 0.948 . S
H172 C148 0.982 . S
H173 C148 0.979 . S
H174 C148 0.977 . S
H175 C149 0.979 . S
H176 C149 0.980 . S
H177 C149 0.983 . S
H178 C122 0.947 . S
C179 C122 1.392 . S
C179 C123 1.419 . S
C179 H161 0.948 1_556 S
C180 C181 1.391 . S
C180 C184 1.391 . S
C180 H222 0.948 . S
C181 C180 1.391 . S
C181 C182 1.391 . S
C182 C181 1.391 . S
C182 H238 0.947 . S
C182 C239 1.392 . S
C183 C184 1.391 . S
C183 C187 1.397 . S
C183 C239 1.419 . S
C184 C180 1.391 . S
C184 C183 1.391 . S
C184 C185 1.399 . S
C185 C184 1.399 . S
C185 C188 1.396 . S
C185 C197 1.453 . S
C185 C198 1.684 . S
H186 C210 0.948 . S
C187 C183 1.397 . S
C187 C188 1.394 . S
C187 C206 1.723 . S
C188 C185 1.396 . S
C188 C187 1.394 . S
C188 C218 1.723 . S
H189 C212 0.947 . S
H190 C213 0.948 . S
H191 C219 0.982 . S
H192 C220 0.979 . S
H193 C220 0.980 . S
H194 C220 0.983 . S
H195 C219 0.979 . S
H196 C219 0.977 . S
C197 C185 1.453 . S
C197 H226 0.982 . S
C197 H227 0.979 . S
C197 H228 0.977 . S
C198 C185 1.684 . S
C198 H223 0.979 . S
C198 H224 0.980 . S
C198 H225 0.983 . S
C199 C200 1.391 . S
C199 C204 1.391 . S
C199 H229 0.948 . S
C200 C199 1.391 . S
C200 C201 1.391 . S
C201 C200 1.391 . S
C201 C202 1.392 . S
C201 H230 0.947 . S
C202 C201 1.392 . S
C202 C203 1.419 . S
C202 H231 0.948 . S
C203 C202 1.419 . S
C203 C204 1.391 . S
C203 C207 1.397 . S
C204 C199 1.391 . S
C204 C203 1.391 . S
C204 C205 1.399 . S
C205 C204 1.399 . S
C205 C206 1.396 . S
C205 C208 1.453 . S
C205 C209 1.684 . S
C206 C187 1.723 . S
C206 C205 1.396 . S
C206 C207 1.394 . S
C207 C203 1.397 . S
C207 C206 1.394 . S
C207 C217 1.723 . S
C208 C205 1.453 . S
C208 H232 0.982 . S
C208 H233 0.979 . S
C208 H234 0.977 . S
C209 C205 1.684 . S
C209 H235 0.979 . S
C209 H236 0.980 . S
C209 H237 0.983 . S
C210 H186 0.948 . S
C210 C211 1.391 . S
C210 C215 1.391 . S
C211 C210 1.391 . S
C211 C212 1.391 . S
C212 H189 0.947 . S
C212 C211 1.391 . S
C212 C213 1.392 . S
C213 H190 0.948 . S
C213 C212 1.392 . S
C213 C214 1.419 . S
C214 C213 1.419 . S
C214 C215 1.391 . S
C214 C218 1.397 . S
C215 C210 1.391 . S
C215 C214 1.391 . S
C215 C216 1.399 . S
C216 C215 1.399 . S
C216 C217 1.396 . S
C216 C219 1.453 . S
C216 C220 1.684 . S
C217 C207 1.723 . S
C217 C216 1.396 . S
C217 C218 1.394 . S
C218 C188 1.723 . S
C218 C214 1.397 . S
C218 C217 1.394 . S
C219 H191 0.982 . S
C219 H195 0.979 . S
C219 H196 0.977 . S
C219 C216 1.453 . S
C220 H192 0.979 . S
C220 H193 0.980 . S
C220 H194 0.983 . S
C220 C216 1.684 . S
H221 C239 0.948 . S
H222 C180 0.948 . S
H223 C198 0.979 . S
H224 C198 0.980 . S
H225 C198 0.983 . S
H226 C197 0.982 . S
H227 C197 0.979 . S
H228 C197 0.977 . S
H229 C199 0.948 . S
H230 C201 0.947 . S
H231 C202 0.948 . S
H232 C208 0.982 . S
H233 C208 0.979 . S
H234 C208 0.977 . S
H235 C209 0.979 . S
H236 C209 0.980 . S
H237 C209 0.983 . S
H238 C182 0.947 . S
C239 C182 1.392 . S
C239 C183 1.419 . S
C239 H221 0.948 . S
C240 C241 1.391 . S
C240 C244 1.391 . S
C240 H282 0.948 . S
C241 C240 1.391 . S
C241 C242 1.391 . S
C242 C241 1.391 . S
C242 H298 0.947 . S
C242 C299 1.392 . S
C243 C244 1.391 . S
C243 C247 1.397 . S
C243 C299 1.419 . S
C244 C240 1.391 . S
C244 C243 1.391 . S
C244 C245 1.399 . S
C245 C244 1.399 . S
C245 C248 1.396 . S
C245 C257 1.453 . S
C245 C258 1.684 . S
H246 C270 0.948 . S
C247 C243 1.397 . S
C247 C248 1.394 . S
C247 C266 1.723 . S
C248 C245 1.396 . S
C248 C247 1.394 . S
C248 C278 1.723 . S
H249 C272 0.947 1_554 S
H250 C273 0.948 . S
H251 C279 0.982 . S
H252 C280 0.979 . S
H253 C280 0.980 . S
H254 C280 0.983 . S
H255 C279 0.979 . S
H256 C279 0.977 . S
C257 C245 1.453 . S
C257 H286 0.982 . S
C257 H287 0.979 . S
C257 H288 0.977 . S
C258 C245 1.684 . S
C258 H283 0.979 . S
C258 H284 0.980 . S
C258 H285 0.983 . S
C259 C260 1.391 . S
C259 C264 1.391 . S
C259 H289 0.948 . S
C260 C259 1.391 . S
C260 C261 1.391 . S
C261 C260 1.391 . S
C261 C262 1.392 . S
C261 H290 0.947 . S
C262 C261 1.392 . S
C262 C263 1.419 . S
C262 H291 0.948 . S
C263 C262 1.419 . S
C263 C264 1.391 . S
C263 C267 1.397 . S
C264 C259 1.391 . S
C264 C263 1.391 . S
C264 C265 1.399 1_556 S
C265 C264 1.399 1_554 S
C265 C266 1.396 . S
C265 C268 1.453 . S
C265 C269 1.684 . S
C266 C247 1.723 . S
C266 C265 1.396 . S
C266 C267 1.394 1_554 S
C267 C263 1.397 . S
C267 C266 1.394 1_556 S
C267 C277 1.723 . S
C268 C265 1.453 . S
C268 H292 0.982 . S
C268 H293 0.979 . S
C268 H294 0.977 . S
C269 C265 1.684 . S
C269 H295 0.979 . S
C269 H296 0.980 . S
C269 H297 0.983 . S
C270 H246 0.948 . S
C270 C271 1.391 . S
C270 C275 1.391 . S
C271 C270 1.391 . S
C271 C272 1.391 . S
C272 H249 0.947 1_556 S
C272 C271 1.391 . S
C272 C273 1.392 1_556 S
C273 H250 0.948 . S
C273 C272 1.392 1_554 S
C273 C274 1.419 1_554 S
C274 C273 1.419 1_556 S
C274 C275 1.391 . S
C274 C278 1.397 1_556 S
C275 C270 1.391 . S
C275 C274 1.391 . S
C275 C276 1.399 . S
C276 C275 1.399 . S
C276 C277 1.396 . S
C276 C279 1.453 . S
C276 C280 1.684 . S
C277 C267 1.723 . S
C277 C276 1.396 . S
C277 C278 1.394 1_556 S
C278 C248 1.723 . S
C278 C274 1.397 1_554 S
C278 C277 1.394 1_554 S
C279 H251 0.982 . S
C279 H255 0.979 . S
C279 H256 0.977 . S
C279 C276 1.453 . S
C280 H252 0.979 . S
C280 H253 0.980 . S
C280 H254 0.983 . S
C280 C276 1.684 . S
H281 C299 0.948 . S
H282 C240 0.948 . S
H283 C258 0.979 . S
H284 C258 0.980 . S
H285 C258 0.983 . S
H286 C257 0.982 . S
H287 C257 0.979 . S
H288 C257 0.977 . S
H289 C259 0.948 . S
H290 C261 0.947 . S
H291 C262 0.948 . S
H292 C268 0.982 . S
H293 C268 0.979 . S
H294 C268 0.977 . S
H295 C269 0.979 . S
H296 C269 0.980 . S
H297 C269 0.983 . S
H298 C242 0.947 . S
C299 C242 1.392 . S
C299 C243 1.419 . S
C299 H281 0.948 . S
C300 C301 1.391 . S
C300 C304 1.391 . S
C300 H342 0.948 . S
C301 C300 1.391 . S
C301 C302 1.391 . S
C302 C301 1.391 . S
C302 H358 0.947 . S
C302 C359 1.392 . S
C303 C304 1.391 . S
C303 C307 1.397 . S
C303 C359 1.419 . S
C304 C300 1.391 . S
C304 C303 1.391 . S
C304 C305 1.399 . S
C305 C304 1.399 . S
C305 C308 1.396 . S
C305 C317 1.453 . S
C305 C318 1.684 . S
H306 C330 0.948 . S
C307 C303 1.397 . S
C307 C308 1.394 . S
C307 C326 1.723 . S
C308 C305 1.396 . S
C308 C307 1.394 . S
C308 C338 1.723 . S
H309 C332 0.947 . S
H310 C333 0.948 . S
H311 C339 0.982 . S
H312 C340 0.979 . S
H313 C340 0.980 . S
H314 C340 0.983 . S
H315 C339 0.979 . S
H316 C339 0.977 . S
C317 C305 1.453 . S
C317 H346 0.982 . S
C317 H347 0.979 . S
C317 H348 0.977 . S
C318 C305 1.684 . S
C318 H343 0.979 . S
C318 H344 0.980 . S
C318 H345 0.983 . S
C319 C320 1.391 . S
C319 C324 1.391 . S
C319 H349 0.948 . S
C320 C319 1.391 . S
C320 C321 1.391 . S
C321 C320 1.391 . S
C321 C322 1.392 . S
C321 H350 0.947 . S
C322 C321 1.392 . S
C322 C323 1.419 . S
C322 H351 0.948 . S
C323 C322 1.419 . S
C323 C324 1.391 . S
C323 C327 1.397 . S
C324 C319 1.391 . S
C324 C323 1.391 . S
C324 C325 1.399 . S
C325 C324 1.399 . S
C325 C326 1.396 . S
C325 C328 1.453 . S
C325 C329 1.684 . S
C326 C307 1.723 . S
C326 C325 1.396 . S
C326 C327 1.394 . S
C327 C323 1.397 . S
C327 C326 1.394 . S
C327 C337 1.723 . S
C328 C325 1.453 . S
C328 H352 0.982 . S
C328 H353 0.979 . S
C328 H354 0.977 . S
C329 C325 1.684 . S
C329 H355 0.979 . S
C329 H356 0.980 . S
C329 H357 0.983 . S
C330 H306 0.948 . S
C330 C331 1.391 . S
C330 C335 1.391 . S
C331 C330 1.391 . S
C331 C332 1.391 . S
C332 H309 0.947 . S
C332 C331 1.391 . S
C332 C333 1.392 . S
C333 H310 0.948 . S
C333 C332 1.392 . S
C333 C334 1.419 . S
C334 C333 1.419 . S
C334 C335 1.391 . S
C334 C338 1.397 . S
C335 C330 1.391 . S
C335 C334 1.391 . S
C335 C336 1.399 . S
C336 C335 1.399 . S
C336 C337 1.396 . S
C336 C339 1.453 . S
C336 C340 1.684 . S
C337 C327 1.723 . S
C337 C336 1.396 . S
C337 C338 1.394 . S
C338 C308 1.723 . S
C338 C334 1.397 . S
C338 C337 1.394 . S
C339 H311 0.982 . S
C339 H315 0.979 . S
C339 H316 0.977 . S
C339 C336 1.453 . S
C340 H312 0.979 . S
C340 H313 0.980 . S
C340 H314 0.983 . S
C340 C336 1.684 . S
H341 C359 0.948 . S
H342 C300 0.948 . S
H343 C318 0.979 . S
H344 C318 0.980 . S
H345 C318 0.983 . S
H346 C317 0.982 . S
H347 C317 0.979 . S
H348 C317 0.977 . S
H349 C319 0.948 . S
H350 C321 0.947 . S
H351 C322 0.948 . S
H352 C328 0.982 . S
H353 C328 0.979 . S
H354 C328 0.977 . S
H355 C329 0.979 . S
H356 C329 0.980 . S
H357 C329 0.983 . S
H358 C302 0.947 . S
C359 C302 1.392 . S
C359 C303 1.419 . S
C359 H341 0.948 . S
C360 C361 1.391 . S
C360 C364 1.391 . S
C360 H402 0.948 . S
C361 C360 1.391 . S
C361 C362 1.391 . S
C362 C361 1.391 . S
C362 H418 0.947 . S
C362 C419 1.392 . S
C363 C364 1.391 . S
C363 C367 1.382 1_556 S
C363 C419 1.419 . S
C364 C360 1.391 . S
C364 C363 1.391 . S
C364 C365 1.399 . S
C365 C364 1.399 . S
C365 C368 1.396 . S
C365 C377 1.453 . S
C365 C378 1.684 . S
H366 C390 0.934 1_554 S
C367 C363 1.382 1_554 S
C367 C368 1.373 1_554 S
C367 C386 1.755 . S
C368 C365 1.396 . S
C368 C367 1.373 1_556 S
C368 C398 1.723 . S
H369 C392 0.947 . S
H370 C393 0.948 . S
H371 C399 0.982 . S
H372 C400 0.979 . S
H373 C400 0.980 . S
H374 C400 0.983 . S
H375 C399 0.979 . S
H376 C399 0.977 . S
C377 C365 1.453 . S
C377 H406 0.982 . S
C377 H407 0.979 . S
C377 H408 0.977 . S
C378 C365 1.684 . S
C378 H403 0.979 . S
C378 H404 0.980 . S
C378 H405 0.983 . S
C379 C380 1.391 . S
C379 C384 1.391 . S
C379 H409 0.948 . S
C380 C379 1.391 . S
C380 C381 1.391 . S
C381 C380 1.391 . S
C381 C382 1.392 . S
C381 H410 0.947 . S
C382 C381 1.392 . S
C382 C383 1.419 . S
C382 H411 0.948 . S
C383 C382 1.419 . S
C383 C384 1.391 . S
C383 C387 1.397 . S
C384 C379 1.391 . S
C384 C383 1.391 . S
C384 C385 1.399 . S
C385 C384 1.399 . S
C385 C386 1.396 . S
C385 C388 1.453 . S
C385 C389 1.684 . S
C386 C367 1.755 . S
C386 C385 1.396 . S
C386 C387 1.394 . S
C387 C383 1.397 . S
C387 C386 1.394 . S
C387 C397 1.723 . S
C388 C385 1.453 . S
C388 H412 0.982 . S
C388 H413 0.979 . S
C388 H414 0.977 . S
C389 C385 1.684 . S
C389 H415 0.979 . S
C389 H416 0.980 . S
C389 H417 0.983 . S
C390 H366 0.934 1_556 S
C390 C391 1.391 . S
C390 C395 1.391 . S
C391 C390 1.391 . S
C391 C392 1.391 . S
C392 H369 0.947 . S
C392 C391 1.391 . S
C392 C393 1.392 . S
C393 H370 0.948 . S
C393 C392 1.392 . S
C393 C394 1.419 . S
C394 C393 1.419 . S
C394 C395 1.391 . S
C394 C398 1.397 . S
C395 C390 1.391 . S
C395 C394 1.391 . S
C395 C396 1.399 1_556 S
C396 C395 1.399 1_554 S
C396 C397 1.396 . S
C396 C399 1.453 . S
C396 C400 1.684 . S
C397 C387 1.723 . S
C397 C396 1.396 . S
C397 C398 1.394 1_554 S
C398 C368 1.723 . S
C398 C394 1.397 . S
C398 C397 1.394 1_556 S
C399 H371 0.982 . S
C399 H375 0.979 . S
C399 H376 0.977 . S
C399 C396 1.453 . S
C400 H372 0.979 . S
C400 H373 0.980 . S
C400 H374 0.983 . S
C400 C396 1.684 . S
H401 C419 0.948 1_554 S
H402 C360 0.948 . S
H403 C378 0.979 . S
H404 C378 0.980 . S
H405 C378 0.983 . S
H406 C377 0.982 . S
H407 C377 0.979 . S
H408 C377 0.977 . S
H409 C379 0.948 . S
H410 C381 0.947 . S
H411 C382 0.948 . S
H412 C388 0.982 . S
H413 C388 0.979 . S
H414 C388 0.977 . S
H415 C389 0.979 . S
H416 C389 0.980 . S
H417 C389 0.983 . S
H418 C362 0.947 . S
C419 C362 1.392 . S
C419 C363 1.419 . S
C419 H401 0.948 1_556 S
C420 C421 1.391 . S
C420 C424 1.391 . S
C420 H462 0.948 . S
C421 C420 1.391 . S
C421 C422 1.391 . S
C422 C421 1.391 . S
C422 H478 0.947 . S
C422 C479 1.392 . S
C423 C424 1.391 . S
C423 C427 1.397 . S
C423 C479 1.419 . S
C424 C420 1.391 . S
C424 C423 1.391 . S
C424 C425 1.399 . S
C425 C424 1.399 . S
C425 C428 1.396 . S
C425 C437 1.453 . S
C425 C438 1.684 . S
H426 C450 0.948 . S
C427 C423 1.397 . S
C427 C428 1.394 . S
C427 C446 1.723 . S
C428 C425 1.396 . S
C428 C427 1.394 . S
C428 C458 1.723 . S
H429 C452 0.947 . S
H430 C453 0.948 . S
H431 C459 0.982 . S
H432 C460 0.979 . S
H433 C460 0.980 . S
H434 C460 0.983 . S
H435 C459 0.979 . S
H436 C459 0.977 . S
C437 C425 1.453 . S
C437 H466 0.982 . S
C437 H467 0.979 . S
C437 H468 0.977 . S
C438 C425 1.684 . S
C438 H463 0.979 . S
C438 H464 0.980 . S
C438 H465 0.983 . S
C439 C440 1.391 . S
C439 C444 1.391 . S
C439 H469 0.948 . S
C440 C439 1.391 . S
C440 C441 1.391 . S
C441 C440 1.391 . S
C441 C442 1.392 . S
C441 H470 0.947 . S
C442 C441 1.392 . S
C442 C443 1.419 . S
C442 H471 0.948 . S
C443 C442 1.419 . S
C443 C444 1.391 . S
C443 C447 1.397 . S
C444 C439 1.391 . S
C444 C443 1.391 . S
C444 C445 1.399 . S
C445 C444 1.399 . S
C445 C446 1.396 . S
C445 C448 1.453 . S
C445 C449 1.684 . S
C446 C427 1.723 . S
C446 C445 1.396 . S
C446 C447 1.394 . S
C447 C443 1.397 . S
C447 C446 1.394 . S
C447 C457 1.723 . S
C448 C445 1.453 . S
C448 H472 0.982 . S
C448 H473 0.979 . S
C448 H474 0.977 . S
C449 C445 1.684 . S
C449 H475 0.979 . S
C449 H476 0.980 . S
C449 H477 0.983 . S
C450 H426 0.948 . S
C450 C451 1.391 . S
C450 C455 1.391 . S
C451 C450 1.391 . S
C451 C452 1.391 . S
C452 H429 0.947 . S
C452 C451 1.391 . S
C452 C453 1.392 . S
C453 H430 0.948 . S
C453 C452 1.392 . S
C453 C454 1.419 . S
C454 C453 1.419 . S
C454 C455 1.391 . S
C454 C458 1.397 . S
C455 C450 1.391 . S
C455 C454 1.391 . S
C455 C456 1.399 . S
C456 C455 1.399 . S
C456 C457 1.396 . S
C456 C459 1.453 . S
C456 C460 1.684 . S
C457 C447 1.723 . S
C457 C456 1.396 . S
C457 C458 1.394 . S
C458 C428 1.723 . S
C458 C454 1.397 . S
C458 C457 1.394 . S
C459 H431 0.982 . S
C459 H435 0.979 . S
C459 H436 0.977 . S
C459 C456 1.453 . S
C460 H432 0.979 . S
C460 H433 0.980 . S
C460 H434 0.983 . S
C460 C456 1.684 . S
H461 C479 0.948 . S
H462 C420 0.948 . S
H463 C438 0.979 . S
H464 C438 0.980 . S
H465 C438 0.983 . S
H466 C437 0.982 . S
H467 C437 0.979 . S
H468 C437 0.977 . S
H469 C439 0.948 . S
H470 C441 0.947 . S
H471 C442 0.948 . S
H472 C448 0.982 . S
H473 C448 0.979 . S
H474 C448 0.977 . S
H475 C449 0.979 . S
H476 C449 0.980 . S
H477 C449 0.983 . S
H478 C422 0.947 . S
C479 C422 1.392 . S
C479 C423 1.419 . S
C479 H461 0.948 . S
Sc480 O483 2.025 . S
Sc480 O490 2.105 1_455 S
Sc480 O493 2.105 . S
Sc480 O496 2.105 . S
Sc480 O499 2.105 1_455 S
Sc481 O483 2.025 . S
Sc481 O491 2.105 1_455 S
Sc481 O495 2.105 . S
Sc481 O497 2.105 . S
Sc481 O501 2.105 1_455 S
Sc482 O483 2.025 . S
Sc482 O492 2.105 1_455 S
Sc482 O494 2.105 . S
Sc482 O498 2.105 . S
Sc482 O500 2.105 1_455 S
O483 Sc480 2.025 . S
O483 Sc481 2.025 . S
O483 Sc482 2.025 . S
C484 O490 1.268 . S
C484 O500 1.268 . S
C485 O491 1.268 . S
C485 O499 1.268 . S
C486 O492 1.268 . S
C486 O501 1.268 . S
C487 O493 1.268 . S
C487 O497 1.268 . S
C488 O494 1.268 . S
C488 O496 1.268 . S
C489 O495 1.268 . S
C489 O498 1.268 . S
O490 Sc480 2.105 1_655 S
O490 C484 1.268 . S
O491 Sc481 2.105 1_655 S
O491 C485 1.268 . S
O492 Sc482 2.105 1_655 S
O492 C486 1.268 . S
O493 Sc480 2.105 . S
O493 C487 1.268 . S
O494 Sc482 2.105 . S
O494 C488 1.268 . S
O495 Sc481 2.105 . S
O495 C489 1.268 . S
O496 Sc480 2.105 . S
O496 C488 1.268 . S
O497 Sc481 2.105 . S
O497 C487 1.268 . S
O498 Sc482 2.105 . S
O498 C489 1.268 . S
O499 Sc480 2.105 1_655 S
O499 C485 1.268 . S
O500 Sc482 2.105 1_655 S
O500 C484 1.268 . S
O501 Sc481 2.105 1_655 S
O501 C486 1.268 . S
Sc502 O505 2.025 . S
Sc502 O512 2.105 . S
Sc502 O515 2.105 1_455 S
Sc502 O518 2.105 1_455 S
Sc502 O521 2.105 . S
Sc503 O505 2.025 . S
Sc503 O513 2.105 . S
Sc503 O517 2.105 1_455 S
Sc503 O519 2.105 1_455 S
Sc503 O523 2.105 . S
Sc504 O505 2.025 . S
Sc504 O514 2.105 . S
Sc504 O516 2.105 1_455 S
Sc504 O520 2.105 1_455 S
Sc504 O522 2.105 . S
O505 Sc502 2.025 . S
O505 Sc503 2.025 . S
O505 Sc504 2.025 . S
C506 O512 1.268 . S
C506 O522 1.268 . S
C507 O513 1.268 . S
C507 O521 1.268 . S
C508 O514 1.268 . S
C508 O523 1.268 . S
C509 O515 1.268 . S
C509 O519 1.268 . S
C510 O516 1.268 . S
C510 O518 1.268 . S
C511 O517 1.268 . S
C511 O520 1.268 . S
O512 Sc502 2.105 . S
O512 C506 1.268 . S
O513 Sc503 2.105 . S
O513 C507 1.268 . S
O514 Sc504 2.105 . S
O514 C508 1.268 . S
O515 Sc502 2.105 1_655 S
O515 C509 1.268 . S
O516 Sc504 2.105 1_655 S
O516 C510 1.268 . S
O517 Sc503 2.105 1_655 S
O517 C511 1.268 . S
O518 Sc502 2.105 1_655 S
O518 C510 1.268 . S
O519 Sc503 2.105 1_655 S
O519 C509 1.268 . S
O520 Sc504 2.105 1_655 S
O520 C511 1.268 . S
O521 Sc502 2.105 . S
O521 C507 1.268 . S
O522 Sc504 2.105 . S
O522 C506 1.268 . S
O523 Sc503 2.105 . S
O523 C508 1.268 . S
Sc524 O527 2.025 . S
Sc524 O534 2.105 . S
Sc524 O537 2.105 . S
Sc524 O540 2.105 . S
Sc524 O543 2.105 . S
Sc525 O527 2.025 . S
Sc525 O535 2.105 . S
Sc525 O539 2.105 . S
Sc525 O541 2.105 . S
Sc525 O545 2.105 . S
Sc526 O527 2.025 . S
Sc526 O536 2.105 . S
Sc526 O538 2.105 . S
Sc526 O542 2.105 . S
Sc526 O544 2.105 . S
O527 Sc524 2.025 . S
O527 Sc525 2.025 . S
O527 Sc526 2.025 . S
C528 O534 1.268 . S
C528 O544 1.268 . S
C529 O535 1.268 . S
C529 O543 1.268 . S
C530 O536 1.268 . S
C530 O545 1.268 . S
C531 O537 1.268 . S
C531 O541 1.268 . S
C532 O538 1.268 . S
C532 O540 1.268 . S
C533 O539 1.268 . S
C533 O542 1.268 . S
O534 Sc524 2.105 . S
O534 C528 1.268 . S
O535 Sc525 2.105 . S
O535 C529 1.268 . S
O536 Sc526 2.105 . S
O536 C530 1.268 . S
O537 Sc524 2.105 . S
O537 C531 1.268 . S
O538 Sc526 2.105 . S
O538 C532 1.268 . S
O539 Sc525 2.105 . S
O539 C533 1.268 . S
O540 Sc524 2.105 . S
O540 C532 1.268 . S
O541 Sc525 2.105 . S
O541 C531 1.268 . S
O542 Sc526 2.105 . S
O542 C533 1.268 . S
O543 Sc524 2.105 . S
O543 C529 1.268 . S
O544 Sc526 2.105 . S
O544 C528 1.268 . S
O545 Sc525 2.105 . S
O545 C530 1.268 . S
Sc546 O549 2.025 . S
Sc546 O556 2.105 . S
Sc546 O559 2.105 . S
Sc546 O562 2.105 . S
Sc546 O565 2.105 . S
Sc547 O549 2.025 . S
Sc547 O557 2.105 . S
Sc547 O561 2.105 . S
Sc547 O563 2.105 . S
Sc547 O567 2.105 . S
Sc548 O549 2.025 . S
Sc548 O558 2.105 . S
Sc548 O560 2.105 . S
Sc548 O564 2.105 . S
Sc548 O566 2.105 . S
O549 Sc546 2.025 . S
O549 Sc547 2.025 . S
O549 Sc548 2.025 . S
C550 O556 1.268 . S
C550 O566 1.268 . S
C551 O557 1.268 . S
C551 O565 1.268 . S
C552 O558 1.268 . S
C552 O567 1.268 . S
C553 O559 1.268 . S
C553 O563 1.268 . S
C554 O560 1.268 . S
C554 O562 1.268 . S
C555 O561 1.268 . S
C555 O564 1.268 . S
O556 Sc546 2.105 . S
O556 C550 1.268 . S
O557 Sc547 2.105 . S
O557 C551 1.268 . S
O558 Sc548 2.105 . S
O558 C552 1.268 . S
O559 Sc546 2.105 . S
O559 C553 1.268 . S
O560 Sc548 2.105 . S
O560 C554 1.268 . S
O561 Sc547 2.105 . S
O561 C555 1.268 . S
O562 Sc546 2.105 . S
O562 C554 1.268 . S
O563 Sc547 2.105 . S
O563 C553 1.268 . S
O564 Sc548 2.105 . S
O564 C555 1.268 . S
O565 Sc546 2.105 . S
O565 C551 1.268 . S
O566 Sc548 2.105 . S
O566 C550 1.268 . S
O567 Sc547 2.105 . S
O567 C552 1.268 . S
H568 C586 0.951 . S
H569 C588 0.951 . S
H570 C590 0.950 . S
H571 C591 0.950 . S
H572 C593 0.950 . S
H573 C596 0.950 . S
H574 C597 0.950 . S
H575 C599 0.916 1_554 S
H576 C600 0.950 . S
H577 C601 0.951 . S
H578 C603 0.951 . S
H579 C605 0.950 . S
H580 C606 0.950 . S
H581 C608 0.950 . S
H582 C611 0.950 . S
H583 C612 0.950 . S
H584 C614 0.950 . S
H585 C615 0.950 . S
C586 H568 0.951 . S
C586 C587 1.366 . S
C586 C588 1.388 . S
C587 C586 1.366 . S
C587 C591 1.385 . S
C588 H569 0.951 . S
C588 C586 1.388 . S
C588 C589 1.366 . S
C589 C588 1.366 . S
C589 C590 1.414 . S
C589 C592 1.499 . S
C590 H570 0.950 . S
C590 C589 1.414 . S
C590 C591 1.374 . S
C591 H571 0.950 . S
C591 C587 1.385 . S
C591 C590 1.374 . S
C592 C589 1.499 . S
C592 C593 1.373 . S
C592 C594 1.389 . S
C593 H572 0.950 . S
C593 C592 1.373 . S
C593 C609 1.377 . S
C594 C592 1.389 . S
C594 C595 1.524 . S
C594 C608 1.377 . S
C595 C594 1.524 . S
C595 C596 1.397 . S
C595 C600 1.363 . S
C596 H573 0.950 . S
C596 C595 1.397 . S
C596 C597 1.334 . S
C597 H574 0.950 . S
C597 C596 1.334 . S
C597 C598 1.287 1_556 S
C598 C597 1.287 1_554 S
C598 C599 1.518 1_554 S
C598 H617 0.913 . S
C599 H575 0.916 1_556 S
C599 C598 1.518 1_556 S
C599 C600 1.461 . S
C600 H576 0.950 . S
C600 C595 1.363 . S
C600 C599 1.461 . S
C601 H577 0.951 . S
C601 C602 1.366 . S
C601 C603 1.388 . S
C602 C601 1.366 . S
C602 C606 1.385 . S
C603 H578 0.951 . S
C603 C601 1.388 . S
C603 C604 1.366 . S
C604 C603 1.366 . S
C604 C605 1.414 . S
C604 C607 1.499 . S
C605 H579 0.950 . S
C605 C604 1.414 . S
C605 C606 1.374 . S
C606 H580 0.950 . S
C606 C602 1.385 . S
C606 C605 1.374 . S
C607 C604 1.499 . S
C607 C608 1.373 . S
C607 C609 1.389 . S
C608 H581 0.950 . S
C608 C594 1.377 . S
C608 C607 1.373 . S
C609 C593 1.377 . S
C609 C607 1.389 . S
C609 C610 1.524 . S
C610 C609 1.524 . S
C610 C611 1.397 . S
C610 C615 1.363 . S
C611 H582 0.950 . S
C611 C610 1.397 . S
C611 C612 1.334 . S
C612 H583 0.950 . S
C612 C611 1.334 . S
C612 C613 1.287 . S
C613 C612 1.287 . S
C613 C614 1.524 . S
C613 H616 0.999 . S
C614 H584 0.950 . S
C614 C613 1.524 . S
C614 C615 1.415 . S
C615 H585 0.950 . S
C615 C610 1.363 . S
C615 C614 1.415 . S
H616 C613 0.999 . S
H617 C598 0.913 . S
H618 C636 0.951 . S
H619 C638 0.951 . S
H620 C640 0.950 . S
H621 C641 0.950 . S
H622 C643 0.950 . S
H623 C646 0.950 . S
H624 C647 0.950 . S
H625 C649 0.950 . S
H626 C650 0.950 . S
H627 C651 0.951 . S
H628 C653 0.951 . S
H629 C655 0.950 . S
H630 C656 0.950 . S
H631 C658 0.950 . S
H632 C661 0.950 . S
H633 C662 0.950 . S
H634 C664 0.950 . S
H635 C665 0.950 . S
C636 H618 0.951 . S
C636 C637 1.366 . S
C636 C638 1.388 . S
C637 C636 1.366 . S
C637 C641 1.385 . S
C638 H619 0.951 . S
C638 C636 1.388 . S
C638 C639 1.366 . S
C639 C638 1.366 . S
C639 C640 1.414 . S
C639 C642 1.499 . S
C640 H620 0.950 . S
C640 C639 1.414 . S
C640 C641 1.374 . S
C641 H621 0.950 . S
C641 C637 1.385 . S
C641 C640 1.374 . S
C642 C639 1.499 . S
C642 C643 1.373 . S
C642 C644 1.389 . S
C643 H622 0.950 . S
C643 C642 1.373 . S
C643 C659 1.377 . S
C644 C642 1.389 . S
C644 C645 1.524 . S
C644 C658 1.377 . S
C645 C644 1.524 . S
C645 C646 1.397 . S
C645 C650 1.363 . S
C646 H623 0.950 . S
C646 C645 1.397 . S
C646 C647 1.334 . S
C647 H624 0.950 . S
C647 C646 1.334 . S
C647 C648 1.287 . S
C648 C647 1.287 . S
C648 C649 1.524 . S
C648 H667 0.913 . S
C649 H625 0.950 . S
C649 C648 1.524 . S
C649 C650 1.415 . S
C650 H626 0.950 . S
C650 C645 1.363 . S
C650 C649 1.415 . S
C651 H627 0.951 . S
C651 C652 1.366 . S
C651 C653 1.388 . S
C652 C651 1.366 . S
C652 C656 1.385 . S
C653 H628 0.951 . S
C653 C651 1.388 . S
C653 C654 1.366 . S
C654 C653 1.366 . S
C654 C655 1.414 . S
C654 C657 1.499 . S
C655 H629 0.950 . S
C655 C654 1.414 . S
C655 C656 1.374 . S
C656 H630 0.950 . S
C656 C652 1.385 . S
C656 C655 1.374 . S
C657 C654 1.499 . S
C657 C658 1.373 . S
C657 C659 1.389 . S
C658 H631 0.950 . S
C658 C644 1.377 . S
C658 C657 1.373 . S
C659 C643 1.377 . S
C659 C657 1.389 . S
C659 C660 1.524 . S
C660 C659 1.524 . S
C660 C661 1.397 . S
C660 C665 1.363 . S
C661 H632 0.950 . S
C661 C660 1.397 . S
C661 C662 1.334 . S
C662 H633 0.950 . S
C662 C661 1.334 . S
C662 C663 1.287 . S
C663 C662 1.287 . S
C663 C664 1.524 . S
C663 H666 0.999 . S
C664 H634 0.950 . S
C664 C663 1.524 . S
C664 C665 1.415 . S
C665 H635 0.950 . S
C665 C660 1.363 . S
C665 C664 1.415 . S
H666 C663 0.999 . S
H667 C648 0.913 . S
H668 C686 0.951 . S
H669 C688 0.951 . S
H670 C690 0.950 . S
H671 C691 0.950 . S
H672 C693 0.950 . S
H673 C696 0.950 . S
H674 C697 0.950 . S
H675 C699 0.950 . S
H676 C700 0.950 . S
H677 C701 0.951 . S
H678 C703 0.951 . S
H679 C705 0.950 . S
H680 C706 0.950 . S
H681 C708 0.950 . S
H682 C711 0.950 . S
H683 C712 0.950 . S
H684 C714 0.950 . S
H685 C715 0.950 . S
C686 H668 0.951 . S
C686 C687 1.366 . S
C686 C688 1.388 . S
C687 C686 1.366 . S
C687 C691 1.385 . S
C688 H669 0.951 . S
C688 C686 1.388 . S
C688 C689 1.366 . S
C689 C688 1.366 . S
C689 C690 1.414 . S
C689 C692 1.499 . S
C690 H670 0.950 . S
C690 C689 1.414 . S
C690 C691 1.374 . S
C691 H671 0.950 . S
C691 C687 1.385 . S
C691 C690 1.374 . S
C692 C689 1.499 . S
C692 C693 1.373 . S
C692 C694 1.389 . S
C693 H672 0.950 . S
C693 C692 1.373 . S
C693 C709 1.377 . S
C694 C692 1.389 . S
C694 C695 1.524 . S
C694 C708 1.377 . S
C695 C694 1.524 . S
C695 C696 1.397 . S
C695 C700 1.363 . S
C696 H673 0.950 . S
C696 C695 1.397 . S
C696 C697 1.334 . S
C697 H674 0.950 . S
C697 C696 1.334 . S
C697 C698 1.287 . S
C698 C697 1.287 . S
C698 C699 1.524 . S
C698 H717 0.913 . S
C699 H675 0.950 . S
C699 C698 1.524 . S
C699 C700 1.415 . S
C700 H676 0.950 . S
C700 C695 1.363 . S
C700 C699 1.415 . S
C701 H677 0.951 . S
C701 C702 1.366 . S
C701 C703 1.388 . S
C702 C701 1.366 . S
C702 C706 1.385 . S
C703 H678 0.951 . S
C703 C701 1.388 . S
C703 C704 1.366 . S
C704 C703 1.366 . S
C704 C705 1.414 . S
C704 C707 1.499 . S
C705 H679 0.950 . S
C705 C704 1.414 . S
C705 C706 1.374 . S
C706 H680 0.950 . S
C706 C702 1.385 . S
C706 C705 1.374 . S
C707 C704 1.499 . S
C707 C708 1.373 . S
C707 C709 1.389 . S
C708 H681 0.950 . S
C708 C694 1.377 . S
C708 C707 1.373 . S
C709 C693 1.377 . S
C709 C707 1.389 . S
C709 C710 1.524 . S
C710 C709 1.524 . S
C710 C711 1.397 . S
C710 C715 1.363 . S
C711 H682 0.950 . S
C711 C710 1.397 . S
C711 C712 1.334 . S
C712 H683 0.950 . S
C712 C711 1.334 . S
C712 C713 1.287 . S
C713 C712 1.287 . S
C713 C714 1.524 . S
C713 H716 0.999 . S
C714 H684 0.950 . S
C714 C713 1.524 . S
C714 C715 1.415 . S
C715 H685 0.950 . S
C715 C710 1.363 . S
C715 C714 1.415 . S
H716 C713 0.999 . S
H717 C698 0.913 . S
H718 C736 0.951 . S
H719 C738 0.951 . S
H720 C740 0.950 . S
H721 C741 0.950 . S
H722 C743 0.950 . S
H723 C746 0.950 . S
H724 C747 0.950 . S
H725 C749 0.950 . S
H726 C750 0.950 . S
H727 C751 0.951 . S
H728 C753 0.951 . S
H729 C755 0.950 . S
H730 C756 0.950 . S
H731 C758 0.950 . S
H732 C761 0.950 . S
H733 C762 0.950 . S
H734 C764 0.950 . S
H735 C765 0.950 . S
C736 H718 0.951 . S
C736 C737 1.366 . S
C736 C738 1.388 . S
C737 C736 1.366 . S
C737 C741 1.385 . S
C738 H719 0.951 . S
C738 C736 1.388 . S
C738 C739 1.366 . S
C739 C738 1.366 . S
C739 C740 1.414 . S
C739 C742 1.499 . S
C740 H720 0.950 . S
C740 C739 1.414 . S
C740 C741 1.374 . S
C741 H721 0.950 . S
C741 C737 1.385 . S
C741 C740 1.374 . S
C742 C739 1.499 . S
C742 C743 1.373 . S
C742 C744 1.389 . S
C743 H722 0.950 . S
C743 C742 1.373 . S
C743 C759 1.377 . S
C744 C742 1.389 . S
C744 C745 1.524 . S
C744 C758 1.377 . S
C745 C744 1.524 . S
C745 C746 1.397 . S
C745 C750 1.363 . S
C746 H723 0.950 . S
C746 C745 1.397 . S
C746 C747 1.334 . S
C747 H724 0.950 . S
C747 C746 1.334 . S
C747 C748 1.287 . S
C748 C747 1.287 . S
C748 C749 1.524 . S
C748 H767 0.913 . S
C749 H725 0.950 . S
C749 C748 1.524 . S
C749 C750 1.415 . S
C750 H726 0.950 . S
C750 C745 1.363 . S
C750 C749 1.415 . S
C751 H727 0.951 . S
C751 C752 1.366 . S
C751 C753 1.388 . S
C752 C751 1.366 . S
C752 C756 1.385 . S
C753 H728 0.951 . S
C753 C751 1.388 . S
C753 C754 1.366 . S
C754 C753 1.366 . S
C754 C755 1.414 . S
C754 C757 1.499 . S
C755 H729 0.950 . S
C755 C754 1.414 . S
C755 C756 1.374 . S
C756 H730 0.950 . S
C756 C752 1.385 . S
C756 C755 1.374 . S
C757 C754 1.499 . S
C757 C758 1.373 . S
C757 C759 1.389 . S
C758 H731 0.950 . S
C758 C744 1.377 . S
C758 C757 1.373 . S
C759 C743 1.377 . S
C759 C757 1.389 . S
C759 C760 1.524 . S
C760 C759 1.524 . S
C760 C761 1.397 . S
C760 C765 1.363 . S
C761 H732 0.950 . S
C761 C760 1.397 . S
C761 C762 1.334 . S
C762 H733 0.950 . S
C762 C761 1.334 . S
C762 C763 1.287 . S
C763 C762 1.287 . S
C763 C764 1.524 . S
C763 H766 0.999 . S
C764 H734 0.950 . S
C764 C763 1.524 . S
C764 C765 1.415 . S
C765 H735 0.950 . S
C765 C760 1.363 . S
C765 C764 1.415 . S
H766 C763 0.999 . S
H767 C748 0.913 . S
H768 C786 0.951 . S
H769 C788 0.951 . S
H770 C790 0.950 . S
H771 C791 0.950 . S
H772 C793 0.950 . S
H773 C796 0.950 . S
H774 C797 0.950 . S
H775 C799 0.950 . S
H776 C800 0.950 . S
H777 C801 0.951 . S
H778 C803 0.951 . S
H779 C805 0.950 . S
H780 C806 0.950 . S
H781 C808 0.950 . S
H782 C811 0.950 . S
H783 C812 0.950 . S
H784 C814 0.950 . S
H785 C815 0.950 . S
C786 H768 0.951 . S
C786 C787 1.366 . S
C786 C788 1.388 . S
C787 C786 1.366 . S
C787 C791 1.385 . S
C788 H769 0.951 . S
C788 C786 1.388 . S
C788 C789 1.366 . S
C789 C788 1.366 . S
C789 C790 1.414 . S
C789 C792 1.499 . S
C790 H770 0.950 . S
C790 C789 1.414 . S
C790 C791 1.374 . S
C791 H771 0.950 . S
C791 C787 1.385 . S
C791 C790 1.374 . S
C792 C789 1.499 . S
C792 C793 1.373 . S
C792 C794 1.389 . S
C793 H772 0.950 . S
C793 C792 1.373 . S
C793 C809 1.377 . S
C794 C792 1.389 . S
C794 C795 1.524 . S
C794 C808 1.377 . S
C795 C794 1.524 . S
C795 C796 1.397 . S
C795 C800 1.363 . S
C796 H773 0.950 . S
C796 C795 1.397 . S
C796 C797 1.334 . S
C797 H774 0.950 . S
C797 C796 1.334 . S
C797 C798 1.287 . S
C798 C797 1.287 . S
C798 C799 1.524 . S
C798 H817 0.913 . S
C799 H775 0.950 . S
C799 C798 1.524 . S
C799 C800 1.415 . S
C800 H776 0.950 . S
C800 C795 1.363 . S
C800 C799 1.415 . S
C801 H777 0.951 . S
C801 C802 1.366 . S
C801 C803 1.388 . S
C802 C801 1.366 . S
C802 C806 1.385 . S
C803 H778 0.951 . S
C803 C801 1.388 . S
C803 C804 1.366 . S
C804 C803 1.366 . S
C804 C805 1.414 . S
C804 C807 1.499 . S
C805 H779 0.950 . S
C805 C804 1.414 . S
C805 C806 1.374 . S
C806 H780 0.950 . S
C806 C802 1.385 . S
C806 C805 1.374 . S
C807 C804 1.499 . S
C807 C808 1.373 . S
C807 C809 1.389 . S
C808 H781 0.950 . S
C808 C794 1.377 . S
C808 C807 1.373 . S
C809 C793 1.377 . S
C809 C807 1.389 . S
C809 C810 1.524 . S
C810 C809 1.524 . S
C810 C811 1.397 . S
C810 C815 1.363 . S
C811 H782 0.950 . S
C811 C810 1.397 . S
C811 C812 1.334 . S
C812 H783 0.950 . S
C812 C811 1.334 . S
C812 C813 1.287 . S
C813 C812 1.287 . S
C813 C814 1.524 . S
C813 H816 0.999 . S
C814 H784 0.950 . S
C814 C813 1.524 . S
C814 C815 1.415 . S
C815 H785 0.950 . S
C815 C810 1.363 . S
C815 C814 1.415 . S
H816 C813 0.999 . S
H817 C798 0.913 . S
H818 C836 0.951 . S
H819 C838 0.951 . S
H820 C840 0.950 . S
H821 C841 0.950 . S
H822 C843 0.950 . S
H823 C846 0.950 . S
H824 C847 0.950 . S
H825 C849 0.950 . S
H826 C850 0.950 . S
H827 C851 0.951 . S
H828 C853 0.951 . S
H829 C855 0.950 . S
H830 C856 0.950 . S
H831 C858 0.950 . S
H832 C861 0.950 . S
H833 C862 0.950 . S
H834 C864 0.950 . S
H835 C865 0.950 . S
C836 H818 0.951 . S
C836 C837 1.366 . S
C836 C838 1.388 . S
C837 C836 1.366 . S
C837 C841 1.385 . S
C838 H819 0.951 . S
C838 C836 1.388 . S
C838 C839 1.366 . S
C839 C838 1.366 . S
C839 C840 1.414 . S
C839 C842 1.499 . S
C840 H820 0.950 . S
C840 C839 1.414 . S
C840 C841 1.374 . S
C841 H821 0.950 . S
C841 C837 1.385 . S
C841 C840 1.374 . S
C842 C839 1.499 . S
C842 C843 1.373 . S
C842 C844 1.389 . S
C843 H822 0.950 . S
C843 C842 1.373 . S
C843 C859 1.377 . S
C844 C842 1.389 . S
C844 C845 1.524 . S
C844 C858 1.377 . S
C845 C844 1.524 . S
C845 C846 1.397 . S
C845 C850 1.363 . S
C846 H823 0.950 . S
C846 C845 1.397 . S
C846 C847 1.334 . S
C847 H824 0.950 . S
C847 C846 1.334 . S
C847 C848 1.287 . S
C848 C847 1.287 . S
C848 C849 1.524 . S
C848 H867 0.913 . S
C849 H825 0.950 . S
C849 C848 1.524 . S
C849 C850 1.415 . S
C850 H826 0.950 . S
C850 C845 1.363 . S
C850 C849 1.415 . S
C851 H827 0.951 . S
C851 C852 1.366 . S
C851 C853 1.388 . S
C852 C851 1.366 . S
C852 C856 1.385 . S
C853 H828 0.951 . S
C853 C851 1.388 . S
C853 C854 1.366 . S
C854 C853 1.366 . S
C854 C855 1.414 . S
C854 C857 1.499 . S
C855 H829 0.950 . S
C855 C854 1.414 . S
C855 C856 1.374 . S
C856 H830 0.950 . S
C856 C852 1.385 . S
C856 C855 1.374 . S
C857 C854 1.499 . S
C857 C858 1.373 . S
C857 C859 1.389 . S
C858 H831 0.950 . S
C858 C844 1.377 . S
C858 C857 1.373 . S
C859 C843 1.377 . S
C859 C857 1.389 . S
C859 C860 1.524 . S
C860 C859 1.524 . S
C860 C861 1.397 . S
C860 C865 1.363 . S
C861 H832 0.950 . S
C861 C860 1.397 . S
C861 C862 1.334 . S
C862 H833 0.950 . S
C862 C861 1.334 . S
C862 C863 1.287 . S
C863 C862 1.287 . S
C863 C864 1.524 . S
C863 H866 0.999 . S
C864 H834 0.950 . S
C864 C863 1.524 . S
C864 C865 1.415 . S
C865 H835 0.950 . S
C865 C860 1.363 . S
C865 C864 1.415 . S
H866 C863 0.999 . S
H867 C848 0.913 . S
H868 C886 0.951 . S
H869 C888 0.951 . S
H870 C890 0.950 . S
H871 C891 0.950 . S
H872 C893 0.950 . S
H873 C896 0.950 . S
H874 C897 0.950 . S
H875 C899 0.950 . S
H876 C900 0.950 . S
H877 C901 0.951 . S
H878 C903 0.951 . S
H879 C905 0.950 . S
H880 C906 0.950 . S
H881 C908 0.950 . S
H882 C911 0.950 . S
H883 C912 0.950 . S
H884 C914 0.950 . S
H885 C915 0.950 . S
C886 H868 0.951 . S
C886 C887 1.366 . S
C886 C888 1.388 . S
C887 C886 1.366 . S
C887 C891 1.385 . S
C888 H869 0.951 . S
C888 C886 1.388 . S
C888 C889 1.366 . S
C889 C888 1.366 . S
C889 C890 1.414 . S
C889 C892 1.499 . S
C890 H870 0.950 . S
C890 C889 1.414 . S
C890 C891 1.374 . S
C891 H871 0.950 . S
C891 C887 1.385 . S
C891 C890 1.374 . S
C892 C889 1.499 . S
C892 C893 1.373 . S
C892 C894 1.389 . S
C893 H872 0.950 . S
C893 C892 1.373 . S
C893 C909 1.377 . S
C894 C892 1.389 . S
C894 C895 1.524 . S
C894 C908 1.377 . S
C895 C894 1.524 . S
C895 C896 1.397 . S
C895 C900 1.363 . S
C896 H873 0.950 . S
C896 C895 1.397 . S
C896 C897 1.334 . S
C897 H874 0.950 . S
C897 C896 1.334 . S
C897 C898 1.287 . S
C898 C897 1.287 . S
C898 C899 1.524 . S
C898 H917 0.913 . S
C899 H875 0.950 . S
C899 C898 1.524 . S
C899 C900 1.415 . S
C900 H876 0.950 . S
C900 C895 1.363 . S
C900 C899 1.415 . S
C901 H877 0.951 . S
C901 C902 1.366 . S
C901 C903 1.388 . S
C902 C901 1.366 . S
C902 C906 1.385 . S
C903 H878 0.951 . S
C903 C901 1.388 . S
C903 C904 1.366 . S
C904 C903 1.366 . S
C904 C905 1.414 . S
C904 C907 1.499 . S
C905 H879 0.950 . S
C905 C904 1.414 . S
C905 C906 1.374 . S
C906 H880 0.950 . S
C906 C902 1.385 . S
C906 C905 1.374 . S
C907 C904 1.499 . S
C907 C908 1.373 . S
C907 C909 1.389 . S
C908 H881 0.950 . S
C908 C894 1.377 . S
C908 C907 1.373 . S
C909 C893 1.377 . S
C909 C907 1.389 . S
C909 C910 1.524 . S
C910 C909 1.524 . S
C910 C911 1.397 . S
C910 C915 1.363 . S
C911 H882 0.950 . S
C911 C910 1.397 . S
C911 C912 1.334 . S
C912 H883 0.950 . S
C912 C911 1.334 . S
C912 C913 1.287 . S
C913 C912 1.287 . S
C913 C914 1.524 . S
C913 H916 0.999 . S
C914 H884 0.950 . S
C914 C913 1.524 . S
C914 C915 1.415 . S
C915 H885 0.950 . S
C915 C910 1.363 . S
C915 C914 1.415 . S
H916 C913 0.999 . S
H917 C898 0.913 . S
H918 C936 0.951 . S
H919 C938 0.951 . S
H920 C940 0.950 . S
H921 C941 0.950 . S
H922 C943 0.950 . S
H923 C946 0.950 . S
H924 C947 0.950 . S
H925 C949 0.950 . S
H926 C950 0.950 . S
H927 C951 0.951 . S
H928 C953 0.951 . S
H929 C955 0.950 . S
H930 C956 0.950 . S
H931 C958 0.950 . S
H932 C961 0.950 . S
H933 C962 0.950 . S
H934 C964 0.950 . S
H935 C965 0.950 . S
C936 H918 0.951 . S
C936 C937 1.366 . S
C936 C938 1.388 . S
C937 C936 1.366 . S
C937 C941 1.385 . S
C938 H919 0.951 . S
C938 C936 1.388 . S
C938 C939 1.366 . S
C939 C938 1.366 . S
C939 C940 1.414 . S
C939 C942 1.499 . S
C940 H920 0.950 . S
C940 C939 1.414 . S
C940 C941 1.374 . S
C941 H921 0.950 . S
C941 C937 1.385 . S
C941 C940 1.374 . S
C942 C939 1.499 . S
C942 C943 1.373 . S
C942 C944 1.389 . S
C943 H922 0.950 . S
C943 C942 1.373 . S
C943 C959 1.377 . S
C944 C942 1.389 . S
C944 C945 1.524 . S
C944 C958 1.377 . S
C945 C944 1.524 . S
C945 C946 1.397 . S
C945 C950 1.363 . S
C946 H923 0.950 . S
C946 C945 1.397 . S
C946 C947 1.334 . S
C947 H924 0.950 . S
C947 C946 1.334 . S
C947 C948 1.287 . S
C948 C947 1.287 . S
C948 C949 1.524 . S
C948 H967 0.913 . S
C949 H925 0.950 . S
C949 C948 1.524 . S
C949 C950 1.415 . S
C950 H926 0.950 . S
C950 C945 1.363 . S
C950 C949 1.415 . S
C951 H927 0.951 . S
C951 C952 1.366 . S
C951 C953 1.388 . S
C952 C951 1.366 . S
C952 C956 1.385 . S
C953 H928 0.951 . S
C953 C951 1.388 . S
C953 C954 1.366 . S
C954 C953 1.366 . S
C954 C955 1.414 . S
C954 C957 1.499 . S
C955 H929 0.950 . S
C955 C954 1.414 . S
C955 C956 1.374 . S
C956 H930 0.950 . S
C956 C952 1.385 . S
C956 C955 1.374 . S
C957 C954 1.499 . S
C957 C958 1.373 . S
C957 C959 1.389 . S
C958 H931 0.950 . S
C958 C944 1.377 . S
C958 C957 1.373 . S
C959 C943 1.377 . S
C959 C957 1.389 . S
C959 C960 1.524 . S
C960 C959 1.524 . S
C960 C961 1.397 . S
C960 C965 1.363 . S
C961 H932 0.950 . S
C961 C960 1.397 . S
C961 C962 1.334 . S
C962 H933 0.950 . S
C962 C961 1.334 . S
C962 C963 1.287 . S
C963 C962 1.287 . S
C963 C964 1.524 . S
C963 H966 0.999 . S
C964 H934 0.950 . S
C964 C963 1.524 . S
C964 C965 1.415 . S
C965 H935 0.950 . S
C965 C960 1.363 . S
C965 C964 1.415 . S
H966 C963 0.999 . S
H967 C948 0.913 . S
H968 C986 0.951 . S
H969 C988 0.951 . S
H970 C990 0.950 . S
H971 C991 0.950 . S
H972 C993 0.950 . S
H973 C996 0.950 . S
H974 C997 0.950 . S
H975 C999 0.950 . S
H976 C1000 0.950 . S
H977 C1001 0.951 . S
H978 C1003 0.951 . S
H979 C1005 0.950 . S
H980 C1006 0.950 . S
H981 C1008 0.950 . S
H982 C1011 0.950 . S
H983 C1012 0.950 . S
H984 C1014 0.950 . S
H985 C1015 0.950 . S
C986 H968 0.951 . S
C986 C987 1.366 . S
C986 C988 1.388 . S
C987 C986 1.366 . S
C987 C991 1.385 . S
C988 H969 0.951 . S
C988 C986 1.388 . S
C988 C989 1.366 . S
C989 C988 1.366 . S
C989 C990 1.414 . S
C989 C992 1.499 . S
C990 H970 0.950 . S
C990 C989 1.414 . S
C990 C991 1.374 . S
C991 H971 0.950 . S
C991 C987 1.385 . S
C991 C990 1.374 . S
C992 C989 1.499 . S
C992 C993 1.373 . S
C992 C994 1.389 . S
C993 H972 0.950 . S
C993 C992 1.373 . S
C993 C1009 1.377 . S
C994 C992 1.389 . S
C994 C995 1.524 . S
C994 C1008 1.377 . S
C995 C994 1.524 . S
C995 C996 1.397 . S
C995 C1000 1.363 . S
C996 H973 0.950 . S
C996 C995 1.397 . S
C996 C997 1.334 . S
C997 H974 0.950 . S
C997 C996 1.334 . S
C997 C998 1.287 . S
C998 C997 1.287 . S
C998 C999 1.524 . S
C998 H1017 0.913 . S
C999 H975 0.950 . S
C999 C998 1.524 . S
C999 C1000 1.415 . S
C1000 H976 0.950 . S
C1000 C995 1.363 . S
C1000 C999 1.415 . S
C1001 H977 0.951 . S
C1001 C1002 1.366 . S
C1001 C1003 1.388 . S
C1002 C1001 1.366 . S
C1002 C1006 1.385 . S
C1003 H978 0.951 . S
C1003 C1001 1.388 . S
C1003 C1004 1.366 . S
C1004 C1003 1.366 . S
C1004 C1005 1.414 . S
C1004 C1007 1.499 . S
C1005 H979 0.950 . S
C1005 C1004 1.414 . S
C1005 C1006 1.374 . S
C1006 H980 0.950 . S
C1006 C1002 1.385 . S
C1006 C1005 1.374 . S
C1007 C1004 1.499 . S
C1007 C1008 1.373 . S
C1007 C1009 1.389 . S
C1008 H981 0.950 . S
C1008 C994 1.377 . S
C1008 C1007 1.373 . S
C1009 C993 1.377 . S
C1009 C1007 1.389 . S
C1009 C1010 1.524 . S
C1010 C1009 1.524 . S
C1010 C1011 1.397 . S
C1010 C1015 1.363 . S
C1011 H982 0.950 . S
C1011 C1010 1.397 . S
C1011 C1012 1.334 . S
C1012 H983 0.950 . S
C1012 C1011 1.334 . S
C1012 C1013 1.287 . S
C1013 C1012 1.287 . S
C1013 C1014 1.524 . S
C1013 H1016 0.999 . S
C1014 H984 0.950 . S
C1014 C1013 1.524 . S
C1014 C1015 1.415 . S
C1015 H985 0.950 . S
C1015 C1010 1.363 . S
C1015 C1014 1.415 . S
H1016 C1013 0.999 . S
H1017 C998 0.913 . S
H1018 C1036 0.951 . S
H1019 C1038 0.951 . S
H1020 C1040 0.950 . S
H1021 C1041 0.950 . S
H1022 C1043 0.950 . S
H1023 C1046 0.950 . S
H1024 C1047 0.950 . S
H1025 C1049 0.950 . S
H1026 C1050 0.950 . S
H1027 C1051 0.951 . S
H1028 C1053 0.951 . S
H1029 C1055 0.950 . S
H1030 C1056 0.950 . S
H1031 C1058 0.950 . S
H1032 C1061 0.950 . S
H1033 C1062 0.950 . S
H1034 C1064 0.950 . S
H1035 C1065 0.950 . S
C1036 H1018 0.951 . S
C1036 C1037 1.366 . S
C1036 C1038 1.388 . S
C1037 C1036 1.366 . S
C1037 C1041 1.385 . S
C1038 H1019 0.951 . S
C1038 C1036 1.388 . S
C1038 C1039 1.366 . S
C1039 C1038 1.366 . S
C1039 C1040 1.414 . S
C1039 C1042 1.499 . S
C1040 H1020 0.950 . S
C1040 C1039 1.414 . S
C1040 C1041 1.374 . S
C1041 H1021 0.950 . S
C1041 C1037 1.385 . S
C1041 C1040 1.374 . S
C1042 C1039 1.499 . S
C1042 C1043 1.373 . S
C1042 C1044 1.389 . S
C1043 H1022 0.950 . S
C1043 C1042 1.373 . S
C1043 C1059 1.377 . S
C1044 C1042 1.389 . S
C1044 C1045 1.524 . S
C1044 C1058 1.377 . S
C1045 C1044 1.524 . S
C1045 C1046 1.397 . S
C1045 C1050 1.363 . S
C1046 H1023 0.950 . S
C1046 C1045 1.397 . S
C1046 C1047 1.334 . S
C1047 H1024 0.950 . S
C1047 C1046 1.334 . S
C1047 C1048 1.287 . S
C1048 C1047 1.287 . S
C1048 C1049 1.524 . S
C1048 H1067 0.913 . S
C1049 H1025 0.950 . S
C1049 C1048 1.524 . S
C1049 C1050 1.415 . S
C1050 H1026 0.950 . S
C1050 C1045 1.363 . S
C1050 C1049 1.415 . S
C1051 H1027 0.951 . S
C1051 C1052 1.366 . S
C1051 C1053 1.388 . S
C1052 C1051 1.366 . S
C1052 C1056 1.385 . S
C1053 H1028 0.951 . S
C1053 C1051 1.388 . S
C1053 C1054 1.366 . S
C1054 C1053 1.366 . S
C1054 C1055 1.414 . S
C1054 C1057 1.499 . S
C1055 H1029 0.950 . S
C1055 C1054 1.414 . S
C1055 C1056 1.374 . S
C1056 H1030 0.950 . S
C1056 C1052 1.385 . S
C1056 C1055 1.374 . S
C1057 C1054 1.499 . S
C1057 C1058 1.373 . S
C1057 C1059 1.389 . S
C1058 H1031 0.950 . S
C1058 C1044 1.377 . S
C1058 C1057 1.373 . S
C1059 C1043 1.377 . S
C1059 C1057 1.389 . S
C1059 C1060 1.524 . S
C1060 C1059 1.524 . S
C1060 C1061 1.397 . S
C1060 C1065 1.363 . S
C1061 H1032 0.950 . S
C1061 C1060 1.397 . S
C1061 C1062 1.334 . S
C1062 H1033 0.950 . S
C1062 C1061 1.334 . S
C1062 C1063 1.287 . S
C1063 C1062 1.287 . S
C1063 C1064 1.524 . S
C1063 H1066 0.999 . S
C1064 H1034 0.950 . S
C1064 C1063 1.524 . S
C1064 C1065 1.415 . S
C1065 H1035 0.950 . S
C1065 C1060 1.363 . S
C1065 C1064 1.415 . S
H1066 C1063 0.999 . S
H1067 C1048 0.913 . S
H1068 C1086 0.951 . S
H1069 C1088 0.951 . S
H1070 C1090 0.950 . S
H1071 C1091 0.950 . S
H1072 C1093 0.950 . S
H1073 C1096 0.950 . S
H1074 C1097 0.950 . S
H1075 C1099 0.950 . S
H1076 C1100 0.950 . S
H1077 C1101 0.951 . S
H1078 C1103 0.951 . S
H1079 C1105 0.950 . S
H1080 C1106 0.950 . S
H1081 C1108 0.950 . S
H1082 C1111 0.950 . S
H1083 C1112 0.950 . S
H1084 C1114 0.950 . S
H1085 C1115 0.950 . S
C1086 H1068 0.951 . S
C1086 C1087 1.366 . S
C1086 C1088 1.388 . S
C1087 C1086 1.366 . S
C1087 C1091 1.385 . S
C1088 H1069 0.951 . S
C1088 C1086 1.388 . S
C1088 C1089 1.366 . S
C1089 C1088 1.366 . S
C1089 C1090 1.414 . S
C1089 C1092 1.499 . S
C1090 H1070 0.950 . S
C1090 C1089 1.414 . S
C1090 C1091 1.374 . S
C1091 H1071 0.950 . S
C1091 C1087 1.385 . S
C1091 C1090 1.374 . S
C1092 C1089 1.499 . S
C1092 C1093 1.373 . S
C1092 C1094 1.389 . S
C1093 H1072 0.950 . S
C1093 C1092 1.373 . S
C1093 C1109 1.377 . S
C1094 C1092 1.389 . S
C1094 C1095 1.524 . S
C1094 C1108 1.377 . S
C1095 C1094 1.524 . S
C1095 C1096 1.397 . S
C1095 C1100 1.363 . S
C1096 H1073 0.950 . S
C1096 C1095 1.397 . S
C1096 C1097 1.334 . S
C1097 H1074 0.950 . S
C1097 C1096 1.334 . S
C1097 C1098 1.287 . S
C1098 C1097 1.287 . S
C1098 C1099 1.524 . S
C1098 H1117 0.913 . S
C1099 H1075 0.950 . S
C1099 C1098 1.524 . S
C1099 C1100 1.415 . S
C1100 H1076 0.950 . S
C1100 C1095 1.363 . S
C1100 C1099 1.415 . S
C1101 H1077 0.951 . S
C1101 C1102 1.366 . S
C1101 C1103 1.388 . S
C1102 C1101 1.366 . S
C1102 C1106 1.385 . S
C1103 H1078 0.951 . S
C1103 C1101 1.388 . S
C1103 C1104 1.366 . S
C1104 C1103 1.366 . S
C1104 C1105 1.414 . S
C1104 C1107 1.499 . S
C1105 H1079 0.950 . S
C1105 C1104 1.414 . S
C1105 C1106 1.374 . S
C1106 H1080 0.950 . S
C1106 C1102 1.385 . S
C1106 C1105 1.374 . S
C1107 C1104 1.499 . S
C1107 C1108 1.373 . S
C1107 C1109 1.389 . S
C1108 H1081 0.950 . S
C1108 C1094 1.377 . S
C1108 C1107 1.373 . S
C1109 C1093 1.377 . S
C1109 C1107 1.389 . S
C1109 C1110 1.524 . S
C1110 C1109 1.524 . S
C1110 C1111 1.397 . S
C1110 C1115 1.363 . S
C1111 H1082 0.950 . S
C1111 C1110 1.397 . S
C1111 C1112 1.334 . S
C1112 H1083 0.950 . S
C1112 C1111 1.334 . S
C1112 C1113 1.287 . S
C1113 C1112 1.287 . S
C1113 C1114 1.524 . S
C1113 H1116 0.999 . S
C1114 H1084 0.950 . S
C1114 C1113 1.524 . S
C1114 C1115 1.415 . S
C1115 H1085 0.950 . S
C1115 C1110 1.363 . S
C1115 C1114 1.415 . S
H1116 C1113 0.999 . S
H1117 C1098 0.913 . S
H1118 C1136 0.951 . S
H1119 C1138 0.951 . S
H1120 C1140 0.950 . S
H1121 C1141 0.950 . S
H1122 C1143 0.950 . S
H1123 C1146 0.950 . S
H1124 C1147 0.950 . S
H1125 C1149 0.950 . S
H1126 C1150 0.950 . S
H1127 C1151 0.951 . S
H1128 C1153 0.951 . S
H1129 C1155 0.950 . S
H1130 C1156 0.950 . S
H1131 C1158 0.950 . S
H1132 C1161 0.950 . S
H1133 C1162 0.950 . S
H1134 C1164 0.950 . S
H1135 C1165 0.950 . S
C1136 H1118 0.951 . S
C1136 C1137 1.366 . S
C1136 C1138 1.388 . S
C1137 C1136 1.366 . S
C1137 C1141 1.385 . S
C1138 H1119 0.951 . S
C1138 C1136 1.388 . S
C1138 C1139 1.366 . S
C1139 C1138 1.366 . S
C1139 C1140 1.414 . S
C1139 C1142 1.499 . S
C1140 H1120 0.950 . S
C1140 C1139 1.414 . S
C1140 C1141 1.374 . S
C1141 H1121 0.950 . S
C1141 C1137 1.385 . S
C1141 C1140 1.374 . S
C1142 C1139 1.499 . S
C1142 C1143 1.373 . S
C1142 C1144 1.389 . S
C1143 H1122 0.950 . S
C1143 C1142 1.373 . S
C1143 C1159 1.377 . S
C1144 C1142 1.389 . S
C1144 C1145 1.524 . S
C1144 C1158 1.377 . S
C1145 C1144 1.524 . S
C1145 C1146 1.397 . S
C1145 C1150 1.363 . S
C1146 H1123 0.950 . S
C1146 C1145 1.397 . S
C1146 C1147 1.334 . S
C1147 H1124 0.950 . S
C1147 C1146 1.334 . S
C1147 C1148 1.287 . S
C1148 C1147 1.287 . S
C1148 C1149 1.524 . S
C1148 H1167 0.913 . S
C1149 H1125 0.950 . S
C1149 C1148 1.524 . S
C1149 C1150 1.415 . S
C1150 H1126 0.950 . S
C1150 C1145 1.363 . S
C1150 C1149 1.415 . S
C1151 H1127 0.951 . S
C1151 C1152 1.366 . S
C1151 C1153 1.388 . S
C1152 C1151 1.366 . S
C1152 C1156 1.385 . S
C1153 H1128 0.951 . S
C1153 C1151 1.388 . S
C1153 C1154 1.366 . S
C1154 C1153 1.366 . S
C1154 C1155 1.414 . S
C1154 C1157 1.499 . S
C1155 H1129 0.950 . S
C1155 C1154 1.414 . S
C1155 C1156 1.374 . S
C1156 H1130 0.950 . S
C1156 C1152 1.385 . S
C1156 C1155 1.374 . S
C1157 C1154 1.499 . S
C1157 C1158 1.373 . S
C1157 C1159 1.389 . S
C1158 H1131 0.950 . S
C1158 C1144 1.377 . S
C1158 C1157 1.373 . S
C1159 C1143 1.377 . S
C1159 C1157 1.389 . S
C1159 C1160 1.524 . S
C1160 C1159 1.524 . S
C1160 C1161 1.397 . S
C1160 C1165 1.363 . S
C1161 H1132 0.950 . S
C1161 C1160 1.397 . S
C1161 C1162 1.334 . S
C1162 H1133 0.950 . S
C1162 C1161 1.334 . S
C1162 C1163 1.287 . S
C1163 C1162 1.287 . S
C1163 C1164 1.524 . S
C1163 H1166 0.999 . S
C1164 H1134 0.950 . S
C1164 C1163 1.524 . S
C1164 C1165 1.415 . S
C1165 H1135 0.950 . S
C1165 C1160 1.363 . S
C1165 C1164 1.415 . S
H1166 C1163 0.999 . S
H1167 C1148 0.913 . S
H1168 C1186 0.951 1_565 S
H1169 C1188 0.951 . S
H1170 C1190 0.950 . S
H1171 C1191 0.950 . S
H1172 C1193 0.950 . S
H1173 C1196 0.950 . S
H1174 C1197 0.950 . S
H1175 C1199 0.950 1_554 S
H1176 C1200 0.950 . S
H1177 C1201 0.951 . S
H1178 C1203 0.951 . S
H1179 C1205 0.950 . S
H1180 C1206 0.950 . S
H1181 C1208 0.950 . S
H1182 C1211 0.950 . S
H1183 C1212 0.950 . S
H1184 C1214 0.950 . S
H1185 C1215 0.950 . S
C1186 H1168 0.951 1_545 S
C1186 C1187 1.366 1_545 S
C1186 C1188 1.388 . S
C1187 C1186 1.366 1_565 S
C1187 C1191 1.385 1_565 S
C1188 H1169 0.951 . S
C1188 C1186 1.388 . S
C1188 C1189 1.366 . S
C1189 C1188 1.366 . S
C1189 C1190 1.414 . S
C1189 C1192 1.499 . S
C1190 H1170 0.950 . S
C1190 C1189 1.414 . S
C1190 C1191 1.374 . S
C1191 H1171 0.950 . S
C1191 C1187 1.385 1_545 S
C1191 C1190 1.374 . S
C1192 C1189 1.499 . S
C1192 C1193 1.373 . S
C1192 C1194 1.389 . S
C1193 H1172 0.950 . S
C1193 C1192 1.373 . S
C1193 C1209 1.377 . S
C1194 C1192 1.389 . S
C1194 C1195 1.524 . S
C1194 C1208 1.377 . S
C1195 C1194 1.524 . S
C1195 C1196 1.397 . S
C1195 C1200 1.363 . S
C1196 H1173 0.950 . S
C1196 C1195 1.397 . S
C1196 C1197 1.334 . S
C1197 H1174 0.950 . S
C1197 C1196 1.334 . S
C1197 C1198 1.287 . S
C1198 C1197 1.287 . S
C1198 C1199 1.524 . S
C1198 H1217 0.913 1_556 S
C1199 H1175 0.950 1_556 S
C1199 C1198 1.524 . S
C1199 C1200 1.415 . S
C1200 H1176 0.950 . S
C1200 C1195 1.363 . S
C1200 C1199 1.415 . S
C1201 H1177 0.951 . S
C1201 C1202 1.366 . S
C1201 C1203 1.388 . S
C1202 C1201 1.366 . S
C1202 C1206 1.385 . S
C1203 H1178 0.951 . S
C1203 C1201 1.388 . S
C1203 C1204 1.366 . S
C1204 C1203 1.366 . S
C1204 C1205 1.414 . S
C1204 C1207 1.499 . S
C1205 H1179 0.950 . S
C1205 C1204 1.414 . S
C1205 C1206 1.374 . S
C1206 H1180 0.950 . S
C1206 C1202 1.385 . S
C1206 C1205 1.374 . S
C1207 C1204 1.499 . S
C1207 C1208 1.373 . S
C1207 C1209 1.389 . S
C1208 H1181 0.950 . S
C1208 C1194 1.377 . S
C1208 C1207 1.373 . S
C1209 C1193 1.377 . S
C1209 C1207 1.389 . S
C1209 C1210 1.524 . S
C1210 C1209 1.524 . S
C1210 C1211 1.397 . S
C1210 C1215 1.363 . S
C1211 H1182 0.950 . S
C1211 C1210 1.397 . S
C1211 C1212 1.334 . S
C1212 H1183 0.950 . S
C1212 C1211 1.334 . S
C1212 C1213 1.287 . S
C1213 C1212 1.287 . S
C1213 C1214 1.524 . S
C1213 H1216 0.999 . S
C1214 H1184 0.950 . S
C1214 C1213 1.524 . S
C1214 C1215 1.415 . S
C1215 H1185 0.950 . S
C1215 C1210 1.363 . S
C1215 C1214 1.415 . S
H1216 C1213 0.999 . S
H1217 C1198 0.913 1_554 S
H1218 C1236 0.951 . S
H1219 C1238 0.951 . S
H1220 C1240 0.950 . S
H1221 C1241 0.950 . S
H1222 C1243 0.950 . S
H1223 C1246 0.950 . S
H1224 C1247 0.950 . S
H1225 C1249 0.950 . S
H1226 C1250 0.950 . S
H1227 C1251 0.951 . S
H1228 C1253 0.951 . S
H1229 C1255 0.950 . S
H1230 C1256 0.950 . S
H1231 C1258 0.950 . S
H1232 C1261 0.950 . S
H1233 C1262 0.950 . S
H1234 C1264 0.950 . S
H1235 C1265 0.950 . S
C1236 H1218 0.951 . S
C1236 C1237 1.366 1_565 S
C1236 C1238 1.388 . S
C1237 C1236 1.366 1_545 S
C1237 C1241 1.385 . S
C1238 H1219 0.951 . S
C1238 C1236 1.388 . S
C1238 C1239 1.366 . S
C1239 C1238 1.366 . S
C1239 C1240 1.414 . S
C1239 C1242 1.499 . S
C1240 H1220 0.950 . S
C1240 C1239 1.414 . S
C1240 C1241 1.374 1_565 S
C1241 H1221 0.950 . S
C1241 C1237 1.385 . S
C1241 C1240 1.374 1_545 S
C1242 C1239 1.499 . S
C1242 C1243 1.373 . S
C1242 C1244 1.389 . S
C1243 H1222 0.950 . S
C1243 C1242 1.373 . S
C1243 C1259 1.377 . S
C1244 C1242 1.389 . S
C1244 C1245 1.524 . S
C1244 C1258 1.377 . S
C1245 C1244 1.524 . S
C1245 C1246 1.397 . S
C1245 C1250 1.363 . S
C1246 H1223 0.950 . S
C1246 C1245 1.397 . S
C1246 C1247 1.334 1_565 S
C1247 H1224 0.950 . S
C1247 C1246 1.334 1_545 S
C1247 C1248 1.290 . S
C1248 C1247 1.290 . S
C1248 C1249 1.516 1_545 S
C1248 H1267 0.919 . S
C1249 H1225 0.950 . S
C1249 C1248 1.516 1_565 S
C1249 C1250 1.415 . S
C1250 H1226 0.950 . S
C1250 C1245 1.363 . S
C1250 C1249 1.415 . S
C1251 H1227 0.951 . S
C1251 C1252 1.366 . S
C1251 C1253 1.388 . S
C1252 C1251 1.366 . S
C1252 C1256 1.385 . S
C1253 H1228 0.951 . S
C1253 C1251 1.388 . S
C1253 C1254 1.366 . S
C1254 C1253 1.366 . S
C1254 C1255 1.414 . S
C1254 C1257 1.499 . S
C1255 H1229 0.950 . S
C1255 C1254 1.414 . S
C1255 C1256 1.374 . S
C1256 H1230 0.950 . S
C1256 C1252 1.385 . S
C1256 C1255 1.374 . S
C1257 C1254 1.499 . S
C1257 C1258 1.373 . S
C1257 C1259 1.389 . S
C1258 H1231 0.950 . S
C1258 C1244 1.377 . S
C1258 C1257 1.373 . S
C1259 C1243 1.377 . S
C1259 C1257 1.389 . S
C1259 C1260 1.524 . S
C1260 C1259 1.524 . S
C1260 C1261 1.397 . S
C1260 C1265 1.363 . S
C1261 H1232 0.950 . S
C1261 C1260 1.397 . S
C1261 C1262 1.334 . S
C1262 H1233 0.950 . S
C1262 C1261 1.334 . S
C1262 C1263 1.287 . S
C1263 C1262 1.287 . S
C1263 C1264 1.524 . S
C1263 H1266 0.999 . S
C1264 H1234 0.950 . S
C1264 C1263 1.524 . S
C1264 C1265 1.415 . S
C1265 H1235 0.950 . S
C1265 C1260 1.363 . S
C1265 C1264 1.415 . S
H1266 C1263 0.999 . S
H1267 C1248 0.919 . S
H1268 C1286 0.951 . S
H1269 C1288 0.951 . S
H1270 C1290 0.950 . S
H1271 C1291 0.950 . S
H1272 C1293 0.950 . S
H1273 C1296 0.950 . S
H1274 C1297 0.950 1_565 S
H1275 C1299 0.950 1_554 S
H1276 C1300 0.950 . S
H1277 C1301 0.951 . S
H1278 C1303 0.951 . S
H1279 C1305 0.950 . S
H1280 C1306 0.950 . S
H1281 C1308 0.950 . S
H1282 C1311 0.950 . S
H1283 C1312 0.950 . S
H1284 C1314 0.950 . S
H1285 C1315 0.950 . S
C1286 H1268 0.951 . S
C1286 C1287 1.366 1_545 S
C1286 C1288 1.388 . S
C1287 C1286 1.366 1_565 S
C1287 C1291 1.385 . S
C1288 H1269 0.951 . S
C1288 C1286 1.388 . S
C1288 C1289 1.366 . S
C1289 C1288 1.366 . S
C1289 C1290 1.414 . S
C1289 C1292 1.499 . S
C1290 H1270 0.950 . S
C1290 C1289 1.414 . S
C1290 C1291 1.374 1_545 S
C1291 H1271 0.950 . S
C1291 C1287 1.385 . S
C1291 C1290 1.374 1_565 S
C1292 C1289 1.499 . S
C1292 C1293 1.373 . S
C1292 C1294 1.389 . S
C1293 H1272 0.950 . S
C1293 C1292 1.373 . S
C1293 C1309 1.377 . S
C1294 C1292 1.389 . S
C1294 C1295 1.524 . S
C1294 C1308 1.377 . S
C1295 C1294 1.524 . S
C1295 C1296 1.397 . S
C1295 C1300 1.363 . S
C1296 H1273 0.950 . S
C1296 C1295 1.397 . S
C1296 C1297 1.334 . S
C1297 H1274 0.950 1_545 S
C1297 C1296 1.334 . S
C1297 C1298 1.287 . S
C1298 C1297 1.287 . S
C1298 C1299 1.524 . S
C1298 H1317 0.913 1_556 S
C1299 H1275 0.950 1_556 S
C1299 C1298 1.524 . S
C1299 C1300 1.415 . S
C1300 H1276 0.950 . S
C1300 C1295 1.363 . S
C1300 C1299 1.415 . S
C1301 H1277 0.951 . S
C1301 C1302 1.366 . S
C1301 C1303 1.388 . S
C1302 C1301 1.366 . S
C1302 C1306 1.385 . S
C1303 H1278 0.951 . S
C1303 C1301 1.388 . S
C1303 C1304 1.366 . S
C1304 C1303 1.366 . S
C1304 C1305 1.414 . S
C1304 C1307 1.499 . S
C1305 H1279 0.950 . S
C1305 C1304 1.414 . S
C1305 C1306 1.374 . S
C1306 H1280 0.950 . S
C1306 C1302 1.385 . S
C1306 C1305 1.374 . S
C1307 C1304 1.499 . S
C1307 C1308 1.373 . S
C1307 C1309 1.389 . S
C1308 H1281 0.950 . S
C1308 C1294 1.377 . S
C1308 C1307 1.373 . S
C1309 C1293 1.377 . S
C1309 C1307 1.389 . S
C1309 C1310 1.524 . S
C1310 C1309 1.524 . S
C1310 C1311 1.397 . S
C1310 C1315 1.363 . S
C1311 H1282 0.950 . S
C1311 C1310 1.397 . S
C1311 C1312 1.334 . S
C1312 H1283 0.950 . S
C1312 C1311 1.334 . S
C1312 C1313 1.287 . S
C1313 C1312 1.287 . S
C1313 C1314 1.524 . S
C1313 H1316 0.999 . S
C1314 H1284 0.950 . S
C1314 C1313 1.524 . S
C1314 C1315 1.415 . S
C1315 H1285 0.950 . S
C1315 C1310 1.363 . S
C1315 C1314 1.415 . S
H1316 C1313 0.999 . S
H1317 C1298 0.913 1_554 S
H1318 C1336 0.951 . S
H1319 C1338 0.951 . S
H1320 C1340 0.950 . S
H1321 C1341 0.950 . S
H1322 C1343 0.950 . S
H1323 C1346 0.950 . S
H1324 C1347 0.950 . S
H1325 C1349 0.950 . S
H1326 C1350 0.950 . S
H1327 C1351 0.951 . S
H1328 C1353 0.951 . S
H1329 C1355 0.950 . S
H1330 C1356 0.950 . S
H1331 C1358 0.950 . S
H1332 C1361 0.950 . S
H1333 C1362 0.950 . S
H1334 C1364 0.977 . S
H1335 C1365 0.950 . S
C1336 H1318 0.951 . S
C1336 C1337 1.366 1_565 S
C1336 C1338 1.388 . S
C1337 C1336 1.366 1_545 S
C1337 C1341 1.385 . S
C1338 H1319 0.951 . S
C1338 C1336 1.388 . S
C1338 C1339 1.366 . S
C1339 C1338 1.366 . S
C1339 C1340 1.414 . S
C1339 C1342 1.499 . S
C1340 H1320 0.950 . S
C1340 C1339 1.414 . S
C1340 C1341 1.374 1_565 S
C1341 H1321 0.950 . S
C1341 C1337 1.385 . S
C1341 C1340 1.374 1_545 S
C1342 C1339 1.499 . S
C1342 C1343 1.373 . S
C1342 C1344 1.389 . S
C1343 H1322 0.950 . S
C1343 C1342 1.373 . S
C1343 C1359 1.377 . S
C1344 C1342 1.389 . S
C1344 C1345 1.524 . S
C1344 C1358 1.377 . S
C1345 C1344 1.524 . S
C1345 C1346 1.397 . S
C1345 C1350 1.363 . S
C1346 H1323 0.950 . S
C1346 C1345 1.397 . S
C1346 C1347 1.334 . S
C1347 H1324 0.950 . S
C1347 C1346 1.334 . S
C1347 C1348 1.287 . S
C1348 C1347 1.287 . S
C1348 C1349 1.524 . S
C1348 H1367 0.913 . S
C1349 H1325 0.950 . S
C1349 C1348 1.524 . S
C1349 C1350 1.415 . S
C1350 H1326 0.950 . S
C1350 C1345 1.363 . S
C1350 C1349 1.415 . S
C1351 H1327 0.951 . S
C1351 C1352 1.366 . S
C1351 C1353 1.388 . S
C1352 C1351 1.366 . S
C1352 C1356 1.385 . S
C1353 H1328 0.951 . S
C1353 C1351 1.388 . S
C1353 C1354 1.366 . S
C1354 C1353 1.366 . S
C1354 C1355 1.414 . S
C1354 C1357 1.499 . S
C1355 H1329 0.950 . S
C1355 C1354 1.414 . S
C1355 C1356 1.374 . S
C1356 H1330 0.950 . S
C1356 C1352 1.385 . S
C1356 C1355 1.374 . S
C1357 C1354 1.499 . S
C1357 C1358 1.373 . S
C1357 C1359 1.389 . S
C1358 H1331 0.950 . S
C1358 C1344 1.377 . S
C1358 C1357 1.373 . S
C1359 C1343 1.377 . S
C1359 C1357 1.389 . S
C1359 C1360 1.524 . S
C1360 C1359 1.524 . S
C1360 C1361 1.397 . S
C1360 C1365 1.363 . S
C1361 H1332 0.950 . S
C1361 C1360 1.397 . S
C1361 C1362 1.334 . S
C1362 H1333 0.950 . S
C1362 C1361 1.334 . S
C1362 C1363 1.287 . S
C1363 C1362 1.287 . S
C1363 C1364 1.524 . S
C1363 H1366 0.999 . S
C1364 H1334 0.977 . S
C1364 C1363 1.524 . S
C1364 C1365 1.415 . S
C1365 H1335 0.950 . S
C1365 C1360 1.363 . S
C1365 C1364 1.415 . S
H1366 C1363 0.999 . S
H1367 C1348 0.913 . S
H1368 C1386 0.951 . S
H1369 C1388 0.951 . S
H1370 C1390 0.950 . S
H1371 C1391 0.950 . S
H1372 C1393 0.950 . S
H1373 C1396 0.950 . S
H1374 C1397 0.950 . S
H1375 C1399 0.950 . S
H1376 C1400 0.950 . S
H1377 C1401 0.951 . S
H1378 C1403 0.951 . S
H1379 C1405 0.950 . S
H1380 C1406 0.950 . S
H1381 C1408 0.950 . S
H1382 C1411 0.950 . S
H1383 C1412 0.950 . S
H1384 C1414 0.950 . S
H1385 C1415 0.950 . S
C1386 H1368 0.951 . S
C1386 C1387 1.366 . S
C1386 C1388 1.388 . S
C1387 C1386 1.366 . S
C1387 C1391 1.385 . S
C1388 H1369 0.951 . S
C1388 C1386 1.388 . S
C1388 C1389 1.366 . S
C1389 C1388 1.366 . S
C1389 C1390 1.414 . S
C1389 C1392 1.499 . S
C1390 H1370 0.950 . S
C1390 C1389 1.414 . S
C1390 C1391 1.374 . S
C1391 H1371 0.950 . S
C1391 C1387 1.385 . S
C1391 C1390 1.374 . S
C1392 C1389 1.499 . S
C1392 C1393 1.373 . S
C1392 C1394 1.389 . S
C1393 H1372 0.950 . S
C1393 C1392 1.373 . S
C1393 C1409 1.377 . S
C1394 C1392 1.389 . S
C1394 C1395 1.524 . S
C1394 C1408 1.377 . S
C1395 C1394 1.524 . S
C1395 C1396 1.397 . S
C1395 C1400 1.363 . S
C1396 H1373 0.950 . S
C1396 C1395 1.397 . S
C1396 C1397 1.334 . S
C1397 H1374 0.950 . S
C1397 C1396 1.334 . S
C1397 C1398 1.287 . S
C1398 C1397 1.287 . S
C1398 C1399 1.524 . S
C1398 H1417 0.913 . S
C1399 H1375 0.950 . S
C1399 C1398 1.524 . S
C1399 C1400 1.415 . S
C1400 H1376 0.950 . S
C1400 C1395 1.363 . S
C1400 C1399 1.415 . S
C1401 H1377 0.951 . S
C1401 C1402 1.366 . S
C1401 C1403 1.388 . S
C1402 C1401 1.366 . S
C1402 C1406 1.385 . S
C1403 H1378 0.951 . S
C1403 C1401 1.388 . S
C1403 C1404 1.366 . S
C1404 C1403 1.366 . S
C1404 C1405 1.414 . S
C1404 C1407 1.499 . S
C1405 H1379 0.950 . S
C1405 C1404 1.414 . S
C1405 C1406 1.374 . S
C1406 H1380 0.950 . S
C1406 C1402 1.385 . S
C1406 C1405 1.374 . S
C1407 C1404 1.499 . S
C1407 C1408 1.373 . S
C1407 C1409 1.389 . S
C1408 H1381 0.950 . S
C1408 C1394 1.377 . S
C1408 C1407 1.373 . S
C1409 C1393 1.377 . S
C1409 C1407 1.389 . S
C1409 C1410 1.524 . S
C1410 C1409 1.524 . S
C1410 C1411 1.397 . S
C1410 C1415 1.363 . S
C1411 H1382 0.950 . S
C1411 C1410 1.397 . S
C1411 C1412 1.334 . S
C1412 H1383 0.950 . S
C1412 C1411 1.334 . S
C1412 C1413 1.287 . S
C1413 C1412 1.287 . S
C1413 C1414 1.524 . S
C1413 H1416 0.999 . S
C1414 H1384 0.950 . S
C1414 C1413 1.524 . S
C1414 C1415 1.415 . S
C1415 H1385 0.950 . S
C1415 C1410 1.363 . S
C1415 C1414 1.415 . S
H1416 C1413 0.999 . S
H1417 C1398 0.913 . S
H1418 C1436 0.951 . S
H1419 C1438 0.951 . S
H1420 C1440 0.950 . S
H1421 C1441 0.950 . S
H1422 C1443 0.950 . S
H1423 C1446 0.950 . S
H1424 C1447 0.950 . S
H1425 C1449 0.950 . S
H1426 C1450 0.950 . S
H1427 C1451 0.951 . S
H1428 C1453 0.951 . S
H1429 C1455 0.950 . S
H1430 C1456 0.950 . S
H1431 C1458 0.950 . S
H1432 C1461 0.950 . S
H1433 C1462 0.950 . S
H1434 C1464 0.950 . S
H1435 C1465 0.950 . S
C1436 H1418 0.951 . S
C1436 C1437 1.366 . S
C1436 C1438 1.388 . S
C1437 C1436 1.366 . S
C1437 C1441 1.385 . S
C1438 H1419 0.951 . S
C1438 C1436 1.388 . S
C1438 C1439 1.366 . S
C1439 C1438 1.366 . S
C1439 C1440 1.414 . S
C1439 C1442 1.499 . S
C1440 H1420 0.950 . S
C1440 C1439 1.414 . S
C1440 C1441 1.374 . S
C1441 H1421 0.950 . S
C1441 C1437 1.385 . S
C1441 C1440 1.374 . S
C1442 C1439 1.499 . S
C1442 C1443 1.373 . S
C1442 C1444 1.389 . S
C1443 H1422 0.950 . S
C1443 C1442 1.373 . S
C1443 C1459 1.377 . S
C1444 C1442 1.389 . S
C1444 C1445 1.524 . S
C1444 C1458 1.377 . S
C1445 C1444 1.524 . S
C1445 C1446 1.397 . S
C1445 C1450 1.363 . S
C1446 H1423 0.950 . S
C1446 C1445 1.397 . S
C1446 C1447 1.334 . S
C1447 H1424 0.950 . S
C1447 C1446 1.334 . S
C1447 C1448 1.287 . S
C1448 C1447 1.287 . S
C1448 C1449 1.524 . S
C1448 H1467 0.913 . S
C1449 H1425 0.950 . S
C1449 C1448 1.524 . S
C1449 C1450 1.415 . S
C1450 H1426 0.950 . S
C1450 C1445 1.363 . S
C1450 C1449 1.415 . S
C1451 H1427 0.951 . S
C1451 C1452 1.366 . S
C1451 C1453 1.388 . S
C1452 C1451 1.366 . S
C1452 C1456 1.385 . S
C1453 H1428 0.951 . S
C1453 C1451 1.388 . S
C1453 C1454 1.366 . S
C1454 C1453 1.366 . S
C1454 C1455 1.414 . S
C1454 C1457 1.499 . S
C1455 H1429 0.950 . S
C1455 C1454 1.414 . S
C1455 C1456 1.374 . S
C1456 H1430 0.950 . S
C1456 C1452 1.385 . S
C1456 C1455 1.374 . S
C1457 C1454 1.499 . S
C1457 C1458 1.373 . S
C1457 C1459 1.389 . S
C1458 H1431 0.950 . S
C1458 C1444 1.377 . S
C1458 C1457 1.373 . S
C1459 C1443 1.377 . S
C1459 C1457 1.389 . S
C1459 C1460 1.524 . S
C1460 C1459 1.524 . S
C1460 C1461 1.397 . S
C1460 C1465 1.363 . S
C1461 H1432 0.950 . S
C1461 C1460 1.397 . S
C1461 C1462 1.334 . S
C1462 H1433 0.950 . S
C1462 C1461 1.334 . S
C1462 C1463 1.287 . S
C1463 C1462 1.287 . S
C1463 C1464 1.524 . S
C1463 H1466 0.999 . S
C1464 H1434 0.950 . S
C1464 C1463 1.524 . S
C1464 C1465 1.415 . S
C1465 H1435 0.950 . S
C1465 C1460 1.363 . S
C1465 C1464 1.415 . S
H1466 C1463 0.999 . S
H1467 C1448 0.913 . S
H1468 C1486 0.951 . S
H1469 C1488 0.951 . S
H1470 C1490 0.950 . S
H1471 C1491 0.950 . S
H1472 C1493 0.950 . S
H1473 C1496 0.950 . S
H1474 C1497 0.950 . S
H1475 C1499 0.950 . S
H1476 C1500 0.950 . S
H1477 C1501 0.951 . S
H1478 C1503 0.951 . S
H1479 C1505 0.950 . S
H1480 C1506 0.950 . S
H1481 C1508 0.950 . S
H1482 C1511 0.950 . S
H1483 C1512 0.950 . S
H1484 C1514 0.950 . S
H1485 C1515 0.950 . S
C1486 H1468 0.951 . S
C1486 C1487 1.366 . S
C1486 C1488 1.388 . S
C1487 C1486 1.366 . S
C1487 C1491 1.385 . S
C1488 H1469 0.951 . S
C1488 C1486 1.388 . S
C1488 C1489 1.366 . S
C1489 C1488 1.366 . S
C1489 C1490 1.414 . S
C1489 C1492 1.499 . S
C1490 H1470 0.950 . S
C1490 C1489 1.414 . S
C1490 C1491 1.374 . S
C1491 H1471 0.950 . S
C1491 C1487 1.385 . S
C1491 C1490 1.374 . S
C1492 C1489 1.499 . S
C1492 C1493 1.373 . S
C1492 C1494 1.389 . S
C1493 H1472 0.950 . S
C1493 C1492 1.373 . S
C1493 C1509 1.377 . S
C1494 C1492 1.389 . S
C1494 C1495 1.524 . S
C1494 C1508 1.377 . S
C1495 C1494 1.524 . S
C1495 C1496 1.397 . S
C1495 C1500 1.363 . S
C1496 H1473 0.950 . S
C1496 C1495 1.397 . S
C1496 C1497 1.334 . S
C1497 H1474 0.950 . S
C1497 C1496 1.334 . S
C1497 C1498 1.287 . S
C1498 C1497 1.287 . S
C1498 C1499 1.524 . S
C1498 H1517 0.913 . S
C1499 H1475 0.950 . S
C1499 C1498 1.524 . S
C1499 C1500 1.415 . S
C1500 H1476 0.950 . S
C1500 C1495 1.363 . S
C1500 C1499 1.415 . S
C1501 H1477 0.951 . S
C1501 C1502 1.366 . S
C1501 C1503 1.388 . S
C1502 C1501 1.366 . S
C1502 C1506 1.385 . S
C1503 H1478 0.951 . S
C1503 C1501 1.388 . S
C1503 C1504 1.366 . S
C1504 C1503 1.366 . S
C1504 C1505 1.414 . S
C1504 C1507 1.499 . S
C1505 H1479 0.950 . S
C1505 C1504 1.414 . S
C1505 C1506 1.374 . S
C1506 H1480 0.950 . S
C1506 C1502 1.385 . S
C1506 C1505 1.374 . S
C1507 C1504 1.499 . S
C1507 C1508 1.373 . S
C1507 C1509 1.389 . S
C1508 H1481 0.950 . S
C1508 C1494 1.377 . S
C1508 C1507 1.373 . S
C1509 C1493 1.377 . S
C1509 C1507 1.389 . S
C1509 C1510 1.524 . S
C1510 C1509 1.524 . S
C1510 C1511 1.397 . S
C1510 C1515 1.363 . S
C1511 H1482 0.950 . S
C1511 C1510 1.397 . S
C1511 C1512 1.334 . S
C1512 H1483 0.950 . S
C1512 C1511 1.334 . S
C1512 C1513 1.287 . S
C1513 C1512 1.287 . S
C1513 C1514 1.524 . S
C1513 H1516 0.999 . S
C1514 H1484 0.950 . S
C1514 C1513 1.524 . S
C1514 C1515 1.415 . S
C1515 H1485 0.950 . S
C1515 C1510 1.363 . S
C1515 C1514 1.415 . S
H1516 C1513 0.999 . S
H1517 C1498 0.913 . S
H1518 C1536 0.951 . S
H1519 C1538 0.951 . S
H1520 C1540 0.950 . S
H1521 C1541 0.950 . S
H1522 C1543 0.950 . S
H1523 C1546 0.950 . S
H1524 C1547 0.950 . S
H1525 C1549 0.950 . S
H1526 C1550 0.950 . S
H1527 C1551 0.951 . S
H1528 C1553 0.951 . S
H1529 C1555 0.950 . S
H1530 C1556 0.950 . S
H1531 C1558 0.950 . S
H1532 C1561 0.950 . S
H1533 C1562 0.950 . S
H1534 C1564 0.950 . S
H1535 C1565 0.950 . S
C1536 H1518 0.951 . S
C1536 C1537 1.366 . S
C1536 C1538 1.388 . S
C1537 C1536 1.366 . S
C1537 C1541 1.385 . S
C1538 H1519 0.951 . S
C1538 C1536 1.388 . S
C1538 C1539 1.366 . S
C1539 C1538 1.366 . S
C1539 C1540 1.414 . S
C1539 C1542 1.499 . S
C1540 H1520 0.950 . S
C1540 C1539 1.414 . S
C1540 C1541 1.374 . S
C1541 H1521 0.950 . S
C1541 C1537 1.385 . S
C1541 C1540 1.374 . S
C1542 C1539 1.499 . S
C1542 C1543 1.373 . S
C1542 C1544 1.389 . S
C1543 H1522 0.950 . S
C1543 C1542 1.373 . S
C1543 C1559 1.377 . S
C1544 C1542 1.389 . S
C1544 C1545 1.524 . S
C1544 C1558 1.377 . S
C1545 C1544 1.524 . S
C1545 C1546 1.397 . S
C1545 C1550 1.363 . S
C1546 H1523 0.950 . S
C1546 C1545 1.397 . S
C1546 C1547 1.334 . S
C1547 H1524 0.950 . S
C1547 C1546 1.334 . S
C1547 C1548 1.287 . S
C1548 C1547 1.287 . S
C1548 C1549 1.524 . S
C1548 H1567 0.913 . S
C1549 H1525 0.950 . S
C1549 C1548 1.524 . S
C1549 C1550 1.415 . S
C1550 H1526 0.950 . S
C1550 C1545 1.363 . S
C1550 C1549 1.415 . S
C1551 H1527 0.951 . S
C1551 C1552 1.366 . S
C1551 C1553 1.388 . S
C1552 C1551 1.366 . S
C1552 C1556 1.385 . S
C1553 H1528 0.951 . S
C1553 C1551 1.388 . S
C1553 C1554 1.366 . S
C1554 C1553 1.366 . S
C1554 C1555 1.414 . S
C1554 C1557 1.499 . S
C1555 H1529 0.950 . S
C1555 C1554 1.414 . S
C1555 C1556 1.374 . S
C1556 H1530 0.950 . S
C1556 C1552 1.385 . S
C1556 C1555 1.374 . S
C1557 C1554 1.499 . S
C1557 C1558 1.373 . S
C1557 C1559 1.389 . S
C1558 H1531 0.950 . S
C1558 C1544 1.377 . S
C1558 C1557 1.373 . S
C1559 C1543 1.377 . S
C1559 C1557 1.389 . S
C1559 C1560 1.524 . S
C1560 C1559 1.524 . S
C1560 C1561 1.397 . S
C1560 C1565 1.363 . S
C1561 H1532 0.950 . S
C1561 C1560 1.397 . S
C1561 C1562 1.334 . S
C1562 H1533 0.950 . S
C1562 C1561 1.334 . S
C1562 C1563 1.287 . S
C1563 C1562 1.287 . S
C1563 C1564 1.524 . S
C1563 H1566 0.999 . S
C1564 H1534 0.950 . S
C1564 C1563 1.524 . S
C1564 C1565 1.415 . S
C1565 H1535 0.950 . S
C1565 C1560 1.363 . S
C1565 C1564 1.415 . S
H1566 C1563 0.999 . S
H1567 C1548 0.913 . S
H1568 C1586 0.951 . S
H1569 C1588 0.951 . S
H1570 C1590 0.950 . S
H1571 C1591 0.950 . S
H1572 C1593 0.950 . S
H1573 C1596 0.950 . S
H1574 C1597 0.950 . S
H1575 C1599 0.950 . S
H1576 C1600 0.950 . S
H1577 C1601 0.951 . S
H1578 C1603 0.951 . S
H1579 C1605 0.950 . S
H1580 C1606 0.950 . S
H1581 C1608 0.950 . S
H1582 C1611 0.950 . S
H1583 C1612 0.950 . S
H1584 C1614 0.950 . S
H1585 C1615 0.950 . S
C1586 H1568 0.951 . S
C1586 C1587 1.366 . S
C1586 C1588 1.388 . S
C1587 C1586 1.366 . S
C1587 C1591 1.385 . S
C1588 H1569 0.951 . S
C1588 C1586 1.388 . S
C1588 C1589 1.366 . S
C1589 C1588 1.366 . S
C1589 C1590 1.414 . S
C1589 C1592 1.499 . S
C1590 H1570 0.950 . S
C1590 C1589 1.414 . S
C1590 C1591 1.374 . S
C1591 H1571 0.950 . S
C1591 C1587 1.385 . S
C1591 C1590 1.374 . S
C1592 C1589 1.499 . S
C1592 C1593 1.373 . S
C1592 C1594 1.389 . S
C1593 H1572 0.950 . S
C1593 C1592 1.373 . S
C1593 C1609 1.377 . S
C1594 C1592 1.389 . S
C1594 C1595 1.524 . S
C1594 C1608 1.377 . S
C1595 C1594 1.524 . S
C1595 C1596 1.397 . S
C1595 C1600 1.363 . S
C1596 H1573 0.950 . S
C1596 C1595 1.397 . S
C1596 C1597 1.334 . S
C1597 H1574 0.950 . S
C1597 C1596 1.334 . S
C1597 C1598 1.287 . S
C1598 C1597 1.287 . S
C1598 C1599 1.524 . S
C1598 H1617 0.913 . S
C1599 H1575 0.950 . S
C1599 C1598 1.524 . S
C1599 C1600 1.415 . S
C1600 H1576 0.950 . S
C1600 C1595 1.363 . S
C1600 C1599 1.415 . S
C1601 H1577 0.951 . S
C1601 C1602 1.366 . S
C1601 C1603 1.388 . S
C1602 C1601 1.366 . S
C1602 C1606 1.385 . S
C1603 H1578 0.951 . S
C1603 C1601 1.388 . S
C1603 C1604 1.366 . S
C1604 C1603 1.366 . S
C1604 C1605 1.414 . S
C1604 C1607 1.499 . S
C1605 H1579 0.950 . S
C1605 C1604 1.414 . S
C1605 C1606 1.374 . S
C1606 H1580 0.950 . S
C1606 C1602 1.385 . S
C1606 C1605 1.374 . S
C1607 C1604 1.499 . S
C1607 C1608 1.373 . S
C1607 C1609 1.389 . S
C1608 H1581 0.950 . S
C1608 C1594 1.377 . S
C1608 C1607 1.373 . S
C1609 C1593 1.377 . S
C1609 C1607 1.389 . S
C1609 C1610 1.524 . S
C1610 C1609 1.524 . S
C1610 C1611 1.397 . S
C1610 C1615 1.363 . S
C1611 H1582 0.950 . S
C1611 C1610 1.397 . S
C1611 C1612 1.334 . S
C1612 H1583 0.950 . S
C1612 C1611 1.334 . S
C1612 C1613 1.287 . S
C1613 C1612 1.287 . S
C1613 C1614 1.524 . S
C1613 H1616 0.999 . S
C1614 H1584 0.950 . S
C1614 C1613 1.524 . S
C1614 C1615 1.415 . S
C1615 H1585 0.950 . S
C1615 C1610 1.363 . S
C1615 C1614 1.415 . S
H1616 C1613 0.999 . S
H1617 C1598 0.913 . S
H1618 C1636 0.951 . S
H1619 C1638 0.951 . S
H1620 C1640 0.950 . S
H1621 C1641 0.950 . S
H1622 C1643 0.950 . S
H1623 C1646 0.950 . S
H1624 C1647 0.950 . S
H1625 C1649 0.950 . S
H1626 C1650 0.950 . S
H1627 C1651 0.951 . S
H1628 C1653 0.951 . S
H1629 C1655 0.950 . S
H1630 C1656 0.950 . S
H1631 C1658 0.950 . S
H1632 C1661 0.950 . S
H1633 C1662 0.950 . S
H1634 C1664 0.950 . S
H1635 C1665 0.950 . S
C1636 H1618 0.951 . S
C1636 C1637 1.366 . S
C1636 C1638 1.388 . S
C1637 C1636 1.366 . S
C1637 C1641 1.385 . S
C1638 H1619 0.951 . S
C1638 C1636 1.388 . S
C1638 C1639 1.366 . S
C1639 C1638 1.366 . S
C1639 C1640 1.414 . S
C1639 C1642 1.499 . S
C1640 H1620 0.950 . S
C1640 C1639 1.414 . S
C1640 C1641 1.374 . S
C1641 H1621 0.950 . S
C1641 C1637 1.385 . S
C1641 C1640 1.374 . S
C1642 C1639 1.499 . S
C1642 C1643 1.373 . S
C1642 C1644 1.389 . S
C1643 H1622 0.950 . S
C1643 C1642 1.373 . S
C1643 C1659 1.377 . S
C1644 C1642 1.389 . S
C1644 C1645 1.524 . S
C1644 C1658 1.377 . S
C1645 C1644 1.524 . S
C1645 C1646 1.397 . S
C1645 C1650 1.363 . S
C1646 H1623 0.950 . S
C1646 C1645 1.397 . S
C1646 C1647 1.334 . S
C1647 H1624 0.950 . S
C1647 C1646 1.334 . S
C1647 C1648 1.287 . S
C1648 C1647 1.287 . S
C1648 C1649 1.524 . S
C1648 H1667 0.913 . S
C1649 H1625 0.950 . S
C1649 C1648 1.524 . S
C1649 C1650 1.415 . S
C1650 H1626 0.950 . S
C1650 C1645 1.363 . S
C1650 C1649 1.415 . S
C1651 H1627 0.951 . S
C1651 C1652 1.366 . S
C1651 C1653 1.388 . S
C1652 C1651 1.366 . S
C1652 C1656 1.385 . S
C1653 H1628 0.951 . S
C1653 C1651 1.388 . S
C1653 C1654 1.366 . S
C1654 C1653 1.366 . S
C1654 C1655 1.414 . S
C1654 C1657 1.499 . S
C1655 H1629 0.950 . S
C1655 C1654 1.414 . S
C1655 C1656 1.374 . S
C1656 H1630 0.950 . S
C1656 C1652 1.385 . S
C1656 C1655 1.374 . S
C1657 C1654 1.499 . S
C1657 C1658 1.373 . S
C1657 C1659 1.389 . S
C1658 H1631 0.950 . S
C1658 C1644 1.377 . S
C1658 C1657 1.373 . S
C1659 C1643 1.377 . S
C1659 C1657 1.389 . S
C1659 C1660 1.524 . S
C1660 C1659 1.524 . S
C1660 C1661 1.397 . S
C1660 C1665 1.363 . S
C1661 H1632 0.950 . S
C1661 C1660 1.397 . S
C1661 C1662 1.334 . S
C1662 H1633 0.950 . S
C1662 C1661 1.334 . S
C1662 C1663 1.287 . S
C1663 C1662 1.287 . S
C1663 C1664 1.524 . S
C1663 H1666 0.999 . S
C1664 H1634 0.950 . S
C1664 C1663 1.524 . S
C1664 C1665 1.415 . S
C1665 H1635 0.950 . S
C1665 C1660 1.363 . S
C1665 C1664 1.415 . S
H1666 C1663 0.999 . S
H1667 C1648 0.913 . S
H1668 C1686 0.951 . S
H1669 C1688 0.951 . S
H1670 C1690 0.950 . S
H1671 C1691 0.950 . S
H1672 C1693 0.950 . S
H1673 C1696 0.950 . S
H1674 C1697 0.950 . S
H1675 C1699 0.950 . S
H1676 C1700 0.950 . S
H1677 C1701 0.951 . S
H1678 C1703 0.951 . S
H1679 C1705 0.950 . S
H1680 C1706 0.950 . S
H1681 C1708 0.950 . S
H1682 C1711 0.950 . S
H1683 C1712 0.950 . S
H1684 C1714 0.950 . S
H1685 C1715 0.950 . S
C1686 H1668 0.951 . S
C1686 C1687 1.366 . S
C1686 C1688 1.388 . S
C1687 C1686 1.366 . S
C1687 C1691 1.385 . S
C1688 H1669 0.951 . S
C1688 C1686 1.388 . S
C1688 C1689 1.366 . S
C1689 C1688 1.366 . S
C1689 C1690 1.414 . S
C1689 C1692 1.499 . S
C1690 H1670 0.950 . S
C1690 C1689 1.414 . S
C1690 C1691 1.374 . S
C1691 H1671 0.950 . S
C1691 C1687 1.385 . S
C1691 C1690 1.374 . S
C1692 C1689 1.499 . S
C1692 C1693 1.373 . S
C1692 C1694 1.389 . S
C1693 H1672 0.950 . S
C1693 C1692 1.373 . S
C1693 C1709 1.377 . S
C1694 C1692 1.389 . S
C1694 C1695 1.524 . S
C1694 C1708 1.377 . S
C1695 C1694 1.524 . S
C1695 C1696 1.397 . S
C1695 C1700 1.363 . S
C1696 H1673 0.950 . S
C1696 C1695 1.397 . S
C1696 C1697 1.334 . S
C1697 H1674 0.950 . S
C1697 C1696 1.334 . S
C1697 C1698 1.287 . S
C1698 C1697 1.287 . S
C1698 C1699 1.524 . S
C1698 H1717 0.913 . S
C1699 H1675 0.950 . S
C1699 C1698 1.524 . S
C1699 C1700 1.415 . S
C1700 H1676 0.950 . S
C1700 C1695 1.363 . S
C1700 C1699 1.415 . S
C1701 H1677 0.951 . S
C1701 C1702 1.366 . S
C1701 C1703 1.388 . S
C1702 C1701 1.366 . S
C1702 C1706 1.385 . S
C1703 H1678 0.951 . S
C1703 C1701 1.388 . S
C1703 C1704 1.366 . S
C1704 C1703 1.366 . S
C1704 C1705 1.414 . S
C1704 C1707 1.499 . S
C1705 H1679 0.950 . S
C1705 C1704 1.414 . S
C1705 C1706 1.374 . S
C1706 H1680 0.950 . S
C1706 C1702 1.385 . S
C1706 C1705 1.374 . S
C1707 C1704 1.499 . S
C1707 C1708 1.373 . S
C1707 C1709 1.389 . S
C1708 H1681 0.950 . S
C1708 C1694 1.377 . S
C1708 C1707 1.373 . S
C1709 C1693 1.377 . S
C1709 C1707 1.389 . S
C1709 C1710 1.524 . S
C1710 C1709 1.524 . S
C1710 C1711 1.397 . S
C1710 C1715 1.363 . S
C1711 H1682 0.950 . S
C1711 C1710 1.397 . S
C1711 C1712 1.334 . S
C1712 H1683 0.950 . S
C1712 C1711 1.334 . S
C1712 C1713 1.287 . S
C1713 C1712 1.287 . S
C1713 C1714 1.524 . S
C1713 H1716 0.999 . S
C1714 H1684 0.950 . S
C1714 C1713 1.524 . S
C1714 C1715 1.415 . S
C1715 H1685 0.950 . S
C1715 C1710 1.363 . S
C1715 C1714 1.415 . S
H1716 C1713 0.999 . S
H1717 C1698 0.913 . S
H1718 C1736 0.951 . S
H1719 C1738 0.951 . S
H1720 C1740 0.950 . S
H1721 C1741 0.950 . S
H1722 C1743 0.950 . S
H1723 C1746 0.950 . S
H1724 C1747 0.950 . S
H1725 C1749 0.950 . S
H1726 C1750 0.950 . S
H1727 C1751 0.951 . S
H1728 C1753 0.951 . S
H1729 C1755 0.950 . S
H1730 C1756 0.950 . S
H1731 C1758 0.950 . S
H1732 C1761 0.950 . S
H1733 C1762 0.950 . S
H1734 C1764 0.950 . S
H1735 C1765 0.950 . S
C1736 H1718 0.951 . S
C1736 C1737 1.366 . S
C1736 C1738 1.388 . S
C1737 C1736 1.366 . S
C1737 C1741 1.385 . S
C1738 H1719 0.951 . S
C1738 C1736 1.388 . S
C1738 C1739 1.366 . S
C1739 C1738 1.366 . S
C1739 C1740 1.414 . S
C1739 C1742 1.499 . S
C1740 H1720 0.950 . S
C1740 C1739 1.414 . S
C1740 C1741 1.374 . S
C1741 H1721 0.950 . S
C1741 C1737 1.385 . S
C1741 C1740 1.374 . S
C1742 C1739 1.499 . S
C1742 C1743 1.373 . S
C1742 C1744 1.389 . S
C1743 H1722 0.950 . S
C1743 C1742 1.373 . S
C1743 C1759 1.377 . S
C1744 C1742 1.389 . S
C1744 C1745 1.524 . S
C1744 C1758 1.377 . S
C1745 C1744 1.524 . S
C1745 C1746 1.397 . S
C1745 C1750 1.363 . S
C1746 H1723 0.950 . S
C1746 C1745 1.397 . S
C1746 C1747 1.334 . S
C1747 H1724 0.950 . S
C1747 C1746 1.334 . S
C1747 C1748 1.287 . S
C1748 C1747 1.287 . S
C1748 C1749 1.524 . S
C1748 H1767 0.913 . S
C1749 H1725 0.950 . S
C1749 C1748 1.524 . S
C1749 C1750 1.415 . S
C1750 H1726 0.950 . S
C1750 C1745 1.363 . S
C1750 C1749 1.415 . S
C1751 H1727 0.951 . S
C1751 C1752 1.366 . S
C1751 C1753 1.388 . S
C1752 C1751 1.366 . S
C1752 C1756 1.385 . S
C1753 H1728 0.951 . S
C1753 C1751 1.388 . S
C1753 C1754 1.366 . S
C1754 C1753 1.366 . S
C1754 C1755 1.414 . S
C1754 C1757 1.499 . S
C1755 H1729 0.950 . S
C1755 C1754 1.414 . S
C1755 C1756 1.374 . S
C1756 H1730 0.950 . S
C1756 C1752 1.385 . S
C1756 C1755 1.374 . S
C1757 C1754 1.499 . S
C1757 C1758 1.373 . S
C1757 C1759 1.389 . S
C1758 H1731 0.950 . S
C1758 C1744 1.377 . S
C1758 C1757 1.373 . S
C1759 C1743 1.377 . S
C1759 C1757 1.389 . S
C1759 C1760 1.524 . S
C1760 C1759 1.524 . S
C1760 C1761 1.397 . S
C1760 C1765 1.363 . S
C1761 H1732 0.950 . S
C1761 C1760 1.397 . S
C1761 C1762 1.334 . S
C1762 H1733 0.950 . S
C1762 C1761 1.334 . S
C1762 C1763 1.287 . S
C1763 C1762 1.287 . S
C1763 C1764 1.524 . S
C1763 H1766 0.999 . S
C1764 H1734 0.950 . S
C1764 C1763 1.524 . S
C1764 C1765 1.415 . S
C1765 H1735 0.950 . S
C1765 C1760 1.363 . S
C1765 C1764 1.415 . S
H1766 C1763 0.999 . S
H1767 C1748 0.913 . S
C587 C31 1.495 . S
C602 C506 1.503 . S
C652 C484 1.505 . S
C637 C61 1.498 . S
C702 C510 1.506 . S
C687 C151 1.487 . S
C752 C488 1.506 . S
C737 C181 1.526 . S
C802 C550 1.506 . S
C787 C271 1.495 . S
C852 C528 1.506 . S
C837 C301 1.495 . S
C887 C391 1.483 . S
C902 C554 1.506 . S
C952 C532 1.506 . S
C937 C421 1.528 . S
C987 C20 1.520 . S
C1002 C555 1.531 . S
C1052 C533 1.531 . S
C1037 C91 1.520 . S
C1087 C121 1.459 . S
C1102 C552 1.530 . S
C1137 C211 1.550 . S
C1152 C530 1.531 . S
C1202 C511 1.531 . S
C1187 C260 1.522 . S
C1237 C331 1.520 . S
C1252 C489 1.528 . S
C1302 C508 1.530 . S
C1287 C361 1.458 . S
C1352 C486 1.531 . S
C1337 C451 1.552 . S
C1402 C529 1.490 . S
C1387 C1 1.423 . S
C1452 C551 1.490 . S
C1437 C80 1.423 . S
C1487 C140 1.476 . S
C1502 C531 1.490 . S
C1552 C553 1.490 . S
C1537 C200 1.458 . S
C1602 C485 1.490 . S
C1587 C241 1.424 . S
C1637 C320 1.422 . S
C1652 C507 1.488 . S
C1687 C380 1.477 . S
C1702 C487 1.487 . S
C1737 C440 1.457 . S
C1752 C509 1.493 . S
