# Generated by pormake.
# Topology pth, (4,4)-cn, num edge types: 1
# Building blocks:
#     Node 0, Type 0, BuildingBlock: GALJAG_clean_sbu_0, # of connection points: 4
#     Node 1, Type 0, BuildingBlock: GALJAG_clean_sbu_0, # of connection points: 4
#     Node 2, Type 0, BuildingBlock: GALJAG_clean_sbu_0, # of connection points: 4
#     Node 3, Type 1, BuildingBlock: MUDLON_clean_linker_0, # of connection points: 4
#     Node 4, Type 1, BuildingBlock: MUDLON_clean_linker_0, # of connection points: 4
#     Node 5, Type 1, BuildingBlock: MUDLON_clean_linker_0, # of connection points: 4
#     Edge 6, Type (0, 1), BuildingBlock: EYOCIG_clean_linker_4, # of connection points: 2
#     Edge 7, Type (0, 1), BuildingBlock: EYOCIG_clean_linker_4, # of connection points: 2
#     Edge 8, Type (0, 1), BuildingBlock: EYOCIG_clean_linker_4, # of connection points: 2
#     Edge 9, Type (0, 1), BuildingBlock: EYOCIG_clean_linker_4, # of connection points: 2
#     Edge 10, Type (0, 1), BuildingBlock: EYOCIG_clean_linker_4, # of connection points: 2
#     Edge 11, Type (0, 1), BuildingBlock: EYOCIG_clean_linker_4, # of connection points: 2
#     Edge 12, Type (0, 1), BuildingBlock: EYOCIG_clean_linker_4, # of connection points: 2
#     Edge 13, Type (0, 1), BuildingBlock: EYOCIG_clean_linker_4, # of connection points: 2
#     Edge 14, Type (0, 1), BuildingBlock: EYOCIG_clean_linker_4, # of connection points: 2
#     Edge 15, Type (0, 1), BuildingBlock: EYOCIG_clean_linker_4, # of connection points: 2
#     Edge 16, Type (0, 1), BuildingBlock: EYOCIG_clean_linker_4, # of connection points: 2
#     Edge 17, Type (0, 1), BuildingBlock: EYOCIG_clean_linker_4, # of connection points: 2
# Relax obj value: 0.016
# Max RMSD: 0.066
# Mean RMSD: 0.062
data_MOF--net-pth--node1-GALJAG_clean_sbu_0--node2-MUDLON_clean_linker_0--edge1-EYOCIG_clean_linker_4
_symmetry_space_group_name_H-M    P1
_symmetry_Int_Tables_number       1
_symmetry_cell_setting            triclinic
loop_
_symmetry_equiv_pos_as_xyz
'x, y, z'
_cell_length_a     28.957101
_cell_length_b     28.995225
_cell_length_c     55.846398
_cell_angle_alpha  90.120733
_cell_angle_beta   90.173603
_cell_angle_gamma 120.09834
loop_
_atom_site_label
_atom_site_type_symbol
_atom_site_fract_x
_atom_site_fract_y
_atom_site_fract_z
_atom_type_partial_charge
In0 In 0.00534 0.0035 0.02645 0.0
O1 O 0.96663 0.0477 0.04319 0.0
O2 O 0.04214 0.06325 0.05695 0.0
C3 C 0.92785 0.92418 -0.00103 0.0
C4 C 0.08445 0.08071 -0.00079 0.0
C5 C 0.0051 0.93301 0.05742 0.0
O6 O 0.91931 0.95546 0.01153 0.0
O7 O 0.97602 0.93543 0.9986 0.0
O8 O 0.04328 0.95862 0.04311 0.0
O9 O 0.96852 0.94444 0.05695 0.0
C10 C 0.00479 0.07355 0.05768 0.0
O11 O 0.09124 0.04895 0.01217 0.0
O12 O 0.03692 0.07164 0.99851 0.0
In13 In 0.002 0.00359 0.35981 0.0
O14 O 0.04082 0.08932 0.34516 0.0
O15 O 0.9637 0.03356 0.33189 0.0
C16 C 0.07392 0.00525 0.39072 0.0
C17 C 0.93032 0.0022 0.39049 0.0
C18 C 0.00193 0.9247 0.33277 0.0
O19 O 0.08567 0.04291 0.37621 0.0
O20 O 0.02593 0.96836 0.39051 0.0
O21 O 0.9629 0.91719 0.34559 0.0
O22 O 0.0393 0.97267 0.33192 0.0
C23 C 0.00139 0.08142 0.3324 0.0
O24 O 0.9188 0.96411 0.37616 0.0
O25 O 0.97805 0.03973 0.39013 0.0
In26 In 0.00238 0.00107 0.69306 0.0
O27 O 0.95862 0.9184 0.70969 0.0
O28 O 0.94292 0.97802 0.72355 0.0
C29 C 0.08023 0.00189 0.66526 0.0
C30 C 0.92449 0.00227 0.66587 0.0
C31 C 0.07304 0.06935 0.72476 0.0
O32 O 0.04889 0.96246 0.67791 0.0
O33 O 0.07007 0.03952 0.66504 0.0
O34 O 0.04786 0.08298 0.71062 0.0
O35 O 0.0615 0.02139 0.72356 0.0
C36 C 0.93307 0.93051 0.72429 0.0
O37 O 0.95661 0.04135 0.6787 0.0
O38 O 0.93371 0.96401 0.66532 0.0
H39 H 0.93396 0.71761 0.21337 0.0
N40 N 0.97806 0.66247 0.19734 0.0
H41 H 0.94647 0.7607 0.25211 0.0
H42 H 0.03588 0.65638 0.23522 0.0
H43 H 0.04725 0.69877 0.27506 0.0
H44 H 0.05348 0.76678 0.19234 0.0
H45 H 0.06207 0.82467 0.15863 0.0
H46 H 0.92433 0.63284 0.15547 0.0
H47 H 0.93583 0.69007 0.12108 0.0
H48 H 0.91222 0.57475 0.2214 0.0
H49 H 0.02958 0.63371 0.16538 0.0
H50 H 0.90393 0.4893 0.21848 0.0
H51 H 0.02 0.54767 0.16047 0.0
H52 H 0.93329 0.22046 0.21279 0.0
H53 H 0.94495 0.18924 0.25135 0.0
H54 H 0.04645 0.35168 0.27505 0.0
H55 H 0.03589 0.38341 0.23526 0.0
H56 H 0.05375 0.29137 0.19251 0.0
H57 H 0.06264 0.24127 0.15918 0.0
H58 H 0.93638 0.24795 0.12106 0.0
H59 H 0.92458 0.29461 0.15515 0.0
H60 H 0.91225 0.34155 0.22131 0.0
H61 H 0.904 0.41869 0.21848 0.0
H62 H 0.01999 0.47624 0.16043 0.0
N63 N 0.97811 0.31972 0.19716 0.0
H64 H 0.02953 0.39979 0.16526 0.0
C65 C 0.98464 0.68482 0.22114 0.0
C66 C 0.95862 0.71303 0.22666 0.0
C67 C 0.9655 0.73728 0.24887 0.0
C68 C 0.99795 0.73356 0.26639 0.0
C69 C 0.02217 0.70266 0.26172 0.0
C70 C 0.01595 0.67878 0.23898 0.0
C71 C 0.98754 0.6957 0.17663 0.0
C72 C 0.02763 0.74967 0.1769 0.0
C73 C 0.03282 0.78254 0.15766 0.0
C74 C 0.99938 0.76128 0.13765 0.0
C75 C 0.96165 0.70693 0.13659 0.0
C76 C 0.95516 0.67444 0.15614 0.0
C77 C 0.97257 0.61083 0.19425 0.0
C78 C 0.93624 0.56867 0.20833 0.0
C79 C 0.93168 0.51889 0.20635 0.0
C80 C 0.96257 0.5092 0.18967 0.0
C81 C 0.99627 0.55149 0.17428 0.0
C82 C 0.00198 0.6018 0.17691 0.0
C83 C 0.98425 0.30382 0.22092 0.0
C84 C 0.95793 0.24952 0.2262 0.0
C85 C 0.9644 0.23179 0.24829 0.0
C86 C 0.99665 0.26766 0.26597 0.0
C87 C 0.02148 0.32295 0.26155 0.0
C88 C 0.01568 0.34099 0.23888 0.0
C89 C 0.98785 0.29585 0.17652 0.0
C90 C 0.02797 0.28212 0.17702 0.0
C91 C 0.03328 0.25392 0.158 0.0
C92 C -4e-05 0.24106 0.13794 0.0
C93 C 0.9621 0.25745 0.13662 0.0
C94 C 0.95548 0.28401 0.15599 0.0
C95 C 0.97252 0.36575 0.19411 0.0
C96 C 0.93624 0.37161 0.20824 0.0
C97 C 0.9317 0.41681 0.20632 0.0
C98 C 0.96257 0.45735 0.18965 0.0
C99 C 0.99626 0.44873 0.17423 0.0
C100 C 0.00194 0.40414 0.17679 0.0
H101 H 0.78605 0.07262 0.54694 0.0
N102 N 0.68678 0.02828 0.53073 0.0
H103 H 0.8168 0.0599 0.58553 0.0
H104 H 0.6226 0.96991 0.56824 0.0
H105 H 0.6538 0.95828 0.60799 0.0
H106 H 0.71557 0.95305 0.52537 0.0
H107 H 0.76443 0.94419 0.49156 0.0
H108 H 0.7117 0.08266 0.48924 0.0
H109 H 0.75715 0.07098 0.45471 0.0
H110 H 0.66498 0.09369 0.55532 0.0
H111 H 0.60657 0.97735 0.49847 0.0
H112 H 0.58776 0.10199 0.55252 0.0
H113 H 0.5301 0.98698 0.49366 0.0
H114 H 0.28967 0.07299 0.54669 0.0
H115 H 0.2462 0.06038 0.58511 0.0
H116 H 0.30647 0.95816 0.60792 0.0
H117 H 0.34944 0.96979 0.56827 0.0
H118 H 0.23967 0.95293 0.5254 0.0
H119 H 0.18124 0.94381 0.49165 0.0
H120 H 0.31506 0.07083 0.45471 0.0
H121 H 0.37287 0.0828 0.48918 0.0
H122 H 0.43156 0.09371 0.55525 0.0
H123 H 0.51708 0.10201 0.5525 0.0
H124 H 0.45868 0.98697 0.49365 0.0
N125 N 0.34388 0.02826 0.53067 0.0
H126 H 0.37258 0.97735 0.49841 0.0
C127 C 0.70248 0.02158 0.55447 0.0
C128 C 0.75679 0.04776 0.5601 0.0
C129 C 0.77424 0.04076 0.58221 0.0
C130 C 0.73801 0.00801 0.59952 0.0
C131 C 0.68276 0.98361 0.59478 0.0
C132 C 0.66502 0.98996 0.57211 0.0
C133 C 0.71074 0.01909 0.51 0.0
C134 C 0.72444 0.97898 0.51007 0.0
C135 C 0.7519 0.97364 0.49077 0.0
C136 C 0.76407 0.00695 0.47088 0.0
C137 C 0.74808 0.04513 0.4701 0.0
C138 C 0.72223 0.05171 0.48972 0.0
C139 C 0.6407 0.0339 0.5277 0.0
C140 C 0.63487 0.06993 0.54208 0.0
C141 C 0.58962 0.07449 0.54017 0.0
C142 C 0.54905 0.04391 0.52327 0.0
C143 C 0.55763 0.01048 0.50763 0.0
C144 C 0.60225 0.00476 0.51018 0.0
C145 C 0.32169 0.0217 0.55438 0.0
C146 C 0.29383 0.048 0.55988 0.0
C147 C 0.26931 0.041 0.58189 0.0
C148 C 0.27246 0.00816 0.59925 0.0
C149 C 0.303 0.98351 0.59465 0.0
C150 C 0.32722 0.98991 0.57206 0.0
C151 C 0.31043 0.01905 0.50995 0.0
C152 C 0.25647 0.97885 0.51008 0.0
C153 C 0.22331 0.9734 0.49083 0.0
C154 C 0.24431 0.00665 0.4709 0.0
C155 C 0.29853 0.04502 0.47011 0.0
C156 C 0.33132 0.05175 0.48969 0.0
C157 C 0.39555 0.0339 0.52764 0.0
C158 C 0.43769 0.06995 0.54202 0.0
C159 C 0.4875 0.07451 0.54014 0.0
C160 C 0.49718 0.04391 0.52326 0.0
C161 C 0.45488 0.01048 0.5076 0.0
C162 C 0.40454 0.00475 0.51013 0.0
H163 H 0.71901 0.78426 0.88051 0.0
N164 N 0.66384 0.68547 0.86404 0.0
H165 H 0.76338 0.81456 0.91906 0.0
H166 H 0.65826 0.6208 0.90143 0.0
H167 H 0.70214 0.65153 0.94107 0.0
H168 H 0.76777 0.71267 0.85933 0.0
H169 H 0.82668 0.76187 0.826 0.0
H170 H 0.63535 0.7097 0.82206 0.0
H171 H 0.69377 0.75563 0.78797 0.0
H172 H 0.57657 0.66298 0.88832 0.0
H173 H 0.63528 0.60481 0.83198 0.0
H174 H 0.49121 0.58566 0.88548 0.0
H175 H 0.54914 0.52799 0.82712 0.0
H176 H 0.22211 0.28741 0.8802 0.0
H177 H 0.19205 0.24397 0.91869 0.0
H178 H 0.35543 0.30534 0.94119 0.0
H179 H 0.38595 0.34831 0.90152 0.0
H180 H 0.29326 0.23828 0.85924 0.0
H181 H 0.24333 0.17886 0.82589 0.0
H182 H 0.249 0.31096 0.78791 0.0
H183 H 0.29554 0.36989 0.82204 0.0
H184 H 0.34342 0.42973 0.8883 0.0
H185 H 0.42064 0.51506 0.88547 0.0
H186 H 0.47754 0.45645 0.82708 0.0
N187 N 0.32083 0.34215 0.86398 0.0
H188 H 0.40087 0.37039 0.83192 0.0
C189 C 0.68656 0.70075 0.88781 0.0
C190 C 0.71483 0.75491 0.89357 0.0
C191 C 0.73981 0.7721 0.91566 0.0
C192 C 0.73686 0.73572 0.93278 0.0
C193 C 0.70558 0.68061 0.92798 0.0
C194 C 0.68087 0.66313 0.90535 0.0
C195 C 0.69741 0.70848 0.84339 0.0
C196 C 0.75117 0.72171 0.84386 0.0
C197 C 0.78464 0.74932 0.82482 0.0
C198 C 0.76424 0.76215 0.80482 0.0
C199 C 0.70997 0.74608 0.80349 0.0
C200 C 0.67683 0.72001 0.82285 0.0
C201 C 0.61244 0.63887 0.86099 0.0
C202 C 0.5704 0.63284 0.87519 0.0
C203 C 0.52066 0.5875 0.87325 0.0
C204 C 0.51087 0.54693 0.85647 0.0
C205 C 0.55307 0.55559 0.84099 0.0
C206 C 0.60342 0.60038 0.84358 0.0
C207 C 0.30578 0.31994 0.88773 0.0
C208 C 0.2516 0.29179 0.89334 0.0
C209 C 0.23455 0.26729 0.91539 0.0
C210 C 0.27105 0.27067 0.93266 0.0
C211 C 0.32624 0.30159 0.92797 0.0
C212 C 0.34359 0.32582 0.90535 0.0
C213 C 0.29721 0.30828 0.84333 0.0
C214 C 0.28384 0.25456 0.84379 0.0
C215 C 0.25576 0.22081 0.82476 0.0
C216 C 0.24273 0.24091 0.80472 0.0
C217 C 0.25871 0.29504 0.80344 0.0
C218 C 0.28518 0.32847 0.82283 0.0
C219 C 0.36723 0.39356 0.86094 0.0
C220 C 0.37337 0.43575 0.87517 0.0
C221 C 0.41865 0.48547 0.87324 0.0
C222 C 0.459 0.49506 0.85646 0.0
C223 C 0.45015 0.45268 0.84095 0.0
C224 C 0.40545 0.40239 0.84353 0.0
C225 C 0.00593 0.14446 0.08751 0.0
C226 C 0.00579 0.11216 0.07396 0.0
C227 C 0.00477 0.18009 0.10423 0.0
C228 C 0.00218 0.20792 0.11948 0.0
C229 C 0.85873 0.00305 0.41909 0.0
C230 C 0.89166 0.00296 0.40608 0.0
C231 C 0.82302 0.00313 0.43601 0.0
C232 C 0.79615 0.00455 0.45201 0.0
C233 C 0.86401 0.86061 0.75442 0.0
C234 C 0.89548 0.89281 0.74072 0.0
C235 C 0.82874 0.82413 0.77121 0.0
C236 C 0.79976 0.79588 0.78667 0.0
C237 C 0.00165 0.85975 0.08624 0.0
C238 C 0.0031 0.89319 0.0731 0.0
C239 C 0.00141 0.82393 0.10316 0.0
C240 C 0.00081 0.7957 0.11898 0.0
C241 C 0.14415 0.00132 0.41934 0.0
C242 C 0.11255 0.00369 0.40616 0.0
C243 C 0.17999 0.00097 0.43621 0.0
C244 C 0.20959 0.00381 0.45196 0.0
C245 C 0.14591 0.13744 0.7545 0.0
C246 C 0.11269 0.10601 0.74098 0.0
C247 C 0.18206 0.17432 0.77109 0.0
C248 C 0.20976 0.20515 0.7863 0.0
C249 C 0.83939 0.99847 0.64499 0.0
C250 C 0.878 -0.00025 0.65441 0.0
C251 C 0.79437 0.9967 0.63344 0.0
C252 C 0.76098 0.99688 0.62027 0.0
C253 C 0.84856 0.83681 0.97827 0.0
C254 C 0.88501 0.87645 0.98761 0.0
C255 C 0.80576 0.7914 0.96662 0.0
C256 C 0.77179 0.75833 0.95341 0.0
C257 C 0.00726 0.84375 0.31237 0.0
C258 C 0.0053 0.88093 0.32157 0.0
C259 C 0.0092 0.80067 0.30073 0.0
C260 C 0.00894 0.76735 0.28735 0.0
C261 C 0.16362 0.0033 0.64416 0.0
C262 C 0.12629 0.00468 0.6534 0.0
C263 C 0.20593 0.9995 0.63294 0.0
C264 C 0.23891 0.99808 0.62004 0.0
C265 C 0.16806 0.16233 0.978 0.0
C266 C 0.12879 0.12577 0.9873 0.0
C267 C 0.2142 0.20413 0.96655 0.0
C268 C 0.24816 0.23709 0.95349 0.0
C269 C 0.00011 0.16357 0.31137 0.0
C270 C 0.99879 0.12487 0.32058 0.0
C271 C 0.00403 0.20961 0.30002 0.0
C272 C 0.0059 0.24402 0.28698 0.0
loop_
_geom_bond_atom_site_label_1
_geom_bond_atom_site_label_2
_geom_bond_distance
_geom_bond_site_symmetry_2
_ccdc_geom_bond_type
In0 O1 2.294 1_455 S
In0 O2 2.326 . S
In0 O6 2.266 1_445 S
In0 O7 2.326 1_445 S
In0 O8 2.266 1_545 S
In0 O9 2.326 1_445 S
In0 O11 2.294 . S
In0 O12 2.326 . S
O1 In0 2.294 1_655 S
O1 C10 1.240 1_655 S
O2 In0 2.326 . S
O2 C10 1.252 . S
C3 O6 1.252 . S
C3 O7 1.260 . S
C4 O11 1.240 . S
C4 O12 1.252 . S
C5 O8 1.253 . S
C5 O9 1.258 1_455 S
O6 In0 2.266 1_665 S
O6 C3 1.252 . S
O7 In0 2.326 1_665 S
O7 C3 1.260 . S
O8 In0 2.266 1_565 S
O8 C5 1.253 . S
O9 In0 2.326 1_665 S
O9 C5 1.258 1_655 S
C10 O1 1.240 1_455 S
C10 O2 1.252 . S
O11 In0 2.294 . S
O11 C4 1.240 . S
O12 In0 2.326 . S
O12 C4 1.252 . S
In13 O14 2.294 . S
In13 O15 2.326 1_455 S
In13 O19 2.266 . S
In13 O20 2.326 1_545 S
In13 O21 2.266 1_445 S
In13 O22 2.326 1_545 S
In13 O24 2.294 1_445 S
In13 O25 2.326 1_455 S
O14 In13 2.294 . S
O14 C23 1.240 1_455 S
O15 In13 2.326 1_655 S
O15 C23 1.252 . S
C16 O19 1.252 1_565 S
C16 O20 1.260 . S
C17 O24 1.240 1_545 S
C17 O25 1.252 . S
C18 O21 1.252 1_455 S
C18 O22 1.260 . S
O19 In13 2.266 . S
O19 C16 1.252 1_545 S
O20 In13 2.326 1_565 S
O20 C16 1.260 . S
O21 In13 2.266 1_665 S
O21 C18 1.252 1_655 S
O22 In13 2.326 1_565 S
O22 C18 1.260 . S
C23 O14 1.240 1_655 S
C23 O15 1.252 . S
O24 In13 2.294 1_665 S
O24 C17 1.240 1_565 S
O25 In13 2.326 1_655 S
O25 C17 1.252 . S
In26 O27 2.294 1_445 S
In26 O28 2.326 1_445 S
In26 O32 2.266 1_545 S
In26 O33 2.326 . S
In26 O34 2.266 . S
In26 O35 2.326 . S
In26 O37 2.294 1_455 S
In26 O38 2.326 1_445 S
O27 In26 2.294 1_665 S
O27 C36 1.240 . S
O28 In26 2.326 1_665 S
O28 C36 1.252 . S
C29 O32 1.252 1_545 S
C29 O33 1.260 . S
C30 O37 1.240 1_565 S
C30 O38 1.252 . S
C31 O34 1.252 . S
C31 O35 1.260 . S
O32 In26 2.266 1_565 S
O32 C29 1.252 1_565 S
O33 In26 2.326 . S
O33 C29 1.260 . S
O34 In26 2.266 . S
O34 C31 1.252 . S
O35 In26 2.326 . S
O35 C31 1.260 . S
C36 O27 1.240 . S
C36 O28 1.252 . S
O37 In26 2.294 1_655 S
O37 C30 1.240 1_545 S
O38 In26 2.326 1_665 S
O38 C30 1.252 . S
H39 C66 0.929 . S
N40 C65 1.433 . S
N40 C71 1.435 . S
N40 C77 1.423 . S
H41 C67 0.930 . S
H42 C70 0.931 . S
H43 C69 0.929 . S
H44 C72 0.930 . S
H45 C73 0.932 . S
H46 C76 0.929 . S
H47 C75 0.931 . S
H48 C78 0.929 . S
H49 C82 0.932 . S
H50 C79 0.931 . S
H51 C81 0.929 1_455 S
H52 C84 0.929 . S
H53 C85 0.930 . S
H54 C87 0.929 . S
H55 C88 0.931 . S
H56 C90 0.930 . S
H57 C91 0.932 . S
H58 C93 0.931 . S
H59 C94 0.929 . S
H60 C96 0.929 . S
H61 C97 0.931 . S
H62 C99 0.929 1_455 S
N63 C83 1.433 . S
N63 C89 1.435 . S
N63 C95 1.423 . S
H64 C100 0.932 . S
C65 N40 1.433 . S
C65 C66 1.363 . S
C65 C70 1.370 1_655 S
C66 H39 0.929 . S
C66 C65 1.363 . S
C66 C67 1.385 . S
C67 H41 0.930 . S
C67 C66 1.385 . S
C67 C68 1.357 . S
C68 C67 1.357 . S
C68 C69 1.406 1_655 S
C69 H43 0.929 . S
C69 C68 1.406 1_455 S
C69 C70 1.391 . S
C70 H42 0.931 . S
C70 C65 1.370 1_455 S
C70 C69 1.391 . S
C71 N40 1.435 . S
C71 C72 1.358 1_655 S
C71 C76 1.371 . S
C72 H44 0.930 . S
C72 C71 1.358 1_455 S
C72 C73 1.405 . S
C73 H45 0.932 . S
C73 C72 1.405 . S
C73 C74 1.383 . S
C74 C73 1.383 . S
C74 C75 1.393 1_455 S
C75 H47 0.931 . S
C75 C74 1.393 1_655 S
C75 C76 1.382 . S
C76 H46 0.929 . S
C76 C71 1.371 . S
C76 C75 1.382 . S
C77 N40 1.423 . S
C77 C78 1.362 . S
C77 C82 1.388 1_655 S
C78 H48 0.929 . S
C78 C77 1.362 . S
C78 C79 1.376 . S
C79 H50 0.931 . S
C79 C78 1.376 . S
C79 C80 1.396 . S
C80 C79 1.396 . S
C80 C81 1.348 . S
C80 C98 1.472 . S
C81 H51 0.929 1_655 S
C81 C80 1.348 . S
C81 C82 1.443 1_655 S
C82 H49 0.932 . S
C82 C77 1.388 1_455 S
C82 C81 1.443 1_455 S
C83 N63 1.433 . S
C83 C84 1.363 . S
C83 C88 1.370 1_655 S
C84 H52 0.929 . S
C84 C83 1.363 . S
C84 C85 1.385 . S
C85 H53 0.930 . S
C85 C84 1.385 . S
C85 C86 1.357 . S
C86 C85 1.357 . S
C86 C87 1.406 1_655 S
C87 H54 0.929 . S
C87 C86 1.406 1_455 S
C87 C88 1.391 . S
C88 H55 0.931 . S
C88 C83 1.370 1_455 S
C88 C87 1.391 . S
C89 N63 1.435 . S
C89 C90 1.358 1_655 S
C89 C94 1.371 . S
C90 H56 0.930 . S
C90 C89 1.358 1_455 S
C90 C91 1.405 . S
C91 H57 0.932 . S
C91 C90 1.405 . S
C91 C92 1.383 . S
C92 C91 1.383 . S
C92 C93 1.393 1_455 S
C93 H58 0.931 . S
C93 C92 1.393 1_655 S
C93 C94 1.382 . S
C94 H59 0.929 . S
C94 C89 1.371 . S
C94 C93 1.382 . S
C95 N63 1.423 . S
C95 C96 1.362 . S
C95 C100 1.388 1_655 S
C96 H60 0.929 . S
C96 C95 1.362 . S
C96 C97 1.376 . S
C97 H61 0.931 . S
C97 C96 1.376 . S
C97 C98 1.396 . S
C98 C80 1.472 . S
C98 C97 1.396 . S
C98 C99 1.348 . S
C99 H62 0.929 1_655 S
C99 C98 1.348 . S
C99 C100 1.443 1_655 S
C100 H64 0.932 . S
C100 C95 1.388 1_455 S
C100 C99 1.443 1_455 S
H101 C128 0.929 . S
N102 C127 1.433 . S
N102 C133 1.435 . S
N102 C139 1.423 . S
H103 C129 0.930 . S
H104 C132 0.931 . S
H105 C131 0.929 . S
H106 C134 0.930 . S
H107 C135 0.932 . S
H108 C138 0.929 . S
H109 C137 0.931 . S
H110 C140 0.929 . S
H111 C144 0.932 1_565 S
H112 C141 0.931 . S
H113 C143 0.929 1_565 S
H114 C146 0.929 . S
H115 C147 0.930 . S
H116 C149 0.929 . S
H117 C150 0.931 . S
H118 C152 0.930 . S
H119 C153 0.932 . S
H120 C155 0.931 . S
H121 C156 0.929 . S
H122 C158 0.929 . S
H123 C159 0.931 . S
H124 C161 0.929 1_565 S
N125 C145 1.433 . S
N125 C151 1.435 . S
N125 C157 1.423 . S
H126 C162 0.932 1_565 S
C127 N102 1.433 . S
C127 C128 1.363 . S
C127 C132 1.370 1_545 S
C128 H101 0.929 . S
C128 C127 1.363 . S
C128 C129 1.385 . S
C129 H103 0.930 . S
C129 C128 1.385 . S
C129 C130 1.357 . S
C130 C129 1.357 . S
C130 C131 1.406 1_545 S
C131 H105 0.929 . S
C131 C130 1.406 1_565 S
C131 C132 1.391 . S
C132 H104 0.931 . S
C132 C127 1.370 1_565 S
C132 C131 1.391 . S
C133 N102 1.435 . S
C133 C134 1.358 1_545 S
C133 C138 1.371 . S
C134 H106 0.930 . S
C134 C133 1.358 1_565 S
C134 C135 1.405 . S
C135 H107 0.932 . S
C135 C134 1.405 . S
C135 C136 1.383 1_565 S
C136 C135 1.383 1_545 S
C136 C137 1.393 . S
C137 H109 0.931 . S
C137 C136 1.393 . S
C137 C138 1.382 . S
C138 H108 0.929 . S
C138 C133 1.371 . S
C138 C137 1.382 . S
C139 N102 1.423 . S
C139 C140 1.362 . S
C139 C144 1.388 . S
C140 H110 0.929 . S
C140 C139 1.362 . S
C140 C141 1.376 . S
C141 H112 0.931 . S
C141 C140 1.376 . S
C141 C142 1.396 . S
C142 C141 1.396 . S
C142 C143 1.348 . S
C142 C160 1.472 . S
C143 H113 0.929 1_545 S
C143 C142 1.348 . S
C143 C144 1.443 . S
C144 H111 0.932 1_545 S
C144 C139 1.388 . S
C144 C143 1.443 . S
C145 N125 1.433 . S
C145 C146 1.363 . S
C145 C150 1.370 1_545 S
C146 H114 0.929 . S
C146 C145 1.363 . S
C146 C147 1.385 . S
C147 H115 0.930 . S
C147 C146 1.385 . S
C147 C148 1.357 . S
C148 C147 1.357 . S
C148 C149 1.406 1_545 S
C149 H116 0.929 . S
C149 C148 1.406 1_565 S
C149 C150 1.391 . S
C150 H117 0.931 . S
C150 C145 1.370 1_565 S
C150 C149 1.391 . S
C151 N125 1.435 . S
C151 C152 1.358 1_545 S
C151 C156 1.371 . S
C152 H118 0.930 . S
C152 C151 1.358 1_565 S
C152 C153 1.405 . S
C153 H119 0.932 . S
C153 C152 1.405 . S
C153 C154 1.383 1_565 S
C154 C153 1.383 1_545 S
C154 C155 1.393 . S
C155 H120 0.931 . S
C155 C154 1.393 . S
C155 C156 1.382 . S
C156 H121 0.929 . S
C156 C151 1.371 . S
C156 C155 1.382 . S
C157 N125 1.423 . S
C157 C158 1.362 . S
C157 C162 1.388 . S
C158 H122 0.929 . S
C158 C157 1.362 . S
C158 C159 1.376 . S
C159 H123 0.931 . S
C159 C158 1.376 . S
C159 C160 1.396 . S
C160 C142 1.472 . S
C160 C159 1.396 . S
C160 C161 1.348 . S
C161 H124 0.929 1_545 S
C161 C160 1.348 . S
C161 C162 1.443 . S
C162 H126 0.932 1_545 S
C162 C157 1.388 . S
C162 C161 1.443 . S
H163 C190 0.929 . S
N164 C189 1.433 . S
N164 C195 1.435 . S
N164 C201 1.423 . S
H165 C191 0.930 . S
H166 C194 0.931 . S
H167 C193 0.929 . S
H168 C196 0.930 . S
H169 C197 0.932 . S
H170 C200 0.929 . S
H171 C199 0.931 . S
H172 C202 0.929 . S
H173 C206 0.932 . S
H174 C203 0.931 . S
H175 C205 0.929 . S
H176 C208 0.929 . S
H177 C209 0.930 . S
H178 C211 0.929 . S
H179 C212 0.931 . S
H180 C214 0.930 . S
H181 C215 0.932 . S
H182 C217 0.931 . S
H183 C218 0.929 . S
H184 C220 0.929 . S
H185 C221 0.931 . S
H186 C223 0.929 . S
N187 C207 1.433 . S
N187 C213 1.435 . S
N187 C219 1.423 . S
H188 C224 0.932 . S
C189 N164 1.433 . S
C189 C190 1.363 . S
C189 C194 1.370 . S
C190 H163 0.929 . S
C190 C189 1.363 . S
C190 C191 1.385 . S
C191 H165 0.930 . S
C191 C190 1.385 . S
C191 C192 1.357 . S
C192 C191 1.357 . S
C192 C193 1.406 . S
C193 H167 0.929 . S
C193 C192 1.406 . S
C193 C194 1.391 . S
C194 H166 0.931 . S
C194 C189 1.370 . S
C194 C193 1.391 . S
C195 N164 1.435 . S
C195 C196 1.358 . S
C195 C200 1.371 . S
C196 H168 0.930 . S
C196 C195 1.358 . S
C196 C197 1.405 . S
C197 H169 0.932 . S
C197 C196 1.405 . S
C197 C198 1.383 . S
C198 C197 1.383 . S
C198 C199 1.393 . S
C199 H171 0.931 . S
C199 C198 1.393 . S
C199 C200 1.382 . S
C200 H170 0.929 . S
C200 C195 1.371 . S
C200 C199 1.382 . S
C201 N164 1.423 . S
C201 C202 1.362 . S
C201 C206 1.388 . S
C202 H172 0.929 . S
C202 C201 1.362 . S
C202 C203 1.376 . S
C203 H174 0.931 . S
C203 C202 1.376 . S
C203 C204 1.396 . S
C204 C203 1.396 . S
C204 C205 1.348 . S
C204 C222 1.472 . S
C205 H175 0.929 . S
C205 C204 1.348 . S
C205 C206 1.443 . S
C206 H173 0.932 . S
C206 C201 1.388 . S
C206 C205 1.443 . S
C207 N187 1.433 . S
C207 C208 1.363 . S
C207 C212 1.370 . S
C208 H176 0.929 . S
C208 C207 1.363 . S
C208 C209 1.385 . S
C209 H177 0.930 . S
C209 C208 1.385 . S
C209 C210 1.357 . S
C210 C209 1.357 . S
C210 C211 1.406 . S
C211 H178 0.929 . S
C211 C210 1.406 . S
C211 C212 1.391 . S
C212 H179 0.931 . S
C212 C207 1.370 . S
C212 C211 1.391 . S
C213 N187 1.435 . S
C213 C214 1.358 . S
C213 C218 1.371 . S
C214 H180 0.930 . S
C214 C213 1.358 . S
C214 C215 1.405 . S
C215 H181 0.932 . S
C215 C214 1.405 . S
C215 C216 1.383 . S
C216 C215 1.383 . S
C216 C217 1.393 . S
C217 H182 0.931 . S
C217 C216 1.393 . S
C217 C218 1.382 . S
C218 H183 0.929 . S
C218 C213 1.371 . S
C218 C217 1.382 . S
C219 N187 1.423 . S
C219 C220 1.362 . S
C219 C224 1.388 . S
C220 H184 0.929 . S
C220 C219 1.362 . S
C220 C221 1.376 . S
C221 H185 0.931 . S
C221 C220 1.376 . S
C221 C222 1.396 . S
C222 C204 1.472 . S
C222 C221 1.396 . S
C222 C223 1.348 . S
C223 H186 0.929 . S
C223 C222 1.348 . S
C223 C224 1.443 . S
C224 H188 0.932 . S
C224 C219 1.388 . S
C224 C223 1.443 . S
C225 C226 1.170 . S
C225 C227 1.380 . S
C226 C225 1.170 . S
C227 C225 1.380 . S
C227 C228 1.170 . S
C228 C227 1.170 . S
C229 C230 1.170 . S
C229 C231 1.380 . S
C230 C229 1.170 . S
C231 C229 1.380 . S
C231 C232 1.170 . S
C232 C231 1.170 . S
C233 C234 1.170 . S
C233 C235 1.380 . S
C234 C233 1.170 . S
C235 C233 1.380 . S
C235 C236 1.170 . S
C236 C235 1.170 . S
C237 C238 1.162 . S
C237 C239 1.388 . S
C238 C237 1.162 . S
C239 C237 1.388 . S
C239 C240 1.162 1_655 S
C240 C239 1.162 1_455 S
C241 C242 1.170 . S
C241 C243 1.380 . S
C242 C241 1.170 . S
C243 C241 1.380 . S
C243 C244 1.170 . S
C244 C243 1.170 . S
C245 C246 1.170 . S
C245 C247 1.380 . S
C246 C245 1.170 . S
C247 C245 1.380 . S
C247 C248 1.170 . S
C248 C247 1.170 . S
C249 C250 1.177 . S
C249 C251 1.380 . S
C250 C249 1.177 . S
C251 C249 1.380 . S
C251 C252 1.170 . S
C252 C251 1.170 . S
C253 C254 1.170 . S
C253 C255 1.380 . S
C254 C253 1.170 . S
C255 C253 1.380 . S
C255 C256 1.170 . S
C256 C255 1.170 . S
C257 C258 1.170 . S
C257 C259 1.380 . S
C258 C257 1.170 . S
C259 C257 1.380 . S
C259 C260 1.170 . S
C260 C259 1.170 . S
C261 C262 1.170 . S
C261 C263 1.380 . S
C262 C261 1.170 . S
C263 C261 1.380 . S
C263 C264 1.170 . S
C264 C263 1.170 . S
C265 C266 1.170 . S
C265 C267 1.380 . S
C266 C265 1.170 . S
C267 C265 1.380 . S
C267 C268 1.170 . S
C268 C267 1.170 . S
C269 C270 1.170 . S
C269 C271 1.380 . S
C270 C269 1.170 . S
C271 C269 1.380 . S
C271 C272 1.175 1_655 S
C272 C271 1.175 1_455 S
C228 C92 1.406 . S
C226 C10 1.416 . S
C230 C17 1.420 . S
C232 C136 1.418 . S
C234 C36 1.418 . S
C236 C198 1.409 . S
C238 C5 1.433 1_655 S
C240 C74 1.409 . S
C244 C154 1.419 . S
C242 C16 1.421 1_545 S
C246 C31 1.414 . S
C248 C216 1.403 . S
C252 C130 1.613 . S
C250 C30 1.730 1_545 S
C254 C3 1.736 1_556 S
C256 C192 1.610 . S
C260 C68 1.634 1_455 S
C258 C18 1.734 . S
C264 C148 1.582 . S
C262 C29 1.741 . S
C268 C210 1.618 . S
C266 C4 1.738 1_556 S
C270 C23 1.736 . S
C272 C86 1.580 1_455 S
