# Generated by pormake.
# Topology zzz, (3,6)-cn, num edge types: 1
# Building blocks:
#     Node 0, Type 0, BuildingBlock: BELTOD_clean_linker_0, # of connection points: 3
#     Node 1, Type 0, BuildingBlock: BELTOD_clean_linker_0, # of connection points: 3
#     Node 2, Type 0, BuildingBlock: BELTOD_clean_linker_0, # of connection points: 3
#     Node 3, Type 0, BuildingBlock: BELTOD_clean_linker_0, # of connection points: 3
#     Node 4, Type 0, BuildingBlock: BELTOD_clean_linker_0, # of connection points: 3
#     Node 5, Type 0, BuildingBlock: BELTOD_clean_linker_0, # of connection points: 3
#     Node 6, Type 0, BuildingBlock: BELTOD_clean_linker_0, # of connection points: 3
#     Node 7, Type 0, BuildingBlock: BELTOD_clean_linker_0, # of connection points: 3
#     Node 8, Type 1, BuildingBlock: BETDAH_clean_sbu_0, # of connection points: 6
#     Node 9, Type 1, BuildingBlock: BETDAH_clean_sbu_0, # of connection points: 6
#     Node 10, Type 1, BuildingBlock: BETDAH_clean_sbu_0, # of connection points: 6
#     Node 11, Type 1, BuildingBlock: BETDAH_clean_sbu_0, # of connection points: 6
#     Edge 12, Type (0, 1), BuildingBlock: TEMPAE_clean_linker_10, # of connection points: 2
#     Edge 13, Type (0, 1), BuildingBlock: TEMPAE_clean_linker_10, # of connection points: 2
#     Edge 14, Type (0, 1), BuildingBlock: TEMPAE_clean_linker_10, # of connection points: 2
#     Edge 15, Type (0, 1), BuildingBlock: TEMPAE_clean_linker_10, # of connection points: 2
#     Edge 16, Type (0, 1), BuildingBlock: TEMPAE_clean_linker_10, # of connection points: 2
#     Edge 17, Type (0, 1), BuildingBlock: TEMPAE_clean_linker_10, # of connection points: 2
#     Edge 18, Type (0, 1), BuildingBlock: TEMPAE_clean_linker_10, # of connection points: 2
#     Edge 19, Type (0, 1), BuildingBlock: TEMPAE_clean_linker_10, # of connection points: 2
#     Edge 20, Type (0, 1), BuildingBlock: TEMPAE_clean_linker_10, # of connection points: 2
#     Edge 21, Type (0, 1), BuildingBlock: TEMPAE_clean_linker_10, # of connection points: 2
#     Edge 22, Type (0, 1), BuildingBlock: TEMPAE_clean_linker_10, # of connection points: 2
#     Edge 23, Type (0, 1), BuildingBlock: TEMPAE_clean_linker_10, # of connection points: 2
#     Edge 24, Type (0, 1), BuildingBlock: TEMPAE_clean_linker_10, # of connection points: 2
#     Edge 25, Type (0, 1), BuildingBlock: TEMPAE_clean_linker_10, # of connection points: 2
#     Edge 26, Type (0, 1), BuildingBlock: TEMPAE_clean_linker_10, # of connection points: 2
#     Edge 27, Type (0, 1), BuildingBlock: TEMPAE_clean_linker_10, # of connection points: 2
#     Edge 28, Type (0, 1), BuildingBlock: TEMPAE_clean_linker_10, # of connection points: 2
#     Edge 29, Type (0, 1), BuildingBlock: TEMPAE_clean_linker_10, # of connection points: 2
#     Edge 30, Type (0, 1), BuildingBlock: TEMPAE_clean_linker_10, # of connection points: 2
#     Edge 31, Type (0, 1), BuildingBlock: TEMPAE_clean_linker_10, # of connection points: 2
#     Edge 32, Type (0, 1), BuildingBlock: TEMPAE_clean_linker_10, # of connection points: 2
#     Edge 33, Type (0, 1), BuildingBlock: TEMPAE_clean_linker_10, # of connection points: 2
#     Edge 34, Type (0, 1), BuildingBlock: TEMPAE_clean_linker_10, # of connection points: 2
#     Edge 35, Type (0, 1), BuildingBlock: TEMPAE_clean_linker_10, # of connection points: 2
# Relax obj value: 0.431
# Max RMSD: 0.259
# Mean RMSD: 0.246
data_MOF--net-zzz--node1-BETDAH_clean_sbu_0--node2-BELTOD_clean_linker_0--edge1-TEMPAE_clean_linker_10
_symmetry_space_group_name_H-M    P1
_symmetry_Int_Tables_number       1
_symmetry_cell_setting            triclinic
loop_
_symmetry_equiv_pos_as_xyz
'x, y, z'
_cell_length_a     56.650005
_cell_length_b     56.663588
_cell_length_c     17.08738
_cell_angle_alpha  89.91263
_cell_angle_beta   90.021509
_cell_angle_gamma 90.010313
loop_
_atom_site_label
_atom_site_type_symbol
_atom_site_fract_x
_atom_site_fract_y
_atom_site_fract_z
_atom_type_partial_charge
P0 P 0.71466 0.4686 0.39823 0.0
H1 H 0.73319 0.47577 0.55588 0.0
H2 H 0.77258 0.4875 0.59874 0.0
H3 H 0.78817 0.51296 0.36681 0.0
H4 H 0.7487 0.50074 0.32298 0.0
H5 H 0.67208 0.44673 0.34346 0.0
H6 H 0.6422 0.45772 0.24749 0.0
H7 H 0.67545 0.52571 0.21868 0.0
H8 H 0.70575 0.51444 0.31567 0.0
H9 H 0.7458 0.4301 0.44283 0.0
H10 H 0.72231 0.46343 0.22941 0.0
O11 O 0.7022 0.45403 0.47248 0.0
H12 H 0.77765 0.41068 0.37079 0.0
H13 H 0.75385 0.44419 0.15769 0.0
C14 C 0.73762 0.48768 0.43624 0.0
C15 C 0.74451 0.48487 0.51472 0.0
C16 C 0.76717 0.49137 0.53926 0.0
C17 C 0.78334 0.50105 0.48602 0.0
C18 C 0.77589 0.50574 0.40911 0.0
C19 C 0.7532 0.49903 0.38432 0.0
C20 C 0.69103 0.47982 0.33742 0.0
C21 C 0.67277 0.4642 0.31776 0.0
C22 C 0.65578 0.47042 0.26235 0.0
C23 C 0.65656 0.4925 0.2251 0.0
C24 C 0.67437 0.5086 0.24677 0.0
C25 C 0.69167 0.5022 0.30212 0.0
C26 C 0.73149 0.44796 0.34143 0.0
C27 C 0.74682 0.43239 0.37997 0.0
C28 C 0.7651 0.42145 0.33893 0.0
C29 C 0.76827 0.426 0.25874 0.0
C30 C 0.75165 0.44004 0.21917 0.0
C31 C 0.73353 0.4511 0.26034 0.0
P32 P 0.04123 0.71678 0.37323 0.0
H33 H 0.02305 0.73209 0.52557 0.0
H34 H 0.00984 0.77087 0.56889 0.0
H35 H 0.00463 0.79359 0.32827 0.0
H36 H 0.01771 0.75453 0.28511 0.0
H37 H 0.0657 0.67751 0.30429 0.0
H38 H 0.05531 0.64813 0.20599 0.0
H39 H 0.98523 0.67769 0.18994 0.0
H40 H 0.99592 0.70745 0.28919 0.0
H41 H 0.07828 0.74519 0.4438 0.0
H42 H 0.05558 0.7262 0.21131 0.0
O43 O 0.05087 0.7027 0.45291 0.0
H44 H 0.10179 0.7775 0.3893 0.0
H45 H 0.07891 0.75817 0.15692 0.0
C46 C 0.02131 0.74022 0.4019 0.0
C47 C 0.01807 0.74499 0.48178 0.0
C48 C 0.01063 0.76734 0.50667 0.0
C49 C 0.00658 0.78552 0.45215 0.0
C50 C 0.00795 0.7801 0.37186 0.0
C51 C 0.01508 0.75761 0.34703 0.0
C52 C 0.03164 0.6947 0.30385 0.0
C53 C 0.04804 0.67766 0.27997 0.0
C54 C 0.04212 0.66093 0.22342 0.0
C55 C 0.01952 0.66068 0.18962 0.0
C56 C 1.00277 0.67741 0.21511 0.0
C57 C 0.00886 0.69444 0.27158 0.0
C58 C 0.0654 0.73309 0.33168 0.0
C59 C 0.07928 0.74721 0.38084 0.0
C60 C 0.09256 0.76577 0.34972 0.0
C61 C 0.09208 0.77044 0.26892 0.0
C62 C 0.07995 0.75483 0.21927 0.0
C63 C 0.06655 0.73644 0.25047 0.0
P64 P 0.79045 0.02833 0.38796 0.0
H65 H 0.77442 0.00906 0.53882 0.0
H66 H 0.73473 0.99912 0.58408 0.0
H67 H 0.70947 1.0016 0.34588 0.0
H68 H 0.74916 0.01144 0.30086 0.0
H69 H 0.84199 0.02725 0.39045 0.0
H70 H 0.8714 0.01503 0.29431 0.0
H71 H 0.81602 0.988 0.14605 0.0
H72 H 0.78653 0.99961 0.24395 0.0
H73 H 0.75906 0.06436 0.44682 0.0
H74 H 0.79099 0.04697 0.22505 0.0
O75 O 0.80406 0.0378 0.46871 0.0
H76 H 0.72793 0.08593 0.37863 0.0
H77 H 0.75985 0.06825 0.15709 0.0
C78 C 0.76496 0.01095 0.41623 0.0
C79 C 0.76062 0.00649 0.4958 0.0
C80 C 0.73781 1.00094 0.52181 0.0
C81 C 0.71883 1.00001 0.46875 0.0
C82 C 0.72363 1.00252 0.38839 0.0
C83 C 0.74649 0.00775 0.36239 0.0
C84 C 0.81196 0.01428 0.32486 0.0
C85 C 0.83611 0.01806 0.33851 0.0
C86 C 0.85298 0.0111 0.28338 0.0
C87 C 0.846 1.00068 0.21254 0.0
C88 C 0.82188 0.99607 0.20011 0.0
C89 C 0.80502 1.00255 0.25628 0.0
C90 C 0.77701 0.05347 0.34117 0.0
C91 C 0.7601 0.06616 0.38378 0.0
C92 C 0.7422 0.07835 0.3448 0.0
C93 C 0.74125 0.07824 0.2627 0.0
C94 C 0.76013 0.0685 0.22048 0.0
C95 C 0.77792 0.05612 0.25956 0.0
P96 P 0.46638 0.79173 0.38388 0.0
H97 H 0.4797 0.77603 0.54179 0.0
H98 H 0.49291 0.73745 0.58827 0.0
H99 H 0.50696 0.71635 0.35022 0.0
H100 H 0.49394 0.75513 0.30398 0.0
H101 H 0.44746 0.83803 0.35345 0.0
H102 H 0.45886 0.86971 0.2644 0.0
H103 H 0.52309 0.83245 0.2087 0.0
H104 H 0.51136 0.8003 0.29814 0.0
H105 H 0.43063 0.75591 0.40957 0.0
H106 H 0.46065 0.79278 0.21212 0.0
O107 O 0.45026 0.80167 0.45865 0.0
H108 H 0.41318 0.72702 0.32105 0.0
H109 H 0.44266 0.76449 0.12352 0.0
C110 C 0.48571 0.76857 0.41922 0.0
C111 C 0.48654 0.76353 0.49966 0.0
C112 C 0.494 0.74133 0.52629 0.0
C113 C 0.50053 0.72364 0.47284 0.0
C114 C 0.50167 0.72946 0.39281 0.0
C115 C 0.49452 0.75178 0.36637 0.0
C116 C 0.47874 0.81698 0.33368 0.0
C117 C 0.46434 0.8369 0.32398 0.0
C118 C 0.47076 0.85493 0.27248 0.0
C119 C 0.4918 0.85351 0.22943 0.0
C120 C 0.50685 0.83406 0.24172 0.0
C121 C 0.50023 0.81575 0.29295 0.0
C122 C 0.44693 0.77652 0.31775 0.0
C123 C 0.43257 0.75841 0.34704 0.0
C124 C 0.42256 0.74191 0.29626 0.0
C125 C 0.4268 0.74332 0.2153 0.0
C126 C 0.43939 0.76276 0.18573 0.0
C127 C 0.44956 0.77911 0.23657 0.0
P128 P 0.28341 0.45997 0.06825 0.0
H129 H 0.26786 0.44342 0.91371 0.0
H130 H 0.2333 0.45389 0.83609 0.0
H131 H 0.22243 0.51526 0.98141 0.0
H132 H 0.25768 0.50515 0.05656 0.0
H133 H 0.32678 0.43389 0.09615 0.0
H134 H 0.36263 0.44478 0.16382 0.0
H135 H 0.34267 0.51827 0.14999 0.0
H136 H 0.30608 0.50694 0.08259 0.0
H137 H 0.23426 0.45284 0.10908 0.0
H138 H 0.29711 0.47725 0.22709 0.0
O139 O 0.28359 0.43087 0.05295 0.0
H140 H 0.2102 0.46874 0.21418 0.0
H141 H 0.2731 0.49313 0.33234 0.0
C142 C 0.26539 0.47331 0.99182 0.0
C143 C 0.25864 0.45965 0.92712 0.0
C144 C 0.23848 0.46546 0.88344 0.0
C145 C 0.22438 0.48503 0.9037 0.0
C146 C 0.23262 0.50002 0.96368 0.0
C147 C 0.253 0.49432 0.00675 0.0
C148 C 0.31364 0.46956 0.08342 0.0
C149 C 0.33043 0.45247 0.10433 0.0
C150 C 0.35112 0.45878 0.1437 0.0
C151 C 0.3556 0.48244 0.16376 0.0
C152 C 0.33969 0.49983 0.13673 0.0
C153 C 0.31893 0.49344 0.0967 0.0
C154 C 0.26738 0.46485 0.15786 0.0
C155 C 0.24296 0.46112 0.15841 0.0
C156 C 0.22922 0.47012 0.21898 0.0
C157 C 0.23977 0.48268 0.28076 0.0
C158 C 0.26448 0.48409 0.28436 0.0
C159 C 0.27821 0.47509 0.22356 0.0
P160 P 0.05658 0.28396 0.05424 0.0
H161 H 0.06742 0.26679 0.89609 0.0
H162 H 0.05561 0.23086 0.82809 0.0
H163 H 1.00228 0.21826 0.00391 0.0
H164 H 0.01366 0.25475 0.06987 0.0
H165 H 0.07958 0.3292 0.07563 0.0
H166 H 0.06719 0.36402 0.14594 0.0
H167 H 0.99527 0.33853 0.14558 0.0
H168 H 0.00823 0.30291 0.07623 0.0
H169 H 0.07134 0.23697 0.10172 0.0
H170 H 0.0429 0.29878 0.21564 0.0
O171 O 0.08453 0.28641 0.02447 0.0
H172 H 0.06014 0.21312 0.21474 0.0
H173 H 0.03121 0.27488 0.32685 0.0
C174 C 0.04159 0.26356 0.98864 0.0
C175 C 0.05261 0.2568 0.91862 0.0
C176 C 0.04606 0.23591 0.88033 0.0
C177 C 0.02839 0.22108 0.91138 0.0
C178 C 0.01595 0.22905 0.97781 0.0
C179 C 0.02239 0.25011 0.01565 0.0
C180 C 0.04486 0.31339 0.06956 0.0
C181 C 0.06093 0.33145 0.08724 0.0
C182 C 0.05375 0.35153 0.12826 0.0
C183 C 0.0302 0.35416 0.153 0.0
C184 C 0.01364 0.33699 0.12894 0.0
C185 C 0.02091 0.31678 0.08763 0.0
C186 C 0.05696 0.26942 0.14812 0.0
C187 C 0.06343 0.24558 0.15182 0.0
C188 C 0.05713 0.23199 0.21664 0.0
C189 C 0.04437 0.24219 0.27847 0.0
C190 C 0.04069 0.26663 0.2791 0.0
C191 C 0.04716 0.28023 0.21459 0.0
P192 P 0.21653 0.0514 0.05083 0.0
H193 H 0.23958 0.0682 0.90821 0.0
H194 H 0.27646 0.05671 0.84857 0.0
H195 H 0.27576 0.99179 0.98193 0.0
H196 H 0.23935 0.00442 0.04565 0.0
H197 H 0.16878 0.07076 0.05271 0.0
H198 H 0.13393 0.05926 0.12618 0.0
H199 H 0.16667 0.9926 0.18277 0.0
H200 H 0.20152 0.00404 0.107 0.0
H201 H 0.2655 0.0642 0.07852 0.0
H202 H 0.20591 0.04314 0.2199 0.0
O203 O 0.21202 0.0791 0.02105 0.0
H204 H 0.29203 0.054 0.18454 0.0
H205 H 0.2325 0.03298 0.3267 0.0
C206 C 0.23625 0.03715 0.98129 0.0
C207 C 0.24677 0.05105 0.92282 0.0
C208 C 0.2682 0.04439 0.88849 0.0
C209 C 0.27973 0.02337 0.91078 0.0
C210 C 0.26798 0.00841 0.96431 0.0
C211 C 0.24662 0.01531 0.99953 0.0
C212 C 0.18803 0.03836 0.07413 0.0
C213 C 0.16826 0.05325 0.07808 0.0
C214 C 0.14832 0.04677 0.12131 0.0
C215 C 0.14768 0.02528 0.16252 0.0
C216 C 0.1665 0.00931 0.15196 0.0
C217 C 0.18647 0.01577 0.10788 0.0
C218 C 0.23388 0.0529 0.13908 0.0
C219 C 0.25802 0.05789 0.13299 0.0
C220 C 0.27322 0.05224 0.19421 0.0
C221 C 0.26438 0.04194 0.26314 0.0
C222 C 0.23983 0.04014 0.27314 0.0
C223 C 0.22463 0.04578 0.21159 0.0
P224 P 0.45546 0.22533 0.07084 0.0
H225 H 0.44022 0.24179 0.91579 0.0
H226 H 0.45161 0.2766 0.8407 0.0
H227 H 0.51195 0.28627 0.99195 0.0
H228 H 0.50086 0.25087 0.06497 0.0
H229 H 0.42883 0.18235 0.09842 0.0
H230 H 0.43943 0.14607 0.16421 0.0
H231 H 0.51318 0.16492 0.14824 0.0
H232 H 0.50217 0.20193 0.08257 0.0
H233 H 0.44645 0.27376 0.11602 0.0
H234 H 0.47399 0.2111 0.22776 0.0
O235 O 0.42648 0.2255 0.05311 0.0
H236 H 0.46164 0.29761 0.22316 0.0
H237 H 0.48932 0.23491 0.33429 0.0
C238 C 0.4695 0.24369 0.9968 0.0
C239 C 0.45641 0.25081 0.93112 0.0
C240 C 0.46276 0.27108 0.88884 0.0
C241 C 0.48233 0.28486 0.91143 0.0
C242 C 0.49674 0.27629 0.97251 0.0
C243 C 0.49047 0.25584 0.01434 0.0
C244 C 0.46467 0.19495 0.0847 0.0
C245 C 0.44739 0.17836 0.10567 0.0
C246 C 0.45353 0.15744 0.14394 0.0
C247 C 0.47719 0.15252 0.16287 0.0
C248 C 0.49473 0.16824 0.13577 0.0
C249 C 0.48852 0.18924 0.09676 0.0
C250 C 0.45989 0.24079 0.16177 0.0
C251 C 0.4552 0.26503 0.16446 0.0
C252 C 0.46381 0.27863 0.22605 0.0
C253 C 0.47708 0.26811 0.28631 0.0
C254 C 0.4796 0.24349 0.28763 0.0
C255 C 0.47092 0.22989 0.22602 0.0
Ho256 Ho 0.01908 0.99488 0.77332 0.0
Ho257 Ho 0.9839 0.0078 0.63715 0.0
C258 C 1.00024 0.95405 0.65268 0.0
C259 C 0.03502 0.98062 0.90642 0.0
C260 C 0.04977 0.96098 0.93351 0.0
C261 C 0.05218 0.94057 0.88783 0.0
C262 C 0.06392 0.92088 0.91778 0.0
C263 C 0.07359 0.92139 0.99353 0.0
C264 C 0.07232 0.94234 0.03732 0.0
C265 C 0.06038 0.96199 0.00752 0.0
C266 C 0.04325 1.00049 0.63605 0.0
C267 C 0.00753 0.04966 0.74324 0.0
C268 C 0.96075 0.02646 0.52311 0.0
C269 C 0.9611 0.05034 0.48856 0.0
C270 C 0.97917 0.05702 0.43685 0.0
C271 C 0.98155 0.08049 0.41397 0.0
C272 C 0.96586 0.09774 0.442 0.0
C273 C 0.94701 0.09088 0.49012 0.0
C274 C 0.94455 0.06733 0.51278 0.0
C275 C 0.96468 0.99277 0.77347 0.0
O276 O 0.00918 0.95916 0.7227 0.0
O277 O 0.99165 0.97039 0.60503 0.0
O278 O 0.04563 0.99677 0.86416 0.0
O279 O 0.01426 0.97462 0.8787 0.0
O280 O 0.0531 0.99508 0.70227 0.0
O281 O 0.02149 1.00255 0.64868 0.0
O282 O 0.99783 0.04363 0.67531 0.0
O283 O 0.01475 0.0337 0.79458 0.0
O284 O 0.95257 0.02517 0.59462 0.0
O285 O 0.97966 0.01347 0.51288 0.0
O286 O 0.95686 0.98696 0.70482 0.0
O287 O 0.98203 0.00653 0.76587 0.0
H288 H 0.04428 0.93959 0.83018 0.0
H289 H 0.06482 0.90499 0.88272 0.0
H290 H 0.07946 0.94311 0.09609 0.0
H291 H 0.05872 0.97766 0.04333 0.0
H292 H 0.99211 0.04436 0.4166 0.0
H293 H 0.99641 0.08531 0.37739 0.0
H294 H 0.93453 0.10381 0.51172 0.0
H295 H 0.93024 0.06262 0.55185 0.0
Ho296 Ho 0.50579 0.02266 0.75953 0.0
Ho297 Ho 0.49523 0.98595 0.64292 0.0
C298 C 0.54886 1.00009 0.65681 0.0
C299 C 0.52268 0.04851 0.87093 0.0
C300 C 0.54624 0.05467 0.90123 0.0
C301 C 0.56262 0.03716 0.9221 0.0
C302 C 0.58458 0.04343 0.9527 0.0
C303 C 0.59078 0.06732 0.96222 0.0
C304 C 0.57448 0.08479 0.93971 0.0
C305 C 0.55239 0.0785 0.90986 0.0
C306 C 0.49157 0.0399 0.61911 0.0
C307 C 0.45211 0.00804 0.74754 0.0
C308 C 0.4775 0.96154 0.52994 0.0
C309 C 0.45297 0.95774 0.5046 0.0
C310 C 0.44626 0.96509 0.42956 0.0
C311 C 0.42247 0.96639 0.40942 0.0
C312 C 0.40487 0.96001 0.46366 0.0
C313 C 0.41175 0.95086 0.53672 0.0
C314 C 0.43559 0.94991 0.55731 0.0
C315 C 0.50993 0.96829 0.78179 0.0
O316 O 0.54253 0.01092 0.72223 0.0
O317 O 0.53295 0.99079 0.60976 0.0
O318 O 0.5175 0.05672 0.80162 0.0
O319 O 0.5156 0.02673 0.88091 0.0
O320 O 0.48474 0.04811 0.68613 0.0
O321 O 0.50576 0.02304 0.63001 0.0
O322 O 0.45843 0.9967 0.68309 0.0
O323 O 0.46795 0.01815 0.793 0.0
O324 O 0.48371 0.9523 0.59699 0.0
O325 O 0.48513 0.98317 0.52145 0.0
O326 O 0.5162 0.96017 0.71398 0.0
O327 O 0.49571 0.98529 0.77251 0.0
H328 H 0.5584 0.01862 0.91572 0.0
H329 H 0.59649 0.02947 0.97059 0.0
H330 H 0.57876 0.10334 0.94511 0.0
H331 H 0.54005 0.09228 0.89368 0.0
H332 H 0.45938 0.97127 0.38814 0.0
H333 H 0.41795 0.97387 0.35303 0.0
H334 H 0.3987 0.94533 0.57921 0.0
H335 H 0.44024 0.94411 0.61573 0.0
Ho336 Ho 0.48748 0.50889 0.76071 0.0
Ho337 Ho 0.52243 0.49981 0.63787 0.0
C338 C 0.50741 0.55323 0.65611 0.0
C339 C 0.46356 0.52284 0.88125 0.0
C340 C 0.45087 0.54402 0.90626 0.0
C341 C 0.45129 0.56458 0.86066 0.0
C342 C 0.44132 0.58541 0.88904 0.0
C343 C 0.43066 0.58591 0.9634 0.0
C344 C 0.42921 0.56487 0.00697 0.0
C345 C 0.43933 0.5441 0.97865 0.0
C346 C 0.46812 0.49706 0.62075 0.0
C347 C 0.50244 0.45584 0.74034 0.0
C348 C 0.54668 0.48315 0.52262 0.0
C349 C 0.55169 0.45884 0.49692 0.0
C350 C 0.54082 0.4503 0.42901 0.0
C351 C 0.54197 0.42641 0.41049 0.0
C352 C 0.55441 0.41053 0.45877 0.0
C353 C 0.56667 0.41941 0.52391 0.0
C354 C 0.56525 0.44333 0.54303 0.0
C355 C 0.54172 0.51216 0.77709 0.0
O356 O 0.49638 0.54629 0.72069 0.0
O357 O 0.51736 0.53784 0.60863 0.0
O358 O 0.45431 0.51117 0.82302 0.0
O359 O 0.48645 0.52508 0.87492 0.0
O360 O 0.46056 0.48956 0.68786 0.0
O361 O 0.48531 0.51086 0.63121 0.0
O362 O 0.51013 0.46276 0.67084 0.0
O363 O 0.49597 0.47157 0.79277 0.0
O364 O 0.55612 0.48979 0.58876 0.0
O365 O 0.52468 0.48986 0.51606 0.0
O366 O 0.54893 0.51976 0.70966 0.0
O367 O 0.52469 0.49807 0.76728 0.0
H368 H 0.46 0.56467 0.80438 0.0
H369 H 0.44298 0.60134 0.85435 0.0
H370 H 0.42081 0.56461 0.06391 0.0
H371 H 0.43872 0.52827 0.01426 0.0
H372 H 0.53033 0.46189 0.39236 0.0
H373 H 0.53193 0.42027 0.36059 0.0
H374 H 0.57673 0.40777 0.56156 0.0
H375 H 0.57405 0.44941 0.59554 0.0
Ho376 Ho 1.0002 0.48784 0.74622 0.0
Ho377 Ho 0.00977 0.52073 0.61697 0.0
C378 C 0.95637 0.50671 0.6395 0.0
C379 C 0.98483 0.466 0.86922 0.0
C380 C 0.9619 0.45857 0.90235 0.0
C381 C 0.95003 0.4733 0.95538 0.0
C382 C 0.92865 0.46626 0.98834 0.0
C383 C 0.91872 0.44427 0.96948 0.0
C384 C 0.93069 0.42937 0.9172 0.0
C385 C 0.95211 0.43645 0.88399 0.0
C386 C 0.01186 0.46652 0.60949 0.0
C387 C 0.05372 0.50174 0.72424 0.0
C388 C 0.02632 0.54285 0.49687 0.0
C389 C 0.05011 0.55135 0.47737 0.0
C390 C 0.06017 0.54449 0.40627 0.0
C391 C 0.08409 0.54825 0.39233 0.0
C392 C 0.09844 0.5593 0.44891 0.0
C393 C 0.08786 0.56767 0.51795 0.0
C394 C 0.06394 0.56354 0.53242 0.0
C395 C 0.99819 0.54234 0.7531 0.0
O396 O 0.96316 0.49901 0.70928 0.0
O397 O 0.97209 0.51335 0.58696 0.0
O398 O 0.99207 0.45518 0.80618 0.0
O399 O 0.98893 0.4887 0.86679 0.0
O400 O 0.01959 0.45992 0.67752 0.0
O401 O 0.99813 0.48385 0.61743 0.0
O402 O 0.04696 0.51007 0.65522 0.0
O403 O 0.03802 0.49449 0.7758 0.0
O404 O 0.01551 0.55344 0.55446 0.0
O405 O 0.0242 0.5199 0.50001 0.0
O406 O 0.99076 0.5489 0.68473 0.0
O407 O 0.0118 0.52485 0.7456 0.0
H408 H 0.95731 0.49025 0.97195 0.0
H409 H 0.92007 0.47791 0.0297 0.0
H410 H 0.9234 0.41235 0.90149 0.0
H411 H 0.96099 0.42455 0.84413 0.0
H412 H 0.04984 0.53492 0.36338 0.0
H413 H 0.09151 0.54103 0.33915 0.0
H414 H 0.09823 0.57656 0.56226 0.0
H415 H 0.05658 0.56895 0.58807 0.0
C416 C 0.12219 0.03944 0.27329 0.0
C417 C 0.12899 0.02102 0.22309 0.0
C418 C 0.10621 0.03572 0.33499 0.0
C419 C 0.09659 0.01296 0.34754 0.0
C420 C 0.10268 0.99442 0.29552 0.0
C421 C 0.11891 0.99862 0.23434 0.0
C422 C 0.10046 0.05599 0.38904 0.0
C423 C 0.09262 0.96996 0.30593 0.0
C424 C 0.08056 0.99908 0.55912 0.0
C425 C 0.0561 1.00292 0.56054 0.0
C426 C 0.0937 1.00166 0.48992 0.0
C427 C 0.08218 0.00823 0.41959 0.0
C428 C 0.05734 0.01167 0.42016 0.0
C429 C 0.0446 0.00905 0.49074 0.0
C430 C 0.12009 0.9979 0.49265 0.0
C431 C 0.04429 0.01865 0.34672 0.0
H432 H 0.13013 0.05672 0.26639 0.0
H433 H 0.12384 0.98431 0.19564 0.0
H434 H 0.08107 0.05797 0.39502 0.0
H435 H 0.10765 0.05229 0.44822 0.0
H436 H 0.10795 0.07298 0.36805 0.0
H437 H 0.09696 0.95821 0.25599 0.0
H438 H 0.09977 0.96197 0.36031 0.0
H439 H 0.07315 0.97082 0.31232 0.0
H440 H 0.0896 0.99425 0.61274 0.0
H441 H 0.02574 0.01205 0.4914 0.0
H442 H 0.1293 0.01458 0.47754 0.0
H443 H 0.12539 0.98452 0.44874 0.0
H444 H 0.12625 0.99199 0.55122 0.0
H445 H 0.04877 0.03713 0.33123 0.0
H446 H 0.02485 0.01733 0.35397 0.0
H447 H 0.04974 0.00734 0.29692 0.0
C448 C 0.46996 0.1115 0.21634 0.0
C449 C 0.48281 0.13274 0.21838 0.0
C450 C 0.47215 0.09448 0.27608 0.0
C451 C 0.48775 0.09856 0.33947 0.0
C452 C 0.50182 0.11926 0.33948 0.0
C453 C 0.49913 0.13608 0.27933 0.0
C454 C 0.45685 0.07269 0.27333 0.0
C455 C 0.51887 0.12427 0.40531 0.0
C456 C 0.47367 0.07249 0.54008 0.0
C457 C 0.48944 0.05348 0.5449 0.0
C458 C 0.47261 0.08687 0.47299 0.0
C459 C 0.48786 0.08234 0.40898 0.0
C460 C 0.5035 0.06282 0.41281 0.0
C461 C 0.50401 0.04855 0.48053 0.0
C462 C 0.45544 0.10725 0.47133 0.0
C463 C 0.52014 0.0574 0.3463 0.0
H464 H 0.45759 0.10846 0.16902 0.0
H465 H 0.50899 0.15244 0.28248 0.0
H466 H 0.46768 0.05661 0.28259 0.0
H467 H 0.44367 0.07338 0.3213 0.0
H468 H 0.44729 0.071 0.21683 0.0
H469 H 0.53025 0.13978 0.39282 0.0
H470 H 0.50887 0.12773 0.45994 0.0
H471 H 0.53031 0.10871 0.41619 0.0
H472 H 0.46229 0.07634 0.58945 0.0
H473 H 0.51629 0.03391 0.4839 0.0
H474 H 0.44392 0.10598 0.41898 0.0
H475 H 0.46526 0.12415 0.467 0.0
H476 H 0.44411 0.10782 0.52434 0.0
H477 H 0.51017 0.05557 0.29075 0.0
H478 H 0.53038 0.04096 0.35658 0.0
H479 H 0.5327 0.07225 0.33853 0.0
C480 C 0.39656 0.47561 0.21842 0.0
C481 C 0.37514 0.48817 0.22005 0.0
C482 C 0.41341 0.47795 0.27856 0.0
C483 C 0.409 0.49342 0.34196 0.0
C484 C 0.38811 0.50719 0.34165 0.0
C485 C 0.37145 0.50434 0.28113 0.0
C486 C 0.43542 0.46295 0.27616 0.0
C487 C 0.38274 0.5241 0.40745 0.0
C488 C 0.43523 0.47942 0.54253 0.0
C489 C 0.45416 0.49529 0.54721 0.0
C490 C 0.42078 0.47837 0.47563 0.0
C491 C 0.42514 0.49374 0.41167 0.0
C492 C 0.44451 0.50957 0.41555 0.0
C493 C 0.45887 0.51006 0.48304 0.0
C494 C 0.40058 0.46098 0.47394 0.0
C495 C 0.44973 0.52637 0.34917 0.0
H496 H 0.39989 0.46337 0.17102 0.0
H497 H 0.35495 0.51397 0.28402 0.0
H498 H 0.45134 0.47401 0.28529 0.0
H499 H 0.43487 0.44981 0.32436 0.0
H500 H 0.43728 0.45337 0.21983 0.0
H501 H 0.36708 0.53528 0.39474 0.0
H502 H 0.37932 0.51402 0.462 0.0
H503 H 0.39812 0.53575 0.41861 0.0
H504 H 0.43156 0.46788 0.59172 0.0
H505 H 0.47345 0.52241 0.4863 0.0
H506 H 0.40205 0.44946 0.42171 0.0
H507 H 0.38358 0.4706 0.46931 0.0
H508 H 0.40006 0.44966 0.52705 0.0
H509 H 0.45194 0.51647 0.29371 0.0
H510 H 0.4659 0.53698 0.35986 0.0
H511 H 0.43462 0.53858 0.34094 0.0
C512 C 0.03521 0.39528 0.20843 0.0
C513 C 0.02395 0.37316 0.21073 0.0
C514 C 0.03244 0.41182 0.26923 0.0
C515 C 0.01769 0.40643 0.33378 0.0
C516 C 0.00519 0.38475 0.33434 0.0
C517 C 0.00857 0.36838 0.27338 0.0
C518 C 0.04618 0.43463 0.26605 0.0
C519 C 0.98899 0.37837 0.40123 0.0
C520 C 0.03076 0.43393 0.53309 0.0
C521 C 0.01401 0.45208 0.53723 0.0
C522 C 0.0324 0.41931 0.46676 0.0
C523 C 0.01664 0.42262 0.40315 0.0
C524 C 0.99979 0.4411 0.40679 0.0
C525 C 0.99881 0.45572 0.47343 0.0
C526 C 0.05091 0.40015 0.4651 0.0
C527 C 0.98244 0.44509 0.34103 0.0
H528 H 0.04676 0.3995 0.15986 0.0
H529 H 0.99995 0.35135 0.27694 0.0
H530 H 0.03422 0.4499 0.27472 0.0
H531 H 0.05932 0.43496 0.31423 0.0
H532 H 0.05565 0.43693 0.20962 0.0
H533 H 0.97871 0.36207 0.3893 0.0
H534 H 0.99954 0.37559 0.45517 0.0
H535 H 0.97648 0.39301 0.41301 0.0
H536 H 0.04262 0.43109 0.58201 0.0
H537 H 0.98576 0.46968 0.47634 0.0
H538 H 0.06215 0.40213 0.41234 0.0
H539 H 0.04227 0.38261 0.46147 0.0
H540 H 0.06241 0.40044 0.51776 0.0
H541 H 0.992 0.44803 0.28522 0.0
H542 H 0.97073 0.46046 0.35203 0.0
H543 H 0.97132 0.42914 0.33325 0.0
C544 C 0.88472 0.98435 0.16509 0.0
C545 C 0.86369 0.99659 0.14963 0.0
C546 C 0.90218 0.98178 0.10709 0.0
C547 C 0.89883 0.99226 0.03252 0.0
C548 C 0.87757 0.00457 0.01672 0.0
C549 C 0.86018 0.00634 0.0751 0.0
C550 C 0.92428 0.968 0.12575 0.0
C551 C 0.87341 0.01641 0.93869 0.0
C552 C 0.95175 0.0078 0.90442 0.0
C553 C 0.95003 0.99085 0.84501 0.0
C554 C 0.93556 0.00814 0.96687 0.0
C555 C 0.91759 0.99075 0.97108 0.0
C556 C 0.91668 0.97281 0.91346 0.0
C557 C 0.93269 0.97327 0.85059 0.0
C558 C 0.93694 0.02784 0.02608 0.0
C559 C 0.89828 0.95355 0.91677 0.0
H560 H 0.88746 0.97676 0.22266 0.0
H561 H 0.8441 0.01611 0.06333 0.0
H562 H 0.92688 0.95384 0.08177 0.0
H563 H 0.9399 0.97977 0.1226 0.0
H564 H 0.92364 0.95987 0.18491 0.0
H565 H 0.85606 0.02551 0.93596 0.0
H566 H 0.88754 0.02956 0.92739 0.0
H567 H 0.87418 1.00319 0.89098 0.0
H568 H 0.96505 0.0215 0.90008 0.0
H569 H 0.9314 0.96008 0.80489 0.0
H570 H 0.93769 0.02053 0.08625 0.0
H571 H 0.9208 0.03888 0.02218 0.0
H572 H 0.95259 0.03933 0.0168 0.0
H573 H 0.89799 0.94534 0.97575 0.0
H574 H 0.9015 0.93957 0.87255 0.0
H575 H 0.88055 0.96121 0.90613 0.0
C576 C 0.51799 0.88386 0.16514 0.0
C577 C 0.49667 0.87132 0.16736 0.0
C578 C 0.52208 0.9012 0.10736 0.0
C579 C 0.50467 0.90563 0.04944 0.0
C580 C 0.48325 0.89274 0.05122 0.0
C581 C 0.47944 0.87596 0.11042 0.0
C582 C 0.54495 0.91485 0.10844 0.0
C583 C 0.4644 0.89642 0.98982 0.0
C584 C 0.50159 0.96148 0.92466 0.0
C585 C 0.51127 0.95364 0.85381 0.0
C586 C 0.50054 0.94648 0.99047 0.0
C587 C 0.50898 0.92296 0.9848 0.0
C588 C 0.51959 0.91534 0.91422 0.0
C589 C 0.52082 0.93082 0.85003 0.0
C590 C 0.48956 0.9555 0.06508 0.0
C591 C 0.5285 0.89038 0.9049 0.0
H592 H 0.53126 0.88041 0.20942 0.0
H593 H 0.46303 0.86612 0.11157 0.0
H594 H 0.55496 0.91152 0.0538 0.0
H595 H 0.54123 0.93406 0.11078 0.0
H596 H 0.55626 0.91002 0.15913 0.0
H597 H 0.4488 0.88488 0.99926 0.0
H598 H 0.45846 0.91507 0.99005 0.0
H599 H 0.47174 0.89273 0.93088 0.0
H600 H 0.49432 0.97914 0.92812 0.0
H601 H 0.52842 0.92463 0.79559 0.0
H602 H 0.50098 0.95126 0.11595 0.0
H603 H 0.47233 0.94665 0.07475 0.0
H604 H 0.48658 0.97488 0.06333 0.0
H605 H 0.5408 0.88581 0.95309 0.0
H606 H 0.53772 0.88767 0.84823 0.0
H607 H 0.51343 0.8779 0.90821 0.0
C608 C 0.626 0.51853 0.16088 0.0
C609 C 0.63948 0.49777 0.16101 0.0
C610 C 0.60893 0.52271 0.10232 0.0
C611 C 0.60561 0.50594 0.04169 0.0
C612 C 0.61954 0.48519 0.04102 0.0
C613 C 0.63612 0.4813 0.10078 0.0
C614 C 0.59425 0.5449 0.1058 0.0
C615 C 0.61701 0.46704 0.97688 0.0
C616 C 0.54964 0.50186 0.91787 0.0
C617 C 0.5568 0.51284 0.84821 0.0
C618 C 0.56491 0.50052 0.98286 0.0
C619 C 0.58802 0.51009 0.97769 0.0
C620 C 0.59497 0.52191 0.90831 0.0
C621 C 0.57923 0.52329 0.84481 0.0
C622 C 0.55663 0.48812 0.05608 0.0
C623 C 0.61946 0.53211 0.89962 0.0
H624 H 0.62842 0.53121 0.20764 0.0
H625 H 0.64668 0.46534 0.10016 0.0
H626 H 0.59682 0.55544 0.05172 0.0
H627 H 0.57525 0.54023 0.10893 0.0
H628 H 0.59878 0.55605 0.15706 0.0
H629 H 0.62941 0.45201 0.98422 0.0
H630 H 0.59872 0.46004 0.97606 0.0
H631 H 0.6203 0.47537 0.91909 0.0
H632 H 0.53227 0.49387 0.92102 0.0
H633 H 0.58489 0.53187 0.79126 0.0
H634 H 0.5601 0.49924 0.10824 0.0
H635 H 0.56663 0.47145 0.06383 0.0
H636 H 0.53749 0.48387 0.05394 0.0
H637 H 0.62352 0.54402 0.94926 0.0
H638 H 0.6216 0.54211 0.8441 0.0
H639 H 0.63265 0.51764 0.9008 0.0
C640 C 0.99343 0.62954 0.12906 0.0
C641 C 0.01402 0.64329 0.12669 0.0
C642 C 0.98902 0.61215 0.07189 0.0
C643 C 0.00542 0.60868 0.01024 0.0
C644 C 0.026 0.62286 0.00696 0.0
C645 C 0.03008 0.63984 0.06523 0.0
C646 C 0.967 0.59728 0.07801 0.0
C647 C 0.04378 0.62009 0.94176 0.0
C648 C 0.00921 0.55168 0.8921 0.0
C649 C 0.99782 0.55813 0.8224 0.0
C650 C 0.01086 0.56757 0.95523 0.0
C651 C 1.00112 0.59054 0.94819 0.0
C652 C 0.98887 0.59678 0.87888 0.0
C653 C 0.98726 0.58047 0.81715 0.0
C654 C 0.02379 0.56006 0.02838 0.0
C655 C 0.97838 0.62107 0.86841 0.0
H656 H 0.98106 0.63198 0.17675 0.0
H657 H 0.04589 0.65059 0.06251 0.0
H658 H 0.9562 0.59925 0.02424 0.0
H659 H 0.97188 0.57837 0.08285 0.0
H660 H 0.95601 0.60213 0.12936 0.0
H661 H 0.05871 0.6327 0.94706 0.0
H662 H 0.05096 0.60188 0.9419 0.0
H663 H 0.03506 0.62291 0.88433 0.0
H664 H 0.01731 0.5344 0.89667 0.0
H665 H 0.97836 0.58556 0.76356 0.0
H666 H 0.0129 0.56378 0.0809 0.0
H667 H 0.04035 0.57037 0.03413 0.0
H668 H 0.02832 0.54098 0.02777 0.0
H669 H 0.96671 0.62543 0.91844 0.0
H670 H 0.96804 0.62263 0.81339 0.0
H671 H 0.99272 0.63441 0.86729 0.0
C672 C 0.04149 0.20741 0.36742 0.0
C673 C 0.03074 0.22678 0.33125 0.0
C674 C 0.02776 0.18919 0.39902 0.0
C675 C 1.00286 0.19028 0.39223 0.0
C676 C 0.99194 0.21087 0.3627 0.0
C677 C 0.00609 0.229 0.33281 0.0
C678 C 0.03996 0.16776 0.43269 0.0
C679 C 0.96547 0.21275 0.3545 0.0
C680 C 0.97801 0.12994 0.35137 0.0
C681 C 0.97065 0.12292 0.42603 0.0
C682 C 0.98716 0.15252 0.33864 0.0
C683 C 0.98894 0.1684 0.40227 0.0
C684 C 0.9796 0.1622 0.47614 0.0
C685 C 0.97055 0.1394 0.4873 0.0
C686 C 0.99631 0.1588 0.25819 0.0
C687 C 0.98059 0.17902 0.54446 0.0
H688 H 0.06057 0.20586 0.36659 0.0
H689 H 0.99775 0.24393 0.3042 0.0
H690 H 0.03135 0.16219 0.48803 0.0
H691 H 0.03854 0.15289 0.39077 0.0
H692 H 0.05897 0.17111 0.44431 0.0
H693 H 0.95971 0.23143 0.34953 0.0
H694 H 0.95986 0.20336 0.30068 0.0
H695 H 0.95626 0.20445 0.40475 0.0
H696 H 0.97752 0.11738 0.30356 0.0
H697 H 0.96478 0.13405 0.54514 0.0
H698 H 0.01583 0.16035 0.26004 0.0
H699 H 0.98918 0.17611 0.23916 0.0
H700 H 0.99155 0.14534 0.21367 0.0
H701 H 0.99886 0.17957 0.56777 0.0
H702 H 0.9685 0.17355 0.59232 0.0
H703 H 0.97593 0.19721 0.52606 0.0
C704 C 0.27584 0.0065 0.34097 0.0
C705 C 0.2808 0.02968 0.31692 0.0
C706 C 0.29328 0.99246 0.37585 0.0
C707 C 0.31621 1.0018 0.38571 0.0
C708 C 0.32081 0.02573 0.36712 0.0
C709 C 0.30295 0.03945 0.33344 0.0
C710 C 0.28756 0.96722 0.39693 0.0
C711 C 0.34505 0.0364 0.37775 0.0
C712 C 0.36536 0.97537 0.50585 0.0
C713 C 0.37976 0.96572 0.44703 0.0
C714 C 0.34337 0.98528 0.48761 0.0
C715 C 0.33606 0.98628 0.40872 0.0
C716 C 0.34954 0.97495 0.3501 0.0
C717 C 0.37107 0.96445 0.37026 0.0
C718 C 0.32881 0.99631 0.55175 0.0
C719 C 0.34218 0.97552 0.26514 0.0
H720 H 0.25881 0.99872 0.32782 0.0
H721 H 0.30669 0.05749 0.31617 0.0
H722 H 0.29474 0.9553 0.35134 0.0
H723 H 0.29581 0.96221 0.45346 0.0
H724 H 0.26822 0.96423 0.40096 0.0
H725 H 0.34534 0.05558 0.36419 0.0
H726 H 0.35122 0.03382 0.43877 0.0
H727 H 0.35782 0.02736 0.33871 0.0
H728 H 0.37182 0.97663 0.56536 0.0
H729 H 0.3817 0.95635 0.32495 0.0
H730 H 0.30973 0.99278 0.54303 0.0
H731 H 0.33132 0.01571 0.55051 0.0
H732 H 0.33399 0.98963 0.61026 0.0
H733 H 0.32358 0.96973 0.2588 0.0
H734 H 0.3535 0.96413 0.22795 0.0
H735 H 0.34331 0.9939 0.24285 0.0
C736 C 0.48111 0.30381 0.37034 0.0
C737 C 0.49101 0.28318 0.3397 0.0
C738 C 0.49544 0.32131 0.4031 0.0
C739 C 0.52023 0.31794 0.40545 0.0
C740 C 0.53001 0.29607 0.3826 0.0
C741 C 0.51525 0.27893 0.34948 0.0
C742 C 0.48424 0.34425 0.42854 0.0
C743 C 0.55622 0.29143 0.38603 0.0
C744 C 0.55005 0.3761 0.36877 0.0
C745 C 0.55216 0.38474 0.44528 0.0
C746 C 0.54141 0.35337 0.35476 0.0
C747 C 0.53558 0.3387 0.41898 0.0
C748 C 0.54089 0.34602 0.49593 0.0
C749 C 0.5488 0.36918 0.5085 0.0
C750 C 0.53647 0.34598 0.27144 0.0
C751 C 0.53671 0.32991 0.56492 0.0
H752 H 0.4623 0.30687 0.36423 0.0
H753 H 0.52304 0.26299 0.32581 0.0
H754 H 0.49029 0.34906 0.48812 0.0
H755 H 0.48973 0.35862 0.38825 0.0
H756 H 0.46465 0.3433 0.42868 0.0
H757 H 0.55985 0.27232 0.39417 0.0
H758 H 0.56438 0.29693 0.32989 0.0
H759 H 0.56487 0.30141 0.43391 0.0
H760 H 0.55364 0.38765 0.31959 0.0
H761 H 0.55069 0.37548 0.568 0.0
H762 H 0.51711 0.3448 0.2622 0.0
H763 H 0.54402 0.32828 0.25989 0.0
H764 H 0.54384 0.35862 0.2281 0.0
H765 H 0.51757 0.32614 0.57074 0.0
H766 H 0.54325 0.33764 0.62055 0.0
H767 H 0.54567 0.31276 0.55526 0.0
C768 C 0.23036 0.52053 0.34885 0.0
C769 C 0.2248 0.49679 0.33406 0.0
C770 C 0.21372 0.53575 0.38256 0.0
C771 C 0.19096 0.52704 0.4002 0.0
C772 C 0.18609 0.5026 0.3923 0.0
C773 C 0.2032 0.48774 0.36002 0.0
C774 C 0.22009 0.56141 0.39293 0.0
C775 C 0.16214 0.49243 0.41189 0.0
C776 C 0.13925 0.55379 0.50382 0.0
C777 C 0.12455 0.55888 0.43957 0.0
C778 C 0.16266 0.54649 0.49236 0.0
C779 C 0.17103 0.54332 0.41531 0.0
C780 C 0.15744 0.55145 0.35124 0.0
C781 C 0.13451 0.55966 0.36445 0.0
C782 C 0.17786 0.54034 0.56194 0.0
C783 C 0.16604 0.54902 0.268 0.0
H784 H 0.24708 0.52771 0.3291 0.0
H785 H 0.19913 0.46927 0.35057 0.0
H786 H 0.21727 0.57088 0.33683 0.0
H787 H 0.20925 0.57008 0.43866 0.0
H788 H 0.23904 0.5633 0.40855 0.0
H789 H 0.16156 0.47295 0.40485 0.0
H790 H 0.15738 0.49676 0.47309 0.0
H791 H 0.14852 0.50037 0.37322 0.0
H792 H 0.13209 0.55361 0.56258 0.0
H793 H 0.12371 0.56484 0.31493 0.0
H794 H 0.19502 0.5497 0.55762 0.0
H795 H 0.18179 0.52117 0.5621 0.0
H796 H 0.16932 0.54514 0.61819 0.0
H797 H 0.18408 0.55639 0.26211 0.0
H798 H 0.15428 0.55811 0.22555 0.0
H799 H 0.1669 0.53004 0.2522 0.0
C800 C 0.09176 0.81426 0.27519 0.0
C801 C 0.09968 0.79368 0.23803 0.0
C802 C 0.09271 0.83614 0.23716 0.0
C803 C 0.10189 0.83745 0.16024 0.0
C804 C 0.11228 0.81724 0.12596 0.0
C805 C 0.11089 0.79548 0.16511 0.0
C806 C 0.08137 0.8572 0.27603 0.0
C807 C 0.12286 0.81808 0.045 0.0
C808 C 0.06827 0.87917 0.02825 0.0
C809 C 0.08242 0.89942 0.03009 0.0
C810 C 0.07483 0.85873 0.06871 0.0
C811 C 0.09632 0.85838 0.11114 0.0
C812 C 0.1112 0.87846 0.11066 0.0
C813 C 0.1039 0.89893 0.07085 0.0
C814 C 0.05822 0.83784 0.06869 0.0
C815 C 0.13441 0.87854 0.15397 0.0
H816 H 0.08285 0.813 0.3312 0.0
H817 H 0.11728 0.77963 0.13664 0.0
H818 H 0.09173 0.87349 0.26563 0.0
H819 H 0.06353 0.85995 0.25075 0.0
H820 H 0.0795 0.85456 0.34017 0.0
H821 H 0.13441 0.80261 0.03369 0.0
H822 H 0.10848 0.81807 1.00088 0.0
H823 H 0.13327 0.83448 0.03656 0.0
H824 H 0.05149 0.87965 0.99771 0.0
H825 H 0.11487 0.9146 0.07199 0.0
H826 H 0.05215 0.83418 0.12926 0.0
H827 H 0.06748 0.82185 0.04748 0.0
H828 H 0.04246 0.84084 0.03124 0.0
H829 H 0.1311 0.87846 0.21794 0.0
H830 H 0.14526 0.89427 0.1394 0.0
H831 H 0.14467 0.8624 0.14007 0.0
C832 C 0.69839 0.071 0.24686 0.0
C833 C 0.71868 0.08306 0.2222 0.0
C834 C 0.6777 0.07143 0.20224 0.0
C835 C 0.67711 0.08463 0.13189 0.0
C836 C 0.69711 0.09796 0.10889 0.0
C837 C 0.71786 0.09673 0.15386 0.0
C838 C 0.65692 0.05662 0.22822 0.0
C839 C 0.69692 0.11267 0.03522 0.0
C840 C 0.63408 0.06048 0.98272 0.0
C841 C 0.61377 0.07382 0.99842 0.0
C842 C 0.65518 0.06454 0.02337 0.0
C843 C 0.65617 0.08273 0.07996 0.0
C844 C 0.63624 0.09728 0.09247 0.0
C845 C 0.61519 0.0925 0.05214 0.0
C846 C 0.67599 0.04846 0.00884 0.0
C847 C 0.63679 0.11715 0.15117 0.0
H848 H 0.69915 0.06002 0.29885 0.0
H849 H 0.73361 0.10596 0.13472 0.0
H850 H 0.64107 0.06789 0.23541 0.0
H851 H 0.65275 0.04326 0.18286 0.0
H852 H 0.66035 0.0473 0.28431 0.0
H853 H 0.71259 0.12439 0.03123 0.0
H854 H 0.69676 0.10093 0.98334 0.0
H855 H 0.68072 0.12366 0.0326 0.0
H856 H 0.63334 0.04641 0.93985 0.0
H857 H 0.5996 0.10285 0.06522 0.0
H858 H 0.67965 0.03793 0.06231 0.0
H859 H 0.69204 0.05897 0.99599 0.0
H860 H 0.67283 0.03612 0.95945 0.0
H861 H 0.63694 0.10975 0.21131 0.0
H862 H 0.62124 0.12897 0.14539 0.0
H863 H 0.65309 0.12781 0.14409 0.0
C864 C 0.40077 0.70974 0.17293 0.0
C865 C 0.4217 0.72273 0.1645 0.0
C866 C 0.39787 0.68798 0.13487 0.0
C867 C 0.41643 0.679 0.08815 0.0
C868 C 0.43696 0.69273 0.07572 0.0
C869 C 0.43933 0.7144 0.114 0.0
C870 C 0.37558 0.67397 0.14844 0.0
C871 C 0.45724 0.68376 0.02659 0.0
C872 C 0.42957 0.61381 0.07614 0.0
C873 C 0.4234 0.60873 0.9985 0.0
C874 C 0.42598 0.63633 0.10756 0.0
C875 C 0.416 0.65423 0.06012 0.0
C876 C 0.40843 0.64888 0.98323 0.0
C877 C 0.41229 0.62616 0.95317 0.0
C878 C 0.43439 0.64133 0.18985 0.0
C879 C 0.39749 0.66747 0.9313 0.0
H880 H 0.38701 0.71623 0.21135 0.0
H881 H 0.45573 0.7241 0.10812 0.0
H882 H 0.3689 0.66656 0.09261 0.0
H883 H 0.37944 0.65892 0.18802 0.0
H884 H 0.36147 0.68487 0.17547 0.0
H885 H 0.47095 0.69748 0.01686 0.0
H886 H 0.46561 0.66847 0.05628 0.0
H887 H 0.45079 0.67758 0.96887 0.0
H888 H 0.43844 0.60056 0.11126 0.0
H889 H 0.40718 0.62221 0.89346 0.0
H890 H 0.42034 0.65025 0.22398 0.0
H891 H 0.4498 0.65341 0.18778 0.0
H892 H 0.43969 0.625 0.22137 0.0
H893 H 0.38928 0.65969 0.87822 0.0
H894 H 0.41129 0.68014 0.91243 0.0
H895 H 0.3839 0.6776 0.96374 0.0
C896 C 0.79102 0.41213 0.14185 0.0
C897 C 0.7908 0.42005 0.21952 0.0
C898 C 0.81208 0.41172 0.09867 0.0
C899 C 0.83323 0.41967 0.134 0.0
C900 C 0.83339 0.42594 0.21416 0.0
C901 C 0.81215 0.42599 0.25602 0.0
C902 C 0.81131 0.40453 0.0137 0.0
C903 C 0.85555 0.43464 0.25397 0.0
C904 C 0.89322 0.41424 0.03664 0.0
C905 C 0.89606 0.43698 0.00543 0.0
C906 C 0.87246 0.40793 0.07639 0.0
C907 C 0.85427 0.42482 0.08517 0.0
C908 C 0.85672 0.44751 0.05126 0.0
C909 C 0.87755 0.45327 0.01161 0.0
C910 C 0.87035 0.38355 0.11133 0.0
C911 C 0.83767 0.46603 0.05912 0.0
H912 H 0.77453 0.40736 0.11376 0.0
H913 H 0.81205 0.43243 0.31575 0.0
H914 H 0.81257 0.4205 0.97627 0.0
H915 H 0.82651 0.393 0.99911 0.0
H916 H 0.79469 0.39512 0.99891 0.0
H917 H 0.85336 0.43606 0.31842 0.0
H918 H 0.87059 0.4227 0.24156 0.0
H919 H 0.86021 0.45234 0.23073 0.0
H920 H 0.90755 0.40164 0.03234 0.0
H921 H 0.87951 0.4707 0.98619 0.0
H922 H 0.85321 0.37545 0.09498 0.0
H923 H 0.87079 0.38476 0.17611 0.0
H924 H 0.88485 0.37171 0.09209 0.0
H925 H 0.82063 0.45909 0.03696 0.0
H926 H 0.84198 0.48248 0.02667 0.0
H927 H 0.83516 0.4705 0.12177 0.0
C928 C 0.04367 0.18303 0.85314 0.0
C929 C 0.02444 0.1967 0.87882 0.0
C930 C 0.04071 0.15963 0.8271 0.0
C931 C 0.01795 0.14926 0.82692 0.0
C932 C 0.99836 0.16302 0.85123 0.0
C933 C 1.00182 0.18647 0.87677 0.0
C934 C 0.06211 0.14578 0.80136 0.0
C935 C 0.97376 0.15281 0.85164 0.0
C936 C 0.00775 0.09295 0.70692 0.0
C937 C 0.01001 0.0752 0.76391 0.0
C938 C 0.01043 0.11702 0.72628 0.0
C939 C 0.01489 0.12372 0.80491 0.0
C940 C 0.01693 0.10587 0.86274 0.0
C941 C 0.01464 0.08196 0.84156 0.0
C942 C 0.00832 0.13529 0.66253 0.0
C943 C 0.02161 0.11203 0.94728 0.0
H944 H 0.06132 0.19036 0.85557 0.0
H945 H 0.98674 0.19679 0.89537 0.0
H946 H 0.06488 0.13059 0.84133 0.0
H947 H 0.05926 0.13854 0.7418 0.0
H948 H 0.0784 0.1567 0.80086 0.0
H949 H 0.9603 0.16588 0.87046 0.0
H950 H 0.9691 0.1464 0.79231 0.0
H951 H 0.97304 0.13741 0.89173 0.0
H952 H 0.00417 0.08804 0.64677 0.0
H953 H 0.01628 0.06851 0.88641 0.0
H954 H 0.0233 0.14788 0.66489 0.0
H955 H 0.9919 0.14553 0.67171 0.0
H956 H 0.00777 0.12723 0.60333 0.0
H957 H 0.03862 0.12161 0.95232 0.0
H958 H 0.02232 0.09617 0.98551 0.0
H959 H 0.00759 0.12397 0.96931 0.0
C960 C 0.32088 0.00677 0.93262 0.0
C961 C 0.30457 0.0183 0.88341 0.0
C962 C 0.34469 1.00372 0.91059 0.0
C963 C 0.35281 0.01285 0.83819 0.0
C964 C 0.3365 0.02421 0.7878 0.0
C965 C 0.31267 0.02647 0.81032 0.0
C966 C 0.36132 0.99127 0.96598 0.0
C967 C 0.34441 0.03489 0.71119 0.0
C968 C 0.41832 0.02791 0.81619 0.0
C969 C 0.4267 0.00922 0.77007 0.0
C970 C 0.39441 0.02931 0.83852 0.0
C971 C 0.37845 0.01127 0.81599 0.0
C972 C 0.38694 0.99211 0.77056 0.0
C973 C 0.41082 0.99149 0.74728 0.0
C974 C 0.38621 0.05022 0.88589 0.0
C975 C 0.37095 0.97193 0.74818 0.0
H976 H 0.31532 1.00072 0.98985 0.0
H977 H 0.30046 0.035 0.77056 0.0
H978 H 0.37071 0.97685 0.93507 0.0
H979 H 0.37489 0.00384 0.9872 0.0
H980 H 0.35201 0.9837 0.01744 0.0
H981 H 0.32926 0.04025 0.67389 0.0
H982 H 0.3553 0.05076 0.72315 0.0
H983 H 0.35563 0.02233 0.67819 0.0
H984 H 0.43042 0.04172 0.83392 0.0
H985 H 0.41719 0.97679 0.71269 0.0
H986 H 0.37855 0.04414 0.94214 0.0
H987 H 0.3721 0.05977 0.85381 0.0
H988 H 0.40077 0.06279 0.89861 0.0
H989 H 0.36677 0.96139 0.80114 0.0
H990 H 0.37919 0.96008 0.70433 0.0
H991 H 0.354 0.97861 0.72455 0.0
C992 C 0.50911 0.31795 0.86443 0.0
C993 C 0.48626 0.30899 0.87681 0.0
C994 C 0.51275 0.34125 0.83759 0.0
C995 C 0.49313 0.35617 0.82287 0.0
C996 C 0.47006 0.34703 0.83299 0.0
C997 C 0.46692 0.32374 0.85997 0.0
C998 C 0.53764 0.35007 0.82596 0.0
C999 C 0.44861 0.36209 0.81709 0.0
C1000 C 0.49973 0.4231 0.83922 0.0
C1001 C 0.50112 0.43023 0.76058 0.0
C1002 C 0.49772 0.39913 0.85999 0.0
C1003 C 0.49665 0.38164 0.80083 0.0
C1004 C 0.4982 0.38873 0.72125 0.0
C1005 C 0.50061 0.41285 0.70214 0.0
C1006 C 0.4964 0.39253 0.94554 0.0
C1007 C 0.49634 0.37104 0.65575 0.0
H1008 H 0.52422 0.30676 0.87599 0.0
H1009 H 0.44916 0.31736 0.87031 0.0
H1010 H 0.53984 0.35677 0.76532 0.0
H1011 H 0.54112 0.36503 0.86618 0.0
H1012 H 0.55101 0.3361 0.83681 0.0
H1013 H 0.43187 0.35209 0.82392 0.0
H1014 H 0.44833 0.37731 0.85789 0.0
H1015 H 0.4494 0.36932 0.75677 0.0
H1016 H 0.50028 0.43632 0.88496 0.0
H1017 H 0.50148 0.41813 0.64119 0.0
H1018 H 0.51048 0.37963 0.96 0.0
H1019 H 0.47922 0.38392 0.95809 0.0
H1020 H 0.49832 0.40809 0.98454 0.0
H1021 H 0.50495 0.35416 0.6716 0.0
H1022 H 0.50429 0.37787 0.6008 0.0
H1023 H 0.47743 0.36728 0.64428 0.0
C1024 C 0.19096 0.51108 0.85443 0.0
C1025 C 0.20032 0.48843 0.86781 0.0
C1026 C 0.1677 0.51422 0.82648 0.0
C1027 C 0.15323 0.49431 0.81152 0.0
C1028 C 0.16278 0.47144 0.8224 0.0
C1029 C 0.186 0.46879 0.85067 0.0
C1030 C 0.15844 0.53891 0.81409 0.0
C1031 C 0.14825 0.44969 0.80564 0.0
C1032 C 0.08609 0.49961 0.82454 0.0
C1033 C 0.07928 0.50083 0.74557 0.0
C1034 C 0.11 0.49806 0.84644 0.0
C1035 C 0.12778 0.4973 0.78813 0.0
C1036 C 0.12101 0.49867 0.70819 0.0
C1037 C 0.09692 0.50063 0.68797 0.0
C1038 C 0.11622 0.49691 0.93231 0.0
C1039 C 0.1389 0.49705 0.6432 0.0
H1040 H 0.20179 0.52643 0.86605 0.0
H1041 H 0.19264 0.45117 0.86168 0.0
H1042 H 0.15106 0.54068 0.75419 0.0
H1043 H 0.14387 0.5424 0.8559 0.0
H1044 H 0.17233 0.55251 0.82242 0.0
H1045 H 0.1585 0.43316 0.81373 0.0
H1046 H 0.13268 0.44919 0.84499 0.0
H1047 H 0.14156 0.4503 0.74462 0.0
H1048 H 0.07265 0.49994 0.86967 0.0
H1049 H 0.09191 0.50136 0.62676 0.0
H1050 H 0.12882 0.51122 0.94719 0.0
H1051 H 0.12508 0.4799 0.94547 0.0
H1052 H 0.10046 0.49856 0.97055 0.0
H1053 H 0.15646 0.50365 0.6614 0.0
H1054 H 0.13293 0.50705 0.59088 0.0
H1055 H 0.14087 0.47829 0.62587 0.0
C1056 C 0.0165 0.82869 0.44426 0.0
C1057 C 1.00346 0.81041 0.47919 0.0
C1058 C 0.01539 0.85196 0.4727 0.0
C1059 C 1.00085 0.85724 0.53786 0.0
C1060 C 0.98723 0.83899 0.57234 0.0
C1061 C 0.98881 0.81581 0.54298 0.0
C1062 C 0.03043 0.87068 0.43437 0.0
C1063 C 0.9711 0.84391 0.64065 0.0
C1064 C 0.01524 0.91224 0.65823 0.0
C1065 C 0.99984 0.92903 0.62592 0.0
C1066 C 0.01569 0.88883 0.63048 0.0
C1067 C 1.00004 0.88184 0.56999 0.0
C1068 C 0.98407 0.89859 0.53852 0.0
C1069 C 0.98432 0.92196 0.56625 0.0
C1070 C 0.03331 0.87171 0.66473 0.0
C1071 C 0.96692 0.89191 0.47462 0.0
H1072 H 0.02825 0.82466 0.39602 0.0
H1073 H 0.97858 0.80185 0.57007 0.0
H1074 H 0.02024 0.88715 0.42488 0.0
H1075 H 0.04549 0.87501 0.47337 0.0
H1076 H 0.03753 0.86474 0.37716 0.0
H1077 H 0.96105 0.82802 0.65913 0.0
H1078 H 0.98157 0.85033 0.6912 0.0
H1079 H 0.95839 0.85806 0.62503 0.0
H1080 H 0.0274 0.91753 0.70396 0.0
H1081 H 0.97222 0.93472 0.54121 0.0
H1082 H 0.04547 0.86553 0.61818 0.0
H1083 H 0.02406 0.85595 0.68809 0.0
H1084 H 0.04393 0.8797 0.71252 0.0
H1085 H 0.97677 0.88666 0.42131 0.0
H1086 H 0.95481 0.90662 0.4592 0.0
H1087 H 0.95622 0.87648 0.49317 0.0
C1088 C 0.68739 0.98292 0.55677 0.0
C1089 C 0.69397 0.99881 0.49759 0.0
C1090 C 0.66412 0.9824 0.58593 0.0
C1091 C 0.64708 0.99841 0.55619 0.0
C1092 C 0.65373 0.01464 0.49698 0.0
C1093 C 0.67697 0.01452 0.46808 0.0
C1094 C 0.65773 0.96462 0.64826 0.0
C1095 C 0.63629 0.03219 0.46406 0.0
C1096 C 0.58134 0.98474 0.57089 0.0
C1097 C 0.57425 0.99882 0.63428 0.0
C1098 C 0.60502 0.98403 0.54628 0.0
C1099 C 0.62215 0.99789 0.58533 0.0
C1100 C 0.61521 0.01187 0.65016 0.0
C1101 C 0.5914 0.01209 0.67407 0.0
C1102 C 0.61162 0.96865 0.47757 0.0
C1103 C 0.63283 0.0271 0.69304 0.0
H1104 H 0.7004 0.97072 0.57973 0.0
H1105 H 0.682 0.02715 0.42336 0.0
H1106 H 0.65105 0.97381 0.70106 0.0
H1107 H 0.64333 0.95302 0.62687 0.0
H1108 H 0.67298 0.95342 0.66539 0.0
H1109 H 0.64475 0.04505 0.42375 0.0
H1110 H 0.62224 0.02271 0.43161 0.0
H1111 H 0.62763 0.04209 0.51212 0.0
H1112 H 0.56833 0.97429 0.53993 0.0
H1113 H 0.58616 0.02305 0.72299 0.0
H1114 H 0.6262 0.95656 0.49408 0.0
H1115 H 0.61807 0.97982 0.42867 0.0
H1116 H 0.59651 0.95795 0.45621 0.0
H1117 H 0.6479 0.01624 0.71363 0.0
H1118 H 0.62488 0.03619 0.74421 0.0
H1119 H 0.64005 0.04062 0.65255 0.0
C1120 C 0.49198 0.68035 0.46004 0.0
C1121 C 0.50359 0.6987 0.49957 0.0
C1122 C 0.49303 0.65693 0.48727 0.0
C1123 C 0.50629 0.65151 0.55531 0.0
C1124 C 0.51842 0.66989 0.59473 0.0
C1125 C 0.51675 0.69326 0.56685 0.0
C1126 C 0.47954 0.63803 0.44391 0.0
C1127 C 0.53311 0.66487 0.66654 0.0
C1128 C 0.49127 0.59458 0.66482 0.0
C1129 C 0.50785 0.5787 0.63414 0.0
C1130 C 0.49071 0.61834 0.64046 0.0
C1131 C 0.50739 0.62662 0.58493 0.0
C1132 C 0.52459 0.61081 0.55548 0.0
C1133 C 0.52448 0.58707 0.57982 0.0
C1134 C 0.47183 0.63444 0.67261 0.0
C1135 C 0.54297 0.61891 0.49738 0.0
H1136 H 0.48141 0.68443 0.40888 0.0
H1137 H 0.52582 0.70732 0.59758 0.0
H1138 H 0.49179 0.62401 0.42398 0.0
H1139 H 0.46654 0.62962 0.48374 0.0
H1140 H 0.46999 0.64512 0.39215 0.0
H1141 H 0.54205 0.68094 0.6891 0.0
H1142 H 0.52178 0.65752 0.71357 0.0
H1143 H 0.54671 0.6514 0.65292 0.0
H1144 H 0.47825 0.58831 0.70626 0.0
H1145 H 0.53749 0.57503 0.55613 0.0
H1146 H 0.46039 0.64074 0.62417 0.0
H1147 H 0.47999 0.65022 0.69977 0.0
H1148 H 0.46058 0.62551 0.71696 0.0
H1149 H 0.53428 0.62447 0.44218 0.0
H1150 H 0.55599 0.60485 0.48365 0.0
H1151 H 0.55258 0.63446 0.52063 0.0
C1152 C 0.81902 0.5248 0.52452 0.0
C1153 C 0.80863 0.50295 0.50801 0.0
C1154 C 0.84289 0.52628 0.54764 0.0
C1155 C 0.85672 0.50544 0.5531 0.0
C1156 C 0.84621 0.48338 0.53534 0.0
C1157 C 0.82228 0.48241 0.51368 0.0
C1158 C 0.85329 0.55011 0.56662 0.0
C1159 C 0.86028 0.46077 0.53881 0.0
C1160 C 0.92385 0.50996 0.53997 0.0
C1161 C 0.93081 0.507 0.61831 0.0
C1162 C 0.89989 0.50966 0.51816 0.0
C1163 C 0.88226 0.50663 0.57608 0.0
C1164 C 0.88912 0.50395 0.65545 0.0
C1165 C 0.91327 0.50401 0.67552 0.0
C1166 C 0.89348 0.51216 0.43276 0.0
C1167 C 0.87094 0.50087 0.71921 0.0
H1168 H 0.80839 0.54066 0.52031 0.0
H1169 H 0.81419 0.46552 0.50056 0.0
H1170 H 0.8603 0.55007 0.62728 0.0
H1171 H 0.86832 0.5539 0.52696 0.0
H1172 H 0.84014 0.56456 0.56099 0.0
H1173 H 0.84958 0.44511 0.52232 0.0
H1174 H 0.87565 0.46194 0.49879 0.0
H1175 H 0.86728 0.45806 0.59879 0.0
H1176 H 0.93719 0.51213 0.49508 0.0
H1177 H 0.91839 0.50178 0.73621 0.0
H1178 H 0.88146 0.52741 0.42444 0.0
H1179 H 0.88389 0.49618 0.41281 0.0
H1180 H 0.90923 0.51467 0.39495 0.0
H1181 H 0.87905 0.49986 0.77833 0.0
H1182 H 0.86066 0.4845 0.70893 0.0
H1183 H 0.85829 0.51582 0.71809 0.0
loop_
_geom_bond_atom_site_label_1
_geom_bond_atom_site_label_2
_geom_bond_distance
_geom_bond_site_symmetry_2
_ccdc_geom_bond_type
P0 O11 1.490 . S
P0 C14 1.812 . S
P0 C20 1.803 . S
P0 C26 1.819 . S
H1 C15 0.941 . S
H2 C16 0.939 . S
H3 C18 0.940 . S
H4 C19 0.940 . S
H5 C21 0.939 . S
H6 C22 0.942 . S
H7 C24 0.940 . S
H8 C25 0.939 . S
H9 C27 0.941 . S
H10 C31 0.939 . S
O11 P0 1.490 . S
H12 C28 0.939 . S
H13 C30 0.940 . S
C14 P0 1.812 . S
C14 C15 1.389 . S
C14 C19 1.391 . S
C15 H1 0.941 . S
C15 C14 1.389 . S
C15 C16 1.397 . S
C16 H2 0.939 . S
C16 C15 1.397 . S
C16 C17 1.378 . S
C17 C16 1.378 . S
C17 C18 1.378 . S
C18 H3 0.940 . S
C18 C17 1.378 . S
C18 C19 1.396 . S
C19 H4 0.940 . S
C19 C14 1.391 . S
C19 C18 1.396 . S
C20 P0 1.803 . S
C20 C21 1.378 . S
C20 C25 1.400 . S
C21 H5 0.939 . S
C21 C20 1.378 . S
C21 C22 1.361 . S
C22 H6 0.942 . S
C22 C21 1.361 . S
C22 C23 1.369 . S
C23 C22 1.369 . S
C23 C24 1.404 . S
C24 H7 0.940 . S
C24 C23 1.404 . S
C24 C25 1.389 . S
C25 H8 0.939 . S
C25 C20 1.400 . S
C25 C24 1.389 . S
C26 P0 1.819 . S
C26 C27 1.391 . S
C26 C31 1.391 . S
C27 H9 0.941 . S
C27 C26 1.391 . S
C27 C28 1.396 . S
C28 H12 0.939 . S
C28 C27 1.396 . S
C28 C29 1.397 . S
C29 C28 1.397 . S
C29 C30 1.385 . S
C30 H13 0.940 . S
C30 C29 1.385 . S
C30 C31 1.388 . S
C31 H10 0.939 . S
C31 C26 1.391 . S
C31 C30 1.388 . S
P32 O43 1.490 . S
P32 C46 1.812 . S
P32 C52 1.803 . S
P32 C58 1.819 . S
H33 C47 0.941 . S
H34 C48 0.939 . S
H35 C50 0.940 . S
H36 C51 0.950 . S
H37 C53 0.939 . S
H38 C54 0.942 . S
H39 C56 0.940 . S
H40 C57 0.959 . S
H41 C59 0.941 . S
H42 C63 0.929 1_655 S
O43 P32 1.490 . S
H44 C60 0.939 . S
H45 C62 0.940 . S
C46 P32 1.812 . S
C46 C47 1.389 . S
C46 C51 1.375 1_455 S
C47 H33 0.941 . S
C47 C46 1.389 . S
C47 C48 1.397 . S
C48 H34 0.939 . S
C48 C47 1.397 . S
C48 C49 1.378 . S
C49 C48 1.378 . S
C49 C50 1.378 1_455 S
C50 H35 0.940 . S
C50 C49 1.378 1_655 S
C50 C51 1.403 . S
C51 H36 0.950 . S
C51 C46 1.375 1_655 S
C51 C50 1.403 . S
C52 P32 1.803 . S
C52 C53 1.378 . S
C52 C57 1.368 1_455 S
C53 H37 0.939 . S
C53 C52 1.378 . S
C53 C54 1.361 . S
C54 H38 0.942 . S
C54 C53 1.361 . S
C54 C55 1.369 . S
C55 C54 1.369 . S
C55 C56 1.404 1_455 S
C56 H39 0.940 . S
C56 C55 1.404 1_655 S
C56 C57 1.402 . S
C57 H40 0.959 . S
C57 C52 1.368 1_655 S
C57 C56 1.402 . S
C58 P32 1.819 . S
C58 C59 1.391 . S
C58 C63 1.391 . S
C59 H41 0.941 . S
C59 C58 1.391 . S
C59 C60 1.396 . S
C60 H44 0.939 . S
C60 C59 1.396 . S
C60 C61 1.397 . S
C61 C60 1.397 . S
C61 C62 1.385 1_455 S
C62 H45 0.940 . S
C62 C61 1.385 1_655 S
C62 C63 1.388 1_655 S
C63 H42 0.929 1_455 S
C63 C58 1.391 . S
C63 C62 1.388 1_455 S
P64 O75 1.490 . S
P64 C78 1.812 . S
P64 C84 1.803 . S
P64 C90 1.819 . S
H65 C79 0.941 . S
H66 C80 0.939 . S
H67 C82 0.940 . S
H68 C83 0.950 . S
H69 C85 0.939 . S
H70 C86 0.942 . S
H71 C88 0.940 . S
H72 C89 0.959 . S
H73 C91 0.941 . S
H74 C95 0.929 1_565 S
O75 P64 1.490 . S
H76 C92 0.939 . S
H77 C94 0.940 . S
C78 P64 1.812 . S
C78 C79 1.389 . S
C78 C83 1.375 1_545 S
C79 H65 0.941 . S
C79 C78 1.389 . S
C79 C80 1.397 . S
C80 H66 0.939 . S
C80 C79 1.397 . S
C80 C81 1.378 . S
C81 C80 1.378 . S
C81 C82 1.378 1_545 S
C82 H67 0.940 . S
C82 C81 1.378 1_565 S
C82 C83 1.403 . S
C83 H68 0.950 . S
C83 C78 1.375 1_565 S
C83 C82 1.403 . S
C84 P64 1.803 . S
C84 C85 1.378 . S
C84 C89 1.368 1_545 S
C85 H69 0.939 . S
C85 C84 1.378 . S
C85 C86 1.361 . S
C86 H70 0.942 . S
C86 C85 1.361 . S
C86 C87 1.369 . S
C87 C86 1.369 . S
C87 C88 1.404 1_545 S
C88 H71 0.940 . S
C88 C87 1.404 1_565 S
C88 C89 1.402 . S
C89 H72 0.959 . S
C89 C84 1.368 1_565 S
C89 C88 1.402 . S
C90 P64 1.819 . S
C90 C91 1.391 . S
C90 C95 1.391 . S
C91 H73 0.941 . S
C91 C90 1.391 . S
C91 C92 1.396 . S
C92 H76 0.939 . S
C92 C91 1.396 . S
C92 C93 1.397 . S
C93 C92 1.397 . S
C93 C94 1.385 1_545 S
C94 H77 0.940 . S
C94 C93 1.385 1_565 S
C94 C95 1.388 1_565 S
C95 H74 0.929 1_545 S
C95 C90 1.391 . S
C95 C94 1.388 1_545 S
P96 O107 1.490 . S
P96 C110 1.812 . S
P96 C116 1.803 . S
P96 C122 1.819 . S
H97 C111 0.941 . S
H98 C112 0.939 . S
H99 C114 0.940 . S
H100 C115 0.940 . S
H101 C117 0.939 . S
H102 C118 0.942 . S
H103 C120 0.940 . S
H104 C121 0.939 . S
H105 C123 0.941 . S
H106 C127 0.939 . S
O107 P96 1.490 . S
H108 C124 0.939 . S
H109 C126 0.940 . S
C110 P96 1.812 . S
C110 C111 1.389 . S
C110 C115 1.391 . S
C111 H97 0.941 . S
C111 C110 1.389 . S
C111 C112 1.397 . S
C112 H98 0.939 . S
C112 C111 1.397 . S
C112 C113 1.378 . S
C113 C112 1.378 . S
C113 C114 1.378 . S
C114 H99 0.940 . S
C114 C113 1.378 . S
C114 C115 1.396 . S
C115 H100 0.940 . S
C115 C110 1.391 . S
C115 C114 1.396 . S
C116 P96 1.803 . S
C116 C117 1.378 . S
C116 C121 1.400 . S
C117 H101 0.939 . S
C117 C116 1.378 . S
C117 C118 1.361 . S
C118 H102 0.942 . S
C118 C117 1.361 . S
C118 C119 1.369 . S
C119 C118 1.369 . S
C119 C120 1.404 . S
C120 H103 0.940 . S
C120 C119 1.404 . S
C120 C121 1.389 . S
C121 H104 0.939 . S
C121 C116 1.400 . S
C121 C120 1.389 . S
C122 P96 1.819 . S
C122 C123 1.391 . S
C122 C127 1.391 . S
C123 H105 0.941 . S
C123 C122 1.391 . S
C123 C124 1.396 . S
C124 H108 0.939 . S
C124 C123 1.396 . S
C124 C125 1.397 . S
C125 C124 1.397 . S
C125 C126 1.385 . S
C126 H109 0.940 . S
C126 C125 1.385 . S
C126 C127 1.388 . S
C127 H106 0.939 . S
C127 C122 1.391 . S
C127 C126 1.388 . S
P128 O139 1.490 . S
P128 C142 1.812 1_554 S
P128 C148 1.803 . S
P128 C154 1.819 . S
H129 C143 0.941 . S
H130 C144 0.939 . S
H131 C146 0.940 . S
H132 C147 0.940 . S
H133 C149 0.939 . S
H134 C150 0.942 . S
H135 C152 0.940 . S
H136 C153 0.939 . S
H137 C155 0.941 . S
H138 C159 0.939 . S
O139 P128 1.490 . S
H140 C156 0.939 . S
H141 C158 0.940 . S
C142 P128 1.812 1_556 S
C142 C143 1.389 . S
C142 C147 1.391 . S
C143 H129 0.941 . S
C143 C142 1.389 . S
C143 C144 1.397 . S
C144 H130 0.939 . S
C144 C143 1.397 . S
C144 C145 1.378 . S
C145 C144 1.378 . S
C145 C146 1.378 . S
C146 H131 0.940 . S
C146 C145 1.378 . S
C146 C147 1.396 . S
C147 H132 0.940 . S
C147 C142 1.391 . S
C147 C146 1.396 . S
C148 P128 1.803 . S
C148 C149 1.378 . S
C148 C153 1.400 . S
C149 H133 0.939 . S
C149 C148 1.378 . S
C149 C150 1.361 . S
C150 H134 0.942 . S
C150 C149 1.361 . S
C150 C151 1.369 . S
C151 C150 1.369 . S
C151 C152 1.404 . S
C152 H135 0.940 . S
C152 C151 1.404 . S
C152 C153 1.389 . S
C153 H136 0.939 . S
C153 C148 1.400 . S
C153 C152 1.389 . S
C154 P128 1.819 . S
C154 C155 1.391 . S
C154 C159 1.391 . S
C155 H137 0.941 . S
C155 C154 1.391 . S
C155 C156 1.396 . S
C156 H140 0.939 . S
C156 C155 1.396 . S
C156 C157 1.397 . S
C157 C156 1.397 . S
C157 C158 1.385 . S
C158 H141 0.940 . S
C158 C157 1.385 . S
C158 C159 1.388 . S
C159 H138 0.939 . S
C159 C154 1.391 . S
C159 C158 1.388 . S
P160 O171 1.490 . S
P160 C174 1.812 1_554 S
P160 C180 1.803 . S
P160 C186 1.819 . S
H161 C175 0.941 . S
H162 C176 0.939 . S
H163 C178 0.940 . S
H164 C179 0.944 . S
H165 C181 0.939 . S
H166 C182 0.942 . S
H167 C184 0.940 . S
H168 C185 0.952 . S
H169 C187 0.941 . S
H170 C191 0.933 1_655 S
O171 P160 1.490 . S
H172 C188 0.939 . S
H173 C190 0.940 . S
C174 P160 1.812 1_556 S
C174 C175 1.389 . S
C174 C179 1.385 1_455 S
C175 H161 0.941 . S
C175 C174 1.389 . S
C175 C176 1.397 . S
C176 H162 0.939 . S
C176 C175 1.397 . S
C176 C177 1.378 . S
C177 C176 1.378 . S
C177 C178 1.378 1_455 S
C178 H163 0.940 . S
C178 C177 1.378 1_655 S
C178 C179 1.399 . S
C179 H164 0.944 . S
C179 C174 1.385 1_655 S
C179 C178 1.399 . S
C180 P160 1.803 . S
C180 C181 1.378 . S
C180 C185 1.379 1_455 S
C181 H165 0.939 . S
C181 C180 1.378 . S
C181 C182 1.361 . S
C182 H166 0.942 . S
C182 C181 1.361 . S
C182 C183 1.369 . S
C183 C182 1.369 . S
C183 C184 1.404 1_455 S
C184 H167 0.940 . S
C184 C183 1.404 1_655 S
C184 C185 1.398 . S
C185 H168 0.952 . S
C185 C180 1.379 1_655 S
C185 C184 1.398 . S
C186 P160 1.819 . S
C186 C187 1.391 . S
C186 C191 1.391 . S
C187 H169 0.941 . S
C187 C186 1.391 . S
C187 C188 1.396 . S
C188 H172 0.939 . S
C188 C187 1.396 . S
C188 C189 1.397 . S
C189 C188 1.397 . S
C189 C190 1.385 1_455 S
C190 H173 0.940 . S
C190 C189 1.385 1_655 S
C190 C191 1.388 1_655 S
C191 H170 0.933 1_455 S
C191 C186 1.391 . S
C191 C190 1.388 1_455 S
P192 O203 1.490 . S
P192 C206 1.812 1_554 S
P192 C212 1.803 . S
P192 C218 1.819 . S
H193 C207 0.941 . S
H194 C208 0.939 . S
H195 C210 0.940 . S
H196 C211 0.944 . S
H197 C213 0.939 . S
H198 C214 0.942 . S
H199 C216 0.940 . S
H200 C217 0.952 . S
H201 C219 0.941 . S
H202 C223 0.933 1_565 S
O203 P192 1.490 . S
H204 C220 0.939 . S
H205 C222 0.940 . S
C206 P192 1.812 1_556 S
C206 C207 1.389 . S
C206 C211 1.385 1_545 S
C207 H193 0.941 . S
C207 C206 1.389 . S
C207 C208 1.397 . S
C208 H194 0.939 . S
C208 C207 1.397 . S
C208 C209 1.378 . S
C209 C208 1.378 . S
C209 C210 1.378 1_545 S
C210 H195 0.940 . S
C210 C209 1.378 1_565 S
C210 C211 1.399 . S
C211 H196 0.944 . S
C211 C206 1.385 1_565 S
C211 C210 1.399 . S
C212 P192 1.803 . S
C212 C213 1.378 . S
C212 C217 1.379 1_545 S
C213 H197 0.939 . S
C213 C212 1.378 . S
C213 C214 1.361 . S
C214 H198 0.942 . S
C214 C213 1.361 . S
C214 C215 1.369 . S
C215 C214 1.369 . S
C215 C216 1.404 1_545 S
C216 H199 0.940 . S
C216 C215 1.404 1_565 S
C216 C217 1.398 . S
C217 H200 0.952 . S
C217 C212 1.379 1_565 S
C217 C216 1.398 . S
C218 P192 1.819 . S
C218 C219 1.391 . S
C218 C223 1.391 . S
C219 H201 0.941 . S
C219 C218 1.391 . S
C219 C220 1.396 . S
C220 H204 0.939 . S
C220 C219 1.396 . S
C220 C221 1.397 . S
C221 C220 1.397 . S
C221 C222 1.385 1_545 S
C222 H205 0.940 . S
C222 C221 1.385 1_565 S
C222 C223 1.388 1_565 S
C223 H202 0.933 1_545 S
C223 C218 1.391 . S
C223 C222 1.388 1_545 S
P224 O235 1.490 . S
P224 C238 1.812 1_554 S
P224 C244 1.803 . S
P224 C250 1.819 . S
H225 C239 0.941 . S
H226 C240 0.939 . S
H227 C242 0.940 . S
H228 C243 0.940 . S
H229 C245 0.939 . S
H230 C246 0.942 . S
H231 C248 0.940 . S
H232 C249 0.939 . S
H233 C251 0.941 . S
H234 C255 0.939 . S
O235 P224 1.490 . S
H236 C252 0.939 . S
H237 C254 0.940 . S
C238 P224 1.812 1_556 S
C238 C239 1.389 . S
C238 C243 1.391 . S
C239 H225 0.941 . S
C239 C238 1.389 . S
C239 C240 1.397 . S
C240 H226 0.939 . S
C240 C239 1.397 . S
C240 C241 1.378 . S
C241 C240 1.378 . S
C241 C242 1.378 . S
C242 H227 0.940 . S
C242 C241 1.378 . S
C242 C243 1.396 . S
C243 H228 0.940 . S
C243 C238 1.391 . S
C243 C242 1.396 . S
C244 P224 1.803 . S
C244 C245 1.378 . S
C244 C249 1.400 . S
C245 H229 0.939 . S
C245 C244 1.378 . S
C245 C246 1.361 . S
C246 H230 0.942 . S
C246 C245 1.361 . S
C246 C247 1.369 . S
C247 C246 1.369 . S
C247 C248 1.404 . S
C248 H231 0.940 . S
C248 C247 1.404 . S
C248 C249 1.389 . S
C249 H232 0.939 . S
C249 C244 1.400 . S
C249 C248 1.389 . S
C250 P224 1.819 . S
C250 C251 1.391 . S
C250 C255 1.391 . S
C251 H233 0.941 . S
C251 C250 1.391 . S
C251 C252 1.396 . S
C252 H236 0.939 . S
C252 C251 1.396 . S
C252 C253 1.397 . S
C253 C252 1.397 . S
C253 C254 1.385 . S
C254 H237 0.940 . S
C254 C253 1.385 . S
C254 C255 1.388 . S
C255 H234 0.939 . S
C255 C250 1.391 . S
C255 C254 1.388 . S
Ho256 C259 2.811 . S
Ho256 O276 2.322 . S
Ho256 O278 2.378 . S
Ho256 O279 2.524 . S
Ho256 O280 2.381 . S
Ho256 O281 2.669 1_565 S
Ho256 O283 2.346 1_565 S
Ho256 O287 2.305 1_455 S
Ho257 C268 2.811 . S
Ho257 O277 2.346 1_545 S
Ho257 O281 2.305 1_655 S
Ho257 O282 2.322 . S
Ho257 O284 2.378 . S
Ho257 O285 2.524 . S
Ho257 O286 2.381 . S
Ho257 O287 2.669 1_545 S
C258 O276 1.259 1_655 S
C258 O277 1.268 . S
C259 Ho256 2.811 . S
C259 C260 1.488 . S
C259 O278 1.215 . S
C259 O279 1.289 . S
C260 C259 1.488 . S
C260 C261 1.348 . S
C260 C265 1.413 . S
C261 C260 1.348 . S
C261 C262 1.442 . S
C261 H288 0.930 1_455 S
C262 C261 1.442 . S
C262 C263 1.381 . S
C262 H289 0.931 1_455 S
C263 C262 1.381 . S
C263 C264 1.321 . S
C264 C263 1.321 . S
C264 C265 1.403 . S
C264 H290 0.934 . S
C265 C260 1.413 . S
C265 C264 1.403 . S
C265 H291 0.930 . S
C266 O280 1.298 . S
C266 O281 1.244 1_565 S
C267 O282 1.259 1_455 S
C267 O283 1.268 . S
C268 Ho257 2.811 . S
C268 C269 1.488 . S
C268 O284 1.215 . S
C268 O285 1.289 . S
C269 C268 1.488 . S
C269 C270 1.348 . S
C269 C274 1.413 . S
C270 C269 1.348 . S
C270 C271 1.442 . S
C270 H292 0.930 1_655 S
C271 C270 1.442 . S
C271 C272 1.381 . S
C271 H293 0.931 1_655 S
C272 C271 1.381 . S
C272 C273 1.321 . S
C273 C272 1.321 . S
C273 C274 1.403 . S
C273 H294 0.934 . S
C274 C269 1.413 . S
C274 C273 1.403 . S
C274 H295 0.930 . S
C275 O286 1.275 . S
C275 O287 1.256 1_545 S
O276 Ho256 2.322 . S
O276 C258 1.259 1_455 S
O277 Ho257 2.346 1_565 S
O277 C258 1.268 . S
O278 Ho256 2.378 . S
O278 C259 1.215 . S
O279 Ho256 2.524 . S
O279 C259 1.289 . S
O280 Ho256 2.381 . S
O280 C266 1.298 . S
O281 Ho256 2.669 1_545 S
O281 Ho257 2.305 1_455 S
O281 C266 1.244 1_545 S
O282 Ho257 2.322 . S
O282 C267 1.259 1_655 S
O283 Ho256 2.346 1_545 S
O283 C267 1.268 . S
O284 Ho257 2.378 . S
O284 C268 1.215 . S
O285 Ho257 2.524 . S
O285 C268 1.289 . S
O286 Ho257 2.381 . S
O286 C275 1.275 . S
O287 Ho256 2.305 1_655 S
O287 Ho257 2.669 1_565 S
O287 C275 1.256 1_565 S
H288 C261 0.930 1_655 S
H289 C262 0.931 1_655 S
H290 C264 0.934 . S
H291 C265 0.930 . S
H292 C270 0.930 1_455 S
H293 C271 0.931 1_455 S
H294 C273 0.934 . S
H295 C274 0.930 . S
Ho296 C299 2.811 . S
Ho296 O316 2.322 . S
Ho296 O318 2.378 . S
Ho296 O319 2.524 . S
Ho296 O320 2.381 . S
Ho296 O321 2.669 . S
Ho296 O323 2.346 . S
Ho296 O327 2.305 1_545 S
Ho297 C308 2.811 . S
Ho297 O317 2.346 . S
Ho297 O321 2.305 1_565 S
Ho297 O322 2.322 . S
Ho297 O324 2.378 . S
Ho297 O325 2.524 . S
Ho297 O326 2.381 . S
Ho297 O327 2.669 . S
C298 O316 1.259 1_565 S
C298 O317 1.268 . S
C299 Ho296 2.811 . S
C299 C300 1.488 . S
C299 O318 1.215 . S
C299 O319 1.289 . S
C300 C299 1.488 . S
C300 C301 1.348 . S
C300 C305 1.413 . S
C301 C300 1.348 . S
C301 C302 1.442 . S
C301 H328 0.930 1_545 S
C302 C301 1.442 . S
C302 C303 1.381 . S
C302 H329 0.931 1_545 S
C303 C302 1.381 . S
C303 C304 1.321 . S
C304 C303 1.321 . S
C304 C305 1.403 . S
C304 H330 0.934 . S
C305 C300 1.413 . S
C305 C304 1.403 . S
C305 H331 0.930 . S
C306 O320 1.275 . S
C306 O321 1.256 . S
C307 O322 1.259 1_545 S
C307 O323 1.268 . S
C308 Ho297 2.811 . S
C308 C309 1.488 . S
C308 O324 1.215 . S
C308 O325 1.289 . S
C309 C308 1.488 . S
C309 C310 1.348 . S
C309 C314 1.413 . S
C310 C309 1.348 . S
C310 C311 1.442 . S
C310 H332 0.930 1_565 S
C311 C310 1.442 . S
C311 C312 1.381 . S
C311 H333 0.931 1_565 S
C312 C311 1.381 . S
C312 C313 1.321 . S
C313 C312 1.321 . S
C313 C314 1.403 . S
C313 H334 0.934 . S
C314 C309 1.413 . S
C314 C313 1.403 . S
C314 H335 0.930 . S
C315 O326 1.275 . S
C315 O327 1.256 . S
O316 Ho296 2.322 . S
O316 C298 1.259 1_545 S
O317 Ho297 2.346 . S
O317 C298 1.268 . S
O318 Ho296 2.378 . S
O318 C299 1.215 . S
O319 Ho296 2.524 . S
O319 C299 1.289 . S
O320 Ho296 2.381 . S
O320 C306 1.275 . S
O321 Ho296 2.669 . S
O321 Ho297 2.305 1_545 S
O321 C306 1.256 . S
O322 Ho297 2.322 . S
O322 C307 1.259 1_565 S
O323 Ho296 2.346 . S
O323 C307 1.268 . S
O324 Ho297 2.378 . S
O324 C308 1.215 . S
O325 Ho297 2.524 . S
O325 C308 1.289 . S
O326 Ho297 2.381 . S
O326 C315 1.275 . S
O327 Ho296 2.305 1_565 S
O327 Ho297 2.669 . S
O327 C315 1.256 . S
H328 C301 0.930 1_565 S
H329 C302 0.931 1_565 S
H330 C304 0.934 . S
H331 C305 0.930 . S
H332 C310 0.930 1_545 S
H333 C311 0.931 1_545 S
H334 C313 0.934 . S
H335 C314 0.930 . S
Ho336 C339 2.811 . S
Ho336 O356 2.322 . S
Ho336 O358 2.378 . S
Ho336 O359 2.524 . S
Ho336 O360 2.381 . S
Ho336 O361 2.669 . S
Ho336 O363 2.346 . S
Ho336 O367 2.305 . S
Ho337 C348 2.811 . S
Ho337 O357 2.346 . S
Ho337 O361 2.305 . S
Ho337 O362 2.322 . S
Ho337 O364 2.378 . S
Ho337 O365 2.524 . S
Ho337 O366 2.381 . S
Ho337 O367 2.669 . S
C338 O356 1.259 . S
C338 O357 1.268 . S
C339 Ho336 2.811 . S
C339 C340 1.488 . S
C339 O358 1.215 . S
C339 O359 1.289 . S
C340 C339 1.488 . S
C340 C341 1.348 . S
C340 C345 1.413 . S
C341 C340 1.348 . S
C341 C342 1.442 . S
C341 H368 0.930 . S
C342 C341 1.442 . S
C342 C343 1.381 . S
C342 H369 0.931 . S
C343 C342 1.381 . S
C343 C344 1.321 . S
C344 C343 1.321 . S
C344 C345 1.403 . S
C344 H370 0.934 . S
C345 C340 1.413 . S
C345 C344 1.403 . S
C345 H371 0.930 . S
C346 O360 1.275 . S
C346 O361 1.256 . S
C347 O362 1.259 . S
C347 O363 1.268 . S
C348 Ho337 2.811 . S
C348 C349 1.488 . S
C348 O364 1.215 . S
C348 O365 1.289 . S
C349 C348 1.488 . S
C349 C350 1.348 . S
C349 C354 1.413 . S
C350 C349 1.348 . S
C350 C351 1.442 . S
C350 H372 0.930 . S
C351 C350 1.442 . S
C351 C352 1.381 . S
C351 H373 0.931 . S
C352 C351 1.381 . S
C352 C353 1.321 . S
C353 C352 1.321 . S
C353 C354 1.403 . S
C353 H374 0.934 . S
C354 C349 1.413 . S
C354 C353 1.403 . S
C354 H375 0.930 . S
C355 O366 1.275 . S
C355 O367 1.256 . S
O356 Ho336 2.322 . S
O356 C338 1.259 . S
O357 Ho337 2.346 . S
O357 C338 1.268 . S
O358 Ho336 2.378 . S
O358 C339 1.215 . S
O359 Ho336 2.524 . S
O359 C339 1.289 . S
O360 Ho336 2.381 . S
O360 C346 1.275 . S
O361 Ho336 2.669 . S
O361 Ho337 2.305 . S
O361 C346 1.256 . S
O362 Ho337 2.322 . S
O362 C347 1.259 . S
O363 Ho336 2.346 . S
O363 C347 1.268 . S
O364 Ho337 2.378 . S
O364 C348 1.215 . S
O365 Ho337 2.524 . S
O365 C348 1.289 . S
O366 Ho337 2.381 . S
O366 C355 1.275 . S
O367 Ho336 2.305 . S
O367 Ho337 2.669 . S
O367 C355 1.256 . S
H368 C341 0.930 . S
H369 C342 0.931 . S
H370 C344 0.934 . S
H371 C345 0.930 . S
H372 C350 0.930 . S
H373 C351 0.931 . S
H374 C353 0.934 . S
H375 C354 0.930 . S
Ho376 C379 2.811 . S
Ho376 O396 2.322 . S
Ho376 O398 2.378 . S
Ho376 O399 2.524 . S
Ho376 O400 2.381 . S
Ho376 O401 2.669 1_655 S
Ho376 O403 2.346 1_655 S
Ho376 O407 2.305 . S
Ho377 C388 2.811 . S
Ho377 O397 2.346 1_455 S
Ho377 O401 2.305 . S
Ho377 O402 2.322 . S
Ho377 O404 2.378 . S
Ho377 O405 2.524 . S
Ho377 O406 2.381 . S
Ho377 O407 2.669 1_455 S
C378 O396 1.259 . S
C378 O397 1.268 . S
C379 Ho376 2.811 . S
C379 C380 1.488 . S
C379 O398 1.215 . S
C379 O399 1.289 . S
C380 C379 1.488 . S
C380 C381 1.348 . S
C380 C385 1.413 . S
C381 C380 1.348 . S
C381 C382 1.442 . S
C381 H408 0.930 . S
C382 C381 1.442 . S
C382 C383 1.381 . S
C382 H409 0.931 . S
C383 C382 1.381 . S
C383 C384 1.321 . S
C384 C383 1.321 . S
C384 C385 1.403 . S
C384 H410 0.934 . S
C385 C380 1.413 . S
C385 C384 1.403 . S
C385 H411 0.930 . S
C386 O400 1.290 . S
C386 O401 1.247 1_655 S
C387 O402 1.259 . S
C387 O403 1.268 . S
C388 Ho377 2.811 . S
C388 C389 1.488 . S
C388 O404 1.215 . S
C388 O405 1.289 . S
C389 C388 1.488 . S
C389 C390 1.348 . S
C389 C394 1.413 . S
C390 C389 1.348 . S
C390 C391 1.442 . S
C390 H412 0.930 . S
C391 C390 1.442 . S
C391 C392 1.381 . S
C391 H413 0.931 . S
C392 C391 1.381 . S
C392 C393 1.321 . S
C393 C392 1.321 . S
C393 C394 1.403 . S
C393 H414 0.934 . S
C394 C389 1.413 . S
C394 C393 1.403 . S
C394 H415 0.930 . S
C395 O406 1.296 . S
C395 O407 1.245 1_455 S
O396 Ho376 2.322 . S
O396 C378 1.259 . S
O397 Ho377 2.346 1_655 S
O397 C378 1.268 . S
O398 Ho376 2.378 . S
O398 C379 1.215 . S
O399 Ho376 2.524 . S
O399 C379 1.289 . S
O400 Ho376 2.381 . S
O400 C386 1.290 . S
O401 Ho376 2.669 1_455 S
O401 Ho377 2.305 . S
O401 C386 1.247 1_455 S
O402 Ho377 2.322 . S
O402 C387 1.259 . S
O403 Ho376 2.346 1_455 S
O403 C387 1.268 . S
O404 Ho377 2.378 . S
O404 C388 1.215 . S
O405 Ho377 2.524 . S
O405 C388 1.289 . S
O406 Ho377 2.381 . S
O406 C395 1.296 . S
O407 Ho376 2.305 . S
O407 Ho377 2.669 1_655 S
O407 C395 1.245 1_655 S
H408 C381 0.930 . S
H409 C382 0.931 . S
H410 C384 0.934 . S
H411 C385 0.930 . S
H412 C390 0.930 . S
H413 C391 0.931 . S
H414 C393 0.934 . S
H415 C394 0.930 . S
C416 C417 1.391 . S
C416 C418 1.394 . S
C416 H432 0.931 . S
C417 C416 1.391 . S
C417 C421 1.376 1_545 S
C418 C416 1.394 . S
C418 C419 1.369 . S
C418 C422 1.531 . S
C419 C418 1.369 . S
C419 C420 1.410 1_545 S
C419 C427 1.503 . S
C420 C419 1.410 1_565 S
C420 C421 1.392 . S
C420 C423 1.511 . S
C421 C417 1.376 1_565 S
C421 C420 1.392 . S
C421 H433 0.929 . S
C422 C418 1.531 . S
C422 H434 0.960 . S
C422 H435 0.962 . S
C422 H436 0.960 . S
C423 C420 1.511 . S
C423 H437 0.961 . S
C423 H438 0.961 . S
C423 H439 0.961 . S
C424 C425 1.370 1_565 S
C424 C426 1.363 . S
C424 H440 0.931 . S
C425 C424 1.370 1_545 S
C425 C429 1.408 . S
C426 C424 1.363 . S
C426 C427 1.370 1_565 S
C426 C430 1.524 . S
C427 C419 1.503 . S
C427 C426 1.370 1_545 S
C427 C428 1.403 . S
C428 C427 1.403 . S
C428 C429 1.404 . S
C428 C431 1.539 . S
C429 C425 1.408 . S
C429 C428 1.404 . S
C429 H441 0.930 . S
C430 C426 1.524 . S
C430 H442 0.956 . S
C430 H443 0.961 . S
C430 H444 0.961 . S
C431 C428 1.539 . S
C431 H445 0.958 . S
C431 H446 0.961 . S
C431 H447 0.960 . S
H432 C416 0.931 . S
H433 C421 0.929 . S
H434 C422 0.960 . S
H435 C422 0.962 . S
H436 C422 0.960 . S
H437 C423 0.961 . S
H438 C423 0.961 . S
H439 C423 0.961 . S
H440 C424 0.931 . S
H441 C429 0.930 . S
H442 C430 0.956 . S
H443 C430 0.961 . S
H444 C430 0.961 . S
H445 C431 0.958 . S
H446 C431 0.961 . S
H447 C431 0.960 . S
C448 C449 1.391 . S
C448 C450 1.394 . S
C448 H464 0.931 . S
C449 C448 1.391 . S
C449 C453 1.376 . S
C450 C448 1.394 . S
C450 C451 1.369 . S
C450 C454 1.531 . S
C451 C450 1.369 . S
C451 C452 1.410 . S
C451 C459 1.503 . S
C452 C451 1.410 . S
C452 C453 1.392 . S
C452 C455 1.511 . S
C453 C449 1.376 . S
C453 C452 1.392 . S
C453 H465 0.929 . S
C454 C450 1.531 . S
C454 H466 0.960 . S
C454 H467 0.962 . S
C454 H468 0.960 . S
C455 C452 1.511 . S
C455 H469 0.961 . S
C455 H470 0.961 . S
C455 H471 0.961 . S
C456 C457 1.370 . S
C456 C458 1.363 . S
C456 H472 0.931 . S
C457 C456 1.370 . S
C457 C461 1.408 . S
C458 C456 1.363 . S
C458 C459 1.370 . S
C458 C462 1.524 . S
C459 C451 1.503 . S
C459 C458 1.370 . S
C459 C460 1.403 . S
C460 C459 1.403 . S
C460 C461 1.404 . S
C460 C463 1.539 . S
C461 C457 1.408 . S
C461 C460 1.404 . S
C461 H473 0.930 . S
C462 C458 1.524 . S
C462 H474 0.956 . S
C462 H475 0.961 . S
C462 H476 0.961 . S
C463 C460 1.539 . S
C463 H477 0.958 . S
C463 H478 0.961 . S
C463 H479 0.960 . S
H464 C448 0.931 . S
H465 C453 0.929 . S
H466 C454 0.960 . S
H467 C454 0.962 . S
H468 C454 0.960 . S
H469 C455 0.961 . S
H470 C455 0.961 . S
H471 C455 0.961 . S
H472 C456 0.931 . S
H473 C461 0.930 . S
H474 C462 0.956 . S
H475 C462 0.961 . S
H476 C462 0.961 . S
H477 C463 0.958 . S
H478 C463 0.961 . S
H479 C463 0.960 . S
C480 C481 1.391 . S
C480 C482 1.394 . S
C480 H496 0.931 . S
C481 C480 1.391 . S
C481 C485 1.376 . S
C482 C480 1.394 . S
C482 C483 1.369 . S
C482 C486 1.531 . S
C483 C482 1.369 . S
C483 C484 1.410 . S
C483 C491 1.503 . S
C484 C483 1.410 . S
C484 C485 1.392 . S
C484 C487 1.511 . S
C485 C481 1.376 . S
C485 C484 1.392 . S
C485 H497 0.929 . S
C486 C482 1.531 . S
C486 H498 0.960 . S
C486 H499 0.962 . S
C486 H500 0.960 . S
C487 C484 1.511 . S
C487 H501 0.961 . S
C487 H502 0.961 . S
C487 H503 0.961 . S
C488 C489 1.370 . S
C488 C490 1.363 . S
C488 H504 0.931 . S
C489 C488 1.370 . S
C489 C493 1.408 . S
C490 C488 1.363 . S
C490 C491 1.370 . S
C490 C494 1.524 . S
C491 C483 1.503 . S
C491 C490 1.370 . S
C491 C492 1.403 . S
C492 C491 1.403 . S
C492 C493 1.404 . S
C492 C495 1.539 . S
C493 C489 1.408 . S
C493 C492 1.404 . S
C493 H505 0.930 . S
C494 C490 1.524 . S
C494 H506 0.956 . S
C494 H507 0.961 . S
C494 H508 0.961 . S
C495 C492 1.539 . S
C495 H509 0.958 . S
C495 H510 0.961 . S
C495 H511 0.960 . S
H496 C480 0.931 . S
H497 C485 0.929 . S
H498 C486 0.960 . S
H499 C486 0.962 . S
H500 C486 0.960 . S
H501 C487 0.961 . S
H502 C487 0.961 . S
H503 C487 0.961 . S
H504 C488 0.931 . S
H505 C493 0.930 . S
H506 C494 0.956 . S
H507 C494 0.961 . S
H508 C494 0.961 . S
H509 C495 0.958 . S
H510 C495 0.961 . S
H511 C495 0.960 . S
C512 C513 1.394 1_455 S
C512 C514 1.394 . S
C512 H528 0.931 . S
C513 C512 1.394 1_655 S
C513 C517 1.373 . S
C514 C512 1.394 . S
C514 C515 1.374 . S
C514 C518 1.531 . S
C515 C514 1.374 . S
C515 C516 1.404 1_455 S
C515 C523 1.503 . S
C516 C515 1.404 1_655 S
C516 C517 1.392 . S
C516 C519 1.511 . S
C517 C513 1.373 . S
C517 C516 1.392 . S
C517 H529 0.929 . S
C518 C514 1.531 . S
C518 H530 0.960 . S
C518 H531 0.962 . S
C518 H532 0.960 . S
C519 C516 1.511 . S
C519 H533 0.961 . S
C519 H534 0.961 . S
C519 H535 0.961 . S
C520 C521 1.370 . S
C520 C522 1.363 . S
C520 H536 0.931 . S
C521 C520 1.370 . S
C521 C525 1.408 1_455 S
C522 C520 1.363 . S
C522 C523 1.375 . S
C522 C526 1.524 . S
C523 C515 1.503 . S
C523 C522 1.375 . S
C523 C524 1.399 1_455 S
C524 C523 1.399 1_655 S
C524 C525 1.404 . S
C524 C527 1.539 . S
C525 C521 1.408 1_655 S
C525 C524 1.404 . S
C525 H537 0.930 . S
C526 C522 1.524 . S
C526 H538 0.956 . S
C526 H539 0.961 1_455 S
C526 H540 0.961 . S
C527 C524 1.539 . S
C527 H541 0.958 1_655 S
C527 H542 0.961 . S
C527 H543 0.960 . S
H528 C512 0.931 . S
H529 C517 0.929 . S
H530 C518 0.960 . S
H531 C518 0.962 . S
H532 C518 0.960 . S
H533 C519 0.961 . S
H534 C519 0.961 . S
H535 C519 0.961 . S
H536 C520 0.931 . S
H537 C525 0.930 . S
H538 C526 0.956 . S
H539 C526 0.961 1_655 S
H540 C526 0.961 . S
H541 C527 0.958 1_455 S
H542 C527 0.961 . S
H543 C527 0.960 . S
C544 C545 1.391 . S
C544 C546 1.394 . S
C544 H560 0.931 . S
C545 C544 1.391 . S
C545 C549 1.379 . S
C546 C544 1.394 . S
C546 C547 1.369 . S
C546 C550 1.531 . S
C547 C546 1.369 . S
C547 C548 1.410 . S
C547 C555 1.503 . S
C548 C547 1.410 . S
C548 C549 1.397 . S
C548 C551 1.511 . S
C549 C545 1.379 . S
C549 C548 1.397 . S
C549 H561 0.923 1_565 S
C550 C546 1.531 . S
C550 H562 0.960 . S
C550 H563 0.962 1_565 S
C550 H564 0.960 . S
C551 C548 1.511 . S
C551 H565 0.961 1_565 S
C551 H566 0.961 1_564 S
C551 H567 0.961 . S
C552 C553 1.370 1_545 S
C552 C554 1.363 . S
C552 H568 0.931 . S
C553 C552 1.370 1_565 S
C553 C557 1.408 . S
C554 C552 1.363 . S
C554 C555 1.370 1_546 S
C554 C558 1.524 1_556 S
C555 C547 1.503 . S
C555 C554 1.370 1_564 S
C555 C556 1.403 1_554 S
C556 C555 1.403 1_556 S
C556 C557 1.404 . S
C556 C559 1.539 1_556 S
C557 C553 1.408 . S
C557 C556 1.404 . S
C557 H569 0.930 . S
C558 C554 1.524 1_554 S
C558 H570 0.956 . S
C558 H571 0.961 . S
C558 H572 0.961 . S
C559 C556 1.539 1_554 S
C559 H573 0.958 . S
C559 H574 0.961 1_554 S
C559 H575 0.960 . S
H560 C544 0.931 . S
H561 C549 0.923 1_545 S
H562 C550 0.960 . S
H563 C550 0.962 1_545 S
H564 C550 0.960 . S
H565 C551 0.961 1_545 S
H566 C551 0.961 1_546 S
H567 C551 0.961 . S
H568 C552 0.931 . S
H569 C557 0.930 . S
H570 C558 0.956 . S
H571 C558 0.961 . S
H572 C558 0.961 . S
H573 C559 0.958 . S
H574 C559 0.961 1_556 S
H575 C559 0.960 . S
C576 C577 1.391 . S
C576 C578 1.394 . S
C576 H592 0.931 . S
C577 C576 1.391 . S
C577 C581 1.376 . S
C578 C576 1.394 . S
C578 C579 1.369 . S
C578 C582 1.531 . S
C579 C578 1.369 . S
C579 C580 1.410 . S
C579 C587 1.503 . S
C580 C579 1.410 . S
C580 C581 1.392 . S
C580 C583 1.511 . S
C581 C577 1.376 . S
C581 C580 1.392 . S
C581 H593 0.929 . S
C582 C578 1.531 . S
C582 H594 0.960 . S
C582 H595 0.962 . S
C582 H596 0.960 . S
C583 C580 1.511 . S
C583 H597 0.961 . S
C583 H598 0.961 1_554 S
C583 H599 0.961 . S
C584 C585 1.370 . S
C584 C586 1.363 . S
C584 H600 0.931 . S
C585 C584 1.370 . S
C585 C589 1.408 . S
C586 C584 1.363 . S
C586 C587 1.370 1_556 S
C586 C590 1.524 1_556 S
C587 C579 1.503 . S
C587 C586 1.370 1_554 S
C587 C588 1.403 1_554 S
C588 C587 1.403 1_556 S
C588 C589 1.404 . S
C588 C591 1.539 . S
C589 C585 1.408 . S
C589 C588 1.404 . S
C589 H601 0.930 . S
C590 C586 1.524 1_554 S
C590 H602 0.956 . S
C590 H603 0.961 . S
C590 H604 0.961 . S
C591 C588 1.539 . S
C591 H605 0.958 1_556 S
C591 H606 0.961 . S
C591 H607 0.960 1_556 S
H592 C576 0.931 . S
H593 C581 0.929 . S
H594 C582 0.960 . S
H595 C582 0.962 . S
H596 C582 0.960 . S
H597 C583 0.961 . S
H598 C583 0.961 1_556 S
H599 C583 0.961 . S
H600 C584 0.931 . S
H601 C589 0.930 . S
H602 C590 0.956 . S
H603 C590 0.961 . S
H604 C590 0.961 . S
H605 C591 0.958 1_554 S
H606 C591 0.961 . S
H607 C591 0.960 1_554 S
C608 C609 1.391 . S
C608 C610 1.394 . S
C608 H624 0.931 . S
C609 C608 1.391 . S
C609 C613 1.376 . S
C610 C608 1.394 . S
C610 C611 1.369 . S
C610 C614 1.531 . S
C611 C610 1.369 . S
C611 C612 1.410 . S
C611 C619 1.503 . S
C612 C611 1.410 . S
C612 C613 1.392 . S
C612 C615 1.511 . S
C613 C609 1.376 . S
C613 C612 1.392 . S
C613 H625 0.929 . S
C614 C610 1.531 . S
C614 H626 0.960 . S
C614 H627 0.962 . S
C614 H628 0.960 . S
C615 C612 1.511 . S
C615 H629 0.961 . S
C615 H630 0.961 1_554 S
C615 H631 0.961 . S
C616 C617 1.370 . S
C616 C618 1.363 . S
C616 H632 0.931 . S
C617 C616 1.370 . S
C617 C621 1.408 . S
C618 C616 1.363 . S
C618 C619 1.370 1_556 S
C618 C622 1.524 1_556 S
C619 C611 1.503 . S
C619 C618 1.370 1_554 S
C619 C620 1.403 1_554 S
C620 C619 1.403 1_556 S
C620 C621 1.404 . S
C620 C623 1.539 . S
C621 C617 1.408 . S
C621 C620 1.404 . S
C621 H633 0.930 . S
C622 C618 1.524 1_554 S
C622 H634 0.956 . S
C622 H635 0.961 . S
C622 H636 0.961 . S
C623 C620 1.539 . S
C623 H637 0.958 1_556 S
C623 H638 0.961 . S
C623 H639 0.960 1_556 S
H624 C608 0.931 . S
H625 C613 0.929 . S
H626 C614 0.960 . S
H627 C614 0.962 . S
H628 C614 0.960 . S
H629 C615 0.961 . S
H630 C615 0.961 1_556 S
H631 C615 0.961 . S
H632 C616 0.931 . S
H633 C621 0.930 . S
H634 C622 0.956 . S
H635 C622 0.961 . S
H636 C622 0.961 . S
H637 C623 0.958 1_554 S
H638 C623 0.961 . S
H639 C623 0.960 1_554 S
C640 C641 1.433 . S
C640 C642 1.394 . S
C640 H656 0.931 . S
C641 C640 1.433 . S
C641 C645 1.336 1_655 S
C642 C640 1.394 . S
C642 C643 1.369 . S
C642 C646 1.531 . S
C643 C642 1.369 . S
C643 C644 1.410 1_655 S
C643 C651 1.503 . S
C644 C643 1.410 1_455 S
C644 C645 1.392 . S
C644 C647 1.511 . S
C645 C641 1.336 1_455 S
C645 C644 1.392 . S
C645 H657 0.929 . S
C646 C642 1.531 . S
C646 H658 0.960 . S
C646 H659 0.962 . S
C646 H660 0.960 . S
C647 C644 1.511 . S
C647 H661 0.961 . S
C647 H662 0.961 . S
C647 H663 0.961 . S
C648 C649 1.370 1_455 S
C648 C650 1.363 1_556 S
C648 H664 0.931 . S
C649 C648 1.370 1_655 S
C649 C653 1.408 . S
C650 C648 1.363 1_554 S
C650 C651 1.370 1_455 S
C650 C654 1.524 . S
C651 C643 1.503 . S
C651 C650 1.370 1_655 S
C651 C652 1.403 1_554 S
C652 C651 1.403 1_556 S
C652 C653 1.404 . S
C652 C655 1.539 . S
C653 C649 1.408 . S
C653 C652 1.404 . S
C653 H665 0.930 . S
C654 C650 1.524 . S
C654 H666 0.956 1_455 S
C654 H667 0.961 . S
C654 H668 0.961 . S
C655 C652 1.539 . S
C655 H669 0.958 . S
C655 H670 0.961 . S
C655 H671 0.960 . S
H656 C640 0.931 . S
H657 C645 0.929 . S
H658 C646 0.960 . S
H659 C646 0.962 . S
H660 C646 0.960 . S
H661 C647 0.961 . S
H662 C647 0.961 . S
H663 C647 0.961 . S
H664 C648 0.931 . S
H665 C653 0.930 . S
H666 C654 0.956 1_655 S
H667 C654 0.961 . S
H668 C654 0.961 . S
H669 C655 0.958 . S
H670 C655 0.961 . S
H671 C655 0.960 . S
C672 C673 1.391 . S
C672 C674 1.394 . S
C672 H688 0.931 . S
C673 C672 1.391 . S
C673 C677 1.376 1_455 S
C674 C672 1.394 . S
C674 C675 1.369 1_455 S
C674 C678 1.531 . S
C675 C674 1.369 1_655 S
C675 C676 1.410 . S
C675 C683 1.503 . S
C676 C675 1.410 . S
C676 C677 1.392 . S
C676 C679 1.511 . S
C677 C673 1.376 1_655 S
C677 C676 1.392 . S
C677 H689 0.929 . S
C678 C674 1.531 . S
C678 H690 0.960 . S
C678 H691 0.962 . S
C678 H692 0.960 . S
C679 C676 1.511 . S
C679 H693 0.961 . S
C679 H694 0.961 . S
C679 H695 0.961 . S
C680 C681 1.370 . S
C680 C682 1.363 . S
C680 H696 0.931 . S
C681 C680 1.370 . S
C681 C685 1.408 . S
C682 C680 1.363 . S
C682 C683 1.370 . S
C682 C686 1.524 . S
C683 C675 1.503 . S
C683 C682 1.370 . S
C683 C684 1.403 . S
C684 C683 1.403 . S
C684 C685 1.404 . S
C684 C687 1.539 . S
C685 C681 1.408 . S
C685 C684 1.404 . S
C685 H697 0.930 . S
C686 C682 1.524 . S
C686 H698 0.956 1_655 S
C686 H699 0.961 . S
C686 H700 0.961 . S
C687 C684 1.539 . S
C687 H701 0.958 . S
C687 H702 0.961 . S
C687 H703 0.960 . S
H688 C672 0.931 . S
H689 C677 0.929 . S
H690 C678 0.960 . S
H691 C678 0.962 . S
H692 C678 0.960 . S
H693 C679 0.961 . S
H694 C679 0.961 . S
H695 C679 0.961 . S
H696 C680 0.931 . S
H697 C685 0.930 . S
H698 C686 0.956 1_455 S
H699 C686 0.961 . S
H700 C686 0.961 . S
H701 C687 0.958 . S
H702 C687 0.961 . S
H703 C687 0.960 . S
C704 C705 1.391 1_565 S
C704 C706 1.394 . S
C704 H720 0.931 . S
C705 C704 1.391 1_545 S
C705 C709 1.376 . S
C706 C704 1.394 . S
C706 C707 1.369 . S
C706 C710 1.531 . S
C707 C706 1.369 . S
C707 C708 1.410 1_565 S
C707 C715 1.503 . S
C708 C707 1.410 1_545 S
C708 C709 1.392 . S
C708 C711 1.511 . S
C709 C705 1.376 . S
C709 C708 1.392 . S
C709 H721 0.929 . S
C710 C706 1.531 . S
C710 H722 0.960 . S
C710 H723 0.962 . S
C710 H724 0.960 . S
C711 C708 1.511 . S
C711 H725 0.961 . S
C711 H726 0.961 . S
C711 H727 0.961 . S
C712 C713 1.370 . S
C712 C714 1.363 . S
C712 H728 0.931 . S
C713 C712 1.370 . S
C713 C717 1.408 . S
C714 C712 1.363 . S
C714 C715 1.370 . S
C714 C718 1.524 . S
C715 C707 1.503 . S
C715 C714 1.370 . S
C715 C716 1.403 . S
C716 C715 1.403 . S
C716 C717 1.404 . S
C716 C719 1.539 1_565 S
C717 C713 1.408 . S
C717 C716 1.404 . S
C717 H729 0.930 . S
C718 C714 1.524 . S
C718 H730 0.956 . S
C718 H731 0.961 . S
C718 H732 0.961 . S
C719 C716 1.539 1_545 S
C719 H733 0.958 . S
C719 H734 0.961 . S
C719 H735 0.960 . S
H720 C704 0.931 . S
H721 C709 0.929 . S
H722 C710 0.960 . S
H723 C710 0.962 . S
H724 C710 0.960 . S
H725 C711 0.961 . S
H726 C711 0.961 . S
H727 C711 0.961 . S
H728 C712 0.931 . S
H729 C717 0.930 . S
H730 C718 0.956 . S
H731 C718 0.961 . S
H732 C718 0.961 . S
H733 C719 0.958 . S
H734 C719 0.961 . S
H735 C719 0.960 . S
C736 C737 1.391 . S
C736 C738 1.394 . S
C736 H752 0.931 . S
C737 C736 1.391 . S
C737 C741 1.376 . S
C738 C736 1.394 . S
C738 C739 1.369 . S
C738 C742 1.531 . S
C739 C738 1.369 . S
C739 C740 1.410 . S
C739 C747 1.503 . S
C740 C739 1.410 . S
C740 C741 1.392 . S
C740 C743 1.511 . S
C741 C737 1.376 . S
C741 C740 1.392 . S
C741 H753 0.929 . S
C742 C738 1.531 . S
C742 H754 0.960 . S
C742 H755 0.962 . S
C742 H756 0.960 . S
C743 C740 1.511 . S
C743 H757 0.961 . S
C743 H758 0.961 . S
C743 H759 0.961 . S
C744 C745 1.370 . S
C744 C746 1.363 . S
C744 H760 0.931 . S
C745 C744 1.370 . S
C745 C749 1.408 . S
C746 C744 1.363 . S
C746 C747 1.370 . S
C746 C750 1.524 . S
C747 C739 1.503 . S
C747 C746 1.370 . S
C747 C748 1.403 . S
C748 C747 1.403 . S
C748 C749 1.404 . S
C748 C751 1.539 . S
C749 C745 1.408 . S
C749 C748 1.404 . S
C749 H761 0.930 . S
C750 C746 1.524 . S
C750 H762 0.956 . S
C750 H763 0.961 . S
C750 H764 0.961 . S
C751 C748 1.539 . S
C751 H765 0.958 . S
C751 H766 0.961 . S
C751 H767 0.960 . S
H752 C736 0.931 . S
H753 C741 0.929 . S
H754 C742 0.960 . S
H755 C742 0.962 . S
H756 C742 0.960 . S
H757 C743 0.961 . S
H758 C743 0.961 . S
H759 C743 0.961 . S
H760 C744 0.931 . S
H761 C749 0.930 . S
H762 C750 0.956 . S
H763 C750 0.961 . S
H764 C750 0.961 . S
H765 C751 0.958 . S
H766 C751 0.961 . S
H767 C751 0.960 . S
C768 C769 1.391 . S
C768 C770 1.394 . S
C768 H784 0.931 . S
C769 C768 1.391 . S
C769 C773 1.376 . S
C770 C768 1.394 . S
C770 C771 1.369 . S
C770 C774 1.531 . S
C771 C770 1.369 . S
C771 C772 1.410 . S
C771 C779 1.503 . S
C772 C771 1.410 . S
C772 C773 1.392 . S
C772 C775 1.511 . S
C773 C769 1.376 . S
C773 C772 1.392 . S
C773 H785 0.929 . S
C774 C770 1.531 . S
C774 H786 0.960 . S
C774 H787 0.962 . S
C774 H788 0.960 . S
C775 C772 1.511 . S
C775 H789 0.961 . S
C775 H790 0.961 . S
C775 H791 0.961 . S
C776 C777 1.370 . S
C776 C778 1.363 . S
C776 H792 0.931 . S
C777 C776 1.370 . S
C777 C781 1.408 . S
C778 C776 1.363 . S
C778 C779 1.370 . S
C778 C782 1.524 . S
C779 C771 1.503 . S
C779 C778 1.370 . S
C779 C780 1.403 . S
C780 C779 1.403 . S
C780 C781 1.404 . S
C780 C783 1.539 . S
C781 C777 1.408 . S
C781 C780 1.404 . S
C781 H793 0.930 . S
C782 C778 1.524 . S
C782 H794 0.956 . S
C782 H795 0.961 . S
C782 H796 0.961 . S
C783 C780 1.539 . S
C783 H797 0.958 . S
C783 H798 0.961 . S
C783 H799 0.960 . S
H784 C768 0.931 . S
H785 C773 0.929 . S
H786 C774 0.960 . S
H787 C774 0.962 . S
H788 C774 0.960 . S
H789 C775 0.961 . S
H790 C775 0.961 . S
H791 C775 0.961 . S
H792 C776 0.931 . S
H793 C781 0.930 . S
H794 C782 0.956 . S
H795 C782 0.961 . S
H796 C782 0.961 . S
H797 C783 0.958 . S
H798 C783 0.961 . S
H799 C783 0.960 . S
C800 C801 1.383 1_455 S
C800 C802 1.394 . S
C800 H816 0.931 . S
C801 C800 1.383 1_655 S
C801 C805 1.377 . S
C802 C800 1.394 . S
C802 C803 1.369 . S
C802 C806 1.531 . S
C803 C802 1.369 . S
C803 C804 1.410 . S
C803 C811 1.503 . S
C804 C803 1.410 . S
C804 C805 1.392 1_455 S
C804 C807 1.511 1_554 S
C805 C801 1.377 . S
C805 C804 1.392 1_655 S
C805 H817 0.929 . S
C806 C802 1.531 . S
C806 H818 0.960 . S
C806 H819 0.962 . S
C806 H820 0.960 . S
C807 C804 1.511 1_556 S
C807 H821 0.961 1_455 S
C807 H822 0.961 . S
C807 H823 0.961 . S
C808 C809 1.370 1_554 S
C808 C810 1.363 . S
C808 H824 0.931 . S
C809 C808 1.370 1_556 S
C809 C813 1.408 . S
C810 C808 1.363 . S
C810 C811 1.370 . S
C810 C814 1.524 1_455 S
C811 C803 1.503 . S
C811 C810 1.370 . S
C811 C812 1.403 . S
C812 C811 1.403 . S
C812 C813 1.404 1_554 S
C812 C815 1.539 . S
C813 C809 1.408 . S
C813 C812 1.404 1_556 S
C813 H825 0.930 . S
C814 C810 1.524 1_655 S
C814 H826 0.956 . S
C814 H827 0.961 . S
C814 H828 0.961 . S
C815 C812 1.539 . S
C815 H829 0.958 . S
C815 H830 0.961 1_554 S
C815 H831 0.960 . S
H816 C800 0.931 . S
H817 C805 0.929 . S
H818 C806 0.960 . S
H819 C806 0.962 . S
H820 C806 0.960 . S
H821 C807 0.961 1_655 S
H822 C807 0.961 . S
H823 C807 0.961 . S
H824 C808 0.931 . S
H825 C813 0.930 . S
H826 C814 0.956 . S
H827 C814 0.961 . S
H828 C814 0.961 . S
H829 C815 0.958 . S
H830 C815 0.961 1_556 S
H831 C815 0.960 . S
C832 C833 1.392 . S
C832 C834 1.394 1_565 S
C832 H848 0.931 . S
C833 C832 1.392 . S
C833 C837 1.374 1_565 S
C834 C832 1.394 1_545 S
C834 C835 1.369 . S
C834 C838 1.531 . S
C835 C834 1.369 . S
C835 C836 1.410 . S
C835 C843 1.503 . S
C836 C835 1.410 . S
C836 C837 1.392 . S
C836 C839 1.511 . S
C837 C833 1.374 1_545 S
C837 C836 1.392 . S
C837 H849 0.929 . S
C838 C834 1.531 . S
C838 H850 0.960 . S
C838 H851 0.962 1_545 S
C838 H852 0.960 . S
C839 C836 1.511 . S
C839 H853 0.961 1_554 S
C839 H854 0.961 1_554 S
C839 H855 0.961 . S
C840 C841 1.370 . S
C840 C842 1.363 1_556 S
C840 H856 0.931 . S
C841 C840 1.370 . S
C841 C845 1.408 1_556 S
C842 C840 1.363 1_554 S
C842 C843 1.370 . S
C842 C846 1.524 1_545 S
C843 C835 1.503 . S
C843 C842 1.370 . S
C843 C844 1.403 . S
C844 C843 1.403 . S
C844 C845 1.404 . S
C844 C847 1.539 . S
C845 C841 1.408 1_554 S
C845 C844 1.404 . S
C845 H857 0.930 . S
C846 C842 1.524 1_565 S
C846 H858 0.956 . S
C846 H859 0.961 1_554 S
C846 H860 0.961 1_554 S
C847 C844 1.539 . S
C847 H861 0.958 . S
C847 H862 0.961 . S
C847 H863 0.960 . S
H848 C832 0.931 . S
H849 C837 0.929 . S
H850 C838 0.960 . S
H851 C838 0.962 1_565 S
H852 C838 0.960 . S
H853 C839 0.961 1_556 S
H854 C839 0.961 1_556 S
H855 C839 0.961 . S
H856 C840 0.931 . S
H857 C845 0.930 . S
H858 C846 0.956 . S
H859 C846 0.961 1_556 S
H860 C846 0.961 1_556 S
H861 C847 0.958 . S
H862 C847 0.961 . S
H863 C847 0.960 . S
C864 C865 1.391 . S
C864 C866 1.394 . S
C864 H880 0.931 . S
C865 C864 1.391 . S
C865 C869 1.376 . S
C866 C864 1.394 . S
C866 C867 1.369 . S
C866 C870 1.531 . S
C867 C866 1.369 . S
C867 C868 1.410 . S
C867 C875 1.503 . S
C868 C867 1.410 . S
C868 C869 1.392 . S
C868 C871 1.511 . S
C869 C865 1.376 . S
C869 C868 1.392 . S
C869 H881 0.929 . S
C870 C866 1.531 . S
C870 H882 0.960 1_554 S
C870 H883 0.962 . S
C870 H884 0.960 . S
C871 C868 1.511 . S
C871 H885 0.961 . S
C871 H886 0.961 . S
C871 H887 0.961 . S
C872 C873 1.370 1_554 S
C872 C874 1.363 . S
C872 H888 0.931 . S
C873 C872 1.370 1_556 S
C873 C877 1.408 . S
C874 C872 1.363 . S
C874 C875 1.370 . S
C874 C878 1.524 . S
C875 C867 1.503 . S
C875 C874 1.370 . S
C875 C876 1.403 1_554 S
C876 C875 1.403 1_556 S
C876 C877 1.404 . S
C876 C879 1.539 . S
C877 C873 1.408 . S
C877 C876 1.404 . S
C877 H889 0.930 . S
C878 C874 1.524 . S
C878 H890 0.956 . S
C878 H891 0.961 . S
C878 H892 0.961 . S
C879 C876 1.539 . S
C879 H893 0.958 . S
C879 H894 0.961 . S
C879 H895 0.960 . S
H880 C864 0.931 . S
H881 C869 0.929 . S
H882 C870 0.960 1_556 S
H883 C870 0.962 . S
H884 C870 0.960 . S
H885 C871 0.961 . S
H886 C871 0.961 . S
H887 C871 0.961 . S
H888 C872 0.931 . S
H889 C877 0.930 . S
H890 C878 0.956 . S
H891 C878 0.961 . S
H892 C878 0.961 . S
H893 C879 0.958 . S
H894 C879 0.961 . S
H895 C879 0.960 . S
C896 C897 1.391 . S
C896 C898 1.394 . S
C896 H912 0.931 . S
C897 C896 1.391 . S
C897 C901 1.376 . S
C898 C896 1.394 . S
C898 C899 1.369 . S
C898 C902 1.531 1_554 S
C899 C898 1.369 . S
C899 C900 1.410 . S
C899 C907 1.503 . S
C900 C899 1.410 . S
C900 C901 1.392 . S
C900 C903 1.511 . S
C901 C897 1.376 . S
C901 C900 1.392 . S
C901 H913 0.929 . S
C902 C898 1.531 1_556 S
C902 H914 0.960 . S
C902 H915 0.962 . S
C902 H916 0.960 . S
C903 C900 1.511 . S
C903 H917 0.961 . S
C903 H918 0.961 . S
C903 H919 0.961 . S
C904 C905 1.370 1_554 S
C904 C906 1.363 . S
C904 H920 0.931 . S
C905 C904 1.370 1_556 S
C905 C909 1.408 . S
C906 C904 1.363 . S
C906 C907 1.370 . S
C906 C910 1.524 . S
C907 C899 1.503 . S
C907 C906 1.370 . S
C907 C908 1.403 . S
C908 C907 1.403 . S
C908 C909 1.404 1_554 S
C908 C911 1.539 1_554 S
C909 C905 1.408 . S
C909 C908 1.404 1_556 S
C909 H921 0.930 . S
C910 C906 1.524 . S
C910 H922 0.956 . S
C910 H923 0.961 . S
C910 H924 0.961 . S
C911 C908 1.539 1_556 S
C911 H925 0.958 . S
C911 H926 0.961 . S
C911 H927 0.960 1_556 S
H912 C896 0.931 . S
H913 C901 0.929 . S
H914 C902 0.960 . S
H915 C902 0.962 . S
H916 C902 0.960 . S
H917 C903 0.961 . S
H918 C903 0.961 . S
H919 C903 0.961 . S
H920 C904 0.931 . S
H921 C909 0.930 . S
H922 C910 0.956 . S
H923 C910 0.961 . S
H924 C910 0.961 . S
H925 C911 0.958 . S
H926 C911 0.961 . S
H927 C911 0.960 1_554 S
C928 C929 1.420 . S
C928 C930 1.394 . S
C928 H944 0.931 . S
C929 C928 1.420 . S
C929 C933 1.348 1_455 S
C930 C928 1.394 . S
C930 C931 1.369 . S
C930 C934 1.531 . S
C931 C930 1.369 . S
C931 C932 1.410 1_455 S
C931 C939 1.503 . S
C932 C931 1.410 1_655 S
C932 C933 1.392 . S
C932 C935 1.511 . S
C933 C929 1.348 1_655 S
C933 C932 1.392 . S
C933 H945 0.929 . S
C934 C930 1.531 . S
C934 H946 0.960 . S
C934 H947 0.962 . S
C934 H948 0.960 . S
C935 C932 1.511 . S
C935 H949 0.961 . S
C935 H950 0.961 . S
C935 H951 0.961 . S
C936 C937 1.370 . S
C936 C938 1.363 . S
C936 H952 0.931 . S
C937 C936 1.370 . S
C937 C941 1.408 1_455 S
C938 C936 1.363 . S
C938 C939 1.370 . S
C938 C942 1.524 . S
C939 C931 1.503 . S
C939 C938 1.370 . S
C939 C940 1.403 1_455 S
C940 C939 1.403 1_655 S
C940 C941 1.404 . S
C940 C943 1.539 . S
C941 C937 1.408 1_655 S
C941 C940 1.404 . S
C941 H953 0.930 . S
C942 C938 1.524 . S
C942 H954 0.956 . S
C942 H955 0.961 . S
C942 H956 0.961 . S
C943 C940 1.539 . S
C943 H957 0.958 . S
C943 H958 0.961 . S
C943 H959 0.960 . S
H944 C928 0.931 . S
H945 C933 0.929 . S
H946 C934 0.960 . S
H947 C934 0.962 . S
H948 C934 0.960 . S
H949 C935 0.961 . S
H950 C935 0.961 . S
H951 C935 0.961 . S
H952 C936 0.931 . S
H953 C941 0.930 . S
H954 C942 0.956 . S
H955 C942 0.961 . S
H956 C942 0.961 . S
H957 C943 0.958 . S
H958 C943 0.961 . S
H959 C943 0.960 . S
C960 C961 1.399 . S
C960 C962 1.394 . S
C960 H976 0.931 . S
C961 C960 1.399 . S
C961 C965 1.368 1_545 S
C962 C960 1.394 . S
C962 C963 1.378 . S
C962 C966 1.531 . S
C963 C962 1.378 . S
C963 C964 1.400 1_545 S
C963 C971 1.507 . S
C964 C963 1.400 1_565 S
C964 C965 1.392 . S
C964 C967 1.511 . S
C965 C961 1.368 1_565 S
C965 C964 1.392 . S
C965 H977 0.929 . S
C966 C962 1.531 . S
C966 H978 0.960 . S
C966 H979 0.962 . S
C966 H980 0.960 . S
C967 C964 1.511 . S
C967 H981 0.961 . S
C967 H982 0.961 . S
C967 H983 0.961 . S
C968 C969 1.370 . S
C968 C970 1.363 . S
C968 H984 0.931 . S
C969 C968 1.370 . S
C969 C973 1.408 1_545 S
C970 C968 1.363 . S
C970 C971 1.370 . S
C970 C974 1.524 . S
C971 C963 1.507 . S
C971 C970 1.370 . S
C971 C972 1.403 1_545 S
C972 C971 1.403 1_565 S
C972 C973 1.404 . S
C972 C975 1.539 . S
C973 C969 1.408 1_565 S
C973 C972 1.404 . S
C973 H985 0.930 . S
C974 C970 1.524 . S
C974 H986 0.956 . S
C974 H987 0.961 . S
C974 H988 0.961 . S
C975 C972 1.539 . S
C975 H989 0.958 . S
C975 H990 0.961 . S
C975 H991 0.960 . S
H976 C960 0.931 . S
H977 C965 0.929 . S
H978 C966 0.960 . S
H979 C966 0.962 . S
H980 C966 0.960 . S
H981 C967 0.961 . S
H982 C967 0.961 . S
H983 C967 0.961 . S
H984 C968 0.931 . S
H985 C973 0.930 . S
H986 C974 0.956 . S
H987 C974 0.961 . S
H988 C974 0.961 . S
H989 C975 0.958 . S
H990 C975 0.961 . S
H991 C975 0.960 . S
C992 C993 1.391 . S
C992 C994 1.394 . S
C992 H1008 0.931 . S
C993 C992 1.391 . S
C993 C997 1.376 . S
C994 C992 1.394 . S
C994 C995 1.369 . S
C994 C998 1.531 . S
C995 C994 1.369 . S
C995 C996 1.410 . S
C995 C1003 1.503 . S
C996 C995 1.410 . S
C996 C997 1.392 . S
C996 C999 1.511 . S
C997 C993 1.376 . S
C997 C996 1.392 . S
C997 H1009 0.929 . S
C998 C994 1.531 . S
C998 H1010 0.960 . S
C998 H1011 0.962 . S
C998 H1012 0.960 . S
C999 C996 1.511 . S
C999 H1013 0.961 . S
C999 H1014 0.961 . S
C999 H1015 0.961 . S
C1000 C1001 1.370 . S
C1000 C1002 1.363 . S
C1000 H1016 0.931 . S
C1001 C1000 1.370 . S
C1001 C1005 1.408 . S
C1002 C1000 1.363 . S
C1002 C1003 1.370 . S
C1002 C1006 1.524 . S
C1003 C995 1.503 . S
C1003 C1002 1.370 . S
C1003 C1004 1.403 . S
C1004 C1003 1.403 . S
C1004 C1005 1.404 . S
C1004 C1007 1.539 . S
C1005 C1001 1.408 . S
C1005 C1004 1.404 . S
C1005 H1017 0.930 . S
C1006 C1002 1.524 . S
C1006 H1018 0.956 . S
C1006 H1019 0.961 . S
C1006 H1020 0.961 . S
C1007 C1004 1.539 . S
C1007 H1021 0.958 . S
C1007 H1022 0.961 . S
C1007 H1023 0.960 . S
H1008 C992 0.931 . S
H1009 C997 0.929 . S
H1010 C998 0.960 . S
H1011 C998 0.962 . S
H1012 C998 0.960 . S
H1013 C999 0.961 . S
H1014 C999 0.961 . S
H1015 C999 0.961 . S
H1016 C1000 0.931 . S
H1017 C1005 0.930 . S
H1018 C1006 0.956 . S
H1019 C1006 0.961 . S
H1020 C1006 0.961 . S
H1021 C1007 0.958 . S
H1022 C1007 0.961 . S
H1023 C1007 0.960 . S
C1024 C1025 1.391 . S
C1024 C1026 1.394 . S
C1024 H1040 0.931 . S
C1025 C1024 1.391 . S
C1025 C1029 1.376 . S
C1026 C1024 1.394 . S
C1026 C1027 1.369 . S
C1026 C1030 1.531 . S
C1027 C1026 1.369 . S
C1027 C1028 1.410 . S
C1027 C1035 1.503 . S
C1028 C1027 1.410 . S
C1028 C1029 1.392 . S
C1028 C1031 1.511 . S
C1029 C1025 1.376 . S
C1029 C1028 1.392 . S
C1029 H1041 0.929 . S
C1030 C1026 1.531 . S
C1030 H1042 0.960 . S
C1030 H1043 0.962 . S
C1030 H1044 0.960 . S
C1031 C1028 1.511 . S
C1031 H1045 0.961 . S
C1031 H1046 0.961 . S
C1031 H1047 0.961 . S
C1032 C1033 1.370 . S
C1032 C1034 1.363 . S
C1032 H1048 0.931 . S
C1033 C1032 1.370 . S
C1033 C1037 1.408 . S
C1034 C1032 1.363 . S
C1034 C1035 1.370 . S
C1034 C1038 1.524 . S
C1035 C1027 1.503 . S
C1035 C1034 1.370 . S
C1035 C1036 1.403 . S
C1036 C1035 1.403 . S
C1036 C1037 1.404 . S
C1036 C1039 1.539 . S
C1037 C1033 1.408 . S
C1037 C1036 1.404 . S
C1037 H1049 0.930 . S
C1038 C1034 1.524 . S
C1038 H1050 0.956 . S
C1038 H1051 0.961 . S
C1038 H1052 0.961 . S
C1039 C1036 1.539 . S
C1039 H1053 0.958 . S
C1039 H1054 0.961 . S
C1039 H1055 0.960 . S
H1040 C1024 0.931 . S
H1041 C1029 0.929 . S
H1042 C1030 0.960 . S
H1043 C1030 0.962 . S
H1044 C1030 0.960 . S
H1045 C1031 0.961 . S
H1046 C1031 0.961 . S
H1047 C1031 0.961 . S
H1048 C1032 0.931 . S
H1049 C1037 0.930 . S
H1050 C1038 0.956 . S
H1051 C1038 0.961 . S
H1052 C1038 0.961 . S
H1053 C1039 0.958 . S
H1054 C1039 0.961 . S
H1055 C1039 0.960 . S
C1056 C1057 1.391 1_455 S
C1056 C1058 1.394 . S
C1056 H1072 0.931 . S
C1057 C1056 1.391 1_655 S
C1057 C1061 1.376 . S
C1058 C1056 1.394 . S
C1058 C1059 1.369 1_455 S
C1058 C1062 1.531 . S
C1059 C1058 1.369 1_655 S
C1059 C1060 1.410 . S
C1059 C1067 1.503 . S
C1060 C1059 1.410 . S
C1060 C1061 1.392 . S
C1060 C1063 1.511 . S
C1061 C1057 1.376 . S
C1061 C1060 1.392 . S
C1061 H1073 0.929 . S
C1062 C1058 1.531 . S
C1062 H1074 0.960 . S
C1062 H1075 0.962 . S
C1062 H1076 0.960 . S
C1063 C1060 1.511 . S
C1063 H1077 0.961 . S
C1063 H1078 0.961 . S
C1063 H1079 0.961 . S
C1064 C1065 1.370 1_455 S
C1064 C1066 1.363 . S
C1064 H1080 0.931 . S
C1065 C1064 1.370 1_655 S
C1065 C1069 1.408 . S
C1066 C1064 1.363 . S
C1066 C1067 1.370 1_455 S
C1066 C1070 1.524 . S
C1067 C1059 1.503 . S
C1067 C1066 1.370 1_655 S
C1067 C1068 1.403 . S
C1068 C1067 1.403 . S
C1068 C1069 1.404 . S
C1068 C1071 1.539 . S
C1069 C1065 1.408 . S
C1069 C1068 1.404 . S
C1069 H1081 0.930 . S
C1070 C1066 1.524 . S
C1070 H1082 0.956 . S
C1070 H1083 0.961 . S
C1070 H1084 0.961 . S
C1071 C1068 1.539 . S
C1071 H1085 0.958 . S
C1071 H1086 0.961 . S
C1071 H1087 0.960 . S
H1072 C1056 0.931 . S
H1073 C1061 0.929 . S
H1074 C1062 0.960 . S
H1075 C1062 0.962 . S
H1076 C1062 0.960 . S
H1077 C1063 0.961 . S
H1078 C1063 0.961 . S
H1079 C1063 0.961 . S
H1080 C1064 0.931 . S
H1081 C1069 0.930 . S
H1082 C1070 0.956 . S
H1083 C1070 0.961 . S
H1084 C1070 0.961 . S
H1085 C1071 0.958 . S
H1086 C1071 0.961 . S
H1087 C1071 0.960 . S
C1088 C1089 1.401 . S
C1088 C1090 1.394 . S
C1088 H1104 0.931 . S
C1089 C1088 1.401 . S
C1089 C1093 1.366 1_565 S
C1090 C1088 1.394 . S
C1090 C1091 1.388 . S
C1090 C1094 1.531 . S
C1091 C1090 1.388 . S
C1091 C1092 1.390 1_565 S
C1091 C1099 1.509 . S
C1092 C1091 1.390 1_545 S
C1092 C1093 1.392 . S
C1092 C1095 1.511 . S
C1093 C1089 1.366 1_545 S
C1093 C1092 1.392 . S
C1093 H1105 0.929 . S
C1094 C1090 1.531 . S
C1094 H1106 0.960 . S
C1094 H1107 0.962 . S
C1094 H1108 0.960 . S
C1095 C1092 1.511 . S
C1095 H1109 0.961 . S
C1095 H1110 0.961 . S
C1095 H1111 0.961 . S
C1096 C1097 1.370 . S
C1096 C1098 1.363 . S
C1096 H1112 0.931 . S
C1097 C1096 1.370 . S
C1097 C1101 1.408 1_565 S
C1098 C1096 1.363 . S
C1098 C1099 1.370 . S
C1098 C1102 1.524 . S
C1099 C1091 1.509 . S
C1099 C1098 1.370 . S
C1099 C1100 1.403 1_565 S
C1100 C1099 1.403 1_545 S
C1100 C1101 1.404 . S
C1100 C1103 1.539 . S
C1101 C1097 1.408 1_545 S
C1101 C1100 1.404 . S
C1101 H1113 0.930 . S
C1102 C1098 1.524 . S
C1102 H1114 0.956 . S
C1102 H1115 0.961 . S
C1102 H1116 0.961 . S
C1103 C1100 1.539 . S
C1103 H1117 0.958 . S
C1103 H1118 0.961 . S
C1103 H1119 0.960 . S
H1104 C1088 0.931 . S
H1105 C1093 0.929 . S
H1106 C1094 0.960 . S
H1107 C1094 0.962 . S
H1108 C1094 0.960 . S
H1109 C1095 0.961 . S
H1110 C1095 0.961 . S
H1111 C1095 0.961 . S
H1112 C1096 0.931 . S
H1113 C1101 0.930 . S
H1114 C1102 0.956 . S
H1115 C1102 0.961 . S
H1116 C1102 0.961 . S
H1117 C1103 0.958 . S
H1118 C1103 0.961 . S
H1119 C1103 0.960 . S
C1120 C1121 1.391 . S
C1120 C1122 1.394 . S
C1120 H1136 0.931 . S
C1121 C1120 1.391 . S
C1121 C1125 1.376 . S
C1122 C1120 1.394 . S
C1122 C1123 1.369 . S
C1122 C1126 1.531 . S
C1123 C1122 1.369 . S
C1123 C1124 1.410 . S
C1123 C1131 1.503 . S
C1124 C1123 1.410 . S
C1124 C1125 1.392 . S
C1124 C1127 1.511 . S
C1125 C1121 1.376 . S
C1125 C1124 1.392 . S
C1125 H1137 0.929 . S
C1126 C1122 1.531 . S
C1126 H1138 0.960 . S
C1126 H1139 0.962 . S
C1126 H1140 0.960 . S
C1127 C1124 1.511 . S
C1127 H1141 0.961 . S
C1127 H1142 0.961 . S
C1127 H1143 0.961 . S
C1128 C1129 1.370 . S
C1128 C1130 1.363 . S
C1128 H1144 0.931 . S
C1129 C1128 1.370 . S
C1129 C1133 1.408 . S
C1130 C1128 1.363 . S
C1130 C1131 1.370 . S
C1130 C1134 1.524 . S
C1131 C1123 1.503 . S
C1131 C1130 1.370 . S
C1131 C1132 1.403 . S
C1132 C1131 1.403 . S
C1132 C1133 1.404 . S
C1132 C1135 1.539 . S
C1133 C1129 1.408 . S
C1133 C1132 1.404 . S
C1133 H1145 0.930 . S
C1134 C1130 1.524 . S
C1134 H1146 0.956 . S
C1134 H1147 0.961 . S
C1134 H1148 0.961 . S
C1135 C1132 1.539 . S
C1135 H1149 0.958 . S
C1135 H1150 0.961 . S
C1135 H1151 0.960 . S
H1136 C1120 0.931 . S
H1137 C1125 0.929 . S
H1138 C1126 0.960 . S
H1139 C1126 0.962 . S
H1140 C1126 0.960 . S
H1141 C1127 0.961 . S
H1142 C1127 0.961 . S
H1143 C1127 0.961 . S
H1144 C1128 0.931 . S
H1145 C1133 0.930 . S
H1146 C1134 0.956 . S
H1147 C1134 0.961 . S
H1148 C1134 0.961 . S
H1149 C1135 0.958 . S
H1150 C1135 0.961 . S
H1151 C1135 0.960 . S
C1152 C1153 1.391 . S
C1152 C1154 1.394 . S
C1152 H1168 0.931 . S
C1153 C1152 1.391 . S
C1153 C1157 1.376 . S
C1154 C1152 1.394 . S
C1154 C1155 1.369 . S
C1154 C1158 1.531 . S
C1155 C1154 1.369 . S
C1155 C1156 1.410 . S
C1155 C1163 1.503 . S
C1156 C1155 1.410 . S
C1156 C1157 1.392 . S
C1156 C1159 1.511 . S
C1157 C1153 1.376 . S
C1157 C1156 1.392 . S
C1157 H1169 0.929 . S
C1158 C1154 1.531 . S
C1158 H1170 0.960 . S
C1158 H1171 0.962 . S
C1158 H1172 0.960 . S
C1159 C1156 1.511 . S
C1159 H1173 0.961 . S
C1159 H1174 0.961 . S
C1159 H1175 0.961 . S
C1160 C1161 1.370 . S
C1160 C1162 1.363 . S
C1160 H1176 0.931 . S
C1161 C1160 1.370 . S
C1161 C1165 1.408 . S
C1162 C1160 1.363 . S
C1162 C1163 1.370 . S
C1162 C1166 1.524 . S
C1163 C1155 1.503 . S
C1163 C1162 1.370 . S
C1163 C1164 1.403 . S
C1164 C1163 1.403 . S
C1164 C1165 1.404 . S
C1164 C1167 1.539 . S
C1165 C1161 1.408 . S
C1165 C1164 1.404 . S
C1165 H1177 0.930 . S
C1166 C1162 1.524 . S
C1166 H1178 0.956 . S
C1166 H1179 0.961 . S
C1166 H1180 0.961 . S
C1167 C1164 1.539 . S
C1167 H1181 0.958 . S
C1167 H1182 0.961 . S
C1167 H1183 0.960 . S
H1168 C1152 0.931 . S
H1169 C1157 0.929 . S
H1170 C1158 0.960 . S
H1171 C1158 0.962 . S
H1172 C1158 0.960 . S
H1173 C1159 0.961 . S
H1174 C1159 0.961 . S
H1175 C1159 0.961 . S
H1176 C1160 0.931 . S
H1177 C1165 0.930 . S
H1178 C1166 0.956 . S
H1179 C1166 0.961 . S
H1180 C1166 0.961 . S
H1181 C1167 0.958 . S
H1182 C1167 0.961 . S
H1183 C1167 0.960 . S
C417 C215 1.996 . S
C425 C266 2.160 1_545 S
C457 C306 2.165 . S
C449 C247 2.027 . S
C489 C346 2.169 . S
C481 C151 2.029 . S
C521 C386 2.163 1_455 S
C513 C183 2.031 1_655 S
C553 C275 2.168 1_565 S
C545 C87 2.013 1_565 S
C577 C119 2.015 . S
C585 C315 2.176 . S
C609 C23 2.013 . S
C617 C355 2.174 . S
C641 C55 1.970 1_655 S
C649 C395 2.166 1_655 S
C681 C272 0.495 . S
C673 C189 0.452 . S
C713 C312 0.440 . S
C705 C221 0.379 . S
C745 C352 0.502 . S
C737 C253 0.458 . S
C769 C157 0.374 . S
C777 C392 0.429 . S
C801 C61 0.453 1_655 S
C809 C263 0.503 . S
C841 C303 0.509 . S
C833 C93 0.429 1_565 S
C873 C343 0.447 . S
C865 C125 0.631 . S
C897 C29 0.657 . S
C905 C383 0.436 . S
C929 C177 2.483 . S
C937 C267 2.803 . S
C961 C209 2.483 . S
C969 C307 2.796 . S
C1001 C347 2.800 . S
C993 C241 2.487 . S
C1033 C387 2.808 . S
C1025 C145 2.508 . S
C1057 C49 2.504 1_655 S
C1065 C258 2.823 . S
C1097 C298 2.796 . S
C1089 C81 2.508 1_565 S
C1129 C338 2.802 . S
C1121 C113 2.506 . S
C1153 C17 2.544 . S
C1161 C378 2.811 . S
