# Generated by pormake.
# Topology tsx, (6,3)-cn, num edge types: 1
# Building blocks:
#     Node 0, Type 0, BuildingBlock: FUNLAD_clean_sbu_0, # of connection points: 6
#     Node 1, Type 0, BuildingBlock: FUNLAD_clean_sbu_0, # of connection points: 6
#     Node 2, Type 1, BuildingBlock: CUQRIR_clean_linker_1, # of connection points: 3
#     Node 3, Type 1, BuildingBlock: CUQRIR_clean_linker_1, # of connection points: 3
#     Node 4, Type 1, BuildingBlock: CUQRIR_clean_linker_1, # of connection points: 3
#     Node 5, Type 1, BuildingBlock: CUQRIR_clean_linker_1, # of connection points: 3
#     Edge 6, Type (0, 1), BuildingBlock: CIFDUS_clean_linker_0, # of connection points: 2
#     Edge 7, Type (0, 1), BuildingBlock: CIFDUS_clean_linker_0, # of connection points: 2
#     Edge 8, Type (0, 1), BuildingBlock: CIFDUS_clean_linker_0, # of connection points: 2
#     Edge 9, Type (0, 1), BuildingBlock: CIFDUS_clean_linker_0, # of connection points: 2
#     Edge 10, Type (0, 1), BuildingBlock: CIFDUS_clean_linker_0, # of connection points: 2
#     Edge 11, Type (0, 1), BuildingBlock: CIFDUS_clean_linker_0, # of connection points: 2
#     Edge 12, Type (0, 1), BuildingBlock: CIFDUS_clean_linker_0, # of connection points: 2
#     Edge 13, Type (0, 1), BuildingBlock: CIFDUS_clean_linker_0, # of connection points: 2
#     Edge 14, Type (0, 1), BuildingBlock: CIFDUS_clean_linker_0, # of connection points: 2
#     Edge 15, Type (0, 1), BuildingBlock: CIFDUS_clean_linker_0, # of connection points: 2
#     Edge 16, Type (0, 1), BuildingBlock: CIFDUS_clean_linker_0, # of connection points: 2
#     Edge 17, Type (0, 1), BuildingBlock: CIFDUS_clean_linker_0, # of connection points: 2
# Relax obj value: 0.160
# Max RMSD: 0.160
# Mean RMSD: 0.142
data_MOF--net-tsx--node1-FUNLAD_clean_sbu_0--node2-CUQRIR_clean_linker_1--edge1-CIFDUS_clean_linker_0
_symmetry_space_group_name_H-M    P1
_symmetry_Int_Tables_number       1
_symmetry_cell_setting            triclinic
loop_
_symmetry_equiv_pos_as_xyz
'x, y, z'
_cell_length_a     15.115716
_cell_length_b     16.613447
_cell_length_c     34.194816
_cell_angle_alpha  79.435082
_cell_angle_beta   92.533884
_cell_angle_gamma 90.491209
loop_
_atom_site_label
_atom_site_type_symbol
_atom_site_fract_x
_atom_site_fract_y
_atom_site_fract_z
_atom_type_partial_charge
C0 C 0.8291 0.93382 -0.00824 0.0
N1 N 0.97499 1.01572 0.08342 0.0
C2 C 0.90301 1.00874 0.10637 0.0
C3 C 0.91403 0.99712 0.14793 0.0
C4 C 0.99988 0.993 0.16574 0.0
C5 C 0.07251 0.99732 0.1413 0.0
C6 C 0.05858 1.00894 0.10016 0.0
Zn7 Zn 0.96417 0.03972 0.02252 0.0
C8 C 0.08219 0.93298 -0.01301 0.0
N9 N 0.95103 0.09041 0.89501 0.0
C10 C 0.87914 0.12337 0.87251 0.0
C11 C 0.02778 0.07807 0.87765 0.0
C12 C 0.03359 0.09589 0.83649 0.0
C13 C 0.96117 0.13089 0.81217 0.0
C14 C 0.88315 0.14516 0.83102 0.0
Zn15 Zn 0.95316 0.06467 0.95642 0.0
O16 O 0.87168 0.94689 0.02277 0.0
C17 C 0.83351 0.17272 -0.01132 0.0
O18 O 0.84347 0.97832 0.95798 0.0
H19 H 0.08557 0.05442 0.89564 0.0
H20 H 0.83715 1.01406 0.09243 0.0
H21 H 0.81882 0.13387 0.88668 0.0
O22 O 0.85884 0.12937 0.02203 0.0
O23 O 0.86611 0.16025 0.95685 0.0
H24 H 0.11505 1.01442 0.08153 0.0
O25 O 0.06497 0.14743 0.95747 0.0
O26 O 0.05878 0.13088 0.02245 0.0
O27 O 0.03893 0.96874 0.95634 0.0
O28 O 0.0681 0.95207 0.02052 0.0
C29 C 0.09381 0.16413 -0.0094 0.0
H30 H 0.85628 0.99471 0.16577 0.0
H31 H 0.13976 0.99343 0.15384 0.0
H32 H 0.09461 0.08058 0.82423 0.0
H33 H 0.82556 0.1731 0.81418 0.0
C34 C 0.46067 0.41381 0.49629 0.0
N35 N 0.58105 0.50586 0.58902 0.0
C36 C 0.50339 0.49941 0.60792 0.0
C37 C 0.50378 0.48959 0.64926 0.0
C38 C 0.58485 0.48716 0.67112 0.0
C39 C 0.66397 0.49197 0.65097 0.0
C40 C 0.66053 0.50092 0.60964 0.0
Zn41 Zn 0.57979 0.52613 0.52885 0.0
C42 C 0.71701 0.42831 0.49873 0.0
N43 N 0.58763 0.57471 0.40328 0.0
C44 C 0.51156 0.57178 0.38088 0.0
C45 C 0.66663 0.59316 0.38621 0.0
C46 C 0.6715 0.60829 0.34494 0.0
C47 C 0.59448 0.60352 0.32103 0.0
C48 C 0.5135 0.58586 0.33946 0.0
Zn49 Zn 0.58441 0.55312 0.46343 0.0
O50 O 0.48473 0.43684 0.52833 0.0
C51 C 0.44614 0.65335 0.48993 0.0
O52 O 0.49178 0.44971 0.46346 0.0
H53 H 0.72631 0.59532 0.40461 0.0
H54 H 0.4411 0.50361 0.59085 0.0
H55 H 0.44952 0.55736 0.39518 0.0
O56 O 0.47536 0.61821 0.52439 0.0
O57 O 0.4799 0.63568 0.45934 0.0
H58 H 0.72146 0.50562 0.59396 0.0
O59 O 0.67764 0.65135 0.46575 0.0
O60 O 0.67845 0.61465 0.53057 0.0
O61 O 0.68955 0.47275 0.46649 0.0
O62 O 0.68117 0.43391 0.5311 0.0
C63 C 0.70918 0.65873 0.49999 0.0
H64 H 0.44136 0.48727 0.66383 0.0
H65 H 0.72762 0.49006 0.66697 0.0
H66 H 0.73513 0.62236 0.33194 0.0
H67 H 0.45274 0.58007 0.32219 0.0
C68 C 0.0533 0.04113 0.44313 0.0
N69 N 0.07204 0.98777 0.41922 0.0
N70 N 0.96718 0.06314 0.43853 0.0
C71 C 0.12114 0.08003 0.46688 0.0
C72 C 0.93469 0.02348 0.40978 0.0
N73 N 0.99842 0.9772 0.39804 0.0
C74 C 0.84381 0.03706 0.38993 0.0
H75 H 0.1267 0.146 0.454 0.0
H76 H 0.18727 0.05266 0.46602 0.0
H77 H 0.09909 0.07562 0.49758 0.0
H78 H 0.80547 0.08299 0.4019 0.0
H79 H 0.80719 0.97815 0.39432 0.0
H80 H 0.84952 0.05801 0.35741 0.0
C81 C 0.14021 0.97783 0.5684 0.0
N82 N 0.14535 0.04934 0.58249 0.0
N83 N 0.07009 0.93291 0.58297 0.0
C84 C 0.21039 0.94433 0.54609 0.0
C85 C 0.0339 0.9775 0.60736 0.0
N86 N 0.07919 0.04852 0.6071 0.0
C87 C 0.95638 0.94886 0.63269 0.0
H88 H 0.26361 0.91729 0.56779 0.0
H89 H 0.24113 0.99182 0.52409 0.0
H90 H 0.18326 0.89503 0.53142 0.0
H91 H 0.9427 0.88283 0.63426 0.0
H92 H 0.89617 0.98308 0.61967 0.0
H93 H 0.969 0.95957 0.66352 0.0
C94 C 0.47326 0.5948 0.93088 0.0
N95 N 0.53849 0.56429 0.91197 0.0
N96 N 0.44208 0.66584 0.90913 0.0
C97 C 0.43195 0.5521 0.96797 0.0
C98 C 0.48941 0.67696 0.87593 0.0
N99 N 0.54841 0.61541 0.87777 0.0
C100 C 0.4742 0.74481 0.84061 0.0
H101 H 0.35929 0.56202 0.96566 0.0
H102 H 0.45846 0.57927 -0.00675 0.0
H103 H 0.44415 0.48562 0.97335 0.0
H104 H 0.43832 0.7969 0.84872 0.0
H105 H 0.43483 0.72075 0.8171 0.0
H106 H 0.53814 0.76742 0.82817 0.0
C107 C 0.52051 0.48171 0.05906 0.0
N108 N 0.5505 0.54295 0.07713 0.0
N109 N 0.43834 0.45739 0.07086 0.0
C110 C 0.57554 0.44287 0.03229 0.0
C111 C 0.4221 0.50386 0.09842 0.0
N112 N 0.48967 0.55636 0.1019 0.0
C113 C 0.34297 0.4929 0.12413 0.0
H114 H 0.63143 0.40984 0.05027 0.0
H115 H 0.60497 0.49104 0.00988 0.0
H116 H 0.53738 0.3988 0.01778 0.0
H117 H 0.364 0.49104 0.15578 0.0
H118 H 0.3067 0.43558 0.12164 0.0
H119 H 0.29755 0.54567 0.11475 0.0
H120 H 0.10084 0.32661 -0.01048 0.0
H121 H 0.26163 0.10991 0.00361 0.0
H122 H 0.38705 0.18258 0.02908 0.0
H123 H 0.44388 0.30333 0.05539 0.0
H124 H 0.28342 0.52079 0.03932 0.0
H125 H 0.16439 0.45253 0.00741 0.0
C126 C 0.16449 0.29661 -0.00318 0.0
C127 C 0.17324 0.21403 -0.00594 0.0
C128 C 0.23534 0.33825 0.01224 0.0
C129 C 0.25472 0.17434 0.0047 0.0
C130 C 0.32584 0.21547 0.01978 0.0
C131 C 0.3836 0.33598 0.04406 0.0
C132 C 0.37193 0.4166 0.04994 0.0
C133 C 0.31599 0.29671 0.02493 0.0
C134 C 0.29288 0.45805 0.03575 0.0
C135 C 0.22523 0.41938 0.0172 0.0
H136 H 0.09606 0.85758 0.92446 0.0
H137 H 0.22522 0.87921 0.03719 0.0
H138 H 0.35031 0.79796 0.02241 0.0
H139 H 0.42588 0.72847 0.97497 0.0
H140 H 0.29343 0.70514 0.86373 0.0
H141 H 0.16662 0.78221 0.87963 0.0
C142 C 0.15123 0.84412 0.94603 0.0
C143 C 0.15184 0.87472 0.98176 0.0
C144 C 0.2226 0.79882 0.9371 0.0
C145 C 0.22321 0.85596 0.00957 0.0
C146 C 0.29489 0.81025 0.00096 0.0
C147 C 0.36885 0.74026 0.95457 0.0
C148 C 0.36889 0.71294 0.91807 0.0
C149 C 0.29584 0.78275 0.96448 0.0
C150 C 0.29511 0.72772 0.89151 0.0
C151 C 0.22262 0.77082 0.90081 0.0
H152 H 0.86683 0.7792 0.02606 0.0
H153 H 0.65275 0.9342 0.97007 0.0
H154 H 0.54605 0.82464 -0.00778 0.0
H155 H 0.51397 0.68872 0.03324 0.0
H156 H 0.72848 0.53134 0.08526 0.0
H157 H 0.83612 0.6379 0.05958 0.0
C158 C 0.79689 0.78802 0.01794 0.0
C159 C 0.76716 0.86413 -0.00356 0.0
C160 C 0.73667 0.72495 0.03075 0.0
C161 C 0.6768 0.87559 0.98611 0.0
C162 C 0.61599 0.81331 -0.00084 0.0
C163 C 0.58447 0.6781 0.03821 0.0
C164 C 0.6142 0.60356 0.06117 0.0
C165 C 0.6451 0.7386 0.02234 0.0
C166 C 0.7051 0.58896 0.06791 0.0
C167 C 0.76608 0.64959 0.05313 0.0
H168 H 0.86068 0.33497 0.9755 0.0
H169 H 0.65536 0.15226 -0.01053 0.0
H170 H 0.54324 0.25778 0.96491 0.0
H171 H 0.50615 0.40165 0.93407 0.0
H172 H 0.71143 0.58436 0.92436 0.0
H173 H 0.82197 0.47956 0.95131 0.0
C174 C 0.79096 0.31899 0.97434 0.0
C175 C 0.76558 0.23677 0.9851 0.0
C176 C 0.72757 0.3797 0.95978 0.0
C177 C 0.67567 0.21579 0.98238 0.0
C178 C 0.61198 0.27583 0.96766 0.0
C179 C 0.57482 0.41823 0.93861 0.0
C180 C 0.60095 0.50051 0.92814 0.0
C181 C 0.63744 0.35779 0.95536 0.0
C182 C 0.69044 0.52128 0.93272 0.0
C183 C 0.75327 0.46159 0.94828 0.0
H184 H 0.83562 0.63616 0.55888 0.0
H185 H 0.75152 0.80436 0.45241 0.0
H186 H 0.86643 0.90129 0.46638 0.0
H187 H 0.97735 0.94543 0.51416 0.0
H188 H 0.06405 0.77497 0.61866 0.0
H189 H 0.96177 0.67095 0.60037 0.0
C190 C 0.8427 0.69407 0.53861 0.0
C191 C 0.78375 0.71432 0.50525 0.0
C192 C 0.90898 0.749 0.54669 0.0
C193 C 0.7953 0.78813 0.47858 0.0
C194 C 0.86079 0.84363 0.48664 0.0
C195 C 0.9752 0.88455 0.53202 0.0
C196 C 0.02717 0.86707 0.5676 0.0
C197 C 0.9161 0.8258 0.52125 0.0
C198 C 0.02451 0.7887 0.59108 0.0
C199 C 0.96565 0.72995 0.58077 0.0
H200 H 0.71056 0.26388 0.52283 0.0
H201 H 0.87559 0.46051 0.46679 0.0
H202 H 0.97419 0.36237 0.44562 0.0
H203 H 0.99942 0.22305 0.43415 0.0
H204 H 0.83171 0.0263 0.48706 0.0
H205 H 0.7467 0.12133 0.51775 0.0
C206 C 0.76995 0.28453 0.50726 0.0
C207 C 0.78687 0.3687 0.49666 0.0
C208 C 0.82403 0.22789 0.49362 0.0
C209 C 0.86234 0.39562 0.47551 0.0
C210 C 0.91801 0.33971 0.46305 0.0
C211 C 0.94587 0.20098 0.45333 0.0
C212 C 0.92167 0.11825 0.45861 0.0
C213 C 0.89745 0.25608 0.47053 0.0
C214 C 0.85077 0.09008 0.48259 0.0
C215 C 0.80254 0.14431 0.50018 0.0
H216 H 0.28338 0.39735 0.5033 0.0
H217 H 0.52418 0.26119 0.50287 0.0
H218 H 0.44943 0.13469 0.53241 0.0
H219 H 0.31969 0.06638 0.56537 0.0
H220 H 0.07397 0.19878 0.5587 0.0
H221 H 0.14688 0.32395 0.52671 0.0
C222 C 0.31813 0.33926 0.50813 0.0
C223 C 0.40835 0.3379 0.5 0.0
C224 C 0.27471 0.26687 0.52539 0.0
C225 C 0.45389 0.26299 0.50773 0.0
C226 C 0.41159 0.191 0.52533 0.0
C227 C 0.28149 0.12191 0.55594 0.0
C228 C 0.19137 0.12297 0.56458 0.0
C229 C 0.32267 0.19264 0.53537 0.0
C230 C 0.14388 0.19666 0.5533 0.0
C231 C 0.1852 0.268 0.53442 0.0
H232 H 0.42628 0.78799 0.43252 0.0
H233 H 0.29814 0.64944 0.53356 0.0
H234 H 0.16684 0.73748 0.51798 0.0
H235 H 0.08793 0.85284 0.47446 0.0
H236 H 0.22303 1.00064 0.37883 0.0
H237 H 0.35182 0.90916 0.3924 0.0
C238 C 0.36985 0.77763 0.45135 0.0
C239 C 0.37168 0.71234 0.48415 0.0
C240 C 0.29566 0.82931 0.4426 0.0
C241 C 0.29853 0.69976 0.50844 0.0
C242 C 0.22326 0.74951 0.49926 0.0
C243 C 0.14583 0.86446 0.45677 0.0
C244 C 0.14603 0.93213 0.42539 0.0
C245 C 0.22091 0.81404 0.46624 0.0
C246 C 0.221 0.94779 0.40253 0.0
C247 C 0.2948 0.89604 0.41064 0.0
H248 H 0.91679 0.89846 0.22784 0.0
H249 H 0.11605 0.08582 0.20066 0.0
H250 H 0.13959 0.09001 0.27105 0.0
H251 H 0.09518 0.04972 0.33947 0.0
H252 H 0.89656 0.86474 0.36893 0.0
H253 H 0.8799 0.85028 0.29851 0.0
C254 C 0.96543 0.93989 0.23747 0.0
C255 C 0.01476 0.99158 0.20904 0.0
C256 C 0.97857 0.94233 0.27827 0.0
C257 C 0.07807 0.04463 0.22191 0.0
C258 C 0.09135 0.04741 0.26215 0.0
C259 C 0.05103 1.00395 0.33056 0.0
C260 C 0.99879 0.95689 0.35899 0.0
C261 C 0.04145 0.99729 0.29044 0.0
C262 C 0.9382 0.90054 0.34725 0.0
C263 C 0.92842 0.8929 0.30711 0.0
H264 H 0.10875 0.16574 0.76754 0.0
H265 H 0.82507 0.13388 0.75487 0.0
H266 H 0.83767 0.13405 0.68443 0.0
H267 H 0.93071 0.11387 0.62991 0.0
H268 H 0.21386 0.10276 0.64971 0.0
H269 H 0.20096 0.15152 0.71242 0.0
C270 C 0.04928 0.15753 0.74986 0.0
C271 C 0.96639 0.14669 0.76768 0.0
C272 C 0.05743 0.15005 0.70998 0.0
C273 C 0.89018 0.14202 0.74286 0.0
C274 C 0.89725 0.14128 0.70229 0.0
C275 C 0.98942 0.12204 0.64808 0.0
C276 C 0.07272 0.10103 0.6362 0.0
C277 C 0.9808 0.14068 0.68613 0.0
C278 C 0.14883 0.11727 0.65852 0.0
C279 C 0.14129 0.14385 0.6947 0.0
H280 H 0.67883 0.58758 0.71115 0.0
H281 H 0.49169 0.38791 0.72711 0.0
H282 H 0.47429 0.40345 0.79609 0.0
H283 H 0.49672 0.48621 0.84807 0.0
H284 H 0.67699 0.68991 0.83161 0.0
H285 H 0.71451 0.66026 0.76643 0.0
C286 C 0.63605 0.5462 0.73011 0.0
C287 C 0.58596 0.48715 0.71425 0.0
C288 C 0.62476 0.55696 0.76925 0.0
C289 C 0.52995 0.43437 0.73877 0.0
C290 C 0.52006 0.44323 0.77807 0.0
C291 C 0.54588 0.52244 0.83044 0.0
C292 C 0.58356 0.5904 0.8437 0.0
C293 C 0.56477 0.50607 0.79307 0.0
C294 C 0.64678 0.63797 0.82118 0.0
C295 C 0.66785 0.62102 0.78415 0.0
H296 H 0.47895 0.6788 0.26232 0.0
H297 H 0.72139 0.53856 0.28207 0.0
H298 H 0.71805 0.52592 0.21235 0.0
H299 H 0.63308 0.53309 0.14957 0.0
H300 H 0.38704 0.66531 0.12936 0.0
H301 H 0.40412 0.70269 0.19557 0.0
C302 C 0.53142 0.6462 0.2512 0.0
C303 C 0.59956 0.60871 0.2775 0.0
C304 C 0.52772 0.63688 0.21123 0.0
C305 C 0.66835 0.56837 0.26253 0.0
C306 C 0.66618 0.56044 0.22269 0.0
C307 C 0.58499 0.57252 0.15924 0.0
C308 C 0.50842 0.5955 0.1354 0.0
C309 C 0.59449 0.5916 0.19729 0.0
C310 C 0.44567 0.64597 0.14791 0.0
C311 C 0.45545 0.66697 0.18564 0.0
loop_
_geom_bond_atom_site_label_1
_geom_bond_atom_site_label_2
_geom_bond_distance
_geom_bond_site_symmetry_2
_ccdc_geom_bond_type
C0 O16 1.251 . S
C0 O18 1.254 1_554 S
N1 C2 1.333 1_445 S
N1 C6 1.307 . S
N1 Zn7 2.020 . S
C2 N1 1.333 1_665 S
C2 C3 1.379 . S
C2 H20 0.952 . S
C3 C2 1.379 . S
C3 C4 1.390 1_655 S
C3 H30 0.949 . S
C4 C3 1.390 1_455 S
C4 C5 1.357 1_565 S
C5 C4 1.357 1_545 S
C5 C6 1.370 . S
C5 H31 0.950 . S
C6 N1 1.307 . S
C6 C5 1.370 . S
C6 H24 0.948 . S
Zn7 N1 2.020 . S
Zn7 O16 2.039 1_445 S
Zn7 O22 2.034 1_455 S
Zn7 O26 2.025 . S
Zn7 O28 2.024 1_545 S
C8 O27 1.246 1_554 S
C8 O28 1.249 . S
N9 C10 1.307 1_455 S
N9 C11 1.333 . S
N9 Zn15 2.020 . S
C10 N9 1.307 1_655 S
C10 C14 1.370 . S
C10 H21 0.948 . S
C11 N9 1.333 . S
C11 C12 1.379 . S
C11 H19 0.952 . S
C12 C11 1.379 . S
C12 C13 1.390 . S
C12 H32 0.949 . S
C13 C12 1.390 . S
C13 C14 1.357 1_455 S
C14 C10 1.370 . S
C14 C13 1.357 1_655 S
C14 H33 0.950 . S
Zn15 N9 2.020 . S
Zn15 O18 2.025 1_445 S
Zn15 O23 2.024 1_455 S
Zn15 O25 2.039 . S
Zn15 O27 2.034 1_545 S
O16 C0 1.251 . S
O16 Zn7 2.039 1_665 S
C17 O22 1.246 . S
C17 O23 1.249 1_554 S
O18 C0 1.254 1_556 S
O18 Zn15 2.025 1_665 S
H19 C11 0.952 . S
H20 C2 0.952 . S
H21 C10 0.948 . S
O22 Zn7 2.034 1_655 S
O22 C17 1.246 . S
O23 Zn15 2.024 1_655 S
O23 C17 1.249 1_556 S
H24 C6 0.948 . S
O25 Zn15 2.039 . S
O25 C29 1.251 1_556 S
O26 Zn7 2.025 . S
O26 C29 1.254 . S
O27 C8 1.246 1_556 S
O27 Zn15 2.034 1_565 S
O28 Zn7 2.024 1_565 S
O28 C8 1.249 . S
C29 O25 1.251 1_554 S
C29 O26 1.254 . S
H30 C3 0.949 . S
H31 C5 0.950 . S
H32 C12 0.949 . S
H33 C14 0.950 . S
C34 O50 1.251 . S
C34 O52 1.254 . S
N35 C36 1.333 . S
N35 C40 1.307 . S
N35 Zn41 2.020 . S
C36 N35 1.333 . S
C36 C37 1.379 . S
C36 H54 0.952 . S
C37 C36 1.379 . S
C37 C38 1.390 . S
C37 H64 0.949 . S
C38 C37 1.390 . S
C38 C39 1.357 . S
C39 C38 1.357 . S
C39 C40 1.370 . S
C39 H65 0.950 . S
C40 N35 1.307 . S
C40 C39 1.370 . S
C40 H58 0.948 . S
Zn41 N35 2.020 . S
Zn41 O50 2.039 . S
Zn41 O56 2.034 . S
Zn41 O60 2.025 . S
Zn41 O62 2.024 . S
C42 O61 1.246 . S
C42 O62 1.249 . S
N43 C44 1.307 . S
N43 C45 1.333 . S
N43 Zn49 2.020 . S
C44 N43 1.307 . S
C44 C48 1.370 . S
C44 H55 0.948 . S
C45 N43 1.333 . S
C45 C46 1.379 . S
C45 H53 0.952 . S
C46 C45 1.379 . S
C46 C47 1.390 . S
C46 H66 0.949 . S
C47 C46 1.390 . S
C47 C48 1.357 . S
C48 C44 1.370 . S
C48 C47 1.357 . S
C48 H67 0.950 . S
Zn49 N43 2.020 . S
Zn49 O52 2.025 . S
Zn49 O57 2.024 . S
Zn49 O59 2.039 . S
Zn49 O61 2.034 . S
O50 C34 1.251 . S
O50 Zn41 2.039 . S
C51 O56 1.246 . S
C51 O57 1.249 . S
O52 C34 1.254 . S
O52 Zn49 2.025 . S
H53 C45 0.952 . S
H54 C36 0.952 . S
H55 C44 0.948 . S
O56 Zn41 2.034 . S
O56 C51 1.246 . S
O57 Zn49 2.024 . S
O57 C51 1.249 . S
H58 C40 0.948 . S
O59 Zn49 2.039 . S
O59 C63 1.251 . S
O60 Zn41 2.025 . S
O60 C63 1.254 . S
O61 C42 1.246 . S
O61 Zn49 2.034 . S
O62 Zn41 2.024 . S
O62 C42 1.249 . S
C63 O59 1.251 . S
C63 O60 1.254 . S
H64 C37 0.949 . S
H65 C39 0.950 . S
H66 C46 0.949 . S
H67 C48 0.950 . S
C68 N69 1.317 1_545 S
C68 N70 1.348 1_455 S
C68 C71 1.485 1_545 S
N69 C68 1.317 1_565 S
N69 N73 1.370 . S
N70 C68 1.348 1_655 S
N70 C72 1.346 . S
C71 C68 1.485 1_565 S
C71 H75 0.960 1_455 S
C71 H76 0.961 1_565 S
C71 H77 0.960 . S
C72 N70 1.346 . S
C72 N73 1.307 1_645 S
C72 C74 1.486 . S
N73 N69 1.370 . S
N73 C72 1.307 1_465 S
C74 C72 1.486 . S
C74 H78 0.960 . S
C74 H79 0.960 . S
C74 H80 0.959 . S
H75 C71 0.960 1_655 S
H76 C71 0.961 1_545 S
H77 C71 0.960 . S
H78 C74 0.960 . S
H79 C74 0.960 . S
H80 C74 0.959 . S
C81 N82 1.317 . S
C81 N83 1.348 1_445 S
C81 C84 1.485 . S
N82 C81 1.317 . S
N82 N86 1.370 . S
N83 C81 1.348 1_665 S
N83 C85 1.343 1_565 S
C84 C81 1.485 . S
C84 H88 0.952 1_455 S
C84 H89 0.961 . S
C84 H90 0.960 . S
C85 N83 1.343 1_545 S
C85 N86 1.315 1_655 S
C85 C87 1.481 1_545 S
N86 N82 1.370 . S
N86 C85 1.315 1_455 S
C87 C85 1.481 1_565 S
C87 H91 0.960 . S
C87 H92 0.960 . S
C87 H93 0.959 . S
H88 C84 0.952 1_655 S
H89 C84 0.961 . S
H90 C84 0.960 . S
H91 C87 0.960 . S
H92 C87 0.960 . S
H93 C87 0.959 . S
C94 N95 1.317 1_554 S
C94 N96 1.348 1_554 S
C94 C97 1.485 . S
N95 C94 1.317 1_556 S
N95 N99 1.370 . S
N96 C94 1.348 1_556 S
N96 C98 1.346 . S
C97 C94 1.485 . S
C97 H101 0.960 . S
C97 H102 0.961 . S
C97 H103 0.960 . S
C98 N96 1.346 . S
C98 N99 1.307 . S
C98 C100 1.486 . S
N99 N95 1.370 . S
N99 C98 1.307 . S
C100 C98 1.486 . S
C100 H104 0.960 . S
C100 H105 0.960 . S
C100 H106 0.959 . S
H101 C97 0.960 . S
H102 C97 0.961 . S
H103 C97 0.960 . S
H104 C100 0.960 . S
H105 C100 0.960 . S
H106 C100 0.959 . S
C107 N108 1.317 . S
C107 N109 1.348 . S
C107 C110 1.485 1_554 S
N108 C107 1.317 . S
N108 N112 1.370 . S
N109 C107 1.348 . S
N109 C111 1.346 . S
C110 C107 1.485 1_556 S
C110 H114 0.960 . S
C110 H115 0.961 . S
C110 H116 0.960 . S
C111 N109 1.346 . S
C111 N112 1.307 . S
C111 C113 1.486 . S
N112 N108 1.370 . S
N112 C111 1.307 . S
C113 C111 1.486 . S
C113 H117 0.960 . S
C113 H118 0.960 . S
C113 H119 0.959 . S
H114 C110 0.960 . S
H115 C110 0.961 . S
H116 C110 0.960 . S
H117 C113 0.960 . S
H118 C113 0.960 . S
H119 C113 0.959 . S
H120 C126 0.930 . S
H121 C129 0.929 1_556 S
H122 C130 0.930 . S
H123 C131 0.930 . S
H124 C134 0.930 . S
H125 C135 0.930 . S
C126 H120 0.930 . S
C126 C127 1.355 . S
C126 C128 1.415 . S
C127 C126 1.355 . S
C127 C129 1.419 . S
C128 C126 1.415 . S
C128 C133 1.425 . S
C128 C135 1.409 . S
C129 H121 0.929 1_554 S
C129 C127 1.419 . S
C129 C130 1.363 . S
C130 H122 0.930 . S
C130 C129 1.363 . S
C130 C133 1.409 . S
C131 H123 0.930 . S
C131 C132 1.355 . S
C131 C133 1.415 . S
C132 C131 1.355 . S
C132 C134 1.419 . S
C133 C128 1.425 . S
C133 C130 1.409 . S
C133 C131 1.415 . S
C134 H124 0.930 . S
C134 C132 1.419 . S
C134 C135 1.362 . S
C135 H125 0.930 . S
C135 C128 1.409 . S
C135 C134 1.362 . S
H136 C142 0.930 . S
H137 C145 0.930 . S
H138 C146 0.930 . S
H139 C147 0.930 . S
H140 C150 0.930 . S
H141 C151 0.930 . S
C142 H136 0.930 . S
C142 C143 1.355 . S
C142 C144 1.415 . S
C143 C142 1.355 . S
C143 C145 1.419 1_554 S
C144 C142 1.415 . S
C144 C149 1.425 1_554 S
C144 C151 1.409 . S
C145 H137 0.930 . S
C145 C143 1.419 1_556 S
C145 C146 1.362 . S
C146 H138 0.930 . S
C146 C145 1.362 . S
C146 C149 1.409 . S
C147 H139 0.930 . S
C147 C148 1.355 1_556 S
C147 C149 1.415 . S
C148 C147 1.355 1_554 S
C148 C150 1.419 . S
C149 C144 1.425 1_556 S
C149 C146 1.409 . S
C149 C147 1.415 . S
C150 H140 0.930 . S
C150 C148 1.419 . S
C150 C151 1.362 . S
C151 H141 0.930 . S
C151 C144 1.409 . S
C151 C150 1.362 . S
H152 C158 0.930 . S
H153 C161 0.930 . S
H154 C162 0.930 . S
H155 C163 0.930 1_556 S
H156 C166 0.930 . S
H157 C167 0.930 . S
C158 H152 0.930 . S
C158 C159 1.355 . S
C158 C160 1.415 . S
C159 C158 1.355 . S
C159 C161 1.419 1_554 S
C160 C158 1.415 . S
C160 C165 1.425 . S
C160 C167 1.409 . S
C161 H153 0.930 . S
C161 C159 1.419 1_556 S
C161 C162 1.362 . S
C162 H154 0.930 . S
C162 C161 1.362 . S
C162 C165 1.409 1_556 S
C163 H155 0.930 1_554 S
C163 C164 1.355 . S
C163 C165 1.415 . S
C164 C163 1.355 . S
C164 C166 1.419 . S
C165 C160 1.425 . S
C165 C162 1.409 1_554 S
C165 C163 1.415 . S
C166 H156 0.930 . S
C166 C164 1.419 . S
C166 C167 1.362 . S
C167 H157 0.930 . S
C167 C160 1.409 . S
C167 C166 1.362 . S
H168 C174 0.930 . S
H169 C177 0.930 . S
H170 C178 0.930 . S
H171 C179 0.930 . S
H172 C182 0.930 . S
H173 C183 0.930 . S
C174 H168 0.930 . S
C174 C175 1.355 1_556 S
C174 C176 1.415 . S
C175 C174 1.355 1_554 S
C175 C177 1.419 . S
C176 C174 1.415 . S
C176 C181 1.425 . S
C176 C183 1.409 . S
C177 H169 0.930 . S
C177 C175 1.419 . S
C177 C178 1.362 1_554 S
C178 H170 0.930 . S
C178 C177 1.362 1_556 S
C178 C181 1.409 . S
C179 H171 0.930 . S
C179 C180 1.355 . S
C179 C181 1.415 . S
C180 C179 1.355 . S
C180 C182 1.419 . S
C181 C176 1.425 . S
C181 C178 1.409 . S
C181 C179 1.415 . S
C182 H172 0.930 . S
C182 C180 1.419 . S
C182 C183 1.362 . S
C183 H173 0.930 . S
C183 C176 1.409 . S
C183 C182 1.362 . S
H184 C190 0.930 . S
H185 C193 0.930 . S
H186 C194 0.930 . S
H187 C195 0.930 . S
H188 C198 0.930 1_455 S
H189 C199 0.930 . S
C190 H184 0.930 . S
C190 C191 1.355 . S
C190 C192 1.415 . S
C191 C190 1.355 . S
C191 C193 1.419 . S
C192 C190 1.415 . S
C192 C197 1.425 . S
C192 C199 1.409 . S
C193 H185 0.930 . S
C193 C191 1.419 . S
C193 C194 1.362 . S
C194 H186 0.930 . S
C194 C193 1.362 . S
C194 C197 1.409 . S
C195 H187 0.930 . S
C195 C196 1.355 . S
C195 C197 1.415 . S
C196 C195 1.355 . S
C196 C198 1.419 . S
C197 C192 1.425 . S
C197 C194 1.409 . S
C197 C195 1.415 . S
C198 H188 0.930 1_655 S
C198 C196 1.419 . S
C198 C199 1.362 . S
C199 H189 0.930 . S
C199 C192 1.409 . S
C199 C198 1.362 . S
H200 C206 0.930 . S
H201 C209 0.930 . S
H202 C210 0.930 . S
H203 C211 0.930 . S
H204 C214 0.930 . S
H205 C215 0.930 . S
C206 H200 0.930 . S
C206 C207 1.355 . S
C206 C208 1.415 . S
C207 C206 1.355 . S
C207 C209 1.419 . S
C208 C206 1.415 . S
C208 C213 1.425 . S
C208 C215 1.409 . S
C209 H201 0.930 . S
C209 C207 1.419 . S
C209 C210 1.362 . S
C210 H202 0.930 . S
C210 C209 1.362 . S
C210 C213 1.409 . S
C211 H203 0.930 . S
C211 C212 1.355 . S
C211 C213 1.415 . S
C212 C211 1.355 . S
C212 C214 1.419 . S
C213 C208 1.425 . S
C213 C210 1.409 . S
C213 C211 1.415 . S
C214 H204 0.930 . S
C214 C212 1.419 . S
C214 C215 1.362 . S
C215 H205 0.930 . S
C215 C208 1.409 . S
C215 C214 1.362 . S
H216 C222 0.930 . S
H217 C225 0.930 . S
H218 C226 0.930 . S
H219 C227 0.930 . S
H220 C230 0.930 . S
H221 C231 0.930 . S
C222 H216 0.930 . S
C222 C223 1.355 . S
C222 C224 1.415 . S
C223 C222 1.355 . S
C223 C225 1.419 . S
C224 C222 1.415 . S
C224 C229 1.425 . S
C224 C231 1.409 . S
C225 H217 0.930 . S
C225 C223 1.419 . S
C225 C226 1.362 . S
C226 H218 0.930 . S
C226 C225 1.362 . S
C226 C229 1.409 . S
C227 H219 0.930 . S
C227 C228 1.355 . S
C227 C229 1.415 . S
C228 C227 1.355 . S
C228 C230 1.419 . S
C229 C224 1.425 . S
C229 C226 1.409 . S
C229 C227 1.415 . S
C230 H220 0.930 . S
C230 C228 1.419 . S
C230 C231 1.362 . S
C231 H221 0.930 . S
C231 C224 1.409 . S
C231 C230 1.362 . S
H232 C238 0.930 . S
H233 C241 0.930 . S
H234 C242 0.930 . S
H235 C243 0.930 . S
H236 C246 0.930 . S
H237 C247 0.930 . S
C238 H232 0.930 . S
C238 C239 1.355 . S
C238 C240 1.415 . S
C239 C238 1.355 . S
C239 C241 1.419 . S
C240 C238 1.415 . S
C240 C245 1.425 . S
C240 C247 1.409 . S
C241 H233 0.930 . S
C241 C239 1.419 . S
C241 C242 1.362 . S
C242 H234 0.930 . S
C242 C241 1.362 . S
C242 C245 1.409 . S
C243 H235 0.930 . S
C243 C244 1.355 . S
C243 C245 1.415 . S
C244 C243 1.355 . S
C244 C246 1.419 . S
C245 C240 1.425 . S
C245 C242 1.409 . S
C245 C243 1.415 . S
C246 H236 0.930 . S
C246 C244 1.419 . S
C246 C247 1.362 . S
C247 H237 0.930 . S
C247 C240 1.409 . S
C247 C246 1.362 . S
H248 C254 0.930 . S
H249 C257 0.930 . S
H250 C258 0.930 . S
H251 C259 0.930 . S
H252 C262 0.930 . S
H253 C263 0.930 . S
C254 H248 0.930 . S
C254 C255 1.355 1_655 S
C254 C256 1.415 1_655 S
C255 C254 1.355 1_455 S
C255 C257 1.419 1_565 S
C256 C254 1.415 1_455 S
C256 C261 1.425 1_565 S
C256 C263 1.409 1_455 S
C257 H249 0.930 . S
C257 C255 1.419 1_545 S
C257 C258 1.362 . S
C258 H250 0.930 . S
C258 C257 1.362 . S
C258 C261 1.409 . S
C259 H251 0.930 . S
C259 C260 1.355 1_545 S
C259 C261 1.415 . S
C260 C259 1.355 1_565 S
C260 C262 1.419 1_455 S
C261 C256 1.425 1_545 S
C261 C258 1.409 . S
C261 C259 1.415 . S
C262 H252 0.930 . S
C262 C260 1.419 1_655 S
C262 C263 1.362 . S
C263 H253 0.930 . S
C263 C256 1.409 1_655 S
C263 C262 1.362 . S
H264 C270 0.930 . S
H265 C273 0.930 . S
H266 C274 0.930 1_565 S
H267 C275 0.930 . S
H268 C278 0.930 . S
H269 C279 0.930 . S
C270 H264 0.930 . S
C270 C271 1.355 . S
C270 C272 1.415 . S
C271 C270 1.355 . S
C271 C273 1.419 1_455 S
C272 C270 1.415 . S
C272 C277 1.418 1_455 S
C272 C279 1.409 . S
C273 H265 0.930 . S
C273 C271 1.419 1_655 S
C273 C274 1.362 . S
C274 H266 0.930 1_545 S
C274 C273 1.362 . S
C274 C277 1.415 . S
C275 H267 0.930 . S
C275 C276 1.355 1_655 S
C275 C277 1.416 . S
C276 C275 1.355 1_455 S
C276 C278 1.419 . S
C277 C272 1.418 1_655 S
C277 C274 1.415 . S
C277 C275 1.416 . S
C278 H268 0.930 . S
C278 C276 1.419 . S
C278 C279 1.362 . S
C279 H269 0.930 . S
C279 C272 1.409 . S
C279 C278 1.362 . S
H280 C286 0.930 . S
H281 C289 0.930 . S
H282 C290 0.930 . S
H283 C291 0.930 . S
H284 C294 0.930 . S
H285 C295 0.930 . S
C286 H280 0.930 . S
C286 C287 1.355 . S
C286 C288 1.415 . S
C287 C286 1.355 . S
C287 C289 1.419 . S
C288 C286 1.415 . S
C288 C293 1.425 . S
C288 C295 1.409 . S
C289 H281 0.930 . S
C289 C287 1.419 . S
C289 C290 1.362 . S
C290 H282 0.930 . S
C290 C289 1.362 . S
C290 C293 1.409 . S
C291 H283 0.930 . S
C291 C292 1.355 . S
C291 C293 1.415 . S
C292 C291 1.355 . S
C292 C294 1.419 . S
C293 C288 1.425 . S
C293 C290 1.409 . S
C293 C291 1.415 . S
C294 H284 0.930 . S
C294 C292 1.419 . S
C294 C295 1.362 . S
C295 H285 0.930 . S
C295 C288 1.409 . S
C295 C294 1.362 . S
H296 C302 0.930 . S
H297 C305 0.930 . S
H298 C306 0.930 . S
H299 C307 0.930 . S
H300 C310 0.930 . S
H301 C311 0.930 . S
C302 H296 0.930 . S
C302 C303 1.355 . S
C302 C304 1.415 . S
C303 C302 1.355 . S
C303 C305 1.419 . S
C304 C302 1.415 . S
C304 C309 1.425 . S
C304 C311 1.409 . S
C305 H297 0.930 . S
C305 C303 1.419 . S
C305 C306 1.362 . S
C306 H298 0.930 . S
C306 C305 1.362 . S
C306 C309 1.409 . S
C307 H299 0.930 . S
C307 C308 1.355 . S
C307 C309 1.415 . S
C308 C307 1.355 . S
C308 C310 1.419 . S
C309 C304 1.425 . S
C309 C306 1.409 . S
C309 C307 1.415 . S
C310 H300 0.930 . S
C310 C308 1.419 . S
C310 C311 1.362 . S
C311 H301 0.930 . S
C311 C304 1.409 . S
C311 C310 1.362 . S
C132 N109 1.375 . S
C127 C29 1.407 . S
C143 C8 1.405 . S
C148 N96 1.418 1_554 S
C159 C0 1.503 . S
C164 N108 1.497 . S
C175 C17 1.475 . S
C180 N95 1.476 . S
C191 C63 1.389 . S
C196 N83 1.379 . S
C207 C42 1.421 . S
C212 N70 1.372 . S
C228 N82 1.506 . S
C223 C34 1.504 . S
C244 N69 1.479 . S
C239 C51 1.469 . S
C255 C4 1.500 . S
C260 N73 1.520 . S
C271 C13 1.513 . S
C276 N86 1.533 . S
C292 N99 1.517 . S
C287 C38 1.517 . S
C303 C47 1.517 . S
C308 N112 1.523 . S
