# Generated by pormake.
# Topology llk, (3,12)-cn, num edge types: 1
# Building blocks:
#     Node 0, Type 0, BuildingBlock: BETDAH_clean_linker_0, # of connection points: 3
#     Node 1, Type 0, BuildingBlock: BETDAH_clean_linker_0, # of connection points: 3
#     Node 2, Type 0, BuildingBlock: BETDAH_clean_linker_0, # of connection points: 3
#     Node 3, Type 0, BuildingBlock: BETDAH_clean_linker_0, # of connection points: 3
#     Node 4, Type 0, BuildingBlock: BETDAH_clean_linker_0, # of connection points: 3
#     Node 5, Type 0, BuildingBlock: BETDAH_clean_linker_0, # of connection points: 3
#     Node 6, Type 0, BuildingBlock: BETDAH_clean_linker_0, # of connection points: 3
#     Node 7, Type 0, BuildingBlock: BETDAH_clean_linker_0, # of connection points: 3
#     Node 8, Type 0, BuildingBlock: BETDAH_clean_linker_0, # of connection points: 3
#     Node 9, Type 0, BuildingBlock: BETDAH_clean_linker_0, # of connection points: 3
#     Node 10, Type 0, BuildingBlock: BETDAH_clean_linker_0, # of connection points: 3
#     Node 11, Type 0, BuildingBlock: BETDAH_clean_linker_0, # of connection points: 3
#     Node 12, Type 0, BuildingBlock: BETDAH_clean_linker_0, # of connection points: 3
#     Node 13, Type 0, BuildingBlock: BETDAH_clean_linker_0, # of connection points: 3
#     Node 14, Type 0, BuildingBlock: BETDAH_clean_linker_0, # of connection points: 3
#     Node 15, Type 0, BuildingBlock: BETDAH_clean_linker_0, # of connection points: 3
#     Node 16, Type 0, BuildingBlock: BETDAH_clean_linker_0, # of connection points: 3
#     Node 17, Type 0, BuildingBlock: BETDAH_clean_linker_0, # of connection points: 3
#     Node 18, Type 0, BuildingBlock: BETDAH_clean_linker_0, # of connection points: 3
#     Node 19, Type 0, BuildingBlock: BETDAH_clean_linker_0, # of connection points: 3
#     Node 20, Type 0, BuildingBlock: BETDAH_clean_linker_0, # of connection points: 3
#     Node 21, Type 0, BuildingBlock: BETDAH_clean_linker_0, # of connection points: 3
#     Node 22, Type 0, BuildingBlock: BETDAH_clean_linker_0, # of connection points: 3
#     Node 23, Type 0, BuildingBlock: BETDAH_clean_linker_0, # of connection points: 3
#     Node 24, Type 1, BuildingBlock: EZIPEK_clean_sbu_0, # of connection points: 12
#     Node 25, Type 1, BuildingBlock: EZIPEK_clean_sbu_0, # of connection points: 12
#     Node 26, Type 1, BuildingBlock: EZIPEK_clean_sbu_0, # of connection points: 12
#     Node 27, Type 1, BuildingBlock: EZIPEK_clean_sbu_0, # of connection points: 12
#     Node 28, Type 1, BuildingBlock: EZIPEK_clean_sbu_0, # of connection points: 12
#     Node 29, Type 1, BuildingBlock: EZIPEK_clean_sbu_0, # of connection points: 12
#     Edge 30, Type (0, 1), BuildingBlock: AJUNOK_clean_linker_0, # of connection points: 2
#     Edge 31, Type (0, 1), BuildingBlock: AJUNOK_clean_linker_0, # of connection points: 2
#     Edge 32, Type (0, 1), BuildingBlock: AJUNOK_clean_linker_0, # of connection points: 2
#     Edge 33, Type (0, 1), BuildingBlock: AJUNOK_clean_linker_0, # of connection points: 2
#     Edge 34, Type (0, 1), BuildingBlock: AJUNOK_clean_linker_0, # of connection points: 2
#     Edge 35, Type (0, 1), BuildingBlock: AJUNOK_clean_linker_0, # of connection points: 2
#     Edge 36, Type (0, 1), BuildingBlock: AJUNOK_clean_linker_0, # of connection points: 2
#     Edge 37, Type (0, 1), BuildingBlock: AJUNOK_clean_linker_0, # of connection points: 2
#     Edge 38, Type (0, 1), BuildingBlock: AJUNOK_clean_linker_0, # of connection points: 2
#     Edge 39, Type (0, 1), BuildingBlock: AJUNOK_clean_linker_0, # of connection points: 2
#     Edge 40, Type (0, 1), BuildingBlock: AJUNOK_clean_linker_0, # of connection points: 2
#     Edge 41, Type (0, 1), BuildingBlock: AJUNOK_clean_linker_0, # of connection points: 2
#     Edge 42, Type (0, 1), BuildingBlock: AJUNOK_clean_linker_0, # of connection points: 2
#     Edge 43, Type (0, 1), BuildingBlock: AJUNOK_clean_linker_0, # of connection points: 2
#     Edge 44, Type (0, 1), BuildingBlock: AJUNOK_clean_linker_0, # of connection points: 2
#     Edge 45, Type (0, 1), BuildingBlock: AJUNOK_clean_linker_0, # of connection points: 2
#     Edge 46, Type (0, 1), BuildingBlock: AJUNOK_clean_linker_0, # of connection points: 2
#     Edge 47, Type (0, 1), BuildingBlock: AJUNOK_clean_linker_0, # of connection points: 2
#     Edge 48, Type (0, 1), BuildingBlock: AJUNOK_clean_linker_0, # of connection points: 2
#     Edge 49, Type (0, 1), BuildingBlock: AJUNOK_clean_linker_0, # of connection points: 2
#     Edge 50, Type (0, 1), BuildingBlock: AJUNOK_clean_linker_0, # of connection points: 2
#     Edge 51, Type (0, 1), BuildingBlock: AJUNOK_clean_linker_0, # of connection points: 2
#     Edge 52, Type (0, 1), BuildingBlock: AJUNOK_clean_linker_0, # of connection points: 2
#     Edge 53, Type (0, 1), BuildingBlock: AJUNOK_clean_linker_0, # of connection points: 2
#     Edge 54, Type (0, 1), BuildingBlock: AJUNOK_clean_linker_0, # of connection points: 2
#     Edge 55, Type (0, 1), BuildingBlock: AJUNOK_clean_linker_0, # of connection points: 2
#     Edge 56, Type (0, 1), BuildingBlock: AJUNOK_clean_linker_0, # of connection points: 2
#     Edge 57, Type (0, 1), BuildingBlock: AJUNOK_clean_linker_0, # of connection points: 2
#     Edge 58, Type (0, 1), BuildingBlock: AJUNOK_clean_linker_0, # of connection points: 2
#     Edge 59, Type (0, 1), BuildingBlock: AJUNOK_clean_linker_0, # of connection points: 2
#     Edge 60, Type (0, 1), BuildingBlock: AJUNOK_clean_linker_0, # of connection points: 2
#     Edge 61, Type (0, 1), BuildingBlock: AJUNOK_clean_linker_0, # of connection points: 2
#     Edge 62, Type (0, 1), BuildingBlock: AJUNOK_clean_linker_0, # of connection points: 2
#     Edge 63, Type (0, 1), BuildingBlock: AJUNOK_clean_linker_0, # of connection points: 2
#     Edge 64, Type (0, 1), BuildingBlock: AJUNOK_clean_linker_0, # of connection points: 2
#     Edge 65, Type (0, 1), BuildingBlock: AJUNOK_clean_linker_0, # of connection points: 2
#     Edge 66, Type (0, 1), BuildingBlock: AJUNOK_clean_linker_0, # of connection points: 2
#     Edge 67, Type (0, 1), BuildingBlock: AJUNOK_clean_linker_0, # of connection points: 2
#     Edge 68, Type (0, 1), BuildingBlock: AJUNOK_clean_linker_0, # of connection points: 2
#     Edge 69, Type (0, 1), BuildingBlock: AJUNOK_clean_linker_0, # of connection points: 2
#     Edge 70, Type (0, 1), BuildingBlock: AJUNOK_clean_linker_0, # of connection points: 2
#     Edge 71, Type (0, 1), BuildingBlock: AJUNOK_clean_linker_0, # of connection points: 2
#     Edge 72, Type (0, 1), BuildingBlock: AJUNOK_clean_linker_0, # of connection points: 2
#     Edge 73, Type (0, 1), BuildingBlock: AJUNOK_clean_linker_0, # of connection points: 2
#     Edge 74, Type (0, 1), BuildingBlock: AJUNOK_clean_linker_0, # of connection points: 2
#     Edge 75, Type (0, 1), BuildingBlock: AJUNOK_clean_linker_0, # of connection points: 2
#     Edge 76, Type (0, 1), BuildingBlock: AJUNOK_clean_linker_0, # of connection points: 2
#     Edge 77, Type (0, 1), BuildingBlock: AJUNOK_clean_linker_0, # of connection points: 2
#     Edge 78, Type (0, 1), BuildingBlock: AJUNOK_clean_linker_0, # of connection points: 2
#     Edge 79, Type (0, 1), BuildingBlock: AJUNOK_clean_linker_0, # of connection points: 2
#     Edge 80, Type (0, 1), BuildingBlock: AJUNOK_clean_linker_0, # of connection points: 2
#     Edge 81, Type (0, 1), BuildingBlock: AJUNOK_clean_linker_0, # of connection points: 2
#     Edge 82, Type (0, 1), BuildingBlock: AJUNOK_clean_linker_0, # of connection points: 2
#     Edge 83, Type (0, 1), BuildingBlock: AJUNOK_clean_linker_0, # of connection points: 2
#     Edge 84, Type (0, 1), BuildingBlock: AJUNOK_clean_linker_0, # of connection points: 2
#     Edge 85, Type (0, 1), BuildingBlock: AJUNOK_clean_linker_0, # of connection points: 2
#     Edge 86, Type (0, 1), BuildingBlock: AJUNOK_clean_linker_0, # of connection points: 2
#     Edge 87, Type (0, 1), BuildingBlock: AJUNOK_clean_linker_0, # of connection points: 2
#     Edge 88, Type (0, 1), BuildingBlock: AJUNOK_clean_linker_0, # of connection points: 2
#     Edge 89, Type (0, 1), BuildingBlock: AJUNOK_clean_linker_0, # of connection points: 2
#     Edge 90, Type (0, 1), BuildingBlock: AJUNOK_clean_linker_0, # of connection points: 2
#     Edge 91, Type (0, 1), BuildingBlock: AJUNOK_clean_linker_0, # of connection points: 2
#     Edge 92, Type (0, 1), BuildingBlock: AJUNOK_clean_linker_0, # of connection points: 2
#     Edge 93, Type (0, 1), BuildingBlock: AJUNOK_clean_linker_0, # of connection points: 2
#     Edge 94, Type (0, 1), BuildingBlock: AJUNOK_clean_linker_0, # of connection points: 2
#     Edge 95, Type (0, 1), BuildingBlock: AJUNOK_clean_linker_0, # of connection points: 2
#     Edge 96, Type (0, 1), BuildingBlock: AJUNOK_clean_linker_0, # of connection points: 2
#     Edge 97, Type (0, 1), BuildingBlock: AJUNOK_clean_linker_0, # of connection points: 2
#     Edge 98, Type (0, 1), BuildingBlock: AJUNOK_clean_linker_0, # of connection points: 2
#     Edge 99, Type (0, 1), BuildingBlock: AJUNOK_clean_linker_0, # of connection points: 2
#     Edge 100, Type (0, 1), BuildingBlock: AJUNOK_clean_linker_0, # of connection points: 2
#     Edge 101, Type (0, 1), BuildingBlock: AJUNOK_clean_linker_0, # of connection points: 2
# Relax obj value: 0.071
# Max RMSD: 0.165
# Mean RMSD: 0.122
data_MOF--net-llk--node1-EZIPEK_clean_sbu_0--node2-BETDAH_clean_linker_0--edge1-AJUNOK_clean_linker_0
_symmetry_space_group_name_H-M    P1
_symmetry_Int_Tables_number       1
_symmetry_cell_setting            triclinic
loop_
_symmetry_equiv_pos_as_xyz
'x, y, z'
_cell_length_a     35.843448
_cell_length_b     36.050674
_cell_length_c     36.191379
_cell_angle_alpha  90.006774
_cell_angle_beta   89.960482
_cell_angle_gamma 90.000826
loop_
_atom_site_label
_atom_site_type_symbol
_atom_site_fract_x
_atom_site_fract_y
_atom_site_fract_z
_atom_type_partial_charge
H0 H 0.01711 0.25559 0.37392 0.0
H1 H 0.02222 0.31749 0.27289 0.0
H2 H 0.01041 0.19854 0.26977 0.0
C3 C 0.01683 0.25615 0.34397 0.0
C4 C 0.01381 0.22274 0.32442 0.0
C5 C 0.0195 0.29031 0.32572 0.0
C6 C 0.01937 0.29117 0.287 0.0
C7 C 0.01597 0.25812 0.26661 0.0
C8 C 0.01333 0.22396 0.28548 0.0
N9 N 0.01495 0.25838 0.22728 0.0
C10 C 0.01677 0.29034 0.20553 0.0
H11 H 0.65778 0.00798 0.26406 0.0
H12 H 0.76021 0.0064 0.32488 0.0
H13 H 0.76246 0.01031 0.20581 0.0
C14 C 0.68804 0.00755 0.26419 0.0
C15 C 0.70746 0.00853 0.23057 0.0
C16 C 0.70682 0.00567 0.29804 0.0
C17 C 0.74583 0.00751 0.29861 0.0
C18 C 0.76609 0.00986 0.26535 0.0
C19 C 0.74677 0.0099 0.23139 0.0
N20 N 0.80578 0.01146 0.2652 0.0
C21 C 0.82768 0.01238 0.29706 0.0
H22 H 0.02758 0.64413 0.26162 0.0
H23 H 0.03679 0.7445 0.32405 0.0
H24 H 0.01859 0.74936 0.2065 0.0
C25 C 0.02819 0.67418 0.26261 0.0
C26 C 0.02263 0.69431 0.22998 0.0
C27 C 0.0336 0.69205 0.29651 0.0
C28 C 0.03293 0.73087 0.29785 0.0
C29 C 0.02742 0.75189 0.26561 0.0
C30 C 0.02292 0.73339 0.23149 0.0
N31 N 0.02578 0.7914 0.26683 0.0
C32 C 0.02529 0.8125 0.2993 0.0
H33 H 0.26948 0.99572 0.37344 0.0
H34 H 0.33027 0.99707 0.27177 0.0
H35 H 0.20987 0.99369 0.27037 0.0
C36 C 0.26945 0.9947 0.34348 0.0
C37 C 0.2355 0.99335 0.3245 0.0
C38 C 0.30347 0.9949 0.32462 0.0
C39 C 0.30378 0.99622 0.28601 0.0
C40 C 0.27006 0.99586 0.26609 0.0
C41 C 0.23591 0.99442 0.28555 0.0
N42 N 0.26975 0.99635 0.22674 0.0
C43 C 0.3018 0.9978 0.20479 0.0
H44 H 0.0192 0.75638 0.65406 0.0
H45 H 0.02436 0.69452 0.75504 0.0
H46 H 0.013 0.81361 0.75812 0.0
C47 C 0.01913 0.75584 0.68402 0.0
C48 C 0.01611 0.78924 0.70354 0.0
C49 C 0.02171 0.72172 0.70226 0.0
C50 C 0.02161 0.72086 0.741 0.0
C51 C 0.01834 0.75396 0.76142 0.0
C52 C 0.01585 0.78813 0.74249 0.0
N53 N 0.01713 0.75373 0.80079 0.0
C54 C 0.01773 0.72169 0.82253 0.0
H55 H 0.26249 0.99611 0.65485 0.0
H56 H 0.32899 0.0087 0.75284 0.0
H57 H 0.20898 0.00924 0.76028 0.0
C58 C 0.26448 0.99958 0.68456 0.0
C59 C 0.23169 1.00263 0.70536 0.0
C60 C 0.29969 1.00198 0.70138 0.0
C61 C 0.30191 0.00602 0.73987 0.0
C62 C 0.26929 0.00802 0.76142 0.0
C63 C 0.2342 0.00704 0.74389 0.0
N64 N 0.27099 0.01148 0.80056 0.0
C65 C 0.30382 0.00856 0.82108 0.0
H66 H 0.0272 0.3675 0.76354 0.0
H67 H 0.03907 0.26663 0.70267 0.0
H68 H 0.01817 0.26271 0.81973 0.0
C69 C 0.02748 0.33744 0.76292 0.0
C70 C 0.02189 0.31763 0.79577 0.0
C71 C 0.03243 0.31926 0.72915 0.0
C72 C 0.03366 0.28047 0.72845 0.0
C73 C 0.02807 0.2597 0.7608 0.0
C74 C 0.02265 0.2785 0.79465 0.0
N75 N 0.027 0.22017 0.75984 0.0
C76 C 0.02643 0.19893 0.72744 0.0
H77 H 0.76787 0.01359 0.65257 0.0
H78 H 0.70707 1.0023 0.75328 0.0
H79 H 0.82601 0.01786 0.75651 0.0
C80 C 0.76753 0.01318 0.68253 0.0
C81 C 0.80102 0.01687 0.70206 0.0
C82 C 0.7336 0.00841 0.70095 0.0
C83 C 0.73313 0.00708 0.7395 0.0
C84 C 0.76618 0.01083 0.75994 0.0
C85 C 0.8003 0.01532 0.741 0.0
N86 N 0.7658 0.00996 0.79929 0.0
C87 C 0.73338 0.00791 0.82071 0.0
H88 H 0.3769 0.25523 1.00371 0.0
H89 H 0.27453 0.31641 0.01095 0.0
H90 H 0.27206 0.19745 0.99985 0.0
C91 C 0.34666 0.25571 1.00407 0.0
C92 C 0.32702 0.22215 1.00207 0.0
C93 C 0.32803 0.28982 1.00704 0.0
C94 C 0.28895 0.29026 1.0076 0.0
C95 C 0.26858 0.25701 1.00456 0.0
C96 C 0.28777 0.22303 1.00211 0.0
N97 N 0.2289 0.25698 1.00394 0.0
C98 C 0.20743 0.28916 1.00553 0.0
H99 H 0.37971 0.75677 0.01164 0.0
H100 H 0.27793 0.69461 0.01632 0.0
H101 H 0.27463 0.81289 0.99865 0.0
C102 C 0.34949 0.756 0.01055 0.0
C103 C 0.32962 0.78896 1.00459 0.0
C104 C 0.33098 0.72204 0.01491 0.0
C105 C 0.29201 0.72094 0.01291 0.0
C106 C 0.27142 0.75361 1.00691 0.0
C107 C 0.29039 0.78765 1.00322 0.0
N108 N 0.23183 0.75293 1.00417 0.0
C109 C 0.21054 0.72063 1.00679 0.0
H110 H 0.7687 0.3641 0.04405 0.0
H111 H 0.70625 0.26393 0.02898 0.0
H112 H 0.82612 0.2622 0.02035 0.0
C113 C 0.76812 0.33445 0.03896 0.0
C114 C 0.80142 0.31596 0.03059 0.0
C115 C 0.73364 0.31638 0.0364 0.0
C116 C 0.73286 0.27788 0.03148 0.0
C117 C 0.76638 0.25786 0.02746 0.0
C118 C 0.8006 0.27718 0.02626 0.0
N119 N 0.7663 0.21877 0.02222 0.0
C120 C 0.73394 0.19741 0.02002 0.0
H121 H 0.76969 0.64622 0.0162 0.0
H122 H 0.70709 0.74741 0.01432 0.0
H123 H 0.82654 0.75069 0.02768 0.0
C124 C 0.76899 0.67627 0.01753 0.0
C125 C 0.8024 0.696 0.0218 0.0
C126 C 0.73464 0.69457 0.01533 0.0
C127 C 0.73363 0.73338 0.01687 0.0
C128 C 0.76674 0.75385 0.02147 0.0
C129 C 0.80108 0.73498 0.02377 0.0
N130 N 0.76628 0.79321 0.02429 0.0
C131 C 0.73393 0.81465 0.02279 0.0
H132 H 0.5109 0.75592 0.87381 0.0
H133 H 0.51463 0.81767 0.77267 0.0
H134 H 0.51615 0.69809 0.76998 0.0
C135 C 0.51228 0.75629 0.84386 0.0
C136 C 0.51415 0.72271 0.82452 0.0
C137 C 0.51311 0.79044 0.82552 0.0
C138 C 0.51351 0.79123 0.7868 0.0
C139 C 0.5138 0.7579 0.7665 0.0
C140 C 0.51446 0.72369 0.78556 0.0
N141 N 0.51454 0.7579 0.72714 0.0
C142 C 0.51367 0.78974 0.70513 0.0
H143 H 0.15787 0.50154 0.76268 0.0
H144 H 0.2598 0.50057 0.82446 0.0
H145 H 0.26247 0.51786 0.70665 0.0
C146 C 0.18807 0.5032 0.76334 0.0
C147 C 0.20771 0.50928 0.73036 0.0
C148 C 0.20666 0.49996 0.79723 0.0
C149 C 0.24559 0.50311 0.79822 0.0
C150 C 0.26593 0.50963 0.7656 0.0
C151 C 0.24685 0.51242 0.73171 0.0
N152 N 0.30536 0.51414 0.76616 0.0
C153 C 0.32688 0.51272 0.79822 0.0
H154 H 0.52679 0.1443 0.76333 0.0
H155 H 0.52865 0.2455 0.8249 0.0
H156 H 0.51695 0.24868 0.70643 0.0
C157 C 0.52608 0.17437 0.76378 0.0
C158 C 0.52161 0.19388 0.7306 0.0
C159 C 0.52904 0.19286 0.79762 0.0
C160 C 0.52704 0.23158 0.79856 0.0
C161 C 0.52317 0.25207 0.76576 0.0
C162 C 0.52059 0.23303 0.73172 0.0
N163 N 0.52151 0.29159 0.76633 0.0
C164 C 0.52201 0.31311 0.79851 0.0
H165 H 0.76991 0.50639 0.87251 0.0
H166 H 0.83124 0.5159 0.77141 0.0
H167 H 0.71081 0.51123 0.76903 0.0
C168 C 0.76992 0.50837 0.84259 0.0
C169 C 0.73606 0.50806 0.82323 0.0
C170 C 0.80393 0.51115 0.82394 0.0
C171 C 0.80459 0.51404 0.78542 0.0
C172 C 0.771 0.51404 0.76527 0.0
C173 C 0.73674 0.51149 0.78442 0.0
N174 N 0.77091 0.51594 0.72594 0.0
C175 C 0.80314 0.5154 0.70421 0.0
H176 H 0.50688 0.25805 0.15253 0.0
H177 H 0.51148 0.19398 0.25255 0.0
H178 H 0.52037 0.31327 0.25673 0.0
C179 C 0.50869 0.25668 0.18242 0.0
C180 C 0.51262 0.28961 0.20243 0.0
C181 C 0.50793 0.22218 0.20026 0.0
C182 C 0.51201 0.22065 0.23881 0.0
C183 C 0.51665 0.25342 0.25944 0.0
C184 C 0.51707 0.2879 0.241 0.0
N185 N 0.52086 0.25266 0.29856 0.0
C186 C 0.52014 0.22061 0.32025 0.0
H187 H 0.76768 0.48985 0.15242 0.0
H188 H 0.83066 0.48647 0.25286 0.0
H189 H 0.71076 0.495 0.25678 0.0
C190 C 0.76849 0.48891 0.18235 0.0
C191 C 0.73496 0.49029 0.20219 0.0
C192 C 0.80294 0.4867 0.20039 0.0
C193 C 0.80404 0.48841 0.23902 0.0
C194 C 0.77099 0.49245 0.25959 0.0
C195 C 0.73638 0.49292 0.24101 0.0
N196 N 0.7718 0.49603 0.29877 0.0
C197 C 0.80446 0.49766 0.31978 0.0
H198 H 0.50386 0.86733 0.26441 0.0
H199 H 0.51735 0.76746 0.20224 0.0
H200 H 0.50696 0.76218 0.32056 0.0
C201 C 0.50561 0.83731 0.26357 0.0
C202 C 0.50441 0.81718 0.29664 0.0
C203 C 0.51002 0.81952 0.22948 0.0
C204 C 0.51288 0.78086 0.22839 0.0
C205 C 0.5113 0.75977 0.26095 0.0
C206 C 0.5076 0.77818 0.29523 0.0
N207 N 0.51382 0.72031 0.2599 0.0
C208 C 0.51521 0.69919 0.22745 0.0
H209 H 0.27026 0.49323 0.15264 0.0
H210 H 0.20663 0.49574 0.2526 0.0
H211 H 0.32682 0.49279 0.25732 0.0
C212 C 0.2693 0.49255 0.18259 0.0
C213 C 0.30267 0.49154 0.20258 0.0
C214 C 0.23473 0.49288 0.20046 0.0
C215 C 0.23343 0.49474 0.23906 0.0
C216 C 0.26655 0.49482 0.25991 0.0
C217 C 0.30121 0.4932 0.24145 0.0
N218 N 0.26583 0.49596 0.29924 0.0
C219 C 0.23329 0.49736 0.32046 0.0
H220 H 0.8773 0.7548 0.50308 0.0
H221 H 0.77557 0.81596 0.51386 0.0
H222 H 0.77268 0.69665 0.50845 0.0
C223 C 0.84711 0.75524 0.50502 0.0
C224 C 0.82738 0.72167 0.50474 0.0
C225 C 0.82859 0.7893 0.50832 0.0
C226 C 0.78966 0.78973 0.51093 0.0
C227 C 0.76921 0.75643 0.51098 0.0
C228 C 0.78829 0.72239 0.5083 0.0
N229 N 0.72964 0.7565 0.51404 0.0
C230 C 0.70808 0.78871 0.51381 0.0
H231 H 0.87789 0.25804 0.51116 0.0
H232 H 0.77712 0.19469 0.51815 0.0
H233 H 0.77238 0.31407 0.52145 0.0
C234 C 0.84774 0.2571 0.51364 0.0
C235 C 0.82763 0.29033 0.51653 0.0
C236 C 0.82977 0.22264 0.51458 0.0
C237 C 0.79083 0.22134 0.51685 0.0
C238 C 0.76983 0.25425 0.51882 0.0
C239 C 0.78841 0.28874 0.51879 0.0
N240 N 0.73027 0.25332 0.52197 0.0
C241 C 0.70924 0.22074 0.52109 0.0
H242 H 0.2674 0.86554 0.49681 0.0
H243 H 0.20614 0.76351 0.4995 0.0
H244 H 0.32641 0.76181 0.49406 0.0
C245 C 0.26716 0.83544 0.49675 0.0
C246 C 0.30103 0.8162 0.49608 0.0
C247 C 0.2331 0.81667 0.49932 0.0
C248 C 0.2326 0.77789 0.49761 0.0
C249 C 0.26626 0.75788 0.49485 0.0
C250 C 0.30045 0.77721 0.49438 0.0
N251 N 0.26662 0.71845 0.49403 0.0
C252 C 0.23487 0.69661 0.49858 0.0
H253 H 0.26975 0.14621 0.51405 0.0
H254 H 0.20628 0.24639 0.52202 0.0
H255 H 0.32654 0.25103 0.52174 0.0
C256 C 0.26894 0.17619 0.51661 0.0
C257 C 0.3024 0.19614 0.51822 0.0
C258 C 0.23442 0.19399 0.51933 0.0
C259 C 0.2331 0.23277 0.52043 0.0
C260 C 0.26635 0.25361 0.52076 0.0
C261 C 0.30096 0.2351 0.52005 0.0
N262 N 0.26586 0.29298 0.52299 0.0
C263 C 0.23338 0.31421 0.52223 0.0
C264 C 0.01519 0.91428 0.60205 0.0
C265 C 0.01901 0.91717 0.42156 0.0
C266 C 0.01919 0.09389 0.60524 0.0
C267 C 0.01766 0.09682 0.42491 0.0
C268 C 0.92875 0.09599 0.51441 0.0
C269 C 0.92658 0.91669 0.51144 0.0
C270 C 0.10888 0.09396 0.51784 0.0
C271 C 0.10681 0.91463 0.51372 0.0
C272 C 0.1104 1.00211 0.42597 0.0
C273 C 0.93017 0.01024 0.42065 0.0
C274 C 0.10562 1.00315 0.60588 0.0
C275 C 0.92566 0.00968 0.60084 0.0
Eu276 Eu 0.01698 0.93524 0.51208 0.0
O277 O 0.98511 0.97335 0.47864 0.0
O278 O 0.04966 0.97124 0.5468 0.0
Eu279 Eu 0.94703 0.00622 0.51112 0.0
Eu280 Eu 0.08814 1.00445 0.51546 0.0
O281 O 0.98323 0.97236 0.5448 0.0
O282 O 0.0511 0.97302 0.48108 0.0
Eu283 Eu 0.01602 1.00419 0.58354 0.0
Eu284 Eu 0.01992 0.0069 0.44332 0.0
O285 O 0.98446 0.03783 0.54559 0.0
O286 O 0.98622 0.03933 0.48038 0.0
O287 O 0.05273 0.039 0.48174 0.0
O288 O 0.0503 0.03734 0.54776 0.0
Eu289 Eu 0.0188 0.07569 0.51472 0.0
O290 O 0.01497 0.90354 0.56663 0.0
O291 O 0.01795 0.90513 0.45655 0.0
O292 O 0.02013 0.1058 0.57022 0.0
O293 O 0.01585 0.10735 0.46033 0.0
O294 O 0.91659 0.06126 0.51034 0.0
O295 O 0.91495 0.95187 0.51079 0.0
O296 O 0.11962 0.05855 0.51844 0.0
O297 O 0.11828 0.9497 0.51607 0.0
O298 O 0.07555 0.00537 0.41348 0.0
O299 O 0.96608 0.00996 0.41096 0.0
O300 O 0.06998 1.00447 0.61641 0.0
O301 O 0.96048 0.00604 0.61326 0.0
O302 O 0.07392 0.10628 0.51504 0.0
O303 O 0.96424 0.10659 0.51758 0.0
O304 O 0.07149 0.90321 0.51124 0.0
O305 O 0.96194 0.9053 0.51182 0.0
O306 O 0.01944 0.95277 0.41131 0.0
O307 O 0.02084 0.06195 0.41295 0.0
O308 O 0.01589 0.94927 0.614 0.0
O309 O 0.01711 0.05834 0.61543 0.0
O310 O 0.9152 0.01027 0.56538 0.0
O311 O 0.91724 0.00803 0.4553 0.0
O312 O 0.11795 1.00222 0.57102 0.0
O313 O 0.12064 1.00141 0.4615 0.0
C314 C 0.51638 0.91784 0.10347 0.0
C315 C 0.51151 0.09707 0.10104 0.0
C316 C 0.51909 0.91575 0.9248 0.0
C317 C 0.52483 0.0947 0.92284 0.0
C318 C 0.61041 1.00444 0.92544 0.0
C319 C 0.60703 0.00802 0.1042 0.0
C320 C 0.42821 1.00393 0.92262 0.0
C321 C 0.42544 0.00522 0.10148 0.0
C322 C 0.42748 0.09594 1.00727 0.0
C323 C 0.60908 0.09606 0.01303 0.0
C324 C 0.42829 0.91607 0.00828 0.0
C325 C 0.60962 0.9171 0.01669 0.0
Eu326 Eu 0.51658 0.00739 0.08311 0.0
O327 O 0.55052 0.04024 0.04637 0.0
O328 O 0.48439 0.97344 0.04598 0.0
Eu329 Eu 0.58832 0.00659 0.01455 0.0
Eu330 Eu 0.44738 0.00609 0.0123 0.0
O331 O 0.55068 0.97393 0.04722 0.0
O332 O 0.48428 0.03984 0.04486 0.0
Eu333 Eu 0.5187 0.93606 0.01413 0.0
Eu334 Eu 0.51804 0.07674 0.012 0.0
O335 O 0.55191 0.97301 0.98107 0.0
O336 O 0.55129 0.03863 0.9805 0.0
O337 O 0.48517 0.03889 0.97918 0.0
O338 O 0.48597 0.97312 0.98074 0.0
Eu339 Eu 0.51897 0.00535 0.94301 0.0
O340 O 0.51749 0.95322 0.11413 0.0
O341 O 0.51437 0.06232 0.11336 0.0
O342 O 0.51706 0.9506 0.91273 0.0
O343 O 0.52379 0.05938 0.91203 0.0
O344 O 0.62066 0.00583 0.96086 0.0
O345 O 0.61919 0.00866 0.06934 0.0
O346 O 0.41701 1.00374 0.95775 0.0
O347 O 0.415 0.00611 0.06609 0.0
O348 O 0.46298 0.10714 1.00624 0.0
O349 O 0.5737 0.10804 0.01422 0.0
O350 O 0.4639 0.90518 0.00896 0.0
O351 O 0.57426 0.90518 0.01673 0.0
O352 O 0.46371 0.00595 0.91118 0.0
O353 O 0.57511 1.0035 0.91343 0.0
O354 O 0.46075 0.00531 0.11345 0.0
O355 O 0.5713 0.00709 0.1148 0.0
O356 O 0.51202 0.10787 0.0658 0.0
O357 O 0.52213 0.10709 0.95745 0.0
O358 O 0.51563 0.90557 0.06871 0.0
O359 O 0.52142 0.90495 0.95998 0.0
O360 O 0.62019 0.95255 0.01575 0.0
O361 O 0.61966 0.06065 0.01281 0.0
O362 O 0.41621 0.95104 0.01085 0.0
O363 O 0.41586 0.06088 0.01059 0.0
C364 C 0.01974 0.41217 0.10016 0.0
C365 C 0.01548 0.41774 0.92125 0.0
C366 C 0.01723 0.59362 0.105 0.0
C367 C 0.01911 0.59854 0.92597 0.0
C368 C 0.92899 0.59594 0.01888 0.0
C369 C 0.92735 0.41624 0.01251 0.0
C370 C 0.10937 0.59569 0.01438 0.0
C371 C 0.10813 0.41486 0.01071 0.0
C372 C 0.1079 0.50214 0.92289 0.0
C373 C 0.92812 0.50918 0.92413 0.0
C374 C 0.10916 0.50036 0.10151 0.0
C375 C 0.92912 0.49604 0.10229 0.0
Eu376 Eu 0.01793 0.43528 0.01112 0.0
O377 O 0.9849 0.47353 0.97926 0.0
O378 O 0.05153 0.47176 0.04447 0.0
Eu379 Eu 0.94841 0.50594 0.01348 0.0
Eu380 Eu 0.08929 0.50525 0.0122 0.0
O381 O 0.98585 0.4721 0.04514 0.0
O382 O 0.05097 0.47348 0.97913 0.0
Eu383 Eu 0.01906 0.5034 0.08346 0.0
Eu384 Eu 0.01794 0.50761 0.94303 0.0
O385 O 0.986 0.53774 0.04737 0.0
O386 O 0.98546 0.53988 0.98134 0.0
O387 O 0.05178 0.53952 0.98061 0.0
O388 O 0.05233 0.53737 0.04684 0.0
Eu389 Eu 0.01907 0.5758 0.01518 0.0
O390 O 0.01844 0.40273 0.06455 0.0
O391 O 0.01788 0.40526 0.9559 0.0
O392 O 0.01967 0.60592 0.0703 0.0
O393 O 0.01939 0.60853 0.96153 0.0
O394 O 0.91764 0.56063 0.01911 0.0
O395 O 0.9168 0.45173 0.01173 0.0
O396 O 0.12099 0.5604 0.01272 0.0
O397 O 0.1202 0.44995 0.00985 0.0
O398 O 0.07238 0.50313 0.91206 0.0
O399 O 0.96325 0.5098 0.91222 0.0
O400 O 0.07418 0.50267 0.11382 0.0
O401 O 0.96421 0.49859 0.11431 0.0
O402 O 0.07385 0.60657 0.01589 0.0
O403 O 0.96431 0.60742 0.01648 0.0
O404 O 0.07256 0.40407 0.01175 0.0
O405 O 0.9626 0.4042 0.01304 0.0
O406 O 0.01447 0.4534 0.91112 0.0
O407 O 0.0189 0.56357 0.91353 0.0
O408 O 0.02019 0.4471 0.11288 0.0
O409 O 0.01606 0.55796 0.11531 0.0
O410 O 0.91782 0.49866 0.06733 0.0
O411 O 0.91683 0.50779 0.95924 0.0
O412 O 0.12014 0.50078 0.06631 0.0
O413 O 0.1202 0.50427 0.95759 0.0
C414 C 0.51616 0.41455 0.10214 0.0
C415 C 0.51831 0.59408 0.1052 0.0
C416 C 0.51961 0.41673 0.92158 0.0
C417 C 0.51834 0.59662 0.92503 0.0
C418 C 0.60937 0.50413 0.92343 0.0
C419 C 0.60856 0.501 0.10298 0.0
C420 C 0.42892 0.50745 0.92216 0.0
C421 C 0.4281 0.49995 0.10243 0.0
C422 C 0.42902 0.59541 0.01827 0.0
C423 C 0.60919 0.59417 0.01306 0.0
C424 C 0.42752 0.41616 0.01096 0.0
C425 C 0.60742 0.4148 0.01846 0.0
Eu426 Eu 0.51826 0.50442 0.08343 0.0
O427 O 0.55222 0.53775 0.04724 0.0
O428 O 0.48525 0.47246 0.04504 0.0
Eu429 Eu 0.58872 0.5046 0.01327 0.0
Eu430 Eu 0.44767 0.50567 0.01245 0.0
O431 O 0.55067 0.47188 0.04539 0.0
O432 O 0.48518 0.53777 0.04648 0.0
Eu433 Eu 0.51793 0.43486 0.01215 0.0
Eu434 Eu 0.51909 0.57545 0.0149 0.0
O435 O 0.55159 0.47217 0.97962 0.0
O436 O 0.5518 0.53855 0.98114 0.0
O437 O 0.48591 0.5391 0.98078 0.0
O438 O 0.4853 0.47289 0.9794 0.0
Eu439 Eu 0.519 0.50646 0.94309 0.0
O440 O 0.51872 0.44948 0.11398 0.0
O441 O 0.51761 0.5585 0.11539 0.0
O442 O 0.51886 0.4523 0.91128 0.0
O443 O 0.51753 0.56165 0.91293 0.0
O444 O 0.62024 0.50154 0.95868 0.0
O445 O 0.61981 0.50165 0.06778 0.0
O446 O 0.41686 0.50798 0.95718 0.0
O447 O 0.41694 0.50028 0.06718 0.0
O448 O 0.46454 0.60634 0.018 0.0
O449 O 0.57408 0.60613 0.01537 0.0
O450 O 0.46289 0.40482 0.01187 0.0
O451 O 0.57214 0.40312 0.01769 0.0
O452 O 0.46459 0.50639 0.91173 0.0
O453 O 0.57418 0.50771 0.91188 0.0
O454 O 0.46322 0.50262 0.11427 0.0
O455 O 0.57328 0.50286 0.11468 0.0
O456 O 0.51933 0.60595 0.07018 0.0
O457 O 0.5195 0.60722 0.96047 0.0
O458 O 0.51445 0.40361 0.06686 0.0
O459 O 0.51994 0.40461 0.95659 0.0
O460 O 0.61881 0.4499 0.01582 0.0
O461 O 0.62024 0.55887 0.01149 0.0
O462 O 0.41589 0.45131 0.01007 0.0
O463 O 0.41678 0.56053 0.01566 0.0
C464 C 0.02366 0.41885 0.60444 0.0
C465 C 0.01973 0.41507 0.42593 0.0
C466 C 0.01909 0.59797 0.60084 0.0
C467 C 0.0268 0.59369 0.42193 0.0
C468 C 0.92862 0.59665 0.50801 0.0
C469 C 0.92766 0.41714 0.51601 0.0
C470 C 0.1106 0.59542 0.51258 0.0
C471 C 0.10937 0.41653 0.51615 0.0
C472 C 0.11019 0.50339 0.42467 0.0
C473 C 0.92799 0.50431 0.42351 0.0
C474 C 0.1083 0.51065 0.60361 0.0
C475 C 0.92717 0.50917 0.6025 0.0
Eu476 Eu 0.01863 0.43629 0.51517 0.0
O477 O 0.98571 0.47292 0.48133 0.0
O478 O 0.05127 0.47433 0.54744 0.0
Eu479 Eu 0.94807 0.5069 0.5131 0.0
Eu480 Eu 0.08904 0.50608 0.51408 0.0
O481 O 0.98488 0.47421 0.54709 0.0
O482 O 0.05191 0.47259 0.48149 0.0
Eu483 Eu 0.01785 0.50825 0.58335 0.0
Eu484 Eu 0.01904 0.50473 0.44334 0.0
O485 O 0.98558 0.54082 0.54505 0.0
O486 O 0.98588 0.5391 0.47937 0.0
O487 O 0.05206 0.5382 0.4801 0.0
O488 O 0.05145 0.54008 0.54556 0.0
Eu489 Eu 0.01944 0.57703 0.51141 0.0
O490 O 0.02118 0.40637 0.56987 0.0
O491 O 0.02033 0.40449 0.46127 0.0
O492 O 0.02054 0.60864 0.56553 0.0
O493 O 0.02417 0.60656 0.45639 0.0
O494 O 0.91681 0.56168 0.51114 0.0
O495 O 0.91616 0.45233 0.51391 0.0
O496 O 0.12089 0.55993 0.51358 0.0
O497 O 0.12031 0.45183 0.51501 0.0
O498 O 0.0748 0.50222 0.41297 0.0
O499 O 0.96354 0.50496 0.41203 0.0
O500 O 0.07266 0.51239 0.61432 0.0
O501 O 0.96245 0.50794 0.61435 0.0
O502 O 0.07535 0.60767 0.51119 0.0
O503 O 0.96421 0.60779 0.5072 0.0
O504 O 0.07392 0.4049 0.51657 0.0
O505 O 0.96318 0.40587 0.51725 0.0
O506 O 0.01846 0.44982 0.41355 0.0
O507 O 0.0246 0.55825 0.41163 0.0
O508 O 0.02294 0.45434 0.61494 0.0
O509 O 0.01695 0.5632 0.61311 0.0
O510 O 0.91617 0.50943 0.56729 0.0
O511 O 0.91711 0.50476 0.45877 0.0
O512 O 0.12016 0.50722 0.5688 0.0
O513 O 0.1208 0.50535 0.45997 0.0
C514 C 0.51503 0.91154 0.59977 0.0
C515 C 0.51323 0.91799 0.4211 0.0
C516 C 0.51762 0.09268 0.60526 0.0
C517 C 0.51905 0.09916 0.42646 0.0
C518 C 0.4286 0.09598 0.5157 0.0
C519 C 0.42728 0.916 0.50868 0.0
C520 C 0.60842 0.09534 0.51565 0.0
C521 C 0.60735 0.91414 0.51023 0.0
C522 C 0.6083 1.00374 0.4239 0.0
C523 C 0.42838 1.00451 0.4236 0.0
C524 C 0.60729 1.00196 0.60283 0.0
C525 C 0.4268 1.00312 0.60206 0.0
Eu526 Eu 0.51744 0.93527 0.51072 0.0
O527 O 0.48528 0.97433 0.47946 0.0
O528 O 0.55077 0.97101 0.54509 0.0
Eu529 Eu 0.44769 0.00573 0.51311 0.0
Eu530 Eu 0.58867 1.00479 0.51313 0.0
O531 O 0.48427 0.97112 0.5451 0.0
O532 O 0.55083 0.97345 0.47899 0.0
Eu533 Eu 0.51734 1.00257 0.58354 0.0
Eu534 Eu 0.51798 0.00798 0.44283 0.0
O535 O 0.48504 0.03721 0.54722 0.0
O536 O 0.48472 0.03988 0.48091 0.0
O537 O 0.55154 0.03923 0.48116 0.0
O538 O 0.55083 0.03643 0.5471 0.0
Eu539 Eu 0.51829 0.0752 0.51534 0.0
O540 O 0.5152 0.90221 0.56404 0.0
O541 O 0.51665 0.90544 0.45558 0.0
O542 O 0.51938 0.10499 0.57054 0.0
O543 O 0.51851 0.10821 0.46219 0.0
O544 O 0.41703 0.06076 0.51484 0.0
O545 O 0.4162 0.95115 0.51266 0.0
O546 O 0.62024 0.06007 0.51539 0.0
O547 O 0.61947 0.94925 0.51177 0.0
O548 O 0.57288 1.00412 0.41268 0.0
O549 O 0.46335 0.00838 0.41173 0.0
O550 O 0.57203 1.00265 0.61453 0.0
O551 O 0.46195 1.00119 0.61411 0.0
O552 O 0.57287 0.10611 0.51546 0.0
O553 O 0.464 0.10731 0.51575 0.0
O554 O 0.57169 0.90373 0.50951 0.0
O555 O 0.46252 0.90438 0.50659 0.0
O556 O 0.51272 0.95367 0.4109 0.0
O557 O 0.51922 0.06431 0.41352 0.0
O558 O 0.5166 0.94631 0.61268 0.0
O559 O 0.51585 0.05704 0.61555 0.0
O560 O 0.41613 0.00538 0.56688 0.0
O561 O 0.41715 1.00313 0.4587 0.0
O562 O 0.6188 1.00203 0.56777 0.0
O563 O 0.62022 0.00532 0.45879 0.0
C564 C 0.16966 0.17763 0.49878 0.0
C565 C 0.20019 0.17128 0.52235 0.0
C566 C 0.13917 0.15321 0.49835 0.0
C567 C 0.13868 0.12168 0.52119 0.0
H568 H 0.17005 0.20067 0.47957 0.0
H569 H 0.11669 0.15813 0.47895 0.0
S570 S 0.2087 0.09628 0.59214 0.0
N571 N 0.22556 0.13409 0.57255 0.0
N572 N 0.1689 0.08773 0.57085 0.0
C573 C 0.16797 0.11626 0.54628 0.0
C574 C 0.19859 0.14124 0.54711 0.0
C575 C 0.88339 0.18671 0.53949 0.0
C576 C 0.85243 0.1883 0.51569 0.0
C577 C 0.9073 0.1562 0.53944 0.0
C578 C 0.90088 0.12585 0.51599 0.0
H579 H 0.88952 0.20951 0.55803 0.0
H580 H 0.93123 0.15655 0.55774 0.0
S581 S 0.82308 0.11542 0.44939 0.0
N582 N 0.81613 0.15645 0.46854 0.0
N583 N 0.86085 0.09834 0.46923 0.0
C584 C 0.86925 0.1262 0.49311 0.0
C585 C 0.84503 0.15763 0.4928 0.0
C586 C 0.88234 0.82474 0.53359 0.0
C587 C 0.85062 0.82402 0.51081 0.0
C588 C 0.90595 0.85544 0.53425 0.0
C589 C 0.89847 0.88699 0.51278 0.0
H590 H 0.88944 0.80106 0.55063 0.0
H591 H 0.93065 0.8542 0.55135 0.0
S592 S 0.81816 0.90024 0.44978 0.0
N593 N 0.81233 0.85811 0.46679 0.0
N594 N 0.85644 0.91665 0.46923 0.0
C595 C 0.86597 0.8876 0.49118 0.0
C596 C 0.84206 0.8559 0.48996 0.0
C597 C 0.1667 0.83328 0.48435 0.0
C598 C 0.19869 0.83821 0.50634 0.0
C599 C 0.13584 0.85702 0.48808 0.0
C600 C 0.13644 0.88646 0.51357 0.0
H601 H 0.16617 0.81206 0.46317 0.0
H602 H 0.11229 0.85351 0.46968 0.0
S603 S 0.21121 0.9075 0.5811 0.0
N604 N 0.22691 0.87147 0.5577 0.0
N605 N 0.16997 0.91705 0.56323 0.0
C606 C 0.16744 0.89035 0.53686 0.0
C607 C 0.19829 0.86591 0.53366 0.0
C608 C 0.53005 0.15849 0.18353 0.0
C609 C 0.5048 0.18788 0.17792 0.0
C610 C 0.53108 0.12813 0.15935 0.0
C611 C 0.50724 0.12657 0.12863 0.0
H612 H 0.55027 0.15974 0.20573 0.0
H613 H 0.55179 0.10667 0.16372 0.0
S614 S 0.43209 0.19304 0.10503 0.0
N615 N 0.45206 0.2108 0.14215 0.0
N616 N 0.45508 0.15439 0.096 0.0
C617 C 0.48059 0.15462 0.12381 0.0
C618 C 0.47907 0.18514 0.14867 0.0
C619 C 0.86801 0.50778 0.18643 0.0
C620 C 0.83767 0.48435 0.17829 0.0
C621 C 0.89878 0.50994 0.16265 0.0
C622 C 0.89971 0.48945 0.12973 0.0
H623 H 0.86726 0.52583 0.21035 0.0
H624 H 0.92106 0.52905 0.1691 0.0
S625 S 0.83114 0.41874 0.09941 0.0
N626 N 0.81361 0.4357 0.13809 0.0
N627 N 0.8706 0.44136 0.09256 0.0
C628 C 0.87087 0.46416 0.12249 0.0
C629 C 0.84003 0.46125 0.14702 0.0
C630 C 0.53575 0.87394 0.19576 0.0
C631 C 0.51324 0.84201 0.19539 0.0
C632 C 0.53703 0.89777 0.16549 0.0
C633 C 0.51651 0.89024 0.13334 0.0
H634 H 0.55216 0.88093 0.21991 0.0
H635 H 0.55403 0.9225 0.16744 0.0
S636 S 0.45436 0.80964 0.1174 0.0
N637 N 0.47029 0.80372 0.15982 0.0
N638 N 0.47398 0.84814 0.10206 0.0
C639 C 0.49508 0.85767 0.13177 0.0
C640 C 0.49319 0.83359 0.163 0.0
C641 C 0.1715 0.51741 0.1839 0.0
C642 C 0.20024 0.49144 0.1781 0.0
C643 C 0.14098 0.51935 0.15976 0.0
C644 C 0.13873 0.49569 0.12901 0.0
H645 H 0.17338 0.5373 0.20626 0.0
H646 H 0.11995 0.54048 0.1642 0.0
S647 S 0.20322 0.41899 0.10522 0.0
N648 N 0.2217 0.43834 0.1423 0.0
N649 N 0.16505 0.44299 0.0963 0.0
C650 C 0.1661 0.46836 0.12411 0.0
C651 C 0.1967 0.46596 0.14887 0.0
C652 C 0.54182 0.82584 0.87716 0.0
C653 C 0.51608 0.82475 0.84781 0.0
C654 C 0.54296 0.8558 0.90151 0.0
C655 C 0.51896 0.88615 0.89698 0.0
H656 H 0.56082 0.80292 0.8818 0.0
H657 H 0.56265 0.85508 0.92422 0.0
S658 S 0.44698 0.89759 0.82439 0.0
N659 N 0.46617 0.85688 0.81543 0.0
N660 N 0.46921 0.91408 0.86083 0.0
C661 C 0.494 0.88627 0.86706 0.0
C662 C 0.49241 0.85536 0.84247 0.0
C663 C 0.19139 0.52006 0.8617 0.0
C664 C 0.18476 0.49598 0.83175 0.0
C665 C 0.16732 0.52079 0.89225 0.0
C666 C 0.13573 0.49781 0.89345 0.0
H667 H 0.21423 0.53972 0.86075 0.0
H668 H 0.17239 0.54072 0.91409 0.0
S669 S 0.10973 0.42527 0.82559 0.0
N670 N 0.14736 0.44493 0.80793 0.0
N671 N 0.10155 0.44721 0.86482 0.0
C672 C 0.13011 0.47205 0.86492 0.0
C673 C 0.1548 0.47089 0.83417 0.0
C674 C 0.50738 0.17748 0.86148 0.0
C675 C 0.53224 0.17104 0.83204 0.0
C676 C 0.50622 0.15352 0.89194 0.0
C677 C 0.52955 0.12228 0.89349 0.0
H678 H 0.48754 0.20011 0.86017 0.0
H679 H 0.48574 0.1584 0.91343 0.0
S680 S 0.60387 0.09695 0.82688 0.0
N681 N 0.58418 0.13425 0.80897 0.0
N682 N 0.58113 0.08857 0.86569 0.0
C683 C 0.55598 0.11681 0.86542 0.0
C684 C 0.55756 0.14141 0.83479 0.0
C685 C 0.85699 0.5429 0.85511 0.0
C686 C 0.83866 0.50986 0.84543 0.0
C687 C 0.88694 0.54247 0.88004 0.0
C688 C 0.89897 0.50901 0.89591 0.0
H689 H 0.8473 0.56922 0.84433 0.0
H690 H 0.90002 0.56843 0.88776 0.0
S691 S 0.86242 0.41497 0.87659 0.0
N692 N 0.83609 0.44285 0.85144 0.0
N693 N 0.89238 0.44205 0.89843 0.0
C694 C 0.88179 0.47577 0.88536 0.0
C695 C 0.85152 0.47619 0.86001 0.0
C696 C 0.69854 0.64266 0.98713 0.0
C697 C 0.70005 0.67232 0.01236 0.0
C698 C 0.66856 0.6179 0.98711 0.0
C699 C 0.63874 0.62232 0.01186 0.0
H700 H 0.72121 0.638 0.96786 0.0
H701 H 0.66889 0.5949 0.96782 0.0
S702 S 0.62889 0.69534 0.08321 0.0
N703 N 0.66905 0.70461 0.0628 0.0
N704 N 0.61186 0.65863 0.06175 0.0
C705 C 0.63904 0.65257 0.03626 0.0
C706 C 0.66991 0.67751 0.03672 0.0
C707 C 0.34634 0.65673 0.99695 0.0
C708 C 0.35287 0.68759 0.01992 0.0
C709 C 0.37007 0.62582 0.9978 0.0
C710 C 0.40115 0.62511 0.0214 0.0
H711 H 0.3238 0.65718 0.97702 0.0
H712 H 0.36518 0.60327 0.97862 0.0
S713 S 0.42649 0.69582 0.09142 0.0
N714 N 0.38953 0.71316 0.0704 0.0
N715 N 0.43467 0.65551 0.07129 0.0
C716 C 0.40663 0.65471 0.04601 0.0
C717 C 0.38232 0.68587 0.04546 0.0
C718 C 0.38217 0.32459 0.03276 0.0
C719 C 0.35016 0.3245 0.01031 0.0
C720 C 0.40655 0.35469 0.03299 0.0
C721 C 0.39927 0.38658 0.01199 0.0
H722 H 0.38908 0.30074 0.04963 0.0
H723 H 0.43173 0.35265 0.04934 0.0
S724 S 0.31869 0.40159 0.94976 0.0
N725 N 0.31228 0.35946 0.96658 0.0
N726 N 0.35731 0.41727 0.96912 0.0
C727 C 0.36649 0.38793 0.99085 0.0
C728 C 0.34204 0.35665 0.98964 0.0
C729 C 0.70132 0.37012 0.00829 0.0
C730 C 0.69956 0.33921 0.03191 0.0
C731 C 0.67113 0.39384 1.00408 0.0
C732 C 0.63722 0.38703 0.02202 0.0
H733 H 0.72648 0.37644 0.993 0.0
H734 H 0.6746 0.41806 0.98685 0.0
S735 S 0.61721 0.30974 0.08665 0.0
N736 N 0.66097 0.30295 0.07385 0.0
N737 N 0.60297 0.34715 0.06434 0.0
C738 C 0.63425 0.35561 0.04487 0.0
C739 C 0.66565 0.33168 0.05003 0.0
C740 C 0.04741 0.68634 0.6488 0.0
C741 C 0.02369 0.68738 0.67981 0.0
C742 C 0.04585 0.65708 0.62356 0.0
C743 C 0.02113 0.62739 0.62883 0.0
H744 H 0.06667 0.70888 0.64344 0.0
H745 H 0.06405 0.65779 0.59964 0.0
S746 S 0.95422 0.61575 0.70607 0.0
N747 N 0.97507 0.65571 0.7146 0.0
N748 N 0.97346 0.59967 0.66781 0.0
C749 C 0.99848 0.62704 0.66051 0.0
C750 C 0.99951 0.65727 0.68593 0.0
C751 C 0.33386 0.02462 0.6459 0.0
C752 C 0.33373 1.00271 0.67802 0.0
C753 C 0.36439 0.02481 0.62202 0.0
C754 C 0.39644 1.00373 0.62956 0.0
H755 H 0.30999 0.0417 0.63893 0.0
H756 H 0.36275 0.04157 0.59729 0.0
S757 S 0.41066 0.94164 0.70996 0.0
N758 N 0.36842 0.95897 0.71607 0.0
N759 N 0.42665 0.96047 0.67146 0.0
C760 C 0.39734 0.98242 0.66203 0.0
C761 C 0.36581 0.98168 0.68623 0.0
C762 C 0.05443 0.37464 0.69381 0.0
C763 C 0.03381 0.34141 0.69467 0.0
C764 C 0.05139 0.39924 0.66414 0.0
C765 C 0.02831 0.39113 0.63388 0.0
H766 H 0.07225 0.38223 0.71676 0.0
H767 H 0.067 0.42498 0.66509 0.0
S768 S 0.97026 0.30701 0.62126 0.0
N769 N 0.99011 0.30139 0.66202 0.0
N770 N 0.98628 0.34681 0.60524 0.0
C771 C 0.00922 0.35714 0.63326 0.0
C772 C 0.01157 0.33242 0.6639 0.0
C773 C 0.69883 0.98036 0.64851 0.0
C774 C 0.69896 1.00421 0.67924 0.0
C775 C 0.66838 0.97906 0.62462 0.0
C776 C 0.63675 1.00107 0.63088 0.0
H777 H 0.72285 0.96317 0.64237 0.0
H778 H 0.66981 0.96106 0.60074 0.0
S779 S 0.62212 0.0668 0.70829 0.0
N780 N 0.66426 0.04963 0.71533 0.0
N781 N 0.60628 0.04622 0.67065 0.0
C782 C 0.63556 0.0237 0.66242 0.0
C783 C 0.66687 0.02547 0.68661 0.0
C784 C 0.04569 0.32543 0.37909 0.0
C785 C 0.02208 0.32471 0.34803 0.0
C786 C 0.045 0.35507 0.40391 0.0
C787 C 0.02129 0.38546 0.39813 0.0
H788 H 0.06428 0.30243 0.38479 0.0
H789 H 0.06302 0.35408 0.42792 0.0
S790 S 0.95524 0.39833 0.32044 0.0
N791 N 0.97477 0.35758 0.31254 0.0
N792 N 0.97476 0.41422 0.35862 0.0
C793 C 0.99881 0.38613 0.36638 0.0
C794 C 0.99895 0.35555 0.34137 0.0
C795 C 0.69087 0.02556 0.36258 0.0
C796 C 0.68498 1.00146 0.33253 0.0
C797 C 0.66696 0.02505 0.39332 0.0
C798 C 0.6364 1.00069 0.39456 0.0
H799 H 0.713 0.046 0.36159 0.0
H800 H 0.67129 0.045 0.41529 0.0
S801 S 0.61273 0.92795 0.32612 0.0
N802 N 0.64946 0.94921 0.30847 0.0
N803 N 0.60399 0.94915 0.36562 0.0
C804 C 0.63159 0.97505 0.36582 0.0
C805 C 0.65606 0.97519 0.33493 0.0
C806 C 0.01547 0.6787 0.362 0.0
C807 C 0.03705 0.66968 0.33073 0.0
C808 C 0.01381 0.65482 0.39247 0.0
C809 C 0.03279 0.62078 0.39219 0.0
H810 H 0.99843 0.70351 0.36233 0.0
H811 H 0.99627 0.66224 0.41563 0.0
S812 S 0.09914 0.58781 0.32073 0.0
N813 N 0.08291 0.6274 0.30435 0.0
N814 N 0.07805 0.58165 0.36083 0.0
C815 C 0.0564 0.6126 0.36233 0.0
C816 C 0.05891 0.63726 0.33176 0.0
C817 C 0.3659 0.02113 0.34121 0.0
C818 C 0.3384 0.99373 0.34615 0.0
C819 C 0.39619 0.02376 0.36561 0.0
C820 C 0.39931 0.99934 0.39568 0.0
H821 H 0.36306 0.04163 0.31951 0.0
H822 H 0.4162 0.04599 0.36198 0.0
S823 S 0.3386 0.91878 0.41638 0.0
N824 N 0.3193 0.93856 0.37996 0.0
N825 N 0.37558 0.9442 0.42631 0.0
C826 C 0.37339 0.97047 0.39943 0.0
C827 C 0.34305 0.96746 0.37445 0.0
C828 C 0.98861 0.18608 0.37773 0.0
C829 C 0.0114 0.18744 0.34596 0.0
C830 C 0.99058 0.15649 0.40272 0.0
C831 C 0.01478 0.12646 0.39665 0.0
H832 H 0.96984 0.20878 0.38403 0.0
H833 H 0.97317 0.15731 0.42721 0.0
S834 S 0.07842 0.11467 0.31664 0.0
N835 N 0.05796 0.15506 0.3092 0.0
N836 N 0.06043 0.09856 0.35549 0.0
C837 C 0.03615 0.1262 0.36401 0.0
C838 C 0.03468 0.15682 0.33878 0.0
C839 C 0.84324 0.99515 0.36169 0.0
C840 C 0.85236 0.01374 0.32876 0.0
C841 C 0.86798 0.99503 0.39192 0.0
C842 C 0.90279 0.01309 0.38992 0.0
H843 H 0.81711 0.98021 0.36393 0.0
H844 H 0.86026 0.9798 0.41656 0.0
S845 S 0.93783 0.06845 0.31052 0.0
N846 N 0.89702 0.05249 0.2965 0.0
N847 N 0.94356 0.05232 0.35283 0.0
C848 C 0.9115 0.03266 0.3573 0.0
C849 C 0.88626 0.03294 0.32681 0.0
C850 C 0.01185 0.87428 0.32537 0.0
C851 C 0.02355 0.83756 0.33081 0.0
C852 C 0.0102 0.89956 0.35487 0.0
C853 C 0.01998 0.88907 0.39118 0.0
H854 H 0.00404 0.88367 0.298 0.0
H855 H 1.00103 0.92758 0.34904 0.0
S856 S 0.05304 0.79564 0.41969 0.0
N857 N 0.04556 0.79175 0.37485 0.0
N858 N 0.04213 0.83882 0.43044 0.0
C859 C 0.03153 0.85211 0.39692 0.0
C860 C 0.03346 0.82648 0.36669 0.0
C861 C 0.17162 0.01734 0.34127 0.0
C862 C 0.20045 0.99136 0.34662 0.0
C863 C 0.1418 0.02009 0.36649 0.0
C864 C 0.14025 0.9974 0.39813 0.0
H865 H 0.173 0.03676 0.31847 0.0
H866 H 0.12069 0.04111 0.36203 0.0
S867 S 0.20525 0.92094 0.4215 0.0
N868 N 0.22255 0.93916 0.38329 0.0
N869 N 0.16753 0.94542 0.43111 0.0
C870 C 0.16772 0.97006 0.40266 0.0
C871 C 0.19751 0.96673 0.37676 0.0
C872 C 0.98874 0.82524 0.65102 0.0
C873 C 0.01278 0.82432 0.68184 0.0
C874 C 0.9896 0.85455 0.62566 0.0
C875 C 0.01379 0.88474 0.63046 0.0
H876 H 0.96985 0.80238 0.64572 0.0
H877 H 0.97131 0.85343 0.60195 0.0
S878 S 0.08123 0.89722 0.70715 0.0
N879 N 0.06105 0.85697 0.71604 0.0
N880 N 0.06142 0.913 0.66905 0.0
C881 C 0.0367 0.88531 0.66204 0.0
C882 C 0.03639 0.85496 0.68763 0.0
C883 C 0.18519 0.96964 0.66587 0.0
C884 C 0.1954 1.0017 0.68562 0.0
C885 C 0.15483 0.96992 0.64138 0.0
C886 C 0.13411 1.00235 0.63528 0.0
H887 H 0.20153 0.94451 0.66855 0.0
H888 H 0.14786 0.94478 0.62665 0.0
S889 S 0.14801 0.093 0.68139 0.0
N890 N 0.18114 0.06626 0.69873 0.0
N891 N 0.12423 0.06671 0.65232 0.0
C892 C 0.14286 0.0341 0.65598 0.0
C893 C 0.17359 0.03381 0.68119 0.0
C894 C 0.01931 0.13576 0.70231 0.0
C895 C 0.0248 0.17373 0.69601 0.0
C896 C 0.01743 0.11042 0.67288 0.0
C897 C 0.02089 0.12199 0.63572 0.0
H898 H 0.01645 0.12545 0.7303 0.0
H899 H 0.01316 0.08146 0.67957 0.0
S900 S 0.03604 0.21923 0.60473 0.0
N901 N 0.0339 0.22207 0.6502 0.0
N902 N 0.03042 0.17488 0.59481 0.0
C903 C 0.02643 0.16022 0.62918 0.0
C904 C 0.02837 0.18596 0.65932 0.0
C905 C 0.86542 0.99473 0.68599 0.0
C906 C 0.83619 0.0202 0.68051 0.0
C907 C 0.8951 0.99216 0.66067 0.0
C908 C 0.89608 0.01455 0.62882 0.0
H909 H 0.86435 0.97536 0.70884 0.0
H910 H 0.91647 0.9714 0.66515 0.0
S911 S 0.82991 0.08989 0.60515 0.0
N912 N 0.81303 0.07173 0.64359 0.0
N913 N 0.86798 0.06594 0.59557 0.0
C914 C 0.8683 0.04157 0.62424 0.0
C915 C 0.83861 0.04468 0.65025 0.0
C916 C 0.3297 0.01722 0.14562 0.0
C917 C 0.33368 0.99996 0.18011 0.0
C918 C 0.35962 0.019 0.12063 0.0
C919 C 0.39487 1.00397 0.12937 0.0
H920 H 0.30314 0.02919 0.1377 0.0
H921 H 0.35503 0.03234 0.09423 0.0
S922 S 0.41907 0.95476 0.21629 0.0
N923 N 0.37489 0.96667 0.22172 0.0
N924 N 0.43147 0.97056 0.17522 0.0
C925 C 0.39916 0.9868 0.16409 0.0
C926 C 0.36845 0.98462 0.18934 0.0
C927 C 0.01023 0.35749 0.19057 0.0
C928 C 0.01879 0.32106 0.17965 0.0
C929 C 0.01118 0.38698 0.16496 0.0
C930 C 0.0204 0.38095 0.12748 0.0
H931 H 0.00248 0.36321 0.21894 0.0
H932 H 0.00397 0.41453 0.17452 0.0
S933 S 0.04645 0.28991 0.08615 0.0
N934 N 0.03782 0.28036 0.12993 0.0
N935 N 0.03936 0.33491 0.08168 0.0
C936 C 0.02941 0.34431 0.11669 0.0
C937 C 0.02866 0.3146 0.14282 0.0
C938 C 0.65502 0.98186 0.19348 0.0
C939 C 0.68552 0.00651 0.1955 0.0
C940 C 0.63024 0.98241 0.16365 0.0
C941 C 0.63531 0.0069 0.13397 0.0
H942 H 0.64965 0.96241 0.21569 0.0
H943 H 0.60675 0.96354 0.16392 0.0
S944 S 0.71147 0.07578 0.12406 0.0
N945 N 0.71979 0.05564 0.16425 0.0
N946 N 0.67387 0.05537 0.10721 0.0
C947 C 0.66659 0.03046 0.13444 0.0
C948 C 0.69159 0.03049 0.16536 0.0
C949 C 0.04016 0.67793 0.16447 0.0
C950 C 0.01644 0.67316 0.19512 0.0
C951 C 0.03942 0.65284 0.13458 0.0
C952 C 0.01537 0.62189 0.13473 0.0
H953 H 0.06065 0.70001 0.16443 0.0
H954 H 0.05899 0.6567 0.11207 0.0
S955 S 0.94368 0.60066 0.2055 0.0
N956 N 0.96486 0.6381 0.22126 0.0
N957 N 0.96444 0.59055 0.16601 0.0
C958 C 0.99016 0.61817 0.16417 0.0
C959 C 0.9904 0.64394 0.19407 0.0
C960 C 0.36945 0.02409 0.83706 0.0
C961 C 0.33622 1.00484 0.84477 0.0
C962 C 0.40002 0.02251 0.86151 0.0
C963 C 0.39801 1.00195 0.89456 0.0
H964 H 0.37155 0.04105 0.81243 0.0
H965 H 0.42475 0.03859 0.85522 0.0
S966 S 0.31825 0.94354 0.92488 0.0
N967 N 0.30395 0.96251 0.88583 0.0
N968 N 0.36091 0.95938 0.93173 0.0
C969 C 0.36527 0.98142 0.90155 0.0
C970 C 0.33446 0.98293 0.87665 0.0
C971 C 0.03712 0.33292 0.8621 0.0
C972 C 0.01521 0.33908 0.83041 0.0
C973 C 0.0361 0.35773 0.89218 0.0
C974 C 0.01365 0.38981 0.89124 0.0
H975 H 0.05649 0.30987 0.8629 0.0
H976 H 0.05432 0.35271 0.91552 0.0
S977 S 0.94718 0.41569 0.81715 0.0
N978 N 0.96671 0.37699 0.80232 0.0
N979 N 0.96653 0.4244 0.8576 0.0
C980 C 0.99032 0.39519 0.86059 0.0
C981 C 0.99059 0.36958 0.83057 0.0
C982 C 0.70813 0.00951 0.88389 0.0
C983 C 0.70176 0.00642 0.84584 0.0
C984 C 0.67852 0.00844 0.90922 0.0
C985 C 0.64114 1.00447 0.89751 0.0
H986 H 0.7363 0.01285 0.89427 0.0
H987 H 0.68523 0.01093 0.93827 0.0
S988 S 0.60994 0.9941 0.80008 0.0
N989 N 0.65569 0.9984 0.79731 0.0
N990 N 0.59995 0.99645 0.84454 0.0
C991 C 0.63455 1.00099 0.85925 0.0
C992 C 0.66486 1.002 0.83349 0.0
C993 C 0.03493 0.69352 0.88231 0.0
C994 C 0.01846 0.69001 0.84733 0.0
C995 C 0.03515 0.66376 0.90739 0.0
C996 C 0.01917 0.62918 0.89828 0.0
H997 H 0.04754 0.71958 0.89051 0.0
H998 H 0.04816 0.66788 0.93409 0.0
S999 S 0.97128 0.60657 0.81013 0.0
N1000 N 0.98491 0.65004 0.8049 0.0
N1001 N 0.98558 0.59384 0.85162 0.0
C1002 C 0.00267 0.62543 0.86313 0.0
C1003 C 1.0022 0.65594 0.83776 0.0
C1004 C 0.15407 0.32274 0.03207 0.0
C1005 C 0.18447 0.32206 1.00772 0.0
C1006 C 0.13019 0.35349 0.0335 0.0
C1007 C 0.13606 0.38468 0.01083 0.0
H1008 H 0.14834 0.29914 0.04974 0.0
H1009 H 0.10677 0.35277 0.05236 0.0
S1010 S 0.21224 0.39632 0.94252 0.0
N1011 N 0.2197 0.35488 0.96064 0.0
N1012 N 0.1749 0.41302 0.96355 0.0
C1013 C 0.16701 0.38464 0.98699 0.0
C1014 C 0.19118 0.35313 0.98531 0.0
C1015 C 0.15231 0.69121 0.02748 0.0
C1016 C 0.18697 0.68815 0.00989 0.0
C1017 C 0.12801 0.66081 0.02957 0.0
C1018 C 0.13753 0.62606 0.01424 0.0
H1019 H 0.14363 0.71745 0.03932 0.0
H1020 H 0.10135 0.66477 0.04313 0.0
S1021 S 0.22604 0.60401 0.96558 0.0
N1022 N 0.23031 0.64814 0.97721 0.0
N1023 N 0.18485 0.59065 0.98125 0.0
C1024 C 0.17272 0.62255 0.99723 0.0
C1025 C 0.19737 0.65373 0.99494 0.0
C1026 C 0.37971 0.18433 0.9767 0.0
C1027 C 0.34861 0.18683 1.00042 0.0
C1028 C 0.4045 0.15439 0.97863 0.0
C1029 C 0.39887 0.1253 1.00384 0.0
H1030 H 0.38561 0.20635 0.95718 0.0
H1031 H 0.42859 0.15426 0.96053 0.0
S1032 S 0.32143 0.11755 0.07133 0.0
N1033 N 0.31337 0.15707 0.04962 0.0
N1034 N 0.35946 0.10004 0.05229 0.0
C1035 C 0.36708 0.12642 0.02658 0.0
C1036 C 0.34203 0.15732 0.02504 0.0
C1037 C 0.87006 0.33085 0.03846 0.0
C1038 C 0.83524 0.33864 0.02226 0.0
C1039 C 0.90051 0.35524 0.03395 0.0
C1040 C 0.89691 0.38836 0.01352 0.0
H1041 H 0.87337 0.30663 0.05584 0.0
H1042 H 0.92648 0.34895 0.04793 0.0
S1043 S 0.81299 0.41902 0.96181 0.0
N1044 N 0.80065 0.37943 0.98105 0.0
N1045 N 0.85655 0.426 0.97475 0.0
C1046 C 0.86273 0.39546 0.99593 0.0
C1047 C 0.83231 0.37038 0.99968 0.0
C1048 C 0.70584 0.8742 1.00503 0.0
C1049 C 0.7018 0.83892 0.02071 0.0
C1050 C 0.6757 0.89894 1.0035 0.0
C1051 C 0.64024 0.88922 0.01745 0.0
H1052 H 0.7326 0.88293 0.9941 0.0
H1053 H 0.68034 0.92594 0.9912 0.0
S1054 S 0.61568 0.79948 0.06156 0.0
N1055 N 0.66024 0.79508 0.05066 0.0
N1056 N 0.60323 0.8413 0.04755 0.0
C1057 C 0.63585 0.85359 0.03284 0.0
C1058 C 0.66677 0.8285 0.03461 0.0
C1059 C 0.83917 0.64296 0.04726 0.0
C1060 C 0.83787 0.67466 0.02452 0.0
C1061 C 0.86919 0.61821 0.04579 0.0
C1062 C 0.89956 0.62449 0.02208 0.0
H1063 H 0.81609 0.63652 0.06551 0.0
H1064 H 0.86834 0.59363 0.06301 0.0
S1065 S 0.91118 0.70419 0.95835 0.0
N1066 N 0.8704 0.71155 0.97839 0.0
N1067 N 0.92763 0.6655 0.9766 0.0
C1068 C 0.89977 0.65703 1.00063 0.0
C1069 C 0.86878 0.68206 1.00169 0.0
C1070 C 0.34361 0.85448 0.02429 0.0
C1071 C 0.35079 0.82427 1.00064 0.0
C1072 C 0.36786 0.8852 0.02557 0.0
C1073 C 0.4002 0.88639 1.00352 0.0
H1074 H 0.32023 0.8535 0.04325 0.0
H1075 H 0.3623 0.90719 0.04522 0.0
S1076 S 0.42786 0.81767 0.93234 0.0
N1077 N 0.38972 0.8001 0.9511 0.0
N1078 N 0.43546 0.8572 0.9541 0.0
C1079 C 0.40627 0.85756 0.97812 0.0
C1080 C 0.38151 0.82667 0.97651 0.0
C1081 C 0.66772 0.182 0.03353 0.0
C1082 C 0.70187 0.17327 0.01648 0.0
C1083 C 0.63706 0.15762 0.03125 0.0
C1084 C 0.63988 0.12367 0.01214 0.0
H1085 H 0.66484 0.20748 0.04916 0.0
H1086 H 0.61149 0.16481 0.04552 0.0
S1087 S 0.72287 0.09014 0.96026 0.0
N1088 N 0.73631 0.13004 0.97827 0.0
N1089 N 0.67924 0.08427 0.9737 0.0
C1090 C 0.67379 0.1155 0.99407 0.0
C1091 C 0.70468 0.1403 0.99633 0.0
C1092 C 0.54186 0.68699 0.8771 0.0
C1093 C 0.51762 0.68769 0.84638 0.0
C1094 C 0.54208 0.6573 0.90202 0.0
C1095 C 0.51877 0.62646 0.89687 0.0
H1096 H 0.56026 0.71021 0.88256 0.0
H1097 H 0.56058 0.6586 0.92566 0.0
S1098 S 0.45141 0.61306 0.82024 0.0
N1099 N 0.47026 0.65406 0.81189 0.0
N1100 N 0.47183 0.59736 0.85806 0.0
C1101 C 0.49568 0.6257 0.86542 0.0
C1102 C 0.49491 0.65644 0.84027 0.0
C1103 C 0.38678 0.49565 0.82646 0.0
C1104 C 0.35101 0.51079 0.83024 0.0
C1105 C 0.41135 0.49427 0.85653 0.0
C1106 C 0.40103 0.50785 0.89167 0.0
H1107 H 0.396 0.48504 0.79996 0.0
H1108 H 0.43876 0.4824 0.85204 0.0
S1109 S 0.30972 0.55038 0.91543 0.0
N1110 N 0.30595 0.53973 0.87118 0.0
N1111 N 0.3519 0.53693 0.92808 0.0
C1112 C 0.36487 0.52266 0.89579 0.0
C1113 C 0.33993 0.52426 0.86493 0.0
C1114 C 0.50574 0.37337 0.82646 0.0
C1115 C 0.52138 0.33791 0.83023 0.0
C1116 C 0.5051 0.39839 0.85621 0.0
C1117 C 0.51983 0.38883 0.8911 0.0
H1118 H 0.49404 0.38198 0.80022 0.0
H1119 H 0.49275 0.42545 0.85177 0.0
S1120 S 0.56469 0.29908 0.91482 0.0
N1121 N 0.55263 0.29444 0.87102 0.0
N1122 N 0.55093 0.34101 0.92721 0.0
C1123 C 0.53535 0.35315 0.8952 0.0
C1124 C 0.53632 0.32782 0.86467 0.0
C1125 C 0.67196 0.53018 0.84219 0.0
C1126 C 0.70073 0.50366 0.84456 0.0
C1127 C 0.6415 0.52947 0.8669 0.0
C1128 C 0.63909 0.50245 0.89492 0.0
H1129 H 0.67389 0.55255 0.82231 0.0
H1130 H 0.62062 0.55112 0.86511 0.0
S1131 S 0.70368 0.42335 0.90859 0.0
N1132 N 0.72215 0.44699 0.87407 0.0
N1133 N 0.66553 0.44611 0.9205 0.0
C1134 C 0.66649 0.47467 0.89606 0.0
C1135 C 0.6971 0.47513 0.87085 0.0
C1136 C 0.54428 0.34649 0.17733 0.0
C1137 C 0.51169 0.32518 0.1818 0.0
C1138 C 0.54538 0.37627 0.15214 0.0
C1139 C 0.51399 0.38537 0.13064 0.0
H1140 H 0.56947 0.33904 0.1921 0.0
H1141 H 0.57125 0.39138 0.14849 0.0
S1142 S 0.42094 0.34103 0.1353 0.0
N1143 N 0.44665 0.31715 0.16477 0.0
N1144 N 0.4487 0.37326 0.11802 0.0
C1145 C 0.48089 0.36545 0.13619 0.0
C1146 C 0.47975 0.33528 0.16165 0.0
C1147 C 0.67188 0.51687 0.18594 0.0
C1148 C 0.69928 0.48928 0.18107 0.0
C1149 C 0.64148 0.51986 0.16141 0.0
C1150 C 0.63797 0.49569 0.13106 0.0
H1151 H 0.67489 0.5373 0.20767 0.0
H1152 H 0.62162 0.54219 0.1652 0.0
S1153 S 0.69855 0.41518 0.10969 0.0
N1154 N 0.71778 0.43432 0.14649 0.0
N1155 N 0.66176 0.44093 0.09996 0.0
C1156 C 0.6639 0.46682 0.12721 0.0
C1157 C 0.69423 0.46332 0.15237 0.0
C1158 C 0.51213 0.63587 0.20205 0.0
C1159 C 0.51614 0.67405 0.19595 0.0
C1160 C 0.51288 0.61051 0.17262 0.0
C1161 C 0.51764 0.62224 0.13565 0.0
H1162 H 0.50838 0.62542 0.22988 0.0
H1163 H 0.50956 0.58138 0.17915 0.0
S1164 S 0.52935 0.72012 0.1052 0.0
N1165 N 0.5251 0.72281 0.15054 0.0
N1166 N 0.52639 0.67556 0.0951 0.0
C1167 C 0.52161 0.66069 0.12929 0.0
C1168 C 0.52091 0.68648 0.15945 0.0
C1169 C 0.3663 0.51616 0.18629 0.0
C1170 C 0.33827 0.48923 0.18154 0.0
C1171 C 0.39635 0.51875 0.16134 0.0
C1172 C 0.39885 0.49485 0.13067 0.0
H1173 H 0.36397 0.5365 0.2082 0.0
H1174 H 0.41672 0.54064 0.16504 0.0
S1175 S 0.33639 0.41578 0.10954 0.0
N1176 N 0.31804 0.43502 0.14678 0.0
N1177 N 0.3736 0.44082 0.09947 0.0
C1178 C 0.37236 0.4665 0.12697 0.0
C1179 C 0.34233 0.46341 0.15257 0.0
C1180 C 0.85251 0.48045 0.67127 0.0
C1181 C 0.83579 0.5145 0.68048 0.0
C1182 C 0.88293 0.47889 0.64668 0.0
C1183 C 0.8974 0.51136 0.63061 0.0
H1184 H 0.84166 0.45483 0.68267 0.0
H1185 H 0.89471 0.45213 0.6396 0.0
S1186 S 0.86406 0.60728 0.64654 0.0
N1187 N 0.83641 0.58134 0.67243 0.0
N1188 N 0.89328 0.57838 0.62604 0.0
C1189 C 0.88125 0.54553 0.64006 0.0
C1190 C 0.85047 0.54712 0.66513 0.0
C1191 C 0.52565 0.85588 0.68931 0.0
C1192 C 0.51255 0.82056 0.67927 0.0
C1193 C 0.52579 0.88539 0.66373 0.0
C1194 C 0.51313 0.88047 0.62712 0.0
H1195 H 0.53618 0.86068 0.71696 0.0
H1196 H 0.5366 0.91201 0.67256 0.0
S1197 S 0.47373 0.7932 0.58851 0.0
N1198 N 0.48515 0.7824 0.63137 0.0
N1199 N 0.48514 0.83726 0.5833 0.0
C1200 C 0.49924 0.84516 0.61727 0.0
C1201 C 0.49903 0.81537 0.64335 0.0
C1202 C 0.15382 0.5351 0.69479 0.0
C1203 C 0.18623 0.513 0.69528 0.0
C1204 C 0.12944 0.53483 0.6646 0.0
C1205 C 0.13668 0.51291 0.6333 0.0
H1206 H 0.14663 0.55202 0.71849 0.0
H1207 H 0.10438 0.55159 0.66607 0.0
S1208 S 0.21856 0.45149 0.61954 0.0
N1209 N 0.22487 0.46945 0.66107 0.0
N1210 N 0.17944 0.46978 0.60372 0.0
C1211 C 0.1699 0.4921 0.63245 0.0
C1212 C 0.19461 0.49201 0.66355 0.0
C1213 C 0.49406 0.14057 0.69557 0.0
C1214 C 0.51755 0.17199 0.69577 0.0
C1215 C 0.49409 0.11538 0.66609 0.0
C1216 C 0.51696 0.1209 0.63508 0.0
H1217 H 0.4762 0.13476 0.71903 0.0
H1218 H 0.47614 0.09124 0.66772 0.0
S1219 S 0.5826 0.1992 0.62075 0.0
N1220 N 0.56387 0.20742 0.66168 0.0
N1221 N 0.56286 0.16072 0.6055 0.0
C1222 C 0.53937 0.15299 0.63396 0.0
C1223 C 0.53982 0.17842 0.6644 0.0
C1224 C 0.83122 0.49093 0.38191 0.0
C1225 C 0.83637 0.49908 0.34443 0.0
C1226 C 0.86102 0.49266 0.40691 0.0
C1227 C 0.89744 0.50237 0.39545 0.0
H1228 H 0.80383 0.48332 0.39212 0.0
H1229 H 0.85523 0.48622 0.43555 0.0
S1230 S 0.92511 0.52657 0.29943 0.0
N1231 N 0.87999 0.51765 0.29656 0.0
N1232 N 0.93643 0.52034 0.34324 0.0
C1233 C 0.90289 0.51032 0.35766 0.0
C1234 C 0.87226 0.50887 0.33223 0.0
C1235 C 0.52963 0.83407 0.35932 0.0
C1236 C 0.50203 0.83834 0.33198 0.0
C1237 C 0.53252 0.85932 0.3889 0.0
C1238 C 0.50831 0.88995 0.39166 0.0
H1239 H 0.55027 0.81227 0.35682 0.0
H1240 H 0.55484 0.8558 0.40876 0.0
S1241 S 0.42758 0.91004 0.33099 0.0
N1242 N 0.44697 0.87275 0.31266 0.0
N1243 N 0.4533 0.9206 0.36734 0.0
C1244 C 0.47938 0.89327 0.36581 0.0
C1245 C 0.47597 0.86732 0.33624 0.0
C1246 C 0.2068 0.51213 0.38145 0.0
C1247 C 0.20151 0.49934 0.34528 0.0
C1248 C 0.17706 0.51362 0.40664 0.0
C1249 C 0.14069 0.50249 0.39657 0.0
H1250 H 0.23426 0.52087 0.39051 0.0
H1251 H 0.1828 0.52365 0.43426 0.0
S1252 S 0.11256 0.4667 0.3044 0.0
N1253 N 0.15766 0.47514 0.30025 0.0
N1254 N 0.10147 0.47828 0.34717 0.0
C1255 C 0.13508 0.48998 0.36007 0.0
C1256 C 0.16557 0.48825 0.33453 0.0
C1257 C 0.5185 0.15309 0.335 0.0
C1258 C 0.51977 0.19024 0.34664 0.0
C1259 C 0.51831 0.12381 0.36084 0.0
C1260 C 0.5194 0.13064 0.39929 0.0
H1261 H 0.51767 0.14658 0.30579 0.0
H1262 H 0.51725 0.09564 0.35049 0.0
S1263 S 0.52316 0.22421 0.44306 0.0
N1264 N 0.52221 0.23276 0.39828 0.0
N1265 N 0.52199 0.17863 0.44698 0.0
C1266 C 0.52071 0.16814 0.41091 0.0
C1267 C 0.52086 0.19768 0.38455 0.0
C1268 C 0.64887 0.81813 0.49633 0.0
C1269 C 0.68428 0.82114 0.51235 0.0
C1270 C 0.62467 0.84864 0.4951 0.0
C1271 C 0.63511 0.88347 0.5096 0.0
H1272 H 0.63959 0.79189 0.48497 0.0
H1273 H 0.59743 0.84473 0.48273 0.0
S1274 S 0.72578 0.90552 0.55403 0.0
N1275 N 0.72908 0.86118 0.54303 0.0
N1276 N 0.68414 0.91898 0.53979 0.0
C1277 C 0.67103 0.88692 0.52496 0.0
C1278 C 0.69546 0.85559 0.52666 0.0
C1279 C 0.65056 0.19111 0.50226 0.0
C1280 C 0.68558 0.1882 0.51913 0.0
C1281 C 0.62635 0.16064 0.5007 0.0
C1282 C 0.63631 0.12592 0.5158 0.0
H1283 H 0.6416 0.21726 0.49046 0.0
H1284 H 0.59946 0.16447 0.48758 0.0
S1285 S 0.72553 0.10427 0.56312 0.0
N1286 N 0.72949 0.14838 0.55134 0.0
N1287 N 0.68416 0.09073 0.54811 0.0
C1288 C 0.67172 0.12257 0.53227 0.0
C1289 C 0.6963 0.15386 0.5341 0.0
C1290 C 0.84556 0.65877 0.52903 0.0
C1291 C 0.84878 0.68645 0.50175 0.0
C1292 C 0.87064 0.62872 0.53017 0.0
C1293 C 0.89992 0.62581 0.50439 0.0
H1294 H 0.82476 0.66131 0.5506 0.0
H1295 H 0.86816 0.60863 0.55228 0.0
S1296 S 0.91633 0.68737 0.42406 0.0
N1297 N 0.88036 0.70611 0.44562 0.0
N1298 N 0.92788 0.65041 0.44847 0.0
C1299 C 0.902 0.65205 0.47587 0.0
C1300 C 0.87629 0.68214 0.47435 0.0
C1301 C 0.33751 0.86513 0.52868 0.0
C1302 C 0.33605 0.83785 0.50079 0.0
C1303 C 0.36748 0.88978 0.53136 0.0
C1304 C 0.39765 0.88768 0.50677 0.0
H1305 H 0.3147 0.86808 0.54814 0.0
H1306 H 0.36688 0.9109 0.55267 0.0
S1307 S 0.40817 0.82135 0.42917 0.0
N1308 N 0.36775 0.81018 0.44818 0.0
N1309 N 0.42495 0.856 0.454 0.0
C1310 C 0.39749 0.85974 0.47963 0.0
C1311 C 0.36653 0.83486 0.47651 0.0
C1312 C 0.20473 0.37279 0.50271 0.0
C1313 C 0.20124 0.33837 0.5203 0.0
C1314 C 0.17461 0.39747 0.50107 0.0
C1315 C 0.13972 0.38852 0.51677 0.0
H1316 H 0.23107 0.38089 0.49038 0.0
H1317 H 0.17879 0.42386 0.48735 0.0
S1318 S 0.11673 0.30135 0.56642 0.0
N1319 N 0.16083 0.29623 0.55405 0.0
N1320 N 0.10379 0.34241 0.55069 0.0
C1321 C 0.13583 0.35376 0.5341 0.0
C1322 C 0.16676 0.32874 0.53601 0.0
C1323 C 0.33959 0.14383 0.54391 0.0
C1324 C 0.33789 0.17485 0.52029 0.0
C1325 C 0.36943 0.11901 0.54253 0.0
C1326 C 0.39934 0.1246 0.5182 0.0
H1327 H 0.31693 0.13794 0.56287 0.0
H1328 H 0.3689 0.09499 0.56042 0.0
S1329 S 0.41048 0.20285 0.45269 0.0
N1330 N 0.36987 0.21071 0.47294 0.0
N1331 N 0.42706 0.1645 0.47156 0.0
C1332 C 0.39939 0.1566 0.49599 0.0
C1333 C 0.36845 0.1817 0.49683 0.0
C1334 C 0.88014 0.32743 0.54273 0.0
C1335 C 0.84896 0.32575 0.5191 0.0
C1336 C 0.90471 0.35754 0.54198 0.0
C1337 C 0.89892 0.38767 0.51814 0.0
H1338 H 0.88629 0.30464 0.56127 0.0
H1339 H 0.92878 0.35701 0.55994 0.0
S1340 S 0.82058 0.39832 0.45211 0.0
N1341 N 0.81294 0.35771 0.47193 0.0
N1342 N 0.8588 0.41506 0.47143 0.0
C1343 C 0.86688 0.38748 0.49569 0.0
C1344 C 0.84194 0.35638 0.49602 0.0
C1345 C 0.16821 0.68102 0.48871 0.0
C1346 C 0.20312 0.67246 0.50416 0.0
C1347 C 0.13774 0.65669 0.4927 0.0
C1348 C 0.14146 0.62294 0.51201 0.0
H1349 H 0.16459 0.70633 0.47296 0.0
H1350 H 0.11156 0.66375 0.47953 0.0
S1351 S 0.2268 0.58991 0.5602 0.0
N1352 N 0.23937 0.62963 0.54117 0.0
N1353 N 0.18258 0.5839 0.54894 0.0
C1354 C 0.17617 0.61494 0.52856 0.0
C1355 C 0.20692 0.63972 0.52454 0.0
loop_
_geom_bond_atom_site_label_1
_geom_bond_atom_site_label_2
_geom_bond_distance
_geom_bond_site_symmetry_2
_ccdc_geom_bond_type
H0 C3 0.929 . S
H1 C6 0.929 . S
H2 C8 0.930 . S
C3 H0 0.929 . S
C3 C4 1.398 . S
C3 C5 1.396 . S
C4 C3 1.398 . S
C4 C8 1.407 . S
C5 C3 1.396 . S
C5 C6 1.394 . S
C6 H1 0.929 . S
C6 C5 1.394 . S
C6 C7 1.382 . S
C7 C6 1.382 . S
C7 C8 1.392 . S
C7 N9 1.420 . S
C8 H2 0.930 . S
C8 C4 1.407 . S
C8 C7 1.392 . S
N9 C7 1.420 . S
N9 C10 1.244 . S
C10 N9 1.244 . S
H11 C14 0.929 . S
H12 C17 0.929 . S
H13 C19 0.930 . S
C14 H11 0.929 . S
C14 C15 1.396 1_545 S
C14 C16 1.395 1_545 S
C15 C14 1.396 1_565 S
C15 C19 1.412 . S
C16 C14 1.395 1_565 S
C16 C17 1.395 . S
C17 H12 0.929 . S
C17 C16 1.395 . S
C17 C18 1.382 . S
C18 C17 1.382 . S
C18 C19 1.392 . S
C18 N20 1.420 . S
C19 H13 0.930 . S
C19 C15 1.412 . S
C19 C18 1.392 . S
N20 C18 1.420 . S
N20 C21 1.244 1_565 S
C21 N20 1.244 1_545 S
H22 C25 0.929 . S
H23 C28 0.929 . S
H24 C30 0.930 . S
C25 H22 0.929 . S
C25 C26 1.398 . S
C25 C27 1.396 . S
C26 C25 1.398 . S
C26 C30 1.407 . S
C27 C25 1.396 . S
C27 C28 1.394 . S
C28 H23 0.929 . S
C28 C27 1.394 . S
C28 C29 1.382 . S
C29 C28 1.382 . S
C29 C30 1.392 . S
C29 N31 1.420 . S
C30 H24 0.930 . S
C30 C26 1.407 . S
C30 C29 1.392 . S
N31 C29 1.420 . S
N31 C32 1.244 . S
C32 N31 1.244 . S
H33 C36 0.929 . S
H34 C39 0.929 . S
H35 C41 0.930 . S
C36 H33 0.929 . S
C36 C37 1.396 1_545 S
C36 C38 1.395 1_545 S
C37 C36 1.396 1_565 S
C37 C41 1.411 . S
C38 C36 1.395 1_565 S
C38 C39 1.395 . S
C39 H34 0.929 . S
C39 C38 1.395 . S
C39 C40 1.382 . S
C40 C39 1.382 . S
C40 C41 1.392 . S
C40 N42 1.420 . S
C41 H35 0.930 . S
C41 C37 1.411 . S
C41 C40 1.392 . S
N42 C40 1.420 . S
N42 C43 1.244 1_565 S
C43 N42 1.244 1_545 S
H44 C47 0.929 . S
H45 C50 0.929 . S
H46 C52 0.930 . S
C47 H44 0.929 . S
C47 C48 1.398 . S
C47 C49 1.396 . S
C48 C47 1.398 . S
C48 C52 1.407 . S
C49 C47 1.396 . S
C49 C50 1.394 . S
C50 H45 0.929 . S
C50 C49 1.394 . S
C50 C51 1.382 . S
C51 C50 1.382 . S
C51 C52 1.392 . S
C51 N53 1.420 . S
C52 H46 0.930 . S
C52 C48 1.407 . S
C52 C51 1.392 . S
N53 C51 1.420 . S
N53 C54 1.244 . S
C54 N53 1.244 . S
H55 C58 0.929 . S
H56 C61 0.929 . S
H57 C63 0.930 . S
C58 H55 0.929 . S
C58 C59 1.398 1_565 S
C58 C60 1.393 1_565 S
C59 C58 1.398 1_545 S
C59 C63 1.407 . S
C60 C58 1.393 1_545 S
C60 C61 1.400 . S
C61 H56 0.929 . S
C61 C60 1.400 . S
C61 C62 1.382 . S
C62 C61 1.382 . S
C62 C63 1.392 . S
C62 N64 1.420 . S
C63 H57 0.930 . S
C63 C59 1.407 . S
C63 C62 1.392 . S
N64 C62 1.420 . S
N64 C65 1.238 1_545 S
C65 N64 1.238 1_565 S
H66 C69 0.929 . S
H67 C72 0.929 . S
H68 C74 0.930 . S
C69 H66 0.929 . S
C69 C70 1.398 . S
C69 C71 1.396 . S
C70 C69 1.398 . S
C70 C74 1.407 . S
C71 C69 1.396 . S
C71 C72 1.394 . S
C72 H67 0.929 . S
C72 C71 1.394 . S
C72 C73 1.382 . S
C73 C72 1.382 . S
C73 C74 1.392 . S
C73 N75 1.420 . S
C74 H68 0.930 . S
C74 C70 1.407 . S
C74 C73 1.392 . S
N75 C73 1.420 . S
N75 C76 1.244 . S
C76 N75 1.244 . S
H77 C80 0.929 . S
H78 C83 0.929 . S
H79 C85 0.930 . S
C80 H77 0.929 . S
C80 C81 1.396 1_545 S
C80 C82 1.395 1_545 S
C81 C80 1.396 1_565 S
C81 C85 1.413 . S
C82 C80 1.395 1_565 S
C82 C83 1.396 . S
C83 H78 0.929 . S
C83 C82 1.396 . S
C83 C84 1.382 . S
C84 C83 1.382 . S
C84 C85 1.392 . S
C84 N86 1.420 . S
C85 H79 0.930 . S
C85 C81 1.413 . S
C85 C84 1.392 . S
N86 C84 1.420 . S
N86 C87 1.244 1_565 S
C87 N86 1.244 1_545 S
H88 C91 0.929 . S
H89 C94 0.929 . S
H90 C96 0.930 . S
C91 H88 0.929 . S
C91 C92 1.398 . S
C91 C93 1.396 . S
C92 C91 1.398 . S
C92 C96 1.407 1_554 S
C93 C91 1.396 . S
C93 C94 1.394 1_554 S
C94 H89 0.929 . S
C94 C93 1.394 1_556 S
C94 C95 1.382 . S
C95 C94 1.382 . S
C95 C96 1.392 . S
C95 N97 1.420 . S
C96 H90 0.930 . S
C96 C92 1.407 1_556 S
C96 C95 1.392 . S
N97 C95 1.420 . S
N97 C98 1.244 1_556 S
C98 N97 1.244 1_554 S
H99 C102 0.929 1_556 S
H100 C105 0.929 . S
H101 C107 0.930 . S
C102 H99 0.929 1_554 S
C102 C103 1.398 . S
C102 C104 1.396 . S
C103 C102 1.398 . S
C103 C107 1.407 . S
C104 C102 1.396 . S
C104 C105 1.394 . S
C105 H100 0.929 . S
C105 C104 1.394 . S
C105 C106 1.382 . S
C106 C105 1.382 . S
C106 C107 1.392 . S
C106 N108 1.420 . S
C107 H101 0.930 . S
C107 C103 1.407 . S
C107 C106 1.392 . S
N108 C106 1.420 . S
N108 C109 1.244 . S
C109 N108 1.244 . S
H110 C113 0.929 . S
H111 C116 0.929 . S
H112 C118 0.930 . S
C113 H110 0.929 . S
C113 C114 1.398 . S
C113 C115 1.396 . S
C114 C113 1.398 . S
C114 C118 1.407 1_554 S
C115 C113 1.396 . S
C115 C116 1.394 1_554 S
C116 H111 0.929 . S
C116 C115 1.394 1_556 S
C116 C117 1.382 . S
C117 C116 1.382 . S
C117 C118 1.392 . S
C117 N119 1.420 . S
C118 H112 0.930 . S
C118 C114 1.407 1_556 S
C118 C117 1.392 . S
N119 C117 1.420 . S
N119 C120 1.244 1_556 S
C120 N119 1.244 1_554 S
H121 C124 0.929 1_556 S
H122 C127 0.929 . S
H123 C129 0.930 . S
C124 H121 0.929 1_554 S
C124 C125 1.398 . S
C124 C126 1.396 . S
C125 C124 1.398 . S
C125 C129 1.407 . S
C126 C124 1.396 . S
C126 C127 1.394 . S
C127 H122 0.929 . S
C127 C126 1.394 . S
C127 C128 1.382 . S
C128 C127 1.382 . S
C128 C129 1.392 . S
C128 N130 1.420 . S
C129 H123 0.930 . S
C129 C125 1.407 . S
C129 C128 1.392 . S
N130 C128 1.420 . S
N130 C131 1.244 . S
C131 N130 1.244 . S
H132 C135 0.929 . S
H133 C138 0.929 . S
H134 C140 0.930 . S
C135 H132 0.929 . S
C135 C136 1.398 . S
C135 C137 1.396 . S
C136 C135 1.398 . S
C136 C140 1.407 . S
C137 C135 1.396 . S
C137 C138 1.394 . S
C138 H133 0.929 . S
C138 C137 1.394 . S
C138 C139 1.382 . S
C139 C138 1.382 . S
C139 C140 1.392 . S
C139 N141 1.420 . S
C140 H134 0.930 . S
C140 C136 1.407 . S
C140 C139 1.392 . S
N141 C139 1.420 . S
N141 C142 1.244 . S
C142 N141 1.244 . S
H143 C146 0.929 . S
H144 C149 0.929 . S
H145 C151 0.930 . S
C146 H143 0.929 . S
C146 C147 1.398 . S
C146 C148 1.396 . S
C147 C146 1.398 . S
C147 C151 1.407 . S
C148 C146 1.396 . S
C148 C149 1.394 . S
C149 H144 0.929 . S
C149 C148 1.394 . S
C149 C150 1.382 . S
C150 C149 1.382 . S
C150 C151 1.392 . S
C150 N152 1.420 . S
C151 H145 0.930 . S
C151 C147 1.407 . S
C151 C150 1.392 . S
N152 C150 1.420 . S
N152 C153 1.244 . S
C153 N152 1.244 . S
H154 C157 0.929 . S
H155 C160 0.929 . S
H156 C162 0.930 . S
C157 H154 0.929 . S
C157 C158 1.398 . S
C157 C159 1.396 . S
C158 C157 1.398 . S
C158 C162 1.407 . S
C159 C157 1.396 . S
C159 C160 1.394 . S
C160 H155 0.929 . S
C160 C159 1.394 . S
C160 C161 1.382 . S
C161 C160 1.382 . S
C161 C162 1.392 . S
C161 N163 1.420 . S
C162 H156 0.930 . S
C162 C158 1.407 . S
C162 C161 1.392 . S
N163 C161 1.420 . S
N163 C164 1.244 . S
C164 N163 1.244 . S
H165 C168 0.929 . S
H166 C171 0.929 . S
H167 C173 0.930 . S
C168 H165 0.929 . S
C168 C169 1.398 . S
C168 C170 1.396 . S
C169 C168 1.398 . S
C169 C173 1.407 . S
C170 C168 1.396 . S
C170 C171 1.394 . S
C171 H166 0.929 . S
C171 C170 1.394 . S
C171 C172 1.382 . S
C172 C171 1.382 . S
C172 C173 1.392 . S
C172 N174 1.420 . S
C173 H167 0.930 . S
C173 C169 1.407 . S
C173 C172 1.392 . S
N174 C172 1.420 . S
N174 C175 1.244 . S
C175 N174 1.244 . S
H176 C179 0.929 . S
H177 C182 0.929 . S
H178 C184 0.930 . S
C179 H176 0.929 . S
C179 C180 1.398 . S
C179 C181 1.396 . S
C180 C179 1.398 . S
C180 C184 1.407 . S
C181 C179 1.396 . S
C181 C182 1.394 . S
C182 H177 0.929 . S
C182 C181 1.394 . S
C182 C183 1.382 . S
C183 C182 1.382 . S
C183 C184 1.392 . S
C183 N185 1.420 . S
C184 H178 0.930 . S
C184 C180 1.407 . S
C184 C183 1.392 . S
N185 C183 1.420 . S
N185 C186 1.244 . S
C186 N185 1.244 . S
H187 C190 0.929 . S
H188 C193 0.929 . S
H189 C195 0.930 . S
C190 H187 0.929 . S
C190 C191 1.398 . S
C190 C192 1.396 . S
C191 C190 1.398 . S
C191 C195 1.407 . S
C192 C190 1.396 . S
C192 C193 1.394 . S
C193 H188 0.929 . S
C193 C192 1.394 . S
C193 C194 1.382 . S
C194 C193 1.382 . S
C194 C195 1.392 . S
C194 N196 1.420 . S
C195 H189 0.930 . S
C195 C191 1.407 . S
C195 C194 1.392 . S
N196 C194 1.420 . S
N196 C197 1.244 . S
C197 N196 1.244 . S
H198 C201 0.929 . S
H199 C204 0.929 . S
H200 C206 0.930 . S
C201 H198 0.929 . S
C201 C202 1.398 . S
C201 C203 1.396 . S
C202 C201 1.398 . S
C202 C206 1.407 . S
C203 C201 1.396 . S
C203 C204 1.394 . S
C204 H199 0.929 . S
C204 C203 1.394 . S
C204 C205 1.382 . S
C205 C204 1.382 . S
C205 C206 1.392 . S
C205 N207 1.420 . S
C206 H200 0.930 . S
C206 C202 1.407 . S
C206 C205 1.392 . S
N207 C205 1.420 . S
N207 C208 1.244 . S
C208 N207 1.244 . S
H209 C212 0.929 . S
H210 C215 0.929 . S
H211 C217 0.930 . S
C212 H209 0.929 . S
C212 C213 1.398 . S
C212 C214 1.396 . S
C213 C212 1.398 . S
C213 C217 1.407 . S
C214 C212 1.396 . S
C214 C215 1.394 . S
C215 H210 0.929 . S
C215 C214 1.394 . S
C215 C216 1.382 . S
C216 C215 1.382 . S
C216 C217 1.392 . S
C216 N218 1.420 . S
C217 H211 0.930 . S
C217 C213 1.407 . S
C217 C216 1.392 . S
N218 C216 1.420 . S
N218 C219 1.244 . S
C219 N218 1.244 . S
H220 C223 0.929 . S
H221 C226 0.929 . S
H222 C228 0.930 . S
C223 H220 0.929 . S
C223 C224 1.398 . S
C223 C225 1.396 . S
C224 C223 1.398 . S
C224 C228 1.407 . S
C225 C223 1.396 . S
C225 C226 1.394 . S
C226 H221 0.929 . S
C226 C225 1.394 . S
C226 C227 1.382 . S
C227 C226 1.382 . S
C227 C228 1.392 . S
C227 N229 1.420 . S
C228 H222 0.930 . S
C228 C224 1.407 . S
C228 C227 1.392 . S
N229 C227 1.420 . S
N229 C230 1.244 . S
C230 N229 1.244 . S
H231 C234 0.929 . S
H232 C237 0.929 . S
H233 C239 0.930 . S
C234 H231 0.929 . S
C234 C235 1.398 . S
C234 C236 1.396 . S
C235 C234 1.398 . S
C235 C239 1.407 . S
C236 C234 1.396 . S
C236 C237 1.394 . S
C237 H232 0.929 . S
C237 C236 1.394 . S
C237 C238 1.382 . S
C238 C237 1.382 . S
C238 C239 1.392 . S
C238 N240 1.420 . S
C239 H233 0.930 . S
C239 C235 1.407 . S
C239 C238 1.392 . S
N240 C238 1.420 . S
N240 C241 1.244 . S
C241 N240 1.244 . S
H242 C245 0.929 . S
H243 C248 0.929 . S
H244 C250 0.930 . S
C245 H242 0.929 . S
C245 C246 1.398 . S
C245 C247 1.396 . S
C246 C245 1.398 . S
C246 C250 1.407 . S
C247 C245 1.396 . S
C247 C248 1.394 . S
C248 H243 0.929 . S
C248 C247 1.394 . S
C248 C249 1.382 . S
C249 C248 1.382 . S
C249 C250 1.392 . S
C249 N251 1.420 . S
C250 H244 0.930 . S
C250 C246 1.407 . S
C250 C249 1.392 . S
N251 C249 1.420 . S
N251 C252 1.244 . S
C252 N251 1.244 . S
H253 C256 0.929 . S
H254 C259 0.929 . S
H255 C261 0.930 . S
C256 H253 0.929 . S
C256 C257 1.398 . S
C256 C258 1.396 . S
C257 C256 1.398 . S
C257 C261 1.407 . S
C258 C256 1.396 . S
C258 C259 1.394 . S
C259 H254 0.929 . S
C259 C258 1.394 . S
C259 C260 1.382 . S
C260 C259 1.382 . S
C260 C261 1.392 . S
C260 N262 1.420 . S
C261 H255 0.930 . S
C261 C257 1.407 . S
C261 C260 1.392 . S
N262 C260 1.420 . S
N262 C263 1.244 . S
C263 N262 1.244 . S
C264 O290 1.283 . S
C264 O308 1.283 . S
C265 O291 1.283 . S
C265 O306 1.283 . S
C266 O292 1.283 . S
C266 O309 1.283 . S
C267 O293 1.283 . S
C267 O307 1.283 . S
C268 O294 1.283 . S
C268 O303 1.283 . S
C269 O295 1.283 . S
C269 O305 1.283 . S
C270 O296 1.283 . S
C270 O302 1.283 . S
C271 O297 1.283 . S
C271 O304 1.283 . S
C272 O298 1.283 . S
C272 O313 1.283 . S
C273 O299 1.283 . S
C273 O311 1.283 . S
C274 O300 1.283 . S
C274 O312 1.283 . S
C275 O301 1.283 . S
C275 O310 1.283 . S
Eu276 O277 2.370 1_455 S
Eu276 O278 2.370 . S
Eu276 O281 2.370 1_455 S
Eu276 O282 2.370 . S
Eu276 O290 2.363 . S
Eu276 O291 2.363 . S
Eu276 O304 2.363 . S
Eu276 O305 2.363 1_455 S
O277 Eu276 2.370 1_655 S
O277 Eu279 2.364 1_565 S
O277 Eu284 2.364 1_665 S
O278 Eu276 2.370 . S
O278 Eu280 2.364 1_565 S
O278 Eu283 2.365 1_565 S
Eu279 O277 2.364 1_545 S
Eu279 O281 2.364 1_545 S
Eu279 O285 2.376 . S
Eu279 O286 2.376 . S
Eu279 O294 2.373 . S
Eu279 O295 2.353 1_545 S
Eu279 O310 2.363 . S
Eu279 O311 2.363 . S
Eu280 O278 2.364 1_545 S
Eu280 O282 2.364 1_545 S
Eu280 O287 2.376 . S
Eu280 O288 2.376 . S
Eu280 O296 2.372 . S
Eu280 O297 2.353 1_545 S
Eu280 O312 2.363 . S
Eu280 O313 2.363 . S
O281 Eu276 2.370 1_655 S
O281 Eu279 2.364 1_565 S
O281 Eu283 2.365 1_665 S
O282 Eu276 2.370 . S
O282 Eu280 2.364 1_565 S
O282 Eu284 2.364 1_565 S
Eu283 O278 2.365 1_545 S
Eu283 O281 2.365 1_445 S
Eu283 O285 2.376 1_455 S
Eu283 O288 2.376 . S
Eu283 O300 2.363 . S
Eu283 O301 2.363 1_455 S
Eu283 O308 2.354 1_545 S
Eu283 O309 2.372 . S
Eu284 O277 2.364 1_445 S
Eu284 O282 2.364 1_545 S
Eu284 O286 2.376 1_455 S
Eu284 O287 2.376 . S
Eu284 O298 2.363 . S
Eu284 O299 2.363 1_455 S
Eu284 O306 2.353 1_545 S
Eu284 O307 2.373 . S
O285 Eu279 2.376 . S
O285 Eu283 2.376 1_655 S
O285 Eu289 2.370 1_655 S
O286 Eu279 2.376 . S
O286 Eu284 2.376 1_655 S
O286 Eu289 2.370 1_655 S
O287 Eu280 2.376 . S
O287 Eu284 2.376 . S
O287 Eu289 2.370 . S
O288 Eu280 2.376 . S
O288 Eu283 2.376 . S
O288 Eu289 2.370 . S
Eu289 O285 2.370 1_455 S
Eu289 O286 2.370 1_455 S
Eu289 O287 2.370 . S
Eu289 O288 2.370 . S
Eu289 O292 2.363 . S
Eu289 O293 2.363 . S
Eu289 O302 2.363 . S
Eu289 O303 2.363 1_455 S
O290 C264 1.283 . S
O290 Eu276 2.363 . S
O291 C265 1.283 . S
O291 Eu276 2.363 . S
O292 C266 1.283 . S
O292 Eu289 2.363 . S
O293 C267 1.283 . S
O293 Eu289 2.363 . S
O294 C268 1.283 . S
O294 Eu279 2.373 . S
O295 C269 1.283 . S
O295 Eu279 2.353 1_565 S
O296 C270 1.283 . S
O296 Eu280 2.372 . S
O297 C271 1.283 . S
O297 Eu280 2.353 1_565 S
O298 C272 1.283 . S
O298 Eu284 2.363 . S
O299 C273 1.283 . S
O299 Eu284 2.363 1_655 S
O300 C274 1.283 . S
O300 Eu283 2.363 . S
O301 C275 1.283 . S
O301 Eu283 2.363 1_655 S
O302 C270 1.283 . S
O302 Eu289 2.363 . S
O303 C268 1.283 . S
O303 Eu289 2.363 1_655 S
O304 C271 1.283 . S
O304 Eu276 2.363 . S
O305 C269 1.283 . S
O305 Eu276 2.363 1_655 S
O306 C265 1.283 . S
O306 Eu284 2.353 1_565 S
O307 C267 1.283 . S
O307 Eu284 2.373 . S
O308 C264 1.283 . S
O308 Eu283 2.354 1_565 S
O309 C266 1.283 . S
O309 Eu283 2.372 . S
O310 C275 1.283 . S
O310 Eu279 2.363 . S
O311 C273 1.283 . S
O311 Eu279 2.363 . S
O312 C274 1.283 . S
O312 Eu280 2.363 . S
O313 C272 1.283 . S
O313 Eu280 2.363 . S
C314 O340 1.283 . S
C314 O358 1.283 . S
C315 O341 1.283 . S
C315 O356 1.283 . S
C316 O342 1.283 . S
C316 O359 1.283 . S
C317 O343 1.283 . S
C317 O357 1.283 . S
C318 O344 1.283 . S
C318 O353 1.283 . S
C319 O345 1.283 . S
C319 O355 1.283 . S
C320 O346 1.283 . S
C320 O352 1.283 . S
C321 O347 1.283 . S
C321 O354 1.283 . S
C322 O348 1.283 . S
C322 O363 1.283 . S
C323 O349 1.283 . S
C323 O361 1.283 . S
C324 O350 1.283 . S
C324 O362 1.283 . S
C325 O351 1.283 . S
C325 O360 1.283 . S
Eu326 O327 2.380 . S
Eu326 O328 2.360 1_545 S
Eu326 O331 2.360 1_545 S
Eu326 O332 2.380 . S
Eu326 O340 2.346 1_545 S
Eu326 O341 2.380 . S
Eu326 O354 2.363 . S
Eu326 O355 2.363 . S
O327 Eu326 2.380 . S
O327 Eu329 2.375 . S
O327 Eu334 2.370 . S
O328 Eu326 2.360 1_565 S
O328 Eu330 2.365 1_565 S
O328 Eu333 2.370 . S
Eu329 O327 2.375 . S
Eu329 O331 2.365 1_545 S
Eu329 O335 2.365 1_544 S
Eu329 O336 2.375 1_554 S
Eu329 O344 2.363 1_554 S
Eu329 O345 2.363 . S
Eu329 O360 2.354 1_545 S
Eu329 O361 2.372 . S
Eu330 O328 2.365 1_545 S
Eu330 O332 2.376 . S
Eu330 O337 2.376 1_554 S
Eu330 O338 2.365 1_544 S
Eu330 O346 2.363 1_554 S
Eu330 O347 2.363 . S
Eu330 O362 2.354 1_545 S
Eu330 O363 2.372 . S
O331 Eu326 2.360 1_565 S
O331 Eu329 2.365 1_565 S
O331 Eu333 2.370 . S
O332 Eu326 2.380 . S
O332 Eu330 2.376 . S
O332 Eu334 2.370 . S
Eu333 O328 2.370 . S
Eu333 O331 2.370 . S
Eu333 O335 2.370 1_554 S
Eu333 O338 2.370 1_554 S
Eu333 O350 2.363 . S
Eu333 O351 2.363 . S
Eu333 O358 2.363 . S
Eu333 O359 2.363 1_554 S
Eu334 O327 2.370 . S
Eu334 O332 2.370 . S
Eu334 O336 2.370 1_554 S
Eu334 O337 2.370 1_554 S
Eu334 O348 2.363 . S
Eu334 O349 2.363 . S
Eu334 O356 2.363 . S
Eu334 O357 2.363 1_554 S
O335 Eu329 2.365 1_566 S
O335 Eu333 2.370 1_556 S
O335 Eu339 2.369 1_565 S
O336 Eu329 2.375 1_556 S
O336 Eu334 2.370 1_556 S
O336 Eu339 2.371 . S
O337 Eu330 2.376 1_556 S
O337 Eu334 2.370 1_556 S
O337 Eu339 2.371 . S
O338 Eu330 2.365 1_566 S
O338 Eu333 2.370 1_556 S
O338 Eu339 2.369 1_565 S
Eu339 O335 2.369 1_545 S
Eu339 O336 2.371 . S
Eu339 O337 2.371 . S
Eu339 O338 2.369 1_545 S
Eu339 O342 2.361 1_545 S
Eu339 O343 2.365 . S
Eu339 O352 2.363 . S
Eu339 O353 2.363 . S
O340 C314 1.283 . S
O340 Eu326 2.346 1_565 S
O341 C315 1.283 . S
O341 Eu326 2.380 . S
O342 C316 1.283 . S
O342 Eu339 2.361 1_565 S
O343 C317 1.283 . S
O343 Eu339 2.365 . S
O344 C318 1.283 . S
O344 Eu329 2.363 1_556 S
O345 C319 1.283 . S
O345 Eu329 2.363 . S
O346 C320 1.283 . S
O346 Eu330 2.363 1_556 S
O347 C321 1.283 . S
O347 Eu330 2.363 . S
O348 C322 1.283 . S
O348 Eu334 2.363 . S
O349 C323 1.283 . S
O349 Eu334 2.363 . S
O350 C324 1.283 . S
O350 Eu333 2.363 . S
O351 C325 1.283 . S
O351 Eu333 2.363 . S
O352 C320 1.283 . S
O352 Eu339 2.363 . S
O353 C318 1.283 . S
O353 Eu339 2.363 . S
O354 C321 1.283 . S
O354 Eu326 2.363 . S
O355 C319 1.283 . S
O355 Eu326 2.363 . S
O356 C315 1.283 . S
O356 Eu334 2.363 . S
O357 C317 1.283 . S
O357 Eu334 2.363 1_556 S
O358 C314 1.283 . S
O358 Eu333 2.363 . S
O359 C316 1.283 . S
O359 Eu333 2.363 1_556 S
O360 C325 1.283 . S
O360 Eu329 2.354 1_565 S
O361 C323 1.283 . S
O361 Eu329 2.372 . S
O362 C324 1.283 . S
O362 Eu330 2.354 1_565 S
O363 C322 1.283 . S
O363 Eu330 2.372 . S
C364 O390 1.283 . S
C364 O408 1.283 . S
C365 O391 1.283 . S
C365 O406 1.283 . S
C366 O392 1.283 . S
C366 O409 1.283 . S
C367 O393 1.283 . S
C367 O407 1.283 . S
C368 O394 1.283 . S
C368 O403 1.283 . S
C369 O395 1.283 . S
C369 O405 1.283 . S
C370 O396 1.283 . S
C370 O402 1.283 . S
C371 O397 1.283 . S
C371 O404 1.283 . S
C372 O398 1.283 . S
C372 O413 1.283 . S
C373 O399 1.283 . S
C373 O411 1.283 . S
C374 O400 1.283 . S
C374 O412 1.283 . S
C375 O401 1.283 . S
C375 O410 1.283 . S
Eu376 O377 2.370 1_454 S
Eu376 O378 2.370 . S
Eu376 O381 2.370 1_455 S
Eu376 O382 2.370 1_554 S
Eu376 O390 2.363 . S
Eu376 O391 2.363 1_554 S
Eu376 O404 2.363 . S
Eu376 O405 2.363 1_455 S
O377 Eu376 2.370 1_656 S
O377 Eu379 2.370 1_556 S
O377 Eu384 2.370 1_655 S
O378 Eu376 2.370 . S
O378 Eu380 2.370 . S
O378 Eu383 2.370 . S
Eu379 O377 2.370 1_554 S
Eu379 O381 2.370 . S
Eu379 O385 2.370 . S
Eu379 O386 2.370 1_554 S
Eu379 O394 2.363 . S
Eu379 O395 2.363 . S
Eu379 O410 2.363 . S
Eu379 O411 2.363 1_554 S
Eu380 O378 2.370 . S
Eu380 O382 2.370 1_554 S
Eu380 O387 2.370 1_554 S
Eu380 O388 2.370 . S
Eu380 O396 2.363 . S
Eu380 O397 2.363 . S
Eu380 O412 2.363 . S
Eu380 O413 2.363 1_554 S
O381 Eu376 2.370 1_655 S
O381 Eu379 2.370 . S
O381 Eu383 2.370 1_655 S
O382 Eu376 2.370 1_556 S
O382 Eu380 2.370 1_556 S
O382 Eu384 2.370 . S
Eu383 O378 2.370 . S
Eu383 O381 2.370 1_455 S
Eu383 O385 2.370 1_455 S
Eu383 O388 2.370 . S
Eu383 O400 2.363 . S
Eu383 O401 2.363 1_455 S
Eu383 O408 2.363 . S
Eu383 O409 2.363 . S
Eu384 O377 2.370 1_455 S
Eu384 O382 2.370 . S
Eu384 O386 2.370 1_455 S
Eu384 O387 2.370 . S
Eu384 O398 2.363 . S
Eu384 O399 2.363 1_455 S
Eu384 O406 2.363 . S
Eu384 O407 2.363 . S
O385 Eu379 2.370 . S
O385 Eu383 2.370 1_655 S
O385 Eu389 2.370 1_655 S
O386 Eu379 2.370 1_556 S
O386 Eu384 2.370 1_655 S
O386 Eu389 2.370 1_656 S
O387 Eu380 2.370 1_556 S
O387 Eu384 2.370 . S
O387 Eu389 2.370 1_556 S
O388 Eu380 2.370 . S
O388 Eu383 2.370 . S
O388 Eu389 2.370 . S
Eu389 O385 2.370 1_455 S
Eu389 O386 2.370 1_454 S
Eu389 O387 2.370 1_554 S
Eu389 O388 2.370 . S
Eu389 O392 2.363 . S
Eu389 O393 2.363 1_554 S
Eu389 O402 2.363 . S
Eu389 O403 2.363 1_455 S
O390 C364 1.283 . S
O390 Eu376 2.363 . S
O391 C365 1.283 . S
O391 Eu376 2.363 1_556 S
O392 C366 1.283 . S
O392 Eu389 2.363 . S
O393 C367 1.283 . S
O393 Eu389 2.363 1_556 S
O394 C368 1.283 . S
O394 Eu379 2.363 . S
O395 C369 1.283 . S
O395 Eu379 2.363 . S
O396 C370 1.283 . S
O396 Eu380 2.363 . S
O397 C371 1.283 . S
O397 Eu380 2.363 . S
O398 C372 1.283 . S
O398 Eu384 2.363 . S
O399 C373 1.283 . S
O399 Eu384 2.363 1_655 S
O400 C374 1.283 . S
O400 Eu383 2.363 . S
O401 C375 1.283 . S
O401 Eu383 2.363 1_655 S
O402 C370 1.283 . S
O402 Eu389 2.363 . S
O403 C368 1.283 . S
O403 Eu389 2.363 1_655 S
O404 C371 1.283 . S
O404 Eu376 2.363 . S
O405 C369 1.283 . S
O405 Eu376 2.363 1_655 S
O406 C365 1.283 . S
O406 Eu384 2.363 . S
O407 C367 1.283 . S
O407 Eu384 2.363 . S
O408 C364 1.283 . S
O408 Eu383 2.363 . S
O409 C366 1.283 . S
O409 Eu383 2.363 . S
O410 C375 1.283 . S
O410 Eu379 2.363 . S
O411 C373 1.283 . S
O411 Eu379 2.363 1_556 S
O412 C374 1.283 . S
O412 Eu380 2.363 . S
O413 C372 1.283 . S
O413 Eu380 2.363 1_556 S
C414 O440 1.283 . S
C414 O458 1.283 . S
C415 O441 1.283 . S
C415 O456 1.283 . S
C416 O442 1.283 . S
C416 O459 1.283 . S
C417 O443 1.283 . S
C417 O457 1.283 . S
C418 O444 1.283 . S
C418 O453 1.283 . S
C419 O445 1.283 . S
C419 O455 1.283 . S
C420 O446 1.283 . S
C420 O452 1.283 . S
C421 O447 1.283 . S
C421 O454 1.283 . S
C422 O448 1.283 . S
C422 O463 1.283 . S
C423 O449 1.283 . S
C423 O461 1.283 . S
C424 O450 1.283 . S
C424 O462 1.283 . S
C425 O451 1.283 . S
C425 O460 1.283 . S
Eu426 O427 2.370 . S
Eu426 O428 2.370 . S
Eu426 O431 2.370 . S
Eu426 O432 2.370 . S
Eu426 O440 2.363 . S
Eu426 O441 2.363 . S
Eu426 O454 2.363 . S
Eu426 O455 2.363 . S
O427 Eu426 2.370 . S
O427 Eu429 2.370 . S
O427 Eu434 2.370 . S
O428 Eu426 2.370 . S
O428 Eu430 2.370 . S
O428 Eu433 2.370 . S
Eu429 O427 2.370 . S
Eu429 O431 2.370 . S
Eu429 O435 2.370 1_554 S
Eu429 O436 2.370 1_554 S
Eu429 O444 2.363 1_554 S
Eu429 O445 2.363 . S
Eu429 O460 2.363 . S
Eu429 O461 2.363 . S
Eu430 O428 2.370 . S
Eu430 O432 2.370 . S
Eu430 O437 2.370 1_554 S
Eu430 O438 2.370 1_554 S
Eu430 O446 2.363 1_554 S
Eu430 O447 2.363 . S
Eu430 O462 2.363 . S
Eu430 O463 2.363 . S
O431 Eu426 2.370 . S
O431 Eu429 2.370 . S
O431 Eu433 2.370 . S
O432 Eu426 2.370 . S
O432 Eu430 2.370 . S
O432 Eu434 2.370 . S
Eu433 O428 2.370 . S
Eu433 O431 2.370 . S
Eu433 O435 2.370 1_554 S
Eu433 O438 2.370 1_554 S
Eu433 O450 2.363 . S
Eu433 O451 2.363 . S
Eu433 O458 2.363 . S
Eu433 O459 2.363 1_554 S
Eu434 O427 2.370 . S
Eu434 O432 2.370 . S
Eu434 O436 2.370 1_554 S
Eu434 O437 2.370 1_554 S
Eu434 O448 2.363 . S
Eu434 O449 2.363 . S
Eu434 O456 2.363 . S
Eu434 O457 2.363 1_554 S
O435 Eu429 2.370 1_556 S
O435 Eu433 2.370 1_556 S
O435 Eu439 2.370 . S
O436 Eu429 2.370 1_556 S
O436 Eu434 2.370 1_556 S
O436 Eu439 2.370 . S
O437 Eu430 2.370 1_556 S
O437 Eu434 2.370 1_556 S
O437 Eu439 2.370 . S
O438 Eu430 2.370 1_556 S
O438 Eu433 2.370 1_556 S
O438 Eu439 2.370 . S
Eu439 O435 2.370 . S
Eu439 O436 2.370 . S
Eu439 O437 2.370 . S
Eu439 O438 2.370 . S
Eu439 O442 2.363 . S
Eu439 O443 2.363 . S
Eu439 O452 2.363 . S
Eu439 O453 2.363 . S
O440 C414 1.283 . S
O440 Eu426 2.363 . S
O441 C415 1.283 . S
O441 Eu426 2.363 . S
O442 C416 1.283 . S
O442 Eu439 2.363 . S
O443 C417 1.283 . S
O443 Eu439 2.363 . S
O444 C418 1.283 . S
O444 Eu429 2.363 1_556 S
O445 C419 1.283 . S
O445 Eu429 2.363 . S
O446 C420 1.283 . S
O446 Eu430 2.363 1_556 S
O447 C421 1.283 . S
O447 Eu430 2.363 . S
O448 C422 1.283 . S
O448 Eu434 2.363 . S
O449 C423 1.283 . S
O449 Eu434 2.363 . S
O450 C424 1.283 . S
O450 Eu433 2.363 . S
O451 C425 1.283 . S
O451 Eu433 2.363 . S
O452 C420 1.283 . S
O452 Eu439 2.363 . S
O453 C418 1.283 . S
O453 Eu439 2.363 . S
O454 C421 1.283 . S
O454 Eu426 2.363 . S
O455 C419 1.283 . S
O455 Eu426 2.363 . S
O456 C415 1.283 . S
O456 Eu434 2.363 . S
O457 C417 1.283 . S
O457 Eu434 2.363 1_556 S
O458 C414 1.283 . S
O458 Eu433 2.363 . S
O459 C416 1.283 . S
O459 Eu433 2.363 1_556 S
O460 C425 1.283 . S
O460 Eu429 2.363 . S
O461 C423 1.283 . S
O461 Eu429 2.363 . S
O462 C424 1.283 . S
O462 Eu430 2.363 . S
O463 C422 1.283 . S
O463 Eu430 2.363 . S
C464 O490 1.283 . S
C464 O508 1.283 . S
C465 O491 1.283 . S
C465 O506 1.283 . S
C466 O492 1.283 . S
C466 O509 1.283 . S
C467 O493 1.283 . S
C467 O507 1.283 . S
C468 O494 1.283 . S
C468 O503 1.283 . S
C469 O495 1.283 . S
C469 O505 1.283 . S
C470 O496 1.283 . S
C470 O502 1.283 . S
C471 O497 1.283 . S
C471 O504 1.283 . S
C472 O498 1.283 . S
C472 O513 1.283 . S
C473 O499 1.283 . S
C473 O511 1.283 . S
C474 O500 1.283 . S
C474 O512 1.283 . S
C475 O501 1.283 . S
C475 O510 1.283 . S
Eu476 O477 2.370 1_455 S
Eu476 O478 2.370 . S
Eu476 O481 2.370 1_455 S
Eu476 O482 2.370 . S
Eu476 O490 2.363 . S
Eu476 O491 2.363 . S
Eu476 O504 2.363 . S
Eu476 O505 2.363 1_455 S
O477 Eu476 2.370 1_655 S
O477 Eu479 2.370 . S
O477 Eu484 2.370 1_655 S
O478 Eu476 2.370 . S
O478 Eu480 2.370 . S
O478 Eu483 2.370 . S
Eu479 O477 2.370 . S
Eu479 O481 2.370 . S
Eu479 O485 2.370 . S
Eu479 O486 2.370 . S
Eu479 O494 2.363 . S
Eu479 O495 2.363 . S
Eu479 O510 2.363 . S
Eu479 O511 2.363 . S
Eu480 O478 2.370 . S
Eu480 O482 2.370 . S
Eu480 O487 2.370 . S
Eu480 O488 2.370 . S
Eu480 O496 2.363 . S
Eu480 O497 2.363 . S
Eu480 O512 2.363 . S
Eu480 O513 2.363 . S
O481 Eu476 2.370 1_655 S
O481 Eu479 2.370 . S
O481 Eu483 2.370 1_655 S
O482 Eu476 2.370 . S
O482 Eu480 2.370 . S
O482 Eu484 2.370 . S
Eu483 O478 2.370 . S
Eu483 O481 2.370 1_455 S
Eu483 O485 2.370 1_455 S
Eu483 O488 2.370 . S
Eu483 O500 2.363 . S
Eu483 O501 2.363 1_455 S
Eu483 O508 2.363 . S
Eu483 O509 2.363 . S
Eu484 O477 2.370 1_455 S
Eu484 O482 2.370 . S
Eu484 O486 2.370 1_455 S
Eu484 O487 2.370 . S
Eu484 O498 2.363 . S
Eu484 O499 2.363 1_455 S
Eu484 O506 2.363 . S
Eu484 O507 2.363 . S
O485 Eu479 2.370 . S
O485 Eu483 2.370 1_655 S
O485 Eu489 2.370 1_655 S
O486 Eu479 2.370 . S
O486 Eu484 2.370 1_655 S
O486 Eu489 2.370 1_655 S
O487 Eu480 2.370 . S
O487 Eu484 2.370 . S
O487 Eu489 2.370 . S
O488 Eu480 2.370 . S
O488 Eu483 2.370 . S
O488 Eu489 2.370 . S
Eu489 O485 2.370 1_455 S
Eu489 O486 2.370 1_455 S
Eu489 O487 2.370 . S
Eu489 O488 2.370 . S
Eu489 O492 2.363 . S
Eu489 O493 2.363 . S
Eu489 O502 2.363 . S
Eu489 O503 2.363 1_455 S
O490 C464 1.283 . S
O490 Eu476 2.363 . S
O491 C465 1.283 . S
O491 Eu476 2.363 . S
O492 C466 1.283 . S
O492 Eu489 2.363 . S
O493 C467 1.283 . S
O493 Eu489 2.363 . S
O494 C468 1.283 . S
O494 Eu479 2.363 . S
O495 C469 1.283 . S
O495 Eu479 2.363 . S
O496 C470 1.283 . S
O496 Eu480 2.363 . S
O497 C471 1.283 . S
O497 Eu480 2.363 . S
O498 C472 1.283 . S
O498 Eu484 2.363 . S
O499 C473 1.283 . S
O499 Eu484 2.363 1_655 S
O500 C474 1.283 . S
O500 Eu483 2.363 . S
O501 C475 1.283 . S
O501 Eu483 2.363 1_655 S
O502 C470 1.283 . S
O502 Eu489 2.363 . S
O503 C468 1.283 . S
O503 Eu489 2.363 1_655 S
O504 C471 1.283 . S
O504 Eu476 2.363 . S
O505 C469 1.283 . S
O505 Eu476 2.363 1_655 S
O506 C465 1.283 . S
O506 Eu484 2.363 . S
O507 C467 1.283 . S
O507 Eu484 2.363 . S
O508 C464 1.283 . S
O508 Eu483 2.363 . S
O509 C466 1.283 . S
O509 Eu483 2.363 . S
O510 C475 1.283 . S
O510 Eu479 2.363 . S
O511 C473 1.283 . S
O511 Eu479 2.363 . S
O512 C474 1.283 . S
O512 Eu480 2.363 . S
O513 C472 1.283 . S
O513 Eu480 2.363 . S
C514 O540 1.283 . S
C514 O558 1.283 . S
C515 O541 1.283 . S
C515 O556 1.283 . S
C516 O542 1.283 . S
C516 O559 1.283 . S
C517 O543 1.283 . S
C517 O557 1.283 . S
C518 O544 1.283 . S
C518 O553 1.283 . S
C519 O545 1.283 . S
C519 O555 1.283 . S
C520 O546 1.283 . S
C520 O552 1.283 . S
C521 O547 1.283 . S
C521 O554 1.283 . S
C522 O548 1.283 . S
C522 O563 1.283 . S
C523 O549 1.283 . S
C523 O561 1.283 . S
C524 O550 1.283 . S
C524 O562 1.283 . S
C525 O551 1.283 . S
C525 O560 1.283 . S
Eu526 O527 2.370 . S
Eu526 O528 2.370 . S
Eu526 O531 2.370 . S
Eu526 O532 2.370 . S
Eu526 O540 2.363 . S
Eu526 O541 2.363 . S
Eu526 O554 2.363 . S
Eu526 O555 2.363 . S
O527 Eu526 2.370 . S
O527 Eu529 2.365 1_565 S
O527 Eu534 2.364 1_565 S
O528 Eu526 2.370 . S
O528 Eu530 2.365 1_565 S
O528 Eu533 2.365 1_565 S
Eu529 O527 2.365 1_545 S
Eu529 O531 2.365 1_545 S
Eu529 O535 2.375 . S
Eu529 O536 2.375 . S
Eu529 O544 2.372 . S
Eu529 O545 2.354 1_545 S
Eu529 O560 2.363 . S
Eu529 O561 2.363 . S
Eu530 O528 2.365 1_545 S
Eu530 O532 2.365 1_545 S
Eu530 O537 2.375 . S
Eu530 O538 2.375 . S
Eu530 O546 2.372 . S
Eu530 O547 2.354 1_545 S
Eu530 O562 2.363 . S
Eu530 O563 2.363 . S
O531 Eu526 2.370 . S
O531 Eu529 2.365 1_565 S
O531 Eu533 2.365 1_565 S
O532 Eu526 2.370 . S
O532 Eu530 2.365 1_565 S
O532 Eu534 2.364 1_565 S
Eu533 O528 2.365 1_545 S
Eu533 O531 2.365 1_545 S
Eu533 O535 2.375 . S
Eu533 O538 2.375 . S
Eu533 O550 2.363 . S
Eu533 O551 2.363 . S
Eu533 O558 2.355 1_545 S
Eu533 O559 2.371 . S
Eu534 O527 2.364 1_545 S
Eu534 O532 2.364 1_545 S
Eu534 O536 2.376 . S
Eu534 O537 2.376 . S
Eu534 O548 2.363 . S
Eu534 O549 2.363 . S
Eu534 O556 2.353 1_545 S
Eu534 O557 2.373 . S
O535 Eu529 2.375 . S
O535 Eu533 2.375 . S
O535 Eu539 2.370 . S
O536 Eu529 2.375 . S
O536 Eu534 2.376 . S
O536 Eu539 2.370 . S
O537 Eu530 2.375 . S
O537 Eu534 2.376 . S
O537 Eu539 2.370 . S
O538 Eu530 2.375 . S
O538 Eu533 2.375 . S
O538 Eu539 2.370 . S
Eu539 O535 2.370 . S
Eu539 O536 2.370 . S
Eu539 O537 2.370 . S
Eu539 O538 2.370 . S
Eu539 O542 2.363 . S
Eu539 O543 2.363 . S
Eu539 O552 2.363 . S
Eu539 O553 2.363 . S
O540 C514 1.283 . S
O540 Eu526 2.363 . S
O541 C515 1.283 . S
O541 Eu526 2.363 . S
O542 C516 1.283 . S
O542 Eu539 2.363 . S
O543 C517 1.283 . S
O543 Eu539 2.363 . S
O544 C518 1.283 . S
O544 Eu529 2.372 . S
O545 C519 1.283 . S
O545 Eu529 2.354 1_565 S
O546 C520 1.283 . S
O546 Eu530 2.372 . S
O547 C521 1.283 . S
O547 Eu530 2.354 1_565 S
O548 C522 1.283 . S
O548 Eu534 2.363 . S
O549 C523 1.283 . S
O549 Eu534 2.363 . S
O550 C524 1.283 . S
O550 Eu533 2.363 . S
O551 C525 1.283 . S
O551 Eu533 2.363 . S
O552 C520 1.283 . S
O552 Eu539 2.363 . S
O553 C518 1.283 . S
O553 Eu539 2.363 . S
O554 C521 1.283 . S
O554 Eu526 2.363 . S
O555 C519 1.283 . S
O555 Eu526 2.363 . S
O556 C515 1.283 . S
O556 Eu534 2.353 1_565 S
O557 C517 1.283 . S
O557 Eu534 2.373 . S
O558 C514 1.283 . S
O558 Eu533 2.355 1_565 S
O559 C516 1.283 . S
O559 Eu533 2.371 . S
O560 C525 1.283 . S
O560 Eu529 2.363 . S
O561 C523 1.283 . S
O561 Eu529 2.363 . S
O562 C524 1.283 . S
O562 Eu530 2.363 . S
O563 C522 1.283 . S
O563 Eu530 2.363 . S
C564 C565 1.369 . S
C564 C566 1.419 . S
C564 H568 0.930 . S
C565 C564 1.369 . S
C565 C574 1.429 . S
C566 C564 1.419 . S
C566 C567 1.363 . S
C566 H569 0.929 . S
C567 C566 1.363 . S
C567 C573 1.428 . S
H568 C564 0.930 . S
H569 C566 0.929 . S
S570 N571 1.613 . S
S570 N572 1.610 . S
N571 S570 1.613 . S
N571 C574 1.350 . S
N572 S570 1.610 . S
N572 C573 1.351 . S
C573 C567 1.428 . S
C573 N572 1.351 . S
C573 C574 1.434 . S
C574 C565 1.429 . S
C574 N571 1.350 . S
C574 C573 1.434 . S
C575 C576 1.369 . S
C575 C577 1.419 . S
C575 H579 0.930 . S
C576 C575 1.369 . S
C576 C585 1.429 . S
C577 C575 1.419 . S
C577 C578 1.363 . S
C577 H580 0.929 . S
C578 C577 1.363 . S
C578 C584 1.428 . S
H579 C575 0.930 . S
H580 C577 0.929 . S
S581 N582 1.613 . S
S581 N583 1.610 . S
N582 S581 1.613 . S
N582 C585 1.350 . S
N583 S581 1.610 . S
N583 C584 1.351 . S
C584 C578 1.428 . S
C584 N583 1.351 . S
C584 C585 1.434 . S
C585 C576 1.429 . S
C585 N582 1.350 . S
C585 C584 1.434 . S
C586 C587 1.369 . S
C586 C588 1.419 . S
C586 H590 0.930 . S
C587 C586 1.369 . S
C587 C596 1.429 . S
C588 C586 1.419 . S
C588 C589 1.363 . S
C588 H591 0.929 . S
C589 C588 1.363 . S
C589 C595 1.428 . S
H590 C586 0.930 . S
H591 C588 0.929 . S
S592 N593 1.613 . S
S592 N594 1.610 . S
N593 S592 1.613 . S
N593 C596 1.350 . S
N594 S592 1.610 . S
N594 C595 1.351 . S
C595 C589 1.428 . S
C595 N594 1.351 . S
C595 C596 1.434 . S
C596 C587 1.429 . S
C596 N593 1.350 . S
C596 C595 1.434 . S
C597 C598 1.369 . S
C597 C599 1.419 . S
C597 H601 0.930 . S
C598 C597 1.369 . S
C598 C607 1.429 . S
C599 C597 1.419 . S
C599 C600 1.363 . S
C599 H602 0.929 . S
C600 C599 1.363 . S
C600 C606 1.428 . S
H601 C597 0.930 . S
H602 C599 0.929 . S
S603 N604 1.613 . S
S603 N605 1.610 . S
N604 S603 1.613 . S
N604 C607 1.350 . S
N605 S603 1.610 . S
N605 C606 1.351 . S
C606 C600 1.428 . S
C606 N605 1.351 . S
C606 C607 1.434 . S
C607 C598 1.429 . S
C607 N604 1.350 . S
C607 C606 1.434 . S
C608 C609 1.369 . S
C608 C610 1.419 . S
C608 H612 0.930 . S
C609 C608 1.369 . S
C609 C618 1.429 . S
C610 C608 1.419 . S
C610 C611 1.363 . S
C610 H613 0.929 . S
C611 C610 1.363 . S
C611 C617 1.428 . S
H612 C608 0.930 . S
H613 C610 0.929 . S
S614 N615 1.613 . S
S614 N616 1.610 . S
N615 S614 1.613 . S
N615 C618 1.350 . S
N616 S614 1.610 . S
N616 C617 1.351 . S
C617 C611 1.428 . S
C617 N616 1.351 . S
C617 C618 1.434 . S
C618 C609 1.429 . S
C618 N615 1.350 . S
C618 C617 1.434 . S
C619 C620 1.369 . S
C619 C621 1.419 . S
C619 H623 0.930 . S
C620 C619 1.369 . S
C620 C629 1.429 . S
C621 C619 1.419 . S
C621 C622 1.363 . S
C621 H624 0.929 . S
C622 C621 1.363 . S
C622 C628 1.428 . S
H623 C619 0.930 . S
H624 C621 0.929 . S
S625 N626 1.613 . S
S625 N627 1.610 . S
N626 S625 1.613 . S
N626 C629 1.350 . S
N627 S625 1.610 . S
N627 C628 1.351 . S
C628 C622 1.428 . S
C628 N627 1.351 . S
C628 C629 1.434 . S
C629 C620 1.429 . S
C629 N626 1.350 . S
C629 C628 1.434 . S
C630 C631 1.369 . S
C630 C632 1.419 . S
C630 H634 0.930 . S
C631 C630 1.369 . S
C631 C640 1.429 . S
C632 C630 1.419 . S
C632 C633 1.363 . S
C632 H635 0.929 . S
C633 C632 1.363 . S
C633 C639 1.428 . S
H634 C630 0.930 . S
H635 C632 0.929 . S
S636 N637 1.613 . S
S636 N638 1.610 . S
N637 S636 1.613 . S
N637 C640 1.350 . S
N638 S636 1.610 . S
N638 C639 1.351 . S
C639 C633 1.428 . S
C639 N638 1.351 . S
C639 C640 1.434 . S
C640 C631 1.429 . S
C640 N637 1.350 . S
C640 C639 1.434 . S
C641 C642 1.369 . S
C641 C643 1.419 . S
C641 H645 0.930 . S
C642 C641 1.369 . S
C642 C651 1.429 . S
C643 C641 1.419 . S
C643 C644 1.363 . S
C643 H646 0.929 . S
C644 C643 1.363 . S
C644 C650 1.428 . S
H645 C641 0.930 . S
H646 C643 0.929 . S
S647 N648 1.613 . S
S647 N649 1.610 . S
N648 S647 1.613 . S
N648 C651 1.350 . S
N649 S647 1.610 . S
N649 C650 1.351 . S
C650 C644 1.428 . S
C650 N649 1.351 . S
C650 C651 1.434 . S
C651 C642 1.429 . S
C651 N648 1.350 . S
C651 C650 1.434 . S
C652 C653 1.369 . S
C652 C654 1.419 . S
C652 H656 0.930 . S
C653 C652 1.369 . S
C653 C662 1.429 . S
C654 C652 1.419 . S
C654 C655 1.363 . S
C654 H657 0.929 . S
C655 C654 1.363 . S
C655 C661 1.428 . S
H656 C652 0.930 . S
H657 C654 0.929 . S
S658 N659 1.613 . S
S658 N660 1.610 . S
N659 S658 1.613 . S
N659 C662 1.350 . S
N660 S658 1.610 . S
N660 C661 1.351 . S
C661 C655 1.428 . S
C661 N660 1.351 . S
C661 C662 1.434 . S
C662 C653 1.429 . S
C662 N659 1.350 . S
C662 C661 1.434 . S
C663 C664 1.369 . S
C663 C665 1.419 . S
C663 H667 0.930 . S
C664 C663 1.369 . S
C664 C673 1.429 . S
C665 C663 1.419 . S
C665 C666 1.363 . S
C665 H668 0.929 . S
C666 C665 1.363 . S
C666 C672 1.428 . S
H667 C663 0.930 . S
H668 C665 0.929 . S
S669 N670 1.613 . S
S669 N671 1.610 . S
N670 S669 1.613 . S
N670 C673 1.350 . S
N671 S669 1.610 . S
N671 C672 1.351 . S
C672 C666 1.428 . S
C672 N671 1.351 . S
C672 C673 1.434 . S
C673 C664 1.429 . S
C673 N670 1.350 . S
C673 C672 1.434 . S
C674 C675 1.369 . S
C674 C676 1.419 . S
C674 H678 0.930 . S
C675 C674 1.369 . S
C675 C684 1.429 . S
C676 C674 1.419 . S
C676 C677 1.363 . S
C676 H679 0.929 . S
C677 C676 1.363 . S
C677 C683 1.428 . S
H678 C674 0.930 . S
H679 C676 0.929 . S
S680 N681 1.613 . S
S680 N682 1.610 . S
N681 S680 1.613 . S
N681 C684 1.350 . S
N682 S680 1.610 . S
N682 C683 1.351 . S
C683 C677 1.428 . S
C683 N682 1.351 . S
C683 C684 1.434 . S
C684 C675 1.429 . S
C684 N681 1.350 . S
C684 C683 1.434 . S
C685 C686 1.369 . S
C685 C687 1.419 . S
C685 H689 0.930 . S
C686 C685 1.369 . S
C686 C695 1.429 . S
C687 C685 1.419 . S
C687 C688 1.363 . S
C687 H690 0.929 . S
C688 C687 1.363 . S
C688 C694 1.428 . S
H689 C685 0.930 . S
H690 C687 0.929 . S
S691 N692 1.613 . S
S691 N693 1.610 . S
N692 S691 1.613 . S
N692 C695 1.350 . S
N693 S691 1.610 . S
N693 C694 1.351 . S
C694 C688 1.428 . S
C694 N693 1.351 . S
C694 C695 1.434 . S
C695 C686 1.429 . S
C695 N692 1.350 . S
C695 C694 1.434 . S
C696 C697 1.369 1_556 S
C696 C698 1.419 . S
C696 H700 0.930 . S
C697 C696 1.369 1_554 S
C697 C706 1.429 . S
C698 C696 1.419 . S
C698 C699 1.363 1_556 S
C698 H701 0.929 . S
C699 C698 1.363 1_554 S
C699 C705 1.428 . S
H700 C696 0.930 . S
H701 C698 0.929 . S
S702 N703 1.613 . S
S702 N704 1.610 . S
N703 S702 1.613 . S
N703 C706 1.350 . S
N704 S702 1.610 . S
N704 C705 1.351 . S
C705 C699 1.428 . S
C705 N704 1.351 . S
C705 C706 1.434 . S
C706 C697 1.429 . S
C706 N703 1.350 . S
C706 C705 1.434 . S
C707 C708 1.369 1_556 S
C707 C709 1.419 . S
C707 H711 0.930 . S
C708 C707 1.369 1_554 S
C708 C717 1.429 . S
C709 C707 1.419 . S
C709 C710 1.363 1_556 S
C709 H712 0.929 . S
C710 C709 1.363 1_554 S
C710 C716 1.428 . S
H711 C707 0.930 . S
H712 C709 0.929 . S
S713 N714 1.613 . S
S713 N715 1.610 . S
N714 S713 1.613 . S
N714 C717 1.350 . S
N715 S713 1.610 . S
N715 C716 1.351 . S
C716 C710 1.428 . S
C716 N715 1.351 . S
C716 C717 1.434 . S
C717 C708 1.429 . S
C717 N714 1.350 . S
C717 C716 1.434 . S
C718 C719 1.369 . S
C718 C720 1.419 . S
C718 H722 0.930 . S
C719 C718 1.369 . S
C719 C728 1.429 1_554 S
C720 C718 1.419 . S
C720 C721 1.363 . S
C720 H723 0.929 . S
C721 C720 1.363 . S
C721 C727 1.428 1_554 S
H722 C718 0.930 . S
H723 C720 0.929 . S
S724 N725 1.613 . S
S724 N726 1.610 . S
N725 S724 1.613 . S
N725 C728 1.350 . S
N726 S724 1.610 . S
N726 C727 1.351 . S
C727 C721 1.428 1_556 S
C727 N726 1.351 . S
C727 C728 1.434 . S
C728 C719 1.429 1_556 S
C728 N725 1.350 . S
C728 C727 1.434 . S
C729 C730 1.369 . S
C729 C731 1.419 . S
C729 H733 0.930 . S
C730 C729 1.369 . S
C730 C739 1.429 . S
C731 C729 1.419 . S
C731 C732 1.363 . S
C731 H734 0.929 . S
C732 C731 1.363 . S
C732 C738 1.428 . S
H733 C729 0.930 . S
H734 C731 0.929 . S
S735 N736 1.613 . S
S735 N737 1.610 . S
N736 S735 1.613 . S
N736 C739 1.350 1_556 S
N737 S735 1.610 . S
N737 C738 1.351 1_556 S
C738 C732 1.428 . S
C738 N737 1.351 1_554 S
C738 C739 1.434 . S
C739 C730 1.429 . S
C739 N736 1.350 1_554 S
C739 C738 1.434 . S
C740 C741 1.369 . S
C740 C742 1.419 . S
C740 H744 0.930 . S
C741 C740 1.369 . S
C741 C750 1.429 . S
C742 C740 1.419 . S
C742 C743 1.363 . S
C742 H745 0.929 . S
C743 C742 1.363 . S
C743 C749 1.428 . S
H744 C740 0.930 . S
H745 C742 0.929 . S
S746 N747 1.613 . S
S746 N748 1.610 . S
N747 S746 1.613 . S
N747 C750 1.350 . S
N748 S746 1.610 . S
N748 C749 1.351 . S
C749 C743 1.428 . S
C749 N748 1.351 . S
C749 C750 1.434 . S
C750 C741 1.429 . S
C750 N747 1.350 . S
C750 C749 1.434 . S
C751 C752 1.370 . S
C751 C753 1.419 . S
C751 H755 0.930 . S
C752 C751 1.370 . S
C752 C761 1.428 1_545 S
C753 C751 1.419 . S
C753 C754 1.364 . S
C753 H756 0.929 . S
C754 C753 1.364 . S
C754 C760 1.428 1_545 S
H755 C751 0.930 . S
H756 C753 0.929 . S
S757 N758 1.613 . S
S757 N759 1.610 . S
N758 S757 1.613 . S
N758 C761 1.350 . S
N759 S757 1.610 . S
N759 C760 1.351 . S
C760 C754 1.428 1_565 S
C760 N759 1.351 . S
C760 C761 1.434 . S
C761 C752 1.428 1_565 S
C761 N758 1.350 . S
C761 C760 1.434 . S
C762 C763 1.369 . S
C762 C764 1.419 . S
C762 H766 0.930 . S
C763 C762 1.369 . S
C763 C772 1.429 . S
C764 C762 1.419 . S
C764 C765 1.363 . S
C764 H767 0.929 . S
C765 C764 1.363 . S
C765 C771 1.428 . S
H766 C762 0.930 . S
H767 C764 0.929 . S
S768 N769 1.613 . S
S768 N770 1.610 . S
N769 S768 1.613 . S
N769 C772 1.350 1_655 S
N770 S768 1.610 . S
N770 C771 1.351 1_655 S
C771 C765 1.428 . S
C771 N770 1.351 1_455 S
C771 C772 1.434 . S
C772 C763 1.429 . S
C772 N769 1.350 1_455 S
C772 C771 1.434 . S
C773 C774 1.368 1_565 S
C773 C775 1.419 . S
C773 H777 0.930 . S
C774 C773 1.368 1_545 S
C774 C783 1.430 . S
C775 C773 1.419 . S
C775 C776 1.361 1_565 S
C775 H778 0.929 . S
C776 C775 1.361 1_545 S
C776 C782 1.430 . S
H777 C773 0.930 . S
H778 C775 0.929 . S
S779 N780 1.613 . S
S779 N781 1.610 . S
N780 S779 1.613 . S
N780 C783 1.350 . S
N781 S779 1.610 . S
N781 C782 1.351 . S
C782 C776 1.430 . S
C782 N781 1.351 . S
C782 C783 1.434 . S
C783 C774 1.430 . S
C783 N780 1.350 . S
C783 C782 1.434 . S
C784 C785 1.369 . S
C784 C786 1.419 . S
C784 H788 0.930 . S
C785 C784 1.369 . S
C785 C794 1.429 1_455 S
C786 C784 1.419 . S
C786 C787 1.363 . S
C786 H789 0.929 . S
C787 C786 1.363 . S
C787 C793 1.428 1_455 S
H788 C784 0.930 . S
H789 C786 0.929 . S
S790 N791 1.613 . S
S790 N792 1.610 . S
N791 S790 1.613 . S
N791 C794 1.350 . S
N792 S790 1.610 . S
N792 C793 1.351 . S
C793 C787 1.428 1_655 S
C793 N792 1.351 . S
C793 C794 1.434 . S
C794 C785 1.429 1_655 S
C794 N791 1.350 . S
C794 C793 1.434 . S
C795 C796 1.372 . S
C795 C797 1.419 . S
C795 H799 0.930 . S
C796 C795 1.372 . S
C796 C805 1.425 1_545 S
C797 C795 1.419 . S
C797 C798 1.366 . S
C797 H800 0.929 . S
C798 C797 1.366 . S
C798 C804 1.425 1_545 S
H799 C795 0.930 . S
H800 C797 0.929 . S
S801 N802 1.613 . S
S801 N803 1.610 . S
N802 S801 1.613 . S
N802 C805 1.350 . S
N803 S801 1.610 . S
N803 C804 1.351 . S
C804 C798 1.425 1_565 S
C804 N803 1.351 . S
C804 C805 1.434 . S
C805 C796 1.425 1_565 S
C805 N802 1.350 . S
C805 C804 1.434 . S
C806 C807 1.369 1_655 S
C806 C808 1.419 . S
C806 H810 0.930 . S
C807 C806 1.369 1_455 S
C807 C816 1.429 . S
C808 C806 1.419 . S
C808 C809 1.363 1_655 S
C808 H811 0.929 . S
C809 C808 1.363 1_455 S
C809 C815 1.428 . S
H810 C806 0.930 . S
H811 C808 0.929 . S
S812 N813 1.613 . S
S812 N814 1.610 . S
N813 S812 1.613 . S
N813 C816 1.350 . S
N814 S812 1.610 . S
N814 C815 1.351 . S
C815 C809 1.428 . S
C815 N814 1.351 . S
C815 C816 1.434 . S
C816 C807 1.429 . S
C816 N813 1.350 . S
C816 C815 1.434 . S
C817 C818 1.373 . S
C817 C819 1.419 . S
C817 H821 0.930 . S
C818 C817 1.373 . S
C818 C827 1.424 1_545 S
C819 C817 1.419 . S
C819 C820 1.367 . S
C819 H822 0.929 . S
C820 C819 1.367 . S
C820 C826 1.425 1_545 S
H821 C817 0.930 . S
H822 C819 0.929 . S
S823 N824 1.613 . S
S823 N825 1.610 . S
N824 S823 1.613 . S
N824 C827 1.350 . S
N825 S823 1.610 . S
N825 C826 1.351 . S
C826 C820 1.425 1_565 S
C826 N825 1.351 . S
C826 C827 1.434 . S
C827 C818 1.424 1_565 S
C827 N824 1.350 . S
C827 C826 1.434 . S
C828 C829 1.369 1_655 S
C828 C830 1.419 1_655 S
C828 H832 0.930 . S
C829 C828 1.369 1_455 S
C829 C838 1.429 . S
C830 C828 1.419 1_455 S
C830 C831 1.363 . S
C830 H833 0.929 1_455 S
C831 C830 1.363 . S
C831 C837 1.428 . S
H832 C828 0.930 . S
H833 C830 0.929 1_655 S
S834 N835 1.613 . S
S834 N836 1.610 . S
N835 S834 1.613 . S
N835 C838 1.350 . S
N836 S834 1.610 . S
N836 C837 1.351 . S
C837 C831 1.428 . S
C837 N836 1.351 . S
C837 C838 1.434 . S
C838 C829 1.429 . S
C838 N835 1.350 . S
C838 C837 1.434 . S
C839 C840 1.347 1_565 S
C839 C841 1.419 . S
C839 H843 0.930 . S
C840 C839 1.347 1_545 S
C840 C849 1.451 . S
C841 C839 1.419 . S
C841 C842 1.343 1_565 S
C841 H844 0.929 . S
C842 C841 1.343 1_545 S
C842 C848 1.449 . S
H843 C839 0.930 . S
H844 C841 0.929 . S
S845 N846 1.613 . S
S845 N847 1.610 . S
N846 S845 1.613 . S
N846 C849 1.350 . S
N847 S845 1.610 . S
N847 C848 1.351 . S
C848 C842 1.449 . S
C848 N847 1.351 . S
C848 C849 1.434 . S
C849 C840 1.451 . S
C849 N846 1.350 . S
C849 C848 1.434 . S
C850 C851 1.369 . S
C850 C852 1.419 . S
C850 H854 0.930 1_455 S
C851 C850 1.369 . S
C851 C860 1.429 . S
C852 C850 1.419 . S
C852 C853 1.363 . S
C852 H855 0.929 1_455 S
C853 C852 1.363 . S
C853 C859 1.428 . S
H854 C850 0.930 1_655 S
H855 C852 0.929 1_655 S
S856 N857 1.613 . S
S856 N858 1.610 . S
N857 S856 1.613 . S
N857 C860 1.350 . S
N858 S856 1.610 . S
N858 C859 1.351 . S
C859 C853 1.428 . S
C859 N858 1.351 . S
C859 C860 1.434 . S
C860 C851 1.429 . S
C860 N857 1.350 . S
C860 C859 1.434 . S
C861 C862 1.366 . S
C861 C863 1.419 . S
C861 H865 0.930 . S
C862 C861 1.366 . S
C862 C871 1.431 1_545 S
C863 C861 1.419 . S
C863 C864 1.362 . S
C863 H866 0.929 . S
C864 C863 1.362 . S
C864 C870 1.430 1_545 S
H865 C861 0.930 . S
H866 C863 0.929 . S
S867 N868 1.613 . S
S867 N869 1.610 . S
N868 S867 1.613 . S
N868 C871 1.350 . S
N869 S867 1.610 . S
N869 C870 1.351 . S
C870 C864 1.430 1_565 S
C870 N869 1.351 . S
C870 C871 1.434 . S
C871 C862 1.431 1_565 S
C871 N868 1.350 . S
C871 C870 1.434 . S
C872 C873 1.369 1_655 S
C872 C874 1.419 . S
C872 H876 0.930 . S
C873 C872 1.369 1_455 S
C873 C882 1.429 . S
C874 C872 1.419 . S
C874 C875 1.363 1_655 S
C874 H877 0.929 . S
C875 C874 1.363 1_455 S
C875 C881 1.428 . S
H876 C872 0.930 . S
H877 C874 0.929 . S
S878 N879 1.613 . S
S878 N880 1.610 . S
N879 S878 1.613 . S
N879 C882 1.350 . S
N880 S878 1.610 . S
N880 C881 1.351 . S
C881 C875 1.428 . S
C881 N880 1.351 . S
C881 C882 1.434 . S
C882 C873 1.429 . S
C882 N879 1.350 . S
C882 C881 1.434 . S
C883 C884 1.371 . S
C883 C885 1.419 . S
C883 H887 0.930 . S
C884 C883 1.371 . S
C884 C893 1.427 1_545 S
C885 C883 1.419 . S
C885 C886 1.365 . S
C885 H888 0.929 . S
C886 C885 1.365 . S
C886 C892 1.427 1_545 S
H887 C883 0.930 . S
H888 C885 0.929 . S
S889 N890 1.613 . S
S889 N891 1.610 . S
N890 S889 1.613 . S
N890 C893 1.350 . S
N891 S889 1.610 . S
N891 C892 1.351 . S
C892 C886 1.427 1_565 S
C892 N891 1.351 . S
C892 C893 1.434 . S
C893 C884 1.427 1_565 S
C893 N890 1.350 . S
C893 C892 1.434 . S
C894 C895 1.369 . S
C894 C896 1.419 . S
C894 H898 0.930 1_455 S
C895 C894 1.369 . S
C895 C904 1.429 . S
C896 C894 1.419 . S
C896 C897 1.363 . S
C896 H899 0.929 1_455 S
C897 C896 1.363 . S
C897 C903 1.428 . S
H898 C894 0.930 1_655 S
H899 C896 0.929 1_655 S
S900 N901 1.613 . S
S900 N902 1.610 . S
N901 S900 1.613 . S
N901 C904 1.350 . S
N902 S900 1.610 . S
N902 C903 1.351 . S
C903 C897 1.428 . S
C903 N902 1.351 . S
C903 C904 1.434 . S
C904 C895 1.429 . S
C904 N901 1.350 . S
C904 C903 1.434 . S
C905 C906 1.350 1_565 S
C905 C907 1.419 . S
C905 H909 0.930 . S
C906 C905 1.350 1_545 S
C906 C915 1.449 . S
C907 C905 1.419 . S
C907 C908 1.345 1_565 S
C907 H910 0.929 . S
C908 C907 1.345 1_545 S
C908 C914 1.447 . S
H909 C905 0.930 . S
H910 C907 0.929 . S
S911 N912 1.613 . S
S911 N913 1.610 . S
N912 S911 1.613 . S
N912 C915 1.350 . S
N913 S911 1.610 . S
N913 C914 1.351 . S
C914 C908 1.447 . S
C914 N913 1.351 . S
C914 C915 1.434 . S
C915 C906 1.449 . S
C915 N912 1.350 . S
C915 C914 1.434 . S
C916 C917 1.368 . S
C916 C918 1.419 . S
C916 H920 0.930 . S
C917 C916 1.368 . S
C917 C926 1.429 1_545 S
C918 C916 1.419 . S
C918 C919 1.370 . S
C918 H921 0.929 . S
C919 C918 1.370 . S
C919 C925 1.421 1_545 S
H920 C916 0.930 . S
H921 C918 0.929 . S
S922 N923 1.613 . S
S922 N924 1.610 . S
N923 S922 1.613 . S
N923 C926 1.350 . S
N924 S922 1.610 . S
N924 C925 1.351 . S
C925 C919 1.421 1_565 S
C925 N924 1.351 . S
C925 C926 1.434 . S
C926 C917 1.429 1_565 S
C926 N923 1.350 . S
C926 C925 1.434 . S
C927 C928 1.369 1_655 S
C927 C929 1.419 . S
C927 H931 0.930 . S
C928 C927 1.369 1_455 S
C928 C937 1.429 . S
C929 C927 1.419 . S
C929 C930 1.363 1_655 S
C929 H932 0.929 . S
C930 C929 1.363 1_455 S
C930 C936 1.428 . S
H931 C927 0.930 . S
H932 C929 0.929 . S
S933 N934 1.613 . S
S933 N935 1.610 . S
N934 S933 1.613 . S
N934 C937 1.350 . S
N935 S933 1.610 . S
N935 C936 1.351 . S
C936 C930 1.428 . S
C936 N935 1.351 . S
C936 C937 1.434 . S
C937 C928 1.429 . S
C937 N934 1.350 . S
C937 C936 1.434 . S
C938 C939 1.371 . S
C938 C940 1.419 . S
C938 H942 0.930 . S
C939 C938 1.371 . S
C939 C948 1.427 1_545 S
C940 C938 1.419 . S
C940 C941 1.365 . S
C940 H943 0.929 . S
C941 C940 1.365 . S
C941 C947 1.427 1_545 S
H942 C938 0.930 . S
H943 C940 0.929 . S
S944 N945 1.613 . S
S944 N946 1.610 . S
N945 S944 1.613 . S
N945 C948 1.350 . S
N946 S944 1.610 . S
N946 C947 1.351 . S
C947 C941 1.427 1_565 S
C947 N946 1.351 . S
C947 C948 1.434 . S
C948 C939 1.427 1_565 S
C948 N945 1.350 . S
C948 C947 1.434 . S
C949 C950 1.369 . S
C949 C951 1.419 . S
C949 H953 0.930 . S
C950 C949 1.369 . S
C950 C959 1.429 1_455 S
C951 C949 1.419 . S
C951 C952 1.363 . S
C951 H954 0.929 . S
C952 C951 1.363 . S
C952 C958 1.428 1_455 S
H953 C949 0.930 . S
H954 C951 0.929 . S
S955 N956 1.613 . S
S955 N957 1.610 . S
N956 S955 1.613 . S
N956 C959 1.350 . S
N957 S955 1.610 . S
N957 C958 1.351 . S
C958 C952 1.428 1_655 S
C958 N957 1.351 . S
C958 C959 1.434 . S
C959 C950 1.429 1_655 S
C959 N956 1.350 . S
C959 C958 1.434 . S
C960 C961 1.371 . S
C960 C962 1.419 . S
C960 H964 0.930 . S
C961 C960 1.371 . S
C961 C970 1.427 1_545 S
C962 C960 1.419 . S
C962 C963 1.363 . S
C962 H965 0.929 . S
C963 C962 1.363 . S
C963 C969 1.428 1_545 S
H964 C960 0.930 . S
H965 C962 0.929 . S
S966 N967 1.613 . S
S966 N968 1.610 . S
N967 S966 1.613 . S
N967 C970 1.350 . S
N968 S966 1.610 . S
N968 C969 1.351 . S
C969 C963 1.428 1_565 S
C969 N968 1.351 . S
C969 C970 1.434 . S
C970 C961 1.427 1_565 S
C970 N967 1.350 . S
C970 C969 1.434 . S
C971 C972 1.369 . S
C971 C973 1.419 . S
C971 H975 0.930 . S
C972 C971 1.369 . S
C972 C981 1.429 1_455 S
C973 C971 1.419 . S
C973 C974 1.363 . S
C973 H976 0.929 . S
C974 C973 1.363 . S
C974 C980 1.428 1_455 S
H975 C971 0.930 . S
H976 C973 0.929 . S
S977 N978 1.613 . S
S977 N979 1.610 . S
N978 S977 1.613 . S
N978 C981 1.350 . S
N979 S977 1.610 . S
N979 C980 1.351 . S
C980 C974 1.428 1_655 S
C980 N979 1.351 . S
C980 C981 1.434 . S
C981 C972 1.429 1_655 S
C981 N978 1.350 . S
C981 C980 1.434 . S
C982 C983 1.367 . S
C982 C984 1.419 . S
C982 H986 0.930 . S
C983 C982 1.367 . S
C983 C992 1.431 1_545 S
C984 C982 1.419 . S
C984 C985 1.363 1_545 S
C984 H987 0.929 . S
C985 C984 1.363 1_565 S
C985 C991 1.429 . S
H986 C982 0.930 . S
H987 C984 0.929 . S
S988 N989 1.613 . S
S988 N990 1.610 . S
N989 S988 1.613 . S
N989 C992 1.350 . S
N990 S988 1.610 . S
N990 C991 1.351 . S
C991 C985 1.429 . S
C991 N990 1.351 . S
C991 C992 1.434 . S
C992 C983 1.431 1_565 S
C992 N989 1.350 . S
C992 C991 1.434 . S
C993 C994 1.369 . S
C993 C995 1.419 . S
C993 H997 0.930 . S
C994 C993 1.369 . S
C994 C1003 1.429 1_455 S
C995 C993 1.419 . S
C995 C996 1.363 . S
C995 H998 0.929 . S
C996 C995 1.363 . S
C996 C1002 1.428 1_455 S
H997 C993 0.930 . S
H998 C995 0.929 . S
S999 N1000 1.613 . S
S999 N1001 1.610 . S
N1000 S999 1.613 . S
N1000 C1003 1.350 . S
N1001 S999 1.610 . S
N1001 C1002 1.351 . S
C1002 C996 1.428 1_655 S
C1002 N1001 1.351 . S
C1002 C1003 1.434 . S
C1003 C994 1.429 1_655 S
C1003 N1000 1.350 . S
C1003 C1002 1.434 . S
C1004 C1005 1.369 . S
C1004 C1006 1.419 . S
C1004 H1008 0.930 . S
C1005 C1004 1.369 . S
C1005 C1014 1.429 1_554 S
C1006 C1004 1.419 . S
C1006 C1007 1.363 . S
C1006 H1009 0.929 . S
C1007 C1006 1.363 . S
C1007 C1013 1.428 1_554 S
H1008 C1004 0.930 . S
H1009 C1006 0.929 . S
S1010 N1011 1.613 . S
S1010 N1012 1.610 . S
N1011 S1010 1.613 . S
N1011 C1014 1.350 . S
N1012 S1010 1.610 . S
N1012 C1013 1.351 . S
C1013 C1007 1.428 1_556 S
C1013 N1012 1.351 . S
C1013 C1014 1.434 . S
C1014 C1005 1.429 1_556 S
C1014 N1011 1.350 . S
C1014 C1013 1.434 . S
C1015 C1016 1.369 . S
C1015 C1017 1.419 . S
C1015 H1019 0.930 . S
C1016 C1015 1.369 . S
C1016 C1025 1.429 1_554 S
C1017 C1015 1.419 . S
C1017 C1018 1.363 . S
C1017 H1020 0.929 . S
C1018 C1017 1.363 . S
C1018 C1024 1.428 1_554 S
H1019 C1015 0.930 . S
H1020 C1017 0.929 . S
S1021 N1022 1.613 . S
S1021 N1023 1.610 . S
N1022 S1021 1.613 . S
N1022 C1025 1.350 . S
N1023 S1021 1.610 . S
N1023 C1024 1.351 . S
C1024 C1018 1.428 1_556 S
C1024 N1023 1.351 . S
C1024 C1025 1.434 . S
C1025 C1016 1.429 1_556 S
C1025 N1022 1.350 . S
C1025 C1024 1.434 . S
C1026 C1027 1.369 1_556 S
C1026 C1028 1.419 . S
C1026 H1030 0.930 . S
C1027 C1026 1.369 1_554 S
C1027 C1036 1.429 . S
C1028 C1026 1.419 . S
C1028 C1029 1.363 1_556 S
C1028 H1031 0.929 . S
C1029 C1028 1.363 1_554 S
C1029 C1035 1.428 . S
H1030 C1026 0.930 . S
H1031 C1028 0.929 . S
S1032 N1033 1.613 . S
S1032 N1034 1.610 . S
N1033 S1032 1.613 . S
N1033 C1036 1.350 . S
N1034 S1032 1.610 . S
N1034 C1035 1.351 . S
C1035 C1029 1.428 . S
C1035 N1034 1.351 . S
C1035 C1036 1.434 . S
C1036 C1027 1.429 . S
C1036 N1033 1.350 . S
C1036 C1035 1.434 . S
C1037 C1038 1.369 . S
C1037 C1039 1.419 . S
C1037 H1041 0.930 . S
C1038 C1037 1.369 . S
C1038 C1047 1.429 1_554 S
C1039 C1037 1.419 . S
C1039 C1040 1.363 . S
C1039 H1042 0.929 . S
C1040 C1039 1.363 . S
C1040 C1046 1.428 1_554 S
H1041 C1037 0.930 . S
H1042 C1039 0.929 . S
S1043 N1044 1.613 . S
S1043 N1045 1.610 . S
N1044 S1043 1.613 . S
N1044 C1047 1.350 . S
N1045 S1043 1.610 . S
N1045 C1046 1.351 . S
C1046 C1040 1.428 1_556 S
C1046 N1045 1.351 . S
C1046 C1047 1.434 . S
C1047 C1038 1.429 1_556 S
C1047 N1044 1.350 . S
C1047 C1046 1.434 . S
C1048 C1049 1.369 1_556 S
C1048 C1050 1.419 . S
C1048 H1052 0.930 . S
C1049 C1048 1.369 1_554 S
C1049 C1058 1.429 . S
C1050 C1048 1.419 . S
C1050 C1051 1.363 1_556 S
C1050 H1053 0.929 . S
C1051 C1050 1.363 1_554 S
C1051 C1057 1.428 . S
H1052 C1048 0.930 . S
H1053 C1050 0.929 . S
S1054 N1055 1.613 . S
S1054 N1056 1.610 . S
N1055 S1054 1.613 . S
N1055 C1058 1.350 . S
N1056 S1054 1.610 . S
N1056 C1057 1.351 . S
C1057 C1051 1.428 . S
C1057 N1056 1.351 . S
C1057 C1058 1.434 . S
C1058 C1049 1.429 . S
C1058 N1055 1.350 . S
C1058 C1057 1.434 . S
C1059 C1060 1.369 . S
C1059 C1061 1.419 . S
C1059 H1063 0.930 . S
C1060 C1059 1.369 . S
C1060 C1069 1.429 1_554 S
C1061 C1059 1.419 . S
C1061 C1062 1.363 . S
C1061 H1064 0.929 . S
C1062 C1061 1.363 . S
C1062 C1068 1.428 1_554 S
H1063 C1059 0.930 . S
H1064 C1061 0.929 . S
S1065 N1066 1.613 . S
S1065 N1067 1.610 . S
N1066 S1065 1.613 . S
N1066 C1069 1.350 . S
N1067 S1065 1.610 . S
N1067 C1068 1.351 . S
C1068 C1062 1.428 1_556 S
C1068 N1067 1.351 . S
C1068 C1069 1.434 . S
C1069 C1060 1.429 1_556 S
C1069 N1066 1.350 . S
C1069 C1068 1.434 . S
C1070 C1071 1.369 . S
C1070 C1072 1.419 . S
C1070 H1074 0.930 . S
C1071 C1070 1.369 . S
C1071 C1080 1.429 1_554 S
C1072 C1070 1.419 . S
C1072 C1073 1.363 . S
C1072 H1075 0.929 . S
C1073 C1072 1.363 . S
C1073 C1079 1.426 1_554 S
H1074 C1070 0.930 . S
H1075 C1072 0.929 . S
S1076 N1077 1.613 . S
S1076 N1078 1.610 . S
N1077 S1076 1.613 . S
N1077 C1080 1.350 . S
N1078 S1076 1.610 . S
N1078 C1079 1.353 . S
C1079 C1073 1.426 1_556 S
C1079 N1078 1.353 . S
C1079 C1080 1.434 . S
C1080 C1071 1.429 1_556 S
C1080 N1077 1.350 . S
C1080 C1079 1.434 . S
C1081 C1082 1.369 . S
C1081 C1083 1.419 . S
C1081 H1085 0.930 . S
C1082 C1081 1.369 . S
C1082 C1091 1.429 1_554 S
C1083 C1081 1.419 . S
C1083 C1084 1.363 . S
C1083 H1086 0.929 . S
C1084 C1083 1.363 . S
C1084 C1090 1.428 1_554 S
H1085 C1081 0.930 . S
H1086 C1083 0.929 . S
S1087 N1088 1.613 . S
S1087 N1089 1.610 . S
N1088 S1087 1.613 . S
N1088 C1091 1.350 . S
N1089 S1087 1.610 . S
N1089 C1090 1.351 . S
C1090 C1084 1.428 1_556 S
C1090 N1089 1.351 . S
C1090 C1091 1.434 . S
C1091 C1082 1.429 1_556 S
C1091 N1088 1.350 . S
C1091 C1090 1.434 . S
C1092 C1093 1.369 . S
C1092 C1094 1.419 . S
C1092 H1096 0.930 . S
C1093 C1092 1.369 . S
C1093 C1102 1.429 . S
C1094 C1092 1.419 . S
C1094 C1095 1.363 . S
C1094 H1097 0.929 . S
C1095 C1094 1.363 . S
C1095 C1101 1.428 . S
H1096 C1092 0.930 . S
H1097 C1094 0.929 . S
S1098 N1099 1.613 . S
S1098 N1100 1.610 . S
N1099 S1098 1.613 . S
N1099 C1102 1.350 . S
N1100 S1098 1.610 . S
N1100 C1101 1.351 . S
C1101 C1095 1.428 . S
C1101 N1100 1.351 . S
C1101 C1102 1.434 . S
C1102 C1093 1.429 . S
C1102 N1099 1.350 . S
C1102 C1101 1.434 . S
C1103 C1104 1.369 . S
C1103 C1105 1.419 . S
C1103 H1107 0.930 . S
C1104 C1103 1.369 . S
C1104 C1113 1.429 . S
C1105 C1103 1.419 . S
C1105 C1106 1.363 . S
C1105 H1108 0.929 . S
C1106 C1105 1.363 . S
C1106 C1112 1.428 . S
H1107 C1103 0.930 . S
H1108 C1105 0.929 . S
S1109 N1110 1.613 . S
S1109 N1111 1.610 . S
N1110 S1109 1.613 . S
N1110 C1113 1.350 . S
N1111 S1109 1.610 . S
N1111 C1112 1.351 . S
C1112 C1106 1.428 . S
C1112 N1111 1.351 . S
C1112 C1113 1.434 . S
C1113 C1104 1.429 . S
C1113 N1110 1.350 . S
C1113 C1112 1.434 . S
C1114 C1115 1.369 . S
C1114 C1116 1.419 . S
C1114 H1118 0.930 . S
C1115 C1114 1.369 . S
C1115 C1124 1.429 . S
C1116 C1114 1.419 . S
C1116 C1117 1.363 . S
C1116 H1119 0.929 . S
C1117 C1116 1.363 . S
C1117 C1123 1.428 . S
H1118 C1114 0.930 . S
H1119 C1116 0.929 . S
S1120 N1121 1.613 . S
S1120 N1122 1.610 . S
N1121 S1120 1.613 . S
N1121 C1124 1.350 . S
N1122 S1120 1.610 . S
N1122 C1123 1.351 . S
C1123 C1117 1.428 . S
C1123 N1122 1.351 . S
C1123 C1124 1.434 . S
C1124 C1115 1.429 . S
C1124 N1121 1.350 . S
C1124 C1123 1.434 . S
C1125 C1126 1.369 . S
C1125 C1127 1.419 . S
C1125 H1129 0.930 . S
C1126 C1125 1.369 . S
C1126 C1135 1.429 . S
C1127 C1125 1.419 . S
C1127 C1128 1.363 . S
C1127 H1130 0.929 . S
C1128 C1127 1.363 . S
C1128 C1134 1.428 . S
H1129 C1125 0.930 . S
H1130 C1127 0.929 . S
S1131 N1132 1.613 . S
S1131 N1133 1.610 . S
N1132 S1131 1.613 . S
N1132 C1135 1.350 . S
N1133 S1131 1.610 . S
N1133 C1134 1.351 . S
C1134 C1128 1.428 . S
C1134 N1133 1.351 . S
C1134 C1135 1.434 . S
C1135 C1126 1.429 . S
C1135 N1132 1.350 . S
C1135 C1134 1.434 . S
C1136 C1137 1.369 . S
C1136 C1138 1.419 . S
C1136 H1140 0.930 . S
C1137 C1136 1.369 . S
C1137 C1146 1.429 . S
C1138 C1136 1.419 . S
C1138 C1139 1.363 . S
C1138 H1141 0.929 . S
C1139 C1138 1.363 . S
C1139 C1145 1.428 . S
H1140 C1136 0.930 . S
H1141 C1138 0.929 . S
S1142 N1143 1.613 . S
S1142 N1144 1.610 . S
N1143 S1142 1.613 . S
N1143 C1146 1.350 . S
N1144 S1142 1.610 . S
N1144 C1145 1.351 . S
C1145 C1139 1.428 . S
C1145 N1144 1.351 . S
C1145 C1146 1.434 . S
C1146 C1137 1.429 . S
C1146 N1143 1.350 . S
C1146 C1145 1.434 . S
C1147 C1148 1.369 . S
C1147 C1149 1.419 . S
C1147 H1151 0.930 . S
C1148 C1147 1.369 . S
C1148 C1157 1.429 . S
C1149 C1147 1.419 . S
C1149 C1150 1.363 . S
C1149 H1152 0.929 . S
C1150 C1149 1.363 . S
C1150 C1156 1.428 . S
H1151 C1147 0.930 . S
H1152 C1149 0.929 . S
S1153 N1154 1.613 . S
S1153 N1155 1.610 . S
N1154 S1153 1.613 . S
N1154 C1157 1.350 . S
N1155 S1153 1.610 . S
N1155 C1156 1.351 . S
C1156 C1150 1.428 . S
C1156 N1155 1.351 . S
C1156 C1157 1.434 . S
C1157 C1148 1.429 . S
C1157 N1154 1.350 . S
C1157 C1156 1.434 . S
C1158 C1159 1.369 . S
C1158 C1160 1.419 . S
C1158 H1162 0.930 . S
C1159 C1158 1.369 . S
C1159 C1168 1.429 . S
C1160 C1158 1.419 . S
C1160 C1161 1.363 . S
C1160 H1163 0.929 . S
C1161 C1160 1.363 . S
C1161 C1167 1.428 . S
H1162 C1158 0.930 . S
H1163 C1160 0.929 . S
S1164 N1165 1.613 . S
S1164 N1166 1.610 . S
N1165 S1164 1.613 . S
N1165 C1168 1.350 . S
N1166 S1164 1.610 . S
N1166 C1167 1.351 . S
C1167 C1161 1.428 . S
C1167 N1166 1.351 . S
C1167 C1168 1.434 . S
C1168 C1159 1.429 . S
C1168 N1165 1.350 . S
C1168 C1167 1.434 . S
C1169 C1170 1.369 . S
C1169 C1171 1.419 . S
C1169 H1173 0.930 . S
C1170 C1169 1.369 . S
C1170 C1179 1.429 . S
C1171 C1169 1.419 . S
C1171 C1172 1.363 . S
C1171 H1174 0.929 . S
C1172 C1171 1.363 . S
C1172 C1178 1.428 . S
H1173 C1169 0.930 . S
H1174 C1171 0.929 . S
S1175 N1176 1.613 . S
S1175 N1177 1.610 . S
N1176 S1175 1.613 . S
N1176 C1179 1.350 . S
N1177 S1175 1.610 . S
N1177 C1178 1.351 . S
C1178 C1172 1.428 . S
C1178 N1177 1.351 . S
C1178 C1179 1.434 . S
C1179 C1170 1.429 . S
C1179 N1176 1.350 . S
C1179 C1178 1.434 . S
C1180 C1181 1.369 . S
C1180 C1182 1.419 . S
C1180 H1184 0.930 . S
C1181 C1180 1.369 . S
C1181 C1190 1.429 . S
C1182 C1180 1.419 . S
C1182 C1183 1.363 . S
C1182 H1185 0.929 . S
C1183 C1182 1.363 . S
C1183 C1189 1.428 . S
H1184 C1180 0.930 . S
H1185 C1182 0.929 . S
S1186 N1187 1.613 . S
S1186 N1188 1.610 . S
N1187 S1186 1.613 . S
N1187 C1190 1.350 . S
N1188 S1186 1.610 . S
N1188 C1189 1.351 . S
C1189 C1183 1.428 . S
C1189 N1188 1.351 . S
C1189 C1190 1.434 . S
C1190 C1181 1.429 . S
C1190 N1187 1.350 . S
C1190 C1189 1.434 . S
C1191 C1192 1.369 . S
C1191 C1193 1.419 . S
C1191 H1195 0.930 . S
C1192 C1191 1.369 . S
C1192 C1201 1.429 . S
C1193 C1191 1.419 . S
C1193 C1194 1.363 . S
C1193 H1196 0.929 . S
C1194 C1193 1.363 . S
C1194 C1200 1.428 . S
H1195 C1191 0.930 . S
H1196 C1193 0.929 . S
S1197 N1198 1.613 . S
S1197 N1199 1.610 . S
N1198 S1197 1.613 . S
N1198 C1201 1.350 . S
N1199 S1197 1.610 . S
N1199 C1200 1.351 . S
C1200 C1194 1.428 . S
C1200 N1199 1.351 . S
C1200 C1201 1.434 . S
C1201 C1192 1.429 . S
C1201 N1198 1.350 . S
C1201 C1200 1.434 . S
C1202 C1203 1.369 . S
C1202 C1204 1.419 . S
C1202 H1206 0.930 . S
C1203 C1202 1.369 . S
C1203 C1212 1.429 . S
C1204 C1202 1.419 . S
C1204 C1205 1.363 . S
C1204 H1207 0.929 . S
C1205 C1204 1.363 . S
C1205 C1211 1.428 . S
H1206 C1202 0.930 . S
H1207 C1204 0.929 . S
S1208 N1209 1.613 . S
S1208 N1210 1.610 . S
N1209 S1208 1.613 . S
N1209 C1212 1.350 . S
N1210 S1208 1.610 . S
N1210 C1211 1.351 . S
C1211 C1205 1.428 . S
C1211 N1210 1.351 . S
C1211 C1212 1.434 . S
C1212 C1203 1.429 . S
C1212 N1209 1.350 . S
C1212 C1211 1.434 . S
C1213 C1214 1.369 . S
C1213 C1215 1.419 . S
C1213 H1217 0.930 . S
C1214 C1213 1.369 . S
C1214 C1223 1.429 . S
C1215 C1213 1.419 . S
C1215 C1216 1.363 . S
C1215 H1218 0.929 . S
C1216 C1215 1.363 . S
C1216 C1222 1.428 . S
H1217 C1213 0.930 . S
H1218 C1215 0.929 . S
S1219 N1220 1.613 . S
S1219 N1221 1.610 . S
N1220 S1219 1.613 . S
N1220 C1223 1.350 . S
N1221 S1219 1.610 . S
N1221 C1222 1.351 . S
C1222 C1216 1.428 . S
C1222 N1221 1.351 . S
C1222 C1223 1.434 . S
C1223 C1214 1.429 . S
C1223 N1220 1.350 . S
C1223 C1222 1.434 . S
C1224 C1225 1.369 . S
C1224 C1226 1.419 . S
C1224 H1228 0.930 . S
C1225 C1224 1.369 . S
C1225 C1234 1.429 . S
C1226 C1224 1.419 . S
C1226 C1227 1.363 . S
C1226 H1229 0.929 . S
C1227 C1226 1.363 . S
C1227 C1233 1.428 . S
H1228 C1224 0.930 . S
H1229 C1226 0.929 . S
S1230 N1231 1.613 . S
S1230 N1232 1.610 . S
N1231 S1230 1.613 . S
N1231 C1234 1.350 . S
N1232 S1230 1.610 . S
N1232 C1233 1.351 . S
C1233 C1227 1.428 . S
C1233 N1232 1.351 . S
C1233 C1234 1.434 . S
C1234 C1225 1.429 . S
C1234 N1231 1.350 . S
C1234 C1233 1.434 . S
C1235 C1236 1.369 . S
C1235 C1237 1.419 . S
C1235 H1239 0.930 . S
C1236 C1235 1.369 . S
C1236 C1245 1.429 . S
C1237 C1235 1.419 . S
C1237 C1238 1.363 . S
C1237 H1240 0.929 . S
C1238 C1237 1.363 . S
C1238 C1244 1.428 . S
H1239 C1235 0.930 . S
H1240 C1237 0.929 . S
S1241 N1242 1.613 . S
S1241 N1243 1.610 . S
N1242 S1241 1.613 . S
N1242 C1245 1.350 . S
N1243 S1241 1.610 . S
N1243 C1244 1.351 . S
C1244 C1238 1.428 . S
C1244 N1243 1.351 . S
C1244 C1245 1.434 . S
C1245 C1236 1.429 . S
C1245 N1242 1.350 . S
C1245 C1244 1.434 . S
C1246 C1247 1.369 . S
C1246 C1248 1.419 . S
C1246 H1250 0.930 . S
C1247 C1246 1.369 . S
C1247 C1256 1.429 . S
C1248 C1246 1.419 . S
C1248 C1249 1.363 . S
C1248 H1251 0.929 . S
C1249 C1248 1.363 . S
C1249 C1255 1.428 . S
H1250 C1246 0.930 . S
H1251 C1248 0.929 . S
S1252 N1253 1.613 . S
S1252 N1254 1.610 . S
N1253 S1252 1.613 . S
N1253 C1256 1.350 . S
N1254 S1252 1.610 . S
N1254 C1255 1.351 . S
C1255 C1249 1.428 . S
C1255 N1254 1.351 . S
C1255 C1256 1.434 . S
C1256 C1247 1.429 . S
C1256 N1253 1.350 . S
C1256 C1255 1.434 . S
C1257 C1258 1.369 . S
C1257 C1259 1.419 . S
C1257 H1261 0.930 . S
C1258 C1257 1.369 . S
C1258 C1267 1.429 . S
C1259 C1257 1.419 . S
C1259 C1260 1.363 . S
C1259 H1262 0.929 . S
C1260 C1259 1.363 . S
C1260 C1266 1.428 . S
H1261 C1257 0.930 . S
H1262 C1259 0.929 . S
S1263 N1264 1.613 . S
S1263 N1265 1.610 . S
N1264 S1263 1.613 . S
N1264 C1267 1.350 . S
N1265 S1263 1.610 . S
N1265 C1266 1.351 . S
C1266 C1260 1.428 . S
C1266 N1265 1.351 . S
C1266 C1267 1.434 . S
C1267 C1258 1.429 . S
C1267 N1264 1.350 . S
C1267 C1266 1.434 . S
C1268 C1269 1.369 . S
C1268 C1270 1.419 . S
C1268 H1272 0.930 . S
C1269 C1268 1.369 . S
C1269 C1278 1.429 . S
C1270 C1268 1.419 . S
C1270 C1271 1.363 . S
C1270 H1273 0.929 . S
C1271 C1270 1.363 . S
C1271 C1277 1.428 . S
H1272 C1268 0.930 . S
H1273 C1270 0.929 . S
S1274 N1275 1.613 . S
S1274 N1276 1.610 . S
N1275 S1274 1.613 . S
N1275 C1278 1.350 . S
N1276 S1274 1.610 . S
N1276 C1277 1.351 . S
C1277 C1271 1.428 . S
C1277 N1276 1.351 . S
C1277 C1278 1.434 . S
C1278 C1269 1.429 . S
C1278 N1275 1.350 . S
C1278 C1277 1.434 . S
C1279 C1280 1.369 . S
C1279 C1281 1.419 . S
C1279 H1283 0.930 . S
C1280 C1279 1.369 . S
C1280 C1289 1.429 . S
C1281 C1279 1.419 . S
C1281 C1282 1.363 . S
C1281 H1284 0.929 . S
C1282 C1281 1.363 . S
C1282 C1288 1.428 . S
H1283 C1279 0.930 . S
H1284 C1281 0.929 . S
S1285 N1286 1.613 . S
S1285 N1287 1.610 . S
N1286 S1285 1.613 . S
N1286 C1289 1.350 . S
N1287 S1285 1.610 . S
N1287 C1288 1.351 . S
C1288 C1282 1.428 . S
C1288 N1287 1.351 . S
C1288 C1289 1.434 . S
C1289 C1280 1.429 . S
C1289 N1286 1.350 . S
C1289 C1288 1.434 . S
C1290 C1291 1.369 . S
C1290 C1292 1.419 . S
C1290 H1294 0.930 . S
C1291 C1290 1.369 . S
C1291 C1300 1.429 . S
C1292 C1290 1.419 . S
C1292 C1293 1.363 . S
C1292 H1295 0.929 . S
C1293 C1292 1.363 . S
C1293 C1299 1.428 . S
H1294 C1290 0.930 . S
H1295 C1292 0.929 . S
S1296 N1297 1.613 . S
S1296 N1298 1.610 . S
N1297 S1296 1.613 . S
N1297 C1300 1.350 . S
N1298 S1296 1.610 . S
N1298 C1299 1.351 . S
C1299 C1293 1.428 . S
C1299 N1298 1.351 . S
C1299 C1300 1.434 . S
C1300 C1291 1.429 . S
C1300 N1297 1.350 . S
C1300 C1299 1.434 . S
C1301 C1302 1.369 . S
C1301 C1303 1.419 . S
C1301 H1305 0.930 . S
C1302 C1301 1.369 . S
C1302 C1311 1.429 . S
C1303 C1301 1.419 . S
C1303 C1304 1.363 . S
C1303 H1306 0.929 . S
C1304 C1303 1.363 . S
C1304 C1310 1.428 . S
H1305 C1301 0.930 . S
H1306 C1303 0.929 . S
S1307 N1308 1.613 . S
S1307 N1309 1.610 . S
N1308 S1307 1.613 . S
N1308 C1311 1.350 . S
N1309 S1307 1.610 . S
N1309 C1310 1.351 . S
C1310 C1304 1.428 . S
C1310 N1309 1.351 . S
C1310 C1311 1.434 . S
C1311 C1302 1.429 . S
C1311 N1308 1.350 . S
C1311 C1310 1.434 . S
C1312 C1313 1.369 . S
C1312 C1314 1.419 . S
C1312 H1316 0.930 . S
C1313 C1312 1.369 . S
C1313 C1322 1.429 . S
C1314 C1312 1.419 . S
C1314 C1315 1.363 . S
C1314 H1317 0.929 . S
C1315 C1314 1.363 . S
C1315 C1321 1.428 . S
H1316 C1312 0.930 . S
H1317 C1314 0.929 . S
S1318 N1319 1.613 . S
S1318 N1320 1.610 . S
N1319 S1318 1.613 . S
N1319 C1322 1.350 . S
N1320 S1318 1.610 . S
N1320 C1321 1.351 . S
C1321 C1315 1.428 . S
C1321 N1320 1.351 . S
C1321 C1322 1.434 . S
C1322 C1313 1.429 . S
C1322 N1319 1.350 . S
C1322 C1321 1.434 . S
C1323 C1324 1.369 . S
C1323 C1325 1.419 . S
C1323 H1327 0.930 . S
C1324 C1323 1.369 . S
C1324 C1333 1.429 . S
C1325 C1323 1.419 . S
C1325 C1326 1.363 . S
C1325 H1328 0.929 . S
C1326 C1325 1.363 . S
C1326 C1332 1.428 . S
H1327 C1323 0.930 . S
H1328 C1325 0.929 . S
S1329 N1330 1.613 . S
S1329 N1331 1.610 . S
N1330 S1329 1.613 . S
N1330 C1333 1.350 . S
N1331 S1329 1.610 . S
N1331 C1332 1.351 . S
C1332 C1326 1.428 . S
C1332 N1331 1.351 . S
C1332 C1333 1.434 . S
C1333 C1324 1.429 . S
C1333 N1330 1.350 . S
C1333 C1332 1.434 . S
C1334 C1335 1.369 . S
C1334 C1336 1.419 . S
C1334 H1338 0.930 . S
C1335 C1334 1.369 . S
C1335 C1344 1.429 . S
C1336 C1334 1.419 . S
C1336 C1337 1.363 . S
C1336 H1339 0.929 . S
C1337 C1336 1.363 . S
C1337 C1343 1.428 . S
H1338 C1334 0.930 . S
H1339 C1336 0.929 . S
S1340 N1341 1.613 . S
S1340 N1342 1.610 . S
N1341 S1340 1.613 . S
N1341 C1344 1.350 . S
N1342 S1340 1.610 . S
N1342 C1343 1.351 . S
C1343 C1337 1.428 . S
C1343 N1342 1.351 . S
C1343 C1344 1.434 . S
C1344 C1335 1.429 . S
C1344 N1341 1.350 . S
C1344 C1343 1.434 . S
C1345 C1346 1.369 . S
C1345 C1347 1.419 . S
C1345 H1349 0.930 . S
C1346 C1345 1.369 . S
C1346 C1355 1.429 . S
C1347 C1345 1.419 . S
C1347 C1348 1.363 . S
C1347 H1350 0.929 . S
C1348 C1347 1.363 . S
C1348 C1354 1.428 . S
H1349 C1345 0.930 . S
H1350 C1347 0.929 . S
S1351 N1352 1.613 . S
S1351 N1353 1.610 . S
N1352 S1351 1.613 . S
N1352 C1355 1.350 . S
N1353 S1351 1.610 . S
N1353 C1354 1.351 . S
C1354 C1348 1.428 . S
C1354 N1353 1.351 . S
C1354 C1355 1.434 . S
C1355 C1346 1.429 . S
C1355 N1352 1.350 . S
C1355 C1354 1.434 . S
C567 C270 1.408 . S
C565 C258 1.407 . S
C576 C236 1.628 . S
C578 C268 1.628 . S
C589 C269 1.628 . S
C587 C225 1.628 . S
C598 C247 1.407 . S
C600 C271 1.408 . S
C611 C315 1.525 . S
C609 C181 1.529 . S
C622 C375 1.460 . S
C620 C192 1.458 . S
C631 C203 1.524 . S
C633 C314 1.522 . S
C644 C374 1.691 . S
C642 C214 1.696 . S
C653 C137 1.591 . S
C655 C316 1.590 . S
C666 C372 1.608 . S
C664 C148 1.607 . S
C675 C159 1.607 . S
C677 C317 1.602 . S
C686 C170 1.388 . S
C688 C373 1.387 . S
C699 C423 1.408 . S
C697 C126 1.407 . S
C708 C104 1.627 . S
C710 C422 1.628 . S
C719 C93 1.628 . S
C721 C424 1.628 . S
C732 C425 1.408 . S
C730 C115 1.408 . S
C741 C49 1.528 . S
C743 C466 1.526 . S
C752 C60 1.459 . S
C754 C525 1.460 . S
C763 C71 1.523 . S
C765 C464 1.522 . S
C774 C82 1.695 1_545 S
C776 C524 1.693 . S
C787 C465 1.590 . S
C785 C5 1.591 . S
C798 C522 1.608 . S
C796 C16 1.607 1_545 S
C807 C27 1.607 . S
C809 C467 1.602 . S
C820 C523 1.387 . S
C818 C38 1.388 1_545 S
C831 C267 1.636 . S
C829 C4 1.591 . S
C840 C21 1.406 . S
C842 C273 1.518 . S
C851 C32 1.368 . S
C853 C265 1.508 . S
C862 C37 1.399 1_545 S
C864 C272 1.460 . S
C873 C48 1.578 . S
C875 C264 1.623 . S
C886 C274 1.500 . S
C884 C59 1.431 . S
C895 C76 1.359 . S
C897 C266 1.498 . S
C908 C275 1.716 . S
C906 C81 1.677 1_545 S
C919 C321 1.446 . S
C917 C43 1.313 . S
C928 C10 1.423 . S
C930 C364 1.545 . S
C941 C319 1.626 . S
C939 C15 1.583 1_545 S
C952 C366 1.696 . S
C950 C26 1.656 . S
C961 C65 1.363 1_545 S
C963 C320 1.472 . S
C974 C365 1.611 . S
C972 C70 1.561 . S
C985 C318 1.531 1_565 S
C983 C87 1.406 . S
C996 C367 1.488 . S
C994 C54 1.350 . S
C1007 C371 1.499 . S
C1005 C98 1.387 . S
C1016 C109 1.385 . S
C1018 C370 1.501 . S
C1029 C322 1.627 . S
C1027 C92 1.586 . S
C1040 C369 1.472 . S
C1038 C114 1.403 . S
C1049 C131 1.280 . S
C1051 C325 1.414 . S
C1060 C125 1.414 . S
C1062 C368 1.470 . S
C1073 C324 1.628 . S
C1071 C103 1.579 . S
C1084 C323 1.411 . S
C1082 C120 1.292 . S
C1095 C417 1.635 . S
C1093 C136 1.590 . S
C1106 C420 1.518 . S
C1104 C153 1.407 . S
C1115 C164 1.369 . S
C1117 C416 1.508 . S
C1128 C418 1.462 . S
C1126 C169 1.394 . S
C1139 C414 1.623 . S
C1137 C180 1.572 . S
C1148 C191 1.430 . S
C1150 C419 1.500 . S
C1159 C208 1.359 . S
C1161 C415 1.498 . S
C1172 C421 1.716 . S
C1170 C213 1.679 . S
C1183 C475 1.446 . S
C1181 C175 1.313 . S
C1192 C142 1.429 . S
C1194 C514 1.544 . S
C1205 C474 1.626 . S
C1203 C147 1.581 . S
C1216 C516 1.696 . S
C1214 C158 1.662 . S
C1227 C473 1.475 . S
C1225 C197 1.350 . S
C1236 C202 1.561 . S
C1238 C515 1.611 . S
C1249 C472 1.531 . S
C1247 C219 1.406 . S
C1260 C517 1.485 . S
C1258 C186 1.362 . S
C1271 C521 1.499 . S
C1269 C230 1.387 . S
C1280 C241 1.381 . S
C1282 C520 1.501 . S
C1293 C468 1.627 . S
C1291 C224 1.580 . S
C1302 C246 1.413 . S
C1304 C519 1.470 . S
C1315 C471 1.414 . S
C1313 C263 1.281 . S
C1326 C518 1.470 . S
C1324 C257 1.413 . S
C1337 C469 1.627 . S
C1335 C235 1.583 . S
C1346 C252 1.295 . S
C1348 C470 1.411 . S
