# Generated by pormake.
# Topology anh, (6,3)-cn, num edge types: 1
# Building blocks:
#     Node 0, Type 0, BuildingBlock: NUHQIS_clean_sbu_0, # of connection points: 6
#     Node 1, Type 0, BuildingBlock: NUHQIS_clean_sbu_0, # of connection points: 6
#     Node 2, Type 0, BuildingBlock: NUHQIS_clean_sbu_0, # of connection points: 6
#     Node 3, Type 1, BuildingBlock: VETTIZ_charged_linker_0, # of connection points: 3
#     Node 4, Type 1, BuildingBlock: VETTIZ_charged_linker_0, # of connection points: 3
#     Node 5, Type 1, BuildingBlock: VETTIZ_charged_linker_0, # of connection points: 3
#     Node 6, Type 1, BuildingBlock: VETTIZ_charged_linker_0, # of connection points: 3
#     Node 7, Type 1, BuildingBlock: VETTIZ_charged_linker_0, # of connection points: 3
#     Node 8, Type 1, BuildingBlock: VETTIZ_charged_linker_0, # of connection points: 3
#     Edge 9, Type (0, 1), BuildingBlock: MIFKUJ_clean_linker_0, # of connection points: 2
#     Edge 10, Type (0, 1), BuildingBlock: MIFKUJ_clean_linker_0, # of connection points: 2
#     Edge 11, Type (0, 1), BuildingBlock: MIFKUJ_clean_linker_0, # of connection points: 2
#     Edge 12, Type (0, 1), BuildingBlock: MIFKUJ_clean_linker_0, # of connection points: 2
#     Edge 13, Type (0, 1), BuildingBlock: MIFKUJ_clean_linker_0, # of connection points: 2
#     Edge 14, Type (0, 1), BuildingBlock: MIFKUJ_clean_linker_0, # of connection points: 2
#     Edge 15, Type (0, 1), BuildingBlock: MIFKUJ_clean_linker_0, # of connection points: 2
#     Edge 16, Type (0, 1), BuildingBlock: MIFKUJ_clean_linker_0, # of connection points: 2
#     Edge 17, Type (0, 1), BuildingBlock: MIFKUJ_clean_linker_0, # of connection points: 2
#     Edge 18, Type (0, 1), BuildingBlock: MIFKUJ_clean_linker_0, # of connection points: 2
#     Edge 19, Type (0, 1), BuildingBlock: MIFKUJ_clean_linker_0, # of connection points: 2
#     Edge 20, Type (0, 1), BuildingBlock: MIFKUJ_clean_linker_0, # of connection points: 2
#     Edge 21, Type (0, 1), BuildingBlock: MIFKUJ_clean_linker_0, # of connection points: 2
#     Edge 22, Type (0, 1), BuildingBlock: MIFKUJ_clean_linker_0, # of connection points: 2
#     Edge 23, Type (0, 1), BuildingBlock: MIFKUJ_clean_linker_0, # of connection points: 2
#     Edge 24, Type (0, 1), BuildingBlock: MIFKUJ_clean_linker_0, # of connection points: 2
#     Edge 25, Type (0, 1), BuildingBlock: MIFKUJ_clean_linker_0, # of connection points: 2
#     Edge 26, Type (0, 1), BuildingBlock: MIFKUJ_clean_linker_0, # of connection points: 2
# Relax obj value: 0.205
# Max RMSD: 0.186
# Mean RMSD: 0.152
data_MOF--net-anh--node1-NUHQIS_clean_sbu_0--node2-VETTIZ_charged_linker_0--edge1-MIFKUJ_clean_linker_0
_symmetry_space_group_name_H-M    P1
_symmetry_Int_Tables_number       1
_symmetry_cell_setting            triclinic
loop_
_symmetry_equiv_pos_as_xyz
'x, y, z'
_cell_length_a     46.372308
_cell_length_b     46.054487
_cell_length_c     82.704602
_cell_angle_alpha  90.699659
_cell_angle_beta   92.643143
_cell_angle_gamma 119.80064
loop_
_atom_site_label
_atom_site_type_symbol
_atom_site_fract_x
_atom_site_fract_y
_atom_site_fract_z
_atom_type_partial_charge
Tb0 Tb 0.09973 0.54943 0.16516 0.0
Eu1 Eu 0.06095 0.59064 0.16243 0.0
C2 C 0.08208 0.57368 0.19663 0.0
C3 C 1.01836 0.50752 0.16594 0.0
C4 C 0.16367 0.52502 0.17447 0.0
C5 C 0.19863 0.50353 0.18511 0.0
C6 C 0.16789 0.49796 0.17866 0.0
C7 C 0.19014 0.55787 0.17741 0.0
C8 C 0.22103 0.56348 0.18376 0.0
C9 C 0.22569 0.53631 0.18742 0.0
C10 C 0.13174 0.51845 0.1668 0.0
O11 O 0.07967 0.54262 0.13998 0.0
O12 O 0.08167 0.59258 0.13811 0.0
O13 O 0.11548 0.63345 0.16649 0.0
O14 O 0.14222 0.60278 0.16518 0.0
C15 C 0.08131 0.56679 0.13113 0.0
O16 O 1.02573 0.60065 0.1488 0.0
O17 O 1.04812 0.62693 0.17194 0.0
O18 O 0.05868 0.57572 0.18819 0.0
O19 O 0.10487 0.57015 0.18954 0.0
O20 O 1.0474 0.50872 0.16879 0.0
O21 O 1.01815 0.53515 0.16173 0.0
C22 C 0.14353 0.63235 0.16648 0.0
O23 O 0.10898 0.51422 0.17667 0.0
O24 O 0.13324 0.53749 0.15494 0.0
C25 C 0.99035 0.60478 0.16661 0.0
C26 C 0.92305 0.56314 0.17303 0.0
C27 C 0.9318 0.58363 0.15954 0.0
C28 C 0.96519 0.60428 0.15638 0.0
C29 C 0.98178 0.58627 0.18072 0.0
C30 C 0.94844 0.56579 0.18395 0.0
C31 C 1.02397 0.61824 0.16083 0.0
H32 H 0.20164 0.48209 0.18753 0.0
H33 H 0.14764 0.47248 0.17654 0.0
H34 H 0.18717 0.5791 0.17443 0.0
H35 H 0.24146 0.58897 0.18545 0.0
H36 H 0.91293 0.58192 0.15075 0.0
H37 H 0.97126 0.61794 0.14531 0.0
H38 H 1.00071 0.58588 0.18874 0.0
H39 H 0.94255 0.55074 0.19456 0.0
Tb40 Tb 0.61756 0.0893 0.4989 0.0
Eu41 Eu 0.53849 0.04855 0.49225 0.0
C42 C 0.5709 0.06925 0.52753 0.0
C43 C 0.57999 1.00759 0.49836 0.0
C44 C 0.69864 0.15979 0.5111 0.0
C45 C 0.75006 0.21297 0.51251 0.0
C46 C 0.73306 0.17824 0.5097 0.0
C47 C 0.68179 0.17597 0.51647 0.0
C48 C 0.69855 0.2107 0.51892 0.0
C49 C 0.73268 0.22985 0.5163 0.0
C50 C 0.67948 0.12505 0.50474 0.0
O51 O 0.60878 0.07323 0.47317 0.0
O52 O 0.55957 0.07216 0.46889 0.0
O53 O 0.54866 0.10253 0.49712 0.0
O54 O 0.60556 0.13075 0.4961 0.0
C55 C 0.58619 0.07385 0.46322 0.0
O56 O 0.49564 1.01417 0.47648 0.0
O57 O 0.48819 1.03305 0.49917 0.0
O58 O 0.54869 0.04379 0.51849 0.0
O59 O 0.59646 0.09382 0.52107 0.0
O60 O 0.60638 0.03672 0.50326 0.0
O61 O 0.55313 1.00725 0.49189 0.0
C62 C 0.57723 0.13122 0.4972 0.0
O63 O 0.65967 0.10324 0.51467 0.0
O64 O 0.66458 0.12164 0.49051 0.0
C65 C 0.45235 0.97574 0.49162 0.0
C66 C 0.41759 0.90749 0.49867 0.0
C67 C 0.41679 0.91757 0.48277 0.0
C68 C 0.43389 0.95142 0.4793 0.0
C69 C 0.45251 0.96572 0.50763 0.0
C70 C 0.43501 0.93184 0.51113 0.0
C71 C 0.47452 1.01057 0.48726 0.0
H72 H 0.77657 0.2267 0.51094 0.0
H73 H 0.74648 0.16606 0.50568 0.0
H74 H 0.65522 0.16199 0.51782 0.0
H75 H 0.68415 0.2225 0.5218 0.0
H76 H 0.40307 0.8992 0.473 0.0
H77 H 0.43361 0.95855 0.46687 0.0
H78 H 0.46692 0.98388 0.51737 0.0
H79 H 0.43595 0.92459 0.52347 0.0
Tb80 Tb 0.59233 0.59405 0.83346 0.0
Eu81 Eu 0.55073 0.51429 0.83103 0.0
C82 C 0.57683 0.55458 0.86478 0.0
C83 C 0.63377 0.554 0.83486 0.0
C84 C 0.60775 0.67842 0.82852 0.0
C85 C 0.59494 0.72298 0.83258 0.0
C86 C 0.61122 0.70578 0.83779 0.0
C87 C 0.58854 0.66901 0.81377 0.0
C88 C 0.57245 0.68621 0.80854 0.0
C89 C 0.57502 0.71301 0.818 0.0
C90 C 0.61998 0.6569 0.83521 0.0
O91 O 0.57606 0.58369 0.80771 0.0
O92 O 0.55942 0.52794 0.80497 0.0
O93 O 0.50938 0.52806 0.82693 0.0
O94 O 0.53951 0.58186 0.8373 0.0
C95 C 0.56735 0.5567 0.79859 0.0
O96 O 0.5411 0.46595 0.82119 0.0
O97 O 0.51145 0.46776 0.84018 0.0
O98 O 0.55108 0.53047 0.85667 0.0
O99 O 0.6006 0.57871 0.8572 0.0
O100 O 0.63325 0.58176 0.83112 0.0
O101 O 0.60522 0.52653 0.83743 0.0
C102 C 0.51013 0.55551 0.83258 0.0
O103 O 0.60238 0.63777 0.84654 0.0
O104 O 0.6271 0.64042 0.82468 0.0
C105 C 0.52575 0.42559 0.84123 0.0
C106 C 0.53668 0.37971 0.85893 0.0
C107 C 0.56359 0.40831 0.85292 0.0
C108 C 0.55819 0.43114 0.84424 0.0
C109 C 0.49899 0.39779 0.84768 0.0
C110 C 0.5044 0.37509 0.85651 0.0
C111 C 0.51965 0.4491 0.83185 0.0
H112 H 0.59753 0.74374 0.84003 0.0
H113 H 0.62556 0.71308 0.84931 0.0
H114 H 0.58488 0.64755 0.80655 0.0
H115 H 0.55689 0.67762 0.79739 0.0
H116 H 0.58869 0.41241 0.85432 0.0
H117 H 0.57935 0.45278 0.83962 0.0
H118 H 0.47387 0.39346 0.84574 0.0
H119 H 0.4832 0.35356 0.86116 0.0
C120 C 0.67049 0.15851 0.18419 0.0
C121 C 0.69863 0.18707 0.19273 0.0
C122 C 0.69885 0.18712 0.20971 0.0
C123 C 0.64642 0.13345 0.20979 0.0
C124 C 0.64437 0.13186 0.19305 0.0
C125 C 0.61156 0.09934 0.18709 0.0
H126 H 0.47087 0.95101 0.21299 0.0
C127 C 0.61697 0.10319 0.21607 0.0
C128 C 0.59544 0.08206 0.20294 0.0
H129 H 0.48441 0.97604 0.16292 0.0
H130 H 0.53724 1.02862 0.17093 0.0
H131 H 0.54429 0.97193 0.22342 0.0
H132 H 0.486 1.02042 0.22451 0.0
H133 H 0.51147 1.03506 0.24237 0.0
H134 H 0.48272 0.99075 0.23917 0.0
H135 H 0.51308 0.9624 0.23767 0.0
H136 H 0.55591 0.99435 0.24207 0.0
C137 C 0.61982 0.0767 0.17684 0.0
C138 C 0.5887 0.10892 0.17737 0.0
C139 C 0.61164 0.09481 0.27783 0.0
C140 C 0.58838 0.07094 0.28791 0.0
C141 C 0.56091 0.0421 0.28054 0.0
C142 C 0.55629 0.03725 0.26366 0.0
C143 C 0.57919 0.06155 0.25366 0.0
C144 C 0.60638 0.08963 0.26081 0.0
C145 C 0.628 0.1127 0.24828 0.0
C146 C 0.60918 0.09402 0.23241 0.0
C147 C 0.58063 0.06407 0.23568 0.0
C148 C 0.66256 0.11504 0.25043 0.0
C149 C 0.62852 0.1465 0.25051 0.0
C150 C 0.48486 0.96703 0.20345 0.0
C151 C 0.47252 0.95779 0.18722 0.0
C152 C 0.49241 0.98143 0.17563 0.0
C153 C 0.52325 1.01207 0.18024 0.0
C154 C 0.53487 1.02044 0.19677 0.0
C155 C 0.5147 0.99749 0.2078 0.0
C156 C 0.5274 1.00918 0.22486 0.0
C157 C 0.55878 0.0424 0.22281 0.0
C158 C 0.56484 0.05039 0.20628 0.0
C159 C 0.53542 0.98318 0.23256 0.0
C160 C 0.50063 1.01394 0.2333 0.0
H161 H 0.67675 0.16408 0.23098 0.0
H162 H 0.66873 0.15713 0.17108 0.0
H163 H 0.58346 0.12583 0.18483 0.0
H164 H 0.56462 0.08641 0.17362 0.0
H165 H 0.60061 0.12208 0.16632 0.0
H166 H 0.63678 0.0704 0.18393 0.0
H167 H 0.63226 0.08948 0.16581 0.0
H168 H 0.59687 0.05299 0.17301 0.0
H169 H 0.63306 0.11734 0.28302 0.0
H170 H 0.54291 1.02292 0.28789 0.0
H171 H 0.5348 1.01457 0.25912 0.0
H172 H 0.66028 0.09143 0.25505 0.0
H173 H 0.67949 0.13567 0.25919 0.0
H174 H 0.67476 0.11829 0.23889 0.0
H175 H 0.60471 0.14266 0.25508 0.0
H176 H 0.63078 0.15925 0.239 0.0
H177 H 0.6489 0.16373 0.25934 0.0
H178 H 0.71912 0.20775 0.21677 0.0
C179 C 0.67371 0.16119 0.21807 0.0
C180 C 0.57853 0.65691 0.51978 0.0
C181 C 0.57972 0.68518 0.5284 0.0
C182 C 0.5798 0.68384 0.54538 0.0
C183 C 0.57852 0.62993 0.54528 0.0
C184 C 0.57823 0.62949 0.52856 0.0
C185 C 0.5776 0.59695 0.52248 0.0
H186 H 0.58777 0.45432 0.54704 0.0
C187 C 0.57879 0.5995 0.55147 0.0
C188 C 0.57865 0.5793 0.53828 0.0
H189 H 0.5727 0.47245 0.49732 0.0
H190 H 0.57296 0.52453 0.50598 0.0
H191 H 0.63896 0.52856 0.55923 0.0
H192 H 0.53289 0.46672 0.55842 0.0
H193 H 0.5435 0.49037 0.57663 0.0
H194 H 0.55994 0.46269 0.57328 0.0
H195 H 0.61829 0.49465 0.57253 0.0
H196 H 0.62752 0.53661 0.57796 0.0
C197 C 0.60823 0.60605 0.51279 0.0
C198 C 0.54513 0.57507 0.51219 0.0
C199 C 0.57785 0.58613 0.61298 0.0
C200 C 0.57942 0.56237 0.6231 0.0
C201 C 0.58317 0.53671 0.61572 0.0
C202 C 0.58434 0.53414 0.59886 0.0
C203 C 0.58188 0.55748 0.58889 0.0
C204 C 0.57922 0.58319 0.59604 0.0
C205 C 0.57839 0.60649 0.58362 0.0
C206 C 0.57967 0.58982 0.56776 0.0
C207 C 0.58161 0.56105 0.57094 0.0
C208 C 0.61001 0.64133 0.58707 0.0
C209 C 0.54489 0.60614 0.58465 0.0
C210 C 0.58481 0.46926 0.5378 0.0
C211 C 0.58071 0.45855 0.52143 0.0
C212 C 0.57605 0.47938 0.5101 0.0
C213 C 0.57624 0.50973 0.5151 0.0
C214 C 0.58026 0.51968 0.53174 0.0
C215 C 0.58384 0.49854 0.54255 0.0
C216 C 0.58479 0.50933 0.55974 0.0
C217 C 0.58206 0.54067 0.55797 0.0
C218 C 0.57996 0.54842 0.5415 0.0
C219 C 0.61896 0.51753 0.56794 0.0
C220 C 0.55396 0.48092 0.56757 0.0
H221 H 0.57891 0.65881 0.56652 0.0
H222 H 0.57845 0.65647 0.5067 0.0
H223 H 0.52324 0.5695 0.51924 0.0
H224 H 0.54303 0.55094 0.50837 0.0
H225 H 0.54407 0.58811 0.50115 0.0
H226 H 0.63147 0.62243 0.52031 0.0
H227 H 0.60792 0.61959 0.50181 0.0
H228 H 0.60884 0.58324 0.5089 0.0
H229 H 0.5751 0.60635 0.61805 0.0
H230 H 0.58556 0.51856 0.623 0.0
H231 H 0.58715 0.51386 0.5943 0.0
H232 H 0.63032 0.63925 0.59369 0.0
H233 H 0.60463 0.65805 0.59457 0.0
H234 H 0.62116 0.65392 0.57584 0.0
H235 H 0.52444 0.58062 0.58713 0.0
H236 H 0.5365 0.61249 0.57319 0.0
H237 H 0.54638 0.62344 0.59454 0.0
H238 H 0.58036 0.70403 0.55252 0.0
C239 C 0.57904 0.65707 0.55364 0.0
C240 C 0.16209 0.55704 0.85194 0.0
C241 C 0.19129 0.5592 0.86052 0.0
C242 C 0.19177 0.56102 0.87752 0.0
C243 C 0.13735 0.55804 0.87751 0.0
C244 C 0.13536 0.55684 0.86077 0.0
C245 C 0.10251 0.55628 0.85484 0.0
H246 H 0.95183 0.54425 0.88073 0.0
C247 C 0.10668 0.55656 0.88379 0.0
C248 C 0.08509 0.55549 0.87068 0.0
H249 H 0.97934 0.56048 0.8313 0.0
H250 H 1.03198 0.56059 0.8391 0.0
H251 H 0.97514 0.49216 0.88838 0.0
H252 H 1.01917 0.59849 0.8949 0.0
H253 H 1.03227 0.58627 0.91238 0.0
H254 H 0.98837 0.56978 0.90774 0.0
H255 H 0.9639 0.51136 0.90401 0.0
H256 H 0.99713 0.50194 0.9073 0.0
C257 C 0.08051 0.52488 0.84398 0.0
C258 C 0.11138 0.5883 0.84576 0.0
C259 C 0.09826 0.55519 0.94545 0.0
C260 C 0.07249 0.55007 0.95549 0.0
C261 C 1.04201 0.54431 0.94815 0.0
C262 C 1.03737 0.54431 0.93126 0.0
C263 C 0.06337 0.54977 0.9213 0.0
C264 C 0.09291 0.5544 0.92846 0.0
C265 C 0.11676 0.55734 0.91596 0.0
C266 C 0.09724 0.55505 0.9001 0.0
C267 C 0.0662 0.55115 0.90334 0.0
C268 C 0.1226 0.52702 0.91764 0.0
C269 C 0.1485 0.59222 0.91869 0.0
C270 C 0.96845 0.54746 0.87127 0.0
C271 C 0.95988 0.55181 0.85528 0.0
C272 C 0.98421 0.55694 0.84383 0.0
C273 C 1.01491 0.55698 0.84832 0.0
C274 C 1.02269 0.55263 0.86462 0.0
C275 C 0.99903 0.54845 0.87556 0.0
C276 C 1.01017 0.54655 0.89251 0.0
C277 C 1.04423 0.55031 0.8905 0.0
C278 C 0.0528 0.55317 0.87404 0.0
C279 C 0.98533 0.51138 0.89852 0.0
C280 C 1.01247 0.57653 0.90253 0.0
H281 H 0.16916 0.56202 0.89873 0.0
H282 H 0.16041 0.55616 0.83884 0.0
H283 H 0.12781 0.61084 0.85366 0.0
H284 H 0.08874 0.58942 0.84202 0.0
H285 H 0.12466 0.58931 0.83475 0.0
H286 H 0.07466 0.50193 0.85062 0.0
H287 H 0.09339 0.52495 0.83296 0.0
H288 H 0.0567 0.52374 0.84013 0.0
H289 H 0.12183 0.55909 0.9507 0.0
H290 H 1.02179 0.54036 0.95557 0.0
H291 H 1.01361 0.54023 0.92668 0.0
H292 H 0.10137 0.50547 0.9231 0.0
H293 H 0.14533 0.5337 0.92546 0.0
H294 H 0.12436 0.51672 0.9058 0.0
H295 H 0.14206 0.61137 0.92266 0.0
H296 H 0.16179 0.60196 0.90752 0.0
H297 H 0.16594 0.5917 0.9282 0.0
H298 H 0.21283 0.56281 0.88467 0.0
C299 C 0.16576 0.56042 0.88582 0.0
C300 C 0.94379 0.54236 0.46476 0.0
C301 C 0.91357 0.53081 0.45557 0.0
C302 C 0.91426 0.53383 0.43861 0.0
C303 C 0.9741 0.55628 0.44028 0.0
C304 C 0.97345 0.55478 0.45694 0.0
C305 C 1.00697 0.56524 0.46505 0.0
H306 H 0.16974 0.61705 0.45932 0.0
C307 C 1.0086 0.56726 0.43601 0.0
C308 C 1.02783 0.57252 0.45053 0.0
H309 H 0.1162 0.60128 0.50279 0.0
H310 H 0.06516 0.58326 0.48657 0.0
H311 H 0.11182 0.54882 0.43954 0.0
H312 H 0.13834 0.6525 0.44082 0.0
H313 H 0.12614 0.63805 0.42057 0.0
H314 H 0.16153 0.63746 0.4302 0.0
H315 H 0.14809 0.58067 0.43058 0.0
H316 H 0.10812 0.55912 0.41948 0.0
C317 C 1.00471 0.53521 0.47435 0.0
C318 C 1.01762 0.59724 0.47575 0.0
C319 C 1.03733 0.57331 0.37697 0.0
C320 C 0.067 0.58111 0.36961 0.0
C321 C 0.09611 0.5905 0.37949 0.0
C322 C 0.09567 0.59167 0.39638 0.0
C323 C 0.06578 0.58325 0.40356 0.0
C324 C 1.03728 0.57448 0.39392 0.0
C325 C 1.0078 0.56607 0.4038 0.0
C326 C 1.02342 0.57135 0.42092 0.0
C327 C 0.05734 0.58124 0.42064 0.0
C328 C 0.98118 0.52901 0.39987 0.0
C329 C 0.99578 0.59134 0.40011 0.0
C330 C 0.14687 0.60881 0.46538 0.0
C331 C 0.14696 0.61035 0.48239 0.0
C332 C 0.11677 0.60036 0.48972 0.0
C333 C 0.0872 0.59004 0.48026 0.0
C334 C 0.08776 0.5897 0.46327 0.0
C335 C 0.11719 0.59858 0.45612 0.0
C336 C 0.11329 0.59735 0.43793 0.0
C337 C 0.07671 0.58671 0.43534 0.0
C338 C 0.06196 0.58227 0.45019 0.0
C339 C 0.12089 0.57032 0.4314 0.0
C340 C 0.13609 0.63303 0.43194 0.0
H341 H 0.94325 0.54756 0.41796 0.0
H342 H 0.94431 0.53974 0.47775 0.0
H343 H 1.00858 0.61326 0.47007 0.0
H344 H 1.04491 0.61354 0.4773 0.0
H345 H 1.0072 0.59081 0.48786 0.0
H346 H 0.98707 0.51108 0.46782 0.0
H347 H 0.99589 0.53464 0.48665 0.0
H348 H 1.02849 0.53514 0.47542 0.0
H349 H 1.0145 0.56578 0.36971 0.0
H350 H 0.11939 0.59721 0.37414 0.0
H351 H 0.11868 0.59904 0.40317 0.0
H352 H 0.9931 0.51338 0.39836 0.0
H353 H 0.96639 0.52642 0.38845 0.0
H354 H 0.96406 0.51753 0.40965 0.0
H355 H 1.01732 0.61682 0.39866 0.0
H356 H 0.98218 0.59432 0.41001 0.0
H357 H 0.97973 0.5839 0.38871 0.0
H358 H 0.89137 0.52531 0.43124 0.0
C359 C 0.94439 0.54661 0.43092 0.0
C360 C 0.43449 0.92009 0.77679 0.0
C361 C 0.42029 0.89353 0.76507 0.0
C362 C 0.41339 0.89999 0.74915 0.0
C363 C 0.44108 0.95937 0.75611 0.0
C364 C 0.44468 0.95265 0.77206 0.0
C365 C 0.46326 0.98397 0.78269 0.0
H366 H 0.55351 0.15266 0.78949 0.0
C367 C 0.45919 0.99609 0.75473 0.0
C368 C 0.47181 1.01062 0.7703 0.0
H369 H 0.52139 0.08227 0.82791 0.0
H370 H 0.4944 0.03626 0.80818 0.0
H371 H 0.57165 0.10779 0.76492 0.0
H372 H 0.48553 0.11915 0.76923 0.0
H373 H 0.49093 0.11694 0.74845 0.0
H374 H 0.523 0.15097 0.76107 0.0
H375 H 0.57125 0.1453 0.75968 0.0
H376 H 0.55727 0.11054 0.7453 0.0
C377 C 0.49487 0.98508 0.79052 0.0
C378 C 0.43909 0.98416 0.79498 0.0
C379 C 0.48178 0.04497 0.69906 0.0
C380 C 0.5011 0.07772 0.69376 0.0
C381 C 0.51557 0.10462 0.70535 0.0
C382 C 0.51191 0.09886 0.72194 0.0
C383 C 0.49373 0.06583 0.72704 0.0
C384 C 0.47844 0.03963 0.71564 0.0
C385 C 0.46041 1.00615 0.72321 0.0
C386 C 0.46784 1.01653 0.74108 0.0
C387 C 0.48765 0.05147 0.74324 0.0
C388 C 0.47654 0.98533 0.71792 0.0
C389 C 0.42277 0.98992 0.71826 0.0
C390 C 0.54076 0.12731 0.79365 0.0
C391 C 0.53958 0.1211 0.81029 0.0
C392 C 0.52304 0.08773 0.81518 0.0
C393 C 0.50697 0.06106 0.8037 0.0
C394 C 0.5075 0.06777 0.78714 0.0
C395 C 0.52441 0.10043 0.78235 0.0
C396 C 0.52179 0.10283 0.76427 0.0
C397 C 0.49966 0.06624 0.75904 0.0
C398 C 0.49171 0.04587 0.77248 0.0
C399 C 0.55724 0.11756 0.7581 0.0
C400 C 0.50465 0.12373 0.76043 0.0
H401 H 0.41909 0.93632 0.73217 0.0
H402 H 0.4403 0.91625 0.78913 0.0
H403 H 0.41282 0.97025 0.78996 0.0
H404 H 0.4437 1.00967 0.79792 0.0
H405 H 0.44048 0.9722 0.80635 0.0
H406 H 0.50635 0.97611 0.78166 0.0
H407 H 0.48878 0.96885 0.80111 0.0
H408 H 0.51467 1.01055 0.79443 0.0
H409 H 0.47064 1.02365 0.69054 0.0
H410 H 0.5301 0.13015 0.7016 0.0
H411 H 0.52388 0.12032 0.73016 0.0
H412 H 0.50415 1.00114 0.71848 0.0
H413 H 0.46814 0.97518 0.70527 0.0
H414 H 0.47137 0.96434 0.72576 0.0
H415 H 0.41553 1.00926 0.71592 0.0
H416 H 0.40687 0.97505 0.72798 0.0
H417 H 0.41607 0.97381 0.70706 0.0
H418 H 0.40171 0.8799 0.73996 0.0
C419 C 0.42365 0.93278 0.74462 0.0
C420 C 0.59156 0.39072 0.12361 0.0
C421 C 0.60998 0.3809 0.11415 0.0
C422 C 0.60609 0.38075 0.09712 0.0
C423 C 0.57146 0.40604 0.09947 0.0
C424 C 0.57241 0.40296 0.11604 0.0
C425 C 0.55298 0.41626 0.12439 0.0
H426 H 0.46577 0.49786 0.1199 0.0
C427 C 0.55316 0.42393 0.09564 0.0
C428 C 0.54162 0.42931 0.11014 0.0
H429 H 0.48462 0.45274 0.16165 0.0
H430 H 0.51576 0.43502 0.14562 0.0
H431 H 0.54058 0.5287 0.10647 0.0
H432 H 0.44695 0.4388 0.09524 0.0
H433 H 0.46608 0.45215 0.07685 0.0
H434 H 0.45521 0.47875 0.08817 0.0
H435 H 0.50581 0.52872 0.09602 0.0
H436 H 0.53542 0.52256 0.08531 0.0
C437 C 0.57707 0.44492 0.13657 0.0
C438 C 0.52334 0.3866 0.13216 0.0
C439 C 0.5576 0.46971 0.03967 0.0
C440 C 0.54442 0.48869 0.03279 0.0
C441 C 0.52434 0.49673 0.04198 0.0
C442 C 0.51824 0.48681 0.05799 0.0
C443 C 0.53226 0.46853 0.06486 0.0
C444 C 0.55101 0.4597 0.05562 0.0
C445 C 0.5628 0.43909 0.06475 0.0
C446 C 0.54893 0.438 0.08116 0.0
C447 C 0.53144 0.45562 0.08118 0.0
C448 C 0.60134 0.45848 0.06567 0.0
C449 C 0.54686 0.40387 0.05623 0.0
C450 C 0.47653 0.48407 0.12558 0.0
C451 C 0.47262 0.47655 0.14204 0.0
C452 C 0.48751 0.45907 0.14903 0.0
C453 C 0.50527 0.4485 0.13965 0.0
C454 C 0.50831 0.4556 0.12313 0.0
C455 C 0.49422 0.47328 0.11639 0.0
C456 C 0.49973 0.47838 0.09864 0.0
C457 C 0.51868 0.46001 0.09572 0.0
C458 C 0.52383 0.44697 0.11012 0.0
C459 C 0.52131 0.51652 0.09633 0.0
C460 C 0.46534 0.46143 0.08912 0.0
H461 H 0.58608 0.39386 0.07677 0.0
H462 H 0.59382 0.39129 0.13672 0.0
H463 H 0.5155 0.36247 0.12547 0.0
H464 H 0.50073 0.38899 0.13174 0.0
H465 H 0.52999 0.3839 0.14491 0.0
H466 H 0.60129 0.46106 0.13118 0.0
H467 H 0.58213 0.43479 0.1478 0.0
H468 H 0.56785 0.46195 0.13995 0.0
H469 H 0.57252 0.46261 0.03271 0.0
H470 H 0.51388 0.51127 0.03686 0.0
H471 H 0.50306 0.494 0.06442 0.0
H472 H 0.61105 0.48514 0.06949 0.0
H473 H 0.61091 0.45797 0.05366 0.0
H474 H 0.61248 0.44868 0.07453 0.0
H475 H 0.52349 0.39763 0.04903 0.0
H476 H 0.53927 0.38369 0.06498 0.0
H477 H 0.56404 0.40223 0.04781 0.0
H478 H 0.61918 0.37244 0.08949 0.0
C479 C 0.58698 0.39332 0.08974 0.0
H480 H 0.28268 0.57673 0.17274 0.0
H481 H 0.33333 0.57307 0.17403 0.0
H482 H 0.29558 0.50355 0.21246 0.0
H483 H 0.24436 0.50675 0.21105 0.0
H484 H 0.38431 0.57723 0.19354 0.0
H485 H 0.30304 0.43686 0.20148 0.0
H486 H 0.24367 0.39312 0.19977 0.0
H487 H 0.22282 0.44721 0.16351 0.0
H488 H 0.2821 0.49092 0.16483 0.0
H489 H 0.48467 0.50272 0.17328 0.0
H490 H 0.44893 0.5168 0.1887 0.0
H491 H 0.378 0.4848 0.14751 0.0
H492 H 0.41278 0.46986 0.13234 0.0
H493 H 0.34753 0.46059 0.17472 0.0
H494 H 0.43346 0.56745 0.15625 0.0
H495 H 0.49135 0.61314 0.15448 0.0
H496 H 0.50139 0.62871 0.2062 0.0
H497 H 0.44363 0.58279 0.20828 0.0
C498 C 0.28568 0.56171 0.18192 0.0
C499 C 0.25934 0.54146 0.19156 0.0
C500 C 0.31474 0.55971 0.18268 0.0
C501 C 0.31787 0.53749 0.1931 0.0
C502 C 0.29338 0.52047 0.20417 0.0
C503 C 0.26412 0.52219 0.2033 0.0
C504 C 0.34268 0.52717 0.18984 0.0
C505 C 0.37646 0.55161 0.18975 0.0
C506 C 0.33232 0.49383 0.18464 0.0
C507 C 0.29683 0.46728 0.18342 0.0
C508 C 0.28576 0.43929 0.19311 0.0
C509 C 0.25215 0.41453 0.1922 0.0
C510 C 0.22947 0.41745 0.18158 0.0
C511 C 0.24038 0.44501 0.17176 0.0
C512 C 0.27397 0.46976 0.17257 0.0
C513 C 0.4613 0.49848 0.1676 0.0
C514 C 0.4516 0.4854 0.15156 0.0
C515 C 0.44107 0.50671 0.17638 0.0
C516 C 0.4109 0.50192 0.16922 0.0
C517 C 0.40115 0.48862 0.15328 0.0
C518 C 0.42124 0.48043 0.14456 0.0
C519 C 0.38909 0.5108 0.178 0.0
C520 C 0.35575 0.48597 0.17912 0.0
C521 C 0.39979 0.54391 0.1837 0.0
C522 C 0.43444 0.57143 0.18244 0.0
C523 C 0.44813 0.58043 0.16725 0.0
C524 C 0.48088 0.6064 0.16619 0.0
C525 C 0.50008 0.62373 0.18022 0.0
C526 C 0.48652 0.6152 0.19535 0.0
C527 C 0.45379 0.58921 0.19647 0.0
H528 H 0.52543 0.64385 0.17938 0.0
H529 H 0.20345 0.39831 0.18094 0.0
H530 H 0.72088 0.274 0.53404 0.0
H531 H 0.74263 0.33369 0.52953 0.0
H532 H 0.80307 0.32949 0.49253 0.0
H533 H 0.7804 0.27013 0.4961 0.0
H534 H 0.83663 0.385 0.5161 0.0
H535 H 0.73307 0.32229 0.48128 0.0
H536 H 0.67218 0.2872 0.47645 0.0
H537 H 0.65809 0.35811 0.5042 0.0
H538 H 0.7189 0.39329 0.50947 0.0
H539 H 0.85857 0.47293 0.44416 0.0
H540 H 0.81625 0.43153 0.46054 0.0
H541 H 0.85515 0.50083 0.50189 0.0
H542 H 0.89706 0.54311 0.48539 0.0
H543 H 0.76719 0.42107 0.4844 0.0
H544 H 0.87537 0.45946 0.52932 0.0
H545 H 0.93682 0.49243 0.53191 0.0
H546 H 0.94112 0.46714 0.48225 0.0
H547 H 0.87983 0.43409 0.47944 0.0
C548 C 0.73875 0.28572 0.52491 0.0
C549 C 0.74886 0.26697 0.51548 0.0
C550 C 0.75122 0.31986 0.52244 0.0
C551 C 0.77439 0.33581 0.51072 0.0
C552 C 0.78537 0.31758 0.50174 0.0
C553 C 0.77258 0.28356 0.50396 0.0
C554 C 0.78701 0.37125 0.50708 0.0
C555 C 0.82127 0.39329 0.50964 0.0
C556 C 0.76694 0.38199 0.49866 0.0
C557 C 0.73046 0.36017 0.49595 0.0
C558 C 0.71698 0.33013 0.48656 0.0
C559 C 0.6825 0.31029 0.4837 0.0
C560 C 0.66135 0.32045 0.49002 0.0
C561 C 0.67454 0.35027 0.49934 0.0
C562 C 0.70898 0.37014 0.50229 0.0
C563 C 0.85712 0.48018 0.45647 0.0
C564 C 0.88181 0.51104 0.46359 0.0
C565 C 0.83281 0.45637 0.46585 0.0
C566 C 0.83302 0.46297 0.48247 0.0
C567 C 0.85477 0.49524 0.48909 0.0
C568 C 0.8789 0.51922 0.47967 0.0
C569 C 0.81687 0.43431 0.4931 0.0
C570 C 0.78218 0.41354 0.49174 0.0
C571 C 0.83644 0.42453 0.50266 0.0
C572 C 0.87319 0.44471 0.50415 0.0
C573 C 0.88952 0.46109 0.51897 0.0
C574 C 0.92428 0.47978 0.52047 0.0
C575 C 0.94288 0.482 0.50724 0.0
C576 C 0.92675 0.46561 0.49247 0.0
C577 C 0.89201 0.44694 0.49091 0.0
H578 H 0.96978 0.49624 0.50848 0.0
H579 H 0.63479 0.30537 0.48756 0.0
H580 H 0.5675 0.7318 0.78769 0.0
H581 H 0.53291 0.75553 0.77885 0.0
H582 H 0.50439 0.75502 0.82782 0.0
H583 H 0.53831 0.73025 0.8367 0.0
H584 H 0.45092 0.73246 0.80556 0.0
H585 H 0.5605 0.82665 0.81348 0.0
H586 H 0.62107 0.85961 0.8107 0.0
H587 H 0.60483 0.85916 0.75914 0.0
H588 H 0.54413 0.82575 0.76159 0.0
H589 H 0.40334 0.85889 0.79323 0.0
H590 H 0.42038 0.81878 0.80187 0.0
H591 H 0.45188 0.81554 0.75395 0.0
H592 H 0.43647 0.85646 0.74544 0.0
H593 H 0.5025 0.83914 0.77692 0.0
H594 H 0.39104 0.74588 0.76981 0.0
H595 H 0.3308 0.71418 0.77366 0.0
H596 H 0.35059 0.71501 0.82495 0.0
H597 H 0.41099 0.74719 0.82144 0.0
C598 C 0.55378 0.73662 0.79657 0.0
C599 C 0.5557 0.72933 0.81289 0.0
C600 C 0.53414 0.75028 0.79152 0.0
C601 C 0.5163 0.75719 0.80272 0.0
C602 C 0.51801 0.74984 0.81902 0.0
C603 C 0.53769 0.73613 0.82409 0.0
C604 C 0.49651 0.77279 0.79733 0.0
C605 C 0.46215 0.75599 0.79946 0.0
C606 C 0.51125 0.80326 0.78924 0.0
C607 C 0.54776 0.82342 0.78771 0.0
C608 C 0.56984 0.83334 0.80153 0.0
C609 C 0.6042 0.85215 0.80002 0.0
C610 C 0.6168 0.8614 0.78474 0.0
C611 C 0.59504 0.85193 0.77096 0.0
C612 C 0.56065 0.83309 0.7724 0.0
C613 C 0.41309 0.84896 0.78442 0.0
C614 C 0.41925 0.86154 0.76875 0.0
C615 C 0.42254 0.82581 0.78934 0.0
C616 C 0.4378 0.8146 0.77859 0.0
C617 C 0.44032 0.82409 0.76245 0.0
C618 C 0.43115 0.84735 0.75756 0.0
C619 C 0.4566 0.79845 0.78473 0.0
C620 C 0.49105 0.81545 0.7829 0.0
C621 C 0.4419 0.76847 0.79324 0.0
C622 C 0.40557 0.74927 0.79537 0.0
C623 C 0.38257 0.73962 0.78193 0.0
C624 C 0.34838 0.72149 0.78405 0.0
C625 C 0.33687 0.71267 0.79954 0.0
C626 C 0.35954 0.7219 0.81295 0.0
C627 C 0.39375 0.74007 0.81091 0.0
H628 H 0.3104 0.69861 0.80116 0.0
H629 H 0.64341 0.87597 0.7836 0.0
H630 H 0.90068 0.49869 0.18203 0.0
H631 H 0.84378 0.45208 0.1791 0.0
H632 H 0.80956 0.51918 0.16322 0.0
H633 H 0.86615 0.56625 0.16675 0.0
H634 H 0.76387 0.47356 0.17904 0.0
H635 H 0.83738 0.47405 0.1384 0.0
H636 H 0.88396 0.46896 0.12831 0.0
H637 H 0.84121 0.36925 0.14555 0.0
H638 H 0.79557 0.3745 0.15666 0.0
H639 H 0.67168 0.40219 0.10325 0.0
H640 H 0.72097 0.41295 0.11943 0.0
H641 H 0.66128 0.36428 0.15961 0.0
H642 H 0.61101 0.35237 0.14321 0.0
H643 H 0.75002 0.38597 0.13886 0.0
H644 H 0.69759 0.42034 0.1914 0.0
H645 H 0.65019 0.42849 0.19714 0.0
H646 H 0.65134 0.46461 0.1494 0.0
H647 H 0.69894 0.45707 0.14351 0.0
C648 C 0.88093 0.50382 0.17849 0.0
C649 C 0.88806 0.53623 0.17439 0.0
C650 C 0.84838 0.47698 0.17676 0.0
C651 C 0.82244 0.4819 0.17073 0.0
C652 C 0.82914 0.51462 0.16784 0.0
C653 C 0.86159 0.54152 0.1697 0.0
C654 C 0.78913 0.45317 0.16573 0.0
C655 C 0.76089 0.45401 0.17052 0.0
C656 C 0.78499 0.42735 0.15467 0.0
C657 C 0.81337 0.42492 0.14863 0.0
C658 C 0.8383 0.45131 0.14035 0.0
C659 C 0.86463 0.44843 0.13451 0.0
C660 C 0.86581 0.41894 0.13648 0.0
C661 C 0.84069 0.39232 0.14433 0.0
C662 C 0.8147 0.39531 0.15049 0.0
C663 C 0.6685 0.39212 0.11521 0.0
C664 C 0.63733 0.37716 0.12205 0.0
C665 C 0.69695 0.39841 0.12451 0.0
C666 C 0.69483 0.39012 0.14082 0.0
C667 C 0.6634 0.3713 0.14708 0.0
C668 C 0.63477 0.36478 0.13773 0.0
C669 C 0.72541 0.40757 0.15162 0.0
C670 C 0.75303 0.40455 0.148 0.0
C671 C 0.72926 0.43206 0.16334 0.0
C672 C 0.70148 0.4378 0.16699 0.0
C673 C 0.68777 0.43016 0.18218 0.0
C674 C 0.66087 0.43465 0.18545 0.0
C675 C 0.64767 0.44693 0.17362 0.0
C676 C 0.6615 0.45501 0.15854 0.0
C677 C 0.68844 0.45068 0.15524 0.0
H678 H 0.62677 0.45026 0.17614 0.0
H679 H 0.88606 0.41664 0.13185 0.0
H680 H 0.37346 0.87649 0.5218 0.0
H681 H 0.33853 0.8163 0.52477 0.0
H682 H 0.38809 0.79749 0.48645 0.0
H683 H 0.42227 0.85775 0.48316 0.0
H684 H 0.32697 0.7649 0.47963 0.0
H685 H 0.39076 0.77273 0.52732 0.0
H686 H 0.42132 0.79614 0.55371 0.0
H687 H 0.33055 0.77605 0.57473 0.0
H688 H 0.29953 0.75305 0.54838 0.0
H689 H 0.20097 0.60204 0.47898 0.0
H690 H 0.2582 0.64179 0.48873 0.0
H691 H 0.22296 0.6956 0.51718 0.0
H692 H 0.16596 0.65638 0.50742 0.0
H693 H 0.28606 0.70257 0.52976 0.0
H694 H 0.23033 0.71302 0.47943 0.0
H695 H 0.19997 0.69048 0.45289 0.0
H696 H 0.27919 0.67612 0.4372 0.0
H697 H 0.30982 0.69826 0.46378 0.0
C698 C 0.37734 0.85944 0.51429 0.0
C699 C 0.4001 0.87155 0.50211 0.0
C700 C 0.35761 0.82502 0.51609 0.0
C701 C 0.36084 0.8022 0.50594 0.0
C702 C 0.38506 0.81453 0.4944 0.0
C703 C 0.40445 0.84889 0.49247 0.0
C704 C 0.33554 0.76605 0.50558 0.0
C705 C 0.31897 0.75103 0.49059 0.0
C706 C 0.32449 0.74786 0.51985 0.0
C707 C 0.34286 0.76133 0.53582 0.0
C708 C 0.37736 0.77353 0.53753 0.0
C709 C 0.39475 0.78669 0.5525 0.0
C710 C 0.37789 0.78762 0.56589 0.0
C711 C 0.34357 0.7753 0.56435 0.0
C712 C 0.32606 0.76214 0.5494 0.0
C713 C 0.20535 0.62166 0.48776 0.0
C714 C 0.17913 0.62668 0.49209 0.0
C715 C 0.23799 0.6441 0.49345 0.0
C716 C 0.24472 0.67189 0.50342 0.0
C717 C 0.21822 0.67425 0.50951 0.0
C718 C 0.18558 0.65182 0.50385 0.0
C719 C 0.27788 0.7023 0.50393 0.0
C720 C 0.29541 0.71625 0.51886 0.0
C721 C 0.29024 0.71964 0.48962 0.0
C722 C 0.27214 0.70692 0.47359 0.0
C723 C 0.24116 0.7049 0.47033 0.0
C724 C 0.22392 0.69221 0.45529 0.0
C725 C 0.2376 0.68179 0.44338 0.0
C726 C 0.2686 0.68414 0.44646 0.0
C727 C 0.28591 0.69676 0.4615 0.0
H728 H 0.22427 0.67201 0.43173 0.0
H729 H 0.3914 0.79784 0.57747 0.0
H730 H 0.58822 0.3865 0.8796 0.0
H731 H 0.60266 0.34304 0.88541 0.0
H732 H 0.51171 0.26963 0.85952 0.0
H733 H 0.4974 0.31241 0.85362 0.0
H734 H 0.52884 0.24085 0.88351 0.0
H735 H 0.58406 0.31908 0.83898 0.0
H736 H 0.62132 0.37627 0.83012 0.0
H737 H 0.69932 0.38528 0.86354 0.0
H738 H 0.66229 0.32823 0.87269 0.0
H739 H 0.53286 0.17626 0.80887 0.0
H740 H 0.54958 0.22057 0.82952 0.0
H741 H 0.59141 0.17419 0.86027 0.0
H742 H 0.5747 0.12921 0.83941 0.0
H743 H 0.62037 0.26417 0.8478 0.0
H744 H 0.56177 0.1723 0.88529 0.0
H745 H 0.51897 0.11403 0.89003 0.0
H746 H 0.4438 0.13063 0.86696 0.0
H747 H 0.48629 0.18888 0.86194 0.0
C748 C 0.57099 0.36091 0.87548 0.0
C749 C 0.54195 0.35303 0.86588 0.0
C750 C 0.57916 0.3361 0.87893 0.0
C751 C 0.5585 0.30321 0.87271 0.0
C752 C 0.52798 0.29479 0.86454 0.0
C753 C 0.51981 0.31942 0.86113 0.0
C754 C 0.57056 0.27897 0.87158 0.0
C755 C 0.54968 0.24611 0.87626 0.0
C756 C 0.59804 0.28583 0.86231 0.0
C757 C 0.62044 0.31968 0.85659 0.0
C758 C 0.60917 0.33333 0.84442 0.0
C759 C 0.63019 0.36569 0.83937 0.0
C760 C 0.66265 0.38442 0.84628 0.0
C761 C 0.67416 0.37077 0.85822 0.0
C762 C 0.65317 0.33845 0.86335 0.0
C763 C 0.54627 0.17573 0.81983 0.0
C764 C 0.55256 0.14927 0.82247 0.0
C765 C 0.5557 0.20102 0.83165 0.0
C766 C 0.57161 0.20051 0.84638 0.0
C767 C 0.57894 0.1748 0.84899 0.0
C768 C 0.56933 0.14919 0.83711 0.0
C769 C 0.57761 0.22603 0.85904 0.0
C770 C 0.60152 0.25923 0.85634 0.0
C771 C 0.55283 0.21947 0.87 0.0
C772 C 0.52716 0.18476 0.87319 0.0
C773 C 0.53612 0.16341 0.88117 0.0
C774 C 0.51194 0.13043 0.88391 0.0
C775 C 0.47869 0.11862 0.87878 0.0
C776 C 0.46956 0.13981 0.87093 0.0
C777 C 0.49366 0.1728 0.86815 0.0
H778 H 0.46001 0.09308 0.8809 0.0
H779 H 0.67889 0.40948 0.84237 0.0
H780 H 0.53114 0.94197 0.48871 0.0
H781 H 0.53081 0.88902 0.49192 0.0
H782 H 0.62817 0.94202 0.51642 0.0
H783 H 0.62891 0.99525 0.51274 0.0
H784 H 0.62933 0.89547 0.50068 0.0
H785 H 0.54369 0.88642 0.53417 0.0
H786 H 0.49173 0.88514 0.54075 0.0
H787 H 0.43595 0.8018 0.50697 0.0
H788 H 0.48755 0.80326 0.4998 0.0
H789 H 0.62858 0.75117 0.53428 0.0
H790 H 0.62822 0.80287 0.52838 0.0
H791 H 0.53372 0.74577 0.50166 0.0
H792 H 0.534 0.69351 0.50784 0.0
H793 H 0.53013 0.79332 0.51772 0.0
H794 H 0.61477 0.80254 0.48396 0.0
H795 H 0.66622 0.80308 0.47708 0.0
H796 H 0.72318 0.88495 0.51149 0.0
H797 H 0.67199 0.88463 0.51872 0.0
C798 C 0.55266 0.9427 0.49482 0.0
C799 C 0.58004 0.97403 0.50042 0.0
C800 C 0.55234 0.91173 0.49684 0.0
C801 C 0.57917 0.90992 0.50483 0.0
C802 C 0.60672 0.94133 0.51025 0.0
C803 C 0.60713 0.97236 0.50815 0.0
C804 C 0.57887 0.87605 0.50733 0.0
C805 C 0.60754 0.87351 0.50465 0.0
C806 C 0.55064 0.84582 0.5121 0.0
C807 C 0.51961 0.84525 0.51628 0.0
C808 C 0.52038 0.86808 0.528 0.0
C809 C 0.49096 0.86735 0.53182 0.0
C810 C 0.46054 0.84359 0.52419 0.0
C811 C 0.45949 0.82043 0.51276 0.0
C812 C 0.48883 0.82123 0.50879 0.0
C813 C 0.60801 0.74935 0.52671 0.0
C814 C 0.58186 0.71722 0.52121 0.0
C815 C 0.60775 0.77951 0.52331 0.0
C816 C 0.58118 0.77972 0.51423 0.0
C817 C 0.55496 0.74758 0.5086 0.0
C818 C 0.55533 0.71721 0.51195 0.0
C819 C 0.5806 0.81294 0.51113 0.0
C820 C 0.55185 0.81535 0.51373 0.0
C821 C 0.6087 0.84307 0.50629 0.0
C822 C 0.6395 0.84334 0.50199 0.0
C823 C 0.63824 0.8205 0.49014 0.0
C824 C 0.66736 0.82079 0.48617 0.0
C825 C 0.69794 0.84398 0.49388 0.0
C826 C 0.69947 0.86698 0.50555 0.0
C827 C 0.67042 0.86677 0.50958 0.0
H828 H 0.72045 0.84417 0.49078 0.0
H829 H 0.43779 0.84302 0.52718 0.0
H830 H 0.69751 0.60137 0.82553 0.0
H831 H 0.75034 0.60092 0.82799 0.0
H832 H 0.7012 0.50598 0.85058 0.0
H833 H 0.64819 0.50614 0.84792 0.0
H834 H 0.76152 0.54292 0.86637 0.0
H835 H 0.72892 0.51709 0.80988 0.0
H836 H 0.71202 0.52618 0.78255 0.0
H837 H 0.8035 0.61967 0.78136 0.0
H838 H 0.82074 0.61137 0.8088 0.0
H839 H 0.89721 0.50981 0.86681 0.0
H840 H 0.8447 0.50946 0.86265 0.0
H841 H 0.89081 0.59236 0.83128 0.0
H842 H 0.9435 0.59151 0.83485 0.0
H843 H 0.83196 0.56281 0.81992 0.0
H844 H 0.86451 0.59164 0.87604 0.0
H845 H 0.88185 0.58583 0.9039 0.0
H846 H 0.79184 0.49144 0.90657 0.0
H847 H 0.77415 0.4965 0.87864 0.0
C848 C 0.69758 0.58017 0.831 0.0
C849 C 0.66739 0.55376 0.83643 0.0
C850 C 0.72836 0.57984 0.83236 0.0
C851 C 0.73112 0.55326 0.83942 0.0
C852 C 0.70103 0.52709 0.84506 0.0
C853 C 0.67013 0.52715 0.84346 0.0
C854 C 0.76477 0.55279 0.84102 0.0
C855 C 0.77646 0.54685 0.85604 0.0
C856 C 0.78612 0.55883 0.82799 0.0
C857 C 0.77597 0.56376 0.81146 0.0
C858 C 0.74533 0.5397 0.80384 0.0
C859 C 0.7357 0.54469 0.78832 0.0
C860 C 0.75663 0.57353 0.78025 0.0
C861 C 0.78729 0.59737 0.78765 0.0
C862 C 0.79701 0.59253 0.80318 0.0
C863 C 0.89664 0.52822 0.85899 0.0
C864 C 0.92598 0.55089 0.85137 0.0
C865 C 0.86593 0.52829 0.85671 0.0
C866 C 0.86238 0.55175 0.84704 0.0
C867 C 0.89147 0.57386 0.839 0.0
C868 C 0.92223 0.57337 0.84104 0.0
C869 C 0.82892 0.55288 0.84535 0.0
C870 C 0.81718 0.55892 0.83029 0.0
C871 C 0.80769 0.54743 0.85843 0.0
C872 C 0.81818 0.5443 0.8752 0.0
C873 C 0.84852 0.56956 0.88254 0.0
C874 C 0.8584 0.5664 0.89835 0.0
C875 C 0.83801 0.53824 0.90698 0.0
C876 C 0.80764 0.51321 0.89985 0.0
C877 C 0.79766 0.51622 0.88404 0.0
H878 H 0.8457 0.53584 0.91921 0.0
H879 H 0.74913 0.57735 0.76824 0.0
H880 H 0.20725 0.64443 0.1773 0.0
H881 H 0.26065 0.6975 0.1802 0.0
H882 H 0.21258 0.7504 0.16148 0.0
H883 H 0.15896 0.69764 0.15914 0.0
H884 H 0.27685 0.77393 0.14787 0.0
H885 H 0.23536 0.75954 0.2009 0.0
H886 H 0.21337 0.72935 0.2258 0.0
H887 H 0.30191 0.7227 0.23444 0.0
H888 H 0.32431 0.75263 0.20945 0.0
H889 H 0.41776 0.94187 0.16495 0.0
H890 H 0.36394 0.88991 0.16111 0.0
H891 H 0.39693 0.84301 0.19638 0.0
H892 H 0.44972 0.89528 0.20078 0.0
H893 H 0.33868 0.81547 0.2012 0.0
H894 H 0.38043 0.82691 0.14838 0.0
H895 H 0.4027 0.85407 0.1228 0.0
H896 H 0.31563 0.86269 0.11279 0.0
H897 H 0.293 0.83589 0.1384 0.0
C898 C 0.20773 0.66721 0.17376 0.0
C899 C 0.17766 0.66565 0.16794 0.0
C900 C 0.23879 0.69809 0.17548 0.0
C901 C 0.24193 0.72924 0.1711 0.0
C902 C 0.21203 0.72757 0.165 0.0
C903 C 0.18082 0.69687 0.1637 0.0
C904 C 0.27572 0.76307 0.17308 0.0
C905 C 0.29002 0.783 0.15963 0.0
C906 C 0.29457 0.77581 0.18817 0.0
C907 C 0.28135 0.758 0.20322 0.0
C908 C 0.25003 0.7514 0.20804 0.0
C909 C 0.23751 0.73438 0.22219 0.0
C910 C 0.25616 0.72398 0.23167 0.0
C911 C 0.28746 0.73071 0.22706 0.0
C912 C 0.3001 0.74775 0.21291 0.0
C913 C 0.41393 0.92049 0.17181 0.0
C914 C 0.43937 0.92399 0.18323 0.0
C915 C 0.38252 0.88996 0.16951 0.0
C916 C 0.3748 0.86052 0.17813 0.0
C917 C 0.40055 0.86415 0.18939 0.0
C918 C 0.43154 0.89473 0.1919 0.0
C919 C 0.34054 0.82671 0.17589 0.0
C920 C 0.32592 0.80663 0.18935 0.0
C921 C 0.32169 0.81354 0.16072 0.0
C922 C 0.33523 0.82976 0.14538 0.0
C923 C 0.36615 0.83481 0.14077 0.0
C924 C 0.37881 0.8501 0.12626 0.0
C925 C 0.36064 0.86019 0.1162 0.0
C926 C 0.32971 0.85492 0.12061 0.0
C927 C 0.31694 0.83967 0.13511 0.0
H928 H 0.37048 0.87203 0.10498 0.0
H929 H 0.24641 0.71078 0.24262 0.0
H930 H 0.5244 0.14463 0.49487 0.0
H931 H 0.52495 0.19809 0.49793 0.0
H932 H 0.6313 0.24965 0.507 0.0
H933 H 0.6309 0.19634 0.50348 0.0
H934 H 0.60419 0.27503 0.52832 0.0
H935 H 0.59313 0.25517 0.4708 0.0
H936 H 0.56755 0.22382 0.4449 0.0
H937 H 0.4767 0.22305 0.45383 0.0
H938 H 0.50161 0.25407 0.47992 0.0
H939 H 0.62968 0.44196 0.52891 0.0
H940 H 0.63031 0.38994 0.52379 0.0
H941 H 0.53225 0.34611 0.50007 0.0
H942 H 0.53306 0.3996 0.50407 0.0
H943 H 0.55447 0.3153 0.48626 0.0
H944 H 0.56121 0.33033 0.54397 0.0
H945 H 0.58364 0.35898 0.57077 0.0
H946 H 0.67732 0.36491 0.563 0.0
H947 H 0.65555 0.3366 0.53608 0.0
C948 C 0.5481 0.16722 0.49743 0.0
C949 C 0.57762 0.1651 0.49886 0.0
C950 C 0.54841 0.19832 0.49918 0.0
C951 C 0.57819 0.22916 0.50273 0.0
C952 C 0.60767 0.22703 0.50433 0.0
C953 C 0.60743 0.19602 0.50226 0.0
C954 C 0.57863 0.2631 0.5048 0.0
C955 C 0.59351 0.28376 0.51897 0.0
C956 C 0.56415 0.27537 0.49307 0.0
C957 C 0.54914 0.25668 0.47741 0.0
C958 C 0.56762 0.24812 0.46732 0.0
C959 C 0.55325 0.23044 0.45258 0.0
C960 C 0.52049 0.22137 0.44774 0.0
C961 C 0.50206 0.23004 0.45761 0.0
C962 C 0.51629 0.2477 0.47237 0.0
C963 C 0.60824 0.42145 0.52243 0.0
C964 C 0.58141 0.42602 0.51692 0.0
C965 C 0.60826 0.39079 0.51972 0.0
C966 C 0.58073 0.36194 0.512 0.0
C967 C 0.55411 0.3668 0.50617 0.0
C968 C 0.55453 0.39794 0.50847 0.0
C969 C 0.57979 0.32749 0.50997 0.0
C970 C 0.56494 0.30667 0.49575 0.0
C971 C 0.59367 0.31465 0.52183 0.0
C972 C 0.60686 0.33169 0.53796 0.0
C973 C 0.58665 0.33792 0.54795 0.0
C974 C 0.59924 0.35408 0.56316 0.0
C975 C 0.63191 0.36385 0.56856 0.0
C976 C 0.65204 0.35739 0.55878 0.0
C977 C 0.63959 0.34127 0.54356 0.0
H978 H 0.64161 0.37635 0.58034 0.0
H979 H 0.50942 0.20769 0.43632 0.0
H980 H 0.44382 0.50655 0.8238 0.0
H981 H 0.39174 0.50703 0.82702 0.0
H982 H 0.44712 0.60675 0.84852 0.0
H983 H 0.49932 0.60611 0.84546 0.0
H984 H 0.394 0.57829 0.86436 0.0
H985 H 0.40231 0.58127 0.80687 0.0
H986 H 0.40806 0.56232 0.7798 0.0
H987 H 0.31903 0.46796 0.78453 0.0
H988 H 0.31297 0.48621 0.81173 0.0
H989 H 0.25721 0.60975 0.86423 0.0
H990 H 0.30835 0.60957 0.85847 0.0
H991 H 0.2503 0.5105 0.83648 0.0
H992 H 0.19868 0.51121 0.84193 0.0
H993 H 0.30427 0.53765 0.82074 0.0
H994 H 0.29583 0.53418 0.8781 0.0
H995 H 0.28991 0.55255 0.90527 0.0
H996 H 0.37919 0.64692 0.90103 0.0
H997 H 0.3854 0.62928 0.87372 0.0
C998 C 0.44531 0.52886 0.82915 0.0
C999 C 0.47703 0.55635 0.8342 0.0
C1000 C 0.41487 0.52923 0.83094 0.0
C1001 C 0.41396 0.55717 0.83787 0.0
C1002 C 0.44569 0.58453 0.84308 0.0
C1003 C 0.47618 0.58422 0.84123 0.0
C1004 C 0.38062 0.55774 0.83992 0.0
C1005 C 0.37485 0.56978 0.85459 0.0
C1006 C 0.35384 0.54602 0.82771 0.0
C1007 C 0.35739 0.53497 0.8114 0.0
C1008 C 0.38409 0.55639 0.80218 0.0
C1009 C 0.38739 0.54579 0.78681 0.0
C1010 C 0.36398 0.51392 0.78047 0.0
C1011 C 0.33718 0.49262 0.78947 0.0
C1012 C 0.33378 0.50308 0.80486 0.0
C1013 C 0.25497 0.58805 0.85778 0.0
C1014 C 0.22268 0.56087 0.85332 0.0
C1015 C 0.28486 0.58765 0.85471 0.0
C1016 C 0.28476 0.55961 0.84731 0.0
C1017 C 0.25248 0.53277 0.84226 0.0
C1018 C 0.22237 0.53328 0.84527 0.0
C1019 C 0.31775 0.55837 0.84517 0.0
C1020 C 0.32345 0.54619 0.8305 0.0
C1021 C 0.34446 0.56986 0.8574 0.0
C1022 C 0.34088 0.58053 0.8738 0.0
C1023 C 0.31408 0.55893 0.88292 0.0
C1024 C 0.31068 0.56921 0.89835 0.0
C1025 C 0.33411 0.60092 0.90485 0.0
C1026 C 0.36103 0.62239 0.89596 0.0
C1027 C 0.36451 0.61226 0.88051 0.0
H1028 H 0.33144 0.60882 0.9168 0.0
H1029 H 0.36657 0.50576 0.76857 0.0
H1030 H 0.95288 0.49598 0.16762 0.0
H1031 H 0.90054 0.44358 0.17106 0.0
H1032 H 0.9536 0.38906 0.17168 0.0
H1033 H 1.00606 0.4415 0.16852 0.0
H1034 H 0.89523 0.3504 0.15484 0.0
H1035 H 0.92244 0.40905 0.20586 0.0
H1036 H 0.93541 0.45533 0.2254 0.0
H1037 H 0.83937 0.44503 0.21416 0.0
H1038 H 0.82605 0.39915 0.19428 0.0
H1039 H 0.75769 0.19416 0.18113 0.0
H1040 H 0.80971 0.24558 0.17615 0.0
H1041 H 0.76211 0.30378 0.18466 0.0
H1042 H 0.71058 0.25232 0.19016 0.0
H1043 H 0.81873 0.34064 0.19694 0.0
H1044 H 0.79343 0.28859 0.14409 0.0
H1045 H 0.77944 0.24402 0.12327 0.0
H1046 H 0.86934 0.24301 0.13709 0.0
H1047 H 0.88367 0.28734 0.15812 0.0
C1048 C 0.95377 0.47299 0.16848 0.0
C1049 C 0.98491 0.47415 0.16775 0.0
C1050 C 0.92326 0.44246 0.17056 0.0
C1051 C 0.92176 0.41097 0.17185 0.0
C1052 C 0.95278 0.41208 0.1708 0.0
C1053 C 0.98337 0.44267 0.169 0.0
C1054 C 0.88856 0.37745 0.17431 0.0
C1055 C 0.87896 0.34851 0.16427 0.0
C1056 C 0.86558 0.37357 0.18623 0.0
C1057 C 0.87352 0.40108 0.19827 0.0
C1058 C 0.90423 0.41693 0.20737 0.0
C1059 C 0.91162 0.44306 0.21855 0.0
C1060 C 0.88832 0.45327 0.22095 0.0
C1061 C 0.85746 0.43718 0.21226 0.0
C1062 C 0.84999 0.41111 0.20103 0.0
C1063 C 0.75771 0.21768 0.18136 0.0
C1064 C 0.72837 0.21784 0.1854 0.0
C1065 C 0.78814 0.24781 0.17855 0.0
C1066 C 0.79134 0.28021 0.17959 0.0
C1067 C 0.76182 0.28019 0.18355 0.0
C1068 C 0.73153 0.25012 0.18647 0.0
C1069 C 0.82495 0.31365 0.17727 0.0
C1070 C 0.83484 0.34253 0.18744 0.0
C1071 C 0.84795 0.31769 0.16532 0.0
C1072 C 0.8394 0.29096 0.1528 0.0
C1073 C 0.81007 0.27866 0.14277 0.0
C1074 C 0.80211 0.25349 0.13092 0.0
C1075 C 0.82343 0.24061 0.1289 0.0
C1076 C 0.85281 0.25295 0.1387 0.0
C1077 C 0.86088 0.27812 0.15058 0.0
H1078 H 0.81723 0.22112 0.11972 0.0
H1079 H 0.8941 0.47353 0.2296 0.0
H1080 H 0.10541 0.61831 0.11034 0.0
H1081 H 0.10662 0.61546 0.08091 0.0
H1082 H 0.05832 0.50766 0.08147 0.0
H1083 H 0.05902 0.51071 0.1111 0.0
H1084 H 0.09938 0.52459 0.06006 0.0
H1085 H 1.01744 0.55547 0.06949 0.0
H1086 H 0.99375 0.58814 0.08101 0.0
H1087 H 0.06616 0.67601 0.05831 0.0
H1088 H 0.09056 0.64396 0.04682 0.0
H1089 H 1.03359 0.50198 0.97611 0.0
H1090 H 1.038 0.50474 0.00588 0.0
H1091 H 0.12428 0.60324 0.00548 0.0
H1092 H 0.1206 0.60012 0.97564 0.0
H1093 H 0.06417 0.59088 0.02613 0.0
H1094 H 0.14368 0.55419 0.01616 0.0
H1095 H 0.16082 0.51655 0.00382 0.0
H1096 H 0.08337 0.43292 0.02689 0.0
H1097 H 0.06543 0.47002 0.03917 0.0
C1098 C 0.09503 0.59397 0.10421 0.0
C1099 C 0.08191 0.56473 0.11313 0.0
C1100 C 0.09549 0.59231 0.08727 0.0
C1101 C 0.08177 0.56126 0.07867 0.0
C1102 C 0.06902 0.53201 0.08763 0.0
C1103 C 0.06931 0.53374 0.10463 0.0
C1104 C 0.08094 0.55936 0.06043 0.0
C1105 C 0.09127 0.53888 0.05274 0.0
C1106 C 0.07064 0.57801 0.05056 0.0
C1107 C 0.05604 0.59739 0.05743 0.0
C1108 C 1.02846 0.58182 0.06705 0.0
C1109 C 1.01488 0.60021 0.07356 0.0
C1110 C 1.0285 0.63415 0.07043 0.0
C1111 C 0.05567 0.64974 0.06075 0.0
C1112 C 0.06937 0.63146 0.05422 0.0
C1113 C 0.05374 0.52406 0.98238 0.0
C1114 C 0.07684 0.55079 0.97353 0.0
C1115 C 0.05621 0.52561 -0.00062 0.0
C1116 C 0.08142 0.55421 0.00794 0.0
C1117 C 0.10464 0.58091 -0.00086 0.0
C1118 C 0.10264 0.57903 0.98211 0.0
C1119 C 0.08281 0.5565 0.02603 0.0
C1120 C 0.07238 0.57684 0.0336 0.0
C1121 C 0.09212 0.53708 0.03574 0.0
C1122 C 0.10299 0.51482 0.02843 0.0
C1123 C 0.13008 0.52772 0.01846 0.0
C1124 C 0.14 0.5065 0.01151 0.0
C1125 C 0.12313 0.47235 0.01453 0.0
C1126 C 0.09638 0.45937 0.02454 0.0
C1127 C 0.08634 0.48049 0.03151 0.0
H1128 H 0.13085 0.45596 0.00914 0.0
H1129 H 1.01795 0.64835 0.07548 0.0
H1130 H 0.54 0.06676 0.43937 0.0
H1131 H 0.54474 0.068 0.41011 0.0
H1132 H 0.64493 0.08547 0.41681 0.0
H1133 H 0.64038 0.08422 0.44633 0.0
H1134 H 0.63874 0.12602 0.39325 0.0
H1135 H 0.58478 1.00962 0.40474 0.0
H1136 H 0.54283 0.95768 0.41661 0.0
H1137 H 0.46479 0.96288 0.38913 0.0
H1138 H 0.50626 1.01515 0.37727 0.0
H1139 H 0.6446 0.09203 0.30831 0.0
H1140 H 0.64838 0.09441 0.33806 0.0
H1141 H 0.54382 0.06271 0.33815 0.0
H1142 H 0.53991 0.05984 0.3086 0.0
H1143 H 0.55639 1.02823 0.35874 0.0
H1144 H 0.60878 0.1457 0.34847 0.0
H1145 H 0.64977 0.19854 0.33687 0.0
H1146 H 0.72953 0.19232 0.362 0.0
H1147 H 0.689 0.13918 0.37358 0.0
C1148 C 0.56315 0.07093 0.43471 0.0
C1149 C 0.58977 0.07524 0.44532 0.0
C1150 C 0.56577 0.07154 0.4179 0.0
C1151 C 0.59508 0.07652 0.41116 0.0
C1152 C 0.62202 0.08153 0.42168 0.0
C1153 C 0.61933 0.08066 0.43857 0.0
C1154 C 0.59702 0.07589 0.39314 0.0
C1155 C 0.62109 0.10443 0.3857 0.0
C1156 C 0.57363 0.04803 0.38319 0.0
C1157 C 0.54863 1.01646 0.39022 0.0
C1158 C 0.55866 0.99983 0.40132 0.0
C1159 C 0.53497 0.9703 0.40803 0.0
C1160 C 0.50116 0.95702 0.40366 0.0
C1161 C 0.49098 0.97321 0.39252 0.0
C1162 C 0.51458 1.00277 0.38578 0.0
C1163 C 0.62255 0.08601 0.31469 0.0
C1164 C 0.59191 0.07553 0.30601 0.0
C1165 C 0.62471 0.08737 0.33175 0.0
C1166 C 0.59639 0.07881 0.34053 0.0
C1167 C 0.56603 0.06917 0.33181 0.0
C1168 C 0.56382 0.06755 0.31484 0.0
C1169 C 0.5977 0.07867 0.35871 0.0
C1170 C 0.57422 0.04984 0.36622 0.0
C1171 C 0.6215 0.10635 0.36868 0.0
C1172 C 0.64588 0.13828 0.36174 0.0
C1173 C 0.63508 0.15546 0.35141 0.0
C1174 C 0.65822 0.18549 0.34487 0.0
C1175 C 0.69224 0.19873 0.34866 0.0
C1176 C 0.70318 0.18201 0.35905 0.0
C1177 C 0.68013 0.15194 0.36562 0.0
H1178 H 0.71012 0.22198 0.34358 0.0
H1179 H 0.48285 0.93416 0.40887 0.0
H1180 H 0.54601 0.50546 0.77564 0.0
H1181 H 0.5482 0.50902 0.74627 0.0
H1182 H 0.59121 0.61621 0.75092 0.0
H1183 H 0.58839 0.61276 0.7804 0.0
H1184 H 0.54827 0.59361 0.72567 0.0
H1185 H 0.63913 0.5788 0.74324 0.0
H1186 H 0.66767 0.55271 0.75763 0.0
H1187 H 0.60723 0.46092 0.72974 0.0
H1188 H 0.57802 0.48633 0.71532 0.0
H1189 H 0.60383 0.61808 0.64407 0.0
H1190 H 0.6016 0.6196 0.6736 0.0
H1191 H 0.5486 0.51175 0.67291 0.0
H1192 H 0.54975 0.50988 0.6435 0.0
H1193 H 0.59992 0.53829 0.69624 0.0
H1194 H 0.50871 0.55542 0.67904 0.0
H1195 H 0.48283 0.58409 0.66465 0.0
H1196 H 0.54831 0.67539 0.69194 0.0
H1197 H 0.5749 0.64736 0.70634 0.0
C1198 C 0.55584 0.52985 0.77048 0.0
C1199 C 0.56718 0.55883 0.78053 0.0
C1200 C 0.55727 0.53188 0.75359 0.0
C1201 C 0.5705 0.56298 0.74623 0.0
C1202 C 0.58102 0.59189 0.7562 0.0
C1203 C 0.57942 0.58986 0.77312 0.0
C1204 C 0.57354 0.56518 0.72821 0.0
C1205 C 0.56002 0.58191 0.7193 0.0
C1206 C 0.58861 0.54977 0.71969 0.0
C1207 C 0.60617 0.53438 0.7283 0.0
C1208 C 0.63175 0.55297 0.74026 0.0
C1209 C 0.64808 0.53832 0.74841 0.0
C1210 C 0.63921 0.50515 0.74463 0.0
C1211 C 0.61405 0.4866 0.73266 0.0
C1212 C 0.59762 0.50112 0.72448 0.0
C1213 C 0.59124 0.59462 0.65012 0.0
C1214 C 0.57722 0.56385 0.64119 0.0
C1215 C 0.59012 0.59556 0.66709 0.0
C1216 C 0.57495 0.56577 0.6756 0.0
C1217 C 0.56072 0.53511 0.66673 0.0
C1218 C 0.56159 0.53414 0.64982 0.0
C1219 C 0.57421 0.56625 0.69372 0.0
C1220 C 0.58827 0.55007 0.70264 0.0
C1221 C 0.56007 0.58256 0.70224 0.0
C1222 C 0.54403 0.59938 0.69363 0.0
C1223 C 0.51778 0.58168 0.68187 0.0
C1224 C 0.50294 0.5978 0.67374 0.0
C1225 C 0.51399 0.63157 0.67734 0.0
C1226 C 0.53982 0.64925 0.68914 0.0
C1227 C 0.55477 0.63326 0.6973 0.0
H1228 H 0.50247 0.644 0.67103 0.0
H1229 H 0.65188 0.49386 0.75096 0.0
H1230 H 0.51486 1.02993 0.54343 0.0
H1231 H 0.50484 0.03632 0.57165 0.0
H1232 H 0.60437 0.12051 0.57899 0.0
H1233 H 0.61464 0.11448 0.5507 0.0
H1234 H 0.58541 0.07406 0.60388 0.0
H1235 H 0.5442 0.13662 0.57467 0.0
H1236 H 0.51108 0.14528 0.55308 0.0
H1237 H 0.42108 0.06598 0.57076 0.0
H1238 H 0.45371 0.05648 0.59232 0.0
H1239 H 0.56 0.12117 0.68085 0.0
H1240 H 0.57308 0.12529 0.65243 0.0
H1241 H 0.47176 0.04951 0.63898 0.0
H1242 H 0.45803 0.04647 0.66729 0.0
H1243 H 0.49433 0.09592 0.61697 0.0
H1244 H 0.53408 1.03001 0.64454 0.0
H1245 H 0.56591 1.01853 0.6657 0.0
H1246 H 0.65706 0.1009 0.65077 0.0
H1247 H 0.62569 0.11317 0.62966 0.0
C1248 C 0.53472 0.04969 0.55105 0.0
C1249 C 0.56552 0.07178 0.54483 0.0
C1250 C 0.52888 0.05339 0.56714 0.0
C1251 C 0.55376 0.0791 0.5773 0.0
C1252 C 0.58485 0.1006 0.57128 0.0
C1253 C 0.59062 0.09713 0.55513 0.0
C1254 C 0.54713 0.08355 0.5942 0.0
C1255 C 0.56589 0.07941 0.60679 0.0
C1256 C 0.52116 0.08978 0.59788 0.0
C1257 C 0.50144 0.09565 0.58503 0.0
C1258 C 0.51736 0.12085 0.57388 0.0
C1259 C 0.49868 0.12594 0.56166 0.0
C1260 C 0.464 0.10615 0.56053 0.0
C1261 C 0.44794 0.08128 0.57165 0.0
C1262 C 0.46652 0.07605 0.58388 0.0
C1263 C 0.54025 0.10601 0.67182 0.0
C1264 C 0.50802 0.08323 0.67637 0.0
C1265 C 0.54788 0.10811 0.65559 0.0
C1266 C 0.52358 0.08716 0.64364 0.0
C1267 C 0.49098 0.06572 0.64802 0.0
C1268 C 0.48325 0.0638 0.66423 0.0
C1269 C 0.53245 0.08617 0.62672 0.0
C1270 C 0.51407 0.09089 0.61411 0.0
C1271 C 0.55859 0.08014 0.623 0.0
C1272 C 0.57751 0.07273 0.63564 0.0
C1273 C 0.56088 0.04583 0.64585 0.0
C1274 C 0.57884 0.03916 0.65782 0.0
C1275 C 0.61347 0.05904 0.65961 0.0
C1276 C 0.63023 0.08557 0.64939 0.0
C1277 C 0.61237 0.09239 0.63742 0.0
H1278 H 0.62734 0.05383 0.66888 0.0
H1279 H 0.44958 0.11012 0.55106 0.0
H1280 H 0.52531 0.5199 0.88382 0.0
H1281 H 0.52702 0.51743 0.91323 0.0
H1282 H 0.63306 0.58514 0.91574 0.0
H1283 H 0.63156 0.58813 0.88604 0.0
H1284 H 0.60957 0.52392 0.93396 0.0
H1285 H 0.5906 0.61645 0.92782 0.0
H1286 H 0.56305 0.64594 0.91597 0.0
H1287 H 0.46957 0.57122 0.93288 0.0
H1288 H 0.49646 0.54099 0.94462 0.0
H1289 H 0.60507 0.52198 0.01995 0.0
H1290 H 0.61707 0.5412 0.9923 0.0
H1291 H 0.51189 0.49949 0.98038 0.0
H1292 H 0.50007 0.48153 0.00818 0.0
H1293 H 0.54363 0.55681 0.9675 0.0
H1294 H 0.55786 0.46 0.96969 0.0
H1295 H 0.58169 0.42607 0.98022 0.0
H1296 H 0.67956 0.50347 0.9696 0.0
H1297 H 0.65633 0.53806 0.95919 0.0
C1298 C 0.54904 0.5344 0.89058 0.0
C1299 C 0.57834 0.55421 0.88263 0.0
C1300 C 0.54992 0.53305 0.90739 0.0
C1301 C 0.5801 0.55127 0.9166 0.0
C1302 C 0.60952 0.57102 0.90877 0.0
C1303 C 0.6086 0.57278 0.89187 0.0
C1304 C 0.58046 0.5485 0.93437 0.0
C1305 C 0.59586 0.53179 0.94144 0.0
C1306 C 0.56174 0.55799 0.9439 0.0
C1307 C 0.54554 0.57635 0.93703 0.0
C1308 C 0.56412 0.60618 0.92892 0.0
C1309 C 0.54863 0.62305 0.92224 0.0
C1310 C 0.51457 0.61044 0.92365 0.0
C1311 C 0.49596 0.58097 0.93179 0.0
C1312 C 0.51132 0.56398 0.93849 0.0
C1313 C 0.5846 0.51695 0.01137 0.0
C1314 C 0.55165 0.50018 0.0161 0.0
C1315 C 0.59144 0.52785 0.99559 0.0
C1316 C 0.56536 0.52138 0.98416 0.0
C1317 C 0.53245 0.50487 0.98897 0.0
C1318 C 0.52567 0.49453 0.00482 0.0
C1319 C 0.57205 0.53137 0.96713 0.0
C1320 C 0.55791 0.54944 0.96018 0.0
C1321 C 0.59144 0.52257 0.95763 0.0
C1322 C 0.60541 0.50177 0.96385 0.0
C1323 C 0.58449 0.46988 0.96971 0.0
C1324 C 0.59788 0.45052 0.97564 0.0
C1325 C 0.63213 0.46265 0.97563 0.0
C1326 C 0.65304 0.49414 0.96963 0.0
C1327 C 0.63978 0.51362 0.96371 0.0
H1328 H 0.64245 0.44762 0.98022 0.0
H1329 H 0.50262 0.62353 0.91846 0.0
H1330 H 1.04919 0.5956 0.21526 0.0
H1331 H 1.04872 0.59711 0.24478 0.0
H1332 H 0.11461 0.55626 0.24799 0.0
H1333 H 0.11559 0.555 0.21837 0.0
H1334 H 0.05798 0.52399 0.26718 0.0
H1335 H 0.14744 0.63325 0.25806 0.0
H1336 H 0.17536 0.68784 0.24532 0.0
H1337 H 0.10387 0.71169 0.26329 0.0
H1338 H 0.07523 0.65695 0.27601 0.0
H1339 H 0.09715 0.55439 0.35198 0.0
H1340 H 0.10042 0.55312 0.32261 0.0
H1341 H 1.0417 0.6018 0.31739 0.0
H1342 H 1.03893 0.60381 0.34688 0.0
H1343 H 0.0964 0.63009 0.29915 0.0
H1344 H 1.00694 0.51959 0.30836 0.0
H1345 H 0.98005 0.4648 0.32103 0.0
H1346 H 0.05284 0.44316 0.30281 0.0
H1347 H 0.08048 0.49806 0.29021 0.0
C1348 C 0.06368 0.58701 0.22222 0.0
C1349 C 0.08248 0.57523 0.2145 0.0
C1350 C 0.06344 0.58798 0.23908 0.0
C1351 C 0.08172 0.57692 0.24851 0.0
C1352 C 0.10036 0.56492 0.24087 0.0
C1353 C 0.101 0.56437 0.22399 0.0
C1354 C 0.08092 0.57761 0.26636 0.0
C1355 C 0.06683 0.54719 0.27423 0.0
C1356 C 0.09188 0.60787 0.27543 0.0
C1357 C 0.10898 0.64085 0.26784 0.0
C1358 C 0.13748 0.65 0.25918 0.0
C1359 C 0.15348 0.68101 0.25198 0.0
C1360 C 0.14134 0.7032 0.25344 0.0
C1361 C 0.11321 0.69445 0.26215 0.0
C1362 C 0.09711 0.66345 0.26937 0.0
C1363 C 0.08506 0.56497 0.34459 0.0
C1364 C 0.06784 0.57927 0.35174 0.0
C1365 C 0.08673 0.56398 0.3278 0.0
C1366 C 0.0711 0.57714 0.31782 0.0
C1367 C 0.05388 0.59145 0.3249 0.0
C1368 C 0.05209 0.59234 0.34171 0.0
C1369 C 0.0732 0.5764 0.30001 0.0
C1370 C 0.08756 0.60686 0.29213 0.0
C1371 C 0.0626 0.54615 0.29095 0.0
C1372 C 1.04598 0.51308 0.29848 0.0
C1373 C 1.01739 0.50327 0.30717 0.0
C1374 C 1.00197 0.47217 0.31432 0.0
C1375 C 1.01478 0.45055 0.31276 0.0
C1376 C 1.04298 0.45995 0.30402 0.0
C1377 C 0.05851 0.49105 0.29686 0.0
H1378 H 1.00281 0.42647 0.31831 0.0
H1379 H 0.15377 0.72721 0.24785 0.0
loop_
_geom_bond_atom_site_label_1
_geom_bond_atom_site_label_2
_geom_bond_distance
_geom_bond_site_symmetry_2
_ccdc_geom_bond_type
Tb0 C10 2.825 . S
Tb0 O11 2.347 . S
Tb0 O14 2.366 . S
Tb0 O19 2.418 . S
Tb0 O20 2.384 1_455 S
Tb0 O23 2.479 . S
Tb0 O24 2.471 . S
Eu1 O12 2.420 . S
Eu1 O13 2.391 . S
Eu1 O16 2.470 1_455 S
Eu1 O17 2.464 1_455 S
Eu1 O18 2.351 . S
Eu1 O21 2.365 1_455 S
Eu1 C31 2.816 1_455 S
C2 O18 1.259 . S
C2 O19 1.265 . S
C3 O20 1.255 . S
C3 O21 1.265 . S
C4 C6 1.380 . S
C4 C7 1.374 . S
C4 C10 1.507 . S
C5 C6 1.384 . S
C5 C9 1.387 . S
C5 H32 0.930 . S
C6 C4 1.380 . S
C6 C5 1.384 . S
C6 H33 0.931 . S
C7 C4 1.374 . S
C7 C8 1.390 . S
C7 H34 0.930 . S
C8 C7 1.390 . S
C8 C9 1.391 . S
C8 H35 0.930 . S
C9 C5 1.387 . S
C9 C8 1.391 . S
C10 Tb0 2.825 . S
C10 C4 1.507 . S
C10 O23 1.238 . S
C10 O24 1.247 . S
O11 Tb0 2.347 . S
O11 C15 1.259 . S
O12 Eu1 2.420 . S
O12 C15 1.265 . S
O13 Eu1 2.391 . S
O13 C22 1.255 . S
O14 Tb0 2.366 . S
O14 C22 1.265 . S
C15 O11 1.259 . S
C15 O12 1.265 . S
O16 Eu1 2.470 1_655 S
O16 C31 1.238 . S
O17 Eu1 2.464 1_655 S
O17 C31 1.247 . S
O18 Eu1 2.351 . S
O18 C2 1.259 . S
O19 Tb0 2.418 . S
O19 C2 1.265 . S
O20 Tb0 2.384 1_655 S
O20 C3 1.255 . S
O21 Eu1 2.365 1_655 S
O21 C3 1.265 . S
C22 O13 1.255 . S
C22 O14 1.265 . S
O23 Tb0 2.479 . S
O23 C10 1.238 . S
O24 Tb0 2.471 . S
O24 C10 1.247 . S
C25 C28 1.380 . S
C25 C29 1.374 . S
C25 C31 1.507 . S
C26 C27 1.387 . S
C26 C30 1.391 . S
C27 C26 1.387 . S
C27 C28 1.384 . S
C27 H36 0.930 . S
C28 C25 1.380 . S
C28 C27 1.384 . S
C28 H37 0.931 . S
C29 C25 1.374 . S
C29 C30 1.390 . S
C29 H38 0.930 . S
C30 C26 1.391 . S
C30 C29 1.390 . S
C30 H39 0.930 . S
C31 Eu1 2.816 1_655 S
C31 O16 1.238 . S
C31 O17 1.247 . S
C31 C25 1.507 . S
H32 C5 0.930 . S
H33 C6 0.931 . S
H34 C7 0.930 . S
H35 C8 0.930 . S
H36 C27 0.930 . S
H37 C28 0.931 . S
H38 C29 0.930 . S
H39 C30 0.930 . S
Tb40 C50 2.825 . S
Tb40 O51 2.347 . S
Tb40 O54 2.366 . S
Tb40 O59 2.418 . S
Tb40 O60 2.407 . S
Tb40 O63 2.479 . S
Tb40 O64 2.471 . S
Eu41 O52 2.418 . S
Eu41 O53 2.384 . S
Eu41 O56 2.479 1_545 S
Eu41 O57 2.471 1_545 S
Eu41 O58 2.347 . S
Eu41 O61 2.366 1_545 S
Eu41 C71 2.825 1_545 S
C42 O58 1.259 . S
C42 O59 1.265 . S
C43 O60 1.246 1_565 S
C43 O61 1.265 . S
C44 C46 1.380 . S
C44 C47 1.374 . S
C44 C50 1.507 . S
C45 C46 1.384 . S
C45 C49 1.387 . S
C45 H72 0.930 . S
C46 C44 1.380 . S
C46 C45 1.384 . S
C46 H73 0.931 . S
C47 C44 1.374 . S
C47 C48 1.390 . S
C47 H74 0.930 . S
C48 C47 1.390 . S
C48 C49 1.391 . S
C48 H75 0.930 . S
C49 C45 1.387 . S
C49 C48 1.391 . S
C50 Tb40 2.825 . S
C50 C44 1.507 . S
C50 O63 1.238 . S
C50 O64 1.247 . S
O51 Tb40 2.347 . S
O51 C55 1.259 . S
O52 Eu41 2.418 . S
O52 C55 1.265 . S
O53 Eu41 2.384 . S
O53 C62 1.255 . S
O54 Tb40 2.366 . S
O54 C62 1.265 . S
C55 O51 1.259 . S
C55 O52 1.265 . S
O56 Eu41 2.479 1_565 S
O56 C71 1.238 . S
O57 Eu41 2.471 1_565 S
O57 C71 1.247 . S
O58 Eu41 2.347 . S
O58 C42 1.259 . S
O59 Tb40 2.418 . S
O59 C42 1.265 . S
O60 Tb40 2.407 . S
O60 C43 1.246 1_545 S
O61 Eu41 2.366 1_565 S
O61 C43 1.265 . S
C62 O53 1.255 . S
C62 O54 1.265 . S
O63 Tb40 2.479 . S
O63 C50 1.238 . S
O64 Tb40 2.471 . S
O64 C50 1.247 . S
C65 C68 1.380 . S
C65 C69 1.374 . S
C65 C71 1.507 . S
C66 C67 1.387 . S
C66 C70 1.391 . S
C67 C66 1.387 . S
C67 C68 1.384 . S
C67 H76 0.930 . S
C68 C65 1.380 . S
C68 C67 1.384 . S
C68 H77 0.931 . S
C69 C65 1.374 . S
C69 C70 1.390 . S
C69 H78 0.930 . S
C70 C66 1.391 . S
C70 C69 1.390 . S
C70 H79 0.930 . S
C71 Eu41 2.825 1_565 S
C71 O56 1.238 . S
C71 O57 1.247 . S
C71 C65 1.507 . S
H72 C45 0.930 . S
H73 C46 0.931 . S
H74 C47 0.930 . S
H75 C48 0.930 . S
H76 C67 0.930 . S
H77 C68 0.931 . S
H78 C69 0.930 . S
H79 C70 0.930 . S
Tb80 C90 2.825 . S
Tb80 O91 2.347 . S
Tb80 O94 2.366 . S
Tb80 O99 2.418 . S
Tb80 O100 2.384 . S
Tb80 O103 2.479 . S
Tb80 O104 2.471 . S
Eu81 O92 2.418 . S
Eu81 O93 2.384 . S
Eu81 O96 2.479 . S
Eu81 O97 2.471 . S
Eu81 O98 2.347 . S
Eu81 O101 2.366 . S
Eu81 C111 2.825 . S
C82 O98 1.259 . S
C82 O99 1.265 . S
C83 O100 1.255 . S
C83 O101 1.265 . S
C84 C86 1.380 . S
C84 C87 1.374 . S
C84 C90 1.507 . S
C85 C86 1.384 . S
C85 C89 1.387 . S
C85 H112 0.930 . S
C86 C84 1.380 . S
C86 C85 1.384 . S
C86 H113 0.931 . S
C87 C84 1.374 . S
C87 C88 1.390 . S
C87 H114 0.930 . S
C88 C87 1.390 . S
C88 C89 1.391 . S
C88 H115 0.930 . S
C89 C85 1.387 . S
C89 C88 1.391 . S
C90 Tb80 2.825 . S
C90 C84 1.507 . S
C90 O103 1.238 . S
C90 O104 1.247 . S
O91 Tb80 2.347 . S
O91 C95 1.259 . S
O92 Eu81 2.418 . S
O92 C95 1.265 . S
O93 Eu81 2.384 . S
O93 C102 1.255 . S
O94 Tb80 2.366 . S
O94 C102 1.265 . S
C95 O91 1.259 . S
C95 O92 1.265 . S
O96 Eu81 2.479 . S
O96 C111 1.238 . S
O97 Eu81 2.471 . S
O97 C111 1.247 . S
O98 Eu81 2.347 . S
O98 C82 1.259 . S
O99 Tb80 2.418 . S
O99 C82 1.265 . S
O100 Tb80 2.384 . S
O100 C83 1.255 . S
O101 Eu81 2.366 . S
O101 C83 1.265 . S
C102 O93 1.255 . S
C102 O94 1.265 . S
O103 Tb80 2.479 . S
O103 C90 1.238 . S
O104 Tb80 2.471 . S
O104 C90 1.247 . S
C105 C108 1.380 . S
C105 C109 1.374 . S
C105 C111 1.507 . S
C106 C107 1.387 . S
C106 C110 1.391 . S
C107 C106 1.387 . S
C107 C108 1.384 . S
C107 H116 0.930 . S
C108 C105 1.380 . S
C108 C107 1.384 . S
C108 H117 0.931 . S
C109 C105 1.374 . S
C109 C110 1.390 . S
C109 H118 0.930 . S
C110 C106 1.391 . S
C110 C109 1.390 . S
C110 H119 0.930 . S
C111 Eu81 2.825 . S
C111 O96 1.238 . S
C111 O97 1.247 . S
C111 C105 1.507 . S
H112 C85 0.930 . S
H113 C86 0.931 . S
H114 C87 0.930 . S
H115 C88 0.930 . S
H116 C107 0.930 . S
H117 C108 0.931 . S
H118 C109 0.930 . S
H119 C110 0.930 . S
C120 C121 1.391 . S
C120 C124 1.391 . S
C120 H162 0.948 . S
C121 C120 1.391 . S
C121 C122 1.391 . S
C122 C121 1.391 . S
C122 H178 0.947 . S
C122 C179 1.392 . S
C123 C124 1.391 . S
C123 C127 1.397 . S
C123 C179 1.419 . S
C124 C120 1.391 . S
C124 C123 1.391 . S
C124 C125 1.399 . S
C125 C124 1.399 . S
C125 C128 1.396 . S
C125 C137 1.453 . S
C125 C138 1.684 . S
H126 C150 0.948 . S
C127 C123 1.397 . S
C127 C128 1.394 . S
C127 C146 1.723 . S
C128 C125 1.396 . S
C128 C127 1.394 . S
C128 C158 1.723 1_545 S
H129 C152 0.947 . S
H130 C153 0.948 . S
H131 C159 0.982 . S
H132 C160 0.979 . S
H133 C160 0.980 . S
H134 C160 0.983 . S
H135 C159 0.979 . S
H136 C159 0.977 . S
C137 C125 1.453 . S
C137 H166 0.982 . S
C137 H167 0.979 . S
C137 H168 0.977 1_545 S
C138 C125 1.684 . S
C138 H163 0.979 . S
C138 H164 0.980 . S
C138 H165 0.983 . S
C139 C140 1.391 . S
C139 C144 1.391 . S
C139 H169 0.948 . S
C140 C139 1.391 . S
C140 C141 1.391 1_545 S
C141 C140 1.391 1_565 S
C141 C142 1.392 . S
C141 H170 0.947 . S
C142 C141 1.392 . S
C142 C143 1.419 1_565 S
C142 H171 0.948 . S
C143 C142 1.419 1_545 S
C143 C144 1.391 . S
C143 C147 1.397 . S
C144 C139 1.391 . S
C144 C143 1.391 . S
C144 C145 1.399 . S
C145 C144 1.399 . S
C145 C146 1.396 . S
C145 C148 1.453 . S
C145 C149 1.684 . S
C146 C127 1.723 . S
C146 C145 1.396 . S
C146 C147 1.394 . S
C147 C143 1.397 . S
C147 C146 1.394 . S
C147 C157 1.723 1_545 S
C148 C145 1.453 . S
C148 H172 0.982 . S
C148 H173 0.979 . S
C148 H174 0.977 . S
C149 C145 1.684 . S
C149 H175 0.979 . S
C149 H176 0.980 . S
C149 H177 0.983 . S
C150 H126 0.948 . S
C150 C151 1.391 . S
C150 C155 1.391 . S
C151 C150 1.391 . S
C151 C152 1.391 . S
C152 H129 0.947 . S
C152 C151 1.391 . S
C152 C153 1.392 . S
C153 H130 0.948 . S
C153 C152 1.392 . S
C153 C154 1.419 . S
C154 C153 1.419 . S
C154 C155 1.391 . S
C154 C158 1.397 . S
C155 C150 1.391 . S
C155 C154 1.391 . S
C155 C156 1.399 . S
C156 C155 1.399 . S
C156 C157 1.396 . S
C156 C159 1.453 . S
C156 C160 1.684 . S
C157 C147 1.723 1_565 S
C157 C156 1.396 . S
C157 C158 1.394 . S
C158 C128 1.723 1_565 S
C158 C154 1.397 . S
C158 C157 1.394 . S
C159 H131 0.982 . S
C159 H135 0.979 . S
C159 H136 0.977 . S
C159 C156 1.453 . S
C160 H132 0.979 . S
C160 H133 0.980 . S
C160 H134 0.983 . S
C160 C156 1.684 . S
H161 C179 0.948 . S
H162 C120 0.948 . S
H163 C138 0.979 . S
H164 C138 0.980 . S
H165 C138 0.983 . S
H166 C137 0.982 . S
H167 C137 0.979 . S
H168 C137 0.977 1_565 S
H169 C139 0.948 . S
H170 C141 0.947 . S
H171 C142 0.948 . S
H172 C148 0.982 . S
H173 C148 0.979 . S
H174 C148 0.977 . S
H175 C149 0.979 . S
H176 C149 0.980 . S
H177 C149 0.983 . S
H178 C122 0.947 . S
C179 C122 1.392 . S
C179 C123 1.419 . S
C179 H161 0.948 . S
C180 C181 1.391 . S
C180 C184 1.391 . S
C180 H222 0.948 . S
C181 C180 1.391 . S
C181 C182 1.391 . S
C182 C181 1.391 . S
C182 H238 0.947 . S
C182 C239 1.392 . S
C183 C184 1.391 . S
C183 C187 1.397 . S
C183 C239 1.419 . S
C184 C180 1.391 . S
C184 C183 1.391 . S
C184 C185 1.399 . S
C185 C184 1.399 . S
C185 C188 1.396 . S
C185 C197 1.453 . S
C185 C198 1.684 . S
H186 C210 0.948 . S
C187 C183 1.397 . S
C187 C188 1.394 . S
C187 C206 1.723 . S
C188 C185 1.396 . S
C188 C187 1.394 . S
C188 C218 1.723 . S
H189 C212 0.947 . S
H190 C213 0.948 . S
H191 C219 0.982 . S
H192 C220 0.979 . S
H193 C220 0.980 . S
H194 C220 0.983 . S
H195 C219 0.979 . S
H196 C219 0.977 . S
C197 C185 1.453 . S
C197 H226 0.982 . S
C197 H227 0.979 . S
C197 H228 0.977 . S
C198 C185 1.684 . S
C198 H223 0.979 . S
C198 H224 0.980 . S
C198 H225 0.983 . S
C199 C200 1.391 . S
C199 C204 1.391 . S
C199 H229 0.948 . S
C200 C199 1.391 . S
C200 C201 1.391 . S
C201 C200 1.391 . S
C201 C202 1.392 . S
C201 H230 0.947 . S
C202 C201 1.392 . S
C202 C203 1.419 . S
C202 H231 0.948 . S
C203 C202 1.419 . S
C203 C204 1.391 . S
C203 C207 1.397 . S
C204 C199 1.391 . S
C204 C203 1.391 . S
C204 C205 1.399 . S
C205 C204 1.399 . S
C205 C206 1.396 . S
C205 C208 1.453 . S
C205 C209 1.684 . S
C206 C187 1.723 . S
C206 C205 1.396 . S
C206 C207 1.394 . S
C207 C203 1.397 . S
C207 C206 1.394 . S
C207 C217 1.723 . S
C208 C205 1.453 . S
C208 H232 0.982 . S
C208 H233 0.979 . S
C208 H234 0.977 . S
C209 C205 1.684 . S
C209 H235 0.979 . S
C209 H236 0.980 . S
C209 H237 0.983 . S
C210 H186 0.948 . S
C210 C211 1.391 . S
C210 C215 1.391 . S
C211 C210 1.391 . S
C211 C212 1.391 . S
C212 H189 0.947 . S
C212 C211 1.391 . S
C212 C213 1.392 . S
C213 H190 0.948 . S
C213 C212 1.392 . S
C213 C214 1.419 . S
C214 C213 1.419 . S
C214 C215 1.391 . S
C214 C218 1.397 . S
C215 C210 1.391 . S
C215 C214 1.391 . S
C215 C216 1.399 . S
C216 C215 1.399 . S
C216 C217 1.396 . S
C216 C219 1.453 . S
C216 C220 1.684 . S
C217 C207 1.723 . S
C217 C216 1.396 . S
C217 C218 1.394 . S
C218 C188 1.723 . S
C218 C214 1.397 . S
C218 C217 1.394 . S
C219 H191 0.982 . S
C219 H195 0.979 . S
C219 H196 0.977 . S
C219 C216 1.453 . S
C220 H192 0.979 . S
C220 H193 0.980 . S
C220 H194 0.983 . S
C220 C216 1.684 . S
H221 C239 0.948 . S
H222 C180 0.948 . S
H223 C198 0.979 . S
H224 C198 0.980 . S
H225 C198 0.983 . S
H226 C197 0.982 . S
H227 C197 0.979 . S
H228 C197 0.977 . S
H229 C199 0.948 . S
H230 C201 0.947 . S
H231 C202 0.948 . S
H232 C208 0.982 . S
H233 C208 0.979 . S
H234 C208 0.977 . S
H235 C209 0.979 . S
H236 C209 0.980 . S
H237 C209 0.983 . S
H238 C182 0.947 . S
C239 C182 1.392 . S
C239 C183 1.419 . S
C239 H221 0.948 . S
C240 C241 1.391 . S
C240 C244 1.391 . S
C240 H282 0.948 . S
C241 C240 1.391 . S
C241 C242 1.391 . S
C242 C241 1.391 . S
C242 H298 0.947 . S
C242 C299 1.392 . S
C243 C244 1.391 . S
C243 C247 1.397 . S
C243 C299 1.419 . S
C244 C240 1.391 . S
C244 C243 1.391 . S
C244 C245 1.399 . S
C245 C244 1.399 . S
C245 C248 1.396 . S
C245 C257 1.453 . S
C245 C258 1.684 . S
H246 C270 0.948 . S
C247 C243 1.397 . S
C247 C248 1.394 . S
C247 C266 1.723 . S
C248 C245 1.396 . S
C248 C247 1.394 . S
C248 C278 1.723 1_455 S
H249 C272 0.947 . S
H250 C273 0.948 . S
H251 C279 0.982 . S
H252 C280 0.979 . S
H253 C280 0.980 . S
H254 C280 0.983 . S
H255 C279 0.979 . S
H256 C279 0.977 . S
C257 C245 1.453 . S
C257 H286 0.982 . S
C257 H287 0.979 . S
C257 H288 0.977 1_455 S
C258 C245 1.684 . S
C258 H283 0.979 . S
C258 H284 0.980 . S
C258 H285 0.983 . S
C259 C260 1.391 . S
C259 C264 1.391 . S
C259 H289 0.948 . S
C260 C259 1.391 . S
C260 C261 1.391 1_455 S
C261 C260 1.391 1_655 S
C261 C262 1.392 . S
C261 H290 0.947 . S
C262 C261 1.392 . S
C262 C263 1.419 1_655 S
C262 H291 0.948 . S
C263 C262 1.419 1_455 S
C263 C264 1.391 . S
C263 C267 1.397 . S
C264 C259 1.391 . S
C264 C263 1.391 . S
C264 C265 1.399 . S
C265 C264 1.399 . S
C265 C266 1.396 . S
C265 C268 1.453 . S
C265 C269 1.684 . S
C266 C247 1.723 . S
C266 C265 1.396 . S
C266 C267 1.394 . S
C267 C263 1.397 . S
C267 C266 1.394 . S
C267 C277 1.723 1_455 S
C268 C265 1.453 . S
C268 H292 0.982 . S
C268 H293 0.979 . S
C268 H294 0.977 . S
C269 C265 1.684 . S
C269 H295 0.979 . S
C269 H296 0.980 . S
C269 H297 0.983 . S
C270 H246 0.948 . S
C270 C271 1.391 . S
C270 C275 1.391 . S
C271 C270 1.391 . S
C271 C272 1.391 . S
C272 H249 0.947 . S
C272 C271 1.391 . S
C272 C273 1.392 . S
C273 H250 0.948 . S
C273 C272 1.392 . S
C273 C274 1.419 . S
C274 C273 1.419 . S
C274 C275 1.391 . S
C274 C278 1.397 . S
C275 C270 1.391 . S
C275 C274 1.391 . S
C275 C276 1.399 . S
C276 C275 1.399 . S
C276 C277 1.396 . S
C276 C279 1.453 . S
C276 C280 1.684 . S
C277 C267 1.723 1_655 S
C277 C276 1.396 . S
C277 C278 1.394 . S
C278 C248 1.723 1_655 S
C278 C274 1.397 . S
C278 C277 1.394 . S
C279 H251 0.982 . S
C279 H255 0.979 . S
C279 H256 0.977 . S
C279 C276 1.453 . S
C280 H252 0.979 . S
C280 H253 0.980 . S
C280 H254 0.983 . S
C280 C276 1.684 . S
H281 C299 0.948 . S
H282 C240 0.948 . S
H283 C258 0.979 . S
H284 C258 0.980 . S
H285 C258 0.983 . S
H286 C257 0.982 . S
H287 C257 0.979 . S
H288 C257 0.977 1_655 S
H289 C259 0.948 . S
H290 C261 0.947 . S
H291 C262 0.948 . S
H292 C268 0.982 . S
H293 C268 0.979 . S
H294 C268 0.977 . S
H295 C269 0.979 . S
H296 C269 0.980 . S
H297 C269 0.983 . S
H298 C242 0.947 . S
C299 C242 1.392 . S
C299 C243 1.419 . S
C299 H281 0.948 . S
C300 C301 1.391 . S
C300 C304 1.391 . S
C300 H342 0.948 . S
C301 C300 1.391 . S
C301 C302 1.391 . S
C302 C301 1.391 . S
C302 H358 0.947 . S
C302 C359 1.392 . S
C303 C304 1.391 . S
C303 C307 1.397 . S
C303 C359 1.419 . S
C304 C300 1.391 . S
C304 C303 1.391 . S
C304 C305 1.399 . S
C305 C304 1.399 . S
C305 C308 1.396 . S
C305 C317 1.453 1_655 S
C305 C318 1.684 . S
H306 C330 0.948 . S
C307 C303 1.397 . S
C307 C308 1.394 . S
C307 C326 1.723 . S
C308 C305 1.396 . S
C308 C307 1.394 . S
C308 C338 1.723 1_655 S
H309 C332 0.947 . S
H310 C333 0.948 . S
H311 C339 0.982 . S
H312 C340 0.979 . S
H313 C340 0.980 . S
H314 C340 0.983 . S
H315 C339 0.979 . S
H316 C339 0.977 . S
C317 C305 1.453 1_455 S
C317 H346 0.982 . S
C317 H347 0.979 1_455 S
C317 H348 0.977 . S
C318 C305 1.684 . S
C318 H343 0.979 . S
C318 H344 0.992 . S
C318 H345 0.983 . S
C319 C320 1.391 1_655 S
C319 C324 1.391 . S
C319 H349 0.948 . S
C320 C319 1.391 1_455 S
C320 C321 1.391 . S
C321 C320 1.391 . S
C321 C322 1.392 . S
C321 H350 0.947 . S
C322 C321 1.392 . S
C322 C323 1.419 . S
C322 H351 0.948 . S
C323 C322 1.419 . S
C323 C324 1.391 1_455 S
C323 C327 1.397 . S
C324 C319 1.391 . S
C324 C323 1.391 1_655 S
C324 C325 1.399 . S
C325 C324 1.399 . S
C325 C326 1.396 . S
C325 C328 1.453 . S
C325 C329 1.684 . S
C326 C307 1.723 . S
C326 C325 1.396 . S
C326 C327 1.394 1_655 S
C327 C323 1.397 . S
C327 C326 1.394 1_455 S
C327 C337 1.723 . S
C328 C325 1.453 . S
C328 H352 0.982 . S
C328 H353 0.979 . S
C328 H354 0.977 . S
C329 C325 1.684 . S
C329 H355 0.979 . S
C329 H356 0.980 . S
C329 H357 0.983 . S
C330 H306 0.948 . S
C330 C331 1.391 . S
C330 C335 1.391 . S
C331 C330 1.391 . S
C331 C332 1.391 . S
C332 H309 0.947 . S
C332 C331 1.391 . S
C332 C333 1.392 . S
C333 H310 0.948 . S
C333 C332 1.392 . S
C333 C334 1.419 . S
C334 C333 1.419 . S
C334 C335 1.391 . S
C334 C338 1.397 . S
C335 C330 1.391 . S
C335 C334 1.391 . S
C335 C336 1.399 . S
C336 C335 1.399 . S
C336 C337 1.396 . S
C336 C339 1.453 . S
C336 C340 1.684 . S
C337 C327 1.723 . S
C337 C336 1.396 . S
C337 C338 1.394 . S
C338 C308 1.723 1_455 S
C338 C334 1.397 . S
C338 C337 1.394 . S
C339 H311 0.982 . S
C339 H315 0.979 . S
C339 H316 0.977 . S
C339 C336 1.453 . S
C340 H312 0.979 . S
C340 H313 0.980 . S
C340 H314 0.983 . S
C340 C336 1.684 . S
H341 C359 0.948 . S
H342 C300 0.948 . S
H343 C318 0.979 . S
H344 C318 0.992 . S
H345 C318 0.983 . S
H346 C317 0.982 . S
H347 C317 0.979 1_655 S
H348 C317 0.977 . S
H349 C319 0.948 . S
H350 C321 0.947 . S
H351 C322 0.948 . S
H352 C328 0.982 . S
H353 C328 0.979 . S
H354 C328 0.977 . S
H355 C329 0.979 . S
H356 C329 0.980 . S
H357 C329 0.983 . S
H358 C302 0.947 . S
C359 C302 1.392 . S
C359 C303 1.419 . S
C359 H341 0.948 . S
C360 C361 1.391 . S
C360 C364 1.391 . S
C360 H402 0.948 . S
C361 C360 1.391 . S
C361 C362 1.391 . S
C362 C361 1.391 . S
C362 H418 0.947 . S
C362 C419 1.392 . S
C363 C364 1.391 . S
C363 C367 1.397 . S
C363 C419 1.419 . S
C364 C360 1.391 . S
C364 C363 1.391 . S
C364 C365 1.399 . S
C365 C364 1.399 . S
C365 C368 1.396 . S
C365 C377 1.453 . S
C365 C378 1.684 . S
H366 C390 0.948 . S
C367 C363 1.397 . S
C367 C368 1.394 . S
C367 C386 1.723 . S
C368 C365 1.396 . S
C368 C367 1.394 . S
C368 C398 1.723 1_565 S
H369 C392 0.947 . S
H370 C393 0.948 . S
H371 C399 0.982 . S
H372 C400 0.979 . S
H373 C400 0.980 . S
H374 C400 0.983 . S
H375 C399 0.979 . S
H376 C399 0.977 . S
C377 C365 1.453 . S
C377 H406 0.982 1_565 S
C377 H407 0.979 . S
C377 H408 0.977 1_565 S
C378 C365 1.684 . S
C378 H403 0.979 . S
C378 H404 0.980 . S
C378 H405 0.983 . S
C379 C380 1.391 1_565 S
C379 C384 1.391 . S
C379 H409 0.948 . S
C380 C379 1.391 1_545 S
C380 C381 1.391 . S
C381 C380 1.391 . S
C381 C382 1.392 . S
C381 H410 0.947 . S
C382 C381 1.392 . S
C382 C383 1.419 . S
C382 H411 0.948 . S
C383 C382 1.419 . S
C383 C384 1.391 1_545 S
C383 C387 1.397 . S
C384 C379 1.391 . S
C384 C383 1.391 1_565 S
C384 C385 1.399 . S
C385 C384 1.399 . S
C385 C386 1.396 . S
C385 C388 1.453 . S
C385 C389 1.684 . S
C386 C367 1.723 . S
C386 C385 1.396 . S
C386 C387 1.394 1_565 S
C387 C383 1.397 . S
C387 C386 1.394 1_545 S
C387 C397 1.723 . S
C388 C385 1.453 . S
C388 H412 0.982 . S
C388 H413 0.979 . S
C388 H414 0.977 . S
C389 C385 1.684 . S
C389 H415 0.979 . S
C389 H416 0.980 . S
C389 H417 0.983 . S
C390 H366 0.948 . S
C390 C391 1.391 . S
C390 C395 1.391 . S
C391 C390 1.391 . S
C391 C392 1.391 . S
C392 H369 0.947 . S
C392 C391 1.391 . S
C392 C393 1.392 . S
C393 H370 0.948 . S
C393 C392 1.392 . S
C393 C394 1.419 . S
C394 C393 1.419 . S
C394 C395 1.391 . S
C394 C398 1.397 . S
C395 C390 1.391 . S
C395 C394 1.391 . S
C395 C396 1.399 . S
C396 C395 1.399 . S
C396 C397 1.396 . S
C396 C399 1.453 . S
C396 C400 1.684 . S
C397 C387 1.723 . S
C397 C396 1.396 . S
C397 C398 1.394 . S
C398 C368 1.723 1_545 S
C398 C394 1.397 . S
C398 C397 1.394 . S
C399 H371 0.982 . S
C399 H375 0.979 . S
C399 H376 0.977 . S
C399 C396 1.453 . S
C400 H372 0.979 . S
C400 H373 0.980 . S
C400 H374 0.983 . S
C400 C396 1.684 . S
H401 C419 0.948 . S
H402 C360 0.948 . S
H403 C378 0.979 . S
H404 C378 0.980 . S
H405 C378 0.983 . S
H406 C377 0.982 1_545 S
H407 C377 0.979 . S
H408 C377 0.977 1_545 S
H409 C379 0.948 . S
H410 C381 0.947 . S
H411 C382 0.948 . S
H412 C388 0.982 . S
H413 C388 0.979 . S
H414 C388 0.977 . S
H415 C389 0.979 . S
H416 C389 0.980 . S
H417 C389 0.983 . S
H418 C362 0.947 . S
C419 C362 1.392 . S
C419 C363 1.419 . S
C419 H401 0.948 . S
C420 C421 1.391 . S
C420 C424 1.391 . S
C420 H462 0.948 . S
C421 C420 1.391 . S
C421 C422 1.391 . S
C422 C421 1.391 . S
C422 H478 0.947 . S
C422 C479 1.392 . S
C423 C424 1.391 . S
C423 C427 1.397 . S
C423 C479 1.419 . S
C424 C420 1.391 . S
C424 C423 1.391 . S
C424 C425 1.399 . S
C425 C424 1.399 . S
C425 C428 1.396 . S
C425 C437 1.453 . S
C425 C438 1.684 . S
H426 C450 0.948 . S
C427 C423 1.397 . S
C427 C428 1.394 . S
C427 C446 1.723 . S
C428 C425 1.396 . S
C428 C427 1.394 . S
C428 C458 1.723 . S
H429 C452 0.947 . S
H430 C453 0.948 . S
H431 C459 0.982 . S
H432 C460 0.979 . S
H433 C460 0.980 . S
H434 C460 0.983 . S
H435 C459 0.979 . S
H436 C459 0.977 . S
C437 C425 1.453 . S
C437 H466 0.982 . S
C437 H467 0.979 . S
C437 H468 0.977 . S
C438 C425 1.684 . S
C438 H463 0.979 . S
C438 H464 0.980 . S
C438 H465 0.983 . S
C439 C440 1.391 . S
C439 C444 1.391 . S
C439 H469 0.948 . S
C440 C439 1.391 . S
C440 C441 1.391 . S
C441 C440 1.391 . S
C441 C442 1.392 . S
C441 H470 0.947 . S
C442 C441 1.392 . S
C442 C443 1.419 . S
C442 H471 0.948 . S
C443 C442 1.419 . S
C443 C444 1.391 . S
C443 C447 1.397 . S
C444 C439 1.391 . S
C444 C443 1.391 . S
C444 C445 1.399 . S
C445 C444 1.399 . S
C445 C446 1.396 . S
C445 C448 1.453 . S
C445 C449 1.684 . S
C446 C427 1.723 . S
C446 C445 1.396 . S
C446 C447 1.394 . S
C447 C443 1.397 . S
C447 C446 1.394 . S
C447 C457 1.723 . S
C448 C445 1.453 . S
C448 H472 0.982 . S
C448 H473 0.979 . S
C448 H474 0.977 . S
C449 C445 1.684 . S
C449 H475 0.979 . S
C449 H476 0.980 . S
C449 H477 0.983 . S
C450 H426 0.948 . S
C450 C451 1.391 . S
C450 C455 1.391 . S
C451 C450 1.391 . S
C451 C452 1.391 . S
C452 H429 0.947 . S
C452 C451 1.391 . S
C452 C453 1.392 . S
C453 H430 0.948 . S
C453 C452 1.392 . S
C453 C454 1.419 . S
C454 C453 1.419 . S
C454 C455 1.391 . S
C454 C458 1.397 . S
C455 C450 1.391 . S
C455 C454 1.391 . S
C455 C456 1.399 . S
C456 C455 1.399 . S
C456 C457 1.396 . S
C456 C459 1.453 . S
C456 C460 1.684 . S
C457 C447 1.723 . S
C457 C456 1.396 . S
C457 C458 1.394 . S
C458 C428 1.723 . S
C458 C454 1.397 . S
C458 C457 1.394 . S
C459 H431 0.982 . S
C459 H435 0.979 . S
C459 H436 0.977 . S
C459 C456 1.453 . S
C460 H432 0.979 . S
C460 H433 0.980 . S
C460 H434 0.983 . S
C460 C456 1.684 . S
H461 C479 0.948 . S
H462 C420 0.948 . S
H463 C438 0.979 . S
H464 C438 0.980 . S
H465 C438 0.983 . S
H466 C437 0.982 . S
H467 C437 0.979 . S
H468 C437 0.977 . S
H469 C439 0.948 . S
H470 C441 0.947 . S
H471 C442 0.948 . S
H472 C448 0.982 . S
H473 C448 0.979 . S
H474 C448 0.977 . S
H475 C449 0.979 . S
H476 C449 0.980 . S
H477 C449 0.983 . S
H478 C422 0.947 . S
C479 C422 1.392 . S
C479 C423 1.419 . S
C479 H461 0.948 . S
H480 C498 0.951 . S
H481 C500 0.951 . S
H482 C502 0.950 . S
H483 C503 0.950 . S
H484 C505 0.950 . S
H485 C508 0.950 . S
H486 C509 0.950 . S
H487 C511 0.950 . S
H488 C512 0.950 . S
H489 C513 0.951 . S
H490 C515 0.951 . S
H491 C517 0.950 . S
H492 C518 0.950 . S
H493 C520 0.950 . S
H494 C523 0.950 . S
H495 C524 0.950 . S
H496 C526 0.950 . S
H497 C527 0.950 . S
C498 H480 0.951 . S
C498 C499 1.366 . S
C498 C500 1.388 . S
C499 C498 1.366 . S
C499 C503 1.385 . S
C500 H481 0.951 . S
C500 C498 1.388 . S
C500 C501 1.366 . S
C501 C500 1.366 . S
C501 C502 1.414 . S
C501 C504 1.499 . S
C502 H482 0.950 . S
C502 C501 1.414 . S
C502 C503 1.374 . S
C503 H483 0.950 . S
C503 C499 1.385 . S
C503 C502 1.374 . S
C504 C501 1.499 . S
C504 C505 1.373 . S
C504 C506 1.389 . S
C505 H484 0.950 . S
C505 C504 1.373 . S
C505 C521 1.377 . S
C506 C504 1.389 . S
C506 C507 1.524 . S
C506 C520 1.377 . S
C507 C506 1.524 . S
C507 C508 1.397 . S
C507 C512 1.363 . S
C508 H485 0.950 . S
C508 C507 1.397 . S
C508 C509 1.334 . S
C509 H486 0.950 . S
C509 C508 1.334 . S
C509 C510 1.287 . S
C510 C509 1.287 . S
C510 C511 1.524 . S
C510 H529 0.913 . S
C511 H487 0.950 . S
C511 C510 1.524 . S
C511 C512 1.415 . S
C512 H488 0.950 . S
C512 C507 1.363 . S
C512 C511 1.415 . S
C513 H489 0.951 . S
C513 C514 1.366 . S
C513 C515 1.388 . S
C514 C513 1.366 . S
C514 C518 1.385 . S
C515 H490 0.951 . S
C515 C513 1.388 . S
C515 C516 1.366 . S
C516 C515 1.366 . S
C516 C517 1.414 . S
C516 C519 1.499 . S
C517 H491 0.950 . S
C517 C516 1.414 . S
C517 C518 1.374 . S
C518 H492 0.950 . S
C518 C514 1.385 . S
C518 C517 1.374 . S
C519 C516 1.499 . S
C519 C520 1.373 . S
C519 C521 1.389 . S
C520 H493 0.950 . S
C520 C506 1.377 . S
C520 C519 1.373 . S
C521 C505 1.377 . S
C521 C519 1.389 . S
C521 C522 1.524 . S
C522 C521 1.524 . S
C522 C523 1.397 . S
C522 C527 1.363 . S
C523 H494 0.950 . S
C523 C522 1.397 . S
C523 C524 1.334 . S
C524 H495 0.950 . S
C524 C523 1.334 . S
C524 C525 1.287 . S
C525 C524 1.287 . S
C525 C526 1.524 . S
C525 H528 0.999 . S
C526 H496 0.950 . S
C526 C525 1.524 . S
C526 C527 1.415 . S
C527 H497 0.950 . S
C527 C522 1.363 . S
C527 C526 1.415 . S
H528 C525 0.999 . S
H529 C510 0.913 . S
H530 C548 0.951 . S
H531 C550 0.951 . S
H532 C552 0.950 . S
H533 C553 0.950 . S
H534 C555 0.950 . S
H535 C558 0.950 . S
H536 C559 0.950 . S
H537 C561 0.950 . S
H538 C562 0.950 . S
H539 C563 0.951 . S
H540 C565 0.951 . S
H541 C567 0.950 . S
H542 C568 0.950 . S
H543 C570 0.950 . S
H544 C573 0.950 . S
H545 C574 0.950 . S
H546 C576 0.950 . S
H547 C577 0.950 . S
C548 H530 0.951 . S
C548 C549 1.366 . S
C548 C550 1.388 . S
C549 C548 1.366 . S
C549 C553 1.385 . S
C550 H531 0.951 . S
C550 C548 1.388 . S
C550 C551 1.366 . S
C551 C550 1.366 . S
C551 C552 1.414 . S
C551 C554 1.499 . S
C552 H532 0.950 . S
C552 C551 1.414 . S
C552 C553 1.374 . S
C553 H533 0.950 . S
C553 C549 1.385 . S
C553 C552 1.374 . S
C554 C551 1.499 . S
C554 C555 1.373 . S
C554 C556 1.389 . S
C555 H534 0.950 . S
C555 C554 1.373 . S
C555 C571 1.377 . S
C556 C554 1.389 . S
C556 C557 1.524 . S
C556 C570 1.377 . S
C557 C556 1.524 . S
C557 C558 1.397 . S
C557 C562 1.363 . S
C558 H535 0.950 . S
C558 C557 1.397 . S
C558 C559 1.334 . S
C559 H536 0.950 . S
C559 C558 1.334 . S
C559 C560 1.287 . S
C560 C559 1.287 . S
C560 C561 1.524 . S
C560 H579 0.913 . S
C561 H537 0.950 . S
C561 C560 1.524 . S
C561 C562 1.415 . S
C562 H538 0.950 . S
C562 C557 1.363 . S
C562 C561 1.415 . S
C563 H539 0.951 . S
C563 C564 1.366 . S
C563 C565 1.388 . S
C564 C563 1.366 . S
C564 C568 1.385 . S
C565 H540 0.951 . S
C565 C563 1.388 . S
C565 C566 1.366 . S
C566 C565 1.366 . S
C566 C567 1.414 . S
C566 C569 1.499 . S
C567 H541 0.950 . S
C567 C566 1.414 . S
C567 C568 1.374 . S
C568 H542 0.950 . S
C568 C564 1.385 . S
C568 C567 1.374 . S
C569 C566 1.499 . S
C569 C570 1.373 . S
C569 C571 1.389 . S
C570 H543 0.950 . S
C570 C556 1.377 . S
C570 C569 1.373 . S
C571 C555 1.377 . S
C571 C569 1.389 . S
C571 C572 1.524 . S
C572 C571 1.524 . S
C572 C573 1.397 . S
C572 C577 1.363 . S
C573 H544 0.950 . S
C573 C572 1.397 . S
C573 C574 1.334 . S
C574 H545 0.950 . S
C574 C573 1.334 . S
C574 C575 1.287 . S
C575 C574 1.287 . S
C575 C576 1.524 . S
C575 H578 0.999 . S
C576 H546 0.950 . S
C576 C575 1.524 . S
C576 C577 1.415 . S
C577 H547 0.950 . S
C577 C572 1.363 . S
C577 C576 1.415 . S
H578 C575 0.999 . S
H579 C560 0.913 . S
H580 C598 0.951 . S
H581 C600 0.951 . S
H582 C602 0.950 . S
H583 C603 0.950 . S
H584 C605 0.950 . S
H585 C608 0.950 . S
H586 C609 0.950 . S
H587 C611 0.950 . S
H588 C612 0.950 . S
H589 C613 0.951 . S
H590 C615 0.951 . S
H591 C617 0.950 . S
H592 C618 0.950 . S
H593 C620 0.950 . S
H594 C623 0.950 . S
H595 C624 0.950 . S
H596 C626 0.950 . S
H597 C627 0.950 . S
C598 H580 0.951 . S
C598 C599 1.366 . S
C598 C600 1.388 . S
C599 C598 1.366 . S
C599 C603 1.385 . S
C600 H581 0.951 . S
C600 C598 1.388 . S
C600 C601 1.366 . S
C601 C600 1.366 . S
C601 C602 1.414 . S
C601 C604 1.499 . S
C602 H582 0.950 . S
C602 C601 1.414 . S
C602 C603 1.374 . S
C603 H583 0.950 . S
C603 C599 1.385 . S
C603 C602 1.374 . S
C604 C601 1.499 . S
C604 C605 1.373 . S
C604 C606 1.389 . S
C605 H584 0.950 . S
C605 C604 1.373 . S
C605 C621 1.377 . S
C606 C604 1.389 . S
C606 C607 1.524 . S
C606 C620 1.377 . S
C607 C606 1.524 . S
C607 C608 1.397 . S
C607 C612 1.363 . S
C608 H585 0.950 . S
C608 C607 1.397 . S
C608 C609 1.334 . S
C609 H586 0.950 . S
C609 C608 1.334 . S
C609 C610 1.287 . S
C610 C609 1.287 . S
C610 C611 1.524 . S
C610 H629 0.913 . S
C611 H587 0.950 . S
C611 C610 1.524 . S
C611 C612 1.415 . S
C612 H588 0.950 . S
C612 C607 1.363 . S
C612 C611 1.415 . S
C613 H589 0.951 . S
C613 C614 1.366 . S
C613 C615 1.388 . S
C614 C613 1.366 . S
C614 C618 1.385 . S
C615 H590 0.951 . S
C615 C613 1.388 . S
C615 C616 1.366 . S
C616 C615 1.366 . S
C616 C617 1.414 . S
C616 C619 1.499 . S
C617 H591 0.950 . S
C617 C616 1.414 . S
C617 C618 1.374 . S
C618 H592 0.950 . S
C618 C614 1.385 . S
C618 C617 1.374 . S
C619 C616 1.499 . S
C619 C620 1.373 . S
C619 C621 1.389 . S
C620 H593 0.950 . S
C620 C606 1.377 . S
C620 C619 1.373 . S
C621 C605 1.377 . S
C621 C619 1.389 . S
C621 C622 1.524 . S
C622 C621 1.524 . S
C622 C623 1.397 . S
C622 C627 1.363 . S
C623 H594 0.950 . S
C623 C622 1.397 . S
C623 C624 1.334 . S
C624 H595 0.950 . S
C624 C623 1.334 . S
C624 C625 1.287 . S
C625 C624 1.287 . S
C625 C626 1.524 . S
C625 H628 0.999 . S
C626 H596 0.950 . S
C626 C625 1.524 . S
C626 C627 1.415 . S
C627 H597 0.950 . S
C627 C622 1.363 . S
C627 C626 1.415 . S
H628 C625 0.999 . S
H629 C610 0.913 . S
H630 C648 0.951 . S
H631 C650 0.951 . S
H632 C652 0.950 . S
H633 C653 0.950 . S
H634 C655 0.950 . S
H635 C658 0.950 . S
H636 C659 0.950 . S
H637 C661 0.950 . S
H638 C662 0.950 . S
H639 C663 0.951 . S
H640 C665 0.951 . S
H641 C667 0.950 . S
H642 C668 0.950 . S
H643 C670 0.950 . S
H644 C673 0.950 . S
H645 C674 0.950 . S
H646 C676 0.950 . S
H647 C677 0.950 . S
C648 H630 0.951 . S
C648 C649 1.366 . S
C648 C650 1.388 . S
C649 C648 1.366 . S
C649 C653 1.385 . S
C650 H631 0.951 . S
C650 C648 1.388 . S
C650 C651 1.366 . S
C651 C650 1.366 . S
C651 C652 1.414 . S
C651 C654 1.499 . S
C652 H632 0.950 . S
C652 C651 1.414 . S
C652 C653 1.374 . S
C653 H633 0.950 . S
C653 C649 1.385 . S
C653 C652 1.374 . S
C654 C651 1.499 . S
C654 C655 1.373 . S
C654 C656 1.389 . S
C655 H634 0.950 . S
C655 C654 1.373 . S
C655 C671 1.377 . S
C656 C654 1.389 . S
C656 C657 1.524 . S
C656 C670 1.377 . S
C657 C656 1.524 . S
C657 C658 1.397 . S
C657 C662 1.363 . S
C658 H635 0.950 . S
C658 C657 1.397 . S
C658 C659 1.334 . S
C659 H636 0.950 . S
C659 C658 1.334 . S
C659 C660 1.287 . S
C660 C659 1.287 . S
C660 C661 1.524 . S
C660 H679 0.913 . S
C661 H637 0.950 . S
C661 C660 1.524 . S
C661 C662 1.415 . S
C662 H638 0.950 . S
C662 C657 1.363 . S
C662 C661 1.415 . S
C663 H639 0.951 . S
C663 C664 1.366 . S
C663 C665 1.388 . S
C664 C663 1.366 . S
C664 C668 1.385 . S
C665 H640 0.951 . S
C665 C663 1.388 . S
C665 C666 1.366 . S
C666 C665 1.366 . S
C666 C667 1.414 . S
C666 C669 1.499 . S
C667 H641 0.950 . S
C667 C666 1.414 . S
C667 C668 1.374 . S
C668 H642 0.950 . S
C668 C664 1.385 . S
C668 C667 1.374 . S
C669 C666 1.499 . S
C669 C670 1.373 . S
C669 C671 1.389 . S
C670 H643 0.950 . S
C670 C656 1.377 . S
C670 C669 1.373 . S
C671 C655 1.377 . S
C671 C669 1.389 . S
C671 C672 1.524 . S
C672 C671 1.524 . S
C672 C673 1.397 . S
C672 C677 1.363 . S
C673 H644 0.950 . S
C673 C672 1.397 . S
C673 C674 1.334 . S
C674 H645 0.950 . S
C674 C673 1.334 . S
C674 C675 1.287 . S
C675 C674 1.287 . S
C675 C676 1.524 . S
C675 H678 0.999 . S
C676 H646 0.950 . S
C676 C675 1.524 . S
C676 C677 1.415 . S
C677 H647 0.950 . S
C677 C672 1.363 . S
C677 C676 1.415 . S
H678 C675 0.999 . S
H679 C660 0.913 . S
H680 C698 0.951 . S
H681 C700 0.951 . S
H682 C702 0.950 . S
H683 C703 0.950 . S
H684 C705 0.950 . S
H685 C708 0.950 . S
H686 C709 0.950 . S
H687 C711 0.950 . S
H688 C712 0.950 . S
H689 C713 0.951 . S
H690 C715 0.951 . S
H691 C717 0.950 . S
H692 C718 0.950 . S
H693 C720 0.950 . S
H694 C723 0.950 . S
H695 C724 0.950 . S
H696 C726 0.950 . S
H697 C727 0.950 . S
C698 H680 0.951 . S
C698 C699 1.366 . S
C698 C700 1.388 . S
C699 C698 1.366 . S
C699 C703 1.385 . S
C700 H681 0.951 . S
C700 C698 1.388 . S
C700 C701 1.366 . S
C701 C700 1.366 . S
C701 C702 1.414 . S
C701 C704 1.499 . S
C702 H682 0.950 . S
C702 C701 1.414 . S
C702 C703 1.374 . S
C703 H683 0.950 . S
C703 C699 1.385 . S
C703 C702 1.374 . S
C704 C701 1.499 . S
C704 C705 1.373 . S
C704 C706 1.389 . S
C705 H684 0.950 . S
C705 C704 1.373 . S
C705 C721 1.377 . S
C706 C704 1.389 . S
C706 C707 1.524 . S
C706 C720 1.377 . S
C707 C706 1.524 . S
C707 C708 1.397 . S
C707 C712 1.363 . S
C708 H685 0.950 . S
C708 C707 1.397 . S
C708 C709 1.334 . S
C709 H686 0.950 . S
C709 C708 1.334 . S
C709 C710 1.287 . S
C710 C709 1.287 . S
C710 C711 1.524 . S
C710 H729 0.913 . S
C711 H687 0.950 . S
C711 C710 1.524 . S
C711 C712 1.415 . S
C712 H688 0.950 . S
C712 C707 1.363 . S
C712 C711 1.415 . S
C713 H689 0.951 . S
C713 C714 1.366 . S
C713 C715 1.388 . S
C714 C713 1.366 . S
C714 C718 1.385 . S
C715 H690 0.951 . S
C715 C713 1.388 . S
C715 C716 1.366 . S
C716 C715 1.366 . S
C716 C717 1.414 . S
C716 C719 1.499 . S
C717 H691 0.950 . S
C717 C716 1.414 . S
C717 C718 1.374 . S
C718 H692 0.950 . S
C718 C714 1.385 . S
C718 C717 1.374 . S
C719 C716 1.499 . S
C719 C720 1.373 . S
C719 C721 1.389 . S
C720 H693 0.950 . S
C720 C706 1.377 . S
C720 C719 1.373 . S
C721 C705 1.377 . S
C721 C719 1.389 . S
C721 C722 1.524 . S
C722 C721 1.524 . S
C722 C723 1.397 . S
C722 C727 1.363 . S
C723 H694 0.950 . S
C723 C722 1.397 . S
C723 C724 1.334 . S
C724 H695 0.950 . S
C724 C723 1.334 . S
C724 C725 1.287 . S
C725 C724 1.287 . S
C725 C726 1.524 . S
C725 H728 0.999 . S
C726 H696 0.950 . S
C726 C725 1.524 . S
C726 C727 1.415 . S
C727 H697 0.950 . S
C727 C722 1.363 . S
C727 C726 1.415 . S
H728 C725 0.999 . S
H729 C710 0.913 . S
H730 C748 0.951 . S
H731 C750 0.951 . S
H732 C752 0.950 . S
H733 C753 0.950 . S
H734 C755 0.950 . S
H735 C758 0.950 . S
H736 C759 0.950 . S
H737 C761 0.950 . S
H738 C762 0.950 . S
H739 C763 0.951 . S
H740 C765 0.951 . S
H741 C767 0.950 . S
H742 C768 0.950 . S
H743 C770 0.950 . S
H744 C773 0.950 . S
H745 C774 0.950 . S
H746 C776 0.950 . S
H747 C777 0.950 . S
C748 H730 0.951 . S
C748 C749 1.366 . S
C748 C750 1.388 . S
C749 C748 1.366 . S
C749 C753 1.385 . S
C750 H731 0.951 . S
C750 C748 1.388 . S
C750 C751 1.366 . S
C751 C750 1.366 . S
C751 C752 1.414 . S
C751 C754 1.499 . S
C752 H732 0.950 . S
C752 C751 1.414 . S
C752 C753 1.374 . S
C753 H733 0.950 . S
C753 C749 1.385 . S
C753 C752 1.374 . S
C754 C751 1.499 . S
C754 C755 1.373 . S
C754 C756 1.389 . S
C755 H734 0.950 . S
C755 C754 1.373 . S
C755 C771 1.377 . S
C756 C754 1.389 . S
C756 C757 1.524 . S
C756 C770 1.377 . S
C757 C756 1.524 . S
C757 C758 1.397 . S
C757 C762 1.363 . S
C758 H735 0.950 . S
C758 C757 1.397 . S
C758 C759 1.334 . S
C759 H736 0.950 . S
C759 C758 1.334 . S
C759 C760 1.287 . S
C760 C759 1.287 . S
C760 C761 1.524 . S
C760 H779 0.913 . S
C761 H737 0.950 . S
C761 C760 1.524 . S
C761 C762 1.415 . S
C762 H738 0.950 . S
C762 C757 1.363 . S
C762 C761 1.415 . S
C763 H739 0.951 . S
C763 C764 1.366 . S
C763 C765 1.388 . S
C764 C763 1.366 . S
C764 C768 1.385 . S
C765 H740 0.951 . S
C765 C763 1.388 . S
C765 C766 1.366 . S
C766 C765 1.366 . S
C766 C767 1.414 . S
C766 C769 1.499 . S
C767 H741 0.950 . S
C767 C766 1.414 . S
C767 C768 1.374 . S
C768 H742 0.950 . S
C768 C764 1.385 . S
C768 C767 1.374 . S
C769 C766 1.499 . S
C769 C770 1.373 . S
C769 C771 1.389 . S
C770 H743 0.950 . S
C770 C756 1.377 . S
C770 C769 1.373 . S
C771 C755 1.377 . S
C771 C769 1.389 . S
C771 C772 1.524 . S
C772 C771 1.524 . S
C772 C773 1.397 . S
C772 C777 1.363 . S
C773 H744 0.950 . S
C773 C772 1.397 . S
C773 C774 1.334 . S
C774 H745 0.950 . S
C774 C773 1.334 . S
C774 C775 1.287 . S
C775 C774 1.287 . S
C775 C776 1.524 . S
C775 H778 0.999 . S
C776 H746 0.950 . S
C776 C775 1.524 . S
C776 C777 1.415 . S
C777 H747 0.950 . S
C777 C772 1.363 . S
C777 C776 1.415 . S
H778 C775 0.999 . S
H779 C760 0.913 . S
H780 C798 0.951 . S
H781 C800 0.951 . S
H782 C802 0.950 . S
H783 C803 0.950 . S
H784 C805 0.950 . S
H785 C808 0.950 . S
H786 C809 0.950 . S
H787 C811 0.950 . S
H788 C812 0.950 . S
H789 C813 0.951 . S
H790 C815 0.951 . S
H791 C817 0.950 . S
H792 C818 0.950 . S
H793 C820 0.950 . S
H794 C823 0.950 . S
H795 C824 0.950 . S
H796 C826 0.950 . S
H797 C827 0.950 . S
C798 H780 0.951 . S
C798 C799 1.366 . S
C798 C800 1.388 . S
C799 C798 1.366 . S
C799 C803 1.385 . S
C800 H781 0.951 . S
C800 C798 1.388 . S
C800 C801 1.366 . S
C801 C800 1.366 . S
C801 C802 1.414 . S
C801 C804 1.499 . S
C802 H782 0.950 . S
C802 C801 1.414 . S
C802 C803 1.374 . S
C803 H783 0.950 . S
C803 C799 1.385 . S
C803 C802 1.374 . S
C804 C801 1.499 . S
C804 C805 1.373 . S
C804 C806 1.389 . S
C805 H784 0.950 . S
C805 C804 1.373 . S
C805 C821 1.377 . S
C806 C804 1.389 . S
C806 C807 1.524 . S
C806 C820 1.377 . S
C807 C806 1.524 . S
C807 C808 1.397 . S
C807 C812 1.363 . S
C808 H785 0.950 . S
C808 C807 1.397 . S
C808 C809 1.334 . S
C809 H786 0.950 . S
C809 C808 1.334 . S
C809 C810 1.287 . S
C810 C809 1.287 . S
C810 C811 1.524 . S
C810 H829 0.913 . S
C811 H787 0.950 . S
C811 C810 1.524 . S
C811 C812 1.415 . S
C812 H788 0.950 . S
C812 C807 1.363 . S
C812 C811 1.415 . S
C813 H789 0.951 . S
C813 C814 1.366 . S
C813 C815 1.388 . S
C814 C813 1.366 . S
C814 C818 1.385 . S
C815 H790 0.951 . S
C815 C813 1.388 . S
C815 C816 1.366 . S
C816 C815 1.366 . S
C816 C817 1.414 . S
C816 C819 1.499 . S
C817 H791 0.950 . S
C817 C816 1.414 . S
C817 C818 1.374 . S
C818 H792 0.950 . S
C818 C814 1.385 . S
C818 C817 1.374 . S
C819 C816 1.499 . S
C819 C820 1.373 . S
C819 C821 1.389 . S
C820 H793 0.950 . S
C820 C806 1.377 . S
C820 C819 1.373 . S
C821 C805 1.377 . S
C821 C819 1.389 . S
C821 C822 1.524 . S
C822 C821 1.524 . S
C822 C823 1.397 . S
C822 C827 1.363 . S
C823 H794 0.950 . S
C823 C822 1.397 . S
C823 C824 1.334 . S
C824 H795 0.950 . S
C824 C823 1.334 . S
C824 C825 1.287 . S
C825 C824 1.287 . S
C825 C826 1.524 . S
C825 H828 0.999 . S
C826 H796 0.950 . S
C826 C825 1.524 . S
C826 C827 1.415 . S
C827 H797 0.950 . S
C827 C822 1.363 . S
C827 C826 1.415 . S
H828 C825 0.999 . S
H829 C810 0.913 . S
H830 C848 0.951 . S
H831 C850 0.951 . S
H832 C852 0.950 . S
H833 C853 0.950 . S
H834 C855 0.950 . S
H835 C858 0.950 . S
H836 C859 0.950 . S
H837 C861 0.950 . S
H838 C862 0.950 . S
H839 C863 0.951 . S
H840 C865 0.951 . S
H841 C867 0.950 . S
H842 C868 0.950 . S
H843 C870 0.950 . S
H844 C873 0.950 . S
H845 C874 0.950 . S
H846 C876 0.950 . S
H847 C877 0.950 . S
C848 H830 0.951 . S
C848 C849 1.366 . S
C848 C850 1.388 . S
C849 C848 1.366 . S
C849 C853 1.385 . S
C850 H831 0.951 . S
C850 C848 1.388 . S
C850 C851 1.366 . S
C851 C850 1.366 . S
C851 C852 1.414 . S
C851 C854 1.499 . S
C852 H832 0.950 . S
C852 C851 1.414 . S
C852 C853 1.374 . S
C853 H833 0.950 . S
C853 C849 1.385 . S
C853 C852 1.374 . S
C854 C851 1.499 . S
C854 C855 1.373 . S
C854 C856 1.389 . S
C855 H834 0.950 . S
C855 C854 1.373 . S
C855 C871 1.377 . S
C856 C854 1.389 . S
C856 C857 1.524 . S
C856 C870 1.377 . S
C857 C856 1.524 . S
C857 C858 1.397 . S
C857 C862 1.363 . S
C858 H835 0.950 . S
C858 C857 1.397 . S
C858 C859 1.334 . S
C859 H836 0.950 . S
C859 C858 1.334 . S
C859 C860 1.287 . S
C860 C859 1.287 . S
C860 C861 1.524 . S
C860 H879 0.913 . S
C861 H837 0.950 . S
C861 C860 1.524 . S
C861 C862 1.415 . S
C862 H838 0.950 . S
C862 C857 1.363 . S
C862 C861 1.415 . S
C863 H839 0.951 . S
C863 C864 1.366 . S
C863 C865 1.388 . S
C864 C863 1.366 . S
C864 C868 1.385 . S
C865 H840 0.951 . S
C865 C863 1.388 . S
C865 C866 1.366 . S
C866 C865 1.366 . S
C866 C867 1.414 . S
C866 C869 1.499 . S
C867 H841 0.950 . S
C867 C866 1.414 . S
C867 C868 1.374 . S
C868 H842 0.950 . S
C868 C864 1.385 . S
C868 C867 1.374 . S
C869 C866 1.499 . S
C869 C870 1.373 . S
C869 C871 1.389 . S
C870 H843 0.950 . S
C870 C856 1.377 . S
C870 C869 1.373 . S
C871 C855 1.377 . S
C871 C869 1.389 . S
C871 C872 1.524 . S
C872 C871 1.524 . S
C872 C873 1.397 . S
C872 C877 1.363 . S
C873 H844 0.950 . S
C873 C872 1.397 . S
C873 C874 1.334 . S
C874 H845 0.950 . S
C874 C873 1.334 . S
C874 C875 1.287 . S
C875 C874 1.287 . S
C875 C876 1.524 . S
C875 H878 0.999 . S
C876 H846 0.950 . S
C876 C875 1.524 . S
C876 C877 1.415 . S
C877 H847 0.950 . S
C877 C872 1.363 . S
C877 C876 1.415 . S
H878 C875 0.999 . S
H879 C860 0.913 . S
H880 C898 0.951 . S
H881 C900 0.951 . S
H882 C902 0.950 . S
H883 C903 0.950 . S
H884 C905 0.950 . S
H885 C908 0.950 . S
H886 C909 0.950 . S
H887 C911 0.950 . S
H888 C912 0.950 . S
H889 C913 0.951 . S
H890 C915 0.951 . S
H891 C917 0.950 . S
H892 C918 0.950 . S
H893 C920 0.950 . S
H894 C923 0.950 . S
H895 C924 0.950 . S
H896 C926 0.950 . S
H897 C927 0.950 . S
C898 H880 0.951 . S
C898 C899 1.366 . S
C898 C900 1.388 . S
C899 C898 1.366 . S
C899 C903 1.385 . S
C900 H881 0.951 . S
C900 C898 1.388 . S
C900 C901 1.366 . S
C901 C900 1.366 . S
C901 C902 1.414 . S
C901 C904 1.499 . S
C902 H882 0.950 . S
C902 C901 1.414 . S
C902 C903 1.374 . S
C903 H883 0.950 . S
C903 C899 1.385 . S
C903 C902 1.374 . S
C904 C901 1.499 . S
C904 C905 1.373 . S
C904 C906 1.389 . S
C905 H884 0.950 . S
C905 C904 1.373 . S
C905 C921 1.377 . S
C906 C904 1.389 . S
C906 C907 1.524 . S
C906 C920 1.377 . S
C907 C906 1.524 . S
C907 C908 1.397 . S
C907 C912 1.363 . S
C908 H885 0.950 . S
C908 C907 1.397 . S
C908 C909 1.334 . S
C909 H886 0.950 . S
C909 C908 1.334 . S
C909 C910 1.287 . S
C910 C909 1.287 . S
C910 C911 1.524 . S
C910 H929 0.913 . S
C911 H887 0.950 . S
C911 C910 1.524 . S
C911 C912 1.415 . S
C912 H888 0.950 . S
C912 C907 1.363 . S
C912 C911 1.415 . S
C913 H889 0.951 . S
C913 C914 1.366 . S
C913 C915 1.388 . S
C914 C913 1.366 . S
C914 C918 1.385 . S
C915 H890 0.951 . S
C915 C913 1.388 . S
C915 C916 1.366 . S
C916 C915 1.366 . S
C916 C917 1.414 . S
C916 C919 1.499 . S
C917 H891 0.950 . S
C917 C916 1.414 . S
C917 C918 1.374 . S
C918 H892 0.950 . S
C918 C914 1.385 . S
C918 C917 1.374 . S
C919 C916 1.499 . S
C919 C920 1.373 . S
C919 C921 1.389 . S
C920 H893 0.950 . S
C920 C906 1.377 . S
C920 C919 1.373 . S
C921 C905 1.377 . S
C921 C919 1.389 . S
C921 C922 1.524 . S
C922 C921 1.524 . S
C922 C923 1.397 . S
C922 C927 1.363 . S
C923 H894 0.950 . S
C923 C922 1.397 . S
C923 C924 1.334 . S
C924 H895 0.950 . S
C924 C923 1.334 . S
C924 C925 1.287 . S
C925 C924 1.287 . S
C925 C926 1.524 . S
C925 H928 0.999 . S
C926 H896 0.950 . S
C926 C925 1.524 . S
C926 C927 1.415 . S
C927 H897 0.950 . S
C927 C922 1.363 . S
C927 C926 1.415 . S
H928 C925 0.999 . S
H929 C910 0.913 . S
H930 C948 0.951 . S
H931 C950 0.951 . S
H932 C952 0.950 . S
H933 C953 0.950 . S
H934 C955 0.950 . S
H935 C958 0.950 . S
H936 C959 0.950 . S
H937 C961 0.950 . S
H938 C962 0.950 . S
H939 C963 0.951 . S
H940 C965 0.951 . S
H941 C967 0.950 . S
H942 C968 0.950 . S
H943 C970 0.950 . S
H944 C973 0.950 . S
H945 C974 0.950 . S
H946 C976 0.950 . S
H947 C977 0.950 . S
C948 H930 0.951 . S
C948 C949 1.366 . S
C948 C950 1.388 . S
C949 C948 1.366 . S
C949 C953 1.385 . S
C950 H931 0.951 . S
C950 C948 1.388 . S
C950 C951 1.366 . S
C951 C950 1.366 . S
C951 C952 1.414 . S
C951 C954 1.499 . S
C952 H932 0.950 . S
C952 C951 1.414 . S
C952 C953 1.374 . S
C953 H933 0.950 . S
C953 C949 1.385 . S
C953 C952 1.374 . S
C954 C951 1.499 . S
C954 C955 1.373 . S
C954 C956 1.389 . S
C955 H934 0.950 . S
C955 C954 1.373 . S
C955 C971 1.377 . S
C956 C954 1.389 . S
C956 C957 1.524 . S
C956 C970 1.377 . S
C957 C956 1.524 . S
C957 C958 1.397 . S
C957 C962 1.363 . S
C958 H935 0.950 . S
C958 C957 1.397 . S
C958 C959 1.334 . S
C959 H936 0.950 . S
C959 C958 1.334 . S
C959 C960 1.287 . S
C960 C959 1.287 . S
C960 C961 1.524 . S
C960 H979 0.913 . S
C961 H937 0.950 . S
C961 C960 1.524 . S
C961 C962 1.415 . S
C962 H938 0.950 . S
C962 C957 1.363 . S
C962 C961 1.415 . S
C963 H939 0.951 . S
C963 C964 1.366 . S
C963 C965 1.388 . S
C964 C963 1.366 . S
C964 C968 1.385 . S
C965 H940 0.951 . S
C965 C963 1.388 . S
C965 C966 1.366 . S
C966 C965 1.366 . S
C966 C967 1.414 . S
C966 C969 1.499 . S
C967 H941 0.950 . S
C967 C966 1.414 . S
C967 C968 1.374 . S
C968 H942 0.950 . S
C968 C964 1.385 . S
C968 C967 1.374 . S
C969 C966 1.499 . S
C969 C970 1.373 . S
C969 C971 1.389 . S
C970 H943 0.950 . S
C970 C956 1.377 . S
C970 C969 1.373 . S
C971 C955 1.377 . S
C971 C969 1.389 . S
C971 C972 1.524 . S
C972 C971 1.524 . S
C972 C973 1.397 . S
C972 C977 1.363 . S
C973 H944 0.950 . S
C973 C972 1.397 . S
C973 C974 1.334 . S
C974 H945 0.950 . S
C974 C973 1.334 . S
C974 C975 1.287 . S
C975 C974 1.287 . S
C975 C976 1.524 . S
C975 H978 0.999 . S
C976 H946 0.950 . S
C976 C975 1.524 . S
C976 C977 1.415 . S
C977 H947 0.950 . S
C977 C972 1.363 . S
C977 C976 1.415 . S
H978 C975 0.999 . S
H979 C960 0.913 . S
H980 C998 0.951 . S
H981 C1000 0.951 . S
H982 C1002 0.950 . S
H983 C1003 0.950 . S
H984 C1005 0.950 . S
H985 C1008 0.950 . S
H986 C1009 0.950 . S
H987 C1011 0.950 . S
H988 C1012 0.950 . S
H989 C1013 0.951 . S
H990 C1015 0.951 . S
H991 C1017 0.950 . S
H992 C1018 0.950 . S
H993 C1020 0.950 . S
H994 C1023 0.950 . S
H995 C1024 0.950 . S
H996 C1026 0.950 . S
H997 C1027 0.950 . S
C998 H980 0.951 . S
C998 C999 1.366 . S
C998 C1000 1.388 . S
C999 C998 1.366 . S
C999 C1003 1.385 . S
C1000 H981 0.951 . S
C1000 C998 1.388 . S
C1000 C1001 1.366 . S
C1001 C1000 1.366 . S
C1001 C1002 1.414 . S
C1001 C1004 1.499 . S
C1002 H982 0.950 . S
C1002 C1001 1.414 . S
C1002 C1003 1.374 . S
C1003 H983 0.950 . S
C1003 C999 1.385 . S
C1003 C1002 1.374 . S
C1004 C1001 1.499 . S
C1004 C1005 1.373 . S
C1004 C1006 1.389 . S
C1005 H984 0.950 . S
C1005 C1004 1.373 . S
C1005 C1021 1.377 . S
C1006 C1004 1.389 . S
C1006 C1007 1.524 . S
C1006 C1020 1.377 . S
C1007 C1006 1.524 . S
C1007 C1008 1.397 . S
C1007 C1012 1.363 . S
C1008 H985 0.950 . S
C1008 C1007 1.397 . S
C1008 C1009 1.334 . S
C1009 H986 0.950 . S
C1009 C1008 1.334 . S
C1009 C1010 1.287 . S
C1010 C1009 1.287 . S
C1010 C1011 1.524 . S
C1010 H1029 0.913 . S
C1011 H987 0.950 . S
C1011 C1010 1.524 . S
C1011 C1012 1.415 . S
C1012 H988 0.950 . S
C1012 C1007 1.363 . S
C1012 C1011 1.415 . S
C1013 H989 0.951 . S
C1013 C1014 1.366 . S
C1013 C1015 1.388 . S
C1014 C1013 1.366 . S
C1014 C1018 1.385 . S
C1015 H990 0.951 . S
C1015 C1013 1.388 . S
C1015 C1016 1.366 . S
C1016 C1015 1.366 . S
C1016 C1017 1.414 . S
C1016 C1019 1.499 . S
C1017 H991 0.950 . S
C1017 C1016 1.414 . S
C1017 C1018 1.374 . S
C1018 H992 0.950 . S
C1018 C1014 1.385 . S
C1018 C1017 1.374 . S
C1019 C1016 1.499 . S
C1019 C1020 1.373 . S
C1019 C1021 1.389 . S
C1020 H993 0.950 . S
C1020 C1006 1.377 . S
C1020 C1019 1.373 . S
C1021 C1005 1.377 . S
C1021 C1019 1.389 . S
C1021 C1022 1.524 . S
C1022 C1021 1.524 . S
C1022 C1023 1.397 . S
C1022 C1027 1.363 . S
C1023 H994 0.950 . S
C1023 C1022 1.397 . S
C1023 C1024 1.334 . S
C1024 H995 0.950 . S
C1024 C1023 1.334 . S
C1024 C1025 1.287 . S
C1025 C1024 1.287 . S
C1025 C1026 1.524 . S
C1025 H1028 0.999 . S
C1026 H996 0.950 . S
C1026 C1025 1.524 . S
C1026 C1027 1.415 . S
C1027 H997 0.950 . S
C1027 C1022 1.363 . S
C1027 C1026 1.415 . S
H1028 C1025 0.999 . S
H1029 C1010 0.913 . S
H1030 C1048 0.951 . S
H1031 C1050 0.951 . S
H1032 C1052 0.950 . S
H1033 C1053 0.950 . S
H1034 C1055 0.950 . S
H1035 C1058 0.950 . S
H1036 C1059 0.950 . S
H1037 C1061 0.950 . S
H1038 C1062 0.950 . S
H1039 C1063 0.951 . S
H1040 C1065 0.951 . S
H1041 C1067 0.950 . S
H1042 C1068 0.950 . S
H1043 C1070 0.950 . S
H1044 C1073 0.950 . S
H1045 C1074 0.950 . S
H1046 C1076 0.950 . S
H1047 C1077 0.950 . S
C1048 H1030 0.951 . S
C1048 C1049 1.366 . S
C1048 C1050 1.388 . S
C1049 C1048 1.366 . S
C1049 C1053 1.385 . S
C1050 H1031 0.951 . S
C1050 C1048 1.388 . S
C1050 C1051 1.366 . S
C1051 C1050 1.366 . S
C1051 C1052 1.414 . S
C1051 C1054 1.499 . S
C1052 H1032 0.950 . S
C1052 C1051 1.414 . S
C1052 C1053 1.374 . S
C1053 H1033 0.950 . S
C1053 C1049 1.385 . S
C1053 C1052 1.374 . S
C1054 C1051 1.499 . S
C1054 C1055 1.373 . S
C1054 C1056 1.389 . S
C1055 H1034 0.950 . S
C1055 C1054 1.373 . S
C1055 C1071 1.377 . S
C1056 C1054 1.389 . S
C1056 C1057 1.524 . S
C1056 C1070 1.377 . S
C1057 C1056 1.524 . S
C1057 C1058 1.397 . S
C1057 C1062 1.363 . S
C1058 H1035 0.950 . S
C1058 C1057 1.397 . S
C1058 C1059 1.334 . S
C1059 H1036 0.950 . S
C1059 C1058 1.334 . S
C1059 C1060 1.287 . S
C1060 C1059 1.287 . S
C1060 C1061 1.524 . S
C1060 H1079 0.913 . S
C1061 H1037 0.950 . S
C1061 C1060 1.524 . S
C1061 C1062 1.415 . S
C1062 H1038 0.950 . S
C1062 C1057 1.363 . S
C1062 C1061 1.415 . S
C1063 H1039 0.951 . S
C1063 C1064 1.366 . S
C1063 C1065 1.388 . S
C1064 C1063 1.366 . S
C1064 C1068 1.385 . S
C1065 H1040 0.951 . S
C1065 C1063 1.388 . S
C1065 C1066 1.366 . S
C1066 C1065 1.366 . S
C1066 C1067 1.414 . S
C1066 C1069 1.499 . S
C1067 H1041 0.950 . S
C1067 C1066 1.414 . S
C1067 C1068 1.374 . S
C1068 H1042 0.950 . S
C1068 C1064 1.385 . S
C1068 C1067 1.374 . S
C1069 C1066 1.499 . S
C1069 C1070 1.373 . S
C1069 C1071 1.389 . S
C1070 H1043 0.950 . S
C1070 C1056 1.377 . S
C1070 C1069 1.373 . S
C1071 C1055 1.377 . S
C1071 C1069 1.389 . S
C1071 C1072 1.524 . S
C1072 C1071 1.524 . S
C1072 C1073 1.397 . S
C1072 C1077 1.363 . S
C1073 H1044 0.950 . S
C1073 C1072 1.397 . S
C1073 C1074 1.334 . S
C1074 H1045 0.950 . S
C1074 C1073 1.334 . S
C1074 C1075 1.287 . S
C1075 C1074 1.287 . S
C1075 C1076 1.524 . S
C1075 H1078 0.999 . S
C1076 H1046 0.950 . S
C1076 C1075 1.524 . S
C1076 C1077 1.415 . S
C1077 H1047 0.950 . S
C1077 C1072 1.363 . S
C1077 C1076 1.415 . S
H1078 C1075 0.999 . S
H1079 C1060 0.913 . S
H1080 C1098 0.951 . S
H1081 C1100 0.951 . S
H1082 C1102 0.950 . S
H1083 C1103 0.953 . S
H1084 C1105 0.950 . S
H1085 C1108 0.950 . S
H1086 C1109 0.950 . S
H1087 C1111 0.950 . S
H1088 C1112 0.950 . S
H1089 C1113 0.951 . S
H1090 C1115 0.951 . S
H1091 C1117 0.950 . S
H1092 C1118 0.950 . S
H1093 C1120 0.950 . S
H1094 C1123 0.950 . S
H1095 C1124 0.950 . S
H1096 C1126 0.950 1_655 S
H1097 C1127 0.950 1_655 S
C1098 H1080 0.951 . S
C1098 C1099 1.366 . S
C1098 C1100 1.388 . S
C1099 C1098 1.366 . S
C1099 C1103 1.382 1_455 S
C1100 H1081 0.951 . S
C1100 C1098 1.388 . S
C1100 C1101 1.366 . S
C1101 C1100 1.366 . S
C1101 C1102 1.414 1_455 S
C1101 C1104 1.499 . S
C1102 H1082 0.950 . S
C1102 C1101 1.414 1_655 S
C1102 C1103 1.374 . S
C1103 H1083 0.953 . S
C1103 C1099 1.382 1_655 S
C1103 C1102 1.374 . S
C1104 C1101 1.499 . S
C1104 C1105 1.373 . S
C1104 C1106 1.389 . S
C1105 H1084 0.950 . S
C1105 C1104 1.373 . S
C1105 C1121 1.377 . S
C1106 C1104 1.389 . S
C1106 C1107 1.524 . S
C1106 C1120 1.377 . S
C1107 C1106 1.524 . S
C1107 C1108 1.397 1_455 S
C1107 C1112 1.363 . S
C1108 H1085 0.950 . S
C1108 C1107 1.397 1_655 S
C1108 C1109 1.334 . S
C1109 H1086 0.950 . S
C1109 C1108 1.334 . S
C1109 C1110 1.287 1_655 S
C1110 C1109 1.287 1_455 S
C1110 C1111 1.524 . S
C1110 H1129 0.913 . S
C1111 H1087 0.950 . S
C1111 C1110 1.524 . S
C1111 C1112 1.415 . S
C1112 H1088 0.950 . S
C1112 C1107 1.363 . S
C1112 C1111 1.415 . S
C1113 H1089 0.951 . S
C1113 C1114 1.366 1_655 S
C1113 C1115 1.388 1_556 S
C1114 C1113 1.366 1_455 S
C1114 C1118 1.385 . S
C1115 H1090 0.951 . S
C1115 C1113 1.388 1_554 S
C1115 C1116 1.366 1_655 S
C1116 C1115 1.366 1_455 S
C1116 C1117 1.414 . S
C1116 C1119 1.499 . S
C1117 H1091 0.950 . S
C1117 C1116 1.414 . S
C1117 C1118 1.374 1_554 S
C1118 H1092 0.950 . S
C1118 C1114 1.385 . S
C1118 C1117 1.374 1_556 S
C1119 C1116 1.499 . S
C1119 C1120 1.373 . S
C1119 C1121 1.389 . S
C1120 H1093 0.950 . S
C1120 C1106 1.377 . S
C1120 C1119 1.373 . S
C1121 C1105 1.377 . S
C1121 C1119 1.389 . S
C1121 C1122 1.524 . S
C1122 C1121 1.524 . S
C1122 C1123 1.397 . S
C1122 C1127 1.363 . S
C1123 H1094 0.950 . S
C1123 C1122 1.397 . S
C1123 C1124 1.334 . S
C1124 H1095 0.950 . S
C1124 C1123 1.334 . S
C1124 C1125 1.287 . S
C1125 C1124 1.287 . S
C1125 C1126 1.524 . S
C1125 H1128 0.999 . S
C1126 H1096 0.950 1_455 S
C1126 C1125 1.524 . S
C1126 C1127 1.415 . S
C1127 H1097 0.950 1_455 S
C1127 C1122 1.363 . S
C1127 C1126 1.415 . S
H1128 C1125 0.999 . S
H1129 C1110 0.913 . S
H1130 C1148 0.951 1_565 S
H1131 C1150 0.951 1_565 S
H1132 C1152 0.950 . S
H1133 C1153 0.950 . S
H1134 C1155 0.950 . S
H1135 C1158 0.950 . S
H1136 C1159 0.950 . S
H1137 C1161 0.950 . S
H1138 C1162 0.950 . S
H1139 C1163 0.951 . S
H1140 C1165 0.951 . S
H1141 C1167 0.950 1_565 S
H1142 C1168 0.950 1_565 S
H1143 C1170 0.950 1_565 S
H1144 C1173 0.950 . S
H1145 C1174 0.950 . S
H1146 C1176 0.950 . S
H1147 C1177 0.950 . S
C1148 H1130 0.951 1_545 S
C1148 C1149 1.366 . S
C1148 C1150 1.388 . S
C1149 C1148 1.366 . S
C1149 C1153 1.385 . S
C1150 H1131 0.951 1_545 S
C1150 C1148 1.388 . S
C1150 C1151 1.366 . S
C1151 C1150 1.366 . S
C1151 C1152 1.414 . S
C1151 C1154 1.499 . S
C1152 H1132 0.950 . S
C1152 C1151 1.414 . S
C1152 C1153 1.374 . S
C1153 H1133 0.950 . S
C1153 C1149 1.385 . S
C1153 C1152 1.374 . S
C1154 C1151 1.499 . S
C1154 C1155 1.373 . S
C1154 C1156 1.389 . S
C1155 H1134 0.950 . S
C1155 C1154 1.373 . S
C1155 C1171 1.377 . S
C1156 C1154 1.389 . S
C1156 C1157 1.524 1_545 S
C1156 C1170 1.377 . S
C1157 C1156 1.524 1_565 S
C1157 C1158 1.397 . S
C1157 C1162 1.363 . S
C1158 H1135 0.950 . S
C1158 C1157 1.397 . S
C1158 C1159 1.334 . S
C1159 H1136 0.950 . S
C1159 C1158 1.334 . S
C1159 C1160 1.287 . S
C1160 C1159 1.287 . S
C1160 C1161 1.524 . S
C1160 H1179 0.913 . S
C1161 H1137 0.950 . S
C1161 C1160 1.524 . S
C1161 C1162 1.415 . S
C1162 H1138 0.950 . S
C1162 C1157 1.363 . S
C1162 C1161 1.415 . S
C1163 H1139 0.951 . S
C1163 C1164 1.366 . S
C1163 C1165 1.388 . S
C1164 C1163 1.366 . S
C1164 C1168 1.385 . S
C1165 H1140 0.951 . S
C1165 C1163 1.388 . S
C1165 C1166 1.366 . S
C1166 C1165 1.366 . S
C1166 C1167 1.414 . S
C1166 C1169 1.499 . S
C1167 H1141 0.950 1_545 S
C1167 C1166 1.414 . S
C1167 C1168 1.374 . S
C1168 H1142 0.950 1_545 S
C1168 C1164 1.385 . S
C1168 C1167 1.374 . S
C1169 C1166 1.499 . S
C1169 C1170 1.373 . S
C1169 C1171 1.389 . S
C1170 H1143 0.950 1_545 S
C1170 C1156 1.377 . S
C1170 C1169 1.373 . S
C1171 C1155 1.377 . S
C1171 C1169 1.389 . S
C1171 C1172 1.524 . S
C1172 C1171 1.524 . S
C1172 C1173 1.397 . S
C1172 C1177 1.363 . S
C1173 H1144 0.950 . S
C1173 C1172 1.397 . S
C1173 C1174 1.334 . S
C1174 H1145 0.950 . S
C1174 C1173 1.334 . S
C1174 C1175 1.287 . S
C1175 C1174 1.287 . S
C1175 C1176 1.524 . S
C1175 H1178 0.999 . S
C1176 H1146 0.950 . S
C1176 C1175 1.524 . S
C1176 C1177 1.415 . S
C1177 H1147 0.950 . S
C1177 C1172 1.363 . S
C1177 C1176 1.415 . S
H1178 C1175 0.999 . S
H1179 C1160 0.913 . S
H1180 C1198 0.951 . S
H1181 C1200 0.951 . S
H1182 C1202 0.950 . S
H1183 C1203 0.950 . S
H1184 C1205 0.950 . S
H1185 C1208 0.950 . S
H1186 C1209 0.950 . S
H1187 C1211 0.950 . S
H1188 C1212 0.950 . S
H1189 C1213 0.951 . S
H1190 C1215 0.951 . S
H1191 C1217 0.950 . S
H1192 C1218 0.950 . S
H1193 C1220 0.950 . S
H1194 C1223 0.950 . S
H1195 C1224 0.950 . S
H1196 C1226 0.950 . S
H1197 C1227 0.950 . S
C1198 H1180 0.951 . S
C1198 C1199 1.366 . S
C1198 C1200 1.388 . S
C1199 C1198 1.366 . S
C1199 C1203 1.385 . S
C1200 H1181 0.951 . S
C1200 C1198 1.388 . S
C1200 C1201 1.366 . S
C1201 C1200 1.366 . S
C1201 C1202 1.414 . S
C1201 C1204 1.499 . S
C1202 H1182 0.950 . S
C1202 C1201 1.414 . S
C1202 C1203 1.374 . S
C1203 H1183 0.950 . S
C1203 C1199 1.385 . S
C1203 C1202 1.374 . S
C1204 C1201 1.499 . S
C1204 C1205 1.373 . S
C1204 C1206 1.389 . S
C1205 H1184 0.950 . S
C1205 C1204 1.373 . S
C1205 C1221 1.377 . S
C1206 C1204 1.389 . S
C1206 C1207 1.524 . S
C1206 C1220 1.377 . S
C1207 C1206 1.524 . S
C1207 C1208 1.397 . S
C1207 C1212 1.363 . S
C1208 H1185 0.950 . S
C1208 C1207 1.397 . S
C1208 C1209 1.334 . S
C1209 H1186 0.950 . S
C1209 C1208 1.334 . S
C1209 C1210 1.287 . S
C1210 C1209 1.287 . S
C1210 C1211 1.524 . S
C1210 H1229 0.913 . S
C1211 H1187 0.950 . S
C1211 C1210 1.524 . S
C1211 C1212 1.415 . S
C1212 H1188 0.950 . S
C1212 C1207 1.363 . S
C1212 C1211 1.415 . S
C1213 H1189 0.951 . S
C1213 C1214 1.366 . S
C1213 C1215 1.388 . S
C1214 C1213 1.366 . S
C1214 C1218 1.385 . S
C1215 H1190 0.951 . S
C1215 C1213 1.388 . S
C1215 C1216 1.366 . S
C1216 C1215 1.366 . S
C1216 C1217 1.414 . S
C1216 C1219 1.499 . S
C1217 H1191 0.950 . S
C1217 C1216 1.414 . S
C1217 C1218 1.374 . S
C1218 H1192 0.950 . S
C1218 C1214 1.385 . S
C1218 C1217 1.374 . S
C1219 C1216 1.499 . S
C1219 C1220 1.373 . S
C1219 C1221 1.389 . S
C1220 H1193 0.950 . S
C1220 C1206 1.377 . S
C1220 C1219 1.373 . S
C1221 C1205 1.377 . S
C1221 C1219 1.389 . S
C1221 C1222 1.524 . S
C1222 C1221 1.524 . S
C1222 C1223 1.397 . S
C1222 C1227 1.363 . S
C1223 H1194 0.950 . S
C1223 C1222 1.397 . S
C1223 C1224 1.334 . S
C1224 H1195 0.950 . S
C1224 C1223 1.334 . S
C1224 C1225 1.287 . S
C1225 C1224 1.287 . S
C1225 C1226 1.524 . S
C1225 H1228 0.999 . S
C1226 H1196 0.950 . S
C1226 C1225 1.524 . S
C1226 C1227 1.415 . S
C1227 H1197 0.950 . S
C1227 C1222 1.363 . S
C1227 C1226 1.415 . S
H1228 C1225 0.999 . S
H1229 C1210 0.913 . S
H1230 C1248 0.951 . S
H1231 C1250 0.951 . S
H1232 C1252 0.950 . S
H1233 C1253 0.950 . S
H1234 C1255 0.923 1_565 S
H1235 C1258 0.950 . S
H1236 C1259 0.950 . S
H1237 C1261 0.950 . S
H1238 C1262 0.950 . S
H1239 C1263 0.951 . S
H1240 C1265 0.951 . S
H1241 C1267 0.950 1_565 S
H1242 C1268 0.950 . S
H1243 C1270 0.950 . S
H1244 C1273 0.950 . S
H1245 C1274 0.950 . S
H1246 C1276 0.950 . S
H1247 C1277 0.950 1_545 S
C1248 H1230 0.951 . S
C1248 C1249 1.366 . S
C1248 C1250 1.388 . S
C1249 C1248 1.366 . S
C1249 C1253 1.385 . S
C1250 H1231 0.951 . S
C1250 C1248 1.388 . S
C1250 C1251 1.366 . S
C1251 C1250 1.366 . S
C1251 C1252 1.414 . S
C1251 C1254 1.499 . S
C1252 H1232 0.950 . S
C1252 C1251 1.414 . S
C1252 C1253 1.374 . S
C1253 H1233 0.950 . S
C1253 C1249 1.385 . S
C1253 C1252 1.374 . S
C1254 C1251 1.499 . S
C1254 C1255 1.373 . S
C1254 C1256 1.389 . S
C1255 H1234 0.923 1_545 S
C1255 C1254 1.373 . S
C1255 C1271 1.377 . S
C1256 C1254 1.389 . S
C1256 C1257 1.524 . S
C1256 C1270 1.377 . S
C1257 C1256 1.524 . S
C1257 C1258 1.397 . S
C1257 C1262 1.363 . S
C1258 H1235 0.950 . S
C1258 C1257 1.397 . S
C1258 C1259 1.334 . S
C1259 H1236 0.950 . S
C1259 C1258 1.334 . S
C1259 C1260 1.287 . S
C1260 C1259 1.287 . S
C1260 C1261 1.524 . S
C1260 H1279 0.913 . S
C1261 H1237 0.950 . S
C1261 C1260 1.524 . S
C1261 C1262 1.415 . S
C1262 H1238 0.950 . S
C1262 C1257 1.363 . S
C1262 C1261 1.415 . S
C1263 H1239 0.951 . S
C1263 C1264 1.366 . S
C1263 C1265 1.388 . S
C1264 C1263 1.366 . S
C1264 C1268 1.385 1_545 S
C1265 H1240 0.951 . S
C1265 C1263 1.388 . S
C1265 C1266 1.366 . S
C1266 C1265 1.366 . S
C1266 C1267 1.414 . S
C1266 C1269 1.499 . S
C1267 H1241 0.950 1_545 S
C1267 C1266 1.414 . S
C1267 C1268 1.374 1_545 S
C1268 H1242 0.950 . S
C1268 C1264 1.385 1_565 S
C1268 C1267 1.374 1_565 S
C1269 C1266 1.499 . S
C1269 C1270 1.373 . S
C1269 C1271 1.389 . S
C1270 H1243 0.950 . S
C1270 C1256 1.377 . S
C1270 C1269 1.373 . S
C1271 C1255 1.377 . S
C1271 C1269 1.389 . S
C1271 C1272 1.524 1_545 S
C1272 C1271 1.524 1_565 S
C1272 C1273 1.397 . S
C1272 C1277 1.363 . S
C1273 H1244 0.950 . S
C1273 C1272 1.397 . S
C1273 C1274 1.334 . S
C1274 H1245 0.950 . S
C1274 C1273 1.334 . S
C1274 C1275 1.287 . S
C1275 C1274 1.287 . S
C1275 C1276 1.524 . S
C1275 H1278 0.999 . S
C1276 H1246 0.950 . S
C1276 C1275 1.524 . S
C1276 C1277 1.415 . S
C1277 H1247 0.950 1_565 S
C1277 C1272 1.363 . S
C1277 C1276 1.415 . S
H1278 C1275 0.999 . S
H1279 C1260 0.913 . S
H1280 C1298 0.951 . S
H1281 C1300 0.951 . S
H1282 C1302 0.950 . S
H1283 C1303 0.950 . S
H1284 C1305 0.950 . S
H1285 C1308 0.950 . S
H1286 C1309 0.950 . S
H1287 C1311 0.950 . S
H1288 C1312 0.950 . S
H1289 C1313 0.951 . S
H1290 C1315 0.951 . S
H1291 C1317 0.950 . S
H1292 C1318 0.950 . S
H1293 C1320 0.950 . S
H1294 C1323 0.950 . S
H1295 C1324 0.950 . S
H1296 C1326 0.950 . S
H1297 C1327 0.950 . S
C1298 H1280 0.951 . S
C1298 C1299 1.366 . S
C1298 C1300 1.388 . S
C1299 C1298 1.366 . S
C1299 C1303 1.385 . S
C1300 H1281 0.951 . S
C1300 C1298 1.388 . S
C1300 C1301 1.366 . S
C1301 C1300 1.366 . S
C1301 C1302 1.414 . S
C1301 C1304 1.499 . S
C1302 H1282 0.950 . S
C1302 C1301 1.414 . S
C1302 C1303 1.374 . S
C1303 H1283 0.950 . S
C1303 C1299 1.385 . S
C1303 C1302 1.374 . S
C1304 C1301 1.499 . S
C1304 C1305 1.373 . S
C1304 C1306 1.389 . S
C1305 H1284 0.950 . S
C1305 C1304 1.373 . S
C1305 C1321 1.377 . S
C1306 C1304 1.389 . S
C1306 C1307 1.524 . S
C1306 C1320 1.377 . S
C1307 C1306 1.524 . S
C1307 C1308 1.397 . S
C1307 C1312 1.363 . S
C1308 H1285 0.950 . S
C1308 C1307 1.397 . S
C1308 C1309 1.334 . S
C1309 H1286 0.950 . S
C1309 C1308 1.334 . S
C1309 C1310 1.287 . S
C1310 C1309 1.287 . S
C1310 C1311 1.524 . S
C1310 H1329 0.913 . S
C1311 H1287 0.950 . S
C1311 C1310 1.524 . S
C1311 C1312 1.415 . S
C1312 H1288 0.950 . S
C1312 C1307 1.363 . S
C1312 C1311 1.415 . S
C1313 H1289 0.951 . S
C1313 C1314 1.366 . S
C1313 C1315 1.388 1_554 S
C1314 C1313 1.366 . S
C1314 C1318 1.385 . S
C1315 H1290 0.951 . S
C1315 C1313 1.388 1_556 S
C1315 C1316 1.366 . S
C1316 C1315 1.366 . S
C1316 C1317 1.414 . S
C1316 C1319 1.499 . S
C1317 H1291 0.950 . S
C1317 C1316 1.414 . S
C1317 C1318 1.374 1_556 S
C1318 H1292 0.950 . S
C1318 C1314 1.385 . S
C1318 C1317 1.374 1_554 S
C1319 C1316 1.499 . S
C1319 C1320 1.373 . S
C1319 C1321 1.389 . S
C1320 H1293 0.950 . S
C1320 C1306 1.377 . S
C1320 C1319 1.373 . S
C1321 C1305 1.377 . S
C1321 C1319 1.389 . S
C1321 C1322 1.524 . S
C1322 C1321 1.524 . S
C1322 C1323 1.397 . S
C1322 C1327 1.363 . S
C1323 H1294 0.950 . S
C1323 C1322 1.397 . S
C1323 C1324 1.334 . S
C1324 H1295 0.950 . S
C1324 C1323 1.334 . S
C1324 C1325 1.287 . S
C1325 C1324 1.287 . S
C1325 C1326 1.524 . S
C1325 H1328 0.999 . S
C1326 H1296 0.950 . S
C1326 C1325 1.524 . S
C1326 C1327 1.415 . S
C1327 H1297 0.950 . S
C1327 C1322 1.363 . S
C1327 C1326 1.415 . S
H1328 C1325 0.999 . S
H1329 C1310 0.913 . S
H1330 C1348 0.951 . S
H1331 C1350 0.951 . S
H1332 C1352 0.950 . S
H1333 C1353 0.950 . S
H1334 C1355 0.950 . S
H1335 C1358 0.950 . S
H1336 C1359 0.950 . S
H1337 C1361 0.950 . S
H1338 C1362 0.950 . S
H1339 C1363 0.951 . S
H1340 C1365 0.951 . S
H1341 C1367 0.952 1_655 S
H1342 C1368 0.950 . S
H1343 C1370 0.950 . S
H1344 C1373 0.950 . S
H1345 C1374 0.950 . S
H1346 C1376 0.950 . S
H1347 C1377 0.950 . S
C1348 H1330 0.951 . S
C1348 C1349 1.366 . S
C1348 C1350 1.388 . S
C1349 C1348 1.366 . S
C1349 C1353 1.385 . S
C1350 H1331 0.951 . S
C1350 C1348 1.388 . S
C1350 C1351 1.366 . S
C1351 C1350 1.366 . S
C1351 C1352 1.414 . S
C1351 C1354 1.499 . S
C1352 H1332 0.950 . S
C1352 C1351 1.414 . S
C1352 C1353 1.374 . S
C1353 H1333 0.950 . S
C1353 C1349 1.385 . S
C1353 C1352 1.374 . S
C1354 C1351 1.499 . S
C1354 C1355 1.373 1_455 S
C1354 C1356 1.389 . S
C1355 H1334 0.950 . S
C1355 C1354 1.373 1_655 S
C1355 C1371 1.377 . S
C1356 C1354 1.389 . S
C1356 C1357 1.524 . S
C1356 C1370 1.377 . S
C1357 C1356 1.524 . S
C1357 C1358 1.397 . S
C1357 C1362 1.363 . S
C1358 H1335 0.950 . S
C1358 C1357 1.397 . S
C1358 C1359 1.334 . S
C1359 H1336 0.950 . S
C1359 C1358 1.334 . S
C1359 C1360 1.287 . S
C1360 C1359 1.287 . S
C1360 C1361 1.524 . S
C1360 H1379 0.913 . S
C1361 H1337 0.950 . S
C1361 C1360 1.524 . S
C1361 C1362 1.415 . S
C1362 H1338 0.950 . S
C1362 C1357 1.363 . S
C1362 C1361 1.415 . S
C1363 H1339 0.951 . S
C1363 C1364 1.366 . S
C1363 C1365 1.388 . S
C1364 C1363 1.366 . S
C1364 C1368 1.385 1_455 S
C1365 H1340 0.951 . S
C1365 C1363 1.388 . S
C1365 C1366 1.366 . S
C1366 C1365 1.366 . S
C1366 C1367 1.412 . S
C1366 C1369 1.499 . S
C1367 H1341 0.952 1_455 S
C1367 C1366 1.412 . S
C1367 C1368 1.374 1_455 S
C1368 H1342 0.950 . S
C1368 C1364 1.385 1_655 S
C1368 C1367 1.374 1_655 S
C1369 C1366 1.499 . S
C1369 C1370 1.373 . S
C1369 C1371 1.389 1_455 S
C1370 H1343 0.950 . S
C1370 C1356 1.377 . S
C1370 C1369 1.373 . S
C1371 C1355 1.377 . S
C1371 C1369 1.389 1_655 S
C1371 C1372 1.524 . S
C1372 C1371 1.524 . S
C1372 C1373 1.397 . S
C1372 C1377 1.363 . S
C1373 H1344 0.950 . S
C1373 C1372 1.397 . S
C1373 C1374 1.334 . S
C1374 H1345 0.950 . S
C1374 C1373 1.334 . S
C1374 C1375 1.287 . S
C1375 C1374 1.287 . S
C1375 C1376 1.524 . S
C1375 H1378 0.999 . S
C1376 H1346 0.950 . S
C1376 C1375 1.524 . S
C1376 C1377 1.415 . S
C1377 H1347 0.950 . S
C1377 C1372 1.363 . S
C1377 C1376 1.415 . S
H1378 C1375 0.999 . S
H1379 C1360 0.913 . S
C499 C9 0.401 . S
C514 C451 0.323 . S
C549 C49 0.251 . S
C564 C301 0.409 . S
C599 C89 0.247 . S
C614 C361 0.416 . S
C649 C26 0.345 . S
C664 C421 0.394 . S
C714 C331 0.272 . S
C699 C66 0.406 . S
C764 C391 0.299 . S
C749 C106 0.432 . S
C799 C43 2.868 . S
C814 C181 2.722 . S
C849 C83 3.031 . S
C864 C271 3.020 . S
C899 C22 3.104 . S
C914 C151 3.092 . S
C964 C211 3.081 . S
C949 C62 3.092 . S
C1014 C241 2.773 . S
C999 C102 2.923 . S
C1049 C3 2.857 . S
C1064 C121 2.718 . S
C1114 C260 1.749 . S
C1099 C15 1.721 . S
C1149 C55 1.732 . S
C1164 C140 1.745 . S
C1199 C95 1.727 . S
C1214 C200 1.740 . S
C1264 C380 1.081 . S
C1249 C42 1.081 . S
C1314 C440 1.091 . S
C1299 C82 1.085 . S
C1349 C2 1.081 . S
C1364 C320 1.078 . S
