# Generated by pormake.
# Topology zzz, (3,6)-cn, num edge types: 1
# Building blocks:
#     Node 0, Type 0, BuildingBlock: QEWDON_clean_linker_0, # of connection points: 3
#     Node 1, Type 0, BuildingBlock: QEWDON_clean_linker_0, # of connection points: 3
#     Node 2, Type 0, BuildingBlock: QEWDON_clean_linker_0, # of connection points: 3
#     Node 3, Type 0, BuildingBlock: QEWDON_clean_linker_0, # of connection points: 3
#     Node 4, Type 0, BuildingBlock: QEWDON_clean_linker_0, # of connection points: 3
#     Node 5, Type 0, BuildingBlock: QEWDON_clean_linker_0, # of connection points: 3
#     Node 6, Type 0, BuildingBlock: QEWDON_clean_linker_0, # of connection points: 3
#     Node 7, Type 0, BuildingBlock: QEWDON_clean_linker_0, # of connection points: 3
#     Node 8, Type 1, BuildingBlock: FUNLAD_clean_sbu_0, # of connection points: 6
#     Node 9, Type 1, BuildingBlock: FUNLAD_clean_sbu_0, # of connection points: 6
#     Node 10, Type 1, BuildingBlock: FUNLAD_clean_sbu_0, # of connection points: 6
#     Node 11, Type 1, BuildingBlock: FUNLAD_clean_sbu_0, # of connection points: 6
#     Edge 12, Type (0, 1), BuildingBlock: ZUJKAS_clean_linker_0, # of connection points: 2
#     Edge 13, Type (0, 1), BuildingBlock: ZUJKAS_clean_linker_0, # of connection points: 2
#     Edge 14, Type (0, 1), BuildingBlock: ZUJKAS_clean_linker_0, # of connection points: 2
#     Edge 15, Type (0, 1), BuildingBlock: ZUJKAS_clean_linker_0, # of connection points: 2
#     Edge 16, Type (0, 1), BuildingBlock: ZUJKAS_clean_linker_0, # of connection points: 2
#     Edge 17, Type (0, 1), BuildingBlock: ZUJKAS_clean_linker_0, # of connection points: 2
#     Edge 18, Type (0, 1), BuildingBlock: ZUJKAS_clean_linker_0, # of connection points: 2
#     Edge 19, Type (0, 1), BuildingBlock: ZUJKAS_clean_linker_0, # of connection points: 2
#     Edge 20, Type (0, 1), BuildingBlock: ZUJKAS_clean_linker_0, # of connection points: 2
#     Edge 21, Type (0, 1), BuildingBlock: ZUJKAS_clean_linker_0, # of connection points: 2
#     Edge 22, Type (0, 1), BuildingBlock: ZUJKAS_clean_linker_0, # of connection points: 2
#     Edge 23, Type (0, 1), BuildingBlock: ZUJKAS_clean_linker_0, # of connection points: 2
#     Edge 24, Type (0, 1), BuildingBlock: ZUJKAS_clean_linker_0, # of connection points: 2
#     Edge 25, Type (0, 1), BuildingBlock: ZUJKAS_clean_linker_0, # of connection points: 2
#     Edge 26, Type (0, 1), BuildingBlock: ZUJKAS_clean_linker_0, # of connection points: 2
#     Edge 27, Type (0, 1), BuildingBlock: ZUJKAS_clean_linker_0, # of connection points: 2
#     Edge 28, Type (0, 1), BuildingBlock: ZUJKAS_clean_linker_0, # of connection points: 2
#     Edge 29, Type (0, 1), BuildingBlock: ZUJKAS_clean_linker_0, # of connection points: 2
#     Edge 30, Type (0, 1), BuildingBlock: ZUJKAS_clean_linker_0, # of connection points: 2
#     Edge 31, Type (0, 1), BuildingBlock: ZUJKAS_clean_linker_0, # of connection points: 2
#     Edge 32, Type (0, 1), BuildingBlock: ZUJKAS_clean_linker_0, # of connection points: 2
#     Edge 33, Type (0, 1), BuildingBlock: ZUJKAS_clean_linker_0, # of connection points: 2
#     Edge 34, Type (0, 1), BuildingBlock: ZUJKAS_clean_linker_0, # of connection points: 2
#     Edge 35, Type (0, 1), BuildingBlock: ZUJKAS_clean_linker_0, # of connection points: 2
# Relax obj value: 0.086
# Max RMSD: 0.173
# Mean RMSD: 0.067
data_MOF--net-zzz--node1-FUNLAD_clean_sbu_0--node2-QEWDON_clean_linker_0--edge1-ZUJKAS_clean_linker_0
_symmetry_space_group_name_H-M    P1
_symmetry_Int_Tables_number       1
_symmetry_cell_setting            triclinic
loop_
_symmetry_equiv_pos_as_xyz
'x, y, z'
_cell_length_a     69.751715
_cell_length_b     75.678543
_cell_length_c     21.978961
_cell_angle_alpha  86.051831
_cell_angle_beta   85.755949
_cell_angle_gamma 88.895498
loop_
_atom_site_label
_atom_site_type_symbol
_atom_site_fract_x
_atom_site_fract_y
_atom_site_fract_z
_atom_type_partial_charge
H0 H 0.80622 0.51714 0.13007 0.0
C1 C 0.81209 0.51622 0.17448 0.0
C2 C 0.82891 0.50613 0.18246 0.0
C3 C 0.80346 0.52576 0.22245 0.0
H4 H 0.85082 0.49873 0.24351 0.0
C5 C 0.83718 0.50563 0.23866 0.0
C6 C 0.8293 0.51548 0.28627 0.0
C7 C 0.81229 0.52531 0.27835 0.0
C8 C 0.78607 0.5371 0.2126 0.0
H9 H 0.80615 0.53276 0.3156 0.0
C10 C 0.77178 0.53181 0.17566 0.0
C11 C 0.75582 0.54289 0.16397 0.0
C12 C 0.78395 0.5536 0.2384 0.0
H13 H 0.79481 0.55836 0.26574 0.0
C14 C 0.76798 0.56445 0.228 0.0
H15 H 0.77318 0.51918 0.1553 0.0
C16 C 0.75402 0.55919 0.19105 0.0
H17 H 0.74175 0.56787 0.18391 0.0
H18 H 0.76651 0.57709 0.24823 0.0
H19 H 0.99921 0.791 0.02099 0.0
C20 C 0.99823 0.79651 0.06537 0.0
C21 C 0.00839 0.81193 0.07352 0.0
C22 C 0.98592 0.78885 0.11336 0.0
H23 H 0.01347 0.8318 0.13578 0.0
C24 C 1.00648 0.81938 0.13032 0.0
C25 C 0.99394 0.81226 0.17793 0.0
C26 C 0.98374 0.79695 0.16943 0.0
C27 C 0.97415 0.77327 0.10359 0.0
H28 H 0.97392 0.79152 0.20622 0.0
C29 C 0.98233 0.75852 0.07486 0.0
C30 C 0.97109 0.74365 0.06722 0.0
C31 C 0.9545 0.77312 0.12332 0.0
H32 H 0.94773 0.78438 0.14453 0.0
C33 C 0.94329 0.75855 0.1151 0.0
H34 H 0.99751 0.7584 0.06023 0.0
C35 C 0.95148 0.7439 0.08743 0.0
H36 H 0.9424 0.73281 0.08128 0.0
H37 H 0.92816 0.75862 0.13018 0.0
H38 H 0.74758 1.00225 0.03353 0.0
C39 C 0.73995 1.00377 0.07766 0.0
C40 C 0.72168 0.01198 0.0805 0.0
C41 C 0.74783 0.99666 0.13154 0.0
H42 H 0.69693 0.01876 0.13896 0.0
C43 C 0.71142 0.01323 0.13732 0.0
C44 C 0.71863 0.00587 0.19125 0.0
C45 C 0.73691 0.99768 0.18824 0.0
C46 C 0.76649 0.98661 0.12836 0.0
H47 H 0.74249 0.99192 0.22997 0.0
C48 C 0.78279 0.99284 0.09119 0.0
C49 C 0.80034 0.98309 0.09018 0.0
C50 C 0.76791 0.97035 0.16284 0.0
H51 H 0.75563 0.96497 0.19059 0.0
C52 C 0.78504 0.96059 0.16117 0.0
H53 H 0.78197 0.00541 0.06464 0.0
C54 C 0.80109 0.96687 0.12536 0.0
H55 H 0.81412 0.95883 0.12465 0.0
H56 H 0.78586 0.94804 0.18766 0.0
H57 H 0.53044 0.71189 0.02763 0.0
C58 C 0.53008 0.70467 0.07204 0.0
C59 C 0.52013 0.68863 0.08149 0.0
C60 C 0.54034 0.7109 0.11897 0.0
H61 H 0.51355 0.66609 0.14395 0.0
C62 C 0.52039 0.67891 0.13806 0.0
C63 C 0.53084 0.68461 0.18487 0.0
C64 C 0.54064 0.70071 0.17526 0.0
C65 C 0.55209 0.7272 0.10804 0.0
H66 H 0.54869 0.7052 0.21146 0.0
C67 C 0.54481 0.74295 0.07917 0.0
C68 C 0.55605 0.75839 0.07156 0.0
C69 C 0.5709 0.727 0.12721 0.0
H70 H 0.57705 0.71504 0.14827 0.0
C71 C 0.58211 0.74211 0.11883 0.0
H72 H 0.5303 0.74336 0.06456 0.0
C73 C 0.57477 0.7577 0.09151 0.0
H74 H 0.58386 0.76923 0.08537 0.0
H75 H 0.59658 0.74175 0.13363 0.0
H76 H 0.24133 0.52492 0.24843 0.0
C77 C 0.23434 0.51863 0.21334 0.0
C78 C 0.21532 0.51303 0.22543 0.0
C79 C 0.24414 0.51651 0.15581 0.0
H80 H 0.19108 0.50167 0.18813 0.0
C81 C 0.20606 0.50532 0.17971 0.0
C82 C 0.21529 0.50355 0.12171 0.0
C83 C 0.23436 0.50913 0.10981 0.0
C84 C 0.26434 0.5225 0.14355 0.0
H85 H 0.2415 0.50765 0.06494 0.0
C86 C 0.27761 0.51986 0.18881 0.0
C87 C 0.29657 0.52598 0.17821 0.0
C88 C 0.27039 0.53123 0.08704 0.0
H89 H 0.2605 0.53374 0.0516 0.0
C90 C 0.28922 0.53719 0.07606 0.0
H91 H 0.27314 0.51314 0.23253 0.0
C92 C 0.30223 0.53463 0.12123 0.0
H93 H 0.31679 0.53928 0.11131 0.0
H94 H 0.29373 0.5439 0.0324 0.0
H95 H 0.02705 0.22873 0.35628 0.0
C96 C 0.03476 0.22222 0.31924 0.0
C97 C 0.04115 0.2046 0.32915 0.0
C98 C 0.03752 0.23112 0.2608 0.0
H99 H 0.05457 0.18218 0.28702 0.0
C100 C 0.05055 0.19607 0.28052 0.0
C101 C 0.05301 0.2045 0.22195 0.0
C102 C 0.04656 0.22204 0.21223 0.0
C103 C 0.02985 0.24941 0.24916 0.0
H104 H 0.04837 0.2285 0.16665 0.0
C105 C 0.03217 0.2626 0.2903 0.0
C106 C 0.02541 0.28003 0.27752 0.0
C107 C 0.02022 0.2538 0.19604 0.0
H108 H 0.01784 0.2439 0.16421 0.0
C109 C 0.01332 0.27098 0.18367 0.0
H110 H 0.03974 0.25946 0.3311 0.0
C111 C 0.01595 0.28403 0.22386 0.0
H112 H 0.01036 0.29726 0.21332 0.0
H113 H 1.00589 0.27419 0.14272 0.0
H114 H 0.29641 1.00128 0.36326 0.0
C115 C 0.30429 0.00609 0.32122 0.0
C116 C 0.32342 0.01139 0.32289 0.0
C117 C 0.2957 0.00625 0.265 0.0
H118 H 0.34902 0.02006 0.26987 0.0
C119 C 0.33397 0.01683 0.26844 0.0
C120 C 0.32608 0.01664 0.21186 0.0
C121 C 0.30686 0.01147 0.21034 0.0
C122 C 0.27576 0.99949 0.26264 0.0
H123 H 0.30072 0.01138 0.16651 0.0
C124 C 0.26078 1.00322 0.3074 0.0
C125 C 0.24227 0.99604 0.30518 0.0
C126 C 0.27181 0.98862 0.2158 0.0
H127 H 0.28295 0.98511 0.18161 0.0
C128 C 0.25354 0.98175 0.21303 0.0
H129 H 0.26352 0.01151 0.34396 0.0
C130 C 0.23891 0.9854 0.25718 0.0
H131 H 0.22483 0.97995 0.25345 0.0
H132 H 0.25073 0.97345 0.1766 0.0
H133 H 0.53331 0.3045 0.35085 0.0
C134 C 0.52672 0.31235 0.31466 0.0
C135 C 0.52138 0.33006 0.3232 0.0
C136 C 0.52426 0.30502 0.25854 0.0
H137 H 0.51009 0.35423 0.28134 0.0
C138 C 0.51342 0.34035 0.27563 0.0
C139 C 0.51123 0.33349 0.21909 0.0
C140 C 0.5166 0.31579 0.21081 0.0
C141 C 0.53086 0.28658 0.24789 0.0
H142 H 0.51491 0.31046 0.16704 0.0
C143 C 0.52671 0.27236 0.29174 0.0
C144 C 0.53258 0.25489 0.27967 0.0
C145 C 0.54138 0.28316 0.19279 0.0
H146 H 0.54512 0.29381 0.15878 0.0
C147 C 0.54746 0.266 0.18116 0.0
H148 H 0.51844 0.27478 0.33414 0.0
C149 C 0.54307 0.25197 0.22402 0.0
H150 H 0.5481 0.23879 0.21384 0.0
H151 H 0.55563 0.26356 0.13868 0.0
C152 C 0.03167 0.97636 0.75805 0.0
N153 N 0.0091 0.98757 0.58934 0.0
C154 C 0.02227 0.97554 0.56806 0.0
C155 C 0.01711 0.96293 0.52927 0.0
C156 C 0.99809 0.96237 0.51298 0.0
C157 C 0.98486 0.97523 0.53387 0.0
C158 C 0.99076 0.9879 0.57187 0.0
Zn159 Zn 0.01694 1.00226 0.6585 0.0
C160 C 0.9846 0.00569 0.75554 0.0
N161 N 0.03445 0.02893 0.8097 0.0
C162 C 0.05247 0.02809 0.82975 0.0
C163 C 0.02145 0.04138 0.82884 0.0
C164 C 0.02651 0.05396 0.86785 0.0
C165 C 0.04521 0.05392 0.88737 0.0
C166 C 0.05821 0.04057 0.86873 0.0
Zn167 Zn 0.02673 0.0143 0.74051 0.0
O168 O 0.02463 0.97822 0.70626 0.0
C169 C 0.05905 0.01092 0.64347 0.0
O170 O 0.03455 0.99001 0.78665 0.0
H171 H 0.00735 0.04218 0.8114 0.0
H172 H 0.03661 0.97506 0.58367 0.0
H173 H 0.06265 0.01819 0.81364 0.0
O174 O 0.04554 0.00444 0.61665 0.0
O175 O 0.05535 0.0164 0.69661 0.0
H176 H 0.98044 0.99746 0.58951 0.0
O177 O 0.01865 0.03824 0.69354 0.0
O178 O 0.00956 0.02664 0.61154 0.0
O179 O 0.99814 0.01192 0.78295 0.0
O180 O 0.98833 1.00044 0.7021 0.0
C181 C 0.01199 0.04017 0.64124 0.0
H182 H 0.02765 0.95306 0.51498 0.0
H183 H 0.97005 0.97521 0.5221 0.0
H184 H 0.01611 0.06418 0.87999 0.0
H185 H 0.07274 0.04001 0.88307 0.0
C186 C 0.49343 1.00283 0.62794 0.0
N187 N 0.52089 0.05013 0.65775 0.0
C188 C 0.52081 0.05407 0.5964 0.0
C189 C 0.52074 0.07166 0.57261 0.0
C190 C 0.52073 0.0855 0.61212 0.0
C191 C 0.52055 0.08107 0.67539 0.0
C192 C 0.52067 0.06323 0.69731 0.0
Zn193 Zn 0.52182 0.02377 0.68848 0.0
C194 C 0.4935 0.01479 0.79351 0.0
N195 N 0.52392 0.96833 0.74658 0.0
C196 C 0.52408 0.9554 0.70643 0.0
C197 C 0.52431 0.96417 0.80772 0.0
C198 C 0.52489 0.94649 0.83061 0.0
C199 C 0.52506 0.93282 0.79039 0.0
C200 C 0.52467 0.9375 0.72741 0.0
Zn201 Zn 0.52294 0.99473 0.71626 0.0
O202 O 0.50001 0.01827 0.63102 0.0
C203 C 0.55123 1.00376 0.6111 0.0
O204 O 0.50081 0.98981 0.65821 0.0
H205 H 0.52422 0.97461 0.83896 0.0
H206 H 0.5209 0.04351 0.56563 0.0
H207 H 0.52371 0.95896 0.65801 0.0
O208 O 0.54367 0.01896 0.61859 0.0
O209 O 0.54493 0.9905 0.64504 0.0
H210 H 0.52077 0.05984 0.7459 0.0
O211 O 0.54495 1.00026 0.77362 0.0
O212 O 0.54383 0.02871 0.74644 0.0
O213 O 0.50108 0.99956 0.78657 0.0
O214 O 0.49981 0.02799 0.75924 0.0
C215 C 0.55142 0.01576 0.77645 0.0
H216 H 0.52055 0.07439 0.52363 0.0
H217 H 0.5207 0.09127 0.70757 0.0
H218 H 0.5255 0.9436 0.87937 0.0
H219 H 0.52459 0.92745 0.69467 0.0
C220 C 0.53345 0.48123 0.63689 0.0
N221 N 0.48 0.50747 0.65108 0.0
C222 C 0.48073 0.50543 0.58993 0.0
C223 C 0.4639 0.50473 0.55994 0.0
C224 C 0.446 0.50628 0.59286 0.0
C225 C 0.44557 0.50849 0.65593 0.0
C226 C 0.46287 0.50897 0.6844 0.0
Zn227 Zn 0.50585 0.50867 0.68922 0.0
C228 C 0.50943 0.4841 0.7976 0.0
N229 N 0.56143 0.51088 0.75768 0.0
C230 C 0.57843 0.5106 0.72307 0.0
C231 C 0.56094 0.51218 0.81921 0.0
C232 C 0.5779 0.51345 0.84823 0.0
C233 C 0.59567 0.5134 0.81381 0.0
C234 C 0.59584 0.5118 0.75041 0.0
Zn235 Zn 0.53554 0.50962 0.71998 0.0
O236 O 0.51639 0.48746 0.63773 0.0
C237 C 0.53187 0.53419 0.61148 0.0
O238 O 0.5457 0.48838 0.66714 0.0
H239 H 0.54731 0.51229 0.84603 0.0
H240 H 0.49446 0.5045 0.56399 0.0
H241 H 0.57849 0.50957 0.67422 0.0
O242 O 0.5152 0.52753 0.61799 0.0
O243 O 0.54439 0.52883 0.64809 0.0
H244 H 0.46261 0.51061 0.73295 0.0
O245 O 0.52496 0.53067 0.77242 0.0
O246 O 0.4958 0.53002 0.74151 0.0
O247 O 0.52621 0.49054 0.79084 0.0
O248 O 0.49689 0.48967 0.76137 0.0
C249 C 0.50794 0.53699 0.77266 0.0
H250 H 0.46491 0.50336 0.51106 0.0
H251 H 0.43204 0.50971 0.68295 0.0
H252 H 0.57708 0.51433 0.89733 0.0
H253 H 0.60923 0.51182 0.72212 0.0
C254 C 0.05033 0.51823 0.61823 0.0
N255 N 0.02546 0.46852 0.66091 0.0
C256 C 0.02541 0.46712 0.59955 0.0
C257 C 0.02689 0.45057 0.5752 0.0
C258 C 0.02856 0.43518 0.61415 0.0
C259 C 0.02855 0.437 0.67742 0.0
C260 C 0.02697 0.45387 0.69993 0.0
Zn261 Zn 0.02327 0.49341 0.6926 0.0
C262 C 0.05136 0.49942 0.78303 0.0
N263 N 0.01905 0.54618 0.7518 0.0
C264 C 0.0175 0.56062 0.71188 0.0
C265 C 0.01909 0.54792 0.81298 0.0
C266 C 0.01743 0.56464 0.83623 0.0
C267 C 0.01562 0.5798 0.79627 0.0
C268 C 0.01576 0.57762 0.73321 0.0
Zn269 Zn 0.02118 0.52122 0.72065 0.0
O270 O 0.04455 0.50234 0.62489 0.0
C271 C 0.99309 0.51521 0.63014 0.0
O272 O 0.0425 0.52973 0.6519 0.0
H273 H 0.02038 0.5363 0.84398 0.0
H274 H 0.02416 0.4789 0.56926 0.0
H275 H 0.01748 0.55895 0.66341 0.0
O276 O 1.00116 0.50001 0.63361 0.0
O277 O 0.9989 0.52731 0.6614 0.0
H278 H 0.02701 0.45527 0.74856 0.0
O279 O 1.00006 0.51223 0.78904 0.0
O280 O 1.00192 0.48491 0.76108 0.0
O281 O 0.04339 0.51467 0.77924 0.0
O282 O 0.04543 0.48728 0.7522 0.0
C283 C 0.99428 0.49633 0.7955 0.0
H284 H 0.02645 0.44987 0.52628 0.0
H285 H 0.02997 0.42553 0.70916 0.0
H286 H 0.01771 0.56565 0.88505 0.0
H287 H 0.01419 0.58888 0.70073 0.0
H288 H 0.21757 0.9719 0.36389 0.0
H289 H 0.18844 0.97747 0.42875 0.0
H290 H 0.20116 0.03317 0.4182 0.0
H291 H 0.23032 0.02768 0.35173 0.0
H292 H 0.18138 0.99227 0.54034 0.0
H293 H 0.14725 0.0325 0.35531 0.0
H294 H 0.16872 0.01931 0.34095 0.0
H295 H 0.1701 0.04014 0.37485 0.0
C296 C 0.21424 0.98535 0.37552 0.0
C297 C 0.22616 0.99938 0.35187 0.0
C298 C 0.1976 0.9885 0.4129 0.0
C299 C 0.19235 0.00578 0.42754 0.0
C300 C 0.20469 0.01976 0.40661 0.0
H301 H 0.09178 0.02343 0.68757 0.0
H302 H 0.1245 0.02371 0.63825 0.0
C303 C 0.22147 0.01659 0.36917 0.0
C304 C 0.17355 0.00895 0.46254 0.0
H305 H 0.12898 0.02786 0.44917 0.0
C306 C 0.16998 1.00021 0.5207 0.0
C307 C 0.15856 0.01911 0.4366 0.0
C308 C 0.16118 0.02821 0.37333 0.0
C309 C 0.15183 1.00112 0.55309 0.0
C310 C 0.13682 0.01124 0.52705 0.0
C311 C 0.14049 0.02021 0.46934 0.0
C312 C 0.11689 0.01171 0.55692 0.0
C313 C 0.14865 0.99063 0.6138 0.0
C314 C 0.10156 0.00533 0.52714 0.0
C315 C 0.08284 0.00523 0.55502 0.0
C316 C 0.07893 0.01162 0.61339 0.0
C317 C 0.09425 0.01832 0.64276 0.0
C318 C 0.11301 0.0184 0.61475 0.0
H319 H 0.1602 0.98056 0.621 0.0
H320 H 0.1485 0.99977 0.6512 0.0
H321 H 0.13461 0.98382 0.61726 0.0
H322 H 0.10412 1.00013 0.48249 0.0
H323 H 0.07145 0.99999 0.53089 0.0
H324 H 0.53575 0.25219 0.40404 0.0
H325 H 0.53147 0.22554 0.47392 0.0
H326 H 0.51517 0.19623 0.32488 0.0
H327 H 0.51901 0.22275 0.25552 0.0
H328 H 0.49241 0.1888 0.43428 0.0
H329 H 0.5706 0.18398 0.46929 0.0
H330 H 0.55875 0.20448 0.48724 0.0
H331 H 0.56112 0.19838 0.40949 0.0
C332 C 0.53095 0.24013 0.3865 0.0
C333 C 0.52796 0.23952 0.32407 0.0
C334 C 0.52868 0.22488 0.42631 0.0
C335 C 0.52334 0.2088 0.40437 0.0
C336 C 0.51943 0.20844 0.34279 0.0
H337 H 0.54163 0.09955 0.51052 0.0
H338 H 0.54139 0.13007 0.46652 0.0
C339 C 0.52175 0.22359 0.3031 0.0
C340 C 0.52258 0.19205 0.44411 0.0
H341 H 0.55103 0.16141 0.51732 0.0
C342 C 0.50517 0.18289 0.45313 0.0
C343 C 0.5393 0.18426 0.46797 0.0
C344 C 0.55857 0.19315 0.45782 0.0
C345 C 0.5041 0.16602 0.48426 0.0
C346 C 0.52086 0.15817 0.50762 0.0
C347 C 0.53818 0.16749 0.49971 0.0
C348 C 0.52109 0.13976 0.53614 0.0
C349 C 0.48523 0.15641 0.48955 0.0
C350 C 0.50994 0.13505 0.59049 0.0
C351 C 0.50995 0.11751 0.61569 0.0
C352 C 0.52113 0.10433 0.587 0.0
C353 C 0.53257 0.10924 0.53325 0.0
C354 C 0.53257 0.12673 0.50826 0.0
H355 H 0.47476 0.16273 0.45879 0.0
H356 H 0.48747 0.14238 0.47854 0.0
H357 H 0.47882 0.15652 0.53726 0.0
H358 H 0.50118 0.14493 0.61335 0.0
H359 H 0.50091 0.11421 0.65696 0.0
H360 H 0.32217 0.54985 0.21135 0.0
H361 H 0.34581 0.54535 0.28792 0.0
H362 H 0.32591 0.49208 0.33152 0.0
H363 H 0.30225 0.49641 0.25459 0.0
H364 H 0.33211 0.51122 0.43574 0.0
H365 H 0.3946 0.5143 0.26371 0.0
H366 H 0.37843 0.533 0.25815 0.0
H367 H 0.37031 0.51141 0.24337 0.0
C368 C 0.3229 0.53713 0.2369 0.0
C369 C 0.31045 0.52343 0.22641 0.0
C370 C 0.33638 0.5346 0.28075 0.0
C371 C 0.33778 0.51831 0.31473 0.0
C372 C 0.32506 0.50475 0.30566 0.0
H373 H 0.43712 0.48377 0.50767 0.0
H374 H 0.40955 0.48559 0.44494 0.0
C375 C 0.31153 0.50727 0.2618 0.0
C376 C 0.35283 0.51531 0.35867 0.0
H377 H 0.40146 0.51418 0.36772 0.0
C378 C 0.34728 0.5118 0.42099 0.0
C379 C 0.37259 0.51584 0.33909 0.0
C380 C 0.37941 0.51868 0.27239 0.0
C381 C 0.36104 0.50914 0.4645 0.0
C382 C 0.3808 0.51023 0.44507 0.0
C383 C 0.3863 0.51345 0.3826 0.0
C384 C 0.39618 0.508 0.48824 0.0
C385 C 0.35434 0.50494 0.53065 0.0
C386 C 0.39767 0.51983 0.53414 0.0
C387 C 0.41344 0.5188 0.57019 0.0
C388 C 0.42809 0.50606 0.56038 0.0
C389 C 0.42619 0.49388 0.51578 0.0
C390 C 0.41042 0.49486 0.48004 0.0
H391 H 0.33937 0.5 0.5356 0.0
H392 H 0.36388 0.49487 0.55252 0.0
H393 H 0.35469 0.51716 0.55565 0.0
H394 H 0.38705 0.53029 0.54048 0.0
H395 H 0.41462 0.52849 0.60371 0.0
H396 H 0.01836 0.27882 0.40224 0.0
H397 H 0.0196 0.30355 0.4687 0.0
H398 H 0.04009 0.33777 0.31343 0.0
H399 H 0.03865 0.3133 0.24705 0.0
H400 H 0.04884 0.3263 0.4951 0.0
H401 H 0.99158 0.36348 0.37704 0.0
H402 H 0.99691 0.34042 0.36635 0.0
H403 H 0.0114 0.35743 0.32553 0.0
C404 C 0.02334 0.29158 0.38257 0.0
C405 C 0.02812 0.29423 0.31934 0.0
C406 C 0.02399 0.30569 0.42048 0.0
C407 C 0.02948 0.3226 0.3957 0.0
C408 C 0.03529 0.32496 0.33322 0.0
H409 H 0.04863 0.42611 0.5087 0.0
H410 H 0.04883 0.39776 0.46177 0.0
C411 C 0.0345 0.31097 0.29538 0.0
C412 C 0.0286 0.33801 0.43418 0.0
H413 H 0.00937 0.3797 0.44283 0.0
C414 C 0.04005 0.3379 0.48419 0.0
C415 C 0.01695 0.35307 0.42025 0.0
C416 C 1.00336 0.35358 0.36977 0.0
C417 C 0.04076 0.35279 0.51889 0.0
C418 C 0.02977 0.36805 0.50307 0.0
C419 C 0.01791 0.36798 0.45436 0.0
C420 C 0.03085 0.38458 0.53476 0.0
C421 C 0.05365 0.35242 0.57108 0.0
C422 C 0.02073 0.38648 0.59153 0.0
C423 C 0.02035 0.40277 0.61824 0.0
C424 C 0.03008 0.41745 0.58847 0.0
C425 C 0.04067 0.41523 0.53237 0.0
C426 C 0.04095 0.399 0.50568 0.0
H427 H 0.0621 0.33986 0.57559 0.0
H428 H 0.06372 0.36369 0.56429 0.0
H429 H 0.0448 0.35402 0.61451 0.0
H430 H 0.0127 0.3755 0.61429 0.0
H431 H 0.0119 0.40403 0.6611 0.0
H432 H 0.80384 0.99764 0.97118 0.0
H433 H 0.83383 1.00375 0.90738 0.0
H434 H 0.86679 0.98828 0.06101 0.0
H435 H 0.83714 0.98251 0.12496 0.0
H436 H 0.86904 0.02635 0.93136 0.0
H437 H 0.88333 0.95416 0.91772 0.0
H438 H 0.85956 0.96317 0.93566 0.0
H439 H 0.87673 0.96142 0.99278 0.0
C440 C 0.81747 0.9959 0.99164 0.0
C441 C 0.81806 0.98932 0.053 0.0
C442 C 0.83459 0.99931 0.95506 0.0
C443 C 0.85255 0.99618 0.97924 0.0
C444 C 0.85311 0.99053 0.04116 0.0
H445 H 0.97118 0.01886 0.86401 0.0
H446 H 0.93859 0.01732 0.91331 0.0
C447 C 0.83612 0.98719 0.0776 0.0
C448 C 0.87081 0.99789 0.93981 0.0
H449 H 0.90866 0.9734 0.8813 0.0
C450 C 0.87764 0.01479 0.91991 0.0
C451 C 0.88196 0.9828 0.92449 0.0
C452 C 0.87504 0.96432 0.94325 0.0
C453 C 0.89562 0.01699 0.88674 0.0
C454 C 0.90713 1.00189 0.87354 0.0
C455 C 0.89995 0.98498 0.8917 0.0
C456 C 0.92684 1.0033 0.84233 0.0
C457 C 0.90217 0.03545 0.86604 0.0
C458 C 0.93128 0.99563 0.78647 0.0
C459 C 0.94996 0.99646 0.75809 0.0
C460 C 0.96471 0.00479 0.78538 0.0
C461 C 0.96023 0.01235 0.84157 0.0
C462 C 0.94152 0.01161 0.86967 0.0
H463 H 0.88991 0.04504 0.86529 0.0
H464 H 0.91233 0.03988 0.89823 0.0
H465 H 0.90974 0.03575 0.81972 0.0
H466 H 0.92024 0.98903 0.76469 0.0
H467 H 0.95287 0.99047 0.71494 0.0
H468 H 0.55813 0.79125 0.11369 0.0
H469 H 0.54998 0.8197 0.06202 0.0
H470 H 0.52961 0.79272 0.91323 0.0
H471 H 0.53766 0.76404 0.96534 0.0
H472 H 0.56615 0.83224 0.95067 0.0
H473 H 0.48678 0.82935 0.94555 0.0
H474 H 0.50018 0.81443 0.99482 0.0
H475 H 0.49985 0.81087 0.91495 0.0
C476 C 0.55172 0.79134 0.07025 0.0
C477 C 0.54865 0.77539 0.04338 0.0
C478 C 0.54704 0.80763 0.04079 0.0
C479 C 0.53913 0.8084 0.98377 0.0
C480 C 0.53541 0.79247 0.95764 0.0
H481 H 0.54553 0.90527 0.74037 0.0
H482 H 0.5481 0.8746 0.78244 0.0
C483 C 0.54002 0.77609 0.9874 0.0
C484 C 0.53619 0.82594 0.95043 0.0
H485 H 0.50216 0.85401 0.89173 0.0
C486 C 0.55216 0.83697 0.93764 0.0
C487 C 0.51792 0.83217 0.93382 0.0
C488 C 0.50014 0.82119 0.94835 0.0
C489 C 0.55036 0.85407 0.90926 0.0
C490 C 0.53214 0.86024 0.89195 0.0
C491 C 0.51615 0.8492 0.90449 0.0
C492 C 0.52933 0.87845 0.86348 0.0
C493 C 0.56792 0.86557 0.89982 0.0
C494 C 0.51738 0.89067 0.89384 0.0
C495 C 0.51572 0.90818 0.86959 0.0
C496 C 0.52593 0.91387 0.81423 0.0
C497 C 0.53739 0.9014 0.78289 0.0
C498 C 0.53903 0.88387 0.8072 0.0
H499 H 0.57958 0.86053 0.92848 0.0
H500 H 0.57353 0.86573 0.85121 0.0
H501 H 0.56431 0.87941 0.91072 0.0
H502 H 0.50966 0.88677 0.93712 0.0
H503 H 0.50647 0.9173 0.89443 0.0
H504 H 0.73992 0.51017 0.15806 0.0
H505 H 0.71529 0.50201 0.09163 0.0
H506 H 0.71349 0.55572 0.01256 0.0
H507 H 0.73852 0.56382 0.07692 0.0
H508 H 0.67879 0.5151 0.08914 0.0
H509 H 0.71712 0.52774 0.8613 0.0
H510 H 0.72938 0.52615 0.93105 0.0
H511 H 0.71753 0.5465 0.90682 0.0
C512 C 0.73453 0.52016 0.12572 0.0
C513 C 0.7412 0.53766 0.12285 0.0
C514 C 0.7204 0.5155 0.08801 0.0
C515 C 0.71277 0.52818 0.04642 0.0
C516 C 0.71946 0.54561 0.04328 0.0
H517 H 0.60249 0.53563 0.90219 0.0
H518 H 0.63146 0.53746 0.95713 0.0
C519 C 0.73358 0.55028 0.08082 0.0
C520 C 0.69689 0.52361 0.00924 0.0
H521 H 0.68263 0.52619 0.86344 0.0
C522 C 0.67972 0.5173 0.03973 0.0
C523 C 0.69819 0.52621 0.94467 0.0
C524 C 0.71663 0.53184 0.90898 0.0
C525 C 0.66355 0.51434 0.00769 0.0
C526 C 0.66445 0.51811 0.94359 0.0
C527 C 0.68189 0.52357 0.9127 0.0
C528 C 0.64719 0.51722 0.90847 0.0
C529 C 0.64557 0.50733 0.04287 0.0
C530 C 0.64668 0.50569 0.86126 0.0
C531 C 0.63009 0.50462 0.82955 0.0
C532 C 0.61377 0.51513 0.84449 0.0
C533 C 0.61463 0.52706 0.89052 0.0
C534 C 0.63117 0.52812 0.92201 0.0
H535 H 0.64886 0.50027 0.08697 0.0
H536 H 0.63571 0.51859 0.05328 0.0
H537 H 0.63797 0.49816 0.01586 0.0
H538 H 0.65897 0.49727 0.8498 0.0
H539 H 0.62985 0.49526 0.7945 0.0
H540 H 0.96552 0.709 0.10603 0.0
H541 H 0.97729 0.68272 0.05578 0.0
H542 H 0.00782 0.71577 0.91443 0.0
H543 H 0.99569 0.7423 0.96406 0.0
H544 H 0.98543 0.68985 0.86968 0.0
H545 H 0.03087 0.65998 0.04666 0.0
H546 H 0.0071 0.66549 0.0771 0.0
H547 H 0.02286 0.68283 0.0452 0.0
C548 C 0.97479 0.71071 0.06433 0.0
C549 C 0.97961 0.72774 0.03887 0.0
C550 C 0.98168 0.69566 0.03602 0.0
C551 C 0.99365 0.69727 0.98182 0.0
C552 C 0.99872 0.71424 0.95653 0.0
H553 H 0.03148 0.61115 0.74791 0.0
H554 H 0.02766 0.64044 0.78878 0.0
C555 C 0.99187 0.72936 0.98505 0.0
C556 C 0.99977 0.68118 0.95013 0.0
H557 H 0.02116 0.64053 0.97307 0.0
C558 C 0.99353 0.67917 0.89174 0.0
C559 C 0.01036 0.66729 0.97901 0.0
C560 C 0.01836 0.66905 0.0402 0.0
C561 C 0.99672 0.66326 0.86286 0.0
C562 C 1.00661 0.64911 0.89295 0.0
C563 C 0.01347 0.65137 0.9503 0.0
C564 C 0.009 0.6315 0.86742 0.0
C565 C 0.98872 0.66139 0.80172 0.0
C566 C 0.99997 0.61675 0.89846 0.0
C567 C 1.00205 0.60005 0.87519 0.0
C568 C 0.01334 0.59769 0.82051 0.0
C569 C 0.02245 0.61252 0.7896 0.0
C570 C 0.02032 0.62927 0.81293 0.0
H571 H 0.97852 0.67233 0.78986 0.0
H572 H 1.00072 0.66156 0.7656 0.0
H573 H 0.98123 0.64859 0.8015 0.0
H574 H 0.99114 0.6182 0.94053 0.0
H575 H 0.99458 0.58902 0.89974 0.0
H576 H 0.06441 0.18247 0.39442 0.0
H577 H 0.0539 0.15757 0.46431 0.0
H578 H 0.99538 0.17714 0.4643 0.0
H579 H 1.00577 0.20167 0.3914 0.0
H580 H 0.03551 0.15026 0.57231 0.0
H581 H 0.99073 0.1305 0.38982 0.0
H582 H 0.00714 0.14871 0.37813 0.0
H583 H 0.98423 0.15141 0.41994 0.0
C584 C 0.04937 0.18171 0.41054 0.0
C585 C 0.03585 0.19377 0.38648 0.0
C586 C 0.04335 0.16747 0.4505 0.0
C587 C 0.02374 0.16512 0.46774 0.0
C588 C 0.01051 0.17837 0.44989 0.0
H589 H 0.99919 0.0684 0.70276 0.0
H590 H 0.99825 0.09943 0.66383 0.0
C591 C 0.0165 0.19256 0.4091 0.0
C592 C 0.01735 0.14792 0.49843 0.0
H593 H 0.99236 0.11077 0.47621 0.0
C594 C 0.02589 0.14169 0.55178 0.0
C595 C 1.00507 0.13662 0.47078 0.0
C596 C 0.99637 0.14202 0.41125 0.0
C597 C 0.02311 0.1243 0.577 0.0
C598 C 0.01078 0.11302 0.54948 0.0
C599 C 1.00168 0.11946 0.49742 0.0
C600 C 0.00831 0.09412 0.57123 0.0
C601 C 0.03436 0.11794 0.63065 0.0
C602 C 0.0128 0.08068 0.53109 0.0
C603 C 0.01271 0.06286 0.55286 0.0
C604 C 0.0084 0.05829 0.61523 0.0
C605 C 1.0028 0.07164 0.65452 0.0
C606 C 1.00244 0.08938 0.63249 0.0
H607 H 0.04686 0.12651 0.63528 0.0
H608 H 0.0249 0.11825 0.67343 0.0
H609 H 0.03975 0.10416 0.62612 0.0
H610 H 0.01721 0.08402 0.48345 0.0
H611 H 0.01714 0.0528 0.52177 0.0
H612 H 0.33043 0.98087 0.39094 0.0
H613 H 0.35723 0.97596 0.45698 0.0
H614 H 0.36813 0.03202 0.44236 0.0
H615 H 0.34147 0.03694 0.37653 0.0
H616 H 0.39796 0.00486 0.3884 0.0
H617 H 0.37327 0.99221 0.63438 0.0
H618 H 0.36008 0.98347 0.57572 0.0
H619 H 0.35989 0.00684 0.58396 0.0
C620 C 0.33792 0.9922 0.40457 0.0
C621 C 0.33392 0.00929 0.37899 0.0
C622 C 0.35328 0.98938 0.44187 0.0
C623 C 0.36463 1.00364 0.45422 0.0
C624 C 0.35945 0.02088 0.43352 0.0
H625 H 0.47604 0.02748 0.55334 0.0
H626 H 0.44513 0.02533 0.50967 0.0
C627 C 0.34417 0.0237 0.39629 0.0
C628 C 0.38371 1.00045 0.47829 0.0
H629 H 0.40677 0.99276 0.60933 0.0
C630 C 0.39992 1.00208 0.43666 0.0
C631 C 0.38611 0.99657 0.54097 0.0
C632 C 0.36899 0.99465 0.5868 0.0
C633 C 0.41857 1.00044 0.45631 0.0
C634 C 0.42106 0.99745 0.51946 0.0
C635 C 0.40482 0.9951 0.56094 0.0
C636 C 0.44031 0.99813 0.54351 0.0
C637 C 0.43544 1.00205 0.40926 0.0
C638 C 0.44787 0.98354 0.57726 0.0
C639 C 0.46564 0.98471 0.60241 0.0
C640 C 0.47601 1.00058 0.59475 0.0
C641 C 0.46851 0.01503 0.55987 0.0
C642 C 0.45084 0.01382 0.53471 0.0
H643 H 0.43137 0.99878 0.36346 0.0
H644 H 0.44053 0.01592 0.40529 0.0
H645 H 0.44755 0.99322 0.42257 0.0
H646 H 0.43991 0.97133 0.58471 0.0
H647 H 0.47093 0.9734 0.62947 0.0
H648 H 0.49693 0.34911 0.39611 0.0
H649 H 0.50595 0.3709 0.46549 0.0
H650 H 0.56517 0.35365 0.44207 0.0
H651 H 0.55618 0.33191 0.37154 0.0
H652 H 0.52609 0.37167 0.57301 0.0
H653 H 0.56525 0.40532 0.36802 0.0
H654 H 0.54908 0.38732 0.36204 0.0
H655 H 0.57244 0.38295 0.38936 0.0
C656 C 0.51177 0.34959 0.40734 0.0
C657 C 0.52589 0.33897 0.3782 0.0
C658 C 0.51692 0.36204 0.44689 0.0
C659 C 0.53628 0.36414 0.45783 0.0
C660 C 0.55019 0.35241 0.4334 0.0
H661 H 0.5651 0.45926 0.64697 0.0
H662 H 0.56981 0.4298 0.60685 0.0
C663 C 0.54502 0.33987 0.39374 0.0
C664 C 0.54178 0.38001 0.48817 0.0
H665 H 0.56072 0.42122 0.45569 0.0
C666 C 0.5341 0.38234 0.54798 0.0
C667 C 0.55205 0.39399 0.45504 0.0
C668 C 0.56012 0.39244 0.38993 0.0
C669 C 0.53567 0.39857 0.57445 0.0
C670 C 0.54508 0.41275 0.54017 0.0
C671 C 0.55366 0.41018 0.48177 0.0
C672 C 0.54348 0.43094 0.56059 0.0
C673 C 0.5263 0.40088 0.63752 0.0
C674 C 0.52741 0.44135 0.54632 0.0
C675 C 0.52469 0.45806 0.56882 0.0
C676 C 0.53804 0.46472 0.60606 0.0
C677 C 0.55461 0.45454 0.61818 0.0
C678 C 0.55729 0.43771 0.59563 0.0
H679 H 0.52145 0.38809 0.66097 0.0
H680 H 0.53648 0.40707 0.66596 0.0
H681 H 0.51365 0.40992 0.63396 0.0
H682 H 0.51667 0.43632 0.51904 0.0
H683 H 0.51181 0.46555 0.55843 0.0
H684 H 0.19366 0.48964 0.29893 0.0
H685 H 0.16927 0.49671 0.37947 0.0
H686 H 0.18698 0.55123 0.36281 0.0
H687 H 0.21127 0.54426 0.28091 0.0
H688 H 0.16864 0.51273 0.4925 0.0
H689 H 0.13073 0.55338 0.31558 0.0
H690 H 0.1505 0.53866 0.29556 0.0
H691 H 0.15496 0.55927 0.32746 0.0
C692 C 0.19262 0.50305 0.3134 0.0
C693 C 0.20414 0.51645 0.28335 0.0
C694 C 0.17873 0.50707 0.35944 0.0
C695 C 0.1761 0.52455 0.37613 0.0
C696 C 0.18863 0.53771 0.34978 0.0
H697 H 0.07002 0.54951 0.60337 0.0
H698 H 0.10153 0.55452 0.54784 0.0
C699 C 0.2026 0.53368 0.30356 0.0
C700 C 0.15893 0.52895 0.41612 0.0
H701 H 0.11369 0.54683 0.40995 0.0
C702 C 0.15678 0.52054 0.47506 0.0
C703 C 0.14346 0.5391 0.393 0.0
C704 C 0.14485 0.54808 0.32936 0.0
C705 C 0.13921 0.5212 0.51021 0.0
C706 C 0.12345 0.5304 0.48549 0.0
C707 C 0.1259 0.53981 0.42842 0.0
C708 C 0.10384 0.52828 0.51466 0.0
C709 C 0.13727 0.51135 0.57233 0.0
C710 C 0.09457 0.51212 0.5121 0.0
C711 C 0.07663 0.50926 0.54304 0.0
C712 C 0.06764 0.52251 0.57734 0.0
C713 C 0.07657 0.53905 0.57732 0.0
C714 C 0.09457 0.54192 0.54597 0.0
H715 H 0.1515 0.50831 0.59046 0.0
H716 H 0.12847 0.51915 0.60543 0.0
H717 H 0.12986 0.49865 0.5687 0.0
H718 H 0.10148 0.50155 0.48738 0.0
H719 H 0.07015 0.49641 0.54184 0.0
H720 H 0.04413 0.82634 0.06665 0.0
H721 H 0.05449 0.85217 -0.00014 0.0
H722 H 1.00443 0.84807 0.89823 0.0
H723 H 0.99391 0.82235 0.96506 0.0
H724 H 0.05686 0.86316 0.85686 0.0
H725 H 1.00002 0.8939 0.00878 0.0
H726 H 0.01121 0.87283 0.02921 0.0
H727 H 0.99364 0.87429 0.9734 0.0
C728 C 0.0358 0.83049 0.02835 0.0
C729 C 0.01813 0.82249 0.02135 0.0
C730 C 0.04173 0.84523 0.9903 0.0
C731 C 0.03007 0.85209 0.94484 0.0
C732 C 0.01358 0.84291 0.93323 0.0
H733 H 0.03041 0.94543 0.70218 0.0
H734 H 0.03329 0.91538 0.74811 0.0
C735 C 0.00766 0.82814 0.97118 0.0
C736 C 0.03299 0.87038 0.91829 0.0
H737 H 0.01482 0.91231 0.92898 0.0
C738 C 0.04774 0.87395 0.87249 0.0
C739 C 0.02131 0.88442 0.94002 0.0
C740 C 1.00571 0.88131 0.99086 0.0
C741 C 0.05071 0.89127 0.84639 0.0
C742 C 0.03851 0.90521 0.86656 0.0
C743 C 0.02416 0.90163 0.91364 0.0
C744 C 0.03941 0.92342 0.83715 0.0
C745 C 0.06689 0.89453 0.79774 0.0
C746 C 0.0418 0.93799 0.87207 0.0
C747 C 0.04002 0.9553 0.84601 0.0
C748 C 0.03558 0.95828 0.78478 0.0
C749 C 0.03379 0.94363 0.74955 0.0
C750 C 0.03563 0.92639 0.77553 0.0
H751 H 0.07819 0.88402 0.80069 0.0
H752 H 0.06113 0.89447 0.75203 0.0
H753 H 0.07356 0.90758 0.8014 0.0
H754 H 0.04456 0.93595 0.91993 0.0
H755 H 0.04147 0.96629 0.87433 0.0
H756 H 0.70489 0.04373 0.04909 0.0
H757 H 0.67807 0.04804 0.98347 0.0
H758 H 0.6869 0.99505 0.92549 0.0
H759 H 0.71378 0.99068 0.99108 0.0
H760 H 0.67262 0.02389 0.8324 0.0
H761 H 0.63107 0.0161 0.05879 0.0
H762 H 0.64937 0.03269 0.0503 0.0
H763 H 0.6561 0.00973 0.04828 0.0
C764 C 0.70167 0.03332 0.02011 0.0
C765 C 0.71131 0.01685 0.02525 0.0
C766 C 0.68629 0.03575 0.983 0.0
C767 C 0.68035 0.02175 0.95061 0.0
C768 C 0.6913 0.00599 0.95026 0.0
H769 H 0.56934 0.99164 0.85211 0.0
H770 H 0.60065 0.99433 0.89352 0.0
C771 C 0.70674 1.00356 0.98735 0.0
C772 C 0.66113 0.02242 0.92612 0.0
H773 H 0.6133 0.02045 0.97202 0.0
C774 C 0.65962 0.02328 0.86272 0.0
C775 C 0.64425 0.02134 0.96607 0.0
C776 C 0.64514 0.01979 0.03469 0.0
C777 C 0.64156 0.02315 0.83818 0.0
C778 C 0.6247 0.02221 0.87822 0.0
C779 C 0.62626 0.02133 0.94156 0.0
C780 C 0.60533 0.02115 0.85543 0.0
C781 C 0.64062 0.02354 0.76976 0.0
C782 C 0.59733 0.03556 0.82196 0.0
C783 C 0.57933 0.03414 0.79869 0.0
C784 C 0.56906 0.01824 0.80833 0.0
C785 C 0.57686 0.00406 0.84377 0.0
C786 C 0.59478 0.00555 0.86732 0.0
H787 H 0.65494 0.0212 0.74581 0.0
H788 H 0.63055 0.01337 0.75756 0.0
H789 H 0.63512 0.03669 0.75285 0.0
H790 H 0.60514 0.04782 0.8132 0.0
H791 H 0.57376 0.04529 0.77146 0.0
H792 H 0.53832 0.68016 0.97363 0.0
H793 H 0.52823 0.65754 0.90899 0.0
H794 H 0.47333 0.65444 0.01307 0.0
H795 H 0.48364 0.67676 0.07874 0.0
H796 H 0.49157 0.62349 0.01708 0.0
H797 H 0.49356 0.64933 0.77557 0.0
H798 H 0.51529 0.65424 0.80941 0.0
H799 H 0.49279 0.66375 0.83795 0.0
C800 C 0.52377 0.67527 0.98075 0.0
C801 C 0.51174 0.68017 0.03104 0.0
C802 C 0.51799 0.66231 0.94376 0.0
C803 C 0.49998 0.65427 0.956 0.0
C804 C 0.48727 0.66045 0.00269 0.0
H805 H 0.477 0.55958 0.75968 0.0
H806 H 0.47147 0.58819 0.80508 0.0
C807 C 0.49311 0.67326 0.03997 0.0
C808 C 0.496 0.63746 0.92837 0.0
H809 H 0.49828 0.6175 0.79322 0.0
C810 C 0.4926 0.6223 0.96804 0.0
C811 C 0.49722 0.63583 0.86445 0.0
C812 C 0.49971 0.65171 0.81944 0.0
C813 C 0.49154 0.60546 0.94573 0.0
C814 C 0.49422 0.60367 0.88212 0.0
C815 C 0.49643 0.6189 0.8421 0.0
C816 C 0.49666 0.58603 0.85705 0.0
C817 C 0.48813 0.58964 0.99059 0.0
C818 C 0.51257 0.57537 0.87155 0.0
C819 C 0.51577 0.55914 0.8458 0.0
C820 C 0.50312 0.55321 0.80492 0.0
C821 C 0.48691 0.56372 0.79145 0.0
C822 C 0.48379 0.58009 0.817 0.0
H823 H 0.48088 0.59355 0.03447 0.0
H824 H 0.47925 0.57963 0.97151 0.0
H825 H 0.50216 0.58336 0.00059 0.0
H826 H 0.52281 0.57982 0.90174 0.0
H827 H 0.52842 0.55141 0.857 0.0
H828 H 0.84392 0.47263 0.17759 0.0
H829 H 0.86966 0.46304 0.10456 0.0
H830 H 0.86534 0.51302 -0.00071 0.0
H831 H 0.83945 0.52251 0.07141 0.0
H832 H 0.87566 0.48413 0.92721 0.0
H833 H 0.92058 0.48757 0.1253 0.0
H834 H 0.90108 0.47224 0.13551 0.0
H835 H 0.89607 0.49562 0.12703 0.0
C836 C 0.84804 0.48128 0.13764 0.0
C837 C 0.83989 0.49837 0.13036 0.0
C838 C 0.86277 0.47584 0.09621 0.0
C839 C 0.8697 0.48752 0.04755 0.0
C840 C 0.86024 0.50385 0.03677 0.0
H841 H 0.97698 0.51685 0.88118 0.0
H842 H 0.94695 0.51119 0.94284 0.0
C843 C 0.8454 0.50924 0.07786 0.0
C844 C 0.88834 0.48407 0.01352 0.0
H845 H 0.93663 0.48288 0.03047 0.0
C846 C 0.88901 0.48352 0.94973 0.0
C847 C 0.90571 0.48355 0.04323 0.0
C848 C 0.90597 0.48491 0.11143 0.0
C849 C 0.90664 0.48307 0.91454 0.0
C850 C 0.92396 0.48296 0.94424 0.0
C851 C 0.92328 0.48281 0.00813 0.0
C852 C 0.94283 0.48537 0.90967 0.0
C853 C 0.90666 0.48373 0.84576 0.0
C854 C 0.95072 0.47247 0.87192 0.0
C855 C 0.96799 0.47564 0.83659 0.0
C856 C 0.97755 0.49178 0.83855 0.0
C857 C 0.96995 0.50432 0.8784 0.0
C858 C 0.95279 0.50112 0.91368 0.0
H859 H 0.89206 0.48622 0.8297 0.0
H860 H 0.91636 0.49428 0.82462 0.0
H861 H 0.91212 0.47091 0.82934 0.0
H862 H 0.94336 0.46012 0.86901 0.0
H863 H 0.97349 0.46572 0.80633 0.0
H864 H 0.03421 0.19912 0.12108 0.0
H865 H 0.03974 0.17442 0.05531 0.0
H866 H 0.09175 0.16023 0.14276 0.0
H867 H 0.08594 0.18465 0.20981 0.0
H868 H 0.06817 0.16081 0.97522 0.0
H869 H 0.05742 0.1178 0.1902 0.0
H870 H 0.05316 0.1414 0.18761 0.0
H871 H 0.0773 0.13262 0.18759 0.0
C872 C 0.04718 0.19113 0.12464 0.0
C873 C 0.05958 0.19365 0.1707 0.0
C874 C 0.05028 0.17696 0.08731 0.0
C875 C 0.06587 0.16522 0.09537 0.0
C876 C 0.07938 0.16889 0.13685 0.0
H877 H 0.07892 0.07233 0.87292 0.0
H878 H 0.08683 0.09877 0.92393 0.0
C879 C 0.07617 0.18292 0.17467 0.0
C880 C 0.06652 0.14812 0.06605 0.0
H881 H 0.06213 0.10353 0.09876 0.0
C882 C 0.06707 0.14825 0.00207 0.0
C883 C 0.06475 0.13177 0.10141 0.0
C884 C 0.06294 0.1308 0.17048 0.0
C885 C 0.06554 0.1325 0.97248 0.0
C886 C 0.06378 0.11618 0.00792 0.0
C887 C 0.06368 0.11604 0.07176 0.0
C888 C 0.06008 0.09935 0.98033 0.0
C889 C 0.06488 0.13356 0.90384 0.0
C890 C 0.04286 0.09041 0.99731 0.0
C891 C 0.03846 0.07519 0.96912 0.0
C892 C 0.05119 0.06856 0.92324 0.0
C893 C 0.06886 0.07705 0.9083 0.0
C894 C 0.07328 0.0923 0.93675 0.0
H895 H 0.06239 0.14734 0.88492 0.0
H896 H 0.07881 0.12877 0.88287 0.0
H897 H 0.05336 0.12507 0.89014 0.0
H898 H 0.03254 0.09552 0.03127 0.0
H899 H 0.02487 0.06881 0.98234 0.0
H900 H 0.33175 0.9961 0.11399 0.0
H901 H 0.35889 0.99769 0.03594 0.0
H902 H 0.37754 0.04573 0.1065 0.0
H903 H 0.3505 0.04426 0.18421 0.0
H904 H 0.37444 0.02535 0.94352 0.0
H905 H 0.42202 0.00845 0.13169 0.0
H906 H 0.39631 0.00556 0.14073 0.0
H907 H 0.40624 0.02723 0.14233 0.0
C908 C 0.34126 0.00732 0.11147 0.0
C909 C 0.33908 0.01999 0.1555 0.0
C910 C 0.35684 0.00814 0.06716 0.0
C911 C 0.37045 0.02163 0.06627 0.0
C912 C 0.36739 0.03506 0.107 0.0
H913 H 0.47006 0.04403 0.80796 0.0
H914 H 0.44014 0.04601 0.87319 0.0
C915 C 0.35189 0.03424 0.15116 0.0
C916 C 0.38869 0.02088 0.02682 0.0
H917 H 0.43725 0.01506 0.03335 0.0
C918 C 0.38818 0.02313 0.96304 0.0
C919 C 0.40659 0.01771 0.0524 0.0
C920 C 0.40793 0.01444 0.12049 0.0
C921 C 0.40516 0.02258 0.92421 0.0
C922 C 0.4231 0.01985 0.94995 0.0
C923 C 0.42353 0.01734 0.01368 0.0
C924 C 0.44156 0.01895 0.91155 0.0
C925 C 0.40374 0.02457 0.85593 0.0
C926 C 0.45267 1.00329 0.91293 0.0
C927 C 0.46982 1.00213 0.87598 0.0
C928 C 0.47635 0.01669 0.83715 0.0
C929 C 0.46549 0.03256 0.83729 0.0
C930 C 0.44827 0.03367 0.87412 0.0
H931 H 0.38884 0.02259 0.84329 0.0
H932 H 0.40816 0.03812 0.83869 0.0
H933 H 0.41347 0.01497 0.83259 0.0
H934 H 0.44787 0.9918 0.94178 0.0
H935 H 0.47778 0.98969 0.87713 0.0
H936 H 0.48039 0.35623 0.21927 0.0
H937 H 0.47438 0.3805 0.14326 0.0
H938 H 0.52332 0.36338 0.02932 0.0
H939 H 0.52911 0.33889 0.10473 0.0
H940 H 0.49871 0.40679 0.1151 0.0
H941 H 0.48554 0.37543 0.90236 0.0
H942 H 0.48457 0.36321 0.97602 0.0
H943 H 0.50732 0.36737 0.93373 0.0
C944 C 0.48953 0.35737 0.17716 0.0
C945 C 0.5052 0.34567 0.16783 0.0
C946 C 0.48611 0.37126 0.13383 0.0
C947 C 0.49831 0.37376 0.08028 0.0
C948 C 0.51342 0.36153 0.06948 0.0
H949 H 0.5327 0.47066 0.88439 0.0
H950 H 0.52773 0.44439 0.95385 0.0
C951 C 0.51674 0.34753 0.11266 0.0
C952 C 0.49668 0.39025 0.03986 0.0
H953 H 0.49486 0.40604 0.89089 0.0
C954 C 0.49758 0.40659 0.06619 0.0
C955 C 0.49503 0.39008 0.9761 0.0
C956 C 0.49285 0.37308 0.94548 0.0
C957 C 0.49763 0.42268 0.03037 0.0
C958 C 0.49714 0.42246 0.96622 0.0
C959 C 0.49543 0.4062 0.94004 0.0
C960 C 0.49954 0.43887 0.9254 0.0
C961 C 0.49832 0.43977 0.06164 0.0
C962 C 0.48541 0.44447 0.88567 0.0
C963 C 0.48823 0.45957 0.84553 0.0
C964 C 0.50532 0.46922 0.84405 0.0
C965 C 0.51931 0.46365 0.88448 0.0
C966 C 0.51647 0.44863 0.92449 0.0
H967 H 0.49266 0.43808 0.11026 0.0
H968 H 0.51347 0.44404 0.06075 0.0
H969 H 0.48991 0.45045 0.03812 0.0
H970 H 0.47228 0.43707 0.88542 0.0
H971 H 0.47724 0.4634 0.81467 0.0
H972 H 0.20926 0.52095 0.01208 0.0
H973 H 0.18317 0.5155 0.94709 0.0
H974 H 0.16894 0.46768 0.05808 0.0
H975 H 0.19475 0.47327 0.12377 0.0
H976 H 0.17009 0.48758 0.87987 0.0
H977 H 0.12164 0.50034 0.08516 0.0
H978 H 0.14707 0.50459 0.0809 0.0
H979 H 0.1385 0.48235 0.09567 0.0
C980 C 0.201 0.50895 0.02117 0.0
C981 C 0.20385 0.49759 0.07308 0.0
C982 C 0.18606 0.50589 0.98426 0.0
C983 C 0.17387 0.49141 0.99874 0.0
C984 C 0.17796 0.47911 0.0469 0.0
H985 H 0.07458 0.46979 0.79161 0.0
H986 H 0.10441 0.46624 0.84389 0.0
C987 C 0.19275 0.48224 0.08408 0.0
C988 C 0.15563 0.49045 0.96864 0.0
H989 H 0.10692 0.49382 0.99665 0.0
C990 C 0.15625 0.48879 0.90533 0.0
C991 C 0.13763 0.49236 0.00198 0.0
C992 C 0.13606 0.49517 0.06957 0.0
C993 C 0.1393 0.48905 0.87438 0.0
C994 C 0.12132 0.49079 0.90792 0.0
C995 C 0.12073 0.4923 0.97124 0.0
C996 C 0.10298 0.49244 0.87782 0.0
C997 C 0.14077 0.48812 0.80583 0.0
C998 C 0.09198 0.50808 0.88143 0.0
C999 C 0.0749 0.5101 0.85221 0.0
C1000 C 0.06843 0.49646 0.8189 0.0
C1001 C 0.07918 0.48055 0.81685 0.0
C1002 C 0.09632 0.47856 0.84617 0.0
H1003 H 0.15566 0.49043 0.78562 0.0
H1004 H 0.13642 0.47478 0.79449 0.0
H1005 H 0.131 0.49804 0.78419 0.0
H1006 H 0.09681 0.51891 0.90598 0.0
H1007 H 0.06698 0.52251 0.85482 0.0
H1008 H 0.01959 0.82461 0.25174 0.0
H1009 H 0.01374 0.84799 0.32271 0.0
H1010 H 0.95324 0.84771 0.29422 0.0
H1011 H 0.95906 0.82425 0.22308 0.0
H1012 H 0.97168 0.8808 0.26539 0.0
H1013 H 0.98746 0.85265 0.49618 0.0
H1014 H 1.00527 0.8472 0.43688 0.0
H1015 H 0.98125 0.83907 0.43622 0.0
C1016 C 1.00496 0.82911 0.26241 0.0
C1017 C 0.98976 0.82262 0.23222 0.0
C1018 C 1.00162 0.84242 0.303 0.0
C1019 C 0.98304 0.84951 0.31394 0.0
C1020 C 0.96765 0.8423 0.28671 0.0
H1021 H 0.96733 0.9408 0.54124 0.0
H1022 H 0.96012 0.9136 0.49295 0.0
C1023 C 0.97096 0.82883 0.24649 0.0
C1024 C 0.98037 0.86601 0.34631 0.0
H1025 H 0.98899 0.88434 0.47906 0.0
C1026 C 0.97508 0.88153 0.31251 0.0
C1027 C 0.98478 0.86691 0.40773 0.0
C1028 C 0.98984 0.85054 0.44665 0.0
C1029 C 0.97513 0.8981 0.33753 0.0
C1030 C 0.98063 0.89912 0.39772 0.0
C1031 C 0.98487 0.8835 0.43272 0.0
C1032 C 0.98365 0.91634 0.42333 0.0
C1033 C 0.96982 0.91446 0.29893 0.0
C1034 C 0.99912 0.9269 0.3996 0.0
C1035 C 1.00331 0.94232 0.42713 0.0
C1036 C 0.99202 0.9475 0.47869 0.0
C1037 C 0.9761 0.93724 0.50103 0.0
C1038 C 0.97205 0.92167 0.47385 0.0
H1039 H 0.96162 0.91116 0.25986 0.0
H1040 H 0.96113 0.92382 0.32681 0.0
H1041 H 0.98315 0.92128 0.28027 0.0
H1042 H 0.00835 0.92289 0.361 0.0
H1043 H 0.01566 0.94999 0.40905 0.0
H1044 H 0.70914 0.97697 0.26899 0.0
H1045 H 0.68187 0.97478 0.34658 0.0
H1046 H 0.67094 0.03086 0.31751 0.0
H1047 H 0.69805 0.03312 0.24023 0.0
H1048 H 0.67 0.99355 0.45737 0.0
H1049 H 0.62158 0.00654 0.2694 0.0
H1050 H 0.64657 1.00034 0.25579 0.0
H1051 H 0.63998 0.02271 0.27171 0.0
C1052 C 0.70129 0.98891 0.28064 0.0
C1053 C 0.70565 0.0052 0.24827 0.0
C1054 C 0.68563 0.98762 0.32461 0.0
C1055 C 0.67412 1.00259 0.33678 0.0
C1056 C 0.6794 0.01909 0.308 0.0
H1057 H 0.56745 0.0295 0.53139 0.0
H1058 H 0.59719 0.02769 0.46618 0.0
C1059 C 0.69496 0.02038 0.26414 0.0
C1060 C 0.65577 1.0009 0.37565 0.0
H1061 H 0.60717 0.00661 0.37057 0.0
C1062 C 0.65623 0.99624 0.43846 0.0
C1063 C 0.63782 0.00433 0.35076 0.0
C1064 C 0.63634 0.00861 0.28314 0.0
C1065 C 0.63925 0.99565 0.47746 0.0
C1066 C 0.62132 0.99947 0.45268 0.0
C1067 C 0.62089 1.00371 0.38961 0.0
C1068 C 0.60292 1.00007 0.49158 0.0
C1069 C 0.64071 0.9916 0.54515 0.0
C1070 C 0.5959 0.98501 0.5266 0.0
C1071 C 0.57877 0.98598 0.56405 0.0
C1072 C 0.56829 1.00203 0.56701 0.0
C1073 C 0.5751 0.01692 0.53041 0.0
C1074 C 0.59217 0.01593 0.49308 0.0
H1075 H 0.65565 0.99289 0.55846 0.0
H1076 H 0.63114 1.00056 0.57201 0.0
H1077 H 0.63612 0.97779 0.55766 0.0
H1078 H 0.60371 0.97253 0.52519 0.0
H1079 H 0.57396 0.97426 0.59155 0.0
H1080 H 0.56388 0.67528 0.2401 0.0
H1081 H 0.56807 0.65095 0.3181 0.0
H1082 H 0.50711 0.64169 0.33062 0.0
H1083 H 0.50273 0.66608 0.25358 0.0
H1084 H 0.54175 0.64203 0.45033 0.0
H1085 H 0.54229 0.59582 0.26357 0.0
H1086 H 0.55022 0.61844 0.25001 0.0
H1087 H 0.52508 0.61389 0.26324 0.0
C1088 C 0.5513 0.66844 0.2609 0.0
C1089 C 0.53298 0.67253 0.2404 0.0
C1090 C 0.55374 0.65449 0.30514 0.0
C1091 C 0.53791 0.64449 0.32954 0.0
C1092 C 0.51949 0.64925 0.31205 0.0
H1093 H 0.50863 0.54699 0.52384 0.0
H1094 H 0.51279 0.57367 0.45587 0.0
C1095 C 0.51703 0.66315 0.26799 0.0
C1096 C 0.54062 0.62807 0.36878 0.0
H1097 H 0.54096 0.58306 0.36475 0.0
C1098 C 0.54186 0.62911 0.4318 0.0
C1099 C 0.54069 0.61132 0.34415 0.0
C1100 C 0.5396 0.60963 0.27649 0.0
C1101 C 0.54239 0.61369 0.47136 0.0
C1102 C 0.54199 0.59687 0.44684 0.0
C1103 C 0.54134 0.59593 0.38346 0.0
C1104 C 0.54042 0.58015 0.48642 0.0
C1105 C 0.54245 0.61553 0.53927 0.0
C1106 C 0.55485 0.57461 0.52517 0.0
C1107 C 0.55252 0.55925 0.56437 0.0
C1108 C 0.53574 0.54917 0.56526 0.0
C1109 C 0.52171 0.55444 0.5246 0.0
C1110 C 0.52405 0.56972 0.48563 0.0
H1111 H 0.53896 0.62928 0.55156 0.0
H1112 H 0.53193 0.60643 0.56483 0.0
H1113 H 0.55693 0.61195 0.55439 0.0
H1114 H 0.56779 0.58226 0.52563 0.0
H1115 H 0.5636 0.55556 0.59504 0.0
H1116 H 0.83952 0.54596 0.33403 0.0
H1117 H 0.86522 0.54909 0.4028 0.0
H1118 H 0.87137 0.49229 0.425 0.0
H1119 H 0.84568 0.48904 0.35658 0.0
H1120 H 0.87403 0.52304 0.53819 0.0
H1121 H 0.92216 0.5233 0.32377 0.0
H1122 H 0.89839 0.53321 0.3244 0.0
H1123 H 0.90112 0.5096 0.33232 0.0
C1124 C 0.84581 0.53414 0.35555 0.0
C1125 C 0.84069 0.51725 0.33984 0.0
C1126 C 0.86054 0.53596 0.39449 0.0
C1127 C 0.87018 0.52092 0.41845 0.0
C1128 C 0.86403 0.50403 0.40689 0.0
H1129 H 0.97845 0.49266 0.55434 0.0
H1130 H 0.9485 0.49599 0.50364 0.0
C1131 C 0.84939 0.5022 0.36786 0.0
C1132 C 0.88828 0.52269 0.44814 0.0
H1133 H 0.93692 0.52277 0.41659 0.0
C1134 C 0.88781 0.5232 0.51183 0.0
C1135 C 0.90612 0.52279 0.41324 0.0
C1136 C 0.90718 0.52223 0.34457 0.0
C1137 C 0.90492 0.52336 0.54186 0.0
C1138 C 0.92281 0.52317 0.50695 0.0
C1139 C 0.92318 0.523 0.44311 0.0
C1140 C 0.94134 0.52183 0.53596 0.0
C1141 C 0.90377 0.52301 0.61075 0.0
C1142 C 0.94748 0.53548 0.56965 0.0
C1143 C 0.9647 0.53366 0.59859 0.0
C1144 C 0.97602 0.51814 0.59426 0.0
C1145 C 0.97007 0.50476 0.55877 0.0
C1146 C 0.95294 0.50663 0.5298 0.0
H1147 H 0.88907 0.51995 0.63127 0.0
H1148 H 0.91402 0.51302 0.6296 0.0
H1149 H 0.90776 0.53617 0.62488 0.0
H1150 H 0.93889 0.54746 0.574 0.0
H1151 H 0.96888 0.54422 0.62554 0.0
loop_
_geom_bond_atom_site_label_1
_geom_bond_atom_site_label_2
_geom_bond_distance
_geom_bond_site_symmetry_2
_ccdc_geom_bond_type
H0 C1 0.949 . S
C1 H0 0.949 . S
C1 C2 1.395 . S
C1 C3 1.391 . S
C2 C1 1.395 . S
C2 C5 1.390 . S
C3 C1 1.391 . S
C3 C7 1.387 . S
C3 C8 1.491 . S
H4 C5 0.950 . S
C5 C2 1.390 . S
C5 H4 0.950 . S
C5 C6 1.378 . S
C6 C5 1.378 . S
C6 C7 1.409 . S
C7 C3 1.387 . S
C7 C6 1.409 . S
C7 H9 0.951 . S
C8 C3 1.491 . S
C8 C10 1.382 . S
C8 C12 1.404 . S
H9 C7 0.951 . S
C10 C8 1.382 . S
C10 C11 1.390 . S
C10 H15 0.949 . S
C11 C10 1.390 . S
C11 C16 1.399 . S
C12 C8 1.404 . S
C12 H13 0.950 . S
C12 C14 1.375 . S
H13 C12 0.950 . S
C14 C12 1.375 . S
C14 C16 1.382 . S
C14 H18 0.950 . S
H15 C10 0.949 . S
C16 C11 1.399 . S
C16 C14 1.382 . S
C16 H17 0.952 . S
H17 C16 0.952 . S
H18 C14 0.950 . S
H19 C20 0.949 . S
C20 H19 0.949 . S
C20 C21 1.395 . S
C20 C22 1.391 1_556 S
C21 C20 1.395 . S
C21 C24 1.390 1_556 S
C22 C20 1.391 1_554 S
C22 C26 1.387 . S
C22 C27 1.491 . S
H23 C24 0.950 . S
C24 C21 1.390 1_554 S
C24 H23 0.950 . S
C24 C25 1.378 . S
C25 C24 1.378 . S
C25 C26 1.409 . S
C26 C22 1.387 . S
C26 C25 1.409 . S
C26 H28 0.951 . S
C27 C22 1.491 . S
C27 C29 1.382 1_554 S
C27 C31 1.404 . S
H28 C26 0.951 . S
C29 C27 1.382 1_556 S
C29 C30 1.390 . S
C29 H34 0.949 . S
C30 C29 1.390 . S
C30 C35 1.399 1_556 S
C31 C27 1.404 . S
C31 H32 0.950 . S
C31 C33 1.375 . S
H32 C31 0.950 . S
C33 C31 1.375 . S
C33 C35 1.382 . S
C33 H37 0.950 . S
H34 C29 0.949 . S
C35 C30 1.399 1_554 S
C35 C33 1.382 . S
C35 H36 0.952 . S
H36 C35 0.952 . S
H37 C33 0.950 . S
H38 C39 0.949 1_556 S
C39 H38 0.949 1_554 S
C39 C40 1.395 . S
C39 C41 1.391 . S
C40 C39 1.395 . S
C40 C43 1.390 . S
C41 C39 1.391 . S
C41 C45 1.387 . S
C41 C46 1.491 . S
H42 C43 0.950 . S
C43 C40 1.390 . S
C43 H42 0.950 . S
C43 C44 1.378 . S
C44 C43 1.378 . S
C44 C45 1.409 . S
C45 C41 1.387 . S
C45 C44 1.409 . S
C45 H47 0.951 . S
C46 C41 1.491 . S
C46 C48 1.382 . S
C46 C50 1.404 . S
H47 C45 0.951 . S
C48 C46 1.382 . S
C48 C49 1.390 . S
C48 H53 0.949 1_565 S
C49 C48 1.390 . S
C49 C54 1.399 . S
C50 C46 1.404 . S
C50 H51 0.950 . S
C50 C52 1.375 . S
H51 C50 0.950 . S
C52 C50 1.375 . S
C52 C54 1.382 . S
C52 H56 0.950 . S
H53 C48 0.949 1_545 S
C54 C49 1.399 . S
C54 C52 1.382 . S
C54 H55 0.952 . S
H55 C54 0.952 . S
H56 C52 0.950 . S
H57 C58 0.949 1_556 S
C58 H57 0.949 1_554 S
C58 C59 1.395 . S
C58 C60 1.391 . S
C59 C58 1.395 . S
C59 C62 1.390 . S
C60 C58 1.391 . S
C60 C64 1.387 . S
C60 C65 1.491 . S
H61 C62 0.950 . S
C62 C59 1.390 . S
C62 H61 0.950 . S
C62 C63 1.378 . S
C63 C62 1.378 . S
C63 C64 1.409 . S
C64 C60 1.387 . S
C64 C63 1.409 . S
C64 H66 0.951 . S
C65 C60 1.491 . S
C65 C67 1.382 . S
C65 C69 1.404 . S
H66 C64 0.951 . S
C67 C65 1.382 . S
C67 C68 1.390 . S
C67 H72 0.949 . S
C68 C67 1.390 . S
C68 C73 1.399 . S
C69 C65 1.404 . S
C69 H70 0.950 . S
C69 C71 1.375 . S
H70 C69 0.950 . S
C71 C69 1.375 . S
C71 C73 1.382 . S
C71 H75 0.950 . S
H72 C67 0.949 . S
C73 C68 1.399 . S
C73 C71 1.382 . S
C73 H74 0.952 . S
H74 C73 0.952 . S
H75 C71 0.950 . S
H76 C77 0.949 . S
C77 H76 0.949 . S
C77 C78 1.395 . S
C77 C79 1.391 . S
C78 C77 1.395 . S
C78 C81 1.390 . S
C79 C77 1.391 . S
C79 C83 1.387 . S
C79 C84 1.491 . S
H80 C81 0.950 . S
C81 C78 1.390 . S
C81 H80 0.950 . S
C81 C82 1.378 . S
C82 C81 1.378 . S
C82 C83 1.409 . S
C83 C79 1.387 . S
C83 C82 1.409 . S
C83 H85 0.951 . S
C84 C79 1.491 . S
C84 C86 1.382 . S
C84 C88 1.404 . S
H85 C83 0.951 . S
C86 C84 1.382 . S
C86 C87 1.390 . S
C86 H91 0.949 . S
C87 C86 1.390 . S
C87 C92 1.399 . S
C88 C84 1.404 . S
C88 H89 0.950 . S
C88 C90 1.375 . S
H89 C88 0.950 . S
C90 C88 1.375 . S
C90 C92 1.382 . S
C90 H94 0.950 . S
H91 C86 0.949 . S
C92 C87 1.399 . S
C92 C90 1.382 . S
C92 H93 0.952 . S
H93 C92 0.952 . S
H94 C90 0.950 . S
H95 C96 0.949 . S
C96 H95 0.949 . S
C96 C97 1.395 . S
C96 C98 1.391 . S
C97 C96 1.395 . S
C97 C100 1.390 . S
C98 C96 1.391 . S
C98 C102 1.387 . S
C98 C103 1.491 . S
H99 C100 0.950 . S
C100 C97 1.390 . S
C100 H99 0.950 . S
C100 C101 1.378 . S
C101 C100 1.378 . S
C101 C102 1.409 . S
C102 C98 1.387 . S
C102 C101 1.409 . S
C102 H104 0.951 . S
C103 C98 1.491 . S
C103 C105 1.382 . S
C103 C107 1.404 . S
H104 C102 0.951 . S
C105 C103 1.382 . S
C105 C106 1.390 . S
C105 H110 0.949 . S
C106 C105 1.390 . S
C106 C111 1.399 . S
C107 C103 1.404 . S
C107 H108 0.950 . S
C107 C109 1.375 . S
H108 C107 0.950 . S
C109 C107 1.375 . S
C109 C111 1.382 . S
C109 H113 0.950 . S
H110 C105 0.949 . S
C111 C106 1.399 . S
C111 C109 1.382 . S
C111 H112 0.952 . S
H112 C111 0.952 . S
H113 C109 0.950 . S
H114 C115 0.949 . S
C115 H114 0.949 . S
C115 C116 1.395 . S
C115 C117 1.391 . S
C116 C115 1.395 . S
C116 C119 1.390 . S
C117 C115 1.391 . S
C117 C121 1.387 . S
C117 C122 1.491 . S
H118 C119 0.950 . S
C119 C116 1.390 . S
C119 H118 0.950 . S
C119 C120 1.378 . S
C120 C119 1.378 . S
C120 C121 1.409 . S
C121 C117 1.387 . S
C121 C120 1.409 . S
C121 H123 0.951 . S
C122 C117 1.491 . S
C122 C124 1.382 . S
C122 C126 1.404 1_545 S
H123 C121 0.951 . S
C124 C122 1.382 . S
C124 C125 1.390 . S
C124 H129 0.949 . S
C125 C124 1.390 . S
C125 C130 1.399 1_545 S
C126 C122 1.404 1_565 S
C126 H127 0.950 . S
C126 C128 1.375 . S
H127 C126 0.950 . S
C128 C126 1.375 . S
C128 C130 1.382 . S
C128 H132 0.950 . S
H129 C124 0.949 . S
C130 C125 1.399 1_565 S
C130 C128 1.382 . S
C130 H131 0.952 . S
H131 C130 0.952 . S
H132 C128 0.950 . S
H133 C134 0.949 . S
C134 H133 0.949 . S
C134 C135 1.395 . S
C134 C136 1.391 . S
C135 C134 1.395 . S
C135 C138 1.390 . S
C136 C134 1.391 . S
C136 C140 1.387 . S
C136 C141 1.491 . S
H137 C138 0.950 . S
C138 C135 1.390 . S
C138 H137 0.950 . S
C138 C139 1.378 . S
C139 C138 1.378 . S
C139 C140 1.409 . S
C140 C136 1.387 . S
C140 C139 1.409 . S
C140 H142 0.951 . S
C141 C136 1.491 . S
C141 C143 1.382 . S
C141 C145 1.404 . S
H142 C140 0.951 . S
C143 C141 1.382 . S
C143 C144 1.390 . S
C143 H148 0.949 . S
C144 C143 1.390 . S
C144 C149 1.399 . S
C145 C141 1.404 . S
C145 H146 0.950 . S
C145 C147 1.375 . S
H146 C145 0.950 . S
C147 C145 1.375 . S
C147 C149 1.382 . S
C147 H151 0.950 . S
H148 C143 0.949 . S
C149 C144 1.399 . S
C149 C147 1.382 . S
C149 H150 0.952 . S
H150 C149 0.952 . S
H151 C147 0.950 . S
C152 O168 1.251 . S
C152 O170 1.254 . S
N153 C154 1.333 . S
N153 C158 1.307 1_455 S
N153 Zn159 2.020 . S
C154 N153 1.333 . S
C154 C155 1.379 . S
C154 H172 0.952 . S
C155 C154 1.379 . S
C155 C156 1.390 . S
C155 H182 0.949 . S
C156 C155 1.390 . S
C156 C157 1.357 1_455 S
C157 C156 1.357 1_655 S
C157 C158 1.370 . S
C157 H183 0.950 . S
C158 N153 1.307 1_655 S
C158 C157 1.370 . S
C158 H176 0.973 . S
Zn159 N153 2.020 . S
Zn159 O168 2.039 . S
Zn159 O174 2.034 . S
Zn159 O178 2.025 1_565 S
Zn159 O180 2.029 1_455 S
C160 O179 1.246 . S
C160 O180 1.235 1_545 S
N161 C162 1.307 . S
N161 C163 1.333 . S
N161 Zn167 2.020 . S
C162 N161 1.307 . S
C162 C166 1.370 . S
C162 H173 0.948 . S
C163 N161 1.333 . S
C163 C164 1.379 . S
C163 H171 0.952 . S
C164 C163 1.379 . S
C164 C165 1.390 . S
C164 H184 0.949 . S
C165 C164 1.390 . S
C165 C166 1.357 . S
C166 C162 1.370 . S
C166 C165 1.357 . S
C166 H185 0.950 . S
Zn167 N161 2.020 . S
Zn167 O170 2.025 1_545 S
Zn167 O175 2.024 . S
Zn167 O177 2.039 . S
Zn167 O179 2.034 1_455 S
O168 C152 1.251 . S
O168 Zn159 2.039 . S
C169 O174 1.246 1_545 S
C169 O175 1.249 . S
O170 C152 1.254 . S
O170 Zn167 2.025 1_565 S
H171 C163 0.952 . S
H172 C154 0.952 . S
H173 C162 0.948 . S
O174 Zn159 2.034 . S
O174 C169 1.246 1_565 S
O175 Zn167 2.024 . S
O175 C169 1.249 . S
H176 C158 0.973 . S
O177 Zn167 2.039 . S
O177 C181 1.251 . S
O178 Zn159 2.025 1_545 S
O178 C181 1.254 . S
O179 C160 1.246 . S
O179 Zn167 2.034 1_655 S
O180 Zn159 2.029 1_655 S
O180 C160 1.235 1_565 S
C181 O177 1.251 . S
C181 O178 1.254 . S
H182 C155 0.949 . S
H183 C157 0.950 . S
H184 C164 0.949 . S
H185 C166 0.950 . S
C186 O202 1.251 . S
C186 O204 1.254 1_545 S
N187 C188 1.333 . S
N187 C192 1.307 . S
N187 Zn193 2.020 . S
C188 N187 1.333 . S
C188 C189 1.379 . S
C188 H206 0.952 . S
C189 C188 1.379 . S
C189 C190 1.390 . S
C189 H216 0.949 . S
C190 C189 1.390 . S
C190 C191 1.357 . S
C191 C190 1.357 . S
C191 C192 1.370 . S
C191 H217 0.950 . S
C192 N187 1.307 . S
C192 C191 1.370 . S
C192 H210 0.948 . S
Zn193 N187 2.020 . S
Zn193 O202 2.039 . S
Zn193 O208 2.034 . S
Zn193 O212 2.025 . S
Zn193 O214 2.024 . S
C194 O213 1.246 1_545 S
C194 O214 1.249 . S
N195 C196 1.307 . S
N195 C197 1.333 . S
N195 Zn201 2.020 . S
C196 N195 1.307 . S
C196 C200 1.370 . S
C196 H207 0.948 . S
C197 N195 1.333 . S
C197 C198 1.379 . S
C197 H205 0.952 . S
C198 C197 1.379 . S
C198 C199 1.390 . S
C198 H218 0.949 . S
C199 C198 1.390 . S
C199 C200 1.357 . S
C200 C196 1.370 . S
C200 C199 1.357 . S
C200 H219 0.950 . S
Zn201 N195 2.020 . S
Zn201 O204 2.025 . S
Zn201 O209 2.024 . S
Zn201 O211 2.039 . S
Zn201 O213 2.034 . S
O202 C186 1.251 . S
O202 Zn193 2.039 . S
C203 O208 1.246 . S
C203 O209 1.249 1_545 S
O204 C186 1.254 1_565 S
O204 Zn201 2.025 . S
H205 C197 0.952 . S
H206 C188 0.952 . S
H207 C196 0.948 . S
O208 Zn193 2.034 . S
O208 C203 1.246 . S
O209 Zn201 2.024 . S
O209 C203 1.249 1_565 S
H210 C192 0.948 . S
O211 Zn201 2.039 . S
O211 C215 1.251 1_565 S
O212 Zn193 2.025 . S
O212 C215 1.254 . S
O213 C194 1.246 1_565 S
O213 Zn201 2.034 . S
O214 Zn193 2.024 . S
O214 C194 1.249 . S
C215 O211 1.251 1_545 S
C215 O212 1.254 . S
H216 C189 0.949 . S
H217 C191 0.950 . S
H218 C198 0.949 . S
H219 C200 0.950 . S
C220 O236 1.251 . S
C220 O238 1.254 . S
N221 C222 1.333 . S
N221 C226 1.307 . S
N221 Zn227 2.020 . S
C222 N221 1.333 . S
C222 C223 1.379 . S
C222 H240 0.952 . S
C223 C222 1.379 . S
C223 C224 1.390 . S
C223 H250 0.949 . S
C224 C223 1.390 . S
C224 C225 1.357 . S
C225 C224 1.357 . S
C225 C226 1.370 . S
C225 H251 0.950 . S
C226 N221 1.307 . S
C226 C225 1.370 . S
C226 H244 0.948 . S
Zn227 N221 2.020 . S
Zn227 O236 2.039 . S
Zn227 O242 2.034 . S
Zn227 O246 2.025 . S
Zn227 O248 2.024 . S
C228 O247 1.246 . S
C228 O248 1.249 . S
N229 C230 1.307 . S
N229 C231 1.333 . S
N229 Zn235 2.020 . S
C230 N229 1.307 . S
C230 C234 1.370 . S
C230 H241 0.948 . S
C231 N229 1.333 . S
C231 C232 1.379 . S
C231 H239 0.952 . S
C232 C231 1.379 . S
C232 C233 1.390 . S
C232 H252 0.949 . S
C233 C232 1.390 . S
C233 C234 1.357 . S
C234 C230 1.370 . S
C234 C233 1.357 . S
C234 H253 0.950 . S
Zn235 N229 2.020 . S
Zn235 O238 2.025 . S
Zn235 O243 2.024 . S
Zn235 O245 2.039 . S
Zn235 O247 2.034 . S
O236 C220 1.251 . S
O236 Zn227 2.039 . S
C237 O242 1.246 . S
C237 O243 1.249 . S
O238 C220 1.254 . S
O238 Zn235 2.025 . S
H239 C231 0.952 . S
H240 C222 0.952 . S
H241 C230 0.948 . S
O242 Zn227 2.034 . S
O242 C237 1.246 . S
O243 Zn235 2.024 . S
O243 C237 1.249 . S
H244 C226 0.948 . S
O245 Zn235 2.039 . S
O245 C249 1.251 . S
O246 Zn227 2.025 . S
O246 C249 1.254 . S
O247 C228 1.246 . S
O247 Zn235 2.034 . S
O248 Zn227 2.024 . S
O248 C228 1.249 . S
C249 O245 1.251 . S
C249 O246 1.254 . S
H250 C223 0.949 . S
H251 C225 0.950 . S
H252 C232 0.949 . S
H253 C234 0.950 . S
C254 O270 1.251 . S
C254 O272 1.254 . S
N255 C256 1.333 . S
N255 C260 1.307 . S
N255 Zn261 2.020 . S
C256 N255 1.333 . S
C256 C257 1.379 . S
C256 H274 0.952 . S
C257 C256 1.379 . S
C257 C258 1.390 . S
C257 H284 0.949 . S
C258 C257 1.390 . S
C258 C259 1.357 . S
C259 C258 1.357 . S
C259 C260 1.370 . S
C259 H285 0.950 . S
C260 N255 1.307 . S
C260 C259 1.370 . S
C260 H278 0.948 . S
Zn261 N255 2.020 . S
Zn261 O270 2.039 . S
Zn261 O276 2.034 1_455 S
Zn261 O280 2.025 1_455 S
Zn261 O282 2.024 . S
C262 O281 1.246 . S
C262 O282 1.249 . S
N263 C264 1.307 . S
N263 C265 1.333 . S
N263 Zn269 2.020 . S
C264 N263 1.307 . S
C264 C268 1.370 . S
C264 H275 0.948 . S
C265 N263 1.333 . S
C265 C266 1.379 . S
C265 H273 0.973 . S
C266 C265 1.379 . S
C266 C267 1.390 . S
C266 H286 0.937 1_455 S
C267 C266 1.390 . S
C267 C268 1.357 . S
C268 C264 1.370 . S
C268 C267 1.357 . S
C268 H287 0.950 . S
Zn269 N263 2.020 . S
Zn269 O272 2.025 . S
Zn269 O277 2.024 1_455 S
Zn269 O279 2.039 1_455 S
Zn269 O281 2.034 . S
O270 C254 1.251 . S
O270 Zn261 2.039 . S
C271 O276 1.246 . S
C271 O277 1.249 . S
O272 C254 1.254 . S
O272 Zn269 2.025 . S
H273 C265 0.973 . S
H274 C256 0.952 . S
H275 C264 0.948 . S
O276 Zn261 2.034 1_655 S
O276 C271 1.246 . S
O277 Zn269 2.024 1_655 S
O277 C271 1.249 . S
H278 C260 0.948 . S
O279 Zn269 2.039 1_655 S
O279 C283 1.251 . S
O280 Zn261 2.025 1_655 S
O280 C283 1.254 . S
O281 C262 1.246 . S
O281 Zn269 2.034 . S
O282 Zn261 2.024 . S
O282 C262 1.249 . S
C283 O279 1.251 . S
C283 O280 1.254 . S
H284 C257 0.949 . S
H285 C259 0.950 . S
H286 C266 0.937 1_655 S
H287 C268 0.950 . S
H288 C296 0.929 . S
H289 C298 0.930 . S
H290 C300 0.930 . S
H291 C303 0.929 . S
H292 C306 0.936 . S
H293 C308 0.960 . S
H294 C308 0.960 . S
H295 C308 0.960 . S
C296 H288 0.929 . S
C296 C297 1.377 1_565 S
C296 C298 1.384 . S
C297 C296 1.377 1_545 S
C297 C303 1.390 . S
C298 H289 0.930 . S
C298 C296 1.384 . S
C298 C299 1.372 1_565 S
C299 C298 1.372 1_545 S
C299 C300 1.400 . S
C299 C304 1.490 . S
C300 H290 0.930 . S
C300 C299 1.400 . S
C300 C303 1.386 . S
H301 C317 0.930 . S
H302 C318 0.931 . S
C303 H291 0.929 . S
C303 C297 1.390 . S
C303 C300 1.386 . S
C304 C299 1.490 . S
C304 C306 1.395 . S
C304 C307 1.403 . S
H305 C311 0.930 . S
C306 H292 0.936 . S
C306 C304 1.395 . S
C306 C309 1.403 . S
C307 C304 1.403 . S
C307 C308 1.524 . S
C307 C311 1.400 . S
C308 H293 0.960 . S
C308 H294 0.960 . S
C308 H295 0.960 . S
C308 C307 1.524 . S
C309 C306 1.403 . S
C309 C310 1.392 . S
C309 C313 1.495 1_545 S
C310 C309 1.392 . S
C310 C311 1.385 . S
C310 C312 1.478 . S
C311 H305 0.930 . S
C311 C307 1.400 . S
C311 C310 1.385 . S
C312 C310 1.478 . S
C312 C314 1.381 1_545 S
C312 C318 1.383 . S
C313 C309 1.495 1_565 S
C313 H319 0.959 . S
C313 H320 0.961 1_565 S
C313 H321 0.960 . S
C314 C312 1.381 1_565 S
C314 C315 1.394 . S
C314 H322 0.930 . S
C315 C314 1.394 . S
C315 C316 1.383 1_565 S
C315 H323 0.929 . S
C316 C315 1.383 1_545 S
C316 C317 1.377 . S
C317 H301 0.930 . S
C317 C316 1.377 . S
C317 C318 1.379 . S
C318 H302 0.931 . S
C318 C312 1.383 . S
C318 C317 1.379 . S
H319 C313 0.959 . S
H320 C313 0.961 1_545 S
H321 C313 0.960 . S
H322 C314 0.930 . S
H323 C315 0.929 . S
H324 C332 0.929 . S
H325 C334 0.930 . S
H326 C336 0.930 . S
H327 C339 0.929 . S
H328 C342 0.930 . S
H329 C344 0.960 . S
H330 C344 0.960 . S
H331 C344 0.960 . S
C332 H324 0.929 . S
C332 C333 1.377 . S
C332 C334 1.384 . S
C333 C332 1.377 . S
C333 C339 1.390 . S
C334 H325 0.930 . S
C334 C332 1.384 . S
C334 C335 1.372 . S
C335 C334 1.372 . S
C335 C336 1.400 . S
C335 C340 1.490 . S
C336 H326 0.930 . S
C336 C335 1.400 . S
C336 C339 1.386 . S
H337 C353 0.930 . S
H338 C354 0.931 . S
C339 H327 0.929 . S
C339 C333 1.390 . S
C339 C336 1.386 . S
C340 C335 1.490 . S
C340 C342 1.395 . S
C340 C343 1.403 . S
H341 C347 0.930 . S
C342 H328 0.930 . S
C342 C340 1.395 . S
C342 C345 1.403 . S
C343 C340 1.403 . S
C343 C344 1.524 . S
C343 C347 1.400 . S
C344 H329 0.960 . S
C344 H330 0.960 . S
C344 H331 0.960 . S
C344 C343 1.524 . S
C345 C342 1.403 . S
C345 C346 1.392 . S
C345 C349 1.495 . S
C346 C345 1.392 . S
C346 C347 1.385 . S
C346 C348 1.478 . S
C347 H341 0.930 . S
C347 C343 1.400 . S
C347 C346 1.385 . S
C348 C346 1.478 . S
C348 C350 1.381 . S
C348 C354 1.383 . S
C349 C345 1.495 . S
C349 H355 0.959 . S
C349 H356 0.961 . S
C349 H357 0.960 . S
C350 C348 1.381 . S
C350 C351 1.394 . S
C350 H358 0.930 . S
C351 C350 1.394 . S
C351 C352 1.383 . S
C351 H359 0.929 . S
C352 C351 1.383 . S
C352 C353 1.377 . S
C353 H337 0.930 . S
C353 C352 1.377 . S
C353 C354 1.379 . S
C354 H338 0.931 . S
C354 C348 1.383 . S
C354 C353 1.379 . S
H355 C349 0.959 . S
H356 C349 0.961 . S
H357 C349 0.960 . S
H358 C350 0.930 . S
H359 C351 0.929 . S
H360 C368 0.929 . S
H361 C370 0.930 . S
H362 C372 0.930 . S
H363 C375 0.929 . S
H364 C378 0.930 . S
H365 C380 0.960 . S
H366 C380 0.960 . S
H367 C380 0.960 . S
C368 H360 0.929 . S
C368 C369 1.377 . S
C368 C370 1.384 . S
C369 C368 1.377 . S
C369 C375 1.390 . S
C370 H361 0.930 . S
C370 C368 1.384 . S
C370 C371 1.372 . S
C371 C370 1.372 . S
C371 C372 1.400 . S
C371 C376 1.490 . S
C372 H362 0.930 . S
C372 C371 1.400 . S
C372 C375 1.386 . S
H373 C389 0.930 . S
H374 C390 0.931 . S
C375 H363 0.929 . S
C375 C369 1.390 . S
C375 C372 1.386 . S
C376 C371 1.490 . S
C376 C378 1.395 . S
C376 C379 1.403 . S
H377 C383 0.930 . S
C378 H364 0.930 . S
C378 C376 1.395 . S
C378 C381 1.403 . S
C379 C376 1.403 . S
C379 C380 1.524 . S
C379 C383 1.400 . S
C380 H365 0.960 . S
C380 H366 0.960 . S
C380 H367 0.960 . S
C380 C379 1.524 . S
C381 C378 1.403 . S
C381 C382 1.392 . S
C381 C385 1.495 . S
C382 C381 1.392 . S
C382 C383 1.385 . S
C382 C384 1.478 . S
C383 H377 0.930 . S
C383 C379 1.400 . S
C383 C382 1.385 . S
C384 C382 1.478 . S
C384 C386 1.381 . S
C384 C390 1.383 . S
C385 C381 1.495 . S
C385 H391 0.959 . S
C385 H392 0.961 . S
C385 H393 0.960 . S
C386 C384 1.381 . S
C386 C387 1.394 . S
C386 H394 0.930 . S
C387 C386 1.394 . S
C387 C388 1.383 . S
C387 H395 0.929 . S
C388 C387 1.383 . S
C388 C389 1.377 . S
C389 H373 0.930 . S
C389 C388 1.377 . S
C389 C390 1.379 . S
C390 H374 0.931 . S
C390 C384 1.383 . S
C390 C389 1.379 . S
H391 C385 0.959 . S
H392 C385 0.961 . S
H393 C385 0.960 . S
H394 C386 0.930 . S
H395 C387 0.929 . S
H396 C404 0.929 . S
H397 C406 0.930 . S
H398 C408 0.930 . S
H399 C411 0.929 . S
H400 C414 0.930 . S
H401 C416 0.960 . S
H402 C416 0.960 . S
H403 C416 0.960 . S
C404 H396 0.929 . S
C404 C405 1.377 . S
C404 C406 1.384 . S
C405 C404 1.377 . S
C405 C411 1.390 . S
C406 H397 0.930 . S
C406 C404 1.384 . S
C406 C407 1.372 . S
C407 C406 1.372 . S
C407 C408 1.400 . S
C407 C412 1.490 . S
C408 H398 0.930 . S
C408 C407 1.400 . S
C408 C411 1.386 . S
H409 C425 0.930 . S
H410 C426 0.931 . S
C411 H399 0.929 . S
C411 C405 1.390 . S
C411 C408 1.386 . S
C412 C407 1.490 . S
C412 C414 1.395 . S
C412 C415 1.403 . S
H413 C419 0.930 . S
C414 H400 0.930 . S
C414 C412 1.395 . S
C414 C417 1.403 . S
C415 C412 1.403 . S
C415 C416 1.524 . S
C415 C419 1.400 . S
C416 H401 0.960 . S
C416 H402 0.960 . S
C416 H403 0.960 . S
C416 C415 1.524 . S
C417 C414 1.403 . S
C417 C418 1.392 . S
C417 C421 1.495 . S
C418 C417 1.392 . S
C418 C419 1.385 . S
C418 C420 1.478 . S
C419 H413 0.930 . S
C419 C415 1.400 . S
C419 C418 1.385 . S
C420 C418 1.478 . S
C420 C422 1.381 . S
C420 C426 1.383 . S
C421 C417 1.495 . S
C421 H427 0.959 . S
C421 H428 0.961 . S
C421 H429 0.960 . S
C422 C420 1.381 . S
C422 C423 1.394 . S
C422 H430 0.930 . S
C423 C422 1.394 . S
C423 C424 1.383 . S
C423 H431 0.929 . S
C424 C423 1.383 . S
C424 C425 1.377 . S
C425 H409 0.930 . S
C425 C424 1.377 . S
C425 C426 1.379 . S
C426 H410 0.931 . S
C426 C420 1.383 . S
C426 C425 1.379 . S
H427 C421 0.959 . S
H428 C421 0.961 . S
H429 C421 0.960 . S
H430 C422 0.930 . S
H431 C423 0.929 . S
H432 C440 0.936 . S
H433 C442 0.930 . S
H434 C444 0.930 1_554 S
H435 C447 0.929 . S
H436 C450 0.930 . S
H437 C452 0.960 . S
H438 C452 0.960 . S
H439 C452 0.960 . S
C440 H432 0.936 . S
C440 C441 1.371 1_545 S
C440 C442 1.388 . S
C441 C440 1.371 1_565 S
C441 C447 1.390 1_556 S
C442 H433 0.930 . S
C442 C440 1.388 . S
C442 C443 1.370 1_545 S
C443 C442 1.370 1_565 S
C443 C444 1.404 . S
C443 C448 1.488 1_565 S
C444 H434 0.930 1_556 S
C444 C443 1.404 . S
C444 C447 1.386 1_556 S
H445 C461 0.930 . S
H446 C462 0.931 . S
C447 H435 0.929 . S
C447 C441 1.390 1_554 S
C447 C444 1.386 1_554 S
C448 C443 1.488 1_545 S
C448 C450 1.395 . S
C448 C451 1.403 1_545 S
H449 C455 0.930 . S
C450 H436 0.930 . S
C450 C448 1.395 . S
C450 C453 1.403 . S
C451 C448 1.403 1_565 S
C451 C452 1.524 . S
C451 C455 1.400 . S
C452 H437 0.960 . S
C452 H438 0.960 . S
C452 H439 0.960 . S
C452 C451 1.524 . S
C453 C450 1.403 . S
C453 C454 1.392 . S
C453 C457 1.495 . S
C454 C453 1.392 . S
C454 C455 1.385 1_545 S
C454 C456 1.478 . S
C455 H449 0.930 . S
C455 C451 1.400 . S
C455 C454 1.385 1_565 S
C456 C454 1.478 . S
C456 C458 1.381 . S
C456 C462 1.383 . S
C457 C453 1.495 . S
C457 H463 0.959 . S
C457 H464 0.961 . S
C457 H465 0.960 . S
C458 C456 1.381 . S
C458 C459 1.394 . S
C458 H466 0.930 . S
C459 C458 1.394 . S
C459 C460 1.383 . S
C459 H467 0.929 . S
C460 C459 1.383 . S
C460 C461 1.377 . S
C461 H445 0.930 . S
C461 C460 1.377 . S
C461 C462 1.379 . S
C462 H446 0.931 . S
C462 C456 1.383 . S
C462 C461 1.379 . S
H463 C457 0.959 . S
H464 C457 0.961 . S
H465 C457 0.960 . S
H466 C458 0.930 . S
H467 C459 0.929 . S
H468 C476 0.929 . S
H469 C478 0.930 . S
H470 C480 0.930 . S
H471 C483 0.929 . S
H472 C486 0.930 . S
H473 C488 0.960 . S
H474 C488 0.960 . S
H475 C488 0.960 . S
C476 H468 0.929 . S
C476 C477 1.377 1_554 S
C476 C478 1.384 . S
C477 C476 1.377 1_556 S
C477 C483 1.390 . S
C478 H469 0.930 . S
C478 C476 1.384 . S
C478 C479 1.372 1_554 S
C479 C478 1.372 1_556 S
C479 C480 1.400 . S
C479 C484 1.490 . S
C480 H470 0.930 . S
C480 C479 1.400 . S
C480 C483 1.386 . S
H481 C497 0.930 . S
H482 C498 0.931 . S
C483 H471 0.929 . S
C483 C477 1.390 . S
C483 C480 1.386 . S
C484 C479 1.490 . S
C484 C486 1.395 . S
C484 C487 1.403 . S
H485 C491 0.930 . S
C486 H472 0.930 . S
C486 C484 1.395 . S
C486 C489 1.403 . S
C487 C484 1.403 . S
C487 C488 1.524 . S
C487 C491 1.400 . S
C488 H473 0.960 . S
C488 H474 0.960 . S
C488 H475 0.960 . S
C488 C487 1.524 . S
C489 C486 1.403 . S
C489 C490 1.392 . S
C489 C493 1.495 . S
C490 C489 1.392 . S
C490 C491 1.385 . S
C490 C492 1.478 . S
C491 H485 0.930 . S
C491 C487 1.400 . S
C491 C490 1.385 . S
C492 C490 1.478 . S
C492 C494 1.381 . S
C492 C498 1.383 . S
C493 C489 1.495 . S
C493 H499 0.959 . S
C493 H500 0.961 . S
C493 H501 0.960 . S
C494 C492 1.381 . S
C494 C495 1.394 . S
C494 H502 0.930 . S
C495 C494 1.394 . S
C495 C496 1.383 . S
C495 H503 0.929 . S
C496 C495 1.383 . S
C496 C497 1.377 . S
C497 H481 0.930 . S
C497 C496 1.377 . S
C497 C498 1.379 . S
C498 H482 0.931 . S
C498 C492 1.383 . S
C498 C497 1.379 . S
H499 C493 0.959 . S
H500 C493 0.961 . S
H501 C493 0.960 . S
H502 C494 0.930 . S
H503 C495 0.929 . S
H504 C512 0.929 . S
H505 C514 0.930 . S
H506 C516 0.930 . S
H507 C519 0.929 . S
H508 C522 0.930 1_554 S
H509 C524 0.960 . S
H510 C524 0.960 . S
H511 C524 0.960 . S
C512 H504 0.929 . S
C512 C513 1.377 . S
C512 C514 1.384 1_554 S
C513 C512 1.377 . S
C513 C519 1.390 . S
C514 H505 0.930 . S
C514 C512 1.384 1_556 S
C514 C515 1.372 . S
C515 C514 1.372 . S
C515 C516 1.400 . S
C515 C520 1.490 . S
C516 H506 0.930 . S
C516 C515 1.400 . S
C516 C519 1.386 1_556 S
H517 C533 0.930 . S
H518 C534 0.931 . S
C519 H507 0.929 . S
C519 C513 1.390 . S
C519 C516 1.386 1_554 S
C520 C515 1.490 . S
C520 C522 1.395 . S
C520 C523 1.403 . S
H521 C527 0.930 . S
C522 H508 0.930 1_556 S
C522 C520 1.395 . S
C522 C525 1.403 . S
C523 C520 1.403 . S
C523 C524 1.524 . S
C523 C527 1.400 . S
C524 H509 0.960 . S
C524 H510 0.960 . S
C524 H511 0.960 . S
C524 C523 1.524 . S
C525 C522 1.403 . S
C525 C526 1.392 . S
C525 C529 1.495 . S
C526 C525 1.392 . S
C526 C527 1.385 . S
C526 C528 1.478 . S
C527 H521 0.930 . S
C527 C523 1.400 . S
C527 C526 1.385 . S
C528 C526 1.478 . S
C528 C530 1.381 . S
C528 C534 1.383 . S
C529 C525 1.495 . S
C529 H535 0.959 1_556 S
C529 H536 0.961 . S
C529 H537 0.960 . S
C530 C528 1.381 . S
C530 C531 1.394 . S
C530 H538 0.930 . S
C531 C530 1.394 . S
C531 C532 1.383 . S
C531 H539 0.929 . S
C532 C531 1.383 . S
C532 C533 1.377 . S
C533 H517 0.930 . S
C533 C532 1.377 . S
C533 C534 1.379 . S
C534 H518 0.931 . S
C534 C528 1.383 . S
C534 C533 1.379 . S
H535 C529 0.959 1_554 S
H536 C529 0.961 . S
H537 C529 0.960 . S
H538 C530 0.930 . S
H539 C531 0.929 . S
H540 C548 0.932 . S
H541 C550 0.930 . S
H542 C552 0.930 . S
H543 C555 0.929 . S
H544 C558 0.930 . S
H545 C560 0.960 . S
H546 C560 0.960 . S
H547 C560 0.960 . S
C548 H540 0.932 . S
C548 C549 1.377 . S
C548 C550 1.384 . S
C549 C548 1.377 . S
C549 C555 1.390 1_655 S
C550 H541 0.930 . S
C550 C548 1.384 . S
C550 C551 1.372 . S
C551 C550 1.372 . S
C551 C552 1.400 1_655 S
C551 C556 1.490 . S
C552 H542 0.930 . S
C552 C551 1.400 1_455 S
C552 C555 1.386 . S
H553 C569 0.930 . S
H554 C570 0.931 . S
C555 H543 0.929 . S
C555 C549 1.390 1_455 S
C555 C552 1.386 . S
C556 C551 1.490 . S
C556 C558 1.395 . S
C556 C559 1.403 1_655 S
H557 C563 0.930 . S
C558 H544 0.930 . S
C558 C556 1.395 . S
C558 C561 1.403 . S
C559 C556 1.403 1_455 S
C559 C560 1.524 . S
C559 C563 1.400 . S
C560 H545 0.960 . S
C560 H546 0.960 . S
C560 H547 0.960 . S
C560 C559 1.524 . S
C561 C558 1.403 . S
C561 C562 1.415 . S
C561 C565 1.495 . S
C562 C561 1.415 . S
C562 C563 1.363 1_655 S
C562 C564 1.476 1_655 S
C563 H557 0.930 . S
C563 C559 1.400 . S
C563 C562 1.363 1_455 S
C564 C562 1.476 1_455 S
C564 C566 1.381 1_455 S
C564 C570 1.383 . S
C565 C561 1.495 . S
C565 H571 0.959 . S
C565 H572 0.961 . S
C565 H573 0.960 . S
C566 C564 1.381 1_655 S
C566 C567 1.394 . S
C566 H574 0.930 . S
C567 C566 1.394 . S
C567 C568 1.383 1_655 S
C567 H575 0.929 . S
C568 C567 1.383 1_455 S
C568 C569 1.377 . S
C569 H553 0.930 . S
C569 C568 1.377 . S
C569 C570 1.379 . S
C570 H554 0.931 . S
C570 C564 1.383 . S
C570 C569 1.379 . S
H571 C565 0.959 . S
H572 C565 0.961 . S
H573 C565 0.960 . S
H574 C566 0.930 . S
H575 C567 0.929 . S
H576 C584 0.929 . S
H577 C586 0.930 . S
H578 C588 0.930 . S
H579 C591 0.929 . S
H580 C594 0.930 . S
H581 C596 0.960 . S
H582 C596 0.960 . S
H583 C596 0.960 . S
C584 H576 0.929 . S
C584 C585 1.377 . S
C584 C586 1.384 . S
C585 C584 1.377 . S
C585 C591 1.390 . S
C586 H577 0.930 . S
C586 C584 1.384 . S
C586 C587 1.372 . S
C587 C586 1.372 . S
C587 C588 1.400 . S
C587 C592 1.490 . S
C588 H578 0.930 . S
C588 C587 1.400 . S
C588 C591 1.386 . S
H589 C605 0.924 1_655 S
H590 C606 0.931 1_655 S
C591 H579 0.929 . S
C591 C585 1.390 . S
C591 C588 1.386 . S
C592 C587 1.490 . S
C592 C594 1.395 . S
C592 C595 1.403 . S
H593 C599 0.930 . S
C594 H580 0.930 . S
C594 C592 1.395 . S
C594 C597 1.403 . S
C595 C592 1.403 . S
C595 C596 1.524 . S
C595 C599 1.400 . S
C596 H581 0.960 . S
C596 H582 0.960 . S
C596 H583 0.960 . S
C596 C595 1.524 . S
C597 C594 1.403 . S
C597 C598 1.392 . S
C597 C601 1.495 . S
C598 C597 1.392 . S
C598 C599 1.385 . S
C598 C600 1.478 . S
C599 H593 0.930 . S
C599 C595 1.400 . S
C599 C598 1.385 . S
C600 C598 1.478 . S
C600 C602 1.381 . S
C600 C606 1.383 . S
C601 C597 1.495 . S
C601 H607 0.959 . S
C601 H608 0.961 . S
C601 H609 0.960 . S
C602 C600 1.381 . S
C602 C603 1.394 . S
C602 H610 0.930 . S
C603 C602 1.394 . S
C603 C604 1.383 . S
C603 H611 0.929 . S
C604 C603 1.383 . S
C604 C605 1.381 . S
C605 H589 0.924 1_455 S
C605 C604 1.381 . S
C605 C606 1.381 . S
C606 H590 0.931 1_455 S
C606 C600 1.383 . S
C606 C605 1.381 . S
H607 C601 0.959 . S
H608 C601 0.961 . S
H609 C601 0.960 . S
H610 C602 0.930 . S
H611 C603 0.929 . S
H612 C620 0.929 1_565 S
H613 C622 0.910 1_565 S
H614 C624 0.930 . S
H615 C627 0.929 . S
H616 C630 0.930 . S
H617 C632 0.960 . S
H618 C632 0.960 . S
H619 C632 0.960 1_545 S
C620 H612 0.929 1_545 S
C620 C621 1.377 . S
C620 C622 1.385 . S
C621 C620 1.377 . S
C621 C627 1.390 . S
C622 H613 0.910 1_545 S
C622 C620 1.385 . S
C622 C623 1.391 . S
C623 C622 1.391 . S
C623 C624 1.400 . S
C623 C628 1.490 . S
C624 H614 0.930 . S
C624 C623 1.400 . S
C624 C627 1.386 . S
H625 C641 0.930 . S
H626 C642 0.931 . S
C627 H615 0.929 . S
C627 C621 1.390 . S
C627 C624 1.386 . S
C628 C623 1.490 . S
C628 C630 1.395 . S
C628 C631 1.403 . S
H629 C635 0.926 1_565 S
C630 H616 0.930 . S
C630 C628 1.395 . S
C630 C633 1.403 . S
C631 C628 1.403 . S
C631 C632 1.524 1_545 S
C631 C635 1.400 . S
C632 H617 0.960 . S
C632 H618 0.960 . S
C632 H619 0.960 1_565 S
C632 C631 1.524 1_565 S
C633 C630 1.403 . S
C633 C634 1.392 . S
C633 C637 1.495 . S
C634 C633 1.392 . S
C634 C635 1.385 . S
C634 C636 1.478 . S
C635 H629 0.926 1_545 S
C635 C631 1.400 . S
C635 C634 1.385 . S
C636 C634 1.478 . S
C636 C638 1.381 1_545 S
C636 C642 1.383 . S
C637 C633 1.495 . S
C637 H643 0.959 . S
C637 H644 0.961 . S
C637 H645 0.960 . S
C638 C636 1.381 1_565 S
C638 C639 1.394 . S
C638 H646 0.930 . S
C639 C638 1.394 . S
C639 C640 1.383 1_565 S
C639 H647 0.929 . S
C640 C639 1.383 1_545 S
C640 C641 1.377 . S
C641 H625 0.930 . S
C641 C640 1.377 . S
C641 C642 1.379 . S
C642 H626 0.931 . S
C642 C636 1.383 . S
C642 C641 1.379 . S
H643 C637 0.959 . S
H644 C637 0.961 . S
H645 C637 0.960 . S
H646 C638 0.930 . S
H647 C639 0.929 . S
H648 C656 0.929 . S
H649 C658 0.930 . S
H650 C660 0.930 . S
H651 C663 0.929 . S
H652 C666 0.930 . S
H653 C668 0.960 . S
H654 C668 0.960 . S
H655 C668 0.960 . S
C656 H648 0.929 . S
C656 C657 1.377 . S
C656 C658 1.384 . S
C657 C656 1.377 . S
C657 C663 1.390 . S
C658 H649 0.930 . S
C658 C656 1.384 . S
C658 C659 1.372 . S
C659 C658 1.372 . S
C659 C660 1.400 . S
C659 C664 1.490 . S
C660 H650 0.930 . S
C660 C659 1.400 . S
C660 C663 1.386 . S
H661 C677 0.930 . S
H662 C678 0.931 . S
C663 H651 0.929 . S
C663 C657 1.390 . S
C663 C660 1.386 . S
C664 C659 1.490 . S
C664 C666 1.395 . S
C664 C667 1.403 . S
H665 C671 0.930 . S
C666 H652 0.930 . S
C666 C664 1.395 . S
C666 C669 1.403 . S
C667 C664 1.403 . S
C667 C668 1.524 . S
C667 C671 1.400 . S
C668 H653 0.960 . S
C668 H654 0.960 . S
C668 H655 0.960 . S
C668 C667 1.524 . S
C669 C666 1.403 . S
C669 C670 1.392 . S
C669 C673 1.495 . S
C670 C669 1.392 . S
C670 C671 1.385 . S
C670 C672 1.478 . S
C671 H665 0.930 . S
C671 C667 1.400 . S
C671 C670 1.385 . S
C672 C670 1.478 . S
C672 C674 1.381 . S
C672 C678 1.383 . S
C673 C669 1.495 . S
C673 H679 0.959 . S
C673 H680 0.961 . S
C673 H681 0.960 . S
C674 C672 1.381 . S
C674 C675 1.394 . S
C674 H682 0.930 . S
C675 C674 1.394 . S
C675 C676 1.383 . S
C675 H683 0.929 . S
C676 C675 1.383 . S
C676 C677 1.377 . S
C677 H661 0.930 . S
C677 C676 1.377 . S
C677 C678 1.379 . S
C678 H662 0.931 . S
C678 C672 1.383 . S
C678 C677 1.379 . S
H679 C673 0.959 . S
H680 C673 0.961 . S
H681 C673 0.960 . S
H682 C674 0.930 . S
H683 C675 0.929 . S
H684 C692 0.929 . S
H685 C694 0.930 . S
H686 C696 0.930 . S
H687 C699 0.929 . S
H688 C702 0.930 . S
H689 C704 0.960 . S
H690 C704 0.960 . S
H691 C704 0.960 . S
C692 H684 0.929 . S
C692 C693 1.377 . S
C692 C694 1.384 . S
C693 C692 1.377 . S
C693 C699 1.390 . S
C694 H685 0.930 . S
C694 C692 1.384 . S
C694 C695 1.372 . S
C695 C694 1.372 . S
C695 C696 1.400 . S
C695 C700 1.490 . S
C696 H686 0.930 . S
C696 C695 1.400 . S
C696 C699 1.386 . S
H697 C713 0.930 . S
H698 C714 0.931 . S
C699 H687 0.929 . S
C699 C693 1.390 . S
C699 C696 1.386 . S
C700 C695 1.490 . S
C700 C702 1.395 . S
C700 C703 1.403 . S
H701 C707 0.930 . S
C702 H688 0.930 . S
C702 C700 1.395 . S
C702 C705 1.403 . S
C703 C700 1.403 . S
C703 C704 1.524 . S
C703 C707 1.400 . S
C704 H689 0.960 . S
C704 H690 0.960 . S
C704 H691 0.960 . S
C704 C703 1.524 . S
C705 C702 1.403 . S
C705 C706 1.392 . S
C705 C709 1.495 . S
C706 C705 1.392 . S
C706 C707 1.385 . S
C706 C708 1.478 . S
C707 H701 0.930 . S
C707 C703 1.400 . S
C707 C706 1.385 . S
C708 C706 1.478 . S
C708 C710 1.381 . S
C708 C714 1.383 . S
C709 C705 1.495 . S
C709 H715 0.959 . S
C709 H716 0.961 . S
C709 H717 0.960 . S
C710 C708 1.381 . S
C710 C711 1.394 . S
C710 H718 0.930 . S
C711 C710 1.394 . S
C711 C712 1.383 . S
C711 H719 0.929 . S
C712 C711 1.383 . S
C712 C713 1.377 . S
C713 H697 0.930 . S
C713 C712 1.377 . S
C713 C714 1.379 . S
C714 H698 0.931 . S
C714 C708 1.383 . S
C714 C713 1.379 . S
H715 C709 0.959 . S
H716 C709 0.961 . S
H717 C709 0.960 . S
H718 C710 0.930 . S
H719 C711 0.929 . S
H720 C728 0.929 1_554 S
H721 C730 0.929 . S
H722 C732 0.930 . S
H723 C735 0.929 . S
H724 C738 0.930 . S
H725 C740 0.960 . S
H726 C740 0.960 . S
H727 C740 0.960 . S
C728 H720 0.929 1_556 S
C728 C729 1.377 . S
C728 C730 1.384 1_655 S
C729 C728 1.377 . S
C729 C735 1.390 . S
C730 H721 0.929 . S
C730 C728 1.384 1_455 S
C730 C731 1.372 1_455 S
C731 C730 1.372 1_655 S
C731 C732 1.400 . S
C731 C736 1.480 1_655 S
C732 H722 0.930 . S
C732 C731 1.400 . S
C732 C735 1.386 . S
H733 C749 0.930 . S
H734 C750 0.931 . S
C735 H723 0.929 . S
C735 C729 1.390 . S
C735 C732 1.386 . S
C736 C731 1.480 1_455 S
C736 C738 1.449 . S
C736 C739 1.361 1_455 S
H737 C743 0.930 . S
C738 H724 0.930 . S
C738 C736 1.449 . S
C738 C741 1.403 . S
C739 C736 1.361 1_655 S
C739 C740 1.524 . S
C739 C743 1.400 . S
C740 H725 0.960 . S
C740 H726 0.960 . S
C740 H727 0.960 . S
C740 C739 1.524 . S
C741 C738 1.403 . S
C741 C742 1.392 . S
C741 C745 1.495 . S
C742 C741 1.392 . S
C742 C743 1.385 1_455 S
C742 C744 1.478 . S
C743 H737 0.930 . S
C743 C739 1.400 . S
C743 C742 1.385 1_655 S
C744 C742 1.478 . S
C744 C746 1.381 . S
C744 C750 1.383 . S
C745 C741 1.495 . S
C745 H751 0.959 . S
C745 H752 0.961 . S
C745 H753 0.960 . S
C746 C744 1.381 . S
C746 C747 1.394 . S
C746 H754 0.930 . S
C747 C746 1.394 . S
C747 C748 1.383 . S
C747 H755 0.929 . S
C748 C747 1.383 . S
C748 C749 1.377 . S
C749 H733 0.930 . S
C749 C748 1.377 . S
C749 C750 1.379 . S
C750 H734 0.931 . S
C750 C744 1.383 . S
C750 C749 1.379 . S
H751 C745 0.959 . S
H752 C745 0.961 . S
H753 C745 0.960 . S
H754 C746 0.930 . S
H755 C747 0.929 . S
H756 C764 0.929 . S
H757 C766 0.930 . S
H758 C768 0.929 1_554 S
H759 C771 0.929 . S
H760 C774 0.930 . S
H761 C776 0.960 . S
H762 C776 0.960 . S
H763 C776 0.974 . S
C764 H756 0.929 . S
C764 C765 1.377 1_546 S
C764 C766 1.384 . S
C765 C764 1.377 1_564 S
C765 C771 1.390 . S
C766 H757 0.930 . S
C766 C764 1.384 . S
C766 C767 1.389 . S
C767 C766 1.389 . S
C767 C768 1.387 1_545 S
C767 C772 1.491 . S
C768 H758 0.929 1_556 S
C768 C767 1.387 1_565 S
C768 C771 1.383 1_556 S
H769 C785 0.930 . S
H770 C786 0.931 . S
C771 H759 0.929 . S
C771 C765 1.390 . S
C771 C768 1.383 1_554 S
C772 C767 1.491 . S
C772 C774 1.395 1_545 S
C772 C775 1.403 . S
H773 C779 0.930 . S
C774 H760 0.930 . S
C774 C772 1.395 1_565 S
C774 C777 1.404 . S
C775 C772 1.403 . S
C775 C776 1.524 1_556 S
C775 C779 1.400 . S
C776 H761 0.960 . S
C776 H762 0.960 . S
C776 H763 0.974 . S
C776 C775 1.524 1_554 S
C777 C774 1.404 . S
C777 C778 1.385 1_565 S
C777 C781 1.505 . S
C778 C777 1.385 1_545 S
C778 C779 1.385 . S
C778 C780 1.478 . S
C779 H773 0.930 . S
C779 C775 1.400 . S
C779 C778 1.385 . S
C780 C778 1.478 . S
C780 C782 1.381 . S
C780 C786 1.383 1_545 S
C781 C777 1.505 . S
C781 H787 0.959 . S
C781 H788 0.961 . S
C781 H789 0.960 1_565 S
C782 C780 1.381 . S
C782 C783 1.394 . S
C782 H790 0.930 . S
C783 C782 1.394 . S
C783 C784 1.383 . S
C783 H791 0.929 . S
C784 C783 1.383 . S
C784 C785 1.377 1_545 S
C785 H769 0.930 . S
C785 C784 1.377 1_565 S
C785 C786 1.379 . S
C786 H770 0.931 . S
C786 C780 1.383 1_565 S
C786 C785 1.379 . S
H787 C781 0.959 . S
H788 C781 0.961 . S
H789 C781 0.960 1_545 S
H790 C782 0.930 . S
H791 C783 0.929 . S
H792 C800 0.929 . S
H793 C802 0.930 . S
H794 C804 0.930 . S
H795 C807 0.929 . S
H796 C810 0.930 . S
H797 C812 0.960 . S
H798 C812 0.960 . S
H799 C812 0.960 . S
C800 H792 0.929 . S
C800 C801 1.377 1_556 S
C800 C802 1.384 . S
C801 C800 1.377 1_554 S
C801 C807 1.390 . S
C802 H793 0.930 . S
C802 C800 1.384 . S
C802 C803 1.372 . S
C803 C802 1.372 . S
C803 C804 1.400 . S
C803 C808 1.490 . S
C804 H794 0.930 . S
C804 C803 1.400 . S
C804 C807 1.386 1_556 S
H805 C821 0.930 . S
H806 C822 0.931 . S
C807 H795 0.929 . S
C807 C801 1.390 . S
C807 C804 1.386 1_554 S
C808 C803 1.490 . S
C808 C810 1.395 . S
C808 C811 1.403 . S
H809 C815 0.930 . S
C810 H796 0.930 . S
C810 C808 1.395 . S
C810 C813 1.403 . S
C811 C808 1.403 . S
C811 C812 1.524 . S
C811 C815 1.400 . S
C812 H797 0.960 . S
C812 H798 0.960 . S
C812 H799 0.960 . S
C812 C811 1.524 . S
C813 C810 1.403 . S
C813 C814 1.392 . S
C813 C817 1.495 . S
C814 C813 1.392 . S
C814 C815 1.385 . S
C814 C816 1.478 . S
C815 H809 0.930 . S
C815 C811 1.400 . S
C815 C814 1.385 . S
C816 C814 1.478 . S
C816 C818 1.381 . S
C816 C822 1.383 . S
C817 C813 1.495 . S
C817 H823 0.959 . S
C817 H824 0.961 . S
C817 H825 0.960 . S
C818 C816 1.381 . S
C818 C819 1.394 . S
C818 H826 0.930 . S
C819 C818 1.394 . S
C819 C820 1.383 . S
C819 H827 0.929 . S
C820 C819 1.383 . S
C820 C821 1.377 . S
C821 H805 0.930 . S
C821 C820 1.377 . S
C821 C822 1.379 . S
C822 H806 0.931 . S
C822 C816 1.383 . S
C822 C821 1.379 . S
H823 C817 0.959 . S
H824 C817 0.961 . S
H825 C817 0.960 . S
H826 C818 0.930 . S
H827 C819 0.929 . S
H828 C836 0.929 . S
H829 C838 0.930 . S
H830 C840 0.930 1_556 S
H831 C843 0.929 . S
H832 C846 0.930 . S
H833 C848 0.960 . S
H834 C848 0.960 . S
H835 C848 0.960 . S
C836 H828 0.929 . S
C836 C837 1.377 . S
C836 C838 1.384 . S
C837 C836 1.377 . S
C837 C843 1.390 . S
C838 H829 0.930 . S
C838 C836 1.384 . S
C838 C839 1.372 1_554 S
C839 C838 1.372 1_556 S
C839 C840 1.400 1_556 S
C839 C844 1.490 . S
C840 H830 0.930 1_554 S
C840 C839 1.400 1_554 S
C840 C843 1.386 . S
H841 C857 0.930 . S
H842 C858 0.931 . S
C843 H831 0.929 . S
C843 C837 1.390 . S
C843 C840 1.386 . S
C844 C839 1.490 . S
C844 C846 1.395 . S
C844 C847 1.403 . S
H845 C851 0.930 . S
C846 H832 0.930 . S
C846 C844 1.395 . S
C846 C849 1.403 . S
C847 C844 1.403 . S
C847 C848 1.524 1_556 S
C847 C851 1.400 . S
C848 H833 0.960 . S
C848 H834 0.960 . S
C848 H835 0.960 . S
C848 C847 1.524 1_554 S
C849 C846 1.403 . S
C849 C850 1.392 . S
C849 C853 1.495 . S
C850 C849 1.392 . S
C850 C851 1.385 . S
C850 C852 1.478 . S
C851 H845 0.930 . S
C851 C847 1.400 . S
C851 C850 1.385 . S
C852 C850 1.478 . S
C852 C854 1.381 . S
C852 C858 1.383 . S
C853 C849 1.495 . S
C853 H859 0.959 . S
C853 H860 0.961 . S
C853 H861 0.960 . S
C854 C852 1.381 . S
C854 C855 1.394 . S
C854 H862 0.930 . S
C855 C854 1.394 . S
C855 C856 1.383 . S
C855 H863 0.929 . S
C856 C855 1.383 . S
C856 C857 1.377 . S
C857 H841 0.930 . S
C857 C856 1.377 . S
C857 C858 1.379 . S
C858 H842 0.931 . S
C858 C852 1.383 . S
C858 C857 1.379 . S
H859 C853 0.959 . S
H860 C853 0.961 . S
H861 C853 0.960 . S
H862 C854 0.930 . S
H863 C855 0.929 . S
H864 C872 0.929 . S
H865 C874 0.930 . S
H866 C876 0.930 . S
H867 C879 0.929 . S
H868 C882 0.930 . S
H869 C884 0.960 . S
H870 C884 0.960 . S
H871 C884 0.960 . S
C872 H864 0.929 . S
C872 C873 1.377 . S
C872 C874 1.384 . S
C873 C872 1.377 . S
C873 C879 1.390 . S
C874 H865 0.930 . S
C874 C872 1.384 . S
C874 C875 1.372 . S
C875 C874 1.372 . S
C875 C876 1.400 . S
C875 C880 1.490 . S
C876 H866 0.930 . S
C876 C875 1.400 . S
C876 C879 1.386 . S
H877 C893 0.930 1_554 S
H878 C894 0.931 . S
C879 H867 0.929 . S
C879 C873 1.390 . S
C879 C876 1.386 . S
C880 C875 1.490 . S
C880 C882 1.395 . S
C880 C883 1.403 . S
H881 C887 0.930 . S
C882 H868 0.930 . S
C882 C880 1.395 . S
C882 C885 1.403 . S
C883 C880 1.403 . S
C883 C884 1.524 . S
C883 C887 1.400 . S
C884 H869 0.960 . S
C884 H870 0.960 . S
C884 H871 0.960 . S
C884 C883 1.524 . S
C885 C882 1.403 . S
C885 C886 1.392 . S
C885 C889 1.495 1_554 S
C886 C885 1.392 . S
C886 C887 1.385 . S
C886 C888 1.478 . S
C887 H881 0.930 . S
C887 C883 1.400 . S
C887 C886 1.385 . S
C888 C886 1.478 . S
C888 C890 1.381 1_554 S
C888 C894 1.383 . S
C889 C885 1.495 1_556 S
C889 H895 0.959 . S
C889 H896 0.961 . S
C889 H897 0.960 . S
C890 C888 1.381 1_556 S
C890 C891 1.394 . S
C890 H898 0.930 . S
C891 C890 1.394 . S
C891 C892 1.383 . S
C891 H899 0.929 . S
C892 C891 1.383 . S
C892 C893 1.377 . S
C893 H877 0.930 1_556 S
C893 C892 1.377 . S
C893 C894 1.379 1_556 S
C894 H878 0.931 . S
C894 C888 1.383 . S
C894 C893 1.379 1_554 S
H895 C889 0.959 . S
H896 C889 0.961 . S
H897 C889 0.960 . S
H898 C890 0.930 . S
H899 C891 0.929 . S
H900 C908 0.929 1_565 S
H901 C910 0.899 1_565 S
H902 C912 0.930 . S
H903 C915 0.929 . S
H904 C918 0.930 . S
H905 C920 0.962 . S
H906 C920 0.960 1_565 S
H907 C920 0.960 . S
C908 H900 0.929 1_545 S
C908 C909 1.377 . S
C908 C910 1.387 . S
C909 C908 1.377 . S
C909 C915 1.390 . S
C910 H901 0.899 1_545 S
C910 C908 1.387 . S
C910 C911 1.401 . S
C911 C910 1.401 . S
C911 C912 1.400 . S
C911 C916 1.490 . S
C912 H902 0.930 . S
C912 C911 1.400 . S
C912 C915 1.386 . S
H913 C929 0.930 . S
H914 C930 0.931 . S
C915 H903 0.929 . S
C915 C909 1.390 . S
C915 C912 1.386 . S
C916 C911 1.490 . S
C916 C918 1.395 1_554 S
C916 C919 1.403 . S
H917 C923 0.930 . S
C918 H904 0.930 . S
C918 C916 1.395 1_556 S
C918 C921 1.403 . S
C919 C916 1.403 . S
C919 C920 1.524 . S
C919 C923 1.400 . S
C920 H905 0.962 . S
C920 H906 0.960 1_545 S
C920 H907 0.960 . S
C920 C919 1.524 . S
C921 C918 1.403 . S
C921 C922 1.392 . S
C921 C925 1.495 . S
C922 C921 1.392 . S
C922 C923 1.385 1_556 S
C922 C924 1.478 . S
C923 H917 0.930 . S
C923 C919 1.400 . S
C923 C922 1.385 1_554 S
C924 C922 1.478 . S
C924 C926 1.381 1_545 S
C924 C930 1.383 . S
C925 C921 1.495 . S
C925 H931 0.959 . S
C925 H932 0.961 . S
C925 H933 0.960 . S
C926 C924 1.381 1_565 S
C926 C927 1.394 . S
C926 H934 0.930 . S
C927 C926 1.394 . S
C927 C928 1.383 1_565 S
C927 H935 0.929 . S
C928 C927 1.383 1_545 S
C928 C929 1.377 . S
C929 H913 0.930 . S
C929 C928 1.377 . S
C929 C930 1.379 . S
C930 H914 0.931 . S
C930 C924 1.383 . S
C930 C929 1.379 . S
H931 C925 0.959 . S
H932 C925 0.961 . S
H933 C925 0.960 . S
H934 C926 0.930 . S
H935 C927 0.929 . S
H936 C944 0.929 . S
H937 C946 0.930 . S
H938 C948 0.930 . S
H939 C951 0.929 . S
H940 C954 0.930 . S
H941 C956 0.960 1_556 S
H942 C956 0.960 . S
H943 C956 0.960 1_556 S
C944 H936 0.929 . S
C944 C945 1.377 . S
C944 C946 1.384 . S
C945 C944 1.377 . S
C945 C951 1.390 . S
C946 H937 0.930 . S
C946 C944 1.384 . S
C946 C947 1.372 . S
C947 C946 1.372 . S
C947 C948 1.400 . S
C947 C952 1.490 . S
C948 H938 0.930 . S
C948 C947 1.400 . S
C948 C951 1.386 . S
H949 C965 0.930 . S
H950 C966 0.931 . S
C951 H939 0.929 . S
C951 C945 1.390 . S
C951 C948 1.386 . S
C952 C947 1.490 . S
C952 C954 1.395 . S
C952 C955 1.403 . S
H953 C959 0.930 . S
C954 H940 0.930 . S
C954 C952 1.395 . S
C954 C957 1.403 . S
C955 C952 1.403 . S
C955 C956 1.524 . S
C955 C959 1.400 1_554 S
C956 H941 0.960 1_554 S
C956 H942 0.960 . S
C956 H943 0.960 1_554 S
C956 C955 1.524 . S
C957 C954 1.403 . S
C957 C958 1.392 1_554 S
C957 C961 1.495 . S
C958 C957 1.392 1_556 S
C958 C959 1.385 . S
C958 C960 1.478 . S
C959 H953 0.930 . S
C959 C955 1.400 1_556 S
C959 C958 1.385 . S
C960 C958 1.478 . S
C960 C962 1.381 . S
C960 C966 1.383 . S
C961 C957 1.495 . S
C961 H967 0.959 . S
C961 H968 0.961 . S
C961 H969 0.960 . S
C962 C960 1.381 . S
C962 C963 1.394 . S
C962 H970 0.930 . S
C963 C962 1.394 . S
C963 C964 1.383 . S
C963 H971 0.929 . S
C964 C963 1.383 . S
C964 C965 1.377 . S
C965 H949 0.930 . S
C965 C964 1.377 . S
C965 C966 1.379 . S
C966 H950 0.931 . S
C966 C960 1.383 . S
C966 C965 1.379 . S
H967 C961 0.959 . S
H968 C961 0.961 . S
H969 C961 0.960 . S
H970 C962 0.930 . S
H971 C963 0.929 . S
H972 C980 0.929 . S
H973 C982 0.930 . S
H974 C984 0.930 . S
H975 C987 0.929 . S
H976 C990 0.930 . S
H977 C992 0.960 . S
H978 C992 0.960 . S
H979 C992 0.960 . S
C980 H972 0.929 . S
C980 C981 1.377 . S
C980 C982 1.384 . S
C981 C980 1.377 . S
C981 C987 1.390 . S
C982 H973 0.930 . S
C982 C980 1.384 . S
C982 C983 1.372 . S
C983 C982 1.372 . S
C983 C984 1.400 . S
C983 C988 1.490 . S
C984 H974 0.930 . S
C984 C983 1.400 . S
C984 C987 1.386 . S
H985 C1001 0.930 . S
H986 C1002 0.931 . S
C987 H975 0.929 . S
C987 C981 1.390 . S
C987 C984 1.386 . S
C988 C983 1.490 . S
C988 C990 1.395 1_554 S
C988 C991 1.403 . S
H989 C995 0.930 . S
C990 H976 0.930 . S
C990 C988 1.395 1_556 S
C990 C993 1.403 . S
C991 C988 1.403 . S
C991 C992 1.524 . S
C991 C995 1.400 . S
C992 H977 0.960 . S
C992 H978 0.960 . S
C992 H979 0.960 . S
C992 C991 1.524 . S
C993 C990 1.403 . S
C993 C994 1.392 . S
C993 C997 1.495 . S
C994 C993 1.392 . S
C994 C995 1.385 1_556 S
C994 C996 1.478 . S
C995 H989 0.930 . S
C995 C991 1.400 . S
C995 C994 1.385 1_554 S
C996 C994 1.478 . S
C996 C998 1.381 . S
C996 C1002 1.383 . S
C997 C993 1.495 . S
C997 H1003 0.959 . S
C997 H1004 0.961 . S
C997 H1005 0.960 . S
C998 C996 1.381 . S
C998 C999 1.394 . S
C998 H1006 0.930 . S
C999 C998 1.394 . S
C999 C1000 1.383 . S
C999 H1007 0.929 . S
C1000 C999 1.383 . S
C1000 C1001 1.377 . S
C1001 H985 0.930 . S
C1001 C1000 1.377 . S
C1001 C1002 1.379 . S
C1002 H986 0.931 . S
C1002 C996 1.383 . S
C1002 C1001 1.379 . S
H1003 C997 0.959 . S
H1004 C997 0.961 . S
H1005 C997 0.960 . S
H1006 C998 0.930 . S
H1007 C999 0.929 . S
H1008 C1016 0.929 . S
H1009 C1018 0.930 . S
H1010 C1020 0.930 . S
H1011 C1023 0.929 . S
H1012 C1026 0.930 . S
H1013 C1028 0.960 . S
H1014 C1028 0.960 . S
H1015 C1028 0.960 . S
C1016 H1008 0.929 . S
C1016 C1017 1.377 1_455 S
C1016 C1018 1.384 . S
C1017 C1016 1.377 1_655 S
C1017 C1023 1.390 . S
C1018 H1009 0.930 . S
C1018 C1016 1.384 . S
C1018 C1019 1.372 1_455 S
C1019 C1018 1.372 1_655 S
C1019 C1020 1.400 . S
C1019 C1024 1.490 . S
C1020 H1010 0.930 . S
C1020 C1019 1.400 . S
C1020 C1023 1.386 . S
H1021 C1037 0.930 . S
H1022 C1038 0.931 . S
C1023 H1011 0.929 . S
C1023 C1017 1.390 . S
C1023 C1020 1.386 . S
C1024 C1019 1.490 . S
C1024 C1026 1.395 1_655 S
C1024 C1027 1.403 . S
H1025 C1031 0.930 . S
C1026 H1012 0.930 . S
C1026 C1024 1.395 1_455 S
C1026 C1029 1.403 . S
C1027 C1024 1.403 . S
C1027 C1028 1.524 . S
C1027 C1031 1.400 . S
C1028 H1013 0.960 . S
C1028 H1014 0.960 . S
C1028 H1015 0.960 . S
C1028 C1027 1.524 . S
C1029 C1026 1.403 . S
C1029 C1030 1.396 . S
C1029 C1033 1.495 . S
C1030 C1029 1.396 . S
C1030 C1031 1.381 1_455 S
C1030 C1032 1.478 . S
C1031 H1025 0.930 . S
C1031 C1027 1.400 . S
C1031 C1030 1.381 1_655 S
C1032 C1030 1.478 . S
C1032 C1034 1.381 . S
C1032 C1038 1.383 1_455 S
C1033 C1029 1.495 . S
C1033 H1039 0.959 . S
C1033 H1040 0.961 . S
C1033 H1041 0.960 . S
C1034 C1032 1.381 . S
C1034 C1035 1.394 . S
C1034 H1042 0.930 . S
C1035 C1034 1.394 . S
C1035 C1036 1.412 . S
C1035 H1043 0.929 . S
C1036 C1035 1.412 . S
C1036 C1037 1.347 1_455 S
C1037 H1021 0.930 . S
C1037 C1036 1.347 1_655 S
C1037 C1038 1.379 . S
C1038 H1022 0.931 . S
C1038 C1032 1.383 1_655 S
C1038 C1037 1.379 . S
H1039 C1033 0.959 . S
H1040 C1033 0.961 . S
H1041 C1033 0.960 . S
H1042 C1034 0.930 . S
H1043 C1035 0.929 . S
H1044 C1052 0.929 . S
H1045 C1054 0.930 . S
H1046 C1056 0.930 . S
H1047 C1059 0.929 . S
H1048 C1062 0.930 . S
H1049 C1064 0.966 . S
H1050 C1064 0.960 . S
H1051 C1064 0.960 1_545 S
C1052 H1044 0.929 . S
C1052 C1053 1.377 . S
C1052 C1054 1.384 . S
C1053 C1052 1.377 . S
C1053 C1059 1.390 1_565 S
C1054 H1045 0.930 . S
C1054 C1052 1.384 . S
C1054 C1055 1.372 . S
C1055 C1054 1.372 . S
C1055 C1056 1.400 1_565 S
C1055 C1060 1.490 . S
C1056 H1046 0.930 . S
C1056 C1055 1.400 1_545 S
C1056 C1059 1.386 . S
H1057 C1073 0.930 . S
H1058 C1074 0.931 . S
C1059 H1047 0.929 . S
C1059 C1053 1.390 1_545 S
C1059 C1056 1.386 . S
C1060 C1055 1.490 . S
C1060 C1062 1.395 . S
C1060 C1063 1.403 . S
H1061 C1067 0.930 . S
C1062 H1048 0.930 . S
C1062 C1060 1.395 . S
C1062 C1065 1.403 . S
C1063 C1060 1.403 . S
C1063 C1064 1.524 . S
C1063 C1067 1.406 . S
C1064 H1049 0.966 . S
C1064 H1050 0.960 . S
C1064 H1051 0.960 1_565 S
C1064 C1063 1.524 . S
C1065 C1062 1.403 . S
C1065 C1066 1.392 . S
C1065 C1069 1.495 . S
C1066 C1065 1.392 . S
C1066 C1067 1.384 . S
C1066 C1068 1.481 . S
C1067 H1061 0.930 . S
C1067 C1063 1.406 . S
C1067 C1066 1.384 . S
C1068 C1066 1.481 . S
C1068 C1070 1.409 . S
C1068 C1074 1.353 1_565 S
C1069 C1065 1.495 . S
C1069 H1075 0.959 . S
C1069 H1076 0.961 1_565 S
C1069 H1077 0.960 . S
C1070 C1068 1.409 . S
C1070 C1071 1.394 . S
C1070 H1078 0.930 . S
C1071 C1070 1.394 . S
C1071 C1072 1.361 1_565 S
C1071 H1079 0.929 . S
C1072 C1071 1.361 1_545 S
C1072 C1073 1.398 . S
C1073 H1057 0.930 . S
C1073 C1072 1.398 . S
C1073 C1074 1.379 . S
C1074 H1058 0.931 . S
C1074 C1068 1.353 1_545 S
C1074 C1073 1.379 . S
H1075 C1069 0.959 . S
H1076 C1069 0.961 1_545 S
H1077 C1069 0.960 . S
H1078 C1070 0.930 . S
H1079 C1071 0.929 . S
H1080 C1088 0.929 . S
H1081 C1090 0.930 . S
H1082 C1092 0.930 . S
H1083 C1095 0.929 . S
H1084 C1098 0.930 . S
H1085 C1100 0.960 . S
H1086 C1100 0.960 . S
H1087 C1100 0.960 . S
C1088 H1080 0.929 . S
C1088 C1089 1.377 . S
C1088 C1090 1.384 . S
C1089 C1088 1.377 . S
C1089 C1095 1.390 . S
C1090 H1081 0.930 . S
C1090 C1088 1.384 . S
C1090 C1091 1.372 . S
C1091 C1090 1.372 . S
C1091 C1092 1.400 . S
C1091 C1096 1.490 . S
C1092 H1082 0.930 . S
C1092 C1091 1.400 . S
C1092 C1095 1.386 . S
H1093 C1109 0.930 . S
H1094 C1110 0.931 . S
C1095 H1083 0.929 . S
C1095 C1089 1.390 . S
C1095 C1092 1.386 . S
C1096 C1091 1.490 . S
C1096 C1098 1.395 . S
C1096 C1099 1.403 . S
H1097 C1103 0.930 . S
C1098 H1084 0.930 . S
C1098 C1096 1.395 . S
C1098 C1101 1.403 . S
C1099 C1096 1.403 . S
C1099 C1100 1.524 . S
C1099 C1103 1.400 . S
C1100 H1085 0.960 . S
C1100 H1086 0.960 . S
C1100 H1087 0.960 . S
C1100 C1099 1.524 . S
C1101 C1098 1.403 . S
C1101 C1102 1.392 . S
C1101 C1105 1.495 . S
C1102 C1101 1.392 . S
C1102 C1103 1.385 . S
C1102 C1104 1.478 . S
C1103 H1097 0.930 . S
C1103 C1099 1.400 . S
C1103 C1102 1.385 . S
C1104 C1102 1.478 . S
C1104 C1106 1.381 . S
C1104 C1110 1.383 . S
C1105 C1101 1.495 . S
C1105 H1111 0.959 . S
C1105 H1112 0.961 . S
C1105 H1113 0.960 . S
C1106 C1104 1.381 . S
C1106 C1107 1.394 . S
C1106 H1114 0.930 . S
C1107 C1106 1.394 . S
C1107 C1108 1.383 . S
C1107 H1115 0.929 . S
C1108 C1107 1.383 . S
C1108 C1109 1.377 . S
C1109 H1093 0.930 . S
C1109 C1108 1.377 . S
C1109 C1110 1.379 . S
C1110 H1094 0.931 . S
C1110 C1104 1.383 . S
C1110 C1109 1.379 . S
H1111 C1105 0.959 . S
H1112 C1105 0.961 . S
H1113 C1105 0.960 . S
H1114 C1106 0.930 . S
H1115 C1107 0.929 . S
H1116 C1124 0.929 . S
H1117 C1126 0.930 . S
H1118 C1128 0.930 . S
H1119 C1131 0.929 . S
H1120 C1134 0.930 . S
H1121 C1136 0.960 . S
H1122 C1136 0.960 . S
H1123 C1136 0.960 . S
C1124 H1116 0.929 . S
C1124 C1125 1.377 . S
C1124 C1126 1.384 . S
C1125 C1124 1.377 . S
C1125 C1131 1.390 . S
C1126 H1117 0.930 . S
C1126 C1124 1.384 . S
C1126 C1127 1.372 . S
C1127 C1126 1.372 . S
C1127 C1128 1.400 . S
C1127 C1132 1.490 . S
C1128 H1118 0.930 . S
C1128 C1127 1.400 . S
C1128 C1131 1.386 . S
H1129 C1145 0.930 . S
H1130 C1146 0.931 . S
C1131 H1119 0.929 . S
C1131 C1125 1.390 . S
C1131 C1128 1.386 . S
C1132 C1127 1.490 . S
C1132 C1134 1.395 . S
C1132 C1135 1.403 . S
H1133 C1139 0.930 . S
C1134 H1120 0.930 . S
C1134 C1132 1.395 . S
C1134 C1137 1.403 . S
C1135 C1132 1.403 . S
C1135 C1136 1.524 . S
C1135 C1139 1.400 . S
C1136 H1121 0.960 . S
C1136 H1122 0.960 . S
C1136 H1123 0.960 . S
C1136 C1135 1.524 . S
C1137 C1134 1.403 . S
C1137 C1138 1.392 . S
C1137 C1141 1.495 . S
C1138 C1137 1.392 . S
C1138 C1139 1.385 . S
C1138 C1140 1.478 . S
C1139 H1133 0.930 . S
C1139 C1135 1.400 . S
C1139 C1138 1.385 . S
C1140 C1138 1.478 . S
C1140 C1142 1.381 . S
C1140 C1146 1.383 . S
C1141 C1137 1.495 . S
C1141 H1147 0.959 . S
C1141 H1148 0.961 . S
C1141 H1149 0.960 . S
C1142 C1140 1.381 . S
C1142 C1143 1.394 . S
C1142 H1150 0.930 . S
C1143 C1142 1.394 . S
C1143 C1144 1.383 . S
C1143 H1151 0.929 . S
C1144 C1143 1.383 . S
C1144 C1145 1.377 . S
C1145 H1129 0.930 . S
C1145 C1144 1.377 . S
C1145 C1146 1.379 . S
C1146 H1130 0.931 . S
C1146 C1140 1.383 . S
C1146 C1145 1.379 . S
H1147 C1141 0.959 . S
H1148 C1141 0.961 . S
H1149 C1141 0.960 . S
H1150 C1142 0.930 . S
H1151 C1143 0.929 . S
C297 C125 1.805 . S
C316 C169 1.919 . S
C352 C190 1.569 . S
C333 C144 1.476 . S
C388 C224 1.359 . S
C369 C87 1.290 . S
C424 C258 1.544 . S
C405 C106 1.426 . S
C460 C160 1.917 . S
C441 C49 1.832 1_556 S
C477 C68 1.493 1_556 S
C496 C199 1.566 . S
C513 C11 1.317 . S
C532 C233 1.332 . S
C549 C30 1.470 . S
C568 C267 1.542 . S
C604 C181 0.297 . S
C585 C97 0.490 . S
C640 C186 0.853 . S
C621 C116 0.836 . S
C676 C220 0.733 . S
C657 C135 0.744 . S
C693 C78 0.346 . S
C712 C254 0.234 . S
C729 C21 0.489 . S
C748 C152 0.393 . S
C784 C215 0.834 . S
C765 C40 0.833 . S
C820 C249 0.751 . S
C801 C59 0.765 . S
C837 C2 0.339 . S
C856 C283 0.275 . S
C873 C101 1.279 . S
C892 C165 1.293 . S
C909 C120 1.729 . S
C928 C194 1.758 . S
C964 C228 1.568 . S
C945 C139 1.548 . S
C1000 C262 1.664 . S
C981 C82 1.630 . S
C1017 C25 1.287 . S
C1036 C156 1.307 . S
C1072 C203 1.760 . S
C1053 C44 1.729 . S
C1108 C237 1.573 . S
C1089 C63 1.546 . S
C1125 C6 1.632 . S
C1144 C271 1.663 . S
