# Generated by pormake.
# Topology pyr, (3,6)-cn, num edge types: 1
# Building blocks:
#     Node 0, Type 0, BuildingBlock: BETDAH_clean_linker_0, # of connection points: 3
#     Node 1, Type 0, BuildingBlock: BETDAH_clean_linker_0, # of connection points: 3
#     Node 2, Type 0, BuildingBlock: BETDAH_clean_linker_0, # of connection points: 3
#     Node 3, Type 0, BuildingBlock: BETDAH_clean_linker_0, # of connection points: 3
#     Node 4, Type 0, BuildingBlock: BETDAH_clean_linker_0, # of connection points: 3
#     Node 5, Type 0, BuildingBlock: BETDAH_clean_linker_0, # of connection points: 3
#     Node 6, Type 0, BuildingBlock: BETDAH_clean_linker_0, # of connection points: 3
#     Node 7, Type 0, BuildingBlock: BETDAH_clean_linker_0, # of connection points: 3
#     Node 8, Type 1, BuildingBlock: BETDEL_clean_sbu_0, # of connection points: 6
#     Node 9, Type 1, BuildingBlock: BETDEL_clean_sbu_0, # of connection points: 6
#     Node 10, Type 1, BuildingBlock: BETDEL_clean_sbu_0, # of connection points: 6
#     Node 11, Type 1, BuildingBlock: BETDEL_clean_sbu_0, # of connection points: 6
#     Edge 12, Type (0, 1), BuildingBlock: OJICUG_clean_linker_0, # of connection points: 2
#     Edge 13, Type (0, 1), BuildingBlock: OJICUG_clean_linker_0, # of connection points: 2
#     Edge 14, Type (0, 1), BuildingBlock: OJICUG_clean_linker_0, # of connection points: 2
#     Edge 15, Type (0, 1), BuildingBlock: OJICUG_clean_linker_0, # of connection points: 2
#     Edge 16, Type (0, 1), BuildingBlock: OJICUG_clean_linker_0, # of connection points: 2
#     Edge 17, Type (0, 1), BuildingBlock: OJICUG_clean_linker_0, # of connection points: 2
#     Edge 18, Type (0, 1), BuildingBlock: OJICUG_clean_linker_0, # of connection points: 2
#     Edge 19, Type (0, 1), BuildingBlock: OJICUG_clean_linker_0, # of connection points: 2
#     Edge 20, Type (0, 1), BuildingBlock: OJICUG_clean_linker_0, # of connection points: 2
#     Edge 21, Type (0, 1), BuildingBlock: OJICUG_clean_linker_0, # of connection points: 2
#     Edge 22, Type (0, 1), BuildingBlock: OJICUG_clean_linker_0, # of connection points: 2
#     Edge 23, Type (0, 1), BuildingBlock: OJICUG_clean_linker_0, # of connection points: 2
#     Edge 24, Type (0, 1), BuildingBlock: OJICUG_clean_linker_0, # of connection points: 2
#     Edge 25, Type (0, 1), BuildingBlock: OJICUG_clean_linker_0, # of connection points: 2
#     Edge 26, Type (0, 1), BuildingBlock: OJICUG_clean_linker_0, # of connection points: 2
#     Edge 27, Type (0, 1), BuildingBlock: OJICUG_clean_linker_0, # of connection points: 2
#     Edge 28, Type (0, 1), BuildingBlock: OJICUG_clean_linker_0, # of connection points: 2
#     Edge 29, Type (0, 1), BuildingBlock: OJICUG_clean_linker_0, # of connection points: 2
#     Edge 30, Type (0, 1), BuildingBlock: OJICUG_clean_linker_0, # of connection points: 2
#     Edge 31, Type (0, 1), BuildingBlock: OJICUG_clean_linker_0, # of connection points: 2
#     Edge 32, Type (0, 1), BuildingBlock: OJICUG_clean_linker_0, # of connection points: 2
#     Edge 33, Type (0, 1), BuildingBlock: OJICUG_clean_linker_0, # of connection points: 2
#     Edge 34, Type (0, 1), BuildingBlock: OJICUG_clean_linker_0, # of connection points: 2
#     Edge 35, Type (0, 1), BuildingBlock: OJICUG_clean_linker_0, # of connection points: 2
# Relax obj value: 0.081
# Max RMSD: 0.185
# Mean RMSD: 0.131
data_MOF--net-pyr--node1-BETDEL_clean_sbu_0--node2-BETDAH_clean_linker_0--edge1-OJICUG_clean_linker_0
_symmetry_space_group_name_H-M    P1
_symmetry_Int_Tables_number       1
_symmetry_cell_setting            triclinic
loop_
_symmetry_equiv_pos_as_xyz
'x, y, z'
_cell_length_a     25.951485
_cell_length_b     27.849577
_cell_length_c     26.34643
_cell_angle_alpha  91.108634
_cell_angle_beta   89.658582
_cell_angle_gamma 102.88334
loop_
_atom_site_label
_atom_site_type_symbol
_atom_site_fract_x
_atom_site_fract_y
_atom_site_fract_z
_atom_type_partial_charge
H0 H 0.29428 0.16407 0.27535 0.0
H1 H 0.34666 0.28207 0.17216 0.0
H2 H 0.21469 0.28451 0.27049 0.0
C3 C 0.28959 0.19845 0.25952 0.0
C4 C 0.2487 0.22035 0.27699 0.0
C5 C 0.32303 0.21861 0.21979 0.0
C6 C 0.32064 0.26535 0.20237 0.0
C7 C 0.28234 0.28958 0.22115 0.0
C8 C 0.24558 0.26663 0.25775 0.0
N9 N 0.2822 0.33698 0.20228 0.0
C10 C 0.23702 0.35329 0.18973 0.0
H11 H 0.41891 0.86046 0.75575 0.0
H12 H 0.3228 0.96069 0.71247 0.0
H13 H 0.36093 0.8584 0.60306 0.0
C14 C 0.39556 0.87401 0.72773 0.0
C15 C 0.39142 0.85324 0.67859 0.0
C16 C 0.37025 0.91219 0.74099 0.0
C17 C 0.34263 0.93126 0.70336 0.0
C18 C 0.34081 0.91244 0.65349 0.0
C19 C 0.36485 0.87363 0.64136 0.0
N20 N 0.31565 0.93234 0.61438 0.0
C21 C 0.26614 0.9426 0.61997 0.0
H22 H 0.7278 0.31672 0.98983 0.0
H23 H 0.7031 0.42775 0.88537 0.0
H24 H 0.59253 0.2882 0.89281 0.0
C25 C 0.70446 0.32983 0.96146 0.0
C26 C 0.65791 0.29819 0.94472 0.0
C27 C 0.72189 0.37685 0.94028 0.0
C28 C 0.69107 0.39162 0.90174 0.0
C29 C 0.64427 0.35943 0.88466 0.0
C30 C 0.62843 0.31301 0.90617 0.0
N31 N 0.61152 0.37138 0.84601 0.0
C32 C 0.61801 0.41554 0.82038 0.0
H33 H 0.80251 0.74876 0.473 0.0
H34 H 0.91986 0.72835 0.363 0.0
H35 H 0.79678 0.60565 0.40699 0.0
C36 C 0.81871 0.72488 0.4475 0.0
C37 C 0.79375 0.67483 0.44375 0.0
C38 C 0.86512 0.74462 0.41994 0.0
C39 C 0.88397 0.71414 0.38416 0.0
C40 C 0.85819 0.66396 0.37911 0.0
C41 C 0.81437 0.64475 0.40965 0.0
N42 N 0.87749 0.62976 0.34794 0.0
C43 C 0.90525 0.6388 0.30261 0.0
H44 H 0.87056 0.78795 0.81944 0.0
H45 H 0.74055 0.7568 0.92252 0.0
H46 H 0.73534 0.85278 0.79876 0.0
C47 C 0.8314 0.79235 0.8291 0.0
C48 C 0.80731 0.82461 0.80204 0.0
C49 C 0.80768 0.76763 0.87192 0.0
C50 C 0.75908 0.77551 0.88919 0.0
C51 C 0.73394 0.80713 0.86313 0.0
C52 C 0.75711 0.83041 0.81906 0.0
N53 N 0.68286 0.81156 0.87856 0.0
C54 C 0.67339 0.85033 0.90875 0.0
H55 H 0.74167 0.1026 0.38484 0.0
H56 H 0.76974 0.2004 0.51478 0.0
H57 H 0.64218 0.20512 0.4142 0.0
C58 C 0.73138 0.13162 0.40801 0.0
C59 C 0.68935 0.15267 0.39349 0.0
C60 C 0.76046 0.14806 0.45192 0.0
C61 C 0.74705 0.18591 0.4813 0.0
C62 C 0.70416 0.20555 0.46888 0.0
C63 C 0.67531 0.18954 0.42443 0.0
N64 N 0.69111 0.24029 0.50348 0.0
C65 C 0.65705 0.27075 0.49418 0.0
H66 H 0.3008 0.77678 0.14211 0.0
H67 H 0.30964 0.64809 0.22789 0.0
H68 H 0.43886 0.77514 0.22935 0.0
C69 C 0.32108 0.75794 0.16846 0.0
C70 C 0.37106 0.78167 0.18538 0.0
C71 C 0.2978 0.71013 0.18398 0.0
C72 C 0.32604 0.68574 0.21705 0.0
C73 C 0.3772 0.70934 0.23345 0.0
C74 C 0.39915 0.75725 0.21754 0.0
N75 N 0.41107 0.68346 0.25793 0.0
C76 C 0.40113 0.65859 0.30354 0.0
H77 H 0.2093 0.33243 0.6139 0.0
H78 H 0.20166 0.45391 0.71687 0.0
H79 H 0.07175 0.32823 0.70501 0.0
C80 C 0.1894 0.34967 0.64283 0.0
C81 C 0.13934 0.32402 0.65901 0.0
C82 C 0.21389 0.39627 0.66423 0.0
C83 C 0.18475 0.41819 0.69999 0.0
C84 C 0.133 0.39376 0.71363 0.0
C85 C 0.11129 0.34686 0.69367 0.0
N86 N 0.09982 0.41557 0.74518 0.0
C87 C 0.11584 0.45002 0.78392 0.0
Dy88 Dy 0.03774 0.04946 0.48581 0.0
C89 C 0.94178 0.95903 0.66597 0.0
C90 C 0.0913 0.10382 0.40878 0.0
Dy91 Dy 0.98253 0.01506 0.586 0.0
O92 O 0.09039 0.0579 0.41704 0.0
O93 O 0.06017 0.11934 0.44067 0.0
O94 O 0.08855 0.99573 0.49717 0.0
O95 O 0.06429 0.03099 0.56085 0.0
C96 C 0.08817 0.99865 0.54616 0.0
C97 C 0.91277 0.04706 0.52884 0.0
O98 O 0.02715 0.08958 0.61394 0.0
O99 O 0.05644 0.11824 0.53409 0.0
O100 O 0.93595 0.00343 0.65825 0.0
O101 O 0.97431 0.94716 0.63277 0.0
O102 O 0.9033 0.02963 0.57375 0.0
O103 O 0.95933 0.04584 0.51599 0.0
O104 O 0.98021 0.98219 0.4563 0.0
O105 O 0.97313 0.94799 0.53593 0.0
C106 C 0.0506 0.12555 0.58345 0.0
C107 C 0.96615 0.94359 0.4862 0.0
Dy108 Dy 0.55343 0.05539 0.11427 0.0
C109 C 0.40187 0.98665 0.94616 0.0
C110 C 0.61806 0.09561 0.19117 0.0
Dy111 Dy 0.46801 0.02998 0.02143 0.0
O112 O 0.6122 0.05059 0.17419 0.0
O113 O 0.59273 0.12018 0.1626 0.0
O114 O 0.51304 0.99507 0.16565 0.0
O115 O 0.48043 0.00344 0.09609 0.0
C116 C 0.47464 0.97728 0.13491 0.0
C117 C 0.54832 0.10844 1.00298 0.0
O118 O 0.42364 0.06586 0.07858 0.0
O119 O 0.49661 0.10455 0.12816 0.0
O120 O 0.41119 0.03321 0.95853 0.0
O121 O 0.42547 0.96331 0.97772 0.0
O122 O 0.50996 0.09249 0.97151 0.0
O123 O 0.54076 0.08102 0.04047 0.0
O124 O 0.59674 0.0156 0.05809 0.0
O125 O 0.52376 0.98101 1.00695 0.0
C126 C 0.44635 0.09821 0.11417 0.0
C127 C 0.57329 0.98431 0.02162 0.0
Dy128 Dy 0.52129 0.50993 0.54716 0.0
C129 C 0.47423 0.68198 0.63186 0.0
C130 C 0.57244 0.44083 0.51362 0.0
Dy131 Dy 0.50568 0.59934 0.60105 0.0
O132 O 0.53316 0.45221 0.48969 0.0
O133 O 0.58487 0.46887 0.55344 0.0
O134 O 0.44912 0.45355 0.56404 0.0
O135 O 0.45588 0.52469 0.59576 0.0
C136 C 0.42707 0.48141 0.59266 0.0
C137 C 0.60349 0.607 0.56215 0.0
O138 O 0.52675 0.56028 0.66883 0.0
O139 O 0.56818 0.51205 0.6186 0.0
O140 O 0.50077 0.67756 0.59105 0.0
O141 O 0.46537 0.64125 0.65704 0.0
O142 O 0.59423 0.62644 0.60544 0.0
O143 O 0.56041 0.58675 0.54134 0.0
O144 O 0.49413 0.54596 0.48062 0.0
O145 O 0.45679 0.59839 0.53053 0.0
C146 C 0.55812 0.52907 0.66372 0.0
C147 C 0.46411 0.5785 0.4857 0.0
Dy148 Dy 0.03322 0.51605 0.06081 0.0
C149 C 0.9481 0.66527 0.96979 0.0
C150 C 0.089 0.4546 0.10421 0.0
Dy151 Dy 0.00457 0.60318 1.01013 0.0
O152 O 0.07508 0.49153 0.12661 0.0
O153 O 0.07108 0.45003 0.05788 0.0
O154 O 0.96961 0.51579 0.11843 0.0
O155 O 0.00927 0.58264 0.08893 0.0
C156 C 0.97214 0.5629 0.11794 0.0
C157 C 0.06789 0.55972 0.95405 0.0
O158 O 0.07494 0.64253 0.05583 0.0
O159 O 0.10848 0.57259 0.05637 0.0
O160 O 0.97508 0.63914 0.94427 0.0
O161 O 0.95448 0.66005 0.01815 0.0
O162 O 0.07005 0.60687 0.95401 0.0
O163 O 0.03012 0.53798 0.98182 0.0
O164 O 0.96022 0.47326 0.02385 0.0
O165 O 0.93033 0.54337 1.00395 0.0
C166 C 0.11358 0.61996 0.06636 0.0
C167 C 0.92346 0.49493 1.00672 0.0
C168 C 0.18065 0.21484 0.34794 0.0
C169 C 0.2072 0.1918 0.31123 0.0
H170 H 0.12221 0.20497 0.40744 0.0
C171 C 0.19324 0.13999 0.30642 0.0
H172 H 0.19052 0.25447 0.35327 0.0
C173 C 0.15536 0.11202 0.33786 0.0
C174 C 0.12882 0.13483 0.37408 0.0
H175 H 0.21101 0.12047 0.27775 0.0
H176 H 0.14662 0.07226 0.33352 0.0
C177 C 0.14154 0.18654 0.37895 0.0
C178 C 0.37681 0.98153 0.80523 0.0
C179 C 0.37253 0.93116 0.79425 0.0
H180 H 0.38798 0.03849 0.86256 0.0
C181 C 0.3721 0.89882 0.83474 0.0
H182 H 0.37798 0.00762 0.77507 0.0
C183 C 0.37857 0.91663 0.88463 0.0
C184 C 0.38449 0.96701 0.89535 0.0
H185 H 0.36763 0.85964 0.82795 0.0
H186 H 0.38062 0.89111 0.91468 0.0
C187 C 0.38241 0.99923 0.8554 0.0
C188 C 0.63923 0.45906 0.74003 0.0
C189 C 0.61214 0.45406 0.78637 0.0
H190 H 0.64396 0.48784 0.66508 0.0
C191 C 0.57182 0.47955 0.79485 0.0
H192 H 0.67 0.43917 0.73251 0.0
C193 C 0.55658 0.50747 0.7562 0.0
C194 C 0.58101 0.50956 0.70832 0.0
H195 H 0.54988 0.47539 0.83021 0.0
H196 H 0.52335 0.52444 0.76268 0.0
C197 C 0.62391 0.48665 0.70138 0.0
C198 C 0.91223 0.64288 0.20865 0.0
C199 C 0.92999 0.62931 0.25539 0.0
H200 H 0.91254 0.63257 0.1273 0.0
C201 C 0.96464 0.59734 0.25607 0.0
H202 H 0.88466 0.66687 0.2075 0.0
C203 C 0.9792 0.57693 0.21093 0.0
C204 C 0.95968 0.58847 0.16426 0.0
H205 H 0.97814 0.58588 0.29178 0.0
H206 H 0.00463 0.55096 0.2126 0.0
C207 C 0.92763 0.62295 0.16306 0.0
C208 C 0.40705 0.20869 0.17599 0.0
C209 C 0.3557 0.18806 0.19327 0.0
H210 H 0.47612 0.19601 0.13754 0.0
C211 C 0.33429 0.1376 0.18342 0.0
H212 H 0.42471 0.24729 0.18291 0.0
C213 C 0.36331 0.1086 0.15685 0.0
C214 C 0.41466 0.12918 0.14015 0.0
H215 H 0.29456 0.12056 0.19548 0.0
H216 H 0.34592 0.06988 0.15011 0.0
C217 C 0.43646 0.17935 0.15017 0.0
C218 C 0.17978 0.9191 0.58055 0.0
C219 C 0.2139 0.95052 0.61386 0.0
H220 H 0.11165 0.91024 0.53304 0.0
C221 C 0.20065 0.99359 0.63275 0.0
H222 H 0.18968 0.8857 0.56571 0.0
C223 C 0.15549 0.00729 0.61466 0.0
C224 C 0.12458 0.97836 0.57692 0.0
H225 H 0.227 0.01823 0.65841 0.0
H226 H 0.14767 0.04245 0.62655 0.0
C227 C 0.1354 0.9331 0.5619 0.0
C228 C 0.80615 0.44035 0.92387 0.0
C229 C 0.77294 0.40911 0.95777 0.0
H230 H 0.87995 0.49233 0.91329 0.0
C231 C 0.79015 0.40717 1.00827 0.0
H232 H 0.79499 0.44249 0.8846 0.0
C233 C 0.83979 0.43403 0.02381 0.0
C234 C 0.87253 0.46472 0.98977 0.0
H235 H 0.7653 0.38497 0.03613 0.0
H236 H 0.85212 0.4317 0.06274 0.0
C237 C 0.85514 0.46842 0.93999 0.0
C238 C 0.70456 0.61776 0.45645 0.0
C239 C 0.74676 0.65412 0.47598 0.0
H240 H 0.62655 0.57402 0.46869 0.0
C241 C 0.74298 0.6715 0.52616 0.0
H242 H 0.70586 0.60343 0.41808 0.0
C243 C 0.69721 0.65486 0.55499 0.0
C244 C 0.65425 0.62034 0.53438 0.0
H245 H 0.7752 0.69843 0.54311 0.0
H246 H 0.69495 0.67004 0.59289 0.0
C247 C 0.6589 0.60104 0.48535 0.0
C248 C 0.17736 0.36413 0.12041 0.0
C249 C 0.19588 0.37531 0.17013 0.0
H250 H 0.12864 0.38045 0.06033 0.0
C251 C 0.17812 0.41151 0.19851 0.0
H252 H 0.19145 0.33687 0.09761 0.0
C253 C 0.14243 0.43648 0.17727 0.0
C254 C 0.12404 0.42571 0.12724 0.0
H255 H 0.19271 0.42128 0.23664 0.0
H256 H 0.13001 0.4649 0.19972 0.0
C257 C 0.14163 0.38909 0.0991 0.0
C258 C 0.61669 0.24184 0.01391 0.0
C259 C 0.6403 0.24853 0.96565 0.0
H260 H 0.56908 0.19041 0.06469 0.0
C261 C 0.64102 0.20742 0.93443 0.0
H262 H 0.61529 0.27338 0.0382 0.0
C263 C 0.61503 0.16055 0.94947 0.0
C264 C 0.58832 0.15404 0.99605 0.0
H265 H 0.6591 0.21196 0.89715 0.0
H266 H 0.61296 0.12969 0.92327 0.0
C267 C 0.59076 0.19459 0.02916 0.0
C268 C 0.9001 0.80838 0.48585 0.0
C269 C 0.89535 0.79524 0.43413 0.0
H270 H 0.92397 0.86413 0.54196 0.0
C271 C 0.91684 0.83119 0.39822 0.0
H272 H 0.88545 0.78156 0.51476 0.0
C273 C 0.9402 0.87992 0.41417 0.0
C274 C 0.94264 0.89304 0.46621 0.0
H275 H 0.91422 0.82204 0.35805 0.0
H276 H 0.95593 0.90715 0.38601 0.0
C277 C 0.92274 0.85622 0.50152 0.0
C278 C 0.43578 0.80358 0.61904 0.0
C279 C 0.4134 0.80945 0.66683 0.0
H280 H 0.47245 0.75838 0.57077 0.0
C281 C 0.41123 0.77259 0.70319 0.0
H282 H 0.43848 0.83122 0.59022 0.0
C283 C 0.43136 0.7311 0.69215 0.0
C284 C 0.45382 0.7257 0.64457 0.0
H285 H 0.39323 0.77533 0.74 0.0
H286 H 0.42924 0.70327 0.72073 0.0
C287 C 0.45576 0.76209 0.60805 0.0
C288 C 0.82409 0.89949 0.74544 0.0
C289 C 0.83746 0.85542 0.76039 0.0
H290 H 0.84657 0.96649 0.7043 0.0
C291 C 0.88361 0.84413 0.73876 0.0
H292 H 0.78882 0.91009 0.75893 0.0
C293 C 0.91793 0.87805 0.70887 0.0
C294 C 0.9063 0.92341 0.69814 0.0
H295 H 0.89449 0.80951 0.74506 0.0
H296 H 0.95387 0.86893 0.69454 0.0
C297 C 0.85799 0.93286 0.71464 0.0
C298 C 0.65654 0.17349 0.3096 0.0
C299 C 0.66335 0.13768 0.34421 0.0
H300 H 0.63775 0.18821 0.23308 0.0
C301 C 0.65228 0.08791 0.32873 0.0
H302 H 0.66477 0.21212 0.32062 0.0
C303 C 0.63876 0.0746 0.27857 0.0
C304 C 0.63504 0.11072 0.24319 0.0
H305 H 0.65581 0.0594 0.35507 0.0
H306 H 0.63112 0.03598 0.26757 0.0
C307 C 0.64217 0.16002 0.25941 0.0
C308 C 0.40538 0.65861 0.39739 0.0
C309 C 0.40687 0.63417 0.35057 0.0
H310 H 0.4219 0.65995 0.47711 0.0
C311 C 0.42333 0.5895 0.3489 0.0
H312 H 0.39382 0.69367 0.39936 0.0
C313 C 0.44018 0.57043 0.3931 0.0
C314 C 0.44073 0.59567 0.43991 0.0
H315 H 0.42556 0.57047 0.31297 0.0
H316 H 0.45426 0.53668 0.39027 0.0
C317 C 0.42179 0.63935 0.44178 0.0
C318 C 0.10687 0.45853 0.87595 0.0
C319 C 0.11658 0.48081 0.82856 0.0
H320 H 0.08361 0.46647 0.95337 0.0
C321 C 0.116 0.53068 0.82387 0.0
H322 H 0.10634 0.41976 0.87996 0.0
C323 C 0.10352 0.55751 0.86588 0.0
C324 C 0.09032 0.53433 0.91267 0.0
H325 H 0.12221 0.54812 0.78723 0.0
H326 H 0.10088 0.5954 0.86083 0.0
C327 C 0.09353 0.48505 0.91772 0.0
C328 C 0.68091 0.92134 0.97046 0.0
C329 C 0.65072 0.88492 0.93834 0.0
H330 H 0.68031 0.98189 0.02274 0.0
C331 C 0.59626 0.88078 0.9351 0.0
H332 H 0.72317 0.92481 0.97367 0.0
C333 C 0.57198 0.91266 0.9628 0.0
C334 C 0.60149 0.95 0.99471 0.0
H335 H 0.57217 0.85268 0.91093 0.0
H336 H 0.5296 0.90777 0.95882 0.0
C337 C 0.65639 0.95376 0.9986 0.0
C338 C 0.80829 0.11861 0.52178 0.0
C339 C 0.80248 0.12405 0.46951 0.0
H340 H 0.84899 0.09212 0.58058 0.0
C341 C 0.8359 0.10544 0.4355 0.0
H342 H 0.78264 0.13093 0.54928 0.0
C343 C 0.8739 0.08135 0.45393 0.0
C344 C 0.87839 0.07581 0.50633 0.0
H345 H 0.83264 0.10931 0.39491 0.0
H346 H 0.89841 0.06605 0.42756 0.0
C347 C 0.84605 0.09549 0.53983 0.0
C348 C 0.24129 0.63735 0.13973 0.0
C349 C 0.24716 0.68514 0.1598 0.0
H350 H 0.19585 0.58022 0.09344 0.0
C351 C 0.20789 0.71151 0.14962 0.0
H352 H 0.27095 0.61626 0.14621 0.0
C353 C 0.16503 0.69131 0.11808 0.0
C354 C 0.16035 0.64414 0.09655 0.0
H355 H 0.21097 0.74833 0.16515 0.0
H356 H 0.13565 0.71249 0.11078 0.0
C357 C 0.19855 0.61716 0.10848 0.0
C358 C 0.30457 0.3906 0.63376 0.0
C359 C 0.26988 0.42027 0.64963 0.0
H360 H 0.37958 0.3866 0.60328 0.0
C361 C 0.28958 0.47201 0.65051 0.0
H362 H 0.29308 0.35084 0.63459 0.0
C363 C 0.34153 0.49291 0.63409 0.0
C364 C 0.37432 0.4625 0.61577 0.0
H365 H 0.26467 0.49653 0.6625 0.0
H366 H 0.3553 0.5326 0.63412 0.0
C367 C 0.35522 0.41128 0.61644 0.0
C368 C 0.85092 0.74692 0.95078 0.0
C369 C 0.83687 0.73645 0.89969 0.0
H370 H 0.89816 0.73296 0.01321 0.0
C371 C 0.85737 0.70074 0.87301 0.0
H372 H 0.83604 0.77479 0.97182 0.0
C373 C 0.89338 0.67774 0.89616 0.0
C374 C 0.90938 0.68974 0.94656 0.0
H375 H 0.84682 0.69185 0.83365 0.0
H376 H 0.90907 0.65083 0.87436 0.0
C377 C 0.88686 0.72356 0.97415 0.0
C378 C 0.40079 0.84546 0.11896 0.0
C379 C 0.39305 0.83272 0.17037 0.0
H380 H 0.43275 0.90294 0.06651 0.0
C381 C 0.40511 0.86933 0.20813 0.0
H382 H 0.39123 0.81743 0.0893 0.0
C383 C 0.42705 0.91766 0.19515 0.0
C384 C 0.43787 0.93024 0.14425 0.0
H385 H 0.39832 0.86034 0.24781 0.0
H386 H 0.43812 0.94494 0.22535 0.0
C387 C 0.42349 0.8942 0.10587 0.0
C388 C 0.09651 0.23504 0.67409 0.0
C389 C 0.11617 0.27319 0.64002 0.0
H390 H 0.06078 0.1583 0.68334 0.0
C391 C 0.11343 0.26251 0.5878 0.0
H392 H 0.09848 0.2423 0.71465 0.0
C393 C 0.09169 0.21477 0.56993 0.0
C394 C 0.07245 0.17621 0.60381 0.0
H395 H 0.12761 0.29126 0.5607 0.0
H396 H 0.09002 0.20826 0.52925 0.0
C397 C 0.07499 0.18697 0.65619 0.0
C398 C 0.62279 0.32936 0.5453 0.0
C399 C 0.62899 0.30935 0.49727 0.0
H400 H 0.60053 0.38748 0.58761 0.0
C401 C 0.61417 0.33102 0.45371 0.0
H402 H 0.63432 0.31295 0.57921 0.0
C403 C 0.59416 0.37367 0.45843 0.0
C404 C 0.59056 0.39509 0.50657 0.0
H405 H 0.61945 0.3159 0.41634 0.0
H406 H 0.58343 0.3908 0.42471 0.0
C407 C 0.60408 0.37215 0.54994 0.0
loop_
_geom_bond_atom_site_label_1
_geom_bond_atom_site_label_2
_geom_bond_distance
_geom_bond_site_symmetry_2
_ccdc_geom_bond_type
H0 C3 0.929 . S
H1 C6 0.929 . S
H2 C8 0.930 . S
C3 H0 0.929 . S
C3 C4 1.398 . S
C3 C5 1.396 . S
C4 C3 1.398 . S
C4 C8 1.407 . S
C5 C3 1.396 . S
C5 C6 1.394 . S
C6 H1 0.929 . S
C6 C5 1.394 . S
C6 C7 1.382 . S
C7 C6 1.382 . S
C7 C8 1.392 . S
C7 N9 1.420 . S
C8 H2 0.930 . S
C8 C4 1.407 . S
C8 C7 1.392 . S
N9 C7 1.420 . S
N9 C10 1.244 . S
C10 N9 1.244 . S
H11 C14 0.929 . S
H12 C17 0.929 . S
H13 C19 0.930 . S
C14 H11 0.929 . S
C14 C15 1.398 . S
C14 C16 1.396 . S
C15 C14 1.398 . S
C15 C19 1.407 . S
C16 C14 1.396 . S
C16 C17 1.394 . S
C17 H12 0.929 . S
C17 C16 1.394 . S
C17 C18 1.382 . S
C18 C17 1.382 . S
C18 C19 1.392 . S
C18 N20 1.420 . S
C19 H13 0.930 . S
C19 C15 1.407 . S
C19 C18 1.392 . S
N20 C18 1.420 . S
N20 C21 1.244 . S
C21 N20 1.244 . S
H22 C25 0.929 . S
H23 C28 0.929 . S
H24 C30 0.930 . S
C25 H22 0.929 . S
C25 C26 1.398 . S
C25 C27 1.396 . S
C26 C25 1.398 . S
C26 C30 1.407 . S
C27 C25 1.396 . S
C27 C28 1.394 . S
C28 H23 0.929 . S
C28 C27 1.394 . S
C28 C29 1.382 . S
C29 C28 1.382 . S
C29 C30 1.392 . S
C29 N31 1.420 . S
C30 H24 0.930 . S
C30 C26 1.407 . S
C30 C29 1.392 . S
N31 C29 1.420 . S
N31 C32 1.244 . S
C32 N31 1.244 . S
H33 C36 0.929 . S
H34 C39 0.929 . S
H35 C41 0.930 . S
C36 H33 0.929 . S
C36 C37 1.398 . S
C36 C38 1.396 . S
C37 C36 1.398 . S
C37 C41 1.407 . S
C38 C36 1.396 . S
C38 C39 1.394 . S
C39 H34 0.929 . S
C39 C38 1.394 . S
C39 C40 1.382 . S
C40 C39 1.382 . S
C40 C41 1.392 . S
C40 N42 1.420 . S
C41 H35 0.930 . S
C41 C37 1.407 . S
C41 C40 1.392 . S
N42 C40 1.420 . S
N42 C43 1.244 . S
C43 N42 1.244 . S
H44 C47 0.929 . S
H45 C50 0.929 . S
H46 C52 0.930 . S
C47 H44 0.929 . S
C47 C48 1.398 . S
C47 C49 1.396 . S
C48 C47 1.398 . S
C48 C52 1.407 . S
C49 C47 1.396 . S
C49 C50 1.394 . S
C50 H45 0.929 . S
C50 C49 1.394 . S
C50 C51 1.382 . S
C51 C50 1.382 . S
C51 C52 1.392 . S
C51 N53 1.420 . S
C52 H46 0.930 . S
C52 C48 1.407 . S
C52 C51 1.392 . S
N53 C51 1.420 . S
N53 C54 1.244 . S
C54 N53 1.244 . S
H55 C58 0.929 . S
H56 C61 0.929 . S
H57 C63 0.930 . S
C58 H55 0.929 . S
C58 C59 1.398 . S
C58 C60 1.396 . S
C59 C58 1.398 . S
C59 C63 1.407 . S
C60 C58 1.396 . S
C60 C61 1.394 . S
C61 H56 0.929 . S
C61 C60 1.394 . S
C61 C62 1.382 . S
C62 C61 1.382 . S
C62 C63 1.392 . S
C62 N64 1.420 . S
C63 H57 0.930 . S
C63 C59 1.407 . S
C63 C62 1.392 . S
N64 C62 1.420 . S
N64 C65 1.244 . S
C65 N64 1.244 . S
H66 C69 0.929 . S
H67 C72 0.929 . S
H68 C74 0.930 . S
C69 H66 0.929 . S
C69 C70 1.398 . S
C69 C71 1.396 . S
C70 C69 1.398 . S
C70 C74 1.407 . S
C71 C69 1.396 . S
C71 C72 1.394 . S
C72 H67 0.929 . S
C72 C71 1.394 . S
C72 C73 1.382 . S
C73 C72 1.382 . S
C73 C74 1.392 . S
C73 N75 1.420 . S
C74 H68 0.930 . S
C74 C70 1.407 . S
C74 C73 1.392 . S
N75 C73 1.420 . S
N75 C76 1.244 . S
C76 N75 1.244 . S
H77 C80 0.929 . S
H78 C83 0.929 . S
H79 C85 0.930 . S
C80 H77 0.929 . S
C80 C81 1.398 . S
C80 C82 1.396 . S
C81 C80 1.398 . S
C81 C85 1.407 . S
C82 C80 1.396 . S
C82 C83 1.394 . S
C83 H78 0.929 . S
C83 C82 1.394 . S
C83 C84 1.382 . S
C84 C83 1.382 . S
C84 C85 1.392 . S
C84 N86 1.420 . S
C85 H79 0.930 . S
C85 C81 1.407 . S
C85 C84 1.392 . S
N86 C84 1.420 . S
N86 C87 1.244 . S
C87 N86 1.244 . S
Dy88 O92 2.398 . S
Dy88 O93 2.491 . S
Dy88 O94 2.403 . S
Dy88 O95 2.664 1_545 S
Dy88 O99 2.326 . S
Dy88 O103 2.310 1_455 S
Dy88 O104 2.351 1_445 S
C89 O100 1.185 . S
C89 O101 1.355 . S
C90 O92 1.185 . S
C90 O93 1.355 . S
Dy91 O95 2.310 1_645 S
Dy91 O98 2.351 1_655 S
Dy91 O100 2.398 1_545 S
Dy91 O101 2.491 1_545 S
Dy91 O102 2.403 . S
Dy91 O103 2.664 . S
Dy91 O105 2.326 1_545 S
O92 Dy88 2.398 . S
O92 C90 1.185 . S
O93 Dy88 2.491 . S
O93 C90 1.355 . S
O94 Dy88 2.403 . S
O94 C96 1.254 1_545 S
O95 Dy88 2.664 1_565 S
O95 Dy91 2.310 1_465 S
O95 C96 1.268 . S
C96 O94 1.254 1_565 S
C96 O95 1.268 . S
C97 O102 1.254 . S
C97 O103 1.268 . S
O98 Dy91 2.351 1_455 S
O98 C106 1.249 . S
O99 Dy88 2.326 . S
O99 C106 1.267 . S
O100 C89 1.185 . S
O100 Dy91 2.398 1_565 S
O101 C89 1.355 . S
O101 Dy91 2.491 1_565 S
O102 Dy91 2.403 . S
O102 C97 1.254 . S
O103 Dy88 2.310 1_655 S
O103 Dy91 2.664 . S
O103 C97 1.268 . S
O104 Dy88 2.351 1_665 S
O104 C107 1.249 . S
O105 Dy91 2.326 1_565 S
O105 C107 1.267 . S
C106 O98 1.249 . S
C106 O99 1.267 . S
C107 O104 1.249 . S
C107 O105 1.267 . S
Dy108 O112 2.398 . S
Dy108 O113 2.491 . S
Dy108 O114 2.403 1_545 S
Dy108 O115 2.664 1_545 S
Dy108 O119 2.326 . S
Dy108 O123 2.310 . S
Dy108 O124 2.351 1_545 S
C109 O120 1.185 1_565 S
C109 O121 1.355 . S
C110 O112 1.185 . S
C110 O113 1.355 . S
Dy111 O115 2.310 1_545 S
Dy111 O118 2.351 . S
Dy111 O120 2.398 1_554 S
Dy111 O121 2.491 1_544 S
Dy111 O122 2.403 1_554 S
Dy111 O123 2.664 . S
Dy111 O125 2.326 1_544 S
O112 Dy108 2.398 . S
O112 C110 1.185 . S
O113 Dy108 2.491 . S
O113 C110 1.355 . S
O114 Dy108 2.403 1_565 S
O114 C116 1.254 . S
O115 Dy108 2.664 1_565 S
O115 Dy111 2.310 1_565 S
O115 C116 1.268 . S
C116 O114 1.254 . S
C116 O115 1.268 . S
C117 O122 1.254 1_554 S
C117 O123 1.268 . S
O118 Dy111 2.351 . S
O118 C126 1.249 . S
O119 Dy108 2.326 . S
O119 C126 1.267 . S
O120 C109 1.185 1_545 S
O120 Dy111 2.398 1_556 S
O121 C109 1.355 . S
O121 Dy111 2.491 1_566 S
O122 Dy111 2.403 1_556 S
O122 C117 1.254 1_556 S
O123 Dy108 2.310 . S
O123 Dy111 2.664 . S
O123 C117 1.268 . S
O124 Dy108 2.351 1_565 S
O124 C127 1.249 . S
O125 Dy111 2.326 1_566 S
O125 C127 1.267 1_556 S
C126 O118 1.249 . S
C126 O119 1.267 . S
C127 O124 1.249 . S
C127 O125 1.267 1_554 S
Dy128 O132 2.398 . S
Dy128 O133 2.491 . S
Dy128 O134 2.403 . S
Dy128 O135 2.664 . S
Dy128 O139 2.326 . S
Dy128 O143 2.310 . S
Dy128 O144 2.351 . S
C129 O140 1.185 . S
C129 O141 1.355 . S
C130 O132 1.185 . S
C130 O133 1.355 . S
Dy131 O135 2.310 . S
Dy131 O138 2.351 . S
Dy131 O140 2.398 . S
Dy131 O141 2.491 . S
Dy131 O142 2.403 . S
Dy131 O143 2.664 . S
Dy131 O145 2.326 . S
O132 Dy128 2.398 . S
O132 C130 1.185 . S
O133 Dy128 2.491 . S
O133 C130 1.355 . S
O134 Dy128 2.403 . S
O134 C136 1.254 . S
O135 Dy128 2.664 . S
O135 Dy131 2.310 . S
O135 C136 1.268 . S
C136 O134 1.254 . S
C136 O135 1.268 . S
C137 O142 1.254 . S
C137 O143 1.268 . S
O138 Dy131 2.351 . S
O138 C146 1.249 . S
O139 Dy128 2.326 . S
O139 C146 1.267 . S
O140 C129 1.185 . S
O140 Dy131 2.398 . S
O141 C129 1.355 . S
O141 Dy131 2.491 . S
O142 Dy131 2.403 . S
O142 C137 1.254 . S
O143 Dy128 2.310 . S
O143 Dy131 2.664 . S
O143 C137 1.268 . S
O144 Dy128 2.351 . S
O144 C147 1.249 . S
O145 Dy131 2.326 . S
O145 C147 1.267 . S
C146 O138 1.249 . S
C146 O139 1.267 . S
C147 O144 1.249 . S
C147 O145 1.267 . S
Dy148 O152 2.398 . S
Dy148 O153 2.491 . S
Dy148 O154 2.403 1_455 S
Dy148 O155 2.664 1_455 S
Dy148 O159 2.326 . S
Dy148 O163 2.310 1_554 S
Dy148 O164 2.351 1_455 S
C149 O160 1.185 . S
C149 O161 1.355 . S
C150 O152 1.185 . S
C150 O153 1.355 . S
Dy151 O155 2.310 1_456 S
Dy151 O158 2.351 1_556 S
Dy151 O160 2.398 1_455 S
Dy151 O161 2.491 1_455 S
Dy151 O162 2.403 . S
Dy151 O163 2.664 . S
Dy151 O165 2.326 1_455 S
O152 Dy148 2.398 . S
O152 C150 1.185 . S
O153 Dy148 2.491 . S
O153 C150 1.355 . S
O154 Dy148 2.403 1_655 S
O154 C156 1.254 . S
O155 Dy148 2.664 1_655 S
O155 Dy151 2.310 1_654 S
O155 C156 1.268 . S
C156 O154 1.254 . S
C156 O155 1.268 . S
C157 O162 1.254 . S
C157 O163 1.268 . S
O158 Dy151 2.351 1_554 S
O158 C166 1.249 . S
O159 Dy148 2.326 . S
O159 C166 1.267 . S
O160 C149 1.185 . S
O160 Dy151 2.398 1_655 S
O161 C149 1.355 . S
O161 Dy151 2.491 1_655 S
O162 Dy151 2.403 . S
O162 C157 1.254 . S
O163 Dy148 2.310 1_556 S
O163 Dy151 2.664 . S
O163 C157 1.268 . S
O164 Dy148 2.351 1_655 S
O164 C167 1.249 1_554 S
O165 Dy151 2.326 1_655 S
O165 C167 1.267 . S
C166 O158 1.249 . S
C166 O159 1.267 . S
C167 O164 1.249 1_556 S
C167 O165 1.267 . S
C168 C169 1.387 . S
C168 H172 0.950 . S
C168 C177 1.390 . S
C169 C168 1.387 . S
C169 C171 1.387 . S
H170 C177 0.950 . S
C171 C169 1.387 . S
C171 C173 1.390 . S
C171 H175 0.950 . S
H172 C168 0.950 . S
C173 C171 1.390 . S
C173 C174 1.387 . S
C173 H176 0.950 . S
C174 C173 1.387 . S
C174 C177 1.387 . S
H175 C171 0.950 . S
H176 C173 0.950 . S
C177 C168 1.390 . S
C177 H170 0.950 . S
C177 C174 1.387 . S
C178 C179 1.387 . S
C178 H182 0.950 . S
C178 C187 1.390 . S
C179 C178 1.387 . S
C179 C181 1.387 . S
H180 C187 0.950 1_545 S
C181 C179 1.387 . S
C181 C183 1.390 . S
C181 H185 0.950 . S
H182 C178 0.950 . S
C183 C181 1.390 . S
C183 C184 1.387 . S
C183 H186 0.950 . S
C184 C183 1.387 . S
C184 C187 1.387 . S
H185 C181 0.950 . S
H186 C183 0.950 . S
C187 C178 1.390 . S
C187 H180 0.950 1_565 S
C187 C184 1.387 . S
C188 C189 1.387 . S
C188 H192 0.950 . S
C188 C197 1.390 . S
C189 C188 1.387 . S
C189 C191 1.387 . S
H190 C197 0.950 . S
C191 C189 1.387 . S
C191 C193 1.390 . S
C191 H195 0.950 . S
H192 C188 0.950 . S
C193 C191 1.390 . S
C193 C194 1.387 . S
C193 H196 0.950 . S
C194 C193 1.387 . S
C194 C197 1.387 . S
H195 C191 0.950 . S
H196 C193 0.950 . S
C197 C188 1.390 . S
C197 H190 0.950 . S
C197 C194 1.387 . S
C198 C199 1.387 . S
C198 H202 0.950 . S
C198 C207 1.390 . S
C199 C198 1.387 . S
C199 C201 1.387 . S
H200 C207 0.950 . S
C201 C199 1.387 . S
C201 C203 1.390 . S
C201 H205 0.950 . S
H202 C198 0.950 . S
C203 C201 1.390 . S
C203 C204 1.387 . S
C203 H206 0.950 . S
C204 C203 1.387 . S
C204 C207 1.387 . S
H205 C201 0.950 . S
H206 C203 0.950 . S
C207 C198 1.390 . S
C207 H200 0.950 . S
C207 C204 1.387 . S
C208 C209 1.387 . S
C208 H212 0.950 . S
C208 C217 1.390 . S
C209 C208 1.387 . S
C209 C211 1.387 . S
H210 C217 0.950 . S
C211 C209 1.387 . S
C211 C213 1.390 . S
C211 H215 0.950 . S
H212 C208 0.950 . S
C213 C211 1.390 . S
C213 C214 1.387 . S
C213 H216 0.950 . S
C214 C213 1.387 . S
C214 C217 1.387 . S
H215 C211 0.950 . S
H216 C213 0.950 . S
C217 C208 1.390 . S
C217 H210 0.950 . S
C217 C214 1.387 . S
C218 C219 1.387 . S
C218 H222 0.950 . S
C218 C227 1.390 . S
C219 C218 1.387 . S
C219 C221 1.387 . S
H220 C227 0.950 . S
C221 C219 1.387 . S
C221 C223 1.390 1_565 S
C221 H225 0.950 1_565 S
H222 C218 0.950 . S
C223 C221 1.390 1_545 S
C223 C224 1.387 1_545 S
C223 H226 0.950 . S
C224 C223 1.387 1_565 S
C224 C227 1.387 . S
H225 C221 0.950 1_545 S
H226 C223 0.950 . S
C227 C218 1.390 . S
C227 H220 0.950 . S
C227 C224 1.387 . S
C228 C229 1.387 . S
C228 H232 0.950 . S
C228 C237 1.390 . S
C229 C228 1.387 . S
C229 C231 1.387 . S
H230 C237 0.950 . S
C231 C229 1.387 . S
C231 C233 1.390 1_556 S
C231 H235 0.950 1_556 S
H232 C228 0.950 . S
C233 C231 1.390 1_554 S
C233 C234 1.387 1_554 S
C233 H236 0.950 . S
C234 C233 1.387 1_556 S
C234 C237 1.387 . S
H235 C231 0.950 1_554 S
H236 C233 0.950 . S
C237 C228 1.390 . S
C237 H230 0.950 . S
C237 C234 1.387 . S
C238 C239 1.387 . S
C238 H242 0.950 . S
C238 C247 1.390 . S
C239 C238 1.387 . S
C239 C241 1.387 . S
H240 C247 0.950 . S
C241 C239 1.387 . S
C241 C243 1.390 . S
C241 H245 0.950 . S
H242 C238 0.950 . S
C243 C241 1.390 . S
C243 C244 1.387 . S
C243 H246 0.950 . S
C244 C243 1.387 . S
C244 C247 1.387 . S
H245 C241 0.950 . S
H246 C243 0.950 . S
C247 C238 1.390 . S
C247 H240 0.950 . S
C247 C244 1.387 . S
C248 C249 1.387 . S
C248 H252 0.950 . S
C248 C257 1.390 . S
C249 C248 1.387 . S
C249 C251 1.387 . S
H250 C257 0.950 . S
C251 C249 1.387 . S
C251 C253 1.390 . S
C251 H255 0.950 . S
H252 C248 0.950 . S
C253 C251 1.390 . S
C253 C254 1.387 . S
C253 H256 0.950 . S
C254 C253 1.387 . S
C254 C257 1.387 . S
H255 C251 0.950 . S
H256 C253 0.950 . S
C257 C248 1.390 . S
C257 H250 0.950 . S
C257 C254 1.387 . S
C258 C259 1.383 1_554 S
C258 H262 0.952 . S
C258 C267 1.392 . S
C259 C258 1.383 1_556 S
C259 C261 1.387 . S
H260 C267 0.950 . S
C261 C259 1.387 . S
C261 C263 1.390 . S
C261 H265 0.950 . S
H262 C258 0.952 . S
C263 C261 1.390 . S
C263 C264 1.387 . S
C263 H266 0.950 . S
C264 C263 1.387 . S
C264 C267 1.387 1_556 S
H265 C261 0.950 . S
H266 C263 0.950 . S
C267 C258 1.392 . S
C267 H260 0.950 . S
C267 C264 1.387 1_554 S
C268 C269 1.387 . S
C268 H272 0.950 . S
C268 C277 1.390 . S
C269 C268 1.387 . S
C269 C271 1.387 . S
H270 C277 0.950 . S
C271 C269 1.387 . S
C271 C273 1.390 . S
C271 H275 0.950 . S
H272 C268 0.950 . S
C273 C271 1.390 . S
C273 C274 1.387 . S
C273 H276 0.950 . S
C274 C273 1.387 . S
C274 C277 1.387 . S
H275 C271 0.950 . S
H276 C273 0.950 . S
C277 C268 1.390 . S
C277 H270 0.950 . S
C277 C274 1.387 . S
C278 C279 1.387 . S
C278 H282 0.950 . S
C278 C287 1.390 . S
C279 C278 1.387 . S
C279 C281 1.387 . S
H280 C287 0.950 . S
C281 C279 1.387 . S
C281 C283 1.390 . S
C281 H285 0.950 . S
H282 C278 0.950 . S
C283 C281 1.390 . S
C283 C284 1.387 . S
C283 H286 0.950 . S
C284 C283 1.387 . S
C284 C287 1.387 . S
H285 C281 0.950 . S
H286 C283 0.950 . S
C287 C278 1.390 . S
C287 H280 0.950 . S
C287 C284 1.387 . S
C288 C289 1.387 . S
C288 H292 0.950 . S
C288 C297 1.390 . S
C289 C288 1.387 . S
C289 C291 1.387 . S
H290 C297 0.950 . S
C291 C289 1.387 . S
C291 C293 1.390 . S
C291 H295 0.950 . S
H292 C288 0.950 . S
C293 C291 1.390 . S
C293 C294 1.387 . S
C293 H296 0.950 . S
C294 C293 1.387 . S
C294 C297 1.387 . S
H295 C291 0.950 . S
H296 C293 0.950 . S
C297 C288 1.390 . S
C297 H290 0.950 . S
C297 C294 1.387 . S
C298 C299 1.387 . S
C298 H302 0.950 . S
C298 C307 1.390 . S
C299 C298 1.387 . S
C299 C301 1.387 . S
H300 C307 0.950 . S
C301 C299 1.387 . S
C301 C303 1.390 . S
C301 H305 0.950 . S
H302 C298 0.950 . S
C303 C301 1.390 . S
C303 C304 1.387 . S
C303 H306 0.950 . S
C304 C303 1.387 . S
C304 C307 1.387 . S
H305 C301 0.950 . S
H306 C303 0.950 . S
C307 C298 1.390 . S
C307 H300 0.950 . S
C307 C304 1.387 . S
C308 C309 1.387 . S
C308 H312 0.950 . S
C308 C317 1.390 . S
C309 C308 1.387 . S
C309 C311 1.387 . S
H310 C317 0.950 . S
C311 C309 1.387 . S
C311 C313 1.390 . S
C311 H315 0.950 . S
H312 C308 0.950 . S
C313 C311 1.390 . S
C313 C314 1.387 . S
C313 H316 0.950 . S
C314 C313 1.387 . S
C314 C317 1.387 . S
H315 C311 0.950 . S
H316 C313 0.950 . S
C317 C308 1.390 . S
C317 H310 0.950 . S
C317 C314 1.387 . S
C318 C319 1.387 . S
C318 H322 0.950 . S
C318 C327 1.390 . S
C319 C318 1.387 . S
C319 C321 1.387 . S
H320 C327 0.950 . S
C321 C319 1.387 . S
C321 C323 1.390 . S
C321 H325 0.950 . S
H322 C318 0.950 . S
C323 C321 1.390 . S
C323 C324 1.387 . S
C323 H326 0.950 . S
C324 C323 1.387 . S
C324 C327 1.387 . S
H325 C321 0.950 . S
H326 C323 0.950 . S
C327 C318 1.390 . S
C327 H320 0.950 . S
C327 C324 1.387 . S
C328 C329 1.387 . S
C328 H332 0.950 . S
C328 C337 1.390 . S
C329 C328 1.387 . S
C329 C331 1.387 . S
H330 C337 0.950 . S
C331 C329 1.387 . S
C331 C333 1.390 . S
C331 H335 0.950 . S
H332 C328 0.950 . S
C333 C331 1.390 . S
C333 C334 1.387 . S
C333 H336 0.950 . S
C334 C333 1.387 . S
C334 C337 1.387 . S
H335 C331 0.950 . S
H336 C333 0.950 . S
C337 C328 1.390 . S
C337 H330 0.950 . S
C337 C334 1.387 . S
C338 C339 1.387 . S
C338 H342 0.950 . S
C338 C347 1.390 . S
C339 C338 1.387 . S
C339 C341 1.387 . S
H340 C347 0.950 . S
C341 C339 1.387 . S
C341 C343 1.390 . S
C341 H345 0.950 . S
H342 C338 0.950 . S
C343 C341 1.390 . S
C343 C344 1.387 . S
C343 H346 0.950 . S
C344 C343 1.387 . S
C344 C347 1.387 . S
H345 C341 0.950 . S
H346 C343 0.950 . S
C347 C338 1.390 . S
C347 H340 0.950 . S
C347 C344 1.387 . S
C348 C349 1.387 . S
C348 H352 0.950 . S
C348 C357 1.390 . S
C349 C348 1.387 . S
C349 C351 1.387 . S
H350 C357 0.950 . S
C351 C349 1.387 . S
C351 C353 1.390 . S
C351 H355 0.950 . S
H352 C348 0.950 . S
C353 C351 1.390 . S
C353 C354 1.387 . S
C353 H356 0.950 . S
C354 C353 1.387 . S
C354 C357 1.387 . S
H355 C351 0.950 . S
H356 C353 0.950 . S
C357 C348 1.390 . S
C357 H350 0.950 . S
C357 C354 1.387 . S
C358 C359 1.387 . S
C358 H362 0.950 . S
C358 C367 1.390 . S
C359 C358 1.387 . S
C359 C361 1.387 . S
H360 C367 0.950 . S
C361 C359 1.387 . S
C361 C363 1.390 . S
C361 H365 0.950 . S
H362 C358 0.950 . S
C363 C361 1.390 . S
C363 C364 1.387 . S
C363 H366 0.950 . S
C364 C363 1.387 . S
C364 C367 1.387 . S
H365 C361 0.950 . S
H366 C363 0.950 . S
C367 C358 1.390 . S
C367 H360 0.950 . S
C367 C364 1.387 . S
C368 C369 1.387 . S
C368 H372 0.950 . S
C368 C377 1.390 . S
C369 C368 1.387 . S
C369 C371 1.387 . S
H370 C377 0.950 . S
C371 C369 1.387 . S
C371 C373 1.390 . S
C371 H375 0.950 . S
H372 C368 0.950 . S
C373 C371 1.390 . S
C373 C374 1.387 . S
C373 H376 0.950 . S
C374 C373 1.387 . S
C374 C377 1.387 . S
H375 C371 0.950 . S
H376 C373 0.950 . S
C377 C368 1.390 . S
C377 H370 0.950 . S
C377 C374 1.387 . S
C378 C379 1.387 . S
C378 H382 0.950 . S
C378 C387 1.390 . S
C379 C378 1.387 . S
C379 C381 1.387 . S
H380 C387 0.950 . S
C381 C379 1.387 . S
C381 C383 1.390 . S
C381 H385 0.950 . S
H382 C378 0.950 . S
C383 C381 1.390 . S
C383 C384 1.387 . S
C383 H386 0.950 . S
C384 C383 1.387 . S
C384 C387 1.387 . S
H385 C381 0.950 . S
H386 C383 0.950 . S
C387 C378 1.390 . S
C387 H380 0.950 . S
C387 C384 1.387 . S
C388 C389 1.387 . S
C388 H392 0.950 . S
C388 C397 1.390 . S
C389 C388 1.387 . S
C389 C391 1.387 . S
H390 C397 0.950 . S
C391 C389 1.387 . S
C391 C393 1.390 . S
C391 H395 0.950 . S
H392 C388 0.950 . S
C393 C391 1.390 . S
C393 C394 1.387 . S
C393 H396 0.950 . S
C394 C393 1.387 . S
C394 C397 1.387 . S
H395 C391 0.950 . S
H396 C393 0.950 . S
C397 C388 1.390 . S
C397 H390 0.950 . S
C397 C394 1.387 . S
C398 C399 1.387 . S
C398 H402 0.950 . S
C398 C407 1.390 . S
C399 C398 1.387 . S
C399 C401 1.387 . S
H400 C407 0.950 . S
C401 C399 1.387 . S
C401 C403 1.390 . S
C401 H405 0.950 . S
H402 C398 0.950 . S
C403 C401 1.390 . S
C403 C404 1.387 . S
C403 H406 0.950 . S
C404 C403 1.387 . S
C404 C407 1.387 . S
H405 C401 0.950 . S
H406 C403 0.950 . S
C407 C398 1.390 . S
C407 H400 0.950 . S
C407 C404 1.387 . S
C169 C4 1.476 . S
C174 C90 1.482 . S
C179 C16 1.524 . S
C184 C109 1.495 . S
C194 C146 1.484 . S
C189 C32 1.503 . S
C199 C43 1.645 . S
C204 C156 1.596 . S
C214 C126 2.129 . S
C209 C5 2.062 . S
C224 C96 1.190 . S
C219 C21 1.216 . S
C234 C167 1.527 . S
C229 C27 1.562 . S
C244 C137 1.441 . S
C239 C37 1.445 . S
C249 C10 1.564 . S
C254 C150 1.579 . S
C264 C117 1.817 1_556 S
C259 C26 1.877 . S
C269 C38 1.610 . S
C274 C107 1.610 . S
C279 C15 1.349 . S
C284 C129 1.333 . S
C294 C89 1.548 . S
C289 C48 1.544 . S
C299 C59 1.433 . S
C304 C110 1.395 . S
C309 C76 1.736 . S
C314 C147 1.706 . S
C319 C87 1.546 . S
C324 C157 1.531 . S
C329 C54 1.643 . S
C334 C127 1.693 1_556 S
C344 C97 1.714 . S
C339 C60 1.782 . S
C354 C166 1.439 . S
C349 C71 1.470 . S
C364 C136 1.377 . S
C359 C82 1.435 . S
C369 C49 1.721 . S
C374 C149 1.788 . S
C384 C116 1.488 . S
C379 C70 1.539 . S
C394 C106 1.867 . S
C389 C81 1.872 . S
C399 C65 1.319 . S
C404 C130 1.320 . S
