# Generated by pormake.
# Topology pyr, (3,6)-cn, num edge types: 1
# Building blocks:
#     Node 0, Type 0, BuildingBlock: CUQRIR_clean_linker_1, # of connection points: 3
#     Node 1, Type 0, BuildingBlock: CUQRIR_clean_linker_1, # of connection points: 3
#     Node 2, Type 0, BuildingBlock: CUQRIR_clean_linker_1, # of connection points: 3
#     Node 3, Type 0, BuildingBlock: CUQRIR_clean_linker_1, # of connection points: 3
#     Node 4, Type 0, BuildingBlock: CUQRIR_clean_linker_1, # of connection points: 3
#     Node 5, Type 0, BuildingBlock: CUQRIR_clean_linker_1, # of connection points: 3
#     Node 6, Type 0, BuildingBlock: CUQRIR_clean_linker_1, # of connection points: 3
#     Node 7, Type 0, BuildingBlock: CUQRIR_clean_linker_1, # of connection points: 3
#     Node 8, Type 1, BuildingBlock: FUNLAD_clean_sbu_0, # of connection points: 6
#     Node 9, Type 1, BuildingBlock: FUNLAD_clean_sbu_0, # of connection points: 6
#     Node 10, Type 1, BuildingBlock: FUNLAD_clean_sbu_0, # of connection points: 6
#     Node 11, Type 1, BuildingBlock: FUNLAD_clean_sbu_0, # of connection points: 6
#     Edge 12, Type (0, 1), BuildingBlock: XIVTED_clean_linker_0, # of connection points: 2
#     Edge 13, Type (0, 1), BuildingBlock: XIVTED_clean_linker_0, # of connection points: 2
#     Edge 14, Type (0, 1), BuildingBlock: XIVTED_clean_linker_0, # of connection points: 2
#     Edge 15, Type (0, 1), BuildingBlock: XIVTED_clean_linker_0, # of connection points: 2
#     Edge 16, Type (0, 1), BuildingBlock: XIVTED_clean_linker_0, # of connection points: 2
#     Edge 17, Type (0, 1), BuildingBlock: XIVTED_clean_linker_0, # of connection points: 2
#     Edge 18, Type (0, 1), BuildingBlock: XIVTED_clean_linker_0, # of connection points: 2
#     Edge 19, Type (0, 1), BuildingBlock: XIVTED_clean_linker_0, # of connection points: 2
#     Edge 20, Type (0, 1), BuildingBlock: XIVTED_clean_linker_0, # of connection points: 2
#     Edge 21, Type (0, 1), BuildingBlock: XIVTED_clean_linker_0, # of connection points: 2
#     Edge 22, Type (0, 1), BuildingBlock: XIVTED_clean_linker_0, # of connection points: 2
#     Edge 23, Type (0, 1), BuildingBlock: XIVTED_clean_linker_0, # of connection points: 2
#     Edge 24, Type (0, 1), BuildingBlock: XIVTED_clean_linker_0, # of connection points: 2
#     Edge 25, Type (0, 1), BuildingBlock: XIVTED_clean_linker_0, # of connection points: 2
#     Edge 26, Type (0, 1), BuildingBlock: XIVTED_clean_linker_0, # of connection points: 2
#     Edge 27, Type (0, 1), BuildingBlock: XIVTED_clean_linker_0, # of connection points: 2
#     Edge 28, Type (0, 1), BuildingBlock: XIVTED_clean_linker_0, # of connection points: 2
#     Edge 29, Type (0, 1), BuildingBlock: XIVTED_clean_linker_0, # of connection points: 2
#     Edge 30, Type (0, 1), BuildingBlock: XIVTED_clean_linker_0, # of connection points: 2
#     Edge 31, Type (0, 1), BuildingBlock: XIVTED_clean_linker_0, # of connection points: 2
#     Edge 32, Type (0, 1), BuildingBlock: XIVTED_clean_linker_0, # of connection points: 2
#     Edge 33, Type (0, 1), BuildingBlock: XIVTED_clean_linker_0, # of connection points: 2
#     Edge 34, Type (0, 1), BuildingBlock: XIVTED_clean_linker_0, # of connection points: 2
#     Edge 35, Type (0, 1), BuildingBlock: XIVTED_clean_linker_0, # of connection points: 2
# Relax obj value: 0.189
# Max RMSD: 0.226
# Mean RMSD: 0.155
data_MOF--net-pry--node1-FUNLAD_clean_sbu_0--node2-CUQRIR_clean_linker_1--edge1-XIVTED_clean_linker_0
_symmetry_space_group_name_H-M    P1
_symmetry_Int_Tables_number       1
_symmetry_cell_setting            triclinic
loop_
_symmetry_equiv_pos_as_xyz
'x, y, z'
_cell_length_a     32.783191
_cell_length_b     34.831324
_cell_length_c     34.632215
_cell_angle_alpha  88.296121
_cell_angle_beta   92.151042
_cell_angle_gamma 86.570042
loop_
_atom_site_label
_atom_site_type_symbol
_atom_site_fract_x
_atom_site_fract_y
_atom_site_fract_z
_atom_type_partial_charge
C0 C 0.16229 0.25335 0.21266 0.0
N1 N 0.19158 0.22519 0.22294 0.0
N2 N 0.17348 0.27487 0.18189 0.0
C3 C 0.1233 0.26042 0.23356 0.0
C4 C 0.21091 0.25898 0.17408 0.0
N5 N 0.22221 0.22915 0.19916 0.0
C6 C 0.23734 0.27347 0.14278 0.0
H7 H 0.10528 0.23451 0.23225 0.0
H8 H 0.10429 0.28538 0.22089 0.0
H9 H 0.1307 0.26534 0.26449 0.0
H10 H 0.26042 0.2917 0.15591 0.0
H11 H 0.21945 0.29102 0.12019 0.0
H12 H 0.25384 0.24901 0.12909 0.0
C13 C 0.4119 0.92136 0.68989 0.0
N14 N 0.40141 0.9481 0.71609 0.0
N15 N 0.4434 0.89735 0.70373 0.0
C16 C 0.38955 0.9169 0.65152 0.0
C17 C 0.45154 0.91032 0.73967 0.0
N18 N 0.42593 0.94118 0.74743 0.0
C19 C 0.48574 0.89386 0.76645 0.0
H20 H 0.38707 0.88601 0.64547 0.0
H21 H 0.40719 0.92994 0.62833 0.0
H22 H 0.35846 0.93131 0.65019 0.0
H23 H 0.50993 0.87865 0.7501 0.0
H24 H 0.4734 0.87299 0.78712 0.0
H25 H 0.49933 0.91691 0.78322 0.0
C26 C 0.58992 0.53191 1.02175 0.0
N27 N 0.62749 0.51956 0.03663 0.0
N28 N 0.59209 0.56108 0.99521 0.0
C29 C 0.55129 0.51175 0.02879 0.0
C30 C 0.63215 0.56872 0.99762 0.0
N31 N 0.65364 0.54324 1.02193 0.0
C32 C 0.6512 0.5981 0.97226 0.0
H33 H 0.5539 0.48221 1.0176 0.0
H34 H 0.52418 0.52784 1.01476 0.0
H35 H 0.54676 0.50924 0.06032 0.0
H36 H 0.63202 0.62543 0.97087 0.0
H37 H 0.65322 0.58727 0.94253 0.0
H38 H 0.68222 0.60431 0.98333 0.0
C39 C 0.93364 0.6062 0.47123 0.0
N40 N 0.96322 0.62784 0.45762 0.0
N41 N 0.92248 0.61737 0.50661 0.0
C42 C 0.91136 0.57765 0.44795 0.0
C43 C 0.94758 0.64587 0.51453 0.0
N44 N 0.97232 0.65225 0.48491 0.0
C45 C 0.94221 0.67242 0.54766 0.0
H46 H 0.88284 0.59195 0.43469 0.0
H47 H 0.9026 0.55365 0.46712 0.0
H48 H 0.93055 0.56607 0.42474 0.0
H49 H 0.92606 0.65842 0.57138 0.0
H50 H 0.92397 0.69884 0.5373 0.0
H51 H 0.9724 0.68101 0.55877 0.0
C52 C 0.88306 0.92397 0.89068 0.0
N53 N 0.91545 0.91879 0.86777 0.0
N54 N 0.86399 0.95928 0.88438 0.0
C55 C 0.86953 0.89386 0.91881 0.0
C56 C 0.88594 0.97549 0.85638 0.0
N57 N 0.91754 0.95107 0.84636 0.0
C58 C 0.87607 1.01505 0.8385 0.0
H59 H 0.87663 0.86448 0.90845 0.0
H60 H 0.83621 0.89758 0.92322 0.0
H61 H 0.88621 0.89645 0.94699 0.0
H62 H 0.85924 0.03384 0.85859 0.0
H63 H 0.85663 1.01243 0.8119 0.0
H64 H 0.90402 0.02908 0.83031 0.0
C65 C 0.72466 0.24337 0.42069 0.0
N66 N 0.73482 0.21599 0.39508 0.0
N67 N 0.69107 0.26553 0.40794 0.0
C68 C 0.74715 0.24744 0.45891 0.0
C69 C 0.68105 0.25026 0.37341 0.0
N70 N 0.70762 0.22028 0.36549 0.0
C71 C 0.64594 0.26536 0.34684 0.0
H72 H 0.72653 0.25997 0.48053 0.0
H73 H 0.77264 0.26655 0.45482 0.0
H74 H 0.76047 0.21908 0.47019 0.0
H75 H 0.64071 0.29696 0.34908 0.0
H76 H 0.61784 0.25157 0.35532 0.0
H77 H 0.6513 0.25871 0.31631 0.0
C78 C 0.42929 0.60484 0.08043 0.0
N79 N 0.45795 0.62494 0.09869 0.0
N80 N 0.41588 0.6226 0.04661 0.0
C81 C 0.40983 0.57074 0.09802 0.0
C82 C 0.43952 0.65312 0.04399 0.0
N83 N 0.46471 0.65485 0.07564 0.0
C84 C 0.43212 0.6854 1.01426 0.0
H85 H 0.4035 0.54977 0.07538 0.0
H86 H 0.38016 0.58036 0.11004 0.0
H87 H 0.42988 0.55643 0.12137 0.0
H88 H 0.41425 0.70959 0.02705 0.0
H89 H 0.41493 0.67576 0.98845 0.0
H90 H 0.46171 0.69612 1.00549 0.0
C91 C 0.10043 0.52392 0.5554 0.0
N92 N 0.13825 0.51337 0.5433 0.0
N93 N 0.10172 0.55237 0.58121 0.0
C94 C 0.063 0.50168 0.5478 0.0
C95 C 0.14134 0.56132 0.58145 0.0
N96 N 0.16355 0.53744 0.55909 0.0
C97 C 0.15905 0.59042 0.60752 0.0
H98 H 0.03527 0.51678 0.5589 0.0
H99 H 0.06734 0.47258 0.56183 0.0
H100 H 0.05825 0.49816 0.51626 0.0
H101 H 0.16522 0.57712 0.63683 0.0
H102 H 0.13693 0.61549 0.61001 0.0
H103 H 0.18796 0.60057 0.5964 0.0
C104 C 0.11629 0.09751 0.46996 0.0
N105 N 0.08841 0.16015 0.56655 0.0
C106 C 0.12785 0.17044 0.56576 0.0
C107 C 0.13689 0.20886 0.56676 0.0
C108 C 0.1051 0.2374 0.56753 0.0
C109 C 0.06473 0.22632 0.56996 0.0
C110 C 0.05702 0.18717 0.56975 0.0
Zn111 Zn 0.07922 0.10509 0.54985 0.0
C112 C 1.00196 0.10131 0.50053 0.0
N113 N 0.06788 0.99334 0.50601 0.0
C114 C 0.10048 0.97149 0.49386 0.0
C115 C 0.03012 0.97932 0.50736 0.0
C116 C 0.024 0.9419 0.49645 0.0
C117 C 0.05716 0.91843 0.48454 0.0
C118 C 0.09582 0.93355 0.4832 0.0
Zn119 Zn 0.07468 0.04728 0.52528 0.0
O120 O 0.10993 0.11976 0.49784 0.0
C121 C 0.15096 0.05137 0.57582 0.0
O122 O 0.10492 0.06324 0.4729 0.0
H123 H 1.00478 0.99692 0.51769 0.0
H124 H 0.15248 0.1493 0.56129 0.0
H125 H 0.13022 0.98328 0.49303 0.0
O126 O 0.13556 0.08542 0.57826 0.0
O127 O 0.13256 0.0281 0.55457 0.0
H128 H 0.02584 0.17869 0.56972 0.0
O129 O 0.0447 0.03206 0.57717 0.0
O130 O 0.04865 0.08886 0.60244 0.0
O131 O 1.01654 0.06691 0.49733 0.0
O132 O 0.02188 0.12404 0.52108 0.0
C133 C 0.03822 0.05411 0.60527 0.0
H134 H 0.16833 0.21624 0.56412 0.0
H135 H 0.0394 0.24769 0.57069 0.0
H136 H 0.99386 0.93102 0.49853 0.0
H137 H 0.12207 0.91622 0.47411 0.0
C138 C 0.6207 0.05801 0.02718 0.0
N139 N 0.56256 0.16831 0.03068 0.0
C140 C 0.60244 0.17736 0.03165 0.0
C141 C 0.61264 0.21555 0.03024 0.0
C142 C 0.58162 0.24504 0.02862 0.0
C143 C 0.54068 0.23518 0.02578 0.0
C144 C 0.53176 0.19633 0.02662 0.0
Zn145 Zn 0.5524 0.11303 0.04855 0.0
C146 C 0.50616 0.06627 0.99399 0.0
N147 N 0.53998 1.00083 0.0961 0.0
C148 C 0.57319 0.97877 0.11024 0.0
C149 C 0.50278 0.98595 0.09138 0.0
C150 C 0.49825 0.94706 0.09955 0.0
C151 C 0.53242 0.92319 0.11238 0.0
C152 C 0.57011 0.93959 0.11845 0.0
Zn153 Zn 0.54675 0.05549 0.07613 0.0
O154 O 0.60538 0.09193 1.02018 0.0
C155 C 0.59446 0.10145 0.12974 0.0
O156 O 0.60343 0.03636 0.05097 0.0
H157 H 0.47692 1.00392 0.07972 0.0
H158 H 0.62667 0.15519 0.03653 0.0
H159 H 0.60246 0.99126 0.11378 0.0
O160 O 0.58858 0.12403 0.10023 0.0
O161 O 0.57934 0.06866 0.12893 0.0
H162 H 0.50025 0.18875 0.02641 0.0
O163 O 0.49008 0.07519 0.10114 0.0
O164 O 0.49832 0.13303 0.07721 0.0
O165 O 0.51452 0.04286 1.02262 0.0
O166 O 0.51677 0.10085 0.99652 0.0
C167 C 0.4778 0.11052 0.09741 0.0
H168 H 0.64455 0.22189 0.0331 0.0
H169 H 0.51589 0.25723 1.02422 0.0
H170 H 0.46876 0.93544 0.09397 0.0
H171 H 0.59707 0.92214 0.12858 0.0
C172 C 0.56871 0.50332 0.52616 0.0
N173 N 0.55989 0.55223 0.63641 0.0
C174 C 0.54184 0.52332 0.65522 0.0
C175 C 0.54105 0.52237 0.69567 0.0
C176 C 0.55818 0.55194 0.71669 0.0
C177 C 0.57806 0.58026 0.6962 0.0
C178 C 0.57908 0.57951 0.65624 0.0
Zn179 Zn 0.55074 0.56489 0.5788 0.0
C180 C 0.62623 0.59503 0.54546 0.0
N181 N 0.53005 0.60459 0.46216 0.0
C182 C 0.50682 0.58081 0.44145 0.0
C183 C 0.54707 0.63505 0.44484 0.0
C184 C 0.54098 0.64234 0.40497 0.0
C185 C 0.51675 0.61831 0.38321 0.0
C186 C 0.49955 0.58731 0.40195 0.0
Zn187 Zn 0.54022 0.58988 0.51935 0.0
O188 O 0.56953 0.50835 0.56244 0.0
C189 C 0.46463 0.55901 0.55202 0.0
O190 O 0.55705 0.53142 0.50314 0.0
H191 H 0.56569 0.65341 0.46183 0.0
H192 H 0.5264 0.50212 0.63887 0.0
H193 H 0.49429 0.55626 0.45546 0.0
O194 O 0.48863 0.54986 0.58096 0.0
O195 O 0.47837 0.57633 0.52295 0.0
H196 H 0.59276 0.60264 0.64092 0.0
O197 O 0.52395 0.64814 0.53669 0.0
O198 O 0.5322 0.62172 0.59467 0.0
O199 O 0.60205 0.60324 0.51648 0.0
O200 O 0.61263 0.57939 0.57556 0.0
C201 C 0.52318 0.65137 0.57321 0.0
H202 H 0.52617 0.49934 0.71004 0.0
H203 H 0.59094 0.60428 0.71037 0.0
H204 H 0.55469 0.66657 0.3914 0.0
H205 H 0.48129 0.56773 0.38603 0.0
C206 C 1.01286 0.66754 0.9857 0.0
N207 N 0.02693 0.62332 0.10131 0.0
C208 C 0.046 0.65368 0.11606 0.0
C209 C 0.04228 0.66246 0.1551 0.0
C210 C 0.01817 0.64011 0.17848 0.0
C211 C 0.9991 0.60907 0.16247 0.0
C212 C 1.0042 0.60094 0.12389 0.0
Zn213 Zn 0.03179 0.6065 0.04551 0.0
C214 C 0.95165 0.57724 1.01642 0.0
N215 N 0.03876 0.56428 0.9322 0.0
C216 C 0.05942 0.58816 0.90925 0.0
C217 C 1.01675 0.53605 0.91694 0.0
C218 C 1.01369 0.53217 0.87683 0.0
C219 C 0.03312 0.55789 0.8526 0.0
C220 C 0.05706 0.58542 0.86936 0.0
Zn221 Zn 0.03512 0.57994 0.98819 0.0
O222 O 1.01594 0.66424 1.02246 0.0
C223 C 0.11526 0.60774 1.0178 0.0
O224 O 0.01864 0.6375 0.96618 0.0
H225 H 1.00017 0.51769 0.93569 0.0
H226 H 0.06424 0.67087 0.09769 0.0
H227 H 0.07625 0.61081 0.9217 0.0
O228 O 0.09424 0.61819 0.04617 0.0
O229 O 0.0981 0.59129 0.98985 0.0
H230 H 0.99016 0.57632 0.11212 0.0
O231 O 0.05174 0.52276 1.01065 0.0
O232 O 0.04891 0.54871 0.06748 0.0
O233 O 0.9725 0.56788 0.98762 0.0
O234 O 0.96868 0.5943 0.04403 0.0
C235 C 0.05577 0.51914 0.04736 0.0
H236 H 0.05752 0.68659 0.16673 0.0
H237 H 0.98086 0.59082 0.17987 0.0
H238 H 0.9951 0.5104 0.86487 0.0
H239 H 0.07333 0.60517 0.85173 0.0
H240 H 0.23803 0.22756 0.28889 0.0
H241 H 0.15823 0.1627 0.46087 0.0
H242 H 0.14238 0.16659 0.23463 0.0
H243 H 0.11579 0.06764 0.39673 0.0
H244 H 0.18354 0.19034 0.40148 0.0
H245 H 0.22659 0.19373 0.35057 0.0
C246 C 0.21521 0.20637 0.28993 0.0
C247 C 0.19122 0.1997 0.25675 0.0
C248 C 0.16959 0.16301 0.40031 0.0
C249 C 0.17648 0.16186 0.3275 0.0
C250 C 0.15471 0.14728 0.43435 0.0
C251 C 0.1349 0.11256 0.43409 0.0
C252 C 0.16439 0.14426 0.36518 0.0
C253 C 0.1311 0.09425 0.39854 0.0
C254 C 0.20806 0.18754 0.32526 0.0
C255 C 0.16156 0.17237 0.25965 0.0
N256 N 0.14516 0.11054 0.36555 0.0
N257 N 0.15492 0.15458 0.29432 0.0
H258 H 0.41663 0.91371 0.82015 0.0
H259 H 0.49441 0.10282 0.92164 0.0
H260 H 0.4389 1.01706 0.75541 0.0
H261 H 0.47461 0.9961 0.98245 0.0
H262 H 0.46851 0.07524 0.86148 0.0
H263 H 0.43102 0.94649 0.88039 0.0
C264 C 0.42385 0.94363 0.81876 0.0
C265 C 0.42647 0.96268 0.78275 0.0
C266 C 0.46953 0.058 0.88807 0.0
C267 C 0.44394 1.00065 0.85189 0.0
C268 C 0.48423 0.07381 0.92255 0.0
C269 C 0.48693 0.05187 0.95749 0.0
C270 C 0.45725 0.01991 0.88831 0.0
C271 C 0.47337 1.01428 0.95648 0.0
C272 C 0.43234 0.96237 0.85316 0.0
C273 C 0.43615 1.00147 0.78259 0.0
N274 N 0.45941 0.99963 0.92271 0.0
N275 N 0.44493 0.01905 0.81651 0.0
H276 H 0.56264 0.62538 0.95405 0.0
H277 H 0.49588 0.5278 0.76174 0.0
H278 H 0.57128 0.50137 0.95225 0.0
H279 H 0.61067 0.58295 0.76971 0.0
H280 H 0.49009 0.53412 0.83172 0.0
H281 H 0.54397 0.62712 0.88428 0.0
C282 C 0.55918 0.59868 0.93941 0.0
C283 C 0.56895 0.56326 0.95886 0.0
C284 C 0.51587 0.54551 0.8175 0.0
C285 C 0.54587 0.56506 0.88061 0.0
C286 C 0.51978 0.5413 0.77778 0.0
C287 C 0.5539 0.55484 0.75926 0.0
C288 C 0.54549 0.56444 0.83843 0.0
C289 C 0.58323 0.57292 0.78195 0.0
C290 C 0.54835 0.59971 0.89994 0.0
C291 C 0.56337 0.52933 0.93873 0.0
N292 N 0.57825 0.57726 0.82027 0.0
N293 N 0.55259 0.53107 0.90058 0.0
H294 H 0.90914 0.6475 0.39914 0.0
H295 H 0.07671 0.64451 0.2366 0.0
H296 H 0.03754 0.62376 0.42593 0.0
H297 H 0.94633 0.65239 0.21352 0.0
H298 H 0.06484 0.64622 0.30635 0.0
H299 H 0.92379 0.65775 0.33123 0.0
C300 C 0.94042 0.64379 0.39034 0.0
C301 C 0.97209 0.63335 0.41752 0.0
C302 C 0.0389 0.64809 0.28594 0.0
C303 C 0.98952 0.64611 0.34014 0.0
C304 C 0.04567 0.64746 0.24628 0.0
C305 C 1.01239 0.64812 0.21958 0.0
C306 C 0.9986 0.64963 0.29861 0.0
C307 C 0.97275 0.65155 0.23333 0.0
C308 C 0.94892 0.65008 0.35173 0.0
C309 C 1.01239 0.63088 0.40533 0.0
N310 N 0.96698 0.65193 0.27186 0.0
N311 N 0.02004 0.63689 0.36731 0.0
H312 H 0.23236 0.15391 0.18175 0.0
H313 H 0.45649 0.18534 0.1134 0.0
H314 H 0.29827 0.25261 0.21137 0.0
H315 H 0.4148 0.07077 0.12697 0.0
H316 H 0.39629 0.21052 0.14618 0.0
H317 H 0.29667 0.12161 0.16106 0.0
C318 C 0.26069 0.16815 0.18515 0.0
C319 C 0.26019 0.20586 0.19837 0.0
C320 C 0.40033 0.17982 0.1422 0.0
C321 C 0.33327 0.17008 0.1733 0.0
C322 C 0.43463 0.16542 0.1232 0.0
C323 C 0.44083 0.12582 0.11725 0.0
C324 C 0.37123 0.1547 0.15489 0.0
C325 C 0.41136 0.10149 0.13092 0.0
C326 C 0.29724 0.14999 0.17291 0.0
C327 C 0.2975 0.22351 0.20138 0.0
N328 N 0.37766 0.11632 0.1487 0.0
N329 N 0.33226 0.20586 0.1883 0.0
H330 H 0.3266 0.93031 0.73647 0.0
H331 H 0.21179 0.09599 0.60108 0.0
H332 H 0.3923 0.01894 0.68226 0.0
H333 H 0.17494 0.97922 0.6059 0.0
H334 H 0.27141 0.07644 0.64379 0.0
H335 H 0.26279 0.95803 0.70457 0.0
C336 C 0.32709 0.95691 0.71954 0.0
C337 C 0.36452 0.9728 0.71245 0.0
C338 C 0.25022 0.05517 0.6355 0.0
C339 C 0.29219 1.00395 0.67486 0.0
C340 C 0.21629 0.0662 0.61104 0.0
C341 C 0.18853 0.03908 0.59953 0.0
C342 C 0.25592 1.01695 0.64954 0.0
C343 C 0.19581 1.00095 0.61358 0.0
C344 C 0.29096 0.97215 0.70061 0.0
C345 C 0.3639 1.0064 0.68901 0.0
N346 N 0.22859 0.99109 0.63806 0.0
N347 N 0.3284 0.02071 0.67073 0.0
H348 H 0.70235 0.55175 0.08514 0.0
H349 H 0.90452 0.54392 0.96125 0.0
H350 H 0.7042 0.52472 0.96484 0.0
H351 H 0.90031 0.58779 0.07642 0.0
H352 H 0.83312 0.52828 0.96518 0.0
H353 H 0.77723 0.5554 0.08619 0.0
C354 C 0.71884 0.5457 0.05929 0.0
C355 C 0.69756 0.53804 1.0249 0.0
C356 C 0.84783 0.54124 0.98965 0.0
C357 C 0.78237 0.54264 1.02539 0.0
C358 C 0.88861 0.55027 0.98737 0.0
C359 C 0.90837 0.56755 1.01839 0.0
C360 C 0.82656 0.54941 1.02322 0.0
C361 C 0.88621 0.57482 0.05164 0.0
C362 C 0.76133 0.54811 0.05969 0.0
C363 C 0.71984 0.53072 0.99187 0.0
N364 N 0.84648 0.56583 0.05313 0.0
N365 N 0.76098 0.53349 0.99282 0.0
H366 H 0.89019 0.5631 0.55185 0.0
H367 H 0.66281 0.6416 0.49409 0.0
H368 H 0.86135 0.6692 0.48718 0.0
H369 H 0.68957 0.56335 0.592 0.0
H370 H 0.73596 0.64935 0.48882 0.0
H371 H 0.81704 0.55967 0.56552 0.0
C372 C 0.86835 0.58587 0.54119 0.0
C373 C 0.88119 0.61662 0.51881 0.0
C374 C 0.72583 0.63071 0.51166 0.0
C375 C 0.79843 0.61272 0.53319 0.0
C376 C 0.68409 0.6262 0.5146 0.0
C377 C 0.67014 0.60179 0.54349 0.0
C378 C 0.7539 0.61016 0.53737 0.0
C379 C 0.69907 0.58257 0.56936 0.0
C380 C 0.82687 0.58398 0.54882 0.0
C381 C 0.85218 0.64533 0.50491 0.0
N382 N 0.73969 0.58685 0.56545 0.0
N383 N 0.81208 0.64254 0.51202 0.0
H384 H 0.15765 0.34363 0.21421 0.0
H385 H 0.07192 0.44858 1.01483 0.0
H386 H 0.14257 0.28381 0.10828 0.0
H387 H 0.07242 0.50374 0.12474 0.0
H388 H 0.09788 0.38822 0.04791 0.0
H389 H 0.1264 0.40264 0.18185 0.0
C390 C 0.14737 0.343 0.18417 0.0
C391 C 0.15265 0.309 0.1638 0.0
C392 C 0.09214 0.4135 0.06481 0.0
C393 C 0.11733 0.37638 0.12621 0.0
C394 C 0.07729 0.44804 0.04589 0.0
C395 C 0.06991 0.48153 0.06689 0.0
C396 C 0.1 0.41227 0.10509 0.0
C397 C 0.07757 0.47884 0.10719 0.0
C398 C 0.12966 0.37662 0.16561 0.0
C399 C 0.1391 0.30958 0.12483 0.0
N400 N 0.09229 0.44505 0.12482 0.0
N401 N 0.12232 0.34272 0.10725 0.0
H402 H 0.66741 0.46952 0.99198 0.0
H403 H 0.54768 0.2987 0.07597 0.0
H404 H 0.60551 0.47779 0.09905 0.0
H405 H 0.64121 0.28262 0.99258 0.0
H406 H 0.56901 0.36407 0.08584 0.0
H407 H 0.66289 0.40019 0.99481 0.0
C408 C 0.65474 0.45647 1.01719 0.0
C409 C 0.63731 0.47936 0.04561 0.0
C410 C 0.58502 0.34613 0.06558 0.0
C411 C 0.62915 0.40003 0.04765 0.0
C412 C 0.57246 0.30909 0.0595 0.0
C413 C 0.59243 0.28542 0.03309 0.0
C414 C 0.61747 0.35972 0.04476 0.0
C415 C 0.62495 0.29995 1.01316 0.0
C416 C 0.65128 0.41684 1.01839 0.0
C417 C 0.61937 0.46098 0.07669 0.0
N418 N 0.63624 0.33624 1.01918 0.0
N419 N 0.6148 0.4224 0.07644 0.0
H420 H 0.04443 0.67339 0.51488 0.0
H421 H 0.99712 0.89062 0.43863 0.0
H422 H 0.94125 0.71196 0.44042 0.0
H423 H 0.10325 0.85419 0.51084 0.0
H424 H 0.98152 0.82347 0.43207 0.0
H425 H 0.07174 0.73752 0.50784 0.0
C426 C 0.0281 0.69537 0.49654 0.0
C427 C 0.991 0.68788 0.47789 0.0
C428 C 1.00852 0.83 0.44902 0.0
C429 C 0.02115 0.76068 0.46994 0.0
C430 C 1.01736 0.86833 0.45277 0.0
C431 C 0.05121 0.87785 0.47565 0.0
C432 C 0.03341 0.80094 0.46872 0.0
C433 C 0.07684 0.84795 0.49292 0.0
C434 C 0.04348 0.73179 0.4925 0.0
C435 C 0.9703 0.71689 0.45472 0.0
N436 N 0.06708 0.81077 0.48957 0.0
N437 N 0.98552 0.75213 0.45157 0.0
H438 H 0.47344 0.8921 0.63193 0.0
H439 H 0.51095 0.66251 0.64958 0.0
H440 H 0.45031 0.82443 0.73389 0.0
H441 H 0.51098 0.7252 0.54019 0.0
H442 H 0.49462 0.72241 0.68149 0.0
H443 H 0.49346 0.83273 0.59889 0.0
C444 C 0.47288 0.86469 0.6474 0.0
C445 C 0.46011 0.86314 0.68567 0.0
C446 C 0.4981 0.72324 0.65051 0.0
C447 C 0.48316 0.79505 0.6482 0.0
C448 C 0.50749 0.6889 0.6321 0.0
C449 C 0.51232 0.68854 0.59189 0.0
C450 C 0.49364 0.75804 0.62889 0.0
C451 C 0.50741 0.72394 0.57114 0.0
C452 C 0.48424 0.83084 0.62855 0.0
C453 C 0.46038 0.82695 0.70458 0.0
N454 N 0.49845 0.75724 0.58987 0.0
N455 N 0.47158 0.79444 0.68568 0.0
H456 H 0.97832 1.00021 0.84437 0.0
H457 H 1.00016 0.98664 0.61452 0.0
H458 H 0.91482 0.92037 0.77559 0.0
H459 H 0.0376 0.0835 0.67889 0.0
H460 H 0.97597 0.95764 0.67397 0.0
H461 H 1.00934 0.02511 0.78575 0.0
C462 C 0.97205 0.98709 0.817 0.0
C463 C 0.94435 0.95791 0.81485 0.0
C464 C 0.98939 0.98526 0.67518 0.0
C465 C 0.97885 0.98685 0.74727 0.0
C466 C 1.00318 1.002 0.64112 0.0
C467 C 0.02087 0.03787 0.64136 0.0
C468 C 0.99361 1.00405 0.71032 0.0
C469 C 0.02393 0.05606 0.67702 0.0
C470 C 0.9892 1.00169 0.78345 0.0
C471 C 0.93649 0.94245 0.77855 0.0
N472 N 1.01067 0.03893 0.70995 0.0
N473 N 0.95338 0.9572 0.74624 0.0
H474 H 0.7298 0.23622 0.29275 0.0
H475 H 0.60263 0.06701 0.20282 0.0
H476 H 0.67432 0.15138 0.36268 0.0
H477 H 0.63899 0.16536 0.13682 0.0
H478 H 0.63752 0.09117 0.26043 0.0
H479 H 0.70722 0.20369 0.23431 0.0
C480 C 0.71403 0.20991 0.29567 0.0
C481 C 0.70436 0.19608 0.33243 0.0
C482 C 0.63808 0.10731 0.23327 0.0
C483 C 0.67714 0.15919 0.26581 0.0
C484 C 0.61819 0.09348 0.20028 0.0
C485 C 0.61755 0.1142 0.16475 0.0
C486 C 0.65792 0.142 0.23082 0.0
C487 C 0.63833 0.14841 0.16348 0.0
C488 C 0.7006 0.19162 0.26239 0.0
C489 C 0.68287 0.16249 0.3348 0.0
N490 N 0.65749 0.16116 0.19587 0.0
N491 N 0.66969 0.14536 0.30202 0.0
H492 H 0.40358 0.62849 0.1549 0.0
H493 H 0.57257 0.63082 0.32769 0.0
H494 H 0.5326 0.62208 0.13519 0.0
H495 H 0.44384 0.61954 0.34308 0.0
H496 H 0.55931 0.63396 0.25725 0.0
H497 H 0.41843 0.63021 0.2242 0.0
C498 C 0.43515 0.62641 0.16547 0.0
C499 C 0.46702 0.62354 0.13973 0.0
C500 C 0.53401 0.63101 0.27612 0.0
C501 C 0.48449 0.62716 0.21895 0.0
C502 C 0.5415 0.62955 0.31621 0.0
C503 C 0.50925 0.62466 0.34107 0.0
C504 C 0.49397 0.62786 0.26108 0.0
C505 C 0.46962 0.62284 0.32487 0.0
C506 C 0.44369 0.62797 0.20496 0.0
C507 C 0.5074 0.62333 0.15451 0.0
N508 N 0.46316 0.62432 0.28597 0.0
N509 N 0.51511 0.62495 0.19333 0.0
H510 H 0.09257 0.49133 0.62826 0.0
H511 H 0.01903 0.61821 0.80057 0.0
H512 H 0.06107 0.61288 0.61386 0.0
H513 H 0.03827 0.49454 0.80778 0.0
H514 H 0.02423 0.61649 0.73043 0.0
H515 H 0.06248 0.49123 0.69118 0.0
C516 C 0.07821 0.51789 0.6381 0.0
C517 C 0.07879 0.55212 0.61581 0.0
C518 C 0.02667 0.58969 0.74725 0.0
C519 C 0.04592 0.55271 0.68889 0.0
C520 C 0.02392 0.59063 0.78727 0.0
C521 C 0.02916 0.55648 0.81001 0.0
C522 C 0.035 0.55435 0.72992 0.0
C523 C 0.03434 0.52153 0.79135 0.0
C524 C 0.06133 0.51792 0.67421 0.0
C525 C 0.0611 0.586 0.63035 0.0
N526 N 0.03777 0.52143 0.75242 0.0
N527 N 0.04581 0.5856 0.66638 0.0
H528 H 0.79346 0.99374 0.85265 0.0
H529 H 0.67692 0.99915 0.04958 0.0
H530 H 0.85563 0.96212 0.96175 0.0
H531 H 0.64782 0.08419 0.95805 0.0
H532 H 0.73717 0.97624 1.01472 0.0
H533 H 0.73424 0.01927 0.88766 0.0
C534 C 0.79471 0.99246 0.88394 0.0
C535 C 0.82945 0.9758 0.90436 0.0
C536 C 0.71757 0.99997 1.00239 0.0
C537 C 0.76156 1.00362 0.94445 0.0
C538 C 0.68316 1.01294 1.02217 0.0
C539 C 0.65742 0.04375 1.0068 0.0
C540 C 0.72572 1.01723 0.96652 0.0
C541 C 0.66701 0.06056 0.97111 0.0
C542 C 0.76094 1.00679 0.90387 0.0
C543 C 0.82922 0.97421 0.94494 0.0
N544 N 0.70012 0.04687 0.95201 0.0
N545 N 0.7957 0.98754 0.96364 0.0
H546 H 0.80774 0.24227 0.37998 0.0
H547 H 0.93944 0.05869 0.47292 0.0
H548 H 0.74997 0.14096 0.41771 0.0
H549 H 0.97478 0.17554 0.48118 0.0
H550 H 0.87459 0.08294 0.44004 0.0
H551 H 0.87446 0.212 0.40187 0.0
C552 C 0.80949 0.21295 0.39151 0.0
C553 C 0.77354 0.19378 0.39642 0.0
C554 C 0.89668 0.10316 0.44896 0.0
C555 C 0.8496 0.15921 0.42276 0.0
C556 C 0.93371 0.08939 0.46767 0.0
C557 C 0.96264 0.11512 0.48008 0.0
C558 C 0.88888 0.14289 0.44171 0.0
C559 C 0.95341 0.1546 0.47247 0.0
C560 C 0.84738 0.19592 0.40461 0.0
C561 C 0.77714 0.15628 0.41271 0.0
N562 N 0.91761 0.16717 0.45367 0.0
N563 N 0.81447 0.14022 0.42554 0.0
H564 H 0.37767 0.57205 1.00175 0.0
H565 H 0.15892 0.65358 0.06438 0.0
H566 H 0.358 0.67511 0.06574 0.0
H567 H 0.17237 0.57443 0.97147 0.0
H568 H 0.23263 0.66012 0.06614 0.0
H569 H 0.30299 0.57063 0.9901 0.0
C570 C 0.35753 0.59475 1.01247 0.0
C571 C 0.37353 0.62405 0.03408 0.0
C572 C 0.21946 0.64152 0.04514 0.0
C573 C 0.28905 0.62228 1.0221 0.0
C574 C 0.17739 0.63769 0.04425 0.0
C575 C 0.15953 0.61336 1.01783 0.0
C576 C 0.24402 0.62046 1.01982 0.0
C577 C 0.18494 0.59354 0.99228 0.0
C578 C 0.31516 0.59395 1.00604 0.0
C579 C 0.34657 0.65253 0.04827 0.0
N580 N 0.22603 0.59723 0.99415 0.0
N581 N 0.30567 0.65077 0.04232 0.0
H582 H 0.21797 0.52511 0.61957 0.0
H583 H 0.40882 0.56583 0.49125 0.0
H584 H 0.20864 0.54105 0.49583 0.0
H585 H 0.42071 0.53282 0.61248 0.0
H586 H 0.336 0.55511 0.49198 0.0
H587 H 0.29255 0.52562 0.61742 0.0
C588 C 0.23188 0.52873 0.59194 0.0
C589 C 0.20749 0.53392 0.55785 0.0
C590 C 0.35453 0.54995 0.51838 0.0
C591 C 0.29252 0.53431 0.55496 0.0
C592 C 0.39615 0.55618 0.51804 0.0
C593 C 0.42091 0.55049 0.55196 0.0
C594 C 0.33728 0.53823 0.55297 0.0
C595 C 0.40279 0.53769 0.5857 0.0
C596 C 0.27435 0.52881 0.59065 0.0
C597 C 0.22669 0.53737 0.52264 0.0
N598 N 0.362 0.5323 0.58542 0.0
N599 N 0.26813 0.53799 0.52209 0.0
H600 H 0.97587 0.91129 0.92215 0.0
H601 H 0.99122 0.68126 0.90907 0.0
H602 H 0.91863 0.85206 0.82969 0.0
H603 H 1.0138 0.74081 1.01448 0.0
H604 H 0.97681 0.7433 0.87474 0.0
H605 H 1.00486 0.84941 0.94977 0.0
C606 C 0.97129 0.8853 0.90656 0.0
C607 C 0.94554 0.88688 0.87315 0.0
C608 C 0.98502 0.74284 0.90534 0.0
C609 C 0.97701 0.81554 0.90546 0.0
C610 C 0.99322 0.70736 0.9251 0.0
C611 C 1.00349 0.70557 0.96499 0.0
C612 C 0.98761 0.77718 0.92528 0.0
C613 C 1.00568 0.7406 0.9839 0.0
C614 C 0.98697 0.84989 0.92282 0.0
C615 C 0.93912 0.85217 0.85492 0.0
N616 N 0.9979 0.77484 0.96392 0.0
N617 N 0.95427 0.81792 0.8715 0.0
H618 H 0.42888 0.70309 0.12464 0.0
H619 H 0.58485 0.86636 0.08655 0.0
H620 H 0.53414 0.68674 0.05517 0.0
H621 H 0.47208 0.88419 0.1457 0.0
H622 H 0.5737 0.79762 0.08444 0.0
H623 H 0.45094 0.76637 0.14209 0.0
C624 C 0.45718 0.71281 0.1138 0.0
C625 C 0.48014 0.69004 0.08892 0.0
C626 C 0.55166 0.81651 0.0983 0.0
C627 C 0.50508 0.76247 0.10757 0.0
C628 C 0.55816 0.85568 0.09978 0.0
C629 C 0.52911 0.88103 0.11602 0.0
C630 C 0.51592 0.80265 0.1132 0.0
C631 C 0.49488 0.86572 0.13236 0.0
C632 C 0.46965 0.74889 0.12345 0.0
C633 C 0.51601 0.70376 0.07464 0.0
N634 N 0.48907 0.82758 0.13026 0.0
N635 N 0.52735 0.73937 0.08396 0.0
H636 H 0.11748 0.47183 0.4813 0.0
H637 H 0.16457 0.27538 0.60496 0.0
H638 H 0.18118 0.46412 0.59246 0.0
H639 H 0.06823 0.29137 0.51663 0.0
H640 H 0.18363 0.34119 0.59169 0.0
H641 H 0.11404 0.4014 0.48344 0.0
C642 C 0.13229 0.45509 0.50528 0.0
C643 C 0.14965 0.47362 0.53671 0.0
C644 C 0.15834 0.33029 0.57518 0.0
C645 C 0.14542 0.39386 0.53978 0.0
C646 C 0.14734 0.29288 0.58289 0.0
C647 C 0.11445 0.2782 0.56221 0.0
C648 C 0.13657 0.35308 0.54631 0.0
C649 C 0.09326 0.30194 0.53374 0.0
C650 C 0.12985 0.41514 0.50679 0.0
C651 C 0.16822 0.4509 0.56734 0.0
N652 N 0.1047 0.33827 0.52658 0.0
N653 N 0.16511 0.41227 0.5684 0.0
H654 H 0.72977 0.32522 0.43829 0.0
H655 H 0.54003 0.4682 0.46167 0.0
H656 H 0.60997 0.28356 0.41776 0.0
H657 H 0.63217 0.45434 0.55396 0.0
H658 H 0.56833 0.40852 0.43371 0.0
H659 H 0.69842 0.38117 0.46988 0.0
C660 C 0.69692 0.32764 0.44066 0.0
C661 C 0.67257 0.29929 0.42566 0.0
C662 C 0.58206 0.41851 0.46021 0.0
C663 C 0.63641 0.36431 0.46014 0.0
C664 C 0.56605 0.45248 0.47613 0.0
C665 C 0.5836 0.46605 0.51036 0.0
C666 C 0.61679 0.39878 0.47784 0.0
C667 C 0.61744 0.44467 0.52779 0.0
C668 C 0.67909 0.35969 0.45845 0.0
C669 C 0.62992 0.30483 0.42842 0.0
N670 N 0.63337 0.41247 0.51102 0.0
N671 N 0.61314 0.33687 0.44492 0.0
loop_
_geom_bond_atom_site_label_1
_geom_bond_atom_site_label_2
_geom_bond_distance
_geom_bond_site_symmetry_2
_ccdc_geom_bond_type
C0 N1 1.317 . S
C0 N2 1.348 . S
C0 C3 1.485 . S
N1 C0 1.317 . S
N1 N5 1.370 . S
N2 C0 1.348 . S
N2 C4 1.346 . S
C3 C0 1.485 . S
C3 H7 0.960 . S
C3 H8 0.961 . S
C3 H9 0.960 . S
C4 N2 1.346 . S
C4 N5 1.307 . S
C4 C6 1.486 . S
N5 N1 1.370 . S
N5 C4 1.307 . S
C6 C4 1.486 . S
C6 H10 0.960 . S
C6 H11 0.960 . S
C6 H12 0.959 . S
H7 C3 0.960 . S
H8 C3 0.961 . S
H9 C3 0.960 . S
H10 C6 0.960 . S
H11 C6 0.960 . S
H12 C6 0.959 . S
C13 N14 1.317 . S
C13 N15 1.348 . S
C13 C16 1.485 . S
N14 C13 1.317 . S
N14 N18 1.370 . S
N15 C13 1.348 . S
N15 C17 1.346 . S
C16 C13 1.485 . S
C16 H20 0.960 . S
C16 H21 0.961 . S
C16 H22 0.960 . S
C17 N15 1.346 . S
C17 N18 1.307 . S
C17 C19 1.486 . S
N18 N14 1.370 . S
N18 C17 1.307 . S
C19 C17 1.486 . S
C19 H23 0.960 . S
C19 H24 0.960 . S
C19 H25 0.959 . S
H20 C16 0.960 . S
H21 C16 0.961 . S
H22 C16 0.960 . S
H23 C19 0.960 . S
H24 C19 0.960 . S
H25 C19 0.959 . S
C26 N27 1.317 . S
C26 N28 1.348 . S
C26 C29 1.485 . S
N27 C26 1.317 . S
N27 N31 1.370 . S
N28 C26 1.348 . S
N28 C30 1.346 . S
C29 C26 1.485 . S
C29 H33 0.960 . S
C29 H34 0.961 . S
C29 H35 0.960 . S
C30 N28 1.346 . S
C30 N31 1.307 . S
C30 C32 1.486 . S
N31 N27 1.370 . S
N31 C30 1.307 . S
C32 C30 1.486 . S
C32 H36 0.960 . S
C32 H37 0.960 . S
C32 H38 0.959 . S
H33 C29 0.960 . S
H34 C29 0.961 . S
H35 C29 0.960 . S
H36 C32 0.960 . S
H37 C32 0.960 . S
H38 C32 0.959 . S
C39 N40 1.317 . S
C39 N41 1.348 . S
C39 C42 1.485 . S
N40 C39 1.317 . S
N40 N44 1.370 . S
N41 C39 1.348 . S
N41 C43 1.346 . S
C42 C39 1.485 . S
C42 H46 0.960 . S
C42 H47 0.961 . S
C42 H48 0.960 . S
C43 N41 1.346 . S
C43 N44 1.307 . S
C43 C45 1.486 . S
N44 N40 1.370 . S
N44 C43 1.307 . S
C45 C43 1.486 . S
C45 H49 0.960 . S
C45 H50 0.960 . S
C45 H51 0.959 . S
H46 C42 0.960 . S
H47 C42 0.961 . S
H48 C42 0.960 . S
H49 C45 0.960 . S
H50 C45 0.960 . S
H51 C45 0.959 . S
C52 N53 1.317 . S
C52 N54 1.348 . S
C52 C55 1.485 . S
N53 C52 1.317 . S
N53 N57 1.370 . S
N54 C52 1.348 . S
N54 C56 1.346 . S
C55 C52 1.485 . S
C55 H59 0.960 . S
C55 H60 0.961 . S
C55 H61 0.960 . S
C56 N54 1.346 . S
C56 N57 1.307 . S
C56 C58 1.486 1_565 S
N57 N53 1.370 . S
N57 C56 1.307 . S
C58 C56 1.486 1_545 S
C58 H62 0.960 . S
C58 H63 0.960 . S
C58 H64 0.959 . S
H59 C55 0.960 . S
H60 C55 0.961 . S
H61 C55 0.960 . S
H62 C58 0.960 . S
H63 C58 0.960 . S
H64 C58 0.959 . S
C65 N66 1.317 . S
C65 N67 1.348 . S
C65 C68 1.485 . S
N66 C65 1.317 . S
N66 N70 1.370 . S
N67 C65 1.348 . S
N67 C69 1.346 . S
C68 C65 1.485 . S
C68 H72 0.960 . S
C68 H73 0.961 . S
C68 H74 0.960 . S
C69 N67 1.346 . S
C69 N70 1.307 . S
C69 C71 1.486 . S
N70 N66 1.370 . S
N70 C69 1.307 . S
C71 C69 1.486 . S
C71 H75 0.960 . S
C71 H76 0.960 . S
C71 H77 0.959 . S
H72 C68 0.960 . S
H73 C68 0.961 . S
H74 C68 0.960 . S
H75 C71 0.960 . S
H76 C71 0.960 . S
H77 C71 0.959 . S
C78 N79 1.317 . S
C78 N80 1.348 . S
C78 C81 1.485 . S
N79 C78 1.317 . S
N79 N83 1.370 . S
N80 C78 1.348 . S
N80 C82 1.346 . S
C81 C78 1.485 . S
C81 H85 0.960 . S
C81 H86 0.961 . S
C81 H87 0.960 . S
C82 N80 1.346 . S
C82 N83 1.307 . S
C82 C84 1.486 . S
N83 N79 1.370 . S
N83 C82 1.307 . S
C84 C82 1.486 . S
C84 H88 0.960 . S
C84 H89 0.960 . S
C84 H90 0.959 . S
H85 C81 0.960 . S
H86 C81 0.961 . S
H87 C81 0.960 . S
H88 C84 0.960 . S
H89 C84 0.960 . S
H90 C84 0.959 . S
C91 N92 1.317 . S
C91 N93 1.348 . S
C91 C94 1.485 . S
N92 C91 1.317 . S
N92 N96 1.370 . S
N93 C91 1.348 . S
N93 C95 1.346 . S
C94 C91 1.485 . S
C94 H98 0.960 . S
C94 H99 0.961 . S
C94 H100 0.960 . S
C95 N93 1.346 . S
C95 N96 1.307 . S
C95 C97 1.486 . S
N96 N92 1.370 . S
N96 C95 1.307 . S
C97 C95 1.486 . S
C97 H101 0.960 . S
C97 H102 0.960 . S
C97 H103 0.959 . S
H98 C94 0.960 . S
H99 C94 0.961 . S
H100 C94 0.960 . S
H101 C97 0.960 . S
H102 C97 0.960 . S
H103 C97 0.959 . S
C104 O120 1.251 . S
C104 O122 1.254 . S
N105 C106 1.333 . S
N105 C110 1.307 . S
N105 Zn111 2.020 . S
C106 N105 1.333 . S
C106 C107 1.379 . S
C106 H124 0.952 . S
C107 C106 1.379 . S
C107 C108 1.390 . S
C107 H134 0.949 . S
C108 C107 1.390 . S
C108 C109 1.357 . S
C109 C108 1.357 . S
C109 C110 1.370 . S
C109 H135 0.950 . S
C110 N105 1.307 . S
C110 C109 1.370 . S
C110 H128 0.948 . S
Zn111 N105 2.020 . S
Zn111 O120 2.039 . S
Zn111 O126 2.034 . S
Zn111 O130 2.025 . S
Zn111 O132 2.024 . S
C112 O131 1.246 1_655 S
C112 O132 1.249 1_655 S
N113 C114 1.307 . S
N113 C115 1.333 . S
N113 Zn119 2.020 1_565 S
C114 N113 1.307 . S
C114 C118 1.370 . S
C114 H125 0.948 . S
C115 N113 1.333 . S
C115 C116 1.379 1_455 S
C115 H123 0.958 . S
C116 C115 1.379 1_655 S
C116 C117 1.390 1_655 S
C116 H136 0.949 . S
C117 C116 1.390 1_455 S
C117 C118 1.357 . S
C118 C114 1.370 . S
C118 C117 1.357 . S
C118 H137 0.950 . S
Zn119 N113 2.020 1_545 S
Zn119 O122 2.025 . S
Zn119 O127 2.024 . S
Zn119 O129 2.039 . S
Zn119 O131 2.034 . S
O120 C104 1.251 . S
O120 Zn111 2.039 . S
C121 O126 1.246 . S
C121 O127 1.249 . S
O122 C104 1.254 . S
O122 Zn119 2.025 . S
H123 C115 0.958 . S
H124 C106 0.952 . S
H125 C114 0.948 . S
O126 Zn111 2.034 . S
O126 C121 1.246 . S
O127 Zn119 2.024 . S
O127 C121 1.249 . S
H128 C110 0.948 . S
O129 Zn119 2.039 . S
O129 C133 1.251 . S
O130 Zn111 2.025 . S
O130 C133 1.254 . S
O131 C112 1.246 1_455 S
O131 Zn119 2.034 . S
O132 Zn111 2.024 . S
O132 C112 1.249 1_455 S
C133 O129 1.251 . S
C133 O130 1.254 . S
H134 C107 0.949 . S
H135 C109 0.950 . S
H136 C116 0.949 . S
H137 C118 0.950 . S
C138 O154 1.251 . S
C138 O156 1.254 . S
N139 C140 1.333 . S
N139 C144 1.307 1_554 S
N139 Zn145 2.020 . S
C140 N139 1.333 . S
C140 C141 1.379 . S
C140 H158 0.952 . S
C141 C140 1.379 . S
C141 C142 1.390 1_554 S
C141 H168 0.949 . S
C142 C141 1.390 1_556 S
C142 C143 1.357 . S
C143 C142 1.357 . S
C143 C144 1.370 . S
C143 H169 0.950 . S
C144 N139 1.307 1_556 S
C144 C143 1.370 . S
C144 H162 0.948 . S
Zn145 N139 2.020 . S
Zn145 O154 2.039 . S
Zn145 O160 2.034 . S
Zn145 O164 2.025 . S
Zn145 O166 2.024 1_554 S
C146 O165 1.243 . S
C146 O166 1.249 . S
N147 C148 1.307 . S
N147 C149 1.333 . S
N147 Zn153 2.020 1_565 S
C148 N147 1.307 . S
C148 C152 1.370 . S
C148 H159 0.948 . S
C149 N147 1.333 . S
C149 C150 1.379 . S
C149 H157 0.952 . S
C150 C149 1.379 . S
C150 C151 1.390 . S
C150 H170 0.949 . S
C151 C150 1.390 . S
C151 C152 1.357 . S
C152 C148 1.370 . S
C152 C151 1.357 . S
C152 H171 0.950 . S
Zn153 N147 2.020 1_545 S
Zn153 O156 2.025 . S
Zn153 O161 2.024 . S
Zn153 O163 2.039 . S
Zn153 O165 2.037 1_554 S
O154 C138 1.251 . S
O154 Zn145 2.039 . S
C155 O160 1.246 . S
C155 O161 1.249 . S
O156 C138 1.254 . S
O156 Zn153 2.025 . S
H157 C149 0.952 . S
H158 C140 0.952 . S
H159 C148 0.948 . S
O160 Zn145 2.034 . S
O160 C155 1.246 . S
O161 Zn153 2.024 . S
O161 C155 1.249 . S
H162 C144 0.948 . S
O163 Zn153 2.039 . S
O163 C167 1.251 . S
O164 Zn145 2.025 . S
O164 C167 1.254 . S
O165 C146 1.243 . S
O165 Zn153 2.037 1_556 S
O166 Zn145 2.024 1_556 S
O166 C146 1.249 . S
C167 O163 1.251 . S
C167 O164 1.254 . S
H168 C141 0.949 . S
H169 C143 0.950 . S
H170 C150 0.949 . S
H171 C152 0.950 . S
C172 O188 1.251 . S
C172 O190 1.254 . S
N173 C174 1.333 . S
N173 C178 1.307 . S
N173 Zn179 2.020 . S
C174 N173 1.333 . S
C174 C175 1.379 . S
C174 H192 0.952 . S
C175 C174 1.379 . S
C175 C176 1.390 . S
C175 H202 0.949 . S
C176 C175 1.390 . S
C176 C177 1.357 . S
C177 C176 1.357 . S
C177 C178 1.370 . S
C177 H203 0.950 . S
C178 N173 1.307 . S
C178 C177 1.370 . S
C178 H196 0.948 . S
Zn179 N173 2.020 . S
Zn179 O188 2.039 . S
Zn179 O194 2.034 . S
Zn179 O198 2.025 . S
Zn179 O200 2.024 . S
C180 O199 1.246 . S
C180 O200 1.249 . S
N181 C182 1.307 . S
N181 C183 1.333 . S
N181 Zn187 2.020 . S
C182 N181 1.307 . S
C182 C186 1.370 . S
C182 H193 0.948 . S
C183 N181 1.333 . S
C183 C184 1.379 . S
C183 H191 0.952 . S
C184 C183 1.379 . S
C184 C185 1.390 . S
C184 H204 0.949 . S
C185 C184 1.390 . S
C185 C186 1.357 . S
C186 C182 1.370 . S
C186 C185 1.357 . S
C186 H205 0.950 . S
Zn187 N181 2.020 . S
Zn187 O190 2.025 . S
Zn187 O195 2.024 . S
Zn187 O197 2.039 . S
Zn187 O199 2.034 . S
O188 C172 1.251 . S
O188 Zn179 2.039 . S
C189 O194 1.246 . S
C189 O195 1.249 . S
O190 C172 1.254 . S
O190 Zn187 2.025 . S
H191 C183 0.952 . S
H192 C174 0.952 . S
H193 C182 0.948 . S
O194 Zn179 2.034 . S
O194 C189 1.246 . S
O195 Zn187 2.024 . S
O195 C189 1.249 . S
H196 C178 0.948 . S
O197 Zn187 2.039 . S
O197 C201 1.251 . S
O198 Zn179 2.025 . S
O198 C201 1.254 . S
O199 C180 1.246 . S
O199 Zn187 2.034 . S
O200 Zn179 2.024 . S
O200 C180 1.249 . S
C201 O197 1.251 . S
C201 O198 1.254 . S
H202 C175 0.949 . S
H203 C177 0.950 . S
H204 C184 0.949 . S
H205 C186 0.950 . S
C206 O222 1.251 1_556 S
C206 O224 1.254 1_655 S
N207 C208 1.333 . S
N207 C212 1.307 . S
N207 Zn213 2.020 1_655 S
C208 N207 1.333 . S
C208 C209 1.379 . S
C208 H226 0.952 . S
C209 C208 1.379 . S
C209 C210 1.390 . S
C209 H236 0.949 . S
C210 C209 1.390 . S
C210 C211 1.357 . S
C211 C210 1.357 . S
C211 C212 1.370 . S
C211 H237 0.950 . S
C212 N207 1.307 . S
C212 C211 1.370 . S
C212 H230 0.948 . S
Zn213 N207 2.020 1_455 S
Zn213 O222 2.039 1_455 S
Zn213 O228 2.034 . S
Zn213 O232 2.025 . S
Zn213 O234 2.024 1_455 S
C214 O233 1.246 . S
C214 O234 1.249 1_556 S
N215 C216 1.307 . S
N215 C217 1.333 . S
N215 Zn221 2.020 . S
C216 N215 1.307 . S
C216 C220 1.370 . S
C216 H227 0.948 . S
C217 N215 1.333 . S
C217 C218 1.379 . S
C217 H225 0.952 . S
C218 C217 1.379 . S
C218 C219 1.390 . S
C218 H238 0.949 . S
C219 C218 1.390 . S
C219 C220 1.357 . S
C220 C216 1.370 . S
C220 C219 1.357 . S
C220 H239 0.950 . S
Zn221 N215 2.020 . S
Zn221 O224 2.025 . S
Zn221 O229 2.024 . S
Zn221 O231 2.039 1_556 S
Zn221 O233 2.034 1_455 S
O222 C206 1.251 1_554 S
O222 Zn213 2.039 1_655 S
C223 O228 1.246 . S
C223 O229 1.249 1_554 S
O224 C206 1.254 1_455 S
O224 Zn221 2.025 . S
H225 C217 0.952 . S
H226 C208 0.952 . S
H227 C216 0.948 . S
O228 Zn213 2.034 . S
O228 C223 1.246 . S
O229 Zn221 2.024 . S
O229 C223 1.249 1_556 S
H230 C212 0.948 . S
O231 Zn221 2.039 1_554 S
O231 C235 1.251 . S
O232 Zn213 2.025 . S
O232 C235 1.254 . S
O233 C214 1.246 . S
O233 Zn221 2.034 1_655 S
O234 Zn213 2.024 1_655 S
O234 C214 1.249 1_554 S
C235 O231 1.251 . S
C235 O232 1.254 . S
H236 C209 0.949 . S
H237 C211 0.950 . S
H238 C218 0.949 . S
H239 C220 0.950 . S
H240 C246 0.930 . S
H241 C250 0.930 . S
H242 C255 0.929 . S
H243 C253 0.929 . S
H244 C248 0.929 . S
H245 C254 0.929 . S
C246 H240 0.930 . S
C246 C247 1.367 . S
C246 C254 1.378 . S
C247 C246 1.367 . S
C247 C255 1.433 . S
C248 H244 0.929 . S
C248 C250 1.378 . S
C248 C252 1.350 . S
C249 C252 1.463 . S
C249 C254 1.350 . S
C249 N257 1.427 . S
C250 H241 0.930 . S
C250 C248 1.378 . S
C250 C251 1.367 . S
C251 C250 1.367 . S
C251 C253 1.433 . S
C252 C248 1.350 . S
C252 C249 1.463 . S
C252 N256 1.427 . S
C253 H243 0.929 . S
C253 C251 1.433 . S
C253 N256 1.384 . S
C254 H245 0.929 . S
C254 C246 1.378 . S
C254 C249 1.350 . S
C255 H242 0.929 . S
C255 C247 1.433 . S
C255 N257 1.384 . S
N256 C252 1.427 . S
N256 C253 1.384 . S
N257 C249 1.427 . S
N257 C255 1.384 . S
H258 C264 0.930 . S
H259 C268 0.930 . S
H260 C273 0.929 1_545 S
H261 C271 0.929 . S
H262 C266 0.929 . S
H263 C272 0.929 . S
C264 H258 0.930 . S
C264 C265 1.367 . S
C264 C272 1.378 . S
C265 C264 1.367 . S
C265 C273 1.433 . S
C266 H262 0.929 . S
C266 C268 1.378 . S
C266 C270 1.350 . S
C267 C270 1.463 1_565 S
C267 C272 1.350 . S
C267 N275 1.427 1_565 S
C268 H259 0.930 . S
C268 C266 1.378 . S
C268 C269 1.367 . S
C269 C268 1.367 . S
C269 C271 1.433 . S
C270 C266 1.350 . S
C270 C267 1.463 1_545 S
C270 N274 1.427 1_545 S
C271 H261 0.929 . S
C271 C269 1.433 . S
C271 N274 1.384 1_545 S
C272 H263 0.929 . S
C272 C264 1.378 . S
C272 C267 1.350 . S
C273 H260 0.929 1_565 S
C273 C265 1.433 . S
C273 N275 1.384 1_565 S
N274 C270 1.427 1_565 S
N274 C271 1.384 1_565 S
N275 C267 1.427 1_545 S
N275 C273 1.384 1_545 S
H276 C282 0.930 . S
H277 C286 0.930 . S
H278 C291 0.929 . S
H279 C289 0.929 . S
H280 C284 0.929 . S
H281 C290 0.929 . S
C282 H276 0.930 . S
C282 C283 1.367 . S
C282 C290 1.378 . S
C283 C282 1.367 . S
C283 C291 1.433 . S
C284 H280 0.929 . S
C284 C286 1.378 . S
C284 C288 1.350 . S
C285 C288 1.463 . S
C285 C290 1.350 . S
C285 N293 1.427 . S
C286 H277 0.930 . S
C286 C284 1.378 . S
C286 C287 1.367 . S
C287 C286 1.367 . S
C287 C289 1.433 . S
C288 C284 1.350 . S
C288 C285 1.463 . S
C288 N292 1.427 . S
C289 H279 0.929 . S
C289 C287 1.433 . S
C289 N292 1.384 . S
C290 H281 0.929 . S
C290 C282 1.378 . S
C290 C285 1.350 . S
C291 H278 0.929 . S
C291 C283 1.433 . S
C291 N293 1.384 . S
N292 C288 1.427 . S
N292 C289 1.384 . S
N293 C285 1.427 . S
N293 C291 1.384 . S
H294 C300 0.930 . S
H295 C304 0.930 1_455 S
H296 C309 0.929 . S
H297 C307 0.929 . S
H298 C302 0.929 . S
H299 C308 0.929 . S
C300 H294 0.930 . S
C300 C301 1.367 . S
C300 C308 1.378 . S
C301 C300 1.367 . S
C301 C309 1.433 . S
C302 H298 0.929 . S
C302 C304 1.378 . S
C302 C306 1.350 . S
C303 C306 1.463 . S
C303 C308 1.350 . S
C303 N311 1.427 . S
C304 H295 0.930 1_655 S
C304 C302 1.378 . S
C304 C305 1.367 . S
C305 C304 1.367 . S
C305 C307 1.433 . S
C306 C302 1.350 . S
C306 C303 1.463 . S
C306 N310 1.427 . S
C307 H297 0.929 . S
C307 C305 1.433 . S
C307 N310 1.384 . S
C308 H299 0.929 . S
C308 C300 1.378 . S
C308 C303 1.350 . S
C309 H296 0.929 . S
C309 C301 1.433 . S
C309 N311 1.384 . S
N310 C306 1.427 . S
N310 C307 1.384 . S
N311 C303 1.427 . S
N311 C309 1.384 . S
H312 C318 0.930 . S
H313 C322 0.930 . S
H314 C327 0.929 . S
H315 C325 0.929 . S
H316 C320 0.929 . S
H317 C326 0.929 . S
C318 H312 0.930 . S
C318 C319 1.367 . S
C318 C326 1.378 . S
C319 C318 1.367 . S
C319 C327 1.433 . S
C320 H316 0.929 . S
C320 C322 1.378 . S
C320 C324 1.350 . S
C321 C324 1.463 . S
C321 C326 1.350 . S
C321 N329 1.427 . S
C322 H313 0.930 . S
C322 C320 1.378 . S
C322 C323 1.367 . S
C323 C322 1.367 . S
C323 C325 1.433 . S
C324 C320 1.350 . S
C324 C321 1.463 . S
C324 N328 1.427 . S
C325 H315 0.929 . S
C325 C323 1.433 . S
C325 N328 1.384 . S
C326 H317 0.929 . S
C326 C318 1.378 . S
C326 C321 1.350 . S
C327 H314 0.929 . S
C327 C319 1.433 . S
C327 N329 1.384 . S
N328 C324 1.427 . S
N328 C325 1.384 . S
N329 C321 1.427 . S
N329 C327 1.384 . S
H330 C336 0.930 . S
H331 C340 0.930 . S
H332 C345 0.929 1_545 S
H333 C343 0.929 . S
H334 C338 0.929 . S
H335 C344 0.929 . S
C336 H330 0.930 . S
C336 C337 1.367 . S
C336 C344 1.378 . S
C337 C336 1.367 . S
C337 C345 1.433 . S
C338 H334 0.929 . S
C338 C340 1.378 . S
C338 C342 1.350 1_545 S
C339 C342 1.463 . S
C339 C344 1.350 . S
C339 N347 1.427 1_565 S
C340 H331 0.930 . S
C340 C338 1.378 . S
C340 C341 1.367 . S
C341 C340 1.367 . S
C341 C343 1.433 1_545 S
C342 C338 1.350 1_565 S
C342 C339 1.463 . S
C342 N346 1.427 . S
C343 H333 0.929 . S
C343 C341 1.433 1_565 S
C343 N346 1.384 . S
C344 H335 0.929 . S
C344 C336 1.378 . S
C344 C339 1.350 . S
C345 H332 0.929 1_565 S
C345 C337 1.433 . S
C345 N347 1.384 1_565 S
N346 C342 1.427 . S
N346 C343 1.384 . S
N347 C339 1.427 1_545 S
N347 C345 1.384 1_545 S
H348 C354 0.930 . S
H349 C358 0.930 . S
H350 C363 0.929 . S
H351 C361 0.929 . S
H352 C356 0.929 . S
H353 C362 0.929 1_554 S
C354 H348 0.930 . S
C354 C355 1.367 . S
C354 C362 1.378 . S
C355 C354 1.367 . S
C355 C363 1.433 . S
C356 H352 0.929 . S
C356 C358 1.378 . S
C356 C360 1.350 . S
C357 C360 1.463 . S
C357 C362 1.350 . S
C357 N365 1.427 . S
C358 H349 0.930 . S
C358 C356 1.378 . S
C358 C359 1.367 . S
C359 C358 1.367 . S
C359 C361 1.433 1_556 S
C360 C356 1.350 . S
C360 C357 1.463 . S
C360 N364 1.427 1_556 S
C361 H351 0.929 . S
C361 C359 1.433 1_554 S
C361 N364 1.384 . S
C362 H353 0.929 1_556 S
C362 C354 1.378 . S
C362 C357 1.350 . S
C363 H350 0.929 . S
C363 C355 1.433 . S
C363 N365 1.384 . S
N364 C360 1.427 1_554 S
N364 C361 1.384 . S
N365 C357 1.427 . S
N365 C363 1.384 . S
H366 C372 0.930 . S
H367 C376 0.930 . S
H368 C381 0.929 . S
H369 C379 0.929 . S
H370 C374 0.929 . S
H371 C380 0.929 . S
C372 H366 0.930 . S
C372 C373 1.367 . S
C372 C380 1.378 . S
C373 C372 1.367 . S
C373 C381 1.433 . S
C374 H370 0.929 . S
C374 C376 1.378 . S
C374 C378 1.350 . S
C375 C378 1.463 . S
C375 C380 1.350 . S
C375 N383 1.427 . S
C376 H367 0.930 . S
C376 C374 1.378 . S
C376 C377 1.367 . S
C377 C376 1.367 . S
C377 C379 1.433 . S
C378 C374 1.350 . S
C378 C375 1.463 . S
C378 N382 1.427 . S
C379 H369 0.929 . S
C379 C377 1.433 . S
C379 N382 1.384 . S
C380 H371 0.929 . S
C380 C372 1.378 . S
C380 C375 1.350 . S
C381 H368 0.929 . S
C381 C373 1.433 . S
C381 N383 1.384 . S
N382 C378 1.427 . S
N382 C379 1.384 . S
N383 C375 1.427 . S
N383 C381 1.384 . S
H384 C390 0.930 . S
H385 C394 0.930 . S
H386 C399 0.929 . S
H387 C397 0.929 . S
H388 C392 0.929 . S
H389 C398 0.929 . S
C390 H384 0.930 . S
C390 C391 1.367 . S
C390 C398 1.378 . S
C391 C390 1.367 . S
C391 C399 1.433 . S
C392 H388 0.929 . S
C392 C394 1.378 . S
C392 C396 1.350 . S
C393 C396 1.463 . S
C393 C398 1.350 . S
C393 N401 1.427 . S
C394 H385 0.930 . S
C394 C392 1.378 . S
C394 C395 1.367 . S
C395 C394 1.367 . S
C395 C397 1.433 . S
C396 C392 1.350 . S
C396 C393 1.463 . S
C396 N400 1.427 . S
C397 H387 0.929 . S
C397 C395 1.433 . S
C397 N400 1.384 . S
C398 H389 0.929 . S
C398 C390 1.378 . S
C398 C393 1.350 . S
C399 H386 0.929 . S
C399 C391 1.433 . S
C399 N401 1.384 . S
N400 C396 1.427 . S
N400 C397 1.384 . S
N401 C393 1.427 . S
N401 C399 1.384 . S
H402 C408 0.930 . S
H403 C412 0.930 . S
H404 C417 0.929 . S
H405 C415 0.929 . S
H406 C410 0.929 . S
H407 C416 0.929 . S
C408 H402 0.930 . S
C408 C409 1.367 . S
C408 C416 1.378 . S
C409 C408 1.367 . S
C409 C417 1.433 . S
C410 H406 0.929 . S
C410 C412 1.378 . S
C410 C414 1.350 . S
C411 C414 1.463 . S
C411 C416 1.350 . S
C411 N419 1.427 . S
C412 H403 0.930 . S
C412 C410 1.378 . S
C412 C413 1.367 . S
C413 C412 1.367 . S
C413 C415 1.433 . S
C414 C410 1.350 . S
C414 C411 1.463 . S
C414 N418 1.427 . S
C415 H405 0.929 . S
C415 C413 1.433 . S
C415 N418 1.384 . S
C416 H407 0.929 . S
C416 C408 1.378 . S
C416 C411 1.350 . S
C417 H404 0.929 . S
C417 C409 1.433 . S
C417 N419 1.384 . S
N418 C414 1.427 . S
N418 C415 1.384 . S
N419 C411 1.427 . S
N419 C417 1.384 . S
H420 C426 0.930 . S
H421 C430 0.930 . S
H422 C435 0.929 . S
H423 C433 0.929 . S
H424 C428 0.929 . S
H425 C434 0.929 . S
C426 H420 0.930 . S
C426 C427 1.367 . S
C426 C434 1.378 . S
C427 C426 1.367 . S
C427 C435 1.433 . S
C428 H424 0.929 . S
C428 C430 1.378 . S
C428 C432 1.350 . S
C429 C432 1.463 . S
C429 C434 1.350 . S
C429 N437 1.427 . S
C430 H421 0.930 . S
C430 C428 1.378 . S
C430 C431 1.367 . S
C431 C430 1.367 . S
C431 C433 1.433 1_655 S
C432 C428 1.350 . S
C432 C429 1.463 . S
C432 N436 1.427 . S
C433 H423 0.929 . S
C433 C431 1.433 1_455 S
C433 N436 1.384 1_455 S
C434 H425 0.929 . S
C434 C426 1.378 . S
C434 C429 1.350 . S
C435 H422 0.929 . S
C435 C427 1.433 . S
C435 N437 1.384 . S
N436 C432 1.427 . S
N436 C433 1.384 1_655 S
N437 C429 1.427 . S
N437 C435 1.384 . S
H438 C444 0.930 . S
H439 C448 0.930 . S
H440 C453 0.929 . S
H441 C451 0.929 . S
H442 C446 0.929 . S
H443 C452 0.929 . S
C444 H438 0.930 . S
C444 C445 1.367 . S
C444 C452 1.378 . S
C445 C444 1.367 . S
C445 C453 1.433 . S
C446 H442 0.929 . S
C446 C448 1.378 . S
C446 C450 1.350 . S
C447 C450 1.463 . S
C447 C452 1.350 . S
C447 N455 1.427 . S
C448 H439 0.930 . S
C448 C446 1.378 . S
C448 C449 1.367 . S
C449 C448 1.367 . S
C449 C451 1.433 . S
C450 C446 1.350 . S
C450 C447 1.463 . S
C450 N454 1.427 . S
C451 H441 0.929 . S
C451 C449 1.433 . S
C451 N454 1.384 . S
C452 H443 0.929 . S
C452 C444 1.378 . S
C452 C447 1.350 . S
C453 H440 0.929 . S
C453 C445 1.433 . S
C453 N455 1.384 . S
N454 C450 1.427 . S
N454 C451 1.384 . S
N455 C447 1.427 . S
N455 C453 1.384 . S
H456 C462 0.930 1_455 S
H457 C466 0.930 . S
H458 C471 0.929 . S
H459 C469 0.929 . S
H460 C464 0.929 . S
H461 C470 0.929 . S
C462 H456 0.930 1_655 S
C462 C463 1.367 . S
C462 C470 1.378 1_655 S
C463 C462 1.367 . S
C463 C471 1.433 . S
C464 H460 0.929 . S
C464 C466 1.378 . S
C464 C468 1.350 . S
C465 C468 1.462 1_565 S
C465 C470 1.350 1_655 S
C465 N473 1.427 . S
C466 H457 0.930 . S
C466 C464 1.378 . S
C466 C467 1.367 1_655 S
C467 C466 1.367 1_455 S
C467 C469 1.433 . S
C468 C464 1.350 . S
C468 C465 1.462 1_545 S
C468 N472 1.427 1_655 S
C469 H459 0.929 . S
C469 C467 1.433 . S
C469 N472 1.384 . S
C470 H461 0.929 . S
C470 C462 1.378 1_455 S
C470 C465 1.350 1_455 S
C471 H458 0.929 . S
C471 C463 1.433 . S
C471 N473 1.384 . S
N472 C468 1.427 1_455 S
N472 C469 1.384 . S
N473 C465 1.427 . S
N473 C471 1.384 . S
H474 C480 0.930 . S
H475 C484 0.930 . S
H476 C489 0.929 . S
H477 C487 0.929 . S
H478 C482 0.929 . S
H479 C488 0.929 . S
C480 H474 0.930 . S
C480 C481 1.367 . S
C480 C488 1.378 . S
C481 C480 1.367 . S
C481 C489 1.433 . S
C482 H478 0.929 . S
C482 C484 1.378 . S
C482 C486 1.350 . S
C483 C486 1.463 . S
C483 C488 1.350 . S
C483 N491 1.427 . S
C484 H475 0.930 . S
C484 C482 1.378 . S
C484 C485 1.367 . S
C485 C484 1.367 . S
C485 C487 1.433 . S
C486 C482 1.350 . S
C486 C483 1.463 . S
C486 N490 1.427 . S
C487 H477 0.929 . S
C487 C485 1.433 . S
C487 N490 1.384 . S
C488 H479 0.929 . S
C488 C480 1.378 . S
C488 C483 1.350 . S
C489 H476 0.929 . S
C489 C481 1.433 . S
C489 N491 1.384 . S
N490 C486 1.427 . S
N490 C487 1.384 . S
N491 C483 1.427 . S
N491 C489 1.384 . S
H492 C498 0.930 . S
H493 C502 0.930 . S
H494 C507 0.929 . S
H495 C505 0.929 . S
H496 C500 0.929 . S
H497 C506 0.929 . S
C498 H492 0.930 . S
C498 C499 1.367 . S
C498 C506 1.378 . S
C499 C498 1.367 . S
C499 C507 1.433 . S
C500 H496 0.929 . S
C500 C502 1.378 . S
C500 C504 1.350 . S
C501 C504 1.463 . S
C501 C506 1.350 . S
C501 N509 1.427 . S
C502 H493 0.930 . S
C502 C500 1.378 . S
C502 C503 1.367 . S
C503 C502 1.367 . S
C503 C505 1.433 . S
C504 C500 1.350 . S
C504 C501 1.463 . S
C504 N508 1.427 . S
C505 H495 0.929 . S
C505 C503 1.433 . S
C505 N508 1.384 . S
C506 H497 0.929 . S
C506 C498 1.378 . S
C506 C501 1.350 . S
C507 H494 0.929 . S
C507 C499 1.433 . S
C507 N509 1.384 . S
N508 C504 1.427 . S
N508 C505 1.384 . S
N509 C501 1.427 . S
N509 C507 1.384 . S
H510 C516 0.930 . S
H511 C520 0.930 . S
H512 C525 0.929 . S
H513 C523 0.929 . S
H514 C518 0.929 . S
H515 C524 0.929 . S
C516 H510 0.930 . S
C516 C517 1.367 . S
C516 C524 1.378 . S
C517 C516 1.367 . S
C517 C525 1.433 . S
C518 H514 0.929 . S
C518 C520 1.378 . S
C518 C522 1.350 . S
C519 C522 1.463 . S
C519 C524 1.350 . S
C519 N527 1.427 . S
C520 H511 0.930 . S
C520 C518 1.378 . S
C520 C521 1.367 . S
C521 C520 1.367 . S
C521 C523 1.433 . S
C522 C518 1.350 . S
C522 C519 1.463 . S
C522 N526 1.427 . S
C523 H513 0.929 . S
C523 C521 1.433 . S
C523 N526 1.384 . S
C524 H515 0.929 . S
C524 C516 1.378 . S
C524 C519 1.350 . S
C525 H512 0.929 . S
C525 C517 1.433 . S
C525 N527 1.384 . S
N526 C522 1.427 . S
N526 C523 1.384 . S
N527 C519 1.427 . S
N527 C525 1.384 . S
H528 C534 0.930 . S
H529 C538 0.930 1_565 S
H530 C543 0.929 . S
H531 C541 0.929 . S
H532 C536 0.929 . S
H533 C542 0.929 . S
C534 H528 0.930 . S
C534 C535 1.367 1_545 S
C534 C542 1.378 . S
C535 C534 1.367 1_565 S
C535 C543 1.433 . S
C536 H532 0.929 . S
C536 C538 1.378 1_565 S
C536 C540 1.350 1_564 S
C537 C540 1.463 . S
C537 C542 1.350 . S
C537 N545 1.427 1_545 S
C538 H529 0.930 1_545 S
C538 C536 1.378 1_545 S
C538 C539 1.367 . S
C539 C538 1.367 . S
C539 C541 1.433 1_554 S
C540 C536 1.350 1_546 S
C540 C537 1.463 . S
C540 N544 1.427 . S
C541 H531 0.929 . S
C541 C539 1.433 1_556 S
C541 N544 1.384 . S
C542 H533 0.929 . S
C542 C534 1.378 . S
C542 C537 1.350 . S
C543 H530 0.929 . S
C543 C535 1.433 . S
C543 N545 1.384 . S
N544 C540 1.427 . S
N544 C541 1.384 . S
N545 C537 1.427 1_565 S
N545 C543 1.384 . S
H546 C552 0.930 . S
H547 C556 0.930 . S
H548 C561 0.929 . S
H549 C559 0.929 . S
H550 C554 0.929 . S
H551 C560 0.929 . S
C552 H546 0.930 . S
C552 C553 1.367 . S
C552 C560 1.378 . S
C553 C552 1.367 . S
C553 C561 1.433 . S
C554 H550 0.929 . S
C554 C556 1.378 . S
C554 C558 1.350 . S
C555 C558 1.463 . S
C555 C560 1.350 . S
C555 N563 1.427 . S
C556 H547 0.930 . S
C556 C554 1.378 . S
C556 C557 1.367 . S
C557 C556 1.367 . S
C557 C559 1.433 . S
C558 C554 1.350 . S
C558 C555 1.463 . S
C558 N562 1.427 . S
C559 H549 0.929 . S
C559 C557 1.433 . S
C559 N562 1.384 . S
C560 H551 0.929 . S
C560 C552 1.378 . S
C560 C555 1.350 . S
C561 H548 0.929 . S
C561 C553 1.433 . S
C561 N563 1.384 . S
N562 C558 1.427 . S
N562 C559 1.384 . S
N563 C555 1.427 . S
N563 C561 1.384 . S
H564 C570 0.930 . S
H565 C574 0.930 . S
H566 C579 0.929 . S
H567 C577 0.929 1_556 S
H568 C572 0.929 . S
H569 C578 0.929 . S
C570 H564 0.930 . S
C570 C571 1.367 . S
C570 C578 1.378 . S
C571 C570 1.367 . S
C571 C579 1.433 . S
C572 H568 0.929 . S
C572 C574 1.378 . S
C572 C576 1.350 . S
C573 C576 1.463 . S
C573 C578 1.350 . S
C573 N581 1.427 . S
C574 H565 0.930 . S
C574 C572 1.378 . S
C574 C575 1.367 . S
C575 C574 1.367 . S
C575 C577 1.433 . S
C576 C572 1.350 . S
C576 C573 1.463 . S
C576 N580 1.427 . S
C577 H567 0.929 1_554 S
C577 C575 1.433 . S
C577 N580 1.384 . S
C578 H569 0.929 . S
C578 C570 1.378 . S
C578 C573 1.350 . S
C579 H566 0.929 . S
C579 C571 1.433 . S
C579 N581 1.384 . S
N580 C576 1.427 . S
N580 C577 1.384 . S
N581 C573 1.427 . S
N581 C579 1.384 . S
H582 C588 0.930 . S
H583 C592 0.930 . S
H584 C597 0.929 . S
H585 C595 0.929 . S
H586 C590 0.929 . S
H587 C596 0.929 . S
C588 H582 0.930 . S
C588 C589 1.367 . S
C588 C596 1.378 . S
C589 C588 1.367 . S
C589 C597 1.433 . S
C590 H586 0.929 . S
C590 C592 1.378 . S
C590 C594 1.350 . S
C591 C594 1.463 . S
C591 C596 1.350 . S
C591 N599 1.427 . S
C592 H583 0.930 . S
C592 C590 1.378 . S
C592 C593 1.367 . S
C593 C592 1.367 . S
C593 C595 1.433 . S
C594 C590 1.350 . S
C594 C591 1.463 . S
C594 N598 1.427 . S
C595 H585 0.929 . S
C595 C593 1.433 . S
C595 N598 1.384 . S
C596 H587 0.929 . S
C596 C588 1.378 . S
C596 C591 1.350 . S
C597 H584 0.929 . S
C597 C589 1.433 . S
C597 N599 1.384 . S
N598 C594 1.427 . S
N598 C595 1.384 . S
N599 C591 1.427 . S
N599 C597 1.384 . S
H600 C606 0.930 . S
H601 C610 0.930 . S
H602 C615 0.929 . S
H603 C613 0.932 1_554 S
H604 C608 0.929 . S
H605 C614 0.929 . S
C606 H600 0.930 . S
C606 C607 1.367 . S
C606 C614 1.378 . S
C607 C606 1.367 . S
C607 C615 1.433 . S
C608 H604 0.929 . S
C608 C610 1.378 . S
C608 C612 1.350 . S
C609 C612 1.463 . S
C609 C614 1.350 . S
C609 N617 1.427 . S
C610 H601 0.930 . S
C610 C608 1.378 . S
C610 C611 1.367 . S
C611 C610 1.367 . S
C611 C613 1.432 . S
C612 C608 1.350 . S
C612 C609 1.463 . S
C612 N616 1.427 . S
C613 H603 0.932 1_556 S
C613 C611 1.432 . S
C613 N616 1.383 . S
C614 H605 0.929 . S
C614 C606 1.378 . S
C614 C609 1.350 . S
C615 H602 0.929 . S
C615 C607 1.433 . S
C615 N617 1.384 . S
N616 C612 1.427 . S
N616 C613 1.383 . S
N617 C609 1.427 . S
N617 C615 1.384 . S
H618 C624 0.930 . S
H619 C628 0.930 . S
H620 C633 0.929 . S
H621 C631 0.929 . S
H622 C626 0.929 . S
H623 C632 0.929 . S
C624 H618 0.930 . S
C624 C625 1.367 . S
C624 C632 1.378 . S
C625 C624 1.367 . S
C625 C633 1.433 . S
C626 H622 0.929 . S
C626 C628 1.378 . S
C626 C630 1.350 . S
C627 C630 1.463 . S
C627 C632 1.350 . S
C627 N635 1.427 . S
C628 H619 0.930 . S
C628 C626 1.378 . S
C628 C629 1.367 . S
C629 C628 1.367 . S
C629 C631 1.433 . S
C630 C626 1.350 . S
C630 C627 1.463 . S
C630 N634 1.427 . S
C631 H621 0.929 . S
C631 C629 1.433 . S
C631 N634 1.384 . S
C632 H623 0.929 . S
C632 C624 1.378 . S
C632 C627 1.350 . S
C633 H620 0.929 . S
C633 C625 1.433 . S
C633 N635 1.384 . S
N634 C630 1.427 . S
N634 C631 1.384 . S
N635 C627 1.427 . S
N635 C633 1.384 . S
H636 C642 0.930 . S
H637 C646 0.930 . S
H638 C651 0.929 . S
H639 C649 0.929 . S
H640 C644 0.929 . S
H641 C650 0.929 . S
C642 H636 0.930 . S
C642 C643 1.367 . S
C642 C650 1.378 . S
C643 C642 1.367 . S
C643 C651 1.433 . S
C644 H640 0.929 . S
C644 C646 1.378 . S
C644 C648 1.350 . S
C645 C648 1.463 . S
C645 C650 1.350 . S
C645 N653 1.427 . S
C646 H637 0.930 . S
C646 C644 1.378 . S
C646 C647 1.367 . S
C647 C646 1.367 . S
C647 C649 1.433 . S
C648 C644 1.350 . S
C648 C645 1.463 . S
C648 N652 1.427 . S
C649 H639 0.929 . S
C649 C647 1.433 . S
C649 N652 1.384 . S
C650 H641 0.929 . S
C650 C642 1.378 . S
C650 C645 1.350 . S
C651 H638 0.929 . S
C651 C643 1.433 . S
C651 N653 1.384 . S
N652 C648 1.427 . S
N652 C649 1.384 . S
N653 C645 1.427 . S
N653 C651 1.384 . S
H654 C660 0.930 . S
H655 C664 0.930 . S
H656 C669 0.929 . S
H657 C667 0.929 . S
H658 C662 0.929 . S
H659 C668 0.929 . S
C660 H654 0.930 . S
C660 C661 1.367 . S
C660 C668 1.378 . S
C661 C660 1.367 . S
C661 C669 1.433 . S
C662 H658 0.929 . S
C662 C664 1.378 . S
C662 C666 1.350 . S
C663 C666 1.463 . S
C663 C668 1.350 . S
C663 N671 1.427 . S
C664 H655 0.930 . S
C664 C662 1.378 . S
C664 C665 1.367 . S
C665 C664 1.367 . S
C665 C667 1.433 . S
C666 C662 1.350 . S
C666 C663 1.463 . S
C666 N670 1.427 . S
C667 H657 0.929 . S
C667 C665 1.433 . S
C667 N670 1.384 . S
C668 H659 0.929 . S
C668 C660 1.378 . S
C668 C663 1.350 . S
C669 H656 0.929 . S
C669 C661 1.433 . S
C669 N671 1.384 . S
N670 C666 1.427 . S
N670 C667 1.384 . S
N671 C663 1.427 . S
N671 C669 1.384 . S
C247 N1 2.164 . S
C251 C104 2.207 . S
C265 N18 2.589 . S
C269 C146 2.634 . S
C287 C176 0.625 . S
C283 N28 0.627 . S
C301 N40 1.150 . S
C305 C210 1.161 . S
C323 C167 2.203 . S
C319 N5 2.164 . S
C341 C121 1.897 . S
C337 N14 1.832 . S
C359 C214 1.283 . S
C355 N31 1.252 . S
C377 C180 0.867 . S
C373 N41 0.867 . S
C391 N2 2.070 . S
C395 C235 2.088 . S
C413 C142 1.162 . S
C409 N27 1.139 . S
C427 N44 1.259 . S
C431 C117 1.261 1_655 S
C445 N15 1.961 . S
C449 C201 1.965 . S
C467 C133 2.615 . S
C463 N57 2.580 . S
C481 N70 2.010 . S
C485 C155 2.056 . S
C499 N79 0.929 . S
C503 C185 0.937 . S
C517 N93 0.814 . S
C521 C219 0.823 . S
C535 N54 1.750 . S
C539 C138 1.759 . S
C557 C112 2.264 . S
C553 N66 2.212 . S
C575 C223 0.654 . S
C571 N80 0.663 . S
C593 C189 1.386 . S
C589 N96 1.343 . S
C607 N53 2.081 . S
C611 C206 2.139 . S
C629 C151 1.163 . S
C625 N83 1.174 . S
C647 C108 1.232 . S
C643 N92 1.194 . S
C661 N67 2.050 . S
C665 C172 2.065 . S
