# Generated by pormake.
# Topology eea, (3,6)-cn, num edge types: 1
# Building blocks:
#     Node 0, Type 0, BuildingBlock: KAKCAD_clean_linker_0, # of connection points: 3
#     Node 1, Type 0, BuildingBlock: KAKCAD_clean_linker_0, # of connection points: 3
#     Node 2, Type 0, BuildingBlock: KAKCAD_clean_linker_0, # of connection points: 3
#     Node 3, Type 0, BuildingBlock: KAKCAD_clean_linker_0, # of connection points: 3
#     Node 4, Type 0, BuildingBlock: KAKCAD_clean_linker_0, # of connection points: 3
#     Node 5, Type 0, BuildingBlock: KAKCAD_clean_linker_0, # of connection points: 3
#     Node 6, Type 0, BuildingBlock: KAKCAD_clean_linker_0, # of connection points: 3
#     Node 7, Type 0, BuildingBlock: KAKCAD_clean_linker_0, # of connection points: 3
#     Node 8, Type 0, BuildingBlock: KAKCAD_clean_linker_0, # of connection points: 3
#     Node 9, Type 0, BuildingBlock: KAKCAD_clean_linker_0, # of connection points: 3
#     Node 10, Type 0, BuildingBlock: KAKCAD_clean_linker_0, # of connection points: 3
#     Node 11, Type 0, BuildingBlock: KAKCAD_clean_linker_0, # of connection points: 3
#     Node 12, Type 0, BuildingBlock: KAKCAD_clean_linker_0, # of connection points: 3
#     Node 13, Type 0, BuildingBlock: KAKCAD_clean_linker_0, # of connection points: 3
#     Node 14, Type 0, BuildingBlock: KAKCAD_clean_linker_0, # of connection points: 3
#     Node 15, Type 0, BuildingBlock: KAKCAD_clean_linker_0, # of connection points: 3
#     Node 16, Type 0, BuildingBlock: KAKCAD_clean_linker_0, # of connection points: 3
#     Node 17, Type 0, BuildingBlock: KAKCAD_clean_linker_0, # of connection points: 3
#     Node 18, Type 1, BuildingBlock: KUMBOL_clean_sbu_0, # of connection points: 6
#     Node 19, Type 1, BuildingBlock: KUMBOL_clean_sbu_0, # of connection points: 6
#     Node 20, Type 1, BuildingBlock: KUMBOL_clean_sbu_0, # of connection points: 6
#     Node 21, Type 1, BuildingBlock: KUMBOL_clean_sbu_0, # of connection points: 6
#     Node 22, Type 1, BuildingBlock: KUMBOL_clean_sbu_0, # of connection points: 6
#     Node 23, Type 1, BuildingBlock: KUMBOL_clean_sbu_0, # of connection points: 6
#     Node 24, Type 1, BuildingBlock: KUMBOL_clean_sbu_0, # of connection points: 6
#     Node 25, Type 1, BuildingBlock: KUMBOL_clean_sbu_0, # of connection points: 6
#     Node 26, Type 1, BuildingBlock: KUMBOL_clean_sbu_0, # of connection points: 6
#     Edge 27, Type (0, 1), BuildingBlock: AJUNOK_clean_linker_0, # of connection points: 2
#     Edge 28, Type (0, 1), BuildingBlock: AJUNOK_clean_linker_0, # of connection points: 2
#     Edge 29, Type (0, 1), BuildingBlock: AJUNOK_clean_linker_0, # of connection points: 2
#     Edge 30, Type (0, 1), BuildingBlock: AJUNOK_clean_linker_0, # of connection points: 2
#     Edge 31, Type (0, 1), BuildingBlock: AJUNOK_clean_linker_0, # of connection points: 2
#     Edge 32, Type (0, 1), BuildingBlock: AJUNOK_clean_linker_0, # of connection points: 2
#     Edge 33, Type (0, 1), BuildingBlock: AJUNOK_clean_linker_0, # of connection points: 2
#     Edge 34, Type (0, 1), BuildingBlock: AJUNOK_clean_linker_0, # of connection points: 2
#     Edge 35, Type (0, 1), BuildingBlock: AJUNOK_clean_linker_0, # of connection points: 2
#     Edge 36, Type (0, 1), BuildingBlock: AJUNOK_clean_linker_0, # of connection points: 2
#     Edge 37, Type (0, 1), BuildingBlock: AJUNOK_clean_linker_0, # of connection points: 2
#     Edge 38, Type (0, 1), BuildingBlock: AJUNOK_clean_linker_0, # of connection points: 2
#     Edge 39, Type (0, 1), BuildingBlock: AJUNOK_clean_linker_0, # of connection points: 2
#     Edge 40, Type (0, 1), BuildingBlock: AJUNOK_clean_linker_0, # of connection points: 2
#     Edge 41, Type (0, 1), BuildingBlock: AJUNOK_clean_linker_0, # of connection points: 2
#     Edge 42, Type (0, 1), BuildingBlock: AJUNOK_clean_linker_0, # of connection points: 2
#     Edge 43, Type (0, 1), BuildingBlock: AJUNOK_clean_linker_0, # of connection points: 2
#     Edge 44, Type (0, 1), BuildingBlock: AJUNOK_clean_linker_0, # of connection points: 2
#     Edge 45, Type (0, 1), BuildingBlock: AJUNOK_clean_linker_0, # of connection points: 2
#     Edge 46, Type (0, 1), BuildingBlock: AJUNOK_clean_linker_0, # of connection points: 2
#     Edge 47, Type (0, 1), BuildingBlock: AJUNOK_clean_linker_0, # of connection points: 2
#     Edge 48, Type (0, 1), BuildingBlock: AJUNOK_clean_linker_0, # of connection points: 2
#     Edge 49, Type (0, 1), BuildingBlock: AJUNOK_clean_linker_0, # of connection points: 2
#     Edge 50, Type (0, 1), BuildingBlock: AJUNOK_clean_linker_0, # of connection points: 2
#     Edge 51, Type (0, 1), BuildingBlock: AJUNOK_clean_linker_0, # of connection points: 2
#     Edge 52, Type (0, 1), BuildingBlock: AJUNOK_clean_linker_0, # of connection points: 2
#     Edge 53, Type (0, 1), BuildingBlock: AJUNOK_clean_linker_0, # of connection points: 2
#     Edge 54, Type (0, 1), BuildingBlock: AJUNOK_clean_linker_0, # of connection points: 2
#     Edge 55, Type (0, 1), BuildingBlock: AJUNOK_clean_linker_0, # of connection points: 2
#     Edge 56, Type (0, 1), BuildingBlock: AJUNOK_clean_linker_0, # of connection points: 2
#     Edge 57, Type (0, 1), BuildingBlock: AJUNOK_clean_linker_0, # of connection points: 2
#     Edge 58, Type (0, 1), BuildingBlock: AJUNOK_clean_linker_0, # of connection points: 2
#     Edge 59, Type (0, 1), BuildingBlock: AJUNOK_clean_linker_0, # of connection points: 2
#     Edge 60, Type (0, 1), BuildingBlock: AJUNOK_clean_linker_0, # of connection points: 2
#     Edge 61, Type (0, 1), BuildingBlock: AJUNOK_clean_linker_0, # of connection points: 2
#     Edge 62, Type (0, 1), BuildingBlock: AJUNOK_clean_linker_0, # of connection points: 2
#     Edge 63, Type (0, 1), BuildingBlock: AJUNOK_clean_linker_0, # of connection points: 2
#     Edge 64, Type (0, 1), BuildingBlock: AJUNOK_clean_linker_0, # of connection points: 2
#     Edge 65, Type (0, 1), BuildingBlock: AJUNOK_clean_linker_0, # of connection points: 2
#     Edge 66, Type (0, 1), BuildingBlock: AJUNOK_clean_linker_0, # of connection points: 2
#     Edge 67, Type (0, 1), BuildingBlock: AJUNOK_clean_linker_0, # of connection points: 2
#     Edge 68, Type (0, 1), BuildingBlock: AJUNOK_clean_linker_0, # of connection points: 2
#     Edge 69, Type (0, 1), BuildingBlock: AJUNOK_clean_linker_0, # of connection points: 2
#     Edge 70, Type (0, 1), BuildingBlock: AJUNOK_clean_linker_0, # of connection points: 2
#     Edge 71, Type (0, 1), BuildingBlock: AJUNOK_clean_linker_0, # of connection points: 2
#     Edge 72, Type (0, 1), BuildingBlock: AJUNOK_clean_linker_0, # of connection points: 2
#     Edge 73, Type (0, 1), BuildingBlock: AJUNOK_clean_linker_0, # of connection points: 2
#     Edge 74, Type (0, 1), BuildingBlock: AJUNOK_clean_linker_0, # of connection points: 2
#     Edge 75, Type (0, 1), BuildingBlock: AJUNOK_clean_linker_0, # of connection points: 2
#     Edge 76, Type (0, 1), BuildingBlock: AJUNOK_clean_linker_0, # of connection points: 2
#     Edge 77, Type (0, 1), BuildingBlock: AJUNOK_clean_linker_0, # of connection points: 2
#     Edge 78, Type (0, 1), BuildingBlock: AJUNOK_clean_linker_0, # of connection points: 2
#     Edge 79, Type (0, 1), BuildingBlock: AJUNOK_clean_linker_0, # of connection points: 2
#     Edge 80, Type (0, 1), BuildingBlock: AJUNOK_clean_linker_0, # of connection points: 2
# Relax obj value: 0.008
# Max RMSD: 0.088
# Mean RMSD: 0.071
data_MOF--net-eea--node1-KUMBOL_clean_sbu_0--node2-KAKCAD_clean_linker_0--edge1-AJUNOK_clean_linker_0
_symmetry_space_group_name_H-M    P1
_symmetry_Int_Tables_number       1
_symmetry_cell_setting            triclinic
loop_
_symmetry_equiv_pos_as_xyz
'x, y, z'
_cell_length_a     48.649385
_cell_length_b     49.952607
_cell_length_c     71.753865
_cell_angle_alpha  90.099946
_cell_angle_beta   89.926379
_cell_angle_gamma 120.00236
loop_
_atom_site_label
_atom_site_type_symbol
_atom_site_fract_x
_atom_site_fract_y
_atom_site_fract_z
_atom_type_partial_charge
C0 C 0.2862 0.16002 0.49992 0.0
C1 C 0.30579 0.14813 0.50514 0.0
C2 C 0.27189 0.1534 0.48233 0.0
C3 C 0.27724 0.13508 0.46952 0.0
C4 C 0.29669 0.123 0.47497 0.0
C5 C 0.31058 0.12926 0.49264 0.0
C6 C 0.26353 0.12929 0.45037 0.0
C7 C 0.26115 0.1525 0.44072 0.0
C8 C 0.2493 0.1476 0.42245 0.0
C9 C 0.24159 0.11971 0.41343 0.0
C10 C 0.24337 0.09577 0.42275 0.0
C11 C 0.25348 0.10074 0.4415 0.0
C12 C 0.23479 0.06586 0.41299 0.0
C13 C 0.21555 0.05638 0.39689 0.0
C14 C 0.2462 0.04652 0.41944 0.0
C15 C 0.23767 0.01845 0.41063 0.0
C16 C 0.21878 0.00936 0.39448 0.0
C17 C 0.24371 0.17103 0.41302 0.0
C18 C 0.23165 0.18707 0.42319 0.0
C19 C 0.24861 0.17638 0.3937 0.0
C20 C 0.24076 0.19649 0.38474 0.0
C21 C 0.22842 0.212 0.39496 0.0
C22 C 0.2243 0.20751 0.41425 0.0
C23 C 0.20869 0.02928 0.38747 0.0
H24 H 0.2819 0.17435 0.50947 0.0
H25 H 0.2566 0.16261 0.47882 0.0
H26 H 0.30188 0.10929 0.46543 0.0
H27 H 0.32576 0.12 0.49637 0.0
H28 H 0.26906 0.1747 0.4473 0.0
H29 H 0.25326 0.08234 0.44949 0.0
H30 H 0.23382 0.11682 0.39914 0.0
H31 H 0.20535 0.06954 0.39133 0.0
H32 H 0.262 0.0528 0.43125 0.0
H33 H 0.24598 0.00388 0.4166 0.0
H34 H 0.22704 0.18322 0.43799 0.0
H35 H 0.25844 0.16499 0.38546 0.0
H36 H 0.19555 0.02424 0.37457 0.0
H37 H 0.21475 0.21935 0.42232 0.0
H38 H 0.24435 0.19998 0.36983 0.0
C39 C 0.88012 0.17541 0.48752 0.0
C40 C 0.87404 0.15484 0.50241 0.0
C41 C 0.88886 0.16983 0.46998 0.0
C42 C 0.89126 0.14333 0.46687 0.0
C43 C 0.88592 0.1231 0.48176 0.0
C44 C 0.87784 0.12902 0.49941 0.0
C45 C 0.89757 0.13592 0.44788 0.0
C46 C 0.92416 0.15742 0.43772 0.0
C47 C 0.92944 0.15102 0.41932 0.0
C48 C 0.90751 0.1223 0.41136 0.0
C49 C 0.88075 0.10037 0.42141 0.0
C50 C 0.87612 0.10757 0.43968 0.0
C51 C 0.8571 0.07029 0.4128 0.0
C52 C 0.8493 0.06837 0.39375 0.0
C53 C 0.8415 0.04327 0.4237 0.0
C54 C 0.81835 0.01537 0.41589 0.0
C55 C 0.8107 0.0137 0.39695 0.0
C56 C 0.95741 0.17452 0.40838 0.0
C57 C 0.96909 0.20631 0.41115 0.0
C58 C 0.9728 0.16561 0.39514 0.0
C59 C 0.99888 0.18783 0.38496 0.0
C60 C 0.01056 0.21956 0.3879 0.0
C61 C 0.99551 0.2284 0.40133 0.0
C62 C 0.82655 0.04028 0.38588 0.0
H63 H 0.87731 0.19545 0.48928 0.0
H64 H 0.89267 0.18566 0.45867 0.0
H65 H 0.88798 0.10268 0.47972 0.0
H66 H 0.87452 0.11328 0.51067 0.0
H67 H 0.94089 0.17897 0.44439 0.0
H68 H 0.85512 0.09157 0.44742 0.0
H69 H 0.9111 0.11706 0.39723 0.0
H70 H 0.86028 0.08865 0.38494 0.0
H71 H 0.84727 0.04354 0.4383 0.0
H72 H 0.80667 0.99496 0.4246 0.0
H73 H 0.95783 0.21436 0.42092 0.0
H74 H 0.96508 0.14147 0.39278 0.0
H75 H 0.82092 0.0394 0.37121 0.0
H76 H 1.00444 0.25254 0.40457 0.0
H77 H 0.00998 0.18014 0.37483 0.0
C78 C 0.89416 0.73638 0.49597 0.0
C79 C 0.86289 0.71583 0.50169 0.0
C80 C 0.90039 0.74952 0.47811 0.0
C81 C 0.87551 0.74219 0.4654 0.0
C82 C 0.84417 0.72186 0.47133 0.0
C83 C 0.83795 0.70906 0.48926 0.0
C84 C 0.88216 0.7551 0.44597 0.0
C85 C 0.90937 0.75973 0.43626 0.0
C86 C 0.91568 0.77139 0.41793 0.0
C87 C 0.89352 0.77743 0.409 0.0
C88 C 0.86591 0.77287 0.41832 0.0
C89 C 0.86101 0.76233 0.43693 0.0
C90 C 0.84195 0.77877 0.40875 0.0
C91 C 0.85107 0.80241 0.39539 0.0
C92 C 0.80941 0.76066 0.41303 0.0
C93 C 0.78696 0.76654 0.40473 0.0
C94 C 0.79607 0.79035 0.39156 0.0
C95 C 0.94561 0.77742 0.40829 0.0
C96 C 0.97432 0.78982 0.41827 0.0
C97 C 0.94593 0.7708 0.38921 0.0
C98 C 0.97414 0.77639 0.38043 0.0
C99 C 1.00277 0.78894 0.39046 0.0
C100 C 1.00239 0.79531 0.40952 0.0
C101 C 0.82842 0.80791 0.38679 0.0
H102 H 0.91383 0.74235 0.50535 0.0
H103 H 0.92478 0.76553 0.47432 0.0
H104 H 0.82433 0.71515 0.46197 0.0
H105 H 0.81363 0.69312 0.49325 0.0
H106 H 0.92542 0.75352 0.44283 0.0
H107 H 0.84083 0.76019 0.44458 0.0
H108 H 0.89787 0.78574 0.39479 0.0
H109 H 0.87578 0.81708 0.3917 0.0
H110 H 0.80104 0.74169 0.4228 0.0
H111 H 0.76236 0.75253 0.40886 0.0
H112 H 0.97522 0.79553 0.43291 0.0
H113 H 0.92428 0.76085 0.3811 0.0
H114 H 0.83634 0.82588 0.37634 0.0
H115 H 0.0238 0.80425 0.4178 0.0
H116 H 0.97362 0.77106 0.36575 0.0
C117 C 0.1602 0.2585 0.53541 0.0
C118 C 0.15155 0.28008 0.52949 0.0
C119 C 0.1522 0.24553 0.5533 0.0
C120 C 0.13577 0.25416 0.56595 0.0
C121 C 0.127 0.27571 0.55989 0.0
C122 C 0.13466 0.28836 0.5419 0.0
C123 C 0.12851 0.24139 0.58545 0.0
C124 C 0.14985 0.23499 0.5951 0.0
C125 C 0.14375 0.22374 0.61351 0.0
C126 C 0.11581 0.21884 0.62239 0.0
C127 C 0.09399 0.22487 0.61313 0.0
C128 C 0.10056 0.23606 0.59468 0.0
C129 C 0.06447 0.21974 0.6228 0.0
C130 C 0.04612 0.193 0.63355 0.0
C131 C 0.05443 0.24164 0.6214 0.0
C132 C 0.02684 0.23695 0.63047 0.0
C133 C 0.00845 0.21017 0.64112 0.0
C134 C 0.16696 0.21769 0.62357 0.0
C135 C 0.17986 0.20115 0.61489 0.0
C136 C 0.17685 0.22887 0.64179 0.0
C137 C 0.19976 0.2244 0.65087 0.0
C138 C 0.21292 0.20825 0.64205 0.0
C139 C 0.20238 0.19628 0.62409 0.0
C140 C 0.01833 0.18818 0.64248 0.0
H141 H 0.17314 0.25159 0.52614 0.0
H142 H 0.1589 0.22863 0.55717 0.0
H143 H 0.11492 0.28353 0.56919 0.0
H144 H 0.12819 0.30538 0.53789 0.0
H145 H 0.17189 0.23973 0.58854 0.0
H146 H 0.08343 0.23999 0.58737 0.0
H147 H 0.11112 0.21041 0.63661 0.0
H148 H 0.05297 0.17552 0.6348 0.0
H149 H 0.06807 0.26259 0.61338 0.0
H150 H 0.01956 0.25407 0.62887 0.0
H151 H 0.17253 0.192 0.60094 0.0
H152 H 0.16748 0.24181 0.64883 0.0
H153 H 1.00456 0.16726 0.65052 0.0
H154 H 0.21225 0.18386 0.61694 0.0
H155 H 0.20741 0.23378 0.66474 0.0
C156 C 0.6893 0.83118 0.54341 0.0
C157 C 0.69779 0.85614 0.53127 0.0
C158 C 0.70217 0.83614 0.56136 0.0
C159 C 0.72399 0.8662 0.56755 0.0
C160 C 0.73244 0.89113 0.5553 0.0
C161 C 0.71933 0.88616 0.53742 0.0
C162 C 0.73818 0.87156 0.58658 0.0
C163 C 0.74673 0.85082 0.59431 0.0
C164 C 0.76113 0.85629 0.61198 0.0
C165 C 0.76739 0.88309 0.62177 0.0
C166 C 0.75874 0.90379 0.61445 0.0
C167 C 0.74386 0.89779 0.59698 0.0
C168 C 0.76639 0.93222 0.62494 0.0
C169 C 0.74296 0.94015 0.62856 0.0
C170 C 0.7974 0.95154 0.63149 0.0
C171 C 0.80505 0.97865 0.64115 0.0
C172 C 0.7817 0.98664 0.6447 0.0
C173 C 0.7699 0.83432 0.62031 0.0
C174 C 0.78266 0.8199 0.60925 0.0
C175 C 0.766 0.82797 0.63956 0.0
C176 C 0.77478 0.80789 0.64754 0.0
C177 C 0.78718 0.79335 0.63643 0.0
C178 C 0.79111 0.79952 0.61723 0.0
C179 C 0.75053 0.9671 0.63851 0.0
H180 H 0.67227 0.80784 0.53912 0.0
H181 H 0.69464 0.81643 0.57047 0.0
H182 H 0.74957 0.91453 0.5594 0.0
H183 H 0.72635 0.90579 0.52829 0.0
H184 H 0.74232 0.83046 0.58653 0.0
H185 H 0.73714 0.91386 0.59141 0.0
H186 H 0.77921 0.88806 0.63518 0.0
H187 H 0.71885 0.92549 0.62373 0.0
H188 H 0.81591 0.946 0.62878 0.0
H189 H 0.8293 0.99363 0.64567 0.0
H190 H 0.78654 0.82465 0.59446 0.0
H191 H 0.75575 0.83823 0.64847 0.0
H192 H 0.73231 0.97315 0.64091 0.0
H193 H 0.80094 0.78873 0.60843 0.0
H194 H 0.7713 0.80321 0.66236 0.0
C195 C 0.11029 0.84247 0.5339 0.0
C196 C 0.14184 0.85444 0.52803 0.0
C197 C 0.10355 0.84877 0.55186 0.0
C198 C 0.12825 0.86672 0.56447 0.0
C199 C 0.15982 0.87828 0.55848 0.0
C200 C 0.16649 0.87243 0.54048 0.0
C201 C 0.1215 0.87311 0.58386 0.0
C202 C 0.09483 0.851 0.59386 0.0
C203 C 0.08975 0.85644 0.61246 0.0
C204 C 0.11196 0.88403 0.62123 0.0
C205 C 0.13839 0.90686 0.61144 0.0
C206 C 0.14245 0.9013 0.59267 0.0
C207 C 0.16182 0.93642 0.62075 0.0
C208 C 0.15214 0.95013 0.6345 0.0
C209 C 0.1942 0.95136 0.61587 0.0
C210 C 0.21606 0.9793 0.62424 0.0
C211 C 0.20643 0.99271 0.63816 0.0
C212 C 0.06103 0.83343 0.62273 0.0
C213 C 0.03079 0.82175 0.61477 0.0
C214 C 0.06353 0.82348 0.64066 0.0
C215 C 0.03633 0.80194 0.65031 0.0
C216 C 1.00613 0.79051 0.64237 0.0
C217 C 1.00361 0.80066 0.62454 0.0
C218 C 0.17417 0.97772 0.64319 0.0
H219 H 0.09088 0.82847 0.52452 0.0
H220 H 0.07897 0.83975 0.55576 0.0
H221 H 0.17956 0.89143 0.56782 0.0
H222 H 0.19101 0.88142 0.53639 0.0
H223 H 0.07838 0.82909 0.58744 0.0
H224 H 0.16187 0.91921 0.58475 0.0
H225 H 0.10839 0.88766 0.63571 0.0
H226 H 0.12743 0.93984 0.63846 0.0
H227 H 0.20289 0.9415 0.60559 0.0
H228 H 0.24048 0.99057 0.61956 0.0
H229 H 0.02816 0.82918 0.60104 0.0
H230 H 0.08656 0.83202 0.6471 0.0
H231 H 0.16586 0.98732 0.65387 0.0
H232 H 0.9806 0.79179 0.618 0.0
H233 H 0.03884 0.79423 0.66398 0.0
C234 C 0.95309 0.48961 0.83031 0.0
C235 C 0.97493 0.48017 0.83501 0.0
C236 C 0.93975 0.48385 0.81249 0.0
C237 C 0.94841 0.46896 0.79894 0.0
C238 C 0.97002 0.4592 0.8039 0.0
C239 C 0.98291 0.46452 0.82179 0.0
C240 C 0.93627 0.46476 0.77949 0.0
C241 C 0.93164 0.48746 0.77094 0.0
C242 C 0.92246 0.48455 0.75222 0.0
C243 C 0.91901 0.45936 0.74174 0.0
C244 C 0.92205 0.43551 0.75014 0.0
C245 C 0.93016 0.43837 0.76919 0.0
C246 C 0.91579 0.40731 0.73931 0.0
C247 C 0.89546 0.39748 0.72371 0.0
C248 C 0.92948 0.38942 0.74468 0.0
C249 C 0.92144 0.36172 0.73561 0.0
C250 C 0.90054 0.35165 0.72034 0.0
C251 C 0.91454 0.50683 0.74384 0.0
C252 C 0.89189 0.51234 0.75246 0.0
C253 C 0.92796 0.52124 0.72678 0.0
C254 C 0.91875 0.5408 0.71845 0.0
C255 C 0.89556 0.54561 0.72688 0.0
C256 C 0.88229 0.53141 0.74396 0.0
C257 C 0.88875 0.3706 0.71407 0.0
H258 H 0.94643 0.50147 0.84044 0.0
H259 H 0.92274 0.49115 0.80933 0.0
H260 H 0.97777 0.44821 0.79381 0.0
H261 H 0.99989 0.45724 0.82514 0.0
H262 H 0.93576 0.50782 0.77863 0.0
H263 H 0.93123 0.41984 0.77628 0.0
H264 H 0.91318 0.45829 0.72712 0.0
H265 H 0.88392 0.40993 0.71898 0.0
H266 H 0.94627 0.39644 0.75605 0.0
H267 H 0.9312 0.34791 0.74086 0.0
H268 H 0.88101 0.50121 0.76552 0.0
H269 H 0.94547 0.51729 0.71992 0.0
H270 H 0.87388 0.36458 0.7018 0.0
H271 H 0.86447 0.53507 0.75067 0.0
H272 H 0.92926 0.55171 0.70527 0.0
C273 C 0.54849 0.50697 0.82466 0.0
C274 C 0.53196 0.4828 0.83741 0.0
C275 C 0.55753 0.50115 0.80724 0.0
C276 C 0.55048 0.47106 0.80232 0.0
C277 C 0.53523 0.44726 0.81554 0.0
C278 C 0.52595 0.45303 0.83282 0.0
C279 C 0.55728 0.46404 0.78318 0.0
C280 C 0.58507 0.48486 0.77356 0.0
C281 C 0.59069 0.47871 0.75516 0.0
C282 C 0.56836 0.45067 0.74673 0.0
C283 C 0.54065 0.42931 0.75621 0.0
C284 C 0.53519 0.43655 0.77426 0.0
C285 C 0.51705 0.39952 0.74732 0.0
C286 C 0.5102 0.39784 0.72815 0.0
C287 C 0.50082 0.37244 0.75811 0.0
C288 C 0.47798 0.34467 0.75004 0.0
C289 C 0.47118 0.34321 0.73097 0.0
C290 C 0.61925 0.50195 0.74456 0.0
C291 C 0.63108 0.53378 0.7472 0.0
C292 C 0.63455 0.49273 0.73146 0.0
C293 C 0.66053 0.51471 0.72111 0.0
C294 C 0.67206 0.54647 0.72371 0.0
C295 C 0.65731 0.55565 0.73713 0.0
C296 C 0.48768 0.36988 0.72003 0.0
H297 H 0.55339 0.53013 0.8279 0.0
H298 H 0.56898 0.52 0.79741 0.0
H299 H 0.53011 0.42398 0.81245 0.0
H300 H 0.51378 0.43413 0.84257 0.0
H301 H 0.60252 0.50573 0.78054 0.0
H302 H 0.5131 0.42104 0.78124 0.0
H303 H 0.57238 0.44552 0.73267 0.0
H304 H 0.52179 0.41821 0.71943 0.0
H305 H 0.50592 0.37256 0.7728 0.0
H306 H 0.46588 0.32421 0.75866 0.0
H307 H 0.61991 0.542 0.75692 0.0
H308 H 0.62668 0.46852 0.72925 0.0
H309 H 0.48272 0.36919 0.70527 0.0
H310 H 0.66621 0.57988 0.74006 0.0
H311 H 0.67151 0.50682 0.71102 0.0
C312 C 0.56274 0.07002 0.82767 0.0
C313 C 0.53147 0.05187 0.83431 0.0
C314 C 0.56874 0.08359 0.80995 0.0
C315 C 0.54366 0.07853 0.79793 0.0
C316 C 0.51238 0.06023 0.80461 0.0
C317 C 0.50645 0.04754 0.82254 0.0
C318 C 0.54985 0.0913 0.7784 0.0
C319 C 0.57718 0.09655 0.76853 0.0
C320 C 0.58265 0.10762 0.75011 0.0
C321 C 0.55968 0.11217 0.74106 0.0
C322 C 0.53215 0.10732 0.75054 0.0
C323 C 0.52811 0.09776 0.76933 0.0
C324 C 0.50745 0.11211 0.74103 0.0
C325 C 0.51568 0.13525 0.72743 0.0
C326 C 0.47513 0.09354 0.74567 0.0
C327 C 0.45202 0.0986 0.73755 0.0
C328 C 0.46026 0.12202 0.72422 0.0
C329 C 0.61302 0.11532 0.74068 0.0
C330 C 0.64202 0.13422 0.74978 0.0
C331 C 0.61349 0.104 0.72277 0.0
C332 C 0.64241 0.11108 0.71431 0.0
C333 C 0.67131 0.13008 0.72347 0.0
C334 C 0.6708 0.14171 0.74121 0.0
C335 C 0.49237 0.13992 0.71901 0.0
H336 H 0.58276 0.07322 0.83592 0.0
H337 H 0.59323 0.0979 0.80574 0.0
H338 H 0.49215 0.05493 0.7959 0.0
H339 H 0.48202 0.03393 0.82709 0.0
H340 H 0.59422 0.09153 0.77494 0.0
H341 H 0.50807 0.09582 0.77703 0.0
H342 H 0.56354 0.11977 0.72668 0.0
H343 H 0.5402 0.15019 0.72345 0.0
H344 H 0.46748 0.07491 0.75565 0.0
H345 H 0.42761 0.08435 0.74199 0.0
H346 H 0.64242 0.14347 0.76351 0.0
H347 H 0.5915 0.08932 0.71546 0.0
H348 H 0.49958 0.15759 0.70842 0.0
H349 H 0.69277 0.15636 0.74857 0.0
H350 H 0.64226 0.10195 0.70057 0.0
C351 C 0.82302 0.58574 0.86746 0.0
C352 C 0.81547 0.60837 0.86211 0.0
C353 C 0.81486 0.57219 0.8852 0.0
C354 C 0.79906 0.581 0.89819 0.0
C355 C 0.79078 0.6031 0.89258 0.0
C356 C 0.79873 0.61646 0.87477 0.0
C357 C 0.79237 0.56813 0.91765 0.0
C358 C 0.81435 0.56229 0.92699 0.0
C359 C 0.80929 0.55163 0.94553 0.0
C360 C 0.78181 0.54697 0.9549 0.0
C361 C 0.75912 0.55201 0.94585 0.0
C362 C 0.76458 0.56245 0.92722 0.0
C363 C 0.72981 0.54657 0.9559 0.0
C364 C 0.69982 0.53005 0.94736 0.0
C365 C 0.73162 0.55812 0.97405 0.0
C366 C 0.70425 0.55398 0.98321 0.0
C367 C 0.67439 0.5378 0.97455 0.0
C368 C 0.83296 0.54564 0.95508 0.0
C369 C 0.84514 0.52873 0.94607 0.0
C370 C 0.84407 0.55727 0.97307 0.0
C371 C 0.86752 0.55294 0.98158 0.0
C372 C 0.87999 0.53644 0.9724 0.0
C373 C 0.86818 0.52397 0.95469 0.0
C374 C 0.67242 0.5255 0.95665 0.0
H375 H 0.83537 0.57855 0.85791 0.0
H376 H 0.82104 0.55478 0.88872 0.0
H377 H 0.779 0.61089 0.90215 0.0
H378 H 0.79269 0.63391 0.8711 0.0
H379 H 0.83614 0.56704 0.92007 0.0
H380 H 0.74719 0.5664 0.92024 0.0
H381 H 0.77764 0.53858 0.96913 0.0
H382 H 0.69755 0.52058 0.93349 0.0
H383 H 0.75433 0.57103 0.98099 0.0
H384 H 0.70644 0.56362 0.99702 0.0
H385 H 0.83686 0.51921 0.93229 0.0
H386 H 0.83526 0.57047 0.98036 0.0
H387 H 0.64972 0.51306 0.94962 0.0
H388 H 0.87748 0.51128 0.94729 0.0
H389 H 0.87616 0.5627 0.99526 0.0
C390 C 0.34973 0.15618 0.87969 0.0
C391 C 0.36435 0.17642 0.86468 0.0
C392 C 0.36443 0.16269 0.89719 0.0
C393 C 0.39365 0.18988 0.90001 0.0
C394 C 0.40823 0.21004 0.88492 0.0
C395 C 0.39382 0.20323 0.86736 0.0
C396 C 0.40868 0.19775 0.91871 0.0
C397 C 0.4137 0.17641 0.92874 0.0
C398 C 0.42957 0.18469 0.94598 0.0
C399 C 0.43956 0.2142 0.95336 0.0
C400 C 0.43379 0.23547 0.94384 0.0
C401 C 0.41857 0.22706 0.92641 0.0
C402 C 0.44341 0.26627 0.95218 0.0
C403 C 0.44055 0.26932 0.9715 0.0
C404 C 0.45523 0.29281 0.94092 0.0
C405 C 0.46344 0.32151 0.94874 0.0
C406 C 0.4603 0.32433 0.96798 0.0
C407 C 0.43688 0.16311 0.95607 0.0
C408 C 0.41309 0.13247 0.95961 0.0
C409 C 0.46794 0.17326 0.96231 0.0
C410 C 0.47522 0.15305 0.97161 0.0
C411 C 0.45148 0.12247 0.97515 0.0
C412 C 0.4203 0.11236 0.96922 0.0
C413 C 0.44912 0.29809 0.97932 0.0
H414 H 0.32694 0.13538 0.87785 0.0
H415 H 0.35265 0.14687 0.90862 0.0
H416 H 0.43086 0.23104 0.8867 0.0
H417 H 0.40542 0.21913 0.85594 0.0
H418 H 0.40642 0.15386 0.9228 0.0
H419 H 0.41368 0.24304 0.91893 0.0
H420 H 0.45197 0.22058 0.96659 0.0
H421 H 0.43108 0.24937 0.98058 0.0
H422 H 0.45837 0.29151 0.92607 0.0
H423 H 0.47244 0.34158 0.93976 0.0
H424 H 0.38894 0.12416 0.95503 0.0
H425 H 0.48676 0.1967 0.95965 0.0
H426 H 0.44636 0.29974 0.99419 0.0
H427 H 0.40173 0.08871 0.97161 0.0
H428 H 0.49947 0.16123 0.97594 0.0
C429 C 0.78438 0.17205 0.86351 0.0
C430 C 0.81524 0.17784 0.85956 0.0
C431 C 0.77672 0.17839 0.88125 0.0
C432 C 0.79981 0.19096 0.8954 0.0
C433 C 0.83051 0.19637 0.89147 0.0
C434 C 0.83808 0.18989 0.87384 0.0
C435 C 0.79242 0.19926 0.91405 0.0
C436 C 0.76389 0.17927 0.92345 0.0
C437 C 0.75764 0.18682 0.94132 0.0
C438 C 0.7797 0.21518 0.94944 0.0
C439 C 0.80803 0.23546 0.94024 0.0
C440 C 0.81439 0.22726 0.9227 0.0
C441 C 0.83115 0.26518 0.94906 0.0
C442 C 0.82235 0.28719 0.95364 0.0
C443 C 0.86207 0.27159 0.95307 0.0
C444 C 0.88383 0.2995 0.96157 0.0
C445 C 0.87546 0.32209 0.96574 0.0
C446 C 0.72876 0.16476 0.95193 0.0
C447 C 0.69855 0.15084 0.94364 0.0
C448 C 0.73135 0.1575 0.97056 0.0
C449 C 0.70443 0.13644 0.98057 0.0
C450 C 0.67426 0.12264 0.97231 0.0
C451 C 0.67153 0.13016 0.95379 0.0
C452 C 0.84433 0.31545 0.96174 0.0
H453 H 0.76633 0.16334 0.85277 0.0
H454 H 0.75294 0.17424 0.88373 0.0
H455 H 0.84876 0.20554 0.90209 0.0
H456 H 0.86196 0.19425 0.8714 0.0
H457 H 0.74713 0.1573 0.9172 0.0
H458 H 0.83625 0.24312 0.91561 0.0
H459 H 0.77498 0.22138 0.96308 0.0
H460 H 0.79859 0.28272 0.95067 0.0
H461 H 0.86922 0.25472 0.9499 0.0
H462 H 0.9071 0.30316 0.96507 0.0
H463 H 0.69581 0.15608 0.92936 0.0
H464 H 0.75434 0.16767 0.97727 0.0
H465 H 0.83702 0.33225 0.96464 0.0
H466 H 0.64856 0.11946 0.94702 0.0
H467 H 0.70717 0.13083 0.99478 0.0
C468 C 0.62745 0.8289 0.1659 0.0
C469 C 0.64806 0.81817 0.17104 0.0
C470 C 0.6123 0.82103 0.14857 0.0
C471 C 0.61777 0.80257 0.13595 0.0
C472 C 0.63842 0.79182 0.14125 0.0
C473 C 0.65319 0.79934 0.15868 0.0
C474 C 0.60238 0.79485 0.11725 0.0
C475 C 0.59813 0.8167 0.10728 0.0
C476 C 0.58372 0.8097 0.08961 0.0
C477 C 0.57483 0.7808 0.08157 0.0
C478 C 0.5792 0.75864 0.09115 0.0
C479 C 0.59227 0.76573 0.10918 0.0
C480 C 0.57068 0.72841 0.08224 0.0
C481 C 0.54514 0.71405 0.06965 0.0
C482 C 0.58849 0.71385 0.08599 0.0
C483 C 0.58095 0.68584 0.07749 0.0
C484 C 0.55612 0.67208 0.06447 0.0
C485 C 0.57739 0.83232 0.07975 0.0
C486 C 0.56808 0.85068 0.08986 0.0
C487 C 0.57966 0.8352 0.06019 0.0
C488 C 0.57216 0.85539 0.05101 0.0
C489 C 0.56286 0.87347 0.06121 0.0
C490 C 0.56118 0.87124 0.08068 0.0
C491 C 0.5382 0.68647 0.06074 0.0
H492 H 0.62287 0.84314 0.17536 0.0
H493 H 0.59611 0.82924 0.14515 0.0
H494 H 0.64368 0.77803 0.13182 0.0
H495 H 0.66915 0.79096 0.16236 0.0
H496 H 0.60664 0.83951 0.11313 0.0
H497 H 0.59424 0.74836 0.11713 0.0
H498 H 0.56442 0.77556 0.0678 0.0
H499 H 0.53027 0.72394 0.06667 0.0
H500 H 0.6086 0.72418 0.09536 0.0
H501 H 0.59457 0.67492 0.08125 0.0
H502 H 0.56544 0.84874 0.10486 0.0
H503 H 0.58734 0.82197 0.05194 0.0
H504 H 0.51885 0.67652 0.05082 0.0
H505 H 0.55385 0.88495 0.08875 0.0
H506 H 0.5738 0.85704 0.03595 0.0
C507 C 0.21285 0.83975 0.15527 0.0
C508 C 0.19589 0.81514 0.1677 0.0
C509 C 0.22094 0.83429 0.13746 0.0
C510 C 0.21241 0.80411 0.1318 0.0
C511 C 0.19685 0.77982 0.14468 0.0
C512 C 0.18861 0.78526 0.16237 0.0
C513 C 0.218 0.79751 0.11228 0.0
C514 C 0.24626 0.81741 0.10273 0.0
C515 C 0.25114 0.81132 0.08414 0.0
C516 C 0.2273 0.78427 0.07545 0.0
C517 C 0.19913 0.76372 0.08489 0.0
C518 C 0.19456 0.77103 0.10311 0.0
C519 C 0.17476 0.73418 0.07601 0.0
C520 C 0.16863 0.73241 0.05673 0.0
C521 C 0.15787 0.70714 0.08679 0.0
C522 C 0.13582 0.67917 0.07852 0.0
C523 C 0.13053 0.67746 0.05927 0.0
C524 C 0.28106 0.83302 0.07387 0.0
C525 C 0.29709 0.86499 0.07762 0.0
C526 C 0.29399 0.82212 0.06022 0.0
C527 C 0.32176 0.84249 0.05058 0.0
C528 C 0.3379 0.87434 0.05454 0.0
C529 C 0.32529 0.88519 0.06835 0.0
C530 C 0.14695 0.70426 0.04843 0.0
H531 H 0.21876 0.86303 0.15907 0.0
H532 H 0.23278 0.85352 0.1279 0.0
H533 H 0.19062 0.75641 0.141 0.0
H534 H 0.17612 0.76598 0.17184 0.0
H535 H 0.26471 0.83728 0.11 0.0
H536 H 0.17231 0.75623 0.11015 0.0
H537 H 0.23068 0.77902 0.06129 0.0
H538 H 0.18059 0.75272 0.04799 0.0
H539 H 0.16229 0.70726 0.10158 0.0
H540 H 0.12368 0.65862 0.08707 0.0
H541 H 0.28796 0.87464 0.08776 0.0
H542 H 0.28308 0.79771 0.0571 0.0
H543 H 0.14316 0.70332 0.03351 0.0
H544 H 0.33752 0.90929 0.07241 0.0
H545 H 0.33075 0.83318 0.04012 0.0
C546 C 0.22906 0.415 0.16265 0.0
C547 C 0.19977 0.38843 0.16677 0.0
C548 C 0.2361 0.42696 0.14445 0.0
C549 C 0.21378 0.41301 0.13003 0.0
C550 C 0.18457 0.38657 0.13415 0.0
C551 C 0.17774 0.37438 0.15219 0.0
C552 C 0.22041 0.42584 0.11072 0.0
C553 C 0.24882 0.43294 0.10155 0.0
C554 C 0.25387 0.44267 0.0828 0.0
C555 C 0.23014 0.44567 0.07336 0.0
C556 C 0.20182 0.43957 0.08243 0.0
C557 C 0.19745 0.42976 0.10116 0.0
C558 C 0.17676 0.44335 0.07252 0.0
C559 C 0.18479 0.4664 0.05889 0.0
C560 C 0.14439 0.42424 0.07692 0.0
C561 C 0.12107 0.42885 0.06862 0.0
C562 C 0.12916 0.4523 0.05533 0.0
C563 C 0.28356 0.44884 0.07295 0.0
C564 C 0.31334 0.46617 0.0816 0.0
C565 C 0.28232 0.43688 0.05499 0.0
C566 C 0.31006 0.44142 0.04614 0.0
C567 C 0.33971 0.45829 0.05496 0.0
C568 C 0.3411 0.47103 0.07265 0.0
C569 C 0.1613 0.47056 0.05027 0.0
H570 H 0.24634 0.42696 0.17354 0.0
H571 H 0.2587 0.44753 0.14174 0.0
H572 H 0.16702 0.37504 0.12331 0.0
H573 H 0.15515 0.35367 0.15469 0.0
H574 H 0.26646 0.42964 0.10877 0.0
H575 H 0.17625 0.42551 0.10859 0.0
H576 H 0.23382 0.45271 0.05888 0.0
H577 H 0.2093 0.48177 0.05508 0.0
H578 H 0.13685 0.40561 0.08688 0.0
H579 H 0.09664 0.41427 0.07293 0.0
H580 H 0.31518 0.47596 0.09534 0.0
H581 H 0.25978 0.42329 0.04797 0.0
H582 H 0.16844 0.48821 0.03967 0.0
H583 H 0.36362 0.48404 0.0798 0.0
H584 H 0.30832 0.4315 0.03245 0.0
C585 C 0.4858 0.92723 0.20229 0.0
C586 C 0.48536 0.95476 0.19908 0.0
C587 C 0.47916 0.91371 0.22009 0.0
C588 C 0.47124 0.92711 0.23492 0.0
C589 C 0.47043 0.95445 0.23155 0.0
C590 C 0.47772 0.96827 0.2139 0.0
C591 C 0.46422 0.91312 0.25396 0.0
C592 C 0.48531 0.90569 0.26282 0.0
C593 C 0.48016 0.895 0.28137 0.0
C594 C 0.45311 0.89127 0.29092 0.0
C595 C 0.43092 0.89751 0.28215 0.0
C596 C 0.43697 0.90847 0.2636 0.0
C597 C 0.40158 0.89274 0.29221 0.0
C598 C 0.38653 0.86952 0.30586 0.0
C599 C 0.38795 0.91116 0.28806 0.0
C600 C 0.35978 0.90583 0.29664 0.0
C601 C 0.3445 0.88236 0.31004 0.0
C602 C 0.50363 0.88865 0.29091 0.0
C603 C 0.51563 0.87156 0.28192 0.0
C604 C 0.51482 0.90027 0.3089 0.0
C605 C 0.53809 0.89571 0.31744 0.0
C606 C 0.5504 0.87905 0.3083 0.0
C607 C 0.53855 0.8666 0.29059 0.0
C608 C 0.3587 0.8647 0.3148 0.0
H609 H 0.49175 0.91645 0.19108 0.0
H610 H 0.4799 0.89262 0.22224 0.0
H611 H 0.46468 0.96548 0.24271 0.0
H612 H 0.47726 0.98951 0.21178 0.0
H613 H 0.5065 0.90951 0.25553 0.0
H614 H 0.42023 0.91303 0.25636 0.0
H615 H 0.44952 0.88356 0.30527 0.0
H616 H 0.39583 0.85456 0.3095 0.0
H617 H 0.39896 0.92991 0.27814 0.0
H618 H 0.34972 0.91994 0.29247 0.0
H619 H 0.50733 0.86206 0.26814 0.0
H620 H 0.50622 0.91367 0.31617 0.0
H621 H 0.34839 0.84707 0.32545 0.0
H622 H 0.54771 0.85377 0.2832 0.0
H623 H 0.54672 0.90545 0.33113 0.0
C624 C 0.02977 0.49379 0.2059 0.0
C625 C 0.03414 0.51764 0.19371 0.0
C626 C 0.04479 0.50061 0.2233 0.0
C627 C 0.06514 0.53146 0.2288 0.0
C628 C 0.07009 0.55521 0.21633 0.0
C629 C 0.05461 0.5484 0.19914 0.0
C630 C 0.0814 0.5391 0.24732 0.0
C631 C 0.09151 0.51987 0.25548 0.0
C632 C 0.10804 0.52803 0.27245 0.0
C633 C 0.11508 0.5558 0.28124 0.0
C634 C 0.10454 0.57502 0.27366 0.0
C635 C 0.08731 0.56615 0.25686 0.0
C636 C 0.11152 0.60432 0.2832 0.0
C637 C 0.11219 0.60642 0.30278 0.0
C638 C 0.1178 0.6306 0.27275 0.0
C639 C 0.12421 0.65803 0.28161 0.0
C640 C 0.12501 0.66013 0.30116 0.0
C641 C 0.11725 0.50715 0.28143 0.0
C642 C 0.09391 0.47915 0.28911 0.0
C643 C 0.14931 0.51562 0.28306 0.0
C644 C 0.15792 0.49616 0.29219 0.0
C645 C 0.13463 0.46831 0.3003 0.0
C646 C 0.1025 0.46003 0.29858 0.0
C647 C 0.11918 0.63407 0.31164 0.0
H648 H 0.01492 0.46979 0.20198 0.0
H649 H 0.04012 0.48162 0.23248 0.0
H650 H 0.08618 0.57922 0.21974 0.0
H651 H 0.05854 0.56738 0.19014 0.0
H652 H 0.08725 0.49885 0.24855 0.0
H653 H 0.07797 0.58014 0.25133 0.0
H654 H 0.12863 0.56219 0.29407 0.0
H655 H 0.10714 0.58665 0.31135 0.0
H656 H 0.11817 0.6302 0.25767 0.0
H657 H 0.12851 0.67765 0.27311 0.0
H658 H 0.06904 0.4724 0.2881 0.0
H659 H 0.16763 0.53715 0.27713 0.0
H660 H 0.12041 0.63508 0.32671 0.0
H661 H 0.08396 0.43888 0.30474 0.0
H662 H 0.18276 0.50281 0.29266 0.0
C663 C 0.45158 0.50833 0.20103 0.0
C664 C 0.48323 0.51939 0.19569 0.0
C665 C 0.44443 0.51549 0.21864 0.0
C666 C 0.46878 0.53342 0.23145 0.0
C667 C 0.50043 0.54384 0.22608 0.0
C668 C 0.50754 0.53713 0.20839 0.0
C669 C 0.46145 0.54152 0.25024 0.0
C670 C 0.43376 0.52072 0.26009 0.0
C671 C 0.4274 0.5282 0.27793 0.0
C672 C 0.44881 0.55692 0.28587 0.0
C673 C 0.47641 0.57785 0.27631 0.0
C674 C 0.48255 0.57013 0.25859 0.0
C675 C 0.49934 0.60763 0.28503 0.0
C676 C 0.49033 0.62943 0.28973 0.0
C677 C 0.53042 0.61428 0.28875 0.0
C678 C 0.5522 0.6423 0.29707 0.0
C679 C 0.54365 0.6647 0.30133 0.0
C680 C 0.3989 0.50573 0.28859 0.0
C681 C 0.36872 0.49124 0.28027 0.0
C682 C 0.40177 0.49853 0.30718 0.0
C683 C 0.37511 0.47676 0.31709 0.0
C684 C 0.34504 0.46218 0.3087 0.0
C685 C 0.34199 0.46987 0.29029 0.0
C686 C 0.51234 0.65781 0.29765 0.0
H687 H 0.43241 0.49455 0.19145 0.0
H688 H 0.41982 0.50734 0.22207 0.0
H689 H 0.51988 0.55693 0.2356 0.0
H690 H 0.53211 0.54543 0.20472 0.0
H691 H 0.41762 0.49822 0.25423 0.0
H692 H 0.50367 0.58686 0.25124 0.0
H693 H 0.44416 0.56292 0.29959 0.0
H694 H 0.46643 0.6247 0.28696 0.0
H695 H 0.53769 0.59754 0.28548 0.0
H696 H 0.57565 0.64622 0.30034 0.0
H697 H 0.3658 0.49652 0.26602 0.0
H698 H 0.42477 0.50924 0.31391 0.0
H699 H 0.50493 0.6745 0.30068 0.0
H700 H 0.31902 0.45868 0.28351 0.0
H701 H 0.37799 0.47108 0.33125 0.0
Gd702 Gd 0.51937 0.0171 0.03922 0.0
Gd703 Gd 0.49958 0.97947 0.99322 0.0
C704 C 0.40178 0.8938 0.98787 0.0
C705 C 0.41479 0.85341 0.98222 0.0
C706 C 0.4568 0.90668 0.98645 0.0
C707 C 0.43442 0.91568 0.98899 0.0
C708 C 0.44727 0.87561 0.98242 0.0
C709 C 0.39208 0.86248 0.985 0.0
C710 C 0.37995 0.90425 0.98898 0.0
C711 C 0.39096 0.93591 0.9904 0.0
N712 N 0.44461 0.94615 0.99142 0.0
C713 C 0.42362 0.95671 0.99143 0.0
H714 H 0.43201 0.98114 0.99258 0.0
C715 C 0.51071 0.92182 0.98141 0.0
N716 N 0.48793 0.92873 0.98668 0.0
C717 C 0.50245 0.89131 0.97732 0.0
C718 C 0.47062 0.86802 0.97806 0.0
H719 H 0.53532 0.93987 0.98075 0.0
H720 H 0.36709 0.84526 0.9843 0.0
H721 H 0.59157 0.02248 0.04414 0.0
H722 H 0.35465 0.88819 0.98821 0.0
H723 H 0.37432 0.94431 0.99084 0.0
H724 H 0.40699 0.82934 0.9794 0.0
H725 H 0.48267 0.05671 0.05345 0.0
H726 H 0.66288 0.11683 0.03684 0.0
H727 H 0.64766 0.06221 0.0419 0.0
H728 H 0.60418 0.17009 0.03779 0.0
H729 H 0.52061 0.88578 0.97358 0.0
H730 H 0.46426 0.84441 0.97484 0.0
H731 H 0.6463 0.15684 0.03467 0.0
H732 H 0.49416 0.11065 0.05416 0.0
N733 N 0.57428 0.05366 0.03971 0.0
C734 C 0.63801 0.09939 0.03782 0.0
C735 C 0.62952 0.0686 0.04071 0.0
C736 C 0.61436 0.10747 0.03717 0.0
C737 C 0.58228 0.08383 0.03848 0.0
C738 C 0.59743 0.04599 0.04187 0.0
N739 N 0.52841 0.06813 0.0431 0.0
C740 C 0.55857 0.09128 0.04011 0.0
C741 C 0.51243 0.10556 0.04995 0.0
C742 C 0.54251 0.12942 0.04499 0.0
C743 C 0.50605 0.07501 0.0495 0.0
C744 C 0.56634 0.12256 0.04063 0.0
H745 H 0.54751 0.15312 0.04551 0.0
O746 O 0.49248 0.01324 0.06426 0.0
O747 O 0.47986 0.98339 0.02056 0.0
O748 O 0.49223 0.02051 0.99298 0.0
O749 O 0.48922 0.03305 0.02389 0.0
O750 O 0.48174 0.96934 0.04734 0.0
O751 O 0.53648 0.01221 0.06632 0.0
O752 O 0.52751 0.99123 0.96777 0.0
O753 O 0.53527 0.01991 1.0096 0.0
O754 O 0.53953 0.98506 0.03603 0.0
O755 O 0.50884 0.94959 0.01298 0.0
O756 O 0.55189 0.9966 0.99335 0.0
O757 O 0.48126 0.98706 0.96721 0.0
C758 C 0.46609 0.96139 0.03208 0.0
C759 C 0.59789 0.146 0.0378 0.0
C760 C 0.62188 0.13846 0.03606 0.0
C761 C 0.51235 0.01064 0.0753 0.0
C762 C 0.5184 0.02572 0.09372 0.0
C763 C 0.52995 0.05752 0.09528 0.0
C764 C 0.51158 0.00767 0.11002 0.0
C765 C 0.51537 0.02111 0.12789 0.0
C766 C 0.53395 0.07108 0.11282 0.0
C767 C 0.52656 0.0531 0.12896 0.0
C768 C 0.48638 0.036 1.00577 0.0
C769 C 0.56023 0.02057 1.00375 0.0
C770 C 0.50608 0.99232 0.95752 0.0
C771 C 0.50061 0.97791 0.93894 0.0
C772 C 0.49059 0.94644 0.93705 0.0
C773 C 0.50692 0.99625 0.92285 0.0
C774 C 0.5045 0.98353 0.9049 0.0
C775 C 0.48789 0.93358 0.91942 0.0
C776 C 0.49508 0.95194 0.9035 0.0
C777 C 0.52808 0.95795 0.02756 0.0
H778 H 0.5357 0.07183 0.08297 0.0
H779 H 0.50356 0.98324 0.1087 0.0
H780 H 0.54261 0.09563 0.11394 0.0
H781 H 0.52936 0.06432 0.14231 0.0
H782 H 0.48512 0.93185 0.94915 0.0
H783 H 0.5135 0.02029 0.92444 0.0
H784 H 0.48049 0.90931 0.91809 0.0
H785 H 0.49346 0.94133 0.89007 0.0
Gd786 Gd 0.98171 0.48893 0.0346 0.0
Gd787 Gd 0.03172 0.50719 0.99258 0.0
C788 C 0.12637 0.50865 0.99209 0.0
C789 C 0.16375 0.56246 0.98503 0.0
C790 C 0.10734 0.54463 0.98761 0.0
C791 C 0.10131 0.51517 0.99163 0.0
C792 C 0.13848 0.56835 0.98354 0.0
C793 C 0.15772 0.53268 0.98941 0.0
C794 C 0.11903 0.47796 0.9943 0.0
C795 C 0.0873 0.45454 0.9949 0.0
N796 N 0.07068 0.49238 0.99354 0.0
C797 C 0.06329 0.46217 0.99413 0.0
H798 H 0.03886 0.44385 0.99461 0.0
C799 C 0.08658 0.57698 0.9797 0.0
N800 N 0.08235 0.54946 0.9862 0.0
C801 C 0.117 0.60119 0.97544 0.0
C802 C 0.14311 0.59695 0.9775 0.0
H803 H 0.06654 0.58042 0.97796 0.0
H804 H 0.17731 0.52819 0.98993 0.0
H805 H 0.97875 0.55491 0.03456 0.0
H806 H 0.13758 0.47199 0.9948 0.0
H807 H 0.08128 0.43062 0.99601 0.0
H808 H 0.18791 0.58053 0.98228 0.0
H809 H 0.9425 0.4144 0.04645 0.0
H810 H 0.88153 0.53173 0.03304 0.0
H811 H 0.93862 0.57103 0.03343 0.0
H812 H 0.82517 0.42161 0.04033 0.0
H813 H 0.12027 0.62308 0.97055 0.0
H814 H 0.16664 0.61572 0.97415 0.0
H815 H 0.83927 0.47576 0.03535 0.0
H816 H 0.88707 0.37244 0.05085 0.0
N817 N 0.94502 0.50673 0.03426 0.0
C818 C 0.89909 0.52446 0.03354 0.0
C819 C 0.93128 0.5467 0.03384 0.0
C820 C 0.88998 0.49314 0.03464 0.0
C821 C 0.91383 0.48495 0.03515 0.0
C822 C 0.95403 0.5374 0.03449 0.0
N823 N 0.92967 0.44809 0.03952 0.0
C824 C 0.90589 0.45461 0.03795 0.0
C825 C 0.89202 0.39542 0.04714 0.0
C826 C 0.86713 0.40143 0.04465 0.0
C827 C 0.92336 0.41923 0.0447 0.0
C828 C 0.87391 0.43143 0.04028 0.0
H829 H 0.84287 0.38296 0.04658 0.0
O830 O 0.98434 0.4726 0.06227 0.0
O831 O 0.02563 0.49303 0.02236 0.0
O832 O 0.99537 0.45579 0.99499 0.0
O833 O 0.9538 0.45214 0.01299 0.0
O834 O 0.99976 0.45569 0.03957 0.0
O835 O 0.99481 0.51981 0.05832 0.0
O836 O 0.02037 0.51801 0.96537 0.0
O837 O 0.98786 0.50276 1.00499 0.0
O838 O 0.01898 0.54034 0.03274 0.0
O839 O 0.05961 0.54579 0.01288 0.0
O840 O 0.01277 0.53974 0.98745 0.0
O841 O 0.02644 0.47826 0.96872 0.0
C842 C 0.02527 0.46992 0.02978 0.0
C843 C 0.84992 0.43914 0.03878 0.0
C844 C 0.85794 0.46997 0.03594 0.0
C845 C 0.99112 0.49863 0.07027 0.0
C846 C 0.97343 0.49658 0.08732 0.0
C847 C 0.94353 0.49425 0.08645 0.0
C848 C 0.98723 0.49805 0.10474 0.0
C849 C 0.97164 0.49786 0.12135 0.0
C850 C 0.92787 0.494 0.10281 0.0
C851 C 0.94191 0.49613 0.12014 0.0
C852 C 0.96512 0.44101 1.00018 0.0
C853 C 0.98769 0.5256 0.99764 0.0
C854 C 0.02175 0.49554 0.95708 0.0
C855 C 0.03984 0.50364 0.93964 0.0
C856 C 0.0731 0.51845 0.93966 0.0
C857 C 0.02353 0.49761 0.92269 0.0
C858 C 0.04034 0.50696 0.90584 0.0
C859 C 0.0899 0.52772 0.92289 0.0
C860 C 0.07363 0.52221 0.90602 0.0
C861 C 0.0485 0.55622 0.0262 0.0
H862 H 0.93253 0.49309 0.07317 0.0
H863 H 0.01024 0.49957 0.10532 0.0
H864 H 0.905 0.49267 0.10206 0.0
H865 H 0.92975 0.4971 0.13255 0.0
H866 H 0.08605 0.52295 0.95256 0.0
H867 H 0.99781 0.48616 0.92261 0.0
H868 H 0.11557 0.53928 0.92298 0.0
H869 H 0.08694 0.5295 0.89311 0.0
Gd870 Gd 0.49445 0.50988 0.99457 0.0
Gd871 Gd 0.52113 0.48827 0.03731 0.0
C872 C 0.61413 0.48672 0.03986 0.0
C873 C 0.59553 0.43202 0.04409 0.0
C874 C 0.5578 0.45036 0.04215 0.0
C875 C 0.58239 0.48023 0.03973 0.0
C876 C 0.56407 0.42596 0.04481 0.0
C877 C 0.62053 0.46236 0.04159 0.0
C878 C 0.63846 0.51758 0.03886 0.0
C879 C 0.63082 0.54105 0.0386 0.0
N880 N 0.57531 0.50319 0.03838 0.0
C881 C 0.59895 0.5334 0.03869 0.0
H882 H 0.5934 0.55174 0.03844 0.0
C883 C 0.50301 0.41697 0.04747 0.0
N884 N 0.52778 0.44544 0.04288 0.0
C885 C 0.508 0.392 0.0502 0.0
C886 C 0.53862 0.39642 0.04862 0.0
H887 H 0.47926 0.41329 0.04863 0.0
H888 H 0.64474 0.46684 0.04153 0.0
H889 H 0.42348 0.44479 0.99188 0.0
H890 H 0.66316 0.52356 0.03883 0.0
H891 H 0.64944 0.56504 0.03825 0.0
H892 H 0.60083 0.41354 0.04592 0.0
H893 H 0.53449 0.58613 0.98707 0.0
H894 H 0.35109 0.46945 0.9914 0.0
H895 H 0.36694 0.42949 0.99105 0.0
H896 H 0.41002 0.58019 0.98876 0.0
H897 H 0.48823 0.36937 0.05346 0.0
H898 H 0.54243 0.37705 0.05076 0.0
H899 H 0.36741 0.52582 0.99072 0.0
H900 H 0.52358 0.62927 0.98432 0.0
N901 N 0.43983 0.49301 0.99294 0.0
C902 C 0.37603 0.47633 0.99168 0.0
C903 C 0.38488 0.45372 0.99141 0.0
C904 C 0.39952 0.50757 0.99178 0.0
C905 C 0.43163 0.51525 0.99226 0.0
C906 C 0.41707 0.46253 0.99181 0.0
N907 N 0.48598 0.55197 0.99076 0.0
C908 C 0.45548 0.54573 0.99111 0.0
C909 C 0.5042 0.60589 0.98627 0.0
C910 C 0.47298 0.59999 0.98735 0.0
C911 C 0.5103 0.58142 0.98776 0.0
C912 C 0.4481 0.56956 0.98953 0.0
H913 H 0.46831 0.61896 0.98612 0.0
O914 O 0.51766 0.52833 0.96797 0.0
O915 O 0.53257 0.50466 1.00803 0.0
O916 O 0.53829 0.53988 0.03544 0.0
O917 O 0.50031 0.54319 0.0174 0.0
O918 O 0.54721 0.54308 0.99158 0.0
O919 O 0.47751 0.48173 0.96963 0.0
O920 O 0.49527 0.47487 0.06347 0.0
O921 O 0.48306 0.49313 0.02357 0.0
O922 O 0.47891 0.45855 0.99533 0.0
O923 O 0.51304 0.45251 0.01555 0.0
O924 O 0.46833 0.45488 0.04013 0.0
O925 O 0.54159 0.51594 0.06234 0.0
C926 C 0.55686 0.52799 1.00156 0.0
C927 C 0.4162 0.56219 0.9898 0.0
C928 C 0.39194 0.53124 0.99093 0.0
C929 C 0.49814 0.50344 0.95879 0.0
C930 C 0.48605 0.50794 0.94104 0.0
C931 C 0.46259 0.51641 0.94063 0.0
C932 C 0.49769 0.50294 0.92425 0.0
C933 C 0.48555 0.5058 0.90706 0.0
C934 C 0.45071 0.51963 0.92358 0.0
C935 C 0.462 0.51425 0.90687 0.0
C936 C 0.52306 0.55435 0.03006 0.0
C937 C 0.45872 0.46963 0.0298 0.0
C938 C 0.51769 0.49754 0.07287 0.0
C939 C 0.52498 0.48936 0.09116 0.0
C940 C 0.54019 0.47189 0.0925 0.0
C941 C 0.51501 0.49773 0.10748 0.0
C942 C 0.5198 0.4883 0.12508 0.0
C943 C 0.54504 0.46253 0.10993 0.0
C944 C 0.53474 0.47048 0.12612 0.0
C945 C 0.49236 0.4428 1.00162 0.0
H946 H 0.45339 0.52036 0.95343 0.0
H947 H 0.51568 0.49618 0.92455 0.0
H948 H 0.43259 0.52616 0.92331 0.0
H949 H 0.45246 0.51683 0.89379 0.0
H950 H 0.548 0.46524 0.0801 0.0
H951 H 0.50295 0.51097 0.10646 0.0
H952 H 0.55667 0.44893 0.11088 0.0
H953 H 0.53873 0.46297 0.1395 0.0
Gd954 Gd 0.19207 0.36024 0.37156 0.0
Gd955 Gd 0.16698 0.31798 0.32649 0.0
C956 C 0.07107 0.22973 0.31948 0.0
C957 C 0.08668 0.19108 0.31425 0.0
C958 C 0.12673 0.24502 0.31878 0.0
C959 C 0.10333 0.25264 0.32104 0.0
C960 C 0.11876 0.21429 0.3149 0.0
C961 C 0.06285 0.19879 0.31656 0.0
C962 C 0.04814 0.23879 0.32016 0.0
C963 C 0.05774 0.27014 0.32148 0.0
N964 N 0.1122 0.28282 0.32347 0.0
C965 C 0.09007 0.29199 0.32282 0.0
H966 H 0.09705 0.31608 0.32389 0.0
C967 C 0.18139 0.26228 0.3152 0.0
N968 N 0.1574 0.26805 0.31937 0.0
C969 C 0.17472 0.23216 0.31134 0.0
C970 C 0.14327 0.20799 0.31134 0.0
H971 H 0.20576 0.28086 0.31528 0.0
H972 H 0.03819 0.18081 0.31552 0.0
H973 H 0.26279 0.36342 0.37233 0.0
H974 H 0.02309 0.22192 0.31906 0.0
H975 H 0.04026 0.27751 0.32154 0.0
H976 H 0.08005 0.16727 0.3115 0.0
H977 H 0.15247 0.39611 0.38378 0.0
H978 H 0.33568 0.45769 0.37859 0.0
H979 H 0.31937 0.40254 0.3745 0.0
H980 H 0.27736 0.51032 0.38916 0.0
H981 H 0.19382 0.2276 0.30839 0.0
H982 H 0.13814 0.18468 0.30831 0.0
H983 H 0.31975 0.49785 0.38395 0.0
H984 H 0.16369 0.44865 0.39198 0.0
N985 N 0.24679 0.39595 0.37437 0.0
C986 C 0.3107 0.44058 0.37755 0.0
C987 C 0.30159 0.40947 0.37532 0.0
C988 C 0.2874 0.44905 0.37913 0.0
C989 C 0.25524 0.42586 0.37756 0.0
C990 C 0.26935 0.3873 0.37409 0.0
N991 N 0.20101 0.40963 0.37959 0.0
C992 C 0.23154 0.4329 0.38043 0.0
C993 C 0.18301 0.44456 0.38871 0.0
C994 C 0.21432 0.46897 0.38907 0.0
C995 C 0.17675 0.41482 0.38407 0.0
C996 C 0.2391 0.46328 0.38503 0.0
H997 H 0.21913 0.49198 0.39268 0.0
O998 O 0.16723 0.35076 0.39816 0.0
O999 O 0.15427 0.32056 0.35587 0.0
O1000 O 0.15209 0.35431 0.32952 0.0
O1001 O 0.18652 0.39126 0.35084 0.0
O1002 O 0.13957 0.34341 0.37353 0.0
O1003 O 0.20695 0.34314 0.39505 0.0
O1004 O 0.19105 0.32528 0.29978 0.0
O1005 O 0.20462 0.35773 0.3421 0.0
O1006 O 0.20779 0.32462 0.3682 0.0
O1007 O 0.17248 0.28731 0.34743 0.0
O1008 O 0.21959 0.33529 0.32435 0.0
O1009 O 0.153 0.33545 0.30282 0.0
C1010 C 0.13006 0.32055 0.36213 0.0
C1011 C 0.27106 0.48676 0.38584 0.0
C1012 C 0.29518 0.47967 0.38285 0.0
C1013 C 0.18579 0.34267 0.40642 0.0
C1014 C 0.19698 0.35523 0.42528 0.0
C1015 C 0.221 0.38606 0.4276 0.0
C1016 C 0.18422 0.33609 0.4411 0.0
C1017 C 0.19579 0.34765 0.45913 0.0
C1018 C 0.2324 0.39763 0.44538 0.0
C1019 C 0.22006 0.37861 0.46101 0.0
C1020 C 0.16642 0.38267 0.33663 0.0
C1021 C 0.229 0.35827 0.33565 0.0
C1022 C 0.17318 0.33413 0.29142 0.0
C1023 C 0.1608 0.3207 0.2729 0.0
C1024 C 0.13579 0.29014 0.2713 0.0
C1025 C 0.17326 0.33884 0.2567 0.0
C1026 C 0.16027 0.3266 0.23905 0.0
C1027 C 0.12304 0.2779 0.25384 0.0
C1028 C 0.135 0.29601 0.23784 0.0
C1029 C 0.19338 0.29623 0.36119 0.0
H1030 H 0.23108 0.40108 0.41566 0.0
H1031 H 0.16584 0.31216 0.43935 0.0
H1032 H 0.251 0.42145 0.44706 0.0
H1033 H 0.22933 0.38818 0.47465 0.0
H1034 H 0.12594 0.27588 0.28355 0.0
H1035 H 0.19246 0.36254 0.25786 0.0
H1036 H 0.10365 0.25433 0.25272 0.0
H1037 H 0.12463 0.28606 0.22445 0.0
Gd1038 Gd 0.65054 0.82954 0.37103 0.0
Gd1039 Gd 0.70119 0.84896 0.32915 0.0
C1040 C 0.79464 0.84818 0.32997 0.0
C1041 C 0.8335 0.90267 0.32629 0.0
C1042 C 0.77711 0.8855 0.32648 0.0
C1043 C 0.77009 0.85537 0.32916 0.0
C1044 C 0.80884 0.9094 0.32445 0.0
C1045 C 0.82641 0.8721 0.32909 0.0
C1046 C 0.7865 0.8171 0.33095 0.0
C1047 C 0.75458 0.79412 0.33027 0.0
N1048 N 0.73915 0.83286 0.32974 0.0
C1049 C 0.73109 0.80246 0.3294 0.0
H1050 H 0.70651 0.78447 0.32906 0.0
C1051 C 0.75819 0.91959 0.31923 0.0
N1052 N 0.75269 0.89109 0.32463 0.0
C1053 C 0.78927 0.94408 0.31708 0.0
C1054 C 0.81474 0.93909 0.31999 0.0
H1055 H 0.73861 0.92364 0.31708 0.0
H1056 H 0.84561 0.86708 0.32993 0.0
H1057 H 0.64732 0.89527 0.37106 0.0
H1058 H 0.80463 0.8106 0.33166 0.0
H1059 H 0.74801 0.76999 0.33056 0.0
H1060 H 0.85807 0.92078 0.32502 0.0
H1061 H 0.61148 0.75481 0.38252 0.0
H1062 H 0.54998 0.87178 0.36934 0.0
H1063 H 0.60703 0.91124 0.36993 0.0
H1064 H 0.49392 0.76157 0.37619 0.0
H1065 H 0.79355 0.9668 0.31323 0.0
H1066 H 0.83879 0.95808 0.31828 0.0
H1067 H 0.50785 0.81572 0.37142 0.0
H1068 H 0.55609 0.71266 0.38667 0.0
N1069 N 0.61369 0.84711 0.37067 0.0
C1070 C 0.56761 0.8646 0.36987 0.0
C1071 C 0.59977 0.88693 0.37028 0.0
C1072 C 0.55859 0.8333 0.37087 0.0
C1073 C 0.58253 0.82522 0.37141 0.0
C1074 C 0.6226 0.87773 0.37097 0.0
N1075 N 0.59854 0.78846 0.37566 0.0
C1076 C 0.57468 0.79487 0.37406 0.0
C1077 C 0.56098 0.73565 0.38304 0.0
C1078 C 0.53603 0.74156 0.38052 0.0
C1079 C 0.5923 0.75958 0.38072 0.0
C1080 C 0.54272 0.77157 0.37626 0.0
H1081 H 0.51179 0.72301 0.38235 0.0
O1082 O 0.65416 0.81307 0.39846 0.0
O1083 O 0.69429 0.8335 0.35865 0.0
O1084 O 0.664 0.7977 0.33063 0.0
O1085 O 0.62262 0.79359 0.3491 0.0
O1086 O 0.66822 0.79587 0.37555 0.0
O1087 O 0.66184 0.85941 0.39514 0.0
O1088 O 0.69309 0.86311 0.30208 0.0
O1089 O 0.65731 0.84454 0.34155 0.0
O1090 O 0.6882 0.88086 0.36989 0.0
O1091 O 0.72889 0.88547 0.35051 0.0
O1092 O 0.68288 0.88215 0.32458 0.0
O1093 O 0.6952 0.82102 0.30464 0.0
C1094 C 0.69372 0.8101 0.36575 0.0
C1095 C 0.51866 0.77919 0.37475 0.0
C1096 C 0.52658 0.81001 0.37202 0.0
C1097 C 0.65951 0.83841 0.40682 0.0
C1098 C 0.64134 0.83474 0.42393 0.0
C1099 C 0.60958 0.82758 0.4231 0.0
C1100 C 0.65617 0.83903 0.44133 0.0
C1101 C 0.63945 0.83636 0.4579 0.0
C1102 C 0.59288 0.82492 0.43948 0.0
C1103 C 0.60771 0.8294 0.45679 0.0
C1104 C 0.6338 0.7829 0.33595 0.0
C1105 C 0.65749 0.86775 0.3345 0.0
C1106 C 0.69283 0.84014 0.29334 0.0
C1107 C 0.71161 0.84802 0.27614 0.0
C1108 C 0.74488 0.86382 0.27665 0.0
C1109 C 0.69592 0.84064 0.25892 0.0
C1110 C 0.71333 0.84958 0.24224 0.0
C1111 C 0.76229 0.87259 0.26008 0.0
C1112 C 0.74664 0.86569 0.24292 0.0
C1113 C 0.71805 0.89601 0.36388 0.0
H1114 H 0.5978 0.82427 0.40984 0.0
H1115 H 0.68086 0.84496 0.44196 0.0
H1116 H 0.56839 0.81946 0.43876 0.0
H1117 H 0.59431 0.82719 0.46933 0.0
H1118 H 0.75737 0.86951 0.28978 0.0
H1119 H 0.67018 0.82848 0.25849 0.0
H1120 H 0.78797 0.88487 0.26054 0.0
H1121 H 0.76047 0.87265 0.23019 0.0
Gd1122 Gd 0.15883 0.84391 0.32566 0.0
Gd1123 Gd 0.18408 0.82486 0.3698 0.0
C1124 C 0.27868 0.82664 0.3741 0.0
C1125 C 0.26163 0.77226 0.37834 0.0
C1126 C 0.22267 0.78901 0.37589 0.0
C1127 C 0.24664 0.81917 0.37358 0.0
C1128 C 0.22984 0.76526 0.37876 0.0
C1129 C 0.28603 0.80292 0.376 0.0
C1130 C 0.30233 0.85777 0.37328 0.0
C1131 C 0.29371 0.88054 0.37276 0.0
N1132 N 0.23863 0.84144 0.37188 0.0
C1133 C 0.26156 0.87192 0.37233 0.0
H1134 H 0.25529 0.88977 0.37175 0.0
C1135 C 0.1681 0.7545 0.38112 0.0
N1136 N 0.19232 0.78319 0.37635 0.0
C1137 C 0.17395 0.7301 0.38394 0.0
C1138 C 0.20492 0.73539 0.3825 0.0
H1139 H 0.14411 0.75022 0.38222 0.0
H1140 H 0.31049 0.80815 0.37619 0.0
H1141 H 0.08859 0.77814 0.32289 0.0
H1142 H 0.32723 0.86449 0.37357 0.0
H1143 H 0.31178 0.90473 0.37254 0.0
H1144 H 0.26763 0.75429 0.38031 0.0
H1145 H 0.19786 0.91929 0.31546 0.0
H1146 H 0.01509 0.80123 0.32023 0.0
H1147 H 0.03185 0.76195 0.32103 0.0
H1148 H 0.0726 0.91166 0.31503 0.0
H1149 H 0.15458 0.70724 0.38722 0.0
H1150 H 0.20941 0.71649 0.38478 0.0
H1151 H 0.03054 0.85729 0.31831 0.0
H1152 H 0.18616 0.96151 0.31038 0.0
N1153 N 0.10408 0.82624 0.32356 0.0
C1154 C 0.0401 0.80851 0.32104 0.0
C1155 C 0.04948 0.78629 0.32142 0.0
C1156 C 0.0632 0.83987 0.32091 0.0
C1157 C 0.09543 0.84807 0.32199 0.0
C1158 C 0.08176 0.79561 0.3225 0.0
N1159 N 0.14958 0.88512 0.31993 0.0
C1160 C 0.11896 0.87853 0.32 0.0
C1161 C 0.16703 0.93829 0.31311 0.0
C1162 C 0.13569 0.93208 0.31386 0.0
C1163 C 0.17357 0.91433 0.31594 0.0
C1164 C 0.11113 0.90182 0.31708 0.0
H1165 H 0.13067 0.95065 0.3116 0.0
O1166 O 0.1829 0.86114 0.29914 0.0
O1167 O 0.19689 0.83997 0.34037 0.0
O1168 O 0.20016 0.87624 0.36713 0.0
O1169 O 0.16412 0.87898 0.34703 0.0
O1170 O 0.21151 0.87771 0.32329 0.0
O1171 O 0.14273 0.81465 0.30107 0.0
O1172 O 0.15698 0.81119 0.39554 0.0
O1173 O 0.14599 0.82848 0.35498 0.0
O1174 O 0.14391 0.79292 0.32715 0.0
O1175 O 0.17607 0.7875 0.34939 0.0
O1176 O 0.13151 0.79054 0.37172 0.0
O1177 O 0.20265 0.85298 0.39484 0.0
C1178 C 0.2212 0.86341 0.33394 0.0
C1179 C 0.07911 0.89405 0.31704 0.0
C1180 C 0.05517 0.8631 0.31895 0.0
C1181 C 0.16353 0.83603 0.29012 0.0
C1182 C 0.15161 0.84023 0.27218 0.0
C1183 C 0.12845 0.84909 0.27158 0.0
C1184 C 0.16321 0.83489 0.25545 0.0
C1185 C 0.1513 0.83784 0.23818 0.0
C1186 C 0.11688 0.85245 0.25447 0.0
C1187 C 0.12812 0.84678 0.23786 0.0
C1188 C 0.18565 0.89066 0.36038 0.0
C1189 C 0.1216 0.80463 0.36103 0.0
C1190 C 0.1786 0.83418 0.40512 0.0
C1191 C 0.18569 0.8263 0.42356 0.0
C1192 C 0.20193 0.80983 0.42519 0.0
C1193 C 0.17469 0.83403 0.43969 0.0
C1194 C 0.1795 0.82495 0.4574 0.0
C1195 C 0.20675 0.80078 0.44272 0.0
C1196 C 0.19546 0.80809 0.45873 0.0
C1197 C 0.15643 0.7775 0.33504 0.0
H1198 H 0.11925 0.85328 0.28429 0.0
H1199 H 0.18099 0.82786 0.25588 0.0
H1200 H 0.09902 0.85932 0.25409 0.0
H1201 H 0.11881 0.8495 0.22473 0.0
H1202 H 0.21061 0.80374 0.41294 0.0
H1203 H 0.1619 0.84655 0.43845 0.0
H1204 H 0.21918 0.78794 0.44389 0.0
H1205 H 0.1995 0.8009 0.47219 0.0
Gd1206 Gd 0.85103 0.68925 0.70473 0.0
Gd1207 Gd 0.82638 0.64499 0.66027 0.0
C1208 C 0.73483 0.55197 0.65535 0.0
C1209 C 0.7548 0.51637 0.6515 0.0
C1210 C 0.79147 0.5716 0.6543 0.0
C1211 C 0.76631 0.57683 0.65623 0.0
C1212 C 0.78605 0.54138 0.65157 0.0
C1213 C 0.72922 0.52166 0.65338 0.0
C1214 C 0.70998 0.55844 0.65591 0.0
C1215 C 0.71692 0.58912 0.65662 0.0
N1216 N 0.77262 0.6064 0.65798 0.0
C1217 C 0.74856 0.61295 0.65739 0.0
H1218 H 0.75356 0.6365 0.65815 0.0
C1219 C 0.8468 0.59263 0.65066 0.0
N1220 N 0.82131 0.5963 0.65438 0.0
C1221 C 0.84266 0.56309 0.648 0.0
C1222 C 0.81217 0.5373 0.64864 0.0
H1223 H 0.87047 0.61239 0.65025 0.0
H1224 H 0.70521 0.50223 0.65287 0.0
H1225 H 0.9229 0.69484 0.70636 0.0
H1226 H 0.68546 0.54002 0.65533 0.0
H1227 H 0.69792 0.59445 0.65671 0.0
H1228 H 0.75014 0.49294 0.6496 0.0
H1229 H 0.81038 0.72387 0.7174 0.0
H1230 H 0.99385 0.79042 0.70852 0.0
H1231 H 0.97911 0.73535 0.70706 0.0
H1232 H 0.933 0.84116 0.71637 0.0
H1233 H 0.86298 0.56022 0.64548 0.0
H1234 H 0.80902 0.51445 0.64654 0.0
H1235 H 0.97637 0.82988 0.71175 0.0
H1236 H 0.82008 0.77666 0.72323 0.0
N1237 N 0.90552 0.72638 0.70687 0.0
C1238 C 0.96904 0.77267 0.70824 0.0
C1239 C 0.9608 0.74162 0.70747 0.0
C1240 C 0.9451 0.78035 0.70933 0.0
C1241 C 0.91318 0.75632 0.70881 0.0
C1242 C 0.92876 0.71864 0.70708 0.0
N1243 N 0.85884 0.73862 0.71181 0.0
C1244 C 0.88898 0.76266 0.71139 0.0
C1245 C 0.83969 0.77308 0.71984 0.0
C1246 C 0.87049 0.79826 0.71856 0.0
C1247 C 0.83429 0.7432 0.7166 0.0
C1248 C 0.8957 0.7932 0.71457 0.0
H1249 H 0.87463 0.82138 0.72109 0.0
O1250 O 0.82684 0.68034 0.73152 0.0
O1251 O 0.81383 0.64858 0.68954 0.0
O1252 O 0.8085 0.67905 0.66253 0.0
O1253 O 0.84057 0.7171 0.68407 0.0
O1254 O 0.79831 0.67062 0.70733 0.0
O1255 O 0.86667 0.67297 0.72832 0.0
O1256 O 0.8528 0.65721 0.63425 0.0
O1257 O 0.8632 0.68671 0.67514 0.0
O1258 O 0.86869 0.65496 0.70146 0.0
O1259 O 0.83274 0.61597 0.68178 0.0
O1260 O 0.87927 0.66436 0.65793 0.0
O1261 O 0.80681 0.65389 0.63533 0.0
C1262 C 0.78928 0.64771 0.69601 0.0
C1263 C 0.92733 0.81747 0.71417 0.0
C1264 C 0.95202 0.81105 0.71154 0.0
C1265 C 0.84562 0.67252 0.73976 0.0
C1266 C 0.857 0.68539 0.75853 0.0
C1267 C 0.87978 0.71669 0.76073 0.0
C1268 C 0.84561 0.66611 0.77439 0.0
C1269 C 0.85749 0.678 0.79229 0.0
C1270 C 0.89128 0.72863 0.77844 0.0
C1271 C 0.88036 0.70948 0.79409 0.0
C1272 C 0.82051 0.70714 0.6698 0.0
C1273 C 0.88797 0.68794 0.66866 0.0
C1274 C 0.83082 0.65885 0.62485 0.0
C1275 C 0.82356 0.64425 0.60629 0.0
C1276 C 0.80806 0.61199 0.60454 0.0
C1277 C 0.83351 0.66278 0.59013 0.0
C1278 C 0.82862 0.64911 0.57235 0.0
C1279 C 0.80286 0.59835 0.58693 0.0
C1280 C 0.81321 0.61674 0.57094 0.0
C1281 C 0.85454 0.62621 0.69501 0.0
H1282 H 0.88876 0.73182 0.74874 0.0
H1283 H 0.82809 0.64185 0.77276 0.0
H1284 H 0.90887 0.75283 0.78004 0.0
H1285 H 0.88966 0.71931 0.80768 0.0
H1286 H 0.80024 0.5974 0.61678 0.0
H1287 H 0.84565 0.68775 0.5914 0.0
H1288 H 0.79096 0.57344 0.58568 0.0
H1289 H 0.80905 0.60568 0.55742 0.0
Gd1290 Gd 0.31241 0.15842 0.70525 0.0
Gd1291 Gd 0.36273 0.17782 0.66308 0.0
C1292 C 0.45737 0.17919 0.6633 0.0
C1293 C 0.49531 0.23382 0.65914 0.0
C1294 C 0.43868 0.21556 0.65965 0.0
C1295 C 0.43237 0.18575 0.66257 0.0
C1296 C 0.47016 0.23986 0.65735 0.0
C1297 C 0.48892 0.20351 0.66215 0.0
C1298 C 0.44986 0.14831 0.66445 0.0
C1299 C 0.41811 0.1249 0.66397 0.0
N1300 N 0.40163 0.16287 0.6634 0.0
C1301 C 0.39418 0.13265 0.66316 0.0
H1302 H 0.36976 0.11439 0.66293 0.0
C1303 C 0.41855 0.24861 0.65228 0.0
N1304 N 0.41378 0.22042 0.65782 0.0
C1305 C 0.44935 0.27348 0.64985 0.0
C1306 C 0.47531 0.26921 0.65268 0.0
H1307 H 0.39865 0.25217 0.65019 0.0
H1308 H 0.50847 0.199 0.66294 0.0
H1309 H 0.30803 0.22344 0.70612 0.0
H1310 H 0.46836 0.14227 0.66511 0.0
H1311 H 0.412 0.1009 0.66436 0.0
H1312 H 0.5197 0.25224 0.65766 0.0
H1313 H 0.27398 0.0825 0.71434 0.0
H1314 H 0.21021 0.19841 0.70416 0.0
H1315 H 0.267 0.23855 0.70522 0.0
H1316 H 0.15559 0.08782 0.7083 0.0
H1317 H 0.45305 0.29593 0.64587 0.0
H1318 H 0.49914 0.2885 0.65076 0.0
H1319 H 0.16876 0.14202 0.7051 0.0
H1320 H 0.2187 0.03939 0.7167 0.0
N1321 N 0.27499 0.17517 0.70531 0.0
C1322 C 0.22815 0.19162 0.70464 0.0
C1323 C 0.26016 0.21434 0.70531 0.0
C1324 C 0.21965 0.16041 0.70515 0.0
C1325 C 0.24396 0.15285 0.70566 0.0
C1326 C 0.28339 0.20565 0.70586 0.0
N1327 N 0.26065 0.11629 0.70879 0.0
C1328 C 0.23653 0.12242 0.70746 0.0
C1329 C 0.22338 0.06262 0.71402 0.0
C1330 C 0.19824 0.06833 0.71181 0.0
C1331 C 0.25464 0.08708 0.71274 0.0
C1332 C 0.20463 0.09859 0.70878 0.0
H1333 H 0.17405 0.04936 0.71289 0.0
O1334 O 0.31964 0.14255 0.73192 0.0
O1335 O 0.35633 0.163 0.69268 0.0
O1336 O 0.32618 0.12629 0.6654 0.0
O1337 O 0.28455 0.12393 0.68284 0.0
O1338 O 0.33057 0.12505 0.70951 0.0
O1339 O 0.31871 0.18539 0.73036 0.0
O1340 O 0.35339 0.19075 0.63598 0.0
O1341 O 0.31951 0.17399 0.67594 0.0
O1342 O 0.34987 0.20972 0.70415 0.0
O1343 O 0.3903 0.21503 0.68417 0.0
O1344 O 0.34414 0.21078 0.65834 0.0
O1345 O 0.3549 0.1484 0.639 0.0
C1346 C 0.3561 0.13974 0.69974 0.0
C1347 C 0.18027 0.10583 0.70749 0.0
C1348 C 0.18777 0.13669 0.70566 0.0
C1349 C 0.32064 0.16545 0.74119 0.0
C1350 C 0.30223 0.15707 0.75858 0.0
C1351 C 0.26899 0.14148 0.75827 0.0
C1352 C 0.31821 0.16324 0.77573 0.0
C1353 C 0.30116 0.15311 0.79259 0.0
C1354 C 0.25188 0.13181 0.7749 0.0
C1355 C 0.26776 0.13739 0.79193 0.0
C1356 C 0.29594 0.11212 0.67063 0.0
C1357 C 0.31938 0.19697 0.66879 0.0
C1358 C 0.35242 0.16725 0.6275 0.0
C1359 C 0.37059 0.17434 0.6101 0.0
C1360 C 0.40382 0.18891 0.61029 0.0
C1361 C 0.35446 0.16772 0.59303 0.0
C1362 C 0.37143 0.17619 0.57619 0.0
C1363 C 0.42078 0.19717 0.59355 0.0
C1364 C 0.40472 0.19103 0.57656 0.0
C1365 C 0.37946 0.22529 0.69774 0.0
H1366 H 0.25631 0.13655 0.74521 0.0
H1367 H 0.34393 0.17595 0.77585 0.0
H1368 H 0.2262 0.11961 0.77458 0.0
H1369 H 0.25386 0.12903 0.80458 0.0
H1370 H 0.41662 0.19407 0.62331 0.0
H1371 H 0.32876 0.15659 0.59285 0.0
H1372 H 0.44643 0.20851 0.59376 0.0
H1373 H 0.41821 0.19761 0.5637 0.0
Gd1374 Gd 0.82612 0.17446 0.66007 0.0
Gd1375 Gd 0.85347 0.16348 0.70529 0.0
C1376 C 0.95213 0.22961 0.72834 0.0
C1377 C 0.98391 0.20972 0.71441 0.0
C1378 C 0.92716 0.18446 0.70836 0.0
C1379 C 0.92509 0.20637 0.71911 0.0
C1380 C 0.95653 0.18553 0.70619 0.0
C1381 C 0.9817 0.23168 0.72551 0.0
C1382 C 0.94839 0.24927 0.74069 0.0
C1383 C 0.91804 0.24453 0.74426 0.0
N1384 N 0.89619 0.2037 0.72158 0.0
C1385 C 0.89194 0.22098 0.73489 0.0
H1386 H 0.86841 0.21722 0.73767 0.0
C1387 C 0.90066 0.13746 0.69161 0.0
N1388 N 0.90021 0.16129 0.70071 0.0
C1389 C 0.9292 0.13747 0.68916 0.0
C1390 C 0.95735 0.16186 0.69621 0.0
H1391 H 0.87927 0.11864 0.68584 0.0
H1392 H 1.00284 0.24963 0.73227 0.0
H1393 H 0.7565 0.10887 0.66282 0.0
H1394 H 0.96857 0.26741 0.74806 0.0
H1395 H 0.91473 0.25892 0.75426 0.0
H1396 H 1.00674 0.21114 0.7127 0.0
H1397 H 0.86264 0.2473 0.64426 0.0
H1398 H 0.6823 0.1313 0.66234 0.0
H1399 H 0.69943 0.09232 0.66394 0.0
H1400 H 0.73813 0.24052 0.65102 0.0
H1401 H 0.9295 0.11882 0.68163 0.0
H1402 H 0.97944 0.1619 0.69418 0.0
H1403 H 0.69707 0.1869 0.65795 0.0
H1404 H 0.84983 0.28866 0.63824 0.0
N1405 N 0.77144 0.15668 0.6608 0.0
C1406 C 0.70735 0.13866 0.66174 0.0
C1407 C 0.71692 0.11658 0.66258 0.0
C1408 C 0.73017 0.16988 0.65951 0.0
C1409 C 0.76246 0.17822 0.65888 0.0
C1410 C 0.74927 0.12604 0.66196 0.0
N1411 N 0.81604 0.21493 0.65346 0.0
C1412 C 0.78551 0.20834 0.6551 0.0
C1413 C 0.83157 0.26625 0.64313 0.0
C1414 C 0.80067 0.26049 0.64602 0.0
C1415 C 0.83875 0.24286 0.64652 0.0
C1416 C 0.77701 0.23104 0.65168 0.0
H1417 H 0.79512 0.27859 0.64328 0.0
O1418 O 0.85156 0.18432 0.63375 0.0
O1419 O 0.86376 0.16935 0.67481 0.0
O1420 O 0.8743 0.21469 0.69973 0.0
O1421 O 0.83886 0.21598 0.67835 0.0
O1422 O 0.87837 0.20715 0.65707 0.0
O1423 O 0.80262 0.14832 0.63501 0.0
O1424 O 0.85252 0.12782 0.72315 0.0
O1425 O 0.81077 0.15473 0.68861 0.0
O1426 O 0.81409 0.12492 0.66191 0.0
O1427 O 0.8294 0.11651 0.69123 0.0
O1428 O 0.81768 0.17657 0.71438 0.0
O1429 O 0.82957 0.15292 0.7322 0.0
C1430 C 0.88782 0.19262 0.66776 0.0
C1431 C 0.7451 0.2233 0.65334 0.0
C1432 C 0.72171 0.19276 0.65727 0.0
C1433 C 0.8272 0.16405 0.62437 0.0
C1434 C 0.82181 0.17452 0.60631 0.0
C1435 C 0.80678 0.19221 0.60522 0.0
C1436 C 0.8332 0.16787 0.58995 0.0
C1437 C 0.83021 0.17938 0.57267 0.0
C1438 C 0.80384 0.20374 0.58807 0.0
C1439 C 0.81571 0.19758 0.57187 0.0
C1440 C 0.86136 0.22909 0.69113 0.0
C1441 C 0.79894 0.16529 0.70031 0.0
C1442 C 0.83985 0.13451 0.73714 0.0
C1443 C 0.85658 0.14171 0.75533 0.0
C1444 C 0.88755 0.14645 0.75651 0.0
C1445 C 0.84248 0.14606 0.77145 0.0
C1446 C 0.85936 0.15546 0.78843 0.0
C1447 C 0.90415 0.15543 0.7733 0.0
C1448 C 0.89029 0.16002 0.78911 0.0
C1449 C 0.81695 0.10719 0.67445 0.0
H1450 H 0.7975 0.19727 0.61759 0.0
H1451 H 0.84482 0.15418 0.5907 0.0
H1452 H 0.79241 0.21754 0.58734 0.0
H1453 H 0.8132 0.20667 0.55868 0.0
H1454 H 0.89923 0.14369 0.7444 0.0
H1455 H 0.81886 0.14307 0.77062 0.0
H1456 H 0.92803 0.15914 0.77403 0.0
H1457 H 0.90378 0.16707 0.80196 0.0
C1458 C 0.39183 0.88656 0.04292 0.0
C1459 C 0.36894 0.89576 0.04535 0.0
C1460 C 0.42277 0.90753 0.03694 0.0
C1461 C 0.43199 0.93839 0.03292 0.0
H1462 H 0.38648 0.86348 0.04674 0.0
H1463 H 0.44009 0.89996 0.03638 0.0
S1464 S 0.38108 0.97393 0.03542 0.0
N1465 N 0.3573 0.93752 0.04138 0.0
N1466 N 0.41607 0.97722 0.03144 0.0
C1467 C 0.4093 0.94773 0.03464 0.0
C1468 C 0.3776 0.92631 0.04041 0.0
C1469 C 0.07392 0.43254 0.04272 0.0
C1470 C 0.10398 0.45778 0.04724 0.0
C1471 C 0.04899 0.43691 0.03669 0.0
C1472 C 0.05321 0.46668 0.03436 0.0
H1473 H 0.06943 0.4091 0.04404 0.0
H1474 H 0.02613 0.41675 0.03379 0.0
S1475 S 0.12628 0.54049 0.0453 0.0
N1476 N 0.13578 0.51375 0.04978 0.0
N1477 N 0.08922 0.52178 0.03786 0.0
C1478 C 0.08307 0.49215 0.03863 0.0
C1479 C 0.10839 0.48774 0.04509 0.0
C1480 C 0.51644 0.61926 0.05268 0.0
C1481 C 0.54838 0.64247 0.05512 0.0
C1482 C 0.50846 0.59098 0.04424 0.0
C1483 C 0.53209 0.58457 0.03836 0.0
H1484 H 0.49738 0.62271 0.05759 0.0
H1485 H 0.48361 0.57374 0.04271 0.0
S1486 S 0.61892 0.63813 0.03948 0.0
N1487 N 0.60368 0.65786 0.04912 0.0
N1488 N 0.58841 0.60396 0.03423 0.0
C1489 C 0.56399 0.6075 0.04037 0.0
C1490 C 0.5722 0.63661 0.04854 0.0
C1491 C 0.88941 0.36547 0.98857 0.0
C1492 C 0.89891 0.35239 0.97432 0.0
C1493 C 0.91085 0.39399 0.99672 0.0
C1494 C 0.943 0.41053 0.99133 0.0
H1495 H 0.86516 0.35354 0.99357 0.0
H1496 H 0.90188 0.40313 1.00725 0.0
S1497 S 0.97961 0.38746 0.95362 0.0
N1498 N 0.94226 0.35939 0.95418 0.0
N1499 N 0.98287 0.41184 0.97015 0.0
C1500 C 0.9528 0.39775 0.97698 0.0
C1501 C 0.93077 0.369 0.9684 0.0
C1502 C 0.61819 0.5062 0.98638 0.0
C1503 C 0.64555 0.53527 0.9836 0.0
C1504 C 0.58989 0.5037 0.99333 0.0
C1505 C 0.58785 0.53023 0.99744 0.0
H1506 H 0.61853 0.48528 0.98285 0.0
H1507 H 0.56917 0.48094 0.99473 0.0
S1508 S 0.65278 0.61152 0.99311 0.0
N1509 N 0.66894 0.59094 0.98618 0.0
N1510 N 0.61571 0.58626 0.99865 0.0
C1511 C 0.61516 0.55929 0.99503 0.0
C1512 C 0.64404 0.56182 0.98833 0.0
C1513 C 0.48193 0.09468 0.9746 0.0
C1514 C 0.46 0.10065 0.98369 0.0
C1515 C 0.49009 0.07369 0.98196 0.0
C1516 C 0.47717 0.05832 0.99891 0.0
H1517 H 0.4925 0.106 0.96152 0.0
H1518 H 0.50686 0.06961 0.97429 0.0
S1519 S 0.41888 0.06629 0.02824 0.0
N1520 N 0.42541 0.08976 1.01047 0.0
N1521 N 0.44126 0.05054 0.02456 0.0
C1522 C 0.45548 0.06437 1.00829 0.0
C1523 C 0.44671 0.08543 1.00059 0.0
C1524 C 0.64545 0.07184 0.98879 0.0
C1525 C 0.64601 0.09876 0.98252 0.0
C1526 C 0.6179 0.04731 0.99656 0.0
C1527 C 0.59013 0.04908 0.99888 0.0
H1528 H 0.66605 0.06916 0.9869 0.0
H1529 H 0.61804 0.0264 1.00039 0.0
S1530 S 0.58003 0.1155 0.9859 0.0
N1531 N 0.617 0.12647 0.97995 0.0
N1532 N 0.56523 0.08044 0.99473 0.0
C1533 C 0.59074 0.07636 0.99332 0.0
C1534 C 0.6187 0.10121 0.98515 0.0
C1535 C 0.90377 0.50459 0.98353 0.0
C1536 C 0.9066 0.53377 0.98065 0.0
C1537 C 0.92962 0.50186 0.98994 0.0
C1538 C 0.95929 0.52825 0.99347 0.0
H1539 H 0.88153 0.48374 0.98056 0.0
H1540 H 0.92663 0.479 0.99155 0.0
S1541 S 0.979 0.60976 0.98832 0.0
N1542 N 0.94127 0.58942 0.98221 0.0
N1543 N 0.98989 0.5843 0.99375 0.0
C1544 C 0.9623 0.55744 0.99074 0.0
C1545 C 0.93592 0.56021 0.98458 0.0
C1546 C 0.4906 0.3673 0.99064 0.0
C1547 C 0.46819 0.35453 0.97622 0.0
C1548 C 0.49839 0.39589 0.9986 0.0
C1549 C 0.48357 0.41254 0.99275 0.0
H1550 H 0.50254 0.3553 0.99562 0.0
H1551 H 0.51638 0.40498 1.00934 0.0
S1552 S 0.42239 0.38805 0.95552 0.0
N1553 N 0.43102 0.36006 0.95638 0.0
N1554 N 0.44493 0.41339 0.97145 0.0
C1555 C 0.46089 0.39971 0.97831 0.0
C1556 C 0.45336 0.37081 0.97005 0.0
C1557 C 0.07693 0.63111 0.05361 0.0
C1558 C 0.10978 0.6472 0.05034 0.0
C1559 C 0.05733 0.6019 0.04561 0.0
C1560 C 0.0699 0.58755 0.03418 0.0
H1561 H 0.06635 0.6412 0.06239 0.0
H1562 H 0.03213 0.59053 0.0485 0.0
S1563 S 0.15548 0.61973 0.02314 0.0
N1564 N 0.15449 0.64666 0.03596 0.0
N1565 N 0.11823 0.59172 0.0212 0.0
C1566 C 0.10302 0.60353 0.03117 0.0
C1567 C 0.1228 0.63333 0.03919 0.0
C1568 C 0.39632 0.49041 0.04405 0.0
C1569 C 0.36897 0.46119 0.04632 0.0
C1570 C 0.42502 0.49329 0.0376 0.0
C1571 C 0.42744 0.46701 0.03339 0.0
H1572 H 0.39568 0.51117 0.04764 0.0
H1573 H 0.44569 0.51612 0.03665 0.0
S1574 S 0.36276 0.38545 0.03644 0.0
N1575 N 0.34605 0.40561 0.04323 0.0
N1576 N 0.40002 0.41105 0.03151 0.0
C1577 C 0.40017 0.4378 0.03527 0.0
C1578 C 0.37091 0.43488 0.04153 0.0
C1579 C 0.57334 0.92654 0.05412 0.0
C1580 C 0.55448 0.8945 0.05163 0.0
C1581 C 0.56493 0.94687 0.04594 0.0
C1582 C 0.53719 0.93586 0.03511 0.0
H1583 H 0.59467 0.93591 0.06252 0.0
H1584 H 0.58026 0.97137 0.04826 0.0
S1585 S 0.47863 0.85336 0.0258 0.0
N1586 N 0.50659 0.85233 0.03826 0.0
N1587 N 0.49005 0.89033 0.02329 0.0
C1588 C 0.51804 0.90367 0.03266 0.0
C1589 C 0.52686 0.88304 0.04085 0.0
C1590 C 0.0662 0.23994 0.37571 0.0
C1591 C 0.03938 0.24353 0.37789 0.0
C1592 C 0.0952 0.26426 0.3691 0.0
C1593 C 0.09841 0.29308 0.36464 0.0
H1594 H 0.06539 0.21884 0.38012 0.0
H1595 H 0.11565 0.2611 0.36863 0.0
S1596 S 0.03452 0.31281 0.36438 0.0
N1597 N 0.01702 0.27678 0.37192 0.0
N1598 N 0.07202 0.32295 0.36083 0.0
C1599 C 0.07152 0.29642 0.36568 0.0
C1600 C 0.04186 0.27151 0.37188 0.0
C1601 C 0.74146 0.77167 0.37833 0.0
C1602 C 0.77157 0.79656 0.38315 0.0
C1603 C 0.7169 0.77652 0.37221 0.0
C1604 C 0.72151 0.80646 0.37013 0.0
H1605 H 0.73659 0.74809 0.37955 0.0
H1606 H 0.69395 0.75658 0.36915 0.0
S1607 S 0.79523 0.87971 0.38123 0.0
N1608 N 0.80415 0.85253 0.38571 0.0
N1609 N 0.75813 0.86142 0.37386 0.0
C1610 C 0.75151 0.83163 0.37457 0.0
C1611 C 0.77653 0.82674 0.38103 0.0
C1612 C 0.23155 0.96829 0.38474 0.0
C1613 C 0.20993 0.97933 0.38508 0.0
C1614 C 0.22354 0.9397 0.37672 0.0
C1615 C 0.19393 0.92129 0.36816 0.0
H1616 H 0.25503 0.98183 0.39068 0.0
H1617 H 0.24089 0.93216 0.37708 0.0
S1618 S 0.12872 0.93931 0.36469 0.0
N1619 N 0.15687 0.96854 0.37645 0.0
N1620 N 0.14324 0.91652 0.35981 0.0
C1621 C 0.17244 0.93238 0.36777 0.0
C1622 C 0.18006 0.96092 0.37658 0.0
C1623 C 0.5579 0.70776 0.32433 0.0
C1624 C 0.56711 0.695 0.30977 0.0
C1625 C 0.57948 0.73613 0.33253 0.0
C1626 C 0.61148 0.75279 0.32686 0.0
H1627 H 0.53379 0.69566 0.32958 0.0
H1628 H 0.57076 0.74502 0.34335 0.0
S1629 S 0.6471 0.7307 0.28808 0.0
N1630 N 0.60982 0.70251 0.28891 0.0
N1631 N 0.65078 0.75476 0.30494 0.0
C1632 C 0.62093 0.74042 0.31211 0.0
C1633 C 0.59873 0.71181 0.30349 0.0
C1634 C 0.30893 0.90144 0.32273 0.0
C1635 C 0.31368 0.87643 0.31856 0.0
C1636 C 0.27925 0.89677 0.32848 0.0
C1637 C 0.25308 0.86691 0.33083 0.0
H1638 H 0.32818 0.925 0.32115 0.0
H1639 H 0.2766 0.9168 0.33082 0.0
S1640 S 0.25241 0.7933 0.32245 0.0
N1641 N 0.28912 0.82034 0.31756 0.0
N1642 N 0.23382 0.81185 0.32885 0.0
C1643 C 0.25758 0.84163 0.32745 0.0
C1644 C 0.28776 0.84632 0.32132 0.0
C1645 C 0.12551 0.41526 0.30689 0.0
C1646 C 0.1434 0.44731 0.31006 0.0
C1647 C 0.13299 0.39477 0.31572 0.0
C1648 C 0.15884 0.40533 0.32809 0.0
H1649 H 0.10572 0.40584 0.29726 0.0
H1650 H 0.11829 0.37038 0.31266 0.0
S1651 S 0.21364 0.48723 0.34107 0.0
N1652 N 0.1879 0.48872 0.32676 0.0
N1653 N 0.20295 0.45033 0.34266 0.0
C1654 C 0.17712 0.43738 0.33134 0.0
C1655 C 0.16923 0.4583 0.32247 0.0
C1656 C 0.28999 0.43991 0.32176 0.0
C1657 C 0.31711 0.43731 0.31852 0.0
C1658 C 0.26194 0.41489 0.32883 0.0
C1659 C 0.26002 0.38635 0.33253 0.0
H1660 H 0.29021 0.4611 0.31826 0.0
H1661 H 0.24119 0.41739 0.33034 0.0
S1662 S 0.32487 0.36836 0.3275 0.0
N1663 N 0.34085 0.40469 0.32068 0.0
N1664 N 0.28789 0.35744 0.33335 0.0
C1665 C 0.28729 0.3839 0.32997 0.0
C1666 C 0.31594 0.40947 0.32317 0.0
C1667 C 0.57399 0.84697 0.31942 0.0
C1668 C 0.57688 0.8762 0.31664 0.0
C1669 C 0.59965 0.84413 0.3261 0.0
C1670 C 0.6292 0.87045 0.33 0.0
H1671 H 0.55184 0.82618 0.31622 0.0
H1672 H 0.59661 0.82124 0.32763 0.0
S1673 S 0.64902 0.95205 0.32522 0.0
N1674 N 0.61151 0.93182 0.31867 0.0
N1675 N 0.65974 0.92648 0.33072 0.0
C1676 C 0.63227 0.89968 0.32736 0.0
C1677 C 0.60609 0.90257 0.32092 0.0
C1678 C 0.15748 0.71788 0.3033 0.0
C1679 C 0.13276 0.6898 0.3104 0.0
C1680 C 0.16494 0.74625 0.31138 0.0
C1681 C 0.14833 0.74751 0.32701 0.0
H1682 H 0.1713 0.71798 0.29143 0.0
H1683 H 0.1838 0.76735 0.30535 0.0
S1684 S 0.08091 0.68162 0.35061 0.0
N1685 N 0.09078 0.6656 0.33365 0.0
N1686 N 0.10586 0.71917 0.34912 0.0
C1687 C 0.1237 0.71997 0.33433 0.0
C1688 C 0.11572 0.69101 0.32599 0.0
C1689 C 0.7954 0.96979 0.37496 0.0
C1690 C 0.78653 0.98406 0.38866 0.0
C1691 C 0.77312 0.94134 0.36723 0.0
C1692 C 0.74084 0.92633 0.3725 0.0
H1693 H 0.8199 0.98042 0.37046 0.0
H1694 H 0.78157 0.93096 0.35721 0.0
S1695 S 0.70586 0.95507 0.40791 0.0
N1696 N 0.74386 0.98162 0.40743 0.0
N1697 N 0.70151 0.92862 0.39253 0.0
C1698 C 0.73175 0.94069 0.38621 0.0
C1699 C 0.75468 0.96944 0.39434 0.0
C1700 C 0.03374 0.77105 0.37102 0.0
C1701 C 0.03285 0.79467 0.38128 0.0
C1702 C 0.06248 0.77488 0.36394 0.0
C1703 C 0.09115 0.80302 0.3659 0.0
H1704 H 0.01232 0.74892 0.3692 0.0
H1705 H 0.06235 0.75551 0.35702 0.0
S1706 S 0.10228 0.87076 0.39322 0.0
N1707 N 0.06369 0.84651 0.394 0.0
N1708 N 0.1173 0.85369 0.3804 0.0
C1709 C 0.0906 0.82678 0.37609 0.0
C1710 C 0.06154 0.82267 0.38373 0.0
C1711 C 0.23864 0.26489 0.38782 0.0
C1712 C 0.21964 0.23284 0.38556 0.0
C1713 C 0.23011 0.28512 0.37964 0.0
C1714 C 0.20209 0.27401 0.36903 0.0
H1715 H 0.2602 0.27435 0.39601 0.0
H1716 H 0.24565 0.30968 0.38176 0.0
S1717 S 0.1433 0.1914 0.36022 0.0
N1718 N 0.17145 0.19051 0.37258 0.0
N1719 N 0.15465 0.22835 0.35759 0.0
C1720 C 0.18276 0.24179 0.36684 0.0
C1721 C 0.19172 0.22124 0.37503 0.0
C1722 C 0.72751 0.5673 0.71115 0.0
C1723 C 0.70025 0.57019 0.71318 0.0
C1724 C 0.75599 0.59169 0.70402 0.0
C1725 C 0.75814 0.61977 0.69879 0.0
H1726 H 0.72746 0.54681 0.7161 0.0
H1727 H 0.77689 0.58927 0.70377 0.0
S1728 S 0.6926 0.63718 0.69793 0.0
N1729 N 0.67626 0.60176 0.70639 0.0
N1730 N 0.73022 0.64803 0.69411 0.0
C1731 C 0.73073 0.62226 0.69964 0.0
C1732 C 0.70165 0.59733 0.70646 0.0
C1733 C 0.40509 0.1024 0.71168 0.0
C1734 C 0.43517 0.12763 0.71619 0.0
C1735 C 0.38005 0.10675 0.70591 0.0
C1736 C 0.38416 0.13651 0.70389 0.0
H1737 H 0.40065 0.07896 0.71287 0.0
H1738 H 0.35717 0.0866 0.70303 0.0
S1739 S 0.45753 0.21044 0.71437 0.0
N1740 N 0.46714 0.18367 0.7186 0.0
N1741 N 0.42022 0.19163 0.7074 0.0
C1742 C 0.41409 0.162 0.70806 0.0
C1743 C 0.43958 0.15762 0.71416 0.0
C1744 C 0.91227 0.3104 0.70964 0.0
C1745 C 0.89048 0.32107 0.71149 0.0
C1746 C 0.90282 0.28079 0.70274 0.0
C1747 C 0.87145 0.26102 0.69692 0.0
H1748 H 0.93684 0.32489 0.7137 0.0
H1749 H 0.9202 0.27331 0.70202 0.0
S1750 S 0.80493 0.27715 0.69873 0.0
N1751 N 0.83553 0.30851 0.70737 0.0
N1752 N 0.81873 0.25407 0.69303 0.0
C1753 C 0.84968 0.27162 0.69803 0.0
C1754 C 0.85894 0.30133 0.70564 0.0
C1755 C 0.22116 0.04552 0.65019 0.0
C1756 C 0.22965 0.02274 0.64697 0.0
C1757 C 0.24266 0.07419 0.65807 0.0
C1758 C 0.27371 0.0815 0.66268 0.0
H1759 H 0.19786 0.04142 0.64632 0.0
H1760 H 0.23507 0.091 0.66022 0.0
S1761 S 0.30701 0.02926 0.65916 0.0
N1762 N 0.27065 0.00876 0.65079 0.0
N1763 N 0.31132 0.06319 0.66483 0.0
C1764 C 0.28246 0.05896 0.65989 0.0
C1765 C 0.2604 0.02948 0.65221 0.0
C1766 C 0.94971 0.17693 0.64652 0.0
C1767 C 0.97828 0.20463 0.65001 0.0
C1768 C 0.92049 0.17244 0.65317 0.0
C1769 C 0.91888 0.19517 0.66394 0.0
H1770 H 0.94976 0.1591 0.63793 0.0
H1771 H 0.8989 0.15143 0.64942 0.0
S1772 S 0.9866 0.27079 0.67806 0.0
N1773 N 1.00303 0.25442 0.66578 0.0
N1774 N 0.94807 0.24595 0.67805 0.0
C1775 C 0.94718 0.2226 0.66784 0.0
C1776 C 0.97691 0.22725 0.66107 0.0
C1777 C 0.81707 0.78022 0.65955 0.0
C1778 C 0.79522 0.77112 0.64481 0.0
C1779 C 0.82503 0.7594 0.66756 0.0
C1780 C 0.81099 0.72852 0.66137 0.0
H1781 H 0.82847 0.80375 0.66472 0.0
H1782 H 0.84263 0.76781 0.67853 0.0
S1783 S 0.75098 0.69328 0.62349 0.0
N1784 N 0.75906 0.7295 0.62454 0.0
N1785 N 0.77328 0.69005 0.63961 0.0
C1786 C 0.78868 0.71918 0.64671 0.0
C1787 C 0.78096 0.74054 0.63844 0.0
C1788 C 0.97463 0.73783 0.65629 0.0
C1789 C 0.9773 0.76647 0.652 0.0
C1790 C 0.94589 0.71304 0.66268 0.0
C1791 C 0.919 0.71618 0.66546 0.0
H1792 H 0.99441 0.73407 0.65375 0.0
H1793 H 0.94439 0.6909 0.66495 0.0
S1794 S 0.9146 0.78735 0.6577 0.0
N1795 N 0.95143 0.7973 0.65207 0.0
N1796 N 0.89741 0.75074 0.66407 0.0
C1797 C 0.92184 0.74517 0.66206 0.0
C1798 C 0.95103 0.77033 0.65537 0.0
C1799 C 0.23614 0.17616 0.65358 0.0
C1800 C 0.23895 0.20538 0.65099 0.0
C1801 C 0.26167 0.17331 0.66043 0.0
C1802 C 0.29099 0.19962 0.6647 0.0
H1803 H 0.21423 0.15539 0.64996 0.0
H1804 H 0.25881 0.15047 0.66164 0.0
S1805 S 0.31042 0.28119 0.66075 0.0
N1806 N 0.27314 0.26098 0.65377 0.0
N1807 N 0.32119 0.25562 0.66614 0.0
C1808 C 0.29391 0.22884 0.6624 0.0
C1809 C 0.26784 0.23173 0.65578 0.0
C1810 C 0.81242 0.0439 0.64384 0.0
C1811 C 0.79077 0.01683 0.65324 0.0
C1812 C 0.82088 0.07299 0.65107 0.0
C1813 C 0.80853 0.07604 0.66814 0.0
H1814 H 0.82239 0.04252 0.6306 0.0
H1815 H 0.83725 0.09334 0.64322 0.0
S1816 S 0.75168 0.01236 0.69841 0.0
N1817 N 0.75726 0.9947 0.68052 0.0
N1818 N 0.77412 0.04983 0.69446 0.0
C1819 C 0.78744 0.04926 0.67794 0.0
C1820 C 0.77824 0.01949 0.67035 0.0
C1821 C 0.45606 0.30017 0.70827 0.0
C1822 C 0.44718 0.31367 0.72246 0.0
C1823 C 0.43403 0.27164 0.7005 0.0
C1824 C 0.402 0.25576 0.70627 0.0
H1825 H 0.48042 0.31142 0.70343 0.0
H1826 H 0.4425 0.26186 0.69008 0.0
S1827 S 0.36699 0.28231 0.743 0.0
N1828 N 0.40467 0.30964 0.74211 0.0
N1829 N 0.36284 0.25641 0.72726 0.0
C1830 C 0.39287 0.26937 0.72044 0.0
C1831 C 0.41553 0.29822 0.72856 0.0
C1832 C 0.72542 0.16922 0.71223 0.0
C1833 C 0.70226 0.13802 0.71483 0.0
C1834 C 0.75624 0.17767 0.7064 0.0
C1835 C 0.765 0.15532 0.70271 0.0
H1836 H 0.71993 0.18728 0.71529 0.0
H1837 H 0.77364 0.20193 0.70538 0.0
S1838 S 0.71372 0.07062 0.70827 0.0
N1839 N 0.6903 0.08466 0.71357 0.0
N1840 N 0.74857 0.10074 0.70301 0.0
C1841 C 0.74211 0.12405 0.70525 0.0
C1842 C 0.71057 0.11536 0.71104 0.0
C1843 C 0.90589 0.59745 0.71676 0.0
C1844 C 0.88507 0.56547 0.71793 0.0
C1845 C 0.89579 0.61696 0.70928 0.0
C1846 C 0.8647 0.60502 0.70246 0.0
H1847 H 0.92993 0.60746 0.72199 0.0
H1848 H 0.91254 0.64153 0.70878 0.0
S1849 S 0.80153 0.52248 0.70196 0.0
N1850 N 0.8324 0.52244 0.71151 0.0
N1851 N 0.81335 0.55898 0.69716 0.0
C1852 C 0.84388 0.57289 0.70323 0.0
C1853 C 0.85408 0.55313 0.71108 0.0
C1854 C 0.52056 0.99928 0.17836 0.0
C1855 C 0.49345 0.96999 0.18046 0.0
C1856 C 0.52783 0.01501 0.16124 0.0
C1857 C 0.50799 0.00243 0.1455 0.0
H1858 H 0.53625 0.01018 0.1901 0.0
H1859 H 0.5492 0.0374 0.1604 0.0
S1860 S 0.43328 0.92645 0.14413 0.0
N1861 N 0.44664 0.92877 0.16557 0.0
N1862 N 0.45933 0.95866 0.13359 0.0
C1863 C 0.48078 0.9729 0.14748 0.0
C1864 C 0.47373 0.95668 0.16489 0.0
C1865 C 0.03457 0.52764 0.1594 0.0
C1866 C 0.01779 0.51086 0.17528 0.0
C1867 C 0.01959 0.52297 0.14206 0.0
C1868 C 0.98719 0.50113 0.13978 0.0
H1869 H 0.05956 0.54471 0.16036 0.0
H1870 H 0.03344 0.53711 0.13044 0.0
S1871 S 0.93269 0.4501 0.1767 0.0
N1872 N 0.96684 0.47129 0.18752 0.0
N1873 N 0.93915 0.46133 0.15473 0.0
C1874 C 0.97027 0.48358 0.15542 0.0
C1875 C 0.98545 0.48864 0.17316 0.0
C1876 C 0.47966 0.48097 0.17189 0.0
C1877 C 0.49106 0.51193 0.17707 0.0
C1878 C 0.48878 0.47351 0.15495 0.0
C1879 C 0.50912 0.49671 0.14244 0.0
H1880 H 0.46429 0.46244 0.18123 0.0
H1881 H 0.47998 0.4494 0.15165 0.0
S1882 S 0.54427 0.5812 0.14913 0.0
N1883 N 0.52304 0.56587 0.16817 0.0
N1884 N 0.53969 0.55184 0.13621 0.0
C1885 C 0.51994 0.5277 0.14724 0.0
C1886 C 0.51107 0.5353 0.1646 0.0
C1887 C 0.98714 0.46347 0.86513 0.0
C1888 C 0.99036 0.48744 0.85346 0.0
C1889 C 1.00297 0.46998 0.88229 0.0
C1890 C 0.02302 0.50065 0.88805 0.0
H1891 H 0.97235 0.43957 0.86093 0.0
H1892 H 1.00005 0.45096 0.89093 0.0
S1893 S 0.03918 0.57152 0.86262 0.0
N1894 N 0.01454 0.54288 0.84894 0.0
N1895 N 0.04485 0.55511 0.88106 0.0
C1896 C 0.0263 0.52478 0.87657 0.0
C1897 C 0.00978 0.51816 0.85928 0.0
C1898 C 0.54071 0.51089 0.86783 0.0
C1899 C 0.51988 0.48831 0.85518 0.0
C1900 C 0.52954 0.51618 0.88473 0.0
C1901 C 0.49708 0.4995 0.88934 0.0
H1902 H 0.56584 0.52432 0.86472 0.0
H1903 H 0.54632 0.5337 0.89415 0.0
S1904 S 0.43287 0.43814 0.86088 0.0
N1905 N 0.46534 0.44926 0.84839 0.0
N1906 N 0.44437 0.45945 0.88 0.0
C1907 C 0.47605 0.47701 0.87677 0.0
C1908 C 0.48745 0.47134 0.85973 0.0
C1909 C 0.49897 0.00552 0.85467 0.0
C1910 C 0.52463 0.03593 0.85287 0.0
C1911 C 0.49235 0.98938 0.87156 0.0
C1912 C 0.51136 0.0025 0.8875 0.0
H1913 H 0.48406 0.99366 0.84281 0.0
H1914 H 0.47208 0.96619 0.87204 0.0
S1915 S 0.581 0.08189 0.89061 0.0
N1916 N 0.56814 0.07928 0.86904 0.0
N1917 N 0.55718 0.04811 0.90033 0.0
C1918 C 0.537 0.03302 0.88602 0.0
C1919 C 0.54335 0.04981 0.86885 0.0
C1920 C 0.19388 0.30985 0.50563 0.0
C1921 C 0.16167 0.29518 0.51082 0.0
C1922 C 0.20449 0.32608 0.48873 0.0
C1923 C 0.18329 0.3279 0.47613 0.0
H1924 H 0.2112 0.30956 0.51497 0.0
H1925 H 0.22962 0.33761 0.48557 0.0
S1926 S 0.09627 0.29203 0.48256 0.0
N1927 N 0.10845 0.28254 0.50161 0.0
N1928 N 0.12836 0.31274 0.4698 0.0
C1929 C 0.15088 0.31252 0.48086 0.0
C1930 C 0.14011 0.29633 0.49821 0.0
C1931 C 0.66845 0.86733 0.50669 0.0
C1932 C 0.68365 0.85103 0.51235 0.0
C1933 C 0.65423 0.86242 0.48907 0.0
C1934 C 0.6551 0.84138 0.47636 0.0
H1935 H 0.66711 0.88367 0.51607 0.0
H1936 H 0.64262 0.87534 0.48532 0.0
S1937 S 0.69267 0.79351 0.48425 0.0
N1938 N 0.69923 0.81342 0.50376 0.0
N1939 N 0.67259 0.80426 0.47061 0.0
C1940 C 0.67058 0.82523 0.48176 0.0
C1941 C 0.68476 0.82999 0.49977 0.0
C1942 C 0.13866 0.81651 0.50404 0.0
C1943 C 0.14932 0.84733 0.50923 0.0
C1944 C 0.14808 0.80943 0.48709 0.0
C1945 C 0.168 0.83288 0.47459 0.0
H1946 H 0.12379 0.79783 0.51343 0.0
H1947 H 0.13999 0.78544 0.48382 0.0
S1948 S 0.20098 0.91709 0.48124 0.0
N1949 N 0.17997 0.90137 0.5003 0.0
N1950 N 0.19722 0.88803 0.46832 0.0
C1951 C 0.17794 0.86369 0.47935 0.0
C1952 C 0.16876 0.87092 0.49672 0.0
C1953 C 0.6605 0.80353 0.20187 0.0
C1954 C 0.66445 0.82671 0.18926 0.0
C1955 C 0.67611 0.81113 0.21913 0.0
C1956 C 0.69666 0.84212 0.22413 0.0
H1957 H 0.64507 0.77938 0.19841 0.0
H1958 H 0.67245 0.79267 0.22852 0.0
S1959 S 0.71507 0.91127 0.19603 0.0
N1960 N 0.69012 0.8818 0.18297 0.0
N1961 N 0.71993 0.89606 0.2153 0.0
C1962 C 0.70086 0.86547 0.21164 0.0
C1963 C 0.68459 0.85777 0.19423 0.0
C1964 C 0.20568 0.84232 0.19859 0.0
C1965 C 0.18441 0.82029 0.18582 0.0
C1966 C 0.19496 0.84744 0.21572 0.0
C1967 C 0.16255 0.83115 0.22047 0.0
H1968 H 0.23077 0.85551 0.19536 0.0
H1969 H 0.21204 0.86466 0.22516 0.0
S1970 S 0.09732 0.77116 0.19187 0.0
N1971 N 0.12951 0.7821 0.17914 0.0
N1972 N 0.10944 0.79192 0.21118 0.0
C1973 C 0.14112 0.8091 0.20783 0.0
C1974 C 0.15203 0.80361 0.19055 0.0
C1975 C 0.1606 0.36447 0.19308 0.0
C1976 C 0.19151 0.37529 0.18609 0.0
C1977 C 0.15109 0.34967 0.21043 0.0
C1978 C 0.17217 0.34542 0.22174 0.0
H1979 H 0.14335 0.36711 0.18495 0.0
H1980 H 0.12684 0.34108 0.21495 0.0
S1981 S 0.25569 0.36941 0.21042 0.0
N1982 N 0.24319 0.38047 0.19218 0.0
N1983 N 0.22541 0.35351 0.22503 0.0
C1984 C 0.20338 0.35691 0.21534 0.0
C1985 C 0.21304 0.37166 0.1975 0.0
C1986 C 0.80446 0.6267 0.83168 0.0
C1987 C 0.8261 0.62443 0.84372 0.0
C1988 C 0.81444 0.64293 0.81468 0.0
C1989 C 0.84655 0.65801 0.80925 0.0
H1990 H 0.77962 0.61595 0.83549 0.0
H1991 H 0.7971 0.64453 0.80602 0.0
S1992 S 0.91261 0.65887 0.83551 0.0
N1993 N 0.88108 0.63836 0.84871 0.0
N1994 N 0.89974 0.66895 0.81701 0.0
C1995 C 0.86829 0.65556 0.82102 0.0
C1996 C 0.85811 0.63876 0.83815 0.0
C1997 C 0.3221 0.17381 0.84379 0.0
C1998 C 0.34856 0.17004 0.84631 0.0
C1999 C 0.30714 0.16852 0.82638 0.0
C2000 C 0.31788 0.1589 0.81087 0.0
H2001 H 0.31316 0.18129 0.85533 0.0
H2002 H 0.28718 0.17232 0.82503 0.0
S2003 S 0.38533 0.14379 0.81088 0.0
N2004 N 0.38462 0.15553 0.83232 0.0
N2005 N 0.35592 0.14429 0.79973 0.0
C2006 C 0.34417 0.1546 0.81341 0.0
C2007 C 0.35962 0.16045 0.83109 0.0
C2008 C 0.85315 0.1946 0.83252 0.0
C2009 C 0.82429 0.17225 0.84059 0.0
C2010 C 0.86363 0.18932 0.81541 0.0
C2011 C 0.84571 0.16151 0.8055 0.0
H2012 H 0.868 0.21635 0.83958 0.0
H2013 H 0.88626 0.20708 0.80997 0.0
S2014 S 0.76839 0.09545 0.82029 0.0
N2015 N 0.7778 0.12114 0.83715 0.0
N2016 N 0.79745 0.11145 0.80488 0.0
C2017 C 0.81639 0.13929 0.81307 0.0
C2018 C 0.80571 0.14459 0.83061 0.0
C2019 C 0.31699 0.13213 0.53591 0.0
C2020 C 0.32185 0.15584 0.52347 0.0
C2021 C 0.33274 0.13893 0.55312 0.0
C2022 C 0.35435 0.1696 0.55824 0.0
H2023 H 0.30083 0.10819 0.53231 0.0
H2024 H 0.32843 0.12007 0.56234 0.0
S2025 S 0.37532 0.2399 0.53065 0.0
N2026 N 0.34945 0.21111 0.51751 0.0
N2027 N 0.3795 0.22384 0.54974 0.0
C2028 C 0.35938 0.19348 0.54595 0.0
C2029 C 0.34297 0.18661 0.5286 0.0
C2030 C 0.87733 0.19039 0.52832 0.0
C2031 C 0.86333 0.16025 0.52086 0.0
C2032 C 0.86672 0.19637 0.54518 0.0
C2033 C 0.84206 0.17239 0.55537 0.0
H2034 H 0.89664 0.20959 0.52106 0.0
H2035 H 0.87788 0.21992 0.5503 0.0
S2036 S 0.79643 0.08981 0.54195 0.0
N2037 N 0.82232 0.10637 0.52489 0.0
N2038 N 0.8035 0.11768 0.55692 0.0
C2039 C 0.82806 0.1422 0.54831 0.0
C2040 C 0.83844 0.1361 0.531 0.0
C2041 C 0.83425 0.70203 0.53254 0.0
C2042 C 0.85617 0.70057 0.52031 0.0
C2043 C 0.82639 0.68637 0.54974 0.0
C2044 C 0.83967 0.66821 0.55513 0.0
H2045 H 0.82297 0.71522 0.52872 0.0
H2046 H 0.80906 0.68768 0.5586 0.0
S2047 S 0.89843 0.65707 0.52836 0.0
N2048 N 0.89143 0.67998 0.51508 0.0
N2049 N 0.87623 0.65023 0.54715 0.0
C2050 C 0.86187 0.6669 0.54317 0.0
C2051 C 0.87024 0.68317 0.52584 0.0
loop_
_geom_bond_atom_site_label_1
_geom_bond_atom_site_label_2
_geom_bond_distance
_geom_bond_site_symmetry_2
_ccdc_geom_bond_type
C0 C1 1.386 . S
C0 C2 1.397 . S
C0 H24 0.931 . S
C1 C0 1.386 . S
C1 C5 1.397 . S
C2 C0 1.397 . S
C2 C3 1.384 . S
C2 H25 0.930 . S
C3 C2 1.384 . S
C3 C4 1.377 . S
C3 C6 1.481 . S
C4 C3 1.377 . S
C4 C5 1.389 . S
C4 H26 0.929 . S
C5 C1 1.397 . S
C5 C4 1.389 . S
C5 H27 0.931 . S
C6 C3 1.481 . S
C6 C7 1.387 . S
C6 C11 1.390 . S
C7 C6 1.387 . S
C7 C8 1.401 . S
C7 H28 0.930 . S
C8 C7 1.401 . S
C8 C9 1.376 . S
C8 C17 1.511 . S
C9 C8 1.376 . S
C9 C10 1.392 . S
C9 H30 0.931 . S
C10 C9 1.392 . S
C10 C11 1.361 . S
C10 C12 1.500 . S
C11 C6 1.390 . S
C11 C10 1.361 . S
C11 H29 0.931 . S
C12 C10 1.500 . S
C12 C13 1.371 . S
C12 C14 1.365 . S
C13 C12 1.371 . S
C13 C23 1.386 . S
C13 H31 0.931 . S
C14 C12 1.365 . S
C14 C15 1.409 . S
C14 H32 0.929 . S
C15 C14 1.409 . S
C15 C16 1.380 . S
C15 H33 0.930 . S
C16 C15 1.380 . S
C16 C23 1.357 . S
C17 C8 1.511 . S
C17 C18 1.341 . S
C17 C19 1.371 . S
C18 C17 1.341 . S
C18 C22 1.394 . S
C18 H34 0.930 . S
C19 C17 1.371 . S
C19 C20 1.392 . S
C19 H35 0.931 . S
C20 C19 1.392 . S
C20 C21 1.331 . S
C20 H38 0.932 . S
C21 C20 1.331 . S
C21 C22 1.336 . S
C22 C18 1.394 . S
C22 C21 1.336 . S
C22 H37 0.929 . S
C23 C13 1.386 . S
C23 C16 1.357 . S
C23 H36 0.928 . S
H24 C0 0.931 . S
H25 C2 0.930 . S
H26 C4 0.929 . S
H27 C5 0.931 . S
H28 C7 0.930 . S
H29 C11 0.931 . S
H30 C9 0.931 . S
H31 C13 0.931 . S
H32 C14 0.929 . S
H33 C15 0.930 . S
H34 C18 0.930 . S
H35 C19 0.931 . S
H36 C23 0.928 . S
H37 C22 0.929 . S
H38 C20 0.932 . S
C39 C40 1.386 . S
C39 C41 1.397 . S
C39 H63 0.931 . S
C40 C39 1.386 . S
C40 C44 1.397 . S
C41 C39 1.397 . S
C41 C42 1.384 . S
C41 H64 0.930 . S
C42 C41 1.384 . S
C42 C43 1.377 . S
C42 C45 1.481 . S
C43 C42 1.377 . S
C43 C44 1.389 . S
C43 H65 0.929 . S
C44 C40 1.397 . S
C44 C43 1.389 . S
C44 H66 0.931 . S
C45 C42 1.481 . S
C45 C46 1.387 . S
C45 C50 1.390 . S
C46 C45 1.387 . S
C46 C47 1.401 . S
C46 H67 0.930 . S
C47 C46 1.401 . S
C47 C48 1.376 . S
C47 C56 1.511 . S
C48 C47 1.376 . S
C48 C49 1.392 . S
C48 H69 0.931 . S
C49 C48 1.392 . S
C49 C50 1.361 . S
C49 C51 1.500 . S
C50 C45 1.390 . S
C50 C49 1.361 . S
C50 H68 0.931 . S
C51 C49 1.500 . S
C51 C52 1.371 . S
C51 C53 1.365 . S
C52 C51 1.371 . S
C52 C62 1.386 . S
C52 H70 0.931 . S
C53 C51 1.365 . S
C53 C54 1.409 . S
C53 H71 0.929 . S
C54 C53 1.409 . S
C54 C55 1.380 . S
C54 H72 0.930 1_545 S
C55 C54 1.380 . S
C55 C62 1.357 . S
C56 C47 1.511 . S
C56 C57 1.341 . S
C56 C58 1.371 . S
C57 C56 1.341 . S
C57 C61 1.394 . S
C57 H73 0.930 . S
C58 C56 1.371 . S
C58 C59 1.392 . S
C58 H74 0.931 . S
C59 C58 1.392 . S
C59 C60 1.331 . S
C59 H77 0.932 . S
C60 C59 1.331 . S
C60 C61 1.336 . S
C61 C57 1.394 . S
C61 C60 1.336 . S
C61 H76 0.929 . S
C62 C52 1.386 . S
C62 C55 1.357 . S
C62 H75 0.928 . S
H63 C39 0.931 . S
H64 C41 0.930 . S
H65 C43 0.929 . S
H66 C44 0.931 . S
H67 C46 0.930 . S
H68 C50 0.931 . S
H69 C48 0.931 . S
H70 C52 0.931 . S
H71 C53 0.929 . S
H72 C54 0.930 1_565 S
H73 C57 0.930 . S
H74 C58 0.931 . S
H75 C62 0.928 . S
H76 C61 0.929 . S
H77 C59 0.932 . S
C78 C79 1.386 . S
C78 C80 1.397 . S
C78 H102 0.931 . S
C79 C78 1.386 . S
C79 C83 1.397 . S
C80 C78 1.397 . S
C80 C81 1.384 . S
C80 H103 0.930 . S
C81 C80 1.384 . S
C81 C82 1.377 . S
C81 C84 1.481 . S
C82 C81 1.377 . S
C82 C83 1.389 . S
C82 H104 0.929 . S
C83 C79 1.397 . S
C83 C82 1.389 . S
C83 H105 0.931 . S
C84 C81 1.481 . S
C84 C85 1.387 . S
C84 C89 1.390 . S
C85 C84 1.387 . S
C85 C86 1.401 . S
C85 H106 0.930 . S
C86 C85 1.401 . S
C86 C87 1.376 . S
C86 C95 1.511 . S
C87 C86 1.376 . S
C87 C88 1.392 . S
C87 H108 0.931 . S
C88 C87 1.392 . S
C88 C89 1.361 . S
C88 C90 1.500 . S
C89 C84 1.390 . S
C89 C88 1.361 . S
C89 H107 0.931 . S
C90 C88 1.500 . S
C90 C91 1.371 . S
C90 C92 1.365 . S
C91 C90 1.371 . S
C91 C101 1.386 . S
C91 H109 0.931 . S
C92 C90 1.365 . S
C92 C93 1.409 . S
C92 H110 0.929 . S
C93 C92 1.409 . S
C93 C94 1.380 . S
C93 H111 0.930 . S
C94 C93 1.380 . S
C94 C101 1.357 . S
C95 C86 1.511 . S
C95 C96 1.341 . S
C95 C97 1.371 . S
C96 C95 1.341 . S
C96 C100 1.394 . S
C96 H112 0.930 . S
C97 C95 1.371 . S
C97 C98 1.392 . S
C97 H113 0.931 . S
C98 C97 1.392 . S
C98 C99 1.331 . S
C98 H116 0.932 . S
C99 C98 1.331 . S
C99 C100 1.336 . S
C100 C96 1.394 . S
C100 C99 1.336 . S
C100 H115 0.929 1_655 S
C101 C91 1.386 . S
C101 C94 1.357 . S
C101 H114 0.928 . S
H102 C78 0.931 . S
H103 C80 0.930 . S
H104 C82 0.929 . S
H105 C83 0.931 . S
H106 C85 0.930 . S
H107 C89 0.931 . S
H108 C87 0.931 . S
H109 C91 0.931 . S
H110 C92 0.929 . S
H111 C93 0.930 . S
H112 C96 0.930 . S
H113 C97 0.931 . S
H114 C101 0.928 . S
H115 C100 0.929 1_455 S
H116 C98 0.932 . S
C117 C118 1.386 . S
C117 C119 1.397 . S
C117 H141 0.931 . S
C118 C117 1.386 . S
C118 C122 1.397 . S
C119 C117 1.397 . S
C119 C120 1.384 . S
C119 H142 0.930 . S
C120 C119 1.384 . S
C120 C121 1.377 . S
C120 C123 1.481 . S
C121 C120 1.377 . S
C121 C122 1.389 . S
C121 H143 0.929 . S
C122 C118 1.397 . S
C122 C121 1.389 . S
C122 H144 0.931 . S
C123 C120 1.481 . S
C123 C124 1.387 . S
C123 C128 1.390 . S
C124 C123 1.387 . S
C124 C125 1.401 . S
C124 H145 0.930 . S
C125 C124 1.401 . S
C125 C126 1.376 . S
C125 C134 1.511 . S
C126 C125 1.376 . S
C126 C127 1.392 . S
C126 H147 0.931 . S
C127 C126 1.392 . S
C127 C128 1.361 . S
C127 C129 1.500 . S
C128 C123 1.390 . S
C128 C127 1.361 . S
C128 H146 0.931 . S
C129 C127 1.500 . S
C129 C130 1.371 . S
C129 C131 1.365 . S
C130 C129 1.371 . S
C130 C140 1.386 . S
C130 H148 0.931 . S
C131 C129 1.365 . S
C131 C132 1.409 . S
C131 H149 0.929 . S
C132 C131 1.409 . S
C132 C133 1.380 . S
C132 H150 0.930 . S
C133 C132 1.380 . S
C133 C140 1.357 . S
C134 C125 1.511 . S
C134 C135 1.341 . S
C134 C136 1.371 . S
C135 C134 1.341 . S
C135 C139 1.394 . S
C135 H151 0.930 . S
C136 C134 1.371 . S
C136 C137 1.392 . S
C136 H152 0.931 . S
C137 C136 1.392 . S
C137 C138 1.331 . S
C137 H155 0.932 . S
C138 C137 1.331 . S
C138 C139 1.336 . S
C139 C135 1.394 . S
C139 C138 1.336 . S
C139 H154 0.929 . S
C140 C130 1.386 . S
C140 C133 1.357 . S
C140 H153 0.928 . S
H141 C117 0.931 . S
H142 C119 0.930 . S
H143 C121 0.929 . S
H144 C122 0.931 . S
H145 C124 0.930 . S
H146 C128 0.931 . S
H147 C126 0.931 . S
H148 C130 0.931 . S
H149 C131 0.929 . S
H150 C132 0.930 . S
H151 C135 0.930 . S
H152 C136 0.931 . S
H153 C140 0.928 . S
H154 C139 0.929 . S
H155 C137 0.932 . S
C156 C157 1.386 . S
C156 C158 1.397 . S
C156 H180 0.931 . S
C157 C156 1.386 . S
C157 C161 1.397 . S
C158 C156 1.397 . S
C158 C159 1.384 . S
C158 H181 0.930 . S
C159 C158 1.384 . S
C159 C160 1.377 . S
C159 C162 1.481 . S
C160 C159 1.377 . S
C160 C161 1.389 . S
C160 H182 0.929 . S
C161 C157 1.397 . S
C161 C160 1.389 . S
C161 H183 0.931 . S
C162 C159 1.481 . S
C162 C163 1.387 . S
C162 C167 1.390 . S
C163 C162 1.387 . S
C163 C164 1.401 . S
C163 H184 0.930 . S
C164 C163 1.401 . S
C164 C165 1.376 . S
C164 C173 1.511 . S
C165 C164 1.376 . S
C165 C166 1.392 . S
C165 H186 0.931 . S
C166 C165 1.392 . S
C166 C167 1.361 . S
C166 C168 1.500 . S
C167 C162 1.390 . S
C167 C166 1.361 . S
C167 H185 0.931 . S
C168 C166 1.500 . S
C168 C169 1.371 . S
C168 C170 1.365 . S
C169 C168 1.371 . S
C169 C179 1.386 . S
C169 H187 0.931 . S
C170 C168 1.365 . S
C170 C171 1.409 . S
C170 H188 0.929 . S
C171 C170 1.409 . S
C171 C172 1.380 . S
C171 H189 0.930 1_565 S
C172 C171 1.380 . S
C172 C179 1.357 . S
C173 C164 1.511 . S
C173 C174 1.341 . S
C173 C175 1.371 . S
C174 C173 1.341 . S
C174 C178 1.394 . S
C174 H190 0.930 . S
C175 C173 1.371 . S
C175 C176 1.392 . S
C175 H191 0.931 . S
C176 C175 1.392 . S
C176 C177 1.331 . S
C176 H194 0.932 . S
C177 C176 1.331 . S
C177 C178 1.336 . S
C178 C174 1.394 . S
C178 C177 1.336 . S
C178 H193 0.929 . S
C179 C169 1.386 . S
C179 C172 1.357 . S
C179 H192 0.928 . S
H180 C156 0.931 . S
H181 C158 0.930 . S
H182 C160 0.929 . S
H183 C161 0.931 . S
H184 C163 0.930 . S
H185 C167 0.931 . S
H186 C165 0.931 . S
H187 C169 0.931 . S
H188 C170 0.929 . S
H189 C171 0.930 1_545 S
H190 C174 0.930 . S
H191 C175 0.931 . S
H192 C179 0.928 . S
H193 C178 0.929 . S
H194 C176 0.932 . S
C195 C196 1.386 . S
C195 C197 1.397 . S
C195 H219 0.931 . S
C196 C195 1.386 . S
C196 C200 1.397 . S
C197 C195 1.397 . S
C197 C198 1.384 . S
C197 H220 0.930 . S
C198 C197 1.384 . S
C198 C199 1.377 . S
C198 C201 1.481 . S
C199 C198 1.377 . S
C199 C200 1.389 . S
C199 H221 0.929 . S
C200 C196 1.397 . S
C200 C199 1.389 . S
C200 H222 0.931 . S
C201 C198 1.481 . S
C201 C202 1.387 . S
C201 C206 1.390 . S
C202 C201 1.387 . S
C202 C203 1.401 . S
C202 H223 0.930 . S
C203 C202 1.401 . S
C203 C204 1.376 . S
C203 C212 1.511 . S
C204 C203 1.376 . S
C204 C205 1.392 . S
C204 H225 0.931 . S
C205 C204 1.392 . S
C205 C206 1.361 . S
C205 C207 1.500 . S
C206 C201 1.390 . S
C206 C205 1.361 . S
C206 H224 0.931 . S
C207 C205 1.500 . S
C207 C208 1.371 . S
C207 C209 1.365 . S
C208 C207 1.371 . S
C208 C218 1.386 . S
C208 H226 0.931 . S
C209 C207 1.365 . S
C209 C210 1.409 . S
C209 H227 0.929 . S
C210 C209 1.409 . S
C210 C211 1.380 . S
C210 H228 0.930 . S
C211 C210 1.380 . S
C211 C218 1.357 . S
C212 C203 1.511 . S
C212 C213 1.341 . S
C212 C214 1.371 . S
C213 C212 1.341 . S
C213 C217 1.394 . S
C213 H229 0.930 . S
C214 C212 1.371 . S
C214 C215 1.392 . S
C214 H230 0.931 . S
C215 C214 1.392 . S
C215 C216 1.331 . S
C215 H233 0.932 . S
C216 C215 1.331 . S
C216 C217 1.336 . S
C217 C213 1.394 . S
C217 C216 1.336 . S
C217 H232 0.929 1_455 S
C218 C208 1.386 . S
C218 C211 1.357 . S
C218 H231 0.928 . S
H219 C195 0.931 . S
H220 C197 0.930 . S
H221 C199 0.929 . S
H222 C200 0.931 . S
H223 C202 0.930 . S
H224 C206 0.931 . S
H225 C204 0.931 . S
H226 C208 0.931 . S
H227 C209 0.929 . S
H228 C210 0.930 . S
H229 C213 0.930 . S
H230 C214 0.931 . S
H231 C218 0.928 . S
H232 C217 0.929 1_655 S
H233 C215 0.932 . S
C234 C235 1.386 . S
C234 C236 1.397 . S
C234 H258 0.931 . S
C235 C234 1.386 . S
C235 C239 1.397 . S
C236 C234 1.397 . S
C236 C237 1.384 . S
C236 H259 0.930 . S
C237 C236 1.384 . S
C237 C238 1.377 . S
C237 C240 1.481 . S
C238 C237 1.377 . S
C238 C239 1.389 . S
C238 H260 0.929 . S
C239 C235 1.397 . S
C239 C238 1.389 . S
C239 H261 0.931 . S
C240 C237 1.481 . S
C240 C241 1.387 . S
C240 C245 1.390 . S
C241 C240 1.387 . S
C241 C242 1.401 . S
C241 H262 0.930 . S
C242 C241 1.401 . S
C242 C243 1.376 . S
C242 C251 1.511 . S
C243 C242 1.376 . S
C243 C244 1.392 . S
C243 H264 0.931 . S
C244 C243 1.392 . S
C244 C245 1.361 . S
C244 C246 1.500 . S
C245 C240 1.390 . S
C245 C244 1.361 . S
C245 H263 0.931 . S
C246 C244 1.500 . S
C246 C247 1.371 . S
C246 C248 1.365 . S
C247 C246 1.371 . S
C247 C257 1.386 . S
C247 H265 0.931 . S
C248 C246 1.365 . S
C248 C249 1.409 . S
C248 H266 0.929 . S
C249 C248 1.409 . S
C249 C250 1.380 . S
C249 H267 0.930 . S
C250 C249 1.380 . S
C250 C257 1.357 . S
C251 C242 1.511 . S
C251 C252 1.341 . S
C251 C253 1.371 . S
C252 C251 1.341 . S
C252 C256 1.394 . S
C252 H268 0.930 . S
C253 C251 1.371 . S
C253 C254 1.392 . S
C253 H269 0.931 . S
C254 C253 1.392 . S
C254 C255 1.331 . S
C254 H272 0.932 . S
C255 C254 1.331 . S
C255 C256 1.336 . S
C256 C252 1.394 . S
C256 C255 1.336 . S
C256 H271 0.929 . S
C257 C247 1.386 . S
C257 C250 1.357 . S
C257 H270 0.928 . S
H258 C234 0.931 . S
H259 C236 0.930 . S
H260 C238 0.929 . S
H261 C239 0.931 . S
H262 C241 0.930 . S
H263 C245 0.931 . S
H264 C243 0.931 . S
H265 C247 0.931 . S
H266 C248 0.929 . S
H267 C249 0.930 . S
H268 C252 0.930 . S
H269 C253 0.931 . S
H270 C257 0.928 . S
H271 C256 0.929 . S
H272 C254 0.932 . S
C273 C274 1.386 . S
C273 C275 1.397 . S
C273 H297 0.931 . S
C274 C273 1.386 . S
C274 C278 1.397 . S
C275 C273 1.397 . S
C275 C276 1.384 . S
C275 H298 0.930 . S
C276 C275 1.384 . S
C276 C277 1.377 . S
C276 C279 1.481 . S
C277 C276 1.377 . S
C277 C278 1.389 . S
C277 H299 0.929 . S
C278 C274 1.397 . S
C278 C277 1.389 . S
C278 H300 0.931 . S
C279 C276 1.481 . S
C279 C280 1.387 . S
C279 C284 1.390 . S
C280 C279 1.387 . S
C280 C281 1.401 . S
C280 H301 0.930 . S
C281 C280 1.401 . S
C281 C282 1.376 . S
C281 C290 1.511 . S
C282 C281 1.376 . S
C282 C283 1.392 . S
C282 H303 0.931 . S
C283 C282 1.392 . S
C283 C284 1.361 . S
C283 C285 1.500 . S
C284 C279 1.390 . S
C284 C283 1.361 . S
C284 H302 0.931 . S
C285 C283 1.500 . S
C285 C286 1.371 . S
C285 C287 1.365 . S
C286 C285 1.371 . S
C286 C296 1.386 . S
C286 H304 0.931 . S
C287 C285 1.365 . S
C287 C288 1.409 . S
C287 H305 0.929 . S
C288 C287 1.409 . S
C288 C289 1.380 . S
C288 H306 0.930 . S
C289 C288 1.380 . S
C289 C296 1.357 . S
C290 C281 1.511 . S
C290 C291 1.341 . S
C290 C292 1.371 . S
C291 C290 1.341 . S
C291 C295 1.394 . S
C291 H307 0.930 . S
C292 C290 1.371 . S
C292 C293 1.392 . S
C292 H308 0.931 . S
C293 C292 1.392 . S
C293 C294 1.331 . S
C293 H311 0.932 . S
C294 C293 1.331 . S
C294 C295 1.336 . S
C295 C291 1.394 . S
C295 C294 1.336 . S
C295 H310 0.929 . S
C296 C286 1.386 . S
C296 C289 1.357 . S
C296 H309 0.928 . S
H297 C273 0.931 . S
H298 C275 0.930 . S
H299 C277 0.929 . S
H300 C278 0.931 . S
H301 C280 0.930 . S
H302 C284 0.931 . S
H303 C282 0.931 . S
H304 C286 0.931 . S
H305 C287 0.929 . S
H306 C288 0.930 . S
H307 C291 0.930 . S
H308 C292 0.931 . S
H309 C296 0.928 . S
H310 C295 0.929 . S
H311 C293 0.932 . S
C312 C313 1.386 . S
C312 C314 1.397 . S
C312 H336 0.931 . S
C313 C312 1.386 . S
C313 C317 1.397 . S
C314 C312 1.397 . S
C314 C315 1.384 . S
C314 H337 0.930 . S
C315 C314 1.384 . S
C315 C316 1.377 . S
C315 C318 1.481 . S
C316 C315 1.377 . S
C316 C317 1.389 . S
C316 H338 0.929 . S
C317 C313 1.397 . S
C317 C316 1.389 . S
C317 H339 0.931 . S
C318 C315 1.481 . S
C318 C319 1.387 . S
C318 C323 1.390 . S
C319 C318 1.387 . S
C319 C320 1.401 . S
C319 H340 0.930 . S
C320 C319 1.401 . S
C320 C321 1.376 . S
C320 C329 1.511 . S
C321 C320 1.376 . S
C321 C322 1.392 . S
C321 H342 0.931 . S
C322 C321 1.392 . S
C322 C323 1.361 . S
C322 C324 1.500 . S
C323 C318 1.390 . S
C323 C322 1.361 . S
C323 H341 0.931 . S
C324 C322 1.500 . S
C324 C325 1.371 . S
C324 C326 1.365 . S
C325 C324 1.371 . S
C325 C335 1.386 . S
C325 H343 0.931 . S
C326 C324 1.365 . S
C326 C327 1.409 . S
C326 H344 0.929 . S
C327 C326 1.409 . S
C327 C328 1.380 . S
C327 H345 0.930 . S
C328 C327 1.380 . S
C328 C335 1.357 . S
C329 C320 1.511 . S
C329 C330 1.341 . S
C329 C331 1.371 . S
C330 C329 1.341 . S
C330 C334 1.394 . S
C330 H346 0.930 . S
C331 C329 1.371 . S
C331 C332 1.392 . S
C331 H347 0.931 . S
C332 C331 1.392 . S
C332 C333 1.331 . S
C332 H350 0.932 . S
C333 C332 1.331 . S
C333 C334 1.336 . S
C334 C330 1.394 . S
C334 C333 1.336 . S
C334 H349 0.929 . S
C335 C325 1.386 . S
C335 C328 1.357 . S
C335 H348 0.928 . S
H336 C312 0.931 . S
H337 C314 0.930 . S
H338 C316 0.929 . S
H339 C317 0.931 . S
H340 C319 0.930 . S
H341 C323 0.931 . S
H342 C321 0.931 . S
H343 C325 0.931 . S
H344 C326 0.929 . S
H345 C327 0.930 . S
H346 C330 0.930 . S
H347 C331 0.931 . S
H348 C335 0.928 . S
H349 C334 0.929 . S
H350 C332 0.932 . S
C351 C352 1.386 . S
C351 C353 1.397 . S
C351 H375 0.931 . S
C352 C351 1.386 . S
C352 C356 1.397 . S
C353 C351 1.397 . S
C353 C354 1.384 . S
C353 H376 0.930 . S
C354 C353 1.384 . S
C354 C355 1.377 . S
C354 C357 1.481 . S
C355 C354 1.377 . S
C355 C356 1.389 . S
C355 H377 0.929 . S
C356 C352 1.397 . S
C356 C355 1.389 . S
C356 H378 0.931 . S
C357 C354 1.481 . S
C357 C358 1.387 . S
C357 C362 1.390 . S
C358 C357 1.387 . S
C358 C359 1.401 . S
C358 H379 0.930 . S
C359 C358 1.401 . S
C359 C360 1.376 . S
C359 C368 1.511 . S
C360 C359 1.376 . S
C360 C361 1.392 . S
C360 H381 0.931 . S
C361 C360 1.392 . S
C361 C362 1.361 . S
C361 C363 1.500 . S
C362 C357 1.390 . S
C362 C361 1.361 . S
C362 H380 0.931 . S
C363 C361 1.500 . S
C363 C364 1.371 . S
C363 C365 1.365 . S
C364 C363 1.371 . S
C364 C374 1.386 . S
C364 H382 0.931 . S
C365 C363 1.365 . S
C365 C366 1.409 . S
C365 H383 0.929 . S
C366 C365 1.409 . S
C366 C367 1.380 . S
C366 H384 0.930 . S
C367 C366 1.380 . S
C367 C374 1.357 . S
C368 C359 1.511 . S
C368 C369 1.341 . S
C368 C370 1.371 . S
C369 C368 1.341 . S
C369 C373 1.394 . S
C369 H385 0.930 . S
C370 C368 1.371 . S
C370 C371 1.392 . S
C370 H386 0.931 . S
C371 C370 1.392 . S
C371 C372 1.331 . S
C371 H389 0.932 . S
C372 C371 1.331 . S
C372 C373 1.336 . S
C373 C369 1.394 . S
C373 C372 1.336 . S
C373 H388 0.929 . S
C374 C364 1.386 . S
C374 C367 1.357 . S
C374 H387 0.928 . S
H375 C351 0.931 . S
H376 C353 0.930 . S
H377 C355 0.929 . S
H378 C356 0.931 . S
H379 C358 0.930 . S
H380 C362 0.931 . S
H381 C360 0.931 . S
H382 C364 0.931 . S
H383 C365 0.929 . S
H384 C366 0.930 . S
H385 C369 0.930 . S
H386 C370 0.931 . S
H387 C374 0.928 . S
H388 C373 0.929 . S
H389 C371 0.932 . S
C390 C391 1.386 . S
C390 C392 1.397 . S
C390 H414 0.931 . S
C391 C390 1.386 . S
C391 C395 1.397 . S
C392 C390 1.397 . S
C392 C393 1.384 . S
C392 H415 0.930 . S
C393 C392 1.384 . S
C393 C394 1.377 . S
C393 C396 1.481 . S
C394 C393 1.377 . S
C394 C395 1.389 . S
C394 H416 0.929 . S
C395 C391 1.397 . S
C395 C394 1.389 . S
C395 H417 0.931 . S
C396 C393 1.481 . S
C396 C397 1.387 . S
C396 C401 1.390 . S
C397 C396 1.387 . S
C397 C398 1.401 . S
C397 H418 0.930 . S
C398 C397 1.401 . S
C398 C399 1.376 . S
C398 C407 1.511 . S
C399 C398 1.376 . S
C399 C400 1.392 . S
C399 H420 0.931 . S
C400 C399 1.392 . S
C400 C401 1.361 . S
C400 C402 1.500 . S
C401 C396 1.390 . S
C401 C400 1.361 . S
C401 H419 0.931 . S
C402 C400 1.500 . S
C402 C403 1.371 . S
C402 C404 1.365 . S
C403 C402 1.371 . S
C403 C413 1.386 . S
C403 H421 0.931 . S
C404 C402 1.365 . S
C404 C405 1.409 . S
C404 H422 0.929 . S
C405 C404 1.409 . S
C405 C406 1.380 . S
C405 H423 0.930 . S
C406 C405 1.380 . S
C406 C413 1.357 . S
C407 C398 1.511 . S
C407 C408 1.341 . S
C407 C409 1.371 . S
C408 C407 1.341 . S
C408 C412 1.394 . S
C408 H424 0.930 . S
C409 C407 1.371 . S
C409 C410 1.392 . S
C409 H425 0.931 . S
C410 C409 1.392 . S
C410 C411 1.331 . S
C410 H428 0.932 . S
C411 C410 1.331 . S
C411 C412 1.336 . S
C412 C408 1.394 . S
C412 C411 1.336 . S
C412 H427 0.929 . S
C413 C403 1.386 . S
C413 C406 1.357 . S
C413 H426 0.928 . S
H414 C390 0.931 . S
H415 C392 0.930 . S
H416 C394 0.929 . S
H417 C395 0.931 . S
H418 C397 0.930 . S
H419 C401 0.931 . S
H420 C399 0.931 . S
H421 C403 0.931 . S
H422 C404 0.929 . S
H423 C405 0.930 . S
H424 C408 0.930 . S
H425 C409 0.931 . S
H426 C413 0.928 . S
H427 C412 0.929 . S
H428 C410 0.932 . S
C429 C430 1.386 . S
C429 C431 1.397 . S
C429 H453 0.931 . S
C430 C429 1.386 . S
C430 C434 1.397 . S
C431 C429 1.397 . S
C431 C432 1.384 . S
C431 H454 0.930 . S
C432 C431 1.384 . S
C432 C433 1.377 . S
C432 C435 1.481 . S
C433 C432 1.377 . S
C433 C434 1.389 . S
C433 H455 0.929 . S
C434 C430 1.397 . S
C434 C433 1.389 . S
C434 H456 0.931 . S
C435 C432 1.481 . S
C435 C436 1.387 . S
C435 C440 1.390 . S
C436 C435 1.387 . S
C436 C437 1.401 . S
C436 H457 0.930 . S
C437 C436 1.401 . S
C437 C438 1.376 . S
C437 C446 1.511 . S
C438 C437 1.376 . S
C438 C439 1.392 . S
C438 H459 0.931 . S
C439 C438 1.392 . S
C439 C440 1.361 . S
C439 C441 1.500 . S
C440 C435 1.390 . S
C440 C439 1.361 . S
C440 H458 0.931 . S
C441 C439 1.500 . S
C441 C442 1.371 . S
C441 C443 1.365 . S
C442 C441 1.371 . S
C442 C452 1.386 . S
C442 H460 0.931 . S
C443 C441 1.365 . S
C443 C444 1.409 . S
C443 H461 0.929 . S
C444 C443 1.409 . S
C444 C445 1.380 . S
C444 H462 0.930 . S
C445 C444 1.380 . S
C445 C452 1.357 . S
C446 C437 1.511 . S
C446 C447 1.341 . S
C446 C448 1.371 . S
C447 C446 1.341 . S
C447 C451 1.394 . S
C447 H463 0.930 . S
C448 C446 1.371 . S
C448 C449 1.392 . S
C448 H464 0.931 . S
C449 C448 1.392 . S
C449 C450 1.331 . S
C449 H467 0.932 . S
C450 C449 1.331 . S
C450 C451 1.336 . S
C451 C447 1.394 . S
C451 C450 1.336 . S
C451 H466 0.929 . S
C452 C442 1.386 . S
C452 C445 1.357 . S
C452 H465 0.928 . S
H453 C429 0.931 . S
H454 C431 0.930 . S
H455 C433 0.929 . S
H456 C434 0.931 . S
H457 C436 0.930 . S
H458 C440 0.931 . S
H459 C438 0.931 . S
H460 C442 0.931 . S
H461 C443 0.929 . S
H462 C444 0.930 . S
H463 C447 0.930 . S
H464 C448 0.931 . S
H465 C452 0.928 . S
H466 C451 0.929 . S
H467 C449 0.932 . S
C468 C469 1.386 . S
C468 C470 1.397 . S
C468 H492 0.931 . S
C469 C468 1.386 . S
C469 C473 1.397 . S
C470 C468 1.397 . S
C470 C471 1.384 . S
C470 H493 0.930 . S
C471 C470 1.384 . S
C471 C472 1.377 . S
C471 C474 1.481 . S
C472 C471 1.377 . S
C472 C473 1.389 . S
C472 H494 0.929 . S
C473 C469 1.397 . S
C473 C472 1.389 . S
C473 H495 0.931 . S
C474 C471 1.481 . S
C474 C475 1.387 . S
C474 C479 1.390 . S
C475 C474 1.387 . S
C475 C476 1.401 . S
C475 H496 0.930 . S
C476 C475 1.401 . S
C476 C477 1.376 . S
C476 C485 1.511 . S
C477 C476 1.376 . S
C477 C478 1.392 . S
C477 H498 0.931 . S
C478 C477 1.392 . S
C478 C479 1.361 . S
C478 C480 1.500 . S
C479 C474 1.390 . S
C479 C478 1.361 . S
C479 H497 0.931 . S
C480 C478 1.500 . S
C480 C481 1.371 . S
C480 C482 1.365 . S
C481 C480 1.371 . S
C481 C491 1.386 . S
C481 H499 0.931 . S
C482 C480 1.365 . S
C482 C483 1.409 . S
C482 H500 0.929 . S
C483 C482 1.409 . S
C483 C484 1.380 . S
C483 H501 0.930 . S
C484 C483 1.380 . S
C484 C491 1.357 . S
C485 C476 1.511 . S
C485 C486 1.341 . S
C485 C487 1.371 . S
C486 C485 1.341 . S
C486 C490 1.394 . S
C486 H502 0.930 . S
C487 C485 1.371 . S
C487 C488 1.392 . S
C487 H503 0.931 . S
C488 C487 1.392 . S
C488 C489 1.331 . S
C488 H506 0.932 . S
C489 C488 1.331 . S
C489 C490 1.336 . S
C490 C486 1.394 . S
C490 C489 1.336 . S
C490 H505 0.929 . S
C491 C481 1.386 . S
C491 C484 1.357 . S
C491 H504 0.928 . S
H492 C468 0.931 . S
H493 C470 0.930 . S
H494 C472 0.929 . S
H495 C473 0.931 . S
H496 C475 0.930 . S
H497 C479 0.931 . S
H498 C477 0.931 . S
H499 C481 0.931 . S
H500 C482 0.929 . S
H501 C483 0.930 . S
H502 C486 0.930 . S
H503 C487 0.931 . S
H504 C491 0.928 . S
H505 C490 0.929 . S
H506 C488 0.932 . S
C507 C508 1.386 . S
C507 C509 1.397 . S
C507 H531 0.931 . S
C508 C507 1.386 . S
C508 C512 1.397 . S
C509 C507 1.397 . S
C509 C510 1.384 . S
C509 H532 0.930 . S
C510 C509 1.384 . S
C510 C511 1.377 . S
C510 C513 1.481 . S
C511 C510 1.377 . S
C511 C512 1.389 . S
C511 H533 0.929 . S
C512 C508 1.397 . S
C512 C511 1.389 . S
C512 H534 0.931 . S
C513 C510 1.481 . S
C513 C514 1.387 . S
C513 C518 1.390 . S
C514 C513 1.387 . S
C514 C515 1.401 . S
C514 H535 0.930 . S
C515 C514 1.401 . S
C515 C516 1.376 . S
C515 C524 1.511 . S
C516 C515 1.376 . S
C516 C517 1.392 . S
C516 H537 0.931 . S
C517 C516 1.392 . S
C517 C518 1.361 . S
C517 C519 1.500 . S
C518 C513 1.390 . S
C518 C517 1.361 . S
C518 H536 0.931 . S
C519 C517 1.500 . S
C519 C520 1.371 . S
C519 C521 1.365 . S
C520 C519 1.371 . S
C520 C530 1.386 . S
C520 H538 0.931 . S
C521 C519 1.365 . S
C521 C522 1.409 . S
C521 H539 0.929 . S
C522 C521 1.409 . S
C522 C523 1.380 . S
C522 H540 0.930 . S
C523 C522 1.380 . S
C523 C530 1.357 . S
C524 C515 1.511 . S
C524 C525 1.341 . S
C524 C526 1.371 . S
C525 C524 1.341 . S
C525 C529 1.394 . S
C525 H541 0.930 . S
C526 C524 1.371 . S
C526 C527 1.392 . S
C526 H542 0.931 . S
C527 C526 1.392 . S
C527 C528 1.331 . S
C527 H545 0.932 . S
C528 C527 1.331 . S
C528 C529 1.336 . S
C529 C525 1.394 . S
C529 C528 1.336 . S
C529 H544 0.929 . S
C530 C520 1.386 . S
C530 C523 1.357 . S
C530 H543 0.928 . S
H531 C507 0.931 . S
H532 C509 0.930 . S
H533 C511 0.929 . S
H534 C512 0.931 . S
H535 C514 0.930 . S
H536 C518 0.931 . S
H537 C516 0.931 . S
H538 C520 0.931 . S
H539 C521 0.929 . S
H540 C522 0.930 . S
H541 C525 0.930 . S
H542 C526 0.931 . S
H543 C530 0.928 . S
H544 C529 0.929 . S
H545 C527 0.932 . S
C546 C547 1.386 . S
C546 C548 1.397 . S
C546 H570 0.931 . S
C547 C546 1.386 . S
C547 C551 1.397 . S
C548 C546 1.397 . S
C548 C549 1.384 . S
C548 H571 0.930 . S
C549 C548 1.384 . S
C549 C550 1.377 . S
C549 C552 1.481 . S
C550 C549 1.377 . S
C550 C551 1.389 . S
C550 H572 0.929 . S
C551 C547 1.397 . S
C551 C550 1.389 . S
C551 H573 0.931 . S
C552 C549 1.481 . S
C552 C553 1.387 . S
C552 C557 1.390 . S
C553 C552 1.387 . S
C553 C554 1.401 . S
C553 H574 0.930 . S
C554 C553 1.401 . S
C554 C555 1.376 . S
C554 C563 1.511 . S
C555 C554 1.376 . S
C555 C556 1.392 . S
C555 H576 0.931 . S
C556 C555 1.392 . S
C556 C557 1.361 . S
C556 C558 1.500 . S
C557 C552 1.390 . S
C557 C556 1.361 . S
C557 H575 0.931 . S
C558 C556 1.500 . S
C558 C559 1.371 . S
C558 C560 1.365 . S
C559 C558 1.371 . S
C559 C569 1.386 . S
C559 H577 0.931 . S
C560 C558 1.365 . S
C560 C561 1.409 . S
C560 H578 0.929 . S
C561 C560 1.409 . S
C561 C562 1.380 . S
C561 H579 0.930 . S
C562 C561 1.380 . S
C562 C569 1.357 . S
C563 C554 1.511 . S
C563 C564 1.341 . S
C563 C565 1.371 . S
C564 C563 1.341 . S
C564 C568 1.394 . S
C564 H580 0.930 . S
C565 C563 1.371 . S
C565 C566 1.392 . S
C565 H581 0.931 . S
C566 C565 1.392 . S
C566 C567 1.331 . S
C566 H584 0.932 . S
C567 C566 1.331 . S
C567 C568 1.336 . S
C568 C564 1.394 . S
C568 C567 1.336 . S
C568 H583 0.929 . S
C569 C559 1.386 . S
C569 C562 1.357 . S
C569 H582 0.928 . S
H570 C546 0.931 . S
H571 C548 0.930 . S
H572 C550 0.929 . S
H573 C551 0.931 . S
H574 C553 0.930 . S
H575 C557 0.931 . S
H576 C555 0.931 . S
H577 C559 0.931 . S
H578 C560 0.929 . S
H579 C561 0.930 . S
H580 C564 0.930 . S
H581 C565 0.931 . S
H582 C569 0.928 . S
H583 C568 0.929 . S
H584 C566 0.932 . S
C585 C586 1.386 . S
C585 C587 1.397 . S
C585 H609 0.931 . S
C586 C585 1.386 . S
C586 C590 1.397 . S
C587 C585 1.397 . S
C587 C588 1.384 . S
C587 H610 0.930 . S
C588 C587 1.384 . S
C588 C589 1.377 . S
C588 C591 1.481 . S
C589 C588 1.377 . S
C589 C590 1.389 . S
C589 H611 0.929 . S
C590 C586 1.397 . S
C590 C589 1.389 . S
C590 H612 0.931 . S
C591 C588 1.481 . S
C591 C592 1.387 . S
C591 C596 1.390 . S
C592 C591 1.387 . S
C592 C593 1.401 . S
C592 H613 0.930 . S
C593 C592 1.401 . S
C593 C594 1.376 . S
C593 C602 1.511 . S
C594 C593 1.376 . S
C594 C595 1.392 . S
C594 H615 0.931 . S
C595 C594 1.392 . S
C595 C596 1.361 . S
C595 C597 1.500 . S
C596 C591 1.390 . S
C596 C595 1.361 . S
C596 H614 0.931 . S
C597 C595 1.500 . S
C597 C598 1.371 . S
C597 C599 1.365 . S
C598 C597 1.371 . S
C598 C608 1.386 . S
C598 H616 0.931 . S
C599 C597 1.365 . S
C599 C600 1.409 . S
C599 H617 0.929 . S
C600 C599 1.409 . S
C600 C601 1.380 . S
C600 H618 0.930 . S
C601 C600 1.380 . S
C601 C608 1.357 . S
C602 C593 1.511 . S
C602 C603 1.341 . S
C602 C604 1.371 . S
C603 C602 1.341 . S
C603 C607 1.394 . S
C603 H619 0.930 . S
C604 C602 1.371 . S
C604 C605 1.392 . S
C604 H620 0.931 . S
C605 C604 1.392 . S
C605 C606 1.331 . S
C605 H623 0.932 . S
C606 C605 1.331 . S
C606 C607 1.336 . S
C607 C603 1.394 . S
C607 C606 1.336 . S
C607 H622 0.929 . S
C608 C598 1.386 . S
C608 C601 1.357 . S
C608 H621 0.928 . S
H609 C585 0.931 . S
H610 C587 0.930 . S
H611 C589 0.929 . S
H612 C590 0.931 . S
H613 C592 0.930 . S
H614 C596 0.931 . S
H615 C594 0.931 . S
H616 C598 0.931 . S
H617 C599 0.929 . S
H618 C600 0.930 . S
H619 C603 0.930 . S
H620 C604 0.931 . S
H621 C608 0.928 . S
H622 C607 0.929 . S
H623 C605 0.932 . S
C624 C625 1.386 . S
C624 C626 1.397 . S
C624 H648 0.931 . S
C625 C624 1.386 . S
C625 C629 1.397 . S
C626 C624 1.397 . S
C626 C627 1.384 . S
C626 H649 0.930 . S
C627 C626 1.384 . S
C627 C628 1.377 . S
C627 C630 1.481 . S
C628 C627 1.377 . S
C628 C629 1.389 . S
C628 H650 0.929 . S
C629 C625 1.397 . S
C629 C628 1.389 . S
C629 H651 0.931 . S
C630 C627 1.481 . S
C630 C631 1.387 . S
C630 C635 1.390 . S
C631 C630 1.387 . S
C631 C632 1.401 . S
C631 H652 0.930 . S
C632 C631 1.401 . S
C632 C633 1.376 . S
C632 C641 1.511 . S
C633 C632 1.376 . S
C633 C634 1.392 . S
C633 H654 0.931 . S
C634 C633 1.392 . S
C634 C635 1.361 . S
C634 C636 1.500 . S
C635 C630 1.390 . S
C635 C634 1.361 . S
C635 H653 0.931 . S
C636 C634 1.500 . S
C636 C637 1.371 . S
C636 C638 1.365 . S
C637 C636 1.371 . S
C637 C647 1.386 . S
C637 H655 0.931 . S
C638 C636 1.365 . S
C638 C639 1.409 . S
C638 H656 0.929 . S
C639 C638 1.409 . S
C639 C640 1.380 . S
C639 H657 0.930 . S
C640 C639 1.380 . S
C640 C647 1.357 . S
C641 C632 1.511 . S
C641 C642 1.341 . S
C641 C643 1.371 . S
C642 C641 1.341 . S
C642 C646 1.394 . S
C642 H658 0.930 . S
C643 C641 1.371 . S
C643 C644 1.392 . S
C643 H659 0.931 . S
C644 C643 1.392 . S
C644 C645 1.331 . S
C644 H662 0.932 . S
C645 C644 1.331 . S
C645 C646 1.336 . S
C646 C642 1.394 . S
C646 C645 1.336 . S
C646 H661 0.929 . S
C647 C637 1.386 . S
C647 C640 1.357 . S
C647 H660 0.928 . S
H648 C624 0.931 . S
H649 C626 0.930 . S
H650 C628 0.929 . S
H651 C629 0.931 . S
H652 C631 0.930 . S
H653 C635 0.931 . S
H654 C633 0.931 . S
H655 C637 0.931 . S
H656 C638 0.929 . S
H657 C639 0.930 . S
H658 C642 0.930 . S
H659 C643 0.931 . S
H660 C647 0.928 . S
H661 C646 0.929 . S
H662 C644 0.932 . S
C663 C664 1.386 . S
C663 C665 1.397 . S
C663 H687 0.931 . S
C664 C663 1.386 . S
C664 C668 1.397 . S
C665 C663 1.397 . S
C665 C666 1.384 . S
C665 H688 0.930 . S
C666 C665 1.384 . S
C666 C667 1.377 . S
C666 C669 1.481 . S
C667 C666 1.377 . S
C667 C668 1.389 . S
C667 H689 0.929 . S
C668 C664 1.397 . S
C668 C667 1.389 . S
C668 H690 0.931 . S
C669 C666 1.481 . S
C669 C670 1.387 . S
C669 C674 1.390 . S
C670 C669 1.387 . S
C670 C671 1.401 . S
C670 H691 0.930 . S
C671 C670 1.401 . S
C671 C672 1.376 . S
C671 C680 1.511 . S
C672 C671 1.376 . S
C672 C673 1.392 . S
C672 H693 0.931 . S
C673 C672 1.392 . S
C673 C674 1.361 . S
C673 C675 1.500 . S
C674 C669 1.390 . S
C674 C673 1.361 . S
C674 H692 0.931 . S
C675 C673 1.500 . S
C675 C676 1.371 . S
C675 C677 1.365 . S
C676 C675 1.371 . S
C676 C686 1.386 . S
C676 H694 0.931 . S
C677 C675 1.365 . S
C677 C678 1.409 . S
C677 H695 0.929 . S
C678 C677 1.409 . S
C678 C679 1.380 . S
C678 H696 0.930 . S
C679 C678 1.380 . S
C679 C686 1.357 . S
C680 C671 1.511 . S
C680 C681 1.341 . S
C680 C682 1.371 . S
C681 C680 1.341 . S
C681 C685 1.394 . S
C681 H697 0.930 . S
C682 C680 1.371 . S
C682 C683 1.392 . S
C682 H698 0.931 . S
C683 C682 1.392 . S
C683 C684 1.331 . S
C683 H701 0.932 . S
C684 C683 1.331 . S
C684 C685 1.336 . S
C685 C681 1.394 . S
C685 C684 1.336 . S
C685 H700 0.929 . S
C686 C676 1.386 . S
C686 C679 1.357 . S
C686 H699 0.928 . S
H687 C663 0.931 . S
H688 C665 0.930 . S
H689 C667 0.929 . S
H690 C668 0.931 . S
H691 C670 0.930 . S
H692 C674 0.931 . S
H693 C672 0.931 . S
H694 C676 0.931 . S
H695 C677 0.929 . S
H696 C678 0.930 . S
H697 C681 0.930 . S
H698 C682 0.931 . S
H699 C686 0.928 . S
H700 C685 0.929 . S
H701 C683 0.932 . S
Gd702 N733 2.661 . S
Gd702 N739 2.601 . S
Gd702 O746 2.545 . S
Gd702 O747 2.606 1_545 S
Gd702 O749 2.429 . S
Gd702 O750 2.545 1_545 S
Gd702 O751 2.412 . S
Gd702 O753 2.362 1_554 S
Gd702 O754 2.324 1_545 S
Gd702 C761 2.828 . S
Gd703 N712 2.661 . S
Gd703 N716 2.601 . S
Gd703 O747 2.362 1_556 S
Gd703 O748 2.324 1_565 S
Gd703 O752 2.545 . S
Gd703 O753 2.606 1_565 S
Gd703 O755 2.429 . S
Gd703 O756 2.545 1_565 S
Gd703 O757 2.412 . S
Gd703 C770 2.828 . S
C704 C707 1.417 . S
C704 C709 1.431 . S
C704 C710 1.412 . S
C705 C708 1.437 . S
C705 C709 1.317 . S
C705 H724 0.929 . S
C706 C707 1.426 . S
C706 C708 1.413 . S
C706 N716 1.359 . S
C707 C704 1.417 . S
C707 C706 1.426 . S
C707 N712 1.350 . S
C708 C705 1.437 . S
C708 C706 1.413 . S
C708 C718 1.391 . S
C709 C704 1.431 . S
C709 C705 1.317 . S
C709 H720 0.930 . S
C710 C704 1.412 . S
C710 C711 1.355 . S
C710 H722 0.930 . S
C711 C710 1.355 . S
C711 C713 1.402 . S
C711 H723 0.930 . S
N712 Gd703 2.661 . S
N712 C707 1.350 . S
N712 C713 1.307 . S
C713 C711 1.402 . S
C713 N712 1.307 . S
C713 H714 0.930 . S
H714 C713 0.930 . S
C715 N716 1.334 . S
C715 C717 1.394 . S
C715 H719 0.930 . S
N716 Gd703 2.601 . S
N716 C706 1.359 . S
N716 C715 1.334 . S
C717 C715 1.394 . S
C717 C718 1.359 . S
C717 H729 0.930 . S
C718 C708 1.391 . S
C718 C717 1.359 . S
C718 H730 0.929 . S
H719 C715 0.930 . S
H720 C709 0.930 . S
H721 C738 0.930 . S
H722 C710 0.930 . S
H723 C711 0.930 . S
H724 C705 0.929 . S
H725 C743 0.930 . S
H726 C734 0.930 . S
H727 C735 0.930 . S
H728 C759 0.929 . S
H729 C717 0.930 . S
H730 C718 0.929 . S
H731 C760 0.930 . S
H732 C741 0.930 . S
N733 Gd702 2.661 . S
N733 C737 1.350 . S
N733 C738 1.307 . S
C734 H726 0.930 . S
C734 C735 1.355 . S
C734 C736 1.412 . S
C735 H727 0.930 . S
C735 C734 1.355 . S
C735 C738 1.402 . S
C736 C734 1.412 . S
C736 C737 1.417 . S
C736 C760 1.431 . S
C737 N733 1.350 . S
C737 C736 1.417 . S
C737 C740 1.426 . S
C738 H721 0.930 . S
C738 N733 1.307 . S
C738 C735 1.402 . S
N739 Gd702 2.601 . S
N739 C740 1.359 . S
N739 C743 1.334 . S
C740 C737 1.426 . S
C740 N739 1.359 . S
C740 C744 1.413 . S
C741 H732 0.930 . S
C741 C742 1.359 . S
C741 C743 1.394 . S
C742 C741 1.359 . S
C742 C744 1.391 . S
C742 H745 0.929 . S
C743 H725 0.930 . S
C743 N739 1.334 . S
C743 C741 1.394 . S
C744 C740 1.413 . S
C744 C742 1.391 . S
C744 C759 1.437 . S
H745 C742 0.929 . S
O746 Gd702 2.545 . S
O746 C761 1.258 . S
O747 Gd702 2.606 1_565 S
O747 Gd703 2.362 1_554 S
O747 C758 1.284 . S
O748 Gd703 2.324 1_545 S
O748 C768 1.254 . S
O749 Gd702 2.429 . S
O749 C768 1.268 1_554 S
O750 Gd702 2.545 1_565 S
O750 C758 1.250 . S
O751 Gd702 2.412 . S
O751 C761 1.252 . S
O752 Gd703 2.545 . S
O752 C770 1.258 . S
O753 Gd702 2.362 1_556 S
O753 Gd703 2.606 1_545 S
O753 C769 1.284 . S
O754 Gd702 2.324 1_565 S
O754 C777 1.254 . S
O755 Gd703 2.429 . S
O755 C777 1.268 1_556 S
O756 Gd703 2.545 1_545 S
O756 C769 1.250 . S
O757 Gd703 2.412 . S
O757 C770 1.252 . S
C758 O747 1.284 . S
C758 O750 1.250 . S
C759 H728 0.929 . S
C759 C744 1.437 . S
C759 C760 1.317 . S
C760 H731 0.930 . S
C760 C736 1.431 . S
C760 C759 1.317 . S
C761 Gd702 2.828 . S
C761 O746 1.258 . S
C761 O751 1.252 . S
C761 C762 1.497 . S
C762 C761 1.497 . S
C762 C763 1.395 . S
C762 C764 1.380 1_545 S
C763 C762 1.395 . S
C763 C766 1.398 . S
C763 H778 0.930 . S
C764 C762 1.380 1_565 S
C764 C765 1.391 . S
C764 H779 0.930 . S
C765 C764 1.391 . S
C765 C767 1.387 1_565 S
C766 C763 1.398 . S
C766 C767 1.380 . S
C766 H780 0.930 . S
C767 C765 1.387 1_545 S
C767 C766 1.380 . S
C767 H781 0.930 . S
C768 O748 1.254 . S
C768 O749 1.268 1_556 S
C769 O753 1.284 . S
C769 O756 1.250 . S
C770 Gd703 2.828 . S
C770 O752 1.258 . S
C770 O757 1.252 . S
C770 C771 1.497 . S
C771 C770 1.497 . S
C771 C772 1.395 . S
C771 C773 1.380 1_565 S
C772 C771 1.395 . S
C772 C775 1.398 . S
C772 H782 0.930 . S
C773 C771 1.380 1_545 S
C773 C774 1.391 . S
C773 H783 0.930 . S
C774 C773 1.391 . S
C774 C776 1.387 1_545 S
C775 C772 1.398 . S
C775 C776 1.380 . S
C775 H784 0.930 . S
C776 C774 1.387 1_565 S
C776 C775 1.380 . S
C776 H785 0.930 . S
C777 O754 1.254 . S
C777 O755 1.268 1_554 S
H778 C763 0.930 . S
H779 C764 0.930 . S
H780 C766 0.930 . S
H781 C767 0.930 . S
H782 C772 0.930 . S
H783 C773 0.930 . S
H784 C775 0.930 . S
H785 C776 0.930 . S
Gd786 N817 2.661 . S
Gd786 N823 2.601 . S
Gd786 O830 2.545 . S
Gd786 O831 2.606 1_655 S
Gd786 O833 2.429 . S
Gd786 O834 2.545 1_655 S
Gd786 O835 2.412 . S
Gd786 O837 2.362 1_554 S
Gd786 O838 2.324 1_655 S
Gd786 C845 2.828 . S
Gd787 N796 2.661 . S
Gd787 N800 2.601 . S
Gd787 O831 2.362 1_556 S
Gd787 O832 2.324 1_455 S
Gd787 O836 2.545 . S
Gd787 O837 2.606 1_455 S
Gd787 O839 2.429 . S
Gd787 O840 2.545 1_455 S
Gd787 O841 2.412 . S
Gd787 C854 2.828 . S
C788 C791 1.417 . S
C788 C793 1.431 . S
C788 C794 1.412 . S
C789 C792 1.437 . S
C789 C793 1.317 . S
C789 H808 0.929 . S
C790 C791 1.426 . S
C790 C792 1.413 . S
C790 N800 1.359 . S
C791 C788 1.417 . S
C791 C790 1.426 . S
C791 N796 1.350 . S
C792 C789 1.437 . S
C792 C790 1.413 . S
C792 C802 1.391 . S
C793 C788 1.431 . S
C793 C789 1.317 . S
C793 H804 0.930 . S
C794 C788 1.412 . S
C794 C795 1.355 . S
C794 H806 0.930 . S
C795 C794 1.355 . S
C795 C797 1.402 . S
C795 H807 0.930 . S
N796 Gd787 2.661 . S
N796 C791 1.350 . S
N796 C797 1.307 . S
C797 C795 1.402 . S
C797 N796 1.307 . S
C797 H798 0.930 . S
H798 C797 0.930 . S
C799 N800 1.334 . S
C799 C801 1.394 . S
C799 H803 0.930 . S
N800 Gd787 2.601 . S
N800 C790 1.359 . S
N800 C799 1.334 . S
C801 C799 1.394 . S
C801 C802 1.359 . S
C801 H813 0.930 . S
C802 C792 1.391 . S
C802 C801 1.359 . S
C802 H814 0.929 . S
H803 C799 0.930 . S
H804 C793 0.930 . S
H805 C822 0.930 . S
H806 C794 0.930 . S
H807 C795 0.930 . S
H808 C789 0.929 . S
H809 C827 0.930 . S
H810 C818 0.930 . S
H811 C819 0.930 . S
H812 C843 0.929 . S
H813 C801 0.930 . S
H814 C802 0.929 . S
H815 C844 0.930 . S
H816 C825 0.930 . S
N817 Gd786 2.661 . S
N817 C821 1.350 . S
N817 C822 1.307 . S
C818 H810 0.930 . S
C818 C819 1.355 . S
C818 C820 1.412 . S
C819 H811 0.930 . S
C819 C818 1.355 . S
C819 C822 1.402 . S
C820 C818 1.412 . S
C820 C821 1.417 . S
C820 C844 1.431 . S
C821 N817 1.350 . S
C821 C820 1.417 . S
C821 C824 1.426 . S
C822 H805 0.930 . S
C822 N817 1.307 . S
C822 C819 1.402 . S
N823 Gd786 2.601 . S
N823 C824 1.359 . S
N823 C827 1.334 . S
C824 C821 1.426 . S
C824 N823 1.359 . S
C824 C828 1.413 . S
C825 H816 0.930 . S
C825 C826 1.359 . S
C825 C827 1.394 . S
C826 C825 1.359 . S
C826 C828 1.391 . S
C826 H829 0.929 . S
C827 H809 0.930 . S
C827 N823 1.334 . S
C827 C825 1.394 . S
C828 C824 1.413 . S
C828 C826 1.391 . S
C828 C843 1.437 . S
H829 C826 0.929 . S
O830 Gd786 2.545 . S
O830 C845 1.258 . S
O831 Gd786 2.606 1_455 S
O831 Gd787 2.362 1_554 S
O831 C842 1.284 . S
O832 Gd787 2.324 1_655 S
O832 C852 1.254 . S
O833 Gd786 2.429 . S
O833 C852 1.268 1_554 S
O834 Gd786 2.545 1_455 S
O834 C842 1.250 . S
O835 Gd786 2.412 . S
O835 C845 1.252 . S
O836 Gd787 2.545 . S
O836 C854 1.258 . S
O837 Gd786 2.362 1_556 S
O837 Gd787 2.606 1_655 S
O837 C853 1.284 . S
O838 Gd786 2.324 1_455 S
O838 C861 1.254 . S
O839 Gd787 2.429 . S
O839 C861 1.268 1_556 S
O840 Gd787 2.545 1_655 S
O840 C853 1.250 . S
O841 Gd787 2.412 . S
O841 C854 1.252 . S
C842 O831 1.284 . S
C842 O834 1.250 . S
C843 H812 0.929 . S
C843 C828 1.437 . S
C843 C844 1.317 . S
C844 H815 0.930 . S
C844 C820 1.431 . S
C844 C843 1.317 . S
C845 Gd786 2.828 . S
C845 O830 1.258 . S
C845 O835 1.252 . S
C845 C846 1.497 . S
C846 C845 1.497 . S
C846 C847 1.395 . S
C846 C848 1.380 1_655 S
C847 C846 1.395 . S
C847 C850 1.398 . S
C847 H862 0.930 . S
C848 C846 1.380 1_455 S
C848 C849 1.391 . S
C848 H863 0.930 . S
C849 C848 1.391 . S
C849 C851 1.387 1_455 S
C850 C847 1.398 . S
C850 C851 1.380 . S
C850 H864 0.930 . S
C851 C849 1.387 1_655 S
C851 C850 1.380 . S
C851 H865 0.930 . S
C852 O832 1.254 . S
C852 O833 1.268 1_556 S
C853 O837 1.284 . S
C853 O840 1.250 . S
C854 Gd787 2.828 . S
C854 O836 1.258 . S
C854 O841 1.252 . S
C854 C855 1.497 . S
C855 C854 1.497 . S
C855 C856 1.395 . S
C855 C857 1.380 1_455 S
C856 C855 1.395 . S
C856 C859 1.398 . S
C856 H866 0.930 . S
C857 C855 1.380 1_655 S
C857 C858 1.391 . S
C857 H867 0.930 . S
C858 C857 1.391 . S
C858 C860 1.387 1_655 S
C859 C856 1.398 . S
C859 C860 1.380 . S
C859 H868 0.930 . S
C860 C858 1.387 1_455 S
C860 C859 1.380 . S
C860 H869 0.930 . S
C861 O838 1.254 . S
C861 O839 1.268 1_554 S
H862 C847 0.930 . S
H863 C848 0.930 . S
H864 C850 0.930 . S
H865 C851 0.930 . S
H866 C856 0.930 . S
H867 C857 0.930 . S
H868 C859 0.930 . S
H869 C860 0.930 . S
Gd870 N901 2.661 . S
Gd870 N907 2.601 . S
Gd870 O914 2.545 . S
Gd870 O915 2.606 . S
Gd870 O917 2.429 . S
Gd870 O918 2.545 . S
Gd870 O919 2.412 . S
Gd870 O921 2.362 1_556 S
Gd870 O922 2.324 . S
Gd870 C929 2.828 . S
Gd871 N880 2.661 . S
Gd871 N884 2.601 . S
Gd871 O915 2.362 1_554 S
Gd871 O916 2.324 . S
Gd871 O920 2.545 . S
Gd871 O921 2.606 . S
Gd871 O923 2.429 . S
Gd871 O924 2.545 . S
Gd871 O925 2.412 . S
Gd871 C938 2.828 . S
C872 C875 1.417 . S
C872 C877 1.431 . S
C872 C878 1.412 . S
C873 C876 1.437 . S
C873 C877 1.317 . S
C873 H892 0.929 . S
C874 C875 1.426 . S
C874 C876 1.413 . S
C874 N884 1.359 . S
C875 C872 1.417 . S
C875 C874 1.426 . S
C875 N880 1.350 . S
C876 C873 1.437 . S
C876 C874 1.413 . S
C876 C886 1.391 . S
C877 C872 1.431 . S
C877 C873 1.317 . S
C877 H888 0.930 . S
C878 C872 1.412 . S
C878 C879 1.355 . S
C878 H890 0.930 . S
C879 C878 1.355 . S
C879 C881 1.402 . S
C879 H891 0.930 . S
N880 Gd871 2.661 . S
N880 C875 1.350 . S
N880 C881 1.307 . S
C881 C879 1.402 . S
C881 N880 1.307 . S
C881 H882 0.930 . S
H882 C881 0.930 . S
C883 N884 1.334 . S
C883 C885 1.394 . S
C883 H887 0.930 . S
N884 Gd871 2.601 . S
N884 C874 1.359 . S
N884 C883 1.334 . S
C885 C883 1.394 . S
C885 C886 1.359 . S
C885 H897 0.930 . S
C886 C876 1.391 . S
C886 C885 1.359 . S
C886 H898 0.929 . S
H887 C883 0.930 . S
H888 C877 0.930 . S
H889 C906 0.930 . S
H890 C878 0.930 . S
H891 C879 0.930 . S
H892 C873 0.929 . S
H893 C911 0.930 . S
H894 C902 0.930 . S
H895 C903 0.930 . S
H896 C927 0.929 . S
H897 C885 0.930 . S
H898 C886 0.929 . S
H899 C928 0.930 . S
H900 C909 0.930 . S
N901 Gd870 2.661 . S
N901 C905 1.350 . S
N901 C906 1.307 . S
C902 H894 0.930 . S
C902 C903 1.355 . S
C902 C904 1.412 . S
C903 H895 0.930 . S
C903 C902 1.355 . S
C903 C906 1.402 . S
C904 C902 1.412 . S
C904 C905 1.417 . S
C904 C928 1.431 . S
C905 N901 1.350 . S
C905 C904 1.417 . S
C905 C908 1.426 . S
C906 H889 0.930 . S
C906 N901 1.307 . S
C906 C903 1.402 . S
N907 Gd870 2.601 . S
N907 C908 1.359 . S
N907 C911 1.334 . S
C908 C905 1.426 . S
C908 N907 1.359 . S
C908 C912 1.413 . S
C909 H900 0.930 . S
C909 C910 1.359 . S
C909 C911 1.394 . S
C910 C909 1.359 . S
C910 C912 1.391 . S
C910 H913 0.929 . S
C911 H893 0.930 . S
C911 N907 1.334 . S
C911 C909 1.394 . S
C912 C908 1.413 . S
C912 C910 1.391 . S
C912 C927 1.437 . S
H913 C910 0.929 . S
O914 Gd870 2.545 . S
O914 C929 1.258 . S
O915 Gd870 2.606 . S
O915 Gd871 2.362 1_556 S
O915 C926 1.284 . S
O916 Gd871 2.324 . S
O916 C936 1.254 . S
O917 Gd870 2.429 . S
O917 C936 1.268 1_556 S
O918 Gd870 2.545 . S
O918 C926 1.250 . S
O919 Gd870 2.412 . S
O919 C929 1.252 . S
O920 Gd871 2.545 . S
O920 C938 1.258 . S
O921 Gd870 2.362 1_554 S
O921 Gd871 2.606 . S
O921 C937 1.284 . S
O922 Gd870 2.324 . S
O922 C945 1.254 . S
O923 Gd871 2.429 . S
O923 C945 1.268 1_554 S
O924 Gd871 2.545 . S
O924 C937 1.250 . S
O925 Gd871 2.412 . S
O925 C938 1.252 . S
C926 O915 1.284 . S
C926 O918 1.250 . S
C927 H896 0.929 . S
C927 C912 1.437 . S
C927 C928 1.317 . S
C928 H899 0.930 . S
C928 C904 1.431 . S
C928 C927 1.317 . S
C929 Gd870 2.828 . S
C929 O914 1.258 . S
C929 O919 1.252 . S
C929 C930 1.497 . S
C930 C929 1.497 . S
C930 C931 1.395 . S
C930 C932 1.380 . S
C931 C930 1.395 . S
C931 C934 1.398 . S
C931 H946 0.930 . S
C932 C930 1.380 . S
C932 C933 1.391 . S
C932 H947 0.930 . S
C933 C932 1.391 . S
C933 C935 1.387 . S
C934 C931 1.398 . S
C934 C935 1.380 . S
C934 H948 0.930 . S
C935 C933 1.387 . S
C935 C934 1.380 . S
C935 H949 0.930 . S
C936 O916 1.254 . S
C936 O917 1.268 1_554 S
C937 O921 1.284 . S
C937 O924 1.250 . S
C938 Gd871 2.828 . S
C938 O920 1.258 . S
C938 O925 1.252 . S
C938 C939 1.497 . S
C939 C938 1.497 . S
C939 C940 1.395 . S
C939 C941 1.380 . S
C940 C939 1.395 . S
C940 C943 1.398 . S
C940 H950 0.930 . S
C941 C939 1.380 . S
C941 C942 1.391 . S
C941 H951 0.930 . S
C942 C941 1.391 . S
C942 C944 1.387 . S
C943 C940 1.398 . S
C943 C944 1.380 . S
C943 H952 0.930 . S
C944 C942 1.387 . S
C944 C943 1.380 . S
C944 H953 0.930 . S
C945 O922 1.254 . S
C945 O923 1.268 1_556 S
H946 C931 0.930 . S
H947 C932 0.930 . S
H948 C934 0.930 . S
H949 C935 0.930 . S
H950 C940 0.930 . S
H951 C941 0.930 . S
H952 C943 0.930 . S
H953 C944 0.930 . S
Gd954 N985 2.661 . S
Gd954 N991 2.601 . S
Gd954 O998 2.545 . S
Gd954 O999 2.606 . S
Gd954 O1001 2.429 . S
Gd954 O1002 2.545 . S
Gd954 O1003 2.412 . S
Gd954 O1005 2.362 . S
Gd954 O1006 2.324 . S
Gd954 C1013 2.828 . S
Gd955 N964 2.661 . S
Gd955 N968 2.601 . S
Gd955 O999 2.362 . S
Gd955 O1000 2.324 . S
Gd955 O1004 2.545 . S
Gd955 O1005 2.606 . S
Gd955 O1007 2.429 . S
Gd955 O1008 2.545 . S
Gd955 O1009 2.412 . S
Gd955 C1022 2.828 . S
C956 C959 1.417 . S
C956 C961 1.431 . S
C956 C962 1.412 . S
C957 C960 1.437 . S
C957 C961 1.317 . S
C957 H976 0.929 . S
C958 C959 1.426 . S
C958 C960 1.413 . S
C958 N968 1.359 . S
C959 C956 1.417 . S
C959 C958 1.426 . S
C959 N964 1.350 . S
C960 C957 1.437 . S
C960 C958 1.413 . S
C960 C970 1.391 . S
C961 C956 1.431 . S
C961 C957 1.317 . S
C961 H972 0.930 . S
C962 C956 1.412 . S
C962 C963 1.355 . S
C962 H974 0.930 . S
C963 C962 1.355 . S
C963 C965 1.402 . S
C963 H975 0.930 . S
N964 Gd955 2.661 . S
N964 C959 1.350 . S
N964 C965 1.307 . S
C965 C963 1.402 . S
C965 N964 1.307 . S
C965 H966 0.930 . S
H966 C965 0.930 . S
C967 N968 1.334 . S
C967 C969 1.394 . S
C967 H971 0.930 . S
N968 Gd955 2.601 . S
N968 C958 1.359 . S
N968 C967 1.334 . S
C969 C967 1.394 . S
C969 C970 1.359 . S
C969 H981 0.930 . S
C970 C960 1.391 . S
C970 C969 1.359 . S
C970 H982 0.929 . S
H971 C967 0.930 . S
H972 C961 0.930 . S
H973 C990 0.930 . S
H974 C962 0.930 . S
H975 C963 0.930 . S
H976 C957 0.929 . S
H977 C995 0.930 . S
H978 C986 0.930 . S
H979 C987 0.930 . S
H980 C1011 0.929 . S
H981 C969 0.930 . S
H982 C970 0.929 . S
H983 C1012 0.930 . S
H984 C993 0.930 . S
N985 Gd954 2.661 . S
N985 C989 1.350 . S
N985 C990 1.307 . S
C986 H978 0.930 . S
C986 C987 1.355 . S
C986 C988 1.412 . S
C987 H979 0.930 . S
C987 C986 1.355 . S
C987 C990 1.402 . S
C988 C986 1.412 . S
C988 C989 1.417 . S
C988 C1012 1.431 . S
C989 N985 1.350 . S
C989 C988 1.417 . S
C989 C992 1.426 . S
C990 H973 0.930 . S
C990 N985 1.307 . S
C990 C987 1.402 . S
N991 Gd954 2.601 . S
N991 C992 1.359 . S
N991 C995 1.334 . S
C992 C989 1.426 . S
C992 N991 1.359 . S
C992 C996 1.413 . S
C993 H984 0.930 . S
C993 C994 1.359 . S
C993 C995 1.394 . S
C994 C993 1.359 . S
C994 C996 1.391 . S
C994 H997 0.929 . S
C995 H977 0.930 . S
C995 N991 1.334 . S
C995 C993 1.394 . S
C996 C992 1.413 . S
C996 C994 1.391 . S
C996 C1011 1.437 . S
H997 C994 0.929 . S
O998 Gd954 2.545 . S
O998 C1013 1.258 . S
O999 Gd954 2.606 . S
O999 Gd955 2.362 . S
O999 C1010 1.284 . S
O1000 Gd955 2.324 . S
O1000 C1020 1.254 . S
O1001 Gd954 2.429 . S
O1001 C1020 1.268 . S
O1002 Gd954 2.545 . S
O1002 C1010 1.250 . S
O1003 Gd954 2.412 . S
O1003 C1013 1.252 . S
O1004 Gd955 2.545 . S
O1004 C1022 1.258 . S
O1005 Gd954 2.362 . S
O1005 Gd955 2.606 . S
O1005 C1021 1.284 . S
O1006 Gd954 2.324 . S
O1006 C1029 1.254 . S
O1007 Gd955 2.429 . S
O1007 C1029 1.268 . S
O1008 Gd955 2.545 . S
O1008 C1021 1.250 . S
O1009 Gd955 2.412 . S
O1009 C1022 1.252 . S
C1010 O999 1.284 . S
C1010 O1002 1.250 . S
C1011 H980 0.929 . S
C1011 C996 1.437 . S
C1011 C1012 1.317 . S
C1012 H983 0.930 . S
C1012 C988 1.431 . S
C1012 C1011 1.317 . S
C1013 Gd954 2.828 . S
C1013 O998 1.258 . S
C1013 O1003 1.252 . S
C1013 C1014 1.497 . S
C1014 C1013 1.497 . S
C1014 C1015 1.395 . S
C1014 C1016 1.380 . S
C1015 C1014 1.395 . S
C1015 C1018 1.398 . S
C1015 H1030 0.930 . S
C1016 C1014 1.380 . S
C1016 C1017 1.391 . S
C1016 H1031 0.930 . S
C1017 C1016 1.391 . S
C1017 C1019 1.387 . S
C1018 C1015 1.398 . S
C1018 C1019 1.380 . S
C1018 H1032 0.930 . S
C1019 C1017 1.387 . S
C1019 C1018 1.380 . S
C1019 H1033 0.930 . S
C1020 O1000 1.254 . S
C1020 O1001 1.268 . S
C1021 O1005 1.284 . S
C1021 O1008 1.250 . S
C1022 Gd955 2.828 . S
C1022 O1004 1.258 . S
C1022 O1009 1.252 . S
C1022 C1023 1.497 . S
C1023 C1022 1.497 . S
C1023 C1024 1.395 . S
C1023 C1025 1.380 . S
C1024 C1023 1.395 . S
C1024 C1027 1.398 . S
C1024 H1034 0.930 . S
C1025 C1023 1.380 . S
C1025 C1026 1.391 . S
C1025 H1035 0.930 . S
C1026 C1025 1.391 . S
C1026 C1028 1.387 . S
C1027 C1024 1.398 . S
C1027 C1028 1.380 . S
C1027 H1036 0.930 . S
C1028 C1026 1.387 . S
C1028 C1027 1.380 . S
C1028 H1037 0.930 . S
C1029 O1006 1.254 . S
C1029 O1007 1.268 . S
H1030 C1015 0.930 . S
H1031 C1016 0.930 . S
H1032 C1018 0.930 . S
H1033 C1019 0.930 . S
H1034 C1024 0.930 . S
H1035 C1025 0.930 . S
H1036 C1027 0.930 . S
H1037 C1028 0.930 . S
Gd1038 N1069 2.661 . S
Gd1038 N1075 2.601 . S
Gd1038 O1082 2.545 . S
Gd1038 O1083 2.606 . S
Gd1038 O1085 2.429 . S
Gd1038 O1086 2.545 . S
Gd1038 O1087 2.412 . S
Gd1038 O1089 2.362 . S
Gd1038 O1090 2.324 . S
Gd1038 C1097 2.828 . S
Gd1039 N1048 2.661 . S
Gd1039 N1052 2.601 . S
Gd1039 O1083 2.362 . S
Gd1039 O1084 2.324 . S
Gd1039 O1088 2.545 . S
Gd1039 O1089 2.606 . S
Gd1039 O1091 2.429 . S
Gd1039 O1092 2.545 . S
Gd1039 O1093 2.412 . S
Gd1039 C1106 2.828 . S
C1040 C1043 1.417 . S
C1040 C1045 1.431 . S
C1040 C1046 1.412 . S
C1041 C1044 1.437 . S
C1041 C1045 1.317 . S
C1041 H1060 0.929 . S
C1042 C1043 1.426 . S
C1042 C1044 1.413 . S
C1042 N1052 1.359 . S
C1043 C1040 1.417 . S
C1043 C1042 1.426 . S
C1043 N1048 1.350 . S
C1044 C1041 1.437 . S
C1044 C1042 1.413 . S
C1044 C1054 1.391 . S
C1045 C1040 1.431 . S
C1045 C1041 1.317 . S
C1045 H1056 0.930 . S
C1046 C1040 1.412 . S
C1046 C1047 1.355 . S
C1046 H1058 0.930 . S
C1047 C1046 1.355 . S
C1047 C1049 1.402 . S
C1047 H1059 0.930 . S
N1048 Gd1039 2.661 . S
N1048 C1043 1.350 . S
N1048 C1049 1.307 . S
C1049 C1047 1.402 . S
C1049 N1048 1.307 . S
C1049 H1050 0.930 . S
H1050 C1049 0.930 . S
C1051 N1052 1.334 . S
C1051 C1053 1.394 . S
C1051 H1055 0.930 . S
N1052 Gd1039 2.601 . S
N1052 C1042 1.359 . S
N1052 C1051 1.334 . S
C1053 C1051 1.394 . S
C1053 C1054 1.359 . S
C1053 H1065 0.930 . S
C1054 C1044 1.391 . S
C1054 C1053 1.359 . S
C1054 H1066 0.929 . S
H1055 C1051 0.930 . S
H1056 C1045 0.930 . S
H1057 C1074 0.930 . S
H1058 C1046 0.930 . S
H1059 C1047 0.930 . S
H1060 C1041 0.929 . S
H1061 C1079 0.930 . S
H1062 C1070 0.930 . S
H1063 C1071 0.930 . S
H1064 C1095 0.929 . S
H1065 C1053 0.930 . S
H1066 C1054 0.929 . S
H1067 C1096 0.930 . S
H1068 C1077 0.930 . S
N1069 Gd1038 2.661 . S
N1069 C1073 1.350 . S
N1069 C1074 1.307 . S
C1070 H1062 0.930 . S
C1070 C1071 1.355 . S
C1070 C1072 1.412 . S
C1071 H1063 0.930 . S
C1071 C1070 1.355 . S
C1071 C1074 1.402 . S
C1072 C1070 1.412 . S
C1072 C1073 1.417 . S
C1072 C1096 1.431 . S
C1073 N1069 1.350 . S
C1073 C1072 1.417 . S
C1073 C1076 1.426 . S
C1074 H1057 0.930 . S
C1074 N1069 1.307 . S
C1074 C1071 1.402 . S
N1075 Gd1038 2.601 . S
N1075 C1076 1.359 . S
N1075 C1079 1.334 . S
C1076 C1073 1.426 . S
C1076 N1075 1.359 . S
C1076 C1080 1.413 . S
C1077 H1068 0.930 . S
C1077 C1078 1.359 . S
C1077 C1079 1.394 . S
C1078 C1077 1.359 . S
C1078 C1080 1.391 . S
C1078 H1081 0.929 . S
C1079 H1061 0.930 . S
C1079 N1075 1.334 . S
C1079 C1077 1.394 . S
C1080 C1076 1.413 . S
C1080 C1078 1.391 . S
C1080 C1095 1.437 . S
H1081 C1078 0.929 . S
O1082 Gd1038 2.545 . S
O1082 C1097 1.258 . S
O1083 Gd1038 2.606 . S
O1083 Gd1039 2.362 . S
O1083 C1094 1.284 . S
O1084 Gd1039 2.324 . S
O1084 C1104 1.254 . S
O1085 Gd1038 2.429 . S
O1085 C1104 1.268 . S
O1086 Gd1038 2.545 . S
O1086 C1094 1.250 . S
O1087 Gd1038 2.412 . S
O1087 C1097 1.252 . S
O1088 Gd1039 2.545 . S
O1088 C1106 1.258 . S
O1089 Gd1038 2.362 . S
O1089 Gd1039 2.606 . S
O1089 C1105 1.284 . S
O1090 Gd1038 2.324 . S
O1090 C1113 1.254 . S
O1091 Gd1039 2.429 . S
O1091 C1113 1.268 . S
O1092 Gd1039 2.545 . S
O1092 C1105 1.250 . S
O1093 Gd1039 2.412 . S
O1093 C1106 1.252 . S
C1094 O1083 1.284 . S
C1094 O1086 1.250 . S
C1095 H1064 0.929 . S
C1095 C1080 1.437 . S
C1095 C1096 1.317 . S
C1096 H1067 0.930 . S
C1096 C1072 1.431 . S
C1096 C1095 1.317 . S
C1097 Gd1038 2.828 . S
C1097 O1082 1.258 . S
C1097 O1087 1.252 . S
C1097 C1098 1.497 . S
C1098 C1097 1.497 . S
C1098 C1099 1.395 . S
C1098 C1100 1.380 . S
C1099 C1098 1.395 . S
C1099 C1102 1.398 . S
C1099 H1114 0.930 . S
C1100 C1098 1.380 . S
C1100 C1101 1.391 . S
C1100 H1115 0.930 . S
C1101 C1100 1.391 . S
C1101 C1103 1.387 . S
C1102 C1099 1.398 . S
C1102 C1103 1.380 . S
C1102 H1116 0.930 . S
C1103 C1101 1.387 . S
C1103 C1102 1.380 . S
C1103 H1117 0.930 . S
C1104 O1084 1.254 . S
C1104 O1085 1.268 . S
C1105 O1089 1.284 . S
C1105 O1092 1.250 . S
C1106 Gd1039 2.828 . S
C1106 O1088 1.258 . S
C1106 O1093 1.252 . S
C1106 C1107 1.497 . S
C1107 C1106 1.497 . S
C1107 C1108 1.395 . S
C1107 C1109 1.380 . S
C1108 C1107 1.395 . S
C1108 C1111 1.398 . S
C1108 H1118 0.930 . S
C1109 C1107 1.380 . S
C1109 C1110 1.391 . S
C1109 H1119 0.930 . S
C1110 C1109 1.391 . S
C1110 C1112 1.387 . S
C1111 C1108 1.398 . S
C1111 C1112 1.380 . S
C1111 H1120 0.930 . S
C1112 C1110 1.387 . S
C1112 C1111 1.380 . S
C1112 H1121 0.930 . S
C1113 O1090 1.254 . S
C1113 O1091 1.268 . S
H1114 C1099 0.930 . S
H1115 C1100 0.930 . S
H1116 C1102 0.930 . S
H1117 C1103 0.930 . S
H1118 C1108 0.930 . S
H1119 C1109 0.930 . S
H1120 C1111 0.930 . S
H1121 C1112 0.930 . S
Gd1122 N1153 2.661 . S
Gd1122 N1159 2.601 . S
Gd1122 O1166 2.545 . S
Gd1122 O1167 2.606 . S
Gd1122 O1169 2.429 . S
Gd1122 O1170 2.545 . S
Gd1122 O1171 2.412 . S
Gd1122 O1173 2.362 . S
Gd1122 O1174 2.324 . S
Gd1122 C1181 2.828 . S
Gd1123 N1132 2.661 . S
Gd1123 N1136 2.601 . S
Gd1123 O1167 2.362 . S
Gd1123 O1168 2.324 . S
Gd1123 O1172 2.545 . S
Gd1123 O1173 2.606 . S
Gd1123 O1175 2.429 . S
Gd1123 O1176 2.545 . S
Gd1123 O1177 2.412 . S
Gd1123 C1190 2.828 . S
C1124 C1127 1.417 . S
C1124 C1129 1.431 . S
C1124 C1130 1.412 . S
C1125 C1128 1.437 . S
C1125 C1129 1.317 . S
C1125 H1144 0.929 . S
C1126 C1127 1.426 . S
C1126 C1128 1.413 . S
C1126 N1136 1.359 . S
C1127 C1124 1.417 . S
C1127 C1126 1.426 . S
C1127 N1132 1.350 . S
C1128 C1125 1.437 . S
C1128 C1126 1.413 . S
C1128 C1138 1.391 . S
C1129 C1124 1.431 . S
C1129 C1125 1.317 . S
C1129 H1140 0.930 . S
C1130 C1124 1.412 . S
C1130 C1131 1.355 . S
C1130 H1142 0.930 . S
C1131 C1130 1.355 . S
C1131 C1133 1.402 . S
C1131 H1143 0.930 . S
N1132 Gd1123 2.661 . S
N1132 C1127 1.350 . S
N1132 C1133 1.307 . S
C1133 C1131 1.402 . S
C1133 N1132 1.307 . S
C1133 H1134 0.930 . S
H1134 C1133 0.930 . S
C1135 N1136 1.334 . S
C1135 C1137 1.394 . S
C1135 H1139 0.930 . S
N1136 Gd1123 2.601 . S
N1136 C1126 1.359 . S
N1136 C1135 1.334 . S
C1137 C1135 1.394 . S
C1137 C1138 1.359 . S
C1137 H1149 0.930 . S
C1138 C1128 1.391 . S
C1138 C1137 1.359 . S
C1138 H1150 0.929 . S
H1139 C1135 0.930 . S
H1140 C1129 0.930 . S
H1141 C1158 0.930 . S
H1142 C1130 0.930 . S
H1143 C1131 0.930 . S
H1144 C1125 0.929 . S
H1145 C1163 0.930 . S
H1146 C1154 0.930 . S
H1147 C1155 0.930 . S
H1148 C1179 0.929 . S
H1149 C1137 0.930 . S
H1150 C1138 0.929 . S
H1151 C1180 0.930 . S
H1152 C1161 0.930 . S
N1153 Gd1122 2.661 . S
N1153 C1157 1.350 . S
N1153 C1158 1.307 . S
C1154 H1146 0.930 . S
C1154 C1155 1.355 . S
C1154 C1156 1.412 . S
C1155 H1147 0.930 . S
C1155 C1154 1.355 . S
C1155 C1158 1.402 . S
C1156 C1154 1.412 . S
C1156 C1157 1.417 . S
C1156 C1180 1.431 . S
C1157 N1153 1.350 . S
C1157 C1156 1.417 . S
C1157 C1160 1.426 . S
C1158 H1141 0.930 . S
C1158 N1153 1.307 . S
C1158 C1155 1.402 . S
N1159 Gd1122 2.601 . S
N1159 C1160 1.359 . S
N1159 C1163 1.334 . S
C1160 C1157 1.426 . S
C1160 N1159 1.359 . S
C1160 C1164 1.413 . S
C1161 H1152 0.930 . S
C1161 C1162 1.359 . S
C1161 C1163 1.394 . S
C1162 C1161 1.359 . S
C1162 C1164 1.391 . S
C1162 H1165 0.929 . S
C1163 H1145 0.930 . S
C1163 N1159 1.334 . S
C1163 C1161 1.394 . S
C1164 C1160 1.413 . S
C1164 C1162 1.391 . S
C1164 C1179 1.437 . S
H1165 C1162 0.929 . S
O1166 Gd1122 2.545 . S
O1166 C1181 1.258 . S
O1167 Gd1122 2.606 . S
O1167 Gd1123 2.362 . S
O1167 C1178 1.284 . S
O1168 Gd1123 2.324 . S
O1168 C1188 1.254 . S
O1169 Gd1122 2.429 . S
O1169 C1188 1.268 . S
O1170 Gd1122 2.545 . S
O1170 C1178 1.250 . S
O1171 Gd1122 2.412 . S
O1171 C1181 1.252 . S
O1172 Gd1123 2.545 . S
O1172 C1190 1.258 . S
O1173 Gd1122 2.362 . S
O1173 Gd1123 2.606 . S
O1173 C1189 1.284 . S
O1174 Gd1122 2.324 . S
O1174 C1197 1.254 . S
O1175 Gd1123 2.429 . S
O1175 C1197 1.268 . S
O1176 Gd1123 2.545 . S
O1176 C1189 1.250 . S
O1177 Gd1123 2.412 . S
O1177 C1190 1.252 . S
C1178 O1167 1.284 . S
C1178 O1170 1.250 . S
C1179 H1148 0.929 . S
C1179 C1164 1.437 . S
C1179 C1180 1.317 . S
C1180 H1151 0.930 . S
C1180 C1156 1.431 . S
C1180 C1179 1.317 . S
C1181 Gd1122 2.828 . S
C1181 O1166 1.258 . S
C1181 O1171 1.252 . S
C1181 C1182 1.497 . S
C1182 C1181 1.497 . S
C1182 C1183 1.395 . S
C1182 C1184 1.380 . S
C1183 C1182 1.395 . S
C1183 C1186 1.398 . S
C1183 H1198 0.930 . S
C1184 C1182 1.380 . S
C1184 C1185 1.391 . S
C1184 H1199 0.930 . S
C1185 C1184 1.391 . S
C1185 C1187 1.387 . S
C1186 C1183 1.398 . S
C1186 C1187 1.380 . S
C1186 H1200 0.930 . S
C1187 C1185 1.387 . S
C1187 C1186 1.380 . S
C1187 H1201 0.930 . S
C1188 O1168 1.254 . S
C1188 O1169 1.268 . S
C1189 O1173 1.284 . S
C1189 O1176 1.250 . S
C1190 Gd1123 2.828 . S
C1190 O1172 1.258 . S
C1190 O1177 1.252 . S
C1190 C1191 1.497 . S
C1191 C1190 1.497 . S
C1191 C1192 1.395 . S
C1191 C1193 1.380 . S
C1192 C1191 1.395 . S
C1192 C1195 1.398 . S
C1192 H1202 0.930 . S
C1193 C1191 1.380 . S
C1193 C1194 1.391 . S
C1193 H1203 0.930 . S
C1194 C1193 1.391 . S
C1194 C1196 1.387 . S
C1195 C1192 1.398 . S
C1195 C1196 1.380 . S
C1195 H1204 0.930 . S
C1196 C1194 1.387 . S
C1196 C1195 1.380 . S
C1196 H1205 0.930 . S
C1197 O1174 1.254 . S
C1197 O1175 1.268 . S
H1198 C1183 0.930 . S
H1199 C1184 0.930 . S
H1200 C1186 0.930 . S
H1201 C1187 0.930 . S
H1202 C1192 0.930 . S
H1203 C1193 0.930 . S
H1204 C1195 0.930 . S
H1205 C1196 0.930 . S
Gd1206 N1237 2.661 . S
Gd1206 N1243 2.601 . S
Gd1206 O1250 2.545 . S
Gd1206 O1251 2.606 . S
Gd1206 O1253 2.429 . S
Gd1206 O1254 2.545 . S
Gd1206 O1255 2.412 . S
Gd1206 O1257 2.362 . S
Gd1206 O1258 2.324 . S
Gd1206 C1265 2.828 . S
Gd1207 N1216 2.661 . S
Gd1207 N1220 2.601 . S
Gd1207 O1251 2.362 . S
Gd1207 O1252 2.324 . S
Gd1207 O1256 2.545 . S
Gd1207 O1257 2.606 . S
Gd1207 O1259 2.429 . S
Gd1207 O1260 2.545 . S
Gd1207 O1261 2.412 . S
Gd1207 C1274 2.828 . S
C1208 C1211 1.417 . S
C1208 C1213 1.431 . S
C1208 C1214 1.412 . S
C1209 C1212 1.437 . S
C1209 C1213 1.317 . S
C1209 H1228 0.929 . S
C1210 C1211 1.426 . S
C1210 C1212 1.413 . S
C1210 N1220 1.359 . S
C1211 C1208 1.417 . S
C1211 C1210 1.426 . S
C1211 N1216 1.350 . S
C1212 C1209 1.437 . S
C1212 C1210 1.413 . S
C1212 C1222 1.391 . S
C1213 C1208 1.431 . S
C1213 C1209 1.317 . S
C1213 H1224 0.930 . S
C1214 C1208 1.412 . S
C1214 C1215 1.355 . S
C1214 H1226 0.930 . S
C1215 C1214 1.355 . S
C1215 C1217 1.402 . S
C1215 H1227 0.930 . S
N1216 Gd1207 2.661 . S
N1216 C1211 1.350 . S
N1216 C1217 1.307 . S
C1217 C1215 1.402 . S
C1217 N1216 1.307 . S
C1217 H1218 0.930 . S
H1218 C1217 0.930 . S
C1219 N1220 1.334 . S
C1219 C1221 1.394 . S
C1219 H1223 0.930 . S
N1220 Gd1207 2.601 . S
N1220 C1210 1.359 . S
N1220 C1219 1.334 . S
C1221 C1219 1.394 . S
C1221 C1222 1.359 . S
C1221 H1233 0.930 . S
C1222 C1212 1.391 . S
C1222 C1221 1.359 . S
C1222 H1234 0.929 . S
H1223 C1219 0.930 . S
H1224 C1213 0.930 . S
H1225 C1242 0.930 . S
H1226 C1214 0.930 . S
H1227 C1215 0.930 . S
H1228 C1209 0.929 . S
H1229 C1247 0.930 . S
H1230 C1238 0.930 . S
H1231 C1239 0.930 . S
H1232 C1263 0.929 . S
H1233 C1221 0.930 . S
H1234 C1222 0.929 . S
H1235 C1264 0.930 . S
H1236 C1245 0.930 . S
N1237 Gd1206 2.661 . S
N1237 C1241 1.350 . S
N1237 C1242 1.307 . S
C1238 H1230 0.930 . S
C1238 C1239 1.355 . S
C1238 C1240 1.412 . S
C1239 H1231 0.930 . S
C1239 C1238 1.355 . S
C1239 C1242 1.402 . S
C1240 C1238 1.412 . S
C1240 C1241 1.417 . S
C1240 C1264 1.431 . S
C1241 N1237 1.350 . S
C1241 C1240 1.417 . S
C1241 C1244 1.426 . S
C1242 H1225 0.930 . S
C1242 N1237 1.307 . S
C1242 C1239 1.402 . S
N1243 Gd1206 2.601 . S
N1243 C1244 1.359 . S
N1243 C1247 1.334 . S
C1244 C1241 1.426 . S
C1244 N1243 1.359 . S
C1244 C1248 1.413 . S
C1245 H1236 0.930 . S
C1245 C1246 1.359 . S
C1245 C1247 1.394 . S
C1246 C1245 1.359 . S
C1246 C1248 1.391 . S
C1246 H1249 0.929 . S
C1247 H1229 0.930 . S
C1247 N1243 1.334 . S
C1247 C1245 1.394 . S
C1248 C1244 1.413 . S
C1248 C1246 1.391 . S
C1248 C1263 1.437 . S
H1249 C1246 0.929 . S
O1250 Gd1206 2.545 . S
O1250 C1265 1.258 . S
O1251 Gd1206 2.606 . S
O1251 Gd1207 2.362 . S
O1251 C1262 1.284 . S
O1252 Gd1207 2.324 . S
O1252 C1272 1.254 . S
O1253 Gd1206 2.429 . S
O1253 C1272 1.268 . S
O1254 Gd1206 2.545 . S
O1254 C1262 1.250 . S
O1255 Gd1206 2.412 . S
O1255 C1265 1.252 . S
O1256 Gd1207 2.545 . S
O1256 C1274 1.258 . S
O1257 Gd1206 2.362 . S
O1257 Gd1207 2.606 . S
O1257 C1273 1.284 . S
O1258 Gd1206 2.324 . S
O1258 C1281 1.254 . S
O1259 Gd1207 2.429 . S
O1259 C1281 1.268 . S
O1260 Gd1207 2.545 . S
O1260 C1273 1.250 . S
O1261 Gd1207 2.412 . S
O1261 C1274 1.252 . S
C1262 O1251 1.284 . S
C1262 O1254 1.250 . S
C1263 H1232 0.929 . S
C1263 C1248 1.437 . S
C1263 C1264 1.317 . S
C1264 H1235 0.930 . S
C1264 C1240 1.431 . S
C1264 C1263 1.317 . S
C1265 Gd1206 2.828 . S
C1265 O1250 1.258 . S
C1265 O1255 1.252 . S
C1265 C1266 1.497 . S
C1266 C1265 1.497 . S
C1266 C1267 1.395 . S
C1266 C1268 1.380 . S
C1267 C1266 1.395 . S
C1267 C1270 1.398 . S
C1267 H1282 0.930 . S
C1268 C1266 1.380 . S
C1268 C1269 1.391 . S
C1268 H1283 0.930 . S
C1269 C1268 1.391 . S
C1269 C1271 1.387 . S
C1270 C1267 1.398 . S
C1270 C1271 1.380 . S
C1270 H1284 0.930 . S
C1271 C1269 1.387 . S
C1271 C1270 1.380 . S
C1271 H1285 0.930 . S
C1272 O1252 1.254 . S
C1272 O1253 1.268 . S
C1273 O1257 1.284 . S
C1273 O1260 1.250 . S
C1274 Gd1207 2.828 . S
C1274 O1256 1.258 . S
C1274 O1261 1.252 . S
C1274 C1275 1.497 . S
C1275 C1274 1.497 . S
C1275 C1276 1.395 . S
C1275 C1277 1.380 . S
C1276 C1275 1.395 . S
C1276 C1279 1.398 . S
C1276 H1286 0.930 . S
C1277 C1275 1.380 . S
C1277 C1278 1.391 . S
C1277 H1287 0.930 . S
C1278 C1277 1.391 . S
C1278 C1280 1.387 . S
C1279 C1276 1.398 . S
C1279 C1280 1.380 . S
C1279 H1288 0.930 . S
C1280 C1278 1.387 . S
C1280 C1279 1.380 . S
C1280 H1289 0.930 . S
C1281 O1258 1.254 . S
C1281 O1259 1.268 . S
H1282 C1267 0.930 . S
H1283 C1268 0.930 . S
H1284 C1270 0.930 . S
H1285 C1271 0.930 . S
H1286 C1276 0.930 . S
H1287 C1277 0.930 . S
H1288 C1279 0.930 . S
H1289 C1280 0.930 . S
Gd1290 N1321 2.661 . S
Gd1290 N1327 2.601 . S
Gd1290 O1334 2.545 . S
Gd1290 O1335 2.606 . S
Gd1290 O1337 2.429 . S
Gd1290 O1338 2.545 . S
Gd1290 O1339 2.412 . S
Gd1290 O1341 2.362 . S
Gd1290 O1342 2.324 . S
Gd1290 C1349 2.828 . S
Gd1291 N1300 2.661 . S
Gd1291 N1304 2.601 . S
Gd1291 O1335 2.362 . S
Gd1291 O1336 2.324 . S
Gd1291 O1340 2.545 . S
Gd1291 O1341 2.606 . S
Gd1291 O1343 2.429 . S
Gd1291 O1344 2.545 . S
Gd1291 O1345 2.412 . S
Gd1291 C1358 2.828 . S
C1292 C1295 1.417 . S
C1292 C1297 1.431 . S
C1292 C1298 1.412 . S
C1293 C1296 1.437 . S
C1293 C1297 1.317 . S
C1293 H1312 0.929 . S
C1294 C1295 1.426 . S
C1294 C1296 1.413 . S
C1294 N1304 1.359 . S
C1295 C1292 1.417 . S
C1295 C1294 1.426 . S
C1295 N1300 1.350 . S
C1296 C1293 1.437 . S
C1296 C1294 1.413 . S
C1296 C1306 1.391 . S
C1297 C1292 1.431 . S
C1297 C1293 1.317 . S
C1297 H1308 0.930 . S
C1298 C1292 1.412 . S
C1298 C1299 1.355 . S
C1298 H1310 0.930 . S
C1299 C1298 1.355 . S
C1299 C1301 1.402 . S
C1299 H1311 0.930 . S
N1300 Gd1291 2.661 . S
N1300 C1295 1.350 . S
N1300 C1301 1.307 . S
C1301 C1299 1.402 . S
C1301 N1300 1.307 . S
C1301 H1302 0.930 . S
H1302 C1301 0.930 . S
C1303 N1304 1.334 . S
C1303 C1305 1.394 . S
C1303 H1307 0.930 . S
N1304 Gd1291 2.601 . S
N1304 C1294 1.359 . S
N1304 C1303 1.334 . S
C1305 C1303 1.394 . S
C1305 C1306 1.359 . S
C1305 H1317 0.930 . S
C1306 C1296 1.391 . S
C1306 C1305 1.359 . S
C1306 H1318 0.929 . S
H1307 C1303 0.930 . S
H1308 C1297 0.930 . S
H1309 C1326 0.930 . S
H1310 C1298 0.930 . S
H1311 C1299 0.930 . S
H1312 C1293 0.929 . S
H1313 C1331 0.930 . S
H1314 C1322 0.930 . S
H1315 C1323 0.930 . S
H1316 C1347 0.929 . S
H1317 C1305 0.930 . S
H1318 C1306 0.929 . S
H1319 C1348 0.930 . S
H1320 C1329 0.930 . S
N1321 Gd1290 2.661 . S
N1321 C1325 1.350 . S
N1321 C1326 1.307 . S
C1322 H1314 0.930 . S
C1322 C1323 1.355 . S
C1322 C1324 1.412 . S
C1323 H1315 0.930 . S
C1323 C1322 1.355 . S
C1323 C1326 1.402 . S
C1324 C1322 1.412 . S
C1324 C1325 1.417 . S
C1324 C1348 1.431 . S
C1325 N1321 1.350 . S
C1325 C1324 1.417 . S
C1325 C1328 1.426 . S
C1326 H1309 0.930 . S
C1326 N1321 1.307 . S
C1326 C1323 1.402 . S
N1327 Gd1290 2.601 . S
N1327 C1328 1.359 . S
N1327 C1331 1.334 . S
C1328 C1325 1.426 . S
C1328 N1327 1.359 . S
C1328 C1332 1.413 . S
C1329 H1320 0.930 . S
C1329 C1330 1.359 . S
C1329 C1331 1.394 . S
C1330 C1329 1.359 . S
C1330 C1332 1.391 . S
C1330 H1333 0.929 . S
C1331 H1313 0.930 . S
C1331 N1327 1.334 . S
C1331 C1329 1.394 . S
C1332 C1328 1.413 . S
C1332 C1330 1.391 . S
C1332 C1347 1.437 . S
H1333 C1330 0.929 . S
O1334 Gd1290 2.545 . S
O1334 C1349 1.258 . S
O1335 Gd1290 2.606 . S
O1335 Gd1291 2.362 . S
O1335 C1346 1.284 . S
O1336 Gd1291 2.324 . S
O1336 C1356 1.254 . S
O1337 Gd1290 2.429 . S
O1337 C1356 1.268 . S
O1338 Gd1290 2.545 . S
O1338 C1346 1.250 . S
O1339 Gd1290 2.412 . S
O1339 C1349 1.252 . S
O1340 Gd1291 2.545 . S
O1340 C1358 1.258 . S
O1341 Gd1290 2.362 . S
O1341 Gd1291 2.606 . S
O1341 C1357 1.284 . S
O1342 Gd1290 2.324 . S
O1342 C1365 1.254 . S
O1343 Gd1291 2.429 . S
O1343 C1365 1.268 . S
O1344 Gd1291 2.545 . S
O1344 C1357 1.250 . S
O1345 Gd1291 2.412 . S
O1345 C1358 1.252 . S
C1346 O1335 1.284 . S
C1346 O1338 1.250 . S
C1347 H1316 0.929 . S
C1347 C1332 1.437 . S
C1347 C1348 1.317 . S
C1348 H1319 0.930 . S
C1348 C1324 1.431 . S
C1348 C1347 1.317 . S
C1349 Gd1290 2.828 . S
C1349 O1334 1.258 . S
C1349 O1339 1.252 . S
C1349 C1350 1.497 . S
C1350 C1349 1.497 . S
C1350 C1351 1.395 . S
C1350 C1352 1.380 . S
C1351 C1350 1.395 . S
C1351 C1354 1.398 . S
C1351 H1366 0.930 . S
C1352 C1350 1.380 . S
C1352 C1353 1.391 . S
C1352 H1367 0.930 . S
C1353 C1352 1.391 . S
C1353 C1355 1.387 . S
C1354 C1351 1.398 . S
C1354 C1355 1.380 . S
C1354 H1368 0.930 . S
C1355 C1353 1.387 . S
C1355 C1354 1.380 . S
C1355 H1369 0.930 . S
C1356 O1336 1.254 . S
C1356 O1337 1.268 . S
C1357 O1341 1.284 . S
C1357 O1344 1.250 . S
C1358 Gd1291 2.828 . S
C1358 O1340 1.258 . S
C1358 O1345 1.252 . S
C1358 C1359 1.497 . S
C1359 C1358 1.497 . S
C1359 C1360 1.395 . S
C1359 C1361 1.380 . S
C1360 C1359 1.395 . S
C1360 C1363 1.398 . S
C1360 H1370 0.930 . S
C1361 C1359 1.380 . S
C1361 C1362 1.391 . S
C1361 H1371 0.930 . S
C1362 C1361 1.391 . S
C1362 C1364 1.387 . S
C1363 C1360 1.398 . S
C1363 C1364 1.380 . S
C1363 H1372 0.930 . S
C1364 C1362 1.387 . S
C1364 C1363 1.380 . S
C1364 H1373 0.930 . S
C1365 O1342 1.254 . S
C1365 O1343 1.268 . S
H1366 C1351 0.930 . S
H1367 C1352 0.930 . S
H1368 C1354 0.930 . S
H1369 C1355 0.930 . S
H1370 C1360 0.930 . S
H1371 C1361 0.930 . S
H1372 C1363 0.930 . S
H1373 C1364 0.930 . S
Gd1374 N1405 2.661 . S
Gd1374 N1411 2.601 . S
Gd1374 O1418 2.545 . S
Gd1374 O1419 2.606 . S
Gd1374 O1421 2.429 . S
Gd1374 O1422 2.545 . S
Gd1374 O1423 2.412 . S
Gd1374 O1425 2.362 . S
Gd1374 O1426 2.324 . S
Gd1374 C1433 2.828 . S
Gd1375 N1384 2.661 . S
Gd1375 N1388 2.601 . S
Gd1375 O1419 2.362 . S
Gd1375 O1420 2.324 . S
Gd1375 O1424 2.545 . S
Gd1375 O1425 2.606 . S
Gd1375 O1427 2.429 . S
Gd1375 O1428 2.545 . S
Gd1375 O1429 2.412 . S
Gd1375 C1442 2.828 . S
C1376 C1379 1.417 . S
C1376 C1381 1.431 . S
C1376 C1382 1.412 . S
C1377 C1380 1.437 . S
C1377 C1381 1.317 . S
C1377 H1396 0.929 . S
C1378 C1379 1.426 . S
C1378 C1380 1.413 . S
C1378 N1388 1.359 . S
C1379 C1376 1.417 . S
C1379 C1378 1.426 . S
C1379 N1384 1.350 . S
C1380 C1377 1.437 . S
C1380 C1378 1.413 . S
C1380 C1390 1.391 . S
C1381 C1376 1.431 . S
C1381 C1377 1.317 . S
C1381 H1392 0.930 . S
C1382 C1376 1.412 . S
C1382 C1383 1.355 . S
C1382 H1394 0.930 . S
C1383 C1382 1.355 . S
C1383 C1385 1.402 . S
C1383 H1395 0.930 . S
N1384 Gd1375 2.661 . S
N1384 C1379 1.350 . S
N1384 C1385 1.307 . S
C1385 C1383 1.402 . S
C1385 N1384 1.307 . S
C1385 H1386 0.930 . S
H1386 C1385 0.930 . S
C1387 N1388 1.334 . S
C1387 C1389 1.394 . S
C1387 H1391 0.930 . S
N1388 Gd1375 2.601 . S
N1388 C1378 1.359 . S
N1388 C1387 1.334 . S
C1389 C1387 1.394 . S
C1389 C1390 1.359 . S
C1389 H1401 0.930 . S
C1390 C1380 1.391 . S
C1390 C1389 1.359 . S
C1390 H1402 0.929 . S
H1391 C1387 0.930 . S
H1392 C1381 0.930 . S
H1393 C1410 0.930 . S
H1394 C1382 0.930 . S
H1395 C1383 0.930 . S
H1396 C1377 0.929 . S
H1397 C1415 0.930 . S
H1398 C1406 0.930 . S
H1399 C1407 0.930 . S
H1400 C1431 0.929 . S
H1401 C1389 0.930 . S
H1402 C1390 0.929 . S
H1403 C1432 0.930 . S
H1404 C1413 0.930 . S
N1405 Gd1374 2.661 . S
N1405 C1409 1.350 . S
N1405 C1410 1.307 . S
C1406 H1398 0.930 . S
C1406 C1407 1.355 . S
C1406 C1408 1.412 . S
C1407 H1399 0.930 . S
C1407 C1406 1.355 . S
C1407 C1410 1.402 . S
C1408 C1406 1.412 . S
C1408 C1409 1.417 . S
C1408 C1432 1.431 . S
C1409 N1405 1.350 . S
C1409 C1408 1.417 . S
C1409 C1412 1.426 . S
C1410 H1393 0.930 . S
C1410 N1405 1.307 . S
C1410 C1407 1.402 . S
N1411 Gd1374 2.601 . S
N1411 C1412 1.359 . S
N1411 C1415 1.334 . S
C1412 C1409 1.426 . S
C1412 N1411 1.359 . S
C1412 C1416 1.413 . S
C1413 H1404 0.930 . S
C1413 C1414 1.359 . S
C1413 C1415 1.394 . S
C1414 C1413 1.359 . S
C1414 C1416 1.391 . S
C1414 H1417 0.929 . S
C1415 H1397 0.930 . S
C1415 N1411 1.334 . S
C1415 C1413 1.394 . S
C1416 C1412 1.413 . S
C1416 C1414 1.391 . S
C1416 C1431 1.437 . S
H1417 C1414 0.929 . S
O1418 Gd1374 2.545 . S
O1418 C1433 1.258 . S
O1419 Gd1374 2.606 . S
O1419 Gd1375 2.362 . S
O1419 C1430 1.284 . S
O1420 Gd1375 2.324 . S
O1420 C1440 1.254 . S
O1421 Gd1374 2.429 . S
O1421 C1440 1.268 . S
O1422 Gd1374 2.545 . S
O1422 C1430 1.250 . S
O1423 Gd1374 2.412 . S
O1423 C1433 1.252 . S
O1424 Gd1375 2.545 . S
O1424 C1442 1.258 . S
O1425 Gd1374 2.362 . S
O1425 Gd1375 2.606 . S
O1425 C1441 1.284 . S
O1426 Gd1374 2.324 . S
O1426 C1449 1.254 . S
O1427 Gd1375 2.429 . S
O1427 C1449 1.268 . S
O1428 Gd1375 2.545 . S
O1428 C1441 1.250 . S
O1429 Gd1375 2.412 . S
O1429 C1442 1.252 . S
C1430 O1419 1.284 . S
C1430 O1422 1.250 . S
C1431 H1400 0.929 . S
C1431 C1416 1.437 . S
C1431 C1432 1.317 . S
C1432 H1403 0.930 . S
C1432 C1408 1.431 . S
C1432 C1431 1.317 . S
C1433 Gd1374 2.828 . S
C1433 O1418 1.258 . S
C1433 O1423 1.252 . S
C1433 C1434 1.497 . S
C1434 C1433 1.497 . S
C1434 C1435 1.395 . S
C1434 C1436 1.380 . S
C1435 C1434 1.395 . S
C1435 C1438 1.398 . S
C1435 H1450 0.930 . S
C1436 C1434 1.380 . S
C1436 C1437 1.391 . S
C1436 H1451 0.930 . S
C1437 C1436 1.391 . S
C1437 C1439 1.387 . S
C1438 C1435 1.398 . S
C1438 C1439 1.380 . S
C1438 H1452 0.930 . S
C1439 C1437 1.387 . S
C1439 C1438 1.380 . S
C1439 H1453 0.930 . S
C1440 O1420 1.254 . S
C1440 O1421 1.268 . S
C1441 O1425 1.284 . S
C1441 O1428 1.250 . S
C1442 Gd1375 2.828 . S
C1442 O1424 1.258 . S
C1442 O1429 1.252 . S
C1442 C1443 1.497 . S
C1443 C1442 1.497 . S
C1443 C1444 1.395 . S
C1443 C1445 1.380 . S
C1444 C1443 1.395 . S
C1444 C1447 1.398 . S
C1444 H1454 0.930 . S
C1445 C1443 1.380 . S
C1445 C1446 1.391 . S
C1445 H1455 0.930 . S
C1446 C1445 1.391 . S
C1446 C1448 1.387 . S
C1447 C1444 1.398 . S
C1447 C1448 1.380 . S
C1447 H1456 0.930 . S
C1448 C1446 1.387 . S
C1448 C1447 1.380 . S
C1448 H1457 0.930 . S
C1449 O1426 1.254 . S
C1449 O1427 1.268 . S
H1450 C1435 0.930 . S
H1451 C1436 0.930 . S
H1452 C1438 0.930 . S
H1453 C1439 0.930 . S
H1454 C1444 0.930 . S
H1455 C1445 0.930 . S
H1456 C1447 0.930 . S
H1457 C1448 0.930 . S
C1458 C1459 1.369 . S
C1458 C1460 1.419 . S
C1458 H1462 0.930 . S
C1459 C1458 1.369 . S
C1459 C1468 1.429 . S
C1460 C1458 1.419 . S
C1460 C1461 1.363 . S
C1460 H1463 0.929 . S
C1461 C1460 1.363 . S
C1461 C1467 1.428 . S
H1462 C1458 0.930 . S
H1463 C1460 0.929 . S
S1464 N1465 1.613 . S
S1464 N1466 1.610 . S
N1465 S1464 1.613 . S
N1465 C1468 1.350 . S
N1466 S1464 1.610 . S
N1466 C1467 1.351 . S
C1467 C1461 1.428 . S
C1467 N1466 1.351 . S
C1467 C1468 1.434 . S
C1468 C1459 1.429 . S
C1468 N1465 1.350 . S
C1468 C1467 1.434 . S
C1469 C1470 1.369 . S
C1469 C1471 1.419 . S
C1469 H1473 0.930 . S
C1470 C1469 1.369 . S
C1470 C1479 1.429 . S
C1471 C1469 1.419 . S
C1471 C1472 1.363 . S
C1471 H1474 0.929 . S
C1472 C1471 1.363 . S
C1472 C1478 1.428 . S
H1473 C1469 0.930 . S
H1474 C1471 0.929 . S
S1475 N1476 1.613 . S
S1475 N1477 1.610 . S
N1476 S1475 1.613 . S
N1476 C1479 1.350 . S
N1477 S1475 1.610 . S
N1477 C1478 1.351 . S
C1478 C1472 1.428 . S
C1478 N1477 1.351 . S
C1478 C1479 1.434 . S
C1479 C1470 1.429 . S
C1479 N1476 1.350 . S
C1479 C1478 1.434 . S
C1480 C1481 1.369 . S
C1480 C1482 1.419 . S
C1480 H1484 0.930 . S
C1481 C1480 1.369 . S
C1481 C1490 1.429 . S
C1482 C1480 1.419 . S
C1482 C1483 1.363 . S
C1482 H1485 0.929 . S
C1483 C1482 1.363 . S
C1483 C1489 1.428 . S
H1484 C1480 0.930 . S
H1485 C1482 0.929 . S
S1486 N1487 1.613 . S
S1486 N1488 1.610 . S
N1487 S1486 1.613 . S
N1487 C1490 1.350 . S
N1488 S1486 1.610 . S
N1488 C1489 1.351 . S
C1489 C1483 1.428 . S
C1489 N1488 1.351 . S
C1489 C1490 1.434 . S
C1490 C1481 1.429 . S
C1490 N1487 1.350 . S
C1490 C1489 1.434 . S
C1491 C1492 1.369 . S
C1491 C1493 1.419 . S
C1491 H1495 0.930 . S
C1492 C1491 1.369 . S
C1492 C1501 1.429 . S
C1493 C1491 1.419 . S
C1493 C1494 1.363 . S
C1493 H1496 0.929 1_556 S
C1494 C1493 1.363 . S
C1494 C1500 1.428 . S
H1495 C1491 0.930 . S
H1496 C1493 0.929 1_554 S
S1497 N1498 1.613 . S
S1497 N1499 1.610 . S
N1498 S1497 1.613 . S
N1498 C1501 1.350 . S
N1499 S1497 1.610 . S
N1499 C1500 1.351 . S
C1500 C1494 1.428 . S
C1500 N1499 1.351 . S
C1500 C1501 1.434 . S
C1501 C1492 1.429 . S
C1501 N1498 1.350 . S
C1501 C1500 1.434 . S
C1502 C1503 1.369 . S
C1502 C1504 1.419 . S
C1502 H1506 0.930 . S
C1503 C1502 1.369 . S
C1503 C1512 1.429 . S
C1504 C1502 1.419 . S
C1504 C1505 1.363 . S
C1504 H1507 0.929 1_556 S
C1505 C1504 1.363 . S
C1505 C1511 1.428 . S
H1506 C1502 0.930 . S
H1507 C1504 0.929 1_554 S
S1508 N1509 1.613 . S
S1508 N1510 1.610 . S
N1509 S1508 1.613 . S
N1509 C1512 1.350 . S
N1510 S1508 1.610 . S
N1510 C1511 1.351 . S
C1511 C1505 1.428 . S
C1511 N1510 1.351 . S
C1511 C1512 1.434 . S
C1512 C1503 1.429 . S
C1512 N1509 1.350 . S
C1512 C1511 1.434 . S
C1513 C1514 1.369 . S
C1513 C1515 1.419 . S
C1513 H1517 0.930 . S
C1514 C1513 1.369 . S
C1514 C1523 1.429 . S
C1515 C1513 1.419 . S
C1515 C1516 1.363 . S
C1515 H1518 0.929 . S
C1516 C1515 1.363 . S
C1516 C1522 1.428 . S
H1517 C1513 0.930 . S
H1518 C1515 0.929 . S
S1519 N1520 1.624 . S
S1519 N1521 1.612 . S
N1520 S1519 1.624 . S
N1520 C1523 1.350 . S
N1521 S1519 1.612 . S
N1521 C1522 1.351 . S
C1522 C1516 1.428 . S
C1522 N1521 1.351 . S
C1522 C1523 1.434 . S
C1523 C1514 1.429 . S
C1523 N1520 1.350 . S
C1523 C1522 1.434 . S
C1524 C1525 1.369 . S
C1524 C1526 1.419 . S
C1524 H1528 0.930 . S
C1525 C1524 1.369 . S
C1525 C1534 1.429 . S
C1526 C1524 1.419 . S
C1526 C1527 1.363 . S
C1526 H1529 0.929 1_556 S
C1527 C1526 1.363 . S
C1527 C1533 1.428 . S
H1528 C1524 0.930 . S
H1529 C1526 0.929 1_554 S
S1530 N1531 1.613 . S
S1530 N1532 1.610 . S
N1531 S1530 1.613 . S
N1531 C1534 1.350 . S
N1532 S1530 1.610 . S
N1532 C1533 1.351 . S
C1533 C1527 1.428 . S
C1533 N1532 1.351 . S
C1533 C1534 1.434 . S
C1534 C1525 1.429 . S
C1534 N1531 1.350 . S
C1534 C1533 1.434 . S
C1535 C1536 1.369 . S
C1535 C1537 1.419 . S
C1535 H1539 0.930 . S
C1536 C1535 1.369 . S
C1536 C1545 1.429 . S
C1537 C1535 1.419 . S
C1537 C1538 1.363 . S
C1537 H1540 0.929 . S
C1538 C1537 1.363 . S
C1538 C1544 1.428 . S
H1539 C1535 0.930 . S
H1540 C1537 0.929 . S
S1541 N1542 1.613 1_554 S
S1541 N1543 1.610 . S
N1542 S1541 1.613 1_556 S
N1542 C1545 1.350 . S
N1543 S1541 1.610 . S
N1543 C1544 1.351 1_554 S
C1544 C1538 1.428 . S
C1544 N1543 1.351 1_556 S
C1544 C1545 1.434 . S
C1545 C1536 1.429 . S
C1545 N1542 1.350 . S
C1545 C1544 1.434 . S
C1546 C1547 1.369 . S
C1546 C1548 1.419 . S
C1546 H1550 0.930 . S
C1547 C1546 1.369 . S
C1547 C1556 1.429 . S
C1548 C1546 1.419 . S
C1548 C1549 1.363 . S
C1548 H1551 0.929 . S
C1549 C1548 1.363 . S
C1549 C1555 1.428 . S
H1550 C1546 0.930 . S
H1551 C1548 0.929 . S
S1552 N1553 1.613 . S
S1552 N1554 1.610 . S
N1553 S1552 1.613 . S
N1553 C1556 1.350 . S
N1554 S1552 1.610 . S
N1554 C1555 1.351 . S
C1555 C1549 1.428 . S
C1555 N1554 1.351 . S
C1555 C1556 1.434 . S
C1556 C1547 1.429 . S
C1556 N1553 1.350 . S
C1556 C1555 1.434 . S
C1557 C1558 1.369 . S
C1557 C1559 1.419 . S
C1557 H1561 0.930 . S
C1558 C1557 1.369 . S
C1558 C1567 1.429 . S
C1559 C1557 1.419 . S
C1559 C1560 1.363 . S
C1559 H1562 0.929 . S
C1560 C1559 1.363 . S
C1560 C1566 1.428 . S
H1561 C1557 0.930 . S
H1562 C1559 0.929 . S
S1563 N1564 1.613 . S
S1563 N1565 1.610 . S
N1564 S1563 1.613 . S
N1564 C1567 1.350 . S
N1565 S1563 1.610 . S
N1565 C1566 1.351 . S
C1566 C1560 1.428 . S
C1566 N1565 1.351 . S
C1566 C1567 1.434 . S
C1567 C1558 1.429 . S
C1567 N1564 1.350 . S
C1567 C1566 1.434 . S
C1568 C1569 1.369 . S
C1568 C1570 1.419 . S
C1568 H1572 0.930 . S
C1569 C1568 1.369 . S
C1569 C1578 1.429 . S
C1570 C1568 1.419 . S
C1570 C1571 1.363 . S
C1570 H1573 0.929 . S
C1571 C1570 1.363 . S
C1571 C1577 1.428 . S
H1572 C1568 0.930 . S
H1573 C1570 0.929 . S
S1574 N1575 1.613 . S
S1574 N1576 1.610 . S
N1575 S1574 1.613 . S
N1575 C1578 1.350 . S
N1576 S1574 1.610 . S
N1576 C1577 1.351 . S
C1577 C1571 1.428 . S
C1577 N1576 1.351 . S
C1577 C1578 1.434 . S
C1578 C1569 1.429 . S
C1578 N1575 1.350 . S
C1578 C1577 1.434 . S
C1579 C1580 1.369 . S
C1579 C1581 1.419 . S
C1579 H1583 0.930 . S
C1580 C1579 1.369 . S
C1580 C1589 1.429 . S
C1581 C1579 1.419 . S
C1581 C1582 1.363 . S
C1581 H1584 0.929 1_554 S
C1582 C1581 1.363 . S
C1582 C1588 1.428 . S
H1583 C1579 0.930 . S
H1584 C1581 0.929 1_556 S
S1585 N1586 1.613 . S
S1585 N1587 1.610 . S
N1586 S1585 1.613 . S
N1586 C1589 1.350 . S
N1587 S1585 1.610 . S
N1587 C1588 1.351 . S
C1588 C1582 1.428 . S
C1588 N1587 1.351 . S
C1588 C1589 1.434 . S
C1589 C1580 1.429 . S
C1589 N1586 1.350 . S
C1589 C1588 1.434 . S
C1590 C1591 1.369 . S
C1590 C1592 1.419 . S
C1590 H1594 0.930 . S
C1591 C1590 1.369 . S
C1591 C1600 1.429 . S
C1592 C1590 1.419 . S
C1592 C1593 1.363 . S
C1592 H1595 0.929 . S
C1593 C1592 1.363 . S
C1593 C1599 1.428 . S
H1594 C1590 0.930 . S
H1595 C1592 0.929 . S
S1596 N1597 1.613 . S
S1596 N1598 1.610 . S
N1597 S1596 1.613 . S
N1597 C1600 1.350 . S
N1598 S1596 1.610 . S
N1598 C1599 1.351 . S
C1599 C1593 1.428 . S
C1599 N1598 1.351 . S
C1599 C1600 1.434 . S
C1600 C1591 1.429 . S
C1600 N1597 1.350 . S
C1600 C1599 1.434 . S
C1601 C1602 1.369 . S
C1601 C1603 1.419 . S
C1601 H1605 0.930 . S
C1602 C1601 1.369 . S
C1602 C1611 1.429 . S
C1603 C1601 1.419 . S
C1603 C1604 1.363 . S
C1603 H1606 0.929 . S
C1604 C1603 1.363 . S
C1604 C1610 1.428 . S
H1605 C1601 0.930 . S
H1606 C1603 0.929 . S
S1607 N1608 1.613 . S
S1607 N1609 1.610 . S
N1608 S1607 1.613 . S
N1608 C1611 1.350 . S
N1609 S1607 1.610 . S
N1609 C1610 1.351 . S
C1610 C1604 1.428 . S
C1610 N1609 1.351 . S
C1610 C1611 1.434 . S
C1611 C1602 1.429 . S
C1611 N1608 1.350 . S
C1611 C1610 1.434 . S
C1612 C1613 1.369 . S
C1612 C1614 1.419 . S
C1612 H1616 0.930 . S
C1613 C1612 1.369 . S
C1613 C1622 1.429 . S
C1614 C1612 1.419 . S
C1614 C1615 1.363 . S
C1614 H1617 0.929 . S
C1615 C1614 1.363 . S
C1615 C1621 1.428 . S
H1616 C1612 0.930 . S
H1617 C1614 0.929 . S
S1618 N1619 1.613 . S
S1618 N1620 1.610 . S
N1619 S1618 1.613 . S
N1619 C1622 1.350 . S
N1620 S1618 1.610 . S
N1620 C1621 1.351 . S
C1621 C1615 1.428 . S
C1621 N1620 1.351 . S
C1621 C1622 1.434 . S
C1622 C1613 1.429 . S
C1622 N1619 1.350 . S
C1622 C1621 1.434 . S
C1623 C1624 1.369 . S
C1623 C1625 1.419 . S
C1623 H1627 0.930 . S
C1624 C1623 1.369 . S
C1624 C1633 1.429 . S
C1625 C1623 1.419 . S
C1625 C1626 1.363 . S
C1625 H1628 0.929 . S
C1626 C1625 1.363 . S
C1626 C1632 1.428 . S
H1627 C1623 0.930 . S
H1628 C1625 0.929 . S
S1629 N1630 1.613 . S
S1629 N1631 1.610 . S
N1630 S1629 1.613 . S
N1630 C1633 1.350 . S
N1631 S1629 1.610 . S
N1631 C1632 1.351 . S
C1632 C1626 1.428 . S
C1632 N1631 1.351 . S
C1632 C1633 1.434 . S
C1633 C1624 1.429 . S
C1633 N1630 1.350 . S
C1633 C1632 1.434 . S
C1634 C1635 1.369 . S
C1634 C1636 1.419 . S
C1634 H1638 0.930 . S
C1635 C1634 1.369 . S
C1635 C1644 1.429 . S
C1636 C1634 1.419 . S
C1636 C1637 1.363 . S
C1636 H1639 0.929 . S
C1637 C1636 1.363 . S
C1637 C1643 1.428 . S
H1638 C1634 0.930 . S
H1639 C1636 0.929 . S
S1640 N1641 1.613 . S
S1640 N1642 1.610 . S
N1641 S1640 1.613 . S
N1641 C1644 1.350 . S
N1642 S1640 1.610 . S
N1642 C1643 1.351 . S
C1643 C1637 1.428 . S
C1643 N1642 1.351 . S
C1643 C1644 1.434 . S
C1644 C1635 1.429 . S
C1644 N1641 1.350 . S
C1644 C1643 1.434 . S
C1645 C1646 1.369 . S
C1645 C1647 1.419 . S
C1645 H1649 0.930 . S
C1646 C1645 1.369 . S
C1646 C1655 1.429 . S
C1647 C1645 1.419 . S
C1647 C1648 1.363 . S
C1647 H1650 0.929 . S
C1648 C1647 1.363 . S
C1648 C1654 1.428 . S
H1649 C1645 0.930 . S
H1650 C1647 0.929 . S
S1651 N1652 1.613 . S
S1651 N1653 1.610 . S
N1652 S1651 1.613 . S
N1652 C1655 1.350 . S
N1653 S1651 1.610 . S
N1653 C1654 1.351 . S
C1654 C1648 1.428 . S
C1654 N1653 1.351 . S
C1654 C1655 1.434 . S
C1655 C1646 1.429 . S
C1655 N1652 1.350 . S
C1655 C1654 1.434 . S
C1656 C1657 1.369 . S
C1656 C1658 1.419 . S
C1656 H1660 0.930 . S
C1657 C1656 1.369 . S
C1657 C1666 1.429 . S
C1658 C1656 1.419 . S
C1658 C1659 1.363 . S
C1658 H1661 0.929 . S
C1659 C1658 1.363 . S
C1659 C1665 1.428 . S
H1660 C1656 0.930 . S
H1661 C1658 0.929 . S
S1662 N1663 1.613 . S
S1662 N1664 1.610 . S
N1663 S1662 1.613 . S
N1663 C1666 1.350 . S
N1664 S1662 1.610 . S
N1664 C1665 1.351 . S
C1665 C1659 1.428 . S
C1665 N1664 1.351 . S
C1665 C1666 1.434 . S
C1666 C1657 1.429 . S
C1666 N1663 1.350 . S
C1666 C1665 1.434 . S
C1667 C1668 1.369 . S
C1667 C1669 1.419 . S
C1667 H1671 0.930 . S
C1668 C1667 1.369 . S
C1668 C1677 1.429 . S
C1669 C1667 1.419 . S
C1669 C1670 1.363 . S
C1669 H1672 0.929 . S
C1670 C1669 1.363 . S
C1670 C1676 1.428 . S
H1671 C1667 0.930 . S
H1672 C1669 0.929 . S
S1673 N1674 1.613 . S
S1673 N1675 1.610 . S
N1674 S1673 1.613 . S
N1674 C1677 1.350 . S
N1675 S1673 1.610 . S
N1675 C1676 1.351 . S
C1676 C1670 1.428 . S
C1676 N1675 1.351 . S
C1676 C1677 1.434 . S
C1677 C1668 1.429 . S
C1677 N1674 1.350 . S
C1677 C1676 1.434 . S
C1678 C1679 1.369 . S
C1678 C1680 1.419 . S
C1678 H1682 0.930 . S
C1679 C1678 1.369 . S
C1679 C1688 1.429 . S
C1680 C1678 1.419 . S
C1680 C1681 1.363 . S
C1680 H1683 0.929 . S
C1681 C1680 1.363 . S
C1681 C1687 1.428 . S
H1682 C1678 0.930 . S
H1683 C1680 0.929 . S
S1684 N1685 1.613 . S
S1684 N1686 1.610 . S
N1685 S1684 1.613 . S
N1685 C1688 1.350 . S
N1686 S1684 1.610 . S
N1686 C1687 1.351 . S
C1687 C1681 1.428 . S
C1687 N1686 1.351 . S
C1687 C1688 1.434 . S
C1688 C1679 1.429 . S
C1688 N1685 1.350 . S
C1688 C1687 1.434 . S
C1689 C1690 1.369 . S
C1689 C1691 1.419 . S
C1689 H1693 0.930 . S
C1690 C1689 1.369 . S
C1690 C1699 1.429 . S
C1691 C1689 1.419 . S
C1691 C1692 1.363 . S
C1691 H1694 0.929 . S
C1692 C1691 1.363 . S
C1692 C1698 1.428 . S
H1693 C1689 0.930 . S
H1694 C1691 0.929 . S
S1695 N1696 1.613 . S
S1695 N1697 1.610 . S
N1696 S1695 1.613 . S
N1696 C1699 1.350 . S
N1697 S1695 1.610 . S
N1697 C1698 1.351 . S
C1698 C1692 1.428 . S
C1698 N1697 1.351 . S
C1698 C1699 1.434 . S
C1699 C1690 1.429 . S
C1699 N1696 1.350 . S
C1699 C1698 1.434 . S
C1700 C1701 1.369 . S
C1700 C1702 1.419 . S
C1700 H1704 0.930 . S
C1701 C1700 1.369 . S
C1701 C1710 1.429 . S
C1702 C1700 1.419 . S
C1702 C1703 1.363 . S
C1702 H1705 0.929 . S
C1703 C1702 1.363 . S
C1703 C1709 1.428 . S
H1704 C1700 0.930 . S
H1705 C1702 0.929 . S
S1706 N1707 1.613 . S
S1706 N1708 1.610 . S
N1707 S1706 1.613 . S
N1707 C1710 1.350 . S
N1708 S1706 1.610 . S
N1708 C1709 1.351 . S
C1709 C1703 1.428 . S
C1709 N1708 1.351 . S
C1709 C1710 1.434 . S
C1710 C1701 1.429 . S
C1710 N1707 1.350 . S
C1710 C1709 1.434 . S
C1711 C1712 1.369 . S
C1711 C1713 1.419 . S
C1711 H1715 0.930 . S
C1712 C1711 1.369 . S
C1712 C1721 1.429 . S
C1713 C1711 1.419 . S
C1713 C1714 1.363 . S
C1713 H1716 0.929 . S
C1714 C1713 1.363 . S
C1714 C1720 1.428 . S
H1715 C1711 0.930 . S
H1716 C1713 0.929 . S
S1717 N1718 1.613 . S
S1717 N1719 1.610 . S
N1718 S1717 1.613 . S
N1718 C1721 1.350 . S
N1719 S1717 1.610 . S
N1719 C1720 1.351 . S
C1720 C1714 1.428 . S
C1720 N1719 1.351 . S
C1720 C1721 1.434 . S
C1721 C1712 1.429 . S
C1721 N1718 1.350 . S
C1721 C1720 1.434 . S
C1722 C1723 1.369 . S
C1722 C1724 1.419 . S
C1722 H1726 0.930 . S
C1723 C1722 1.369 . S
C1723 C1732 1.429 . S
C1724 C1722 1.419 . S
C1724 C1725 1.363 . S
C1724 H1727 0.929 . S
C1725 C1724 1.363 . S
C1725 C1731 1.428 . S
H1726 C1722 0.930 . S
H1727 C1724 0.929 . S
S1728 N1729 1.613 . S
S1728 N1730 1.610 . S
N1729 S1728 1.613 . S
N1729 C1732 1.350 . S
N1730 S1728 1.610 . S
N1730 C1731 1.351 . S
C1731 C1725 1.428 . S
C1731 N1730 1.351 . S
C1731 C1732 1.434 . S
C1732 C1723 1.429 . S
C1732 N1729 1.350 . S
C1732 C1731 1.434 . S
C1733 C1734 1.369 . S
C1733 C1735 1.419 . S
C1733 H1737 0.930 . S
C1734 C1733 1.369 . S
C1734 C1743 1.429 . S
C1735 C1733 1.419 . S
C1735 C1736 1.363 . S
C1735 H1738 0.929 . S
C1736 C1735 1.363 . S
C1736 C1742 1.428 . S
H1737 C1733 0.930 . S
H1738 C1735 0.929 . S
S1739 N1740 1.613 . S
S1739 N1741 1.610 . S
N1740 S1739 1.613 . S
N1740 C1743 1.350 . S
N1741 S1739 1.610 . S
N1741 C1742 1.351 . S
C1742 C1736 1.428 . S
C1742 N1741 1.351 . S
C1742 C1743 1.434 . S
C1743 C1734 1.429 . S
C1743 N1740 1.350 . S
C1743 C1742 1.434 . S
C1744 C1745 1.369 . S
C1744 C1746 1.419 . S
C1744 H1748 0.930 . S
C1745 C1744 1.369 . S
C1745 C1754 1.429 . S
C1746 C1744 1.419 . S
C1746 C1747 1.363 . S
C1746 H1749 0.929 . S
C1747 C1746 1.363 . S
C1747 C1753 1.428 . S
H1748 C1744 0.930 . S
H1749 C1746 0.929 . S
S1750 N1751 1.613 . S
S1750 N1752 1.610 . S
N1751 S1750 1.613 . S
N1751 C1754 1.350 . S
N1752 S1750 1.610 . S
N1752 C1753 1.351 . S
C1753 C1747 1.428 . S
C1753 N1752 1.351 . S
C1753 C1754 1.434 . S
C1754 C1745 1.429 . S
C1754 N1751 1.350 . S
C1754 C1753 1.434 . S
C1755 C1756 1.369 . S
C1755 C1757 1.419 . S
C1755 H1759 0.930 . S
C1756 C1755 1.369 . S
C1756 C1765 1.429 . S
C1757 C1755 1.419 . S
C1757 C1758 1.363 . S
C1757 H1760 0.929 . S
C1758 C1757 1.363 . S
C1758 C1764 1.428 . S
H1759 C1755 0.930 . S
H1760 C1757 0.929 . S
S1761 N1762 1.613 . S
S1761 N1763 1.610 . S
N1762 S1761 1.613 . S
N1762 C1765 1.350 . S
N1763 S1761 1.610 . S
N1763 C1764 1.351 . S
C1764 C1758 1.428 . S
C1764 N1763 1.351 . S
C1764 C1765 1.434 . S
C1765 C1756 1.429 . S
C1765 N1762 1.350 . S
C1765 C1764 1.434 . S
C1766 C1767 1.369 . S
C1766 C1768 1.419 . S
C1766 H1770 0.930 . S
C1767 C1766 1.369 . S
C1767 C1776 1.429 . S
C1768 C1766 1.419 . S
C1768 C1769 1.363 . S
C1768 H1771 0.929 . S
C1769 C1768 1.363 . S
C1769 C1775 1.428 . S
H1770 C1766 0.930 . S
H1771 C1768 0.929 . S
S1772 N1773 1.613 . S
S1772 N1774 1.610 . S
N1773 S1772 1.613 . S
N1773 C1776 1.350 . S
N1774 S1772 1.610 . S
N1774 C1775 1.351 . S
C1775 C1769 1.428 . S
C1775 N1774 1.351 . S
C1775 C1776 1.434 . S
C1776 C1767 1.429 . S
C1776 N1773 1.350 . S
C1776 C1775 1.434 . S
C1777 C1778 1.369 . S
C1777 C1779 1.419 . S
C1777 H1781 0.930 . S
C1778 C1777 1.369 . S
C1778 C1787 1.429 . S
C1779 C1777 1.419 . S
C1779 C1780 1.363 . S
C1779 H1782 0.929 . S
C1780 C1779 1.363 . S
C1780 C1786 1.428 . S
H1781 C1777 0.930 . S
H1782 C1779 0.929 . S
S1783 N1784 1.613 . S
S1783 N1785 1.610 . S
N1784 S1783 1.613 . S
N1784 C1787 1.350 . S
N1785 S1783 1.610 . S
N1785 C1786 1.351 . S
C1786 C1780 1.428 . S
C1786 N1785 1.351 . S
C1786 C1787 1.434 . S
C1787 C1778 1.429 . S
C1787 N1784 1.350 . S
C1787 C1786 1.434 . S
C1788 C1789 1.369 . S
C1788 C1790 1.419 . S
C1788 H1792 0.930 . S
C1789 C1788 1.369 . S
C1789 C1798 1.429 . S
C1790 C1788 1.419 . S
C1790 C1791 1.363 . S
C1790 H1793 0.929 . S
C1791 C1790 1.363 . S
C1791 C1797 1.428 . S
H1792 C1788 0.930 . S
H1793 C1790 0.929 . S
S1794 N1795 1.613 . S
S1794 N1796 1.610 . S
N1795 S1794 1.613 . S
N1795 C1798 1.350 . S
N1796 S1794 1.610 . S
N1796 C1797 1.351 . S
C1797 C1791 1.428 . S
C1797 N1796 1.351 . S
C1797 C1798 1.434 . S
C1798 C1789 1.429 . S
C1798 N1795 1.350 . S
C1798 C1797 1.434 . S
C1799 C1800 1.369 . S
C1799 C1801 1.419 . S
C1799 H1803 0.930 . S
C1800 C1799 1.369 . S
C1800 C1809 1.429 . S
C1801 C1799 1.419 . S
C1801 C1802 1.363 . S
C1801 H1804 0.929 . S
C1802 C1801 1.363 . S
C1802 C1808 1.428 . S
H1803 C1799 0.930 . S
H1804 C1801 0.929 . S
S1805 N1806 1.613 . S
S1805 N1807 1.610 . S
N1806 S1805 1.613 . S
N1806 C1809 1.350 . S
N1807 S1805 1.610 . S
N1807 C1808 1.351 . S
C1808 C1802 1.428 . S
C1808 N1807 1.351 . S
C1808 C1809 1.434 . S
C1809 C1800 1.429 . S
C1809 N1806 1.350 . S
C1809 C1808 1.434 . S
C1810 C1811 1.369 . S
C1810 C1812 1.419 . S
C1810 H1814 0.930 . S
C1811 C1810 1.369 . S
C1811 C1820 1.429 . S
C1812 C1810 1.419 . S
C1812 C1813 1.363 . S
C1812 H1815 0.929 . S
C1813 C1812 1.363 . S
C1813 C1819 1.428 . S
H1814 C1810 0.930 . S
H1815 C1812 0.929 . S
S1816 N1817 1.613 . S
S1816 N1818 1.610 . S
N1817 S1816 1.613 . S
N1817 C1820 1.350 . S
N1818 S1816 1.610 . S
N1818 C1819 1.351 . S
C1819 C1813 1.428 . S
C1819 N1818 1.351 . S
C1819 C1820 1.434 . S
C1820 C1811 1.429 . S
C1820 N1817 1.350 . S
C1820 C1819 1.434 . S
C1821 C1822 1.369 . S
C1821 C1823 1.419 . S
C1821 H1825 0.930 . S
C1822 C1821 1.369 . S
C1822 C1831 1.429 . S
C1823 C1821 1.419 . S
C1823 C1824 1.363 . S
C1823 H1826 0.929 . S
C1824 C1823 1.363 . S
C1824 C1830 1.428 . S
H1825 C1821 0.930 . S
H1826 C1823 0.929 . S
S1827 N1828 1.613 . S
S1827 N1829 1.610 . S
N1828 S1827 1.613 . S
N1828 C1831 1.350 . S
N1829 S1827 1.610 . S
N1829 C1830 1.351 . S
C1830 C1824 1.428 . S
C1830 N1829 1.351 . S
C1830 C1831 1.434 . S
C1831 C1822 1.429 . S
C1831 N1828 1.350 . S
C1831 C1830 1.434 . S
C1832 C1833 1.369 . S
C1832 C1834 1.419 . S
C1832 H1836 0.930 . S
C1833 C1832 1.369 . S
C1833 C1842 1.429 . S
C1834 C1832 1.419 . S
C1834 C1835 1.363 . S
C1834 H1837 0.929 . S
C1835 C1834 1.363 . S
C1835 C1841 1.428 . S
H1836 C1832 0.930 . S
H1837 C1834 0.929 . S
S1838 N1839 1.613 . S
S1838 N1840 1.610 . S
N1839 S1838 1.613 . S
N1839 C1842 1.350 . S
N1840 S1838 1.610 . S
N1840 C1841 1.351 . S
C1841 C1835 1.428 . S
C1841 N1840 1.351 . S
C1841 C1842 1.434 . S
C1842 C1833 1.429 . S
C1842 N1839 1.350 . S
C1842 C1841 1.434 . S
C1843 C1844 1.369 . S
C1843 C1845 1.419 . S
C1843 H1847 0.930 . S
C1844 C1843 1.369 . S
C1844 C1853 1.429 . S
C1845 C1843 1.419 . S
C1845 C1846 1.363 . S
C1845 H1848 0.929 . S
C1846 C1845 1.363 . S
C1846 C1852 1.428 . S
H1847 C1843 0.930 . S
H1848 C1845 0.929 . S
S1849 N1850 1.613 . S
S1849 N1851 1.610 . S
N1850 S1849 1.613 . S
N1850 C1853 1.350 . S
N1851 S1849 1.610 . S
N1851 C1852 1.351 . S
C1852 C1846 1.428 . S
C1852 N1851 1.351 . S
C1852 C1853 1.434 . S
C1853 C1844 1.429 . S
C1853 N1850 1.350 . S
C1853 C1852 1.434 . S
C1854 C1855 1.369 . S
C1854 C1856 1.419 . S
C1854 H1858 0.930 . S
C1855 C1854 1.369 . S
C1855 C1864 1.429 . S
C1856 C1854 1.419 . S
C1856 C1857 1.363 . S
C1856 H1859 0.916 1_565 S
C1857 C1856 1.363 . S
C1857 C1863 1.428 . S
H1858 C1854 0.930 . S
H1859 C1856 0.916 1_545 S
S1860 N1861 1.613 . S
S1860 N1862 1.610 . S
N1861 S1860 1.613 . S
N1861 C1864 1.350 . S
N1862 S1860 1.610 . S
N1862 C1863 1.351 . S
C1863 C1857 1.428 . S
C1863 N1862 1.351 . S
C1863 C1864 1.434 . S
C1864 C1855 1.429 . S
C1864 N1861 1.350 . S
C1864 C1863 1.434 . S
C1865 C1866 1.369 . S
C1865 C1867 1.419 . S
C1865 H1869 0.930 . S
C1866 C1865 1.369 . S
C1866 C1875 1.429 . S
C1867 C1865 1.419 . S
C1867 C1868 1.363 . S
C1867 H1870 0.929 . S
C1868 C1867 1.363 . S
C1868 C1874 1.428 . S
H1869 C1865 0.930 . S
H1870 C1867 0.929 . S
S1871 N1872 1.613 . S
S1871 N1873 1.610 . S
N1872 S1871 1.613 . S
N1872 C1875 1.350 1_655 S
N1873 S1871 1.610 . S
N1873 C1874 1.351 1_655 S
C1874 C1868 1.428 . S
C1874 N1873 1.351 1_455 S
C1874 C1875 1.434 . S
C1875 C1866 1.429 . S
C1875 N1872 1.350 1_455 S
C1875 C1874 1.434 . S
C1876 C1877 1.369 . S
C1876 C1878 1.419 . S
C1876 H1880 0.930 . S
C1877 C1876 1.369 . S
C1877 C1886 1.429 . S
C1878 C1876 1.419 . S
C1878 C1879 1.363 . S
C1878 H1881 0.929 . S
C1879 C1878 1.363 . S
C1879 C1885 1.428 . S
H1880 C1876 0.930 . S
H1881 C1878 0.929 . S
S1882 N1883 1.613 . S
S1882 N1884 1.610 . S
N1883 S1882 1.613 . S
N1883 C1886 1.350 . S
N1884 S1882 1.610 . S
N1884 C1885 1.351 . S
C1885 C1879 1.428 . S
C1885 N1884 1.351 . S
C1885 C1886 1.434 . S
C1886 C1877 1.429 . S
C1886 N1883 1.350 . S
C1886 C1885 1.434 . S
C1887 C1888 1.369 . S
C1887 C1889 1.419 . S
C1887 H1891 0.930 . S
C1888 C1887 1.369 . S
C1888 C1897 1.429 . S
C1889 C1887 1.419 . S
C1889 C1890 1.363 . S
C1889 H1892 0.929 . S
C1890 C1889 1.363 . S
C1890 C1896 1.428 . S
H1891 C1887 0.930 . S
H1892 C1889 0.929 . S
S1893 N1894 1.613 . S
S1893 N1895 1.610 . S
N1894 S1893 1.613 . S
N1894 C1897 1.350 . S
N1895 S1893 1.610 . S
N1895 C1896 1.351 . S
C1896 C1890 1.428 . S
C1896 N1895 1.351 . S
C1896 C1897 1.434 . S
C1897 C1888 1.429 . S
C1897 N1894 1.350 . S
C1897 C1896 1.434 . S
C1898 C1899 1.369 . S
C1898 C1900 1.419 . S
C1898 H1902 0.930 . S
C1899 C1898 1.369 . S
C1899 C1908 1.429 . S
C1900 C1898 1.419 . S
C1900 C1901 1.363 . S
C1900 H1903 0.929 . S
C1901 C1900 1.363 . S
C1901 C1907 1.428 . S
H1902 C1898 0.930 . S
H1903 C1900 0.929 . S
S1904 N1905 1.613 . S
S1904 N1906 1.610 . S
N1905 S1904 1.613 . S
N1905 C1908 1.350 . S
N1906 S1904 1.610 . S
N1906 C1907 1.351 . S
C1907 C1901 1.428 . S
C1907 N1906 1.351 . S
C1907 C1908 1.434 . S
C1908 C1899 1.429 . S
C1908 N1905 1.350 . S
C1908 C1907 1.434 . S
C1909 C1910 1.369 . S
C1909 C1911 1.419 . S
C1909 H1913 0.930 . S
C1910 C1909 1.369 . S
C1910 C1919 1.429 . S
C1911 C1909 1.419 . S
C1911 C1912 1.363 . S
C1911 H1914 0.929 1_545 S
C1912 C1911 1.363 . S
C1912 C1918 1.428 . S
H1913 C1909 0.930 . S
H1914 C1911 0.929 1_565 S
S1915 N1916 1.613 . S
S1915 N1917 1.610 . S
N1916 S1915 1.613 . S
N1916 C1919 1.350 . S
N1917 S1915 1.610 . S
N1917 C1918 1.351 . S
C1918 C1912 1.428 . S
C1918 N1917 1.351 . S
C1918 C1919 1.434 . S
C1919 C1910 1.429 . S
C1919 N1916 1.350 . S
C1919 C1918 1.434 . S
C1920 C1921 1.369 . S
C1920 C1922 1.419 . S
C1920 H1924 0.930 . S
C1921 C1920 1.369 . S
C1921 C1930 1.429 . S
C1922 C1920 1.419 . S
C1922 C1923 1.363 . S
C1922 H1925 0.929 . S
C1923 C1922 1.363 . S
C1923 C1929 1.428 . S
H1924 C1920 0.930 . S
H1925 C1922 0.929 . S
S1926 N1927 1.613 . S
S1926 N1928 1.610 . S
N1927 S1926 1.613 . S
N1927 C1930 1.350 . S
N1928 S1926 1.610 . S
N1928 C1929 1.351 . S
C1929 C1923 1.428 . S
C1929 N1928 1.351 . S
C1929 C1930 1.434 . S
C1930 C1921 1.429 . S
C1930 N1927 1.350 . S
C1930 C1929 1.434 . S
C1931 C1932 1.369 . S
C1931 C1933 1.419 . S
C1931 H1935 0.930 . S
C1932 C1931 1.369 . S
C1932 C1941 1.429 . S
C1933 C1931 1.419 . S
C1933 C1934 1.363 . S
C1933 H1936 0.929 . S
C1934 C1933 1.363 . S
C1934 C1940 1.428 . S
H1935 C1931 0.930 . S
H1936 C1933 0.929 . S
S1937 N1938 1.613 . S
S1937 N1939 1.610 . S
N1938 S1937 1.613 . S
N1938 C1941 1.350 . S
N1939 S1937 1.610 . S
N1939 C1940 1.351 . S
C1940 C1934 1.428 . S
C1940 N1939 1.351 . S
C1940 C1941 1.434 . S
C1941 C1932 1.429 . S
C1941 N1938 1.350 . S
C1941 C1940 1.434 . S
C1942 C1943 1.369 . S
C1942 C1944 1.419 . S
C1942 H1946 0.930 . S
C1943 C1942 1.369 . S
C1943 C1952 1.429 . S
C1944 C1942 1.419 . S
C1944 C1945 1.363 . S
C1944 H1947 0.929 . S
C1945 C1944 1.363 . S
C1945 C1951 1.428 . S
H1946 C1942 0.930 . S
H1947 C1944 0.929 . S
S1948 N1949 1.613 . S
S1948 N1950 1.610 . S
N1949 S1948 1.613 . S
N1949 C1952 1.350 . S
N1950 S1948 1.610 . S
N1950 C1951 1.351 . S
C1951 C1945 1.428 . S
C1951 N1950 1.351 . S
C1951 C1952 1.434 . S
C1952 C1943 1.429 . S
C1952 N1949 1.350 . S
C1952 C1951 1.434 . S
C1953 C1954 1.369 . S
C1953 C1955 1.419 . S
C1953 H1957 0.930 . S
C1954 C1953 1.369 . S
C1954 C1963 1.429 . S
C1955 C1953 1.419 . S
C1955 C1956 1.363 . S
C1955 H1958 0.929 . S
C1956 C1955 1.363 . S
C1956 C1962 1.428 . S
H1957 C1953 0.930 . S
H1958 C1955 0.929 . S
S1959 N1960 1.613 . S
S1959 N1961 1.610 . S
N1960 S1959 1.613 . S
N1960 C1963 1.350 . S
N1961 S1959 1.610 . S
N1961 C1962 1.351 . S
C1962 C1956 1.428 . S
C1962 N1961 1.351 . S
C1962 C1963 1.434 . S
C1963 C1954 1.429 . S
C1963 N1960 1.350 . S
C1963 C1962 1.434 . S
C1964 C1965 1.369 . S
C1964 C1966 1.419 . S
C1964 H1968 0.930 . S
C1965 C1964 1.369 . S
C1965 C1974 1.429 . S
C1966 C1964 1.419 . S
C1966 C1967 1.363 . S
C1966 H1969 0.929 . S
C1967 C1966 1.363 . S
C1967 C1973 1.428 . S
H1968 C1964 0.930 . S
H1969 C1966 0.929 . S
S1970 N1971 1.613 . S
S1970 N1972 1.610 . S
N1971 S1970 1.613 . S
N1971 C1974 1.350 . S
N1972 S1970 1.610 . S
N1972 C1973 1.351 . S
C1973 C1967 1.428 . S
C1973 N1972 1.351 . S
C1973 C1974 1.434 . S
C1974 C1965 1.429 . S
C1974 N1971 1.350 . S
C1974 C1973 1.434 . S
C1975 C1976 1.369 . S
C1975 C1977 1.419 . S
C1975 H1979 0.930 . S
C1976 C1975 1.369 . S
C1976 C1985 1.429 . S
C1977 C1975 1.419 . S
C1977 C1978 1.363 . S
C1977 H1980 0.929 . S
C1978 C1977 1.363 . S
C1978 C1984 1.428 . S
H1979 C1975 0.930 . S
H1980 C1977 0.929 . S
S1981 N1982 1.613 . S
S1981 N1983 1.610 . S
N1982 S1981 1.613 . S
N1982 C1985 1.350 . S
N1983 S1981 1.610 . S
N1983 C1984 1.351 . S
C1984 C1978 1.428 . S
C1984 N1983 1.351 . S
C1984 C1985 1.434 . S
C1985 C1976 1.429 . S
C1985 N1982 1.350 . S
C1985 C1984 1.434 . S
C1986 C1987 1.369 . S
C1986 C1988 1.419 . S
C1986 H1990 0.930 . S
C1987 C1986 1.369 . S
C1987 C1996 1.429 . S
C1988 C1986 1.419 . S
C1988 C1989 1.363 . S
C1988 H1991 0.929 . S
C1989 C1988 1.363 . S
C1989 C1995 1.428 . S
H1990 C1986 0.930 . S
H1991 C1988 0.929 . S
S1992 N1993 1.613 . S
S1992 N1994 1.610 . S
N1993 S1992 1.613 . S
N1993 C1996 1.350 . S
N1994 S1992 1.610 . S
N1994 C1995 1.351 . S
C1995 C1989 1.428 . S
C1995 N1994 1.351 . S
C1995 C1996 1.434 . S
C1996 C1987 1.429 . S
C1996 N1993 1.350 . S
C1996 C1995 1.434 . S
C1997 C1998 1.369 . S
C1997 C1999 1.419 . S
C1997 H2001 0.930 . S
C1998 C1997 1.369 . S
C1998 C2007 1.429 . S
C1999 C1997 1.419 . S
C1999 C2000 1.363 . S
C1999 H2002 0.929 . S
C2000 C1999 1.363 . S
C2000 C2006 1.428 . S
H2001 C1997 0.930 . S
H2002 C1999 0.929 . S
S2003 N2004 1.613 . S
S2003 N2005 1.610 . S
N2004 S2003 1.613 . S
N2004 C2007 1.350 . S
N2005 S2003 1.610 . S
N2005 C2006 1.351 . S
C2006 C2000 1.428 . S
C2006 N2005 1.351 . S
C2006 C2007 1.434 . S
C2007 C1998 1.429 . S
C2007 N2004 1.350 . S
C2007 C2006 1.434 . S
C2008 C2009 1.369 . S
C2008 C2010 1.419 . S
C2008 H2012 0.930 . S
C2009 C2008 1.369 . S
C2009 C2018 1.429 . S
C2010 C2008 1.419 . S
C2010 C2011 1.363 . S
C2010 H2013 0.929 . S
C2011 C2010 1.363 . S
C2011 C2017 1.428 . S
H2012 C2008 0.930 . S
H2013 C2010 0.929 . S
S2014 N2015 1.613 . S
S2014 N2016 1.610 . S
N2015 S2014 1.613 . S
N2015 C2018 1.350 . S
N2016 S2014 1.610 . S
N2016 C2017 1.351 . S
C2017 C2011 1.428 . S
C2017 N2016 1.351 . S
C2017 C2018 1.434 . S
C2018 C2009 1.429 . S
C2018 N2015 1.350 . S
C2018 C2017 1.434 . S
C2019 C2020 1.369 . S
C2019 C2021 1.419 . S
C2019 H2023 0.930 . S
C2020 C2019 1.369 . S
C2020 C2029 1.429 . S
C2021 C2019 1.419 . S
C2021 C2022 1.363 . S
C2021 H2024 0.929 . S
C2022 C2021 1.363 . S
C2022 C2028 1.428 . S
H2023 C2019 0.930 . S
H2024 C2021 0.929 . S
S2025 N2026 1.613 . S
S2025 N2027 1.610 . S
N2026 S2025 1.613 . S
N2026 C2029 1.350 . S
N2027 S2025 1.610 . S
N2027 C2028 1.351 . S
C2028 C2022 1.428 . S
C2028 N2027 1.351 . S
C2028 C2029 1.434 . S
C2029 C2020 1.429 . S
C2029 N2026 1.350 . S
C2029 C2028 1.434 . S
C2030 C2031 1.369 . S
C2030 C2032 1.419 . S
C2030 H2034 0.930 . S
C2031 C2030 1.369 . S
C2031 C2040 1.429 . S
C2032 C2030 1.419 . S
C2032 C2033 1.363 . S
C2032 H2035 0.929 . S
C2033 C2032 1.363 . S
C2033 C2039 1.428 . S
H2034 C2030 0.930 . S
H2035 C2032 0.929 . S
S2036 N2037 1.613 . S
S2036 N2038 1.610 . S
N2037 S2036 1.613 . S
N2037 C2040 1.350 . S
N2038 S2036 1.610 . S
N2038 C2039 1.351 . S
C2039 C2033 1.428 . S
C2039 N2038 1.351 . S
C2039 C2040 1.434 . S
C2040 C2031 1.429 . S
C2040 N2037 1.350 . S
C2040 C2039 1.434 . S
C2041 C2042 1.369 . S
C2041 C2043 1.419 . S
C2041 H2045 0.930 . S
C2042 C2041 1.369 . S
C2042 C2051 1.429 . S
C2043 C2041 1.419 . S
C2043 C2044 1.363 . S
C2043 H2046 0.929 . S
C2044 C2043 1.363 . S
C2044 C2050 1.428 . S
H2045 C2041 0.930 . S
H2046 C2043 0.929 . S
S2047 N2048 1.613 . S
S2047 N2049 1.610 . S
N2048 S2047 1.613 . S
N2048 C2051 1.350 . S
N2049 S2047 1.610 . S
N2049 C2050 1.351 . S
C2050 C2044 1.428 . S
C2050 N2049 1.351 . S
C2050 C2051 1.434 . S
C2051 C2042 1.429 . S
C2051 N2048 1.350 . S
C2051 C2050 1.434 . S
C1459 C528 1.462 . S
C1461 C758 1.381 . S
C1470 C562 1.510 . S
C1472 C842 1.437 . S
C1481 C484 1.513 . S
C1483 C936 1.449 . S
C1492 C445 1.467 . S
C1494 C852 1.413 . S
C1505 C926 1.377 . S
C1503 C367 1.460 . S
C1514 C411 1.449 . S
C1516 C768 1.384 . S
C1527 C769 1.401 . S
C1525 C450 1.467 . S
C1538 C853 1.427 . S
C1536 C372 1.496 . S
C1547 C406 1.507 . S
C1549 C945 1.452 . S
C1558 C523 1.462 . S
C1560 C861 1.416 . S
C1569 C567 1.444 . S
C1571 C937 1.366 . S
C1582 C777 1.408 . S
C1580 C489 1.452 . S
C1593 C1010 1.381 . S
C1591 C60 1.462 1_455 S
C1602 C94 1.510 . S
C1604 C1094 1.443 . S
C1613 C16 1.507 1_565 S
C1615 C1188 1.457 . S
C1624 C679 1.467 . S
C1626 C1104 1.412 . S
C1635 C601 1.458 . S
C1637 C1178 1.381 . S
C1646 C645 1.445 . S
C1648 C1020 1.389 . S
C1657 C684 1.472 . S
C1659 C1021 1.395 . S
C1668 C606 1.496 . S
C1670 C1105 1.429 . S
C1681 C1197 1.449 . S
C1679 C640 1.510 . S
C1690 C55 1.461 1_565 S
C1692 C1113 1.417 . S
C1703 C1189 1.367 . S
C1701 C99 1.440 1_455 S
C1712 C21 1.453 . S
C1714 C1029 1.407 . S
C1725 C1262 1.383 . S
C1723 C294 1.462 . S
C1734 C328 1.510 . S
C1736 C1346 1.437 . S
C1747 C1440 1.457 . S
C1745 C250 1.508 . S
C1758 C1356 1.412 . S
C1756 C211 1.468 1_545 S
C1769 C1430 1.383 . S
C1767 C133 1.461 1_655 S
C1778 C177 1.448 . S
C1780 C1272 1.384 . S
C1789 C216 1.468 1_655 S
C1791 C1273 1.404 . S
C1800 C138 1.494 . S
C1802 C1357 1.423 . S
C1813 C1449 1.451 . S
C1811 C172 1.509 1_545 S
C1822 C289 1.463 . S
C1824 C1365 1.413 . S
C1833 C333 1.441 . S
C1835 C1441 1.365 . S
C1844 C255 1.452 . S
C1846 C1281 1.408 . S
C1855 C586 1.490 . S
C1857 C765 1.386 . S
C1868 C849 1.355 . S
C1866 C625 1.506 . S
C1877 C664 1.495 . S
C1879 C942 1.366 . S
C1888 C235 1.516 . S
C1890 C858 1.363 . S
C1899 C274 1.483 . S
C1901 C933 1.350 . S
C1912 C774 1.388 . S
C1910 C313 1.490 . S
C1921 C118 1.490 . S
C1923 C1017 1.386 . S
C1932 C157 1.506 . S
C1934 C1101 1.365 . S
C1943 C196 1.494 . S
C1945 C1194 1.368 . S
C1954 C469 1.516 . S
C1956 C1110 1.366 . S
C1967 C1185 1.349 . S
C1965 C508 1.483 . S
C1976 C547 1.489 . S
C1978 C1026 1.382 . S
C1987 C352 1.490 . S
C1989 C1269 1.377 . S
C1998 C391 1.506 . S
C2000 C1353 1.365 . S
C2011 C1446 1.361 . S
C2009 C430 1.494 . S
C2020 C1 1.517 . S
C2022 C1362 1.363 . S
C2031 C40 1.483 . S
C2033 C1437 1.358 . S
C2042 C79 1.489 . S
C2044 C1278 1.378 . S
