# Generated by pormake.
# Topology pth, (4,4)-cn, num edge types: 1
# Building blocks:
#     Node 0, Type 0, BuildingBlock: AZAVOO_clean_sbu_0, # of connection points: 4
#     Node 1, Type 0, BuildingBlock: AZAVOO_clean_sbu_0, # of connection points: 4
#     Node 2, Type 0, BuildingBlock: AZAVOO_clean_sbu_0, # of connection points: 4
#     Node 3, Type 1, BuildingBlock: NAWXER_clean_linker_0, # of connection points: 4
#     Node 4, Type 1, BuildingBlock: NAWXER_clean_linker_0, # of connection points: 4
#     Node 5, Type 1, BuildingBlock: NAWXER_clean_linker_0, # of connection points: 4
#     Edge 6, Type (0, 1), BuildingBlock: XIVTED_clean_linker_0, # of connection points: 2
#     Edge 7, Type (0, 1), BuildingBlock: XIVTED_clean_linker_0, # of connection points: 2
#     Edge 8, Type (0, 1), BuildingBlock: XIVTED_clean_linker_0, # of connection points: 2
#     Edge 9, Type (0, 1), BuildingBlock: XIVTED_clean_linker_0, # of connection points: 2
#     Edge 10, Type (0, 1), BuildingBlock: XIVTED_clean_linker_0, # of connection points: 2
#     Edge 11, Type (0, 1), BuildingBlock: XIVTED_clean_linker_0, # of connection points: 2
#     Edge 12, Type (0, 1), BuildingBlock: XIVTED_clean_linker_0, # of connection points: 2
#     Edge 13, Type (0, 1), BuildingBlock: XIVTED_clean_linker_0, # of connection points: 2
#     Edge 14, Type (0, 1), BuildingBlock: XIVTED_clean_linker_0, # of connection points: 2
#     Edge 15, Type (0, 1), BuildingBlock: XIVTED_clean_linker_0, # of connection points: 2
#     Edge 16, Type (0, 1), BuildingBlock: XIVTED_clean_linker_0, # of connection points: 2
#     Edge 17, Type (0, 1), BuildingBlock: XIVTED_clean_linker_0, # of connection points: 2
# Relax obj value: 0.065
# Max RMSD: 0.212
# Mean RMSD: 0.105
data_MOF--net-pth--node1-AZAVOO_clean_sbu_0--node2-NAWXER_clean_linker_0--edge1-XIVTED_clean_linker_0
_symmetry_space_group_name_H-M    P1
_symmetry_Int_Tables_number       1
_symmetry_cell_setting            triclinic
loop_
_symmetry_equiv_pos_as_xyz
'x, y, z'
_cell_length_a     28.856902
_cell_length_b     29.410203
_cell_length_c     64.957948
_cell_angle_alpha  90.882898
_cell_angle_beta   92.874694
_cell_angle_gamma 121.99779
loop_
_atom_site_label
_atom_site_type_symbol
_atom_site_fract_x
_atom_site_fract_y
_atom_site_fract_z
_atom_type_partial_charge
Mg0 Mg 0.0997 0.08142 0.04442 0.0
O1 O 0.03485 0.02311 0.01965 0.0
O2 O 0.02266 0.07073 -0.004 0.0
Mg3 Mg 0.07943 0.15967 0.00576 0.0
C4 C 0.01163 0.02589 0.0029 0.0
C5 C 0.11173 0.00604 0.07417 0.0
O6 O 0.1635 0.04141 0.07157 0.0
O7 O 0.03919 0.09867 0.0582 0.0
O8 O 0.03263 0.14992 0.03463 0.0
O9 O 0.16617 0.08783 0.02579 0.0
O10 O 0.13416 0.14125 0.02343 0.0
C11 C 0.02085 0.12752 0.05191 0.0
C12 C 0.16636 0.12715 0.01698 0.0
O13 O 0.07512 0.01147 0.06504 0.0
Mg14 Mg 0.92581 0.99514 0.37305 0.0
O15 O 0.01213 0.02894 0.38858 0.0
O16 O 0.03914 0.10886 0.40367 0.0
Mg17 Mg 0.97048 0.12504 0.39892 0.0
C18 C 0.04771 0.07169 0.39906 0.0
C19 C 0.94782 0.90379 0.36035 0.0
O20 O 0.9583 0.90432 0.3803 0.0
O21 O 0.96003 0.05502 0.34773 0.0
O22 O 0.98379 0.13228 0.3644 0.0
O23 O 0.887 0.95502 0.40201 0.0
O24 O 0.91188 0.03782 0.39481 0.0
C25 C 0.9792 0.10535 0.34799 0.0
C26 C 0.89235 0.00011 0.40762 0.0
O27 O 0.93349 0.93505 0.35344 0.0
Mg28 Mg 0.99325 0.02741 0.69208 0.0
O29 O 0.05379 0.0887 0.71694 0.0
O30 O 0.00775 0.09613 0.74203 0.0
Mg31 Mg 0.91637 0.04004 0.73247 0.0
C32 C 0.05265 0.10886 0.73428 0.0
C33 C 0.05715 0.05839 0.65172 0.0
O34 O 0.0084 0.04259 0.64314 0.0
O35 O 0.97262 0.08704 0.67999 0.0
O36 O 0.92157 0.08906 0.70431 0.0
O37 O 0.9922 0.96196 0.70935 0.0
O38 O 0.93511 0.98942 0.71361 0.0
C39 C 0.94288 0.10315 0.68695 0.0
C40 C 0.95292 0.95924 0.7192 0.0
O41 O 0.06321 0.05652 0.67113 0.0
C42 C 0.94599 0.32932 0.22711 0.0
C43 C 0.98684 0.34369 0.2431 0.0
C44 C 0.94099 0.36866 0.21731 0.0
C45 C 0.97789 0.4233 0.22281 0.0
C46 C 0.02225 0.39841 0.24906 0.0
C47 C 0.01792 0.43765 0.23898 0.0
C48 C 0.97539 0.46621 0.21216 0.0
C49 C 0.00132 0.37192 0.16411 0.0
C50 C 0.95626 0.34426 0.14955 0.0
C51 C 0.00666 0.41275 0.17722 0.0
C52 C 0.9667 0.42622 0.17618 0.0
C53 C 0.91701 0.35881 0.14824 0.0
C54 C 0.92237 0.39963 0.16138 0.0
C55 C 0.97072 0.46788 0.19046 0.0
C56 C 0.04386 0.697 0.17956 0.0
C57 C 0.01256 0.69184 0.16138 0.0
C58 C 0.0319 0.65193 0.19048 0.0
C59 C 0.98783 0.60075 0.18363 0.0
C60 C 0.96821 0.64063 0.15462 0.0
C61 C 0.9562 0.59551 0.16559 0.0
C62 C 0.97809 0.55233 0.19409 0.0
C63 C 0.94207 0.64198 0.24045 0.0
C64 C 0.97724 0.66113 0.25852 0.0
C65 C 0.94319 0.60613 0.22644 0.0
C66 C 0.97985 0.58901 0.2301 0.0
C67 C 0.01364 0.6436 0.26221 0.0
C68 C 0.01469 0.60767 0.24819 0.0
C69 C 0.97976 0.54928 0.21579 0.0
H70 H 0.91796 0.28774 0.22203 0.0
H71 H 0.90839 0.35626 0.20539 0.0
H72 H 0.05303 0.41118 0.26174 0.0
H73 H 0.04631 0.47945 0.24376 0.0
H74 H 0.03296 0.3626 0.16518 0.0
H75 H 0.04188 0.43368 0.18823 0.0
H76 H 0.88176 0.33818 0.13724 0.0
H77 H 0.8913 0.40974 0.16027 0.0
H78 H 0.07804 0.73588 0.18528 0.0
H79 H 0.05814 0.65702 0.20397 0.0
H80 H 0.9438 0.63515 0.14051 0.0
H81 H 0.92255 0.55635 0.15983 0.0
H82 H 0.91271 0.65371 0.23734 0.0
H83 H 0.91463 0.59101 0.21294 0.0
H84 H 0.04163 0.65794 0.27587 0.0
H85 H 0.04303 0.59471 0.25142 0.0
N86 N 0.97932 0.50683 0.22395 0.0
N87 N 0.97254 0.51097 0.18227 0.0
C88 C 0.68933 0.12956 0.4923 0.0
C89 C 0.696 0.09052 0.50177 0.0
C90 C 0.65379 0.14342 0.49989 0.0
C91 C 0.62526 0.1193 0.51732 0.0
C92 C 0.66662 0.06568 0.519 0.0
C93 C 0.63163 0.0801 0.52677 0.0
C94 C 0.58768 0.13401 0.52526 0.0
C95 C 0.66854 0.14832 0.59432 0.0
C96 C 0.72315 0.1784 0.58887 0.0
C97 C 0.62584 0.14031 0.58053 0.0
C98 C 0.63685 0.16182 0.56098 0.0
C99 C 0.73423 0.20172 0.56959 0.0
C100 C 0.69152 0.19385 0.55584 0.0
C101 C 0.59105 0.15062 0.54608 0.0
C102 C 0.36467 0.10242 0.55508 0.0
C103 C 0.37533 0.14327 0.56964 0.0
C104 C 0.40738 0.10428 0.54516 0.0
C105 C 0.46156 0.14742 0.54936 0.0
C106 C 0.42957 0.18658 0.57374 0.0
C107 C 0.47231 0.18847 0.56376 0.0
C108 C 0.50734 0.14761 0.54001 0.0
C109 C 0.40853 0.1636 0.48912 0.0
C110 C 0.38225 0.12 0.4745 0.0
C111 C 0.44966 0.1694 0.5032 0.0
C112 C 0.46476 0.13119 0.50328 0.0
C113 C 0.39887 0.08285 0.47413 0.0
C114 C 0.43988 0.08854 0.48833 0.0
C115 C 0.50674 0.13583 0.51876 0.0
H116 H 0.71091 0.14871 0.47879 0.0
H117 H 0.64898 0.17336 0.4923 0.0
H118 H 0.67102 0.03544 0.52654 0.0
H119 H 0.60918 0.06035 0.54005 0.0
H120 H 0.65856 0.12937 0.60897 0.0
H121 H 0.58404 0.11586 0.58489 0.0
H122 H 0.77592 0.22589 0.56509 0.0
H123 H 0.70123 0.21248 0.54112 0.0
H124 H 0.32355 0.06792 0.55191 0.0
H125 H 0.39818 0.07118 0.53464 0.0
H126 H 0.43905 0.21883 0.58477 0.0
H127 H 0.51386 0.22188 0.56736 0.0
H128 H 0.39657 0.19276 0.49001 0.0
H129 H 0.46932 0.20358 0.51417 0.0
H130 H 0.38022 0.04936 0.46285 0.0
H131 H 0.45139 0.05897 0.4879 0.0
N132 N 0.5464 0.12839 0.51226 0.0
N133 N 0.55008 0.15565 0.55278 0.0
C134 C 0.43025 0.33194 0.8323 0.0
C135 C 0.40754 0.34965 0.81721 0.0
C136 C 0.47819 0.3689 0.84414 0.0
C137 C 0.50308 0.42428 0.84151 0.0
C138 C 0.43382 0.40474 0.814 0.0
C139 C 0.48097 0.44162 0.82604 0.0
C140 C 0.55186 0.46516 0.85458 0.0
C141 C 0.4203 0.37411 0.89838 0.0
C142 C 0.43339 0.34793 0.91337 0.0
C143 C 0.46039 0.41159 0.88622 0.0
C144 C 0.51411 0.42273 0.88845 0.0
C145 C 0.4873 0.35926 0.91559 0.0
C146 C 0.52737 0.39659 0.9033 0.0
C147 C 0.55727 0.46424 0.87632 0.0
C148 C 0.71964 0.6926 0.89999 0.0
C149 C 0.75518 0.691 0.91517 0.0
C150 C 0.68265 0.64687 0.88774 0.0
C151 C 0.68045 0.59847 0.89027 0.0
C152 C 0.75214 0.6421 0.91797 0.0
C153 C 0.71478 0.59612 0.90569 0.0
C154 C 0.64033 0.55011 0.87738 0.0
C155 C 0.76775 0.66321 0.83589 0.0
C156 C 0.74734 0.68382 0.82111 0.0
C157 C 0.73173 0.61956 0.84717 0.0
C158 C 0.67486 0.59594 0.8438 0.0
C159 C 0.69042 0.6594 0.81756 0.0
C160 C 0.65458 0.61576 0.82871 0.0
C161 C 0.63577 0.55029 0.85566 0.0
H162 H 0.41111 0.28953 0.83484 0.0
H163 H 0.4954 0.3542 0.85543 0.0
H164 H 0.417 0.41948 0.80254 0.0
H165 H 0.49943 0.484 0.82357 0.0
H166 H 0.37911 0.36602 0.89615 0.0
H167 H 0.44953 0.43234 0.87524 0.0
H168 H 0.49895 0.34051 0.92723 0.0
H169 H 0.56885 0.40534 0.90547 0.0
H170 H 0.7197 0.72905 0.89777 0.0
H171 H 0.65524 0.64918 0.87638 0.0
H172 H 0.77907 0.6395 0.92944 0.0
H173 H 0.71317 0.55894 0.90805 0.0
H174 H 0.81145 0.68124 0.8389 0.0
H175 H 0.74826 0.60421 0.85847 0.0
H176 H 0.6735 0.67377 0.80598 0.0
H177 H 0.61087 0.59793 0.82575 0.0
N178 N 0.59155 0.50814 0.84517 0.0
N179 N 0.60135 0.50675 0.88688 0.0
H180 H 0.00963 0.11058 0.09334 0.0
H181 H 0.92419 0.32563 0.10827 0.0
H182 H 0.96768 0.17989 0.0432 0.0
H183 H 0.97704 0.26556 0.15851 0.0
H184 H 0.92358 0.25995 0.08468 0.0
H185 H 0.98049 0.15332 0.11764 0.0
C186 C 0.99322 0.1338 0.08737 0.0
C187 C 0.99214 0.14249 0.0662 0.0
C188 C 0.93481 0.26074 0.1009 0.0
C189 C 0.9594 0.19205 0.09397 0.0
C190 C 0.93493 0.29813 0.11441 0.0
C191 C 0.95134 0.30158 0.13538 0.0
C192 C 0.9514 0.2266 0.10836 0.0
C193 C 0.96529 0.26512 0.14239 0.0
C194 C 0.9769 0.15849 0.10129 0.0
C195 C 0.9702 0.17281 0.0594 0.0
N196 N 0.96547 0.22948 0.12888 0.0
N197 N 0.95544 0.19708 0.07326 0.0
H198 H 0.80616 0.92559 0.42851 0.0
H199 H 0.80083 0.15675 0.49121 0.0
H200 H 0.93608 0.09244 0.43153 0.0
H201 H 0.67414 0.98937 0.49288 0.0
H202 H 0.85706 0.1315 0.47348 0.0
H203 H 0.764 0.94472 0.45653 0.0
C204 C 0.82643 0.96598 0.43539 0.0
C205 C 0.87379 0.00787 0.42734 0.0
C206 C 0.81724 0.10009 0.4779 0.0
C207 C 0.82583 0.03016 0.45905 0.0
C208 C 0.7851 0.1146 0.48794 0.0
C209 C 0.73259 0.07511 0.49321 0.0
C210 C 0.79642 0.04569 0.47279 0.0
C211 C 0.71443 0.02101 0.48899 0.0
C212 C 0.80223 0.97697 0.45127 0.0
C213 C 0.89853 0.0594 0.43676 0.0
N214 N 0.74598 0.00785 0.47871 0.0
N215 N 0.8739 0.06924 0.45191 0.0
H216 H 0.98242 0.89189 0.73565 0.0
H217 H 0.74097 0.77091 0.81271 0.0
H218 H 0.86955 0.94459 0.74196 0.0
H219 H 0.83858 0.70239 0.8023 0.0
H220 H 0.79675 0.84264 0.79009 0.0
H221 H 0.93859 0.82929 0.76304 0.0
C222 C 0.94882 0.89069 0.7429 0.0
C223 C 0.92965 0.92357 0.7365 0.0
C224 C 0.80628 0.81214 0.7928 0.0
C225 C 0.87955 0.85233 0.76775 0.0
C226 C 0.77432 0.77111 0.80567 0.0
C227 C 0.78471 0.73028 0.80913 0.0
C228 C 0.84892 0.81237 0.78319 0.0
C229 C 0.82923 0.73315 0.80002 0.0
C230 C 0.92386 0.85498 0.75852 0.0
C231 C 0.88601 0.92036 0.74643 0.0
N232 N 0.85945 0.77326 0.78727 0.0
N233 N 0.86239 0.88528 0.76147 0.0
H234 H 0.00859 0.92569 0.08284 0.0
H235 H 0.11522 0.77347 0.15298 0.0
H236 H 0.17946 0.98186 0.0956 0.0
H237 H 0.94425 0.71832 0.14156 0.0
H238 H 0.13934 0.85068 0.13237 0.0
H239 H 0.98405 0.84985 0.10445 0.0
C240 C 0.04098 0.92214 0.0902 0.0
C241 C 0.09621 0.96021 0.08738 0.0
C242 C 0.09654 0.82179 0.1344 0.0
C243 C 0.06834 0.8734 0.11214 0.0
C244 C 0.08271 0.77782 0.14629 0.0
C245 C 0.02758 0.73937 0.14909 0.0
C246 C 0.05498 0.8275 0.12515 0.0
C247 C 0.98724 0.74664 0.13966 0.0
C248 C 0.02691 0.8788 0.10254 0.0
C249 C 0.13637 0.95351 0.09731 0.0
N250 N 0.00175 0.78984 0.12812 0.0
N251 N 0.12163 0.91093 0.10922 0.0
H252 H 0.07247 0.99378 0.40282 0.0
H253 H 0.37351 0.1974 0.45485 0.0
H254 H 0.14191 0.16392 0.41327 0.0
H255 H 0.28688 0.02604 0.46143 0.0
H256 H 0.29479 0.18542 0.43396 0.0
H257 H 0.1571 0.00491 0.41861 0.0
C258 C 0.10565 0.03352 0.40823 0.0
C259 C 0.09991 0.07793 0.4069 0.0
C260 C 0.29316 0.15043 0.43989 0.0
C261 C 0.19662 0.09085 0.42484 0.0
C262 C 0.338 0.15723 0.45191 0.0
C263 C 0.33668 0.11275 0.46018 0.0
C264 C 0.24663 0.09874 0.43595 0.0
C265 C 0.28999 0.06151 0.45532 0.0
C266 C 0.15378 0.03977 0.4173 0.0
C267 C 0.14425 0.12846 0.41417 0.0
N268 N 0.2467 0.05593 0.44362 0.0
N269 N 0.19062 0.1335 0.42285 0.0
H270 H 0.1551 0.1649 0.71996 0.0
H271 H 0.31134 0.27032 0.83149 0.0
H272 H 0.07008 0.13663 0.7757 0.0
H273 H 0.3862 0.34272 0.77546 0.0
H274 H 0.22425 0.21157 0.81128 0.0
H275 H 0.24205 0.22219 0.74013 0.0
C276 C 0.15468 0.17086 0.73643 0.0
C277 C 0.10519 0.14601 0.74615 0.0
C278 C 0.2598 0.24027 0.80343 0.0
C279 C 0.20465 0.21093 0.76933 0.0
C280 C 0.30949 0.27337 0.81491 0.0
C281 C 0.35582 0.31133 0.80509 0.0
C282 C 0.25678 0.24472 0.78197 0.0
C283 C 0.35123 0.31418 0.78361 0.0
C284 C 0.20432 0.2036 0.74791 0.0
C285 C 0.10719 0.15526 0.76755 0.0
N286 N 0.3026 0.2812 0.77275 0.0
N287 N 0.15617 0.1867 0.77846 0.0
H288 H 0.97855 0.14131 0.64887 0.0
H289 H 0.80895 0.16976 0.57845 0.0
H290 H 0.86872 0.13208 0.69372 0.0
H291 H 0.73852 0.19564 0.63099 0.0
H292 H 0.87528 0.16595 0.60156 0.0
H293 H 0.93831 0.17447 0.6243 0.0
C294 C 0.94614 0.14657 0.6536 0.0
C295 C 0.92619 0.13263 0.67327 0.0
C296 C 0.84657 0.17388 0.60821 0.0
C297 C 0.87792 0.16859 0.64481 0.0
C298 C 0.80834 0.17597 0.59489 0.0
C299 C 0.76782 0.18264 0.60278 0.0
C300 C 0.84441 0.17865 0.62969 0.0
C301 C 0.76845 0.1895 0.62424 0.0
C302 C 0.9225 0.16493 0.6394 0.0
C303 C 0.88491 0.1414 0.67864 0.0
N304 N 0.80573 0.18678 0.63692 0.0
N305 N 0.86169 0.15804 0.66441 0.0
H306 H 0.96811 0.92181 0.01399 0.0
H307 H 0.81493 0.79461 0.90309 0.0
H308 H 0.96611 0.01533 0.96371 0.0
H309 H 0.78586 0.69997 0.9566 0.0
H310 H 0.87604 0.87556 0.92463 0.0
H311 H 0.90641 0.83978 0.9928 0.0
C312 C 0.95463 0.92518 -0.00147 0.0
C313 C 0.97241 0.97568 0.99064 0.0
C314 C 0.85627 0.8371 0.93168 0.0
C315 C 0.90213 0.88186 0.96628 0.0
C316 C 0.82114 0.79078 0.9194 0.0
C317 C 0.7947 0.74025 0.92804 0.0
C318 C 0.86556 0.83311 0.95281 0.0
C319 C 0.80563 0.73791 0.9492 0.0
C320 C 0.91937 0.87828 0.98646 0.0
C321 C 0.95346 0.9774 0.9705 0.0
N322 N 0.84017 0.78369 0.96086 0.0
N323 N 0.9196 0.93124 0.95901 0.0
H324 H 0.97315 0.82808 0.3693 0.0
H325 H 0.96551 0.74585 0.25044 0.0
H326 H 0.93547 0.89806 0.31823 0.0
H327 H 0.98444 0.66186 0.30089 0.0
H328 H 0.95916 0.80501 0.27529 0.0
H329 H 0.98225 0.76977 0.3447 0.0
C330 C 0.96678 0.8312 0.35294 0.0
C331 C 0.9534 0.86795 0.34583 0.0
C332 C 0.96474 0.77367 0.28095 0.0
C333 C 0.96394 0.80156 0.31762 0.0
C334 C 0.96811 0.73968 0.26675 0.0
C335 C 0.97525 0.69857 0.27356 0.0
C336 C 0.96861 0.76673 0.30218 0.0
C337 C 0.9795 0.69331 0.29493 0.0
C338 C 0.97197 0.7979 0.33891 0.0
C339 C 0.94569 0.87028 0.32445 0.0
N340 N 0.97599 0.7269 0.30847 0.0
N341 N 0.95111 0.83761 0.31113 0.0
H342 H 0.05817 0.05864 0.60949 0.0
H343 H 0.37762 0.16532 0.61087 0.0
H344 H 0.16411 0.10017 0.66501 0.0
H345 H 0.27046 0.11018 0.55524 0.0
H346 H 0.3015 0.15096 0.6305 0.0
H347 H 0.13689 0.08562 0.58897 0.0
C348 C 0.09798 0.07365 0.61737 0.0
C349 C 0.10447 0.07674 0.639 0.0
C350 C 0.29463 0.14227 0.61398 0.0
C351 C 0.19461 0.10772 0.61565 0.0
C352 C 0.33825 0.15089 0.60273 0.0
C353 C 0.33038 0.13874 0.58138 0.0
C354 C 0.24263 0.12128 0.60385 0.0
C355 C 0.27815 0.11933 0.57173 0.0
C356 C 0.14288 0.089 0.60565 0.0
C357 C 0.15705 0.09667 0.64838 0.0
N358 N 0.23618 0.11097 0.58305 0.0
N359 N 0.19999 0.11122 0.63665 0.0
H360 H 0.17772 0.21362 -0.00233 0.0
H361 H 0.41496 0.25227 0.92759 0.0
H362 H 0.237 0.10617 -0.00184 0.0
H363 H 0.35704 0.36052 0.93131 0.0
H364 H 0.34743 0.19482 0.95175 0.0
H365 H 0.23933 0.26348 0.9713 0.0
C366 C 0.20327 0.20003 0.99207 0.0
C367 C 0.20191 0.15538 0.0001 0.0
C368 C 0.34942 0.23102 0.94716 0.0
C369 C 0.27386 0.21337 0.96995 0.0
C370 C 0.38809 0.26395 0.93346 0.0
C371 C 0.39163 0.31128 0.92736 0.0
C372 C 0.31419 0.24564 0.9548 0.0
C373 C 0.35533 0.32407 0.93526 0.0
C374 C 0.23883 0.22885 0.97703 0.0
C375 C 0.23673 0.14035 0.99237 0.0
N376 N 0.31834 0.29156 0.94857 0.0
N377 N 0.27155 0.16947 0.97775 0.0
H378 H 0.92189 0.06613 0.31065 0.0
H379 H 0.08008 0.35002 0.25952 0.0
H380 H 0.0605 0.20764 0.34137 0.0
H381 H 0.90428 0.24187 0.252 0.0
H382 H 0.08524 0.28631 0.28171 0.0
H383 H 0.92874 0.11925 0.28081 0.0
C384 C 0.95476 0.10793 0.31083 0.0
C385 C 0.99047 0.13287 0.32847 0.0
C386 C 0.04576 0.27645 0.27488 0.0
C387 C -0.00142 0.19314 0.29462 0.0
C388 C 0.04256 0.31293 0.26239 0.0
C389 C 0.99145 0.30214 0.25419 0.0
C390 C -0.00225 0.22831 0.27889 0.0
C391 C 0.94463 0.25221 0.25786 0.0
C392 C 0.95833 0.13815 0.29393 0.0
C393 C 0.03197 0.1872 0.32808 0.0
N394 N 0.94887 0.21731 0.27007 0.0
N395 N 0.03476 0.2157 0.31144 0.0
loop_
_geom_bond_atom_site_label_1
_geom_bond_atom_site_label_2
_geom_bond_distance
_geom_bond_site_symmetry_2
_ccdc_geom_bond_type
Mg0 O1 2.028 . S
Mg0 O7 1.986 . S
Mg0 O9 2.114 . S
Mg0 O10 2.251 . S
Mg0 O13 2.010 . S
O1 Mg0 2.028 . S
O1 C4 1.250 1_455 S
O2 Mg3 2.028 1_655 S
O2 C4 1.248 . S
Mg3 O2 2.028 1_455 S
Mg3 O8 2.032 . S
Mg3 O10 2.079 . S
C4 O1 1.250 1_655 S
C4 O2 1.248 . S
C5 O6 1.264 1_565 S
C5 O13 1.249 1_565 S
O6 C5 1.264 1_545 S
O7 Mg0 1.986 . S
O7 C11 1.246 . S
O8 Mg3 2.032 . S
O8 C11 1.259 . S
O9 Mg0 2.114 . S
O9 C12 1.252 . S
O10 Mg0 2.251 . S
O10 Mg3 2.079 . S
O10 C12 1.273 . S
C11 O7 1.246 . S
C11 O8 1.259 . S
C12 O9 1.252 . S
C12 O10 1.273 . S
O13 Mg0 2.010 . S
O13 C5 1.249 1_545 S
Mg14 O15 2.028 1_655 S
Mg14 O21 1.986 1_655 S
Mg14 O23 2.114 1_545 S
Mg14 O24 2.251 . S
Mg14 O27 2.010 1_545 S
O15 Mg14 2.028 1_455 S
O15 C18 1.250 . S
O16 Mg17 2.028 . S
O16 C18 1.248 . S
Mg17 O16 2.028 . S
Mg17 O22 2.032 . S
Mg17 O24 2.079 1_455 S
C18 O15 1.250 . S
C18 O16 1.248 . S
C19 O20 1.264 . S
C19 O27 1.249 . S
O20 C19 1.264 . S
O21 Mg14 1.986 1_455 S
O21 C25 1.246 . S
O22 Mg17 2.032 . S
O22 C25 1.259 . S
O23 Mg14 2.114 1_565 S
O23 C26 1.252 1_565 S
O24 Mg14 2.251 . S
O24 Mg17 2.079 1_655 S
O24 C26 1.273 . S
C25 O21 1.246 . S
C25 O22 1.259 . S
C26 O23 1.252 1_545 S
C26 O24 1.273 . S
O27 Mg14 2.010 1_565 S
O27 C19 1.249 . S
Mg28 O29 2.028 . S
Mg28 O35 1.986 1_455 S
Mg28 O37 2.114 1_545 S
Mg28 O38 2.251 1_445 S
Mg28 O41 2.010 . S
O29 Mg28 2.028 . S
O29 C32 1.250 . S
O30 Mg31 2.028 1_455 S
O30 C32 1.248 . S
Mg31 O30 2.028 1_655 S
Mg31 O36 2.032 . S
Mg31 O38 2.079 1_545 S
C32 O29 1.250 . S
C32 O30 1.248 . S
C33 O34 1.264 1_545 S
C33 O41 1.249 . S
O34 C33 1.264 1_565 S
O35 Mg28 1.986 1_655 S
O35 C39 1.246 . S
O36 Mg31 2.032 . S
O36 C39 1.259 . S
O37 Mg28 2.114 1_565 S
O37 C40 1.252 1_455 S
O38 Mg28 2.251 1_665 S
O38 Mg31 2.079 1_565 S
O38 C40 1.273 . S
C39 O35 1.246 . S
C39 O36 1.259 . S
C40 O37 1.252 1_655 S
C40 O38 1.273 . S
O41 Mg28 2.010 . S
O41 C33 1.249 . S
C42 C43 1.384 1_655 S
C42 C44 1.380 . S
C42 H70 0.931 . S
C43 C42 1.384 1_455 S
C43 C46 1.382 . S
C44 C42 1.380 . S
C44 C45 1.379 1_655 S
C44 H71 0.936 . S
C45 C44 1.379 1_455 S
C45 C47 1.381 . S
C45 C48 1.487 . S
C46 C43 1.382 . S
C46 C47 1.387 . S
C46 H72 0.930 . S
C47 C45 1.381 . S
C47 C46 1.387 . S
C47 H73 0.931 . S
C48 C45 1.487 . S
C48 C55 1.399 . S
C48 N86 1.343 . S
C49 C50 1.384 . S
C49 C51 1.384 . S
C49 H74 0.931 . S
C50 C49 1.384 . S
C50 C53 1.382 . S
C51 C49 1.384 . S
C51 C52 1.381 . S
C51 H75 0.930 . S
C52 C51 1.381 . S
C52 C54 1.381 . S
C52 C55 1.487 . S
C53 C50 1.382 . S
C53 C54 1.387 . S
C53 H76 0.930 1_455 S
C54 C52 1.381 . S
C54 C53 1.387 . S
C54 H77 0.931 1_455 S
C55 C48 1.399 . S
C55 C52 1.487 . S
C55 N87 1.343 . S
C56 C57 1.384 . S
C56 C58 1.384 . S
C56 H78 0.931 . S
C57 C56 1.384 . S
C57 C60 1.382 . S
C58 C56 1.384 . S
C58 C59 1.381 . S
C58 H79 0.930 . S
C59 C58 1.381 . S
C59 C61 1.381 . S
C59 C62 1.487 . S
C60 C57 1.382 . S
C60 C61 1.387 . S
C60 H80 0.930 1_455 S
C61 C59 1.381 . S
C61 C60 1.387 . S
C61 H81 0.931 1_455 S
C62 C59 1.487 . S
C62 C69 1.399 . S
C62 N87 1.343 . S
C63 C64 1.384 1_655 S
C63 C65 1.390 . S
C63 H82 0.931 . S
C64 C63 1.384 1_455 S
C64 C67 1.382 . S
C65 C63 1.390 . S
C65 C66 1.370 1_655 S
C65 H83 0.935 . S
C66 C65 1.370 1_455 S
C66 C68 1.381 . S
C66 C69 1.487 . S
C67 C64 1.382 . S
C67 C68 1.387 . S
C67 H84 0.930 . S
C68 C66 1.381 . S
C68 C67 1.387 . S
C68 H85 0.931 . S
C69 C62 1.399 . S
C69 C66 1.487 . S
C69 N86 1.343 . S
H70 C42 0.931 . S
H71 C44 0.936 . S
H72 C46 0.930 . S
H73 C47 0.931 . S
H74 C49 0.931 . S
H75 C51 0.930 . S
H76 C53 0.930 1_655 S
H77 C54 0.931 1_655 S
H78 C56 0.931 . S
H79 C58 0.930 . S
H80 C60 0.930 1_655 S
H81 C61 0.931 1_655 S
H82 C63 0.931 . S
H83 C65 0.935 . S
H84 C67 0.930 . S
H85 C68 0.931 . S
N86 C48 1.343 . S
N86 C69 1.343 . S
N87 C55 1.343 . S
N87 C62 1.343 . S
C88 C89 1.384 . S
C88 C90 1.384 . S
C88 H116 0.931 . S
C89 C88 1.384 . S
C89 C92 1.382 . S
C90 C88 1.384 . S
C90 C91 1.381 . S
C90 H117 0.930 . S
C91 C90 1.381 . S
C91 C93 1.381 . S
C91 C94 1.487 . S
C92 C89 1.382 . S
C92 C93 1.387 . S
C92 H118 0.930 . S
C93 C91 1.381 . S
C93 C92 1.387 . S
C93 H119 0.931 . S
C94 C91 1.487 . S
C94 C101 1.399 . S
C94 N132 1.343 . S
C95 C96 1.384 . S
C95 C97 1.384 . S
C95 H120 0.931 . S
C96 C95 1.384 . S
C96 C99 1.382 . S
C97 C95 1.384 . S
C97 C98 1.381 . S
C97 H121 0.930 . S
C98 C97 1.381 . S
C98 C100 1.381 . S
C98 C101 1.487 . S
C99 C96 1.382 . S
C99 C100 1.387 . S
C99 H122 0.930 . S
C100 C98 1.381 . S
C100 C99 1.387 . S
C100 H123 0.931 . S
C101 C94 1.399 . S
C101 C98 1.487 . S
C101 N133 1.343 . S
C102 C103 1.384 . S
C102 C104 1.384 . S
C102 H124 0.931 . S
C103 C102 1.384 . S
C103 C106 1.382 . S
C104 C102 1.384 . S
C104 C105 1.381 . S
C104 H125 0.930 . S
C105 C104 1.381 . S
C105 C107 1.381 . S
C105 C108 1.487 . S
C106 C103 1.382 . S
C106 C107 1.387 . S
C106 H126 0.930 . S
C107 C105 1.381 . S
C107 C106 1.387 . S
C107 H127 0.931 . S
C108 C105 1.487 . S
C108 C115 1.399 . S
C108 N133 1.343 . S
C109 C110 1.384 . S
C109 C111 1.384 . S
C109 H128 0.931 . S
C110 C109 1.384 . S
C110 C113 1.382 . S
C111 C109 1.384 . S
C111 C112 1.381 . S
C111 H129 0.930 . S
C112 C111 1.381 . S
C112 C114 1.381 . S
C112 C115 1.487 . S
C113 C110 1.382 . S
C113 C114 1.387 . S
C113 H130 0.930 . S
C114 C112 1.381 . S
C114 C113 1.387 . S
C114 H131 0.931 . S
C115 C108 1.399 . S
C115 C112 1.487 . S
C115 N132 1.343 . S
H116 C88 0.931 . S
H117 C90 0.930 . S
H118 C92 0.930 . S
H119 C93 0.931 . S
H120 C95 0.931 . S
H121 C97 0.930 . S
H122 C99 0.930 . S
H123 C100 0.931 . S
H124 C102 0.931 . S
H125 C104 0.930 . S
H126 C106 0.930 . S
H127 C107 0.931 . S
H128 C109 0.931 . S
H129 C111 0.930 . S
H130 C113 0.930 . S
H131 C114 0.931 . S
N132 C94 1.343 . S
N132 C115 1.343 . S
N133 C101 1.343 . S
N133 C108 1.343 . S
C134 C135 1.384 . S
C134 C136 1.384 . S
C134 H162 0.931 . S
C135 C134 1.384 . S
C135 C138 1.382 . S
C136 C134 1.384 . S
C136 C137 1.381 . S
C136 H163 0.930 . S
C137 C136 1.381 . S
C137 C139 1.381 . S
C137 C140 1.487 . S
C138 C135 1.382 . S
C138 C139 1.387 . S
C138 H164 0.930 . S
C139 C137 1.381 . S
C139 C138 1.387 . S
C139 H165 0.931 . S
C140 C137 1.487 . S
C140 C147 1.399 . S
C140 N178 1.343 . S
C141 C142 1.384 . S
C141 C143 1.384 . S
C141 H166 0.931 . S
C142 C141 1.384 . S
C142 C145 1.382 . S
C143 C141 1.384 . S
C143 C144 1.381 . S
C143 H167 0.930 . S
C144 C143 1.381 . S
C144 C146 1.381 . S
C144 C147 1.487 . S
C145 C142 1.382 . S
C145 C146 1.387 . S
C145 H168 0.930 . S
C146 C144 1.381 . S
C146 C145 1.387 . S
C146 H169 0.931 . S
C147 C140 1.399 . S
C147 C144 1.487 . S
C147 N179 1.343 . S
C148 C149 1.384 . S
C148 C150 1.384 . S
C148 H170 0.931 . S
C149 C148 1.384 . S
C149 C152 1.382 . S
C150 C148 1.384 . S
C150 C151 1.381 . S
C150 H171 0.930 . S
C151 C150 1.381 . S
C151 C153 1.381 . S
C151 C154 1.487 . S
C152 C149 1.382 . S
C152 C153 1.387 . S
C152 H172 0.930 . S
C153 C151 1.381 . S
C153 C152 1.387 . S
C153 H173 0.931 . S
C154 C151 1.487 . S
C154 C161 1.399 . S
C154 N179 1.343 . S
C155 C156 1.384 . S
C155 C157 1.384 . S
C155 H174 0.931 . S
C156 C155 1.384 . S
C156 C159 1.382 . S
C157 C155 1.384 . S
C157 C158 1.381 . S
C157 H175 0.930 . S
C158 C157 1.381 . S
C158 C160 1.381 . S
C158 C161 1.487 . S
C159 C156 1.382 . S
C159 C160 1.387 . S
C159 H176 0.930 . S
C160 C158 1.381 . S
C160 C159 1.387 . S
C160 H177 0.931 . S
C161 C154 1.399 . S
C161 C158 1.487 . S
C161 N178 1.343 . S
H162 C134 0.931 . S
H163 C136 0.930 . S
H164 C138 0.930 . S
H165 C139 0.931 . S
H166 C141 0.931 . S
H167 C143 0.930 . S
H168 C145 0.930 . S
H169 C146 0.931 . S
H170 C148 0.931 . S
H171 C150 0.930 . S
H172 C152 0.930 . S
H173 C153 0.931 . S
H174 C155 0.931 . S
H175 C157 0.930 . S
H176 C159 0.930 . S
H177 C160 0.931 . S
N178 C140 1.343 . S
N178 C161 1.343 . S
N179 C147 1.343 . S
N179 C154 1.343 . S
H180 C186 0.930 . S
H181 C190 0.930 . S
H182 C195 0.929 . S
H183 C193 0.929 . S
H184 C188 0.929 . S
H185 C194 0.929 . S
C186 H180 0.930 . S
C186 C187 1.367 . S
C186 C194 1.378 . S
C187 C186 1.367 . S
C187 C195 1.433 . S
C188 H184 0.929 . S
C188 C190 1.378 . S
C188 C192 1.350 . S
C189 C192 1.463 . S
C189 C194 1.350 . S
C189 N197 1.427 . S
C190 H181 0.930 . S
C190 C188 1.378 . S
C190 C191 1.367 . S
C191 C190 1.367 . S
C191 C193 1.433 . S
C192 C188 1.350 . S
C192 C189 1.463 . S
C192 N196 1.427 . S
C193 H183 0.929 . S
C193 C191 1.433 . S
C193 N196 1.384 . S
C194 H185 0.929 . S
C194 C186 1.378 . S
C194 C189 1.350 . S
C195 H182 0.929 . S
C195 C187 1.433 . S
C195 N197 1.384 . S
N196 C192 1.427 . S
N196 C193 1.384 . S
N197 C189 1.427 . S
N197 C195 1.384 . S
H198 C204 0.930 . S
H199 C208 0.930 . S
H200 C213 0.929 . S
H201 C211 0.929 . S
H202 C206 0.929 . S
H203 C212 0.929 . S
C204 H198 0.930 . S
C204 C205 1.367 . S
C204 C212 1.378 . S
C205 C204 1.367 . S
C205 C213 1.433 . S
C206 H202 0.929 . S
C206 C208 1.378 . S
C206 C210 1.350 . S
C207 C210 1.463 . S
C207 C212 1.350 . S
C207 N215 1.427 . S
C208 H199 0.930 . S
C208 C206 1.378 . S
C208 C209 1.367 . S
C209 C208 1.367 . S
C209 C211 1.433 . S
C210 C206 1.350 . S
C210 C207 1.463 . S
C210 N214 1.427 . S
C211 H201 0.929 . S
C211 C209 1.433 . S
C211 N214 1.384 . S
C212 H203 0.929 . S
C212 C204 1.378 . S
C212 C207 1.350 . S
C213 H200 0.929 . S
C213 C205 1.433 . S
C213 N215 1.384 . S
N214 C210 1.427 . S
N214 C211 1.384 . S
N215 C207 1.427 . S
N215 C213 1.384 . S
H216 C222 0.930 . S
H217 C226 0.930 . S
H218 C231 0.929 . S
H219 C229 0.929 . S
H220 C224 0.929 . S
H221 C230 0.929 . S
C222 H216 0.930 . S
C222 C223 1.367 . S
C222 C230 1.378 . S
C223 C222 1.367 . S
C223 C231 1.433 . S
C224 H220 0.929 . S
C224 C226 1.378 . S
C224 C228 1.350 . S
C225 C228 1.463 . S
C225 C230 1.350 . S
C225 N233 1.427 . S
C226 H217 0.930 . S
C226 C224 1.378 . S
C226 C227 1.367 . S
C227 C226 1.367 . S
C227 C229 1.433 . S
C228 C224 1.350 . S
C228 C225 1.463 . S
C228 N232 1.427 . S
C229 H219 0.929 . S
C229 C227 1.433 . S
C229 N232 1.384 . S
C230 H221 0.929 . S
C230 C222 1.378 . S
C230 C225 1.350 . S
C231 H218 0.929 . S
C231 C223 1.433 . S
C231 N233 1.384 . S
N232 C228 1.427 . S
N232 C229 1.384 . S
N233 C225 1.427 . S
N233 C231 1.384 . S
H234 C240 0.930 . S
H235 C244 0.930 . S
H236 C249 0.929 . S
H237 C247 0.929 1_655 S
H238 C242 0.929 . S
H239 C248 0.929 1_655 S
C240 H234 0.930 . S
C240 C241 1.367 . S
C240 C248 1.378 . S
C241 C240 1.367 . S
C241 C249 1.433 . S
C242 H238 0.929 . S
C242 C244 1.378 . S
C242 C246 1.350 . S
C243 C246 1.463 . S
C243 C248 1.350 . S
C243 N251 1.427 . S
C244 H235 0.930 . S
C244 C242 1.378 . S
C244 C245 1.367 . S
C245 C244 1.367 . S
C245 C247 1.433 . S
C246 C242 1.350 . S
C246 C243 1.463 . S
C246 N250 1.427 . S
C247 H237 0.929 1_455 S
C247 C245 1.433 . S
C247 N250 1.384 . S
C248 H239 0.929 1_455 S
C248 C240 1.378 . S
C248 C243 1.350 . S
C249 H236 0.929 . S
C249 C241 1.433 . S
C249 N251 1.384 . S
N250 C246 1.427 . S
N250 C247 1.384 . S
N251 C243 1.427 . S
N251 C249 1.384 . S
H252 C258 0.930 1_565 S
H253 C262 0.930 . S
H254 C267 0.929 . S
H255 C265 0.929 1_565 S
H256 C260 0.929 . S
H257 C266 0.929 1_565 S
C258 H252 0.930 1_545 S
C258 C259 1.367 . S
C258 C266 1.378 . S
C259 C258 1.367 . S
C259 C267 1.433 . S
C260 H256 0.929 . S
C260 C262 1.378 . S
C260 C264 1.350 . S
C261 C264 1.463 . S
C261 C266 1.350 . S
C261 N269 1.427 . S
C262 H253 0.930 . S
C262 C260 1.378 . S
C262 C263 1.367 . S
C263 C262 1.367 . S
C263 C265 1.433 . S
C264 C260 1.350 . S
C264 C261 1.463 . S
C264 N268 1.427 . S
C265 H255 0.929 1_545 S
C265 C263 1.433 . S
C265 N268 1.384 . S
C266 H257 0.929 1_545 S
C266 C258 1.378 . S
C266 C261 1.350 . S
C267 H254 0.929 . S
C267 C259 1.433 . S
C267 N269 1.384 . S
N268 C264 1.427 . S
N268 C265 1.384 . S
N269 C261 1.427 . S
N269 C267 1.384 . S
H270 C276 0.930 . S
H271 C280 0.930 . S
H272 C285 0.929 . S
H273 C283 0.929 . S
H274 C278 0.929 . S
H275 C284 0.929 . S
C276 H270 0.930 . S
C276 C277 1.367 . S
C276 C284 1.378 . S
C277 C276 1.367 . S
C277 C285 1.433 . S
C278 H274 0.929 . S
C278 C280 1.378 . S
C278 C282 1.350 . S
C279 C282 1.463 . S
C279 C284 1.350 . S
C279 N287 1.427 . S
C280 H271 0.930 . S
C280 C278 1.378 . S
C280 C281 1.367 . S
C281 C280 1.367 . S
C281 C283 1.433 . S
C282 C278 1.350 . S
C282 C279 1.463 . S
C282 N286 1.427 . S
C283 H273 0.929 . S
C283 C281 1.433 . S
C283 N286 1.384 . S
C284 H275 0.929 . S
C284 C276 1.378 . S
C284 C279 1.350 . S
C285 H272 0.929 . S
C285 C277 1.433 . S
C285 N287 1.384 . S
N286 C282 1.427 . S
N286 C283 1.384 . S
N287 C279 1.427 . S
N287 C285 1.384 . S
H288 C294 0.930 . S
H289 C298 0.930 . S
H290 C303 0.929 . S
H291 C301 0.942 . S
H292 C296 0.929 . S
H293 C302 0.929 . S
C294 H288 0.930 . S
C294 C295 1.367 . S
C294 C302 1.378 . S
C295 C294 1.367 . S
C295 C303 1.433 . S
C296 H292 0.929 . S
C296 C298 1.378 . S
C296 C300 1.350 . S
C297 C300 1.463 . S
C297 C302 1.350 . S
C297 N305 1.427 . S
C298 H289 0.930 . S
C298 C296 1.378 . S
C298 C299 1.367 . S
C299 C298 1.367 . S
C299 C301 1.433 . S
C300 C296 1.350 . S
C300 C297 1.463 . S
C300 N304 1.427 . S
C301 H291 0.942 . S
C301 C299 1.433 . S
C301 N304 1.384 . S
C302 H293 0.929 . S
C302 C294 1.378 . S
C302 C297 1.350 . S
C303 H290 0.929 . S
C303 C295 1.433 . S
C303 N305 1.384 . S
N304 C300 1.427 . S
N304 C301 1.384 . S
N305 C297 1.427 . S
N305 C303 1.384 . S
H306 C312 0.930 . S
H307 C316 0.930 . S
H308 C321 0.929 1_545 S
H309 C319 0.929 . S
H310 C314 0.929 . S
H311 C320 0.929 . S
C312 H306 0.930 . S
C312 C313 1.367 . S
C312 C320 1.378 . S
C313 C312 1.367 . S
C313 C321 1.433 1_554 S
C314 H310 0.929 . S
C314 C316 1.378 . S
C314 C318 1.350 . S
C315 C318 1.463 . S
C315 C320 1.350 1_556 S
C315 N323 1.427 . S
C316 H307 0.930 . S
C316 C314 1.378 . S
C316 C317 1.367 . S
C317 C316 1.367 . S
C317 C319 1.433 . S
C318 C314 1.350 . S
C318 C315 1.463 . S
C318 N322 1.427 . S
C319 H309 0.929 . S
C319 C317 1.433 . S
C319 N322 1.384 . S
C320 H311 0.929 . S
C320 C312 1.378 . S
C320 C315 1.350 1_554 S
C321 H308 0.929 1_565 S
C321 C313 1.433 1_556 S
C321 N323 1.384 . S
N322 C318 1.427 . S
N322 C319 1.384 . S
N323 C315 1.427 . S
N323 C321 1.384 . S
H324 C330 0.930 . S
H325 C334 0.930 . S
H326 C339 0.929 . S
H327 C337 0.929 . S
H328 C332 0.929 . S
H329 C338 0.929 . S
C330 H324 0.930 . S
C330 C331 1.367 . S
C330 C338 1.378 . S
C331 C330 1.367 . S
C331 C339 1.433 1_655 S
C332 H328 0.929 . S
C332 C334 1.378 . S
C332 C336 1.350 . S
C333 C336 1.463 . S
C333 C338 1.350 1_455 S
C333 N341 1.427 . S
C334 H325 0.930 . S
C334 C332 1.378 . S
C334 C335 1.367 . S
C335 C334 1.367 . S
C335 C337 1.433 . S
C336 C332 1.350 . S
C336 C333 1.463 . S
C336 N340 1.427 . S
C337 H327 0.929 . S
C337 C335 1.433 . S
C337 N340 1.384 . S
C338 H329 0.929 . S
C338 C330 1.378 . S
C338 C333 1.350 1_655 S
C339 H326 0.929 . S
C339 C331 1.433 1_455 S
C339 N341 1.384 . S
N340 C336 1.427 . S
N340 C337 1.384 . S
N341 C333 1.427 . S
N341 C339 1.384 . S
H342 C348 0.930 1_565 S
H343 C352 0.930 . S
H344 C357 0.929 . S
H345 C355 0.929 . S
H346 C350 0.929 . S
H347 C356 0.929 . S
C348 H342 0.930 1_545 S
C348 C349 1.367 . S
C348 C356 1.378 . S
C349 C348 1.367 . S
C349 C357 1.433 . S
C350 H346 0.929 . S
C350 C352 1.378 . S
C350 C354 1.350 . S
C351 C354 1.463 . S
C351 C356 1.350 . S
C351 N359 1.427 . S
C352 H343 0.930 . S
C352 C350 1.378 . S
C352 C353 1.367 . S
C353 C352 1.367 . S
C353 C355 1.433 . S
C354 C350 1.350 . S
C354 C351 1.463 . S
C354 N358 1.427 . S
C355 H345 0.929 . S
C355 C353 1.433 . S
C355 N358 1.384 . S
C356 H347 0.929 . S
C356 C348 1.378 . S
C356 C351 1.350 . S
C357 H344 0.929 . S
C357 C349 1.433 . S
C357 N359 1.384 . S
N358 C354 1.427 . S
N358 C355 1.384 . S
N359 C351 1.427 . S
N359 C357 1.384 . S
H360 C366 0.930 . S
H361 C370 0.930 . S
H362 C375 0.929 . S
H363 C373 0.929 . S
H364 C368 0.929 . S
H365 C374 0.913 1_554 S
C366 H360 0.930 . S
C366 C367 1.367 . S
C366 C374 1.344 1_554 S
C367 C366 1.367 . S
C367 C375 1.433 1_554 S
C368 H364 0.929 . S
C368 C370 1.378 . S
C368 C372 1.350 . S
C369 C372 1.463 . S
C369 C374 1.401 . S
C369 N377 1.427 . S
C370 H361 0.930 . S
C370 C368 1.378 . S
C370 C371 1.367 . S
C371 C370 1.367 . S
C371 C373 1.433 . S
C372 C368 1.350 . S
C372 C369 1.463 . S
C372 N376 1.427 . S
C373 H363 0.929 . S
C373 C371 1.433 . S
C373 N376 1.384 . S
C374 H365 0.913 1_556 S
C374 C366 1.344 1_556 S
C374 C369 1.401 . S
C375 H362 0.929 . S
C375 C367 1.433 1_556 S
C375 N377 1.384 . S
N376 C372 1.427 . S
N376 C373 1.384 . S
N377 C369 1.427 . S
N377 C375 1.384 . S
H378 C384 0.930 1_655 S
H379 C388 0.930 . S
H380 C393 0.929 . S
H381 C391 0.929 . S
H382 C386 0.929 . S
H383 C392 0.929 1_655 S
C384 H378 0.930 1_455 S
C384 C385 1.367 . S
C384 C392 1.378 . S
C385 C384 1.367 . S
C385 C393 1.433 . S
C386 H382 0.929 . S
C386 C388 1.378 . S
C386 C390 1.350 . S
C387 C390 1.463 . S
C387 C392 1.350 . S
C387 N395 1.427 . S
C388 H379 0.930 . S
C388 C386 1.378 . S
C388 C389 1.367 . S
C389 C388 1.367 . S
C389 C391 1.433 1_455 S
C390 C386 1.350 . S
C390 C387 1.463 . S
C390 N394 1.427 1_455 S
C391 H381 0.929 . S
C391 C389 1.433 1_655 S
C391 N394 1.384 . S
C392 H383 0.929 1_455 S
C392 C384 1.378 . S
C392 C387 1.350 . S
C393 H380 0.929 . S
C393 C385 1.433 . S
C393 N395 1.384 . S
N394 C390 1.427 1_655 S
N394 C391 1.384 . S
N395 C387 1.427 . S
N395 C393 1.384 . S
C191 C50 1.386 . S
C187 C11 1.371 . S
C205 C26 1.526 . S
C209 C89 1.537 . S
C223 C40 1.414 . S
C227 C156 1.422 . S
C241 C5 1.241 . S
C245 C57 1.384 . S
C263 C110 1.527 . S
C259 C18 1.515 . S
C277 C32 1.393 . S
C281 C135 1.406 . S
C299 C96 1.270 . S
C295 C39 1.256 . S
C313 C4 1.404 1_565 S
C317 C149 1.415 . S
C335 C64 1.394 . S
C331 C19 1.249 . S
C353 C103 1.313 . S
C349 C33 1.150 . S
C371 C142 1.428 . S
C367 C12 1.418 . S
C385 C25 1.375 . S
C389 C43 1.393 . S
