# Generated by pormake.
# Topology zzz, (3,6)-cn, num edge types: 1
# Building blocks:
#     Node 0, Type 0, BuildingBlock: VETTIZ_charged_linker_0, # of connection points: 3
#     Node 1, Type 0, BuildingBlock: VETTIZ_charged_linker_0, # of connection points: 3
#     Node 2, Type 0, BuildingBlock: VETTIZ_charged_linker_0, # of connection points: 3
#     Node 3, Type 0, BuildingBlock: VETTIZ_charged_linker_0, # of connection points: 3
#     Node 4, Type 0, BuildingBlock: VETTIZ_charged_linker_0, # of connection points: 3
#     Node 5, Type 0, BuildingBlock: VETTIZ_charged_linker_0, # of connection points: 3
#     Node 6, Type 0, BuildingBlock: VETTIZ_charged_linker_0, # of connection points: 3
#     Node 7, Type 0, BuildingBlock: VETTIZ_charged_linker_0, # of connection points: 3
#     Node 8, Type 1, BuildingBlock: PAMTOO_clean_sbu_0, # of connection points: 6
#     Node 9, Type 1, BuildingBlock: PAMTOO_clean_sbu_0, # of connection points: 6
#     Node 10, Type 1, BuildingBlock: PAMTOO_clean_sbu_0, # of connection points: 6
#     Node 11, Type 1, BuildingBlock: PAMTOO_clean_sbu_0, # of connection points: 6
#     Edge 12, Type (0, 1), BuildingBlock: XIVTED_clean_linker_0, # of connection points: 2
#     Edge 13, Type (0, 1), BuildingBlock: XIVTED_clean_linker_0, # of connection points: 2
#     Edge 14, Type (0, 1), BuildingBlock: XIVTED_clean_linker_0, # of connection points: 2
#     Edge 15, Type (0, 1), BuildingBlock: XIVTED_clean_linker_0, # of connection points: 2
#     Edge 16, Type (0, 1), BuildingBlock: XIVTED_clean_linker_0, # of connection points: 2
#     Edge 17, Type (0, 1), BuildingBlock: XIVTED_clean_linker_0, # of connection points: 2
#     Edge 18, Type (0, 1), BuildingBlock: XIVTED_clean_linker_0, # of connection points: 2
#     Edge 19, Type (0, 1), BuildingBlock: XIVTED_clean_linker_0, # of connection points: 2
#     Edge 20, Type (0, 1), BuildingBlock: XIVTED_clean_linker_0, # of connection points: 2
#     Edge 21, Type (0, 1), BuildingBlock: XIVTED_clean_linker_0, # of connection points: 2
#     Edge 22, Type (0, 1), BuildingBlock: XIVTED_clean_linker_0, # of connection points: 2
#     Edge 23, Type (0, 1), BuildingBlock: XIVTED_clean_linker_0, # of connection points: 2
#     Edge 24, Type (0, 1), BuildingBlock: XIVTED_clean_linker_0, # of connection points: 2
#     Edge 25, Type (0, 1), BuildingBlock: XIVTED_clean_linker_0, # of connection points: 2
#     Edge 26, Type (0, 1), BuildingBlock: XIVTED_clean_linker_0, # of connection points: 2
#     Edge 27, Type (0, 1), BuildingBlock: XIVTED_clean_linker_0, # of connection points: 2
#     Edge 28, Type (0, 1), BuildingBlock: XIVTED_clean_linker_0, # of connection points: 2
#     Edge 29, Type (0, 1), BuildingBlock: XIVTED_clean_linker_0, # of connection points: 2
#     Edge 30, Type (0, 1), BuildingBlock: XIVTED_clean_linker_0, # of connection points: 2
#     Edge 31, Type (0, 1), BuildingBlock: XIVTED_clean_linker_0, # of connection points: 2
#     Edge 32, Type (0, 1), BuildingBlock: XIVTED_clean_linker_0, # of connection points: 2
#     Edge 33, Type (0, 1), BuildingBlock: XIVTED_clean_linker_0, # of connection points: 2
#     Edge 34, Type (0, 1), BuildingBlock: XIVTED_clean_linker_0, # of connection points: 2
#     Edge 35, Type (0, 1), BuildingBlock: XIVTED_clean_linker_0, # of connection points: 2
# Relax obj value: 0.356
# Max RMSD: 0.281
# Mean RMSD: 0.222
data_MOF--net-zzz--node1-PAMTOO_clean_sbu_0--node2-VETTIZ_charged_linker_0--edge1-XIVTED_clean_linker_0
_symmetry_space_group_name_H-M    P1
_symmetry_Int_Tables_number       1
_symmetry_cell_setting            triclinic
loop_
_symmetry_equiv_pos_as_xyz
'x, y, z'
_cell_length_a     63.686459
_cell_length_b     55.497953
_cell_length_c     20.887997
_cell_angle_alpha  90.912213
_cell_angle_beta   81.27292
_cell_angle_gamma 84.653772
loop_
_atom_site_label
_atom_site_type_symbol
_atom_site_fract_x
_atom_site_fract_y
_atom_site_fract_z
_atom_type_partial_charge
C0 C 0.84887 0.5402 0.47056 0.0
C1 C 0.8655 0.55266 0.49013 0.0
C2 C 0.86777 0.57644 0.46894 0.0
C3 C 0.84079 0.57327 0.40123 0.0
C4 C 0.83616 0.5514 0.4271 0.0
C5 C 0.81602 0.54361 0.4048 0.0
H6 H 0.74165 0.56806 0.20061 0.0
C7 C 0.82679 0.57985 0.35402 0.0
C8 C 0.81106 0.5636 0.3576 0.0
H9 H 0.74133 0.51063 0.3374 0.0
H10 H 0.7738 0.52351 0.37158 0.0
H11 H 0.75527 0.61094 0.28837 0.0
H12 H 0.78214 0.56001 0.14175 0.0
H13 H 0.80478 0.5756 0.14476 0.0
H14 H 0.78075 0.59103 0.12262 0.0
H15 H 0.75295 0.61068 0.20366 0.0
H16 H 0.77376 0.62535 0.2337 0.0
C17 C 0.79843 0.54393 0.46438 0.0
C18 C 0.82123 0.51855 0.37032 0.0
C19 C 0.85862 0.61818 0.1514 0.0
C20 C 0.85068 0.6213 0.09239 0.0
C21 C 0.8284 0.62493 0.09394 0.0
C22 C 0.81455 0.62092 0.15073 0.0
C23 C 0.82317 0.61263 0.20526 0.0
C24 C 0.84461 0.61352 0.20721 0.0
C25 C 0.85069 0.60538 0.27092 0.0
C26 C 0.82978 0.59596 0.3023 0.0
C27 C 0.81415 0.59942 0.26205 0.0
C28 C 0.85672 0.62774 0.30705 0.0
C29 C 0.86927 0.58495 0.25882 0.0
C30 C 0.74813 0.55851 0.2392 0.0
C31 C 0.7385 0.53879 0.26749 0.0
C32 C 0.74827 0.52615 0.31525 0.0
C33 C 0.76698 0.53374 0.33534 0.0
C34 C 0.77615 0.55393 0.30671 0.0
C35 C 0.76671 0.56555 0.2587 0.0
C36 C 0.77899 0.5852 0.22842 0.0
C37 C 0.79677 0.58492 0.2691 0.0
C38 C 0.7953 0.56656 0.31531 0.0
C39 C 0.76452 0.60939 0.23856 0.0
C40 C 0.7871 0.57779 0.15586 0.0
H41 H 0.85632 0.60549 0.41448 0.0
H42 H 0.84582 0.52253 0.48891 0.0
H43 H 0.83545 0.51862 0.33215 0.0
H44 H 0.80801 0.51327 0.34626 0.0
H45 H 0.82476 0.50442 0.40529 0.0
H46 H 0.79768 0.561 0.49361 0.0
H47 H 0.80171 0.52853 0.49595 0.0
H48 H 0.78243 0.54311 0.45097 0.0
H49 H 0.87561 0.61622 0.1525 0.0
H50 H 0.82178 0.62852 0.04985 0.0
H51 H 0.79776 0.62281 0.14899 0.0
H52 H 0.86101 0.64253 0.27365 0.0
H53 H 0.87109 0.6233 0.33034 0.0
H54 H 0.84328 0.63542 0.34417 0.0
H55 H 0.86497 0.56977 0.22951 0.0
H56 H 0.87346 0.57759 0.30456 0.0
H57 H 0.88399 0.59173 0.23292 0.0
H58 H 0.87973 0.58691 0.48445 0.0
C59 C 0.8551 0.58693 0.42613 0.0
C60 C 0.8964 0.77924 0.15465 0.0
C61 C 0.89269 0.80441 0.16849 0.0
C62 C 0.89021 0.81223 0.23426 0.0
C63 C 0.90612 0.77338 0.26096 0.0
C64 C 0.904 0.76409 0.20102 0.0
C65 C 0.91452 0.73856 0.18979 0.0
H66 H 1.00164 0.66749 0.19403 0.0
C67 C 0.92191 0.75721 0.2883 0.0
C68 C 0.92624 0.73617 0.24877 0.0
H69 H 0.94321 0.64869 0.13156 0.0
H70 H 0.92359 0.68291 0.19544 0.0
H71 H 0.99501 0.72858 0.19261 0.0
H72 H 0.98479 0.70594 0.37683 0.0
H73 H 1.0012 0.68393 0.32206 0.0
H74 H 0.97328 0.68117 0.34711 0.0
H75 H 0.01337 0.70841 0.2287 0.0
H76 H 1.00255 0.73687 0.26771 0.0
C77 C 0.93018 0.73672 0.1251 0.0
C78 C 0.8968 0.7212 0.19012 0.0
C79 C 0.96403 0.79781 0.43834 0.0
C80 C 0.98431 0.79294 0.45621 0.0
C81 C 0.99682 0.77148 0.43139 0.0
C82 C 0.98894 0.75517 0.39018 0.0
C83 C 0.96851 0.76057 0.37278 0.0
C84 C 0.95662 0.78178 0.39675 0.0
C85 C 0.93601 0.7861 0.37064 0.0
C86 C 0.93669 0.76321 0.3293 0.0
C87 C 0.9558 0.74821 0.33017 0.0
C88 C 0.93674 0.80955 0.3304 0.0
C89 C 0.91746 0.78733 0.42815 0.0
C90 C 0.98477 0.67126 0.19194 0.0
C91 C 0.97421 0.65603 0.1549 0.0
C92 C 0.9519 0.6605 0.15738 0.0
C93 C 0.94062 0.68065 0.19157 0.0
C94 C 0.95178 0.69699 0.22101 0.0
C95 C 0.97292 0.6914 0.22645 0.0
C96 C 0.97989 0.70874 0.27432 0.0
C97 C 0.9597 0.72631 0.29164 0.0
C98 C 0.94396 0.71967 0.25631 0.0
C99 C 0.9988 0.72135 0.23934 0.0
C100 C 0.98524 0.6943 0.33328 0.0
H101 H 0.89543 0.80343 0.32959 0.0
H102 H 0.8962 0.77208 0.10635 0.0
H103 H 0.88163 0.7307 0.17933 0.0
H104 H 0.89319 0.71281 0.23802 0.0
H105 H 0.90119 0.70672 0.15191 0.0
H106 H 0.94206 0.7502 0.12485 0.0
H107 H 0.92154 0.73993 0.08323 0.0
H108 H 0.93896 0.71855 0.11647 0.0
H109 H 0.95424 0.81446 0.45431 0.0
H110 H 0.01259 0.76728 0.44406 0.0
H111 H 0.99913 0.7392 0.37262 0.0
H112 H 0.93727 0.80559 0.27789 0.0
H113 H 0.95117 0.8191 0.33343 0.0
H114 H 0.92302 0.82308 0.34765 0.0
H115 H 0.92054 0.77322 0.46374 0.0
H116 H 0.90213 0.7838 0.41275 0.0
H117 H 0.91547 0.80526 0.4539 0.0
H118 H 0.88597 0.83101 0.24911 0.0
C119 C 0.89652 0.7965 0.28093 0.0
C120 C 0.82965 0.99429 0.12771 0.0
C121 C 0.84231 0.00378 0.07388 0.0
C122 C 0.8325 0.0206 0.03546 0.0
C123 C 0.79867 0.02017 0.1056 0.0
C124 C 0.80769 0.00292 0.14294 0.0
C125 C 0.79115 0.9959 0.19843 0.0
H126 H 0.68984 0.0237 0.36939 0.0
C127 C 0.77637 0.02712 0.13521 0.0
C128 C 0.77157 0.01331 0.19071 0.0
H129 H 0.73372 0.96313 0.40381 0.0
H130 H 0.76003 0.97514 0.31451 0.0
H131 H 0.72345 0.06299 0.33913 0.0
H132 H 0.69484 0.01387 0.22633 0.0
H133 H 0.69746 0.03925 0.17844 0.0
H134 H 0.68118 0.04234 0.25719 0.0
H135 H 0.69634 0.06789 0.32474 0.0
H136 H 0.71801 0.07896 0.27068 0.0
C137 C 0.79906 1.0003 0.26336 0.0
C138 C 0.78722 0.9693 0.18674 0.0
C139 C 0.7312 0.08919 0.02478 0.0
C140 C 0.71007 0.09976 0.04171 0.0
C141 C 0.69923 0.09654 0.1046 0.0
C142 C 0.70854 0.08155 0.1478 0.0
C143 C 0.7289 0.06943 0.12812 0.0
C144 C 0.74027 0.07419 0.0688 0.0
C145 C 0.76205 0.06041 0.05767 0.0
C146 C 0.76115 0.04526 0.11809 0.0
C147 C 0.74162 0.05043 0.15842 0.0
C148 C 0.77885 0.07911 0.05535 0.0
C149 C 0.76389 0.04431 0.99529 0.0
C150 C 0.70519 0.01309 0.35835 0.0
C151 C 0.70979 0.9927 0.39402 0.0
C152 C 0.7298 0.97901 0.3769 0.0
C153 C 0.74499 0.98596 0.32512 0.0
C154 C 0.73988 0.00648 0.28927 0.0
C155 C 0.72004 0.01934 0.30645 0.0
C156 C 0.71588 0.03923 0.26145 0.0
C157 C 0.73642 0.03661 0.21401 0.0
C158 C 0.75095 0.01772 0.2302 0.0
C159 C 0.71309 0.06361 0.30067 0.0
C160 C 0.6963 0.03367 0.22926 0.0
H161 H 0.80478 0.04159 0.01914 0.0
H162 H 0.83675 0.98111 0.15775 0.0
H163 H 0.78511 0.96607 0.1355 0.0
H164 H 0.77259 0.96428 0.21671 0.0
H165 H 0.80096 0.95685 0.19678 0.0
H166 H 0.80366 0.01906 0.26671 0.0
H167 H 0.81322 0.98753 0.26795 0.0
H168 H 0.78665 0.99808 0.30529 0.0
H169 H 0.74009 0.09163 0.97724 0.0
H170 H 0.68289 0.10421 0.1191 0.0
H171 H 0.69902 0.0791 0.19372 0.0
H172 H 0.79186 0.07337 0.08314 0.0
H173 H 0.77183 0.0969 0.07808 0.0
H174 H 0.78588 0.0825 1.0047 0.0
H175 H 0.74867 0.03623 0.99291 0.0
H176 H 0.77612 0.02873 0.99309 0.0
H177 H 0.76743 0.05506 0.9512 0.0
H178 H 0.84171 0.02779 0.99333 0.0
C179 C 0.81095 0.02874 0.05079 0.0
C180 C 0.53675 0.69869 0.42557 0.0
C181 C 0.53847 0.67354 0.43813 0.0
C182 C 0.5362 0.65687 0.38877 0.0
C183 C 0.5239 0.68948 0.32585 0.0
C184 C 0.5303 0.70617 0.36633 0.0
C185 C 0.53168 0.73041 0.33294 0.0
H186 H 0.51341 0.79227 0.05884 0.0
C187 C 0.51694 0.70161 0.271 0.0
C188 C 0.523 0.72518 0.26973 0.0
H189 H 0.5416 0.82002 0.21681 0.0
H190 H 0.53788 0.78172 0.27206 0.0
H191 H 0.53638 0.7425 0.04323 0.0
H192 H 0.47447 0.76349 0.15753 0.0
H193 H 0.47385 0.74163 0.09467 0.0
H194 H 0.48175 0.77063 0.07388 0.0
H195 H 0.5126 0.74598 0.0066 0.0
H196 H 0.52074 0.71803 0.04322 0.0
C197 C 0.55533 0.73545 0.32007 0.0
C198 C 0.51738 0.75024 0.37552 0.0
C199 C 0.46105 0.66427 0.16457 0.0
C200 C 0.45933 0.6621 0.09838 0.0
C201 C 0.46902 0.67879 0.05566 0.0
C202 C 0.4815 0.69576 0.07768 0.0
C203 C 0.48473 0.69582 0.14265 0.0
C204 C 0.47531 0.67948 0.1843 0.0
C205 C 0.48551 0.67702 0.24471 0.0
C206 C 0.50309 0.69402 0.22989 0.0
C207 C 0.5004 0.70724 0.17516 0.0
C208 C 0.49355 0.65025 0.25255 0.0
C209 C 0.46926 0.68654 0.304 0.0
C210 C 0.51867 0.79034 0.1056 0.0
C211 C 0.52756 0.80933 0.13364 0.0
C212 C 0.53479 0.80562 0.19383 0.0
C213 C 0.53271 0.78342 0.22566 0.0
C214 C 0.52358 0.7647 0.19655 0.0
C215 C 0.51653 0.76866 0.13771 0.0
C216 C 0.50647 0.74763 0.11367 0.0
C217 C 0.50875 0.73002 0.16725 0.0
C218 C 0.51909 0.73974 0.21587 0.0
C219 C 0.51955 0.73802 0.04808 0.0
C220 C 0.48286 0.75614 0.10962 0.0
H221 H 0.53017 0.65211 0.29198 0.0
H222 H 0.54041 0.7118 0.46014 0.0
H223 H 0.50096 0.74473 0.38835 0.0
H224 H 0.51605 0.76756 0.35046 0.0
H225 H 0.5238 0.75344 0.42118 0.0
H226 H 0.56546 0.71915 0.29778 0.0
H227 H 0.56098 0.74017 0.36606 0.0
H228 H 0.55824 0.75019 0.28615 0.0
H229 H 0.45328 0.65242 0.19926 0.0
H230 H 0.46848 0.67762 1.0042 0.0
H231 H 0.48937 0.70716 0.04255 0.0
H232 H 0.48157 0.63774 0.24435 0.0
H233 H 0.49614 0.64684 0.30295 0.0
H234 H 0.50824 0.64483 0.21748 0.0
H235 H 0.46294 0.70556 0.2975 0.0
H236 H 0.47688 0.68604 0.3485 0.0
H237 H 0.45562 0.67525 0.31147 0.0
H238 H 0.53907 0.63755 0.39507 0.0
C239 C 0.5297 0.6649 0.33155 0.0
C240 C 0.31431 0.47235 0.18416 0.0
C241 C 0.32905 0.46032 0.22043 0.0
C242 C 0.32894 0.43517 0.22856 0.0
C243 C 0.29799 0.43501 0.17559 0.0
C244 C 0.29916 0.45891 0.16029 0.0
C245 C 0.28365 0.46635 0.11354 0.0
H246 H 0.20309 0.4308 0.95754 0.0
C247 C 0.28132 0.42547 0.14551 0.0
C248 C 0.27354 0.44266 0.10452 0.0
H249 H 0.2249 0.50193 0.95777 0.0
H250 H 0.25341 0.48717 0.01797 0.0
H251 H 0.25176 0.3979 0.94303 0.0
H252 H 0.19661 0.41801 0.06577 0.0
H253 H 0.21074 0.40982 0.12997 0.0
H254 H 0.20607 0.38755 0.07046 0.0
H255 H 0.22508 0.38878 0.95339 0.0
H256 H 0.24508 0.37411 0.99576 0.0
C257 C 0.29643 0.47414 0.04983 0.0
C258 C 0.26718 0.48652 0.14705 0.0
C259 C 0.23048 0.37329 0.2662 0.0
C260 C 0.21326 0.36274 0.24498 0.0
C261 C 0.21582 0.3543 0.17977 0.0
C262 C 0.23195 0.3623 0.13411 0.0
C263 C 0.24523 0.37847 0.15497 0.0
C264 C 0.24662 0.38081 0.21971 0.0
C265 C 0.26426 0.39599 0.23044 0.0
C266 C 0.27073 0.40474 0.16152 0.0
C267 C 0.25722 0.39685 0.12028 0.0
C268 C 0.28185 0.37963 0.25612 0.0
C269 C 0.25559 0.41738 0.27846 0.0
C270 C 0.21416 0.44314 0.97013 0.0
C271 C 0.21175 0.46742 0.95354 0.0
C272 C 0.22648 0.48304 0.97016 0.0
C273 C 0.24281 0.47452 1.00567 0.0
C274 C 0.2441 0.4503 0.02549 0.0
C275 C 0.22982 0.43515 0.00718 0.0
C276 C 0.23199 0.41053 0.03523 0.0
C277 C 0.25008 0.4131 0.07412 0.0
C278 C 0.2574 0.43643 0.06801 0.0
C279 C 0.23877 0.3917 0.97892 0.0
C280 C 0.21041 0.40616 0.0777 0.0
H281 H 0.31513 0.40294 0.20644 0.0
H282 H 0.3149 0.49135 0.17386 0.0
H283 H 0.2604 0.4811 0.19639 0.0
H284 H 0.25358 0.49037 0.12067 0.0
H285 H 0.27476 0.50355 0.15204 0.0
H286 H 0.31027 0.46059 0.03328 0.0
H287 H 0.30264 0.49191 0.05666 0.0
H288 H 0.28683 0.47547 0.01009 0.0
H289 H 0.22992 0.37872 0.31638 0.0
H290 H 0.20381 0.34437 0.16264 0.0
H291 H 0.2325 0.35756 0.08376 0.0
H292 H 0.27479 0.36688 0.29195 0.0
H293 H 0.29181 0.39032 0.28264 0.0
H294 H 0.2921 0.36874 0.21607 0.0
H295 H 0.24207 0.4283 0.26147 0.0
H296 H 0.26821 0.42946 0.28355 0.0
H297 H 0.25001 0.41084 0.32751 0.0
H298 H 0.34079 0.42538 0.25299 0.0
C299 C 0.31375 0.42239 0.20486 0.0
C300 C 0.93629 0.24674 0.40265 0.0
C301 C 0.9262 0.22529 0.40056 0.0
C302 C 0.92944 0.2115 0.3419 0.0
C303 C 0.9568 0.23648 0.2966 0.0
C304 C 0.95176 0.25178 0.35056 0.0
C305 C 0.96662 0.2714 0.3492 0.0
H306 H 0.06377 0.30755 0.25225 0.0
C307 C 0.97679 0.24321 0.25858 0.0
C308 C 0.98257 0.26378 0.28852 0.0
H309 H 1.01089 0.34362 0.38408 0.0
H310 H 0.9878 0.31482 0.35505 0.0
H311 H 0.05358 0.25017 0.27889 0.0
H312 H 0.04148 0.26962 0.10101 0.0
H313 H 0.05983 0.28786 0.13227 0.0
H314 H 0.03214 0.29855 0.13578 0.0
H315 H 0.07204 0.26236 0.21679 0.0
H316 H 0.05849 0.23655 0.20011 0.0
C317 C 0.97712 0.2699 0.41155 0.0
C318 C 0.95363 0.29602 0.34171 0.0
C319 C 0.0151 0.18383 0.08424 0.0
C320 C 0.03532 0.1816 0.04659 0.0
C321 C 0.04918 0.19965 0.05234 0.0
C322 C 0.0429 0.21951 0.09656 0.0
C323 C 0.02257 0.22124 0.13504 0.0
C324 C 1.00908 0.20357 0.12755 0.0
C325 C 0.9883 0.20747 0.17232 0.0
C326 C 0.99117 0.23063 0.20784 0.0
C327 C 0.01128 0.23882 0.1865 0.0
C328 C 0.98655 0.18551 0.21773 0.0
C329 C 0.97017 0.2114 0.13063 0.0
C330 C 0.0472 0.30899 0.27467 0.0
C331 C 0.0391 0.32747 0.32164 0.0
C332 C 0.01741 0.32935 0.34861 0.0
C333 C 1.00405 0.31257 0.33198 0.0
C334 C 0.01243 0.29335 0.28858 0.0
C335 C 0.03335 0.29223 0.25808 0.0
C336 C 0.03825 0.27152 0.20818 0.0
C337 C 0.01711 0.26003 0.21659 0.0
C338 C 1.0024 0.27276 0.26544 0.0
C339 C 0.05665 0.25417 0.22646 0.0
C340 C 0.04335 0.28229 0.14051 0.0
H341 H 0.94718 0.20505 0.24825 0.0
H342 H 0.93363 0.25812 0.44625 0.0
H343 H 0.95056 0.30692 0.38783 0.0
H344 H 0.93782 0.29373 0.32712 0.0
H345 H 0.96183 0.30683 0.30299 0.0
H346 H 0.98305 0.25085 0.41954 0.0
H347 H 0.96547 0.27648 0.45475 0.0
H348 H 0.99099 0.28042 0.40995 0.0
H349 H 1.0042 0.17014 0.08078 0.0
H350 H 0.06491 0.19816 0.02354 0.0
H351 H 0.05415 0.23256 0.09978 0.0
H352 H 1.00228 0.17502 0.21834 0.0
H353 H 0.97574 0.17271 0.2023 0.0
H354 H 0.98101 0.19106 0.26907 0.0
H355 H 0.97512 0.22247 0.08798 0.0
H356 H 0.9556 0.22157 0.15708 0.0
H357 H 0.966 0.19386 0.11217 0.0
H358 H 0.92193 0.19494 0.33804 0.0
C359 C 0.94456 0.21711 0.28986 0.0
C360 C 0.32294 0.99722 0.07674 0.0
C361 C 0.3378 0.01179 0.04189 0.0
C362 C 0.33475 0.03714 0.05264 0.0
C363 C 0.30724 0.0323 0.14232 0.0
C364 C 0.30683 0.00842 0.12534 0.0
C365 C 0.28811 0.99811 0.16715 0.0
H366 H 0.21495 0.01357 0.44489 0.0
C367 C 0.29308 0.03802 0.2029 0.0
C368 C 0.27906 0.01993 0.21336 0.0
H369 H 0.20175 0.98027 0.26896 0.0
H370 H 0.23489 0.99373 0.21002 0.0
H371 H 0.26108 1.00025 0.44214 0.0
H372 H 0.22658 0.06075 0.37336 0.0
H373 H 0.24736 0.07191 0.40856 0.0
H374 H 0.22862 0.05441 0.45637 0.0
H375 H 0.2566 0.02812 0.48801 0.0
H376 H 0.2807 0.02076 0.43103 0.0
C377 C 0.29636 0.9766 0.2051 0.0
C378 C 0.27233 0.9904 0.12348 0.0
C379 C 0.33098 0.07275 0.37226 0.0
C380 C 0.32663 0.07255 0.44036 0.0
C381 C 0.3054 0.07101 0.47006 0.0
C382 C 0.28968 0.06609 0.4328 0.0
C383 C 0.29529 0.06254 0.36538 0.0
C384 C 0.31526 0.06734 0.33566 0.0
C385 C 0.31882 0.06156 0.26391 0.0
C386 C 0.29764 0.05166 0.25622 0.0
C387 C 0.28459 0.05116 0.31648 0.0
C388 C 0.33806 0.04201 0.24782 0.0
C389 C 0.32262 0.08509 0.22699 0.0
C390 C 0.21959 0.00776 0.39456 0.0
C391 C 0.20608 0.99482 0.36274 0.0
C392 C 0.21217 0.98941 0.29552 0.0
C393 C 0.23161 0.99637 0.26172 0.0
C394 C 0.24524 0.00834 0.29555 0.0
C395 C 0.23853 0.01481 0.36018 0.0
C396 C 0.25217 0.0323 0.38526 0.0
C397 C 0.26769 0.03602 0.32443 0.0
C398 C 0.26447 0.02088 0.27279 0.0
C399 C 0.26319 0.01991 0.43945 0.0
C400 C 0.23803 0.05612 0.4076 0.0
H401 H 0.31689 0.06687 0.10987 0.0
H402 H 0.3241 0.97789 0.0671 0.0
H403 H 0.26198 0.00629 0.11071 0.0
H404 H 0.26232 0.97678 0.14701 0.0
H405 H 0.28098 0.9815 0.07772 0.0
H406 H 0.3084 0.9821 0.23446 0.0
H407 H 0.30388 0.96143 0.17149 0.0
H408 H 0.283 0.96992 0.2385 0.0
H409 H 0.34699 0.07425 0.34765 0.0
H410 H 0.30132 0.07173 0.52236 0.0
H411 H 0.27414 0.06368 0.45825 0.0
H412 H 0.33502 0.02535 0.27526 0.0
H413 H 0.35293 0.04864 0.25998 0.0
H414 H 0.34157 0.0369 0.19577 0.0
H415 H 0.32993 0.09818 0.25564 0.0
H416 H 0.30742 0.09428 0.21563 0.0
H417 H 0.33407 0.08156 0.18159 0.0
H418 H 0.34516 0.04884 0.02484 0.0
C419 C 0.31924 0.0475 0.10245 0.0
C420 C 0.49382 0.27945 0.09273 0.0
C421 C 0.48401 0.3022 0.07688 0.0
C422 C 0.46695 0.31376 0.12104 0.0
C423 C 0.47412 0.2848 0.20086 0.0
C424 C 0.48774 0.27054 0.1553 0.0
C425 C 0.4934 0.246 0.18348 0.0
H426 H 0.49789 0.1856 0.4678 0.0
C427 C 0.47411 0.2743 0.26404 0.0
C428 C 0.4841 0.25057 0.2555 0.0
H429 H 0.513 0.15279 0.27567 0.0
H430 H 0.50359 0.19193 0.22918 0.0
H431 H 0.5209 0.22616 0.44361 0.0
H432 H 0.45521 0.21848 0.45137 0.0
H433 H 0.45733 0.24616 0.49184 0.0
H434 H 0.47019 0.21849 0.51771 0.0
H435 H 0.5027 0.23752 0.51285 0.0
H436 H 0.51083 0.25674 0.44632 0.0
C437 C 0.51778 0.23995 0.17305 0.0
C438 C 0.48174 0.22712 0.15122 0.0
C439 C 0.48079 0.33372 0.44213 0.0
C440 C 0.48775 0.32995 0.50227 0.0
C441 C 0.48564 0.30736 0.53117 0.0
C442 C 0.47921 0.28813 0.49711 0.0
C443 C 0.47581 0.29124 0.43278 0.0
C444 C 0.47534 0.31404 0.40753 0.0
C445 C 0.47156 0.31394 0.33815 0.0
C446 C 0.47166 0.28669 0.32482 0.0
C447 C 0.47498 0.27367 0.37976 0.0
C448 C 0.49037 0.32477 0.29599 0.0
C449 C 0.44982 0.32848 0.33444 0.0
C450 C 0.49911 0.1866 0.41561 0.0
C451 C 0.50628 0.16611 0.37558 0.0
C452 C 0.50741 0.16834 0.30776 0.0
C453 C 0.50181 0.19094 0.28093 0.0
C454 C 0.49472 0.2113 0.32243 0.0
C455 C 0.49357 0.20865 0.38859 0.0
C456 C 0.48689 0.2318 0.42667 0.0
C457 C 0.48219 0.24867 0.37339 0.0
C458 C 0.48707 0.23696 0.31169 0.0
C459 C 0.50614 0.23849 0.45927 0.0
C460 C 0.46638 0.22866 0.47489 0.0
H461 H 0.4484 0.31349 0.21534 0.0
H462 H 0.50596 0.26936 0.0581 0.0
H463 H 0.46483 0.23406 0.1502 0.0
H464 H 0.48117 0.21012 0.17757 0.0
H465 H 0.48952 0.22296 0.10044 0.0
H466 H 0.52558 0.25478 0.19355 0.0
H467 H 0.52418 0.23764 0.12057 0.0
H468 H 0.52243 0.22308 0.19691 0.0
H469 H 0.48107 0.35129 0.42044 0.0
H470 H 0.49034 0.30395 0.57812 0.0
H471 H 0.4783 0.27121 0.52078 0.0
H472 H 0.50579 0.3143 0.30067 0.0
H473 H 0.49127 0.34392 0.31059 0.0
H474 H 0.48871 0.32487 0.24416 0.0
H475 H 0.44469 0.3413 0.37659 0.0
H476 H 0.43697 0.31629 0.33345 0.0
H477 H 0.45066 0.33999 0.29136 0.0
H478 H 0.45844 0.3305 0.10908 0.0
C479 C 0.46172 0.30481 0.18283 0.0
Dy480 Dy 0.01436 1.00007 0.68201 0.0
Dy481 Dy 0.03769 0.96911 0.78524 0.0
C482 C 0.06537 0.98405 0.65382 0.0
O483 O 1.00757 0.96136 0.67097 0.0
O484 O 0.03783 0.94346 0.70174 0.0
O485 O 0.0125 0.02648 0.60766 0.0
O486 O 0.98626 0.00474 0.63584 0.0
O487 O 1.00217 0.96799 0.81079 0.0
O488 O 0.99308 0.00559 0.77786 0.0
O489 O 0.0376 0.00756 0.82022 0.0
O490 O 0.02728 0.02915 0.73521 0.0
O491 O 0.04633 0.96611 0.88134 0.0
O492 O 0.05081 0.9347 0.81684 0.0
C493 C 0.02138 0.94234 0.67166 0.0
O494 O 0.04739 0.98796 0.62964 0.0
O495 O 0.06538 0.98 0.71592 0.0
C496 C 0.9776 0.04468 0.60799 0.0
C497 C 0.94871 0.08663 0.61631 0.0
C498 C 0.95837 0.07943 0.67012 0.0
C499 C 0.9727 0.05856 0.666 0.0
C500 C 0.9677 0.05143 0.55483 0.0
C501 C 0.95339 0.07222 0.55886 0.0
C502 C 0.99282 0.023 0.60266 0.0
C503 C 0.98859 0.98739 0.815 0.0
C504 C 0.03435 0.02813 0.79111 0.0
C505 C 0.0325 0.93028 0.92126 0.0
C506 C 0.99683 0.90599 0.97131 0.0
C507 C 0.99573 0.93136 0.97522 0.0
C508 C 0.01333 0.94337 0.95042 0.0
C509 C 0.03421 0.90492 0.92238 0.0
C510 C 0.01655 0.89287 0.94728 0.0
C511 C 0.04816 0.94253 0.87693 0.0
H512 H 0.95504 0.09004 0.71508 0.0
H513 H 0.98013 0.05339 0.70775 0.0
H514 H 0.97128 0.04082 0.50984 0.0
H515 H 0.94662 0.07747 0.51604 0.0
H516 H 0.98086 0.94206 0.99335 0.0
H517 H 0.01132 0.96296 0.94983 0.0
H518 H 0.04873 0.89441 0.8999 0.0
H519 H 0.0181 0.87327 0.94523 0.0
Dy520 Dy 0.5222 0.96582 0.6863 0.0
Dy521 Dy 0.53458 0.00266 0.79543 0.0
C522 C 0.52283 0.02286 0.65868 0.0
O523 O 0.55811 0.96111 0.67396 0.0
O524 O 0.5628 0.9982 0.71638 0.0
O525 O 0.52641 0.94991 0.58937 0.0
O526 O 0.50132 0.9396 0.66253 0.0
O527 O 0.54222 0.9659 0.83401 0.0
O528 O 0.524 0.94294 0.77267 0.0
O529 O 0.50202 0.99185 0.83338 0.0
O530 O 0.49187 0.9869 0.73476 0.0
O531 O 0.55538 0.01196 0.86216 0.0
O532 O 0.52689 0.03565 0.85417 0.0
C533 C 0.57026 0.97868 0.68054 0.0
O534 O 0.52372 1.00069 0.63515 0.0
O535 O 0.52413 0.0275 0.71985 0.0
C536 C 0.49155 0.95041 0.56265 0.0
C537 C 0.45603 0.97915 0.53015 0.0
C538 C 0.47676 0.98595 0.51215 0.0
C539 C 0.49433 0.97166 0.52783 0.0
C540 C 0.47113 0.94229 0.57454 0.0
C541 C 0.45352 0.9565 0.55831 0.0
C542 C 0.50806 0.94081 0.60061 0.0
C543 C 0.53396 0.94572 0.82259 0.0
C544 C 0.48689 0.99003 0.79788 0.0
C545 C 0.55767 0.05353 0.87242 0.0
C546 C 0.5882 0.08735 0.86441 0.0
C547 C 0.58318 0.0767 0.80773 0.0
C548 C 0.56803 0.05988 0.81173 0.0
C549 C 0.56156 0.06522 0.92861 0.0
C550 C 0.57666 0.08203 0.92472 0.0
C551 C 0.54473 0.03297 0.87795 0.0
H552 H 0.47939 0.00319 0.49031 0.0
H553 H 0.50986 0.97841 0.51744 0.0
H554 H 0.46855 0.92595 0.60115 0.0
H555 H 0.43783 0.95032 0.5709 0.0
H556 H 0.59163 0.08056 0.76057 0.0
H557 H 0.56514 0.05097 0.76778 0.0
H558 H 0.55373 0.06042 0.97579 0.0
H559 H 0.58031 0.08953 0.96946 0.0
Dy560 Dy 0.54536 0.49385 0.81557 0.0
Dy561 Dy 0.50816 0.48692 0.71457 0.0
C562 C 0.51822 0.44681 0.82279 0.0
O563 O 0.55692 0.46184 0.74952 0.0
O564 O 0.54252 0.48144 0.67284 0.0
O565 O 0.57818 0.50021 0.8235 0.0
O566 O 0.55487 0.4959 0.91061 0.0
O567 O 0.51262 0.52633 0.71398 0.0
O568 O 0.54626 0.52413 0.74406 0.0
O569 O 0.48889 0.50711 0.79956 0.0
O570 O 0.5152 0.51532 0.86143 0.0
O571 O 0.47949 0.47433 0.68742 0.0
O572 O 0.50361 0.4866 0.61365 0.0
C573 C 0.55376 0.46241 0.68935 0.0
O574 O 0.52939 0.46137 0.85151 0.0
O575 O 0.51089 0.45209 0.76828 0.0
C576 C 0.591 0.50212 0.92868 0.0
C577 C 0.62237 0.50767 0.00955 0.0
C578 C 0.60522 0.49386 0.02917 0.0
C579 C 0.58961 0.4913 0.98943 0.0
C580 C 0.60834 0.51553 0.90846 0.0
C581 C 0.62374 0.51845 0.94866 0.0
C582 C 0.57449 0.49931 0.88669 0.0
C583 C 0.53049 0.5359 0.71915 0.0
C584 C 0.49527 0.51706 0.85002 0.0
C585 C 0.46802 0.48644 0.58679 0.0
C586 C 0.43683 0.4927 0.50249 0.0
C587 C 0.45827 0.49664 0.48106 0.0
C588 C 0.47364 0.49346 0.52252 0.0
C589 C 0.44644 0.48352 0.60912 0.0
C590 C 0.43106 0.4867 0.56767 0.0
C591 C 0.48495 0.47826 0.62595 0.0
H592 H 0.60361 0.48547 0.0759 0.0
H593 H 0.57648 0.48075 1.00615 0.0
H594 H 0.60985 0.52403 0.86187 0.0
H595 H 0.63683 0.52906 0.9319 0.0
H596 H 0.46333 0.50163 0.4316 0.0
H597 H 0.49013 0.49555 0.50329 0.0
H598 H 0.44154 0.47769 0.65789 0.0
H599 H 0.41483 0.48322 0.58597 0.0
Dy600 Dy 0.0492 0.51522 0.65732 0.0
Dy601 Dy 0.02922 0.47588 0.75458 0.0
C602 C 0.05398 0.45844 0.61883 0.0
O603 O 0.01373 0.52395 0.66722 0.0
O604 O 1.00646 0.48507 0.68429 0.0
O605 O 0.04826 0.5334 0.56689 0.0
O606 O 0.07327 0.53907 0.62304 0.0
O607 O 0.01624 0.51239 0.79796 0.0
O608 O 0.04204 0.53572 0.75239 0.0
O609 O 0.06014 0.48152 0.78842 0.0
O610 O 0.07727 0.49577 0.69428 0.0
O611 O 0.02023 0.46334 0.85141 0.0
O612 O 0.01129 0.4446 0.76963 0.0
C613 C 1.00063 0.50704 0.66733 0.0
O614 O 0.04882 0.48051 0.601 0.0
O615 O 0.05196 0.45342 0.68044 0.0
C616 C 0.08366 0.52682 0.51298 0.0
C617 C 0.10869 0.48699 0.44625 0.0
C618 C 0.0889 0.49516 0.42847 0.0
C619 C 0.07656 0.51502 0.4612 0.0
C620 C 0.10468 0.52071 0.5243 0.0
C621 C 0.11702 0.50089 0.49149 0.0
C622 C 0.06774 0.53914 0.56529 0.0
C623 C 0.02641 0.53192 0.79878 0.0
C624 C 0.0776 0.48754 0.75281 0.0
C625 C 0.98408 0.45786 0.85647 0.0
C626 C 0.94922 0.49303 0.89082 0.0
C627 C 0.95283 0.48177 0.82901 0.0
C628 C 0.97005 0.46425 0.81204 0.0
C629 C 0.97862 0.46663 0.92083 0.0
C630 C 0.96138 0.48418 0.93781 0.0
C631 C 1.00667 0.44974 0.83173 0.0
H632 H 0.08211 0.48506 0.39318 0.0
H633 H 0.06056 0.51944 0.45042 0.0
H634 H 0.11087 0.52967 0.56293 0.0
H635 H 0.13262 0.49561 0.50435 0.0
H636 H 0.94366 0.48806 0.79185 0.0
H637 H 0.97361 0.45778 0.76202 0.0
H638 H 0.98905 0.46199 0.95612 0.0
H639 H 0.95853 0.49208 0.98647 0.0
H640 H 0.16597 0.99914 0.32573 0.0
H641 H 0.10604 0.97428 0.68264 0.0
H642 H 0.19832 0.97782 0.48586 0.0
H643 H 0.07246 0.99289 0.52299 0.0
H644 H 0.13986 0.97417 0.60957 0.0
H645 H 0.13165 0.99486 0.39429 0.0
C646 C 0.16592 0.99317 0.37485 0.0
C647 C 0.18518 0.98902 0.39996 0.0
C648 C 0.12511 0.97822 0.59033 0.0
C649 C 0.1458 0.98447 0.47935 0.0
C650 C 0.10571 0.97833 0.63224 0.0
C651 C 0.0862 0.98367 0.60935 0.0
C652 C 0.12523 0.98357 0.52464 0.0
C653 C 0.08701 0.9887 0.54316 0.0
C654 C 0.14628 0.99094 0.41424 0.0
C655 C 0.18396 0.9816 0.46446 0.0
N656 N 0.10612 0.9886 0.50336 0.0
N657 N 0.16473 0.97973 0.50176 0.0
H658 H 0.53167 0.15989 0.46911 0.0
H659 H 0.51051 0.0221 0.53819 0.0
H660 H 0.49464 0.1201 0.35534 0.0
H661 H 0.53084 0.07018 0.67592 0.0
H662 H 0.50843 0.05549 0.46344 0.0
H663 H 0.53629 0.12466 0.53566 0.0
C664 C 0.5247 0.14358 0.45763 0.0
C665 C 0.51251 0.14309 0.40694 0.0
C666 C 0.51333 0.05872 0.51001 0.0
C667 C 0.51773 0.10246 0.48362 0.0
C668 C 0.51453 0.03965 0.55283 0.0
C669 C 0.52081 0.04326 0.61376 0.0
C670 C 0.51876 0.08158 0.52763 0.0
C671 C 0.52579 0.0665 0.62983 0.0
C672 C 0.52727 0.12349 0.49594 0.0
C673 C 0.50417 0.12129 0.3938 0.0
N674 N 0.52476 0.08467 0.587 0.0
N675 N 0.50679 0.10188 0.43225 0.0
H676 H 0.37213 0.45533 0.18485 0.0
H677 H 0.39393 0.5094 0.52363 0.0
H678 H 0.32246 0.49163 0.32572 0.0
H679 H 0.44328 0.47644 0.37521 0.0
H680 H 0.36793 0.50649 0.4492 0.0
H681 H 0.3988 0.46718 0.24916 0.0
C682 C 0.36693 0.46646 0.22848 0.0
C683 C 0.34512 0.47282 0.24957 0.0
C684 C 0.3845 0.50013 0.43272 0.0
C685 C 0.37549 0.48569 0.32522 0.0
C686 C 0.39937 0.50164 0.47541 0.0
C687 C 0.42096 0.49308 0.45613 0.0
C688 C 0.39112 0.48982 0.37014 0.0
C689 C 0.42697 0.48357 0.39243 0.0
C690 C 0.38213 0.47303 0.26563 0.0
C691 C 0.33916 0.48674 0.30728 0.0
N692 N 0.41217 0.48204 0.3522 0.0
N693 N 0.35422 0.49245 0.34353 0.0
H694 H 0.04528 0.37315 0.28233 0.0
H695 H 0.06452 0.40998 0.63564 0.0
H696 H 0.06072 0.32139 0.42331 0.0
H697 H 0.05611 0.4616 0.4871 0.0
H698 H 0.06899 0.37724 0.55354 0.0
H699 H 0.05567 0.40542 0.3491 0.0
C700 C 0.05177 0.36849 0.32605 0.0
C701 C 0.05248 0.34461 0.34703 0.0
C702 C 0.06646 0.39575 0.53869 0.0
C703 C 0.06332 0.38147 0.4255 0.0
C704 C 0.06385 0.41449 0.58569 0.0
C705 C 0.05953 0.43861 0.56864 0.0
C706 C 0.06454 0.40109 0.4741 0.0
C707 C 0.05912 0.44329 0.50284 0.0
C708 C 0.05743 0.38692 0.36469 0.0
C709 C 0.06031 0.33955 0.40508 0.0
N710 N 0.06126 0.42473 0.45827 0.0
N711 N 0.06506 0.35787 0.44287 0.0
H712 H 0.86507 0.95996 0.03216 0.0
H713 H 0.96238 0.02777 0.86095 0.0
H714 H 0.87276 0.03487 0.07018 0.0
H715 H 0.96794 0.95001 0.87366 0.0
H716 H 0.92865 0.02994 0.93506 0.0
H717 H 0.90221 0.95455 0.97509 0.0
C718 C 0.87478 0.97502 0.03038 0.0
C719 C 0.86585 0.99787 0.05625 0.0
C720 C 0.93726 0.01236 0.92209 0.0
C721 C 0.90791 0.99214 0.989 0.0
C722 C 0.95652 0.01111 0.87933 0.0
C723 C 0.96809 0.98869 0.86086 0.0
C724 C 0.92911 0.99101 0.94612 0.0
C725 C 0.95962 0.96772 0.88673 0.0
C726 C 0.89588 0.97203 0.99718 0.0
C727 C 0.87902 0.01693 0.05115 0.0
N728 N 0.94057 0.96935 0.92751 0.0
N729 N 0.89914 0.01374 0.0175 0.0
H730 H 0.56087 0.83855 0.11159 0.0
H731 H 0.50965 0.90764 0.83366 0.0
H732 H 0.49649 0.83322 0.07579 0.0
H733 H 0.55857 0.93885 0.92068 0.0
H734 H 0.50823 0.87667 0.91484 0.0
H735 H 0.56325 0.87306 0.03842 0.0
C736 C 0.54716 0.84483 0.0893 0.0
C737 C 0.52859 0.83265 0.09899 0.0
C738 C 0.51931 0.89027 0.91633 0.0
C739 C 0.53138 0.87155 0.01453 0.0
C740 C 0.52027 0.90791 0.86951 0.0
C741 C 0.53427 0.92598 0.87006 0.0
C742 C 0.53263 0.89027 0.96408 0.0
C743 C 0.5475 0.92532 0.91842 0.0
C744 C 0.54858 0.86439 0.0473 0.0
C745 C 0.51133 0.84158 0.06861 0.0
N746 N 0.54645 0.90767 0.96337 0.0
N747 N 0.51326 0.86015 0.02731 0.0
H748 H 0.72843 0.49341 0.23204 0.0
H749 H 0.63749 0.55017 0.04034 0.0
H750 H 0.70372 0.56864 0.24788 0.0
H751 H 0.64376 0.4739 0.07819 0.0
H752 H 0.66382 0.55648 0.11112 0.0
H753 H 0.69887 0.48469 0.17404 0.0
C754 C 0.71659 0.50797 0.22459 0.0
C755 C 0.71875 0.53185 0.24421 0.0
C756 C 0.65942 0.53834 0.10428 0.0
C757 C 0.6853 0.52215 0.17665 0.0
C758 C 0.64448 0.53471 0.06339 0.0
C759 C 0.63843 0.51147 0.05308 0.0
C760 C 0.66876 0.51855 0.13469 0.0
C761 C 0.64789 0.49215 0.08504 0.0
C762 C 0.69983 0.50304 0.19104 0.0
C763 C 0.70297 0.55004 0.23267 0.0
N764 N 0.66272 0.49607 0.12394 0.0
N765 N 0.6872 0.54488 0.19906 0.0
H766 H 1.01029 0.65727 0.06499 0.0
H767 H 0.9961 0.52862 0.90504 0.0
H768 H 0.964 0.6095 0.14445 0.0
H769 H 0.04215 0.57569 0.81892 0.0
H770 H 0.98597 0.55723 0.99647 0.0
H771 H 0.02468 0.62644 0.9799 0.0
C772 C 1.00348 0.64009 0.06538 0.0
C773 C 0.98584 0.636 0.1116 0.0
C774 C 0.99829 0.56138 0.95767 0.0
C775 C 1.00188 0.60089 0.01387 0.0
C776 C 1.00404 0.54505 0.90508 0.0
C777 C 0.0199 0.54978 0.85366 0.0
C778 C 1.00842 0.58276 0.95935 0.0
C779 C 0.02975 0.57132 0.85719 0.0
C780 C 0.01153 0.62261 0.01642 0.0
C781 C 0.97746 0.61353 0.10935 0.0
N782 N 0.02381 0.58704 0.90901 0.0
N783 N 0.98542 0.59697 0.06113 0.0
H784 H 0.89231 0.19715 0.42227 0.0
H785 H 0.95545 0.13001 0.67052 0.0
H786 H 0.94 0.22684 0.51837 0.0
H787 H 0.91211 0.09725 0.56323 0.0
H788 H 0.9394 0.16984 0.64745 0.0
H789 H 0.88869 0.16638 0.50452 0.0
C790 C 0.90155 0.1977 0.46165 0.0
C791 C 0.91719 0.21398 0.46151 0.0
C792 C 0.93303 0.15396 0.63016 0.0
C793 C 0.91318 0.17881 0.5555 0.0
C794 C 0.94214 0.13113 0.64364 0.0
C795 C 0.93559 0.11023 0.61693 0.0
C796 C 0.91751 0.15591 0.58885 0.0
C797 C 0.91821 0.11292 0.58269 0.0
C798 C 0.89947 0.18011 0.50866 0.0
C799 C 0.92805 0.21442 0.51524 0.0
N800 N 0.91011 0.13534 0.56828 0.0
N801 N 0.9263 0.19663 0.55896 0.0
H802 H 0.32874 0.04295 0.54352 0.0
H803 H 0.45061 0.01171 0.43443 0.0
H804 H 0.36635 0.09004 0.42052 0.0
H805 H 0.41862 0.98695 0.61537 0.0
H806 H 0.41994 0.04108 0.42986 0.0
H807 H 0.36113 0.02432 0.57688 0.0
C808 C 0.34366 0.05006 0.52501 0.0
C809 C 0.34473 0.06771 0.47734 0.0
C810 C 0.41975 0.02935 0.47085 0.0
C811 C 0.38211 0.04547 0.51363 0.0
C812 C 0.43723 0.01248 0.4734 0.0
C813 C 0.43717 0.99653 0.52495 0.0
C814 C 0.4019 0.03007 0.51962 0.0
C815 C 0.41919 0.99832 0.57365 0.0
C816 C 0.36227 0.03909 0.54366 0.0
C817 C 0.36476 0.07585 0.45538 0.0
N818 N 0.4022 0.01459 0.56942 0.0
N819 N 0.38274 0.06417 0.4722 0.0
H820 H 0.48837 0.342 0.63087 0.0
H821 H 0.55046 0.45607 0.56232 0.0
H822 H 0.51546 0.35889 0.43612 0.0
H823 H 0.5531 0.41673 0.73801 0.0
H824 H 0.53714 0.42128 0.51428 0.0
H825 H 0.51024 0.37077 0.67288 0.0
C826 C 0.49887 0.35167 0.59693 0.0
C827 C 0.49976 0.34823 0.52978 0.0
C828 C 0.54104 0.4201 0.5629 0.0
C829 C 0.52468 0.38108 0.57753 0.0
C830 C 0.54877 0.43986 0.59014 0.0
C831 C 0.55247 0.43944 0.65457 0.0
C832 C 0.53661 0.40004 0.60091 0.0
C833 C 0.55013 0.41796 0.68845 0.0
C834 C 0.5114 0.36797 0.62097 0.0
C835 C 0.51363 0.36144 0.48821 0.0
N836 N 0.54176 0.39927 0.6618 0.0
N837 N 0.52537 0.37742 0.51276 0.0
H838 H 0.17592 0.37422 0.19678 0.0
H839 H 0.12863 0.45255 0.51457 0.0
H840 H 0.2002 0.3656 0.37831 0.0
H841 H 0.11317 0.46653 0.32358 0.0
H842 H 0.14815 0.41407 0.47328 0.0
H843 H 0.14514 0.39883 0.25244 0.0
C844 C 0.17459 0.37664 0.2488 0.0
C845 C 0.19138 0.36841 0.28222 0.0
C846 C 0.14031 0.42546 0.4406 0.0
C847 C 0.15612 0.39776 0.34587 0.0
C848 C 0.12941 0.44758 0.46384 0.0
C849 C 0.11976 0.46314 0.42198 0.0
C850 C 0.14156 0.41878 0.375 0.0
C851 C 0.12053 0.45527 0.35747 0.0
C852 C 0.15698 0.39117 0.28045 0.0
C853 C 0.18821 0.37237 0.34982 0.0
N854 N 0.13146 0.43378 0.33582 0.0
N855 N 0.17125 0.38738 0.37916 0.0
H856 H 0.88145 0.85434 0.16648 0.0
H857 H 0.98517 0.86702 0.90785 0.0
H858 H 0.91784 0.79532 0.04865 0.0
H859 H 0.96318 0.91684 0.07027 0.0
H860 H 0.95349 0.84562 0.93701 0.0
H861 H 0.90359 0.88244 0.10592 0.0
C862 C 0.89371 0.84712 0.12758 0.0
C863 C 0.89845 0.82195 0.11627 0.0
C864 C 0.95552 0.86139 0.96584 0.0
C865 C 0.92327 0.85433 0.04518 0.0
C866 C 0.97376 0.87342 0.94984 0.0
C867 C 0.97719 0.8934 0.98768 0.0
C868 C 0.94049 0.86938 0.01999 0.0
C869 C 0.96132 0.90144 0.03992 0.0
C870 C 0.90629 0.86332 0.09284 0.0
C871 C 0.91364 0.81425 0.06168 0.0
N872 N 0.94377 0.88923 0.05498 0.0
N873 N 0.92579 0.8303 0.02936 0.0
H874 H 0.68037 0.13957 0.0532 0.0
H875 H 0.62712 0.0771 0.78844 0.0
H876 H 0.71141 0.08328 0.91701 0.0
H877 H 0.59356 0.1276 0.93687 0.0
H878 H 0.66072 0.09104 0.80815 0.0
H879 H 0.65241 0.14685 0.98563 0.0
C880 C 0.68163 0.1292 0.00817 0.0
C881 C 0.69785 0.11021 0.99193 0.0
C882 C 0.64598 0.09953 0.83537 0.0
C883 C 0.66588 0.11831 0.91476 0.0
C884 C 0.62669 0.09169 0.82378 0.0
C885 C 0.60747 0.10066 0.86251 0.0
C886 C 0.64609 0.11618 0.88664 0.0
C887 C 0.60806 0.11957 0.90748 0.0
C888 C 0.66567 0.13338 0.96958 0.0
C889 C 0.69906 0.09786 0.93209 0.0
N890 N 0.62711 0.12629 0.91947 0.0
N891 N 0.68297 0.1017 0.89654 0.0
H892 H 0.44162 0.65463 0.98656 0.0
H893 H 0.48983 0.51935 0.98108 0.0
H894 H 0.46165 0.61671 0.14983 0.0
H895 H 0.46627 0.55208 0.81686 0.0
H896 H 0.47022 0.55208 0.05099 0.0
H897 H 0.44141 0.61549 0.93128 0.0
C898 C 0.44553 0.63827 0.01156 0.0
C899 C 0.45239 0.63938 0.07242 0.0
C900 C 0.46891 0.552 0.99991 0.0
C901 C 0.45179 0.59453 0.00973 0.0
C902 C 0.48011 0.53328 0.96016 0.0
C903 C 0.4798 0.53335 0.89344 0.0
C904 C 0.45801 0.57142 0.97222 0.0
C905 C 0.46689 0.55158 0.86835 0.0
C906 C 0.44524 0.61589 0.98003 0.0
C907 C 0.45636 0.61736 0.1031 0.0
N908 N 0.45692 0.57033 0.90759 0.0
N909 N 0.45638 0.59601 0.07097 0.0
H910 H 0.89266 0.62987 0.05262 0.0
H911 H 0.90944 0.50387 0.85633 0.0
H912 H 0.8416 0.59294 0.99398 0.0
H913 H 0.95688 0.53437 0.95153 0.0
H914 H 0.8865 0.54198 0.87837 0.0
H915 H 0.9184 0.60178 0.9828 0.0
C916 C 0.8868 0.61642 0.02347 0.0
C917 C 0.86496 0.61318 0.03138 0.0
C918 C 0.90204 0.54036 0.89382 0.0
C919 C 0.89424 0.58093 0.95209 0.0
C920 C 0.91506 0.5186 0.88157 0.0
C921 C 0.93487 0.51575 0.90356 0.0
C922 C 0.90896 0.55941 0.92786 0.0
C923 C 0.94148 0.53552 0.9354 0.0
C924 C 0.90151 0.60028 0.98395 0.0
C925 C 0.85827 0.59594 0.99067 0.0
N926 N 0.9285 0.55642 0.94702 0.0
N927 N 0.87289 0.58 0.95419 0.0
H928 H 0.04716 0.1362 0.08232 0.0
H929 H 0.02996 0.07464 0.74745 0.0
H930 H 0.03569 0.17717 0.91574 0.0
H931 H 0.04691 0.03425 0.91012 0.0
H932 H 0.03418 0.11221 0.805 0.0
H933 H 0.04994 0.09869 0.01684 0.0
C934 C 0.0458 0.13724 0.03133 0.0
C935 C 0.04155 0.15972 1.00394 0.0
C936 C 0.03713 0.09512 0.8279 0.0
C937 C 0.04392 0.11688 0.92902 0.0
C938 C 0.03469 0.07359 0.79507 0.0
C939 C 0.03796 0.05111 0.82393 0.0
C940 C 0.04279 0.09428 0.89036 0.0
C941 C 0.04412 0.05106 0.8858 0.0
C942 C 0.0472 0.11584 0.99405 0.0
C943 C 0.03936 0.16015 0.93818 0.0
N944 N 0.04619 0.07225 0.91694 0.0
N945 N 0.04037 0.13904 0.90305 0.0
H946 H 0.37061 0.98132 0.07373 0.0
H947 H 0.45017 0.99734 0.74255 0.0
H948 H 0.35091 0.02102 0.91406 0.0
H949 H 0.47158 0.98403 0.92617 0.0
H950 H 0.41303 0.99863 0.79716 0.0
H951 H 0.40677 0.97369 0.01183 0.0
C952 C 0.37371 0.98771 0.02478 0.0
C953 C 0.35763 0.00159 0.99879 0.0
C954 C 0.42588 0.99537 0.82539 0.0
C955 C 0.39914 0.99339 0.928 0.0
C956 C 0.44711 0.99464 0.79425 0.0
C957 C 0.46414 0.99082 0.82979 0.0
C958 C 0.42154 0.99176 0.89245 0.0
C959 C 0.45907 0.98731 0.89675 0.0
C960 C 0.39443 0.98368 0.98982 0.0
C961 C 0.36276 0.01003 0.93569 0.0
N962 N 0.43833 0.98778 0.9257 0.0
N963 N 0.38301 0.00587 0.90261 0.0
H964 H 0.46265 0.31983 0.98046 0.0
H965 H 0.53912 0.42426 0.91409 0.0
H966 H 0.52342 0.31805 0.0476 0.0
H967 H 0.49032 0.414 0.79645 0.0
H968 H 0.53354 0.38517 0.96231 0.0
H969 H 0.47273 0.3529 0.90903 0.0
C970 C 0.47843 0.32586 0.97838 0.0
C971 C 0.49232 0.31601 0.01954 0.0
C972 C 0.52412 0.39135 0.92567 0.0
C973 C 0.5036 0.35462 0.9401 0.0
C974 C 0.52717 0.41384 0.89837 0.0
C975 C 0.51498 0.42273 0.85154 0.0
C976 C 0.50852 0.37758 0.90701 0.0
C977 C 0.49998 0.40806 0.83269 0.0
C978 C 0.4841 0.3449 0.9381 0.0
C979 C 0.51238 0.32485 0.01598 0.0
N980 N 0.49699 0.38639 0.861 0.0
N981 N 0.51726 0.34393 0.97803 0.0
H982 H 0.17097 0.46901 0.01329 0.0
H983 H 0.11786 0.49655 0.69389 0.0
H984 H 0.20823 0.48371 0.83081 0.0
H985 H 0.08388 0.4749 0.87533 0.0
H986 H 0.15066 0.49499 0.74284 0.0
H987 H 0.13849 0.47534 0.96448 0.0
C988 C 0.17221 0.47408 0.96306 0.0
C989 C 0.19226 0.47604 0.92615 0.0
C990 C 0.13601 0.49058 0.77182 0.0
C991 C 0.15506 0.4827 0.86892 0.0
C992 C 0.11726 0.49139 0.74387 0.0
C993 C 0.09798 0.48573 0.78033 0.0
C994 C 0.13552 0.48421 0.83688 0.0
C995 C 0.09827 0.47929 0.84499 0.0
C996 C 0.15367 0.47749 0.93496 0.0
C997 C 0.19303 0.48233 0.86106 0.0
N998 N 0.11664 0.47875 0.87098 0.0
N999 N 0.17469 0.48527 0.83428 0.0
H1000 H 0.96189 0.81819 0.56221 0.0
H1001 H 0.05057 0.90378 0.62711 0.0
H1002 H 0.02428 0.80975 0.44558 0.0
H1003 H 0.98336 0.92762 0.64935 0.0
H1004 H 0.04328 0.86507 0.57958 0.0
H1005 H 0.97195 0.85355 0.61674 0.0
C1006 C 0.97781 0.82363 0.54837 0.0
C1007 C 0.99208 0.81121 0.49803 0.0
C1008 C 0.0302 0.87884 0.59495 0.0
C1009 C 1.00379 0.85168 0.56143 0.0
C1010 C 0.0343 0.90087 0.62212 0.0
C1011 C 0.01754 0.91901 0.64194 0.0
C1012 C 1.00913 0.87473 0.58929 0.0
C1013 C 0.99679 0.91427 0.6343 0.0
C1014 C 0.9835 0.84386 0.57957 0.0
C1015 C 0.01273 0.81876 0.48386 0.0
N1016 N 0.99317 0.89257 0.60914 0.0
N1017 N 0.01794 0.83866 0.51508 0.0
H1018 H 0.69276 0.02 0.50178 0.0
H1019 H 0.59148 0.94404 0.59033 0.0
H1020 H 0.68758 0.95221 0.40511 0.0
H1021 H 0.60016 0.01069 0.68788 0.0
H1022 H 0.62739 0.94449 0.52753 0.0
H1023 H 0.66029 0.01443 0.57665 0.0
C1024 C 0.68501 0.00361 0.49739 0.0
C1025 C 0.69304 0.98642 0.44757 0.0
C1026 C 0.62147 0.9589 0.56306 0.0
C1027 C 0.65517 0.98019 0.5322 0.0
C1028 C 0.60093 0.95866 0.59904 0.0
C1029 C 0.59257 0.97741 0.64454 0.0
C1030 C 0.63382 0.97804 0.57247 0.0
C1031 C 0.6057 0.99586 0.65335 0.0
C1032 C 0.66632 1.0005 0.53985 0.0
C1033 C 0.68212 0.96571 0.44345 0.0
N1034 N 0.62547 0.99573 0.61765 0.0
N1035 N 0.66362 0.96329 0.48467 0.0
H1036 H 0.50839 0.6741 0.54476 0.0
H1037 H 0.56789 0.55652 0.68079 0.0
H1038 H 0.57331 0.64713 0.47178 0.0
H1039 H 0.49952 0.57107 0.69678 0.0
H1040 H 0.57197 0.5955 0.62854 0.0
H1041 H 0.50733 0.64325 0.62767 0.0
C1042 C 0.52278 0.66248 0.54837 0.0
C1043 C 0.54104 0.66335 0.50191 0.0
C1044 C 0.55609 0.59024 0.64421 0.0
C1045 C 0.53974 0.62739 0.5949 0.0
C1046 C 0.55373 0.568 0.67409 0.0
C1047 C 0.53332 0.56031 0.69251 0.0
C1048 C 0.53792 0.60512 0.63357 0.0
C1049 C 0.51557 0.57604 0.68258 0.0
C1050 C 0.52205 0.64455 0.59485 0.0
C1051 C 0.55904 0.64728 0.50738 0.0
N1052 N 0.51828 0.59759 0.6537 0.0
N1053 N 0.55786 0.62974 0.55235 0.0
H1054 H 0.88812 0.50746 0.47696 0.0
H1055 H 0.97786 0.55131 0.66392 0.0
H1056 H 0.87943 0.5734 0.59388 0.0
H1057 H 0.9744 0.47525 0.62641 0.0
H1058 H 0.94272 0.55999 0.6309 0.0
H1059 H 0.91994 0.49462 0.52648 0.0
C1060 C 0.89254 0.51895 0.51414 0.0
C1061 C 0.8812 0.54171 0.53051 0.0
C1062 C 0.94959 0.54137 0.63012 0.0
C1063 C 0.91793 0.52752 0.58569 0.0
C1064 C 0.96975 0.53642 0.64857 0.0
C1065 C 0.9792 0.51253 0.64764 0.0
C1066 C 0.93887 0.52237 0.60919 0.0
C1067 C 0.96775 0.49396 0.62781 0.0
C1068 C 0.91083 0.51172 0.54192 0.0
C1069 C 0.88789 0.55593 0.57865 0.0
N1070 N 0.94833 0.49927 0.60865 0.0
N1071 N 0.90593 0.54884 0.6035 0.0
loop_
_geom_bond_atom_site_label_1
_geom_bond_atom_site_label_2
_geom_bond_distance
_geom_bond_site_symmetry_2
_ccdc_geom_bond_type
C0 C1 1.391 . S
C0 C4 1.391 . S
C0 H42 0.948 . S
C1 C0 1.391 . S
C1 C2 1.391 . S
C2 C1 1.391 . S
C2 H58 0.947 . S
C2 C59 1.392 . S
C3 C4 1.391 . S
C3 C7 1.397 . S
C3 C59 1.419 . S
C4 C0 1.391 . S
C4 C3 1.391 . S
C4 C5 1.399 . S
C5 C4 1.399 . S
C5 C8 1.396 . S
C5 C17 1.453 . S
C5 C18 1.684 . S
H6 C30 0.948 . S
C7 C3 1.397 . S
C7 C8 1.394 . S
C7 C26 1.723 . S
C8 C5 1.396 . S
C8 C7 1.394 . S
C8 C38 1.723 . S
H9 C32 0.947 . S
H10 C33 0.948 . S
H11 C39 0.982 . S
H12 C40 0.979 . S
H13 C40 0.980 . S
H14 C40 0.983 . S
H15 C39 0.979 . S
H16 C39 0.977 . S
C17 C5 1.453 . S
C17 H46 0.982 . S
C17 H47 0.979 . S
C17 H48 0.977 . S
C18 C5 1.684 . S
C18 H43 0.979 . S
C18 H44 0.980 . S
C18 H45 0.983 . S
C19 C20 1.391 . S
C19 C24 1.391 . S
C19 H49 0.948 . S
C20 C19 1.391 . S
C20 C21 1.391 . S
C21 C20 1.391 . S
C21 C22 1.392 . S
C21 H50 0.947 . S
C22 C21 1.392 . S
C22 C23 1.419 . S
C22 H51 0.948 . S
C23 C22 1.419 . S
C23 C24 1.391 . S
C23 C27 1.397 . S
C24 C19 1.391 . S
C24 C23 1.391 . S
C24 C25 1.399 . S
C25 C24 1.399 . S
C25 C26 1.396 . S
C25 C28 1.453 . S
C25 C29 1.684 . S
C26 C7 1.723 . S
C26 C25 1.396 . S
C26 C27 1.394 . S
C27 C23 1.397 . S
C27 C26 1.394 . S
C27 C37 1.723 . S
C28 C25 1.453 . S
C28 H52 0.982 . S
C28 H53 0.979 . S
C28 H54 0.977 . S
C29 C25 1.684 . S
C29 H55 0.979 . S
C29 H56 0.980 . S
C29 H57 0.983 . S
C30 H6 0.948 . S
C30 C31 1.391 . S
C30 C35 1.391 . S
C31 C30 1.391 . S
C31 C32 1.391 . S
C32 H9 0.947 . S
C32 C31 1.391 . S
C32 C33 1.392 . S
C33 H10 0.948 . S
C33 C32 1.392 . S
C33 C34 1.419 . S
C34 C33 1.419 . S
C34 C35 1.391 . S
C34 C38 1.397 . S
C35 C30 1.391 . S
C35 C34 1.391 . S
C35 C36 1.399 . S
C36 C35 1.399 . S
C36 C37 1.396 . S
C36 C39 1.453 . S
C36 C40 1.684 . S
C37 C27 1.723 . S
C37 C36 1.396 . S
C37 C38 1.394 . S
C38 C8 1.723 . S
C38 C34 1.397 . S
C38 C37 1.394 . S
C39 H11 0.982 . S
C39 H15 0.979 . S
C39 H16 0.977 . S
C39 C36 1.453 . S
C40 H12 0.979 . S
C40 H13 0.980 . S
C40 H14 0.983 . S
C40 C36 1.684 . S
H41 C59 0.948 . S
H42 C0 0.948 . S
H43 C18 0.979 . S
H44 C18 0.980 . S
H45 C18 0.983 . S
H46 C17 0.982 . S
H47 C17 0.979 . S
H48 C17 0.977 . S
H49 C19 0.948 . S
H50 C21 0.947 . S
H51 C22 0.948 . S
H52 C28 0.982 . S
H53 C28 0.979 . S
H54 C28 0.977 . S
H55 C29 0.979 . S
H56 C29 0.980 . S
H57 C29 0.983 . S
H58 C2 0.947 . S
C59 C2 1.392 . S
C59 C3 1.419 . S
C59 H41 0.948 . S
C60 C61 1.391 . S
C60 C64 1.391 . S
C60 H102 0.948 . S
C61 C60 1.391 . S
C61 C62 1.391 . S
C62 C61 1.391 . S
C62 H118 0.947 . S
C62 C119 1.392 . S
C63 C64 1.391 . S
C63 C67 1.397 . S
C63 C119 1.419 . S
C64 C60 1.391 . S
C64 C63 1.391 . S
C64 C65 1.399 . S
C65 C64 1.399 . S
C65 C68 1.396 . S
C65 C77 1.453 1_655 S
C65 C78 1.684 . S
H66 C90 0.948 . S
C67 C63 1.397 . S
C67 C68 1.394 . S
C67 C86 1.723 . S
C68 C65 1.396 . S
C68 C67 1.394 . S
C68 C98 1.723 . S
H69 C92 0.947 . S
H70 C93 0.948 . S
H71 C99 0.982 . S
H72 C100 0.979 . S
H73 C100 0.980 . S
H74 C100 0.983 . S
H75 C99 0.979 . S
H76 C99 0.977 . S
C77 C65 1.453 1_455 S
C77 H106 0.982 . S
C77 H107 0.979 . S
C77 H108 0.977 . S
C78 C65 1.684 . S
C78 H103 0.979 . S
C78 H104 0.980 . S
C78 H105 0.983 . S
C79 C80 1.391 . S
C79 C84 1.391 . S
C79 H109 0.948 . S
C80 C79 1.391 . S
C80 C81 1.391 . S
C81 C80 1.391 . S
C81 C82 1.392 . S
C81 H110 0.947 . S
C82 C81 1.392 . S
C82 C83 1.419 . S
C82 H111 0.948 . S
C83 C82 1.419 . S
C83 C84 1.391 . S
C83 C87 1.397 . S
C84 C79 1.391 . S
C84 C83 1.391 . S
C84 C85 1.399 . S
C85 C84 1.399 . S
C85 C86 1.396 . S
C85 C88 1.453 1_655 S
C85 C89 1.684 . S
C86 C67 1.723 . S
C86 C85 1.396 . S
C86 C87 1.394 . S
C87 C83 1.397 . S
C87 C86 1.394 . S
C87 C97 1.723 . S
C88 C85 1.453 1_455 S
C88 H112 0.982 . S
C88 H113 0.979 . S
C88 H114 0.977 . S
C89 C85 1.684 . S
C89 H115 0.979 . S
C89 H116 0.980 . S
C89 H117 0.983 . S
C90 H66 0.948 . S
C90 C91 1.391 . S
C90 C95 1.391 . S
C91 C90 1.391 . S
C91 C92 1.391 . S
C92 H69 0.947 . S
C92 C91 1.391 . S
C92 C93 1.392 . S
C93 H70 0.948 . S
C93 C92 1.392 . S
C93 C94 1.419 . S
C94 C93 1.419 . S
C94 C95 1.391 . S
C94 C98 1.397 . S
C95 C90 1.391 . S
C95 C94 1.391 . S
C95 C96 1.399 . S
C96 C95 1.399 . S
C96 C97 1.396 . S
C96 C99 1.453 1_655 S
C96 C100 1.684 . S
C97 C87 1.723 . S
C97 C96 1.396 . S
C97 C98 1.394 . S
C98 C68 1.723 . S
C98 C94 1.397 . S
C98 C97 1.394 . S
C99 H71 0.982 . S
C99 H75 0.979 . S
C99 H76 0.977 . S
C99 C96 1.453 1_455 S
C100 H72 0.979 . S
C100 H73 0.980 . S
C100 H74 0.983 . S
C100 C96 1.684 . S
H101 C119 0.948 . S
H102 C60 0.948 . S
H103 C78 0.979 . S
H104 C78 0.980 . S
H105 C78 0.983 . S
H106 C77 0.982 . S
H107 C77 0.979 . S
H108 C77 0.977 . S
H109 C79 0.948 . S
H110 C81 0.947 . S
H111 C82 0.948 . S
H112 C88 0.982 . S
H113 C88 0.979 . S
H114 C88 0.977 . S
H115 C89 0.979 . S
H116 C89 0.980 . S
H117 C89 0.983 . S
H118 C62 0.947 . S
C119 C62 1.392 . S
C119 C63 1.419 . S
C119 H101 0.948 . S
C120 C121 1.391 . S
C120 C124 1.391 . S
C120 H162 0.948 . S
C121 C120 1.391 . S
C121 C122 1.391 . S
C122 C121 1.391 . S
C122 H178 0.947 . S
C122 C179 1.392 . S
C123 C124 1.391 . S
C123 C127 1.397 1_565 S
C123 C179 1.419 . S
C124 C120 1.391 . S
C124 C123 1.391 . S
C124 C125 1.399 . S
C125 C124 1.399 . S
C125 C128 1.396 1_565 S
C125 C137 1.453 1_565 S
C125 C138 1.684 . S
H126 C150 0.948 . S
C127 C123 1.397 1_545 S
C127 C128 1.394 . S
C127 C146 1.723 . S
C128 C125 1.396 1_545 S
C128 C127 1.394 . S
C128 C158 1.722 . S
H129 C152 0.947 . S
H130 C153 0.948 . S
H131 C159 0.982 . S
H132 C160 0.979 . S
H133 C160 0.980 . S
H134 C160 0.983 . S
H135 C159 0.979 . S
H136 C159 0.977 . S
C137 C125 1.453 1_545 S
C137 H166 0.982 . S
C137 H167 0.979 . S
C137 H168 0.977 . S
C138 C125 1.684 . S
C138 H163 0.979 . S
C138 H164 0.980 . S
C138 H165 0.983 . S
C139 C140 1.391 . S
C139 C144 1.391 . S
C139 H169 0.948 . S
C140 C139 1.391 . S
C140 C141 1.391 . S
C141 C140 1.391 . S
C141 C142 1.392 . S
C141 H170 0.947 . S
C142 C141 1.392 . S
C142 C143 1.419 . S
C142 H171 0.948 . S
C143 C142 1.419 . S
C143 C144 1.391 . S
C143 C147 1.397 1_565 S
C144 C139 1.391 . S
C144 C143 1.391 . S
C144 C145 1.399 . S
C145 C144 1.399 . S
C145 C146 1.396 1_565 S
C145 C148 1.453 1_565 S
C145 C149 1.684 . S
C146 C127 1.723 . S
C146 C145 1.396 1_545 S
C146 C147 1.394 . S
C147 C143 1.397 1_545 S
C147 C146 1.394 . S
C147 C157 1.723 . S
C148 C145 1.453 1_545 S
C148 H172 0.982 . S
C148 H173 0.979 . S
C148 H174 0.977 . S
C149 C145 1.684 . S
C149 H175 0.979 . S
C149 H176 0.980 . S
C149 H177 0.983 . S
C150 H126 0.948 . S
C150 C151 1.391 . S
C150 C155 1.391 . S
C151 C150 1.391 . S
C151 C152 1.391 . S
C152 H129 0.947 . S
C152 C151 1.391 . S
C152 C153 1.392 . S
C153 H130 0.948 . S
C153 C152 1.392 . S
C153 C154 1.419 . S
C154 C153 1.419 . S
C154 C155 1.391 . S
C154 C158 1.397 1_565 S
C155 C150 1.391 . S
C155 C154 1.391 . S
C155 C156 1.399 . S
C156 C155 1.399 . S
C156 C157 1.396 1_565 S
C156 C159 1.453 1_565 S
C156 C160 1.684 . S
C157 C147 1.723 . S
C157 C156 1.396 1_545 S
C157 C158 1.394 . S
C158 C128 1.722 . S
C158 C154 1.397 1_545 S
C158 C157 1.394 . S
C159 H131 0.982 . S
C159 H135 0.979 . S
C159 H136 0.977 . S
C159 C156 1.453 1_545 S
C160 H132 0.979 . S
C160 H133 0.980 . S
C160 H134 0.983 . S
C160 C156 1.684 . S
H161 C179 0.948 . S
H162 C120 0.948 . S
H163 C138 0.979 . S
H164 C138 0.980 . S
H165 C138 0.983 . S
H166 C137 0.982 . S
H167 C137 0.979 . S
H168 C137 0.977 . S
H169 C139 0.948 . S
H170 C141 0.947 . S
H171 C142 0.948 . S
H172 C148 0.982 . S
H173 C148 0.979 . S
H174 C148 0.977 . S
H175 C149 0.979 . S
H176 C149 0.980 . S
H177 C149 0.983 . S
H178 C122 0.947 . S
C179 C122 1.392 . S
C179 C123 1.419 . S
C179 H161 0.948 . S
C180 C181 1.391 . S
C180 C184 1.391 . S
C180 H222 0.948 . S
C181 C180 1.391 . S
C181 C182 1.391 . S
C182 C181 1.391 . S
C182 H238 0.947 . S
C182 C239 1.392 . S
C183 C184 1.391 . S
C183 C187 1.397 . S
C183 C239 1.419 . S
C184 C180 1.391 . S
C184 C183 1.391 . S
C184 C185 1.399 . S
C185 C184 1.399 . S
C185 C188 1.396 . S
C185 C197 1.453 . S
C185 C198 1.684 . S
H186 C210 0.948 1_556 S
C187 C183 1.397 . S
C187 C188 1.394 . S
C187 C206 1.723 . S
C188 C185 1.396 . S
C188 C187 1.394 . S
C188 C218 1.723 . S
H189 C212 0.947 . S
H190 C213 0.948 . S
H191 C219 0.982 . S
H192 C220 0.979 . S
H193 C220 0.980 . S
H194 C220 0.983 . S
H195 C219 0.979 . S
H196 C219 0.977 . S
C197 C185 1.453 . S
C197 H226 0.982 . S
C197 H227 0.979 . S
C197 H228 0.977 . S
C198 C185 1.684 . S
C198 H223 0.979 . S
C198 H224 0.980 . S
C198 H225 0.983 . S
C199 C200 1.391 . S
C199 C204 1.391 1_556 S
C199 H229 0.948 . S
C200 C199 1.391 . S
C200 C201 1.391 . S
C201 C200 1.391 . S
C201 C202 1.392 . S
C201 H230 0.947 . S
C202 C201 1.392 . S
C202 C203 1.419 1_556 S
C202 H231 0.948 . S
C203 C202 1.419 1_554 S
C203 C204 1.391 . S
C203 C207 1.397 . S
C204 C199 1.391 1_554 S
C204 C203 1.391 . S
C204 C205 1.399 . S
C205 C204 1.399 . S
C205 C206 1.396 . S
C205 C208 1.453 . S
C205 C209 1.684 . S
C206 C187 1.723 . S
C206 C205 1.396 . S
C206 C207 1.394 . S
C207 C203 1.397 . S
C207 C206 1.394 . S
C207 C217 1.723 . S
C208 C205 1.453 . S
C208 H232 0.982 . S
C208 H233 0.979 . S
C208 H234 0.977 . S
C209 C205 1.684 . S
C209 H235 0.979 . S
C209 H236 0.980 . S
C209 H237 0.983 . S
C210 H186 0.948 1_554 S
C210 C211 1.391 . S
C210 C215 1.391 . S
C211 C210 1.391 . S
C211 C212 1.391 . S
C212 H189 0.947 . S
C212 C211 1.391 . S
C212 C213 1.392 . S
C213 H190 0.948 . S
C213 C212 1.392 . S
C213 C214 1.419 . S
C214 C213 1.419 . S
C214 C215 1.391 . S
C214 C218 1.397 . S
C215 C210 1.391 . S
C215 C214 1.391 . S
C215 C216 1.399 . S
C216 C215 1.399 . S
C216 C217 1.396 . S
C216 C219 1.453 1_554 S
C216 C220 1.684 1_554 S
C217 C207 1.723 . S
C217 C216 1.396 . S
C217 C218 1.394 . S
C218 C188 1.723 . S
C218 C214 1.397 . S
C218 C217 1.394 . S
C219 H191 0.982 . S
C219 H195 0.979 . S
C219 H196 0.977 . S
C219 C216 1.453 1_556 S
C220 H192 0.979 . S
C220 H193 0.980 . S
C220 H194 0.983 . S
C220 C216 1.684 1_556 S
H221 C239 0.948 . S
H222 C180 0.948 . S
H223 C198 0.979 . S
H224 C198 0.980 . S
H225 C198 0.983 . S
H226 C197 0.982 . S
H227 C197 0.979 . S
H228 C197 0.977 . S
H229 C199 0.948 . S
H230 C201 0.947 . S
H231 C202 0.948 . S
H232 C208 0.982 . S
H233 C208 0.979 . S
H234 C208 0.977 . S
H235 C209 0.979 . S
H236 C209 0.980 . S
H237 C209 0.983 . S
H238 C182 0.947 . S
C239 C182 1.392 . S
C239 C183 1.419 . S
C239 H221 0.948 . S
C240 C241 1.391 1_556 S
C240 C244 1.391 . S
C240 H282 0.948 . S
C241 C240 1.391 1_554 S
C241 C242 1.391 . S
C242 C241 1.391 . S
C242 H298 0.947 . S
C242 C299 1.392 . S
C243 C244 1.391 1_554 S
C243 C247 1.397 . S
C243 C299 1.419 . S
C244 C240 1.391 . S
C244 C243 1.391 1_556 S
C244 C245 1.399 . S
C245 C244 1.399 . S
C245 C248 1.396 . S
C245 C257 1.453 . S
C245 C258 1.684 . S
H246 C270 0.948 . S
C247 C243 1.397 . S
C247 C248 1.394 1_554 S
C247 C266 1.723 . S
C248 C245 1.396 . S
C248 C247 1.394 1_556 S
C248 C278 1.723 . S
H249 C272 0.947 . S
H250 C273 0.948 . S
H251 C279 0.982 . S
H252 C280 0.979 . S
H253 C280 0.980 . S
H254 C280 0.983 . S
H255 C279 0.979 . S
H256 C279 0.977 . S
C257 C245 1.453 . S
C257 H286 0.982 . S
C257 H287 0.979 . S
C257 H288 0.977 . S
C258 C245 1.684 . S
C258 H283 0.979 . S
C258 H284 0.980 . S
C258 H285 0.983 . S
C259 C260 1.391 . S
C259 C264 1.391 . S
C259 H289 0.948 . S
C260 C259 1.391 . S
C260 C261 1.391 . S
C261 C260 1.391 . S
C261 C262 1.392 . S
C261 H290 0.947 . S
C262 C261 1.392 . S
C262 C263 1.419 . S
C262 H291 0.948 . S
C263 C262 1.419 . S
C263 C264 1.391 . S
C263 C267 1.397 . S
C264 C259 1.391 . S
C264 C263 1.391 . S
C264 C265 1.399 . S
C265 C264 1.399 . S
C265 C266 1.396 . S
C265 C268 1.453 . S
C265 C269 1.684 . S
C266 C247 1.723 . S
C266 C265 1.396 . S
C266 C267 1.394 . S
C267 C263 1.397 . S
C267 C266 1.394 . S
C267 C277 1.723 1_554 S
C268 C265 1.453 . S
C268 H292 0.982 . S
C268 H293 0.979 . S
C268 H294 0.977 . S
C269 C265 1.684 . S
C269 H295 0.979 . S
C269 H296 0.980 . S
C269 H297 0.983 . S
C270 H246 0.948 . S
C270 C271 1.391 . S
C270 C275 1.391 . S
C271 C270 1.391 . S
C271 C272 1.391 . S
C272 H249 0.947 . S
C272 C271 1.391 . S
C272 C273 1.392 . S
C273 H250 0.948 . S
C273 C272 1.392 . S
C273 C274 1.419 . S
C274 C273 1.419 . S
C274 C275 1.391 . S
C274 C278 1.397 . S
C275 C270 1.391 . S
C275 C274 1.391 . S
C275 C276 1.399 . S
C276 C275 1.399 . S
C276 C277 1.396 . S
C276 C279 1.453 . S
C276 C280 1.684 . S
C277 C267 1.723 1_556 S
C277 C276 1.396 . S
C277 C278 1.394 . S
C278 C248 1.723 . S
C278 C274 1.397 . S
C278 C277 1.394 . S
C279 H251 0.982 . S
C279 H255 0.979 . S
C279 H256 0.977 . S
C279 C276 1.453 . S
C280 H252 0.979 . S
C280 H253 0.980 . S
C280 H254 0.983 . S
C280 C276 1.684 . S
H281 C299 0.948 . S
H282 C240 0.948 . S
H283 C258 0.979 . S
H284 C258 0.980 . S
H285 C258 0.983 . S
H286 C257 0.982 . S
H287 C257 0.979 . S
H288 C257 0.977 . S
H289 C259 0.948 . S
H290 C261 0.947 . S
H291 C262 0.948 . S
H292 C268 0.982 . S
H293 C268 0.979 . S
H294 C268 0.977 . S
H295 C269 0.979 . S
H296 C269 0.980 . S
H297 C269 0.983 . S
H298 C242 0.947 . S
C299 C242 1.392 . S
C299 C243 1.419 . S
C299 H281 0.948 . S
C300 C301 1.391 . S
C300 C304 1.391 . S
C300 H342 0.948 . S
C301 C300 1.391 . S
C301 C302 1.391 . S
C302 C301 1.391 . S
C302 H358 0.947 . S
C302 C359 1.392 . S
C303 C304 1.391 . S
C303 C307 1.397 . S
C303 C359 1.419 . S
C304 C300 1.391 . S
C304 C303 1.391 . S
C304 C305 1.399 . S
C305 C304 1.399 . S
C305 C308 1.396 . S
C305 C317 1.453 . S
C305 C318 1.684 1_455 S
H306 C330 0.948 . S
C307 C303 1.397 . S
C307 C308 1.394 . S
C307 C326 1.723 . S
C308 C305 1.396 . S
C308 C307 1.394 . S
C308 C338 1.723 . S
H309 C332 0.947 . S
H310 C333 0.948 . S
H311 C339 0.982 . S
H312 C340 0.979 . S
H313 C340 0.980 1_556 S
H314 C340 0.983 . S
H315 C339 0.979 . S
H316 C339 0.977 1_556 S
C317 C305 1.453 . S
C317 H346 0.982 . S
C317 H347 0.979 . S
C317 H348 0.977 . S
C318 C305 1.684 1_655 S
C318 H343 0.979 . S
C318 H344 0.980 . S
C318 H345 0.983 . S
C319 C320 1.391 . S
C319 C324 1.391 . S
C319 H349 0.948 . S
C320 C319 1.391 . S
C320 C321 1.391 . S
C321 C320 1.391 . S
C321 C322 1.392 . S
C321 H350 0.947 . S
C322 C321 1.392 . S
C322 C323 1.419 . S
C322 H351 0.948 . S
C323 C322 1.419 . S
C323 C324 1.391 . S
C323 C327 1.397 1_556 S
C324 C319 1.391 . S
C324 C323 1.391 . S
C324 C325 1.399 1_556 S
C325 C324 1.399 1_554 S
C325 C326 1.396 . S
C325 C328 1.453 . S
C325 C329 1.684 1_455 S
C326 C307 1.723 . S
C326 C325 1.396 . S
C326 C327 1.394 . S
C327 C323 1.397 1_554 S
C327 C326 1.394 . S
C327 C337 1.723 . S
C328 C325 1.453 . S
C328 H352 0.982 . S
C328 H353 0.979 . S
C328 H354 0.977 . S
C329 C325 1.684 1_655 S
C329 H355 0.979 . S
C329 H356 0.980 . S
C329 H357 0.983 . S
C330 H306 0.948 . S
C330 C331 1.391 . S
C330 C335 1.391 . S
C331 C330 1.391 . S
C331 C332 1.391 . S
C332 H309 0.947 . S
C332 C331 1.391 . S
C332 C333 1.392 . S
C333 H310 0.948 . S
C333 C332 1.392 . S
C333 C334 1.419 . S
C334 C333 1.419 . S
C334 C335 1.391 . S
C334 C338 1.397 . S
C335 C330 1.391 . S
C335 C334 1.391 . S
C335 C336 1.399 . S
C336 C335 1.399 . S
C336 C337 1.396 . S
C336 C339 1.453 . S
C336 C340 1.684 1_455 S
C337 C327 1.723 . S
C337 C336 1.396 . S
C337 C338 1.394 . S
C338 C308 1.723 . S
C338 C334 1.397 . S
C338 C337 1.394 . S
C339 H311 0.982 . S
C339 H315 0.979 . S
C339 H316 0.977 1_554 S
C339 C336 1.453 . S
C340 H312 0.979 . S
C340 H313 0.980 1_554 S
C340 H314 0.983 . S
C340 C336 1.684 1_655 S
H341 C359 0.948 . S
H342 C300 0.948 . S
H343 C318 0.979 . S
H344 C318 0.980 . S
H345 C318 0.983 . S
H346 C317 0.982 . S
H347 C317 0.979 . S
H348 C317 0.977 . S
H349 C319 0.948 . S
H350 C321 0.947 . S
H351 C322 0.948 . S
H352 C328 0.982 . S
H353 C328 0.979 . S
H354 C328 0.977 . S
H355 C329 0.979 . S
H356 C329 0.980 . S
H357 C329 0.983 . S
H358 C302 0.947 . S
C359 C302 1.392 . S
C359 C303 1.419 . S
C359 H341 0.948 . S
C360 C361 1.391 . S
C360 C364 1.391 1_556 S
C360 H402 0.948 . S
C361 C360 1.391 . S
C361 C362 1.391 . S
C362 C361 1.391 . S
C362 H418 0.947 . S
C362 C419 1.392 1_556 S
C363 C364 1.391 . S
C363 C367 1.397 1_545 S
C363 C419 1.419 . S
C364 C360 1.391 1_554 S
C364 C363 1.391 . S
C364 C365 1.399 . S
C365 C364 1.399 . S
C365 C368 1.396 1_545 S
C365 C377 1.453 1_545 S
C365 C378 1.684 . S
H366 C390 0.948 . S
C367 C363 1.397 1_565 S
C367 C368 1.394 . S
C367 C386 1.723 . S
C368 C365 1.396 1_565 S
C368 C367 1.394 . S
C368 C398 1.723 . S
H369 C392 0.947 . S
H370 C393 0.948 . S
H371 C399 0.982 . S
H372 C400 0.979 . S
H373 C400 0.980 . S
H374 C400 0.983 . S
H375 C399 0.979 . S
H376 C399 0.977 . S
C377 C365 1.453 1_565 S
C377 H406 0.982 . S
C377 H407 0.979 1_554 S
C377 H408 0.977 . S
C378 C365 1.684 . S
C378 H403 0.979 . S
C378 H404 0.980 . S
C378 H405 0.983 1_554 S
C379 C380 1.391 . S
C379 C384 1.391 . S
C379 H409 0.948 . S
C380 C379 1.391 . S
C380 C381 1.391 . S
C381 C380 1.391 . S
C381 C382 1.392 . S
C381 H410 0.947 . S
C382 C381 1.392 . S
C382 C383 1.419 . S
C382 H411 0.948 . S
C383 C382 1.419 . S
C383 C384 1.391 . S
C383 C387 1.397 1_545 S
C384 C379 1.391 . S
C384 C383 1.391 . S
C384 C385 1.399 . S
C385 C384 1.399 . S
C385 C386 1.396 1_545 S
C385 C388 1.453 1_545 S
C385 C389 1.684 . S
C386 C367 1.723 . S
C386 C385 1.396 1_565 S
C386 C387 1.394 . S
C387 C383 1.397 1_565 S
C387 C386 1.394 . S
C387 C397 1.722 . S
C388 C385 1.453 1_565 S
C388 H412 0.982 . S
C388 H413 0.979 . S
C388 H414 0.977 . S
C389 C385 1.684 . S
C389 H415 0.979 . S
C389 H416 0.980 . S
C389 H417 0.983 . S
C390 H366 0.948 . S
C390 C391 1.391 . S
C390 C395 1.391 . S
C391 C390 1.391 . S
C391 C392 1.391 . S
C392 H369 0.947 . S
C392 C391 1.391 . S
C392 C393 1.392 . S
C393 H370 0.948 . S
C393 C392 1.392 . S
C393 C394 1.419 . S
C394 C393 1.419 . S
C394 C395 1.391 . S
C394 C398 1.397 1_545 S
C395 C390 1.391 . S
C395 C394 1.391 . S
C395 C396 1.399 . S
C396 C395 1.399 . S
C396 C397 1.396 1_545 S
C396 C399 1.453 1_545 S
C396 C400 1.684 . S
C397 C387 1.722 . S
C397 C396 1.396 1_565 S
C397 C398 1.394 . S
C398 C368 1.723 . S
C398 C394 1.397 1_565 S
C398 C397 1.394 . S
C399 H371 0.982 . S
C399 H375 0.979 . S
C399 H376 0.977 . S
C399 C396 1.453 1_565 S
C400 H372 0.979 . S
C400 H373 0.980 . S
C400 H374 0.983 . S
C400 C396 1.684 . S
H401 C419 0.948 . S
H402 C360 0.948 . S
H403 C378 0.979 . S
H404 C378 0.980 . S
H405 C378 0.983 1_556 S
H406 C377 0.982 . S
H407 C377 0.979 1_556 S
H408 C377 0.977 . S
H409 C379 0.948 . S
H410 C381 0.947 . S
H411 C382 0.948 . S
H412 C388 0.982 . S
H413 C388 0.979 . S
H414 C388 0.977 . S
H415 C389 0.979 . S
H416 C389 0.980 . S
H417 C389 0.983 . S
H418 C362 0.947 . S
C419 C362 1.392 1_554 S
C419 C363 1.419 . S
C419 H401 0.948 . S
C420 C421 1.391 . S
C420 C424 1.391 . S
C420 H462 0.948 . S
C421 C420 1.391 . S
C421 C422 1.391 . S
C422 C421 1.391 . S
C422 H478 0.947 . S
C422 C479 1.392 . S
C423 C424 1.391 . S
C423 C427 1.397 . S
C423 C479 1.419 . S
C424 C420 1.391 . S
C424 C423 1.391 . S
C424 C425 1.399 . S
C425 C424 1.399 . S
C425 C428 1.396 . S
C425 C437 1.453 . S
C425 C438 1.684 . S
H426 C450 0.948 . S
C427 C423 1.397 . S
C427 C428 1.394 . S
C427 C446 1.723 . S
C428 C425 1.396 . S
C428 C427 1.394 . S
C428 C458 1.723 . S
H429 C452 0.947 . S
H430 C453 0.948 . S
H431 C459 0.982 . S
H432 C460 0.979 . S
H433 C460 0.980 . S
H434 C460 0.983 . S
H435 C459 0.979 . S
H436 C459 0.977 . S
C437 C425 1.453 . S
C437 H466 0.982 . S
C437 H467 0.979 . S
C437 H468 0.977 . S
C438 C425 1.684 . S
C438 H463 0.979 . S
C438 H464 0.980 . S
C438 H465 0.983 . S
C439 C440 1.391 . S
C439 C444 1.391 . S
C439 H469 0.948 . S
C440 C439 1.391 . S
C440 C441 1.391 . S
C441 C440 1.391 . S
C441 C442 1.392 . S
C441 H470 0.947 . S
C442 C441 1.392 . S
C442 C443 1.419 . S
C442 H471 0.948 . S
C443 C442 1.419 . S
C443 C444 1.391 . S
C443 C447 1.397 . S
C444 C439 1.391 . S
C444 C443 1.391 . S
C444 C445 1.399 . S
C445 C444 1.399 . S
C445 C446 1.396 . S
C445 C448 1.453 . S
C445 C449 1.684 . S
C446 C427 1.723 . S
C446 C445 1.396 . S
C446 C447 1.394 . S
C447 C443 1.397 . S
C447 C446 1.394 . S
C447 C457 1.723 . S
C448 C445 1.453 . S
C448 H472 0.982 . S
C448 H473 0.979 . S
C448 H474 0.977 . S
C449 C445 1.684 . S
C449 H475 0.979 . S
C449 H476 0.980 . S
C449 H477 0.983 . S
C450 H426 0.948 . S
C450 C451 1.391 . S
C450 C455 1.391 . S
C451 C450 1.391 . S
C451 C452 1.391 . S
C452 H429 0.947 . S
C452 C451 1.391 . S
C452 C453 1.392 . S
C453 H430 0.948 . S
C453 C452 1.392 . S
C453 C454 1.419 . S
C454 C453 1.419 . S
C454 C455 1.391 . S
C454 C458 1.397 . S
C455 C450 1.391 . S
C455 C454 1.391 . S
C455 C456 1.399 . S
C456 C455 1.399 . S
C456 C457 1.396 . S
C456 C459 1.453 . S
C456 C460 1.684 . S
C457 C447 1.723 . S
C457 C456 1.396 . S
C457 C458 1.394 . S
C458 C428 1.723 . S
C458 C454 1.397 . S
C458 C457 1.394 . S
C459 H431 0.982 . S
C459 H435 0.979 . S
C459 H436 0.977 . S
C459 C456 1.453 . S
C460 H432 0.979 . S
C460 H433 0.980 . S
C460 H434 0.983 . S
C460 C456 1.684 . S
H461 C479 0.948 . S
H462 C420 0.948 . S
H463 C438 0.979 . S
H464 C438 0.980 . S
H465 C438 0.983 . S
H466 C437 0.982 . S
H467 C437 0.979 . S
H468 C437 0.977 . S
H469 C439 0.948 . S
H470 C441 0.947 . S
H471 C442 0.948 . S
H472 C448 0.982 . S
H473 C448 0.979 . S
H474 C448 0.977 . S
H475 C449 0.979 . S
H476 C449 0.980 . S
H477 C449 0.983 . S
H478 C422 0.947 . S
C479 C422 1.392 . S
C479 C423 1.419 . S
C479 H461 0.948 . S
Dy480 O483 2.307 1_545 S
Dy480 O485 2.395 1_655 S
Dy480 O486 2.379 . S
Dy480 O488 2.339 . S
Dy480 O490 2.298 . S
Dy480 O494 2.275 1_655 S
Dy480 C502 2.738 . S
Dy481 O484 2.298 . S
Dy481 O487 2.275 1_455 S
Dy481 O489 2.307 1_565 S
Dy481 O491 2.416 . S
Dy481 O492 2.379 . S
Dy481 O495 2.339 . S
Dy481 C511 2.738 . S
C482 O494 1.254 1_565 S
C482 O495 1.257 . S
O483 Dy480 2.307 1_565 S
O483 C493 1.266 . S
O484 Dy481 2.298 . S
O484 C493 1.236 1_455 S
O485 Dy480 2.395 1_455 S
O485 C502 1.255 1_455 S
O486 Dy480 2.379 . S
O486 C502 1.249 . S
O487 Dy481 2.275 1_655 S
O487 C503 1.254 1_565 S
O488 Dy480 2.339 . S
O488 C503 1.257 . S
O489 Dy481 2.307 1_545 S
O489 C504 1.266 . S
O490 Dy480 2.298 . S
O490 C504 1.236 1_655 S
O491 Dy481 2.416 . S
O491 C511 1.298 . S
O492 Dy481 2.379 . S
O492 C511 1.249 . S
C493 O483 1.266 . S
C493 O484 1.236 1_655 S
O494 Dy480 2.275 1_455 S
O494 C482 1.254 1_545 S
O495 Dy481 2.339 . S
O495 C482 1.257 . S
C496 C499 1.344 1_655 S
C496 C500 1.328 . S
C496 C502 1.516 . S
C497 C498 1.304 1_655 S
C497 C501 1.323 . S
C498 C497 1.304 1_455 S
C498 C499 1.371 . S
C498 H512 0.930 . S
C499 C496 1.344 1_455 S
C499 C498 1.371 . S
C499 H513 0.931 . S
C500 C496 1.328 . S
C500 C501 1.433 . S
C500 H514 0.931 . S
C501 C497 1.323 . S
C501 C500 1.433 . S
C501 H515 0.933 . S
C502 Dy480 2.738 . S
C502 O485 1.255 1_655 S
C502 O486 1.249 . S
C502 C496 1.516 . S
C503 O487 1.254 1_545 S
C503 O488 1.257 . S
C504 O489 1.266 . S
C504 O490 1.236 1_455 S
C505 C508 1.344 . S
C505 C509 1.328 . S
C505 C511 1.516 . S
C506 C507 1.304 . S
C506 C510 1.323 . S
C507 C506 1.304 . S
C507 C508 1.371 . S
C507 H516 0.930 1_455 S
C508 C505 1.344 . S
C508 C507 1.371 . S
C508 H517 0.931 1_455 S
C509 C505 1.328 . S
C509 C510 1.433 . S
C509 H518 0.931 . S
C510 C506 1.323 . S
C510 C509 1.433 . S
C510 H519 0.933 . S
C511 Dy481 2.738 . S
C511 O491 1.298 . S
C511 O492 1.249 . S
C511 C505 1.516 . S
H512 C498 0.930 . S
H513 C499 0.931 . S
H514 C500 0.931 . S
H515 C501 0.933 . S
H516 C507 0.930 1_655 S
H517 C508 0.931 1_655 S
H518 C509 0.931 . S
H519 C510 0.933 . S
Dy520 O523 2.307 . S
Dy520 O525 2.395 1_565 S
Dy520 O526 2.379 . S
Dy520 O528 2.339 . S
Dy520 O530 2.298 . S
Dy520 O534 2.275 1_565 S
Dy520 C542 2.738 . S
Dy521 O524 2.298 . S
Dy521 O527 2.275 1_545 S
Dy521 O529 2.307 . S
Dy521 O531 2.395 1_545 S
Dy521 O532 2.379 . S
Dy521 O535 2.339 . S
Dy521 C551 2.738 . S
C522 O534 1.254 . S
C522 O535 1.257 . S
O523 Dy520 2.307 . S
O523 C533 1.266 . S
O524 Dy521 2.298 . S
O524 C533 1.236 1_545 S
O525 Dy520 2.395 1_545 S
O525 C542 1.255 1_545 S
O526 Dy520 2.379 . S
O526 C542 1.249 . S
O527 Dy521 2.275 1_565 S
O527 C543 1.254 . S
O528 Dy520 2.339 . S
O528 C543 1.257 . S
O529 Dy521 2.307 . S
O529 C544 1.266 . S
O530 Dy520 2.298 . S
O530 C544 1.236 1_565 S
O531 Dy521 2.395 1_565 S
O531 C551 1.255 1_565 S
O532 Dy521 2.379 . S
O532 C551 1.249 . S
C533 O523 1.266 . S
C533 O524 1.236 1_565 S
O534 Dy520 2.275 1_545 S
O534 C522 1.254 . S
O535 Dy521 2.339 . S
O535 C522 1.257 . S
C536 C539 1.338 1_565 S
C536 C540 1.328 . S
C536 C542 1.516 . S
C537 C538 1.304 . S
C537 C541 1.323 . S
C538 C537 1.304 . S
C538 C539 1.370 1_565 S
C538 H552 0.930 1_565 S
C539 C536 1.338 1_545 S
C539 C538 1.370 1_545 S
C539 H553 0.938 . S
C540 C536 1.328 . S
C540 C541 1.433 . S
C540 H554 0.931 . S
C541 C537 1.323 . S
C541 C540 1.433 . S
C541 H555 0.933 . S
C542 Dy520 2.738 . S
C542 O525 1.255 1_565 S
C542 O526 1.249 . S
C542 C536 1.516 . S
C543 O527 1.254 . S
C543 O528 1.257 . S
C544 O529 1.266 . S
C544 O530 1.236 1_545 S
C545 C548 1.346 1_545 S
C545 C549 1.328 . S
C545 C551 1.516 . S
C546 C547 1.304 . S
C546 C550 1.323 . S
C547 C546 1.304 . S
C547 C548 1.371 1_545 S
C547 H556 0.930 1_545 S
C548 C545 1.346 1_565 S
C548 C547 1.371 1_565 S
C548 H557 0.928 . S
C549 C545 1.328 . S
C549 C550 1.433 . S
C549 H558 0.931 . S
C550 C546 1.323 . S
C550 C549 1.433 . S
C550 H559 0.933 . S
C551 Dy521 2.738 . S
C551 O531 1.255 1_545 S
C551 O532 1.249 . S
C551 C545 1.516 . S
H552 C538 0.930 1_545 S
H553 C539 0.938 . S
H554 C540 0.931 . S
H555 C541 0.933 . S
H556 C547 0.930 1_565 S
H557 C548 0.928 . S
H558 C549 0.931 . S
H559 C550 0.933 . S
Dy560 O563 2.307 . S
Dy560 O565 2.395 . S
Dy560 O566 2.379 . S
Dy560 O568 2.339 . S
Dy560 O570 2.298 . S
Dy560 O574 2.275 . S
Dy560 C582 2.738 . S
Dy561 O564 2.298 . S
Dy561 O567 2.275 . S
Dy561 O569 2.307 . S
Dy561 O571 2.395 . S
Dy561 O572 2.379 . S
Dy561 O575 2.339 . S
Dy561 C591 2.738 . S
C562 O574 1.254 . S
C562 O575 1.257 . S
O563 Dy560 2.307 . S
O563 C573 1.266 . S
O564 Dy561 2.298 . S
O564 C573 1.236 . S
O565 Dy560 2.395 . S
O565 C582 1.255 . S
O566 Dy560 2.379 . S
O566 C582 1.249 . S
O567 Dy561 2.275 . S
O567 C583 1.254 . S
O568 Dy560 2.339 . S
O568 C583 1.257 . S
O569 Dy561 2.307 . S
O569 C584 1.266 . S
O570 Dy560 2.298 . S
O570 C584 1.236 . S
O571 Dy561 2.395 . S
O571 C591 1.255 . S
O572 Dy561 2.379 . S
O572 C591 1.249 . S
C573 O563 1.266 . S
C573 O564 1.236 . S
O574 Dy560 2.275 . S
O574 C562 1.254 . S
O575 Dy561 2.339 . S
O575 C562 1.257 . S
C576 C579 1.344 . S
C576 C580 1.328 . S
C576 C582 1.516 . S
C577 C578 1.304 . S
C577 C581 1.323 . S
C578 C577 1.304 . S
C578 C579 1.371 . S
C578 H592 0.930 . S
C579 C576 1.344 . S
C579 C578 1.371 . S
C579 H593 0.931 . S
C580 C576 1.328 . S
C580 C581 1.433 . S
C580 H594 0.931 . S
C581 C577 1.323 . S
C581 C580 1.433 . S
C581 H595 0.933 . S
C582 Dy560 2.738 . S
C582 O565 1.255 . S
C582 O566 1.249 . S
C582 C576 1.516 . S
C583 O567 1.254 . S
C583 O568 1.257 . S
C584 O569 1.266 . S
C584 O570 1.236 . S
C585 C588 1.344 . S
C585 C589 1.328 . S
C585 C591 1.516 . S
C586 C587 1.304 . S
C586 C590 1.323 . S
C587 C586 1.304 . S
C587 C588 1.371 . S
C587 H596 0.930 . S
C588 C585 1.344 . S
C588 C587 1.371 . S
C588 H597 0.931 . S
C589 C585 1.328 . S
C589 C590 1.433 . S
C589 H598 0.931 . S
C590 C586 1.323 . S
C590 C589 1.433 . S
C590 H599 0.933 . S
C591 Dy561 2.738 . S
C591 O571 1.255 . S
C591 O572 1.249 . S
C591 C585 1.516 . S
H592 C578 0.930 . S
H593 C579 0.931 . S
H594 C580 0.931 . S
H595 C581 0.933 . S
H596 C587 0.930 . S
H597 C588 0.931 . S
H598 C589 0.931 . S
H599 C590 0.933 . S
Dy600 O603 2.307 1_455 S
Dy600 O605 2.395 . S
Dy600 O606 2.379 . S
Dy600 O608 2.339 . S
Dy600 O610 2.298 . S
Dy600 O614 2.275 . S
Dy600 C622 2.738 . S
Dy601 O604 2.298 . S
Dy601 O607 2.289 . S
Dy601 O609 2.307 1_655 S
Dy601 O611 2.395 . S
Dy601 O612 2.379 . S
Dy601 O615 2.339 . S
Dy601 C631 2.738 . S
C602 O614 1.254 . S
C602 O615 1.257 1_455 S
O603 Dy600 2.307 1_655 S
O603 C613 1.266 . S
O604 Dy601 2.298 . S
O604 C613 1.236 . S
O605 Dy600 2.395 . S
O605 C622 1.255 . S
O606 Dy600 2.379 . S
O606 C622 1.249 . S
O607 Dy601 2.289 . S
O607 C623 1.242 1_655 S
O608 Dy600 2.339 . S
O608 C623 1.257 . S
O609 Dy601 2.307 1_455 S
O609 C624 1.266 . S
O610 Dy600 2.298 . S
O610 C624 1.236 . S
O611 Dy601 2.395 . S
O611 C631 1.255 . S
O612 Dy601 2.379 . S
O612 C631 1.249 . S
C613 O603 1.266 . S
C613 O604 1.236 . S
O614 Dy600 2.275 . S
O614 C602 1.254 . S
O615 Dy601 2.339 . S
O615 C602 1.257 1_655 S
C616 C619 1.344 . S
C616 C620 1.328 . S
C616 C622 1.516 . S
C617 C618 1.304 . S
C617 C621 1.323 . S
C618 C617 1.304 . S
C618 C619 1.371 . S
C618 H632 0.930 . S
C619 C616 1.344 . S
C619 C618 1.371 . S
C619 H633 0.931 . S
C620 C616 1.328 . S
C620 C621 1.433 . S
C620 H634 0.931 . S
C621 C617 1.323 . S
C621 C620 1.433 . S
C621 H635 0.933 . S
C622 Dy600 2.738 . S
C622 O605 1.255 . S
C622 O606 1.249 . S
C622 C616 1.516 . S
C623 O607 1.242 1_455 S
C623 O608 1.257 . S
C624 O609 1.266 . S
C624 O610 1.236 . S
C625 C628 1.344 . S
C625 C629 1.328 . S
C625 C631 1.516 . S
C626 C627 1.304 1_554 S
C626 C630 1.323 1_554 S
C627 C626 1.304 1_556 S
C627 C628 1.371 . S
C627 H636 0.930 1_556 S
C628 C625 1.344 . S
C628 C627 1.371 . S
C628 H637 0.931 . S
C629 C625 1.328 . S
C629 C630 1.433 . S
C629 H638 0.931 . S
C630 C626 1.323 1_556 S
C630 C629 1.433 . S
C630 H639 0.933 . S
C631 Dy601 2.738 . S
C631 O611 1.255 . S
C631 O612 1.249 . S
C631 C625 1.516 . S
H632 C618 0.930 . S
H633 C619 0.931 . S
H634 C620 0.931 . S
H635 C621 0.933 . S
H636 C627 0.930 1_554 S
H637 C628 0.931 . S
H638 C629 0.931 . S
H639 C630 0.933 . S
H640 C646 0.930 . S
H641 C650 0.930 . S
H642 C655 0.929 . S
H643 C653 0.929 . S
H644 C648 0.929 . S
H645 C654 0.929 . S
C646 H640 0.930 . S
C646 C647 1.368 . S
C646 C654 1.378 . S
C647 C646 1.368 . S
C647 C655 1.432 1_545 S
C648 H644 0.929 . S
C648 C650 1.378 . S
C648 C652 1.349 1_565 S
C649 C652 1.461 . S
C649 C654 1.354 . S
C649 N657 1.425 1_545 S
C650 H641 0.930 . S
C650 C648 1.378 . S
C650 C651 1.365 1_565 S
C651 C650 1.365 1_545 S
C651 C653 1.437 . S
C652 C648 1.349 1_545 S
C652 C649 1.461 . S
C652 N656 1.428 . S
C653 H643 0.929 . S
C653 C651 1.437 . S
C653 N656 1.384 . S
C654 H645 0.929 . S
C654 C646 1.378 . S
C654 C649 1.354 . S
C655 H642 0.929 . S
C655 C647 1.432 1_565 S
C655 N657 1.384 . S
N656 C652 1.428 . S
N656 C653 1.384 . S
N657 C649 1.425 1_565 S
N657 C655 1.384 . S
H658 C664 0.930 . S
H659 C668 0.930 . S
H660 C673 0.929 . S
H661 C671 0.929 . S
H662 C666 0.929 . S
H663 C672 0.929 . S
C664 H658 0.930 . S
C664 C665 1.367 . S
C664 C672 1.378 . S
C665 C664 1.367 . S
C665 C673 1.433 . S
C666 H662 0.929 . S
C666 C668 1.378 . S
C666 C670 1.350 . S
C667 C670 1.463 . S
C667 C672 1.350 . S
C667 N675 1.427 . S
C668 H659 0.930 . S
C668 C666 1.378 . S
C668 C669 1.367 . S
C669 C668 1.367 . S
C669 C671 1.433 . S
C670 C666 1.350 . S
C670 C667 1.463 . S
C670 N674 1.427 . S
C671 H661 0.929 . S
C671 C669 1.433 . S
C671 N674 1.384 . S
C672 H663 0.929 . S
C672 C664 1.378 . S
C672 C667 1.350 . S
C673 H660 0.929 . S
C673 C665 1.433 . S
C673 N675 1.384 . S
N674 C670 1.427 . S
N674 C671 1.384 . S
N675 C667 1.427 . S
N675 C673 1.384 . S
H676 C682 0.930 . S
H677 C686 0.930 . S
H678 C691 0.929 . S
H679 C689 0.929 . S
H680 C684 0.929 . S
H681 C690 0.929 . S
C682 H676 0.930 . S
C682 C683 1.367 . S
C682 C690 1.378 . S
C683 C682 1.367 . S
C683 C691 1.433 . S
C684 H680 0.929 . S
C684 C686 1.378 . S
C684 C688 1.350 . S
C685 C688 1.463 . S
C685 C690 1.350 . S
C685 N693 1.427 . S
C686 H677 0.930 . S
C686 C684 1.378 . S
C686 C687 1.367 . S
C687 C686 1.367 . S
C687 C689 1.433 . S
C688 C684 1.350 . S
C688 C685 1.463 . S
C688 N692 1.427 . S
C689 H679 0.929 . S
C689 C687 1.433 . S
C689 N692 1.384 . S
C690 H681 0.929 . S
C690 C682 1.378 . S
C690 C685 1.350 . S
C691 H678 0.929 . S
C691 C683 1.433 . S
C691 N693 1.384 . S
N692 C688 1.427 . S
N692 C689 1.384 . S
N693 C685 1.427 . S
N693 C691 1.384 . S
H694 C700 0.930 . S
H695 C704 0.930 . S
H696 C709 0.929 . S
H697 C707 0.929 . S
H698 C702 0.929 . S
H699 C708 0.929 . S
C700 H694 0.930 . S
C700 C701 1.367 . S
C700 C708 1.378 . S
C701 C700 1.367 . S
C701 C709 1.433 . S
C702 H698 0.929 . S
C702 C704 1.378 . S
C702 C706 1.350 . S
C703 C706 1.463 . S
C703 C708 1.350 . S
C703 N711 1.427 . S
C704 H695 0.930 . S
C704 C702 1.378 . S
C704 C705 1.367 . S
C705 C704 1.367 . S
C705 C707 1.433 . S
C706 C702 1.350 . S
C706 C703 1.463 . S
C706 N710 1.427 . S
C707 H697 0.929 . S
C707 C705 1.433 . S
C707 N710 1.384 . S
C708 H699 0.929 . S
C708 C700 1.378 . S
C708 C703 1.350 . S
C709 H696 0.929 . S
C709 C701 1.433 . S
C709 N711 1.384 . S
N710 C706 1.427 . S
N710 C707 1.384 . S
N711 C703 1.427 . S
N711 C709 1.384 . S
H712 C718 0.930 . S
H713 C722 0.930 . S
H714 C727 0.929 . S
H715 C725 0.929 . S
H716 C720 0.929 . S
H717 C726 0.929 . S
C718 H712 0.930 . S
C718 C719 1.383 . S
C718 C726 1.378 . S
C719 C718 1.383 . S
C719 C727 1.415 1_565 S
C720 H716 0.929 . S
C720 C722 1.378 . S
C720 C724 1.370 . S
C721 C724 1.455 1_564 S
C721 C726 1.385 . S
C721 N729 1.395 1_565 S
C722 H713 0.930 . S
C722 C720 1.378 . S
C722 C723 1.369 . S
C723 C722 1.369 . S
C723 C725 1.430 1_545 S
C724 C720 1.370 . S
C724 C721 1.455 1_546 S
C724 N728 1.408 1_545 S
C725 H715 0.929 . S
C725 C723 1.430 1_565 S
C725 N728 1.384 . S
C726 H717 0.929 . S
C726 C718 1.378 . S
C726 C721 1.385 . S
C727 H714 0.929 . S
C727 C719 1.415 1_545 S
C727 N729 1.384 . S
N728 C724 1.408 1_565 S
N728 C725 1.384 . S
N729 C721 1.395 1_545 S
N729 C727 1.384 . S
H730 C736 0.930 . S
H731 C740 0.930 . S
H732 C745 0.929 . S
H733 C743 0.929 . S
H734 C738 0.929 . S
H735 C744 0.929 . S
C736 H730 0.930 . S
C736 C737 1.367 1_556 S
C736 C744 1.378 . S
C737 C736 1.367 1_554 S
C737 C745 1.433 . S
C738 H734 0.929 . S
C738 C740 1.378 . S
C738 C742 1.350 . S
C739 C742 1.463 . S
C739 C744 1.350 . S
C739 N747 1.427 . S
C740 H731 0.930 . S
C740 C738 1.378 . S
C740 C741 1.367 . S
C741 C740 1.367 . S
C741 C743 1.433 . S
C742 C738 1.350 . S
C742 C739 1.463 . S
C742 N746 1.427 . S
C743 H733 0.929 . S
C743 C741 1.433 . S
C743 N746 1.384 . S
C744 H735 0.929 . S
C744 C736 1.378 . S
C744 C739 1.350 . S
C745 H732 0.929 . S
C745 C737 1.433 . S
C745 N747 1.384 1_554 S
N746 C742 1.427 . S
N746 C743 1.384 . S
N747 C739 1.427 . S
N747 C745 1.384 1_556 S
H748 C754 0.930 . S
H749 C758 0.930 . S
H750 C763 0.929 . S
H751 C761 0.929 . S
H752 C756 0.929 . S
H753 C762 0.929 . S
C754 H748 0.930 . S
C754 C755 1.367 . S
C754 C762 1.378 . S
C755 C754 1.367 . S
C755 C763 1.433 . S
C756 H752 0.929 . S
C756 C758 1.378 . S
C756 C760 1.350 . S
C757 C760 1.463 . S
C757 C762 1.350 . S
C757 N765 1.427 . S
C758 H749 0.930 . S
C758 C756 1.378 . S
C758 C759 1.367 . S
C759 C758 1.367 . S
C759 C761 1.433 . S
C760 C756 1.350 . S
C760 C757 1.463 . S
C760 N764 1.427 . S
C761 H751 0.929 . S
C761 C759 1.433 . S
C761 N764 1.384 . S
C762 H753 0.929 . S
C762 C754 1.378 . S
C762 C757 1.350 . S
C763 H750 0.929 . S
C763 C755 1.433 . S
C763 N765 1.384 . S
N764 C760 1.427 . S
N764 C761 1.384 . S
N765 C757 1.427 . S
N765 C763 1.384 . S
H766 C772 0.930 . S
H767 C776 0.930 . S
H768 C781 0.929 . S
H769 C779 0.929 . S
H770 C774 0.929 1_554 S
H771 C780 0.929 . S
C772 H766 0.930 . S
C772 C773 1.367 1_455 S
C772 C780 1.378 . S
C773 C772 1.367 1_655 S
C773 C781 1.433 . S
C774 H770 0.929 1_556 S
C774 C776 1.378 . S
C774 C778 1.350 1_556 S
C775 C778 1.463 . S
C775 C780 1.350 1_655 S
C775 N783 1.427 . S
C776 H767 0.930 . S
C776 C774 1.378 . S
C776 C777 1.379 . S
C777 C776 1.379 . S
C777 C779 1.418 1_655 S
C778 C774 1.350 1_554 S
C778 C775 1.463 . S
C778 N782 1.427 1_654 S
C779 H769 0.929 . S
C779 C777 1.418 1_455 S
C779 N782 1.384 . S
C780 H771 0.929 . S
C780 C772 1.378 . S
C780 C775 1.350 1_455 S
C781 H768 0.929 . S
C781 C773 1.433 . S
C781 N783 1.384 . S
N782 C778 1.427 1_456 S
N782 C779 1.384 . S
N783 C775 1.427 . S
N783 C781 1.384 . S
H784 C790 0.930 . S
H785 C794 0.930 . S
H786 C799 0.929 . S
H787 C797 0.929 . S
H788 C792 0.929 . S
H789 C798 0.929 . S
C790 H784 0.930 . S
C790 C791 1.367 . S
C790 C798 1.378 . S
C791 C790 1.367 . S
C791 C799 1.433 . S
C792 H788 0.929 . S
C792 C794 1.378 . S
C792 C796 1.350 . S
C793 C796 1.455 1_455 S
C793 C798 1.358 . S
C793 N801 1.427 . S
C794 H785 0.930 . S
C794 C792 1.378 . S
C794 C795 1.367 . S
C795 C794 1.367 . S
C795 C797 1.433 . S
C796 C792 1.350 . S
C796 C793 1.455 1_655 S
C796 N800 1.427 . S
C797 H787 0.929 . S
C797 C795 1.433 . S
C797 N800 1.384 . S
C798 H789 0.929 . S
C798 C790 1.378 . S
C798 C793 1.358 . S
C799 H786 0.929 . S
C799 C791 1.433 . S
C799 N801 1.384 . S
N800 C796 1.427 . S
N800 C797 1.384 . S
N801 C793 1.427 . S
N801 C799 1.384 . S
H802 C808 0.930 . S
H803 C812 0.930 1_545 S
H804 C817 0.929 . S
H805 C815 0.929 . S
H806 C810 0.929 . S
H807 C816 0.929 . S
C808 H802 0.930 . S
C808 C809 1.345 1_565 S
C808 C816 1.378 . S
C809 C808 1.345 1_545 S
C809 C817 1.452 . S
C810 H806 0.929 . S
C810 C812 1.378 1_545 S
C810 C814 1.350 1_545 S
C811 C814 1.463 . S
C811 C816 1.350 . S
C811 N819 1.427 1_565 S
C812 H803 0.930 1_565 S
C812 C810 1.378 1_565 S
C812 C813 1.367 . S
C813 C812 1.367 . S
C813 C815 1.433 . S
C814 C810 1.350 1_565 S
C814 C811 1.463 . S
C814 N818 1.427 . S
C815 H805 0.929 . S
C815 C813 1.433 . S
C815 N818 1.384 . S
C816 H807 0.929 . S
C816 C808 1.378 . S
C816 C811 1.350 . S
C817 H804 0.929 . S
C817 C809 1.452 . S
C817 N819 1.384 . S
N818 C814 1.427 . S
N818 C815 1.384 . S
N819 C811 1.427 1_545 S
N819 C817 1.384 . S
H820 C826 0.930 . S
H821 C830 0.930 . S
H822 C835 0.929 . S
H823 C833 0.929 . S
H824 C828 0.929 . S
H825 C834 0.929 . S
C826 H820 0.930 . S
C826 C827 1.367 . S
C826 C834 1.378 . S
C827 C826 1.367 . S
C827 C835 1.433 . S
C828 H824 0.929 . S
C828 C830 1.378 . S
C828 C832 1.350 . S
C829 C832 1.463 . S
C829 C834 1.350 . S
C829 N837 1.427 . S
C830 H821 0.930 . S
C830 C828 1.378 . S
C830 C831 1.367 . S
C831 C830 1.367 . S
C831 C833 1.433 . S
C832 C828 1.350 . S
C832 C829 1.463 . S
C832 N836 1.427 . S
C833 H823 0.929 . S
C833 C831 1.433 . S
C833 N836 1.384 . S
C834 H825 0.929 . S
C834 C826 1.378 . S
C834 C829 1.350 . S
C835 H822 0.929 . S
C835 C827 1.433 . S
C835 N837 1.384 . S
N836 C832 1.427 . S
N836 C833 1.384 . S
N837 C829 1.427 . S
N837 C835 1.384 . S
H838 C844 0.930 . S
H839 C848 0.930 . S
H840 C853 0.929 . S
H841 C851 0.929 . S
H842 C846 0.929 . S
H843 C852 0.929 . S
C844 H838 0.930 . S
C844 C845 1.367 . S
C844 C852 1.378 . S
C845 C844 1.367 . S
C845 C853 1.433 . S
C846 H842 0.929 . S
C846 C848 1.378 . S
C846 C850 1.350 . S
C847 C850 1.463 . S
C847 C852 1.350 . S
C847 N855 1.427 . S
C848 H839 0.930 . S
C848 C846 1.378 . S
C848 C849 1.367 . S
C849 C848 1.367 . S
C849 C851 1.433 . S
C850 C846 1.350 . S
C850 C847 1.463 . S
C850 N854 1.427 . S
C851 H841 0.929 . S
C851 C849 1.433 . S
C851 N854 1.384 . S
C852 H843 0.929 . S
C852 C844 1.378 . S
C852 C847 1.350 . S
C853 H840 0.929 . S
C853 C845 1.433 . S
C853 N855 1.384 . S
N854 C850 1.427 . S
N854 C851 1.384 . S
N855 C847 1.427 . S
N855 C853 1.384 . S
H856 C862 0.930 . S
H857 C866 0.930 . S
H858 C871 0.929 . S
H859 C869 0.929 . S
H860 C864 0.929 . S
H861 C870 0.929 . S
C862 H856 0.930 . S
C862 C863 1.367 . S
C862 C870 1.378 . S
C863 C862 1.367 . S
C863 C871 1.433 1_655 S
C864 H860 0.929 . S
C864 C866 1.378 . S
C864 C868 1.350 1_556 S
C865 C868 1.463 . S
C865 C870 1.350 1_455 S
C865 N873 1.427 . S
C866 H857 0.930 . S
C866 C864 1.378 . S
C866 C867 1.367 . S
C867 C866 1.367 . S
C867 C869 1.433 1_556 S
C868 C864 1.350 1_554 S
C868 C865 1.463 . S
C868 N872 1.427 . S
C869 H859 0.929 . S
C869 C867 1.433 1_554 S
C869 N872 1.384 . S
C870 H861 0.929 . S
C870 C862 1.378 . S
C870 C865 1.350 1_655 S
C871 H858 0.929 . S
C871 C863 1.433 1_455 S
C871 N873 1.384 . S
N872 C868 1.427 . S
N872 C869 1.384 . S
N873 C865 1.427 . S
N873 C871 1.384 . S
H874 C880 0.930 . S
H875 C884 0.930 1_565 S
H876 C889 0.929 . S
H877 C887 0.929 . S
H878 C882 0.929 . S
H879 C888 0.929 . S
C880 H874 0.930 . S
C880 C881 1.357 1_545 S
C880 C888 1.378 . S
C881 C880 1.357 1_565 S
C881 C889 1.442 . S
C882 H878 0.929 . S
C882 C884 1.378 1_565 S
C882 C886 1.346 1_566 S
C883 C886 1.467 . S
C883 C888 1.350 . S
C883 N891 1.427 1_545 S
C884 H875 0.930 1_545 S
C884 C882 1.378 1_545 S
C884 C885 1.367 . S
C885 C884 1.367 . S
C885 C887 1.433 . S
C886 C882 1.346 1_544 S
C886 C883 1.467 . S
C886 N890 1.427 . S
C887 H877 0.929 . S
C887 C885 1.433 . S
C887 N890 1.384 1_556 S
C888 H879 0.929 . S
C888 C880 1.378 . S
C888 C883 1.350 . S
C889 H876 0.929 . S
C889 C881 1.442 . S
C889 N891 1.384 . S
N890 C886 1.427 . S
N890 C887 1.384 1_554 S
N891 C883 1.427 1_565 S
N891 C889 1.384 . S
H892 C898 0.930 . S
H893 C902 0.930 . S
H894 C907 0.929 . S
H895 C905 0.929 . S
H896 C900 0.929 . S
H897 C906 0.929 . S
C898 H892 0.930 . S
C898 C899 1.367 . S
C898 C906 1.378 . S
C899 C898 1.367 . S
C899 C907 1.433 . S
C900 H896 0.929 . S
C900 C902 1.378 . S
C900 C904 1.350 . S
C901 C904 1.463 . S
C901 C906 1.350 . S
C901 N909 1.427 . S
C902 H893 0.930 . S
C902 C900 1.378 . S
C902 C903 1.367 . S
C903 C902 1.367 . S
C903 C905 1.433 . S
C904 C900 1.350 . S
C904 C901 1.463 . S
C904 N908 1.427 . S
C905 H895 0.929 . S
C905 C903 1.433 . S
C905 N908 1.384 . S
C906 H897 0.929 . S
C906 C898 1.378 . S
C906 C901 1.350 . S
C907 H894 0.929 . S
C907 C899 1.433 . S
C907 N909 1.384 . S
N908 C904 1.427 . S
N908 C905 1.384 . S
N909 C901 1.427 . S
N909 C907 1.384 . S
H910 C916 0.930 . S
H911 C920 0.930 . S
H912 C925 0.929 . S
H913 C923 0.929 . S
H914 C918 0.929 . S
H915 C924 0.929 . S
C916 H910 0.930 . S
C916 C917 1.367 . S
C916 C924 1.378 . S
C917 C916 1.367 . S
C917 C925 1.433 . S
C918 H914 0.929 . S
C918 C920 1.378 . S
C918 C922 1.350 . S
C919 C922 1.463 . S
C919 C924 1.350 . S
C919 N927 1.427 . S
C920 H911 0.930 . S
C920 C918 1.378 . S
C920 C921 1.367 . S
C921 C920 1.367 . S
C921 C923 1.433 . S
C922 C918 1.350 . S
C922 C919 1.463 . S
C922 N926 1.427 . S
C923 H913 0.929 . S
C923 C921 1.433 . S
C923 N926 1.384 . S
C924 H915 0.929 . S
C924 C916 1.378 . S
C924 C919 1.350 . S
C925 H912 0.929 . S
C925 C917 1.433 . S
C925 N927 1.384 . S
N926 C922 1.427 . S
N926 C923 1.384 . S
N927 C919 1.427 . S
N927 C925 1.384 . S
H928 C934 0.930 . S
H929 C938 0.930 . S
H930 C943 0.929 . S
H931 C941 0.929 . S
H932 C936 0.929 . S
H933 C942 0.929 . S
C934 H928 0.930 . S
C934 C935 1.367 . S
C934 C942 1.378 . S
C935 C934 1.367 . S
C935 C943 1.433 1_455 S
C936 H932 0.929 . S
C936 C938 1.378 . S
C936 C940 1.350 1_655 S
C937 C940 1.463 . S
C937 C942 1.350 . S
C937 N945 1.427 1_455 S
C938 H929 0.930 . S
C938 C936 1.378 . S
C938 C939 1.367 1_655 S
C939 C938 1.367 1_455 S
C939 C941 1.433 . S
C940 C936 1.350 1_455 S
C940 C937 1.463 . S
C940 N944 1.427 . S
C941 H931 0.929 . S
C941 C939 1.433 . S
C941 N944 1.384 . S
C942 H933 0.929 . S
C942 C934 1.378 . S
C942 C937 1.350 . S
C943 H930 0.929 . S
C943 C935 1.433 1_655 S
C943 N945 1.384 . S
N944 C940 1.427 . S
N944 C941 1.384 . S
N945 C937 1.427 1_655 S
N945 C943 1.384 . S
H946 C952 0.930 . S
H947 C956 0.930 . S
H948 C961 0.929 . S
H949 C959 0.929 . S
H950 C954 0.929 . S
H951 C960 0.929 . S
C952 H946 0.930 . S
C952 C953 1.367 1_565 S
C952 C960 1.378 . S
C953 C952 1.367 1_545 S
C953 C961 1.433 . S
C954 H950 0.929 . S
C954 C956 1.378 . S
C954 C958 1.350 . S
C955 C958 1.463 . S
C955 C960 1.350 1_545 S
C955 N963 1.427 . S
C956 H947 0.930 . S
C956 C954 1.378 . S
C956 C957 1.367 . S
C957 C956 1.367 . S
C957 C959 1.433 1_545 S
C958 C954 1.350 . S
C958 C955 1.463 . S
C958 N962 1.427 1_545 S
C959 H949 0.929 . S
C959 C957 1.433 1_565 S
C959 N962 1.384 . S
C960 H951 0.929 . S
C960 C952 1.378 . S
C960 C955 1.350 1_565 S
C961 H948 0.929 . S
C961 C953 1.433 . S
C961 N963 1.384 . S
N962 C958 1.427 1_565 S
N962 C959 1.384 . S
N963 C955 1.427 . S
N963 C961 1.384 . S
H964 C970 0.930 . S
H965 C974 0.930 . S
H966 C979 0.929 . S
H967 C977 0.929 . S
H968 C972 0.929 1_554 S
H969 C978 0.929 . S
C970 H964 0.930 . S
C970 C971 1.367 1_556 S
C970 C978 1.378 . S
C971 C970 1.367 1_554 S
C971 C979 1.433 . S
C972 H968 0.929 1_556 S
C972 C974 1.378 . S
C972 C976 1.350 . S
C973 C976 1.463 . S
C973 C978 1.350 . S
C973 N981 1.427 1_556 S
C974 H965 0.930 . S
C974 C972 1.378 . S
C974 C975 1.367 . S
C975 C974 1.367 . S
C975 C977 1.433 . S
C976 C972 1.350 . S
C976 C973 1.463 . S
C976 N980 1.427 . S
C977 H967 0.929 . S
C977 C975 1.433 . S
C977 N980 1.384 . S
C978 H969 0.929 . S
C978 C970 1.378 . S
C978 C973 1.350 . S
C979 H966 0.929 . S
C979 C971 1.433 . S
C979 N981 1.384 . S
N980 C976 1.427 . S
N980 C977 1.384 . S
N981 C973 1.427 1_554 S
N981 C979 1.384 . S
H982 C988 0.930 . S
H983 C992 0.930 . S
H984 C997 0.929 . S
H985 C995 0.929 . S
H986 C990 0.929 . S
H987 C996 0.929 . S
C988 H982 0.930 . S
C988 C989 1.367 . S
C988 C996 1.378 . S
C989 C988 1.367 . S
C989 C997 1.433 . S
C990 H986 0.929 . S
C990 C992 1.378 . S
C990 C994 1.350 . S
C991 C994 1.463 . S
C991 C996 1.350 . S
C991 N999 1.427 . S
C992 H983 0.930 . S
C992 C990 1.378 . S
C992 C993 1.367 . S
C993 C992 1.367 . S
C993 C995 1.433 . S
C994 C990 1.350 . S
C994 C991 1.463 . S
C994 N998 1.427 . S
C995 H985 0.929 . S
C995 C993 1.433 . S
C995 N998 1.384 . S
C996 H987 0.929 . S
C996 C988 1.378 . S
C996 C991 1.350 . S
C997 H984 0.929 . S
C997 C989 1.433 . S
C997 N999 1.384 . S
N998 C994 1.427 . S
N998 C995 1.384 . S
N999 C991 1.427 . S
N999 C997 1.384 . S
H1000 C1006 0.930 . S
H1001 C1010 0.930 1_455 S
H1002 C1015 0.921 1_455 S
H1003 C1013 0.929 . S
H1004 C1008 0.929 1_455 S
H1005 C1014 0.929 . S
C1006 H1000 0.930 . S
C1006 C1007 1.367 . S
C1006 C1014 1.378 . S
C1007 C1006 1.367 . S
C1007 C1015 1.445 . S
C1008 H1004 0.929 1_655 S
C1008 C1010 1.378 . S
C1008 C1012 1.350 . S
C1009 C1012 1.463 . S
C1009 C1014 1.350 . S
C1009 N1017 1.442 . S
C1010 H1001 0.930 1_655 S
C1010 C1008 1.378 . S
C1010 C1011 1.367 . S
C1011 C1010 1.367 . S
C1011 C1013 1.433 . S
C1012 C1008 1.350 . S
C1012 C1009 1.463 . S
C1012 N1016 1.427 . S
C1013 H1003 0.929 . S
C1013 C1011 1.433 . S
C1013 N1016 1.384 . S
C1014 H1005 0.929 . S
C1014 C1006 1.378 . S
C1014 C1009 1.350 . S
C1015 H1002 0.921 1_655 S
C1015 C1007 1.445 . S
C1015 N1017 1.385 . S
N1016 C1012 1.427 . S
N1016 C1013 1.384 . S
N1017 C1009 1.442 . S
N1017 C1015 1.385 . S
H1018 C1024 0.930 . S
H1019 C1028 0.930 . S
H1020 C1033 0.929 . S
H1021 C1031 0.929 . S
H1022 C1026 0.929 . S
H1023 C1032 0.929 . S
C1024 H1018 0.930 . S
C1024 C1025 1.367 1_545 S
C1024 C1032 1.378 . S
C1025 C1024 1.367 1_565 S
C1025 C1033 1.433 . S
C1026 H1022 0.929 . S
C1026 C1028 1.378 . S
C1026 C1030 1.350 . S
C1027 C1030 1.463 . S
C1027 C1032 1.350 1_565 S
C1027 N1035 1.427 . S
C1028 H1019 0.930 . S
C1028 C1026 1.378 . S
C1028 C1029 1.367 . S
C1029 C1028 1.367 . S
C1029 C1031 1.433 1_565 S
C1030 C1026 1.350 . S
C1030 C1027 1.463 . S
C1030 N1034 1.427 1_565 S
C1031 H1021 0.929 . S
C1031 C1029 1.433 1_545 S
C1031 N1034 1.384 . S
C1032 H1023 0.929 . S
C1032 C1024 1.378 . S
C1032 C1027 1.350 1_545 S
C1033 H1020 0.929 . S
C1033 C1025 1.433 . S
C1033 N1035 1.384 . S
N1034 C1030 1.427 1_545 S
N1034 C1031 1.384 . S
N1035 C1027 1.427 . S
N1035 C1033 1.384 . S
H1036 C1042 0.930 . S
H1037 C1046 0.930 . S
H1038 C1051 0.929 . S
H1039 C1049 0.929 . S
H1040 C1044 0.929 . S
H1041 C1050 0.929 . S
C1042 H1036 0.930 . S
C1042 C1043 1.367 . S
C1042 C1050 1.378 . S
C1043 C1042 1.367 . S
C1043 C1051 1.433 . S
C1044 H1040 0.929 . S
C1044 C1046 1.378 . S
C1044 C1048 1.350 . S
C1045 C1048 1.463 . S
C1045 C1050 1.350 . S
C1045 N1053 1.427 . S
C1046 H1037 0.930 . S
C1046 C1044 1.378 . S
C1046 C1047 1.367 . S
C1047 C1046 1.367 . S
C1047 C1049 1.433 . S
C1048 C1044 1.350 . S
C1048 C1045 1.463 . S
C1048 N1052 1.427 . S
C1049 H1039 0.929 . S
C1049 C1047 1.433 . S
C1049 N1052 1.384 . S
C1050 H1041 0.929 . S
C1050 C1042 1.378 . S
C1050 C1045 1.350 . S
C1051 H1038 0.929 . S
C1051 C1043 1.433 . S
C1051 N1053 1.384 . S
N1052 C1048 1.427 . S
N1052 C1049 1.384 . S
N1053 C1045 1.427 . S
N1053 C1051 1.384 . S
H1054 C1060 0.930 . S
H1055 C1064 0.930 . S
H1056 C1069 0.929 . S
H1057 C1067 0.929 . S
H1058 C1062 0.929 . S
H1059 C1068 0.929 . S
C1060 H1054 0.930 . S
C1060 C1061 1.367 . S
C1060 C1068 1.378 . S
C1061 C1060 1.367 . S
C1061 C1069 1.433 . S
C1062 H1058 0.929 . S
C1062 C1064 1.378 . S
C1062 C1066 1.350 . S
C1063 C1066 1.463 . S
C1063 C1068 1.350 . S
C1063 N1071 1.427 . S
C1064 H1055 0.930 . S
C1064 C1062 1.378 . S
C1064 C1065 1.367 . S
C1065 C1064 1.367 . S
C1065 C1067 1.433 . S
C1066 C1062 1.350 . S
C1066 C1063 1.463 . S
C1066 N1070 1.427 . S
C1067 H1057 0.929 . S
C1067 C1065 1.433 . S
C1067 N1070 1.384 . S
C1068 H1059 0.929 . S
C1068 C1060 1.378 . S
C1068 C1063 1.350 . S
C1069 H1056 0.929 . S
C1069 C1061 1.433 . S
C1069 N1071 1.384 . S
N1070 C1066 1.427 . S
N1070 C1067 1.384 . S
N1071 C1063 1.427 . S
N1071 C1069 1.384 . S
C647 C391 2.126 . S
C651 C482 2.143 1_545 S
C669 C522 2.153 . S
C665 C451 2.145 . S
C687 C586 2.520 . S
C683 C241 2.211 . S
C705 C602 2.188 . S
C701 C331 1.793 . S
C723 C503 2.144 . S
C719 C121 1.915 . S
C737 C211 2.109 . S
C741 C543 2.155 . S
C755 C31 2.518 . S
C759 C577 2.520 1_554 S
C773 C91 1.781 . S
C777 C623 2.182 1_655 S
C795 C497 0.413 . S
C791 C301 0.526 . S
C813 C537 0.546 . S
C809 C380 0.527 . S
C831 C573 0.562 . S
C827 C440 0.408 . S
C845 C260 0.658 . S
C849 C617 0.668 . S
C863 C61 0.374 . S
C867 C506 0.418 . S
C885 C546 0.541 . S
C881 C140 0.596 . S
C903 C584 0.518 . S
C899 C200 0.503 . S
C917 C20 0.705 . S
C921 C626 0.704 . S
C935 C320 2.760 . S
C939 C504 2.935 . S
C953 C361 2.226 . S
C957 C544 2.735 . S
C975 C562 1.977 . S
C971 C421 1.805 . S
C993 C624 3.349 . S
C989 C271 3.100 . S
C1007 C80 2.749 . S
C1011 C493 2.945 . S
C1029 C533 2.739 . S
C1025 C151 2.585 . S
C1047 C583 1.974 . S
C1043 C181 1.755 . S
C1061 C1 2.710 . S
C1065 C613 3.351 . S
