# Generated by pormake.
# Topology zzz, (3,6)-cn, num edge types: 1
# Building blocks:
#     Node 0, Type 0, BuildingBlock: BETDAH_clean_linker_0, # of connection points: 3
#     Node 1, Type 0, BuildingBlock: BETDAH_clean_linker_0, # of connection points: 3
#     Node 2, Type 0, BuildingBlock: BETDAH_clean_linker_0, # of connection points: 3
#     Node 3, Type 0, BuildingBlock: BETDAH_clean_linker_0, # of connection points: 3
#     Node 4, Type 0, BuildingBlock: BETDAH_clean_linker_0, # of connection points: 3
#     Node 5, Type 0, BuildingBlock: BETDAH_clean_linker_0, # of connection points: 3
#     Node 6, Type 0, BuildingBlock: BETDAH_clean_linker_0, # of connection points: 3
#     Node 7, Type 0, BuildingBlock: BETDAH_clean_linker_0, # of connection points: 3
#     Node 8, Type 1, BuildingBlock: PAMTOO_clean_sbu_0, # of connection points: 6
#     Node 9, Type 1, BuildingBlock: PAMTOO_clean_sbu_0, # of connection points: 6
#     Node 10, Type 1, BuildingBlock: PAMTOO_clean_sbu_0, # of connection points: 6
#     Node 11, Type 1, BuildingBlock: PAMTOO_clean_sbu_0, # of connection points: 6
#     Edge 12, Type (0, 1), BuildingBlock: CIFDUS_clean_linker_0, # of connection points: 2
#     Edge 13, Type (0, 1), BuildingBlock: CIFDUS_clean_linker_0, # of connection points: 2
#     Edge 14, Type (0, 1), BuildingBlock: CIFDUS_clean_linker_0, # of connection points: 2
#     Edge 15, Type (0, 1), BuildingBlock: CIFDUS_clean_linker_0, # of connection points: 2
#     Edge 16, Type (0, 1), BuildingBlock: CIFDUS_clean_linker_0, # of connection points: 2
#     Edge 17, Type (0, 1), BuildingBlock: CIFDUS_clean_linker_0, # of connection points: 2
#     Edge 18, Type (0, 1), BuildingBlock: CIFDUS_clean_linker_0, # of connection points: 2
#     Edge 19, Type (0, 1), BuildingBlock: CIFDUS_clean_linker_0, # of connection points: 2
#     Edge 20, Type (0, 1), BuildingBlock: CIFDUS_clean_linker_0, # of connection points: 2
#     Edge 21, Type (0, 1), BuildingBlock: CIFDUS_clean_linker_0, # of connection points: 2
#     Edge 22, Type (0, 1), BuildingBlock: CIFDUS_clean_linker_0, # of connection points: 2
#     Edge 23, Type (0, 1), BuildingBlock: CIFDUS_clean_linker_0, # of connection points: 2
#     Edge 24, Type (0, 1), BuildingBlock: CIFDUS_clean_linker_0, # of connection points: 2
#     Edge 25, Type (0, 1), BuildingBlock: CIFDUS_clean_linker_0, # of connection points: 2
#     Edge 26, Type (0, 1), BuildingBlock: CIFDUS_clean_linker_0, # of connection points: 2
#     Edge 27, Type (0, 1), BuildingBlock: CIFDUS_clean_linker_0, # of connection points: 2
#     Edge 28, Type (0, 1), BuildingBlock: CIFDUS_clean_linker_0, # of connection points: 2
#     Edge 29, Type (0, 1), BuildingBlock: CIFDUS_clean_linker_0, # of connection points: 2
#     Edge 30, Type (0, 1), BuildingBlock: CIFDUS_clean_linker_0, # of connection points: 2
#     Edge 31, Type (0, 1), BuildingBlock: CIFDUS_clean_linker_0, # of connection points: 2
#     Edge 32, Type (0, 1), BuildingBlock: CIFDUS_clean_linker_0, # of connection points: 2
#     Edge 33, Type (0, 1), BuildingBlock: CIFDUS_clean_linker_0, # of connection points: 2
#     Edge 34, Type (0, 1), BuildingBlock: CIFDUS_clean_linker_0, # of connection points: 2
#     Edge 35, Type (0, 1), BuildingBlock: CIFDUS_clean_linker_0, # of connection points: 2
# Relax obj value: 0.243
# Max RMSD: 0.240
# Mean RMSD: 0.129
data_MOF--net-zzz--node1-PAMTOO_clean_sbu_0--node2-BETDAH_clean_linker_0--edge1-CIFDUS_clean_linker_0
_symmetry_space_group_name_H-M    P1
_symmetry_Int_Tables_number       1
_symmetry_cell_setting            triclinic
loop_
_symmetry_equiv_pos_as_xyz
'x, y, z'
_cell_length_a     50.748795
_cell_length_b     42.934049
_cell_length_c     13.852835
_cell_angle_alpha  92.727442
_cell_angle_beta   78.480838
_cell_angle_gamma 85.973204
loop_
_atom_site_label
_atom_site_type_symbol
_atom_site_fract_x
_atom_site_fract_y
_atom_site_fract_z
_atom_type_partial_charge
H0 H 0.85615 0.46988 0.51394 0.0
H1 H 0.78306 0.48935 0.40838 0.0
H2 H 0.80129 0.5484 0.64295 0.0
C3 C 0.83678 0.48311 0.52105 0.0
C4 C 0.83044 0.50916 0.58877 0.0
C5 C 0.82004 0.47613 0.45478 0.0
C6 C 0.79579 0.4946 0.4602 0.0
C7 C 0.78866 0.5205 0.52898 0.0
C8 C 0.80625 0.52784 0.5923 0.0
N9 N 0.76469 0.54036 0.53302 0.0
C10 C 0.7465 0.53655 0.47061 0.0
H11 H 0.05356 0.78952 0.48485 0.0
H12 H 0.03472 0.69875 0.39098 0.0
H13 H 0.98868 0.74574 0.66164 0.0
C14 C 0.04191 0.76937 0.4992 0.0
C15 C 1.0207 0.77088 0.58148 0.0
C16 C 0.04705 0.74347 0.43089 0.0
C17 C 0.03113 0.71816 0.44608 0.0
C18 C 1.01024 0.71847 0.53044 0.0
C19 C 1.00527 0.74489 0.5985 0.0
N20 N 0.99325 0.69332 0.54567 0.0
C21 C 0.99398 0.66871 0.47525 0.0
H22 H 0.69434 0.0425 0.38662 0.0
H23 H 0.77696 0.04002 0.23235 0.0
H24 H 0.75338 0.97721 0.46393 0.0
C25 C 0.71524 0.03329 0.37774 0.0
C26 C 0.72141 0.00897 0.43451 0.0
C27 C 0.73494 0.04447 0.30486 0.0
C28 C 0.76187 0.03168 0.28991 0.0
C29 C 0.76891 0.00781 0.34933 0.0
C30 C 0.74837 0.99627 0.42055 0.0
N31 N 0.79599 0.99433 0.33881 0.0
C32 C 0.81885 1.00213 0.27211 0.0
H33 H 0.50084 0.66501 0.32496 0.0
H34 H 0.51181 0.75206 0.18949 0.0
H35 H 0.53514 0.73837 0.46886 0.0
C36 C 0.50699 0.68869 0.32837 0.0
C37 C 0.51927 0.69856 0.40496 0.0
C38 C 0.50536 0.70711 0.24906 0.0
C39 C 0.51263 0.73803 0.25194 0.0
C40 C 0.52213 0.75007 0.33422 0.0
C41 C 0.52607 0.72988 0.40926 0.0
N42 N 0.52947 0.78149 0.34123 0.0
C43 C 0.52457 0.80524 0.27954 0.0
H44 H 0.18382 0.56293 0.10162 0.0
H45 H 0.25396 0.54302 0.22284 0.0
H46 H 0.23407 0.47782 0.00674 0.0
C47 C 0.20218 0.54833 0.10121 0.0
C48 C 0.20715 0.51998 0.04367 0.0
C49 C 0.21884 0.55663 0.16611 0.0
C50 C 0.24156 0.53673 0.17106 0.0
C51 C 0.24754 0.50842 0.11253 0.0
C52 C 0.23002 0.5 0.04975 0.0
N53 N 0.27033 0.48762 0.11812 0.0
C54 C 0.28827 0.49308 0.18062 0.0
H55 H 0.05888 0.2135 0.24464 0.0
H56 H 0.04979 0.3118 0.31367 0.0
H57 H 0.03766 0.27524 0.03096 0.0
C58 C 0.0561 0.23685 0.21972 0.0
C59 C 0.04943 0.2407 0.12723 0.0
C60 C 0.05618 0.26238 0.28612 0.0
C61 C 0.05028 0.29255 0.2598 0.0
C62 C 0.04377 0.2976 0.16737 0.0
C63 C 0.04333 0.27152 0.10111 0.0
N64 N 0.03624 0.32847 0.14298 0.0
C65 C 0.03169 0.35387 0.21293 0.0
H66 H 0.34156 0.98247 0.31481 0.0
H67 H 0.25882 0.992 0.46993 0.0
H68 H 0.28368 0.04108 0.20522 0.0
C69 C 0.32082 0.9917 0.31961 0.0
C70 C 0.31518 0.01216 0.24994 0.0
C71 C 0.30084 0.98438 0.39877 0.0
C72 C 0.27416 0.99738 0.40798 0.0
C73 C 0.26761 0.01743 0.3368 0.0
C74 C 0.28842 0.02516 0.25885 0.0
N75 N 0.24065 0.03048 0.34105 0.0
C76 C 0.21755 0.02598 0.41214 0.0
H77 H 0.51918 0.33881 0.32041 0.0
H78 H 0.52195 0.24999 0.45016 0.0
H79 H 0.50147 0.25709 0.16288 0.0
C80 C 0.51709 0.31382 0.31592 0.0
C81 C 0.50935 0.30046 0.23338 0.0
C82 C 0.52216 0.29591 0.39299 0.0
C83 C 0.51868 0.26367 0.3893 0.0
C84 C 0.51129 0.24936 0.30572 0.0
C85 C 0.50703 0.26793 0.22738 0.0
N86 N 0.50797 0.21664 0.29702 0.0
C87 C 0.50966 0.19478 0.36799 0.0
Dy88 Dy 1.00951 0.02412 0.79415 0.0
Dy89 Dy 0.03668 0.98909 0.95325 0.0
C90 C 0.07242 1.0037 0.75024 0.0
O91 O 1.01328 0.97392 0.73697 0.0
O92 O 1.01963 0.95036 0.87709 0.0
O93 O 1.01059 0.0398 0.64754 0.0
O94 O 0.97593 0.05316 0.76484 0.0
O95 O 0.99492 0.00816 0.03178 0.0
O96 O 0.97553 1.00503 0.8976 0.0
O97 O 0.04803 0.03856 0.96544 0.0
O98 O 1.01307 0.06168 0.90742 0.0
O99 O 0.03352 0.96292 0.08354 0.0
O100 O 0.07254 0.97542 0.00779 0.0
C101 C 1.01471 0.94879 0.7874 0.0
O102 O 0.05456 0.02737 0.74969 0.0
O103 O 0.06583 0.981 0.80816 0.0
C104 C 0.99385 0.0924 0.66941 0.0
C105 C 1.00252 0.15623 0.66193 0.0
C106 C 1.01821 0.1363 0.7094 0.0
C107 C 1.01411 0.10465 0.71204 0.0
C108 C 0.97725 0.11231 0.62599 0.0
C109 C 0.98167 0.14405 0.62164 0.0
C110 C 0.9893 0.05932 0.67839 0.0
C111 C 0.97319 1.00667 0.99377 0.0
C112 C 0.03349 0.06384 0.95133 0.0
C113 C 0.06993 0.92547 0.06882 0.0
C114 C 0.0813 0.86055 0.07248 0.0
C115 C 0.07443 0.87329 0.98835 0.0
C116 C 0.06884 0.90556 0.98651 0.0
C117 C 0.07844 0.91318 0.15005 0.0
C118 C 0.08417 0.88098 0.15185 0.0
C119 C 0.05961 0.95834 0.0738 0.0
H120 H 0.03427 0.14496 0.74165 0.0
H121 H 0.02704 0.08961 0.74652 0.0
H122 H 0.96127 0.10327 0.59416 0.0
H123 H 0.96954 0.15868 0.58282 0.0
H124 H 0.07208 0.85821 0.92618 0.0
H125 H 0.06241 0.91482 0.92282 0.0
H126 H 0.0793 0.92826 0.21414 0.0
H127 H 0.08887 0.87198 0.21869 0.0
Dy128 Dy 0.51514 0.98229 0.74735 0.0
Dy129 Dy 0.52351 0.02566 0.93757 0.0
C130 C 0.51718 0.05664 0.73582 0.0
O131 O 0.55859 0.99184 0.70204 0.0
O132 O 0.56541 0.00907 0.85458 0.0
O133 O 0.50611 0.97543 0.60175 0.0
O134 O 0.51129 0.93579 0.68818 0.0
O135 O 0.51472 0.97786 0.99035 0.0
O136 O 0.53436 0.95161 0.84487 0.0
O137 O 0.47827 0.02958 0.95375 0.0
O138 O 0.47583 0.98547 0.85694 0.0
O139 O 0.53849 0.02856 0.07268 0.0
O140 O 0.5214 0.07035 0.01935 0.0
C141 C 0.57469 1.00006 0.76081 0.0
O142 O 0.50553 0.0319 0.71091 0.0
O143 O 0.52954 0.05656 0.81052 0.0
C144 C 0.47673 0.93565 0.59767 0.0
C145 C 0.42481 0.92319 0.5701 0.0
C146 C 0.42971 0.92823 0.66566 0.0
C147 C 0.45544 0.93437 0.67925 0.0
C148 C 0.47224 0.92939 0.5025 0.0
C149 C 0.44652 0.92313 0.48871 0.0
C150 C 0.50291 0.94582 0.6115 0.0
C151 C 0.52566 0.95175 0.94067 0.0
C152 C 0.46423 0.00786 0.92309 0.0
C153 C 0.5612 0.07358 0.08221 0.0
C154 C 0.61505 0.08566 0.08303 0.0
C155 C 0.59633 0.08412 0.17237 0.0
C156 C 0.56963 0.07795 0.17188 0.0
C157 C 0.57919 0.07783 0.99348 0.0
C158 C 0.60591 0.08378 0.99387 0.0
C159 C 0.53591 0.05906 0.07949 0.0
H160 H 0.41352 0.92822 0.72981 0.0
H161 H 0.45853 0.93895 0.75345 0.0
H162 H 0.48839 0.93043 0.43875 0.0
H163 H 0.44337 0.91984 0.41398 0.0
H164 H 0.60284 0.08514 0.24224 0.0
H165 H 0.55611 0.07453 0.24101 0.0
H166 H 0.5731 0.07445 0.92332 0.0
H167 H 0.61984 0.08505 0.92412 0.0
Dy168 Dy 0.55231 0.49652 0.83698 0.0
Dy169 Dy 0.48841 0.50321 0.80173 0.0
C170 C 0.50678 0.45442 0.94235 0.0
O171 O 0.5535 0.46664 0.69917 0.0
O172 O 0.50809 0.45891 0.72027 0.0
O173 O 0.58018 0.47495 0.9167 0.0
O174 O 0.5941 0.50875 0.81099 0.0
O175 O 0.51546 0.52195 0.67316 0.0
O176 O 0.54661 0.54 0.75637 0.0
O177 O 0.49397 0.54651 0.88953 0.0
O178 O 0.52754 0.52632 0.96264 0.0
O179 O 0.4554 0.53137 0.76234 0.0
O180 O 0.45027 0.48369 0.80068 0.0
C181 C 0.53362 0.45044 0.68205 0.0
O182 O 0.53147 0.45455 0.89103 0.0
O183 O 0.48858 0.47771 0.94 0.0
C184 C 0.61689 0.50298 0.94726 0.0
C185 C 0.65413 0.51622 0.06962 0.0
C186 C 0.62979 0.50322 0.10809 0.0
C187 C 0.61144 0.49673 0.0479 0.0
C188 C 0.64065 0.51707 0.90956 0.0
C189 C 0.65895 0.52376 0.96996 0.0
C190 C 0.60011 0.49106 0.87896 0.0
C191 C 0.53311 0.5421 0.6849 0.0
C192 C 0.51006 0.54929 0.9522 0.0
C193 C 0.42413 0.50436 0.68991 0.0
C194 C 0.39235 0.49551 0.5452 0.0
C195 C 0.41751 0.47828 0.53732 0.0
C196 C 0.43325 0.48269 0.60885 0.0
C197 C 0.39931 0.52183 0.69731 0.0
C198 C 0.38362 0.5175 0.62599 0.0
C199 C 0.4395 0.5087 0.76925 0.0
H200 H 0.62536 0.49669 0.1838 0.0
H201 H 0.59348 0.48564 0.07968 0.0
H202 H 0.64554 0.52197 0.8323 0.0
H203 H 0.67716 0.53433 0.93781 0.0
H204 H 0.42509 0.46142 0.47564 0.0
H205 H 0.4524 0.46903 0.60125 0.0
H206 H 0.39182 0.5386 0.75937 0.0
H207 H 0.36427 0.53088 0.63566 0.0
Dy208 Dy 1.02018 0.55021 0.76093 0.0
Dy209 Dy 1.01532 0.48838 0.8909 0.0
C210 C 0.02713 0.48167 0.65544 0.0
O211 O 0.97977 0.53519 0.74692 0.0
O212 O 0.9728 0.50152 0.87339 0.0
O213 O 0.02798 0.57379 0.62459 0.0
O214 O 1.01927 0.6006 0.76479 0.0
O215 O 1.01668 0.5303 0.99309 0.0
O216 O 0.99505 0.5643 0.90951 0.0
O217 O 0.05986 0.49255 0.84884 0.0
O218 O 0.05809 0.54468 0.8205 0.0
O219 O 1.00324 0.46934 0.03237 0.0
O220 O 0.02267 0.43869 0.9056 0.0
C221 C 0.96419 0.51752 0.80495 0.0
O222 O 0.0372 0.5091 0.65484 0.0
O223 O 1.0134 0.47177 0.73724 0.0
C224 C 0.05399 0.61617 0.64103 0.0
C225 C 0.108 0.62869 0.57143 0.0
C226 C 0.09818 0.62615 0.6728 0.0
C227 C 0.07147 0.61968 0.70723 0.0
C228 C 0.06282 0.62254 0.54219 0.0
C229 C 0.08957 0.62871 0.50753 0.0
C230 C 0.02874 0.60089 0.67031 0.0
C231 C 1.00298 0.55719 0.99049 0.0
C232 C 0.07146 0.51891 0.83797 0.0
C233 C 0.98887 0.41914 0.02591 0.0
C234 C 0.94002 0.39423 0.10623 0.0
C235 C 0.96042 0.39636 0.16144 0.0
C236 C 0.98457 0.4088 0.12153 0.0
C237 C 0.97004 0.41383 0.96649 0.0
C238 C 0.94591 0.40105 0.00605 0.0
C239 C 1.00999 0.44051 0.99766 0.0
H240 H 0.11166 0.62663 0.72434 0.0
H241 H 0.06519 0.61516 0.78437 0.0
H242 H 0.04975 0.62015 0.48989 0.0
H243 H 0.09627 0.63036 0.42882 0.0
H244 H 0.95681 0.39167 0.23888 0.0
H245 H 0.99879 0.41304 0.1685 0.0
H246 H 0.97303 0.42172 0.89222 0.0
H247 H 0.93096 0.39906 0.96068 0.0
H248 H 0.19422 0.97842 0.51345 0.0
H249 H 0.18031 0.07472 0.45023 0.0
H250 H 0.13412 0.07662 0.54665 0.0
H251 H 0.09718 0.0508 0.64836 0.0
H252 H 0.11121 0.9546 0.71438 0.0
H253 H 0.15727 0.95276 0.6183 0.0
C254 C 0.18107 0.99982 0.52158 0.0
C255 C 0.19069 0.02649 0.47528 0.0
C256 C 0.15433 1.00072 0.57745 0.0
C257 C 0.17341 0.05398 0.48575 0.0
C258 C 0.14692 0.05504 0.54065 0.0
C259 C 0.11024 0.02938 0.64149 0.0
C260 C 0.10042 1.00285 0.68872 0.0
C261 C 0.13704 0.02853 0.5866 0.0
C262 C 0.11797 0.97543 0.67918 0.0
C263 C 0.14446 0.97433 0.62408 0.0
H264 H 0.52441 0.18909 0.54606 0.0
H265 H 0.49485 0.13857 0.31901 0.0
H266 H 0.49407 0.09136 0.41167 0.0
H267 H 0.50173 0.06412 0.55807 0.0
H268 H 0.53222 0.11438 0.78417 0.0
H269 H 0.53258 0.16147 0.69232 0.0
C270 C 0.51778 0.16771 0.51732 0.0
C271 C 0.50957 0.16728 0.42612 0.0
C272 C 0.51748 0.14045 0.57122 0.0
C273 C 0.50115 0.13945 0.38932 0.0
C274 C 0.50071 0.11242 0.44233 0.0
C275 C 0.50837 0.08537 0.58755 0.0
C276 C 0.51685 0.08542 0.67858 0.0
C277 C 0.50877 0.11258 0.5336 0.0
C278 C 0.52557 0.11335 0.71458 0.0
C279 C 0.52579 0.14047 0.66195 0.0
H280 H 0.32008 0.44979 0.24814 0.0
H281 H 0.29831 0.54885 0.25797 0.0
H282 H 0.32889 0.55856 0.37032 0.0
H283 H 0.36164 0.53884 0.46697 0.0
H284 H 0.38343 0.4396 0.45778 0.0
H285 H 0.35364 0.4301 0.34304 0.0
C286 C 0.32214 0.47346 0.27501 0.0
C287 C 0.3069 0.49858 0.2457 0.0
C288 C 0.33994 0.47885 0.3393 0.0
C289 C 0.30971 0.52915 0.28027 0.0
C290 C 0.32725 0.5347 0.34434 0.0
C291 C 0.35979 0.51509 0.44043 0.0
C292 C 0.37487 0.49001 0.47165 0.0
C293 C 0.34239 0.50973 0.37478 0.0
C294 C 0.37245 0.45946 0.43454 0.0
C295 C 0.3552 0.45394 0.36929 0.0
H296 H 0.0561 0.40738 0.23435 0.0
H297 H 0.99621 0.34989 0.38168 0.0
H298 H 0.98929 0.38443 0.53194 0.0
H299 H 1.00125 0.42989 0.62311 0.0
H300 H 0.06073 0.48836 0.47694 0.0
H301 H 0.06681 0.45475 0.32503 0.0
C302 C 0.04139 0.40274 0.29931 0.0
C303 C 0.02656 0.37633 0.29755 0.0
C304 C 0.0376 0.42275 0.38578 0.0
C305 C 1.00767 0.37027 0.38171 0.0
C306 C 1.00381 0.38992 0.46762 0.0
C307 C 1.01561 0.43534 0.55822 0.0
C308 C 0.03069 0.46156 0.56218 0.0
C309 C 1.01885 0.41604 0.4709 0.0
C310 C 0.04891 0.46833 0.47651 0.0
C311 C 0.05241 0.44908 0.38942 0.0
H312 H 0.8669 1.00357 0.32672 0.0
H313 H 0.82943 0.00818 0.07446 0.0
H314 H 0.87379 0.01028 0.96557 0.0
H315 H 0.92356 0.00926 0.94163 0.0
H316 H 0.96087 1.0047 0.19518 0.0
H317 H 0.91655 1.00415 0.30333 0.0
C318 C 0.8685 1.00536 0.24794 0.0
C319 C 0.84495 1.00594 0.20853 0.0
C320 C 0.89415 1.00636 0.18584 0.0
C321 C 0.84726 0.00794 0.10644 0.0
C322 C 0.87265 0.00902 0.04422 0.0
C323 C 0.92206 0.00818 0.02055 0.0
C324 C 0.94581 1.0069 0.05961 0.0
C325 C 0.89632 0.00797 0.0829 0.0
C326 C 0.94318 1.00567 0.16243 0.0
C327 C 0.91774 1.00536 0.22463 0.0
H328 H 0.54871 0.81691 0.09319 0.0
H329 H 0.49186 0.85686 0.34995 0.0
H330 H 0.48714 0.90597 0.26914 0.0
H331 H 0.50016 0.9383 0.12677 0.0
H332 H 0.55649 0.89778 0.86857 0.0
H333 H 0.56056 0.8487 0.94833 0.0
C334 C 0.53514 0.83634 0.13085 0.0
C335 C 0.52051 0.83328 0.22703 0.0
C336 C 0.53266 0.86466 0.08401 0.0
C337 C 0.50317 0.85863 0.27555 0.0
C338 C 0.50059 0.88679 0.22959 0.0
C339 C 0.5134 0.91879 0.08802 0.0
C340 C 0.52811 0.92203 0.99166 0.0
C341 C 0.51543 0.89024 0.1341 0.0
C342 C 0.54491 0.89619 0.9426 0.0
C343 C 0.54727 0.86797 0.98824 0.0
H344 H 0.75557 0.52143 0.2746 0.0
H345 H 0.69271 0.54647 0.53053 0.0
H346 H 0.65838 0.54339 0.42917 0.0
H347 H 0.6463 0.53371 0.26754 0.0
H348 H 0.70926 0.50703 0.01182 0.0
H349 H 0.74331 0.51133 0.11227 0.0
C350 C 0.73432 0.52614 0.30773 0.0
C351 C 0.72651 0.53409 0.40952 0.0
C352 C 0.71471 0.52433 0.24879 0.0
C353 C 0.69905 0.54024 0.45216 0.0
C354 C 0.67946 0.53853 0.3942 0.0
C355 C 0.66743 0.52859 0.2336 0.0
C356 C 0.67496 0.52015 0.13151 0.0
C357 C 0.68704 0.53057 0.29236 0.0
C358 C 0.70264 0.51416 0.08942 0.0
C359 C 0.72224 0.51631 0.14716 0.0
H360 H 0.98628 0.67604 0.29166 0.0
H361 H 1.00378 0.60651 0.4885 0.0
H362 H 1.00834 0.56525 0.35592 0.0
H363 H 1.00821 0.54926 0.18159 0.0
H364 H 0.98805 0.61925 0.98867 0.0
H365 H 0.98335 0.65974 0.12147 0.0
C366 C 0.99094 0.65179 0.30523 0.0
C367 C 0.99514 0.64416 0.39861 0.0
C368 C 0.99298 0.62825 0.22918 0.0
C369 C 1.00095 0.6128 0.41631 0.0
C370 C 1.00344 0.58925 0.34065 0.0
C371 C 1.00267 0.57334 0.16883 0.0
C372 C 0.99859 0.58108 0.07483 0.0
C373 C 0.99969 0.59671 0.24634 0.0
C374 C 0.99123 0.61245 0.06003 0.0
C375 C 0.98862 0.63576 0.13599 0.0
H376 H 1.01499 0.27558 0.43889 0.0
H377 H 0.09635 0.23295 0.36051 0.0
H378 H 0.08765 0.20012 0.50082 0.0
H379 H 0.05334 0.17281 0.60408 0.0
H380 H 0.97021 0.21055 0.6666 0.0
H381 H 0.98298 0.25627 0.575 0.0
C382 C 0.03116 0.26029 0.45615 0.0
C383 C 0.05605 0.25602 0.38947 0.0
C384 C 0.02527 0.2398 0.53169 0.0
C385 C 0.077 0.23627 0.41127 0.0
C386 C 0.07185 0.2172 0.49041 0.0
C387 C 0.03813 0.19164 0.60169 0.0
C388 C 1.01074 0.18789 0.63912 0.0
C389 C 0.04545 0.21696 0.54523 0.0
C390 C 0.99132 0.21256 0.63553 0.0
C391 C 0.99863 0.23866 0.58324 0.0
H392 H 0.3247 0.92573 0.37529 0.0
H393 H 0.29985 1.00362 0.58912 0.0
H394 H 0.335 0.98663 0.67735 0.0
H395 H 0.37976 0.95897 0.66376 0.0
H396 H 0.40705 0.88421 0.43888 0.0
H397 H 0.36427 0.89068 0.38404 0.0
C398 C 0.32616 0.93794 0.44423 0.0
C399 C 0.31011 0.96607 0.47512 0.0
C400 C 0.34767 0.92937 0.48979 0.0
C401 C 0.312 0.98187 0.56418 0.0
C402 C 0.3325 0.97252 0.6133 0.0
C403 C 0.37601 0.94331 0.60513 0.0
C404 C 0.39683 0.92163 0.55385 0.0
C405 C 0.35163 0.94774 0.5723 0.0
C406 C 0.39161 0.90161 0.47781 0.0
C407 C 0.36711 0.90523 0.44668 0.0
H408 H 0.56418 0.33105 0.39158 0.0
H409 H 0.49392 0.30109 0.58236 0.0
H410 H 0.49317 0.34644 0.69716 0.0
H411 H 0.50666 0.39946 0.72312 0.0
H412 H 0.57517 0.43138 0.52695 0.0
H413 H 0.58231 0.38057 0.43263 0.0
C414 C 0.54943 0.33387 0.46054 0.0
C415 C 0.52895 0.3131 0.47848 0.0
C416 C 0.54815 0.36097 0.52239 0.0
C417 C 0.50991 0.31672 0.56756 0.0
C418 C 0.50917 0.343 0.63193 0.0
C419 C 0.52323 0.39523 0.65981 0.0
C420 C 0.53985 0.41934 0.62945 0.0
C421 C 0.52712 0.36615 0.6066 0.0
C422 C 0.56185 0.41329 0.55008 0.0
C423 C 0.56595 0.38427 0.49663 0.0
H424 H 0.21316 0.55533 0.36351 0.0
H425 H 0.20146 0.61635 0.13487 0.0
H426 H 0.16957 0.65113 0.2552 0.0
H427 H 0.13679 0.6555 0.4126 0.0
H428 H 0.14555 0.59 0.63355 0.0
H429 H 0.1875 0.56702 0.53185 0.0
C430 C 0.20459 0.577 0.34094 0.0
C431 C 0.20906 0.58297 0.24044 0.0
C432 C 0.18531 0.59595 0.40946 0.0
C433 C 0.19788 0.6111 0.21192 0.0
C434 C 0.17951 0.63084 0.28054 0.0
C435 C 0.14827 0.63673 0.43951 0.0
C436 C 0.13742 0.62387 0.52901 0.0
C437 C 0.17164 0.62218 0.37779 0.0
C438 C 0.15307 0.60036 0.56468 0.0
C439 C 0.17703 0.58678 0.50574 0.0
H440 H 0.03362 0.74561 0.2537 0.0
H441 H 0.10081 0.75143 0.39866 0.0
H442 H 0.12288 0.78372 0.27095 0.0
H443 H 0.11529 0.82298 0.15426 0.0
H444 H 0.04467 0.82197 0.02524 0.0
H445 H 0.03231 0.7746 0.1064 0.0
C446 C 0.05379 0.75251 0.2539 0.0
C447 C 0.06542 0.74691 0.33584 0.0
C448 C 0.06536 0.77284 0.18416 0.0
C449 C 0.0915 0.75582 0.33617 0.0
C450 C 0.10388 0.77469 0.26401 0.0
C451 C 0.0977 0.81173 0.14144 0.0
C452 C 0.08042 0.82659 0.08698 0.0
C453 C 0.08984 0.78548 0.19304 0.0
C454 C 0.05818 0.81131 0.06795 0.0
C455 C 0.05088 0.78433 0.11539 0.0
H456 H 0.72883 0.03174 0.11914 0.0
H457 H 0.71605 0.10515 0.34999 0.0
H458 H 0.67816 0.12904 0.2877 0.0
H459 H 0.64195 0.12026 0.19658 0.0
H460 H 0.65386 0.04513 0.97038 0.0
H461 H 0.69875 0.03097 1.00031 0.0
C462 C 0.71876 0.054 0.15188 0.0
C463 C 0.72497 0.06658 0.23927 0.0
C464 C 0.69609 0.06661 0.11861 0.0
C465 C 0.71164 0.09522 0.28216 0.0
C466 C 0.68958 0.10848 0.24779 0.0
C467 C 0.65475 0.10141 0.15199 0.0
C468 C 0.6444 0.0834 0.08287 0.0
C469 C 0.68047 0.09303 0.17072 0.0
C470 C 0.66129 0.05932 0.02434 0.0
C471 C 0.68695 0.05105 0.04185 0.0
H472 H 0.5446 0.67424 0.12438 0.0
H473 H 0.459 0.69825 0.18167 0.0
H474 H 0.45278 0.6509 0.08458 0.0
H475 H 0.47128 0.59802 0.0096 0.0
H476 H 0.55616 0.5715 0.98395 0.0
H477 H 0.56311 0.62368 0.04493 0.0
C478 C 0.52476 0.66976 0.11134 0.0
C479 C 0.50237 0.68983 0.15794 0.0
C480 C 0.52114 0.64108 0.06553 0.0
C481 C 0.47658 0.68347 0.14406 0.0
C482 C 0.47301 0.65599 0.09085 0.0
C483 C 0.49122 0.60379 0.01771 0.0
C484 C 0.51304 0.58074 0.99452 0.0
C485 C 0.495 0.63379 0.05602 0.0
C486 C 0.53887 0.58852 0.00408 0.0
C487 C 0.54297 0.61851 0.0376 0.0
H488 H 0.8442 0.4174 0.4554 0.0
H489 H 0.82111 0.48522 0.26126 0.0
H490 H 0.85295 0.45857 0.12222 0.0
H491 H 0.89527 0.42648 0.07039 0.0
H492 H 0.92043 0.35973 0.26434 0.0
H493 H 0.87964 0.37524 0.3884 0.0
C494 C 0.84553 0.42562 0.38185 0.0
C495 C 0.83094 0.45369 0.36907 0.0
C496 C 0.86473 0.4109 0.30278 0.0
C497 C 0.83227 0.4638 0.27332 0.0
C498 C 0.85074 0.44875 0.1938 0.0
C499 C 0.89144 0.4141 0.13753 0.0
C500 C 0.91158 0.39292 0.15956 0.0
C501 C 0.86836 0.42372 0.20944 0.0
C502 C 0.90578 0.37703 0.24698 0.0
C503 C 0.88247 0.38595 0.31816 0.0
H504 H 0.08108 0.18563 0.09841 0.0
H505 H 1.00966 0.22992 0.02245 0.0
H506 H 0.99898 0.1793 0.95717 0.0
H507 H 1.00726 0.12143 0.93913 0.0
H508 H 0.07713 0.07766 0.02815 0.0
H509 H 0.0903 0.12886 0.07471 0.0
C510 C 0.06315 0.18436 0.06741 0.0
C511 C 0.04603 0.21175 0.06705 0.0
C512 C 0.05638 0.15498 0.03497 0.0
C513 C 0.02336 0.2095 0.02362 0.0
C514 C 1.01699 0.18038 0.98764 0.0
C515 C 0.02538 0.12304 0.96867 0.0
C516 C 0.04098 0.09542 0.98099 0.0
C517 C 0.03287 0.15279 0.99602 0.0
C518 C 0.0645 0.09824 0.01877 0.0
C519 C 0.07218 0.12762 0.04494 0.0
H520 H 0.34644 0.9726 0.10877 0.0
H521 H 0.33767 0.06823 0.22567 0.0
H522 H 0.38307 0.07627 0.13311 0.0
H523 H 0.42744 0.05398 0.03166 0.0
H524 H 0.43474 0.95764 0.91804 0.0
H525 H 0.38823 0.95214 0.99574 0.0
C526 C 0.35415 0.9955 0.11132 0.0
C527 C 0.3385 0.01991 0.17287 0.0
C528 C 0.38044 0.99965 0.05983 0.0
C529 C 0.34901 0.04927 0.17715 0.0
C530 C 0.37519 0.05368 0.12537 0.0
C531 C 0.41879 0.03187 0.02342 0.0
C532 C 0.43498 1.00626 0.96874 0.0
C533 C 0.39149 0.02873 0.06868 0.0
C534 C 0.4231 0.9779 0.95865 0.0
C535 C 0.39633 0.97462 0.00351 0.0
H536 H 0.47534 0.35309 0.25211 0.0
H537 H 0.53559 0.29651 0.04016 0.0
H538 H 0.53874 0.33906 0.92733 0.0
H539 H 0.52888 0.39469 0.89978 0.0
H540 H 0.46871 0.45147 0.11212 0.0
H541 H 0.46103 0.40659 0.21441 0.0
C542 C 0.48858 0.34979 0.17989 0.0
C543 C 0.50524 0.32165 0.15445 0.0
C544 C 0.49076 0.37468 0.11681 0.0
C545 C 0.52236 0.31771 0.06096 0.0
C546 C 0.52443 0.34224 0.99717 0.0
C547 C 0.51392 0.3972 0.96817 0.0
C548 C 0.49974 0.42661 0.99939 0.0
C549 C 0.50952 0.37122 0.02607 0.0
C550 C 0.48001 0.42924 0.08685 0.0
C551 C 0.47565 0.40356 0.14533 0.0
H552 H 0.18346 0.55554 0.92239 0.0
H553 H 0.18323 0.46462 0.04133 0.0
H554 H 0.14219 0.45483 0.98047 0.0
H555 H 0.10324 0.47499 0.91138 0.0
H556 H 0.10349 0.56702 0.79834 0.0
H557 H 0.14733 0.57345 0.83912 0.0
C558 C 0.17469 0.53333 0.93348 0.0
C559 C 0.18637 0.51093 0.98696 0.0
C560 C 0.15071 0.52828 0.90079 0.0
C561 C 0.17486 0.48218 0.99981 0.0
C562 C 0.15117 0.47674 0.96601 0.0
C563 C 0.11304 0.49628 0.89442 0.0
C564 C 0.09969 0.52065 0.85292 0.0
C565 C 0.1384 0.50005 0.9192 0.0
C566 C 0.11291 0.548 0.83134 0.0
C567 C 0.13811 0.55172 0.85456 0.0
H568 H 1.0092 0.82749 0.51709 0.0
H569 H 1.01875 0.78216 0.78009 0.0
H570 H 1.01657 0.83349 0.86945 0.0
H571 H 1.0158 0.89134 0.86742 0.0
H572 H 1.00688 0.93564 0.60082 0.0
H573 H 1.00505 0.8847 0.51841 0.0
C574 C 1.01034 0.82888 0.59456 0.0
C575 C 1.01415 0.80111 0.64203 0.0
C576 C 1.00954 0.85833 0.64436 0.0
C577 C 1.01556 0.80318 0.7423 0.0
C578 C 1.01458 0.83254 0.79294 0.0
C579 C 1.01322 0.88993 0.79154 0.0
C580 C 1.01169 0.91755 0.74046 0.0
C581 C 1.0122 0.86031 0.74398 0.0
C582 C 1.00825 0.91502 0.64221 0.0
C583 C 1.00718 0.8858 0.59479 0.0
H584 H 0.69651 0.03001 0.62113 0.0
H585 H 0.69279 0.96166 0.3878 0.0
H586 H 0.6469 0.95183 0.46889 0.0
H587 H 0.6058 0.96728 0.59681 0.0
H588 H 0.61045 0.03411 0.83389 0.0
H589 H 0.65762 0.03987 0.76171 0.0
C590 C 0.68601 0.01206 0.59039 0.0
C591 C 0.69827 0.99606 0.49968 0.0
C592 C 0.65942 1.00685 0.63701 0.0
C593 C 0.68408 0.97361 0.45887 0.0
C594 C 0.65765 0.96837 0.50451 0.0
C595 C 0.6172 0.98289 0.63313 0.0
C596 C 0.60425 1.00069 0.72005 0.0
C597 C 0.64475 0.9856 0.592 0.0
C598 C 0.61963 0.02036 0.76669 0.0
C599 C 0.64674 0.02366 0.72537 0.0
H600 H 0.53937 0.6384 0.35487 0.0
H601 H 0.51539 0.70411 0.60803 0.0
H602 H 0.52071 0.66163 0.71741 0.0
H603 H 0.52739 0.60441 0.74091 0.0
H604 H 0.54472 0.53931 0.4854 0.0
H605 H 0.54613 0.58277 0.37693 0.0
C606 C 0.53502 0.6436 0.43413 0.0
C607 C 0.52628 0.67449 0.47299 0.0
C608 C 0.53667 0.61893 0.49608 0.0
C609 C 0.52199 0.6807 0.57575 0.0
C610 C 0.5248 0.65629 0.63833 0.0
C611 C 0.53184 0.59993 0.66135 0.0
C612 C 0.53621 0.56875 0.62069 0.0
C613 C 0.53141 0.62514 0.59942 0.0
C614 C 0.54142 0.56308 0.51793 0.0
C615 C 0.54219 0.58792 0.45611 0.0
H616 H 0.85562 0.47359 0.7068 0.0
H617 H 0.85282 0.56497 0.59167 0.0
H618 H 0.89334 0.57653 0.65306 0.0
H619 H 0.93222 0.55848 0.72446 0.0
H620 H 0.93402 0.46774 0.8452 0.0
H621 H 0.89131 0.4582 0.79746 0.0
C622 C 0.86359 0.49628 0.69718 0.0
C623 C 0.85123 0.5184 0.64468 0.0
C624 C 0.88695 0.50272 0.7326 0.0
C625 C 0.86175 0.5477 0.63269 0.0
C626 C 0.8851 0.55418 0.66692 0.0
C627 C 0.9231 0.53677 0.74135 0.0
C628 C 0.93653 0.51373 0.78744 0.0
C629 C 0.8983 0.53155 0.71459 0.0
C630 C 0.92421 0.4859 0.80989 0.0
C631 C 0.89979 0.48035 0.78219 0.0
loop_
_geom_bond_atom_site_label_1
_geom_bond_atom_site_label_2
_geom_bond_distance
_geom_bond_site_symmetry_2
_ccdc_geom_bond_type
H0 C3 0.929 . S
H1 C6 0.929 . S
H2 C8 0.930 . S
C3 H0 0.929 . S
C3 C4 1.398 . S
C3 C5 1.396 . S
C4 C3 1.398 . S
C4 C8 1.407 . S
C5 C3 1.396 . S
C5 C6 1.394 . S
C6 H1 0.929 . S
C6 C5 1.394 . S
C6 C7 1.382 . S
C7 C6 1.382 . S
C7 C8 1.392 . S
C7 N9 1.420 . S
C8 H2 0.930 . S
C8 C4 1.407 . S
C8 C7 1.392 . S
N9 C7 1.420 . S
N9 C10 1.244 . S
C10 N9 1.244 . S
H11 C14 0.929 . S
H12 C17 0.929 . S
H13 C19 0.930 . S
C14 H11 0.929 . S
C14 C15 1.408 . S
C14 C16 1.396 . S
C15 C14 1.408 . S
C15 C19 1.405 1_655 S
C16 C14 1.396 . S
C16 C17 1.394 1_655 S
C17 H12 0.929 . S
C17 C16 1.394 1_455 S
C17 C18 1.382 . S
C18 C17 1.382 . S
C18 C19 1.392 . S
C18 N20 1.420 . S
C19 H13 0.930 . S
C19 C15 1.405 1_455 S
C19 C18 1.392 . S
N20 C18 1.420 . S
N20 C21 1.244 1_455 S
C21 N20 1.244 1_655 S
H22 C25 0.929 . S
H23 C28 0.929 . S
H24 C30 0.930 . S
C25 H22 0.929 . S
C25 C26 1.395 1_565 S
C25 C27 1.393 1_565 S
C26 C25 1.395 1_545 S
C26 C30 1.417 . S
C27 C25 1.393 1_545 S
C27 C28 1.398 . S
C28 H23 0.929 . S
C28 C27 1.398 . S
C28 C29 1.382 . S
C29 C28 1.382 . S
C29 C30 1.392 . S
C29 N31 1.420 . S
C30 H24 0.930 . S
C30 C26 1.417 . S
C30 C29 1.392 . S
N31 C29 1.420 . S
N31 C32 1.234 1_545 S
C32 N31 1.234 1_565 S
H33 C36 0.929 . S
H34 C39 0.929 . S
H35 C41 0.930 . S
C36 H33 0.929 . S
C36 C37 1.398 . S
C36 C38 1.396 . S
C37 C36 1.398 . S
C37 C41 1.407 . S
C38 C36 1.396 . S
C38 C39 1.394 . S
C39 H34 0.929 . S
C39 C38 1.394 . S
C39 C40 1.382 . S
C40 C39 1.382 . S
C40 C41 1.392 . S
C40 N42 1.420 . S
C41 H35 0.930 . S
C41 C37 1.407 . S
C41 C40 1.392 . S
N42 C40 1.420 . S
N42 C43 1.244 . S
C43 N42 1.244 . S
H44 C47 0.929 . S
H45 C50 0.929 . S
H46 C52 0.930 . S
C47 H44 0.929 . S
C47 C48 1.398 . S
C47 C49 1.396 1_556 S
C48 C47 1.398 . S
C48 C52 1.407 . S
C49 C47 1.396 1_554 S
C49 C50 1.394 . S
C50 H45 0.929 . S
C50 C49 1.394 . S
C50 C51 1.382 1_554 S
C51 C50 1.382 1_556 S
C51 C52 1.392 . S
C51 N53 1.420 . S
C52 H46 0.930 . S
C52 C48 1.407 . S
C52 C51 1.392 . S
N53 C51 1.420 . S
N53 C54 1.244 1_556 S
C54 N53 1.244 1_554 S
H55 C58 0.929 1_655 S
H56 C61 0.929 . S
H57 C63 0.930 1_556 S
C58 H55 0.929 1_455 S
C58 C59 1.398 . S
C58 C60 1.396 . S
C59 C58 1.398 . S
C59 C63 1.407 . S
C60 C58 1.396 . S
C60 C61 1.394 . S
C61 H56 0.929 . S
C61 C60 1.394 . S
C61 C62 1.382 . S
C62 C61 1.382 . S
C62 C63 1.392 . S
C62 N64 1.420 . S
C63 H57 0.930 1_554 S
C63 C59 1.407 . S
C63 C62 1.392 . S
N64 C62 1.420 . S
N64 C65 1.244 . S
C65 N64 1.244 . S
H66 C69 0.929 . S
H67 C72 0.929 . S
H68 C74 0.930 . S
C69 H66 0.929 . S
C69 C70 1.398 1_565 S
C69 C71 1.396 1_565 S
C70 C69 1.398 1_545 S
C70 C74 1.407 . S
C71 C69 1.396 1_545 S
C71 C72 1.396 . S
C72 H67 0.929 . S
C72 C71 1.396 . S
C72 C73 1.382 . S
C73 C72 1.382 . S
C73 C74 1.392 . S
C73 N75 1.420 . S
C74 H68 0.930 . S
C74 C70 1.407 . S
C74 C73 1.392 . S
N75 C73 1.420 . S
N75 C76 1.234 1_545 S
C76 N75 1.234 1_565 S
H77 C80 0.929 . S
H78 C83 0.929 . S
H79 C85 0.930 . S
C80 H77 0.929 . S
C80 C81 1.398 . S
C80 C82 1.396 . S
C81 C80 1.398 . S
C81 C85 1.407 . S
C82 C80 1.396 . S
C82 C83 1.394 . S
C83 H78 0.929 . S
C83 C82 1.394 . S
C83 C84 1.382 . S
C84 C83 1.382 . S
C84 C85 1.392 . S
C84 N86 1.420 . S
C85 H79 0.930 . S
C85 C81 1.407 . S
C85 C84 1.392 . S
N86 C84 1.420 . S
N86 C87 1.244 . S
C87 N86 1.244 . S
Dy88 O91 2.307 1_545 S
Dy88 O93 2.395 1_655 S
Dy88 O94 2.379 . S
Dy88 O96 2.339 . S
Dy88 O98 2.298 . S
Dy88 O102 2.275 1_655 S
Dy88 C110 2.738 . S
Dy89 O92 2.298 . S
Dy89 O95 2.275 1_455 S
Dy89 O97 2.307 1_565 S
Dy89 O99 2.395 1_456 S
Dy89 O100 2.379 . S
Dy89 O103 2.339 . S
Dy89 C119 2.738 1_556 S
C90 O102 1.254 1_565 S
C90 O103 1.257 . S
O91 Dy88 2.307 1_565 S
O91 C101 1.266 . S
O92 Dy89 2.298 . S
O92 C101 1.236 1_455 S
O93 Dy88 2.395 1_455 S
O93 C110 1.255 1_455 S
O94 Dy88 2.379 . S
O94 C110 1.249 . S
O95 Dy89 2.275 1_655 S
O95 C111 1.254 1_565 S
O96 Dy88 2.339 . S
O96 C111 1.257 . S
O97 Dy89 2.307 1_545 S
O97 C112 1.266 . S
O98 Dy88 2.298 . S
O98 C112 1.236 1_655 S
O99 Dy89 2.395 1_654 S
O99 C119 1.255 1_655 S
O100 Dy89 2.379 . S
O100 C119 1.249 1_556 S
C101 O91 1.266 . S
C101 O92 1.236 1_655 S
O102 Dy88 2.275 1_455 S
O102 C90 1.254 1_545 S
O103 Dy89 2.339 . S
O103 C90 1.257 . S
C104 C107 1.344 1_655 S
C104 C108 1.328 . S
C104 C110 1.516 . S
C105 C106 1.304 1_655 S
C105 C109 1.323 . S
C106 C105 1.304 1_455 S
C106 C107 1.371 . S
C106 H120 0.930 . S
C107 C104 1.344 1_455 S
C107 C106 1.371 . S
C107 H121 0.931 . S
C108 C104 1.328 . S
C108 C109 1.433 . S
C108 H122 0.931 . S
C109 C105 1.323 . S
C109 C108 1.433 . S
C109 H123 0.933 . S
C110 Dy88 2.738 . S
C110 O93 1.255 1_655 S
C110 O94 1.249 . S
C110 C104 1.516 . S
C111 O95 1.254 1_545 S
C111 O96 1.257 . S
C112 O97 1.266 . S
C112 O98 1.236 1_455 S
C113 C116 1.344 1_455 S
C113 C117 1.328 . S
C113 C119 1.516 . S
C114 C115 1.304 1_455 S
C114 C118 1.323 . S
C115 C114 1.304 1_655 S
C115 C116 1.371 . S
C115 H124 0.930 . S
C116 C113 1.344 1_655 S
C116 C115 1.371 . S
C116 H125 0.931 . S
C117 C113 1.328 . S
C117 C118 1.433 . S
C117 H126 0.931 . S
C118 C114 1.323 . S
C118 C117 1.433 . S
C118 H127 0.933 . S
C119 Dy89 2.738 1_554 S
C119 O99 1.255 1_455 S
C119 O100 1.249 1_554 S
C119 C113 1.516 . S
H120 C106 0.930 . S
H121 C107 0.931 . S
H122 C108 0.931 . S
H123 C109 0.933 . S
H124 C115 0.930 . S
H125 C116 0.931 . S
H126 C117 0.931 . S
H127 C118 0.933 . S
Dy128 O131 2.307 . S
Dy128 O133 2.395 1_565 S
Dy128 O134 2.379 . S
Dy128 O136 2.339 . S
Dy128 O138 2.298 . S
Dy128 O142 2.275 1_565 S
Dy128 C150 2.738 . S
Dy129 O132 2.298 . S
Dy129 O135 2.275 1_545 S
Dy129 O137 2.307 . S
Dy129 O139 2.395 1_546 S
Dy129 O140 2.379 1_556 S
Dy129 O143 2.339 . S
Dy129 C159 2.738 1_556 S
C130 O142 1.254 . S
C130 O143 1.257 . S
O131 Dy128 2.307 . S
O131 C141 1.266 . S
O132 Dy129 2.298 . S
O132 C141 1.236 1_545 S
O133 Dy128 2.395 1_545 S
O133 C150 1.255 1_545 S
O134 Dy128 2.379 . S
O134 C150 1.249 . S
O135 Dy129 2.275 1_565 S
O135 C151 1.254 . S
O136 Dy128 2.339 . S
O136 C151 1.257 . S
O137 Dy129 2.307 . S
O137 C152 1.266 . S
O138 Dy128 2.298 . S
O138 C152 1.236 1_565 S
O139 Dy129 2.395 1_564 S
O139 C159 1.255 1_565 S
O140 Dy129 2.379 1_554 S
O140 C159 1.249 . S
C141 O131 1.266 . S
C141 O132 1.236 1_565 S
O142 Dy128 2.275 1_545 S
O142 C130 1.254 . S
O143 Dy129 2.339 . S
O143 C130 1.257 . S
C144 C147 1.344 1_565 S
C144 C148 1.328 . S
C144 C150 1.516 . S
C145 C146 1.291 1_565 S
C145 C149 1.323 . S
C146 C145 1.291 1_545 S
C146 C147 1.372 . S
C146 H160 0.942 . S
C147 C144 1.344 1_545 S
C147 C146 1.372 . S
C147 H161 0.931 . S
C148 C144 1.328 . S
C148 C149 1.433 . S
C148 H162 0.931 . S
C149 C145 1.323 . S
C149 C148 1.433 . S
C149 H163 0.933 . S
C150 Dy128 2.738 . S
C150 O133 1.255 1_565 S
C150 O134 1.249 . S
C150 C144 1.516 . S
C151 O135 1.254 . S
C151 O136 1.257 . S
C152 O137 1.266 . S
C152 O138 1.236 1_545 S
C153 C156 1.344 1_545 S
C153 C157 1.328 . S
C153 C159 1.516 . S
C154 C155 1.299 1_545 S
C154 C158 1.323 . S
C155 C154 1.299 1_565 S
C155 C156 1.371 . S
C155 H164 0.935 . S
C156 C153 1.344 1_565 S
C156 C155 1.371 . S
C156 H165 0.931 . S
C157 C153 1.328 . S
C157 C158 1.433 . S
C157 H166 0.931 . S
C158 C154 1.323 . S
C158 C157 1.433 . S
C158 H167 0.933 . S
C159 Dy129 2.738 1_554 S
C159 O139 1.255 1_545 S
C159 O140 1.249 . S
C159 C153 1.516 . S
H160 C146 0.942 . S
H161 C147 0.931 . S
H162 C148 0.931 . S
H163 C149 0.933 . S
H164 C155 0.935 . S
H165 C156 0.931 . S
H166 C157 0.931 . S
H167 C158 0.933 . S
Dy168 O171 2.307 . S
Dy168 O173 2.395 . S
Dy168 O174 2.379 . S
Dy168 O176 2.339 . S
Dy168 O178 2.298 . S
Dy168 O182 2.275 . S
Dy168 C190 2.738 . S
Dy169 O172 2.298 . S
Dy169 O175 2.275 . S
Dy169 O177 2.307 . S
Dy169 O179 2.395 . S
Dy169 O180 2.379 . S
Dy169 O183 2.339 . S
Dy169 C199 2.738 . S
C170 O182 1.254 . S
C170 O183 1.257 . S
O171 Dy168 2.307 . S
O171 C181 1.266 . S
O172 Dy169 2.298 . S
O172 C181 1.236 . S
O173 Dy168 2.395 . S
O173 C190 1.255 . S
O174 Dy168 2.379 . S
O174 C190 1.249 . S
O175 Dy169 2.275 . S
O175 C191 1.254 . S
O176 Dy168 2.339 . S
O176 C191 1.257 . S
O177 Dy169 2.307 . S
O177 C192 1.266 . S
O178 Dy168 2.298 . S
O178 C192 1.236 . S
O179 Dy169 2.395 . S
O179 C199 1.255 . S
O180 Dy169 2.379 . S
O180 C199 1.249 . S
C181 O171 1.266 . S
C181 O172 1.236 . S
O182 Dy168 2.275 . S
O182 C170 1.254 . S
O183 Dy169 2.339 . S
O183 C170 1.257 . S
C184 C187 1.344 1_556 S
C184 C188 1.328 . S
C184 C190 1.516 . S
C185 C186 1.304 . S
C185 C189 1.323 . S
C186 C185 1.304 . S
C186 C187 1.371 . S
C186 H200 0.930 . S
C187 C184 1.344 1_554 S
C187 C186 1.371 . S
C187 H201 0.931 . S
C188 C184 1.328 . S
C188 C189 1.433 1_556 S
C188 H202 0.931 . S
C189 C185 1.323 . S
C189 C188 1.433 1_554 S
C189 H203 0.933 1_554 S
C190 Dy168 2.738 . S
C190 O173 1.255 . S
C190 O174 1.249 . S
C190 C184 1.516 . S
C191 O175 1.254 . S
C191 O176 1.257 . S
C192 O177 1.266 . S
C192 O178 1.236 . S
C193 C196 1.344 . S
C193 C197 1.328 . S
C193 C199 1.516 . S
C194 C195 1.304 . S
C194 C198 1.323 . S
C195 C194 1.304 . S
C195 C196 1.371 . S
C195 H204 0.930 . S
C196 C193 1.344 . S
C196 C195 1.371 . S
C196 H205 0.931 . S
C197 C193 1.328 . S
C197 C198 1.433 . S
C197 H206 0.931 . S
C198 C194 1.323 . S
C198 C197 1.433 . S
C198 H207 0.933 . S
C199 Dy169 2.738 . S
C199 O179 1.255 . S
C199 O180 1.249 . S
C199 C193 1.516 . S
H200 C186 0.930 . S
H201 C187 0.931 . S
H202 C188 0.931 . S
H203 C189 0.933 1_556 S
H204 C195 0.930 . S
H205 C196 0.931 . S
H206 C197 0.931 . S
H207 C198 0.933 . S
Dy208 O211 2.307 1_455 S
Dy208 O213 2.395 . S
Dy208 O214 2.379 . S
Dy208 O216 2.339 . S
Dy208 O218 2.298 . S
Dy208 O222 2.275 . S
Dy208 C230 2.738 . S
Dy209 O212 2.298 . S
Dy209 O215 2.275 . S
Dy209 O217 2.307 1_655 S
Dy209 O219 2.395 1_556 S
Dy209 O220 2.379 1_556 S
Dy209 O223 2.339 . S
Dy209 C239 2.738 1_556 S
C210 O222 1.246 1_655 S
C210 O223 1.267 . S
O211 Dy208 2.307 1_655 S
O211 C221 1.266 . S
O212 Dy209 2.298 . S
O212 C221 1.236 . S
O213 Dy208 2.395 . S
O213 C230 1.255 . S
O214 Dy208 2.379 . S
O214 C230 1.249 . S
O215 Dy209 2.275 . S
O215 C231 1.254 1_655 S
O216 Dy208 2.339 . S
O216 C231 1.257 . S
O217 Dy209 2.307 1_455 S
O217 C232 1.266 . S
O218 Dy208 2.298 . S
O218 C232 1.236 . S
O219 Dy209 2.395 1_554 S
O219 C239 1.255 . S
O220 Dy209 2.379 1_554 S
O220 C239 1.249 . S
C221 O211 1.266 . S
C221 O212 1.236 . S
O222 Dy208 2.275 . S
O222 C210 1.246 1_455 S
O223 Dy209 2.339 . S
O223 C210 1.267 . S
C224 C227 1.344 . S
C224 C228 1.328 . S
C224 C230 1.516 . S
C225 C226 1.304 . S
C225 C229 1.323 . S
C226 C225 1.304 . S
C226 C227 1.371 . S
C226 H240 0.930 . S
C227 C224 1.344 . S
C227 C226 1.371 . S
C227 H241 0.931 . S
C228 C224 1.328 . S
C228 C229 1.433 . S
C228 H242 0.931 . S
C229 C225 1.323 . S
C229 C228 1.433 . S
C229 H243 0.933 . S
C230 Dy208 2.738 . S
C230 O213 1.255 . S
C230 O214 1.249 . S
C230 C224 1.516 . S
C231 O215 1.254 1_455 S
C231 O216 1.257 . S
C232 O217 1.266 . S
C232 O218 1.236 . S
C233 C236 1.344 . S
C233 C237 1.328 . S
C233 C239 1.516 . S
C234 C235 1.304 . S
C234 C238 1.323 . S
C235 C234 1.304 . S
C235 C236 1.371 . S
C235 H244 0.930 . S
C236 C233 1.344 . S
C236 C235 1.371 . S
C236 H245 0.931 . S
C237 C233 1.328 . S
C237 C238 1.433 . S
C237 H246 0.931 . S
C238 C234 1.323 . S
C238 C237 1.433 . S
C238 H247 0.933 . S
C239 Dy209 2.738 1_554 S
C239 O219 1.255 . S
C239 O220 1.249 . S
C239 C233 1.516 . S
H240 C226 0.930 . S
H241 C227 0.931 . S
H242 C228 0.931 . S
H243 C229 0.933 . S
H244 C235 0.930 . S
H245 C236 0.931 . S
H246 C237 0.931 . S
H247 C238 0.933 . S
H248 C254 0.930 . S
H249 C257 0.930 . S
H250 C258 0.930 . S
H251 C259 0.930 . S
H252 C262 0.930 . S
H253 C263 0.930 . S
C254 H248 0.930 . S
C254 C255 1.354 1_565 S
C254 C256 1.415 . S
C255 C254 1.354 1_545 S
C255 C257 1.420 . S
C256 C254 1.415 . S
C256 C261 1.425 1_565 S
C256 C263 1.409 . S
C257 H249 0.930 . S
C257 C255 1.420 . S
C257 C258 1.362 . S
C258 H250 0.930 . S
C258 C257 1.362 . S
C258 C261 1.409 . S
C259 H251 0.930 . S
C259 C260 1.355 . S
C259 C261 1.415 . S
C260 C259 1.355 . S
C260 C262 1.419 1_545 S
C261 C256 1.425 1_545 S
C261 C258 1.409 . S
C261 C259 1.415 . S
C262 H252 0.930 . S
C262 C260 1.419 1_565 S
C262 C263 1.362 . S
C263 H253 0.930 . S
C263 C256 1.409 . S
C263 C262 1.362 . S
H264 C270 0.930 . S
H265 C273 0.930 . S
H266 C274 0.930 . S
H267 C275 0.930 . S
H268 C278 0.930 . S
H269 C279 0.930 . S
C270 H264 0.930 . S
C270 C271 1.355 . S
C270 C272 1.415 . S
C271 C270 1.355 . S
C271 C273 1.419 . S
C272 C270 1.415 . S
C272 C277 1.425 . S
C272 C279 1.409 . S
C273 H265 0.930 . S
C273 C271 1.419 . S
C273 C274 1.362 . S
C274 H266 0.930 . S
C274 C273 1.362 . S
C274 C277 1.409 . S
C275 H267 0.930 . S
C275 C276 1.355 . S
C275 C277 1.415 . S
C276 C275 1.355 . S
C276 C278 1.419 . S
C277 C272 1.425 . S
C277 C274 1.409 . S
C277 C275 1.415 . S
C278 H268 0.930 . S
C278 C276 1.419 . S
C278 C279 1.362 . S
C279 H269 0.930 . S
C279 C272 1.409 . S
C279 C278 1.362 . S
H280 C286 0.930 . S
H281 C289 0.930 . S
H282 C290 0.930 . S
H283 C291 0.930 . S
H284 C294 0.930 . S
H285 C295 0.930 . S
C286 H280 0.930 . S
C286 C287 1.355 . S
C286 C288 1.415 . S
C287 C286 1.355 . S
C287 C289 1.419 . S
C288 C286 1.415 . S
C288 C293 1.425 . S
C288 C295 1.409 . S
C289 H281 0.930 . S
C289 C287 1.419 . S
C289 C290 1.362 . S
C290 H282 0.930 . S
C290 C289 1.362 . S
C290 C293 1.409 . S
C291 H283 0.930 . S
C291 C292 1.355 . S
C291 C293 1.415 . S
C292 C291 1.355 . S
C292 C294 1.419 . S
C293 C288 1.425 . S
C293 C290 1.409 . S
C293 C291 1.415 . S
C294 H284 0.930 . S
C294 C292 1.419 . S
C294 C295 1.362 . S
C295 H285 0.930 . S
C295 C288 1.409 . S
C295 C294 1.362 . S
H296 C302 0.930 . S
H297 C305 0.930 . S
H298 C306 0.930 . S
H299 C307 0.930 . S
H300 C310 0.930 . S
H301 C311 0.930 . S
C302 H296 0.930 . S
C302 C303 1.355 . S
C302 C304 1.415 . S
C303 C302 1.355 . S
C303 C305 1.419 1_455 S
C304 C302 1.415 . S
C304 C309 1.425 1_455 S
C304 C311 1.409 . S
C305 H297 0.930 . S
C305 C303 1.419 1_655 S
C305 C306 1.362 . S
C306 H298 0.930 . S
C306 C305 1.362 . S
C306 C309 1.409 . S
C307 H299 0.930 . S
C307 C308 1.355 1_655 S
C307 C309 1.415 . S
C308 C307 1.355 1_455 S
C308 C310 1.419 . S
C309 C304 1.425 1_655 S
C309 C306 1.409 . S
C309 C307 1.415 . S
C310 H300 0.930 . S
C310 C308 1.419 . S
C310 C311 1.362 . S
C311 H301 0.930 . S
C311 C304 1.409 . S
C311 C310 1.362 . S
H312 C318 0.930 . S
H313 C321 0.930 . S
H314 C322 0.930 . S
H315 C323 0.930 1_556 S
H316 C326 0.930 . S
H317 C327 0.930 . S
C318 H312 0.930 . S
C318 C319 1.355 1_545 S
C318 C320 1.415 . S
C319 C318 1.355 1_565 S
C319 C321 1.419 . S
C320 C318 1.415 . S
C320 C325 1.425 1_545 S
C320 C327 1.409 . S
C321 H313 0.930 . S
C321 C319 1.419 . S
C321 C322 1.362 . S
C322 H314 0.930 . S
C322 C321 1.362 . S
C322 C325 1.409 . S
C323 H315 0.930 1_554 S
C323 C324 1.355 1_565 S
C323 C325 1.415 . S
C324 C323 1.355 1_545 S
C324 C326 1.419 . S
C325 C320 1.425 1_565 S
C325 C322 1.409 . S
C325 C323 1.415 . S
C326 H316 0.930 . S
C326 C324 1.419 . S
C326 C327 1.362 . S
C327 H317 0.930 . S
C327 C320 1.409 . S
C327 C326 1.362 . S
H328 C334 0.930 . S
H329 C337 0.930 . S
H330 C338 0.930 . S
H331 C339 0.930 . S
H332 C342 0.930 . S
H333 C343 0.930 . S
C334 H328 0.930 . S
C334 C335 1.355 . S
C334 C336 1.415 . S
C335 C334 1.355 . S
C335 C337 1.419 . S
C336 C334 1.415 . S
C336 C341 1.425 . S
C336 C343 1.409 1_554 S
C337 H329 0.930 . S
C337 C335 1.419 . S
C337 C338 1.362 . S
C338 H330 0.930 . S
C338 C337 1.362 . S
C338 C341 1.409 . S
C339 H331 0.930 . S
C339 C340 1.355 . S
C339 C341 1.415 1_556 S
C340 C339 1.355 . S
C340 C342 1.419 . S
C341 C336 1.425 . S
C341 C338 1.409 . S
C341 C339 1.415 1_554 S
C342 H332 0.930 . S
C342 C340 1.419 . S
C342 C343 1.362 . S
C343 H333 0.930 . S
C343 C336 1.409 1_556 S
C343 C342 1.362 . S
H344 C350 0.930 . S
H345 C353 0.930 . S
H346 C354 0.930 . S
H347 C355 0.930 . S
H348 C358 0.930 . S
H349 C359 0.930 . S
C350 H344 0.930 . S
C350 C351 1.355 . S
C350 C352 1.415 . S
C351 C350 1.355 . S
C351 C353 1.419 . S
C352 C350 1.415 . S
C352 C357 1.425 . S
C352 C359 1.409 . S
C353 H345 0.930 . S
C353 C351 1.419 . S
C353 C354 1.362 . S
C354 H346 0.930 . S
C354 C353 1.362 . S
C354 C357 1.409 . S
C355 H347 0.930 . S
C355 C356 1.355 . S
C355 C357 1.415 . S
C356 C355 1.355 . S
C356 C358 1.419 . S
C357 C352 1.425 . S
C357 C354 1.409 . S
C357 C355 1.415 . S
C358 H348 0.930 . S
C358 C356 1.419 . S
C358 C359 1.362 . S
C359 H349 0.930 . S
C359 C352 1.409 . S
C359 C358 1.362 . S
H360 C366 0.930 . S
H361 C369 0.930 . S
H362 C370 0.930 . S
H363 C371 0.930 . S
H364 C374 0.930 1_556 S
H365 C375 0.930 . S
C366 H360 0.930 . S
C366 C367 1.355 . S
C366 C368 1.415 . S
C367 C366 1.355 . S
C367 C369 1.419 1_655 S
C368 C366 1.415 . S
C368 C373 1.425 1_655 S
C368 C375 1.409 . S
C369 H361 0.930 . S
C369 C367 1.419 1_455 S
C369 C370 1.362 . S
C370 H362 0.930 . S
C370 C369 1.362 . S
C370 C373 1.409 . S
C371 H363 0.930 . S
C371 C372 1.355 1_455 S
C371 C373 1.415 . S
C372 C371 1.355 1_655 S
C372 C374 1.419 . S
C373 C368 1.425 1_455 S
C373 C370 1.409 . S
C373 C371 1.415 . S
C374 H364 0.930 1_554 S
C374 C372 1.419 . S
C374 C375 1.362 . S
C375 H365 0.930 . S
C375 C368 1.409 . S
C375 C374 1.362 . S
H376 C382 0.930 . S
H377 C385 0.930 . S
H378 C386 0.930 . S
H379 C387 0.920 1_455 S
H380 C390 0.930 . S
H381 C391 0.930 . S
C382 H376 0.930 . S
C382 C383 1.355 1_655 S
C382 C384 1.415 . S
C383 C382 1.355 1_455 S
C383 C385 1.419 . S
C384 C382 1.415 . S
C384 C389 1.425 1_655 S
C384 C391 1.409 . S
C385 H377 0.930 . S
C385 C383 1.419 . S
C385 C386 1.362 . S
C386 H378 0.930 . S
C386 C385 1.362 . S
C386 C389 1.409 . S
C387 H379 0.920 1_655 S
C387 C388 1.365 . S
C387 C389 1.413 1_655 S
C388 C387 1.365 . S
C388 C390 1.419 . S
C389 C384 1.425 1_455 S
C389 C386 1.409 . S
C389 C387 1.413 1_455 S
C390 H380 0.930 . S
C390 C388 1.419 . S
C390 C391 1.362 . S
C391 H381 0.930 . S
C391 C384 1.409 . S
C391 C390 1.362 . S
H392 C398 0.930 . S
H393 C401 0.930 . S
H394 C402 0.930 . S
H395 C403 0.930 1_545 S
H396 C406 0.930 . S
H397 C407 0.930 . S
C398 H392 0.930 . S
C398 C399 1.355 1_565 S
C398 C400 1.415 . S
C399 C398 1.355 1_545 S
C399 C401 1.419 . S
C400 C398 1.415 . S
C400 C405 1.425 . S
C400 C407 1.409 . S
C401 H393 0.930 . S
C401 C399 1.419 . S
C401 C402 1.362 . S
C402 H394 0.930 . S
C402 C401 1.362 . S
C402 C405 1.409 1_545 S
C403 H395 0.930 1_565 S
C403 C404 1.355 . S
C403 C405 1.415 . S
C404 C403 1.355 . S
C404 C406 1.419 . S
C405 C400 1.425 . S
C405 C402 1.409 1_565 S
C405 C403 1.415 . S
C406 H396 0.930 . S
C406 C404 1.419 . S
C406 C407 1.362 . S
C407 H397 0.930 . S
C407 C400 1.409 . S
C407 C406 1.362 . S
H408 C414 0.930 . S
H409 C417 0.930 . S
H410 C418 0.930 . S
H411 C419 0.930 . S
H412 C422 0.930 . S
H413 C423 0.930 . S
C414 H408 0.930 . S
C414 C415 1.355 . S
C414 C416 1.415 . S
C415 C414 1.355 . S
C415 C417 1.419 . S
C416 C414 1.415 . S
C416 C421 1.425 . S
C416 C423 1.409 . S
C417 H409 0.930 . S
C417 C415 1.419 . S
C417 C418 1.362 . S
C418 H410 0.930 . S
C418 C417 1.362 . S
C418 C421 1.409 . S
C419 H411 0.930 . S
C419 C420 1.355 . S
C419 C421 1.415 . S
C420 C419 1.355 . S
C420 C422 1.419 . S
C421 C416 1.425 . S
C421 C418 1.409 . S
C421 C419 1.415 . S
C422 H412 0.930 . S
C422 C420 1.419 . S
C422 C423 1.362 . S
C423 H413 0.930 . S
C423 C416 1.409 . S
C423 C422 1.362 . S
H424 C430 0.930 . S
H425 C433 0.930 . S
H426 C434 0.930 . S
H427 C435 0.930 . S
H428 C438 0.930 . S
H429 C439 0.930 . S
C430 H424 0.930 . S
C430 C431 1.355 . S
C430 C432 1.415 . S
C431 C430 1.355 . S
C431 C433 1.419 . S
C432 C430 1.415 . S
C432 C437 1.425 . S
C432 C439 1.409 . S
C433 H425 0.930 . S
C433 C431 1.419 . S
C433 C434 1.362 . S
C434 H426 0.930 . S
C434 C433 1.362 . S
C434 C437 1.409 . S
C435 H427 0.930 . S
C435 C436 1.355 . S
C435 C437 1.415 . S
C436 C435 1.355 . S
C436 C438 1.419 . S
C437 C432 1.425 . S
C437 C434 1.409 . S
C437 C435 1.415 . S
C438 H428 0.930 . S
C438 C436 1.419 . S
C438 C439 1.362 . S
C439 H429 0.930 . S
C439 C432 1.409 . S
C439 C438 1.362 . S
H440 C446 0.930 . S
H441 C449 0.930 . S
H442 C450 0.930 . S
H443 C451 0.930 . S
H444 C454 0.930 . S
H445 C455 0.930 . S
C446 H440 0.930 . S
C446 C447 1.355 . S
C446 C448 1.415 . S
C447 C446 1.355 . S
C447 C449 1.419 1_655 S
C448 C446 1.415 . S
C448 C453 1.425 1_655 S
C448 C455 1.409 . S
C449 H441 0.930 . S
C449 C447 1.419 1_455 S
C449 C450 1.362 . S
C450 H442 0.930 . S
C450 C449 1.362 . S
C450 C453 1.409 . S
C451 H443 0.930 . S
C451 C452 1.355 . S
C451 C453 1.415 . S
C452 C451 1.355 . S
C452 C454 1.419 1_455 S
C453 C448 1.425 1_455 S
C453 C450 1.409 . S
C453 C451 1.415 . S
C454 H444 0.930 . S
C454 C452 1.419 1_655 S
C454 C455 1.362 . S
C455 H445 0.930 . S
C455 C448 1.409 . S
C455 C454 1.362 . S
H456 C462 0.930 . S
H457 C465 0.929 . S
H458 C466 0.930 . S
H459 C467 0.930 . S
H460 C470 0.930 . S
H461 C471 0.930 . S
C462 H456 0.930 . S
C462 C463 1.355 . S
C462 C464 1.415 . S
C463 C462 1.355 . S
C463 C465 1.419 1_545 S
C464 C462 1.415 . S
C464 C469 1.425 . S
C464 C471 1.409 . S
C465 H457 0.929 . S
C465 C463 1.419 1_565 S
C465 C466 1.362 1_565 S
C466 H458 0.930 . S
C466 C465 1.362 1_545 S
C466 C469 1.409 . S
C467 H459 0.930 . S
C467 C468 1.355 . S
C467 C469 1.415 . S
C468 C467 1.355 . S
C468 C470 1.419 . S
C469 C464 1.425 . S
C469 C466 1.409 . S
C469 C467 1.415 . S
C470 H460 0.930 . S
C470 C468 1.419 . S
C470 C471 1.362 . S
C471 H461 0.930 . S
C471 C464 1.409 . S
C471 C470 1.362 . S
H472 C478 0.930 . S
H473 C481 0.930 . S
H474 C482 0.930 . S
H475 C483 0.930 . S
H476 C486 0.930 . S
H477 C487 0.930 . S
C478 H472 0.930 . S
C478 C479 1.355 . S
C478 C480 1.415 . S
C479 C478 1.355 . S
C479 C481 1.419 . S
C480 C478 1.415 . S
C480 C485 1.425 . S
C480 C487 1.409 . S
C481 H473 0.930 . S
C481 C479 1.419 . S
C481 C482 1.362 . S
C482 H474 0.930 . S
C482 C481 1.362 . S
C482 C485 1.409 . S
C483 H475 0.930 . S
C483 C484 1.355 . S
C483 C485 1.415 . S
C484 C483 1.355 . S
C484 C486 1.419 . S
C485 C480 1.425 . S
C485 C482 1.409 . S
C485 C483 1.415 . S
C486 H476 0.930 . S
C486 C484 1.419 . S
C486 C487 1.362 . S
C487 H477 0.930 . S
C487 C480 1.409 . S
C487 C486 1.362 . S
H488 C494 0.930 . S
H489 C497 0.930 . S
H490 C498 0.930 . S
H491 C499 0.930 . S
H492 C502 0.930 . S
H493 C503 0.930 . S
C494 H488 0.930 . S
C494 C495 1.355 . S
C494 C496 1.415 . S
C495 C494 1.355 . S
C495 C497 1.419 . S
C496 C494 1.415 . S
C496 C501 1.425 . S
C496 C503 1.409 . S
C497 H489 0.930 . S
C497 C495 1.419 . S
C497 C498 1.362 . S
C498 H490 0.930 . S
C498 C497 1.362 . S
C498 C501 1.409 . S
C499 H491 0.930 . S
C499 C500 1.355 . S
C499 C501 1.415 . S
C500 C499 1.355 . S
C500 C502 1.419 . S
C501 C496 1.425 . S
C501 C498 1.409 . S
C501 C499 1.415 . S
C502 H492 0.930 . S
C502 C500 1.419 . S
C502 C503 1.362 . S
C503 H493 0.930 . S
C503 C496 1.409 . S
C503 C502 1.362 . S
H504 C510 0.930 . S
H505 C513 0.930 . S
H506 C514 0.930 . S
H507 C515 0.930 1_554 S
H508 C518 0.930 . S
H509 C519 0.930 . S
C510 H504 0.930 . S
C510 C511 1.355 . S
C510 C512 1.415 . S
C511 C510 1.355 . S
C511 C513 1.419 1_456 S
C512 C510 1.415 . S
C512 C517 1.425 1_455 S
C512 C519 1.409 . S
C513 H505 0.930 . S
C513 C511 1.419 1_654 S
C513 C514 1.362 . S
C514 H506 0.930 . S
C514 C513 1.362 . S
C514 C517 1.409 1_554 S
C515 H507 0.930 1_556 S
C515 C516 1.355 1_655 S
C515 C517 1.415 . S
C516 C515 1.355 1_455 S
C516 C518 1.419 . S
C517 C512 1.425 1_655 S
C517 C514 1.409 1_556 S
C517 C515 1.415 . S
C518 H508 0.930 . S
C518 C516 1.419 . S
C518 C519 1.362 . S
C519 H509 0.930 . S
C519 C512 1.409 . S
C519 C518 1.362 . S
H520 C526 0.930 1_556 S
H521 C529 0.930 . S
H522 C530 0.930 . S
H523 C531 0.930 . S
H524 C534 0.930 . S
H525 C535 0.930 . S
C526 H520 0.930 1_554 S
C526 C527 1.355 1_565 S
C526 C528 1.415 1_554 S
C527 C526 1.355 1_545 S
C527 C529 1.419 . S
C528 C526 1.415 1_556 S
C528 C533 1.425 1_566 S
C528 C535 1.409 . S
C529 H521 0.930 . S
C529 C527 1.419 . S
C529 C530 1.362 . S
C530 H522 0.930 . S
C530 C529 1.362 . S
C530 C533 1.409 . S
C531 H523 0.930 . S
C531 C532 1.355 1_554 S
C531 C533 1.415 . S
C532 C531 1.355 1_556 S
C532 C534 1.419 1_545 S
C533 C528 1.425 1_544 S
C533 C530 1.409 . S
C533 C531 1.415 . S
C534 H524 0.930 . S
C534 C532 1.419 1_565 S
C534 C535 1.362 . S
C535 H525 0.930 . S
C535 C528 1.409 . S
C535 C534 1.362 . S
H536 C542 0.930 . S
H537 C545 0.930 . S
H538 C546 0.930 . S
H539 C547 0.930 . S
H540 C550 0.930 . S
H541 C551 0.930 . S
C542 H536 0.930 . S
C542 C543 1.355 . S
C542 C544 1.415 . S
C543 C542 1.355 . S
C543 C545 1.419 . S
C544 C542 1.415 . S
C544 C549 1.425 . S
C544 C551 1.409 . S
C545 H537 0.930 . S
C545 C543 1.419 . S
C545 C546 1.362 . S
C546 H538 0.930 . S
C546 C545 1.362 . S
C546 C549 1.409 . S
C547 H539 0.930 . S
C547 C548 1.355 . S
C547 C549 1.415 . S
C548 C547 1.355 . S
C548 C550 1.419 . S
C549 C544 1.425 . S
C549 C546 1.409 . S
C549 C547 1.415 . S
C550 H540 0.930 . S
C550 C548 1.419 . S
C550 C551 1.362 . S
C551 H541 0.930 . S
C551 C544 1.409 . S
C551 C550 1.362 . S
H552 C558 0.930 . S
H553 C561 0.930 . S
H554 C562 0.930 . S
H555 C563 0.930 . S
H556 C566 0.930 1_554 S
H557 C567 0.930 1_554 S
C558 H552 0.930 . S
C558 C559 1.355 . S
C558 C560 1.415 . S
C559 C558 1.355 . S
C559 C561 1.419 . S
C560 C558 1.415 . S
C560 C565 1.425 . S
C560 C567 1.409 . S
C561 H553 0.930 . S
C561 C559 1.419 . S
C561 C562 1.362 . S
C562 H554 0.930 . S
C562 C561 1.362 . S
C562 C565 1.409 . S
C563 H555 0.930 . S
C563 C564 1.355 . S
C563 C565 1.415 . S
C564 C563 1.355 . S
C564 C566 1.419 . S
C565 C560 1.425 . S
C565 C562 1.409 . S
C565 C563 1.415 . S
C566 H556 0.930 1_556 S
C566 C564 1.419 . S
C566 C567 1.362 . S
C567 H557 0.930 1_556 S
C567 C560 1.409 . S
C567 C566 1.362 . S
H568 C574 0.930 . S
H569 C577 0.930 . S
H570 C578 0.930 . S
H571 C579 0.930 . S
H572 C582 0.930 . S
H573 C583 0.930 . S
C574 H568 0.930 . S
C574 C575 1.364 . S
C574 C576 1.415 . S
C575 C574 1.364 . S
C575 C577 1.406 1_655 S
C576 C574 1.415 . S
C576 C581 1.425 1_655 S
C576 C583 1.409 . S
C577 H569 0.930 . S
C577 C575 1.406 1_455 S
C577 C578 1.362 . S
C578 H570 0.930 . S
C578 C577 1.362 . S
C578 C581 1.409 . S
C579 H571 0.930 . S
C579 C580 1.355 1_455 S
C579 C581 1.415 . S
C580 C579 1.355 1_655 S
C580 C582 1.419 . S
C581 C576 1.425 1_455 S
C581 C578 1.409 . S
C581 C579 1.415 . S
C582 H572 0.930 . S
C582 C580 1.419 . S
C582 C583 1.362 . S
C583 H573 0.930 . S
C583 C576 1.409 . S
C583 C582 1.362 . S
H584 C590 0.930 . S
H585 C593 0.930 . S
H586 C594 0.930 . S
H587 C595 0.930 . S
H588 C598 0.930 . S
H589 C599 0.930 . S
C590 H584 0.930 . S
C590 C591 1.355 1_545 S
C590 C592 1.419 . S
C591 C590 1.355 1_565 S
C591 C593 1.419 . S
C592 C590 1.419 . S
C592 C597 1.418 1_545 S
C592 C599 1.412 . S
C593 H585 0.930 . S
C593 C591 1.419 . S
C593 C594 1.362 . S
C594 H586 0.930 . S
C594 C593 1.362 . S
C594 C597 1.409 . S
C595 H587 0.930 . S
C595 C596 1.355 . S
C595 C597 1.415 . S
C596 C595 1.355 . S
C596 C598 1.419 1_565 S
C597 C592 1.418 1_565 S
C597 C594 1.409 . S
C597 C595 1.415 . S
C598 H588 0.930 . S
C598 C596 1.419 1_545 S
C598 C599 1.362 . S
C599 H589 0.930 . S
C599 C592 1.412 . S
C599 C598 1.362 . S
H600 C606 0.930 . S
H601 C609 0.930 . S
H602 C610 0.930 . S
H603 C611 0.930 . S
H604 C614 0.930 . S
H605 C615 0.930 . S
C606 H600 0.930 . S
C606 C607 1.355 . S
C606 C608 1.415 . S
C607 C606 1.355 . S
C607 C609 1.419 . S
C608 C606 1.415 . S
C608 C613 1.425 . S
C608 C615 1.409 . S
C609 H601 0.930 . S
C609 C607 1.419 . S
C609 C610 1.362 . S
C610 H602 0.930 . S
C610 C609 1.362 . S
C610 C613 1.409 . S
C611 H603 0.930 . S
C611 C612 1.355 . S
C611 C613 1.415 . S
C612 C611 1.355 . S
C612 C614 1.419 . S
C613 C608 1.425 . S
C613 C610 1.409 . S
C613 C611 1.415 . S
C614 H604 0.930 . S
C614 C612 1.419 . S
C614 C615 1.362 . S
C615 H605 0.930 . S
C615 C608 1.409 . S
C615 C614 1.362 . S
H616 C622 0.930 . S
H617 C625 0.930 . S
H618 C626 0.930 . S
H619 C627 0.930 . S
H620 C630 0.930 . S
H621 C631 0.930 . S
C622 H616 0.930 . S
C622 C623 1.355 . S
C622 C624 1.415 . S
C623 C622 1.355 . S
C623 C625 1.419 . S
C624 C622 1.415 . S
C624 C629 1.425 . S
C624 C631 1.409 . S
C625 H617 0.930 . S
C625 C623 1.419 . S
C625 C626 1.362 . S
C626 H618 0.930 . S
C626 C625 1.362 . S
C626 C629 1.409 . S
C627 H619 0.930 . S
C627 C628 1.355 . S
C627 C629 1.415 . S
C628 C627 1.355 . S
C628 C630 1.419 . S
C629 C624 1.425 . S
C629 C626 1.409 . S
C629 C627 1.415 . S
C630 H620 0.930 . S
C630 C628 1.419 . S
C630 C631 1.362 . S
C631 H621 0.930 . S
C631 C624 1.409 . S
C631 C630 1.362 . S
C255 C76 2.061 1_545 S
C260 C90 2.104 1_545 S
C276 C130 2.034 . S
C271 C87 2.011 . S
C292 C194 1.913 . S
C287 C54 1.772 . S
C308 C210 1.754 1_455 S
C303 C65 1.506 . S
C324 C111 2.098 1_554 S
C319 C32 2.006 . S
C335 C43 2.003 . S
C340 C151 2.050 . S
C351 C10 1.869 . S
C356 C185 1.978 . S
C367 C21 1.616 . S
C372 C231 1.782 1_654 S
C388 C105 0.612 . S
C383 C60 0.563 . S
C404 C145 0.860 . S
C399 C71 0.828 . S
C420 C181 0.937 . S
C415 C82 0.935 . S
C431 C49 0.653 . S
C436 C225 0.621 . S
C447 C16 0.522 . S
C452 C114 0.473 . S
C468 C154 0.764 . S
C463 C27 0.726 . S
C484 C192 0.882 1_554 S
C479 C38 0.884 . S
C495 C5 0.811 . S
C500 C234 0.822 . S
C511 C59 1.832 1_556 S
C516 C112 2.087 . S
C527 C70 1.894 . S
C532 C152 2.107 . S
C548 C170 1.691 1_554 S
C543 C81 1.683 . S
C564 C232 2.487 . S
C559 C48 2.238 . S
C575 C15 1.807 . S
C580 C101 2.091 . S
C596 C141 2.132 . S
C591 C26 1.968 1_565 S
C612 C191 1.654 . S
C607 C37 1.619 . S
C623 C4 2.183 . S
C628 C221 2.478 . S
