# Generated by pormake.
# Topology ctn, (3,4)-cn, num edge types: 1
# Building blocks:
#     Node 0, Type 0, BuildingBlock: KAKCAD_clean_linker_0, # of connection points: 3
#     Node 1, Type 0, BuildingBlock: KAKCAD_clean_linker_0, # of connection points: 3
#     Node 2, Type 0, BuildingBlock: KAKCAD_clean_linker_0, # of connection points: 3
#     Node 3, Type 0, BuildingBlock: KAKCAD_clean_linker_0, # of connection points: 3
#     Node 4, Type 0, BuildingBlock: KAKCAD_clean_linker_0, # of connection points: 3
#     Node 5, Type 0, BuildingBlock: KAKCAD_clean_linker_0, # of connection points: 3
#     Node 6, Type 0, BuildingBlock: KAKCAD_clean_linker_0, # of connection points: 3
#     Node 7, Type 0, BuildingBlock: KAKCAD_clean_linker_0, # of connection points: 3
#     Node 8, Type 0, BuildingBlock: KAKCAD_clean_linker_0, # of connection points: 3
#     Node 9, Type 0, BuildingBlock: KAKCAD_clean_linker_0, # of connection points: 3
#     Node 10, Type 0, BuildingBlock: KAKCAD_clean_linker_0, # of connection points: 3
#     Node 11, Type 0, BuildingBlock: KAKCAD_clean_linker_0, # of connection points: 3
#     Node 12, Type 0, BuildingBlock: KAKCAD_clean_linker_0, # of connection points: 3
#     Node 13, Type 0, BuildingBlock: KAKCAD_clean_linker_0, # of connection points: 3
#     Node 14, Type 0, BuildingBlock: KAKCAD_clean_linker_0, # of connection points: 3
#     Node 15, Type 0, BuildingBlock: KAKCAD_clean_linker_0, # of connection points: 3
#     Node 16, Type 1, BuildingBlock: NAHDIM_clean_sbu_0, # of connection points: 4
#     Node 17, Type 1, BuildingBlock: NAHDIM_clean_sbu_0, # of connection points: 4
#     Node 18, Type 1, BuildingBlock: NAHDIM_clean_sbu_0, # of connection points: 4
#     Node 19, Type 1, BuildingBlock: NAHDIM_clean_sbu_0, # of connection points: 4
#     Node 20, Type 1, BuildingBlock: NAHDIM_clean_sbu_0, # of connection points: 4
#     Node 21, Type 1, BuildingBlock: NAHDIM_clean_sbu_0, # of connection points: 4
#     Node 22, Type 1, BuildingBlock: NAHDIM_clean_sbu_0, # of connection points: 4
#     Node 23, Type 1, BuildingBlock: NAHDIM_clean_sbu_0, # of connection points: 4
#     Node 24, Type 1, BuildingBlock: NAHDIM_clean_sbu_0, # of connection points: 4
#     Node 25, Type 1, BuildingBlock: NAHDIM_clean_sbu_0, # of connection points: 4
#     Node 26, Type 1, BuildingBlock: NAHDIM_clean_sbu_0, # of connection points: 4
#     Node 27, Type 1, BuildingBlock: NAHDIM_clean_sbu_0, # of connection points: 4
#     Edge 28, Type (0, 1), None
#     Edge 29, Type (0, 1), None
#     Edge 30, Type (0, 1), None
#     Edge 31, Type (0, 1), None
#     Edge 32, Type (0, 1), None
#     Edge 33, Type (0, 1), None
#     Edge 34, Type (0, 1), None
#     Edge 35, Type (0, 1), None
#     Edge 36, Type (0, 1), None
#     Edge 37, Type (0, 1), None
#     Edge 38, Type (0, 1), None
#     Edge 39, Type (0, 1), None
#     Edge 40, Type (0, 1), None
#     Edge 41, Type (0, 1), None
#     Edge 42, Type (0, 1), None
#     Edge 43, Type (0, 1), None
#     Edge 44, Type (0, 1), None
#     Edge 45, Type (0, 1), None
#     Edge 46, Type (0, 1), None
#     Edge 47, Type (0, 1), None
#     Edge 48, Type (0, 1), None
#     Edge 49, Type (0, 1), None
#     Edge 50, Type (0, 1), None
#     Edge 51, Type (0, 1), None
#     Edge 52, Type (0, 1), None
#     Edge 53, Type (0, 1), None
#     Edge 54, Type (0, 1), None
#     Edge 55, Type (0, 1), None
#     Edge 56, Type (0, 1), None
#     Edge 57, Type (0, 1), None
#     Edge 58, Type (0, 1), None
#     Edge 59, Type (0, 1), None
#     Edge 60, Type (0, 1), None
#     Edge 61, Type (0, 1), None
#     Edge 62, Type (0, 1), None
#     Edge 63, Type (0, 1), None
#     Edge 64, Type (0, 1), None
#     Edge 65, Type (0, 1), None
#     Edge 66, Type (0, 1), None
#     Edge 67, Type (0, 1), None
#     Edge 68, Type (0, 1), None
#     Edge 69, Type (0, 1), None
#     Edge 70, Type (0, 1), None
#     Edge 71, Type (0, 1), None
#     Edge 72, Type (0, 1), None
#     Edge 73, Type (0, 1), None
#     Edge 74, Type (0, 1), None
#     Edge 75, Type (0, 1), None
# Relax obj value: 0.002
# Max RMSD: 0.031
# Mean RMSD: 0.017
data_MOF--net-ctn--node1-NAHDIM_clean_sbu_0--node2-KAKCAD_clean_linker_0--edge1-none
_symmetry_space_group_name_H-M    P1
_symmetry_Int_Tables_number       1
_symmetry_cell_setting            triclinic
loop_
_symmetry_equiv_pos_as_xyz
'x, y, z'
_cell_length_a     36.623165
_cell_length_b     36.888998
_cell_length_c     36.475311
_cell_angle_alpha  91.647528
_cell_angle_beta   90.452181
_cell_angle_gamma 92.931537
loop_
_atom_site_label
_atom_site_type_symbol
_atom_site_fract_x
_atom_site_fract_y
_atom_site_fract_z
_atom_type_partial_charge
C0 C 0.03303 0.14468 0.94039 0.0
C1 C 0.02263 0.17651 0.95877 0.0
C2 C 0.03923 0.11344 0.95988 0.0
C3 C 0.03518 0.11334 0.99818 0.0
C4 C 0.02533 0.14537 0.01657 0.0
C5 C 0.01909 0.17656 0.99711 0.0
C6 C 0.0405 0.07984 0.01889 0.0
C7 C 0.06948 0.05753 0.01055 0.0
C8 C 0.07463 0.02592 0.03023 0.0
C9 C 0.05038 0.01687 0.05865 0.0
C10 C 0.02124 0.03884 0.0674 0.0
C11 C 0.01646 0.07011 0.04719 0.0
C12 C 0.99586 0.02937 0.09775 0.0
C13 C 0.98386 0.9931 0.10318 0.0
C14 C 0.98347 0.05664 0.12163 0.0
C15 C 0.95974 0.04789 0.15022 0.0
C16 C 0.948 0.01161 0.15579 0.0
C17 C 0.10543 0.00247 0.02124 0.0
C18 C 0.11462 0.99494 0.98453 0.0
C19 C 0.12575 0.98726 0.04927 0.0
C20 C 0.15443 0.96494 0.04082 0.0
C21 C 0.16354 0.95735 0.00412 0.0
C22 C 0.14336 0.97267 0.97607 0.0
C23 C 0.96027 0.98432 0.13192 0.0
H24 H 0.03597 0.1437 0.91086 0.0
H25 H 0.04645 0.08913 0.94485 0.0
H26 H 0.02255 0.14639 0.04612 0.0
H27 H 0.01134 0.20067 0.01216 0.0
H28 H 0.08862 0.0653 0.98932 0.0
H29 H 0.9934 0.08658 0.05298 0.0
H30 H 0.05424 0.99267 0.07406 0.0
H31 H 0.99242 0.97148 0.08499 0.0
H32 H 0.99256 0.08479 0.11861 0.0
H33 H 0.95099 0.06956 0.16824 0.0
H34 H 0.09925 0.00583 0.96226 0.0
H35 H 0.11978 0.99293 0.07784 0.0
H36 H 0.95164 0.95611 0.13536 0.0
H37 H 0.14957 0.96731 0.94751 0.0
H38 H 0.16952 0.95374 0.06312 0.0
C39 C 0.38507 0.77924 0.29793 0.0
C40 C 0.40773 0.75225 0.3099 0.0
C41 C 0.35485 0.77014 0.27531 0.0
C42 C 0.3465 0.73384 0.26427 0.0
C43 C 0.36862 0.7067 0.27691 0.0
C44 C 0.39902 0.71583 0.29942 0.0
C45 C 0.31586 0.72465 0.23823 0.0
C46 C 0.31144 0.74575 0.20722 0.0
C47 C 0.28347 0.73691 0.18162 0.0
C48 C 0.25947 0.70679 0.18731 0.0
C49 C 0.26282 0.6857 0.21857 0.0
C50 C 0.29139 0.69469 0.24379 0.0
C51 C 0.23629 0.65452 0.22462 0.0
C52 C 0.19912 0.65693 0.21543 0.0
C53 C 0.24787 0.6219 0.23882 0.0
C54 C 0.22298 0.59229 0.2431 0.0
C55 C 0.18606 0.59455 0.23299 0.0
C56 C 0.27951 0.75897 0.14867 0.0
C57 C 0.27986 0.79703 0.15189 0.0
C58 C 0.27534 0.74208 0.11381 0.0
C59 C 0.27164 0.76283 0.08271 0.0
C60 C 0.27162 0.80089 0.0859 0.0
C61 C 0.27572 0.8178 0.12082 0.0
C62 C 0.17438 0.62726 0.21934 0.0
H63 H 0.39086 0.80753 0.30565 0.0
H64 H 0.33804 0.79159 0.26634 0.0
H65 H 0.36302 0.67853 0.26859 0.0
H66 H 0.41586 0.69437 0.30828 0.0
H67 H 0.33056 0.76848 0.20235 0.0
H68 H 0.29413 0.67899 0.26822 0.0
H69 H 0.23807 0.69986 0.16726 0.0
H70 H 0.18901 0.68185 0.20523 0.0
H71 H 0.27632 0.61891 0.24583 0.0
H72 H 0.23284 0.56738 0.25361 0.0
H73 H 0.28282 0.81069 0.17852 0.0
H74 H 0.27532 0.71279 0.11056 0.0
H75 H 0.14605 0.63003 0.21168 0.0
H76 H 0.27588 0.84709 0.12415 0.0
H77 H 0.2685 0.74898 0.0562 0.0
C78 C 0.01176 0.49093 0.17077 0.0
C79 C 0.04974 0.48706 0.17247 0.0
C80 C 0.99295 0.48725 0.13725 0.0
C81 C 0.0117 0.47964 0.10467 0.0
C82 C 0.04977 0.47634 0.10633 0.0
C83 C 0.06855 0.47996 0.13983 0.0
C84 C 0.99156 0.4739 0.06923 0.0
C85 C 0.96316 0.49621 0.05969 0.0
C86 C 0.94388 0.4904 0.02631 0.0
C87 C 0.95335 0.46177 0.00248 0.0
C88 C 0.98171 0.43932 0.01157 0.0
C89 C 1.00055 0.44556 0.04497 0.0
C90 C 0.99149 0.40889 0.98661 0.0
C91 C 0.96414 0.3856 0.97016 0.0
C92 C 0.02835 0.40237 0.97983 0.0
C93 C 0.03769 0.37301 0.95737 0.0
C94 C 0.01036 0.34942 0.94132 0.0
C95 C 0.91394 0.5142 0.01626 0.0
C96 C 0.88867 0.52522 0.04265 0.0
C97 C 0.91027 0.52596 0.98013 0.0
C98 C 0.88203 0.54812 0.97061 0.0
C99 C 0.85677 0.55911 0.997 0.0
C100 C 0.86043 0.54741 0.03314 0.0
C101 C 0.97347 0.35613 0.94783 0.0
H102 H 0.99642 0.49643 0.19541 0.0
H103 H 0.96358 0.48956 0.13697 0.0
H104 H 0.06512 0.47102 0.08167 0.0
H105 H 0.09784 0.47712 0.14009 0.0
H106 H 0.95663 0.51864 0.07789 0.0
H107 H 0.02165 0.42756 0.05259 0.0
H108 H 0.93858 0.45687 0.97681 0.0
H109 H 0.93551 0.38971 0.97518 0.0
H110 H 0.05003 0.4201 0.9918 0.0
H111 H 0.06635 0.3687 0.95281 0.0
H112 H 0.89041 0.51629 0.07061 0.0
H113 H 0.92954 0.5184 0.95924 0.0
H114 H 0.95173 0.33851 0.93582 0.0
H115 H 0.84141 0.55528 0.05415 0.0
H116 H 0.88013 0.55675 0.94256 0.0
C117 C 0.69552 0.72398 0.08417 0.0
C118 C 0.72784 0.70573 0.07854 0.0
C119 C 0.69223 0.74759 0.11445 0.0
C120 C 0.72126 0.75369 0.13967 0.0
C121 C 0.75379 0.73586 0.13382 0.0
C122 C 0.757 0.71199 0.10364 0.0
C123 C 0.7171 0.77798 0.17236 0.0
C124 C 0.68492 0.77533 0.19297 0.0
C125 C 0.68012 0.79829 0.22371 0.0
C126 C 0.70789 0.82453 0.23362 0.0
C127 C 0.7403 0.82763 0.21327 0.0
C128 C 0.74488 0.80397 0.18292 0.0
C129 C 0.76893 0.85628 0.223 0.0
C130 C 0.75958 0.89247 0.22852 0.0
C131 C 0.80578 0.84782 0.22614 0.0
C132 C 0.83277 0.87505 0.23472 0.0
C133 C 0.82349 0.91137 0.23966 0.0
C134 C 0.64624 0.79417 0.24561 0.0
C135 C 0.61194 0.78979 0.22804 0.0
C136 C 0.64805 0.79288 0.28403 0.0
C137 C 0.6163 0.7863 0.30438 0.0
C138 C 0.58206 0.78119 0.28673 0.0
C139 C 0.58018 0.78351 0.24838 0.0
C140 C 0.7866 0.91977 0.23647 0.0
H141 H 0.67258 0.71987 0.06533 0.0
H142 H 0.66696 0.76127 0.11803 0.0
H143 H 0.77651 0.73984 0.15296 0.0
H144 H 0.78232 0.69842 0.10003 0.0
H145 H 0.66386 0.75463 0.18557 0.0
H146 H 0.76954 0.80664 0.16677 0.0
H147 H 0.70425 0.84261 0.25712 0.0
H148 H 0.73141 0.89977 0.22597 0.0
H149 H 0.81367 0.82008 0.22218 0.0
H150 H 0.86095 0.86773 0.23692 0.0
H151 H 0.60968 0.79103 0.19847 0.0
H152 H 0.67415 0.79589 0.29827 0.0
H153 H 0.77854 0.94747 0.24023 0.0
H154 H 0.55425 0.77986 0.23392 0.0
H155 H 0.61867 0.78484 0.33392 0.0
C156 C 0.91831 0.99559 0.39241 0.0
C157 C 0.93083 0.00234 0.35683 0.0
C158 C 0.94308 0.99075 0.42094 0.0
C159 C 0.98094 0.99281 0.41463 0.0
C160 C 0.99356 0.00041 0.37928 0.0
C161 C 0.96874 0.00494 0.3506 0.0
C162 C 0.00689 0.98524 0.44456 0.0
C163 C 0.9999 0.95488 0.46626 0.0
C164 C 0.02369 0.94703 0.49494 0.0
C165 C 0.05473 0.97012 0.50196 0.0
C166 C 0.06238 0.00062 0.48057 0.0
C167 C 0.03845 0.00784 0.45158 0.0
C168 C 0.09548 0.02454 0.4889 0.0
C169 C 0.10516 0.03389 0.52548 0.0
C170 C 0.11851 0.03679 0.46071 0.0
C171 C 0.15099 0.05713 0.46902 0.0
C172 C 0.16105 0.06571 0.50569 0.0
C173 C 0.01624 0.9146 0.51742 0.0
C174 C 0.98044 0.90489 0.52845 0.0
C175 C 0.04489 0.8931 0.52803 0.0
C176 C 0.03796 0.86276 0.54937 0.0
C177 C 0.00218 0.85308 0.56038 0.0
C178 C 0.97347 0.87438 0.5496 0.0
C179 C 0.13755 0.05419 0.53378 0.0
H180 H 0.88933 0.99359 0.3982 0.0
H181 H 0.9326 0.98527 0.44803 0.0
H182 H 0.02258 0.00189 0.37359 0.0
H183 H 0.97928 0.01031 0.32353 0.0
H184 H 0.97626 0.93676 0.46013 0.0
H185 H 0.0438 0.03153 0.43518 0.0
H186 H 0.07313 0.9643 0.5242 0.0
H187 H 0.0877 0.02537 0.54781 0.0
H188 H 0.11194 0.0298 0.43229 0.0
H189 H 0.16842 0.06573 0.4467 0.0
H190 H 0.95783 0.92115 0.52114 0.0
H191 H 0.07268 0.89947 0.51948 0.0
H192 H 0.14425 0.06059 0.56228 0.0
H193 H 0.94562 0.86773 0.55778 0.0
H194 H 0.06066 0.84676 0.55703 0.0
C195 C 0.09126 0.70539 0.73449 0.0
C196 C 0.08862 0.73491 0.71128 0.0
C197 C 0.12347 0.70076 0.75414 0.0
C198 C 0.15324 0.72598 0.75147 0.0
C199 C 0.15066 0.75554 0.72838 0.0
C200 C 0.11873 0.75974 0.70807 0.0
C201 C 0.18624 0.72238 0.77419 0.0
C202 C 0.20561 0.69059 0.77219 0.0
C203 C 0.2364 0.68677 0.79475 0.0
C204 C 0.24685 0.71475 0.82029 0.0
C205 C 0.22728 0.7465 0.82267 0.0
C206 C 0.19748 0.7504 0.79906 0.0
C207 C 0.23609 0.77476 0.8513 0.0
C208 C 0.23662 0.76556 0.88833 0.0
C209 C 0.24121 0.81135 0.84204 0.0
C210 C 0.24664 0.83838 0.86946 0.0
C211 C 0.24622 0.82929 0.90659 0.0
C212 C 0.25766 0.65371 0.79126 0.0
C213 C 0.23971 0.61914 0.78886 0.0
C214 C 0.29598 0.65657 0.78896 0.0
C215 C 0.31587 0.62553 0.78345 0.0
C216 C 0.29785 0.59097 0.78052 0.0
C217 C 0.25959 0.58809 0.78374 0.0
C218 C 0.24131 0.79262 0.91576 0.0
H219 H 0.06854 0.68571 0.73725 0.0
H220 H 0.12488 0.67793 0.77206 0.0
H221 H 0.17338 0.77531 0.72606 0.0
H222 H 0.11738 0.78273 0.69038 0.0
H223 H 0.1971 0.66918 0.75248 0.0
H224 H 0.18191 0.7746 0.80124 0.0
H225 H 0.26994 0.71173 0.83853 0.0
H226 H 0.2323 0.73754 0.89608 0.0
H227 H 0.24078 0.819 0.81359 0.0
H228 H 0.25042 0.86641 0.86162 0.0
H229 H 0.21022 0.61611 0.7909 0.0
H230 H 0.3105 0.68291 0.79046 0.0
H231 H 0.24117 0.78477 0.94415 0.0
H232 H 0.24486 0.56189 0.78169 0.0
H233 H 0.34533 0.62866 0.78122 0.0
C234 C 0.00213 0.66053 0.53841 0.0
C235 C 0.00747 0.65447 0.57589 0.0
C236 C 0.99656 0.63129 0.51349 0.0
C237 C 0.99572 0.59552 0.52569 0.0
C238 C 0.00119 0.58942 0.5631 0.0
C239 C 0.00728 0.61863 0.58795 0.0
C240 C 0.98794 0.56466 0.4996 0.0
C241 C 0.00699 0.56218 0.46653 0.0
C242 C 0.99903 0.53334 0.44122 0.0
C243 C 0.9712 0.50709 0.44924 0.0
C244 C 0.95196 0.50936 0.48236 0.0
C245 C 0.96074 0.53804 0.50746 0.0
C246 C 0.92159 0.4829 0.49057 0.0
C247 C 0.89335 0.4751 0.46487 0.0
C248 C 0.9193 0.4674 0.52527 0.0
C249 C 0.88891 0.4452 0.53444 0.0
C250 C 0.86002 0.43838 0.50922 0.0
C251 C 0.02028 0.53069 0.40682 0.0
C252 C 0.02908 0.56192 0.38686 0.0
C253 C 0.03322 0.49729 0.39453 0.0
C254 C 0.05519 0.49534 0.36341 0.0
C255 C 0.06459 0.52676 0.34391 0.0
C256 C 0.05098 0.55999 0.35578 0.0
C257 C 0.86273 0.45319 0.47417 0.0
H258 H 0.00227 0.68786 0.52829 0.0
H259 H 0.99212 0.63665 0.48479 0.0
H260 H 0.00083 0.56203 0.57309 0.0
H261 H 0.0113 0.61312 0.61667 0.0
H262 H 0.02863 0.58237 0.46094 0.0
H263 H 0.9454 0.54042 0.53265 0.0
H264 H 0.96441 0.48501 0.42972 0.0
H265 H 0.89433 0.48697 0.43805 0.0
H266 H 0.94085 0.47286 0.54549 0.0
H267 H 0.88773 0.43407 0.56158 0.0
H268 H 0.01908 0.58797 0.39533 0.0
H269 H 0.02719 0.4728 0.40952 0.0
H270 H 0.84102 0.44822 0.45404 0.0
H271 H 0.05745 0.58466 0.34124 0.0
H272 H 0.06516 0.46929 0.35494 0.0
C273 C 0.79609 0.70043 0.89552 0.0
C274 C 0.75957 0.69149 0.90449 0.0
C275 C 0.80432 0.72301 0.86633 0.0
C276 C 0.77624 0.73721 0.84545 0.0
C277 C 0.73971 0.72831 0.8544 0.0
C278 C 0.73145 0.70561 0.88357 0.0
C279 C 0.78535 0.76135 0.81459 0.0
C280 C 0.81359 0.75296 0.79055 0.0
C281 C 0.82492 0.7768 0.76296 0.0
C282 C 0.8063 0.80896 0.75896 0.0
C283 C 0.77679 0.81705 0.78173 0.0
C284 C 0.76671 0.7932 0.80969 0.0
C285 C 0.75657 0.85049 0.77643 0.0
C286 C 0.7754 0.88366 0.76926 0.0
C287 C 0.71819 0.84937 0.77819 0.0
C288 C 0.69907 0.88066 0.7728 0.0
C289 C 0.71791 0.91381 0.76556 0.0
C290 C 0.85632 0.76811 0.73881 0.0
C291 C 0.88488 0.74759 0.75197 0.0
C292 C 0.85823 0.78011 0.70247 0.0
C293 C 0.88795 0.77225 0.68031 0.0
C294 C 0.91562 0.7511 0.69351 0.0
C295 C 0.91378 0.7386 0.72932 0.0
C296 C 0.75629 0.91496 0.76388 0.0
H297 H 0.8184 0.69012 0.91114 0.0
H298 H 0.83276 0.72978 0.86042 0.0
H299 H 0.7175 0.73858 0.83861 0.0
H300 H 0.70301 0.69925 0.88976 0.0
H301 H 0.82643 0.72738 0.79332 0.0
H302 H 0.74507 0.80001 0.82837 0.0
H303 H 0.81461 0.82787 0.7381 0.0
H304 H 0.80498 0.88556 0.76821 0.0
H305 H 0.70285 0.82414 0.78324 0.0
H306 H 0.66951 0.8788 0.77424 0.0
H307 H 0.88541 0.73875 0.77999 0.0
H308 H 0.83666 0.79523 0.69079 0.0
H309 H 0.77168 0.94007 0.75852 0.0
H310 H 0.93528 0.72271 0.74013 0.0
H311 H 0.88897 0.78204 0.65259 0.0
C312 C 0.29609 0.20042 0.39552 0.0
C313 C 0.25957 0.19149 0.40449 0.0
C314 C 0.30432 0.22301 0.36633 0.0
C315 C 0.27624 0.2372 0.34545 0.0
C316 C 0.23971 0.2283 0.3544 0.0
C317 C 0.23145 0.20561 0.38357 0.0
C318 C 0.28534 0.26135 0.31459 0.0
C319 C 0.31359 0.25295 0.29055 0.0
C320 C 0.32492 0.2768 0.26296 0.0
C321 C 0.30629 0.30896 0.25896 0.0
C322 C 0.27678 0.31705 0.28173 0.0
C323 C 0.26671 0.29319 0.30969 0.0
C324 C 0.25657 0.35049 0.27643 0.0
C325 C 0.2754 0.38366 0.26926 0.0
C326 C 0.21819 0.34937 0.27819 0.0
C327 C 0.19907 0.38066 0.2728 0.0
C328 C 0.21791 0.41381 0.26556 0.0
C329 C 0.35632 0.26811 0.23881 0.0
C330 C 0.38488 0.24759 0.25197 0.0
C331 C 0.35823 0.28011 0.20247 0.0
C332 C 0.38795 0.27224 0.18031 0.0
C333 C 0.41562 0.2511 0.19351 0.0
C334 C 0.41378 0.2386 0.22932 0.0
C335 C 0.25629 0.41495 0.26389 0.0
H336 H 0.3184 0.19011 0.41113 0.0
H337 H 0.33276 0.22978 0.36042 0.0
H338 H 0.2175 0.23857 0.33861 0.0
H339 H 0.20301 0.19924 0.38976 0.0
H340 H 0.32643 0.22737 0.29332 0.0
H341 H 0.24506 0.3 0.32837 0.0
H342 H 0.3146 0.32787 0.2381 0.0
H343 H 0.30498 0.38556 0.26821 0.0
H344 H 0.20285 0.32414 0.28324 0.0
H345 H 0.16951 0.3788 0.27423 0.0
H346 H 0.38541 0.23874 0.27999 0.0
H347 H 0.33666 0.29523 0.19079 0.0
H348 H 0.27168 0.44007 0.25853 0.0
H349 H 0.43528 0.2227 0.24013 0.0
H350 H 0.38897 0.28204 0.15259 0.0
C351 C 0.51176 0.99093 0.67078 0.0
C352 C 0.54974 0.98706 0.67247 0.0
C353 C 0.49295 0.98725 0.63725 0.0
C354 C 0.5117 0.97964 0.60467 0.0
C355 C 0.54977 0.97634 0.60633 0.0
C356 C 0.56856 0.97996 0.63983 0.0
C357 C 0.49156 0.9739 0.56923 0.0
C358 C 0.46316 0.99621 0.55969 0.0
C359 C 0.44388 0.9904 0.52631 0.0
C360 C 0.45335 0.96177 0.50248 0.0
C361 C 0.48171 0.93932 0.51157 0.0
C362 C 0.50056 0.94556 0.54497 0.0
C363 C 0.49149 0.90889 0.48661 0.0
C364 C 0.46414 0.8856 0.47016 0.0
C365 C 0.52835 0.90237 0.47983 0.0
C366 C 0.53769 0.87301 0.45738 0.0
C367 C 0.51036 0.84942 0.44132 0.0
C368 C 0.41394 0.0142 0.51626 0.0
C369 C 0.38868 0.02522 0.54265 0.0
C370 C 0.41028 0.02596 0.48013 0.0
C371 C 0.38203 0.04812 0.47061 0.0
C372 C 0.35677 0.05911 0.497 0.0
C373 C 0.36043 0.04741 0.53314 0.0
C374 C 0.47347 0.85613 0.44783 0.0
H375 H 0.49643 0.99644 0.69541 0.0
H376 H 0.46358 0.98956 0.63697 0.0
H377 H 0.56512 0.97102 0.58167 0.0
H378 H 0.59785 0.97712 0.64009 0.0
H379 H 0.45663 0.01864 0.57789 0.0
H380 H 0.52165 0.92756 0.55259 0.0
H381 H 0.43858 0.95688 0.47681 0.0
H382 H 0.43551 0.88971 0.47518 0.0
H383 H 0.55003 0.9201 0.4918 0.0
H384 H 0.56635 0.8687 0.45281 0.0
H385 H 0.39042 0.01629 0.57061 0.0
H386 H 0.42954 0.0184 0.45924 0.0
H387 H 0.45173 0.83852 0.43582 0.0
H388 H 0.34141 0.05528 0.55415 0.0
H389 H 0.38013 0.05675 0.44256 0.0
C390 C 0.19552 0.22398 0.58417 0.0
C391 C 0.22784 0.20573 0.57854 0.0
C392 C 0.19223 0.24759 0.61445 0.0
C393 C 0.22126 0.25369 0.63967 0.0
C394 C 0.2538 0.23586 0.63382 0.0
C395 C 0.257 0.21199 0.60364 0.0
C396 C 0.2171 0.27798 0.67236 0.0
C397 C 0.18492 0.27533 0.69297 0.0
C398 C 0.18012 0.29829 0.72371 0.0
C399 C 0.20789 0.32453 0.73362 0.0
C400 C 0.2403 0.32762 0.71327 0.0
C401 C 0.24488 0.30397 0.68292 0.0
C402 C 0.26893 0.35628 0.723 0.0
C403 C 0.25958 0.39247 0.72852 0.0
C404 C 0.30578 0.34782 0.72614 0.0
C405 C 0.33277 0.37505 0.73472 0.0
C406 C 0.32349 0.41137 0.73966 0.0
C407 C 0.14624 0.29417 0.74561 0.0
C408 C 0.11194 0.28979 0.72804 0.0
C409 C 0.14805 0.29288 0.78403 0.0
C410 C 0.11631 0.2863 0.80438 0.0
C411 C 0.08206 0.28119 0.78673 0.0
C412 C 0.08019 0.28351 0.74838 0.0
C413 C 0.2866 0.41977 0.73647 0.0
H414 H 0.17258 0.21987 0.56533 0.0
H415 H 0.16697 0.26127 0.61803 0.0
H416 H 0.27651 0.23984 0.65296 0.0
H417 H 0.28232 0.19842 0.60003 0.0
H418 H 0.16386 0.25463 0.68557 0.0
H419 H 0.26954 0.30664 0.66677 0.0
H420 H 0.20426 0.34261 0.75712 0.0
H421 H 0.23142 0.39977 0.72597 0.0
H422 H 0.31367 0.32008 0.72218 0.0
H423 H 0.36096 0.36773 0.73692 0.0
H424 H 0.10968 0.29103 0.69847 0.0
H425 H 0.17415 0.29589 0.79827 0.0
H426 H 0.27854 0.44747 0.74023 0.0
H427 H 0.05425 0.27986 0.73392 0.0
H428 H 0.11867 0.28484 0.83392 0.0
C429 C 0.88507 0.27924 0.79793 0.0
C430 C 0.90773 0.25225 0.8099 0.0
C431 C 0.85485 0.27015 0.77531 0.0
C432 C 0.8465 0.23384 0.76427 0.0
C433 C 0.86862 0.2067 0.77691 0.0
C434 C 0.89902 0.21583 0.79942 0.0
C435 C 0.81586 0.22465 0.73823 0.0
C436 C 0.81144 0.24575 0.70722 0.0
C437 C 0.78347 0.23691 0.68162 0.0
C438 C 0.75947 0.20679 0.68731 0.0
C439 C 0.76282 0.1857 0.71857 0.0
C440 C 0.79139 0.1947 0.74379 0.0
C441 C 0.73629 0.15452 0.72463 0.0
C442 C 0.69912 0.15694 0.71544 0.0
C443 C 0.74787 0.1219 0.73882 0.0
C444 C 0.72298 0.09229 0.7431 0.0
C445 C 0.68606 0.09455 0.73299 0.0
C446 C 0.77951 0.25898 0.64867 0.0
C447 C 0.77986 0.29704 0.65189 0.0
C448 C 0.77534 0.24208 0.61381 0.0
C449 C 0.77164 0.26283 0.58271 0.0
C450 C 0.77162 0.3009 0.5859 0.0
C451 C 0.77572 0.31781 0.62082 0.0
C452 C 0.67438 0.12727 0.71935 0.0
H453 H 0.89086 0.30754 0.80565 0.0
H454 H 0.83804 0.29159 0.76634 0.0
H455 H 0.86302 0.17853 0.76859 0.0
H456 H 0.91586 0.19437 0.80828 0.0
H457 H 0.83056 0.26848 0.70235 0.0
H458 H 0.79413 0.17899 0.76822 0.0
H459 H 0.73807 0.19986 0.66726 0.0
H460 H 0.68901 0.18185 0.70523 0.0
H461 H 0.77632 0.11892 0.74583 0.0
H462 H 0.73284 0.06739 0.75362 0.0
H463 H 0.78282 0.31069 0.67852 0.0
H464 H 0.77532 0.21279 0.61056 0.0
H465 H 0.64605 0.13003 0.71168 0.0
H466 H 0.77589 0.34709 0.62415 0.0
H467 H 0.7685 0.24898 0.5562 0.0
C468 C 0.53303 0.64468 0.44039 0.0
C469 C 0.52263 0.67651 0.45877 0.0
C470 C 0.53923 0.61344 0.45989 0.0
C471 C 0.53518 0.61335 0.49818 0.0
C472 C 0.52533 0.64537 0.51657 0.0
C473 C 0.51909 0.67656 0.49711 0.0
C474 C 0.54051 0.57984 0.51889 0.0
C475 C 0.56948 0.55753 0.51055 0.0
C476 C 0.57464 0.52592 0.53023 0.0
C477 C 0.55038 0.51687 0.55865 0.0
C478 C 0.52124 0.53884 0.56741 0.0
C479 C 0.51646 0.57012 0.54719 0.0
C480 C 0.49586 0.52937 0.59775 0.0
C481 C 0.48387 0.49311 0.60318 0.0
C482 C 0.48347 0.55664 0.62163 0.0
C483 C 0.45974 0.54789 0.65022 0.0
C484 C 0.448 0.51161 0.6558 0.0
C485 C 0.60543 0.50247 0.52124 0.0
C486 C 0.61463 0.49494 0.48453 0.0
C487 C 0.62576 0.48727 0.54927 0.0
C488 C 0.65443 0.46494 0.54082 0.0
C489 C 0.66354 0.45735 0.50412 0.0
C490 C 0.64336 0.47267 0.47607 0.0
C491 C 0.46027 0.48432 0.63192 0.0
H492 H 0.53597 0.6437 0.41086 0.0
H493 H 0.54645 0.58913 0.44485 0.0
H494 H 0.52255 0.64639 0.54612 0.0
H495 H 0.51134 0.70067 0.51216 0.0
H496 H 0.58862 0.5653 0.48932 0.0
H497 H 0.4934 0.58658 0.55298 0.0
H498 H 0.55425 0.49267 0.57406 0.0
H499 H 0.49242 0.47148 0.58499 0.0
H500 H 0.49256 0.58479 0.61861 0.0
H501 H 0.45099 0.56956 0.66824 0.0
H502 H 0.59926 0.50584 0.46226 0.0
H503 H 0.61979 0.49293 0.57784 0.0
H504 H 0.45164 0.45611 0.63537 0.0
H505 H 0.64957 0.46731 0.44751 0.0
H506 H 0.66952 0.45374 0.56312 0.0
C507 C 0.41831 0.49559 0.89241 0.0
C508 C 0.43083 0.50234 0.85683 0.0
C509 C 0.44308 0.49075 0.92095 0.0
C510 C 0.48094 0.49281 0.91463 0.0
C511 C 0.49356 0.50041 0.87928 0.0
C512 C 0.46874 0.50494 0.8506 0.0
C513 C 0.50689 0.48524 0.94457 0.0
C514 C 0.4999 0.45488 0.96626 0.0
C515 C 0.52369 0.44703 0.99494 0.0
C516 C 0.55473 0.47013 0.00196 0.0
C517 C 0.56238 0.50062 0.98058 0.0
C518 C 0.53845 0.50784 0.95158 0.0
C519 C 0.59548 0.52454 0.9889 0.0
C520 C 0.60516 0.53389 0.02548 0.0
C521 C 0.61851 0.53679 0.96071 0.0
C522 C 0.65099 0.55713 0.96902 0.0
C523 C 0.66105 0.56571 0.00569 0.0
C524 C 0.51624 0.4146 0.01742 0.0
C525 C 0.48044 0.40489 0.02845 0.0
C526 C 0.54489 0.39311 0.02803 0.0
C527 C 0.53796 0.36276 0.04938 0.0
C528 C 0.50218 0.35308 0.06038 0.0
C529 C 0.47347 0.37439 0.04961 0.0
C530 C 0.63755 0.55419 0.03378 0.0
H531 H 0.38933 0.49359 0.8982 0.0
H532 H 0.4326 0.48527 0.94803 0.0
H533 H 0.52258 0.50189 0.87359 0.0
H534 H 0.47929 0.51031 0.82353 0.0
H535 H 0.47626 0.43676 0.96013 0.0
H536 H 0.5438 0.53153 0.93518 0.0
H537 H 0.57313 0.4643 0.0242 0.0
H538 H 0.5877 0.52537 0.04781 0.0
H539 H 0.61194 0.52981 0.93229 0.0
H540 H 0.66842 0.56573 0.9467 0.0
H541 H 0.45783 0.42115 0.02115 0.0
H542 H 0.57268 0.39947 0.01948 0.0
H543 H 0.64425 0.56059 0.06228 0.0
H544 H 0.44562 0.36773 0.05779 0.0
H545 H 0.56066 0.34676 0.05704 0.0
C546 C 0.59126 0.20539 0.23449 0.0
C547 C 0.58862 0.23491 0.21128 0.0
C548 C 0.62347 0.20076 0.25414 0.0
C549 C 0.65324 0.22598 0.25147 0.0
C550 C 0.65066 0.25554 0.22839 0.0
C551 C 0.61873 0.25974 0.20807 0.0
C552 C 0.68624 0.22238 0.27419 0.0
C553 C 0.70561 0.19059 0.27219 0.0
C554 C 0.7364 0.18677 0.29475 0.0
C555 C 0.74685 0.21475 0.32029 0.0
C556 C 0.72728 0.2465 0.32267 0.0
C557 C 0.69748 0.2504 0.29906 0.0
C558 C 0.73609 0.27477 0.3513 0.0
C559 C 0.73662 0.26557 0.38833 0.0
C560 C 0.74121 0.31135 0.34204 0.0
C561 C 0.74664 0.33838 0.36946 0.0
C562 C 0.74622 0.32929 0.40659 0.0
C563 C 0.75766 0.15371 0.29126 0.0
C564 C 0.7397 0.11914 0.28886 0.0
C565 C 0.79598 0.15657 0.28896 0.0
C566 C 0.81587 0.12553 0.28345 0.0
C567 C 0.79785 0.09098 0.28052 0.0
C568 C 0.75959 0.08809 0.28374 0.0
C569 C 0.74131 0.29262 0.41576 0.0
H570 H 0.56854 0.18571 0.23725 0.0
H571 H 0.62488 0.17793 0.27206 0.0
H572 H 0.67338 0.27531 0.22606 0.0
H573 H 0.61738 0.28273 0.19038 0.0
H574 H 0.6971 0.16918 0.25248 0.0
H575 H 0.68191 0.2746 0.30124 0.0
H576 H 0.76994 0.21173 0.33853 0.0
H577 H 0.7323 0.23755 0.39608 0.0
H578 H 0.74078 0.319 0.31359 0.0
H579 H 0.75042 0.36642 0.36162 0.0
H580 H 0.71022 0.11611 0.29091 0.0
H581 H 0.8105 0.18291 0.29046 0.0
H582 H 0.74117 0.28478 0.44416 0.0
H583 H 0.74486 0.06189 0.28169 0.0
H584 H 0.84533 0.12867 0.28122 0.0
C585 C 0.50213 0.16054 0.03841 0.0
C586 C 0.50747 0.15448 0.07589 0.0
C587 C 0.49656 0.1313 0.01349 0.0
C588 C 0.49572 0.09552 0.02569 0.0
C589 C 0.50119 0.08942 0.0631 0.0
C590 C 0.50728 0.11864 0.08795 0.0
C591 C 0.48794 0.06466 -0.0004 0.0
C592 C 0.50699 0.06219 0.96653 0.0
C593 C 0.49903 0.03334 0.94122 0.0
C594 C 0.4712 0.00709 0.94924 0.0
C595 C 0.45196 0.00936 0.98235 0.0
C596 C 0.46074 0.03804 0.00746 0.0
C597 C 0.42159 0.9829 0.99057 0.0
C598 C 0.39334 0.9751 0.96487 0.0
C599 C 0.41929 0.9674 0.02527 0.0
C600 C 0.38891 0.9452 0.03443 0.0
C601 C 0.36002 0.93838 0.00922 0.0
C602 C 0.52028 0.03069 0.90682 0.0
C603 C 0.52908 0.06193 0.88686 0.0
C604 C 0.53322 0.99729 0.89453 0.0
C605 C 0.55519 0.99534 0.86341 0.0
C606 C 0.56459 0.02676 0.84391 0.0
C607 C 0.55098 0.05999 0.85578 0.0
C608 C 0.36273 0.95319 0.97417 0.0
H609 H 0.50227 0.18787 0.02829 0.0
H610 H 0.49212 0.13665 0.98479 0.0
H611 H 0.50082 0.06203 0.07309 0.0
H612 H 0.51129 0.11312 0.11667 0.0
H613 H 0.52863 0.08237 0.96093 0.0
H614 H 0.44539 0.04042 0.03265 0.0
H615 H 0.46441 0.98501 0.92972 0.0
H616 H 0.39433 0.98697 0.93805 0.0
H617 H 0.44085 0.97286 0.04549 0.0
H618 H 0.38773 0.93407 0.06158 0.0
H619 H 0.51908 0.08797 0.89533 0.0
H620 H 0.52719 0.97281 0.90952 0.0
H621 H 0.34102 0.94822 0.95404 0.0
H622 H 0.55745 0.08466 0.84124 0.0
H623 H 0.56516 0.96929 0.85494 0.0
C624 C 0.19386 0.93356 0.99516 0.0
O625 O 0.20334 0.92778 0.96092 0.0
O626 O 0.2414 0.85114 0.96827 0.0
Zn627 Zn 0.25264 0.88566 0.011 0.0
O628 O 0.29852 0.91549 -0.00054 0.0
C629 C 0.2671 0.82266 0.05293 0.0
O630 O 0.26947 0.80741 0.02011 0.0
O631 O 0.21096 0.91846 0.02056 0.0
C632 C 0.32701 0.91646 0.01964 0.0
O633 O 0.32665 0.89823 0.05006 0.0
C634 C 0.25125 0.85774 0.93572 0.0
O635 O 0.26728 0.8894 0.92859 0.0
O636 O 0.26035 0.85609 0.05594 0.0
C637 C 0.19775 0.44708 0.26008 0.0
O638 O 0.2156 0.47798 0.25354 0.0
O639 O 0.10108 0.49508 0.30072 0.0
Zn640 Zn 0.13384 0.49087 0.25653 0.0
O641 O 0.16837 0.53532 0.25367 0.0
C642 C 0.06959 0.49041 0.20805 0.0
O643 O 0.05217 0.4987 0.23822 0.0
O644 O 0.16305 0.44619 0.2621 0.0
C645 C 0.15989 0.56287 0.2359 0.0
O646 O 0.12773 0.56272 0.21968 0.0
C647 C 0.0887 0.52508 0.31158 0.0
O648 O 0.09739 0.55461 0.29367 0.0
O649 O 0.10371 0.48552 0.20965 0.0
C650 C 0.82695 0.58279 0.98691 0.0
O651 O 0.82334 0.59325 0.953 0.0
O652 O 0.77622 0.6568 0.95586 0.0
Zn653 Zn 0.76407 0.62674 -0.00014 0.0
O654 O 0.71704 0.59706 0.98936 0.0
C655 C 0.73098 0.68037 0.04665 0.0
O656 O 0.70517 0.6775 0.02136 0.0
O657 O 0.80476 0.59352 0.01106 0.0
C658 C 0.69585 0.5864 0.01472 0.0
O659 O 0.70517 0.59406 0.04904 0.0
C660 C 0.75083 0.66802 0.93577 0.0
O661 O 0.71664 0.65917 0.9436 0.0
O662 O 0.75854 0.66097 0.04345 0.0
C663 C 0.81861 0.05815 0.27334 0.0
O664 O 0.80222 0.02573 0.27495 0.0
O665 O 0.91549 0.00862 0.29364 0.0
Zn666 Zn 0.88075 0.01682 0.25197 0.0
O667 O 0.84528 0.97345 0.24271 0.0
C668 C 0.92376 0.00224 0.18681 0.0
O669 O 0.91634 0.96813 0.19456 0.0
O670 O 0.85212 0.06097 0.2644 0.0
C671 C 0.85206 0.94047 0.24763 0.0
O672 O 0.88464 0.93252 0.2593 0.0
C673 C 0.90446 0.00665 0.32647 0.0
O674 O 0.86941 0.00877 0.33314 0.0
O675 O 0.91095 0.02715 0.207 0.0
C676 C 0.32695 0.08279 0.48691 0.0
O677 O 0.32334 0.09325 0.453 0.0
O678 O 0.27622 0.15679 0.45586 0.0
Zn679 Zn 0.26407 0.12673 0.49986 0.0
O680 O 0.21704 0.09706 0.48936 0.0
C681 C 0.23098 0.18037 0.54665 0.0
O682 O 0.20517 0.1775 0.52136 0.0
O683 O 0.30476 0.09351 0.51106 0.0
C684 C 0.19585 0.0864 0.51472 0.0
O685 O 0.20517 0.09406 0.54904 0.0
C686 C 0.25083 0.16802 0.43577 0.0
O687 O 0.21664 0.15917 0.4436 0.0
O688 O 0.25854 0.16097 0.54345 0.0
C689 C 0.31861 0.55814 0.77334 0.0
O690 O 0.30222 0.52573 0.77495 0.0
O691 O 0.41549 0.50862 0.79364 0.0
Zn692 Zn 0.38075 0.51682 0.75197 0.0
O693 O 0.34528 0.47345 0.74271 0.0
C694 C 0.42377 0.50224 0.68681 0.0
O695 O 0.41635 0.46813 0.69457 0.0
O696 O 0.35212 0.56097 0.7644 0.0
C697 C 0.35206 0.44047 0.74763 0.0
O698 O 0.38464 0.43251 0.7593 0.0
C699 C 0.40446 0.50665 0.82647 0.0
O700 O 0.36941 0.50877 0.83314 0.0
O701 O 0.41095 0.52715 0.707 0.0
C702 C 0.69386 0.43357 0.49516 0.0
O703 O 0.70334 0.42778 0.46092 0.0
O704 O 0.7414 0.35114 0.46827 0.0
Zn705 Zn 0.75265 0.38567 0.511 0.0
O706 O 0.79852 0.41549 0.49946 0.0
C707 C 0.7671 0.32266 0.55293 0.0
O708 O 0.76947 0.30741 0.52011 0.0
O709 O 0.71097 0.41847 0.52056 0.0
C710 C 0.82701 0.41646 0.51964 0.0
O711 O 0.82665 0.39823 0.55006 0.0
C712 C 0.75125 0.35774 0.43572 0.0
O713 O 0.76728 0.3894 0.42859 0.0
O714 O 0.76036 0.35609 0.55594 0.0
C715 C 0.69775 0.94708 0.76007 0.0
O716 O 0.7156 0.97798 0.75353 0.0
O717 O 0.60108 0.99509 0.80072 0.0
Zn718 Zn 0.63384 0.99087 0.75654 0.0
O719 O 0.66837 0.03532 0.75367 0.0
C720 C 0.56959 0.99041 0.70805 0.0
O721 O 0.55217 0.9987 0.73822 0.0
O722 O 0.66305 0.94619 0.7621 0.0
C723 C 0.65989 0.06287 0.7359 0.0
O724 O 0.62773 0.06272 0.71968 0.0
C725 C 0.5887 0.02509 0.81158 0.0
O726 O 0.59739 0.05462 0.79367 0.0
O727 O 0.60371 0.98552 0.70965 0.0
C728 C 0.01492 0.20931 0.93813 0.0
O729 O 0.00344 0.2383 0.95532 0.0
O730 O 0.96256 0.23842 0.84158 0.0
Zn731 Zn 0.00698 0.25242 0.87305 0.0
O732 O 0.9955 0.29547 0.90547 0.0
C733 C 0.04858 0.27272 0.80803 0.0
O734 O 0.01632 0.27142 0.79193 0.0
O735 O 0.01853 0.20945 0.90349 0.0
C736 C 0.02024 0.31793 0.91807 0.0
O737 O 0.0546 0.31272 0.91039 0.0
C738 C 0.94041 0.26226 0.83286 0.0
O739 O 0.9473 0.29615 0.8439 0.0
O740 O 0.05086 0.26563 0.84185 0.0
C741 C 0.51492 0.70931 0.43813 0.0
O742 O 0.50343 0.7383 0.45532 0.0
O743 O 0.46255 0.73842 0.34158 0.0
Zn744 Zn 0.50698 0.75242 0.37305 0.0
O745 O 0.4955 0.79547 0.40547 0.0
C746 C 0.54858 0.77273 0.30803 0.0
O747 O 0.51632 0.77142 0.29193 0.0
O748 O 0.51853 0.70945 0.40349 0.0
C749 C 0.52024 0.81793 0.41807 0.0
O750 O 0.5546 0.81271 0.41039 0.0
C751 C 0.44041 0.76226 0.33286 0.0
O752 O 0.4473 0.79615 0.3439 0.0
O753 O 0.55086 0.76563 0.34185 0.0
C754 C 0.99491 0.82101 0.58306 0.0
O755 O 0.96118 0.80944 0.58983 0.0
O756 O 0.96591 0.76842 0.65636 0.0
Zn757 Zn 0.01174 0.76097 0.62728 0.0
O758 O 0.00523 0.71709 0.59328 0.0
C759 C 0.0547 0.73947 0.6903 0.0
O760 O 0.02365 0.72442 0.7014 0.0
O761 O 0.02128 0.80439 0.59634 0.0
C762 C 0.01295 0.68534 0.60233 0.0
O763 O 0.02542 0.68012 0.63548 0.0
C764 C 0.94687 0.74276 0.67044 0.0
O765 O 0.95673 0.70917 0.66661 0.0
O766 O 0.05565 0.75649 0.66049 0.0
C767 C 0.49491 0.32101 0.08306 0.0
O768 O 0.46118 0.30944 0.08984 0.0
O769 O 0.46591 0.26842 0.15636 0.0
Zn770 Zn 0.51174 0.26098 0.12728 0.0
O771 O 0.50523 0.21709 0.09328 0.0
C772 C 0.5547 0.23947 0.1903 0.0
O773 O 0.52365 0.22442 0.2014 0.0
O774 O 0.52128 0.30439 0.09634 0.0
C775 C 0.51295 0.18534 0.10233 0.0
O776 O 0.52542 0.18012 0.13548 0.0
C777 C 0.44687 0.24276 0.17044 0.0
O778 O 0.45673 0.20917 0.16661 0.0
O779 O 0.55565 0.25649 0.16049 0.0
loop_
_geom_bond_atom_site_label_1
_geom_bond_atom_site_label_2
_geom_bond_distance
_geom_bond_site_symmetry_2
_ccdc_geom_bond_type
C0 C1 1.386 . S
C0 C2 1.397 . S
C0 H24 0.931 . S
C1 C0 1.386 . S
C1 C5 1.397 . S
C2 C0 1.397 . S
C2 C3 1.384 . S
C2 H25 0.930 . S
C3 C2 1.384 . S
C3 C4 1.377 1_556 S
C3 C6 1.481 1_556 S
C4 C3 1.377 1_554 S
C4 C5 1.389 1_554 S
C4 H26 0.929 . S
C5 C1 1.397 . S
C5 C4 1.389 1_556 S
C5 H27 0.931 . S
C6 C3 1.481 1_554 S
C6 C7 1.387 . S
C6 C11 1.390 . S
C7 C6 1.387 . S
C7 C8 1.401 . S
C7 H28 0.930 1_554 S
C8 C7 1.401 . S
C8 C9 1.376 . S
C8 C17 1.511 1_545 S
C9 C8 1.376 . S
C9 C10 1.392 . S
C9 H30 0.931 1_545 S
C10 C9 1.392 . S
C10 C11 1.361 . S
C10 C12 1.500 1_455 S
C11 C6 1.390 . S
C11 C10 1.361 . S
C11 H29 0.931 1_455 S
C12 C10 1.500 1_655 S
C12 C13 1.371 . S
C12 C14 1.365 . S
C13 C12 1.371 . S
C13 C23 1.386 1_545 S
C13 H31 0.931 1_545 S
C14 C12 1.365 . S
C14 C15 1.409 . S
C14 H32 0.929 . S
C15 C14 1.409 . S
C15 C16 1.380 . S
C15 H33 0.930 . S
C16 C15 1.380 . S
C16 C23 1.357 1_545 S
C17 C8 1.511 1_565 S
C17 C18 1.341 . S
C17 C19 1.371 . S
C18 C17 1.341 . S
C18 C22 1.394 1_554 S
C18 H34 0.930 1_564 S
C19 C17 1.371 . S
C19 C20 1.392 . S
C19 H35 0.931 . S
C20 C19 1.392 . S
C20 C21 1.331 . S
C20 H38 0.932 . S
C21 C20 1.331 . S
C21 C22 1.336 1_554 S
C22 C18 1.394 1_556 S
C22 C21 1.336 1_556 S
C22 H37 0.929 . S
C23 C13 1.386 1_565 S
C23 C16 1.357 1_565 S
C23 H36 0.928 . S
H24 C0 0.931 . S
H25 C2 0.930 . S
H26 C4 0.929 . S
H27 C5 0.931 . S
H28 C7 0.930 1_556 S
H29 C11 0.931 1_655 S
H30 C9 0.931 1_565 S
H31 C13 0.931 1_565 S
H32 C14 0.929 . S
H33 C15 0.930 . S
H34 C18 0.930 1_546 S
H35 C19 0.931 . S
H36 C23 0.928 . S
H37 C22 0.929 . S
H38 C20 0.932 . S
C39 C40 1.386 . S
C39 C41 1.397 . S
C39 H63 0.931 . S
C40 C39 1.386 . S
C40 C44 1.397 . S
C41 C39 1.397 . S
C41 C42 1.384 . S
C41 H64 0.930 . S
C42 C41 1.384 . S
C42 C43 1.377 . S
C42 C45 1.481 . S
C43 C42 1.377 . S
C43 C44 1.389 . S
C43 H65 0.929 . S
C44 C40 1.397 . S
C44 C43 1.389 . S
C44 H66 0.931 . S
C45 C42 1.481 . S
C45 C46 1.387 . S
C45 C50 1.390 . S
C46 C45 1.387 . S
C46 C47 1.401 . S
C46 H67 0.930 . S
C47 C46 1.401 . S
C47 C48 1.376 . S
C47 C56 1.511 . S
C48 C47 1.376 . S
C48 C49 1.392 . S
C48 H69 0.931 . S
C49 C48 1.392 . S
C49 C50 1.361 . S
C49 C51 1.500 . S
C50 C45 1.390 . S
C50 C49 1.361 . S
C50 H68 0.931 . S
C51 C49 1.500 . S
C51 C52 1.371 . S
C51 C53 1.365 . S
C52 C51 1.371 . S
C52 C62 1.386 . S
C52 H70 0.931 . S
C53 C51 1.365 . S
C53 C54 1.409 . S
C53 H71 0.929 . S
C54 C53 1.409 . S
C54 C55 1.380 . S
C54 H72 0.930 . S
C55 C54 1.380 . S
C55 C62 1.357 . S
C56 C47 1.511 . S
C56 C57 1.341 . S
C56 C58 1.371 . S
C57 C56 1.341 . S
C57 C61 1.394 . S
C57 H73 0.930 . S
C58 C56 1.371 . S
C58 C59 1.392 . S
C58 H74 0.931 . S
C59 C58 1.392 . S
C59 C60 1.331 . S
C59 H77 0.932 . S
C60 C59 1.331 . S
C60 C61 1.336 . S
C61 C57 1.394 . S
C61 C60 1.336 . S
C61 H76 0.929 . S
C62 C52 1.386 . S
C62 C55 1.357 . S
C62 H75 0.928 . S
H63 C39 0.931 . S
H64 C41 0.930 . S
H65 C43 0.929 . S
H66 C44 0.931 . S
H67 C46 0.930 . S
H68 C50 0.931 . S
H69 C48 0.931 . S
H70 C52 0.931 . S
H71 C53 0.929 . S
H72 C54 0.930 . S
H73 C57 0.930 . S
H74 C58 0.931 . S
H75 C62 0.928 . S
H76 C61 0.929 . S
H77 C59 0.932 . S
C78 C79 1.386 . S
C78 C80 1.397 . S
C78 H102 0.931 . S
C79 C78 1.386 . S
C79 C83 1.397 . S
C80 C78 1.397 . S
C80 C81 1.384 . S
C80 H103 0.930 1_455 S
C81 C80 1.384 . S
C81 C82 1.377 . S
C81 C84 1.481 1_455 S
C82 C81 1.377 . S
C82 C83 1.389 . S
C82 H104 0.929 . S
C83 C79 1.397 . S
C83 C82 1.389 . S
C83 H105 0.931 . S
C84 C81 1.481 1_655 S
C84 C85 1.387 . S
C84 C89 1.390 . S
C85 C84 1.387 . S
C85 C86 1.401 . S
C85 H106 0.930 . S
C86 C85 1.401 . S
C86 C87 1.376 . S
C86 C95 1.511 . S
C87 C86 1.376 . S
C87 C88 1.392 . S
C87 H108 0.931 1_554 S
C88 C87 1.392 . S
C88 C89 1.361 . S
C88 C90 1.500 1_554 S
C89 C84 1.390 . S
C89 C88 1.361 . S
C89 H107 0.931 1_655 S
C90 C88 1.500 1_556 S
C90 C91 1.371 . S
C90 C92 1.365 1_655 S
C91 C90 1.371 . S
C91 C101 1.386 . S
C91 H109 0.931 . S
C92 C90 1.365 1_455 S
C92 C93 1.409 . S
C92 H110 0.929 . S
C93 C92 1.409 . S
C93 C94 1.380 1_455 S
C93 H111 0.930 . S
C94 C93 1.380 1_655 S
C94 C101 1.357 . S
C95 C86 1.511 . S
C95 C96 1.341 . S
C95 C97 1.371 1_554 S
C96 C95 1.341 . S
C96 C100 1.394 . S
C96 H112 0.930 . S
C97 C95 1.371 1_556 S
C97 C98 1.392 . S
C97 H113 0.931 . S
C98 C97 1.392 . S
C98 C99 1.331 1_556 S
C98 H116 0.932 . S
C99 C98 1.331 1_554 S
C99 C100 1.336 . S
C100 C96 1.394 . S
C100 C99 1.336 . S
C100 H115 0.929 . S
C101 C91 1.386 . S
C101 C94 1.357 . S
C101 H114 0.928 . S
H102 C78 0.931 . S
H103 C80 0.930 1_655 S
H104 C82 0.929 . S
H105 C83 0.931 . S
H106 C85 0.930 . S
H107 C89 0.931 1_455 S
H108 C87 0.931 1_556 S
H109 C91 0.931 . S
H110 C92 0.929 . S
H111 C93 0.930 . S
H112 C96 0.930 . S
H113 C97 0.931 . S
H114 C101 0.928 . S
H115 C100 0.929 . S
H116 C98 0.932 . S
C117 C118 1.386 . S
C117 C119 1.397 . S
C117 H141 0.931 . S
C118 C117 1.386 . S
C118 C122 1.397 . S
C119 C117 1.397 . S
C119 C120 1.384 . S
C119 H142 0.930 . S
C120 C119 1.384 . S
C120 C121 1.377 . S
C120 C123 1.481 . S
C121 C120 1.377 . S
C121 C122 1.389 . S
C121 H143 0.929 . S
C122 C118 1.397 . S
C122 C121 1.389 . S
C122 H144 0.931 . S
C123 C120 1.481 . S
C123 C124 1.387 . S
C123 C128 1.390 . S
C124 C123 1.387 . S
C124 C125 1.401 . S
C124 H145 0.930 . S
C125 C124 1.401 . S
C125 C126 1.376 . S
C125 C134 1.511 . S
C126 C125 1.376 . S
C126 C127 1.392 . S
C126 H147 0.931 . S
C127 C126 1.392 . S
C127 C128 1.361 . S
C127 C129 1.500 . S
C128 C123 1.390 . S
C128 C127 1.361 . S
C128 H146 0.931 . S
C129 C127 1.500 . S
C129 C130 1.371 . S
C129 C131 1.365 . S
C130 C129 1.371 . S
C130 C140 1.386 . S
C130 H148 0.931 . S
C131 C129 1.365 . S
C131 C132 1.409 . S
C131 H149 0.929 . S
C132 C131 1.409 . S
C132 C133 1.380 . S
C132 H150 0.930 . S
C133 C132 1.380 . S
C133 C140 1.357 . S
C134 C125 1.511 . S
C134 C135 1.341 . S
C134 C136 1.371 . S
C135 C134 1.341 . S
C135 C139 1.394 . S
C135 H151 0.930 . S
C136 C134 1.371 . S
C136 C137 1.392 . S
C136 H152 0.931 . S
C137 C136 1.392 . S
C137 C138 1.331 . S
C137 H155 0.932 . S
C138 C137 1.331 . S
C138 C139 1.336 . S
C139 C135 1.394 . S
C139 C138 1.336 . S
C139 H154 0.929 . S
C140 C130 1.386 . S
C140 C133 1.357 . S
C140 H153 0.928 . S
H141 C117 0.931 . S
H142 C119 0.930 . S
H143 C121 0.929 . S
H144 C122 0.931 . S
H145 C124 0.930 . S
H146 C128 0.931 . S
H147 C126 0.931 . S
H148 C130 0.931 . S
H149 C131 0.929 . S
H150 C132 0.930 . S
H151 C135 0.930 . S
H152 C136 0.931 . S
H153 C140 0.928 . S
H154 C139 0.929 . S
H155 C137 0.932 . S
C156 C157 1.386 . S
C156 C158 1.397 . S
C156 H180 0.931 . S
C157 C156 1.386 . S
C157 C161 1.398 . S
C158 C156 1.397 . S
C158 C159 1.384 . S
C158 H181 0.930 . S
C159 C158 1.384 . S
C159 C160 1.377 1_655 S
C159 C162 1.481 1_655 S
C160 C159 1.377 1_455 S
C160 C161 1.393 1_455 S
C160 H182 0.929 . S
C161 C157 1.398 . S
C161 C160 1.393 1_655 S
C161 H183 0.927 1_565 S
C162 C159 1.481 1_455 S
C162 C163 1.387 . S
C162 C167 1.390 1_565 S
C163 C162 1.387 . S
C163 C164 1.401 . S
C163 H184 0.930 1_455 S
C164 C163 1.401 . S
C164 C165 1.376 . S
C164 C173 1.511 . S
C165 C164 1.376 . S
C165 C166 1.392 . S
C165 H186 0.931 . S
C166 C165 1.392 . S
C166 C167 1.361 1_565 S
C166 C168 1.500 1_565 S
C167 C162 1.390 1_545 S
C167 C166 1.361 1_545 S
C167 H185 0.931 . S
C168 C166 1.500 1_545 S
C168 C169 1.371 . S
C168 C170 1.365 . S
C169 C168 1.371 . S
C169 C179 1.386 . S
C169 H187 0.931 . S
C170 C168 1.365 . S
C170 C171 1.409 . S
C170 H188 0.929 . S
C171 C170 1.409 . S
C171 C172 1.380 . S
C171 H189 0.930 . S
C172 C171 1.380 . S
C172 C179 1.357 . S
C173 C164 1.511 . S
C173 C174 1.341 1_455 S
C173 C175 1.371 . S
C174 C173 1.341 1_655 S
C174 C178 1.394 . S
C174 H190 0.930 . S
C175 C173 1.371 . S
C175 C176 1.392 . S
C175 H191 0.931 . S
C176 C175 1.392 . S
C176 C177 1.331 . S
C176 H194 0.932 . S
C177 C176 1.331 . S
C177 C178 1.336 1_455 S
C178 C174 1.394 . S
C178 C177 1.336 1_655 S
C178 H193 0.929 . S
C179 C169 1.386 . S
C179 C172 1.357 . S
C179 H192 0.928 . S
H180 C156 0.931 . S
H181 C158 0.930 . S
H182 C160 0.929 . S
H183 C161 0.927 1_545 S
H184 C163 0.930 1_655 S
H185 C167 0.931 . S
H186 C165 0.931 . S
H187 C169 0.931 . S
H188 C170 0.929 . S
H189 C171 0.930 . S
H190 C174 0.930 . S
H191 C175 0.931 . S
H192 C179 0.928 . S
H193 C178 0.929 . S
H194 C176 0.932 . S
C195 C196 1.386 . S
C195 C197 1.397 . S
C195 H219 0.931 . S
C196 C195 1.386 . S
C196 C200 1.397 . S
C197 C195 1.397 . S
C197 C198 1.384 . S
C197 H220 0.930 . S
C198 C197 1.384 . S
C198 C199 1.377 . S
C198 C201 1.481 . S
C199 C198 1.377 . S
C199 C200 1.389 . S
C199 H221 0.929 . S
C200 C196 1.397 . S
C200 C199 1.389 . S
C200 H222 0.931 . S
C201 C198 1.481 . S
C201 C202 1.387 . S
C201 C206 1.390 . S
C202 C201 1.387 . S
C202 C203 1.401 . S
C202 H223 0.930 . S
C203 C202 1.401 . S
C203 C204 1.376 . S
C203 C212 1.511 . S
C204 C203 1.376 . S
C204 C205 1.392 . S
C204 H225 0.931 . S
C205 C204 1.392 . S
C205 C206 1.361 . S
C205 C207 1.500 . S
C206 C201 1.390 . S
C206 C205 1.361 . S
C206 H224 0.931 . S
C207 C205 1.500 . S
C207 C208 1.371 . S
C207 C209 1.365 . S
C208 C207 1.371 . S
C208 C218 1.386 . S
C208 H226 0.931 . S
C209 C207 1.365 . S
C209 C210 1.409 . S
C209 H227 0.929 . S
C210 C209 1.409 . S
C210 C211 1.380 . S
C210 H228 0.930 . S
C211 C210 1.380 . S
C211 C218 1.357 . S
C212 C203 1.511 . S
C212 C213 1.341 . S
C212 C214 1.371 . S
C213 C212 1.341 . S
C213 C217 1.394 . S
C213 H229 0.930 . S
C214 C212 1.371 . S
C214 C215 1.392 . S
C214 H230 0.931 . S
C215 C214 1.392 . S
C215 C216 1.331 . S
C215 H233 0.932 . S
C216 C215 1.331 . S
C216 C217 1.336 . S
C217 C213 1.394 . S
C217 C216 1.336 . S
C217 H232 0.929 . S
C218 C208 1.386 . S
C218 C211 1.357 . S
C218 H231 0.928 . S
H219 C195 0.931 . S
H220 C197 0.930 . S
H221 C199 0.929 . S
H222 C200 0.931 . S
H223 C202 0.930 . S
H224 C206 0.931 . S
H225 C204 0.931 . S
H226 C208 0.931 . S
H227 C209 0.929 . S
H228 C210 0.930 . S
H229 C213 0.930 . S
H230 C214 0.931 . S
H231 C218 0.928 . S
H232 C217 0.929 . S
H233 C215 0.932 . S
C234 C235 1.386 . S
C234 C236 1.397 . S
C234 H258 0.931 1_655 S
C235 C234 1.386 . S
C235 C239 1.397 . S
C236 C234 1.397 . S
C236 C237 1.384 . S
C236 H259 0.930 . S
C237 C236 1.384 . S
C237 C238 1.377 . S
C237 C240 1.481 . S
C238 C237 1.377 . S
C238 C239 1.389 . S
C238 H260 0.929 . S
C239 C235 1.397 . S
C239 C238 1.389 . S
C239 H261 0.931 . S
C240 C237 1.481 . S
C240 C241 1.387 . S
C240 C245 1.390 . S
C241 C240 1.387 . S
C241 C242 1.401 . S
C241 H262 0.930 1_655 S
C242 C241 1.401 . S
C242 C243 1.376 . S
C242 C251 1.511 1_655 S
C243 C242 1.376 . S
C243 C244 1.392 . S
C243 H264 0.931 . S
C244 C243 1.392 . S
C244 C245 1.361 . S
C244 C246 1.500 . S
C245 C240 1.390 . S
C245 C244 1.361 . S
C245 H263 0.931 . S
C246 C244 1.500 . S
C246 C247 1.371 . S
C246 C248 1.365 . S
C247 C246 1.371 . S
C247 C257 1.386 . S
C247 H265 0.931 . S
C248 C246 1.365 . S
C248 C249 1.409 . S
C248 H266 0.929 . S
C249 C248 1.409 . S
C249 C250 1.380 . S
C249 H267 0.930 . S
C250 C249 1.380 . S
C250 C257 1.357 . S
C251 C242 1.511 1_455 S
C251 C252 1.341 . S
C251 C253 1.371 . S
C252 C251 1.341 . S
C252 C256 1.394 . S
C252 H268 0.930 . S
C253 C251 1.371 . S
C253 C254 1.392 . S
C253 H269 0.931 . S
C254 C253 1.392 . S
C254 C255 1.331 . S
C254 H272 0.932 . S
C255 C254 1.331 . S
C255 C256 1.336 . S
C256 C252 1.394 . S
C256 C255 1.336 . S
C256 H271 0.929 . S
C257 C247 1.386 . S
C257 C250 1.357 . S
C257 H270 0.928 . S
H258 C234 0.931 1_455 S
H259 C236 0.930 . S
H260 C238 0.929 . S
H261 C239 0.931 . S
H262 C241 0.930 1_455 S
H263 C245 0.931 . S
H264 C243 0.931 . S
H265 C247 0.931 . S
H266 C248 0.929 . S
H267 C249 0.930 . S
H268 C252 0.930 . S
H269 C253 0.931 . S
H270 C257 0.928 . S
H271 C256 0.929 . S
H272 C254 0.932 . S
C273 C274 1.386 . S
C273 C275 1.397 . S
C273 H297 0.931 . S
C274 C273 1.386 . S
C274 C278 1.397 . S
C275 C273 1.397 . S
C275 C276 1.384 . S
C275 H298 0.930 . S
C276 C275 1.384 . S
C276 C277 1.377 . S
C276 C279 1.481 . S
C277 C276 1.377 . S
C277 C278 1.389 . S
C277 H299 0.929 . S
C278 C274 1.397 . S
C278 C277 1.389 . S
C278 H300 0.931 . S
C279 C276 1.481 . S
C279 C280 1.387 . S
C279 C284 1.390 . S
C280 C279 1.387 . S
C280 C281 1.401 . S
C280 H301 0.930 . S
C281 C280 1.401 . S
C281 C282 1.376 . S
C281 C290 1.511 . S
C282 C281 1.376 . S
C282 C283 1.392 . S
C282 H303 0.931 . S
C283 C282 1.392 . S
C283 C284 1.361 . S
C283 C285 1.500 . S
C284 C279 1.390 . S
C284 C283 1.361 . S
C284 H302 0.931 . S
C285 C283 1.500 . S
C285 C286 1.371 . S
C285 C287 1.365 . S
C286 C285 1.371 . S
C286 C296 1.386 . S
C286 H304 0.931 . S
C287 C285 1.365 . S
C287 C288 1.409 . S
C287 H305 0.929 . S
C288 C287 1.409 . S
C288 C289 1.380 . S
C288 H306 0.930 . S
C289 C288 1.380 . S
C289 C296 1.357 . S
C290 C281 1.511 . S
C290 C291 1.341 . S
C290 C292 1.371 . S
C291 C290 1.341 . S
C291 C295 1.394 . S
C291 H307 0.930 . S
C292 C290 1.371 . S
C292 C293 1.392 . S
C292 H308 0.931 . S
C293 C292 1.392 . S
C293 C294 1.331 . S
C293 H311 0.932 . S
C294 C293 1.331 . S
C294 C295 1.336 . S
C295 C291 1.394 . S
C295 C294 1.336 . S
C295 H310 0.929 . S
C296 C286 1.386 . S
C296 C289 1.357 . S
C296 H309 0.928 . S
H297 C273 0.931 . S
H298 C275 0.930 . S
H299 C277 0.929 . S
H300 C278 0.931 . S
H301 C280 0.930 . S
H302 C284 0.931 . S
H303 C282 0.931 . S
H304 C286 0.931 . S
H305 C287 0.929 . S
H306 C288 0.930 . S
H307 C291 0.930 . S
H308 C292 0.931 . S
H309 C296 0.928 . S
H310 C295 0.929 . S
H311 C293 0.932 . S
C312 C313 1.386 . S
C312 C314 1.397 . S
C312 H336 0.931 . S
C313 C312 1.386 . S
C313 C317 1.397 . S
C314 C312 1.397 . S
C314 C315 1.384 . S
C314 H337 0.930 . S
C315 C314 1.384 . S
C315 C316 1.377 . S
C315 C318 1.481 . S
C316 C315 1.377 . S
C316 C317 1.389 . S
C316 H338 0.929 . S
C317 C313 1.397 . S
C317 C316 1.389 . S
C317 H339 0.931 . S
C318 C315 1.481 . S
C318 C319 1.387 . S
C318 C323 1.390 . S
C319 C318 1.387 . S
C319 C320 1.401 . S
C319 H340 0.930 . S
C320 C319 1.401 . S
C320 C321 1.376 . S
C320 C329 1.511 . S
C321 C320 1.376 . S
C321 C322 1.392 . S
C321 H342 0.931 . S
C322 C321 1.392 . S
C322 C323 1.361 . S
C322 C324 1.500 . S
C323 C318 1.390 . S
C323 C322 1.361 . S
C323 H341 0.931 . S
C324 C322 1.500 . S
C324 C325 1.371 . S
C324 C326 1.365 . S
C325 C324 1.371 . S
C325 C335 1.386 . S
C325 H343 0.931 . S
C326 C324 1.365 . S
C326 C327 1.409 . S
C326 H344 0.929 . S
C327 C326 1.409 . S
C327 C328 1.380 . S
C327 H345 0.930 . S
C328 C327 1.380 . S
C328 C335 1.357 . S
C329 C320 1.511 . S
C329 C330 1.341 . S
C329 C331 1.371 . S
C330 C329 1.341 . S
C330 C334 1.394 . S
C330 H346 0.930 . S
C331 C329 1.371 . S
C331 C332 1.392 . S
C331 H347 0.931 . S
C332 C331 1.392 . S
C332 C333 1.331 . S
C332 H350 0.932 . S
C333 C332 1.331 . S
C333 C334 1.336 . S
C334 C330 1.394 . S
C334 C333 1.336 . S
C334 H349 0.929 . S
C335 C325 1.386 . S
C335 C328 1.357 . S
C335 H348 0.928 . S
H336 C312 0.931 . S
H337 C314 0.930 . S
H338 C316 0.929 . S
H339 C317 0.931 . S
H340 C319 0.930 . S
H341 C323 0.931 . S
H342 C321 0.931 . S
H343 C325 0.931 . S
H344 C326 0.929 . S
H345 C327 0.930 . S
H346 C330 0.930 . S
H347 C331 0.931 . S
H348 C335 0.928 . S
H349 C334 0.929 . S
H350 C332 0.932 . S
C351 C352 1.386 . S
C351 C353 1.397 . S
C351 H375 0.931 1_565 S
C352 C351 1.386 . S
C352 C356 1.397 . S
C353 C351 1.397 . S
C353 C354 1.384 . S
C353 H376 0.930 . S
C354 C353 1.384 . S
C354 C355 1.377 . S
C354 C357 1.481 . S
C355 C354 1.377 . S
C355 C356 1.389 . S
C355 H377 0.929 . S
C356 C352 1.397 . S
C356 C355 1.389 . S
C356 H378 0.931 . S
C357 C354 1.481 . S
C357 C358 1.387 . S
C357 C362 1.390 . S
C358 C357 1.387 . S
C358 C359 1.401 . S
C358 H379 0.930 1_565 S
C359 C358 1.401 . S
C359 C360 1.376 . S
C359 C368 1.511 1_565 S
C360 C359 1.376 . S
C360 C361 1.392 . S
C360 H381 0.931 . S
C361 C360 1.392 . S
C361 C362 1.361 . S
C361 C363 1.500 . S
C362 C357 1.390 . S
C362 C361 1.361 . S
C362 H380 0.931 . S
C363 C361 1.500 . S
C363 C364 1.371 . S
C363 C365 1.365 . S
C364 C363 1.371 . S
C364 C374 1.386 . S
C364 H382 0.931 . S
C365 C363 1.365 . S
C365 C366 1.409 . S
C365 H383 0.929 . S
C366 C365 1.409 . S
C366 C367 1.380 . S
C366 H384 0.930 . S
C367 C366 1.380 . S
C367 C374 1.357 . S
C368 C359 1.511 1_545 S
C368 C369 1.341 . S
C368 C370 1.371 . S
C369 C368 1.341 . S
C369 C373 1.394 . S
C369 H385 0.930 . S
C370 C368 1.371 . S
C370 C371 1.392 . S
C370 H386 0.931 . S
C371 C370 1.392 . S
C371 C372 1.331 . S
C371 H389 0.932 . S
C372 C371 1.331 . S
C372 C373 1.336 . S
C373 C369 1.394 . S
C373 C372 1.336 . S
C373 H388 0.929 . S
C374 C364 1.386 . S
C374 C367 1.357 . S
C374 H387 0.928 . S
H375 C351 0.931 1_545 S
H376 C353 0.930 . S
H377 C355 0.929 . S
H378 C356 0.931 . S
H379 C358 0.930 1_545 S
H380 C362 0.931 . S
H381 C360 0.931 . S
H382 C364 0.931 . S
H383 C365 0.929 . S
H384 C366 0.930 . S
H385 C369 0.930 . S
H386 C370 0.931 . S
H387 C374 0.928 . S
H388 C373 0.929 . S
H389 C371 0.932 . S
C390 C391 1.386 . S
C390 C392 1.397 . S
C390 H414 0.931 . S
C391 C390 1.386 . S
C391 C395 1.397 . S
C392 C390 1.397 . S
C392 C393 1.384 . S
C392 H415 0.930 . S
C393 C392 1.384 . S
C393 C394 1.377 . S
C393 C396 1.481 . S
C394 C393 1.377 . S
C394 C395 1.389 . S
C394 H416 0.929 . S
C395 C391 1.397 . S
C395 C394 1.389 . S
C395 H417 0.931 . S
C396 C393 1.481 . S
C396 C397 1.387 . S
C396 C401 1.390 . S
C397 C396 1.387 . S
C397 C398 1.401 . S
C397 H418 0.930 . S
C398 C397 1.401 . S
C398 C399 1.376 . S
C398 C407 1.511 . S
C399 C398 1.376 . S
C399 C400 1.392 . S
C399 H420 0.931 . S
C400 C399 1.392 . S
C400 C401 1.361 . S
C400 C402 1.500 . S
C401 C396 1.390 . S
C401 C400 1.361 . S
C401 H419 0.931 . S
C402 C400 1.500 . S
C402 C403 1.371 . S
C402 C404 1.365 . S
C403 C402 1.371 . S
C403 C413 1.386 . S
C403 H421 0.931 . S
C404 C402 1.365 . S
C404 C405 1.409 . S
C404 H422 0.929 . S
C405 C404 1.409 . S
C405 C406 1.380 . S
C405 H423 0.930 . S
C406 C405 1.380 . S
C406 C413 1.357 . S
C407 C398 1.511 . S
C407 C408 1.341 . S
C407 C409 1.371 . S
C408 C407 1.341 . S
C408 C412 1.394 . S
C408 H424 0.930 . S
C409 C407 1.371 . S
C409 C410 1.392 . S
C409 H425 0.931 . S
C410 C409 1.392 . S
C410 C411 1.331 . S
C410 H428 0.932 . S
C411 C410 1.331 . S
C411 C412 1.336 . S
C412 C408 1.394 . S
C412 C411 1.336 . S
C412 H427 0.929 . S
C413 C403 1.386 . S
C413 C406 1.357 . S
C413 H426 0.928 . S
H414 C390 0.931 . S
H415 C392 0.930 . S
H416 C394 0.929 . S
H417 C395 0.931 . S
H418 C397 0.930 . S
H419 C401 0.931 . S
H420 C399 0.931 . S
H421 C403 0.931 . S
H422 C404 0.929 . S
H423 C405 0.930 . S
H424 C408 0.930 . S
H425 C409 0.931 . S
H426 C413 0.928 . S
H427 C412 0.929 . S
H428 C410 0.932 . S
C429 C430 1.386 . S
C429 C431 1.397 . S
C429 H453 0.931 . S
C430 C429 1.386 . S
C430 C434 1.397 . S
C431 C429 1.397 . S
C431 C432 1.384 . S
C431 H454 0.930 . S
C432 C431 1.384 . S
C432 C433 1.377 . S
C432 C435 1.481 . S
C433 C432 1.377 . S
C433 C434 1.389 . S
C433 H455 0.929 . S
C434 C430 1.397 . S
C434 C433 1.389 . S
C434 H456 0.931 . S
C435 C432 1.481 . S
C435 C436 1.387 . S
C435 C440 1.390 . S
C436 C435 1.387 . S
C436 C437 1.401 . S
C436 H457 0.930 . S
C437 C436 1.401 . S
C437 C438 1.376 . S
C437 C446 1.511 . S
C438 C437 1.376 . S
C438 C439 1.392 . S
C438 H459 0.931 . S
C439 C438 1.392 . S
C439 C440 1.361 . S
C439 C441 1.500 . S
C440 C435 1.390 . S
C440 C439 1.361 . S
C440 H458 0.931 . S
C441 C439 1.500 . S
C441 C442 1.371 . S
C441 C443 1.365 . S
C442 C441 1.371 . S
C442 C452 1.386 . S
C442 H460 0.931 . S
C443 C441 1.365 . S
C443 C444 1.409 . S
C443 H461 0.929 . S
C444 C443 1.409 . S
C444 C445 1.380 . S
C444 H462 0.930 . S
C445 C444 1.380 . S
C445 C452 1.357 . S
C446 C437 1.511 . S
C446 C447 1.341 . S
C446 C448 1.371 . S
C447 C446 1.341 . S
C447 C451 1.394 . S
C447 H463 0.930 . S
C448 C446 1.371 . S
C448 C449 1.392 . S
C448 H464 0.931 . S
C449 C448 1.392 . S
C449 C450 1.331 . S
C449 H467 0.932 . S
C450 C449 1.331 . S
C450 C451 1.336 . S
C451 C447 1.394 . S
C451 C450 1.336 . S
C451 H466 0.929 . S
C452 C442 1.386 . S
C452 C445 1.357 . S
C452 H465 0.928 . S
H453 C429 0.931 . S
H454 C431 0.930 . S
H455 C433 0.929 . S
H456 C434 0.931 . S
H457 C436 0.930 . S
H458 C440 0.931 . S
H459 C438 0.931 . S
H460 C442 0.931 . S
H461 C443 0.929 . S
H462 C444 0.930 . S
H463 C447 0.930 . S
H464 C448 0.931 . S
H465 C452 0.928 . S
H466 C451 0.929 . S
H467 C449 0.932 . S
C468 C469 1.386 . S
C468 C470 1.397 . S
C468 H492 0.931 . S
C469 C468 1.386 . S
C469 C473 1.397 . S
C470 C468 1.397 . S
C470 C471 1.384 . S
C470 H493 0.930 . S
C471 C470 1.384 . S
C471 C472 1.377 . S
C471 C474 1.481 . S
C472 C471 1.377 . S
C472 C473 1.389 . S
C472 H494 0.929 . S
C473 C469 1.397 . S
C473 C472 1.389 . S
C473 H495 0.931 . S
C474 C471 1.481 . S
C474 C475 1.387 . S
C474 C479 1.390 . S
C475 C474 1.387 . S
C475 C476 1.401 . S
C475 H496 0.930 . S
C476 C475 1.401 . S
C476 C477 1.376 . S
C476 C485 1.511 . S
C477 C476 1.376 . S
C477 C478 1.392 . S
C477 H498 0.931 . S
C478 C477 1.392 . S
C478 C479 1.361 . S
C478 C480 1.500 . S
C479 C474 1.390 . S
C479 C478 1.361 . S
C479 H497 0.931 . S
C480 C478 1.500 . S
C480 C481 1.371 . S
C480 C482 1.365 . S
C481 C480 1.371 . S
C481 C491 1.386 . S
C481 H499 0.931 . S
C482 C480 1.365 . S
C482 C483 1.409 . S
C482 H500 0.929 . S
C483 C482 1.409 . S
C483 C484 1.380 . S
C483 H501 0.930 . S
C484 C483 1.380 . S
C484 C491 1.357 . S
C485 C476 1.511 . S
C485 C486 1.341 . S
C485 C487 1.371 . S
C486 C485 1.341 . S
C486 C490 1.394 . S
C486 H502 0.930 . S
C487 C485 1.371 . S
C487 C488 1.392 . S
C487 H503 0.931 . S
C488 C487 1.392 . S
C488 C489 1.331 . S
C488 H506 0.932 . S
C489 C488 1.331 . S
C489 C490 1.336 . S
C490 C486 1.394 . S
C490 C489 1.336 . S
C490 H505 0.929 . S
C491 C481 1.386 . S
C491 C484 1.357 . S
C491 H504 0.928 . S
H492 C468 0.931 . S
H493 C470 0.930 . S
H494 C472 0.929 . S
H495 C473 0.931 . S
H496 C475 0.930 . S
H497 C479 0.931 . S
H498 C477 0.931 . S
H499 C481 0.931 . S
H500 C482 0.929 . S
H501 C483 0.930 . S
H502 C486 0.930 . S
H503 C487 0.931 . S
H504 C491 0.928 . S
H505 C490 0.929 . S
H506 C488 0.932 . S
C507 C508 1.386 . S
C507 C509 1.397 . S
C507 H531 0.931 . S
C508 C507 1.386 . S
C508 C512 1.397 . S
C509 C507 1.397 . S
C509 C510 1.384 . S
C509 H532 0.930 . S
C510 C509 1.384 . S
C510 C511 1.377 . S
C510 C513 1.481 . S
C511 C510 1.377 . S
C511 C512 1.389 . S
C511 H533 0.929 . S
C512 C508 1.397 . S
C512 C511 1.389 . S
C512 H534 0.931 . S
C513 C510 1.481 . S
C513 C514 1.387 . S
C513 C518 1.390 . S
C514 C513 1.387 . S
C514 C515 1.401 . S
C514 H535 0.930 . S
C515 C514 1.401 . S
C515 C516 1.376 . S
C515 C524 1.511 1_556 S
C516 C515 1.376 . S
C516 C517 1.392 . S
C516 H537 0.931 1_556 S
C517 C516 1.392 . S
C517 C518 1.361 . S
C517 C519 1.500 . S
C518 C513 1.390 . S
C518 C517 1.361 . S
C518 H536 0.931 . S
C519 C517 1.500 . S
C519 C520 1.371 1_556 S
C519 C521 1.365 . S
C520 C519 1.371 1_554 S
C520 C530 1.386 . S
C520 H538 0.931 . S
C521 C519 1.365 . S
C521 C522 1.409 . S
C521 H539 0.929 . S
C522 C521 1.409 . S
C522 C523 1.380 . S
C522 H540 0.930 . S
C523 C522 1.380 . S
C523 C530 1.357 1_556 S
C524 C515 1.511 1_554 S
C524 C525 1.341 . S
C524 C526 1.371 . S
C525 C524 1.341 . S
C525 C529 1.394 . S
C525 H541 0.930 1_554 S
C526 C524 1.371 . S
C526 C527 1.392 . S
C526 H542 0.931 . S
C527 C526 1.392 . S
C527 C528 1.331 . S
C527 H545 0.932 . S
C528 C527 1.331 . S
C528 C529 1.336 . S
C529 C525 1.394 . S
C529 C528 1.336 . S
C529 H544 0.929 . S
C530 C520 1.386 . S
C530 C523 1.357 1_554 S
C530 H543 0.928 . S
H531 C507 0.931 . S
H532 C509 0.930 . S
H533 C511 0.929 . S
H534 C512 0.931 . S
H535 C514 0.930 . S
H536 C518 0.931 . S
H537 C516 0.931 1_554 S
H538 C520 0.931 . S
H539 C521 0.929 . S
H540 C522 0.930 . S
H541 C525 0.930 1_556 S
H542 C526 0.931 . S
H543 C530 0.928 . S
H544 C529 0.929 . S
H545 C527 0.932 . S
C546 C547 1.386 . S
C546 C548 1.397 . S
C546 H570 0.931 . S
C547 C546 1.386 . S
C547 C551 1.397 . S
C548 C546 1.397 . S
C548 C549 1.384 . S
C548 H571 0.930 . S
C549 C548 1.384 . S
C549 C550 1.377 . S
C549 C552 1.481 . S
C550 C549 1.377 . S
C550 C551 1.389 . S
C550 H572 0.929 . S
C551 C547 1.397 . S
C551 C550 1.389 . S
C551 H573 0.931 . S
C552 C549 1.481 . S
C552 C553 1.387 . S
C552 C557 1.390 . S
C553 C552 1.387 . S
C553 C554 1.401 . S
C553 H574 0.930 . S
C554 C553 1.401 . S
C554 C555 1.376 . S
C554 C563 1.511 . S
C555 C554 1.376 . S
C555 C556 1.392 . S
C555 H576 0.931 . S
C556 C555 1.392 . S
C556 C557 1.361 . S
C556 C558 1.500 . S
C557 C552 1.390 . S
C557 C556 1.361 . S
C557 H575 0.931 . S
C558 C556 1.500 . S
C558 C559 1.371 . S
C558 C560 1.365 . S
C559 C558 1.371 . S
C559 C569 1.386 . S
C559 H577 0.931 . S
C560 C558 1.365 . S
C560 C561 1.409 . S
C560 H578 0.929 . S
C561 C560 1.409 . S
C561 C562 1.380 . S
C561 H579 0.930 . S
C562 C561 1.380 . S
C562 C569 1.357 . S
C563 C554 1.511 . S
C563 C564 1.341 . S
C563 C565 1.371 . S
C564 C563 1.341 . S
C564 C568 1.394 . S
C564 H580 0.930 . S
C565 C563 1.371 . S
C565 C566 1.392 . S
C565 H581 0.931 . S
C566 C565 1.392 . S
C566 C567 1.331 . S
C566 H584 0.932 . S
C567 C566 1.331 . S
C567 C568 1.336 . S
C568 C564 1.394 . S
C568 C567 1.336 . S
C568 H583 0.929 . S
C569 C559 1.386 . S
C569 C562 1.357 . S
C569 H582 0.928 . S
H570 C546 0.931 . S
H571 C548 0.930 . S
H572 C550 0.929 . S
H573 C551 0.931 . S
H574 C553 0.930 . S
H575 C557 0.931 . S
H576 C555 0.931 . S
H577 C559 0.931 . S
H578 C560 0.929 . S
H579 C561 0.930 . S
H580 C564 0.930 . S
H581 C565 0.931 . S
H582 C569 0.928 . S
H583 C568 0.929 . S
H584 C566 0.932 . S
C585 C586 1.386 . S
C585 C587 1.397 . S
C585 H609 0.931 . S
C586 C585 1.386 . S
C586 C590 1.397 . S
C587 C585 1.397 . S
C587 C588 1.384 . S
C587 H610 0.930 1_554 S
C588 C587 1.384 . S
C588 C589 1.377 . S
C588 C591 1.481 1_554 S
C589 C588 1.377 . S
C589 C590 1.389 . S
C589 H611 0.929 . S
C590 C586 1.397 . S
C590 C589 1.389 . S
C590 H612 0.931 . S
C591 C588 1.481 1_556 S
C591 C592 1.387 . S
C591 C596 1.390 . S
C592 C591 1.387 . S
C592 C593 1.401 . S
C592 H613 0.930 . S
C593 C592 1.401 . S
C593 C594 1.376 . S
C593 C602 1.511 . S
C594 C593 1.376 . S
C594 C595 1.392 . S
C594 H615 0.931 1_545 S
C595 C594 1.392 . S
C595 C596 1.361 . S
C595 C597 1.500 1_545 S
C596 C591 1.390 . S
C596 C595 1.361 . S
C596 H614 0.931 1_556 S
C597 C595 1.500 1_565 S
C597 C598 1.371 . S
C597 C599 1.365 1_556 S
C598 C597 1.371 . S
C598 C608 1.386 . S
C598 H616 0.931 . S
C599 C597 1.365 1_554 S
C599 C600 1.409 . S
C599 H617 0.929 . S
C600 C599 1.409 . S
C600 C601 1.380 1_554 S
C600 H618 0.930 . S
C601 C600 1.380 1_556 S
C601 C608 1.357 . S
C602 C593 1.511 . S
C602 C603 1.341 . S
C602 C604 1.371 1_545 S
C603 C602 1.341 . S
C603 C607 1.394 . S
C603 H619 0.930 . S
C604 C602 1.371 1_565 S
C604 C605 1.392 . S
C604 H620 0.931 . S
C605 C604 1.392 . S
C605 C606 1.331 1_565 S
C605 H623 0.932 . S
C606 C605 1.331 1_545 S
C606 C607 1.336 . S
C607 C603 1.394 . S
C607 C606 1.336 . S
C607 H622 0.929 . S
C608 C598 1.386 . S
C608 C601 1.357 . S
C608 H621 0.928 . S
H609 C585 0.931 . S
H610 C587 0.930 1_556 S
H611 C589 0.929 . S
H612 C590 0.931 . S
H613 C592 0.930 . S
H614 C596 0.931 1_554 S
H615 C594 0.931 1_565 S
H616 C598 0.931 . S
H617 C599 0.929 . S
H618 C600 0.930 . S
H619 C603 0.930 . S
H620 C604 0.931 . S
H621 C608 0.928 . S
H622 C607 0.929 . S
H623 C605 0.932 . S
C624 O625 1.160 1_554 S
C624 O631 1.185 . S
O625 C624 1.160 1_556 S
O626 Zn627 1.899 1_556 S
O626 C634 1.284 . S
Zn627 O626 1.899 1_554 S
Zn627 O628 2.032 . S
Zn627 O631 2.086 . S
Zn627 O636 1.977 . S
O628 Zn627 2.032 . S
O628 C632 1.278 . S
C629 O630 1.203 . S
C629 O636 1.267 . S
O630 C629 1.203 . S
O631 C624 1.185 . S
O631 Zn627 2.086 . S
C632 O628 1.278 . S
C632 O633 1.211 . S
O633 C632 1.211 . S
C634 O626 1.284 . S
C634 O635 1.273 . S
O635 C634 1.273 . S
O636 Zn627 1.977 . S
O636 C629 1.267 . S
C637 O638 1.160 . S
C637 O644 1.185 . S
O638 C637 1.160 . S
O639 Zn640 1.899 . S
O639 C647 1.284 . S
Zn640 O639 1.899 . S
Zn640 O641 2.032 . S
Zn640 O644 2.086 . S
Zn640 O649 1.977 . S
O641 Zn640 2.032 . S
O641 C645 1.278 . S
C642 O643 1.203 . S
C642 O649 1.267 . S
O643 C642 1.203 . S
O644 C637 1.185 . S
O644 Zn640 2.086 . S
C645 O641 1.278 . S
C645 O646 1.211 . S
O646 C645 1.211 . S
C647 O639 1.284 . S
C647 O648 1.273 . S
O648 C647 1.273 . S
O649 Zn640 1.977 . S
O649 C642 1.267 . S
C650 O651 1.160 1_554 S
C650 O657 1.185 . S
O651 C650 1.160 1_556 S
O652 Zn653 1.899 1_556 S
O652 C660 1.284 . S
Zn653 O652 1.899 1_554 S
Zn653 O654 2.032 1_554 S
Zn653 O657 2.086 . S
Zn653 O662 1.977 . S
O654 Zn653 2.032 1_556 S
O654 C658 1.278 . S
C655 O656 1.203 . S
C655 O662 1.267 . S
O656 C655 1.203 . S
O657 C650 1.185 . S
O657 Zn653 2.086 . S
C658 O654 1.278 . S
C658 O659 1.211 1_556 S
O659 C658 1.211 1_554 S
C660 O652 1.284 . S
C660 O661 1.273 . S
O661 C660 1.273 . S
O662 Zn653 1.977 . S
O662 C655 1.267 . S
C663 O664 1.160 . S
C663 O670 1.185 . S
O664 C663 1.160 . S
O665 Zn666 1.899 . S
O665 C673 1.284 1_545 S
Zn666 O665 1.899 . S
Zn666 O667 2.032 1_545 S
Zn666 O670 2.086 . S
Zn666 O675 1.977 . S
O667 Zn666 2.032 1_565 S
O667 C671 1.278 . S
C668 O669 1.203 1_545 S
C668 O675 1.267 . S
O669 C668 1.203 1_565 S
O670 C663 1.185 . S
O670 Zn666 2.086 . S
C671 O667 1.278 . S
C671 O672 1.211 . S
O672 C671 1.211 . S
C673 O665 1.284 1_565 S
C673 O674 1.273 . S
O674 C673 1.273 . S
O675 Zn666 1.977 . S
O675 C668 1.267 . S
C676 O677 1.160 . S
C676 O683 1.185 . S
O677 C676 1.160 . S
O678 Zn679 1.899 . S
O678 C686 1.284 . S
Zn679 O678 1.899 . S
Zn679 O680 2.032 . S
Zn679 O683 2.086 . S
Zn679 O688 1.977 . S
O680 Zn679 2.032 . S
O680 C684 1.278 . S
C681 O682 1.203 . S
C681 O688 1.267 . S
O682 C681 1.203 . S
O683 C676 1.185 . S
O683 Zn679 2.086 . S
C684 O680 1.278 . S
C684 O685 1.211 . S
O685 C684 1.211 . S
C686 O678 1.284 . S
C686 O687 1.273 . S
O687 C686 1.273 . S
O688 Zn679 1.977 . S
O688 C681 1.267 . S
C689 O690 1.160 . S
C689 O696 1.185 . S
O690 C689 1.160 . S
O691 Zn692 1.899 . S
O691 C699 1.284 . S
Zn692 O691 1.899 . S
Zn692 O693 2.032 . S
Zn692 O696 2.086 . S
Zn692 O701 1.977 . S
O693 Zn692 2.032 . S
O693 C697 1.278 . S
C694 O695 1.203 . S
C694 O701 1.267 . S
O695 C694 1.203 . S
O696 C689 1.185 . S
O696 Zn692 2.086 . S
C697 O693 1.278 . S
C697 O698 1.211 . S
O698 C697 1.211 . S
C699 O691 1.284 . S
C699 O700 1.273 . S
O700 C699 1.273 . S
O701 Zn692 1.977 . S
O701 C694 1.267 . S
C702 O703 1.160 . S
C702 O709 1.185 . S
O703 C702 1.160 . S
O704 Zn705 1.899 . S
O704 C712 1.284 . S
Zn705 O704 1.899 . S
Zn705 O706 2.032 . S
Zn705 O709 2.086 . S
Zn705 O714 1.977 . S
O706 Zn705 2.032 . S
O706 C710 1.278 . S
C707 O708 1.203 . S
C707 O714 1.267 . S
O708 C707 1.203 . S
O709 C702 1.185 . S
O709 Zn705 2.086 . S
C710 O706 1.278 . S
C710 O711 1.211 . S
O711 C710 1.211 . S
C712 O704 1.284 . S
C712 O713 1.273 . S
O713 C712 1.273 . S
O714 Zn705 1.977 . S
O714 C707 1.267 . S
C715 O716 1.160 . S
C715 O722 1.185 . S
O716 C715 1.160 . S
O717 Zn718 1.899 . S
O717 C725 1.284 1_565 S
Zn718 O717 1.899 . S
Zn718 O719 2.032 1_565 S
Zn718 O722 2.086 . S
Zn718 O727 1.977 . S
O719 Zn718 2.032 1_545 S
O719 C723 1.278 . S
C720 O721 1.203 1_565 S
C720 O727 1.267 . S
O721 C720 1.203 1_545 S
O722 C715 1.185 . S
O722 Zn718 2.086 . S
C723 O719 1.278 . S
C723 O724 1.211 . S
O724 C723 1.211 . S
C725 O717 1.284 1_545 S
C725 O726 1.273 . S
O726 C725 1.273 . S
O727 Zn718 1.977 . S
O727 C720 1.267 . S
C728 O729 1.160 1_455 S
C728 O735 1.185 . S
O729 C728 1.160 1_655 S
O730 Zn731 1.899 1_655 S
O730 C738 1.284 . S
Zn731 O730 1.899 1_455 S
Zn731 O732 2.032 1_455 S
Zn731 O735 2.086 . S
Zn731 O740 1.977 . S
O732 Zn731 2.032 1_655 S
O732 C736 1.276 1_655 S
C733 O734 1.203 . S
C733 O740 1.267 . S
O734 C733 1.203 . S
O735 C728 1.185 . S
O735 Zn731 2.086 . S
C736 O732 1.276 1_455 S
C736 O737 1.218 . S
O737 C736 1.218 . S
C738 O730 1.284 . S
C738 O739 1.273 . S
O739 C738 1.273 . S
O740 Zn731 1.977 . S
O740 C733 1.267 . S
C741 O742 1.160 . S
C741 O748 1.185 . S
O742 C741 1.160 . S
O743 Zn744 1.899 . S
O743 C751 1.284 . S
Zn744 O743 1.899 . S
Zn744 O745 2.032 . S
Zn744 O748 2.086 . S
Zn744 O753 1.977 . S
O745 Zn744 2.032 . S
O745 C749 1.278 . S
C746 O747 1.203 . S
C746 O753 1.267 . S
O747 C746 1.203 . S
O748 C741 1.185 . S
O748 Zn744 2.086 . S
C749 O745 1.278 . S
C749 O750 1.211 . S
O750 C749 1.211 . S
C751 O743 1.284 . S
C751 O752 1.273 . S
O752 C751 1.273 . S
O753 Zn744 1.977 . S
O753 C746 1.267 . S
C754 O755 1.160 1_455 S
C754 O761 1.185 . S
O755 C754 1.160 1_655 S
O756 Zn757 1.899 1_655 S
O756 C764 1.284 . S
Zn757 O756 1.899 1_455 S
Zn757 O758 2.032 1_455 S
Zn757 O761 2.086 . S
Zn757 O766 1.977 . S
O758 Zn757 2.032 1_655 S
O758 C762 1.280 . S
C759 O760 1.203 . S
C759 O766 1.267 . S
O760 C759 1.203 . S
O761 C754 1.185 . S
O761 Zn757 2.086 . S
C762 O758 1.280 . S
C762 O763 1.205 1_655 S
O763 C762 1.205 1_455 S
C764 O756 1.284 . S
C764 O765 1.273 . S
O765 C764 1.273 . S
O766 Zn757 1.977 . S
O766 C759 1.267 . S
C767 O768 1.160 . S
C767 O774 1.185 . S
O768 C767 1.160 . S
O769 Zn770 1.899 . S
O769 C777 1.284 . S
Zn770 O769 1.899 . S
Zn770 O771 2.032 . S
Zn770 O774 2.086 . S
Zn770 O779 1.977 . S
O771 Zn770 2.032 . S
O771 C775 1.278 . S
C772 O773 1.203 . S
C772 O779 1.267 . S
O773 C772 1.203 . S
O774 C767 1.185 . S
O774 Zn770 2.086 . S
C775 O771 1.278 . S
C775 O776 1.211 . S
O776 C775 1.211 . S
C777 O769 1.284 . S
C777 O778 1.273 . S
O778 C777 1.273 . S
O779 Zn770 1.977 . S
O779 C772 1.267 . S
C634 C211 1.429 . S
C647 C255 1.654 . S
C274 C660 1.440 . S
C673 C157 1.534 . S
C681 C391 1.453 . S
C694 C484 1.409 . S
C450 C707 1.516 . S
C720 C352 1.542 . S
C430 C738 1.415 . S
C749 C367 1.525 . S
C411 C733 1.423 . S
C741 C469 1.442 . S
C294 C764 1.511 . S
C177 C754 1.467 . S
C196 C759 1.468 . S
C235 C762 1.544 . S
C133 C671 1.446 . S
C567 C663 1.417 . S
C632 C601 1.554 1_554 S
C637 C328 1.543 . S
C172 C684 1.511 . S
C723 C445 1.523 . S
C676 C372 1.484 . S
C702 C489 1.394 . S
C712 C562 1.429 . S
C606 C725 1.654 . S
C313 C686 1.440 . S
C699 C508 1.534 . S
C118 C655 1.453 . S
C668 C16 1.409 . S
C629 C60 1.516 . S
C642 C79 1.542 . S
C40 C751 1.416 . S
C94 C736 1.519 1_655 S
C138 C746 1.423 . S
C1 C728 1.442 . S
C777 C333 1.511 . S
C767 C528 1.467 . S
C772 C547 1.468 . S
C586 C775 1.542 . S
C406 C697 1.446 . S
C689 C216 1.417 . S
C710 C250 1.554 . S
C715 C289 1.546 . S
C523 C658 1.511 . S
C645 C55 1.526 . S
C99 C650 1.485 . S
C624 C21 1.394 . S
