# Generated by pormake.
# Topology pyr, (3,6)-cn, num edge types: 1
# Building blocks:
#     Node 0, Type 0, BuildingBlock: VETTIZ_charged_linker_0, # of connection points: 3
#     Node 1, Type 0, BuildingBlock: VETTIZ_charged_linker_0, # of connection points: 3
#     Node 2, Type 0, BuildingBlock: VETTIZ_charged_linker_0, # of connection points: 3
#     Node 3, Type 0, BuildingBlock: VETTIZ_charged_linker_0, # of connection points: 3
#     Node 4, Type 0, BuildingBlock: VETTIZ_charged_linker_0, # of connection points: 3
#     Node 5, Type 0, BuildingBlock: VETTIZ_charged_linker_0, # of connection points: 3
#     Node 6, Type 0, BuildingBlock: VETTIZ_charged_linker_0, # of connection points: 3
#     Node 7, Type 0, BuildingBlock: VETTIZ_charged_linker_0, # of connection points: 3
#     Node 8, Type 1, BuildingBlock: BETFAJ_clean_sbu_0, # of connection points: 6
#     Node 9, Type 1, BuildingBlock: BETFAJ_clean_sbu_0, # of connection points: 6
#     Node 10, Type 1, BuildingBlock: BETFAJ_clean_sbu_0, # of connection points: 6
#     Node 11, Type 1, BuildingBlock: BETFAJ_clean_sbu_0, # of connection points: 6
#     Edge 12, Type (0, 1), None
#     Edge 13, Type (0, 1), None
#     Edge 14, Type (0, 1), None
#     Edge 15, Type (0, 1), None
#     Edge 16, Type (0, 1), None
#     Edge 17, Type (0, 1), None
#     Edge 18, Type (0, 1), None
#     Edge 19, Type (0, 1), None
#     Edge 20, Type (0, 1), None
#     Edge 21, Type (0, 1), None
#     Edge 22, Type (0, 1), None
#     Edge 23, Type (0, 1), None
#     Edge 24, Type (0, 1), None
#     Edge 25, Type (0, 1), None
#     Edge 26, Type (0, 1), None
#     Edge 27, Type (0, 1), None
#     Edge 28, Type (0, 1), None
#     Edge 29, Type (0, 1), None
#     Edge 30, Type (0, 1), None
#     Edge 31, Type (0, 1), None
#     Edge 32, Type (0, 1), None
#     Edge 33, Type (0, 1), None
#     Edge 34, Type (0, 1), None
#     Edge 35, Type (0, 1), None
# Relax obj value: 0.231
# Max RMSD: 0.157
# Mean RMSD: 0.078
data_MOF--net-pyr--node1-BETFAJ_clean_sbu_0--node2-VETTIZ_charged_linker_0--edge1-none
_symmetry_space_group_name_H-M    P1
_symmetry_Int_Tables_number       1
_symmetry_cell_setting            triclinic
loop_
_symmetry_equiv_pos_as_xyz
'x, y, z'
_cell_length_a     25.502068
_cell_length_b     26.48075
_cell_length_c     24.330739
_cell_angle_alpha  90.587088
_cell_angle_beta   88.717389
_cell_angle_gamma 103.20921
loop_
_atom_site_label
_atom_site_type_symbol
_atom_site_fract_x
_atom_site_fract_y
_atom_site_fract_z
_atom_type_partial_charge
C0 C 0.39819 0.2617 0.47219 0.0
C1 C 0.35958 0.27996 0.50427 0.0
C2 C 0.36029 0.33339 0.50271 0.0
C3 C 0.4151 0.34071 0.42007 0.0
C4 C 0.42535 0.29271 0.42943 0.0
C5 C 0.45608 0.27519 0.38211 0.0
H6 H 0.45836 0.2226 0.12919 0.0
C7 C 0.42675 0.35351 0.3618 0.0
C8 C 0.45638 0.31857 0.34072 0.0
H9 H 0.57873 0.20106 0.24349 0.0
H10 H 0.55759 0.27081 0.30216 0.0
H11 H 0.49533 0.34721 0.13872 0.0
H12 H 0.36175 0.23953 0.21498 0.0
H13 H 0.34004 0.29007 0.18155 0.0
H14 H 0.37248 0.24846 0.14206 0.0
H15 H 0.43214 0.32715 0.10495 0.0
H16 H 0.44499 0.38165 0.15205 0.0
C17 C 0.51284 0.27266 0.40136 0.0
C18 C 0.42445 0.22178 0.36061 0.0
C19 C 0.28221 0.42675 0.27169 0.0
C20 C 0.26246 0.42298 0.218 0.0
C21 C 0.29205 0.40435 0.17582 0.0
C22 C 0.3385 0.38679 0.1877 0.0
C23 C 0.35487 0.38661 0.24245 0.0
C24 C 0.32779 0.40771 0.28317 0.0
C25 C 0.35082 0.40446 0.33909 0.0
C26 C 0.3959 0.37653 0.32528 0.0
C27 C 0.39745 0.36591 0.26843 0.0
C28 C 0.37389 0.46028 0.35989 0.0
C29 C 0.3056 0.3729 0.37753 0.0
C30 C 0.47935 0.23192 0.1675 0.0
C31 C 0.51786 0.20471 0.18373 0.0
C32 C 0.54728 0.22001 0.23177 0.0
C33 C 0.5341 0.25832 0.26632 0.0
C34 C 0.49077 0.2798 0.25269 0.0
C35 C 0.46749 0.27049 0.20218 0.0
C36 C 0.42875 0.30478 0.19247 0.0
C37 C 0.43066 0.33335 0.24756 0.0
C38 C 0.4644 0.3151 0.28331 0.0
C39 C 0.451 0.34203 0.14439 0.0
C40 C 0.37265 0.26914 0.18203 0.0
H41 H 0.38652 0.40416 0.45807 0.0
H42 H 0.40087 0.22165 0.47442 0.0
H43 H 0.38297 0.22364 0.34912 0.0
H44 H 0.44445 0.20854 0.32422 0.0
H45 H 0.42172 0.19117 0.39203 0.0
H46 H 0.51388 0.26795 0.44667 0.0
H47 H 0.52587 0.23874 0.38334 0.0
H48 H 0.54329 0.30829 0.39012 0.0
H49 H 0.26137 0.44251 0.30462 0.0
H50 H 0.27809 0.40131 0.13394 0.0
H51 H 0.3587 0.37203 0.1542 0.0
H52 H 0.39779 0.48444 0.32683 0.0
H53 H 0.34092 0.47903 0.3733 0.0
H54 H 0.40154 0.46132 0.39441 0.0
H55 H 0.26443 0.37035 0.3621 0.0
H56 H 0.30926 0.33214 0.38194 0.0
H57 H 0.30527 0.39114 0.41868 0.0
H58 H 0.33369 0.34953 0.52947 0.0
C59 C 0.3892 0.36439 0.46077 0.0
C60 C 0.08916 0.93039 0.65534 0.0
C61 C 0.05885 0.96656 0.67065 0.0
C62 C 0.03925 0.96695 0.72514 0.0
C63 C 0.08665 0.90039 0.7492 0.0
C64 C 0.10332 0.89864 0.69503 0.0
C65 C 0.14216 0.86438 0.68605 0.0
H66 H 0.31647 0.7398 0.79426 0.0
C67 C 0.11354 0.86626 0.78089 0.0
C68 C 0.14551 0.84464 0.74378 0.0
H69 H 0.30484 0.7858 0.62566 0.0
H70 H 0.22137 0.80959 0.64771 0.0
H71 H 0.30917 0.81776 0.84948 0.0
H72 H 0.18052 0.69403 0.81647 0.0
H73 H 0.17025 0.71608 0.88371 0.0
H74 H 0.23359 0.70023 0.86522 0.0
H75 H 0.27447 0.78386 0.90655 0.0
H76 H 0.25944 0.84354 0.88318 0.0
C77 C 0.19675 0.89866 0.66477 0.0
C78 C 0.11637 0.81982 0.64662 0.0
C79 C 0.14103 0.89514 0.98273 0.0
C80 C 0.18507 0.8849 1.01112 0.0
C81 C 0.19833 0.83656 1.00153 0.0
C82 C 0.17905 0.80729 0.95502 0.0
C83 C 0.14938 0.82832 0.91727 0.0
C84 C 0.1262 0.86853 0.93329 0.0
C85 C 0.09932 0.88827 0.88598 0.0
C86 C 0.11654 0.85778 0.8382 0.0
C87 C 0.14696 0.82347 0.857 0.0
C88 C 0.12277 0.94761 0.88049 0.0
C89 C 0.03772 0.87299 0.8963 0.0
C90 C 0.29625 0.75546 0.76208 0.0
C91 C 0.31829 0.76195 0.70843 0.0
C92 C 0.28925 0.78045 0.66746 0.0
C93 C 0.24097 0.795 0.68049 0.0
C94 C 0.22221 0.79273 0.73535 0.0
C95 C 0.24907 0.77212 0.77486 0.0
C96 C 0.22472 0.7746 0.83141 0.0
C97 C 0.18002 0.80246 0.81946 0.0
C98 C 0.17894 0.81281 0.76313 0.0
C99 C 0.26878 0.80632 0.86978 0.0
C100 C 0.20118 0.71832 0.8507 0.0
H101 H 0.03661 0.93519 0.80547 0.0
H102 H 0.10487 0.92891 0.61375 0.0
H103 H 0.07299 0.8048 0.65735 0.0
H104 H 0.13486 0.78603 0.64914 0.0
H105 H 0.11912 0.83344 0.60339 0.0
H106 H 0.19961 0.94072 0.67221 0.0
H107 H 0.20252 0.89352 0.61985 0.0
H108 H 0.23181 0.89086 0.6863 0.0
H109 H 0.12618 0.92939 0.9925 0.0
H110 H 0.22898 0.82452 1.02476 0.0
H111 H 0.19277 0.77259 0.94698 0.0
H112 H 0.16715 0.95697 0.88598 0.0
H113 H 0.10466 0.96953 0.91193 0.0
H114 H 0.11736 0.96349 0.8401 0.0
H115 H 1.01496 0.86944 0.8578 0.0
H116 H 1.02434 0.90137 0.92404 0.0
H117 H 1.02546 0.83414 0.91587 0.0
H118 H 1.01505 0.99397 0.73756 0.0
C119 C 0.05194 0.93298 0.7643 0.0
C120 C 0.61627 0.23547 0.98923 0.0
C121 C 0.56516 0.20496 0.97663 0.0
C122 C 0.53586 0.22448 0.93608 0.0
C123 C 0.60762 0.30351 0.92348 0.0
C124 C 0.63593 0.28418 0.96329 0.0
C125 C 0.68641 0.32291 0.97818 0.0
H126 H 0.85551 0.55977 0.96796 0.0
C127 C 0.63847 0.35802 0.9083 0.0
C128 C 0.68369 0.36923 0.94259 0.0
H129 H 0.86301 0.42748 1.06795 0.0
H130 H 0.78341 0.37818 1.02692 0.0
H131 H 0.7166 0.54236 0.9762 0.0
H132 H 0.82019 0.49172 0.85406 0.0
H133 H 0.77142 0.51869 0.82249 0.0
H134 H 0.82147 0.55931 0.86452 0.0
H135 H 0.76745 0.58748 0.93827 0.0
H136 H 0.70297 0.55993 0.90895 0.0
C137 C 0.68311 0.33498 1.04074 0.0
C138 C 0.73463 0.29969 0.96008 0.0
C139 C 0.58372 0.46465 0.74843 0.0
C140 C 0.60316 0.51645 0.72897 0.0
C141 C 0.64658 0.54761 0.7578 0.0
C142 C 0.6709 0.52826 0.80248 0.0
C143 C 0.65169 0.47676 0.82087 0.0
C144 C 0.60776 0.44605 0.79472 0.0
C145 C 0.58917 0.39415 0.82433 0.0
C146 C 0.63155 0.39686 0.869 0.0
C147 C 0.66852 0.44605 0.86688 0.0
C148 C 0.53282 0.39206 0.84993 0.0
C149 C 0.58969 0.34961 0.78328 0.0
C150 C 0.83941 0.52031 0.98141 0.0
C151 C 0.86632 0.49805 1.02226 0.0
C152 C 0.84388 0.44627 1.03737 0.0
C153 C 0.79694 0.41735 1.01319 0.0
C154 C 0.77046 0.43966 0.97294 0.0
C155 C 0.7917 0.49031 0.95725 0.0
C156 C 0.7581 0.50627 0.91226 0.0
C157 C 0.71334 0.45695 0.90392 0.0
C158 C 0.72094 0.41845 0.94057 0.0
C159 C 0.73506 0.55167 0.93461 0.0
C160 C 0.79448 0.52011 0.86046 0.0
H161 H 0.53251 0.28467 0.87862 0.0
H162 H 0.63904 0.22342 1.02163 0.0
H163 H 0.72755 0.28067 0.91906 0.0
H164 H 0.77278 0.32912 0.95508 0.0
H165 H 0.74047 0.26992 0.98945 0.0
H166 H 0.64077 0.32643 1.05664 0.0
H167 H 0.70519 0.31156 1.06508 0.0
H168 H 0.69851 0.37658 1.05043 0.0
H169 H 0.54945 0.43963 0.72909 0.0
H170 H 0.66245 0.58741 0.74526 0.0
H171 H 0.70382 0.55461 0.82155 0.0
H172 H 0.53162 0.42955 0.8704 0.0
H173 H 0.50154 0.38454 0.81791 0.0
H174 H 0.52172 0.36224 0.88204 0.0
H175 H 0.62978 0.35526 0.76231 0.0
H176 H 0.58166 0.31153 0.80377 0.0
H177 H 0.55886 0.34812 0.75137 0.0
H178 H 0.49584 0.20279 0.92595 0.0
C179 C 0.55694 0.2726 0.90901 0.0
C180 C 0.97544 0.91729 0.43924 0.0
C181 C 0.95128 0.94682 0.47805 0.0
C182 C 0.89694 0.92674 0.49282 0.0
C183 C 0.89423 0.84705 0.44174 0.0
C184 C 0.94522 0.86753 0.4206 0.0
C185 C 0.95966 0.8301 0.37708 0.0
H186 H 0.88668 0.58786 0.24793 0.0
C187 C 0.87418 0.79351 0.42023 0.0
C188 C 0.91117 0.78263 0.38053 0.0
H189 H 1.02474 0.71044 0.20684 0.0
H190 H 0.99961 0.76435 0.2803 0.0
H191 H 0.89706 0.6046 0.38528 0.0
H192 H 0.79918 0.6626 0.26858 0.0
H193 H 0.76041 0.63402 0.32612 0.0
H194 H 0.79093 0.59434 0.28083 0.0
H195 H 0.84562 0.56175 0.34692 0.0
H196 H 0.82924 0.59381 0.40831 0.0
C197 C 1.01255 0.81572 0.39263 0.0
C198 C 0.96339 0.85692 0.32076 0.0
C199 C 0.71012 0.68636 0.51989 0.0
C200 C 0.67807 0.63604 0.51476 0.0
C201 C 0.69137 0.60415 0.47205 0.0
C202 C 0.73673 0.62214 0.43637 0.0
C203 C 0.7687 0.67312 0.44249 0.0
C204 C 0.75388 0.70401 0.48351 0.0
C205 C 0.78767 0.75811 0.48269 0.0
C206 C 0.82873 0.75448 0.43733 0.0
C207 C 0.81788 0.70488 0.41286 0.0
C208 C 0.81359 0.76921 0.54004 0.0
C209 C 0.75046 0.79454 0.4666 0.0
C210 C 0.91138 0.62651 0.25406 0.0
C211 C 0.95783 0.6444 0.22017 0.0
C212 C 0.98855 0.69519 0.23108 0.0
C213 C 0.97372 0.72679 0.2738 0.0
C214 C 0.92692 0.70849 0.30662 0.0
C215 C 0.89675 0.6587 0.29632 0.0
C216 C 0.84852 0.64468 0.33532 0.0
C217 C 0.85326 0.69419 0.36951 0.0
C218 C 0.89985 0.73237 0.35309 0.0
C219 C 0.85498 0.59856 0.37085 0.0
C220 C 0.79678 0.63294 0.30116 0.0
H221 H 0.82898 0.8655 0.49176 0.0
H222 H 1.01646 0.93195 0.42469 0.0
H223 H 0.92756 0.87344 0.31475 0.0
H224 H 0.96433 0.82993 0.2862 0.0
H225 H 0.9999 0.88914 0.31785 0.0
H226 H 1.00972 0.80121 0.43557 0.0
H227 H 0.04691 0.85006 0.38964 0.0
H228 H 1.02166 0.78479 0.36582 0.0
H229 H 0.70031 0.71257 0.55091 0.0
H230 H 0.66707 0.56522 0.46662 0.0
H231 H 0.74497 0.59595 0.40504 0.0
H232 H 0.82716 0.7348 0.55498 0.0
H233 H 0.78428 0.77838 0.57088 0.0
H234 H 0.84993 0.80101 0.54027 0.0
H235 H 0.71292 0.7732 0.44665 0.0
H236 H 0.76982 0.82371 0.43558 0.0
H237 H 0.73798 0.81472 0.50319 0.0
H238 H 0.87543 0.94858 0.51917 0.0
C239 C 0.8691 0.87782 0.47585 0.0
C240 C 0.75241 0.73976 0.96006 0.0
C241 C 0.78243 0.70888 0.93111 0.0
C242 C 0.76194 0.68455 0.88162 0.0
C243 C 0.69371 0.7341 0.88276 0.0
C244 C 0.70742 0.75141 0.93503 0.0
C245 C 0.67088 0.78511 0.95669 0.0
H246 H 0.53256 0.96359 0.89766 0.0
C247 C 0.65531 0.7621 0.86162 0.0
C248 C 0.63811 0.78943 0.90551 0.0
H249 H 0.56305 0.90939 1.05778 0.0
H250 H 0.5932 0.83693 1.01579 0.0
H251 H 0.48364 0.837 0.84579 0.0
H252 H 0.60876 0.96638 0.83492 0.0
H253 H 0.64357 0.92489 0.79938 0.0
H254 H 0.58359 0.93975 0.77167 0.0
H255 H 0.49078 0.90126 0.81852 0.0
H256 H 0.50669 0.85041 0.77708 0.0
C257 C 0.6352 0.75632 1.00434 0.0
C258 C 0.70624 0.83817 0.97407 0.0
C259 C 0.70472 0.84116 0.67744 0.0
C260 C 0.69126 0.8858 0.65649 0.0
C261 C 0.63831 0.89204 0.6662 0.0
C262 C 0.60578 0.86296 0.70722 0.0
C263 C 0.6274 0.82911 0.73885 0.0
C264 C 0.67293 0.81406 0.72013 0.0
C265 C 0.68975 0.77693 0.75876 0.0
C266 C 0.6499 0.77754 0.80684 0.0
C267 C 0.61589 0.81121 0.7959 0.0
C268 C 0.6821 0.72326 0.7301 0.0
C269 C 0.74916 0.79952 0.77502 0.0
C270 C 0.54534 0.93572 0.92348 0.0
C271 C 0.54612 0.9421 0.98068 0.0
C272 C 0.56239 0.90511 1.01346 0.0
C273 C 0.58047 0.86368 0.98923 0.0
C274 C 0.58366 0.86015 0.93174 0.0
C275 C 0.56424 0.89439 0.89985 0.0
C276 C 0.56739 0.88225 0.83951 0.0
C277 C 0.5937 0.83562 0.84048 0.0
C278 C 0.60441 0.82419 0.89499 0.0
C279 C 0.50906 0.86698 0.8188 0.0
C280 C 0.60258 0.93042 0.80964 0.0
H281 H 0.70045 0.67634 0.82116 0.0
H282 H 0.76558 0.75687 0.99943 0.0
H283 H 0.73292 0.85595 0.93927 0.0
H284 H 0.6823 0.86607 0.98724 0.0
H285 H 0.73201 0.83368 1.00906 0.0
H286 H 0.63825 0.71523 1.00771 0.0
H287 H 0.64687 0.77515 1.04466 0.0
H288 H 0.59184 0.75462 0.99811 0.0
H289 H 0.74332 0.83268 0.66775 0.0
H290 H 0.62462 0.92334 0.64707 0.0
H291 H 0.56706 0.87068 0.71598 0.0
H292 H 0.6801 0.72619 0.68464 0.0
H293 H 0.71657 0.70525 0.73722 0.0
H294 H 0.64429 0.69626 0.74433 0.0
H295 H 0.75406 0.83948 0.7919 0.0
H296 H 0.76372 0.77625 0.8059 0.0
H297 H 0.77708 0.80069 0.73919 0.0
H298 H 0.78217 0.65803 0.86035 0.0
C299 C 0.71626 0.69584 0.85822 0.0
C300 C 0.96453 0.23718 0.51101 0.0
C301 C 0.99184 0.19841 0.49642 0.0
C302 C 1.00971 0.19509 0.44166 0.0
C303 C 0.9654 0.26333 0.41591 0.0
C304 C 0.95083 0.26826 0.4703 0.0
C305 C 0.91403 0.30475 0.47841 0.0
H306 H 0.73292 0.41901 0.36764 0.0
C307 C 0.93835 0.29646 0.38311 0.0
C308 C 0.90833 0.32085 0.41963 0.0
H309 H 0.75814 0.39302 0.53919 0.0
H310 H 0.84021 0.36673 0.51543 0.0
H311 H 0.75595 0.31316 0.32843 0.0
H312 H 0.85583 0.46735 0.33217 0.0
H313 H 0.8798 0.43717 0.27534 0.0
H314 H 0.81138 0.44565 0.27636 0.0
H315 H 0.74565 0.36576 0.28715 0.0
H316 H 0.78861 0.32489 0.26427 0.0
C317 C 0.85981 0.27395 0.50429 0.0
C318 C 0.94351 0.35127 0.51348 0.0
C319 C 0.91513 0.26248 0.18049 0.0
C320 C 0.8721 0.27102 0.14927 0.0
C321 C 0.85562 0.31796 0.15798 0.0
C322 C 0.87078 0.3473 0.20555 0.0
C323 C 0.90004 0.32777 0.24505 0.0
C324 C 0.92593 0.289 0.23057 0.0
C325 C 0.95162 0.27024 0.27922 0.0
C326 C 0.93362 0.30177 0.32552 0.0
C327 C 0.90188 0.33418 0.30529 0.0
C328 C 0.92724 0.21113 0.28598 0.0
C329 C 1.01346 0.28471 0.27021 0.0
C330 C 0.75623 0.40772 0.40009 0.0
C331 C 0.7383 0.40699 0.45517 0.0
C332 C 0.77072 0.39368 0.49634 0.0
C333 C 0.81821 0.37797 0.48246 0.0
C334 C 0.83298 0.37453 0.42682 0.0
C335 C 0.80334 0.39111 0.38684 0.0
C336 C 0.8234 0.38229 0.32979 0.0
C337 C 0.86972 0.35689 0.3422 0.0
C338 C 0.87419 0.35148 0.3991 0.0
C339 C 0.77634 0.34488 0.30034 0.0
C340 C 0.84337 0.43565 0.30151 0.0
H341 H 1.01127 0.22351 0.36007 0.0
H342 H 0.9504 0.24098 0.55284 0.0
H343 H 0.98648 0.36393 0.50002 0.0
H344 H 0.92644 0.38579 0.50924 0.0
H345 H 0.94264 0.34068 0.55761 0.0
H346 H 0.8549 0.23126 0.50004 0.0
H347 H 0.85681 0.28254 0.54888 0.0
H348 H 0.82417 0.28157 0.48375 0.0
H349 H 0.93214 0.22924 0.17209 0.0
H350 H 0.82508 0.32834 0.13312 0.0
H351 H 0.85285 0.37965 0.21319 0.0
H352 H 0.88345 0.20171 0.27712 0.0
H353 H 0.94717 0.18802 0.25742 0.0
H354 H 0.92921 0.19671 0.32788 0.0
H355 H 0.03535 0.29108 0.30933 0.0
H356 H 0.02739 0.25444 0.24574 0.0
H357 H 0.02635 0.32191 0.24758 0.0
H358 H 0.03169 0.16606 0.42978 0.0
C359 C 0.99762 0.22828 0.40143 0.0
C360 C 0.47295 0.6978 0.42033 0.0
C361 C 0.45207 0.64716 0.44223 0.0
C362 C 0.40718 0.61622 0.41529 0.0
C363 C 0.40368 0.68509 0.34911 0.0
C364 C 0.44892 0.71547 0.37349 0.0
C365 C 0.46891 0.76576 0.34138 0.0
H366 H 0.42347 0.93161 0.13727 0.0
C367 C 0.38753 0.71458 0.30167 0.0
C368 C 0.42614 0.7626 0.29705 0.0
H369 H 0.56737 0.9509 0.23163 0.0
H370 H 0.52859 0.87133 0.28219 0.0
H371 H 0.33504 0.88177 0.24074 0.0
H372 H 0.41809 0.82553 0.10676 0.0
H373 H 0.35841 0.77797 0.11481 0.0
H374 H 0.35527 0.8433 0.09693 0.0
H375 H 0.32099 0.88845 0.16978 0.0
H376 H 0.28796 0.83208 0.20849 0.0
C377 C 0.47066 0.8123 0.38033 0.0
C378 C 0.52447 0.7648 0.31549 0.0
C379 C 0.21391 0.6412 0.19045 0.0
C380 C 0.18776 0.66298 0.14851 0.0
C381 C 0.21183 0.71375 0.13123 0.0
C382 C 0.25977 0.74208 0.15409 0.0
C383 C 0.28549 0.72027 0.19539 0.0
C384 C 0.26251 0.67072 0.21352 0.0
C385 C 0.29543 0.6555 0.25965 0.0
C386 C 0.34222 0.70364 0.26516 0.0
C387 C 0.3358 0.74111 0.22668 0.0
C388 C 0.25944 0.64642 0.31212 0.0
C389 C 0.31557 0.60723 0.24076 0.0
C390 C 0.44604 0.91973 0.16992 0.0
C391 C 0.49795 0.94914 0.18123 0.0
C392 C 0.52683 0.92994 0.22236 0.0
C393 C 0.50447 0.8832 0.25137 0.0
C394 C 0.45288 0.85335 0.23829 0.0
C395 C 0.42508 0.87228 0.19775 0.0
C396 C 0.37343 0.83448 0.18452 0.0
C397 C 0.37464 0.78923 0.22231 0.0
C398 C 0.42031 0.80026 0.25597 0.0
C399 C 0.32661 0.86029 0.20117 0.0
C400 C 0.37586 0.81959 0.12263 0.0
H401 H 0.34889 0.60865 0.35243 0.0
H402 H 0.50837 0.72247 0.43811 0.0
H403 H 0.5241 0.72599 0.29733 0.0
H404 H 0.53588 0.79263 0.28152 0.0
H405 H 0.55634 0.77316 0.34689 0.0
H406 H 0.43104 0.80879 0.4018 0.0
H407 H 0.50181 0.81414 0.41195 0.0
H408 H 0.47958 0.8495 0.35808 0.0
H409 H 0.19652 0.60258 0.20563 0.0
H410 H 0.19337 0.73212 0.09973 0.0
H411 H 0.27466 0.78046 0.13854 0.0
H412 H 0.2377 0.67812 0.31777 0.0
H413 H 0.22887 0.60916 0.30943 0.0
H414 H 0.28258 0.64631 0.3498 0.0
H415 H 0.33044 0.61159 0.19734 0.0
H416 H 0.34985 0.60136 0.26479 0.0
H417 H 0.28263 0.57163 0.24331 0.0
H418 H 0.39022 0.57721 0.42971 0.0
C419 C 0.38291 0.63475 0.37004 0.0
C420 C 0.07587 0.24948 0.72781 0.0
C421 C 0.09732 0.22249 0.68439 0.0
C422 C 0.14825 0.2466 0.66224 0.0
C423 C 0.1541 0.32275 0.72017 0.0
C424 C 0.10568 0.2998 0.74551 0.0
C425 C 0.09268 0.33599 0.79121 0.0
H426 H 0.16718 0.57584 0.92522 0.0
C427 C 0.17509 0.37529 0.74394 0.0
C428 C 0.14022 0.3843 0.78671 0.0
H429 H 0.02912 0.45274 0.96482 0.0
H430 H 0.05446 0.39969 0.89068 0.0
H431 H 0.15969 0.56284 0.78695 0.0
H432 H 0.25341 0.49821 0.90276 0.0
H433 H 0.2932 0.52787 0.84632 0.0
H434 H 0.26375 0.56708 0.89323 0.0
H435 H 0.20921 0.60349 0.8294 0.0
H436 H 0.22876 0.57461 0.76743 0.0
C437 C 0.03854 0.34948 0.77895 0.0
C438 C 0.09204 0.30837 0.8467 0.0
C439 C 0.34174 0.48128 0.64843 0.0
C440 C 0.37671 0.52972 0.65649 0.0
C441 C 0.3653 0.56042 0.7013 0.0
C442 C 0.31914 0.54299 0.73628 0.0
C443 C 0.28444 0.4937 0.72732 0.0
C444 C 0.2974 0.46409 0.6841 0.0
C445 C 0.26084 0.41153 0.68143 0.0
C446 C 0.22101 0.41425 0.72805 0.0
C447 C 0.23414 0.46226 0.75571 0.0
C448 C 0.2339 0.40601 0.6242 0.0
C449 C 0.29548 0.37157 0.69346 0.0
C450 C 0.14236 0.53737 0.91838 0.0
C451 C 0.09578 0.51911 0.95206 0.0
C452 C 0.0652 0.4684 0.94057 0.0
C453 C 0.08001 0.43739 0.89725 0.0
C454 C 0.12654 0.4563 0.8642 0.0
C455 C 0.15693 0.5058 0.87544 0.0
C456 C 0.20553 0.52007 0.83688 0.0
C457 C 0.19974 0.47172 0.80062 0.0
C458 C 0.15289 0.43345 0.81641 0.0
C459 C 0.20096 0.56799 0.80334 0.0
C460 C 0.25695 0.52915 0.87139 0.0
H461 H 0.21307 0.31033 0.65792 0.0
H462 H 0.03715 0.23243 0.74671 0.0
H463 H 0.12908 0.2933 0.85059 0.0
H464 H 0.09108 0.33457 0.88202 0.0
H465 H 0.05664 0.27504 0.85016 0.0
H466 H 0.03888 0.36399 0.73618 0.0
H467 H 1.00481 0.31471 0.78332 0.0
H468 H 0.03017 0.38019 0.80649 0.0
H469 H 0.34959 0.45588 0.61558 0.0
H470 H 0.39167 0.59801 0.70891 0.0
H471 H 0.31236 0.56825 0.76922 0.0
H472 H 0.22875 0.4441 0.60913 0.0
H473 H 0.25862 0.39056 0.59293 0.0
H474 H 0.19263 0.38132 0.62486 0.0
H475 H 0.33159 0.38901 0.71792 0.0
H476 H 0.27357 0.33878 0.71906 0.0
H477 H 0.3101 0.35619 0.65483 0.0
H478 H 0.16731 0.22814 0.63 0.0
C479 C 0.17581 0.2955 0.67916 0.0
Sm480 Sm 0.07369 0.08438 0.55521 0.0
Sm481 Sm 0.97536 0.08107 0.61327 0.0
C482 C 0.17287 0.11355 0.51452 0.0
C483 C 0.21854 0.15864 0.52117 0.0
C484 C 0.21398 0.2091 0.50886 0.0
C485 C 0.25934 0.25023 0.50966 0.0
C486 C 0.31021 0.24178 0.52289 0.0
C487 C 0.3133 0.19216 0.5406 0.0
C488 C 0.26799 0.15092 0.53925 0.0
C489 C 0.05166 1.00473 0.62939 0.0
C490 C 0.0695 0.17177 0.65698 0.0
C491 C 0.87768 1.05365 0.65874 0.0
C492 C 0.82924 1.01217 0.65125 0.0
C493 C 0.83228 0.96454 0.6273 0.0
C494 C 0.78583 0.92493 0.6221 0.0
C495 C 0.73582 0.93156 0.64305 0.0
C496 C 0.7329 0.98082 0.66391 0.0
C497 C 0.77911 1.02069 0.66763 0.0
C498 C 0.99709 0.16016 0.53835 0.0
C499 C 0.97948 0.99594 0.50804 0.0
O500 O 0.1306 0.12044 0.48855 0.0
O501 O 0.16038 0.08385 0.55746 0.0
O502 O 0.04623 1.0503 0.64013 0.0
O503 O 0.06781 1.00082 0.57911 0.0
O504 O 0.09203 0.15846 0.61102 0.0
O505 O 1.02273 0.14298 0.67372 0.0
O506 O 0.91981 1.04051 0.67884 0.0
O507 O 0.88986 0.08627 0.61821 0.0
O508 O 1.00264 0.11456 0.52825 0.0
O509 O 0.98004 0.16435 0.58828 0.0
O510 O 0.95534 1.00949 0.55307 0.0
O511 O 0.02776 1.02323 0.4937 0.0
H512 H 0.17601 0.21648 0.4961 0.0
H513 H 0.25511 0.28765 0.49533 0.0
H514 H 0.35152 0.18441 0.55194 0.0
H515 H 0.27214 0.11248 0.55019 0.0
H516 H 0.87081 0.95737 0.61445 0.0
H517 H 0.78984 0.88817 0.60468 0.0
H518 H 0.6958 0.98785 0.68135 0.0
H519 H 0.776 1.05756 0.68554 0.0
Sm520 Sm 0.58689 0.0812 0.08904 0.0
Sm521 Sm 0.47675 1.0705 1.06564 0.0
C522 C 0.69266 0.10389 0.10185 0.0
C523 C 0.74162 0.14514 0.10643 0.0
C524 C 0.74881 0.19222 1.07825 0.0
C525 C 0.79454 0.232 0.08733 0.0
C526 C 0.83325 0.22548 0.12549 0.0
C527 C 0.82703 0.17636 0.15027 0.0
C528 C 0.78186 0.13688 0.14075 0.0
C529 C 0.52497 0.99421 0.14475 0.0
C530 C 0.52394 0.15881 0.152 0.0
C531 C 0.37143 1.04793 1.0503 0.0
C532 C 0.32177 1.00739 1.04706 0.0
C533 C 0.31486 0.95997 1.0745 0.0
C534 C 0.26767 0.92133 1.06769 0.0
C535 C 0.22711 0.92932 1.03251 0.0
C536 C 0.23359 0.97866 1.00814 0.0
C537 C 0.28023 1.01702 1.01545 0.0
C538 C 0.53861 0.15886 1.0121 0.0
C539 C 0.5391 0.99083 1.00591 0.0
O540 O 0.66988 0.09683 1.05404 0.0
O541 O 0.65809 0.09797 0.1431 0.0
O542 O 0.51154 1.03746 0.13952 0.0
O543 O 0.57224 0.9976 0.12299 0.0
O544 O 0.57139 0.15448 0.13292 0.0
O545 O 0.48013 0.12456 0.13915 0.0
O546 O 0.39317 1.05732 0.09846 0.0
O547 O 0.4068 1.05103 1.00995 0.0
O548 O 0.55195 0.11538 1.01587 0.0
O549 O 0.4913 0.15479 1.03386 0.0
O550 O 0.49243 0.99463 1.02745 0.0
O551 O 0.58254 1.02674 1.01544 0.0
H552 H 0.71834 0.19868 1.05073 0.0
H553 H 0.79816 0.26859 1.06656 0.0
H554 H 0.85468 0.16886 0.18051 0.0
H555 H 0.77726 0.1004 0.16223 0.0
H556 H 0.34648 0.95244 0.09979 0.0
H557 H 0.26418 0.88455 0.08805 0.0
H558 H 0.20466 0.98725 0.98 0.0
H559 H 0.28468 1.05377 0.99456 0.0
Sm560 Sm 0.51679 0.53523 0.55917 0.0
Sm561 Sm 0.53889 0.62982 0.61262 0.0
C562 C 0.53194 0.45133 0.50736 0.0
C563 C 0.58287 0.43576 0.49682 0.0
C564 C 0.62735 0.45543 0.53001 0.0
C565 C 0.67775 0.44612 0.51652 0.0
C566 C 0.68475 0.41721 0.46934 0.0
C567 C 0.63996 0.39747 0.43618 0.0
C568 C 0.58952 0.40708 0.44968 0.0
C569 C 0.42476 0.54546 0.61832 0.0
C570 C 0.57823 0.53952 0.68087 0.0
C571 C 0.52477 0.7144 0.66387 0.0
C572 C 0.47483 0.73243 0.67246 0.0
C573 C 0.43418 0.72153 0.63319 0.0
C574 C 0.38351 0.73107 0.64479 0.0
C575 C 0.37239 0.75194 0.69589 0.0
C576 C 0.41365 0.76369 0.73481 0.0
C577 C 0.46419 0.75345 0.72332 0.0
C578 C 0.63063 0.61935 0.55337 0.0
C579 C 0.47725 0.62465 0.49051 0.0
O580 O 0.52832 0.49338 0.48197 0.0
O581 O 0.51547 0.45085 0.55858 0.0
O582 O 0.4727 0.55914 0.63488 0.0
O583 O 0.42499 0.52475 0.56971 0.0
O584 O 0.5615 0.51177 0.63633 0.0
O585 O 0.5743 0.58843 0.68264 0.0
O586 O 0.52527 0.67151 0.6893 0.0
O587 O 0.54354 0.71485 0.61347 0.0
O588 O 0.58262 0.60607 0.53697 0.0
O589 O 0.63069 0.63971 0.60217 0.0
O590 O 0.4938 0.65253 0.53509 0.0
O591 O 0.48141 0.57587 0.48886 0.0
H592 H 0.62361 0.47929 0.56555 0.0
H593 H 0.71148 0.46261 0.54237 0.0
H594 H 0.64386 0.37458 0.39981 0.0
H595 H 0.55596 0.39331 0.42275 0.0
H596 H 0.44081 0.70403 0.59411 0.0
H597 H 0.35268 0.72072 0.61416 0.0
H598 H 0.40692 0.7806 0.7743 0.0
H599 H 0.49455 0.76058 0.75467 0.0
Sm600 Sm 1.02556 0.53949 0.12025 0.0
Sm601 Sm 0.02725 0.62301 1.0524 0.0
C602 C 0.05366 0.462 0.17139 0.0
C603 C 0.10705 0.45259 0.18349 0.0
C604 C 0.15128 0.47044 0.14759 0.0
C605 C 0.20189 0.46154 0.15906 0.0
C606 C 0.20942 0.43492 0.20685 0.0
C607 C 0.1652 0.41789 0.24317 0.0
C608 C 0.11452 0.42673 0.23159 0.0
C609 C 0.97493 0.60961 0.1757 0.0
C610 C 0.13458 0.63548 0.12415 0.0
C611 C 0.99552 0.69879 1.00212 0.0
C612 C 0.94118 0.70269 0.98472 0.0
C613 C 0.89732 0.6949 1.02245 0.0
C614 C 0.84571 0.69652 1.00521 0.0
C615 C 0.83659 0.70519 0.94978 0.0
C616 C 0.88035 0.71261 0.91206 0.0
C617 C 0.9321 0.71161 0.92939 0.0
C618 C 0.07846 0.55346 0.99692 0.0
C619 C 0.91879 0.52617 1.04748 0.0
O620 O 0.04126 0.46044 0.11958 0.0
O621 O 0.04047 0.50067 0.1975 0.0
O622 O 1.01818 0.62129 0.14656 0.0
O623 O 0.95607 0.55962 0.17379 0.0
O624 O 0.11443 0.58576 0.13324 0.0
O625 O 0.10693 0.66162 0.0947 0.0
O626 O 1.00306 0.69839 1.05497 0.0
O627 O 1.01707 0.66517 0.9757 0.0
O628 O 0.03511 0.54139 1.02603 0.0
O629 O 0.09687 0.60356 0.99874 0.0
O630 O 0.93934 0.57552 1.03696 0.0
O631 O 0.94573 0.50078 1.07855 0.0
H632 H 0.1467 0.49118 0.11051 0.0
H633 H 0.23518 0.47567 0.13063 0.0
H634 H 0.16946 0.39673 0.28004 0.0
H635 H 0.08112 0.41317 0.26007 0.0
H636 H 0.90268 0.68718 1.06534 0.0
H637 H 0.81281 0.69042 1.03513 0.0
H638 H 0.87475 0.72013 0.86916 0.0
H639 H 0.96502 0.71754 0.89947 0.0
loop_
_geom_bond_atom_site_label_1
_geom_bond_atom_site_label_2
_geom_bond_distance
_geom_bond_site_symmetry_2
_ccdc_geom_bond_type
C0 C1 1.391 . S
C0 C4 1.391 . S
C0 H42 0.948 . S
C1 C0 1.391 . S
C1 C2 1.391 . S
C2 C1 1.391 . S
C2 H58 0.947 . S
C2 C59 1.392 . S
C3 C4 1.391 . S
C3 C7 1.397 . S
C3 C59 1.419 . S
C4 C0 1.391 . S
C4 C3 1.391 . S
C4 C5 1.399 . S
C5 C4 1.399 . S
C5 C8 1.396 . S
C5 C17 1.453 . S
C5 C18 1.684 . S
H6 C30 0.948 . S
C7 C3 1.397 . S
C7 C8 1.394 . S
C7 C26 1.723 . S
C8 C5 1.396 . S
C8 C7 1.394 . S
C8 C38 1.723 . S
H9 C32 0.947 . S
H10 C33 0.948 . S
H11 C39 0.982 . S
H12 C40 0.979 . S
H13 C40 0.980 . S
H14 C40 0.983 . S
H15 C39 0.979 . S
H16 C39 0.977 . S
C17 C5 1.453 . S
C17 H46 0.982 . S
C17 H47 0.979 . S
C17 H48 0.977 . S
C18 C5 1.684 . S
C18 H43 0.979 . S
C18 H44 0.980 . S
C18 H45 0.983 . S
C19 C20 1.391 . S
C19 C24 1.391 . S
C19 H49 0.948 . S
C20 C19 1.391 . S
C20 C21 1.391 . S
C21 C20 1.391 . S
C21 C22 1.392 . S
C21 H50 0.947 . S
C22 C21 1.392 . S
C22 C23 1.419 . S
C22 H51 0.948 . S
C23 C22 1.419 . S
C23 C24 1.391 . S
C23 C27 1.397 . S
C24 C19 1.391 . S
C24 C23 1.391 . S
C24 C25 1.399 . S
C25 C24 1.399 . S
C25 C26 1.396 . S
C25 C28 1.453 . S
C25 C29 1.684 . S
C26 C7 1.723 . S
C26 C25 1.396 . S
C26 C27 1.394 . S
C27 C23 1.397 . S
C27 C26 1.394 . S
C27 C37 1.723 . S
C28 C25 1.453 . S
C28 H52 0.982 . S
C28 H53 0.979 . S
C28 H54 0.977 . S
C29 C25 1.684 . S
C29 H55 0.979 . S
C29 H56 0.980 . S
C29 H57 0.983 . S
C30 H6 0.948 . S
C30 C31 1.391 . S
C30 C35 1.391 . S
C31 C30 1.391 . S
C31 C32 1.391 . S
C32 H9 0.947 . S
C32 C31 1.391 . S
C32 C33 1.392 . S
C33 H10 0.948 . S
C33 C32 1.392 . S
C33 C34 1.419 . S
C34 C33 1.419 . S
C34 C35 1.391 . S
C34 C38 1.397 . S
C35 C30 1.391 . S
C35 C34 1.391 . S
C35 C36 1.399 . S
C36 C35 1.399 . S
C36 C37 1.396 . S
C36 C39 1.453 . S
C36 C40 1.684 . S
C37 C27 1.723 . S
C37 C36 1.396 . S
C37 C38 1.394 . S
C38 C8 1.723 . S
C38 C34 1.397 . S
C38 C37 1.394 . S
C39 H11 0.982 . S
C39 H15 0.979 . S
C39 H16 0.977 . S
C39 C36 1.453 . S
C40 H12 0.979 . S
C40 H13 0.980 . S
C40 H14 0.983 . S
C40 C36 1.684 . S
H41 C59 0.948 . S
H42 C0 0.948 . S
H43 C18 0.979 . S
H44 C18 0.980 . S
H45 C18 0.983 . S
H46 C17 0.982 . S
H47 C17 0.979 . S
H48 C17 0.977 . S
H49 C19 0.948 . S
H50 C21 0.947 . S
H51 C22 0.948 . S
H52 C28 0.982 . S
H53 C28 0.979 . S
H54 C28 0.977 . S
H55 C29 0.979 . S
H56 C29 0.980 . S
H57 C29 0.983 . S
H58 C2 0.947 . S
C59 C2 1.392 . S
C59 C3 1.419 . S
C59 H41 0.948 . S
C60 C61 1.391 . S
C60 C64 1.391 . S
C60 H102 0.948 . S
C61 C60 1.391 . S
C61 C62 1.391 . S
C62 C61 1.391 . S
C62 H118 0.947 . S
C62 C119 1.392 . S
C63 C64 1.391 . S
C63 C67 1.397 . S
C63 C119 1.419 . S
C64 C60 1.391 . S
C64 C63 1.391 . S
C64 C65 1.399 . S
C65 C64 1.399 . S
C65 C68 1.396 . S
C65 C77 1.453 . S
C65 C78 1.684 . S
H66 C90 0.948 . S
C67 C63 1.397 . S
C67 C68 1.394 . S
C67 C86 1.723 . S
C68 C65 1.396 . S
C68 C67 1.394 . S
C68 C98 1.723 . S
H69 C92 0.947 . S
H70 C93 0.948 . S
H71 C99 0.982 . S
H72 C100 0.979 . S
H73 C100 0.980 . S
H74 C100 0.983 . S
H75 C99 0.979 . S
H76 C99 0.977 . S
C77 C65 1.453 . S
C77 H106 0.982 . S
C77 H107 0.979 . S
C77 H108 0.977 . S
C78 C65 1.684 . S
C78 H103 0.979 . S
C78 H104 0.980 . S
C78 H105 0.983 . S
C79 C80 1.391 . S
C79 C84 1.391 . S
C79 H109 0.948 . S
C80 C79 1.391 . S
C80 C81 1.391 . S
C81 C80 1.391 . S
C81 C82 1.392 . S
C81 H110 0.947 . S
C82 C81 1.392 . S
C82 C83 1.419 . S
C82 H111 0.948 . S
C83 C82 1.419 . S
C83 C84 1.391 . S
C83 C87 1.397 . S
C84 C79 1.391 . S
C84 C83 1.391 . S
C84 C85 1.399 . S
C85 C84 1.399 . S
C85 C86 1.396 . S
C85 C88 1.453 . S
C85 C89 1.684 . S
C86 C67 1.723 . S
C86 C85 1.396 . S
C86 C87 1.394 . S
C87 C83 1.397 . S
C87 C86 1.394 . S
C87 C97 1.723 . S
C88 C85 1.453 . S
C88 H112 0.982 . S
C88 H113 0.979 . S
C88 H114 0.977 . S
C89 C85 1.684 . S
C89 H115 0.979 . S
C89 H116 0.980 . S
C89 H117 0.983 . S
C90 H66 0.948 . S
C90 C91 1.391 . S
C90 C95 1.391 . S
C91 C90 1.391 . S
C91 C92 1.391 . S
C92 H69 0.947 . S
C92 C91 1.391 . S
C92 C93 1.392 . S
C93 H70 0.948 . S
C93 C92 1.392 . S
C93 C94 1.419 . S
C94 C93 1.419 . S
C94 C95 1.391 . S
C94 C98 1.397 . S
C95 C90 1.391 . S
C95 C94 1.391 . S
C95 C96 1.399 . S
C96 C95 1.399 . S
C96 C97 1.396 . S
C96 C99 1.453 . S
C96 C100 1.684 . S
C97 C87 1.723 . S
C97 C96 1.396 . S
C97 C98 1.394 . S
C98 C68 1.723 . S
C98 C94 1.397 . S
C98 C97 1.394 . S
C99 H71 0.982 . S
C99 H75 0.979 . S
C99 H76 0.977 . S
C99 C96 1.453 . S
C100 H72 0.979 . S
C100 H73 0.980 . S
C100 H74 0.983 . S
C100 C96 1.684 . S
H101 C119 0.948 . S
H102 C60 0.948 . S
H103 C78 0.979 . S
H104 C78 0.980 . S
H105 C78 0.983 . S
H106 C77 0.982 . S
H107 C77 0.979 . S
H108 C77 0.977 . S
H109 C79 0.948 . S
H110 C81 0.947 . S
H111 C82 0.948 . S
H112 C88 0.982 . S
H113 C88 0.979 . S
H114 C88 0.977 . S
H115 C89 0.979 . S
H116 C89 0.980 . S
H117 C89 0.983 . S
H118 C62 0.947 . S
C119 C62 1.392 . S
C119 C63 1.419 . S
C119 H101 0.948 . S
C120 C121 1.391 . S
C120 C124 1.391 . S
C120 H162 0.948 . S
C121 C120 1.391 . S
C121 C122 1.391 . S
C122 C121 1.391 . S
C122 H178 0.947 . S
C122 C179 1.392 . S
C123 C124 1.391 . S
C123 C127 1.397 . S
C123 C179 1.419 . S
C124 C120 1.391 . S
C124 C123 1.391 . S
C124 C125 1.399 . S
C125 C124 1.399 . S
C125 C128 1.396 . S
C125 C137 1.453 . S
C125 C138 1.684 . S
H126 C150 0.948 . S
C127 C123 1.397 . S
C127 C128 1.394 . S
C127 C146 1.723 . S
C128 C125 1.396 . S
C128 C127 1.394 . S
C128 C158 1.723 . S
H129 C152 0.947 . S
H130 C153 0.948 . S
H131 C159 0.982 . S
H132 C160 0.979 . S
H133 C160 0.980 . S
H134 C160 0.983 . S
H135 C159 0.979 . S
H136 C159 0.977 . S
C137 C125 1.453 . S
C137 H166 0.982 . S
C137 H167 0.979 . S
C137 H168 0.977 . S
C138 C125 1.684 . S
C138 H163 0.979 . S
C138 H164 0.980 . S
C138 H165 0.983 . S
C139 C140 1.391 . S
C139 C144 1.391 . S
C139 H169 0.948 . S
C140 C139 1.391 . S
C140 C141 1.391 . S
C141 C140 1.391 . S
C141 C142 1.392 . S
C141 H170 0.947 . S
C142 C141 1.392 . S
C142 C143 1.419 . S
C142 H171 0.948 . S
C143 C142 1.419 . S
C143 C144 1.391 . S
C143 C147 1.397 . S
C144 C139 1.391 . S
C144 C143 1.391 . S
C144 C145 1.399 . S
C145 C144 1.399 . S
C145 C146 1.396 . S
C145 C148 1.453 . S
C145 C149 1.684 . S
C146 C127 1.723 . S
C146 C145 1.396 . S
C146 C147 1.394 . S
C147 C143 1.397 . S
C147 C146 1.394 . S
C147 C157 1.723 . S
C148 C145 1.453 . S
C148 H172 0.982 . S
C148 H173 0.979 . S
C148 H174 0.977 . S
C149 C145 1.684 . S
C149 H175 0.979 . S
C149 H176 0.980 . S
C149 H177 0.983 . S
C150 H126 0.948 . S
C150 C151 1.391 . S
C150 C155 1.391 . S
C151 C150 1.391 . S
C151 C152 1.391 . S
C152 H129 0.947 . S
C152 C151 1.391 . S
C152 C153 1.392 . S
C153 H130 0.948 . S
C153 C152 1.392 . S
C153 C154 1.419 . S
C154 C153 1.419 . S
C154 C155 1.391 . S
C154 C158 1.397 . S
C155 C150 1.391 . S
C155 C154 1.391 . S
C155 C156 1.399 . S
C156 C155 1.399 . S
C156 C157 1.396 . S
C156 C159 1.453 . S
C156 C160 1.684 . S
C157 C147 1.723 . S
C157 C156 1.396 . S
C157 C158 1.394 . S
C158 C128 1.723 . S
C158 C154 1.397 . S
C158 C157 1.394 . S
C159 H131 0.982 . S
C159 H135 0.979 . S
C159 H136 0.977 . S
C159 C156 1.453 . S
C160 H132 0.979 . S
C160 H133 0.980 . S
C160 H134 0.983 . S
C160 C156 1.684 . S
H161 C179 0.948 . S
H162 C120 0.948 . S
H163 C138 0.979 . S
H164 C138 0.980 . S
H165 C138 0.983 . S
H166 C137 0.982 . S
H167 C137 0.979 . S
H168 C137 0.977 . S
H169 C139 0.948 . S
H170 C141 0.947 . S
H171 C142 0.948 . S
H172 C148 0.982 . S
H173 C148 0.979 . S
H174 C148 0.977 . S
H175 C149 0.979 . S
H176 C149 0.980 . S
H177 C149 0.983 . S
H178 C122 0.947 . S
C179 C122 1.392 . S
C179 C123 1.419 . S
C179 H161 0.948 . S
C180 C181 1.391 . S
C180 C184 1.391 . S
C180 H222 0.948 . S
C181 C180 1.391 . S
C181 C182 1.391 . S
C182 C181 1.391 . S
C182 H238 0.947 . S
C182 C239 1.392 . S
C183 C184 1.391 . S
C183 C187 1.397 . S
C183 C239 1.419 . S
C184 C180 1.391 . S
C184 C183 1.391 . S
C184 C185 1.399 . S
C185 C184 1.399 . S
C185 C188 1.396 . S
C185 C197 1.453 . S
C185 C198 1.684 . S
H186 C210 0.948 . S
C187 C183 1.397 . S
C187 C188 1.394 . S
C187 C206 1.723 . S
C188 C185 1.396 . S
C188 C187 1.394 . S
C188 C218 1.723 . S
H189 C212 0.947 . S
H190 C213 0.948 . S
H191 C219 0.982 . S
H192 C220 0.979 . S
H193 C220 0.980 . S
H194 C220 0.983 . S
H195 C219 0.979 . S
H196 C219 0.977 . S
C197 C185 1.453 . S
C197 H226 0.982 . S
C197 H227 0.979 . S
C197 H228 0.977 . S
C198 C185 1.684 . S
C198 H223 0.979 . S
C198 H224 0.980 . S
C198 H225 0.983 . S
C199 C200 1.391 . S
C199 C204 1.391 . S
C199 H229 0.948 . S
C200 C199 1.391 . S
C200 C201 1.391 . S
C201 C200 1.391 . S
C201 C202 1.392 . S
C201 H230 0.947 . S
C202 C201 1.392 . S
C202 C203 1.419 . S
C202 H231 0.948 . S
C203 C202 1.419 . S
C203 C204 1.391 . S
C203 C207 1.397 . S
C204 C199 1.391 . S
C204 C203 1.391 . S
C204 C205 1.399 . S
C205 C204 1.399 . S
C205 C206 1.396 . S
C205 C208 1.453 . S
C205 C209 1.684 . S
C206 C187 1.723 . S
C206 C205 1.396 . S
C206 C207 1.394 . S
C207 C203 1.397 . S
C207 C206 1.394 . S
C207 C217 1.723 . S
C208 C205 1.453 . S
C208 H232 0.982 . S
C208 H233 0.979 . S
C208 H234 0.977 . S
C209 C205 1.684 . S
C209 H235 0.979 . S
C209 H236 0.980 . S
C209 H237 0.983 . S
C210 H186 0.948 . S
C210 C211 1.391 . S
C210 C215 1.391 . S
C211 C210 1.391 . S
C211 C212 1.391 . S
C212 H189 0.947 . S
C212 C211 1.391 . S
C212 C213 1.392 . S
C213 H190 0.948 . S
C213 C212 1.392 . S
C213 C214 1.419 . S
C214 C213 1.419 . S
C214 C215 1.391 . S
C214 C218 1.397 . S
C215 C210 1.391 . S
C215 C214 1.391 . S
C215 C216 1.399 . S
C216 C215 1.399 . S
C216 C217 1.396 . S
C216 C219 1.453 . S
C216 C220 1.684 . S
C217 C207 1.723 . S
C217 C216 1.396 . S
C217 C218 1.394 . S
C218 C188 1.723 . S
C218 C214 1.397 . S
C218 C217 1.394 . S
C219 H191 0.982 . S
C219 H195 0.979 . S
C219 H196 0.977 . S
C219 C216 1.453 . S
C220 H192 0.979 . S
C220 H193 0.980 . S
C220 H194 0.983 . S
C220 C216 1.684 . S
H221 C239 0.948 . S
H222 C180 0.948 . S
H223 C198 0.979 . S
H224 C198 0.980 . S
H225 C198 0.983 . S
H226 C197 0.982 . S
H227 C197 0.979 . S
H228 C197 0.977 . S
H229 C199 0.948 . S
H230 C201 0.947 . S
H231 C202 0.948 . S
H232 C208 0.982 . S
H233 C208 0.979 . S
H234 C208 0.977 . S
H235 C209 0.979 . S
H236 C209 0.980 . S
H237 C209 0.983 . S
H238 C182 0.947 . S
C239 C182 1.392 . S
C239 C183 1.419 . S
C239 H221 0.948 . S
C240 C241 1.391 . S
C240 C244 1.391 . S
C240 H282 0.948 . S
C241 C240 1.391 . S
C241 C242 1.391 . S
C242 C241 1.391 . S
C242 H298 0.947 . S
C242 C299 1.392 . S
C243 C244 1.391 . S
C243 C247 1.397 . S
C243 C299 1.419 . S
C244 C240 1.391 . S
C244 C243 1.391 . S
C244 C245 1.399 . S
C245 C244 1.399 . S
C245 C248 1.396 . S
C245 C257 1.453 . S
C245 C258 1.684 . S
H246 C270 0.948 . S
C247 C243 1.397 . S
C247 C248 1.394 . S
C247 C266 1.723 . S
C248 C245 1.396 . S
C248 C247 1.394 . S
C248 C278 1.723 . S
H249 C272 0.947 . S
H250 C273 0.948 . S
H251 C279 0.982 . S
H252 C280 0.979 . S
H253 C280 0.980 . S
H254 C280 0.983 . S
H255 C279 0.979 . S
H256 C279 0.977 . S
C257 C245 1.453 . S
C257 H286 0.982 . S
C257 H287 0.979 . S
C257 H288 0.977 . S
C258 C245 1.684 . S
C258 H283 0.979 . S
C258 H284 0.980 . S
C258 H285 0.983 . S
C259 C260 1.391 . S
C259 C264 1.391 . S
C259 H289 0.948 . S
C260 C259 1.391 . S
C260 C261 1.391 . S
C261 C260 1.391 . S
C261 C262 1.392 . S
C261 H290 0.947 . S
C262 C261 1.392 . S
C262 C263 1.419 . S
C262 H291 0.948 . S
C263 C262 1.419 . S
C263 C264 1.391 . S
C263 C267 1.397 . S
C264 C259 1.391 . S
C264 C263 1.391 . S
C264 C265 1.399 . S
C265 C264 1.399 . S
C265 C266 1.396 . S
C265 C268 1.453 . S
C265 C269 1.684 . S
C266 C247 1.723 . S
C266 C265 1.396 . S
C266 C267 1.394 . S
C267 C263 1.397 . S
C267 C266 1.394 . S
C267 C277 1.723 . S
C268 C265 1.453 . S
C268 H292 0.982 . S
C268 H293 0.979 . S
C268 H294 0.977 . S
C269 C265 1.684 . S
C269 H295 0.979 . S
C269 H296 0.980 . S
C269 H297 0.983 . S
C270 H246 0.948 . S
C270 C271 1.391 . S
C270 C275 1.391 . S
C271 C270 1.391 . S
C271 C272 1.391 . S
C272 H249 0.947 . S
C272 C271 1.391 . S
C272 C273 1.392 . S
C273 H250 0.948 . S
C273 C272 1.392 . S
C273 C274 1.419 . S
C274 C273 1.419 . S
C274 C275 1.391 . S
C274 C278 1.397 . S
C275 C270 1.391 . S
C275 C274 1.391 . S
C275 C276 1.399 . S
C276 C275 1.399 . S
C276 C277 1.396 . S
C276 C279 1.453 . S
C276 C280 1.684 . S
C277 C267 1.723 . S
C277 C276 1.396 . S
C277 C278 1.394 . S
C278 C248 1.723 . S
C278 C274 1.397 . S
C278 C277 1.394 . S
C279 H251 0.982 . S
C279 H255 0.979 . S
C279 H256 0.977 . S
C279 C276 1.453 . S
C280 H252 0.979 . S
C280 H253 0.980 . S
C280 H254 0.983 . S
C280 C276 1.684 . S
H281 C299 0.948 . S
H282 C240 0.948 . S
H283 C258 0.979 . S
H284 C258 0.980 . S
H285 C258 0.983 . S
H286 C257 0.982 . S
H287 C257 0.979 . S
H288 C257 0.977 . S
H289 C259 0.948 . S
H290 C261 0.947 . S
H291 C262 0.948 . S
H292 C268 0.982 . S
H293 C268 0.979 . S
H294 C268 0.977 . S
H295 C269 0.979 . S
H296 C269 0.980 . S
H297 C269 0.983 . S
H298 C242 0.947 . S
C299 C242 1.392 . S
C299 C243 1.419 . S
C299 H281 0.948 . S
C300 C301 1.391 . S
C300 C304 1.391 . S
C300 H342 0.948 . S
C301 C300 1.391 . S
C301 C302 1.391 . S
C302 C301 1.391 . S
C302 H358 0.947 . S
C302 C359 1.392 . S
C303 C304 1.391 . S
C303 C307 1.397 . S
C303 C359 1.419 . S
C304 C300 1.391 . S
C304 C303 1.391 . S
C304 C305 1.399 . S
C305 C304 1.399 . S
C305 C308 1.396 . S
C305 C317 1.453 . S
C305 C318 1.684 . S
H306 C330 0.948 . S
C307 C303 1.397 . S
C307 C308 1.394 . S
C307 C326 1.723 . S
C308 C305 1.396 . S
C308 C307 1.394 . S
C308 C338 1.723 . S
H309 C332 0.947 . S
H310 C333 0.948 . S
H311 C339 0.982 . S
H312 C340 0.979 . S
H313 C340 0.980 . S
H314 C340 0.983 . S
H315 C339 0.979 . S
H316 C339 0.977 . S
C317 C305 1.453 . S
C317 H346 0.982 . S
C317 H347 0.979 . S
C317 H348 0.977 . S
C318 C305 1.684 . S
C318 H343 0.979 . S
C318 H344 0.980 . S
C318 H345 0.983 . S
C319 C320 1.391 . S
C319 C324 1.391 . S
C319 H349 0.948 . S
C320 C319 1.391 . S
C320 C321 1.391 . S
C321 C320 1.391 . S
C321 C322 1.392 . S
C321 H350 0.947 . S
C322 C321 1.392 . S
C322 C323 1.419 . S
C322 H351 0.948 . S
C323 C322 1.419 . S
C323 C324 1.391 . S
C323 C327 1.397 . S
C324 C319 1.391 . S
C324 C323 1.391 . S
C324 C325 1.399 . S
C325 C324 1.399 . S
C325 C326 1.396 . S
C325 C328 1.453 . S
C325 C329 1.684 . S
C326 C307 1.723 . S
C326 C325 1.396 . S
C326 C327 1.394 . S
C327 C323 1.397 . S
C327 C326 1.394 . S
C327 C337 1.723 . S
C328 C325 1.453 . S
C328 H352 0.982 . S
C328 H353 0.979 . S
C328 H354 0.977 . S
C329 C325 1.684 . S
C329 H355 0.979 . S
C329 H356 0.980 . S
C329 H357 0.983 . S
C330 H306 0.948 . S
C330 C331 1.391 . S
C330 C335 1.391 . S
C331 C330 1.391 . S
C331 C332 1.391 . S
C332 H309 0.947 . S
C332 C331 1.391 . S
C332 C333 1.392 . S
C333 H310 0.948 . S
C333 C332 1.392 . S
C333 C334 1.419 . S
C334 C333 1.419 . S
C334 C335 1.391 . S
C334 C338 1.397 . S
C335 C330 1.391 . S
C335 C334 1.391 . S
C335 C336 1.399 . S
C336 C335 1.399 . S
C336 C337 1.396 . S
C336 C339 1.453 . S
C336 C340 1.684 . S
C337 C327 1.723 . S
C337 C336 1.396 . S
C337 C338 1.394 . S
C338 C308 1.723 . S
C338 C334 1.397 . S
C338 C337 1.394 . S
C339 H311 0.982 . S
C339 H315 0.979 . S
C339 H316 0.977 . S
C339 C336 1.453 . S
C340 H312 0.979 . S
C340 H313 0.980 . S
C340 H314 0.983 . S
C340 C336 1.684 . S
H341 C359 0.948 . S
H342 C300 0.948 . S
H343 C318 0.979 . S
H344 C318 0.980 . S
H345 C318 0.983 . S
H346 C317 0.982 . S
H347 C317 0.979 . S
H348 C317 0.977 . S
H349 C319 0.948 . S
H350 C321 0.947 . S
H351 C322 0.948 . S
H352 C328 0.982 . S
H353 C328 0.979 . S
H354 C328 0.977 . S
H355 C329 0.979 . S
H356 C329 0.980 . S
H357 C329 0.983 . S
H358 C302 0.947 . S
C359 C302 1.392 . S
C359 C303 1.419 . S
C359 H341 0.948 . S
C360 C361 1.391 . S
C360 C364 1.391 . S
C360 H402 0.948 . S
C361 C360 1.391 . S
C361 C362 1.391 . S
C362 C361 1.391 . S
C362 H418 0.947 . S
C362 C419 1.392 . S
C363 C364 1.391 . S
C363 C367 1.397 . S
C363 C419 1.419 . S
C364 C360 1.391 . S
C364 C363 1.391 . S
C364 C365 1.399 . S
C365 C364 1.399 . S
C365 C368 1.396 . S
C365 C377 1.453 . S
C365 C378 1.684 . S
H366 C390 0.948 . S
C367 C363 1.397 . S
C367 C368 1.394 . S
C367 C386 1.723 . S
C368 C365 1.396 . S
C368 C367 1.394 . S
C368 C398 1.723 . S
H369 C392 0.947 . S
H370 C393 0.948 . S
H371 C399 0.982 . S
H372 C400 0.979 . S
H373 C400 0.980 . S
H374 C400 0.983 . S
H375 C399 0.979 . S
H376 C399 0.977 . S
C377 C365 1.453 . S
C377 H406 0.982 . S
C377 H407 0.979 . S
C377 H408 0.977 . S
C378 C365 1.684 . S
C378 H403 0.979 . S
C378 H404 0.980 . S
C378 H405 0.983 . S
C379 C380 1.391 . S
C379 C384 1.391 . S
C379 H409 0.948 . S
C380 C379 1.391 . S
C380 C381 1.391 . S
C381 C380 1.391 . S
C381 C382 1.392 . S
C381 H410 0.947 . S
C382 C381 1.392 . S
C382 C383 1.419 . S
C382 H411 0.948 . S
C383 C382 1.419 . S
C383 C384 1.391 . S
C383 C387 1.397 . S
C384 C379 1.391 . S
C384 C383 1.391 . S
C384 C385 1.399 . S
C385 C384 1.399 . S
C385 C386 1.396 . S
C385 C388 1.453 . S
C385 C389 1.684 . S
C386 C367 1.723 . S
C386 C385 1.396 . S
C386 C387 1.394 . S
C387 C383 1.397 . S
C387 C386 1.394 . S
C387 C397 1.723 . S
C388 C385 1.453 . S
C388 H412 0.982 . S
C388 H413 0.979 . S
C388 H414 0.977 . S
C389 C385 1.684 . S
C389 H415 0.979 . S
C389 H416 0.980 . S
C389 H417 0.983 . S
C390 H366 0.948 . S
C390 C391 1.391 . S
C390 C395 1.391 . S
C391 C390 1.391 . S
C391 C392 1.391 . S
C392 H369 0.947 . S
C392 C391 1.391 . S
C392 C393 1.392 . S
C393 H370 0.948 . S
C393 C392 1.392 . S
C393 C394 1.419 . S
C394 C393 1.419 . S
C394 C395 1.391 . S
C394 C398 1.397 . S
C395 C390 1.391 . S
C395 C394 1.391 . S
C395 C396 1.399 . S
C396 C395 1.399 . S
C396 C397 1.396 . S
C396 C399 1.453 . S
C396 C400 1.684 . S
C397 C387 1.723 . S
C397 C396 1.396 . S
C397 C398 1.394 . S
C398 C368 1.723 . S
C398 C394 1.397 . S
C398 C397 1.394 . S
C399 H371 0.982 . S
C399 H375 0.979 . S
C399 H376 0.977 . S
C399 C396 1.453 . S
C400 H372 0.979 . S
C400 H373 0.980 . S
C400 H374 0.983 . S
C400 C396 1.684 . S
H401 C419 0.948 . S
H402 C360 0.948 . S
H403 C378 0.979 . S
H404 C378 0.980 . S
H405 C378 0.983 . S
H406 C377 0.982 . S
H407 C377 0.979 . S
H408 C377 0.977 . S
H409 C379 0.948 . S
H410 C381 0.947 . S
H411 C382 0.948 . S
H412 C388 0.982 . S
H413 C388 0.979 . S
H414 C388 0.977 . S
H415 C389 0.979 . S
H416 C389 0.980 . S
H417 C389 0.983 . S
H418 C362 0.947 . S
C419 C362 1.392 . S
C419 C363 1.419 . S
C419 H401 0.948 . S
C420 C421 1.391 . S
C420 C424 1.391 . S
C420 H462 0.948 . S
C421 C420 1.391 . S
C421 C422 1.391 . S
C422 C421 1.391 . S
C422 H478 0.947 . S
C422 C479 1.392 . S
C423 C424 1.391 . S
C423 C427 1.397 . S
C423 C479 1.419 . S
C424 C420 1.391 . S
C424 C423 1.391 . S
C424 C425 1.399 . S
C425 C424 1.399 . S
C425 C428 1.396 . S
C425 C437 1.453 . S
C425 C438 1.684 . S
H426 C450 0.948 . S
C427 C423 1.397 . S
C427 C428 1.394 . S
C427 C446 1.723 . S
C428 C425 1.396 . S
C428 C427 1.394 . S
C428 C458 1.723 . S
H429 C452 0.947 . S
H430 C453 0.948 . S
H431 C459 0.982 . S
H432 C460 0.979 . S
H433 C460 0.980 . S
H434 C460 0.983 . S
H435 C459 0.979 . S
H436 C459 0.977 . S
C437 C425 1.453 . S
C437 H466 0.982 . S
C437 H467 0.979 . S
C437 H468 0.977 . S
C438 C425 1.684 . S
C438 H463 0.979 . S
C438 H464 0.980 . S
C438 H465 0.983 . S
C439 C440 1.391 . S
C439 C444 1.391 . S
C439 H469 0.948 . S
C440 C439 1.391 . S
C440 C441 1.391 . S
C441 C440 1.391 . S
C441 C442 1.392 . S
C441 H470 0.947 . S
C442 C441 1.392 . S
C442 C443 1.419 . S
C442 H471 0.948 . S
C443 C442 1.419 . S
C443 C444 1.391 . S
C443 C447 1.397 . S
C444 C439 1.391 . S
C444 C443 1.391 . S
C444 C445 1.399 . S
C445 C444 1.399 . S
C445 C446 1.396 . S
C445 C448 1.453 . S
C445 C449 1.684 . S
C446 C427 1.723 . S
C446 C445 1.396 . S
C446 C447 1.394 . S
C447 C443 1.397 . S
C447 C446 1.394 . S
C447 C457 1.723 . S
C448 C445 1.453 . S
C448 H472 0.982 . S
C448 H473 0.979 . S
C448 H474 0.977 . S
C449 C445 1.684 . S
C449 H475 0.979 . S
C449 H476 0.980 . S
C449 H477 0.983 . S
C450 H426 0.948 . S
C450 C451 1.391 . S
C450 C455 1.391 . S
C451 C450 1.391 . S
C451 C452 1.391 . S
C452 H429 0.947 . S
C452 C451 1.391 . S
C452 C453 1.392 . S
C453 H430 0.948 . S
C453 C452 1.392 . S
C453 C454 1.419 . S
C454 C453 1.419 . S
C454 C455 1.391 . S
C454 C458 1.397 . S
C455 C450 1.391 . S
C455 C454 1.391 . S
C455 C456 1.399 . S
C456 C455 1.399 . S
C456 C457 1.396 . S
C456 C459 1.453 . S
C456 C460 1.684 . S
C457 C447 1.723 . S
C457 C456 1.396 . S
C457 C458 1.394 . S
C458 C428 1.723 . S
C458 C454 1.397 . S
C458 C457 1.394 . S
C459 H431 0.982 . S
C459 H435 0.979 . S
C459 H436 0.977 . S
C459 C456 1.453 . S
C460 H432 0.979 . S
C460 H433 0.980 . S
C460 H434 0.983 . S
C460 C456 1.684 . S
H461 C479 0.948 . S
H462 C420 0.948 . S
H463 C438 0.979 . S
H464 C438 0.980 . S
H465 C438 0.983 . S
H466 C437 0.982 . S
H467 C437 0.979 . S
H468 C437 0.977 . S
H469 C439 0.948 . S
H470 C441 0.947 . S
H471 C442 0.948 . S
H472 C448 0.982 . S
H473 C448 0.979 . S
H474 C448 0.977 . S
H475 C449 0.979 . S
H476 C449 0.980 . S
H477 C449 0.983 . S
H478 C422 0.947 . S
C479 C422 1.392 . S
C479 C423 1.419 . S
C479 H461 0.948 . S
Sm480 C482 2.846 . S
Sm480 O500 2.543 . S
Sm480 O501 2.450 . S
Sm480 O502 2.681 1_545 S
Sm480 O503 2.464 1_545 S
Sm480 O504 2.396 . S
Sm480 O508 2.386 1_455 S
Sm480 O511 2.408 1_445 S
Sm481 C491 2.846 . S
Sm481 O502 2.386 1_655 S
Sm481 O505 2.408 1_665 S
Sm481 O506 2.543 . S
Sm481 O507 2.450 . S
Sm481 O508 2.681 1_565 S
Sm481 O509 2.464 1_565 S
Sm481 O510 2.396 . S
C482 Sm480 2.846 . S
C482 C483 1.506 . S
C482 O500 1.261 . S
C482 O501 1.242 . S
C483 C482 1.506 . S
C483 C484 1.358 . S
C483 C488 1.382 . S
C484 C483 1.358 . S
C484 C485 1.385 . S
C484 H512 0.930 . S
C485 C484 1.385 . S
C485 C486 1.395 . S
C485 H513 0.929 . S
C486 C485 1.395 . S
C486 C487 1.335 . S
C487 C486 1.335 . S
C487 C488 1.398 . S
C487 H514 0.930 . S
C488 C483 1.382 . S
C488 C487 1.398 . S
C488 H515 0.929 . S
C489 O502 1.271 . S
C489 O503 1.251 . S
C490 O504 1.252 . S
C490 O505 1.272 . S
C491 Sm481 2.846 . S
C491 C492 1.506 . S
C491 O506 1.261 . S
C491 O507 1.242 . S
C492 C491 1.506 . S
C492 C493 1.358 . S
C492 C497 1.382 . S
C493 C492 1.358 . S
C493 C494 1.385 . S
C493 H516 0.930 . S
C494 C493 1.385 . S
C494 C495 1.395 . S
C494 H517 0.929 . S
C495 C494 1.395 . S
C495 C496 1.335 . S
C496 C495 1.335 . S
C496 C497 1.398 . S
C496 H518 0.930 . S
C497 C492 1.382 . S
C497 C496 1.398 . S
C497 H519 0.929 . S
C498 O508 1.271 . S
C498 O509 1.251 . S
C499 O510 1.252 . S
C499 O511 1.272 . S
O500 Sm480 2.543 . S
O500 C482 1.261 . S
O501 Sm480 2.450 . S
O501 C482 1.242 . S
O502 Sm480 2.681 1_565 S
O502 Sm481 2.386 1_455 S
O502 C489 1.271 . S
O503 Sm480 2.464 1_565 S
O503 C489 1.251 . S
O504 Sm480 2.396 . S
O504 C490 1.252 . S
O505 Sm481 2.408 1_445 S
O505 C490 1.272 . S
O506 Sm481 2.543 . S
O506 C491 1.261 . S
O507 Sm481 2.450 . S
O507 C491 1.242 . S
O508 Sm480 2.386 1_655 S
O508 Sm481 2.681 1_545 S
O508 C498 1.271 . S
O509 Sm481 2.464 1_545 S
O509 C498 1.251 . S
O510 Sm481 2.396 . S
O510 C499 1.252 . S
O511 Sm480 2.408 1_665 S
O511 C499 1.272 . S
H512 C484 0.930 . S
H513 C485 0.929 . S
H514 C487 0.930 . S
H515 C488 0.929 . S
H516 C493 0.930 . S
H517 C494 0.929 . S
H518 C496 0.930 . S
H519 C497 0.929 . S
Sm520 C522 2.846 1_565 S
Sm520 O540 2.543 1_565 S
Sm520 O541 2.450 1_565 S
Sm520 O542 2.681 . S
Sm520 O543 2.464 . S
Sm520 O544 2.396 1_565 S
Sm520 O548 2.386 1_564 S
Sm520 O551 2.408 1_554 S
Sm521 C531 2.846 1_545 S
Sm521 O542 2.386 1_546 S
Sm521 O545 2.408 1_556 S
Sm521 O546 2.543 1_545 S
Sm521 O547 2.450 1_545 S
Sm521 O548 2.681 . S
Sm521 O549 2.464 . S
Sm521 O550 2.396 1_545 S
C522 Sm520 2.846 1_545 S
C522 C523 1.506 . S
C522 O540 1.261 . S
C522 O541 1.242 . S
C523 C522 1.506 . S
C523 C524 1.358 . S
C523 C528 1.382 . S
C524 C523 1.358 . S
C524 C525 1.385 . S
C524 H552 0.930 . S
C525 C524 1.385 . S
C525 C526 1.395 . S
C525 H553 0.929 . S
C526 C525 1.395 . S
C526 C527 1.335 . S
C527 C526 1.335 . S
C527 C528 1.398 . S
C527 H554 0.930 . S
C528 C523 1.382 . S
C528 C527 1.398 . S
C528 H555 0.929 . S
C529 O542 1.271 . S
C529 O543 1.251 . S
C530 O544 1.252 . S
C530 O545 1.272 . S
C531 Sm521 2.846 1_565 S
C531 C532 1.506 . S
C531 O546 1.261 . S
C531 O547 1.242 . S
C532 C531 1.506 . S
C532 C533 1.358 . S
C532 C537 1.382 . S
C533 C532 1.358 . S
C533 C534 1.385 . S
C533 H556 0.930 . S
C534 C533 1.385 . S
C534 C535 1.395 . S
C534 H557 0.929 . S
C535 C534 1.395 . S
C535 C536 1.335 . S
C536 C535 1.335 . S
C536 C537 1.398 . S
C536 H558 0.930 . S
C537 C532 1.382 . S
C537 C536 1.398 . S
C537 H559 0.929 . S
C538 O548 1.271 . S
C538 O549 1.251 . S
C539 O550 1.252 . S
C539 O551 1.272 . S
O540 Sm520 2.543 1_545 S
O540 C522 1.261 . S
O541 Sm520 2.450 1_545 S
O541 C522 1.242 . S
O542 Sm520 2.681 . S
O542 Sm521 2.386 1_564 S
O542 C529 1.271 . S
O543 Sm520 2.464 . S
O543 C529 1.251 . S
O544 Sm520 2.396 1_545 S
O544 C530 1.252 . S
O545 Sm521 2.408 1_554 S
O545 C530 1.272 . S
O546 Sm521 2.543 1_565 S
O546 C531 1.261 . S
O547 Sm521 2.450 1_565 S
O547 C531 1.242 . S
O548 Sm520 2.386 1_546 S
O548 Sm521 2.681 . S
O548 C538 1.271 . S
O549 Sm521 2.464 . S
O549 C538 1.251 . S
O550 Sm521 2.396 1_565 S
O550 C539 1.252 . S
O551 Sm520 2.408 1_556 S
O551 C539 1.272 . S
H552 C524 0.930 . S
H553 C525 0.929 . S
H554 C527 0.930 . S
H555 C528 0.929 . S
H556 C533 0.930 . S
H557 C534 0.929 . S
H558 C536 0.930 . S
H559 C537 0.929 . S
Sm560 C562 2.846 . S
Sm560 O580 2.543 . S
Sm560 O581 2.450 . S
Sm560 O582 2.681 . S
Sm560 O583 2.464 . S
Sm560 O584 2.396 . S
Sm560 O588 2.386 . S
Sm560 O591 2.408 . S
Sm561 C571 2.846 . S
Sm561 O582 2.386 . S
Sm561 O585 2.408 . S
Sm561 O586 2.543 . S
Sm561 O587 2.450 . S
Sm561 O588 2.681 . S
Sm561 O589 2.464 . S
Sm561 O590 2.396 . S
C562 Sm560 2.846 . S
C562 C563 1.506 . S
C562 O580 1.261 . S
C562 O581 1.242 . S
C563 C562 1.506 . S
C563 C564 1.358 . S
C563 C568 1.382 . S
C564 C563 1.358 . S
C564 C565 1.385 . S
C564 H592 0.930 . S
C565 C564 1.385 . S
C565 C566 1.395 . S
C565 H593 0.929 . S
C566 C565 1.395 . S
C566 C567 1.335 . S
C567 C566 1.335 . S
C567 C568 1.398 . S
C567 H594 0.930 . S
C568 C563 1.382 . S
C568 C567 1.398 . S
C568 H595 0.929 . S
C569 O582 1.271 . S
C569 O583 1.251 . S
C570 O584 1.252 . S
C570 O585 1.272 . S
C571 Sm561 2.846 . S
C571 C572 1.506 . S
C571 O586 1.261 . S
C571 O587 1.242 . S
C572 C571 1.506 . S
C572 C573 1.358 . S
C572 C577 1.382 . S
C573 C572 1.358 . S
C573 C574 1.385 . S
C573 H596 0.930 . S
C574 C573 1.385 . S
C574 C575 1.395 . S
C574 H597 0.929 . S
C575 C574 1.395 . S
C575 C576 1.335 . S
C576 C575 1.335 . S
C576 C577 1.398 . S
C576 H598 0.930 . S
C577 C572 1.382 . S
C577 C576 1.398 . S
C577 H599 0.929 . S
C578 O588 1.271 . S
C578 O589 1.251 . S
C579 O590 1.252 . S
C579 O591 1.272 . S
O580 Sm560 2.543 . S
O580 C562 1.261 . S
O581 Sm560 2.450 . S
O581 C562 1.242 . S
O582 Sm560 2.681 . S
O582 Sm561 2.386 . S
O582 C569 1.271 . S
O583 Sm560 2.464 . S
O583 C569 1.251 . S
O584 Sm560 2.396 . S
O584 C570 1.252 . S
O585 Sm561 2.408 . S
O585 C570 1.272 . S
O586 Sm561 2.543 . S
O586 C571 1.261 . S
O587 Sm561 2.450 . S
O587 C571 1.242 . S
O588 Sm560 2.386 . S
O588 Sm561 2.681 . S
O588 C578 1.271 . S
O589 Sm561 2.464 . S
O589 C578 1.251 . S
O590 Sm561 2.396 . S
O590 C579 1.252 . S
O591 Sm560 2.408 . S
O591 C579 1.272 . S
H592 C564 0.930 . S
H593 C565 0.929 . S
H594 C567 0.930 . S
H595 C568 0.929 . S
H596 C573 0.930 . S
H597 C574 0.929 . S
H598 C576 0.930 . S
H599 C577 0.929 . S
Sm600 C602 2.846 . S
Sm600 O620 2.543 . S
Sm600 O621 2.450 . S
Sm600 O622 2.681 1_455 S
Sm600 O623 2.464 1_455 S
Sm600 O624 2.396 . S
Sm600 O628 2.386 1_554 S
Sm600 O631 2.408 1_454 S
Sm601 C611 2.846 . S
Sm601 O622 2.386 1_556 S
Sm601 O625 2.408 1_656 S
Sm601 O626 2.543 . S
Sm601 O627 2.450 . S
Sm601 O628 2.681 1_655 S
Sm601 O629 2.464 1_655 S
Sm601 O630 2.396 . S
C602 Sm600 2.846 . S
C602 C603 1.506 . S
C602 O620 1.261 . S
C602 O621 1.242 . S
C603 C602 1.506 . S
C603 C604 1.358 . S
C603 C608 1.382 . S
C604 C603 1.358 . S
C604 C605 1.385 . S
C604 H632 0.930 . S
C605 C604 1.385 . S
C605 C606 1.395 . S
C605 H633 0.929 . S
C606 C605 1.395 . S
C606 C607 1.335 . S
C607 C606 1.335 . S
C607 C608 1.398 . S
C607 H634 0.930 . S
C608 C603 1.382 . S
C608 C607 1.398 . S
C608 H635 0.929 . S
C609 O622 1.271 . S
C609 O623 1.251 . S
C610 O624 1.252 . S
C610 O625 1.272 . S
C611 Sm601 2.846 . S
C611 C612 1.506 . S
C611 O626 1.261 . S
C611 O627 1.242 . S
C612 C611 1.506 . S
C612 C613 1.358 . S
C612 C617 1.382 . S
C613 C612 1.358 . S
C613 C614 1.385 . S
C613 H636 0.930 . S
C614 C613 1.385 . S
C614 C615 1.395 . S
C614 H637 0.929 . S
C615 C614 1.395 . S
C615 C616 1.335 . S
C616 C615 1.335 . S
C616 C617 1.398 . S
C616 H638 0.930 . S
C617 C612 1.382 . S
C617 C616 1.398 . S
C617 H639 0.929 . S
C618 O628 1.271 . S
C618 O629 1.251 . S
C619 O630 1.252 . S
C619 O631 1.272 . S
O620 Sm600 2.543 . S
O620 C602 1.261 . S
O621 Sm600 2.450 . S
O621 C602 1.242 . S
O622 Sm600 2.681 1_655 S
O622 Sm601 2.386 1_554 S
O622 C609 1.271 . S
O623 Sm600 2.464 1_655 S
O623 C609 1.251 . S
O624 Sm600 2.396 . S
O624 C610 1.252 . S
O625 Sm601 2.408 1_454 S
O625 C610 1.272 . S
O626 Sm601 2.543 . S
O626 C611 1.261 . S
O627 Sm601 2.450 . S
O627 C611 1.242 . S
O628 Sm600 2.386 1_556 S
O628 Sm601 2.681 1_455 S
O628 C618 1.271 . S
O629 Sm601 2.464 1_455 S
O629 C618 1.251 . S
O630 Sm601 2.396 . S
O630 C619 1.252 . S
O631 Sm600 2.408 1_656 S
O631 C619 1.272 . S
H632 C604 0.930 . S
H633 C605 0.929 . S
H634 C607 0.930 . S
H635 C608 0.929 . S
H636 C613 0.930 . S
H637 C614 0.929 . S
H638 C616 0.930 . S
H639 C617 0.929 . S
C1 C486 1.923 . S
C80 C535 1.591 . S
C570 C140 3.555 . S
C211 C609 3.565 . S
C530 C31 4.297 . S
C489 C61 1.457 . S
C619 C151 2.459 . S
C578 C200 2.334 . S
C20 C606 3.003 . S
C538 C121 3.350 . S
C181 C499 3.213 . S
C91 C575 2.766 . S
C495 C260 2.217 . S
C320 C526 1.591 . S
C361 C579 3.556 . S
C451 C618 3.565 . S
C271 C539 4.445 . S
C498 C301 1.457 . S
C610 C380 2.407 . S
C569 C440 2.334 . S
C241 C615 2.684 . S
C529 C391 3.352 . S
C490 C421 3.213 . S
C331 C566 2.766 . S
