# Generated by pormake.
# Topology tsx, (6,3)-cn, num edge types: 1
# Building blocks:
#     Node 0, Type 0, BuildingBlock: JUFBIX_clean_sbu_0, # of connection points: 6
#     Node 1, Type 0, BuildingBlock: JUFBIX_clean_sbu_0, # of connection points: 6
#     Node 2, Type 1, BuildingBlock: PAMTOO_clean_linker_0, # of connection points: 3
#     Node 3, Type 1, BuildingBlock: PAMTOO_clean_linker_0, # of connection points: 3
#     Node 4, Type 1, BuildingBlock: PAMTOO_clean_linker_0, # of connection points: 3
#     Node 5, Type 1, BuildingBlock: PAMTOO_clean_linker_0, # of connection points: 3
#     Edge 6, Type (0, 1), BuildingBlock: XUDNAN_clean_linker_2, # of connection points: 2
#     Edge 7, Type (0, 1), BuildingBlock: XUDNAN_clean_linker_2, # of connection points: 2
#     Edge 8, Type (0, 1), BuildingBlock: XUDNAN_clean_linker_2, # of connection points: 2
#     Edge 9, Type (0, 1), BuildingBlock: XUDNAN_clean_linker_2, # of connection points: 2
#     Edge 10, Type (0, 1), BuildingBlock: XUDNAN_clean_linker_2, # of connection points: 2
#     Edge 11, Type (0, 1), BuildingBlock: XUDNAN_clean_linker_2, # of connection points: 2
#     Edge 12, Type (0, 1), BuildingBlock: XUDNAN_clean_linker_2, # of connection points: 2
#     Edge 13, Type (0, 1), BuildingBlock: XUDNAN_clean_linker_2, # of connection points: 2
#     Edge 14, Type (0, 1), BuildingBlock: XUDNAN_clean_linker_2, # of connection points: 2
#     Edge 15, Type (0, 1), BuildingBlock: XUDNAN_clean_linker_2, # of connection points: 2
#     Edge 16, Type (0, 1), BuildingBlock: XUDNAN_clean_linker_2, # of connection points: 2
#     Edge 17, Type (0, 1), BuildingBlock: XUDNAN_clean_linker_2, # of connection points: 2
# Relax obj value: 0.109
# Max RMSD: 0.125
# Mean RMSD: 0.121
data_MOF--net-tsx--node1-JUFBIX_clean_sbu_0--node2-PAMTOO_clean_linker_0--edge1-XUDNAN_clean_linker_2
_symmetry_space_group_name_H-M    P1
_symmetry_Int_Tables_number       1
_symmetry_cell_setting            triclinic
loop_
_symmetry_equiv_pos_as_xyz
'x, y, z'
_cell_length_a     20.066776
_cell_length_b     23.754802
_cell_length_c     32.863855
_cell_angle_alpha  84.100972
_cell_angle_beta   89.61272
_cell_angle_gamma 99.189118
loop_
_atom_site_label
_atom_site_type_symbol
_atom_site_fract_x
_atom_site_fract_y
_atom_site_fract_z
_atom_type_partial_charge
Co0 Co 0.1253 0.97612 0.00187 0.0
C1 C 0.08589 0.02272 0.92528 0.0
Co2 Co 0.04354 0.02834 0.00306 0.0
C3 C 0.21295 0.88704 0.00359 0.0
C4 C 0.25626 0.96918 0.97368 0.0
N5 N 0.20082 0.94139 -0.00498 0.0
N6 N 0.27357 0.88046 0.98804 0.0
C7 C 0.30085 0.93227 0.96964 0.0
H8 H 0.17696 0.85256 0.01908 0.0
H9 H 0.26291 0.0132 0.96013 0.0
C10 C 0.08272 0.98116 0.07945 0.0
N11 N 0.96966 0.06517 0.00847 0.0
C12 C 0.96204 0.11935 -0.00513 0.0
C13 C 0.91082 0.04219 0.02816 0.0
N14 N 0.9006 0.13069 0.00505 0.0
C15 C 0.86817 0.08218 0.02585 0.0
C16 C 1.00328 0.90882 -0.00223 0.0
O17 O 0.1239 0.95834 0.05941 0.0
O18 O 0.04507 0.01297 0.06065 0.0
O19 O 0.98381 0.95691 6e-05 0.0
O20 O 0.06618 0.90674 -0.00289 0.0
O21 O 0.0428 0.04364 0.94509 0.0
H22 H 0.89975 0.99916 0.04357 0.0
H23 H 1.00047 0.14968 0.97749 0.0
O24 O 0.12539 0.99355 0.94469 0.0
O25 O 0.1838 0.04593 0.00712 0.0
O26 O 0.10407 0.09878 0.00625 0.0
C27 C 0.16638 0.09478 0.00797 0.0
H28 H 0.34929 0.94259 0.95362 0.0
H29 H 0.81767 0.07645 0.03907 0.0
Co30 Co 0.54636 0.53078 0.48553 0.0
C31 C 0.49227 0.59015 0.41919 0.0
Co32 Co 0.46755 0.58129 0.50168 0.0
C33 C 0.63589 0.44329 0.48156 0.0
C34 C 0.66648 0.52117 0.44248 0.0
N35 N 0.61724 0.49473 0.46927 0.0
N36 N 0.69522 0.43758 0.46375 0.0
C37 C 0.71426 0.48649 0.43919 0.0
H38 H 0.60814 0.4118 0.50425 0.0
H39 H 0.66856 0.56392 0.42706 0.0
C40 C 0.52187 0.5214 0.5679 0.0
N41 N 0.39823 0.61851 0.51783 0.0
C42 C 0.3878 0.673 0.50748 0.0
C43 C 0.34536 0.5945 0.54277 0.0
N44 N 0.33015 0.68348 0.52465 0.0
C45 C 0.30333 0.63409 0.54677 0.0
C46 C 0.41998 0.46729 0.48746 0.0
O47 O 0.55542 0.50289 0.54067 0.0
O48 O 0.48234 0.557 0.5575 0.0
O49 O 0.4047 0.51357 0.49829 0.0
O50 O 0.4813 0.46465 0.47877 0.0
O51 O 0.45356 0.60489 0.44555 0.0
H52 H 0.33762 0.55077 0.557 0.0
H53 H 0.42098 0.70395 0.48702 0.0
O54 O 0.53591 0.55902 0.43073 0.0
O55 O 0.61026 0.59773 0.49264 0.0
O56 O 0.53138 0.64827 0.50496 0.0
C57 C 0.59349 0.64507 0.50025 0.0
H58 H 0.76015 0.4967 0.42055 0.0
H59 H 0.25678 0.62723 0.56474 0.0
H60 H 0.08438 0.92837 0.39492 0.0
H61 H 0.96373 0.06069 0.36389 0.0
H62 H 0.04081 0.03631 0.48503 0.0
H63 H 0.89352 0.06473 0.47556 0.0
C64 C 0.90358 0.09435 0.44719 0.0
O65 O 0.97066 0.0988 0.43538 0.0
H66 H 0.87109 0.07635 0.4228 0.0
C67 C 0.0581 0.962 0.40353 0.0
C68 C 0.06453 0.97742 0.44344 0.0
C69 C 0.02224 0.99152 0.37423 0.0
C70 C 0.99192 0.03715 0.38575 0.0
C71 C 0.99788 0.05314 0.42565 0.0
C72 C 0.0347 0.02341 0.4545 0.0
H73 H 0.10832 0.16963 0.61986 0.0
H74 H 0.96972 1.01108 0.62786 0.0
H75 H 1.00345 0.11563 0.51309 0.0
H76 H 0.84691 0.04311 0.53958 0.0
C77 C 0.86993 1.00804 0.55604 0.0
O78 O 0.93924 0.01942 0.55071 0.0
H79 H 0.85615 1.00536 0.58911 0.0
C80 C 0.07061 0.14032 0.60571 0.0
C81 C 0.0594 0.1492 0.56353 0.0
C82 C 0.03789 0.09087 0.62898 0.0
C83 C 0.99305 0.05057 0.61034 0.0
C84 C 0.97899 0.06039 0.56889 0.0
C85 C 1.01196 0.10971 0.54553 0.0
H86 H 0.64829 0.40261 0.86648 0.0
H87 H 0.51551 0.52779 0.87342 0.0
H88 H 0.62996 0.47984 0.97734 0.0
H89 H 0.59379 0.62015 0.91841 0.0
C90 C 0.57151 0.60226 0.94909 0.0
O91 O 0.54332 0.54546 0.94859 0.0
H92 H 0.6127 0.60583 0.97152 0.0
C93 C 0.62504 0.4315 0.88338 0.0
C94 C 0.64308 0.43672 0.92408 0.0
C95 C 0.57942 0.46436 0.86424 0.0
C96 C 0.55193 0.50272 0.88685 0.0
C97 C 0.57085 0.50893 0.92728 0.0
C98 C 0.61634 0.47588 0.94589 0.0
H99 H 0.62529 0.65332 0.11964 0.0
H100 H 0.47508 0.50128 0.12977 0.0
H101 H 0.61981 0.53243 0.03025 0.0
H102 H 0.47747 0.48311 0.00664 0.0
C103 C 0.45951 0.46264 0.03738 0.0
O104 O 0.51351 0.46318 0.0633 0.0
H105 H 0.42213 0.48732 0.04923 0.0
C106 C 0.60217 0.61421 0.10758 0.0
C107 C 0.62876 0.59808 0.07167 0.0
C108 C 0.5472 0.57949 0.12891 0.0
C109 C 0.51747 0.52865 0.11362 0.0
C110 C 0.54345 0.51188 0.078 0.0
C111 C 0.59992 0.54587 0.0576 0.0
H112 H 0.15146 0.20468 0.02322 0.0
H113 H 0.302 0.09896 -0.00111 0.0
H114 H 0.39221 0.18083 0.00378 0.0
H115 H 0.23665 0.33593 0.96711 0.0
H116 H 0.21347 0.38144 0.00367 0.0
H117 H 0.15975 0.31467 -0.00265 0.0
H118 H 0.16642 0.28307 0.07484 0.0
H119 H 0.22036 0.34964 0.0814 0.0
H120 H 0.24785 0.2824 0.09757 0.0
H121 H 0.46684 0.27385 0.01011 0.0
H122 H 0.52084 0.3726 0.01998 0.0
H123 H 0.32392 0.41781 0.04277 0.0
C124 C 0.20337 0.19892 0.01875 0.0
C125 C 0.21943 0.14532 0.01054 0.0
C126 C 0.28814 0.13946 0.00519 0.0
C127 C 0.33997 0.18578 0.00788 0.0
C128 C 0.32262 0.23783 0.01619 0.0
C129 C 0.25613 0.24479 0.02171 0.0
C130 C 0.25181 0.30528 0.03111 0.0
C131 C 0.21314 0.33615 -0.00218 0.0
C132 C 0.21971 0.30505 0.07377 0.0
C133 C 0.32615 0.33095 0.02998 0.0
C134 C 0.36607 0.29132 0.02112 0.0
C135 C 0.43623 0.30516 0.01754 0.0
C136 C 0.46647 0.36108 0.02336 0.0
C137 C 0.42664 0.40207 0.03319 0.0
C138 C 0.35559 0.38683 0.03616 0.0
H139 H 0.35104 0.854 0.92764 0.0
H140 H 0.26379 0.79149 0.048 0.0
H141 H 0.32671 0.7093 0.05012 0.0
H142 H 0.35411 0.71465 0.89058 0.0
H143 H 0.43351 0.73897 0.86343 0.0
H144 H 0.37649 0.78881 0.87032 0.0
H145 H 0.4717 0.85428 0.90403 0.0
H146 H 0.52878 0.8045 0.89753 0.0
H147 H 0.5137 0.82495 0.94768 0.0
H148 H 0.40776 0.63943 0.04089 0.0
H149 H 0.49437 0.5848 0.01973 0.0
H150 H 0.52889 0.69519 0.90596 0.0
C151 C 0.34477 0.82287 0.95439 0.0
C152 C 0.30306 0.82917 0.98786 0.0
C153 C 0.29521 0.78705 0.02199 0.0
C154 C 0.33096 0.74057 0.02347 0.0
C155 C 0.37351 0.73688 -0.00964 0.0
C156 C 0.37986 0.77667 0.95629 0.0
C157 C 0.43073 0.76483 0.92541 0.0
C158 C 0.39666 0.75097 0.88505 0.0
C159 C 0.4897 0.81513 0.91827 0.0
C160 C 0.45326 0.71258 0.94767 0.0
C161 C 0.41957 0.69693 0.985 0.0
C162 C 0.43378 0.65107 0.01155 0.0
C163 C 0.48331 0.62039 -0.00056 0.0
C164 C 0.51815 0.63558 0.96134 0.0
C165 C 0.50274 0.68234 0.93518 0.0
H166 H 0.86679 0.89625 0.01244 0.0
H167 H 0.02644 0.80045 0.98685 0.0
H168 H 0.94419 0.71051 -0.0049 0.0
H169 H 0.7888 0.79933 0.09089 0.0
H170 H 0.70368 0.80889 0.0785 0.0
H171 H 0.77263 0.86619 0.06479 0.0
H172 H 0.73702 0.86992 0.98901 0.0
H173 H 0.66772 0.81256 0.00252 0.0
H174 H 0.72837 0.80566 0.96339 0.0
H175 H 0.84614 0.6299 0.01242 0.0
H176 H 0.74274 0.56612 0.04032 0.0
H177 H 0.64817 0.71495 0.05496 0.0
C178 C 0.88428 0.85656 0.00761 0.0
C179 C 0.95308 0.85553 -0.00131 0.0
C180 C 0.97397 0.80242 -0.00653 0.0
C181 C 0.92754 0.75109 -0.00203 0.0
C182 C 0.86031 0.75353 0.00757 0.0
C183 C 0.83874 0.805 0.01222 0.0
C184 C 0.76525 0.79568 0.026 0.0
C185 C 0.75717 0.81888 0.0675 0.0
C186 C 0.72205 0.82255 -0.00673 0.0
C187 C 0.74943 0.73085 0.02972 0.0
C188 C 0.80442 0.70725 0.01826 0.0
C189 C 0.80256 0.64798 0.02103 0.0
C190 C 0.74355 0.61205 0.03678 0.0
C191 C 0.68757 0.63555 0.05004 0.0
C192 C 0.69036 0.69571 0.04541 0.0
H193 H 0.77276 0.1414 0.98474 0.0
H194 H 0.96936 0.23871 0.00457 0.0
H195 H 0.9227 0.32923 -0.00922 0.0
H196 H 0.73085 0.23554 0.90094 0.0
H197 H 0.6424 0.22554 0.91489 0.0
H198 H 0.69086 0.16925 0.92878 0.0
H199 H 0.65504 0.16824 0.00485 0.0
H200 H 0.60691 0.22497 -0.0088 0.0
H201 H 0.67121 0.23364 0.0291 0.0
H202 H 0.85298 0.40903 0.97528 0.0
H203 H 0.76972 0.47138 0.95135 0.0
H204 H 0.62148 0.32077 0.93848 0.0
C205 C 0.80571 0.1818 0.98656 0.0
C206 C 0.8744 0.18335 -0.00398 0.0
C207 C 0.9166 0.2369 -0.00279 0.0
C208 C 0.89041 0.28832 -0.01023 0.0
C209 C 0.82215 0.28525 0.98079 0.0
C210 C 0.78066 0.2333 0.97864 0.0
C211 C 0.71026 0.24149 0.9659 0.0
C212 C 0.6926 0.21649 0.92521 0.0
C213 C 0.65777 0.21554 -0.00021 0.0
C214 C 0.71859 0.3062 0.96091 0.0
C215 C 0.78308 0.33081 0.97032 0.0
C216 C 0.80241 0.3902 0.96781 0.0
C217 C 0.75497 0.42521 0.95444 0.0
C218 C 0.68977 0.40047 0.94324 0.0
C219 C 0.67122 0.3404 0.94701 0.0
H220 H 0.57519 0.75248 0.51715 0.0
H221 H 0.73038 0.65192 0.4915 0.0
H222 H 0.81813 0.73548 0.49889 0.0
H223 H 0.65919 0.88792 0.46396 0.0
H224 H 0.63162 0.93019 0.50137 0.0
H225 H 0.58066 0.86334 0.49202 0.0
H226 H 0.58269 0.8271 0.56902 0.0
H227 H 0.63349 0.89377 0.57866 0.0
H228 H 0.66269 0.8269 0.59366 0.0
H229 H 0.88914 0.82816 0.51232 0.0
H230 H 0.93857 0.92296 0.53157 0.0
H231 H 0.73746 0.96406 0.54803 0.0
C232 C 0.62759 0.7481 0.51279 0.0
C233 C 0.6459 0.69562 0.50374 0.0
C234 C 0.71509 0.69166 0.49844 0.0
C235 C 0.76533 0.73893 0.50247 0.0
C236 C 0.74556 0.7899 0.5116 0.0
C237 C 0.67839 0.79484 0.51664 0.0
C238 C 0.6708 0.85389 0.52768 0.0
C239 C 0.63335 0.88571 0.49426 0.0
C240 C 0.63534 0.85016 0.56976 0.0
C241 C 0.74428 0.881 0.52885 0.0
C242 C 0.78655 0.84351 0.51916 0.0
C243 C 0.85655 0.85811 0.51956 0.0
C244 C 0.88414 0.91229 0.53055 0.0
C245 C 0.84164 0.9514 0.54085 0.0
C246 C 0.77093 0.93535 0.53971 0.0
H247 H 0.65177 0.32296 0.46313 0.0
H248 H 0.82822 0.44965 0.47774 0.0
H249 H 0.90056 0.37447 0.47992 0.0
H250 H 0.70948 0.20145 0.52748 0.0
H251 H 0.67443 0.14967 0.49379 0.0
H252 H 0.63539 0.21197 0.4988 0.0
H253 H 0.64635 0.23837 0.42032 0.0
H254 H 0.68597 0.17657 0.41512 0.0
H255 H 0.72823 0.24694 0.39542 0.0
H256 H 0.95508 0.2876 0.47485 0.0
H257 H 0.98796 0.19496 0.46273 0.0
H258 H 0.77718 0.12331 0.44992 0.0
C259 C 0.70534 0.33422 0.46801 0.0
C260 C 0.73455 0.39189 0.4707 0.0
C261 C 0.8051 0.40563 0.47579 0.0
C262 C 0.84648 0.36323 0.47712 0.0
C263 C 0.81666 0.30703 0.47319 0.0
C264 C 0.74767 0.29224 0.46893 0.0
C265 C 0.72945 0.22938 0.46224 0.0
C266 C 0.68453 0.19616 0.4977 0.0
C267 C 0.69551 0.22244 0.42081 0.0
C268 C 0.79896 0.21173 0.46239 0.0
C269 C 0.84845 0.25703 0.46925 0.0
C270 C 0.91671 0.25172 0.46961 0.0
C271 C 0.93495 0.19884 0.46254 0.0
C272 C 0.88516 0.15196 0.4547 0.0
C273 C 0.81631 0.15859 0.45534 0.0
H274 H 0.30156 0.44724 0.53085 0.0
H275 H 0.41862 0.37267 0.44538 0.0
H276 H 0.32869 0.28743 0.44807 0.0
H277 H 0.2516 0.32075 0.59417 0.0
H278 H 0.16928 0.33642 0.60649 0.0
H279 H 0.23784 0.39408 0.59296 0.0
H280 H 0.16663 0.43561 0.53515 0.0
H281 H 0.09786 0.37767 0.54837 0.0
H282 H 0.13206 0.39087 0.49679 0.0
H283 H 0.2281 0.20827 0.46341 0.0
H284 H 0.13488 0.13726 0.49664 0.0
H285 H 0.08849 0.26275 0.5748 0.0
C286 C 0.30775 0.41354 0.51199 0.0
C287 C 0.36651 0.41678 0.48742 0.0
C288 C 0.37369 0.37106 0.46419 0.0
C289 C 0.32271 0.32279 0.46533 0.0
C290 C 0.26537 0.32094 0.49008 0.0
C291 C 0.25818 0.36496 0.51334 0.0
C292 C 0.19591 0.35023 0.54097 0.0
C293 C 0.21482 0.35035 0.58631 0.0
C294 C 0.14511 0.39103 0.52962 0.0
C295 C 0.16974 0.29037 0.53044 0.0
C296 C 0.2094 0.27469 0.50027 0.0
C297 C 0.19646 0.22032 0.48677 0.0
C298 C 0.1432 0.18042 0.50561 0.0
C299 C 0.10457 0.19487 0.53807 0.0
C300 C 0.11704 0.25095 0.54982 0.0
H301 H 0.19773 0.69161 0.51753 0.0
H302 H 0.39716 0.79277 0.51919 0.0
H303 H 0.3467 0.88191 0.51015 0.0
H304 H 0.13809 0.77897 0.43828 0.0
H305 H 0.05278 0.76871 0.45849 0.0
H306 H 0.10448 0.71428 0.4703 0.0
H307 H 0.08343 0.71927 0.54773 0.0
H308 H 0.03256 0.77464 0.53596 0.0
H309 H 0.10398 0.78696 0.5687 0.0
H310 H 0.27415 0.95991 0.49672 0.0
H311 H 0.18925 0.01865 0.47 0.0
H312 H 0.03847 0.86586 0.4749 0.0
C313 C 0.23056 0.73256 0.51684 0.0
C314 C 0.30123 0.73547 0.51957 0.0
C315 C 0.3429 0.78978 0.51717 0.0
C316 C 0.31458 0.84049 0.51248 0.0
C317 C 0.24451 0.8361 0.50998 0.0
C318 C 0.2032 0.78339 0.51156 0.0
C319 C 0.13048 0.79002 0.50356 0.0
C320 C 0.10501 0.76133 0.46539 0.0
C321 C 0.08494 0.76631 0.54124 0.0
C322 C 0.13733 0.85467 0.49629 0.0
C323 C 0.20316 0.88068 0.50111 0.0
C324 C 0.22234 0.94002 0.49344 0.0
C325 C 0.17377 0.97317 0.47869 0.0
C326 C 0.10735 0.9467 0.47131 0.0
C327 C 0.08855 0.88708 0.48146 0.0
H328 H 0.06422 0.05846 0.13183 0.0
H329 H 0.08686 0.88074 0.12732 0.0
H330 H 0.06521 0.8622 0.20233 0.0
H331 H 0.15104 0.07451 0.22681 0.0
H332 H 0.09771 0.1223 0.24365 0.0
H333 H 0.1125 0.11995 0.18982 0.0
H334 H 0.98324 0.0984 0.17964 0.0
H335 H 0.96811 0.09965 0.23362 0.0
H336 H 0.93376 0.03742 0.2089 0.0
H337 H 0.03418 0.86277 0.27686 0.0
H338 H 1.01646 0.88476 0.34734 0.0
H339 H 0.02687 0.06493 0.30325 0.0
C340 C 0.0648 0.0157 0.14677 0.0
C341 C 0.07671 0.9708 0.12419 0.0
C342 C 0.07807 0.91557 0.14445 0.0
C343 C 0.06525 0.90465 0.18681 0.0
C344 C 0.05249 0.94978 0.20818 0.0
C345 C 0.05379 1.00449 0.18897 0.0
C346 C 0.0427 0.04628 0.21914 0.0
C347 C 0.10468 0.09353 0.2199 0.0
C348 C 0.9781 0.07193 0.20975 0.0
C349 C 0.03463 1.0065 0.25844 0.0
C350 C 0.03912 0.95086 0.25136 0.0
C351 C 0.03182 0.90637 0.28286 0.0
C352 C 0.02214 0.91946 0.32286 0.0
C353 C 0.02159 0.97688 0.33123 0.0
C354 C 0.02645 0.02057 0.29822 0.0
H355 H 0.02228 0.09298 0.87154 0.0
H356 H 0.15832 0.9673 0.877 0.0
H357 H 0.16363 0.97452 0.80198 0.0
H358 H 0.92878 0.04561 0.78657 0.0
H359 H 0.92102 0.1164 0.76353 0.0
H360 H 0.92938 0.10352 0.81807 0.0
H361 H 0.03345 0.18408 0.81497 0.0
H362 H 0.02539 0.19727 0.76037 0.0
H363 H 0.1039 0.18137 0.78129 0.0
H364 H 0.14974 0.98982 0.72743 0.0
H365 H 0.11992 0.01631 0.65584 0.0
H366 H 0.9968 0.13462 0.69692 0.0
C367 C 0.05341 0.06729 0.85688 0.0
C368 C 0.08976 0.02955 0.88016 0.0
C369 C 0.1301 0.99667 0.85988 0.0
C370 C 0.13353 1.00039 0.81723 0.0
C371 C 0.09693 0.03761 0.79519 0.0
C372 C 0.05804 0.07088 0.81409 0.0
C373 C 0.02329 0.10695 0.78279 0.0
C374 C 0.94604 0.09221 0.78806 0.0
C375 C 0.048 0.17123 0.78499 0.0
C376 C 0.04763 0.08761 0.74355 0.0
C377 C 0.09019 0.04765 0.75156 0.0
C378 C 0.11714 0.02155 0.72062 0.0
C379 C 0.09999 0.03665 0.68026 0.0
C380 C 0.0568 0.07753 0.67146 0.0
C381 C 0.03058 0.10367 0.70328 0.0
H382 H 0.51758 0.58244 0.63344 0.0
H383 H 0.54018 0.4147 0.59956 0.0
H384 H 0.54819 0.37958 0.67265 0.0
H385 H 0.64026 0.58401 0.71148 0.0
H386 H 0.59583 0.62226 0.74454 0.0
H387 H 0.58584 0.63232 0.69002 0.0
H388 H 0.45614 0.60411 0.70034 0.0
H389 H 0.46585 0.59348 0.75493 0.0
H390 H 0.42191 0.53633 0.72845 0.0
H391 H 0.55184 0.3628 0.74914 0.0
H392 H 0.56634 0.36801 0.82301 0.0
H393 H 0.55437 0.55005 0.8059 0.0
C394 C 0.52355 0.53819 0.64157 0.0
C395 C 0.5276 0.50092 0.61123 0.0
C396 C 0.53694 0.4437 0.62261 0.0
C397 C 0.54106 0.42337 0.66394 0.0
C398 C 0.53686 0.46119 0.69324 0.0
C399 C 0.52947 0.51764 0.68256 0.0
C400 C 0.53203 0.55066 0.71968 0.0
C401 C 0.59207 0.60022 0.71621 0.0
C402 C 0.46498 0.57241 0.72623 0.0
C403 C 0.54224 0.50398 0.75289 0.0
C404 C 0.54353 0.45249 0.73709 0.0
C405 C 0.55178 0.40306 0.76184 0.0
C406 C 0.5606 0.40667 0.80378 0.0
C407 C 0.56276 0.45969 0.8205 0.0
C408 C 0.55236 0.50867 0.79452 0.0
H409 H 0.59419 0.61223 0.36313 0.0
H410 H 0.37743 0.60151 0.37628 0.0
H411 H 0.36799 0.60936 0.3007 0.0
H412 H 0.61569 0.71269 0.26611 0.0
H413 H 0.68071 0.67697 0.24742 0.0
H414 H 0.67035 0.68046 0.30159 0.0
H415 H 0.65844 0.56972 0.3139 0.0
H416 H 0.66786 0.56572 0.25994 0.0
H417 H 0.59431 0.52615 0.28755 0.0
H418 H 0.38159 0.59994 0.22483 0.0
H419 H 0.41801 0.58369 0.15525 0.0
H420 H 0.6261 0.60467 0.19316 0.0
C421 C 0.54496 0.61333 0.35 0.0
C422 C 0.4865 0.60637 0.37516 0.0
C423 C 0.42281 0.6075 0.35725 0.0
C424 C 0.41707 0.61175 0.31446 0.0
C425 C 0.47573 0.61619 0.29042 0.0
C426 C 0.53864 0.61835 0.30767 0.0
C427 C 0.59345 0.61875 0.27588 0.0
C428 C 0.64296 0.67561 0.27255 0.0
C429 C 0.63063 0.56701 0.28486 0.0
C430 C 0.55141 0.61371 0.23815 0.0
C431 C 0.48365 0.61264 0.24689 0.0
C432 C 0.43466 0.6023 0.21744 0.0
C433 C 0.45562 0.59275 0.17819 0.0
C434 C 0.52484 0.59391 0.16893 0.0
C435 C 0.57308 0.60526 0.19919 0.0
loop_
_geom_bond_atom_site_label_1
_geom_bond_atom_site_label_2
_geom_bond_distance
_geom_bond_site_symmetry_2
_ccdc_geom_bond_type
Co0 N5 2.057 . S
Co0 O17 2.021 . S
Co0 O20 2.062 1_455 S
Co0 O24 2.117 1_564 S
Co0 O25 2.020 1_565 S
C1 O21 1.259 1_455 S
C1 O24 1.258 . S
Co2 N11 2.057 . S
Co2 O18 2.117 . S
Co2 O19 2.020 1_545 S
Co2 O21 2.021 1_554 S
Co2 O26 2.062 1_655 S
C3 N5 1.316 . S
C3 N6 1.347 . S
C3 H8 0.931 . S
C4 N5 1.375 1_556 S
C4 C7 1.350 . S
C4 H9 0.930 . S
N5 Co0 2.057 . S
N5 C3 1.316 . S
N5 C4 1.375 1_554 S
N6 C3 1.347 . S
N6 C7 1.373 1_554 S
C7 C4 1.350 . S
C7 N6 1.373 1_556 S
C7 H28 0.931 . S
H8 C3 0.931 . S
H9 C4 0.930 . S
C10 O17 1.259 1_545 S
C10 O18 1.258 1_455 S
N11 Co2 2.057 . S
N11 C12 1.316 1_554 S
N11 C13 1.375 . S
C12 N11 1.316 1_556 S
C12 N14 1.347 1_556 S
C12 H23 0.931 . S
C13 N11 1.375 . S
C13 C15 1.350 . S
C13 H22 0.930 . S
N14 C12 1.347 1_554 S
N14 C15 1.373 . S
C15 C13 1.350 . S
C15 N14 1.373 . S
C15 H29 0.931 . S
C16 O19 1.256 . S
C16 O20 1.255 . S
O17 Co0 2.021 . S
O17 C10 1.259 1_565 S
O18 Co2 2.117 . S
O18 C10 1.258 1_655 S
O19 Co2 2.020 1_565 S
O19 C16 1.256 . S
O20 Co0 2.062 1_655 S
O20 C16 1.255 . S
O21 C1 1.259 1_655 S
O21 Co2 2.021 1_556 S
H22 C13 0.930 . S
H23 C12 0.931 . S
O24 Co0 2.117 1_546 S
O24 C1 1.258 . S
O25 Co0 2.020 1_545 S
O25 C27 1.256 . S
O26 Co2 2.062 1_455 S
O26 C27 1.255 . S
C27 O25 1.256 . S
C27 O26 1.255 . S
H28 C7 0.931 . S
H29 C15 0.931 . S
Co30 N35 2.057 . S
Co30 O47 2.021 . S
Co30 O50 2.062 . S
Co30 O54 2.117 . S
Co30 O55 2.020 . S
C31 O51 1.259 . S
C31 O54 1.258 . S
Co32 N41 2.057 . S
Co32 O48 2.117 . S
Co32 O49 2.020 . S
Co32 O51 2.021 . S
Co32 O56 2.062 . S
C33 N35 1.316 . S
C33 N36 1.347 . S
C33 H38 0.931 . S
C34 N35 1.375 . S
C34 C37 1.350 . S
C34 H39 0.930 . S
N35 Co30 2.057 . S
N35 C33 1.316 . S
N35 C34 1.375 . S
N36 C33 1.347 . S
N36 C37 1.373 . S
C37 C34 1.350 . S
C37 N36 1.373 . S
C37 H58 0.931 . S
H38 C33 0.931 . S
H39 C34 0.930 . S
C40 O47 1.259 . S
C40 O48 1.258 . S
N41 Co32 2.057 . S
N41 C42 1.316 . S
N41 C43 1.375 . S
C42 N41 1.316 . S
C42 N44 1.347 . S
C42 H53 0.931 . S
C43 N41 1.375 . S
C43 C45 1.350 . S
C43 H52 0.930 . S
N44 C42 1.347 . S
N44 C45 1.373 . S
C45 C43 1.350 . S
C45 N44 1.373 . S
C45 H59 0.931 . S
C46 O49 1.256 . S
C46 O50 1.255 . S
O47 Co30 2.021 . S
O47 C40 1.259 . S
O48 Co32 2.117 . S
O48 C40 1.258 . S
O49 Co32 2.020 . S
O49 C46 1.256 . S
O50 Co30 2.062 . S
O50 C46 1.255 . S
O51 C31 1.259 . S
O51 Co32 2.021 . S
H52 C43 0.930 . S
H53 C42 0.931 . S
O54 Co30 2.117 . S
O54 C31 1.258 . S
O55 Co30 2.020 . S
O55 C57 1.256 . S
O56 Co32 2.062 . S
O56 C57 1.255 . S
C57 O55 1.256 . S
C57 O56 1.255 . S
H58 C37 0.931 . S
H59 C45 0.931 . S
H60 C67 0.929 . S
H61 C70 0.930 . S
H62 C72 0.929 . S
H63 C64 0.969 . S
C64 H63 0.969 . S
C64 O65 1.550 . S
C64 H66 0.973 . S
O65 C64 1.550 . S
O65 C71 1.412 . S
H66 C64 0.973 . S
C67 H60 0.929 . S
C67 C68 1.400 . S
C67 C69 1.364 . S
C68 C67 1.400 . S
C68 C72 1.377 . S
C69 C67 1.364 . S
C69 C70 1.374 1_465 S
C70 H61 0.930 . S
C70 C69 1.374 1_645 S
C70 C71 1.383 . S
C71 O65 1.412 . S
C71 C70 1.383 . S
C71 C72 1.394 1_645 S
C72 H62 0.929 . S
C72 C68 1.377 . S
C72 C71 1.394 1_465 S
H73 C80 0.929 . S
H74 C83 0.930 1_565 S
H75 C85 0.929 . S
H76 C77 0.969 . S
C77 H76 0.969 . S
C77 O78 1.550 . S
C77 H79 0.973 . S
O78 C77 1.550 . S
O78 C84 1.412 1_565 S
H79 C77 0.973 . S
C80 H73 0.929 . S
C80 C81 1.400 . S
C80 C82 1.364 . S
C81 C80 1.400 . S
C81 C85 1.377 . S
C82 C80 1.364 . S
C82 C83 1.374 1_455 S
C83 H74 0.930 1_545 S
C83 C82 1.374 1_655 S
C83 C84 1.383 . S
C84 O78 1.412 1_545 S
C84 C83 1.383 . S
C84 C85 1.394 1_655 S
C85 H75 0.929 . S
C85 C81 1.377 . S
C85 C84 1.394 1_455 S
H86 C93 0.929 . S
H87 C96 0.930 . S
H88 C98 0.929 1_554 S
H89 C90 0.969 . S
C90 H89 0.969 . S
C90 O91 1.550 . S
C90 H92 0.973 . S
O91 C90 1.550 . S
O91 C97 1.412 . S
H92 C90 0.973 . S
C93 H86 0.929 . S
C93 C94 1.400 . S
C93 C95 1.364 . S
C94 C93 1.400 . S
C94 C98 1.377 . S
C95 C93 1.364 . S
C95 C96 1.374 . S
C96 H87 0.930 . S
C96 C95 1.374 . S
C96 C97 1.383 . S
C97 O91 1.412 . S
C97 C96 1.383 . S
C97 C98 1.394 . S
C98 H88 0.929 1_556 S
C98 C94 1.377 . S
C98 C97 1.394 . S
H99 C106 0.929 . S
H100 C109 0.930 . S
H101 C111 0.929 . S
H102 C103 0.969 . S
C103 H102 0.969 . S
C103 O104 1.550 . S
C103 H105 0.973 . S
O104 C103 1.550 . S
O104 C110 1.412 . S
H105 C103 0.973 . S
C106 H99 0.929 . S
C106 C107 1.400 . S
C106 C108 1.364 . S
C107 C106 1.400 . S
C107 C111 1.377 . S
C108 C106 1.364 . S
C108 C109 1.374 . S
C109 H100 0.930 . S
C109 C108 1.374 . S
C109 C110 1.383 . S
C110 O104 1.412 . S
C110 C109 1.383 . S
C110 C111 1.394 . S
C111 H101 0.929 . S
C111 C107 1.377 . S
C111 C110 1.394 . S
H112 C124 0.930 . S
H113 C126 0.930 . S
H114 C127 0.930 . S
H115 C131 0.959 . S
H116 C131 0.959 . S
H117 C131 0.961 . S
H118 C132 0.960 . S
H119 C132 0.961 . S
H120 C132 0.959 . S
H121 C135 0.929 . S
H122 C136 0.931 . S
H123 C138 0.930 . S
C124 H112 0.930 . S
C124 C125 1.399 . S
C124 C129 1.399 . S
C125 C124 1.399 . S
C125 C126 1.376 1_554 S
C126 H113 0.930 . S
C126 C125 1.376 1_556 S
C126 C127 1.388 . S
C127 H114 0.930 . S
C127 C126 1.388 . S
C127 C128 1.390 . S
C128 C127 1.390 . S
C128 C129 1.394 1_556 S
C128 C134 1.465 . S
C129 C124 1.399 . S
C129 C128 1.394 1_554 S
C129 C130 1.516 . S
C130 C129 1.516 . S
C130 C131 1.502 . S
C130 C132 1.561 . S
C130 C133 1.526 . S
C131 H115 0.959 . S
C131 H116 0.959 . S
C131 H117 0.961 . S
C131 C130 1.502 . S
C132 H118 0.960 . S
C132 H119 0.961 . S
C132 H120 0.959 . S
C132 C130 1.561 . S
C133 C130 1.526 . S
C133 C134 1.397 1_554 S
C133 C138 1.390 . S
C134 C128 1.465 . S
C134 C133 1.397 1_556 S
C134 C135 1.398 . S
C135 H121 0.929 . S
C135 C134 1.398 . S
C135 C136 1.385 . S
C136 H122 0.931 . S
C136 C135 1.385 . S
C136 C137 1.389 1_556 S
C137 C136 1.389 1_554 S
C137 C138 1.387 . S
C138 H123 0.930 . S
C138 C133 1.390 . S
C138 C137 1.387 . S
H139 C151 0.930 . S
H140 C153 0.930 . S
H141 C154 0.930 . S
H142 C158 0.959 . S
H143 C158 0.959 . S
H144 C158 0.961 . S
H145 C159 0.960 . S
H146 C159 0.961 . S
H147 C159 0.959 . S
H148 C162 0.929 . S
H149 C163 0.931 . S
H150 C165 0.930 . S
C151 H139 0.930 . S
C151 C152 1.399 1_556 S
C151 C156 1.399 . S
C152 C151 1.399 1_554 S
C152 C153 1.376 . S
C153 H140 0.930 . S
C153 C152 1.376 . S
C153 C154 1.388 . S
C154 H141 0.930 . S
C154 C153 1.388 . S
C154 C155 1.390 . S
C155 C154 1.390 . S
C155 C156 1.394 1_554 S
C155 C161 1.465 . S
C156 C151 1.399 . S
C156 C155 1.394 1_556 S
C156 C157 1.516 . S
C157 C156 1.516 . S
C157 C158 1.502 . S
C157 C159 1.561 . S
C157 C160 1.526 . S
C158 H142 0.959 . S
C158 H143 0.959 . S
C158 H144 0.961 . S
C158 C157 1.502 . S
C159 H145 0.960 . S
C159 H146 0.961 . S
C159 H147 0.959 . S
C159 C157 1.561 . S
C160 C157 1.526 . S
C160 C161 1.396 1_556 S
C160 C165 1.390 . S
C161 C155 1.465 . S
C161 C160 1.396 1_554 S
C161 C162 1.399 . S
C162 H148 0.929 . S
C162 C161 1.399 . S
C162 C163 1.385 . S
C163 H149 0.931 . S
C163 C162 1.385 . S
C163 C164 1.389 1_554 S
C164 C163 1.389 1_556 S
C164 C165 1.387 . S
C165 H150 0.930 . S
C165 C160 1.390 . S
C165 C164 1.387 . S
H166 C178 0.930 . S
H167 C180 0.930 . S
H168 C181 0.930 . S
H169 C185 0.959 . S
H170 C185 0.959 . S
H171 C185 0.961 . S
H172 C186 0.960 . S
H173 C186 0.961 . S
H174 C186 0.959 . S
H175 C189 0.929 . S
H176 C190 0.931 . S
H177 C192 0.930 1_556 S
C178 H166 0.930 . S
C178 C179 1.399 1_556 S
C178 C183 1.399 1_556 S
C179 C178 1.399 1_554 S
C179 C180 1.376 . S
C180 H167 0.930 . S
C180 C179 1.376 . S
C180 C181 1.388 . S
C181 H168 0.930 . S
C181 C180 1.388 . S
C181 C182 1.390 . S
C182 C181 1.390 . S
C182 C183 1.394 . S
C182 C188 1.465 . S
C183 C178 1.399 1_554 S
C183 C182 1.394 . S
C183 C184 1.516 1_554 S
C184 C183 1.516 1_556 S
C184 C185 1.502 . S
C184 C186 1.561 . S
C184 C187 1.526 1_556 S
C185 H169 0.959 . S
C185 H170 0.959 . S
C185 H171 0.961 . S
C185 C184 1.502 . S
C186 H172 0.960 . S
C186 H173 0.961 . S
C186 H174 0.959 . S
C186 C184 1.561 . S
C187 C184 1.526 1_554 S
C187 C188 1.396 . S
C187 C192 1.390 . S
C188 C182 1.465 . S
C188 C187 1.396 . S
C188 C189 1.399 . S
C189 H175 0.929 . S
C189 C188 1.399 . S
C189 C190 1.385 . S
C190 H176 0.931 . S
C190 C189 1.385 . S
C190 C191 1.389 . S
C191 C190 1.389 . S
C191 C192 1.387 . S
C192 H177 0.930 1_554 S
C192 C187 1.390 . S
C192 C191 1.387 . S
H193 C205 0.930 . S
H194 C207 0.930 . S
H195 C208 0.930 . S
H196 C212 0.959 . S
H197 C212 0.959 . S
H198 C212 0.961 . S
H199 C213 0.960 . S
H200 C213 0.961 . S
H201 C213 0.959 . S
H202 C216 0.929 . S
H203 C217 0.931 . S
H204 C219 0.930 . S
C205 H193 0.930 . S
C205 C206 1.399 1_554 S
C205 C210 1.399 . S
C206 C205 1.399 1_556 S
C206 C207 1.376 . S
C207 H194 0.930 . S
C207 C206 1.376 . S
C207 C208 1.388 . S
C208 H195 0.930 . S
C208 C207 1.388 . S
C208 C209 1.390 . S
C209 C208 1.390 . S
C209 C210 1.394 1_556 S
C209 C215 1.465 . S
C210 C205 1.399 . S
C210 C209 1.394 1_554 S
C210 C211 1.516 . S
C211 C210 1.516 . S
C211 C212 1.502 . S
C211 C213 1.561 . S
C211 C214 1.539 . S
C212 H196 0.959 . S
C212 H197 0.959 . S
C212 H198 0.961 . S
C212 C211 1.502 . S
C213 H199 0.960 . S
C213 H200 0.961 . S
C213 H201 0.959 . S
C213 C211 1.561 . S
C214 C211 1.539 . S
C214 C215 1.378 1_554 S
C214 C219 1.393 . S
C215 C209 1.465 . S
C215 C214 1.378 1_556 S
C215 C216 1.399 . S
C216 H202 0.929 . S
C216 C215 1.399 . S
C216 C217 1.385 . S
C217 H203 0.931 . S
C217 C216 1.385 . S
C217 C218 1.389 . S
C218 C217 1.389 . S
C218 C219 1.387 1_556 S
C219 H204 0.930 . S
C219 C214 1.393 . S
C219 C218 1.387 1_554 S
H220 C232 0.930 . S
H221 C234 0.930 . S
H222 C235 0.930 . S
H223 C239 0.959 . S
H224 C239 0.959 . S
H225 C239 0.961 . S
H226 C240 0.960 . S
H227 C240 0.961 . S
H228 C240 0.959 . S
H229 C243 0.929 . S
H230 C244 0.931 . S
H231 C246 0.930 . S
C232 H220 0.930 . S
C232 C233 1.399 . S
C232 C237 1.399 . S
C233 C232 1.399 . S
C233 C234 1.376 . S
C234 H221 0.930 . S
C234 C233 1.376 . S
C234 C235 1.388 . S
C235 H222 0.930 . S
C235 C234 1.388 . S
C235 C236 1.390 . S
C236 C235 1.390 . S
C236 C237 1.394 . S
C236 C242 1.465 . S
C237 C232 1.399 . S
C237 C236 1.394 . S
C237 C238 1.516 . S
C238 C237 1.516 . S
C238 C239 1.502 . S
C238 C240 1.561 . S
C238 C241 1.526 . S
C239 H223 0.959 . S
C239 H224 0.959 . S
C239 H225 0.961 . S
C239 C238 1.502 . S
C240 H226 0.960 . S
C240 H227 0.961 . S
C240 H228 0.959 . S
C240 C238 1.561 . S
C241 C238 1.526 . S
C241 C242 1.396 . S
C241 C246 1.390 . S
C242 C236 1.465 . S
C242 C241 1.396 . S
C242 C243 1.399 . S
C243 H229 0.929 . S
C243 C242 1.399 . S
C243 C244 1.385 . S
C244 H230 0.931 . S
C244 C243 1.385 . S
C244 C245 1.389 . S
C245 C244 1.389 . S
C245 C246 1.387 . S
C246 H231 0.930 . S
C246 C241 1.390 . S
C246 C245 1.387 . S
H247 C259 0.930 . S
H248 C261 0.930 . S
H249 C262 0.930 . S
H250 C266 0.959 . S
H251 C266 0.959 . S
H252 C266 0.961 . S
H253 C267 0.960 . S
H254 C267 0.961 . S
H255 C267 0.959 . S
H256 C270 0.929 . S
H257 C271 0.931 . S
H258 C273 0.930 . S
C259 H247 0.930 . S
C259 C260 1.399 . S
C259 C264 1.399 . S
C260 C259 1.399 . S
C260 C261 1.376 . S
C261 H248 0.930 . S
C261 C260 1.376 . S
C261 C262 1.388 . S
C262 H249 0.930 . S
C262 C261 1.388 . S
C262 C263 1.390 . S
C263 C262 1.390 . S
C263 C264 1.394 . S
C263 C269 1.465 . S
C264 C259 1.399 . S
C264 C263 1.394 . S
C264 C265 1.516 . S
C265 C264 1.516 . S
C265 C266 1.502 . S
C265 C267 1.561 . S
C265 C268 1.526 . S
C266 H250 0.959 . S
C266 H251 0.959 . S
C266 H252 0.961 . S
C266 C265 1.502 . S
C267 H253 0.960 . S
C267 H254 0.961 . S
C267 H255 0.959 . S
C267 C265 1.561 . S
C268 C265 1.526 . S
C268 C269 1.396 . S
C268 C273 1.390 . S
C269 C263 1.465 . S
C269 C268 1.396 . S
C269 C270 1.399 . S
C270 H256 0.929 . S
C270 C269 1.399 . S
C270 C271 1.385 . S
C271 H257 0.931 . S
C271 C270 1.385 . S
C271 C272 1.389 . S
C272 C271 1.389 . S
C272 C273 1.387 . S
C273 H258 0.930 . S
C273 C268 1.390 . S
C273 C272 1.387 . S
H274 C286 0.930 . S
H275 C288 0.930 . S
H276 C289 0.930 . S
H277 C293 0.959 . S
H278 C293 0.959 . S
H279 C293 0.961 . S
H280 C294 0.960 . S
H281 C294 0.961 . S
H282 C294 0.959 . S
H283 C297 0.929 . S
H284 C298 0.931 . S
H285 C300 0.930 . S
C286 H274 0.930 . S
C286 C287 1.399 . S
C286 C291 1.399 . S
C287 C286 1.399 . S
C287 C288 1.376 . S
C288 H275 0.930 . S
C288 C287 1.376 . S
C288 C289 1.388 . S
C289 H276 0.930 . S
C289 C288 1.388 . S
C289 C290 1.390 . S
C290 C289 1.390 . S
C290 C291 1.394 . S
C290 C296 1.465 . S
C291 C286 1.399 . S
C291 C290 1.394 . S
C291 C292 1.516 . S
C292 C291 1.516 . S
C292 C293 1.502 . S
C292 C294 1.561 . S
C292 C295 1.526 . S
C293 H277 0.959 . S
C293 H278 0.959 . S
C293 H279 0.961 . S
C293 C292 1.502 . S
C294 H280 0.960 . S
C294 H281 0.961 . S
C294 H282 0.959 . S
C294 C292 1.561 . S
C295 C292 1.526 . S
C295 C296 1.396 . S
C295 C300 1.390 . S
C296 C290 1.465 . S
C296 C295 1.396 . S
C296 C297 1.399 . S
C297 H283 0.929 . S
C297 C296 1.399 . S
C297 C298 1.385 . S
C298 H284 0.931 . S
C298 C297 1.385 . S
C298 C299 1.389 . S
C299 C298 1.389 . S
C299 C300 1.387 . S
C300 H285 0.930 . S
C300 C295 1.390 . S
C300 C299 1.387 . S
H301 C313 0.930 . S
H302 C315 0.930 . S
H303 C316 0.930 . S
H304 C320 0.959 . S
H305 C320 0.959 . S
H306 C320 0.961 . S
H307 C321 0.960 . S
H308 C321 0.961 . S
H309 C321 0.959 . S
H310 C324 0.929 . S
H311 C325 0.931 . S
H312 C327 0.930 . S
C313 H301 0.930 . S
C313 C314 1.399 . S
C313 C318 1.399 . S
C314 C313 1.399 . S
C314 C315 1.376 . S
C315 H302 0.930 . S
C315 C314 1.376 . S
C315 C316 1.388 . S
C316 H303 0.930 . S
C316 C315 1.388 . S
C316 C317 1.390 . S
C317 C316 1.390 . S
C317 C318 1.394 . S
C317 C323 1.465 . S
C318 C313 1.399 . S
C318 C317 1.394 . S
C318 C319 1.516 . S
C319 C318 1.516 . S
C319 C320 1.502 . S
C319 C321 1.561 . S
C319 C322 1.526 . S
C320 H304 0.959 . S
C320 H305 0.959 . S
C320 H306 0.961 . S
C320 C319 1.502 . S
C321 H307 0.960 . S
C321 H308 0.961 . S
C321 H309 0.959 . S
C321 C319 1.561 . S
C322 C319 1.526 . S
C322 C323 1.396 . S
C322 C327 1.390 . S
C323 C317 1.465 . S
C323 C322 1.396 . S
C323 C324 1.399 . S
C324 H310 0.929 . S
C324 C323 1.399 . S
C324 C325 1.385 . S
C325 H311 0.931 . S
C325 C324 1.385 . S
C325 C326 1.389 . S
C326 C325 1.389 . S
C326 C327 1.387 . S
C327 H312 0.930 . S
C327 C322 1.390 . S
C327 C326 1.387 . S
H328 C340 0.930 . S
H329 C342 0.930 . S
H330 C343 0.930 . S
H331 C347 0.959 . S
H332 C347 0.959 . S
H333 C347 0.961 . S
H334 C348 0.960 . S
H335 C348 0.961 . S
H336 C348 0.959 . S
H337 C351 0.929 . S
H338 C352 0.931 . S
H339 C354 0.930 . S
C340 H328 0.930 . S
C340 C341 1.399 . S
C340 C345 1.399 . S
C341 C340 1.399 . S
C341 C342 1.376 1_445 S
C342 H329 0.930 . S
C342 C341 1.376 1_665 S
C342 C343 1.388 . S
C343 H330 0.930 . S
C343 C342 1.388 . S
C343 C344 1.390 . S
C344 C343 1.390 . S
C344 C345 1.394 1_665 S
C344 C350 1.465 . S
C345 C340 1.399 . S
C345 C344 1.394 1_445 S
C345 C346 1.516 . S
C346 C345 1.516 . S
C346 C347 1.502 . S
C346 C348 1.561 . S
C346 C349 1.526 . S
C347 H331 0.959 . S
C347 H332 0.959 . S
C347 H333 0.961 . S
C347 C346 1.502 . S
C348 H334 0.960 . S
C348 H335 0.961 . S
C348 H336 0.959 . S
C348 C346 1.561 . S
C349 C346 1.526 . S
C349 C350 1.396 1_445 S
C349 C354 1.390 . S
C350 C344 1.465 . S
C350 C349 1.396 1_665 S
C350 C351 1.399 . S
C351 H337 0.929 . S
C351 C350 1.399 . S
C351 C352 1.385 . S
C352 H338 0.931 . S
C352 C351 1.385 . S
C352 C353 1.389 1_655 S
C353 C352 1.389 1_455 S
C353 C354 1.387 1_565 S
C354 H339 0.930 . S
C354 C349 1.390 . S
C354 C353 1.387 1_545 S
H355 C367 0.933 . S
H356 C369 0.930 . S
H357 C370 0.930 . S
H358 C374 0.959 . S
H359 C374 0.959 . S
H360 C374 0.961 . S
H361 C375 0.960 . S
H362 C375 0.961 . S
H363 C375 0.959 . S
H364 C378 0.929 . S
H365 C379 0.931 . S
H366 C381 0.927 1_655 S
C367 H355 0.933 . S
C367 C368 1.399 . S
C367 C372 1.399 . S
C368 C367 1.399 . S
C368 C369 1.376 1_545 S
C369 H356 0.930 . S
C369 C368 1.376 1_565 S
C369 C370 1.388 . S
C370 H357 0.930 . S
C370 C369 1.388 . S
C370 C371 1.390 1_565 S
C371 C370 1.390 1_545 S
C371 C372 1.394 . S
C371 C377 1.465 . S
C372 C367 1.399 . S
C372 C371 1.394 . S
C372 C373 1.516 . S
C373 C372 1.516 . S
C373 C374 1.502 1_455 S
C373 C375 1.561 . S
C373 C376 1.526 . S
C374 H358 0.959 . S
C374 H359 0.959 . S
C374 H360 0.961 . S
C374 C373 1.502 1_655 S
C375 H361 0.960 . S
C375 H362 0.961 . S
C375 H363 0.959 . S
C375 C373 1.561 . S
C376 C373 1.526 . S
C376 C377 1.396 . S
C376 C381 1.390 . S
C377 C371 1.465 . S
C377 C376 1.396 . S
C377 C378 1.399 1_545 S
C378 H364 0.929 . S
C378 C377 1.399 1_565 S
C378 C379 1.385 . S
C379 H365 0.931 . S
C379 C378 1.385 . S
C379 C380 1.389 1_565 S
C380 C379 1.389 1_545 S
C380 C381 1.387 . S
C381 H366 0.927 1_455 S
C381 C376 1.390 . S
C381 C380 1.387 . S
H382 C394 0.930 . S
H383 C396 0.930 . S
H384 C397 0.930 . S
H385 C401 0.959 . S
H386 C401 0.959 . S
H387 C401 0.961 . S
H388 C402 0.960 . S
H389 C402 0.961 . S
H390 C402 0.959 . S
H391 C405 0.929 . S
H392 C406 0.931 . S
H393 C408 0.930 . S
C394 H382 0.930 . S
C394 C395 1.399 . S
C394 C399 1.399 . S
C395 C394 1.399 . S
C395 C396 1.376 . S
C396 H383 0.930 . S
C396 C395 1.376 . S
C396 C397 1.388 . S
C397 H384 0.930 . S
C397 C396 1.388 . S
C397 C398 1.390 . S
C398 C397 1.390 . S
C398 C399 1.394 . S
C398 C404 1.465 . S
C399 C394 1.399 . S
C399 C398 1.394 . S
C399 C400 1.516 . S
C400 C399 1.516 . S
C400 C401 1.502 . S
C400 C402 1.561 . S
C400 C403 1.526 . S
C401 H385 0.959 . S
C401 H386 0.959 . S
C401 H387 0.961 . S
C401 C400 1.502 . S
C402 H388 0.960 . S
C402 H389 0.961 . S
C402 H390 0.959 . S
C402 C400 1.561 . S
C403 C400 1.526 . S
C403 C404 1.396 . S
C403 C408 1.390 . S
C404 C398 1.465 . S
C404 C403 1.396 . S
C404 C405 1.399 . S
C405 H391 0.929 . S
C405 C404 1.399 . S
C405 C406 1.385 . S
C406 H392 0.931 . S
C406 C405 1.385 . S
C406 C407 1.389 . S
C407 C406 1.389 . S
C407 C408 1.387 . S
C408 H393 0.930 . S
C408 C403 1.390 . S
C408 C407 1.387 . S
H409 C421 0.930 . S
H410 C423 0.930 . S
H411 C424 0.930 . S
H412 C428 0.959 . S
H413 C428 0.959 . S
H414 C428 0.961 . S
H415 C429 0.960 . S
H416 C429 0.961 . S
H417 C429 0.959 . S
H418 C432 0.929 . S
H419 C433 0.931 . S
H420 C435 0.930 . S
C421 H409 0.930 . S
C421 C422 1.399 . S
C421 C426 1.399 . S
C422 C421 1.399 . S
C422 C423 1.376 . S
C423 H410 0.930 . S
C423 C422 1.376 . S
C423 C424 1.388 . S
C424 H411 0.930 . S
C424 C423 1.388 . S
C424 C425 1.390 . S
C425 C424 1.390 . S
C425 C426 1.394 . S
C425 C431 1.465 . S
C426 C421 1.399 . S
C426 C425 1.394 . S
C426 C427 1.516 . S
C427 C426 1.516 . S
C427 C428 1.502 . S
C427 C429 1.561 . S
C427 C430 1.526 . S
C428 H412 0.959 . S
C428 H413 0.959 . S
C428 H414 0.961 . S
C428 C427 1.502 . S
C429 H415 0.960 . S
C429 H416 0.961 . S
C429 H417 0.959 . S
C429 C427 1.561 . S
C430 C427 1.526 . S
C430 C431 1.396 . S
C430 C435 1.390 . S
C431 C425 1.465 . S
C431 C430 1.396 . S
C431 C432 1.399 . S
C432 H418 0.929 . S
C432 C431 1.399 . S
C432 C433 1.385 . S
C433 H419 0.931 . S
C433 C432 1.385 . S
C433 C434 1.389 . S
C434 C433 1.389 . S
C434 C435 1.387 . S
C435 H420 0.930 . S
C435 C430 1.390 . S
C435 C434 1.387 . S
C137 C103 1.364 . S
C125 C27 1.437 . S
C152 N6 1.381 . S
C164 C90 1.362 . S
C179 C16 1.481 . S
C191 C107 1.439 . S
C206 N14 1.460 1_556 S
C218 C94 1.416 . S
C233 C57 1.419 . S
C245 C77 1.247 . S
C260 N36 1.326 . S
C272 C64 1.297 . S
C299 C81 1.448 . S
C287 C46 1.486 . S
C326 C68 1.415 . S
C314 N44 1.458 . S
C341 C10 1.474 . S
C353 C69 1.468 . S
C368 C1 1.553 . S
C380 C82 1.549 . S
C407 C95 1.463 . S
C395 C40 1.472 . S
C422 C31 1.543 . S
C434 C108 1.555 . S
