# Generated by pormake.
# Topology ctn, (3,4)-cn, num edge types: 1
# Building blocks:
#     Node 0, Type 0, BuildingBlock: KAKCAD_clean_linker_0, # of connection points: 3
#     Node 1, Type 0, BuildingBlock: KAKCAD_clean_linker_0, # of connection points: 3
#     Node 2, Type 0, BuildingBlock: KAKCAD_clean_linker_0, # of connection points: 3
#     Node 3, Type 0, BuildingBlock: KAKCAD_clean_linker_0, # of connection points: 3
#     Node 4, Type 0, BuildingBlock: KAKCAD_clean_linker_0, # of connection points: 3
#     Node 5, Type 0, BuildingBlock: KAKCAD_clean_linker_0, # of connection points: 3
#     Node 6, Type 0, BuildingBlock: KAKCAD_clean_linker_0, # of connection points: 3
#     Node 7, Type 0, BuildingBlock: KAKCAD_clean_linker_0, # of connection points: 3
#     Node 8, Type 0, BuildingBlock: KAKCAD_clean_linker_0, # of connection points: 3
#     Node 9, Type 0, BuildingBlock: KAKCAD_clean_linker_0, # of connection points: 3
#     Node 10, Type 0, BuildingBlock: KAKCAD_clean_linker_0, # of connection points: 3
#     Node 11, Type 0, BuildingBlock: KAKCAD_clean_linker_0, # of connection points: 3
#     Node 12, Type 0, BuildingBlock: KAKCAD_clean_linker_0, # of connection points: 3
#     Node 13, Type 0, BuildingBlock: KAKCAD_clean_linker_0, # of connection points: 3
#     Node 14, Type 0, BuildingBlock: KAKCAD_clean_linker_0, # of connection points: 3
#     Node 15, Type 0, BuildingBlock: KAKCAD_clean_linker_0, # of connection points: 3
#     Node 16, Type 1, BuildingBlock: QUQFOY_clean_sbu_1, # of connection points: 4
#     Node 17, Type 1, BuildingBlock: QUQFOY_clean_sbu_1, # of connection points: 4
#     Node 18, Type 1, BuildingBlock: QUQFOY_clean_sbu_1, # of connection points: 4
#     Node 19, Type 1, BuildingBlock: QUQFOY_clean_sbu_1, # of connection points: 4
#     Node 20, Type 1, BuildingBlock: QUQFOY_clean_sbu_1, # of connection points: 4
#     Node 21, Type 1, BuildingBlock: QUQFOY_clean_sbu_1, # of connection points: 4
#     Node 22, Type 1, BuildingBlock: QUQFOY_clean_sbu_1, # of connection points: 4
#     Node 23, Type 1, BuildingBlock: QUQFOY_clean_sbu_1, # of connection points: 4
#     Node 24, Type 1, BuildingBlock: QUQFOY_clean_sbu_1, # of connection points: 4
#     Node 25, Type 1, BuildingBlock: QUQFOY_clean_sbu_1, # of connection points: 4
#     Node 26, Type 1, BuildingBlock: QUQFOY_clean_sbu_1, # of connection points: 4
#     Node 27, Type 1, BuildingBlock: QUQFOY_clean_sbu_1, # of connection points: 4
#     Edge 28, Type (0, 1), BuildingBlock: XIVTED_clean_linker_0, # of connection points: 2
#     Edge 29, Type (0, 1), BuildingBlock: XIVTED_clean_linker_0, # of connection points: 2
#     Edge 30, Type (0, 1), BuildingBlock: XIVTED_clean_linker_0, # of connection points: 2
#     Edge 31, Type (0, 1), BuildingBlock: XIVTED_clean_linker_0, # of connection points: 2
#     Edge 32, Type (0, 1), BuildingBlock: XIVTED_clean_linker_0, # of connection points: 2
#     Edge 33, Type (0, 1), BuildingBlock: XIVTED_clean_linker_0, # of connection points: 2
#     Edge 34, Type (0, 1), BuildingBlock: XIVTED_clean_linker_0, # of connection points: 2
#     Edge 35, Type (0, 1), BuildingBlock: XIVTED_clean_linker_0, # of connection points: 2
#     Edge 36, Type (0, 1), BuildingBlock: XIVTED_clean_linker_0, # of connection points: 2
#     Edge 37, Type (0, 1), BuildingBlock: XIVTED_clean_linker_0, # of connection points: 2
#     Edge 38, Type (0, 1), BuildingBlock: XIVTED_clean_linker_0, # of connection points: 2
#     Edge 39, Type (0, 1), BuildingBlock: XIVTED_clean_linker_0, # of connection points: 2
#     Edge 40, Type (0, 1), BuildingBlock: XIVTED_clean_linker_0, # of connection points: 2
#     Edge 41, Type (0, 1), BuildingBlock: XIVTED_clean_linker_0, # of connection points: 2
#     Edge 42, Type (0, 1), BuildingBlock: XIVTED_clean_linker_0, # of connection points: 2
#     Edge 43, Type (0, 1), BuildingBlock: XIVTED_clean_linker_0, # of connection points: 2
#     Edge 44, Type (0, 1), BuildingBlock: XIVTED_clean_linker_0, # of connection points: 2
#     Edge 45, Type (0, 1), BuildingBlock: XIVTED_clean_linker_0, # of connection points: 2
#     Edge 46, Type (0, 1), BuildingBlock: XIVTED_clean_linker_0, # of connection points: 2
#     Edge 47, Type (0, 1), BuildingBlock: XIVTED_clean_linker_0, # of connection points: 2
#     Edge 48, Type (0, 1), BuildingBlock: XIVTED_clean_linker_0, # of connection points: 2
#     Edge 49, Type (0, 1), BuildingBlock: XIVTED_clean_linker_0, # of connection points: 2
#     Edge 50, Type (0, 1), BuildingBlock: XIVTED_clean_linker_0, # of connection points: 2
#     Edge 51, Type (0, 1), BuildingBlock: XIVTED_clean_linker_0, # of connection points: 2
#     Edge 52, Type (0, 1), BuildingBlock: XIVTED_clean_linker_0, # of connection points: 2
#     Edge 53, Type (0, 1), BuildingBlock: XIVTED_clean_linker_0, # of connection points: 2
#     Edge 54, Type (0, 1), BuildingBlock: XIVTED_clean_linker_0, # of connection points: 2
#     Edge 55, Type (0, 1), BuildingBlock: XIVTED_clean_linker_0, # of connection points: 2
#     Edge 56, Type (0, 1), BuildingBlock: XIVTED_clean_linker_0, # of connection points: 2
#     Edge 57, Type (0, 1), BuildingBlock: XIVTED_clean_linker_0, # of connection points: 2
#     Edge 58, Type (0, 1), BuildingBlock: XIVTED_clean_linker_0, # of connection points: 2
#     Edge 59, Type (0, 1), BuildingBlock: XIVTED_clean_linker_0, # of connection points: 2
#     Edge 60, Type (0, 1), BuildingBlock: XIVTED_clean_linker_0, # of connection points: 2
#     Edge 61, Type (0, 1), BuildingBlock: XIVTED_clean_linker_0, # of connection points: 2
#     Edge 62, Type (0, 1), BuildingBlock: XIVTED_clean_linker_0, # of connection points: 2
#     Edge 63, Type (0, 1), BuildingBlock: XIVTED_clean_linker_0, # of connection points: 2
#     Edge 64, Type (0, 1), BuildingBlock: XIVTED_clean_linker_0, # of connection points: 2
#     Edge 65, Type (0, 1), BuildingBlock: XIVTED_clean_linker_0, # of connection points: 2
#     Edge 66, Type (0, 1), BuildingBlock: XIVTED_clean_linker_0, # of connection points: 2
#     Edge 67, Type (0, 1), BuildingBlock: XIVTED_clean_linker_0, # of connection points: 2
#     Edge 68, Type (0, 1), BuildingBlock: XIVTED_clean_linker_0, # of connection points: 2
#     Edge 69, Type (0, 1), BuildingBlock: XIVTED_clean_linker_0, # of connection points: 2
#     Edge 70, Type (0, 1), BuildingBlock: XIVTED_clean_linker_0, # of connection points: 2
#     Edge 71, Type (0, 1), BuildingBlock: XIVTED_clean_linker_0, # of connection points: 2
#     Edge 72, Type (0, 1), BuildingBlock: XIVTED_clean_linker_0, # of connection points: 2
#     Edge 73, Type (0, 1), BuildingBlock: XIVTED_clean_linker_0, # of connection points: 2
#     Edge 74, Type (0, 1), BuildingBlock: XIVTED_clean_linker_0, # of connection points: 2
#     Edge 75, Type (0, 1), BuildingBlock: XIVTED_clean_linker_0, # of connection points: 2
# Relax obj value: 0.036
# Max RMSD: 0.144
# Mean RMSD: 0.065
data_MOF--net-ctn--node1-QUQFOY_clean_sbu_1--node2-KAKCAD_clean_linker_0--edge1-XIVTED_clean_linker_0
_symmetry_space_group_name_H-M    P1
_symmetry_Int_Tables_number       1
_symmetry_cell_setting            triclinic
loop_
_symmetry_equiv_pos_as_xyz
'x, y, z'
_cell_length_a     67.82138
_cell_length_b     67.747312
_cell_length_c     67.845803
_cell_angle_alpha  92.917383
_cell_angle_beta   90.44315
_cell_angle_gamma 94.673702
loop_
_atom_site_label
_atom_site_type_symbol
_atom_site_fract_x
_atom_site_fract_y
_atom_site_fract_z
_atom_type_partial_charge
C0 C 0.02109 0.10658 0.97483 0.0
C1 C 0.02139 0.12613 0.98283 0.0
C2 C 0.0237 0.09097 0.98702 0.0
C3 C 0.02637 0.09459 0.00748 0.0
C4 C 0.02679 0.11416 0.01548 0.0
C5 C 0.02448 0.12982 0.00324 0.0
C6 C 0.02824 0.0779 0.02046 0.0
C7 C 0.04126 0.06335 0.01561 0.0
C8 C 0.04276 0.04722 0.02757 0.0
C9 C 0.03081 0.04555 0.04427 0.0
C10 C 0.01741 0.05973 0.0491 0.0
C11 C 0.01646 0.0761 0.03734 0.0
C12 C 0.00383 0.05675 0.0659 0.0
C13 C 0.99402 0.03798 0.06826 0.0
C14 C 0.0009 0.07228 0.07983 0.0
C15 C 0.989 0.06882 0.09629 0.0
C16 C 0.9798 0.0498 0.099 0.0
C17 C 0.05636 0.03175 0.02245 0.0
C18 C 0.05675 0.02331 0.00314 0.0
C19 C 0.0686 0.02491 0.03698 0.0
C20 C 0.08103 0.00993 0.03229 0.0
C21 C 0.08136 0.00133 0.013 0.0
C22 C 0.06903 0.0082 -0.00151 0.0
C23 C 0.98213 0.03455 0.08458 0.0
H24 H 0.01883 0.10337 0.95913 0.0
H25 H 0.02319 0.07599 0.98051 0.0
H26 H 0.02892 0.11733 0.0312 0.0
H27 H 0.02462 0.14475 0.00979 0.0
H28 H 0.05047 0.06475 0.00268 0.0
H29 H 0.00594 0.08695 0.0408 0.0
H30 H 0.0317 0.03295 0.05337 0.0
H31 H 0.99562 0.02586 0.0575 0.0
H32 H 0.00832 0.08689 0.07835 0.0
H33 H 0.98755 0.08084 0.10719 0.0
H34 H 0.04724 0.02811 0.99173 0.0
H35 H 0.06872 0.0313 0.05195 0.0
H36 H 0.97485 0.01986 0.08598 0.0
H37 H 0.06862 0.00172 0.98356 0.0
H38 H 0.09058 0.00531 0.04376 0.0
C39 C 0.3398 0.78182 0.25068 0.0
C40 C 0.34893 0.76603 0.25868 0.0
C41 C 0.32153 0.77849 0.24085 0.0
C42 C 0.31205 0.75925 0.23852 0.0
C43 C 0.32158 0.74339 0.24581 0.0
C44 C 0.33961 0.74676 0.25593 0.0
C45 C 0.29206 0.75567 0.22911 0.0
C46 C 0.28665 0.76649 0.21307 0.0
C47 C 0.26775 0.76302 0.20421 0.0
C48 C 0.25434 0.74819 0.21137 0.0
C49 C 0.25967 0.73696 0.2271 0.0
C50 C 0.2783 0.74115 0.23614 0.0
C51 C 0.24622 0.72032 0.23382 0.0
C52 C 0.2259 0.72226 0.23637 0.0
C53 C 0.25387 0.7023 0.23795 0.0
C54 C 0.24164 0.68674 0.24496 0.0
C55 C 0.22143 0.68877 0.24799 0.0
C56 C 0.26235 0.77446 0.18709 0.0
C57 C 0.26868 0.7947 0.18636 0.0
C58 C 0.2513 0.76512 0.17108 0.0
C59 C 0.24705 0.77567 0.15461 0.0
C60 C 0.25394 0.79571 0.15368 0.0
C61 C 0.26463 0.80518 0.16979 0.0
C62 C 0.21361 0.7066 0.2434 0.0
H63 H 0.34665 0.79683 0.25212 0.0
H64 H 0.31464 0.7911 0.23553 0.0
H65 H 0.31502 0.72829 0.2439 0.0
H66 H 0.3459 0.73419 0.26205 0.0
H67 H 0.29739 0.77722 0.20707 0.0
H68 H 0.28201 0.7331 0.24887 0.0
H69 H 0.23984 0.74516 0.20456 0.0
H70 H 0.21962 0.73601 0.2334 0.0
H71 H 0.26937 0.70018 0.23568 0.0
H72 H 0.24803 0.67303 0.24792 0.0
H73 H 0.27686 0.80248 0.19857 0.0
H74 H 0.24644 0.74949 0.17096 0.0
H75 H 0.1981 0.70863 0.24569 0.0
H76 H 0.26993 0.82068 0.16953 0.0
H77 H 0.239 0.76795 0.14228 0.0
C78 C 0.97073 0.48672 0.15826 0.0
C79 C 0.99072 0.48256 0.15794 0.0
C80 C 0.95876 0.48302 0.14142 0.0
C81 C 0.96647 0.47495 0.12392 0.0
C82 C 0.98621 0.47004 0.1238 0.0
C83 C -0.00178 0.47382 0.14062 0.0
C84 C 0.95434 0.47272 0.10553 0.0
C85 C 0.94331 0.48825 0.09995 0.0
C86 C 0.93281 0.48694 0.08195 0.0
C87 C 0.9334 0.46974 0.06954 0.0
C88 C 0.94435 0.45401 0.07483 0.0
C89 C 0.95461 0.4556 0.09301 0.0
C90 C 0.9459 0.43651 0.06086 0.0
C91 C 0.92982 0.4293 0.04853 0.0
C92 C 0.96386 0.42755 0.05893 0.0
C93 C 0.96585 0.41223 0.04469 0.0
C94 C 0.95005 0.40577 0.03186 0.0
C95 C 0.92182 0.50379 0.07576 0.0
C96 C 0.91105 0.51472 0.08949 0.0
C97 C 0.92201 0.50907 0.05598 0.0
C98 C 0.91145 0.52461 0.05002 0.0
C99 C 0.90058 0.5355 0.0637 0.0
C100 C 0.9006 0.53042 0.08355 0.0
C101 C 0.93196 0.41426 0.03404 0.0
H102 H 0.96437 0.49308 0.17148 0.0
H103 H 0.94351 0.48666 0.14203 0.0
H104 H 0.99262 0.464 0.11046 0.0
H105 H 0.01359 0.47065 0.13978 0.0
H106 H 0.94363 0.50175 0.10927 0.0
H107 H 0.96283 0.44349 0.0975 0.0
H108 H 0.92558 0.46879 0.05551 0.0
H109 H 0.91562 0.43545 0.04987 0.0
H110 H 0.97668 0.43286 0.06787 0.0
H111 H 0.98001 0.40602 0.04313 0.0
H112 H 0.91045 0.51098 0.10482 0.0
H113 H 0.93042 0.50124 0.04504 0.0
H114 H 0.91952 0.40935 0.02439 0.0
H115 H 0.8926 0.5386 0.09456 0.0
H116 H 0.91157 0.52783 0.03455 0.0
C117 C 0.71371 0.72714 0.18509 0.0
C118 C 0.73267 0.72371 0.17812 0.0
C119 C 0.71143 0.73848 0.20257 0.0
C120 C 0.72806 0.74654 0.2136 0.0
C121 C 0.747 0.74238 0.20709 0.0
C122 C 0.74928 0.73115 0.18953 0.0
C123 C 0.72573 0.76019 0.23115 0.0
C124 C 0.70994 0.75683 0.24417 0.0
C125 C 0.70699 0.77047 0.25994 0.0
C126 C 0.72036 0.78729 0.26302 0.0
C127 C 0.736 0.7912 0.24993 0.0
C128 C 0.73854 0.77749 0.23407 0.0
C129 C 0.74873 0.81022 0.2519 0.0
C130 C 0.74074 0.82792 0.25838 0.0
C131 C 0.76878 0.81104 0.24658 0.0
C132 C 0.78035 0.8291 0.24725 0.0
C133 C 0.77231 0.84681 0.25364 0.0
C134 C 0.68874 0.76852 0.27181 0.0
C135 C 0.67024 0.7651 0.26226 0.0
C136 C 0.68948 0.77212 0.29241 0.0
C137 C 0.67202 0.77312 0.30312 0.0
C138 C 0.65357 0.77079 0.29336 0.0
C139 C 0.65283 0.76632 0.27292 0.0
C140 C 0.75241 0.84589 0.25945 0.0
H141 H 0.70058 0.72135 0.17685 0.0
H142 H 0.69663 0.74151 0.20702 0.0
H143 H 0.76011 0.74812 0.21539 0.0
H144 H 0.76411 0.72893 0.18456 0.0
H145 H 0.69974 0.74371 0.24196 0.0
H146 H 0.74992 0.78077 0.22333 0.0
H147 H 0.71804 0.79777 0.27521 0.0
H148 H 0.7253 0.82806 0.26228 0.0
H149 H 0.77558 0.79773 0.24178 0.0
H150 H 0.79551 0.82914 0.24237 0.0
H151 H 0.66922 0.76249 0.24638 0.0
H152 H 0.70356 0.77472 0.30013 0.0
H153 H 0.74572 0.85906 0.26485 0.0
H154 H 0.63877 0.76429 0.26508 0.0
H155 H 0.67298 0.77665 0.31887 0.0
C156 C -0.00077 0.97418 0.41132 0.0
C157 C 0.00604 0.9808 0.39309 0.0
C158 C 0.01253 0.96885 0.42556 0.0
C159 C 0.03295 0.96994 0.42187 0.0
C160 C 0.03974 0.97625 0.40352 0.0
C161 C 0.02645 0.98166 0.38933 0.0
C162 C 0.04717 0.96548 0.43749 0.0
C163 C 0.04272 0.94981 0.44996 0.0
C164 C 0.05523 0.94673 0.46595 0.0
C165 C 0.07268 0.95922 0.46897 0.0
C166 C 0.07751 0.97475 0.4565 0.0
C167 C 0.06471 0.97775 0.44079 0.0
C168 C 0.09516 0.98875 0.46071 0.0
C169 C 0.09942 0.9962 0.48011 0.0
C170 C 0.10746 0.99528 0.44537 0.0
C171 C 0.12355 0.00919 0.44932 0.0
C172 C 0.12756 0.01691 0.46869 0.0
C173 C 0.04939 0.93165 0.48048 0.0
C174 C 0.02957 0.92863 0.48627 0.0
C175 C 0.06368 0.9212 0.48971 0.0
C176 C 0.05842 0.90876 0.50497 0.0
C177 C 0.03869 0.90633 0.51122 0.0
C178 C 0.02427 0.91603 0.50132 0.0
C179 C 0.11544 0.01012 0.48405 0.0
H180 H 0.98359 0.97305 0.41461 0.0
H181 H 0.00681 0.96431 0.43963 0.0
H182 H 0.05536 0.9771 0.40014 0.0
H183 H 0.03225 0.98687 0.37552 0.0
H184 H 0.02938 0.94008 0.44727 0.0
H185 H 0.06793 0.99033 0.43175 0.0
H186 H 0.0823 0.95728 0.48143 0.0
H187 H 0.09009 0.99163 0.49222 0.0
H188 H 0.10458 0.98968 0.43029 0.0
H189 H 0.13255 0.01425 0.43717 0.0
H190 H 0.01815 0.93654 0.47968 0.0
H191 H 0.07904 0.92289 0.4854 0.0
H192 H 0.11831 0.01561 0.49916 0.0
H193 H 0.00885 0.91415 0.50539 0.0
H194 H 0.06994 0.90159 0.51226 0.0
C195 C 0.16799 0.72293 0.70872 0.0
C196 C 0.1626 0.74222 0.70589 0.0
C197 C 0.18585 0.71999 0.71816 0.0
C198 C 0.19863 0.73631 0.72499 0.0
C199 C 0.19388 0.75551 0.72092 0.0
C200 C 0.17607 0.75844 0.71147 0.0
C201 C 0.21544 0.73355 0.73843 0.0
C202 C 0.22826 0.71854 0.73462 0.0
C203 C 0.24334 0.71552 0.74823 0.0
C204 C 0.24528 0.7274 0.76583 0.0
C205 C 0.23227 0.74206 0.77005 0.0
C206 C 0.21761 0.74521 0.75615 0.0
C207 C 0.23283 0.75304 0.78956 0.0
C208 C 0.23482 0.74295 0.80698 0.0
C209 C 0.23002 0.77338 0.79098 0.0
C210 C 0.22866 0.78329 0.8094 0.0
C211 C 0.23008 0.77308 0.82682 0.0
C212 C 0.25628 0.69908 0.74505 0.0
C213 C 0.24799 0.67965 0.74079 0.0
C214 C 0.2768 0.7024 0.74826 0.0
C215 C 0.2887 0.6865 0.74806 0.0
C216 C 0.28025 0.66696 0.7449 0.0
C217 C 0.25985 0.66371 0.74084 0.0
C218 C 0.23348 0.75288 0.82542 0.0
H219 H 0.15805 0.71011 0.70431 0.0
H220 H 0.18909 0.70503 0.72113 0.0
H221 H 0.20356 0.76835 0.72585 0.0
H222 H 0.17237 0.77349 0.70962 0.0
H223 H 0.22653 0.70926 0.72113 0.0
H224 H 0.20707 0.75604 0.75964 0.0
H225 H 0.25658 0.72479 0.77657 0.0
H226 H 0.23668 0.72721 0.80638 0.0
H227 H 0.22869 0.7816 0.77781 0.0
H228 H 0.22644 0.79896 0.81001 0.0
H229 H 0.23219 0.67668 0.7384 0.0
H230 H 0.28355 0.71727 0.7515 0.0
H231 H 0.23444 0.74455 0.83856 0.0
H232 H 0.253 0.64879 0.7382 0.0
H233 H 0.30436 0.68943 0.75134 0.0
C234 C 0.94387 0.638 0.53181 0.0
C235 C 0.93471 0.63634 0.55023 0.0
C236 C 0.94368 0.62164 0.51846 0.0
C237 C 0.93425 0.6033 0.5232 0.0
C238 C 0.92488 0.60167 0.54152 0.0
C239 C 0.92517 0.61802 0.55495 0.0
C240 C 0.93431 0.5859 0.50909 0.0
C241 C 0.95179 0.58158 0.49942 0.0
C242 C 0.95196 0.56526 0.48584 0.0
C243 C 0.93439 0.55312 0.48218 0.0
C244 C 0.91675 0.55721 0.49172 0.0
C245 C 0.91686 0.5737 0.50514 0.0
C246 C 0.89833 0.54411 0.48775 0.0
C247 C 0.89402 0.5356 0.46869 0.0
C248 C 0.88524 0.53948 0.50314 0.0
C249 C 0.86851 0.52631 0.49964 0.0
C250 C 0.86471 0.51731 0.48076 0.0
C251 C 0.97022 0.56121 0.4749 0.0
C252 C 0.98255 0.57689 0.46772 0.0
C253 C 0.97486 0.5416 0.47054 0.0
C254 C 0.99079 0.53775 0.45844 0.0
C255 C 0.00261 0.55342 0.45071 0.0
C256 C -0.00135 0.57303 0.45583 0.0
C257 C 0.87748 0.52218 0.46528 0.0
H258 H 0.95154 0.65187 0.52787 0.0
H259 H 0.95086 0.62336 0.50437 0.0
H260 H 0.9176 0.58765 0.54559 0.0
H261 H 0.91789 0.61635 0.56899 0.0
H262 H 0.96536 0.59078 0.50273 0.0
H263 H 0.90326 0.57737 0.51219 0.0
H264 H 0.93442 0.54048 0.47176 0.0
H265 H 0.90349 0.53919 0.45638 0.0
H266 H 0.88821 0.54552 0.51805 0.0
H267 H 0.85894 0.5226 0.51185 0.0
H268 H 0.9793 0.59216 0.47058 0.0
H269 H 0.96597 0.52919 0.4762 0.0
H270 H 0.87469 0.51554 0.45055 0.0
H271 H 0.00743 0.58537 0.44988 0.0
H272 H 0.99371 0.5225 0.45486 0.0
C273 C 0.81097 0.80498 0.88626 0.0
C274 C 0.79235 0.79509 0.88949 0.0
C275 C 0.81289 0.82051 0.87349 0.0
C276 C 0.79627 0.82645 0.86356 0.0
C277 C 0.77759 0.81673 0.86698 0.0
C278 C 0.77565 0.80122 0.87983 0.0
C279 C 0.7986 0.84251 0.84945 0.0
C280 C 0.81465 0.84335 0.83651 0.0
C281 C 0.81767 0.85878 0.8235 0.0
C282 C 0.80402 0.87333 0.82333 0.0
C283 C 0.7875 0.87237 0.83574 0.0
C284 C 0.78495 0.85698 0.84883 0.0
C285 C 0.77283 0.88742 0.835 0.0
C286 C 0.77909 0.90768 0.83467 0.0
C287 C 0.75246 0.88159 0.83456 0.0
C288 C 0.73862 0.89574 0.83379 0.0
C289 C 0.74488 0.91602 0.83362 0.0
C290 C 0.83471 0.85912 0.80975 0.0
C291 C 0.85281 0.8523 0.81558 0.0
C292 C 0.83279 0.86526 0.79039 0.0
C293 C 0.84826 0.86388 0.77703 0.0
C294 C 0.86592 0.85593 0.78253 0.0
C295 C 0.86809 0.8505 0.80212 0.0
C296 C 0.76526 0.92183 0.83405 0.0
H297 H 0.82405 0.80084 0.89376 0.0
H298 H 0.82743 0.82795 0.87148 0.0
H299 H 0.76453 0.82081 0.85939 0.0
H300 H 0.76114 0.79373 0.88187 0.0
H301 H 0.82455 0.83158 0.83627 0.0
H302 H 0.77259 0.85655 0.85887 0.0
H303 H 0.8061 0.88534 0.81341 0.0
H304 H 0.7947 0.91261 0.83512 0.0
H305 H 0.74722 0.86606 0.83463 0.0
H306 H 0.72301 0.89083 0.83362 0.0
H307 H 0.85509 0.84792 0.8305 0.0
H308 H 0.81909 0.87051 0.78526 0.0
H309 H 0.77053 0.93734 0.83375 0.0
H310 H 0.88131 0.84416 0.807 0.0
H311 H 0.84615 0.86871 0.76225 0.0
C312 C 0.31537 0.29367 0.39137 0.0
C313 C 0.29658 0.28511 0.39624 0.0
C314 C 0.31736 0.30778 0.37708 0.0
C315 C 0.30062 0.31363 0.36727 0.0
C316 C 0.28181 0.30512 0.37219 0.0
C317 C 0.27982 0.29103 0.38654 0.0
C318 C 0.30285 0.32858 0.35199 0.0
C319 C 0.3183 0.32803 0.33835 0.0
C320 C 0.32116 0.34252 0.32428 0.0
C321 C 0.30803 0.35754 0.3239 0.0
C322 C 0.29209 0.35791 0.33696 0.0
C323 C 0.28968 0.34347 0.35105 0.0
C324 C 0.27781 0.37328 0.33571 0.0
C325 C 0.28452 0.39321 0.33351 0.0
C326 C 0.25735 0.36804 0.33632 0.0
C327 C 0.24387 0.38242 0.33465 0.0
C328 C 0.25058 0.40236 0.33248 0.0
C329 C 0.33751 0.34162 0.30975 0.0
C330 C 0.35559 0.33431 0.31491 0.0
C331 C 0.33505 0.34767 0.29041 0.0
C332 C 0.35012 0.34631 0.27664 0.0
C333 C 0.36792 0.33832 0.28158 0.0
C334 C 0.37047 0.33246 0.30097 0.0
C335 C 0.27105 0.4076 0.33196 0.0
H336 H 0.32854 0.28964 0.3988 0.0
H337 H 0.33202 0.31431 0.37388 0.0
H338 H 0.26865 0.3091 0.36472 0.0
H339 H 0.26517 0.2845 0.38978 0.0
H340 H 0.3278 0.31594 0.33844 0.0
H341 H 0.2778 0.34413 0.3616 0.0
H342 H 0.31003 0.36892 0.31328 0.0
H343 H 0.30021 0.3977 0.33314 0.0
H344 H 0.25175 0.35276 0.33782 0.0
H345 H 0.22819 0.37797 0.33528 0.0
H346 H 0.3583 0.32988 0.32973 0.0
H347 H 0.32131 0.35313 0.28567 0.0
H348 H 0.27668 0.42281 0.33012 0.0
H349 H 0.3838 0.32601 0.3054 0.0
H350 H 0.34766 0.35146 0.26206 0.0
C351 C 0.47607 0.98524 0.66101 0.0
C352 C 0.49641 0.9826 0.66048 0.0
C353 C 0.46411 0.98064 0.64428 0.0
C354 C 0.47224 0.97331 0.62666 0.0
C355 C 0.49242 0.9699 0.62639 0.0
C356 C 0.50437 0.97447 0.64313 0.0
C357 C 0.46006 0.97035 0.60831 0.0
C358 C 0.44719 0.98462 0.60327 0.0
C359 C 0.43691 0.98283 0.58516 0.0
C360 C 0.43921 0.96638 0.57223 0.0
C361 C 0.45183 0.95189 0.57708 0.0
C362 C 0.46217 0.95396 0.59517 0.0
C363 C 0.45499 0.93527 0.56268 0.0
C364 C 0.43892 0.92517 0.55225 0.0
C365 C 0.47423 0.93011 0.55852 0.0
C366 C 0.47738 0.91558 0.54379 0.0
C367 C 0.46135 0.90585 0.53299 0.0
C368 C 0.4246 -0.00134 0.57917 0.0
C369 C 0.41051 0.00613 0.59199 0.0
C370 C 0.42686 0.00627 0.56039 0.0
C371 C 0.41501 0.02079 0.55437 0.0
C372 C 0.40045 0.02791 0.56689 0.0
C373 C 0.39848 0.02056 0.58587 0.0
C374 C 0.44207 0.91057 0.53758 0.0
H375 H 0.46944 0.99117 0.67428 0.0
H376 H 0.44855 0.9831 0.64506 0.0
H377 H 0.4992 0.96449 0.61298 0.0
H378 H 0.52003 0.97249 0.64217 0.0
H379 H 0.44593 0.99766 0.61296 0.0
H380 H 0.47188 0.94277 0.59902 0.0
H381 H 0.43147 0.9651 0.55812 0.0
H382 H 0.42392 0.92872 0.55527 0.0
H383 H 0.48692 0.93775 0.56621 0.0
H384 H 0.49239 0.9121 0.54073 0.0
H385 H 0.40846 0.00045 0.60653 0.0
H386 H 0.4379 0.00105 0.55037 0.0
H387 H 0.42943 0.90342 0.52942 0.0
H388 H 0.3873 0.02554 0.59583 0.0
H389 H 0.41732 0.02645 0.53985 0.0
C390 C 0.22089 0.23205 0.70029 0.0
C391 C 0.23969 0.2255 0.69615 0.0
C392 C 0.21806 0.24456 0.71686 0.0
C393 C 0.23401 0.25107 0.72945 0.0
C394 C 0.25264 0.24415 0.72576 0.0
C395 C 0.25542 0.23134 0.7094 0.0
C396 C 0.23159 0.26635 0.74539 0.0
C397 C 0.21647 0.26385 0.75925 0.0
C398 C 0.21361 0.27891 0.77374 0.0
C399 C 0.22618 0.29651 0.77417 0.0
C400 C 0.24111 0.29945 0.7601 0.0
C401 C 0.24376 0.28413 0.74585 0.0
C402 C 0.25325 0.3188 0.75961 0.0
C403 C 0.24497 0.33672 0.76477 0.0
C404 C 0.27303 0.31962 0.75343 0.0
C405 C 0.28407 0.3378 0.75206 0.0
C406 C 0.27584 0.35572 0.75731 0.0
C407 C 0.19675 0.27701 0.7876 0.0
C408 C 0.17802 0.26881 0.7809 0.0
C409 C 0.19884 0.28476 0.80722 0.0
C410 C 0.18242 0.28527 0.81947 0.0
C411 C 0.1636 0.2778 0.81248 0.0
C412 C 0.16164 0.26913 0.79324 0.0
C413 C 0.25618 0.35487 0.76389 0.0
H414 H 0.20847 0.22824 0.69033 0.0
H415 H 0.20361 0.24991 0.7193 0.0
H416 H 0.26513 0.2489 0.7354 0.0
H417 H 0.26998 0.22628 0.70701 0.0
H418 H 0.207 0.25015 0.75874 0.0
H419 H 0.25469 0.28628 0.73443 0.0
H420 H 0.22396 0.30819 0.78521 0.0
H421 H 0.2297 0.33686 0.76923 0.0
H422 H 0.28008 0.3062 0.74961 0.0
H423 H 0.29901 0.33771 0.74659 0.0
H424 H 0.17579 0.26296 0.76583 0.0
H425 H 0.21312 0.2908 0.813 0.0
H426 H 0.24933 0.36821 0.76845 0.0
H427 H 0.14727 0.26344 0.7874 0.0
H428 H 0.18438 0.29179 0.83434 0.0
C429 C 0.85301 0.28401 0.74455 0.0
C430 C 0.86202 0.26814 0.75254 0.0
C431 C 0.83476 0.28082 0.73467 0.0
C432 C 0.82521 0.26162 0.73222 0.0
C433 C 0.83478 0.24564 0.73917 0.0
C434 C 0.85278 0.24887 0.74938 0.0
C435 C 0.80487 0.25835 0.72356 0.0
C436 C 0.79884 0.26964 0.70808 0.0
C437 C 0.77936 0.26694 0.70043 0.0
C438 C 0.76594 0.25264 0.70843 0.0
C439 C 0.77195 0.24089 0.7234 0.0
C440 C 0.79123 0.24396 0.73104 0.0
C441 C 0.75838 0.22476 0.73062 0.0
C442 C 0.73982 0.22863 0.73821 0.0
C443 C 0.76415 0.20531 0.73001 0.0
C444 C 0.75152 0.18991 0.7368 0.0
C445 C 0.73305 0.19377 0.74464 0.0
C446 C 0.77327 0.2785 0.68364 0.0
C447 C 0.78035 0.29848 0.6822 0.0
C448 C 0.76066 0.26946 0.66862 0.0
C449 C 0.75548 0.28004 0.65249 0.0
C450 C 0.76299 0.2998 0.65085 0.0
C451 C 0.77537 0.30897 0.66591 0.0
C452 C 0.72731 0.21325 0.74539 0.0
H453 H 0.85984 0.29902 0.74622 0.0
H454 H 0.82787 0.29352 0.72959 0.0
H455 H 0.82818 0.23057 0.73712 0.0
H456 H 0.859 0.23622 0.7554 0.0
H457 H 0.80948 0.28015 0.70162 0.0
H458 H 0.79541 0.23526 0.74313 0.0
H459 H 0.75088 0.25035 0.70283 0.0
H460 H 0.73514 0.24356 0.73884 0.0
H461 H 0.77839 0.20202 0.72412 0.0
H462 H 0.75628 0.17501 0.73618 0.0
H463 H 0.78978 0.30603 0.69365 0.0
H464 H 0.75521 0.25402 0.66898 0.0
H465 H 0.71308 0.21651 0.75132 0.0
H466 H 0.78123 0.32426 0.66507 0.0
H467 H 0.74616 0.27252 0.64093 0.0
C468 C 0.53417 0.61748 0.48065 0.0
C469 C 0.5338 0.63736 0.4875 0.0
C470 C 0.53787 0.60291 0.49371 0.0
C471 C 0.54099 0.6079 0.51391 0.0
C472 C 0.54084 0.62781 0.52074 0.0
C473 C 0.53743 0.64245 0.50761 0.0
C474 C 0.54367 0.59221 0.52787 0.0
C475 C 0.55691 0.57776 0.52359 0.0
C476 C 0.55871 0.56217 0.53616 0.0
C477 C 0.54717 0.5612 0.55321 0.0
C478 C 0.53335 0.57519 0.55742 0.0
C479 C 0.53198 0.59089 0.54482 0.0
C480 C 0.51913 0.57231 0.57382 0.0
C481 C 0.51101 0.55314 0.57759 0.0
C482 C 0.51292 0.58852 0.58526 0.0
C483 C 0.49877 0.5856 0.59998 0.0
C484 C 0.49059 0.56639 0.6036 0.0
C485 C 0.57146 0.54604 0.53072 0.0
C486 C 0.57048 0.53723 0.51153 0.0
C487 C 0.58403 0.53883 0.54474 0.0
C488 C 0.59552 0.52316 0.53959 0.0
C489 C 0.59454 0.5143 0.52036 0.0
C490 C 0.5818 0.5215 0.50643 0.0
C491 C 0.49708 0.55021 0.59236 0.0
H492 H 0.5315 0.61321 0.4652 0.0
H493 H 0.53777 0.58764 0.48811 0.0
H494 H 0.54328 0.63202 0.53624 0.0
H495 H 0.53706 0.65765 0.51327 0.0
H496 H 0.56581 0.57862 0.5104 0.0
H497 H 0.52103 0.60146 0.54753 0.0
H498 H 0.54843 0.54904 0.56279 0.0
H499 H 0.5151 0.5403 0.56888 0.0
H500 H 0.51897 0.60348 0.58284 0.0
H501 H 0.49406 0.59841 0.6083 0.0
H502 H 0.56061 0.54223 0.50054 0.0
H503 H 0.58511 0.54543 0.55963 0.0
H504 H 0.49148 0.53516 0.59498 0.0
H505 H 0.58032 0.51478 0.49161 0.0
H506 H 0.60537 0.5182 0.55061 0.0
C507 C 0.51 0.46785 0.90005 0.0
C508 C 0.5163 0.47351 0.88131 0.0
C509 C 0.5235 0.46193 0.91377 0.0
C510 C 0.54361 0.46145 0.90908 0.0
C511 C 0.54984 0.46665 0.89018 0.0
C512 C 0.53635 0.47264 0.87647 0.0
C513 C 0.55819 0.45679 0.92429 0.0
C514 C 0.5534 0.44207 0.93773 0.0
C515 C 0.56619 0.43924 0.95357 0.0
C516 C 0.58427 0.4509 0.95541 0.0
C517 C 0.58938 0.46556 0.94205 0.0
C518 C 0.57633 0.46832 0.92647 0.0
C519 C 0.60728 0.47942 0.94556 0.0
C520 C 0.61178 0.4876 0.96466 0.0
C521 C 0.61929 0.4855 0.92981 0.0
C522 C 0.63516 0.49985 0.93305 0.0
C523 C 0.63921 0.50846 0.95209 0.0
C524 C 0.5599 0.4257 0.96935 0.0
C525 C 0.54033 0.42481 0.97612 0.0
C526 C 0.57367 0.41484 0.97887 0.0
C527 C 0.5682 0.40408 0.9953 0.0
C528 C 0.5488 0.40383 0.00249 0.0
C529 C 0.53483 0.41393 0.9924 0.0
C530 C 0.62757 0.50192 0.96789 0.0
H531 H 0.49462 0.46804 0.90416 0.0
H532 H 0.51822 0.45828 0.92828 0.0
H533 H 0.5652 0.46628 0.88604 0.0
H534 H 0.54176 0.47704 0.86224 0.0
H535 H 0.53951 0.43301 0.93603 0.0
H536 H 0.57976 0.48032 0.91677 0.0
H537 H 0.59407 0.44917 0.96778 0.0
H538 H 0.60269 0.48344 0.97708 0.0
H539 H 0.61624 0.47934 0.91495 0.0
H540 H 0.64384 0.50467 0.92058 0.0
H541 H 0.52936 0.43313 0.96934 0.0
H542 H 0.5888 0.41497 0.97388 0.0
H543 H 0.63051 0.50809 0.98276 0.0
H544 H 0.51964 0.4137 0.99724 0.0
H545 H 0.57935 0.39651 0.00272 0.0
C546 C 0.66216 0.22398 0.20901 0.0
C547 C 0.66093 0.24286 0.20147 0.0
C548 C 0.67888 0.21966 0.21962 0.0
C549 C 0.69457 0.23421 0.22321 0.0
C550 C 0.69383 0.25276 0.21508 0.0
C551 C 0.67731 0.25696 0.2041 0.0
C552 C 0.71039 0.23089 0.23743 0.0
C553 C 0.7223 0.21502 0.23452 0.0
C554 C 0.73652 0.21144 0.24882 0.0
C555 C 0.73824 0.22352 0.26631 0.0
C556 C 0.72596 0.23903 0.26964 0.0
C557 C 0.71238 0.24288 0.2549 0.0
C558 C 0.72611 0.25018 0.28905 0.0
C559 C 0.7266 0.24007 0.30661 0.0
C560 C 0.72461 0.27077 0.29019 0.0
C561 C 0.72328 0.28097 0.30849 0.0
C562 C 0.7234 0.2708 0.32605 0.0
C563 C 0.74884 0.19442 0.2463 0.0
C564 C 0.74006 0.17535 0.24112 0.0
C565 C 0.76922 0.19687 0.25059 0.0
C566 C 0.78048 0.18049 0.25042 0.0
C567 C 0.77152 0.1613 0.24618 0.0
C568 C 0.75127 0.15892 0.24117 0.0
C569 C 0.72526 0.25027 0.3249 0.0
H570 H 0.64984 0.21278 0.20766 0.0
H571 H 0.67907 0.20534 0.22601 0.0
H572 H 0.70585 0.26417 0.21767 0.0
H573 H 0.67722 0.27147 0.19812 0.0
H574 H 0.72056 0.20557 0.22113 0.0
H575 H 0.7025 0.25452 0.25747 0.0
H576 H 0.74877 0.22046 0.27763 0.0
H577 H 0.72738 0.22415 0.30622 0.0
H578 H 0.7244 0.27899 0.27692 0.0
H579 H 0.72223 0.29685 0.30889 0.0
H580 H 0.72435 0.17302 0.23787 0.0
H581 H 0.77637 0.21145 0.25451 0.0
H582 H 0.72514 0.24195 0.33812 0.0
H583 H 0.74403 0.1443 0.23768 0.0
H584 H 0.79601 0.18275 0.25446 0.0
C585 C 0.41726 0.16252 0.00436 0.0
C586 C 0.41184 0.15931 0.02397 0.0
C587 C 0.41515 0.14701 0.98995 0.0
C588 C 0.40759 0.12798 0.99485 0.0
C589 C 0.40127 0.12503 0.01424 0.0
C590 C 0.40336 0.14053 0.02863 0.0
C591 C 0.40775 0.11087 0.98033 0.0
C592 C 0.42439 0.10857 0.96852 0.0
C593 C 0.42566 0.09143 0.95626 0.0
C594 C 0.41009 0.07645 0.9559 0.0
C595 C 0.39318 0.07856 0.96743 0.0
C596 C 0.39205 0.096 0.97938 0.0
C597 C 0.37719 0.06219 0.96774 0.0
C598 C 0.37199 0.05029 0.95058 0.0
C599 C 0.36742 0.0579 0.98545 0.0
C600 C 0.35293 0.04211 0.98598 0.0
C601 C 0.34816 0.03003 0.96895 0.0
C602 C 0.44359 0.08894 0.94436 0.0
C603 C 0.45194 0.10463 0.93357 0.0
C604 C 0.45256 0.07095 0.94382 0.0
C605 C 0.4695 0.06866 0.93264 0.0
C606 C 0.47774 0.08429 0.9217 0.0
C607 C 0.46881 0.10231 0.92231 0.0
C608 C 0.35776 0.03424 0.95123 0.0
H609 H 0.42397 0.17678 0.00031 0.0
H610 H 0.41992 0.14978 0.97507 0.0
H611 H 0.39552 0.11051 0.01855 0.0
H612 H 0.39879 0.13768 0.04356 0.0
H613 H 0.43682 0.1197 0.96955 0.0
H614 H 0.37898 0.09802 0.98808 0.0
H615 H 0.41133 0.063 0.94682 0.0
H616 H 0.3789 0.05334 0.9366 0.0
H617 H 0.37128 0.06641 -0.00094 0.0
H618 H 0.34584 0.03897 -0.00014 0.0
H619 H 0.44527 0.11863 0.93365 0.0
H620 H 0.44657 0.05868 0.95218 0.0
H621 H 0.35415 0.02517 0.93787 0.0
H622 H 0.47494 0.11467 0.91417 0.0
H623 H 0.47596 0.05454 0.93231 0.0
O624 O 0.23502 0.8505 0.96822 0.0
Cd625 Cd 0.24072 0.86978 0.99232 0.0
Cd626 Cd 0.2115 0.89032 0.97528 0.0
O627 O 0.21115 0.86621 0.95532 0.0
O628 O 0.25613 0.85559 0.01124 0.0
O629 O 0.22647 0.86554 0.01785 0.0
C630 C 0.24177 0.85699 0.02344 0.0
C631 C 0.18169 0.90421 0.98202 0.0
C632 C 0.22214 0.85186 0.95477 0.0
C633 C 0.25268 0.9109 0.98072 0.0
O634 O 0.23493 0.91162 0.97493 0.0
O635 O 0.2582 0.89541 0.98813 0.0
O636 O 0.18996 0.90529 0.96507 0.0
O637 O 0.18993 0.89435 0.99516 0.0
O638 O 0.14858 0.56074 0.30949 0.0
Cd639 Cd 0.13696 0.53528 0.32166 0.0
Cd640 Cd 0.10441 0.54132 0.29601 0.0
O641 O 0.12355 0.56548 0.28977 0.0
O642 O 0.15981 0.52502 0.33512 0.0
O643 O 0.14334 0.50852 0.31036 0.0
C644 C 0.15752 0.50949 0.32329 0.0
C645 C 0.08414 0.52832 0.2696 0.0
C646 C 0.14072 0.57081 0.29673 0.0
C647 C 0.09764 0.53894 0.34031 0.0
O648 O 0.0907 0.54018 0.32301 0.0
O649 O 0.11595 0.53743 0.34314 0.0
O650 O 0.08157 0.54511 0.27852 0.0
O651 O 0.09855 0.51871 0.27556 0.0
O652 O 0.76523 0.67895 0.98927 0.0
Cd653 Cd 0.75714 0.65682 0.00801 0.0
Cd654 Cd 0.78448 0.63815 0.98728 0.0
O655 O 0.78889 0.66455 0.97344 0.0
O656 O 0.73975 0.66991 0.02718 0.0
O657 O 0.76777 0.65811 0.03594 0.0
C658 C 0.75227 0.66698 0.04088 0.0
C659 C 0.80972 0.62544 0.00468 0.0
C660 C 0.7787 0.67933 0.97636 0.0
C661 C 0.74363 0.61884 0.98475 0.0
O662 O 0.76107 0.61842 0.97812 0.0
O663 O 0.73944 0.63258 0.99707 0.0
O664 O 0.80911 0.62419 0.98563 0.0
O665 O 0.79618 0.63451 0.01389 0.0
O666 O 0.90945 0.00536 0.27426 0.0
Cd667 Cd 0.89081 0.00284 0.25015 0.0
Cd668 Cd 0.86604 0.01753 0.27671 0.0
O669 O 0.88952 0.01758 0.29641 0.0
O670 O 0.90896 0.99609 0.2285 0.0
O671 O 0.89314 0.02335 0.22946 0.0
C672 C 0.90541 0.01235 0.22066 0.0
C673 C 0.851 0.04632 0.27096 0.0
C674 C 0.90623 0.01152 0.29184 0.0
C675 C 0.85395 0.97724 0.25849 0.0
O676 O 0.84944 0.99103 0.27058 0.0
O677 O 0.86978 0.97911 0.24865 0.0
O678 O 0.84732 0.03669 0.28663 0.0
O679 O 0.86381 0.03986 0.25872 0.0
O680 O 0.26289 0.17982 0.50657 0.0
Cd681 Cd 0.25421 0.15826 0.52582 0.0
Cd682 Cd 0.27988 0.13729 0.50512 0.0
O683 O 0.28529 0.16334 0.49091 0.0
O684 O 0.23935 0.17158 0.54705 0.0
O685 O 0.26751 0.15821 0.55245 0.0
C686 C 0.25286 0.16743 0.55927 0.0
C687 C 0.30588 0.12138 0.51793 0.0
C688 C 0.27615 0.1789 0.49349 0.0
C689 C 0.23773 0.12084 0.50382 0.0
O690 O 0.25497 0.11911 0.49714 0.0
O691 O 0.23452 0.13519 0.51581 0.0
O692 O 0.30229 0.12094 0.49921 0.0
O693 O 0.29498 0.13153 0.52949 0.0
O694 O 0.41694 0.50793 0.7679 0.0
Cd695 Cd 0.3968 0.50883 0.7453 0.0
Cd696 Cd 0.37462 0.52298 0.77411 0.0
O697 O 0.39946 0.52112 0.79169 0.0
O698 O 0.41198 0.5044 0.72077 0.0
O699 O 0.39846 0.53242 0.72828 0.0
C700 C 0.40875 0.52211 0.71631 0.0
C701 C 0.36032 0.55259 0.77031 0.0
C702 C 0.41522 0.51378 0.78585 0.0
C703 C 0.35963 0.48419 0.75451 0.0
O704 O 0.35676 0.49724 0.76805 0.0
O705 O 0.37453 0.48629 0.74337 0.0
O706 O 0.35745 0.54276 0.78599 0.0
O707 O 0.37199 0.54591 0.75704 0.0
O708 O 0.73128 0.35096 0.46541 0.0
Cd709 Cd 0.73944 0.37006 0.48909 0.0
Cd710 Cd 0.71235 0.39318 0.47238 0.0
O711 O 0.70939 0.36905 0.45237 0.0
O712 O 0.75504 0.35471 0.50681 0.0
O713 O 0.72698 0.36694 0.51575 0.0
C714 C 0.74199 0.35736 0.52017 0.0
C715 C 0.68439 0.40919 0.48152 0.0
C716 C 0.71872 0.35349 0.45197 0.0
C717 C 0.75469 0.41022 0.47662 0.0
O718 O 0.73717 0.41268 0.47117 0.0
O719 O 0.75872 0.39418 0.48402 0.0
O720 O 0.69146 0.4099 0.464 0.0
O721 O 0.69269 0.39844 0.49385 0.0
O722 O 0.64928 0.07609 0.81426 0.0
Cd723 Cd 0.63455 0.05144 0.82555 0.0
Cd724 Cd 0.60911 0.0548 0.79385 0.0
O725 O 0.63223 0.07452 0.78632 0.0
O726 O 0.65419 0.03875 0.84144 0.0
O727 O 0.63993 0.02451 0.81422 0.0
C728 C 0.65235 0.02389 0.8287 0.0
C729 C 0.59044 0.03916 0.76748 0.0
C730 C 0.64648 0.08219 0.79715 0.0
C731 C 0.59401 0.06033 0.83596 0.0
O732 O 0.59157 0.06173 0.81752 0.0
O733 O 0.61022 0.05523 0.84274 0.0
O734 O 0.59005 0.05776 0.7721 0.0
O735 O 0.60203 0.02922 0.77758 0.0
O736 O 0.97481 0.29469 0.91816 0.0
Cd737 Cd 0.9806 0.27316 0.89663 0.0
Cd738 Cd 0.00082 0.30459 0.88111 0.0
O739 O 0.99317 0.31977 0.90646 0.0
O740 O 0.97178 0.24735 0.90801 0.0
O741 O 0.00308 0.25644 0.90181 0.0
C742 C 0.99009 0.24355 0.90848 0.0
C743 C 0.03339 0.29953 0.87373 0.0
C744 C 0.98175 0.31272 0.91958 0.0
C745 C 0.96779 0.28559 0.85648 0.0
O746 O 0.98013 0.30069 0.85878 0.0
O747 O 0.9665 0.27247 0.86928 0.0
O748 O 0.0264 0.31636 0.87093 0.0
O749 O 0.02189 0.28575 0.88114 0.0
O750 O 0.47371 0.79629 0.41503 0.0
Cd751 Cd 0.47784 0.77355 0.39432 0.0
Cd752 Cd 0.49757 0.80309 0.37626 0.0
O753 O 0.49422 0.81911 0.40238 0.0
O754 O 0.47087 0.74847 0.40776 0.0
O755 O 0.50125 0.75784 0.39841 0.0
C756 C 0.48932 0.74519 0.4069 0.0
C757 C 0.5287 0.79794 0.36404 0.0
C758 C 0.4827 0.81354 0.41608 0.0
C759 C 0.46154 0.78439 0.35552 0.0
O760 O 0.47402 0.79943 0.35672 0.0
O761 O 0.46152 0.77132 0.36832 0.0
O762 O 0.52093 0.81448 0.36183 0.0
O763 O 0.51887 0.78447 0.37362 0.0
O764 O 0.97478 0.79538 0.6906 0.0
Cd765 Cd 0.99022 0.77778 0.67143 0.0
Cd766 Cd 0.97657 0.80076 0.64344 0.0
O767 O 0.96258 0.81272 0.66743 0.0
O768 O 0.00888 0.76409 0.68761 0.0
O769 O 0.01871 0.78503 0.66496 0.0
C770 C 0.02314 0.77284 0.67804 0.0
C771 C 0.99093 0.82276 0.62142 0.0
C772 C 0.96389 0.80867 0.68543 0.0
C773 C 0.96588 0.75705 0.63822 0.0
O774 O 0.9651 0.77395 0.63113 0.0
O775 O 0.97484 0.75537 0.65449 0.0
O776 O 0.97203 0.81967 0.62285 0.0
O777 O 0.00195 0.81338 0.63272 0.0
O778 O 0.4763 0.2926 0.18009 0.0
Cd779 Cd 0.49155 0.27859 0.15794 0.0
Cd780 Cd 0.4784 0.30626 0.13534 0.0
O781 O 0.46591 0.31546 0.16139 0.0
O782 O 0.51024 0.26172 0.17042 0.0
O783 O 0.52 0.28753 0.15307 0.0
C784 C 0.52446 0.27279 0.16313 0.0
C785 C 0.49581 0.32906 0.11617 0.0
C786 C 0.46656 0.30763 0.17798 0.0
C787 C 0.46529 0.26437 0.12328 0.0
O788 O 0.46419 0.28246 0.11975 0.0
O789 O 0.47562 0.25965 0.13775 0.0
O790 O 0.47688 0.32875 0.11793 0.0
O791 O 0.5051 0.31671 0.12591 0.0
H792 H 0.20292 0.7994 0.83707 0.0
H793 H 0.24466 0.82053 0.94735 0.0
H794 H 0.25116 0.77002 0.86109 0.0
H795 H 0.1975 0.85093 0.92249 0.0
H796 H 0.24533 0.79978 0.9169 0.0
H797 H 0.19922 0.81672 0.86907 0.0
C798 C 0.21281 0.79667 0.84906 0.0
C799 C 0.2275 0.78338 0.84634 0.0
C800 C 0.23474 0.81089 0.91817 0.0
C801 C 0.22317 0.80298 0.88314 0.0
C802 C 0.2343 0.82272 0.93558 0.0
C803 C 0.22112 0.83764 0.93744 0.0
C804 C 0.22194 0.81401 0.90247 0.0
C805 C 0.20801 0.83971 0.9217 0.0
C806 C 0.21058 0.80645 0.86738 0.0
C807 C 0.23958 0.78006 0.86255 0.0
N808 N 0.20886 0.82815 0.90484 0.0
N809 N 0.23721 0.78988 0.88023 0.0
H810 H 0.04095 0.56962 0.44982 0.0
H811 H 0.05766 0.53041 0.33983 0.0
H812 H -0.00117 0.52838 0.41803 0.0
H813 H 0.10685 0.54853 0.37922 0.0
H814 H 0.03524 0.53221 0.36773 0.0
H815 H 0.06503 0.56458 0.42355 0.0
C816 C 0.03687 0.55941 0.43737 0.0
C817 C 0.01795 0.54937 0.43603 0.0
C818 C 0.05096 0.53567 0.37028 0.0
C819 C 0.04512 0.54378 0.40601 0.0
C820 C 0.06374 0.53475 0.35437 0.0
C821 C 0.08413 0.53938 0.35723 0.0
C822 C 0.05855 0.54161 0.38914 0.0
C823 C 0.09122 0.5448 0.3764 0.0
C824 C 0.05058 0.55648 0.42248 0.0
C825 C 0.01334 0.53625 0.41968 0.0
N826 N 0.07841 0.54597 0.39165 0.0
N827 N 0.02676 0.534 0.40519 0.0
H828 H 0.76404 0.78731 0.91725 0.0
H829 H 0.80655 0.68618 0.94779 0.0
H830 H 0.81636 0.76467 0.89186 0.0
H831 H 0.75791 0.7123 0.97709 0.0
H832 H 0.81029 0.7146 0.92692 0.0
H833 H 0.76119 0.75946 0.93886 0.0
C834 C 0.77488 0.77643 0.91618 0.0
C835 C 0.79046 0.77831 0.90275 0.0
C836 C 0.79885 0.71413 0.93798 0.0
C837 C 0.78739 0.74647 0.92751 0.0
C838 C 0.79671 0.69791 0.94991 0.0
C839 C 0.78187 0.69681 0.9642 0.0
C840 C 0.786 0.72931 0.94029 0.0
C841 C 0.76956 0.71247 0.96627 0.0
C842 C 0.77333 0.7606 0.9286 0.0
C843 C 0.80424 0.76392 0.90216 0.0
N844 N 0.77186 0.72801 0.9544 0.0
N845 N 0.80236 0.74857 0.91433 0.0
H846 H 0.00681 0.97379 0.35297 0.0
H847 H 0.9043 0.01969 0.33195 0.0
H848 H 0.97307 0.00139 0.39887 0.0
H849 H 0.94344 -0.00018 0.28649 0.0
H850 H 0.92921 0.01373 0.35686 0.0
H851 H 0.98355 0.98358 0.3285 0.0
C852 C 0.99461 0.98206 0.35792 0.0
C853 C 0.99194 0.98676 0.37805 0.0
C854 C 0.93236 0.01084 0.34141 0.0
C855 C 0.96497 0.9978 0.35003 0.0
C856 C 0.91817 0.01428 0.32719 0.0
C857 C 0.9217 0.01011 0.3071 0.0
C858 C 0.95012 0.0031 0.33547 0.0
C859 C 0.93996 0.00312 0.30179 0.0
C860 C 0.98125 0.98758 0.34392 0.0
C861 C 0.97557 0.99717 0.38355 0.0
N862 N 0.95338 -0.00029 0.31587 0.0
N863 N 0.96266 0.00229 0.36962 0.0
H864 H 0.27295 0.22688 0.67301 0.0
H865 H 0.21944 0.17363 0.57969 0.0
H866 H 0.21417 0.19741 0.67624 0.0
H867 H 0.28277 0.17436 0.58684 0.0
H868 H 0.21697 0.1849 0.6143 0.0
H869 H 0.27701 0.20983 0.64095 0.0
C870 C 0.26099 0.21661 0.66724 0.0
C871 C 0.24308 0.21377 0.67745 0.0
C872 C 0.23138 0.18242 0.60835 0.0
C873 C 0.24754 0.19472 0.64035 0.0
C874 C 0.23283 0.17611 0.58859 0.0
C875 C 0.25135 0.17317 0.58042 0.0
C876 C 0.24863 0.18626 0.61991 0.0
C877 C 0.26821 0.17646 0.59263 0.0
C878 C 0.26333 0.20697 0.64883 0.0
C879 C 0.22804 0.20053 0.6688 0.0
N880 N 0.26649 0.18313 0.61175 0.0
N881 N 0.23051 0.19173 0.65065 0.0
H882 H 0.48827 0.58565 0.64023 0.0
H883 H 0.41666 0.50183 0.68219 0.0
H884 H 0.45828 0.53926 0.60238 0.0
H885 H 0.42053 0.56086 0.7097 0.0
H886 H 0.43378 0.51481 0.65347 0.0
H887 H 0.46515 0.57698 0.66661 0.0
C888 C 0.4767 0.57386 0.63733 0.0
C889 C 0.4755 0.56292 0.61912 0.0
C890 C 0.43068 0.52498 0.66568 0.0
C891 C 0.44936 0.55276 0.64934 0.0
C892 C 0.42099 0.51758 0.68208 0.0
C893 C 0.41726 0.53032 0.69828 0.0
C894 C 0.43715 0.54519 0.66569 0.0
C895 C 0.42311 0.5506 0.69741 0.0
C896 C 0.46356 0.56891 0.65242 0.0
C897 C 0.46023 0.5477 0.61633 0.0
N898 N 0.43311 0.55742 0.68147 0.0
N899 N 0.44798 0.54288 0.63136 0.0
H900 H 0.72731 0.3023 0.63221 0.0
H901 H 0.77597 0.3465 0.53637 0.0
H902 H 0.78947 0.32088 0.62843 0.0
H903 H 0.71428 0.35154 0.54918 0.0
H904 H 0.78066 0.33415 0.56905 0.0
H905 H 0.72157 0.3177 0.60089 0.0
C906 C 0.7397 0.30973 0.62483 0.0
C907 C 0.75889 0.31034 0.63286 0.0
C908 C 0.76611 0.33803 0.56477 0.0
C909 C 0.7525 0.32768 0.59712 0.0
C910 C 0.76338 0.34497 0.54607 0.0
C911 C 0.74468 0.34999 0.54004 0.0
C912 C 0.74997 0.33576 0.57749 0.0
C913 C 0.72894 0.34784 0.55328 0.0
C914 C 0.73641 0.31855 0.60705 0.0
C915 C 0.77443 0.32022 0.62282 0.0
N916 N 0.73189 0.3407 0.57138 0.0
N917 N 0.77093 0.32831 0.60536 0.0
H918 H 0.49562 0.01727 0.68254 0.0
H919 H 0.58795 0.00049 0.75216 0.0
H920 H 0.52736 0.96463 0.67657 0.0
H921 H 0.56265 0.05647 0.74685 0.0
H922 H 0.56462 0.98563 0.72657 0.0
H923 H 0.51835 0.03017 0.70889 0.0
C924 C 0.50724 0.00829 0.68696 0.0
C925 C 0.50955 0.98981 0.67737 0.0
C926 C 0.56428 0.00117 0.73103 0.0
C927 C 0.53597 0.00471 0.70739 0.0
C928 C 0.57757 0.00965 0.74559 0.0
C929 C 0.57726 0.02975 0.75163 0.0
C930 C 0.55055 0.01288 0.72268 0.0
C931 C 0.56349 0.04093 0.74267 0.0
C932 C 0.52036 0.01576 0.70189 0.0
C933 C 0.52516 0.97903 0.68348 0.0
N934 N 0.55069 0.03234 0.72874 0.0
N935 N 0.53781 0.98664 0.69814 0.0
H936 H 0.89249 0.24389 0.75674 0.0
H937 H 0.95511 0.31516 0.83488 0.0
H938 H 0.87322 0.30051 0.77757 0.0
H939 H 0.9499 0.25156 0.83875 0.0
H940 H 0.93113 0.31167 0.80742 0.0
H941 H 0.91976 0.24836 0.78071 0.0
C942 C 0.89391 0.25727 0.76624 0.0
C943 C 0.88018 0.2717 0.7652 0.0
C944 C 0.9354 0.29852 0.81424 0.0
C945 C 0.91187 0.27709 0.79214 0.0
C946 C 0.94909 0.30046 0.82981 0.0
C947 C 0.95436 0.28361 0.83915 0.0
C948 C 0.92731 0.27958 0.80771 0.0
C949 C 0.94607 0.26492 0.83205 0.0
C950 C 0.90959 0.25982 0.77981 0.0
C951 C 0.88341 0.28903 0.77753 0.0
N952 N 0.93298 0.26339 0.81667 0.0
N953 N 0.89889 0.29122 0.79049 0.0
H954 H 0.44085 0.86997 0.52355 0.0
H955 H 0.50149 0.85033 0.4247 0.0
H956 H 0.48955 0.90919 0.5045 0.0
H957 H 0.45744 0.80772 0.44699 0.0
H958 H 0.49666 0.87245 0.45347 0.0
H959 H 0.44606 0.84726 0.49521 0.0
C960 C 0.45263 0.87379 0.5134 0.0
C961 C 0.46479 0.89148 0.51639 0.0
C962 C 0.48807 0.85825 0.45209 0.0
C963 C 0.47087 0.86559 0.48397 0.0
C964 C 0.49078 0.84562 0.43563 0.0
C965 C 0.47984 0.82713 0.4334 0.0
C966 C 0.47424 0.85242 0.46642 0.0
C967 C 0.46621 0.82182 0.44808 0.0
C968 C 0.45566 0.86079 0.49728 0.0
C969 C 0.47998 0.8956 0.5029 0.0
N970 N 0.46377 0.83442 0.46394 0.0
N971 N 0.48253 0.8828 0.48725 0.0
H972 H 0.15409 0.31124 0.83314 0.0
H973 H 0.04965 0.26391 0.86951 0.0
H974 H 0.13258 0.25043 0.81905 0.0
H975 H 0.06331 0.32676 0.86416 0.0
H976 H 0.08255 0.25801 0.85697 0.0
H977 H 0.12339 0.31628 0.8507 0.0
C978 C 0.14302 0.29887 0.834 0.0
C979 C 0.14583 0.2804 0.8246 0.0
C980 C 0.07835 0.27308 0.85867 0.0
C981 C 0.11068 0.2861 0.84453 0.0
C982 C 0.05964 0.27648 0.86589 0.0
C983 C 0.05371 0.29586 0.86774 0.0
C984 C 0.09129 0.28919 0.85353 0.0
C985 C 0.06723 0.31158 0.86282 0.0
C986 C 0.12546 0.3018 0.84389 0.0
C987 C 0.13089 0.26495 0.82596 0.0
N988 N 0.08539 0.3079 0.85592 0.0
N989 N 0.11392 0.26815 0.83573 0.0
H990 H 0.55299 0.67396 0.48285 0.0
H991 H 0.46783 0.71162 0.41735 0.0
H992 H 0.50284 0.63538 0.46141 0.0
H993 H 0.52727 0.73977 0.41812 0.0
H994 H 0.47962 0.68446 0.43539 0.0
H995 H 0.54312 0.69949 0.46122 0.0
C996 C 0.53995 0.67088 0.47354 0.0
C997 C 0.52869 0.65259 0.47387 0.0
C998 C 0.49011 0.69649 0.43145 0.0
C999 C 0.51727 0.68162 0.44934 0.0
C1000 C 0.48339 0.71201 0.42121 0.0
C1001 C 0.4966 0.72796 0.41629 0.0
C1002 C 0.5101 0.69712 0.43715 0.0
C1003 C 0.51662 0.7277 0.42159 0.0
C1004 C 0.5344 0.68536 0.46115 0.0
C1005 C 0.51199 0.64925 0.46146 0.0
N1006 N 0.52274 0.71262 0.43197 0.0
N1007 N 0.50666 0.66371 0.44984 0.0
H1008 H 0.86089 0.84538 0.74302 0.0
H1009 H 0.96735 0.81038 0.7259 0.0
H1010 H 0.9065 0.85721 0.78795 0.0
H1011 H 0.93191 0.82923 0.67829 0.0
H1012 H 0.94458 0.82465 0.74961 0.0
H1013 H 0.88602 0.83681 0.71947 0.0
C1014 C 0.87617 0.84653 0.74796 0.0
C1015 C 0.88143 0.85208 0.76767 0.0
C1016 C 0.94199 0.82581 0.73396 0.0
C1017 C 0.91026 0.84148 0.7407 0.0
C1018 C 0.9549 0.81763 0.72045 0.0
C1019 C 0.95147 0.81854 0.7001 0.0
C1020 C 0.92537 0.83454 0.72701 0.0
C1021 C 0.93514 0.82818 0.69383 0.0
C1022 C 0.89051 0.84146 0.73446 0.0
C1023 C 0.90157 0.85264 0.77309 0.0
N1024 N 0.92255 0.83556 0.70723 0.0
N1025 N 0.91522 0.84716 0.75975 0.0
H1026 H 0.05328 0.87158 0.52221 0.0
H1027 H 0.97309 0.85237 0.60483 0.0
H1028 H 0.01174 0.91403 0.53987 0.0
H1029 H 0.02775 0.82391 0.60469 0.0
H1030 H 0.98593 0.87341 0.57899 0.0
H1031 H 0.04332 0.85225 0.55056 0.0
C1032 C 0.04218 0.87693 0.53206 0.0
C1033 C 0.03318 0.89439 0.52844 0.0
C1034 C 0.9952 0.86268 0.5847 0.0
C1035 C 0.02158 0.87217 0.56066 0.0
C1036 C 0.98786 0.85062 0.5994 0.0
C1037 C -0.00062 0.83638 0.60685 0.0
C1038 C 0.01408 0.86026 0.5771 0.0
C1039 C 0.01845 0.83479 0.59935 0.0
C1040 C 0.0365 0.86585 0.5482 0.0
C1041 C 0.01873 0.90043 0.54166 0.0
N1042 N 0.02516 0.84647 0.58467 0.0
N1043 N 0.01328 0.88927 0.55704 0.0
H1044 H 0.15102 0.7696 0.68037 0.0
H1045 H 0.03612 0.74611 0.70281 0.0
H1046 H 0.12777 0.72287 0.71671 0.0
H1047 H 0.0572 0.78901 0.6613 0.0
H1048 H 0.06993 0.73781 0.70803 0.0
H1049 H 0.1171 0.77705 0.6728 0.0
C1050 C 0.1388 0.76082 0.68664 0.0
C1051 C 0.14227 0.74557 0.6992 0.0
C1052 C 0.06722 0.74904 0.69775 0.0
C1053 C 0.10348 0.75407 0.69067 0.0
C1054 C 0.04788 0.75386 0.69482 0.0
C1055 C 0.0438 0.76832 0.68163 0.0
C1056 C 0.08273 0.75879 0.6875 0.0
C1057 C 0.05968 0.77779 0.67164 0.0
C1058 C 0.11945 0.76506 0.68228 0.0
C1059 C 0.12586 0.73456 0.70675 0.0
N1060 N 0.07848 0.77288 0.67481 0.0
N1061 N 0.10723 0.73912 0.70248 0.0
H1062 H 0.94269 0.637 0.58989 0.0
H1063 H 0.94627 0.75518 0.6027 0.0
H1064 H 0.92903 0.6749 0.54328 0.0
H1065 H 0.96626 0.71814 0.64754 0.0
H1066 H 0.9354 0.7255 0.58244 0.0
H1067 H 0.94688 0.66612 0.61281 0.0
C1068 C 0.94032 0.65142 0.58455 0.0
C1069 C 0.93568 0.65358 0.56462 0.0
C1070 C 0.94204 0.72385 0.59677 0.0
C1071 C 0.94062 0.68693 0.59068 0.0
C1072 C 0.94823 0.74081 0.60838 0.0
C1073 C 0.95741 0.73917 0.62678 0.0
C1074 C 0.94505 0.70509 0.60355 0.0
C1075 C 0.95941 0.72012 0.63339 0.0
C1076 C 0.94282 0.66804 0.5976 0.0
C1077 C 0.93295 0.67263 0.55845 0.0
N1078 N 0.95342 0.70381 0.62171 0.0
N1079 N 0.93556 0.68858 0.5714 0.0
H1080 H 0.81228 0.85425 0.26144 0.0
H1081 H 0.81445 0.97108 0.26638 0.0
H1082 H 0.76038 0.88382 0.24668 0.0
H1083 H 0.86479 0.94064 0.24668 0.0
H1084 H 0.79426 0.93926 0.26461 0.0
H1085 H 0.83195 0.88604 0.26136 0.0
C1086 C 0.80497 0.8673 0.25804 0.0
C1087 C 0.78452 0.86616 0.25401 0.0
C1088 C 0.80971 0.93964 0.26059 0.0
C1089 C 0.807 0.90272 0.25456 0.0
C1090 C 0.82122 0.95772 0.26164 0.0
C1091 C 0.84129 0.95846 0.25662 0.0
C1092 C 0.81849 0.9222 0.25497 0.0
C1093 C 0.84934 0.94073 0.25055 0.0
C1094 C 0.81624 0.88546 0.25812 0.0
C1095 C 0.77595 0.88387 0.25027 0.0
N1096 N 0.83796 0.92327 0.2501 0.0
N1097 N 0.7872 0.90142 0.25078 0.0
H1098 H 0.76025 0.12775 0.26512 0.0
H1099 H 0.85843 0.07345 0.24259 0.0
H1100 H 0.80879 0.15513 0.23281 0.0
H1101 H 0.81857 0.05868 0.28991 0.0
H1102 H 0.83904 0.10142 0.23561 0.0
H1103 H 0.77979 0.09978 0.27067 0.0
C1104 C 0.77496 0.12775 0.25899 0.0
C1105 C 0.78291 0.14376 0.24846 0.0
C1106 C 0.83463 0.09206 0.24755 0.0
C1107 C 0.80544 0.11187 0.25492 0.0
C1108 C 0.84566 0.07611 0.25153 0.0
C1109 C 0.84012 0.06375 0.26688 0.0
C1110 C 0.81783 0.09542 0.25881 0.0
C1111 C 0.82344 0.06786 0.27799 0.0
C1112 C 0.78617 0.11188 0.26232 0.0
C1113 C 0.80217 0.14313 0.24112 0.0
N1114 N 0.81284 0.08326 0.27366 0.0
N1115 N 0.8128 0.1274 0.24444 0.0
H1116 H 0.31052 0.02929 0.98286 0.0
H1117 H 0.29308 0.91195 0.97998 0.0
H1118 H 0.35295 0.99162 0.95744 0.0
H1119 H 0.24468 0.94938 0.97704 0.0
H1120 H 0.31637 0.94113 0.97643 0.0
H1121 H 0.28697 9e-05 0.98545 0.0
C1122 C 0.31481 0.01484 0.97781 0.0
C1123 C 0.33358 0.01274 0.96988 0.0
C1124 C 0.30064 0.94288 0.97652 0.0
C1125 C 0.30703 0.97947 0.97304 0.0
C1126 C 0.28737 0.92631 0.97865 0.0
C1127 C 0.26694 0.92829 0.97877 0.0
C1128 C 0.29341 0.96157 0.97491 0.0
C1129 C 0.26032 0.9472 0.97691 0.0
C1130 C 0.30141 -0.00174 0.97922 0.0
C1131 C 0.33851 0.99378 0.96349 0.0
N1132 N 0.27353 0.96317 0.9752 0.0
N1133 N 0.32535 0.97779 0.96537 0.0
H1134 H 0.21605 0.40023 0.3108 0.0
H1135 H 0.18965 0.50895 0.34755 0.0
H1136 H 0.25266 0.43943 0.35066 0.0
H1137 H 0.15606 0.4736 0.30221 0.0
H1138 H 0.21192 0.48275 0.34981 0.0
H1139 H 0.19291 0.42599 0.30847 0.0
C1140 C 0.21916 0.41422 0.31913 0.0
C1141 C 0.23633 0.41771 0.33092 0.0
C1142 C 0.19971 0.48068 0.33934 0.0
C1143 C 0.21001 0.44723 0.32825 0.0
C1144 C 0.18693 0.49565 0.33805 0.0
C1145 C 0.17096 0.49348 0.32464 0.0
C1146 C 0.19651 0.4633 0.32719 0.0
C1147 C 0.16821 0.4759 0.31273 0.0
C1148 C 0.20602 0.42894 0.3177 0.0
C1149 C 0.23975 0.43618 0.3412 0.0
N1150 N 0.18087 0.46145 0.31429 0.0
N1151 N 0.22671 0.4502 0.33966 0.0
H1152 H 0.16523 0.01878 0.45397 0.0
H1153 H 0.1992 0.11997 0.51547 0.0
H1154 H 0.12717 0.05035 0.49286 0.0
H1155 H 0.23876 0.08786 0.47869 0.0
H1156 H 0.17238 0.09506 0.50621 0.0
H1157 H 0.1921 0.04448 0.46162 0.0
C1158 C 0.16251 0.03117 0.46404 0.0
C1159 C 0.14398 0.03238 0.47289 0.0
C1160 C 0.18691 0.09345 0.50013 0.0
C1161 C 0.17461 0.06172 0.48177 0.0
C1162 C 0.20226 0.1077 0.50541 0.0
C1163 C 0.2213 0.10599 0.49789 0.0
C1164 C 0.19056 0.07733 0.48722 0.0
C1165 C 0.22433 0.08976 0.48487 0.0
C1166 C 0.17786 0.04577 0.46847 0.0
C1167 C 0.14131 0.04865 0.48596 0.0
N1168 N 0.20911 0.07602 0.47997 0.0
N1169 N 0.15645 0.06265 0.49 0.0
H1170 H 0.72077 0.15862 0.72536 0.0
H1171 H 0.67032 0.11013 0.81861 0.0
H1172 H 0.71584 0.19178 0.78081 0.0
H1173 H 0.65257 0.09143 0.75887 0.0
H1174 H 0.69134 0.13767 0.80584 0.0
H1175 H 0.69973 0.13117 0.73825 0.0
C1176 C 0.71522 0.16007 0.74025 0.0
C1177 C 0.71992 0.17741 0.75207 0.0
C1178 C 0.68281 0.12751 0.79558 0.0
C1179 C 0.69621 0.14615 0.76693 0.0
C1180 C 0.67093 0.11176 0.80282 0.0
C1181 C 0.65967 0.09852 0.78976 0.0
C1182 C 0.68371 0.12976 0.77515 0.0
C1183 C 0.66093 0.10136 0.76945 0.0
C1184 C 0.70321 0.14449 0.74756 0.0
C1185 C 0.71237 0.17866 0.77124 0.0
N1186 N 0.67283 0.11661 0.76275 0.0
N1187 N 0.70098 0.16314 0.77817 0.0
H1188 H 0.38439 0.0295 0.52992 0.0
H1189 H 0.31767 0.11863 0.55655 0.0
H1190 H 0.38566 0.05942 0.58773 0.0
H1191 H 0.329 0.09691 0.49711 0.0
H1192 H 0.34146 0.09664 0.56891 0.0
H1193 H 0.3628 0.05346 0.51826 0.0
C1194 C 0.38032 0.04123 0.54015 0.0
C1195 C 0.38707 0.04249 0.55983 0.0
C1196 C 0.33881 0.09683 0.55316 0.0
C1197 C 0.36184 0.06988 0.54657 0.0
C1198 C 0.32526 0.10937 0.5461 0.0
C1199 C 0.32128 0.10955 0.52577 0.0
C1200 C 0.34827 0.0843 0.53979 0.0
C1201 C 0.33153 0.09725 0.5129 0.0
C1202 C 0.36786 0.05488 0.53348 0.0
C1203 C 0.38071 0.05774 0.57249 0.0
N1204 N 0.34442 0.08506 0.52014 0.0
N1205 N 0.36842 0.07083 0.56565 0.0
H1206 H 0.61318 0.50766 0.48528 0.0
H1207 H 0.66848 0.41515 0.51839 0.0
H1208 H 0.60416 0.48326 0.54241 0.0
H1209 H 0.66433 0.43241 0.45821 0.0
H1210 H 0.64528 0.43979 0.52813 0.0
H1211 H 0.63278 0.48035 0.47576 0.0
C1212 C 0.61514 0.49647 0.4958 0.0
C1213 C 0.60684 0.49776 0.51466 0.0
C1214 C 0.64932 0.43799 0.51277 0.0
C1215 C 0.62973 0.46646 0.5039 0.0
C1216 C 0.6625 0.4239 0.5072 0.0
C1217 C 0.66847 0.42183 0.48748 0.0
C1218 C 0.64225 0.45011 0.49853 0.0
C1219 C 0.66028 0.43358 0.4736 0.0
C1220 C 0.62644 0.48087 0.49036 0.0
C1221 C 0.61043 0.48302 0.5278 0.0
N1222 N 0.64777 0.4473 0.47942 0.0
N1223 N 0.62166 0.46799 0.52219 0.0
H1224 H 0.74307 0.26593 0.36072 0.0
H1225 H 0.69439 0.35459 0.41962 0.0
H1226 H 0.6989 0.29999 0.33567 0.0
H1227 H 0.73788 0.31981 0.4449 0.0
H1228 H 0.69388 0.33306 0.38963 0.0
H1229 H 0.73965 0.284 0.39241 0.0
C1230 C 0.73255 0.27711 0.36191 0.0
C1231 C 0.72134 0.28152 0.34546 0.0
C1232 C 0.70342 0.33004 0.4018 0.0
C1233 C 0.71746 0.30241 0.38169 0.0
C1234 C 0.70368 0.3423 0.41897 0.0
C1235 C 0.71634 0.33913 0.43477 0.0
C1236 C 0.71595 0.31453 0.40036 0.0
C1237 C 0.72798 0.32292 0.43307 0.0
C1238 C 0.73065 0.28748 0.38 0.0
C1239 C 0.70811 0.29634 0.34785 0.0
N1240 N 0.72762 0.31134 0.41611 0.0
N1241 N 0.70658 0.30629 0.3656 0.0
H1242 H 0.48416 0.0958 0.88412 0.0
H1243 H 0.59138 0.05482 0.87576 0.0
H1244 H 0.51138 0.06678 0.93122 0.0
H1245 H 0.55926 0.07553 0.82669 0.0
H1246 H 0.5635 0.06135 0.8972 0.0
H1247 H 0.51302 0.09091 0.86375 0.0
C1248 C 0.49629 0.08852 0.89023 0.0
C1249 C 0.49538 0.08168 0.90938 0.0
C1250 C 0.56261 0.06447 0.88174 0.0
C1251 C 0.52841 0.07585 0.88609 0.0
C1252 C 0.57852 0.06079 0.86951 0.0
C1253 C 0.57764 0.06457 0.84938 0.0
C1254 C 0.54579 0.0721 0.87379 0.0
C1255 C 0.56059 0.07229 0.84208 0.0
C1256 C 0.51271 0.08562 0.87855 0.0
C1257 C 0.51141 0.07209 0.91644 0.0
N1258 N 0.54538 0.0758 0.85428 0.0
N1259 N 0.52729 0.06947 0.90479 0.0
H1260 H 0.31932 0.25407 0.40112 0.0
H1261 H 0.2576 0.21333 0.49281 0.0
H1262 H 0.26916 0.28164 0.42561 0.0
H1263 H 0.30401 0.18264 0.46456 0.0
H1264 H 0.26327 0.23982 0.46992 0.0
H1265 H 0.3155 0.22908 0.42582 0.0
C1266 C 0.30758 0.25494 0.41179 0.0
C1267 C 0.29452 0.26996 0.41129 0.0
C1268 C 0.27226 0.22732 0.46878 0.0
C1269 C 0.28997 0.24129 0.43952 0.0
C1270 C 0.26907 0.2122 0.48188 0.0
C1271 C 0.28029 0.19566 0.48057 0.0
C1272 C 0.2868 0.22595 0.45426 0.0
C1273 C 0.29495 0.19505 0.46609 0.0
C1274 C 0.30534 0.24061 0.42582 0.0
C1275 C 0.27941 0.27019 0.4253 0.0
N1276 N 0.29773 0.20995 0.45348 0.0
N1277 N 0.27755 0.25608 0.43885 0.0
H1278 H 0.51419 0.46584 0.84121 0.0
H1279 H 0.41659 0.52232 0.82596 0.0
H1280 H 0.48597 0.49728 0.88871 0.0
H1281 H 0.45011 0.49757 0.77822 0.0
H1282 H 0.44187 0.51375 0.84929 0.0
H1283 H 0.49075 0.47759 0.81797 0.0
C1284 C 0.50316 0.47533 0.84676 0.0
C1285 C 0.50207 0.48053 0.86699 0.0
C1286 C 0.44373 0.51034 0.83369 0.0
C1287 C 0.47494 0.49387 0.84041 0.0
C1288 C 0.42933 0.51526 0.82035 0.0
C1289 C 0.43115 0.51056 0.80009 0.0
C1290 C 0.46 0.50056 0.82671 0.0
C1291 C 0.44799 0.50141 0.79369 0.0
C1292 C 0.4897 0.48198 0.83347 0.0
C1293 C 0.48719 0.49261 0.87331 0.0
N1294 N 0.46166 0.4966 0.80695 0.0
N1295 N 0.47418 0.49882 0.86008 0.0
H1296 H 0.75982 0.69722 0.16692 0.0
H1297 H 0.72136 0.68662 0.05479 0.0
H1298 H 0.71132 0.72727 0.14429 0.0
H1299 H 0.77529 0.66324 0.07387 0.0
H1300 H 0.71605 0.69901 0.08843 0.0
H1301 H 0.76447 0.6823 0.1338 0.0
C1302 C 0.75014 0.70068 0.15503 0.0
C1303 C 0.73513 0.71353 0.15846 0.0
C1304 C 0.72906 0.69116 0.08533 0.0
C1305 C 0.74027 0.69636 0.12061 0.0
C1306 C 0.7321 0.68404 0.06608 0.0
C1307 C 0.74886 0.67395 0.06147 0.0
C1308 C 0.74285 0.68818 0.10019 0.0
C1309 C 0.76221 0.67101 0.07677 0.0
C1310 C 0.75276 0.69209 0.13616 0.0
C1311 C 0.72286 0.71722 0.14251 0.0
N1312 N 0.75893 0.67814 0.09548 0.0
N1313 N 0.72574 0.70872 0.12434 0.0
H1314 H 0.95327 0.07228 0.11868 0.0
H1315 H 0.93091 0.99126 0.19921 0.0
H1316 H 0.98102 0.0173 0.12087 0.0
H1317 H 0.90339 0.04658 0.20065 0.0
H1318 H 0.94875 0.0009 0.16992 0.0
H1319 H 0.93463 0.06374 0.1484 0.0
C1320 C 0.95549 0.05847 0.12543 0.0
C1321 C 0.96857 0.04538 0.11716 0.0
C1322 C 0.93882 0.01099 0.17656 0.0
C1323 C 0.94729 0.03551 0.15095 0.0
C1324 C 0.92857 0.00547 0.19333 0.0
C1325 C 0.91564 0.01815 0.20243 0.0
C1326 C 0.93622 0.02939 0.1687 0.0
C1327 C 0.91323 0.03636 0.19407 0.0
C1328 C 0.94479 0.05358 0.14231 0.0
C1329 C 0.9708 0.02766 0.12646 0.0
N1330 N 0.92347 0.04148 0.17765 0.0
N1331 N 0.96027 0.02327 0.14277 0.0
H1332 H 0.21988 0.7969 0.13182 0.0
H1333 H 0.27498 0.84776 0.04241 0.0
H1334 H 0.28154 0.81841 0.13404 0.0
H1335 H 0.21184 0.84835 0.04952 0.0
H1336 H 0.27742 0.83419 0.07485 0.0
H1337 H 0.21625 0.81308 0.10054 0.0
C1338 C 0.2326 0.8051 0.12575 0.0
C1339 C 0.25104 0.80635 0.13548 0.0
C1340 C 0.26304 0.83737 0.06938 0.0
C1341 C 0.24705 0.82463 0.09982 0.0
C1342 C 0.26161 0.84502 0.05082 0.0
C1343 C 0.24317 0.84914 0.04326 0.0
C1344 C 0.24587 0.83348 0.0804 0.0
C1345 C 0.22635 0.84541 0.05485 0.0
C1346 C 0.2305 0.81438 0.108 0.0
C1347 C 0.26704 0.81723 0.1271 0.0
N1348 N 0.22807 0.8376 0.07282 0.0
N1349 N 0.26472 0.82579 0.10966 0.0
H1350 H 0.99141 0.51654 0.18149 0.0
H1351 H 0.08441 0.49311 0.24738 0.0
H1352 H 0.02049 0.46238 0.17339 0.0
H1353 H 0.0531 0.54595 0.25462 0.0
H1354 H 0.06135 0.48107 0.22049 0.0
H1355 H 0.01383 0.52689 0.20887 0.0
C1356 C 0.00237 0.50668 0.18562 0.0
C1357 C 0.00396 0.48849 0.17515 0.0
C1358 C 0.05958 0.49529 0.22801 0.0
C1359 C 0.03011 0.50051 0.20641 0.0
C1360 C 0.07273 0.50217 0.24332 0.0
C1361 C 0.0707 0.52057 0.25324 0.0
C1362 C 0.04435 0.50694 0.22264 0.0
C1363 C 0.05528 0.53169 0.24741 0.0
C1364 C 0.01532 0.51269 0.20119 0.0
C1365 C 0.01883 0.47661 0.18093 0.0
N1366 N 0.04276 0.52471 0.23253 0.0
N1367 N 0.03136 0.48283 0.19617 0.0
H1368 H 0.37947 0.74175 0.26166 0.0
H1369 H 0.44674 0.81382 0.33521 0.0
H1370 H 0.36116 0.79853 0.28317 0.0
H1371 H 0.44235 0.75026 0.33941 0.0
H1372 H 0.42059 0.81009 0.30976 0.0
H1373 H 0.40799 0.74647 0.28408 0.0
C1374 C 0.38135 0.75521 0.27103 0.0
C1375 C 0.36756 0.76962 0.27063 0.0
C1376 C 0.42549 0.797 0.31622 0.0
C1377 C 0.40065 0.77529 0.29579 0.0
C1378 C 0.44041 0.79908 0.33063 0.0
C1379 C 0.44659 0.78231 0.33947 0.0
C1380 C 0.41708 0.778 0.31031 0.0
C1381 C 0.43787 0.76357 0.33307 0.0
C1382 C 0.39773 0.75789 0.28371 0.0
C1383 C 0.37136 0.78705 0.2827 0.0
N1384 N 0.42359 0.7619 0.31879 0.0
N1385 N 0.38754 0.78939 0.2948 0.0
H1386 H 0.94309 0.40975 0.99282 0.0
H1387 H 0.96997 0.30202 0.95633 0.0
H1388 H 0.96383 0.36902 0.03358 0.0
H1389 H 0.98096 0.35295 0.92107 0.0
H1390 H 0.96114 0.32417 0.98411 0.0
H1391 H 0.95003 0.38652 0.96532 0.0
C1392 C 0.94889 0.39579 0.99594 0.0
C1393 C 0.95293 0.39121 0.0154 0.0
C1394 C 0.96549 0.33041 0.97025 0.0
C1395 C 0.96076 0.36469 0.9842 0.0
C1396 C 0.97045 0.31783 0.95443 0.0
C1397 C 0.97627 0.32571 0.93644 0.0
C1398 C 0.9659 0.35088 0.96785 0.0
C1399 C 0.97669 0.34629 0.93474 0.0
C1400 C 0.95296 0.38266 0.9803 0.0
C1401 C 0.96062 0.37305 0.01872 0.0
N1402 N 0.97143 0.35817 0.95021 0.0
N1403 N 0.96422 0.36034 0.00324 0.0
H1404 H 0.62493 0.79412 0.28265 0.0
H1405 H 0.55193 0.76754 0.37047 0.0
H1406 H 0.64076 0.75641 0.3286 0.0
H1407 H 0.54907 0.81978 0.33702 0.0
H1408 H 0.58287 0.76087 0.35385 0.0
H1409 H 0.59501 0.80106 0.30063 0.0
C1410 C 0.62199 0.78718 0.29648 0.0
C1411 C 0.63524 0.77459 0.30412 0.0
C1412 C 0.57549 0.77384 0.35028 0.0
C1413 C 0.6011 0.78254 0.32483 0.0
C1414 C 0.55785 0.77764 0.35971 0.0
C1415 C 0.54791 0.79423 0.35509 0.0
C1416 C 0.58303 0.78655 0.33593 0.0
C1417 C 0.55624 0.80685 0.34106 0.0
C1418 C 0.60502 0.79127 0.30681 0.0
C1419 C 0.63091 0.76624 0.32226 0.0
N1420 N 0.57322 0.80265 0.33187 0.0
N1421 N 0.6141 0.77026 0.33198 0.0
H1422 H 0.99188 0.12738 0.95548 0.0
H1423 H 0.02688 0.2357 0.92134 0.0
H1424 H 0.04257 0.1622 0.98123 0.0
H1425 H 0.96659 0.21009 0.91562 0.0
H1426 H 0.03556 0.2063 0.93812 0.0
H1427 H 0.98514 0.1552 0.93547 0.0
C1428 C 0.00169 0.14083 0.95676 0.0
C1429 C 0.01776 0.14257 0.97004 0.0
C1430 C 0.02047 0.20713 0.93308 0.0
C1431 C 0.01018 0.17435 0.94723 0.0
C1432 C 0.01553 0.22381 0.92343 0.0
C1433 C 0.99597 0.22535 0.91719 0.0
C1434 C 0.0058 0.19179 0.93619 0.0
C1435 C 0.98182 0.20956 0.92032 0.0
C1436 C 0.99778 0.15671 0.94544 0.0
C1437 C 0.02992 0.16038 0.97128 0.0
N1438 N 0.98702 0.19342 0.92958 0.0
N1439 N 0.02591 0.1756 0.95998 0.0
H1440 H 0.36275 0.32982 0.24167 0.0
H1441 H 0.47005 0.30204 0.21766 0.0
H1442 H 0.4086 0.34 0.28657 0.0
H1443 H 0.43468 0.3293 0.17515 0.0
H1444 H 0.44694 0.31144 0.24359 0.0
H1445 H 0.38804 0.325 0.21712 0.0
C1446 C 0.37808 0.33133 0.24645 0.0
C1447 C 0.38339 0.33552 0.26639 0.0
C1448 C 0.44447 0.31552 0.22859 0.0
C1449 C 0.41242 0.32916 0.23819 0.0
C1450 C 0.45756 0.31014 0.21383 0.0
C1451 C 0.45424 0.31486 0.19423 0.0
C1452 C 0.42774 0.32517 0.22355 0.0
C1453 C 0.43785 0.3254 0.19005 0.0
C1454 C 0.39251 0.32841 0.23236 0.0
C1455 C 0.40363 0.3365 0.27152 0.0
N1456 N 0.42504 0.32993 0.20453 0.0
N1457 N 0.41741 0.33315 0.25754 0.0
H1458 H 0.56048 0.36848 0.01512 0.0
H1459 H 0.48311 0.36272 0.10205 0.0
H1460 H 0.52454 0.41623 0.0319 0.0
H1461 H 0.53153 0.3252 0.09833 0.0
H1462 H 0.49792 0.38218 0.0759 0.0
H1463 H 0.55004 0.35189 0.04498 0.0
C1464 C 0.55054 0.37557 0.02512 0.0
C1465 C 0.54319 0.39369 0.0208 0.0
C1466 C 0.50546 0.36984 0.08093 0.0
C1467 C 0.53104 0.37466 0.05484 0.0
C1468 C 0.49699 0.35872 0.09585 0.0
C1469 C 0.50608 0.3423 0.10228 0.0
C1470 C 0.52296 0.3643 0.07209 0.0
C1471 C 0.52409 0.3378 0.0938 0.0
C1472 C 0.54457 0.36606 0.04214 0.0
C1473 C 0.5302 0.40205 0.03427 0.0
N1474 N 0.53183 0.34859 0.0789 0.0
N1475 N 0.52443 0.3924 0.05056 0.0
H1476 H 0.64513 0.27914 0.20318 0.0
H1477 H 0.53806 0.23724 0.17074 0.0
H1478 H 0.63334 0.21896 0.17912 0.0
H1479 H 0.5579 0.29839 0.16256 0.0
H1480 H 0.57229 0.23026 0.17707 0.0
H1481 H 0.61291 0.28682 0.19095 0.0
C1482 C 0.63603 0.26758 0.19505 0.0
C1483 C 0.64212 0.24825 0.19235 0.0
C1484 C 0.56916 0.24516 0.17373 0.0
C1485 C 0.60479 0.25696 0.17895 0.0
C1486 C 0.54965 0.24919 0.17026 0.0
C1487 C 0.54518 0.26844 0.16621 0.0
C1488 C 0.58426 0.26058 0.17364 0.0
C1489 C 0.56076 0.28335 0.16561 0.0
C1490 C 0.61753 0.27201 0.18819 0.0
C1491 C 0.62923 0.23391 0.18206 0.0
N1492 N 0.57964 0.27917 0.16957 0.0
N1493 N 0.61108 0.23848 0.176 0.0
H1494 H 0.40773 0.19927 0.02305 0.0
H1495 H 0.46349 0.22416 0.12671 0.0
H1496 H 0.4271 0.15498 0.06073 0.0
H1497 H 0.4437 0.26889 0.08974 0.0
H1498 H 0.44802 0.19855 0.10373 0.0
H1499 H 0.41866 0.22499 0.04831 0.0
C1500 C 0.41418 0.19496 0.03667 0.0
C1501 C 0.41656 0.17496 0.03975 0.0
C1502 C 0.44696 0.21396 0.10069 0.0
C1503 C 0.42906 0.20424 0.06869 0.0
C1504 C 0.45582 0.22861 0.11381 0.0
C1505 C 0.45503 0.24871 0.11008 0.0
C1506 C 0.4373 0.21943 0.08366 0.0
C1507 C 0.44477 0.25358 0.09317 0.0
C1508 C 0.42035 0.20962 0.05111 0.0
C1509 C 0.42476 0.17017 0.05779 0.0
N1510 N 0.43641 0.23903 0.08052 0.0
N1511 N 0.43084 0.18471 0.0715 0.0
H1512 H 0.26281 0.39198 0.74873 0.0
H1513 H 0.36887 0.44796 0.7399 0.0
H1514 H 0.31606 0.36417 0.76264 0.0
H1515 H 0.32082 0.4783 0.76532 0.0
H1516 H 0.34802 0.41669 0.73971 0.0
H1517 H 0.28257 0.42366 0.74723 0.0
C1518 C 0.27856 0.39242 0.75159 0.0
C1519 C 0.28766 0.37516 0.75592 0.0
C1520 C 0.34206 0.43025 0.74519 0.0
C1521 C 0.31033 0.41133 0.75334 0.0
C1522 C 0.35385 0.44808 0.74519 0.0
C1523 C 0.34654 0.4657 0.75271 0.0
C1524 C 0.32272 0.43013 0.75232 0.0
C1525 C 0.32702 0.465 0.75951 0.0
C1526 C 0.2898 0.41052 0.75056 0.0
C1527 C 0.3083 0.37681 0.75886 0.0
N1528 N 0.31569 0.44746 0.75907 0.0
N1529 N 0.31893 0.39452 0.75738 0.0
H1530 H 0.31699 0.66118 0.72993 0.0
H1531 H 0.33006 0.5661 0.79207 0.0
H1532 H 0.27126 0.63449 0.76621 0.0
H1533 H 0.3659 0.57934 0.74135 0.0
H1534 H 0.31084 0.59402 0.78552 0.0
H1535 H 0.33737 0.63376 0.73628 0.0
C1536 C 0.31124 0.64951 0.73916 0.0
C1537 C 0.29238 0.65001 0.74747 0.0
C1538 C 0.32293 0.59084 0.77584 0.0
C1539 C 0.31562 0.6189 0.75498 0.0
C1540 C 0.334 0.57497 0.77963 0.0
C1541 C 0.34959 0.57035 0.7672 0.0
C1542 C 0.32757 0.60234 0.75962 0.0
C1543 C 0.35396 0.58236 0.75127 0.0
C1544 C 0.32283 0.63389 0.74273 0.0
C1545 C 0.2856 0.63453 0.7593 0.0
N1546 N 0.34301 0.59785 0.74794 0.0
N1547 N 0.29725 0.61969 0.7628 0.0
H1548 H 0.86587 0.48012 0.46392 0.0
H1549 H 0.75054 0.44979 0.47392 0.0
H1550 H 0.82594 0.51983 0.49053 0.0
H1551 H 0.7946 0.40733 0.47548 0.0
H1552 H 0.77708 0.47653 0.4729 0.0
H1553 H 0.8386 0.45404 0.4608 0.0
C1554 C 0.85128 0.48337 0.46887 0.0
C1555 C 0.84806 0.50204 0.47754 0.0
C1556 C 0.78086 0.46133 0.47338 0.0
C1557 C 0.81699 0.47249 0.47398 0.0
C1558 C 0.76578 0.44609 0.47387 0.0
C1559 C 0.77042 0.42636 0.4749 0.0
C1560 C 0.80064 0.45672 0.47353 0.0
C1561 C 0.7904 0.42237 0.47486 0.0
C1562 C 0.83582 0.46851 0.4672 0.0
C1563 C 0.82897 0.50554 0.48389 0.0
N1564 N 0.8048 0.43744 0.47414 0.0
N1565 N 0.81408 0.49087 0.48195 0.0
H1566 H 0.71117 0.91528 0.81085 0.0
H1567 H 0.68089 0.01972 0.85637 0.0
H1568 H 0.74523 0.95105 0.8555 0.0
H1569 H 0.65219 0.9898 0.80486 0.0
H1570 H 0.70256 0.9929 0.85813 0.0
H1571 H 0.68749 0.94072 0.81025 0.0
C1572 C 0.7136 0.92844 0.8206 0.0
C1573 C 0.73023 0.93111 0.83319 0.0
C1574 C 0.69151 0.99215 0.84645 0.0
C1575 C 0.70328 0.96022 0.83255 0.0
C1576 C 0.67906 0.00745 0.84547 0.0
C1577 C 0.66474 0.00706 0.83039 0.0
C1578 C 0.68963 0.97624 0.8323 0.0
C1579 C 0.66307 0.99074 0.8167 0.0
C1580 C 0.70015 0.94297 0.82017 0.0
C1581 C 0.73276 0.94851 0.84537 0.0
N1582 N 0.67541 0.97597 0.81796 0.0
N1583 N 0.71943 0.96237 0.84476 0.0
H1584 H 0.67689 0.51177 0.93719 0.0
H1585 H 0.70478 0.61632 0.99513 0.0
H1586 H 0.63694 0.54271 0.97448 0.0
H1587 H 0.74692 0.58559 0.96032 0.0
H1588 H 0.67943 0.58996 0.98604 0.0
H1589 H 0.70243 0.53917 0.94377 0.0
C1590 C 0.67348 0.52436 0.94668 0.0
C1591 C 0.65485 0.52489 0.95546 0.0
C1592 C 0.69419 0.58895 0.98033 0.0
C1593 C 0.68387 0.55614 0.96306 0.0
C1594 C 0.70872 0.60404 0.98552 0.0
C1595 C 0.72807 0.60315 0.97856 0.0
C1596 C 0.69896 0.57273 0.96808 0.0
C1597 C 0.73221 0.58686 0.96606 0.0
C1598 C 0.68806 0.53992 0.95049 0.0
C1599 C 0.65122 0.54149 0.96771 0.0
N1600 N 0.71777 0.57223 0.96126 0.0
N1601 N 0.66559 0.55639 0.97115 0.0
H1602 H 0.23033 0.66574 0.27818 0.0
H1603 H 0.12934 0.59585 0.26893 0.0
H1604 H 0.18378 0.67442 0.23654 0.0
H1605 H 0.17731 0.58703 0.30895 0.0
H1606 H 0.14823 0.62539 0.25767 0.0
H1607 H 0.21026 0.63762 0.29047 0.0
C1608 C 0.21588 0.66168 0.27157 0.0
C1609 C 0.20879 0.67233 0.25617 0.0
C1610 C 0.15458 0.617 0.26894 0.0
C1611 C 0.1856 0.64017 0.27032 0.0
C1612 C 0.14381 0.60012 0.27538 0.0
C1613 C 0.15176 0.58889 0.28988 0.0
C1614 C 0.17342 0.62268 0.27707 0.0
C1615 C 0.17058 0.59517 0.29771 0.0
C1616 C 0.20438 0.64566 0.27867 0.0
C1617 C 0.18977 0.66667 0.24849 0.0
N1618 N 0.18075 0.6116 0.29118 0.0
N1619 N 0.17886 0.65089 0.25558 0.0
H1620 H 0.91028 0.56239 0.0356 0.0
H1621 H 0.80918 0.61515 0.04322 0.0
H1622 H 0.8642 0.54573 0.07663 0.0
H1623 H 0.84453 0.6132 0.99065 0.0
H1624 H 0.83276 0.59553 0.05955 0.0
H1625 H 0.88957 0.58676 0.0228 0.0
C1626 C 0.89583 0.56381 0.04195 0.0
C1627 C 0.88891 0.55169 0.05706 0.0
C1628 C 0.8354 0.59958 0.0445 0.0
C1629 C 0.86533 0.57997 0.0427 0.0
C1630 C 0.82204 0.61084 0.03522 0.0
C1631 C 0.82485 0.61566 0.01551 0.0
C1632 C 0.8518 0.59338 0.03407 0.0
C1633 C 0.84172 0.60966 0.0058 0.0
C1634 C 0.88408 0.57783 0.03469 0.0
C1635 C 0.87027 0.55476 0.06507 0.0
N1636 N 0.85454 0.5988 0.01517 0.0
N1637 N 0.85909 0.56852 0.05773 0.0
H1638 H 0.10208 0.9957 0.9789 0.0
H1639 H 0.16226 0.90863 0.01728 0.0
H1640 H 0.09128 0.97082 0.03556 0.0
H1641 H 0.16178 0.92574 0.95685 0.0
H1642 H 0.13621 0.93091 0.02469 0.0
H1643 H 0.12421 0.97002 0.97094 0.0
C1644 C 0.10417 0.98473 0.98962 0.0
C1645 C 0.09471 0.98548 0.00794 0.0
C1646 C 0.1417 0.92959 0.00978 0.0
C1647 C 0.12049 0.95611 -0.00098 0.0
C1648 C 0.15651 0.91685 0.00553 0.0
C1649 C 0.16431 0.91543 0.98645 0.0
C1650 C 0.1348 0.94105 0.99486 0.0
C1651 C 0.15634 0.92644 0.9718 0.0
C1652 C 0.11692 0.97008 0.98509 0.0
C1653 C 0.09845 0.97104 0.02137 0.0
N1654 N 0.14218 0.93889 0.97636 0.0
N1655 N 0.11112 0.95701 0.01668 0.0
loop_
_geom_bond_atom_site_label_1
_geom_bond_atom_site_label_2
_geom_bond_distance
_geom_bond_site_symmetry_2
_ccdc_geom_bond_type
C0 C1 1.386 . S
C0 C2 1.397 . S
C0 H24 0.931 . S
C1 C0 1.386 . S
C1 C5 1.397 . S
C2 C0 1.397 . S
C2 C3 1.384 . S
C2 H25 0.930 . S
C3 C2 1.384 . S
C3 C4 1.377 . S
C3 C6 1.481 . S
C4 C3 1.377 . S
C4 C5 1.389 . S
C4 H26 0.929 . S
C5 C1 1.397 . S
C5 C4 1.389 . S
C5 H27 0.931 . S
C6 C3 1.481 . S
C6 C7 1.387 . S
C6 C11 1.390 . S
C7 C6 1.387 . S
C7 C8 1.401 . S
C7 H28 0.930 . S
C8 C7 1.401 . S
C8 C9 1.376 . S
C8 C17 1.511 . S
C9 C8 1.376 . S
C9 C10 1.392 . S
C9 H30 0.931 . S
C10 C9 1.392 . S
C10 C11 1.361 . S
C10 C12 1.500 . S
C11 C6 1.390 . S
C11 C10 1.361 . S
C11 H29 0.931 . S
C12 C10 1.500 . S
C12 C13 1.371 . S
C12 C14 1.365 . S
C13 C12 1.371 . S
C13 C23 1.386 . S
C13 H31 0.931 . S
C14 C12 1.365 . S
C14 C15 1.409 . S
C14 H32 0.929 . S
C15 C14 1.409 . S
C15 C16 1.380 . S
C15 H33 0.930 . S
C16 C15 1.380 . S
C16 C23 1.357 . S
C17 C8 1.511 . S
C17 C18 1.341 . S
C17 C19 1.371 . S
C18 C17 1.341 . S
C18 C22 1.394 . S
C18 H34 0.930 . S
C19 C17 1.371 . S
C19 C20 1.392 . S
C19 H35 0.931 . S
C20 C19 1.392 . S
C20 C21 1.331 . S
C20 H38 0.932 . S
C21 C20 1.331 . S
C21 C22 1.336 . S
C22 C18 1.394 . S
C22 C21 1.336 . S
C22 H37 0.929 . S
C23 C13 1.386 . S
C23 C16 1.357 . S
C23 H36 0.928 . S
H24 C0 0.931 . S
H25 C2 0.930 . S
H26 C4 0.929 . S
H27 C5 0.931 . S
H28 C7 0.930 . S
H29 C11 0.931 . S
H30 C9 0.931 . S
H31 C13 0.931 . S
H32 C14 0.929 . S
H33 C15 0.930 . S
H34 C18 0.930 . S
H35 C19 0.931 . S
H36 C23 0.928 . S
H37 C22 0.929 . S
H38 C20 0.932 . S
C39 C40 1.386 . S
C39 C41 1.397 . S
C39 H63 0.931 . S
C40 C39 1.386 . S
C40 C44 1.397 . S
C41 C39 1.397 . S
C41 C42 1.384 . S
C41 H64 0.930 . S
C42 C41 1.384 . S
C42 C43 1.377 . S
C42 C45 1.481 . S
C43 C42 1.377 . S
C43 C44 1.389 . S
C43 H65 0.929 . S
C44 C40 1.397 . S
C44 C43 1.389 . S
C44 H66 0.931 . S
C45 C42 1.481 . S
C45 C46 1.387 . S
C45 C50 1.390 . S
C46 C45 1.387 . S
C46 C47 1.401 . S
C46 H67 0.930 . S
C47 C46 1.401 . S
C47 C48 1.376 . S
C47 C56 1.511 . S
C48 C47 1.376 . S
C48 C49 1.392 . S
C48 H69 0.931 . S
C49 C48 1.392 . S
C49 C50 1.361 . S
C49 C51 1.500 . S
C50 C45 1.390 . S
C50 C49 1.361 . S
C50 H68 0.931 . S
C51 C49 1.500 . S
C51 C52 1.371 . S
C51 C53 1.365 . S
C52 C51 1.371 . S
C52 C62 1.386 . S
C52 H70 0.931 . S
C53 C51 1.365 . S
C53 C54 1.409 . S
C53 H71 0.929 . S
C54 C53 1.409 . S
C54 C55 1.380 . S
C54 H72 0.930 . S
C55 C54 1.380 . S
C55 C62 1.357 . S
C56 C47 1.511 . S
C56 C57 1.341 . S
C56 C58 1.371 . S
C57 C56 1.341 . S
C57 C61 1.394 . S
C57 H73 0.930 . S
C58 C56 1.371 . S
C58 C59 1.392 . S
C58 H74 0.931 . S
C59 C58 1.392 . S
C59 C60 1.331 . S
C59 H77 0.932 . S
C60 C59 1.331 . S
C60 C61 1.336 . S
C61 C57 1.394 . S
C61 C60 1.336 . S
C61 H76 0.929 . S
C62 C52 1.386 . S
C62 C55 1.357 . S
C62 H75 0.928 . S
H63 C39 0.931 . S
H64 C41 0.930 . S
H65 C43 0.929 . S
H66 C44 0.931 . S
H67 C46 0.930 . S
H68 C50 0.931 . S
H69 C48 0.931 . S
H70 C52 0.931 . S
H71 C53 0.929 . S
H72 C54 0.930 . S
H73 C57 0.930 . S
H74 C58 0.931 . S
H75 C62 0.928 . S
H76 C61 0.929 . S
H77 C59 0.932 . S
C78 C79 1.386 . S
C78 C80 1.397 . S
C78 H102 0.931 . S
C79 C78 1.386 . S
C79 C83 1.397 . S
C80 C78 1.397 . S
C80 C81 1.384 . S
C80 H103 0.930 . S
C81 C80 1.384 . S
C81 C82 1.377 . S
C81 C84 1.481 . S
C82 C81 1.377 . S
C82 C83 1.389 . S
C82 H104 0.929 . S
C83 C79 1.397 . S
C83 C82 1.389 . S
C83 H105 0.931 . S
C84 C81 1.481 . S
C84 C85 1.387 . S
C84 C89 1.390 . S
C85 C84 1.387 . S
C85 C86 1.401 . S
C85 H106 0.930 . S
C86 C85 1.401 . S
C86 C87 1.376 . S
C86 C95 1.511 . S
C87 C86 1.376 . S
C87 C88 1.392 . S
C87 H108 0.931 . S
C88 C87 1.392 . S
C88 C89 1.361 . S
C88 C90 1.500 . S
C89 C84 1.390 . S
C89 C88 1.361 . S
C89 H107 0.931 . S
C90 C88 1.500 . S
C90 C91 1.371 . S
C90 C92 1.365 . S
C91 C90 1.371 . S
C91 C101 1.386 . S
C91 H109 0.931 . S
C92 C90 1.365 . S
C92 C93 1.409 . S
C92 H110 0.929 . S
C93 C92 1.409 . S
C93 C94 1.380 . S
C93 H111 0.930 . S
C94 C93 1.380 . S
C94 C101 1.357 . S
C95 C86 1.511 . S
C95 C96 1.341 . S
C95 C97 1.371 . S
C96 C95 1.341 . S
C96 C100 1.394 . S
C96 H112 0.930 . S
C97 C95 1.371 . S
C97 C98 1.392 . S
C97 H113 0.931 . S
C98 C97 1.392 . S
C98 C99 1.331 . S
C98 H116 0.932 . S
C99 C98 1.331 . S
C99 C100 1.336 . S
C100 C96 1.394 . S
C100 C99 1.336 . S
C100 H115 0.929 . S
C101 C91 1.386 . S
C101 C94 1.357 . S
C101 H114 0.928 . S
H102 C78 0.931 . S
H103 C80 0.930 . S
H104 C82 0.929 . S
H105 C83 0.931 . S
H106 C85 0.930 . S
H107 C89 0.931 . S
H108 C87 0.931 . S
H109 C91 0.931 . S
H110 C92 0.929 . S
H111 C93 0.930 . S
H112 C96 0.930 . S
H113 C97 0.931 . S
H114 C101 0.928 . S
H115 C100 0.929 . S
H116 C98 0.932 . S
C117 C118 1.386 . S
C117 C119 1.397 . S
C117 H141 0.931 . S
C118 C117 1.386 . S
C118 C122 1.397 . S
C119 C117 1.397 . S
C119 C120 1.384 . S
C119 H142 0.930 . S
C120 C119 1.384 . S
C120 C121 1.377 . S
C120 C123 1.481 . S
C121 C120 1.377 . S
C121 C122 1.389 . S
C121 H143 0.929 . S
C122 C118 1.397 . S
C122 C121 1.389 . S
C122 H144 0.931 . S
C123 C120 1.481 . S
C123 C124 1.387 . S
C123 C128 1.390 . S
C124 C123 1.387 . S
C124 C125 1.401 . S
C124 H145 0.930 . S
C125 C124 1.401 . S
C125 C126 1.376 . S
C125 C134 1.511 . S
C126 C125 1.376 . S
C126 C127 1.392 . S
C126 H147 0.931 . S
C127 C126 1.392 . S
C127 C128 1.361 . S
C127 C129 1.500 . S
C128 C123 1.390 . S
C128 C127 1.361 . S
C128 H146 0.931 . S
C129 C127 1.500 . S
C129 C130 1.371 . S
C129 C131 1.365 . S
C130 C129 1.371 . S
C130 C140 1.386 . S
C130 H148 0.931 . S
C131 C129 1.365 . S
C131 C132 1.409 . S
C131 H149 0.929 . S
C132 C131 1.409 . S
C132 C133 1.380 . S
C132 H150 0.930 . S
C133 C132 1.380 . S
C133 C140 1.357 . S
C134 C125 1.511 . S
C134 C135 1.341 . S
C134 C136 1.371 . S
C135 C134 1.341 . S
C135 C139 1.394 . S
C135 H151 0.930 . S
C136 C134 1.371 . S
C136 C137 1.392 . S
C136 H152 0.931 . S
C137 C136 1.392 . S
C137 C138 1.331 . S
C137 H155 0.932 . S
C138 C137 1.331 . S
C138 C139 1.336 . S
C139 C135 1.394 . S
C139 C138 1.336 . S
C139 H154 0.929 . S
C140 C130 1.386 . S
C140 C133 1.357 . S
C140 H153 0.928 . S
H141 C117 0.931 . S
H142 C119 0.930 . S
H143 C121 0.929 . S
H144 C122 0.931 . S
H145 C124 0.930 . S
H146 C128 0.931 . S
H147 C126 0.931 . S
H148 C130 0.931 . S
H149 C131 0.929 . S
H150 C132 0.930 . S
H151 C135 0.930 . S
H152 C136 0.931 . S
H153 C140 0.928 . S
H154 C139 0.929 . S
H155 C137 0.932 . S
C156 C157 1.386 . S
C156 C158 1.397 . S
C156 H180 0.931 . S
C157 C156 1.386 . S
C157 C161 1.397 . S
C158 C156 1.397 . S
C158 C159 1.384 . S
C158 H181 0.930 . S
C159 C158 1.384 . S
C159 C160 1.377 . S
C159 C162 1.481 . S
C160 C159 1.377 . S
C160 C161 1.389 . S
C160 H182 0.929 . S
C161 C157 1.397 . S
C161 C160 1.389 . S
C161 H183 0.931 . S
C162 C159 1.481 . S
C162 C163 1.387 . S
C162 C167 1.390 . S
C163 C162 1.387 . S
C163 C164 1.401 . S
C163 H184 0.930 . S
C164 C163 1.401 . S
C164 C165 1.376 . S
C164 C173 1.511 . S
C165 C164 1.376 . S
C165 C166 1.392 . S
C165 H186 0.931 . S
C166 C165 1.392 . S
C166 C167 1.361 . S
C166 C168 1.500 . S
C167 C162 1.390 . S
C167 C166 1.361 . S
C167 H185 0.931 . S
C168 C166 1.500 . S
C168 C169 1.371 . S
C168 C170 1.365 . S
C169 C168 1.371 . S
C169 C179 1.386 . S
C169 H187 0.931 . S
C170 C168 1.365 . S
C170 C171 1.403 1_565 S
C170 H188 0.929 . S
C171 C170 1.403 1_545 S
C171 C172 1.381 . S
C171 H189 0.935 . S
C172 C171 1.381 . S
C172 C179 1.357 1_545 S
C173 C164 1.511 . S
C173 C174 1.341 . S
C173 C175 1.371 . S
C174 C173 1.341 . S
C174 C178 1.394 . S
C174 H190 0.930 . S
C175 C173 1.371 . S
C175 C176 1.392 . S
C175 H191 0.931 . S
C176 C175 1.392 . S
C176 C177 1.331 . S
C176 H194 0.932 . S
C177 C176 1.331 . S
C177 C178 1.336 . S
C178 C174 1.394 . S
C178 C177 1.336 . S
C178 H193 0.929 . S
C179 C169 1.386 . S
C179 C172 1.357 1_565 S
C179 H192 0.928 . S
H180 C156 0.931 . S
H181 C158 0.930 . S
H182 C160 0.929 . S
H183 C161 0.931 . S
H184 C163 0.930 . S
H185 C167 0.931 . S
H186 C165 0.931 . S
H187 C169 0.931 . S
H188 C170 0.929 . S
H189 C171 0.935 . S
H190 C174 0.930 . S
H191 C175 0.931 . S
H192 C179 0.928 . S
H193 C178 0.929 . S
H194 C176 0.932 . S
C195 C196 1.386 . S
C195 C197 1.397 . S
C195 H219 0.931 . S
C196 C195 1.386 . S
C196 C200 1.397 . S
C197 C195 1.397 . S
C197 C198 1.384 . S
C197 H220 0.930 . S
C198 C197 1.384 . S
C198 C199 1.377 . S
C198 C201 1.481 . S
C199 C198 1.377 . S
C199 C200 1.389 . S
C199 H221 0.929 . S
C200 C196 1.397 . S
C200 C199 1.389 . S
C200 H222 0.931 . S
C201 C198 1.481 . S
C201 C202 1.387 . S
C201 C206 1.390 . S
C202 C201 1.387 . S
C202 C203 1.401 . S
C202 H223 0.930 . S
C203 C202 1.401 . S
C203 C204 1.376 . S
C203 C212 1.511 . S
C204 C203 1.376 . S
C204 C205 1.392 . S
C204 H225 0.931 . S
C205 C204 1.392 . S
C205 C206 1.361 . S
C205 C207 1.500 . S
C206 C201 1.390 . S
C206 C205 1.361 . S
C206 H224 0.931 . S
C207 C205 1.500 . S
C207 C208 1.371 . S
C207 C209 1.365 . S
C208 C207 1.371 . S
C208 C218 1.386 . S
C208 H226 0.931 . S
C209 C207 1.365 . S
C209 C210 1.409 . S
C209 H227 0.929 . S
C210 C209 1.409 . S
C210 C211 1.380 . S
C210 H228 0.930 . S
C211 C210 1.380 . S
C211 C218 1.357 . S
C212 C203 1.511 . S
C212 C213 1.341 . S
C212 C214 1.371 . S
C213 C212 1.341 . S
C213 C217 1.394 . S
C213 H229 0.930 . S
C214 C212 1.371 . S
C214 C215 1.392 . S
C214 H230 0.931 . S
C215 C214 1.392 . S
C215 C216 1.331 . S
C215 H233 0.932 . S
C216 C215 1.331 . S
C216 C217 1.336 . S
C217 C213 1.394 . S
C217 C216 1.336 . S
C217 H232 0.929 . S
C218 C208 1.386 . S
C218 C211 1.357 . S
C218 H231 0.928 . S
H219 C195 0.931 . S
H220 C197 0.930 . S
H221 C199 0.929 . S
H222 C200 0.931 . S
H223 C202 0.930 . S
H224 C206 0.931 . S
H225 C204 0.931 . S
H226 C208 0.931 . S
H227 C209 0.929 . S
H228 C210 0.930 . S
H229 C213 0.930 . S
H230 C214 0.931 . S
H231 C218 0.928 . S
H232 C217 0.929 . S
H233 C215 0.932 . S
C234 C235 1.386 . S
C234 C236 1.397 . S
C234 H258 0.931 . S
C235 C234 1.386 . S
C235 C239 1.397 . S
C236 C234 1.397 . S
C236 C237 1.384 . S
C236 H259 0.930 . S
C237 C236 1.384 . S
C237 C238 1.377 . S
C237 C240 1.481 . S
C238 C237 1.377 . S
C238 C239 1.389 . S
C238 H260 0.929 . S
C239 C235 1.397 . S
C239 C238 1.389 . S
C239 H261 0.931 . S
C240 C237 1.481 . S
C240 C241 1.387 . S
C240 C245 1.390 . S
C241 C240 1.387 . S
C241 C242 1.401 . S
C241 H262 0.930 . S
C242 C241 1.401 . S
C242 C243 1.376 . S
C242 C251 1.511 . S
C243 C242 1.376 . S
C243 C244 1.392 . S
C243 H264 0.931 . S
C244 C243 1.392 . S
C244 C245 1.361 . S
C244 C246 1.500 . S
C245 C240 1.390 . S
C245 C244 1.361 . S
C245 H263 0.931 . S
C246 C244 1.500 . S
C246 C247 1.371 . S
C246 C248 1.365 . S
C247 C246 1.371 . S
C247 C257 1.386 . S
C247 H265 0.931 . S
C248 C246 1.365 . S
C248 C249 1.409 . S
C248 H266 0.929 . S
C249 C248 1.409 . S
C249 C250 1.380 . S
C249 H267 0.930 . S
C250 C249 1.380 . S
C250 C257 1.357 . S
C251 C242 1.511 . S
C251 C252 1.341 . S
C251 C253 1.371 . S
C252 C251 1.341 . S
C252 C256 1.394 . S
C252 H268 0.930 . S
C253 C251 1.371 . S
C253 C254 1.392 . S
C253 H269 0.931 . S
C254 C253 1.392 . S
C254 C255 1.331 . S
C254 H272 0.932 . S
C255 C254 1.331 . S
C255 C256 1.336 . S
C256 C252 1.394 . S
C256 C255 1.336 . S
C256 H271 0.929 . S
C257 C247 1.386 . S
C257 C250 1.357 . S
C257 H270 0.928 . S
H258 C234 0.931 . S
H259 C236 0.930 . S
H260 C238 0.929 . S
H261 C239 0.931 . S
H262 C241 0.930 . S
H263 C245 0.931 . S
H264 C243 0.931 . S
H265 C247 0.931 . S
H266 C248 0.929 . S
H267 C249 0.930 . S
H268 C252 0.930 . S
H269 C253 0.931 . S
H270 C257 0.928 . S
H271 C256 0.929 . S
H272 C254 0.932 . S
C273 C274 1.386 . S
C273 C275 1.397 . S
C273 H297 0.931 . S
C274 C273 1.386 . S
C274 C278 1.397 . S
C275 C273 1.397 . S
C275 C276 1.384 . S
C275 H298 0.930 . S
C276 C275 1.384 . S
C276 C277 1.377 . S
C276 C279 1.481 . S
C277 C276 1.377 . S
C277 C278 1.389 . S
C277 H299 0.929 . S
C278 C274 1.397 . S
C278 C277 1.389 . S
C278 H300 0.931 . S
C279 C276 1.481 . S
C279 C280 1.387 . S
C279 C284 1.390 . S
C280 C279 1.387 . S
C280 C281 1.401 . S
C280 H301 0.930 . S
C281 C280 1.401 . S
C281 C282 1.376 . S
C281 C290 1.511 . S
C282 C281 1.376 . S
C282 C283 1.392 . S
C282 H303 0.931 . S
C283 C282 1.392 . S
C283 C284 1.361 . S
C283 C285 1.500 . S
C284 C279 1.390 . S
C284 C283 1.361 . S
C284 H302 0.931 . S
C285 C283 1.500 . S
C285 C286 1.371 . S
C285 C287 1.365 . S
C286 C285 1.371 . S
C286 C296 1.386 . S
C286 H304 0.931 . S
C287 C285 1.365 . S
C287 C288 1.409 . S
C287 H305 0.929 . S
C288 C287 1.409 . S
C288 C289 1.380 . S
C288 H306 0.930 . S
C289 C288 1.380 . S
C289 C296 1.357 . S
C290 C281 1.511 . S
C290 C291 1.341 . S
C290 C292 1.371 . S
C291 C290 1.341 . S
C291 C295 1.394 . S
C291 H307 0.930 . S
C292 C290 1.371 . S
C292 C293 1.392 . S
C292 H308 0.931 . S
C293 C292 1.392 . S
C293 C294 1.331 . S
C293 H311 0.932 . S
C294 C293 1.331 . S
C294 C295 1.336 . S
C295 C291 1.394 . S
C295 C294 1.336 . S
C295 H310 0.929 . S
C296 C286 1.386 . S
C296 C289 1.357 . S
C296 H309 0.928 . S
H297 C273 0.931 . S
H298 C275 0.930 . S
H299 C277 0.929 . S
H300 C278 0.931 . S
H301 C280 0.930 . S
H302 C284 0.931 . S
H303 C282 0.931 . S
H304 C286 0.931 . S
H305 C287 0.929 . S
H306 C288 0.930 . S
H307 C291 0.930 . S
H308 C292 0.931 . S
H309 C296 0.928 . S
H310 C295 0.929 . S
H311 C293 0.932 . S
C312 C313 1.386 . S
C312 C314 1.397 . S
C312 H336 0.931 . S
C313 C312 1.386 . S
C313 C317 1.397 . S
C314 C312 1.397 . S
C314 C315 1.384 . S
C314 H337 0.930 . S
C315 C314 1.384 . S
C315 C316 1.377 . S
C315 C318 1.481 . S
C316 C315 1.377 . S
C316 C317 1.389 . S
C316 H338 0.929 . S
C317 C313 1.397 . S
C317 C316 1.389 . S
C317 H339 0.931 . S
C318 C315 1.481 . S
C318 C319 1.387 . S
C318 C323 1.390 . S
C319 C318 1.387 . S
C319 C320 1.401 . S
C319 H340 0.930 . S
C320 C319 1.401 . S
C320 C321 1.376 . S
C320 C329 1.511 . S
C321 C320 1.376 . S
C321 C322 1.392 . S
C321 H342 0.931 . S
C322 C321 1.392 . S
C322 C323 1.361 . S
C322 C324 1.500 . S
C323 C318 1.390 . S
C323 C322 1.361 . S
C323 H341 0.931 . S
C324 C322 1.500 . S
C324 C325 1.371 . S
C324 C326 1.365 . S
C325 C324 1.371 . S
C325 C335 1.386 . S
C325 H343 0.931 . S
C326 C324 1.365 . S
C326 C327 1.409 . S
C326 H344 0.929 . S
C327 C326 1.409 . S
C327 C328 1.380 . S
C327 H345 0.930 . S
C328 C327 1.380 . S
C328 C335 1.357 . S
C329 C320 1.511 . S
C329 C330 1.341 . S
C329 C331 1.371 . S
C330 C329 1.341 . S
C330 C334 1.394 . S
C330 H346 0.930 . S
C331 C329 1.371 . S
C331 C332 1.392 . S
C331 H347 0.931 . S
C332 C331 1.392 . S
C332 C333 1.331 . S
C332 H350 0.932 . S
C333 C332 1.331 . S
C333 C334 1.336 . S
C334 C330 1.394 . S
C334 C333 1.336 . S
C334 H349 0.929 . S
C335 C325 1.386 . S
C335 C328 1.357 . S
C335 H348 0.928 . S
H336 C312 0.931 . S
H337 C314 0.930 . S
H338 C316 0.929 . S
H339 C317 0.931 . S
H340 C319 0.930 . S
H341 C323 0.931 . S
H342 C321 0.931 . S
H343 C325 0.931 . S
H344 C326 0.929 . S
H345 C327 0.930 . S
H346 C330 0.930 . S
H347 C331 0.931 . S
H348 C335 0.928 . S
H349 C334 0.929 . S
H350 C332 0.932 . S
C351 C352 1.386 . S
C351 C353 1.397 . S
C351 H375 0.931 . S
C352 C351 1.386 . S
C352 C356 1.397 . S
C353 C351 1.397 . S
C353 C354 1.384 . S
C353 H376 0.930 . S
C354 C353 1.384 . S
C354 C355 1.377 . S
C354 C357 1.481 . S
C355 C354 1.377 . S
C355 C356 1.389 . S
C355 H377 0.929 . S
C356 C352 1.397 . S
C356 C355 1.389 . S
C356 H378 0.931 . S
C357 C354 1.481 . S
C357 C358 1.387 . S
C357 C362 1.390 . S
C358 C357 1.387 . S
C358 C359 1.401 . S
C358 H379 0.930 . S
C359 C358 1.401 . S
C359 C360 1.376 . S
C359 C368 1.511 . S
C360 C359 1.376 . S
C360 C361 1.392 . S
C360 H381 0.931 . S
C361 C360 1.392 . S
C361 C362 1.361 . S
C361 C363 1.500 . S
C362 C357 1.390 . S
C362 C361 1.361 . S
C362 H380 0.931 . S
C363 C361 1.500 . S
C363 C364 1.371 . S
C363 C365 1.365 . S
C364 C363 1.371 . S
C364 C374 1.386 . S
C364 H382 0.931 . S
C365 C363 1.365 . S
C365 C366 1.409 . S
C365 H383 0.929 . S
C366 C365 1.409 . S
C366 C367 1.380 . S
C366 H384 0.930 . S
C367 C366 1.380 . S
C367 C374 1.357 . S
C368 C359 1.511 . S
C368 C369 1.341 . S
C368 C370 1.371 . S
C369 C368 1.341 . S
C369 C373 1.394 . S
C369 H385 0.930 . S
C370 C368 1.371 . S
C370 C371 1.392 . S
C370 H386 0.931 . S
C371 C370 1.392 . S
C371 C372 1.331 . S
C371 H389 0.932 . S
C372 C371 1.331 . S
C372 C373 1.336 . S
C373 C369 1.394 . S
C373 C372 1.336 . S
C373 H388 0.929 . S
C374 C364 1.386 . S
C374 C367 1.357 . S
C374 H387 0.928 . S
H375 C351 0.931 . S
H376 C353 0.930 . S
H377 C355 0.929 . S
H378 C356 0.931 . S
H379 C358 0.930 . S
H380 C362 0.931 . S
H381 C360 0.931 . S
H382 C364 0.931 . S
H383 C365 0.929 . S
H384 C366 0.930 . S
H385 C369 0.930 . S
H386 C370 0.931 . S
H387 C374 0.928 . S
H388 C373 0.929 . S
H389 C371 0.932 . S
C390 C391 1.386 . S
C390 C392 1.397 . S
C390 H414 0.931 . S
C391 C390 1.386 . S
C391 C395 1.397 . S
C392 C390 1.397 . S
C392 C393 1.384 . S
C392 H415 0.930 . S
C393 C392 1.384 . S
C393 C394 1.377 . S
C393 C396 1.481 . S
C394 C393 1.377 . S
C394 C395 1.389 . S
C394 H416 0.929 . S
C395 C391 1.397 . S
C395 C394 1.389 . S
C395 H417 0.931 . S
C396 C393 1.481 . S
C396 C397 1.387 . S
C396 C401 1.390 . S
C397 C396 1.387 . S
C397 C398 1.401 . S
C397 H418 0.930 . S
C398 C397 1.401 . S
C398 C399 1.376 . S
C398 C407 1.511 . S
C399 C398 1.376 . S
C399 C400 1.392 . S
C399 H420 0.931 . S
C400 C399 1.392 . S
C400 C401 1.361 . S
C400 C402 1.500 . S
C401 C396 1.390 . S
C401 C400 1.361 . S
C401 H419 0.931 . S
C402 C400 1.500 . S
C402 C403 1.371 . S
C402 C404 1.365 . S
C403 C402 1.371 . S
C403 C413 1.386 . S
C403 H421 0.931 . S
C404 C402 1.365 . S
C404 C405 1.409 . S
C404 H422 0.929 . S
C405 C404 1.409 . S
C405 C406 1.380 . S
C405 H423 0.930 . S
C406 C405 1.380 . S
C406 C413 1.357 . S
C407 C398 1.511 . S
C407 C408 1.341 . S
C407 C409 1.371 . S
C408 C407 1.341 . S
C408 C412 1.394 . S
C408 H424 0.930 . S
C409 C407 1.371 . S
C409 C410 1.392 . S
C409 H425 0.931 . S
C410 C409 1.392 . S
C410 C411 1.331 . S
C410 H428 0.932 . S
C411 C410 1.331 . S
C411 C412 1.336 . S
C412 C408 1.394 . S
C412 C411 1.336 . S
C412 H427 0.929 . S
C413 C403 1.386 . S
C413 C406 1.357 . S
C413 H426 0.928 . S
H414 C390 0.931 . S
H415 C392 0.930 . S
H416 C394 0.929 . S
H417 C395 0.931 . S
H418 C397 0.930 . S
H419 C401 0.931 . S
H420 C399 0.931 . S
H421 C403 0.931 . S
H422 C404 0.929 . S
H423 C405 0.930 . S
H424 C408 0.930 . S
H425 C409 0.931 . S
H426 C413 0.928 . S
H427 C412 0.929 . S
H428 C410 0.932 . S
C429 C430 1.386 . S
C429 C431 1.397 . S
C429 H453 0.931 . S
C430 C429 1.386 . S
C430 C434 1.397 . S
C431 C429 1.397 . S
C431 C432 1.384 . S
C431 H454 0.930 . S
C432 C431 1.384 . S
C432 C433 1.377 . S
C432 C435 1.481 . S
C433 C432 1.377 . S
C433 C434 1.389 . S
C433 H455 0.929 . S
C434 C430 1.397 . S
C434 C433 1.389 . S
C434 H456 0.931 . S
C435 C432 1.481 . S
C435 C436 1.387 . S
C435 C440 1.390 . S
C436 C435 1.387 . S
C436 C437 1.401 . S
C436 H457 0.930 . S
C437 C436 1.401 . S
C437 C438 1.376 . S
C437 C446 1.511 . S
C438 C437 1.376 . S
C438 C439 1.392 . S
C438 H459 0.931 . S
C439 C438 1.392 . S
C439 C440 1.361 . S
C439 C441 1.500 . S
C440 C435 1.390 . S
C440 C439 1.361 . S
C440 H458 0.931 . S
C441 C439 1.500 . S
C441 C442 1.371 . S
C441 C443 1.365 . S
C442 C441 1.371 . S
C442 C452 1.386 . S
C442 H460 0.931 . S
C443 C441 1.365 . S
C443 C444 1.409 . S
C443 H461 0.929 . S
C444 C443 1.409 . S
C444 C445 1.380 . S
C444 H462 0.930 . S
C445 C444 1.380 . S
C445 C452 1.357 . S
C446 C437 1.511 . S
C446 C447 1.341 . S
C446 C448 1.371 . S
C447 C446 1.341 . S
C447 C451 1.394 . S
C447 H463 0.930 . S
C448 C446 1.371 . S
C448 C449 1.392 . S
C448 H464 0.931 . S
C449 C448 1.392 . S
C449 C450 1.331 . S
C449 H467 0.932 . S
C450 C449 1.331 . S
C450 C451 1.336 . S
C451 C447 1.394 . S
C451 C450 1.336 . S
C451 H466 0.929 . S
C452 C442 1.386 . S
C452 C445 1.357 . S
C452 H465 0.928 . S
H453 C429 0.931 . S
H454 C431 0.930 . S
H455 C433 0.929 . S
H456 C434 0.931 . S
H457 C436 0.930 . S
H458 C440 0.931 . S
H459 C438 0.931 . S
H460 C442 0.931 . S
H461 C443 0.929 . S
H462 C444 0.930 . S
H463 C447 0.930 . S
H464 C448 0.931 . S
H465 C452 0.928 . S
H466 C451 0.929 . S
H467 C449 0.932 . S
C468 C469 1.386 . S
C468 C470 1.397 . S
C468 H492 0.931 . S
C469 C468 1.386 . S
C469 C473 1.397 . S
C470 C468 1.397 . S
C470 C471 1.384 . S
C470 H493 0.930 . S
C471 C470 1.384 . S
C471 C472 1.377 . S
C471 C474 1.481 . S
C472 C471 1.377 . S
C472 C473 1.389 . S
C472 H494 0.929 . S
C473 C469 1.397 . S
C473 C472 1.389 . S
C473 H495 0.931 . S
C474 C471 1.481 . S
C474 C475 1.387 . S
C474 C479 1.390 . S
C475 C474 1.387 . S
C475 C476 1.401 . S
C475 H496 0.930 . S
C476 C475 1.401 . S
C476 C477 1.376 . S
C476 C485 1.511 . S
C477 C476 1.376 . S
C477 C478 1.392 . S
C477 H498 0.931 . S
C478 C477 1.392 . S
C478 C479 1.361 . S
C478 C480 1.500 . S
C479 C474 1.390 . S
C479 C478 1.361 . S
C479 H497 0.931 . S
C480 C478 1.500 . S
C480 C481 1.371 . S
C480 C482 1.365 . S
C481 C480 1.371 . S
C481 C491 1.386 . S
C481 H499 0.931 . S
C482 C480 1.365 . S
C482 C483 1.409 . S
C482 H500 0.929 . S
C483 C482 1.409 . S
C483 C484 1.380 . S
C483 H501 0.930 . S
C484 C483 1.380 . S
C484 C491 1.357 . S
C485 C476 1.511 . S
C485 C486 1.341 . S
C485 C487 1.371 . S
C486 C485 1.341 . S
C486 C490 1.394 . S
C486 H502 0.930 . S
C487 C485 1.371 . S
C487 C488 1.392 . S
C487 H503 0.931 . S
C488 C487 1.392 . S
C488 C489 1.331 . S
C488 H506 0.932 . S
C489 C488 1.331 . S
C489 C490 1.336 . S
C490 C486 1.394 . S
C490 C489 1.336 . S
C490 H505 0.929 . S
C491 C481 1.386 . S
C491 C484 1.357 . S
C491 H504 0.928 . S
H492 C468 0.931 . S
H493 C470 0.930 . S
H494 C472 0.929 . S
H495 C473 0.931 . S
H496 C475 0.930 . S
H497 C479 0.931 . S
H498 C477 0.931 . S
H499 C481 0.931 . S
H500 C482 0.929 . S
H501 C483 0.930 . S
H502 C486 0.930 . S
H503 C487 0.931 . S
H504 C491 0.928 . S
H505 C490 0.929 . S
H506 C488 0.932 . S
C507 C508 1.386 . S
C507 C509 1.397 . S
C507 H531 0.931 . S
C508 C507 1.386 . S
C508 C512 1.397 . S
C509 C507 1.397 . S
C509 C510 1.384 . S
C509 H532 0.930 . S
C510 C509 1.384 . S
C510 C511 1.377 . S
C510 C513 1.481 . S
C511 C510 1.377 . S
C511 C512 1.389 . S
C511 H533 0.929 . S
C512 C508 1.397 . S
C512 C511 1.389 . S
C512 H534 0.931 . S
C513 C510 1.481 . S
C513 C514 1.387 . S
C513 C518 1.390 . S
C514 C513 1.387 . S
C514 C515 1.401 . S
C514 H535 0.930 . S
C515 C514 1.401 . S
C515 C516 1.376 . S
C515 C524 1.511 . S
C516 C515 1.376 . S
C516 C517 1.392 . S
C516 H537 0.931 . S
C517 C516 1.392 . S
C517 C518 1.361 . S
C517 C519 1.500 . S
C518 C513 1.390 . S
C518 C517 1.361 . S
C518 H536 0.931 . S
C519 C517 1.500 . S
C519 C520 1.371 . S
C519 C521 1.365 . S
C520 C519 1.371 . S
C520 C530 1.386 . S
C520 H538 0.931 . S
C521 C519 1.365 . S
C521 C522 1.409 . S
C521 H539 0.929 . S
C522 C521 1.409 . S
C522 C523 1.380 . S
C522 H540 0.930 . S
C523 C522 1.380 . S
C523 C530 1.357 . S
C524 C515 1.511 . S
C524 C525 1.341 . S
C524 C526 1.371 . S
C525 C524 1.341 . S
C525 C529 1.394 . S
C525 H541 0.930 . S
C526 C524 1.371 . S
C526 C527 1.392 . S
C526 H542 0.931 . S
C527 C526 1.392 . S
C527 C528 1.331 . S
C527 H545 0.932 . S
C528 C527 1.331 . S
C528 C529 1.336 . S
C529 C525 1.394 . S
C529 C528 1.336 . S
C529 H544 0.929 . S
C530 C520 1.386 . S
C530 C523 1.357 . S
C530 H543 0.928 . S
H531 C507 0.931 . S
H532 C509 0.930 . S
H533 C511 0.929 . S
H534 C512 0.931 . S
H535 C514 0.930 . S
H536 C518 0.931 . S
H537 C516 0.931 . S
H538 C520 0.931 . S
H539 C521 0.929 . S
H540 C522 0.930 . S
H541 C525 0.930 . S
H542 C526 0.931 . S
H543 C530 0.928 . S
H544 C529 0.929 . S
H545 C527 0.932 . S
C546 C547 1.386 . S
C546 C548 1.397 . S
C546 H570 0.931 . S
C547 C546 1.386 . S
C547 C551 1.397 . S
C548 C546 1.397 . S
C548 C549 1.384 . S
C548 H571 0.930 . S
C549 C548 1.384 . S
C549 C550 1.377 . S
C549 C552 1.481 . S
C550 C549 1.377 . S
C550 C551 1.389 . S
C550 H572 0.929 . S
C551 C547 1.397 . S
C551 C550 1.389 . S
C551 H573 0.931 . S
C552 C549 1.481 . S
C552 C553 1.387 . S
C552 C557 1.390 . S
C553 C552 1.387 . S
C553 C554 1.401 . S
C553 H574 0.930 . S
C554 C553 1.401 . S
C554 C555 1.376 . S
C554 C563 1.511 . S
C555 C554 1.376 . S
C555 C556 1.392 . S
C555 H576 0.931 . S
C556 C555 1.392 . S
C556 C557 1.361 . S
C556 C558 1.500 . S
C557 C552 1.390 . S
C557 C556 1.361 . S
C557 H575 0.931 . S
C558 C556 1.500 . S
C558 C559 1.371 . S
C558 C560 1.365 . S
C559 C558 1.371 . S
C559 C569 1.386 . S
C559 H577 0.931 . S
C560 C558 1.365 . S
C560 C561 1.409 . S
C560 H578 0.929 . S
C561 C560 1.409 . S
C561 C562 1.380 . S
C561 H579 0.930 . S
C562 C561 1.380 . S
C562 C569 1.357 . S
C563 C554 1.511 . S
C563 C564 1.341 . S
C563 C565 1.371 . S
C564 C563 1.341 . S
C564 C568 1.394 . S
C564 H580 0.930 . S
C565 C563 1.371 . S
C565 C566 1.392 . S
C565 H581 0.931 . S
C566 C565 1.392 . S
C566 C567 1.331 . S
C566 H584 0.932 . S
C567 C566 1.331 . S
C567 C568 1.336 . S
C568 C564 1.394 . S
C568 C567 1.336 . S
C568 H583 0.929 . S
C569 C559 1.386 . S
C569 C562 1.357 . S
C569 H582 0.928 . S
H570 C546 0.931 . S
H571 C548 0.930 . S
H572 C550 0.929 . S
H573 C551 0.931 . S
H574 C553 0.930 . S
H575 C557 0.931 . S
H576 C555 0.931 . S
H577 C559 0.931 . S
H578 C560 0.929 . S
H579 C561 0.930 . S
H580 C564 0.930 . S
H581 C565 0.931 . S
H582 C569 0.928 . S
H583 C568 0.929 . S
H584 C566 0.932 . S
C585 C586 1.386 . S
C585 C587 1.397 . S
C585 H609 0.931 . S
C586 C585 1.386 . S
C586 C590 1.397 . S
C587 C585 1.397 . S
C587 C588 1.384 . S
C587 H610 0.930 . S
C588 C587 1.384 . S
C588 C589 1.377 . S
C588 C591 1.481 . S
C589 C588 1.377 . S
C589 C590 1.389 . S
C589 H611 0.929 . S
C590 C586 1.397 . S
C590 C589 1.389 . S
C590 H612 0.931 1_556 S
C591 C588 1.481 . S
C591 C592 1.387 . S
C591 C596 1.390 . S
C592 C591 1.387 . S
C592 C593 1.401 . S
C592 H613 0.930 . S
C593 C592 1.401 . S
C593 C594 1.376 . S
C593 C602 1.511 . S
C594 C593 1.376 . S
C594 C595 1.392 . S
C594 H615 0.931 . S
C595 C594 1.392 . S
C595 C596 1.361 . S
C595 C597 1.500 . S
C596 C591 1.390 . S
C596 C595 1.361 . S
C596 H614 0.931 . S
C597 C595 1.500 . S
C597 C598 1.371 . S
C597 C599 1.365 . S
C598 C597 1.371 . S
C598 C608 1.386 . S
C598 H616 0.931 . S
C599 C597 1.365 . S
C599 C600 1.409 . S
C599 H617 0.929 . S
C600 C599 1.409 . S
C600 C601 1.380 . S
C600 H618 0.930 . S
C601 C600 1.380 . S
C601 C608 1.357 . S
C602 C593 1.511 . S
C602 C603 1.341 . S
C602 C604 1.371 . S
C603 C602 1.341 . S
C603 C607 1.394 . S
C603 H619 0.930 . S
C604 C602 1.371 . S
C604 C605 1.392 . S
C604 H620 0.931 . S
C605 C604 1.392 . S
C605 C606 1.331 . S
C605 H623 0.932 . S
C606 C605 1.331 . S
C606 C607 1.336 . S
C607 C603 1.394 . S
C607 C606 1.336 . S
C607 H622 0.929 . S
C608 C598 1.386 . S
C608 C601 1.357 . S
C608 H621 0.928 . S
H609 C585 0.931 . S
H610 C587 0.930 . S
H611 C589 0.929 . S
H612 C590 0.931 1_554 S
H613 C592 0.930 . S
H614 C596 0.931 . S
H615 C594 0.931 . S
H616 C598 0.931 . S
H617 C599 0.929 . S
H618 C600 0.930 . S
H619 C603 0.930 . S
H620 C604 0.931 . S
H621 C608 0.928 . S
H622 C607 0.929 . S
H623 C605 0.932 . S
O624 Cd625 2.223 . S
O624 C632 1.315 . S
Cd625 O624 2.223 . S
Cd625 O628 2.297 . S
Cd625 O629 2.439 . S
Cd625 O635 2.240 . S
Cd626 O627 2.240 . S
Cd626 O634 2.223 . S
Cd626 O636 2.297 . S
Cd626 O637 2.439 . S
O627 Cd626 2.240 . S
O627 C632 1.279 . S
O628 Cd625 2.297 . S
O628 C630 1.247 . S
O629 Cd625 2.439 . S
O629 C630 1.208 . S
C630 O628 1.247 . S
C630 O629 1.208 . S
C631 O636 1.247 . S
C631 O637 1.208 . S
C632 O624 1.315 . S
C632 O627 1.279 . S
C633 O634 1.315 . S
C633 O635 1.279 . S
O634 Cd626 2.223 . S
O634 C633 1.315 . S
O635 Cd625 2.240 . S
O635 C633 1.279 . S
O636 Cd626 2.297 . S
O636 C631 1.247 . S
O637 Cd626 2.439 . S
O637 C631 1.208 . S
O638 Cd639 2.223 . S
O638 C646 1.315 . S
Cd639 O638 2.223 . S
Cd639 O642 2.297 . S
Cd639 O643 2.439 . S
Cd639 O649 2.240 . S
Cd640 O641 2.240 . S
Cd640 O648 2.223 . S
Cd640 O650 2.297 . S
Cd640 O651 2.439 . S
O641 Cd640 2.240 . S
O641 C646 1.279 . S
O642 Cd639 2.297 . S
O642 C644 1.247 . S
O643 Cd639 2.439 . S
O643 C644 1.208 . S
C644 O642 1.247 . S
C644 O643 1.208 . S
C645 O650 1.247 . S
C645 O651 1.208 . S
C646 O638 1.315 . S
C646 O641 1.279 . S
C647 O648 1.315 . S
C647 O649 1.279 . S
O648 Cd640 2.223 . S
O648 C647 1.315 . S
O649 Cd639 2.240 . S
O649 C647 1.279 . S
O650 Cd640 2.297 . S
O650 C645 1.247 . S
O651 Cd640 2.439 . S
O651 C645 1.208 . S
O652 Cd653 2.223 1_556 S
O652 C660 1.315 . S
Cd653 O652 2.223 1_554 S
Cd653 O656 2.297 . S
Cd653 O657 2.439 . S
Cd653 O663 2.240 . S
Cd654 O655 2.240 . S
Cd654 O662 2.223 . S
Cd654 O664 2.297 1_556 S
Cd654 O665 2.439 1_556 S
O655 Cd654 2.240 . S
O655 C660 1.279 . S
O656 Cd653 2.297 . S
O656 C658 1.247 . S
O657 Cd653 2.439 . S
O657 C658 1.208 . S
C658 O656 1.247 . S
C658 O657 1.208 . S
C659 O664 1.247 . S
C659 O665 1.208 . S
C660 O652 1.315 . S
C660 O655 1.279 . S
C661 O662 1.315 . S
C661 O663 1.279 1_556 S
O662 Cd654 2.223 . S
O662 C661 1.315 . S
O663 Cd653 2.240 . S
O663 C661 1.279 1_554 S
O664 Cd654 2.297 1_554 S
O664 C659 1.247 . S
O665 Cd654 2.439 1_554 S
O665 C659 1.208 . S
O666 Cd667 2.223 . S
O666 C674 1.315 . S
Cd667 O666 2.223 . S
Cd667 O670 2.297 . S
Cd667 O671 2.439 . S
Cd667 O677 2.240 . S
Cd668 O669 2.240 . S
Cd668 O676 2.223 . S
Cd668 O678 2.297 . S
Cd668 O679 2.439 . S
O669 Cd668 2.240 . S
O669 C674 1.279 . S
O670 Cd667 2.297 . S
O670 C672 1.247 . S
O671 Cd667 2.439 . S
O671 C672 1.208 . S
C672 O670 1.247 . S
C672 O671 1.208 . S
C673 O678 1.247 . S
C673 O679 1.208 . S
C674 O666 1.315 . S
C674 O669 1.279 . S
C675 O676 1.315 . S
C675 O677 1.279 . S
O676 Cd668 2.223 . S
O676 C675 1.315 . S
O677 Cd667 2.240 . S
O677 C675 1.279 . S
O678 Cd668 2.297 . S
O678 C673 1.247 . S
O679 Cd668 2.439 . S
O679 C673 1.208 . S
O680 Cd681 2.223 . S
O680 C688 1.315 . S
Cd681 O680 2.223 . S
Cd681 O684 2.297 . S
Cd681 O685 2.439 . S
Cd681 O691 2.240 . S
Cd682 O683 2.240 . S
Cd682 O690 2.223 . S
Cd682 O692 2.297 . S
Cd682 O693 2.439 . S
O683 Cd682 2.240 . S
O683 C688 1.279 . S
O684 Cd681 2.297 . S
O684 C686 1.247 . S
O685 Cd681 2.439 . S
O685 C686 1.208 . S
C686 O684 1.247 . S
C686 O685 1.208 . S
C687 O692 1.247 . S
C687 O693 1.208 . S
C688 O680 1.315 . S
C688 O683 1.279 . S
C689 O690 1.315 . S
C689 O691 1.279 . S
O690 Cd682 2.223 . S
O690 C689 1.315 . S
O691 Cd681 2.240 . S
O691 C689 1.279 . S
O692 Cd682 2.297 . S
O692 C687 1.247 . S
O693 Cd682 2.439 . S
O693 C687 1.208 . S
O694 Cd695 2.223 . S
O694 C702 1.315 . S
Cd695 O694 2.223 . S
Cd695 O698 2.297 . S
Cd695 O699 2.439 . S
Cd695 O705 2.240 . S
Cd696 O697 2.240 . S
Cd696 O704 2.223 . S
Cd696 O706 2.297 . S
Cd696 O707 2.439 . S
O697 Cd696 2.240 . S
O697 C702 1.279 . S
O698 Cd695 2.297 . S
O698 C700 1.247 . S
O699 Cd695 2.439 . S
O699 C700 1.208 . S
C700 O698 1.247 . S
C700 O699 1.208 . S
C701 O706 1.247 . S
C701 O707 1.208 . S
C702 O694 1.315 . S
C702 O697 1.279 . S
C703 O704 1.315 . S
C703 O705 1.279 . S
O704 Cd696 2.223 . S
O704 C703 1.315 . S
O705 Cd695 2.240 . S
O705 C703 1.279 . S
O706 Cd696 2.297 . S
O706 C701 1.247 . S
O707 Cd696 2.439 . S
O707 C701 1.208 . S
O708 Cd709 2.223 . S
O708 C716 1.315 . S
Cd709 O708 2.223 . S
Cd709 O712 2.297 . S
Cd709 O713 2.439 . S
Cd709 O719 2.240 . S
Cd710 O711 2.240 . S
Cd710 O718 2.223 . S
Cd710 O720 2.297 . S
Cd710 O721 2.439 . S
O711 Cd710 2.240 . S
O711 C716 1.279 . S
O712 Cd709 2.297 . S
O712 C714 1.247 . S
O713 Cd709 2.439 . S
O713 C714 1.208 . S
C714 O712 1.247 . S
C714 O713 1.208 . S
C715 O720 1.247 . S
C715 O721 1.208 . S
C716 O708 1.315 . S
C716 O711 1.279 . S
C717 O718 1.315 . S
C717 O719 1.279 . S
O718 Cd710 2.223 . S
O718 C717 1.315 . S
O719 Cd709 2.240 . S
O719 C717 1.279 . S
O720 Cd710 2.297 . S
O720 C715 1.247 . S
O721 Cd710 2.439 . S
O721 C715 1.208 . S
O722 Cd723 2.223 1_545 S
O722 C730 1.315 . S
Cd723 O722 2.223 1_565 S
Cd723 O726 2.297 . S
Cd723 O727 2.439 . S
Cd723 O733 2.240 1_565 S
Cd724 O725 2.240 . S
Cd724 O732 2.223 . S
Cd724 O734 2.297 . S
Cd724 O735 2.439 1_545 S
O725 Cd724 2.240 . S
O725 C730 1.279 . S
O726 Cd723 2.297 . S
O726 C728 1.247 . S
O727 Cd723 2.439 . S
O727 C728 1.208 . S
C728 O726 1.247 . S
C728 O727 1.208 . S
C729 O734 1.247 1_565 S
C729 O735 1.208 . S
C730 O722 1.315 . S
C730 O725 1.279 . S
C731 O732 1.315 . S
C731 O733 1.279 . S
O732 Cd724 2.223 . S
O732 C731 1.315 . S
O733 Cd723 2.240 1_545 S
O733 C731 1.279 . S
O734 Cd724 2.297 . S
O734 C729 1.247 1_545 S
O735 Cd724 2.439 1_565 S
O735 C729 1.208 . S
O736 Cd737 2.223 . S
O736 C744 1.315 . S
Cd737 O736 2.223 . S
Cd737 O740 2.297 1_655 S
Cd737 O741 2.439 1_655 S
Cd737 O747 2.240 . S
Cd738 O739 2.240 . S
Cd738 O746 2.223 1_455 S
Cd738 O748 2.297 . S
Cd738 O749 2.439 . S
O739 Cd738 2.240 . S
O739 C744 1.279 1_455 S
O740 Cd737 2.297 1_455 S
O740 C742 1.247 . S
O741 Cd737 2.439 1_455 S
O741 C742 1.208 . S
C742 O740 1.247 . S
C742 O741 1.208 . S
C743 O748 1.247 . S
C743 O749 1.208 . S
C744 O736 1.315 . S
C744 O739 1.279 1_655 S
C745 O746 1.315 . S
C745 O747 1.279 . S
O746 Cd738 2.223 1_655 S
O746 C745 1.315 . S
O747 Cd737 2.240 . S
O747 C745 1.279 . S
O748 Cd738 2.297 . S
O748 C743 1.247 . S
O749 Cd738 2.439 . S
O749 C743 1.208 . S
O750 Cd751 2.223 . S
O750 C758 1.315 . S
Cd751 O750 2.223 . S
Cd751 O754 2.297 . S
Cd751 O755 2.439 . S
Cd751 O761 2.240 . S
Cd752 O753 2.240 . S
Cd752 O760 2.223 . S
Cd752 O762 2.297 . S
Cd752 O763 2.439 . S
O753 Cd752 2.240 . S
O753 C758 1.279 . S
O754 Cd751 2.297 . S
O754 C756 1.247 . S
O755 Cd751 2.439 . S
O755 C756 1.208 . S
C756 O754 1.247 . S
C756 O755 1.208 . S
C757 O762 1.247 . S
C757 O763 1.208 . S
C758 O750 1.315 . S
C758 O753 1.279 . S
C759 O760 1.315 . S
C759 O761 1.279 . S
O760 Cd752 2.223 . S
O760 C759 1.315 . S
O761 Cd751 2.240 . S
O761 C759 1.279 . S
O762 Cd752 2.297 . S
O762 C757 1.247 . S
O763 Cd752 2.439 . S
O763 C757 1.208 . S
O764 Cd765 2.223 1_655 S
O764 C772 1.315 . S
Cd765 O764 2.223 1_455 S
Cd765 O768 2.297 . S
Cd765 O769 2.439 . S
Cd765 O775 2.240 . S
Cd766 O767 2.240 . S
Cd766 O774 2.223 . S
Cd766 O776 2.297 1_655 S
Cd766 O777 2.439 1_655 S
O767 Cd766 2.240 . S
O767 C772 1.279 . S
O768 Cd765 2.297 . S
O768 C770 1.247 . S
O769 Cd765 2.439 . S
O769 C770 1.208 . S
C770 O768 1.247 . S
C770 O769 1.208 . S
C771 O776 1.247 . S
C771 O777 1.208 . S
C772 O764 1.315 . S
C772 O767 1.279 . S
C773 O774 1.315 . S
C773 O775 1.279 1_655 S
O774 Cd766 2.223 . S
O774 C773 1.315 . S
O775 Cd765 2.240 . S
O775 C773 1.279 1_455 S
O776 Cd766 2.297 1_455 S
O776 C771 1.247 . S
O777 Cd766 2.439 1_455 S
O777 C771 1.208 . S
O778 Cd779 2.223 . S
O778 C786 1.315 . S
Cd779 O778 2.223 . S
Cd779 O782 2.297 . S
Cd779 O783 2.439 . S
Cd779 O789 2.240 . S
Cd780 O781 2.240 . S
Cd780 O788 2.223 . S
Cd780 O790 2.297 . S
Cd780 O791 2.439 . S
O781 Cd780 2.240 . S
O781 C786 1.279 . S
O782 Cd779 2.297 . S
O782 C784 1.247 . S
O783 Cd779 2.439 . S
O783 C784 1.208 . S
C784 O782 1.247 . S
C784 O783 1.208 . S
C785 O790 1.247 . S
C785 O791 1.208 . S
C786 O778 1.315 . S
C786 O781 1.279 . S
C787 O788 1.315 . S
C787 O789 1.279 . S
O788 Cd780 2.223 . S
O788 C787 1.315 . S
O789 Cd779 2.240 . S
O789 C787 1.279 . S
O790 Cd780 2.297 . S
O790 C785 1.247 . S
O791 Cd780 2.439 . S
O791 C785 1.208 . S
H792 C798 0.930 . S
H793 C802 0.930 . S
H794 C807 0.929 . S
H795 C805 0.929 . S
H796 C800 0.929 . S
H797 C806 0.929 . S
C798 H792 0.930 . S
C798 C799 1.367 . S
C798 C806 1.378 . S
C799 C798 1.367 . S
C799 C807 1.433 . S
C800 H796 0.929 . S
C800 C802 1.378 . S
C800 C804 1.350 . S
C801 C804 1.463 . S
C801 C806 1.350 . S
C801 N809 1.427 . S
C802 H793 0.930 . S
C802 C800 1.378 . S
C802 C803 1.367 . S
C803 C802 1.367 . S
C803 C805 1.433 . S
C804 C800 1.350 . S
C804 C801 1.463 . S
C804 N808 1.427 . S
C805 H795 0.929 . S
C805 C803 1.433 . S
C805 N808 1.384 . S
C806 H797 0.929 . S
C806 C798 1.378 . S
C806 C801 1.350 . S
C807 H794 0.929 . S
C807 C799 1.433 . S
C807 N809 1.384 . S
N808 C804 1.427 . S
N808 C805 1.384 . S
N809 C801 1.427 . S
N809 C807 1.384 . S
H810 C816 0.930 . S
H811 C820 0.930 . S
H812 C825 0.929 . S
H813 C823 0.929 . S
H814 C818 0.929 . S
H815 C824 0.929 . S
C816 H810 0.930 . S
C816 C817 1.367 1_455 S
C816 C824 1.378 . S
C817 C816 1.367 1_655 S
C817 C825 1.433 . S
C818 H814 0.929 . S
C818 C820 1.378 . S
C818 C822 1.350 . S
C819 C822 1.463 . S
C819 C824 1.350 . S
C819 N827 1.424 . S
C820 H811 0.930 . S
C820 C818 1.378 . S
C820 C821 1.367 . S
C821 C820 1.367 . S
C821 C823 1.433 . S
C822 C818 1.350 . S
C822 C819 1.463 . S
C822 N826 1.427 . S
C823 H813 0.929 . S
C823 C821 1.433 . S
C823 N826 1.384 . S
C824 H815 0.929 . S
C824 C816 1.378 . S
C824 C819 1.350 . S
C825 H812 0.929 . S
C825 C817 1.433 . S
C825 N827 1.387 1_655 S
N826 C822 1.427 . S
N826 C823 1.384 . S
N827 C819 1.424 . S
N827 C825 1.387 1_455 S
H828 C834 0.930 . S
H829 C838 0.930 . S
H830 C843 0.929 . S
H831 C841 0.929 . S
H832 C836 0.929 . S
H833 C842 0.929 . S
C834 H828 0.930 . S
C834 C835 1.367 . S
C834 C842 1.378 . S
C835 C834 1.367 . S
C835 C843 1.433 . S
C836 H832 0.929 . S
C836 C838 1.378 . S
C836 C840 1.350 . S
C837 C840 1.463 . S
C837 C842 1.350 . S
C837 N845 1.427 . S
C838 H829 0.930 . S
C838 C836 1.378 . S
C838 C839 1.367 . S
C839 C838 1.367 . S
C839 C841 1.433 . S
C840 C836 1.350 . S
C840 C837 1.463 . S
C840 N844 1.427 . S
C841 H831 0.929 . S
C841 C839 1.433 . S
C841 N844 1.384 . S
C842 H833 0.929 . S
C842 C834 1.378 . S
C842 C837 1.350 . S
C843 H830 0.929 . S
C843 C835 1.433 . S
C843 N845 1.384 . S
N844 C840 1.427 . S
N844 C841 1.384 . S
N845 C837 1.427 . S
N845 C843 1.384 . S
H846 C852 0.930 . S
H847 C856 0.930 . S
H848 C861 0.929 . S
H849 C859 0.929 . S
H850 C854 0.929 . S
H851 C860 0.929 . S
C852 H846 0.930 . S
C852 C853 1.367 . S
C852 C860 1.378 1_455 S
C853 C852 1.367 . S
C853 C861 1.433 1_455 S
C854 H850 0.929 . S
C854 C856 1.378 . S
C854 C858 1.350 . S
C855 C858 1.463 1_565 S
C855 C860 1.350 . S
C855 N863 1.427 . S
C856 H847 0.930 . S
C856 C854 1.378 . S
C856 C857 1.367 . S
C857 C856 1.367 . S
C857 C859 1.433 . S
C858 C854 1.350 . S
C858 C855 1.463 1_545 S
C858 N862 1.427 . S
C859 H849 0.929 . S
C859 C857 1.433 . S
C859 N862 1.384 . S
C860 H851 0.929 . S
C860 C852 1.378 1_655 S
C860 C855 1.350 . S
C861 H848 0.929 . S
C861 C853 1.433 1_655 S
C861 N863 1.384 . S
N862 C858 1.427 . S
N862 C859 1.384 . S
N863 C855 1.427 . S
N863 C861 1.384 . S
H864 C870 0.930 . S
H865 C874 0.930 . S
H866 C879 0.929 . S
H867 C877 0.929 . S
H868 C872 0.929 . S
H869 C878 0.929 . S
C870 H864 0.930 . S
C870 C871 1.367 . S
C870 C878 1.378 . S
C871 C870 1.367 . S
C871 C879 1.433 . S
C872 H868 0.929 . S
C872 C874 1.378 . S
C872 C876 1.350 . S
C873 C876 1.463 . S
C873 C878 1.350 . S
C873 N881 1.427 . S
C874 H865 0.930 . S
C874 C872 1.378 . S
C874 C875 1.367 . S
C875 C874 1.367 . S
C875 C877 1.433 . S
C876 C872 1.350 . S
C876 C873 1.463 . S
C876 N880 1.427 . S
C877 H867 0.929 . S
C877 C875 1.433 . S
C877 N880 1.384 . S
C878 H869 0.929 . S
C878 C870 1.378 . S
C878 C873 1.350 . S
C879 H866 0.929 . S
C879 C871 1.433 . S
C879 N881 1.384 . S
N880 C876 1.427 . S
N880 C877 1.384 . S
N881 C873 1.427 . S
N881 C879 1.384 . S
H882 C888 0.930 . S
H883 C892 0.930 . S
H884 C897 0.929 . S
H885 C895 0.929 . S
H886 C890 0.929 . S
H887 C896 0.929 . S
C888 H882 0.930 . S
C888 C889 1.367 . S
C888 C896 1.378 . S
C889 C888 1.367 . S
C889 C897 1.433 . S
C890 H886 0.929 . S
C890 C892 1.378 . S
C890 C894 1.350 . S
C891 C894 1.463 . S
C891 C896 1.350 . S
C891 N899 1.427 . S
C892 H883 0.930 . S
C892 C890 1.378 . S
C892 C893 1.367 . S
C893 C892 1.367 . S
C893 C895 1.433 . S
C894 C890 1.350 . S
C894 C891 1.463 . S
C894 N898 1.427 . S
C895 H885 0.929 . S
C895 C893 1.433 . S
C895 N898 1.384 . S
C896 H887 0.929 . S
C896 C888 1.378 . S
C896 C891 1.350 . S
C897 H884 0.929 . S
C897 C889 1.433 . S
C897 N899 1.384 . S
N898 C894 1.427 . S
N898 C895 1.384 . S
N899 C891 1.427 . S
N899 C897 1.384 . S
H900 C906 0.930 . S
H901 C910 0.930 . S
H902 C915 0.929 . S
H903 C913 0.929 . S
H904 C908 0.929 . S
H905 C914 0.929 . S
C906 H900 0.930 . S
C906 C907 1.367 . S
C906 C914 1.378 . S
C907 C906 1.367 . S
C907 C915 1.433 . S
C908 H904 0.929 . S
C908 C910 1.378 . S
C908 C912 1.350 . S
C909 C912 1.463 . S
C909 C914 1.350 . S
C909 N917 1.427 . S
C910 H901 0.930 . S
C910 C908 1.378 . S
C910 C911 1.367 . S
C911 C910 1.367 . S
C911 C913 1.433 . S
C912 C908 1.350 . S
C912 C909 1.463 . S
C912 N916 1.427 . S
C913 H903 0.929 . S
C913 C911 1.433 . S
C913 N916 1.384 . S
C914 H905 0.929 . S
C914 C906 1.378 . S
C914 C909 1.350 . S
C915 H902 0.929 . S
C915 C907 1.433 . S
C915 N917 1.384 . S
N916 C912 1.427 . S
N916 C913 1.384 . S
N917 C909 1.427 . S
N917 C915 1.384 . S
H918 C924 0.930 . S
H919 C928 0.930 . S
H920 C933 0.929 . S
H921 C931 0.929 1_545 S
H922 C926 0.929 . S
H923 C932 0.929 . S
C924 H918 0.930 . S
C924 C925 1.367 . S
C924 C932 1.378 . S
C925 C924 1.367 . S
C925 C933 1.433 . S
C926 H922 0.929 . S
C926 C928 1.378 . S
C926 C930 1.350 . S
C927 C930 1.463 . S
C927 C932 1.350 . S
C927 N935 1.427 . S
C928 H919 0.930 . S
C928 C926 1.378 . S
C928 C929 1.367 . S
C929 C928 1.367 . S
C929 C931 1.433 . S
C930 C926 1.350 . S
C930 C927 1.463 . S
C930 N934 1.427 . S
C931 H921 0.929 1_565 S
C931 C929 1.433 . S
C931 N934 1.384 . S
C932 H923 0.929 . S
C932 C924 1.378 . S
C932 C927 1.350 . S
C933 H920 0.929 . S
C933 C925 1.433 . S
C933 N935 1.384 . S
N934 C930 1.427 . S
N934 C931 1.384 . S
N935 C927 1.427 . S
N935 C933 1.384 . S
H936 C942 0.930 . S
H937 C946 0.930 . S
H938 C951 0.929 . S
H939 C949 0.929 . S
H940 C944 0.929 . S
H941 C950 0.929 . S
C942 H936 0.930 . S
C942 C943 1.367 . S
C942 C950 1.378 . S
C943 C942 1.367 . S
C943 C951 1.433 . S
C944 H940 0.929 . S
C944 C946 1.378 . S
C944 C948 1.350 . S
C945 C948 1.463 . S
C945 C950 1.350 . S
C945 N953 1.427 . S
C946 H937 0.930 . S
C946 C944 1.378 . S
C946 C947 1.367 . S
C947 C946 1.367 . S
C947 C949 1.433 . S
C948 C944 1.350 . S
C948 C945 1.463 . S
C948 N952 1.427 . S
C949 H939 0.929 . S
C949 C947 1.433 . S
C949 N952 1.384 . S
C950 H941 0.929 . S
C950 C942 1.378 . S
C950 C945 1.350 . S
C951 H938 0.929 . S
C951 C943 1.433 . S
C951 N953 1.384 . S
N952 C948 1.427 . S
N952 C949 1.384 . S
N953 C945 1.427 . S
N953 C951 1.384 . S
H954 C960 0.930 . S
H955 C964 0.930 . S
H956 C969 0.929 . S
H957 C967 0.929 . S
H958 C962 0.929 . S
H959 C968 0.929 . S
C960 H954 0.930 . S
C960 C961 1.367 . S
C960 C968 1.378 . S
C961 C960 1.367 . S
C961 C969 1.433 . S
C962 H958 0.929 . S
C962 C964 1.378 . S
C962 C966 1.350 . S
C963 C966 1.463 . S
C963 C968 1.350 . S
C963 N971 1.427 . S
C964 H955 0.930 . S
C964 C962 1.378 . S
C964 C965 1.367 . S
C965 C964 1.367 . S
C965 C967 1.433 . S
C966 C962 1.350 . S
C966 C963 1.463 . S
C966 N970 1.427 . S
C967 H957 0.929 . S
C967 C965 1.433 . S
C967 N970 1.384 . S
C968 H959 0.929 . S
C968 C960 1.378 . S
C968 C963 1.350 . S
C969 H956 0.929 . S
C969 C961 1.433 . S
C969 N971 1.384 . S
N970 C966 1.427 . S
N970 C967 1.384 . S
N971 C963 1.427 . S
N971 C969 1.384 . S
H972 C978 0.930 . S
H973 C982 0.930 . S
H974 C987 0.929 . S
H975 C985 0.929 . S
H976 C980 0.929 . S
H977 C986 0.929 . S
C978 H972 0.930 . S
C978 C979 1.367 . S
C978 C986 1.378 . S
C979 C978 1.367 . S
C979 C987 1.433 . S
C980 H976 0.929 . S
C980 C982 1.378 . S
C980 C984 1.350 . S
C981 C984 1.463 . S
C981 C986 1.350 . S
C981 N989 1.427 . S
C982 H973 0.930 . S
C982 C980 1.378 . S
C982 C983 1.367 . S
C983 C982 1.367 . S
C983 C985 1.433 . S
C984 C980 1.350 . S
C984 C981 1.463 . S
C984 N988 1.427 . S
C985 H975 0.929 . S
C985 C983 1.433 . S
C985 N988 1.384 . S
C986 H977 0.929 . S
C986 C978 1.378 . S
C986 C981 1.350 . S
C987 H974 0.929 . S
C987 C979 1.433 . S
C987 N989 1.384 . S
N988 C984 1.427 . S
N988 C985 1.384 . S
N989 C981 1.427 . S
N989 C987 1.384 . S
H990 C996 0.930 . S
H991 C1000 0.930 . S
H992 C1005 0.929 . S
H993 C1003 0.929 . S
H994 C998 0.929 . S
H995 C1004 0.929 . S
C996 H990 0.930 . S
C996 C997 1.367 . S
C996 C1004 1.378 . S
C997 C996 1.367 . S
C997 C1005 1.433 . S
C998 H994 0.929 . S
C998 C1000 1.378 . S
C998 C1002 1.350 . S
C999 C1002 1.463 . S
C999 C1004 1.350 . S
C999 N1007 1.427 . S
C1000 H991 0.930 . S
C1000 C998 1.378 . S
C1000 C1001 1.367 . S
C1001 C1000 1.367 . S
C1001 C1003 1.433 . S
C1002 C998 1.350 . S
C1002 C999 1.463 . S
C1002 N1006 1.427 . S
C1003 H993 0.929 . S
C1003 C1001 1.433 . S
C1003 N1006 1.384 . S
C1004 H995 0.929 . S
C1004 C996 1.378 . S
C1004 C999 1.350 . S
C1005 H992 0.929 . S
C1005 C997 1.433 . S
C1005 N1007 1.384 . S
N1006 C1002 1.427 . S
N1006 C1003 1.384 . S
N1007 C999 1.427 . S
N1007 C1005 1.384 . S
H1008 C1014 0.930 . S
H1009 C1018 0.930 . S
H1010 C1023 0.929 . S
H1011 C1021 0.929 . S
H1012 C1016 0.929 . S
H1013 C1022 0.929 . S
C1014 H1008 0.930 . S
C1014 C1015 1.367 . S
C1014 C1022 1.378 . S
C1015 C1014 1.367 . S
C1015 C1023 1.433 . S
C1016 H1012 0.929 . S
C1016 C1018 1.378 . S
C1016 C1020 1.350 . S
C1017 C1020 1.463 . S
C1017 C1022 1.350 . S
C1017 N1025 1.427 . S
C1018 H1009 0.930 . S
C1018 C1016 1.378 . S
C1018 C1019 1.367 . S
C1019 C1018 1.367 . S
C1019 C1021 1.433 . S
C1020 C1016 1.350 . S
C1020 C1017 1.463 . S
C1020 N1024 1.427 . S
C1021 H1011 0.929 . S
C1021 C1019 1.433 . S
C1021 N1024 1.384 . S
C1022 H1013 0.929 . S
C1022 C1014 1.378 . S
C1022 C1017 1.350 . S
C1023 H1010 0.929 . S
C1023 C1015 1.433 . S
C1023 N1025 1.384 . S
N1024 C1020 1.427 . S
N1024 C1021 1.384 . S
N1025 C1017 1.427 . S
N1025 C1023 1.384 . S
H1026 C1032 0.930 . S
H1027 C1036 0.930 . S
H1028 C1041 0.929 . S
H1029 C1039 0.929 . S
H1030 C1034 0.929 . S
H1031 C1040 0.929 . S
C1032 H1026 0.930 . S
C1032 C1033 1.367 . S
C1032 C1040 1.378 . S
C1033 C1032 1.367 . S
C1033 C1041 1.433 . S
C1034 H1030 0.929 . S
C1034 C1036 1.378 . S
C1034 C1038 1.350 . S
C1035 C1038 1.463 . S
C1035 C1040 1.350 . S
C1035 N1043 1.427 . S
C1036 H1027 0.930 . S
C1036 C1034 1.378 . S
C1036 C1037 1.367 . S
C1037 C1036 1.367 . S
C1037 C1039 1.433 . S
C1038 C1034 1.350 . S
C1038 C1035 1.463 . S
C1038 N1042 1.427 . S
C1039 H1029 0.929 . S
C1039 C1037 1.433 . S
C1039 N1042 1.384 . S
C1040 H1031 0.929 . S
C1040 C1032 1.378 . S
C1040 C1035 1.350 . S
C1041 H1028 0.929 . S
C1041 C1033 1.433 . S
C1041 N1043 1.384 . S
N1042 C1038 1.427 . S
N1042 C1039 1.384 . S
N1043 C1035 1.427 . S
N1043 C1041 1.384 . S
H1044 C1050 0.930 . S
H1045 C1054 0.930 . S
H1046 C1059 0.929 . S
H1047 C1057 0.929 . S
H1048 C1052 0.929 . S
H1049 C1058 0.929 . S
C1050 H1044 0.930 . S
C1050 C1051 1.367 . S
C1050 C1058 1.378 . S
C1051 C1050 1.367 . S
C1051 C1059 1.433 . S
C1052 H1048 0.929 . S
C1052 C1054 1.378 . S
C1052 C1056 1.350 . S
C1053 C1056 1.463 . S
C1053 C1058 1.350 . S
C1053 N1061 1.427 . S
C1054 H1045 0.930 . S
C1054 C1052 1.378 . S
C1054 C1055 1.367 . S
C1055 C1054 1.367 . S
C1055 C1057 1.433 . S
C1056 C1052 1.350 . S
C1056 C1053 1.463 . S
C1056 N1060 1.427 . S
C1057 H1047 0.929 . S
C1057 C1055 1.433 . S
C1057 N1060 1.384 . S
C1058 H1049 0.929 . S
C1058 C1050 1.378 . S
C1058 C1053 1.350 . S
C1059 H1046 0.929 . S
C1059 C1051 1.433 . S
C1059 N1061 1.384 . S
N1060 C1056 1.427 . S
N1060 C1057 1.384 . S
N1061 C1053 1.427 . S
N1061 C1059 1.384 . S
H1062 C1068 0.930 . S
H1063 C1072 0.930 . S
H1064 C1077 0.929 . S
H1065 C1075 0.929 . S
H1066 C1070 0.929 . S
H1067 C1076 0.929 . S
C1068 H1062 0.930 . S
C1068 C1069 1.367 . S
C1068 C1076 1.378 . S
C1069 C1068 1.367 . S
C1069 C1077 1.433 . S
C1070 H1066 0.929 . S
C1070 C1072 1.378 . S
C1070 C1074 1.350 . S
C1071 C1074 1.463 . S
C1071 C1076 1.350 . S
C1071 N1079 1.427 . S
C1072 H1063 0.930 . S
C1072 C1070 1.378 . S
C1072 C1073 1.367 . S
C1073 C1072 1.367 . S
C1073 C1075 1.433 . S
C1074 C1070 1.350 . S
C1074 C1071 1.463 . S
C1074 N1078 1.427 . S
C1075 H1065 0.929 . S
C1075 C1073 1.433 . S
C1075 N1078 1.384 . S
C1076 H1067 0.929 . S
C1076 C1068 1.378 . S
C1076 C1071 1.350 . S
C1077 H1064 0.929 . S
C1077 C1069 1.433 . S
C1077 N1079 1.384 . S
N1078 C1074 1.427 . S
N1078 C1075 1.384 . S
N1079 C1071 1.427 . S
N1079 C1077 1.384 . S
H1080 C1086 0.930 . S
H1081 C1090 0.930 . S
H1082 C1095 0.929 . S
H1083 C1093 0.929 . S
H1084 C1088 0.929 . S
H1085 C1094 0.929 . S
C1086 H1080 0.930 . S
C1086 C1087 1.367 . S
C1086 C1094 1.378 . S
C1087 C1086 1.367 . S
C1087 C1095 1.433 . S
C1088 H1084 0.929 . S
C1088 C1090 1.378 1_565 S
C1088 C1092 1.350 . S
C1089 C1092 1.463 . S
C1089 C1094 1.350 . S
C1089 N1097 1.427 . S
C1090 H1081 0.930 . S
C1090 C1088 1.378 1_545 S
C1090 C1091 1.367 . S
C1091 C1090 1.367 . S
C1091 C1093 1.433 1_545 S
C1092 C1088 1.350 . S
C1092 C1089 1.463 . S
C1092 N1096 1.427 . S
C1093 H1083 0.929 . S
C1093 C1091 1.433 1_565 S
C1093 N1096 1.384 . S
C1094 H1085 0.929 . S
C1094 C1086 1.378 . S
C1094 C1089 1.350 . S
C1095 H1082 0.929 . S
C1095 C1087 1.433 . S
C1095 N1097 1.384 . S
N1096 C1092 1.427 . S
N1096 C1093 1.384 . S
N1097 C1089 1.427 . S
N1097 C1095 1.384 . S
H1098 C1104 0.930 . S
H1099 C1108 0.930 . S
H1100 C1113 0.929 . S
H1101 C1111 0.929 . S
H1102 C1106 0.929 . S
H1103 C1112 0.929 . S
C1104 H1098 0.930 . S
C1104 C1105 1.367 . S
C1104 C1112 1.378 . S
C1105 C1104 1.367 . S
C1105 C1113 1.433 . S
C1106 H1102 0.929 . S
C1106 C1108 1.378 . S
C1106 C1110 1.350 . S
C1107 C1110 1.463 . S
C1107 C1112 1.350 . S
C1107 N1115 1.427 . S
C1108 H1099 0.930 . S
C1108 C1106 1.378 . S
C1108 C1109 1.367 . S
C1109 C1108 1.367 . S
C1109 C1111 1.433 . S
C1110 C1106 1.350 . S
C1110 C1107 1.463 . S
C1110 N1114 1.427 . S
C1111 H1101 0.929 . S
C1111 C1109 1.433 . S
C1111 N1114 1.384 . S
C1112 H1103 0.929 . S
C1112 C1104 1.378 . S
C1112 C1107 1.350 . S
C1113 H1100 0.929 . S
C1113 C1105 1.433 . S
C1113 N1115 1.384 . S
N1114 C1110 1.427 . S
N1114 C1111 1.384 . S
N1115 C1107 1.427 . S
N1115 C1113 1.384 . S
H1116 C1122 0.930 . S
H1117 C1126 0.930 . S
H1118 C1131 0.929 . S
H1119 C1129 0.929 . S
H1120 C1124 0.929 . S
H1121 C1130 0.929 . S
C1122 H1116 0.930 . S
C1122 C1123 1.367 . S
C1122 C1130 1.378 . S
C1123 C1122 1.367 . S
C1123 C1131 1.433 . S
C1124 H1120 0.929 . S
C1124 C1126 1.378 1_556 S
C1124 C1128 1.350 . S
C1125 C1128 1.439 1_545 S
C1125 C1130 1.379 . S
C1125 N1133 1.420 1_545 S
C1126 H1117 0.930 . S
C1126 C1124 1.378 1_554 S
C1126 C1127 1.367 . S
C1127 C1126 1.367 . S
C1127 C1129 1.433 . S
C1128 C1124 1.350 . S
C1128 C1125 1.439 1_565 S
C1128 N1132 1.427 1_556 S
C1129 H1119 0.929 . S
C1129 C1127 1.433 . S
C1129 N1132 1.384 . S
C1130 H1121 0.929 . S
C1130 C1122 1.378 . S
C1130 C1125 1.379 . S
C1131 H1118 0.929 . S
C1131 C1123 1.433 . S
C1131 N1133 1.384 1_545 S
N1132 C1128 1.427 1_554 S
N1132 C1129 1.384 . S
N1133 C1125 1.420 1_565 S
N1133 C1131 1.384 1_565 S
H1134 C1140 0.930 . S
H1135 C1144 0.930 . S
H1136 C1149 0.929 . S
H1137 C1147 0.929 . S
H1138 C1142 0.929 . S
H1139 C1148 0.929 . S
C1140 H1134 0.930 . S
C1140 C1141 1.367 . S
C1140 C1148 1.378 . S
C1141 C1140 1.367 . S
C1141 C1149 1.433 . S
C1142 H1138 0.929 . S
C1142 C1144 1.378 . S
C1142 C1146 1.350 . S
C1143 C1146 1.463 . S
C1143 C1148 1.350 . S
C1143 N1151 1.427 . S
C1144 H1135 0.930 . S
C1144 C1142 1.378 . S
C1144 C1145 1.367 . S
C1145 C1144 1.367 . S
C1145 C1147 1.433 . S
C1146 C1142 1.350 . S
C1146 C1143 1.463 . S
C1146 N1150 1.427 . S
C1147 H1137 0.929 . S
C1147 C1145 1.433 . S
C1147 N1150 1.384 . S
C1148 H1139 0.929 . S
C1148 C1140 1.378 . S
C1148 C1143 1.350 . S
C1149 H1136 0.929 . S
C1149 C1141 1.433 . S
C1149 N1151 1.384 . S
N1150 C1146 1.427 . S
N1150 C1147 1.384 . S
N1151 C1143 1.427 . S
N1151 C1149 1.384 . S
H1152 C1158 0.930 . S
H1153 C1162 0.930 . S
H1154 C1167 0.929 . S
H1155 C1165 0.929 . S
H1156 C1160 0.929 . S
H1157 C1166 0.929 . S
C1158 H1152 0.930 . S
C1158 C1159 1.367 . S
C1158 C1166 1.378 . S
C1159 C1158 1.367 . S
C1159 C1167 1.433 . S
C1160 H1156 0.929 . S
C1160 C1162 1.378 . S
C1160 C1164 1.350 . S
C1161 C1164 1.463 . S
C1161 C1166 1.350 . S
C1161 N1169 1.427 . S
C1162 H1153 0.930 . S
C1162 C1160 1.378 . S
C1162 C1163 1.367 . S
C1163 C1162 1.367 . S
C1163 C1165 1.433 . S
C1164 C1160 1.350 . S
C1164 C1161 1.463 . S
C1164 N1168 1.427 . S
C1165 H1155 0.929 . S
C1165 C1163 1.433 . S
C1165 N1168 1.384 . S
C1166 H1157 0.929 . S
C1166 C1158 1.378 . S
C1166 C1161 1.350 . S
C1167 H1154 0.929 . S
C1167 C1159 1.433 . S
C1167 N1169 1.384 . S
N1168 C1164 1.427 . S
N1168 C1165 1.384 . S
N1169 C1161 1.427 . S
N1169 C1167 1.384 . S
H1170 C1176 0.930 . S
H1171 C1180 0.930 . S
H1172 C1185 0.929 . S
H1173 C1183 0.929 . S
H1174 C1178 0.929 . S
H1175 C1184 0.929 . S
C1176 H1170 0.930 . S
C1176 C1177 1.367 . S
C1176 C1184 1.378 . S
C1177 C1176 1.367 . S
C1177 C1185 1.433 . S
C1178 H1174 0.929 . S
C1178 C1180 1.378 . S
C1178 C1182 1.350 . S
C1179 C1182 1.463 . S
C1179 C1184 1.350 . S
C1179 N1187 1.427 . S
C1180 H1171 0.930 . S
C1180 C1178 1.378 . S
C1180 C1181 1.367 . S
C1181 C1180 1.367 . S
C1181 C1183 1.433 . S
C1182 C1178 1.350 . S
C1182 C1179 1.463 . S
C1182 N1186 1.427 . S
C1183 H1173 0.929 . S
C1183 C1181 1.433 . S
C1183 N1186 1.384 . S
C1184 H1175 0.929 . S
C1184 C1176 1.378 . S
C1184 C1179 1.350 . S
C1185 H1172 0.929 . S
C1185 C1177 1.433 . S
C1185 N1187 1.384 . S
N1186 C1182 1.427 . S
N1186 C1183 1.384 . S
N1187 C1179 1.427 . S
N1187 C1185 1.384 . S
H1188 C1194 0.930 . S
H1189 C1198 0.930 . S
H1190 C1203 0.929 . S
H1191 C1201 0.929 . S
H1192 C1196 0.929 . S
H1193 C1202 0.929 . S
C1194 H1188 0.930 . S
C1194 C1195 1.367 . S
C1194 C1202 1.378 1_565 S
C1195 C1194 1.367 . S
C1195 C1203 1.433 1_565 S
C1196 H1192 0.929 . S
C1196 C1198 1.378 . S
C1196 C1200 1.350 . S
C1197 C1200 1.463 . S
C1197 C1202 1.350 . S
C1197 N1205 1.427 . S
C1198 H1189 0.930 . S
C1198 C1196 1.378 . S
C1198 C1199 1.367 . S
C1199 C1198 1.367 . S
C1199 C1201 1.433 . S
C1200 C1196 1.350 . S
C1200 C1197 1.463 . S
C1200 N1204 1.427 . S
C1201 H1191 0.929 . S
C1201 C1199 1.433 . S
C1201 N1204 1.384 . S
C1202 H1193 0.929 . S
C1202 C1194 1.378 1_545 S
C1202 C1197 1.350 . S
C1203 H1190 0.929 . S
C1203 C1195 1.433 1_545 S
C1203 N1205 1.384 . S
N1204 C1200 1.427 . S
N1204 C1201 1.384 . S
N1205 C1197 1.427 . S
N1205 C1203 1.384 . S
H1206 C1212 0.930 . S
H1207 C1216 0.930 . S
H1208 C1221 0.929 . S
H1209 C1219 0.929 . S
H1210 C1214 0.929 . S
H1211 C1220 0.929 . S
C1212 H1206 0.930 . S
C1212 C1213 1.367 . S
C1212 C1220 1.378 . S
C1213 C1212 1.367 . S
C1213 C1221 1.433 . S
C1214 H1210 0.929 . S
C1214 C1216 1.378 . S
C1214 C1218 1.350 . S
C1215 C1218 1.463 . S
C1215 C1220 1.350 . S
C1215 N1223 1.427 . S
C1216 H1207 0.930 . S
C1216 C1214 1.378 . S
C1216 C1217 1.367 . S
C1217 C1216 1.367 . S
C1217 C1219 1.433 . S
C1218 C1214 1.350 . S
C1218 C1215 1.463 . S
C1218 N1222 1.427 . S
C1219 H1209 0.929 . S
C1219 C1217 1.433 . S
C1219 N1222 1.384 . S
C1220 H1211 0.929 . S
C1220 C1212 1.378 . S
C1220 C1215 1.350 . S
C1221 H1208 0.929 . S
C1221 C1213 1.433 . S
C1221 N1223 1.384 . S
N1222 C1218 1.427 . S
N1222 C1219 1.384 . S
N1223 C1215 1.427 . S
N1223 C1221 1.384 . S
H1224 C1230 0.930 . S
H1225 C1234 0.930 . S
H1226 C1239 0.929 . S
H1227 C1237 0.929 . S
H1228 C1232 0.929 . S
H1229 C1238 0.929 . S
C1230 H1224 0.930 . S
C1230 C1231 1.367 . S
C1230 C1238 1.378 . S
C1231 C1230 1.367 . S
C1231 C1239 1.433 . S
C1232 H1228 0.929 . S
C1232 C1234 1.378 . S
C1232 C1236 1.350 . S
C1233 C1236 1.463 . S
C1233 C1238 1.350 . S
C1233 N1241 1.427 . S
C1234 H1225 0.930 . S
C1234 C1232 1.378 . S
C1234 C1235 1.367 . S
C1235 C1234 1.367 . S
C1235 C1237 1.433 . S
C1236 C1232 1.350 . S
C1236 C1233 1.463 . S
C1236 N1240 1.427 . S
C1237 H1227 0.929 . S
C1237 C1235 1.433 . S
C1237 N1240 1.384 . S
C1238 H1229 0.929 . S
C1238 C1230 1.378 . S
C1238 C1233 1.350 . S
C1239 H1226 0.929 . S
C1239 C1231 1.433 . S
C1239 N1241 1.384 . S
N1240 C1236 1.427 . S
N1240 C1237 1.384 . S
N1241 C1233 1.427 . S
N1241 C1239 1.384 . S
H1242 C1248 0.930 . S
H1243 C1252 0.930 . S
H1244 C1257 0.929 . S
H1245 C1255 0.929 . S
H1246 C1250 0.929 . S
H1247 C1256 0.929 . S
C1248 H1242 0.930 . S
C1248 C1249 1.367 . S
C1248 C1256 1.378 . S
C1249 C1248 1.367 . S
C1249 C1257 1.433 . S
C1250 H1246 0.929 . S
C1250 C1252 1.378 . S
C1250 C1254 1.350 . S
C1251 C1254 1.463 . S
C1251 C1256 1.350 . S
C1251 N1259 1.427 . S
C1252 H1243 0.930 . S
C1252 C1250 1.378 . S
C1252 C1253 1.367 . S
C1253 C1252 1.367 . S
C1253 C1255 1.433 . S
C1254 C1250 1.350 . S
C1254 C1251 1.463 . S
C1254 N1258 1.427 . S
C1255 H1245 0.929 . S
C1255 C1253 1.433 . S
C1255 N1258 1.384 . S
C1256 H1247 0.929 . S
C1256 C1248 1.378 . S
C1256 C1251 1.350 . S
C1257 H1244 0.929 . S
C1257 C1249 1.433 . S
C1257 N1259 1.384 . S
N1258 C1254 1.427 . S
N1258 C1255 1.384 . S
N1259 C1251 1.427 . S
N1259 C1257 1.384 . S
H1260 C1266 0.930 . S
H1261 C1270 0.930 . S
H1262 C1275 0.929 . S
H1263 C1273 0.929 . S
H1264 C1268 0.929 . S
H1265 C1274 0.929 . S
C1266 H1260 0.930 . S
C1266 C1267 1.367 . S
C1266 C1274 1.378 . S
C1267 C1266 1.367 . S
C1267 C1275 1.433 . S
C1268 H1264 0.929 . S
C1268 C1270 1.378 . S
C1268 C1272 1.350 . S
C1269 C1272 1.463 . S
C1269 C1274 1.350 . S
C1269 N1277 1.427 . S
C1270 H1261 0.930 . S
C1270 C1268 1.378 . S
C1270 C1271 1.367 . S
C1271 C1270 1.367 . S
C1271 C1273 1.433 . S
C1272 C1268 1.350 . S
C1272 C1269 1.463 . S
C1272 N1276 1.427 . S
C1273 H1263 0.929 . S
C1273 C1271 1.433 . S
C1273 N1276 1.384 . S
C1274 H1265 0.929 . S
C1274 C1266 1.378 . S
C1274 C1269 1.350 . S
C1275 H1262 0.929 . S
C1275 C1267 1.433 . S
C1275 N1277 1.384 . S
N1276 C1272 1.427 . S
N1276 C1273 1.384 . S
N1277 C1269 1.427 . S
N1277 C1275 1.384 . S
H1278 C1284 0.930 . S
H1279 C1288 0.930 . S
H1280 C1293 0.929 . S
H1281 C1291 0.929 . S
H1282 C1286 0.929 . S
H1283 C1292 0.929 . S
C1284 H1278 0.930 . S
C1284 C1285 1.367 . S
C1284 C1292 1.378 . S
C1285 C1284 1.367 . S
C1285 C1293 1.433 . S
C1286 H1282 0.929 . S
C1286 C1288 1.378 . S
C1286 C1290 1.350 . S
C1287 C1290 1.463 . S
C1287 C1292 1.350 . S
C1287 N1295 1.427 . S
C1288 H1279 0.930 . S
C1288 C1286 1.378 . S
C1288 C1289 1.367 . S
C1289 C1288 1.367 . S
C1289 C1291 1.433 . S
C1290 C1286 1.350 . S
C1290 C1287 1.463 . S
C1290 N1294 1.427 . S
C1291 H1281 0.929 . S
C1291 C1289 1.433 . S
C1291 N1294 1.384 . S
C1292 H1283 0.929 . S
C1292 C1284 1.378 . S
C1292 C1287 1.350 . S
C1293 H1280 0.929 . S
C1293 C1285 1.433 . S
C1293 N1295 1.384 . S
N1294 C1290 1.427 . S
N1294 C1291 1.384 . S
N1295 C1287 1.427 . S
N1295 C1293 1.384 . S
H1296 C1302 0.930 . S
H1297 C1306 0.930 . S
H1298 C1311 0.929 . S
H1299 C1309 0.929 . S
H1300 C1304 0.929 . S
H1301 C1310 0.929 . S
C1302 H1296 0.930 . S
C1302 C1303 1.367 . S
C1302 C1310 1.378 . S
C1303 C1302 1.367 . S
C1303 C1311 1.433 . S
C1304 H1300 0.929 . S
C1304 C1306 1.378 . S
C1304 C1308 1.350 . S
C1305 C1308 1.463 . S
C1305 C1310 1.350 . S
C1305 N1313 1.427 . S
C1306 H1297 0.930 . S
C1306 C1304 1.378 . S
C1306 C1307 1.367 . S
C1307 C1306 1.367 . S
C1307 C1309 1.433 . S
C1308 C1304 1.350 . S
C1308 C1305 1.463 . S
C1308 N1312 1.427 . S
C1309 H1299 0.929 . S
C1309 C1307 1.433 . S
C1309 N1312 1.384 . S
C1310 H1301 0.929 . S
C1310 C1302 1.378 . S
C1310 C1305 1.350 . S
C1311 H1298 0.929 . S
C1311 C1303 1.433 . S
C1311 N1313 1.384 . S
N1312 C1308 1.427 . S
N1312 C1309 1.384 . S
N1313 C1305 1.427 . S
N1313 C1311 1.384 . S
H1314 C1320 0.930 . S
H1315 C1324 0.930 . S
H1316 C1329 0.929 . S
H1317 C1327 0.929 . S
H1318 C1322 0.929 . S
H1319 C1328 0.929 . S
C1320 H1314 0.930 . S
C1320 C1321 1.367 . S
C1320 C1328 1.378 1_455 S
C1321 C1320 1.367 . S
C1321 C1329 1.433 . S
C1322 H1318 0.929 . S
C1322 C1324 1.378 . S
C1322 C1326 1.350 . S
C1323 C1326 1.463 . S
C1323 C1328 1.350 . S
C1323 N1331 1.427 1_655 S
C1324 H1315 0.930 . S
C1324 C1322 1.378 . S
C1324 C1325 1.367 . S
C1325 C1324 1.367 . S
C1325 C1327 1.433 . S
C1326 C1322 1.350 . S
C1326 C1323 1.463 . S
C1326 N1330 1.427 . S
C1327 H1317 0.929 . S
C1327 C1325 1.433 . S
C1327 N1330 1.384 . S
C1328 H1319 0.929 . S
C1328 C1320 1.378 1_655 S
C1328 C1323 1.350 . S
C1329 H1316 0.929 . S
C1329 C1321 1.433 . S
C1329 N1331 1.384 . S
N1330 C1326 1.427 . S
N1330 C1327 1.384 . S
N1331 C1323 1.427 1_455 S
N1331 C1329 1.384 . S
H1332 C1338 0.930 . S
H1333 C1342 0.930 . S
H1334 C1347 0.929 . S
H1335 C1345 0.929 . S
H1336 C1340 0.929 . S
H1337 C1346 0.929 . S
C1338 H1332 0.930 . S
C1338 C1339 1.367 . S
C1338 C1346 1.378 . S
C1339 C1338 1.367 . S
C1339 C1347 1.433 . S
C1340 H1336 0.929 . S
C1340 C1342 1.378 . S
C1340 C1344 1.350 . S
C1341 C1344 1.463 . S
C1341 C1346 1.350 . S
C1341 N1349 1.427 . S
C1342 H1333 0.930 . S
C1342 C1340 1.378 . S
C1342 C1343 1.367 . S
C1343 C1342 1.367 . S
C1343 C1345 1.433 . S
C1344 C1340 1.350 . S
C1344 C1341 1.463 . S
C1344 N1348 1.427 . S
C1345 H1335 0.929 . S
C1345 C1343 1.433 . S
C1345 N1348 1.384 . S
C1346 H1337 0.929 . S
C1346 C1338 1.378 . S
C1346 C1341 1.350 . S
C1347 H1334 0.929 . S
C1347 C1339 1.433 . S
C1347 N1349 1.384 . S
N1348 C1344 1.427 . S
N1348 C1345 1.384 . S
N1349 C1341 1.427 . S
N1349 C1347 1.384 . S
H1350 C1356 0.930 . S
H1351 C1360 0.930 . S
H1352 C1365 0.929 . S
H1353 C1363 0.929 . S
H1354 C1358 0.929 . S
H1355 C1364 0.929 . S
C1356 H1350 0.930 . S
C1356 C1357 1.367 . S
C1356 C1364 1.378 . S
C1357 C1356 1.367 . S
C1357 C1365 1.433 . S
C1358 H1354 0.929 . S
C1358 C1360 1.378 . S
C1358 C1362 1.350 . S
C1359 C1362 1.420 1_655 S
C1359 C1364 1.383 . S
C1359 N1367 1.436 . S
C1360 H1351 0.930 . S
C1360 C1358 1.378 . S
C1360 C1361 1.367 . S
C1361 C1360 1.367 . S
C1361 C1363 1.433 . S
C1362 C1358 1.350 . S
C1362 C1359 1.420 1_455 S
C1362 N1366 1.427 . S
C1363 H1353 0.929 . S
C1363 C1361 1.433 . S
C1363 N1366 1.384 . S
C1364 H1355 0.929 . S
C1364 C1356 1.378 . S
C1364 C1359 1.383 . S
C1365 H1352 0.929 . S
C1365 C1357 1.433 . S
C1365 N1367 1.384 . S
N1366 C1362 1.427 . S
N1366 C1363 1.384 . S
N1367 C1359 1.436 . S
N1367 C1365 1.384 . S
H1368 C1374 0.930 . S
H1369 C1378 0.930 . S
H1370 C1383 0.929 . S
H1371 C1381 0.929 . S
H1372 C1376 0.929 . S
H1373 C1382 0.929 . S
C1374 H1368 0.930 . S
C1374 C1375 1.367 . S
C1374 C1382 1.378 . S
C1375 C1374 1.367 . S
C1375 C1383 1.433 . S
C1376 H1372 0.929 . S
C1376 C1378 1.378 . S
C1376 C1380 1.350 . S
C1377 C1380 1.463 . S
C1377 C1382 1.350 . S
C1377 N1385 1.427 . S
C1378 H1369 0.930 . S
C1378 C1376 1.378 . S
C1378 C1379 1.367 . S
C1379 C1378 1.367 . S
C1379 C1381 1.433 . S
C1380 C1376 1.350 . S
C1380 C1377 1.463 . S
C1380 N1384 1.427 . S
C1381 H1371 0.929 . S
C1381 C1379 1.433 . S
C1381 N1384 1.384 . S
C1382 H1373 0.929 . S
C1382 C1374 1.378 . S
C1382 C1377 1.350 . S
C1383 H1370 0.929 . S
C1383 C1375 1.433 . S
C1383 N1385 1.384 . S
N1384 C1380 1.427 . S
N1384 C1381 1.384 . S
N1385 C1377 1.427 . S
N1385 C1383 1.384 . S
H1386 C1392 0.930 . S
H1387 C1396 0.930 . S
H1388 C1401 0.929 . S
H1389 C1399 0.929 . S
H1390 C1394 0.929 . S
H1391 C1400 0.929 . S
C1392 H1386 0.930 . S
C1392 C1393 1.367 1_556 S
C1392 C1400 1.378 . S
C1393 C1392 1.367 1_554 S
C1393 C1401 1.433 . S
C1394 H1390 0.929 . S
C1394 C1396 1.378 . S
C1394 C1398 1.350 . S
C1395 C1398 1.463 . S
C1395 C1400 1.350 . S
C1395 N1403 1.427 1_556 S
C1396 H1387 0.930 . S
C1396 C1394 1.378 . S
C1396 C1397 1.367 . S
C1397 C1396 1.367 . S
C1397 C1399 1.433 . S
C1398 C1394 1.350 . S
C1398 C1395 1.463 . S
C1398 N1402 1.427 . S
C1399 H1389 0.929 . S
C1399 C1397 1.433 . S
C1399 N1402 1.384 . S
C1400 H1391 0.929 . S
C1400 C1392 1.378 . S
C1400 C1395 1.350 . S
C1401 H1388 0.929 . S
C1401 C1393 1.433 . S
C1401 N1403 1.384 . S
N1402 C1398 1.427 . S
N1402 C1399 1.384 . S
N1403 C1395 1.427 1_554 S
N1403 C1401 1.384 . S
H1404 C1410 0.930 . S
H1405 C1414 0.930 . S
H1406 C1419 0.929 . S
H1407 C1417 0.929 . S
H1408 C1412 0.929 . S
H1409 C1418 0.929 . S
C1410 H1404 0.930 . S
C1410 C1411 1.367 . S
C1410 C1418 1.378 . S
C1411 C1410 1.367 . S
C1411 C1419 1.433 . S
C1412 H1408 0.929 . S
C1412 C1414 1.378 . S
C1412 C1416 1.350 . S
C1413 C1416 1.463 . S
C1413 C1418 1.350 . S
C1413 N1421 1.427 . S
C1414 H1405 0.930 . S
C1414 C1412 1.378 . S
C1414 C1415 1.367 . S
C1415 C1414 1.367 . S
C1415 C1417 1.433 . S
C1416 C1412 1.350 . S
C1416 C1413 1.463 . S
C1416 N1420 1.427 . S
C1417 H1407 0.929 . S
C1417 C1415 1.433 . S
C1417 N1420 1.384 . S
C1418 H1409 0.929 . S
C1418 C1410 1.378 . S
C1418 C1413 1.350 . S
C1419 H1406 0.929 . S
C1419 C1411 1.433 . S
C1419 N1421 1.384 . S
N1420 C1416 1.427 . S
N1420 C1417 1.384 . S
N1421 C1413 1.427 . S
N1421 C1419 1.384 . S
H1422 C1428 0.930 . S
H1423 C1432 0.930 . S
H1424 C1437 0.929 . S
H1425 C1435 0.929 . S
H1426 C1430 0.929 . S
H1427 C1436 0.929 . S
C1428 H1422 0.930 . S
C1428 C1429 1.367 . S
C1428 C1436 1.378 . S
C1429 C1428 1.367 . S
C1429 C1437 1.433 . S
C1430 H1426 0.929 . S
C1430 C1432 1.378 . S
C1430 C1434 1.350 . S
C1431 C1434 1.463 1_554 S
C1431 C1436 1.350 . S
C1431 N1439 1.427 . S
C1432 H1423 0.930 . S
C1432 C1430 1.378 . S
C1432 C1433 1.367 . S
C1433 C1432 1.367 . S
C1433 C1435 1.433 . S
C1434 C1430 1.350 . S
C1434 C1431 1.463 1_556 S
C1434 N1438 1.427 . S
C1435 H1425 0.929 . S
C1435 C1433 1.433 . S
C1435 N1438 1.384 . S
C1436 H1427 0.929 . S
C1436 C1428 1.378 . S
C1436 C1431 1.350 . S
C1437 H1424 0.929 . S
C1437 C1429 1.433 . S
C1437 N1439 1.384 . S
N1438 C1434 1.427 . S
N1438 C1435 1.384 . S
N1439 C1431 1.427 . S
N1439 C1437 1.384 . S
H1440 C1446 0.930 . S
H1441 C1450 0.930 . S
H1442 C1455 0.929 . S
H1443 C1453 0.929 . S
H1444 C1448 0.929 . S
H1445 C1454 0.929 . S
C1446 H1440 0.930 . S
C1446 C1447 1.367 . S
C1446 C1454 1.378 . S
C1447 C1446 1.367 . S
C1447 C1455 1.433 . S
C1448 H1444 0.929 . S
C1448 C1450 1.378 . S
C1448 C1452 1.350 . S
C1449 C1452 1.463 . S
C1449 C1454 1.350 . S
C1449 N1457 1.427 . S
C1450 H1441 0.930 . S
C1450 C1448 1.378 . S
C1450 C1451 1.367 . S
C1451 C1450 1.367 . S
C1451 C1453 1.433 . S
C1452 C1448 1.350 . S
C1452 C1449 1.463 . S
C1452 N1456 1.427 . S
C1453 H1443 0.929 . S
C1453 C1451 1.433 . S
C1453 N1456 1.384 . S
C1454 H1445 0.929 . S
C1454 C1446 1.378 . S
C1454 C1449 1.350 . S
C1455 H1442 0.929 . S
C1455 C1447 1.433 . S
C1455 N1457 1.384 . S
N1456 C1452 1.427 . S
N1456 C1453 1.384 . S
N1457 C1449 1.427 . S
N1457 C1455 1.384 . S
H1458 C1464 0.930 . S
H1459 C1468 0.930 . S
H1460 C1473 0.929 . S
H1461 C1471 0.929 . S
H1462 C1466 0.929 . S
H1463 C1472 0.929 . S
C1464 H1458 0.930 . S
C1464 C1465 1.367 . S
C1464 C1472 1.378 1_556 S
C1465 C1464 1.367 . S
C1465 C1473 1.433 . S
C1466 H1462 0.929 . S
C1466 C1468 1.378 . S
C1466 C1470 1.350 . S
C1467 C1470 1.463 . S
C1467 C1472 1.350 . S
C1467 N1475 1.427 . S
C1468 H1459 0.930 . S
C1468 C1466 1.378 . S
C1468 C1469 1.367 . S
C1469 C1468 1.367 . S
C1469 C1471 1.433 . S
C1470 C1466 1.350 . S
C1470 C1467 1.463 . S
C1470 N1474 1.427 . S
C1471 H1461 0.929 . S
C1471 C1469 1.433 . S
C1471 N1474 1.384 . S
C1472 H1463 0.929 . S
C1472 C1464 1.378 1_554 S
C1472 C1467 1.350 . S
C1473 H1460 0.929 . S
C1473 C1465 1.433 . S
C1473 N1475 1.384 1_556 S
N1474 C1470 1.427 . S
N1474 C1471 1.384 . S
N1475 C1467 1.427 . S
N1475 C1473 1.384 1_554 S
H1476 C1482 0.930 . S
H1477 C1486 0.930 . S
H1478 C1491 0.929 . S
H1479 C1489 0.929 . S
H1480 C1484 0.929 . S
H1481 C1490 0.929 . S
C1482 H1476 0.930 . S
C1482 C1483 1.367 . S
C1482 C1490 1.378 . S
C1483 C1482 1.367 . S
C1483 C1491 1.433 . S
C1484 H1480 0.929 . S
C1484 C1486 1.378 . S
C1484 C1488 1.350 . S
C1485 C1488 1.463 . S
C1485 C1490 1.350 . S
C1485 N1493 1.427 . S
C1486 H1477 0.930 . S
C1486 C1484 1.378 . S
C1486 C1487 1.367 . S
C1487 C1486 1.367 . S
C1487 C1489 1.433 . S
C1488 C1484 1.350 . S
C1488 C1485 1.463 . S
C1488 N1492 1.427 . S
C1489 H1479 0.929 . S
C1489 C1487 1.433 . S
C1489 N1492 1.384 . S
C1490 H1481 0.929 . S
C1490 C1482 1.378 . S
C1490 C1485 1.350 . S
C1491 H1478 0.929 . S
C1491 C1483 1.433 . S
C1491 N1493 1.384 . S
N1492 C1488 1.427 . S
N1492 C1489 1.384 . S
N1493 C1485 1.427 . S
N1493 C1491 1.384 . S
H1494 C1500 0.930 . S
H1495 C1504 0.930 . S
H1496 C1509 0.929 . S
H1497 C1507 0.929 . S
H1498 C1502 0.929 . S
H1499 C1508 0.929 . S
C1500 H1494 0.930 . S
C1500 C1501 1.367 . S
C1500 C1508 1.378 . S
C1501 C1500 1.367 . S
C1501 C1509 1.433 . S
C1502 H1498 0.929 . S
C1502 C1504 1.378 . S
C1502 C1506 1.350 . S
C1503 C1506 1.463 . S
C1503 C1508 1.350 . S
C1503 N1511 1.427 . S
C1504 H1495 0.930 . S
C1504 C1502 1.378 . S
C1504 C1505 1.367 . S
C1505 C1504 1.367 . S
C1505 C1507 1.433 . S
C1506 C1502 1.350 . S
C1506 C1503 1.463 . S
C1506 N1510 1.427 . S
C1507 H1497 0.929 . S
C1507 C1505 1.433 . S
C1507 N1510 1.384 . S
C1508 H1499 0.929 . S
C1508 C1500 1.378 . S
C1508 C1503 1.350 . S
C1509 H1496 0.929 . S
C1509 C1501 1.433 . S
C1509 N1511 1.384 . S
N1510 C1506 1.427 . S
N1510 C1507 1.384 . S
N1511 C1503 1.427 . S
N1511 C1509 1.384 . S
H1512 C1518 0.930 . S
H1513 C1522 0.930 . S
H1514 C1527 0.929 . S
H1515 C1525 0.929 . S
H1516 C1520 0.929 . S
H1517 C1526 0.929 . S
C1518 H1512 0.930 . S
C1518 C1519 1.367 . S
C1518 C1526 1.378 . S
C1519 C1518 1.367 . S
C1519 C1527 1.433 . S
C1520 H1516 0.929 . S
C1520 C1522 1.378 . S
C1520 C1524 1.350 . S
C1521 C1524 1.463 . S
C1521 C1526 1.350 . S
C1521 N1529 1.427 . S
C1522 H1513 0.930 . S
C1522 C1520 1.378 . S
C1522 C1523 1.367 . S
C1523 C1522 1.367 . S
C1523 C1525 1.433 . S
C1524 C1520 1.350 . S
C1524 C1521 1.463 . S
C1524 N1528 1.427 . S
C1525 H1515 0.929 . S
C1525 C1523 1.433 . S
C1525 N1528 1.384 . S
C1526 H1517 0.929 . S
C1526 C1518 1.378 . S
C1526 C1521 1.350 . S
C1527 H1514 0.929 . S
C1527 C1519 1.433 . S
C1527 N1529 1.384 . S
N1528 C1524 1.427 . S
N1528 C1525 1.384 . S
N1529 C1521 1.427 . S
N1529 C1527 1.384 . S
H1530 C1536 0.930 . S
H1531 C1540 0.930 . S
H1532 C1545 0.929 . S
H1533 C1543 0.929 . S
H1534 C1538 0.929 . S
H1535 C1544 0.929 . S
C1536 H1530 0.930 . S
C1536 C1537 1.367 . S
C1536 C1544 1.378 . S
C1537 C1536 1.367 . S
C1537 C1545 1.433 . S
C1538 H1534 0.929 . S
C1538 C1540 1.378 . S
C1538 C1542 1.350 . S
C1539 C1542 1.463 . S
C1539 C1544 1.350 . S
C1539 N1547 1.427 . S
C1540 H1531 0.930 . S
C1540 C1538 1.378 . S
C1540 C1541 1.367 . S
C1541 C1540 1.367 . S
C1541 C1543 1.433 . S
C1542 C1538 1.350 . S
C1542 C1539 1.463 . S
C1542 N1546 1.427 . S
C1543 H1533 0.929 . S
C1543 C1541 1.433 . S
C1543 N1546 1.384 . S
C1544 H1535 0.929 . S
C1544 C1536 1.378 . S
C1544 C1539 1.350 . S
C1545 H1532 0.929 . S
C1545 C1537 1.433 . S
C1545 N1547 1.384 . S
N1546 C1542 1.427 . S
N1546 C1543 1.384 . S
N1547 C1539 1.427 . S
N1547 C1545 1.384 . S
H1548 C1554 0.930 . S
H1549 C1558 0.930 . S
H1550 C1563 0.929 . S
H1551 C1561 0.929 . S
H1552 C1556 0.929 . S
H1553 C1562 0.929 . S
C1554 H1548 0.930 . S
C1554 C1555 1.367 . S
C1554 C1562 1.378 . S
C1555 C1554 1.367 . S
C1555 C1563 1.433 . S
C1556 H1552 0.929 . S
C1556 C1558 1.378 . S
C1556 C1560 1.350 . S
C1557 C1560 1.463 . S
C1557 C1562 1.350 . S
C1557 N1565 1.427 . S
C1558 H1549 0.930 . S
C1558 C1556 1.378 . S
C1558 C1559 1.367 . S
C1559 C1558 1.367 . S
C1559 C1561 1.433 . S
C1560 C1556 1.350 . S
C1560 C1557 1.463 . S
C1560 N1564 1.427 . S
C1561 H1551 0.929 . S
C1561 C1559 1.433 . S
C1561 N1564 1.384 . S
C1562 H1553 0.929 . S
C1562 C1554 1.378 . S
C1562 C1557 1.350 . S
C1563 H1550 0.929 . S
C1563 C1555 1.433 . S
C1563 N1565 1.384 . S
N1564 C1560 1.427 . S
N1564 C1561 1.384 . S
N1565 C1557 1.427 . S
N1565 C1563 1.384 . S
H1566 C1572 0.930 . S
H1567 C1576 0.930 . S
H1568 C1581 0.929 . S
H1569 C1579 0.929 . S
H1570 C1574 0.929 . S
H1571 C1580 0.929 . S
C1572 H1566 0.930 . S
C1572 C1573 1.367 . S
C1572 C1580 1.378 . S
C1573 C1572 1.367 . S
C1573 C1581 1.433 . S
C1574 H1570 0.929 . S
C1574 C1576 1.378 . S
C1574 C1578 1.350 . S
C1575 C1578 1.463 . S
C1575 C1580 1.350 . S
C1575 N1583 1.427 . S
C1576 H1567 0.930 . S
C1576 C1574 1.378 . S
C1576 C1577 1.367 . S
C1577 C1576 1.367 . S
C1577 C1579 1.433 . S
C1578 C1574 1.350 . S
C1578 C1575 1.463 . S
C1578 N1582 1.427 . S
C1579 H1569 0.929 . S
C1579 C1577 1.433 . S
C1579 N1582 1.384 . S
C1580 H1571 0.929 . S
C1580 C1572 1.378 . S
C1580 C1575 1.350 . S
C1581 H1568 0.929 . S
C1581 C1573 1.433 . S
C1581 N1583 1.384 . S
N1582 C1578 1.427 . S
N1582 C1579 1.384 . S
N1583 C1575 1.427 . S
N1583 C1581 1.384 . S
H1584 C1590 0.930 . S
H1585 C1594 0.930 . S
H1586 C1599 0.929 . S
H1587 C1597 0.929 . S
H1588 C1592 0.929 . S
H1589 C1598 0.929 . S
C1590 H1584 0.930 . S
C1590 C1591 1.367 . S
C1590 C1598 1.378 . S
C1591 C1590 1.367 . S
C1591 C1599 1.433 . S
C1592 H1588 0.929 . S
C1592 C1594 1.378 . S
C1592 C1596 1.350 . S
C1593 C1596 1.463 . S
C1593 C1598 1.350 . S
C1593 N1601 1.427 . S
C1594 H1585 0.930 . S
C1594 C1592 1.378 . S
C1594 C1595 1.367 . S
C1595 C1594 1.367 . S
C1595 C1597 1.433 . S
C1596 C1592 1.350 . S
C1596 C1593 1.463 . S
C1596 N1600 1.427 . S
C1597 H1587 0.929 . S
C1597 C1595 1.433 . S
C1597 N1600 1.384 . S
C1598 H1589 0.929 . S
C1598 C1590 1.378 . S
C1598 C1593 1.350 . S
C1599 H1586 0.929 . S
C1599 C1591 1.433 . S
C1599 N1601 1.384 . S
N1600 C1596 1.427 . S
N1600 C1597 1.384 . S
N1601 C1593 1.427 . S
N1601 C1599 1.384 . S
H1602 C1608 0.930 . S
H1603 C1612 0.930 . S
H1604 C1617 0.929 . S
H1605 C1615 0.929 . S
H1606 C1610 0.929 . S
H1607 C1616 0.929 . S
C1608 H1602 0.930 . S
C1608 C1609 1.367 . S
C1608 C1616 1.378 . S
C1609 C1608 1.367 . S
C1609 C1617 1.433 . S
C1610 H1606 0.929 . S
C1610 C1612 1.378 . S
C1610 C1614 1.350 . S
C1611 C1614 1.463 . S
C1611 C1616 1.350 . S
C1611 N1619 1.427 . S
C1612 H1603 0.930 . S
C1612 C1610 1.378 . S
C1612 C1613 1.367 . S
C1613 C1612 1.367 . S
C1613 C1615 1.433 . S
C1614 C1610 1.350 . S
C1614 C1611 1.463 . S
C1614 N1618 1.427 . S
C1615 H1605 0.929 . S
C1615 C1613 1.433 . S
C1615 N1618 1.384 . S
C1616 H1607 0.929 . S
C1616 C1608 1.378 . S
C1616 C1611 1.350 . S
C1617 H1604 0.929 . S
C1617 C1609 1.433 . S
C1617 N1619 1.384 . S
N1618 C1614 1.427 . S
N1618 C1615 1.384 . S
N1619 C1611 1.427 . S
N1619 C1617 1.384 . S
H1620 C1626 0.930 . S
H1621 C1630 0.930 . S
H1622 C1635 0.929 . S
H1623 C1633 0.929 . S
H1624 C1628 0.929 . S
H1625 C1634 0.929 . S
C1626 H1620 0.930 . S
C1626 C1627 1.367 . S
C1626 C1634 1.378 . S
C1627 C1626 1.367 . S
C1627 C1635 1.433 . S
C1628 H1624 0.929 . S
C1628 C1630 1.378 . S
C1628 C1632 1.350 . S
C1629 C1632 1.463 . S
C1629 C1634 1.350 . S
C1629 N1637 1.427 . S
C1630 H1621 0.930 . S
C1630 C1628 1.378 . S
C1630 C1631 1.367 . S
C1631 C1630 1.367 . S
C1631 C1633 1.433 . S
C1632 C1628 1.350 . S
C1632 C1629 1.463 . S
C1632 N1636 1.427 . S
C1633 H1623 0.929 . S
C1633 C1631 1.433 . S
C1633 N1636 1.384 . S
C1634 H1625 0.929 . S
C1634 C1626 1.378 . S
C1634 C1629 1.350 . S
C1635 H1622 0.929 . S
C1635 C1627 1.433 . S
C1635 N1637 1.384 . S
N1636 C1632 1.427 . S
N1636 C1633 1.384 . S
N1637 C1629 1.427 . S
N1637 C1635 1.384 . S
H1638 C1644 0.930 . S
H1639 C1648 0.930 . S
H1640 C1653 0.929 . S
H1641 C1651 0.929 . S
H1642 C1646 0.936 . S
H1643 C1652 0.929 . S
C1644 H1638 0.930 . S
C1644 C1645 1.367 . S
C1644 C1652 1.378 . S
C1645 C1644 1.367 . S
C1645 C1653 1.433 . S
C1646 H1642 0.936 . S
C1646 C1648 1.378 . S
C1646 C1650 1.350 1_565 S
C1647 C1650 1.463 . S
C1647 C1652 1.350 . S
C1647 N1655 1.427 . S
C1648 H1639 0.930 . S
C1648 C1646 1.378 . S
C1648 C1649 1.367 . S
C1649 C1648 1.367 . S
C1649 C1651 1.433 . S
C1650 C1646 1.350 1_545 S
C1650 C1647 1.463 . S
C1650 N1654 1.427 . S
C1651 H1641 0.929 . S
C1651 C1649 1.433 . S
C1651 N1654 1.384 1_565 S
C1652 H1643 0.929 . S
C1652 C1644 1.378 . S
C1652 C1647 1.350 . S
C1653 H1640 0.929 . S
C1653 C1645 1.433 . S
C1653 N1655 1.384 . S
N1654 C1650 1.427 . S
N1654 C1651 1.384 1_545 S
N1655 C1647 1.427 . S
N1655 C1653 1.384 . S
C803 C632 1.615 1_556 S
C799 C211 1.623 . S
C821 C647 1.729 . S
C817 C255 1.775 . S
C835 C274 1.715 . S
C839 C660 1.711 . S
C857 C674 1.593 . S
C853 C157 1.624 . S
C875 C686 1.649 . S
C871 C391 1.719 . S
C893 C700 1.388 . S
C889 C484 1.378 . S
C907 C450 1.768 . S
C911 C714 1.726 . S
C929 C729 1.534 . S
C925 C352 1.521 . S
C943 C430 1.672 . S
C947 C745 1.663 . S
C965 C758 1.576 . S
C961 C367 1.585 . S
C979 C411 1.617 . S
C983 C743 1.573 . S
C1001 C756 1.582 . S
C997 C469 1.548 . S
C1015 C294 1.844 . S
C1019 C772 1.834 . S
C1033 C177 1.614 . S
C1037 C771 1.612 . S
C1051 C196 1.749 . S
C1055 C770 1.683 . S
C1069 C235 1.652 . S
C1073 C773 1.626 . S
C1087 C133 1.697 . S
C1091 C675 1.690 . S
C1105 C567 1.505 . S
C1109 C673 1.475 . S
C1127 C633 1.568 . S
C1123 C601 1.589 . S
C1145 C644 1.753 . S
C1141 C328 1.780 . S
C1159 C172 1.648 . S
C1163 C689 1.632 . S
C1181 C730 1.890 . S
C1177 C445 1.895 . S
C1199 C687 1.591 . S
C1195 C372 1.581 . S
C1217 C715 1.560 . S
C1213 C489 1.537 . S
C1235 C716 1.617 . S
C1231 C562 1.620 . S
C1249 C606 1.781 . S
C1253 C731 1.741 . S
C1267 C313 1.717 . S
C1271 C688 1.706 . S
C1289 C702 1.588 . S
C1285 C508 1.621 . S
C1303 C118 1.719 . S
C1307 C658 1.657 . S
C1325 C672 1.387 . S
C1321 C16 1.373 . S
C1343 C630 1.727 . S
C1339 C60 1.768 . S
C1361 C645 1.535 . S
C1357 C79 1.523 . S
C1375 C40 1.673 . S
C1379 C759 1.662 . S
C1393 C94 1.576 . S
C1397 C744 1.565 . S
C1411 C138 1.617 . S
C1415 C757 1.571 . S
C1429 C1 1.535 . S
C1433 C742 1.580 . S
C1451 C786 1.835 . S
C1447 C333 1.845 . S
C1469 C785 1.613 . S
C1465 C528 1.616 . S
C1487 C784 1.682 . S
C1483 C547 1.749 . S
C1501 C586 1.659 1_554 S
C1505 C787 1.634 . S
C1519 C406 1.699 . S
C1523 C703 1.696 . S
C1541 C701 1.472 . S
C1537 C216 1.506 . S
C1559 C717 1.556 . S
C1555 C250 1.583 . S
C1577 C728 1.754 . S
C1573 C289 1.780 . S
C1591 C523 1.649 . S
C1595 C661 1.634 . S
C1613 C646 1.891 . S
C1609 C55 1.896 . S
C1627 C99 1.577 . S
C1631 C659 1.589 . S
C1649 C631 1.561 . S
C1645 C21 1.531 . S
