# Generated by pormake.
# Topology eea, (3,6)-cn, num edge types: 1
# Building blocks:
#     Node 0, Type 0, BuildingBlock: BETDIP_clean_linker_0, # of connection points: 3
#     Node 1, Type 0, BuildingBlock: BETDIP_clean_linker_0, # of connection points: 3
#     Node 2, Type 0, BuildingBlock: BETDIP_clean_linker_0, # of connection points: 3
#     Node 3, Type 0, BuildingBlock: BETDIP_clean_linker_0, # of connection points: 3
#     Node 4, Type 0, BuildingBlock: BETDIP_clean_linker_0, # of connection points: 3
#     Node 5, Type 0, BuildingBlock: BETDIP_clean_linker_0, # of connection points: 3
#     Node 6, Type 0, BuildingBlock: BETDIP_clean_linker_0, # of connection points: 3
#     Node 7, Type 0, BuildingBlock: BETDIP_clean_linker_0, # of connection points: 3
#     Node 8, Type 0, BuildingBlock: BETDIP_clean_linker_0, # of connection points: 3
#     Node 9, Type 0, BuildingBlock: BETDIP_clean_linker_0, # of connection points: 3
#     Node 10, Type 0, BuildingBlock: BETDIP_clean_linker_0, # of connection points: 3
#     Node 11, Type 0, BuildingBlock: BETDIP_clean_linker_0, # of connection points: 3
#     Node 12, Type 0, BuildingBlock: BETDIP_clean_linker_0, # of connection points: 3
#     Node 13, Type 0, BuildingBlock: BETDIP_clean_linker_0, # of connection points: 3
#     Node 14, Type 0, BuildingBlock: BETDIP_clean_linker_0, # of connection points: 3
#     Node 15, Type 0, BuildingBlock: BETDIP_clean_linker_0, # of connection points: 3
#     Node 16, Type 0, BuildingBlock: BETDIP_clean_linker_0, # of connection points: 3
#     Node 17, Type 0, BuildingBlock: BETDIP_clean_linker_0, # of connection points: 3
#     Node 18, Type 1, BuildingBlock: CIFDUS_clean_sbu_1, # of connection points: 6
#     Node 19, Type 1, BuildingBlock: CIFDUS_clean_sbu_1, # of connection points: 6
#     Node 20, Type 1, BuildingBlock: CIFDUS_clean_sbu_1, # of connection points: 6
#     Node 21, Type 1, BuildingBlock: CIFDUS_clean_sbu_1, # of connection points: 6
#     Node 22, Type 1, BuildingBlock: CIFDUS_clean_sbu_1, # of connection points: 6
#     Node 23, Type 1, BuildingBlock: CIFDUS_clean_sbu_1, # of connection points: 6
#     Node 24, Type 1, BuildingBlock: CIFDUS_clean_sbu_1, # of connection points: 6
#     Node 25, Type 1, BuildingBlock: CIFDUS_clean_sbu_1, # of connection points: 6
#     Node 26, Type 1, BuildingBlock: CIFDUS_clean_sbu_1, # of connection points: 6
#     Edge 27, Type (0, 1), BuildingBlock: KIFKEQ_clean_linker_1, # of connection points: 2
#     Edge 28, Type (0, 1), BuildingBlock: KIFKEQ_clean_linker_1, # of connection points: 2
#     Edge 29, Type (0, 1), BuildingBlock: KIFKEQ_clean_linker_1, # of connection points: 2
#     Edge 30, Type (0, 1), BuildingBlock: KIFKEQ_clean_linker_1, # of connection points: 2
#     Edge 31, Type (0, 1), BuildingBlock: KIFKEQ_clean_linker_1, # of connection points: 2
#     Edge 32, Type (0, 1), BuildingBlock: KIFKEQ_clean_linker_1, # of connection points: 2
#     Edge 33, Type (0, 1), BuildingBlock: KIFKEQ_clean_linker_1, # of connection points: 2
#     Edge 34, Type (0, 1), BuildingBlock: KIFKEQ_clean_linker_1, # of connection points: 2
#     Edge 35, Type (0, 1), BuildingBlock: KIFKEQ_clean_linker_1, # of connection points: 2
#     Edge 36, Type (0, 1), BuildingBlock: KIFKEQ_clean_linker_1, # of connection points: 2
#     Edge 37, Type (0, 1), BuildingBlock: KIFKEQ_clean_linker_1, # of connection points: 2
#     Edge 38, Type (0, 1), BuildingBlock: KIFKEQ_clean_linker_1, # of connection points: 2
#     Edge 39, Type (0, 1), BuildingBlock: KIFKEQ_clean_linker_1, # of connection points: 2
#     Edge 40, Type (0, 1), BuildingBlock: KIFKEQ_clean_linker_1, # of connection points: 2
#     Edge 41, Type (0, 1), BuildingBlock: KIFKEQ_clean_linker_1, # of connection points: 2
#     Edge 42, Type (0, 1), BuildingBlock: KIFKEQ_clean_linker_1, # of connection points: 2
#     Edge 43, Type (0, 1), BuildingBlock: KIFKEQ_clean_linker_1, # of connection points: 2
#     Edge 44, Type (0, 1), BuildingBlock: KIFKEQ_clean_linker_1, # of connection points: 2
#     Edge 45, Type (0, 1), BuildingBlock: KIFKEQ_clean_linker_1, # of connection points: 2
#     Edge 46, Type (0, 1), BuildingBlock: KIFKEQ_clean_linker_1, # of connection points: 2
#     Edge 47, Type (0, 1), BuildingBlock: KIFKEQ_clean_linker_1, # of connection points: 2
#     Edge 48, Type (0, 1), BuildingBlock: KIFKEQ_clean_linker_1, # of connection points: 2
#     Edge 49, Type (0, 1), BuildingBlock: KIFKEQ_clean_linker_1, # of connection points: 2
#     Edge 50, Type (0, 1), BuildingBlock: KIFKEQ_clean_linker_1, # of connection points: 2
#     Edge 51, Type (0, 1), BuildingBlock: KIFKEQ_clean_linker_1, # of connection points: 2
#     Edge 52, Type (0, 1), BuildingBlock: KIFKEQ_clean_linker_1, # of connection points: 2
#     Edge 53, Type (0, 1), BuildingBlock: KIFKEQ_clean_linker_1, # of connection points: 2
#     Edge 54, Type (0, 1), BuildingBlock: KIFKEQ_clean_linker_1, # of connection points: 2
#     Edge 55, Type (0, 1), BuildingBlock: KIFKEQ_clean_linker_1, # of connection points: 2
#     Edge 56, Type (0, 1), BuildingBlock: KIFKEQ_clean_linker_1, # of connection points: 2
#     Edge 57, Type (0, 1), BuildingBlock: KIFKEQ_clean_linker_1, # of connection points: 2
#     Edge 58, Type (0, 1), BuildingBlock: KIFKEQ_clean_linker_1, # of connection points: 2
#     Edge 59, Type (0, 1), BuildingBlock: KIFKEQ_clean_linker_1, # of connection points: 2
#     Edge 60, Type (0, 1), BuildingBlock: KIFKEQ_clean_linker_1, # of connection points: 2
#     Edge 61, Type (0, 1), BuildingBlock: KIFKEQ_clean_linker_1, # of connection points: 2
#     Edge 62, Type (0, 1), BuildingBlock: KIFKEQ_clean_linker_1, # of connection points: 2
#     Edge 63, Type (0, 1), BuildingBlock: KIFKEQ_clean_linker_1, # of connection points: 2
#     Edge 64, Type (0, 1), BuildingBlock: KIFKEQ_clean_linker_1, # of connection points: 2
#     Edge 65, Type (0, 1), BuildingBlock: KIFKEQ_clean_linker_1, # of connection points: 2
#     Edge 66, Type (0, 1), BuildingBlock: KIFKEQ_clean_linker_1, # of connection points: 2
#     Edge 67, Type (0, 1), BuildingBlock: KIFKEQ_clean_linker_1, # of connection points: 2
#     Edge 68, Type (0, 1), BuildingBlock: KIFKEQ_clean_linker_1, # of connection points: 2
#     Edge 69, Type (0, 1), BuildingBlock: KIFKEQ_clean_linker_1, # of connection points: 2
#     Edge 70, Type (0, 1), BuildingBlock: KIFKEQ_clean_linker_1, # of connection points: 2
#     Edge 71, Type (0, 1), BuildingBlock: KIFKEQ_clean_linker_1, # of connection points: 2
#     Edge 72, Type (0, 1), BuildingBlock: KIFKEQ_clean_linker_1, # of connection points: 2
#     Edge 73, Type (0, 1), BuildingBlock: KIFKEQ_clean_linker_1, # of connection points: 2
#     Edge 74, Type (0, 1), BuildingBlock: KIFKEQ_clean_linker_1, # of connection points: 2
#     Edge 75, Type (0, 1), BuildingBlock: KIFKEQ_clean_linker_1, # of connection points: 2
#     Edge 76, Type (0, 1), BuildingBlock: KIFKEQ_clean_linker_1, # of connection points: 2
#     Edge 77, Type (0, 1), BuildingBlock: KIFKEQ_clean_linker_1, # of connection points: 2
#     Edge 78, Type (0, 1), BuildingBlock: KIFKEQ_clean_linker_1, # of connection points: 2
#     Edge 79, Type (0, 1), BuildingBlock: KIFKEQ_clean_linker_1, # of connection points: 2
#     Edge 80, Type (0, 1), BuildingBlock: KIFKEQ_clean_linker_1, # of connection points: 2
# Relax obj value: 0.089
# Max RMSD: 0.118
# Mean RMSD: 0.103
data_MOF--net-eea--node1-CIFDUS_clean_sbu_1--node2-BETDIP_clean_linker_0--edge1-KIFKEQ_clean_linker_1
_symmetry_space_group_name_H-M    P1
_symmetry_Int_Tables_number       1
_symmetry_cell_setting            triclinic
loop_
_symmetry_equiv_pos_as_xyz
'x, y, z'
_cell_length_a     58.925315
_cell_length_b     58.459407
_cell_length_c     45.301618
_cell_angle_alpha  89.375989
_cell_angle_beta   89.365516
_cell_angle_gamma 119.92571
loop_
_atom_site_label
_atom_site_type_symbol
_atom_site_fract_x
_atom_site_fract_y
_atom_site_fract_z
_atom_type_partial_charge
H0 H 0.21856 0.10372 0.34114 0.0
H1 H 0.25557 0.15526 0.41442 0.0
H2 H 0.25932 0.08449 0.40618 0.0
H3 H 0.22687 0.16738 0.40696 0.0
C4 C 0.22223 0.16587 0.38372 0.0
C5 C 0.23024 0.10871 0.36084 0.0
C6 C 0.239 0.09176 0.37141 0.0
C7 C 0.23585 0.1317 0.37622 0.0
C8 C 0.25072 0.13768 0.40221 0.0
C9 C 0.25861 0.12029 0.41339 0.0
C10 C 0.25327 0.09793 0.39745 0.0
N11 N 0.2253 0.14762 0.36587 0.0
H12 H 0.91751 0.11849 0.33686 0.0
H13 H 0.8594 0.09683 0.40613 0.0
H14 H 0.92458 0.17574 0.40077 0.0
H15 H 0.83332 0.07382 0.36425 0.0
C16 C 0.8444 0.06375 0.36057 0.0
C17 C 0.91001 0.12381 0.35595 0.0
C18 C 0.92379 0.14965 0.36683 0.0
C19 C 0.88622 0.10495 0.36931 0.0
C20 C 0.87701 0.11161 0.39471 0.0
C21 C 0.8907 0.13704 0.40604 0.0
C22 C 0.91371 0.15617 0.39163 0.0
N23 N 0.87215 0.07904 0.3579 0.0
H24 H 0.89646 0.78795 0.32758 0.0
H25 H 0.91314 0.75729 0.40603 0.0
H26 H 0.83886 0.75401 0.39778 0.0
H27 H 0.95326 0.81241 0.38393 0.0
C28 C 0.95536 0.8005 0.36702 0.0
C29 C 0.89024 0.77801 0.34892 0.0
C30 C 0.86552 0.77123 0.36074 0.0
C31 C 0.90733 0.77277 0.36516 0.0
C32 C 0.8997 0.7609 0.39338 0.0
C33 C 0.87475 0.75359 0.40511 0.0
C34 C 0.85775 0.75861 0.38846 0.0
N35 N 0.9326 0.78045 0.35352 0.0
H36 H 0.11342 0.22732 0.69365 0.0
H37 H 0.17283 0.26536 0.62564 0.0
H38 H 0.10103 0.26708 0.62042 0.0
H39 H 0.17654 0.22892 0.6354 0.0
C40 C 0.17731 0.22965 0.65934 0.0
C41 C 0.12029 0.23882 0.67327 0.0
C42 C 0.10456 0.24714 0.65889 0.0
C43 C 0.14472 0.24486 0.66115 0.0
C44 C 0.15366 0.25985 0.6347 0.0
C45 C 0.13805 0.2679 0.61976 0.0
C46 C 0.1136 0.26162 0.63218 0.0
N47 N 0.15966 0.23502 0.67529 0.0
H48 H 0.80723 0.89825 0.67784 0.0
H49 H 0.75797 0.91474 0.62227 0.0
H50 H 0.75577 0.84086 0.61598 0.0
H51 H 0.79225 0.95363 0.61943 0.0
C52 C 0.79992 0.95776 0.6416 0.0
C53 C 0.79229 0.89211 0.66126 0.0
C54 C 0.78098 0.86649 0.64962 0.0
C55 C 0.78492 0.91017 0.65068 0.0
C56 C 0.76513 0.90184 0.62952 0.0
C57 C 0.75516 0.87731 0.61626 0.0
C58 C 0.7628 0.85959 0.62681 0.0
N59 N 0.79871 0.93704 0.6597 0.0
H60 H 0.12774 0.91015 0.68719 0.0
H61 H 0.11412 0.85651 0.61583 0.0
H62 H 0.18453 0.93142 0.617 0.0
H63 H 0.07918 0.82922 0.6387 0.0
C64 C 0.07392 0.83848 0.65595 0.0
C65 C 0.13413 0.90506 0.66704 0.0
C66 C 0.15836 0.92306 0.65389 0.0
C67 C 0.11785 0.88065 0.65382 0.0
C68 C 0.12622 0.87474 0.62699 0.0
C69 C 0.15036 0.89291 0.61364 0.0
C70 C 0.1663 0.91678 0.62753 0.0
N71 N 0.09268 0.86353 0.66696 0.0
H72 H 0.88818 0.44121 0.67141 0.0
H73 H 0.92354 0.49306 0.74448 0.0
H74 H 0.92566 0.42083 0.7393 0.0
H75 H 0.8693 0.47806 0.73327 0.0
C76 C 0.87855 0.49065 0.71392 0.0
C77 C 0.89936 0.44604 0.69148 0.0
C78 C 0.9071 0.42863 0.70315 0.0
C79 C 0.90517 0.46925 0.70652 0.0
C80 C 0.91916 0.47519 0.733 0.0
C81 C 0.92729 0.45809 0.7446 0.0
C82 C 0.92098 0.43495 0.72952 0.0
N83 N 0.89563 0.48582 0.69598 0.0
H84 H 0.58164 0.45037 0.67025 0.0
H85 H 0.522 0.44195 0.73283 0.0
H86 H 0.59724 0.51128 0.73265 0.0
H87 H 0.5058 0.40162 0.72877 0.0
C88 C 0.51253 0.3961 0.70927 0.0
C89 C 0.57487 0.45813 0.68775 0.0
C90 C 0.59164 0.48352 0.69853 0.0
C91 C 0.54984 0.44225 0.70058 0.0
C92 C 0.54139 0.45286 0.72314 0.0
C93 C 0.55864 0.47709 0.73552 0.0
C94 C 0.58366 0.49258 0.72289 0.0
N95 N 0.53468 0.4152 0.69247 0.0
H96 H 0.56266 0.11957 0.65874 0.0
H97 H 0.58262 0.09563 0.74022 0.0
H98 H 0.50777 0.09072 0.73196 0.0
H99 H 0.62163 0.14239 0.72183 0.0
C100 C 0.62368 0.13344 0.70179 0.0
C101 C 0.55733 0.11132 0.68094 0.0
C102 C 0.53284 0.10499 0.69319 0.0
C103 C 0.57541 0.10807 0.69786 0.0
C104 C 0.56866 0.09798 0.72703 0.0
C105 C 0.54422 0.09172 0.73939 0.0
C106 C 0.52648 0.09514 0.72227 0.0
N107 N 0.60084 0.11648 0.6859 0.0
H108 H 0.78067 0.56282 0.02921 0.0
H109 H 0.83686 0.5921 0.95731 0.0
H110 H 0.76971 0.60267 0.95484 0.0
H111 H 0.80832 0.52944 0.99126 0.0
C112 C 0.82519 0.54456 0.00269 0.0
C113 C 0.78721 0.573 0.00802 0.0
C114 C 0.77228 0.58217 0.99351 0.0
C115 C 0.81063 0.57691 0.99502 0.0
C116 C 0.81888 0.58943 0.96731 0.0
C117 C 0.80434 0.599 0.95286 0.0
C118 C 0.78123 0.59564 0.96621 0.0
N119 N 0.82629 0.5686 0.00983 0.0
H120 H 0.46919 0.22725 0.01469 0.0
H121 H 0.42394 0.24787 0.95783 0.0
H122 H 0.42656 0.17692 0.94267 0.0
H123 H 0.49538 0.28163 0.98316 0.0
C124 C 0.48147 0.28582 0.99433 0.0
C125 C 0.4558 0.22236 0.99656 0.0
C126 C 0.4486 0.19946 0.98005 0.0
C127 C 0.4467 0.23971 0.98857 0.0
C128 C 0.4301 0.23397 0.96457 0.0
C129 C 0.42303 0.21147 0.94799 0.0
C130 C 0.43202 0.1942 0.9559 0.0
N131 N 0.4563 0.26447 0.00218 0.0
H132 H 0.79729 0.24441 0.0207 0.0
H133 H 0.7772 0.18798 0.9513 0.0
H134 H 0.85208 0.25905 0.94965 0.0
H135 H 0.73693 0.19326 0.96216 0.0
C136 C 0.73619 0.18637 0.98473 0.0
C137 C 0.80262 0.23805 0.00072 0.0
C138 C 0.82711 0.25433 0.98688 0.0
C139 C 0.78452 0.21401 0.98801 0.0
C140 C 0.79116 0.20632 0.96139 0.0
C141 C 0.8158 0.22229 0.94779 0.0
C142 C 0.8336 0.246 0.9609 0.0
N143 N 0.75938 0.19828 0.00156 0.0
H144 H 0.54742 0.76988 0.00966 0.0
H145 H 0.58389 0.82069 0.08318 0.0
H146 H 0.59514 0.75453 0.06847 0.0
H147 H 0.58787 0.85233 0.04672 0.0
C148 C 0.56743 0.84179 0.04043 0.0
C149 C 0.56019 0.77543 0.02847 0.0
C150 C 0.57095 0.75977 0.03724 0.0
C151 C 0.56611 0.79842 0.04399 0.0
C152 C 0.5812 0.80437 0.06971 0.0
C153 C 0.59116 0.78816 0.0792 0.0
C154 C 0.58704 0.76684 0.06183 0.0
N155 N 0.55529 0.81429 0.03473 0.0
H156 H 0.24538 0.78758 0.99668 0.0
H157 H 0.18817 0.76403 0.06683 0.0
H158 H 0.25515 0.8424 0.06477 0.0
H159 H 0.20897 0.73043 0.06081 0.0
C160 C 0.19782 0.72575 0.04061 0.0
C161 C 0.23822 0.79254 0.01632 0.0
C162 C 0.25263 0.81788 0.02836 0.0
C163 C 0.21525 0.77309 0.03059 0.0
C164 C 0.2061 0.77919 0.05633 0.0
C165 C 0.22016 0.80419 0.06891 0.0
C166 C 0.24334 0.82346 0.05456 0.0
N167 N 0.20249 0.74668 0.02066 0.0
H168 H 0.23063 0.45901 0.99381 0.0
H169 H 0.24822 0.43001 0.07353 0.0
H170 H 0.17303 0.42304 0.06399 0.0
H171 H 0.28785 0.46283 0.06406 0.0
C172 C 0.29054 0.46302 0.0403 0.0
C173 C 0.22476 0.44925 0.01527 0.0
C174 C 0.19924 0.4403 0.02635 0.0
C175 C 0.24294 0.44616 0.03228 0.0
C176 C 0.23498 0.43333 0.06021 0.0
C177 C 0.21 0.42553 0.0718 0.0
C178 C 0.19225 0.4288 0.05471 0.0
N179 N 0.26914 0.45662 0.02136 0.0
H180 H 0.44343 0.8904 0.36004 0.0
H181 H 0.50174 0.92208 0.29039 0.0
H182 H 0.43299 0.92962 0.28479 0.0
H183 H 0.52753 0.92929 0.33928 0.0
C184 C 0.51612 0.908 0.34262 0.0
C185 C 0.45044 0.90105 0.33916 0.0
C186 C 0.43558 0.91018 0.32433 0.0
C187 C 0.47459 0.90593 0.32745 0.0
C188 C 0.48369 0.91942 0.30016 0.0
C189 C 0.46848 0.92753 0.28436 0.0
C190 C 0.44476 0.92334 0.2969 0.0
N191 N 0.48838 0.89516 0.34215 0.0
H192 H 0.13166 0.56069 0.35384 0.0
H193 H 0.09775 0.58641 0.2869 0.0
H194 H 0.09203 0.51074 0.28044 0.0
H195 H 0.15263 0.61889 0.29513 0.0
C196 C 0.14541 0.62321 0.31531 0.0
C197 C 0.11996 0.55649 0.33425 0.0
C198 C 0.11144 0.53252 0.31939 0.0
C199 C 0.11496 0.57591 0.32253 0.0
C200 C 0.10061 0.57101 0.29658 0.0
C201 C 0.09221 0.54746 0.28162 0.0
C202 C 0.0974 0.52827 0.29317 0.0
N203 N 0.12772 0.6018 0.33396 0.0
H204 H 0.45874 0.57912 0.35013 0.0
H205 H 0.43924 0.52835 0.27497 0.0
H206 H 0.51548 0.59663 0.2804 0.0
H207 H 0.41183 0.49743 0.30913 0.0
C208 C 0.40398 0.50796 0.32125 0.0
C209 C 0.46435 0.57395 0.32949 0.0
C210 C 0.48955 0.5903 0.3173 0.0
C211 C 0.44631 0.55088 0.31506 0.0
C212 C 0.45337 0.54498 0.28742 0.0
C213 C 0.47825 0.56178 0.27475 0.0
C214 C 0.49633 0.58369 0.29032 0.0
N215 N 0.42078 0.53501 0.32785 0.0
O216 O 0.45456 0.97572 0.00797 0.0
Mn217 Mn 0.49263 0.00845 0.01234 0.0
O218 O 0.42948 0.98175 0.04125 0.0
Mn219 Mn 0.45572 0.01316 0.05587 0.0
O220 O 0.53057 0.04097 0.017 0.0
O221 O 0.50721 0.98537 0.99797 0.0
Mn222 Mn 0.53149 0.00366 0.97084 0.0
O223 O 0.49102 0.02122 0.96883 0.0
O224 O 0.55764 0.03281 0.98928 0.0
O225 O 0.4951 0.99588 0.05555 0.0
O226 O 0.47469 0.01006 0.0859 0.0
O227 O 0.53072 0.97218 0.97326 0.0
O228 O 0.5155 0.01035 0.94013 0.0
C229 C 0.4711 0.04925 0.03259 0.0
C230 C 0.43243 0.96826 0.02124 0.0
C231 C 0.55357 0.04674 0.00767 0.0
C232 C 0.51307 0.96696 0.99357 0.0
C233 C 0.49996 0.0193 0.94341 0.0
C234 C 0.48924 1.00013 0.08158 0.0
O235 O 0.47788 0.03162 0.02674 0.0
O236 O 0.45368 0.04306 0.05346 0.0
O237 O 0.04249 0.48126 0.00829 0.0
Mn238 Mn 0.01228 0.49031 0.01238 0.0
O239 O 0.03344 0.45078 0.04423 0.0
Mn240 Mn 1.00266 0.44809 0.05856 0.0
O241 O 0.98208 0.49891 0.01735 0.0
O242 O 0.03718 0.52746 0.99639 0.0
Mn243 Mn 0.02038 0.53452 0.96907 0.0
O244 O 0.99911 0.47553 0.96982 0.0
O245 O 0.99239 0.53433 0.9882 0.0
O246 O 0.02561 0.50555 0.05467 0.0
O247 O 0.00645 0.47175 0.0869 0.0
O248 O 0.0524 0.56411 0.96997 0.0
O249 O 0.01258 0.5108 0.93944 0.0
C250 C 0.96842 0.4292 0.03377 0.0
C251 C 0.04797 0.46574 0.02311 0.0
C252 C 0.97791 0.51716 0.00763 0.0
C253 C 0.05616 0.55143 0.9912 0.0
C254 C 1.00201 0.48609 0.94395 0.0
C255 C 0.01981 0.49627 0.08122 0.0
O256 O 0.98722 0.45319 0.0282 0.0
O257 O 0.9718 0.4173 0.05614 0.0
O258 O 0.57175 0.53893 0.01056 0.0
Mn259 Mn 0.53267 0.52912 0.00526 0.0
O260 O 0.59156 0.56431 0.97086 0.0
Mn261 Mn 0.56581 0.57224 0.96117 0.0
O262 O 0.4935 0.51856 0.00151 0.0
O263 O 0.5213 0.49037 0.01753 0.0
Mn264 Mn 0.50499 0.48877 0.05103 0.0
O265 O 0.53196 0.54298 0.0483 0.0
O266 O 0.47597 0.49192 0.0415 0.0
O267 O 0.53196 0.51656 0.96113 0.0
O268 O 0.54404 0.55227 0.93213 0.0
O269 O 0.50134 0.45664 0.05006 0.0
O270 O 0.52902 0.51135 0.07696 0.0
C271 C 0.55741 0.59146 0.99498 0.0
C272 C 0.59209 0.55222 0.99402 0.0
C273 C 0.474 0.50392 0.01877 0.0
C274 C 0.51411 0.4659 0.02531 0.0
C275 C 0.53295 0.5344 0.07411 0.0
C276 C 0.53316 0.52739 0.93565 0.0
O277 O 0.54305 0.56627 0.99042 0.0
O278 O 0.57422 0.60468 0.97404 0.0
O279 O 0.12316 0.3102 0.33733 0.0
Mn280 Mn 0.16039 0.34336 0.34489 0.0
O281 O 0.093 0.31973 0.35398 0.0
Mn282 Mn 0.11667 0.34615 0.37744 0.0
O283 O 0.19755 0.37713 0.35382 0.0
O284 O 0.17438 0.31801 0.33163 0.0
Mn285 Mn 0.20346 0.34441 0.31474 0.0
O286 O 0.1609 0.35605 0.30144 0.0
O287 O 0.2263 0.36479 0.34259 0.0
O288 O 0.15883 0.33075 0.38921 0.0
O289 O 0.12668 0.33534 0.41051 0.0
O290 O 0.20679 0.31729 0.30483 0.0
O291 O 0.19865 0.36173 0.28339 0.0
C292 C 0.13851 0.38487 0.36109 0.0
C293 C 0.09925 0.30485 0.34025 0.0
C294 C 0.22072 0.38032 0.35545 0.0
C295 C 0.18559 0.3049 0.32096 0.0
C296 C 0.17836 0.36371 0.28094 0.0
C297 C 0.14447 0.32909 0.41178 0.0
O298 O 0.14518 0.36696 0.35635 0.0
O299 O 0.11772 0.3776 0.37737 0.0
O300 O 0.71222 0.81828 0.3384 0.0
Mn301 Mn 0.67919 0.82228 0.34664 0.0
O302 O 0.70349 0.77879 0.35645 0.0
Mn303 Mn 0.67569 0.77467 0.37939 0.0
O304 O 0.6468 0.82746 0.35391 0.0
O305 O 0.70218 0.86112 0.33574 0.0
Mn306 Mn 0.68605 0.86805 0.30758 0.0
O307 O 0.66684 0.81145 0.30277 0.0
O308 O 0.65377 0.86079 0.32261 0.0
O309 O 0.69035 0.83212 0.39094 0.0
O310 O 0.68433 0.79466 0.4127 0.0
O311 O 0.71549 0.89948 0.31343 0.0
O312 O 0.68497 0.84869 0.27571 0.0
C313 C 0.63821 0.75889 0.36157 0.0
C314 C 0.718 0.79997 0.34193 0.0
C315 C 0.63984 0.843 0.34182 0.0
C316 C 0.72003 0.88585 0.33279 0.0
C317 C 0.67214 0.82376 0.27773 0.0
C318 C 0.69089 0.81893 0.41368 0.0
O319 O 0.65637 0.78342 0.3578 0.0
O320 O 0.64432 0.74439 0.37767 0.0
O321 O 0.23527 0.86588 0.349 0.0
Mn322 Mn 0.1977 0.8606 0.34115 0.0
O323 O 0.26455 0.90512 0.32888 0.0
Mn324 Mn 0.24051 0.90726 0.30512 0.0
O325 O 0.15994 0.85485 0.33378 0.0
O326 O 0.18282 0.82262 0.35584 0.0
Mn327 Mn 0.15696 0.81602 0.3808 0.0
O328 O 0.19729 0.87392 0.38395 0.0
O329 O 0.13169 0.81795 0.35918 0.0
O330 O 0.19881 0.84838 0.29754 0.0
O331 O 0.2294 0.88514 0.27355 0.0
O332 O 0.15805 0.7856 0.38095 0.0
O333 O 0.17007 0.83853 0.4119 0.0
C334 C 0.21773 0.92264 0.32267 0.0
C335 C 0.25892 0.88483 0.34469 0.0
C336 C 0.13654 0.83665 0.34104 0.0
C337 C 0.17645 0.79821 0.3613 0.0
C338 C 0.18639 0.86297 0.40879 0.0
C339 C 0.21229 0.86068 0.2741 0.0
O340 O 0.21262 0.89858 0.32727 0.0
O341 O 0.23764 0.93691 0.30536 0.0
O342 O 0.79236 0.64226 0.67504 0.0
Mn343 Mn 0.82839 0.67739 0.67971 0.0
O344 O 0.76122 0.64802 0.69683 0.0
Mn345 Mn 0.7845 0.67906 0.71454 0.0
O346 O 0.86495 0.71221 0.68474 0.0
O347 O 0.84539 0.65575 0.66796 0.0
Mn348 Mn 0.87172 0.67574 0.6436 0.0
O349 O 0.82707 0.68728 0.63534 0.0
O350 O 0.89529 0.70395 0.66509 0.0
O351 O 0.82958 0.66809 0.72492 0.0
O352 O 0.79972 0.67534 0.74787 0.0
O353 O 0.87201 0.64486 0.64579 0.0
O354 O 0.85841 0.68342 0.61089 0.0
C355 C 0.80283 0.71578 0.69199 0.0
C356 C 0.76833 0.63425 0.68207 0.0
C357 C 0.88892 0.71821 0.68002 0.0
C358 C 0.85255 0.63822 0.66403 0.0
C359 C 0.83966 0.68827 0.6116 0.0
C360 C 0.81801 0.66978 0.74854 0.0
O361 O 0.81048 0.69849 0.68966 0.0
O362 O 0.7826 0.70895 0.70908 0.0
O363 O 0.37647 0.14668 0.67533 0.0
Mn364 Mn 0.34531 0.15372 0.68209 0.0
O365 O 0.37142 0.11953 0.71293 0.0
Mn366 Mn 0.33677 0.10832 0.72216 0.0
O367 O 0.31443 0.16116 0.68851 0.0
O368 O 0.37133 0.19284 0.67151 0.0
Mn369 Mn 0.3548 0.19878 0.64286 0.0
O370 O 0.33304 0.14274 0.63785 0.0
O371 O 0.32276 0.19373 0.6559 0.0
O372 O 0.35507 0.16357 0.72718 0.0
O373 O 0.3327 0.1256 0.7532 0.0
O374 O 0.38337 0.23038 0.64619 0.0
O375 O 0.35469 0.17981 0.61135 0.0
C376 C 0.31024 0.09118 0.68695 0.0
C377 C 0.38475 0.13425 0.6913 0.0
C378 C 0.30844 0.17708 0.67579 0.0
C379 C 0.38878 0.21765 0.66591 0.0
C380 C 0.33969 0.15518 0.61282 0.0
C381 C 0.3455 0.15071 0.75191 0.0
O382 O 0.3201 0.11563 0.69444 0.0
O383 O 0.31462 0.07689 0.70551 0.0
O384 O 0.90243 0.19928 0.68136 0.0
Mn385 Mn 0.86572 0.19651 0.67411 0.0
O386 O 0.93324 0.23882 0.66349 0.0
Mn387 Mn 0.91023 0.24367 0.64081 0.0
O388 O 0.829 0.19381 0.66701 0.0
O389 O 0.84931 0.15742 0.68598 0.0
Mn390 Mn 0.82177 0.15065 0.70832 0.0
O391 O 0.86528 0.20699 0.71826 0.0
O392 O 0.7983 0.15473 0.68584 0.0
O393 O 0.86642 0.18668 0.62947 0.0
O394 O 0.89828 0.22376 0.60745 0.0
O395 O 0.82112 0.11951 0.70798 0.0
O396 O 0.83351 0.17074 0.74154 0.0
C397 C 0.88856 0.25998 0.65915 0.0
C398 C 0.9265 0.21757 0.67789 0.0
C399 C 0.80493 0.17567 0.67096 0.0
C400 C 0.84189 0.13265 0.69141 0.0
C401 C 0.85205 0.19452 0.74156 0.0
C402 C 0.87969 0.19995 0.60637 0.0
O403 O 0.88232 0.23544 0.66294 0.0
O404 O 0.90936 0.27431 0.64308 0.0
H405 H 0.29322 0.81034 0.01133 0.0
H406 H 0.27163 0.87065 0.01852 0.0
H407 H 0.33895 0.84458 0.0018 0.0
H408 H 0.31726 0.90464 0.00893 0.0
H409 H 0.40052 0.9326 0.06184 0.0
H410 H 0.35754 0.89404 0.05461 0.0
H411 H 0.36737 0.90713 0.96037 0.0
H412 H 0.41121 0.94608 0.96756 0.0
C413 C 0.29802 0.83078 0.00977 0.0
C414 C 0.27883 0.8378 0.01597 0.0
C415 C 0.32417 0.85032 0.00427 0.0
C416 C 0.33145 0.87713 0.00436 0.0
C417 C 0.312 0.88405 0.00832 0.0
C418 C 0.28597 0.86461 0.01406 0.0
C419 C 0.39386 0.92694 0.03949 0.0
C420 C 0.40915 0.94236 0.01526 0.0
C421 C 0.3693 0.90488 0.03541 0.0
C422 C 0.35926 0.89778 0.00703 0.0
C423 C 0.37489 0.91226 0.98248 0.0
C424 C 0.39989 0.93438 0.98657 0.0
H425 H 0.20459 0.4871 0.00665 0.0
H426 H 0.14984 0.40343 0.01246 0.0
H427 H 0.16822 0.49536 0.99762 0.0
H428 H 0.11375 0.41168 0.00366 0.0
H429 H 0.07151 0.44726 0.05948 0.0
H430 H 0.10911 0.44216 0.04948 0.0
H431 H 0.11847 0.47748 0.96289 0.0
H432 H 0.07984 0.48251 0.97269 0.0
C433 C 0.18499 0.47046 0.00446 0.0
C434 C 0.1799 0.44466 0.01043 0.0
C435 C 0.16423 0.47518 0.99935 0.0
C436 C 0.1383 0.45413 0.00014 0.0
C437 C 0.13362 0.42819 0.00285 0.0
C438 C 0.15424 0.42348 0.00787 0.0
C439 C 0.0813 0.45389 0.03815 0.0
C440 C 0.07228 0.46488 0.01665 0.0
C441 C 0.1029 0.45096 0.0325 0.0
C442 C 0.11628 0.459 0.00528 0.0
C443 C 0.10822 0.47099 0.98399 0.0
C444 C 0.08624 0.47388 0.98962 0.0
H445 H 0.60294 0.74556 0.00962 0.0
H446 H 0.52286 0.7158 0.03811 0.0
H447 H 0.5945 0.70046 0.00464 0.0
H448 H 0.51431 0.67041 0.03349 0.0
H449 H 0.51288 0.5942 0.99202 0.0
H450 H 0.51298 0.63567 0.99954 0.0
H451 H 0.5868 0.66703 0.04389 0.0
H452 H 0.5867 0.62583 0.03603 0.0
C453 C 0.58327 0.72928 0.01375 0.0
C454 C 0.56349 0.73404 0.02406 0.0
C455 C 0.57854 0.70349 0.01152 0.0
C456 C 0.55395 0.68192 0.01969 0.0
C457 C 0.53349 0.68664 0.02734 0.0
C458 C 0.53826 0.71256 0.02958 0.0
C459 C 0.52822 0.60936 0.00503 0.0
C460 C 0.54969 0.6068 0.01365 0.0
C461 C 0.52857 0.63332 0.00879 0.0
C462 C 0.55038 0.6549 0.02129 0.0
C463 C 0.5701 0.651 0.03336 0.0
C464 C 0.5697 0.62715 0.02963 0.0
H465 H 0.87886 0.27559 0.99808 0.0
H466 H 0.81678 0.29435 0.9959 0.0
H467 H 0.91104 0.32227 0.00266 0.0
H468 H 0.84908 0.34138 0.00025 0.0
H469 H 0.91871 0.41631 0.04659 0.0
H470 H 0.88138 0.37362 0.03443 0.0
H471 H 0.92954 0.36209 0.97056 0.0
H472 H 0.96684 0.4048 0.98306 0.0
C473 C 0.87212 0.28976 0.99911 0.0
C474 C 0.84538 0.28142 0.99676 0.0
C475 C 0.89055 0.31652 0.00118 0.0
C476 C 0.88268 0.33563 0.00089 0.0
C477 C 0.85576 0.32716 0.00027 0.0
C478 C 0.83725 0.30026 0.99817 0.0
C479 C 0.9208 0.40537 0.02862 0.0
C480 C 0.94551 0.41391 0.01551 0.0
C481 C 0.89952 0.3807 0.02196 0.0
C482 C 0.90274 0.36412 0.00222 0.0
C483 C 0.92664 0.37418 0.98641 0.0
C484 C 0.94785 0.39893 0.99298 0.0
H485 H 0.75885 0.6178 0.0124 0.0
H486 H 0.72803 0.53443 0.00083 0.0
H487 H 0.71469 0.6099 0.02247 0.0
H488 H 0.68349 0.52642 0.0094 0.0
H489 H 0.60396 0.5204 0.02914 0.0
H490 H 0.64802 0.52719 0.03871 0.0
H491 H 0.68203 0.59946 0.98654 0.0
H492 H 0.63914 0.59307 0.97765 0.0
C493 C 0.74257 0.59772 0.01261 0.0
C494 C 0.74664 0.57674 0.0056 0.0
C495 C 0.71727 0.59314 0.01819 0.0
C496 C 0.69543 0.56758 0.01601 0.0
C497 C 0.6998 0.54631 0.01135 0.0
C498 C 0.72525 0.55088 0.0063 0.0
C499 C 0.62099 0.53784 0.02013 0.0
C500 C 0.61801 0.55597 0.00229 0.0
C501 C 0.64616 0.5417 0.02552 0.0
C502 C 0.66864 0.56399 0.01358 0.0
C503 C 0.66539 0.58237 0.99666 0.0
C504 C 0.64057 0.57844 0.99115 0.0
H505 H 0.46977 0.17982 0.94092 0.0
H506 H 0.4512 0.17848 0.03356 0.0
H507 H 0.48324 0.14716 0.95006 0.0
H508 H 0.46441 0.14552 0.04279 0.0
H509 H 0.50028 0.09618 0.05764 0.0
H510 H 0.50038 0.13661 0.04357 0.0
H511 H 0.46176 0.10042 0.96257 0.0
H512 H 0.46222 0.06015 0.9767 0.0
C513 C 0.46864 0.17256 0.9633 0.0
C514 C 0.4592 0.18156 0.9865 0.0
C515 C 0.47636 0.15383 0.96852 0.0
C516 C 0.47487 0.14357 0.9971 0.0
C517 C 0.46625 0.15326 0.02052 0.0
C518 C 0.45859 0.17211 0.01529 0.0
C519 C 0.49312 0.09745 0.03609 0.0
C520 C 0.48164 0.07525 0.01801 0.0
C521 C 0.49264 0.1204 0.02831 0.0
C522 C 0.48049 0.1216 0.00229 0.0
C523 C 0.47135 0.10027 0.98276 0.0
C524 C 0.47188 0.07725 0.99061 0.0
H525 H 0.69651 0.19674 0.98801 0.0
H526 H 0.71728 0.13807 0.01159 0.0
H527 H 0.65133 0.16688 0.00376 0.0
H528 H 0.67166 0.10704 0.02516 0.0
H529 H 0.58867 0.05319 0.04974 0.0
H530 H 0.6333 0.0905 0.05299 0.0
H531 H 0.61624 0.13128 0.98404 0.0
H532 H 0.57164 0.09472 0.98245 0.0
C533 C 0.69129 0.1774 0.99687 0.0
C534 C 0.71017 0.1696 0.99865 0.0
C535 C 0.66533 0.1601 0.00561 0.0
C536 C 0.65737 0.13412 0.01519 0.0
C537 C 0.6768 0.12686 0.01829 0.0
C538 C 0.703 0.14456 0.01036 0.0
C539 C 0.59434 0.07077 0.03637 0.0
C540 C 0.57676 0.07144 0.01623 0.0
C541 C 0.62004 0.09198 0.03776 0.0
C542 C 0.62885 0.11398 0.01844 0.0
C543 C 0.61044 0.11511 0.99969 0.0
C544 C 0.5847 0.09412 0.9987 0.0
H545 H 0.87687 0.58101 0.00946 0.0
H546 H 0.82185 0.4974 0.01297 0.0
H547 H 0.91272 0.57251 0.01731 0.0
H548 H 0.85721 0.48861 0.02358 0.0
H549 H 0.92798 0.48065 0.99668 0.0
H550 H 0.89009 0.4865 0.00055 0.0
H551 H 0.93705 0.56049 0.04499 0.0
H552 H 0.97538 0.55529 0.0384 0.0
C553 C 0.87244 0.56079 0.01274 0.0
C554 C 0.8467 0.53978 0.01052 0.0
C555 C 0.89299 0.55583 0.01756 0.0
C556 C 0.88815 0.52974 0.021 0.0
C557 C 0.86202 0.50891 0.02022 0.0
C558 C 0.84164 0.51387 0.01443 0.0
C559 C 0.92986 0.49779 0.00787 0.0
C560 C 0.95432 0.51753 0.01723 0.0
C561 C 0.90812 0.50123 0.01026 0.0
C562 C 0.91031 0.52425 0.02274 0.0
C563 C 0.9346 0.54293 0.03436 0.0
C564 C 0.95651 0.53983 0.03109 0.0
H565 H 0.45075 0.30534 0.01637 0.0
H566 H 0.52568 0.32905 0.97472 0.0
H567 H 0.4611 0.35142 0.01624 0.0
H568 H 0.53598 0.37508 0.97439 0.0
H569 H 0.55293 0.45402 0.02191 0.0
H570 H 0.54527 0.40976 0.01162 0.0
H571 H 0.46815 0.38759 0.98034 0.0
H572 H 0.47613 0.43195 0.99039 0.0
C573 C 0.46941 0.32038 0.00718 0.0
C574 C 0.4875 0.31364 0.99563 0.0
C575 C 0.47525 0.34675 0.00684 0.0
C576 C 0.49931 0.3669 0.99503 0.0
C577 C 0.51737 0.36007 0.98372 0.0
C578 C 0.51149 0.33374 0.98395 0.0
C579 C 0.53508 0.44019 0.01104 0.0
C580 C 0.51547 0.44664 0.00605 0.0
C581 C 0.53044 0.41467 0.00565 0.0
C582 C 0.50592 0.39503 0.99563 0.0
C583 C 0.48712 0.40217 0.98839 0.0
C584 C 0.49193 0.42776 0.9934 0.0
H585 H 0.19474 0.68312 0.06794 0.0
H586 H 0.15687 0.7055 0.00181 0.0
H587 H 0.16168 0.63651 0.06201 0.0
H588 H 0.12346 0.6588 0.99646 0.0
H589 H 0.05468 0.57665 0.0394 0.0
H590 H 0.09118 0.61966 0.05301 0.0
H591 H 0.14345 0.60671 0.99755 0.0
H592 H 0.10668 0.56401 0.9831 0.0
C593 C 0.17941 0.67801 0.05205 0.0
C594 C 0.17843 0.69781 0.03518 0.0
C595 C 0.16057 0.65145 0.04877 0.0
C596 C 0.14019 0.64432 0.02893 0.0
C597 C 0.13913 0.66402 0.01192 0.0
C598 C 0.15825 0.69062 0.01486 0.0
C599 C 0.07427 0.58224 0.03161 0.0
C600 C 0.07803 0.5668 0.01073 0.0
C601 C 0.09498 0.60705 0.0389 0.0
C602 C 0.11985 0.61639 0.02596 0.0
C603 C 0.12433 0.59977 0.0077 0.0
C604 C 0.10347 0.57515 0.99996 0.0
H605 H 0.31935 0.49085 0.99087 0.0
H606 H 0.31913 0.44498 0.06619 0.0
H607 H 0.36434 0.50113 0.97784 0.0
H608 H 0.36314 0.45447 0.05308 0.0
H609 H 0.43171 0.45591 0.01503 0.0
H610 H 0.38611 0.44477 0.01218 0.0
H611 H 0.41032 0.52756 0.00423 0.0
H612 H 0.45653 0.53872 0.00632 0.0
C613 C 0.32874 0.48256 0.00418 0.0
C614 C 0.31597 0.46708 0.02945 0.0
C615 C 0.35442 0.48856 0.9969 0.0
C616 C 0.36715 0.47848 0.01437 0.0
C617 C 0.35378 0.46228 0.03898 0.0
C618 C 0.32863 0.4569 0.04658 0.0
C619 C 0.4273 0.4717 0.01199 0.0
C620 C 0.44743 0.49814 0.01132 0.0
C621 C 0.40124 0.46534 0.01034 0.0
C622 C 0.39467 0.4853 0.00849 0.0
C623 C 0.41489 0.51178 0.00553 0.0
C624 C 0.44123 0.51818 0.00683 0.0
H625 H 0.51496 0.82317 0.03018 0.0
H626 H 0.58834 0.89444 0.0445 0.0
H627 H 0.49277 0.84917 0.027 0.0
H628 H 0.56646 0.92035 0.04096 0.0
H629 H 0.52578 0.96389 0.05005 0.0
H630 H 0.53455 0.92919 0.06675 0.0
H631 H 0.49287 0.88219 0.99218 0.0
H632 H 0.48414 0.91683 0.97583 0.0
C633 C 0.52632 0.84436 0.03265 0.0
C634 C 0.55338 0.85682 0.03765 0.0
C635 C 0.51361 0.85923 0.03094 0.0
C636 C 0.52771 0.8868 0.03434 0.0
C637 C 0.5548 0.8991 0.03919 0.0
C638 C 0.56743 0.8843 0.04086 0.0
C639 C 0.517 0.94539 0.03841 0.0
C640 C 0.50425 0.94297 0.01171 0.0
C641 C 0.52254 0.92574 0.04755 0.0
C642 C 0.51514 0.9033 0.03024 0.0
C643 C 0.49897 0.89922 0.00598 0.0
C644 C 0.49363 0.91895 0.99679 0.0
H645 H 0.93906 0.20027 0.35015 0.0
H646 H 0.96652 0.14439 0.3547 0.0
H647 H 0.98288 0.23517 0.33598 0.0
H648 H 0.01056 0.17924 0.33984 0.0
H649 H 0.08804 0.25728 0.36291 0.0
H650 H 0.04528 0.21711 0.3629 0.0
H651 H 0.01778 0.25408 0.30073 0.0
H652 H 0.06024 0.29464 0.30219 0.0
C653 C 0.95446 0.1954 0.34756 0.0
C654 C 0.94944 0.16968 0.35371 0.0
C655 C 0.97959 0.21535 0.33916 0.0
C656 C 1.00044 0.21014 0.33681 0.0
C657 C 0.99509 0.18406 0.34169 0.0
C658 C 0.96982 0.16403 0.34993 0.0
C659 C 0.07315 0.25634 0.34834 0.0
C660 C 0.07744 0.27884 0.33226 0.0
C661 C 0.04855 0.23335 0.34839 0.0
C662 C 0.02784 0.23237 0.33211 0.0
C663 C 0.03303 0.25427 0.31404 0.0
C664 C 0.05745 0.27738 0.31445 0.0
H665 H 0.87436 0.82102 0.35202 0.0
H666 H 0.81739 0.73925 0.33889 0.0
H667 H 0.8419 0.83372 0.33873 0.0
H668 H 0.78484 0.75156 0.32588 0.0
H669 H 0.72937 0.77593 0.29812 0.0
H670 H 0.76937 0.77322 0.29342 0.0
H671 H 0.80337 0.82849 0.36438 0.0
H672 H 0.76385 0.83197 0.36783 0.0
C673 C 0.85512 0.80592 0.34525 0.0
C674 C 0.84829 0.77924 0.34609 0.0
C675 C 0.83645 0.8131 0.33799 0.0
C676 C 0.8107 0.79368 0.33129 0.0
C677 C 0.80453 0.76712 0.33043 0.0
C678 C 0.8231 0.75997 0.33793 0.0
C679 C 0.74595 0.78835 0.31168 0.0
C680 C 0.7439 0.80447 0.33295 0.0
C681 C 0.76869 0.78657 0.30933 0.0
C682 C 0.78948 0.80035 0.32878 0.0
C683 C 0.78798 0.8179 0.34872 0.0
C684 C 0.76538 0.81998 0.3507 0.0
H685 H 0.18969 0.0526 0.358 0.0
H686 H 0.27064 0.07204 0.35695 0.0
H687 H 0.17612 0.00593 0.35052 0.0
H688 H 0.25714 0.02567 0.35024 0.0
H689 H 0.22943 0.9437 0.37646 0.0
H690 H 0.23115 0.98538 0.38715 0.0
H691 H 0.18317 0.97553 0.31179 0.0
H692 H 0.18195 0.93402 0.30086 0.0
C693 C 0.20456 0.04701 0.35527 0.0
C694 C 0.23118 0.06583 0.35825 0.0
C695 C 0.19679 0.02033 0.35145 0.0
C696 C 0.21554 0.01218 0.35093 0.0
C697 C 0.24223 0.03134 0.35156 0.0
C698 C 0.24997 0.05789 0.35495 0.0
C699 C 0.21782 0.94956 0.36337 0.0
C700 C 0.20539 0.93563 0.33799 0.0
C701 C 0.21927 0.97369 0.36908 0.0
C702 C 0.20786 0.98391 0.34977 0.0
C703 C 0.19223 0.96812 0.32689 0.0
C704 C 0.19116 0.94415 0.32093 0.0
H705 H 0.54135 0.60946 0.32705 0.0
H706 H 0.48038 0.6297 0.3344 0.0
H707 H 0.57442 0.65564 0.3333 0.0
H708 H 0.51368 0.67612 0.34129 0.0
H709 H 0.59184 0.74784 0.38612 0.0
H710 H 0.5517 0.70629 0.37679 0.0
H711 H 0.5879 0.69615 0.29849 0.0
H712 H 0.62776 0.7378 0.30773 0.0
C713 C 0.53503 0.62375 0.33071 0.0
C714 C 0.50834 0.6161 0.3299 0.0
C715 C 0.55394 0.65019 0.33387 0.0
C716 C 0.54656 0.66952 0.33668 0.0
C717 C 0.51982 0.66161 0.33864 0.0
C718 C 0.50081 0.63505 0.33514 0.0
C719 C 0.59049 0.73762 0.36582 0.0
C720 C 0.61272 0.74605 0.34748 0.0
C721 C 0.5677 0.71361 0.36078 0.0
C722 C 0.56708 0.69772 0.33746 0.0
C723 C 0.5881 0.70787 0.31696 0.0
C724 C 0.61069 0.732 0.32183 0.0
H725 H 0.39562 0.86398 0.34802 0.0
H726 H 0.41746 0.9448 0.32778 0.0
H727 H 0.35169 0.85464 0.36289 0.0
H728 H 0.37369 0.93545 0.34171 0.0
H729 H 0.29895 0.92052 0.37691 0.0
H730 H 0.34213 0.92475 0.38074 0.0
H731 H 0.31361 0.85022 0.33704 0.0
H732 H 0.27008 0.84564 0.33448 0.0
C733 C 0.39116 0.87983 0.3472 0.0
C734 C 0.4099 0.90507 0.33648 0.0
C735 C 0.36594 0.87444 0.35549 0.0
C736 C 0.35907 0.89424 0.35348 0.0
C737 C 0.37829 0.91976 0.34399 0.0
C738 C 0.40335 0.92509 0.33562 0.0
C739 C 0.30172 0.90455 0.3693 0.0
C740 C 0.2813 0.88276 0.35547 0.0
C741 C 0.3265 0.9071 0.37112 0.0
C742 C 0.33155 0.88818 0.3585 0.0
C743 C 0.31043 0.86514 0.34709 0.0
C744 C 0.28544 0.86241 0.34569 0.0
H745 H 0.08196 0.47871 0.32015 0.0
H746 H 0.15972 0.54237 0.33823 0.0
H747 H 0.09714 0.44705 0.32548 0.0
H748 H 0.17478 0.51034 0.34434 0.0
H749 H 0.16919 0.43097 0.38809 0.0
H750 H 0.16616 0.47048 0.37784 0.0
H751 H 0.12833 0.43718 0.29571 0.0
H752 H 0.13166 0.39785 0.30598 0.0
C753 C 0.10228 0.48594 0.32546 0.0
C754 C 0.11968 0.51314 0.32834 0.0
C755 C 0.11103 0.46781 0.32828 0.0
C756 C 0.13737 0.47629 0.33439 0.0
C757 C 0.15446 0.50328 0.3392 0.0
C758 C 0.14574 0.52156 0.33605 0.0
C759 C 0.16189 0.43292 0.36692 0.0
C760 C 0.15091 0.41146 0.34768 0.0
C761 C 0.15973 0.45538 0.36128 0.0
C762 C 0.1463 0.45656 0.33641 0.0
C763 C 0.13834 0.43657 0.31536 0.0
C764 C 0.14081 0.4143 0.32087 0.0
H765 H 0.37258 0.45529 0.32015 0.0
H766 H 0.37354 0.52616 0.34792 0.0
H767 H 0.32743 0.42886 0.33784 0.0
H768 H 0.3277 0.49943 0.36536 0.0
H769 H 0.23588 0.43136 0.33983 0.0
H770 H 0.28183 0.46687 0.33758 0.0
H771 H 0.30354 0.41869 0.38944 0.0
H772 H 0.25794 0.38354 0.39175 0.0
C773 C 0.36314 0.46519 0.33023 0.0
C774 C 0.37664 0.49272 0.33283 0.0
C775 C 0.33733 0.45006 0.34051 0.0
C776 C 0.32416 0.46206 0.35335 0.0
C777 C 0.33747 0.48969 0.35572 0.0
C778 C 0.36365 0.50492 0.34579 0.0
C779 C 0.25025 0.42908 0.35226 0.0
C780 C 0.24341 0.40473 0.36594 0.0
C781 C 0.27661 0.44928 0.35072 0.0
C782 C 0.29627 0.44523 0.36276 0.0
C783 C 0.28883 0.4222 0.37965 0.0
C784 C 0.26266 0.4022 0.38128 0.0
H785 H 0.56426 0.92687 0.36561 0.0
H786 H 0.49885 0.85578 0.33277 0.0
H787 H 0.58887 0.90369 0.37193 0.0
H788 H 0.5237 0.83266 0.33846 0.0
H789 H 0.59988 0.82947 0.30502 0.0
H790 H 0.56505 0.84021 0.31063 0.0
H791 H 0.58947 0.8653 0.39968 0.0
H792 H 0.62437 0.85421 0.39396 0.0
C793 C 0.55507 0.90617 0.36016 0.0
C794 C 0.52972 0.89307 0.34882 0.0
C795 C 0.56902 0.89284 0.364 0.0
C796 C 0.5581 0.8663 0.35592 0.0
C797 C 0.5325 0.85305 0.34506 0.0
C798 C 0.5183 0.86625 0.34185 0.0
C799 C 0.59696 0.83609 0.32625 0.0
C800 C 0.61449 0.84077 0.3492 0.0
C801 C 0.57709 0.84232 0.32945 0.0
C802 C 0.57471 0.85382 0.3555 0.0
C803 C 0.59101 0.85659 0.37931 0.0
C804 C 0.61073 0.84998 0.37622 0.0
H805 H 0.12487 0.64372 0.35538 0.0
H806 H 0.18558 0.6656 0.28876 0.0
H807 H 0.1389 0.69069 0.36179 0.0
H808 H 0.19967 0.71231 0.29558 0.0
H809 H 0.21353 0.78549 0.37493 0.0
H810 H 0.20837 0.74222 0.36311 0.0
H811 H 0.14859 0.72976 0.30092 0.0
H812 H 0.1544 0.7732 0.31191 0.0
C813 C 0.14142 0.65852 0.34253 0.0
C814 C 0.15431 0.65115 0.32169 0.0
C815 C 0.14937 0.68526 0.34614 0.0
C816 C 0.17042 0.70482 0.3292 0.0
C817 C 0.18353 0.69747 0.30889 0.0
C818 C 0.17544 0.67084 0.30506 0.0
C819 C 0.20063 0.77424 0.3573 0.0
C820 C 0.18475 0.7828 0.34382 0.0
C821 C 0.19723 0.74932 0.35109 0.0
C822 C 0.17774 0.73275 0.33162 0.0
C823 C 0.1637 0.74233 0.31605 0.0
C824 C 0.16747 0.76738 0.32182 0.0
H825 H 0.86358 0.02966 0.35213 0.0
H826 H 0.79305 0.03216 0.37196 0.0
H827 H 0.83856 0.98123 0.35493 0.0
H828 H 0.76816 0.98425 0.37455 0.0
H829 H 0.72502 0.90207 0.38924 0.0
H830 H 0.76105 0.94519 0.40282 0.0
H831 H 0.80453 0.94628 0.32492 0.0
H832 H 0.7688 0.90308 0.31202 0.0
C833 C 0.8428 0.01986 0.35725 0.0
C834 C 0.83017 0.03458 0.36182 0.0
C835 C 0.82851 0.99219 0.35896 0.0
C836 C 0.80146 0.97884 0.36561 0.0
C837 C 0.78908 0.9938 0.37033 0.0
C838 C 0.80325 0.02127 0.36842 0.0
C839 C 0.74307 0.91069 0.37628 0.0
C840 C 0.74416 0.89943 0.34954 0.0
C841 C 0.7635 0.93567 0.38364 0.0
C842 C 0.78521 0.94958 0.36432 0.0
C843 C 0.78808 0.93626 0.34022 0.0
C844 C 0.76769 0.91127 0.33298 0.0
H845 H 0.99788 0.84912 0.36687 0.0
H846 H 0.97246 0.76901 0.34228 0.0
H847 H 0.04235 0.86244 0.35111 0.0
H848 H 0.01742 0.78144 0.32904 0.0
H849 H 0.09899 0.80721 0.30161 0.0
H850 H 0.05483 0.80107 0.30101 0.0
H851 H 0.07768 0.86158 0.36682 0.0
H852 H 0.12182 0.86888 0.36501 0.0
C853 C 1.00199 0.83434 0.35817 0.0
C854 C 0.98189 0.80811 0.35585 0.0
C855 C 0.02759 0.84186 0.34938 0.0
C856 C 0.03404 0.82307 0.33918 0.0
C857 C 0.01353 0.79676 0.33624 0.0
C858 C 0.98768 0.78946 0.34412 0.0
C859 C 0.09467 0.82006 0.31464 0.0
C860 C 0.11382 0.839 0.33276 0.0
C861 C 0.06918 0.81615 0.31494 0.0
C862 C 0.06212 0.83043 0.33427 0.0
C863 C 0.08201 0.85043 0.35109 0.0
C864 C 0.10756 0.85481 0.35007 0.0
H865 H 0.20081 0.16488 0.3292 0.0
H866 H 0.21787 0.20298 0.41352 0.0
H867 H 0.18158 0.19147 0.31312 0.0
H868 H 0.2002 0.23044 0.39734 0.0
H869 H 0.16353 0.27571 0.37215 0.0
H870 H 0.16527 0.23605 0.38623 0.0
H871 H 0.19214 0.23304 0.29784 0.0
H872 H 0.1883 0.27081 0.28366 0.0
C873 C 0.20049 0.17899 0.34426 0.0
C874 C 0.21078 0.18184 0.37266 0.0
C875 C 0.18951 0.19435 0.33507 0.0
C876 C 0.18891 0.21314 0.35397 0.0
C877 C 0.19935 0.21577 0.38233 0.0
C878 C 0.20993 0.20026 0.39155 0.0
C879 C 0.16848 0.26567 0.35551 0.0
C880 C 0.1763 0.27665 0.32705 0.0
C881 C 0.17012 0.24327 0.36364 0.0
C882 C 0.18003 0.23183 0.34359 0.0
C883 C 0.18461 0.24106 0.31415 0.0
C884 C 0.18246 0.26296 0.30597 0.0
H885 H 0.63357 0.47891 0.713 0.0
H886 H 0.61055 0.52545 0.66028 0.0
H887 H 0.67971 0.51099 0.70283 0.0
H888 H 0.65663 0.55788 0.65023 0.0
H889 H 0.74178 0.61208 0.6315 0.0
H890 H 0.69986 0.57046 0.62904 0.0
H891 H 0.70625 0.55479 0.72116 0.0
H892 H 0.74791 0.59569 0.72311 0.0
C893 C 0.63851 0.49567 0.69848 0.0
C894 C 0.61874 0.49975 0.68718 0.0
C895 C 0.66486 0.51415 0.69284 0.0
C896 C 0.67194 0.53714 0.67586 0.0
C897 C 0.65196 0.54029 0.66308 0.0
C898 C 0.62558 0.52182 0.66887 0.0
C899 C 0.73458 0.59906 0.65073 0.0
C900 C 0.74802 0.60674 0.67738 0.0
C901 C 0.71049 0.57546 0.6495 0.0
C902 C 0.69956 0.55932 0.67496 0.0
C903 C 0.71414 0.56637 0.70099 0.0
C904 C 0.73805 0.58983 0.70216 0.0
H905 H 0.48261 0.07018 0.67966 0.0
H906 H 0.54087 0.15283 0.67395 0.0
H907 H 0.44827 0.08109 0.6706 0.0
H908 H 0.50628 0.16378 0.66504 0.0
H909 H 0.41372 0.14784 0.63884 0.0
H910 H 0.45224 0.14276 0.62834 0.0
H911 H 0.45057 0.11806 0.71874 0.0
H912 H 0.4131 0.12332 0.72941 0.0
C913 C 0.48814 0.09055 0.675 0.0
C914 C 0.51428 0.11069 0.67753 0.0
C915 C 0.46855 0.09678 0.6698 0.0
C916 C 0.47477 0.12323 0.66707 0.0
C917 C 0.50115 0.14324 0.66658 0.0
C918 C 0.52087 0.13697 0.67168 0.0
C919 C 0.42197 0.14184 0.6565 0.0
C920 C 0.41009 0.13558 0.68481 0.0
C921 C 0.44384 0.13886 0.65046 0.0
C922 C 0.45388 0.12964 0.6727 0.0
C923 C 0.4429 0.12487 0.70119 0.0
C924 C 0.42139 0.12788 0.70721 0.0
H925 H 0.93835 0.40779 0.69201 0.0
H926 H 0.85806 0.39001 0.68692 0.0
H927 H 0.92439 0.36133 0.68553 0.0
H928 H 0.8441 0.34316 0.67935 0.0
H929 H 0.85605 0.27241 0.63086 0.0
H930 H 0.85565 0.31338 0.6402 0.0
H931 H 0.89374 0.32045 0.72306 0.0
H932 H 0.89378 0.27936 0.71383 0.0
C933 C 0.91775 0.394 0.68877 0.0
C934 C 0.89925 0.40246 0.69037 0.0
C935 C 0.90974 0.36739 0.68542 0.0
C936 C 0.88309 0.34863 0.683 0.0
C937 C 0.86472 0.35726 0.68175 0.0
C938 C 0.87274 0.38405 0.68563 0.0
C939 C 0.86261 0.28175 0.65202 0.0
C940 C 0.87471 0.27265 0.6718 0.0
C941 C 0.86272 0.3054 0.65713 0.0
C942 C 0.87519 0.32028 0.68198 0.0
C943 C 0.88423 0.3094 0.70356 0.0
C944 C 0.88381 0.28562 0.69858 0.0
H945 H 0.15192 0.96586 0.64974 0.0
H946 H 0.20449 0.93997 0.68067 0.0
H947 H 0.18739 0.01208 0.65175 0.0
H948 H 0.23978 0.98581 0.68272 0.0
H949 H 0.30342 0.05791 0.64333 0.0
H950 H 0.2621 0.01711 0.6371 0.0
H951 H 0.22202 0.04855 0.68819 0.0
H952 H 0.26366 0.08961 0.69436 0.0
C953 C 0.17074 0.9702 0.65826 0.0
C954 C 0.17555 0.94958 0.66544 0.0
C955 C 0.19105 0.99652 0.65899 0.0
C956 C 0.21642 0.00236 0.66654 0.0
C957 C 0.22053 0.98177 0.67611 0.0
C958 C 0.20029 0.95562 0.67552 0.0
C959 C 0.28555 0.05678 0.65159 0.0
C960 C 0.28669 0.07683 0.66931 0.0
C961 C 0.26199 0.0332 0.64864 0.0
C962 C 0.23914 0.02943 0.66312 0.0
C963 C 0.23946 0.05092 0.67711 0.0
C964 C 0.2632 0.0746 0.68015 0.0
H965 H 0.08495 0.27998 0.66697 0.0
H966 H 0.06457 0.1984 0.67681 0.0
H967 H 0.04032 0.26829 0.68024 0.0
H968 H 0.01952 0.1865 0.69062 0.0
H969 H 0.93839 0.17994 0.66179 0.0
H970 H 0.98194 0.18444 0.66443 0.0
H971 H 0.00744 0.25283 0.71904 0.0
H972 H 0.96431 0.24875 0.71536 0.0
C973 C 0.07094 0.25956 0.67246 0.0
C974 C 0.0782 0.24011 0.67074 0.0
C975 C 0.04536 0.25283 0.68036 0.0
C976 C 0.02625 0.22641 0.68665 0.0
C977 C 0.03372 0.207 0.68583 0.0
C978 C 0.05952 0.21382 0.67815 0.0
C979 C 0.95302 0.19517 0.6754 0.0
C980 C 0.94809 0.21397 0.68843 0.0
C981 C 0.97803 0.19787 0.67683 0.0
C982 C 0.99839 0.21939 0.69139 0.0
C983 C 0.99242 0.23643 0.70705 0.0
C984 C 0.96763 0.2339 0.70531 0.0
H985 H 0.83096 0.87538 0.65873 0.0
H986 H 0.74978 0.81379 0.66045 0.0
H987 H 0.84423 0.84182 0.66442 0.0
H988 H 0.76302 0.78062 0.66528 0.0
H989 H 0.78903 0.72575 0.63909 0.0
H990 H 0.78765 0.7661 0.6286 0.0
H991 H 0.83777 0.80359 0.70236 0.0
H992 H 0.83896 0.76302 0.71284 0.0
C993 C 0.81597 0.85479 0.66081 0.0
C994 C 0.78932 0.84722 0.65861 0.0
C995 C 0.82359 0.83561 0.66375 0.0
C996 C 0.80469 0.80861 0.6642 0.0
C997 C 0.77807 0.80124 0.66392 0.0
C998 C 0.77049 0.82027 0.66135 0.0
C999 C 0.80112 0.74316 0.65184 0.0
C1000 C 0.81435 0.74141 0.67653 0.0
C1001 C 0.79989 0.76608 0.64626 0.0
C1002 C 0.81206 0.78772 0.66516 0.0
C1003 C 0.82816 0.78721 0.68749 0.0
C1004 C 0.82919 0.76412 0.6932 0.0
H1005 H 0.03334 0.80756 0.62181 0.0
H1006 H 0.05144 0.84093 0.70869 0.0
H1007 H 0.98667 0.78551 0.63421 0.0
H1008 H 0.00429 0.81779 0.72163 0.0
H1009 H 0.92304 0.72768 0.72409 0.0
H1010 H 0.96869 0.76352 0.72284 0.0
H1011 H 0.9515 0.80044 0.65024 0.0
H1012 H 0.90576 0.76494 0.65204 0.0
C1013 C 0.02724 0.81024 0.64355 0.0
C1014 C 0.04586 0.826 0.66424 0.0
C1015 C 1.00057 0.79781 0.65056 0.0
C1016 C 0.99191 0.80031 0.67872 0.0
C1017 C 0.01052 0.81589 0.69966 0.0
C1018 C 0.03737 0.82904 0.69229 0.0
C1019 C 0.92868 0.74437 0.7092 0.0
C1020 C 0.91088 0.74386 0.68847 0.0
C1021 C 0.95483 0.76477 0.70833 0.0
C1022 C 0.96359 0.78453 0.68624 0.0
C1023 C 0.94517 0.78541 0.6675 0.0
C1024 C 0.91895 0.76529 0.66874 0.0
H1025 H 0.16406 0.17868 0.65604 0.0
H1026 H 0.22108 0.25275 0.69271 0.0
H1027 H 0.19111 0.15936 0.669 0.0
H1028 H 0.24893 0.2339 0.70478 0.0
H1029 H 0.29429 0.19274 0.72586 0.0
H1030 H 0.25753 0.20126 0.73072 0.0
H1031 H 0.2315 0.16897 0.64416 0.0
H1032 H 0.26783 0.16059 0.63969 0.0
C1033 C 0.18212 0.19053 0.66766 0.0
C1034 C 0.19058 0.217 0.67357 0.0
C1035 C 0.19768 0.1796 0.67491 0.0
C1036 C 0.22234 0.19519 0.68754 0.0
C1037 C 0.22993 0.22127 0.69537 0.0
C1038 C 0.21409 0.23211 0.68843 0.0
C1039 C 0.28 0.18662 0.70853 0.0
C1040 C 0.28345 0.17575 0.68259 0.0
C1041 C 0.25921 0.19173 0.71111 0.0
C1042 C 0.24158 0.1858 0.68784 0.0
C1043 C 0.24434 0.17335 0.66275 0.0
C1044 C 0.26515 0.16855 0.66011 0.0
H1045 H 0.83956 0.98531 0.68115 0.0
H1046 H 0.78654 0.99246 0.62195 0.0
H1047 H 0.86147 0.03302 0.68983 0.0
H1048 H 0.80705 0.03921 0.63147 0.0
H1049 H 0.84823 0.1221 0.63471 0.0
H1050 H 0.84451 0.08008 0.62131 0.0
H1051 H 0.85632 0.06634 0.71238 0.0
H1052 H 0.86168 0.10897 0.72489 0.0
C1053 C 0.83243 0.99706 0.67037 0.0
C1054 C 0.8116 0.98544 0.6507 0.0
C1055 C 0.845 0.02437 0.67515 0.0
C1056 C 0.83667 0.0403 0.66058 0.0
C1057 C 0.81497 0.02806 0.64201 0.0
C1058 C 0.80284 0.00111 0.63692 0.0
C1059 C 0.85195 0.11096 0.65127 0.0
C1060 C 0.85503 0.11858 0.68077 0.0
C1061 C 0.84904 0.08646 0.6439 0.0
C1062 C 0.84875 0.06915 0.66609 0.0
C1063 C 0.85607 0.07882 0.69471 0.0
C1064 C 0.85943 0.10349 0.70187 0.0
H1065 H 0.52922 0.36637 0.67834 0.0
H1066 H 0.46365 0.36198 0.72666 0.0
H1067 H 0.50534 0.31813 0.67405 0.0
H1068 H 0.43934 0.31471 0.72115 0.0
H1069 H 0.39797 0.2323 0.72306 0.0
H1070 H 0.4343 0.27488 0.737 0.0
H1071 H 0.4707 0.28271 0.65119 0.0
H1072 H 0.43574 0.23911 0.639 0.0
C1073 C 0.50959 0.35507 0.68765 0.0
C1074 C 0.49821 0.3677 0.70295 0.0
C1075 C 0.49592 0.32746 0.68537 0.0
C1076 C 0.47058 0.31218 0.69804 0.0
C1077 C 0.45917 0.32534 0.7123 0.0
C1078 C 0.47291 0.35261 0.71499 0.0
C1079 C 0.41484 0.24215 0.70834 0.0
C1080 C 0.41416 0.23243 0.68012 0.0
C1081 C 0.43529 0.26708 0.71575 0.0
C1082 C 0.45481 0.28297 0.69459 0.0
C1083 C 0.45604 0.2714 0.66805 0.0
C1084 C 0.43603 0.24615 0.66111 0.0
H1085 H 0.64226 0.10722 0.66814 0.0
H1086 H 0.66493 0.1823 0.70722 0.0
H1087 H 0.68773 0.12295 0.65341 0.0
H1088 H 0.70982 0.19916 0.69031 0.0
H1089 H 0.7896 0.20492 0.70104 0.0
H1090 H 0.74535 0.19725 0.70338 0.0
H1091 H 0.72588 0.1473 0.62705 0.0
H1092 H 0.77011 0.1536 0.62672 0.0
C1093 C 0.65696 0.12736 0.67283 0.0
C1094 C 0.65029 0.1435 0.68912 0.0
C1095 C 0.6831 0.13659 0.66416 0.0
C1096 C 0.70299 0.16242 0.67093 0.0
C1097 C 0.69558 0.17893 0.68551 0.0
C1098 C 0.66973 0.16939 0.695 0.0
C1099 C 0.77615 0.1933 0.68396 0.0
C1100 C 0.78332 0.18022 0.66342 0.0
C1101 C 0.7505 0.18868 0.6853 0.0
C1102 C 0.73142 0.17118 0.66568 0.0
C1103 C 0.73956 0.16024 0.64315 0.0
C1104 C 0.76513 0.16436 0.64238 0.0
H1105 H 0.83234 0.48752 0.7268 0.0
H1106 H 0.90687 0.53788 0.68329 0.0
H1107 H 0.81922 0.52068 0.71755 0.0
H1108 H 0.894 0.57156 0.67505 0.0
H1109 H 0.87042 0.63209 0.71528 0.0
H1110 H 0.87557 0.5939 0.72601 0.0
H1111 H 0.82002 0.55006 0.65878 0.0
H1112 H 0.81602 0.58903 0.64684 0.0
C1113 C 0.8458 0.50562 0.71505 0.0
C1114 C 0.87051 0.51012 0.70564 0.0
C1115 C 0.83827 0.52448 0.70979 0.0
C1116 C 0.85562 0.54851 0.69573 0.0
C1117 C 0.8803 0.55303 0.68591 0.0
C1118 C 0.88759 0.53381 0.6905 0.0
C1119 C 0.85817 0.61382 0.70398 0.0
C1120 C 0.84263 0.61336 0.68056 0.0
C1121 C 0.86158 0.59222 0.70963 0.0
C1122 C 0.84862 0.56943 0.69274 0.0
C1123 C 0.83041 0.56763 0.67183 0.0
C1124 C 0.82763 0.58964 0.66553 0.0
H1125 H 0.516 0.96741 0.26348 0.0
H1126 H 0.43787 0.91142 0.23604 0.0
H1127 H 0.52749 0.98497 0.21261 0.0
H1128 H 0.44929 0.92875 0.18555 0.0
H1129 H 0.48074 0.95066 0.09322 0.0
H1130 H 0.47971 0.93224 0.14249 0.0
H1131 H 0.51134 0.00986 0.1793 0.0
H1132 H 0.51188 0.02802 0.13031 0.0
C1133 C 0.50141 0.95875 0.24654 0.0
C1134 C 0.476 0.9382 0.2537 0.0
C1135 C 0.50795 0.96877 0.21752 0.0
C1136 C 0.48938 0.95798 0.19507 0.0
C1137 C 0.46416 0.93713 0.20224 0.0
C1138 C 0.45752 0.92745 0.23122 0.0
C1139 C 0.48846 0.96386 0.11169 0.0
C1140 C 0.49654 0.99073 0.1081 0.0
C1141 C 0.48759 0.95332 0.13988 0.0
C1142 C 0.49523 0.96961 0.16474 0.0
C1143 C 0.5055 0.99687 0.16059 0.0
C1144 C 0.50588 0.00728 0.13256 0.0
H1145 H 0.04455 0.53871 0.26258 0.0
H1146 H 0.1197 0.55147 0.23247 0.0
H1147 H 0.02935 0.53188 0.21145 0.0
H1148 H 0.10549 0.54632 0.1816 0.0
H1149 H 0.05983 0.4949 0.10533 0.0
H1150 H 0.0781 0.51062 0.15333 0.0
H1151 H 0.03146 0.54862 0.16211 0.0
H1152 H 0.01199 0.53123 0.11387 0.0
C1153 C 0.05784 0.54041 0.24486 0.0
C1154 C 0.08304 0.54512 0.25113 0.0
C1155 C 0.04932 0.5368 0.21562 0.0
C1156 C 0.0661 0.53826 0.19232 0.0
C1157 C 0.09178 0.54437 0.1989 0.0
C1158 C 0.10002 0.54745 0.22798 0.0
C1159 C 0.05413 0.50734 0.11715 0.0
C1160 C 0.03497 0.51235 0.1059 0.0
C1161 C 0.0646 0.51641 0.14474 0.0
C1162 C 0.05642 0.53108 0.16171 0.0
C1163 C 0.03802 0.53718 0.14974 0.0
C1164 C 0.02722 0.5277 0.12201 0.0
H1165 H 0.49849 0.59907 0.23103 0.0
H1166 H 0.47403 0.51734 0.24974 0.0
H1167 H 0.51246 0.59522 0.18132 0.0
H1168 H 0.48806 0.51343 0.19979 0.0
H1169 H 0.48625 0.50768 0.10071 0.0
H1170 H 0.47306 0.51495 0.14895 0.0
H1171 H 0.54675 0.58772 0.15535 0.0
H1172 H 0.56027 0.58005 0.10635 0.0
C1173 C 0.4962 0.58028 0.22447 0.0
C1174 C 0.48518 0.55846 0.24418 0.0
C1175 C 0.50433 0.57817 0.1961 0.0
C1176 C 0.50144 0.55412 0.18672 0.0
C1177 C 0.49027 0.53219 0.20637 0.0
C1178 C 0.48214 0.53432 0.23485 0.0
C1179 C 0.49951 0.52551 0.11216 0.0
C1180 C 0.52433 0.54329 0.09997 0.0
C1181 C 0.49204 0.52948 0.13993 0.0
C1182 C 0.50908 0.55152 0.15619 0.0
C1183 C 0.53332 0.5704 0.14327 0.0
C1184 C 0.54101 0.56621 0.11528 0.0
H1185 H 0.91722 0.47697 0.7954 0.0
H1186 H 0.9669 0.44882 0.75957 0.0
H1187 H 0.93445 0.47799 0.84436 0.0
H1188 H 0.9826 0.44795 0.80863 0.0
H1189 H 0.02693 0.48262 0.89556 0.0
H1190 H 0.00913 0.47505 0.84619 0.0
H1191 H 0.93199 0.44889 0.88353 0.0
H1192 H 0.95029 0.45715 0.93303 0.0
C1193 C 0.93194 0.47119 0.79789 0.0
C1194 C 0.94041 0.46252 0.77357 0.0
C1195 C 0.9414 0.47119 0.8261 0.0
C1196 C 0.95942 0.46236 0.83067 0.0
C1197 C 0.96869 0.45478 0.80609 0.0
C1198 C 0.95952 0.45512 0.77791 0.0
C1199 C 0.00596 0.47394 0.89319 0.0
C1200 C 0.9899 0.47007 0.91799 0.0
C1201 C 0.99573 0.46988 0.86485 0.0
C1202 C 0.96919 0.46199 0.86077 0.0
C1203 C 0.95264 0.45562 0.88585 0.0
C1204 C 0.96293 0.45963 0.91425 0.0
H1205 H 0.58528 0.48541 0.78608 0.0
H1206 H 0.5157 0.48121 0.75056 0.0
H1207 H 0.57209 0.49088 0.83553 0.0
H1208 H 0.50228 0.48664 0.80024 0.0
H1209 H 0.51604 0.53792 0.88503 0.0
H1210 H 0.51824 0.52231 0.83622 0.0
H1211 H 0.53853 0.46719 0.87501 0.0
H1212 H 0.53671 0.48329 0.92424 0.0
C1213 C 0.56734 0.48608 0.7889 0.0
C1214 C 0.55178 0.48351 0.76456 0.0
C1215 C 0.55949 0.48864 0.81725 0.0
C1216 C 0.53598 0.48888 0.82184 0.0
C1217 C 0.52048 0.4865 0.79738 0.0
C1218 C 0.52821 0.4836 0.769 0.0
C1219 C 0.52019 0.52189 0.88323 0.0
C1220 C 0.52659 0.51206 0.90833 0.0
C1221 C 0.52138 0.51289 0.85523 0.0
C1222 C 0.52907 0.4939 0.85173 0.0
C1223 C 0.53304 0.48224 0.87708 0.0
C1224 C 0.53169 0.49119 0.90525 0.0
H1225 H 0.54071 0.04782 0.7658 0.0
H1226 H 0.53087 0.11485 0.78263 0.0
H1227 H 0.52458 0.03076 0.81588 0.0
H1228 H 0.51462 0.09789 0.83263 0.0
H1229 H 0.51903 0.07104 0.93025 0.0
H1230 H 0.52908 0.08984 0.88012 0.0
H1231 H 0.48373 0.0116 0.84491 0.0
H1232 H 0.47442 0.99298 0.89503 0.0
C1233 C 0.53534 0.05899 0.78039 0.0
C1234 C 0.53705 0.08262 0.77051 0.0
C1235 C 0.52576 0.0491 0.80889 0.0
C1236 C 0.51792 0.06278 0.82816 0.0
C1237 C 0.52042 0.08685 0.81841 0.0
C1238 C 0.52971 0.09655 0.78983 0.0
C1239 C 0.5101 0.05808 0.9118 0.0
C1240 C 0.4956 0.03063 0.91643 0.0
C1241 C 0.51615 0.06878 0.88304 0.0
C1242 C 0.50774 0.05215 0.85847 0.0
C1243 C 0.49107 0.0249 0.86332 0.0
C1244 C 0.4852 0.01425 0.892 0.0
H1245 H 0.16118 0.25636 0.57379 0.0
H1246 H 0.13359 0.30952 0.59887 0.0
H1247 H 0.16823 0.27361 0.52302 0.0
H1248 H 0.14042 0.32645 0.54817 0.0
H1249 H 0.10792 0.30855 0.45538 0.0
H1250 H 0.11252 0.29793 0.50563 0.0
H1251 H 0.19188 0.31647 0.48652 0.0
H1252 H 0.1875 0.3279 0.43497 0.0
C1253 C 0.15727 0.2722 0.56868 0.0
C1254 C 0.14634 0.28124 0.59026 0.0
C1255 C 0.1614 0.28208 0.53962 0.0
C1256 C 0.15457 0.30109 0.53165 0.0
C1257 C 0.14553 0.31152 0.55369 0.0
C1258 C 0.14144 0.30171 0.58265 0.0
C1259 C 0.12653 0.31055 0.46158 0.0
C1260 C 0.14754 0.31956 0.44113 0.0
C1261 C 0.12914 0.30454 0.49057 0.0
C1262 C 0.15275 0.30706 0.50018 0.0
C1263 C 0.17354 0.3147 0.47963 0.0
C1264 C 0.171 0.32106 0.4502 0.0
H1265 H 0.71237 0.83089 0.6001 0.0
H1266 H 0.76422 0.91103 0.5696 0.0
H1267 H 0.69403 0.81953 0.55085 0.0
H1268 H 0.74572 0.89961 0.52045 0.0
H1269 H 0.69309 0.86428 0.43559 0.0
H1270 H 0.70442 0.88077 0.48637 0.0
H1271 H 0.72025 0.81788 0.50712 0.0
H1272 H 0.70946 0.80183 0.45764 0.0
C1273 C 0.71946 0.84619 0.58309 0.0
C1274 C 0.74001 0.87172 0.58866 0.0
C1275 C 0.70893 0.83974 0.55494 0.0
C1276 C 0.71877 0.85865 0.53178 0.0
C1277 C 0.73769 0.88472 0.53792 0.0
C1278 C 0.74826 0.8912 0.56612 0.0
C1279 C 0.69916 0.85421 0.45107 0.0
C1280 C 0.69985 0.83145 0.44272 0.0
C1281 C 0.70549 0.86352 0.48005 0.0
C1282 C 0.71236 0.85003 0.50087 0.0
C1283 C 0.71408 0.8281 0.49194 0.0
C1284 C 0.708 0.81901 0.46338 0.0
H1285 H 0.11921 0.87183 0.56574 0.0
H1286 H 0.19929 0.90501 0.59368 0.0
H1287 H 0.13293 0.87045 0.51529 0.0
H1288 H 0.21325 0.90521 0.54284 0.0
H1289 H 0.21747 0.86709 0.45385 0.0
H1290 H 0.21078 0.87613 0.50465 0.0
H1291 H 0.15652 0.90052 0.47474 0.0
H1292 H 0.16301 0.89084 0.42397 0.0
C1293 C 0.1397 0.8786 0.56121 0.0
C1294 C 0.15815 0.88868 0.58377 0.0
C1295 C 0.14767 0.87838 0.53213 0.0
C1296 C 0.1743 0.88842 0.52488 0.0
C1297 C 0.19262 0.89751 0.54761 0.0
C1298 C 0.18461 0.89749 0.57674 0.0
C1299 C 0.20513 0.8756 0.45812 0.0
C1300 C 0.19102 0.87865 0.43524 0.0
C1301 C 0.20107 0.88056 0.48721 0.0
C1302 C 0.1826 0.88841 0.49381 0.0
C1303 C 0.1704 0.89388 0.47042 0.0
C1304 C 0.17452 0.88894 0.44132 0.0
H1305 H 0.5854 0.7494 0.11821 0.0
H1306 H 0.62458 0.83436 0.10705 0.0
H1307 H 0.60468 0.75437 0.16657 0.0
H1308 H 0.64268 0.83904 0.15642 0.0
H1309 H 0.63487 0.83216 0.25748 0.0
H1310 H 0.61599 0.82243 0.20855 0.0
H1311 H 0.65466 0.77779 0.1902 0.0
H1312 H 0.6745 0.78839 0.23955 0.0
C1313 C 0.59849 0.76917 0.12574 0.0
C1314 C 0.60362 0.79154 0.10846 0.0
C1315 C 0.60937 0.77189 0.15355 0.0
C1316 C 0.62512 0.79699 0.16501 0.0
C1317 C 0.63047 0.81942 0.14791 0.0
C1318 C 0.61996 0.81674 0.1198 0.0
C1319 C 0.63885 0.81972 0.24325 0.0
C1320 C 0.65605 0.81096 0.25206 0.0
C1321 C 0.6283 0.81445 0.21523 0.0
C1322 C 0.63441 0.79993 0.19558 0.0
C1323 C 0.64995 0.78927 0.20508 0.0
C1324 C 0.66102 0.79502 0.23324 0.0
H1325 H 0.22403 0.85032 0.08854 0.0
H1326 H 0.19821 0.76988 0.11646 0.0
H1327 H 0.21737 0.86049 0.13888 0.0
H1328 H 0.19057 0.78004 0.1664 0.0
H1329 H 0.1684 0.81747 0.25094 0.0
H1330 H 0.16463 0.80107 0.20004 0.0
H1331 H 0.24611 0.85783 0.18323 0.0
H1332 H 0.25014 0.87346 0.23308 0.0
C1333 C 0.21658 0.8347 0.10517 0.0
C1334 C 0.21211 0.80939 0.09834 0.0
C1335 C 0.21248 0.84046 0.13391 0.0
C1336 C 0.20348 0.821 0.15642 0.0
C1337 C 0.19721 0.79527 0.14933 0.0
C1338 C 0.20163 0.78954 0.12063 0.0
C1339 C 0.1855 0.82598 0.23644 0.0
C1340 C 0.20944 0.84702 0.24588 0.0
C1341 C 0.18331 0.8168 0.20737 0.0
C1342 C 0.20495 0.82879 0.18763 0.0
C1343 C 0.22898 0.84877 0.19773 0.0
C1344 C 0.23123 0.85761 0.2264 0.0
H1345 H 0.2065 0.38149 0.09806 0.0
H1346 H 0.1979 0.44927 0.11504 0.0
H1347 H 0.19382 0.36645 0.14958 0.0
H1348 H 0.18553 0.43453 0.16643 0.0
H1349 H 0.2037 0.41436 0.2618 0.0
H1350 H 0.20915 0.42946 0.21028 0.0
H1351 H 0.15357 0.35019 0.1842 0.0
H1352 H 0.14803 0.33528 0.23597 0.0
C1353 C 0.20191 0.3931 0.11289 0.0
C1354 C 0.20305 0.41642 0.10281 0.0
C1355 C 0.19444 0.38444 0.14217 0.0
C1356 C 0.18846 0.39925 0.16187 0.0
C1357 C 0.18996 0.42274 0.15172 0.0
C1358 C 0.19699 0.43113 0.12241 0.0
C1359 C 0.19185 0.40051 0.24513 0.0
C1360 C 0.17506 0.37387 0.25264 0.0
C1361 C 0.1951 0.40904 0.21568 0.0
C1362 C 0.18199 0.3909 0.19327 0.0
C1363 C 0.16408 0.36449 0.20106 0.0
C1364 C 0.16058 0.35605 0.23061 0.0
H1365 H 0.81941 0.64984 0.93874 0.0
H1366 H 0.80882 0.57771 0.90155 0.0
H1367 H 0.83111 0.67111 0.89005 0.0
H1368 H 0.8186 0.59812 0.85221 0.0
H1369 H 0.84328 0.64228 0.7649 0.0
H1370 H 0.84643 0.62822 0.8153 0.0
H1371 H 0.80837 0.66977 0.84916 0.0
H1372 H 0.80693 0.68486 0.8003 0.0
C1373 C 0.81958 0.6386 0.91996 0.0
C1374 C 0.813 0.61218 0.92363 0.0
C1375 C 0.82611 0.65064 0.89198 0.0
C1376 C 0.82535 0.63625 0.86683 0.0
C1377 C 0.81971 0.60999 0.87089 0.0
C1378 C 0.81383 0.59817 0.89908 0.0
C1379 C 0.83631 0.6489 0.78332 0.0
C1380 C 0.82451 0.66434 0.77843 0.0
C1381 C 0.8378 0.64062 0.81218 0.0
C1382 C 0.82747 0.64762 0.83654 0.0
C1383 C 0.81702 0.66422 0.83142 0.0
C1384 C 0.81585 0.67265 0.80301 0.0
H1385 H 0.37041 0.18734 0.93929 0.0
H1386 H 0.44538 0.22702 0.89409 0.0
H1387 H 0.34832 0.17754 0.89171 0.0
H1388 H 0.4238 0.21666 0.84659 0.0
H1389 H 0.38153 0.20259 0.76287 0.0
H1390 H 0.39758 0.22206 0.811 0.0
H1391 H 0.34214 0.14807 0.85367 0.0
H1392 H 0.32539 0.1294 0.8062 0.0
C1393 C 0.38204 0.19419 0.91906 0.0
C1394 C 0.40942 0.20779 0.91997 0.0
C1395 C 0.36952 0.18851 0.89185 0.0
C1396 C 0.38426 0.19619 0.8652 0.0
C1397 C 0.41175 0.21079 0.86651 0.0
C1398 C 0.42417 0.21653 0.89365 0.0
C1399 C 0.37234 0.19083 0.78256 0.0
C1400 C 0.35247 0.16439 0.78055 0.0
C1401 C 0.38169 0.20185 0.81019 0.0
C1402 C 0.37143 0.18654 0.8363 0.0
C1403 C 0.3504 0.16064 0.83423 0.0
C1404 C 0.34095 0.1498 0.80678 0.0
H1405 H 0.78587 0.20764 0.89861 0.0
H1406 H 0.86144 0.22468 0.93038 0.0
H1407 H 0.79996 0.20576 0.84823 0.0
H1408 H 0.87583 0.22351 0.87993 0.0
H1409 H 0.87449 0.18556 0.78825 0.0
H1410 H 0.86736 0.1928 0.83966 0.0
H1411 H 0.83094 0.23739 0.8108 0.0
H1412 H 0.83805 0.22984 0.75928 0.0
C1413 C 0.80532 0.21052 0.89486 0.0
C1414 C 0.82257 0.21635 0.91835 0.0
C1415 C 0.81359 0.20998 0.86598 0.0
C1416 C 0.83924 0.21515 0.86005 0.0
C1417 C 0.85603 0.21964 0.88376 0.0
C1418 C 0.84778 0.22026 0.91261 0.0
C1419 C 0.86609 0.19795 0.79303 0.0
C1420 C 0.85715 0.20752 0.77006 0.0
C1421 C 0.86177 0.20189 0.82241 0.0
C1422 C 0.84807 0.21516 0.82925 0.0
C1423 C 0.84109 0.22663 0.80615 0.0
C1424 C 0.84561 0.22282 0.77672 0.0
H1425 H 0.24464 0.08296 0.45693 0.0
H1426 H 0.29866 0.16524 0.43673 0.0
H1427 H 0.26324 0.08798 0.50591 0.0
H1428 H 0.31708 0.17028 0.48601 0.0
H1429 H 0.31549 0.17691 0.58501 0.0
H1430 H 0.29646 0.16722 0.53656 0.0
H1431 H 0.30734 0.09955 0.53203 0.0
H1432 H 0.32743 0.10984 0.58134 0.0
C1433 C 0.26075 0.10205 0.46284 0.0
C1434 C 0.27028 0.12375 0.44299 0.0
C1435 C 0.27139 0.10483 0.49083 0.0
C1436 C 0.29158 0.12942 0.49965 0.0
C1437 C 0.30134 0.15109 0.47974 0.0
C1438 C 0.29077 0.14829 0.45166 0.0
C1439 C 0.31369 0.15977 0.57385 0.0
C1440 C 0.3234 0.14438 0.5866 0.0
C1441 C 0.30295 0.15439 0.54602 0.0
C1442 C 0.30118 0.13317 0.53024 0.0
C1443 C 0.30891 0.11631 0.54375 0.0
C1444 C 0.32016 0.12199 0.57189 0.0
H1445 H 0.8792 0.17597 0.41697 0.0
H1446 H 0.8831 0.1114 0.45864 0.0
H1447 H 0.86862 0.1878 0.46464 0.0
H1448 H 0.87418 0.12398 0.50664 0.0
H1449 H 0.85107 0.14724 0.59115 0.0
H1450 H 0.84709 0.1292 0.54162 0.0
H1451 H 0.89269 0.20856 0.50555 0.0
H1452 H 0.89559 0.22613 0.55383 0.0
C1453 C 0.87773 0.16433 0.43643 0.0
C1454 C 0.88216 0.14298 0.43433 0.0
C1455 C 0.8718 0.17111 0.46378 0.0
C1456 C 0.87095 0.15713 0.48976 0.0
C1457 C 0.87431 0.13503 0.48725 0.0
C1458 C 0.87967 0.12794 0.45979 0.0
C1459 C 0.85983 0.16069 0.5725 0.0
C1460 C 0.87409 0.18807 0.57666 0.0
C1461 C 0.8577 0.15041 0.54411 0.0
C1462 C 0.86972 0.16737 0.51941 0.0
C1463 C 0.88279 0.19473 0.52367 0.0
C1464 C 0.8848 0.20487 0.55172 0.0
H1465 H 0.90284 0.77136 0.45543 0.0
H1466 H 0.8283 0.71113 0.4232 0.0
H1467 H 0.88816 0.75539 0.50599 0.0
H1468 H 0.81344 0.69538 0.47383 0.0
H1469 H 0.8189 0.6576 0.5646 0.0
H1470 H 0.82456 0.67331 0.51348 0.0
H1471 H 0.85554 0.75317 0.54356 0.0
H1472 H 0.8498 0.73716 0.59489 0.0
C1473 C 0.88341 0.75458 0.45918 0.0
C1474 C 0.86673 0.74245 0.43544 0.0
C1475 C 0.87483 0.74573 0.48812 0.0
C1476 C 0.84947 0.72445 0.49388 0.0
C1477 C 0.83301 0.71192 0.47006 0.0
C1478 C 0.84152 0.72091 0.44114 0.0
C1479 C 0.82572 0.67831 0.56019 0.0
C1480 C 0.8336 0.69618 0.5834 0.0
C1481 C 0.82916 0.68736 0.53097 0.0
C1482 C 0.84092 0.71452 0.52455 0.0
C1483 C 0.84678 0.73216 0.54794 0.0
C1484 C 0.84308 0.72302 0.57724 0.0
loop_
_geom_bond_atom_site_label_1
_geom_bond_atom_site_label_2
_geom_bond_distance
_geom_bond_site_symmetry_2
_ccdc_geom_bond_type
H0 C5 0.930 . S
H1 C8 0.930 . S
H2 C10 0.930 . S
H3 C4 1.016 . S
C4 H3 1.016 . S
C4 N11 1.286 . S
C5 H0 0.930 . S
C5 C6 1.397 . S
C5 C7 1.361 . S
C6 C5 1.397 . S
C6 C10 1.390 . S
C7 C5 1.361 . S
C7 C8 1.393 . S
C7 N11 1.413 . S
C8 H1 0.930 . S
C8 C7 1.393 . S
C8 C9 1.399 . S
C9 C8 1.399 . S
C9 C10 1.381 . S
C10 H2 0.930 . S
C10 C6 1.390 . S
C10 C9 1.381 . S
N11 C4 1.286 . S
N11 C7 1.413 . S
H12 C17 0.930 . S
H13 C20 0.930 . S
H14 C22 0.930 . S
H15 C16 1.016 . S
C16 H15 1.016 . S
C16 N23 1.286 . S
C17 H12 0.930 . S
C17 C18 1.397 . S
C17 C19 1.361 . S
C18 C17 1.397 . S
C18 C22 1.390 . S
C19 C17 1.361 . S
C19 C20 1.393 . S
C19 N23 1.413 . S
C20 H13 0.930 . S
C20 C19 1.393 . S
C20 C21 1.399 . S
C21 C20 1.399 . S
C21 C22 1.381 . S
C22 H14 0.930 . S
C22 C18 1.390 . S
C22 C21 1.381 . S
N23 C16 1.286 . S
N23 C19 1.413 . S
H24 C29 0.930 . S
H25 C32 0.930 . S
H26 C34 0.930 . S
H27 C28 1.016 . S
C28 H27 1.016 . S
C28 N35 1.286 . S
C29 H24 0.930 . S
C29 C30 1.397 . S
C29 C31 1.361 . S
C30 C29 1.397 . S
C30 C34 1.390 . S
C31 C29 1.361 . S
C31 C32 1.393 . S
C31 N35 1.413 . S
C32 H25 0.930 . S
C32 C31 1.393 . S
C32 C33 1.399 . S
C33 C32 1.399 . S
C33 C34 1.381 . S
C34 H26 0.930 . S
C34 C30 1.390 . S
C34 C33 1.381 . S
N35 C28 1.286 . S
N35 C31 1.413 . S
H36 C41 0.930 . S
H37 C44 0.930 . S
H38 C46 0.930 . S
H39 C40 1.016 . S
C40 H39 1.016 . S
C40 N47 1.286 . S
C41 H36 0.930 . S
C41 C42 1.397 . S
C41 C43 1.361 . S
C42 C41 1.397 . S
C42 C46 1.390 . S
C43 C41 1.361 . S
C43 C44 1.393 . S
C43 N47 1.413 . S
C44 H37 0.930 . S
C44 C43 1.393 . S
C44 C45 1.399 . S
C45 C44 1.399 . S
C45 C46 1.381 . S
C46 H38 0.930 . S
C46 C42 1.390 . S
C46 C45 1.381 . S
N47 C40 1.286 . S
N47 C43 1.413 . S
H48 C53 0.930 . S
H49 C56 0.930 . S
H50 C58 0.930 . S
H51 C52 1.016 . S
C52 H51 1.016 . S
C52 N59 1.286 . S
C53 H48 0.930 . S
C53 C54 1.397 . S
C53 C55 1.361 . S
C54 C53 1.397 . S
C54 C58 1.390 . S
C55 C53 1.361 . S
C55 C56 1.393 . S
C55 N59 1.413 . S
C56 H49 0.930 . S
C56 C55 1.393 . S
C56 C57 1.399 . S
C57 C56 1.399 . S
C57 C58 1.381 . S
C58 H50 0.930 . S
C58 C54 1.390 . S
C58 C57 1.381 . S
N59 C52 1.286 . S
N59 C55 1.413 . S
H60 C65 0.930 . S
H61 C68 0.930 . S
H62 C70 0.930 . S
H63 C64 1.016 . S
C64 H63 1.016 . S
C64 N71 1.286 . S
C65 H60 0.930 . S
C65 C66 1.397 . S
C65 C67 1.361 . S
C66 C65 1.397 . S
C66 C70 1.390 . S
C67 C65 1.361 . S
C67 C68 1.393 . S
C67 N71 1.413 . S
C68 H61 0.930 . S
C68 C67 1.393 . S
C68 C69 1.399 . S
C69 C68 1.399 . S
C69 C70 1.381 . S
C70 H62 0.930 . S
C70 C66 1.390 . S
C70 C69 1.381 . S
N71 C64 1.286 . S
N71 C67 1.413 . S
H72 C77 0.930 . S
H73 C80 0.930 . S
H74 C82 0.930 . S
H75 C76 1.016 . S
C76 H75 1.016 . S
C76 N83 1.286 . S
C77 H72 0.930 . S
C77 C78 1.397 . S
C77 C79 1.361 . S
C78 C77 1.397 . S
C78 C82 1.390 . S
C79 C77 1.361 . S
C79 C80 1.393 . S
C79 N83 1.413 . S
C80 H73 0.930 . S
C80 C79 1.393 . S
C80 C81 1.399 . S
C81 C80 1.399 . S
C81 C82 1.381 . S
C82 H74 0.930 . S
C82 C78 1.390 . S
C82 C81 1.381 . S
N83 C76 1.286 . S
N83 C79 1.413 . S
H84 C89 0.930 . S
H85 C92 0.930 . S
H86 C94 0.930 . S
H87 C88 1.016 . S
C88 H87 1.016 . S
C88 N95 1.286 . S
C89 H84 0.930 . S
C89 C90 1.397 . S
C89 C91 1.361 . S
C90 C89 1.397 . S
C90 C94 1.390 . S
C91 C89 1.361 . S
C91 C92 1.393 . S
C91 N95 1.413 . S
C92 H85 0.930 . S
C92 C91 1.393 . S
C92 C93 1.399 . S
C93 C92 1.399 . S
C93 C94 1.381 . S
C94 H86 0.930 . S
C94 C90 1.390 . S
C94 C93 1.381 . S
N95 C88 1.286 . S
N95 C91 1.413 . S
H96 C101 0.930 . S
H97 C104 0.930 . S
H98 C106 0.930 . S
H99 C100 1.016 . S
C100 H99 1.016 . S
C100 N107 1.286 . S
C101 H96 0.930 . S
C101 C102 1.397 . S
C101 C103 1.361 . S
C102 C101 1.397 . S
C102 C106 1.390 . S
C103 C101 1.361 . S
C103 C104 1.393 . S
C103 N107 1.413 . S
C104 H97 0.930 . S
C104 C103 1.393 . S
C104 C105 1.399 . S
C105 C104 1.399 . S
C105 C106 1.381 . S
C106 H98 0.930 . S
C106 C102 1.390 . S
C106 C105 1.381 . S
N107 C100 1.286 . S
N107 C103 1.413 . S
H108 C113 0.930 . S
H109 C116 0.930 . S
H110 C118 0.930 . S
H111 C112 1.016 1_556 S
C112 H111 1.016 1_554 S
C112 N119 1.286 . S
C113 H108 0.930 . S
C113 C114 1.397 1_554 S
C113 C115 1.361 . S
C114 C113 1.397 1_556 S
C114 C118 1.390 . S
C115 C113 1.361 . S
C115 C116 1.393 1_554 S
C115 N119 1.413 . S
C116 H109 0.930 . S
C116 C115 1.393 1_556 S
C116 C117 1.399 . S
C117 C116 1.399 . S
C117 C118 1.381 . S
C118 H110 0.930 . S
C118 C114 1.390 . S
C118 C117 1.381 . S
N119 C112 1.286 . S
N119 C115 1.413 . S
H120 C125 0.930 . S
H121 C128 0.930 . S
H122 C130 0.930 . S
H123 C124 1.016 1_556 S
C124 H123 1.016 1_554 S
C124 N131 1.286 . S
C125 H120 0.930 . S
C125 C126 1.392 1_554 S
C125 C127 1.361 . S
C126 C125 1.392 1_556 S
C126 C130 1.398 . S
C127 C125 1.361 . S
C127 C128 1.393 1_554 S
C127 N131 1.413 . S
C128 H121 0.930 . S
C128 C127 1.393 1_556 S
C128 C129 1.399 . S
C129 C128 1.399 . S
C129 C130 1.381 . S
C130 H122 0.930 . S
C130 C126 1.398 . S
C130 C129 1.381 . S
N131 C124 1.286 . S
N131 C127 1.413 . S
H132 C137 0.930 . S
H133 C140 0.930 . S
H134 C142 0.930 . S
H135 C136 1.016 1_556 S
C136 H135 1.016 1_554 S
C136 N143 1.286 . S
C137 H132 0.930 . S
C137 C138 1.397 1_554 S
C137 C139 1.361 1_554 S
C138 C137 1.397 1_556 S
C138 C142 1.390 . S
C139 C137 1.361 1_556 S
C139 C140 1.393 . S
C139 N143 1.413 1_556 S
C140 H133 0.930 . S
C140 C139 1.393 . S
C140 C141 1.399 . S
C141 C140 1.399 . S
C141 C142 1.381 . S
C142 H134 0.930 . S
C142 C138 1.390 . S
C142 C141 1.381 . S
N143 C136 1.286 . S
N143 C139 1.413 1_554 S
H144 C149 0.930 1_556 S
H145 C152 0.930 . S
H146 C154 0.930 . S
H147 C148 1.016 . S
C148 H147 1.016 . S
C148 N155 1.286 . S
C149 H144 0.930 1_554 S
C149 C150 1.397 . S
C149 C151 1.361 . S
C150 C149 1.397 . S
C150 C154 1.390 . S
C151 C149 1.361 . S
C151 C152 1.393 . S
C151 N155 1.413 . S
C152 H145 0.930 . S
C152 C151 1.393 . S
C152 C153 1.399 . S
C153 C152 1.399 . S
C153 C154 1.381 . S
C154 H146 0.930 . S
C154 C150 1.390 . S
C154 C153 1.381 . S
N155 C148 1.286 . S
N155 C151 1.413 . S
H156 C161 0.930 1_556 S
H157 C164 0.930 . S
H158 C166 0.930 . S
H159 C160 1.016 . S
C160 H159 1.016 . S
C160 N167 1.286 . S
C161 H156 0.930 1_554 S
C161 C162 1.397 . S
C161 C163 1.361 . S
C162 C161 1.397 . S
C162 C166 1.390 . S
C163 C161 1.361 . S
C163 C164 1.393 . S
C163 N167 1.413 . S
C164 H157 0.930 . S
C164 C163 1.393 . S
C164 C165 1.399 . S
C165 C164 1.399 . S
C165 C166 1.381 . S
C166 H158 0.930 . S
C166 C162 1.390 . S
C166 C165 1.381 . S
N167 C160 1.286 . S
N167 C163 1.413 . S
H168 C173 0.930 1_556 S
H169 C176 0.930 . S
H170 C178 0.930 . S
H171 C172 1.016 . S
C172 H171 1.016 . S
C172 N179 1.286 . S
C173 H168 0.930 1_554 S
C173 C174 1.397 . S
C173 C175 1.361 . S
C174 C173 1.397 . S
C174 C178 1.390 . S
C175 C173 1.361 . S
C175 C176 1.393 . S
C175 N179 1.413 . S
C176 H169 0.930 . S
C176 C175 1.393 . S
C176 C177 1.399 . S
C177 C176 1.399 . S
C177 C178 1.381 . S
C178 H170 0.930 . S
C178 C174 1.390 . S
C178 C177 1.381 . S
N179 C172 1.286 . S
N179 C175 1.413 . S
H180 C185 0.930 . S
H181 C188 0.930 . S
H182 C190 0.930 . S
H183 C184 1.016 . S
C184 H183 1.016 . S
C184 N191 1.286 . S
C185 H180 0.930 . S
C185 C186 1.397 . S
C185 C187 1.361 . S
C186 C185 1.397 . S
C186 C190 1.390 . S
C187 C185 1.361 . S
C187 C188 1.393 . S
C187 N191 1.413 . S
C188 H181 0.930 . S
C188 C187 1.393 . S
C188 C189 1.399 . S
C189 C188 1.399 . S
C189 C190 1.381 . S
C190 H182 0.930 . S
C190 C186 1.390 . S
C190 C189 1.381 . S
N191 C184 1.286 . S
N191 C187 1.413 . S
H192 C197 0.930 . S
H193 C200 0.930 . S
H194 C202 0.930 . S
H195 C196 1.016 . S
C196 H195 1.016 . S
C196 N203 1.286 . S
C197 H192 0.930 . S
C197 C198 1.397 . S
C197 C199 1.361 . S
C198 C197 1.397 . S
C198 C202 1.390 . S
C199 C197 1.361 . S
C199 C200 1.393 . S
C199 N203 1.413 . S
C200 H193 0.930 . S
C200 C199 1.393 . S
C200 C201 1.399 . S
C201 C200 1.399 . S
C201 C202 1.381 . S
C202 H194 0.930 . S
C202 C198 1.390 . S
C202 C201 1.381 . S
N203 C196 1.286 . S
N203 C199 1.413 . S
H204 C209 0.930 . S
H205 C212 0.930 . S
H206 C214 0.930 . S
H207 C208 1.016 . S
C208 H207 1.016 . S
C208 N215 1.286 . S
C209 H204 0.930 . S
C209 C210 1.397 . S
C209 C211 1.361 . S
C210 C209 1.397 . S
C210 C214 1.390 . S
C211 C209 1.361 . S
C211 C212 1.393 . S
C211 N215 1.413 . S
C212 H205 0.930 . S
C212 C211 1.393 . S
C212 C213 1.399 . S
C213 C212 1.399 . S
C213 C214 1.381 . S
C214 H206 0.930 . S
C214 C210 1.390 . S
C214 C213 1.381 . S
N215 C208 1.286 . S
N215 C211 1.413 . S
O216 Mn217 2.163 1_565 S
O216 C230 1.244 . S
Mn217 O216 2.163 1_545 S
Mn217 O220 2.160 . S
Mn217 O221 2.221 1_545 S
Mn217 O223 2.163 1_554 S
Mn217 O225 2.160 . S
Mn217 O235 2.221 . S
O218 Mn219 2.087 1_565 S
O218 C230 1.256 . S
Mn219 O218 2.087 1_545 S
Mn219 O226 2.089 1_545 S
Mn219 O235 2.290 . S
Mn219 O236 2.251 . S
O220 Mn217 2.160 . S
O220 C231 1.239 . S
O221 Mn217 2.221 1_565 S
O221 Mn222 2.290 1_564 S
O221 C232 1.278 1_554 S
Mn222 O221 2.290 1_546 S
Mn222 O224 2.089 . S
Mn222 O227 2.251 1_545 S
Mn222 O228 2.087 . S
O223 Mn217 2.163 1_556 S
O223 C233 1.244 . S
O224 Mn222 2.089 . S
O224 C231 1.256 1_556 S
O225 Mn217 2.160 . S
O225 C234 1.239 1_545 S
O226 Mn219 2.089 1_565 S
O226 C234 1.256 . S
O227 Mn222 2.251 1_565 S
O227 C232 1.241 . S
O228 Mn222 2.087 . S
O228 C233 1.256 . S
C229 O235 1.278 . S
C229 O236 1.241 . S
C230 O216 1.244 . S
C230 O218 1.256 . S
C231 O220 1.239 . S
C231 O224 1.256 1_554 S
C232 O221 1.278 1_556 S
C232 O227 1.241 . S
C233 O223 1.244 . S
C233 O228 1.256 . S
C234 O225 1.239 1_565 S
C234 O226 1.256 . S
O235 Mn217 2.221 . S
O235 Mn219 2.290 . S
O235 C229 1.278 . S
O236 Mn219 2.251 . S
O236 C229 1.241 . S
O237 Mn238 2.163 . S
O237 C251 1.244 . S
Mn238 O237 2.163 . S
Mn238 O241 2.160 1_455 S
Mn238 O242 2.221 . S
Mn238 O244 2.163 1_454 S
Mn238 O246 2.160 . S
Mn238 O256 2.221 1_455 S
O239 Mn240 2.087 . S
O239 C251 1.256 . S
Mn240 O239 2.087 . S
Mn240 O247 2.089 . S
Mn240 O256 2.290 1_455 S
Mn240 O257 2.251 1_455 S
O241 Mn238 2.160 1_655 S
O241 C252 1.239 . S
O242 Mn238 2.221 . S
O242 Mn243 2.290 1_554 S
O242 C253 1.278 1_554 S
Mn243 O242 2.290 1_556 S
Mn243 O245 2.089 1_455 S
Mn243 O248 2.251 . S
Mn243 O249 2.087 . S
O244 Mn238 2.163 1_656 S
O244 C254 1.244 . S
O245 Mn243 2.089 1_655 S
O245 C252 1.256 1_556 S
O246 Mn238 2.160 . S
O246 C255 1.239 . S
O247 Mn240 2.089 . S
O247 C255 1.256 . S
O248 Mn243 2.251 . S
O248 C253 1.241 . S
O249 Mn243 2.087 . S
O249 C254 1.256 1_455 S
C250 O256 1.278 . S
C250 O257 1.241 . S
C251 O237 1.244 . S
C251 O239 1.256 . S
C252 O241 1.239 . S
C252 O245 1.256 1_554 S
C253 O242 1.278 1_556 S
C253 O248 1.241 . S
C254 O244 1.244 . S
C254 O249 1.256 1_655 S
C255 O246 1.239 . S
C255 O247 1.256 . S
O256 Mn238 2.221 1_655 S
O256 Mn240 2.290 1_655 S
O256 C250 1.278 . S
O257 Mn240 2.251 1_655 S
O257 C250 1.241 . S
O258 Mn259 2.163 . S
O258 C272 1.244 . S
Mn259 O258 2.163 . S
Mn259 O262 2.160 1_554 S
Mn259 O263 2.221 . S
Mn259 O265 2.163 . S
Mn259 O267 2.160 1_554 S
Mn259 O277 2.221 1_554 S
O260 Mn261 2.087 . S
O260 C272 1.256 1_556 S
Mn261 O260 2.087 . S
Mn261 O268 2.089 . S
Mn261 O277 2.290 . S
Mn261 O278 2.240 1_556 S
O262 Mn259 2.160 1_556 S
O262 C273 1.241 1_556 S
O263 Mn259 2.221 . S
O263 Mn264 2.290 . S
O263 C274 1.278 . S
Mn264 O263 2.290 . S
Mn264 O266 2.089 . S
Mn264 O269 2.251 . S
Mn264 O270 2.087 . S
O265 Mn259 2.163 . S
O265 C275 1.244 . S
O266 Mn264 2.089 . S
O266 C273 1.256 . S
O267 Mn259 2.160 1_556 S
O267 C276 1.239 . S
O268 Mn261 2.089 . S
O268 C276 1.256 . S
O269 Mn264 2.251 . S
O269 C274 1.241 . S
O270 Mn264 2.087 . S
O270 C275 1.256 . S
C271 O277 1.278 1_554 S
C271 O278 1.244 . S
C272 O258 1.244 . S
C272 O260 1.256 1_554 S
C273 O262 1.241 1_554 S
C273 O266 1.256 . S
C274 O263 1.278 . S
C274 O269 1.241 . S
C275 O265 1.244 . S
C275 O270 1.256 . S
C276 O267 1.239 . S
C276 O268 1.256 . S
O277 Mn259 2.221 1_556 S
O277 Mn261 2.290 . S
O277 C271 1.278 1_556 S
O278 Mn261 2.240 1_554 S
O278 C271 1.244 . S
O279 Mn280 2.163 . S
O279 C293 1.244 . S
Mn280 O279 2.163 . S
Mn280 O283 2.160 . S
Mn280 O284 2.221 . S
Mn280 O286 2.163 . S
Mn280 O288 2.160 . S
Mn280 O298 2.221 . S
O281 Mn282 2.087 . S
O281 C293 1.256 . S
Mn282 O281 2.087 . S
Mn282 O289 2.089 . S
Mn282 O298 2.290 . S
Mn282 O299 2.251 . S
O283 Mn280 2.160 . S
O283 C294 1.239 . S
O284 Mn280 2.221 . S
O284 Mn285 2.290 . S
O284 C295 1.278 . S
Mn285 O284 2.290 . S
Mn285 O287 2.089 . S
Mn285 O290 2.251 . S
Mn285 O291 2.087 . S
O286 Mn280 2.163 . S
O286 C296 1.244 . S
O287 Mn285 2.089 . S
O287 C294 1.256 . S
O288 Mn280 2.160 . S
O288 C297 1.239 . S
O289 Mn282 2.089 . S
O289 C297 1.256 . S
O290 Mn285 2.251 . S
O290 C295 1.241 . S
O291 Mn285 2.087 . S
O291 C296 1.256 . S
C292 O298 1.278 . S
C292 O299 1.241 . S
C293 O279 1.244 . S
C293 O281 1.256 . S
C294 O283 1.239 . S
C294 O287 1.256 . S
C295 O284 1.278 . S
C295 O290 1.241 . S
C296 O286 1.244 . S
C296 O291 1.256 . S
C297 O288 1.239 . S
C297 O289 1.256 . S
O298 Mn280 2.221 . S
O298 Mn282 2.290 . S
O298 C292 1.278 . S
O299 Mn282 2.251 . S
O299 C292 1.241 . S
O300 Mn301 2.163 . S
O300 C314 1.244 . S
Mn301 O300 2.163 . S
Mn301 O304 2.160 . S
Mn301 O305 2.221 . S
Mn301 O307 2.163 . S
Mn301 O309 2.160 . S
Mn301 O319 2.221 . S
O302 Mn303 2.087 . S
O302 C314 1.256 . S
Mn303 O302 2.087 . S
Mn303 O310 2.089 . S
Mn303 O319 2.290 . S
Mn303 O320 2.251 . S
O304 Mn301 2.160 . S
O304 C315 1.239 . S
O305 Mn301 2.221 . S
O305 Mn306 2.290 . S
O305 C316 1.278 . S
Mn306 O305 2.290 . S
Mn306 O308 2.089 . S
Mn306 O311 2.251 . S
Mn306 O312 2.087 . S
O307 Mn301 2.163 . S
O307 C317 1.244 . S
O308 Mn306 2.089 . S
O308 C315 1.256 . S
O309 Mn301 2.160 . S
O309 C318 1.239 . S
O310 Mn303 2.089 . S
O310 C318 1.256 . S
O311 Mn306 2.251 . S
O311 C316 1.241 . S
O312 Mn306 2.087 . S
O312 C317 1.256 . S
C313 O319 1.278 . S
C313 O320 1.241 . S
C314 O300 1.244 . S
C314 O302 1.256 . S
C315 O304 1.239 . S
C315 O308 1.256 . S
C316 O305 1.278 . S
C316 O311 1.241 . S
C317 O307 1.244 . S
C317 O312 1.256 . S
C318 O309 1.239 . S
C318 O310 1.256 . S
O319 Mn301 2.221 . S
O319 Mn303 2.290 . S
O319 C313 1.278 . S
O320 Mn303 2.251 . S
O320 C313 1.241 . S
O321 Mn322 2.163 . S
O321 C335 1.244 . S
Mn322 O321 2.163 . S
Mn322 O325 2.160 . S
Mn322 O326 2.221 . S
Mn322 O328 2.163 . S
Mn322 O330 2.160 . S
Mn322 O340 2.221 . S
O323 Mn324 2.087 . S
O323 C335 1.256 . S
Mn324 O323 2.087 . S
Mn324 O331 2.089 . S
Mn324 O340 2.290 . S
Mn324 O341 2.251 . S
O325 Mn322 2.160 . S
O325 C336 1.239 . S
O326 Mn322 2.221 . S
O326 Mn327 2.290 . S
O326 C337 1.278 . S
Mn327 O326 2.290 . S
Mn327 O329 2.089 . S
Mn327 O332 2.251 . S
Mn327 O333 2.087 . S
O328 Mn322 2.163 . S
O328 C338 1.244 . S
O329 Mn327 2.089 . S
O329 C336 1.256 . S
O330 Mn322 2.160 . S
O330 C339 1.239 . S
O331 Mn324 2.089 . S
O331 C339 1.256 . S
O332 Mn327 2.251 . S
O332 C337 1.241 . S
O333 Mn327 2.087 . S
O333 C338 1.256 . S
C334 O340 1.278 . S
C334 O341 1.241 . S
C335 O321 1.244 . S
C335 O323 1.256 . S
C336 O325 1.239 . S
C336 O329 1.256 . S
C337 O326 1.278 . S
C337 O332 1.241 . S
C338 O328 1.244 . S
C338 O333 1.256 . S
C339 O330 1.239 . S
C339 O331 1.256 . S
O340 Mn322 2.221 . S
O340 Mn324 2.290 . S
O340 C334 1.278 . S
O341 Mn324 2.251 . S
O341 C334 1.241 . S
O342 Mn343 2.163 . S
O342 C356 1.244 . S
Mn343 O342 2.163 . S
Mn343 O346 2.160 . S
Mn343 O347 2.221 . S
Mn343 O349 2.163 . S
Mn343 O351 2.160 . S
Mn343 O361 2.221 . S
O344 Mn345 2.087 . S
O344 C356 1.256 . S
Mn345 O344 2.087 . S
Mn345 O352 2.089 . S
Mn345 O361 2.290 . S
Mn345 O362 2.251 . S
O346 Mn343 2.160 . S
O346 C357 1.239 . S
O347 Mn343 2.221 . S
O347 Mn348 2.290 . S
O347 C358 1.278 . S
Mn348 O347 2.290 . S
Mn348 O350 2.089 . S
Mn348 O353 2.251 . S
Mn348 O354 2.087 . S
O349 Mn343 2.163 . S
O349 C359 1.244 . S
O350 Mn348 2.089 . S
O350 C357 1.256 . S
O351 Mn343 2.160 . S
O351 C360 1.239 . S
O352 Mn345 2.089 . S
O352 C360 1.256 . S
O353 Mn348 2.251 . S
O353 C358 1.241 . S
O354 Mn348 2.087 . S
O354 C359 1.256 . S
C355 O361 1.278 . S
C355 O362 1.241 . S
C356 O342 1.244 . S
C356 O344 1.256 . S
C357 O346 1.239 . S
C357 O350 1.256 . S
C358 O347 1.278 . S
C358 O353 1.241 . S
C359 O349 1.244 . S
C359 O354 1.256 . S
C360 O351 1.239 . S
C360 O352 1.256 . S
O361 Mn343 2.221 . S
O361 Mn345 2.290 . S
O361 C355 1.278 . S
O362 Mn345 2.251 . S
O362 C355 1.241 . S
O363 Mn364 2.163 . S
O363 C377 1.244 . S
Mn364 O363 2.163 . S
Mn364 O367 2.160 . S
Mn364 O368 2.221 . S
Mn364 O370 2.163 . S
Mn364 O372 2.160 . S
Mn364 O382 2.221 . S
O365 Mn366 2.087 . S
O365 C377 1.256 . S
Mn366 O365 2.087 . S
Mn366 O373 2.089 . S
Mn366 O382 2.290 . S
Mn366 O383 2.251 . S
O367 Mn364 2.160 . S
O367 C378 1.239 . S
O368 Mn364 2.221 . S
O368 Mn369 2.290 . S
O368 C379 1.278 . S
Mn369 O368 2.290 . S
Mn369 O371 2.089 . S
Mn369 O374 2.251 . S
Mn369 O375 2.087 . S
O370 Mn364 2.163 . S
O370 C380 1.244 . S
O371 Mn369 2.089 . S
O371 C378 1.256 . S
O372 Mn364 2.160 . S
O372 C381 1.239 . S
O373 Mn366 2.089 . S
O373 C381 1.256 . S
O374 Mn369 2.251 . S
O374 C379 1.241 . S
O375 Mn369 2.087 . S
O375 C380 1.256 . S
C376 O382 1.278 . S
C376 O383 1.241 . S
C377 O363 1.244 . S
C377 O365 1.256 . S
C378 O367 1.239 . S
C378 O371 1.256 . S
C379 O368 1.278 . S
C379 O374 1.241 . S
C380 O370 1.244 . S
C380 O375 1.256 . S
C381 O372 1.239 . S
C381 O373 1.256 . S
O382 Mn364 2.221 . S
O382 Mn366 2.290 . S
O382 C376 1.278 . S
O383 Mn366 2.251 . S
O383 C376 1.241 . S
O384 Mn385 2.163 . S
O384 C398 1.244 . S
Mn385 O384 2.163 . S
Mn385 O388 2.160 . S
Mn385 O389 2.221 . S
Mn385 O391 2.163 . S
Mn385 O393 2.160 . S
Mn385 O403 2.221 . S
O386 Mn387 2.087 . S
O386 C398 1.256 . S
Mn387 O386 2.087 . S
Mn387 O394 2.089 . S
Mn387 O403 2.290 . S
Mn387 O404 2.251 . S
O388 Mn385 2.160 . S
O388 C399 1.239 . S
O389 Mn385 2.221 . S
O389 Mn390 2.290 . S
O389 C400 1.278 . S
Mn390 O389 2.290 . S
Mn390 O392 2.089 . S
Mn390 O395 2.251 . S
Mn390 O396 2.087 . S
O391 Mn385 2.163 . S
O391 C401 1.244 . S
O392 Mn390 2.089 . S
O392 C399 1.256 . S
O393 Mn385 2.160 . S
O393 C402 1.239 . S
O394 Mn387 2.089 . S
O394 C402 1.256 . S
O395 Mn390 2.251 . S
O395 C400 1.241 . S
O396 Mn390 2.087 . S
O396 C401 1.256 . S
C397 O403 1.278 . S
C397 O404 1.241 . S
C398 O384 1.244 . S
C398 O386 1.256 . S
C399 O388 1.239 . S
C399 O392 1.256 . S
C400 O389 1.278 . S
C400 O395 1.241 . S
C401 O391 1.244 . S
C401 O396 1.256 . S
C402 O393 1.239 . S
C402 O394 1.256 . S
O403 Mn385 2.221 . S
O403 Mn387 2.290 . S
O403 C397 1.278 . S
O404 Mn387 2.251 . S
O404 C397 1.241 . S
H405 C413 0.950 . S
H406 C418 0.950 . S
H407 C415 0.950 . S
H408 C417 0.950 . S
H409 C419 0.950 . S
H410 C421 0.950 . S
H411 C423 0.950 . S
H412 C424 0.950 . S
C413 H405 0.950 . S
C413 C414 1.386 1_556 S
C413 C415 1.391 . S
C414 C413 1.386 1_554 S
C414 C418 1.393 . S
C415 H407 0.950 . S
C415 C413 1.391 . S
C415 C416 1.400 1_556 S
C416 C415 1.400 1_554 S
C416 C417 1.398 . S
C416 C422 1.491 . S
C417 H408 0.950 . S
C417 C416 1.398 . S
C417 C418 1.391 . S
C418 H406 0.950 . S
C418 C414 1.393 . S
C418 C417 1.391 . S
C419 H409 0.950 . S
C419 C420 1.386 . S
C419 C421 1.391 . S
C420 C419 1.386 . S
C420 C424 1.393 1_554 S
C421 H410 0.950 . S
C421 C419 1.391 . S
C421 C422 1.400 . S
C422 C416 1.491 . S
C422 C421 1.400 . S
C422 C423 1.398 1_554 S
C423 H411 0.950 . S
C423 C422 1.398 1_556 S
C423 C424 1.391 . S
C424 H412 0.950 . S
C424 C420 1.393 1_556 S
C424 C423 1.391 . S
H425 C433 0.950 1_556 S
H426 C438 0.950 . S
H427 C435 0.950 1_556 S
H428 C437 0.950 . S
H429 C439 0.950 . S
H430 C441 0.950 . S
H431 C443 0.942 1_556 S
H432 C444 0.950 . S
C433 H425 0.950 1_554 S
C433 C434 1.386 . S
C433 C435 1.391 . S
C434 C433 1.386 . S
C434 C438 1.393 . S
C435 H427 0.950 1_554 S
C435 C433 1.391 . S
C435 C436 1.400 . S
C436 C435 1.400 . S
C436 C437 1.398 . S
C436 C442 1.491 . S
C437 H428 0.950 . S
C437 C436 1.398 . S
C437 C438 1.391 . S
C438 H426 0.950 . S
C438 C434 1.393 . S
C438 C437 1.391 . S
C439 H429 0.950 . S
C439 C440 1.386 . S
C439 C441 1.391 . S
C440 C439 1.386 . S
C440 C444 1.393 1_554 S
C441 H430 0.950 . S
C441 C439 1.391 . S
C441 C442 1.400 . S
C442 C436 1.491 . S
C442 C441 1.400 . S
C442 C443 1.407 . S
C443 H431 0.942 1_554 S
C443 C442 1.407 . S
C443 C444 1.390 1_554 S
C444 H432 0.950 . S
C444 C440 1.393 1_556 S
C444 C443 1.390 1_556 S
H445 C453 0.950 . S
H446 C458 0.950 . S
H447 C455 0.950 . S
H448 C457 0.950 . S
H449 C459 0.950 . S
H450 C461 0.950 . S
H451 C463 0.950 . S
H452 C464 0.950 . S
C453 H445 0.950 . S
C453 C454 1.386 . S
C453 C455 1.391 . S
C454 C453 1.386 . S
C454 C458 1.393 . S
C455 H447 0.950 . S
C455 C453 1.391 . S
C455 C456 1.400 . S
C456 C455 1.400 . S
C456 C457 1.398 . S
C456 C462 1.491 . S
C457 H448 0.950 . S
C457 C456 1.398 . S
C457 C458 1.391 . S
C458 H446 0.950 . S
C458 C454 1.393 . S
C458 C457 1.391 . S
C459 H449 0.950 . S
C459 C460 1.386 . S
C459 C461 1.391 . S
C460 C459 1.386 . S
C460 C464 1.393 . S
C461 H450 0.950 . S
C461 C459 1.391 . S
C461 C462 1.400 . S
C462 C456 1.491 . S
C462 C461 1.400 . S
C462 C463 1.398 . S
C463 H451 0.950 . S
C463 C462 1.398 . S
C463 C464 1.391 . S
C464 H452 0.950 . S
C464 C460 1.393 . S
C464 C463 1.391 . S
H465 C473 0.950 . S
H466 C478 0.950 . S
H467 C475 0.950 . S
H468 C477 0.950 . S
H469 C479 0.950 . S
H470 C481 0.950 . S
H471 C483 0.947 1_556 S
H472 C484 0.949 . S
C473 H465 0.950 . S
C473 C474 1.390 . S
C473 C475 1.391 . S
C474 C473 1.390 . S
C474 C478 1.389 1_556 S
C475 H467 0.950 . S
C475 C473 1.391 . S
C475 C476 1.400 1_556 S
C476 C475 1.400 1_554 S
C476 C477 1.398 . S
C476 C482 1.491 . S
C477 H468 0.950 . S
C477 C476 1.398 . S
C477 C478 1.391 . S
C478 H466 0.950 . S
C478 C474 1.389 1_554 S
C478 C477 1.391 . S
C479 H469 0.950 . S
C479 C480 1.386 . S
C479 C481 1.391 . S
C480 C479 1.386 . S
C480 C484 1.393 . S
C481 H470 0.950 . S
C481 C479 1.391 . S
C481 C482 1.400 . S
C482 C476 1.491 . S
C482 C481 1.400 . S
C482 C483 1.398 . S
C483 H471 0.947 1_554 S
C483 C482 1.398 . S
C483 C484 1.391 . S
C484 H472 0.949 . S
C484 C480 1.393 . S
C484 C483 1.391 . S
H485 C493 0.950 . S
H486 C498 0.950 . S
H487 C495 0.950 . S
H488 C497 0.950 . S
H489 C499 0.950 . S
H490 C501 0.950 . S
H491 C503 0.950 . S
H492 C504 0.950 . S
C493 H485 0.950 . S
C493 C494 1.386 1_556 S
C493 C495 1.391 . S
C494 C493 1.386 1_554 S
C494 C498 1.393 . S
C495 H487 0.950 . S
C495 C493 1.391 . S
C495 C496 1.400 1_556 S
C496 C495 1.400 1_554 S
C496 C497 1.398 . S
C496 C502 1.491 . S
C497 H488 0.950 . S
C497 C496 1.398 . S
C497 C498 1.391 . S
C498 H486 0.950 . S
C498 C494 1.393 . S
C498 C497 1.391 . S
C499 H489 0.950 . S
C499 C500 1.386 . S
C499 C501 1.391 . S
C500 C499 1.386 . S
C500 C504 1.393 1_554 S
C501 H490 0.950 . S
C501 C499 1.391 . S
C501 C502 1.400 . S
C502 C496 1.491 . S
C502 C501 1.400 . S
C502 C503 1.398 1_554 S
C503 H491 0.950 . S
C503 C502 1.398 1_556 S
C503 C504 1.391 . S
C504 H492 0.950 . S
C504 C500 1.393 1_556 S
C504 C503 1.391 . S
H505 C513 0.950 . S
H506 C518 0.950 . S
H507 C515 0.950 . S
H508 C517 0.950 . S
H509 C519 0.950 . S
H510 C521 0.950 . S
H511 C523 0.950 . S
H512 C524 0.950 . S
C513 H505 0.950 . S
C513 C514 1.386 1_556 S
C513 C515 1.391 . S
C514 C513 1.386 1_554 S
C514 C518 1.393 . S
C515 H507 0.950 . S
C515 C513 1.391 . S
C515 C516 1.400 1_556 S
C516 C515 1.400 1_554 S
C516 C517 1.398 . S
C516 C522 1.491 . S
C517 H508 0.950 . S
C517 C516 1.398 . S
C517 C518 1.391 . S
C518 H506 0.950 . S
C518 C514 1.393 . S
C518 C517 1.391 . S
C519 H509 0.950 . S
C519 C520 1.386 . S
C519 C521 1.391 . S
C520 C519 1.386 . S
C520 C524 1.393 1_554 S
C521 H510 0.950 . S
C521 C519 1.391 . S
C521 C522 1.400 . S
C522 C516 1.491 . S
C522 C521 1.400 . S
C522 C523 1.398 1_554 S
C523 H511 0.950 . S
C523 C522 1.398 1_556 S
C523 C524 1.391 . S
C524 H512 0.950 . S
C524 C520 1.393 1_556 S
C524 C523 1.391 . S
H525 C533 0.950 . S
H526 C538 0.950 . S
H527 C535 0.950 . S
H528 C537 0.950 . S
H529 C539 0.950 . S
H530 C541 0.950 . S
H531 C543 0.950 1_556 S
H532 C544 0.950 1_556 S
C533 H525 0.950 . S
C533 C534 1.386 1_556 S
C533 C535 1.391 . S
C534 C533 1.386 1_554 S
C534 C538 1.393 . S
C535 H527 0.950 . S
C535 C533 1.391 . S
C535 C536 1.400 1_556 S
C536 C535 1.400 1_554 S
C536 C537 1.398 . S
C536 C542 1.491 . S
C537 H528 0.950 . S
C537 C536 1.398 . S
C537 C538 1.391 . S
C538 H526 0.950 . S
C538 C534 1.393 . S
C538 C537 1.391 . S
C539 H529 0.950 . S
C539 C540 1.386 . S
C539 C541 1.391 . S
C540 C539 1.386 . S
C540 C544 1.393 . S
C541 H530 0.950 . S
C541 C539 1.391 . S
C541 C542 1.400 . S
C542 C536 1.491 . S
C542 C541 1.400 . S
C542 C543 1.398 . S
C543 H531 0.950 1_554 S
C543 C542 1.398 . S
C543 C544 1.391 . S
C544 H532 0.950 1_554 S
C544 C540 1.393 . S
C544 C543 1.391 . S
H545 C553 0.950 . S
H546 C558 0.950 . S
H547 C555 0.950 . S
H548 C557 0.950 . S
H549 C559 0.950 . S
H550 C561 0.950 . S
H551 C563 0.950 . S
H552 C564 0.950 . S
C553 H545 0.950 . S
C553 C554 1.386 . S
C553 C555 1.391 . S
C554 C553 1.386 . S
C554 C558 1.393 . S
C555 H547 0.950 . S
C555 C553 1.391 . S
C555 C556 1.400 . S
C556 C555 1.400 . S
C556 C557 1.398 . S
C556 C562 1.491 . S
C557 H548 0.950 . S
C557 C556 1.398 . S
C557 C558 1.391 . S
C558 H546 0.950 . S
C558 C554 1.393 . S
C558 C557 1.391 . S
C559 H549 0.950 . S
C559 C560 1.386 . S
C559 C561 1.391 . S
C560 C559 1.386 . S
C560 C564 1.393 . S
C561 H550 0.950 . S
C561 C559 1.391 . S
C561 C562 1.400 . S
C562 C556 1.491 . S
C562 C561 1.400 . S
C562 C563 1.398 . S
C563 H551 0.950 . S
C563 C562 1.398 . S
C563 C564 1.391 . S
C564 H552 0.950 . S
C564 C560 1.393 . S
C564 C563 1.391 . S
H565 C573 0.950 . S
H566 C578 0.950 . S
H567 C575 0.950 . S
H568 C577 0.950 . S
H569 C579 0.950 1_556 S
H570 C581 0.950 1_556 S
H571 C583 0.950 . S
H572 C584 0.950 . S
C573 H565 0.950 . S
C573 C574 1.386 . S
C573 C575 1.391 . S
C574 C573 1.386 . S
C574 C578 1.393 . S
C575 H567 0.950 . S
C575 C573 1.391 . S
C575 C576 1.400 . S
C576 C575 1.400 . S
C576 C577 1.398 . S
C576 C582 1.491 . S
C577 H568 0.950 . S
C577 C576 1.398 . S
C577 C578 1.391 . S
C578 H566 0.950 . S
C578 C574 1.393 . S
C578 C577 1.391 . S
C579 H569 0.950 1_554 S
C579 C580 1.386 . S
C579 C581 1.391 . S
C580 C579 1.386 . S
C580 C584 1.393 . S
C581 H570 0.950 1_554 S
C581 C579 1.391 . S
C581 C582 1.400 . S
C582 C576 1.491 . S
C582 C581 1.400 . S
C582 C583 1.398 . S
C583 H571 0.950 . S
C583 C582 1.398 . S
C583 C584 1.391 . S
C584 H572 0.950 . S
C584 C580 1.393 . S
C584 C583 1.391 . S
H585 C593 0.950 . S
H586 C598 0.950 . S
H587 C595 0.950 . S
H588 C597 0.950 . S
H589 C599 0.950 . S
H590 C601 0.950 . S
H591 C603 0.950 . S
H592 C604 0.950 . S
C593 H585 0.950 . S
C593 C594 1.386 . S
C593 C595 1.391 . S
C594 C593 1.386 . S
C594 C598 1.393 1_554 S
C595 H587 0.950 . S
C595 C593 1.391 . S
C595 C596 1.400 . S
C596 C595 1.400 . S
C596 C597 1.398 1_554 S
C596 C602 1.491 . S
C597 H588 0.950 . S
C597 C596 1.398 1_556 S
C597 C598 1.391 . S
C598 H586 0.950 . S
C598 C594 1.393 1_556 S
C598 C597 1.391 . S
C599 H589 0.950 . S
C599 C600 1.386 1_556 S
C599 C601 1.391 . S
C600 C599 1.386 1_554 S
C600 C604 1.393 . S
C601 H590 0.950 . S
C601 C599 1.391 . S
C601 C602 1.400 1_556 S
C602 C596 1.491 . S
C602 C601 1.400 1_554 S
C602 C603 1.398 . S
C603 H591 0.950 . S
C603 C602 1.398 . S
C603 C604 1.391 . S
C604 H592 0.950 . S
C604 C600 1.393 . S
C604 C603 1.391 . S
H605 C613 0.950 1_556 S
H606 C618 0.950 . S
H607 C615 0.950 1_556 S
H608 C617 0.950 . S
H609 C619 0.950 . S
H610 C621 0.950 . S
H611 C623 0.950 . S
H612 C624 0.950 . S
C613 H605 0.950 1_554 S
C613 C614 1.386 . S
C613 C615 1.391 . S
C614 C613 1.386 . S
C614 C618 1.393 . S
C615 H607 0.950 1_554 S
C615 C613 1.391 . S
C615 C616 1.400 . S
C616 C615 1.400 . S
C616 C617 1.398 . S
C616 C622 1.491 . S
C617 H608 0.950 . S
C617 C616 1.398 . S
C617 C618 1.391 . S
C618 H606 0.950 . S
C618 C614 1.393 . S
C618 C617 1.391 . S
C619 H609 0.950 . S
C619 C620 1.386 . S
C619 C621 1.391 . S
C620 C619 1.386 . S
C620 C624 1.393 1_554 S
C621 H610 0.950 . S
C621 C619 1.391 . S
C621 C622 1.400 . S
C622 C616 1.491 . S
C622 C621 1.400 . S
C622 C623 1.398 1_554 S
C623 H611 0.950 . S
C623 C622 1.398 1_556 S
C623 C624 1.391 . S
C624 H612 0.950 . S
C624 C620 1.393 1_556 S
C624 C623 1.391 . S
H625 C633 0.950 . S
H626 C638 0.950 . S
H627 C635 0.950 . S
H628 C637 0.950 . S
H629 C639 0.950 . S
H630 C641 0.950 . S
H631 C643 0.950 . S
H632 C644 0.950 . S
C633 H625 0.950 . S
C633 C634 1.386 . S
C633 C635 1.391 . S
C634 C633 1.386 . S
C634 C638 1.393 . S
C635 H627 0.950 . S
C635 C633 1.391 . S
C635 C636 1.400 . S
C636 C635 1.400 . S
C636 C637 1.398 . S
C636 C642 1.491 . S
C637 H628 0.950 . S
C637 C636 1.398 . S
C637 C638 1.391 . S
C638 H626 0.950 . S
C638 C634 1.393 . S
C638 C637 1.391 . S
C639 H629 0.950 . S
C639 C640 1.386 . S
C639 C641 1.391 . S
C640 C639 1.386 . S
C640 C644 1.393 . S
C641 H630 0.950 . S
C641 C639 1.391 . S
C641 C642 1.400 . S
C642 C636 1.491 . S
C642 C641 1.400 . S
C642 C643 1.398 . S
C643 H631 0.950 . S
C643 C642 1.398 . S
C643 C644 1.391 . S
C644 H632 0.950 . S
C644 C640 1.393 . S
C644 C643 1.391 . S
H645 C653 0.950 . S
H646 C658 0.950 . S
H647 C655 0.950 . S
H648 C657 0.959 . S
H649 C659 0.950 . S
H650 C661 0.950 . S
H651 C663 0.950 . S
H652 C664 0.950 . S
C653 H645 0.950 . S
C653 C654 1.386 . S
C653 C655 1.391 . S
C654 C653 1.386 . S
C654 C658 1.393 . S
C655 H647 0.950 . S
C655 C653 1.391 . S
C655 C656 1.400 . S
C656 C655 1.400 . S
C656 C657 1.398 . S
C656 C662 1.491 1_655 S
C657 H648 0.959 . S
C657 C656 1.398 . S
C657 C658 1.391 . S
C658 H646 0.950 . S
C658 C654 1.393 . S
C658 C657 1.391 . S
C659 H649 0.950 . S
C659 C660 1.386 . S
C659 C661 1.391 . S
C660 C659 1.386 . S
C660 C664 1.393 . S
C661 H650 0.950 . S
C661 C659 1.391 . S
C661 C662 1.400 . S
C662 C656 1.491 1_455 S
C662 C661 1.400 . S
C662 C663 1.398 . S
C663 H651 0.950 . S
C663 C662 1.398 . S
C663 C664 1.391 . S
C664 H652 0.950 . S
C664 C660 1.393 . S
C664 C663 1.391 . S
H665 C673 0.950 . S
H666 C678 0.950 . S
H667 C675 0.950 . S
H668 C677 0.950 . S
H669 C679 0.950 . S
H670 C681 0.950 . S
H671 C683 0.950 . S
H672 C684 0.950 . S
C673 H665 0.950 . S
C673 C674 1.386 . S
C673 C675 1.391 . S
C674 C673 1.386 . S
C674 C678 1.393 . S
C675 H667 0.950 . S
C675 C673 1.391 . S
C675 C676 1.400 . S
C676 C675 1.400 . S
C676 C677 1.398 . S
C676 C682 1.491 . S
C677 H668 0.950 . S
C677 C676 1.398 . S
C677 C678 1.391 . S
C678 H666 0.950 . S
C678 C674 1.393 . S
C678 C677 1.391 . S
C679 H669 0.950 . S
C679 C680 1.386 . S
C679 C681 1.391 . S
C680 C679 1.386 . S
C680 C684 1.393 . S
C681 H670 0.950 . S
C681 C679 1.391 . S
C681 C682 1.400 . S
C682 C676 1.491 . S
C682 C681 1.400 . S
C682 C683 1.398 . S
C683 H671 0.950 . S
C683 C682 1.398 . S
C683 C684 1.391 . S
C684 H672 0.950 . S
C684 C680 1.393 . S
C684 C683 1.391 . S
H685 C693 0.950 . S
H686 C698 0.950 . S
H687 C695 0.950 . S
H688 C697 0.950 . S
H689 C699 0.950 . S
H690 C701 0.950 1_545 S
H691 C703 0.950 . S
H692 C704 0.950 . S
C693 H685 0.950 . S
C693 C694 1.386 . S
C693 C695 1.391 . S
C694 C693 1.386 . S
C694 C698 1.393 . S
C695 H687 0.950 . S
C695 C693 1.391 . S
C695 C696 1.400 . S
C696 C695 1.400 . S
C696 C697 1.398 . S
C696 C702 1.491 1_545 S
C697 H688 0.950 . S
C697 C696 1.398 . S
C697 C698 1.391 . S
C698 H686 0.950 . S
C698 C694 1.393 . S
C698 C697 1.391 . S
C699 H689 0.950 . S
C699 C700 1.386 . S
C699 C701 1.391 . S
C700 C699 1.386 . S
C700 C704 1.393 . S
C701 H690 0.950 1_565 S
C701 C699 1.391 . S
C701 C702 1.400 . S
C702 C696 1.491 1_565 S
C702 C701 1.400 . S
C702 C703 1.398 . S
C703 H691 0.950 . S
C703 C702 1.398 . S
C703 C704 1.391 . S
C704 H692 0.950 . S
C704 C700 1.393 . S
C704 C703 1.391 . S
H705 C713 0.950 . S
H706 C718 0.950 . S
H707 C715 0.950 . S
H708 C717 0.950 . S
H709 C719 0.950 . S
H710 C721 0.950 . S
H711 C723 0.950 . S
H712 C724 0.950 . S
C713 H705 0.950 . S
C713 C714 1.386 . S
C713 C715 1.391 . S
C714 C713 1.386 . S
C714 C718 1.393 . S
C715 H707 0.950 . S
C715 C713 1.391 . S
C715 C716 1.400 . S
C716 C715 1.400 . S
C716 C717 1.398 . S
C716 C722 1.491 . S
C717 H708 0.950 . S
C717 C716 1.398 . S
C717 C718 1.391 . S
C718 H706 0.950 . S
C718 C714 1.393 . S
C718 C717 1.391 . S
C719 H709 0.950 . S
C719 C720 1.386 . S
C719 C721 1.391 . S
C720 C719 1.386 . S
C720 C724 1.393 . S
C721 H710 0.950 . S
C721 C719 1.391 . S
C721 C722 1.400 . S
C722 C716 1.491 . S
C722 C721 1.400 . S
C722 C723 1.398 . S
C723 H711 0.950 . S
C723 C722 1.398 . S
C723 C724 1.391 . S
C724 H712 0.950 . S
C724 C720 1.393 . S
C724 C723 1.391 . S
H725 C733 0.950 . S
H726 C738 0.950 . S
H727 C735 0.950 . S
H728 C737 0.950 . S
H729 C739 0.950 . S
H730 C741 0.950 . S
H731 C743 0.950 . S
H732 C744 0.950 . S
C733 H725 0.950 . S
C733 C734 1.386 . S
C733 C735 1.391 . S
C734 C733 1.386 . S
C734 C738 1.393 . S
C735 H727 0.950 . S
C735 C733 1.391 . S
C735 C736 1.400 . S
C736 C735 1.400 . S
C736 C737 1.398 . S
C736 C742 1.491 . S
C737 H728 0.950 . S
C737 C736 1.398 . S
C737 C738 1.391 . S
C738 H726 0.950 . S
C738 C734 1.393 . S
C738 C737 1.391 . S
C739 H729 0.950 . S
C739 C740 1.386 . S
C739 C741 1.391 . S
C740 C739 1.386 . S
C740 C744 1.393 . S
C741 H730 0.950 . S
C741 C739 1.391 . S
C741 C742 1.400 . S
C742 C736 1.491 . S
C742 C741 1.400 . S
C742 C743 1.398 . S
C743 H731 0.950 . S
C743 C742 1.398 . S
C743 C744 1.391 . S
C744 H732 0.950 . S
C744 C740 1.393 . S
C744 C743 1.391 . S
H745 C753 0.950 . S
H746 C758 0.950 . S
H747 C755 0.950 . S
H748 C757 0.950 . S
H749 C759 0.950 . S
H750 C761 0.950 . S
H751 C763 0.950 . S
H752 C764 0.950 . S
C753 H745 0.950 . S
C753 C754 1.386 . S
C753 C755 1.391 . S
C754 C753 1.386 . S
C754 C758 1.393 . S
C755 H747 0.950 . S
C755 C753 1.391 . S
C755 C756 1.400 . S
C756 C755 1.400 . S
C756 C757 1.398 . S
C756 C762 1.491 . S
C757 H748 0.950 . S
C757 C756 1.398 . S
C757 C758 1.391 . S
C758 H746 0.950 . S
C758 C754 1.393 . S
C758 C757 1.391 . S
C759 H749 0.950 . S
C759 C760 1.386 . S
C759 C761 1.391 . S
C760 C759 1.386 . S
C760 C764 1.393 . S
C761 H750 0.950 . S
C761 C759 1.391 . S
C761 C762 1.400 . S
C762 C756 1.491 . S
C762 C761 1.400 . S
C762 C763 1.398 . S
C763 H751 0.950 . S
C763 C762 1.398 . S
C763 C764 1.391 . S
C764 H752 0.950 . S
C764 C760 1.393 . S
C764 C763 1.391 . S
H765 C773 0.950 . S
H766 C778 0.950 . S
H767 C775 0.950 . S
H768 C777 0.950 . S
H769 C779 0.950 . S
H770 C781 0.950 . S
H771 C783 0.950 . S
H772 C784 0.950 . S
C773 H765 0.950 . S
C773 C774 1.386 . S
C773 C775 1.391 . S
C774 C773 1.386 . S
C774 C778 1.393 . S
C775 H767 0.950 . S
C775 C773 1.391 . S
C775 C776 1.400 . S
C776 C775 1.400 . S
C776 C777 1.398 . S
C776 C782 1.491 . S
C777 H768 0.950 . S
C777 C776 1.398 . S
C777 C778 1.391 . S
C778 H766 0.950 . S
C778 C774 1.393 . S
C778 C777 1.391 . S
C779 H769 0.950 . S
C779 C780 1.386 . S
C779 C781 1.391 . S
C780 C779 1.386 . S
C780 C784 1.393 . S
C781 H770 0.950 . S
C781 C779 1.391 . S
C781 C782 1.400 . S
C782 C776 1.491 . S
C782 C781 1.400 . S
C782 C783 1.398 . S
C783 H771 0.950 . S
C783 C782 1.398 . S
C783 C784 1.391 . S
C784 H772 0.950 . S
C784 C780 1.393 . S
C784 C783 1.391 . S
H785 C793 0.950 . S
H786 C798 0.950 . S
H787 C795 0.950 . S
H788 C797 0.950 . S
H789 C799 0.950 . S
H790 C801 0.950 . S
H791 C803 0.950 . S
H792 C804 0.950 . S
C793 H785 0.950 . S
C793 C794 1.386 . S
C793 C795 1.391 . S
C794 C793 1.386 . S
C794 C798 1.393 . S
C795 H787 0.950 . S
C795 C793 1.391 . S
C795 C796 1.400 . S
C796 C795 1.400 . S
C796 C797 1.398 . S
C796 C802 1.491 . S
C797 H788 0.950 . S
C797 C796 1.398 . S
C797 C798 1.391 . S
C798 H786 0.950 . S
C798 C794 1.393 . S
C798 C797 1.391 . S
C799 H789 0.950 . S
C799 C800 1.386 . S
C799 C801 1.391 . S
C800 C799 1.386 . S
C800 C804 1.393 . S
C801 H790 0.950 . S
C801 C799 1.391 . S
C801 C802 1.400 . S
C802 C796 1.491 . S
C802 C801 1.400 . S
C802 C803 1.398 . S
C803 H791 0.950 . S
C803 C802 1.398 . S
C803 C804 1.391 . S
C804 H792 0.950 . S
C804 C800 1.393 . S
C804 C803 1.391 . S
H805 C813 0.950 . S
H806 C818 0.950 . S
H807 C815 0.950 . S
H808 C817 0.950 . S
H809 C819 0.950 . S
H810 C821 0.950 . S
H811 C823 0.950 . S
H812 C824 0.950 . S
C813 H805 0.950 . S
C813 C814 1.386 . S
C813 C815 1.391 . S
C814 C813 1.386 . S
C814 C818 1.393 . S
C815 H807 0.950 . S
C815 C813 1.391 . S
C815 C816 1.400 . S
C816 C815 1.400 . S
C816 C817 1.398 . S
C816 C822 1.491 . S
C817 H808 0.950 . S
C817 C816 1.398 . S
C817 C818 1.391 . S
C818 H806 0.950 . S
C818 C814 1.393 . S
C818 C817 1.391 . S
C819 H809 0.950 . S
C819 C820 1.386 . S
C819 C821 1.391 . S
C820 C819 1.386 . S
C820 C824 1.393 . S
C821 H810 0.950 . S
C821 C819 1.391 . S
C821 C822 1.400 . S
C822 C816 1.491 . S
C822 C821 1.400 . S
C822 C823 1.398 . S
C823 H811 0.950 . S
C823 C822 1.398 . S
C823 C824 1.391 . S
C824 H812 0.950 . S
C824 C820 1.393 . S
C824 C823 1.391 . S
H825 C833 0.950 . S
H826 C838 0.950 . S
H827 C835 0.950 . S
H828 C837 0.950 . S
H829 C839 0.950 . S
H830 C841 0.950 . S
H831 C843 0.950 . S
H832 C844 0.950 . S
C833 H825 0.950 . S
C833 C834 1.386 . S
C833 C835 1.391 1_545 S
C834 C833 1.386 . S
C834 C838 1.393 . S
C835 H827 0.950 . S
C835 C833 1.391 1_565 S
C835 C836 1.400 . S
C836 C835 1.400 . S
C836 C837 1.393 . S
C836 C842 1.491 . S
C837 H828 0.950 . S
C837 C836 1.393 . S
C837 C838 1.395 1_565 S
C838 H826 0.950 . S
C838 C834 1.393 . S
C838 C837 1.395 1_545 S
C839 H829 0.950 . S
C839 C840 1.386 . S
C839 C841 1.391 . S
C840 C839 1.386 . S
C840 C844 1.393 . S
C841 H830 0.950 . S
C841 C839 1.391 . S
C841 C842 1.400 . S
C842 C836 1.491 . S
C842 C841 1.400 . S
C842 C843 1.398 . S
C843 H831 0.950 . S
C843 C842 1.398 . S
C843 C844 1.391 . S
C844 H832 0.950 . S
C844 C840 1.393 . S
C844 C843 1.391 . S
H845 C853 0.950 . S
H846 C858 0.950 . S
H847 C855 0.950 . S
H848 C857 0.950 . S
H849 C859 0.950 . S
H850 C861 0.950 . S
H851 C863 0.950 . S
H852 C864 0.950 . S
C853 H845 0.950 . S
C853 C854 1.386 . S
C853 C855 1.391 1_655 S
C854 C853 1.386 . S
C854 C858 1.393 . S
C855 H847 0.950 . S
C855 C853 1.391 1_455 S
C855 C856 1.400 . S
C856 C855 1.400 . S
C856 C857 1.398 . S
C856 C862 1.491 . S
C857 H848 0.950 . S
C857 C856 1.398 . S
C857 C858 1.391 1_455 S
C858 H846 0.950 . S
C858 C854 1.393 . S
C858 C857 1.391 1_655 S
C859 H849 0.950 . S
C859 C860 1.386 . S
C859 C861 1.391 . S
C860 C859 1.386 . S
C860 C864 1.393 . S
C861 H850 0.950 . S
C861 C859 1.391 . S
C861 C862 1.400 . S
C862 C856 1.491 . S
C862 C861 1.400 . S
C862 C863 1.398 . S
C863 H851 0.950 . S
C863 C862 1.398 . S
C863 C864 1.391 . S
C864 H852 0.950 . S
C864 C860 1.393 . S
C864 C863 1.391 . S
H865 C873 0.950 . S
H866 C878 0.950 . S
H867 C875 0.950 . S
H868 C877 0.950 . S
H869 C879 0.950 . S
H870 C881 0.950 . S
H871 C883 0.950 . S
H872 C884 0.950 . S
C873 H865 0.950 . S
C873 C874 1.386 . S
C873 C875 1.391 . S
C874 C873 1.386 . S
C874 C878 1.393 . S
C875 H867 0.950 . S
C875 C873 1.391 . S
C875 C876 1.400 . S
C876 C875 1.400 . S
C876 C877 1.398 . S
C876 C882 1.491 . S
C877 H868 0.950 . S
C877 C876 1.398 . S
C877 C878 1.391 . S
C878 H866 0.950 . S
C878 C874 1.393 . S
C878 C877 1.391 . S
C879 H869 0.950 . S
C879 C880 1.386 . S
C879 C881 1.391 . S
C880 C879 1.386 . S
C880 C884 1.393 . S
C881 H870 0.950 . S
C881 C879 1.391 . S
C881 C882 1.400 . S
C882 C876 1.491 . S
C882 C881 1.400 . S
C882 C883 1.398 . S
C883 H871 0.950 . S
C883 C882 1.398 . S
C883 C884 1.391 . S
C884 H872 0.950 . S
C884 C880 1.393 . S
C884 C883 1.391 . S
H885 C893 0.950 . S
H886 C898 0.950 . S
H887 C895 0.950 . S
H888 C897 0.950 . S
H889 C899 0.950 . S
H890 C901 0.950 . S
H891 C903 0.950 . S
H892 C904 0.950 . S
C893 H885 0.950 . S
C893 C894 1.386 . S
C893 C895 1.391 . S
C894 C893 1.386 . S
C894 C898 1.393 . S
C895 H887 0.950 . S
C895 C893 1.391 . S
C895 C896 1.400 . S
C896 C895 1.400 . S
C896 C897 1.398 . S
C896 C902 1.491 . S
C897 H888 0.950 . S
C897 C896 1.398 . S
C897 C898 1.391 . S
C898 H886 0.950 . S
C898 C894 1.393 . S
C898 C897 1.391 . S
C899 H889 0.950 . S
C899 C900 1.386 . S
C899 C901 1.391 . S
C900 C899 1.386 . S
C900 C904 1.393 . S
C901 H890 0.950 . S
C901 C899 1.391 . S
C901 C902 1.400 . S
C902 C896 1.491 . S
C902 C901 1.400 . S
C902 C903 1.398 . S
C903 H891 0.950 . S
C903 C902 1.398 . S
C903 C904 1.391 . S
C904 H892 0.950 . S
C904 C900 1.393 . S
C904 C903 1.391 . S
H905 C913 0.950 . S
H906 C918 0.950 . S
H907 C915 0.950 . S
H908 C917 0.950 . S
H909 C919 0.950 . S
H910 C921 0.950 . S
H911 C923 0.950 . S
H912 C924 0.950 . S
C913 H905 0.950 . S
C913 C914 1.386 . S
C913 C915 1.391 . S
C914 C913 1.386 . S
C914 C918 1.393 . S
C915 H907 0.950 . S
C915 C913 1.391 . S
C915 C916 1.400 . S
C916 C915 1.400 . S
C916 C917 1.398 . S
C916 C922 1.491 . S
C917 H908 0.950 . S
C917 C916 1.398 . S
C917 C918 1.391 . S
C918 H906 0.950 . S
C918 C914 1.393 . S
C918 C917 1.391 . S
C919 H909 0.950 . S
C919 C920 1.386 . S
C919 C921 1.391 . S
C920 C919 1.386 . S
C920 C924 1.393 . S
C921 H910 0.950 . S
C921 C919 1.391 . S
C921 C922 1.400 . S
C922 C916 1.491 . S
C922 C921 1.400 . S
C922 C923 1.398 . S
C923 H911 0.950 . S
C923 C922 1.398 . S
C923 C924 1.391 . S
C924 H912 0.950 . S
C924 C920 1.393 . S
C924 C923 1.391 . S
H925 C933 0.950 . S
H926 C938 0.950 . S
H927 C935 0.950 . S
H928 C937 0.950 . S
H929 C939 0.950 . S
H930 C941 0.950 . S
H931 C943 0.950 . S
H932 C944 0.950 . S
C933 H925 0.950 . S
C933 C934 1.386 . S
C933 C935 1.391 . S
C934 C933 1.386 . S
C934 C938 1.393 . S
C935 H927 0.950 . S
C935 C933 1.391 . S
C935 C936 1.400 . S
C936 C935 1.400 . S
C936 C937 1.398 . S
C936 C942 1.491 . S
C937 H928 0.950 . S
C937 C936 1.398 . S
C937 C938 1.391 . S
C938 H926 0.950 . S
C938 C934 1.393 . S
C938 C937 1.391 . S
C939 H929 0.950 . S
C939 C940 1.386 . S
C939 C941 1.391 . S
C940 C939 1.386 . S
C940 C944 1.393 . S
C941 H930 0.950 . S
C941 C939 1.391 . S
C941 C942 1.400 . S
C942 C936 1.491 . S
C942 C941 1.400 . S
C942 C943 1.398 . S
C943 H931 0.950 . S
C943 C942 1.398 . S
C943 C944 1.391 . S
C944 H932 0.950 . S
C944 C940 1.393 . S
C944 C943 1.391 . S
H945 C953 0.950 . S
H946 C958 0.950 . S
H947 C955 0.967 . S
H948 C957 0.950 . S
H949 C959 0.950 . S
H950 C961 0.950 . S
H951 C963 0.950 . S
H952 C964 0.950 . S
C953 H945 0.950 . S
C953 C954 1.386 . S
C953 C955 1.391 . S
C954 C953 1.386 . S
C954 C958 1.393 . S
C955 H947 0.967 . S
C955 C953 1.391 . S
C955 C956 1.400 . S
C956 C955 1.400 . S
C956 C957 1.398 . S
C956 C962 1.491 1_565 S
C957 H948 0.950 . S
C957 C956 1.398 . S
C957 C958 1.391 . S
C958 H946 0.950 . S
C958 C954 1.393 . S
C958 C957 1.391 . S
C959 H949 0.950 . S
C959 C960 1.386 . S
C959 C961 1.391 . S
C960 C959 1.386 . S
C960 C964 1.393 . S
C961 H950 0.950 . S
C961 C959 1.391 . S
C961 C962 1.400 . S
C962 C956 1.491 1_545 S
C962 C961 1.400 . S
C962 C963 1.398 . S
C963 H951 0.950 . S
C963 C962 1.398 . S
C963 C964 1.391 . S
C964 H952 0.950 . S
C964 C960 1.393 . S
C964 C963 1.391 . S
H965 C973 0.950 . S
H966 C978 0.950 . S
H967 C975 0.950 . S
H968 C977 0.950 . S
H969 C979 0.950 . S
H970 C981 0.950 . S
H971 C983 0.950 1_455 S
H972 C984 0.950 . S
C973 H965 0.950 . S
C973 C974 1.386 . S
C973 C975 1.391 . S
C974 C973 1.386 . S
C974 C978 1.393 . S
C975 H967 0.950 . S
C975 C973 1.391 . S
C975 C976 1.400 . S
C976 C975 1.400 . S
C976 C977 1.398 . S
C976 C982 1.491 1_455 S
C977 H968 0.950 . S
C977 C976 1.398 . S
C977 C978 1.391 . S
C978 H966 0.950 . S
C978 C974 1.393 . S
C978 C977 1.391 . S
C979 H969 0.950 . S
C979 C980 1.386 . S
C979 C981 1.391 . S
C980 C979 1.386 . S
C980 C984 1.393 . S
C981 H970 0.950 . S
C981 C979 1.391 . S
C981 C982 1.400 . S
C982 C976 1.491 1_655 S
C982 C981 1.400 . S
C982 C983 1.398 . S
C983 H971 0.950 1_655 S
C983 C982 1.398 . S
C983 C984 1.391 . S
C984 H972 0.950 . S
C984 C980 1.393 . S
C984 C983 1.391 . S
H985 C993 0.950 . S
H986 C998 0.950 . S
H987 C995 0.950 . S
H988 C997 0.950 . S
H989 C999 0.950 . S
H990 C1001 0.950 . S
H991 C1003 0.950 . S
H992 C1004 0.950 . S
C993 H985 0.950 . S
C993 C994 1.386 . S
C993 C995 1.391 . S
C994 C993 1.386 . S
C994 C998 1.393 . S
C995 H987 0.950 . S
C995 C993 1.391 . S
C995 C996 1.400 . S
C996 C995 1.400 . S
C996 C997 1.398 . S
C996 C1002 1.491 . S
C997 H988 0.950 . S
C997 C996 1.398 . S
C997 C998 1.391 . S
C998 H986 0.950 . S
C998 C994 1.393 . S
C998 C997 1.391 . S
C999 H989 0.950 . S
C999 C1000 1.386 . S
C999 C1001 1.391 . S
C1000 C999 1.386 . S
C1000 C1004 1.393 . S
C1001 H990 0.950 . S
C1001 C999 1.391 . S
C1001 C1002 1.400 . S
C1002 C996 1.491 . S
C1002 C1001 1.400 . S
C1002 C1003 1.398 . S
C1003 H991 0.950 . S
C1003 C1002 1.398 . S
C1003 C1004 1.391 . S
C1004 H992 0.950 . S
C1004 C1000 1.393 . S
C1004 C1003 1.391 . S
H1005 C1013 0.950 . S
H1006 C1018 0.950 . S
H1007 C1015 0.950 1_655 S
H1008 C1017 0.950 1_655 S
H1009 C1019 0.950 . S
H1010 C1021 0.950 . S
H1011 C1023 0.950 . S
H1012 C1024 0.950 . S
C1013 H1005 0.950 . S
C1013 C1014 1.386 . S
C1013 C1015 1.391 . S
C1014 C1013 1.386 . S
C1014 C1018 1.393 . S
C1015 H1007 0.950 1_455 S
C1015 C1013 1.391 . S
C1015 C1016 1.400 1_455 S
C1016 C1015 1.400 1_655 S
C1016 C1017 1.398 1_655 S
C1016 C1022 1.491 . S
C1017 H1008 0.950 1_455 S
C1017 C1016 1.398 1_455 S
C1017 C1018 1.391 . S
C1018 H1006 0.950 . S
C1018 C1014 1.393 . S
C1018 C1017 1.391 . S
C1019 H1009 0.950 . S
C1019 C1020 1.386 . S
C1019 C1021 1.391 . S
C1020 C1019 1.386 . S
C1020 C1024 1.393 . S
C1021 H1010 0.950 . S
C1021 C1019 1.391 . S
C1021 C1022 1.400 . S
C1022 C1016 1.491 . S
C1022 C1021 1.400 . S
C1022 C1023 1.398 . S
C1023 H1011 0.950 . S
C1023 C1022 1.398 . S
C1023 C1024 1.391 . S
C1024 H1012 0.950 . S
C1024 C1020 1.393 . S
C1024 C1023 1.391 . S
H1025 C1033 0.950 . S
H1026 C1038 0.950 . S
H1027 C1035 0.950 . S
H1028 C1037 0.950 . S
H1029 C1039 0.950 . S
H1030 C1041 0.950 . S
H1031 C1043 0.950 . S
H1032 C1044 0.950 . S
C1033 H1025 0.950 . S
C1033 C1034 1.386 . S
C1033 C1035 1.391 . S
C1034 C1033 1.386 . S
C1034 C1038 1.393 . S
C1035 H1027 0.950 . S
C1035 C1033 1.391 . S
C1035 C1036 1.400 . S
C1036 C1035 1.400 . S
C1036 C1037 1.398 . S
C1036 C1042 1.491 . S
C1037 H1028 0.950 . S
C1037 C1036 1.398 . S
C1037 C1038 1.391 . S
C1038 H1026 0.950 . S
C1038 C1034 1.393 . S
C1038 C1037 1.391 . S
C1039 H1029 0.950 . S
C1039 C1040 1.386 . S
C1039 C1041 1.391 . S
C1040 C1039 1.386 . S
C1040 C1044 1.393 . S
C1041 H1030 0.950 . S
C1041 C1039 1.391 . S
C1041 C1042 1.400 . S
C1042 C1036 1.491 . S
C1042 C1041 1.400 . S
C1042 C1043 1.398 . S
C1043 H1031 0.950 . S
C1043 C1042 1.398 . S
C1043 C1044 1.391 . S
C1044 H1032 0.950 . S
C1044 C1040 1.393 . S
C1044 C1043 1.391 . S
H1045 C1053 0.950 . S
H1046 C1058 0.950 . S
H1047 C1055 0.950 . S
H1048 C1057 0.950 . S
H1049 C1059 0.950 . S
H1050 C1061 0.950 . S
H1051 C1063 0.950 . S
H1052 C1064 0.950 . S
C1053 H1045 0.950 . S
C1053 C1054 1.386 . S
C1053 C1055 1.391 1_565 S
C1054 C1053 1.386 . S
C1054 C1058 1.393 . S
C1055 H1047 0.950 . S
C1055 C1053 1.391 1_545 S
C1055 C1056 1.400 . S
C1056 C1055 1.400 . S
C1056 C1057 1.398 . S
C1056 C1062 1.491 . S
C1057 H1048 0.950 . S
C1057 C1056 1.398 . S
C1057 C1058 1.391 1_545 S
C1058 H1046 0.950 . S
C1058 C1054 1.393 . S
C1058 C1057 1.391 1_565 S
C1059 H1049 0.950 . S
C1059 C1060 1.386 . S
C1059 C1061 1.391 . S
C1060 C1059 1.386 . S
C1060 C1064 1.393 . S
C1061 H1050 0.950 . S
C1061 C1059 1.391 . S
C1061 C1062 1.400 . S
C1062 C1056 1.491 . S
C1062 C1061 1.400 . S
C1062 C1063 1.398 . S
C1063 H1051 0.950 . S
C1063 C1062 1.398 . S
C1063 C1064 1.391 . S
C1064 H1052 0.950 . S
C1064 C1060 1.393 . S
C1064 C1063 1.391 . S
H1065 C1073 0.950 . S
H1066 C1078 0.950 . S
H1067 C1075 0.950 . S
H1068 C1077 0.950 . S
H1069 C1079 0.950 . S
H1070 C1081 0.950 . S
H1071 C1083 0.950 . S
H1072 C1084 0.950 . S
C1073 H1065 0.950 . S
C1073 C1074 1.386 . S
C1073 C1075 1.391 . S
C1074 C1073 1.386 . S
C1074 C1078 1.393 . S
C1075 H1067 0.950 . S
C1075 C1073 1.391 . S
C1075 C1076 1.400 . S
C1076 C1075 1.400 . S
C1076 C1077 1.398 . S
C1076 C1082 1.491 . S
C1077 H1068 0.950 . S
C1077 C1076 1.398 . S
C1077 C1078 1.391 . S
C1078 H1066 0.950 . S
C1078 C1074 1.393 . S
C1078 C1077 1.391 . S
C1079 H1069 0.950 . S
C1079 C1080 1.386 . S
C1079 C1081 1.391 . S
C1080 C1079 1.386 . S
C1080 C1084 1.393 . S
C1081 H1070 0.950 . S
C1081 C1079 1.391 . S
C1081 C1082 1.400 . S
C1082 C1076 1.491 . S
C1082 C1081 1.400 . S
C1082 C1083 1.398 . S
C1083 H1071 0.950 . S
C1083 C1082 1.398 . S
C1083 C1084 1.391 . S
C1084 H1072 0.950 . S
C1084 C1080 1.393 . S
C1084 C1083 1.391 . S
H1085 C1093 0.950 . S
H1086 C1098 0.950 . S
H1087 C1095 0.950 . S
H1088 C1097 0.950 . S
H1089 C1099 0.950 . S
H1090 C1101 0.950 . S
H1091 C1103 0.950 . S
H1092 C1104 0.950 . S
C1093 H1085 0.950 . S
C1093 C1094 1.386 . S
C1093 C1095 1.391 . S
C1094 C1093 1.386 . S
C1094 C1098 1.393 . S
C1095 H1087 0.950 . S
C1095 C1093 1.391 . S
C1095 C1096 1.400 . S
C1096 C1095 1.400 . S
C1096 C1097 1.398 . S
C1096 C1102 1.491 . S
C1097 H1088 0.950 . S
C1097 C1096 1.398 . S
C1097 C1098 1.391 . S
C1098 H1086 0.950 . S
C1098 C1094 1.393 . S
C1098 C1097 1.391 . S
C1099 H1089 0.950 . S
C1099 C1100 1.386 . S
C1099 C1101 1.391 . S
C1100 C1099 1.386 . S
C1100 C1104 1.393 . S
C1101 H1090 0.950 . S
C1101 C1099 1.391 . S
C1101 C1102 1.400 . S
C1102 C1096 1.491 . S
C1102 C1101 1.400 . S
C1102 C1103 1.398 . S
C1103 H1091 0.950 . S
C1103 C1102 1.398 . S
C1103 C1104 1.391 . S
C1104 H1092 0.950 . S
C1104 C1100 1.393 . S
C1104 C1103 1.391 . S
H1105 C1113 0.950 . S
H1106 C1118 0.950 . S
H1107 C1115 0.950 . S
H1108 C1117 0.950 . S
H1109 C1119 0.950 . S
H1110 C1121 0.950 . S
H1111 C1123 0.950 . S
H1112 C1124 0.950 . S
C1113 H1105 0.950 . S
C1113 C1114 1.386 . S
C1113 C1115 1.391 . S
C1114 C1113 1.386 . S
C1114 C1118 1.393 . S
C1115 H1107 0.950 . S
C1115 C1113 1.391 . S
C1115 C1116 1.400 . S
C1116 C1115 1.400 . S
C1116 C1117 1.398 . S
C1116 C1122 1.491 . S
C1117 H1108 0.950 . S
C1117 C1116 1.398 . S
C1117 C1118 1.391 . S
C1118 H1106 0.950 . S
C1118 C1114 1.393 . S
C1118 C1117 1.391 . S
C1119 H1109 0.950 . S
C1119 C1120 1.386 . S
C1119 C1121 1.391 . S
C1120 C1119 1.386 . S
C1120 C1124 1.393 . S
C1121 H1110 0.950 . S
C1121 C1119 1.391 . S
C1121 C1122 1.400 . S
C1122 C1116 1.491 . S
C1122 C1121 1.400 . S
C1122 C1123 1.398 . S
C1123 H1111 0.950 . S
C1123 C1122 1.398 . S
C1123 C1124 1.391 . S
C1124 H1112 0.950 . S
C1124 C1120 1.393 . S
C1124 C1123 1.391 . S
H1125 C1133 0.950 . S
H1126 C1138 0.950 . S
H1127 C1135 0.950 . S
H1128 C1137 0.950 . S
H1129 C1139 0.950 . S
H1130 C1141 0.950 . S
H1131 C1143 0.950 1_545 S
H1132 C1144 0.950 . S
C1133 H1125 0.950 . S
C1133 C1134 1.386 . S
C1133 C1135 1.391 . S
C1134 C1133 1.386 . S
C1134 C1138 1.393 . S
C1135 H1127 0.950 . S
C1135 C1133 1.391 . S
C1135 C1136 1.400 . S
C1136 C1135 1.400 . S
C1136 C1137 1.398 . S
C1136 C1142 1.491 . S
C1137 H1128 0.950 . S
C1137 C1136 1.398 . S
C1137 C1138 1.391 . S
C1138 H1126 0.950 . S
C1138 C1134 1.393 . S
C1138 C1137 1.391 . S
C1139 H1129 0.950 . S
C1139 C1140 1.386 . S
C1139 C1141 1.391 . S
C1140 C1139 1.386 . S
C1140 C1144 1.393 1_565 S
C1141 H1130 0.950 . S
C1141 C1139 1.391 . S
C1141 C1142 1.400 . S
C1142 C1136 1.491 . S
C1142 C1141 1.400 . S
C1142 C1143 1.398 . S
C1143 H1131 0.950 1_565 S
C1143 C1142 1.398 . S
C1143 C1144 1.391 1_565 S
C1144 H1132 0.950 . S
C1144 C1140 1.393 1_545 S
C1144 C1143 1.391 1_545 S
H1145 C1153 0.950 . S
H1146 C1158 0.950 . S
H1147 C1155 0.950 . S
H1148 C1157 0.950 . S
H1149 C1159 0.950 . S
H1150 C1161 0.950 . S
H1151 C1163 0.950 . S
H1152 C1164 0.950 . S
C1153 H1145 0.950 . S
C1153 C1154 1.386 . S
C1153 C1155 1.391 . S
C1154 C1153 1.386 . S
C1154 C1158 1.393 . S
C1155 H1147 0.950 . S
C1155 C1153 1.391 . S
C1155 C1156 1.400 . S
C1156 C1155 1.400 . S
C1156 C1157 1.398 . S
C1156 C1162 1.491 . S
C1157 H1148 0.950 . S
C1157 C1156 1.398 . S
C1157 C1158 1.391 . S
C1158 H1146 0.950 . S
C1158 C1154 1.393 . S
C1158 C1157 1.391 . S
C1159 H1149 0.950 . S
C1159 C1160 1.386 . S
C1159 C1161 1.391 . S
C1160 C1159 1.386 . S
C1160 C1164 1.393 . S
C1161 H1150 0.950 . S
C1161 C1159 1.391 . S
C1161 C1162 1.400 . S
C1162 C1156 1.491 . S
C1162 C1161 1.400 . S
C1162 C1163 1.398 . S
C1163 H1151 0.950 . S
C1163 C1162 1.398 . S
C1163 C1164 1.391 . S
C1164 H1152 0.950 . S
C1164 C1160 1.393 . S
C1164 C1163 1.391 . S
H1165 C1173 0.950 . S
H1166 C1178 0.950 . S
H1167 C1175 0.950 . S
H1168 C1177 0.950 . S
H1169 C1179 0.950 . S
H1170 C1181 0.950 . S
H1171 C1183 0.950 . S
H1172 C1184 0.950 . S
C1173 H1165 0.950 . S
C1173 C1174 1.386 . S
C1173 C1175 1.391 . S
C1174 C1173 1.386 . S
C1174 C1178 1.393 . S
C1175 H1167 0.950 . S
C1175 C1173 1.391 . S
C1175 C1176 1.400 . S
C1176 C1175 1.400 . S
C1176 C1177 1.398 . S
C1176 C1182 1.491 . S
C1177 H1168 0.950 . S
C1177 C1176 1.398 . S
C1177 C1178 1.391 . S
C1178 H1166 0.950 . S
C1178 C1174 1.393 . S
C1178 C1177 1.391 . S
C1179 H1169 0.950 . S
C1179 C1180 1.386 . S
C1179 C1181 1.391 . S
C1180 C1179 1.386 . S
C1180 C1184 1.393 . S
C1181 H1170 0.950 . S
C1181 C1179 1.391 . S
C1181 C1182 1.400 . S
C1182 C1176 1.491 . S
C1182 C1181 1.400 . S
C1182 C1183 1.398 . S
C1183 H1171 0.950 . S
C1183 C1182 1.398 . S
C1183 C1184 1.391 . S
C1184 H1172 0.950 . S
C1184 C1180 1.393 . S
C1184 C1183 1.391 . S
H1185 C1193 0.950 . S
H1186 C1198 0.950 . S
H1187 C1195 0.950 . S
H1188 C1197 0.950 . S
H1189 C1199 0.950 . S
H1190 C1201 0.950 . S
H1191 C1203 0.950 . S
H1192 C1204 0.950 . S
C1193 H1185 0.950 . S
C1193 C1194 1.386 . S
C1193 C1195 1.391 . S
C1194 C1193 1.386 . S
C1194 C1198 1.393 . S
C1195 H1187 0.950 . S
C1195 C1193 1.391 . S
C1195 C1196 1.400 . S
C1196 C1195 1.400 . S
C1196 C1197 1.398 . S
C1196 C1202 1.491 . S
C1197 H1188 0.950 . S
C1197 C1196 1.398 . S
C1197 C1198 1.391 . S
C1198 H1186 0.950 . S
C1198 C1194 1.393 . S
C1198 C1197 1.391 . S
C1199 H1189 0.950 . S
C1199 C1200 1.386 . S
C1199 C1201 1.391 . S
C1200 C1199 1.386 . S
C1200 C1204 1.393 . S
C1201 H1190 0.950 . S
C1201 C1199 1.391 . S
C1201 C1202 1.400 . S
C1202 C1196 1.491 . S
C1202 C1201 1.400 . S
C1202 C1203 1.398 . S
C1203 H1191 0.950 . S
C1203 C1202 1.398 . S
C1203 C1204 1.391 . S
C1204 H1192 0.950 . S
C1204 C1200 1.393 . S
C1204 C1203 1.391 . S
H1205 C1213 0.950 . S
H1206 C1218 0.950 . S
H1207 C1215 0.950 . S
H1208 C1217 0.950 . S
H1209 C1219 0.950 . S
H1210 C1221 0.950 . S
H1211 C1223 0.950 . S
H1212 C1224 0.950 . S
C1213 H1205 0.950 . S
C1213 C1214 1.386 . S
C1213 C1215 1.391 . S
C1214 C1213 1.386 . S
C1214 C1218 1.393 . S
C1215 H1207 0.950 . S
C1215 C1213 1.391 . S
C1215 C1216 1.400 . S
C1216 C1215 1.400 . S
C1216 C1217 1.398 . S
C1216 C1222 1.491 . S
C1217 H1208 0.950 . S
C1217 C1216 1.398 . S
C1217 C1218 1.391 . S
C1218 H1206 0.950 . S
C1218 C1214 1.393 . S
C1218 C1217 1.391 . S
C1219 H1209 0.950 . S
C1219 C1220 1.386 . S
C1219 C1221 1.391 . S
C1220 C1219 1.386 . S
C1220 C1224 1.393 . S
C1221 H1210 0.950 . S
C1221 C1219 1.391 . S
C1221 C1222 1.400 . S
C1222 C1216 1.491 . S
C1222 C1221 1.400 . S
C1222 C1223 1.398 . S
C1223 H1211 0.950 . S
C1223 C1222 1.398 . S
C1223 C1224 1.391 . S
C1224 H1212 0.950 . S
C1224 C1220 1.393 . S
C1224 C1223 1.391 . S
H1225 C1233 0.950 . S
H1226 C1238 0.950 . S
H1227 C1235 0.950 . S
H1228 C1237 0.950 . S
H1229 C1239 0.950 . S
H1230 C1241 0.950 . S
H1231 C1243 0.950 . S
H1232 C1244 0.950 1_565 S
C1233 H1225 0.950 . S
C1233 C1234 1.386 . S
C1233 C1235 1.391 . S
C1234 C1233 1.386 . S
C1234 C1238 1.393 . S
C1235 H1227 0.950 . S
C1235 C1233 1.391 . S
C1235 C1236 1.400 . S
C1236 C1235 1.400 . S
C1236 C1237 1.398 . S
C1236 C1242 1.491 . S
C1237 H1228 0.950 . S
C1237 C1236 1.398 . S
C1237 C1238 1.391 . S
C1238 H1226 0.950 . S
C1238 C1234 1.393 . S
C1238 C1237 1.391 . S
C1239 H1229 0.950 . S
C1239 C1240 1.386 . S
C1239 C1241 1.391 . S
C1240 C1239 1.386 . S
C1240 C1244 1.393 . S
C1241 H1230 0.950 . S
C1241 C1239 1.391 . S
C1241 C1242 1.400 . S
C1242 C1236 1.491 . S
C1242 C1241 1.400 . S
C1242 C1243 1.398 . S
C1243 H1231 0.950 . S
C1243 C1242 1.398 . S
C1243 C1244 1.391 . S
C1244 H1232 0.950 1_545 S
C1244 C1240 1.393 . S
C1244 C1243 1.391 . S
H1245 C1253 0.950 . S
H1246 C1258 0.950 . S
H1247 C1255 0.950 . S
H1248 C1257 0.950 . S
H1249 C1259 0.950 . S
H1250 C1261 0.950 . S
H1251 C1263 0.950 . S
H1252 C1264 0.950 . S
C1253 H1245 0.950 . S
C1253 C1254 1.386 . S
C1253 C1255 1.391 . S
C1254 C1253 1.386 . S
C1254 C1258 1.393 . S
C1255 H1247 0.950 . S
C1255 C1253 1.391 . S
C1255 C1256 1.400 . S
C1256 C1255 1.400 . S
C1256 C1257 1.398 . S
C1256 C1262 1.491 . S
C1257 H1248 0.950 . S
C1257 C1256 1.398 . S
C1257 C1258 1.391 . S
C1258 H1246 0.950 . S
C1258 C1254 1.393 . S
C1258 C1257 1.391 . S
C1259 H1249 0.950 . S
C1259 C1260 1.386 . S
C1259 C1261 1.391 . S
C1260 C1259 1.386 . S
C1260 C1264 1.393 . S
C1261 H1250 0.950 . S
C1261 C1259 1.391 . S
C1261 C1262 1.400 . S
C1262 C1256 1.491 . S
C1262 C1261 1.400 . S
C1262 C1263 1.398 . S
C1263 H1251 0.950 . S
C1263 C1262 1.398 . S
C1263 C1264 1.391 . S
C1264 H1252 0.950 . S
C1264 C1260 1.393 . S
C1264 C1263 1.391 . S
H1265 C1273 0.950 . S
H1266 C1278 0.950 . S
H1267 C1275 0.950 . S
H1268 C1277 0.950 . S
H1269 C1279 0.950 . S
H1270 C1281 0.950 . S
H1271 C1283 0.950 . S
H1272 C1284 0.950 . S
C1273 H1265 0.950 . S
C1273 C1274 1.386 . S
C1273 C1275 1.391 . S
C1274 C1273 1.386 . S
C1274 C1278 1.393 . S
C1275 H1267 0.950 . S
C1275 C1273 1.391 . S
C1275 C1276 1.400 . S
C1276 C1275 1.400 . S
C1276 C1277 1.398 . S
C1276 C1282 1.491 . S
C1277 H1268 0.950 . S
C1277 C1276 1.398 . S
C1277 C1278 1.391 . S
C1278 H1266 0.950 . S
C1278 C1274 1.393 . S
C1278 C1277 1.391 . S
C1279 H1269 0.950 . S
C1279 C1280 1.386 . S
C1279 C1281 1.391 . S
C1280 C1279 1.386 . S
C1280 C1284 1.393 . S
C1281 H1270 0.950 . S
C1281 C1279 1.391 . S
C1281 C1282 1.400 . S
C1282 C1276 1.491 . S
C1282 C1281 1.400 . S
C1282 C1283 1.398 . S
C1283 H1271 0.950 . S
C1283 C1282 1.398 . S
C1283 C1284 1.391 . S
C1284 H1272 0.950 . S
C1284 C1280 1.393 . S
C1284 C1283 1.391 . S
H1285 C1293 0.950 . S
H1286 C1298 0.950 . S
H1287 C1295 0.950 . S
H1288 C1297 0.950 . S
H1289 C1299 0.950 . S
H1290 C1301 0.950 . S
H1291 C1303 0.950 . S
H1292 C1304 0.950 . S
C1293 H1285 0.950 . S
C1293 C1294 1.386 . S
C1293 C1295 1.391 . S
C1294 C1293 1.386 . S
C1294 C1298 1.393 . S
C1295 H1287 0.950 . S
C1295 C1293 1.391 . S
C1295 C1296 1.400 . S
C1296 C1295 1.400 . S
C1296 C1297 1.398 . S
C1296 C1302 1.491 . S
C1297 H1288 0.950 . S
C1297 C1296 1.398 . S
C1297 C1298 1.391 . S
C1298 H1286 0.950 . S
C1298 C1294 1.393 . S
C1298 C1297 1.391 . S
C1299 H1289 0.950 . S
C1299 C1300 1.386 . S
C1299 C1301 1.391 . S
C1300 C1299 1.386 . S
C1300 C1304 1.393 . S
C1301 H1290 0.950 . S
C1301 C1299 1.391 . S
C1301 C1302 1.400 . S
C1302 C1296 1.491 . S
C1302 C1301 1.400 . S
C1302 C1303 1.398 . S
C1303 H1291 0.950 . S
C1303 C1302 1.398 . S
C1303 C1304 1.391 . S
C1304 H1292 0.950 . S
C1304 C1300 1.393 . S
C1304 C1303 1.391 . S
H1305 C1313 0.950 . S
H1306 C1318 0.950 . S
H1307 C1315 0.950 . S
H1308 C1317 0.950 . S
H1309 C1319 0.950 . S
H1310 C1321 0.950 . S
H1311 C1323 0.950 . S
H1312 C1324 0.950 . S
C1313 H1305 0.950 . S
C1313 C1314 1.386 . S
C1313 C1315 1.391 . S
C1314 C1313 1.386 . S
C1314 C1318 1.393 . S
C1315 H1307 0.950 . S
C1315 C1313 1.391 . S
C1315 C1316 1.400 . S
C1316 C1315 1.400 . S
C1316 C1317 1.398 . S
C1316 C1322 1.491 . S
C1317 H1308 0.950 . S
C1317 C1316 1.398 . S
C1317 C1318 1.391 . S
C1318 H1306 0.950 . S
C1318 C1314 1.393 . S
C1318 C1317 1.391 . S
C1319 H1309 0.950 . S
C1319 C1320 1.386 . S
C1319 C1321 1.391 . S
C1320 C1319 1.386 . S
C1320 C1324 1.393 . S
C1321 H1310 0.950 . S
C1321 C1319 1.391 . S
C1321 C1322 1.400 . S
C1322 C1316 1.491 . S
C1322 C1321 1.400 . S
C1322 C1323 1.398 . S
C1323 H1311 0.950 . S
C1323 C1322 1.398 . S
C1323 C1324 1.391 . S
C1324 H1312 0.950 . S
C1324 C1320 1.393 . S
C1324 C1323 1.391 . S
H1325 C1333 0.950 . S
H1326 C1338 0.950 . S
H1327 C1335 0.950 . S
H1328 C1337 0.950 . S
H1329 C1339 0.950 . S
H1330 C1341 0.950 . S
H1331 C1343 0.950 . S
H1332 C1344 0.950 . S
C1333 H1325 0.950 . S
C1333 C1334 1.386 . S
C1333 C1335 1.391 . S
C1334 C1333 1.386 . S
C1334 C1338 1.393 . S
C1335 H1327 0.950 . S
C1335 C1333 1.391 . S
C1335 C1336 1.400 . S
C1336 C1335 1.400 . S
C1336 C1337 1.398 . S
C1336 C1342 1.491 . S
C1337 H1328 0.950 . S
C1337 C1336 1.398 . S
C1337 C1338 1.391 . S
C1338 H1326 0.950 . S
C1338 C1334 1.393 . S
C1338 C1337 1.391 . S
C1339 H1329 0.950 . S
C1339 C1340 1.386 . S
C1339 C1341 1.391 . S
C1340 C1339 1.386 . S
C1340 C1344 1.393 . S
C1341 H1330 0.950 . S
C1341 C1339 1.391 . S
C1341 C1342 1.400 . S
C1342 C1336 1.491 . S
C1342 C1341 1.400 . S
C1342 C1343 1.398 . S
C1343 H1331 0.950 . S
C1343 C1342 1.398 . S
C1343 C1344 1.391 . S
C1344 H1332 0.950 . S
C1344 C1340 1.393 . S
C1344 C1343 1.391 . S
H1345 C1353 0.950 . S
H1346 C1358 0.950 . S
H1347 C1355 0.950 . S
H1348 C1357 0.950 . S
H1349 C1359 0.950 . S
H1350 C1361 0.950 . S
H1351 C1363 0.950 . S
H1352 C1364 0.950 . S
C1353 H1345 0.950 . S
C1353 C1354 1.386 . S
C1353 C1355 1.391 . S
C1354 C1353 1.386 . S
C1354 C1358 1.393 . S
C1355 H1347 0.950 . S
C1355 C1353 1.391 . S
C1355 C1356 1.400 . S
C1356 C1355 1.400 . S
C1356 C1357 1.398 . S
C1356 C1362 1.491 . S
C1357 H1348 0.950 . S
C1357 C1356 1.398 . S
C1357 C1358 1.391 . S
C1358 H1346 0.950 . S
C1358 C1354 1.393 . S
C1358 C1357 1.391 . S
C1359 H1349 0.950 . S
C1359 C1360 1.386 . S
C1359 C1361 1.391 . S
C1360 C1359 1.386 . S
C1360 C1364 1.393 . S
C1361 H1350 0.950 . S
C1361 C1359 1.391 . S
C1361 C1362 1.400 . S
C1362 C1356 1.491 . S
C1362 C1361 1.400 . S
C1362 C1363 1.398 . S
C1363 H1351 0.950 . S
C1363 C1362 1.398 . S
C1363 C1364 1.391 . S
C1364 H1352 0.950 . S
C1364 C1360 1.393 . S
C1364 C1363 1.391 . S
H1365 C1373 0.950 . S
H1366 C1378 0.950 . S
H1367 C1375 0.950 . S
H1368 C1377 0.950 . S
H1369 C1379 0.950 . S
H1370 C1381 0.950 . S
H1371 C1383 0.950 . S
H1372 C1384 0.950 . S
C1373 H1365 0.950 . S
C1373 C1374 1.386 . S
C1373 C1375 1.391 . S
C1374 C1373 1.386 . S
C1374 C1378 1.393 . S
C1375 H1367 0.950 . S
C1375 C1373 1.391 . S
C1375 C1376 1.400 . S
C1376 C1375 1.400 . S
C1376 C1377 1.398 . S
C1376 C1382 1.491 . S
C1377 H1368 0.950 . S
C1377 C1376 1.398 . S
C1377 C1378 1.391 . S
C1378 H1366 0.950 . S
C1378 C1374 1.393 . S
C1378 C1377 1.391 . S
C1379 H1369 0.950 . S
C1379 C1380 1.386 . S
C1379 C1381 1.391 . S
C1380 C1379 1.386 . S
C1380 C1384 1.393 . S
C1381 H1370 0.950 . S
C1381 C1379 1.391 . S
C1381 C1382 1.400 . S
C1382 C1376 1.491 . S
C1382 C1381 1.400 . S
C1382 C1383 1.398 . S
C1383 H1371 0.950 . S
C1383 C1382 1.398 . S
C1383 C1384 1.391 . S
C1384 H1372 0.950 . S
C1384 C1380 1.393 . S
C1384 C1383 1.391 . S
H1385 C1393 0.950 . S
H1386 C1398 0.950 . S
H1387 C1395 0.950 . S
H1388 C1397 0.950 . S
H1389 C1399 0.950 . S
H1390 C1401 0.950 . S
H1391 C1403 0.950 . S
H1392 C1404 0.950 . S
C1393 H1385 0.950 . S
C1393 C1394 1.386 . S
C1393 C1395 1.391 . S
C1394 C1393 1.386 . S
C1394 C1398 1.393 . S
C1395 H1387 0.950 . S
C1395 C1393 1.391 . S
C1395 C1396 1.400 . S
C1396 C1395 1.400 . S
C1396 C1397 1.398 . S
C1396 C1402 1.491 . S
C1397 H1388 0.950 . S
C1397 C1396 1.398 . S
C1397 C1398 1.391 . S
C1398 H1386 0.950 . S
C1398 C1394 1.393 . S
C1398 C1397 1.391 . S
C1399 H1389 0.950 . S
C1399 C1400 1.386 . S
C1399 C1401 1.391 . S
C1400 C1399 1.386 . S
C1400 C1404 1.393 . S
C1401 H1390 0.950 . S
C1401 C1399 1.391 . S
C1401 C1402 1.400 . S
C1402 C1396 1.491 . S
C1402 C1401 1.400 . S
C1402 C1403 1.398 . S
C1403 H1391 0.950 . S
C1403 C1402 1.398 . S
C1403 C1404 1.391 . S
C1404 H1392 0.950 . S
C1404 C1400 1.393 . S
C1404 C1403 1.391 . S
H1405 C1413 0.950 . S
H1406 C1418 0.950 . S
H1407 C1415 0.950 . S
H1408 C1417 0.950 . S
H1409 C1419 0.950 . S
H1410 C1421 0.950 . S
H1411 C1423 0.950 . S
H1412 C1424 0.950 . S
C1413 H1405 0.950 . S
C1413 C1414 1.386 . S
C1413 C1415 1.391 . S
C1414 C1413 1.386 . S
C1414 C1418 1.393 . S
C1415 H1407 0.950 . S
C1415 C1413 1.391 . S
C1415 C1416 1.400 . S
C1416 C1415 1.400 . S
C1416 C1417 1.398 . S
C1416 C1422 1.491 . S
C1417 H1408 0.950 . S
C1417 C1416 1.398 . S
C1417 C1418 1.391 . S
C1418 H1406 0.950 . S
C1418 C1414 1.393 . S
C1418 C1417 1.391 . S
C1419 H1409 0.950 . S
C1419 C1420 1.386 . S
C1419 C1421 1.391 . S
C1420 C1419 1.386 . S
C1420 C1424 1.393 . S
C1421 H1410 0.950 . S
C1421 C1419 1.391 . S
C1421 C1422 1.400 . S
C1422 C1416 1.491 . S
C1422 C1421 1.400 . S
C1422 C1423 1.398 . S
C1423 H1411 0.950 . S
C1423 C1422 1.398 . S
C1423 C1424 1.391 . S
C1424 H1412 0.950 . S
C1424 C1420 1.393 . S
C1424 C1423 1.391 . S
H1425 C1433 0.950 . S
H1426 C1438 0.950 . S
H1427 C1435 0.950 . S
H1428 C1437 0.950 . S
H1429 C1439 0.950 . S
H1430 C1441 0.950 . S
H1431 C1443 0.950 . S
H1432 C1444 0.950 . S
C1433 H1425 0.950 . S
C1433 C1434 1.386 . S
C1433 C1435 1.391 . S
C1434 C1433 1.386 . S
C1434 C1438 1.393 . S
C1435 H1427 0.950 . S
C1435 C1433 1.391 . S
C1435 C1436 1.400 . S
C1436 C1435 1.400 . S
C1436 C1437 1.398 . S
C1436 C1442 1.491 . S
C1437 H1428 0.950 . S
C1437 C1436 1.398 . S
C1437 C1438 1.391 . S
C1438 H1426 0.950 . S
C1438 C1434 1.393 . S
C1438 C1437 1.391 . S
C1439 H1429 0.950 . S
C1439 C1440 1.386 . S
C1439 C1441 1.391 . S
C1440 C1439 1.386 . S
C1440 C1444 1.393 . S
C1441 H1430 0.950 . S
C1441 C1439 1.391 . S
C1441 C1442 1.400 . S
C1442 C1436 1.491 . S
C1442 C1441 1.400 . S
C1442 C1443 1.398 . S
C1443 H1431 0.950 . S
C1443 C1442 1.398 . S
C1443 C1444 1.391 . S
C1444 H1432 0.950 . S
C1444 C1440 1.393 . S
C1444 C1443 1.391 . S
H1445 C1453 0.950 . S
H1446 C1458 0.950 . S
H1447 C1455 0.950 . S
H1448 C1457 0.950 . S
H1449 C1459 0.950 . S
H1450 C1461 0.950 . S
H1451 C1463 0.950 . S
H1452 C1464 0.950 . S
C1453 H1445 0.950 . S
C1453 C1454 1.386 . S
C1453 C1455 1.391 . S
C1454 C1453 1.386 . S
C1454 C1458 1.393 . S
C1455 H1447 0.950 . S
C1455 C1453 1.391 . S
C1455 C1456 1.400 . S
C1456 C1455 1.400 . S
C1456 C1457 1.398 . S
C1456 C1462 1.491 . S
C1457 H1448 0.950 . S
C1457 C1456 1.398 . S
C1457 C1458 1.391 . S
C1458 H1446 0.950 . S
C1458 C1454 1.393 . S
C1458 C1457 1.391 . S
C1459 H1449 0.950 . S
C1459 C1460 1.386 . S
C1459 C1461 1.391 . S
C1460 C1459 1.386 . S
C1460 C1464 1.393 . S
C1461 H1450 0.950 . S
C1461 C1459 1.391 . S
C1461 C1462 1.400 . S
C1462 C1456 1.491 . S
C1462 C1461 1.400 . S
C1462 C1463 1.398 . S
C1463 H1451 0.950 . S
C1463 C1462 1.398 . S
C1463 C1464 1.391 . S
C1464 H1452 0.950 . S
C1464 C1460 1.393 . S
C1464 C1463 1.391 . S
H1465 C1473 0.950 . S
H1466 C1478 0.950 . S
H1467 C1475 0.950 . S
H1468 C1477 0.950 . S
H1469 C1479 0.950 . S
H1470 C1481 0.950 . S
H1471 C1483 0.950 . S
H1472 C1484 0.950 . S
C1473 H1465 0.950 . S
C1473 C1474 1.386 . S
C1473 C1475 1.391 . S
C1474 C1473 1.386 . S
C1474 C1478 1.393 . S
C1475 H1467 0.950 . S
C1475 C1473 1.391 . S
C1475 C1476 1.400 . S
C1476 C1475 1.400 . S
C1476 C1477 1.398 . S
C1476 C1482 1.491 . S
C1477 H1468 0.950 . S
C1477 C1476 1.398 . S
C1477 C1478 1.391 . S
C1478 H1466 0.950 . S
C1478 C1474 1.393 . S
C1478 C1477 1.391 . S
C1479 H1469 0.950 . S
C1479 C1480 1.386 . S
C1479 C1481 1.391 . S
C1480 C1479 1.386 . S
C1480 C1484 1.393 . S
C1481 H1470 0.950 . S
C1481 C1479 1.391 . S
C1481 C1482 1.400 . S
C1482 C1476 1.491 . S
C1482 C1481 1.400 . S
C1482 C1483 1.398 . S
C1483 H1471 0.950 . S
C1483 C1482 1.398 . S
C1483 C1484 1.391 . S
C1484 H1472 0.950 . S
C1484 C1480 1.393 . S
C1484 C1483 1.391 . S
C414 C162 1.433 . S
C420 C230 1.415 . S
C434 C174 1.417 . S
C440 C251 1.390 . S
C454 C150 1.362 . S
C460 C271 1.214 . S
C474 C138 1.365 . S
C480 C250 1.195 . S
C500 C272 1.396 . S
C494 C114 1.421 1_554 S
C514 C126 1.390 1_554 S
C520 C229 1.218 . S
C540 C231 1.417 . S
C534 C136 1.424 . S
C560 C252 1.390 . S
C554 C112 1.431 . S
C574 C124 1.495 . S
C580 C274 1.278 . S
C594 C160 1.449 . S
C600 C253 1.269 1_554 S
C614 C172 1.396 . S
C620 C273 1.388 . S
C640 C232 1.263 1_554 S
C634 C148 1.465 . S
C660 C293 1.417 . S
C654 C18 1.421 . S
C674 C30 1.420 . S
C680 C314 1.372 . S
C694 C6 1.377 . S
C700 C334 1.254 . S
C714 C210 1.361 . S
C720 C313 1.192 . S
C734 C186 1.436 . S
C740 C335 1.395 . S
C754 C198 1.384 . S
C760 C292 1.209 . S
C774 C208 1.447 . S
C780 C294 1.395 . S
C794 C184 1.421 . S
C800 C315 1.386 . S
C820 C337 1.265 . S
C814 C196 1.491 . S
C834 C16 1.445 . S
C840 C316 1.239 . S
C860 C336 1.400 . S
C854 C28 1.399 . S
C874 C4 1.480 . S
C880 C295 1.257 . S
C900 C356 1.394 . S
C894 C90 1.433 . S
C914 C102 1.407 . S
C920 C377 1.377 . S
C940 C397 1.205 . S
C934 C78 1.370 . S
C960 C376 1.232 . S
C954 C66 1.378 . S
C980 C398 1.404 . S
C974 C42 1.419 . S
C994 C54 1.397 . S
C1000 C355 1.257 . S
C1014 C64 1.435 . S
C1020 C357 1.416 . S
C1034 C40 1.409 . S
C1040 C378 1.418 . S
C1060 C400 1.247 . S
C1054 C52 1.474 . S
C1074 C88 1.448 . S
C1080 C379 1.235 . S
C1094 C100 1.416 . S
C1100 C399 1.368 . S
C1114 C76 1.467 . S
C1120 C358 1.269 . S
C1134 C189 1.500 . S
C1140 C234 1.476 . S
C1160 C255 1.512 . S
C1154 C201 1.530 . S
C1174 C213 1.559 . S
C1180 C275 1.499 . S
C1194 C81 1.616 . S
C1200 C254 1.553 . S
C1214 C93 1.559 . S
C1220 C276 1.554 . S
C1240 C233 1.544 . S
C1234 C105 1.591 . S
C1254 C45 1.494 . S
C1260 C297 1.486 . S
C1274 C57 1.535 . S
C1280 C318 1.513 . S
C1294 C69 1.552 . S
C1300 C338 1.490 . S
C1314 C153 1.624 . S
C1320 C317 1.566 . S
C1340 C339 1.543 . S
C1334 C165 1.566 . S
C1354 C177 1.591 . S
C1360 C296 1.543 . S
C1374 C117 1.504 . S
C1380 C360 1.477 . S
C1394 C129 1.536 . S
C1400 C381 1.508 . S
C1420 C401 1.487 . S
C1414 C141 1.553 . S
C1434 C9 1.622 . S
C1440 C380 1.561 . S
C1454 C21 1.568 . S
C1460 C402 1.539 . S
C1474 C33 1.583 . S
C1480 C359 1.520 . S
