# Generated by pormake.
# Topology eea, (3,6)-cn, num edge types: 1
# Building blocks:
#     Node 0, Type 0, BuildingBlock: MIDCAF_clean_linker_0, # of connection points: 3
#     Node 1, Type 0, BuildingBlock: MIDCAF_clean_linker_0, # of connection points: 3
#     Node 2, Type 0, BuildingBlock: MIDCAF_clean_linker_0, # of connection points: 3
#     Node 3, Type 0, BuildingBlock: MIDCAF_clean_linker_0, # of connection points: 3
#     Node 4, Type 0, BuildingBlock: MIDCAF_clean_linker_0, # of connection points: 3
#     Node 5, Type 0, BuildingBlock: MIDCAF_clean_linker_0, # of connection points: 3
#     Node 6, Type 0, BuildingBlock: MIDCAF_clean_linker_0, # of connection points: 3
#     Node 7, Type 0, BuildingBlock: MIDCAF_clean_linker_0, # of connection points: 3
#     Node 8, Type 0, BuildingBlock: MIDCAF_clean_linker_0, # of connection points: 3
#     Node 9, Type 0, BuildingBlock: MIDCAF_clean_linker_0, # of connection points: 3
#     Node 10, Type 0, BuildingBlock: MIDCAF_clean_linker_0, # of connection points: 3
#     Node 11, Type 0, BuildingBlock: MIDCAF_clean_linker_0, # of connection points: 3
#     Node 12, Type 0, BuildingBlock: MIDCAF_clean_linker_0, # of connection points: 3
#     Node 13, Type 0, BuildingBlock: MIDCAF_clean_linker_0, # of connection points: 3
#     Node 14, Type 0, BuildingBlock: MIDCAF_clean_linker_0, # of connection points: 3
#     Node 15, Type 0, BuildingBlock: MIDCAF_clean_linker_0, # of connection points: 3
#     Node 16, Type 0, BuildingBlock: MIDCAF_clean_linker_0, # of connection points: 3
#     Node 17, Type 0, BuildingBlock: MIDCAF_clean_linker_0, # of connection points: 3
#     Node 18, Type 1, BuildingBlock: KUMJIN_clean_sbu_0, # of connection points: 6
#     Node 19, Type 1, BuildingBlock: KUMJIN_clean_sbu_0, # of connection points: 6
#     Node 20, Type 1, BuildingBlock: KUMJIN_clean_sbu_0, # of connection points: 6
#     Node 21, Type 1, BuildingBlock: KUMJIN_clean_sbu_0, # of connection points: 6
#     Node 22, Type 1, BuildingBlock: KUMJIN_clean_sbu_0, # of connection points: 6
#     Node 23, Type 1, BuildingBlock: KUMJIN_clean_sbu_0, # of connection points: 6
#     Node 24, Type 1, BuildingBlock: KUMJIN_clean_sbu_0, # of connection points: 6
#     Node 25, Type 1, BuildingBlock: KUMJIN_clean_sbu_0, # of connection points: 6
#     Node 26, Type 1, BuildingBlock: KUMJIN_clean_sbu_0, # of connection points: 6
#     Edge 27, Type (0, 1), BuildingBlock: UVAHIK_clean_linker_0, # of connection points: 2
#     Edge 28, Type (0, 1), BuildingBlock: UVAHIK_clean_linker_0, # of connection points: 2
#     Edge 29, Type (0, 1), BuildingBlock: UVAHIK_clean_linker_0, # of connection points: 2
#     Edge 30, Type (0, 1), BuildingBlock: UVAHIK_clean_linker_0, # of connection points: 2
#     Edge 31, Type (0, 1), BuildingBlock: UVAHIK_clean_linker_0, # of connection points: 2
#     Edge 32, Type (0, 1), BuildingBlock: UVAHIK_clean_linker_0, # of connection points: 2
#     Edge 33, Type (0, 1), BuildingBlock: UVAHIK_clean_linker_0, # of connection points: 2
#     Edge 34, Type (0, 1), BuildingBlock: UVAHIK_clean_linker_0, # of connection points: 2
#     Edge 35, Type (0, 1), BuildingBlock: UVAHIK_clean_linker_0, # of connection points: 2
#     Edge 36, Type (0, 1), BuildingBlock: UVAHIK_clean_linker_0, # of connection points: 2
#     Edge 37, Type (0, 1), BuildingBlock: UVAHIK_clean_linker_0, # of connection points: 2
#     Edge 38, Type (0, 1), BuildingBlock: UVAHIK_clean_linker_0, # of connection points: 2
#     Edge 39, Type (0, 1), BuildingBlock: UVAHIK_clean_linker_0, # of connection points: 2
#     Edge 40, Type (0, 1), BuildingBlock: UVAHIK_clean_linker_0, # of connection points: 2
#     Edge 41, Type (0, 1), BuildingBlock: UVAHIK_clean_linker_0, # of connection points: 2
#     Edge 42, Type (0, 1), BuildingBlock: UVAHIK_clean_linker_0, # of connection points: 2
#     Edge 43, Type (0, 1), BuildingBlock: UVAHIK_clean_linker_0, # of connection points: 2
#     Edge 44, Type (0, 1), BuildingBlock: UVAHIK_clean_linker_0, # of connection points: 2
#     Edge 45, Type (0, 1), BuildingBlock: UVAHIK_clean_linker_0, # of connection points: 2
#     Edge 46, Type (0, 1), BuildingBlock: UVAHIK_clean_linker_0, # of connection points: 2
#     Edge 47, Type (0, 1), BuildingBlock: UVAHIK_clean_linker_0, # of connection points: 2
#     Edge 48, Type (0, 1), BuildingBlock: UVAHIK_clean_linker_0, # of connection points: 2
#     Edge 49, Type (0, 1), BuildingBlock: UVAHIK_clean_linker_0, # of connection points: 2
#     Edge 50, Type (0, 1), BuildingBlock: UVAHIK_clean_linker_0, # of connection points: 2
#     Edge 51, Type (0, 1), BuildingBlock: UVAHIK_clean_linker_0, # of connection points: 2
#     Edge 52, Type (0, 1), BuildingBlock: UVAHIK_clean_linker_0, # of connection points: 2
#     Edge 53, Type (0, 1), BuildingBlock: UVAHIK_clean_linker_0, # of connection points: 2
#     Edge 54, Type (0, 1), BuildingBlock: UVAHIK_clean_linker_0, # of connection points: 2
#     Edge 55, Type (0, 1), BuildingBlock: UVAHIK_clean_linker_0, # of connection points: 2
#     Edge 56, Type (0, 1), BuildingBlock: UVAHIK_clean_linker_0, # of connection points: 2
#     Edge 57, Type (0, 1), BuildingBlock: UVAHIK_clean_linker_0, # of connection points: 2
#     Edge 58, Type (0, 1), BuildingBlock: UVAHIK_clean_linker_0, # of connection points: 2
#     Edge 59, Type (0, 1), BuildingBlock: UVAHIK_clean_linker_0, # of connection points: 2
#     Edge 60, Type (0, 1), BuildingBlock: UVAHIK_clean_linker_0, # of connection points: 2
#     Edge 61, Type (0, 1), BuildingBlock: UVAHIK_clean_linker_0, # of connection points: 2
#     Edge 62, Type (0, 1), BuildingBlock: UVAHIK_clean_linker_0, # of connection points: 2
#     Edge 63, Type (0, 1), BuildingBlock: UVAHIK_clean_linker_0, # of connection points: 2
#     Edge 64, Type (0, 1), BuildingBlock: UVAHIK_clean_linker_0, # of connection points: 2
#     Edge 65, Type (0, 1), BuildingBlock: UVAHIK_clean_linker_0, # of connection points: 2
#     Edge 66, Type (0, 1), BuildingBlock: UVAHIK_clean_linker_0, # of connection points: 2
#     Edge 67, Type (0, 1), BuildingBlock: UVAHIK_clean_linker_0, # of connection points: 2
#     Edge 68, Type (0, 1), BuildingBlock: UVAHIK_clean_linker_0, # of connection points: 2
#     Edge 69, Type (0, 1), BuildingBlock: UVAHIK_clean_linker_0, # of connection points: 2
#     Edge 70, Type (0, 1), BuildingBlock: UVAHIK_clean_linker_0, # of connection points: 2
#     Edge 71, Type (0, 1), BuildingBlock: UVAHIK_clean_linker_0, # of connection points: 2
#     Edge 72, Type (0, 1), BuildingBlock: UVAHIK_clean_linker_0, # of connection points: 2
#     Edge 73, Type (0, 1), BuildingBlock: UVAHIK_clean_linker_0, # of connection points: 2
#     Edge 74, Type (0, 1), BuildingBlock: UVAHIK_clean_linker_0, # of connection points: 2
#     Edge 75, Type (0, 1), BuildingBlock: UVAHIK_clean_linker_0, # of connection points: 2
#     Edge 76, Type (0, 1), BuildingBlock: UVAHIK_clean_linker_0, # of connection points: 2
#     Edge 77, Type (0, 1), BuildingBlock: UVAHIK_clean_linker_0, # of connection points: 2
#     Edge 78, Type (0, 1), BuildingBlock: UVAHIK_clean_linker_0, # of connection points: 2
#     Edge 79, Type (0, 1), BuildingBlock: UVAHIK_clean_linker_0, # of connection points: 2
#     Edge 80, Type (0, 1), BuildingBlock: UVAHIK_clean_linker_0, # of connection points: 2
# Relax obj value: 0.010
# Max RMSD: 0.099
# Mean RMSD: 0.055
data_MOF--net-eea--node1-KUMJIN_clean_sbu_0--node2-MIDCAF_clean_linker_0--edge1-UVAHIK_clean_linker_0
_symmetry_space_group_name_H-M    P1
_symmetry_Int_Tables_number       1
_symmetry_cell_setting            triclinic
loop_
_symmetry_equiv_pos_as_xyz
'x, y, z'
_cell_length_a     77.665701
_cell_length_b     78.923369
_cell_length_c     106.71424
_cell_angle_alpha  90.274468
_cell_angle_beta   90.32294
_cell_angle_gamma 119.94984
loop_
_atom_site_label
_atom_site_type_symbol
_atom_site_fract_x
_atom_site_fract_y
_atom_site_fract_z
_atom_type_partial_charge
C0 C 0.25674 0.06779 0.41469 0.0
C1 C 0.24484 0.06161 0.40379 0.0
C2 C 0.23905 0.07422 0.39836 0.0
C3 C 0.24498 0.09252 0.4037 0.0
H4 H 0.25024 0.1448 0.39553 0.0
H5 H 0.24248 0.16683 0.38431 0.0
H6 H 0.26415 0.20718 0.41569 0.0
H7 H 0.27155 0.18486 0.42714 0.0
H8 H 0.28706 0.17292 0.45187 0.0
H9 H 0.29796 0.1786 0.47377 0.0
H10 H 0.28887 0.12006 0.47577 0.0
H11 H 0.27782 0.11422 0.45407 0.0
H12 H 0.27164 0.09031 0.42852 0.0
H13 H 0.26175 0.0586 0.41901 0.0
H14 H 0.2296 0.06983 0.3901 0.0
H15 H 0.24007 0.10175 0.39931 0.0
N16 N 0.26003 0.13126 0.41411 0.0
N17 N 0.27189 0.15263 0.4314 0.0
N18 N 0.26959 0.12187 0.43243 0.0
C19 C 0.26477 0.14873 0.41943 0.0
C20 C 0.27435 0.13923 0.43797 0.0
C21 C 0.26243 0.11778 0.42051 0.0
C22 C 0.26139 0.16294 0.41232 0.0
C23 C 0.25349 0.1584 0.40007 0.0
C24 C 0.24917 0.17113 0.39355 0.0
C25 C 0.25265 0.18875 0.3991 0.0
C26 C 0.26104 0.19357 0.41122 0.0
C27 C 0.26536 0.18081 0.41776 0.0
C28 C 0.28149 0.14309 0.45117 0.0
C29 C 0.28738 0.16125 0.45697 0.0
C30 C 0.29371 0.16455 0.46951 0.0
C31 C 0.29415 0.14973 0.47651 0.0
C32 C 0.28839 0.13166 0.47069 0.0
C33 C 0.28218 0.12839 0.45818 0.0
C34 C 0.25668 0.0986 0.41468 0.0
C35 C 0.26251 0.08603 0.42011 0.0
C36 C 0.95195 0.18228 0.41561 0.0
C37 C 0.95305 0.18118 0.40251 0.0
C38 C 0.93637 0.16706 0.39582 0.0
C39 C 0.91905 0.15406 0.40211 0.0
H40 H 0.87516 0.09449 0.401 0.0
H41 H 0.85201 0.06344 0.39111 0.0
H42 H 0.80776 0.05452 0.41869 0.0
H43 H 0.8312 0.08524 0.42888 0.0
H44 H 0.84871 0.10754 0.45506 0.0
H45 H 0.84215 0.11388 0.47628 0.0
H46 H 0.89507 0.1708 0.47571 0.0
H47 H 0.90162 0.16463 0.45432 0.0
H48 H 0.93418 0.17064 0.432 0.0
H49 H 0.96456 0.19315 0.42098 0.0
H50 H 0.93686 0.16581 0.38573 0.0
H51 H 0.90652 0.14323 0.39667 0.0
N52 N 0.88621 0.1241 0.41609 0.0
N53 N 0.86621 0.11485 0.43393 0.0
N54 N 0.89626 0.14466 0.4338 0.0
C55 C 0.86945 0.11094 0.42205 0.0
C56 C 0.87951 0.13165 0.43989 0.0
C57 C 0.89966 0.14099 0.42187 0.0
C58 C 0.85508 0.09236 0.41576 0.0
C59 C 0.86047 0.08595 0.40494 0.0
C60 C 0.84713 0.06815 0.39922 0.0
C61 C 0.82797 0.05641 0.40408 0.0
C62 C 0.82249 0.06298 0.41481 0.0
C63 C 0.83592 0.08068 0.42062 0.0
C64 C 0.87571 0.13558 0.45292 0.0
C65 C 0.85902 0.12143 0.45941 0.0
C66 C 0.85529 0.125 0.47164 0.0
C67 C 0.86812 0.14281 0.47771 0.0
C68 C 0.88482 0.15699 0.47125 0.0
C69 C 0.88861 0.1534 0.459 0.0
C70 C 0.91793 0.15509 0.41523 0.0
C71 C 0.93452 0.16947 0.4219 0.0
C72 C 0.82466 0.77637 0.41644 0.0
C73 C 0.82929 0.78651 0.40504 0.0
C74 C 0.84832 0.79346 0.40002 0.0
C75 C 0.86231 0.79011 0.40617 0.0
H76 H 0.918 0.79601 0.40221 0.0
H77 H 0.94881 0.80317 0.39194 0.0
H78 H 0.96063 0.77245 0.42111 0.0
H79 H 0.93018 0.76577 0.43156 0.0
H80 H 0.90157 0.74939 0.4549 0.0
H81 H 0.89416 0.7351 0.47577 0.0
H82 H 0.84407 0.7445 0.47806 0.0
H83 H 0.85146 0.75891 0.45727 0.0
H84 H 0.83447 0.76522 0.43137 0.0
H85 H 0.81021 0.77105 0.42064 0.0
H86 H 0.8523 0.8012 0.3912 0.0
H87 H 0.87677 0.79553 0.40196 0.0
N88 N 0.88954 0.77998 0.41833 0.0
N89 N 0.89864 0.768 0.43573 0.0
N90 N 0.86846 0.768 0.43566 0.0
C91 C 0.9028 0.77603 0.4241 0.0
C92 C 0.88154 0.764 0.4416 0.0
C93 C 0.8723 0.77596 0.42403 0.0
C94 C 0.92155 0.78033 0.41776 0.0
C95 C 0.92716 0.79078 0.40646 0.0
C96 C 0.94482 0.79481 0.40051 0.0
C97 C 0.9573 0.78843 0.40568 0.0
C98 C 0.95162 0.77792 0.41695 0.0
C99 C 0.93403 0.77397 0.42293 0.0
C100 C 0.87713 0.75533 0.45434 0.0
C101 C 0.88899 0.74847 0.45984 0.0
C102 C 0.88469 0.74016 0.47179 0.0
C103 C 0.86853 0.73866 0.47859 0.0
C104 C 0.85675 0.74563 0.47314 0.0
C105 C 0.86094 0.75378 0.46116 0.0
C106 C 0.85764 0.77986 0.41755 0.0
C107 C 0.83866 0.77315 0.42263 0.0
C108 C 0.04997 0.22297 0.59608 0.0
C109 C 0.04435 0.21268 0.60742 0.0
C110 C 0.05632 0.20558 0.6124 0.0
C111 C 0.07364 0.20893 0.60626 0.0
H112 H 0.12435 0.20371 0.6105 0.0
H113 H 0.1486 0.19705 0.62057 0.0
H114 H 0.18982 0.22677 0.59061 0.0
H115 H 0.16552 0.23291 0.58039 0.0
H116 H 0.15079 0.24307 0.55597 0.0
H117 H 0.15792 0.25693 0.53508 0.0
H118 H 0.10363 0.25944 0.53532 0.0
H119 H 0.09621 0.24517 0.55618 0.0
H120 H 0.07097 0.23419 0.58118 0.0
H121 H 0.04096 0.22842 0.5919 0.0
H122 H 0.05248 0.19772 0.62117 0.0
H123 H 0.08256 0.20336 0.61043 0.0
N124 N 0.11107 0.21908 0.59412 0.0
N125 N 0.13175 0.23054 0.57658 0.0
N126 N 0.10173 0.23081 0.57669 0.0
C127 C 0.12814 0.22282 0.58828 0.0
C128 C 0.11865 0.23454 0.57068 0.0
C129 C 0.09779 0.22307 0.5884 0.0
C130 C 0.14287 0.2188 0.59458 0.0
C131 C 0.13857 0.2088 0.60604 0.0
C132 C 0.15255 0.20506 0.61187 0.0
C133 C 0.17121 0.21128 0.60641 0.0
C134 C 0.1755 0.22139 0.59499 0.0
C135 C 0.16154 0.22503 0.58915 0.0
C136 C 0.12291 0.24299 0.55785 0.0
C137 C 0.1403 0.24654 0.55161 0.0
C138 C 0.14448 0.25462 0.53962 0.0
C139 C 0.13141 0.25941 0.5335 0.0
C140 C 0.11394 0.25574 0.53968 0.0
C141 C 0.10974 0.24765 0.5517 0.0
C142 C 0.0793 0.21929 0.59492 0.0
C143 C 0.06716 0.22617 0.58989 0.0
C144 C 0.74817 0.81256 0.59641 0.0
C145 C 0.76086 0.81891 0.60696 0.0
C146 C 0.76769 0.83791 0.61165 0.0
C147 C 0.76202 0.85025 0.60594 0.0
H148 H 0.76709 0.90381 0.60991 0.0
H149 H 0.77608 0.93501 0.61972 0.0
H150 H 0.73904 0.94344 0.593 0.0
H151 H 0.73055 0.9125 0.5829 0.0
H152 H 0.72293 0.8893 0.55698 0.0
H153 H 0.70994 0.88309 0.53567 0.0
H154 H 0.70522 0.82622 0.53621 0.0
H155 H 0.7181 0.83227 0.55768 0.0
H156 H 0.73282 0.81963 0.58252 0.0
H157 H 0.74237 0.79792 0.59266 0.0
H158 H 0.77776 0.84342 0.61962 0.0
H159 H 0.76774 0.86484 0.60978 0.0
N160 N 0.74798 0.87438 0.5949 0.0
N161 N 0.73452 0.88246 0.57782 0.0
N162 N 0.73508 0.85302 0.57764 0.0
C163 C 0.74328 0.88696 0.58932 0.0
C164 C 0.73039 0.86555 0.57189 0.0
C165 C 0.74388 0.85735 0.58917 0.0
C166 C 0.74815 0.90565 0.59558 0.0
C167 C 0.76079 0.91226 0.60613 0.0
C168 C 0.76587 0.93014 0.61182 0.0
C169 C 0.75829 0.94177 0.60716 0.0
C170 C 0.74542 0.93502 0.59671 0.0
C171 C 0.74046 0.91721 0.59095 0.0
C172 C 0.72167 0.86132 0.55908 0.0
C173 C 0.71908 0.87541 0.55263 0.0
C174 C 0.71174 0.87192 0.54036 0.0
C175 C 0.70671 0.85424 0.53424 0.0
C176 C 0.70888 0.83995 0.54073 0.0
C177 C 0.71635 0.84347 0.55301 0.0
C178 C 0.74949 0.84399 0.59532 0.0
C179 C 0.7426 0.82499 0.59063 0.0
C180 C 0.17467 0.93965 0.59679 0.0
C181 C 0.16887 0.94671 0.60712 0.0
C182 C 0.14938 0.9354 0.61162 0.0
C183 C 0.13605 0.91753 0.60592 0.0
H184 H 0.08221 0.86705 0.61102 0.0
H185 H 0.05162 0.84396 0.62141 0.0
H186 H 0.04026 0.80091 0.59257 0.0
H187 H 0.07056 0.82413 0.58199 0.0
H188 H 0.09808 0.83683 0.55769 0.0
H189 H 0.1065 0.82984 0.53703 0.0
H190 H 0.15976 0.88656 0.5371 0.0
H191 H 0.15168 0.89341 0.55774 0.0
H192 H 0.16638 0.91697 0.58312 0.0
H193 H 0.18965 0.94773 0.59322 0.0
H194 H 0.14427 0.94048 0.61943 0.0
H195 H 0.12114 0.90927 0.60958 0.0
N196 N 0.11047 0.87892 0.59494 0.0
N197 N 0.10213 0.85733 0.57783 0.0
N198 N 0.13199 0.88729 0.57788 0.0
C199 C 0.09761 0.86161 0.58929 0.0
C200 C 0.11929 0.87014 0.57204 0.0
C201 C 0.12773 0.89181 0.58931 0.0
C202 C 0.07891 0.84752 0.59563 0.0
C203 C 0.07321 0.85268 0.60686 0.0
C204 C 0.05569 0.83938 0.61288 0.0
C205 C 0.04344 0.82055 0.60785 0.0
C206 C 0.04915 0.81538 0.59662 0.0
C207 C 0.06663 0.8287 0.59057 0.0
C208 C 0.1242 0.86568 0.55945 0.0
C209 C 0.11161 0.8478 0.55332 0.0
C210 C 0.11638 0.84382 0.54144 0.0
C211 C 0.13385 0.8576 0.53542 0.0
C212 C 0.14637 0.87546 0.54154 0.0
C213 C 0.14164 0.87944 0.55339 0.0
C214 C 0.14184 0.91061 0.59552 0.0
C215 C 0.16132 0.9219 0.59103 0.0
C216 C 0.92302 0.39954 0.748 0.0
C217 C 0.91005 0.39263 0.7376 0.0
C218 C 0.90225 0.4041 0.73297 0.0
C219 C 0.90715 0.42193 0.73867 0.0
H220 H 0.89879 0.46839 0.73538 0.0
H221 H 0.88801 0.48935 0.72562 0.0
H222 H 0.92184 0.53469 0.75294 0.0
H223 H 0.93281 0.51375 0.76279 0.0
H224 H 0.94916 0.50172 0.78735 0.0
H225 H 0.96247 0.50781 0.80874 0.0
H226 H 0.95867 0.45134 0.80885 0.0
H227 H 0.94531 0.4451 0.78765 0.0
H228 H 0.93776 0.42212 0.76179 0.0
H229 H 0.92957 0.39126 0.75168 0.0
H230 H 0.89197 0.39911 0.7251 0.0
H231 H 0.90065 0.43023 0.73493 0.0
N232 N 0.91917 0.45952 0.7501 0.0
N233 N 0.93191 0.48084 0.76739 0.0
N234 N 0.93334 0.45184 0.76698 0.0
C235 C 0.92292 0.47637 0.75592 0.0
C236 C 0.93713 0.46858 0.77299 0.0
C237 C 0.92441 0.44722 0.75552 0.0
C238 C 0.91667 0.48936 0.74991 0.0
C239 C 0.90402 0.48284 0.73933 0.0
C240 C 0.89772 0.49479 0.73376 0.0
C241 C 0.90403 0.5136 0.73855 0.0
C242 C 0.91685 0.52027 0.74901 0.0
C243 C 0.92304 0.50824 0.75468 0.0
C244 C 0.94606 0.47288 0.78576 0.0
C245 C 0.95121 0.49061 0.79192 0.0
C246 C 0.95891 0.49416 0.80415 0.0
C247 C 0.96146 0.47999 0.81049 0.0
C248 C 0.95657 0.46241 0.80428 0.0
C249 C 0.94902 0.45891 0.79206 0.0
C250 C 0.91984 0.42866 0.7492 0.0
C251 C 0.9278 0.41731 0.75376 0.0
C252 C 0.61632 0.5202 0.75169 0.0
C253 C 0.6218 0.51455 0.74056 0.0
C254 C 0.60953 0.49546 0.73592 0.0
C255 C 0.59221 0.48239 0.74221 0.0
H256 H 0.54623 0.42527 0.74142 0.0
H257 H 0.52368 0.39395 0.73162 0.0
H258 H 0.47667 0.38754 0.75611 0.0
H259 H 0.49951 0.41852 0.76627 0.0
H260 H 0.51657 0.4426 0.79309 0.0
H261 H 0.50923 0.45074 0.81366 0.0
H262 H 0.55934 0.50922 0.81071 0.0
H263 H 0.56667 0.50122 0.79004 0.0
H264 H 0.59527 0.51204 0.76651 0.0
H265 H 0.62524 0.53487 0.75544 0.0
H266 H 0.61342 0.4905 0.72748 0.0
H267 H 0.5832 0.46781 0.73834 0.0
N268 N 0.55555 0.45643 0.75472 0.0
N269 N 0.53428 0.44857 0.77189 0.0
N270 N 0.56379 0.47887 0.77129 0.0
C271 C 0.53852 0.4436 0.76058 0.0
C272 C 0.54686 0.46615 0.77735 0.0
C273 C 0.56825 0.47412 0.75997 0.0
C274 C 0.52471 0.42445 0.75465 0.0
C275 C 0.53109 0.41718 0.74474 0.0
C276 C 0.51808 0.39922 0.73905 0.0
C277 C 0.49825 0.38814 0.743 0.0
C278 C 0.49188 0.39544 0.75293 0.0
C279 C 0.50498 0.41331 0.75872 0.0
C280 C 0.54225 0.47123 0.78985 0.0
C281 C 0.52605 0.45723 0.79677 0.0
C282 C 0.52189 0.46184 0.80863 0.0
C283 C 0.53373 0.48061 0.81385 0.0
C284 C 0.54982 0.49468 0.80691 0.0
C285 C 0.55408 0.49004 0.79507 0.0
C286 C 0.58673 0.48803 0.75335 0.0
C287 C 0.59903 0.50711 0.75801 0.0
C288 C 0.49091 0.10546 0.75195 0.0
C289 C 0.49513 0.1155 0.74051 0.0
C290 C 0.51383 0.12196 0.73508 0.0
C291 C 0.5279 0.11838 0.7409 0.0
H292 H 0.57525 0.10576 0.73293 0.0
H293 H 0.60575 0.11285 0.72199 0.0
H294 H 0.63638 0.12293 0.75746 0.0
H295 H 0.60579 0.11534 0.76848 0.0
H296 H 0.56916 0.07825 0.78849 0.0
H297 H 0.56252 0.06358 0.80923 0.0
H298 H 0.51443 0.07557 0.81374 0.0
H299 H 0.52098 0.09026 0.79298 0.0
H300 H 0.50121 0.09429 0.76664 0.0
H301 H 0.47674 0.10048 0.75646 0.0
H302 H 0.5175 0.12956 0.72622 0.0
H303 H 0.5421 0.12354 0.7364 0.0
N304 N 0.5557 0.10865 0.75257 0.0
N305 N 0.56628 0.09816 0.77004 0.0
N306 N 0.53564 0.09731 0.77041 0.0
C307 C 0.56957 0.10549 0.75823 0.0
C308 C 0.54931 0.09395 0.77619 0.0
C309 C 0.53872 0.10468 0.75861 0.0
C310 C 0.58809 0.10996 0.75158 0.0
C311 C 0.58848 0.10948 0.73841 0.0
C312 C 0.60588 0.11346 0.73214 0.0
C313 C 0.62338 0.11847 0.7389 0.0
C314 C 0.62309 0.11919 0.75204 0.0
C315 C 0.60557 0.11476 0.75833 0.0
C316 C 0.54559 0.08545 0.78899 0.0
C317 C 0.5572 0.07786 0.79389 0.0
C318 C 0.55334 0.06933 0.80577 0.0
C319 C 0.53793 0.06837 0.81314 0.0
C320 C 0.52651 0.07622 0.80835 0.0
C321 C 0.53021 0.08454 0.7964 0.0
C322 C 0.52371 0.10838 0.75237 0.0
C323 C 0.50502 0.10202 0.75782 0.0
C324 C 0.71961 0.55651 0.92954 0.0
C325 C 0.71365 0.54542 0.94057 0.0
C326 C 0.72578 0.53848 0.94551 0.0
C327 C 0.74353 0.54267 0.9396 0.0
H328 H 0.79489 0.53852 0.944 0.0
H329 H 0.81928 0.53201 0.95403 0.0
H330 H 0.86139 0.56432 0.92498 0.0
H331 H 0.83696 0.57031 0.9148 0.0
H332 H 0.82159 0.57915 0.88994 0.0
H333 H 0.82884 0.59345 0.86919 0.0
H334 H 0.7752 0.59714 0.86995 0.0
H335 H 0.76763 0.58236 0.89066 0.0
H336 H 0.74127 0.56913 0.9151 0.0
H337 H 0.71049 0.56188 0.92541 0.0
H338 H 0.72168 0.53002 0.95404 0.0
H339 H 0.75254 0.53715 0.9437 0.0
N340 N 0.7817 0.55442 0.92795 0.0
N341 N 0.80281 0.56689 0.91066 0.0
N342 N 0.77243 0.56645 0.91063 0.0
C343 C 0.79904 0.55876 0.92224 0.0
C344 C 0.78962 0.57075 0.90476 0.0
C345 C 0.76832 0.55827 0.92222 0.0
C346 C 0.81386 0.55488 0.92854 0.0
C347 C 0.80934 0.54422 0.93974 0.0
C348 C 0.82339 0.54056 0.94554 0.0
C349 C 0.84234 0.54754 0.94031 0.0
C350 C 0.84685 0.55834 0.92917 0.0
C351 C 0.83282 0.5619 0.92335 0.0
C352 C 0.79401 0.57958 0.89205 0.0
C353 C 0.81128 0.58298 0.88573 0.0
C354 C 0.81553 0.59131 0.87381 0.0
C355 C 0.80266 0.59655 0.86787 0.0
C356 C 0.78533 0.59308 0.87416 0.0
C357 C 0.78105 0.5847 0.88609 0.0
C358 C 0.74948 0.55375 0.92855 0.0
C359 C 0.73723 0.56056 0.92358 0.0
C360 C 0.40411 0.14041 0.93585 0.0
C361 C 0.4132 0.14525 0.94776 0.0
C362 C 0.41664 0.16267 0.95359 0.0
C363 C 0.41179 0.17534 0.94745 0.0
H364 H 0.40282 0.22405 0.95234 0.0
H365 H 0.41115 0.25519 0.96214 0.0
H366 H 0.42226 0.28197 0.9256 0.0
H367 H 0.41298 0.25068 0.91584 0.0
H368 H 0.39129 0.22142 0.89293 0.0
H369 H 0.38117 0.21587 0.87102 0.0
H370 H 0.3702 0.15669 0.87344 0.0
H371 H 0.38011 0.16207 0.8955 0.0
H372 H 0.39271 0.14907 0.9204 0.0
H373 H 0.40094 0.12691 0.9312 0.0
H374 H 0.42379 0.16693 0.96271 0.0
H375 H 0.41516 0.18889 0.95211 0.0
N376 N 0.40402 0.20231 0.93389 0.0
N377 N 0.39663 0.21267 0.91511 0.0
N378 N 0.39436 0.18197 0.91609 0.0
C379 C 0.40229 0.21608 0.92734 0.0
C380 C 0.39252 0.19561 0.90942 0.0
C381 C 0.40014 0.18522 0.92833 0.0
C382 C 0.40718 0.2349 0.93332 0.0
C383 C 0.40697 0.2366 0.94642 0.0
C384 C 0.41187 0.2545 0.95204 0.0
C385 C 0.4174 0.27117 0.94469 0.0
C386 C 0.41766 0.2694 0.93157 0.0
C387 C 0.41245 0.25146 0.92596 0.0
C388 C 0.3865 0.19218 0.89603 0.0
C389 C 0.38673 0.20719 0.88884 0.0
C390 C 0.38107 0.20408 0.87624 0.0
C391 C 0.37496 0.18587 0.8705 0.0
C392 C 0.3747 0.17083 0.87764 0.0
C393 C 0.38047 0.17397 0.89027 0.0
C394 C 0.40344 0.17089 0.93531 0.0
C395 C 0.39931 0.15309 0.92968 0.0
C396 C 0.84377 0.2743 0.92754 0.0
C397 C 0.84016 0.27924 0.93952 0.0
C398 C 0.82281 0.2659 0.9458 0.0
C399 C 0.80935 0.24802 0.94022 0.0
H400 H 0.7555 0.19993 0.94543 0.0
H401 H 0.72571 0.17744 0.95674 0.0
H402 H 0.71102 0.13361 0.92792 0.0
H403 H 0.74097 0.15604 0.91656 0.0
H404 H 0.76678 0.16851 0.89122 0.0
H405 H 0.77286 0.16173 0.86984 0.0
H406 H 0.82472 0.21931 0.86811 0.0
H407 H 0.81863 0.22624 0.88928 0.0
H408 H 0.83354 0.25317 0.91267 0.0
H409 H 0.8569 0.28437 0.9224 0.0
H410 H 0.81973 0.26919 0.95511 0.0
H411 H 0.79615 0.23811 0.94536 0.0
N412 N 0.78203 0.2111 0.92847 0.0
N413 N 0.77211 0.18944 0.91133 0.0
N414 N 0.80167 0.21966 0.9105 0.0
C415 C 0.76875 0.19373 0.92311 0.0
C416 C 0.78856 0.20238 0.90495 0.0
C417 C 0.79854 0.22413 0.92226 0.0
C418 C 0.75068 0.17984 0.93004 0.0
C419 C 0.746 0.1855 0.94147 0.0
C420 C 0.72886 0.17265 0.94795 0.0
C421 C 0.71602 0.15379 0.94321 0.0
C422 C 0.72075 0.14801 0.93186 0.0
C423 C 0.73785 0.16092 0.92532 0.0
C424 C 0.79218 0.19795 0.89201 0.0
C425 C 0.77947 0.17975 0.88628 0.0
C426 C 0.78299 0.17581 0.87405 0.0
C427 C 0.79921 0.19002 0.86726 0.0
C428 C 0.81191 0.20816 0.873 0.0
C429 C 0.80846 0.21207 0.88521 0.0
C430 C 0.8129 0.24307 0.92821 0.0
C431 C 0.83029 0.25643 0.92194 0.0
C432 C 0.59926 0.73827 0.07452 0.0
C433 C 0.58815 0.73241 0.06328 0.0
C434 C 0.58117 0.74434 0.05827 0.0
C435 C 0.58516 0.76165 0.06434 0.0
H436 H 0.58059 0.80988 0.05953 0.0
H437 H 0.57322 0.83236 0.04855 0.0
H438 H 0.60306 0.87561 0.0778 0.0
H439 H 0.60993 0.85281 0.08906 0.0
H440 H 0.62034 0.83817 0.11497 0.0
H441 H 0.63051 0.84304 0.13699 0.0
H442 H 0.62443 0.7856 0.13772 0.0
H443 H 0.6141 0.78057 0.11585 0.0
H444 H 0.61167 0.75956 0.08929 0.0
H445 H 0.60514 0.72961 0.07854 0.0
H446 H 0.57227 0.74013 0.04977 0.0
H447 H 0.57938 0.77035 0.06024 0.0
N448 N 0.59656 0.79876 0.07615 0.0
N449 N 0.60646 0.81883 0.09408 0.0
N450 N 0.60648 0.7891 0.09421 0.0
C451 C 0.59984 0.81544 0.08199 0.0
C452 C 0.60976 0.80566 0.10027 0.0
C453 C 0.5999 0.78556 0.08215 0.0
C454 C 0.59583 0.82949 0.07522 0.0
C455 C 0.58567 0.8242 0.06364 0.0
C456 C 0.58154 0.83717 0.05727 0.0
C457 C 0.58758 0.85585 0.06225 0.0
C458 C 0.59794 0.86124 0.07377 0.0
C459 C 0.60195 0.84819 0.08021 0.0
C460 C 0.61636 0.80896 0.11359 0.0
C461 C 0.62116 0.82657 0.11981 0.0
C462 C 0.62708 0.82941 0.13242 0.0
C463 C 0.62818 0.81467 0.13911 0.0
C464 C 0.62344 0.79713 0.13288 0.0
C465 C 0.61765 0.79432 0.12029 0.0
C466 C 0.59605 0.76738 0.07564 0.0
C467 C 0.60308 0.7555 0.08065 0.0
C468 C 0.27847 0.85639 0.07764 0.0
C469 C 0.2858 0.84981 0.06783 0.0
C470 C 0.2764 0.82961 0.06531 0.0
C471 C 0.25997 0.81641 0.07222 0.0
H472 H 0.21278 0.76005 0.07037 0.0
H473 H 0.19013 0.72838 0.06098 0.0
H474 H 0.14482 0.72068 0.0874 0.0
H475 H 0.16774 0.75201 0.0971 0.0
H476 H 0.18398 0.77682 0.12237 0.0
H477 H 0.17741 0.78378 0.1434 0.0
H478 H 0.22921 0.84142 0.14188 0.0
H479 H 0.23579 0.8346 0.12062 0.0
H480 H 0.2568 0.84869 0.09209 0.0
H481 H 0.28509 0.87183 0.07976 0.0
H482 H 0.28184 0.82389 0.05805 0.0
H483 H 0.25312 0.80097 0.06997 0.0
N484 N 0.22236 0.791 0.084 0.0
N485 N 0.20214 0.78275 0.10168 0.0
N486 N 0.23096 0.81356 0.10057 0.0
C487 C 0.20589 0.7779 0.09021 0.0
C488 C 0.2146 0.80047 0.10698 0.0
C489 C 0.23491 0.80887 0.08906 0.0
C490 C 0.19209 0.75859 0.0845 0.0
C491 C 0.19799 0.7516 0.07419 0.0
C492 C 0.18493 0.73345 0.06875 0.0
C493 C 0.16557 0.72193 0.07339 0.0
C494 C 0.1597 0.72897 0.0837 0.0
C495 C 0.17283 0.74702 0.08923 0.0
C496 C 0.21048 0.80512 0.11974 0.0
C497 C 0.19403 0.79102 0.12644 0.0
C498 C 0.1903 0.79495 0.13857 0.0
C499 C 0.20287 0.81309 0.14436 0.0
C500 C 0.21918 0.82734 0.13764 0.0
C501 C 0.22298 0.82338 0.12547 0.0
C502 C 0.25264 0.82299 0.08198 0.0
C503 C 0.26217 0.84312 0.08469 0.0
C504 C 0.15814 0.43677 0.08588 0.0
C505 C 0.16251 0.44701 0.07452 0.0
C506 C 0.18119 0.4534 0.06909 0.0
C507 C 0.1951 0.44952 0.07483 0.0
H508 H 0.24367 0.44207 0.06655 0.0
H509 H 0.27401 0.44941 0.05547 0.0
H510 H 0.3004 0.4452 0.09017 0.0
H511 H 0.27007 0.43778 0.1013 0.0
H512 H 0.23519 0.40725 0.12176 0.0
H513 H 0.22868 0.39274 0.14256 0.0
H514 H 0.18141 0.40585 0.14739 0.0
H515 H 0.18784 0.42038 0.12659 0.0
H516 H 0.16817 0.42511 0.10042 0.0
H517 H 0.14397 0.43183 0.09038 0.0
H518 H 0.18496 0.46116 0.06029 0.0
H519 H 0.20929 0.4546 0.07033 0.0
N520 N 0.22237 0.43883 0.08618 0.0
N521 N 0.23255 0.42744 0.10337 0.0
N522 N 0.20236 0.42746 0.10403 0.0
C523 C 0.23597 0.43507 0.09163 0.0
C524 C 0.21577 0.42356 0.10964 0.0
C525 C 0.20553 0.4351 0.0923 0.0
C526 C 0.25438 0.43934 0.08485 0.0
C527 C 0.25591 0.4427 0.07185 0.0
C528 C 0.27327 0.44679 0.06547 0.0
C529 C 0.28961 0.44792 0.07195 0.0
C530 C 0.28812 0.44461 0.08493 0.0
C531 C 0.27067 0.44024 0.09129 0.0
C532 C 0.21204 0.415 0.12243 0.0
C533 C 0.22344 0.40712 0.12724 0.0
C534 C 0.21964 0.39868 0.13915 0.0
C535 C 0.20452 0.39812 0.14663 0.0
C536 C 0.19328 0.40621 0.14191 0.0
C537 C 0.19691 0.41443 0.12993 0.0
C538 C 0.19075 0.43928 0.08621 0.0
C539 C 0.1721 0.43302 0.09168 0.0
C540 C 0.37601 0.8774 0.26172 0.0
C541 C 0.37629 0.8795 0.27481 0.0
C542 C 0.39396 0.88493 0.28146 0.0
C543 C 0.41104 0.88806 0.27515 0.0
H544 H 0.45723 0.87277 0.27758 0.0
H545 H 0.48199 0.8666 0.28739 0.0
H546 H 0.52246 0.89669 0.25714 0.0
H547 H 0.49762 0.90232 0.24718 0.0
H548 H 0.48034 0.90756 0.2221 0.0
H549 H 0.48698 0.92058 0.20103 0.0
H550 H 0.4328 0.92328 0.20133 0.0
H551 H 0.42584 0.90981 0.22244 0.0
H552 H 0.39261 0.87942 0.24526 0.0
H553 H 0.36257 0.87332 0.25639 0.0
H554 H 0.39451 0.8866 0.29156 0.0
H555 H 0.42445 0.89222 0.28053 0.0
N556 N 0.44322 0.8875 0.26123 0.0
N557 N 0.46279 0.8975 0.24319 0.0
N558 N 0.43208 0.89642 0.24325 0.0
C559 C 0.46007 0.8911 0.2552 0.0
C560 C 0.44895 0.90023 0.23713 0.0
C561 C 0.42915 0.8901 0.25532 0.0
C562 C 0.47533 0.88795 0.26153 0.0
C563 C 0.47142 0.8781 0.27303 0.0
C564 C 0.48568 0.87463 0.2787 0.0
C565 C 0.50422 0.88101 0.27303 0.0
C566 C 0.50821 0.89117 0.26165 0.0
C567 C 0.49395 0.89452 0.25596 0.0
C568 C 0.45256 0.90767 0.22407 0.0
C569 C 0.46975 0.91086 0.21772 0.0
C570 C 0.47366 0.91846 0.20562 0.0
C571 C 0.46053 0.92315 0.19949 0.0
C572 C 0.44316 0.91969 0.20572 0.0
C573 C 0.43922 0.91204 0.21787 0.0
C574 C 0.4109 0.88629 0.26202 0.0
C575 C 0.39322 0.88099 0.25537 0.0
C576 C 0.0906 0.48622 0.26455 0.0
C577 C 0.09033 0.48514 0.27773 0.0
C578 C 0.08442 0.49663 0.28458 0.0
C579 C 0.07936 0.50916 0.27844 0.0
H580 H 0.09567 0.56924 0.28047 0.0
H581 H 0.10471 0.60061 0.29006 0.0
H582 H 0.07155 0.61081 0.26133 0.0
H583 H 0.06305 0.5797 0.25148 0.0
H584 H 0.05861 0.55775 0.22536 0.0
H585 H 0.0466 0.55181 0.20381 0.0
H586 H 0.04158 0.49481 0.20463 0.0
H587 H 0.05341 0.50057 0.2263 0.0
H588 H 0.08575 0.49908 0.24828 0.0
H589 H 0.09546 0.47796 0.25893 0.0
H590 H 0.08359 0.49594 0.2947 0.0
H591 H 0.07503 0.51793 0.28399 0.0
N592 N 0.07807 0.54045 0.26479 0.0
N593 N 0.06747 0.5498 0.24685 0.0
N594 N 0.06821 0.52047 0.2468 0.0
C595 C 0.07438 0.5535 0.25884 0.0
C596 C 0.0643 0.53332 0.24076 0.0
C597 C 0.075 0.52392 0.25884 0.0
C598 C 0.07872 0.57198 0.26515 0.0
C599 C 0.09018 0.57809 0.27623 0.0
C600 C 0.0953 0.59608 0.28178 0.0
C601 C 0.08892 0.6083 0.27646 0.0
C602 C 0.07703 0.60194 0.26555 0.0
C603 C 0.07206 0.58403 0.25994 0.0
C604 C 0.057 0.52964 0.22761 0.0
C605 C 0.05496 0.54392 0.22099 0.0
C606 C 0.04819 0.54059 0.20859 0.0
C607 C 0.04321 0.52288 0.20251 0.0
C608 C 0.04515 0.50855 0.20911 0.0
C609 C 0.05203 0.51191 0.22151 0.0
C610 C 0.0797 0.5102 0.2653 0.0
C611 C 0.08514 0.49844 0.25841 0.0
C612 C 0.51163 0.60481 0.25973 0.0
C613 C 0.50626 0.61178 0.2703 0.0
C614 C 0.48704 0.60041 0.27516 0.0
C615 C 0.47356 0.5825 0.26961 0.0
H616 H 0.42063 0.53349 0.27568 0.0
H617 H 0.39082 0.51123 0.28706 0.0
H618 H 0.37664 0.46657 0.25891 0.0
H619 H 0.40664 0.48877 0.2475 0.0
H620 H 0.43196 0.50145 0.22179 0.0
H621 H 0.4382 0.4945 0.2005 0.0
H622 H 0.49268 0.55015 0.19985 0.0
H623 H 0.48643 0.55728 0.22092 0.0
H624 H 0.50276 0.58206 0.246 0.0
H625 H 0.5264 0.61301 0.25585 0.0
H626 H 0.48225 0.60545 0.28315 0.0
H627 H 0.45886 0.57421 0.27358 0.0
N628 N 0.44768 0.54399 0.25913 0.0
N629 N 0.43801 0.52201 0.24216 0.0
N630 N 0.46796 0.5519 0.24149 0.0
C631 C 0.43437 0.52661 0.25379 0.0
C632 C 0.45479 0.53464 0.23593 0.0
C633 C 0.46452 0.55669 0.25307 0.0
C634 C 0.41609 0.51296 0.26064 0.0
C635 C 0.41122 0.51893 0.27188 0.0
C636 C 0.39406 0.50621 0.27839 0.0
C637 C 0.38138 0.48716 0.27388 0.0
C638 C 0.38624 0.48111 0.26268 0.0
C639 C 0.40337 0.49389 0.25611 0.0
C640 C 0.45863 0.52997 0.22311 0.0
C641 C 0.44528 0.51221 0.21712 0.0
C642 C 0.44888 0.50817 0.20493 0.0
C643 C 0.46587 0.52183 0.19845 0.0
C644 C 0.47928 0.53946 0.20449 0.0
C645 C 0.47572 0.54348 0.21664 0.0
C646 C 0.4789 0.57561 0.259 0.0
C647 C 0.49808 0.58698 0.25411 0.0
Eu648 Eu 0.49075 0.98641 0.9886 0.0
C649 C 0.53846 0.05795 0.02204 0.0
C650 C 0.57184 0.0637 0.01917 0.0
C651 C 0.56655 0.09112 0.02306 0.0
C652 C 0.55113 0.05086 0.01963 0.0
C653 C 0.54606 0.0781 0.02422 0.0
C654 C 0.57943 0.08392 0.02053 0.0
C655 C 0.51306 0.07065 0.0302 0.0
N656 N 0.51886 0.04494 0.02331 0.0
C657 C 0.50635 0.0508 0.02808 0.0
C658 C 0.53296 0.08442 0.02804 0.0
Eu659 Eu 0.50819 0.01157 0.01913 0.0
N660 N 0.54328 0.03125 0.01843 0.0
C661 C 0.55541 0.02339 0.01758 0.0
C662 C 0.5843 0.05578 0.01772 0.0
C663 C 0.57605 0.03551 0.01714 0.0
H664 H 0.491 0.0401 0.02987 0.0
H665 H 0.58557 0.0292 0.01624 0.0
H666 H 0.59526 0.09404 0.02002 0.0
H667 H 0.50294 0.07528 0.03358 0.0
H668 H 0.54926 0.00779 0.01703 0.0
H669 H 0.44552 0.00053 0.95554 0.0
H670 H 0.60028 0.06514 0.0173 0.0
H671 H 0.47878 0.94388 0.00292 0.0
H672 H 0.4765 0.00589 0.96586 0.0
H673 H 0.44927 0.91204 0.0069 0.0
H674 H 0.57265 0.10668 0.02453 0.0
H675 H 0.41327 0.97198 0.96134 0.0
H676 H 0.39486 0.94055 0.97323 0.0
H677 H 0.5382 0.09977 0.02981 0.0
H678 H 0.39601 0.91614 0.98693 0.0
N679 N 0.46166 0.98181 0.97814 0.0
C680 C 0.46238 0.99373 0.96865 0.0
C681 C 0.42678 0.9745 0.96602 0.0
C682 C 0.42643 0.96121 0.9748 0.0
C683 C 0.44493 0.99063 0.96273 0.0
C684 C 0.44444 0.96518 0.98062 0.0
H685 H 0.4163 0.90508 0.9991 0.0
N686 N 0.46297 0.95529 0.993 0.0
C687 C 0.44787 0.92301 0.00167 0.0
C688 C 0.44514 0.95139 0.98818 0.0
C689 C 0.46464 0.94122 0.99941 0.0
C690 C 0.42929 0.91914 0.99726 0.0
C691 C 0.42776 0.93332 0.99032 0.0
O692 O 0.4935 0.9647 0.97727 0.0
O693 O 0.51723 0.00797 0.9999 0.0
O694 O 0.49895 0.02952 0.00712 0.0
O695 O 0.48004 0.00837 0.99062 0.0
O696 O 0.513 0.01663 0.98222 0.0
O697 O 0.50328 0.99335 0.96978 0.0
O698 O 0.49381 0.00744 0.03735 0.0
O699 O 0.484 0.98551 0.00899 0.0
O700 O 0.50876 0.97433 0.99792 0.0
O701 O 0.51289 0.98562 0.01855 0.0
O702 O 0.47567 0.00159 0.02062 0.0
O703 O 0.51994 0.00477 0.03584 0.0
C704 C 0.5244 0.02167 0.99198 0.0
C705 C 0.4888 0.96711 0.95534 0.0
C706 C 0.48602 0.96988 0.93263 0.0
C707 C 0.49596 0.97768 0.94413 0.0
C708 C 0.46878 0.95134 0.93251 0.0
C709 C 0.4714 0.94871 0.95496 0.0
C710 C 0.46152 0.94092 0.9436 0.0
C711 C 0.48666 0.02465 0.99737 0.0
C712 C 0.49939 0.97565 0.96733 0.0
C713 C 0.40955 0.92981 0.98522 0.0
C714 C 0.40889 0.94373 0.97746 0.0
C715 C 0.46939 0.98666 0.01323 0.0
C716 C 0.51434 0.01538 0.0553 0.0
C717 C 0.50792 0.00521 0.06664 0.0
C718 C 0.51518 0.01503 0.07821 0.0
C719 C 0.52881 0.03526 0.07818 0.0
C720 C 0.52804 0.03549 0.0555 0.0
C721 C 0.53516 0.04537 0.0669 0.0
C722 C 0.51412 0.9745 0.00974 0.0
C723 C 0.50682 0.00475 0.04336 0.0
H724 H 0.50934 0.99191 0.94434 0.0
H725 H 0.46071 0.94504 0.92385 0.0
H726 H 0.46535 0.94035 0.96343 0.0
H727 H 0.44812 0.92675 0.9434 0.0
H728 H 0.49758 0.9896 0.06643 0.0
H729 H 0.53446 0.04333 0.08689 0.0
H730 H 0.53329 0.04352 0.04687 0.0
H731 H 0.54568 0.06091 0.06699 0.0
Eu732 Eu 0.02236 0.5039 0.9934 0.0
C733 C 0.93929 0.47703 0.01749 0.0
C734 C 0.93255 0.50345 0.01384 0.0
C735 C 0.90517 0.47003 0.01524 0.0
C736 C 0.94612 0.4967 0.01563 0.0
C737 C 0.91873 0.46353 0.01762 0.0
C738 C 0.91207 0.48996 0.01336 0.0
C739 C 0.92644 0.43853 0.02359 0.0
N740 N 0.95275 0.47127 0.0199 0.0
C741 C 0.94667 0.4525 0.02343 0.0
C742 C 0.9124 0.44401 0.02051 0.0
Eu743 Eu 0.98672 0.49557 0.0191 0.0
N744 N 0.966 0.50936 0.01622 0.0
C745 C 0.9732 0.52907 0.01596 0.0
C746 C 0.93993 0.52359 0.01291 0.0
C747 C 0.96033 0.53646 0.01415 0.0
H748 H 0.95752 0.44823 0.02576 0.0
H749 H 0.96617 0.55208 0.01365 0.0
H750 H 0.90144 0.49484 0.01184 0.0
H751 H 0.92169 0.42356 0.02608 0.0
H752 H 0.98892 0.5392 0.01685 0.0
H753 H 0.0421 0.44701 1.00058 0.0
H754 H 0.93001 0.52935 0.01148 0.0
H755 H 0.05176 0.54939 0.98359 0.0
H756 H 0.01974 0.46008 0.99671 0.0
H757 H 0.08764 0.5735 0.98204 0.0
H758 H 0.88932 0.45985 0.01518 0.0
H759 H 0.07835 0.46946 0.00248 0.0
H760 H 0.10726 0.50371 1.00107 0.0
H761 H 0.89673 0.43318 0.02069 0.0
H762 H 0.11974 0.53831 0.99604 0.0
N763 N 0.04289 0.48987 0.99676 0.0
C764 C 0.03548 0.47014 0.99746 0.0
C765 C 0.06858 0.47533 1.00077 0.0
C766 C 0.07621 0.49541 0.99921 0.0
C767 C 0.04814 0.46262 0.99967 0.0
C768 C 0.06281 0.50228 0.99708 0.0
H769 H 0.11255 0.56441 0.98865 0.0
N770 N 0.05645 0.52733 0.99143 0.0
C771 C 0.08285 0.55902 0.98562 0.0
C772 C 0.06982 0.52169 0.99436 0.0
C773 C 0.06258 0.54536 0.98649 0.0
C774 C 0.09685 0.55386 0.9894 0.0
C775 C 0.09042 0.53485 0.99357 0.0
O776 O 0.02213 0.51307 0.97415 0.0
O777 O 0.99507 0.50406 0.99932 0.0
O778 O 0.97041 0.473 0.00396 0.0
O779 O 0.99697 0.47217 0.99451 0.0
O780 O 0.01356 0.52629 0.98752 0.0
O781 O 0.01684 0.4839 0.97772 0.0
O782 O 0.98513 0.48493 0.03814 0.0
O783 O 0.01454 0.49607 0.01346 0.0
O784 O 0.03865 0.52895 0.00719 0.0
O785 O 0.01225 0.52721 0.01889 0.0
O786 O 0.99544 0.47312 0.02468 0.0
O787 O 0.99121 0.51458 0.03517 0.0
C788 C 0.99695 0.51868 0.99344 0.0
C789 C 0.03272 0.49891 0.95883 0.0
C790 C 0.03858 0.50071 0.9363 0.0
C791 C 0.02612 0.49825 0.94649 0.0
C792 C 0.0578 0.50385 0.93871 0.0
C793 C 0.05188 0.50198 0.96105 0.0
C794 C 0.06435 0.50445 0.95101 0.0
C795 C 0.97771 0.4645 0.99672 0.0
C796 C 0.01955 0.49683 0.96924 0.0
C797 C 0.10385 0.52837 0.99643 0.0
C798 C 0.09675 0.50867 0.99927 0.0
C799 C 0.01246 0.48127 0.01924 0.0
C800 C 0.97411 0.49867 0.05355 0.0
C801 C 0.98057 0.49993 0.06598 0.0
C802 C 0.96781 0.49745 0.07599 0.0
C803 C 0.94844 0.49368 0.07332 0.0
C804 C 0.95479 0.49496 0.05106 0.0
C805 C 0.94202 0.49247 0.06092 0.0
C806 C 0.03113 0.53619 0.01537 0.0
C807 C 0.98771 0.50102 0.04335 0.0
H808 H 0.01118 0.4956 0.94486 0.0
H809 H 0.06786 0.50607 0.9311 0.0
H810 H 0.0572 0.50249 0.9705 0.0
H811 H 0.07916 0.5069 0.95278 0.0
H812 H 0.99564 0.50311 0.06782 0.0
H813 H 0.93817 0.49145 0.0808 0.0
H814 H 0.94959 0.494 0.04155 0.0
H815 H 0.92709 0.48953 0.05895 0.0
Eu816 Eu 0.51169 0.49724 0.01707 0.0
C817 C 0.44633 0.49949 0.99161 0.0
C818 C 0.426 0.474 0.97665 0.0
C819 C 0.41082 0.48766 0.99015 0.0
C820 C 0.44452 0.48621 0.98251 0.0
C821 C 0.42955 0.50066 0.99536 0.0
C822 C 0.40905 0.47436 0.98078 0.0
C823 C 0.45123 0.52829 0.00846 0.0
N824 N 0.46465 0.51186 0.99642 0.0
C825 C 0.4674 0.5265 0.0045 0.0
C826 C 0.43217 0.51514 0.00402 0.0
Eu827 Eu 0.49129 0.50797 0.98909 0.0
N828 N 0.46118 0.48636 0.97867 0.0
C829 C 0.4609 0.47674 0.96793 0.0
C830 C 0.42528 0.4625 0.9664 0.0
C831 C 0.4429 0.46422 0.96185 0.0
H832 H 0.48195 0.5367 0.00809 0.0
H833 H 0.44268 0.45611 0.95358 0.0
H834 H 0.39465 0.4649 0.97652 0.0
H835 H 0.45348 0.53973 0.01503 0.0
H836 H 0.47464 0.47858 0.96421 0.0
H837 H 0.58911 0.55393 0.01052 0.0
H838 H 0.41136 0.45296 0.96161 0.0
H839 H 0.49462 0.45175 0.02689 0.0
H840 H 0.55325 0.54072 0.01335 0.0
H841 H 0.50578 0.42741 0.0287 0.0
H842 H 0.39772 0.48815 0.99304 0.0
H843 H 0.60278 0.53156 0.00971 0.0
H844 H 0.5969 0.49731 0.01136 0.0
H845 H 0.41966 0.51649 0.00716 0.0
H846 H 0.57403 0.46262 0.01599 0.0
N847 N 0.5464 0.51106 0.01408 0.0
C848 C 0.55891 0.53075 0.01309 0.0
C849 C 0.58698 0.52567 0.01102 0.0
C850 C 0.57421 0.5056 0.01254 0.0
C851 C 0.57933 0.53834 0.0115 0.0
C852 C 0.55376 0.49869 0.0142 0.0
H853 H 0.54003 0.43642 0.02268 0.0
N854 N 0.52173 0.47357 0.01909 0.0
C855 C 0.51578 0.44187 0.02515 0.0
C856 C 0.54094 0.47924 0.01665 0.0
C857 C 0.50948 0.4556 0.02407 0.0
C858 C 0.5351 0.447 0.02171 0.0
C859 C 0.54813 0.46606 0.01772 0.0
O860 O 0.49932 0.48685 0.03569 0.0
O861 O 0.48708 0.50148 0.00956 0.0
O862 O 0.51123 0.53684 0.99894 0.0
O863 O 0.51802 0.52839 0.01848 0.0
O864 O 0.47914 0.47631 0.01996 0.0
O865 O 0.5266 0.51424 0.03392 0.0
O866 O 0.49275 0.53341 0.97993 0.0
O867 O 0.5186 0.5102 0.99795 0.0
O868 O 0.49891 0.47032 0.00425 0.0
O869 O 0.47886 0.47494 0.98955 0.0
O870 O 0.51086 0.49812 0.9799 0.0
O871 O 0.50311 0.5163 0.97019 0.0
C872 C 0.47254 0.48612 0.01401 0.0
C873 C 0.52205 0.4965 0.05254 0.0
C874 C 0.52294 0.49311 0.07523 0.0
C875 C 0.51538 0.49765 0.06453 0.0
C876 C 0.5372 0.48725 0.07369 0.0
C877 C 0.53634 0.49073 0.05119 0.0
C878 C 0.54381 0.48607 0.06174 0.0
C879 C 0.51846 0.54128 0.01047 0.0
C880 C 0.51389 0.50141 0.0416 0.0
C881 C 0.56826 0.47258 0.01538 0.0
C882 C 0.58129 0.49233 0.01279 0.0
C883 C 0.52362 0.50307 0.98893 0.0
C884 C 0.48692 0.5289 0.95788 0.0
C885 C 0.49282 0.52553 0.94611 0.0
C886 C 0.48166 0.52361 0.93519 0.0
C887 C 0.4646 0.52543 0.93623 0.0
C888 C 0.46972 0.5305 0.95865 0.0
C889 C 0.45872 0.52884 0.94787 0.0
C890 C 0.48534 0.46406 0.99509 0.0
C891 C 0.4984 0.52988 0.96924 0.0
H892 H 0.50458 0.50244 0.06552 0.0
H893 H 0.54313 0.48343 0.08171 0.0
H894 H 0.54178 0.48992 0.04204 0.0
H895 H 0.55479 0.48156 0.06065 0.0
H896 H 0.50583 0.52388 0.94553 0.0
H897 H 0.45584 0.52436 0.92802 0.0
H898 H 0.46466 0.53288 0.96758 0.0
H899 H 0.44552 0.53013 0.94854 0.0
Eu900 Eu 0.15814 0.31916 0.32227 0.0
C901 C 0.2076 0.39164 0.3546 0.0
C902 C 0.24046 0.39608 0.35166 0.0
C903 C 0.23647 0.42436 0.35519 0.0
C904 C 0.21967 0.38382 0.35231 0.0
C905 C 0.21589 0.41194 0.35652 0.0
C906 C 0.24874 0.41643 0.35275 0.0
C907 C 0.18339 0.40581 0.36263 0.0
N908 N 0.1879 0.37919 0.35602 0.0
C909 C 0.17597 0.38579 0.36073 0.0
C910 C 0.20338 0.41901 0.36027 0.0
Eu911 Eu 0.17597 0.34548 0.35234 0.0
N912 N 0.21115 0.36412 0.35136 0.0
C913 C 0.22269 0.3556 0.35059 0.0
C914 C 0.25231 0.38746 0.35031 0.0
C915 C 0.2434 0.36711 0.34999 0.0
H916 H 0.16054 0.37554 0.36267 0.0
H917 H 0.25244 0.36027 0.34916 0.0
H918 H 0.26465 0.4261 0.3521 0.0
H919 H 0.17371 0.41103 0.36596 0.0
H920 H 0.21605 0.33994 0.35025 0.0
H921 H 0.11396 0.331 0.28727 0.0
H922 H 0.26834 0.39635 0.34977 0.0
H923 H 0.1453 0.27754 0.33815 0.0
H924 H 0.14468 0.33644 0.29806 0.0
H925 H 0.1153 0.24669 0.34326 0.0
H926 H 0.2431 0.44002 0.35646 0.0
H927 H 0.0813 0.30387 0.2939 0.0
H928 H 0.06222 0.27388 0.30709 0.0
H929 H 0.20916 0.4345 0.36186 0.0
H930 H 0.06271 0.25053 0.3221 0.0
N931 N 0.12928 0.31413 0.31141 0.0
C932 C 0.13037 0.32505 0.30124 0.0
C933 C 0.09469 0.3065 0.2988 0.0
C934 C 0.09395 0.29401 0.30831 0.0
C935 C 0.11307 0.32183 0.29503 0.0
C936 C 0.11184 0.29809 0.31435 0.0
H937 H 0.0825 0.23996 0.33529 0.0
N938 N 0.12995 0.28869 0.3275 0.0
C939 C 0.11418 0.25733 0.33747 0.0
C940 C 0.1122 0.28485 0.32258 0.0
C941 C 0.13124 0.27498 0.33457 0.0
C942 C 0.0957 0.2536 0.33297 0.0
C943 C 0.09455 0.26729 0.32528 0.0
O944 O 0.15984 0.29637 0.3115 0.0
O945 O 0.18482 0.34116 0.33323 0.0
O946 O 0.16643 0.36299 0.33997 0.0
O947 O 0.14769 0.34147 0.32352 0.0
O948 O 0.18022 0.34909 0.31539 0.0
O949 O 0.17134 0.32503 0.30362 0.0
O950 O 0.16211 0.34307 0.37058 0.0
O951 O 0.1516 0.31914 0.34262 0.0
O952 O 0.1759 0.3072 0.33199 0.0
O953 O 0.17959 0.31885 0.35251 0.0
O954 O 0.14349 0.33592 0.35357 0.0
O955 O 0.18698 0.33833 0.36926 0.0
C956 C 0.19178 0.35453 0.32508 0.0
C957 C 0.15588 0.2985 0.28944 0.0
C958 C 0.15316 0.30124 0.26671 0.0
C959 C 0.16312 0.30903 0.27821 0.0
C960 C 0.13581 0.28279 0.2666 0.0
C961 C 0.13839 0.28017 0.28905 0.0
C962 C 0.12849 0.27241 0.2777 0.0
C963 C 0.15432 0.358 0.33007 0.0
C964 C 0.16645 0.30697 0.30145 0.0
C965 C 0.07645 0.26378 0.31998 0.0
C966 C 0.07616 0.27711 0.31148 0.0
C967 C 0.13698 0.32044 0.34667 0.0
C968 C 0.18248 0.35021 0.38858 0.0
C969 C 0.1764 0.34021 0.40002 0.0
C970 C 0.18422 0.35016 0.41149 0.0
C971 C 0.19804 0.37035 0.41126 0.0
C972 C 0.19639 0.37025 0.3886 0.0
C973 C 0.20405 0.38026 0.3999 0.0
C974 C 0.1808 0.30743 0.34391 0.0
C975 C 0.17441 0.33947 0.37671 0.0
H976 H 0.17658 0.32319 0.2784 0.0
H977 H 0.12772 0.27651 0.25794 0.0
H978 H 0.13228 0.27182 0.29752 0.0
H979 H 0.11501 0.2583 0.2775 0.0
H980 H 0.16589 0.32464 0.39995 0.0
H981 H 0.2041 0.37855 0.41988 0.0
H982 H 0.20138 0.37815 0.3799 0.0
H983 H 0.21471 0.39576 0.39985 0.0
Eu984 Eu 0.68539 0.83818 0.32389 0.0
C985 C 0.60324 0.81333 0.34913 0.0
C986 C 0.59816 0.84069 0.34516 0.0
C987 C 0.56968 0.80805 0.34726 0.0
C988 C 0.61097 0.83302 0.34693 0.0
C989 C 0.58251 0.80072 0.34976 0.0
C990 C 0.5775 0.82802 0.34496 0.0
C991 C 0.58876 0.77533 0.35703 0.0
N992 N 0.61603 0.80685 0.35178 0.0
C993 C 0.60919 0.78848 0.35638 0.0
C994 C 0.57534 0.78136 0.35347 0.0
Eu995 Eu 0.65042 0.82953 0.35023 0.0
N996 N 0.63099 0.84487 0.34736 0.0
C997 C 0.63909 0.86472 0.34705 0.0
C998 C 0.60648 0.86093 0.34405 0.0
C999 C 0.62702 0.87302 0.34521 0.0
H1000 H 0.61958 0.78384 0.35916 0.0
H1001 H 0.63359 0.88873 0.34464 0.0
H1002 H 0.56744 0.83361 0.34345 0.0
H1003 H 0.5834 0.76058 0.36029 0.0
H1004 H 0.65491 0.87432 0.34786 0.0
H1005 H 0.70294 0.77953 0.32991 0.0
H1006 H 0.59717 0.8674 0.34262 0.0
H1007 H 0.71581 0.8838 0.31463 0.0
H1008 H 0.68135 0.79359 0.32651 0.0
H1009 H 0.75191 0.90723 0.31325 0.0
H1010 H 0.5537 0.79854 0.34754 0.0
H1011 H 0.73934 0.80114 0.3318 0.0
H1012 H 0.76887 0.83503 0.33069 0.0
H1013 H 0.55952 0.77121 0.35408 0.0
H1014 H 0.78228 0.86996 0.32623 0.0
N1015 N 0.70509 0.82313 0.32676 0.0
C1016 C 0.69716 0.80331 0.32724 0.0
C1017 C 0.72991 0.80745 0.33028 0.0
C1018 C 0.73806 0.82764 0.32897 0.0
C1019 C 0.70939 0.79521 0.32919 0.0
C1020 C 0.7251 0.83511 0.32708 0.0
H1021 H 0.77609 0.89697 0.31945 0.0
N1022 N 0.71969 0.86099 0.32204 0.0
C1023 C 0.74671 0.89255 0.31659 0.0
C1024 C 0.73264 0.85471 0.3247 0.0
C1025 C 0.72633 0.87928 0.31737 0.0
C1026 C 0.7603 0.88672 0.32014 0.0
C1027 C 0.75334 0.86745 0.32398 0.0
O1028 O 0.68581 0.84867 0.30491 0.0
O1029 O 0.6579 0.83768 0.33023 0.0
O1030 O 0.63373 0.80468 0.3364 0.0
O1031 O 0.65966 0.8067 0.3241 0.0
O1032 O 0.67647 0.86064 0.31879 0.0
O1033 O 0.67959 0.81901 0.3077 0.0
O1034 O 0.64935 0.81866 0.36917 0.0
O1035 O 0.67795 0.83007 0.34392 0.0
O1036 O 0.70217 0.86313 0.33764 0.0
O1037 O 0.67638 0.86092 0.35019 0.0
O1038 O 0.65941 0.80714 0.35537 0.0
O1039 O 0.65601 0.84848 0.36651 0.0
C1040 C 0.65975 0.8525 0.3246 0.0
C1041 C 0.69546 0.83455 0.28895 0.0
C1042 C 0.70022 0.83523 0.26633 0.0
C1043 C 0.68821 0.83314 0.2767 0.0
C1044 C 0.71968 0.83884 0.26846 0.0
C1045 C 0.71484 0.83805 0.29089 0.0
C1046 C 0.72688 0.84021 0.28067 0.0
C1047 C 0.64096 0.7976 0.32794 0.0
C1048 C 0.68264 0.83249 0.29957 0.0
C1049 C 0.76633 0.86035 0.32657 0.0
C1050 C 0.75869 0.84046 0.32908 0.0
C1051 C 0.67614 0.81528 0.34957 0.0
C1052 C 0.63906 0.83256 0.3849 0.0
C1053 C 0.64555 0.83349 0.3973 0.0
C1054 C 0.63297 0.8312 0.40738 0.0
C1055 C 0.61372 0.82787 0.40481 0.0
C1056 C 0.6199 0.8294 0.38253 0.0
C1057 C 0.60729 0.82701 0.39246 0.0
C1058 C 0.69502 0.87011 0.34622 0.0
C1059 C 0.65243 0.83478 0.37458 0.0
H1060 H 0.6731 0.83013 0.27528 0.0
H1061 H 0.72941 0.8408 0.2607 0.0
H1062 H 0.72063 0.83909 0.30026 0.0
H1063 H 0.74186 0.843 0.28221 0.0
H1064 H 0.66051 0.83629 0.39906 0.0
H1065 H 0.60356 0.82576 0.41234 0.0
H1066 H 0.61472 0.82882 0.37306 0.0
H1067 H 0.59247 0.82447 0.39057 0.0
Eu1068 Eu 0.17863 0.83014 0.35339 0.0
C1069 C 0.12563 0.85771 0.32512 0.0
C1070 C 0.09224 0.83093 0.32832 0.0
C1071 C 0.09798 0.86394 0.32585 0.0
C1072 C 0.11283 0.8381 0.32717 0.0
C1073 C 0.11828 0.87076 0.32399 0.0
C1074 C 0.08497 0.84404 0.32805 0.0
C1075 C 0.15108 0.89565 0.31767 0.0
N1076 N 0.14505 0.86372 0.32318 0.0
C1077 C 0.15757 0.88208 0.31884 0.0
C1078 C 0.13142 0.89007 0.32049 0.0
Eu1079 Eu 0.15548 0.84044 0.32578 0.0
N1080 N 0.12036 0.82585 0.32724 0.0
C1081 C 0.10785 0.80605 0.32736 0.0
C1082 C 0.07952 0.81075 0.3293 0.0
C1083 C 0.08734 0.79824 0.32858 0.0
H1084 H 0.17279 0.88639 0.31666 0.0
H1085 H 0.07759 0.78257 0.32904 0.0
H1086 H 0.06925 0.83884 0.3291 0.0
H1087 H 0.16123 0.91037 0.3146 0.0
H1088 H 0.11356 0.79612 0.3269 0.0
H1089 H 0.25637 0.88864 0.35095 0.0
H1090 H 0.06363 0.80466 0.33026 0.0
H1091 H 0.16199 0.78418 0.36232 0.0
H1092 H 0.22033 0.87469 0.35308 0.0
H1093 H 0.17385 0.76035 0.36372 0.0
H1094 H 0.09209 0.87379 0.3252 0.0
H1095 H 0.27058 0.86687 0.34883 0.0
H1096 H 0.26524 0.83273 0.34902 0.0
H1097 H 0.12637 0.90056 0.31951 0.0
H1098 H 0.24267 0.7976 0.35247 0.0
N1099 N 0.21378 0.84507 0.35192 0.0
C1100 C 0.22616 0.86489 0.35225 0.0
C1101 C 0.25467 0.8606 0.3498 0.0
C1102 C 0.24208 0.84035 0.35033 0.0
C1103 C 0.24671 0.87293 0.35104 0.0
C1104 C 0.22146 0.83296 0.35156 0.0
H1105 H 0.2086 0.7705 0.35827 0.0
N1106 N 0.18943 0.80707 0.35558 0.0
C1107 C 0.18382 0.77514 0.36069 0.0
C1108 C 0.20883 0.81327 0.3534 0.0
C1109 C 0.17715 0.78863 0.3599 0.0
C1110 C 0.20342 0.78091 0.35756 0.0
C1111 C 0.21635 0.80032 0.35417 0.0
O1112 O 0.16663 0.81865 0.37188 0.0
O1113 O 0.15257 0.83155 0.34583 0.0
O1114 O 0.16337 0.86512 0.33959 0.0
O1115 O 0.18522 0.86174 0.3533 0.0
O1116 O 0.1464 0.80787 0.35704 0.0
O1117 O 0.19076 0.84839 0.37016 0.0
O1118 O 0.16767 0.85153 0.30726 0.0
O1119 O 0.1815 0.83909 0.3334 0.0
O1120 O 0.1706 0.80548 0.33954 0.0
O1121 O 0.14856 0.80877 0.32597 0.0
O1122 O 0.18779 0.86273 0.32215 0.0
O1123 O 0.14318 0.82199 0.30911 0.0
C1124 C 0.13872 0.81655 0.35089 0.0
C1125 C 0.18898 0.83184 0.38889 0.0
C1126 C 0.19161 0.83108 0.41168 0.0
C1127 C 0.18275 0.83373 0.40087 0.0
C1128 C 0.2068 0.82644 0.41024 0.0
C1129 C 0.2042 0.82732 0.38766 0.0
C1130 C 0.21303 0.8246 0.39831 0.0
C1131 C 0.17679 0.8715 0.34875 0.0
C1132 C 0.17934 0.83451 0.37781 0.0
C1133 C 0.23665 0.80736 0.35211 0.0
C1134 C 0.2495 0.82737 0.35017 0.0
C1135 C 0.19541 0.85408 0.3284 0.0
C1136 C 0.14534 0.83836 0.29023 0.0
C1137 C 0.15207 0.83691 0.27832 0.0
C1138 C 0.14333 0.8395 0.26743 0.0
C1139 C 0.12779 0.84366 0.2687 0.0
C1140 C 0.12979 0.84244 0.29131 0.0
C1141 C 0.1211 0.84511 0.28057 0.0
C1142 C 0.15704 0.79903 0.33047 0.0
C1143 C 0.15479 0.83566 0.3014 0.0
H1144 H 0.17118 0.83753 0.40175 0.0
H1145 H 0.21375 0.82403 0.41834 0.0
H1146 H 0.20924 0.8259 0.3785 0.0
H1147 H 0.22471 0.82102 0.39731 0.0
H1148 H 0.1639 0.83346 0.27755 0.0
H1149 H 0.12092 0.84599 0.26053 0.0
H1150 H 0.12437 0.84353 0.30041 0.0
H1151 H 0.10915 0.84833 0.28145 0.0
Eu1152 Eu 0.82055 0.65034 0.65858 0.0
C1153 C 0.87548 0.72776 0.68891 0.0
C1154 C 0.90825 0.73182 0.68631 0.0
C1155 C 0.90449 0.76038 0.68907 0.0
C1156 C 0.88743 0.7197 0.68697 0.0
C1157 C 0.8839 0.74815 0.69042 0.0
C1158 C 0.91665 0.75223 0.68699 0.0
C1159 C 0.85138 0.74258 0.696 0.0
N1160 N 0.85573 0.71552 0.69033 0.0
C1161 C 0.84379 0.72246 0.69446 0.0
C1162 C 0.87147 0.75553 0.69375 0.0
Eu1163 Eu 0.84348 0.68171 0.68707 0.0
N1164 N 0.8788 0.69994 0.68649 0.0
C1165 C 0.89032 0.69133 0.68643 0.0
C1166 C 0.92001 0.72305 0.68539 0.0
C1167 C 0.91102 0.70271 0.68569 0.0
H1168 H 0.82823 0.71244 0.69617 0.0
H1169 H 0.92001 0.69577 0.68527 0.0
H1170 H 0.93258 0.76178 0.68632 0.0
H1171 H 0.84174 0.74807 0.69892 0.0
H1172 H 0.88369 0.67565 0.68656 0.0
H1173 H 0.74351 0.63466 0.66064 0.0
H1174 H 0.93604 0.73183 0.68481 0.0
H1175 H 0.83672 0.62053 0.64905 0.0
H1176 H 0.77978 0.6554 0.65931 0.0
H1177 H 0.82389 0.58508 0.64595 0.0
H1178 H 0.91122 0.77611 0.69003 0.0
H1179 H 0.72815 0.59864 0.66088 0.0
H1180 H 0.73236 0.56916 0.659 0.0
H1181 H 0.87735 0.77109 0.69501 0.0
H1182 H 0.7543 0.55558 0.65497 0.0
N1183 N 0.78528 0.63151 0.65919 0.0
C1184 C 0.77343 0.63975 0.65936 0.0
C1185 C 0.74416 0.6077 0.66029 0.0
C1186 C 0.75627 0.59932 0.65922 0.0
C1187 C 0.75277 0.62801 0.66012 0.0
C1188 C 0.77703 0.61179 0.65856 0.0
H1189 H 0.78842 0.56142 0.6498 0.0
N1190 N 0.80898 0.61674 0.65502 0.0
C1191 C 0.81402 0.59022 0.649 0.0
C1192 C 0.78931 0.60415 0.65643 0.0
C1193 C 0.82122 0.61024 0.65074 0.0
C1194 C 0.79401 0.57692 0.65122 0.0
C1195 C 0.78127 0.58384 0.65473 0.0
O1196 O 0.83372 0.65226 0.6402 0.0
O1197 O 0.84702 0.67606 0.66704 0.0
O1198 O 0.83782 0.7002 0.67331 0.0
O1199 O 0.8152 0.67622 0.65935 0.0
O1200 O 0.8525 0.65805 0.6556 0.0
O1201 O 0.80965 0.65835 0.642 0.0
O1202 O 0.831 0.68112 0.7055 0.0
O1203 O 0.81697 0.65604 0.67862 0.0
O1204 O 0.82611 0.6317 0.67224 0.0
O1205 O 0.84835 0.65552 0.68644 0.0
O1206 O 0.81157 0.6741 0.69007 0.0
O1207 O 0.85356 0.67291 0.70367 0.0
C1208 C 0.86061 0.67396 0.66218 0.0
C1209 C 0.81299 0.64598 0.62253 0.0
C1210 C 0.81201 0.64581 0.59962 0.0
C1211 C 0.81973 0.65577 0.61108 0.0
C1212 C 0.79737 0.62589 0.59983 0.0
C1213 C 0.79832 0.62617 0.62253 0.0
C1214 C 0.79056 0.6162 0.61122 0.0
C1215 C 0.82465 0.69427 0.664 0.0
C1216 C 0.82166 0.65656 0.63434 0.0
C1217 C 0.76073 0.57125 0.65607 0.0
C1218 C 0.74825 0.57898 0.65835 0.0
C1219 C 0.8034 0.65818 0.68349 0.0
C1220 C 0.85191 0.68662 0.723 0.0
C1221 C 0.8461 0.67694 0.73455 0.0
C1222 C 0.8551 0.6869 0.74584 0.0
C1223 C 0.86993 0.70675 0.74531 0.0
C1224 C 0.86679 0.70633 0.7227 0.0
C1225 C 0.87571 0.71633 0.73382 0.0
C1226 C 0.83908 0.63755 0.68166 0.0
C1227 C 0.84237 0.67592 0.71136 0.0
H1228 H 0.8312 0.67106 0.61111 0.0
H1229 H 0.79097 0.61786 0.59119 0.0
H1230 H 0.79289 0.61843 0.63125 0.0
H1231 H 0.77922 0.6009 0.61127 0.0
H1232 H 0.8348 0.66161 0.7347 0.0
H1233 H 0.87694 0.71497 0.75379 0.0
H1234 H 0.87152 0.71397 0.71391 0.0
H1235 H 0.88713 0.73159 0.73354 0.0
Eu1236 Eu 0.35303 0.17166 0.66041 0.0
C1237 C 0.27147 0.14796 0.68592 0.0
C1238 C 0.26668 0.17536 0.68146 0.0
C1239 C 0.23802 0.14295 0.68405 0.0
C1240 C 0.27935 0.16758 0.68342 0.0
C1241 C 0.25073 0.13554 0.68671 0.0
C1242 C 0.24599 0.16284 0.68141 0.0
C1243 C 0.25677 0.11018 0.69435 0.0
N1244 N 0.28416 0.14138 0.68867 0.0
C1245 C 0.27722 0.12314 0.69351 0.0
C1246 C 0.24344 0.11629 0.6907 0.0
Eu1247 Eu 0.31857 0.16372 0.68679 0.0
N1248 N 0.2994 0.17927 0.68369 0.0
C1249 C 0.30767 0.19913 0.68307 0.0
C1250 C 0.27517 0.19557 0.68002 0.0
C1251 C 0.29574 0.20753 0.68104 0.0
H1252 H 0.28754 0.11842 0.69633 0.0
H1253 H 0.30244 0.22323 0.68021 0.0
H1254 H 0.23603 0.16851 0.67976 0.0
H1255 H 0.25132 0.09553 0.69782 0.0
H1256 H 0.32353 0.20863 0.68376 0.0
H1257 H 0.37029 0.11287 0.66673 0.0
H1258 H 0.26596 0.20211 0.67844 0.0
H1259 H 0.38334 0.21702 0.65072 0.0
H1260 H 0.34876 0.12703 0.66336 0.0
H1261 H 0.41943 0.24014 0.6487 0.0
H1262 H 0.22204 0.13358 0.68444 0.0
H1263 H 0.40674 0.13438 0.66825 0.0
H1264 H 0.43635 0.16816 0.66671 0.0
H1265 H 0.22761 0.10629 0.69145 0.0
H1266 H 0.44981 0.20296 0.66183 0.0
N1267 N 0.37261 0.15651 0.66332 0.0
C1268 C 0.3646 0.13669 0.66395 0.0
C1269 C 0.39734 0.14073 0.66676 0.0
C1270 C 0.40555 0.1609 0.66528 0.0
C1271 C 0.37679 0.12855 0.66587 0.0
C1272 C 0.39263 0.16842 0.66344 0.0
H1273 H 0.44362 0.22985 0.6548 0.0
N1274 N 0.38728 0.19431 0.65824 0.0
C1275 C 0.41424 0.22556 0.65223 0.0
C1276 C 0.40021 0.18798 0.66085 0.0
C1277 C 0.39387 0.21246 0.65336 0.0
C1278 C 0.42785 0.21972 0.65573 0.0
C1279 C 0.42089 0.20058 0.65984 0.0
O1280 O 0.35324 0.18185 0.64138 0.0
O1281 O 0.3256 0.17133 0.66669 0.0
O1282 O 0.30149 0.13855 0.67323 0.0
O1283 O 0.32706 0.14022 0.66073 0.0
O1284 O 0.34418 0.19417 0.65523 0.0
O1285 O 0.34733 0.15231 0.64434 0.0
O1286 O 0.31778 0.15329 0.70582 0.0
O1287 O 0.34595 0.16387 0.68052 0.0
O1288 O 0.37037 0.19662 0.67414 0.0
O1289 O 0.34475 0.19502 0.68654 0.0
O1290 O 0.3272 0.1411 0.69201 0.0
O1291 O 0.32429 0.18302 0.70287 0.0
C1292 C 0.32741 0.18607 0.66099 0.0
C1293 C 0.36317 0.16777 0.62555 0.0
C1294 C 0.36834 0.16928 0.60295 0.0
C1295 C 0.35627 0.16715 0.6133 0.0
C1296 C 0.38752 0.17214 0.60512 0.0
C1297 C 0.38227 0.17053 0.62752 0.0
C1298 C 0.39438 0.17275 0.61733 0.0
C1299 C 0.30843 0.13125 0.66473 0.0
C1300 C 0.35026 0.16566 0.63613 0.0
C1301 C 0.43387 0.19344 0.66239 0.0
C1302 C 0.4262 0.17362 0.66514 0.0
C1303 C 0.34394 0.14902 0.68621 0.0
C1304 C 0.30769 0.16752 0.72144 0.0
C1305 C 0.31413 0.1679 0.73377 0.0
C1306 C 0.30181 0.16591 0.74394 0.0
C1307 C 0.28286 0.16345 0.74152 0.0
C1308 C 0.28881 0.16516 0.7192 0.0
C1309 C 0.27644 0.16309 0.72922 0.0
C1310 C 0.36347 0.20389 0.68271 0.0
C1311 C 0.32087 0.16952 0.71106 0.0
H1312 H 0.34136 0.1647 0.61184 0.0
H1313 H 0.39728 0.17408 0.59738 0.0
H1314 H 0.38778 0.17093 0.63689 0.0
H1315 H 0.40915 0.17496 0.61891 0.0
H1316 H 0.32888 0.17007 0.73544 0.0
H1317 H 0.27293 0.16166 0.74914 0.0
H1318 H 0.28365 0.16499 0.70976 0.0
H1319 H 0.26184 0.16119 0.72744 0.0
Eu1320 Eu 0.84523 0.16174 0.68622 0.0
C1321 C 0.79308 0.19044 0.65846 0.0
C1322 C 0.75954 0.16411 0.66185 0.0
C1323 C 0.76591 0.19735 0.65948 0.0
C1324 C 0.78004 0.17091 0.66059 0.0
C1325 C 0.78609 0.20379 0.65742 0.0
C1326 C 0.75265 0.17752 0.66172 0.0
C1327 C 0.81886 0.22811 0.65067 0.0
N1328 N 0.81235 0.19606 0.65627 0.0
C1329 C 0.82501 0.21426 0.65175 0.0
C1330 C 0.7994 0.22296 0.65376 0.0
Eu1331 Eu 0.82222 0.17234 0.65876 0.0
N1332 N 0.78719 0.15836 0.66046 0.0
C1333 C 0.77436 0.13862 0.66041 0.0
C1334 C 0.7465 0.14397 0.66269 0.0
C1335 C 0.75391 0.13116 0.66169 0.0
H1336 H 0.84008 0.21826 0.6494 0.0
H1337 H 0.7439 0.11552 0.66201 0.0
H1338 H 0.73699 0.1726 0.66286 0.0
H1339 H 0.82913 0.24272 0.64746 0.0
H1340 H 0.77978 0.12846 0.65975 0.0
H1341 H 0.92352 0.2185 0.68261 0.0
H1342 H 0.73065 0.13815 0.6637 0.0
H1343 H 0.82719 0.1158 0.69556 0.0
H1344 H 0.88766 0.20561 0.68487 0.0
H1345 H 0.83814 0.09136 0.69774 0.0
H1346 H 0.76029 0.20743 0.6589 0.0
H1347 H 0.9368 0.19585 0.6814 0.0
H1348 H 0.93048 0.16143 0.68265 0.0
H1349 H 0.79462 0.23366 0.65283 0.0
H1350 H 0.90716 0.12665 0.68673 0.0
N1351 N 0.88026 0.1757 0.68458 0.0
C1352 C 0.89308 0.19544 0.68441 0.0
C1353 C 0.92096 0.19005 0.6824 0.0
C1354 C 0.90793 0.16994 0.68344 0.0
C1355 C 0.91352 0.20287 0.68312 0.0
C1356 C 0.88742 0.16315 0.68466 0.0
H1357 H 0.87274 0.10044 0.69266 0.0
N1358 N 0.85504 0.138 0.68883 0.0
C1359 C 0.84845 0.10597 0.69455 0.0
C1360 C 0.87435 0.14363 0.68681 0.0
C1361 C 0.84231 0.1198 0.69332 0.0
C1362 C 0.86797 0.11113 0.69163 0.0
C1363 C 0.88134 0.13029 0.68799 0.0
O1364 O 0.83328 0.15103 0.70484 0.0
O1365 O 0.8194 0.16367 0.67881 0.0
O1366 O 0.83077 0.19724 0.67253 0.0
O1367 O 0.85276 0.19361 0.68593 0.0
O1368 O 0.81283 0.14 0.6901 0.0
O1369 O 0.85822 0.18029 0.70277 0.0
O1370 O 0.83413 0.18309 0.64014 0.0
O1371 O 0.84809 0.17042 0.66614 0.0
O1372 O 0.83676 0.13688 0.67245 0.0
O1373 O 0.81473 0.14046 0.65906 0.0
O1374 O 0.85453 0.19413 0.6549 0.0
O1375 O 0.80925 0.1538 0.6422 0.0
C1376 C 0.80538 0.14889 0.68394 0.0
C1377 C 0.85606 0.16392 0.72165 0.0
C1378 C 0.85816 0.16249 0.74441 0.0
C1379 C 0.84942 0.16525 0.7336 0.0
C1380 C 0.87366 0.15827 0.74303 0.0
C1381 C 0.87156 0.15978 0.72044 0.0
C1382 C 0.88027 0.15693 0.73111 0.0
C1383 C 0.84445 0.20356 0.68153 0.0
C1384 C 0.84657 0.16681 0.71057 0.0
C1385 C 0.90154 0.13673 0.68604 0.0
C1386 C 0.91483 0.15653 0.68375 0.0
C1387 C 0.86205 0.18526 0.66099 0.0
C1388 C 0.81143 0.1701 0.62329 0.0
C1389 C 0.81786 0.16834 0.61136 0.0
C1390 C 0.80919 0.17107 0.6005 0.0
C1391 C 0.79394 0.17566 0.60183 0.0
C1392 C 0.7962 0.17462 0.62444 0.0
C1393 C 0.78753 0.17741 0.61373 0.0
C1394 C 0.82308 0.13054 0.66345 0.0
C1395 C 0.8209 0.16727 0.6344 0.0
H1396 H 0.83763 0.16876 0.73446 0.0
H1397 H 0.88054 0.15583 0.75114 0.0
H1398 H 0.87693 0.15879 0.71131 0.0
H1399 H 0.89218 0.15367 0.73013 0.0
H1400 H 0.82945 0.16455 0.61056 0.0
H1401 H 0.78712 0.1781 0.59368 0.0
H1402 H 0.79101 0.17596 0.63356 0.0
H1403 H 0.77581 0.18096 0.61465 0.0
C1404 C 0.30433 0.86047 0.04743 0.0
C1405 C 0.3032 0.86386 0.0603 0.0
C1406 C 0.32096 0.87327 0.04047 0.0
C1407 C 0.36245 0.9236 0.03963 0.0
H1408 H 0.38987 0.90247 0.02048 0.0
C1409 C 0.44568 0.95383 0.02132 0.0
C1410 C 0.44906 0.97038 0.01456 0.0
C1411 C 0.42641 0.9398 0.02466 0.0
C1412 C 0.38224 0.90852 0.0257 0.0
H1413 H 0.31888 0.8836 0.07584 0.0
H1414 H 0.34752 0.9062 0.06357 0.0
H1415 H 0.3587 0.88021 0.03101 0.0
H1416 H 0.43541 0.98591 0.00643 0.0
H1417 H 0.40146 0.96131 0.01235 0.0
H1418 H 0.38613 0.9519 0.03453 0.0
C1419 C 0.33547 0.89357 0.05892 0.0
C1420 C 0.36441 0.89583 0.03167 0.0
C1421 C 0.31899 0.88064 0.06593 0.0
C1422 C 0.43296 0.97289 0.01132 0.0
C1423 C 0.41366 0.95894 0.01476 0.0
C1424 C 0.38009 0.93627 0.03351 0.0
C1425 C 0.33668 0.88993 0.04615 0.0
C1426 C 0.35458 0.90328 0.03891 0.0
C1427 C 0.41026 0.9424 0.02162 0.0
C1428 C 0.39035 0.92886 0.0267 0.0
H1429 H 0.29232 0.84797 0.04268 0.0
H1430 H 0.32145 0.87024 0.03061 0.0
H1431 H 0.35507 0.92971 0.04508 0.0
H1432 H 0.45804 0.95213 0.02441 0.0
H1433 H 0.42425 0.9274 0.03016 0.0
C1434 C 0.15324 0.46926 0.06311 0.0
C1435 C 0.14757 0.4509 0.06833 0.0
C1436 C 0.1391 0.47296 0.0575 0.0
C1437 C 0.0846 0.4542 0.05637 0.0
H1438 H 0.0972 0.48652 0.0268 0.0
C1439 C 0.02441 0.4597 0.02782 0.0
C1440 C 0.02871 0.47836 0.02394 0.0
C1441 C 0.03929 0.45675 0.03297 0.0
C1442 C 0.09353 0.47761 0.03512 0.0
H1443 H 0.12265 0.42183 0.07138 0.0
H1444 H 0.09809 0.42811 0.06147 0.0
H1445 H 0.12241 0.48042 0.03612 0.0
H1446 H 0.05167 0.50881 0.02299 0.0
H1447 H 0.07788 0.50365 0.03185 0.0
H1448 H 0.05567 0.45119 0.05528 0.0
C1449 C 0.11336 0.43988 0.06198 0.0
C1450 C 0.10798 0.47413 0.04049 0.0
C1451 C 0.12747 0.43624 0.06765 0.0
C1452 C 0.0481 0.49417 0.02557 0.0
C1453 C 0.06307 0.49121 0.03067 0.0
C1454 C 0.07015 0.45757 0.05097 0.0
C1455 C 0.11893 0.45834 0.0569 0.0
C1456 C 0.10369 0.4623 0.05118 0.0
C1457 C 0.05879 0.47246 0.03447 0.0
C1458 C 0.0744 0.46925 0.04026 0.0
H1459 H 0.16857 0.48094 0.0636 0.0
H1460 H 0.14394 0.48742 0.05387 0.0
H1461 H 0.08083 0.4454 0.06475 0.0
H1462 H 0.0095 0.44733 0.02681 0.0
H1463 H 0.03553 0.44212 0.03571 0.0
C1464 C 0.57884 0.69704 0.06405 0.0
C1465 C 0.58343 0.71373 0.05696 0.0
C1466 C 0.57378 0.67932 0.05813 0.0
C1467 C 0.55241 0.65184 0.02918 0.0
H1468 H 0.57405 0.61982 0.04095 0.0
C1469 C 0.53059 0.57684 0.00654 0.0
C1470 C 0.52742 0.5618 0.01485 0.0
C1471 C 0.53901 0.59617 0.01083 0.0
C1472 C 0.56772 0.6285 0.03762 0.0
H1473 H 0.58678 0.7249 0.03804 0.0
H1474 H 0.57745 0.69377 0.02774 0.0
H1475 H 0.58587 0.65215 0.05014 0.0
H1476 H 0.5305 0.55532 0.03422 0.0
H1477 H 0.54462 0.5887 0.04169 0.0
H1478 H 0.53378 0.62798 0.01695 0.0
C1479 C 0.57772 0.69448 0.03788 0.0
C1480 C 0.57455 0.64703 0.04286 0.0
C1481 C 0.58299 0.71227 0.04379 0.0
C1482 C 0.53284 0.56651 0.02752 0.0
C1483 C 0.54111 0.58574 0.03181 0.0
C1484 C 0.54543 0.63321 0.024 0.0
C1485 C 0.57302 0.67783 0.045 0.0
C1486 C 0.56678 0.65877 0.03881 0.0
C1487 C 0.54434 0.60083 0.02353 0.0
C1488 C 0.5528 0.6212 0.0283 0.0
H1489 H 0.57866 0.6975 0.07419 0.0
H1490 H 0.56994 0.66663 0.06385 0.0
H1491 H 0.54605 0.66054 0.02596 0.0
H1492 H 0.52666 0.57373 0.99671 0.0
H1493 H 0.54148 0.60747 0.00418 0.0
C1494 C 0.84751 0.3093 0.95185 0.0
C1495 C 0.8544 0.29828 0.94543 0.0
C1496 C 0.8609 0.32724 0.95739 0.0
C1497 C 0.91237 0.35591 0.96923 0.0
H1498 H 0.90344 0.39984 0.9659 0.0
C1499 C 0.9707 0.43423 0.98481 0.0
C1500 C 0.96368 0.44539 0.99092 0.0
C1501 C 0.95741 0.41624 0.97927 0.0
C1502 C 0.90602 0.38766 0.96705 0.0
H1503 H 0.88075 0.29736 0.9399 0.0
H1504 H 0.90415 0.32884 0.94943 0.0
H1505 H 0.88014 0.3685 0.95624 0.0
H1506 H 0.93715 0.44652 0.99577 0.0
H1507 H 0.91403 0.41498 0.98642 0.0
H1508 H 0.93821 0.37504 0.98007 0.0
C1509 C 0.88838 0.32352 0.95026 0.0
C1510 C 0.89268 0.36971 0.9615 0.0
C1511 C 0.87499 0.30559 0.94469 0.0
C1512 C 0.94308 0.4382 0.99131 0.0
C1513 C 0.92981 0.4202 0.9858 0.0
C1514 C 0.9257 0.37386 0.9748 0.0
C1515 C 0.88148 0.33455 0.95666 0.0
C1516 C 0.8957 0.35363 0.96253 0.0
C1517 C 0.93681 0.40901 0.97971 0.0
C1518 C 0.92267 0.38994 0.97378 0.0
H1519 H 0.83174 0.30415 0.95249 0.0
H1520 H 0.85512 0.33531 0.96236 0.0
H1521 H 0.91495 0.34372 0.97034 0.0
H1522 H 0.98646 0.43937 0.98427 0.0
H1523 H 0.9633 0.40811 0.9745 0.0
C1524 C 0.68978 0.55587 0.94819 0.0
C1525 C 0.69483 0.54117 0.94685 0.0
C1526 C 0.67181 0.5518 0.95366 0.0
C1527 C 0.63015 0.51536 0.97317 0.0
H1528 H 0.6021 0.53962 0.95847 0.0
C1529 C 0.548 0.49214 0.98429 0.0
C1530 C 0.54392 0.50738 0.98621 0.0
C1531 C 0.56684 0.49622 0.98032 0.0
C1532 C 0.60983 0.53289 0.96278 0.0
H1533 H 0.68498 0.51064 0.95031 0.0
H1534 H 0.65344 0.50341 0.95969 0.0
H1535 H 0.63402 0.54673 0.95004 0.0
H1536 H 0.55553 0.53852 0.98472 0.0
H1537 H 0.58847 0.54577 0.97775 0.0
H1538 H 0.60558 0.50123 0.98577 0.0
C1539 C 0.66353 0.51822 0.95671 0.0
C1540 C 0.6282 0.537 0.95796 0.0
C1541 C 0.68161 0.52234 0.95131 0.0
C1542 C 0.55863 0.52664 0.98367 0.0
C1543 C 0.57736 0.53072 0.97956 0.0
C1544 C 0.61166 0.51114 0.97794 0.0
C1545 C 0.6583 0.53286 0.95787 0.0
C1546 C 0.63868 0.52836 0.96311 0.0
C1547 C 0.58168 0.51557 0.97779 0.0
C1548 C 0.60133 0.51992 0.97282 0.0
H1549 H 0.6998 0.57061 0.94506 0.0
H1550 H 0.66855 0.56357 0.95464 0.0
H1551 H 0.63787 0.50862 0.97748 0.0
H1552 H 0.53659 0.47711 0.98584 0.0
H1553 H 0.56962 0.48421 0.97887 0.0
C1554 C 0.41837 0.12943 0.96673 0.0
C1555 C 0.42019 0.13279 0.95374 0.0
C1556 C 0.426 0.11859 0.97237 0.0
C1557 C 0.4628 0.10271 0.96713 0.0
H1558 H 0.43309 0.06371 0.99225 0.0
C1559 C 0.4809 0.04314 0.98074 0.0
C1560 C 0.48032 0.03851 0.99344 0.0
C1561 C 0.47444 0.05585 0.97679 0.0
C1562 C 0.44167 0.07476 0.98538 0.0
H1563 H 0.43143 0.12735 0.93652 0.0
H1564 H 0.44421 0.10805 0.94629 0.0
H1565 H 0.4196 0.08333 0.98356 0.0
H1566 H 0.47266 0.04344 0.01204 0.0
H1567 H 0.46139 0.06593 0.00516 0.0
H1568 H 0.48466 0.0939 0.96876 0.0
C1569 C 0.43715 0.11401 0.95215 0.0
C1570 C 0.43395 0.08597 0.9804 0.0
C1571 C 0.42955 0.12484 0.94652 0.0
C1572 C 0.47341 0.04697 0.0022 0.0
C1573 C 0.46679 0.05964 0.99825 0.0
C1574 C 0.47046 0.09148 0.97207 0.0
C1575 C 0.43566 0.11093 0.96515 0.0
C1576 C 0.4443 0.09984 0.97107 0.0
C1577 C 0.46722 0.06417 0.98548 0.0
C1578 C 0.45983 0.07718 0.98109 0.0
H1579 H 0.41108 0.13523 0.97253 0.0
H1580 H 0.42469 0.11653 0.98242 0.0
H1581 H 0.47135 0.1136 0.96017 0.0
H1582 H 0.48658 0.03711 0.97386 0.0
H1583 H 0.4748 0.05893 0.96688 0.0
C1584 C 0.69197 0.12055 0.95149 0.0
C1585 C 0.6976 0.14032 0.95 0.0
C1586 C 0.67441 0.10781 0.95767 0.0
C1587 C 0.6357 0.10649 0.97872 0.0
H1588 H 0.60334 0.05482 0.96413 0.0
C1589 C 0.5521 0.05564 0.98916 0.0
C1590 C 0.54557 0.0357 0.99054 0.0
C1591 C 0.57179 0.06862 0.98588 0.0
C1592 C 0.61233 0.06909 0.96844 0.0
H1593 H 0.68922 0.16224 0.9538 0.0
H1594 H 0.65843 0.13998 0.96439 0.0
H1595 H 0.63555 0.07701 0.95517 0.0
H1596 H 0.55378 0.0133 0.9891 0.0
H1597 H 0.58826 0.03593 0.98337 0.0
H1598 H 0.61203 0.09858 0.99179 0.0
C1599 C 0.66777 0.13437 0.96104 0.0
C1600 C 0.63083 0.08183 0.96331 0.0
C1601 C 0.68539 0.14713 0.95493 0.0
C1602 C 0.55878 0.02878 0.98843 0.0
C1603 C 0.57838 0.04167 0.98504 0.0
C1604 C 0.6171 0.09376 0.98381 0.0
C1605 C 0.66199 0.11452 0.96241 0.0
C1606 C 0.64271 0.10073 0.96832 0.0
C1607 C 0.58502 0.06168 0.98355 0.0
C1608 C 0.60519 0.07496 0.97867 0.0
H1609 H 0.70124 0.11496 0.94795 0.0
H1610 H 0.6706 0.0927 0.95875 0.0
H1611 H 0.64459 0.12084 0.98293 0.0
H1612 H 0.54188 0.06109 0.99041 0.0
H1613 H 0.57641 0.08391 0.98462 0.0
C1614 C 0.8595 0.54407 0.9595 0.0
C1615 C 0.8574 0.54367 0.94637 0.0
C1616 C 0.87414 0.54109 0.96509 0.0
C1617 C 0.92239 0.54479 0.95843 0.0
H1618 H 0.91137 0.51165 0.98746 0.0
C1619 C 0.98443 0.54038 0.98585 0.0
C1620 C 0.98052 0.52162 0.98918 0.0
C1621 C 0.96923 0.54325 0.98114 0.0
C1622 C 0.91465 0.52091 0.97934 0.0
H1623 H 0.86869 0.53902 0.9289 0.0
H1624 H 0.8943 0.53416 0.93863 0.0
H1625 H 0.88488 0.51593 0.97821 0.0
H1626 H 0.958 0.49096 0.98941 0.0
H1627 H 0.93136 0.49593 0.98138 0.0
H1628 H 0.95207 0.54966 0.95946 0.0
C1629 C 0.88481 0.53706 0.94459 0.0
C1630 C 0.89953 0.52349 0.97411 0.0
C1631 C 0.87012 0.53989 0.93901 0.0
C1632 C 0.96128 0.50567 0.98736 0.0
C1633 C 0.94604 0.50852 0.98271 0.0
C1634 C 0.93752 0.54236 0.96372 0.0
C1635 C 0.8871 0.53776 0.95769 0.0
C1636 C 0.9032 0.53534 0.96352 0.0
C1637 C 0.94984 0.52735 0.97953 0.0
C1638 C 0.93381 0.53031 0.97418 0.0
H1639 H 0.85017 0.54716 0.96547 0.0
H1640 H 0.87564 0.54188 0.97521 0.0
H1641 H 0.92577 0.55418 0.95037 0.0
H1642 H 0.99925 0.55286 0.98696 0.0
H1643 H 0.97263 0.55793 0.97881 0.0
C1644 C 0.41848 0.30355 0.94476 0.0
C1645 C 0.42317 0.29041 0.95063 0.0
C1646 C 0.42476 0.32199 0.94997 0.0
C1647 C 0.43893 0.34997 0.97899 0.0
H1648 H 0.46909 0.39493 0.95778 0.0
C1649 C 0.47652 0.42917 0.99832 0.0
C1650 C 0.47734 0.44376 0.99046 0.0
C1651 C 0.4697 0.41022 0.99377 0.0
C1652 C 0.4604 0.38257 0.9638 0.0
H1653 H 0.43798 0.28645 0.96675 0.0
H1654 H 0.44823 0.31845 0.97607 0.0
H1655 H 0.45691 0.36214 0.94935 0.0
H1656 H 0.47164 0.44972 0.97159 0.0
H1657 H 0.45856 0.41667 0.96384 0.0
H1658 H 0.4418 0.37023 0.99335 0.0
C1659 C 0.43979 0.31436 0.96737 0.0
C1660 C 0.45354 0.36381 0.95896 0.0
C1661 C 0.43381 0.29601 0.96205 0.0
C1662 C 0.47083 0.43885 0.978 0.0
C1663 C 0.46371 0.41988 0.97347 0.0
C1664 C 0.4455 0.36875 0.98379 0.0
C1665 C 0.43553 0.32757 0.96128 0.0
C1666 C 0.44276 0.34737 0.96651 0.0
C1667 C 0.46325 0.40534 0.98125 0.0
C1668 C 0.45631 0.3853 0.97624 0.0
H1669 H 0.40992 0.29962 0.93612 0.0
H1670 H 0.4211 0.33189 0.94519 0.0
H1671 H 0.43052 0.33745 0.98495 0.0
H1672 H 0.48096 0.43226 0.00802 0.0
H1673 H 0.46976 0.3995 1.00003 0.0
C1674 C 0.15137 0.70012 0.0544 0.0
C1675 C 0.15155 0.70272 0.06746 0.0
C1676 C 0.1383 0.68208 0.04884 0.0
C1677 C 0.09088 0.63716 0.05346 0.0
H1678 H 0.11081 0.61467 0.02913 0.0
C1679 C 0.04209 0.55882 0.03383 0.0
C1680 C 0.04461 0.55534 0.02124 0.0
C1681 C 0.05506 0.57675 0.03956 0.0
C1682 C 0.1049 0.62084 0.03576 0.0
H1683 H 0.13814 0.68816 0.0849 0.0
H1684 H 0.11499 0.65685 0.07512 0.0
H1685 H 0.1335 0.64616 0.03884 0.0
H1686 H 0.062 0.56826 0.00465 0.0
H1687 H 0.08443 0.59959 0.01446 0.0
H1688 H 0.06221 0.61215 0.05023 0.0
C1689 C 0.12498 0.66886 0.06922 0.0
C1690 C 0.11795 0.63886 0.04135 0.0
C1691 C 0.13821 0.68683 0.0748 0.0
C1692 C 0.06008 0.57027 0.01443 0.0
C1693 C 0.07292 0.58828 0.02009 0.0
C1694 C 0.07777 0.61924 0.04777 0.0
C1695 C 0.12495 0.66629 0.05619 0.0
C1696 C 0.11108 0.64718 0.05027 0.0
C1697 C 0.07069 0.59172 0.03277 0.0
C1698 C 0.08461 0.61083 0.03885 0.0
H1699 H 0.16113 0.71209 0.04841 0.0
H1700 H 0.13841 0.68056 0.03875 0.0
H1701 H 0.08515 0.64336 0.06021 0.0
H1702 H 0.03033 0.54751 0.03934 0.0
H1703 H 0.05302 0.57873 0.04938 0.0
C1704 C 0.30756 0.44332 0.05383 0.0
C1705 C 0.30822 0.45265 0.06522 0.0
C1706 C 0.32513 0.44751 0.04767 0.0
C1707 C 0.37966 0.46964 0.0534 0.0
H1708 H 0.38205 0.46912 0.01711 0.0
C1709 C 0.45347 0.4967 0.0273 0.0
C1710 C 0.45354 0.48425 0.01791 0.0
C1711 C 0.43556 0.49345 0.03243 0.0
C1712 C 0.38154 0.46921 0.02725 0.0
H1713 H 0.3278 0.47418 0.07886 0.0
H1714 H 0.35834 0.48194 0.06801 0.0
H1715 H 0.35122 0.46257 0.02731 0.0
H1716 H 0.43529 0.45822 0.00685 0.0
H1717 H 0.4037 0.45276 0.01558 0.0
H1718 H 0.41008 0.47662 0.05331 0.0
C1719 C 0.34435 0.47089 0.06398 0.0
C1720 C 0.36385 0.46538 0.03312 0.0
C1721 C 0.32681 0.46651 0.0702 0.0
C1722 C 0.43546 0.46832 0.01383 0.0
C1723 C 0.41747 0.46522 0.01882 0.0
C1724 C 0.39735 0.47369 0.04754 0.0
C1725 C 0.34381 0.46132 0.05267 0.0
C1726 C 0.36265 0.46552 0.0463 0.0
C1727 C 0.41736 0.47761 0.02832 0.0
C1728 C 0.3985 0.4735 0.03441 0.0
H1729 H 0.29346 0.43243 0.04981 0.0
H1730 H 0.32403 0.43959 0.03911 0.0
H1731 H 0.37929 0.46945 0.06354 0.0
H1732 H 0.46733 0.50871 0.03085 0.0
H1733 H 0.43596 0.50326 0.03971 0.0
C1734 C 0.57673 0.88095 0.06236 0.0
C1735 C 0.58258 0.86937 0.05559 0.0
C1736 C 0.57131 0.89312 0.05612 0.0
C1737 C 0.55162 0.89906 0.02629 0.0
H1738 H 0.56915 0.95119 0.03927 0.0
C1739 C 0.52751 0.95199 0.00472 0.0
C1740 C 0.52243 0.962 0.01356 0.0
C1741 C 0.5363 0.94108 0.00863 0.0
C1742 C 0.56404 0.93662 0.03556 0.0
H1743 H 0.58775 0.86191 0.03691 0.0
H1744 H 0.57789 0.88295 0.02603 0.0
H1745 H 0.58215 0.93163 0.04849 0.0
H1746 H 0.52195 0.96775 0.03347 0.0
H1747 H 0.53683 0.94874 0.04015 0.0
H1748 H 0.53303 0.9039 0.01359 0.0
C1749 C 0.57743 0.88246 0.03617 0.0
C1750 C 0.57151 0.92545 0.04084 0.0
C1751 C 0.58301 0.87039 0.04241 0.0
C1752 C 0.52589 0.96049 0.02635 0.0
C1753 C 0.53458 0.94966 0.03021 0.0
C1754 C 0.54404 0.91024 0.02103 0.0
C1755 C 0.57149 0.89392 0.04297 0.0
C1756 C 0.56505 0.9064 0.03646 0.0
C1757 C 0.54015 0.94004 0.02142 0.0
C1758 C 0.54981 0.92896 0.02584 0.0
H1759 H 0.57583 0.88028 0.07248 0.0
H1760 H 0.56649 0.90155 0.0616 0.0
H1761 H 0.54632 0.88437 0.02277 0.0
H1762 H 0.52503 0.95285 0.99481 0.0
H1763 H 0.54044 0.9338 0.00164 0.0
C1764 C 0.97122 0.2044 0.38507 0.0
C1765 C 0.97165 0.19451 0.39587 0.0
C1766 C 0.98883 0.21712 0.3789 0.0
C1767 C 0.04346 0.24546 0.38413 0.0
H1768 H 0.04514 0.25044 0.34794 0.0
C1769 C 0.11694 0.28963 0.35813 0.0
C1770 C 0.11767 0.30359 0.34975 0.0
C1771 C 0.09878 0.27522 0.36281 0.0
C1772 C 0.0448 0.24922 0.35806 0.0
H1773 H 0.99066 0.1896 0.40846 0.0
H1774 H 0.02131 0.2113 0.39756 0.0
H1775 H 0.01404 0.22719 0.35806 0.0
H1776 H 0.10041 0.31405 0.33992 0.0
H1777 H 0.06829 0.28838 0.34791 0.0
H1778 H 0.07427 0.26725 0.38409 0.0
C1779 C 0.00752 0.2098 0.39403 0.0
C1780 C 0.02701 0.23599 0.36388 0.0
C1781 C 0.98995 0.1973 0.40027 0.0
C1782 C 0.10001 0.30303 0.34612 0.0
C1783 C 0.08175 0.2884 0.35067 0.0
C1784 C 0.06123 0.25847 0.37832 0.0
C1785 C 0.00724 0.22003 0.38333 0.0
C1786 C 0.02611 0.23395 0.37701 0.0
C1787 C 0.08103 0.27461 0.35926 0.0
C1788 C 0.06209 0.26049 0.36524 0.0
H1789 H 0.9573 0.2026 0.38154 0.0
H1790 H 0.98803 0.22494 0.37082 0.0
H1791 H 0.0433 0.24469 0.39426 0.0
H1792 H 0.13051 0.29023 0.36132 0.0
H1793 H 0.09863 0.26474 0.36939 0.0
C1794 C 0.81935 0.80787 0.39319 0.0
C1795 C 0.81419 0.78964 0.39842 0.0
C1796 C 0.80491 0.8109 0.38736 0.0
C1797 C 0.75027 0.79045 0.38603 0.0
H1798 H 0.76187 0.82249 0.35639 0.0
C1799 C 0.68886 0.79416 0.35782 0.0
C1800 C 0.69271 0.81272 0.35402 0.0
C1801 C 0.70407 0.79159 0.36279 0.0
C1802 C 0.75848 0.81364 0.36473 0.0
H1803 H 0.78998 0.76009 0.40118 0.0
H1804 H 0.76492 0.76523 0.3909 0.0
H1805 H 0.78776 0.81739 0.36572 0.0
H1806 H 0.71517 0.84334 0.35305 0.0
H1807 H 0.74194 0.83885 0.36161 0.0
H1808 H 0.72099 0.78655 0.38498 0.0
C1809 C 0.77999 0.77739 0.39158 0.0
C1810 C 0.77331 0.81073 0.37009 0.0
C1811 C 0.79437 0.77441 0.39746 0.0
C1812 C 0.71196 0.82878 0.35556 0.0
C1813 C 0.72725 0.82621 0.36048 0.0
C1814 C 0.73547 0.79325 0.38063 0.0
C1815 C 0.78499 0.79573 0.38657 0.0
C1816 C 0.76937 0.79904 0.3808 0.0
C1817 C 0.72343 0.80758 0.36421 0.0
C1818 C 0.73936 0.80483 0.36991 0.0
H1819 H 0.83446 0.81996 0.39387 0.0
H1820 H 0.80929 0.82528 0.38375 0.0
H1821 H 0.74678 0.78172 0.39442 0.0
H1822 H 0.67405 0.78161 0.35689 0.0
H1823 H 0.70068 0.77705 0.3655 0.0
C1824 C 0.237 0.0394 0.38508 0.0
C1825 C 0.23825 0.04202 0.39816 0.0
C1826 C 0.23028 0.02091 0.3798 0.0
C1827 C 0.20207 0.96812 0.38747 0.0
H1828 H 0.22558 0.96281 0.35679 0.0
C1829 C 0.18734 0.89383 0.36732 0.0
C1830 C 0.18299 0.89077 0.35443 0.0
C1831 C 0.19369 0.91217 0.37274 0.0
C1832 C 0.21878 0.96412 0.36531 0.0
H1833 H 0.23341 0.02711 0.41594 0.0
H1834 H 0.22253 0.99506 0.40673 0.0
H1835 H 0.23798 0.9951 0.3662 0.0
H1836 H 0.18251 0.90462 0.3371 0.0
H1837 H 0.19351 0.93666 0.34653 0.0
H1838 H 0.18318 0.937 0.38665 0.0
C1839 C 0.22632 0.00724 0.40054 0.0
C1840 C 0.22583 0.98261 0.37069 0.0
C1841 C 0.23287 0.0257 0.40583 0.0
C1842 C 0.18523 0.9064 0.34707 0.0
C1843 C 0.19181 0.92481 0.35245 0.0
C1844 C 0.19518 0.94961 0.38215 0.0
C1845 C 0.22483 0.00458 0.38746 0.0
C1846 C 0.21752 0.98486 0.38182 0.0
C1847 C 0.19611 0.92787 0.36534 0.0
C1848 C 0.20343 0.94746 0.371 0.0
H1849 H 0.24127 0.05166 0.37888 0.0
H1850 H 0.22911 0.01939 0.36969 0.0
H1851 H 0.19507 0.96932 0.39591 0.0
H1852 H 0.18574 0.88201 0.37322 0.0
H1853 H 0.19707 0.91419 0.38269 0.0
C1854 C 0.5214 0.63329 0.28932 0.0
C1855 C 0.5206 0.63087 0.27622 0.0
C1856 C 0.53463 0.65128 0.29486 0.0
C1857 C 0.56547 0.70407 0.28764 0.0
H1858 H 0.59114 0.7057 0.31926 0.0
C1859 C 0.62918 0.77535 0.30931 0.0
C1860 C 0.62738 0.77848 0.32209 0.0
C1861 C 0.61627 0.75736 0.30364 0.0
C1862 C 0.58396 0.70544 0.31047 0.0
H1863 H 0.53317 0.64563 0.2587 0.0
H1864 H 0.55677 0.67672 0.26839 0.0
H1865 H 0.56867 0.67422 0.30942 0.0
H1866 H 0.61131 0.765 0.33903 0.0
H1867 H 0.58865 0.7336 0.32916 0.0
H1868 H 0.58112 0.73537 0.28864 0.0
C1869 C 0.54687 0.66482 0.27438 0.0
C1870 C 0.57103 0.68742 0.30484 0.0
C1871 C 0.53352 0.64687 0.26882 0.0
C1872 C 0.61268 0.7632 0.32913 0.0
C1873 C 0.59991 0.74513 0.32351 0.0
C1874 C 0.57855 0.72209 0.29321 0.0
C1875 C 0.54754 0.66728 0.28747 0.0
C1876 C 0.56155 0.68649 0.29338 0.0
C1877 C 0.60152 0.74206 0.31069 0.0
C1878 C 0.58786 0.72295 0.30471 0.0
H1879 H 0.51187 0.62123 0.29533 0.0
H1880 H 0.53454 0.65268 0.30496 0.0
H1881 H 0.55818 0.70393 0.27893 0.0
H1882 H 0.6404 0.78691 0.30366 0.0
H1883 H 0.61796 0.75533 0.29377 0.0
C1884 C 0.35895 0.89124 0.28914 0.0
C1885 C 0.35827 0.87639 0.28147 0.0
C1886 C 0.34177 0.88866 0.29505 0.0
C1887 C 0.29417 0.85296 0.30755 0.0
H1888 H 0.27646 0.88963 0.29936 0.0
C1889 C 0.2169 0.84005 0.32238 0.0
C1890 C 0.21475 0.8564 0.32476 0.0
C1891 C 0.23484 0.84244 0.31783 0.0
C1892 C 0.28132 0.87946 0.30202 0.0
H1893 H 0.33936 0.84708 0.27421 0.0
H1894 H 0.30935 0.84231 0.2849 0.0
H1895 H 0.30721 0.89396 0.29053 0.0
H1896 H 0.22936 0.88795 0.32413 0.0
H1897 H 0.26098 0.89231 0.31687 0.0
H1898 H 0.26878 0.83879 0.3194 0.0
C1899 C 0.32314 0.85599 0.28619 0.0
C1900 C 0.2989 0.8819 0.29685 0.0
C1901 C 0.34022 0.85875 0.28004 0.0
C1902 C 0.23076 0.87513 0.32246 0.0
C1903 C 0.24881 0.87757 0.31816 0.0
C1904 C 0.27678 0.85074 0.31297 0.0
C1905 C 0.32373 0.87102 0.29362 0.0
C1906 C 0.3054 0.86861 0.29948 0.0
C1907 C 0.25107 0.86125 0.31559 0.0
C1908 C 0.26999 0.86388 0.31021 0.0
H1909 H 0.37268 0.90499 0.29034 0.0
H1910 H 0.34257 0.90043 0.30074 0.0
H1911 H 0.299 0.84259 0.30978 0.0
H1912 H 0.20456 0.82541 0.32378 0.0
H1913 H 0.23574 0.82946 0.31576 0.0
C1914 C 0.09283 0.45458 0.2788 0.0
C1915 C 0.09657 0.4724 0.28426 0.0
C1916 C 0.09964 0.44316 0.28455 0.0
C1917 C 0.11204 0.42959 0.31379 0.0
H1918 H 0.14779 0.41889 0.29454 0.0
C1919 C 0.14628 0.38472 0.33399 0.0
C1920 C 0.1484 0.3721 0.32564 0.0
C1921 C 0.14086 0.39811 0.3296 0.0
C1922 C 0.13759 0.42145 0.3 0.0
H1923 H 0.11025 0.49185 0.30027 0.0
H1924 H 0.12126 0.47128 0.31054 0.0
H1925 H 0.13557 0.43931 0.28567 0.0
H1926 H 0.14712 0.36419 0.30609 0.0
H1927 H 0.13637 0.38619 0.29851 0.0
H1928 H 0.11322 0.41102 0.3279 0.0
C1929 C 0.11321 0.46645 0.30173 0.0
C1930 C 0.13074 0.43327 0.29493 0.0
C1931 C 0.10676 0.47812 0.29585 0.0
C1932 C 0.14502 0.37318 0.31283 0.0
C1933 C 0.13931 0.38625 0.30844 0.0
C1934 C 0.11858 0.41741 0.31879 0.0
C1935 C 0.10994 0.44905 0.29601 0.0
C1936 C 0.11778 0.43728 0.30173 0.0
C1937 C 0.13728 0.39902 0.31674 0.0
C1938 C 0.13126 0.41298 0.31188 0.0
H1939 H 0.08462 0.44939 0.27007 0.0
H1940 H 0.0968 0.42965 0.28006 0.0
H1941 H 0.102 0.43251 0.31917 0.0
H1942 H 0.1485 0.3841 0.34393 0.0
H1943 H 0.13964 0.40782 0.33627 0.0
C1944 C 0.3578 0.4541 0.2826 0.0
C1945 C 0.36309 0.47373 0.2808 0.0
C1946 C 0.34046 0.44142 0.28899 0.0
C1947 C 0.30203 0.44028 0.31022 0.0
H1948 H 0.27001 0.38788 0.2966 0.0
C1949 C 0.21901 0.38863 0.32191 0.0
C1950 C 0.21286 0.3688 0.3235 0.0
C1951 C 0.23854 0.40176 0.31839 0.0
C1952 C 0.27891 0.40236 0.30064 0.0
H1953 H 0.35431 0.49543 0.28427 0.0
H1954 H 0.32388 0.47325 0.29524 0.0
H1955 H 0.30176 0.4101 0.28711 0.0
H1956 H 0.22158 0.34677 0.32223 0.0
H1957 H 0.25579 0.36967 0.31612 0.0
H1958 H 0.27873 0.43252 0.32356 0.0
C1959 C 0.33334 0.46773 0.29196 0.0
C1960 C 0.29715 0.41512 0.29521 0.0
C1961 C 0.35074 0.48044 0.28563 0.0
C1962 C 0.2263 0.36216 0.3214 0.0
C1963 C 0.24574 0.37521 0.31779 0.0
C1964 C 0.28369 0.42751 0.31562 0.0
C1965 C 0.32791 0.44803 0.29366 0.0
C1966 C 0.3089 0.43428 0.29987 0.0
C1967 C 0.25199 0.39509 0.31604 0.0
C1968 C 0.27191 0.40845 0.31084 0.0
H1969 H 0.36719 0.44859 0.27916 0.0
H1970 H 0.33693 0.42643 0.29032 0.0
H1971 H 0.31083 0.45483 0.31416 0.0
H1972 H 0.20861 0.39385 0.32315 0.0
H1973 H 0.24285 0.41694 0.31695 0.0
C1974 C 0.53121 0.87236 0.27127 0.0
C1975 C 0.51935 0.87702 0.27884 0.0
C1976 C 0.5459 0.8693 0.27659 0.0
C1977 C 0.5619 0.85664 0.30589 0.0
H1978 H 0.61359 0.88145 0.2901 0.0
C1979 C 0.64689 0.87365 0.31655 0.0
C1980 C 0.64317 0.85507 0.32019 0.0
C1981 C 0.63153 0.87621 0.31184 0.0
C1982 C 0.59927 0.87451 0.29465 0.0
H1983 H 0.51361 0.88186 0.29802 0.0
H1984 H 0.53911 0.8762 0.30731 0.0
H1985 H 0.58711 0.88604 0.28139 0.0
H1986 H 0.62085 0.82438 0.321 0.0
H1987 H 0.59384 0.82886 0.3129 0.0
H1988 H 0.57417 0.84511 0.31916 0.0
C1989 C 0.53693 0.87489 0.29724 0.0
C1990 C 0.58405 0.87699 0.2896 0.0
C1991 C 0.52229 0.87809 0.29191 0.0
C1992 C 0.62396 0.83896 0.31864 0.0
C1993 C 0.60854 0.84152 0.31399 0.0
C1994 C 0.57711 0.854 0.31088 0.0
C1995 C 0.54904 0.87067 0.28962 0.0
C1996 C 0.56518 0.86807 0.29514 0.0
C1997 C 0.61217 0.86019 0.31054 0.0
C1998 C 0.59596 0.86293 0.30532 0.0
H1999 H 0.52908 0.87094 0.2612 0.0
H2000 H 0.55474 0.86572 0.27048 0.0
H2001 H 0.54749 0.8495 0.31033 0.0
H2002 H 0.66168 0.88623 0.31747 0.0
H2003 H 0.63478 0.89078 0.3093 0.0
C2004 C 0.10022 0.64403 0.27435 0.0
C2005 C 0.09514 0.62782 0.28206 0.0
C2006 C 0.10663 0.6625 0.27958 0.0
C2007 C 0.13022 0.69191 0.30766 0.0
H2008 H 0.10891 0.72417 0.29582 0.0
C2009 C 0.14815 0.76405 0.33237 0.0
C2010 C 0.15066 0.77966 0.32489 0.0
C2011 C 0.14148 0.74556 0.32709 0.0
C2012 C 0.11524 0.71548 0.29911 0.0
H2013 H 0.09241 0.61833 0.30137 0.0
H2014 H 0.10402 0.65071 0.31048 0.0
H2015 H 0.09687 0.69175 0.28668 0.0
H2016 H 0.14827 0.78834 0.30602 0.0
H2017 H 0.13709 0.75619 0.29669 0.0
H2018 H 0.14887 0.71567 0.31992 0.0
C2019 C 0.10312 0.64905 0.30037 0.0
C2020 C 0.10827 0.69689 0.29391 0.0
C2021 C 0.09652 0.63054 0.29514 0.0
C2022 C 0.1464 0.7765 0.31201 0.0
C2023 C 0.1399 0.75806 0.30669 0.0
C2024 C 0.13734 0.71057 0.31278 0.0
C2025 C 0.10829 0.66521 0.29264 0.0
C2026 C 0.11565 0.68491 0.29816 0.0
C2027 C 0.13727 0.74233 0.31418 0.0
C2028 C 0.1299 0.72257 0.3086 0.0
H2029 H 0.09968 0.64257 0.26424 0.0
H2030 H 0.11075 0.67477 0.2734 0.0
H2031 H 0.13636 0.68306 0.31099 0.0
H2032 H 0.15064 0.76589 0.34235 0.0
H2033 H 0.13919 0.73371 0.3332 0.0
C2034 C 0.81313 0.03501 0.38498 0.0
C2035 C 0.81386 0.0373 0.39808 0.0
C2036 C 0.80018 0.01696 0.37937 0.0
C2037 C 0.77009 0.964 0.38649 0.0
H2038 H 0.74446 0.96198 0.35478 0.0
C2039 C 0.70673 0.89245 0.36482 0.0
C2040 C 0.70862 0.88924 0.35207 0.0
C2041 C 0.71959 0.91048 0.37047 0.0
C2042 C 0.75164 0.96235 0.36359 0.0
H2043 H 0.80146 0.02223 0.41555 0.0
H2044 H 0.77833 0.99109 0.40576 0.0
H2045 H 0.76652 0.99356 0.36465 0.0
H2046 H 0.7249 0.90261 0.33517 0.0
H2047 H 0.74743 0.9341 0.345 0.0
H2048 H 0.75479 0.93269 0.38549 0.0
C2049 C 0.78807 0.00313 0.39981 0.0
C2050 C 0.76434 0.98044 0.36924 0.0
C2051 C 0.80115 0.02112 0.40542 0.0
C2052 C 0.72341 0.90448 0.34504 0.0
C2053 C 0.73613 0.9226 0.35064 0.0
C2054 C 0.75722 0.94591 0.3809 0.0
C2055 C 0.78749 0.00077 0.38671 0.0
C2056 C 0.77379 0.9815 0.38075 0.0
C2057 C 0.73439 0.92575 0.36342 0.0
C2058 C 0.74792 0.94492 0.36938 0.0
H2059 H 0.82248 0.04719 0.379 0.0
H2060 H 0.80034 0.01567 0.36927 0.0
H2061 H 0.77737 0.96423 0.39522 0.0
H2062 H 0.69544 0.88094 0.37047 0.0
H2063 H 0.7178 0.91258 0.38032 0.0
C2064 C 0.99322 0.79717 0.40647 0.0
C2065 C 0.97612 0.79264 0.39936 0.0
C2066 C 0.01067 0.80043 0.40063 0.0
C2067 C 0.03737 0.81337 0.37055 0.0
H2068 H 0.06483 0.7883 0.385 0.0
C2069 C 0.10402 0.79556 0.35807 0.0
C2070 C 0.11936 0.81413 0.35465 0.0
C2071 C 0.08618 0.79314 0.36275 0.0
C2072 C 0.05728 0.79531 0.3808 0.0
H2073 H 0.96419 0.78823 0.38043 0.0
H2074 H 0.99477 0.79419 0.37024 0.0
H2075 H 0.03458 0.78395 0.39469 0.0
H2076 H 0.12841 0.84489 0.3538 0.0
H2077 H 0.09701 0.84065 0.36183 0.0
H2078 H 0.0602 0.82467 0.35661 0.0
C2079 C 0.99463 0.7953 0.38036 0.0
C2080 C 0.04006 0.79299 0.38644 0.0
C2081 C 0.97711 0.79191 0.38621 0.0
C2082 C 0.1166 0.83033 0.35606 0.0
C2083 C 0.09866 0.8279 0.36068 0.0
C2084 C 0.05476 0.81584 0.36496 0.0
C2085 C 0.01155 0.79938 0.38751 0.0
C2086 C 0.02989 0.80198 0.3814 0.0
C2087 C 0.08335 0.80929 0.36422 0.0
C2088 C 0.06487 0.80678 0.37002 0.0
H2089 H 0.9932 0.7983 0.41659 0.0
H2090 H 0.02355 0.80388 0.4064 0.0
H2091 H 0.02993 0.82057 0.36649 0.0
H2092 H 0.1059 0.7829 0.3572 0.0
H2093 H 0.07462 0.77861 0.36529 0.0
C2094 C 0.23704 0.20992 0.39908 0.0
C2095 C 0.24651 0.20145 0.3925 0.0
C2096 C 0.22991 0.22066 0.39279 0.0
C2097 C 0.23403 0.24708 0.36347 0.0
H2098 H 0.183 0.23972 0.37391 0.0
C2099 C 0.19418 0.28477 0.33962 0.0
C2100 C 0.18765 0.29396 0.34815 0.0
C2101 C 0.20096 0.27236 0.34395 0.0
C2102 C 0.19728 0.24194 0.3709 0.0
H2103 H 0.25653 0.19823 0.37416 0.0
H2104 H 0.24372 0.21673 0.36312 0.0
H2105 H 0.1961 0.22059 0.38363 0.0
H2106 H 0.18283 0.29707 0.36787 0.0
H2107 H 0.19445 0.27552 0.37529 0.0
H2108 H 0.23512 0.26859 0.35076 0.0
C2109 C 0.24192 0.21512 0.37318 0.0
C2110 C 0.20484 0.23107 0.37651 0.0
C2111 C 0.24909 0.20438 0.37949 0.0
C2112 C 0.18782 0.29033 0.36102 0.0
C2113 C 0.19435 0.27784 0.36529 0.0
C2114 C 0.22639 0.25794 0.3578 0.0
C2115 C 0.232 0.22315 0.37974 0.0
C2116 C 0.2235 0.23381 0.37307 0.0
C2117 C 0.201 0.26873 0.35683 0.0
C2118 C 0.20814 0.25575 0.36167 0.0
H2119 H 0.23462 0.2078 0.40908 0.0
H2120 H 0.22266 0.22695 0.39816 0.0
H2121 H 0.24849 0.24959 0.36064 0.0
H2122 H 0.19426 0.28732 0.32966 0.0
H2123 H 0.20598 0.26547 0.33723 0.0
C2124 C 0.6406 0.5292 0.72065 0.0
C2125 C 0.64023 0.5285 0.73383 0.0
C2126 C 0.65785 0.54249 0.71436 0.0
C2127 C 0.70406 0.58943 0.71907 0.0
H2128 H 0.72214 0.57456 0.68936 0.0
C2129 C 0.76873 0.64669 0.69005 0.0
C2130 C 0.78345 0.64219 0.68675 0.0
C2131 C 0.7505 0.63222 0.69464 0.0
C2132 C 0.71728 0.57888 0.69767 0.0
H2133 H 0.65801 0.54093 0.75068 0.0
H2134 H 0.68796 0.56421 0.73974 0.0
H2135 H 0.69205 0.55022 0.69999 0.0
H2136 H 0.79087 0.61915 0.68578 0.0
H2137 H 0.75883 0.5937 0.69373 0.0
H2138 H 0.72933 0.61794 0.71691 0.0
C2139 C 0.6748 0.55464 0.73427 0.0
C2140 C 0.69998 0.56502 0.70369 0.0
C2141 C 0.65761 0.54131 0.74055 0.0
C2142 C 0.77957 0.62289 0.68799 0.0
C2143 C 0.76125 0.60835 0.69256 0.0
C2144 C 0.72122 0.60327 0.71302 0.0
C2145 C 0.67511 0.55546 0.72111 0.0
C2146 C 0.69326 0.57012 0.71451 0.0
C2147 C 0.74667 0.61297 0.69617 0.0
C2148 C 0.72807 0.59817 0.70228 0.0
H2149 H 0.62742 0.51974 0.71517 0.0
H2150 H 0.65753 0.54292 0.70422 0.0
H2151 H 0.69917 0.59391 0.72729 0.0
H2152 H 0.77147 0.66151 0.68926 0.0
H2153 H 0.73948 0.63619 0.69719 0.0
C2154 C 0.45998 0.10444 0.73373 0.0
C2155 C 0.48007 0.11917 0.73429 0.0
C2156 C 0.44575 0.10791 0.72807 0.0
C2157 C 0.43986 0.14177 0.70648 0.0
H2158 H 0.38784 0.11901 0.72166 0.0
C2159 C 0.37977 0.16182 0.69208 0.0
C2160 C 0.3603 0.14606 0.69067 0.0
C2161 C 0.39482 0.15883 0.69699 0.0
C2162 C 0.40224 0.12533 0.71723 0.0
H2163 H 0.5009 0.14916 0.72933 0.0
H2164 H 0.47605 0.15534 0.71962 0.0
H2165 H 0.41318 0.11334 0.73096 0.0
H2166 H 0.34107 0.11509 0.69373 0.0
H2167 H 0.36725 0.10982 0.70231 0.0
H2168 H 0.4288 0.15399 0.69283 0.0
C2169 C 0.47132 0.14095 0.72335 0.0
C2170 C 0.41679 0.12203 0.72255 0.0
C2171 C 0.48559 0.13742 0.72894 0.0
C2172 C 0.35603 0.12742 0.69457 0.0
C2173 C 0.371 0.12444 0.69953 0.0
C2174 C 0.4253 0.14518 0.7012 0.0
C2175 C 0.45117 0.12627 0.72288 0.0
C2176 C 0.43578 0.13009 0.71722 0.0
C2177 C 0.39057 0.14011 0.70083 0.0
C2178 C 0.40628 0.13689 0.70648 0.0
H2179 H 0.45527 0.09011 0.73756 0.0
H2180 H 0.43049 0.09609 0.72767 0.0
H2181 H 0.45421 0.14802 0.702 0.0
H2182 H 0.38333 0.17645 0.68949 0.0
H2183 H 0.40969 0.17124 0.69801 0.0
C2184 C 0.90076 0.35734 0.73924 0.0
C2185 C 0.90429 0.37336 0.73176 0.0
C2186 C 0.89477 0.33908 0.7338 0.0
C2187 C 0.89258 0.31488 0.70345 0.0
H2188 H 0.85279 0.2685 0.72038 0.0
C2189 C 0.85246 0.23841 0.68006 0.0
C2190 C 0.85102 0.22292 0.68725 0.0
C2191 C 0.85913 0.2568 0.6855 0.0
C2192 C 0.86403 0.28133 0.71561 0.0
H2193 H 0.90469 0.38277 0.71264 0.0
H2194 H 0.89357 0.35079 0.70321 0.0
H2195 H 0.86426 0.30062 0.72981 0.0
H2196 H 0.85538 0.21447 0.70578 0.0
H2197 H 0.86693 0.24661 0.71532 0.0
H2198 H 0.89199 0.29549 0.68913 0.0
C2199 C 0.89573 0.3524 0.71327 0.0
C2200 C 0.87066 0.29973 0.72102 0.0
C2201 C 0.90185 0.3707 0.7187 0.0
C2202 C 0.85636 0.22616 0.7 0.0
C2203 C 0.86283 0.24449 0.70548 0.0
C2204 C 0.8858 0.29648 0.69799 0.0
C2205 C 0.89202 0.33634 0.72076 0.0
C2206 C 0.88505 0.31674 0.71502 0.0
C2207 C 0.86435 0.26001 0.69826 0.0
C2208 C 0.87148 0.27953 0.70403 0.0
H2209 H 0.90227 0.35878 0.74934 0.0
H2210 H 0.89234 0.32711 0.73984 0.0
H2211 H 0.90391 0.32763 0.69867 0.0
H2212 H 0.84897 0.23652 0.67019 0.0
H2213 H 0.8601 0.2685 0.67973 0.0
C2214 C 0.18342 0.96834 0.62619 0.0
C2215 C 0.1831 0.9658 0.61312 0.0
C2216 C 0.19693 0.98621 0.6318 0.0
C2217 C 0.23037 0.03878 0.62458 0.0
H2218 H 0.25447 0.03911 0.65658 0.0
C2219 C 0.2963 0.10854 0.64627 0.0
C2220 C 0.29451 0.1121 0.65898 0.0
C2221 C 0.2828 0.09067 0.64066 0.0
C2222 C 0.24775 0.03924 0.64768 0.0
H2223 H 0.19666 0.98033 0.59571 0.0
H2224 H 0.22067 0.01111 0.6055 0.0
H2225 H 0.23073 0.00802 0.6468 0.0
H2226 H 0.27782 0.0994 0.67585 0.0
H2227 H 0.25418 0.06827 0.6661 0.0
H2228 H 0.24775 0.07006 0.62541 0.0
C2229 C 0.21024 -0.00058 0.61143 0.0
C2230 C 0.23407 0.02143 0.64209 0.0
C2231 C 0.19663 0.98162 0.60582 0.0
C2232 C 0.27926 0.0973 0.66601 0.0
C2233 C 0.2659 0.07936 0.66045 0.0
C2234 C 0.24419 0.05658 0.63012 0.0
C2235 C 0.21058 0.00197 0.6245 0.0
C2236 C 0.22516 0.02095 0.63047 0.0
C2237 C 0.26743 0.0759 0.64769 0.0
C2238 C 0.25298 0.05699 0.64174 0.0
H2239 H 0.17339 0.95645 0.63214 0.0
H2240 H 0.19654 0.98769 0.64187 0.0
H2241 H 0.22357 0.03905 0.61575 0.0
H2242 H 0.30792 0.11969 0.6406 0.0
H2243 H 0.28447 0.08834 0.63083 0.0
C2244 C 0.01275 0.19127 0.61917 0.0
C2245 C 0.02612 0.20953 0.61401 0.0
C2246 C 0.99525 0.18822 0.62493 0.0
C2247 C 0.96156 0.20897 0.62616 0.0
H2248 H 0.94014 0.17632 0.65547 0.0
C2249 C 0.89678 0.20596 0.65377 0.0
C2250 C 0.88132 0.18744 0.65719 0.0
C2251 C 0.91459 0.20825 0.64914 0.0
C2252 C 0.94587 0.18534 0.64722 0.0
H2253 H 0.03197 0.23915 0.61137 0.0
H2254 H 0.00178 0.234 0.62153 0.0
H2255 H 0.97113 0.18124 0.64632 0.0
H2256 H 0.87204 0.15664 0.65802 0.0
H2257 H 0.90343 0.16065 0.65007 0.0
H2258 H 0.93647 0.21324 0.62711 0.0
C2259 C 0.00443 0.2218 0.62083 0.0
C2260 C 0.96362 0.18815 0.64195 0.0
C2261 C 0.02181 0.22479 0.61502 0.0
C2262 C 0.88393 0.17116 0.65577 0.0
C2263 C 0.90186 0.17346 0.65119 0.0
C2264 C 0.94396 0.20627 0.63145 0.0
C2265 C 0.99076 0.20341 0.62573 0.0
C2266 C 0.97176 0.2001 0.63137 0.0
C2267 C 0.91732 0.19202 0.64769 0.0
C2268 C 0.93594 0.19451 0.64207 0.0
H2269 H 0.01555 0.17916 0.61846 0.0
H2270 H 0.98501 0.17381 0.62846 0.0
H2271 H 0.96703 0.21787 0.61785 0.0
H2272 H 0.89503 0.2187 0.65464 0.0
H2273 H 0.92626 0.22276 0.64664 0.0
C2274 C 0.77157 0.7937 0.60565 0.0
C2275 C 0.76721 0.80592 0.61298 0.0
C2276 C 0.77794 0.78182 0.61128 0.0
C2277 C 0.80215 0.77729 0.63961 0.0
H2278 H 0.77888 0.72301 0.62931 0.0
C2279 C 0.81862 0.7226 0.66551 0.0
C2280 C 0.8198 0.70835 0.65826 0.0
C2281 C 0.8127 0.73497 0.66004 0.0
C2282 C 0.78577 0.73821 0.63217 0.0
H2283 H 0.76575 0.81486 0.63204 0.0
H2284 H 0.77725 0.79437 0.64182 0.0
H2285 H 0.76744 0.74354 0.61961 0.0
H2286 H 0.81636 0.69623 0.63954 0.0
H2287 H 0.80656 0.71805 0.62992 0.0
H2288 H 0.82073 0.77211 0.65202 0.0
C2289 C 0.77586 0.79415 0.6317 0.0
C2290 C 0.77914 0.74994 0.62664 0.0
C2291 C 0.76932 0.80591 0.62608 0.0
C2292 C 0.81537 0.70695 0.6454 0.0
C2293 C 0.80965 0.71941 0.6399 0.0
C2294 C 0.80893 0.76561 0.64507 0.0
C2295 C 0.78025 0.78201 0.62435 0.0
C2296 C 0.78725 0.76958 0.6303 0.0
C2297 C 0.80796 0.73339 0.64718 0.0
C2298 C 0.80084 0.74592 0.6414 0.0
H2299 H 0.77045 0.79358 0.59553 0.0
H2300 H 0.78145 0.77276 0.60538 0.0
H2301 H 0.80881 0.79247 0.6425 0.0
H2302 H 0.82148 0.72371 0.67546 0.0
H2303 H 0.81127 0.74535 0.66598 0.0
C2304 C 0.00762 0.79385 0.60727 0.0
C2305 C 0.0248 0.80631 0.61427 0.0
C2306 C 0.99027 0.78015 0.61325 0.0
C2307 C 0.96418 0.76807 0.6435 0.0
H2308 H 0.93558 0.71576 0.62924 0.0
C2309 C 0.88425 0.70931 0.65778 0.0
C2310 C 0.88051 0.69005 0.65893 0.0
C2311 C 0.90261 0.72404 0.65343 0.0
C2312 C 0.94347 0.73025 0.63341 0.0
H2313 H 0.03709 0.8141 0.63311 0.0
H2314 H 0.0067 0.79029 0.64353 0.0
H2315 H 0.96603 0.74044 0.61943 0.0
H2316 H 0.89273 0.67094 0.65633 0.0
H2317 H 0.92482 0.69662 0.64872 0.0
H2318 H 0.94151 0.75773 0.65752 0.0
C2319 C 0.00666 0.79127 0.63341 0.0
C2320 C 0.9608 0.74446 0.6277 0.0
C2321 C 0.02408 0.80492 0.62742 0.0
C2322 C 0.89537 0.68574 0.65563 0.0
C2323 C 0.91366 0.7004 0.65124 0.0
C2324 C 0.94671 0.75385 0.64918 0.0
C2325 C 0.98962 0.77861 0.62638 0.0
C2326 C 0.97132 0.76355 0.63264 0.0
C2327 C 0.9174 0.71966 0.64992 0.0
C2328 C 0.93618 0.73478 0.64418 0.0
H2329 H 0.00749 0.79476 0.59715 0.0
H2330 H 0.97728 0.77083 0.60757 0.0
H2331 H 0.97191 0.78269 0.64748 0.0
H2332 H 0.87284 0.7129 0.65996 0.0
H2333 H 0.90497 0.73869 0.65238 0.0
C2334 C 0.19842 0.20279 0.60524 0.0
C2335 C 0.18623 0.20738 0.61252 0.0
C2336 C 0.21312 0.2 0.61084 0.0
C2337 C 0.22894 0.18839 0.64073 0.0
H2338 H 0.28082 0.21306 0.62519 0.0
C2339 C 0.31429 0.20665 0.65222 0.0
C2340 C 0.31072 0.18831 0.6563 0.0
C2341 C 0.29883 0.20887 0.64725 0.0
C2342 C 0.26645 0.20616 0.62969 0.0
H2343 H 0.17991 0.21233 0.63155 0.0
H2344 H 0.20542 0.20716 0.64134 0.0
H2345 H 0.25422 0.21695 0.61595 0.0
H2346 H 0.28849 0.15766 0.65769 0.0
H2347 H 0.26134 0.16153 0.64917 0.0
H2348 H 0.2413 0.17764 0.6545 0.0
C2349 C 0.20349 0.20568 0.63126 0.0
C2350 C 0.25115 0.20823 0.62432 0.0
C2351 C 0.18884 0.20861 0.62563 0.0
C2352 C 0.29151 0.17208 0.65498 0.0
C2353 C 0.276 0.1743 0.65008 0.0
C2354 C 0.24424 0.18617 0.64605 0.0
C2355 C 0.21597 0.20157 0.62391 0.0
C2356 C 0.2322 0.19936 0.62976 0.0
C2357 C 0.27949 0.19272 0.64614 0.0
C2358 C 0.26317 0.19505 0.64059 0.0
H2359 H 0.19659 0.20126 0.59515 0.0
H2360 H 0.22223 0.19649 0.60493 0.0
H2361 H 0.21448 0.18128 0.64511 0.0
H2362 H 0.32904 0.21933 0.65296 0.0
H2363 H 0.30198 0.22326 0.64435 0.0
C2364 C 0.76774 0.97714 0.60564 0.0
C2365 C 0.7641 0.96102 0.61306 0.0
C2366 C 0.77366 0.99534 0.61115 0.0
C2367 C 0.79832 0.02474 0.63907 0.0
H2368 H 0.77388 0.05513 0.62912 0.0
C2369 C 0.81522 0.09576 0.66491 0.0
C2370 C 0.81655 0.11119 0.65774 0.0
C2371 C 0.80867 0.07739 0.65948 0.0
C2372 C 0.78107 0.04697 0.63188 0.0
H2373 H 0.76339 0.95137 0.63217 0.0
H2374 H 0.77413 0.98328 0.64174 0.0
H2375 H 0.76261 0.02311 0.61956 0.0
H2376 H 0.81218 0.1196 0.6392 0.0
H2377 H 0.8012 0.0877 0.6296 0.0
H2378 H 0.81706 0.04864 0.6512 0.0
C2379 C 0.77251 0.98178 0.63164 0.0
C2380 C 0.77454 0.0286 0.62643 0.0
C2381 C 0.76642 0.96354 0.62614 0.0
C2382 C 0.81119 0.10792 0.645 0.0
C2383 C 0.80481 0.08961 0.63951 0.0
C2384 C 0.80498 0.04317 0.64444 0.0
C2385 C 0.77625 0.99787 0.62419 0.0
C2386 C 0.78308 0.0173 0.63 0.0
C2387 C 0.80342 0.07408 0.6467 0.0
C2388 C 0.79641 0.05451 0.64093 0.0
H2389 H 0.76643 0.97583 0.59553 0.0
H2390 H 0.77666 0.00756 0.60518 0.0
H2391 H 0.80535 0.01643 0.64186 0.0
H2392 H 0.81863 0.09764 0.67479 0.0
H2393 H 0.80737 0.06568 0.66537 0.0
C2394 C 0.48539 0.36648 0.7238 0.0
C2395 C 0.48429 0.36912 0.73677 0.0
C2396 C 0.47244 0.34861 0.71798 0.0
C2397 C 0.42359 0.30479 0.72101 0.0
H2398 H 0.44448 0.28076 0.69858 0.0
C2399 C 0.37389 0.2269 0.70104 0.0
C2400 C 0.37739 0.22287 0.68877 0.0
C2401 C 0.38699 0.24466 0.70692 0.0
C2402 C 0.43831 0.28737 0.70465 0.0
H2403 H 0.46863 0.35472 0.75375 0.0
H2404 H 0.4457 0.32377 0.74348 0.0
H2405 H 0.46707 0.312 0.70863 0.0
H2406 H 0.39719 0.23464 0.67302 0.0
H2407 H 0.41976 0.26573 0.68303 0.0
H2408 H 0.3948 0.28055 0.71685 0.0
C2409 C 0.45663 0.33563 0.73786 0.0
C2410 C 0.4513 0.30525 0.71045 0.0
C2411 C 0.46974 0.35341 0.74372 0.0
C2412 C 0.39423 0.23708 0.6825 0.0
C2413 C 0.40722 0.25496 0.6883 0.0
C2414 C 0.41055 0.28704 0.71509 0.0
C2415 C 0.4579 0.33302 0.72494 0.0
C2416 C 0.44409 0.3141 0.71872 0.0
C2417 C 0.40383 0.25899 0.70062 0.0
C2418 C 0.41773 0.27803 0.70685 0.0
H2419 H 0.49609 0.3783 0.71807 0.0
H2420 H 0.47359 0.34709 0.70797 0.0
H2421 H 0.41759 0.31141 0.72723 0.0
H2422 H 0.36117 0.21619 0.70621 0.0
H2423 H 0.38403 0.247 0.71648 0.0
C2424 C 0.64198 0.10922 0.72379 0.0
C2425 C 0.64187 0.12281 0.73226 0.0
C2426 C 0.65955 0.11305 0.71781 0.0
C2427 C 0.71487 0.14612 0.71978 0.0
H2428 H 0.71299 0.1232 0.68721 0.0
C2429 C 0.78456 0.16369 0.69003 0.0
C2430 C 0.78626 0.14704 0.68774 0.0
C2431 C 0.76684 0.16175 0.6947 0.0
C2432 C 0.71368 0.12972 0.69629 0.0
H2433 H 0.6598 0.1513 0.74087 0.0
H2434 H 0.69023 0.15855 0.73 0.0
H2435 H 0.6823 0.11841 0.69662 0.0
H2436 H 0.77111 0.11546 0.68871 0.0
H2437 H 0.73984 0.11204 0.69643 0.0
H2438 H 0.74645 0.15791 0.71913 0.0
C2439 C 0.67705 0.14454 0.72827 0.0
C2440 C 0.69608 0.12684 0.70178 0.0
C2441 C 0.65957 0.14049 0.73446 0.0
C2442 C 0.77002 0.12848 0.69022 0.0
C2443 C 0.75218 0.12652 0.6946 0.0
C2444 C 0.73248 0.14936 0.71415 0.0
C2445 C 0.67741 0.13079 0.71994 0.0
C2446 C 0.69633 0.13474 0.71372 0.0
C2447 C 0.7505 0.14314 0.697 0.0
C2448 C 0.732 0.14096 0.70245 0.0
H2449 H 0.62854 0.0954 0.72202 0.0
H2450 H 0.65913 0.10184 0.71172 0.0
H2451 H 0.71585 0.15217 0.72905 0.0
H2452 H 0.79703 0.17819 0.68845 0.0
H2453 H 0.76589 0.17477 0.69652 0.0
C2454 C 0.91051 0.54584 0.73011 0.0
C2455 C 0.89708 0.52612 0.73266 0.0
C2456 C 0.90395 0.55751 0.72438 0.0
C2457 C 0.86187 0.5546 0.70586 0.0
H2458 H 0.88469 0.6087 0.71642 0.0
C2459 C 0.84526 0.60931 0.68009 0.0
C2460 C 0.84393 0.62344 0.68737 0.0
C2461 C 0.85123 0.59695 0.68553 0.0
C2462 C 0.87798 0.59356 0.71344 0.0
H2463 H 0.86622 0.50322 0.73145 0.0
H2464 H 0.85465 0.52365 0.72172 0.0
H2465 H 0.89593 0.58819 0.72624 0.0
H2466 H 0.84709 0.63531 0.70614 0.0
H2467 H 0.85695 0.61351 0.71571 0.0
H2468 H 0.8434 0.55982 0.69337 0.0
C2469 C 0.87035 0.53002 0.72382 0.0
C2470 C 0.88467 0.58187 0.71895 0.0
C2471 C 0.87694 0.51832 0.72944 0.0
C2472 C 0.84821 0.6247 0.70025 0.0
C2473 C 0.85397 0.61225 0.70572 0.0
C2474 C 0.85506 0.56627 0.70042 0.0
C2475 C 0.88377 0.54976 0.72119 0.0
C2476 C 0.87671 0.56223 0.71524 0.0
C2477 C 0.85584 0.5984 0.6984 0.0
C2478 C 0.86301 0.5859 0.70415 0.0
H2479 H 0.92616 0.55215 0.73235 0.0
H2480 H 0.91476 0.57255 0.72231 0.0
H2481 H 0.85558 0.53961 0.70264 0.0
H2482 H 0.84251 0.6083 0.67012 0.0
H2483 H 0.85279 0.58668 0.67956 0.0
C2484 C 0.48481 0.94598 0.18369 0.0
C2485 C 0.46521 0.9319 0.18674 0.0
C2486 C 0.48944 0.95398 0.1717 0.0
C2487 C 0.46736 0.96202 0.14315 0.0
H2488 H 0.51628 0.97066 0.12791 0.0
C2489 C 0.48884 0.98993 0.09222 0.0
C2490 C 0.50879 0.00427 0.09027 0.0
C2491 C 0.48289 0.98016 0.10367 0.0
C2492 C 0.50265 0.96852 0.13207 0.0
H2493 H 0.43508 0.91526 0.17949 0.0
H2494 H 0.44315 0.92931 0.15852 0.0
H2495 H 0.507 0.95551 0.14844 0.0
H2496 H 0.53817 0.01922 0.09879 0.0
H2497 H 0.52777 0.00248 0.11876 0.0
H2498 H 0.46312 0.97519 0.12678 0.0
C2499 C 0.45492 0.93426 0.16548 0.0
C2500 C 0.49733 0.95983 0.14385 0.0
C2501 C 0.45029 0.92622 0.17751 0.0
C2502 C 0.52265 0.00844 0.10001 0.0
C2503 C 0.51672 0.99866 0.11143 0.0
C2504 C 0.4727 0.97074 0.13134 0.0
C2505 C 0.47459 0.94817 0.16241 0.0
C2506 C 0.47973 0.95665 0.14961 0.0
C2507 C 0.49676 0.98442 0.11343 0.0
C2508 C 0.49053 0.97428 0.12571 0.0
H2509 H 0.49662 0.95102 0.19063 0.0
H2510 H 0.50466 0.96495 0.16976 0.0
H2511 H 0.45381 0.95998 0.14736 0.0
H2512 H 0.47775 0.98647 0.08495 0.0
H2513 H 0.46743 0.96916 0.10486 0.0
C2514 C 0.01947 0.50144 0.1857 0.0
C2515 C 0.0359 0.51942 0.18936 0.0
C2516 C 0.0121 0.49852 0.17343 0.0
C2517 C 0.0118 0.52592 0.14554 0.0
H2518 H 0.99281 0.47618 0.12844 0.0
C2519 C 0.9867 0.49093 0.09265 0.0
C2520 C 0.97481 0.49896 0.08915 0.0
C2521 C 0.99381 0.49289 0.10493 0.0
C2522 C 0.99818 0.49021 0.13305 0.0
H2523 H 0.05794 0.54816 0.18291 0.0
H2524 H 0.04524 0.54301 0.16147 0.0
H2525 H 0.0067 0.4808 0.14956 0.0
H2526 H 0.96097 0.51527 0.09587 0.0
H2527 H 0.97294 0.51825 0.11737 0.0
H2528 H 0.00377 0.53552 0.12894 0.0
C2529 C 0.03774 0.53132 0.16815 0.0
C2530 C 0.00594 0.49278 0.14521 0.0
C2531 C 0.04504 0.53426 0.18042 0.0
C2532 C 0.96995 0.50876 0.09827 0.0
C2533 C 0.97702 0.51068 0.11057 0.0
C2534 C 0.00409 0.52337 0.13338 0.0
C2535 C 0.02106 0.51348 0.16453 0.0
C2536 C 0.01286 0.51068 0.15159 0.0
C2537 C 0.98915 0.50289 0.11402 0.0
C2538 C 0.99718 0.50548 0.12699 0.0
H2539 H 0.01198 0.4898 0.19242 0.0
H2540 H 0.99909 0.48469 0.17099 0.0
H2541 H 0.01676 0.53982 0.15023 0.0
H2542 H 0.99051 0.48308 0.08589 0.0
H2543 H 0.00326 0.48687 0.10724 0.0
C2544 C 0.4771 0.53276 0.17647 0.0
C2545 C 0.46976 0.51783 0.18545 0.0
C2546 C 0.48182 0.52944 0.16444 0.0
C2547 C 0.47369 0.4905 0.14172 0.0
H2548 H 0.52269 0.53127 0.12744 0.0
C2549 C 0.49611 0.48864 0.09022 0.0
C2550 C 0.51622 0.49487 0.08796 0.0
C2551 C 0.48994 0.4908 0.10212 0.0
C2552 C 0.50903 0.51967 0.13132 0.0
H2553 H 0.4613 0.48757 0.18872 0.0
H2554 H 0.46956 0.48175 0.16767 0.0
H2555 H 0.51263 0.53605 0.14811 0.0
H2556 H 0.5456 0.50825 0.09645 0.0
H2557 H 0.53479 0.51171 0.11723 0.0
H2558 H 0.47032 0.47399 0.12498 0.0
C2559 C 0.47149 0.49599 0.16993 0.0
C2560 C 0.50314 0.52251 0.14311 0.0
C2561 C 0.46676 0.49932 0.18199 0.0
C2562 C 0.52997 0.50313 0.0979 0.0
C2563 C 0.52381 0.50532 0.10977 0.0
C2564 C 0.47958 0.48767 0.12989 0.0
C2565 C 0.47932 0.5111 0.16107 0.0
C2566 C 0.4854 0.50798 0.14846 0.0
C2567 C 0.50374 0.4993 0.11201 0.0
C2568 C 0.49735 0.50221 0.12457 0.0
H2569 H 0.47921 0.54706 0.17875 0.0
H2570 H 0.48742 0.54126 0.15776 0.0
H2571 H 0.45987 0.47908 0.14553 0.0
H2572 H 0.4851 0.48202 0.08281 0.0
H2573 H 0.4744 0.48614 0.1035 0.0
C2574 C 0.98542 0.50121 0.82732 0.0
C2575 C 0.96898 0.48329 0.8236 0.0
C2576 C 0.99301 0.50385 0.83954 0.0
C2577 C 0.99377 0.47547 0.86682 0.0
H2578 H 0.01342 0.52464 0.88474 0.0
C2579 C 0.03595 0.49022 0.91377 0.0
C2580 C 0.03145 0.49984 0.92322 0.0
C2581 C 0.02882 0.48895 0.90156 0.0
C2582 C 0.00786 0.51076 0.8799 0.0
H2583 H 0.94707 0.4544 0.82989 0.0
H2584 H 0.96011 0.45903 0.8512 0.0
H2585 H 0.99925 0.52089 0.86376 0.0
H2586 H 0.01631 0.5161 0.92711 0.0
H2587 H 0.00342 0.51339 0.90589 0.0
H2588 H 0.00185 0.46513 0.88303 0.0
C2589 C 0.9675 0.4709 0.84463 0.0
C2590 C 0.99995 0.5087 0.86781 0.0
C2591 C 0.95999 0.46825 0.83242 0.0
C2592 C 0.01983 0.50835 0.92011 0.0
C2593 C 0.01265 0.50702 0.90789 0.0
C2594 C 0.00162 0.47752 0.87889 0.0
C2595 C 0.98426 0.48863 0.8483 0.0
C2596 C 0.99276 0.491 0.86114 0.0
C2597 C 0.01696 0.4972 0.89848 0.0
C2598 C 0.00877 0.49518 0.88558 0.0
H2599 H 0.99274 0.51301 0.82069 0.0
H2600 H 0.00605 0.51762 0.84202 0.0
H2601 H 0.98863 0.46172 0.86189 0.0
H2602 H 0.0447 0.48335 0.91586 0.0
H2603 H 0.03265 0.4815 0.89451 0.0
C2604 C 0.53 0.5033 0.82881 0.0
C2605 C 0.52929 0.4854 0.82651 0.0
C2606 C 0.52541 0.50759 0.84065 0.0
C2607 C 0.49928 0.4837 0.86999 0.0
H2608 H 0.52802 0.53647 0.88348 0.0
C2609 C 0.50768 0.52824 0.9194 0.0
C2610 C 0.48757 0.51938 0.9228 0.0
C2611 C 0.51314 0.52418 0.90777 0.0
C2612 C 0.51996 0.52161 0.87992 0.0
H2613 H 0.52377 0.45824 0.83496 0.0
H2614 H 0.51602 0.46579 0.85562 0.0
H2615 H 0.53732 0.52926 0.86322 0.0
H2616 H 0.45745 0.49903 0.91661 0.0
H2617 H 0.46689 0.49242 0.89626 0.0
H2618 H 0.48225 0.47592 0.88681 0.0
C2619 C 0.51966 0.47635 0.84821 0.0
C2620 C 0.52513 0.51752 0.8682 0.0
C2621 C 0.52414 0.47202 0.83637 0.0
C2622 C 0.47307 0.50634 0.91426 0.0
C2623 C 0.47852 0.50233 0.90263 0.0
C2624 C 0.49416 0.48777 0.88171 0.0
C2625 C 0.52011 0.49414 0.8505 0.0
C2626 C 0.51482 0.49851 0.86306 0.0
C2627 C 0.49862 0.51116 0.89923 0.0
C2628 C 0.50437 0.5068 0.88682 0.0
H2629 H 0.53369 0.51383 0.82138 0.0
H2630 H 0.52563 0.52131 0.84199 0.0
H2631 H 0.49084 0.46894 0.86629 0.0
H2632 H 0.51925 0.5385 0.92567 0.0
H2633 H 0.52878 0.5311 0.90554 0.0
C2634 C 0.5328 0.04088 0.8273 0.0
C2635 C 0.53357 0.05892 0.82567 0.0
C2636 C 0.5283 0.03175 0.83899 0.0
C2637 C 0.52853 0.041 0.87288 0.0
H2638 H 0.48973 0.98573 0.87429 0.0
C2639 C 0.49836 0.00067 0.92006 0.0
C2640 C 0.49334 0.98095 0.92075 0.0
C2641 C 0.50391 0.01061 0.90863 0.0
C2642 C 0.50086 0.00109 0.87411 0.0
H2643 H 0.53057 0.08166 0.83512 0.0
H2644 H 0.52285 0.06575 0.85559 0.0
H2645 H 0.49831 0.00214 0.85416 0.0
H2646 H 0.49106 0.95647 0.91012 0.0
H2647 H 0.50131 0.97384 0.89033 0.0
H2648 H 0.5314 0.03994 0.89279 0.0
C2649 C 0.52569 0.05868 0.8478 0.0
C2650 C 0.50571 0.01052 0.86253 0.0
C2651 C 0.52995 0.06771 0.83605 0.0
C2652 C 0.49456 0.97158 0.90984 0.0
C2653 C 0.50033 0.98155 0.89847 0.0
C2654 C 0.52385 0.03152 0.88448 0.0
C2655 C 0.52468 0.04052 0.84938 0.0
C2656 C 0.51959 0.03059 0.86176 0.0
C2657 C 0.5048 0.00113 0.89762 0.0
C2658 C 0.50994 0.01139 0.88527 0.0
H2659 H 0.53536 0.03365 0.81948 0.0
H2660 H 0.52778 0.01784 0.83992 0.0
H2661 H 0.53943 0.05644 0.87259 0.0
H2662 H 0.49739 0.00824 0.92829 0.0
H2663 H 0.50697 0.02558 0.90838 0.0
C2664 C 0.15574 0.28256 0.51778 0.0
C2665 C 0.13616 0.26839 0.52079 0.0
C2666 C 0.16031 0.29098 0.50588 0.0
C2667 C 0.14173 0.28339 0.47307 0.0
H2668 H 0.17973 0.33874 0.47031 0.0
C2669 C 0.15829 0.3255 0.42598 0.0
C2670 C 0.17819 0.33968 0.4237 0.0
C2671 C 0.15265 0.31633 0.43766 0.0
C2672 C 0.16925 0.32322 0.47088 0.0
H2673 H 0.10602 0.25188 0.51351 0.0
H2674 H 0.11393 0.26683 0.49281 0.0
H2675 H 0.17079 0.32387 0.49091 0.0
H2676 H 0.20787 0.35467 0.4318 0.0
H2677 H 0.19808 0.33877 0.45206 0.0
H2678 H 0.14024 0.2828 0.45299 0.0
C2679 C 0.12581 0.27129 0.49964 0.0
C2680 C 0.16412 0.31467 0.48272 0.0
C2681 C 0.12124 0.26288 0.51157 0.0
C2682 C 0.19235 0.34415 0.4333 0.0
C2683 C 0.18672 0.33502 0.44494 0.0
C2684 C 0.14688 0.29196 0.4612 0.0
C2685 C 0.14541 0.28549 0.49665 0.0
C2686 C 0.1504 0.29462 0.48399 0.0
C2687 C 0.16678 0.32113 0.44734 0.0
C2688 C 0.16083 0.31197 0.45995 0.0
H2689 H 0.16759 0.28734 0.52467 0.0
H2690 H 0.1756 0.30168 0.50389 0.0
H2691 H 0.13129 0.26786 0.47366 0.0
H2692 H 0.14696 0.32183 0.41885 0.0
H2693 H 0.13713 0.30584 0.43921 0.0
C2694 C 0.68307 0.83302 0.51729 0.0
C2695 C 0.69947 0.85093 0.52107 0.0
C2696 C 0.67588 0.83029 0.50496 0.0
C2697 C 0.6763 0.85827 0.47717 0.0
H2698 H 0.65721 0.80878 0.45974 0.0
C2699 C 0.65166 0.82424 0.42399 0.0
C2700 C 0.64 0.83255 0.42053 0.0
C2701 C 0.65864 0.82593 0.43629 0.0
C2702 C 0.66262 0.82274 0.46444 0.0
H2703 H 0.72171 0.8797 0.5148 0.0
H2704 H 0.70937 0.87489 0.4933 0.0
H2705 H 0.67062 0.81288 0.48097 0.0
H2706 H 0.62653 0.84915 0.42735 0.0
H2707 H 0.63823 0.85163 0.44885 0.0
H2708 H 0.6688 0.86833 0.46058 0.0
C2709 C 0.7017 0.86312 0.49991 0.0
C2710 C 0.67009 0.82501 0.47666 0.0
C2711 C 0.70881 0.86587 0.51222 0.0
C2712 C 0.6353 0.8424 0.42971 0.0
C2713 C 0.64223 0.84404 0.44201 0.0
C2714 C 0.66888 0.85602 0.46496 0.0
C2715 C 0.68503 0.84537 0.49616 0.0
C2716 C 0.67704 0.84282 0.48317 0.0
C2717 C 0.65409 0.83594 0.44543 0.0
C2718 C 0.66193 0.83823 0.45845 0.0
H2719 H 0.67547 0.8213 0.52394 0.0
H2720 H 0.66288 0.81652 0.50243 0.0
H2721 H 0.68128 0.8721 0.48195 0.0
H2722 H 0.65535 0.81634 0.41719 0.0
H2723 H 0.66788 0.81967 0.43858 0.0
C2724 C 0.12446 0.84432 0.51339 0.0
C2725 C 0.13908 0.85355 0.52278 0.0
C2726 C 0.12963 0.84132 0.50137 0.0
C2727 C 0.17243 0.86013 0.48007 0.0
H2728 H 0.14043 0.81149 0.46188 0.0
C2729 C 0.19919 0.84269 0.43407 0.0
C2730 C 0.18515 0.83329 0.4244 0.0
C2731 C 0.19319 0.84487 0.446 0.0
C2732 C 0.1494 0.82526 0.46676 0.0
H2733 H 0.1705 0.86613 0.527 0.0
H2734 H 0.17949 0.861 0.50608 0.0
H2735 H 0.13053 0.81563 0.48283 0.0
H2736 H 0.1537 0.81859 0.41979 0.0
H2737 H 0.14327 0.82282 0.44053 0.0
H2738 H 0.19124 0.86985 0.46403 0.0
C2739 C 0.16408 0.85641 0.50793 0.0
C2740 C 0.14373 0.82761 0.47878 0.0
C2741 C 0.15892 0.85935 0.51993 0.0
C2742 C 0.16493 0.8261 0.42698 0.0
C2743 C 0.15893 0.82831 0.43892 0.0
C2744 C 0.17806 0.85781 0.46806 0.0
C2745 C 0.14954 0.84752 0.49847 0.0
C2746 C 0.15526 0.84504 0.4856 0.0
C2747 C 0.17299 0.83776 0.44858 0.0
C2748 C 0.1667 0.84031 0.46128 0.0
H2749 H 0.10908 0.83987 0.51522 0.0
H2750 H 0.1181 0.8346 0.49426 0.0
H2751 H 0.18143 0.87388 0.48497 0.0
H2752 H 0.21489 0.84859 0.4324 0.0
H2753 H 0.20441 0.85202 0.45325 0.0
C2754 C 0.62437 0.80226 0.1611 0.0
C2755 C 0.63436 0.8175 0.15251 0.0
C2756 C 0.63071 0.80452 0.17358 0.0
C2757 C 0.66152 0.84168 0.19762 0.0
H2758 H 0.66222 0.79777 0.21326 0.0
C2759 C 0.68058 0.84175 0.25016 0.0
C2760 C 0.69244 0.83354 0.25333 0.0
C2761 C 0.67313 0.83998 0.23797 0.0
C2762 C 0.66226 0.81023 0.20901 0.0
H2763 H 0.65871 0.84715 0.15032 0.0
H2764 H 0.66991 0.85107 0.1721 0.0
H2765 H 0.65004 0.79462 0.19184 0.0
H2766 H 0.70562 0.81688 0.24616 0.0
H2767 H 0.69305 0.8142 0.22486 0.0
H2768 H 0.67429 0.85745 0.21471 0.0
C2769 C 0.65698 0.83745 0.16923 0.0
C2770 C 0.65502 0.80834 0.19677 0.0
C2771 C 0.65058 0.83521 0.15674 0.0
C2772 C 0.69672 0.82357 0.24401 0.0
C2773 C 0.68929 0.82181 0.23183 0.0
C2774 C 0.6688 0.84358 0.20987 0.0
C2775 C 0.64724 0.82206 0.17777 0.0
C2776 C 0.6546 0.82405 0.19091 0.0
C2777 C 0.67736 0.82995 0.22866 0.0
C2778 C 0.66933 0.82789 0.2157 0.0
H2779 H 0.61159 0.78856 0.15817 0.0
H2780 H 0.62261 0.79251 0.17995 0.0
H2781 H 0.66123 0.854 0.19343 0.0
H2782 H 0.67717 0.84972 0.25707 0.0
H2783 H 0.66384 0.84626 0.23588 0.0
C2784 C 0.19285 0.80236 0.16651 0.0
C2785 C 0.19883 0.81694 0.15736 0.0
C2786 C 0.18793 0.80543 0.17855 0.0
C2787 C 0.1931 0.84382 0.20087 0.0
H2788 H 0.14644 0.80085 0.21587 0.0
C2789 C 0.13649 0.82784 0.24504 0.0
C2790 C 0.15025 0.83763 0.25479 0.0
C2791 C 0.14291 0.82581 0.23321 0.0
C2792 C 0.15942 0.81305 0.21178 0.0
H2793 H 0.20471 0.84637 0.15378 0.0
H2794 H 0.19605 0.85174 0.17483 0.0
H2795 H 0.15693 0.79666 0.19519 0.0
H2796 H 0.18162 0.85328 0.25964 0.0
H2797 H 0.1928 0.84942 0.23904 0.0
H2798 H 0.19531 0.86033 0.2174 0.0
C2799 C 0.19535 0.83797 0.17271 0.0
C2800 C 0.16559 0.81057 0.19999 0.0
C2801 C 0.20031 0.8349 0.16064 0.0
C2802 C 0.17061 0.84547 0.25238 0.0
C2803 C 0.17704 0.84345 0.24053 0.0
C2804 C 0.18694 0.8463 0.2127 0.0
C2805 C 0.18886 0.82317 0.18176 0.0
C2806 C 0.1825 0.82591 0.19437 0.0
C2807 C 0.16325 0.83352 0.23082 0.0
C2808 C 0.16999 0.83095 0.21828 0.0
H2809 H 0.19195 0.78851 0.16437 0.0
H2810 H 0.1834 0.79388 0.18537 0.0
H2811 H 0.20628 0.85588 0.19686 0.0
H2812 H 0.12069 0.82146 0.24659 0.0
H2813 H 0.13191 0.81827 0.2259 0.0
C2814 C 0.19929 0.37073 0.16095 0.0
C2815 C 0.20027 0.38885 0.15923 0.0
C2816 C 0.19487 0.36178 0.1727 0.0
C2817 C 0.19564 0.37163 0.20658 0.0
H2818 H 0.15657 0.31647 0.20835 0.0
C2819 C 0.16572 0.33198 0.25402 0.0
C2820 C 0.16057 0.31223 0.25479 0.0
C2821 C 0.17124 0.34179 0.24254 0.0
C2822 C 0.16777 0.33181 0.20806 0.0
H2823 H 0.19778 0.41195 0.16861 0.0
H2824 H 0.1902 0.39636 0.18917 0.0
H2825 H 0.16503 0.33258 0.18811 0.0
H2826 H 0.15806 0.28756 0.24426 0.0
H2827 H 0.16826 0.3047 0.2244 0.0
H2828 H 0.19869 0.37083 0.22649 0.0
C2829 C 0.19281 0.38907 0.1814 0.0
C2830 C 0.17256 0.34107 0.19642 0.0
C2831 C 0.19698 0.39792 0.1696 0.0
C2832 C 0.16166 0.3027 0.24393 0.0
C2833 C 0.1674 0.31254 0.23251 0.0
C2834 C 0.19102 0.36232 0.21823 0.0
C2835 C 0.19156 0.37083 0.18307 0.0
C2836 C 0.18654 0.36108 0.19552 0.0
C2837 C 0.17196 0.33214 0.23157 0.0
C2838 C 0.17702 0.34224 0.21916 0.0
H2839 H 0.2016 0.36329 0.15315 0.0
H2840 H 0.19418 0.34781 0.1737 0.0
H2841 H 0.20662 0.38704 0.20619 0.0
H2842 H 0.16484 0.33966 0.26222 0.0
H2843 H 0.1744 0.35678 0.24222 0.0
C2844 C 0.82711 0.61953 0.85215 0.0
C2845 C 0.80743 0.60571 0.85523 0.0
C2846 C 0.83169 0.62804 0.84028 0.0
C2847 C 0.81251 0.62107 0.80763 0.0
H2848 H 0.85205 0.67595 0.80474 0.0
C2849 C 0.82909 0.66345 0.76075 0.0
C2850 C 0.84914 0.67674 0.75814 0.0
C2851 C 0.82354 0.65444 0.77247 0.0
C2852 C 0.84112 0.66056 0.80536 0.0
H2853 H 0.77715 0.58994 0.84811 0.0
H2854 H 0.78508 0.60511 0.8275 0.0
H2855 H 0.84313 0.66114 0.82537 0.0
H2856 H 0.87914 0.69037 0.76572 0.0
H2857 H 0.86948 0.67478 0.7861 0.0
H2858 H 0.8105 0.62057 0.78757 0.0
C2859 C 0.79703 0.6092 0.83423 0.0
C2860 C 0.836 0.65204 0.81721 0.0
C2861 C 0.79244 0.60067 0.84612 0.0
C2862 C 0.86352 0.68054 0.76748 0.0
C2863 C 0.85798 0.67159 0.77918 0.0
C2864 C 0.8176 0.62961 0.79576 0.0
C2865 C 0.81673 0.62301 0.83116 0.0
C2866 C 0.82173 0.63215 0.81851 0.0
C2867 C 0.83791 0.65853 0.78187 0.0
C2868 C 0.83208 0.64944 0.79448 0.0
H2869 H 0.83902 0.62396 0.85895 0.0
H2870 H 0.84706 0.63842 0.83822 0.0
H2871 H 0.80164 0.60565 0.80825 0.0
H2872 H 0.81759 0.66034 0.75385 0.0
H2873 H 0.80794 0.64461 0.77427 0.0
C2874 C 0.35133 0.16537 0.85337 0.0
C2875 C 0.36856 0.1826 0.85716 0.0
C2876 C 0.34463 0.16287 0.84095 0.0
C2877 C 0.34789 0.19152 0.81301 0.0
H2878 H 0.32477 0.14134 0.79591 0.0
C2879 C 0.31969 0.15743 0.76022 0.0
C2880 C 0.3089 0.16675 0.757 0.0
C2881 C 0.32696 0.15881 0.77241 0.0
C2882 C 0.33132 0.15548 0.80053 0.0
H2883 H 0.39277 0.2103 0.85081 0.0
H2884 H 0.38117 0.2059 0.82913 0.0
H2885 H 0.33844 0.14481 0.81703 0.0
H2886 H 0.2972 0.18476 0.76409 0.0
H2887 H 0.30949 0.1868 0.78542 0.0
H2888 H 0.34111 0.20231 0.79647 0.0
C2889 C 0.37259 0.19451 0.8358 0.0
C2890 C 0.33896 0.15742 0.81267 0.0
C2891 C 0.37925 0.19702 0.84821 0.0
C2892 C 0.30531 0.17726 0.76629 0.0
C2893 C 0.31257 0.17863 0.77847 0.0
C2894 C 0.34026 0.18959 0.80089 0.0
C2895 C 0.35505 0.17753 0.83206 0.0
C2896 C 0.3473 0.17546 0.81906 0.0
C2897 C 0.3236 0.16955 0.78165 0.0
C2898 C 0.33182 0.17154 0.79452 0.0
H2899 H 0.34267 0.15409 0.86009 0.0
H2900 H 0.33094 0.14972 0.83842 0.0
H2901 H 0.35398 0.20557 0.81772 0.0
H2902 H 0.32252 0.14903 0.75331 0.0
H2903 H 0.33553 0.15176 0.77453 0.0
C2904 C 0.80904 0.20052 0.84506 0.0
C2905 C 0.80312 0.18603 0.85427 0.0
C2906 C 0.81389 0.1973 0.83304 0.0
C2907 C 0.80863 0.15865 0.81095 0.0
H2908 H 0.85533 0.20137 0.79581 0.0
C2909 C 0.83097 0.15647 0.75951 0.0
C2910 C 0.85131 0.16426 0.75708 0.0
C2911 C 0.82459 0.15856 0.77135 0.0
C2912 C 0.84234 0.18924 0.79993 0.0
H2913 H 0.79731 0.15667 0.85801 0.0
H2914 H 0.80584 0.15106 0.83699 0.0
H2915 H 0.84487 0.20586 0.81642 0.0
H2916 H 0.88091 0.18037 0.76523 0.0
H2917 H 0.86978 0.18369 0.78593 0.0
H2918 H 0.80639 0.14192 0.79452 0.0
C2919 C 0.80653 0.16484 0.83904 0.0
C2920 C 0.83619 0.19189 0.81169 0.0
C2921 C 0.80165 0.16805 0.85108 0.0
C2922 C 0.86512 0.17403 0.76681 0.0
C2923 C 0.85875 0.17614 0.77864 0.0
C2924 C 0.81478 0.156 0.79916 0.0
C2925 C 0.81296 0.17954 0.82993 0.0
C2926 C 0.81927 0.17664 0.81734 0.0
C2927 C 0.83843 0.16853 0.78103 0.0
C2928 C 0.83175 0.17126 0.79353 0.0
H2929 H 0.80996 0.21439 0.84715 0.0
H2930 H 0.81838 0.20878 0.82616 0.0
H2931 H 0.79544 0.14666 0.815 0.0
H2932 H 0.81993 0.14867 0.75226 0.0
H2933 H 0.80884 0.15266 0.77285 0.0
C2934 C 0.29034 0.13829 0.49872 0.0
C2935 C 0.30068 0.15298 0.48985 0.0
C2936 C 0.29708 0.14074 0.51111 0.0
C2937 C 0.33013 0.17778 0.53449 0.0
H2938 H 0.32907 0.13307 0.55021 0.0
C2939 C 0.34964 0.17721 0.5869 0.0
C2940 C 0.36085 0.16825 0.58996 0.0
C2941 C 0.34224 0.17586 0.57474 0.0
C2942 C 0.32962 0.14575 0.54593 0.0
H2943 H 0.32598 0.18191 0.48707 0.0
H2944 H 0.33787 0.18617 0.50873 0.0
H2945 H 0.31626 0.13002 0.52896 0.0
H2946 H 0.37304 0.15082 0.5826 0.0
H2947 H 0.36052 0.14882 0.56135 0.0
H2948 H 0.34395 0.19362 0.5514 0.0
C2949 C 0.3244 0.17284 0.50613 0.0
C2950 C 0.32202 0.14393 0.5338 0.0
C2951 C 0.31761 0.17041 0.49372 0.0
C2952 C 0.36463 0.15805 0.58054 0.0
C2953 C 0.35724 0.1567 0.56839 0.0
C2954 C 0.33774 0.17961 0.54665 0.0
C2955 C 0.31436 0.15792 0.51493 0.0
C2956 C 0.32219 0.15992 0.52792 0.0
C2957 C 0.34587 0.1655 0.56536 0.0
C2958 C 0.33763 0.16362 0.55249 0.0
H2959 H 0.27702 0.12485 0.49608 0.0
H2960 H 0.28876 0.12913 0.51771 0.0
H2961 H 0.33033 0.19034 0.53027 0.0
H2962 H 0.34665 0.18537 0.5939 0.0
H2963 H 0.33341 0.18267 0.57275 0.0
C2964 C 0.85716 0.13175 0.49971 0.0
C2965 C 0.86386 0.14655 0.49067 0.0
C2966 C 0.85218 0.13486 0.51173 0.0
C2967 C 0.85847 0.17364 0.53411 0.0
H2968 H 0.81099 0.13154 0.54898 0.0
C2969 C 0.80205 0.15935 0.57813 0.0
C2970 C 0.8159 0.16896 0.58786 0.0
C2971 C 0.8083 0.157 0.56632 0.0
C2972 C 0.8242 0.1435 0.54493 0.0
H2973 H 0.87077 0.17634 0.48723 0.0
H2974 H 0.86199 0.18177 0.50819 0.0
H2975 H 0.82132 0.12692 0.52835 0.0
H2976 H 0.84728 0.184 0.59269 0.0
H2977 H 0.85816 0.17957 0.57215 0.0
H2978 H 0.86107 0.19036 0.55059 0.0
C2979 C 0.86083 0.16782 0.50604 0.0
C2980 C 0.83028 0.14077 0.53316 0.0
C2981 C 0.86586 0.16471 0.49402 0.0
C2982 C 0.83619 0.17632 0.58545 0.0
C2983 C 0.84245 0.17398 0.57363 0.0
C2984 C 0.85239 0.17638 0.54589 0.0
C2985 C 0.85373 0.15286 0.515 0.0
C2986 C 0.84748 0.1558 0.5276 0.0
C2987 C 0.82857 0.16421 0.56394 0.0
C2988 C 0.83515 0.16135 0.55143 0.0
H2989 H 0.8558 0.11771 0.49751 0.0
H2990 H 0.84714 0.12316 0.51847 0.0
H2991 H 0.87189 0.18546 0.53014 0.0
H2992 H 0.78629 0.15334 0.57969 0.0
H2993 H 0.79723 0.14962 0.55902 0.0
C2994 C 0.86426 0.71241 0.49362 0.0
C2995 C 0.86383 0.7297 0.49126 0.0
C2996 C 0.85934 0.70371 0.50544 0.0
C2997 C 0.85539 0.71387 0.5388 0.0
H2998 H 0.82035 0.65778 0.54066 0.0
C2999 C 0.82163 0.67479 0.58568 0.0
C3000 C 0.81915 0.65606 0.58745 0.0
C3001 C 0.82765 0.68407 0.57407 0.0
C3002 C 0.83039 0.67342 0.54035 0.0
H3003 H 0.8583 0.75164 0.49957 0.0
H3004 H 0.84968 0.73643 0.52019 0.0
H3005 H 0.83 0.67337 0.52028 0.0
H3006 H 0.82172 0.6327 0.57853 0.0
H3007 H 0.83254 0.64896 0.55841 0.0
H3008 H 0.85597 0.71393 0.55886 0.0
C3009 C 0.85385 0.72961 0.5129 0.0
C3010 C 0.83588 0.68236 0.52864 0.0
C3011 C 0.8586 0.73822 0.50105 0.0
C3012 C 0.82318 0.64699 0.57742 0.0
C3013 C 0.82933 0.65631 0.56585 0.0
C3014 C 0.85001 0.7049 0.55053 0.0
C3015 C 0.85403 0.71218 0.51521 0.0
C3016 C 0.84842 0.70269 0.52771 0.0
C3017 C 0.83148 0.67492 0.56397 0.0
C3018 C 0.83741 0.68454 0.55148 0.0
H3019 H 0.86807 0.70539 0.48626 0.0
H3020 H 0.85981 0.69038 0.50694 0.0
H3021 H 0.86526 0.72954 0.53841 0.0
H3022 H 0.81844 0.68208 0.59318 0.0
H3023 H 0.82886 0.69825 0.57295 0.0
loop_
_geom_bond_atom_site_label_1
_geom_bond_atom_site_label_2
_geom_bond_distance
_geom_bond_site_symmetry_2
_ccdc_geom_bond_type
C0 C1 1.384 . S
C0 H13 0.947 . S
C0 C35 1.382 . S
C1 C0 1.384 . S
C1 C2 1.378 . S
C2 C1 1.378 . S
C2 C3 1.378 . S
C2 H14 0.952 . S
C3 C2 1.378 . S
C3 H15 0.950 . S
C3 C34 1.383 . S
H4 C23 0.947 . S
H5 C24 0.946 . S
H6 C26 0.953 . S
H7 C27 0.945 . S
H8 C29 0.952 . S
H9 C30 0.949 . S
H10 C32 0.950 . S
H11 C33 0.948 . S
H12 C35 0.951 . S
H13 C0 0.947 . S
H14 C2 0.952 . S
H15 C3 0.950 . S
N16 C19 1.382 . S
N16 C21 1.363 . S
N17 C19 1.371 . S
N17 C20 1.372 . S
N18 C20 1.361 . S
N18 C21 1.377 . S
C19 N16 1.382 . S
C19 N17 1.371 . S
C19 C22 1.480 . S
C20 N17 1.372 . S
C20 N18 1.361 . S
C20 C28 1.457 . S
C21 N16 1.363 . S
C21 N18 1.377 . S
C21 C34 1.479 . S
C22 C19 1.480 . S
C22 C23 1.383 . S
C22 C27 1.385 . S
C23 H4 0.947 . S
C23 C22 1.383 . S
C23 C24 1.388 . S
C24 H5 0.946 . S
C24 C23 1.388 . S
C24 C25 1.384 . S
C25 C24 1.384 . S
C25 C26 1.377 . S
C26 H6 0.953 . S
C26 C25 1.377 . S
C26 C27 1.369 . S
C27 H7 0.945 . S
C27 C22 1.385 . S
C27 C26 1.369 . S
C28 C20 1.457 . S
C28 C29 1.372 . S
C28 C33 1.364 . S
C29 H8 0.952 . S
C29 C28 1.372 . S
C29 C30 1.389 . S
C30 H9 0.949 . S
C30 C29 1.389 . S
C30 C31 1.387 . S
C31 C30 1.387 . S
C31 C32 1.372 . S
C32 H10 0.950 . S
C32 C31 1.372 . S
C32 C33 1.379 . S
C33 H11 0.948 . S
C33 C28 1.364 . S
C33 C32 1.379 . S
C34 C3 1.383 . S
C34 C21 1.479 . S
C34 C35 1.398 . S
C35 C0 1.382 . S
C35 H12 0.951 . S
C35 C34 1.398 . S
C36 C37 1.384 . S
C36 H49 0.947 . S
C36 C71 1.382 . S
C37 C36 1.384 . S
C37 C38 1.378 . S
C38 C37 1.378 . S
C38 C39 1.378 . S
C38 H50 0.952 . S
C39 C38 1.378 . S
C39 H51 0.950 . S
C39 C70 1.383 . S
H40 C59 0.947 . S
H41 C60 0.946 . S
H42 C62 0.953 . S
H43 C63 0.945 . S
H44 C65 0.952 . S
H45 C66 0.949 . S
H46 C68 0.950 . S
H47 C69 0.948 . S
H48 C71 0.951 . S
H49 C36 0.947 . S
H50 C38 0.952 . S
H51 C39 0.950 . S
N52 C55 1.382 . S
N52 C57 1.363 . S
N53 C55 1.371 . S
N53 C56 1.372 . S
N54 C56 1.361 . S
N54 C57 1.377 . S
C55 N52 1.382 . S
C55 N53 1.371 . S
C55 C58 1.480 . S
C56 N53 1.372 . S
C56 N54 1.361 . S
C56 C64 1.457 . S
C57 N52 1.363 . S
C57 N54 1.377 . S
C57 C70 1.479 . S
C58 C55 1.480 . S
C58 C59 1.383 . S
C58 C63 1.385 . S
C59 H40 0.947 . S
C59 C58 1.383 . S
C59 C60 1.388 . S
C60 H41 0.946 . S
C60 C59 1.388 . S
C60 C61 1.384 . S
C61 C60 1.384 . S
C61 C62 1.377 . S
C62 H42 0.953 . S
C62 C61 1.377 . S
C62 C63 1.369 . S
C63 H43 0.945 . S
C63 C58 1.385 . S
C63 C62 1.369 . S
C64 C56 1.457 . S
C64 C65 1.372 . S
C64 C69 1.364 . S
C65 H44 0.952 . S
C65 C64 1.372 . S
C65 C66 1.389 . S
C66 H45 0.949 . S
C66 C65 1.389 . S
C66 C67 1.387 . S
C67 C66 1.387 . S
C67 C68 1.372 . S
C68 H46 0.950 . S
C68 C67 1.372 . S
C68 C69 1.379 . S
C69 H47 0.948 . S
C69 C64 1.364 . S
C69 C68 1.379 . S
C70 C39 1.383 . S
C70 C57 1.479 . S
C70 C71 1.398 . S
C71 C36 1.382 . S
C71 H48 0.951 . S
C71 C70 1.398 . S
C72 C73 1.384 . S
C72 H85 0.947 . S
C72 C107 1.382 . S
C73 C72 1.384 . S
C73 C74 1.378 . S
C74 C73 1.378 . S
C74 C75 1.378 . S
C74 H86 0.952 . S
C75 C74 1.378 . S
C75 H87 0.950 . S
C75 C106 1.383 . S
H76 C95 0.947 . S
H77 C96 0.946 . S
H78 C98 0.953 . S
H79 C99 0.945 . S
H80 C101 0.952 . S
H81 C102 0.949 . S
H82 C104 0.950 . S
H83 C105 0.948 . S
H84 C107 0.951 . S
H85 C72 0.947 . S
H86 C74 0.952 . S
H87 C75 0.950 . S
N88 C91 1.382 . S
N88 C93 1.363 . S
N89 C91 1.371 . S
N89 C92 1.372 . S
N90 C92 1.361 . S
N90 C93 1.377 . S
C91 N88 1.382 . S
C91 N89 1.371 . S
C91 C94 1.480 . S
C92 N89 1.372 . S
C92 N90 1.361 . S
C92 C100 1.457 . S
C93 N88 1.363 . S
C93 N90 1.377 . S
C93 C106 1.479 . S
C94 C91 1.480 . S
C94 C95 1.383 . S
C94 C99 1.385 . S
C95 H76 0.947 . S
C95 C94 1.383 . S
C95 C96 1.388 . S
C96 H77 0.946 . S
C96 C95 1.388 . S
C96 C97 1.384 . S
C97 C96 1.384 . S
C97 C98 1.377 . S
C98 H78 0.953 . S
C98 C97 1.377 . S
C98 C99 1.369 . S
C99 H79 0.945 . S
C99 C94 1.385 . S
C99 C98 1.369 . S
C100 C92 1.457 . S
C100 C101 1.372 . S
C100 C105 1.364 . S
C101 H80 0.952 . S
C101 C100 1.372 . S
C101 C102 1.389 . S
C102 H81 0.949 . S
C102 C101 1.389 . S
C102 C103 1.387 . S
C103 C102 1.387 . S
C103 C104 1.372 . S
C104 H82 0.950 . S
C104 C103 1.372 . S
C104 C105 1.379 . S
C105 H83 0.948 . S
C105 C100 1.364 . S
C105 C104 1.379 . S
C106 C75 1.383 . S
C106 C93 1.479 . S
C106 C107 1.398 . S
C107 C72 1.382 . S
C107 H84 0.951 . S
C107 C106 1.398 . S
C108 C109 1.384 . S
C108 H121 0.947 . S
C108 C143 1.382 . S
C109 C108 1.384 . S
C109 C110 1.378 . S
C110 C109 1.378 . S
C110 C111 1.378 . S
C110 H122 0.952 . S
C111 C110 1.378 . S
C111 H123 0.950 . S
C111 C142 1.383 . S
H112 C131 0.947 . S
H113 C132 0.946 . S
H114 C134 0.953 . S
H115 C135 0.945 . S
H116 C137 0.952 . S
H117 C138 0.949 . S
H118 C140 0.950 . S
H119 C141 0.948 . S
H120 C143 0.951 . S
H121 C108 0.947 . S
H122 C110 0.952 . S
H123 C111 0.950 . S
N124 C127 1.382 . S
N124 C129 1.363 . S
N125 C127 1.371 . S
N125 C128 1.372 . S
N126 C128 1.361 . S
N126 C129 1.377 . S
C127 N124 1.382 . S
C127 N125 1.371 . S
C127 C130 1.480 . S
C128 N125 1.372 . S
C128 N126 1.361 . S
C128 C136 1.457 . S
C129 N124 1.363 . S
C129 N126 1.377 . S
C129 C142 1.479 . S
C130 C127 1.480 . S
C130 C131 1.383 . S
C130 C135 1.385 . S
C131 H112 0.947 . S
C131 C130 1.383 . S
C131 C132 1.388 . S
C132 H113 0.946 . S
C132 C131 1.388 . S
C132 C133 1.384 . S
C133 C132 1.384 . S
C133 C134 1.377 . S
C134 H114 0.953 . S
C134 C133 1.377 . S
C134 C135 1.369 . S
C135 H115 0.945 . S
C135 C130 1.385 . S
C135 C134 1.369 . S
C136 C128 1.457 . S
C136 C137 1.372 . S
C136 C141 1.364 . S
C137 H116 0.952 . S
C137 C136 1.372 . S
C137 C138 1.389 . S
C138 H117 0.949 . S
C138 C137 1.389 . S
C138 C139 1.387 . S
C139 C138 1.387 . S
C139 C140 1.372 . S
C140 H118 0.950 . S
C140 C139 1.372 . S
C140 C141 1.379 . S
C141 H119 0.948 . S
C141 C136 1.364 . S
C141 C140 1.379 . S
C142 C111 1.383 . S
C142 C129 1.479 . S
C142 C143 1.398 . S
C143 C108 1.382 . S
C143 H120 0.951 . S
C143 C142 1.398 . S
C144 C145 1.384 . S
C144 H157 0.947 . S
C144 C179 1.382 . S
C145 C144 1.384 . S
C145 C146 1.378 . S
C146 C145 1.378 . S
C146 C147 1.378 . S
C146 H158 0.952 . S
C147 C146 1.378 . S
C147 H159 0.950 . S
C147 C178 1.383 . S
H148 C167 0.947 . S
H149 C168 0.946 . S
H150 C170 0.953 . S
H151 C171 0.945 . S
H152 C173 0.952 . S
H153 C174 0.949 . S
H154 C176 0.950 . S
H155 C177 0.948 . S
H156 C179 0.951 . S
H157 C144 0.947 . S
H158 C146 0.952 . S
H159 C147 0.950 . S
N160 C163 1.382 . S
N160 C165 1.363 . S
N161 C163 1.371 . S
N161 C164 1.372 . S
N162 C164 1.361 . S
N162 C165 1.377 . S
C163 N160 1.382 . S
C163 N161 1.371 . S
C163 C166 1.480 . S
C164 N161 1.372 . S
C164 N162 1.361 . S
C164 C172 1.457 . S
C165 N160 1.363 . S
C165 N162 1.377 . S
C165 C178 1.479 . S
C166 C163 1.480 . S
C166 C167 1.383 . S
C166 C171 1.385 . S
C167 H148 0.947 . S
C167 C166 1.383 . S
C167 C168 1.388 . S
C168 H149 0.946 . S
C168 C167 1.388 . S
C168 C169 1.384 . S
C169 C168 1.384 . S
C169 C170 1.377 . S
C170 H150 0.953 . S
C170 C169 1.377 . S
C170 C171 1.369 . S
C171 H151 0.945 . S
C171 C166 1.385 . S
C171 C170 1.369 . S
C172 C164 1.457 . S
C172 C173 1.372 . S
C172 C177 1.364 . S
C173 H152 0.952 . S
C173 C172 1.372 . S
C173 C174 1.389 . S
C174 H153 0.949 . S
C174 C173 1.389 . S
C174 C175 1.387 . S
C175 C174 1.387 . S
C175 C176 1.372 . S
C176 H154 0.950 . S
C176 C175 1.372 . S
C176 C177 1.379 . S
C177 H155 0.948 . S
C177 C172 1.364 . S
C177 C176 1.379 . S
C178 C147 1.383 . S
C178 C165 1.479 . S
C178 C179 1.398 . S
C179 C144 1.382 . S
C179 H156 0.951 . S
C179 C178 1.398 . S
C180 C181 1.384 . S
C180 H193 0.947 . S
C180 C215 1.382 . S
C181 C180 1.384 . S
C181 C182 1.378 . S
C182 C181 1.378 . S
C182 C183 1.378 . S
C182 H194 0.952 . S
C183 C182 1.378 . S
C183 H195 0.950 . S
C183 C214 1.383 . S
H184 C203 0.947 . S
H185 C204 0.946 . S
H186 C206 0.953 . S
H187 C207 0.945 . S
H188 C209 0.952 . S
H189 C210 0.949 . S
H190 C212 0.950 . S
H191 C213 0.948 . S
H192 C215 0.951 . S
H193 C180 0.947 . S
H194 C182 0.952 . S
H195 C183 0.950 . S
N196 C199 1.382 . S
N196 C201 1.363 . S
N197 C199 1.371 . S
N197 C200 1.372 . S
N198 C200 1.361 . S
N198 C201 1.377 . S
C199 N196 1.382 . S
C199 N197 1.371 . S
C199 C202 1.480 . S
C200 N197 1.372 . S
C200 N198 1.361 . S
C200 C208 1.457 . S
C201 N196 1.363 . S
C201 N198 1.377 . S
C201 C214 1.479 . S
C202 C199 1.480 . S
C202 C203 1.383 . S
C202 C207 1.385 . S
C203 H184 0.947 . S
C203 C202 1.383 . S
C203 C204 1.388 . S
C204 H185 0.946 . S
C204 C203 1.388 . S
C204 C205 1.384 . S
C205 C204 1.384 . S
C205 C206 1.377 . S
C206 H186 0.953 . S
C206 C205 1.377 . S
C206 C207 1.369 . S
C207 H187 0.945 . S
C207 C202 1.385 . S
C207 C206 1.369 . S
C208 C200 1.457 . S
C208 C209 1.372 . S
C208 C213 1.364 . S
C209 H188 0.952 . S
C209 C208 1.372 . S
C209 C210 1.389 . S
C210 H189 0.949 . S
C210 C209 1.389 . S
C210 C211 1.387 . S
C211 C210 1.387 . S
C211 C212 1.372 . S
C212 H190 0.950 . S
C212 C211 1.372 . S
C212 C213 1.379 . S
C213 H191 0.948 . S
C213 C208 1.364 . S
C213 C212 1.379 . S
C214 C183 1.383 . S
C214 C201 1.479 . S
C214 C215 1.398 . S
C215 C180 1.382 . S
C215 H192 0.951 . S
C215 C214 1.398 . S
C216 C217 1.384 . S
C216 H229 0.947 . S
C216 C251 1.382 . S
C217 C216 1.384 . S
C217 C218 1.378 . S
C218 C217 1.378 . S
C218 C219 1.378 . S
C218 H230 0.952 . S
C219 C218 1.378 . S
C219 H231 0.950 . S
C219 C250 1.383 . S
H220 C239 0.947 . S
H221 C240 0.946 . S
H222 C242 0.953 . S
H223 C243 0.945 . S
H224 C245 0.952 . S
H225 C246 0.949 . S
H226 C248 0.950 . S
H227 C249 0.948 . S
H228 C251 0.951 . S
H229 C216 0.947 . S
H230 C218 0.952 . S
H231 C219 0.950 . S
N232 C235 1.382 . S
N232 C237 1.363 . S
N233 C235 1.371 . S
N233 C236 1.372 . S
N234 C236 1.361 . S
N234 C237 1.377 . S
C235 N232 1.382 . S
C235 N233 1.371 . S
C235 C238 1.480 . S
C236 N233 1.372 . S
C236 N234 1.361 . S
C236 C244 1.457 . S
C237 N232 1.363 . S
C237 N234 1.377 . S
C237 C250 1.479 . S
C238 C235 1.480 . S
C238 C239 1.383 . S
C238 C243 1.385 . S
C239 H220 0.947 . S
C239 C238 1.383 . S
C239 C240 1.388 . S
C240 H221 0.946 . S
C240 C239 1.388 . S
C240 C241 1.384 . S
C241 C240 1.384 . S
C241 C242 1.377 . S
C242 H222 0.953 . S
C242 C241 1.377 . S
C242 C243 1.369 . S
C243 H223 0.945 . S
C243 C238 1.385 . S
C243 C242 1.369 . S
C244 C236 1.457 . S
C244 C245 1.372 . S
C244 C249 1.364 . S
C245 H224 0.952 . S
C245 C244 1.372 . S
C245 C246 1.389 . S
C246 H225 0.949 . S
C246 C245 1.389 . S
C246 C247 1.387 . S
C247 C246 1.387 . S
C247 C248 1.372 . S
C248 H226 0.950 . S
C248 C247 1.372 . S
C248 C249 1.379 . S
C249 H227 0.948 . S
C249 C244 1.364 . S
C249 C248 1.379 . S
C250 C219 1.383 . S
C250 C237 1.479 . S
C250 C251 1.398 . S
C251 C216 1.382 . S
C251 H228 0.951 . S
C251 C250 1.398 . S
C252 C253 1.384 . S
C252 H265 0.947 . S
C252 C287 1.382 . S
C253 C252 1.384 . S
C253 C254 1.378 . S
C254 C253 1.378 . S
C254 C255 1.378 . S
C254 H266 0.952 . S
C255 C254 1.378 . S
C255 H267 0.950 . S
C255 C286 1.383 . S
H256 C275 0.947 . S
H257 C276 0.946 . S
H258 C278 0.953 . S
H259 C279 0.945 . S
H260 C281 0.952 . S
H261 C282 0.949 . S
H262 C284 0.950 . S
H263 C285 0.948 . S
H264 C287 0.951 . S
H265 C252 0.947 . S
H266 C254 0.952 . S
H267 C255 0.950 . S
N268 C271 1.382 . S
N268 C273 1.363 . S
N269 C271 1.371 . S
N269 C272 1.372 . S
N270 C272 1.361 . S
N270 C273 1.377 . S
C271 N268 1.382 . S
C271 N269 1.371 . S
C271 C274 1.480 . S
C272 N269 1.372 . S
C272 N270 1.361 . S
C272 C280 1.457 . S
C273 N268 1.363 . S
C273 N270 1.377 . S
C273 C286 1.479 . S
C274 C271 1.480 . S
C274 C275 1.383 . S
C274 C279 1.385 . S
C275 H256 0.947 . S
C275 C274 1.383 . S
C275 C276 1.388 . S
C276 H257 0.946 . S
C276 C275 1.388 . S
C276 C277 1.384 . S
C277 C276 1.384 . S
C277 C278 1.377 . S
C278 H258 0.953 . S
C278 C277 1.377 . S
C278 C279 1.369 . S
C279 H259 0.945 . S
C279 C274 1.385 . S
C279 C278 1.369 . S
C280 C272 1.457 . S
C280 C281 1.372 . S
C280 C285 1.364 . S
C281 H260 0.952 . S
C281 C280 1.372 . S
C281 C282 1.389 . S
C282 H261 0.949 . S
C282 C281 1.389 . S
C282 C283 1.387 . S
C283 C282 1.387 . S
C283 C284 1.372 . S
C284 H262 0.950 . S
C284 C283 1.372 . S
C284 C285 1.379 . S
C285 H263 0.948 . S
C285 C280 1.364 . S
C285 C284 1.379 . S
C286 C255 1.383 . S
C286 C273 1.479 . S
C286 C287 1.398 . S
C287 C252 1.382 . S
C287 H264 0.951 . S
C287 C286 1.398 . S
C288 C289 1.384 . S
C288 H301 0.947 . S
C288 C323 1.382 . S
C289 C288 1.384 . S
C289 C290 1.378 . S
C290 C289 1.378 . S
C290 C291 1.378 . S
C290 H302 0.952 . S
C291 C290 1.378 . S
C291 H303 0.950 . S
C291 C322 1.383 . S
H292 C311 0.947 . S
H293 C312 0.946 . S
H294 C314 0.953 . S
H295 C315 0.945 . S
H296 C317 0.952 . S
H297 C318 0.949 . S
H298 C320 0.950 . S
H299 C321 0.948 . S
H300 C323 0.951 . S
H301 C288 0.947 . S
H302 C290 0.952 . S
H303 C291 0.950 . S
N304 C307 1.382 . S
N304 C309 1.363 . S
N305 C307 1.371 . S
N305 C308 1.372 . S
N306 C308 1.361 . S
N306 C309 1.377 . S
C307 N304 1.382 . S
C307 N305 1.371 . S
C307 C310 1.480 . S
C308 N305 1.372 . S
C308 N306 1.361 . S
C308 C316 1.457 . S
C309 N304 1.363 . S
C309 N306 1.377 . S
C309 C322 1.479 . S
C310 C307 1.480 . S
C310 C311 1.383 . S
C310 C315 1.385 . S
C311 H292 0.947 . S
C311 C310 1.383 . S
C311 C312 1.388 . S
C312 H293 0.946 . S
C312 C311 1.388 . S
C312 C313 1.384 . S
C313 C312 1.384 . S
C313 C314 1.377 . S
C314 H294 0.953 . S
C314 C313 1.377 . S
C314 C315 1.369 . S
C315 H295 0.945 . S
C315 C310 1.385 . S
C315 C314 1.369 . S
C316 C308 1.457 . S
C316 C317 1.372 . S
C316 C321 1.364 . S
C317 H296 0.952 . S
C317 C316 1.372 . S
C317 C318 1.389 . S
C318 H297 0.949 . S
C318 C317 1.389 . S
C318 C319 1.387 . S
C319 C318 1.387 . S
C319 C320 1.372 . S
C320 H298 0.950 . S
C320 C319 1.372 . S
C320 C321 1.379 . S
C321 H299 0.948 . S
C321 C316 1.364 . S
C321 C320 1.379 . S
C322 C291 1.383 . S
C322 C309 1.479 . S
C322 C323 1.398 . S
C323 C288 1.382 . S
C323 H300 0.951 . S
C323 C322 1.398 . S
C324 C325 1.384 . S
C324 H337 0.947 . S
C324 C359 1.382 . S
C325 C324 1.384 . S
C325 C326 1.378 . S
C326 C325 1.378 . S
C326 C327 1.378 . S
C326 H338 0.952 . S
C327 C326 1.378 . S
C327 H339 0.950 . S
C327 C358 1.383 . S
H328 C347 0.947 . S
H329 C348 0.946 . S
H330 C350 0.953 . S
H331 C351 0.945 . S
H332 C353 0.952 . S
H333 C354 0.949 . S
H334 C356 0.950 . S
H335 C357 0.948 . S
H336 C359 0.951 . S
H337 C324 0.947 . S
H338 C326 0.952 . S
H339 C327 0.950 . S
N340 C343 1.382 . S
N340 C345 1.363 . S
N341 C343 1.371 . S
N341 C344 1.372 . S
N342 C344 1.361 . S
N342 C345 1.377 . S
C343 N340 1.382 . S
C343 N341 1.371 . S
C343 C346 1.480 . S
C344 N341 1.372 . S
C344 N342 1.361 . S
C344 C352 1.457 . S
C345 N340 1.363 . S
C345 N342 1.377 . S
C345 C358 1.479 . S
C346 C343 1.480 . S
C346 C347 1.383 . S
C346 C351 1.385 . S
C347 H328 0.947 . S
C347 C346 1.383 . S
C347 C348 1.388 . S
C348 H329 0.946 . S
C348 C347 1.388 . S
C348 C349 1.384 . S
C349 C348 1.384 . S
C349 C350 1.377 . S
C350 H330 0.953 . S
C350 C349 1.377 . S
C350 C351 1.369 . S
C351 H331 0.945 . S
C351 C346 1.385 . S
C351 C350 1.369 . S
C352 C344 1.457 . S
C352 C353 1.372 . S
C352 C357 1.364 . S
C353 H332 0.952 . S
C353 C352 1.372 . S
C353 C354 1.389 . S
C354 H333 0.949 . S
C354 C353 1.389 . S
C354 C355 1.387 . S
C355 C354 1.387 . S
C355 C356 1.372 . S
C356 H334 0.950 . S
C356 C355 1.372 . S
C356 C357 1.379 . S
C357 H335 0.948 . S
C357 C352 1.364 . S
C357 C356 1.379 . S
C358 C327 1.383 . S
C358 C345 1.479 . S
C358 C359 1.398 . S
C359 C324 1.382 . S
C359 H336 0.951 . S
C359 C358 1.398 . S
C360 C361 1.384 . S
C360 H373 0.947 . S
C360 C395 1.382 . S
C361 C360 1.384 . S
C361 C362 1.378 . S
C362 C361 1.378 . S
C362 C363 1.378 . S
C362 H374 0.952 . S
C363 C362 1.378 . S
C363 H375 0.950 . S
C363 C394 1.383 . S
H364 C383 0.947 . S
H365 C384 0.946 . S
H366 C386 0.953 . S
H367 C387 0.945 . S
H368 C389 0.952 . S
H369 C390 0.949 . S
H370 C392 0.950 . S
H371 C393 0.948 . S
H372 C395 0.951 . S
H373 C360 0.947 . S
H374 C362 0.952 . S
H375 C363 0.950 . S
N376 C379 1.382 . S
N376 C381 1.363 . S
N377 C379 1.371 . S
N377 C380 1.372 . S
N378 C380 1.361 . S
N378 C381 1.377 . S
C379 N376 1.382 . S
C379 N377 1.371 . S
C379 C382 1.480 . S
C380 N377 1.372 . S
C380 N378 1.361 . S
C380 C388 1.457 . S
C381 N376 1.363 . S
C381 N378 1.377 . S
C381 C394 1.479 . S
C382 C379 1.480 . S
C382 C383 1.383 . S
C382 C387 1.385 . S
C383 H364 0.947 . S
C383 C382 1.383 . S
C383 C384 1.388 . S
C384 H365 0.946 . S
C384 C383 1.388 . S
C384 C385 1.384 . S
C385 C384 1.384 . S
C385 C386 1.377 . S
C386 H366 0.953 . S
C386 C385 1.377 . S
C386 C387 1.369 . S
C387 H367 0.945 . S
C387 C382 1.385 . S
C387 C386 1.369 . S
C388 C380 1.457 . S
C388 C389 1.372 . S
C388 C393 1.364 . S
C389 H368 0.952 . S
C389 C388 1.372 . S
C389 C390 1.389 . S
C390 H369 0.949 . S
C390 C389 1.389 . S
C390 C391 1.387 . S
C391 C390 1.387 . S
C391 C392 1.372 . S
C392 H370 0.950 . S
C392 C391 1.372 . S
C392 C393 1.379 . S
C393 H371 0.948 . S
C393 C388 1.364 . S
C393 C392 1.379 . S
C394 C363 1.383 . S
C394 C381 1.479 . S
C394 C395 1.398 . S
C395 C360 1.382 . S
C395 H372 0.951 . S
C395 C394 1.398 . S
C396 C397 1.384 . S
C396 H409 0.947 . S
C396 C431 1.382 . S
C397 C396 1.384 . S
C397 C398 1.378 . S
C398 C397 1.378 . S
C398 C399 1.378 . S
C398 H410 0.952 . S
C399 C398 1.378 . S
C399 H411 0.950 . S
C399 C430 1.383 . S
H400 C419 0.947 . S
H401 C420 0.946 . S
H402 C422 0.953 . S
H403 C423 0.945 . S
H404 C425 0.952 . S
H405 C426 0.949 . S
H406 C428 0.950 . S
H407 C429 0.948 . S
H408 C431 0.951 . S
H409 C396 0.947 . S
H410 C398 0.952 . S
H411 C399 0.950 . S
N412 C415 1.382 . S
N412 C417 1.363 . S
N413 C415 1.371 . S
N413 C416 1.372 . S
N414 C416 1.361 . S
N414 C417 1.377 . S
C415 N412 1.382 . S
C415 N413 1.371 . S
C415 C418 1.480 . S
C416 N413 1.372 . S
C416 N414 1.361 . S
C416 C424 1.457 . S
C417 N412 1.363 . S
C417 N414 1.377 . S
C417 C430 1.479 . S
C418 C415 1.480 . S
C418 C419 1.383 . S
C418 C423 1.385 . S
C419 H400 0.947 . S
C419 C418 1.383 . S
C419 C420 1.388 . S
C420 H401 0.946 . S
C420 C419 1.388 . S
C420 C421 1.384 . S
C421 C420 1.384 . S
C421 C422 1.377 . S
C422 H402 0.953 . S
C422 C421 1.377 . S
C422 C423 1.369 . S
C423 H403 0.945 . S
C423 C418 1.385 . S
C423 C422 1.369 . S
C424 C416 1.457 . S
C424 C425 1.372 . S
C424 C429 1.364 . S
C425 H404 0.952 . S
C425 C424 1.372 . S
C425 C426 1.389 . S
C426 H405 0.949 . S
C426 C425 1.389 . S
C426 C427 1.387 . S
C427 C426 1.387 . S
C427 C428 1.372 . S
C428 H406 0.950 . S
C428 C427 1.372 . S
C428 C429 1.379 . S
C429 H407 0.948 . S
C429 C424 1.364 . S
C429 C428 1.379 . S
C430 C399 1.383 . S
C430 C417 1.479 . S
C430 C431 1.398 . S
C431 C396 1.382 . S
C431 H408 0.951 . S
C431 C430 1.398 . S
C432 C433 1.384 . S
C432 H445 0.947 . S
C432 C467 1.382 . S
C433 C432 1.384 . S
C433 C434 1.378 . S
C434 C433 1.378 . S
C434 C435 1.378 . S
C434 H446 0.952 . S
C435 C434 1.378 . S
C435 H447 0.950 . S
C435 C466 1.383 . S
H436 C455 0.947 . S
H437 C456 0.946 . S
H438 C458 0.953 . S
H439 C459 0.945 . S
H440 C461 0.952 . S
H441 C462 0.949 . S
H442 C464 0.950 . S
H443 C465 0.948 . S
H444 C467 0.951 . S
H445 C432 0.947 . S
H446 C434 0.952 . S
H447 C435 0.950 . S
N448 C451 1.382 . S
N448 C453 1.363 . S
N449 C451 1.371 . S
N449 C452 1.372 . S
N450 C452 1.361 . S
N450 C453 1.377 . S
C451 N448 1.382 . S
C451 N449 1.371 . S
C451 C454 1.480 . S
C452 N449 1.372 . S
C452 N450 1.361 . S
C452 C460 1.457 . S
C453 N448 1.363 . S
C453 N450 1.377 . S
C453 C466 1.479 . S
C454 C451 1.480 . S
C454 C455 1.383 . S
C454 C459 1.385 . S
C455 H436 0.947 . S
C455 C454 1.383 . S
C455 C456 1.388 . S
C456 H437 0.946 . S
C456 C455 1.388 . S
C456 C457 1.384 . S
C457 C456 1.384 . S
C457 C458 1.377 . S
C458 H438 0.953 . S
C458 C457 1.377 . S
C458 C459 1.369 . S
C459 H439 0.945 . S
C459 C454 1.385 . S
C459 C458 1.369 . S
C460 C452 1.457 . S
C460 C461 1.372 . S
C460 C465 1.364 . S
C461 H440 0.952 . S
C461 C460 1.372 . S
C461 C462 1.389 . S
C462 H441 0.949 . S
C462 C461 1.389 . S
C462 C463 1.387 . S
C463 C462 1.387 . S
C463 C464 1.372 . S
C464 H442 0.950 . S
C464 C463 1.372 . S
C464 C465 1.379 . S
C465 H443 0.948 . S
C465 C460 1.364 . S
C465 C464 1.379 . S
C466 C435 1.383 . S
C466 C453 1.479 . S
C466 C467 1.398 . S
C467 C432 1.382 . S
C467 H444 0.951 . S
C467 C466 1.398 . S
C468 C469 1.384 . S
C468 H481 0.947 . S
C468 C503 1.382 . S
C469 C468 1.384 . S
C469 C470 1.378 . S
C470 C469 1.378 . S
C470 C471 1.378 . S
C470 H482 0.952 . S
C471 C470 1.378 . S
C471 H483 0.950 . S
C471 C502 1.383 . S
H472 C491 0.947 . S
H473 C492 0.946 . S
H474 C494 0.953 . S
H475 C495 0.945 . S
H476 C497 0.952 . S
H477 C498 0.949 . S
H478 C500 0.950 . S
H479 C501 0.948 . S
H480 C503 0.951 . S
H481 C468 0.947 . S
H482 C470 0.952 . S
H483 C471 0.950 . S
N484 C487 1.382 . S
N484 C489 1.363 . S
N485 C487 1.371 . S
N485 C488 1.372 . S
N486 C488 1.361 . S
N486 C489 1.377 . S
C487 N484 1.382 . S
C487 N485 1.371 . S
C487 C490 1.480 . S
C488 N485 1.372 . S
C488 N486 1.361 . S
C488 C496 1.457 . S
C489 N484 1.363 . S
C489 N486 1.377 . S
C489 C502 1.479 . S
C490 C487 1.480 . S
C490 C491 1.383 . S
C490 C495 1.385 . S
C491 H472 0.947 . S
C491 C490 1.383 . S
C491 C492 1.388 . S
C492 H473 0.946 . S
C492 C491 1.388 . S
C492 C493 1.384 . S
C493 C492 1.384 . S
C493 C494 1.377 . S
C494 H474 0.953 . S
C494 C493 1.377 . S
C494 C495 1.369 . S
C495 H475 0.945 . S
C495 C490 1.385 . S
C495 C494 1.369 . S
C496 C488 1.457 . S
C496 C497 1.372 . S
C496 C501 1.364 . S
C497 H476 0.952 . S
C497 C496 1.372 . S
C497 C498 1.389 . S
C498 H477 0.949 . S
C498 C497 1.389 . S
C498 C499 1.387 . S
C499 C498 1.387 . S
C499 C500 1.372 . S
C500 H478 0.950 . S
C500 C499 1.372 . S
C500 C501 1.379 . S
C501 H479 0.948 . S
C501 C496 1.364 . S
C501 C500 1.379 . S
C502 C471 1.383 . S
C502 C489 1.479 . S
C502 C503 1.398 . S
C503 C468 1.382 . S
C503 H480 0.951 . S
C503 C502 1.398 . S
C504 C505 1.384 . S
C504 H517 0.947 . S
C504 C539 1.382 . S
C505 C504 1.384 . S
C505 C506 1.378 . S
C506 C505 1.378 . S
C506 C507 1.378 . S
C506 H518 0.952 . S
C507 C506 1.378 . S
C507 H519 0.950 . S
C507 C538 1.383 . S
H508 C527 0.947 . S
H509 C528 0.946 . S
H510 C530 0.953 . S
H511 C531 0.945 . S
H512 C533 0.952 . S
H513 C534 0.949 . S
H514 C536 0.950 . S
H515 C537 0.948 . S
H516 C539 0.951 . S
H517 C504 0.947 . S
H518 C506 0.952 . S
H519 C507 0.950 . S
N520 C523 1.382 . S
N520 C525 1.363 . S
N521 C523 1.371 . S
N521 C524 1.372 . S
N522 C524 1.361 . S
N522 C525 1.377 . S
C523 N520 1.382 . S
C523 N521 1.371 . S
C523 C526 1.480 . S
C524 N521 1.372 . S
C524 N522 1.361 . S
C524 C532 1.457 . S
C525 N520 1.363 . S
C525 N522 1.377 . S
C525 C538 1.479 . S
C526 C523 1.480 . S
C526 C527 1.383 . S
C526 C531 1.385 . S
C527 H508 0.947 . S
C527 C526 1.383 . S
C527 C528 1.388 . S
C528 H509 0.946 . S
C528 C527 1.388 . S
C528 C529 1.384 . S
C529 C528 1.384 . S
C529 C530 1.377 . S
C530 H510 0.953 . S
C530 C529 1.377 . S
C530 C531 1.369 . S
C531 H511 0.945 . S
C531 C526 1.385 . S
C531 C530 1.369 . S
C532 C524 1.457 . S
C532 C533 1.372 . S
C532 C537 1.364 . S
C533 H512 0.952 . S
C533 C532 1.372 . S
C533 C534 1.389 . S
C534 H513 0.949 . S
C534 C533 1.389 . S
C534 C535 1.387 . S
C535 C534 1.387 . S
C535 C536 1.372 . S
C536 H514 0.950 . S
C536 C535 1.372 . S
C536 C537 1.379 . S
C537 H515 0.948 . S
C537 C532 1.364 . S
C537 C536 1.379 . S
C538 C507 1.383 . S
C538 C525 1.479 . S
C538 C539 1.398 . S
C539 C504 1.382 . S
C539 H516 0.951 . S
C539 C538 1.398 . S
C540 C541 1.384 . S
C540 H553 0.947 . S
C540 C575 1.382 . S
C541 C540 1.384 . S
C541 C542 1.378 . S
C542 C541 1.378 . S
C542 C543 1.378 . S
C542 H554 0.952 . S
C543 C542 1.378 . S
C543 H555 0.950 . S
C543 C574 1.383 . S
H544 C563 0.947 . S
H545 C564 0.946 . S
H546 C566 0.953 . S
H547 C567 0.945 . S
H548 C569 0.952 . S
H549 C570 0.949 . S
H550 C572 0.950 . S
H551 C573 0.948 . S
H552 C575 0.951 . S
H553 C540 0.947 . S
H554 C542 0.952 . S
H555 C543 0.950 . S
N556 C559 1.382 . S
N556 C561 1.363 . S
N557 C559 1.371 . S
N557 C560 1.372 . S
N558 C560 1.361 . S
N558 C561 1.377 . S
C559 N556 1.382 . S
C559 N557 1.371 . S
C559 C562 1.480 . S
C560 N557 1.372 . S
C560 N558 1.361 . S
C560 C568 1.457 . S
C561 N556 1.363 . S
C561 N558 1.377 . S
C561 C574 1.479 . S
C562 C559 1.480 . S
C562 C563 1.383 . S
C562 C567 1.385 . S
C563 H544 0.947 . S
C563 C562 1.383 . S
C563 C564 1.388 . S
C564 H545 0.946 . S
C564 C563 1.388 . S
C564 C565 1.384 . S
C565 C564 1.384 . S
C565 C566 1.377 . S
C566 H546 0.953 . S
C566 C565 1.377 . S
C566 C567 1.369 . S
C567 H547 0.945 . S
C567 C562 1.385 . S
C567 C566 1.369 . S
C568 C560 1.457 . S
C568 C569 1.372 . S
C568 C573 1.364 . S
C569 H548 0.952 . S
C569 C568 1.372 . S
C569 C570 1.389 . S
C570 H549 0.949 . S
C570 C569 1.389 . S
C570 C571 1.387 . S
C571 C570 1.387 . S
C571 C572 1.372 . S
C572 H550 0.950 . S
C572 C571 1.372 . S
C572 C573 1.379 . S
C573 H551 0.948 . S
C573 C568 1.364 . S
C573 C572 1.379 . S
C574 C543 1.383 . S
C574 C561 1.479 . S
C574 C575 1.398 . S
C575 C540 1.382 . S
C575 H552 0.951 . S
C575 C574 1.398 . S
C576 C577 1.384 . S
C576 H589 0.947 . S
C576 C611 1.382 . S
C577 C576 1.384 . S
C577 C578 1.378 . S
C578 C577 1.378 . S
C578 C579 1.378 . S
C578 H590 0.952 . S
C579 C578 1.378 . S
C579 H591 0.950 . S
C579 C610 1.383 . S
H580 C599 0.947 . S
H581 C600 0.946 . S
H582 C602 0.953 . S
H583 C603 0.945 . S
H584 C605 0.952 . S
H585 C606 0.949 . S
H586 C608 0.950 . S
H587 C609 0.948 . S
H588 C611 0.951 . S
H589 C576 0.947 . S
H590 C578 0.952 . S
H591 C579 0.950 . S
N592 C595 1.382 . S
N592 C597 1.363 . S
N593 C595 1.371 . S
N593 C596 1.372 . S
N594 C596 1.361 . S
N594 C597 1.377 . S
C595 N592 1.382 . S
C595 N593 1.371 . S
C595 C598 1.480 . S
C596 N593 1.372 . S
C596 N594 1.361 . S
C596 C604 1.457 . S
C597 N592 1.363 . S
C597 N594 1.377 . S
C597 C610 1.479 . S
C598 C595 1.480 . S
C598 C599 1.383 . S
C598 C603 1.385 . S
C599 H580 0.947 . S
C599 C598 1.383 . S
C599 C600 1.388 . S
C600 H581 0.946 . S
C600 C599 1.388 . S
C600 C601 1.384 . S
C601 C600 1.384 . S
C601 C602 1.377 . S
C602 H582 0.953 . S
C602 C601 1.377 . S
C602 C603 1.369 . S
C603 H583 0.945 . S
C603 C598 1.385 . S
C603 C602 1.369 . S
C604 C596 1.457 . S
C604 C605 1.372 . S
C604 C609 1.364 . S
C605 H584 0.952 . S
C605 C604 1.372 . S
C605 C606 1.389 . S
C606 H585 0.949 . S
C606 C605 1.389 . S
C606 C607 1.387 . S
C607 C606 1.387 . S
C607 C608 1.372 . S
C608 H586 0.950 . S
C608 C607 1.372 . S
C608 C609 1.379 . S
C609 H587 0.948 . S
C609 C604 1.364 . S
C609 C608 1.379 . S
C610 C579 1.383 . S
C610 C597 1.479 . S
C610 C611 1.398 . S
C611 C576 1.382 . S
C611 H588 0.951 . S
C611 C610 1.398 . S
C612 C613 1.384 . S
C612 H625 0.947 . S
C612 C647 1.382 . S
C613 C612 1.384 . S
C613 C614 1.378 . S
C614 C613 1.378 . S
C614 C615 1.378 . S
C614 H626 0.952 . S
C615 C614 1.378 . S
C615 H627 0.950 . S
C615 C646 1.383 . S
H616 C635 0.947 . S
H617 C636 0.946 . S
H618 C638 0.953 . S
H619 C639 0.945 . S
H620 C641 0.952 . S
H621 C642 0.949 . S
H622 C644 0.950 . S
H623 C645 0.948 . S
H624 C647 0.951 . S
H625 C612 0.947 . S
H626 C614 0.952 . S
H627 C615 0.950 . S
N628 C631 1.382 . S
N628 C633 1.363 . S
N629 C631 1.371 . S
N629 C632 1.372 . S
N630 C632 1.361 . S
N630 C633 1.377 . S
C631 N628 1.382 . S
C631 N629 1.371 . S
C631 C634 1.480 . S
C632 N629 1.372 . S
C632 N630 1.361 . S
C632 C640 1.457 . S
C633 N628 1.363 . S
C633 N630 1.377 . S
C633 C646 1.479 . S
C634 C631 1.480 . S
C634 C635 1.383 . S
C634 C639 1.385 . S
C635 H616 0.947 . S
C635 C634 1.383 . S
C635 C636 1.388 . S
C636 H617 0.946 . S
C636 C635 1.388 . S
C636 C637 1.384 . S
C637 C636 1.384 . S
C637 C638 1.377 . S
C638 H618 0.953 . S
C638 C637 1.377 . S
C638 C639 1.369 . S
C639 H619 0.945 . S
C639 C634 1.385 . S
C639 C638 1.369 . S
C640 C632 1.457 . S
C640 C641 1.372 . S
C640 C645 1.364 . S
C641 H620 0.952 . S
C641 C640 1.372 . S
C641 C642 1.389 . S
C642 H621 0.949 . S
C642 C641 1.389 . S
C642 C643 1.387 . S
C643 C642 1.387 . S
C643 C644 1.372 . S
C644 H622 0.950 . S
C644 C643 1.372 . S
C644 C645 1.379 . S
C645 H623 0.948 . S
C645 C640 1.364 . S
C645 C644 1.379 . S
C646 C615 1.383 . S
C646 C633 1.479 . S
C646 C647 1.398 . S
C647 C612 1.382 . S
C647 H624 0.951 . S
C647 C646 1.398 . S
Eu648 N679 2.657 . S
Eu648 N686 2.609 . S
Eu648 O692 2.558 . S
Eu648 O693 2.561 1_566 S
Eu648 O695 2.339 1_565 S
Eu648 O696 2.563 1_565 S
Eu648 O697 2.419 . S
Eu648 O699 2.380 1_556 S
Eu648 O700 2.434 1_556 S
Eu648 C712 2.848 . S
C649 C652 1.429 . S
C649 C653 1.411 . S
C649 N656 1.377 . S
C650 C652 1.420 . S
C650 C654 1.423 . S
C650 C662 1.392 . S
C651 C653 1.420 . S
C651 C654 1.351 . S
C651 H674 0.931 . S
C652 C649 1.429 . S
C652 C650 1.420 . S
C652 N660 1.362 . S
C653 C649 1.411 . S
C653 C651 1.420 . S
C653 C658 1.395 . S
C654 C650 1.423 . S
C654 C651 1.351 . S
C654 H666 0.930 . S
C655 C657 1.400 . S
C655 C658 1.386 . S
C655 H667 0.930 . S
N656 C649 1.377 . S
N656 C657 1.321 . S
N656 Eu659 2.609 . S
C657 C655 1.400 . S
C657 N656 1.321 . S
C657 H664 0.930 . S
C658 C653 1.395 . S
C658 C655 1.386 . S
C658 H677 0.930 . S
Eu659 N656 2.609 . S
Eu659 N660 2.657 . S
Eu659 O693 2.469 . S
Eu659 O694 2.432 . S
Eu659 O698 2.558 . S
Eu659 O699 2.612 1_545 S
Eu659 O701 2.339 1_545 S
Eu659 O702 2.563 1_545 S
Eu659 O703 2.419 . S
Eu659 C723 2.848 . S
N660 C652 1.362 . S
N660 Eu659 2.657 . S
N660 C661 1.334 . S
C661 N660 1.334 . S
C661 C663 1.413 . S
C661 H668 0.929 . S
C662 C650 1.392 . S
C662 C663 1.367 . S
C662 H670 0.930 . S
C663 C661 1.413 . S
C663 C662 1.367 . S
C663 H665 0.930 . S
H664 C657 0.930 . S
H665 C663 0.930 . S
H666 C654 0.930 . S
H667 C655 0.930 . S
H668 C661 0.929 . S
H669 C683 0.930 . S
H670 C662 0.930 . S
H671 C689 0.930 . S
H672 C680 0.929 . S
H673 C687 0.930 . S
H674 C651 0.931 . S
H675 C681 0.930 . S
H676 C714 0.930 . S
H677 C658 0.930 . S
H678 C713 0.931 . S
N679 Eu648 2.657 . S
N679 C680 1.334 . S
N679 C684 1.362 . S
C680 H672 0.929 . S
C680 N679 1.334 . S
C680 C683 1.413 . S
C681 H675 0.930 . S
C681 C682 1.392 . S
C681 C683 1.367 . S
C682 C681 1.392 . S
C682 C684 1.420 . S
C682 C714 1.423 . S
C683 H669 0.930 . S
C683 C680 1.413 . S
C683 C681 1.367 . S
C684 N679 1.362 . S
C684 C682 1.420 . S
C684 C688 1.429 . S
H685 C690 0.930 . S
N686 Eu648 2.609 . S
N686 C688 1.377 . S
N686 C689 1.321 . S
C687 H673 0.930 . S
C687 C689 1.400 . S
C687 C690 1.386 . S
C688 C684 1.429 . S
C688 N686 1.377 . S
C688 C691 1.411 . S
C689 H671 0.930 . S
C689 N686 1.321 . S
C689 C687 1.400 . S
C690 H685 0.930 . S
C690 C687 1.386 . S
C690 C691 1.395 . S
C691 C688 1.411 . S
C691 C690 1.395 . S
C691 C713 1.420 . S
O692 Eu648 2.558 . S
O692 C712 1.257 . S
O693 Eu648 2.561 1_544 S
O693 Eu659 2.469 . S
O693 C704 1.207 1_554 S
O694 Eu659 2.432 . S
O694 C711 1.264 1_554 S
O695 Eu648 2.339 1_545 S
O695 C711 1.254 . S
O696 Eu648 2.563 1_545 S
O696 C704 1.235 . S
O697 Eu648 2.419 . S
O697 C712 1.249 . S
O698 Eu659 2.558 . S
O698 C723 1.257 . S
O699 Eu648 2.380 1_554 S
O699 Eu659 2.612 1_565 S
O699 C715 1.276 . S
O700 Eu648 2.434 1_554 S
O700 C722 1.261 . S
O701 Eu659 2.339 1_565 S
O701 C722 1.254 . S
O702 Eu659 2.563 1_565 S
O702 C715 1.235 . S
O703 Eu659 2.419 . S
O703 C723 1.249 . S
C704 O693 1.207 1_556 S
C704 O696 1.235 . S
C705 C707 1.393 1_565 S
C705 C709 1.395 . S
C705 C712 1.492 . S
C706 C707 1.392 . S
C706 C708 1.386 1_545 S
C707 C705 1.393 1_545 S
C707 C706 1.392 . S
C707 H724 0.930 . S
C708 C706 1.386 1_565 S
C708 C710 1.395 . S
C708 H725 0.930 . S
C709 C705 1.395 . S
C709 C710 1.379 . S
C709 H726 0.930 . S
C710 C708 1.395 . S
C710 C709 1.379 . S
C710 H727 0.930 . S
C711 O694 1.264 1_556 S
C711 O695 1.254 . S
C712 Eu648 2.848 . S
C712 O692 1.257 . S
C712 O697 1.249 . S
C712 C705 1.492 . S
C713 H678 0.931 . S
C713 C691 1.420 . S
C713 C714 1.351 . S
C714 H676 0.930 . S
C714 C682 1.423 . S
C714 C713 1.351 . S
C715 O699 1.276 . S
C715 O702 1.235 . S
C716 C717 1.393 1_545 S
C716 C720 1.395 . S
C716 C723 1.492 . S
C717 C716 1.393 1_565 S
C717 C718 1.392 . S
C717 H728 0.930 . S
C718 C717 1.392 . S
C718 C719 1.386 1_565 S
C719 C718 1.386 1_545 S
C719 C721 1.395 . S
C719 H729 0.930 . S
C720 C716 1.395 . S
C720 C721 1.379 . S
C720 H730 0.930 . S
C721 C719 1.395 . S
C721 C720 1.379 . S
C721 H731 0.930 . S
C722 O700 1.261 . S
C722 O701 1.254 . S
C723 Eu659 2.848 . S
C723 O698 1.257 . S
C723 O703 1.249 . S
C723 C716 1.492 . S
H724 C707 0.930 . S
H725 C708 0.930 . S
H726 C709 0.930 . S
H727 C710 0.930 . S
H728 C717 0.930 . S
H729 C719 0.930 . S
H730 C720 0.930 . S
H731 C721 0.930 . S
Eu732 N763 2.657 . S
Eu732 N770 2.609 . S
Eu732 O776 2.558 . S
Eu732 O777 2.585 1_456 S
Eu732 O779 2.339 1_455 S
Eu732 O780 2.563 1_455 S
Eu732 O781 2.419 . S
Eu732 O783 2.380 1_556 S
Eu732 O784 2.397 1_556 S
Eu732 C796 2.848 . S
C733 C736 1.429 . S
C733 C737 1.411 . S
C733 N740 1.377 . S
C734 C736 1.420 . S
C734 C738 1.423 . S
C734 C746 1.392 . S
C735 C737 1.420 . S
C735 C738 1.351 . S
C735 H758 0.931 . S
C736 C733 1.429 . S
C736 C734 1.420 . S
C736 N744 1.362 . S
C737 C733 1.411 . S
C737 C735 1.420 . S
C737 C742 1.395 . S
C738 C734 1.423 . S
C738 C735 1.351 . S
C738 H750 0.930 . S
C739 C741 1.400 . S
C739 C742 1.386 . S
C739 H751 0.930 . S
N740 C733 1.377 . S
N740 C741 1.321 . S
N740 Eu743 2.609 . S
C741 C739 1.400 . S
C741 N740 1.321 . S
C741 H748 0.930 . S
C742 C737 1.395 . S
C742 C739 1.386 . S
C742 H761 0.930 . S
Eu743 N740 2.609 . S
Eu743 N744 2.657 . S
Eu743 O777 2.427 . S
Eu743 O778 2.432 . S
Eu743 O782 2.558 . S
Eu743 O783 2.612 1_655 S
Eu743 O785 2.339 1_655 S
Eu743 O786 2.563 1_655 S
Eu743 O787 2.419 . S
Eu743 C807 2.848 . S
N744 C736 1.362 . S
N744 Eu743 2.657 . S
N744 C745 1.334 . S
C745 N744 1.334 . S
C745 C747 1.413 . S
C745 H752 0.929 . S
C746 C734 1.392 . S
C746 C747 1.367 . S
C746 H754 0.930 . S
C747 C745 1.413 . S
C747 C746 1.367 . S
C747 H749 0.930 . S
H748 C741 0.930 . S
H749 C747 0.930 . S
H750 C738 0.930 . S
H751 C739 0.930 . S
H752 C745 0.929 . S
H753 C767 0.930 . S
H754 C746 0.930 . S
H755 C773 0.930 . S
H756 C764 0.929 . S
H757 C771 0.930 . S
H758 C735 0.931 . S
H759 C765 0.930 . S
H760 C798 0.930 . S
H761 C742 0.930 . S
H762 C797 0.931 . S
N763 Eu732 2.657 . S
N763 C764 1.334 . S
N763 C768 1.362 . S
C764 H756 0.929 . S
C764 N763 1.334 . S
C764 C767 1.413 . S
C765 H759 0.930 . S
C765 C766 1.392 . S
C765 C767 1.367 . S
C766 C765 1.392 . S
C766 C768 1.420 . S
C766 C798 1.423 . S
C767 H753 0.930 . S
C767 C764 1.413 . S
C767 C765 1.367 . S
C768 N763 1.362 . S
C768 C766 1.420 . S
C768 C772 1.429 . S
H769 C774 0.930 . S
N770 Eu732 2.609 . S
N770 C772 1.377 . S
N770 C773 1.321 . S
C771 H757 0.930 . S
C771 C773 1.400 . S
C771 C774 1.386 . S
C772 C768 1.429 . S
C772 N770 1.377 . S
C772 C775 1.411 . S
C773 H755 0.930 . S
C773 N770 1.321 . S
C773 C771 1.400 . S
C774 H769 0.930 . S
C774 C771 1.386 . S
C774 C775 1.395 . S
C775 C772 1.411 . S
C775 C774 1.395 . S
C775 C797 1.420 . S
O776 Eu732 2.558 . S
O776 C796 1.257 . S
O777 Eu732 2.585 1_654 S
O777 Eu743 2.427 . S
O777 C788 1.238 1_554 S
O778 Eu743 2.432 . S
O778 C795 1.264 1_554 S
O779 Eu732 2.339 1_655 S
O779 C795 1.254 . S
O780 Eu732 2.563 1_655 S
O780 C788 1.235 . S
O781 Eu732 2.419 . S
O781 C796 1.249 . S
O782 Eu743 2.558 . S
O782 C807 1.257 . S
O783 Eu732 2.380 1_554 S
O783 Eu743 2.612 1_455 S
O783 C799 1.276 . S
O784 Eu732 2.397 1_554 S
O784 C806 1.328 . S
O785 Eu743 2.339 1_455 S
O785 C806 1.254 . S
O786 Eu743 2.563 1_455 S
O786 C799 1.235 . S
O787 Eu743 2.419 . S
O787 C807 1.249 . S
C788 O777 1.238 1_556 S
C788 O780 1.235 . S
C789 C791 1.393 1_455 S
C789 C793 1.395 . S
C789 C796 1.492 . S
C790 C791 1.392 . S
C790 C792 1.386 1_655 S
C791 C789 1.393 1_655 S
C791 C790 1.392 . S
C791 H808 0.930 . S
C792 C790 1.386 1_455 S
C792 C794 1.395 . S
C792 H809 0.930 . S
C793 C789 1.395 . S
C793 C794 1.379 . S
C793 H810 0.930 . S
C794 C792 1.395 . S
C794 C793 1.379 . S
C794 H811 0.930 . S
C795 O778 1.264 1_556 S
C795 O779 1.254 . S
C796 Eu732 2.848 . S
C796 O776 1.257 . S
C796 O781 1.249 . S
C796 C789 1.492 . S
C797 H762 0.931 . S
C797 C775 1.420 . S
C797 C798 1.351 . S
C798 H760 0.930 . S
C798 C766 1.423 . S
C798 C797 1.351 . S
C799 O783 1.276 . S
C799 O786 1.235 . S
C800 C801 1.393 1_655 S
C800 C804 1.395 . S
C800 C807 1.492 . S
C801 C800 1.393 1_455 S
C801 C802 1.392 . S
C801 H812 0.930 . S
C802 C801 1.392 . S
C802 C803 1.386 1_455 S
C803 C802 1.386 1_655 S
C803 C805 1.395 . S
C803 H813 0.930 . S
C804 C800 1.395 . S
C804 C805 1.379 . S
C804 H814 0.930 . S
C805 C803 1.395 . S
C805 C804 1.379 . S
C805 H815 0.930 . S
C806 O784 1.328 . S
C806 O785 1.254 . S
C807 Eu743 2.848 . S
C807 O782 1.257 . S
C807 O787 1.249 . S
C807 C800 1.492 . S
H808 C791 0.930 . S
H809 C792 0.930 . S
H810 C793 0.930 . S
H811 C794 0.930 . S
H812 C801 0.930 . S
H813 C803 0.930 . S
H814 C804 0.930 . S
H815 C805 0.930 . S
Eu816 N847 2.657 . S
Eu816 N854 2.609 . S
Eu816 O860 2.558 . S
Eu816 O861 2.612 . S
Eu816 O863 2.339 . S
Eu816 O864 2.563 . S
Eu816 O865 2.419 . S
Eu816 O867 2.446 . S
Eu816 O868 2.432 . S
Eu816 C880 2.848 . S
C817 C820 1.429 . S
C817 C821 1.411 . S
C817 N824 1.377 . S
C818 C820 1.420 . S
C818 C822 1.423 . S
C818 C830 1.392 . S
C819 C821 1.420 . S
C819 C822 1.351 . S
C819 H842 0.931 . S
C820 C817 1.429 . S
C820 C818 1.420 . S
C820 N828 1.362 . S
C821 C817 1.411 . S
C821 C819 1.420 . S
C821 C826 1.395 . S
C822 C818 1.423 . S
C822 C819 1.351 . S
C822 H834 0.930 . S
C823 C825 1.400 . S
C823 C826 1.386 . S
C823 H835 0.930 . S
N824 C817 1.377 . S
N824 C825 1.321 . S
N824 Eu827 2.609 . S
C825 C823 1.400 . S
C825 N824 1.321 . S
C825 H832 0.930 . S
C826 C821 1.395 . S
C826 C823 1.386 . S
C826 H845 0.930 . S
Eu827 N824 2.609 . S
Eu827 N828 2.657 . S
Eu827 O861 2.380 1_556 S
Eu827 O862 2.416 1_556 S
Eu827 O866 2.558 . S
Eu827 O867 2.575 1_556 S
Eu827 O869 2.339 . S
Eu827 O870 2.563 . S
Eu827 O871 2.419 . S
Eu827 C891 2.848 . S
N828 C820 1.362 . S
N828 Eu827 2.657 . S
N828 C829 1.334 . S
C829 N828 1.334 . S
C829 C831 1.413 . S
C829 H836 0.929 . S
C830 C818 1.392 . S
C830 C831 1.367 . S
C830 H838 0.930 . S
C831 C829 1.413 . S
C831 C830 1.367 . S
C831 H833 0.930 . S
H832 C825 0.930 . S
H833 C831 0.930 . S
H834 C822 0.930 . S
H835 C823 0.930 . S
H836 C829 0.929 . S
H837 C851 0.930 . S
H838 C830 0.930 . S
H839 C857 0.930 . S
H840 C848 0.929 . S
H841 C855 0.930 . S
H842 C819 0.931 . S
H843 C849 0.930 . S
H844 C882 0.930 . S
H845 C826 0.930 . S
H846 C881 0.931 . S
N847 Eu816 2.657 . S
N847 C848 1.334 . S
N847 C852 1.362 . S
C848 H840 0.929 . S
C848 N847 1.334 . S
C848 C851 1.413 . S
C849 H843 0.930 . S
C849 C850 1.392 . S
C849 C851 1.367 . S
C850 C849 1.392 . S
C850 C852 1.420 . S
C850 C882 1.423 . S
C851 H837 0.930 . S
C851 C848 1.413 . S
C851 C849 1.367 . S
C852 N847 1.362 . S
C852 C850 1.420 . S
C852 C856 1.429 . S
H853 C858 0.930 . S
N854 Eu816 2.609 . S
N854 C856 1.377 . S
N854 C857 1.321 . S
C855 H841 0.930 . S
C855 C857 1.400 . S
C855 C858 1.386 . S
C856 C852 1.429 . S
C856 N854 1.377 . S
C856 C859 1.411 . S
C857 H839 0.930 . S
C857 N854 1.321 . S
C857 C855 1.400 . S
C858 H853 0.930 . S
C858 C855 1.386 . S
C858 C859 1.395 . S
C859 C856 1.411 . S
C859 C858 1.395 . S
C859 C881 1.420 . S
O860 Eu816 2.558 . S
O860 C880 1.257 . S
O861 Eu816 2.612 . S
O861 Eu827 2.380 1_554 S
O861 C872 1.276 . S
O862 Eu827 2.416 1_554 S
O862 C879 1.293 . S
O863 Eu816 2.339 . S
O863 C879 1.254 . S
O864 Eu816 2.563 . S
O864 C872 1.235 . S
O865 Eu816 2.419 . S
O865 C880 1.249 . S
O866 Eu827 2.558 . S
O866 C891 1.257 . S
O867 Eu816 2.446 . S
O867 Eu827 2.575 1_554 S
O867 C883 1.223 1_554 S
O868 Eu816 2.432 . S
O868 C890 1.264 1_554 S
O869 Eu827 2.339 . S
O869 C890 1.254 . S
O870 Eu827 2.563 . S
O870 C883 1.235 . S
O871 Eu827 2.419 . S
O871 C891 1.249 . S
C872 O861 1.276 . S
C872 O864 1.235 . S
C873 C875 1.393 . S
C873 C877 1.395 . S
C873 C880 1.492 . S
C874 C875 1.392 . S
C874 C876 1.386 . S
C875 C873 1.393 . S
C875 C874 1.392 . S
C875 H892 0.930 . S
C876 C874 1.386 . S
C876 C878 1.395 . S
C876 H893 0.930 . S
C877 C873 1.395 . S
C877 C878 1.379 . S
C877 H894 0.930 . S
C878 C876 1.395 . S
C878 C877 1.379 . S
C878 H895 0.930 . S
C879 O862 1.293 . S
C879 O863 1.254 . S
C880 Eu816 2.848 . S
C880 O860 1.257 . S
C880 O865 1.249 . S
C880 C873 1.492 . S
C881 H846 0.931 . S
C881 C859 1.420 . S
C881 C882 1.351 . S
C882 H844 0.930 . S
C882 C850 1.423 . S
C882 C881 1.351 . S
C883 O867 1.223 1_556 S
C883 O870 1.235 . S
C884 C885 1.393 . S
C884 C888 1.395 . S
C884 C891 1.492 . S
C885 C884 1.393 . S
C885 C886 1.392 . S
C885 H896 0.930 . S
C886 C885 1.392 . S
C886 C887 1.386 . S
C887 C886 1.386 . S
C887 C889 1.395 . S
C887 H897 0.930 . S
C888 C884 1.395 . S
C888 C889 1.379 . S
C888 H898 0.930 . S
C889 C887 1.395 . S
C889 C888 1.379 . S
C889 H899 0.930 . S
C890 O868 1.264 1_556 S
C890 O869 1.254 . S
C891 Eu827 2.848 . S
C891 O866 1.257 . S
C891 O871 1.249 . S
C891 C884 1.492 . S
H892 C875 0.930 . S
H893 C876 0.930 . S
H894 C877 0.930 . S
H895 C878 0.930 . S
H896 C885 0.930 . S
H897 C887 0.930 . S
H898 C888 0.930 . S
H899 C889 0.930 . S
Eu900 N931 2.657 . S
Eu900 N938 2.609 . S
Eu900 O944 2.558 . S
Eu900 O945 2.612 . S
Eu900 O947 2.339 . S
Eu900 O948 2.563 . S
Eu900 O949 2.419 . S
Eu900 O951 2.380 . S
Eu900 O952 2.432 . S
Eu900 C964 2.848 . S
C901 C904 1.429 . S
C901 C905 1.411 . S
C901 N908 1.377 . S
C902 C904 1.420 . S
C902 C906 1.423 . S
C902 C914 1.392 . S
C903 C905 1.420 . S
C903 C906 1.351 . S
C903 H926 0.931 . S
C904 C901 1.429 . S
C904 C902 1.420 . S
C904 N912 1.362 . S
C905 C901 1.411 . S
C905 C903 1.420 . S
C905 C910 1.395 . S
C906 C902 1.423 . S
C906 C903 1.351 . S
C906 H918 0.930 . S
C907 C909 1.400 . S
C907 C910 1.386 . S
C907 H919 0.930 . S
N908 C901 1.377 . S
N908 C909 1.321 . S
N908 Eu911 2.609 . S
C909 C907 1.400 . S
C909 N908 1.321 . S
C909 H916 0.930 . S
C910 C905 1.395 . S
C910 C907 1.386 . S
C910 H929 0.930 . S
Eu911 N908 2.609 . S
Eu911 N912 2.657 . S
Eu911 O945 2.380 . S
Eu911 O946 2.432 . S
Eu911 O950 2.558 . S
Eu911 O951 2.612 . S
Eu911 O953 2.339 . S
Eu911 O954 2.563 . S
Eu911 O955 2.419 . S
Eu911 C975 2.848 . S
N912 C904 1.362 . S
N912 Eu911 2.657 . S
N912 C913 1.334 . S
C913 N912 1.334 . S
C913 C915 1.413 . S
C913 H920 0.929 . S
C914 C902 1.392 . S
C914 C915 1.367 . S
C914 H922 0.930 . S
C915 C913 1.413 . S
C915 C914 1.367 . S
C915 H917 0.930 . S
H916 C909 0.930 . S
H917 C915 0.930 . S
H918 C906 0.930 . S
H919 C907 0.930 . S
H920 C913 0.929 . S
H921 C935 0.930 . S
H922 C914 0.930 . S
H923 C941 0.930 . S
H924 C932 0.929 . S
H925 C939 0.930 . S
H926 C903 0.931 . S
H927 C933 0.930 . S
H928 C966 0.930 . S
H929 C910 0.930 . S
H930 C965 0.931 . S
N931 Eu900 2.657 . S
N931 C932 1.334 . S
N931 C936 1.362 . S
C932 H924 0.929 . S
C932 N931 1.334 . S
C932 C935 1.413 . S
C933 H927 0.930 . S
C933 C934 1.392 . S
C933 C935 1.367 . S
C934 C933 1.392 . S
C934 C936 1.420 . S
C934 C966 1.423 . S
C935 H921 0.930 . S
C935 C932 1.413 . S
C935 C933 1.367 . S
C936 N931 1.362 . S
C936 C934 1.420 . S
C936 C940 1.429 . S
H937 C942 0.930 . S
N938 Eu900 2.609 . S
N938 C940 1.377 . S
N938 C941 1.321 . S
C939 H925 0.930 . S
C939 C941 1.400 . S
C939 C942 1.386 . S
C940 C936 1.429 . S
C940 N938 1.377 . S
C940 C943 1.411 . S
C941 H923 0.930 . S
C941 N938 1.321 . S
C941 C939 1.400 . S
C942 H937 0.930 . S
C942 C939 1.386 . S
C942 C943 1.395 . S
C943 C940 1.411 . S
C943 C942 1.395 . S
C943 C965 1.420 . S
O944 Eu900 2.558 . S
O944 C964 1.257 . S
O945 Eu900 2.612 . S
O945 Eu911 2.380 . S
O945 C956 1.276 . S
O946 Eu911 2.432 . S
O946 C963 1.264 . S
O947 Eu900 2.339 . S
O947 C963 1.254 . S
O948 Eu900 2.563 . S
O948 C956 1.235 . S
O949 Eu900 2.419 . S
O949 C964 1.249 . S
O950 Eu911 2.558 . S
O950 C975 1.257 . S
O951 Eu900 2.380 . S
O951 Eu911 2.612 . S
O951 C967 1.276 . S
O952 Eu900 2.432 . S
O952 C974 1.264 . S
O953 Eu911 2.339 . S
O953 C974 1.254 . S
O954 Eu911 2.563 . S
O954 C967 1.235 . S
O955 Eu911 2.419 . S
O955 C975 1.249 . S
C956 O945 1.276 . S
C956 O948 1.235 . S
C957 C959 1.393 . S
C957 C961 1.395 . S
C957 C964 1.492 . S
C958 C959 1.392 . S
C958 C960 1.386 . S
C959 C957 1.393 . S
C959 C958 1.392 . S
C959 H976 0.930 . S
C960 C958 1.386 . S
C960 C962 1.395 . S
C960 H977 0.930 . S
C961 C957 1.395 . S
C961 C962 1.379 . S
C961 H978 0.930 . S
C962 C960 1.395 . S
C962 C961 1.379 . S
C962 H979 0.930 . S
C963 O946 1.264 . S
C963 O947 1.254 . S
C964 Eu900 2.848 . S
C964 O944 1.257 . S
C964 O949 1.249 . S
C964 C957 1.492 . S
C965 H930 0.931 . S
C965 C943 1.420 . S
C965 C966 1.351 . S
C966 H928 0.930 . S
C966 C934 1.423 . S
C966 C965 1.351 . S
C967 O951 1.276 . S
C967 O954 1.235 . S
C968 C969 1.393 . S
C968 C972 1.395 . S
C968 C975 1.492 . S
C969 C968 1.393 . S
C969 C970 1.392 . S
C969 H980 0.930 . S
C970 C969 1.392 . S
C970 C971 1.386 . S
C971 C970 1.386 . S
C971 C973 1.395 . S
C971 H981 0.930 . S
C972 C968 1.395 . S
C972 C973 1.379 . S
C972 H982 0.930 . S
C973 C971 1.395 . S
C973 C972 1.379 . S
C973 H983 0.930 . S
C974 O952 1.264 . S
C974 O953 1.254 . S
C975 Eu911 2.848 . S
C975 O950 1.257 . S
C975 O955 1.249 . S
C975 C968 1.492 . S
H976 C959 0.930 . S
H977 C960 0.930 . S
H978 C961 0.930 . S
H979 C962 0.930 . S
H980 C969 0.930 . S
H981 C971 0.930 . S
H982 C972 0.930 . S
H983 C973 0.930 . S
Eu984 N1015 2.657 . S
Eu984 N1022 2.609 . S
Eu984 O1028 2.558 . S
Eu984 O1029 2.612 . S
Eu984 O1031 2.339 . S
Eu984 O1032 2.563 . S
Eu984 O1033 2.419 . S
Eu984 O1035 2.380 . S
Eu984 O1036 2.432 . S
Eu984 C1048 2.848 . S
C985 C988 1.429 . S
C985 C989 1.411 . S
C985 N992 1.377 . S
C986 C988 1.420 . S
C986 C990 1.423 . S
C986 C998 1.392 . S
C987 C989 1.420 . S
C987 C990 1.351 . S
C987 H1010 0.931 . S
C988 C985 1.429 . S
C988 C986 1.420 . S
C988 N996 1.362 . S
C989 C985 1.411 . S
C989 C987 1.420 . S
C989 C994 1.395 . S
C990 C986 1.423 . S
C990 C987 1.351 . S
C990 H1002 0.930 . S
C991 C993 1.400 . S
C991 C994 1.386 . S
C991 H1003 0.930 . S
N992 C985 1.377 . S
N992 C993 1.321 . S
N992 Eu995 2.609 . S
C993 C991 1.400 . S
C993 N992 1.321 . S
C993 H1000 0.930 . S
C994 C989 1.395 . S
C994 C991 1.386 . S
C994 H1013 0.930 . S
Eu995 N992 2.609 . S
Eu995 N996 2.657 . S
Eu995 O1029 2.380 . S
Eu995 O1030 2.432 . S
Eu995 O1034 2.558 . S
Eu995 O1035 2.612 . S
Eu995 O1037 2.339 . S
Eu995 O1038 2.563 . S
Eu995 O1039 2.419 . S
Eu995 C1059 2.848 . S
N996 C988 1.362 . S
N996 Eu995 2.657 . S
N996 C997 1.334 . S
C997 N996 1.334 . S
C997 C999 1.413 . S
C997 H1004 0.929 . S
C998 C986 1.392 . S
C998 C999 1.367 . S
C998 H1006 0.930 . S
C999 C997 1.413 . S
C999 C998 1.367 . S
C999 H1001 0.930 . S
H1000 C993 0.930 . S
H1001 C999 0.930 . S
H1002 C990 0.930 . S
H1003 C991 0.930 . S
H1004 C997 0.929 . S
H1005 C1019 0.930 . S
H1006 C998 0.930 . S
H1007 C1025 0.930 . S
H1008 C1016 0.929 . S
H1009 C1023 0.930 . S
H1010 C987 0.931 . S
H1011 C1017 0.930 . S
H1012 C1050 0.930 . S
H1013 C994 0.930 . S
H1014 C1049 0.931 . S
N1015 Eu984 2.657 . S
N1015 C1016 1.334 . S
N1015 C1020 1.362 . S
C1016 H1008 0.929 . S
C1016 N1015 1.334 . S
C1016 C1019 1.413 . S
C1017 H1011 0.930 . S
C1017 C1018 1.392 . S
C1017 C1019 1.367 . S
C1018 C1017 1.392 . S
C1018 C1020 1.420 . S
C1018 C1050 1.423 . S
C1019 H1005 0.930 . S
C1019 C1016 1.413 . S
C1019 C1017 1.367 . S
C1020 N1015 1.362 . S
C1020 C1018 1.420 . S
C1020 C1024 1.429 . S
H1021 C1026 0.930 . S
N1022 Eu984 2.609 . S
N1022 C1024 1.377 . S
N1022 C1025 1.321 . S
C1023 H1009 0.930 . S
C1023 C1025 1.400 . S
C1023 C1026 1.386 . S
C1024 C1020 1.429 . S
C1024 N1022 1.377 . S
C1024 C1027 1.411 . S
C1025 H1007 0.930 . S
C1025 N1022 1.321 . S
C1025 C1023 1.400 . S
C1026 H1021 0.930 . S
C1026 C1023 1.386 . S
C1026 C1027 1.395 . S
C1027 C1024 1.411 . S
C1027 C1026 1.395 . S
C1027 C1049 1.420 . S
O1028 Eu984 2.558 . S
O1028 C1048 1.257 . S
O1029 Eu984 2.612 . S
O1029 Eu995 2.380 . S
O1029 C1040 1.276 . S
O1030 Eu995 2.432 . S
O1030 C1047 1.264 . S
O1031 Eu984 2.339 . S
O1031 C1047 1.254 . S
O1032 Eu984 2.563 . S
O1032 C1040 1.235 . S
O1033 Eu984 2.419 . S
O1033 C1048 1.249 . S
O1034 Eu995 2.558 . S
O1034 C1059 1.257 . S
O1035 Eu984 2.380 . S
O1035 Eu995 2.612 . S
O1035 C1051 1.276 . S
O1036 Eu984 2.432 . S
O1036 C1058 1.264 . S
O1037 Eu995 2.339 . S
O1037 C1058 1.254 . S
O1038 Eu995 2.563 . S
O1038 C1051 1.235 . S
O1039 Eu995 2.419 . S
O1039 C1059 1.249 . S
C1040 O1029 1.276 . S
C1040 O1032 1.235 . S
C1041 C1043 1.393 . S
C1041 C1045 1.395 . S
C1041 C1048 1.492 . S
C1042 C1043 1.392 . S
C1042 C1044 1.386 . S
C1043 C1041 1.393 . S
C1043 C1042 1.392 . S
C1043 H1060 0.930 . S
C1044 C1042 1.386 . S
C1044 C1046 1.395 . S
C1044 H1061 0.930 . S
C1045 C1041 1.395 . S
C1045 C1046 1.379 . S
C1045 H1062 0.930 . S
C1046 C1044 1.395 . S
C1046 C1045 1.379 . S
C1046 H1063 0.930 . S
C1047 O1030 1.264 . S
C1047 O1031 1.254 . S
C1048 Eu984 2.848 . S
C1048 O1028 1.257 . S
C1048 O1033 1.249 . S
C1048 C1041 1.492 . S
C1049 H1014 0.931 . S
C1049 C1027 1.420 . S
C1049 C1050 1.351 . S
C1050 H1012 0.930 . S
C1050 C1018 1.423 . S
C1050 C1049 1.351 . S
C1051 O1035 1.276 . S
C1051 O1038 1.235 . S
C1052 C1053 1.393 . S
C1052 C1056 1.395 . S
C1052 C1059 1.492 . S
C1053 C1052 1.393 . S
C1053 C1054 1.392 . S
C1053 H1064 0.930 . S
C1054 C1053 1.392 . S
C1054 C1055 1.386 . S
C1055 C1054 1.386 . S
C1055 C1057 1.395 . S
C1055 H1065 0.930 . S
C1056 C1052 1.395 . S
C1056 C1057 1.379 . S
C1056 H1066 0.930 . S
C1057 C1055 1.395 . S
C1057 C1056 1.379 . S
C1057 H1067 0.930 . S
C1058 O1036 1.264 . S
C1058 O1037 1.254 . S
C1059 Eu995 2.848 . S
C1059 O1034 1.257 . S
C1059 O1039 1.249 . S
C1059 C1052 1.492 . S
H1060 C1043 0.930 . S
H1061 C1044 0.930 . S
H1062 C1045 0.930 . S
H1063 C1046 0.930 . S
H1064 C1053 0.930 . S
H1065 C1055 0.930 . S
H1066 C1056 0.930 . S
H1067 C1057 0.930 . S
Eu1068 N1099 2.657 . S
Eu1068 N1106 2.609 . S
Eu1068 O1112 2.558 . S
Eu1068 O1113 2.612 . S
Eu1068 O1115 2.339 . S
Eu1068 O1116 2.563 . S
Eu1068 O1117 2.419 . S
Eu1068 O1119 2.380 . S
Eu1068 O1120 2.432 . S
Eu1068 C1132 2.848 . S
C1069 C1072 1.429 . S
C1069 C1073 1.411 . S
C1069 N1076 1.377 . S
C1070 C1072 1.420 . S
C1070 C1074 1.423 . S
C1070 C1082 1.392 . S
C1071 C1073 1.420 . S
C1071 C1074 1.351 . S
C1071 H1094 0.931 . S
C1072 C1069 1.429 . S
C1072 C1070 1.420 . S
C1072 N1080 1.362 . S
C1073 C1069 1.411 . S
C1073 C1071 1.420 . S
C1073 C1078 1.395 . S
C1074 C1070 1.423 . S
C1074 C1071 1.351 . S
C1074 H1086 0.930 . S
C1075 C1077 1.400 . S
C1075 C1078 1.386 . S
C1075 H1087 0.930 . S
N1076 C1069 1.377 . S
N1076 C1077 1.321 . S
N1076 Eu1079 2.609 . S
C1077 C1075 1.400 . S
C1077 N1076 1.321 . S
C1077 H1084 0.930 . S
C1078 C1073 1.395 . S
C1078 C1075 1.386 . S
C1078 H1097 0.930 . S
Eu1079 N1076 2.609 . S
Eu1079 N1080 2.657 . S
Eu1079 O1113 2.380 . S
Eu1079 O1114 2.432 . S
Eu1079 O1118 2.558 . S
Eu1079 O1119 2.612 . S
Eu1079 O1121 2.339 . S
Eu1079 O1122 2.563 . S
Eu1079 O1123 2.419 . S
Eu1079 C1143 2.848 . S
N1080 C1072 1.362 . S
N1080 Eu1079 2.657 . S
N1080 C1081 1.334 . S
C1081 N1080 1.334 . S
C1081 C1083 1.413 . S
C1081 H1088 0.929 . S
C1082 C1070 1.392 . S
C1082 C1083 1.367 . S
C1082 H1090 0.930 . S
C1083 C1081 1.413 . S
C1083 C1082 1.367 . S
C1083 H1085 0.930 . S
H1084 C1077 0.930 . S
H1085 C1083 0.930 . S
H1086 C1074 0.930 . S
H1087 C1075 0.930 . S
H1088 C1081 0.929 . S
H1089 C1103 0.930 . S
H1090 C1082 0.930 . S
H1091 C1109 0.930 . S
H1092 C1100 0.929 . S
H1093 C1107 0.930 . S
H1094 C1071 0.931 . S
H1095 C1101 0.930 . S
H1096 C1134 0.930 . S
H1097 C1078 0.930 . S
H1098 C1133 0.931 . S
N1099 Eu1068 2.657 . S
N1099 C1100 1.334 . S
N1099 C1104 1.362 . S
C1100 H1092 0.929 . S
C1100 N1099 1.334 . S
C1100 C1103 1.413 . S
C1101 H1095 0.930 . S
C1101 C1102 1.392 . S
C1101 C1103 1.367 . S
C1102 C1101 1.392 . S
C1102 C1104 1.420 . S
C1102 C1134 1.423 . S
C1103 H1089 0.930 . S
C1103 C1100 1.413 . S
C1103 C1101 1.367 . S
C1104 N1099 1.362 . S
C1104 C1102 1.420 . S
C1104 C1108 1.429 . S
H1105 C1110 0.930 . S
N1106 Eu1068 2.609 . S
N1106 C1108 1.377 . S
N1106 C1109 1.321 . S
C1107 H1093 0.930 . S
C1107 C1109 1.400 . S
C1107 C1110 1.386 . S
C1108 C1104 1.429 . S
C1108 N1106 1.377 . S
C1108 C1111 1.411 . S
C1109 H1091 0.930 . S
C1109 N1106 1.321 . S
C1109 C1107 1.400 . S
C1110 H1105 0.930 . S
C1110 C1107 1.386 . S
C1110 C1111 1.395 . S
C1111 C1108 1.411 . S
C1111 C1110 1.395 . S
C1111 C1133 1.420 . S
O1112 Eu1068 2.558 . S
O1112 C1132 1.257 . S
O1113 Eu1068 2.612 . S
O1113 Eu1079 2.380 . S
O1113 C1124 1.276 . S
O1114 Eu1079 2.432 . S
O1114 C1131 1.264 . S
O1115 Eu1068 2.339 . S
O1115 C1131 1.254 . S
O1116 Eu1068 2.563 . S
O1116 C1124 1.235 . S
O1117 Eu1068 2.419 . S
O1117 C1132 1.249 . S
O1118 Eu1079 2.558 . S
O1118 C1143 1.257 . S
O1119 Eu1068 2.380 . S
O1119 Eu1079 2.612 . S
O1119 C1135 1.276 . S
O1120 Eu1068 2.432 . S
O1120 C1142 1.264 . S
O1121 Eu1079 2.339 . S
O1121 C1142 1.254 . S
O1122 Eu1079 2.563 . S
O1122 C1135 1.235 . S
O1123 Eu1079 2.419 . S
O1123 C1143 1.249 . S
C1124 O1113 1.276 . S
C1124 O1116 1.235 . S
C1125 C1127 1.393 . S
C1125 C1129 1.395 . S
C1125 C1132 1.492 . S
C1126 C1127 1.392 . S
C1126 C1128 1.386 . S
C1127 C1125 1.393 . S
C1127 C1126 1.392 . S
C1127 H1144 0.930 . S
C1128 C1126 1.386 . S
C1128 C1130 1.395 . S
C1128 H1145 0.930 . S
C1129 C1125 1.395 . S
C1129 C1130 1.379 . S
C1129 H1146 0.930 . S
C1130 C1128 1.395 . S
C1130 C1129 1.379 . S
C1130 H1147 0.930 . S
C1131 O1114 1.264 . S
C1131 O1115 1.254 . S
C1132 Eu1068 2.848 . S
C1132 O1112 1.257 . S
C1132 O1117 1.249 . S
C1132 C1125 1.492 . S
C1133 H1098 0.931 . S
C1133 C1111 1.420 . S
C1133 C1134 1.351 . S
C1134 H1096 0.930 . S
C1134 C1102 1.423 . S
C1134 C1133 1.351 . S
C1135 O1119 1.276 . S
C1135 O1122 1.235 . S
C1136 C1137 1.393 . S
C1136 C1140 1.395 . S
C1136 C1143 1.492 . S
C1137 C1136 1.393 . S
C1137 C1138 1.392 . S
C1137 H1148 0.930 . S
C1138 C1137 1.392 . S
C1138 C1139 1.386 . S
C1139 C1138 1.386 . S
C1139 C1141 1.395 . S
C1139 H1149 0.930 . S
C1140 C1136 1.395 . S
C1140 C1141 1.379 . S
C1140 H1150 0.930 . S
C1141 C1139 1.395 . S
C1141 C1140 1.379 . S
C1141 H1151 0.930 . S
C1142 O1120 1.264 . S
C1142 O1121 1.254 . S
C1143 Eu1079 2.848 . S
C1143 O1118 1.257 . S
C1143 O1123 1.249 . S
C1143 C1136 1.492 . S
H1144 C1127 0.930 . S
H1145 C1128 0.930 . S
H1146 C1129 0.930 . S
H1147 C1130 0.930 . S
H1148 C1137 0.930 . S
H1149 C1139 0.930 . S
H1150 C1140 0.930 . S
H1151 C1141 0.930 . S
Eu1152 N1183 2.657 . S
Eu1152 N1190 2.609 . S
Eu1152 O1196 2.558 . S
Eu1152 O1197 2.612 . S
Eu1152 O1199 2.339 . S
Eu1152 O1200 2.563 . S
Eu1152 O1201 2.419 . S
Eu1152 O1203 2.380 . S
Eu1152 O1204 2.432 . S
Eu1152 C1216 2.848 . S
C1153 C1156 1.429 . S
C1153 C1157 1.411 . S
C1153 N1160 1.377 . S
C1154 C1156 1.420 . S
C1154 C1158 1.423 . S
C1154 C1166 1.392 . S
C1155 C1157 1.420 . S
C1155 C1158 1.351 . S
C1155 H1178 0.931 . S
C1156 C1153 1.429 . S
C1156 C1154 1.420 . S
C1156 N1164 1.362 . S
C1157 C1153 1.411 . S
C1157 C1155 1.420 . S
C1157 C1162 1.395 . S
C1158 C1154 1.423 . S
C1158 C1155 1.351 . S
C1158 H1170 0.930 . S
C1159 C1161 1.400 . S
C1159 C1162 1.386 . S
C1159 H1171 0.930 . S
N1160 C1153 1.377 . S
N1160 C1161 1.321 . S
N1160 Eu1163 2.609 . S
C1161 C1159 1.400 . S
C1161 N1160 1.321 . S
C1161 H1168 0.930 . S
C1162 C1157 1.395 . S
C1162 C1159 1.386 . S
C1162 H1181 0.930 . S
Eu1163 N1160 2.609 . S
Eu1163 N1164 2.657 . S
Eu1163 O1197 2.380 . S
Eu1163 O1198 2.432 . S
Eu1163 O1202 2.558 . S
Eu1163 O1203 2.612 . S
Eu1163 O1205 2.339 . S
Eu1163 O1206 2.563 . S
Eu1163 O1207 2.419 . S
Eu1163 C1227 2.848 . S
N1164 C1156 1.362 . S
N1164 Eu1163 2.657 . S
N1164 C1165 1.334 . S
C1165 N1164 1.334 . S
C1165 C1167 1.413 . S
C1165 H1172 0.929 . S
C1166 C1154 1.392 . S
C1166 C1167 1.367 . S
C1166 H1174 0.930 . S
C1167 C1165 1.413 . S
C1167 C1166 1.367 . S
C1167 H1169 0.930 . S
H1168 C1161 0.930 . S
H1169 C1167 0.930 . S
H1170 C1158 0.930 . S
H1171 C1159 0.930 . S
H1172 C1165 0.929 . S
H1173 C1187 0.930 . S
H1174 C1166 0.930 . S
H1175 C1193 0.930 . S
H1176 C1184 0.929 . S
H1177 C1191 0.930 . S
H1178 C1155 0.931 . S
H1179 C1185 0.930 . S
H1180 C1218 0.930 . S
H1181 C1162 0.930 . S
H1182 C1217 0.931 . S
N1183 Eu1152 2.657 . S
N1183 C1184 1.334 . S
N1183 C1188 1.362 . S
C1184 H1176 0.929 . S
C1184 N1183 1.334 . S
C1184 C1187 1.413 . S
C1185 H1179 0.930 . S
C1185 C1186 1.392 . S
C1185 C1187 1.367 . S
C1186 C1185 1.392 . S
C1186 C1188 1.420 . S
C1186 C1218 1.423 . S
C1187 H1173 0.930 . S
C1187 C1184 1.413 . S
C1187 C1185 1.367 . S
C1188 N1183 1.362 . S
C1188 C1186 1.420 . S
C1188 C1192 1.429 . S
H1189 C1194 0.930 . S
N1190 Eu1152 2.609 . S
N1190 C1192 1.377 . S
N1190 C1193 1.321 . S
C1191 H1177 0.930 . S
C1191 C1193 1.400 . S
C1191 C1194 1.386 . S
C1192 C1188 1.429 . S
C1192 N1190 1.377 . S
C1192 C1195 1.411 . S
C1193 H1175 0.930 . S
C1193 N1190 1.321 . S
C1193 C1191 1.400 . S
C1194 H1189 0.930 . S
C1194 C1191 1.386 . S
C1194 C1195 1.395 . S
C1195 C1192 1.411 . S
C1195 C1194 1.395 . S
C1195 C1217 1.420 . S
O1196 Eu1152 2.558 . S
O1196 C1216 1.257 . S
O1197 Eu1152 2.612 . S
O1197 Eu1163 2.380 . S
O1197 C1208 1.276 . S
O1198 Eu1163 2.432 . S
O1198 C1215 1.264 . S
O1199 Eu1152 2.339 . S
O1199 C1215 1.254 . S
O1200 Eu1152 2.563 . S
O1200 C1208 1.235 . S
O1201 Eu1152 2.419 . S
O1201 C1216 1.249 . S
O1202 Eu1163 2.558 . S
O1202 C1227 1.257 . S
O1203 Eu1152 2.380 . S
O1203 Eu1163 2.612 . S
O1203 C1219 1.276 . S
O1204 Eu1152 2.432 . S
O1204 C1226 1.264 . S
O1205 Eu1163 2.339 . S
O1205 C1226 1.254 . S
O1206 Eu1163 2.563 . S
O1206 C1219 1.235 . S
O1207 Eu1163 2.419 . S
O1207 C1227 1.249 . S
C1208 O1197 1.276 . S
C1208 O1200 1.235 . S
C1209 C1211 1.393 . S
C1209 C1213 1.395 . S
C1209 C1216 1.492 . S
C1210 C1211 1.392 . S
C1210 C1212 1.386 . S
C1211 C1209 1.393 . S
C1211 C1210 1.392 . S
C1211 H1228 0.930 . S
C1212 C1210 1.386 . S
C1212 C1214 1.395 . S
C1212 H1229 0.930 . S
C1213 C1209 1.395 . S
C1213 C1214 1.379 . S
C1213 H1230 0.930 . S
C1214 C1212 1.395 . S
C1214 C1213 1.379 . S
C1214 H1231 0.930 . S
C1215 O1198 1.264 . S
C1215 O1199 1.254 . S
C1216 Eu1152 2.848 . S
C1216 O1196 1.257 . S
C1216 O1201 1.249 . S
C1216 C1209 1.492 . S
C1217 H1182 0.931 . S
C1217 C1195 1.420 . S
C1217 C1218 1.351 . S
C1218 H1180 0.930 . S
C1218 C1186 1.423 . S
C1218 C1217 1.351 . S
C1219 O1203 1.276 . S
C1219 O1206 1.235 . S
C1220 C1221 1.393 . S
C1220 C1224 1.395 . S
C1220 C1227 1.492 . S
C1221 C1220 1.393 . S
C1221 C1222 1.392 . S
C1221 H1232 0.930 . S
C1222 C1221 1.392 . S
C1222 C1223 1.386 . S
C1223 C1222 1.386 . S
C1223 C1225 1.395 . S
C1223 H1233 0.930 . S
C1224 C1220 1.395 . S
C1224 C1225 1.379 . S
C1224 H1234 0.930 . S
C1225 C1223 1.395 . S
C1225 C1224 1.379 . S
C1225 H1235 0.930 . S
C1226 O1204 1.264 . S
C1226 O1205 1.254 . S
C1227 Eu1163 2.848 . S
C1227 O1202 1.257 . S
C1227 O1207 1.249 . S
C1227 C1220 1.492 . S
H1228 C1211 0.930 . S
H1229 C1212 0.930 . S
H1230 C1213 0.930 . S
H1231 C1214 0.930 . S
H1232 C1221 0.930 . S
H1233 C1223 0.930 . S
H1234 C1224 0.930 . S
H1235 C1225 0.930 . S
Eu1236 N1267 2.657 . S
Eu1236 N1274 2.609 . S
Eu1236 O1280 2.558 . S
Eu1236 O1281 2.612 . S
Eu1236 O1283 2.339 . S
Eu1236 O1284 2.563 . S
Eu1236 O1285 2.419 . S
Eu1236 O1287 2.380 . S
Eu1236 O1288 2.432 . S
Eu1236 C1300 2.848 . S
C1237 C1240 1.429 . S
C1237 C1241 1.411 . S
C1237 N1244 1.377 . S
C1238 C1240 1.420 . S
C1238 C1242 1.423 . S
C1238 C1250 1.392 . S
C1239 C1241 1.420 . S
C1239 C1242 1.351 . S
C1239 H1262 0.931 . S
C1240 C1237 1.429 . S
C1240 C1238 1.420 . S
C1240 N1248 1.362 . S
C1241 C1237 1.411 . S
C1241 C1239 1.420 . S
C1241 C1246 1.395 . S
C1242 C1238 1.423 . S
C1242 C1239 1.351 . S
C1242 H1254 0.930 . S
C1243 C1245 1.400 . S
C1243 C1246 1.386 . S
C1243 H1255 0.930 . S
N1244 C1237 1.377 . S
N1244 C1245 1.321 . S
N1244 Eu1247 2.609 . S
C1245 C1243 1.400 . S
C1245 N1244 1.321 . S
C1245 H1252 0.930 . S
C1246 C1241 1.395 . S
C1246 C1243 1.386 . S
C1246 H1265 0.930 . S
Eu1247 N1244 2.609 . S
Eu1247 N1248 2.657 . S
Eu1247 O1281 2.380 . S
Eu1247 O1282 2.432 . S
Eu1247 O1286 2.558 . S
Eu1247 O1287 2.612 . S
Eu1247 O1289 2.339 . S
Eu1247 O1290 2.563 . S
Eu1247 O1291 2.419 . S
Eu1247 C1311 2.848 . S
N1248 C1240 1.362 . S
N1248 Eu1247 2.657 . S
N1248 C1249 1.334 . S
C1249 N1248 1.334 . S
C1249 C1251 1.413 . S
C1249 H1256 0.929 . S
C1250 C1238 1.392 . S
C1250 C1251 1.367 . S
C1250 H1258 0.930 . S
C1251 C1249 1.413 . S
C1251 C1250 1.367 . S
C1251 H1253 0.930 . S
H1252 C1245 0.930 . S
H1253 C1251 0.930 . S
H1254 C1242 0.930 . S
H1255 C1243 0.930 . S
H1256 C1249 0.929 . S
H1257 C1271 0.930 . S
H1258 C1250 0.930 . S
H1259 C1277 0.930 . S
H1260 C1268 0.929 . S
H1261 C1275 0.930 . S
H1262 C1239 0.931 . S
H1263 C1269 0.930 . S
H1264 C1302 0.930 . S
H1265 C1246 0.930 . S
H1266 C1301 0.931 . S
N1267 Eu1236 2.657 . S
N1267 C1268 1.334 . S
N1267 C1272 1.362 . S
C1268 H1260 0.929 . S
C1268 N1267 1.334 . S
C1268 C1271 1.413 . S
C1269 H1263 0.930 . S
C1269 C1270 1.392 . S
C1269 C1271 1.367 . S
C1270 C1269 1.392 . S
C1270 C1272 1.420 . S
C1270 C1302 1.423 . S
C1271 H1257 0.930 . S
C1271 C1268 1.413 . S
C1271 C1269 1.367 . S
C1272 N1267 1.362 . S
C1272 C1270 1.420 . S
C1272 C1276 1.429 . S
H1273 C1278 0.930 . S
N1274 Eu1236 2.609 . S
N1274 C1276 1.377 . S
N1274 C1277 1.321 . S
C1275 H1261 0.930 . S
C1275 C1277 1.400 . S
C1275 C1278 1.386 . S
C1276 C1272 1.429 . S
C1276 N1274 1.377 . S
C1276 C1279 1.411 . S
C1277 H1259 0.930 . S
C1277 N1274 1.321 . S
C1277 C1275 1.400 . S
C1278 H1273 0.930 . S
C1278 C1275 1.386 . S
C1278 C1279 1.395 . S
C1279 C1276 1.411 . S
C1279 C1278 1.395 . S
C1279 C1301 1.420 . S
O1280 Eu1236 2.558 . S
O1280 C1300 1.257 . S
O1281 Eu1236 2.612 . S
O1281 Eu1247 2.380 . S
O1281 C1292 1.276 . S
O1282 Eu1247 2.432 . S
O1282 C1299 1.264 . S
O1283 Eu1236 2.339 . S
O1283 C1299 1.254 . S
O1284 Eu1236 2.563 . S
O1284 C1292 1.235 . S
O1285 Eu1236 2.419 . S
O1285 C1300 1.249 . S
O1286 Eu1247 2.558 . S
O1286 C1311 1.257 . S
O1287 Eu1236 2.380 . S
O1287 Eu1247 2.612 . S
O1287 C1303 1.276 . S
O1288 Eu1236 2.432 . S
O1288 C1310 1.264 . S
O1289 Eu1247 2.339 . S
O1289 C1310 1.254 . S
O1290 Eu1247 2.563 . S
O1290 C1303 1.235 . S
O1291 Eu1247 2.419 . S
O1291 C1311 1.249 . S
C1292 O1281 1.276 . S
C1292 O1284 1.235 . S
C1293 C1295 1.393 . S
C1293 C1297 1.395 . S
C1293 C1300 1.492 . S
C1294 C1295 1.392 . S
C1294 C1296 1.386 . S
C1295 C1293 1.393 . S
C1295 C1294 1.392 . S
C1295 H1312 0.930 . S
C1296 C1294 1.386 . S
C1296 C1298 1.395 . S
C1296 H1313 0.930 . S
C1297 C1293 1.395 . S
C1297 C1298 1.379 . S
C1297 H1314 0.930 . S
C1298 C1296 1.395 . S
C1298 C1297 1.379 . S
C1298 H1315 0.930 . S
C1299 O1282 1.264 . S
C1299 O1283 1.254 . S
C1300 Eu1236 2.848 . S
C1300 O1280 1.257 . S
C1300 O1285 1.249 . S
C1300 C1293 1.492 . S
C1301 H1266 0.931 . S
C1301 C1279 1.420 . S
C1301 C1302 1.351 . S
C1302 H1264 0.930 . S
C1302 C1270 1.423 . S
C1302 C1301 1.351 . S
C1303 O1287 1.276 . S
C1303 O1290 1.235 . S
C1304 C1305 1.393 . S
C1304 C1308 1.395 . S
C1304 C1311 1.492 . S
C1305 C1304 1.393 . S
C1305 C1306 1.392 . S
C1305 H1316 0.930 . S
C1306 C1305 1.392 . S
C1306 C1307 1.386 . S
C1307 C1306 1.386 . S
C1307 C1309 1.395 . S
C1307 H1317 0.930 . S
C1308 C1304 1.395 . S
C1308 C1309 1.379 . S
C1308 H1318 0.930 . S
C1309 C1307 1.395 . S
C1309 C1308 1.379 . S
C1309 H1319 0.930 . S
C1310 O1288 1.264 . S
C1310 O1289 1.254 . S
C1311 Eu1247 2.848 . S
C1311 O1286 1.257 . S
C1311 O1291 1.249 . S
C1311 C1304 1.492 . S
H1312 C1295 0.930 . S
H1313 C1296 0.930 . S
H1314 C1297 0.930 . S
H1315 C1298 0.930 . S
H1316 C1305 0.930 . S
H1317 C1307 0.930 . S
H1318 C1308 0.930 . S
H1319 C1309 0.930 . S
Eu1320 N1351 2.657 . S
Eu1320 N1358 2.609 . S
Eu1320 O1364 2.558 . S
Eu1320 O1365 2.612 . S
Eu1320 O1367 2.339 . S
Eu1320 O1368 2.563 . S
Eu1320 O1369 2.419 . S
Eu1320 O1371 2.380 . S
Eu1320 O1372 2.432 . S
Eu1320 C1384 2.848 . S
C1321 C1324 1.429 . S
C1321 C1325 1.411 . S
C1321 N1328 1.377 . S
C1322 C1324 1.420 . S
C1322 C1326 1.423 . S
C1322 C1334 1.392 . S
C1323 C1325 1.420 . S
C1323 C1326 1.351 . S
C1323 H1346 0.931 . S
C1324 C1321 1.429 . S
C1324 C1322 1.420 . S
C1324 N1332 1.362 . S
C1325 C1321 1.411 . S
C1325 C1323 1.420 . S
C1325 C1330 1.395 . S
C1326 C1322 1.423 . S
C1326 C1323 1.351 . S
C1326 H1338 0.930 . S
C1327 C1329 1.400 . S
C1327 C1330 1.386 . S
C1327 H1339 0.930 . S
N1328 C1321 1.377 . S
N1328 C1329 1.321 . S
N1328 Eu1331 2.609 . S
C1329 C1327 1.400 . S
C1329 N1328 1.321 . S
C1329 H1336 0.930 . S
C1330 C1325 1.395 . S
C1330 C1327 1.386 . S
C1330 H1349 0.930 . S
Eu1331 N1328 2.609 . S
Eu1331 N1332 2.657 . S
Eu1331 O1365 2.380 . S
Eu1331 O1366 2.432 . S
Eu1331 O1370 2.558 . S
Eu1331 O1371 2.612 . S
Eu1331 O1373 2.339 . S
Eu1331 O1374 2.563 . S
Eu1331 O1375 2.419 . S
Eu1331 C1395 2.848 . S
N1332 C1324 1.362 . S
N1332 Eu1331 2.657 . S
N1332 C1333 1.334 . S
C1333 N1332 1.334 . S
C1333 C1335 1.413 . S
C1333 H1340 0.929 . S
C1334 C1322 1.392 . S
C1334 C1335 1.367 . S
C1334 H1342 0.930 . S
C1335 C1333 1.413 . S
C1335 C1334 1.367 . S
C1335 H1337 0.930 . S
H1336 C1329 0.930 . S
H1337 C1335 0.930 . S
H1338 C1326 0.930 . S
H1339 C1327 0.930 . S
H1340 C1333 0.929 . S
H1341 C1355 0.930 . S
H1342 C1334 0.930 . S
H1343 C1361 0.930 . S
H1344 C1352 0.929 . S
H1345 C1359 0.930 . S
H1346 C1323 0.931 . S
H1347 C1353 0.930 . S
H1348 C1386 0.930 . S
H1349 C1330 0.930 . S
H1350 C1385 0.931 . S
N1351 Eu1320 2.657 . S
N1351 C1352 1.334 . S
N1351 C1356 1.362 . S
C1352 H1344 0.929 . S
C1352 N1351 1.334 . S
C1352 C1355 1.413 . S
C1353 H1347 0.930 . S
C1353 C1354 1.392 . S
C1353 C1355 1.367 . S
C1354 C1353 1.392 . S
C1354 C1356 1.420 . S
C1354 C1386 1.423 . S
C1355 H1341 0.930 . S
C1355 C1352 1.413 . S
C1355 C1353 1.367 . S
C1356 N1351 1.362 . S
C1356 C1354 1.420 . S
C1356 C1360 1.429 . S
H1357 C1362 0.930 . S
N1358 Eu1320 2.609 . S
N1358 C1360 1.377 . S
N1358 C1361 1.321 . S
C1359 H1345 0.930 . S
C1359 C1361 1.400 . S
C1359 C1362 1.386 . S
C1360 C1356 1.429 . S
C1360 N1358 1.377 . S
C1360 C1363 1.411 . S
C1361 H1343 0.930 . S
C1361 N1358 1.321 . S
C1361 C1359 1.400 . S
C1362 H1357 0.930 . S
C1362 C1359 1.386 . S
C1362 C1363 1.395 . S
C1363 C1360 1.411 . S
C1363 C1362 1.395 . S
C1363 C1385 1.420 . S
O1364 Eu1320 2.558 . S
O1364 C1384 1.257 . S
O1365 Eu1320 2.612 . S
O1365 Eu1331 2.380 . S
O1365 C1376 1.276 . S
O1366 Eu1331 2.432 . S
O1366 C1383 1.264 . S
O1367 Eu1320 2.339 . S
O1367 C1383 1.254 . S
O1368 Eu1320 2.563 . S
O1368 C1376 1.235 . S
O1369 Eu1320 2.419 . S
O1369 C1384 1.249 . S
O1370 Eu1331 2.558 . S
O1370 C1395 1.257 . S
O1371 Eu1320 2.380 . S
O1371 Eu1331 2.612 . S
O1371 C1387 1.276 . S
O1372 Eu1320 2.432 . S
O1372 C1394 1.264 . S
O1373 Eu1331 2.339 . S
O1373 C1394 1.254 . S
O1374 Eu1331 2.563 . S
O1374 C1387 1.235 . S
O1375 Eu1331 2.419 . S
O1375 C1395 1.249 . S
C1376 O1365 1.276 . S
C1376 O1368 1.235 . S
C1377 C1379 1.393 . S
C1377 C1381 1.395 . S
C1377 C1384 1.492 . S
C1378 C1379 1.392 . S
C1378 C1380 1.386 . S
C1379 C1377 1.393 . S
C1379 C1378 1.392 . S
C1379 H1396 0.930 . S
C1380 C1378 1.386 . S
C1380 C1382 1.395 . S
C1380 H1397 0.930 . S
C1381 C1377 1.395 . S
C1381 C1382 1.379 . S
C1381 H1398 0.930 . S
C1382 C1380 1.395 . S
C1382 C1381 1.379 . S
C1382 H1399 0.930 . S
C1383 O1366 1.264 . S
C1383 O1367 1.254 . S
C1384 Eu1320 2.848 . S
C1384 O1364 1.257 . S
C1384 O1369 1.249 . S
C1384 C1377 1.492 . S
C1385 H1350 0.931 . S
C1385 C1363 1.420 . S
C1385 C1386 1.351 . S
C1386 H1348 0.930 . S
C1386 C1354 1.423 . S
C1386 C1385 1.351 . S
C1387 O1371 1.276 . S
C1387 O1374 1.235 . S
C1388 C1389 1.393 . S
C1388 C1392 1.395 . S
C1388 C1395 1.492 . S
C1389 C1388 1.393 . S
C1389 C1390 1.392 . S
C1389 H1400 0.930 . S
C1390 C1389 1.392 . S
C1390 C1391 1.386 . S
C1391 C1390 1.386 . S
C1391 C1393 1.395 . S
C1391 H1401 0.930 . S
C1392 C1388 1.395 . S
C1392 C1393 1.379 . S
C1392 H1402 0.930 . S
C1393 C1391 1.395 . S
C1393 C1392 1.379 . S
C1393 H1403 0.930 . S
C1394 O1372 1.264 . S
C1394 O1373 1.254 . S
C1395 Eu1331 2.848 . S
C1395 O1370 1.257 . S
C1395 O1375 1.249 . S
C1395 C1388 1.492 . S
H1396 C1379 0.930 . S
H1397 C1380 0.930 . S
H1398 C1381 0.930 . S
H1399 C1382 0.930 . S
H1400 C1389 0.930 . S
H1401 C1391 0.930 . S
H1402 C1392 0.930 . S
H1403 C1393 0.930 . S
C1404 C1405 1.349 . S
C1404 C1406 1.327 . S
C1404 H1429 0.950 . S
C1405 C1404 1.349 . S
C1405 C1421 1.349 . S
C1406 C1404 1.327 . S
C1406 C1425 1.429 . S
C1406 H1430 0.950 . S
C1407 C1424 1.574 . S
C1407 C1426 1.368 . S
C1407 H1431 0.949 . S
H1408 C1412 0.949 . S
C1409 C1410 1.349 . S
C1409 C1411 1.327 . S
C1409 H1432 0.950 . S
C1410 C1409 1.349 . S
C1410 C1422 1.349 . S
C1411 C1409 1.327 . S
C1411 C1427 1.429 . S
C1411 H1433 0.950 . S
C1412 H1408 0.949 . S
C1412 C1420 1.574 . S
C1412 C1428 1.368 . S
H1413 C1421 0.950 . S
H1414 C1419 0.950 . S
H1415 C1420 0.949 . S
H1416 C1422 0.950 . S
H1417 C1423 0.950 . S
H1418 C1424 0.949 . S
C1419 H1414 0.950 . S
C1419 C1421 1.327 . S
C1419 C1425 1.429 . S
C1420 C1412 1.574 . S
C1420 H1415 0.949 . S
C1420 C1426 1.368 . S
C1421 C1405 1.349 . S
C1421 H1413 0.950 . S
C1421 C1419 1.327 . S
C1422 C1410 1.349 . S
C1422 H1416 0.950 . S
C1422 C1423 1.327 . S
C1423 H1417 0.950 . S
C1423 C1422 1.327 . S
C1423 C1427 1.429 . S
C1424 C1407 1.574 . S
C1424 H1418 0.949 . S
C1424 C1428 1.368 . S
C1425 C1406 1.429 . S
C1425 C1419 1.429 . S
C1425 C1426 1.523 . S
C1426 C1407 1.368 . S
C1426 C1420 1.368 . S
C1426 C1425 1.523 . S
C1427 C1411 1.429 . S
C1427 C1423 1.429 . S
C1427 C1428 1.523 . S
C1428 C1412 1.368 . S
C1428 C1424 1.368 . S
C1428 C1427 1.523 . S
H1429 C1404 0.950 . S
H1430 C1406 0.950 . S
H1431 C1407 0.949 . S
H1432 C1409 0.950 . S
H1433 C1411 0.950 . S
C1434 C1435 1.349 . S
C1434 C1436 1.327 . S
C1434 H1459 0.950 . S
C1435 C1434 1.349 . S
C1435 C1451 1.349 . S
C1436 C1434 1.327 . S
C1436 C1455 1.429 . S
C1436 H1460 0.950 . S
C1437 C1454 1.574 . S
C1437 C1456 1.368 . S
C1437 H1461 0.949 . S
H1438 C1442 0.949 . S
C1439 C1440 1.349 . S
C1439 C1441 1.327 . S
C1439 H1462 0.950 . S
C1440 C1439 1.349 . S
C1440 C1452 1.349 . S
C1441 C1439 1.327 . S
C1441 C1457 1.429 . S
C1441 H1463 0.950 . S
C1442 H1438 0.949 . S
C1442 C1450 1.574 . S
C1442 C1458 1.368 . S
H1443 C1451 0.950 . S
H1444 C1449 0.950 . S
H1445 C1450 0.949 . S
H1446 C1452 0.950 . S
H1447 C1453 0.950 . S
H1448 C1454 0.949 . S
C1449 H1444 0.950 . S
C1449 C1451 1.327 . S
C1449 C1455 1.429 . S
C1450 C1442 1.574 . S
C1450 H1445 0.949 . S
C1450 C1456 1.368 . S
C1451 C1435 1.349 . S
C1451 H1443 0.950 . S
C1451 C1449 1.327 . S
C1452 C1440 1.349 . S
C1452 H1446 0.950 . S
C1452 C1453 1.327 . S
C1453 H1447 0.950 . S
C1453 C1452 1.327 . S
C1453 C1457 1.429 . S
C1454 C1437 1.574 . S
C1454 H1448 0.949 . S
C1454 C1458 1.368 . S
C1455 C1436 1.429 . S
C1455 C1449 1.429 . S
C1455 C1456 1.523 . S
C1456 C1437 1.368 . S
C1456 C1450 1.368 . S
C1456 C1455 1.523 . S
C1457 C1441 1.429 . S
C1457 C1453 1.429 . S
C1457 C1458 1.523 . S
C1458 C1442 1.368 . S
C1458 C1454 1.368 . S
C1458 C1457 1.523 . S
H1459 C1434 0.950 . S
H1460 C1436 0.950 . S
H1461 C1437 0.949 . S
H1462 C1439 0.950 . S
H1463 C1441 0.950 . S
C1464 C1465 1.349 . S
C1464 C1466 1.327 . S
C1464 H1489 0.950 . S
C1465 C1464 1.349 . S
C1465 C1481 1.349 . S
C1466 C1464 1.327 . S
C1466 C1485 1.429 . S
C1466 H1490 0.950 . S
C1467 C1484 1.574 . S
C1467 C1486 1.368 . S
C1467 H1491 0.949 . S
H1468 C1472 0.949 . S
C1469 C1470 1.349 . S
C1469 C1471 1.327 . S
C1469 H1492 0.950 . S
C1470 C1469 1.349 . S
C1470 C1482 1.349 . S
C1471 C1469 1.327 . S
C1471 C1487 1.429 . S
C1471 H1493 0.950 . S
C1472 H1468 0.949 . S
C1472 C1480 1.574 . S
C1472 C1488 1.368 . S
H1473 C1481 0.950 . S
H1474 C1479 0.950 . S
H1475 C1480 0.949 . S
H1476 C1482 0.950 . S
H1477 C1483 0.950 . S
H1478 C1484 0.949 . S
C1479 H1474 0.950 . S
C1479 C1481 1.327 . S
C1479 C1485 1.429 . S
C1480 C1472 1.574 . S
C1480 H1475 0.949 . S
C1480 C1486 1.368 . S
C1481 C1465 1.349 . S
C1481 H1473 0.950 . S
C1481 C1479 1.327 . S
C1482 C1470 1.349 . S
C1482 H1476 0.950 . S
C1482 C1483 1.327 . S
C1483 H1477 0.950 . S
C1483 C1482 1.327 . S
C1483 C1487 1.429 . S
C1484 C1467 1.574 . S
C1484 H1478 0.949 . S
C1484 C1488 1.368 . S
C1485 C1466 1.429 . S
C1485 C1479 1.429 . S
C1485 C1486 1.523 . S
C1486 C1467 1.368 . S
C1486 C1480 1.368 . S
C1486 C1485 1.523 . S
C1487 C1471 1.429 . S
C1487 C1483 1.429 . S
C1487 C1488 1.523 . S
C1488 C1472 1.368 . S
C1488 C1484 1.368 . S
C1488 C1487 1.523 . S
H1489 C1464 0.950 . S
H1490 C1466 0.950 . S
H1491 C1467 0.949 . S
H1492 C1469 0.950 . S
H1493 C1471 0.950 . S
C1494 C1495 1.349 . S
C1494 C1496 1.327 . S
C1494 H1519 0.950 . S
C1495 C1494 1.349 . S
C1495 C1511 1.349 . S
C1496 C1494 1.327 . S
C1496 C1515 1.429 . S
C1496 H1520 0.950 . S
C1497 C1514 1.574 . S
C1497 C1516 1.368 . S
C1497 H1521 0.949 . S
H1498 C1502 0.949 . S
C1499 C1500 1.349 . S
C1499 C1501 1.327 . S
C1499 H1522 0.950 . S
C1500 C1499 1.349 . S
C1500 C1512 1.349 . S
C1501 C1499 1.327 . S
C1501 C1517 1.429 . S
C1501 H1523 0.950 . S
C1502 H1498 0.949 . S
C1502 C1510 1.574 . S
C1502 C1518 1.368 . S
H1503 C1511 0.950 . S
H1504 C1509 0.950 . S
H1505 C1510 0.949 . S
H1506 C1512 0.950 . S
H1507 C1513 0.950 . S
H1508 C1514 0.949 . S
C1509 H1504 0.950 . S
C1509 C1511 1.327 . S
C1509 C1515 1.429 . S
C1510 C1502 1.574 . S
C1510 H1505 0.949 . S
C1510 C1516 1.368 . S
C1511 C1495 1.349 . S
C1511 H1503 0.950 . S
C1511 C1509 1.327 . S
C1512 C1500 1.349 . S
C1512 H1506 0.950 . S
C1512 C1513 1.327 . S
C1513 H1507 0.950 . S
C1513 C1512 1.327 . S
C1513 C1517 1.429 . S
C1514 C1497 1.574 . S
C1514 H1508 0.949 . S
C1514 C1518 1.368 . S
C1515 C1496 1.429 . S
C1515 C1509 1.429 . S
C1515 C1516 1.523 . S
C1516 C1497 1.368 . S
C1516 C1510 1.368 . S
C1516 C1515 1.523 . S
C1517 C1501 1.429 . S
C1517 C1513 1.429 . S
C1517 C1518 1.523 . S
C1518 C1502 1.368 . S
C1518 C1514 1.368 . S
C1518 C1517 1.523 . S
H1519 C1494 0.950 . S
H1520 C1496 0.950 . S
H1521 C1497 0.949 . S
H1522 C1499 0.950 . S
H1523 C1501 0.950 . S
C1524 C1525 1.349 . S
C1524 C1526 1.327 . S
C1524 H1549 0.950 . S
C1525 C1524 1.349 . S
C1525 C1541 1.349 . S
C1526 C1524 1.327 . S
C1526 C1545 1.429 . S
C1526 H1550 0.950 . S
C1527 C1544 1.574 . S
C1527 C1546 1.368 . S
C1527 H1551 0.949 . S
H1528 C1532 0.949 . S
C1529 C1530 1.349 . S
C1529 C1531 1.327 . S
C1529 H1552 0.950 1_556 S
C1530 C1529 1.349 . S
C1530 C1542 1.349 . S
C1531 C1529 1.327 . S
C1531 C1547 1.429 . S
C1531 H1553 0.950 . S
C1532 H1528 0.949 . S
C1532 C1540 1.574 . S
C1532 C1548 1.368 . S
H1533 C1541 0.950 . S
H1534 C1539 0.950 . S
H1535 C1540 0.949 . S
H1536 C1542 0.950 . S
H1537 C1543 0.950 . S
H1538 C1544 0.949 . S
C1539 H1534 0.950 . S
C1539 C1541 1.327 . S
C1539 C1545 1.429 . S
C1540 C1532 1.574 . S
C1540 H1535 0.949 . S
C1540 C1546 1.368 . S
C1541 C1525 1.349 . S
C1541 H1533 0.950 . S
C1541 C1539 1.327 . S
C1542 C1530 1.349 . S
C1542 H1536 0.950 . S
C1542 C1543 1.327 . S
C1543 H1537 0.950 . S
C1543 C1542 1.327 . S
C1543 C1547 1.429 . S
C1544 C1527 1.574 . S
C1544 H1538 0.949 . S
C1544 C1548 1.368 . S
C1545 C1526 1.429 . S
C1545 C1539 1.429 . S
C1545 C1546 1.523 . S
C1546 C1527 1.368 . S
C1546 C1540 1.368 . S
C1546 C1545 1.523 . S
C1547 C1531 1.429 . S
C1547 C1543 1.429 . S
C1547 C1548 1.523 . S
C1548 C1532 1.368 . S
C1548 C1544 1.368 . S
C1548 C1547 1.523 . S
H1549 C1524 0.950 . S
H1550 C1526 0.950 . S
H1551 C1527 0.949 . S
H1552 C1529 0.950 1_554 S
H1553 C1531 0.950 . S
C1554 C1555 1.349 . S
C1554 C1556 1.327 . S
C1554 H1579 0.950 . S
C1555 C1554 1.349 . S
C1555 C1571 1.349 . S
C1556 C1554 1.327 . S
C1556 C1575 1.429 . S
C1556 H1580 0.950 . S
C1557 C1574 1.574 . S
C1557 C1576 1.368 . S
C1557 H1581 0.949 . S
H1558 C1562 0.949 . S
C1559 C1560 1.349 . S
C1559 C1561 1.327 . S
C1559 H1582 0.950 . S
C1560 C1559 1.349 . S
C1560 C1572 1.349 . S
C1561 C1559 1.327 . S
C1561 C1577 1.429 . S
C1561 H1583 0.950 . S
C1562 H1558 0.949 . S
C1562 C1570 1.574 . S
C1562 C1578 1.368 . S
H1563 C1571 0.950 . S
H1564 C1569 0.950 . S
H1565 C1570 0.949 . S
H1566 C1572 0.950 1_554 S
H1567 C1573 0.950 . S
H1568 C1574 0.949 . S
C1569 H1564 0.950 . S
C1569 C1571 1.327 . S
C1569 C1575 1.429 . S
C1570 C1562 1.574 . S
C1570 H1565 0.949 . S
C1570 C1576 1.368 . S
C1571 C1555 1.349 . S
C1571 H1563 0.950 . S
C1571 C1569 1.327 . S
C1572 C1560 1.349 . S
C1572 H1566 0.950 1_556 S
C1572 C1573 1.327 . S
C1573 H1567 0.950 . S
C1573 C1572 1.327 . S
C1573 C1577 1.429 . S
C1574 C1557 1.574 . S
C1574 H1568 0.949 . S
C1574 C1578 1.368 . S
C1575 C1556 1.429 . S
C1575 C1569 1.429 . S
C1575 C1576 1.523 . S
C1576 C1557 1.368 . S
C1576 C1570 1.368 . S
C1576 C1575 1.523 . S
C1577 C1561 1.429 . S
C1577 C1573 1.429 . S
C1577 C1578 1.523 . S
C1578 C1562 1.368 . S
C1578 C1574 1.368 . S
C1578 C1577 1.523 . S
H1579 C1554 0.950 . S
H1580 C1556 0.950 . S
H1581 C1557 0.949 . S
H1582 C1559 0.950 . S
H1583 C1561 0.950 . S
C1584 C1585 1.349 . S
C1584 C1586 1.327 . S
C1584 H1609 0.950 . S
C1585 C1584 1.349 . S
C1585 C1601 1.349 . S
C1586 C1584 1.327 . S
C1586 C1605 1.429 . S
C1586 H1610 0.950 . S
C1587 C1604 1.574 . S
C1587 C1606 1.368 . S
C1587 H1611 0.949 . S
H1588 C1592 0.949 . S
C1589 C1590 1.349 . S
C1589 C1591 1.327 . S
C1589 H1612 0.918 1_556 S
C1590 C1589 1.349 . S
C1590 C1602 1.349 . S
C1591 C1589 1.327 . S
C1591 C1607 1.429 . S
C1591 H1613 0.950 . S
C1592 H1588 0.949 . S
C1592 C1600 1.574 . S
C1592 C1608 1.368 . S
H1593 C1601 0.950 . S
H1594 C1599 0.950 . S
H1595 C1600 0.949 . S
H1596 C1602 0.950 . S
H1597 C1603 0.950 . S
H1598 C1604 0.949 . S
C1599 H1594 0.950 . S
C1599 C1601 1.327 . S
C1599 C1605 1.429 . S
C1600 C1592 1.574 . S
C1600 H1595 0.949 . S
C1600 C1606 1.368 . S
C1601 C1585 1.349 . S
C1601 H1593 0.950 . S
C1601 C1599 1.327 . S
C1602 C1590 1.349 . S
C1602 H1596 0.950 . S
C1602 C1603 1.327 . S
C1603 H1597 0.950 . S
C1603 C1602 1.327 . S
C1603 C1607 1.429 . S
C1604 C1587 1.574 . S
C1604 H1598 0.949 . S
C1604 C1608 1.368 . S
C1605 C1586 1.429 . S
C1605 C1599 1.429 . S
C1605 C1606 1.523 . S
C1606 C1587 1.368 . S
C1606 C1600 1.368 . S
C1606 C1605 1.523 . S
C1607 C1591 1.429 . S
C1607 C1603 1.429 . S
C1607 C1608 1.523 . S
C1608 C1592 1.368 . S
C1608 C1604 1.368 . S
C1608 C1607 1.523 . S
H1609 C1584 0.950 . S
H1610 C1586 0.950 . S
H1611 C1587 0.949 . S
H1612 C1589 0.918 1_554 S
H1613 C1591 0.950 . S
C1614 C1615 1.349 . S
C1614 C1616 1.327 . S
C1614 H1639 0.950 . S
C1615 C1614 1.349 . S
C1615 C1631 1.349 . S
C1616 C1614 1.327 . S
C1616 C1635 1.429 . S
C1616 H1640 0.950 . S
C1617 C1634 1.574 . S
C1617 C1636 1.368 . S
C1617 H1641 0.949 . S
H1618 C1622 0.949 . S
C1619 C1620 1.349 . S
C1619 C1621 1.327 . S
C1619 H1642 0.950 . S
C1620 C1619 1.349 . S
C1620 C1632 1.349 . S
C1621 C1619 1.327 . S
C1621 C1637 1.429 . S
C1621 H1643 0.950 . S
C1622 H1618 0.949 . S
C1622 C1630 1.574 . S
C1622 C1638 1.368 . S
H1623 C1631 0.950 . S
H1624 C1629 0.950 . S
H1625 C1630 0.949 . S
H1626 C1632 0.950 1_554 S
H1627 C1633 0.950 . S
H1628 C1634 0.949 . S
C1629 H1624 0.950 . S
C1629 C1631 1.327 . S
C1629 C1635 1.429 . S
C1630 C1622 1.574 . S
C1630 H1625 0.949 . S
C1630 C1636 1.368 . S
C1631 C1615 1.349 . S
C1631 H1623 0.950 . S
C1631 C1629 1.327 . S
C1632 C1620 1.349 . S
C1632 H1626 0.950 1_556 S
C1632 C1633 1.327 . S
C1633 H1627 0.950 . S
C1633 C1632 1.327 . S
C1633 C1637 1.429 . S
C1634 C1617 1.574 . S
C1634 H1628 0.949 . S
C1634 C1638 1.368 . S
C1635 C1616 1.429 . S
C1635 C1629 1.429 . S
C1635 C1636 1.523 . S
C1636 C1617 1.368 . S
C1636 C1630 1.368 . S
C1636 C1635 1.523 . S
C1637 C1621 1.429 . S
C1637 C1633 1.429 . S
C1637 C1638 1.523 . S
C1638 C1622 1.368 . S
C1638 C1634 1.368 . S
C1638 C1637 1.523 . S
H1639 C1614 0.950 . S
H1640 C1616 0.950 . S
H1641 C1617 0.949 . S
H1642 C1619 0.950 . S
H1643 C1621 0.950 . S
C1644 C1645 1.349 . S
C1644 C1646 1.327 . S
C1644 H1669 0.950 . S
C1645 C1644 1.349 . S
C1645 C1661 1.349 . S
C1646 C1644 1.327 . S
C1646 C1665 1.429 . S
C1646 H1670 0.950 . S
C1647 C1664 1.574 . S
C1647 C1666 1.368 . S
C1647 H1671 0.949 . S
H1648 C1652 0.949 . S
C1649 C1650 1.349 . S
C1649 C1651 1.327 . S
C1649 H1672 0.950 1_556 S
C1650 C1649 1.349 . S
C1650 C1662 1.349 . S
C1651 C1649 1.327 . S
C1651 C1667 1.429 . S
C1651 H1673 0.950 . S
C1652 H1648 0.949 . S
C1652 C1660 1.574 . S
C1652 C1668 1.368 . S
H1653 C1661 0.950 . S
H1654 C1659 0.950 . S
H1655 C1660 0.949 . S
H1656 C1662 0.950 . S
H1657 C1663 0.950 . S
H1658 C1664 0.949 . S
C1659 H1654 0.950 . S
C1659 C1661 1.327 . S
C1659 C1665 1.429 . S
C1660 C1652 1.574 . S
C1660 H1655 0.949 . S
C1660 C1666 1.368 . S
C1661 C1645 1.349 . S
C1661 H1653 0.950 . S
C1661 C1659 1.327 . S
C1662 C1650 1.349 . S
C1662 H1656 0.950 . S
C1662 C1663 1.327 . S
C1663 H1657 0.950 . S
C1663 C1662 1.327 . S
C1663 C1667 1.429 . S
C1664 C1647 1.574 . S
C1664 H1658 0.949 . S
C1664 C1668 1.368 . S
C1665 C1646 1.429 . S
C1665 C1659 1.429 . S
C1665 C1666 1.523 . S
C1666 C1647 1.368 . S
C1666 C1660 1.368 . S
C1666 C1665 1.523 . S
C1667 C1651 1.429 . S
C1667 C1663 1.429 . S
C1667 C1668 1.523 . S
C1668 C1652 1.368 . S
C1668 C1664 1.368 . S
C1668 C1667 1.523 . S
H1669 C1644 0.950 . S
H1670 C1646 0.950 . S
H1671 C1647 0.949 . S
H1672 C1649 0.950 1_554 S
H1673 C1651 0.950 . S
C1674 C1675 1.349 . S
C1674 C1676 1.327 . S
C1674 H1699 0.950 . S
C1675 C1674 1.349 . S
C1675 C1691 1.349 . S
C1676 C1674 1.327 . S
C1676 C1695 1.429 . S
C1676 H1700 0.950 . S
C1677 C1694 1.574 . S
C1677 C1696 1.368 . S
C1677 H1701 0.949 . S
H1678 C1682 0.949 . S
C1679 C1680 1.349 . S
C1679 C1681 1.327 . S
C1679 H1702 0.950 . S
C1680 C1679 1.349 . S
C1680 C1692 1.349 . S
C1681 C1679 1.327 . S
C1681 C1697 1.429 . S
C1681 H1703 0.950 . S
C1682 H1678 0.949 . S
C1682 C1690 1.574 . S
C1682 C1698 1.368 . S
H1683 C1691 0.950 . S
H1684 C1689 0.950 . S
H1685 C1690 0.949 . S
H1686 C1692 0.950 . S
H1687 C1693 0.950 . S
H1688 C1694 0.949 . S
C1689 H1684 0.950 . S
C1689 C1691 1.327 . S
C1689 C1695 1.429 . S
C1690 C1682 1.574 . S
C1690 H1685 0.949 . S
C1690 C1696 1.368 . S
C1691 C1675 1.349 . S
C1691 H1683 0.950 . S
C1691 C1689 1.327 . S
C1692 C1680 1.349 . S
C1692 H1686 0.950 . S
C1692 C1693 1.327 . S
C1693 H1687 0.950 . S
C1693 C1692 1.327 . S
C1693 C1697 1.429 . S
C1694 C1677 1.574 . S
C1694 H1688 0.949 . S
C1694 C1698 1.368 . S
C1695 C1676 1.429 . S
C1695 C1689 1.429 . S
C1695 C1696 1.523 . S
C1696 C1677 1.368 . S
C1696 C1690 1.368 . S
C1696 C1695 1.523 . S
C1697 C1681 1.429 . S
C1697 C1693 1.429 . S
C1697 C1698 1.523 . S
C1698 C1682 1.368 . S
C1698 C1694 1.368 . S
C1698 C1697 1.523 . S
H1699 C1674 0.950 . S
H1700 C1676 0.950 . S
H1701 C1677 0.949 . S
H1702 C1679 0.950 . S
H1703 C1681 0.950 . S
C1704 C1705 1.349 . S
C1704 C1706 1.327 . S
C1704 H1729 0.950 . S
C1705 C1704 1.349 . S
C1705 C1721 1.349 . S
C1706 C1704 1.327 . S
C1706 C1725 1.429 . S
C1706 H1730 0.950 . S
C1707 C1724 1.574 . S
C1707 C1726 1.368 . S
C1707 H1731 0.949 . S
H1708 C1712 0.949 . S
C1709 C1710 1.349 . S
C1709 C1711 1.327 . S
C1709 H1732 0.950 . S
C1710 C1709 1.349 . S
C1710 C1722 1.349 . S
C1711 C1709 1.327 . S
C1711 C1727 1.429 . S
C1711 H1733 0.950 . S
C1712 H1708 0.949 . S
C1712 C1720 1.574 . S
C1712 C1728 1.368 . S
H1713 C1721 0.950 . S
H1714 C1719 0.950 . S
H1715 C1720 0.949 . S
H1716 C1722 0.950 . S
H1717 C1723 0.950 . S
H1718 C1724 0.949 . S
C1719 H1714 0.950 . S
C1719 C1721 1.327 . S
C1719 C1725 1.429 . S
C1720 C1712 1.574 . S
C1720 H1715 0.949 . S
C1720 C1726 1.368 . S
C1721 C1705 1.349 . S
C1721 H1713 0.950 . S
C1721 C1719 1.327 . S
C1722 C1710 1.349 . S
C1722 H1716 0.950 . S
C1722 C1723 1.327 . S
C1723 H1717 0.950 . S
C1723 C1722 1.327 . S
C1723 C1727 1.429 . S
C1724 C1707 1.574 . S
C1724 H1718 0.949 . S
C1724 C1728 1.368 . S
C1725 C1706 1.429 . S
C1725 C1719 1.429 . S
C1725 C1726 1.523 . S
C1726 C1707 1.368 . S
C1726 C1720 1.368 . S
C1726 C1725 1.523 . S
C1727 C1711 1.429 . S
C1727 C1723 1.429 . S
C1727 C1728 1.523 . S
C1728 C1712 1.368 . S
C1728 C1724 1.368 . S
C1728 C1727 1.523 . S
H1729 C1704 0.950 . S
H1730 C1706 0.950 . S
H1731 C1707 0.949 . S
H1732 C1709 0.950 . S
H1733 C1711 0.950 . S
C1734 C1735 1.349 . S
C1734 C1736 1.327 . S
C1734 H1759 0.950 . S
C1735 C1734 1.349 . S
C1735 C1751 1.349 . S
C1736 C1734 1.327 . S
C1736 C1755 1.429 . S
C1736 H1760 0.950 . S
C1737 C1754 1.574 . S
C1737 C1756 1.368 . S
C1737 H1761 0.949 . S
H1738 C1742 0.949 . S
C1739 C1740 1.349 . S
C1739 C1741 1.327 . S
C1739 H1762 0.950 . S
C1740 C1739 1.349 . S
C1740 C1752 1.349 . S
C1741 C1739 1.327 . S
C1741 C1757 1.429 . S
C1741 H1763 0.950 . S
C1742 H1738 0.949 . S
C1742 C1750 1.574 . S
C1742 C1758 1.368 . S
H1743 C1751 0.950 . S
H1744 C1749 0.950 . S
H1745 C1750 0.949 . S
H1746 C1752 0.950 . S
H1747 C1753 0.950 . S
H1748 C1754 0.949 . S
C1749 H1744 0.950 . S
C1749 C1751 1.327 . S
C1749 C1755 1.429 . S
C1750 C1742 1.574 . S
C1750 H1745 0.949 . S
C1750 C1756 1.368 . S
C1751 C1735 1.349 . S
C1751 H1743 0.950 . S
C1751 C1749 1.327 . S
C1752 C1740 1.349 . S
C1752 H1746 0.950 . S
C1752 C1753 1.327 . S
C1753 H1747 0.950 . S
C1753 C1752 1.327 . S
C1753 C1757 1.429 . S
C1754 C1737 1.574 . S
C1754 H1748 0.949 . S
C1754 C1758 1.368 . S
C1755 C1736 1.429 . S
C1755 C1749 1.429 . S
C1755 C1756 1.523 . S
C1756 C1737 1.368 . S
C1756 C1750 1.368 . S
C1756 C1755 1.523 . S
C1757 C1741 1.429 . S
C1757 C1753 1.429 . S
C1757 C1758 1.523 . S
C1758 C1742 1.368 . S
C1758 C1754 1.368 . S
C1758 C1757 1.523 . S
H1759 C1734 0.950 . S
H1760 C1736 0.950 . S
H1761 C1737 0.949 . S
H1762 C1739 0.950 . S
H1763 C1741 0.950 . S
C1764 C1765 1.349 . S
C1764 C1766 1.327 . S
C1764 H1789 0.950 . S
C1765 C1764 1.349 . S
C1765 C1781 1.349 . S
C1766 C1764 1.327 . S
C1766 C1785 1.429 1_655 S
C1766 H1790 0.950 . S
C1767 C1784 1.574 . S
C1767 C1786 1.368 . S
C1767 H1791 0.949 . S
H1768 C1772 0.949 . S
C1769 C1770 1.349 . S
C1769 C1771 1.327 . S
C1769 H1792 0.950 . S
C1770 C1769 1.349 . S
C1770 C1782 1.349 . S
C1771 C1769 1.327 . S
C1771 C1787 1.429 . S
C1771 H1793 0.950 . S
C1772 H1768 0.949 . S
C1772 C1780 1.574 . S
C1772 C1788 1.368 . S
H1773 C1781 0.950 . S
H1774 C1779 0.950 . S
H1775 C1780 0.949 . S
H1776 C1782 0.950 . S
H1777 C1783 0.950 . S
H1778 C1784 0.949 . S
C1779 H1774 0.950 . S
C1779 C1781 1.327 1_455 S
C1779 C1785 1.429 . S
C1780 C1772 1.574 . S
C1780 H1775 0.949 . S
C1780 C1786 1.368 . S
C1781 C1765 1.349 . S
C1781 H1773 0.950 . S
C1781 C1779 1.327 1_655 S
C1782 C1770 1.349 . S
C1782 H1776 0.950 . S
C1782 C1783 1.327 . S
C1783 H1777 0.950 . S
C1783 C1782 1.327 . S
C1783 C1787 1.429 . S
C1784 C1767 1.574 . S
C1784 H1778 0.949 . S
C1784 C1788 1.368 . S
C1785 C1766 1.429 1_455 S
C1785 C1779 1.429 . S
C1785 C1786 1.523 . S
C1786 C1767 1.368 . S
C1786 C1780 1.368 . S
C1786 C1785 1.523 . S
C1787 C1771 1.429 . S
C1787 C1783 1.429 . S
C1787 C1788 1.523 . S
C1788 C1772 1.368 . S
C1788 C1784 1.368 . S
C1788 C1787 1.523 . S
H1789 C1764 0.950 . S
H1790 C1766 0.950 . S
H1791 C1767 0.949 . S
H1792 C1769 0.950 . S
H1793 C1771 0.950 . S
C1794 C1795 1.349 . S
C1794 C1796 1.327 . S
C1794 H1819 0.950 . S
C1795 C1794 1.349 . S
C1795 C1811 1.349 . S
C1796 C1794 1.327 . S
C1796 C1815 1.429 . S
C1796 H1820 0.950 . S
C1797 C1814 1.574 . S
C1797 C1816 1.368 . S
C1797 H1821 0.949 . S
H1798 C1802 0.949 . S
C1799 C1800 1.349 . S
C1799 C1801 1.327 . S
C1799 H1822 0.950 . S
C1800 C1799 1.349 . S
C1800 C1812 1.349 . S
C1801 C1799 1.327 . S
C1801 C1817 1.429 . S
C1801 H1823 0.950 . S
C1802 H1798 0.949 . S
C1802 C1810 1.574 . S
C1802 C1818 1.368 . S
H1803 C1811 0.950 . S
H1804 C1809 0.950 . S
H1805 C1810 0.949 . S
H1806 C1812 0.950 . S
H1807 C1813 0.950 . S
H1808 C1814 0.949 . S
C1809 H1804 0.950 . S
C1809 C1811 1.327 . S
C1809 C1815 1.429 . S
C1810 C1802 1.574 . S
C1810 H1805 0.949 . S
C1810 C1816 1.368 . S
C1811 C1795 1.349 . S
C1811 H1803 0.950 . S
C1811 C1809 1.327 . S
C1812 C1800 1.349 . S
C1812 H1806 0.950 . S
C1812 C1813 1.327 . S
C1813 H1807 0.950 . S
C1813 C1812 1.327 . S
C1813 C1817 1.429 . S
C1814 C1797 1.574 . S
C1814 H1808 0.949 . S
C1814 C1818 1.368 . S
C1815 C1796 1.429 . S
C1815 C1809 1.429 . S
C1815 C1816 1.523 . S
C1816 C1797 1.368 . S
C1816 C1810 1.368 . S
C1816 C1815 1.523 . S
C1817 C1801 1.429 . S
C1817 C1813 1.429 . S
C1817 C1818 1.523 . S
C1818 C1802 1.368 . S
C1818 C1814 1.368 . S
C1818 C1817 1.523 . S
H1819 C1794 0.950 . S
H1820 C1796 0.950 . S
H1821 C1797 0.949 . S
H1822 C1799 0.950 . S
H1823 C1801 0.950 . S
C1824 C1825 1.349 . S
C1824 C1826 1.327 . S
C1824 H1849 0.950 . S
C1825 C1824 1.349 . S
C1825 C1841 1.349 . S
C1826 C1824 1.327 . S
C1826 C1845 1.429 . S
C1826 H1850 0.950 . S
C1827 C1844 1.574 . S
C1827 C1846 1.368 . S
C1827 H1851 0.949 . S
H1828 C1832 0.949 . S
C1829 C1830 1.349 . S
C1829 C1831 1.327 . S
C1829 H1852 0.950 . S
C1830 C1829 1.349 . S
C1830 C1842 1.349 . S
C1831 C1829 1.327 . S
C1831 C1847 1.429 . S
C1831 H1853 0.950 . S
C1832 H1828 0.949 . S
C1832 C1840 1.574 . S
C1832 C1848 1.368 . S
H1833 C1841 0.950 . S
H1834 C1839 0.950 1_565 S
H1835 C1840 0.949 . S
H1836 C1842 0.950 . S
H1837 C1843 0.950 . S
H1838 C1844 0.949 . S
C1839 H1834 0.950 1_545 S
C1839 C1841 1.327 . S
C1839 C1845 1.429 . S
C1840 C1832 1.574 . S
C1840 H1835 0.949 . S
C1840 C1846 1.368 . S
C1841 C1825 1.349 . S
C1841 H1833 0.950 . S
C1841 C1839 1.327 . S
C1842 C1830 1.349 . S
C1842 H1836 0.950 . S
C1842 C1843 1.327 . S
C1843 H1837 0.950 . S
C1843 C1842 1.327 . S
C1843 C1847 1.429 . S
C1844 C1827 1.574 . S
C1844 H1838 0.949 . S
C1844 C1848 1.368 . S
C1845 C1826 1.429 . S
C1845 C1839 1.429 . S
C1845 C1846 1.523 1_545 S
C1846 C1827 1.368 . S
C1846 C1840 1.368 . S
C1846 C1845 1.523 1_565 S
C1847 C1831 1.429 . S
C1847 C1843 1.429 . S
C1847 C1848 1.523 . S
C1848 C1832 1.368 . S
C1848 C1844 1.368 . S
C1848 C1847 1.523 . S
H1849 C1824 0.950 . S
H1850 C1826 0.950 . S
H1851 C1827 0.949 . S
H1852 C1829 0.950 . S
H1853 C1831 0.950 . S
C1854 C1855 1.349 . S
C1854 C1856 1.327 . S
C1854 H1879 0.950 . S
C1855 C1854 1.349 . S
C1855 C1871 1.349 . S
C1856 C1854 1.327 . S
C1856 C1875 1.429 . S
C1856 H1880 0.950 . S
C1857 C1874 1.574 . S
C1857 C1876 1.368 . S
C1857 H1881 0.949 . S
H1858 C1862 0.949 . S
C1859 C1860 1.349 . S
C1859 C1861 1.327 . S
C1859 H1882 0.950 . S
C1860 C1859 1.349 . S
C1860 C1872 1.349 . S
C1861 C1859 1.327 . S
C1861 C1877 1.429 . S
C1861 H1883 0.950 . S
C1862 H1858 0.949 . S
C1862 C1870 1.574 . S
C1862 C1878 1.368 . S
H1863 C1871 0.950 . S
H1864 C1869 0.950 . S
H1865 C1870 0.949 . S
H1866 C1872 0.950 . S
H1867 C1873 0.950 . S
H1868 C1874 0.949 . S
C1869 H1864 0.950 . S
C1869 C1871 1.327 . S
C1869 C1875 1.429 . S
C1870 C1862 1.574 . S
C1870 H1865 0.949 . S
C1870 C1876 1.368 . S
C1871 C1855 1.349 . S
C1871 H1863 0.950 . S
C1871 C1869 1.327 . S
C1872 C1860 1.349 . S
C1872 H1866 0.950 . S
C1872 C1873 1.327 . S
C1873 H1867 0.950 . S
C1873 C1872 1.327 . S
C1873 C1877 1.429 . S
C1874 C1857 1.574 . S
C1874 H1868 0.949 . S
C1874 C1878 1.368 . S
C1875 C1856 1.429 . S
C1875 C1869 1.429 . S
C1875 C1876 1.523 . S
C1876 C1857 1.368 . S
C1876 C1870 1.368 . S
C1876 C1875 1.523 . S
C1877 C1861 1.429 . S
C1877 C1873 1.429 . S
C1877 C1878 1.523 . S
C1878 C1862 1.368 . S
C1878 C1874 1.368 . S
C1878 C1877 1.523 . S
H1879 C1854 0.950 . S
H1880 C1856 0.950 . S
H1881 C1857 0.949 . S
H1882 C1859 0.950 . S
H1883 C1861 0.950 . S
C1884 C1885 1.349 . S
C1884 C1886 1.327 . S
C1884 H1909 0.950 . S
C1885 C1884 1.349 . S
C1885 C1901 1.349 . S
C1886 C1884 1.327 . S
C1886 C1905 1.429 . S
C1886 H1910 0.950 . S
C1887 C1904 1.574 . S
C1887 C1906 1.368 . S
C1887 H1911 0.949 . S
H1888 C1892 0.949 . S
C1889 C1890 1.349 . S
C1889 C1891 1.327 . S
C1889 H1912 0.950 . S
C1890 C1889 1.349 . S
C1890 C1902 1.349 . S
C1891 C1889 1.327 . S
C1891 C1907 1.429 . S
C1891 H1913 0.950 . S
C1892 H1888 0.949 . S
C1892 C1900 1.574 . S
C1892 C1908 1.368 . S
H1893 C1901 0.950 . S
H1894 C1899 0.950 . S
H1895 C1900 0.949 . S
H1896 C1902 0.950 . S
H1897 C1903 0.950 . S
H1898 C1904 0.949 . S
C1899 H1894 0.950 . S
C1899 C1901 1.327 . S
C1899 C1905 1.429 . S
C1900 C1892 1.574 . S
C1900 H1895 0.949 . S
C1900 C1906 1.368 . S
C1901 C1885 1.349 . S
C1901 H1893 0.950 . S
C1901 C1899 1.327 . S
C1902 C1890 1.349 . S
C1902 H1896 0.950 . S
C1902 C1903 1.327 . S
C1903 H1897 0.950 . S
C1903 C1902 1.327 . S
C1903 C1907 1.429 . S
C1904 C1887 1.574 . S
C1904 H1898 0.949 . S
C1904 C1908 1.368 . S
C1905 C1886 1.429 . S
C1905 C1899 1.429 . S
C1905 C1906 1.523 . S
C1906 C1887 1.368 . S
C1906 C1900 1.368 . S
C1906 C1905 1.523 . S
C1907 C1891 1.429 . S
C1907 C1903 1.429 . S
C1907 C1908 1.523 . S
C1908 C1892 1.368 . S
C1908 C1904 1.368 . S
C1908 C1907 1.523 . S
H1909 C1884 0.950 . S
H1910 C1886 0.950 . S
H1911 C1887 0.949 . S
H1912 C1889 0.950 . S
H1913 C1891 0.950 . S
C1914 C1915 1.349 . S
C1914 C1916 1.327 . S
C1914 H1939 0.950 . S
C1915 C1914 1.349 . S
C1915 C1931 1.349 . S
C1916 C1914 1.327 . S
C1916 C1935 1.429 . S
C1916 H1940 0.950 . S
C1917 C1934 1.574 . S
C1917 C1936 1.368 . S
C1917 H1941 0.949 . S
H1918 C1922 0.949 . S
C1919 C1920 1.349 . S
C1919 C1921 1.327 . S
C1919 H1942 0.950 . S
C1920 C1919 1.349 . S
C1920 C1932 1.349 . S
C1921 C1919 1.327 . S
C1921 C1937 1.429 . S
C1921 H1943 0.950 . S
C1922 H1918 0.949 . S
C1922 C1930 1.574 . S
C1922 C1938 1.368 . S
H1923 C1931 0.950 . S
H1924 C1929 0.950 . S
H1925 C1930 0.949 . S
H1926 C1932 0.950 . S
H1927 C1933 0.950 . S
H1928 C1934 0.949 . S
C1929 H1924 0.950 . S
C1929 C1931 1.327 . S
C1929 C1935 1.429 . S
C1930 C1922 1.574 . S
C1930 H1925 0.949 . S
C1930 C1936 1.368 . S
C1931 C1915 1.349 . S
C1931 H1923 0.950 . S
C1931 C1929 1.327 . S
C1932 C1920 1.349 . S
C1932 H1926 0.950 . S
C1932 C1933 1.327 . S
C1933 H1927 0.950 . S
C1933 C1932 1.327 . S
C1933 C1937 1.429 . S
C1934 C1917 1.574 . S
C1934 H1928 0.949 . S
C1934 C1938 1.368 . S
C1935 C1916 1.429 . S
C1935 C1929 1.429 . S
C1935 C1936 1.523 . S
C1936 C1917 1.368 . S
C1936 C1930 1.368 . S
C1936 C1935 1.523 . S
C1937 C1921 1.429 . S
C1937 C1933 1.429 . S
C1937 C1938 1.523 . S
C1938 C1922 1.368 . S
C1938 C1934 1.368 . S
C1938 C1937 1.523 . S
H1939 C1914 0.950 . S
H1940 C1916 0.950 . S
H1941 C1917 0.949 . S
H1942 C1919 0.950 . S
H1943 C1921 0.950 . S
C1944 C1945 1.349 . S
C1944 C1946 1.327 . S
C1944 H1969 0.950 . S
C1945 C1944 1.349 . S
C1945 C1961 1.349 . S
C1946 C1944 1.327 . S
C1946 C1965 1.429 . S
C1946 H1970 0.950 . S
C1947 C1964 1.574 . S
C1947 C1966 1.368 . S
C1947 H1971 0.949 . S
H1948 C1952 0.949 . S
C1949 C1950 1.349 . S
C1949 C1951 1.327 . S
C1949 H1972 0.950 . S
C1950 C1949 1.349 . S
C1950 C1962 1.349 . S
C1951 C1949 1.327 . S
C1951 C1967 1.429 . S
C1951 H1973 0.950 . S
C1952 H1948 0.949 . S
C1952 C1960 1.574 . S
C1952 C1968 1.368 . S
H1953 C1961 0.950 . S
H1954 C1959 0.950 . S
H1955 C1960 0.949 . S
H1956 C1962 0.950 . S
H1957 C1963 0.950 . S
H1958 C1964 0.949 . S
C1959 H1954 0.950 . S
C1959 C1961 1.327 . S
C1959 C1965 1.429 . S
C1960 C1952 1.574 . S
C1960 H1955 0.949 . S
C1960 C1966 1.368 . S
C1961 C1945 1.349 . S
C1961 H1953 0.950 . S
C1961 C1959 1.327 . S
C1962 C1950 1.349 . S
C1962 H1956 0.950 . S
C1962 C1963 1.327 . S
C1963 H1957 0.950 . S
C1963 C1962 1.327 . S
C1963 C1967 1.429 . S
C1964 C1947 1.574 . S
C1964 H1958 0.949 . S
C1964 C1968 1.368 . S
C1965 C1946 1.429 . S
C1965 C1959 1.429 . S
C1965 C1966 1.523 . S
C1966 C1947 1.368 . S
C1966 C1960 1.368 . S
C1966 C1965 1.523 . S
C1967 C1951 1.429 . S
C1967 C1963 1.429 . S
C1967 C1968 1.523 . S
C1968 C1952 1.368 . S
C1968 C1964 1.368 . S
C1968 C1967 1.523 . S
H1969 C1944 0.950 . S
H1970 C1946 0.950 . S
H1971 C1947 0.949 . S
H1972 C1949 0.950 . S
H1973 C1951 0.950 . S
C1974 C1975 1.349 . S
C1974 C1976 1.327 . S
C1974 H1999 0.950 . S
C1975 C1974 1.349 . S
C1975 C1991 1.349 . S
C1976 C1974 1.327 . S
C1976 C1995 1.429 . S
C1976 H2000 0.950 . S
C1977 C1994 1.574 . S
C1977 C1996 1.368 . S
C1977 H2001 0.949 . S
H1978 C1982 0.949 . S
C1979 C1980 1.349 . S
C1979 C1981 1.327 . S
C1979 H2002 0.950 . S
C1980 C1979 1.349 . S
C1980 C1992 1.349 . S
C1981 C1979 1.327 . S
C1981 C1997 1.429 . S
C1981 H2003 0.950 . S
C1982 H1978 0.949 . S
C1982 C1990 1.574 . S
C1982 C1998 1.368 . S
H1983 C1991 0.950 . S
H1984 C1989 0.950 . S
H1985 C1990 0.949 . S
H1986 C1992 0.950 . S
H1987 C1993 0.950 . S
H1988 C1994 0.949 . S
C1989 H1984 0.950 . S
C1989 C1991 1.327 . S
C1989 C1995 1.429 . S
C1990 C1982 1.574 . S
C1990 H1985 0.949 . S
C1990 C1996 1.368 . S
C1991 C1975 1.349 . S
C1991 H1983 0.950 . S
C1991 C1989 1.327 . S
C1992 C1980 1.349 . S
C1992 H1986 0.950 . S
C1992 C1993 1.327 . S
C1993 H1987 0.950 . S
C1993 C1992 1.327 . S
C1993 C1997 1.429 . S
C1994 C1977 1.574 . S
C1994 H1988 0.949 . S
C1994 C1998 1.368 . S
C1995 C1976 1.429 . S
C1995 C1989 1.429 . S
C1995 C1996 1.523 . S
C1996 C1977 1.368 . S
C1996 C1990 1.368 . S
C1996 C1995 1.523 . S
C1997 C1981 1.429 . S
C1997 C1993 1.429 . S
C1997 C1998 1.523 . S
C1998 C1982 1.368 . S
C1998 C1994 1.368 . S
C1998 C1997 1.523 . S
H1999 C1974 0.950 . S
H2000 C1976 0.950 . S
H2001 C1977 0.949 . S
H2002 C1979 0.950 . S
H2003 C1981 0.950 . S
C2004 C2005 1.349 . S
C2004 C2006 1.327 . S
C2004 H2029 0.950 . S
C2005 C2004 1.349 . S
C2005 C2021 1.349 . S
C2006 C2004 1.327 . S
C2006 C2025 1.429 . S
C2006 H2030 0.950 . S
C2007 C2024 1.574 . S
C2007 C2026 1.368 . S
C2007 H2031 0.949 . S
H2008 C2012 0.949 . S
C2009 C2010 1.349 . S
C2009 C2011 1.327 . S
C2009 H2032 0.950 . S
C2010 C2009 1.349 . S
C2010 C2022 1.349 . S
C2011 C2009 1.327 . S
C2011 C2027 1.429 . S
C2011 H2033 0.950 . S
C2012 H2008 0.949 . S
C2012 C2020 1.574 . S
C2012 C2028 1.368 . S
H2013 C2021 0.950 . S
H2014 C2019 0.950 . S
H2015 C2020 0.949 . S
H2016 C2022 0.950 . S
H2017 C2023 0.950 . S
H2018 C2024 0.949 . S
C2019 H2014 0.950 . S
C2019 C2021 1.327 . S
C2019 C2025 1.429 . S
C2020 C2012 1.574 . S
C2020 H2015 0.949 . S
C2020 C2026 1.368 . S
C2021 C2005 1.349 . S
C2021 H2013 0.950 . S
C2021 C2019 1.327 . S
C2022 C2010 1.349 . S
C2022 H2016 0.950 . S
C2022 C2023 1.327 . S
C2023 H2017 0.950 . S
C2023 C2022 1.327 . S
C2023 C2027 1.429 . S
C2024 C2007 1.574 . S
C2024 H2018 0.949 . S
C2024 C2028 1.368 . S
C2025 C2006 1.429 . S
C2025 C2019 1.429 . S
C2025 C2026 1.523 . S
C2026 C2007 1.368 . S
C2026 C2020 1.368 . S
C2026 C2025 1.523 . S
C2027 C2011 1.429 . S
C2027 C2023 1.429 . S
C2027 C2028 1.523 . S
C2028 C2012 1.368 . S
C2028 C2024 1.368 . S
C2028 C2027 1.523 . S
H2029 C2004 0.950 . S
H2030 C2006 0.950 . S
H2031 C2007 0.949 . S
H2032 C2009 0.950 . S
H2033 C2011 0.950 . S
C2034 C2035 1.349 . S
C2034 C2036 1.327 . S
C2034 H2059 0.950 . S
C2035 C2034 1.349 . S
C2035 C2051 1.349 . S
C2036 C2034 1.327 . S
C2036 C2055 1.403 1_545 S
C2036 H2060 0.950 . S
C2037 C2054 1.574 . S
C2037 C2056 1.368 . S
C2037 H2061 0.949 . S
H2038 C2042 0.949 . S
C2039 C2040 1.349 . S
C2039 C2041 1.327 . S
C2039 H2062 0.950 . S
C2040 C2039 1.349 . S
C2040 C2052 1.349 . S
C2041 C2039 1.327 . S
C2041 C2057 1.429 . S
C2041 H2063 0.950 . S
C2042 H2038 0.949 . S
C2042 C2050 1.574 . S
C2042 C2058 1.368 . S
H2043 C2051 0.950 . S
H2044 C2049 0.950 1_565 S
H2045 C2050 0.949 . S
H2046 C2052 0.950 . S
H2047 C2053 0.950 . S
H2048 C2054 0.949 . S
C2049 H2044 0.950 1_545 S
C2049 C2051 1.327 . S
C2049 C2055 1.430 1_545 S
C2050 C2042 1.574 . S
C2050 H2045 0.949 . S
C2050 C2056 1.368 . S
C2051 C2035 1.349 . S
C2051 H2043 0.950 . S
C2051 C2049 1.327 . S
C2052 C2040 1.349 . S
C2052 H2046 0.950 . S
C2052 C2053 1.327 . S
C2053 H2047 0.950 . S
C2053 C2052 1.327 . S
C2053 C2057 1.429 . S
C2054 C2037 1.574 . S
C2054 H2048 0.949 . S
C2054 C2058 1.368 . S
C2055 C2036 1.403 1_565 S
C2055 C2049 1.430 1_565 S
C2055 C2056 1.546 . S
C2056 C2037 1.368 . S
C2056 C2050 1.368 . S
C2056 C2055 1.546 . S
C2057 C2041 1.429 . S
C2057 C2053 1.429 . S
C2057 C2058 1.523 . S
C2058 C2042 1.368 . S
C2058 C2054 1.368 . S
C2058 C2057 1.523 . S
H2059 C2034 0.950 . S
H2060 C2036 0.950 . S
H2061 C2037 0.949 . S
H2062 C2039 0.950 . S
H2063 C2041 0.950 . S
C2064 C2065 1.349 . S
C2064 C2066 1.327 1_655 S
C2064 H2089 0.950 . S
C2065 C2064 1.349 . S
C2065 C2081 1.349 . S
C2066 C2064 1.327 1_455 S
C2066 C2085 1.429 . S
C2066 H2090 0.950 . S
C2067 C2084 1.574 . S
C2067 C2086 1.368 . S
C2067 H2091 0.949 . S
H2068 C2072 0.949 . S
C2069 C2070 1.349 . S
C2069 C2071 1.327 . S
C2069 H2092 0.950 . S
C2070 C2069 1.349 . S
C2070 C2082 1.349 . S
C2071 C2069 1.327 . S
C2071 C2087 1.429 . S
C2071 H2093 0.950 . S
C2072 H2068 0.949 . S
C2072 C2080 1.574 . S
C2072 C2088 1.368 . S
H2073 C2081 0.950 . S
H2074 C2079 0.950 . S
H2075 C2080 0.949 . S
H2076 C2082 0.950 . S
H2077 C2083 0.950 . S
H2078 C2084 0.949 . S
C2079 H2074 0.950 . S
C2079 C2081 1.327 . S
C2079 C2085 1.429 1_655 S
C2080 C2072 1.574 . S
C2080 H2075 0.949 . S
C2080 C2086 1.368 . S
C2081 C2065 1.349 . S
C2081 H2073 0.950 . S
C2081 C2079 1.327 . S
C2082 C2070 1.349 . S
C2082 H2076 0.950 . S
C2082 C2083 1.327 . S
C2083 H2077 0.950 . S
C2083 C2082 1.327 . S
C2083 C2087 1.429 . S
C2084 C2067 1.574 . S
C2084 H2078 0.949 . S
C2084 C2088 1.368 . S
C2085 C2066 1.429 . S
C2085 C2079 1.429 1_455 S
C2085 C2086 1.523 . S
C2086 C2067 1.368 . S
C2086 C2080 1.368 . S
C2086 C2085 1.523 . S
C2087 C2071 1.429 . S
C2087 C2083 1.429 . S
C2087 C2088 1.523 . S
C2088 C2072 1.368 . S
C2088 C2084 1.368 . S
C2088 C2087 1.523 . S
H2089 C2064 0.950 . S
H2090 C2066 0.950 . S
H2091 C2067 0.949 . S
H2092 C2069 0.950 . S
H2093 C2071 0.950 . S
C2094 C2095 1.349 . S
C2094 C2096 1.327 . S
C2094 H2119 0.950 . S
C2095 C2094 1.349 . S
C2095 C2111 1.349 . S
C2096 C2094 1.327 . S
C2096 C2115 1.429 . S
C2096 H2120 0.950 . S
C2097 C2114 1.574 . S
C2097 C2116 1.368 . S
C2097 H2121 0.949 . S
H2098 C2102 0.949 . S
C2099 C2100 1.349 . S
C2099 C2101 1.327 . S
C2099 H2122 0.950 . S
C2100 C2099 1.349 . S
C2100 C2112 1.349 . S
C2101 C2099 1.327 . S
C2101 C2117 1.429 . S
C2101 H2123 0.950 . S
C2102 H2098 0.949 . S
C2102 C2110 1.574 . S
C2102 C2118 1.368 . S
H2103 C2111 0.950 . S
H2104 C2109 0.950 . S
H2105 C2110 0.949 . S
H2106 C2112 0.950 . S
H2107 C2113 0.950 . S
H2108 C2114 0.949 . S
C2109 H2104 0.950 . S
C2109 C2111 1.327 . S
C2109 C2115 1.429 . S
C2110 C2102 1.574 . S
C2110 H2105 0.949 . S
C2110 C2116 1.368 . S
C2111 C2095 1.349 . S
C2111 H2103 0.950 . S
C2111 C2109 1.327 . S
C2112 C2100 1.349 . S
C2112 H2106 0.950 . S
C2112 C2113 1.327 . S
C2113 H2107 0.950 . S
C2113 C2112 1.327 . S
C2113 C2117 1.429 . S
C2114 C2097 1.574 . S
C2114 H2108 0.949 . S
C2114 C2118 1.368 . S
C2115 C2096 1.429 . S
C2115 C2109 1.429 . S
C2115 C2116 1.523 . S
C2116 C2097 1.368 . S
C2116 C2110 1.368 . S
C2116 C2115 1.523 . S
C2117 C2101 1.429 . S
C2117 C2113 1.429 . S
C2117 C2118 1.523 . S
C2118 C2102 1.368 . S
C2118 C2114 1.368 . S
C2118 C2117 1.523 . S
H2119 C2094 0.950 . S
H2120 C2096 0.950 . S
H2121 C2097 0.949 . S
H2122 C2099 0.950 . S
H2123 C2101 0.950 . S
C2124 C2125 1.349 . S
C2124 C2126 1.327 . S
C2124 H2149 0.950 . S
C2125 C2124 1.349 . S
C2125 C2141 1.349 . S
C2126 C2124 1.327 . S
C2126 C2145 1.429 . S
C2126 H2150 0.950 . S
C2127 C2144 1.574 . S
C2127 C2146 1.368 . S
C2127 H2151 0.949 . S
H2128 C2132 0.949 . S
C2129 C2130 1.349 . S
C2129 C2131 1.327 . S
C2129 H2152 0.950 . S
C2130 C2129 1.349 . S
C2130 C2142 1.349 . S
C2131 C2129 1.327 . S
C2131 C2147 1.429 . S
C2131 H2153 0.950 . S
C2132 H2128 0.949 . S
C2132 C2140 1.574 . S
C2132 C2148 1.368 . S
H2133 C2141 0.950 . S
H2134 C2139 0.950 . S
H2135 C2140 0.949 . S
H2136 C2142 0.950 . S
H2137 C2143 0.950 . S
H2138 C2144 0.949 . S
C2139 H2134 0.950 . S
C2139 C2141 1.327 . S
C2139 C2145 1.429 . S
C2140 C2132 1.574 . S
C2140 H2135 0.949 . S
C2140 C2146 1.368 . S
C2141 C2125 1.349 . S
C2141 H2133 0.950 . S
C2141 C2139 1.327 . S
C2142 C2130 1.349 . S
C2142 H2136 0.950 . S
C2142 C2143 1.327 . S
C2143 H2137 0.950 . S
C2143 C2142 1.327 . S
C2143 C2147 1.429 . S
C2144 C2127 1.574 . S
C2144 H2138 0.949 . S
C2144 C2148 1.368 . S
C2145 C2126 1.429 . S
C2145 C2139 1.429 . S
C2145 C2146 1.523 . S
C2146 C2127 1.368 . S
C2146 C2140 1.368 . S
C2146 C2145 1.523 . S
C2147 C2131 1.429 . S
C2147 C2143 1.429 . S
C2147 C2148 1.523 . S
C2148 C2132 1.368 . S
C2148 C2144 1.368 . S
C2148 C2147 1.523 . S
H2149 C2124 0.950 . S
H2150 C2126 0.950 . S
H2151 C2127 0.949 . S
H2152 C2129 0.950 . S
H2153 C2131 0.950 . S
C2154 C2155 1.349 . S
C2154 C2156 1.327 . S
C2154 H2179 0.950 . S
C2155 C2154 1.349 . S
C2155 C2171 1.349 . S
C2156 C2154 1.327 . S
C2156 C2175 1.429 . S
C2156 H2180 0.950 . S
C2157 C2174 1.574 . S
C2157 C2176 1.368 . S
C2157 H2181 0.949 . S
H2158 C2162 0.949 . S
C2159 C2160 1.349 . S
C2159 C2161 1.327 . S
C2159 H2182 0.950 . S
C2160 C2159 1.349 . S
C2160 C2172 1.349 . S
C2161 C2159 1.327 . S
C2161 C2177 1.429 . S
C2161 H2183 0.950 . S
C2162 H2158 0.949 . S
C2162 C2170 1.574 . S
C2162 C2178 1.368 . S
H2163 C2171 0.950 . S
H2164 C2169 0.950 . S
H2165 C2170 0.949 . S
H2166 C2172 0.950 . S
H2167 C2173 0.950 . S
H2168 C2174 0.949 . S
C2169 H2164 0.950 . S
C2169 C2171 1.327 . S
C2169 C2175 1.429 . S
C2170 C2162 1.574 . S
C2170 H2165 0.949 . S
C2170 C2176 1.368 . S
C2171 C2155 1.349 . S
C2171 H2163 0.950 . S
C2171 C2169 1.327 . S
C2172 C2160 1.349 . S
C2172 H2166 0.950 . S
C2172 C2173 1.327 . S
C2173 H2167 0.950 . S
C2173 C2172 1.327 . S
C2173 C2177 1.429 . S
C2174 C2157 1.574 . S
C2174 H2168 0.949 . S
C2174 C2178 1.368 . S
C2175 C2156 1.429 . S
C2175 C2169 1.429 . S
C2175 C2176 1.523 . S
C2176 C2157 1.368 . S
C2176 C2170 1.368 . S
C2176 C2175 1.523 . S
C2177 C2161 1.429 . S
C2177 C2173 1.429 . S
C2177 C2178 1.523 . S
C2178 C2162 1.368 . S
C2178 C2174 1.368 . S
C2178 C2177 1.523 . S
H2179 C2154 0.950 . S
H2180 C2156 0.950 . S
H2181 C2157 0.949 . S
H2182 C2159 0.950 . S
H2183 C2161 0.950 . S
C2184 C2185 1.349 . S
C2184 C2186 1.327 . S
C2184 H2209 0.950 . S
C2185 C2184 1.349 . S
C2185 C2201 1.349 . S
C2186 C2184 1.327 . S
C2186 C2205 1.429 . S
C2186 H2210 0.950 . S
C2187 C2204 1.574 . S
C2187 C2206 1.368 . S
C2187 H2211 0.949 . S
H2188 C2192 0.949 . S
C2189 C2190 1.349 . S
C2189 C2191 1.327 . S
C2189 H2212 0.950 . S
C2190 C2189 1.349 . S
C2190 C2202 1.349 . S
C2191 C2189 1.327 . S
C2191 C2207 1.429 . S
C2191 H2213 0.950 . S
C2192 H2188 0.949 . S
C2192 C2200 1.574 . S
C2192 C2208 1.368 . S
H2193 C2201 0.950 . S
H2194 C2199 0.950 . S
H2195 C2200 0.949 . S
H2196 C2202 0.950 . S
H2197 C2203 0.950 . S
H2198 C2204 0.949 . S
C2199 H2194 0.950 . S
C2199 C2201 1.327 . S
C2199 C2205 1.429 . S
C2200 C2192 1.574 . S
C2200 H2195 0.949 . S
C2200 C2206 1.368 . S
C2201 C2185 1.349 . S
C2201 H2193 0.950 . S
C2201 C2199 1.327 . S
C2202 C2190 1.349 . S
C2202 H2196 0.950 . S
C2202 C2203 1.327 . S
C2203 H2197 0.950 . S
C2203 C2202 1.327 . S
C2203 C2207 1.429 . S
C2204 C2187 1.574 . S
C2204 H2198 0.949 . S
C2204 C2208 1.368 . S
C2205 C2186 1.429 . S
C2205 C2199 1.429 . S
C2205 C2206 1.523 . S
C2206 C2187 1.368 . S
C2206 C2200 1.368 . S
C2206 C2205 1.523 . S
C2207 C2191 1.429 . S
C2207 C2203 1.429 . S
C2207 C2208 1.523 . S
C2208 C2192 1.368 . S
C2208 C2204 1.368 . S
C2208 C2207 1.523 . S
H2209 C2184 0.950 . S
H2210 C2186 0.950 . S
H2211 C2187 0.949 . S
H2212 C2189 0.950 . S
H2213 C2191 0.950 . S
C2214 C2215 1.349 . S
C2214 C2216 1.327 . S
C2214 H2239 0.950 . S
C2215 C2214 1.349 . S
C2215 C2231 1.349 . S
C2216 C2214 1.327 . S
C2216 C2235 1.429 1_565 S
C2216 H2240 0.950 . S
C2217 C2234 1.574 . S
C2217 C2236 1.368 . S
C2217 H2241 0.949 . S
H2218 C2222 0.949 . S
C2219 C2220 1.349 . S
C2219 C2221 1.327 . S
C2219 H2242 0.950 . S
C2220 C2219 1.349 . S
C2220 C2232 1.349 . S
C2221 C2219 1.327 . S
C2221 C2237 1.429 . S
C2221 H2243 0.950 . S
C2222 H2218 0.949 . S
C2222 C2230 1.574 . S
C2222 C2238 1.368 . S
H2223 C2231 0.950 . S
H2224 C2229 0.904 1_545 S
H2225 C2230 0.949 . S
H2226 C2232 0.950 . S
H2227 C2233 0.950 . S
H2228 C2234 0.949 . S
C2229 H2224 0.904 1_565 S
C2229 C2231 1.367 . S
C2229 C2235 1.436 1_565 S
C2230 C2222 1.574 . S
C2230 H2225 0.949 . S
C2230 C2236 1.368 . S
C2231 C2215 1.349 . S
C2231 H2223 0.950 . S
C2231 C2229 1.367 . S
C2232 C2220 1.349 . S
C2232 H2226 0.950 . S
C2232 C2233 1.327 . S
C2233 H2227 0.950 . S
C2233 C2232 1.327 . S
C2233 C2237 1.429 . S
C2234 C2217 1.574 . S
C2234 H2228 0.949 . S
C2234 C2238 1.368 . S
C2235 C2216 1.429 1_545 S
C2235 C2229 1.436 1_545 S
C2235 C2236 1.523 . S
C2236 C2217 1.368 . S
C2236 C2230 1.368 . S
C2236 C2235 1.523 . S
C2237 C2221 1.429 . S
C2237 C2233 1.429 . S
C2237 C2238 1.523 . S
C2238 C2222 1.368 . S
C2238 C2234 1.368 . S
C2238 C2237 1.523 . S
H2239 C2214 0.950 . S
H2240 C2216 0.950 . S
H2241 C2217 0.949 . S
H2242 C2219 0.950 . S
H2243 C2221 0.950 . S
C2244 C2245 1.349 . S
C2244 C2246 1.290 1_455 S
C2244 H2269 0.950 . S
C2245 C2244 1.349 . S
C2245 C2261 1.349 . S
C2246 C2244 1.290 1_655 S
C2246 C2265 1.460 . S
C2246 H2270 0.957 . S
C2247 C2264 1.574 . S
C2247 C2266 1.368 . S
C2247 H2271 0.949 . S
H2248 C2252 0.949 . S
C2249 C2250 1.349 . S
C2249 C2251 1.327 . S
C2249 H2272 0.950 . S
C2250 C2249 1.349 . S
C2250 C2262 1.349 . S
C2251 C2249 1.327 . S
C2251 C2267 1.429 . S
C2251 H2273 0.950 . S
C2252 H2248 0.949 . S
C2252 C2260 1.574 . S
C2252 C2268 1.368 . S
H2253 C2261 0.950 . S
H2254 C2259 0.950 . S
H2255 C2260 0.949 . S
H2256 C2262 0.950 . S
H2257 C2263 0.950 . S
H2258 C2264 0.949 . S
C2259 H2254 0.950 . S
C2259 C2261 1.327 . S
C2259 C2265 1.429 1_455 S
C2260 C2252 1.574 . S
C2260 H2255 0.949 . S
C2260 C2266 1.368 . S
C2261 C2245 1.349 . S
C2261 H2253 0.950 . S
C2261 C2259 1.327 . S
C2262 C2250 1.349 . S
C2262 H2256 0.950 . S
C2262 C2263 1.327 . S
C2263 H2257 0.950 . S
C2263 C2262 1.327 . S
C2263 C2267 1.429 . S
C2264 C2247 1.574 . S
C2264 H2258 0.949 . S
C2264 C2268 1.368 . S
C2265 C2246 1.460 . S
C2265 C2259 1.429 1_655 S
C2265 C2266 1.523 . S
C2266 C2247 1.368 . S
C2266 C2260 1.368 . S
C2266 C2265 1.523 . S
C2267 C2251 1.429 . S
C2267 C2263 1.429 . S
C2267 C2268 1.523 . S
C2268 C2252 1.368 . S
C2268 C2264 1.368 . S
C2268 C2267 1.523 . S
H2269 C2244 0.950 . S
H2270 C2246 0.957 . S
H2271 C2247 0.949 . S
H2272 C2249 0.950 . S
H2273 C2251 0.950 . S
C2274 C2275 1.349 . S
C2274 C2276 1.327 . S
C2274 H2299 0.950 . S
C2275 C2274 1.349 . S
C2275 C2291 1.349 . S
C2276 C2274 1.327 . S
C2276 C2295 1.429 . S
C2276 H2300 0.950 . S
C2277 C2294 1.574 . S
C2277 C2296 1.368 . S
C2277 H2301 0.949 . S
H2278 C2282 0.949 . S
C2279 C2280 1.349 . S
C2279 C2281 1.327 . S
C2279 H2302 0.950 . S
C2280 C2279 1.349 . S
C2280 C2292 1.349 . S
C2281 C2279 1.327 . S
C2281 C2297 1.429 . S
C2281 H2303 0.950 . S
C2282 H2278 0.949 . S
C2282 C2290 1.574 . S
C2282 C2298 1.368 . S
H2283 C2291 0.950 . S
H2284 C2289 0.950 . S
H2285 C2290 0.949 . S
H2286 C2292 0.950 . S
H2287 C2293 0.950 . S
H2288 C2294 0.949 . S
C2289 H2284 0.950 . S
C2289 C2291 1.327 . S
C2289 C2295 1.429 . S
C2290 C2282 1.574 . S
C2290 H2285 0.949 . S
C2290 C2296 1.368 . S
C2291 C2275 1.349 . S
C2291 H2283 0.950 . S
C2291 C2289 1.327 . S
C2292 C2280 1.349 . S
C2292 H2286 0.950 . S
C2292 C2293 1.327 . S
C2293 H2287 0.950 . S
C2293 C2292 1.327 . S
C2293 C2297 1.429 . S
C2294 C2277 1.574 . S
C2294 H2288 0.949 . S
C2294 C2298 1.368 . S
C2295 C2276 1.429 . S
C2295 C2289 1.429 . S
C2295 C2296 1.523 . S
C2296 C2277 1.368 . S
C2296 C2290 1.368 . S
C2296 C2295 1.523 . S
C2297 C2281 1.429 . S
C2297 C2293 1.429 . S
C2297 C2298 1.523 . S
C2298 C2282 1.368 . S
C2298 C2294 1.368 . S
C2298 C2297 1.523 . S
H2299 C2274 0.950 . S
H2300 C2276 0.950 . S
H2301 C2277 0.949 . S
H2302 C2279 0.950 . S
H2303 C2281 0.950 . S
C2304 C2305 1.349 . S
C2304 C2306 1.301 1_455 S
C2304 H2329 0.950 . S
C2305 C2304 1.349 . S
C2305 C2321 1.349 . S
C2306 C2304 1.301 1_655 S
C2306 C2325 1.436 . S
C2306 H2330 0.970 . S
C2307 C2324 1.574 . S
C2307 C2326 1.368 . S
C2307 H2331 0.949 . S
H2308 C2312 0.949 . S
C2309 C2310 1.349 . S
C2309 C2311 1.327 . S
C2309 H2332 0.950 . S
C2310 C2309 1.349 . S
C2310 C2322 1.349 . S
C2311 C2309 1.327 . S
C2311 C2327 1.429 . S
C2311 H2333 0.950 . S
C2312 H2308 0.949 . S
C2312 C2320 1.574 . S
C2312 C2328 1.368 . S
H2313 C2321 0.950 . S
H2314 C2319 0.950 . S
H2315 C2320 0.949 . S
H2316 C2322 0.950 . S
H2317 C2323 0.950 . S
H2318 C2324 0.949 . S
C2319 H2314 0.950 . S
C2319 C2321 1.327 . S
C2319 C2325 1.429 1_455 S
C2320 C2312 1.574 . S
C2320 H2315 0.949 . S
C2320 C2326 1.368 . S
C2321 C2305 1.349 . S
C2321 H2313 0.950 . S
C2321 C2319 1.327 . S
C2322 C2310 1.349 . S
C2322 H2316 0.950 . S
C2322 C2323 1.327 . S
C2323 H2317 0.950 . S
C2323 C2322 1.327 . S
C2323 C2327 1.429 . S
C2324 C2307 1.574 . S
C2324 H2318 0.949 . S
C2324 C2328 1.368 . S
C2325 C2306 1.436 . S
C2325 C2319 1.429 1_655 S
C2325 C2326 1.523 . S
C2326 C2307 1.368 . S
C2326 C2320 1.368 . S
C2326 C2325 1.523 . S
C2327 C2311 1.429 . S
C2327 C2323 1.429 . S
C2327 C2328 1.523 . S
C2328 C2312 1.368 . S
C2328 C2324 1.368 . S
C2328 C2327 1.523 . S
H2329 C2304 0.950 . S
H2330 C2306 0.970 . S
H2331 C2307 0.949 . S
H2332 C2309 0.950 . S
H2333 C2311 0.950 . S
C2334 C2335 1.349 . S
C2334 C2336 1.327 . S
C2334 H2359 0.950 . S
C2335 C2334 1.349 . S
C2335 C2351 1.349 . S
C2336 C2334 1.327 . S
C2336 C2355 1.429 . S
C2336 H2360 0.950 . S
C2337 C2354 1.574 . S
C2337 C2356 1.368 . S
C2337 H2361 0.949 . S
H2338 C2342 0.949 . S
C2339 C2340 1.349 . S
C2339 C2341 1.327 . S
C2339 H2362 0.950 . S
C2340 C2339 1.349 . S
C2340 C2352 1.349 . S
C2341 C2339 1.327 . S
C2341 C2357 1.429 . S
C2341 H2363 0.950 . S
C2342 H2338 0.949 . S
C2342 C2350 1.574 . S
C2342 C2358 1.368 . S
H2343 C2351 0.950 . S
H2344 C2349 0.950 . S
H2345 C2350 0.949 . S
H2346 C2352 0.950 . S
H2347 C2353 0.950 . S
H2348 C2354 0.949 . S
C2349 H2344 0.950 . S
C2349 C2351 1.327 . S
C2349 C2355 1.429 . S
C2350 C2342 1.574 . S
C2350 H2345 0.949 . S
C2350 C2356 1.368 . S
C2351 C2335 1.349 . S
C2351 H2343 0.950 . S
C2351 C2349 1.327 . S
C2352 C2340 1.349 . S
C2352 H2346 0.950 . S
C2352 C2353 1.327 . S
C2353 H2347 0.950 . S
C2353 C2352 1.327 . S
C2353 C2357 1.429 . S
C2354 C2337 1.574 . S
C2354 H2348 0.949 . S
C2354 C2358 1.368 . S
C2355 C2336 1.429 . S
C2355 C2349 1.429 . S
C2355 C2356 1.523 . S
C2356 C2337 1.368 . S
C2356 C2350 1.368 . S
C2356 C2355 1.523 . S
C2357 C2341 1.429 . S
C2357 C2353 1.429 . S
C2357 C2358 1.523 . S
C2358 C2342 1.368 . S
C2358 C2354 1.368 . S
C2358 C2357 1.523 . S
H2359 C2334 0.950 . S
H2360 C2336 0.950 . S
H2361 C2337 0.949 . S
H2362 C2339 0.950 . S
H2363 C2341 0.950 . S
C2364 C2365 1.349 . S
C2364 C2366 1.327 . S
C2364 H2389 0.950 . S
C2365 C2364 1.349 . S
C2365 C2381 1.349 . S
C2366 C2364 1.327 . S
C2366 C2385 1.428 1_565 S
C2366 H2390 0.950 1_565 S
C2367 C2384 1.574 . S
C2367 C2386 1.368 . S
C2367 H2391 0.949 . S
H2368 C2372 0.949 . S
C2369 C2370 1.349 . S
C2369 C2371 1.327 . S
C2369 H2392 0.950 . S
C2370 C2369 1.349 . S
C2370 C2382 1.349 . S
C2371 C2369 1.327 . S
C2371 C2387 1.429 . S
C2371 H2393 0.950 . S
C2372 H2368 0.949 . S
C2372 C2380 1.574 . S
C2372 C2388 1.368 . S
H2373 C2381 0.950 . S
H2374 C2379 0.950 . S
H2375 C2380 0.949 . S
H2376 C2382 0.950 . S
H2377 C2383 0.950 . S
H2378 C2384 0.949 . S
C2379 H2374 0.950 . S
C2379 C2381 1.327 . S
C2379 C2385 1.426 1_565 S
C2380 C2372 1.574 . S
C2380 H2375 0.949 . S
C2380 C2386 1.368 . S
C2381 C2365 1.349 . S
C2381 H2373 0.950 . S
C2381 C2379 1.327 . S
C2382 C2370 1.349 . S
C2382 H2376 0.950 . S
C2382 C2383 1.327 . S
C2383 H2377 0.950 . S
C2383 C2382 1.327 . S
C2383 C2387 1.429 . S
C2384 C2367 1.574 . S
C2384 H2378 0.949 . S
C2384 C2388 1.368 . S
C2385 C2366 1.428 1_545 S
C2385 C2379 1.426 1_545 S
C2385 C2386 1.525 . S
C2386 C2367 1.368 . S
C2386 C2380 1.368 . S
C2386 C2385 1.525 . S
C2387 C2371 1.429 . S
C2387 C2383 1.429 . S
C2387 C2388 1.523 . S
C2388 C2372 1.368 . S
C2388 C2384 1.368 . S
C2388 C2387 1.523 . S
H2389 C2364 0.950 . S
H2390 C2366 0.950 1_545 S
H2391 C2367 0.949 . S
H2392 C2369 0.950 . S
H2393 C2371 0.950 . S
C2394 C2395 1.349 . S
C2394 C2396 1.327 . S
C2394 H2419 0.950 . S
C2395 C2394 1.349 . S
C2395 C2411 1.349 . S
C2396 C2394 1.327 . S
C2396 C2415 1.429 . S
C2396 H2420 0.950 . S
C2397 C2414 1.574 . S
C2397 C2416 1.368 . S
C2397 H2421 0.949 . S
H2398 C2402 0.949 . S
C2399 C2400 1.349 . S
C2399 C2401 1.327 . S
C2399 H2422 0.950 . S
C2400 C2399 1.349 . S
C2400 C2412 1.349 . S
C2401 C2399 1.327 . S
C2401 C2417 1.429 . S
C2401 H2423 0.950 . S
C2402 H2398 0.949 . S
C2402 C2410 1.574 . S
C2402 C2418 1.368 . S
H2403 C2411 0.950 . S
H2404 C2409 0.950 . S
H2405 C2410 0.949 . S
H2406 C2412 0.950 . S
H2407 C2413 0.950 . S
H2408 C2414 0.949 . S
C2409 H2404 0.950 . S
C2409 C2411 1.327 . S
C2409 C2415 1.429 . S
C2410 C2402 1.574 . S
C2410 H2405 0.949 . S
C2410 C2416 1.368 . S
C2411 C2395 1.349 . S
C2411 H2403 0.950 . S
C2411 C2409 1.327 . S
C2412 C2400 1.349 . S
C2412 H2406 0.950 . S
C2412 C2413 1.327 . S
C2413 H2407 0.950 . S
C2413 C2412 1.327 . S
C2413 C2417 1.429 . S
C2414 C2397 1.574 . S
C2414 H2408 0.949 . S
C2414 C2418 1.368 . S
C2415 C2396 1.429 . S
C2415 C2409 1.429 . S
C2415 C2416 1.523 . S
C2416 C2397 1.368 . S
C2416 C2410 1.368 . S
C2416 C2415 1.523 . S
C2417 C2401 1.429 . S
C2417 C2413 1.429 . S
C2417 C2418 1.523 . S
C2418 C2402 1.368 . S
C2418 C2414 1.368 . S
C2418 C2417 1.523 . S
H2419 C2394 0.950 . S
H2420 C2396 0.950 . S
H2421 C2397 0.949 . S
H2422 C2399 0.950 . S
H2423 C2401 0.950 . S
C2424 C2425 1.349 . S
C2424 C2426 1.327 . S
C2424 H2449 0.950 . S
C2425 C2424 1.349 . S
C2425 C2441 1.349 . S
C2426 C2424 1.327 . S
C2426 C2445 1.429 . S
C2426 H2450 0.950 . S
C2427 C2444 1.574 . S
C2427 C2446 1.368 . S
C2427 H2451 0.949 . S
H2428 C2432 0.949 . S
C2429 C2430 1.349 . S
C2429 C2431 1.327 . S
C2429 H2452 0.950 . S
C2430 C2429 1.349 . S
C2430 C2442 1.349 . S
C2431 C2429 1.327 . S
C2431 C2447 1.429 . S
C2431 H2453 0.950 . S
C2432 H2428 0.949 . S
C2432 C2440 1.574 . S
C2432 C2448 1.368 . S
H2433 C2441 0.950 . S
H2434 C2439 0.950 . S
H2435 C2440 0.949 . S
H2436 C2442 0.950 . S
H2437 C2443 0.950 . S
H2438 C2444 0.949 . S
C2439 H2434 0.950 . S
C2439 C2441 1.327 . S
C2439 C2445 1.429 . S
C2440 C2432 1.574 . S
C2440 H2435 0.949 . S
C2440 C2446 1.368 . S
C2441 C2425 1.349 . S
C2441 H2433 0.950 . S
C2441 C2439 1.327 . S
C2442 C2430 1.349 . S
C2442 H2436 0.950 . S
C2442 C2443 1.327 . S
C2443 H2437 0.950 . S
C2443 C2442 1.327 . S
C2443 C2447 1.429 . S
C2444 C2427 1.574 . S
C2444 H2438 0.949 . S
C2444 C2448 1.368 . S
C2445 C2426 1.429 . S
C2445 C2439 1.429 . S
C2445 C2446 1.523 . S
C2446 C2427 1.368 . S
C2446 C2440 1.368 . S
C2446 C2445 1.523 . S
C2447 C2431 1.429 . S
C2447 C2443 1.429 . S
C2447 C2448 1.523 . S
C2448 C2432 1.368 . S
C2448 C2444 1.368 . S
C2448 C2447 1.523 . S
H2449 C2424 0.950 . S
H2450 C2426 0.950 . S
H2451 C2427 0.949 . S
H2452 C2429 0.950 . S
H2453 C2431 0.950 . S
C2454 C2455 1.349 . S
C2454 C2456 1.327 . S
C2454 H2479 0.950 . S
C2455 C2454 1.349 . S
C2455 C2471 1.349 . S
C2456 C2454 1.327 . S
C2456 C2475 1.429 . S
C2456 H2480 0.950 . S
C2457 C2474 1.574 . S
C2457 C2476 1.368 . S
C2457 H2481 0.949 . S
H2458 C2462 0.949 . S
C2459 C2460 1.349 . S
C2459 C2461 1.327 . S
C2459 H2482 0.950 . S
C2460 C2459 1.349 . S
C2460 C2472 1.349 . S
C2461 C2459 1.327 . S
C2461 C2477 1.429 . S
C2461 H2483 0.950 . S
C2462 H2458 0.949 . S
C2462 C2470 1.574 . S
C2462 C2478 1.368 . S
H2463 C2471 0.950 . S
H2464 C2469 0.950 . S
H2465 C2470 0.949 . S
H2466 C2472 0.950 . S
H2467 C2473 0.950 . S
H2468 C2474 0.949 . S
C2469 H2464 0.950 . S
C2469 C2471 1.327 . S
C2469 C2475 1.429 . S
C2470 C2462 1.574 . S
C2470 H2465 0.949 . S
C2470 C2476 1.368 . S
C2471 C2455 1.349 . S
C2471 H2463 0.950 . S
C2471 C2469 1.327 . S
C2472 C2460 1.349 . S
C2472 H2466 0.950 . S
C2472 C2473 1.327 . S
C2473 H2467 0.950 . S
C2473 C2472 1.327 . S
C2473 C2477 1.429 . S
C2474 C2457 1.574 . S
C2474 H2468 0.949 . S
C2474 C2478 1.368 . S
C2475 C2456 1.429 . S
C2475 C2469 1.429 . S
C2475 C2476 1.523 . S
C2476 C2457 1.368 . S
C2476 C2470 1.368 . S
C2476 C2475 1.523 . S
C2477 C2461 1.429 . S
C2477 C2473 1.429 . S
C2477 C2478 1.523 . S
C2478 C2462 1.368 . S
C2478 C2474 1.368 . S
C2478 C2477 1.523 . S
H2479 C2454 0.950 . S
H2480 C2456 0.950 . S
H2481 C2457 0.949 . S
H2482 C2459 0.950 . S
H2483 C2461 0.950 . S
C2484 C2485 1.349 . S
C2484 C2486 1.327 . S
C2484 H2509 0.950 . S
C2485 C2484 1.349 . S
C2485 C2501 1.349 . S
C2486 C2484 1.327 . S
C2486 C2505 1.429 . S
C2486 H2510 0.950 . S
C2487 C2504 1.574 . S
C2487 C2506 1.368 . S
C2487 H2511 0.949 . S
H2488 C2492 0.949 . S
C2489 C2490 1.349 . S
C2489 C2491 1.327 . S
C2489 H2512 0.950 . S
C2490 C2489 1.349 . S
C2490 C2502 1.349 . S
C2491 C2489 1.327 . S
C2491 C2507 1.429 . S
C2491 H2513 0.950 . S
C2492 H2488 0.949 . S
C2492 C2500 1.574 . S
C2492 C2508 1.368 . S
H2493 C2501 0.950 . S
H2494 C2499 0.950 . S
H2495 C2500 0.949 . S
H2496 C2502 0.950 . S
H2497 C2503 0.950 . S
H2498 C2504 0.949 . S
C2499 H2494 0.950 . S
C2499 C2501 1.327 . S
C2499 C2505 1.429 . S
C2500 C2492 1.574 . S
C2500 H2495 0.949 . S
C2500 C2506 1.368 . S
C2501 C2485 1.349 . S
C2501 H2493 0.950 . S
C2501 C2499 1.327 . S
C2502 C2490 1.349 . S
C2502 H2496 0.950 . S
C2502 C2503 1.327 . S
C2503 H2497 0.950 . S
C2503 C2502 1.327 . S
C2503 C2507 1.429 . S
C2504 C2487 1.574 . S
C2504 H2498 0.949 . S
C2504 C2508 1.368 . S
C2505 C2486 1.429 . S
C2505 C2499 1.429 . S
C2505 C2506 1.523 . S
C2506 C2487 1.368 . S
C2506 C2500 1.368 . S
C2506 C2505 1.523 . S
C2507 C2491 1.429 . S
C2507 C2503 1.429 . S
C2507 C2508 1.523 . S
C2508 C2492 1.368 . S
C2508 C2504 1.368 . S
C2508 C2507 1.523 . S
H2509 C2484 0.950 . S
H2510 C2486 0.950 . S
H2511 C2487 0.949 . S
H2512 C2489 0.950 . S
H2513 C2491 0.950 . S
C2514 C2515 1.349 . S
C2514 C2516 1.327 . S
C2514 H2539 0.950 . S
C2515 C2514 1.349 . S
C2515 C2531 1.349 . S
C2516 C2514 1.327 . S
C2516 C2535 1.429 . S
C2516 H2540 0.950 . S
C2517 C2534 1.574 . S
C2517 C2536 1.368 . S
C2517 H2541 0.949 . S
H2518 C2522 0.949 . S
C2519 C2520 1.349 . S
C2519 C2521 1.327 . S
C2519 H2542 0.950 . S
C2520 C2519 1.349 . S
C2520 C2532 1.349 . S
C2521 C2519 1.327 . S
C2521 C2537 1.429 . S
C2521 H2543 0.950 . S
C2522 H2518 0.949 . S
C2522 C2530 1.574 . S
C2522 C2538 1.368 . S
H2523 C2531 0.950 . S
H2524 C2529 0.950 . S
H2525 C2530 0.949 . S
H2526 C2532 0.950 1_655 S
H2527 C2533 0.950 1_655 S
H2528 C2534 0.949 . S
C2529 H2524 0.950 . S
C2529 C2531 1.327 . S
C2529 C2535 1.429 . S
C2530 C2522 1.574 . S
C2530 H2525 0.949 . S
C2530 C2536 1.368 . S
C2531 C2515 1.349 . S
C2531 H2523 0.950 . S
C2531 C2529 1.327 . S
C2532 C2520 1.349 . S
C2532 H2526 0.950 1_455 S
C2532 C2533 1.327 . S
C2533 H2527 0.950 1_455 S
C2533 C2532 1.327 . S
C2533 C2537 1.429 . S
C2534 C2517 1.574 . S
C2534 H2528 0.949 . S
C2534 C2538 1.368 . S
C2535 C2516 1.429 . S
C2535 C2529 1.429 . S
C2535 C2536 1.523 . S
C2536 C2517 1.368 . S
C2536 C2530 1.368 . S
C2536 C2535 1.523 . S
C2537 C2521 1.429 . S
C2537 C2533 1.429 . S
C2537 C2538 1.523 . S
C2538 C2522 1.368 . S
C2538 C2534 1.368 . S
C2538 C2537 1.523 . S
H2539 C2514 0.950 . S
H2540 C2516 0.950 . S
H2541 C2517 0.949 . S
H2542 C2519 0.950 . S
H2543 C2521 0.950 . S
C2544 C2545 1.349 . S
C2544 C2546 1.327 . S
C2544 H2569 0.950 . S
C2545 C2544 1.349 . S
C2545 C2561 1.349 . S
C2546 C2544 1.327 . S
C2546 C2565 1.429 . S
C2546 H2570 0.950 . S
C2547 C2564 1.574 . S
C2547 C2566 1.368 . S
C2547 H2571 0.949 . S
H2548 C2552 0.949 . S
C2549 C2550 1.349 . S
C2549 C2551 1.327 . S
C2549 H2572 0.950 . S
C2550 C2549 1.349 . S
C2550 C2562 1.349 . S
C2551 C2549 1.327 . S
C2551 C2567 1.429 . S
C2551 H2573 0.950 . S
C2552 H2548 0.949 . S
C2552 C2560 1.574 . S
C2552 C2568 1.368 . S
H2553 C2561 0.950 . S
H2554 C2559 0.950 . S
H2555 C2560 0.949 . S
H2556 C2562 0.950 . S
H2557 C2563 0.950 . S
H2558 C2564 0.949 . S
C2559 H2554 0.950 . S
C2559 C2561 1.327 . S
C2559 C2565 1.429 . S
C2560 C2552 1.574 . S
C2560 H2555 0.949 . S
C2560 C2566 1.368 . S
C2561 C2545 1.349 . S
C2561 H2553 0.950 . S
C2561 C2559 1.327 . S
C2562 C2550 1.349 . S
C2562 H2556 0.950 . S
C2562 C2563 1.327 . S
C2563 H2557 0.950 . S
C2563 C2562 1.327 . S
C2563 C2567 1.429 . S
C2564 C2547 1.574 . S
C2564 H2558 0.949 . S
C2564 C2568 1.368 . S
C2565 C2546 1.429 . S
C2565 C2559 1.429 . S
C2565 C2566 1.523 . S
C2566 C2547 1.368 . S
C2566 C2560 1.368 . S
C2566 C2565 1.523 . S
C2567 C2551 1.429 . S
C2567 C2563 1.429 . S
C2567 C2568 1.523 . S
C2568 C2552 1.368 . S
C2568 C2564 1.368 . S
C2568 C2567 1.523 . S
H2569 C2544 0.950 . S
H2570 C2546 0.950 . S
H2571 C2547 0.949 . S
H2572 C2549 0.950 . S
H2573 C2551 0.950 . S
C2574 C2575 1.349 . S
C2574 C2576 1.327 . S
C2574 H2599 0.950 . S
C2575 C2574 1.349 . S
C2575 C2591 1.349 . S
C2576 C2574 1.327 . S
C2576 C2595 1.429 . S
C2576 H2600 0.950 . S
C2577 C2594 1.574 . S
C2577 C2596 1.368 . S
C2577 H2601 0.949 . S
H2578 C2582 0.949 . S
C2579 C2580 1.349 . S
C2579 C2581 1.327 . S
C2579 H2602 0.950 . S
C2580 C2579 1.349 . S
C2580 C2592 1.349 . S
C2581 C2579 1.327 . S
C2581 C2597 1.429 . S
C2581 H2603 0.950 . S
C2582 H2578 0.949 . S
C2582 C2590 1.574 . S
C2582 C2598 1.368 . S
H2583 C2591 0.950 . S
H2584 C2589 0.950 . S
H2585 C2590 0.949 . S
H2586 C2592 0.950 . S
H2587 C2593 0.950 . S
H2588 C2594 0.949 . S
C2589 H2584 0.950 . S
C2589 C2591 1.327 . S
C2589 C2595 1.429 . S
C2590 C2582 1.574 . S
C2590 H2585 0.949 . S
C2590 C2596 1.368 . S
C2591 C2575 1.349 . S
C2591 H2583 0.950 . S
C2591 C2589 1.327 . S
C2592 C2580 1.349 . S
C2592 H2586 0.950 . S
C2592 C2593 1.327 . S
C2593 H2587 0.950 . S
C2593 C2592 1.327 . S
C2593 C2597 1.429 . S
C2594 C2577 1.574 . S
C2594 H2588 0.949 . S
C2594 C2598 1.368 . S
C2595 C2576 1.429 . S
C2595 C2589 1.429 . S
C2595 C2596 1.523 . S
C2596 C2577 1.368 . S
C2596 C2590 1.368 . S
C2596 C2595 1.523 . S
C2597 C2581 1.429 . S
C2597 C2593 1.429 . S
C2597 C2598 1.523 . S
C2598 C2582 1.368 . S
C2598 C2594 1.368 . S
C2598 C2597 1.523 . S
H2599 C2574 0.950 . S
H2600 C2576 0.950 . S
H2601 C2577 0.949 . S
H2602 C2579 0.950 . S
H2603 C2581 0.950 . S
C2604 C2605 1.349 . S
C2604 C2606 1.327 . S
C2604 H2629 0.950 . S
C2605 C2604 1.349 . S
C2605 C2621 1.349 . S
C2606 C2604 1.327 . S
C2606 C2625 1.429 . S
C2606 H2630 0.950 . S
C2607 C2624 1.574 . S
C2607 C2626 1.368 . S
C2607 H2631 0.949 . S
H2608 C2612 0.949 . S
C2609 C2610 1.349 . S
C2609 C2611 1.327 . S
C2609 H2632 0.950 . S
C2610 C2609 1.349 . S
C2610 C2622 1.349 . S
C2611 C2609 1.327 . S
C2611 C2627 1.429 . S
C2611 H2633 0.950 . S
C2612 H2608 0.949 . S
C2612 C2620 1.574 . S
C2612 C2628 1.368 . S
H2613 C2621 0.950 . S
H2614 C2619 0.950 . S
H2615 C2620 0.949 . S
H2616 C2622 0.950 . S
H2617 C2623 0.950 . S
H2618 C2624 0.949 . S
C2619 H2614 0.950 . S
C2619 C2621 1.327 . S
C2619 C2625 1.429 . S
C2620 C2612 1.574 . S
C2620 H2615 0.949 . S
C2620 C2626 1.368 . S
C2621 C2605 1.349 . S
C2621 H2613 0.950 . S
C2621 C2619 1.327 . S
C2622 C2610 1.349 . S
C2622 H2616 0.950 . S
C2622 C2623 1.327 . S
C2623 H2617 0.950 . S
C2623 C2622 1.327 . S
C2623 C2627 1.429 . S
C2624 C2607 1.574 . S
C2624 H2618 0.949 . S
C2624 C2628 1.368 . S
C2625 C2606 1.429 . S
C2625 C2619 1.429 . S
C2625 C2626 1.523 . S
C2626 C2607 1.368 . S
C2626 C2620 1.368 . S
C2626 C2625 1.523 . S
C2627 C2611 1.429 . S
C2627 C2623 1.429 . S
C2627 C2628 1.523 . S
C2628 C2612 1.368 . S
C2628 C2624 1.368 . S
C2628 C2627 1.523 . S
H2629 C2604 0.950 . S
H2630 C2606 0.950 . S
H2631 C2607 0.949 . S
H2632 C2609 0.950 . S
H2633 C2611 0.950 . S
C2634 C2635 1.349 . S
C2634 C2636 1.327 . S
C2634 H2659 0.950 . S
C2635 C2634 1.349 . S
C2635 C2651 1.349 . S
C2636 C2634 1.327 . S
C2636 C2655 1.429 . S
C2636 H2660 0.950 . S
C2637 C2654 1.574 . S
C2637 C2656 1.368 . S
C2637 H2661 0.949 . S
H2638 C2642 0.949 . S
C2639 C2640 1.349 . S
C2639 C2641 1.327 . S
C2639 H2662 0.950 . S
C2640 C2639 1.349 . S
C2640 C2652 1.349 . S
C2641 C2639 1.327 . S
C2641 C2657 1.429 . S
C2641 H2663 0.950 . S
C2642 H2638 0.949 . S
C2642 C2650 1.574 . S
C2642 C2658 1.368 . S
H2643 C2651 0.950 . S
H2644 C2649 0.950 . S
H2645 C2650 0.949 . S
H2646 C2652 0.950 . S
H2647 C2653 0.950 . S
H2648 C2654 0.949 . S
C2649 H2644 0.950 . S
C2649 C2651 1.327 . S
C2649 C2655 1.429 . S
C2650 C2642 1.574 . S
C2650 H2645 0.949 . S
C2650 C2656 1.368 . S
C2651 C2635 1.349 . S
C2651 H2643 0.950 . S
C2651 C2649 1.327 . S
C2652 C2640 1.349 . S
C2652 H2646 0.950 . S
C2652 C2653 1.327 . S
C2653 H2647 0.950 . S
C2653 C2652 1.327 . S
C2653 C2657 1.429 . S
C2654 C2637 1.574 . S
C2654 H2648 0.949 . S
C2654 C2658 1.368 . S
C2655 C2636 1.429 . S
C2655 C2649 1.429 . S
C2655 C2656 1.523 . S
C2656 C2637 1.368 . S
C2656 C2650 1.368 . S
C2656 C2655 1.523 . S
C2657 C2641 1.429 . S
C2657 C2653 1.429 . S
C2657 C2658 1.523 . S
C2658 C2642 1.368 . S
C2658 C2654 1.368 . S
C2658 C2657 1.523 . S
H2659 C2634 0.950 . S
H2660 C2636 0.950 . S
H2661 C2637 0.949 . S
H2662 C2639 0.950 . S
H2663 C2641 0.950 . S
C2664 C2665 1.349 . S
C2664 C2666 1.327 . S
C2664 H2689 0.950 . S
C2665 C2664 1.349 . S
C2665 C2681 1.349 . S
C2666 C2664 1.327 . S
C2666 C2685 1.429 . S
C2666 H2690 0.950 . S
C2667 C2684 1.574 . S
C2667 C2686 1.368 . S
C2667 H2691 0.949 . S
H2668 C2672 0.949 . S
C2669 C2670 1.349 . S
C2669 C2671 1.327 . S
C2669 H2692 0.950 . S
C2670 C2669 1.349 . S
C2670 C2682 1.349 . S
C2671 C2669 1.327 . S
C2671 C2687 1.429 . S
C2671 H2693 0.950 . S
C2672 H2668 0.949 . S
C2672 C2680 1.574 . S
C2672 C2688 1.368 . S
H2673 C2681 0.950 . S
H2674 C2679 0.950 . S
H2675 C2680 0.949 . S
H2676 C2682 0.950 . S
H2677 C2683 0.950 . S
H2678 C2684 0.949 . S
C2679 H2674 0.950 . S
C2679 C2681 1.327 . S
C2679 C2685 1.429 . S
C2680 C2672 1.574 . S
C2680 H2675 0.949 . S
C2680 C2686 1.368 . S
C2681 C2665 1.349 . S
C2681 H2673 0.950 . S
C2681 C2679 1.327 . S
C2682 C2670 1.349 . S
C2682 H2676 0.950 . S
C2682 C2683 1.327 . S
C2683 H2677 0.950 . S
C2683 C2682 1.327 . S
C2683 C2687 1.429 . S
C2684 C2667 1.574 . S
C2684 H2678 0.949 . S
C2684 C2688 1.368 . S
C2685 C2666 1.429 . S
C2685 C2679 1.429 . S
C2685 C2686 1.523 . S
C2686 C2667 1.368 . S
C2686 C2680 1.368 . S
C2686 C2685 1.523 . S
C2687 C2671 1.429 . S
C2687 C2683 1.429 . S
C2687 C2688 1.523 . S
C2688 C2672 1.368 . S
C2688 C2684 1.368 . S
C2688 C2687 1.523 . S
H2689 C2664 0.950 . S
H2690 C2666 0.950 . S
H2691 C2667 0.949 . S
H2692 C2669 0.950 . S
H2693 C2671 0.950 . S
C2694 C2695 1.349 . S
C2694 C2696 1.327 . S
C2694 H2719 0.950 . S
C2695 C2694 1.349 . S
C2695 C2711 1.349 . S
C2696 C2694 1.327 . S
C2696 C2715 1.429 . S
C2696 H2720 0.950 . S
C2697 C2714 1.574 . S
C2697 C2716 1.368 . S
C2697 H2721 0.949 . S
H2698 C2702 0.949 . S
C2699 C2700 1.349 . S
C2699 C2701 1.327 . S
C2699 H2722 0.950 . S
C2700 C2699 1.349 . S
C2700 C2712 1.349 . S
C2701 C2699 1.327 . S
C2701 C2717 1.429 . S
C2701 H2723 0.950 . S
C2702 H2698 0.949 . S
C2702 C2710 1.574 . S
C2702 C2718 1.368 . S
H2703 C2711 0.950 . S
H2704 C2709 0.950 . S
H2705 C2710 0.949 . S
H2706 C2712 0.950 . S
H2707 C2713 0.950 . S
H2708 C2714 0.949 . S
C2709 H2704 0.950 . S
C2709 C2711 1.327 . S
C2709 C2715 1.429 . S
C2710 C2702 1.574 . S
C2710 H2705 0.949 . S
C2710 C2716 1.368 . S
C2711 C2695 1.349 . S
C2711 H2703 0.950 . S
C2711 C2709 1.327 . S
C2712 C2700 1.349 . S
C2712 H2706 0.950 . S
C2712 C2713 1.327 . S
C2713 H2707 0.950 . S
C2713 C2712 1.327 . S
C2713 C2717 1.429 . S
C2714 C2697 1.574 . S
C2714 H2708 0.949 . S
C2714 C2718 1.368 . S
C2715 C2696 1.429 . S
C2715 C2709 1.429 . S
C2715 C2716 1.523 . S
C2716 C2697 1.368 . S
C2716 C2710 1.368 . S
C2716 C2715 1.523 . S
C2717 C2701 1.429 . S
C2717 C2713 1.429 . S
C2717 C2718 1.523 . S
C2718 C2702 1.368 . S
C2718 C2714 1.368 . S
C2718 C2717 1.523 . S
H2719 C2694 0.950 . S
H2720 C2696 0.950 . S
H2721 C2697 0.949 . S
H2722 C2699 0.950 . S
H2723 C2701 0.950 . S
C2724 C2725 1.349 . S
C2724 C2726 1.327 . S
C2724 H2749 0.950 . S
C2725 C2724 1.349 . S
C2725 C2741 1.349 . S
C2726 C2724 1.327 . S
C2726 C2745 1.429 . S
C2726 H2750 0.950 . S
C2727 C2744 1.574 . S
C2727 C2746 1.368 . S
C2727 H2751 0.949 . S
H2728 C2732 0.949 . S
C2729 C2730 1.349 . S
C2729 C2731 1.327 . S
C2729 H2752 0.950 . S
C2730 C2729 1.349 . S
C2730 C2742 1.349 . S
C2731 C2729 1.327 . S
C2731 C2747 1.429 . S
C2731 H2753 0.950 . S
C2732 H2728 0.949 . S
C2732 C2740 1.574 . S
C2732 C2748 1.368 . S
H2733 C2741 0.950 . S
H2734 C2739 0.950 . S
H2735 C2740 0.949 . S
H2736 C2742 0.950 . S
H2737 C2743 0.950 . S
H2738 C2744 0.949 . S
C2739 H2734 0.950 . S
C2739 C2741 1.327 . S
C2739 C2745 1.429 . S
C2740 C2732 1.574 . S
C2740 H2735 0.949 . S
C2740 C2746 1.368 . S
C2741 C2725 1.349 . S
C2741 H2733 0.950 . S
C2741 C2739 1.327 . S
C2742 C2730 1.349 . S
C2742 H2736 0.950 . S
C2742 C2743 1.327 . S
C2743 H2737 0.950 . S
C2743 C2742 1.327 . S
C2743 C2747 1.429 . S
C2744 C2727 1.574 . S
C2744 H2738 0.949 . S
C2744 C2748 1.368 . S
C2745 C2726 1.429 . S
C2745 C2739 1.429 . S
C2745 C2746 1.523 . S
C2746 C2727 1.368 . S
C2746 C2740 1.368 . S
C2746 C2745 1.523 . S
C2747 C2731 1.429 . S
C2747 C2743 1.429 . S
C2747 C2748 1.523 . S
C2748 C2732 1.368 . S
C2748 C2744 1.368 . S
C2748 C2747 1.523 . S
H2749 C2724 0.950 . S
H2750 C2726 0.950 . S
H2751 C2727 0.949 . S
H2752 C2729 0.950 . S
H2753 C2731 0.950 . S
C2754 C2755 1.349 . S
C2754 C2756 1.327 . S
C2754 H2779 0.950 . S
C2755 C2754 1.349 . S
C2755 C2771 1.349 . S
C2756 C2754 1.327 . S
C2756 C2775 1.429 . S
C2756 H2780 0.950 . S
C2757 C2774 1.574 . S
C2757 C2776 1.368 . S
C2757 H2781 0.949 . S
H2758 C2762 0.949 . S
C2759 C2760 1.349 . S
C2759 C2761 1.327 . S
C2759 H2782 0.950 . S
C2760 C2759 1.349 . S
C2760 C2772 1.349 . S
C2761 C2759 1.327 . S
C2761 C2777 1.429 . S
C2761 H2783 0.950 . S
C2762 H2758 0.949 . S
C2762 C2770 1.574 . S
C2762 C2778 1.368 . S
H2763 C2771 0.950 . S
H2764 C2769 0.950 . S
H2765 C2770 0.949 . S
H2766 C2772 0.950 . S
H2767 C2773 0.950 . S
H2768 C2774 0.949 . S
C2769 H2764 0.950 . S
C2769 C2771 1.327 . S
C2769 C2775 1.429 . S
C2770 C2762 1.574 . S
C2770 H2765 0.949 . S
C2770 C2776 1.368 . S
C2771 C2755 1.349 . S
C2771 H2763 0.950 . S
C2771 C2769 1.327 . S
C2772 C2760 1.349 . S
C2772 H2766 0.950 . S
C2772 C2773 1.327 . S
C2773 H2767 0.950 . S
C2773 C2772 1.327 . S
C2773 C2777 1.429 . S
C2774 C2757 1.574 . S
C2774 H2768 0.949 . S
C2774 C2778 1.368 . S
C2775 C2756 1.429 . S
C2775 C2769 1.429 . S
C2775 C2776 1.523 . S
C2776 C2757 1.368 . S
C2776 C2770 1.368 . S
C2776 C2775 1.523 . S
C2777 C2761 1.429 . S
C2777 C2773 1.429 . S
C2777 C2778 1.523 . S
C2778 C2762 1.368 . S
C2778 C2774 1.368 . S
C2778 C2777 1.523 . S
H2779 C2754 0.950 . S
H2780 C2756 0.950 . S
H2781 C2757 0.949 . S
H2782 C2759 0.950 . S
H2783 C2761 0.950 . S
C2784 C2785 1.349 . S
C2784 C2786 1.327 . S
C2784 H2809 0.950 . S
C2785 C2784 1.349 . S
C2785 C2801 1.349 . S
C2786 C2784 1.327 . S
C2786 C2805 1.429 . S
C2786 H2810 0.950 . S
C2787 C2804 1.574 . S
C2787 C2806 1.368 . S
C2787 H2811 0.949 . S
H2788 C2792 0.949 . S
C2789 C2790 1.349 . S
C2789 C2791 1.327 . S
C2789 H2812 0.950 . S
C2790 C2789 1.349 . S
C2790 C2802 1.349 . S
C2791 C2789 1.327 . S
C2791 C2807 1.429 . S
C2791 H2813 0.950 . S
C2792 H2788 0.949 . S
C2792 C2800 1.574 . S
C2792 C2808 1.368 . S
H2793 C2801 0.950 . S
H2794 C2799 0.950 . S
H2795 C2800 0.949 . S
H2796 C2802 0.950 . S
H2797 C2803 0.950 . S
H2798 C2804 0.949 . S
C2799 H2794 0.950 . S
C2799 C2801 1.327 . S
C2799 C2805 1.429 . S
C2800 C2792 1.574 . S
C2800 H2795 0.949 . S
C2800 C2806 1.368 . S
C2801 C2785 1.349 . S
C2801 H2793 0.950 . S
C2801 C2799 1.327 . S
C2802 C2790 1.349 . S
C2802 H2796 0.950 . S
C2802 C2803 1.327 . S
C2803 H2797 0.950 . S
C2803 C2802 1.327 . S
C2803 C2807 1.429 . S
C2804 C2787 1.574 . S
C2804 H2798 0.949 . S
C2804 C2808 1.368 . S
C2805 C2786 1.429 . S
C2805 C2799 1.429 . S
C2805 C2806 1.523 . S
C2806 C2787 1.368 . S
C2806 C2800 1.368 . S
C2806 C2805 1.523 . S
C2807 C2791 1.429 . S
C2807 C2803 1.429 . S
C2807 C2808 1.523 . S
C2808 C2792 1.368 . S
C2808 C2804 1.368 . S
C2808 C2807 1.523 . S
H2809 C2784 0.950 . S
H2810 C2786 0.950 . S
H2811 C2787 0.949 . S
H2812 C2789 0.950 . S
H2813 C2791 0.950 . S
C2814 C2815 1.349 . S
C2814 C2816 1.327 . S
C2814 H2839 0.950 . S
C2815 C2814 1.349 . S
C2815 C2831 1.349 . S
C2816 C2814 1.327 . S
C2816 C2835 1.429 . S
C2816 H2840 0.950 . S
C2817 C2834 1.574 . S
C2817 C2836 1.368 . S
C2817 H2841 0.949 . S
H2818 C2822 0.949 . S
C2819 C2820 1.349 . S
C2819 C2821 1.327 . S
C2819 H2842 0.950 . S
C2820 C2819 1.349 . S
C2820 C2832 1.349 . S
C2821 C2819 1.327 . S
C2821 C2837 1.429 . S
C2821 H2843 0.950 . S
C2822 H2818 0.949 . S
C2822 C2830 1.574 . S
C2822 C2838 1.368 . S
H2823 C2831 0.950 . S
H2824 C2829 0.950 . S
H2825 C2830 0.949 . S
H2826 C2832 0.950 . S
H2827 C2833 0.950 . S
H2828 C2834 0.949 . S
C2829 H2824 0.950 . S
C2829 C2831 1.327 . S
C2829 C2835 1.429 . S
C2830 C2822 1.574 . S
C2830 H2825 0.949 . S
C2830 C2836 1.368 . S
C2831 C2815 1.349 . S
C2831 H2823 0.950 . S
C2831 C2829 1.327 . S
C2832 C2820 1.349 . S
C2832 H2826 0.950 . S
C2832 C2833 1.327 . S
C2833 H2827 0.950 . S
C2833 C2832 1.327 . S
C2833 C2837 1.429 . S
C2834 C2817 1.574 . S
C2834 H2828 0.949 . S
C2834 C2838 1.368 . S
C2835 C2816 1.429 . S
C2835 C2829 1.429 . S
C2835 C2836 1.523 . S
C2836 C2817 1.368 . S
C2836 C2830 1.368 . S
C2836 C2835 1.523 . S
C2837 C2821 1.429 . S
C2837 C2833 1.429 . S
C2837 C2838 1.523 . S
C2838 C2822 1.368 . S
C2838 C2834 1.368 . S
C2838 C2837 1.523 . S
H2839 C2814 0.950 . S
H2840 C2816 0.950 . S
H2841 C2817 0.949 . S
H2842 C2819 0.950 . S
H2843 C2821 0.950 . S
C2844 C2845 1.349 . S
C2844 C2846 1.327 . S
C2844 H2869 0.950 . S
C2845 C2844 1.349 . S
C2845 C2861 1.349 . S
C2846 C2844 1.327 . S
C2846 C2865 1.429 . S
C2846 H2870 0.950 . S
C2847 C2864 1.574 . S
C2847 C2866 1.368 . S
C2847 H2871 0.949 . S
H2848 C2852 0.949 . S
C2849 C2850 1.349 . S
C2849 C2851 1.327 . S
C2849 H2872 0.950 . S
C2850 C2849 1.349 . S
C2850 C2862 1.349 . S
C2851 C2849 1.327 . S
C2851 C2867 1.429 . S
C2851 H2873 0.950 . S
C2852 H2848 0.949 . S
C2852 C2860 1.574 . S
C2852 C2868 1.368 . S
H2853 C2861 0.950 . S
H2854 C2859 0.950 . S
H2855 C2860 0.949 . S
H2856 C2862 0.950 . S
H2857 C2863 0.950 . S
H2858 C2864 0.949 . S
C2859 H2854 0.950 . S
C2859 C2861 1.327 . S
C2859 C2865 1.429 . S
C2860 C2852 1.574 . S
C2860 H2855 0.949 . S
C2860 C2866 1.368 . S
C2861 C2845 1.349 . S
C2861 H2853 0.950 . S
C2861 C2859 1.327 . S
C2862 C2850 1.349 . S
C2862 H2856 0.950 . S
C2862 C2863 1.327 . S
C2863 H2857 0.950 . S
C2863 C2862 1.327 . S
C2863 C2867 1.429 . S
C2864 C2847 1.574 . S
C2864 H2858 0.949 . S
C2864 C2868 1.368 . S
C2865 C2846 1.429 . S
C2865 C2859 1.429 . S
C2865 C2866 1.523 . S
C2866 C2847 1.368 . S
C2866 C2860 1.368 . S
C2866 C2865 1.523 . S
C2867 C2851 1.429 . S
C2867 C2863 1.429 . S
C2867 C2868 1.523 . S
C2868 C2852 1.368 . S
C2868 C2864 1.368 . S
C2868 C2867 1.523 . S
H2869 C2844 0.950 . S
H2870 C2846 0.950 . S
H2871 C2847 0.949 . S
H2872 C2849 0.950 . S
H2873 C2851 0.950 . S
C2874 C2875 1.349 . S
C2874 C2876 1.327 . S
C2874 H2899 0.950 . S
C2875 C2874 1.349 . S
C2875 C2891 1.349 . S
C2876 C2874 1.327 . S
C2876 C2895 1.429 . S
C2876 H2900 0.950 . S
C2877 C2894 1.574 . S
C2877 C2896 1.368 . S
C2877 H2901 0.949 . S
H2878 C2882 0.949 . S
C2879 C2880 1.349 . S
C2879 C2881 1.327 . S
C2879 H2902 0.950 . S
C2880 C2879 1.349 . S
C2880 C2892 1.349 . S
C2881 C2879 1.327 . S
C2881 C2897 1.429 . S
C2881 H2903 0.950 . S
C2882 H2878 0.949 . S
C2882 C2890 1.574 . S
C2882 C2898 1.368 . S
H2883 C2891 0.950 . S
H2884 C2889 0.950 . S
H2885 C2890 0.949 . S
H2886 C2892 0.950 . S
H2887 C2893 0.950 . S
H2888 C2894 0.949 . S
C2889 H2884 0.950 . S
C2889 C2891 1.327 . S
C2889 C2895 1.429 . S
C2890 C2882 1.574 . S
C2890 H2885 0.949 . S
C2890 C2896 1.368 . S
C2891 C2875 1.349 . S
C2891 H2883 0.950 . S
C2891 C2889 1.327 . S
C2892 C2880 1.349 . S
C2892 H2886 0.950 . S
C2892 C2893 1.327 . S
C2893 H2887 0.950 . S
C2893 C2892 1.327 . S
C2893 C2897 1.429 . S
C2894 C2877 1.574 . S
C2894 H2888 0.949 . S
C2894 C2898 1.368 . S
C2895 C2876 1.429 . S
C2895 C2889 1.429 . S
C2895 C2896 1.523 . S
C2896 C2877 1.368 . S
C2896 C2890 1.368 . S
C2896 C2895 1.523 . S
C2897 C2881 1.429 . S
C2897 C2893 1.429 . S
C2897 C2898 1.523 . S
C2898 C2882 1.368 . S
C2898 C2894 1.368 . S
C2898 C2897 1.523 . S
H2899 C2874 0.950 . S
H2900 C2876 0.950 . S
H2901 C2877 0.949 . S
H2902 C2879 0.950 . S
H2903 C2881 0.950 . S
C2904 C2905 1.349 . S
C2904 C2906 1.327 . S
C2904 H2929 0.950 . S
C2905 C2904 1.349 . S
C2905 C2921 1.349 . S
C2906 C2904 1.327 . S
C2906 C2925 1.429 . S
C2906 H2930 0.950 . S
C2907 C2924 1.574 . S
C2907 C2926 1.368 . S
C2907 H2931 0.949 . S
H2908 C2912 0.949 . S
C2909 C2910 1.349 . S
C2909 C2911 1.327 . S
C2909 H2932 0.950 . S
C2910 C2909 1.349 . S
C2910 C2922 1.349 . S
C2911 C2909 1.327 . S
C2911 C2927 1.429 . S
C2911 H2933 0.950 . S
C2912 H2908 0.949 . S
C2912 C2920 1.574 . S
C2912 C2928 1.368 . S
H2913 C2921 0.950 . S
H2914 C2919 0.950 . S
H2915 C2920 0.949 . S
H2916 C2922 0.950 . S
H2917 C2923 0.950 . S
H2918 C2924 0.949 . S
C2919 H2914 0.950 . S
C2919 C2921 1.327 . S
C2919 C2925 1.429 . S
C2920 C2912 1.574 . S
C2920 H2915 0.949 . S
C2920 C2926 1.368 . S
C2921 C2905 1.349 . S
C2921 H2913 0.950 . S
C2921 C2919 1.327 . S
C2922 C2910 1.349 . S
C2922 H2916 0.950 . S
C2922 C2923 1.327 . S
C2923 H2917 0.950 . S
C2923 C2922 1.327 . S
C2923 C2927 1.429 . S
C2924 C2907 1.574 . S
C2924 H2918 0.949 . S
C2924 C2928 1.368 . S
C2925 C2906 1.429 . S
C2925 C2919 1.429 . S
C2925 C2926 1.523 . S
C2926 C2907 1.368 . S
C2926 C2920 1.368 . S
C2926 C2925 1.523 . S
C2927 C2911 1.429 . S
C2927 C2923 1.429 . S
C2927 C2928 1.523 . S
C2928 C2912 1.368 . S
C2928 C2924 1.368 . S
C2928 C2927 1.523 . S
H2929 C2904 0.950 . S
H2930 C2906 0.950 . S
H2931 C2907 0.949 . S
H2932 C2909 0.950 . S
H2933 C2911 0.950 . S
C2934 C2935 1.349 . S
C2934 C2936 1.327 . S
C2934 H2959 0.950 . S
C2935 C2934 1.349 . S
C2935 C2951 1.349 . S
C2936 C2934 1.327 . S
C2936 C2955 1.429 . S
C2936 H2960 0.950 . S
C2937 C2954 1.574 . S
C2937 C2956 1.368 . S
C2937 H2961 0.949 . S
H2938 C2942 0.949 . S
C2939 C2940 1.349 . S
C2939 C2941 1.327 . S
C2939 H2962 0.950 . S
C2940 C2939 1.349 . S
C2940 C2952 1.349 . S
C2941 C2939 1.327 . S
C2941 C2957 1.429 . S
C2941 H2963 0.950 . S
C2942 H2938 0.949 . S
C2942 C2950 1.574 . S
C2942 C2958 1.368 . S
H2943 C2951 0.950 . S
H2944 C2949 0.950 . S
H2945 C2950 0.949 . S
H2946 C2952 0.950 . S
H2947 C2953 0.950 . S
H2948 C2954 0.949 . S
C2949 H2944 0.950 . S
C2949 C2951 1.327 . S
C2949 C2955 1.429 . S
C2950 C2942 1.574 . S
C2950 H2945 0.949 . S
C2950 C2956 1.368 . S
C2951 C2935 1.349 . S
C2951 H2943 0.950 . S
C2951 C2949 1.327 . S
C2952 C2940 1.349 . S
C2952 H2946 0.950 . S
C2952 C2953 1.327 . S
C2953 H2947 0.950 . S
C2953 C2952 1.327 . S
C2953 C2957 1.429 . S
C2954 C2937 1.574 . S
C2954 H2948 0.949 . S
C2954 C2958 1.368 . S
C2955 C2936 1.429 . S
C2955 C2949 1.429 . S
C2955 C2956 1.523 . S
C2956 C2937 1.368 . S
C2956 C2950 1.368 . S
C2956 C2955 1.523 . S
C2957 C2941 1.429 . S
C2957 C2953 1.429 . S
C2957 C2958 1.523 . S
C2958 C2942 1.368 . S
C2958 C2954 1.368 . S
C2958 C2957 1.523 . S
H2959 C2934 0.950 . S
H2960 C2936 0.950 . S
H2961 C2937 0.949 . S
H2962 C2939 0.950 . S
H2963 C2941 0.950 . S
C2964 C2965 1.349 . S
C2964 C2966 1.327 . S
C2964 H2989 0.950 . S
C2965 C2964 1.349 . S
C2965 C2981 1.349 . S
C2966 C2964 1.327 . S
C2966 C2985 1.429 . S
C2966 H2990 0.950 . S
C2967 C2984 1.574 . S
C2967 C2986 1.368 . S
C2967 H2991 0.949 . S
H2968 C2972 0.949 . S
C2969 C2970 1.349 . S
C2969 C2971 1.327 . S
C2969 H2992 0.950 . S
C2970 C2969 1.349 . S
C2970 C2982 1.349 . S
C2971 C2969 1.327 . S
C2971 C2987 1.429 . S
C2971 H2993 0.950 . S
C2972 H2968 0.949 . S
C2972 C2980 1.574 . S
C2972 C2988 1.368 . S
H2973 C2981 0.950 . S
H2974 C2979 0.950 . S
H2975 C2980 0.949 . S
H2976 C2982 0.950 . S
H2977 C2983 0.950 . S
H2978 C2984 0.949 . S
C2979 H2974 0.950 . S
C2979 C2981 1.327 . S
C2979 C2985 1.429 . S
C2980 C2972 1.574 . S
C2980 H2975 0.949 . S
C2980 C2986 1.368 . S
C2981 C2965 1.349 . S
C2981 H2973 0.950 . S
C2981 C2979 1.327 . S
C2982 C2970 1.349 . S
C2982 H2976 0.950 . S
C2982 C2983 1.327 . S
C2983 H2977 0.950 . S
C2983 C2982 1.327 . S
C2983 C2987 1.429 . S
C2984 C2967 1.574 . S
C2984 H2978 0.949 . S
C2984 C2988 1.368 . S
C2985 C2966 1.429 . S
C2985 C2979 1.429 . S
C2985 C2986 1.523 . S
C2986 C2967 1.368 . S
C2986 C2980 1.368 . S
C2986 C2985 1.523 . S
C2987 C2971 1.429 . S
C2987 C2983 1.429 . S
C2987 C2988 1.523 . S
C2988 C2972 1.368 . S
C2988 C2984 1.368 . S
C2988 C2987 1.523 . S
H2989 C2964 0.950 . S
H2990 C2966 0.950 . S
H2991 C2967 0.949 . S
H2992 C2969 0.950 . S
H2993 C2971 0.950 . S
C2994 C2995 1.349 . S
C2994 C2996 1.327 . S
C2994 H3019 0.950 . S
C2995 C2994 1.349 . S
C2995 C3011 1.349 . S
C2996 C2994 1.327 . S
C2996 C3015 1.429 . S
C2996 H3020 0.950 . S
C2997 C3014 1.574 . S
C2997 C3016 1.368 . S
C2997 H3021 0.949 . S
H2998 C3002 0.949 . S
C2999 C3000 1.349 . S
C2999 C3001 1.327 . S
C2999 H3022 0.950 . S
C3000 C2999 1.349 . S
C3000 C3012 1.349 . S
C3001 C2999 1.327 . S
C3001 C3017 1.429 . S
C3001 H3023 0.950 . S
C3002 H2998 0.949 . S
C3002 C3010 1.574 . S
C3002 C3018 1.368 . S
H3003 C3011 0.950 . S
H3004 C3009 0.950 . S
H3005 C3010 0.949 . S
H3006 C3012 0.950 . S
H3007 C3013 0.950 . S
H3008 C3014 0.949 . S
C3009 H3004 0.950 . S
C3009 C3011 1.327 . S
C3009 C3015 1.429 . S
C3010 C3002 1.574 . S
C3010 H3005 0.949 . S
C3010 C3016 1.368 . S
C3011 C2995 1.349 . S
C3011 H3003 0.950 . S
C3011 C3009 1.327 . S
C3012 C3000 1.349 . S
C3012 H3006 0.950 . S
C3012 C3013 1.327 . S
C3013 H3007 0.950 . S
C3013 C3012 1.327 . S
C3013 C3017 1.429 . S
C3014 C2997 1.574 . S
C3014 H3008 0.949 . S
C3014 C3018 1.368 . S
C3015 C2996 1.429 . S
C3015 C3009 1.429 . S
C3015 C3016 1.523 . S
C3016 C2997 1.368 . S
C3016 C3010 1.368 . S
C3016 C3015 1.523 . S
C3017 C3001 1.429 . S
C3017 C3013 1.429 . S
C3017 C3018 1.523 . S
C3018 C3002 1.368 . S
C3018 C3014 1.368 . S
C3018 C3017 1.523 . S
H3019 C2994 0.950 . S
H3020 C2996 0.950 . S
H3021 C2997 0.949 . S
H3022 C2999 0.950 . S
H3023 C3001 0.950 . S
C1405 C469 1.416 . S
C1410 C715 1.340 . S
C1435 C505 1.446 . S
C1440 C799 1.374 . S
C1465 C433 1.453 . S
C1470 C879 1.410 . S
C1495 C397 1.405 . S
C1500 C795 1.366 . S
C1530 C883 1.300 . S
C1525 C325 1.373 . S
C1555 C361 1.382 . S
C1560 C711 1.341 . S
C1590 C704 1.341 . S
C1585 C421 1.415 . S
C1620 C788 1.375 . S
C1615 C349 1.444 . S
C1645 C385 1.452 . S
C1650 C890 1.411 . S
C1675 C493 1.403 . S
C1680 C806 1.367 . S
C1705 C529 1.372 . S
C1710 C872 1.301 . S
C1740 C722 1.341 . S
C1735 C457 1.381 . S
C1770 C967 1.340 . S
C1765 C37 1.416 . S
C1795 C73 1.446 . S
C1800 C1051 1.374 . S
C1825 C1 1.454 . S
C1830 C1131 1.410 . S
C1855 C613 1.405 . S
C1860 C1047 1.367 . S
C1885 C541 1.373 . S
C1890 C1135 1.300 . S
C1915 C577 1.382 . S
C1920 C963 1.341 . S
C1945 C637 1.415 . S
C1950 C956 1.341 . S
C1975 C565 1.444 . S
C1980 C1040 1.375 . S
C2010 C1142 1.410 . S
C2005 C601 1.451 . S
C2035 C61 1.403 . S
C2040 C1058 1.367 . S
C2070 C1124 1.301 . S
C2065 C97 1.372 . S
C2095 C25 1.381 . S
C2100 C974 1.341 . S
C2130 C1219 1.340 . S
C2125 C253 1.416 . S
C2155 C289 1.446 . S
C2160 C1303 1.375 . S
C2190 C1383 1.410 . S
C2185 C217 1.454 . S
C2220 C1299 1.367 . S
C2215 C181 1.405 . S
C2250 C1387 1.300 . S
C2245 C109 1.372 . S
C2275 C145 1.382 . S
C2280 C1215 1.340 . S
C2305 C205 1.416 . S
C2310 C1208 1.341 . S
C2335 C133 1.444 . S
C2340 C1292 1.375 . S
C2370 C1394 1.411 . S
C2365 C169 1.451 . S
C2395 C277 1.403 . S
C2400 C1310 1.367 . S
C2425 C313 1.372 . S
C2430 C1376 1.301 . S
C2455 C241 1.381 . S
C2460 C1226 1.341 . S
C2485 C571 1.417 . S
C2490 C718 1.305 . S
C2520 C802 1.356 . S
C2515 C607 1.499 . S
C2545 C643 1.455 . S
C2550 C874 1.325 . S
C2575 C247 1.499 . S
C2580 C790 1.355 . S
C2605 C283 1.455 . S
C2610 C886 1.325 . S
C2640 C706 1.304 . S
C2635 C319 1.417 . S
C2665 C139 1.417 . S
C2670 C970 1.305 . S
C2695 C175 1.498 . S
C2700 C1054 1.355 . S
C2725 C211 1.455 . S
C2730 C1126 1.325 . S
C2755 C463 1.499 . S
C2760 C1042 1.355 . S
C2790 C1138 1.325 . S
C2785 C499 1.455 . S
C2815 C535 1.417 . S
C2820 C958 1.304 . S
C2845 C355 1.417 . S
C2850 C1222 1.304 . S
C2875 C391 1.499 . S
C2880 C1306 1.356 . S
C2910 C1378 1.325 . S
C2905 C427 1.455 . S
C2935 C31 1.499 . S
C2940 C1294 1.355 . S
C2965 C67 1.455 . S
C2970 C1390 1.325 . S
C2995 C103 1.418 . S
C3000 C1210 1.305 . S
