# Generated by pormake.
# Topology anh, (6,3)-cn, num edge types: 1
# Building blocks:
#     Node 0, Type 0, BuildingBlock: CUKXOW_clean_sbu_0, # of connection points: 6
#     Node 1, Type 0, BuildingBlock: CUKXOW_clean_sbu_0, # of connection points: 6
#     Node 2, Type 0, BuildingBlock: CUKXOW_clean_sbu_0, # of connection points: 6
#     Node 3, Type 1, BuildingBlock: BETDAH_clean_linker_0, # of connection points: 3
#     Node 4, Type 1, BuildingBlock: BETDAH_clean_linker_0, # of connection points: 3
#     Node 5, Type 1, BuildingBlock: BETDAH_clean_linker_0, # of connection points: 3
#     Node 6, Type 1, BuildingBlock: BETDAH_clean_linker_0, # of connection points: 3
#     Node 7, Type 1, BuildingBlock: BETDAH_clean_linker_0, # of connection points: 3
#     Node 8, Type 1, BuildingBlock: BETDAH_clean_linker_0, # of connection points: 3
#     Edge 9, Type (0, 1), BuildingBlock: ZUJKAS_clean_linker_0, # of connection points: 2
#     Edge 10, Type (0, 1), BuildingBlock: ZUJKAS_clean_linker_0, # of connection points: 2
#     Edge 11, Type (0, 1), BuildingBlock: ZUJKAS_clean_linker_0, # of connection points: 2
#     Edge 12, Type (0, 1), BuildingBlock: ZUJKAS_clean_linker_0, # of connection points: 2
#     Edge 13, Type (0, 1), BuildingBlock: ZUJKAS_clean_linker_0, # of connection points: 2
#     Edge 14, Type (0, 1), BuildingBlock: ZUJKAS_clean_linker_0, # of connection points: 2
#     Edge 15, Type (0, 1), BuildingBlock: ZUJKAS_clean_linker_0, # of connection points: 2
#     Edge 16, Type (0, 1), BuildingBlock: ZUJKAS_clean_linker_0, # of connection points: 2
#     Edge 17, Type (0, 1), BuildingBlock: ZUJKAS_clean_linker_0, # of connection points: 2
#     Edge 18, Type (0, 1), BuildingBlock: ZUJKAS_clean_linker_0, # of connection points: 2
#     Edge 19, Type (0, 1), BuildingBlock: ZUJKAS_clean_linker_0, # of connection points: 2
#     Edge 20, Type (0, 1), BuildingBlock: ZUJKAS_clean_linker_0, # of connection points: 2
#     Edge 21, Type (0, 1), BuildingBlock: ZUJKAS_clean_linker_0, # of connection points: 2
#     Edge 22, Type (0, 1), BuildingBlock: ZUJKAS_clean_linker_0, # of connection points: 2
#     Edge 23, Type (0, 1), BuildingBlock: ZUJKAS_clean_linker_0, # of connection points: 2
#     Edge 24, Type (0, 1), BuildingBlock: ZUJKAS_clean_linker_0, # of connection points: 2
#     Edge 25, Type (0, 1), BuildingBlock: ZUJKAS_clean_linker_0, # of connection points: 2
#     Edge 26, Type (0, 1), BuildingBlock: ZUJKAS_clean_linker_0, # of connection points: 2
# Relax obj value: 0.068
# Max RMSD: 0.140
# Mean RMSD: 0.087
data_MOF--net-anh--node1-CUKXOW_clean_sbu_0--node2-BETDAH_clean_linker_0--edge1-ZUJKAS_clean_linker_0
_symmetry_space_group_name_H-M    P1
_symmetry_Int_Tables_number       1
_symmetry_cell_setting            triclinic
loop_
_symmetry_equiv_pos_as_xyz
'x, y, z'
_cell_length_a     38.039161
_cell_length_b     37.420119
_cell_length_c     62.899527
_cell_angle_alpha  97.994883
_cell_angle_beta   91.974678
_cell_angle_gamma 114.76612
loop_
_atom_site_label
_atom_site_type_symbol
_atom_site_fract_x
_atom_site_fract_y
_atom_site_fract_z
_atom_type_partial_charge
Tb0 Tb 0.08443 0.54768 0.15321 0.0
C1 C 0.05321 0.51414 0.19569 0.0
Tb2 Tb 0.02519 0.45451 0.15052 0.0
O3 O 0.03856 0.56961 0.15179 0.0
O4 O 0.0249 0.51076 0.15166 0.0
O5 O 0.08063 0.54277 0.18729 0.0
C6 C 0.9593 0.38936 0.14965 0.0
O7 O 0.02682 0.48036 0.18403 0.0
C8 C 0.09993 0.46752 0.15129 0.0
C9 C 0.05684 0.48755 0.10818 0.0
O10 O 0.99018 0.40033 0.16305 0.0
O11 O 0.96585 0.41468 0.13639 0.0
O12 O 0.07111 0.43224 0.14991 0.0
O13 O 0.08466 0.49159 0.1525 0.0
O14 O 0.02864 0.45958 0.11656 0.0
O15 O 0.08371 0.52127 0.11979 0.0
C16 C 0.14905 0.61512 0.15698 0.0
O17 O 0.11963 0.60394 0.1425 0.0
O18 O 0.1421 0.58829 0.16933 0.0
C19 C 1.00968 0.53466 0.15106 0.0
Tb20 Tb 0.5477 0.03532 0.50375 0.0
C21 C 0.58488 0.06585 0.46274 0.0
Tb22 Tb 0.63176 0.09886 0.50978 0.0
O23 O 0.52706 0.07742 0.49373 0.0
O24 O 0.57679 0.09759 0.51548 0.0
O25 O 0.55746 0.03563 0.46997 0.0
C26 C 0.69564 0.16619 0.50969 0.0
O27 O 0.6137 0.09536 0.47578 0.0
C28 C 0.62336 0.02572 0.50931 0.0
C29 C 0.59468 0.06741 0.5507 0.0
O30 O 0.69135 0.13061 0.50153 0.0
O31 O 0.66432 0.16367 0.51819 0.0
O32 O 0.65288 0.05694 0.51971 0.0
O33 O 0.60268 0.03676 0.49823 0.0
O34 O 0.62217 0.09775 0.54355 0.0
O35 O 0.56577 0.03797 0.53763 0.0
C36 C 0.48083 0.9708 0.50298 0.0
O37 O 0.48767 0.00689 0.51165 0.0
O38 O 0.51166 0.97096 0.49471 0.0
C39 C 0.55614 0.10862 0.50437 0.0
Tb40 Tb 0.5494 0.59357 0.83859 0.0
C41 C 0.5972 0.60416 0.88151 0.0
Tb42 Tb 0.63225 0.60298 0.83678 0.0
O43 O 0.52984 0.53222 0.84505 0.0
O44 O 0.57637 0.55617 0.82734 0.0
O45 O 0.57213 0.61502 0.87236 0.0
C46 C 0.69537 0.58902 0.83732 0.0
O47 O 0.62064 0.5932 0.86993 0.0
C48 C 0.62374 0.66879 0.83668 0.0
C49 C 0.5855 0.59769 0.7935 0.0
O50 O 0.69458 0.62233 0.8458 0.0
O51 O 0.66089 0.56397 0.82868 0.0
O52 O 0.65146 0.6622 0.828 0.0
O53 O 0.60528 0.64122 0.84701 0.0
O54 O 0.61559 0.59373 0.80237 0.0
O55 O 0.55774 0.6008 0.80485 0.0
C56 C 0.4807 0.5971 0.83784 0.0
O57 O 0.50652 0.61121 0.82458 0.0
O58 O 0.49383 0.58159 0.85145 0.0
C59 C 0.55789 0.5269 0.83633 0.0
H60 H 0.486 0.98503 0.23939 0.0
H61 H 0.57036 0.09673 0.22545 0.0
H62 H 0.48139 0.01471 0.17603 0.0
C63 C 0.4981 0.00512 0.22798 0.0
C64 C 0.48006 0.99486 0.20679 0.0
C65 C 0.53062 0.04174 0.23491 0.0
C66 C 0.54536 0.06837 0.22026 0.0
C67 C 0.52733 0.05846 0.199 0.0
C68 C 0.49467 0.0221 0.19252 0.0
N69 N 0.54077 0.08452 0.18376 0.0
C70 C 0.57928 0.11159 0.18392 0.0
H71 H 0.5697 0.49804 0.56974 0.0
H72 H 0.5759 0.60896 0.55446 0.0
H73 H 0.57036 0.51594 0.50376 0.0
C74 C 0.57074 0.51689 0.55791 0.0
C75 C 0.56961 0.50244 0.53602 0.0
C76 C 0.57345 0.55539 0.56473 0.0
C77 C 0.57395 0.5793 0.54925 0.0
C78 C 0.5729 0.56508 0.52715 0.0
C79 C 0.57117 0.52687 0.52074 0.0
N80 N 0.57361 0.58818 0.5109 0.0
C81 C 0.57445 0.62607 0.51465 0.0
H82 H 0.99803 0.47194 0.88783 0.0
H83 H 0.0587 0.4015 0.8657 0.0
H84 H 0.98574 0.42333 0.82044 0.0
C85 C 1.00556 0.45512 0.87477 0.0
C86 C 0.98932 0.45025 0.85363 0.0
C87 C 0.03016 0.43723 0.87938 0.0
C88 C 0.03916 0.41487 0.86244 0.0
C89 C 0.02311 0.40997 0.84117 0.0
C90 C 0.99759 0.42686 0.83692 0.0
N91 N 0.03445 0.39043 0.82373 0.0
C92 C 0.07355 0.40403 0.82073 0.0
H93 H 0.12165 0.63186 0.42318 0.0
H94 H 1.00718 0.54934 0.43425 0.0
H95 H 0.08356 0.63787 0.48655 0.0
C96 C 0.0998 0.62008 0.43411 0.0
C97 C 0.10737 0.6382 0.45587 0.0
C98 C 0.06376 0.58815 0.42609 0.0
C99 C 0.03506 0.57397 0.44026 0.0
C100 C 0.04236 0.59209 0.46212 0.0
C101 C 0.07819 0.62432 0.46967 0.0
N102 N 1.01425 0.5792 0.47696 0.0
C103 C 0.98421 0.54107 0.47449 0.0
H104 H 0.58798 0.15782 0.77386 0.0
H105 H 0.59562 0.05351 0.79031 0.0
H106 H 0.60386 0.1483 0.84056 0.0
C107 C 0.59149 0.14142 0.78606 0.0
C108 C 0.59626 0.15803 0.80797 0.0
C109 C 0.59133 0.10392 0.7796 0.0
C110 C 0.5957 0.08244 0.79532 0.0
C111 C 0.59966 0.09828 0.81741 0.0
C112 C 0.60012 0.13602 0.82355 0.0
N113 N 0.60332 0.07735 0.83393 0.0
C114 C 0.60022 0.03856 0.8304 0.0
H115 H 0.64254 0.53214 0.09588 0.0
H116 H 0.52746 0.52068 0.10649 0.0
H117 H 0.5977 0.50454 0.15627 0.0
C118 C 0.6192 0.52632 0.10622 0.0
C119 C 0.62463 0.51832 0.12692 0.0
C120 C 0.58429 0.52688 0.09861 0.0
C121 C 0.55438 0.52018 0.11225 0.0
C122 C 0.55898 0.51209 0.13313 0.0
C123 C 0.59404 0.51074 0.14023 0.0
N124 N 0.52923 0.5053 0.14739 0.0
C125 C 0.49295 0.50545 0.14285 0.0
H126 H 0.13197 0.41521 0.15243 0.0
H127 H 0.19964 0.42649 0.1496 0.0
H128 H 0.23013 0.54909 0.1436 0.0
H129 H 0.16202 0.5377 0.1464 0.0
H130 H 0.24477 0.44949 0.11619 0.0
H131 H 0.31273 0.56113 0.1909 0.0
H132 H 0.26084 0.53114 0.18578 0.0
H133 H 0.28399 0.57335 0.17246 0.0
C134 C 0.1531 0.4447 0.15066 0.0
C135 C 0.14164 0.47575 0.15 0.0
C136 C 0.19188 0.4511 0.149 0.0
C137 C 0.22043 0.4888 0.1467 0.0
C138 C 0.20903 0.51994 0.14588 0.0
H139 H 0.47319 0.56667 0.1398 0.0
H140 H 0.4074 0.56422 0.13919 0.0
C141 C 0.17004 0.51346 0.14751 0.0
C142 C 0.2616 0.49463 0.1446 0.0
H143 H 0.35499 0.54503 0.16904 0.0
C144 C 0.26884 0.47048 0.12775 0.0
C145 C 0.29331 0.5222 0.15952 0.0
C146 C 0.2875 0.54828 0.17831 0.0
C147 C 0.30649 0.47289 0.12548 0.0
C148 C 0.33803 0.49956 0.14077 0.0
C149 C 0.331 0.52446 0.15732 0.0
C150 C 0.37806 0.50099 0.14032 0.0
C151 C 0.31211 0.44708 0.10647 0.0
C152 C 0.38389 0.46645 0.14126 0.0
C153 C 0.42137 0.46785 0.14148 0.0
C154 C 0.45397 0.50383 0.1409 0.0
C155 C 0.44843 0.53844 0.14 0.0
C156 C 0.41086 0.53706 0.13976 0.0
H157 H 0.28903 0.43857 0.09295 0.0
H158 H 0.34089 0.46253 0.10049 0.0
H159 H 0.31046 0.41919 0.11149 0.0
H160 H 0.35947 0.43845 0.14229 0.0
H161 H 0.42495 0.44088 0.14253 0.0
H162 H 0.76041 0.17557 0.48937 0.0
H163 H 0.81238 0.23849 0.48302 0.0
H164 H 0.75584 0.30407 0.51748 0.0
H165 H 0.70424 0.2415 0.52406 0.0
H166 H 0.80338 0.29459 0.46087 0.0
H167 H 0.86828 0.36264 0.54513 0.0
H168 H 0.83632 0.31022 0.53734 0.0
H169 H 0.81655 0.34639 0.54156 0.0
C170 C 0.75947 0.2035 0.49584 0.0
C171 C 0.72857 0.20382 0.50732 0.0
C172 C 0.78902 0.23932 0.49215 0.0
C173 C 0.78818 0.27592 0.50001 0.0
C174 C 0.75747 0.27622 0.51166 0.0
H175 H 0.91721 0.52443 0.49218 0.0
H176 H 0.86879 0.45817 0.49673 0.0
C177 C 0.72797 0.24048 0.51535 0.0
C178 C 0.81828 0.31375 0.49519 0.0
H179 H 0.88627 0.40588 0.51896 0.0
C180 C 0.82183 0.31883 0.47353 0.0
C181 C 0.84222 0.34524 0.51176 0.0
C182 C 0.841 0.34082 0.53525 0.0
C183 C 0.84785 0.35514 0.46804 0.0
C184 C 0.87117 0.38687 0.48466 0.0
C185 C 0.86811 0.38153 0.50628 0.0
C186 C 0.89866 0.42621 0.4801 0.0
C187 C 0.84935 0.35971 0.4446 0.0
C188 C 0.93122 0.43004 0.46907 0.0
C189 C 0.95873 0.46781 0.46643 0.0
C190 C 0.95389 0.50198 0.47482 0.0
C191 C 0.92107 0.4982 0.48543 0.0
C192 C 0.89362 0.46052 0.48809 0.0
H193 H 0.82375 0.33585 0.43426 0.0
H194 H 0.85065 0.38919 0.44244 0.0
H195 H 0.87598 0.358 0.43891 0.0
H196 H 0.93598 0.404 0.46313 0.0
H197 H 0.98427 0.47042 0.45844 0.0
H198 H 0.56842 0.68835 0.85497 0.0
H199 H 0.55761 0.74802 0.85237 0.0
H200 H 0.65199 0.78826 0.81245 0.0
H201 H 0.66259 0.72885 0.81481 0.0
H202 H 0.61092 0.82803 0.86538 0.0
H203 H 0.56438 0.79767 0.77777 0.0
H204 H 0.56519 0.75956 0.79225 0.0
H205 H 0.60937 0.79453 0.78376 0.0
C206 C 0.58665 0.70989 0.84557 0.0
C207 C 0.61636 0.70409 0.83511 0.0
C208 C 0.58045 0.74387 0.84407 0.0
C209 C 0.6036 0.77227 0.83193 0.0
C210 C 0.63322 0.76636 0.8215 0.0
H211 H 0.64567 0.00866 0.80981 0.0
H212 H 0.64372 0.94211 0.80995 0.0
C213 C 0.63944 0.73254 0.82301 0.0
C214 C 0.59837 0.80919 0.83098 0.0
H215 H 0.58282 0.86443 0.79595 0.0
C216 C 0.60428 0.83579 0.85025 0.0
C217 C 0.58985 0.81929 0.81119 0.0
C218 C 0.58146 0.7911 0.79008 0.0
C219 C 0.6033 0.8729 0.85019 0.0
C220 C 0.59554 0.88335 0.83035 0.0
C221 C 0.5889 0.85642 0.81112 0.0
C222 C 0.59515 0.92255 0.82924 0.0
C223 C 0.61201 0.90121 0.87129 0.0
C224 C 0.56794 0.93321 0.83958 0.0
C225 C 0.56909 0.97104 0.83948 0.0
C226 C 0.59724 0.99855 0.82891 0.0
C227 C 0.62371 0.98767 0.81802 0.0
C228 C 0.62258 0.9498 0.81811 0.0
H229 H 0.6262 0.8927 0.88417 0.0
H230 H 0.63119 0.93227 0.86935 0.0
H231 H 0.58437 0.90069 0.87672 0.0
H232 H 0.5461 0.91241 0.84792 0.0
H233 H 0.54841 0.97903 0.84796 0.0
H234 H 0.97924 0.58448 0.14111 0.0
H235 H 0.91142 0.57431 0.13898 0.0
H236 H 0.87689 0.45699 0.1554 0.0
H237 H 0.94548 0.46745 0.15785 0.0
H238 H 0.84732 0.51356 0.11167 0.0
H239 H 0.82459 0.50963 0.1984 0.0
H240 H 0.87257 0.52924 0.18932 0.0
H241 H 0.84328 0.47633 0.18525 0.0
C242 C 0.95727 0.55644 0.14427 0.0
C243 C 0.96777 0.52659 0.14942 0.0
C244 C 0.91841 0.55066 0.14304 0.0
C245 C 0.88884 0.51504 0.14719 0.0
C246 C 0.89912 0.48496 0.15236 0.0
H247 H 0.63769 0.4609 0.14467 0.0
H248 H 0.70025 0.45678 0.15037 0.0
C249 C 0.93827 0.49071 0.15348 0.0
C250 C 0.84754 0.50986 0.14549 0.0
H251 H 0.77228 0.50502 0.17523 0.0
C252 C 0.83085 0.51138 0.12556 0.0
C253 C 0.82574 0.50673 0.16353 0.0
C254 C 0.84233 0.50561 0.18542 0.0
C255 C 0.79359 0.51061 0.12324 0.0
C256 C 0.77244 0.50936 0.14147 0.0
C257 C 0.78845 0.50631 0.16127 0.0
C258 C 0.73475 0.51317 0.1403 0.0
C259 C 0.7772 0.51113 0.10114 0.0
C260 C 0.73331 0.54693 0.13368 0.0
C261 C 0.69779 0.54928 0.13043 0.0
C262 C 0.6626 0.51814 0.13393 0.0
C263 C 0.66422 0.48543 0.14189 0.0
C264 C 0.69997 0.48298 0.14504 0.0
H265 H 0.79072 0.49957 0.08816 0.0
H266 H 0.74519 0.49299 0.09859 0.0
H267 H 0.78345 0.54234 0.09956 0.0
H268 H 0.7597 0.57121 0.13051 0.0
H269 H 0.69772 0.57517 0.12461 0.0
H270 H 0.41465 0.9684 0.51905 0.0
H271 H 0.35097 0.91093 0.51512 0.0
H272 H 0.39847 0.83715 0.47962 0.0
H273 H 0.46237 0.89444 0.48378 0.0
H274 H 0.30778 0.86841 0.47622 0.0
H275 H 0.33955 0.76882 0.52342 0.0
H276 H 0.3713 0.82135 0.5258 0.0
H277 H 0.37252 0.78634 0.50348 0.0
C278 C 0.41156 0.93978 0.51065 0.0
C279 C 0.44327 0.93571 0.50171 0.0
C280 C 0.37525 0.90705 0.50841 0.0
C281 C 0.37017 0.86972 0.49733 0.0
C282 C 0.40199 0.8655 0.48863 0.0
H283 H 0.17925 0.64438 0.447 0.0
H284 H 0.24223 0.70132 0.45854 0.0
C285 C 0.43835 0.89825 0.49088 0.0
C286 C 0.33098 0.83597 0.49352 0.0
H287 H 0.27954 0.73954 0.50068 0.0
C288 C 0.30143 0.84036 0.48176 0.0
C289 C 0.32294 0.79947 0.50076 0.0
C290 C 0.35313 0.79371 0.51424 0.0
C291 C 0.26429 0.80874 0.47642 0.0
C292 C 0.25641 0.77202 0.48336 0.0
C293 C 0.28577 0.76779 0.49541 0.0
C294 C 0.21835 0.73711 0.47741 0.0
C295 C 0.23422 0.81442 0.46276 0.0
C296 C 0.18421 0.73821 0.48454 0.0
C297 C 0.14814 0.70585 0.47784 0.0
C298 C 0.14569 0.67182 0.46395 0.0
C299 C 0.18014 0.67045 0.45739 0.0
C300 C 0.21613 0.70278 0.46409 0.0
H301 H 0.24745 0.8412 0.4549 0.0
H302 H 0.21842 0.78786 0.45006 0.0
H303 H 0.21265 0.81834 0.47313 0.0
H304 H 0.18545 0.76427 0.49509 0.0
H305 H 0.12212 0.70786 0.4831 0.0
H306 H 0.52978 0.46949 0.8614 0.0
H307 H 0.54016 0.40878 0.85971 0.0
H308 H 0.61026 0.4413 0.80697 0.0
H309 H 0.59972 0.50183 0.80854 0.0
H310 H 0.51974 0.34718 0.82507 0.0
H311 H 0.67927 0.41584 0.84778 0.0
H312 H 0.65033 0.44356 0.85212 0.0
H313 H 0.66468 0.43413 0.82576 0.0
C314 C 0.54757 0.46372 0.84953 0.0
C315 C 0.56449 0.49059 0.83533 0.0
C316 C 0.55355 0.42915 0.84862 0.0
C317 C 0.57663 0.42091 0.83351 0.0
C318 C 0.59327 0.44759 0.81916 0.0
H319 H 0.63279 0.22461 0.78958 0.0
H320 H 0.62833 0.28827 0.79741 0.0
C321 C 0.58725 0.48216 0.82007 0.0
C322 C 0.58144 0.38329 0.83196 0.0
H323 H 0.64934 0.34604 0.83392 0.0
C324 C 0.54803 0.34689 0.82721 0.0
C325 C 0.61841 0.38304 0.83467 0.0
C326 C 0.65522 0.4212 0.84056 0.0
C327 C 0.55062 0.31021 0.82446 0.0
C328 C 0.5876 0.3099 0.82703 0.0
C329 C 0.62101 0.34632 0.83203 0.0
C330 C 0.59226 0.2721 0.82351 0.0
C331 C 0.51381 0.2722 0.81803 0.0
C332 C 0.57431 0.24217 0.83596 0.0
C333 C 0.57641 0.20546 0.83135 0.0
C334 C 0.59674 0.19812 0.81428 0.0
C335 C 0.61617 0.22892 0.80252 0.0
C336 C 0.61394 0.26548 0.80709 0.0
H337 H 0.48948 0.27803 0.81161 0.0
H338 H 0.51857 0.25097 0.80559 0.0
H339 H 0.50479 0.25768 0.83239 0.0
H340 H 0.5581 0.24695 0.84901 0.0
H341 H 0.56109 0.18242 0.8407 0.0
H342 H 0.65876 0.99931 0.53754 0.0
H343 H 0.6473 0.93023 0.53895 0.0
H344 H 0.55913 0.88882 0.48488 0.0
H345 H 0.57149 0.95803 0.48297 0.0
H346 H 0.5799 0.8652 0.54501 0.0
H347 H 0.63014 0.83664 0.46526 0.0
H348 H 0.63933 0.88619 0.47845 0.0
H349 H 0.59235 0.85341 0.46439 0.0
C350 C 0.63706 0.97545 0.5259 0.0
C351 C 0.61589 0.98394 0.51019 0.0
C352 C 0.63042 0.93602 0.52678 0.0
C353 C 0.60268 0.90437 0.51188 0.0
C354 C 0.58112 0.91279 0.49633 0.0
H355 H 0.53127 0.64774 0.48926 0.0
H356 H 0.53591 0.7153 0.48965 0.0
C357 C 0.58785 0.95227 0.49541 0.0
C358 C 0.59651 0.86266 0.51265 0.0
H359 H 0.60195 0.78144 0.48337 0.0
C360 C 0.58478 0.84688 0.53155 0.0
C361 C 0.60292 0.83882 0.49508 0.0
C362 C 0.61722 0.85465 0.47471 0.0
C363 C 0.57881 0.80772 0.53327 0.0
C364 C 0.58532 0.78395 0.51572 0.0
C365 C 0.59687 0.79967 0.49679 0.0
C366 C 0.58071 0.74277 0.51662 0.0
C367 C 0.56493 0.7919 0.55369 0.0
C368 C 0.60429 0.73575 0.53168 0.0
C369 C 0.60156 0.69718 0.53147 0.0
C370 C 0.57535 0.66528 0.51616 0.0
C371 C 0.55149 0.67206 0.50129 0.0
C372 C 0.5542 0.71055 0.50148 0.0
H373 H 0.55169 0.80959 0.56312 0.0
H374 H 0.54325 0.76017 0.55002 0.0
H375 H 0.59009 0.79365 0.56397 0.0
H376 H 0.6255 0.76025 0.54321 0.0
H377 H 0.62047 0.69245 0.54293 0.0
H378 H 0.76949 0.63795 0.85532 0.0
H379 H 0.82572 0.62164 0.85595 0.0
H380 H 0.75376 0.50383 0.82061 0.0
H381 H 0.69779 0.51988 0.81987 0.0
H382 H 0.82906 0.55672 0.87388 0.0
H383 H 0.8506 0.545 0.78684 0.0
H384 H 0.82346 0.57077 0.79902 0.0
H385 H 0.80129 0.5172 0.79229 0.0
C386 C 0.76589 0.60874 0.84756 0.0
C387 C 0.72953 0.58021 0.83747 0.0
C388 C 0.79791 0.59951 0.8479 0.0
C389 C 0.79391 0.56183 0.83798 0.0
C390 C 0.75757 0.53337 0.82791 0.0
H391 H 0.91883 0.41729 0.8294 0.0
H392 H 0.87425 0.44833 0.82497 0.0
C393 C 0.72563 0.54251 0.82762 0.0
C394 C 0.82691 0.55098 0.83929 0.0
H395 H 0.88224 0.51712 0.80841 0.0
C396 C 0.84117 0.54861 0.85963 0.0
C397 C 0.84232 0.54029 0.82061 0.0
C398 C 0.82892 0.54375 0.79845 0.0
C399 C 0.8694 0.53412 0.86175 0.0
C400 C 0.88424 0.52257 0.84302 0.0
C401 C 0.8707 0.52595 0.82271 0.0
C402 C 0.91261 0.50528 0.84417 0.0
C403 C 0.88182 0.52966 0.88392 0.0
C404 C 0.94926 0.52748 0.85587 0.0
C405 C 0.97457 0.50981 0.8585 0.0
C406 C 0.96379 0.46978 0.84925 0.0
C407 C 0.92784 0.4482 0.83665 0.0
C408 C 0.9024 0.46584 0.83415 0.0
H409 H 0.86117 0.53096 0.89574 0.0
H410 H 0.88417 0.50096 0.88341 0.0
H411 H 0.91082 0.55433 0.88985 0.0
H412 H 0.95799 0.55825 0.86329 0.0
H413 H 1.00246 0.52731 0.86795 0.0
H414 H 0.1621 0.67757 0.13589 0.0
H415 H 0.21935 0.74229 0.14166 0.0
H416 H 0.27199 0.703 0.18973 0.0
H417 H 0.21476 0.63835 0.18415 0.0
H418 H 0.24889 0.79482 0.18474 0.0
H419 H 0.35648 0.74872 0.14653 0.0
H420 H 0.30454 0.72027 0.13995 0.0
H421 H 0.32761 0.71801 0.16477 0.0
C422 C 0.18605 0.68268 0.14755 0.0
C423 C 0.18415 0.65314 0.15961 0.0
C424 C 0.2186 0.71956 0.15083 0.0
C425 C 0.24986 0.72711 0.16597 0.0
C426 C 0.24826 0.69743 0.17779 0.0
H427 H 0.4692 0.92226 0.21665 0.0
H428 H 0.41244 0.85834 0.20608 0.0
C429 C 0.21558 0.66069 0.17466 0.0
C430 C 0.28337 0.76674 0.17023 0.0
H431 H 0.38082 0.81438 0.16635 0.0
C432 C 0.27773 0.79932 0.18059 0.0
C433 C 0.32079 0.77215 0.16485 0.0
C434 C 0.32792 0.73807 0.15327 0.0
C435 C 0.30895 0.83719 0.18635 0.0
C436 C 0.34654 0.84267 0.18105 0.0
C437 C 0.35198 0.81009 0.17037 0.0
C438 C 0.38091 0.88161 0.18713 0.0
C439 C 0.30162 0.87053 0.19876 0.0
C440 C 0.3822 0.91581 0.17976 0.0
C441 C 0.41436 0.9526 0.18608 0.0
C442 C 0.44605 0.95572 0.19967 0.0
C443 C 0.44499 0.92111 0.20655 0.0
C444 C 0.41273 0.88446 0.20036 0.0
H445 H 0.27401 0.85893 0.20642 0.0
H446 H 0.32583 0.88907 0.21152 0.0
H447 H 0.29935 0.89002 0.18752 0.0
H448 H 0.35831 0.91409 0.16916 0.0
H449 H 0.41411 0.97866 0.18058 0.0
H450 H 0.60695 0.17524 0.53195 0.0
H451 H 0.61208 0.24317 0.53493 0.0
H452 H 0.51622 0.20214 0.4852 0.0
H453 H 0.51292 0.1348 0.48114 0.0
H454 H 0.56972 0.27192 0.47978 0.0
H455 H 0.54116 0.28118 0.56565 0.0
H456 H 0.5836 0.27275 0.56135 0.0
H457 H 0.53645 0.23543 0.54944 0.0
C458 C 0.58762 0.18093 0.52132 0.0
C459 C 0.55985 0.14986 0.50615 0.0
C460 C 0.59007 0.21964 0.52331 0.0
C461 C 0.56398 0.22771 0.51062 0.0
C462 C 0.53659 0.19671 0.49523 0.0
H463 H 0.51425 0.43295 0.5446 0.0
H464 H 0.51215 0.36616 0.5365 0.0
C465 C 0.53461 0.15819 0.49299 0.0
C466 C 0.56473 0.26818 0.5135 0.0
H467 H 0.56036 0.34098 0.55109 0.0
C468 C 0.56753 0.28698 0.49537 0.0
C469 C 0.56118 0.28761 0.53375 0.0
C470 C 0.55501 0.26804 0.5536 0.0
C471 C 0.56706 0.32463 0.49693 0.0
C472 C 0.56505 0.34471 0.51735 0.0
C473 C 0.56219 0.32583 0.53545 0.0
C474 C 0.56488 0.38482 0.52043 0.0
C475 C 0.56753 0.34182 0.47655 0.0
C476 C 0.5949 0.41762 0.51387 0.0
C477 C 0.59559 0.45568 0.5181 0.0
C478 C 0.56685 0.46172 0.52944 0.0
C479 C 0.53673 0.42896 0.53584 0.0
C480 C 0.53562 0.39088 0.53126 0.0
H481 H 0.55671 0.31807 0.46204 0.0
H482 H 0.54943 0.35868 0.47708 0.0
H483 H 0.59788 0.36247 0.47469 0.0
H484 H 0.61842 0.41409 0.50606 0.0
H485 H 0.6194 0.48065 0.5133 0.0
H486 H 0.4416 0.60643 0.80332 0.0
H487 H 0.37087 0.58423 0.79716 0.0
H488 H 0.35818 0.55173 0.86058 0.0
H489 H 0.42829 0.57387 0.86678 0.0
H490 H 0.31922 0.50504 0.79737 0.0
H491 H 0.28545 0.60591 0.85733 0.0
H492 H 0.33379 0.61879 0.84919 0.0
H493 H 0.31647 0.58729 0.86929 0.0
C494 C 0.42371 0.59568 0.81613 0.0
C495 C 0.44016 0.59174 0.8355 0.0
C496 C 0.38343 0.58291 0.81258 0.0
C497 C 0.3594 0.56673 0.8285 0.0
C498 C 0.37624 0.56489 0.84826 0.0
H499 H 0.13068 0.4169 0.85109 0.0
H500 H 0.20052 0.45804 0.85038 0.0
C501 C 0.41628 0.57734 0.85175 0.0
C502 C 0.31659 0.54691 0.82377 0.0
H503 H 0.23322 0.54034 0.84498 0.0
C504 C 0.30024 0.51322 0.80742 0.0
C505 C 0.29206 0.55765 0.83697 0.0
C506 C 0.30784 0.59464 0.85404 0.0
C507 C 0.26014 0.48847 0.80484 0.0
C508 C 0.23594 0.49808 0.81883 0.0
C509 C 0.25202 0.53287 0.83444 0.0
C510 C 0.19422 0.47132 0.81842 0.0
C511 C 0.24426 0.45111 0.78801 0.0
C512 C 0.16782 0.46494 0.80059 0.0
C513 C 0.12811 0.4413 0.80097 0.0
C514 C 0.11459 0.42391 0.81915 0.0
C515 C 0.14089 0.42971 0.83681 0.0
C516 C 0.18054 0.45331 0.83645 0.0
H517 H 0.26776 0.44442 0.78111 0.0
H518 H 0.22461 0.42506 0.795 0.0
H519 H 0.22704 0.45497 0.77465 0.0
H520 H 0.17779 0.47911 0.78669 0.0
H521 H 0.1079 0.43756 0.78736 0.0
H522 H 0.94203 0.33736 0.17806 0.0
H523 H 0.87764 0.28758 0.1834 0.0
H524 H 0.8263 0.31842 0.13076 0.0
H525 H 0.89069 0.36873 0.12555 0.0
H526 H 0.78911 0.31747 0.16812 0.0
H527 H 0.80915 0.17861 0.14708 0.0
H528 H 0.84584 0.21599 0.16696 0.0
H529 H 0.84174 0.22561 0.13998 0.0
C530 C 0.91707 0.33307 0.16742 0.0
C531 C 0.92124 0.35664 0.15132 0.0
C532 C 0.88035 0.30455 0.17044 0.0
C533 C 0.84729 0.29901 0.15731 0.0
C534 C 0.85152 0.32214 0.14099 0.0
H535 H 0.61448 0.11069 0.14797 0.0
H536 H 0.68035 0.15692 0.14208 0.0
C537 C 0.88825 0.35068 0.13797 0.0
C538 C 0.80808 0.27069 0.1614 0.0
H539 H 0.75201 0.17254 0.16354 0.0
C540 C 0.78091 0.28575 0.16706 0.0
C541 C 0.79748 0.22934 0.15987 0.0
C542 C 0.82492 0.21127 0.15295 0.0
C543 C 0.74343 0.26057 0.17141 0.0
C544 C 0.73315 0.21937 0.17041 0.0
C545 C 0.76019 0.20424 0.16455 0.0
C546 C 0.69383 0.19113 0.17439 0.0
C547 C 0.71491 0.27813 0.17661 0.0
C548 C 0.67986 0.19475 0.19461 0.0
C549 C 0.64224 0.16839 0.19794 0.0
C550 C 0.61849 0.13812 0.18113 0.0
C551 C 0.63259 0.13401 0.1611 0.0
C552 C 0.67007 0.16028 0.15776 0.0
H553 H 0.72422 0.30802 0.17183 0.0
H554 H 0.68548 0.25818 0.16833 0.0
H555 H 0.71278 0.28157 0.19426 0.0
H556 H 0.69801 0.21795 0.20776 0.0
H557 H 0.63168 0.17176 0.21354 0.0
H558 H 0.01896 0.4174 0.07991 0.0
H559 H 0.02246 0.40551 0.04105 0.0
H560 H 0.10221 0.52918 0.04409 0.0
H561 H 0.09975 0.54115 0.08306 0.0
H562 H 1.00076 0.43769 0.01101 0.0
H563 H 0.15749 0.47505 0.00847 0.0
H564 H 0.13414 0.46792 0.03304 0.0
H565 H 0.14938 0.51482 0.02349 0.0
C566 C 0.03747 0.44207 0.07237 0.0
C567 C 0.05912 0.48025 0.08463 0.0
C568 C 0.03952 0.43516 0.05014 0.0
C569 C 0.06316 0.46625 0.0397 0.0
C570 C 0.08467 0.50444 0.05187 0.0
H571 H 0.06481 0.50518 0.90924 0.0
H572 H 0.07718 0.50989 0.94824 0.0
C573 C 0.08294 0.51131 0.07415 0.0
C574 C 0.06308 0.45931 0.0159 0.0
H575 H 0.12205 0.47066 0.97511 0.0
C576 C 0.02725 0.44438 0.0032 0.0
C577 C 0.09768 0.46802 0.00568 0.0
C578 C 0.13679 0.48196 0.01838 0.0
C579 C 0.02518 0.43908 0.98062 0.0
C580 C 0.0598 0.4489 0.97049 0.0
C581 C 0.09561 0.46319 0.98304 0.0
C582 C 0.05898 0.44651 0.94685 0.0
C583 C 0.98611 0.42409 0.96766 0.0
C584 C 0.04593 0.40944 0.93323 0.0
C585 C 0.03898 0.40668 0.91094 0.0
C586 C 0.04465 0.44094 0.9021 0.0
C587 C 0.05993 0.47831 0.9157 0.0
C588 C 0.06715 0.48107 0.93791 0.0
H589 H 0.96228 0.4207 0.97807 0.0
H590 H 0.98702 0.44496 0.95652 0.0
H591 H 0.97924 0.39464 0.95767 0.0
H592 H 0.0394 0.38249 0.93995 0.0
H593 H 0.02696 0.37753 0.90082 0.0
H594 H 0.63695 0.12143 0.44169 0.0
H595 H 0.63374 0.12445 0.40316 0.0
H596 H 0.52666 0.01677 0.39207 0.0
H597 H 0.52931 0.01354 0.43062 0.0
H598 H 0.63166 0.06771 0.36807 0.0
H599 H 0.49993 0.09613 0.36347 0.0
H600 H 0.52749 0.10222 0.38874 0.0
H601 H 0.49365 0.05328 0.37547 0.0
C602 C 0.6126 0.09836 0.43111 0.0
C603 C 0.58326 0.06729 0.43931 0.0
C604 C 0.6109 0.10018 0.40907 0.0
C605 C 0.57971 0.07118 0.39483 0.0
C606 C 0.55062 0.03987 0.40287 0.0
H607 H 0.54857 0.99487 0.25861 0.0
H608 H 0.56605 0.00738 0.29754 0.0
C609 C 0.55231 0.03796 0.4249 0.0
C610 C 0.57793 0.07323 0.37149 0.0
H611 H 0.5209 0.07831 0.33 0.0
C612 C 0.60764 0.07038 0.35975 0.0
C613 C 0.54694 0.07746 0.36077 0.0
C614 C 0.51536 0.08285 0.37277 0.0
C615 C 0.60633 0.06997 0.33737 0.0
C616 C 0.57426 0.07204 0.32648 0.0
C617 C 0.54538 0.07653 0.33837 0.0
C618 C 0.56855 0.06684 0.30262 0.0
C619 C 0.63917 0.06715 0.32558 0.0
C620 C 0.56428 0.09618 0.29251 0.0
C621 C 0.5541 0.089 0.27021 0.0
C622 C 0.54751 0.05213 0.25776 0.0
C623 C 0.55328 0.02347 0.26783 0.0
C624 C 0.56359 0.03071 0.29005 0.0
H625 H 0.66633 0.07805 0.33662 0.0
H626 H 0.63102 0.03544 0.31867 0.0
H627 H 0.64513 0.08459 0.31215 0.0
H628 H 0.56774 0.12416 0.30197 0.0
H629 H 0.54947 0.11145 0.26291 0.0
H630 H 0.6336 0.58725 0.76443 0.0
H631 H 0.62988 0.58948 0.72591 0.0
H632 H 0.52854 0.6131 0.73069 0.0
H633 H 0.53161 0.61036 0.76935 0.0
H634 H 0.51973 0.55468 0.69633 0.0
H635 H 0.65927 0.68689 0.69669 0.0
H636 H 0.66515 0.64956 0.70953 0.0
H637 H 0.63676 0.67417 0.72105 0.0
C638 C 0.61054 0.59309 0.75738 0.0
C639 C 0.58295 0.59874 0.77005 0.0
C640 C 0.60868 0.59466 0.73535 0.0
C641 C 0.57946 0.60233 0.72552 0.0
C642 C 0.55157 0.60753 0.73801 0.0
H643 H 0.53117 0.59094 0.58556 0.0
H644 H 0.53134 0.60811 0.62479 0.0
C645 C 0.55334 0.60588 0.7601 0.0
C646 C 0.57723 0.603 0.702 0.0
H647 H 0.63155 0.64452 0.6623 0.0
C648 C 0.54384 0.5748 0.68888 0.0
C649 C 0.60867 0.62946 0.69236 0.0
C650 C 0.64431 0.662 0.70566 0.0
C651 C 0.54199 0.57079 0.66629 0.0
C652 C 0.57421 0.59595 0.65665 0.0
C653 C 0.60693 0.62525 0.66978 0.0
C654 C 0.57606 0.58947 0.63304 0.0
C655 C 0.50647 0.53832 0.65283 0.0
C656 C 0.60198 0.5746 0.62481 0.0
C657 C 0.60193 0.56486 0.60259 0.0
C658 C 0.57611 0.57005 0.58814 0.0
C659 C 0.55138 0.58672 0.59636 0.0
C660 C 0.55127 0.59625 0.6187 0.0
H661 H 0.48627 0.51802 0.66277 0.0
H662 H 0.49054 0.55209 0.64437 0.0
H663 H 0.51517 0.52035 0.64037 0.0
H664 H 0.62145 0.56935 0.63563 0.0
H665 H 0.62164 0.55255 0.59668 0.0
H666 H 0.54055 0.01402 0.57191 0.0
H667 H 0.54044 0.01463 0.61078 0.0
H668 H 0.65107 0.11817 0.6216 0.0
H669 H 0.65119 0.11835 0.58275 0.0
H670 H 0.59187 0.01002 0.64173 0.0
H671 H 0.58182 0.15497 0.65794 0.0
H672 H 0.57427 0.12708 0.63107 0.0
H673 H 0.62281 0.15683 0.64402 0.0
C674 C 0.56497 0.03692 0.58251 0.0
C675 C 0.59568 0.06647 0.57419 0.0
C676 C 0.56488 0.03711 0.60474 0.0
C677 C 0.59543 0.06679 0.61908 0.0
C678 C 0.62681 0.09546 0.61082 0.0
H679 H 0.63945 0.07835 0.75753 0.0
H680 H 0.63913 0.0646 0.71819 0.0
C681 C 0.62686 0.09544 0.58859 0.0
C682 C 0.5937 0.06854 0.6427 0.0
H683 H 0.59082 0.12786 0.68834 0.0
C684 C 0.59159 0.03573 0.65197 0.0
C685 C 0.59274 0.10187 0.65592 0.0
C686 C 0.59265 0.13705 0.64675 0.0
C687 C 0.58896 0.03556 0.6742 0.0
C688 C 0.58902 0.06936 0.68749 0.0
C689 C 0.59092 0.10201 0.67815 0.0
C690 C 0.58655 0.07176 0.7111 0.0
C691 C 0.58528 0.99895 0.68317 0.0
C692 C 0.55697 0.07995 0.72018 0.0
C693 C 0.55741 0.08823 0.74253 0.0
C694 C 0.58737 0.08833 0.75626 0.0
C695 C 0.61583 0.07801 0.74725 0.0
C696 C 0.61559 0.07008 0.72481 0.0
H697 H 0.57509 0.97217 0.67033 0.0
H698 H 0.6142 0.00402 0.69063 0.0
H699 H 0.56478 0.99273 0.69578 0.0
H700 H 0.53425 0.08135 0.70992 0.0
H701 H 0.53505 0.09593 0.74911 0.0
H702 H 0.55803 0.62998 0.91108 0.0
H703 H 0.55522 0.62256 0.9491 0.0
H704 H 0.63288 0.5654 0.94267 0.0
H705 H 0.63658 0.57348 0.90486 0.0
H706 H 0.5283 0.55427 0.96585 0.0
H707 H 0.68293 0.64596 0.99689 0.0
H708 H 0.6631 0.6478 0.97079 0.0
H709 H 0.67733 0.60854 0.97421 0.0
C710 C 0.57499 0.61635 0.91783 0.0
C711 C 0.59775 0.60256 0.90493 0.0
C712 C 0.57325 0.61205 0.93956 0.0
C713 C 0.59427 0.59396 0.94885 0.0
C714 C 0.61719 0.58039 0.93604 0.0
H715 H 0.60527 0.49602 0.06194 0.0
H716 H 0.60508 0.51417 0.02613 0.0
C717 C 0.61914 0.58488 0.91436 0.0
C718 C 0.59066 0.58725 0.97156 0.0
H719 H 0.64394 0.60048 0.01922 0.0
C720 C 0.55352 0.56488 0.97762 0.0
C721 C 0.62356 0.60127 0.98696 0.0
C722 C 0.66391 0.62758 0.98196 0.0
C723 C 0.54864 0.55473 0.99836 0.0
C724 C 0.58171 0.56737 0.01337 0.0
C725 C 0.61867 0.59066 0.00757 0.0
C726 C 0.57898 0.55484 0.03479 0.0
C727 C 0.50845 0.52935 0.00392 0.0
C728 C 0.56385 0.57139 0.05144 0.0
C729 C 0.56424 0.56135 0.07207 0.0
C730 C 0.57988 0.5347 0.07633 0.0
C731 C 0.5937 0.51721 0.05932 0.0
C732 C 0.59347 0.52738 0.03883 0.0
H733 H 0.48621 0.5187 0.98976 0.0
H734 H 0.50827 0.50309 0.01033 0.0
H735 H 0.50014 0.54702 0.01674 0.0
H736 H 0.55278 0.59287 0.04861 0.0
H737 H 0.55366 0.57554 0.08485 0.0
H738 H 0.10412 0.57523 0.22658 0.0
H739 H 0.10133 0.58319 0.26569 0.0
H740 H 0.995 0.4749 0.25749 0.0
H741 H 0.99768 0.46627 0.21854 0.0
H742 H 0.04369 0.59009 0.2899 0.0
H743 H 0.06405 0.45518 0.30125 0.0
H744 H 0.07343 0.47605 0.27672 0.0
H745 H 0.02436 0.44582 0.28169 0.0
C746 C 0.08016 0.55307 0.23306 0.0
C747 C 0.05134 0.51995 0.21937 0.0
C748 C 0.07859 0.55768 0.25542 0.0
C749 C 0.0483 0.52926 0.26449 0.0
C750 C 0.01908 0.49669 0.25086 0.0
H751 H 0.99908 0.57062 0.39862 0.0
H752 H 0.99135 0.55245 0.35916 0.0
C753 C 0.02065 0.49197 0.22855 0.0
C754 C 0.04713 0.53383 0.28821 0.0
H755 H 0.04932 0.48923 0.33175 0.0
C756 C 0.04485 0.56805 0.29908 0.0
C757 C 0.04895 0.50511 0.30011 0.0
C758 C 0.05319 0.46863 0.28942 0.0
C759 C 0.04442 0.5744 0.32158 0.0
C760 C 0.04562 0.54537 0.33344 0.0
C761 C 0.04786 0.51113 0.32256 0.0
C762 C 0.04772 0.5516 0.35733 0.0
C763 C 0.04394 0.61272 0.33252 0.0
C764 C 0.08103 0.55506 0.36937 0.0
C765 C 0.08529 0.56492 0.39183 0.0
C766 C 0.05627 0.57146 0.4027 0.0
C767 C 0.02188 0.56568 0.3907 0.0
C768 C 1.01763 0.55578 0.36816 0.0
H769 H 0.05153 0.63545 0.32174 0.0
H770 H 1.01433 0.60644 0.3372 0.0
H771 H 0.06465 0.62552 0.34738 0.0
H772 H 0.10443 0.55159 0.36134 0.0
H773 H 0.11185 0.56856 0.40068 0.0
loop_
_geom_bond_atom_site_label_1
_geom_bond_atom_site_label_2
_geom_bond_distance
_geom_bond_site_symmetry_2
_ccdc_geom_bond_type
Tb0 O3 2.453 1_455 S
Tb0 O4 2.596 . S
Tb0 O5 2.374 . S
Tb0 O13 2.343 . S
Tb0 O15 2.353 . S
Tb0 O17 2.427 . S
Tb0 O18 2.513 . S
C1 O5 1.251 . S
C1 O7 1.263 . S
Tb2 O4 2.343 . S
Tb2 O7 2.353 . S
Tb2 O10 2.427 1_455 S
Tb2 O11 2.513 1_455 S
Tb2 O12 2.453 . S
Tb2 O13 2.596 . S
Tb2 O14 2.374 . S
O3 Tb0 2.453 1_655 S
O3 C19 1.245 . S
O4 Tb0 2.596 . S
O4 Tb2 2.343 . S
O4 C19 1.259 1_455 S
O5 Tb0 2.374 . S
O5 C1 1.251 . S
C6 O10 1.275 . S
C6 O11 1.246 . S
O7 C1 1.263 . S
O7 Tb2 2.353 . S
C8 O12 1.245 . S
C8 O13 1.259 . S
C9 O14 1.250 . S
C9 O15 1.263 . S
O10 Tb2 2.427 1_655 S
O10 C6 1.275 . S
O11 Tb2 2.513 1_655 S
O11 C6 1.246 . S
O12 Tb2 2.453 . S
O12 C8 1.245 . S
O13 Tb0 2.343 . S
O13 Tb2 2.596 . S
O13 C8 1.259 . S
O14 Tb2 2.374 . S
O14 C9 1.250 . S
O15 Tb0 2.353 . S
O15 C9 1.263 . S
C16 O17 1.275 . S
C16 O18 1.246 . S
O17 Tb0 2.427 . S
O17 C16 1.275 . S
O18 Tb0 2.513 . S
O18 C16 1.246 . S
C19 O3 1.245 . S
C19 O4 1.259 1_655 S
Tb20 O23 2.453 . S
Tb20 O24 2.596 . S
Tb20 O25 2.374 . S
Tb20 O33 2.343 . S
Tb20 O35 2.353 . S
Tb20 O37 2.427 1_545 S
Tb20 O38 2.513 1_545 S
C21 O25 1.251 . S
C21 O27 1.263 . S
Tb22 O24 2.343 . S
Tb22 O27 2.353 . S
Tb22 O30 2.427 . S
Tb22 O31 2.513 . S
Tb22 O32 2.453 . S
Tb22 O33 2.596 . S
Tb22 O34 2.374 . S
O23 Tb20 2.453 . S
O23 C39 1.245 . S
O24 Tb20 2.596 . S
O24 Tb22 2.343 . S
O24 C39 1.259 . S
O25 Tb20 2.374 . S
O25 C21 1.251 . S
C26 O30 1.275 . S
C26 O31 1.246 . S
O27 C21 1.263 . S
O27 Tb22 2.353 . S
C28 O32 1.245 1_565 S
C28 O33 1.259 1_565 S
C29 O34 1.250 . S
C29 O35 1.263 . S
O30 Tb22 2.427 . S
O30 C26 1.275 . S
O31 Tb22 2.513 . S
O31 C26 1.246 . S
O32 Tb22 2.453 . S
O32 C28 1.245 1_545 S
O33 Tb20 2.343 . S
O33 Tb22 2.596 . S
O33 C28 1.259 1_545 S
O34 Tb22 2.374 . S
O34 C29 1.250 . S
O35 Tb20 2.353 . S
O35 C29 1.263 . S
C36 O37 1.275 . S
C36 O38 1.246 . S
O37 Tb20 2.427 1_565 S
O37 C36 1.275 . S
O38 Tb20 2.513 1_565 S
O38 C36 1.246 . S
C39 O23 1.245 . S
C39 O24 1.259 . S
Tb40 O43 2.453 . S
Tb40 O44 2.596 . S
Tb40 O45 2.374 . S
Tb40 O53 2.343 . S
Tb40 O55 2.353 . S
Tb40 O57 2.427 . S
Tb40 O58 2.513 . S
C41 O45 1.251 . S
C41 O47 1.263 . S
Tb42 O44 2.343 . S
Tb42 O47 2.353 . S
Tb42 O50 2.427 . S
Tb42 O51 2.513 . S
Tb42 O52 2.453 . S
Tb42 O53 2.596 . S
Tb42 O54 2.374 . S
O43 Tb40 2.453 . S
O43 C59 1.245 . S
O44 Tb40 2.596 . S
O44 Tb42 2.343 . S
O44 C59 1.259 . S
O45 Tb40 2.374 . S
O45 C41 1.251 . S
C46 O50 1.275 . S
C46 O51 1.246 . S
O47 C41 1.263 . S
O47 Tb42 2.353 . S
C48 O52 1.245 . S
C48 O53 1.259 . S
C49 O54 1.250 . S
C49 O55 1.263 . S
O50 Tb42 2.427 . S
O50 C46 1.275 . S
O51 Tb42 2.513 . S
O51 C46 1.246 . S
O52 Tb42 2.453 . S
O52 C48 1.245 . S
O53 Tb40 2.343 . S
O53 Tb42 2.596 . S
O53 C48 1.259 . S
O54 Tb42 2.374 . S
O54 C49 1.250 . S
O55 Tb40 2.353 . S
O55 C49 1.263 . S
C56 O57 1.275 . S
C56 O58 1.246 . S
O57 Tb40 2.427 . S
O57 C56 1.275 . S
O58 Tb40 2.513 . S
O58 C56 1.246 . S
C59 O43 1.245 . S
C59 O44 1.259 . S
H60 C63 0.929 . S
H61 C66 0.929 . S
H62 C68 0.930 . S
C63 H60 0.929 . S
C63 C64 1.398 . S
C63 C65 1.396 . S
C64 C63 1.398 . S
C64 C68 1.407 . S
C65 C63 1.396 . S
C65 C66 1.394 . S
C66 H61 0.929 . S
C66 C65 1.394 . S
C66 C67 1.382 . S
C67 C66 1.382 . S
C67 C68 1.392 . S
C67 N69 1.420 . S
C68 H62 0.930 . S
C68 C64 1.407 . S
C68 C67 1.392 . S
N69 C67 1.420 . S
N69 C70 1.244 . S
C70 N69 1.244 . S
H71 C74 0.929 . S
H72 C77 0.929 . S
H73 C79 0.930 . S
C74 H71 0.929 . S
C74 C75 1.398 . S
C74 C76 1.396 . S
C75 C74 1.398 . S
C75 C79 1.407 . S
C76 C74 1.396 . S
C76 C77 1.394 . S
C77 H72 0.929 . S
C77 C76 1.394 . S
C77 C78 1.382 . S
C78 C77 1.382 . S
C78 C79 1.392 . S
C78 N80 1.420 . S
C79 H73 0.930 . S
C79 C75 1.407 . S
C79 C78 1.392 . S
N80 C78 1.420 . S
N80 C81 1.244 . S
C81 N80 1.244 . S
H82 C85 0.929 . S
H83 C88 0.929 . S
H84 C90 0.930 . S
C85 H82 0.929 . S
C85 C86 1.398 . S
C85 C87 1.396 . S
C86 C85 1.398 . S
C86 C90 1.407 . S
C87 C85 1.396 . S
C87 C88 1.394 . S
C88 H83 0.929 . S
C88 C87 1.394 . S
C88 C89 1.382 . S
C89 C88 1.382 . S
C89 C90 1.392 . S
C89 N91 1.420 . S
C90 H84 0.930 . S
C90 C86 1.407 . S
C90 C89 1.392 . S
N91 C89 1.420 . S
N91 C92 1.244 . S
C92 N91 1.244 . S
H93 C96 0.929 . S
H94 C99 0.929 . S
H95 C101 0.930 . S
C96 H93 0.929 . S
C96 C97 1.398 . S
C96 C98 1.396 . S
C97 C96 1.398 . S
C97 C101 1.407 . S
C98 C96 1.396 . S
C98 C99 1.394 1_455 S
C99 H94 0.929 . S
C99 C98 1.394 1_655 S
C99 C100 1.382 . S
C100 C99 1.382 . S
C100 C101 1.392 1_655 S
C100 N102 1.420 . S
C101 H95 0.930 . S
C101 C97 1.407 . S
C101 C100 1.392 1_455 S
N102 C100 1.420 . S
N102 C103 1.244 . S
C103 N102 1.244 . S
H104 C107 0.929 . S
H105 C110 0.929 1_565 S
H106 C112 0.930 . S
C107 H104 0.929 . S
C107 C108 1.398 . S
C107 C109 1.396 . S
C108 C107 1.398 . S
C108 C112 1.407 . S
C109 C107 1.396 . S
C109 C110 1.394 . S
C110 H105 0.929 1_545 S
C110 C109 1.394 . S
C110 C111 1.382 . S
C111 C110 1.382 . S
C111 C112 1.392 . S
C111 N113 1.420 . S
C112 H106 0.930 . S
C112 C108 1.407 . S
C112 C111 1.392 . S
N113 C111 1.420 . S
N113 C114 1.244 1_545 S
C114 N113 1.244 1_565 S
H115 C118 0.929 . S
H116 C121 0.929 . S
H117 C123 0.930 . S
C118 H115 0.929 . S
C118 C119 1.398 . S
C118 C120 1.396 . S
C119 C118 1.398 . S
C119 C123 1.407 . S
C120 C118 1.396 . S
C120 C121 1.394 . S
C121 H116 0.929 . S
C121 C120 1.394 . S
C121 C122 1.382 . S
C122 C121 1.382 . S
C122 C123 1.392 . S
C122 N124 1.420 . S
C123 H117 0.930 . S
C123 C119 1.407 . S
C123 C122 1.392 . S
N124 C122 1.420 . S
N124 C125 1.244 . S
C125 N124 1.244 . S
H126 C134 0.929 . S
H127 C136 0.930 . S
H128 C138 0.930 . S
H129 C141 0.929 . S
H130 C144 0.930 . S
H131 C146 0.960 . S
H132 C146 0.960 . S
H133 C146 0.960 . S
C134 H126 0.929 . S
C134 C135 1.377 . S
C134 C136 1.384 . S
C135 C134 1.377 . S
C135 C141 1.390 . S
C136 H127 0.930 . S
C136 C134 1.384 . S
C136 C137 1.372 . S
C137 C136 1.372 . S
C137 C138 1.400 . S
C137 C142 1.490 . S
C138 H128 0.930 . S
C138 C137 1.400 . S
C138 C141 1.386 . S
H139 C155 0.930 . S
H140 C156 0.931 . S
C141 H129 0.929 . S
C141 C135 1.390 . S
C141 C138 1.386 . S
C142 C137 1.490 . S
C142 C144 1.395 . S
C142 C145 1.403 . S
H143 C149 0.930 . S
C144 H130 0.930 . S
C144 C142 1.395 . S
C144 C147 1.403 . S
C145 C142 1.403 . S
C145 C146 1.524 . S
C145 C149 1.400 . S
C146 H131 0.960 . S
C146 H132 0.960 . S
C146 H133 0.960 . S
C146 C145 1.524 . S
C147 C144 1.403 . S
C147 C148 1.392 . S
C147 C151 1.495 . S
C148 C147 1.392 . S
C148 C149 1.385 . S
C148 C150 1.478 . S
C149 H143 0.930 . S
C149 C145 1.400 . S
C149 C148 1.385 . S
C150 C148 1.478 . S
C150 C152 1.381 . S
C150 C156 1.383 . S
C151 C147 1.495 . S
C151 H157 0.959 . S
C151 H158 0.961 . S
C151 H159 0.960 . S
C152 C150 1.381 . S
C152 C153 1.394 . S
C152 H160 0.930 . S
C153 C152 1.394 . S
C153 C154 1.383 . S
C153 H161 0.929 . S
C154 C153 1.383 . S
C154 C155 1.377 . S
C155 H139 0.930 . S
C155 C154 1.377 . S
C155 C156 1.379 . S
C156 H140 0.931 . S
C156 C150 1.383 . S
C156 C155 1.379 . S
H157 C151 0.959 . S
H158 C151 0.961 . S
H159 C151 0.960 . S
H160 C152 0.930 . S
H161 C153 0.929 . S
H162 C170 0.929 . S
H163 C172 0.930 . S
H164 C174 0.930 . S
H165 C177 0.929 . S
H166 C180 0.930 . S
H167 C182 0.960 . S
H168 C182 0.960 . S
H169 C182 0.960 . S
C170 H162 0.929 . S
C170 C171 1.377 . S
C170 C172 1.384 . S
C171 C170 1.377 . S
C171 C177 1.390 . S
C172 H163 0.930 . S
C172 C170 1.384 . S
C172 C173 1.372 . S
C173 C172 1.372 . S
C173 C174 1.400 . S
C173 C178 1.490 . S
C174 H164 0.930 . S
C174 C173 1.400 . S
C174 C177 1.386 . S
H175 C191 0.930 . S
H176 C192 0.931 . S
C177 H165 0.929 . S
C177 C171 1.390 . S
C177 C174 1.386 . S
C178 C173 1.490 . S
C178 C180 1.395 . S
C178 C181 1.403 . S
H179 C185 0.930 . S
C180 H166 0.930 . S
C180 C178 1.395 . S
C180 C183 1.403 . S
C181 C178 1.403 . S
C181 C182 1.524 . S
C181 C185 1.400 . S
C182 H167 0.960 . S
C182 H168 0.960 . S
C182 H169 0.960 . S
C182 C181 1.524 . S
C183 C180 1.403 . S
C183 C184 1.392 . S
C183 C187 1.495 . S
C184 C183 1.392 . S
C184 C185 1.385 . S
C184 C186 1.478 . S
C185 H179 0.930 . S
C185 C181 1.400 . S
C185 C184 1.385 . S
C186 C184 1.478 . S
C186 C188 1.381 . S
C186 C192 1.383 . S
C187 C183 1.495 . S
C187 H193 0.959 . S
C187 H194 0.961 . S
C187 H195 0.960 . S
C188 C186 1.381 . S
C188 C189 1.394 . S
C188 H196 0.930 . S
C189 C188 1.394 . S
C189 C190 1.383 . S
C189 H197 0.929 . S
C190 C189 1.383 . S
C190 C191 1.377 . S
C191 H175 0.930 . S
C191 C190 1.377 . S
C191 C192 1.379 . S
C192 H176 0.931 . S
C192 C186 1.383 . S
C192 C191 1.379 . S
H193 C187 0.959 . S
H194 C187 0.961 . S
H195 C187 0.960 . S
H196 C188 0.930 . S
H197 C189 0.929 . S
H198 C206 0.929 . S
H199 C208 0.930 . S
H200 C210 0.930 . S
H201 C213 0.929 . S
H202 C216 0.930 . S
H203 C218 0.960 . S
H204 C218 0.960 . S
H205 C218 0.960 . S
C206 H198 0.929 . S
C206 C207 1.377 . S
C206 C208 1.384 . S
C207 C206 1.377 . S
C207 C213 1.390 . S
C208 H199 0.930 . S
C208 C206 1.384 . S
C208 C209 1.372 . S
C209 C208 1.372 . S
C209 C210 1.400 . S
C209 C214 1.490 . S
C210 H200 0.930 . S
C210 C209 1.400 . S
C210 C213 1.386 . S
H211 C227 0.930 . S
H212 C228 0.931 . S
C213 H201 0.929 . S
C213 C207 1.390 . S
C213 C210 1.386 . S
C214 C209 1.490 . S
C214 C216 1.395 . S
C214 C217 1.403 . S
H215 C221 0.930 . S
C216 H202 0.930 . S
C216 C214 1.395 . S
C216 C219 1.403 . S
C217 C214 1.403 . S
C217 C218 1.524 . S
C217 C221 1.400 . S
C218 H203 0.960 . S
C218 H204 0.960 . S
C218 H205 0.960 . S
C218 C217 1.524 . S
C219 C216 1.403 . S
C219 C220 1.392 . S
C219 C223 1.495 . S
C220 C219 1.392 . S
C220 C221 1.385 . S
C220 C222 1.478 . S
C221 H215 0.930 . S
C221 C217 1.400 . S
C221 C220 1.385 . S
C222 C220 1.478 . S
C222 C224 1.381 . S
C222 C228 1.383 . S
C223 C219 1.495 . S
C223 H229 0.959 . S
C223 H230 0.961 . S
C223 H231 0.960 . S
C224 C222 1.381 . S
C224 C225 1.394 . S
C224 H232 0.930 . S
C225 C224 1.394 . S
C225 C226 1.383 . S
C225 H233 0.929 . S
C226 C225 1.383 . S
C226 C227 1.377 . S
C227 H211 0.930 . S
C227 C226 1.377 . S
C227 C228 1.379 . S
C228 H212 0.931 . S
C228 C222 1.383 . S
C228 C227 1.379 . S
H229 C223 0.959 . S
H230 C223 0.961 . S
H231 C223 0.960 . S
H232 C224 0.930 . S
H233 C225 0.929 . S
H234 C242 0.929 . S
H235 C244 0.930 . S
H236 C246 0.930 . S
H237 C249 0.929 . S
H238 C252 0.930 . S
H239 C254 0.960 . S
H240 C254 0.960 . S
H241 C254 0.960 . S
C242 H234 0.929 . S
C242 C243 1.377 . S
C242 C244 1.384 . S
C243 C242 1.377 . S
C243 C249 1.390 . S
C244 H235 0.930 . S
C244 C242 1.384 . S
C244 C245 1.372 . S
C245 C244 1.372 . S
C245 C246 1.400 . S
C245 C250 1.490 . S
C246 H236 0.930 . S
C246 C245 1.400 . S
C246 C249 1.386 . S
H247 C263 0.930 . S
H248 C264 0.931 . S
C249 H237 0.929 . S
C249 C243 1.390 . S
C249 C246 1.386 . S
C250 C245 1.490 . S
C250 C252 1.395 . S
C250 C253 1.403 . S
H251 C257 0.930 . S
C252 H238 0.930 . S
C252 C250 1.395 . S
C252 C255 1.403 . S
C253 C250 1.403 . S
C253 C254 1.524 . S
C253 C257 1.400 . S
C254 H239 0.960 . S
C254 H240 0.960 . S
C254 H241 0.960 . S
C254 C253 1.524 . S
C255 C252 1.403 . S
C255 C256 1.392 . S
C255 C259 1.495 . S
C256 C255 1.392 . S
C256 C257 1.385 . S
C256 C258 1.478 . S
C257 H251 0.930 . S
C257 C253 1.400 . S
C257 C256 1.385 . S
C258 C256 1.478 . S
C258 C260 1.381 . S
C258 C264 1.383 . S
C259 C255 1.495 . S
C259 H265 0.959 . S
C259 H266 0.961 . S
C259 H267 0.960 . S
C260 C258 1.381 . S
C260 C261 1.394 . S
C260 H268 0.930 . S
C261 C260 1.394 . S
C261 C262 1.383 . S
C261 H269 0.929 . S
C262 C261 1.383 . S
C262 C263 1.377 . S
C263 H247 0.930 . S
C263 C262 1.377 . S
C263 C264 1.379 . S
C264 H248 0.931 . S
C264 C258 1.383 . S
C264 C263 1.379 . S
H265 C259 0.959 . S
H266 C259 0.961 . S
H267 C259 0.960 . S
H268 C260 0.930 . S
H269 C261 0.929 . S
H270 C278 0.929 . S
H271 C280 0.930 . S
H272 C282 0.930 . S
H273 C285 0.929 . S
H274 C288 0.930 . S
H275 C290 0.960 . S
H276 C290 0.960 . S
H277 C290 0.960 . S
C278 H270 0.929 . S
C278 C279 1.377 . S
C278 C280 1.384 . S
C279 C278 1.377 . S
C279 C285 1.390 . S
C280 H271 0.930 . S
C280 C278 1.384 . S
C280 C281 1.372 . S
C281 C280 1.372 . S
C281 C282 1.400 . S
C281 C286 1.490 . S
C282 H272 0.930 . S
C282 C281 1.400 . S
C282 C285 1.386 . S
H283 C299 0.930 . S
H284 C300 0.931 . S
C285 H273 0.929 . S
C285 C279 1.390 . S
C285 C282 1.386 . S
C286 C281 1.490 . S
C286 C288 1.395 . S
C286 C289 1.403 . S
H287 C293 0.930 . S
C288 H274 0.930 . S
C288 C286 1.395 . S
C288 C291 1.403 . S
C289 C286 1.403 . S
C289 C290 1.524 . S
C289 C293 1.400 . S
C290 H275 0.960 . S
C290 H276 0.960 . S
C290 H277 0.960 . S
C290 C289 1.524 . S
C291 C288 1.403 . S
C291 C292 1.392 . S
C291 C295 1.495 . S
C292 C291 1.392 . S
C292 C293 1.385 . S
C292 C294 1.478 . S
C293 H287 0.930 . S
C293 C289 1.400 . S
C293 C292 1.385 . S
C294 C292 1.478 . S
C294 C296 1.381 . S
C294 C300 1.383 . S
C295 C291 1.495 . S
C295 H301 0.959 . S
C295 H302 0.961 . S
C295 H303 0.960 . S
C296 C294 1.381 . S
C296 C297 1.394 . S
C296 H304 0.930 . S
C297 C296 1.394 . S
C297 C298 1.383 . S
C297 H305 0.929 . S
C298 C297 1.383 . S
C298 C299 1.377 . S
C299 H283 0.930 . S
C299 C298 1.377 . S
C299 C300 1.379 . S
C300 H284 0.931 . S
C300 C294 1.383 . S
C300 C299 1.379 . S
H301 C295 0.959 . S
H302 C295 0.961 . S
H303 C295 0.960 . S
H304 C296 0.930 . S
H305 C297 0.929 . S
H306 C314 0.929 . S
H307 C316 0.930 . S
H308 C318 0.930 . S
H309 C321 0.929 . S
H310 C324 0.930 . S
H311 C326 0.960 . S
H312 C326 0.960 . S
H313 C326 0.960 . S
C314 H306 0.929 . S
C314 C315 1.377 . S
C314 C316 1.384 . S
C315 C314 1.377 . S
C315 C321 1.390 . S
C316 H307 0.930 . S
C316 C314 1.384 . S
C316 C317 1.372 . S
C317 C316 1.372 . S
C317 C318 1.400 . S
C317 C322 1.490 . S
C318 H308 0.930 . S
C318 C317 1.400 . S
C318 C321 1.386 . S
H319 C335 0.930 . S
H320 C336 0.931 . S
C321 H309 0.929 . S
C321 C315 1.390 . S
C321 C318 1.386 . S
C322 C317 1.490 . S
C322 C324 1.395 . S
C322 C325 1.403 . S
H323 C329 0.930 . S
C324 H310 0.930 . S
C324 C322 1.395 . S
C324 C327 1.403 . S
C325 C322 1.403 . S
C325 C326 1.524 . S
C325 C329 1.400 . S
C326 H311 0.960 . S
C326 H312 0.960 . S
C326 H313 0.960 . S
C326 C325 1.524 . S
C327 C324 1.403 . S
C327 C328 1.392 . S
C327 C331 1.495 . S
C328 C327 1.392 . S
C328 C329 1.385 . S
C328 C330 1.478 . S
C329 H323 0.930 . S
C329 C325 1.400 . S
C329 C328 1.385 . S
C330 C328 1.478 . S
C330 C332 1.381 . S
C330 C336 1.383 . S
C331 C327 1.495 . S
C331 H337 0.959 . S
C331 H338 0.961 . S
C331 H339 0.960 . S
C332 C330 1.381 . S
C332 C333 1.394 . S
C332 H340 0.930 . S
C333 C332 1.394 . S
C333 C334 1.383 . S
C333 H341 0.929 . S
C334 C333 1.383 . S
C334 C335 1.377 . S
C335 H319 0.930 . S
C335 C334 1.377 . S
C335 C336 1.379 . S
C336 H320 0.931 . S
C336 C330 1.383 . S
C336 C335 1.379 . S
H337 C331 0.959 . S
H338 C331 0.961 . S
H339 C331 0.960 . S
H340 C332 0.930 . S
H341 C333 0.929 . S
H342 C350 0.929 . S
H343 C352 0.930 . S
H344 C354 0.930 . S
H345 C357 0.929 . S
H346 C360 0.930 . S
H347 C362 0.960 . S
H348 C362 0.960 . S
H349 C362 0.960 . S
C350 H342 0.929 . S
C350 C351 1.377 . S
C350 C352 1.384 . S
C351 C350 1.377 . S
C351 C357 1.390 . S
C352 H343 0.930 . S
C352 C350 1.384 . S
C352 C353 1.372 . S
C353 C352 1.372 . S
C353 C354 1.400 . S
C353 C358 1.490 . S
C354 H344 0.930 . S
C354 C353 1.400 . S
C354 C357 1.386 . S
H355 C371 0.930 . S
H356 C372 0.931 . S
C357 H345 0.929 . S
C357 C351 1.390 . S
C357 C354 1.386 . S
C358 C353 1.490 . S
C358 C360 1.395 . S
C358 C361 1.403 . S
H359 C365 0.930 . S
C360 H346 0.930 . S
C360 C358 1.395 . S
C360 C363 1.403 . S
C361 C358 1.403 . S
C361 C362 1.524 . S
C361 C365 1.400 . S
C362 H347 0.960 . S
C362 H348 0.960 . S
C362 H349 0.960 . S
C362 C361 1.524 . S
C363 C360 1.403 . S
C363 C364 1.392 . S
C363 C367 1.495 . S
C364 C363 1.392 . S
C364 C365 1.385 . S
C364 C366 1.478 . S
C365 H359 0.930 . S
C365 C361 1.400 . S
C365 C364 1.385 . S
C366 C364 1.478 . S
C366 C368 1.381 . S
C366 C372 1.383 . S
C367 C363 1.495 . S
C367 H373 0.959 . S
C367 H374 0.961 . S
C367 H375 0.960 . S
C368 C366 1.381 . S
C368 C369 1.394 . S
C368 H376 0.930 . S
C369 C368 1.394 . S
C369 C370 1.383 . S
C369 H377 0.929 . S
C370 C369 1.383 . S
C370 C371 1.377 . S
C371 H355 0.930 . S
C371 C370 1.377 . S
C371 C372 1.379 . S
C372 H356 0.931 . S
C372 C366 1.383 . S
C372 C371 1.379 . S
H373 C367 0.959 . S
H374 C367 0.961 . S
H375 C367 0.960 . S
H376 C368 0.930 . S
H377 C369 0.929 . S
H378 C386 0.929 . S
H379 C388 0.930 . S
H380 C390 0.930 . S
H381 C393 0.929 . S
H382 C396 0.930 . S
H383 C398 0.960 . S
H384 C398 0.960 . S
H385 C398 0.960 . S
C386 H378 0.929 . S
C386 C387 1.377 . S
C386 C388 1.384 . S
C387 C386 1.377 . S
C387 C393 1.390 . S
C388 H379 0.930 . S
C388 C386 1.384 . S
C388 C389 1.372 . S
C389 C388 1.372 . S
C389 C390 1.400 . S
C389 C394 1.490 . S
C390 H380 0.930 . S
C390 C389 1.400 . S
C390 C393 1.386 . S
H391 C407 0.930 . S
H392 C408 0.931 . S
C393 H381 0.929 . S
C393 C387 1.390 . S
C393 C390 1.386 . S
C394 C389 1.490 . S
C394 C396 1.395 . S
C394 C397 1.403 . S
H395 C401 0.930 . S
C396 H382 0.930 . S
C396 C394 1.395 . S
C396 C399 1.403 . S
C397 C394 1.403 . S
C397 C398 1.524 . S
C397 C401 1.400 . S
C398 H383 0.960 . S
C398 H384 0.960 . S
C398 H385 0.960 . S
C398 C397 1.524 . S
C399 C396 1.403 . S
C399 C400 1.392 . S
C399 C403 1.495 . S
C400 C399 1.392 . S
C400 C401 1.385 . S
C400 C402 1.478 . S
C401 H395 0.930 . S
C401 C397 1.400 . S
C401 C400 1.385 . S
C402 C400 1.478 . S
C402 C404 1.381 . S
C402 C408 1.383 . S
C403 C399 1.495 . S
C403 H409 0.959 . S
C403 H410 0.961 . S
C403 H411 0.960 . S
C404 C402 1.381 . S
C404 C405 1.394 1_655 S
C404 H412 0.930 . S
C405 C404 1.394 1_455 S
C405 C406 1.383 . S
C405 H413 0.929 . S
C406 C405 1.383 . S
C406 C407 1.377 1_455 S
C407 H391 0.930 . S
C407 C406 1.377 1_655 S
C407 C408 1.379 . S
C408 H392 0.931 . S
C408 C402 1.383 . S
C408 C407 1.379 . S
H409 C403 0.959 . S
H410 C403 0.961 . S
H411 C403 0.960 . S
H412 C404 0.930 . S
H413 C405 0.929 . S
H414 C422 0.929 . S
H415 C424 0.930 . S
H416 C426 0.930 . S
H417 C429 0.929 . S
H418 C432 0.930 . S
H419 C434 0.960 . S
H420 C434 0.960 . S
H421 C434 0.960 . S
C422 H414 0.929 . S
C422 C423 1.377 . S
C422 C424 1.384 . S
C423 C422 1.377 . S
C423 C429 1.390 . S
C424 H415 0.930 . S
C424 C422 1.384 . S
C424 C425 1.372 . S
C425 C424 1.372 . S
C425 C426 1.400 . S
C425 C430 1.490 . S
C426 H416 0.930 . S
C426 C425 1.400 . S
C426 C429 1.386 . S
H427 C443 0.930 . S
H428 C444 0.931 . S
C429 H417 0.929 . S
C429 C423 1.390 . S
C429 C426 1.386 . S
C430 C425 1.490 . S
C430 C432 1.395 . S
C430 C433 1.403 . S
H431 C437 0.930 . S
C432 H418 0.930 . S
C432 C430 1.395 . S
C432 C435 1.403 . S
C433 C430 1.403 . S
C433 C434 1.524 . S
C433 C437 1.400 . S
C434 H419 0.960 . S
C434 H420 0.960 . S
C434 H421 0.960 . S
C434 C433 1.524 . S
C435 C432 1.403 . S
C435 C436 1.392 . S
C435 C439 1.495 . S
C436 C435 1.392 . S
C436 C437 1.385 . S
C436 C438 1.478 . S
C437 H431 0.930 . S
C437 C433 1.400 . S
C437 C436 1.385 . S
C438 C436 1.478 . S
C438 C440 1.381 . S
C438 C444 1.383 . S
C439 C435 1.495 . S
C439 H445 0.959 . S
C439 H446 0.961 . S
C439 H447 0.960 . S
C440 C438 1.381 . S
C440 C441 1.394 . S
C440 H448 0.930 . S
C441 C440 1.394 . S
C441 C442 1.383 . S
C441 H449 0.929 1_565 S
C442 C441 1.383 . S
C442 C443 1.377 . S
C443 H427 0.930 . S
C443 C442 1.377 . S
C443 C444 1.379 . S
C444 H428 0.931 . S
C444 C438 1.383 . S
C444 C443 1.379 . S
H445 C439 0.959 . S
H446 C439 0.961 . S
H447 C439 0.960 . S
H448 C440 0.930 . S
H449 C441 0.929 1_545 S
H450 C458 0.929 . S
H451 C460 0.930 . S
H452 C462 0.930 . S
H453 C465 0.929 . S
H454 C468 0.930 . S
H455 C470 0.960 . S
H456 C470 0.960 . S
H457 C470 0.960 . S
C458 H450 0.929 . S
C458 C459 1.377 . S
C458 C460 1.384 . S
C459 C458 1.377 . S
C459 C465 1.390 . S
C460 H451 0.930 . S
C460 C458 1.384 . S
C460 C461 1.372 . S
C461 C460 1.372 . S
C461 C462 1.400 . S
C461 C466 1.490 . S
C462 H452 0.930 . S
C462 C461 1.400 . S
C462 C465 1.386 . S
H463 C479 0.930 . S
H464 C480 0.931 . S
C465 H453 0.929 . S
C465 C459 1.390 . S
C465 C462 1.386 . S
C466 C461 1.490 . S
C466 C468 1.395 . S
C466 C469 1.403 . S
H467 C473 0.930 . S
C468 H454 0.930 . S
C468 C466 1.395 . S
C468 C471 1.403 . S
C469 C466 1.403 . S
C469 C470 1.524 . S
C469 C473 1.400 . S
C470 H455 0.960 . S
C470 H456 0.960 . S
C470 H457 0.960 . S
C470 C469 1.524 . S
C471 C468 1.403 . S
C471 C472 1.392 . S
C471 C475 1.495 . S
C472 C471 1.392 . S
C472 C473 1.385 . S
C472 C474 1.478 . S
C473 H467 0.930 . S
C473 C469 1.400 . S
C473 C472 1.385 . S
C474 C472 1.478 . S
C474 C476 1.381 . S
C474 C480 1.383 . S
C475 C471 1.495 . S
C475 H481 0.959 . S
C475 H482 0.961 . S
C475 H483 0.960 . S
C476 C474 1.381 . S
C476 C477 1.394 . S
C476 H484 0.930 . S
C477 C476 1.394 . S
C477 C478 1.383 . S
C477 H485 0.929 . S
C478 C477 1.383 . S
C478 C479 1.377 . S
C479 H463 0.930 . S
C479 C478 1.377 . S
C479 C480 1.379 . S
C480 H464 0.931 . S
C480 C474 1.383 . S
C480 C479 1.379 . S
H481 C475 0.959 . S
H482 C475 0.961 . S
H483 C475 0.960 . S
H484 C476 0.930 . S
H485 C477 0.929 . S
H486 C494 0.929 . S
H487 C496 0.930 . S
H488 C498 0.930 . S
H489 C501 0.929 . S
H490 C504 0.930 . S
H491 C506 0.960 . S
H492 C506 0.960 . S
H493 C506 0.960 . S
C494 H486 0.929 . S
C494 C495 1.377 . S
C494 C496 1.384 . S
C495 C494 1.377 . S
C495 C501 1.390 . S
C496 H487 0.930 . S
C496 C494 1.384 . S
C496 C497 1.372 . S
C497 C496 1.372 . S
C497 C498 1.400 . S
C497 C502 1.490 . S
C498 H488 0.930 . S
C498 C497 1.400 . S
C498 C501 1.386 . S
H499 C515 0.930 . S
H500 C516 0.931 . S
C501 H489 0.929 . S
C501 C495 1.390 . S
C501 C498 1.386 . S
C502 C497 1.490 . S
C502 C504 1.395 . S
C502 C505 1.403 . S
H503 C509 0.930 . S
C504 H490 0.930 . S
C504 C502 1.395 . S
C504 C507 1.403 . S
C505 C502 1.403 . S
C505 C506 1.524 . S
C505 C509 1.400 . S
C506 H491 0.960 . S
C506 H492 0.960 . S
C506 H493 0.960 . S
C506 C505 1.524 . S
C507 C504 1.403 . S
C507 C508 1.392 . S
C507 C511 1.495 . S
C508 C507 1.392 . S
C508 C509 1.385 . S
C508 C510 1.478 . S
C509 H503 0.930 . S
C509 C505 1.400 . S
C509 C508 1.385 . S
C510 C508 1.478 . S
C510 C512 1.381 . S
C510 C516 1.383 . S
C511 C507 1.495 . S
C511 H517 0.959 . S
C511 H518 0.961 . S
C511 H519 0.960 . S
C512 C510 1.381 . S
C512 C513 1.394 . S
C512 H520 0.930 . S
C513 C512 1.394 . S
C513 C514 1.383 . S
C513 H521 0.929 . S
C514 C513 1.383 . S
C514 C515 1.377 . S
C515 H499 0.930 . S
C515 C514 1.377 . S
C515 C516 1.379 . S
C516 H500 0.931 . S
C516 C510 1.383 . S
C516 C515 1.379 . S
H517 C511 0.959 . S
H518 C511 0.961 . S
H519 C511 0.960 . S
H520 C512 0.930 . S
H521 C513 0.929 . S
H522 C530 0.929 . S
H523 C532 0.930 . S
H524 C534 0.930 . S
H525 C537 0.929 . S
H526 C540 0.930 . S
H527 C542 0.960 . S
H528 C542 0.960 . S
H529 C542 0.960 . S
C530 H522 0.929 . S
C530 C531 1.377 . S
C530 C532 1.384 . S
C531 C530 1.377 . S
C531 C537 1.390 . S
C532 H523 0.930 . S
C532 C530 1.384 . S
C532 C533 1.372 . S
C533 C532 1.372 . S
C533 C534 1.400 . S
C533 C538 1.490 . S
C534 H524 0.930 . S
C534 C533 1.400 . S
C534 C537 1.386 . S
H535 C551 0.930 . S
H536 C552 0.931 . S
C537 H525 0.929 . S
C537 C531 1.390 . S
C537 C534 1.386 . S
C538 C533 1.490 . S
C538 C540 1.395 . S
C538 C541 1.403 . S
H539 C545 0.930 . S
C540 H526 0.930 . S
C540 C538 1.395 . S
C540 C543 1.403 . S
C541 C538 1.403 . S
C541 C542 1.524 . S
C541 C545 1.400 . S
C542 H527 0.960 . S
C542 H528 0.960 . S
C542 H529 0.960 . S
C542 C541 1.524 . S
C543 C540 1.403 . S
C543 C544 1.392 . S
C543 C547 1.495 . S
C544 C543 1.392 . S
C544 C545 1.385 . S
C544 C546 1.478 . S
C545 H539 0.930 . S
C545 C541 1.400 . S
C545 C544 1.385 . S
C546 C544 1.478 . S
C546 C548 1.381 . S
C546 C552 1.383 . S
C547 C543 1.495 . S
C547 H553 0.959 . S
C547 H554 0.961 . S
C547 H555 0.960 . S
C548 C546 1.381 . S
C548 C549 1.394 . S
C548 H556 0.930 . S
C549 C548 1.394 . S
C549 C550 1.383 . S
C549 H557 0.929 . S
C550 C549 1.383 . S
C550 C551 1.377 . S
C551 H535 0.930 . S
C551 C550 1.377 . S
C551 C552 1.379 . S
C552 H536 0.931 . S
C552 C546 1.383 . S
C552 C551 1.379 . S
H553 C547 0.959 . S
H554 C547 0.961 . S
H555 C547 0.960 . S
H556 C548 0.930 . S
H557 C549 0.929 . S
H558 C566 0.929 . S
H559 C568 0.930 . S
H560 C570 0.930 . S
H561 C573 0.929 . S
H562 C576 0.930 . S
H563 C578 0.960 . S
H564 C578 0.960 . S
H565 C578 0.960 . S
C566 H558 0.929 . S
C566 C567 1.377 . S
C566 C568 1.384 . S
C567 C566 1.377 . S
C567 C573 1.390 . S
C568 H559 0.930 . S
C568 C566 1.384 . S
C568 C569 1.372 . S
C569 C568 1.372 . S
C569 C570 1.400 . S
C569 C574 1.490 . S
C570 H560 0.930 . S
C570 C569 1.400 . S
C570 C573 1.386 . S
H571 C587 0.930 . S
H572 C588 0.931 . S
C573 H561 0.929 . S
C573 C567 1.390 . S
C573 C570 1.386 . S
C574 C569 1.490 . S
C574 C576 1.395 . S
C574 C577 1.403 . S
H575 C581 0.937 . S
C576 H562 0.930 . S
C576 C574 1.395 . S
C576 C579 1.403 1_554 S
C577 C574 1.403 . S
C577 C578 1.524 . S
C577 C581 1.388 1_554 S
C578 H563 0.960 . S
C578 H564 0.960 . S
C578 H565 0.960 . S
C578 C577 1.524 . S
C579 C576 1.403 1_556 S
C579 C580 1.392 . S
C579 C583 1.495 . S
C580 C579 1.392 . S
C580 C581 1.391 . S
C580 C582 1.478 . S
C581 H575 0.937 . S
C581 C577 1.388 1_556 S
C581 C580 1.391 . S
C582 C580 1.478 . S
C582 C584 1.381 . S
C582 C588 1.383 . S
C583 C579 1.495 . S
C583 H589 0.959 . S
C583 H590 0.961 . S
C583 H591 0.960 . S
C584 C582 1.381 . S
C584 C585 1.394 . S
C584 H592 0.930 . S
C585 C584 1.394 . S
C585 C586 1.383 . S
C585 H593 0.929 . S
C586 C585 1.383 . S
C586 C587 1.377 . S
C587 H571 0.930 . S
C587 C586 1.377 . S
C587 C588 1.379 . S
C588 H572 0.931 . S
C588 C582 1.383 . S
C588 C587 1.379 . S
H589 C583 0.959 . S
H590 C583 0.961 . S
H591 C583 0.960 . S
H592 C584 0.930 . S
H593 C585 0.929 . S
H594 C602 0.929 . S
H595 C604 0.930 . S
H596 C606 0.930 . S
H597 C609 0.929 . S
H598 C612 0.930 . S
H599 C614 0.960 . S
H600 C614 0.960 . S
H601 C614 0.960 . S
C602 H594 0.929 . S
C602 C603 1.377 . S
C602 C604 1.384 . S
C603 C602 1.377 . S
C603 C609 1.390 . S
C604 H595 0.930 . S
C604 C602 1.384 . S
C604 C605 1.372 . S
C605 C604 1.372 . S
C605 C606 1.400 . S
C605 C610 1.490 . S
C606 H596 0.930 . S
C606 C605 1.400 . S
C606 C609 1.386 . S
H607 C623 0.930 . S
H608 C624 0.931 . S
C609 H597 0.929 . S
C609 C603 1.390 . S
C609 C606 1.386 . S
C610 C605 1.490 . S
C610 C612 1.395 . S
C610 C613 1.403 . S
H611 C617 0.930 . S
C612 H598 0.930 . S
C612 C610 1.395 . S
C612 C615 1.403 . S
C613 C610 1.403 . S
C613 C614 1.524 . S
C613 C617 1.400 . S
C614 H599 0.960 . S
C614 H600 0.960 . S
C614 H601 0.960 . S
C614 C613 1.524 . S
C615 C612 1.403 . S
C615 C616 1.392 . S
C615 C619 1.495 . S
C616 C615 1.392 . S
C616 C617 1.385 . S
C616 C618 1.478 . S
C617 H611 0.930 . S
C617 C613 1.400 . S
C617 C616 1.385 . S
C618 C616 1.478 . S
C618 C620 1.381 . S
C618 C624 1.383 . S
C619 C615 1.495 . S
C619 H625 0.959 . S
C619 H626 0.961 . S
C619 H627 0.960 . S
C620 C618 1.381 . S
C620 C621 1.394 . S
C620 H628 0.930 . S
C621 C620 1.394 . S
C621 C622 1.383 . S
C621 H629 0.929 . S
C622 C621 1.383 . S
C622 C623 1.377 . S
C623 H607 0.930 . S
C623 C622 1.377 . S
C623 C624 1.379 . S
C624 H608 0.931 . S
C624 C618 1.383 . S
C624 C623 1.379 . S
H625 C619 0.959 . S
H626 C619 0.961 . S
H627 C619 0.960 . S
H628 C620 0.930 . S
H629 C621 0.929 . S
H630 C638 0.929 . S
H631 C640 0.930 . S
H632 C642 0.930 . S
H633 C645 0.929 . S
H634 C648 0.930 . S
H635 C650 0.960 . S
H636 C650 0.960 . S
H637 C650 0.960 . S
C638 H630 0.929 . S
C638 C639 1.377 . S
C638 C640 1.384 . S
C639 C638 1.377 . S
C639 C645 1.390 . S
C640 H631 0.930 . S
C640 C638 1.384 . S
C640 C641 1.372 . S
C641 C640 1.372 . S
C641 C642 1.400 . S
C641 C646 1.490 . S
C642 H632 0.930 . S
C642 C641 1.400 . S
C642 C645 1.386 . S
H643 C659 0.930 . S
H644 C660 0.931 . S
C645 H633 0.929 . S
C645 C639 1.390 . S
C645 C642 1.386 . S
C646 C641 1.490 . S
C646 C648 1.395 . S
C646 C649 1.403 . S
H647 C653 0.930 . S
C648 H634 0.930 . S
C648 C646 1.395 . S
C648 C651 1.403 . S
C649 C646 1.403 . S
C649 C650 1.524 . S
C649 C653 1.400 . S
C650 H635 0.960 . S
C650 H636 0.960 . S
C650 H637 0.960 . S
C650 C649 1.524 . S
C651 C648 1.403 . S
C651 C652 1.392 . S
C651 C655 1.495 . S
C652 C651 1.392 . S
C652 C653 1.385 . S
C652 C654 1.478 . S
C653 H647 0.930 . S
C653 C649 1.400 . S
C653 C652 1.385 . S
C654 C652 1.478 . S
C654 C656 1.381 . S
C654 C660 1.383 . S
C655 C651 1.495 . S
C655 H661 0.959 . S
C655 H662 0.961 . S
C655 H663 0.960 . S
C656 C654 1.381 . S
C656 C657 1.394 . S
C656 H664 0.930 . S
C657 C656 1.394 . S
C657 C658 1.383 . S
C657 H665 0.929 . S
C658 C657 1.383 . S
C658 C659 1.377 . S
C659 H643 0.930 . S
C659 C658 1.377 . S
C659 C660 1.379 . S
C660 H644 0.931 . S
C660 C654 1.383 . S
C660 C659 1.379 . S
H661 C655 0.959 . S
H662 C655 0.961 . S
H663 C655 0.960 . S
H664 C656 0.930 . S
H665 C657 0.929 . S
H666 C674 0.929 . S
H667 C676 0.930 . S
H668 C678 0.930 . S
H669 C681 0.929 . S
H670 C684 0.930 1_565 S
H671 C686 0.960 . S
H672 C686 0.960 . S
H673 C686 0.960 . S
C674 H666 0.929 . S
C674 C675 1.377 . S
C674 C676 1.384 . S
C675 C674 1.377 . S
C675 C681 1.390 . S
C676 H667 0.930 . S
C676 C674 1.384 . S
C676 C677 1.372 . S
C677 C676 1.372 . S
C677 C678 1.400 . S
C677 C682 1.490 . S
C678 H668 0.930 . S
C678 C677 1.400 . S
C678 C681 1.386 . S
H679 C695 0.930 . S
H680 C696 0.931 . S
C681 H669 0.929 . S
C681 C675 1.390 . S
C681 C678 1.386 . S
C682 C677 1.490 . S
C682 C684 1.395 . S
C682 C685 1.403 . S
H683 C689 0.930 . S
C684 H670 0.930 1_545 S
C684 C682 1.395 . S
C684 C687 1.403 . S
C685 C682 1.403 . S
C685 C686 1.524 . S
C685 C689 1.400 . S
C686 H671 0.960 . S
C686 H672 0.960 . S
C686 H673 0.960 . S
C686 C685 1.524 . S
C687 C684 1.403 . S
C687 C688 1.392 . S
C687 C691 1.495 1_545 S
C688 C687 1.392 . S
C688 C689 1.385 . S
C688 C690 1.478 . S
C689 H683 0.930 . S
C689 C685 1.400 . S
C689 C688 1.385 . S
C690 C688 1.478 . S
C690 C692 1.381 . S
C690 C696 1.383 . S
C691 C687 1.495 1_565 S
C691 H697 0.959 . S
C691 H698 0.961 . S
C691 H699 0.960 . S
C692 C690 1.381 . S
C692 C693 1.394 . S
C692 H700 0.930 . S
C693 C692 1.394 . S
C693 C694 1.383 . S
C693 H701 0.929 . S
C694 C693 1.383 . S
C694 C695 1.377 . S
C695 H679 0.930 . S
C695 C694 1.377 . S
C695 C696 1.379 . S
C696 H680 0.931 . S
C696 C690 1.383 . S
C696 C695 1.379 . S
H697 C691 0.959 . S
H698 C691 0.961 . S
H699 C691 0.960 . S
H700 C692 0.930 . S
H701 C693 0.929 . S
H702 C710 0.929 . S
H703 C712 0.930 . S
H704 C714 0.930 . S
H705 C717 0.929 . S
H706 C720 0.930 . S
H707 C722 0.960 . S
H708 C722 0.960 . S
H709 C722 0.960 . S
C710 H702 0.929 . S
C710 C711 1.377 . S
C710 C712 1.384 . S
C711 C710 1.377 . S
C711 C717 1.390 . S
C712 H703 0.930 . S
C712 C710 1.384 . S
C712 C713 1.372 . S
C713 C712 1.372 . S
C713 C714 1.400 . S
C713 C718 1.490 . S
C714 H704 0.930 . S
C714 C713 1.400 . S
C714 C717 1.386 . S
H715 C731 0.930 . S
H716 C732 0.931 . S
C717 H705 0.929 . S
C717 C711 1.390 . S
C717 C714 1.386 . S
C718 C713 1.490 . S
C718 C720 1.395 . S
C718 C721 1.403 . S
H719 C725 0.934 1_554 S
C720 H706 0.930 . S
C720 C718 1.395 . S
C720 C723 1.403 . S
C721 C718 1.403 . S
C721 C722 1.524 . S
C721 C725 1.394 . S
C722 H707 0.960 . S
C722 H708 0.960 . S
C722 H709 0.960 . S
C722 C721 1.524 . S
C723 C720 1.403 . S
C723 C724 1.392 1_556 S
C723 C727 1.506 . S
C724 C723 1.392 1_554 S
C724 C725 1.387 1_554 S
C724 C726 1.478 . S
C725 H719 0.934 1_556 S
C725 C721 1.394 . S
C725 C724 1.387 1_556 S
C726 C724 1.478 . S
C726 C728 1.381 . S
C726 C732 1.383 . S
C727 C723 1.506 . S
C727 H733 0.987 . S
C727 H734 0.945 1_556 S
C727 H735 0.938 1_556 S
C728 C726 1.381 . S
C728 C729 1.394 . S
C728 H736 0.930 . S
C729 C728 1.394 . S
C729 C730 1.383 . S
C729 H737 0.929 . S
C730 C729 1.383 . S
C730 C731 1.377 . S
C731 H715 0.930 . S
C731 C730 1.377 . S
C731 C732 1.379 . S
C732 H716 0.931 . S
C732 C726 1.383 . S
C732 C731 1.379 . S
H733 C727 0.987 . S
H734 C727 0.945 1_554 S
H735 C727 0.938 1_554 S
H736 C728 0.930 . S
H737 C729 0.929 . S
H738 C746 0.929 . S
H739 C748 0.930 . S
H740 C750 0.930 . S
H741 C753 0.912 1_655 S
H742 C756 0.930 . S
H743 C758 0.960 . S
H744 C758 0.960 1_455 S
H745 C758 0.960 . S
C746 H738 0.929 . S
C746 C747 1.377 . S
C746 C748 1.384 . S
C747 C746 1.377 . S
C747 C753 1.410 . S
C748 H739 0.930 . S
C748 C746 1.384 . S
C748 C749 1.372 . S
C749 C748 1.372 . S
C749 C750 1.400 1_455 S
C749 C754 1.490 . S
C750 H740 0.930 . S
C750 C749 1.400 1_655 S
C750 C753 1.383 1_655 S
H751 C767 0.930 . S
H752 C768 0.931 . S
C753 H741 0.912 1_455 S
C753 C747 1.410 . S
C753 C750 1.383 1_455 S
C754 C749 1.490 . S
C754 C756 1.395 . S
C754 C757 1.403 . S
H755 C761 0.930 1_655 S
C756 H742 0.930 . S
C756 C754 1.395 . S
C756 C759 1.403 . S
C757 C754 1.403 . S
C757 C758 1.524 1_455 S
C757 C761 1.400 . S
C758 H743 0.960 . S
C758 H744 0.960 1_655 S
C758 H745 0.960 . S
C758 C757 1.524 1_655 S
C759 C756 1.403 . S
C759 C760 1.392 . S
C759 C763 1.495 . S
C760 C759 1.392 . S
C760 C761 1.385 . S
C760 C762 1.478 . S
C761 H755 0.930 1_455 S
C761 C757 1.400 . S
C761 C760 1.385 . S
C762 C760 1.478 . S
C762 C764 1.381 . S
C762 C768 1.383 1_455 S
C763 C759 1.495 . S
C763 H769 0.959 . S
C763 H770 0.961 . S
C763 H771 0.960 . S
C764 C762 1.381 . S
C764 C765 1.394 . S
C764 H772 0.930 . S
C765 C764 1.394 . S
C765 C766 1.383 . S
C765 H773 0.929 . S
C766 C765 1.383 . S
C766 C767 1.377 1_455 S
C767 H751 0.930 . S
C767 C766 1.377 1_655 S
C767 C768 1.379 . S
C768 H752 0.931 . S
C768 C762 1.383 1_655 S
C768 C767 1.379 . S
H769 C763 0.959 . S
H770 C763 0.961 . S
H771 C763 0.960 . S
H772 C764 0.930 . S
H773 C765 0.929 . S
C135 C8 2.066 . S
C154 C125 2.102 . S
C171 C26 1.363 . S
C190 C103 1.338 . S
C207 C48 1.544 . S
C226 C114 1.577 . S
C243 C19 1.638 . S
C262 C119 1.663 . S
C298 C97 1.356 . S
C279 C36 1.345 . S
C334 C108 1.537 . S
C315 C59 1.494 . S
C351 C28 1.561 . S
C370 C81 1.600 . S
C387 C46 1.097 . S
C406 C86 1.077 . S
C423 C16 1.358 . S
C442 C64 1.344 1_565 S
C478 C75 1.534 . S
C459 C39 1.485 . S
C514 C92 1.049 . S
C495 C56 1.020 . S
C531 C6 1.377 . S
C550 C70 1.369 . S
C586 C87 1.443 . S
C567 C9 1.445 . S
C603 C21 1.531 . S
C622 C65 1.541 . S
C639 C49 1.514 . S
C658 C76 1.499 . S
C694 C109 1.509 . S
C675 C29 1.506 . S
C730 C120 1.621 . S
C711 C41 1.586 . S
C747 C1 1.497 . S
C766 C98 1.493 . S
