# Generated by pormake.
# Topology ptr, (4,4)-cn, num edge types: 1
# Building blocks:
#     Node 0, Type 0, BuildingBlock: AZAVOO_clean_sbu_0, # of connection points: 4
#     Node 1, Type 0, BuildingBlock: AZAVOO_clean_sbu_0, # of connection points: 4
#     Node 2, Type 0, BuildingBlock: AZAVOO_clean_sbu_0, # of connection points: 4
#     Node 3, Type 0, BuildingBlock: AZAVOO_clean_sbu_0, # of connection points: 4
#     Node 4, Type 0, BuildingBlock: AZAVOO_clean_sbu_0, # of connection points: 4
#     Node 5, Type 0, BuildingBlock: AZAVOO_clean_sbu_0, # of connection points: 4
#     Node 6, Type 0, BuildingBlock: AZAVOO_clean_sbu_0, # of connection points: 4
#     Node 7, Type 0, BuildingBlock: AZAVOO_clean_sbu_0, # of connection points: 4
#     Node 8, Type 0, BuildingBlock: AZAVOO_clean_sbu_0, # of connection points: 4
#     Node 9, Type 0, BuildingBlock: AZAVOO_clean_sbu_0, # of connection points: 4
#     Node 10, Type 0, BuildingBlock: AZAVOO_clean_sbu_0, # of connection points: 4
#     Node 11, Type 0, BuildingBlock: AZAVOO_clean_sbu_0, # of connection points: 4
#     Node 12, Type 0, BuildingBlock: AZAVOO_clean_sbu_0, # of connection points: 4
#     Node 13, Type 0, BuildingBlock: AZAVOO_clean_sbu_0, # of connection points: 4
#     Node 14, Type 0, BuildingBlock: AZAVOO_clean_sbu_0, # of connection points: 4
#     Node 15, Type 0, BuildingBlock: AZAVOO_clean_sbu_0, # of connection points: 4
#     Node 16, Type 0, BuildingBlock: AZAVOO_clean_sbu_0, # of connection points: 4
#     Node 17, Type 0, BuildingBlock: AZAVOO_clean_sbu_0, # of connection points: 4
#     Node 18, Type 1, BuildingBlock: MUDLON_clean_linker_0, # of connection points: 4
#     Node 19, Type 1, BuildingBlock: MUDLON_clean_linker_0, # of connection points: 4
#     Node 20, Type 1, BuildingBlock: MUDLON_clean_linker_0, # of connection points: 4
#     Node 21, Type 1, BuildingBlock: MUDLON_clean_linker_0, # of connection points: 4
#     Node 22, Type 1, BuildingBlock: MUDLON_clean_linker_0, # of connection points: 4
#     Node 23, Type 1, BuildingBlock: MUDLON_clean_linker_0, # of connection points: 4
#     Node 24, Type 1, BuildingBlock: MUDLON_clean_linker_0, # of connection points: 4
#     Node 25, Type 1, BuildingBlock: MUDLON_clean_linker_0, # of connection points: 4
#     Node 26, Type 1, BuildingBlock: MUDLON_clean_linker_0, # of connection points: 4
#     Node 27, Type 1, BuildingBlock: MUDLON_clean_linker_0, # of connection points: 4
#     Node 28, Type 1, BuildingBlock: MUDLON_clean_linker_0, # of connection points: 4
#     Node 29, Type 1, BuildingBlock: MUDLON_clean_linker_0, # of connection points: 4
#     Node 30, Type 1, BuildingBlock: MUDLON_clean_linker_0, # of connection points: 4
#     Node 31, Type 1, BuildingBlock: MUDLON_clean_linker_0, # of connection points: 4
#     Node 32, Type 1, BuildingBlock: MUDLON_clean_linker_0, # of connection points: 4
#     Node 33, Type 1, BuildingBlock: MUDLON_clean_linker_0, # of connection points: 4
#     Node 34, Type 1, BuildingBlock: MUDLON_clean_linker_0, # of connection points: 4
#     Node 35, Type 1, BuildingBlock: MUDLON_clean_linker_0, # of connection points: 4
#     Edge 36, Type (0, 1), BuildingBlock: ZUJKAS_clean_linker_0, # of connection points: 2
#     Edge 37, Type (0, 1), BuildingBlock: ZUJKAS_clean_linker_0, # of connection points: 2
#     Edge 38, Type (0, 1), BuildingBlock: ZUJKAS_clean_linker_0, # of connection points: 2
#     Edge 39, Type (0, 1), BuildingBlock: ZUJKAS_clean_linker_0, # of connection points: 2
#     Edge 40, Type (0, 1), BuildingBlock: ZUJKAS_clean_linker_0, # of connection points: 2
#     Edge 41, Type (0, 1), BuildingBlock: ZUJKAS_clean_linker_0, # of connection points: 2
#     Edge 42, Type (0, 1), BuildingBlock: ZUJKAS_clean_linker_0, # of connection points: 2
#     Edge 43, Type (0, 1), BuildingBlock: ZUJKAS_clean_linker_0, # of connection points: 2
#     Edge 44, Type (0, 1), BuildingBlock: ZUJKAS_clean_linker_0, # of connection points: 2
#     Edge 45, Type (0, 1), BuildingBlock: ZUJKAS_clean_linker_0, # of connection points: 2
#     Edge 46, Type (0, 1), BuildingBlock: ZUJKAS_clean_linker_0, # of connection points: 2
#     Edge 47, Type (0, 1), BuildingBlock: ZUJKAS_clean_linker_0, # of connection points: 2
#     Edge 48, Type (0, 1), BuildingBlock: ZUJKAS_clean_linker_0, # of connection points: 2
#     Edge 49, Type (0, 1), BuildingBlock: ZUJKAS_clean_linker_0, # of connection points: 2
#     Edge 50, Type (0, 1), BuildingBlock: ZUJKAS_clean_linker_0, # of connection points: 2
#     Edge 51, Type (0, 1), BuildingBlock: ZUJKAS_clean_linker_0, # of connection points: 2
#     Edge 52, Type (0, 1), BuildingBlock: ZUJKAS_clean_linker_0, # of connection points: 2
#     Edge 53, Type (0, 1), BuildingBlock: ZUJKAS_clean_linker_0, # of connection points: 2
#     Edge 54, Type (0, 1), BuildingBlock: ZUJKAS_clean_linker_0, # of connection points: 2
#     Edge 55, Type (0, 1), BuildingBlock: ZUJKAS_clean_linker_0, # of connection points: 2
#     Edge 56, Type (0, 1), BuildingBlock: ZUJKAS_clean_linker_0, # of connection points: 2
#     Edge 57, Type (0, 1), BuildingBlock: ZUJKAS_clean_linker_0, # of connection points: 2
#     Edge 58, Type (0, 1), BuildingBlock: ZUJKAS_clean_linker_0, # of connection points: 2
#     Edge 59, Type (0, 1), BuildingBlock: ZUJKAS_clean_linker_0, # of connection points: 2
#     Edge 60, Type (0, 1), BuildingBlock: ZUJKAS_clean_linker_0, # of connection points: 2
#     Edge 61, Type (0, 1), BuildingBlock: ZUJKAS_clean_linker_0, # of connection points: 2
#     Edge 62, Type (0, 1), BuildingBlock: ZUJKAS_clean_linker_0, # of connection points: 2
#     Edge 63, Type (0, 1), BuildingBlock: ZUJKAS_clean_linker_0, # of connection points: 2
#     Edge 64, Type (0, 1), BuildingBlock: ZUJKAS_clean_linker_0, # of connection points: 2
#     Edge 65, Type (0, 1), BuildingBlock: ZUJKAS_clean_linker_0, # of connection points: 2
#     Edge 66, Type (0, 1), BuildingBlock: ZUJKAS_clean_linker_0, # of connection points: 2
#     Edge 67, Type (0, 1), BuildingBlock: ZUJKAS_clean_linker_0, # of connection points: 2
#     Edge 68, Type (0, 1), BuildingBlock: ZUJKAS_clean_linker_0, # of connection points: 2
#     Edge 69, Type (0, 1), BuildingBlock: ZUJKAS_clean_linker_0, # of connection points: 2
#     Edge 70, Type (0, 1), BuildingBlock: ZUJKAS_clean_linker_0, # of connection points: 2
#     Edge 71, Type (0, 1), BuildingBlock: ZUJKAS_clean_linker_0, # of connection points: 2
#     Edge 72, Type (0, 1), BuildingBlock: ZUJKAS_clean_linker_0, # of connection points: 2
#     Edge 73, Type (0, 1), BuildingBlock: ZUJKAS_clean_linker_0, # of connection points: 2
#     Edge 74, Type (0, 1), BuildingBlock: ZUJKAS_clean_linker_0, # of connection points: 2
#     Edge 75, Type (0, 1), BuildingBlock: ZUJKAS_clean_linker_0, # of connection points: 2
#     Edge 76, Type (0, 1), BuildingBlock: ZUJKAS_clean_linker_0, # of connection points: 2
#     Edge 77, Type (0, 1), BuildingBlock: ZUJKAS_clean_linker_0, # of connection points: 2
#     Edge 78, Type (0, 1), BuildingBlock: ZUJKAS_clean_linker_0, # of connection points: 2
#     Edge 79, Type (0, 1), BuildingBlock: ZUJKAS_clean_linker_0, # of connection points: 2
#     Edge 80, Type (0, 1), BuildingBlock: ZUJKAS_clean_linker_0, # of connection points: 2
#     Edge 81, Type (0, 1), BuildingBlock: ZUJKAS_clean_linker_0, # of connection points: 2
#     Edge 82, Type (0, 1), BuildingBlock: ZUJKAS_clean_linker_0, # of connection points: 2
#     Edge 83, Type (0, 1), BuildingBlock: ZUJKAS_clean_linker_0, # of connection points: 2
#     Edge 84, Type (0, 1), BuildingBlock: ZUJKAS_clean_linker_0, # of connection points: 2
#     Edge 85, Type (0, 1), BuildingBlock: ZUJKAS_clean_linker_0, # of connection points: 2
#     Edge 86, Type (0, 1), BuildingBlock: ZUJKAS_clean_linker_0, # of connection points: 2
#     Edge 87, Type (0, 1), BuildingBlock: ZUJKAS_clean_linker_0, # of connection points: 2
#     Edge 88, Type (0, 1), BuildingBlock: ZUJKAS_clean_linker_0, # of connection points: 2
#     Edge 89, Type (0, 1), BuildingBlock: ZUJKAS_clean_linker_0, # of connection points: 2
#     Edge 90, Type (0, 1), BuildingBlock: ZUJKAS_clean_linker_0, # of connection points: 2
#     Edge 91, Type (0, 1), BuildingBlock: ZUJKAS_clean_linker_0, # of connection points: 2
#     Edge 92, Type (0, 1), BuildingBlock: ZUJKAS_clean_linker_0, # of connection points: 2
#     Edge 93, Type (0, 1), BuildingBlock: ZUJKAS_clean_linker_0, # of connection points: 2
#     Edge 94, Type (0, 1), BuildingBlock: ZUJKAS_clean_linker_0, # of connection points: 2
#     Edge 95, Type (0, 1), BuildingBlock: ZUJKAS_clean_linker_0, # of connection points: 2
#     Edge 96, Type (0, 1), BuildingBlock: ZUJKAS_clean_linker_0, # of connection points: 2
#     Edge 97, Type (0, 1), BuildingBlock: ZUJKAS_clean_linker_0, # of connection points: 2
#     Edge 98, Type (0, 1), BuildingBlock: ZUJKAS_clean_linker_0, # of connection points: 2
#     Edge 99, Type (0, 1), BuildingBlock: ZUJKAS_clean_linker_0, # of connection points: 2
#     Edge 100, Type (0, 1), BuildingBlock: ZUJKAS_clean_linker_0, # of connection points: 2
#     Edge 101, Type (0, 1), BuildingBlock: ZUJKAS_clean_linker_0, # of connection points: 2
#     Edge 102, Type (0, 1), BuildingBlock: ZUJKAS_clean_linker_0, # of connection points: 2
#     Edge 103, Type (0, 1), BuildingBlock: ZUJKAS_clean_linker_0, # of connection points: 2
#     Edge 104, Type (0, 1), BuildingBlock: ZUJKAS_clean_linker_0, # of connection points: 2
#     Edge 105, Type (0, 1), BuildingBlock: ZUJKAS_clean_linker_0, # of connection points: 2
#     Edge 106, Type (0, 1), BuildingBlock: ZUJKAS_clean_linker_0, # of connection points: 2
#     Edge 107, Type (0, 1), BuildingBlock: ZUJKAS_clean_linker_0, # of connection points: 2
# Relax obj value: 0.069
# Max RMSD: 0.223
# Mean RMSD: 0.107
data_MOF--net-ptr--node1-AZAVOO_clean_sbu_0--node2-MUDLON_clean_linker_0--edge1-ZUJKAS_clean_linker_0
_symmetry_space_group_name_H-M    P1
_symmetry_Int_Tables_number       1
_symmetry_cell_setting            triclinic
loop_
_symmetry_equiv_pos_as_xyz
'x, y, z'
_cell_length_a     129.66079
_cell_length_b     127.92945
_cell_length_c     73.074301
_cell_angle_alpha  90.897566
_cell_angle_beta   90.911348
_cell_angle_gamma 120.01834
loop_
_atom_site_label
_atom_site_type_symbol
_atom_site_fract_x
_atom_site_fract_y
_atom_site_fract_z
_atom_type_partial_charge
Mg0 Mg 0.00604 0.36067 0.98743 0.0
O1 O 0.00182 0.3691 0.01228 0.0
O2 O 0.98633 0.37124 0.00396 0.0
Mg3 Mg 0.9807 0.36437 0.97443 0.0
C4 C 0.99422 0.3724 0.01578 0.0
C5 C 0.01915 0.34741 5e-05 0.0
O6 O 0.01287 0.34075 0.98579 0.0
O7 O 0.98981 0.34228 0.99253 0.0
O8 O 0.97487 0.34496 0.98294 0.0
O9 O 0.01818 0.37906 0.97698 0.0
O10 O 0.99899 0.36826 0.96975 0.0
C11 C 0.97873 0.33825 0.98926 0.0
C12 C 0.00891 0.37827 0.96865 0.0
O13 O 0.01806 0.35638 0.00497 0.0
Mg14 Mg 0.63555 0.64235 0.03947 0.0
O15 O 0.62252 0.63317 0.01503 0.0
O16 O 0.60496 0.63094 0.0229 0.0
Mg17 Mg 0.60668 0.63853 0.05205 0.0
C18 C 0.61156 0.62961 0.01141 0.0
C19 C 0.65564 0.63958 0.02097 0.0
O20 O 0.65022 0.62936 0.02963 0.0
O21 O 0.63695 0.66034 0.0332 0.0
O22 O 0.61961 0.65789 0.04275 0.0
O23 O 0.63009 0.62436 0.05092 0.0
O24 O 0.62141 0.635 0.0574 0.0
C25 C 0.62992 0.66443 0.03613 0.0
C26 C 0.6217 0.62514 0.05906 0.0
O27 O 0.65149 0.64671 0.02177 0.0
Mg28 Mg 0.36603 0.00343 0.98918 0.0
O29 O 0.37743 0.00532 0.01472 0.0
O30 O 0.39572 0.02089 0.01069 0.0
Mg31 Mg 0.39592 0.02903 0.98301 0.0
C32 C 0.38822 0.01222 0.02023 0.0
C33 C 0.34158 0.98122 0.9951 0.0
O34 O 0.34393 0.97928 0.97838 0.0
O35 O 0.36474 0.01969 0.99839 0.0
O36 O 0.38292 0.03514 0.99328 0.0
O37 O 0.37166 0.99143 0.97606 0.0
O38 O 0.38118 0.01128 0.97344 0.0
C39 C 0.37221 0.03099 0.9984 0.0
C40 C 0.38069 0.00111 0.97009 0.0
O41 O 0.34915 0.99072 0.00387 0.0
Mg42 Mg 0.99706 0.64663 0.03412 0.0
O43 O -1e-05 0.6369 0.00979 0.0
O44 O 0.01551 0.63462 0.01732 0.0
Mg45 Mg 0.0221 0.64225 0.04638 0.0
C46 C 0.00727 0.63324 0.00602 0.0
C47 C 0.97436 0.64263 0.01239 0.0
O48 O 0.97076 0.63154 0.01743 0.0
O49 O 0.01351 0.66442 0.02699 0.0
O50 O 0.02827 0.66157 0.03705 0.0
O51 O 0.98482 0.62888 0.04642 0.0
O52 O 0.00421 0.63919 0.05206 0.0
C53 C 0.02457 0.66827 0.03018 0.0
C54 C 0.99415 0.62951 0.05423 0.0
O55 O 0.98494 0.65088 0.01656 0.0
Mg56 Mg 0.36532 0.36086 0.98505 0.0
O57 O 0.37969 0.36922 0.00805 0.0
O58 O 0.39624 0.37053 0.99681 0.0
Mg59 Mg 0.3928 0.36401 0.96684 0.0
C60 C 0.39061 0.37201 0.00985 0.0
C61 C 0.34921 0.36471 0.01272 0.0
O62 O 0.35713 0.37609 0.01015 0.0
O63 O 0.36365 0.34247 0.9891 0.0
O64 O 0.37988 0.34457 0.97554 0.0
O65 O 0.37048 0.37916 0.97505 0.0
O66 O 0.3784 0.36834 0.96551 0.0
C67 C 0.37007 0.33814 0.9836 0.0
C68 C 0.37826 0.37833 0.96517 0.0
O69 O 0.3505 0.3565 0.00498 0.0
Mg70 Mg 0.6384 0.00498 0.03591 0.0
O71 O 0.62519 0.00033 0.01157 0.0
O72 O 0.60784 0.98467 0.01966 0.0
Mg73 Mg 0.60983 0.97941 0.04864 0.0
C74 C 0.61426 0.99254 0.0081 0.0
C75 C 0.66414 0.01812 0.02239 0.0
O76 O 0.66499 0.0121 0.03619 0.0
O77 O 0.64022 0.98854 0.02946 0.0
O78 O 0.62285 0.97336 0.03855 0.0
O79 O 0.63264 0.01736 0.04753 0.0
O80 O 0.62443 0.99803 0.05397 0.0
C81 C 0.63319 0.97732 0.03198 0.0
C82 C 0.62444 0.00807 0.05572 0.0
O83 O 0.65404 0.01687 0.01816 0.0
Mg84 Mg 0.67628 0.69561 0.32237 0.0
O85 O 0.66918 0.7027 0.34532 0.0
O86 O 0.65434 0.70451 0.33267 0.0
Mg87 Mg 0.6519 0.69869 0.30244 0.0
C88 C 0.661 0.70548 0.34643 0.0
C89 C 0.69746 0.6942 0.3365 0.0
O90 O 0.70049 0.69945 0.32062 0.0
O91 O 0.66003 0.67677 0.32443 0.0
O92 O 0.64587 0.67916 0.31063 0.0
O93 O 0.68885 0.71453 0.31425 0.0
O94 O 0.67061 0.70335 0.30265 0.0
C95 C 0.64932 0.67253 0.31846 0.0
C96 C 0.68036 0.7136 0.30356 0.0
O97 O 0.68722 0.69128 0.34245 0.0
Mg98 Mg 0.30411 0.97856 0.37104 0.0
O99 O 0.29079 0.96916 0.34699 0.0
O100 O 0.2728 0.96497 0.35618 0.0
Mg101 Mg 0.27468 0.97184 0.38581 0.0
C102 C 0.27961 0.9647 0.34399 0.0
C103 C 0.33006 0.99183 0.35765 0.0
O104 O 0.33145 0.99733 0.3736 0.0
O105 O 0.30396 0.99601 0.36659 0.0
O106 O 0.28616 0.99163 0.37696 0.0
O107 O 0.30037 0.96074 0.38081 0.0
O108 O 0.2905 0.96983 0.3896 0.0
C109 C 0.29622 0.99905 0.37029 0.0
C110 C 0.29174 0.96044 0.38992 0.0
O111 O 0.31963 0.98393 0.35213 0.0
Mg112 Mg 0.03058 0.3315 0.32167 0.0
O113 O 0.04253 0.33333 0.34655 0.0
O114 O 0.06071 0.34884 0.34164 0.0
Mg115 Mg 0.0604 0.35697 0.31424 0.0
C116 C 0.05344 0.34021 0.35148 0.0
C117 C 0.00605 0.3095 0.3284 0.0
O118 O 0.00791 0.30762 0.31134 0.0
O119 O 0.0295 0.34789 0.33137 0.0
O120 O 0.04776 0.36308 0.32575 0.0
O121 O 0.03601 0.31951 0.30759 0.0
O122 O 0.04533 0.33935 0.30517 0.0
C123 C 0.03719 0.35914 0.33137 0.0
C124 C 0.04484 0.32925 0.30135 0.0
O125 O 0.014 0.31883 0.33708 0.0
Mg126 Mg 0.66588 0.97606 0.36478 0.0
O127 O 0.67203 0.96862 0.34095 0.0
O128 O 0.6888 0.9693 0.35075 0.0
Mg129 Mg 0.69322 0.9767 0.38021 0.0
C130 C 0.68078 0.96684 0.33838 0.0
C131 C 0.64165 0.97053 0.3473 0.0
O132 O 0.63832 0.96141 0.35826 0.0
O133 O 0.68064 0.99531 0.35935 0.0
O134 O 0.69673 0.99519 0.37047 0.0
O135 O 0.65555 0.9575 0.37589 0.0
O136 O 0.67426 0.97048 0.38364 0.0
C137 C 0.69181 0.00068 0.36319 0.0
C138 C 0.66517 0.95982 0.38488 0.0
O139 O 0.6527 0.97811 0.3461 0.0
Mg140 Mg 0.03302 0.69785 0.31906 0.0
O141 O 0.04696 0.70622 0.34271 0.0
O142 O 0.06405 0.70853 0.33218 0.0
Mg143 Mg 0.06113 0.70159 0.30252 0.0
C144 C 0.058 0.7096 0.34495 0.0
C145 C 0.01158 0.69836 0.33567 0.0
O146 O 0.01459 0.70629 0.3227 0.0
O147 O 0.03144 0.67952 0.32324 0.0
O148 O 0.04853 0.68224 0.31203 0.0
O149 O 0.03847 0.71625 0.30909 0.0
O150 O 0.04638 0.70533 0.29997 0.0
C151 C 0.03843 0.67556 0.31921 0.0
C152 C 0.04631 0.71534 0.29949 0.0
O153 O 0.0178 0.69336 0.33837 0.0
Mg154 Mg 0.30753 0.34731 0.36499 0.0
O155 O 0.29289 0.33852 0.3424 0.0
O156 O 0.27681 0.32365 0.35529 0.0
Mg157 Mg 0.281 0.32302 0.38557 0.0
C158 C 0.28209 0.32986 0.34141 0.0
C159 C 0.328 0.36847 0.34525 0.0
O160 O 0.32516 0.3742 0.35745 0.0
O161 O 0.31036 0.33119 0.36381 0.0
O162 O 0.29435 0.31689 0.37757 0.0
O163 O 0.30119 0.36009 0.37233 0.0
O164 O 0.29463 0.34227 0.38468 0.0
C165 C 0.30428 0.32051 0.36975 0.0
C166 C 0.29394 0.35193 0.38324 0.0
O167 O 0.32194 0.35701 0.34416 0.0
Mg168 Mg 0.3412 0.03048 0.65472 0.0
O169 O 0.33475 0.0375 0.67876 0.0
O170 O 0.32006 0.04006 0.66742 0.0
Mg171 Mg 0.31691 0.03462 0.63711 0.0
C172 C 0.32683 0.04058 0.68072 0.0
C173 C 0.36318 0.03068 0.67124 0.0
O174 O 0.36758 0.03877 0.65846 0.0
O175 O 0.32469 0.0118 0.65653 0.0
O176 O 0.31045 0.01492 0.6448 0.0
O177 O 0.35398 0.04939 0.64694 0.0
O178 O 0.33551 0.03884 0.63603 0.0
C179 C 0.31385 0.00796 0.65163 0.0
C180 C 0.34544 0.04891 0.63688 0.0
O181 O 0.35204 0.02542 0.67396 0.0
Mg182 Mg 0.97259 0.30965 0.70407 0.0
O183 O 0.95911 0.29929 0.68047 0.0
O184 O 0.94137 0.29606 0.68945 0.0
Mg185 Mg 0.94336 0.30387 0.71846 0.0
C186 C 0.94795 0.29506 0.67755 0.0
C187 C 0.9985 0.32099 0.69302 0.0
O188 O 0.9993 0.32494 0.70999 0.0
O189 O 0.97247 0.32687 0.69718 0.0
O190 O 0.95492 0.32311 0.70783 0.0
O191 O 0.96887 0.2923 0.7161 0.0
O192 O 0.95903 0.30175 0.72289 0.0
C193 C 0.96484 0.33014 0.70043 0.0
C194 C 0.96026 0.29242 0.72466 0.0
O195 O 0.98822 0.31443 0.68565 0.0
Mg196 Mg 0.69818 0.66139 0.65467 0.0
O197 O 0.71126 0.66696 0.67937 0.0
O198 O 0.72865 0.68218 0.67037 0.0
Mg199 Mg 0.72692 0.68591 0.64037 0.0
C200 C 0.72217 0.67492 0.68257 0.0
C201 C 0.67406 0.64093 0.66458 0.0
O202 O 0.67556 0.63839 0.64767 0.0
O203 O 0.69672 0.67826 0.65876 0.0
O204 O 0.71404 0.69264 0.64818 0.0
O205 O 0.70349 0.6482 0.64513 0.0
O206 O 0.71219 0.66722 0.63683 0.0
C207 C 0.70379 0.68923 0.65476 0.0
C208 C 0.71182 0.65696 0.63626 0.0
O209 O 0.68229 0.65046 0.67248 0.0
Mg210 Mg 0.33279 0.31084 0.69932 0.0
O211 O 0.33848 0.30309 0.67531 0.0
O212 O 0.35464 0.30266 0.68543 0.0
Mg213 Mg 0.35915 0.30977 0.71506 0.0
C214 C 0.34686 0.30071 0.67288 0.0
C215 C 0.31262 0.31516 0.69045 0.0
O216 O 0.31296 0.31439 0.70834 0.0
O217 O 0.34822 0.32975 0.69426 0.0
O218 O 0.36372 0.32878 0.70606 0.0
O219 O 0.32148 0.2923 0.70989 0.0
O220 O 0.34036 0.30437 0.71801 0.0
C221 C 0.35928 0.33469 0.69866 0.0
C222 C 0.33087 0.29396 0.71895 0.0
O223 O 0.32017 0.31393 0.68115 0.0
Mg224 Mg 0.69726 0.02639 0.64933 0.0
O225 O 0.71066 0.03551 0.67334 0.0
O226 O 0.72804 0.0376 0.66468 0.0
Mg227 Mg 0.72578 0.03004 0.63536 0.0
C228 C 0.72165 0.03897 0.67653 0.0
C229 C 0.67147 0.01579 0.65983 0.0
O230 O 0.67084 0.01175 0.64297 0.0
O231 O 0.69581 0.00836 0.65555 0.0
O232 O 0.71289 0.01073 0.64487 0.0
O233 O 0.70255 0.04437 0.63801 0.0
O234 O 0.71104 0.03363 0.63089 0.0
C235 C 0.70274 0.00424 0.65201 0.0
C236 C 0.71077 0.04351 0.62943 0.0
O237 O 0.68168 0.02235 0.66742 0.0
Mg238 Mg 0.97394 0.68243 0.70171 0.0
O239 O 0.96017 0.67674 0.67782 0.0
O240 O 0.943 0.66185 0.68812 0.0
Mg241 Mg 0.94558 0.65822 0.7178 0.0
C242 C 0.94912 0.66889 0.67546 0.0
C243 C 0.99949 0.69568 0.69051 0.0
O244 O 0.9997 0.69229 0.70733 0.0
O245 O 0.97506 0.66542 0.69712 0.0
O246 O 0.95792 0.65117 0.70833 0.0
O247 O 0.96902 0.69585 0.71176 0.0
O248 O 0.96042 0.67691 0.7204 0.0
C249 C 0.96796 0.65445 0.70107 0.0
C250 C 0.96082 0.68718 0.72095 0.0
O251 O 0.98948 0.69284 0.68302 0.0
H252 H 0.22298 0.33438 0.1377 0.0
N253 N 0.20427 0.31535 0.1191 0.0
H254 H 0.23067 0.33415 0.16807 0.0
H255 H 0.19549 0.29715 0.14226 0.0
H256 H 0.2031 0.29692 0.17318 0.0
H257 H 0.21287 0.30252 0.10364 0.0
H258 H 0.23095 0.31002 0.086 0.0
H259 H 0.21712 0.33817 0.10544 0.0
H260 H 0.23496 0.34567 0.08733 0.0
H261 H 0.20419 0.33458 0.13674 0.0
H262 H 0.18539 0.30589 0.09631 0.0
H263 H 0.18923 0.3404 0.13366 0.0
H264 H 0.1706 0.31227 0.09213 0.0
H265 H 0.14316 0.35643 0.14042 0.0
H266 H 0.13279 0.35281 0.16934 0.0
H267 H 0.12041 0.31467 0.16288 0.0
H268 H 0.1305 0.31832 0.13395 0.0
H269 H 0.12209 0.31975 0.10496 0.0
H270 H 0.10649 0.31938 0.08541 0.0
H271 H 0.12876 0.35763 0.077 0.0
H272 H 0.14426 0.35794 0.09696 0.0
H273 H 0.16584 0.35485 0.1181 0.0
H274 H 0.18144 0.34958 0.1157 0.0
H275 H 0.15448 0.31212 0.10615 0.0
N276 N 0.14254 0.34009 0.11696 0.0
H277 H 0.13911 0.31772 0.10704 0.0
C278 C 0.2086 0.31572 0.1376 0.0
C279 C 0.21851 0.32615 0.14527 0.0
C280 C 0.22287 0.32605 0.16278 0.0
C281 C 0.21748 0.31553 0.17307 0.0
C282 C 0.2075 0.30513 0.16551 0.0
C283 C 0.2031 0.30526 0.14795 0.0
C284 C 0.2136 0.3197 0.10588 0.0
C285 C 0.21752 0.31188 0.09974 0.0
C286 C 0.22784 0.3162 0.08962 0.0
C287 C 0.23447 0.32849 0.08537 0.0
C288 C 0.23017 0.3362 0.09064 0.0
C289 C 0.21986 0.33188 0.10084 0.0
C290 C 0.19582 0.31953 0.117 0.0
C291 C 0.19689 0.32952 0.12708 0.0
C292 C 0.18833 0.33301 0.12506 0.0
C293 C 0.17863 0.32685 0.1126 0.0
C294 C 0.17779 0.31711 0.10211 0.0
C295 C 0.18627 0.31349 0.10438 0.0
C296 C 0.13765 0.33772 0.13498 0.0
C297 C 0.13838 0.34734 0.14546 0.0
C298 C 0.13249 0.34524 0.162 0.0
C299 C 0.12573 0.33343 0.16837 0.0
C300 C 0.12542 0.32385 0.15822 0.0
C301 C 0.13129 0.32596 0.14166 0.0
C302 C 0.13436 0.33894 0.10246 0.0
C303 C 0.12378 0.32799 0.09853 0.0
C304 C 0.11484 0.32779 0.08732 0.0
C305 C 0.11631 0.33852 0.07987 0.0
C306 C 0.12726 0.34926 0.08281 0.0
C307 C 0.13617 0.34944 0.09402 0.0
C308 C 0.15134 0.3367 0.11317 0.0
C309 C 0.16336 0.34555 0.11514 0.0
C310 C 0.17225 0.34247 0.11399 0.0
C311 C 0.16926 0.33035 0.11122 0.0
C312 C 0.15718 0.32155 0.10828 0.0
C313 C 0.1483 0.32472 0.10903 0.0
H314 H 0.71394 0.81042 0.12967 0.0
N315 N 0.69925 0.81807 0.11882 0.0
H316 H 0.71285 0.79946 0.15743 0.0
H317 H 0.6842 0.81392 0.14719 0.0
H318 H 0.68302 0.80293 0.17496 0.0
H319 H 0.67511 0.80272 0.11824 0.0
H320 H 0.66408 0.78465 0.09867 0.0
H321 H 0.70724 0.812 0.08959 0.0
H322 H 0.69633 0.79379 0.07008 0.0
H323 H 0.71365 0.83832 0.13782 0.0
H324 H 0.6829 0.8228 0.10087 0.0
H325 H 0.71283 0.8569 0.13995 0.0
H326 H 0.68243 0.84142 0.10238 0.0
H327 H 0.7122 0.91673 0.14085 0.0
H328 H 0.7097 0.92523 0.16961 0.0
H329 H 0.67664 0.89215 0.17783 0.0
H330 H 0.67918 0.88377 0.14921 0.0
H331 H 0.67366 0.88875 0.12044 0.0
H332 H 0.66514 0.89562 0.09699 0.0
H333 H 0.69946 0.91496 0.07182 0.0
H334 H 0.70804 0.90826 0.09591 0.0
H335 H 0.71612 0.8927 0.12494 0.0
H336 H 0.71655 0.87384 0.12297 0.0
H337 H 0.67801 0.85376 0.12143 0.0
N338 N 0.69725 0.89552 0.12499 0.0
H339 H 0.67774 0.87265 0.12243 0.0
C340 C 0.69921 0.81299 0.13636 0.0
C341 C 0.7073 0.80897 0.13967 0.0
C342 C 0.70661 0.80266 0.15543 0.0
C343 C 0.6978 0.80027 0.16828 0.0
C344 C 0.68995 0.80472 0.16535 0.0
C345 C 0.6906 0.81096 0.14948 0.0
C346 C 0.69205 0.80872 0.10536 0.0
C347 C 0.67975 0.80098 0.10751 0.0
C348 C 0.67346 0.79061 0.09636 0.0
C349 C 0.67935 0.7877 0.08295 0.0
C350 C 0.69149 0.79582 0.08014 0.0
C351 C 0.69775 0.80622 0.09127 0.0
C352 C 0.69823 0.82887 0.11963 0.0
C353 C 0.7067 0.83886 0.13022 0.0
C354 C 0.7063 0.84955 0.13125 0.0
C355 C 0.69754 0.85069 0.12136 0.0
C356 C 0.68914 0.84079 0.11052 0.0
C357 C 0.68945 0.83003 0.10964 0.0
C358 C 0.69594 0.89966 0.14282 0.0
C359 C 0.7045 0.91128 0.14902 0.0
C360 C 0.70306 0.9161 0.16543 0.0
C361 C 0.69293 0.90937 0.17594 0.0
C362 C 0.68446 0.89761 0.16991 0.0
C363 C 0.68595 0.89277 0.15355 0.0
C364 C 0.69157 0.89811 0.11003 0.0
C365 C 0.67935 0.89431 0.10979 0.0
C366 C 0.67444 0.8982 0.0962 0.0
C367 C 0.68162 0.90591 0.08252 0.0
C368 C 0.69371 0.90918 0.0823 0.0
C369 C 0.69862 0.90531 0.09595 0.0
C370 C 0.69696 0.88413 0.12399 0.0
C371 C 0.70779 0.8842 0.12415 0.0
C372 C 0.70799 0.8734 0.12317 0.0
C373 C 0.6973 0.86222 0.12218 0.0
C374 C 0.68642 0.86217 0.12197 0.0
C375 C 0.68624 0.87301 0.12276 0.0
H376 H 0.12485 0.79492 0.12259 0.0
N377 N 0.1267 0.81616 0.11174 0.0
H378 H 0.11688 0.78486 0.15129 0.0
H379 H 0.11922 0.82407 0.13952 0.0
H380 H 0.11122 0.81404 0.16848 0.0
H381 H 0.1054 0.81142 0.09977 0.0
H382 H 0.092 0.79534 0.07809 0.0
H383 H 0.13318 0.80321 0.08833 0.0
H384 H 0.11989 0.78731 0.06673 0.0
H385 H 0.14418 0.81006 0.11505 0.0
H386 H 0.13801 0.83991 0.10834 0.0
H387 H 0.16547 0.82388 0.11719 0.0
H388 H 0.15937 0.85403 0.11202 0.0
H389 H 0.23096 0.87355 0.15204 0.0
H390 H 0.23842 0.88523 0.18084 0.0
H391 H 0.2129 0.89737 0.17465 0.0
H392 H 0.20532 0.8854 0.14608 0.0
H393 H 0.21778 0.89471 0.11929 0.0
H394 H 0.23197 0.90816 0.0973 0.0
H395 H 0.24173 0.88121 0.08443 0.0
H396 H 0.22738 0.86771 0.10652 0.0
H397 H 0.20097 0.85111 0.14303 0.0
H398 H 0.17972 0.83733 0.13777 0.0
H399 H 0.17835 0.86261 0.10055 0.0
N400 N 0.21445 0.87266 0.12916 0.0
H401 H 0.1993 0.87663 0.10698 0.0
C402 C 0.12263 0.81029 0.12895 0.0
C403 C 0.12207 0.79926 0.13261 0.0
C404 C 0.11753 0.79352 0.14907 0.0
C405 C 0.11343 0.79867 0.16215 0.0
C406 C 0.11421 0.80981 0.15859 0.0
C407 C 0.11881 0.81557 0.14215 0.0
C408 C 0.12029 0.80858 0.09594 0.0
C409 C 0.10873 0.80642 0.09222 0.0
C410 C 0.10107 0.7972 0.07994 0.0
C411 C 0.10489 0.79003 0.07089 0.0
C412 C 0.11675 0.79275 0.07348 0.0
C413 C 0.12437 0.80188 0.08599 0.0
C414 C 0.13944 0.82393 0.11106 0.0
C415 C 0.14739 0.81959 0.11373 0.0
C416 C 0.15964 0.82759 0.11536 0.0
C417 C 0.16426 0.84016 0.11502 0.0
C418 C 0.15627 0.84445 0.11206 0.0
C419 C 0.14402 0.83639 0.10999 0.0
C420 C 0.21764 0.87861 0.14696 0.0
C421 C 0.22688 0.8786 0.15709 0.0
C422 C 0.23119 0.88537 0.17342 0.0
C423 C 0.22635 0.89236 0.17993 0.0
C424 C 0.21677 0.89203 0.17008 0.0
C425 C 0.21245 0.88523 0.15372 0.0
C426 C 0.22159 0.88019 0.11464 0.0
C427 C 0.22286 0.89161 0.11164 0.0
C428 C 0.23101 0.89932 0.09909 0.0
C429 C 0.23805 0.89579 0.08928 0.0
C430 C 0.23637 0.88416 0.09169 0.0
C431 C 0.22822 0.87645 0.1043 0.0
C432 C 0.20185 0.86486 0.12537 0.0
C433 C 0.19604 0.85366 0.13379 0.0
C434 C 0.18389 0.84574 0.13057 0.0
C435 C 0.17724 0.84872 0.11849 0.0
C436 C 0.18308 0.86 0.11008 0.0
C437 C 0.1952 0.86805 0.11364 0.0
H438 H 0.35202 0.21396 0.88015 0.0
N439 N 0.3345 0.19586 0.89742 0.0
H440 H 0.3505 0.22355 0.85231 0.0
H441 H 0.31452 0.18786 0.87516 0.0
H442 H 0.31296 0.1972 0.84729 0.0
H443 H 0.31482 0.19782 0.90453 0.0
H444 H 0.31395 0.21157 0.92724 0.0
H445 H 0.34987 0.20728 0.92498 0.0
H446 H 0.34897 0.22091 0.94801 0.0
H447 H 0.34797 0.18582 0.89534 0.0
H448 H 0.3117 0.17735 0.90234 0.0
H449 H 0.34169 0.16439 0.89587 0.0
H450 H 0.30513 0.15584 0.90157 0.0
H451 H 0.32908 0.10836 0.8855 0.0
H452 H 0.33082 0.09851 0.85809 0.0
H453 H 0.29349 0.08453 0.845 0.0
H454 H 0.29186 0.09473 0.8726 0.0
H455 H 0.29604 0.08925 0.91901 0.0
H456 H 0.30314 0.0826 0.94512 0.0
H457 H 0.33859 0.11301 0.93875 0.0
H458 H 0.33128 0.11983 0.91342 0.0
H459 H 0.32654 0.12591 0.87758 0.0
H460 H 0.33197 0.1469 0.87775 0.0
H461 H 0.30484 0.13983 0.91716 0.0
N462 N 0.30883 0.10781 0.89771 0.0
H463 H 0.29886 0.11842 0.91599 0.0
C464 C 0.33346 0.20021 0.87979 0.0
C465 C 0.34353 0.21016 0.87283 0.0
C466 C 0.34264 0.21558 0.8569 0.0
C467 C 0.33159 0.21116 0.84762 0.0
C468 C 0.32157 0.20091 0.85425 0.0
C469 C 0.32248 0.19549 0.87018 0.0
C470 C 0.33255 0.2017 0.91289 0.0
C471 C 0.3222 0.20259 0.91419 0.0
C472 C 0.3217 0.21045 0.92719 0.0
C473 C 0.33143 0.21736 0.93926 0.0
C474 C 0.3413 0.21563 0.93897 0.0
C475 C 0.34186 0.2079 0.92582 0.0
C476 C 0.33034 0.18316 0.89853 0.0
C477 C 0.33862 0.17928 0.89685 0.0
C478 C 0.33497 0.16701 0.89694 0.0
C479 C 0.32284 0.15829 0.89843 0.0
C480 C 0.31454 0.16225 0.90051 0.0
C481 C 0.31827 0.17458 0.90074 0.0
C482 C 0.31026 0.10226 0.88125 0.0
C483 C 0.32121 0.10315 0.87689 0.0
C484 C 0.3222 0.09745 0.86115 0.0
C485 C 0.31228 0.09063 0.84938 0.0
C486 C 0.30134 0.08979 0.85367 0.0
C487 C 0.30037 0.09556 0.86945 0.0
C488 C 0.3131 0.10491 0.91414 0.0
C489 C 0.30528 0.09456 0.92353 0.0
C490 C 0.30939 0.09075 0.93835 0.0
C491 C 0.32148 0.09718 0.94395 0.0
C492 C 0.3292 0.10789 0.93503 0.0
C493 C 0.32504 0.11176 0.92036 0.0
C494 C 0.3121 0.12039 0.89669 0.0
C495 C 0.32156 0.12869 0.88609 0.0
C496 C 0.32482 0.14086 0.88639 0.0
C497 C 0.31895 0.14517 0.89761 0.0
C498 C 0.30947 0.13686 0.90814 0.0
C499 C 0.30607 0.12462 0.90757 0.0
H500 H 0.77417 0.13011 0.86761 0.0
N501 N 0.7903 0.13045 0.8907 0.0
H502 H 0.76628 0.11818 0.83911 0.0
H503 H 0.79835 0.11652 0.87459 0.0
H504 H 0.7903 0.10424 0.84633 0.0
H505 H 0.78695 0.10877 0.90248 0.0
H506 H 0.77246 0.09586 0.92455 0.0
H507 H 0.77729 0.13605 0.91206 0.0
H508 H 0.76283 0.12323 0.93456 0.0
H509 H 0.80384 0.15142 0.87522 0.0
H510 H 0.80552 0.12692 0.91343 0.0
H511 H 0.82515 0.16515 0.87981 0.0
H512 H 0.82657 0.14094 0.91915 0.0
H513 H 0.88084 0.20936 0.89925 0.0
H514 H 0.8894 0.22026 0.8715 0.0
H515 H 0.89319 0.1905 0.851 0.0
H516 H 0.88499 0.1798 0.87938 0.0
H517 H 0.90035 0.19561 0.92011 0.0
H518 H 0.91197 0.21239 0.94163 0.0
H519 H 0.88011 0.2133 0.95516 0.0
H520 H 0.86868 0.19693 0.93335 0.0
H521 H 0.86052 0.19314 0.90292 0.0
H522 H 0.83928 0.17911 0.90005 0.0
H523 H 0.84562 0.14929 0.90771 0.0
N524 N 0.87811 0.18743 0.90835 0.0
H525 H 0.86693 0.16364 0.91192 0.0
C526 C 0.78678 0.12418 0.87317 0.0
C527 C 0.77782 0.12459 0.86286 0.0
C528 C 0.77326 0.11768 0.84671 0.0
C529 C 0.77756 0.11013 0.84057 0.0
C530 C 0.78684 0.11001 0.85063 0.0
C531 C 0.79142 0.11697 0.86682 0.0
C532 C 0.78317 0.1234 0.90558 0.0
C533 C 0.78187 0.11209 0.90959 0.0
C534 C 0.77361 0.10473 0.92232 0.0
C535 C 0.76644 0.10849 0.93122 0.0
C536 C 0.76812 0.12002 0.92775 0.0
C537 C 0.77642 0.12739 0.91505 0.0
C538 C 0.80296 0.13819 0.89402 0.0
C539 C 0.80879 0.14907 0.88477 0.0
C540 C 0.82098 0.15698 0.8876 0.0
C541 C 0.82765 0.15431 0.90011 0.0
C542 C 0.82181 0.1433 0.90928 0.0
C543 C 0.80964 0.13526 0.90613 0.0
C544 C 0.8824 0.19376 0.89148 0.0
C545 C 0.88345 0.20513 0.88878 0.0
C546 C 0.88827 0.21133 0.87277 0.0
C547 C 0.89202 0.20629 0.85897 0.0
C548 C 0.89059 0.19475 0.86146 0.0
C549 C 0.88584 0.18858 0.87758 0.0
C550 C 0.88368 0.19506 0.92454 0.0
C551 C 0.89581 0.19922 0.92807 0.0
C552 C 0.90245 0.20883 0.94046 0.0
C553 C 0.89703 0.21441 0.94987 0.0
C554 C 0.88464 0.20946 0.94772 0.0
C555 C 0.87803 0.19996 0.93514 0.0
C556 C 0.86535 0.17945 0.90802 0.0
C557 C 0.85735 0.18362 0.9044 0.0
C558 C 0.84515 0.17551 0.90245 0.0
C559 C 0.84063 0.16298 0.90344 0.0
C560 C 0.84867 0.15885 0.90716 0.0
C561 C 0.86087 0.16702 0.90952 0.0
H562 H 0.79451 0.70833 0.88868 0.0
N563 N 0.79934 0.69356 0.90716 0.0
H564 H 0.78523 0.70493 0.85808 0.0
H565 H 0.79396 0.67444 0.88389 0.0
H566 H 0.78459 0.6709 0.85328 0.0
H567 H 0.78212 0.66987 0.91086 0.0
H568 H 0.76479 0.66251 0.93004 0.0
H569 H 0.79575 0.70587 0.9334 0.0
H570 H 0.77851 0.6985 0.95313 0.0
H571 H 0.821 0.71112 0.90013 0.0
H572 H 0.80208 0.67494 0.92028 0.0
H573 H 0.83969 0.71109 0.90308 0.0
H574 H 0.82082 0.67508 0.92448 0.0
H575 H 0.89673 0.71353 0.89916 0.0
H576 H 0.90517 0.71456 0.86903 0.0
H577 H 0.8746 0.68002 0.85368 0.0
H578 H 0.8664 0.67898 0.88371 0.0
H579 H 0.87179 0.6717 0.91027 0.0
H580 H 0.88225 0.66322 0.9268 0.0
H581 H 0.90199 0.69661 0.95839 0.0
H582 H 0.89173 0.70516 0.94121 0.0
H583 H 0.87318 0.71299 0.92183 0.0
H584 H 0.85406 0.71227 0.92337 0.0
H585 H 0.83598 0.6741 0.9092 0.0
N586 N 0.87713 0.69531 0.91237 0.0
H587 H 0.8551 0.67479 0.90931 0.0
C588 C 0.79487 0.69166 0.88853 0.0
C589 C 0.7925 0.70023 0.88088 0.0
C590 C 0.78724 0.69827 0.86342 0.0
C591 C 0.78416 0.68763 0.85331 0.0
C592 C 0.78676 0.67912 0.86084 0.0
C593 C 0.79214 0.68115 0.87828 0.0
C594 C 0.79024 0.68849 0.92065 0.0
C595 C 0.78155 0.67616 0.92028 0.0
C596 C 0.77163 0.67193 0.93135 0.0
C597 C 0.77019 0.67994 0.94299 0.0
C598 C 0.77925 0.69213 0.94409 0.0
C599 C 0.78916 0.69635 0.93299 0.0
C600 C 0.81016 0.69316 0.91013 0.0
C601 C 0.82093 0.70325 0.90552 0.0
C602 C 0.83164 0.70323 0.90741 0.0
C603 C 0.83188 0.69314 0.91428 0.0
C604 C 0.82103 0.68299 0.91899 0.0
C605 C 0.81025 0.68294 0.91676 0.0
C606 C 0.88098 0.69623 0.89378 0.0
C607 C 0.89179 0.7063 0.88914 0.0
C608 C 0.89656 0.70688 0.87192 0.0
C609 C 0.89057 0.69733 0.85902 0.0
C610 C 0.8795 0.68745 0.86343 0.0
C611 C 0.87475 0.68689 0.88064 0.0
C612 C 0.88108 0.68915 0.92443 0.0
C613 C 0.87816 0.67712 0.921 0.0
C614 C 0.88415 0.67225 0.93055 0.0
C615 C 0.89312 0.6793 0.94374 0.0
C616 C 0.89534 0.69102 0.94803 0.0
C617 C 0.8894 0.69588 0.93841 0.0
C618 C 0.86561 0.69406 0.91507 0.0
C619 C 0.86505 0.70445 0.91939 0.0
C620 C 0.85409 0.70402 0.92001 0.0
C621 C 0.8434 0.69319 0.91591 0.0
C622 C 0.84397 0.68261 0.91245 0.0
C623 C 0.85496 0.68302 0.91225 0.0
H624 H 0.77008 0.62254 0.45906 0.0
N625 N 0.79051 0.63884 0.44501 0.0
H626 H 0.7626 0.62318 0.48936 0.0
H627 H 0.80333 0.65472 0.4734 0.0
H628 H 0.7961 0.65523 0.50363 0.0
H629 H 0.7969 0.66278 0.44783 0.0
H630 H 0.78737 0.67231 0.43158 0.0
H631 H 0.77537 0.62971 0.41661 0.0
H632 H 0.76553 0.6391 0.40052 0.0
H633 H 0.79403 0.62052 0.43819 0.0
H634 H 0.81272 0.65926 0.44502 0.0
H635 H 0.81299 0.62087 0.43695 0.0
H636 H 0.83166 0.65969 0.4453 0.0
H637 H 0.87372 0.62707 0.47326 0.0
H638 H 0.88333 0.63223 0.50375 0.0
H639 H 0.88262 0.66564 0.50406 0.0
H640 H 0.87291 0.66033 0.47358 0.0
H641 H 0.88477 0.66413 0.44686 0.0
H642 H 0.90204 0.67131 0.42764 0.0
H643 H 0.88991 0.63467 0.40892 0.0
H644 H 0.87258 0.6275 0.42851 0.0
H645 H 0.84661 0.62342 0.46134 0.0
H646 H 0.82784 0.62323 0.45737 0.0
H647 H 0.8463 0.65755 0.43064 0.0
N648 N 0.86816 0.64045 0.45254 0.0
H649 H 0.86507 0.658 0.43579 0.0
C650 C 0.78722 0.63852 0.46384 0.0
C651 C 0.77586 0.62954 0.46889 0.0
C652 C 0.77164 0.62991 0.48623 0.0
C653 C 0.77874 0.63932 0.49886 0.0
C654 C 0.79036 0.64797 0.49411 0.0
C655 C 0.79455 0.64762 0.47677 0.0
C656 C 0.78689 0.64548 0.43334 0.0
C657 C 0.79036 0.65764 0.43714 0.0
C658 C 0.78477 0.66305 0.42799 0.0
C659 C 0.77558 0.65643 0.41491 0.0
C660 C 0.77264 0.64451 0.41039 0.0
C661 C 0.77824 0.63911 0.41955 0.0
C662 C 0.80189 0.63977 0.44199 0.0
C663 C 0.80225 0.6291 0.43936 0.0
C664 C 0.81312 0.62934 0.43891 0.0
C665 C 0.82395 0.64028 0.44149 0.0
C666 C 0.82357 0.65108 0.44319 0.0
C667 C 0.81267 0.65084 0.44323 0.0
C668 C 0.87266 0.6433 0.47118 0.0
C669 C 0.87549 0.63541 0.48007 0.0
C670 C 0.88094 0.63837 0.49746 0.0
C671 C 0.88377 0.64937 0.50625 0.0
C672 C 0.88067 0.65717 0.49751 0.0
C673 C 0.87509 0.65413 0.48015 0.0
C674 C 0.87732 0.64521 0.43909 0.0
C675 C 0.88563 0.65764 0.43836 0.0
C676 C 0.89553 0.66175 0.42729 0.0
C677 C 0.89738 0.65355 0.41684 0.0
C678 C 0.88879 0.64119 0.41698 0.0
C679 C 0.87885 0.63709 0.428 0.0
C680 C 0.85727 0.64061 0.44882 0.0
C681 C 0.84657 0.63087 0.45457 0.0
C682 C 0.83582 0.63074 0.45209 0.0
C683 C 0.83545 0.64032 0.44348 0.0
C684 C 0.8462 0.65006 0.43751 0.0
C685 C 0.85701 0.65028 0.44032 0.0
H686 H 0.37593 0.14617 0.4659 0.0
N687 N 0.35969 0.15136 0.45357 0.0
H688 H 0.37579 0.13635 0.49451 0.0
H689 H 0.34407 0.14628 0.48157 0.0
H690 H 0.34391 0.13662 0.51004 0.0
H691 H 0.336 0.13415 0.45382 0.0
H692 H 0.3259 0.11665 0.43318 0.0
H693 H 0.36784 0.14767 0.42249 0.0
H694 H 0.3576 0.13037 0.40107 0.0
H695 H 0.37836 0.17297 0.44881 0.0
H696 H 0.34046 0.15478 0.45629 0.0
H697 H 0.37904 0.19237 0.44865 0.0
H698 H 0.34111 0.17412 0.45766 0.0
H699 H 0.37772 0.25337 0.47191 0.0
H700 H 0.37478 0.26188 0.50028 0.0
H701 H 0.3429 0.22792 0.50977 0.0
H702 H 0.34596 0.21947 0.48141 0.0
H703 H 0.34079 0.22743 0.45293 0.0
H704 H 0.33369 0.23627 0.43041 0.0
H705 H 0.36758 0.25166 0.40372 0.0
H706 H 0.37482 0.24323 0.42716 0.0
H707 H 0.37962 0.22607 0.46865 0.0
H708 H 0.37827 0.20637 0.46799 0.0
H709 H 0.34328 0.19069 0.44196 0.0
N710 N 0.3636 0.23164 0.4569 0.0
H711 H 0.34439 0.21021 0.44396 0.0
C712 C 0.36005 0.14696 0.47149 0.0
C713 C 0.36905 0.14428 0.47566 0.0
C714 C 0.36896 0.13871 0.492 0.0
C715 C 0.35979 0.13565 0.50447 0.0
C716 C 0.35101 0.13873 0.50059 0.0
C717 C 0.35114 0.14435 0.48428 0.0
C718 C 0.35278 0.14216 0.43983 0.0
C719 C 0.34075 0.13353 0.44222 0.0
C720 C 0.33492 0.12351 0.43025 0.0
C721 C 0.34097 0.12198 0.41553 0.0
C722 C 0.35275 0.1311 0.41247 0.0
C723 C 0.35859 0.14105 0.42457 0.0
C724 C 0.35946 0.16248 0.45285 0.0
C725 C 0.3702 0.17321 0.45059 0.0
C726 C 0.37056 0.1843 0.45072 0.0
C727 C 0.36016 0.18493 0.45349 0.0
C728 C 0.3493 0.17407 0.45538 0.0
C729 C 0.34893 0.16294 0.45485 0.0
C730 C 0.36215 0.23582 0.47461 0.0
C731 C 0.3702 0.24774 0.48027 0.0
C732 C 0.36844 0.2526 0.49636 0.0
C733 C 0.35855 0.24559 0.50717 0.0
C734 C 0.35064 0.23351 0.50179 0.0
C735 C 0.35238 0.22867 0.48559 0.0
C736 C 0.35846 0.23488 0.44191 0.0
C737 C 0.34666 0.2326 0.44215 0.0
C738 C 0.34256 0.23758 0.42905 0.0
C739 C 0.3501 0.24483 0.41528 0.0
C740 C 0.36161 0.24636 0.41434 0.0
C741 C 0.36574 0.24147 0.4276 0.0
C742 C 0.36225 0.21974 0.45616 0.0
C743 C 0.37165 0.21834 0.46288 0.0
C744 C 0.37089 0.20707 0.46229 0.0
C745 C 0.36073 0.19688 0.45463 0.0
C746 C 0.35121 0.19826 0.4481 0.0
C747 C 0.35189 0.20952 0.44905 0.0
H748 H 0.78771 0.12663 0.45237 0.0
N749 N 0.78978 0.14846 0.44462 0.0
H750 H 0.78004 0.11536 0.48022 0.0
H751 H 0.78246 0.15509 0.47415 0.0
H752 H 0.77479 0.14383 0.50232 0.0
H753 H 0.76752 0.14113 0.43392 0.0
H754 H 0.75541 0.12537 0.4112 0.0
H755 H 0.79845 0.13917 0.41801 0.0
H756 H 0.78654 0.12382 0.39504 0.0
H757 H 0.80733 0.14244 0.4473 0.0
H758 H 0.80106 0.17239 0.44336 0.0
H759 H 0.82858 0.15627 0.45025 0.0
H760 H 0.82241 0.18649 0.44775 0.0
H761 H 0.89464 0.20502 0.48464 0.0
H762 H 0.90257 0.2162 0.51368 0.0
H763 H 0.87653 0.22788 0.51098 0.0
H764 H 0.86891 0.2169 0.48164 0.0
H765 H 0.88156 0.22679 0.45436 0.0
H766 H 0.89568 0.24025 0.43225 0.0
H767 H 0.90419 0.21267 0.41732 0.0
H768 H 0.88991 0.19918 0.43945 0.0
H769 H 0.8641 0.18265 0.47634 0.0
H770 H 0.84277 0.16918 0.47136 0.0
H771 H 0.84144 0.19538 0.43614 0.0
N772 N 0.87768 0.20438 0.46312 0.0
H773 H 0.86251 0.20909 0.44233 0.0
C774 C 0.78566 0.14175 0.4612 0.0
C775 C 0.78505 0.13054 0.46325 0.0
C776 C 0.78069 0.12411 0.47924 0.0
C777 C 0.77684 0.12872 0.49349 0.0
C778 C 0.7776 0.14 0.49151 0.0
C779 C 0.782 0.14645 0.47551 0.0
C780 C 0.78387 0.14129 0.42819 0.0
C781 C 0.77179 0.13759 0.42518 0.0
C782 C 0.76487 0.12857 0.4121 0.0
C783 C 0.76994 0.12312 0.40147 0.0
C784 C 0.78227 0.12757 0.40335 0.0
C785 C 0.78916 0.13648 0.41661 0.0
C786 C 0.80254 0.15638 0.44469 0.0
C787 C 0.81052 0.15202 0.44691 0.0
C788 C 0.82274 0.16001 0.44893 0.0
C789 C 0.82732 0.17258 0.44948 0.0
C790 C 0.81932 0.17691 0.44711 0.0
C791 C 0.80708 0.16887 0.44464 0.0
C792 C 0.88119 0.21008 0.48107 0.0
C793 C 0.89057 0.20987 0.49049 0.0
C794 C 0.89504 0.21623 0.5071 0.0
C795 C 0.89019 0.22295 0.5147 0.0
C796 C 0.88057 0.22292 0.50541 0.0
C797 C 0.87613 0.21657 0.48872 0.0
C798 C 0.88475 0.21196 0.4486 0.0
C799 C 0.88634 0.22357 0.44619 0.0
C800 C 0.89446 0.23128 0.43359 0.0
C801 C 0.90113 0.22756 0.42316 0.0
C802 C 0.89911 0.21576 0.42503 0.0
C803 C 0.891 0.20806 0.43766 0.0
C804 C 0.86502 0.1968 0.45961 0.0
C805 C 0.85916 0.18547 0.4676 0.0
C806 C 0.84696 0.17773 0.46455 0.0
C807 C 0.84031 0.18105 0.45306 0.0
C808 C 0.84618 0.19251 0.44518 0.0
C809 C 0.85837 0.20037 0.44859 0.0
H810 H 0.0009 0.53378 0.20715 0.0
N811 N 0.98396 0.52511 0.23351 0.0
H812 H 0.00064 0.54437 0.1799 0.0
H813 H 0.96578 0.52694 0.22014 0.0
H814 H 0.96518 0.53706 0.19234 0.0
H815 H 0.97317 0.52561 0.26399 0.0
H816 H 0.98005 0.5423 0.28672 0.0
H817 H 0.00576 0.54595 0.2349 0.0
H818 H 0.0126 0.56238 0.2573 0.0
H819 H 0.00646 0.52845 0.24103 0.0
H820 H 0.97038 0.5018 0.22497 0.0
H821 H 0.01227 0.51324 0.23943 0.0
H822 H 0.97634 0.48647 0.22245 0.0
H823 H 0.02748 0.46352 0.20718 0.0
H824 H 0.02505 0.45124 0.17971 0.0
H825 H 0.9869 0.43633 0.18101 0.0
H826 H 0.98951 0.44894 0.20816 0.0
H827 H 0.99149 0.44324 0.23899 0.0
H828 H 0.9916 0.43166 0.26503 0.0
H829 H 0.02867 0.45794 0.27629 0.0
H830 H 0.02824 0.46979 0.2507 0.0
H831 H 0.02242 0.48667 0.21683 0.0
H832 H 0.01588 0.50156 0.21802 0.0
H833 H 0.98225 0.47465 0.23957 0.0
N834 N 0.01057 0.46386 0.22658 0.0
H835 H 0.98866 0.45976 0.23741 0.0
C836 C 0.98336 0.52967 0.21582 0.0
C837 C 0.99301 0.53433 0.20393 0.0
C838 C 0.99281 0.54032 0.18823 0.0
C839 C 0.98294 0.5417 0.18399 0.0
C840 C 0.97303 0.5364 0.19537 0.0
C841 C 0.97329 0.53051 0.21116 0.0
C842 C 0.98892 0.53439 0.24781 0.0
C843 C 0.98188 0.53353 0.26272 0.0
C844 C 0.98579 0.54307 0.2756 0.0
C845 C 0.9969 0.55361 0.27385 0.0
C846 C 0.00411 0.55429 0.25925 0.0
C847 C 0.00015 0.54486 0.24632 0.0
C848 C 0.98784 0.51629 0.23331 0.0
C849 C 0.99972 0.51935 0.23716 0.0
C850 C 0.00311 0.51059 0.23602 0.0
C851 C 0.99481 0.4986 0.23071 0.0
C852 C 0.98295 0.49556 0.22685 0.0
C853 C 0.97953 0.50431 0.2282 0.0
C854 C 0.00873 0.45714 0.20968 0.0
C855 C 0.01863 0.45769 0.20137 0.0
C856 C 0.01719 0.45058 0.1858 0.0
C857 C 0.00577 0.4427 0.17825 0.0
C858 C 0.99583 0.44236 0.18638 0.0
C859 C 0.9973 0.44952 0.20197 0.0
C860 C 0.0099 0.45746 0.24296 0.0
C861 C 0.99954 0.4467 0.24734 0.0
C862 C 0.99966 0.44 0.26217 0.0
C863 C 0.01017 0.44379 0.27273 0.0
C864 C 0.02036 0.45481 0.2687 0.0
C865 C 0.02018 0.46157 0.254 0.0
C866 C 0.00615 0.47218 0.22721 0.0
C867 C 0.01362 0.48402 0.22172 0.0
C868 C 0.00989 0.49252 0.22257 0.0
C869 C 0.99857 0.48937 0.22912 0.0
C870 C 0.99098 0.47739 0.23432 0.0
C871 C 0.9947 0.46885 0.23326 0.0
H872 H 0.57029 0.52646 0.22424 0.0
N873 N 0.55074 0.51944 0.24325 0.0
H874 H 0.57546 0.5373 0.19552 0.0
H875 H 0.53611 0.52445 0.22235 0.0
H876 H 0.54108 0.5351 0.19346 0.0
H877 H 0.54281 0.53514 0.25193 0.0
H878 H 0.55264 0.55253 0.27273 0.0
H879 H 0.56848 0.52453 0.26685 0.0
H880 H 0.57901 0.5425 0.28676 0.0
H881 H 0.54649 0.49805 0.23113 0.0
H882 H 0.52952 0.51552 0.25802 0.0
H883 H 0.52744 0.47926 0.22886 0.0
H884 H 0.51064 0.49674 0.2565 0.0
H885 H 0.46936 0.42277 0.21203 0.0
H886 H 0.46051 0.41496 0.18147 0.0
H887 H 0.45884 0.44737 0.17242 0.0
H888 H 0.46765 0.45507 0.2028 0.0
H889 H 0.45707 0.45139 0.23019 0.0
H890 H 0.43909 0.44321 0.24794 0.0
H891 H 0.4479 0.41802 0.27232 0.0
H892 H 0.46597 0.42627 0.25426 0.0
H893 H 0.4933 0.44456 0.23792 0.0
H894 H 0.51239 0.46292 0.24442 0.0
H895 H 0.4957 0.48439 0.23455 0.0
N896 N 0.47264 0.44278 0.22876 0.0
H897 H 0.47668 0.46606 0.22914 0.0
C898 C 0.55288 0.52468 0.22542 0.0
C899 C 0.56384 0.52819 0.21741 0.0
C900 C 0.56673 0.53432 0.20098 0.0
C901 C 0.55867 0.53706 0.1922 0.0
C902 C 0.54753 0.53323 0.19999 0.0
C903 C 0.54465 0.52709 0.21646 0.0
C904 C 0.55477 0.52833 0.25805 0.0
C905 C 0.55036 0.53632 0.26009 0.0
C906 C 0.55619 0.54647 0.27178 0.0
C907 C 0.5668 0.54913 0.28124 0.0
C908 C 0.57082 0.54076 0.27993 0.0
C909 C 0.56481 0.53045 0.26851 0.0
C910 C 0.53958 0.50827 0.24469 0.0
C911 C 0.53871 0.49776 0.23692 0.0
C912 C 0.5278 0.48701 0.2357 0.0
C913 C 0.51743 0.48645 0.24243 0.0
C914 C 0.51838 0.49688 0.25085 0.0
C915 C 0.5293 0.50769 0.25187 0.0
C916 C 0.46916 0.43945 0.20979 0.0
C917 C 0.46731 0.42827 0.20327 0.0
C918 C 0.46226 0.42384 0.18583 0.0
C919 C 0.45889 0.43052 0.17462 0.0
C920 C 0.4612 0.44195 0.18087 0.0
C921 C 0.46632 0.44641 0.19827 0.0
C922 C 0.46294 0.43946 0.24096 0.0
C923 C 0.45536 0.44434 0.23964 0.0
C924 C 0.44503 0.43963 0.24983 0.0
C925 C 0.44203 0.42991 0.26144 0.0
C926 C 0.44989 0.4254 0.26331 0.0
C927 C 0.46025 0.43015 0.25315 0.0
C928 C 0.48359 0.45387 0.23281 0.0
C929 C 0.4938 0.45325 0.23729 0.0
C930 C 0.50471 0.46377 0.24088 0.0
C931 C 0.50565 0.47519 0.23988 0.0
C932 C 0.49532 0.47577 0.23569 0.0
C933 C 0.48438 0.46523 0.23231 0.0
H934 H 0.53438 0.98937 0.22251 0.0
N935 N 0.53269 0.00673 0.24255 0.0
H936 H 0.54346 0.99181 0.19291 0.0
H937 H 0.54121 0.02599 0.2216 0.0
H938 H 0.55039 0.02853 0.19163 0.0
H939 H 0.55323 0.02142 0.25967 0.0
H940 H 0.56586 0.01587 0.27724 0.0
H941 H 0.52582 0.98394 0.25511 0.0
H942 H 0.53821 0.97837 0.27298 0.0
H943 H 0.51501 0.98454 0.22927 0.0
H944 H 0.52153 0.01724 0.25747 0.0
H945 H 0.49375 0.97718 0.22876 0.0
H946 H 0.5001 0.01006 0.25646 0.0
H947 H 0.42767 0.9617 0.21078 0.0
H948 H 0.42045 0.96569 0.18204 0.0
H949 H 0.44768 0.00333 0.18743 0.0
H950 H 0.45508 0.99913 0.21568 0.0
H951 H 0.44939 0.99964 0.24603 0.0
H952 H 0.43627 0.00323 0.26547 0.0
H953 H 0.41378 0.96475 0.27139 0.0
H954 H 0.42685 0.96124 0.25153 0.0
H955 H 0.45936 0.97509 0.20919 0.0
H956 H 0.4804 0.98175 0.21273 0.0
H957 H 0.48072 0.99513 0.26747 0.0
N958 N 0.44515 0.97755 0.23306 0.0
H959 H 0.45977 0.98876 0.26391 0.0
C960 C 0.53709 0.00754 0.2243 0.0
C961 C 0.53761 0.99788 0.2158 0.0
C962 C 0.5428 0.99928 0.19877 0.0
C963 C 0.54762 0.01036 0.18991 0.0
C964 C 0.54681 0.01991 0.1982 0.0
C965 C 0.54155 0.01847 0.21522 0.0
C966 C 0.53859 0.0032 0.25598 0.0
C967 C 0.54979 0.01204 0.26295 0.0
C968 C 0.55699 0.00884 0.273 0.0
C969 C 0.55311 0.99664 0.27635 0.0
C970 C 0.54157 0.98782 0.27034 0.0
C971 C 0.53438 0.99104 0.26021 0.0
C972 C 0.51994 0.00151 0.2435 0.0
C973 C 0.51191 0.99014 0.23552 0.0
C974 C 0.49968 0.98596 0.23507 0.0
C975 C 0.4952 0.99308 0.24238 0.0
C976 C 0.50322 0.00428 0.25085 0.0
C977 C 0.51546 0.00842 0.25139 0.0
C978 C 0.44185 0.98007 0.21538 0.0
C979 C 0.43215 0.97075 0.20557 0.0
C980 C 0.42798 0.97309 0.18928 0.0
C981 C 0.43342 0.98485 0.18251 0.0
C982 C 0.44335 0.99415 0.19215 0.0
C983 C 0.44753 0.99179 0.2084 0.0
C984 C 0.43906 0.98011 0.24729 0.0
C985 C 0.44175 0.99199 0.25172 0.0
C986 C 0.43427 0.99403 0.26294 0.0
C987 C 0.42392 0.98427 0.2698 0.0
C988 C 0.4216 0.97245 0.26609 0.0
C989 C 0.4291 0.97042 0.25494 0.0
C990 C 0.45784 0.98195 0.23574 0.0
C991 C 0.46395 0.97968 0.22187 0.0
C992 C 0.476 0.98333 0.22402 0.0
C993 C 0.4823 0.98908 0.24035 0.0
C994 C 0.4762 0.991 0.25454 0.0
C995 C 0.46411 0.98737 0.25238 0.0
H996 H 0.4403 0.96465 0.79993 0.0
N997 N 0.45951 0.98001 0.78219 0.0
H998 H 0.43402 0.96776 0.82993 0.0
H999 H 0.47282 0.99889 0.80646 0.0
H1000 H 0.4669 0.00185 0.83656 0.0
H1001 H 0.46574 0.00368 0.77795 0.0
H1002 H 0.45445 0.01075 0.76017 0.0
H1003 H 0.44256 0.9674 0.75716 0.0
H1004 H 0.43129 0.97443 0.73902 0.0
H1005 H 0.46232 0.96107 0.77765 0.0
H1006 H 0.4818 -5e-05 0.77918 0.0
H1007 H 0.48096 0.96081 0.77615 0.0
H1008 H 0.50053 -0.00011 0.77944 0.0
H1009 H 0.54051 0.96407 0.80603 0.0
H1010 H 0.55022 0.96778 0.83632 0.0
H1011 H 0.55212 0.00245 0.83996 0.0
H1012 H 0.54228 0.99858 0.80962 0.0
H1013 H 0.55315 0.00231 0.78178 0.0
H1014 H 0.5699 0.00903 0.7614 0.0
H1015 H 0.55587 0.97225 0.74156 0.0
H1016 H 0.53899 0.96566 0.76185 0.0
H1017 H 0.51458 0.96316 0.79886 0.0
H1018 H 0.49618 0.96372 0.79586 0.0
H1019 H 0.51458 0.99657 0.76542 0.0
N1020 N 0.53591 0.97886 0.78717 0.0
H1021 H 0.5331 0.99638 0.76971 0.0
C1022 C 0.457 0.98145 0.8009 0.0
C1023 C 0.44621 0.97268 0.80805 0.0
C1024 C 0.44269 0.97446 0.82523 0.0
C1025 C 0.44995 0.9851 0.83564 0.0
C1026 C 0.46102 0.99365 0.82879 0.0
C1027 C 0.46448 0.99189 0.81155 0.0
C1028 C 0.45497 0.98496 0.76885 0.0
C1029 C 0.45848 0.99729 0.76908 0.0
C1030 C 0.45198 0.00133 0.7589 0.0
C1031 C 0.44186 0.99312 0.7484 0.0
C1032 C 0.43891 0.98094 0.74724 0.0
C1033 C 0.44541 0.97693 0.7574 0.0
C1034 C 0.47064 0.98046 0.77895 0.0
C1035 C 0.47066 0.96956 0.77766 0.0
C1036 C 0.48136 0.96946 0.77709 0.0
C1037 C 0.49237 0.98033 0.77824 0.0
C1038 C 0.4923 0.99131 0.77853 0.0
C1039 C 0.48153 0.99138 0.77863 0.0
C1040 C 0.54073 0.98103 0.80562 0.0
C1041 C 0.5429 0.97239 0.81351 0.0
C1042 C 0.54841 0.97452 0.83079 0.0
C1043 C 0.55195 0.98542 0.84049 0.0
C1044 C 0.54959 0.99402 0.83271 0.0
C1045 C 0.54396 0.99182 0.81543 0.0
C1046 C 0.5448 0.98343 0.77332 0.0
C1047 C 0.55354 0.99572 0.77282 0.0
C1048 C 0.56317 0.99954 0.76123 0.0
C1049 C 0.56429 0.99116 0.74999 0.0
C1050 C 0.55522 0.97897 0.74989 0.0
C1051 C 0.54559 0.97517 0.76147 0.0
C1052 C 0.52524 0.97961 0.7845 0.0
C1053 C 0.51463 0.97049 0.79158 0.0
C1054 C 0.50406 0.97077 0.78962 0.0
C1055 C 0.50375 0.98011 0.78012 0.0
C1056 C 0.51443 0.98929 0.77297 0.0
C1057 C 0.5251 0.98913 0.7753 0.0
H1058 H 0.96746 0.54296 0.81177 0.0
N1059 N 0.98366 0.54033 0.79369 0.0
H1060 H 0.97052 0.55491 0.83993 0.0
H1061 H 0.00429 0.55223 0.81408 0.0
H1062 H 0.00742 0.56395 0.84245 0.0
H1063 H 0.0039 0.56034 0.78334 0.0
H1064 H 0.00521 0.57364 0.75874 0.0
H1065 H 0.96749 0.53522 0.76715 0.0
H1066 H 0.96888 0.54802 0.74173 0.0
H1067 H 0.96535 0.51807 0.79385 0.0
H1068 H 0.00358 0.53838 0.79145 0.0
H1069 H 0.96578 0.49924 0.7932 0.0
H1070 H 0.00429 0.51957 0.79197 0.0
H1071 H 0.97122 0.44172 0.81122 0.0
H1072 H 0.97869 0.43482 0.83654 0.0
H1073 H 0.01264 0.46786 0.83515 0.0
H1074 H 0.00505 0.47468 0.80966 0.0
H1075 H 0.00249 0.46206 0.77883 0.0
H1076 H 0.0022 0.44964 0.75304 0.0
H1077 H 0.96535 0.4389 0.74118 0.0
H1078 H 0.96556 0.4507 0.76796 0.0
H1079 H 0.96966 0.46833 0.8116 0.0
H1080 H 0.97065 0.48786 0.81237 0.0
H1081 H 6e-05 0.50164 0.77532 0.0
N1082 N 0.98301 0.46192 0.79298 0.0
H1083 H 0.99941 0.48217 0.77564 0.0
C1084 C 0.9856 0.54667 0.81094 0.0
C1085 C 0.97616 0.54745 0.81856 0.0
C1086 C 0.97793 0.55423 0.83465 0.0
C1087 C 0.98923 0.5604 0.84346 0.0
C1088 C 0.99865 0.55944 0.8359 0.0
C1089 C 0.99686 0.55265 0.81977 0.0
C1090 C 0.98547 0.54697 0.77726 0.0
C1091 C 0.99628 0.55755 0.77417 0.0
C1092 C 0.99704 0.56509 0.75995 0.0
C1093 C 0.98705 0.56204 0.74846 0.0
C1094 C 0.97663 0.55084 0.75064 0.0
C1095 C 0.97583 0.54345 0.76502 0.0
C1096 C 0.9844 0.52952 0.79301 0.0
C1097 C 0.97385 0.5184 0.79338 0.0
C1098 C 0.97416 0.50767 0.79318 0.0
C1099 C 0.9851 0.50784 0.7929 0.0
C1100 C 0.99571 0.51907 0.79215 0.0
C1101 C 0.99535 0.52984 0.79208 0.0
C1102 C 0.98753 0.45867 0.80869 0.0
C1103 C 0.98023 0.4475 0.81652 0.0
C1104 C 0.98454 0.44356 0.83085 0.0
C1105 C 0.99627 0.45078 0.83771 0.0
C1106 C 0.00354 0.46216 0.83017 0.0
C1107 C 0.99923 0.46605 0.81566 0.0
C1108 C 0.9839 0.45697 0.77562 0.0
C1109 C 0.99439 0.45713 0.77057 0.0
C1110 C 0.99423 0.45009 0.75562 0.0
C1111 C 0.98365 0.44298 0.7452 0.0
C1112 C 0.97355 0.44391 0.74923 0.0
C1113 C 0.97366 0.45074 0.7644 0.0
C1114 C 0.98428 0.47375 0.79336 0.0
C1115 C 0.97636 0.47561 0.80376 0.0
C1116 C 0.97689 0.48676 0.80401 0.0
C1117 C 0.98527 0.4963 0.79358 0.0
C1118 C 0.9935 0.49453 0.78356 0.0
C1119 C 0.99308 0.48337 0.78357 0.0
H1120 H 0.45211 0.46102 0.78677 0.0
N1121 N 0.4554 0.48344 0.77964 0.0
H1122 H 0.44485 0.45003 0.81485 0.0
H1123 H 0.45021 0.4911 0.81037 0.0
H1124 H 0.44327 0.48025 0.839 0.0
H1125 H 0.43348 0.47796 0.76988 0.0
H1126 H 0.41994 0.46212 0.74803 0.0
H1127 H 0.46214 0.4723 0.75309 0.0
H1128 H 0.44869 0.45657 0.73152 0.0
H1129 H 0.47236 0.47656 0.78106 0.0
H1130 H 0.46732 0.50731 0.7777 0.0
H1131 H 0.49376 0.48983 0.78332 0.0
H1132 H 0.48881 0.52084 0.78142 0.0
H1133 H 0.55921 0.53684 0.82084 0.0
H1134 H 0.56699 0.54821 0.84981 0.0
H1135 H 0.54323 0.56254 0.84352 0.0
H1136 H 0.53528 0.55082 0.81483 0.0
H1137 H 0.54769 0.55972 0.78817 0.0
H1138 H 0.56254 0.57313 0.76691 0.0
H1139 H 0.57133 0.54546 0.75418 0.0
H1140 H 0.5563 0.53198 0.77547 0.0
H1141 H 0.52942 0.51547 0.81028 0.0
H1142 H 0.50809 0.50238 0.80467 0.0
H1143 H 0.5078 0.52922 0.76969 0.0
N1144 N 0.54348 0.5373 0.79776 0.0
H1145 H 0.52888 0.54253 0.77646 0.0
C1146 C 0.4516 0.47689 0.79642 0.0
C1147 C 0.45025 0.46533 0.79808 0.0
C1148 C 0.44618 0.45907 0.81427 0.0
C1149 C 0.44348 0.46425 0.82923 0.0
C1150 C 0.4451 0.47593 0.82766 0.0
C1151 C 0.44912 0.48216 0.81139 0.0
C1152 C 0.44882 0.47632 0.76354 0.0
C1153 C 0.43695 0.47359 0.76115 0.0
C1154 C 0.42922 0.46449 0.74877 0.0
C1155 C 0.43324 0.45801 0.73829 0.0
C1156 C 0.44535 0.46144 0.73942 0.0
C1157 C 0.45308 0.47046 0.75197 0.0
C1158 C 0.46818 0.49094 0.77878 0.0
C1159 C 0.47585 0.48619 0.78052 0.0
C1160 C 0.48816 0.49385 0.78219 0.0
C1161 C 0.49311 0.50648 0.78281 0.0
C1162 C 0.48542 0.5112 0.78072 0.0
C1163 C 0.4731 0.50349 0.77863 0.0
C1164 C 0.54673 0.543 0.81571 0.0
C1165 C 0.55557 0.54229 0.82593 0.0
C1166 C 0.56007 0.54888 0.84235 0.0
C1167 C 0.55585 0.55642 0.84886 0.0
C1168 C 0.54663 0.55677 0.83895 0.0
C1169 C 0.5421 0.55012 0.82252 0.0
C1170 C 0.55093 0.54481 0.78347 0.0
C1171 C 0.55267 0.55644 0.78065 0.0
C1172 C 0.56121 0.56414 0.76854 0.0
C1173 C 0.56818 0.56039 0.75902 0.0
C1174 C 0.56603 0.54857 0.76121 0.0
C1175 C 0.55749 0.54088 0.77336 0.0
C1176 C 0.53086 0.52992 0.79373 0.0
C1177 C 0.52472 0.51851 0.80144 0.0
C1178 C 0.51252 0.51099 0.79801 0.0
C1179 C 0.50615 0.51461 0.78646 0.0
C1180 C 0.51232 0.52612 0.77878 0.0
C1181 C 0.52451 0.53375 0.78253 0.0
H1182 H 0.68633 0.88137 0.551 0.0
N1183 N 0.66825 0.86333 0.56747 0.0
H1184 H 0.6856 0.89139 0.52314 0.0
H1185 H 0.64868 0.85615 0.54465 0.0
H1186 H 0.6479 0.86592 0.51675 0.0
H1187 H 0.64841 0.86504 0.57441 0.0
H1188 H 0.64727 0.87855 0.59725 0.0
H1189 H 0.68341 0.87465 0.59529 0.0
H1190 H 0.68227 0.88809 0.61839 0.0
H1191 H 0.68171 0.85329 0.56526 0.0
H1192 H 0.64533 0.84473 0.5712 0.0
H1193 H 0.67532 0.83181 0.56418 0.0
H1194 H 0.6387 0.8232 0.56899 0.0
H1195 H 0.66308 0.77678 0.54789 0.0
H1196 H 0.66509 0.76745 0.51998 0.0
H1197 H 0.62771 0.75313 0.50684 0.0
H1198 H 0.62584 0.76283 0.53483 0.0
H1199 H 0.63125 0.75427 0.57703 0.0
H1200 H 0.63946 0.74636 0.59962 0.0
H1201 H 0.6722 0.7808 0.60233 0.0
H1202 H 0.66418 0.78836 0.57908 0.0
H1203 H 0.66028 0.79426 0.5416 0.0
H1204 H 0.66567 0.8152 0.54389 0.0
H1205 H 0.63827 0.8065 0.58345 0.0
N1206 N 0.64259 0.77532 0.56058 0.0
H1207 H 0.63239 0.78515 0.5803 0.0
C1208 C 0.66763 0.86804 0.54995 0.0
C1209 C 0.67797 0.87786 0.54339 0.0
C1210 C 0.67753 0.88353 0.52745 0.0
C1211 C 0.66667 0.87946 0.51776 0.0
C1212 C 0.65637 0.86935 0.52403 0.0
C1213 C 0.65683 0.86369 0.53997 0.0
C1214 C 0.66612 0.86898 0.58302 0.0
C1215 C 0.65572 0.86979 0.5842 0.0
C1216 C 0.65508 0.87754 0.59725 0.0
C1217 C 0.66472 0.88445 0.60947 0.0
C1218 C 0.67466 0.88282 0.60924 0.0
C1219 C 0.67535 0.87518 0.59606 0.0
C1220 C 0.66403 0.8506 0.56807 0.0
C1221 C 0.67232 0.84673 0.56626 0.0
C1222 C 0.66862 0.83444 0.56544 0.0
C1223 C 0.65644 0.82571 0.56613 0.0
C1224 C 0.64814 0.82963 0.56848 0.0
C1225 C 0.6519 0.84197 0.56957 0.0
C1226 C 0.64424 0.7705 0.54351 0.0
C1227 C 0.6553 0.77169 0.53903 0.0
C1228 C 0.65643 0.76627 0.52306 0.0
C1229 C 0.64654 0.75943 0.51123 0.0
C1230 C 0.63554 0.75842 0.51556 0.0
C1231 C 0.63443 0.76392 0.53155 0.0
C1232 C 0.64702 0.77185 0.57627 0.0
C1233 C 0.6401 0.76016 0.5828 0.0
C1234 C 0.64481 0.75569 0.59581 0.0
C1235 C 0.65656 0.76291 0.60272 0.0
C1236 C 0.66321 0.77491 0.59706 0.0
C1237 C 0.65856 0.77931 0.58385 0.0
C1238 C 0.64575 0.78791 0.56071 0.0
C1239 C 0.65523 0.79665 0.5506 0.0
C1240 C 0.65846 0.8088 0.55211 0.0
C1241 C 0.65252 0.81263 0.56403 0.0
C1242 C 0.64298 0.8039 0.57398 0.0
C1243 C 0.63962 0.79169 0.57226 0.0
H1244 H 0.23854 0.85992 0.55784 0.0
N1245 N 0.21819 0.85425 0.57373 0.0
H1246 H 0.2458 0.87028 0.52896 0.0
H1247 H 0.20537 0.85949 0.54887 0.0
H1248 H 0.21244 0.86959 0.52005 0.0
H1249 H 0.21216 0.87191 0.5771 0.0
H1250 H 0.22189 0.88959 0.5974 0.0
H1251 H 0.23261 0.85756 0.60216 0.0
H1252 H 0.24219 0.87516 0.62315 0.0
H1253 H 0.21467 0.83203 0.57337 0.0
H1254 H 0.19604 0.85194 0.57719 0.0
H1255 H 0.1957 0.81306 0.5728 0.0
H1256 H 0.17703 0.83314 0.57546 0.0
H1257 H 0.13344 0.7547 0.55063 0.0
H1258 H 0.12291 0.74673 0.52115 0.0
H1259 H 0.12562 0.78117 0.51081 0.0
H1260 H 0.13634 0.78911 0.54023 0.0
H1261 H 0.12486 0.7847 0.56819 0.0
H1262 H 0.10739 0.77679 0.58731 0.0
H1263 H 0.11741 0.75251 0.61182 0.0
H1264 H 0.135 0.76064 0.59276 0.0
H1265 H 0.16094 0.78241 0.55002 0.0
H1266 H 0.17963 0.80148 0.55266 0.0
H1267 H 0.16353 0.81533 0.59002 0.0
N1268 N 0.14047 0.77623 0.566 0.0
H1269 H 0.14478 0.79661 0.58661 0.0
C1270 C 0.22145 0.8589 0.55559 0.0
C1271 C 0.23274 0.86183 0.54946 0.0
C1272 C 0.23685 0.86771 0.53295 0.0
C1273 C 0.22971 0.87081 0.52227 0.0
C1274 C 0.2182 0.86746 0.52809 0.0
C1275 C 0.21411 0.86158 0.54458 0.0
C1276 C 0.22173 0.8634 0.58801 0.0
C1277 C 0.21846 0.87234 0.58737 0.0
C1278 C 0.22404 0.8825 0.59911 0.0
C1279 C 0.23296 0.88391 0.6118 0.0
C1280 C 0.23554 0.87449 0.61331 0.0
C1281 C 0.23 0.86437 0.60148 0.0
C1282 C 0.20682 0.84338 0.57514 0.0
C1283 C 0.20646 0.83228 0.5741 0.0
C1284 C 0.19559 0.82147 0.57354 0.0
C1285 C 0.18476 0.82152 0.57373 0.0
C1286 C 0.18515 0.8327 0.57539 0.0
C1287 C 0.19607 0.84352 0.57624 0.0
C1288 C 0.13565 0.77244 0.5476 0.0
C1289 C 0.13192 0.76056 0.54184 0.0
C1290 C 0.12581 0.75601 0.52511 0.0
C1291 C 0.1233 0.76328 0.51376 0.0
C1292 C 0.12746 0.77536 0.51921 0.0
C1293 C 0.13356 0.77991 0.53603 0.0
C1294 C 0.13124 0.77322 0.57908 0.0
C1295 C 0.1234 0.77781 0.57787 0.0
C1296 C 0.11338 0.77323 0.58875 0.0
C1297 C 0.11094 0.76393 0.60095 0.0
C1298 C 0.11909 0.75976 0.60271 0.0
C1299 C 0.12913 0.76437 0.59184 0.0
C1300 C 0.15126 0.78792 0.56778 0.0
C1301 C 0.16139 0.78961 0.55861 0.0
C1302 C 0.17214 0.8005 0.56034 0.0
C1303 C 0.17317 0.80999 0.57168 0.0
C1304 C 0.16305 0.80833 0.58095 0.0
C1305 C 0.15222 0.79746 0.579 0.0
H1306 H 0.21131 0.33687 0.55692 0.0
N1307 N 0.20775 0.35354 0.57567 0.0
H1308 H 0.22119 0.33967 0.52804 0.0
H1309 H 0.21531 0.37236 0.5538 0.0
H1310 H 0.22535 0.37524 0.52448 0.0
H1311 H 0.22721 0.36878 0.59491 0.0
H1312 H 0.23984 0.36386 0.61383 0.0
H1313 H 0.2017 0.33088 0.58727 0.0
H1314 H 0.21442 0.32585 0.60561 0.0
H1315 H 0.19103 0.3327 0.5573 0.0
H1316 H 0.19535 0.3608 0.59537 0.0
H1317 H 0.1697 0.32448 0.55642 0.0
H1318 H 0.17372 0.35207 0.59559 0.0
H1319 H 0.1015 0.30158 0.54657 0.0
H1320 H 0.09305 0.3029 0.51709 0.0
H1321 H 0.1211 0.34007 0.51351 0.0
H1322 H 0.12924 0.33879 0.54297 0.0
H1323 H 0.11694 0.33922 0.56953 0.0
H1324 H 0.10341 0.34133 0.58992 0.0
H1325 H 0.09414 0.30706 0.61357 0.0
H1326 H 0.10748 0.30484 0.59253 0.0
H1327 H 0.13058 0.3066 0.56631 0.0
H1328 H 0.15183 0.31402 0.57129 0.0
H1329 H 0.15805 0.35044 0.57736 0.0
N1330 N 0.11954 0.3193 0.56565 0.0
H1331 H 0.13679 0.3428 0.57365 0.0
C1332 C 0.21265 0.35451 0.55773 0.0
C1333 C 0.21426 0.34528 0.55004 0.0
C1334 C 0.21996 0.34689 0.53348 0.0
C1335 C 0.22418 0.35773 0.52415 0.0
C1336 C 0.22216 0.36678 0.53139 0.0
C1337 C 0.21647 0.36517 0.5481 0.0
C1338 C 0.21357 0.35026 0.5896 0.0
C1339 C 0.22423 0.35941 0.59766 0.0
C1340 C 0.23149 0.35656 0.60826 0.0
C1341 C 0.22826 0.34445 0.61094 0.0
C1342 C 0.21717 0.33528 0.60389 0.0
C1343 C 0.20986 0.33815 0.59335 0.0
C1344 C 0.19491 0.34762 0.57615 0.0
C1345 C 0.18743 0.33708 0.56566 0.0
C1346 C 0.17509 0.33224 0.56536 0.0
C1347 C 0.16988 0.33763 0.57584 0.0
C1348 C 0.17737 0.34783 0.58698 0.0
C1349 C 0.18974 0.35278 0.58702 0.0
C1350 C 0.11601 0.32 0.54707 0.0
C1351 C 0.10593 0.30993 0.53922 0.0
C1352 C 0.10113 0.31071 0.52237 0.0
C1353 C 0.10635 0.32163 0.51301 0.0
C1354 C 0.11675 0.33158 0.52052 0.0
C1355 C 0.12151 0.33081 0.53738 0.0
C1356 C 0.11313 0.32176 0.5794 0.0
C1357 C 0.11217 0.33224 0.57926 0.0
C1358 C 0.10443 0.33347 0.59104 0.0
C1359 C 0.09757 0.3243 0.60326 0.0
C1360 C 0.0991 0.31417 0.60407 0.0
C1361 C 0.10679 0.31293 0.59221 0.0
C1362 C 0.13209 0.3241 0.56934 0.0
C1363 C 0.13656 0.31616 0.56889 0.0
C1364 C 0.14874 0.32046 0.57159 0.0
C1365 C 0.15677 0.33289 0.57452 0.0
C1366 C 0.15219 0.34081 0.57538 0.0
C1367 C 0.13998 0.33645 0.57301 0.0
H1368 H 0.00973 0.37687 0.04484 0.0
H1369 H 0.0112 0.38748 0.07381 0.0
H1370 H 0.98187 0.3921 0.05619 0.0
H1371 H 0.98017 0.38138 0.02746 0.0
H1372 H 0.01589 0.41088 0.07837 0.0
H1373 H 0.97211 0.37925 0.10719 0.0
H1374 H 0.97822 0.37505 0.08832 0.0
H1375 H 0.9709 0.38365 0.08442 0.0
C1376 C 0.0035 0.38002 0.04721 0.0
C1377 C 0.99481 0.37823 0.0338 0.0
C1378 C 0.00436 0.38609 0.06377 0.0
C1379 C 0.99653 0.39042 0.06728 0.0
C1380 C 0.98782 0.38859 0.05398 0.0
H1381 H 0.99054 0.43691 0.14844 0.0
H1382 H 0.98839 0.42395 0.12191 0.0
C1383 C 0.98693 0.38251 0.03747 0.0
C1384 C 0.99787 0.39749 0.08433 0.0
H1385 H 0.98275 0.39899 0.12122 0.0
C1386 C 0.0087 0.40821 0.08785 0.0
C1387 C 0.98844 0.39401 0.09664 0.0
C1388 C 0.97681 0.3823 0.09407 0.0
C1389 C 0.01025 0.41574 0.10308 0.0
C1390 C 0.00076 0.41236 0.1152 0.0
C1391 C 0.98998 0.40157 0.11182 0.0
C1392 C 0.00187 0.41993 0.13148 0.0
C1393 C 0.02191 0.42741 0.10581 0.0
C1394 C 0.01001 0.42178 0.14575 0.0
C1395 C 0.01121 0.4291 0.16094 0.0
C1396 C 0.00427 0.43472 0.16219 0.0
C1397 C 0.99596 0.43266 0.14798 0.0
C1398 C 0.99476 0.42531 0.13279 0.0
H1399 H 0.02724 0.42997 0.09322 0.0
H1400 H 0.02035 0.43489 0.10995 0.0
H1401 H 0.02724 0.42636 0.11689 0.0
H1402 H 0.01541 0.41751 0.14515 0.0
H1403 H 0.0175 0.43026 0.17181 0.0
H1404 H 0.60369 0.62447 0.07897 0.0
H1405 H 0.59022 0.60849 0.09902 0.0
H1406 H 0.60641 0.5873 0.08428 0.0
H1407 H 0.61978 0.60312 0.06393 0.0
H1408 H 0.58103 0.57373 0.08626 0.0
H1409 H 0.60268 0.6031 0.14813 0.0
H1410 H 0.59713 0.60925 0.13124 0.0
H1411 H 0.60923 0.60677 0.12587 0.0
C1412 C 0.60429 0.61635 0.07979 0.0
C1413 C 0.61286 0.6151 0.06994 0.0
C1414 C 0.59663 0.60726 0.09133 0.0
C1415 C 0.59747 0.59682 0.09333 0.0
C1416 C 0.60566 0.59532 0.08296 0.0
H1417 H 0.5709 0.53565 0.16292 0.0
H1418 H 0.5789 0.54964 0.13773 0.0
C1419 C 0.61331 0.60438 0.07138 0.0
C1420 C 0.59027 0.58774 0.10692 0.0
H1421 H 0.5864 0.58373 0.15287 0.0
C1422 C 0.58215 0.5759 0.10083 0.0
C1423 C 0.59179 0.59063 0.1259 0.0
C1424 C 0.60074 0.60309 0.13326 0.0
C1425 C 0.57547 0.56684 0.11327 0.0
C1426 C 0.57712 0.5697 0.13225 0.0
C1427 C 0.58511 0.58159 0.13829 0.0
C1428 C 0.57116 0.56045 0.14625 0.0
C1429 C 0.56665 0.55433 0.10598 0.0
C1430 C 0.56421 0.56191 0.15944 0.0
C1431 C 0.55976 0.55403 0.17399 0.0
C1432 C 0.56225 0.54457 0.17567 0.0
C1433 C 0.56891 0.5429 0.1621 0.0
C1434 C 0.57337 0.5508 0.14756 0.0
H1435 H 0.56389 0.55447 0.09156 0.0
H1436 H 0.57087 0.54862 0.10637 0.0
H1437 H 0.55859 0.55006 0.11443 0.0
H1438 H 0.5625 0.56937 0.15875 0.0
H1439 H 0.55481 0.55567 0.18433 0.0
H1440 H 0.41097 0.02314 0.03458 0.0
H1441 H 0.41795 0.01823 0.06258 0.0
H1442 H 0.3819 0.99105 0.07405 0.0
H1443 H 0.37482 0.9957 0.04581 0.0
H1444 H 0.41244 0.01898 0.09848 0.0
H1445 H 0.39937 0.97212 0.0765 0.0
H1446 H 0.39961 0.98299 0.06082 0.0
H1447 H 0.38736 0.97528 0.07591 0.0
C1448 C 0.40449 0.01613 0.04304 0.0
C1449 C 0.39233 0.00975 0.03783 0.0
C1450 C 0.40851 0.01334 0.05906 0.0
C1451 C 0.40048 0.00413 0.0702 0.0
C1452 C 0.38829 0.99799 0.06539 0.0
H1453 H 0.40998 0.97579 0.17243 0.0
H1454 H 0.40193 0.98048 0.1453 0.0
C1455 C 0.38425 0.00072 0.0493 0.0
C1456 C 0.40492 0.00099 0.08685 0.0
H1457 H 0.40668 0.97801 0.10705 0.0
C1458 C 0.4112 0.01004 0.10035 0.0
C1459 C 0.40331 0.98931 0.08921 0.0
C1460 C 0.39714 0.97938 0.07478 0.0
C1461 C 0.41583 0.00768 0.11624 0.0
C1462 C 0.41422 0.99602 0.11856 0.0
C1463 C 0.40787 0.98694 0.10517 0.0
C1464 C 0.41917 0.99308 0.13478 0.0
C1465 C 0.42228 0.01763 0.13053 0.0
C1466 C 0.43153 0.99848 0.13763 0.0
C1467 C 0.43617 0.99572 0.15301 0.0
C1468 C 0.42852 0.98751 0.16581 0.0
C1469 C 0.41613 0.98202 0.16274 0.0
C1470 C 0.4115 0.98475 0.14731 0.0
H1471 H 0.42053 0.02521 0.12857 0.0
H1472 H 0.41961 0.01413 0.1445 0.0
H1473 H 0.43202 0.02125 0.12961 0.0
H1474 H 0.43758 0.00478 0.1279 0.0
H1475 H 0.44575 -5e-05 0.15478 0.0
H1476 H 0.39992 0.01958 0.95394 0.0
H1477 H 0.4142 0.01807 0.93421 0.0
H1478 H 0.39675 0.97972 0.94251 0.0
H1479 H 0.38251 0.98114 0.96247 0.0
H1480 H 0.4227 0.99217 0.94313 0.0
H1481 H 0.40295 0.0021 0.88236 0.0
H1482 H 0.4077 0.01296 0.90104 0.0
H1483 H 0.39556 0.99789 0.90395 0.0
C1484 C 0.39921 0.01085 0.95181 0.0
C1485 C 0.39003 0.00046 0.95965 0.0
C1486 C 0.40735 0.01001 0.94048 0.0
C1487 C 0.4064 0.99876 0.93676 0.0
C1488 C 0.39759 0.98847 0.94522 0.0
H1489 H 0.43719 0.96939 0.86258 0.0
H1490 H 0.42779 0.97329 0.88853 0.0
C1491 C 0.38945 0.9893 0.95655 0.0
C1492 C 0.41405 0.99758 0.92309 0.0
H1493 H 0.4195 0.99965 0.87743 0.0
C1494 C 0.42206 0.99384 0.92876 0.0
C1495 C 0.41312 0.99972 0.90439 0.0
C1496 C 0.40431 0.0033 0.89746 0.0
C1497 C 0.42928 0.99229 0.91615 0.0
C1498 C 0.42827 0.99433 0.89741 0.0
C1499 C 0.4203 0.99815 0.89182 0.0
C1500 C 0.43506 0.99226 0.88313 0.0
C1501 C 0.43802 0.98862 0.92301 0.0
C1502 C 0.4422 0.0016 0.87144 0.0
C1503 C 0.44739 0.99936 0.85643 0.0
C1504 C 0.44553 0.9877 0.85278 0.0
C1505 C 0.4387 0.97844 0.8649 0.0
C1506 C 0.43346 0.98069 0.87989 0.0
H1507 H 0.44016 0.99082 0.93785 0.0
H1508 H 0.43404 0.97872 0.92099 0.0
H1509 H 0.44643 0.99315 0.91537 0.0
H1510 H 0.44345 0.01057 0.87361 0.0
H1511 H 0.45241 0.00666 0.84723 0.0
H1512 H 0.02857 0.40046 0.96372 0.0
H1513 H 0.02989 0.41679 0.94494 0.0
H1514 H 0.99237 0.39539 0.93133 0.0
H1515 H 0.99098 0.37908 0.94983 0.0
H1516 H 0.02422 0.41469 0.90708 0.0
H1517 H 0.99663 0.42855 0.94622 0.0
H1518 H 0.00293 0.42007 0.95618 0.0
H1519 H 0.98943 0.4125 0.94236 0.0
C1520 C 0.02057 0.3993 0.95691 0.0
C1521 C 0.00964 0.38849 0.95839 0.0
C1522 C 0.02135 0.40864 0.94622 0.0
C1523 C 0.01118 0.40737 0.93703 0.0
C1524 C 0.00026 0.39667 0.93868 0.0
H1525 H 0.99422 0.42861 0.83914 0.0
H1526 H 0.00035 0.4203 0.86416 0.0
C1527 C 0.99949 0.38732 0.94923 0.0
C1528 C 0.01203 0.41671 0.92446 0.0
H1529 H 0.99896 0.43343 0.91423 0.0
C1530 C 0.0189 0.419 0.90881 0.0
C1531 C 0.00523 0.42246 0.92688 0.0
C1532 C 0.99823 0.42087 0.94392 0.0
C1533 C 0.01845 0.4262 0.89487 0.0
C1534 C 0.01087 0.43111 0.89661 0.0
C1535 C 0.00468 0.42955 0.91285 0.0
C1536 C 0.00817 0.43667 0.88101 0.0
C1537 C 0.02581 0.42817 0.87814 0.0
C1538 C 0.01046 0.44861 0.88227 0.0
C1539 C 0.00693 0.45339 0.86795 0.0
C1540 C 0.00088 0.4462 0.85235 0.0
C1541 C 0.99878 0.43431 0.85107 0.0
C1542 C 0.00238 0.4296 0.86526 0.0
H1543 H 0.03369 0.42716 0.88124 0.0
H1544 H 0.02028 0.42132 0.86739 0.0
H1545 H 0.02891 0.43727 0.87259 0.0
H1546 H 0.01482 0.45416 0.89441 0.0
H1547 H 0.00858 0.46255 0.86931 0.0
H1548 H 0.58825 0.61941 -0.00025 0.0
H1549 H 0.57901 0.60746 0.97173 0.0
H1550 H 0.61315 0.61325 0.95485 0.0
H1551 H 0.6225 0.62507 0.98301 0.0
H1552 H 0.58324 0.61321 0.93509 0.0
H1553 H 0.5924 0.57649 0.95265 0.0
H1554 H 0.59401 0.58788 0.96918 0.0
H1555 H 0.6054 0.59126 0.95282 0.0
C1556 C 0.59384 0.6182 0.99008 0.0
C1557 C 0.60612 0.62313 0.99375 0.0
C1558 C 0.58852 0.61136 0.97406 0.0
C1559 C 0.59535 0.60928 0.96139 0.0
C1560 C 0.60767 0.61452 0.96466 0.0
H1561 H 0.57952 0.56919 0.85857 0.0
H1562 H 0.58882 0.58209 0.88579 0.0
C1563 C 0.61301 0.62134 0.98072 0.0
C1564 C 0.58952 0.60153 0.94486 0.0
H1565 H 0.5843 0.57549 0.92294 0.0
C1566 C 0.58343 0.60494 0.93245 0.0
C1567 C 0.58975 0.59072 0.94151 0.0
C1568 C 0.59564 0.58628 0.95481 0.0
C1569 C 0.57775 0.59794 0.91656 0.0
C1570 C 0.57805 0.58719 0.91317 0.0
C1571 C 0.58412 0.58376 0.9256 0.0
C1572 C 0.57228 0.57941 0.89667 0.0
C1573 C 0.5717 0.60223 0.90333 0.0
C1574 C 0.55987 0.57352 0.89389 0.0
C1575 C 0.55449 0.56604 0.87839 0.0
C1576 C 0.56144 0.56427 0.86547 0.0
C1577 C 0.57388 0.57018 0.86839 0.0
C1578 C 0.57922 0.57763 0.88387 0.0
H1579 H 0.57456 0.61191 0.90578 0.0
H1580 H 0.5736 0.60094 0.88896 0.0
H1581 H 0.56191 0.59687 0.905 0.0
H1582 H 0.55433 0.57461 0.90381 0.0
H1583 H 0.54489 0.56151 0.87667 0.0
H1584 H 0.9896 0.62641 0.97963 0.0
H1585 H 0.98651 0.61426 0.95172 0.0
H1586 H 0.0185 0.6131 0.96445 0.0
H1587 H 0.0216 0.62508 0.99246 0.0
H1588 H 0.00091 0.61825 0.92153 0.0
H1589 H 0.99311 0.57737 0.95821 0.0
H1590 H 0.99306 0.58998 0.96956 0.0
H1591 H 0.00693 0.5907 0.96457 0.0
C1592 C 0.99601 0.62362 0.97648 0.0
C1593 C 0.00579 0.62664 0.98841 0.0
C1594 C 0.99423 0.61668 0.96052 0.0
C1595 C 0.00215 0.6126 0.95622 0.0
C1596 C 0.01213 0.61593 0.96774 0.0
H1597 H 0.00845 0.58261 0.85231 0.0
H1598 H 0.0115 0.59526 0.87958 0.0
C1599 C 0.01392 0.62284 0.98371 0.0
C1600 C -5e-05 0.60476 0.93977 0.0
H1601 H 0.99521 0.57703 0.92601 0.0
C1602 C 0.99963 0.60923 0.92248 0.0
C1603 C 0.9981 0.59292 0.9411 0.0
C1604 C 0.99769 0.58739 0.95936 0.0
C1605 C 0.99774 0.60225 0.90643 0.0
C1606 C 0.99633 0.59058 0.90773 0.0
C1607 C 0.99642 0.58603 0.92504 0.0
C1608 C 0.99459 0.58285 0.89131 0.0
C1609 C 0.99708 0.60735 0.88826 0.0
C1610 C 0.98424 0.57151 0.88915 0.0
C1611 C 0.98255 0.56417 0.87372 0.0
C1612 C 0.9912 0.56802 0.86017 0.0
C1613 C 0.00165 0.57932 0.86254 0.0
C1614 C 0.00334 0.58664 0.878 0.0
H1615 H 0.99514 0.61484 0.88995 0.0
H1616 H 0.00578 0.61099 0.88152 0.0
H1617 H 0.99012 0.60026 0.87905 0.0
H1618 H 0.97743 0.56836 0.89936 0.0
H1619 H 0.97449 0.55545 0.87247 0.0
H1620 H 0.37864 0.39957 0.95938 0.0
H1621 H 0.3911 0.41534 0.93822 0.0
H1622 H 0.40924 0.39587 0.9245 0.0
H1623 H 0.39657 0.37989 0.94502 0.0
H1624 H 0.41521 0.43041 0.93556 0.0
H1625 H 0.39713 0.39927 0.87492 0.0
H1626 H 0.39056 0.39522 0.89711 0.0
H1627 H 0.40361 0.39425 0.89206 0.0
C1628 C 0.38533 0.39867 0.95193 0.0
C1629 C 0.38655 0.38841 0.95378 0.0
C1630 C 0.39245 0.40771 0.93987 0.0
C1631 C 0.40091 0.40665 0.92952 0.0
C1632 C 0.40255 0.39672 0.93202 0.0
H1633 H 0.44994 0.44931 0.84612 0.0
H1634 H 0.44025 0.43611 0.87173 0.0
C1635 C 0.39535 0.38762 0.9439 0.0
C1636 C 0.40775 0.4157 0.91564 0.0
H1637 H 0.41361 0.41875 0.87004 0.0
C1638 C 0.41484 0.42788 0.92123 0.0
C1639 C 0.40716 0.41238 0.89691 0.0
C1640 C 0.39912 0.39959 0.88983 0.0
C1641 C 0.42153 0.43679 0.90859 0.0
C1642 C 0.42108 0.43339 0.88999 0.0
C1643 C 0.41399 0.42126 0.88439 0.0
C1644 C 0.42768 0.44228 0.8759 0.0
C1645 C 0.42914 0.44974 0.91513 0.0
C1646 C 0.42382 0.45014 0.86992 0.0
C1647 C 0.42919 0.45757 0.85511 0.0
C1648 C 0.43854 0.45725 0.84605 0.0
C1649 C 0.44263 0.44964 0.85257 0.0
C1650 C 0.43719 0.44216 0.86728 0.0
H1651 H 0.42991 0.45063 0.93031 0.0
H1652 H 0.43821 0.45369 0.9095 0.0
H1653 H 0.42513 0.45509 0.91008 0.0
H1654 H 0.41636 0.45021 0.87628 0.0
H1655 H 0.42569 0.46318 0.85031 0.0
H1656 H 0.62366 0.00963 0.98161 0.0
H1657 H 0.61373 0.01052 0.95334 0.0
H1658 H 0.58239 0.97702 0.96623 0.0
H1659 H 0.59208 0.97613 0.99453 0.0
H1660 H 0.60442 0.9946 0.9237 0.0
H1661 H 0.56875 0.99903 0.95724 0.0
H1662 H 0.58185 0.00113 0.96959 0.0
H1663 H 0.56953 0.98616 0.96478 0.0
C1664 C 0.61465 0.00244 0.97842 0.0
C1665 C 0.60864 0.99286 0.99045 0.0
C1666 C 0.609 0.00299 0.96228 0.0
C1667 C 0.59723 0.99399 0.95792 0.0
C1668 C 0.59135 0.98424 0.9696 0.0
H1669 H 0.54656 0.97016 0.86902 0.0
H1670 H 0.55813 0.97358 0.89752 0.0
C1671 C 0.59695 0.98371 0.98573 0.0
C1672 C 0.59111 0.99456 0.94098 0.0
H1673 H 0.56562 0.99347 0.92529 0.0
C1674 C 0.59602 0.99454 0.92402 0.0
C1675 C 0.58019 0.99455 0.94147 0.0
C1676 C 0.57483 0.99535 0.95925 0.0
C1677 C 0.59002 0.99391 0.90751 0.0
C1678 C 0.57888 0.9934 0.90805 0.0
C1679 C 0.57414 0.9938 0.92497 0.0
C1680 C 0.5717 0.99174 0.89119 0.0
C1681 C 0.59538 0.99333 0.88962 0.0
C1682 C 0.57541 0.00093 0.87843 0.0
C1683 C 0.5688 0.99902 0.86215 0.0
C1684 C 0.55842 0.98786 0.85839 0.0
C1685 C 0.55459 0.9788 0.87146 0.0
C1686 C 0.56115 0.98075 0.88775 0.0
H1687 H 0.60318 0.99204 0.89164 0.0
H1688 H 0.58862 0.98582 0.88072 0.0
H1689 H 0.59834 0.00187 0.88231 0.0
H1690 H 0.58348 0.00952 0.88096 0.0
H1691 H 0.572 0.00613 0.85228 0.0
H1692 H 0.62074 0.02726 0.05915 0.0
H1693 H 0.60685 0.02917 0.07945 0.0
H1694 H 0.59403 0.99289 0.09747 0.0
H1695 H 0.60785 0.99088 0.07734 0.0
H1696 H 0.57985 0.01241 0.08278 0.0
H1697 H 0.60784 0.01684 0.14417 0.0
H1698 H 0.6136 0.01969 0.12132 0.0
H1699 H 0.60443 0.00446 0.12852 0.0
C1700 C 0.61488 0.01965 0.0673 0.0
C1701 C 0.61542 0.00894 0.0667 0.0
C1702 C 0.60694 0.02075 0.07883 0.0
C1703 C 0.59952 0.01119 0.08998 0.0
C1704 C 0.59976 0.00037 0.08899 0.0
H1705 H 0.54142 0.99487 0.16022 0.0
H1706 H 0.55388 0.99649 0.1344 0.0
C1707 C 0.60764 0.99924 0.07744 0.0
C1708 C 0.59199 0.01271 0.10348 0.0
H1709 H 0.58893 0.0147 0.14944 0.0
C1710 C 0.58184 0.013 0.09735 0.0
C1711 C 0.59475 0.01362 0.12242 0.0
C1712 C 0.60579 0.01374 0.12959 0.0
C1713 C 0.57411 0.0138 0.10984 0.0
C1714 C 0.57664 0.01425 0.12882 0.0
C1715 C 0.58701 0.01433 0.13486 0.0
C1716 C 0.56846 0.01409 0.14283 0.0
C1717 C 0.56332 0.01415 0.10266 0.0
C1718 C 0.57251 0.02348 0.15605 0.0
C1719 C 0.56546 0.02253 0.17089 0.0
C1720 C 0.55428 0.01213 0.17283 0.0
C1721 C 0.55004 0.00296 0.15915 0.0
C1722 C 0.55709 0.00393 0.14429 0.0
H1723 H 0.56435 0.01699 0.0882 0.0
H1724 H 0.55539 0.00498 0.10326 0.0
H1725 H 0.56164 0.0204 0.11111 0.0
H1726 H 0.58131 0.03135 0.15523 0.0
H1727 H 0.56904 0.02968 0.18131 0.0
H1728 H 0.01224 0.62786 0.0712 0.0
H1729 H 0.01063 0.61169 0.09034 0.0
H1730 H 0.97245 0.59252 0.08199 0.0
H1731 H 0.97403 0.60846 0.06223 0.0
H1732 H 0.99975 0.60507 0.12186 0.0
H1733 H 0.9795 0.56557 0.07381 0.0
H1734 H 0.98583 0.58087 0.06618 0.0
H1735 H 0.97097 0.57309 0.07486 0.0
C1736 C 0.00352 0.6201 0.07309 0.0
C1737 C 0.99327 0.61942 0.06504 0.0
C1738 C 0.00261 0.61087 0.08411 0.0
C1739 C 0.99144 0.60079 0.08739 0.0
C1740 C 0.98119 0.60004 0.07927 0.0
H1741 H 0.97437 0.55737 0.18318 0.0
H1742 H 0.97623 0.57105 0.159 0.0
C1743 C 0.98211 0.60922 0.06809 0.0
C1744 C 0.99045 0.59159 0.10048 0.0
H1745 H 0.97882 0.56128 0.10576 0.0
C1746 C 0.99526 0.59551 0.11826 0.0
C1747 C 0.98474 0.57913 0.09574 0.0
C1748 C 0.98008 0.57442 0.07655 0.0
C1749 C 0.99426 0.5873 0.13157 0.0
C1750 C 0.98798 0.57479 0.12713 0.0
C1751 C 0.98347 0.57087 0.1092 0.0
C1752 C 0.98595 0.56568 0.14102 0.0
C1753 C 6e-05 0.59215 0.1502 0.0
C1754 C 0.99028 0.55768 0.13855 0.0
C1755 C 0.98901 0.54961 0.15223 0.0
C1756 C 0.98335 0.5494 0.16863 0.0
C1757 C 0.97866 0.55716 0.1707 0.0
C1758 C 0.97987 0.56513 0.15699 0.0
H1759 H 0.00735 0.6017 0.14967 0.0
H1760 H 0.99331 0.59181 0.15969 0.0
H1761 H 0.00378 0.58669 0.15593 0.0
H1762 H 0.9949 0.55787 0.12622 0.0
H1763 H 0.99255 0.54363 0.15004 0.0
H1764 H 0.41241 0.37559 0.02085 0.0
H1765 H 0.42358 0.38535 0.04917 0.0
H1766 H 0.39512 0.39106 0.06665 0.0
H1767 H 0.38371 0.38102 0.03852 0.0
H1768 H 0.43186 0.40827 0.06129 0.0
H1769 H 0.40084 0.37651 0.11159 0.0
H1770 H 0.39934 0.37293 0.08737 0.0
H1771 H 0.39406 0.38246 0.0966 0.0
C1772 C 0.40846 0.37882 0.03077 0.0
C1773 C 0.39713 0.37748 0.02742 0.0
C1774 C 0.41487 0.38441 0.04695 0.0
C1775 C 0.41014 0.3888 0.06014 0.0
C1776 C 0.39884 0.38749 0.05687 0.0
H1777 H 0.43903 0.43049 0.16165 0.0
H1778 H 0.42748 0.42082 0.13343 0.0
C1779 C 0.39235 0.38179 0.04073 0.0
C1780 C 0.41728 0.39517 0.07691 0.0
H1781 H 0.41711 0.39485 0.12365 0.0
C1782 C 0.42865 0.4053 0.07492 0.0
C1783 C 0.41308 0.39129 0.09469 0.0
C1784 C 0.40121 0.38014 0.09775 0.0
C1785 C 0.43588 0.4117 0.09021 0.0
C1786 C 0.43165 0.40784 0.10793 0.0
C1787 C 0.42028 0.39778 0.10998 0.0
C1788 C 0.43895 0.41408 0.12457 0.0
C1789 C 0.44794 0.42264 0.08736 0.0
C1790 C 0.44922 0.41347 0.12886 0.0
C1791 C 0.45584 0.41898 0.14497 0.0
C1792 C 0.45231 0.42523 0.157 0.0
C1793 C 0.44208 0.42591 0.15252 0.0
C1794 C 0.43542 0.42033 0.13649 0.0
H1795 H 0.44893 0.42579 0.07307 0.0
H1796 H 0.44942 0.43018 0.09683 0.0
H1797 H 0.45498 0.42035 0.09038 0.0
H1798 H 0.45201 0.40858 0.11988 0.0
H1799 H 0.4637 0.41834 0.14804 0.0
H1800 H 0.67244 0.70807 0.37963 0.0
H1801 H 0.66956 0.71621 0.40844 0.0
H1802 H 0.643 0.72204 0.38188 0.0
H1803 H 0.64562 0.71377 0.35323 0.0
H1804 H 0.67285 0.73885 0.41582 0.0
H1805 H 0.62586 0.70414 0.427 0.0
H1806 H 0.63495 0.702 0.4106 0.0
H1807 H 0.62805 0.71077 0.40492 0.0
C1808 C 0.66592 0.71099 0.37994 0.0
C1809 C 0.65922 0.71019 0.36409 0.0
C1810 C 0.66429 0.71565 0.39642 0.0
C1811 C 0.65591 0.71953 0.39739 0.0
C1812 C 0.64929 0.71881 0.38158 0.0
H1813 H 0.63648 0.7571 0.47695 0.0
H1814 H 0.6388 0.74718 0.44965 0.0
C1815 C 0.65087 0.71414 0.36515 0.0
C1816 C 0.65442 0.72481 0.41467 0.0
H1817 H 0.63371 0.72227 0.44533 0.0
C1818 C 0.66432 0.73516 0.42238 0.0
C1819 C 0.64328 0.71999 0.42319 0.0
C1820 C 0.63246 0.70855 0.41611 0.0
C1821 C 0.66331 0.741 0.4381 0.0
C1822 C 0.65213 0.73629 0.44641 0.0
C1823 C 0.64225 0.72589 0.43884 0.0
C1824 C 0.65053 0.74203 0.46304 0.0
C1825 C 0.67413 0.75234 0.44545 0.0
C1826 C 0.65619 0.74222 0.47964 0.0
C1827 C 0.6548 0.74777 0.49528 0.0
C1828 C 0.64773 0.75327 0.49462 0.0
C1829 C 0.64191 0.75288 0.47799 0.0
C1830 C 0.64327 0.74727 0.46236 0.0
H1831 H 0.68134 0.7562 0.43535 0.0
H1832 H 0.67177 0.75929 0.44933 0.0
H1833 H 0.67765 0.75021 0.45791 0.0
H1834 H 0.66164 0.73801 0.48052 0.0
H1835 H 0.6592 0.74766 0.50794 0.0
H1836 H 0.29166 0.9391 0.39148 0.0
H1837 H 0.27946 0.92194 0.41064 0.0
H1838 H 0.26165 0.94033 0.43137 0.0
H1839 H 0.27374 0.95751 0.41217 0.0
H1840 H 0.27945 0.9234 0.44864 0.0
H1841 H 0.23393 0.90623 0.41916 0.0
H1842 H 0.24721 0.91616 0.40699 0.0
H1843 H 0.24183 0.92216 0.42442 0.0
C1844 C 0.28503 0.93943 0.39992 0.0
C1845 C 0.28366 0.94967 0.4003 0.0
C1846 C 0.27807 0.92961 0.41084 0.0
C1847 C 0.26957 0.92981 0.42224 0.0
C1848 C 0.26799 0.93989 0.42237 0.0
H1849 H 0.2275 0.89006 0.5122 0.0
H1850 H 0.23676 0.90335 0.48659 0.0
C1851 C 0.27495 0.94973 0.41145 0.0
C1852 C 0.26311 0.91995 0.43518 0.0
H1853 H 0.23532 0.89896 0.44848 0.0
C1854 C 0.2698 0.91794 0.44848 0.0
C1855 C 0.25054 0.91291 0.43495 0.0
C1856 C 0.24294 0.91437 0.42051 0.0
C1857 C 0.26425 0.90935 0.462 0.0
C1858 C 0.25167 0.90243 0.46195 0.0
C1859 C 0.24497 0.90428 0.44844 0.0
C1860 C 0.24532 0.8937 0.47643 0.0
C1861 C 0.2719 0.90811 0.47663 0.0
C1862 C 0.24684 0.88369 0.47892 0.0
C1863 C 0.24155 0.87605 0.49357 0.0
C1864 C 0.23456 0.87825 0.50585 0.0
C1865 C 0.23271 0.88804 0.50287 0.0
C1866 C 0.23803 0.89567 0.48829 0.0
H1867 H 0.28114 0.91591 0.47708 0.0
H1868 H 0.26802 0.90731 0.49033 0.0
H1869 H 0.27235 0.89982 0.47374 0.0
H1870 H 0.25225 0.88188 0.46969 0.0
H1871 H 0.24298 0.86849 0.49535 0.0
H1872 H 0.04159 0.32152 0.37494 0.0
H1873 H 0.04966 0.3173 0.40256 0.0
H1874 H 0.0836 0.34934 0.39478 0.0
H1875 H 0.07572 0.35357 0.36713 0.0
H1876 H 0.08538 0.32893 0.40139 0.0
H1877 H 0.05739 0.33482 0.45274 0.0
H1878 H 0.04931 0.32435 0.43416 0.0
H1879 H 0.05868 0.34009 0.42966 0.0
C1880 C 0.05074 0.32773 0.37918 0.0
C1881 C 0.05799 0.3379 0.36879 0.0
C1882 C 0.05532 0.32532 0.395 0.0
C1883 C 0.06719 0.33307 0.40078 0.0
C1884 C 0.07441 0.34325 0.39055 0.0
H1885 H 0.10351 0.34064 0.50364 0.0
H1886 H 0.09387 0.34269 0.47606 0.0
C1887 C 0.06987 0.34566 0.37474 0.0
C1888 C 0.0723 0.33047 0.41719 0.0
H1889 H 0.07031 0.32813 0.46362 0.0
C1890 C 0.08207 0.32871 0.415 0.0
C1891 C 0.06801 0.33029 0.43491 0.0
C1892 C 0.05783 0.33258 0.43813 0.0
C1893 C 0.08774 0.32687 0.4301 0.0
C1894 C 0.08339 0.32659 0.44781 0.0
C1895 C 0.07356 0.32826 0.44999 0.0
C1896 C 0.08928 0.32521 0.46437 0.0
C1897 C 0.09856 0.32562 0.42703 0.0
C1898 C 0.08986 0.31466 0.46697 0.0
C1899 C 0.0955 0.31351 0.48266 0.0
C1900 C 0.10061 0.32287 0.49606 0.0
C1901 C 0.0999 0.33337 0.49343 0.0
C1902 C 0.09428 0.33451 0.47776 0.0
H1903 H 0.10232 0.32874 0.41332 0.0
H1904 H 0.10561 0.33085 0.43763 0.0
H1905 H 0.09601 0.31598 0.42798 0.0
H1906 H 0.0859 0.3073 0.45691 0.0
H1907 H 0.09592 0.30533 0.48425 0.0
H1908 H 0.06297 0.34786 0.2838 0.0
H1909 H 0.07729 0.34695 0.26352 0.0
H1910 H 0.06191 0.30893 0.27313 0.0
H1911 H 0.0475 0.30973 0.29363 0.0
H1912 H 0.08903 0.32447 0.2734 0.0
H1913 H 0.06512 0.3282 0.21221 0.0
H1914 H 0.06845 0.33916 0.2304 0.0
H1915 H 0.05818 0.32348 0.23409 0.0
C1916 C 0.06271 0.33933 0.28184 0.0
C1917 C 0.05407 0.32885 0.29028 0.0
C1918 C 0.07088 0.33883 0.2702 0.0
C1919 C 0.07056 0.32786 0.26678 0.0
C1920 C 0.06226 0.31747 0.27565 0.0
H1921 H 0.10288 0.31519 0.17251 0.0
H1922 H 0.08976 0.31244 0.1978 0.0
C1923 C 0.05403 0.31794 0.28728 0.0
C1924 C 0.07846 0.32719 0.25308 0.0
H1925 H 0.08382 0.32973 0.2074 0.0
C1926 C 0.08788 0.32553 0.25895 0.0
C1927 C 0.07681 0.32845 0.23427 0.0
C1928 C 0.06655 0.32983 0.22726 0.0
C1929 C 0.09595 0.32544 0.24641 0.0
C1930 C 0.09453 0.32714 0.22766 0.0
C1931 C 0.0849 0.32847 0.2218 0.0
C1932 C 0.10302 0.32786 0.21377 0.0
C1933 C 0.10587 0.32349 0.25328 0.0
C1934 C 0.11488 0.33735 0.21451 0.0
C1935 C 0.12244 0.33891 0.2001 0.0
C1936 C 0.11824 0.33104 0.18467 0.0
C1937 C 0.10646 0.32131 0.18429 0.0
C1938 C 0.09892 0.31976 0.19868 0.0
H1939 H 0.10392 0.31923 0.26687 0.0
H1940 H 0.10742 0.31772 0.24348 0.0
H1941 H 0.11422 0.33234 0.25471 0.0
H1942 H 0.11815 0.34383 0.22589 0.0
H1943 H 0.13149 0.34644 0.20085 0.0
H1944 H 0.66587 0.71316 0.27573 0.0
H1945 H 0.6693 0.72959 0.25561 0.0
H1946 H 0.70139 0.75373 0.28663 0.0
H1947 H 0.6982 0.7372 0.30653 0.0
H1948 H 0.67146 0.75159 0.26077 0.0
H1949 H 0.71383 0.75652 0.23562 0.0
H1950 H 0.70386 0.7441 0.24941 0.0
H1951 H 0.71373 0.75865 0.25993 0.0
C1952 C 0.67361 0.72199 0.27838 0.0
C1953 C 0.68183 0.72386 0.29261 0.0
C1954 C 0.67556 0.73138 0.26686 0.0
C1955 C 0.68573 0.74283 0.26938 0.0
C1956 C 0.69365 0.74488 0.28414 0.0
H1957 H 0.69445 0.80404 0.20423 0.0
H1958 H 0.69187 0.79098 0.23004 0.0
C1959 C 0.69177 0.73545 0.29556 0.0
C1960 C 0.68819 0.7524 0.25608 0.0
H1961 H 0.70814 0.77012 0.22446 0.0
C1962 C 0.6795 0.7557 0.25287 0.0
C1963 C 0.69863 0.75763 0.24564 0.0
C1964 C 0.70801 0.75399 0.24766 0.0
C1965 C 0.68087 0.76394 0.23932 0.0
C1966 C 0.69136 0.76924 0.22902 0.0
C1967 C 0.70014 0.76611 0.23246 0.0
C1968 C 0.69308 0.77739 0.21368 0.0
C1969 C 0.67086 0.76648 0.23568 0.0
C1970 C 0.69496 0.77427 0.19604 0.0
C1971 C 0.69659 0.78177 0.18141 0.0
C1972 C 0.69636 0.79256 0.18408 0.0
C1973 C 0.69454 0.79572 0.20176 0.0
C1974 C 0.69302 0.78825 0.21648 0.0
H1975 H 0.66236 0.75952 0.24153 0.0
H1976 H 0.67319 0.77534 0.24209 0.0
H1977 H 0.66939 0.76689 0.22075 0.0
H1978 H 0.69502 0.76593 0.19355 0.0
H1979 H 0.69781 0.77901 0.1679 0.0
H1980 H 0.25605 0.95301 0.33317 0.0
H1981 H 0.24707 0.94131 0.30483 0.0
H1982 H 0.28187 0.95046 0.28601 0.0
H1983 H 0.29097 0.96206 0.31441 0.0
H1984 H 0.25055 0.9479 0.26808 0.0
H1985 H 0.26347 0.91348 0.28282 0.0
H1986 H 0.26425 0.92415 0.30001 0.0
H1987 H 0.27569 0.92874 0.28337 0.0
C1988 C 0.26183 0.9526 0.323 0.0
C1989 C 0.27425 0.9584 0.32618 0.0
C1990 C 0.25667 0.9459 0.30679 0.0
C1991 C 0.26378 0.94484 0.29349 0.0
C1992 C 0.2762 0.95096 0.29629 0.0
H1993 H 0.24993 0.90643 0.18948 0.0
H1994 H 0.25868 0.91931 0.21689 0.0
C1995 C 0.28139 0.95764 0.31251 0.0
C1996 C 0.25818 0.93718 0.2768 0.0
H1997 H 0.25483 0.91227 0.2535 0.0
C1998 C 0.25144 0.94009 0.2649 0.0
C1999 C 0.25933 0.92696 0.27276 0.0
C2000 C 0.26598 0.92305 0.28548 0.0
C2001 C 0.24602 0.93319 0.24882 0.0
C2002 C 0.24724 0.92302 0.24473 0.0
C2003 C 0.25394 0.92009 0.25667 0.0
C2004 C 0.24179 0.91537 0.228 0.0
C2005 C 0.23926 0.93699 0.23614 0.0
C2006 C 0.22937 0.90881 0.22525 0.0
C2007 C 0.22431 0.90136 0.20962 0.0
C2008 C 0.23161 0.90028 0.19655 0.0
C2009 C 0.24405 0.90689 0.19941 0.0
C2010 C 0.24908 0.91432 0.215 0.0
H2011 H 0.24152 0.94647 0.23898 0.0
H2012 H 0.24116 0.93608 0.22162 0.0
H2013 H 0.22956 0.93106 0.23803 0.0
H2014 H 0.22357 0.9093 0.23531 0.0
H2015 H 0.2147 0.89627 0.20794 0.0
H2016 H 0.69948 0.9647 0.32629 0.0
H2017 H 0.70054 0.95488 0.29811 0.0
H2018 H 0.66491 0.94639 0.28253 0.0
H2019 H 0.66382 0.95645 0.31063 0.0
H2020 H 0.68649 0.93126 0.2875 0.0
H2021 H 0.68293 0.96097 0.23619 0.0
H2022 H 0.68594 0.96516 0.2602 0.0
H2023 H 0.67102 0.95471 0.25208 0.0
C2024 C 0.69188 0.96085 0.31684 0.0
C2025 C 0.68156 0.96139 0.32075 0.0
C2026 C 0.69251 0.95522 0.30072 0.0
C2027 C 0.68286 0.95001 0.28812 0.0
C2028 C 0.67256 0.95057 0.29188 0.0
H2029 H 0.6724 0.90848 0.18666 0.0
H2030 H 0.66944 0.9178 0.21414 0.0
C2031 C 0.67193 0.95628 0.30799 0.0
C2032 C 0.68351 0.94356 0.2715 0.0
H2033 H 0.68274 0.94344 0.22473 0.0
C2034 C 0.68568 0.93394 0.27378 0.0
C2035 C 0.68241 0.94704 0.25361 0.0
C2036 C 0.68055 0.9576 0.25029 0.0
C2037 C 0.68681 0.92772 0.25866 0.0
C2038 C 0.68585 0.93129 0.24081 0.0
C2039 C 0.68347 0.94075 0.23848 0.0
C2040 C 0.6876 0.92548 0.22439 0.0
C2041 C 0.68895 0.91733 0.26188 0.0
C2042 C 0.69881 0.92679 0.22106 0.0
C2043 C 0.70053 0.92149 0.2054 0.0
C2044 C 0.69106 0.91476 0.19282 0.0
C2045 C 0.67983 0.91346 0.19623 0.0
C2046 C 0.67814 0.91884 0.21184 0.0
H2047 H 0.68676 0.91398 0.27603 0.0
H2048 H 0.68357 0.90973 0.25203 0.0
H2049 H 0.69849 0.92037 0.2598 0.0
H2050 H 0.70626 0.93201 0.2305 0.0
H2051 H 0.70926 0.9226 0.20319 0.0
H2052 H 0.04978 0.73824 0.29817 0.0
H2053 H 0.06243 0.75412 0.27716 0.0
H2054 H 0.07433 0.73089 0.25407 0.0
H2055 H 0.06178 0.715 0.27495 0.0
H2056 H 0.08999 0.76417 0.26926 0.0
H2057 H 0.05673 0.74098 0.21215 0.0
H2058 H 0.05266 0.7388 0.2359 0.0
H2059 H 0.0605 0.73189 0.22625 0.0
C2060 C 0.0552 0.73657 0.28878 0.0
C2061 C 0.05476 0.72536 0.28817 0.0
C2062 C 0.06243 0.74565 0.27685 0.0
C2063 C 0.06923 0.7436 0.2641 0.0
C2064 C 0.06912 0.73259 0.26385 0.0
H2065 H 0.12098 0.7868 0.18471 0.0
H2066 H 0.1106 0.77442 0.21081 0.0
C2067 C 0.06195 0.72354 0.27581 0.0
C2068 C 0.07585 0.75262 0.25019 0.0
H2069 H 0.07491 0.75814 0.20487 0.0
C2070 C 0.08672 0.76292 0.25519 0.0
C2071 C 0.07143 0.75094 0.23195 0.0
C2072 C 0.05966 0.7401 0.22613 0.0
C2073 C 0.09345 0.77152 0.24218 0.0
C2074 C 0.08916 0.76968 0.22382 0.0
C2075 C 0.07817 0.75949 0.21897 0.0
C2076 C 0.09601 0.77805 0.20923 0.0
C2077 C 0.10503 0.78253 0.24815 0.0
C2078 C 0.0912 0.78413 0.19971 0.0
C2079 C 0.09707 0.79115 0.18477 0.0
C2080 C 0.10779 0.79209 0.17898 0.0
C2081 C 0.11269 0.78617 0.18879 0.0
C2082 C 0.10684 0.7792 0.2038 0.0
H2083 H 0.10571 0.78401 0.26325 0.0
H2084 H 0.11256 0.78132 0.24393 0.0
H2085 H 0.10601 0.79073 0.24154 0.0
H2086 H 0.08278 0.78325 0.20362 0.0
H2087 H 0.09298 0.79546 0.17734 0.0
H2088 H 0.25964 0.31113 0.3334 0.0
H2089 H 0.24809 0.30697 0.30484 0.0
H2090 H 0.27731 0.33815 0.28105 0.0
H2091 H 0.28906 0.34231 0.3095 0.0
H2092 H 0.241 0.32143 0.2884 0.0
H2093 H 0.26883 0.31201 0.2417 0.0
H2094 H 0.27058 0.31241 0.26631 0.0
H2095 H 0.27702 0.32623 0.25395 0.0
C2096 C 0.26368 0.31707 0.32207 0.0
C2097 C 0.2753 0.32706 0.32377 0.0
C2098 C 0.25705 0.31466 0.30575 0.0
C2099 C 0.26188 0.32216 0.29076 0.0
C2100 C 0.27349 0.3321 0.29233 0.0
H2101 H 0.22562 0.33307 0.20009 0.0
H2102 H 0.23564 0.33373 0.22903 0.0
C2103 C 0.28017 0.3345 0.30864 0.0
C2104 C 0.25454 0.31992 0.27385 0.0
H2105 H 0.25386 0.31513 0.22766 0.0
C2106 C 0.24376 0.31996 0.27513 0.0
C2107 C 0.25807 0.31782 0.25661 0.0
C2108 C 0.2692 0.31698 0.25453 0.0
C2109 C 0.2366 0.31831 0.25955 0.0
C2110 C 0.24042 0.3168 0.2422 0.0
C2111 C 0.251 0.31639 0.24097 0.0
C2112 C 0.2338 0.31607 0.22507 0.0
C2113 C 0.22497 0.31815 0.26183 0.0
C2114 C 0.22957 0.30597 0.21314 0.0
C2115 C 0.22394 0.30562 0.19647 0.0
C2116 C 0.22255 0.31541 0.19139 0.0
C2117 C 0.22664 0.32542 0.20353 0.0
C2118 C 0.23226 0.32576 0.22017 0.0
H2119 H 0.22169 0.31581 0.27598 0.0
H2120 H 0.22634 0.32727 0.25915 0.0
H2121 H 0.218 0.3116 0.25206 0.0
H2122 H 0.23074 0.29843 0.21664 0.0
H2123 H 0.22102 0.29785 0.18731 0.0
H2124 H 0.29017 0.37116 0.38267 0.0
H2125 H 0.2771 0.3748 0.40239 0.0
H2126 H 0.26529 0.34051 0.42755 0.0
H2127 H 0.27825 0.33678 0.40801 0.0
H2128 H 0.24669 0.34613 0.41897 0.0
H2129 H 0.28561 0.38286 0.45802 0.0
H2130 H 0.28519 0.38407 0.43355 0.0
H2131 H 0.28699 0.37225 0.44317 0.0
C2132 C 0.28469 0.36433 0.39227 0.0
C2133 C 0.28528 0.35369 0.39383 0.0
C2134 C 0.27726 0.36645 0.40353 0.0
C2135 C 0.27034 0.35797 0.4165 0.0
C2136 C 0.27057 0.34715 0.41757 0.0
H2137 H 0.24231 0.35323 0.51926 0.0
H2138 H 0.2531 0.35512 0.49132 0.0
C2139 C 0.27799 0.34504 0.40639 0.0
C2140 C 0.2634 0.36053 0.42986 0.0
H2141 H 0.26664 0.3767 0.46925 0.0
C2142 C 0.25098 0.35297 0.42977 0.0
C2143 C 0.26911 0.36943 0.44395 0.0
C2144 C 0.28246 0.37761 0.44487 0.0
C2145 C 0.24416 0.35371 0.44391 0.0
C2146 C 0.24994 0.36228 0.45838 0.0
C2147 C 0.26227 0.37022 0.45802 0.0
C2148 C 0.24367 0.36191 0.47527 0.0
C2149 C 0.23095 0.34487 0.44392 0.0
C2150 C 0.23491 0.36529 0.47551 0.0
C2151 C 0.22869 0.36422 0.49152 0.0
C2152 C 0.23112 0.35965 0.50739 0.0
C2153 C 0.24011 0.35658 0.50714 0.0
C2154 C 0.24634 0.35773 0.49125 0.0
H2155 H 0.22801 0.33811 0.43244 0.0
H2156 H 0.22851 0.34003 0.45703 0.0
H2157 H 0.226 0.34985 0.44272 0.0
H2158 H 0.23281 0.36863 0.46329 0.0
H2159 H 0.22179 0.36664 0.49137 0.0
H2160 H 0.68359 0.96266 0.40707 0.0
H2161 H 0.68403 0.94784 0.42722 0.0
H2162 H 0.64839 0.92145 0.40892 0.0
H2163 H 0.64793 0.93618 0.38844 0.0
H2164 H 0.6684 0.93697 0.45553 0.0
H2165 H 0.66642 0.90262 0.40595 0.0
H2166 H 0.67043 0.91773 0.39945 0.0
H2167 H 0.65508 0.9066 0.40247 0.0
C2168 C 0.67592 0.95365 0.40705 0.0
C2169 C 0.66574 0.95059 0.39608 0.0
C2170 C 0.67618 0.9452 0.41863 0.0
C2171 C 0.6663 0.93351 0.41941 0.0
C2172 C 0.65619 0.93035 0.40826 0.0
H2173 H 0.64948 0.88525 0.50994 0.0
H2174 H 0.64912 0.89773 0.48525 0.0
C2175 C 0.65592 0.9388 0.39666 0.0
C2176 C 0.66627 0.925 0.43292 0.0
H2177 H 0.66398 0.89737 0.43732 0.0
C2178 C 0.66747 0.92833 0.45155 0.0
C2179 C 0.66515 0.91378 0.42765 0.0
C2180 C 0.6643 0.90997 0.40779 0.0
C2181 C 0.66743 0.92068 0.4651 0.0
C2182 C 0.66598 0.90932 0.45988 0.0
C2183 C 0.66497 0.90604 0.44124 0.0
C2184 C 0.66564 0.90084 0.4737 0.0
C2185 C 0.66908 0.92487 0.48491 0.0
C2186 C 0.67486 0.89814 0.47496 0.0
C2187 C 0.67506 0.89093 0.48899 0.0
C2188 C 0.66599 0.88624 0.5019 0.0
C2189 C 0.65654 0.88862 0.50013 0.0
C2190 C 0.65637 0.89584 0.48614 0.0
H2191 H 0.67276 0.93478 0.48631 0.0
H2192 H 0.66032 0.92032 0.49158 0.0
H2193 H 0.67512 0.92249 0.49235 0.0
H2194 H 0.68206 0.90188 0.4654 0.0
H2195 H 0.68237 0.88913 0.48985 0.0
H2196 H 0.08142 0.71819 0.35442 0.0
H2197 H 0.09158 0.72724 0.38362 0.0
H2198 H 0.05882 0.72251 0.4053 0.0
H2199 H 0.04852 0.71352 0.37594 0.0
H2200 H 0.07877 0.74555 0.41297 0.0
H2201 H 0.08802 0.709 0.43086 0.0
H2202 H 0.09304 0.71501 0.40864 0.0
H2203 H 0.07737 0.70717 0.41309 0.0
C2204 C 0.07631 0.71901 0.36537 0.0
C2205 C 0.0641 0.71504 0.36282 0.0
C2206 C 0.08215 0.72416 0.3821 0.0
C2207 C 0.07591 0.72537 0.39669 0.0
C2208 C 0.06377 0.72158 0.3942 0.0
H2209 H 0.10308 0.74135 0.50904 0.0
H2210 H 0.09115 0.73248 0.48095 0.0
C2211 C 0.0579 0.71642 0.37743 0.0
C2212 C 0.08215 0.73072 0.41447 0.0
H2213 H 0.09821 0.72721 0.44881 0.0
C2214 C 0.08296 0.74151 0.4209 0.0
C2215 C 0.08748 0.72535 0.42486 0.0
C2216 C 0.08636 0.71343 0.41913 0.0
C2217 C 0.08924 0.74725 0.43726 0.0
C2218 C 0.09498 0.74213 0.44725 0.0
C2219 C 0.09391 0.73119 0.44102 0.0
C2220 C 0.10203 0.74785 0.46435 0.0
C2221 C 0.08954 0.75865 0.4438 0.0
C2222 C 0.11216 0.75943 0.46433 0.0
C2223 C 0.11903 0.76453 0.4804 0.0
C2224 C 0.11596 0.75806 0.4967 0.0
C2225 C 0.10579 0.74649 0.49665 0.0
C2226 C 0.09892 0.74143 0.48064 0.0
H2227 H 0.08219 0.75955 0.43745 0.0
H2228 H 0.08889 0.75887 0.45892 0.0
H2229 H 0.0981 0.76658 0.43997 0.0
H2230 H 0.11488 0.76443 0.45182 0.0
H2231 H 0.12689 0.7734 0.47997 0.0
H2232 H 0.33846 0.04209 0.71335 0.0
H2233 H 0.33578 0.04934 0.74316 0.0
H2234 H 0.3095 0.05652 0.71888 0.0
H2235 H 0.31193 0.04916 0.68927 0.0
H2236 H 0.33918 0.07187 0.75303 0.0
H2237 H 0.29217 0.03669 0.76264 0.0
H2238 H 0.30133 0.03516 0.74566 0.0
H2239 H 0.29439 0.04406 0.74118 0.0
C2240 C 0.33206 0.04515 0.71437 0.0
C2241 C 0.32536 0.04495 0.69889 0.0
C2242 C 0.33054 0.04929 0.73142 0.0
C2243 C 0.32227 0.05324 0.7333 0.0
C2244 C 0.31571 0.05321 0.71785 0.0
H2245 H 0.30234 0.08864 0.81514 0.0
H2246 H 0.30486 0.07911 0.78755 0.0
C2247 C 0.31718 0.04906 0.70087 0.0
C2248 C 0.32075 0.05785 0.75122 0.0
H2249 H 0.29984 0.05431 0.78217 0.0
C2250 C 0.33061 0.06795 0.75953 0.0
C2251 C 0.30956 0.05272 0.75966 0.0
C2252 C 0.29879 0.04149 0.75193 0.0
C2253 C 0.32949 0.07331 0.77573 0.0
C2254 C 0.31824 0.06834 0.7839 0.0
C2255 C 0.30843 0.05813 0.77578 0.0
C2256 C 0.31646 0.07374 0.80077 0.0
C2257 C 0.34025 0.08445 0.7837 0.0
C2258 C 0.32196 0.07364 0.81738 0.0
C2259 C 0.32046 0.07897 0.83319 0.0
C2260 C 0.31342 0.08451 0.83269 0.0
C2261 C 0.30773 0.08436 0.81606 0.0
C2262 C 0.3092 0.07899 0.80026 0.0
H2263 H 0.3476 0.08853 0.77384 0.0
H2264 H 0.33787 0.09134 0.78793 0.0
H2265 H 0.3436 0.082 0.79604 0.0
H2266 H 0.32741 0.06942 0.81811 0.0
H2267 H 0.32478 0.07869 0.84583 0.0
H2268 H 0.96136 0.27211 0.73183 0.0
H2269 H 0.94872 0.25579 0.75211 0.0
H2270 H 0.92822 0.27314 0.76328 0.0
H2271 H 0.94088 0.28959 0.74328 0.0
H2272 H 0.94547 0.26069 0.79131 0.0
H2273 H 0.90332 0.23632 0.74969 0.0
H2274 H 0.91765 0.24554 0.73956 0.0
H2275 H 0.91045 0.25254 0.75107 0.0
C2276 C 0.95408 0.27241 0.73844 0.0
C2277 C 0.9521 0.28215 0.73588 0.0
C2278 C 0.94688 0.26307 0.74999 0.0
C2279 C 0.9375 0.26323 0.75898 0.0
C2280 C 0.93533 0.27279 0.75621 0.0
H2281 H 0.88645 0.2211 0.8396 0.0
H2282 H 0.89755 0.23435 0.81481 0.0
C2283 C 0.94259 0.28219 0.74479 0.0
C2284 C 0.93052 0.2539 0.77234 0.0
H2285 H 0.90276 0.23039 0.78037 0.0
C2286 C 0.93616 0.25398 0.78891 0.0
C2287 C 0.91838 0.24529 0.76913 0.0
C2288 C 0.91205 0.24479 0.75136 0.0
C2289 C 0.92987 0.24585 0.80265 0.0
C2290 C 0.91769 0.23716 0.79945 0.0
C2291 C 0.91209 0.23701 0.78275 0.0
C2292 C 0.91053 0.22846 0.81357 0.0
C2293 C 0.93622 0.24696 0.8207 0.0
C2294 C 0.91395 0.2205 0.82076 0.0
C2295 C 0.90776 0.21308 0.83518 0.0
C2296 C 0.89791 0.21333 0.84251 0.0
C2297 C 0.89415 0.22087 0.8346 0.0
C2298 C 0.90042 0.22837 0.8203 0.0
H2299 H 0.94434 0.25598 0.82266 0.0
H2300 H 0.93029 0.24545 0.83236 0.0
H2301 H 0.93902 0.24007 0.82101 0.0
H2302 H 0.92156 0.22021 0.81547 0.0
H2303 H 0.91097 0.20745 0.84097 0.0
H2304 H 0.71321 0.65874 0.71032 0.0
H2305 H 0.72283 0.65992 0.74007 0.0
H2306 H 0.7531 0.69389 0.72584 0.0
H2307 H 0.74367 0.69283 0.69618 0.0
H2308 H 0.74721 0.66289 0.74534 0.0
H2309 H 0.74207 0.69972 0.77716 0.0
H2310 H 0.73276 0.69041 0.75813 0.0
H2311 H 0.74769 0.70231 0.75434 0.0
C2312 C 0.72188 0.6665 0.71356 0.0
C2313 C 0.72766 0.6757 0.70085 0.0
C2314 C 0.72736 0.66713 0.73053 0.0
C2315 C 0.73861 0.67703 0.73513 0.0
C2316 C 0.74436 0.68624 0.72257 0.0
H2317 H 0.78933 0.70326 0.82534 0.0
H2318 H 0.77804 0.69985 0.79658 0.0
C2319 C 0.73895 0.68558 0.7056 0.0
C2320 C 0.74457 0.6777 0.75286 0.0
H2321 H 0.75492 0.6944 0.79264 0.0
C2322 C 0.74882 0.66969 0.75581 0.0
C2323 C 0.74667 0.68662 0.76635 0.0
C2324 C 0.742 0.69522 0.76399 0.0
C2325 C 0.75549 0.67063 0.77171 0.0
C2326 C 0.75772 0.67967 0.78514 0.0
C2327 C 0.75325 0.68751 0.7823 0.0
C2328 C 0.76488 0.68136 0.80211 0.0
C2329 C 0.76046 0.66226 0.77366 0.0
C2330 C 0.76125 0.67208 0.81472 0.0
C2331 C 0.76773 0.67399 0.83113 0.0
C2332 C 0.77785 0.68527 0.8353 0.0
C2333 C 0.78152 0.69451 0.82256 0.0
C2334 C 0.77509 0.69256 0.80612 0.0
H2335 H 0.76067 0.65813 0.76028 0.0
H2336 H 0.76963 0.6671 0.77977 0.0
H2337 H 0.75474 0.65484 0.78283 0.0
H2338 H 0.75324 0.66346 0.81211 0.0
H2339 H 0.76459 0.66677 0.84082 0.0
H2340 H 0.73013 0.67362 0.61625 0.0
H2341 H 0.74281 0.6701 0.59575 0.0
H2342 H 0.72531 0.63269 0.61054 0.0
H2343 H 0.71271 0.63619 0.6315 0.0
H2344 H 0.75055 0.64362 0.60699 0.0
H2345 H 0.72857 0.65131 0.54706 0.0
H2346 H 0.73469 0.66352 0.56373 0.0
H2347 H 0.72258 0.64901 0.56971 0.0
C2348 C 0.72909 0.66469 0.61541 0.0
C2349 C 0.72035 0.65516 0.62541 0.0
C2350 C 0.7363 0.66268 0.6036 0.0
C2351 C 0.73482 0.65109 0.6014 0.0
C2352 C 0.72652 0.64169 0.61201 0.0
H2353 H 0.76434 0.62178 0.52256 0.0
H2354 H 0.75414 0.62418 0.54891 0.0
C2355 C 0.71933 0.6437 0.62393 0.0
C2356 C 0.74145 0.64869 0.58725 0.0
H2357 H 0.74573 0.64981 0.54124 0.0
C2358 C 0.74947 0.64489 0.5926 0.0
C2359 C 0.73989 0.65025 0.56849 0.0
C2360 C 0.73089 0.65363 0.56184 0.0
C2361 C 0.75632 0.64302 0.57963 0.0
C2362 C 0.75498 0.64491 0.56096 0.0
C2363 C 0.74678 0.64847 0.55562 0.0
C2364 C 0.76212 0.64353 0.54659 0.0
C2365 C 0.76515 0.63934 0.58597 0.0
C2366 C 0.76996 0.65361 0.53667 0.0
C2367 C 0.77569 0.65226 0.5216 0.0
C2368 C 0.77365 0.64078 0.5161 0.0
C2369 C 0.76604 0.63072 0.52641 0.0
C2370 C 0.7603 0.63209 0.54155 0.0
H2371 H 0.76658 0.64028 0.60107 0.0
H2372 H 0.76177 0.62976 0.58188 0.0
H2373 H 0.77384 0.64489 0.57938 0.0
H2374 H 0.77137 0.66249 0.54028 0.0
H2375 H 0.78133 0.66016 0.5138 0.0
H2376 H 0.36556 0.07108 0.63552 0.0
H2377 H 0.36883 0.08796 0.61639 0.0
H2378 H 0.33259 0.06752 0.59557 0.0
H2379 H 0.32924 0.05061 0.61451 0.0
H2380 H 0.36598 0.08605 0.57734 0.0
H2381 H 0.3369 0.10109 0.60937 0.0
H2382 H 0.34198 0.09213 0.62123 0.0
H2383 H 0.32984 0.0851 0.60475 0.0
C2384 C 0.35823 0.07024 0.62707 0.0
C2385 C 0.34712 0.05951 0.6266 0.0
C2386 C 0.36012 0.07989 0.61616 0.0
C2387 C 0.35091 0.07904 0.60477 0.0
C2388 C 0.33974 0.06845 0.60455 0.0
H2389 H 0.33996 0.11615 0.5172 0.0
H2390 H 0.33868 0.10351 0.54276 0.0
C2391 C 0.33786 0.05877 0.61537 0.0
C2392 C 0.3532 0.08877 0.59195 0.0
H2393 H 0.34388 0.1084 0.57966 0.0
C2394 C 0.36128 0.09107 0.57795 0.0
C2395 C 0.347 0.09523 0.5928 0.0
C2396 C 0.33851 0.09337 0.60793 0.0
C2397 C 0.36298 0.09932 0.56427 0.0
C2398 C 0.35661 0.10564 0.56491 0.0
C2399 C 0.34875 0.10355 0.57921 0.0
C2400 C 0.35744 0.11388 0.55024 0.0
C2401 C 0.37114 0.10076 0.54882 0.0
C2402 C 0.36837 0.12407 0.54621 0.0
C2403 C 0.36914 0.13129 0.53154 0.0
C2404 C 0.35895 0.12855 0.52082 0.0
C2405 C 0.34794 0.11858 0.52532 0.0
C2406 C 0.3472 0.11133 0.53988 0.0
H2407 H 0.37306 0.09321 0.54804 0.0
H2408 H 0.3672 0.1012 0.53546 0.0
H2409 H 0.37973 0.10928 0.55105 0.0
H2410 H 0.37633 0.12636 0.5543 0.0
H2411 H 0.37771 0.13901 0.52854 0.0
H2412 H 0.92533 0.28746 0.66455 0.0
H2413 H 0.91562 0.27553 0.63671 0.0
H2414 H 0.94779 0.27532 0.62333 0.0
H2415 H 0.95771 0.28751 0.65103 0.0
H2416 H 0.93739 0.27953 0.5935 0.0
H2417 H 0.90381 0.23969 0.63025 0.0
H2418 H 0.90383 0.25335 0.6363 0.0
H2419 H 0.9167 0.25201 0.64171 0.0
C2420 C 0.93038 0.28491 0.6557 0.0
C2421 C 0.94229 0.28837 0.66013 0.0
C2422 C 0.92477 0.27802 0.63983 0.0
C2423 C 0.93089 0.27431 0.62818 0.0
C2424 C 0.94288 0.27802 0.63224 0.0
H2425 H 0.89836 0.21691 0.54529 0.0
H2426 H 0.90846 0.22959 0.57242 0.0
C2427 C 0.94853 0.28499 0.64807 0.0
C2428 C 0.92477 0.26655 0.61176 0.0
H2429 H 0.90081 0.23951 0.59804 0.0
C2430 C 0.92941 0.27076 0.59447 0.0
C2431 C 0.91447 0.25503 0.6131 0.0
C2432 C 0.90946 0.24968 0.63134 0.0
C2433 C 0.92392 0.26384 0.57845 0.0
C2434 C 0.91335 0.25253 0.57974 0.0
C2435 C 0.90883 0.24825 0.59705 0.0
C2436 C 0.90703 0.24485 0.56334 0.0
C2437 C 0.92963 0.26862 0.56033 0.0
C2438 C 0.90265 0.24912 0.54939 0.0
C2439 C 0.89699 0.24194 0.53375 0.0
C2440 C 0.89549 0.23029 0.53184 0.0
C2441 C 0.89956 0.22591 0.54614 0.0
C2442 C 0.90526 0.23312 0.56172 0.0
H2443 H 0.93919 0.2756 0.56215 0.0
H2444 H 0.92892 0.26123 0.55125 0.0
H2445 H 0.92501 0.27284 0.55338 0.0
H2446 H 0.90367 0.25804 0.55055 0.0
H2447 H 0.89406 0.24564 0.52296 0.0
H2448 H 0.33304 0.29625 0.64156 0.0
H2449 H 0.33415 0.2869 0.6127 0.0
H2450 H 0.36298 0.28314 0.63547 0.0
H2451 H 0.36212 0.29265 0.66409 0.0
H2452 H 0.36761 0.2922 0.60133 0.0
H2453 H 0.32268 0.25131 0.60233 0.0
H2454 H 0.32269 0.26534 0.60397 0.0
H2455 H 0.32941 0.26124 0.6221 0.0
C2456 C 0.33961 0.29343 0.64044 0.0
C2457 C 0.34747 0.2952 0.6552 0.0
C2458 C 0.34017 0.288 0.62397 0.0
C2459 C 0.34853 0.28415 0.62203 0.0
C2460 C 0.35644 0.28601 0.63667 0.0
H2461 H 0.3519 0.23578 0.54101 0.0
H2462 H 0.34913 0.24522 0.56853 0.0
C2463 C 0.35592 0.29146 0.65305 0.0
C2464 C 0.34933 0.27844 0.60468 0.0
H2465 H 0.33385 0.25399 0.57569 0.0
C2466 C 0.36022 0.28386 0.5957 0.0
C2467 C 0.33972 0.26746 0.59751 0.0
C2468 C 0.32799 0.26091 0.60703 0.0
C2469 C 0.36179 0.27862 0.57976 0.0
C2470 C 0.35212 0.26779 0.57234 0.0
C2471 C 0.34122 0.26234 0.58132 0.0
C2472 C 0.35324 0.26189 0.55546 0.0
C2473 C 0.37391 0.28457 0.5713 0.0
C2474 C 0.35622 0.26802 0.53891 0.0
C2475 C 0.35785 0.26268 0.52324 0.0
C2476 C 0.35641 0.25104 0.52375 0.0
C2477 C 0.35305 0.24475 0.54019 0.0
C2478 C 0.35148 0.25013 0.55591 0.0
H2479 H 0.38103 0.29081 0.58119 0.0
H2480 H 0.37615 0.27773 0.56624 0.0
H2481 H 0.3739 0.28993 0.55951 0.0
H2482 H 0.35732 0.27697 0.53813 0.0
H2483 H 0.36019 0.26765 0.51068 0.0
H2484 H 0.72761 0.04351 0.60744 0.0
H2485 H 0.74079 0.05937 0.587 0.0
H2486 H 0.72652 0.08169 0.6052 0.0
H2487 H 0.71338 0.06594 0.62585 0.0
H2488 H 0.73248 0.06805 0.55867 0.0
H2489 H 0.76284 0.10508 0.60715 0.0
H2490 H 0.75403 0.08958 0.61393 0.0
H2491 H 0.74725 0.09878 0.61141 0.0
C2492 C 0.72742 0.05188 0.60736 0.0
C2493 C 0.71946 0.05348 0.61828 0.0
C2494 C 0.73494 0.06092 0.59565 0.0
C2495 C 0.73471 0.07174 0.59475 0.0
C2496 C 0.72699 0.07349 0.60594 0.0
H2497 H 0.75691 0.12507 0.51113 0.0
H2498 H 0.74734 0.11181 0.5368 0.0
C2499 C 0.71944 0.06444 0.61764 0.0
C2500 C 0.74179 0.08073 0.58097 0.0
H2501 H 0.76349 0.1101 0.57572 0.0
C2502 C 0.73932 0.07722 0.5624 0.0
C2503 C 0.75069 0.09268 0.58592 0.0
C2504 C 0.75397 0.09677 0.60569 0.0
C2505 C 0.74537 0.0854 0.54862 0.0
C2506 C 0.7541 0.09737 0.55356 0.0
C2507 C 0.75671 0.10089 0.57209 0.0
C2508 C 0.76053 0.10627 0.53944 0.0
C2509 C 0.74238 0.0813 0.52881 0.0
C2510 C 0.77117 0.1076 0.53273 0.0
C2511 C 0.77667 0.11516 0.51811 0.0
C2512 C 0.77159 0.12151 0.51 0.0
C2513 C 0.7611 0.12041 0.51721 0.0
C2514 C 0.75561 0.11283 0.5318 0.0
H2515 H 0.73557 0.07158 0.52724 0.0
H2516 H 0.73898 0.08668 0.52186 0.0
H2517 H 0.75055 0.08292 0.52175 0.0
H2518 H 0.77505 0.10256 0.53851 0.0
H2519 H 0.78481 0.11594 0.513 0.0
H2520 H 0.95756 0.68422 0.64654 0.0
H2521 H 0.94692 0.68288 0.61777 0.0
H2522 H 0.91649 0.65001 0.63519 0.0
H2523 H 0.92686 0.65137 0.66396 0.0
H2524 H 0.93768 0.6652 0.59072 0.0
H2525 H 0.90143 0.66998 0.62132 0.0
H2526 H 0.91483 0.67334 0.63406 0.0
H2527 H 0.90283 0.65799 0.63117 0.0
C2528 C 0.94859 0.67672 0.64426 0.0
C2529 C 0.94303 0.66797 0.65766 0.0
C2530 C 0.94252 0.67598 0.62782 0.0
C2531 C 0.93081 0.6665 0.62454 0.0
C2532 C 0.92538 0.6576 0.63766 0.0
H2533 H 0.87956 0.63539 0.53619 0.0
H2534 H 0.89144 0.64069 0.56478 0.0
C2535 C 0.93139 0.65836 0.65408 0.0
C2536 C 0.92428 0.66564 0.60722 0.0
H2537 H 0.89804 0.66228 0.59032 0.0
C2538 C 0.9291 0.66474 0.59059 0.0
C2539 C 0.9131 0.6651 0.60709 0.0
C2540 C 0.9078 0.66678 0.62435 0.0
C2541 C 0.92278 0.66277 0.57392 0.0
C2542 C 0.91141 0.66176 0.57392 0.0
C2543 C 0.90674 0.66299 0.59044 0.0
C2544 C 0.90403 0.65888 0.55696 0.0
C2545 C 0.92807 0.66136 0.55646 0.0
C2546 C 0.90709 0.66745 0.54332 0.0
C2547 C 0.9003 0.66447 0.52702 0.0
C2548 C 0.89039 0.65284 0.5241 0.0
C2549 C 0.88722 0.64437 0.538 0.0
C2550 C 0.89395 0.64739 0.55433 0.0
H2551 H 0.93626 0.66084 0.55908 0.0
H2552 H 0.92147 0.65308 0.5487 0.0
H2553 H 0.93037 0.6692 0.54769 0.0
H2554 H 0.9148 0.67639 0.54521 0.0
H2555 H 0.90302 0.67115 0.51649 0.0
H2556 H 0.94313 0.67084 0.7422 0.0
H2557 H 0.92977 0.67416 0.76136 0.0
H2558 H 0.94571 0.71087 0.74354 0.0
H2559 H 0.95917 0.70763 0.72417 0.0
H2560 H 0.94466 0.70839 0.7818 0.0
H2561 H 0.90076 0.67777 0.74831 0.0
H2562 H 0.90945 0.67065 0.75254 0.0
H2563 H 0.91465 0.68285 0.73684 0.0
C2564 C 0.94367 0.67956 0.74204 0.0
C2565 C 0.95218 0.68895 0.73156 0.0
C2566 C 0.93598 0.68142 0.75296 0.0
C2567 C 0.93662 0.69269 0.75362 0.0
C2568 C 0.94501 0.70207 0.74306 0.0
H2569 H 0.90267 0.71603 0.83573 0.0
H2570 H 0.91339 0.71604 0.80836 0.0
C2571 C 0.95269 0.7002 0.73203 0.0
C2572 C 0.92923 0.69489 0.7666 0.0
H2573 H 0.90051 0.68399 0.7794 0.0
C2574 C 0.935 0.70324 0.78113 0.0
C2575 C 0.91665 0.68813 0.76565 0.0
C2576 C 0.91 0.67942 0.7499 0.0
C2577 C 0.92853 0.70451 0.79535 0.0
C2578 C 0.91595 0.69739 0.79476 0.0
C2579 C 0.91016 0.68941 0.77982 0.0
C2580 C 0.90872 0.69732 0.8103 0.0
C2581 C 0.93524 0.71294 0.81136 0.0
C2582 C 0.90224 0.6867 0.82003 0.0
C2583 C 0.89609 0.68665 0.83555 0.0
C2584 C 0.89629 0.69724 0.84163 0.0
C2585 C 0.9025 0.70779 0.83151 0.0
C2586 C 0.90862 0.70781 0.8159 0.0
H2587 H 0.94489 0.71589 0.81141 0.0
H2588 H 0.93434 0.7211 0.8106 0.0
H2589 H 0.93153 0.70854 0.82452 0.0
H2590 H 0.90223 0.67852 0.81593 0.0
H2591 H 0.89154 0.67842 0.84316 0.0
H2592 H 0.31284 0.27054 0.72141 0.0
H2593 H 0.31225 0.25506 0.74146 0.0
H2594 H 0.34797 0.28003 0.76126 0.0
H2595 H 0.34862 0.29555 0.74151 0.0
H2596 H 0.3283 0.2452 0.74467 0.0
H2597 H 0.32712 0.2695 0.8076 0.0
H2598 H 0.32385 0.27286 0.78506 0.0
H2599 H 0.33902 0.27841 0.79252 0.0
C2600 C 0.3206 0.27271 0.72994 0.0
C2601 C 0.33076 0.28429 0.72992 0.0
C2602 C 0.32025 0.26385 0.74133 0.0
C2603 C 0.33001 0.26648 0.75295 0.0
C2604 C 0.3403 0.27789 0.75253 0.0
H2605 H 0.34677 0.22121 0.81918 0.0
H2606 H 0.34564 0.23373 0.79511 0.0
C2607 C 0.34067 0.28673 0.74115 0.0
C2608 C 0.32933 0.25748 0.76606 0.0
H2609 H 0.32968 0.2526 0.81177 0.0
C2610 C 0.32855 0.24676 0.75934 0.0
C2611 C 0.3295 0.25951 0.78516 0.0
C2612 C 0.32981 0.27064 0.79308 0.0
C2613 C 0.32823 0.23812 0.77132 0.0
C2614 C 0.3288 0.24036 0.79043 0.0
C2615 C 0.32931 0.25095 0.7971 0.0
C2616 C 0.32897 0.23191 0.80388 0.0
C2617 C 0.32718 0.22665 0.76347 0.0
C2618 C 0.32001 0.2268 0.81683 0.0
C2619 C 0.32068 0.21975 0.83067 0.0
C2620 C 0.33038 0.21773 0.8319 0.0
C2621 C 0.33923 0.22266 0.81866 0.0
C2622 C 0.33853 0.2297 0.80479 0.0
H2623 H 0.32386 0.22495 0.749 0.0
H2624 H 0.33609 0.22741 0.76388 0.0
H2625 H 0.32109 0.21876 0.77162 0.0
H2626 H 0.31261 0.22849 0.81645 0.0
H2627 H 0.31382 0.21625 0.84081 0.0
H2628 H 0.71108 0.04323 0.70571 0.0
H2629 H 0.72072 0.05465 0.73403 0.0
H2630 H 0.75463 0.06055 0.71573 0.0
H2631 H 0.74509 0.04901 0.68748 0.0
H2632 H 0.75062 0.05426 0.75242 0.0
H2633 H 0.7417 0.09142 0.73708 0.0
H2634 H 0.72862 0.0767 0.73656 0.0
H2635 H 0.73996 0.08024 0.72003 0.0
C2636 C 0.72058 0.04691 0.7077 0.0
C2637 C 0.72731 0.04527 0.69421 0.0
C2638 C 0.72609 0.05349 0.72386 0.0
C2639 C 0.73842 0.05864 0.7268 0.0
C2640 C 0.74511 0.05672 0.71366 0.0
H2641 H 0.78871 0.10513 0.81298 0.0
H2642 H 0.77947 0.09225 0.78556 0.0
C2643 C 0.73962 0.05012 0.69751 0.0
C2644 C 0.7444 0.06615 0.74347 0.0
H2645 H 0.74964 0.09179 0.76669 0.0
C2646 C 0.75046 0.06249 0.75552 0.0
C2647 C 0.74422 0.07692 0.74741 0.0
C2648 C 0.73837 0.08164 0.73452 0.0
C2649 C 0.75611 0.06918 0.77167 0.0
C2650 C 0.75581 0.07987 0.77568 0.0
C2651 C 0.74982 0.08356 0.76357 0.0
C2652 C 0.76145 0.08728 0.79254 0.0
C2653 C 0.76212 0.06462 0.78451 0.0
C2654 C 0.7544 0.08884 0.80541 0.0
C2655 C 0.75963 0.09616 0.82103 0.0
C2656 C 0.77206 0.10216 0.82406 0.0
C2657 C 0.77911 0.10053 0.81117 0.0
C2658 C 0.77385 0.09317 0.79551 0.0
H2659 H 0.7593 0.055 0.78152 0.0
H2660 H 0.77191 0.07005 0.783 0.0
H2661 H 0.76013 0.06557 0.79896 0.0
H2662 H 0.74481 0.08437 0.80336 0.0
H2663 H 0.75392 0.09705 0.83083 0.0
H2664 H 0.03519 0.36079 0.02759 0.0
H2665 H 0.05096 0.35781 0.04079 0.0
H2666 H 0.03902 0.32583 0.00661 0.0
H2667 H 0.02335 0.32883 0.99311 0.0
H2668 H 0.0499 0.33839 0.05935 0.0
H2669 H 0.07425 0.34611 0.99451 0.0
H2670 H 0.06265 0.34983 0.99742 0.0
H2671 H 0.05887 0.33443 0.99311 0.0
C2672 C 0.03588 0.35309 0.02293 0.0
C2673 C 0.02808 0.34511 0.00917 0.0
C2674 C 0.0449 0.3514 0.03049 0.0
C2675 C 0.0463 0.34174 0.02441 0.0
C2676 C 0.03827 0.33351 0.01117 0.0
H2677 H 0.09993 0.32208 0.05486 0.0
H2678 H 0.08245 0.32206 0.04139 0.0
C2679 C 0.02927 0.3352 0.00356 0.0
C2680 C 0.05624 0.34036 0.03187 0.0
H2681 H 0.08169 0.34049 0.01997 0.0
C2682 C 0.05685 0.33883 0.05075 0.0
C2683 C 0.06527 0.34091 0.02058 0.0
C2684 C 0.06534 0.34301 0.0003 0.0
C2685 C 0.06625 0.33785 0.05867 0.0
C2686 C 0.07536 0.3386 0.04743 0.0
C2687 C 0.07466 0.3399 0.02851 0.0
C2688 C 0.086 0.33865 0.05523 0.0
C2689 C 0.06633 0.33598 0.07899 0.0
C2690 C 0.09387 0.3481 0.06713 0.0
C2691 C 0.10381 0.34814 0.07479 0.0
C2692 C 0.10613 0.33875 0.07064 0.0
C2693 C 0.09834 0.32939 0.05842 0.0
C2694 C 0.08838 0.32938 0.05069 0.0
H2695 H 0.05734 0.33245 0.08473 0.0
H2696 H 0.06956 0.32961 0.08208 0.0
H2697 H 0.07244 0.34475 0.08604 0.0
H2698 H 0.09227 0.35543 0.07058 0.0
H2699 H 0.10953 0.3554 0.08434 0.0
H2700 H 0.61853 0.67705 0.04403 0.0
H2701 H 0.62704 0.69888 0.04473 0.0
H2702 H 0.65974 0.70332 0.02323 0.0
H2703 H 0.65139 0.68145 0.02278 0.0
H2704 H 0.66342 0.71601 0.05468 0.0
H2705 H 0.63495 0.7251 0.00815 0.0
H2706 H 0.62632 0.7136 0.02407 0.0
H2707 H 0.63494 0.71097 0.00745 0.0
C2708 C 0.62744 0.68262 0.03904 0.0
C2709 C 0.63431 0.67746 0.03353 0.0
C2710 C 0.63226 0.69513 0.03931 0.0
C2711 C 0.64399 0.70275 0.03386 0.0
C2712 C 0.65065 0.69761 0.02742 0.0
H2713 H 0.68067 0.78218 0.0468 0.0
H2714 H 0.67234 0.76195 0.03248 0.0
C2715 C 0.64585 0.68509 0.0272 0.0
C2716 C 0.64979 0.71597 0.03737 0.0
H2717 H 0.64623 0.74046 0.0316 0.0
C2718 C 0.65979 0.72139 0.04933 0.0
C2719 C 0.6451 0.72303 0.03033 0.0
C2720 C 0.63481 0.7179 0.01664 0.0
C2721 C 0.66483 0.73348 0.05519 0.0
C2722 C 0.65966 0.7403 0.04909 0.0
C2723 C 0.65007 0.73513 0.03639 0.0
C2724 C 0.66368 0.7525 0.05688 0.0
C2725 C 0.67545 0.73881 0.06829 0.0
C2726 C 0.66131 0.75381 0.07515 0.0
C2727 C 0.66604 0.76527 0.08335 0.0
C2728 C 0.67324 0.77567 0.07341 0.0
C2729 C 0.67524 0.77434 0.05485 0.0
C2730 C 0.67045 0.76282 0.04663 0.0
H2731 H 0.67995 0.73336 0.06847 0.0
H2732 H 0.68202 0.7482 0.0646 0.0
H2733 H 0.67245 0.73911 0.08233 0.0
H2734 H 0.65608 0.74593 0.08324 0.0
H2735 H 0.66446 0.76593 0.09771 0.0
H2736 H 0.32445 0.95932 0.98094 0.0
H2737 H 0.30587 0.94472 0.99498 0.0
H2738 H 0.31459 0.96852 0.04226 0.0
H2739 H 0.33319 0.98322 0.02834 0.0
H2740 H 0.30386 0.9338 0.02993 0.0
H2741 H 0.2801 0.9598 0.02672 0.0
H2742 H 0.29274 0.96319 0.0128 0.0
H2743 H 0.29496 0.96791 0.03651 0.0
C2744 C 0.3224 0.96149 0.99429 0.0
C2745 C 0.33029 0.97244 0.00352 0.0
C2746 C 0.31178 0.95313 0.00227 0.0
C2747 C 0.30882 0.95563 0.01952 0.0
C2748 C 0.31665 0.96654 0.02879 0.0
H2749 H 0.25394 0.91947 0.09723 0.0
H2750 H 0.27058 0.93359 0.07901 0.0
C2751 C 0.3273 0.97488 0.02086 0.0
C2752 C 0.29775 0.94661 0.02817 0.0
H2753 H 0.27135 0.94212 0.04439 0.0
C2754 C 0.29669 0.93555 0.03297 0.0
C2755 C 0.28847 0.94897 0.03209 0.0
C2756 C 0.28902 0.96057 0.02665 0.0
C2757 C 0.28672 0.9269 0.04218 0.0
C2758 C 0.27746 0.9293 0.04629 0.0
C2759 C 0.27845 0.9403 0.04119 0.0
C2760 C 0.26696 0.92079 0.05669 0.0
C2761 C 0.28641 0.91549 0.04804 0.0
C2762 C 0.25926 0.90898 0.05 0.0
C2763 C 0.24973 0.90086 0.06043 0.0
C2764 C 0.24767 0.90449 0.07759 0.0
C2765 C 0.2552 0.91644 0.08397 0.0
C2766 C 0.26475 0.92451 0.07361 0.0
H2767 H 0.29538 0.91636 0.04782 0.0
H2768 H 0.28292 0.91307 0.06205 0.0
H2769 H 0.28044 0.90794 0.0385 0.0
H2770 H 0.26065 0.90602 0.03678 0.0
H2771 H 0.24397 0.89176 0.05507 0.0
H2772 H 0.3856 0.05547 0.00477 0.0
H2773 H 0.3784 0.06984 0.00623 0.0
H2774 H 0.34214 0.04033 0.00157 0.0
H2775 H 0.3492 0.02597 0.00086 0.0
H2776 H 0.3676 0.07303 0.97892 0.0
H2777 H 0.33743 0.06135 0.03672 0.0
H2778 H 0.34768 0.05574 0.03461 0.0
H2779 H 0.33325 0.04799 0.02312 0.0
C2780 C 0.37608 0.05203 0.00459 0.0
C2781 C 0.36798 0.03957 0.00254 0.0
C2782 C 0.37197 0.06026 0.00546 0.0
C2783 C 0.35971 0.0562 0.0042 0.0
C2784 C 0.35162 0.04372 0.00312 0.0
H2785 H 0.31502 0.07351 0.94834 0.0
H2786 H 0.3248 0.06549 0.96757 0.0
C2787 C 0.3557 0.03549 0.00251 0.0
C2788 C 0.35542 0.06483 0.00089 0.0
H2789 H 0.3326 0.07001 0.01029 0.0
C2790 C 0.3602 0.07265 0.98619 0.0
C2791 C 0.34576 0.06439 0.01036 0.0
C2792 C 0.34085 0.05699 0.02721 0.0
C2793 C 0.35501 0.07927 0.97981 0.0
C2794 C 0.34477 0.07802 0.98831 0.0
C2795 C 0.34042 0.07085 0.00373 0.0
C2796 C 0.33767 0.0828 0.97969 0.0
C2797 C 0.35999 0.08694 0.96321 0.0
C2798 C 0.34149 0.09517 0.98063 0.0
C2799 C 0.33581 0.09981 0.96977 0.0
C2800 C 0.32631 0.09216 0.9577 0.0
C2801 C 0.32216 0.07967 0.95762 0.0
C2802 C 0.32777 0.07505 0.96856 0.0
H2803 H 0.36785 0.0867 0.95789 0.0
H2804 H 0.35303 0.08377 0.95214 0.0
H2805 H 0.36268 0.09645 0.96676 0.0
H2806 H 0.34913 0.10126 0.98918 0.0
H2807 H 0.3391 0.10944 0.97042 0.0
H2808 H 0.9835 0.32009 0.99696 0.0
H2809 H 0.96942 0.29829 0.99532 0.0
H2810 H 0.94056 0.30505 0.98421 0.0
H2811 H 0.95445 0.32676 0.98576 0.0
H2812 H 0.94526 0.2823 0.01369 0.0
H2813 H 0.94374 0.2861 0.93808 0.0
H2814 H 0.95567 0.29742 0.95251 0.0
H2815 H 0.94148 0.2967 0.95139 0.0
C2816 C 0.97413 0.31696 0.99452 0.0
C2817 C 0.97014 0.32519 0.99123 0.0
C2818 C 0.96611 0.3045 0.99363 0.0
C2819 C 0.95401 0.30012 0.98946 0.0
C2820 C 0.9499 0.30829 0.98731 0.0
H2821 H 0.89384 0.23396 0.95062 0.0
H2822 H 0.90739 0.25413 0.96303 0.0
C2823 C 0.95787 0.3207 0.98817 0.0
C2824 C 0.94585 0.28711 0.98548 0.0
H2825 H 0.93011 0.26733 0.95034 0.0
C2826 C 0.94197 0.27896 -0.00014 0.0
C2827 C 0.94166 0.28284 0.9674 0.0
C2828 C 0.9459 0.29117 0.95139 0.0
C2829 C 0.93363 0.26665 0.99664 0.0
C2830 C 0.92927 0.26244 0.97857 0.0
C2831 C 0.93339 0.27059 0.96421 0.0
C2832 C 0.92027 0.2497 0.97399 0.0
C2833 C 0.9293 0.25832 0.01261 0.0
C2834 C 0.92286 0.24038 0.97645 0.0
C2835 C 0.915 0.2287 0.96956 0.0
C2836 C 0.90447 0.22616 0.95992 0.0
C2837 C 0.90172 0.23545 0.95822 0.0
C2838 C 0.90952 0.24706 0.96518 0.0
H2839 H 0.93134 0.2634 0.02589 0.0
H2840 H 0.91954 0.25201 0.01133 0.0
H2841 H 0.93378 0.25285 0.01279 0.0
H2842 H 0.9312 0.24225 0.98297 0.0
H2843 H 0.91736 0.22175 0.97127 0.0
H2844 H 0.66722 0.62674 0.01782 0.0
H2845 H 0.68679 0.63342 0.00501 0.0
H2846 H 0.6894 0.6672 0.99064 0.0
H2847 H 0.66988 0.66068 0.0036 0.0
H2848 H 0.69514 0.64093 0.96948 0.0
H2849 H 0.71991 0.67756 0.02172 0.0
H2850 H 0.70468 0.66576 0.0245 0.0
H2851 H 0.70797 0.67824 0.01005 0.0
C2852 C 0.67192 0.63558 0.01187 0.0
C2853 C 0.66703 0.64322 0.01187 0.0
C2854 C 0.6831 0.63937 0.00456 0.0
C2855 C 0.68962 0.65088 0.99721 0.0
C2856 C 0.68461 0.65838 0.99662 0.0
H2857 H 0.75767 0.69176 0.94691 0.0
H2858 H 0.7383 0.68439 0.96074 0.0
C2859 C 0.67342 0.6546 0.00392 0.0
C2860 C 0.7017 0.65506 0.99025 0.0
H2861 H 0.73092 0.67678 0.99663 0.0
C2862 C 0.70298 0.64872 0.97545 0.0
C2863 C 0.7119 0.66521 0.99815 0.0
C2864 C 0.71111 0.67204 0.01459 0.0
C2865 C 0.71418 0.65245 0.96801 0.0
C2866 C 0.72436 0.66267 0.97581 0.0
C2867 C 0.72309 0.66895 0.9907 0.0
C2868 C 0.73637 0.66723 0.96831 0.0
C2869 C 0.71498 0.64564 0.95155 0.0
C2870 C 0.74183 0.66013 0.96841 0.0
C2871 C 0.75296 0.66436 0.96062 0.0
C2872 C 0.75886 0.67579 0.9527 0.0
C2873 C 0.75348 0.68299 0.95313 0.0
C2874 C 0.74236 0.67877 0.96091 0.0
H2875 H 0.70613 0.6398 0.94475 0.0
H2876 H 0.72111 0.65198 0.94138 0.0
H2877 H 0.71855 0.63978 0.95598 0.0
H2878 H 0.73744 0.6513 0.97442 0.0
H2879 H 0.75694 0.65866 0.96073 0.0
H2880 H 0.95068 0.62748 0.00439 0.0
H2881 H 0.93637 0.63276 0.99163 0.0
H2882 H 0.96437 0.66982 0.98775 0.0
H2883 H 0.97877 0.66464 0.0004 0.0
H2884 H 0.93094 0.64983 0.00697 0.0
H2885 H 0.94792 0.66177 0.93669 0.0
H2886 H 0.95195 0.65315 0.95154 0.0
H2887 H 0.95905 0.66927 0.95457 0.0
C2888 C 0.95384 0.63673 0.00063 0.0
C2889 C 0.96588 0.64564 0.0034 0.0
C2890 C 0.94564 0.63973 0.99338 0.0
C2891 C 0.94934 0.65164 0.98859 0.0
C2892 C 0.96137 0.66052 0.99108 0.0
H2893 H 0.9172 0.69213 0.95006 0.0
H2894 H 0.93014 0.68485 0.96163 0.0
C2895 C 0.96958 0.65755 0.99838 0.0
C2896 C 0.94052 0.65493 0.98186 0.0
H2897 H 0.93358 0.6671 0.94577 0.0
C2898 C 0.93143 0.65351 0.99353 0.0
C2899 C 0.94121 0.65973 0.96434 0.0
C2900 C 0.95049 0.66098 0.95096 0.0
C2901 C 0.92323 0.65714 0.98837 0.0
C2902 C 0.92404 0.66211 0.97093 0.0
C2903 C 0.93301 0.66333 0.95915 0.0
C2904 C 0.91592 0.66647 0.96481 0.0
C2905 C 0.91406 0.65601 0.00185 0.0
C2906 C 0.90359 0.65855 0.96281 0.0
C2907 C 0.8961 0.66272 0.95639 0.0
C2908 C 0.90083 0.67489 0.95176 0.0
C2909 C 0.91319 0.68278 0.95387 0.0
C2910 C 0.92064 0.6786 0.9603 0.0
H2911 H 0.91644 0.6548 0.01602 0.0
H2912 H 0.91301 0.66411 0.00176 0.0
H2913 H 0.90533 0.64802 0.99794 0.0
H2914 H 0.89977 0.64909 0.96591 0.0
H2915 H 0.88662 0.65642 0.95497 0.0
H2916 H 0.37741 0.32452 0.96501 0.0
H2917 H 0.36893 0.30274 0.96533 0.0
H2918 H 0.34458 0.30025 0.00691 0.0
H2919 H 0.35272 0.32214 0.00605 0.0
H2920 H 0.36724 0.28739 0.99017 0.0
H2921 H 0.32156 0.27698 0.96921 0.0
H2922 H 0.33412 0.29212 0.96943 0.0
H2923 H 0.3272 0.28532 0.99049 0.0
C2924 C 0.3703 0.31938 0.97433 0.0
C2925 C 0.36566 0.32506 0.98537 0.0
C2926 C 0.36545 0.3069 0.97451 0.0
C2927 C 0.35595 0.29979 0.98589 0.0
C2928 C 0.35167 0.30548 0.99763 0.0
H2929 H 0.33779 0.2234 0.97558 0.0
H2930 H 0.34193 0.2422 0.99154 0.0
C2931 C 0.35639 0.318 0.99722 0.0
C2932 C 0.35044 0.28644 0.98468 0.0
H2933 H 0.32486 0.26065 0.97149 0.0
C2934 C 0.35794 0.2815 0.98628 0.0
C2935 C 0.33828 0.27877 0.97962 0.0
C2936 C 0.32982 0.28354 0.97693 0.0
C2937 C 0.35387 0.26933 0.98173 0.0
C2938 C 0.34179 0.26173 0.97617 0.0
C2939 C 0.33409 0.26648 0.9758 0.0
C2940 C 0.33743 0.24945 0.96809 0.0
C2941 C 0.36281 0.26504 0.98164 0.0
C2942 C 0.33275 0.2469 0.95007 0.0
C2943 C 0.33008 0.23608 0.94117 0.0
C2944 C 0.33215 0.22762 0.95004 0.0
C2945 C 0.33622 0.22984 0.96841 0.0
C2946 C 0.33867 0.24061 0.97746 0.0
H2947 H 0.37214 0.27267 0.98247 0.0
H2948 H 0.36144 0.25933 0.99366 0.0
H2949 H 0.36169 0.25956 0.96905 0.0
H2950 H 0.33169 0.25355 0.94253 0.0
H2951 H 0.32707 0.23468 0.92696 0.0
H2952 H 0.66588 0.03368 0.99577 0.0
H2953 H 0.68399 0.04901 0.98146 0.0
H2954 H 0.70496 0.0379 0.0133 0.0
H2955 H 0.68691 0.02252 0.02765 0.0
H2956 H 0.70455 0.06817 0.00096 0.0
H2957 H 0.71545 0.03821 0.95974 0.0
H2958 H 0.7008 0.03309 0.96856 0.0
H2959 H 0.71267 0.03475 0.98353 0.0
C2960 C 0.67432 0.03441 -0.00039 0.0
C2961 C 0.67495 0.02687 0.01285 0.0
C2962 C 0.68465 0.04319 0.99145 0.0
C2963 C 0.69577 0.0445 0.99624 0.0
C2964 C 0.69643 0.03691 0.00925 0.0
H2965 H 0.76695 0.09326 0.95678 0.0
H2966 H 0.75023 0.07819 0.97413 0.0
C2967 C 0.68611 0.02815 0.01748 0.0
C2968 C 0.70671 0.05415 0.98811 0.0
H2969 H 0.72934 0.05911 0.95987 0.0
C2970 C 0.70999 0.06621 0.99197 0.0
C2971 C 0.7138 0.05153 0.97655 0.0
C2972 C 0.71051 0.0387 0.97169 0.0
C2973 C 0.72021 0.07577 0.98454 0.0
C2974 C 0.72717 0.07316 0.97263 0.0
C2975 C 0.72399 0.06108 0.96902 0.0
C2976 C 0.73745 0.08277 0.96308 0.0
C2977 C 0.72353 0.08857 0.98969 0.0
C2978 C 0.7358 0.09032 0.95113 0.0
C2979 C 0.74531 0.09891 0.94124 0.0
C2980 C 0.75665 0.10005 0.94296 0.0
C2981 C 0.75831 0.09255 0.95508 0.0
C2982 C 0.74879 0.08397 0.96503 0.0
H2983 H 0.71961 0.08903 0.00288 0.0
H2984 H 0.73335 0.09453 0.99084 0.0
H2985 H 0.72004 0.09211 0.97895 0.0
H2986 H 0.72707 0.08934 0.94906 0.0
H2987 H 0.74367 0.10436 0.93173 0.0
H2988 H 0.61998 0.95279 0.0272 0.0
H2989 H 0.62723 0.93845 0.02783 0.0
H2990 H 0.66346 0.96802 0.03181 0.0
H2991 H 0.65631 0.98243 0.0305 0.0
H2992 H 0.66156 0.9489 0.01126 0.0
H2993 H 0.63831 0.93324 0.07704 0.0
H2994 H 0.62868 0.93139 0.05787 0.0
H2995 H 0.63973 0.94632 0.0658 0.0
C2996 C 0.6295 0.95624 0.02787 0.0
C2997 C 0.63757 0.96874 0.02913 0.0
C2998 C 0.63363 0.94803 0.0283 0.0
C2999 C 0.64586 0.95217 0.03042 0.0
C3000 C 0.65397 0.96463 0.03032 0.0
H3001 H 0.69251 0.9292 0.07107 0.0
H3002 H 0.68347 0.93902 0.05428 0.0
C3003 C 0.64986 0.97286 0.02959 0.0
C3004 C 0.65017 0.94367 0.03452 0.0
H3005 H 0.64891 0.92401 0.06666 0.0
C3006 C 0.65872 0.94338 0.02328 0.0
C3007 C 0.64652 0.93651 0.05029 0.0
C3008 C 0.6379 0.93693 0.06355 0.0
C3009 C 0.66381 0.93622 0.02753 0.0
C3010 C 0.66029 0.92927 0.04346 0.0
C3011 C 0.6515 0.92928 0.05435 0.0
C3012 C 0.66633 0.9228 0.05023 0.0
C3013 C 0.67299 0.93625 0.0151 0.0
C3014 C 0.65973 0.91037 0.05332 0.0
C3015 C 0.6649 0.90469 0.06289 0.0
C3016 C 0.67672 0.91138 0.06973 0.0
C3017 C 0.68346 0.92372 0.06578 0.0
C3018 C 0.6783 0.92937 0.05614 0.0
H3019 H 0.67224 0.93915 0.00113 0.0
H3020 H 0.68203 0.94268 0.02079 0.0
H3021 H 0.6721 0.92716 0.0141 0.0
H3022 H 0.65045 0.90516 0.04895 0.0
H3023 H 0.65951 0.89514 0.06545 0.0
H3024 H 0.02214 0.6844 0.00867 0.0
H3025 H 0.03619 0.70609 0.00647 0.0
H3026 H 0.06032 0.70299 0.0444 0.0
H3027 H 0.04673 0.6814 0.04585 0.0
H3028 H 0.04277 0.72269 0.03062 0.0
H3029 H 0.08394 0.72428 0.00961 0.0
H3030 H 0.0698 0.7104 0.0085 0.0
H3031 H 0.07882 0.71513 0.02936 0.0
C3032 C 0.03057 0.68833 0.0162 0.0
C3033 C 0.03334 0.68115 0.02735 0.0
C3034 C 0.0386 0.70073 0.01495 0.0
C3035 C 0.04948 0.70621 0.02496 0.0
C3036 C 0.05225 0.69899 0.03595 0.0
H3037 H 0.08369 0.77244 0.08276 0.0
H3038 H 0.07005 0.75311 0.06779 0.0
C3039 C 0.04438 0.6866 0.03691 0.0
C3040 C 0.05739 0.71957 0.02566 0.0
H3041 H 0.08671 0.74143 0.029 0.0
C3042 C 0.05236 0.72681 0.02981 0.0
C3043 C 0.06991 0.72515 0.02404 0.0
C3044 C 0.07587 0.71831 0.0174 0.0
C3045 C 0.05954 0.73921 0.03389 0.0
C3046 C 0.07209 0.74442 0.03466 0.0
C3047 C 0.0771 0.73743 0.02895 0.0
C3048 C 0.08009 0.75665 0.04297 0.0
C3049 C 0.05352 0.7465 0.03757 0.0
C3050 C 0.09057 0.76501 0.03438 0.0
C3051 C 0.09859 0.77602 0.04321 0.0
C3052 C 0.09617 0.77889 0.06067 0.0
C3053 C 0.08562 0.77059 0.06911 0.0
C3054 C 0.07777 0.75955 0.06047 0.0
H3055 H 0.04516 0.74294 0.0292 0.0
H3056 H 0.05107 0.74573 0.05217 0.0
H3057 H 0.05939 0.75618 0.03454 0.0
H3058 H 0.09265 0.76295 0.02097 0.0
H3059 H 0.1067 0.78224 0.03648 0.0
H3060 H 0.34315 0.37993 0.03009 0.0
H3061 H 0.32417 0.37457 0.0441 0.0
H3062 H 0.31125 0.33695 0.03121 0.0
H3063 H 0.33021 0.34216 0.01754 0.0
H3064 H 0.30218 0.3635 0.0269 0.0
H3065 H 0.30246 0.33586 0.08434 0.0
H3066 H 0.31567 0.34553 0.07188 0.0
H3067 H 0.30494 0.33082 0.06267 0.0
C3068 C 0.33634 0.3705 0.03049 0.0
C3069 C 0.33821 0.36147 0.02271 0.0
C3070 C 0.32549 0.36746 0.03846 0.0
C3071 C 0.31635 0.35535 0.03888 0.0
C3072 C 0.31826 0.34632 0.0314 0.0
H3073 H 0.24093 0.31816 0.05793 0.0
H3074 H 0.26096 0.32533 0.04643 0.0
C3075 C 0.32911 0.34933 0.0235 0.0
C3076 C 0.30455 0.3522 0.04609 0.0
H3077 H 0.28371 0.33427 0.07655 0.0
C3078 C 0.29819 0.35721 0.03788 0.0
C3079 C 0.29938 0.344 0.06045 0.0
C3080 C 0.30601 0.33883 0.07048 0.0
C3081 C 0.28666 0.35397 0.04334 0.0
C3082 C 0.28141 0.34553 0.05727 0.0
C3083 C 0.28779 0.34067 0.06572 0.0
C3084 C 0.26926 0.34164 0.06335 0.0
C3085 C 0.28003 0.35938 0.03405 0.0
C3086 C 0.26738 0.34854 0.07651 0.0
C3087 C 0.25599 0.34444 0.08323 0.0
C3088 C 0.24629 0.33337 0.07686 0.0
C3089 C 0.24821 0.32665 0.06328 0.0
C3090 C 0.25962 0.33074 0.05663 0.0
H3091 H 0.28519 0.3655 0.02292 0.0
H3092 H 0.2714 0.35208 0.02822 0.0
H3093 H 0.27801 0.36457 0.04429 0.0
H3094 H 0.27477 0.35695 0.08189 0.0
H3095 H 0.2549 0.34975 0.09391 0.0
H3096 H 0.72001 0.70021 0.32739 0.0
H3097 H 0.7332 0.69431 0.34232 0.0
H3098 H 0.70692 0.67564 0.38309 0.0
H3099 H 0.69351 0.6814 0.36804 0.0
H3100 H 0.74278 0.69877 0.37806 0.0
H3101 H 0.71381 0.64965 0.36238 0.0
H3102 H 0.71161 0.66097 0.35145 0.0
H3103 H 0.70684 0.65672 0.37444 0.0
C3104 C 0.717 0.69487 0.33956 0.0
C3105 C 0.70565 0.6912 0.34645 0.0
C3106 C 0.72459 0.69153 0.3481 0.0
C3107 C 0.72098 0.6844 0.36364 0.0
C3108 C 0.70979 0.68097 0.3709 0.0
H3109 H 0.76754 0.66981 0.43278 0.0
H3110 H 0.75465 0.67704 0.42063 0.0
C3111 C 0.70217 0.68433 0.36236 0.0
C3112 C 0.72896 0.68047 0.37194 0.0
H3113 H 0.73148 0.65559 0.37976 0.0
C3114 C 0.7403 0.68933 0.37852 0.0
C3115 C 0.72576 0.66816 0.37224 0.0
C3116 C 0.71389 0.6583 0.36462 0.0
C3117 C 0.74854 0.6862 0.38543 0.0
C3118 C 0.74527 0.67388 0.38597 0.0
C3119 C 0.73393 0.66502 0.37938 0.0
C3120 C 0.75353 0.66996 0.39314 0.0
C3121 C 0.76076 0.69612 0.39166 0.0
C3122 C 0.7571 0.66347 0.38176 0.0
C3123 C 0.76451 0.65933 0.38865 0.0
C3124 C 0.76844 0.66156 0.4071 0.0
C3125 C 0.7649 0.66816 0.41841 0.0
C3126 C 0.7575 0.67228 0.41151 0.0
H3127 H 0.76285 0.705 0.38618 0.0
H3128 H 0.76116 0.69692 0.40683 0.0
H3129 H 0.76774 0.69406 0.38733 0.0
H3130 H 0.75412 0.66157 0.36754 0.0
H3131 H 0.76712 0.65435 0.37955 0.0
H3132 H 0.31836 0.01866 0.36582 0.0
H3133 H 0.32397 0.03993 0.36795 0.0
H3134 H 0.28702 0.02981 0.37253 0.0
H3135 H 0.28134 0.00847 0.37101 0.0
H3136 H 0.31865 0.05505 0.34911 0.0
H3137 H 0.30143 0.049 0.41965 0.0
H3138 H 0.30285 0.03743 0.4075 0.0
H3139 H 0.29049 0.03969 0.40244 0.0
C3140 C 0.31139 0.02093 0.36704 0.0
C3141 C 0.29941 0.01185 0.36857 0.0
C3142 C 0.31462 0.03312 0.36824 0.0
C3143 C 0.30595 0.03646 0.37086 0.0
C3144 C 0.2939 0.02743 0.37104 0.0
H3145 H 0.31752 0.10777 0.40404 0.0
H3146 H 0.30813 0.08739 0.39026 0.0
C3147 C 0.29066 0.01524 0.37007 0.0
C3148 C 0.30965 0.04931 0.37466 0.0
H3149 H 0.30975 0.06846 0.40787 0.0
C3150 C 0.31663 0.05798 0.36189 0.0
C3151 C 0.30704 0.05313 0.39139 0.0
C3152 C 0.30014 0.04436 0.40612 0.0
C3153 C 0.32121 0.07037 0.36554 0.0
C3154 C 0.31879 0.07415 0.3824 0.0
C3155 C 0.3115 0.06549 0.39489 0.0
C3156 C 0.32458 0.08704 0.38823 0.0
C3157 C 0.32871 0.07932 0.35144 0.0
C3158 C 0.33694 0.09361 0.39152 0.0
C3159 C 0.3423 0.10516 0.39964 0.0
C3160 C 0.33542 0.1104 0.40465 0.0
C3161 C 0.32308 0.10396 0.40061 0.0
C3162 C 0.3177 0.09236 0.3926 0.0
H3163 H 0.32704 0.07502 0.33756 0.0
H3164 H 0.32692 0.08695 0.35097 0.0
H3165 H 0.33827 0.08305 0.35515 0.0
H3166 H 0.34237 0.08956 0.38865 0.0
H3167 H 0.35177 0.10968 0.40285 0.0
H3168 H 0.99865 0.31151 0.36249 0.0
H3169 H 0.97996 0.29733 0.37678 0.0
H3170 H 0.96932 0.27411 0.3285 0.0
H3171 H 0.98796 0.28818 0.31409 0.0
H3172 H 0.95574 0.28872 0.36234 0.0
H3173 H 0.96629 0.25197 0.37187 0.0
H3174 H 0.97764 0.26738 0.36793 0.0
H3175 H 0.96824 0.25795 0.34928 0.0
C3176 C 0.99236 0.30337 0.35492 0.0
C3177 C 0.99482 0.30095 0.33718 0.0
C3178 C 0.98168 0.2953 0.36309 0.0
C3179 C 0.97335 0.28465 0.35374 0.0
C3180 C 0.97573 0.28223 0.33601 0.0
H3181 H 0.90665 0.22352 0.38866 0.0
H3182 H 0.9235 0.23752 0.37043 0.0
C3183 C 0.98637 0.2903 0.3278 0.0
C3184 C 0.96213 0.2761 0.36251 0.0
H3185 H 0.94713 0.2479 0.38002 0.0
C3186 C 0.95383 0.27979 0.36621 0.0
C3187 C 0.95967 0.26444 0.36738 0.0
C3188 C 0.96844 0.26017 0.36407 0.0
C3189 C 0.94307 0.27208 0.37467 0.0
C3190 C 0.94072 0.26051 0.37991 0.0
C3191 C 0.94895 0.25677 0.37595 0.0
C3192 C 0.93005 0.25233 0.3903 0.0
C3193 C 0.93428 0.27636 0.3777 0.0
C3194 C 0.92817 0.25601 0.4075 0.0
C3195 C 0.91858 0.24806 0.4179 0.0
C3196 C 0.91074 0.23622 0.41139 0.0
C3197 C 0.91258 0.23257 0.39408 0.0
C3198 C 0.92216 0.24056 0.38364 0.0
H3199 H 0.93562 0.28354 0.36805 0.0
H3200 H 0.92496 0.26881 0.37605 0.0
H3201 H 0.93557 0.28021 0.39182 0.0
H3202 H 0.93432 0.26494 0.41314 0.0
H3203 H 0.91756 0.25107 0.43135 0.0
H3204 H 0.0511 0.38233 0.34422 0.0
H3205 H 0.04575 0.39814 0.34525 0.0
H3206 H 0.00975 0.37202 0.32787 0.0
H3207 H 0.01491 0.35614 0.32777 0.0
H3208 H 0.04041 0.40507 0.31596 0.0
H3209 H 0.00256 0.39199 0.36126 0.0
H3210 H 0.01145 0.38474 0.36197 0.0
H3211 H 0.99922 0.37975 0.34557 0.0
C3212 C 0.04194 0.37991 0.34123 0.0
C3213 C 0.03344 0.36803 0.33579 0.0
C3214 C 0.03889 0.38894 0.34184 0.0
C3215 C 0.02732 0.38631 0.33673 0.0
C3216 C 0.01864 0.37429 0.33238 0.0
H3217 H 0.99982 0.41919 0.27064 0.0
H3218 H 0.0035 0.40631 0.29069 0.0
C3219 C 0.02163 0.3652 0.33217 0.0
C3220 C 0.02493 0.39627 0.33272 0.0
H3221 H 0.00378 0.40469 0.33557 0.0
C3222 C 0.03258 0.40517 0.32073 0.0
C3223 C 0.0147 0.39644 0.33884 0.0
C3224 C 0.00661 0.38777 0.35278 0.0
C3225 C 0.0299 0.41371 0.31384 0.0
C3226 C 0.01928 0.41333 0.31896 0.0
C3227 C 0.0119 0.40487 0.33163 0.0
C3228 C 0.01521 0.42078 0.30952 0.0
C3229 C 0.03809 0.42268 0.30026 0.0
C3230 C 0.02032 0.43312 0.31388 0.0
C3231 C 0.01814 0.44055 0.30252 0.0
C3232 C 0.01091 0.43574 0.28655 0.0
C3233 C 0.00529 0.42322 0.28291 0.0
C3234 C 0.0074 0.41581 0.29433 0.0
H3235 H 0.04592 0.42162 0.2974 0.0
H3236 H 0.03313 0.42158 0.28717 0.0
H3237 H 0.04136 0.43201 0.30563 0.0
H3238 H 0.02641 0.43708 0.32556 0.0
H3239 H 0.02245 0.45011 0.30591 0.0
H3240 H 0.65197 0.65551 0.33727 0.0
H3241 H 0.63791 0.63374 0.33794 0.0
H3242 H 0.61328 0.63816 0.30307 0.0
H3243 H 0.62702 0.65983 0.30276 0.0
H3244 H 0.60192 0.6227 0.33024 0.0
H3245 H 0.63266 0.6105 0.29601 0.0
H3246 H 0.63821 0.61899 0.3172 0.0
H3247 H 0.63564 0.62585 0.29769 0.0
C3248 C 0.64353 0.65185 0.32982 0.0
C3249 C 0.64068 0.65943 0.31984 0.0
C3250 C 0.63553 0.63939 0.33014 0.0
C3251 C 0.62463 0.63428 0.32027 0.0
C3252 C 0.62165 0.64188 0.31076 0.0
H3253 H 0.56997 0.57104 0.27106 0.0
H3254 H 0.58342 0.59086 0.2847 0.0
C3255 C 0.62955 0.6543 0.31057 0.0
C3256 C 0.61636 0.62103 0.31923 0.0
H3257 H 0.61351 0.59465 0.30217 0.0
C3258 C 0.6045 0.61655 0.32432 0.0
C3259 C 0.61974 0.61298 0.31152 0.0
C3260 C 0.63222 0.61729 0.30514 0.0
C3261 C 0.59584 0.60437 0.32123 0.0
C3262 C 0.59913 0.59648 0.31287 0.0
C3263 C 0.61107 0.60076 0.30867 0.0
C3264 C 0.59009 0.58423 0.3062 0.0
C3265 C 0.58315 0.60007 0.32637 0.0
C3266 C 0.58934 0.57391 0.31389 0.0
C3267 C 0.58142 0.56243 0.30633 0.0
C3268 C 0.57429 0.56111 0.29073 0.0
C3269 C 0.57502 0.57156 0.28331 0.0
C3270 C 0.58279 0.58296 0.29101 0.0
H3271 H 0.58256 0.60635 0.33641 0.0
H3272 H 0.57786 0.59947 0.3139 0.0
H3273 H 0.57906 0.59093 0.33224 0.0
H3274 H 0.59496 0.57474 0.32559 0.0
H3275 H 0.58102 0.55462 0.31255 0.0
H3276 H 0.33035 0.97984 0.32653 0.0
H3277 H 0.34772 0.98108 0.3119 0.0
H3278 H 0.37093 0.00913 0.35075 0.0
H3279 H 0.35358 0.0078 0.36574 0.0
H3280 H 0.3675 -0.00014 0.29593 0.0
H3281 H 0.38066 0.98357 0.35726 0.0
H3282 H 0.36639 0.98274 0.35499 0.0
H3283 H 0.37952 0.99685 0.36109 0.0
C3284 C 0.33914 0.98635 0.33189 0.0
C3285 C 0.34057 0.99362 0.34745 0.0
C3286 C 0.34907 0.98705 0.3235 0.0
C3287 C 0.36059 0.99502 0.33048 0.0
C3288 C 0.36209 0.00272 0.34542 0.0
H3289 H 0.42813 0.00135 0.29658 0.0
H3290 H 0.41342 0.00519 0.31136 0.0
C3291 C 0.35217 0.00199 0.35389 0.0
C3292 C 0.37095 0.99491 0.3224 0.0
H3293 H 0.39291 0.98825 0.33168 0.0
C3294 C 0.3731 0.99739 0.30377 0.0
C3295 C 0.37824 0.99168 0.33268 0.0
C3296 C 0.37607 0.98846 0.35257 0.0
C3297 C 0.38226 0.9966 0.29507 0.0
C3298 C 0.38935 0.99309 0.30524 0.0
C3299 C 0.38745 0.99095 0.32397 0.0
C3300 C 0.39827 0.99086 0.2964 0.0
C3301 C 0.38426 0.99945 0.27504 0.0
C3302 C 0.39457 0.9814 0.2834 0.0
C3303 C 0.4029 0.97917 0.27502 0.0
C3304 C 0.41511 0.98634 0.27952 0.0
C3305 C 0.41879 0.99573 0.29274 0.0
C3306 C 0.41042 0.99792 0.30121 0.0
H3307 H 0.3803 0.00497 0.27051 0.0
H3308 H 0.39391 0.00436 0.27214 0.0
H3309 H 0.37998 0.99089 0.26679 0.0
H3310 H 0.38521 0.97574 0.27972 0.0
H3311 H 0.39979 0.97198 0.26472 0.0
H3312 H 0.61756 0.95547 0.34607 0.0
H3313 H 0.60237 0.95937 0.33313 0.0
H3314 H 0.6298 0.99408 0.31526 0.0
H3315 H 0.6451 0.99017 0.32791 0.0
H3316 H 0.59834 0.97767 0.34328 0.0
H3317 H 0.60852 0.98013 0.26948 0.0
H3318 H 0.6144 0.97398 0.28601 0.0
H3319 H 0.6211 0.99006 0.28397 0.0
C3320 C 0.62039 0.96388 0.33918 0.0
C3321 C 0.63255 0.97251 0.33801 0.0
C3322 C 0.61168 0.9661 0.33183 0.0
C3323 C 0.61494 0.97697 0.3231 0.0
C3324 C 0.62708 0.98553 0.32163 0.0
H3325 H 0.56937 0.00794 0.30475 0.0
H3326 H 0.5842 0.00305 0.31639 0.0
C3327 C 0.63581 0.9833 0.32893 0.0
C3328 C 0.6056 0.97955 0.31643 0.0
H3329 H 0.59479 0.98635 0.2783 0.0
C3330 C 0.59753 0.97953 0.32905 0.0
C3331 C 0.60449 0.98184 0.29784 0.0
C3332 C 0.61251 0.9814 0.28349 0.0
C3333 C 0.58846 0.98186 0.32364 0.0
C3334 C 0.58757 0.98452 0.30517 0.0
C3335 C 0.59555 0.9844 0.2925 0.0
C3336 C 0.57834 0.98729 0.2986 0.0
C3337 C 0.57978 0.98124 0.3377 0.0
C3338 C 0.57023 0.98016 0.28457 0.0
C3339 C 0.56184 0.98302 0.27772 0.0
C3340 C 0.56141 0.9931 0.28474 0.0
C3341 C 0.56948 0.00015 0.29897 0.0
C3342 C 0.57789 0.9973 0.30577 0.0
H3343 H 0.57965 0.97596 0.34971 0.0
H3344 H 0.58247 0.99052 0.34266 0.0
H3345 H 0.57061 0.9771 0.33169 0.0
H3346 H 0.57046 0.97244 0.27876 0.0
H3347 H 0.55594 0.97753 0.26652 0.0
H3348 H 0.01576 0.65702 0.32467 0.0
H3349 H 0.00886 0.6354 0.32364 0.0
H3350 H 0.04506 0.64312 0.31811 0.0
H3351 H 0.05201 0.66472 0.31866 0.0
H3352 H 0.03064 0.62841 0.29119 0.0
H3353 H 0.00947 0.61106 0.35764 0.0
H3354 H 0.00394 0.61965 0.34618 0.0
H3355 H 0.01927 0.62695 0.35396 0.0
C3356 C 0.02229 0.65413 0.32365 0.0
C3357 C 0.03443 0.6626 0.32156 0.0
C3358 C 0.01833 0.64175 0.32319 0.0
C3359 C 0.02646 0.63763 0.32096 0.0
C3360 C 0.03864 0.6461 0.31988 0.0
H3361 H 0.01884 0.56826 0.28989 0.0
H3362 H 0.02601 0.58819 0.30437 0.0
C3363 C 0.04259 0.65845 0.32015 0.0
C3364 C 0.02218 0.62464 0.31729 0.0
H3365 H 0.00508 0.59626 0.33366 0.0
C3366 C 0.02518 0.62141 0.30061 0.0
C3367 C 0.01495 0.6155 0.3295 0.0
C3368 C 0.0118 0.61845 0.3479 0.0
C3369 C 0.021 0.60931 0.29562 0.0
C3370 C 0.01372 0.60016 0.30774 0.0
C3371 C 0.01071 0.60333 0.32447 0.0
C3372 C 0.00892 0.58728 0.30268 0.0
C3373 C 0.02414 0.60637 0.27715 0.0
C3374 C 0.99681 0.57998 0.29782 0.0
C3375 C 0.99269 0.56859 0.28954 0.0
C3376 C 0.00064 0.56438 0.286 0.0
C3377 C 0.01256 0.57136 0.2922 0.0
C3378 C 0.01666 0.58271 0.30051 0.0
H3379 H 0.02783 0.61425 0.26805 0.0
H3380 H 0.03095 0.60362 0.27905 0.0
H3381 H 0.01619 0.59875 0.27021 0.0
H3382 H 0.99072 0.58339 0.29938 0.0
H3383 H 0.98347 0.56346 0.28482 0.0
H3384 H 0.33848 0.35924 0.32302 0.0
H3385 H 0.35767 0.3704 0.30817 0.0
H3386 H 0.3613 0.404 0.32821 0.0
H3387 H 0.34225 0.39293 0.34339 0.0
H3388 H 0.36606 0.38826 0.28212 0.0
H3389 H 0.3917 0.40562 0.3479 0.0
H3390 H 0.37632 0.39372 0.34677 0.0
H3391 H 0.38008 0.40921 0.34469 0.0
C3392 C 0.34332 0.36901 0.32416 0.0
C3393 C 0.33891 0.37519 0.33456 0.0
C3394 C 0.35428 0.37537 0.31567 0.0
C3395 C 0.36101 0.388 0.31744 0.0
C3396 C 0.35638 0.39423 0.32707 0.0
H3397 H 0.43108 0.44065 0.27905 0.0
H3398 H 0.41124 0.43068 0.2923 0.0
C3399 C 0.34545 0.38789 0.33564 0.0
C3400 C 0.37299 0.39462 0.30951 0.0
H3401 H 0.40249 0.41297 0.32076 0.0
C3402 C 0.37403 0.39365 0.29056 0.0
C3403 C 0.38337 0.40164 0.32058 0.0
C3404 C 0.38287 0.40255 0.34113 0.0
C3405 C 0.38517 0.3996 0.28234 0.0
C3406 C 0.39553 0.40657 0.29342 0.0
C3407 C 0.3945 0.40764 0.31233 0.0
C3408 C 0.40756 0.41258 0.28568 0.0
C3409 C 0.38578 0.3985 0.26185 0.0
C3410 C 0.41211 0.40567 0.27794 0.0
C3411 C 0.4234 0.41131 0.27041 0.0
C3412 C 0.43037 0.42398 0.27053 0.0
C3413 C 0.42587 0.43088 0.27861 0.0
C3414 C 0.41457 0.42521 0.28622 0.0
H3415 H 0.37697 0.39529 0.25493 0.0
H3416 H 0.39233 0.4073 0.25612 0.0
H3417 H 0.38872 0.3919 0.25863 0.0
H3418 H 0.40689 0.39589 0.27765 0.0
H3419 H 0.42656 0.40575 0.26411 0.0
H3420 H 0.29324 0.29654 0.37792 0.0
H3421 H 0.3021 0.28359 0.37911 0.0
H3422 H 0.33523 0.31271 0.36021 0.0
H3423 H 0.32649 0.32578 0.35889 0.0
H3424 H 0.3164 0.27827 0.34953 0.0
H3425 H 0.34069 0.3026 0.41407 0.0
H3426 H 0.32745 0.30259 0.406 0.0
H3427 H 0.34126 0.31141 0.39473 0.0
C3428 C 0.30237 0.30018 0.37377 0.0
C3429 C 0.30919 0.31226 0.36851 0.0
C3430 C 0.30738 0.29273 0.37437 0.0
C3431 C 0.3193 0.29725 0.36981 0.0
C3432 C 0.326 0.3091 0.36378 0.0
H3433 H 0.36386 0.26791 0.40344 0.0
H3434 H 0.35721 0.28037 0.38826 0.0
C3435 C 0.32098 0.31655 0.36307 0.0
C3436 C 0.32501 0.28992 0.37312 0.0
H3437 H 0.34286 0.28637 0.40408 0.0
C3438 C 0.32228 0.28006 0.36134 0.0
C3439 C 0.33267 0.29236 0.3885 0.0
C3440 C 0.3357 0.30277 0.40167 0.0
C3441 C 0.32701 0.27247 0.36467 0.0
C3442 C 0.33438 0.27466 0.38044 0.0
C3443 C 0.33727 0.28471 0.39195 0.0
C3444 C 0.33867 0.26637 0.38609 0.0
C3445 C 0.32413 0.26225 0.35121 0.0
C3446 C 0.33054 0.25421 0.38938 0.0
C3447 C 0.33436 0.24693 0.39774 0.0
C3448 C 0.34637 0.25175 0.40333 0.0
C3449 C 0.35458 0.26379 0.39915 0.0
C3450 C 0.35078 0.27099 0.39059 0.0
H3451 H 0.32215 0.2643 0.3373 0.0
H3452 H 0.33158 0.26035 0.35038 0.0
H3453 H 0.31608 0.25398 0.35567 0.0
H3454 H 0.32112 0.25047 0.38639 0.0
H3455 H 0.32781 0.23766 0.40046 0.0
H3456 H 0.71576 0.01493 0.3697 0.0
H3457 H 0.72769 0.03681 0.3684 0.0
H3458 H 0.69699 0.03837 0.34858 0.0
H3459 H 0.68481 0.01634 0.35019 0.0
H3460 H 0.733 0.05323 0.3405 0.0
H3461 H 0.70701 0.05966 0.39512 0.0
H3462 H 0.7055 0.04513 0.38986 0.0
H3463 H 0.69876 0.05119 0.37497 0.0
C3464 C 0.71151 0.01986 0.36492 0.0
C3465 C 0.69926 0.01385 0.3603 0.0
C3466 C 0.71838 0.0324 0.36412 0.0
C3467 C 0.71319 0.03924 0.35868 0.0
C3468 C 0.70112 0.03327 0.35316 0.0
H3469 H 0.74986 0.11773 0.38064 0.0
H3470 H 0.73569 0.09822 0.36604 0.0
C3471 C 0.69419 0.02068 0.354 0.0
C3472 C 0.72042 0.0526 0.35998 0.0
H3473 H 0.72411 0.07687 0.38554 0.0
C3474 C 0.73097 0.05844 0.35013 0.0
C3475 C 0.71773 0.0594 0.3725 0.0
C3476 C 0.70669 0.05357 0.38385 0.0
C3477 C 0.73914 0.07079 0.35306 0.0
C3478 C 0.73677 0.07741 0.36633 0.0
C3479 C 0.7259 0.07176 0.37536 0.0
C3480 C 0.74598 0.08968 0.37281 0.0
C3481 C 0.75041 0.07656 0.34229 0.0
C3482 C 0.75648 0.09134 0.38135 0.0
C3483 C 0.76449 0.10238 0.38989 0.0
C3484 C 0.76219 0.11203 0.39011 0.0
C3485 C 0.75186 0.11047 0.38092 0.0
C3486 C 0.74379 0.09936 0.37246 0.0
H3487 H 0.74916 0.0717 0.32898 0.0
H3488 H 0.75338 0.08618 0.33967 0.0
H3489 H 0.75758 0.07618 0.35021 0.0
H3490 H 0.7582 0.08391 0.38221 0.0
H3491 H 0.77217 0.1031 0.39715 0.0
H3492 H 0.99719 0.70826 0.33443 0.0
H3493 H 0.97805 0.70101 0.34899 0.0
H3494 H 0.98141 0.67238 0.37352 0.0
H3495 H 0.0007 0.6797 0.35929 0.0
H3496 H 0.95811 0.6789 0.34338 0.0
H3497 H 0.97209 0.68585 0.41678 0.0
H3498 H 0.98256 0.69267 0.3987 0.0
H3499 H 0.97705 0.67712 0.40413 0.0
C3500 C 0.99395 0.70051 0.34312 0.0
C3501 C 0.00048 0.69456 0.34572 0.0
C3502 C 0.98299 0.69638 0.3514 0.0
C3503 C 0.97836 0.68624 0.36248 0.0
C3504 C 0.98493 0.68037 0.36533 0.0
H3505 H 0.91136 0.64319 0.41589 0.0
H3506 H 0.93073 0.65095 0.40173 0.0
C3507 C 0.99594 0.68454 0.35712 0.0
C3508 C 0.96635 0.68141 0.37015 0.0
H3509 H 0.95126 0.67418 0.41008 0.0
C3510 C 0.95662 0.67794 0.35798 0.0
C3511 C 0.96444 0.68015 0.38919 0.0
C3512 C 0.9746 0.68425 0.40299 0.0
C3513 C 0.94498 0.67304 0.3643 0.0
C3514 C 0.94307 0.67171 0.38331 0.0
C3515 C 0.95278 0.67519 0.3955 0.0
C3516 C 0.93104 0.66673 0.39087 0.0
C3517 C 0.93479 0.66911 0.35061 0.0
C3518 C 0.9248 0.67302 0.38934 0.0
C3519 C 0.9137 0.66859 0.39734 0.0
C3520 C 0.90867 0.65779 0.40702 0.0
C3521 C 0.91489 0.65143 0.40827 0.0
C3522 C 0.926 0.65589 0.40033 0.0
H3523 H 0.9374 0.66825 0.33651 0.0
H3524 H 0.92706 0.66033 0.35436 0.0
H3525 H 0.93188 0.67593 0.35059 0.0
H3526 H 0.92862 0.68149 0.38229 0.0
H3527 H 0.9091 0.67367 0.3961 0.0
H3528 H 0.38739 0.04176 0.6705 0.0
H3529 H 0.40036 0.03528 0.68476 0.0
H3530 H 0.3699 0.00537 0.70863 0.0
H3531 H 0.35678 0.01177 0.69432 0.0
H3532 H 0.40336 0.03132 0.72293 0.0
H3533 H 0.38625 0.98984 0.67874 0.0
H3534 H 0.38376 0.00212 0.67313 0.0
H3535 H 0.37524 0.9918 0.69056 0.0
C3536 C 0.38342 0.03383 0.67886 0.0
C3537 C 0.37103 0.02722 0.68117 0.0
C3538 C 0.39087 0.03016 0.68701 0.0
C3539 C 0.38607 0.01977 0.69752 0.0
C3540 C 0.37375 0.01333 0.70033 0.0
H3541 H 0.41756 0.98121 0.74852 0.0
H3542 H 0.40421 0.98787 0.73638 0.0
C3543 C 0.36628 0.01703 0.69224 0.0
C3544 C 0.394 0.0156 0.70515 0.0
H3545 H 0.4007 0.99303 0.7015 0.0
C3546 C 0.40279 0.02295 0.71828 0.0
C3547 C 0.39322 0.00469 0.69901 0.0
C3548 C 0.38418 0.99666 0.68448 0.0
C3549 C 0.41076 0.01959 0.72564 0.0
C3550 C 0.41008 0.00873 0.71934 0.0
C3551 C 0.40123 0.00136 0.70626 0.0
C3552 C 0.41831 0.00473 0.72634 0.0
C3553 C 0.41965 0.02757 0.74036 0.0
C3554 C 0.43069 0.01189 0.72442 0.0
C3555 C 0.43837 0.00809 0.73133 0.0
C3556 C 0.43379 0.99698 0.74008 0.0
C3557 C 0.42138 0.98973 0.74161 0.0
C3558 C 0.41373 0.99355 0.73479 0.0
H3559 H 0.41692 0.03363 0.74707 0.0
H3560 H 0.42078 0.02209 0.75101 0.0
H3561 H 0.42842 0.03331 0.73413 0.0
H3562 H 0.43441 0.02042 0.71755 0.0
H3563 H 0.44788 0.01382 0.72977 0.0
H3564 H 0.9853 0.34835 0.68591 0.0
H3565 H 0.99096 0.36964 0.68353 0.0
H3566 H 0.95703 0.36171 0.70479 0.0
H3567 H 0.95119 0.3405 0.70683 0.0
H3568 H 0.96443 0.37823 0.67672 0.0
H3569 H 0.00047 0.39103 0.72976 0.0
H3570 H 0.00121 0.38349 0.7093 0.0
H3571 H 0.98933 0.37551 0.72485 0.0
C3572 C 0.97898 0.35111 0.68985 0.0
C3573 C 0.96785 0.34272 0.69682 0.0
C3574 C 0.98225 0.36329 0.68854 0.0
C3575 C 0.9745 0.36729 0.69431 0.0
C3576 C 0.96317 0.35883 0.70031 0.0
H3577 H 0.96456 0.42037 0.73876 0.0
H3578 H 0.96378 0.40391 0.72078 0.0
C3579 C 0.95987 0.34669 0.70154 0.0
C3580 C 0.97831 0.38031 0.69559 0.0
H3581 H 0.99579 0.40577 0.72165 0.0
C3582 C 0.97145 0.38434 0.68626 0.0
C3583 C 0.98754 0.3883 0.70795 0.0
C3584 C 0.99504 0.38441 0.71866 0.0
C3585 C 0.97308 0.39589 0.68982 0.0
C3586 C 0.98169 0.40352 0.70317 0.0
C3587 C 0.98918 0.39987 0.71141 0.0
C3588 C 0.98174 0.41427 0.71109 0.0
C3589 C 0.96523 0.39964 0.67984 0.0
C3590 C 0.99211 0.42567 0.71153 0.0
C3591 C 0.99257 0.43527 0.72171 0.0
C3592 C 0.98272 0.43356 0.7319 0.0
C3593 C 0.97224 0.42221 0.7308 0.0
C3594 C 0.97176 0.41271 0.72051 0.0
H3595 H 0.96223 0.39497 0.66623 0.0
H3596 H 0.95718 0.3971 0.68795 0.0
H3597 H 0.96993 0.40955 0.67796 0.0
H3598 H -5e-05 0.42702 0.70446 0.0
H3599 H 0.00074 0.44391 0.72202 0.0
H3600 H 0.66725 0.64415 0.69857 0.0
H3601 H 0.64875 0.63051 0.71391 0.0
H3602 H 0.63729 0.60586 0.66726 0.0
H3603 H 0.65569 0.61935 0.65185 0.0
H3604 H 0.62423 0.62147 0.69991 0.0
H3605 H 0.63497 0.58512 0.71224 0.0
H3606 H 0.64623 0.6004 0.70732 0.0
H3607 H 0.63675 0.59038 0.6892 0.0
C3608 C 0.66081 0.63581 0.6916 0.0
C3609 C 0.66296 0.6328 0.67403 0.0
C3610 C 0.65025 0.62806 0.70036 0.0
C3611 C 0.64176 0.61715 0.69176 0.0
C3612 C 0.64383 0.61417 0.6742 0.0
H3613 H 0.57475 0.55643 0.72529 0.0
H3614 H 0.59215 0.5705 0.70806 0.0
C3615 C 0.65433 0.62192 0.66541 0.0
C3616 C 0.63065 0.60889 0.70106 0.0
H3617 H 0.61556 0.58092 0.71928 0.0
C3618 C 0.62232 0.61261 0.70422 0.0
C3619 C 0.62821 0.59733 0.70649 0.0
C3620 C 0.63703 0.59305 0.7038 0.0
C3621 C 0.61148 0.60498 0.71253 0.0
C3622 C 0.60908 0.59345 0.71815 0.0
C3623 C 0.61741 0.58974 0.7149 0.0
C3624 C 0.59815 0.58523 0.72797 0.0
C3625 C 0.60262 0.60924 0.71489 0.0
C3626 C 0.5958 0.58885 0.74487 0.0
C3627 C 0.58589 0.58087 0.75468 0.0
C3628 C 0.57821 0.56905 0.74788 0.0
C3629 C 0.58055 0.56546 0.7309 0.0
C3630 C 0.59045 0.57348 0.72104 0.0
H3631 H 0.60416 0.61645 0.70517 0.0
H3632 H 0.59333 0.60168 0.71282 0.0
H3633 H 0.60359 0.61303 0.72898 0.0
H3634 H 0.60181 0.59776 0.75071 0.0
H3635 H 0.58448 0.58382 0.7679 0.0
H3636 H 0.68158 0.68509 0.66371 0.0
H3637 H 0.67397 0.69907 0.66065 0.0
H3638 H 0.70876 0.72727 0.64565 0.0
H3639 H 0.7165 0.71345 0.64862 0.0
H3640 H 0.68391 0.72616 0.67533 0.0
H3641 H 0.68349 0.71782 0.6002 0.0
H3642 H 0.68341 0.70748 0.6168 0.0
H3643 H 0.69689 0.72138 0.61296 0.0
C3644 C 0.68769 0.69433 0.66015 0.0
C3645 C 0.69962 0.69809 0.65611 0.0
C3646 C 0.68332 0.70231 0.65848 0.0
C3647 C 0.69081 0.71413 0.65282 0.0
C3648 C 0.70287 0.71815 0.65001 0.0
H3649 H 0.67939 0.76718 0.60105 0.0
H3650 H 0.68795 0.75639 0.61621 0.0
C3651 C 0.70725 0.71021 0.65165 0.0
C3652 C 0.68577 0.72177 0.64748 0.0
H3653 H 0.67849 0.7323 0.60977 0.0
C3654 C 0.68268 0.72752 0.66103 0.0
C3655 C 0.68416 0.72343 0.62882 0.0
C3656 C 0.68707 0.71716 0.61378 0.0
C3657 C 0.67826 0.73521 0.6563 0.0
C3658 C 0.67677 0.73695 0.63757 0.0
C3659 C 0.67973 0.73103 0.62411 0.0
C3660 C 0.67219 0.74486 0.63131 0.0
C3661 C 0.67551 0.7416 0.67129 0.0
C3662 C 0.66056 0.74219 0.63518 0.0
C3663 C 0.65566 0.74851 0.62671 0.0
C3664 C 0.66225 0.7575 0.61406 0.0
C3665 C 0.67408 0.76048 0.61091 0.0
C3666 C 0.67899 0.75424 0.61947 0.0
H3667 H 0.67996 0.74177 0.6845 0.0
H3668 H 0.67833 0.75102 0.66757 0.0
H3669 H 0.66575 0.73678 0.67332 0.0
H3670 H 0.65509 0.73485 0.64404 0.0
H3671 H 0.64658 0.74608 0.62963 0.0
H3672 H 0.2896 0.99735 0.65004 0.0
H3673 H 0.27497 0.97582 0.64908 0.0
H3674 H 0.30327 0.96752 0.65434 0.0
H3675 H 0.31797 0.98908 0.65587 0.0
H3676 H 0.27318 0.96037 0.623 0.0
H3677 H 0.27988 0.94411 0.68944 0.0
H3678 H 0.28598 0.95995 0.68509 0.0
H3679 H 0.29344 0.95211 0.67721 0.0
C3680 C 0.29272 0.99096 0.6513 0.0
C3681 C 0.30497 0.99495 0.65296 0.0
C3682 C 0.28433 0.97864 0.65077 0.0
C3683 C 0.28799 0.97002 0.65183 0.0
C3684 C 0.30019 0.97397 0.65397 0.0
H3685 H 0.25704 0.89571 0.61868 0.0
H3686 H 0.26964 0.91621 0.63103 0.0
C3687 C 0.3086 0.98632 0.65471 0.0
C3688 C 0.27914 0.95701 0.64878 0.0
H3689 H 0.26886 0.92891 0.66607 0.0
C3690 C 0.27213 0.95353 0.63257 0.0
C3691 C 0.27779 0.94806 0.66122 0.0
C3692 C 0.28459 0.95125 0.6793 0.0
C3693 C 0.26406 0.94136 0.62821 0.0
C3694 C 0.2629 0.93241 0.64044 0.0
C3695 C 0.26978 0.93583 0.65676 0.0
C3696 C 0.25504 0.91943 0.63581 0.0
C3697 C 0.25708 0.9381 0.61026 0.0
C3698 C 0.24262 0.91433 0.63501 0.0
C3699 C 0.23534 0.90254 0.62811 0.0
C3700 C 0.24038 0.89566 0.62183 0.0
C3701 C 0.25281 0.90064 0.6236 0.0
C3702 C 0.26006 0.91239 0.63057 0.0
H3703 H 0.26035 0.94592 0.60111 0.0
H3704 H 0.2576 0.93069 0.603 0.0
H3705 H 0.24757 0.93485 0.61296 0.0
H3706 H 0.2386 0.91961 0.63916 0.0
H3707 H 0.2258 0.89893 0.62724 0.0
H3708 H 3e-05 0.31348 0.65836 0.0
H3709 H 0.01785 0.31564 0.64376 0.0
H3710 H 0.03925 0.33562 0.69122 0.0
H3711 H 0.02154 0.3335 0.70597 0.0
H3712 H 0.04057 0.3372 0.63638 0.0
H3713 H 0.04456 0.30617 0.68477 0.0
H3714 H 0.03109 0.30692 0.68206 0.0
H3715 H 0.04358 0.3185 0.69502 0.0
C3716 C 0.00854 0.31842 0.66563 0.0
C3717 C 0.00935 0.32322 0.6834 0.0
C3718 C 0.0187 0.31966 0.65727 0.0
C3719 C 0.0298 0.32564 0.66655 0.0
C3720 C 0.03072 0.33083 0.68397 0.0
H3721 H 0.09869 0.34406 0.6207 0.0
H3722 H 0.08264 0.34504 0.63648 0.0
C3723 C 0.02059 0.32963 0.69233 0.0
C3724 C 0.04033 0.32604 0.65829 0.0
H3725 H 0.0596 0.31532 0.66303 0.0
C3726 C 0.04479 0.33248 0.64222 0.0
C3727 C 0.04569 0.31975 0.6659 0.0
C3728 C 0.04097 0.31236 0.68281 0.0
C3729 C 0.05452 0.3328 0.63353 0.0
C3730 C 0.05993 0.32659 0.64123 0.0
C3731 C 0.05547 0.32016 0.6573 0.0
C3732 C 0.0698 0.32606 0.63222 0.0
C3733 C 0.05876 0.33951 0.61594 0.0
C3734 C 0.06795 0.31502 0.62501 0.0
C3735 C 0.07704 0.31443 0.61595 0.0
C3736 C 0.08823 0.32487 0.61405 0.0
C3737 C 0.09014 0.33589 0.6217 0.0
C3738 C 0.081 0.33647 0.63072 0.0
H3739 H 0.05231 0.34197 0.6101 0.0
H3740 H 0.06737 0.34795 0.61862 0.0
H3741 H 0.06025 0.33398 0.60559 0.0
H3742 H 0.05936 0.30689 0.62605 0.0
H3743 H 0.07518 0.30584 0.60997 0.0
H3744 H 0.30911 0.31724 0.65379 0.0
H3745 H 0.29473 0.32212 0.63981 0.0
H3746 H 0.28182 0.32367 0.6932 0.0
H3747 H 0.29609 0.31889 0.70727 0.0
H3748 H 0.26901 0.30959 0.64268 0.0
H3749 H 0.29095 0.35668 0.67069 0.0
H3750 H 0.29842 0.34797 0.66981 0.0
H3751 H 0.28794 0.34542 0.68741 0.0
C3752 C 0.3032 0.31862 0.66254 0.0
C3753 C 0.3038 0.31775 0.68165 0.0
C3754 C 0.29499 0.32138 0.65453 0.0
C3755 C 0.28735 0.32341 0.66552 0.0
C3756 C 0.28778 0.32233 0.68453 0.0
H3757 H 0.22369 0.32641 0.63504 0.0
H3758 H 0.23791 0.32103 0.64803 0.0
C3759 C 0.29593 0.31955 0.69252 0.0
C3760 C 0.27889 0.32668 0.65722 0.0
H3761 H 0.27183 0.34905 0.65656 0.0
C3762 C 0.26963 0.31823 0.64563 0.0
C3763 C 0.27981 0.338 0.66101 0.0
C3764 C 0.28987 0.3476 0.67278 0.0
C3765 C 0.26111 0.32072 0.63797 0.0
C3766 C 0.26184 0.3319 0.6422 0.0
C3767 C 0.27123 0.34044 0.65352 0.0
C3768 C 0.25317 0.33512 0.63454 0.0
C3769 C 0.25151 0.31146 0.62521 0.0
C3770 C 0.25709 0.34498 0.62302 0.0
C3771 C 0.24902 0.34808 0.61561 0.0
C3772 C 0.23685 0.34142 0.61968 0.0
C3773 C 0.23297 0.33163 0.63146 0.0
C3774 C 0.24107 0.32853 0.63887 0.0
H3775 H 0.25377 0.30463 0.62013 0.0
H3776 H 0.24304 0.30666 0.63263 0.0
H3777 H 0.25001 0.31585 0.61328 0.0
H3778 H 0.26639 0.35018 0.61953 0.0
H3779 H 0.25229 0.35552 0.60633 0.0
H3780 H 0.68418 0.98841 0.67282 0.0
H3781 H 0.67626 0.96663 0.67513 0.0
H3782 H 0.70333 0.96902 0.63904 0.0
H3783 H 0.71156 0.99069 0.63736 0.0
H3784 H 0.66631 0.95014 0.65015 0.0
H3785 H 0.70497 0.94744 0.67546 0.0
H3786 H 0.70481 0.96146 0.67607 0.0
H3787 H 0.70936 0.95673 0.65581 0.0
C3788 C 0.68858 0.98431 0.6657 0.0
C3789 C 0.69854 0.9913 0.65496 0.0
C3790 C 0.68405 0.97186 0.66703 0.0
C3791 C 0.68932 0.96616 0.65756 0.0
C3792 C 0.69934 0.9732 0.64703 0.0
H3793 H 0.65987 0.90154 0.59768 0.0
H3794 H 0.66393 0.92006 0.61368 0.0
C3795 C 0.70399 0.98563 0.64594 0.0
C3796 C 0.68373 0.95279 0.65695 0.0
H3797 H 0.69085 0.9305 0.65542 0.0
C3798 C 0.67162 0.94581 0.65176 0.0
C3799 C 0.69046 0.94696 0.65962 0.0
C3800 C 0.70307 0.95356 0.66727 0.0
C3801 C 0.66639 0.93341 0.64758 0.0
C3802 C 0.67356 0.92795 0.64789 0.0
C3803 C 0.68536 0.93468 0.6547 0.0
C3804 C 0.66954 0.91586 0.63928 0.0
C3805 C 0.65327 0.9264 0.64253 0.0
C3806 C 0.6715 0.90729 0.64815 0.0
C3807 C 0.66941 0.89674 0.6388 0.0
C3808 C 0.66523 0.89453 0.62049 0.0
C3809 C 0.66282 0.90286 0.61192 0.0
C3810 C 0.66509 0.91345 0.62113 0.0
H3811 H 0.64834 0.92997 0.6503 0.0
H3812 H 0.652 0.92746 0.62777 0.0
H3813 H 0.64932 0.91664 0.64528 0.0
H3814 H 0.67501 0.90896 0.6621 0.0
H3815 H 0.67136 0.89048 0.6457 0.0
H3816 H 0.02202 0.70314 0.70337 0.0
H3817 H 0.04072 0.71532 0.68786 0.0
H3818 H 0.02131 0.71661 0.6403 0.0
H3819 H 0.00247 0.70451 0.65583 0.0
H3820 H 0.04802 0.71003 0.65495 0.0
H3821 H 0.04598 0.75232 0.65104 0.0
H3822 H 0.03658 0.74017 0.66578 0.0
H3823 H 0.03313 0.73903 0.64167 0.0
C3824 C 0.02169 0.70603 0.68962 0.0
C3825 C 0.01075 0.7029 0.68085 0.0
C3826 C 0.0324 0.71299 0.68079 0.0
C3827 C 0.0324 0.71701 0.66306 0.0
C3828 C 0.0215 0.7138 0.65414 0.0
H3829 H 0.08875 0.75772 0.58758 0.0
H3830 H 0.06979 0.74664 0.60297 0.0
C3831 C 0.01076 0.70682 0.66298 0.0
C3832 C 0.04383 0.72431 0.65384 0.0
H3833 H 0.06184 0.75196 0.63592 0.0
C3834 C 0.05106 0.71921 0.65082 0.0
C3835 C 0.04775 0.73627 0.64848 0.0
C3836 C 0.04052 0.74235 0.65202 0.0
C3837 C 0.06208 0.72571 0.64239 0.0
C3838 C 0.06603 0.7377 0.63714 0.0
C3839 C 0.05877 0.74278 0.64004 0.0
C3840 C 0.07762 0.74502 0.62835 0.0
C3841 C 0.06928 0.71961 0.63885 0.0
C3842 C 0.08832 0.74804 0.63772 0.0
C3843 C 0.0992 0.75444 0.62901 0.0
C3844 C 0.09955 0.75799 0.61081 0.0
C3845 C 0.08882 0.75526 0.60168 0.0
C3846 C 0.07796 0.74887 0.6104 0.0
H3847 H 0.06378 0.70963 0.63963 0.0
H3848 H 0.07334 0.72188 0.62517 0.0
H3849 H 0.0766 0.72281 0.64933 0.0
H3850 H 0.08825 0.74536 0.65173 0.0
H3851 H 0.10732 0.75656 0.63649 0.0
H3852 H 0.98987 0.65815 0.69117 0.0
H3853 H 0.99631 0.64312 0.68952 0.0
H3854 H 0.96096 0.61524 0.70302 0.0
H3855 H 0.95443 0.63004 0.70449 0.0
H3856 H 0.99623 0.62996 0.71856 0.0
H3857 H 0.96877 0.59877 0.66218 0.0
H3858 H 0.97092 0.6138 0.66487 0.0
H3859 H 0.95969 0.60151 0.67755 0.0
C3860 C 0.98341 0.64877 0.69342 0.0
C3861 C 0.97164 0.64531 0.69806 0.0
C3862 C 0.98711 0.64021 0.69245 0.0
C3863 C 0.97907 0.62803 0.69584 0.0
C3864 C 0.96724 0.62452 0.69987 0.0
H3865 H 0.96877 0.56633 0.74173 0.0
H3866 H 0.96908 0.58248 0.72435 0.0
C3867 C 0.96356 0.63304 0.70091 0.0
C3868 C 0.9832 0.61918 0.69755 0.0
H3869 H 0.97481 0.58992 0.68659 0.0
C3870 C 0.99184 0.62133 0.71119 0.0
C3871 C 0.97753 0.60797 0.68781 0.0
C3872 C 0.96881 0.60543 0.67215 0.0
C3873 C 0.99408 0.61216 0.71659 0.0
C3874 C 0.9876 0.60061 0.70794 0.0
C3875 C 0.97971 0.59877 0.69326 0.0
C3876 C 0.98731 0.58995 0.71604 0.0
C3877 C 0.00262 0.61458 0.7325 0.0
C3878 C 0.9974 0.58859 0.71671 0.0
C3879 C 0.99724 0.5792 0.72658 0.0
C3880 C 0.98697 0.57105 0.73591 0.0
C3881 C 0.97676 0.57223 0.73447 0.0
C3882 C 0.97693 0.58153 0.7246 0.0
H3883 H 0.00611 0.62374 0.73877 0.0
H3884 H 0.99815 0.6078 0.74321 0.0
H3885 H 0.01028 0.61378 0.72775 0.0
H3886 H 0.00547 0.59495 0.71002 0.0
H3887 H 0.0052 0.57847 0.7272 0.0
H3888 H 0.35517 0.34985 0.67739 0.0
H3889 H 0.3677 0.37182 0.67546 0.0
H3890 H 0.3931 0.37121 0.71368 0.0
H3891 H 0.381 0.34938 0.715 0.0
H3892 H 0.37312 0.38828 0.70017 0.0
H3893 H 0.41563 0.39336 0.678 0.0
H3894 H 0.40205 0.37892 0.67702 0.0
H3895 H 0.41113 0.3842 0.69779 0.0
C3896 C 0.36355 0.3544 0.6851 0.0
C3897 C 0.36711 0.34785 0.69627 0.0
C3898 C 0.3707 0.36695 0.68399 0.0
C3899 C 0.38151 0.3732 0.69411 0.0
C3900 C 0.38506 0.36662 0.70518 0.0
H3901 H 0.41273 0.43967 0.75097 0.0
H3902 H 0.39966 0.42006 0.73635 0.0
C3903 C 0.37805 0.3541 0.70606 0.0
C3904 C 0.38855 0.38663 0.69465 0.0
H3905 H 0.41717 0.41013 0.69681 0.0
C3906 C 0.38273 0.39308 0.69901 0.0
C3907 C 0.40105 0.39305 0.69258 0.0
C3908 C 0.40777 0.387 0.68586 0.0
C3909 C 0.38916 0.40557 0.70282 0.0
C3910 C 0.40177 0.41169 0.70301 0.0
C3911 C 0.40752 0.40544 0.69714 0.0
C3912 C 0.40916 0.42413 0.71095 0.0
C3913 C 0.38231 0.41198 0.70686 0.0
C3914 C 0.41912 0.43295 0.70181 0.0
C3915 C 0.4268 0.44416 0.71039 0.0
C3916 C 0.42459 0.44677 0.72817 0.0
C3917 C 0.41449 0.43804 0.73708 0.0
C3918 C 0.40696 0.42682 0.72867 0.0
H3919 H 0.37372 0.40773 0.69895 0.0
H3920 H 0.38019 0.41119 0.7216 0.0
H3921 H 0.38747 0.42169 0.70354 0.0
H3922 H 0.42109 0.43107 0.6882 0.0
H3923 H 0.43456 0.45072 0.70325 0.0
H3924 H 0.66952 0.02371 0.694 0.0
H3925 H 0.65121 0.01972 0.70911 0.0
H3926 H 0.63035 0.99823 0.66221 0.0
H3927 H 0.64852 0.00203 0.64709 0.0
H3928 H 0.63373 0.02525 0.69611 0.0
H3929 H 0.61466 0.97603 0.70547 0.0
H3930 H 0.63013 0.98594 0.70039 0.0
H3931 H 0.61886 0.98083 0.68247 0.0
C3932 C 0.66103 0.01805 0.68696 0.0
C3933 C 0.66047 0.01314 0.66937 0.0
C3934 C 0.65059 0.01582 0.69559 0.0
C3935 C 0.63944 0.00857 0.68685 0.0
C3936 C 0.63886 0.00367 0.66931 0.0
H3937 H 0.56617 0.98406 0.71516 0.0
H3938 H 0.58447 0.98897 0.69923 0.0
C3939 C 0.64927 0.0059 0.66067 0.0
C3940 C 0.62841 0.00638 0.69581 0.0
H3941 H 0.60205 0.98405 0.71167 0.0
C3942 C 0.62681 0.01626 0.69961 0.0
C3943 C 0.61941 0.99462 0.70026 0.0
C3944 C 0.62085 0.98374 0.6971 0.0
C3945 C 0.61634 0.01467 0.70749 0.0
C3946 C 0.60734 0.00291 0.71194 0.0
C3947 C 0.60894 0.99304 0.70814 0.0
C3948 C 0.59631 0.00065 0.72104 0.0
C3949 C 0.6149 0.02555 0.71066 0.0
C3950 C 0.59693 0.0056 0.73855 0.0
C3951 C 0.58652 0.0028 0.74769 0.0
C3952 C 0.57527 0.99491 0.73953 0.0
C3953 C 0.57469 0.99009 0.72186 0.0
C3954 C 0.58512 0.99292 0.71272 0.0
H3955 H 0.62095 0.0332 0.70207 0.0
H3956 H 0.60558 0.02331 0.70767 0.0
H3957 H 0.61709 0.02859 0.72522 0.0
H3958 H 0.60547 0.01136 0.74539 0.0
H3959 H 0.58729 0.00646 0.76143 0.0
loop_
_geom_bond_atom_site_label_1
_geom_bond_atom_site_label_2
_geom_bond_distance
_geom_bond_site_symmetry_2
_ccdc_geom_bond_type
Mg0 O1 2.028 1_556 S
Mg0 O7 1.986 1_456 S
Mg0 O9 2.114 . S
Mg0 O10 2.251 1_455 S
Mg0 O13 2.010 1_556 S
O1 Mg0 2.028 1_554 S
O1 C4 1.250 1_455 S
O2 Mg3 2.028 1_554 S
O2 C4 1.248 . S
Mg3 O2 2.028 1_556 S
Mg3 O8 2.032 . S
Mg3 O10 2.079 . S
C4 O1 1.250 1_655 S
C4 O2 1.248 . S
C5 O6 1.264 . S
C5 O13 1.249 . S
O6 C5 1.264 . S
O7 Mg0 1.986 1_654 S
O7 C11 1.246 1_554 S
O8 Mg3 2.032 . S
O8 C11 1.259 . S
O9 Mg0 2.114 . S
O9 C12 1.252 . S
O10 Mg0 2.251 1_655 S
O10 Mg3 2.079 . S
O10 C12 1.273 1_655 S
C11 O7 1.246 1_556 S
C11 O8 1.259 . S
C12 O9 1.252 . S
C12 O10 1.273 1_455 S
O13 Mg0 2.010 1_554 S
O13 C5 1.249 . S
Mg14 O15 2.028 1_554 S
Mg14 O21 1.986 . S
Mg14 O23 2.114 . S
Mg14 O24 2.251 . S
Mg14 O27 2.010 . S
O15 Mg14 2.028 1_556 S
O15 C18 1.250 . S
O16 Mg17 2.085 . S
O16 C18 1.215 1_554 S
Mg17 O16 2.085 . S
Mg17 O22 2.032 . S
Mg17 O24 2.079 . S
C18 O15 1.250 . S
C18 O16 1.215 1_556 S
C19 O20 1.264 . S
C19 O27 1.249 . S
O20 C19 1.264 . S
O21 Mg14 1.986 . S
O21 C25 1.246 . S
O22 Mg17 2.032 . S
O22 C25 1.259 . S
O23 Mg14 2.114 . S
O23 C26 1.252 . S
O24 Mg14 2.251 . S
O24 Mg17 2.079 . S
O24 C26 1.273 . S
C25 O21 1.246 . S
C25 O22 1.259 . S
C26 O23 1.252 . S
C26 O24 1.273 . S
O27 Mg14 2.010 . S
O27 C19 1.249 . S
Mg28 O29 2.022 1_556 S
Mg28 O35 1.986 1_566 S
Mg28 O37 2.113 . S
Mg28 O38 2.250 1_565 S
Mg28 O41 2.011 1_556 S
O29 Mg28 2.022 1_554 S
O29 C32 1.242 1_565 S
O30 Mg31 2.028 1_554 S
O30 C32 1.248 . S
Mg31 O30 2.028 1_556 S
Mg31 O36 2.032 . S
Mg31 O38 2.079 . S
C32 O29 1.242 1_545 S
C32 O30 1.248 . S
C33 O34 1.298 . S
C33 O41 1.249 . S
O34 C33 1.298 . S
O35 Mg28 1.986 1_544 S
O35 C39 1.251 . S
O36 Mg31 2.032 . S
O36 C39 1.258 1_556 S
O37 Mg28 2.113 . S
O37 C40 1.252 . S
O38 Mg28 2.250 1_545 S
O38 Mg31 2.079 . S
O38 C40 1.273 1_545 S
C39 O35 1.251 . S
C39 O36 1.258 1_554 S
C40 O37 1.252 . S
C40 O38 1.273 1_565 S
O41 Mg28 2.011 1_554 S
O41 C33 1.249 . S
Mg42 O43 2.058 1_554 S
Mg42 O49 1.986 1_655 S
Mg42 O51 2.114 . S
Mg42 O52 2.251 1_655 S
Mg42 O55 2.010 . S
O43 Mg42 2.058 1_556 S
O43 C46 1.169 1_655 S
O44 Mg45 2.028 . S
O44 C46 1.248 1_554 S
Mg45 O44 2.028 . S
Mg45 O50 2.032 . S
Mg45 O52 2.079 . S
C46 O43 1.169 1_455 S
C46 O44 1.248 1_556 S
C47 O48 1.264 . S
C47 O55 1.249 . S
O48 C47 1.264 . S
O49 Mg42 1.986 1_455 S
O49 C53 1.246 . S
O50 Mg45 2.032 . S
O50 C53 1.259 . S
O51 Mg42 2.114 . S
O51 C54 1.252 . S
O52 Mg42 2.251 1_455 S
O52 Mg45 2.079 . S
O52 C54 1.273 1_455 S
C53 O49 1.246 . S
C53 O50 1.259 . S
C54 O51 1.252 . S
C54 O52 1.273 1_655 S
O55 Mg42 2.010 . S
O55 C47 1.249 . S
Mg56 O57 2.028 . S
Mg56 O63 1.986 . S
Mg56 O65 2.114 1_554 S
Mg56 O66 2.251 1_554 S
Mg56 O69 2.010 . S
O57 Mg56 2.028 . S
O57 C60 1.250 . S
O58 Mg59 2.028 1_554 S
O58 C60 1.248 . S
Mg59 O58 2.028 1_556 S
Mg59 O64 2.033 . S
Mg59 O66 2.079 . S
C60 O57 1.250 . S
C60 O58 1.248 . S
C61 O62 1.264 . S
C61 O69 1.249 . S
O62 C61 1.264 . S
O63 Mg56 1.986 . S
O63 C67 1.255 . S
O64 Mg59 2.033 . S
O64 C67 1.256 1_556 S
O65 Mg56 2.114 1_556 S
O65 C68 1.252 . S
O66 Mg56 2.251 1_556 S
O66 Mg59 2.079 . S
O66 C68 1.273 . S
C67 O63 1.255 . S
C67 O64 1.256 1_554 S
C68 O65 1.252 . S
C68 O66 1.273 . S
O69 Mg56 2.010 . S
O69 C61 1.249 . S
Mg70 O71 2.075 . S
Mg70 O77 1.986 1_545 S
Mg70 O79 2.114 . S
Mg70 O80 2.251 1_545 S
Mg70 O83 2.010 . S
O71 Mg70 2.075 . S
O71 C74 1.234 1_544 S
O72 Mg73 2.028 . S
O72 C74 1.248 1_554 S
Mg73 O72 2.028 . S
Mg73 O78 2.032 . S
Mg73 O80 2.079 . S
C74 O71 1.234 1_566 S
C74 O72 1.248 1_556 S
C75 O76 1.264 . S
C75 O83 1.249 . S
O76 C75 1.264 . S
O77 Mg70 1.986 1_565 S
O77 C81 1.246 . S
O78 Mg73 2.032 . S
O78 C81 1.259 . S
O79 Mg70 2.114 . S
O79 C82 1.252 . S
O80 Mg70 2.251 1_565 S
O80 Mg73 2.079 . S
O80 C82 1.273 1_565 S
C81 O77 1.246 . S
C81 O78 1.259 . S
C82 O79 1.252 . S
C82 O80 1.273 1_545 S
O83 Mg70 2.010 . S
O83 C75 1.249 . S
Mg84 O85 2.028 . S
Mg84 O91 1.986 . S
Mg84 O93 2.114 . S
Mg84 O94 2.251 . S
Mg84 O97 2.010 . S
O85 Mg84 2.028 . S
O85 C88 1.250 . S
O86 Mg87 2.028 . S
O86 C88 1.248 . S
Mg87 O86 2.028 . S
Mg87 O92 2.032 . S
Mg87 O94 2.079 . S
C88 O85 1.250 . S
C88 O86 1.248 . S
C89 O90 1.264 . S
C89 O97 1.249 . S
O90 C89 1.264 . S
O91 Mg84 1.986 . S
O91 C95 1.246 . S
O92 Mg87 2.032 . S
O92 C95 1.259 . S
O93 Mg84 2.114 . S
O93 C96 1.252 . S
O94 Mg84 2.251 . S
O94 Mg87 2.079 . S
O94 C96 1.273 . S
C95 O91 1.246 . S
C95 O92 1.259 . S
C96 O93 1.252 . S
C96 O94 1.273 . S
O97 Mg84 2.010 . S
O97 C89 1.249 . S
Mg98 O99 2.028 . S
Mg98 O105 1.986 . S
Mg98 O107 2.114 . S
Mg98 O108 2.251 . S
Mg98 O111 2.010 . S
O99 Mg98 2.028 . S
O99 C102 1.250 . S
O100 Mg101 2.028 . S
O100 C102 1.248 . S
Mg101 O100 2.028 . S
Mg101 O106 2.032 . S
Mg101 O108 2.079 . S
C102 O99 1.250 . S
C102 O100 1.248 . S
C103 O104 1.264 . S
C103 O111 1.249 . S
O104 C103 1.264 . S
O105 Mg98 1.986 . S
O105 C109 1.246 . S
O106 Mg101 2.032 . S
O106 C109 1.259 . S
O107 Mg98 2.114 . S
O107 C110 1.252 . S
O108 Mg98 2.251 . S
O108 Mg101 2.079 . S
O108 C110 1.273 . S
C109 O105 1.246 . S
C109 O106 1.259 . S
C110 O107 1.252 . S
C110 O108 1.273 . S
O111 Mg98 2.010 . S
O111 C103 1.249 . S
Mg112 O113 2.028 . S
Mg112 O119 1.986 . S
Mg112 O121 2.114 . S
Mg112 O122 2.251 . S
Mg112 O125 2.010 . S
O113 Mg112 2.028 . S
O113 C116 1.250 . S
O114 Mg115 2.028 . S
O114 C116 1.248 . S
Mg115 O114 2.028 . S
Mg115 O120 2.032 . S
Mg115 O122 2.079 . S
C116 O113 1.250 . S
C116 O114 1.248 . S
C117 O118 1.264 . S
C117 O125 1.249 1_655 S
O118 C117 1.264 . S
O119 Mg112 1.986 . S
O119 C123 1.246 . S
O120 Mg115 2.032 . S
O120 C123 1.259 . S
O121 Mg112 2.114 . S
O121 C124 1.252 . S
O122 Mg112 2.251 . S
O122 Mg115 2.079 . S
O122 C124 1.273 . S
C123 O119 1.246 . S
C123 O120 1.259 . S
C124 O121 1.252 . S
C124 O122 1.273 . S
O125 Mg112 2.010 . S
O125 C117 1.249 1_455 S
Mg126 O127 2.028 . S
Mg126 O133 1.986 . S
Mg126 O135 2.114 . S
Mg126 O136 2.251 . S
Mg126 O139 2.010 . S
O127 Mg126 2.028 . S
O127 C130 1.250 . S
O128 Mg129 2.028 . S
O128 C130 1.248 . S
Mg129 O128 2.028 . S
Mg129 O134 2.032 . S
Mg129 O136 2.079 . S
C130 O127 1.250 . S
C130 O128 1.248 . S
C131 O132 1.264 . S
C131 O139 1.249 . S
O132 C131 1.264 . S
O133 Mg126 1.986 . S
O133 C137 1.246 . S
O134 Mg129 2.032 . S
O134 C137 1.259 . S
O135 Mg126 2.114 . S
O135 C138 1.252 . S
O136 Mg126 2.251 . S
O136 Mg129 2.079 . S
O136 C138 1.273 . S
C137 O133 1.246 . S
C137 O134 1.259 . S
C138 O135 1.252 . S
C138 O136 1.273 . S
O139 Mg126 2.010 . S
O139 C131 1.249 . S
Mg140 O141 2.028 . S
Mg140 O147 1.986 . S
Mg140 O149 2.114 . S
Mg140 O150 2.251 . S
Mg140 O153 2.010 . S
O141 Mg140 2.028 . S
O141 C144 1.250 . S
O142 Mg143 2.028 . S
O142 C144 1.248 . S
Mg143 O142 2.028 . S
Mg143 O148 2.032 . S
Mg143 O150 2.079 . S
C144 O141 1.250 . S
C144 O142 1.248 . S
C145 O146 1.264 . S
C145 O153 1.249 1_655 S
O146 C145 1.264 . S
O147 Mg140 1.986 . S
O147 C151 1.246 . S
O148 Mg143 2.032 . S
O148 C151 1.259 . S
O149 Mg140 2.114 . S
O149 C152 1.252 . S
O150 Mg140 2.251 . S
O150 Mg143 2.079 . S
O150 C152 1.273 . S
C151 O147 1.246 . S
C151 O148 1.259 . S
C152 O149 1.252 . S
C152 O150 1.273 . S
O153 Mg140 2.010 . S
O153 C145 1.249 1_455 S
Mg154 O155 2.028 . S
Mg154 O161 1.986 . S
Mg154 O163 2.114 . S
Mg154 O164 2.251 . S
Mg154 O167 2.010 . S
O155 Mg154 2.028 . S
O155 C158 1.250 . S
O156 Mg157 2.028 . S
O156 C158 1.248 . S
Mg157 O156 2.028 . S
Mg157 O162 2.032 . S
Mg157 O164 2.079 . S
C158 O155 1.250 . S
C158 O156 1.248 . S
C159 O160 1.264 . S
C159 O167 1.249 . S
O160 C159 1.264 . S
O161 Mg154 1.986 . S
O161 C165 1.246 . S
O162 Mg157 2.032 . S
O162 C165 1.259 . S
O163 Mg154 2.114 . S
O163 C166 1.252 . S
O164 Mg154 2.251 . S
O164 Mg157 2.079 . S
O164 C166 1.273 . S
C165 O161 1.246 . S
C165 O162 1.259 . S
C166 O163 1.252 . S
C166 O164 1.273 . S
O167 Mg154 2.010 . S
O167 C159 1.249 . S
Mg168 O169 2.028 . S
Mg168 O175 1.986 . S
Mg168 O177 2.114 . S
Mg168 O178 2.251 . S
Mg168 O181 2.010 . S
O169 Mg168 2.028 . S
O169 C172 1.250 . S
O170 Mg171 2.028 . S
O170 C172 1.248 . S
Mg171 O170 2.028 . S
Mg171 O176 2.032 . S
Mg171 O178 2.079 . S
C172 O169 1.250 . S
C172 O170 1.248 . S
C173 O174 1.264 . S
C173 O181 1.249 . S
O174 C173 1.264 . S
O175 Mg168 1.986 . S
O175 C179 1.246 . S
O176 Mg171 2.032 . S
O176 C179 1.259 . S
O177 Mg168 2.114 . S
O177 C180 1.252 . S
O178 Mg168 2.251 . S
O178 Mg171 2.079 . S
O178 C180 1.273 . S
C179 O175 1.246 . S
C179 O176 1.259 . S
C180 O177 1.252 . S
C180 O178 1.273 . S
O181 Mg168 2.010 . S
O181 C173 1.249 . S
Mg182 O183 2.028 . S
Mg182 O189 1.986 . S
Mg182 O191 2.114 . S
Mg182 O192 2.251 . S
Mg182 O195 2.010 . S
O183 Mg182 2.028 . S
O183 C186 1.250 . S
O184 Mg185 2.028 . S
O184 C186 1.248 . S
Mg185 O184 2.028 . S
Mg185 O190 2.032 . S
Mg185 O192 2.079 . S
C186 O183 1.250 . S
C186 O184 1.248 . S
C187 O188 1.264 . S
C187 O195 1.249 1_455 S
O188 C187 1.264 . S
O189 Mg182 1.986 . S
O189 C193 1.246 . S
O190 Mg185 2.032 . S
O190 C193 1.259 . S
O191 Mg182 2.114 . S
O191 C194 1.252 . S
O192 Mg182 2.251 . S
O192 Mg185 2.079 . S
O192 C194 1.273 . S
C193 O189 1.246 . S
C193 O190 1.259 . S
C194 O191 1.252 . S
C194 O192 1.273 . S
O195 Mg182 2.010 . S
O195 C187 1.249 1_655 S
Mg196 O197 2.028 . S
Mg196 O203 1.986 . S
Mg196 O205 2.114 . S
Mg196 O206 2.251 . S
Mg196 O209 2.010 . S
O197 Mg196 2.028 . S
O197 C200 1.250 . S
O198 Mg199 2.028 . S
O198 C200 1.248 . S
Mg199 O198 2.028 . S
Mg199 O204 2.032 . S
Mg199 O206 2.079 . S
C200 O197 1.250 . S
C200 O198 1.248 . S
C201 O202 1.264 . S
C201 O209 1.249 . S
O202 C201 1.264 . S
O203 Mg196 1.986 . S
O203 C207 1.246 . S
O204 Mg199 2.032 . S
O204 C207 1.259 . S
O205 Mg196 2.114 . S
O205 C208 1.252 . S
O206 Mg196 2.251 . S
O206 Mg199 2.079 . S
O206 C208 1.273 . S
C207 O203 1.246 . S
C207 O204 1.259 . S
C208 O205 1.252 . S
C208 O206 1.273 . S
O209 Mg196 2.010 . S
O209 C201 1.249 . S
Mg210 O211 2.028 . S
Mg210 O217 1.986 . S
Mg210 O219 2.114 . S
Mg210 O220 2.251 . S
Mg210 O223 2.010 . S
O211 Mg210 2.028 . S
O211 C214 1.250 . S
O212 Mg213 2.028 . S
O212 C214 1.248 . S
Mg213 O212 2.028 . S
Mg213 O218 2.032 . S
Mg213 O220 2.079 . S
C214 O211 1.250 . S
C214 O212 1.248 . S
C215 O216 1.264 . S
C215 O223 1.249 . S
O216 C215 1.264 . S
O217 Mg210 1.986 . S
O217 C221 1.246 . S
O218 Mg213 2.032 . S
O218 C221 1.259 . S
O219 Mg210 2.114 . S
O219 C222 1.252 . S
O220 Mg210 2.251 . S
O220 Mg213 2.079 . S
O220 C222 1.273 . S
C221 O217 1.246 . S
C221 O218 1.259 . S
C222 O219 1.252 . S
C222 O220 1.273 . S
O223 Mg210 2.010 . S
O223 C215 1.249 . S
Mg224 O225 2.028 . S
Mg224 O231 1.986 . S
Mg224 O233 2.114 . S
Mg224 O234 2.251 . S
Mg224 O237 2.010 . S
O225 Mg224 2.028 . S
O225 C228 1.250 . S
O226 Mg227 2.028 . S
O226 C228 1.248 . S
Mg227 O226 2.028 . S
Mg227 O232 2.032 . S
Mg227 O234 2.079 . S
C228 O225 1.250 . S
C228 O226 1.248 . S
C229 O230 1.264 . S
C229 O237 1.249 . S
O230 C229 1.264 . S
O231 Mg224 1.986 . S
O231 C235 1.246 . S
O232 Mg227 2.032 . S
O232 C235 1.259 . S
O233 Mg224 2.114 . S
O233 C236 1.252 . S
O234 Mg224 2.251 . S
O234 Mg227 2.079 . S
O234 C236 1.273 . S
C235 O231 1.246 . S
C235 O232 1.259 . S
C236 O233 1.252 . S
C236 O234 1.273 . S
O237 Mg224 2.010 . S
O237 C229 1.249 . S
Mg238 O239 2.028 . S
Mg238 O245 1.986 . S
Mg238 O247 2.114 . S
Mg238 O248 2.251 . S
Mg238 O251 2.010 . S
O239 Mg238 2.028 . S
O239 C242 1.250 . S
O240 Mg241 2.028 . S
O240 C242 1.248 . S
Mg241 O240 2.028 . S
Mg241 O246 2.032 . S
Mg241 O248 2.079 . S
C242 O239 1.250 . S
C242 O240 1.248 . S
C243 O244 1.264 . S
C243 O251 1.249 1_455 S
O244 C243 1.264 . S
O245 Mg238 1.986 . S
O245 C249 1.246 . S
O246 Mg241 2.032 . S
O246 C249 1.259 . S
O247 Mg238 2.114 . S
O247 C250 1.252 . S
O248 Mg238 2.251 . S
O248 Mg241 2.079 . S
O248 C250 1.273 . S
C249 O245 1.246 . S
C249 O246 1.259 . S
C250 O247 1.252 . S
C250 O248 1.273 . S
O251 Mg238 2.010 . S
O251 C243 1.249 1_655 S
H252 C279 0.929 . S
N253 C278 1.433 . S
N253 C284 1.435 . S
N253 C290 1.423 . S
H254 C280 0.930 . S
H255 C283 0.931 . S
H256 C282 0.929 . S
H257 C285 0.930 . S
H258 C286 0.932 . S
H259 C289 0.929 . S
H260 C288 0.931 . S
H261 C291 0.929 . S
H262 C295 0.932 . S
H263 C292 0.931 . S
H264 C294 0.929 . S
H265 C297 0.929 . S
H266 C298 0.930 . S
H267 C300 0.929 . S
H268 C301 0.931 . S
H269 C303 0.930 . S
H270 C304 0.932 . S
H271 C306 0.931 . S
H272 C307 0.929 . S
H273 C309 0.929 . S
H274 C310 0.931 . S
H275 C312 0.929 . S
N276 C296 1.433 . S
N276 C302 1.435 . S
N276 C308 1.423 . S
H277 C313 0.932 . S
C278 N253 1.433 . S
C278 C279 1.363 . S
C278 C283 1.370 . S
C279 H252 0.929 . S
C279 C278 1.363 . S
C279 C280 1.385 . S
C280 H254 0.930 . S
C280 C279 1.385 . S
C280 C281 1.357 . S
C281 C280 1.357 . S
C281 C282 1.406 . S
C282 H256 0.929 . S
C282 C281 1.406 . S
C282 C283 1.391 . S
C283 H255 0.931 . S
C283 C278 1.370 . S
C283 C282 1.391 . S
C284 N253 1.435 . S
C284 C285 1.358 . S
C284 C289 1.371 . S
C285 H257 0.930 . S
C285 C284 1.358 . S
C285 C286 1.405 . S
C286 H258 0.932 . S
C286 C285 1.405 . S
C286 C287 1.383 . S
C287 C286 1.383 . S
C287 C288 1.393 . S
C288 H260 0.931 . S
C288 C287 1.393 . S
C288 C289 1.382 . S
C289 H259 0.929 . S
C289 C284 1.371 . S
C289 C288 1.382 . S
C290 N253 1.423 . S
C290 C291 1.362 . S
C290 C295 1.388 . S
C291 H261 0.929 . S
C291 C290 1.362 . S
C291 C292 1.376 . S
C292 H263 0.931 . S
C292 C291 1.376 . S
C292 C293 1.396 . S
C293 C292 1.396 . S
C293 C294 1.348 . S
C293 C311 1.472 . S
C294 H264 0.929 . S
C294 C293 1.348 . S
C294 C295 1.443 . S
C295 H262 0.932 . S
C295 C290 1.388 . S
C295 C294 1.443 . S
C296 N276 1.433 . S
C296 C297 1.363 . S
C296 C301 1.370 . S
C297 H265 0.929 . S
C297 C296 1.363 . S
C297 C298 1.385 . S
C298 H266 0.930 . S
C298 C297 1.385 . S
C298 C299 1.357 . S
C299 C298 1.357 . S
C299 C300 1.406 . S
C300 H267 0.929 . S
C300 C299 1.406 . S
C300 C301 1.391 . S
C301 H268 0.931 . S
C301 C296 1.370 . S
C301 C300 1.391 . S
C302 N276 1.435 . S
C302 C303 1.358 . S
C302 C307 1.371 . S
C303 H269 0.930 . S
C303 C302 1.358 . S
C303 C304 1.405 . S
C304 H270 0.932 . S
C304 C303 1.405 . S
C304 C305 1.383 . S
C305 C304 1.383 . S
C305 C306 1.393 . S
C306 H271 0.931 . S
C306 C305 1.393 . S
C306 C307 1.382 . S
C307 H272 0.929 . S
C307 C302 1.371 . S
C307 C306 1.382 . S
C308 N276 1.423 . S
C308 C309 1.362 . S
C308 C313 1.388 . S
C309 H273 0.929 . S
C309 C308 1.362 . S
C309 C310 1.376 . S
C310 H274 0.931 . S
C310 C309 1.376 . S
C310 C311 1.396 . S
C311 C293 1.472 . S
C311 C310 1.396 . S
C311 C312 1.348 . S
C312 H275 0.929 . S
C312 C311 1.348 . S
C312 C313 1.443 . S
C313 H277 0.932 . S
C313 C308 1.388 . S
C313 C312 1.443 . S
H314 C341 0.929 . S
N315 C340 1.433 . S
N315 C346 1.435 . S
N315 C352 1.423 . S
H316 C342 0.930 . S
H317 C345 0.931 . S
H318 C344 0.929 . S
H319 C347 0.930 . S
H320 C348 0.932 . S
H321 C351 0.929 . S
H322 C350 0.931 . S
H323 C353 0.929 . S
H324 C357 0.932 . S
H325 C354 0.931 . S
H326 C356 0.929 . S
H327 C359 0.929 . S
H328 C360 0.930 . S
H329 C362 0.929 . S
H330 C363 0.931 . S
H331 C365 0.930 . S
H332 C366 0.932 . S
H333 C368 0.931 . S
H334 C369 0.929 . S
H335 C371 0.929 . S
H336 C372 0.931 . S
H337 C374 0.929 . S
N338 C358 1.433 . S
N338 C364 1.435 . S
N338 C370 1.423 . S
H339 C375 0.932 . S
C340 N315 1.433 . S
C340 C341 1.363 . S
C340 C345 1.370 . S
C341 H314 0.929 . S
C341 C340 1.363 . S
C341 C342 1.385 . S
C342 H316 0.930 . S
C342 C341 1.385 . S
C342 C343 1.357 . S
C343 C342 1.357 . S
C343 C344 1.406 . S
C344 H318 0.929 . S
C344 C343 1.406 . S
C344 C345 1.391 . S
C345 H317 0.931 . S
C345 C340 1.370 . S
C345 C344 1.391 . S
C346 N315 1.435 . S
C346 C347 1.358 . S
C346 C351 1.371 . S
C347 H319 0.930 . S
C347 C346 1.358 . S
C347 C348 1.405 . S
C348 H320 0.932 . S
C348 C347 1.405 . S
C348 C349 1.383 . S
C349 C348 1.383 . S
C349 C350 1.393 . S
C350 H322 0.931 . S
C350 C349 1.393 . S
C350 C351 1.382 . S
C351 H321 0.929 . S
C351 C346 1.371 . S
C351 C350 1.382 . S
C352 N315 1.423 . S
C352 C353 1.362 . S
C352 C357 1.388 . S
C353 H323 0.929 . S
C353 C352 1.362 . S
C353 C354 1.376 . S
C354 H325 0.931 . S
C354 C353 1.376 . S
C354 C355 1.396 . S
C355 C354 1.396 . S
C355 C356 1.348 . S
C355 C373 1.472 . S
C356 H326 0.929 . S
C356 C355 1.348 . S
C356 C357 1.443 . S
C357 H324 0.932 . S
C357 C352 1.388 . S
C357 C356 1.443 . S
C358 N338 1.433 . S
C358 C359 1.363 . S
C358 C363 1.370 . S
C359 H327 0.929 . S
C359 C358 1.363 . S
C359 C360 1.385 . S
C360 H328 0.930 . S
C360 C359 1.385 . S
C360 C361 1.357 . S
C361 C360 1.357 . S
C361 C362 1.406 . S
C362 H329 0.929 . S
C362 C361 1.406 . S
C362 C363 1.391 . S
C363 H330 0.931 . S
C363 C358 1.370 . S
C363 C362 1.391 . S
C364 N338 1.435 . S
C364 C365 1.358 . S
C364 C369 1.371 . S
C365 H331 0.930 . S
C365 C364 1.358 . S
C365 C366 1.405 . S
C366 H332 0.932 . S
C366 C365 1.405 . S
C366 C367 1.383 . S
C367 C366 1.383 . S
C367 C368 1.393 . S
C368 H333 0.931 . S
C368 C367 1.393 . S
C368 C369 1.382 . S
C369 H334 0.929 . S
C369 C364 1.371 . S
C369 C368 1.382 . S
C370 N338 1.423 . S
C370 C371 1.362 . S
C370 C375 1.388 . S
C371 H335 0.929 . S
C371 C370 1.362 . S
C371 C372 1.376 . S
C372 H336 0.931 . S
C372 C371 1.376 . S
C372 C373 1.396 . S
C373 C355 1.472 . S
C373 C372 1.396 . S
C373 C374 1.348 . S
C374 H337 0.929 . S
C374 C373 1.348 . S
C374 C375 1.443 . S
C375 H339 0.932 . S
C375 C370 1.388 . S
C375 C374 1.443 . S
H376 C403 0.929 . S
N377 C402 1.433 . S
N377 C408 1.435 . S
N377 C414 1.423 . S
H378 C404 0.930 . S
H379 C407 0.931 . S
H380 C406 0.929 . S
H381 C409 0.930 . S
H382 C410 0.932 . S
H383 C413 0.929 . S
H384 C412 0.931 . S
H385 C415 0.929 . S
H386 C419 0.932 . S
H387 C416 0.931 . S
H388 C418 0.929 . S
H389 C421 0.929 . S
H390 C422 0.930 . S
H391 C424 0.929 . S
H392 C425 0.931 . S
H393 C427 0.930 . S
H394 C428 0.932 . S
H395 C430 0.931 . S
H396 C431 0.929 . S
H397 C433 0.929 . S
H398 C434 0.931 . S
H399 C436 0.929 . S
N400 C420 1.433 . S
N400 C426 1.435 . S
N400 C432 1.423 . S
H401 C437 0.932 . S
C402 N377 1.433 . S
C402 C403 1.363 . S
C402 C407 1.370 . S
C403 H376 0.929 . S
C403 C402 1.363 . S
C403 C404 1.385 . S
C404 H378 0.930 . S
C404 C403 1.385 . S
C404 C405 1.357 . S
C405 C404 1.357 . S
C405 C406 1.406 . S
C406 H380 0.929 . S
C406 C405 1.406 . S
C406 C407 1.391 . S
C407 H379 0.931 . S
C407 C402 1.370 . S
C407 C406 1.391 . S
C408 N377 1.435 . S
C408 C409 1.358 . S
C408 C413 1.371 . S
C409 H381 0.930 . S
C409 C408 1.358 . S
C409 C410 1.405 . S
C410 H382 0.932 . S
C410 C409 1.405 . S
C410 C411 1.383 . S
C411 C410 1.383 . S
C411 C412 1.393 . S
C412 H384 0.931 . S
C412 C411 1.393 . S
C412 C413 1.382 . S
C413 H383 0.929 . S
C413 C408 1.371 . S
C413 C412 1.382 . S
C414 N377 1.423 . S
C414 C415 1.362 . S
C414 C419 1.388 . S
C415 H385 0.929 . S
C415 C414 1.362 . S
C415 C416 1.376 . S
C416 H387 0.931 . S
C416 C415 1.376 . S
C416 C417 1.396 . S
C417 C416 1.396 . S
C417 C418 1.348 . S
C417 C435 1.472 . S
C418 H388 0.929 . S
C418 C417 1.348 . S
C418 C419 1.443 . S
C419 H386 0.932 . S
C419 C414 1.388 . S
C419 C418 1.443 . S
C420 N400 1.433 . S
C420 C421 1.363 . S
C420 C425 1.370 . S
C421 H389 0.929 . S
C421 C420 1.363 . S
C421 C422 1.385 . S
C422 H390 0.930 . S
C422 C421 1.385 . S
C422 C423 1.357 . S
C423 C422 1.357 . S
C423 C424 1.406 . S
C424 H391 0.929 . S
C424 C423 1.406 . S
C424 C425 1.391 . S
C425 H392 0.931 . S
C425 C420 1.370 . S
C425 C424 1.391 . S
C426 N400 1.435 . S
C426 C427 1.358 . S
C426 C431 1.371 . S
C427 H393 0.930 . S
C427 C426 1.358 . S
C427 C428 1.405 . S
C428 H394 0.932 . S
C428 C427 1.405 . S
C428 C429 1.383 . S
C429 C428 1.383 . S
C429 C430 1.393 . S
C430 H395 0.931 . S
C430 C429 1.393 . S
C430 C431 1.382 . S
C431 H396 0.929 . S
C431 C426 1.371 . S
C431 C430 1.382 . S
C432 N400 1.423 . S
C432 C433 1.362 . S
C432 C437 1.388 . S
C433 H397 0.929 . S
C433 C432 1.362 . S
C433 C434 1.376 . S
C434 H398 0.931 . S
C434 C433 1.376 . S
C434 C435 1.396 . S
C435 C417 1.472 . S
C435 C434 1.396 . S
C435 C436 1.348 . S
C436 H399 0.929 . S
C436 C435 1.348 . S
C436 C437 1.443 . S
C437 H401 0.932 . S
C437 C432 1.388 . S
C437 C436 1.443 . S
H438 C465 0.929 . S
N439 C464 1.433 . S
N439 C470 1.435 . S
N439 C476 1.423 . S
H440 C466 0.930 . S
H441 C469 0.931 . S
H442 C468 0.929 . S
H443 C471 0.930 . S
H444 C472 0.932 . S
H445 C475 0.929 . S
H446 C474 0.931 . S
H447 C477 0.929 . S
H448 C481 0.932 . S
H449 C478 0.931 . S
H450 C480 0.929 . S
H451 C483 0.929 . S
H452 C484 0.930 . S
H453 C486 0.929 . S
H454 C487 0.931 . S
H455 C489 0.930 . S
H456 C490 0.932 . S
H457 C492 0.931 . S
H458 C493 0.929 . S
H459 C495 0.929 . S
H460 C496 0.931 . S
H461 C498 0.929 . S
N462 C482 1.433 . S
N462 C488 1.435 . S
N462 C494 1.423 . S
H463 C499 0.932 . S
C464 N439 1.433 . S
C464 C465 1.363 . S
C464 C469 1.370 . S
C465 H438 0.929 . S
C465 C464 1.363 . S
C465 C466 1.385 . S
C466 H440 0.930 . S
C466 C465 1.385 . S
C466 C467 1.357 . S
C467 C466 1.357 . S
C467 C468 1.406 . S
C468 H442 0.929 . S
C468 C467 1.406 . S
C468 C469 1.391 . S
C469 H441 0.931 . S
C469 C464 1.370 . S
C469 C468 1.391 . S
C470 N439 1.435 . S
C470 C471 1.358 . S
C470 C475 1.371 . S
C471 H443 0.930 . S
C471 C470 1.358 . S
C471 C472 1.405 . S
C472 H444 0.932 . S
C472 C471 1.405 . S
C472 C473 1.383 . S
C473 C472 1.383 . S
C473 C474 1.393 . S
C474 H446 0.931 . S
C474 C473 1.393 . S
C474 C475 1.382 . S
C475 H445 0.929 . S
C475 C470 1.371 . S
C475 C474 1.382 . S
C476 N439 1.423 . S
C476 C477 1.362 . S
C476 C481 1.388 . S
C477 H447 0.929 . S
C477 C476 1.362 . S
C477 C478 1.376 . S
C478 H449 0.931 . S
C478 C477 1.376 . S
C478 C479 1.396 . S
C479 C478 1.396 . S
C479 C480 1.348 . S
C479 C497 1.472 . S
C480 H450 0.929 . S
C480 C479 1.348 . S
C480 C481 1.443 . S
C481 H448 0.932 . S
C481 C476 1.388 . S
C481 C480 1.443 . S
C482 N462 1.433 . S
C482 C483 1.363 . S
C482 C487 1.370 . S
C483 H451 0.929 . S
C483 C482 1.363 . S
C483 C484 1.385 . S
C484 H452 0.930 . S
C484 C483 1.385 . S
C484 C485 1.357 . S
C485 C484 1.357 . S
C485 C486 1.406 . S
C486 H453 0.929 . S
C486 C485 1.406 . S
C486 C487 1.391 . S
C487 H454 0.931 . S
C487 C482 1.370 . S
C487 C486 1.391 . S
C488 N462 1.435 . S
C488 C489 1.358 . S
C488 C493 1.371 . S
C489 H455 0.930 . S
C489 C488 1.358 . S
C489 C490 1.405 . S
C490 H456 0.932 . S
C490 C489 1.405 . S
C490 C491 1.383 . S
C491 C490 1.383 . S
C491 C492 1.393 . S
C492 H457 0.931 . S
C492 C491 1.393 . S
C492 C493 1.382 . S
C493 H458 0.929 . S
C493 C488 1.371 . S
C493 C492 1.382 . S
C494 N462 1.423 . S
C494 C495 1.362 . S
C494 C499 1.388 . S
C495 H459 0.929 . S
C495 C494 1.362 . S
C495 C496 1.376 . S
C496 H460 0.931 . S
C496 C495 1.376 . S
C496 C497 1.396 . S
C497 C479 1.472 . S
C497 C496 1.396 . S
C497 C498 1.348 . S
C498 H461 0.929 . S
C498 C497 1.348 . S
C498 C499 1.443 . S
C499 H463 0.932 . S
C499 C494 1.388 . S
C499 C498 1.443 . S
H500 C527 0.929 . S
N501 C526 1.433 . S
N501 C532 1.435 . S
N501 C538 1.423 . S
H502 C528 0.930 . S
H503 C531 0.931 . S
H504 C530 0.929 . S
H505 C533 0.930 . S
H506 C534 0.932 . S
H507 C537 0.929 . S
H508 C536 0.931 . S
H509 C539 0.929 . S
H510 C543 0.932 . S
H511 C540 0.931 . S
H512 C542 0.929 . S
H513 C545 0.929 . S
H514 C546 0.930 . S
H515 C548 0.929 . S
H516 C549 0.931 . S
H517 C551 0.930 . S
H518 C552 0.932 . S
H519 C554 0.931 . S
H520 C555 0.929 . S
H521 C557 0.929 . S
H522 C558 0.931 . S
H523 C560 0.929 . S
N524 C544 1.433 . S
N524 C550 1.435 . S
N524 C556 1.423 . S
H525 C561 0.932 . S
C526 N501 1.433 . S
C526 C527 1.363 . S
C526 C531 1.370 . S
C527 H500 0.929 . S
C527 C526 1.363 . S
C527 C528 1.385 . S
C528 H502 0.930 . S
C528 C527 1.385 . S
C528 C529 1.357 . S
C529 C528 1.357 . S
C529 C530 1.406 . S
C530 H504 0.929 . S
C530 C529 1.406 . S
C530 C531 1.391 . S
C531 H503 0.931 . S
C531 C526 1.370 . S
C531 C530 1.391 . S
C532 N501 1.435 . S
C532 C533 1.358 . S
C532 C537 1.371 . S
C533 H505 0.930 . S
C533 C532 1.358 . S
C533 C534 1.405 . S
C534 H506 0.932 . S
C534 C533 1.405 . S
C534 C535 1.383 . S
C535 C534 1.383 . S
C535 C536 1.393 . S
C536 H508 0.931 . S
C536 C535 1.393 . S
C536 C537 1.382 . S
C537 H507 0.929 . S
C537 C532 1.371 . S
C537 C536 1.382 . S
C538 N501 1.423 . S
C538 C539 1.362 . S
C538 C543 1.388 . S
C539 H509 0.929 . S
C539 C538 1.362 . S
C539 C540 1.376 . S
C540 H511 0.931 . S
C540 C539 1.376 . S
C540 C541 1.396 . S
C541 C540 1.396 . S
C541 C542 1.348 . S
C541 C559 1.472 . S
C542 H512 0.929 . S
C542 C541 1.348 . S
C542 C543 1.443 . S
C543 H510 0.932 . S
C543 C538 1.388 . S
C543 C542 1.443 . S
C544 N524 1.433 . S
C544 C545 1.363 . S
C544 C549 1.370 . S
C545 H513 0.929 . S
C545 C544 1.363 . S
C545 C546 1.385 . S
C546 H514 0.930 . S
C546 C545 1.385 . S
C546 C547 1.357 . S
C547 C546 1.357 . S
C547 C548 1.406 . S
C548 H515 0.929 . S
C548 C547 1.406 . S
C548 C549 1.391 . S
C549 H516 0.931 . S
C549 C544 1.370 . S
C549 C548 1.391 . S
C550 N524 1.435 . S
C550 C551 1.358 . S
C550 C555 1.371 . S
C551 H517 0.930 . S
C551 C550 1.358 . S
C551 C552 1.405 . S
C552 H518 0.932 . S
C552 C551 1.405 . S
C552 C553 1.383 . S
C553 C552 1.383 . S
C553 C554 1.393 . S
C554 H519 0.931 . S
C554 C553 1.393 . S
C554 C555 1.382 . S
C555 H520 0.929 . S
C555 C550 1.371 . S
C555 C554 1.382 . S
C556 N524 1.423 . S
C556 C557 1.362 . S
C556 C561 1.388 . S
C557 H521 0.929 . S
C557 C556 1.362 . S
C557 C558 1.376 . S
C558 H522 0.931 . S
C558 C557 1.376 . S
C558 C559 1.396 . S
C559 C541 1.472 . S
C559 C558 1.396 . S
C559 C560 1.348 . S
C560 H523 0.929 . S
C560 C559 1.348 . S
C560 C561 1.443 . S
C561 H525 0.932 . S
C561 C556 1.388 . S
C561 C560 1.443 . S
H562 C589 0.929 . S
N563 C588 1.433 . S
N563 C594 1.435 . S
N563 C600 1.423 . S
H564 C590 0.930 . S
H565 C593 0.931 . S
H566 C592 0.929 . S
H567 C595 0.930 . S
H568 C596 0.932 . S
H569 C599 0.929 . S
H570 C598 0.931 . S
H571 C601 0.929 . S
H572 C605 0.932 . S
H573 C602 0.931 . S
H574 C604 0.929 . S
H575 C607 0.929 . S
H576 C608 0.930 . S
H577 C610 0.929 . S
H578 C611 0.931 . S
H579 C613 0.930 . S
H580 C614 0.932 . S
H581 C616 0.931 . S
H582 C617 0.929 . S
H583 C619 0.929 . S
H584 C620 0.931 . S
H585 C622 0.929 . S
N586 C606 1.433 . S
N586 C612 1.435 . S
N586 C618 1.423 . S
H587 C623 0.932 . S
C588 N563 1.433 . S
C588 C589 1.363 . S
C588 C593 1.370 . S
C589 H562 0.929 . S
C589 C588 1.363 . S
C589 C590 1.385 . S
C590 H564 0.930 . S
C590 C589 1.385 . S
C590 C591 1.357 . S
C591 C590 1.357 . S
C591 C592 1.406 . S
C592 H566 0.929 . S
C592 C591 1.406 . S
C592 C593 1.391 . S
C593 H565 0.931 . S
C593 C588 1.370 . S
C593 C592 1.391 . S
C594 N563 1.435 . S
C594 C595 1.358 . S
C594 C599 1.371 . S
C595 H567 0.930 . S
C595 C594 1.358 . S
C595 C596 1.405 . S
C596 H568 0.932 . S
C596 C595 1.405 . S
C596 C597 1.383 . S
C597 C596 1.383 . S
C597 C598 1.393 . S
C598 H570 0.931 . S
C598 C597 1.393 . S
C598 C599 1.382 . S
C599 H569 0.929 . S
C599 C594 1.371 . S
C599 C598 1.382 . S
C600 N563 1.423 . S
C600 C601 1.362 . S
C600 C605 1.388 . S
C601 H571 0.929 . S
C601 C600 1.362 . S
C601 C602 1.376 . S
C602 H573 0.931 . S
C602 C601 1.376 . S
C602 C603 1.396 . S
C603 C602 1.396 . S
C603 C604 1.348 . S
C603 C621 1.472 . S
C604 H574 0.929 . S
C604 C603 1.348 . S
C604 C605 1.443 . S
C605 H572 0.932 . S
C605 C600 1.388 . S
C605 C604 1.443 . S
C606 N586 1.433 . S
C606 C607 1.363 . S
C606 C611 1.370 . S
C607 H575 0.929 . S
C607 C606 1.363 . S
C607 C608 1.385 . S
C608 H576 0.930 . S
C608 C607 1.385 . S
C608 C609 1.357 . S
C609 C608 1.357 . S
C609 C610 1.406 . S
C610 H577 0.929 . S
C610 C609 1.406 . S
C610 C611 1.391 . S
C611 H578 0.931 . S
C611 C606 1.370 . S
C611 C610 1.391 . S
C612 N586 1.435 . S
C612 C613 1.358 . S
C612 C617 1.371 . S
C613 H579 0.930 . S
C613 C612 1.358 . S
C613 C614 1.405 . S
C614 H580 0.932 . S
C614 C613 1.405 . S
C614 C615 1.383 . S
C615 C614 1.383 . S
C615 C616 1.393 . S
C616 H581 0.931 . S
C616 C615 1.393 . S
C616 C617 1.382 . S
C617 H582 0.929 . S
C617 C612 1.371 . S
C617 C616 1.382 . S
C618 N586 1.423 . S
C618 C619 1.362 . S
C618 C623 1.388 . S
C619 H583 0.929 . S
C619 C618 1.362 . S
C619 C620 1.376 . S
C620 H584 0.931 . S
C620 C619 1.376 . S
C620 C621 1.396 . S
C621 C603 1.472 . S
C621 C620 1.396 . S
C621 C622 1.348 . S
C622 H585 0.929 . S
C622 C621 1.348 . S
C622 C623 1.443 . S
C623 H587 0.932 . S
C623 C618 1.388 . S
C623 C622 1.443 . S
H624 C651 0.929 . S
N625 C650 1.433 . S
N625 C656 1.435 . S
N625 C662 1.423 . S
H626 C652 0.930 . S
H627 C655 0.931 . S
H628 C654 0.929 . S
H629 C657 0.930 . S
H630 C658 0.932 . S
H631 C661 0.929 . S
H632 C660 0.931 . S
H633 C663 0.929 . S
H634 C667 0.932 . S
H635 C664 0.931 . S
H636 C666 0.929 . S
H637 C669 0.929 . S
H638 C670 0.930 . S
H639 C672 0.929 . S
H640 C673 0.931 . S
H641 C675 0.930 . S
H642 C676 0.932 . S
H643 C678 0.931 . S
H644 C679 0.929 . S
H645 C681 0.929 . S
H646 C682 0.931 . S
H647 C684 0.929 . S
N648 C668 1.433 . S
N648 C674 1.435 . S
N648 C680 1.423 . S
H649 C685 0.932 . S
C650 N625 1.433 . S
C650 C651 1.363 . S
C650 C655 1.370 . S
C651 H624 0.929 . S
C651 C650 1.363 . S
C651 C652 1.385 . S
C652 H626 0.930 . S
C652 C651 1.385 . S
C652 C653 1.357 . S
C653 C652 1.357 . S
C653 C654 1.406 . S
C654 H628 0.929 . S
C654 C653 1.406 . S
C654 C655 1.391 . S
C655 H627 0.931 . S
C655 C650 1.370 . S
C655 C654 1.391 . S
C656 N625 1.435 . S
C656 C657 1.358 . S
C656 C661 1.371 . S
C657 H629 0.930 . S
C657 C656 1.358 . S
C657 C658 1.405 . S
C658 H630 0.932 . S
C658 C657 1.405 . S
C658 C659 1.383 . S
C659 C658 1.383 . S
C659 C660 1.393 . S
C660 H632 0.931 . S
C660 C659 1.393 . S
C660 C661 1.382 . S
C661 H631 0.929 . S
C661 C656 1.371 . S
C661 C660 1.382 . S
C662 N625 1.423 . S
C662 C663 1.362 . S
C662 C667 1.388 . S
C663 H633 0.929 . S
C663 C662 1.362 . S
C663 C664 1.376 . S
C664 H635 0.931 . S
C664 C663 1.376 . S
C664 C665 1.396 . S
C665 C664 1.396 . S
C665 C666 1.348 . S
C665 C683 1.472 . S
C666 H636 0.929 . S
C666 C665 1.348 . S
C666 C667 1.443 . S
C667 H634 0.932 . S
C667 C662 1.388 . S
C667 C666 1.443 . S
C668 N648 1.433 . S
C668 C669 1.363 . S
C668 C673 1.370 . S
C669 H637 0.929 . S
C669 C668 1.363 . S
C669 C670 1.385 . S
C670 H638 0.930 . S
C670 C669 1.385 . S
C670 C671 1.357 . S
C671 C670 1.357 . S
C671 C672 1.406 . S
C672 H639 0.929 . S
C672 C671 1.406 . S
C672 C673 1.391 . S
C673 H640 0.931 . S
C673 C668 1.370 . S
C673 C672 1.391 . S
C674 N648 1.435 . S
C674 C675 1.358 . S
C674 C679 1.371 . S
C675 H641 0.930 . S
C675 C674 1.358 . S
C675 C676 1.405 . S
C676 H642 0.932 . S
C676 C675 1.405 . S
C676 C677 1.383 . S
C677 C676 1.383 . S
C677 C678 1.393 . S
C678 H643 0.931 . S
C678 C677 1.393 . S
C678 C679 1.382 . S
C679 H644 0.929 . S
C679 C674 1.371 . S
C679 C678 1.382 . S
C680 N648 1.423 . S
C680 C681 1.362 . S
C680 C685 1.388 . S
C681 H645 0.929 . S
C681 C680 1.362 . S
C681 C682 1.376 . S
C682 H646 0.931 . S
C682 C681 1.376 . S
C682 C683 1.396 . S
C683 C665 1.472 . S
C683 C682 1.396 . S
C683 C684 1.348 . S
C684 H647 0.929 . S
C684 C683 1.348 . S
C684 C685 1.443 . S
C685 H649 0.932 . S
C685 C680 1.388 . S
C685 C684 1.443 . S
H686 C713 0.929 . S
N687 C712 1.433 . S
N687 C718 1.435 . S
N687 C724 1.423 . S
H688 C714 0.930 . S
H689 C717 0.931 . S
H690 C716 0.929 . S
H691 C719 0.930 . S
H692 C720 0.932 . S
H693 C723 0.929 . S
H694 C722 0.931 . S
H695 C725 0.929 . S
H696 C729 0.932 . S
H697 C726 0.931 . S
H698 C728 0.929 . S
H699 C731 0.929 . S
H700 C732 0.930 . S
H701 C734 0.929 . S
H702 C735 0.931 . S
H703 C737 0.930 . S
H704 C738 0.932 . S
H705 C740 0.931 . S
H706 C741 0.929 . S
H707 C743 0.929 . S
H708 C744 0.931 . S
H709 C746 0.929 . S
N710 C730 1.433 . S
N710 C736 1.435 . S
N710 C742 1.423 . S
H711 C747 0.932 . S
C712 N687 1.433 . S
C712 C713 1.363 . S
C712 C717 1.370 . S
C713 H686 0.929 . S
C713 C712 1.363 . S
C713 C714 1.385 . S
C714 H688 0.930 . S
C714 C713 1.385 . S
C714 C715 1.357 . S
C715 C714 1.357 . S
C715 C716 1.406 . S
C716 H690 0.929 . S
C716 C715 1.406 . S
C716 C717 1.391 . S
C717 H689 0.931 . S
C717 C712 1.370 . S
C717 C716 1.391 . S
C718 N687 1.435 . S
C718 C719 1.358 . S
C718 C723 1.371 . S
C719 H691 0.930 . S
C719 C718 1.358 . S
C719 C720 1.405 . S
C720 H692 0.932 . S
C720 C719 1.405 . S
C720 C721 1.383 . S
C721 C720 1.383 . S
C721 C722 1.393 . S
C722 H694 0.931 . S
C722 C721 1.393 . S
C722 C723 1.382 . S
C723 H693 0.929 . S
C723 C718 1.371 . S
C723 C722 1.382 . S
C724 N687 1.423 . S
C724 C725 1.362 . S
C724 C729 1.388 . S
C725 H695 0.929 . S
C725 C724 1.362 . S
C725 C726 1.376 . S
C726 H697 0.931 . S
C726 C725 1.376 . S
C726 C727 1.396 . S
C727 C726 1.396 . S
C727 C728 1.348 . S
C727 C745 1.472 . S
C728 H698 0.929 . S
C728 C727 1.348 . S
C728 C729 1.443 . S
C729 H696 0.932 . S
C729 C724 1.388 . S
C729 C728 1.443 . S
C730 N710 1.433 . S
C730 C731 1.363 . S
C730 C735 1.370 . S
C731 H699 0.929 . S
C731 C730 1.363 . S
C731 C732 1.385 . S
C732 H700 0.930 . S
C732 C731 1.385 . S
C732 C733 1.357 . S
C733 C732 1.357 . S
C733 C734 1.406 . S
C734 H701 0.929 . S
C734 C733 1.406 . S
C734 C735 1.391 . S
C735 H702 0.931 . S
C735 C730 1.370 . S
C735 C734 1.391 . S
C736 N710 1.435 . S
C736 C737 1.358 . S
C736 C741 1.371 . S
C737 H703 0.930 . S
C737 C736 1.358 . S
C737 C738 1.405 . S
C738 H704 0.932 . S
C738 C737 1.405 . S
C738 C739 1.383 . S
C739 C738 1.383 . S
C739 C740 1.393 . S
C740 H705 0.931 . S
C740 C739 1.393 . S
C740 C741 1.382 . S
C741 H706 0.929 . S
C741 C736 1.371 . S
C741 C740 1.382 . S
C742 N710 1.423 . S
C742 C743 1.362 . S
C742 C747 1.388 . S
C743 H707 0.929 . S
C743 C742 1.362 . S
C743 C744 1.376 . S
C744 H708 0.931 . S
C744 C743 1.376 . S
C744 C745 1.396 . S
C745 C727 1.472 . S
C745 C744 1.396 . S
C745 C746 1.348 . S
C746 H709 0.929 . S
C746 C745 1.348 . S
C746 C747 1.443 . S
C747 H711 0.932 . S
C747 C742 1.388 . S
C747 C746 1.443 . S
H748 C775 0.929 . S
N749 C774 1.433 . S
N749 C780 1.435 . S
N749 C786 1.423 . S
H750 C776 0.930 . S
H751 C779 0.931 . S
H752 C778 0.929 . S
H753 C781 0.930 . S
H754 C782 0.932 . S
H755 C785 0.929 . S
H756 C784 0.931 . S
H757 C787 0.929 . S
H758 C791 0.932 . S
H759 C788 0.931 . S
H760 C790 0.929 . S
H761 C793 0.929 . S
H762 C794 0.930 . S
H763 C796 0.929 . S
H764 C797 0.931 . S
H765 C799 0.930 . S
H766 C800 0.932 . S
H767 C802 0.931 . S
H768 C803 0.929 . S
H769 C805 0.929 . S
H770 C806 0.931 . S
H771 C808 0.929 . S
N772 C792 1.433 . S
N772 C798 1.435 . S
N772 C804 1.423 . S
H773 C809 0.932 . S
C774 N749 1.433 . S
C774 C775 1.363 . S
C774 C779 1.370 . S
C775 H748 0.929 . S
C775 C774 1.363 . S
C775 C776 1.385 . S
C776 H750 0.930 . S
C776 C775 1.385 . S
C776 C777 1.357 . S
C777 C776 1.357 . S
C777 C778 1.406 . S
C778 H752 0.929 . S
C778 C777 1.406 . S
C778 C779 1.391 . S
C779 H751 0.931 . S
C779 C774 1.370 . S
C779 C778 1.391 . S
C780 N749 1.435 . S
C780 C781 1.358 . S
C780 C785 1.371 . S
C781 H753 0.930 . S
C781 C780 1.358 . S
C781 C782 1.405 . S
C782 H754 0.932 . S
C782 C781 1.405 . S
C782 C783 1.383 . S
C783 C782 1.383 . S
C783 C784 1.393 . S
C784 H756 0.931 . S
C784 C783 1.393 . S
C784 C785 1.382 . S
C785 H755 0.929 . S
C785 C780 1.371 . S
C785 C784 1.382 . S
C786 N749 1.423 . S
C786 C787 1.362 . S
C786 C791 1.388 . S
C787 H757 0.929 . S
C787 C786 1.362 . S
C787 C788 1.376 . S
C788 H759 0.931 . S
C788 C787 1.376 . S
C788 C789 1.396 . S
C789 C788 1.396 . S
C789 C790 1.348 . S
C789 C807 1.472 . S
C790 H760 0.929 . S
C790 C789 1.348 . S
C790 C791 1.443 . S
C791 H758 0.932 . S
C791 C786 1.388 . S
C791 C790 1.443 . S
C792 N772 1.433 . S
C792 C793 1.363 . S
C792 C797 1.370 . S
C793 H761 0.929 . S
C793 C792 1.363 . S
C793 C794 1.385 . S
C794 H762 0.930 . S
C794 C793 1.385 . S
C794 C795 1.357 . S
C795 C794 1.357 . S
C795 C796 1.406 . S
C796 H763 0.929 . S
C796 C795 1.406 . S
C796 C797 1.391 . S
C797 H764 0.931 . S
C797 C792 1.370 . S
C797 C796 1.391 . S
C798 N772 1.435 . S
C798 C799 1.358 . S
C798 C803 1.371 . S
C799 H765 0.930 . S
C799 C798 1.358 . S
C799 C800 1.405 . S
C800 H766 0.932 . S
C800 C799 1.405 . S
C800 C801 1.383 . S
C801 C800 1.383 . S
C801 C802 1.393 . S
C802 H767 0.931 . S
C802 C801 1.393 . S
C802 C803 1.382 . S
C803 H768 0.929 . S
C803 C798 1.371 . S
C803 C802 1.382 . S
C804 N772 1.423 . S
C804 C805 1.362 . S
C804 C809 1.388 . S
C805 H769 0.929 . S
C805 C804 1.362 . S
C805 C806 1.376 . S
C806 H770 0.931 . S
C806 C805 1.376 . S
C806 C807 1.396 . S
C807 C789 1.472 . S
C807 C806 1.396 . S
C807 C808 1.348 . S
C808 H771 0.929 . S
C808 C807 1.348 . S
C808 C809 1.443 . S
C809 H773 0.932 . S
C809 C804 1.388 . S
C809 C808 1.443 . S
H810 C837 0.929 . S
N811 C836 1.433 . S
N811 C842 1.435 . S
N811 C848 1.423 . S
H812 C838 0.930 . S
H813 C841 0.931 . S
H814 C840 0.929 . S
H815 C843 0.930 . S
H816 C844 0.932 . S
H817 C847 0.929 . S
H818 C846 0.931 . S
H819 C849 0.929 . S
H820 C853 0.932 1_655 S
H821 C850 0.931 . S
H822 C852 0.939 . S
H823 C855 0.929 . S
H824 C856 0.930 . S
H825 C858 0.929 . S
H826 C859 0.931 . S
H827 C861 0.930 . S
H828 C862 0.932 . S
H829 C864 0.931 . S
H830 C865 0.929 . S
H831 C867 0.929 . S
H832 C868 0.931 . S
H833 C870 0.980 . S
N834 C854 1.433 . S
N834 C860 1.435 . S
N834 C866 1.423 . S
H835 C871 0.932 1_655 S
C836 N811 1.433 . S
C836 C837 1.363 . S
C836 C841 1.370 1_455 S
C837 H810 0.929 . S
C837 C836 1.363 . S
C837 C838 1.385 . S
C838 H812 0.930 . S
C838 C837 1.385 . S
C838 C839 1.357 1_455 S
C839 C838 1.357 1_655 S
C839 C840 1.406 . S
C840 H814 0.929 . S
C840 C839 1.406 . S
C840 C841 1.391 . S
C841 H813 0.931 . S
C841 C836 1.370 1_655 S
C841 C840 1.391 . S
C842 N811 1.435 . S
C842 C843 1.358 1_455 S
C842 C847 1.371 . S
C843 H815 0.930 . S
C843 C842 1.358 1_655 S
C843 C844 1.405 . S
C844 H816 0.932 . S
C844 C843 1.405 . S
C844 C845 1.383 1_655 S
C845 C844 1.383 1_455 S
C845 C846 1.393 . S
C846 H818 0.931 . S
C846 C845 1.393 . S
C846 C847 1.382 . S
C847 H817 0.929 . S
C847 C842 1.371 . S
C847 C846 1.382 . S
C848 N811 1.423 . S
C848 C849 1.362 . S
C848 C853 1.388 . S
C849 H819 0.929 . S
C849 C848 1.362 . S
C849 C850 1.376 . S
C850 H821 0.931 . S
C850 C849 1.376 . S
C850 C851 1.396 . S
C851 C850 1.396 . S
C851 C852 1.348 . S
C851 C869 1.472 . S
C852 H822 0.939 . S
C852 C851 1.348 . S
C852 C853 1.443 . S
C853 H820 0.932 1_455 S
C853 C848 1.388 . S
C853 C852 1.443 . S
C854 N834 1.433 . S
C854 C855 1.363 . S
C854 C859 1.370 1_455 S
C855 H823 0.929 . S
C855 C854 1.363 . S
C855 C856 1.385 . S
C856 H824 0.930 . S
C856 C855 1.385 . S
C856 C857 1.357 1_455 S
C857 C856 1.357 1_655 S
C857 C858 1.406 . S
C858 H825 0.929 . S
C858 C857 1.406 . S
C858 C859 1.391 . S
C859 H826 0.931 . S
C859 C854 1.370 1_655 S
C859 C858 1.391 . S
C860 N834 1.435 . S
C860 C861 1.358 1_455 S
C860 C865 1.371 . S
C861 H827 0.930 . S
C861 C860 1.358 1_655 S
C861 C862 1.405 . S
C862 H828 0.932 . S
C862 C861 1.405 . S
C862 C863 1.383 1_655 S
C863 C862 1.383 1_455 S
C863 C864 1.393 . S
C864 H829 0.931 . S
C864 C863 1.393 . S
C864 C865 1.382 . S
C865 H830 0.929 . S
C865 C860 1.371 . S
C865 C864 1.382 . S
C866 N834 1.423 . S
C866 C867 1.362 . S
C866 C871 1.388 . S
C867 H831 0.929 . S
C867 C866 1.362 . S
C867 C868 1.376 . S
C868 H832 0.931 . S
C868 C867 1.376 . S
C868 C869 1.396 . S
C869 C851 1.472 . S
C869 C868 1.396 . S
C869 C870 1.348 . S
C870 H833 0.980 . S
C870 C869 1.348 . S
C870 C871 1.443 . S
C871 H835 0.932 1_455 S
C871 C866 1.388 . S
C871 C870 1.443 . S
H872 C899 0.929 . S
N873 C898 1.433 . S
N873 C904 1.435 . S
N873 C910 1.423 . S
H874 C900 0.930 . S
H875 C903 0.931 . S
H876 C902 0.929 . S
H877 C905 0.930 . S
H878 C906 0.932 . S
H879 C909 0.929 . S
H880 C908 0.931 . S
H881 C911 0.929 . S
H882 C915 0.932 . S
H883 C912 0.931 . S
H884 C914 0.929 . S
H885 C917 0.929 . S
H886 C918 0.930 . S
H887 C920 0.929 . S
H888 C921 0.931 . S
H889 C923 0.930 . S
H890 C924 0.932 . S
H891 C926 0.931 . S
H892 C927 0.929 . S
H893 C929 0.929 . S
H894 C930 0.931 . S
H895 C932 0.929 . S
N896 C916 1.433 . S
N896 C922 1.435 . S
N896 C928 1.423 . S
H897 C933 0.932 . S
C898 N873 1.433 . S
C898 C899 1.363 . S
C898 C903 1.370 . S
C899 H872 0.929 . S
C899 C898 1.363 . S
C899 C900 1.385 . S
C900 H874 0.930 . S
C900 C899 1.385 . S
C900 C901 1.357 . S
C901 C900 1.357 . S
C901 C902 1.406 . S
C902 H876 0.929 . S
C902 C901 1.406 . S
C902 C903 1.391 . S
C903 H875 0.931 . S
C903 C898 1.370 . S
C903 C902 1.391 . S
C904 N873 1.435 . S
C904 C905 1.358 . S
C904 C909 1.371 . S
C905 H877 0.930 . S
C905 C904 1.358 . S
C905 C906 1.405 . S
C906 H878 0.932 . S
C906 C905 1.405 . S
C906 C907 1.383 . S
C907 C906 1.383 . S
C907 C908 1.393 . S
C908 H880 0.931 . S
C908 C907 1.393 . S
C908 C909 1.382 . S
C909 H879 0.929 . S
C909 C904 1.371 . S
C909 C908 1.382 . S
C910 N873 1.423 . S
C910 C911 1.362 . S
C910 C915 1.388 . S
C911 H881 0.929 . S
C911 C910 1.362 . S
C911 C912 1.376 . S
C912 H883 0.931 . S
C912 C911 1.376 . S
C912 C913 1.396 . S
C913 C912 1.396 . S
C913 C914 1.348 . S
C913 C931 1.472 . S
C914 H884 0.929 . S
C914 C913 1.348 . S
C914 C915 1.443 . S
C915 H882 0.932 . S
C915 C910 1.388 . S
C915 C914 1.443 . S
C916 N896 1.433 . S
C916 C917 1.363 . S
C916 C921 1.370 . S
C917 H885 0.929 . S
C917 C916 1.363 . S
C917 C918 1.385 . S
C918 H886 0.930 . S
C918 C917 1.385 . S
C918 C919 1.357 . S
C919 C918 1.357 . S
C919 C920 1.406 . S
C920 H887 0.929 . S
C920 C919 1.406 . S
C920 C921 1.391 . S
C921 H888 0.931 . S
C921 C916 1.370 . S
C921 C920 1.391 . S
C922 N896 1.435 . S
C922 C923 1.358 . S
C922 C927 1.371 . S
C923 H889 0.930 . S
C923 C922 1.358 . S
C923 C924 1.405 . S
C924 H890 0.932 . S
C924 C923 1.405 . S
C924 C925 1.383 . S
C925 C924 1.383 . S
C925 C926 1.393 . S
C926 H891 0.931 . S
C926 C925 1.393 . S
C926 C927 1.382 . S
C927 H892 0.929 . S
C927 C922 1.371 . S
C927 C926 1.382 . S
C928 N896 1.423 . S
C928 C929 1.362 . S
C928 C933 1.388 . S
C929 H893 0.929 . S
C929 C928 1.362 . S
C929 C930 1.376 . S
C930 H894 0.931 . S
C930 C929 1.376 . S
C930 C931 1.396 . S
C931 C913 1.472 . S
C931 C930 1.396 . S
C931 C932 1.348 . S
C932 H895 0.929 . S
C932 C931 1.348 . S
C932 C933 1.443 . S
C933 H897 0.932 . S
C933 C928 1.388 . S
C933 C932 1.443 . S
H934 C961 0.929 . S
N935 C960 1.433 . S
N935 C966 1.435 . S
N935 C972 1.423 . S
H936 C962 0.930 . S
H937 C965 0.931 . S
H938 C964 0.929 . S
H939 C967 0.930 . S
H940 C968 0.932 . S
H941 C971 0.929 . S
H942 C970 0.931 . S
H943 C973 0.929 . S
H944 C977 0.932 1_545 S
H945 C974 0.931 . S
H946 C976 0.990 . S
H947 C979 0.929 . S
H948 C980 0.930 . S
H949 C982 0.929 . S
H950 C983 0.931 . S
H951 C985 0.930 . S
H952 C986 0.932 . S
H953 C988 0.931 . S
H954 C989 0.929 . S
H955 C991 0.929 . S
H956 C992 0.931 . S
H957 C994 0.943 . S
N958 C978 1.433 . S
N958 C984 1.435 . S
N958 C990 1.423 . S
H959 C995 0.932 1_545 S
C960 N935 1.433 . S
C960 C961 1.363 . S
C960 C965 1.370 1_565 S
C961 H934 0.929 . S
C961 C960 1.363 . S
C961 C962 1.385 . S
C962 H936 0.930 . S
C962 C961 1.385 . S
C962 C963 1.357 1_565 S
C963 C962 1.357 1_545 S
C963 C964 1.406 . S
C964 H938 0.929 . S
C964 C963 1.406 . S
C964 C965 1.391 . S
C965 H937 0.931 . S
C965 C960 1.370 1_545 S
C965 C964 1.391 . S
C966 N935 1.435 . S
C966 C967 1.358 1_565 S
C966 C971 1.371 . S
C967 H939 0.930 . S
C967 C966 1.358 1_545 S
C967 C968 1.405 . S
C968 H940 0.932 . S
C968 C967 1.405 . S
C968 C969 1.383 1_545 S
C969 C968 1.383 1_565 S
C969 C970 1.393 . S
C970 H942 0.931 . S
C970 C969 1.393 . S
C970 C971 1.382 . S
C971 H941 0.929 . S
C971 C966 1.371 . S
C971 C970 1.382 . S
C972 N935 1.423 . S
C972 C973 1.362 . S
C972 C977 1.388 . S
C973 H943 0.929 . S
C973 C972 1.362 . S
C973 C974 1.376 . S
C974 H945 0.931 . S
C974 C973 1.376 . S
C974 C975 1.396 . S
C975 C974 1.396 . S
C975 C976 1.348 . S
C975 C993 1.472 . S
C976 H946 0.990 . S
C976 C975 1.348 . S
C976 C977 1.443 . S
C977 H944 0.932 1_565 S
C977 C972 1.388 . S
C977 C976 1.443 . S
C978 N958 1.433 . S
C978 C979 1.363 . S
C978 C983 1.370 1_565 S
C979 H947 0.929 . S
C979 C978 1.363 . S
C979 C980 1.385 . S
C980 H948 0.930 . S
C980 C979 1.385 . S
C980 C981 1.357 1_565 S
C981 C980 1.357 1_545 S
C981 C982 1.406 . S
C982 H949 0.929 . S
C982 C981 1.406 . S
C982 C983 1.391 . S
C983 H950 0.931 . S
C983 C978 1.370 1_545 S
C983 C982 1.391 . S
C984 N958 1.435 . S
C984 C985 1.358 1_565 S
C984 C989 1.371 . S
C985 H951 0.930 . S
C985 C984 1.358 1_545 S
C985 C986 1.405 . S
C986 H952 0.932 . S
C986 C985 1.405 . S
C986 C987 1.383 1_545 S
C987 C986 1.383 1_565 S
C987 C988 1.393 . S
C988 H953 0.931 . S
C988 C987 1.393 . S
C988 C989 1.382 . S
C989 H954 0.929 . S
C989 C984 1.371 . S
C989 C988 1.382 . S
C990 N958 1.423 . S
C990 C991 1.362 . S
C990 C995 1.388 . S
C991 H955 0.929 . S
C991 C990 1.362 . S
C991 C992 1.376 . S
C992 H956 0.931 . S
C992 C991 1.376 . S
C992 C993 1.396 . S
C993 C975 1.472 . S
C993 C992 1.396 . S
C993 C994 1.348 . S
C994 H957 0.943 . S
C994 C993 1.348 . S
C994 C995 1.443 . S
C995 H959 0.932 1_565 S
C995 C990 1.388 . S
C995 C994 1.443 . S
H996 C1023 0.929 . S
N997 C1022 1.433 . S
N997 C1028 1.435 . S
N997 C1034 1.423 . S
H998 C1024 0.930 . S
H999 C1027 0.930 . S
H1000 C1026 0.950 . S
H1001 C1029 0.930 . S
H1002 C1030 0.932 . S
H1003 C1033 0.929 . S
H1004 C1032 0.931 . S
H1005 C1035 0.929 . S
H1006 C1039 1.001 . S
H1007 C1036 0.931 . S
H1008 C1038 0.917 1_545 S
H1009 C1041 0.929 . S
H1010 C1042 0.930 . S
H1011 C1044 0.929 . S
H1012 C1045 1.014 . S
H1013 C1047 0.930 . S
H1014 C1048 0.932 . S
H1015 C1050 0.931 . S
H1016 C1051 0.929 . S
H1017 C1053 0.929 . S
H1018 C1054 0.931 . S
H1019 C1056 0.894 1_545 S
N1020 C1040 1.433 . S
N1020 C1046 1.435 . S
N1020 C1052 1.423 . S
H1021 C1057 0.972 . S
C1022 N997 1.433 . S
C1022 C1023 1.363 . S
C1022 C1027 1.363 1_565 S
C1023 H996 0.929 . S
C1023 C1022 1.363 . S
C1023 C1024 1.385 . S
C1024 H998 0.930 . S
C1024 C1023 1.385 . S
C1024 C1025 1.357 . S
C1025 C1024 1.357 . S
C1025 C1026 1.414 1_565 S
C1026 H1000 0.950 . S
C1026 C1025 1.414 1_545 S
C1026 C1027 1.385 . S
C1027 H999 0.930 . S
C1027 C1022 1.363 1_545 S
C1027 C1026 1.385 . S
C1028 N997 1.435 . S
C1028 C1029 1.358 1_565 S
C1028 C1033 1.371 . S
C1029 H1001 0.930 . S
C1029 C1028 1.358 1_545 S
C1029 C1030 1.405 . S
C1030 H1002 0.932 . S
C1030 C1029 1.405 . S
C1030 C1031 1.383 . S
C1031 C1030 1.383 . S
C1031 C1032 1.393 1_545 S
C1032 H1004 0.931 . S
C1032 C1031 1.393 1_565 S
C1032 C1033 1.382 . S
C1033 H1003 0.929 . S
C1033 C1028 1.371 . S
C1033 C1032 1.382 . S
C1034 N997 1.423 . S
C1034 C1035 1.362 . S
C1034 C1039 1.368 1_565 S
C1035 H1005 0.929 . S
C1035 C1034 1.362 . S
C1035 C1036 1.376 . S
C1036 H1007 0.931 . S
C1036 C1035 1.376 . S
C1036 C1037 1.396 . S
C1037 C1036 1.396 . S
C1037 C1038 1.396 . S
C1037 C1055 1.472 . S
C1038 H1008 0.917 1_565 S
C1038 C1037 1.396 . S
C1038 C1039 1.366 1_565 S
C1039 H1006 1.001 . S
C1039 C1034 1.368 1_545 S
C1039 C1038 1.366 1_545 S
C1040 N1020 1.433 . S
C1040 C1041 1.363 . S
C1040 C1045 1.307 1_565 S
C1041 H1009 0.929 . S
C1041 C1040 1.363 . S
C1041 C1042 1.385 . S
C1042 H1010 0.930 . S
C1042 C1041 1.385 . S
C1042 C1043 1.357 . S
C1043 C1042 1.357 . S
C1043 C1044 1.406 1_565 S
C1044 H1011 0.929 . S
C1044 C1043 1.406 1_545 S
C1044 C1045 1.378 . S
C1045 H1012 1.014 . S
C1045 C1040 1.307 1_545 S
C1045 C1044 1.378 . S
C1046 N1020 1.435 . S
C1046 C1047 1.358 1_565 S
C1046 C1051 1.371 . S
C1047 H1013 0.930 . S
C1047 C1046 1.358 1_545 S
C1047 C1048 1.405 . S
C1048 H1014 0.932 . S
C1048 C1047 1.405 . S
C1048 C1049 1.383 . S
C1049 C1048 1.383 . S
C1049 C1050 1.393 1_545 S
C1050 H1015 0.931 . S
C1050 C1049 1.393 1_565 S
C1050 C1051 1.382 . S
C1051 H1016 0.929 . S
C1051 C1046 1.371 . S
C1051 C1050 1.382 . S
C1052 N1020 1.423 . S
C1052 C1053 1.362 . S
C1052 C1057 1.313 1_565 S
C1053 H1017 0.929 . S
C1053 C1052 1.362 . S
C1053 C1054 1.376 . S
C1054 H1018 0.931 . S
C1054 C1053 1.376 . S
C1054 C1055 1.396 . S
C1055 C1037 1.472 . S
C1055 C1054 1.396 . S
C1055 C1056 1.363 . S
C1056 H1019 0.894 1_565 S
C1056 C1055 1.363 . S
C1056 C1057 1.510 1_565 S
C1057 H1021 0.972 . S
C1057 C1052 1.313 1_545 S
C1057 C1056 1.510 1_545 S
H1058 C1085 0.929 . S
N1059 C1084 1.433 . S
N1059 C1090 1.435 . S
N1059 C1096 1.423 . S
H1060 C1086 0.930 . S
H1061 C1089 0.931 . S
H1062 C1088 0.929 . S
H1063 C1091 0.930 . S
H1064 C1092 0.932 . S
H1065 C1095 0.929 . S
H1066 C1094 0.931 . S
H1067 C1097 0.929 . S
H1068 C1101 0.932 1_455 S
H1069 C1098 0.931 . S
H1070 C1100 0.994 . S
H1071 C1103 0.929 . S
H1072 C1104 0.930 . S
H1073 C1106 0.929 . S
H1074 C1107 0.931 . S
H1075 C1109 0.930 . S
H1076 C1110 0.932 . S
H1077 C1112 0.931 . S
H1078 C1113 0.929 . S
H1079 C1115 0.929 . S
H1080 C1116 0.931 . S
H1081 C1118 0.943 . S
N1082 C1102 1.433 . S
N1082 C1108 1.435 . S
N1082 C1114 1.423 . S
H1083 C1119 0.932 1_455 S
C1084 N1059 1.433 . S
C1084 C1085 1.363 . S
C1084 C1089 1.370 1_655 S
C1085 H1058 0.929 . S
C1085 C1084 1.363 . S
C1085 C1086 1.385 . S
C1086 H1060 0.930 . S
C1086 C1085 1.385 . S
C1086 C1087 1.357 1_655 S
C1087 C1086 1.357 1_455 S
C1087 C1088 1.406 . S
C1088 H1062 0.929 . S
C1088 C1087 1.406 . S
C1088 C1089 1.391 . S
C1089 H1061 0.931 . S
C1089 C1084 1.370 1_455 S
C1089 C1088 1.391 . S
C1090 N1059 1.435 . S
C1090 C1091 1.358 1_655 S
C1090 C1095 1.371 . S
C1091 H1063 0.930 . S
C1091 C1090 1.358 1_455 S
C1091 C1092 1.405 . S
C1092 H1064 0.932 . S
C1092 C1091 1.405 . S
C1092 C1093 1.383 1_455 S
C1093 C1092 1.383 1_655 S
C1093 C1094 1.393 . S
C1094 H1066 0.931 . S
C1094 C1093 1.393 . S
C1094 C1095 1.382 . S
C1095 H1065 0.929 . S
C1095 C1090 1.371 . S
C1095 C1094 1.382 . S
C1096 N1059 1.423 . S
C1096 C1097 1.362 . S
C1096 C1101 1.388 . S
C1097 H1067 0.929 . S
C1097 C1096 1.362 . S
C1097 C1098 1.376 . S
C1098 H1069 0.931 . S
C1098 C1097 1.376 . S
C1098 C1099 1.396 . S
C1099 C1098 1.396 . S
C1099 C1100 1.348 . S
C1099 C1117 1.472 . S
C1100 H1070 0.994 . S
C1100 C1099 1.348 . S
C1100 C1101 1.443 . S
C1101 H1068 0.932 1_655 S
C1101 C1096 1.388 . S
C1101 C1100 1.443 . S
C1102 N1082 1.433 . S
C1102 C1103 1.363 . S
C1102 C1107 1.370 1_655 S
C1103 H1071 0.929 . S
C1103 C1102 1.363 . S
C1103 C1104 1.385 . S
C1104 H1072 0.930 . S
C1104 C1103 1.385 . S
C1104 C1105 1.357 1_655 S
C1105 C1104 1.357 1_455 S
C1105 C1106 1.406 . S
C1106 H1073 0.929 . S
C1106 C1105 1.406 . S
C1106 C1107 1.391 . S
C1107 H1074 0.931 . S
C1107 C1102 1.370 1_455 S
C1107 C1106 1.391 . S
C1108 N1082 1.435 . S
C1108 C1109 1.358 1_655 S
C1108 C1113 1.371 . S
C1109 H1075 0.930 . S
C1109 C1108 1.358 1_455 S
C1109 C1110 1.405 . S
C1110 H1076 0.932 . S
C1110 C1109 1.405 . S
C1110 C1111 1.383 1_455 S
C1111 C1110 1.383 1_655 S
C1111 C1112 1.393 . S
C1112 H1077 0.931 . S
C1112 C1111 1.393 . S
C1112 C1113 1.382 . S
C1113 H1078 0.929 . S
C1113 C1108 1.371 . S
C1113 C1112 1.382 . S
C1114 N1082 1.423 . S
C1114 C1115 1.362 . S
C1114 C1119 1.388 . S
C1115 H1079 0.929 . S
C1115 C1114 1.362 . S
C1115 C1116 1.376 . S
C1116 H1080 0.931 . S
C1116 C1115 1.376 . S
C1116 C1117 1.396 . S
C1117 C1099 1.472 . S
C1117 C1116 1.396 . S
C1117 C1118 1.348 . S
C1118 H1081 0.943 . S
C1118 C1117 1.348 . S
C1118 C1119 1.443 . S
C1119 H1083 0.932 1_655 S
C1119 C1114 1.388 . S
C1119 C1118 1.443 . S
H1120 C1147 0.929 . S
N1121 C1146 1.433 . S
N1121 C1152 1.435 . S
N1121 C1158 1.423 . S
H1122 C1148 0.930 . S
H1123 C1151 0.931 . S
H1124 C1150 0.929 . S
H1125 C1153 0.930 . S
H1126 C1154 0.932 . S
H1127 C1157 0.929 . S
H1128 C1156 0.931 . S
H1129 C1159 0.929 . S
H1130 C1163 0.932 . S
H1131 C1160 0.931 . S
H1132 C1162 0.929 . S
H1133 C1165 0.929 . S
H1134 C1166 0.930 . S
H1135 C1168 0.929 . S
H1136 C1169 0.931 . S
H1137 C1171 0.930 . S
H1138 C1172 0.932 . S
H1139 C1174 0.931 . S
H1140 C1175 0.929 . S
H1141 C1177 0.929 . S
H1142 C1178 0.931 . S
H1143 C1180 0.929 . S
N1144 C1164 1.433 . S
N1144 C1170 1.435 . S
N1144 C1176 1.423 . S
H1145 C1181 0.932 . S
C1146 N1121 1.433 . S
C1146 C1147 1.363 . S
C1146 C1151 1.370 . S
C1147 H1120 0.929 . S
C1147 C1146 1.363 . S
C1147 C1148 1.385 . S
C1148 H1122 0.930 . S
C1148 C1147 1.385 . S
C1148 C1149 1.357 . S
C1149 C1148 1.357 . S
C1149 C1150 1.406 . S
C1150 H1124 0.929 . S
C1150 C1149 1.406 . S
C1150 C1151 1.391 . S
C1151 H1123 0.931 . S
C1151 C1146 1.370 . S
C1151 C1150 1.391 . S
C1152 N1121 1.435 . S
C1152 C1153 1.358 . S
C1152 C1157 1.371 . S
C1153 H1125 0.930 . S
C1153 C1152 1.358 . S
C1153 C1154 1.405 . S
C1154 H1126 0.932 . S
C1154 C1153 1.405 . S
C1154 C1155 1.383 . S
C1155 C1154 1.383 . S
C1155 C1156 1.393 . S
C1156 H1128 0.931 . S
C1156 C1155 1.393 . S
C1156 C1157 1.382 . S
C1157 H1127 0.929 . S
C1157 C1152 1.371 . S
C1157 C1156 1.382 . S
C1158 N1121 1.423 . S
C1158 C1159 1.362 . S
C1158 C1163 1.388 . S
C1159 H1129 0.929 . S
C1159 C1158 1.362 . S
C1159 C1160 1.376 . S
C1160 H1131 0.931 . S
C1160 C1159 1.376 . S
C1160 C1161 1.396 . S
C1161 C1160 1.396 . S
C1161 C1162 1.348 . S
C1161 C1179 1.472 . S
C1162 H1132 0.929 . S
C1162 C1161 1.348 . S
C1162 C1163 1.443 . S
C1163 H1130 0.932 . S
C1163 C1158 1.388 . S
C1163 C1162 1.443 . S
C1164 N1144 1.433 . S
C1164 C1165 1.363 . S
C1164 C1169 1.370 . S
C1165 H1133 0.929 . S
C1165 C1164 1.363 . S
C1165 C1166 1.385 . S
C1166 H1134 0.930 . S
C1166 C1165 1.385 . S
C1166 C1167 1.357 . S
C1167 C1166 1.357 . S
C1167 C1168 1.406 . S
C1168 H1135 0.929 . S
C1168 C1167 1.406 . S
C1168 C1169 1.391 . S
C1169 H1136 0.931 . S
C1169 C1164 1.370 . S
C1169 C1168 1.391 . S
C1170 N1144 1.435 . S
C1170 C1171 1.358 . S
C1170 C1175 1.371 . S
C1171 H1137 0.930 . S
C1171 C1170 1.358 . S
C1171 C1172 1.405 . S
C1172 H1138 0.932 . S
C1172 C1171 1.405 . S
C1172 C1173 1.383 . S
C1173 C1172 1.383 . S
C1173 C1174 1.393 . S
C1174 H1139 0.931 . S
C1174 C1173 1.393 . S
C1174 C1175 1.382 . S
C1175 H1140 0.929 . S
C1175 C1170 1.371 . S
C1175 C1174 1.382 . S
C1176 N1144 1.423 . S
C1176 C1177 1.362 . S
C1176 C1181 1.388 . S
C1177 H1141 0.929 . S
C1177 C1176 1.362 . S
C1177 C1178 1.376 . S
C1178 H1142 0.931 . S
C1178 C1177 1.376 . S
C1178 C1179 1.396 . S
C1179 C1161 1.472 . S
C1179 C1178 1.396 . S
C1179 C1180 1.348 . S
C1180 H1143 0.929 . S
C1180 C1179 1.348 . S
C1180 C1181 1.443 . S
C1181 H1145 0.932 . S
C1181 C1176 1.388 . S
C1181 C1180 1.443 . S
H1182 C1209 0.929 . S
N1183 C1208 1.433 . S
N1183 C1214 1.435 . S
N1183 C1220 1.423 . S
H1184 C1210 0.930 . S
H1185 C1213 0.931 . S
H1186 C1212 0.929 . S
H1187 C1215 0.930 . S
H1188 C1216 0.932 . S
H1189 C1219 0.929 . S
H1190 C1218 0.931 . S
H1191 C1221 0.929 . S
H1192 C1225 0.932 . S
H1193 C1222 0.931 . S
H1194 C1224 0.929 . S
H1195 C1227 0.929 . S
H1196 C1228 0.930 . S
H1197 C1230 0.929 . S
H1198 C1231 0.931 . S
H1199 C1233 0.930 . S
H1200 C1234 0.932 . S
H1201 C1236 0.931 . S
H1202 C1237 0.929 . S
H1203 C1239 0.929 . S
H1204 C1240 0.931 . S
H1205 C1242 0.929 . S
N1206 C1226 1.433 . S
N1206 C1232 1.435 . S
N1206 C1238 1.423 . S
H1207 C1243 0.932 . S
C1208 N1183 1.433 . S
C1208 C1209 1.363 . S
C1208 C1213 1.370 . S
C1209 H1182 0.929 . S
C1209 C1208 1.363 . S
C1209 C1210 1.385 . S
C1210 H1184 0.930 . S
C1210 C1209 1.385 . S
C1210 C1211 1.357 . S
C1211 C1210 1.357 . S
C1211 C1212 1.406 . S
C1212 H1186 0.929 . S
C1212 C1211 1.406 . S
C1212 C1213 1.391 . S
C1213 H1185 0.931 . S
C1213 C1208 1.370 . S
C1213 C1212 1.391 . S
C1214 N1183 1.435 . S
C1214 C1215 1.358 . S
C1214 C1219 1.371 . S
C1215 H1187 0.930 . S
C1215 C1214 1.358 . S
C1215 C1216 1.405 . S
C1216 H1188 0.932 . S
C1216 C1215 1.405 . S
C1216 C1217 1.383 . S
C1217 C1216 1.383 . S
C1217 C1218 1.393 . S
C1218 H1190 0.931 . S
C1218 C1217 1.393 . S
C1218 C1219 1.382 . S
C1219 H1189 0.929 . S
C1219 C1214 1.371 . S
C1219 C1218 1.382 . S
C1220 N1183 1.423 . S
C1220 C1221 1.362 . S
C1220 C1225 1.388 . S
C1221 H1191 0.929 . S
C1221 C1220 1.362 . S
C1221 C1222 1.376 . S
C1222 H1193 0.931 . S
C1222 C1221 1.376 . S
C1222 C1223 1.396 . S
C1223 C1222 1.396 . S
C1223 C1224 1.348 . S
C1223 C1241 1.472 . S
C1224 H1194 0.929 . S
C1224 C1223 1.348 . S
C1224 C1225 1.443 . S
C1225 H1192 0.932 . S
C1225 C1220 1.388 . S
C1225 C1224 1.443 . S
C1226 N1206 1.433 . S
C1226 C1227 1.363 . S
C1226 C1231 1.370 . S
C1227 H1195 0.929 . S
C1227 C1226 1.363 . S
C1227 C1228 1.385 . S
C1228 H1196 0.930 . S
C1228 C1227 1.385 . S
C1228 C1229 1.357 . S
C1229 C1228 1.357 . S
C1229 C1230 1.406 . S
C1230 H1197 0.929 . S
C1230 C1229 1.406 . S
C1230 C1231 1.391 . S
C1231 H1198 0.931 . S
C1231 C1226 1.370 . S
C1231 C1230 1.391 . S
C1232 N1206 1.435 . S
C1232 C1233 1.358 . S
C1232 C1237 1.371 . S
C1233 H1199 0.930 . S
C1233 C1232 1.358 . S
C1233 C1234 1.405 . S
C1234 H1200 0.932 . S
C1234 C1233 1.405 . S
C1234 C1235 1.383 . S
C1235 C1234 1.383 . S
C1235 C1236 1.393 . S
C1236 H1201 0.931 . S
C1236 C1235 1.393 . S
C1236 C1237 1.382 . S
C1237 H1202 0.929 . S
C1237 C1232 1.371 . S
C1237 C1236 1.382 . S
C1238 N1206 1.423 . S
C1238 C1239 1.362 . S
C1238 C1243 1.388 . S
C1239 H1203 0.929 . S
C1239 C1238 1.362 . S
C1239 C1240 1.376 . S
C1240 H1204 0.931 . S
C1240 C1239 1.376 . S
C1240 C1241 1.396 . S
C1241 C1223 1.472 . S
C1241 C1240 1.396 . S
C1241 C1242 1.348 . S
C1242 H1205 0.929 . S
C1242 C1241 1.348 . S
C1242 C1243 1.443 . S
C1243 H1207 0.932 . S
C1243 C1238 1.388 . S
C1243 C1242 1.443 . S
H1244 C1271 0.929 . S
N1245 C1270 1.433 . S
N1245 C1276 1.435 . S
N1245 C1282 1.423 . S
H1246 C1272 0.930 . S
H1247 C1275 0.931 . S
H1248 C1274 0.929 . S
H1249 C1277 0.930 . S
H1250 C1278 0.932 . S
H1251 C1281 0.929 . S
H1252 C1280 0.931 . S
H1253 C1283 0.929 . S
H1254 C1287 0.932 . S
H1255 C1284 0.931 . S
H1256 C1286 0.929 . S
H1257 C1289 0.929 . S
H1258 C1290 0.930 . S
H1259 C1292 0.929 . S
H1260 C1293 0.931 . S
H1261 C1295 0.930 . S
H1262 C1296 0.932 . S
H1263 C1298 0.931 . S
H1264 C1299 0.929 . S
H1265 C1301 0.929 . S
H1266 C1302 0.931 . S
H1267 C1304 0.929 . S
N1268 C1288 1.433 . S
N1268 C1294 1.435 . S
N1268 C1300 1.423 . S
H1269 C1305 0.932 . S
C1270 N1245 1.433 . S
C1270 C1271 1.363 . S
C1270 C1275 1.370 . S
C1271 H1244 0.929 . S
C1271 C1270 1.363 . S
C1271 C1272 1.385 . S
C1272 H1246 0.930 . S
C1272 C1271 1.385 . S
C1272 C1273 1.357 . S
C1273 C1272 1.357 . S
C1273 C1274 1.406 . S
C1274 H1248 0.929 . S
C1274 C1273 1.406 . S
C1274 C1275 1.391 . S
C1275 H1247 0.931 . S
C1275 C1270 1.370 . S
C1275 C1274 1.391 . S
C1276 N1245 1.435 . S
C1276 C1277 1.358 . S
C1276 C1281 1.371 . S
C1277 H1249 0.930 . S
C1277 C1276 1.358 . S
C1277 C1278 1.405 . S
C1278 H1250 0.932 . S
C1278 C1277 1.405 . S
C1278 C1279 1.383 . S
C1279 C1278 1.383 . S
C1279 C1280 1.393 . S
C1280 H1252 0.931 . S
C1280 C1279 1.393 . S
C1280 C1281 1.382 . S
C1281 H1251 0.929 . S
C1281 C1276 1.371 . S
C1281 C1280 1.382 . S
C1282 N1245 1.423 . S
C1282 C1283 1.362 . S
C1282 C1287 1.388 . S
C1283 H1253 0.929 . S
C1283 C1282 1.362 . S
C1283 C1284 1.376 . S
C1284 H1255 0.931 . S
C1284 C1283 1.376 . S
C1284 C1285 1.396 . S
C1285 C1284 1.396 . S
C1285 C1286 1.348 . S
C1285 C1303 1.472 . S
C1286 H1256 0.929 . S
C1286 C1285 1.348 . S
C1286 C1287 1.443 . S
C1287 H1254 0.932 . S
C1287 C1282 1.388 . S
C1287 C1286 1.443 . S
C1288 N1268 1.433 . S
C1288 C1289 1.363 . S
C1288 C1293 1.370 . S
C1289 H1257 0.929 . S
C1289 C1288 1.363 . S
C1289 C1290 1.385 . S
C1290 H1258 0.930 . S
C1290 C1289 1.385 . S
C1290 C1291 1.357 . S
C1291 C1290 1.357 . S
C1291 C1292 1.406 . S
C1292 H1259 0.929 . S
C1292 C1291 1.406 . S
C1292 C1293 1.391 . S
C1293 H1260 0.931 . S
C1293 C1288 1.370 . S
C1293 C1292 1.391 . S
C1294 N1268 1.435 . S
C1294 C1295 1.358 . S
C1294 C1299 1.371 . S
C1295 H1261 0.930 . S
C1295 C1294 1.358 . S
C1295 C1296 1.405 . S
C1296 H1262 0.932 . S
C1296 C1295 1.405 . S
C1296 C1297 1.383 . S
C1297 C1296 1.383 . S
C1297 C1298 1.393 . S
C1298 H1263 0.931 . S
C1298 C1297 1.393 . S
C1298 C1299 1.382 . S
C1299 H1264 0.929 . S
C1299 C1294 1.371 . S
C1299 C1298 1.382 . S
C1300 N1268 1.423 . S
C1300 C1301 1.362 . S
C1300 C1305 1.388 . S
C1301 H1265 0.929 . S
C1301 C1300 1.362 . S
C1301 C1302 1.376 . S
C1302 H1266 0.931 . S
C1302 C1301 1.376 . S
C1302 C1303 1.396 . S
C1303 C1285 1.472 . S
C1303 C1302 1.396 . S
C1303 C1304 1.348 . S
C1304 H1267 0.929 . S
C1304 C1303 1.348 . S
C1304 C1305 1.443 . S
C1305 H1269 0.932 . S
C1305 C1300 1.388 . S
C1305 C1304 1.443 . S
H1306 C1333 0.929 . S
N1307 C1332 1.433 . S
N1307 C1338 1.435 . S
N1307 C1344 1.423 . S
H1308 C1334 0.930 . S
H1309 C1337 0.931 . S
H1310 C1336 0.929 . S
H1311 C1339 0.930 . S
H1312 C1340 0.932 . S
H1313 C1343 0.929 . S
H1314 C1342 0.931 . S
H1315 C1345 0.929 . S
H1316 C1349 0.932 . S
H1317 C1346 0.931 . S
H1318 C1348 0.929 . S
H1319 C1351 0.929 . S
H1320 C1352 0.930 . S
H1321 C1354 0.929 . S
H1322 C1355 0.931 . S
H1323 C1357 0.930 . S
H1324 C1358 0.932 . S
H1325 C1360 0.931 . S
H1326 C1361 0.929 . S
H1327 C1363 0.929 . S
H1328 C1364 0.931 . S
H1329 C1366 0.929 . S
N1330 C1350 1.433 . S
N1330 C1356 1.435 . S
N1330 C1362 1.423 . S
H1331 C1367 0.932 . S
C1332 N1307 1.433 . S
C1332 C1333 1.363 . S
C1332 C1337 1.370 . S
C1333 H1306 0.929 . S
C1333 C1332 1.363 . S
C1333 C1334 1.385 . S
C1334 H1308 0.930 . S
C1334 C1333 1.385 . S
C1334 C1335 1.357 . S
C1335 C1334 1.357 . S
C1335 C1336 1.406 . S
C1336 H1310 0.929 . S
C1336 C1335 1.406 . S
C1336 C1337 1.391 . S
C1337 H1309 0.931 . S
C1337 C1332 1.370 . S
C1337 C1336 1.391 . S
C1338 N1307 1.435 . S
C1338 C1339 1.358 . S
C1338 C1343 1.371 . S
C1339 H1311 0.930 . S
C1339 C1338 1.358 . S
C1339 C1340 1.405 . S
C1340 H1312 0.932 . S
C1340 C1339 1.405 . S
C1340 C1341 1.383 . S
C1341 C1340 1.383 . S
C1341 C1342 1.393 . S
C1342 H1314 0.931 . S
C1342 C1341 1.393 . S
C1342 C1343 1.382 . S
C1343 H1313 0.929 . S
C1343 C1338 1.371 . S
C1343 C1342 1.382 . S
C1344 N1307 1.423 . S
C1344 C1345 1.362 . S
C1344 C1349 1.388 . S
C1345 H1315 0.929 . S
C1345 C1344 1.362 . S
C1345 C1346 1.376 . S
C1346 H1317 0.931 . S
C1346 C1345 1.376 . S
C1346 C1347 1.396 . S
C1347 C1346 1.396 . S
C1347 C1348 1.348 . S
C1347 C1365 1.472 . S
C1348 H1318 0.929 . S
C1348 C1347 1.348 . S
C1348 C1349 1.443 . S
C1349 H1316 0.932 . S
C1349 C1344 1.388 . S
C1349 C1348 1.443 . S
C1350 N1330 1.433 . S
C1350 C1351 1.363 . S
C1350 C1355 1.370 . S
C1351 H1319 0.929 . S
C1351 C1350 1.363 . S
C1351 C1352 1.385 . S
C1352 H1320 0.930 . S
C1352 C1351 1.385 . S
C1352 C1353 1.357 . S
C1353 C1352 1.357 . S
C1353 C1354 1.406 . S
C1354 H1321 0.929 . S
C1354 C1353 1.406 . S
C1354 C1355 1.391 . S
C1355 H1322 0.931 . S
C1355 C1350 1.370 . S
C1355 C1354 1.391 . S
C1356 N1330 1.435 . S
C1356 C1357 1.358 . S
C1356 C1361 1.371 . S
C1357 H1323 0.930 . S
C1357 C1356 1.358 . S
C1357 C1358 1.405 . S
C1358 H1324 0.932 . S
C1358 C1357 1.405 . S
C1358 C1359 1.383 . S
C1359 C1358 1.383 . S
C1359 C1360 1.393 . S
C1360 H1325 0.931 . S
C1360 C1359 1.393 . S
C1360 C1361 1.382 . S
C1361 H1326 0.929 . S
C1361 C1356 1.371 . S
C1361 C1360 1.382 . S
C1362 N1330 1.423 . S
C1362 C1363 1.362 . S
C1362 C1367 1.388 . S
C1363 H1327 0.929 . S
C1363 C1362 1.362 . S
C1363 C1364 1.376 . S
C1364 H1328 0.931 . S
C1364 C1363 1.376 . S
C1364 C1365 1.396 . S
C1365 C1347 1.472 . S
C1365 C1364 1.396 . S
C1365 C1366 1.348 . S
C1366 H1329 0.929 . S
C1366 C1365 1.348 . S
C1366 C1367 1.443 . S
C1367 H1331 0.932 . S
C1367 C1362 1.388 . S
C1367 C1366 1.443 . S
H1368 C1376 0.929 . S
H1369 C1378 0.930 . S
H1370 C1380 0.930 . S
H1371 C1383 0.929 . S
H1372 C1386 0.930 . S
H1373 C1388 0.960 . S
H1374 C1388 0.960 . S
H1375 C1388 0.960 . S
C1376 H1368 0.929 . S
C1376 C1377 1.364 1_455 S
C1376 C1378 1.384 . S
C1377 C1376 1.364 1_655 S
C1377 C1383 1.425 . S
C1378 H1369 0.930 . S
C1378 C1376 1.384 . S
C1378 C1379 1.372 1_455 S
C1379 C1378 1.372 1_655 S
C1379 C1380 1.400 . S
C1379 C1384 1.490 . S
C1380 H1370 0.930 . S
C1380 C1379 1.400 . S
C1380 C1383 1.386 . S
H1381 C1397 0.930 . S
H1382 C1398 0.931 . S
C1383 H1371 0.929 . S
C1383 C1377 1.425 . S
C1383 C1380 1.386 . S
C1384 C1379 1.490 . S
C1384 C1386 1.395 1_655 S
C1384 C1387 1.403 . S
H1385 C1391 0.930 . S
C1386 H1372 0.930 . S
C1386 C1384 1.395 1_455 S
C1386 C1389 1.403 . S
C1387 C1384 1.403 . S
C1387 C1388 1.524 . S
C1387 C1391 1.400 . S
C1388 H1373 0.960 . S
C1388 H1374 0.960 . S
C1388 H1375 0.960 . S
C1388 C1387 1.524 . S
C1389 C1386 1.403 . S
C1389 C1390 1.379 1_455 S
C1389 C1393 1.495 . S
C1390 C1389 1.379 1_655 S
C1390 C1391 1.393 . S
C1390 C1392 1.463 . S
C1391 H1385 0.930 . S
C1391 C1387 1.400 . S
C1391 C1390 1.393 . S
C1392 C1390 1.463 . S
C1392 C1394 1.367 1_655 S
C1392 C1398 1.415 . S
C1393 C1389 1.495 . S
C1393 H1399 0.959 . S
C1393 H1400 0.961 . S
C1393 H1401 0.960 . S
C1394 C1392 1.367 1_455 S
C1394 C1395 1.338 1_455 S
C1394 H1402 0.975 . S
C1395 C1394 1.338 1_655 S
C1395 C1396 1.423 . S
C1395 H1403 0.922 1_655 S
C1396 C1395 1.423 . S
C1396 C1397 1.377 . S
C1397 H1381 0.930 . S
C1397 C1396 1.377 . S
C1397 C1398 1.379 . S
C1398 H1382 0.931 . S
C1398 C1392 1.415 . S
C1398 C1397 1.379 . S
H1399 C1393 0.959 . S
H1400 C1393 0.961 . S
H1401 C1393 0.960 . S
H1402 C1394 0.975 . S
H1403 C1395 0.922 1_455 S
H1404 C1412 0.929 . S
H1405 C1414 0.930 . S
H1406 C1416 0.930 . S
H1407 C1419 0.929 . S
H1408 C1422 0.930 . S
H1409 C1424 0.960 . S
H1410 C1424 0.960 . S
H1411 C1424 0.960 . S
C1412 H1404 0.929 . S
C1412 C1413 1.377 . S
C1412 C1414 1.384 . S
C1413 C1412 1.377 . S
C1413 C1419 1.390 . S
C1414 H1405 0.930 . S
C1414 C1412 1.384 . S
C1414 C1415 1.372 . S
C1415 C1414 1.372 . S
C1415 C1416 1.400 . S
C1415 C1420 1.490 . S
C1416 H1406 0.930 . S
C1416 C1415 1.400 . S
C1416 C1419 1.386 . S
H1417 C1433 0.930 . S
H1418 C1434 0.931 . S
C1419 H1407 0.929 . S
C1419 C1413 1.390 . S
C1419 C1416 1.386 . S
C1420 C1415 1.490 . S
C1420 C1422 1.395 . S
C1420 C1423 1.403 . S
H1421 C1427 0.930 . S
C1422 H1408 0.930 . S
C1422 C1420 1.395 . S
C1422 C1425 1.403 . S
C1423 C1420 1.403 . S
C1423 C1424 1.524 . S
C1423 C1427 1.400 . S
C1424 H1409 0.960 . S
C1424 H1410 0.960 . S
C1424 H1411 0.960 . S
C1424 C1423 1.524 . S
C1425 C1422 1.403 . S
C1425 C1426 1.392 . S
C1425 C1429 1.495 . S
C1426 C1425 1.392 . S
C1426 C1427 1.385 . S
C1426 C1428 1.478 . S
C1427 H1421 0.930 . S
C1427 C1423 1.400 . S
C1427 C1426 1.385 . S
C1428 C1426 1.478 . S
C1428 C1430 1.381 . S
C1428 C1434 1.383 . S
C1429 C1425 1.495 . S
C1429 H1435 0.959 . S
C1429 H1436 0.961 . S
C1429 H1437 0.960 . S
C1430 C1428 1.381 . S
C1430 C1431 1.394 . S
C1430 H1438 0.930 . S
C1431 C1430 1.394 . S
C1431 C1432 1.383 . S
C1431 H1439 0.929 . S
C1432 C1431 1.383 . S
C1432 C1433 1.377 . S
C1433 H1417 0.930 . S
C1433 C1432 1.377 . S
C1433 C1434 1.379 . S
C1434 H1418 0.931 . S
C1434 C1428 1.383 . S
C1434 C1433 1.379 . S
H1435 C1429 0.959 . S
H1436 C1429 0.961 . S
H1437 C1429 0.960 . S
H1438 C1430 0.930 . S
H1439 C1431 0.929 . S
H1440 C1448 0.929 . S
H1441 C1450 0.930 . S
H1442 C1452 0.930 . S
H1443 C1455 0.929 . S
H1444 C1458 0.930 . S
H1445 C1460 0.960 . S
H1446 C1460 0.960 . S
H1447 C1460 0.960 . S
C1448 H1440 0.929 . S
C1448 C1449 1.377 . S
C1448 C1450 1.384 . S
C1449 C1448 1.377 . S
C1449 C1455 1.390 . S
C1450 H1441 0.930 . S
C1450 C1448 1.384 . S
C1450 C1451 1.372 . S
C1451 C1450 1.372 . S
C1451 C1452 1.400 . S
C1451 C1456 1.490 . S
C1452 H1442 0.930 . S
C1452 C1451 1.400 . S
C1452 C1455 1.386 . S
H1453 C1469 0.930 . S
H1454 C1470 0.931 . S
C1455 H1443 0.929 . S
C1455 C1449 1.390 . S
C1455 C1452 1.386 . S
C1456 C1451 1.490 . S
C1456 C1458 1.395 . S
C1456 C1459 1.403 1_545 S
H1457 C1463 0.930 . S
C1458 H1444 0.930 . S
C1458 C1456 1.395 . S
C1458 C1461 1.403 . S
C1459 C1456 1.403 1_565 S
C1459 C1460 1.524 . S
C1459 C1463 1.400 . S
C1460 H1445 0.960 . S
C1460 H1446 0.960 . S
C1460 H1447 0.960 . S
C1460 C1459 1.524 . S
C1461 C1458 1.403 . S
C1461 C1462 1.392 . S
C1461 C1465 1.495 . S
C1462 C1461 1.392 . S
C1462 C1463 1.385 1_545 S
C1462 C1464 1.478 . S
C1463 H1457 0.930 . S
C1463 C1459 1.400 . S
C1463 C1462 1.385 1_565 S
C1464 C1462 1.478 . S
C1464 C1466 1.381 . S
C1464 C1470 1.383 . S
C1465 C1461 1.495 . S
C1465 H1471 0.959 . S
C1465 H1472 0.961 . S
C1465 H1473 0.960 . S
C1466 C1464 1.381 . S
C1466 C1467 1.394 . S
C1466 H1474 0.930 . S
C1467 C1466 1.394 . S
C1467 C1468 1.383 . S
C1467 H1475 0.929 . S
C1468 C1467 1.383 . S
C1468 C1469 1.377 . S
C1469 H1453 0.930 . S
C1469 C1468 1.377 . S
C1469 C1470 1.379 . S
C1470 H1454 0.931 . S
C1470 C1464 1.383 . S
C1470 C1469 1.379 . S
H1471 C1465 0.959 . S
H1472 C1465 0.961 . S
H1473 C1465 0.960 . S
H1474 C1466 0.930 . S
H1475 C1467 0.929 . S
H1476 C1484 0.929 . S
H1477 C1486 0.930 . S
H1478 C1488 0.930 . S
H1479 C1491 0.929 . S
H1480 C1494 0.930 . S
H1481 C1496 0.961 1_545 S
H1482 C1496 0.943 1_545 S
H1483 C1496 0.967 . S
C1484 H1476 0.929 . S
C1484 C1485 1.377 1_545 S
C1484 C1486 1.384 . S
C1485 C1484 1.377 1_565 S
C1485 C1491 1.390 . S
C1486 H1477 0.930 . S
C1486 C1484 1.384 . S
C1486 C1487 1.372 1_545 S
C1487 C1486 1.372 1_565 S
C1487 C1488 1.400 . S
C1487 C1492 1.490 . S
C1488 H1478 0.930 . S
C1488 C1487 1.400 . S
C1488 C1491 1.386 . S
H1489 C1505 0.930 . S
H1490 C1506 0.931 . S
C1491 H1479 0.929 . S
C1491 C1485 1.390 . S
C1491 C1488 1.386 . S
C1492 C1487 1.490 . S
C1492 C1494 1.395 . S
C1492 C1495 1.403 . S
H1493 C1499 0.930 . S
C1494 H1480 0.930 . S
C1494 C1492 1.395 . S
C1494 C1497 1.403 . S
C1495 C1492 1.403 . S
C1495 C1496 1.535 . S
C1495 C1499 1.400 . S
C1496 H1481 0.961 1_565 S
C1496 H1482 0.943 1_565 S
C1496 H1483 0.967 . S
C1496 C1495 1.535 . S
C1497 C1494 1.403 . S
C1497 C1498 1.392 . S
C1497 C1501 1.495 . S
C1498 C1497 1.392 . S
C1498 C1499 1.385 . S
C1498 C1500 1.478 . S
C1499 H1493 0.930 . S
C1499 C1495 1.400 . S
C1499 C1498 1.385 . S
C1500 C1498 1.478 . S
C1500 C1502 1.381 1_565 S
C1500 C1506 1.383 . S
C1501 C1497 1.495 . S
C1501 H1507 0.959 . S
C1501 H1508 0.961 . S
C1501 H1509 0.960 . S
C1502 C1500 1.381 1_545 S
C1502 C1503 1.394 . S
C1502 H1510 0.930 . S
C1503 C1502 1.394 . S
C1503 C1504 1.383 1_545 S
C1503 H1511 0.929 . S
C1504 C1503 1.383 1_565 S
C1504 C1505 1.377 . S
C1505 H1489 0.930 . S
C1505 C1504 1.377 . S
C1505 C1506 1.379 . S
C1506 H1490 0.931 . S
C1506 C1500 1.383 . S
C1506 C1505 1.379 . S
H1507 C1501 0.959 . S
H1508 C1501 0.961 . S
H1509 C1501 0.960 . S
H1510 C1502 0.930 . S
H1511 C1503 0.929 . S
H1512 C1520 0.929 . S
H1513 C1522 0.930 . S
H1514 C1524 0.930 . S
H1515 C1527 0.929 . S
H1516 C1530 0.930 . S
H1517 C1532 0.960 . S
H1518 C1532 0.960 . S
H1519 C1532 0.960 . S
C1520 H1512 0.929 . S
C1520 C1521 1.377 . S
C1520 C1522 1.384 . S
C1521 C1520 1.377 . S
C1521 C1527 1.390 . S
C1522 H1513 0.930 . S
C1522 C1520 1.384 . S
C1522 C1523 1.372 . S
C1523 C1522 1.372 . S
C1523 C1524 1.400 . S
C1523 C1528 1.490 . S
C1524 H1514 0.930 . S
C1524 C1523 1.400 . S
C1524 C1527 1.386 . S
H1525 C1541 0.930 . S
H1526 C1542 0.931 . S
C1527 H1515 0.929 . S
C1527 C1521 1.390 . S
C1527 C1524 1.386 . S
C1528 C1523 1.490 . S
C1528 C1530 1.395 . S
C1528 C1531 1.403 1_455 S
H1529 C1535 0.930 . S
C1530 H1516 0.930 . S
C1530 C1528 1.395 . S
C1530 C1533 1.403 . S
C1531 C1528 1.403 1_655 S
C1531 C1532 1.524 . S
C1531 C1535 1.400 . S
C1532 H1517 0.960 . S
C1532 H1518 0.960 . S
C1532 H1519 0.960 . S
C1532 C1531 1.524 . S
C1533 C1530 1.403 . S
C1533 C1534 1.392 . S
C1533 C1537 1.495 . S
C1534 C1533 1.392 . S
C1534 C1535 1.385 1_455 S
C1534 C1536 1.478 . S
C1535 H1529 0.930 . S
C1535 C1531 1.400 . S
C1535 C1534 1.385 1_655 S
C1536 C1534 1.478 . S
C1536 C1538 1.381 . S
C1536 C1542 1.383 . S
C1537 C1533 1.495 . S
C1537 H1543 0.959 . S
C1537 H1544 0.961 . S
C1537 H1545 0.960 . S
C1538 C1536 1.381 . S
C1538 C1539 1.394 . S
C1538 H1546 0.930 . S
C1539 C1538 1.394 . S
C1539 C1540 1.383 . S
C1539 H1547 0.929 . S
C1540 C1539 1.383 . S
C1540 C1541 1.377 . S
C1541 H1525 0.930 . S
C1541 C1540 1.377 . S
C1541 C1542 1.379 . S
C1542 H1526 0.931 . S
C1542 C1536 1.383 . S
C1542 C1541 1.379 . S
H1543 C1537 0.959 . S
H1544 C1537 0.961 . S
H1545 C1537 0.960 . S
H1546 C1538 0.930 . S
H1547 C1539 0.929 . S
H1548 C1556 0.929 . S
H1549 C1558 0.930 . S
H1550 C1560 0.930 . S
H1551 C1563 0.929 . S
H1552 C1566 0.930 . S
H1553 C1568 0.960 . S
H1554 C1568 0.960 . S
H1555 C1568 0.960 . S
C1556 H1548 0.929 . S
C1556 C1557 1.377 . S
C1556 C1558 1.384 . S
C1557 C1556 1.377 . S
C1557 C1563 1.390 . S
C1558 H1549 0.930 . S
C1558 C1556 1.384 . S
C1558 C1559 1.372 . S
C1559 C1558 1.372 . S
C1559 C1560 1.400 . S
C1559 C1564 1.490 . S
C1560 H1550 0.930 . S
C1560 C1559 1.400 . S
C1560 C1563 1.386 . S
H1561 C1577 0.930 . S
H1562 C1578 0.931 . S
C1563 H1551 0.929 . S
C1563 C1557 1.390 . S
C1563 C1560 1.386 . S
C1564 C1559 1.490 . S
C1564 C1566 1.395 . S
C1564 C1567 1.403 . S
H1565 C1571 0.930 . S
C1566 H1552 0.930 . S
C1566 C1564 1.395 . S
C1566 C1569 1.403 . S
C1567 C1564 1.403 . S
C1567 C1568 1.524 . S
C1567 C1571 1.400 . S
C1568 H1553 0.960 . S
C1568 H1554 0.960 . S
C1568 H1555 0.960 . S
C1568 C1567 1.524 . S
C1569 C1566 1.403 . S
C1569 C1570 1.392 . S
C1569 C1573 1.495 . S
C1570 C1569 1.392 . S
C1570 C1571 1.385 . S
C1570 C1572 1.478 . S
C1571 H1565 0.930 . S
C1571 C1567 1.400 . S
C1571 C1570 1.385 . S
C1572 C1570 1.478 . S
C1572 C1574 1.381 . S
C1572 C1578 1.383 . S
C1573 C1569 1.495 . S
C1573 H1579 0.959 . S
C1573 H1580 0.961 . S
C1573 H1581 0.960 . S
C1574 C1572 1.381 . S
C1574 C1575 1.394 . S
C1574 H1582 0.930 . S
C1575 C1574 1.394 . S
C1575 C1576 1.383 . S
C1575 H1583 0.929 . S
C1576 C1575 1.383 . S
C1576 C1577 1.377 . S
C1577 H1561 0.930 . S
C1577 C1576 1.377 . S
C1577 C1578 1.379 . S
C1578 H1562 0.931 . S
C1578 C1572 1.383 . S
C1578 C1577 1.379 . S
H1579 C1573 0.959 . S
H1580 C1573 0.961 . S
H1581 C1573 0.960 . S
H1582 C1574 0.930 . S
H1583 C1575 0.929 . S
H1584 C1592 0.929 . S
H1585 C1594 0.930 . S
H1586 C1596 0.930 . S
H1587 C1599 0.929 . S
H1588 C1602 0.930 . S
H1589 C1604 0.960 . S
H1590 C1604 0.960 . S
H1591 C1604 0.960 . S
C1592 H1584 0.929 . S
C1592 C1593 1.377 1_655 S
C1592 C1594 1.384 . S
C1593 C1592 1.377 1_455 S
C1593 C1599 1.390 . S
C1594 H1585 0.930 . S
C1594 C1592 1.384 . S
C1594 C1595 1.372 1_655 S
C1595 C1594 1.372 1_455 S
C1595 C1596 1.400 . S
C1595 C1600 1.490 . S
C1596 H1586 0.930 . S
C1596 C1595 1.400 . S
C1596 C1599 1.386 . S
H1597 C1613 0.930 . S
H1598 C1614 0.931 . S
C1599 H1587 0.929 . S
C1599 C1593 1.390 . S
C1599 C1596 1.386 . S
C1600 C1595 1.490 . S
C1600 C1602 1.395 1_455 S
C1600 C1603 1.403 . S
H1601 C1607 0.930 . S
C1602 H1588 0.930 . S
C1602 C1600 1.395 1_655 S
C1602 C1605 1.403 . S
C1603 C1600 1.403 . S
C1603 C1604 1.524 . S
C1603 C1607 1.400 . S
C1604 H1589 0.960 . S
C1604 H1590 0.960 . S
C1604 H1591 0.960 . S
C1604 C1603 1.524 . S
C1605 C1602 1.403 . S
C1605 C1606 1.392 1_655 S
C1605 C1609 1.495 . S
C1606 C1605 1.392 1_455 S
C1606 C1607 1.385 . S
C1606 C1608 1.478 . S
C1607 H1601 0.930 . S
C1607 C1603 1.400 . S
C1607 C1606 1.385 . S
C1608 C1606 1.478 . S
C1608 C1610 1.381 1_455 S
C1608 C1614 1.383 . S
C1609 C1605 1.495 . S
C1609 H1615 0.959 . S
C1609 H1616 0.961 . S
C1609 H1617 0.960 . S
C1610 C1608 1.381 1_655 S
C1610 C1611 1.394 . S
C1610 H1618 0.930 . S
C1611 C1610 1.394 . S
C1611 C1612 1.383 1_655 S
C1611 H1619 0.929 . S
C1612 C1611 1.383 1_455 S
C1612 C1613 1.377 . S
C1613 H1597 0.930 . S
C1613 C1612 1.377 . S
C1613 C1614 1.379 . S
C1614 H1598 0.931 . S
C1614 C1608 1.383 . S
C1614 C1613 1.379 . S
H1615 C1609 0.959 . S
H1616 C1609 0.961 . S
H1617 C1609 0.960 . S
H1618 C1610 0.930 . S
H1619 C1611 0.929 . S
H1620 C1628 0.929 . S
H1621 C1630 0.930 . S
H1622 C1632 0.930 . S
H1623 C1635 0.929 . S
H1624 C1638 0.930 . S
H1625 C1640 0.960 . S
H1626 C1640 0.960 . S
H1627 C1640 0.960 . S
C1628 H1620 0.929 . S
C1628 C1629 1.377 . S
C1628 C1630 1.384 . S
C1629 C1628 1.377 . S
C1629 C1635 1.390 . S
C1630 H1621 0.930 . S
C1630 C1628 1.384 . S
C1630 C1631 1.372 . S
C1631 C1630 1.372 . S
C1631 C1632 1.400 . S
C1631 C1636 1.490 . S
C1632 H1622 0.930 . S
C1632 C1631 1.400 . S
C1632 C1635 1.386 . S
H1633 C1649 0.930 . S
H1634 C1650 0.931 . S
C1635 H1623 0.929 . S
C1635 C1629 1.390 . S
C1635 C1632 1.386 . S
C1636 C1631 1.490 . S
C1636 C1638 1.395 . S
C1636 C1639 1.403 . S
H1637 C1643 0.930 . S
C1638 H1624 0.930 . S
C1638 C1636 1.395 . S
C1638 C1641 1.403 . S
C1639 C1636 1.403 . S
C1639 C1640 1.524 . S
C1639 C1643 1.400 . S
C1640 H1625 0.960 . S
C1640 H1626 0.960 . S
C1640 H1627 0.960 . S
C1640 C1639 1.524 . S
C1641 C1638 1.403 . S
C1641 C1642 1.392 . S
C1641 C1645 1.495 . S
C1642 C1641 1.392 . S
C1642 C1643 1.385 . S
C1642 C1644 1.478 . S
C1643 H1637 0.930 . S
C1643 C1639 1.400 . S
C1643 C1642 1.385 . S
C1644 C1642 1.478 . S
C1644 C1646 1.381 . S
C1644 C1650 1.383 . S
C1645 C1641 1.495 . S
C1645 H1651 0.959 . S
C1645 H1652 0.961 . S
C1645 H1653 0.960 . S
C1646 C1644 1.381 . S
C1646 C1647 1.394 . S
C1646 H1654 0.930 . S
C1647 C1646 1.394 . S
C1647 C1648 1.383 . S
C1647 H1655 0.929 . S
C1648 C1647 1.383 . S
C1648 C1649 1.377 . S
C1649 H1633 0.930 . S
C1649 C1648 1.377 . S
C1649 C1650 1.379 . S
C1650 H1634 0.931 . S
C1650 C1644 1.383 . S
C1650 C1649 1.379 . S
H1651 C1645 0.959 . S
H1652 C1645 0.961 . S
H1653 C1645 0.960 . S
H1654 C1646 0.930 . S
H1655 C1647 0.929 . S
H1656 C1664 0.929 . S
H1657 C1666 0.930 . S
H1658 C1668 0.930 . S
H1659 C1671 0.929 . S
H1660 C1674 0.930 . S
H1661 C1676 0.960 . S
H1662 C1676 0.960 . S
H1663 C1676 0.960 . S
C1664 H1656 0.929 . S
C1664 C1665 1.280 1_545 S
C1664 C1666 1.384 . S
C1665 C1664 1.280 1_565 S
C1665 C1671 1.450 . S
C1666 H1657 0.930 . S
C1666 C1664 1.384 . S
C1666 C1667 1.372 1_545 S
C1667 C1666 1.372 1_565 S
C1667 C1668 1.400 . S
C1667 C1672 1.490 . S
C1668 H1658 0.930 . S
C1668 C1667 1.400 . S
C1668 C1671 1.386 . S
H1669 C1685 0.930 . S
H1670 C1686 0.931 . S
C1671 H1659 0.929 . S
C1671 C1665 1.450 . S
C1671 C1668 1.386 . S
C1672 C1667 1.490 . S
C1672 C1674 1.395 1_565 S
C1672 C1675 1.403 . S
H1673 C1679 0.930 . S
C1674 H1660 0.930 . S
C1674 C1672 1.395 1_545 S
C1674 C1677 1.403 . S
C1675 C1672 1.403 . S
C1675 C1676 1.524 . S
C1675 C1679 1.400 . S
C1676 H1661 0.960 . S
C1676 H1662 0.960 . S
C1676 H1663 0.960 . S
C1676 C1675 1.524 . S
C1677 C1674 1.403 . S
C1677 C1678 1.392 1_545 S
C1677 C1681 1.495 . S
C1678 C1677 1.392 1_565 S
C1678 C1679 1.385 . S
C1678 C1680 1.478 . S
C1679 H1673 0.930 . S
C1679 C1675 1.400 . S
C1679 C1678 1.385 . S
C1680 C1678 1.478 . S
C1680 C1682 1.381 1_565 S
C1680 C1686 1.383 . S
C1681 C1677 1.495 . S
C1681 H1687 0.959 . S
C1681 H1688 0.961 . S
C1681 H1689 0.960 . S
C1682 C1680 1.381 1_545 S
C1682 C1683 1.394 . S
C1682 H1690 0.930 . S
C1683 C1682 1.394 . S
C1683 C1684 1.383 1_545 S
C1683 H1691 0.929 . S
C1684 C1683 1.383 1_565 S
C1684 C1685 1.377 . S
C1685 H1669 0.930 . S
C1685 C1684 1.377 . S
C1685 C1686 1.379 . S
C1686 H1670 0.931 . S
C1686 C1680 1.383 . S
C1686 C1685 1.379 . S
H1687 C1681 0.959 . S
H1688 C1681 0.961 . S
H1689 C1681 0.960 . S
H1690 C1682 0.930 . S
H1691 C1683 0.929 . S
H1692 C1700 0.929 . S
H1693 C1702 0.930 . S
H1694 C1704 0.955 . S
H1695 C1707 0.947 . S
H1696 C1710 0.930 . S
H1697 C1712 0.960 . S
H1698 C1712 0.960 . S
H1699 C1712 0.960 . S
C1700 H1692 0.929 . S
C1700 C1701 1.377 . S
C1700 C1702 1.384 . S
C1701 C1700 1.377 . S
C1701 C1707 1.381 1_545 S
C1702 H1693 0.930 . S
C1702 C1700 1.384 . S
C1702 C1703 1.372 . S
C1703 C1702 1.372 . S
C1703 C1704 1.355 1_545 S
C1703 C1708 1.490 . S
C1704 H1694 0.955 . S
C1704 C1703 1.355 1_565 S
C1704 C1707 1.399 . S
H1705 C1721 0.930 . S
H1706 C1722 0.931 . S
C1707 H1695 0.947 . S
C1707 C1701 1.381 1_565 S
C1707 C1704 1.399 . S
C1708 C1703 1.490 . S
C1708 C1710 1.395 . S
C1708 C1711 1.356 1_545 S
H1709 C1715 0.946 . S
C1710 H1696 0.930 . S
C1710 C1708 1.395 . S
C1710 C1713 1.403 . S
C1711 C1708 1.356 1_565 S
C1711 C1712 1.603 . S
C1711 C1715 1.377 . S
C1712 H1697 0.960 . S
C1712 H1698 0.960 . S
C1712 H1699 0.960 . S
C1712 C1711 1.603 . S
C1713 C1710 1.403 . S
C1713 C1714 1.392 . S
C1713 C1717 1.495 . S
C1714 C1713 1.392 . S
C1714 C1715 1.359 1_545 S
C1714 C1716 1.478 . S
C1715 H1709 0.946 . S
C1715 C1711 1.377 . S
C1715 C1714 1.359 1_565 S
C1716 C1714 1.478 . S
C1716 C1718 1.381 . S
C1716 C1722 1.383 1_545 S
C1717 C1713 1.495 . S
C1717 H1723 0.959 . S
C1717 H1724 0.961 . S
C1717 H1725 0.960 . S
C1718 C1716 1.381 . S
C1718 C1719 1.394 . S
C1718 H1726 0.930 . S
C1719 C1718 1.394 . S
C1719 C1720 1.383 . S
C1719 H1727 0.929 . S
C1720 C1719 1.383 . S
C1720 C1721 1.377 1_545 S
C1721 H1705 0.930 . S
C1721 C1720 1.377 1_565 S
C1721 C1722 1.379 . S
C1722 H1706 0.931 . S
C1722 C1716 1.383 1_565 S
C1722 C1721 1.379 . S
H1723 C1717 0.959 . S
H1724 C1717 0.961 . S
H1725 C1717 0.960 . S
H1726 C1718 0.930 . S
H1727 C1719 0.929 . S
H1728 C1736 0.929 . S
H1729 C1738 0.930 . S
H1730 C1740 0.930 . S
H1731 C1743 0.929 . S
H1732 C1746 0.930 . S
H1733 C1748 0.960 . S
H1734 C1748 0.960 . S
H1735 C1748 0.960 . S
C1736 H1728 0.929 . S
C1736 C1737 1.377 1_455 S
C1736 C1738 1.384 . S
C1737 C1736 1.377 1_655 S
C1737 C1743 1.390 . S
C1738 H1729 0.930 . S
C1738 C1736 1.384 . S
C1738 C1739 1.372 1_455 S
C1739 C1738 1.372 1_655 S
C1739 C1740 1.400 . S
C1739 C1744 1.490 . S
C1740 H1730 0.930 . S
C1740 C1739 1.400 . S
C1740 C1743 1.386 . S
H1741 C1757 0.930 . S
H1742 C1758 0.931 . S
C1743 H1731 0.929 . S
C1743 C1737 1.390 . S
C1743 C1740 1.386 . S
C1744 C1739 1.490 . S
C1744 C1746 1.395 1_655 S
C1744 C1747 1.403 . S
H1745 C1751 0.930 . S
C1746 H1732 0.930 . S
C1746 C1744 1.395 1_455 S
C1746 C1749 1.403 . S
C1747 C1744 1.403 . S
C1747 C1748 1.524 . S
C1747 C1751 1.400 . S
C1748 H1733 0.960 . S
C1748 H1734 0.960 . S
C1748 H1735 0.960 . S
C1748 C1747 1.524 . S
C1749 C1746 1.403 . S
C1749 C1750 1.392 1_455 S
C1749 C1753 1.495 . S
C1750 C1749 1.392 1_655 S
C1750 C1751 1.385 . S
C1750 C1752 1.478 . S
C1751 H1745 0.930 . S
C1751 C1747 1.400 . S
C1751 C1750 1.385 . S
C1752 C1750 1.478 . S
C1752 C1754 1.381 1_655 S
C1752 C1758 1.383 . S
C1753 C1749 1.495 . S
C1753 H1759 0.959 . S
C1753 H1760 0.961 . S
C1753 H1761 0.960 . S
C1754 C1752 1.381 1_455 S
C1754 C1755 1.394 . S
C1754 H1762 0.930 . S
C1755 C1754 1.394 . S
C1755 C1756 1.383 1_455 S
C1755 H1763 0.929 . S
C1756 C1755 1.383 1_655 S
C1756 C1757 1.377 . S
C1757 H1741 0.930 . S
C1757 C1756 1.377 . S
C1757 C1758 1.379 . S
C1758 H1742 0.931 . S
C1758 C1752 1.383 . S
C1758 C1757 1.379 . S
H1759 C1753 0.959 . S
H1760 C1753 0.961 . S
H1761 C1753 0.960 . S
H1762 C1754 0.930 . S
H1763 C1755 0.929 . S
H1764 C1772 0.929 . S
H1765 C1774 0.930 . S
H1766 C1776 0.930 . S
H1767 C1779 0.929 . S
H1768 C1782 0.930 . S
H1769 C1784 0.960 . S
H1770 C1784 0.960 . S
H1771 C1784 0.960 . S
C1772 H1764 0.929 . S
C1772 C1773 1.377 . S
C1772 C1774 1.384 . S
C1773 C1772 1.377 . S
C1773 C1779 1.390 . S
C1774 H1765 0.930 . S
C1774 C1772 1.384 . S
C1774 C1775 1.372 . S
C1775 C1774 1.372 . S
C1775 C1776 1.400 . S
C1775 C1780 1.490 . S
C1776 H1766 0.930 . S
C1776 C1775 1.400 . S
C1776 C1779 1.386 . S
H1777 C1793 0.930 . S
H1778 C1794 0.931 . S
C1779 H1767 0.929 . S
C1779 C1773 1.390 . S
C1779 C1776 1.386 . S
C1780 C1775 1.490 . S
C1780 C1782 1.395 . S
C1780 C1783 1.403 . S
H1781 C1787 0.930 . S
C1782 H1768 0.930 . S
C1782 C1780 1.395 . S
C1782 C1785 1.403 . S
C1783 C1780 1.403 . S
C1783 C1784 1.524 . S
C1783 C1787 1.400 . S
C1784 H1769 0.960 . S
C1784 H1770 0.960 . S
C1784 H1771 0.960 . S
C1784 C1783 1.524 . S
C1785 C1782 1.403 . S
C1785 C1786 1.392 . S
C1785 C1789 1.495 . S
C1786 C1785 1.392 . S
C1786 C1787 1.385 . S
C1786 C1788 1.478 . S
C1787 H1781 0.930 . S
C1787 C1783 1.400 . S
C1787 C1786 1.385 . S
C1788 C1786 1.478 . S
C1788 C1790 1.381 . S
C1788 C1794 1.383 . S
C1789 C1785 1.495 . S
C1789 H1795 0.959 . S
C1789 H1796 0.961 . S
C1789 H1797 0.960 . S
C1790 C1788 1.381 . S
C1790 C1791 1.394 . S
C1790 H1798 0.930 . S
C1791 C1790 1.394 . S
C1791 C1792 1.383 . S
C1791 H1799 0.929 . S
C1792 C1791 1.383 . S
C1792 C1793 1.377 . S
C1793 H1777 0.930 . S
C1793 C1792 1.377 . S
C1793 C1794 1.379 . S
C1794 H1778 0.931 . S
C1794 C1788 1.383 . S
C1794 C1793 1.379 . S
H1795 C1789 0.959 . S
H1796 C1789 0.961 . S
H1797 C1789 0.960 . S
H1798 C1790 0.930 . S
H1799 C1791 0.929 . S
H1800 C1808 0.929 . S
H1801 C1810 0.930 . S
H1802 C1812 0.930 . S
H1803 C1815 0.929 . S
H1804 C1818 0.930 . S
H1805 C1820 0.960 . S
H1806 C1820 0.960 . S
H1807 C1820 0.960 . S
C1808 H1800 0.929 . S
C1808 C1809 1.377 . S
C1808 C1810 1.384 . S
C1809 C1808 1.377 . S
C1809 C1815 1.390 . S
C1810 H1801 0.930 . S
C1810 C1808 1.384 . S
C1810 C1811 1.372 . S
C1811 C1810 1.372 . S
C1811 C1812 1.400 . S
C1811 C1816 1.490 . S
C1812 H1802 0.930 . S
C1812 C1811 1.400 . S
C1812 C1815 1.386 . S
H1813 C1829 0.930 . S
H1814 C1830 0.931 . S
C1815 H1803 0.929 . S
C1815 C1809 1.390 . S
C1815 C1812 1.386 . S
C1816 C1811 1.490 . S
C1816 C1818 1.395 . S
C1816 C1819 1.403 . S
H1817 C1823 0.930 . S
C1818 H1804 0.930 . S
C1818 C1816 1.395 . S
C1818 C1821 1.403 . S
C1819 C1816 1.403 . S
C1819 C1820 1.524 . S
C1819 C1823 1.400 . S
C1820 H1805 0.960 . S
C1820 H1806 0.960 . S
C1820 H1807 0.960 . S
C1820 C1819 1.524 . S
C1821 C1818 1.403 . S
C1821 C1822 1.392 . S
C1821 C1825 1.495 . S
C1822 C1821 1.392 . S
C1822 C1823 1.385 . S
C1822 C1824 1.478 . S
C1823 H1817 0.930 . S
C1823 C1819 1.400 . S
C1823 C1822 1.385 . S
C1824 C1822 1.478 . S
C1824 C1826 1.381 . S
C1824 C1830 1.383 . S
C1825 C1821 1.495 . S
C1825 H1831 0.959 . S
C1825 H1832 0.961 . S
C1825 H1833 0.960 . S
C1826 C1824 1.381 . S
C1826 C1827 1.394 . S
C1826 H1834 0.930 . S
C1827 C1826 1.394 . S
C1827 C1828 1.383 . S
C1827 H1835 0.929 . S
C1828 C1827 1.383 . S
C1828 C1829 1.377 . S
C1829 H1813 0.930 . S
C1829 C1828 1.377 . S
C1829 C1830 1.379 . S
C1830 H1814 0.931 . S
C1830 C1824 1.383 . S
C1830 C1829 1.379 . S
H1831 C1825 0.959 . S
H1832 C1825 0.961 . S
H1833 C1825 0.960 . S
H1834 C1826 0.930 . S
H1835 C1827 0.929 . S
H1836 C1844 0.929 . S
H1837 C1846 0.930 . S
H1838 C1848 0.930 . S
H1839 C1851 0.929 . S
H1840 C1854 0.930 . S
H1841 C1856 0.960 . S
H1842 C1856 0.960 . S
H1843 C1856 0.960 . S
C1844 H1836 0.929 . S
C1844 C1845 1.377 . S
C1844 C1846 1.384 . S
C1845 C1844 1.377 . S
C1845 C1851 1.390 . S
C1846 H1837 0.930 . S
C1846 C1844 1.384 . S
C1846 C1847 1.372 . S
C1847 C1846 1.372 . S
C1847 C1848 1.400 . S
C1847 C1852 1.490 . S
C1848 H1838 0.930 . S
C1848 C1847 1.400 . S
C1848 C1851 1.386 . S
H1849 C1865 0.930 . S
H1850 C1866 0.931 . S
C1851 H1839 0.929 . S
C1851 C1845 1.390 . S
C1851 C1848 1.386 . S
C1852 C1847 1.490 . S
C1852 C1854 1.395 . S
C1852 C1855 1.403 . S
H1853 C1859 0.930 . S
C1854 H1840 0.930 . S
C1854 C1852 1.395 . S
C1854 C1857 1.403 . S
C1855 C1852 1.403 . S
C1855 C1856 1.524 . S
C1855 C1859 1.400 . S
C1856 H1841 0.960 . S
C1856 H1842 0.960 . S
C1856 H1843 0.960 . S
C1856 C1855 1.524 . S
C1857 C1854 1.403 . S
C1857 C1858 1.392 . S
C1857 C1861 1.495 . S
C1858 C1857 1.392 . S
C1858 C1859 1.385 . S
C1858 C1860 1.478 . S
C1859 H1853 0.930 . S
C1859 C1855 1.400 . S
C1859 C1858 1.385 . S
C1860 C1858 1.478 . S
C1860 C1862 1.381 . S
C1860 C1866 1.383 . S
C1861 C1857 1.495 . S
C1861 H1867 0.959 . S
C1861 H1868 0.961 . S
C1861 H1869 0.960 . S
C1862 C1860 1.381 . S
C1862 C1863 1.394 . S
C1862 H1870 0.930 . S
C1863 C1862 1.394 . S
C1863 C1864 1.383 . S
C1863 H1871 0.929 . S
C1864 C1863 1.383 . S
C1864 C1865 1.377 . S
C1865 H1849 0.930 . S
C1865 C1864 1.377 . S
C1865 C1866 1.379 . S
C1866 H1850 0.931 . S
C1866 C1860 1.383 . S
C1866 C1865 1.379 . S
H1867 C1861 0.959 . S
H1868 C1861 0.961 . S
H1869 C1861 0.960 . S
H1870 C1862 0.930 . S
H1871 C1863 0.929 . S
H1872 C1880 0.929 . S
H1873 C1882 0.930 . S
H1874 C1884 0.930 . S
H1875 C1887 0.929 . S
H1876 C1890 0.930 . S
H1877 C1892 0.960 . S
H1878 C1892 0.960 . S
H1879 C1892 0.960 . S
C1880 H1872 0.929 . S
C1880 C1881 1.377 . S
C1880 C1882 1.384 . S
C1881 C1880 1.377 . S
C1881 C1887 1.390 . S
C1882 H1873 0.930 . S
C1882 C1880 1.384 . S
C1882 C1883 1.372 . S
C1883 C1882 1.372 . S
C1883 C1884 1.400 . S
C1883 C1888 1.490 . S
C1884 H1874 0.930 . S
C1884 C1883 1.400 . S
C1884 C1887 1.386 . S
H1885 C1901 0.930 . S
H1886 C1902 0.931 . S
C1887 H1875 0.929 . S
C1887 C1881 1.390 . S
C1887 C1884 1.386 . S
C1888 C1883 1.490 . S
C1888 C1890 1.395 . S
C1888 C1891 1.403 . S
H1889 C1895 0.930 . S
C1890 H1876 0.930 . S
C1890 C1888 1.395 . S
C1890 C1893 1.403 . S
C1891 C1888 1.403 . S
C1891 C1892 1.524 . S
C1891 C1895 1.400 . S
C1892 H1877 0.960 . S
C1892 H1878 0.960 . S
C1892 H1879 0.960 . S
C1892 C1891 1.524 . S
C1893 C1890 1.403 . S
C1893 C1894 1.392 . S
C1893 C1897 1.495 . S
C1894 C1893 1.392 . S
C1894 C1895 1.385 . S
C1894 C1896 1.478 . S
C1895 H1889 0.930 . S
C1895 C1891 1.400 . S
C1895 C1894 1.385 . S
C1896 C1894 1.478 . S
C1896 C1898 1.381 . S
C1896 C1902 1.383 . S
C1897 C1893 1.495 . S
C1897 H1903 0.959 . S
C1897 H1904 0.961 . S
C1897 H1905 0.960 . S
C1898 C1896 1.381 . S
C1898 C1899 1.394 . S
C1898 H1906 0.930 . S
C1899 C1898 1.394 . S
C1899 C1900 1.383 . S
C1899 H1907 0.929 . S
C1900 C1899 1.383 . S
C1900 C1901 1.377 . S
C1901 H1885 0.930 . S
C1901 C1900 1.377 . S
C1901 C1902 1.379 . S
C1902 H1886 0.931 . S
C1902 C1896 1.383 . S
C1902 C1901 1.379 . S
H1903 C1897 0.959 . S
H1904 C1897 0.961 . S
H1905 C1897 0.960 . S
H1906 C1898 0.930 . S
H1907 C1899 0.929 . S
H1908 C1916 0.929 . S
H1909 C1918 0.930 . S
H1910 C1920 0.930 . S
H1911 C1923 0.929 . S
H1912 C1926 0.930 . S
H1913 C1928 0.960 . S
H1914 C1928 0.960 . S
H1915 C1928 0.960 . S
C1916 H1908 0.929 . S
C1916 C1917 1.377 . S
C1916 C1918 1.384 . S
C1917 C1916 1.377 . S
C1917 C1923 1.390 . S
C1918 H1909 0.930 . S
C1918 C1916 1.384 . S
C1918 C1919 1.372 . S
C1919 C1918 1.372 . S
C1919 C1920 1.400 . S
C1919 C1924 1.490 . S
C1920 H1910 0.930 . S
C1920 C1919 1.400 . S
C1920 C1923 1.386 . S
H1921 C1937 0.930 . S
H1922 C1938 0.931 . S
C1923 H1911 0.929 . S
C1923 C1917 1.390 . S
C1923 C1920 1.386 . S
C1924 C1919 1.490 . S
C1924 C1926 1.395 . S
C1924 C1927 1.403 . S
H1925 C1931 0.930 . S
C1926 H1912 0.930 . S
C1926 C1924 1.395 . S
C1926 C1929 1.403 . S
C1927 C1924 1.403 . S
C1927 C1928 1.524 . S
C1927 C1931 1.400 . S
C1928 H1913 0.960 . S
C1928 H1914 0.960 . S
C1928 H1915 0.960 . S
C1928 C1927 1.524 . S
C1929 C1926 1.403 . S
C1929 C1930 1.392 . S
C1929 C1933 1.495 . S
C1930 C1929 1.392 . S
C1930 C1931 1.385 . S
C1930 C1932 1.478 . S
C1931 H1925 0.930 . S
C1931 C1927 1.400 . S
C1931 C1930 1.385 . S
C1932 C1930 1.478 . S
C1932 C1934 1.381 . S
C1932 C1938 1.383 . S
C1933 C1929 1.495 . S
C1933 H1939 0.959 . S
C1933 H1940 0.961 . S
C1933 H1941 0.960 . S
C1934 C1932 1.381 . S
C1934 C1935 1.394 . S
C1934 H1942 0.930 . S
C1935 C1934 1.394 . S
C1935 C1936 1.383 . S
C1935 H1943 0.929 . S
C1936 C1935 1.383 . S
C1936 C1937 1.377 . S
C1937 H1921 0.930 . S
C1937 C1936 1.377 . S
C1937 C1938 1.379 . S
C1938 H1922 0.931 . S
C1938 C1932 1.383 . S
C1938 C1937 1.379 . S
H1939 C1933 0.959 . S
H1940 C1933 0.961 . S
H1941 C1933 0.960 . S
H1942 C1934 0.930 . S
H1943 C1935 0.929 . S
H1944 C1952 0.929 . S
H1945 C1954 0.930 . S
H1946 C1956 0.930 . S
H1947 C1959 0.929 . S
H1948 C1962 0.930 . S
H1949 C1964 0.960 . S
H1950 C1964 0.960 . S
H1951 C1964 0.960 . S
C1952 H1944 0.929 . S
C1952 C1953 1.377 . S
C1952 C1954 1.384 . S
C1953 C1952 1.377 . S
C1953 C1959 1.390 . S
C1954 H1945 0.930 . S
C1954 C1952 1.384 . S
C1954 C1955 1.372 . S
C1955 C1954 1.372 . S
C1955 C1956 1.400 . S
C1955 C1960 1.490 . S
C1956 H1946 0.930 . S
C1956 C1955 1.400 . S
C1956 C1959 1.386 . S
H1957 C1973 0.930 . S
H1958 C1974 0.931 . S
C1959 H1947 0.929 . S
C1959 C1953 1.390 . S
C1959 C1956 1.386 . S
C1960 C1955 1.490 . S
C1960 C1962 1.395 . S
C1960 C1963 1.403 . S
H1961 C1967 0.930 . S
C1962 H1948 0.930 . S
C1962 C1960 1.395 . S
C1962 C1965 1.403 . S
C1963 C1960 1.403 . S
C1963 C1964 1.524 . S
C1963 C1967 1.400 . S
C1964 H1949 0.960 . S
C1964 H1950 0.960 . S
C1964 H1951 0.960 . S
C1964 C1963 1.524 . S
C1965 C1962 1.403 . S
C1965 C1966 1.392 . S
C1965 C1969 1.495 . S
C1966 C1965 1.392 . S
C1966 C1967 1.385 . S
C1966 C1968 1.478 . S
C1967 H1961 0.930 . S
C1967 C1963 1.400 . S
C1967 C1966 1.385 . S
C1968 C1966 1.478 . S
C1968 C1970 1.381 . S
C1968 C1974 1.383 . S
C1969 C1965 1.495 . S
C1969 H1975 0.959 . S
C1969 H1976 0.961 . S
C1969 H1977 0.960 . S
C1970 C1968 1.381 . S
C1970 C1971 1.394 . S
C1970 H1978 0.930 . S
C1971 C1970 1.394 . S
C1971 C1972 1.383 . S
C1971 H1979 0.929 . S
C1972 C1971 1.383 . S
C1972 C1973 1.377 . S
C1973 H1957 0.930 . S
C1973 C1972 1.377 . S
C1973 C1974 1.379 . S
C1974 H1958 0.931 . S
C1974 C1968 1.383 . S
C1974 C1973 1.379 . S
H1975 C1969 0.959 . S
H1976 C1969 0.961 . S
H1977 C1969 0.960 . S
H1978 C1970 0.930 . S
H1979 C1971 0.929 . S
H1980 C1988 0.929 . S
H1981 C1990 0.930 . S
H1982 C1992 0.930 . S
H1983 C1995 0.929 . S
H1984 C1998 0.930 . S
H1985 C2000 0.960 . S
H1986 C2000 0.960 . S
H1987 C2000 0.960 . S
C1988 H1980 0.929 . S
C1988 C1989 1.377 . S
C1988 C1990 1.384 . S
C1989 C1988 1.377 . S
C1989 C1995 1.390 . S
C1990 H1981 0.930 . S
C1990 C1988 1.384 . S
C1990 C1991 1.372 . S
C1991 C1990 1.372 . S
C1991 C1992 1.400 . S
C1991 C1996 1.490 . S
C1992 H1982 0.930 . S
C1992 C1991 1.400 . S
C1992 C1995 1.386 . S
H1993 C2009 0.930 . S
H1994 C2010 0.931 . S
C1995 H1983 0.929 . S
C1995 C1989 1.390 . S
C1995 C1992 1.386 . S
C1996 C1991 1.490 . S
C1996 C1998 1.395 . S
C1996 C1999 1.403 . S
H1997 C2003 0.930 . S
C1998 H1984 0.930 . S
C1998 C1996 1.395 . S
C1998 C2001 1.403 . S
C1999 C1996 1.403 . S
C1999 C2000 1.524 . S
C1999 C2003 1.400 . S
C2000 H1985 0.960 . S
C2000 H1986 0.960 . S
C2000 H1987 0.960 . S
C2000 C1999 1.524 . S
C2001 C1998 1.403 . S
C2001 C2002 1.392 . S
C2001 C2005 1.495 . S
C2002 C2001 1.392 . S
C2002 C2003 1.385 . S
C2002 C2004 1.478 . S
C2003 H1997 0.930 . S
C2003 C1999 1.400 . S
C2003 C2002 1.385 . S
C2004 C2002 1.478 . S
C2004 C2006 1.381 . S
C2004 C2010 1.383 . S
C2005 C2001 1.495 . S
C2005 H2011 0.959 . S
C2005 H2012 0.961 . S
C2005 H2013 0.960 . S
C2006 C2004 1.381 . S
C2006 C2007 1.394 . S
C2006 H2014 0.930 . S
C2007 C2006 1.394 . S
C2007 C2008 1.383 . S
C2007 H2015 0.929 . S
C2008 C2007 1.383 . S
C2008 C2009 1.377 . S
C2009 H1993 0.930 . S
C2009 C2008 1.377 . S
C2009 C2010 1.379 . S
C2010 H1994 0.931 . S
C2010 C2004 1.383 . S
C2010 C2009 1.379 . S
H2011 C2005 0.959 . S
H2012 C2005 0.961 . S
H2013 C2005 0.960 . S
H2014 C2006 0.930 . S
H2015 C2007 0.929 . S
H2016 C2024 0.929 . S
H2017 C2026 0.930 . S
H2018 C2028 0.930 . S
H2019 C2031 0.929 . S
H2020 C2034 0.930 . S
H2021 C2036 0.960 . S
H2022 C2036 0.960 . S
H2023 C2036 0.960 . S
C2024 H2016 0.929 . S
C2024 C2025 1.377 . S
C2024 C2026 1.384 . S
C2025 C2024 1.377 . S
C2025 C2031 1.390 . S
C2026 H2017 0.930 . S
C2026 C2024 1.384 . S
C2026 C2027 1.372 . S
C2027 C2026 1.372 . S
C2027 C2028 1.400 . S
C2027 C2032 1.490 . S
C2028 H2018 0.930 . S
C2028 C2027 1.400 . S
C2028 C2031 1.386 . S
H2029 C2045 0.930 . S
H2030 C2046 0.931 . S
C2031 H2019 0.929 . S
C2031 C2025 1.390 . S
C2031 C2028 1.386 . S
C2032 C2027 1.490 . S
C2032 C2034 1.395 . S
C2032 C2035 1.403 . S
H2033 C2039 0.930 . S
C2034 H2020 0.930 . S
C2034 C2032 1.395 . S
C2034 C2037 1.403 . S
C2035 C2032 1.403 . S
C2035 C2036 1.524 . S
C2035 C2039 1.400 . S
C2036 H2021 0.960 . S
C2036 H2022 0.960 . S
C2036 H2023 0.960 . S
C2036 C2035 1.524 . S
C2037 C2034 1.403 . S
C2037 C2038 1.392 . S
C2037 C2041 1.495 . S
C2038 C2037 1.392 . S
C2038 C2039 1.385 . S
C2038 C2040 1.478 . S
C2039 H2033 0.930 . S
C2039 C2035 1.400 . S
C2039 C2038 1.385 . S
C2040 C2038 1.478 . S
C2040 C2042 1.381 . S
C2040 C2046 1.383 . S
C2041 C2037 1.495 . S
C2041 H2047 0.959 . S
C2041 H2048 0.961 . S
C2041 H2049 0.960 . S
C2042 C2040 1.381 . S
C2042 C2043 1.394 . S
C2042 H2050 0.930 . S
C2043 C2042 1.394 . S
C2043 C2044 1.383 . S
C2043 H2051 0.929 . S
C2044 C2043 1.383 . S
C2044 C2045 1.377 . S
C2045 H2029 0.930 . S
C2045 C2044 1.377 . S
C2045 C2046 1.379 . S
C2046 H2030 0.931 . S
C2046 C2040 1.383 . S
C2046 C2045 1.379 . S
H2047 C2041 0.959 . S
H2048 C2041 0.961 . S
H2049 C2041 0.960 . S
H2050 C2042 0.930 . S
H2051 C2043 0.929 . S
H2052 C2060 0.929 . S
H2053 C2062 0.930 . S
H2054 C2064 0.930 . S
H2055 C2067 0.929 . S
H2056 C2070 0.930 . S
H2057 C2072 0.960 . S
H2058 C2072 0.960 . S
H2059 C2072 0.960 . S
C2060 H2052 0.929 . S
C2060 C2061 1.377 . S
C2060 C2062 1.384 . S
C2061 C2060 1.377 . S
C2061 C2067 1.390 . S
C2062 H2053 0.930 . S
C2062 C2060 1.384 . S
C2062 C2063 1.372 . S
C2063 C2062 1.372 . S
C2063 C2064 1.400 . S
C2063 C2068 1.490 . S
C2064 H2054 0.930 . S
C2064 C2063 1.400 . S
C2064 C2067 1.386 . S
H2065 C2081 0.930 . S
H2066 C2082 0.931 . S
C2067 H2055 0.929 . S
C2067 C2061 1.390 . S
C2067 C2064 1.386 . S
C2068 C2063 1.490 . S
C2068 C2070 1.395 . S
C2068 C2071 1.403 . S
H2069 C2075 0.930 . S
C2070 H2056 0.930 . S
C2070 C2068 1.395 . S
C2070 C2073 1.403 . S
C2071 C2068 1.403 . S
C2071 C2072 1.524 . S
C2071 C2075 1.400 . S
C2072 H2057 0.960 . S
C2072 H2058 0.960 . S
C2072 H2059 0.960 . S
C2072 C2071 1.524 . S
C2073 C2070 1.403 . S
C2073 C2074 1.392 . S
C2073 C2077 1.495 . S
C2074 C2073 1.392 . S
C2074 C2075 1.385 . S
C2074 C2076 1.478 . S
C2075 H2069 0.930 . S
C2075 C2071 1.400 . S
C2075 C2074 1.385 . S
C2076 C2074 1.478 . S
C2076 C2078 1.381 . S
C2076 C2082 1.383 . S
C2077 C2073 1.495 . S
C2077 H2083 0.959 . S
C2077 H2084 0.961 . S
C2077 H2085 0.960 . S
C2078 C2076 1.381 . S
C2078 C2079 1.394 . S
C2078 H2086 0.930 . S
C2079 C2078 1.394 . S
C2079 C2080 1.383 . S
C2079 H2087 0.929 . S
C2080 C2079 1.383 . S
C2080 C2081 1.377 . S
C2081 H2065 0.930 . S
C2081 C2080 1.377 . S
C2081 C2082 1.379 . S
C2082 H2066 0.931 . S
C2082 C2076 1.383 . S
C2082 C2081 1.379 . S
H2083 C2077 0.959 . S
H2084 C2077 0.961 . S
H2085 C2077 0.960 . S
H2086 C2078 0.930 . S
H2087 C2079 0.929 . S
H2088 C2096 0.929 . S
H2089 C2098 0.930 . S
H2090 C2100 0.930 . S
H2091 C2103 0.929 . S
H2092 C2106 0.930 . S
H2093 C2108 0.960 . S
H2094 C2108 0.960 . S
H2095 C2108 0.960 . S
C2096 H2088 0.929 . S
C2096 C2097 1.377 . S
C2096 C2098 1.384 . S
C2097 C2096 1.377 . S
C2097 C2103 1.390 . S
C2098 H2089 0.930 . S
C2098 C2096 1.384 . S
C2098 C2099 1.372 . S
C2099 C2098 1.372 . S
C2099 C2100 1.400 . S
C2099 C2104 1.490 . S
C2100 H2090 0.930 . S
C2100 C2099 1.400 . S
C2100 C2103 1.386 . S
H2101 C2117 0.930 . S
H2102 C2118 0.931 . S
C2103 H2091 0.929 . S
C2103 C2097 1.390 . S
C2103 C2100 1.386 . S
C2104 C2099 1.490 . S
C2104 C2106 1.395 . S
C2104 C2107 1.403 . S
H2105 C2111 0.930 . S
C2106 H2092 0.930 . S
C2106 C2104 1.395 . S
C2106 C2109 1.403 . S
C2107 C2104 1.403 . S
C2107 C2108 1.524 . S
C2107 C2111 1.400 . S
C2108 H2093 0.960 . S
C2108 H2094 0.960 . S
C2108 H2095 0.960 . S
C2108 C2107 1.524 . S
C2109 C2106 1.403 . S
C2109 C2110 1.392 . S
C2109 C2113 1.495 . S
C2110 C2109 1.392 . S
C2110 C2111 1.385 . S
C2110 C2112 1.478 . S
C2111 H2105 0.930 . S
C2111 C2107 1.400 . S
C2111 C2110 1.385 . S
C2112 C2110 1.478 . S
C2112 C2114 1.381 . S
C2112 C2118 1.383 . S
C2113 C2109 1.495 . S
C2113 H2119 0.959 . S
C2113 H2120 0.961 . S
C2113 H2121 0.960 . S
C2114 C2112 1.381 . S
C2114 C2115 1.394 . S
C2114 H2122 0.930 . S
C2115 C2114 1.394 . S
C2115 C2116 1.383 . S
C2115 H2123 0.929 . S
C2116 C2115 1.383 . S
C2116 C2117 1.377 . S
C2117 H2101 0.930 . S
C2117 C2116 1.377 . S
C2117 C2118 1.379 . S
C2118 H2102 0.931 . S
C2118 C2112 1.383 . S
C2118 C2117 1.379 . S
H2119 C2113 0.959 . S
H2120 C2113 0.961 . S
H2121 C2113 0.960 . S
H2122 C2114 0.930 . S
H2123 C2115 0.929 . S
H2124 C2132 0.929 . S
H2125 C2134 0.930 . S
H2126 C2136 0.930 . S
H2127 C2139 0.929 . S
H2128 C2142 0.930 . S
H2129 C2144 0.960 . S
H2130 C2144 0.960 . S
H2131 C2144 0.960 . S
C2132 H2124 0.929 . S
C2132 C2133 1.377 . S
C2132 C2134 1.384 . S
C2133 C2132 1.377 . S
C2133 C2139 1.390 . S
C2134 H2125 0.930 . S
C2134 C2132 1.384 . S
C2134 C2135 1.372 . S
C2135 C2134 1.372 . S
C2135 C2136 1.400 . S
C2135 C2140 1.490 . S
C2136 H2126 0.930 . S
C2136 C2135 1.400 . S
C2136 C2139 1.386 . S
H2137 C2153 0.930 . S
H2138 C2154 0.931 . S
C2139 H2127 0.929 . S
C2139 C2133 1.390 . S
C2139 C2136 1.386 . S
C2140 C2135 1.490 . S
C2140 C2142 1.395 . S
C2140 C2143 1.403 . S
H2141 C2147 0.930 . S
C2142 H2128 0.930 . S
C2142 C2140 1.395 . S
C2142 C2145 1.403 . S
C2143 C2140 1.403 . S
C2143 C2144 1.524 . S
C2143 C2147 1.400 . S
C2144 H2129 0.960 . S
C2144 H2130 0.960 . S
C2144 H2131 0.960 . S
C2144 C2143 1.524 . S
C2145 C2142 1.403 . S
C2145 C2146 1.392 . S
C2145 C2149 1.495 . S
C2146 C2145 1.392 . S
C2146 C2147 1.385 . S
C2146 C2148 1.478 . S
C2147 H2141 0.930 . S
C2147 C2143 1.400 . S
C2147 C2146 1.385 . S
C2148 C2146 1.478 . S
C2148 C2150 1.381 . S
C2148 C2154 1.383 . S
C2149 C2145 1.495 . S
C2149 H2155 0.959 . S
C2149 H2156 0.961 . S
C2149 H2157 0.960 . S
C2150 C2148 1.381 . S
C2150 C2151 1.394 . S
C2150 H2158 0.930 . S
C2151 C2150 1.394 . S
C2151 C2152 1.383 . S
C2151 H2159 0.929 . S
C2152 C2151 1.383 . S
C2152 C2153 1.377 . S
C2153 H2137 0.930 . S
C2153 C2152 1.377 . S
C2153 C2154 1.379 . S
C2154 H2138 0.931 . S
C2154 C2148 1.383 . S
C2154 C2153 1.379 . S
H2155 C2149 0.959 . S
H2156 C2149 0.961 . S
H2157 C2149 0.960 . S
H2158 C2150 0.930 . S
H2159 C2151 0.929 . S
H2160 C2168 0.929 . S
H2161 C2170 0.930 . S
H2162 C2172 0.930 . S
H2163 C2175 0.929 . S
H2164 C2178 0.930 . S
H2165 C2180 0.960 . S
H2166 C2180 0.960 . S
H2167 C2180 0.960 . S
C2168 H2160 0.929 . S
C2168 C2169 1.377 . S
C2168 C2170 1.384 . S
C2169 C2168 1.377 . S
C2169 C2175 1.390 . S
C2170 H2161 0.930 . S
C2170 C2168 1.384 . S
C2170 C2171 1.372 . S
C2171 C2170 1.372 . S
C2171 C2172 1.400 . S
C2171 C2176 1.490 . S
C2172 H2162 0.930 . S
C2172 C2171 1.400 . S
C2172 C2175 1.386 . S
H2173 C2189 0.930 . S
H2174 C2190 0.931 . S
C2175 H2163 0.929 . S
C2175 C2169 1.390 . S
C2175 C2172 1.386 . S
C2176 C2171 1.490 . S
C2176 C2178 1.395 . S
C2176 C2179 1.403 . S
H2177 C2183 0.930 . S
C2178 H2164 0.930 . S
C2178 C2176 1.395 . S
C2178 C2181 1.403 . S
C2179 C2176 1.403 . S
C2179 C2180 1.524 . S
C2179 C2183 1.400 . S
C2180 H2165 0.960 . S
C2180 H2166 0.960 . S
C2180 H2167 0.960 . S
C2180 C2179 1.524 . S
C2181 C2178 1.403 . S
C2181 C2182 1.392 . S
C2181 C2185 1.495 . S
C2182 C2181 1.392 . S
C2182 C2183 1.385 . S
C2182 C2184 1.478 . S
C2183 H2177 0.930 . S
C2183 C2179 1.400 . S
C2183 C2182 1.385 . S
C2184 C2182 1.478 . S
C2184 C2186 1.381 . S
C2184 C2190 1.383 . S
C2185 C2181 1.495 . S
C2185 H2191 0.959 . S
C2185 H2192 0.961 . S
C2185 H2193 0.960 . S
C2186 C2184 1.381 . S
C2186 C2187 1.394 . S
C2186 H2194 0.930 . S
C2187 C2186 1.394 . S
C2187 C2188 1.383 . S
C2187 H2195 0.929 . S
C2188 C2187 1.383 . S
C2188 C2189 1.377 . S
C2189 H2173 0.930 . S
C2189 C2188 1.377 . S
C2189 C2190 1.379 . S
C2190 H2174 0.931 . S
C2190 C2184 1.383 . S
C2190 C2189 1.379 . S
H2191 C2185 0.959 . S
H2192 C2185 0.961 . S
H2193 C2185 0.960 . S
H2194 C2186 0.930 . S
H2195 C2187 0.929 . S
H2196 C2204 0.929 . S
H2197 C2206 0.930 . S
H2198 C2208 0.930 . S
H2199 C2211 0.929 . S
H2200 C2214 0.930 . S
H2201 C2216 0.960 . S
H2202 C2216 0.960 . S
H2203 C2216 0.960 . S
C2204 H2196 0.929 . S
C2204 C2205 1.377 . S
C2204 C2206 1.384 . S
C2205 C2204 1.377 . S
C2205 C2211 1.390 . S
C2206 H2197 0.930 . S
C2206 C2204 1.384 . S
C2206 C2207 1.372 . S
C2207 C2206 1.372 . S
C2207 C2208 1.400 . S
C2207 C2212 1.490 . S
C2208 H2198 0.930 . S
C2208 C2207 1.400 . S
C2208 C2211 1.386 . S
H2209 C2225 0.930 . S
H2210 C2226 0.931 . S
C2211 H2199 0.929 . S
C2211 C2205 1.390 . S
C2211 C2208 1.386 . S
C2212 C2207 1.490 . S
C2212 C2214 1.395 . S
C2212 C2215 1.403 . S
H2213 C2219 0.930 . S
C2214 H2200 0.930 . S
C2214 C2212 1.395 . S
C2214 C2217 1.403 . S
C2215 C2212 1.403 . S
C2215 C2216 1.524 . S
C2215 C2219 1.400 . S
C2216 H2201 0.960 . S
C2216 H2202 0.960 . S
C2216 H2203 0.960 . S
C2216 C2215 1.524 . S
C2217 C2214 1.403 . S
C2217 C2218 1.392 . S
C2217 C2221 1.495 . S
C2218 C2217 1.392 . S
C2218 C2219 1.385 . S
C2218 C2220 1.478 . S
C2219 H2213 0.930 . S
C2219 C2215 1.400 . S
C2219 C2218 1.385 . S
C2220 C2218 1.478 . S
C2220 C2222 1.381 . S
C2220 C2226 1.383 . S
C2221 C2217 1.495 . S
C2221 H2227 0.959 . S
C2221 H2228 0.961 . S
C2221 H2229 0.960 . S
C2222 C2220 1.381 . S
C2222 C2223 1.394 . S
C2222 H2230 0.930 . S
C2223 C2222 1.394 . S
C2223 C2224 1.383 . S
C2223 H2231 0.929 . S
C2224 C2223 1.383 . S
C2224 C2225 1.377 . S
C2225 H2209 0.930 . S
C2225 C2224 1.377 . S
C2225 C2226 1.379 . S
C2226 H2210 0.931 . S
C2226 C2220 1.383 . S
C2226 C2225 1.379 . S
H2227 C2221 0.959 . S
H2228 C2221 0.961 . S
H2229 C2221 0.960 . S
H2230 C2222 0.930 . S
H2231 C2223 0.929 . S
H2232 C2240 0.929 . S
H2233 C2242 0.930 . S
H2234 C2244 0.930 . S
H2235 C2247 0.929 . S
H2236 C2250 0.930 . S
H2237 C2252 0.960 . S
H2238 C2252 0.960 . S
H2239 C2252 0.960 . S
C2240 H2232 0.929 . S
C2240 C2241 1.377 . S
C2240 C2242 1.384 . S
C2241 C2240 1.377 . S
C2241 C2247 1.390 . S
C2242 H2233 0.930 . S
C2242 C2240 1.384 . S
C2242 C2243 1.372 . S
C2243 C2242 1.372 . S
C2243 C2244 1.400 . S
C2243 C2248 1.490 . S
C2244 H2234 0.930 . S
C2244 C2243 1.400 . S
C2244 C2247 1.386 . S
H2245 C2261 0.930 . S
H2246 C2262 0.931 . S
C2247 H2235 0.929 . S
C2247 C2241 1.390 . S
C2247 C2244 1.386 . S
C2248 C2243 1.490 . S
C2248 C2250 1.395 . S
C2248 C2251 1.403 . S
H2249 C2255 0.930 . S
C2250 H2236 0.930 . S
C2250 C2248 1.395 . S
C2250 C2253 1.403 . S
C2251 C2248 1.403 . S
C2251 C2252 1.524 . S
C2251 C2255 1.400 . S
C2252 H2237 0.960 . S
C2252 H2238 0.960 . S
C2252 H2239 0.960 . S
C2252 C2251 1.524 . S
C2253 C2250 1.403 . S
C2253 C2254 1.392 . S
C2253 C2257 1.495 . S
C2254 C2253 1.392 . S
C2254 C2255 1.385 . S
C2254 C2256 1.478 . S
C2255 H2249 0.930 . S
C2255 C2251 1.400 . S
C2255 C2254 1.385 . S
C2256 C2254 1.478 . S
C2256 C2258 1.381 . S
C2256 C2262 1.383 . S
C2257 C2253 1.495 . S
C2257 H2263 0.959 . S
C2257 H2264 0.961 . S
C2257 H2265 0.960 . S
C2258 C2256 1.381 . S
C2258 C2259 1.394 . S
C2258 H2266 0.930 . S
C2259 C2258 1.394 . S
C2259 C2260 1.383 . S
C2259 H2267 0.929 . S
C2260 C2259 1.383 . S
C2260 C2261 1.377 . S
C2261 H2245 0.930 . S
C2261 C2260 1.377 . S
C2261 C2262 1.379 . S
C2262 H2246 0.931 . S
C2262 C2256 1.383 . S
C2262 C2261 1.379 . S
H2263 C2257 0.959 . S
H2264 C2257 0.961 . S
H2265 C2257 0.960 . S
H2266 C2258 0.930 . S
H2267 C2259 0.929 . S
H2268 C2276 0.929 . S
H2269 C2278 0.930 . S
H2270 C2280 0.930 . S
H2271 C2283 0.929 . S
H2272 C2286 0.930 . S
H2273 C2288 0.960 . S
H2274 C2288 0.960 . S
H2275 C2288 0.960 . S
C2276 H2268 0.929 . S
C2276 C2277 1.377 . S
C2276 C2278 1.384 . S
C2277 C2276 1.377 . S
C2277 C2283 1.390 . S
C2278 H2269 0.930 . S
C2278 C2276 1.384 . S
C2278 C2279 1.372 . S
C2279 C2278 1.372 . S
C2279 C2280 1.400 . S
C2279 C2284 1.490 . S
C2280 H2270 0.930 . S
C2280 C2279 1.400 . S
C2280 C2283 1.386 . S
H2281 C2297 0.930 . S
H2282 C2298 0.931 . S
C2283 H2271 0.929 . S
C2283 C2277 1.390 . S
C2283 C2280 1.386 . S
C2284 C2279 1.490 . S
C2284 C2286 1.395 . S
C2284 C2287 1.403 . S
H2285 C2291 0.930 . S
C2286 H2272 0.930 . S
C2286 C2284 1.395 . S
C2286 C2289 1.403 . S
C2287 C2284 1.403 . S
C2287 C2288 1.524 . S
C2287 C2291 1.400 . S
C2288 H2273 0.960 . S
C2288 H2274 0.960 . S
C2288 H2275 0.960 . S
C2288 C2287 1.524 . S
C2289 C2286 1.403 . S
C2289 C2290 1.392 . S
C2289 C2293 1.495 . S
C2290 C2289 1.392 . S
C2290 C2291 1.385 . S
C2290 C2292 1.478 . S
C2291 H2285 0.930 . S
C2291 C2287 1.400 . S
C2291 C2290 1.385 . S
C2292 C2290 1.478 . S
C2292 C2294 1.381 . S
C2292 C2298 1.383 . S
C2293 C2289 1.495 . S
C2293 H2299 0.959 . S
C2293 H2300 0.961 . S
C2293 H2301 0.960 . S
C2294 C2292 1.381 . S
C2294 C2295 1.394 . S
C2294 H2302 0.930 . S
C2295 C2294 1.394 . S
C2295 C2296 1.383 . S
C2295 H2303 0.929 . S
C2296 C2295 1.383 . S
C2296 C2297 1.377 . S
C2297 H2281 0.930 . S
C2297 C2296 1.377 . S
C2297 C2298 1.379 . S
C2298 H2282 0.931 . S
C2298 C2292 1.383 . S
C2298 C2297 1.379 . S
H2299 C2293 0.959 . S
H2300 C2293 0.961 . S
H2301 C2293 0.960 . S
H2302 C2294 0.930 . S
H2303 C2295 0.929 . S
H2304 C2312 0.929 . S
H2305 C2314 0.930 . S
H2306 C2316 0.930 . S
H2307 C2319 0.929 . S
H2308 C2322 0.930 . S
H2309 C2324 0.960 . S
H2310 C2324 0.960 . S
H2311 C2324 0.960 . S
C2312 H2304 0.929 . S
C2312 C2313 1.377 . S
C2312 C2314 1.384 . S
C2313 C2312 1.377 . S
C2313 C2319 1.390 . S
C2314 H2305 0.930 . S
C2314 C2312 1.384 . S
C2314 C2315 1.372 . S
C2315 C2314 1.372 . S
C2315 C2316 1.400 . S
C2315 C2320 1.490 . S
C2316 H2306 0.930 . S
C2316 C2315 1.400 . S
C2316 C2319 1.386 . S
H2317 C2333 0.930 . S
H2318 C2334 0.931 . S
C2319 H2307 0.929 . S
C2319 C2313 1.390 . S
C2319 C2316 1.386 . S
C2320 C2315 1.490 . S
C2320 C2322 1.395 . S
C2320 C2323 1.403 . S
H2321 C2327 0.930 . S
C2322 H2308 0.930 . S
C2322 C2320 1.395 . S
C2322 C2325 1.403 . S
C2323 C2320 1.403 . S
C2323 C2324 1.524 . S
C2323 C2327 1.400 . S
C2324 H2309 0.960 . S
C2324 H2310 0.960 . S
C2324 H2311 0.960 . S
C2324 C2323 1.524 . S
C2325 C2322 1.403 . S
C2325 C2326 1.392 . S
C2325 C2329 1.495 . S
C2326 C2325 1.392 . S
C2326 C2327 1.385 . S
C2326 C2328 1.478 . S
C2327 H2321 0.930 . S
C2327 C2323 1.400 . S
C2327 C2326 1.385 . S
C2328 C2326 1.478 . S
C2328 C2330 1.381 . S
C2328 C2334 1.383 . S
C2329 C2325 1.495 . S
C2329 H2335 0.959 . S
C2329 H2336 0.961 . S
C2329 H2337 0.960 . S
C2330 C2328 1.381 . S
C2330 C2331 1.394 . S
C2330 H2338 0.930 . S
C2331 C2330 1.394 . S
C2331 C2332 1.383 . S
C2331 H2339 0.929 . S
C2332 C2331 1.383 . S
C2332 C2333 1.377 . S
C2333 H2317 0.930 . S
C2333 C2332 1.377 . S
C2333 C2334 1.379 . S
C2334 H2318 0.931 . S
C2334 C2328 1.383 . S
C2334 C2333 1.379 . S
H2335 C2329 0.959 . S
H2336 C2329 0.961 . S
H2337 C2329 0.960 . S
H2338 C2330 0.930 . S
H2339 C2331 0.929 . S
H2340 C2348 0.929 . S
H2341 C2350 0.930 . S
H2342 C2352 0.930 . S
H2343 C2355 0.929 . S
H2344 C2358 0.930 . S
H2345 C2360 0.960 . S
H2346 C2360 0.960 . S
H2347 C2360 0.960 . S
C2348 H2340 0.929 . S
C2348 C2349 1.377 . S
C2348 C2350 1.384 . S
C2349 C2348 1.377 . S
C2349 C2355 1.390 . S
C2350 H2341 0.930 . S
C2350 C2348 1.384 . S
C2350 C2351 1.372 . S
C2351 C2350 1.372 . S
C2351 C2352 1.400 . S
C2351 C2356 1.490 . S
C2352 H2342 0.930 . S
C2352 C2351 1.400 . S
C2352 C2355 1.386 . S
H2353 C2369 0.930 . S
H2354 C2370 0.931 . S
C2355 H2343 0.929 . S
C2355 C2349 1.390 . S
C2355 C2352 1.386 . S
C2356 C2351 1.490 . S
C2356 C2358 1.395 . S
C2356 C2359 1.403 . S
H2357 C2363 0.930 . S
C2358 H2344 0.930 . S
C2358 C2356 1.395 . S
C2358 C2361 1.403 . S
C2359 C2356 1.403 . S
C2359 C2360 1.524 . S
C2359 C2363 1.400 . S
C2360 H2345 0.960 . S
C2360 H2346 0.960 . S
C2360 H2347 0.960 . S
C2360 C2359 1.524 . S
C2361 C2358 1.403 . S
C2361 C2362 1.392 . S
C2361 C2365 1.495 . S
C2362 C2361 1.392 . S
C2362 C2363 1.385 . S
C2362 C2364 1.478 . S
C2363 H2357 0.930 . S
C2363 C2359 1.400 . S
C2363 C2362 1.385 . S
C2364 C2362 1.478 . S
C2364 C2366 1.381 . S
C2364 C2370 1.383 . S
C2365 C2361 1.495 . S
C2365 H2371 0.959 . S
C2365 H2372 0.961 . S
C2365 H2373 0.960 . S
C2366 C2364 1.381 . S
C2366 C2367 1.394 . S
C2366 H2374 0.930 . S
C2367 C2366 1.394 . S
C2367 C2368 1.383 . S
C2367 H2375 0.929 . S
C2368 C2367 1.383 . S
C2368 C2369 1.377 . S
C2369 H2353 0.930 . S
C2369 C2368 1.377 . S
C2369 C2370 1.379 . S
C2370 H2354 0.931 . S
C2370 C2364 1.383 . S
C2370 C2369 1.379 . S
H2371 C2365 0.959 . S
H2372 C2365 0.961 . S
H2373 C2365 0.960 . S
H2374 C2366 0.930 . S
H2375 C2367 0.929 . S
H2376 C2384 0.929 . S
H2377 C2386 0.930 . S
H2378 C2388 0.930 . S
H2379 C2391 0.929 . S
H2380 C2394 0.930 . S
H2381 C2396 0.960 . S
H2382 C2396 0.960 . S
H2383 C2396 0.960 . S
C2384 H2376 0.929 . S
C2384 C2385 1.377 . S
C2384 C2386 1.384 . S
C2385 C2384 1.377 . S
C2385 C2391 1.390 . S
C2386 H2377 0.930 . S
C2386 C2384 1.384 . S
C2386 C2387 1.372 . S
C2387 C2386 1.372 . S
C2387 C2388 1.400 . S
C2387 C2392 1.490 . S
C2388 H2378 0.930 . S
C2388 C2387 1.400 . S
C2388 C2391 1.386 . S
H2389 C2405 0.930 . S
H2390 C2406 0.931 . S
C2391 H2379 0.929 . S
C2391 C2385 1.390 . S
C2391 C2388 1.386 . S
C2392 C2387 1.490 . S
C2392 C2394 1.395 . S
C2392 C2395 1.403 . S
H2393 C2399 0.930 . S
C2394 H2380 0.930 . S
C2394 C2392 1.395 . S
C2394 C2397 1.403 . S
C2395 C2392 1.403 . S
C2395 C2396 1.524 . S
C2395 C2399 1.400 . S
C2396 H2381 0.960 . S
C2396 H2382 0.960 . S
C2396 H2383 0.960 . S
C2396 C2395 1.524 . S
C2397 C2394 1.403 . S
C2397 C2398 1.392 . S
C2397 C2401 1.495 . S
C2398 C2397 1.392 . S
C2398 C2399 1.385 . S
C2398 C2400 1.478 . S
C2399 H2393 0.930 . S
C2399 C2395 1.400 . S
C2399 C2398 1.385 . S
C2400 C2398 1.478 . S
C2400 C2402 1.381 . S
C2400 C2406 1.383 . S
C2401 C2397 1.495 . S
C2401 H2407 0.959 . S
C2401 H2408 0.961 . S
C2401 H2409 0.960 . S
C2402 C2400 1.381 . S
C2402 C2403 1.394 . S
C2402 H2410 0.930 . S
C2403 C2402 1.394 . S
C2403 C2404 1.383 . S
C2403 H2411 0.929 . S
C2404 C2403 1.383 . S
C2404 C2405 1.377 . S
C2405 H2389 0.930 . S
C2405 C2404 1.377 . S
C2405 C2406 1.379 . S
C2406 H2390 0.931 . S
C2406 C2400 1.383 . S
C2406 C2405 1.379 . S
H2407 C2401 0.959 . S
H2408 C2401 0.961 . S
H2409 C2401 0.960 . S
H2410 C2402 0.930 . S
H2411 C2403 0.929 . S
H2412 C2420 0.929 . S
H2413 C2422 0.930 . S
H2414 C2424 0.930 . S
H2415 C2427 0.929 . S
H2416 C2430 0.930 . S
H2417 C2432 0.960 . S
H2418 C2432 0.960 . S
H2419 C2432 0.960 . S
C2420 H2412 0.929 . S
C2420 C2421 1.377 . S
C2420 C2422 1.384 . S
C2421 C2420 1.377 . S
C2421 C2427 1.390 . S
C2422 H2413 0.930 . S
C2422 C2420 1.384 . S
C2422 C2423 1.372 . S
C2423 C2422 1.372 . S
C2423 C2424 1.400 . S
C2423 C2428 1.490 . S
C2424 H2414 0.930 . S
C2424 C2423 1.400 . S
C2424 C2427 1.386 . S
H2425 C2441 0.930 . S
H2426 C2442 0.931 . S
C2427 H2415 0.929 . S
C2427 C2421 1.390 . S
C2427 C2424 1.386 . S
C2428 C2423 1.490 . S
C2428 C2430 1.395 . S
C2428 C2431 1.403 . S
H2429 C2435 0.930 . S
C2430 H2416 0.930 . S
C2430 C2428 1.395 . S
C2430 C2433 1.403 . S
C2431 C2428 1.403 . S
C2431 C2432 1.524 . S
C2431 C2435 1.400 . S
C2432 H2417 0.960 . S
C2432 H2418 0.960 . S
C2432 H2419 0.960 . S
C2432 C2431 1.524 . S
C2433 C2430 1.403 . S
C2433 C2434 1.392 . S
C2433 C2437 1.495 . S
C2434 C2433 1.392 . S
C2434 C2435 1.385 . S
C2434 C2436 1.478 . S
C2435 H2429 0.930 . S
C2435 C2431 1.400 . S
C2435 C2434 1.385 . S
C2436 C2434 1.478 . S
C2436 C2438 1.381 . S
C2436 C2442 1.383 . S
C2437 C2433 1.495 . S
C2437 H2443 0.959 . S
C2437 H2444 0.961 . S
C2437 H2445 0.960 . S
C2438 C2436 1.381 . S
C2438 C2439 1.394 . S
C2438 H2446 0.930 . S
C2439 C2438 1.394 . S
C2439 C2440 1.383 . S
C2439 H2447 0.929 . S
C2440 C2439 1.383 . S
C2440 C2441 1.377 . S
C2441 H2425 0.930 . S
C2441 C2440 1.377 . S
C2441 C2442 1.379 . S
C2442 H2426 0.931 . S
C2442 C2436 1.383 . S
C2442 C2441 1.379 . S
H2443 C2437 0.959 . S
H2444 C2437 0.961 . S
H2445 C2437 0.960 . S
H2446 C2438 0.930 . S
H2447 C2439 0.929 . S
H2448 C2456 0.929 . S
H2449 C2458 0.930 . S
H2450 C2460 0.930 . S
H2451 C2463 0.929 . S
H2452 C2466 0.930 . S
H2453 C2468 0.960 . S
H2454 C2468 0.960 . S
H2455 C2468 0.960 . S
C2456 H2448 0.929 . S
C2456 C2457 1.377 . S
C2456 C2458 1.384 . S
C2457 C2456 1.377 . S
C2457 C2463 1.390 . S
C2458 H2449 0.930 . S
C2458 C2456 1.384 . S
C2458 C2459 1.372 . S
C2459 C2458 1.372 . S
C2459 C2460 1.400 . S
C2459 C2464 1.490 . S
C2460 H2450 0.930 . S
C2460 C2459 1.400 . S
C2460 C2463 1.386 . S
H2461 C2477 0.930 . S
H2462 C2478 0.931 . S
C2463 H2451 0.929 . S
C2463 C2457 1.390 . S
C2463 C2460 1.386 . S
C2464 C2459 1.490 . S
C2464 C2466 1.395 . S
C2464 C2467 1.403 . S
H2465 C2471 0.930 . S
C2466 H2452 0.930 . S
C2466 C2464 1.395 . S
C2466 C2469 1.403 . S
C2467 C2464 1.403 . S
C2467 C2468 1.524 . S
C2467 C2471 1.400 . S
C2468 H2453 0.960 . S
C2468 H2454 0.960 . S
C2468 H2455 0.960 . S
C2468 C2467 1.524 . S
C2469 C2466 1.403 . S
C2469 C2470 1.392 . S
C2469 C2473 1.495 . S
C2470 C2469 1.392 . S
C2470 C2471 1.385 . S
C2470 C2472 1.478 . S
C2471 H2465 0.930 . S
C2471 C2467 1.400 . S
C2471 C2470 1.385 . S
C2472 C2470 1.478 . S
C2472 C2474 1.381 . S
C2472 C2478 1.383 . S
C2473 C2469 1.495 . S
C2473 H2479 0.959 . S
C2473 H2480 0.961 . S
C2473 H2481 0.960 . S
C2474 C2472 1.381 . S
C2474 C2475 1.394 . S
C2474 H2482 0.930 . S
C2475 C2474 1.394 . S
C2475 C2476 1.383 . S
C2475 H2483 0.929 . S
C2476 C2475 1.383 . S
C2476 C2477 1.377 . S
C2477 H2461 0.930 . S
C2477 C2476 1.377 . S
C2477 C2478 1.379 . S
C2478 H2462 0.931 . S
C2478 C2472 1.383 . S
C2478 C2477 1.379 . S
H2479 C2473 0.959 . S
H2480 C2473 0.961 . S
H2481 C2473 0.960 . S
H2482 C2474 0.930 . S
H2483 C2475 0.929 . S
H2484 C2492 0.929 . S
H2485 C2494 0.930 . S
H2486 C2496 0.930 . S
H2487 C2499 0.929 . S
H2488 C2502 0.930 . S
H2489 C2504 0.960 . S
H2490 C2504 0.960 . S
H2491 C2504 0.960 . S
C2492 H2484 0.929 . S
C2492 C2493 1.377 . S
C2492 C2494 1.384 . S
C2493 C2492 1.377 . S
C2493 C2499 1.390 . S
C2494 H2485 0.930 . S
C2494 C2492 1.384 . S
C2494 C2495 1.372 . S
C2495 C2494 1.372 . S
C2495 C2496 1.400 . S
C2495 C2500 1.490 . S
C2496 H2486 0.930 . S
C2496 C2495 1.400 . S
C2496 C2499 1.386 . S
H2497 C2513 0.930 . S
H2498 C2514 0.931 . S
C2499 H2487 0.929 . S
C2499 C2493 1.390 . S
C2499 C2496 1.386 . S
C2500 C2495 1.490 . S
C2500 C2502 1.395 . S
C2500 C2503 1.403 . S
H2501 C2507 0.930 . S
C2502 H2488 0.930 . S
C2502 C2500 1.395 . S
C2502 C2505 1.403 . S
C2503 C2500 1.403 . S
C2503 C2504 1.524 . S
C2503 C2507 1.400 . S
C2504 H2489 0.960 . S
C2504 H2490 0.960 . S
C2504 H2491 0.960 . S
C2504 C2503 1.524 . S
C2505 C2502 1.403 . S
C2505 C2506 1.392 . S
C2505 C2509 1.495 . S
C2506 C2505 1.392 . S
C2506 C2507 1.385 . S
C2506 C2508 1.478 . S
C2507 H2501 0.930 . S
C2507 C2503 1.400 . S
C2507 C2506 1.385 . S
C2508 C2506 1.478 . S
C2508 C2510 1.381 . S
C2508 C2514 1.383 . S
C2509 C2505 1.495 . S
C2509 H2515 0.959 . S
C2509 H2516 0.961 . S
C2509 H2517 0.960 . S
C2510 C2508 1.381 . S
C2510 C2511 1.394 . S
C2510 H2518 0.930 . S
C2511 C2510 1.394 . S
C2511 C2512 1.383 . S
C2511 H2519 0.929 . S
C2512 C2511 1.383 . S
C2512 C2513 1.377 . S
C2513 H2497 0.930 . S
C2513 C2512 1.377 . S
C2513 C2514 1.379 . S
C2514 H2498 0.931 . S
C2514 C2508 1.383 . S
C2514 C2513 1.379 . S
H2515 C2509 0.959 . S
H2516 C2509 0.961 . S
H2517 C2509 0.960 . S
H2518 C2510 0.930 . S
H2519 C2511 0.929 . S
H2520 C2528 0.929 . S
H2521 C2530 0.930 . S
H2522 C2532 0.930 . S
H2523 C2535 0.929 . S
H2524 C2538 0.930 . S
H2525 C2540 0.960 . S
H2526 C2540 0.960 . S
H2527 C2540 0.960 . S
C2528 H2520 0.929 . S
C2528 C2529 1.377 . S
C2528 C2530 1.384 . S
C2529 C2528 1.377 . S
C2529 C2535 1.390 . S
C2530 H2521 0.930 . S
C2530 C2528 1.384 . S
C2530 C2531 1.372 . S
C2531 C2530 1.372 . S
C2531 C2532 1.400 . S
C2531 C2536 1.490 . S
C2532 H2522 0.930 . S
C2532 C2531 1.400 . S
C2532 C2535 1.386 . S
H2533 C2549 0.930 . S
H2534 C2550 0.931 . S
C2535 H2523 0.929 . S
C2535 C2529 1.390 . S
C2535 C2532 1.386 . S
C2536 C2531 1.490 . S
C2536 C2538 1.395 . S
C2536 C2539 1.403 . S
H2537 C2543 0.930 . S
C2538 H2524 0.930 . S
C2538 C2536 1.395 . S
C2538 C2541 1.403 . S
C2539 C2536 1.403 . S
C2539 C2540 1.524 . S
C2539 C2543 1.400 . S
C2540 H2525 0.960 . S
C2540 H2526 0.960 . S
C2540 H2527 0.960 . S
C2540 C2539 1.524 . S
C2541 C2538 1.403 . S
C2541 C2542 1.392 . S
C2541 C2545 1.495 . S
C2542 C2541 1.392 . S
C2542 C2543 1.385 . S
C2542 C2544 1.478 . S
C2543 H2537 0.930 . S
C2543 C2539 1.400 . S
C2543 C2542 1.385 . S
C2544 C2542 1.478 . S
C2544 C2546 1.381 . S
C2544 C2550 1.383 . S
C2545 C2541 1.495 . S
C2545 H2551 0.959 . S
C2545 H2552 0.961 . S
C2545 H2553 0.960 . S
C2546 C2544 1.381 . S
C2546 C2547 1.394 . S
C2546 H2554 0.930 . S
C2547 C2546 1.394 . S
C2547 C2548 1.383 . S
C2547 H2555 0.929 . S
C2548 C2547 1.383 . S
C2548 C2549 1.377 . S
C2549 H2533 0.930 . S
C2549 C2548 1.377 . S
C2549 C2550 1.379 . S
C2550 H2534 0.931 . S
C2550 C2544 1.383 . S
C2550 C2549 1.379 . S
H2551 C2545 0.959 . S
H2552 C2545 0.961 . S
H2553 C2545 0.960 . S
H2554 C2546 0.930 . S
H2555 C2547 0.929 . S
H2556 C2564 0.929 . S
H2557 C2566 0.930 . S
H2558 C2568 0.930 . S
H2559 C2571 0.929 . S
H2560 C2574 0.930 . S
H2561 C2576 0.960 . S
H2562 C2576 0.960 . S
H2563 C2576 0.960 . S
C2564 H2556 0.929 . S
C2564 C2565 1.377 . S
C2564 C2566 1.384 . S
C2565 C2564 1.377 . S
C2565 C2571 1.390 . S
C2566 H2557 0.930 . S
C2566 C2564 1.384 . S
C2566 C2567 1.372 . S
C2567 C2566 1.372 . S
C2567 C2568 1.400 . S
C2567 C2572 1.490 . S
C2568 H2558 0.930 . S
C2568 C2567 1.400 . S
C2568 C2571 1.386 . S
H2569 C2585 0.930 . S
H2570 C2586 0.931 . S
C2571 H2559 0.929 . S
C2571 C2565 1.390 . S
C2571 C2568 1.386 . S
C2572 C2567 1.490 . S
C2572 C2574 1.395 . S
C2572 C2575 1.403 . S
H2573 C2579 0.930 . S
C2574 H2560 0.930 . S
C2574 C2572 1.395 . S
C2574 C2577 1.403 . S
C2575 C2572 1.403 . S
C2575 C2576 1.524 . S
C2575 C2579 1.400 . S
C2576 H2561 0.960 . S
C2576 H2562 0.960 . S
C2576 H2563 0.960 . S
C2576 C2575 1.524 . S
C2577 C2574 1.403 . S
C2577 C2578 1.392 . S
C2577 C2581 1.495 . S
C2578 C2577 1.392 . S
C2578 C2579 1.385 . S
C2578 C2580 1.478 . S
C2579 H2573 0.930 . S
C2579 C2575 1.400 . S
C2579 C2578 1.385 . S
C2580 C2578 1.478 . S
C2580 C2582 1.381 . S
C2580 C2586 1.383 . S
C2581 C2577 1.495 . S
C2581 H2587 0.959 . S
C2581 H2588 0.961 . S
C2581 H2589 0.960 . S
C2582 C2580 1.381 . S
C2582 C2583 1.394 . S
C2582 H2590 0.930 . S
C2583 C2582 1.394 . S
C2583 C2584 1.383 . S
C2583 H2591 0.929 . S
C2584 C2583 1.383 . S
C2584 C2585 1.377 . S
C2585 H2569 0.930 . S
C2585 C2584 1.377 . S
C2585 C2586 1.379 . S
C2586 H2570 0.931 . S
C2586 C2580 1.383 . S
C2586 C2585 1.379 . S
H2587 C2581 0.959 . S
H2588 C2581 0.961 . S
H2589 C2581 0.960 . S
H2590 C2582 0.930 . S
H2591 C2583 0.929 . S
H2592 C2600 0.929 . S
H2593 C2602 0.930 . S
H2594 C2604 0.930 . S
H2595 C2607 0.929 . S
H2596 C2610 0.930 . S
H2597 C2612 0.960 . S
H2598 C2612 0.960 . S
H2599 C2612 0.960 . S
C2600 H2592 0.929 . S
C2600 C2601 1.377 . S
C2600 C2602 1.384 . S
C2601 C2600 1.377 . S
C2601 C2607 1.390 . S
C2602 H2593 0.930 . S
C2602 C2600 1.384 . S
C2602 C2603 1.372 . S
C2603 C2602 1.372 . S
C2603 C2604 1.400 . S
C2603 C2608 1.490 . S
C2604 H2594 0.930 . S
C2604 C2603 1.400 . S
C2604 C2607 1.386 . S
H2605 C2621 0.930 . S
H2606 C2622 0.931 . S
C2607 H2595 0.929 . S
C2607 C2601 1.390 . S
C2607 C2604 1.386 . S
C2608 C2603 1.490 . S
C2608 C2610 1.395 . S
C2608 C2611 1.403 . S
H2609 C2615 0.930 . S
C2610 H2596 0.930 . S
C2610 C2608 1.395 . S
C2610 C2613 1.403 . S
C2611 C2608 1.403 . S
C2611 C2612 1.524 . S
C2611 C2615 1.400 . S
C2612 H2597 0.960 . S
C2612 H2598 0.960 . S
C2612 H2599 0.960 . S
C2612 C2611 1.524 . S
C2613 C2610 1.403 . S
C2613 C2614 1.392 . S
C2613 C2617 1.495 . S
C2614 C2613 1.392 . S
C2614 C2615 1.385 . S
C2614 C2616 1.478 . S
C2615 H2609 0.930 . S
C2615 C2611 1.400 . S
C2615 C2614 1.385 . S
C2616 C2614 1.478 . S
C2616 C2618 1.381 . S
C2616 C2622 1.383 . S
C2617 C2613 1.495 . S
C2617 H2623 0.959 . S
C2617 H2624 0.961 . S
C2617 H2625 0.960 . S
C2618 C2616 1.381 . S
C2618 C2619 1.394 . S
C2618 H2626 0.930 . S
C2619 C2618 1.394 . S
C2619 C2620 1.383 . S
C2619 H2627 0.929 . S
C2620 C2619 1.383 . S
C2620 C2621 1.377 . S
C2621 H2605 0.930 . S
C2621 C2620 1.377 . S
C2621 C2622 1.379 . S
C2622 H2606 0.931 . S
C2622 C2616 1.383 . S
C2622 C2621 1.379 . S
H2623 C2617 0.959 . S
H2624 C2617 0.961 . S
H2625 C2617 0.960 . S
H2626 C2618 0.930 . S
H2627 C2619 0.929 . S
H2628 C2636 0.929 . S
H2629 C2638 0.930 . S
H2630 C2640 0.930 . S
H2631 C2643 0.929 . S
H2632 C2646 0.930 . S
H2633 C2648 0.960 . S
H2634 C2648 0.960 . S
H2635 C2648 0.960 . S
C2636 H2628 0.929 . S
C2636 C2637 1.377 . S
C2636 C2638 1.384 . S
C2637 C2636 1.377 . S
C2637 C2643 1.390 . S
C2638 H2629 0.930 . S
C2638 C2636 1.384 . S
C2638 C2639 1.372 . S
C2639 C2638 1.372 . S
C2639 C2640 1.400 . S
C2639 C2644 1.490 . S
C2640 H2630 0.930 . S
C2640 C2639 1.400 . S
C2640 C2643 1.386 . S
H2641 C2657 0.930 . S
H2642 C2658 0.931 . S
C2643 H2631 0.929 . S
C2643 C2637 1.390 . S
C2643 C2640 1.386 . S
C2644 C2639 1.490 . S
C2644 C2646 1.395 . S
C2644 C2647 1.403 . S
H2645 C2651 0.930 . S
C2646 H2632 0.930 . S
C2646 C2644 1.395 . S
C2646 C2649 1.403 . S
C2647 C2644 1.403 . S
C2647 C2648 1.524 . S
C2647 C2651 1.400 . S
C2648 H2633 0.960 . S
C2648 H2634 0.960 . S
C2648 H2635 0.960 . S
C2648 C2647 1.524 . S
C2649 C2646 1.403 . S
C2649 C2650 1.392 . S
C2649 C2653 1.495 . S
C2650 C2649 1.392 . S
C2650 C2651 1.385 . S
C2650 C2652 1.478 . S
C2651 H2645 0.930 . S
C2651 C2647 1.400 . S
C2651 C2650 1.385 . S
C2652 C2650 1.478 . S
C2652 C2654 1.381 . S
C2652 C2658 1.383 . S
C2653 C2649 1.495 . S
C2653 H2659 0.959 . S
C2653 H2660 0.961 . S
C2653 H2661 0.960 . S
C2654 C2652 1.381 . S
C2654 C2655 1.394 . S
C2654 H2662 0.930 . S
C2655 C2654 1.394 . S
C2655 C2656 1.383 . S
C2655 H2663 0.929 . S
C2656 C2655 1.383 . S
C2656 C2657 1.377 . S
C2657 H2641 0.930 . S
C2657 C2656 1.377 . S
C2657 C2658 1.379 . S
C2658 H2642 0.931 . S
C2658 C2652 1.383 . S
C2658 C2657 1.379 . S
H2659 C2653 0.959 . S
H2660 C2653 0.961 . S
H2661 C2653 0.960 . S
H2662 C2654 0.930 . S
H2663 C2655 0.929 . S
H2664 C2672 0.929 . S
H2665 C2674 0.930 . S
H2666 C2676 0.930 . S
H2667 C2679 0.929 . S
H2668 C2682 0.930 . S
H2669 C2684 0.960 . S
H2670 C2684 0.960 . S
H2671 C2684 0.960 . S
C2672 H2664 0.929 . S
C2672 C2673 1.377 . S
C2672 C2674 1.384 . S
C2673 C2672 1.377 . S
C2673 C2679 1.390 . S
C2674 H2665 0.930 . S
C2674 C2672 1.384 . S
C2674 C2675 1.372 . S
C2675 C2674 1.372 . S
C2675 C2676 1.400 . S
C2675 C2680 1.490 . S
C2676 H2666 0.930 . S
C2676 C2675 1.400 . S
C2676 C2679 1.386 . S
H2677 C2693 0.930 . S
H2678 C2694 0.931 . S
C2679 H2667 0.929 . S
C2679 C2673 1.390 . S
C2679 C2676 1.386 . S
C2680 C2675 1.490 . S
C2680 C2682 1.395 . S
C2680 C2683 1.403 . S
H2681 C2687 0.930 . S
C2682 H2668 0.930 . S
C2682 C2680 1.395 . S
C2682 C2685 1.403 . S
C2683 C2680 1.403 . S
C2683 C2684 1.524 . S
C2683 C2687 1.400 . S
C2684 H2669 0.960 . S
C2684 H2670 0.960 . S
C2684 H2671 0.960 . S
C2684 C2683 1.524 . S
C2685 C2682 1.403 . S
C2685 C2686 1.392 . S
C2685 C2689 1.495 . S
C2686 C2685 1.392 . S
C2686 C2687 1.385 . S
C2686 C2688 1.478 . S
C2687 H2681 0.930 . S
C2687 C2683 1.400 . S
C2687 C2686 1.385 . S
C2688 C2686 1.478 . S
C2688 C2690 1.381 . S
C2688 C2694 1.383 . S
C2689 C2685 1.495 . S
C2689 H2695 0.959 . S
C2689 H2696 0.961 . S
C2689 H2697 0.960 . S
C2690 C2688 1.381 . S
C2690 C2691 1.394 . S
C2690 H2698 0.930 . S
C2691 C2690 1.394 . S
C2691 C2692 1.383 . S
C2691 H2699 0.929 . S
C2692 C2691 1.383 . S
C2692 C2693 1.377 . S
C2693 H2677 0.930 . S
C2693 C2692 1.377 . S
C2693 C2694 1.379 . S
C2694 H2678 0.931 . S
C2694 C2688 1.383 . S
C2694 C2693 1.379 . S
H2695 C2689 0.959 . S
H2696 C2689 0.961 . S
H2697 C2689 0.960 . S
H2698 C2690 0.930 . S
H2699 C2691 0.929 . S
H2700 C2708 0.929 . S
H2701 C2710 0.930 . S
H2702 C2712 0.930 . S
H2703 C2715 0.929 . S
H2704 C2718 0.930 . S
H2705 C2720 0.960 . S
H2706 C2720 0.960 . S
H2707 C2720 0.960 . S
C2708 H2700 0.929 . S
C2708 C2709 1.377 . S
C2708 C2710 1.384 . S
C2709 C2708 1.377 . S
C2709 C2715 1.390 . S
C2710 H2701 0.930 . S
C2710 C2708 1.384 . S
C2710 C2711 1.372 . S
C2711 C2710 1.372 . S
C2711 C2712 1.400 . S
C2711 C2716 1.490 . S
C2712 H2702 0.930 . S
C2712 C2711 1.400 . S
C2712 C2715 1.386 . S
H2713 C2729 0.930 . S
H2714 C2730 0.931 . S
C2715 H2703 0.929 . S
C2715 C2709 1.390 . S
C2715 C2712 1.386 . S
C2716 C2711 1.490 . S
C2716 C2718 1.395 . S
C2716 C2719 1.403 . S
H2717 C2723 0.930 . S
C2718 H2704 0.930 . S
C2718 C2716 1.395 . S
C2718 C2721 1.403 . S
C2719 C2716 1.403 . S
C2719 C2720 1.524 . S
C2719 C2723 1.400 . S
C2720 H2705 0.960 . S
C2720 H2706 0.960 . S
C2720 H2707 0.960 . S
C2720 C2719 1.524 . S
C2721 C2718 1.403 . S
C2721 C2722 1.392 . S
C2721 C2725 1.495 . S
C2722 C2721 1.392 . S
C2722 C2723 1.385 . S
C2722 C2724 1.478 . S
C2723 H2717 0.930 . S
C2723 C2719 1.400 . S
C2723 C2722 1.385 . S
C2724 C2722 1.478 . S
C2724 C2726 1.381 . S
C2724 C2730 1.383 . S
C2725 C2721 1.495 . S
C2725 H2731 0.959 . S
C2725 H2732 0.961 . S
C2725 H2733 0.960 . S
C2726 C2724 1.381 . S
C2726 C2727 1.394 . S
C2726 H2734 0.930 . S
C2727 C2726 1.394 . S
C2727 C2728 1.383 . S
C2727 H2735 0.929 . S
C2728 C2727 1.383 . S
C2728 C2729 1.377 . S
C2729 H2713 0.930 . S
C2729 C2728 1.377 . S
C2729 C2730 1.379 . S
C2730 H2714 0.931 . S
C2730 C2724 1.383 . S
C2730 C2729 1.379 . S
H2731 C2725 0.959 . S
H2732 C2725 0.961 . S
H2733 C2725 0.960 . S
H2734 C2726 0.930 . S
H2735 C2727 0.929 . S
H2736 C2744 0.929 . S
H2737 C2746 0.930 . S
H2738 C2748 0.930 . S
H2739 C2751 0.929 . S
H2740 C2754 0.930 . S
H2741 C2756 0.960 . S
H2742 C2756 0.960 . S
H2743 C2756 0.960 . S
C2744 H2736 0.929 . S
C2744 C2745 1.377 . S
C2744 C2746 1.384 . S
C2745 C2744 1.377 . S
C2745 C2751 1.390 . S
C2746 H2737 0.930 . S
C2746 C2744 1.384 . S
C2746 C2747 1.372 . S
C2747 C2746 1.372 . S
C2747 C2748 1.400 . S
C2747 C2752 1.490 . S
C2748 H2738 0.930 . S
C2748 C2747 1.400 . S
C2748 C2751 1.386 . S
H2749 C2765 0.930 . S
H2750 C2766 0.931 . S
C2751 H2739 0.929 . S
C2751 C2745 1.390 . S
C2751 C2748 1.386 . S
C2752 C2747 1.490 . S
C2752 C2754 1.395 . S
C2752 C2755 1.403 . S
H2753 C2759 0.930 . S
C2754 H2740 0.930 . S
C2754 C2752 1.395 . S
C2754 C2757 1.403 . S
C2755 C2752 1.403 . S
C2755 C2756 1.524 . S
C2755 C2759 1.400 . S
C2756 H2741 0.960 . S
C2756 H2742 0.960 . S
C2756 H2743 0.960 . S
C2756 C2755 1.524 . S
C2757 C2754 1.403 . S
C2757 C2758 1.392 . S
C2757 C2761 1.495 . S
C2758 C2757 1.392 . S
C2758 C2759 1.385 . S
C2758 C2760 1.478 . S
C2759 H2753 0.930 . S
C2759 C2755 1.400 . S
C2759 C2758 1.385 . S
C2760 C2758 1.478 . S
C2760 C2762 1.381 . S
C2760 C2766 1.383 . S
C2761 C2757 1.495 . S
C2761 H2767 0.959 . S
C2761 H2768 0.961 . S
C2761 H2769 0.960 . S
C2762 C2760 1.381 . S
C2762 C2763 1.394 . S
C2762 H2770 0.930 . S
C2763 C2762 1.394 . S
C2763 C2764 1.383 . S
C2763 H2771 0.929 . S
C2764 C2763 1.383 . S
C2764 C2765 1.377 . S
C2765 H2749 0.930 . S
C2765 C2764 1.377 . S
C2765 C2766 1.379 . S
C2766 H2750 0.931 . S
C2766 C2760 1.383 . S
C2766 C2765 1.379 . S
H2767 C2761 0.959 . S
H2768 C2761 0.961 . S
H2769 C2761 0.960 . S
H2770 C2762 0.930 . S
H2771 C2763 0.929 . S
H2772 C2780 0.929 . S
H2773 C2782 0.930 . S
H2774 C2784 0.930 . S
H2775 C2787 0.929 . S
H2776 C2790 0.930 . S
H2777 C2792 0.960 . S
H2778 C2792 0.960 . S
H2779 C2792 0.960 . S
C2780 H2772 0.929 . S
C2780 C2781 1.377 1_554 S
C2780 C2782 1.384 . S
C2781 C2780 1.377 1_556 S
C2781 C2787 1.390 . S
C2782 H2773 0.930 . S
C2782 C2780 1.384 . S
C2782 C2783 1.372 1_554 S
C2783 C2782 1.372 1_556 S
C2783 C2784 1.400 . S
C2783 C2788 1.490 . S
C2784 H2774 0.930 . S
C2784 C2783 1.400 . S
C2784 C2787 1.386 . S
H2785 C2801 0.930 . S
H2786 C2802 0.931 . S
C2787 H2775 0.929 . S
C2787 C2781 1.390 . S
C2787 C2784 1.386 . S
C2788 C2783 1.490 . S
C2788 C2790 1.395 . S
C2788 C2791 1.403 . S
H2789 C2795 0.930 . S
C2790 H2776 0.930 . S
C2790 C2788 1.395 . S
C2790 C2793 1.403 . S
C2791 C2788 1.403 . S
C2791 C2792 1.524 . S
C2791 C2795 1.400 . S
C2792 H2777 0.960 . S
C2792 H2778 0.960 . S
C2792 H2779 0.960 . S
C2792 C2791 1.524 . S
C2793 C2790 1.403 . S
C2793 C2794 1.392 . S
C2793 C2797 1.495 . S
C2794 C2793 1.392 . S
C2794 C2795 1.385 . S
C2794 C2796 1.478 . S
C2795 H2789 0.930 . S
C2795 C2791 1.400 . S
C2795 C2794 1.385 . S
C2796 C2794 1.478 . S
C2796 C2798 1.381 . S
C2796 C2802 1.383 . S
C2797 C2793 1.495 . S
C2797 H2803 0.959 . S
C2797 H2804 0.961 . S
C2797 H2805 0.960 . S
C2798 C2796 1.381 . S
C2798 C2799 1.394 . S
C2798 H2806 0.930 . S
C2799 C2798 1.394 . S
C2799 C2800 1.383 . S
C2799 H2807 0.929 . S
C2800 C2799 1.383 . S
C2800 C2801 1.377 . S
C2801 H2785 0.930 . S
C2801 C2800 1.377 . S
C2801 C2802 1.379 . S
C2802 H2786 0.931 . S
C2802 C2796 1.383 . S
C2802 C2801 1.379 . S
H2803 C2797 0.959 . S
H2804 C2797 0.961 . S
H2805 C2797 0.960 . S
H2806 C2798 0.930 . S
H2807 C2799 0.929 . S
H2808 C2816 0.929 . S
H2809 C2818 0.930 . S
H2810 C2820 0.930 . S
H2811 C2823 0.929 . S
H2812 C2826 0.897 1_554 S
H2813 C2828 0.960 . S
H2814 C2828 0.960 . S
H2815 C2828 0.960 . S
C2816 H2808 0.929 . S
C2816 C2817 1.377 . S
C2816 C2818 1.384 . S
C2817 C2816 1.377 . S
C2817 C2823 1.390 . S
C2818 H2809 0.930 . S
C2818 C2816 1.384 . S
C2818 C2819 1.372 . S
C2819 C2818 1.372 . S
C2819 C2820 1.400 . S
C2819 C2824 1.490 . S
C2820 H2810 0.930 . S
C2820 C2819 1.400 . S
C2820 C2823 1.386 . S
H2821 C2837 0.930 . S
H2822 C2838 0.931 . S
C2823 H2811 0.929 . S
C2823 C2817 1.390 . S
C2823 C2820 1.386 . S
C2824 C2819 1.490 . S
C2824 C2826 1.395 . S
C2824 C2827 1.403 . S
H2825 C2831 0.930 . S
C2826 H2812 0.897 1_556 S
C2826 C2824 1.395 . S
C2826 C2829 1.403 . S
C2827 C2824 1.403 . S
C2827 C2828 1.524 . S
C2827 C2831 1.400 . S
C2828 H2813 0.960 . S
C2828 H2814 0.960 . S
C2828 H2815 0.960 . S
C2828 C2827 1.524 . S
C2829 C2826 1.403 . S
C2829 C2830 1.392 . S
C2829 C2833 1.527 . S
C2830 C2829 1.392 . S
C2830 C2831 1.385 . S
C2830 C2832 1.478 . S
C2831 H2825 0.930 . S
C2831 C2827 1.400 . S
C2831 C2830 1.385 . S
C2832 C2830 1.478 . S
C2832 C2834 1.381 . S
C2832 C2838 1.383 . S
C2833 C2829 1.527 . S
C2833 H2839 0.923 1_556 S
C2833 H2840 0.943 1_556 S
C2833 H2841 0.985 . S
C2834 C2832 1.381 . S
C2834 C2835 1.394 . S
C2834 H2842 0.930 . S
C2835 C2834 1.394 . S
C2835 C2836 1.383 . S
C2835 H2843 0.929 . S
C2836 C2835 1.383 . S
C2836 C2837 1.377 . S
C2837 H2821 0.930 . S
C2837 C2836 1.377 . S
C2837 C2838 1.379 . S
C2838 H2822 0.931 . S
C2838 C2832 1.383 . S
C2838 C2837 1.379 . S
H2839 C2833 0.923 1_554 S
H2840 C2833 0.943 1_554 S
H2841 C2833 0.985 . S
H2842 C2834 0.930 . S
H2843 C2835 0.929 . S
H2844 C2852 0.929 . S
H2845 C2854 0.930 . S
H2846 C2856 0.947 . S
H2847 C2859 0.929 . S
H2848 C2862 0.930 . S
H2849 C2864 0.960 . S
H2850 C2864 0.960 . S
H2851 C2864 0.960 . S
C2852 H2844 0.929 . S
C2852 C2853 1.377 . S
C2852 C2854 1.384 . S
C2853 C2852 1.377 . S
C2853 C2859 1.390 1_556 S
C2854 H2845 0.930 . S
C2854 C2852 1.384 . S
C2854 C2855 1.372 . S
C2855 C2854 1.372 . S
C2855 C2856 1.400 . S
C2855 C2860 1.490 . S
C2856 H2846 0.947 . S
C2856 C2855 1.400 . S
C2856 C2859 1.386 1_556 S
H2857 C2873 0.930 . S
H2858 C2874 0.931 . S
C2859 H2847 0.929 . S
C2859 C2853 1.390 1_554 S
C2859 C2856 1.386 1_554 S
C2860 C2855 1.490 . S
C2860 C2862 1.395 . S
C2860 C2863 1.403 . S
H2861 C2867 0.930 . S
C2862 H2848 0.930 . S
C2862 C2860 1.395 . S
C2862 C2865 1.403 . S
C2863 C2860 1.403 . S
C2863 C2864 1.524 1_556 S
C2863 C2867 1.400 . S
C2864 H2849 0.960 . S
C2864 H2850 0.960 . S
C2864 H2851 0.960 . S
C2864 C2863 1.524 1_554 S
C2865 C2862 1.403 . S
C2865 C2866 1.392 . S
C2865 C2869 1.495 . S
C2866 C2865 1.392 . S
C2866 C2867 1.385 . S
C2866 C2868 1.478 . S
C2867 H2861 0.930 . S
C2867 C2863 1.400 . S
C2867 C2866 1.385 . S
C2868 C2866 1.478 . S
C2868 C2870 1.381 . S
C2868 C2874 1.383 . S
C2869 C2865 1.495 . S
C2869 H2875 0.959 . S
C2869 H2876 0.961 . S
C2869 H2877 0.960 . S
C2870 C2868 1.381 . S
C2870 C2871 1.394 . S
C2870 H2878 0.930 . S
C2871 C2870 1.394 . S
C2871 C2872 1.383 . S
C2871 H2879 0.929 . S
C2872 C2871 1.383 . S
C2872 C2873 1.377 . S
C2873 H2857 0.930 . S
C2873 C2872 1.377 . S
C2873 C2874 1.379 . S
C2874 H2858 0.931 . S
C2874 C2868 1.383 . S
C2874 C2873 1.379 . S
H2875 C2869 0.959 . S
H2876 C2869 0.961 . S
H2877 C2869 0.960 . S
H2878 C2870 0.930 . S
H2879 C2871 0.929 . S
H2880 C2888 0.929 . S
H2881 C2890 0.930 . S
H2882 C2892 0.930 . S
H2883 C2895 0.929 . S
H2884 C2898 0.930 . S
H2885 C2900 0.960 . S
H2886 C2900 0.960 . S
H2887 C2900 0.960 . S
C2888 H2880 0.929 . S
C2888 C2889 1.377 . S
C2888 C2890 1.384 . S
C2889 C2888 1.377 . S
C2889 C2895 1.390 1_556 S
C2890 H2881 0.930 . S
C2890 C2888 1.384 . S
C2890 C2891 1.372 . S
C2891 C2890 1.372 . S
C2891 C2892 1.400 . S
C2891 C2896 1.490 . S
C2892 H2882 0.930 . S
C2892 C2891 1.400 . S
C2892 C2895 1.386 1_556 S
H2893 C2909 0.930 . S
H2894 C2910 0.931 . S
C2895 H2883 0.929 . S
C2895 C2889 1.390 1_554 S
C2895 C2892 1.386 1_554 S
C2896 C2891 1.490 . S
C2896 C2898 1.395 . S
C2896 C2899 1.403 . S
H2897 C2903 0.930 . S
C2898 H2884 0.930 . S
C2898 C2896 1.395 . S
C2898 C2901 1.403 . S
C2899 C2896 1.403 . S
C2899 C2900 1.524 . S
C2899 C2903 1.400 . S
C2900 H2885 0.960 . S
C2900 H2886 0.960 . S
C2900 H2887 0.960 . S
C2900 C2899 1.524 . S
C2901 C2898 1.403 . S
C2901 C2902 1.392 . S
C2901 C2905 1.495 . S
C2902 C2901 1.392 . S
C2902 C2903 1.385 . S
C2902 C2904 1.478 . S
C2903 H2897 0.930 . S
C2903 C2899 1.400 . S
C2903 C2902 1.385 . S
C2904 C2902 1.478 . S
C2904 C2906 1.381 . S
C2904 C2910 1.383 . S
C2905 C2901 1.495 . S
C2905 H2911 0.959 . S
C2905 H2912 0.961 . S
C2905 H2913 0.960 . S
C2906 C2904 1.381 . S
C2906 C2907 1.394 . S
C2906 H2914 0.930 . S
C2907 C2906 1.394 . S
C2907 C2908 1.383 . S
C2907 H2915 0.929 . S
C2908 C2907 1.383 . S
C2908 C2909 1.377 . S
C2909 H2893 0.930 . S
C2909 C2908 1.377 . S
C2909 C2910 1.379 . S
C2910 H2894 0.931 . S
C2910 C2904 1.383 . S
C2910 C2909 1.379 . S
H2911 C2905 0.959 . S
H2912 C2905 0.961 . S
H2913 C2905 0.960 . S
H2914 C2906 0.930 . S
H2915 C2907 0.929 . S
H2916 C2924 0.929 . S
H2917 C2926 0.930 . S
H2918 C2928 0.949 . S
H2919 C2931 0.929 . S
H2920 C2934 0.930 . S
H2921 C2936 0.960 . S
H2922 C2936 0.960 . S
H2923 C2936 0.960 . S
C2924 H2916 0.929 . S
C2924 C2925 1.377 . S
C2924 C2926 1.384 . S
C2925 C2924 1.377 . S
C2925 C2931 1.390 1_556 S
C2926 H2917 0.930 . S
C2926 C2924 1.384 . S
C2926 C2927 1.372 . S
C2927 C2926 1.372 . S
C2927 C2928 1.371 1_556 S
C2927 C2932 1.490 . S
C2928 H2918 0.949 . S
C2928 C2927 1.371 1_554 S
C2928 C2931 1.396 . S
H2929 C2945 0.930 . S
H2930 C2946 0.931 . S
C2931 H2919 0.929 . S
C2931 C2925 1.390 1_554 S
C2931 C2928 1.396 . S
C2932 C2927 1.490 . S
C2932 C2934 1.395 . S
C2932 C2935 1.403 . S
H2933 C2939 0.930 . S
C2934 H2920 0.930 . S
C2934 C2932 1.395 . S
C2934 C2937 1.403 . S
C2935 C2932 1.403 . S
C2935 C2936 1.524 . S
C2935 C2939 1.400 . S
C2936 H2921 0.960 . S
C2936 H2922 0.960 . S
C2936 H2923 0.960 . S
C2936 C2935 1.524 . S
C2937 C2934 1.403 . S
C2937 C2938 1.392 . S
C2937 C2941 1.495 . S
C2938 C2937 1.392 . S
C2938 C2939 1.385 . S
C2938 C2940 1.478 . S
C2939 H2933 0.930 . S
C2939 C2935 1.400 . S
C2939 C2938 1.385 . S
C2940 C2938 1.478 . S
C2940 C2942 1.381 . S
C2940 C2946 1.383 . S
C2941 C2937 1.495 . S
C2941 H2947 0.959 . S
C2941 H2948 0.961 . S
C2941 H2949 0.960 . S
C2942 C2940 1.381 . S
C2942 C2943 1.394 . S
C2942 H2950 0.930 . S
C2943 C2942 1.394 . S
C2943 C2944 1.383 . S
C2943 H2951 0.929 . S
C2944 C2943 1.383 . S
C2944 C2945 1.377 . S
C2945 H2929 0.930 . S
C2945 C2944 1.377 . S
C2945 C2946 1.379 . S
C2946 H2930 0.931 . S
C2946 C2940 1.383 . S
C2946 C2945 1.379 . S
H2947 C2941 0.959 . S
H2948 C2941 0.961 . S
H2949 C2941 0.960 . S
H2950 C2942 0.930 . S
H2951 C2943 0.929 . S
H2952 C2960 0.929 . S
H2953 C2962 0.930 . S
H2954 C2964 0.930 . S
H2955 C2967 0.929 . S
H2956 C2970 0.930 . S
H2957 C2972 0.960 . S
H2958 C2972 0.960 . S
H2959 C2972 0.960 . S
C2960 H2952 0.929 . S
C2960 C2961 1.377 1_556 S
C2960 C2962 1.384 . S
C2961 C2960 1.377 1_554 S
C2961 C2967 1.390 . S
C2962 H2953 0.930 . S
C2962 C2960 1.384 . S
C2962 C2963 1.372 . S
C2963 C2962 1.372 . S
C2963 C2964 1.400 1_556 S
C2963 C2968 1.490 . S
C2964 H2954 0.930 . S
C2964 C2963 1.400 1_554 S
C2964 C2967 1.386 . S
H2965 C2981 0.930 . S
H2966 C2982 0.931 . S
C2967 H2955 0.929 . S
C2967 C2961 1.390 . S
C2967 C2964 1.386 . S
C2968 C2963 1.490 . S
C2968 C2970 1.395 . S
C2968 C2971 1.403 . S
H2969 C2975 0.930 . S
C2970 H2956 0.930 . S
C2970 C2968 1.395 . S
C2970 C2973 1.403 . S
C2971 C2968 1.403 . S
C2971 C2972 1.524 . S
C2971 C2975 1.400 . S
C2972 H2957 0.960 . S
C2972 H2958 0.960 . S
C2972 H2959 0.960 . S
C2972 C2971 1.524 . S
C2973 C2970 1.403 . S
C2973 C2974 1.392 . S
C2973 C2977 1.495 . S
C2974 C2973 1.392 . S
C2974 C2975 1.385 . S
C2974 C2976 1.478 . S
C2975 H2969 0.930 . S
C2975 C2971 1.400 . S
C2975 C2974 1.385 . S
C2976 C2974 1.478 . S
C2976 C2978 1.381 . S
C2976 C2982 1.383 . S
C2977 C2973 1.495 . S
C2977 H2983 0.959 . S
C2977 H2984 0.961 . S
C2977 H2985 0.960 . S
C2978 C2976 1.381 . S
C2978 C2979 1.394 . S
C2978 H2986 0.930 . S
C2979 C2978 1.394 . S
C2979 C2980 1.383 . S
C2979 H2987 0.929 . S
C2980 C2979 1.383 . S
C2980 C2981 1.377 . S
C2981 H2965 0.930 . S
C2981 C2980 1.377 . S
C2981 C2982 1.379 . S
C2982 H2966 0.931 . S
C2982 C2976 1.383 . S
C2982 C2981 1.379 . S
H2983 C2977 0.959 . S
H2984 C2977 0.961 . S
H2985 C2977 0.960 . S
H2986 C2978 0.930 . S
H2987 C2979 0.929 . S
H2988 C2996 0.929 . S
H2989 C2998 0.930 . S
H2990 C3000 0.930 . S
H2991 C3003 0.929 . S
H2992 C3006 0.930 . S
H2993 C3008 0.960 . S
H2994 C3008 0.960 . S
H2995 C3008 0.960 . S
C2996 H2988 0.929 . S
C2996 C2997 1.377 . S
C2996 C2998 1.384 . S
C2997 C2996 1.377 . S
C2997 C3003 1.390 . S
C2998 H2989 0.930 . S
C2998 C2996 1.384 . S
C2998 C2999 1.372 . S
C2999 C2998 1.372 . S
C2999 C3000 1.400 . S
C2999 C3004 1.490 . S
C3000 H2990 0.930 . S
C3000 C2999 1.400 . S
C3000 C3003 1.386 . S
H3001 C3017 0.930 . S
H3002 C3018 0.931 . S
C3003 H2991 0.929 . S
C3003 C2997 1.390 . S
C3003 C3000 1.386 . S
C3004 C2999 1.490 . S
C3004 C3006 1.395 . S
C3004 C3007 1.403 . S
H3005 C3011 0.930 . S
C3006 H2992 0.930 . S
C3006 C3004 1.395 . S
C3006 C3009 1.403 . S
C3007 C3004 1.403 . S
C3007 C3008 1.524 . S
C3007 C3011 1.400 . S
C3008 H2993 0.960 . S
C3008 H2994 0.960 . S
C3008 H2995 0.960 . S
C3008 C3007 1.524 . S
C3009 C3006 1.403 . S
C3009 C3010 1.392 . S
C3009 C3013 1.495 . S
C3010 C3009 1.392 . S
C3010 C3011 1.385 . S
C3010 C3012 1.478 . S
C3011 H3005 0.930 . S
C3011 C3007 1.400 . S
C3011 C3010 1.385 . S
C3012 C3010 1.478 . S
C3012 C3014 1.381 . S
C3012 C3018 1.383 . S
C3013 C3009 1.495 . S
C3013 H3019 0.959 . S
C3013 H3020 0.961 . S
C3013 H3021 0.960 . S
C3014 C3012 1.381 . S
C3014 C3015 1.394 . S
C3014 H3022 0.930 . S
C3015 C3014 1.394 . S
C3015 C3016 1.383 . S
C3015 H3023 0.929 . S
C3016 C3015 1.383 . S
C3016 C3017 1.377 . S
C3017 H3001 0.930 . S
C3017 C3016 1.377 . S
C3017 C3018 1.379 . S
C3018 H3002 0.931 . S
C3018 C3012 1.383 . S
C3018 C3017 1.379 . S
H3019 C3013 0.959 . S
H3020 C3013 0.961 . S
H3021 C3013 0.960 . S
H3022 C3014 0.930 . S
H3023 C3015 0.929 . S
H3024 C3032 0.929 . S
H3025 C3034 0.930 . S
H3026 C3036 0.930 . S
H3027 C3039 0.929 . S
H3028 C3042 0.930 . S
H3029 C3044 0.960 . S
H3030 C3044 0.960 . S
H3031 C3044 0.960 . S
C3032 H3024 0.929 . S
C3032 C3033 1.377 . S
C3032 C3034 1.384 . S
C3033 C3032 1.377 . S
C3033 C3039 1.390 . S
C3034 H3025 0.930 . S
C3034 C3032 1.384 . S
C3034 C3035 1.372 . S
C3035 C3034 1.372 . S
C3035 C3036 1.400 . S
C3035 C3040 1.490 . S
C3036 H3026 0.930 . S
C3036 C3035 1.400 . S
C3036 C3039 1.386 . S
H3037 C3053 0.930 . S
H3038 C3054 0.931 . S
C3039 H3027 0.929 . S
C3039 C3033 1.390 . S
C3039 C3036 1.386 . S
C3040 C3035 1.490 . S
C3040 C3042 1.395 . S
C3040 C3043 1.403 . S
H3041 C3047 0.930 . S
C3042 H3028 0.930 . S
C3042 C3040 1.395 . S
C3042 C3045 1.403 . S
C3043 C3040 1.403 . S
C3043 C3044 1.524 . S
C3043 C3047 1.400 . S
C3044 H3029 0.960 . S
C3044 H3030 0.960 . S
C3044 H3031 0.960 . S
C3044 C3043 1.524 . S
C3045 C3042 1.403 . S
C3045 C3046 1.392 . S
C3045 C3049 1.495 . S
C3046 C3045 1.392 . S
C3046 C3047 1.385 . S
C3046 C3048 1.478 . S
C3047 H3041 0.930 . S
C3047 C3043 1.400 . S
C3047 C3046 1.385 . S
C3048 C3046 1.478 . S
C3048 C3050 1.381 . S
C3048 C3054 1.383 . S
C3049 C3045 1.495 . S
C3049 H3055 0.959 . S
C3049 H3056 0.961 . S
C3049 H3057 0.960 . S
C3050 C3048 1.381 . S
C3050 C3051 1.394 . S
C3050 H3058 0.930 . S
C3051 C3050 1.394 . S
C3051 C3052 1.383 . S
C3051 H3059 0.929 . S
C3052 C3051 1.383 . S
C3052 C3053 1.377 . S
C3053 H3037 0.930 . S
C3053 C3052 1.377 . S
C3053 C3054 1.379 . S
C3054 H3038 0.931 . S
C3054 C3048 1.383 . S
C3054 C3053 1.379 . S
H3055 C3049 0.959 . S
H3056 C3049 0.961 . S
H3057 C3049 0.960 . S
H3058 C3050 0.930 . S
H3059 C3051 0.929 . S
H3060 C3068 0.929 . S
H3061 C3070 0.930 . S
H3062 C3072 0.930 . S
H3063 C3075 0.929 . S
H3064 C3078 0.930 . S
H3065 C3080 0.960 . S
H3066 C3080 0.960 . S
H3067 C3080 0.960 . S
C3068 H3060 0.929 . S
C3068 C3069 1.377 . S
C3068 C3070 1.384 . S
C3069 C3068 1.377 . S
C3069 C3075 1.390 . S
C3070 H3061 0.930 . S
C3070 C3068 1.384 . S
C3070 C3071 1.372 . S
C3071 C3070 1.372 . S
C3071 C3072 1.400 . S
C3071 C3076 1.490 . S
C3072 H3062 0.930 . S
C3072 C3071 1.400 . S
C3072 C3075 1.386 . S
H3073 C3089 0.930 . S
H3074 C3090 0.931 . S
C3075 H3063 0.929 . S
C3075 C3069 1.390 . S
C3075 C3072 1.386 . S
C3076 C3071 1.490 . S
C3076 C3078 1.395 . S
C3076 C3079 1.403 . S
H3077 C3083 0.930 . S
C3078 H3064 0.930 . S
C3078 C3076 1.395 . S
C3078 C3081 1.403 . S
C3079 C3076 1.403 . S
C3079 C3080 1.524 . S
C3079 C3083 1.400 . S
C3080 H3065 0.960 . S
C3080 H3066 0.960 . S
C3080 H3067 0.960 . S
C3080 C3079 1.524 . S
C3081 C3078 1.403 . S
C3081 C3082 1.392 . S
C3081 C3085 1.495 . S
C3082 C3081 1.392 . S
C3082 C3083 1.385 . S
C3082 C3084 1.478 . S
C3083 H3077 0.930 . S
C3083 C3079 1.400 . S
C3083 C3082 1.385 . S
C3084 C3082 1.478 . S
C3084 C3086 1.381 . S
C3084 C3090 1.383 . S
C3085 C3081 1.495 . S
C3085 H3091 0.959 . S
C3085 H3092 0.961 . S
C3085 H3093 0.960 . S
C3086 C3084 1.381 . S
C3086 C3087 1.394 . S
C3086 H3094 0.930 . S
C3087 C3086 1.394 . S
C3087 C3088 1.383 . S
C3087 H3095 0.929 . S
C3088 C3087 1.383 . S
C3088 C3089 1.377 . S
C3089 H3073 0.930 . S
C3089 C3088 1.377 . S
C3089 C3090 1.379 . S
C3090 H3074 0.931 . S
C3090 C3084 1.383 . S
C3090 C3089 1.379 . S
H3091 C3085 0.959 . S
H3092 C3085 0.961 . S
H3093 C3085 0.960 . S
H3094 C3086 0.930 . S
H3095 C3087 0.929 . S
H3096 C3104 0.929 . S
H3097 C3106 0.930 . S
H3098 C3108 0.930 . S
H3099 C3111 0.929 . S
H3100 C3114 0.930 . S
H3101 C3116 0.960 . S
H3102 C3116 0.960 . S
H3103 C3116 0.960 . S
C3104 H3096 0.929 . S
C3104 C3105 1.377 . S
C3104 C3106 1.384 . S
C3105 C3104 1.377 . S
C3105 C3111 1.390 . S
C3106 H3097 0.930 . S
C3106 C3104 1.384 . S
C3106 C3107 1.372 . S
C3107 C3106 1.372 . S
C3107 C3108 1.400 . S
C3107 C3112 1.490 . S
C3108 H3098 0.930 . S
C3108 C3107 1.400 . S
C3108 C3111 1.386 . S
H3109 C3125 0.930 . S
H3110 C3126 0.931 . S
C3111 H3099 0.929 . S
C3111 C3105 1.390 . S
C3111 C3108 1.386 . S
C3112 C3107 1.490 . S
C3112 C3114 1.395 . S
C3112 C3115 1.403 . S
H3113 C3119 0.930 . S
C3114 H3100 0.930 . S
C3114 C3112 1.395 . S
C3114 C3117 1.403 . S
C3115 C3112 1.403 . S
C3115 C3116 1.524 . S
C3115 C3119 1.400 . S
C3116 H3101 0.960 . S
C3116 H3102 0.960 . S
C3116 H3103 0.960 . S
C3116 C3115 1.524 . S
C3117 C3114 1.403 . S
C3117 C3118 1.392 . S
C3117 C3121 1.495 . S
C3118 C3117 1.392 . S
C3118 C3119 1.385 . S
C3118 C3120 1.478 . S
C3119 H3113 0.930 . S
C3119 C3115 1.400 . S
C3119 C3118 1.385 . S
C3120 C3118 1.478 . S
C3120 C3122 1.381 . S
C3120 C3126 1.383 . S
C3121 C3117 1.495 . S
C3121 H3127 0.959 . S
C3121 H3128 0.961 . S
C3121 H3129 0.960 . S
C3122 C3120 1.381 . S
C3122 C3123 1.394 . S
C3122 H3130 0.930 . S
C3123 C3122 1.394 . S
C3123 C3124 1.383 . S
C3123 H3131 0.929 . S
C3124 C3123 1.383 . S
C3124 C3125 1.377 . S
C3125 H3109 0.930 . S
C3125 C3124 1.377 . S
C3125 C3126 1.379 . S
C3126 H3110 0.931 . S
C3126 C3120 1.383 . S
C3126 C3125 1.379 . S
H3127 C3121 0.959 . S
H3128 C3121 0.961 . S
H3129 C3121 0.960 . S
H3130 C3122 0.930 . S
H3131 C3123 0.929 . S
H3132 C3140 0.929 . S
H3133 C3142 0.930 . S
H3134 C3144 0.930 . S
H3135 C3147 0.929 . S
H3136 C3150 0.930 . S
H3137 C3152 0.960 . S
H3138 C3152 0.960 . S
H3139 C3152 0.960 . S
C3140 H3132 0.929 . S
C3140 C3141 1.377 . S
C3140 C3142 1.384 . S
C3141 C3140 1.377 . S
C3141 C3147 1.390 . S
C3142 H3133 0.930 . S
C3142 C3140 1.384 . S
C3142 C3143 1.372 . S
C3143 C3142 1.372 . S
C3143 C3144 1.400 . S
C3143 C3148 1.490 . S
C3144 H3134 0.930 . S
C3144 C3143 1.400 . S
C3144 C3147 1.386 . S
H3145 C3161 0.930 . S
H3146 C3162 0.931 . S
C3147 H3135 0.929 . S
C3147 C3141 1.390 . S
C3147 C3144 1.386 . S
C3148 C3143 1.490 . S
C3148 C3150 1.395 . S
C3148 C3151 1.403 . S
H3149 C3155 0.930 . S
C3150 H3136 0.930 . S
C3150 C3148 1.395 . S
C3150 C3153 1.403 . S
C3151 C3148 1.403 . S
C3151 C3152 1.524 . S
C3151 C3155 1.400 . S
C3152 H3137 0.960 . S
C3152 H3138 0.960 . S
C3152 H3139 0.960 . S
C3152 C3151 1.524 . S
C3153 C3150 1.403 . S
C3153 C3154 1.392 . S
C3153 C3157 1.495 . S
C3154 C3153 1.392 . S
C3154 C3155 1.385 . S
C3154 C3156 1.478 . S
C3155 H3149 0.930 . S
C3155 C3151 1.400 . S
C3155 C3154 1.385 . S
C3156 C3154 1.478 . S
C3156 C3158 1.381 . S
C3156 C3162 1.383 . S
C3157 C3153 1.495 . S
C3157 H3163 0.959 . S
C3157 H3164 0.961 . S
C3157 H3165 0.960 . S
C3158 C3156 1.381 . S
C3158 C3159 1.394 . S
C3158 H3166 0.930 . S
C3159 C3158 1.394 . S
C3159 C3160 1.383 . S
C3159 H3167 0.929 . S
C3160 C3159 1.383 . S
C3160 C3161 1.377 . S
C3161 H3145 0.930 . S
C3161 C3160 1.377 . S
C3161 C3162 1.379 . S
C3162 H3146 0.931 . S
C3162 C3156 1.383 . S
C3162 C3161 1.379 . S
H3163 C3157 0.959 . S
H3164 C3157 0.961 . S
H3165 C3157 0.960 . S
H3166 C3158 0.930 . S
H3167 C3159 0.929 . S
H3168 C3176 0.929 . S
H3169 C3178 0.930 . S
H3170 C3180 0.930 . S
H3171 C3183 0.929 . S
H3172 C3186 0.930 . S
H3173 C3188 0.960 . S
H3174 C3188 0.960 . S
H3175 C3188 0.960 . S
C3176 H3168 0.929 . S
C3176 C3177 1.377 . S
C3176 C3178 1.384 . S
C3177 C3176 1.377 . S
C3177 C3183 1.390 . S
C3178 H3169 0.930 . S
C3178 C3176 1.384 . S
C3178 C3179 1.372 . S
C3179 C3178 1.372 . S
C3179 C3180 1.400 . S
C3179 C3184 1.490 . S
C3180 H3170 0.930 . S
C3180 C3179 1.400 . S
C3180 C3183 1.386 . S
H3181 C3197 0.930 . S
H3182 C3198 0.931 . S
C3183 H3171 0.929 . S
C3183 C3177 1.390 . S
C3183 C3180 1.386 . S
C3184 C3179 1.490 . S
C3184 C3186 1.395 . S
C3184 C3187 1.403 . S
H3185 C3191 0.930 . S
C3186 H3172 0.930 . S
C3186 C3184 1.395 . S
C3186 C3189 1.403 . S
C3187 C3184 1.403 . S
C3187 C3188 1.524 . S
C3187 C3191 1.400 . S
C3188 H3173 0.960 . S
C3188 H3174 0.960 . S
C3188 H3175 0.960 . S
C3188 C3187 1.524 . S
C3189 C3186 1.403 . S
C3189 C3190 1.392 . S
C3189 C3193 1.495 . S
C3190 C3189 1.392 . S
C3190 C3191 1.385 . S
C3190 C3192 1.478 . S
C3191 H3185 0.930 . S
C3191 C3187 1.400 . S
C3191 C3190 1.385 . S
C3192 C3190 1.478 . S
C3192 C3194 1.381 . S
C3192 C3198 1.383 . S
C3193 C3189 1.495 . S
C3193 H3199 0.959 . S
C3193 H3200 0.961 . S
C3193 H3201 0.960 . S
C3194 C3192 1.381 . S
C3194 C3195 1.394 . S
C3194 H3202 0.930 . S
C3195 C3194 1.394 . S
C3195 C3196 1.383 . S
C3195 H3203 0.929 . S
C3196 C3195 1.383 . S
C3196 C3197 1.377 . S
C3197 H3181 0.930 . S
C3197 C3196 1.377 . S
C3197 C3198 1.379 . S
C3198 H3182 0.931 . S
C3198 C3192 1.383 . S
C3198 C3197 1.379 . S
H3199 C3193 0.959 . S
H3200 C3193 0.961 . S
H3201 C3193 0.960 . S
H3202 C3194 0.930 . S
H3203 C3195 0.929 . S
H3204 C3212 0.929 . S
H3205 C3214 0.930 . S
H3206 C3216 0.930 . S
H3207 C3219 0.929 . S
H3208 C3222 0.930 . S
H3209 C3224 0.960 . S
H3210 C3224 0.960 . S
H3211 C3224 0.960 . S
C3212 H3204 0.929 . S
C3212 C3213 1.377 . S
C3212 C3214 1.384 . S
C3213 C3212 1.377 . S
C3213 C3219 1.390 . S
C3214 H3205 0.930 . S
C3214 C3212 1.384 . S
C3214 C3215 1.372 . S
C3215 C3214 1.372 . S
C3215 C3216 1.400 . S
C3215 C3220 1.490 . S
C3216 H3206 0.930 . S
C3216 C3215 1.400 . S
C3216 C3219 1.386 . S
H3217 C3233 0.866 1_655 S
H3218 C3234 0.931 . S
C3219 H3207 0.929 . S
C3219 C3213 1.390 . S
C3219 C3216 1.386 . S
C3220 C3215 1.490 . S
C3220 C3222 1.395 . S
C3220 C3223 1.403 . S
H3221 C3227 0.930 1_655 S
C3222 H3208 0.930 . S
C3222 C3220 1.395 . S
C3222 C3225 1.403 . S
C3223 C3220 1.403 . S
C3223 C3224 1.524 1_455 S
C3223 C3227 1.400 . S
C3224 H3209 0.960 . S
C3224 H3210 0.960 . S
C3224 H3211 0.960 . S
C3224 C3223 1.524 1_655 S
C3225 C3222 1.403 . S
C3225 C3226 1.392 . S
C3225 C3229 1.495 . S
C3226 C3225 1.392 . S
C3226 C3227 1.385 . S
C3226 C3228 1.478 . S
C3227 H3221 0.930 1_455 S
C3227 C3223 1.400 . S
C3227 C3226 1.385 . S
C3228 C3226 1.478 . S
C3228 C3230 1.381 . S
C3228 C3234 1.383 . S
C3229 C3225 1.495 . S
C3229 H3235 0.959 . S
C3229 H3236 0.961 . S
C3229 H3237 0.960 . S
C3230 C3228 1.381 . S
C3230 C3231 1.394 . S
C3230 H3238 0.930 . S
C3231 C3230 1.394 . S
C3231 C3232 1.383 . S
C3231 H3239 0.929 . S
C3232 C3231 1.383 . S
C3232 C3233 1.377 . S
C3233 H3217 0.866 1_455 S
C3233 C3232 1.377 . S
C3233 C3234 1.452 . S
C3234 H3218 0.931 . S
C3234 C3228 1.383 . S
C3234 C3233 1.452 . S
H3235 C3229 0.959 . S
H3236 C3229 0.961 . S
H3237 C3229 0.960 . S
H3238 C3230 0.930 . S
H3239 C3231 0.929 . S
H3240 C3248 0.929 . S
H3241 C3250 0.930 . S
H3242 C3252 0.930 . S
H3243 C3255 0.929 . S
H3244 C3258 0.930 . S
H3245 C3260 0.960 . S
H3246 C3260 0.960 . S
H3247 C3260 0.960 . S
C3248 H3240 0.929 . S
C3248 C3249 1.377 . S
C3248 C3250 1.384 . S
C3249 C3248 1.377 . S
C3249 C3255 1.390 . S
C3250 H3241 0.930 . S
C3250 C3248 1.384 . S
C3250 C3251 1.372 . S
C3251 C3250 1.372 . S
C3251 C3252 1.400 . S
C3251 C3256 1.490 . S
C3252 H3242 0.930 . S
C3252 C3251 1.400 . S
C3252 C3255 1.386 . S
H3253 C3269 0.930 . S
H3254 C3270 0.931 . S
C3255 H3243 0.929 . S
C3255 C3249 1.390 . S
C3255 C3252 1.386 . S
C3256 C3251 1.490 . S
C3256 C3258 1.395 . S
C3256 C3259 1.403 . S
H3257 C3263 0.930 . S
C3258 H3244 0.930 . S
C3258 C3256 1.395 . S
C3258 C3261 1.403 . S
C3259 C3256 1.403 . S
C3259 C3260 1.524 . S
C3259 C3263 1.400 . S
C3260 H3245 0.960 . S
C3260 H3246 0.960 . S
C3260 H3247 0.960 . S
C3260 C3259 1.524 . S
C3261 C3258 1.403 . S
C3261 C3262 1.392 . S
C3261 C3265 1.495 . S
C3262 C3261 1.392 . S
C3262 C3263 1.385 . S
C3262 C3264 1.478 . S
C3263 H3257 0.930 . S
C3263 C3259 1.400 . S
C3263 C3262 1.385 . S
C3264 C3262 1.478 . S
C3264 C3266 1.381 . S
C3264 C3270 1.383 . S
C3265 C3261 1.495 . S
C3265 H3271 0.959 . S
C3265 H3272 0.961 . S
C3265 H3273 0.960 . S
C3266 C3264 1.381 . S
C3266 C3267 1.394 . S
C3266 H3274 0.930 . S
C3267 C3266 1.394 . S
C3267 C3268 1.383 . S
C3267 H3275 0.929 . S
C3268 C3267 1.383 . S
C3268 C3269 1.377 . S
C3269 H3253 0.930 . S
C3269 C3268 1.377 . S
C3269 C3270 1.379 . S
C3270 H3254 0.931 . S
C3270 C3264 1.383 . S
C3270 C3269 1.379 . S
H3271 C3265 0.959 . S
H3272 C3265 0.961 . S
H3273 C3265 0.960 . S
H3274 C3266 0.930 . S
H3275 C3267 0.929 . S
H3276 C3284 0.929 . S
H3277 C3286 0.930 . S
H3278 C3288 0.930 . S
H3279 C3291 0.929 . S
H3280 C3294 0.930 . S
H3281 C3296 0.960 . S
H3282 C3296 0.960 . S
H3283 C3296 0.960 . S
C3284 H3276 0.929 . S
C3284 C3285 1.377 . S
C3284 C3286 1.384 . S
C3285 C3284 1.377 . S
C3285 C3291 1.390 . S
C3286 H3277 0.930 . S
C3286 C3284 1.384 . S
C3286 C3287 1.372 . S
C3287 C3286 1.372 . S
C3287 C3288 1.400 . S
C3287 C3292 1.490 . S
C3288 H3278 0.930 . S
C3288 C3287 1.400 . S
C3288 C3291 1.386 . S
H3289 C3305 0.930 . S
H3290 C3306 0.996 . S
C3291 H3279 0.929 . S
C3291 C3285 1.390 . S
C3291 C3288 1.386 . S
C3292 C3287 1.490 . S
C3292 C3294 1.395 . S
C3292 C3295 1.403 . S
H3293 C3299 0.930 . S
C3294 H3280 0.930 . S
C3294 C3292 1.395 . S
C3294 C3297 1.403 . S
C3295 C3292 1.403 . S
C3295 C3296 1.524 . S
C3295 C3299 1.400 . S
C3296 H3281 0.960 . S
C3296 H3282 0.960 . S
C3296 H3283 0.960 . S
C3296 C3295 1.524 . S
C3297 C3294 1.403 . S
C3297 C3298 1.392 . S
C3297 C3301 1.495 . S
C3298 C3297 1.392 . S
C3298 C3299 1.385 . S
C3298 C3300 1.478 . S
C3299 H3293 0.930 . S
C3299 C3295 1.400 . S
C3299 C3298 1.385 . S
C3300 C3298 1.478 . S
C3300 C3302 1.381 . S
C3300 C3306 1.351 1_565 S
C3301 C3297 1.495 . S
C3301 H3307 0.959 . S
C3301 H3308 0.901 1_565 S
C3301 H3309 0.960 . S
C3302 C3300 1.381 . S
C3302 C3303 1.394 . S
C3302 H3310 0.930 . S
C3303 C3302 1.394 . S
C3303 C3304 1.383 . S
C3303 H3311 0.929 . S
C3304 C3303 1.383 . S
C3304 C3305 1.377 1_565 S
C3305 H3289 0.930 . S
C3305 C3304 1.377 1_545 S
C3305 C3306 1.352 . S
C3306 H3290 0.996 . S
C3306 C3300 1.351 1_545 S
C3306 C3305 1.352 . S
H3307 C3301 0.959 . S
H3308 C3301 0.901 1_545 S
H3309 C3301 0.960 . S
H3310 C3302 0.930 . S
H3311 C3303 0.929 . S
H3312 C3320 0.929 . S
H3313 C3322 0.930 . S
H3314 C3324 0.930 . S
H3315 C3327 0.929 . S
H3316 C3330 0.930 . S
H3317 C3332 0.960 . S
H3318 C3332 0.960 . S
H3319 C3332 0.960 . S
C3320 H3312 0.929 . S
C3320 C3321 1.377 . S
C3320 C3322 1.384 . S
C3321 C3320 1.377 . S
C3321 C3327 1.390 . S
C3322 H3313 0.930 . S
C3322 C3320 1.384 . S
C3322 C3323 1.372 . S
C3323 C3322 1.372 . S
C3323 C3324 1.400 . S
C3323 C3328 1.490 . S
C3324 H3314 0.930 . S
C3324 C3323 1.400 . S
C3324 C3327 1.386 . S
H3325 C3341 0.930 . S
H3326 C3342 0.931 . S
C3327 H3315 0.929 . S
C3327 C3321 1.390 . S
C3327 C3324 1.386 . S
C3328 C3323 1.490 . S
C3328 C3330 1.395 . S
C3328 C3331 1.403 . S
H3329 C3335 0.930 . S
C3330 H3316 0.930 . S
C3330 C3328 1.395 . S
C3330 C3333 1.403 . S
C3331 C3328 1.403 . S
C3331 C3332 1.524 . S
C3331 C3335 1.400 . S
C3332 H3317 0.960 . S
C3332 H3318 0.960 . S
C3332 H3319 0.960 . S
C3332 C3331 1.524 . S
C3333 C3330 1.403 . S
C3333 C3334 1.392 . S
C3333 C3337 1.495 . S
C3334 C3333 1.392 . S
C3334 C3335 1.385 . S
C3334 C3336 1.478 . S
C3335 H3329 0.930 . S
C3335 C3331 1.400 . S
C3335 C3334 1.385 . S
C3336 C3334 1.478 . S
C3336 C3338 1.381 . S
C3336 C3342 1.383 1_565 S
C3337 C3333 1.495 . S
C3337 H3343 0.959 . S
C3337 H3344 0.961 . S
C3337 H3345 0.960 . S
C3338 C3336 1.381 . S
C3338 C3339 1.394 . S
C3338 H3346 0.930 . S
C3339 C3338 1.394 . S
C3339 C3340 1.383 . S
C3339 H3347 0.929 . S
C3340 C3339 1.383 . S
C3340 C3341 1.377 1_565 S
C3341 H3325 0.930 . S
C3341 C3340 1.377 1_545 S
C3341 C3342 1.379 . S
C3342 H3326 0.931 . S
C3342 C3336 1.383 1_545 S
C3342 C3341 1.379 . S
H3343 C3337 0.959 . S
H3344 C3337 0.961 . S
H3345 C3337 0.960 . S
H3346 C3338 0.930 . S
H3347 C3339 0.929 . S
H3348 C3356 0.929 . S
H3349 C3358 0.930 . S
H3350 C3360 0.930 . S
H3351 C3363 0.929 . S
H3352 C3366 0.930 . S
H3353 C3368 0.960 1_655 S
H3354 C3368 0.959 1_655 S
H3355 C3368 0.961 . S
C3356 H3348 0.929 . S
C3356 C3357 1.377 . S
C3356 C3358 1.384 . S
C3357 C3356 1.377 . S
C3357 C3363 1.390 . S
C3358 H3349 0.930 . S
C3358 C3356 1.384 . S
C3358 C3359 1.372 . S
C3359 C3358 1.372 . S
C3359 C3360 1.400 . S
C3359 C3364 1.490 . S
C3360 H3350 0.930 . S
C3360 C3359 1.400 . S
C3360 C3363 1.386 . S
H3361 C3377 0.930 . S
H3362 C3378 0.931 . S
C3363 H3351 0.929 . S
C3363 C3357 1.390 . S
C3363 C3360 1.386 . S
C3364 C3359 1.490 . S
C3364 C3366 1.395 . S
C3364 C3367 1.403 . S
H3365 C3371 0.930 . S
C3366 H3352 0.930 . S
C3366 C3364 1.395 . S
C3366 C3369 1.403 . S
C3367 C3364 1.403 . S
C3367 C3368 1.524 . S
C3367 C3371 1.400 . S
C3368 H3353 0.960 1_455 S
C3368 H3354 0.959 1_455 S
C3368 H3355 0.961 . S
C3368 C3367 1.524 . S
C3369 C3366 1.403 . S
C3369 C3370 1.392 . S
C3369 C3373 1.495 . S
C3370 C3369 1.392 . S
C3370 C3371 1.385 . S
C3370 C3372 1.478 . S
C3371 H3365 0.930 . S
C3371 C3367 1.400 . S
C3371 C3370 1.385 . S
C3372 C3370 1.478 . S
C3372 C3374 1.381 . S
C3372 C3378 1.383 . S
C3373 C3369 1.495 . S
C3373 H3379 0.959 . S
C3373 H3380 0.961 . S
C3373 H3381 0.960 . S
C3374 C3372 1.381 . S
C3374 C3375 1.394 . S
C3374 H3382 0.930 . S
C3375 C3374 1.394 . S
C3375 C3376 1.383 . S
C3375 H3383 0.928 1_455 S
C3376 C3375 1.383 . S
C3376 C3377 1.377 . S
C3377 H3361 0.930 . S
C3377 C3376 1.377 . S
C3377 C3378 1.379 . S
C3378 H3362 0.931 . S
C3378 C3372 1.383 . S
C3378 C3377 1.379 . S
H3379 C3373 0.959 . S
H3380 C3373 0.961 . S
H3381 C3373 0.960 . S
H3382 C3374 0.930 . S
H3383 C3375 0.928 1_655 S
H3384 C3392 0.929 . S
H3385 C3394 0.930 . S
H3386 C3396 0.930 . S
H3387 C3399 0.929 . S
H3388 C3402 0.930 . S
H3389 C3404 0.960 . S
H3390 C3404 0.960 . S
H3391 C3404 0.960 . S
C3392 H3384 0.929 . S
C3392 C3393 1.377 . S
C3392 C3394 1.384 . S
C3393 C3392 1.377 . S
C3393 C3399 1.390 . S
C3394 H3385 0.930 . S
C3394 C3392 1.384 . S
C3394 C3395 1.372 . S
C3395 C3394 1.372 . S
C3395 C3396 1.400 . S
C3395 C3400 1.490 . S
C3396 H3386 0.930 . S
C3396 C3395 1.400 . S
C3396 C3399 1.386 . S
H3397 C3413 0.930 . S
H3398 C3414 0.931 . S
C3399 H3387 0.929 . S
C3399 C3393 1.390 . S
C3399 C3396 1.386 . S
C3400 C3395 1.490 . S
C3400 C3402 1.395 . S
C3400 C3403 1.403 . S
H3401 C3407 0.930 . S
C3402 H3388 0.930 . S
C3402 C3400 1.395 . S
C3402 C3405 1.403 . S
C3403 C3400 1.403 . S
C3403 C3404 1.524 . S
C3403 C3407 1.400 . S
C3404 H3389 0.960 . S
C3404 H3390 0.960 . S
C3404 H3391 0.960 . S
C3404 C3403 1.524 . S
C3405 C3402 1.403 . S
C3405 C3406 1.392 . S
C3405 C3409 1.495 . S
C3406 C3405 1.392 . S
C3406 C3407 1.385 . S
C3406 C3408 1.478 . S
C3407 H3401 0.930 . S
C3407 C3403 1.400 . S
C3407 C3406 1.385 . S
C3408 C3406 1.478 . S
C3408 C3410 1.381 . S
C3408 C3414 1.383 . S
C3409 C3405 1.495 . S
C3409 H3415 0.959 . S
C3409 H3416 0.961 . S
C3409 H3417 0.960 . S
C3410 C3408 1.381 . S
C3410 C3411 1.394 . S
C3410 H3418 0.930 . S
C3411 C3410 1.394 . S
C3411 C3412 1.383 . S
C3411 H3419 0.929 . S
C3412 C3411 1.383 . S
C3412 C3413 1.377 . S
C3413 H3397 0.930 . S
C3413 C3412 1.377 . S
C3413 C3414 1.379 . S
C3414 H3398 0.931 . S
C3414 C3408 1.383 . S
C3414 C3413 1.379 . S
H3415 C3409 0.959 . S
H3416 C3409 0.961 . S
H3417 C3409 0.960 . S
H3418 C3410 0.930 . S
H3419 C3411 0.929 . S
H3420 C3428 0.929 . S
H3421 C3430 0.930 . S
H3422 C3432 0.930 . S
H3423 C3435 0.929 . S
H3424 C3438 0.930 . S
H3425 C3440 0.960 . S
H3426 C3440 0.960 . S
H3427 C3440 0.960 . S
C3428 H3420 0.929 . S
C3428 C3429 1.377 . S
C3428 C3430 1.384 . S
C3429 C3428 1.377 . S
C3429 C3435 1.390 . S
C3430 H3421 0.930 . S
C3430 C3428 1.384 . S
C3430 C3431 1.372 . S
C3431 C3430 1.372 . S
C3431 C3432 1.400 . S
C3431 C3436 1.490 . S
C3432 H3422 0.930 . S
C3432 C3431 1.400 . S
C3432 C3435 1.386 . S
H3433 C3449 0.930 . S
H3434 C3450 0.931 . S
C3435 H3423 0.929 . S
C3435 C3429 1.390 . S
C3435 C3432 1.386 . S
C3436 C3431 1.490 . S
C3436 C3438 1.395 . S
C3436 C3439 1.403 . S
H3437 C3443 0.930 . S
C3438 H3424 0.930 . S
C3438 C3436 1.395 . S
C3438 C3441 1.403 . S
C3439 C3436 1.403 . S
C3439 C3440 1.524 . S
C3439 C3443 1.400 . S
C3440 H3425 0.960 . S
C3440 H3426 0.960 . S
C3440 H3427 0.960 . S
C3440 C3439 1.524 . S
C3441 C3438 1.403 . S
C3441 C3442 1.392 . S
C3441 C3445 1.495 . S
C3442 C3441 1.392 . S
C3442 C3443 1.385 . S
C3442 C3444 1.478 . S
C3443 H3437 0.930 . S
C3443 C3439 1.400 . S
C3443 C3442 1.385 . S
C3444 C3442 1.478 . S
C3444 C3446 1.381 . S
C3444 C3450 1.383 . S
C3445 C3441 1.495 . S
C3445 H3451 0.959 . S
C3445 H3452 0.961 . S
C3445 H3453 0.960 . S
C3446 C3444 1.381 . S
C3446 C3447 1.394 . S
C3446 H3454 0.930 . S
C3447 C3446 1.394 . S
C3447 C3448 1.383 . S
C3447 H3455 0.929 . S
C3448 C3447 1.383 . S
C3448 C3449 1.377 . S
C3449 H3433 0.930 . S
C3449 C3448 1.377 . S
C3449 C3450 1.379 . S
C3450 H3434 0.931 . S
C3450 C3444 1.383 . S
C3450 C3449 1.379 . S
H3451 C3445 0.959 . S
H3452 C3445 0.961 . S
H3453 C3445 0.960 . S
H3454 C3446 0.930 . S
H3455 C3447 0.929 . S
H3456 C3464 0.929 . S
H3457 C3466 0.930 . S
H3458 C3468 0.930 . S
H3459 C3471 0.929 . S
H3460 C3474 0.930 . S
H3461 C3476 0.960 . S
H3462 C3476 0.960 . S
H3463 C3476 0.960 . S
C3464 H3456 0.929 . S
C3464 C3465 1.377 . S
C3464 C3466 1.384 . S
C3465 C3464 1.377 . S
C3465 C3471 1.390 . S
C3466 H3457 0.930 . S
C3466 C3464 1.384 . S
C3466 C3467 1.372 . S
C3467 C3466 1.372 . S
C3467 C3468 1.400 . S
C3467 C3472 1.490 . S
C3468 H3458 0.930 . S
C3468 C3467 1.400 . S
C3468 C3471 1.386 . S
H3469 C3485 0.930 . S
H3470 C3486 0.931 . S
C3471 H3459 0.929 . S
C3471 C3465 1.390 . S
C3471 C3468 1.386 . S
C3472 C3467 1.490 . S
C3472 C3474 1.395 . S
C3472 C3475 1.403 . S
H3473 C3479 0.930 . S
C3474 H3460 0.930 . S
C3474 C3472 1.395 . S
C3474 C3477 1.403 . S
C3475 C3472 1.403 . S
C3475 C3476 1.524 . S
C3475 C3479 1.400 . S
C3476 H3461 0.960 . S
C3476 H3462 0.960 . S
C3476 H3463 0.960 . S
C3476 C3475 1.524 . S
C3477 C3474 1.403 . S
C3477 C3478 1.392 . S
C3477 C3481 1.495 . S
C3478 C3477 1.392 . S
C3478 C3479 1.385 . S
C3478 C3480 1.478 . S
C3479 H3473 0.930 . S
C3479 C3475 1.400 . S
C3479 C3478 1.385 . S
C3480 C3478 1.478 . S
C3480 C3482 1.381 . S
C3480 C3486 1.383 . S
C3481 C3477 1.495 . S
C3481 H3487 0.959 . S
C3481 H3488 0.961 . S
C3481 H3489 0.960 . S
C3482 C3480 1.381 . S
C3482 C3483 1.394 . S
C3482 H3490 0.930 . S
C3483 C3482 1.394 . S
C3483 C3484 1.383 . S
C3483 H3491 0.929 . S
C3484 C3483 1.383 . S
C3484 C3485 1.377 . S
C3485 H3469 0.930 . S
C3485 C3484 1.377 . S
C3485 C3486 1.379 . S
C3486 H3470 0.931 . S
C3486 C3480 1.383 . S
C3486 C3485 1.379 . S
H3487 C3481 0.959 . S
H3488 C3481 0.961 . S
H3489 C3481 0.960 . S
H3490 C3482 0.930 . S
H3491 C3483 0.929 . S
H3492 C3500 0.929 . S
H3493 C3502 0.930 . S
H3494 C3504 0.930 . S
H3495 C3507 0.929 . S
H3496 C3510 0.930 . S
H3497 C3512 0.960 . S
H3498 C3512 0.960 . S
H3499 C3512 0.960 . S
C3500 H3492 0.929 . S
C3500 C3501 1.377 . S
C3500 C3502 1.384 . S
C3501 C3500 1.377 . S
C3501 C3507 1.390 . S
C3502 H3493 0.930 . S
C3502 C3500 1.384 . S
C3502 C3503 1.372 . S
C3503 C3502 1.372 . S
C3503 C3504 1.400 . S
C3503 C3508 1.490 . S
C3504 H3494 0.930 . S
C3504 C3503 1.400 . S
C3504 C3507 1.386 . S
H3505 C3521 0.930 . S
H3506 C3522 0.931 . S
C3507 H3495 0.929 . S
C3507 C3501 1.390 . S
C3507 C3504 1.386 . S
C3508 C3503 1.490 . S
C3508 C3510 1.395 . S
C3508 C3511 1.403 . S
H3509 C3515 0.930 . S
C3510 H3496 0.930 . S
C3510 C3508 1.395 . S
C3510 C3513 1.403 . S
C3511 C3508 1.403 . S
C3511 C3512 1.524 . S
C3511 C3515 1.400 . S
C3512 H3497 0.960 . S
C3512 H3498 0.960 . S
C3512 H3499 0.960 . S
C3512 C3511 1.524 . S
C3513 C3510 1.403 . S
C3513 C3514 1.392 . S
C3513 C3517 1.495 . S
C3514 C3513 1.392 . S
C3514 C3515 1.385 . S
C3514 C3516 1.478 . S
C3515 H3509 0.930 . S
C3515 C3511 1.400 . S
C3515 C3514 1.385 . S
C3516 C3514 1.478 . S
C3516 C3518 1.381 . S
C3516 C3522 1.383 . S
C3517 C3513 1.495 . S
C3517 H3523 0.959 . S
C3517 H3524 0.961 . S
C3517 H3525 0.960 . S
C3518 C3516 1.381 . S
C3518 C3519 1.394 . S
C3518 H3526 0.930 . S
C3519 C3518 1.394 . S
C3519 C3520 1.383 . S
C3519 H3527 0.929 . S
C3520 C3519 1.383 . S
C3520 C3521 1.377 . S
C3521 H3505 0.930 . S
C3521 C3520 1.377 . S
C3521 C3522 1.379 . S
C3522 H3506 0.931 . S
C3522 C3516 1.383 . S
C3522 C3521 1.379 . S
H3523 C3517 0.959 . S
H3524 C3517 0.961 . S
H3525 C3517 0.960 . S
H3526 C3518 0.930 . S
H3527 C3519 0.929 . S
H3528 C3536 0.929 . S
H3529 C3538 0.930 . S
H3530 C3540 0.930 . S
H3531 C3543 0.929 . S
H3532 C3546 0.930 . S
H3533 C3548 0.960 . S
H3534 C3548 0.919 1_545 S
H3535 C3548 0.960 . S
C3536 H3528 0.929 . S
C3536 C3537 1.377 . S
C3536 C3538 1.384 . S
C3537 C3536 1.377 . S
C3537 C3543 1.390 . S
C3538 H3529 0.930 . S
C3538 C3536 1.384 . S
C3538 C3539 1.372 . S
C3539 C3538 1.372 . S
C3539 C3540 1.400 . S
C3539 C3544 1.490 . S
C3540 H3530 0.930 . S
C3540 C3539 1.400 . S
C3540 C3543 1.386 . S
H3541 C3557 0.931 . S
H3542 C3558 0.931 1_565 S
C3543 H3531 0.929 . S
C3543 C3537 1.390 . S
C3543 C3540 1.386 . S
C3544 C3539 1.490 . S
C3544 C3546 1.395 . S
C3544 C3547 1.403 . S
H3545 C3551 0.828 1_565 S
C3546 H3532 0.930 . S
C3546 C3544 1.395 . S
C3546 C3549 1.403 . S
C3547 C3544 1.403 . S
C3547 C3548 1.524 1_545 S
C3547 C3551 1.400 . S
C3548 H3533 0.960 . S
C3548 H3534 0.919 1_565 S
C3548 H3535 0.960 . S
C3548 C3547 1.524 1_565 S
C3549 C3546 1.403 . S
C3549 C3550 1.392 . S
C3549 C3553 1.495 . S
C3550 C3549 1.392 . S
C3550 C3551 1.385 . S
C3550 C3552 1.478 . S
C3551 H3545 0.828 1_545 S
C3551 C3547 1.400 . S
C3551 C3550 1.385 . S
C3552 C3550 1.478 . S
C3552 C3554 1.381 . S
C3552 C3558 1.383 . S
C3553 C3549 1.495 . S
C3553 H3559 0.959 . S
C3553 H3560 0.961 . S
C3553 H3561 0.960 . S
C3554 C3552 1.381 . S
C3554 C3555 1.394 . S
C3554 H3562 0.930 . S
C3555 C3554 1.394 . S
C3555 C3556 1.383 . S
C3555 H3563 0.929 . S
C3556 C3555 1.383 . S
C3556 C3557 1.377 1_545 S
C3557 H3541 0.931 . S
C3557 C3556 1.377 1_565 S
C3557 C3558 1.378 1_565 S
C3558 H3542 0.931 1_545 S
C3558 C3552 1.383 . S
C3558 C3557 1.378 1_545 S
H3559 C3553 0.959 . S
H3560 C3553 0.961 . S
H3561 C3553 0.960 . S
H3562 C3554 0.930 . S
H3563 C3555 0.929 . S
H3564 C3572 0.929 . S
H3565 C3574 0.930 . S
H3566 C3576 0.930 . S
H3567 C3579 0.929 . S
H3568 C3582 0.930 . S
H3569 C3584 0.960 . S
H3570 C3584 0.960 . S
H3571 C3584 0.960 . S
C3572 H3564 0.929 . S
C3572 C3573 1.377 . S
C3572 C3574 1.384 . S
C3573 C3572 1.377 . S
C3573 C3579 1.390 . S
C3574 H3565 0.930 . S
C3574 C3572 1.384 . S
C3574 C3575 1.372 . S
C3575 C3574 1.372 . S
C3575 C3576 1.400 . S
C3575 C3580 1.490 . S
C3576 H3566 0.930 . S
C3576 C3575 1.400 . S
C3576 C3579 1.386 . S
H3577 C3593 0.930 . S
H3578 C3594 0.931 . S
C3579 H3567 0.929 . S
C3579 C3573 1.390 . S
C3579 C3576 1.386 . S
C3580 C3575 1.490 . S
C3580 C3582 1.395 . S
C3580 C3583 1.403 . S
H3581 C3587 0.930 . S
C3582 H3568 0.930 . S
C3582 C3580 1.395 . S
C3582 C3585 1.403 . S
C3583 C3580 1.403 . S
C3583 C3584 1.524 . S
C3583 C3587 1.400 . S
C3584 H3569 0.960 . S
C3584 H3570 0.960 . S
C3584 H3571 0.960 . S
C3584 C3583 1.524 . S
C3585 C3582 1.403 . S
C3585 C3586 1.392 . S
C3585 C3589 1.495 . S
C3586 C3585 1.392 . S
C3586 C3587 1.385 . S
C3586 C3588 1.478 . S
C3587 H3581 0.930 . S
C3587 C3583 1.400 . S
C3587 C3586 1.385 . S
C3588 C3586 1.478 . S
C3588 C3590 1.381 1_655 S
C3588 C3594 1.383 . S
C3589 C3585 1.495 . S
C3589 H3595 0.959 . S
C3589 H3596 0.961 . S
C3589 H3597 0.960 . S
C3590 C3588 1.381 1_455 S
C3590 C3591 1.394 . S
C3590 H3598 0.930 . S
C3591 C3590 1.394 . S
C3591 C3592 1.383 1_455 S
C3591 H3599 0.929 . S
C3592 C3591 1.383 1_655 S
C3592 C3593 1.377 . S
C3593 H3577 0.930 . S
C3593 C3592 1.377 . S
C3593 C3594 1.379 . S
C3594 H3578 0.931 . S
C3594 C3588 1.383 . S
C3594 C3593 1.379 . S
H3595 C3589 0.959 . S
H3596 C3589 0.961 . S
H3597 C3589 0.960 . S
H3598 C3590 0.930 . S
H3599 C3591 0.929 . S
H3600 C3608 0.929 . S
H3601 C3610 0.930 . S
H3602 C3612 0.930 . S
H3603 C3615 0.929 . S
H3604 C3618 0.930 . S
H3605 C3620 0.960 . S
H3606 C3620 0.960 . S
H3607 C3620 0.960 . S
C3608 H3600 0.929 . S
C3608 C3609 1.377 . S
C3608 C3610 1.384 . S
C3609 C3608 1.377 . S
C3609 C3615 1.390 . S
C3610 H3601 0.930 . S
C3610 C3608 1.384 . S
C3610 C3611 1.372 . S
C3611 C3610 1.372 . S
C3611 C3612 1.400 . S
C3611 C3616 1.490 . S
C3612 H3602 0.930 . S
C3612 C3611 1.400 . S
C3612 C3615 1.386 . S
H3613 C3629 0.930 . S
H3614 C3630 0.931 . S
C3615 H3603 0.929 . S
C3615 C3609 1.390 . S
C3615 C3612 1.386 . S
C3616 C3611 1.490 . S
C3616 C3618 1.395 . S
C3616 C3619 1.403 . S
H3617 C3623 0.930 . S
C3618 H3604 0.930 . S
C3618 C3616 1.395 . S
C3618 C3621 1.403 . S
C3619 C3616 1.403 . S
C3619 C3620 1.524 . S
C3619 C3623 1.400 . S
C3620 H3605 0.960 . S
C3620 H3606 0.960 . S
C3620 H3607 0.960 . S
C3620 C3619 1.524 . S
C3621 C3618 1.403 . S
C3621 C3622 1.392 . S
C3621 C3625 1.495 . S
C3622 C3621 1.392 . S
C3622 C3623 1.385 . S
C3622 C3624 1.478 . S
C3623 H3617 0.930 . S
C3623 C3619 1.400 . S
C3623 C3622 1.385 . S
C3624 C3622 1.478 . S
C3624 C3626 1.381 . S
C3624 C3630 1.383 . S
C3625 C3621 1.495 . S
C3625 H3631 0.959 . S
C3625 H3632 0.961 . S
C3625 H3633 0.960 . S
C3626 C3624 1.381 . S
C3626 C3627 1.394 . S
C3626 H3634 0.930 . S
C3627 C3626 1.394 . S
C3627 C3628 1.383 . S
C3627 H3635 0.929 . S
C3628 C3627 1.383 . S
C3628 C3629 1.377 . S
C3629 H3613 0.930 . S
C3629 C3628 1.377 . S
C3629 C3630 1.379 . S
C3630 H3614 0.931 . S
C3630 C3624 1.383 . S
C3630 C3629 1.379 . S
H3631 C3625 0.959 . S
H3632 C3625 0.961 . S
H3633 C3625 0.960 . S
H3634 C3626 0.930 . S
H3635 C3627 0.929 . S
H3636 C3644 0.929 . S
H3637 C3646 0.930 . S
H3638 C3648 0.930 . S
H3639 C3651 0.929 . S
H3640 C3654 0.930 . S
H3641 C3656 0.960 . S
H3642 C3656 0.960 . S
H3643 C3656 0.960 . S
C3644 H3636 0.929 . S
C3644 C3645 1.377 . S
C3644 C3646 1.384 . S
C3645 C3644 1.377 . S
C3645 C3651 1.390 . S
C3646 H3637 0.930 . S
C3646 C3644 1.384 . S
C3646 C3647 1.372 . S
C3647 C3646 1.372 . S
C3647 C3648 1.400 . S
C3647 C3652 1.490 . S
C3648 H3638 0.930 . S
C3648 C3647 1.400 . S
C3648 C3651 1.386 . S
H3649 C3665 0.930 . S
H3650 C3666 0.931 . S
C3651 H3639 0.929 . S
C3651 C3645 1.390 . S
C3651 C3648 1.386 . S
C3652 C3647 1.490 . S
C3652 C3654 1.395 . S
C3652 C3655 1.403 . S
H3653 C3659 0.930 . S
C3654 H3640 0.930 . S
C3654 C3652 1.395 . S
C3654 C3657 1.403 . S
C3655 C3652 1.403 . S
C3655 C3656 1.524 . S
C3655 C3659 1.400 . S
C3656 H3641 0.960 . S
C3656 H3642 0.960 . S
C3656 H3643 0.960 . S
C3656 C3655 1.524 . S
C3657 C3654 1.403 . S
C3657 C3658 1.392 . S
C3657 C3661 1.495 . S
C3658 C3657 1.392 . S
C3658 C3659 1.385 . S
C3658 C3660 1.478 . S
C3659 H3653 0.930 . S
C3659 C3655 1.400 . S
C3659 C3658 1.385 . S
C3660 C3658 1.478 . S
C3660 C3662 1.381 . S
C3660 C3666 1.383 . S
C3661 C3657 1.495 . S
C3661 H3667 0.959 . S
C3661 H3668 0.961 . S
C3661 H3669 0.960 . S
C3662 C3660 1.381 . S
C3662 C3663 1.394 . S
C3662 H3670 0.930 . S
C3663 C3662 1.394 . S
C3663 C3664 1.383 . S
C3663 H3671 0.929 . S
C3664 C3663 1.383 . S
C3664 C3665 1.377 . S
C3665 H3649 0.930 . S
C3665 C3664 1.377 . S
C3665 C3666 1.379 . S
C3666 H3650 0.931 . S
C3666 C3660 1.383 . S
C3666 C3665 1.379 . S
H3667 C3661 0.959 . S
H3668 C3661 0.961 . S
H3669 C3661 0.960 . S
H3670 C3662 0.930 . S
H3671 C3663 0.929 . S
H3672 C3680 0.929 . S
H3673 C3682 0.930 . S
H3674 C3684 0.930 . S
H3675 C3687 0.929 . S
H3676 C3690 0.930 . S
H3677 C3692 0.960 . S
H3678 C3692 0.960 . S
H3679 C3692 0.960 . S
C3680 H3672 0.929 . S
C3680 C3681 1.377 . S
C3680 C3682 1.384 . S
C3681 C3680 1.377 . S
C3681 C3687 1.390 . S
C3682 H3673 0.930 . S
C3682 C3680 1.384 . S
C3682 C3683 1.372 . S
C3683 C3682 1.372 . S
C3683 C3684 1.400 . S
C3683 C3688 1.490 . S
C3684 H3674 0.930 . S
C3684 C3683 1.400 . S
C3684 C3687 1.386 . S
H3685 C3701 0.930 . S
H3686 C3702 0.931 . S
C3687 H3675 0.929 . S
C3687 C3681 1.390 . S
C3687 C3684 1.386 . S
C3688 C3683 1.490 . S
C3688 C3690 1.395 . S
C3688 C3691 1.403 . S
H3689 C3695 0.930 . S
C3690 H3676 0.930 . S
C3690 C3688 1.395 . S
C3690 C3693 1.403 . S
C3691 C3688 1.403 . S
C3691 C3692 1.524 . S
C3691 C3695 1.400 . S
C3692 H3677 0.960 . S
C3692 H3678 0.960 . S
C3692 H3679 0.960 . S
C3692 C3691 1.524 . S
C3693 C3690 1.403 . S
C3693 C3694 1.392 . S
C3693 C3697 1.495 . S
C3694 C3693 1.392 . S
C3694 C3695 1.385 . S
C3694 C3696 1.478 . S
C3695 H3689 0.930 . S
C3695 C3691 1.400 . S
C3695 C3694 1.385 . S
C3696 C3694 1.478 . S
C3696 C3698 1.381 . S
C3696 C3702 1.383 . S
C3697 C3693 1.495 . S
C3697 H3703 0.959 . S
C3697 H3704 0.961 . S
C3697 H3705 0.960 . S
C3698 C3696 1.381 . S
C3698 C3699 1.394 . S
C3698 H3706 0.930 . S
C3699 C3698 1.394 . S
C3699 C3700 1.383 . S
C3699 H3707 0.929 . S
C3700 C3699 1.383 . S
C3700 C3701 1.377 . S
C3701 H3685 0.930 . S
C3701 C3700 1.377 . S
C3701 C3702 1.379 . S
C3702 H3686 0.931 . S
C3702 C3696 1.383 . S
C3702 C3701 1.379 . S
H3703 C3697 0.959 . S
H3704 C3697 0.961 . S
H3705 C3697 0.960 . S
H3706 C3698 0.930 . S
H3707 C3699 0.929 . S
H3708 C3716 0.929 . S
H3709 C3718 0.930 . S
H3710 C3720 0.930 . S
H3711 C3723 0.929 . S
H3712 C3726 0.930 . S
H3713 C3728 0.960 . S
H3714 C3728 0.960 . S
H3715 C3728 0.960 . S
C3716 H3708 0.929 . S
C3716 C3717 1.377 . S
C3716 C3718 1.384 . S
C3717 C3716 1.377 . S
C3717 C3723 1.390 . S
C3718 H3709 0.930 . S
C3718 C3716 1.384 . S
C3718 C3719 1.372 . S
C3719 C3718 1.372 . S
C3719 C3720 1.400 . S
C3719 C3724 1.490 . S
C3720 H3710 0.930 . S
C3720 C3719 1.400 . S
C3720 C3723 1.386 . S
H3721 C3737 0.930 . S
H3722 C3738 0.931 . S
C3723 H3711 0.929 . S
C3723 C3717 1.390 . S
C3723 C3720 1.386 . S
C3724 C3719 1.490 . S
C3724 C3726 1.395 . S
C3724 C3727 1.403 . S
H3725 C3731 0.930 . S
C3726 H3712 0.930 . S
C3726 C3724 1.395 . S
C3726 C3729 1.403 . S
C3727 C3724 1.403 . S
C3727 C3728 1.524 . S
C3727 C3731 1.400 . S
C3728 H3713 0.960 . S
C3728 H3714 0.960 . S
C3728 H3715 0.960 . S
C3728 C3727 1.524 . S
C3729 C3726 1.403 . S
C3729 C3730 1.392 . S
C3729 C3733 1.495 . S
C3730 C3729 1.392 . S
C3730 C3731 1.385 . S
C3730 C3732 1.478 . S
C3731 H3725 0.930 . S
C3731 C3727 1.400 . S
C3731 C3730 1.385 . S
C3732 C3730 1.478 . S
C3732 C3734 1.381 . S
C3732 C3738 1.383 . S
C3733 C3729 1.495 . S
C3733 H3739 0.959 . S
C3733 H3740 0.961 . S
C3733 H3741 0.960 . S
C3734 C3732 1.381 . S
C3734 C3735 1.394 . S
C3734 H3742 0.930 . S
C3735 C3734 1.394 . S
C3735 C3736 1.383 . S
C3735 H3743 0.929 . S
C3736 C3735 1.383 . S
C3736 C3737 1.377 . S
C3737 H3721 0.930 . S
C3737 C3736 1.377 . S
C3737 C3738 1.379 . S
C3738 H3722 0.931 . S
C3738 C3732 1.383 . S
C3738 C3737 1.379 . S
H3739 C3733 0.959 . S
H3740 C3733 0.961 . S
H3741 C3733 0.960 . S
H3742 C3734 0.930 . S
H3743 C3735 0.929 . S
H3744 C3752 0.929 . S
H3745 C3754 0.930 . S
H3746 C3756 0.930 . S
H3747 C3759 0.929 . S
H3748 C3762 0.930 . S
H3749 C3764 0.960 . S
H3750 C3764 0.960 . S
H3751 C3764 0.960 . S
C3752 H3744 0.929 . S
C3752 C3753 1.377 . S
C3752 C3754 1.384 . S
C3753 C3752 1.377 . S
C3753 C3759 1.390 . S
C3754 H3745 0.930 . S
C3754 C3752 1.384 . S
C3754 C3755 1.372 . S
C3755 C3754 1.372 . S
C3755 C3756 1.400 . S
C3755 C3760 1.490 . S
C3756 H3746 0.930 . S
C3756 C3755 1.400 . S
C3756 C3759 1.386 . S
H3757 C3773 0.930 . S
H3758 C3774 0.931 . S
C3759 H3747 0.929 . S
C3759 C3753 1.390 . S
C3759 C3756 1.386 . S
C3760 C3755 1.490 . S
C3760 C3762 1.395 . S
C3760 C3763 1.403 . S
H3761 C3767 0.930 . S
C3762 H3748 0.930 . S
C3762 C3760 1.395 . S
C3762 C3765 1.403 . S
C3763 C3760 1.403 . S
C3763 C3764 1.524 . S
C3763 C3767 1.400 . S
C3764 H3749 0.960 . S
C3764 H3750 0.960 . S
C3764 H3751 0.960 . S
C3764 C3763 1.524 . S
C3765 C3762 1.403 . S
C3765 C3766 1.392 . S
C3765 C3769 1.495 . S
C3766 C3765 1.392 . S
C3766 C3767 1.385 . S
C3766 C3768 1.478 . S
C3767 H3761 0.930 . S
C3767 C3763 1.400 . S
C3767 C3766 1.385 . S
C3768 C3766 1.478 . S
C3768 C3770 1.381 . S
C3768 C3774 1.383 . S
C3769 C3765 1.495 . S
C3769 H3775 0.959 . S
C3769 H3776 0.961 . S
C3769 H3777 0.960 . S
C3770 C3768 1.381 . S
C3770 C3771 1.394 . S
C3770 H3778 0.930 . S
C3771 C3770 1.394 . S
C3771 C3772 1.383 . S
C3771 H3779 0.929 . S
C3772 C3771 1.383 . S
C3772 C3773 1.377 . S
C3773 H3757 0.930 . S
C3773 C3772 1.377 . S
C3773 C3774 1.379 . S
C3774 H3758 0.931 . S
C3774 C3768 1.383 . S
C3774 C3773 1.379 . S
H3775 C3769 0.959 . S
H3776 C3769 0.961 . S
H3777 C3769 0.960 . S
H3778 C3770 0.930 . S
H3779 C3771 0.929 . S
H3780 C3788 0.929 . S
H3781 C3790 0.930 . S
H3782 C3792 0.930 . S
H3783 C3795 0.929 . S
H3784 C3798 0.930 . S
H3785 C3800 0.960 . S
H3786 C3800 0.960 . S
H3787 C3800 0.960 . S
C3788 H3780 0.929 . S
C3788 C3789 1.377 . S
C3788 C3790 1.384 . S
C3789 C3788 1.377 . S
C3789 C3795 1.390 . S
C3790 H3781 0.930 . S
C3790 C3788 1.384 . S
C3790 C3791 1.372 . S
C3791 C3790 1.372 . S
C3791 C3792 1.400 . S
C3791 C3796 1.490 . S
C3792 H3782 0.930 . S
C3792 C3791 1.400 . S
C3792 C3795 1.386 . S
H3793 C3809 0.930 . S
H3794 C3810 0.931 . S
C3795 H3783 0.929 . S
C3795 C3789 1.390 . S
C3795 C3792 1.386 . S
C3796 C3791 1.490 . S
C3796 C3798 1.395 . S
C3796 C3799 1.403 . S
H3797 C3803 0.930 . S
C3798 H3784 0.930 . S
C3798 C3796 1.395 . S
C3798 C3801 1.403 . S
C3799 C3796 1.403 . S
C3799 C3800 1.524 . S
C3799 C3803 1.400 . S
C3800 H3785 0.960 . S
C3800 H3786 0.960 . S
C3800 H3787 0.960 . S
C3800 C3799 1.524 . S
C3801 C3798 1.403 . S
C3801 C3802 1.392 . S
C3801 C3805 1.495 . S
C3802 C3801 1.392 . S
C3802 C3803 1.385 . S
C3802 C3804 1.478 . S
C3803 H3797 0.930 . S
C3803 C3799 1.400 . S
C3803 C3802 1.385 . S
C3804 C3802 1.478 . S
C3804 C3806 1.381 . S
C3804 C3810 1.383 . S
C3805 C3801 1.495 . S
C3805 H3811 0.959 . S
C3805 H3812 0.961 . S
C3805 H3813 0.960 . S
C3806 C3804 1.381 . S
C3806 C3807 1.394 . S
C3806 H3814 0.930 . S
C3807 C3806 1.394 . S
C3807 C3808 1.383 . S
C3807 H3815 0.929 . S
C3808 C3807 1.383 . S
C3808 C3809 1.377 . S
C3809 H3793 0.930 . S
C3809 C3808 1.377 . S
C3809 C3810 1.379 . S
C3810 H3794 0.931 . S
C3810 C3804 1.383 . S
C3810 C3809 1.379 . S
H3811 C3805 0.959 . S
H3812 C3805 0.961 . S
H3813 C3805 0.960 . S
H3814 C3806 0.930 . S
H3815 C3807 0.929 . S
H3816 C3824 0.929 . S
H3817 C3826 0.930 . S
H3818 C3828 0.930 . S
H3819 C3831 0.929 . S
H3820 C3834 0.930 . S
H3821 C3836 0.960 . S
H3822 C3836 0.960 . S
H3823 C3836 0.960 . S
C3824 H3816 0.929 . S
C3824 C3825 1.377 . S
C3824 C3826 1.384 . S
C3825 C3824 1.377 . S
C3825 C3831 1.390 . S
C3826 H3817 0.930 . S
C3826 C3824 1.384 . S
C3826 C3827 1.372 . S
C3827 C3826 1.372 . S
C3827 C3828 1.400 . S
C3827 C3832 1.490 . S
C3828 H3818 0.930 . S
C3828 C3827 1.400 . S
C3828 C3831 1.386 . S
H3829 C3845 0.930 . S
H3830 C3846 0.931 . S
C3831 H3819 0.929 . S
C3831 C3825 1.390 . S
C3831 C3828 1.386 . S
C3832 C3827 1.490 . S
C3832 C3834 1.395 . S
C3832 C3835 1.403 . S
H3833 C3839 0.930 . S
C3834 H3820 0.930 . S
C3834 C3832 1.395 . S
C3834 C3837 1.403 . S
C3835 C3832 1.403 . S
C3835 C3836 1.524 . S
C3835 C3839 1.400 . S
C3836 H3821 0.960 . S
C3836 H3822 0.960 . S
C3836 H3823 0.960 . S
C3836 C3835 1.524 . S
C3837 C3834 1.403 . S
C3837 C3838 1.392 . S
C3837 C3841 1.495 . S
C3838 C3837 1.392 . S
C3838 C3839 1.385 . S
C3838 C3840 1.478 . S
C3839 H3833 0.930 . S
C3839 C3835 1.400 . S
C3839 C3838 1.385 . S
C3840 C3838 1.478 . S
C3840 C3842 1.381 . S
C3840 C3846 1.383 . S
C3841 C3837 1.495 . S
C3841 H3847 0.959 . S
C3841 H3848 0.961 . S
C3841 H3849 0.960 . S
C3842 C3840 1.381 . S
C3842 C3843 1.394 . S
C3842 H3850 0.930 . S
C3843 C3842 1.394 . S
C3843 C3844 1.383 . S
C3843 H3851 0.929 . S
C3844 C3843 1.383 . S
C3844 C3845 1.377 . S
C3845 H3829 0.930 . S
C3845 C3844 1.377 . S
C3845 C3846 1.379 . S
C3846 H3830 0.931 . S
C3846 C3840 1.383 . S
C3846 C3845 1.379 . S
H3847 C3841 0.959 . S
H3848 C3841 0.961 . S
H3849 C3841 0.960 . S
H3850 C3842 0.930 . S
H3851 C3843 0.929 . S
H3852 C3860 0.929 . S
H3853 C3862 0.926 . S
H3854 C3864 0.930 . S
H3855 C3867 0.929 . S
H3856 C3870 0.930 . S
H3857 C3872 0.960 . S
H3858 C3872 0.960 . S
H3859 C3872 0.960 . S
C3860 H3852 0.929 . S
C3860 C3861 1.377 . S
C3860 C3862 1.384 . S
C3861 C3860 1.377 . S
C3861 C3867 1.390 . S
C3862 H3853 0.926 . S
C3862 C3860 1.384 . S
C3862 C3863 1.372 . S
C3863 C3862 1.372 . S
C3863 C3864 1.400 . S
C3863 C3868 1.490 . S
C3864 H3854 0.930 . S
C3864 C3863 1.400 . S
C3864 C3867 1.386 . S
H3865 C3881 0.930 . S
H3866 C3882 0.931 . S
C3867 H3855 0.929 . S
C3867 C3861 1.390 . S
C3867 C3864 1.386 . S
C3868 C3863 1.490 . S
C3868 C3870 1.395 . S
C3868 C3871 1.403 . S
H3869 C3875 0.930 . S
C3870 H3856 0.930 . S
C3870 C3868 1.395 . S
C3870 C3873 1.403 . S
C3871 C3868 1.403 . S
C3871 C3872 1.524 . S
C3871 C3875 1.400 . S
C3872 H3857 0.960 . S
C3872 H3858 0.960 . S
C3872 H3859 0.960 . S
C3872 C3871 1.524 . S
C3873 C3870 1.403 . S
C3873 C3874 1.392 . S
C3873 C3877 1.495 . S
C3874 C3873 1.392 . S
C3874 C3875 1.385 . S
C3874 C3876 1.478 . S
C3875 H3869 0.930 . S
C3875 C3871 1.400 . S
C3875 C3874 1.385 . S
C3876 C3874 1.478 . S
C3876 C3878 1.381 1_655 S
C3876 C3882 1.383 . S
C3877 C3873 1.495 . S
C3877 H3883 0.959 . S
C3877 H3884 0.961 . S
C3877 H3885 0.960 1_655 S
C3878 C3876 1.381 1_455 S
C3878 C3879 1.394 . S
C3878 H3886 0.930 . S
C3879 C3878 1.394 . S
C3879 C3880 1.383 1_455 S
C3879 H3887 0.929 . S
C3880 C3879 1.383 1_655 S
C3880 C3881 1.377 . S
C3881 H3865 0.930 . S
C3881 C3880 1.377 . S
C3881 C3882 1.379 . S
C3882 H3866 0.931 . S
C3882 C3876 1.383 . S
C3882 C3881 1.379 . S
H3883 C3877 0.959 . S
H3884 C3877 0.961 . S
H3885 C3877 0.960 1_455 S
H3886 C3878 0.930 . S
H3887 C3879 0.929 . S
H3888 C3896 0.929 . S
H3889 C3898 0.930 . S
H3890 C3900 0.930 . S
H3891 C3903 0.929 . S
H3892 C3906 0.930 . S
H3893 C3908 0.960 . S
H3894 C3908 0.960 . S
H3895 C3908 0.960 . S
C3896 H3888 0.929 . S
C3896 C3897 1.377 . S
C3896 C3898 1.384 . S
C3897 C3896 1.377 . S
C3897 C3903 1.390 . S
C3898 H3889 0.930 . S
C3898 C3896 1.384 . S
C3898 C3899 1.372 . S
C3899 C3898 1.372 . S
C3899 C3900 1.400 . S
C3899 C3904 1.490 . S
C3900 H3890 0.930 . S
C3900 C3899 1.400 . S
C3900 C3903 1.386 . S
H3901 C3917 0.930 . S
H3902 C3918 0.931 . S
C3903 H3891 0.929 . S
C3903 C3897 1.390 . S
C3903 C3900 1.386 . S
C3904 C3899 1.490 . S
C3904 C3906 1.395 . S
C3904 C3907 1.403 . S
H3905 C3911 0.930 . S
C3906 H3892 0.930 . S
C3906 C3904 1.395 . S
C3906 C3909 1.403 . S
C3907 C3904 1.403 . S
C3907 C3908 1.524 . S
C3907 C3911 1.400 . S
C3908 H3893 0.960 . S
C3908 H3894 0.960 . S
C3908 H3895 0.960 . S
C3908 C3907 1.524 . S
C3909 C3906 1.403 . S
C3909 C3910 1.392 . S
C3909 C3913 1.495 . S
C3910 C3909 1.392 . S
C3910 C3911 1.385 . S
C3910 C3912 1.478 . S
C3911 H3905 0.930 . S
C3911 C3907 1.400 . S
C3911 C3910 1.385 . S
C3912 C3910 1.478 . S
C3912 C3914 1.381 . S
C3912 C3918 1.383 . S
C3913 C3909 1.495 . S
C3913 H3919 0.959 . S
C3913 H3920 0.961 . S
C3913 H3921 0.960 . S
C3914 C3912 1.381 . S
C3914 C3915 1.394 . S
C3914 H3922 0.930 . S
C3915 C3914 1.394 . S
C3915 C3916 1.383 . S
C3915 H3923 0.929 . S
C3916 C3915 1.383 . S
C3916 C3917 1.377 . S
C3917 H3901 0.930 . S
C3917 C3916 1.377 . S
C3917 C3918 1.379 . S
C3918 H3902 0.931 . S
C3918 C3912 1.383 . S
C3918 C3917 1.379 . S
H3919 C3913 0.959 . S
H3920 C3913 0.961 . S
H3921 C3913 0.960 . S
H3922 C3914 0.930 . S
H3923 C3915 0.929 . S
H3924 C3932 0.929 . S
H3925 C3934 0.930 . S
H3926 C3936 0.930 . S
H3927 C3939 0.929 . S
H3928 C3942 0.930 . S
H3929 C3944 0.960 . S
H3930 C3944 0.960 . S
H3931 C3944 0.960 . S
C3932 H3924 0.929 . S
C3932 C3933 1.377 . S
C3932 C3934 1.384 . S
C3933 C3932 1.377 . S
C3933 C3939 1.390 . S
C3934 H3925 0.930 . S
C3934 C3932 1.384 . S
C3934 C3935 1.372 . S
C3935 C3934 1.372 . S
C3935 C3936 1.400 . S
C3935 C3940 1.490 . S
C3936 H3926 0.930 . S
C3936 C3935 1.400 . S
C3936 C3939 1.386 . S
H3937 C3953 0.930 . S
H3938 C3954 0.931 . S
C3939 H3927 0.929 . S
C3939 C3933 1.390 . S
C3939 C3936 1.386 . S
C3940 C3935 1.490 . S
C3940 C3942 1.395 . S
C3940 C3943 1.403 . S
H3941 C3947 0.930 1_565 S
C3942 H3928 0.930 . S
C3942 C3940 1.395 . S
C3942 C3945 1.403 . S
C3943 C3940 1.403 . S
C3943 C3944 1.524 1_545 S
C3943 C3947 1.400 . S
C3944 H3929 0.960 . S
C3944 H3930 0.960 . S
C3944 H3931 0.960 . S
C3944 C3943 1.524 1_565 S
C3945 C3942 1.403 . S
C3945 C3946 1.392 . S
C3945 C3949 1.495 . S
C3946 C3945 1.392 . S
C3946 C3947 1.385 . S
C3946 C3948 1.478 . S
C3947 H3941 0.930 1_545 S
C3947 C3943 1.400 . S
C3947 C3946 1.385 . S
C3948 C3946 1.478 . S
C3948 C3950 1.381 . S
C3948 C3954 1.383 . S
C3949 C3945 1.495 . S
C3949 H3955 0.959 . S
C3949 H3956 0.961 . S
C3949 H3957 0.960 . S
C3950 C3948 1.381 . S
C3950 C3951 1.394 . S
C3950 H3958 0.930 . S
C3951 C3950 1.394 . S
C3951 C3952 1.383 . S
C3951 H3959 0.929 . S
C3952 C3951 1.383 . S
C3952 C3953 1.377 . S
C3953 H3937 0.930 . S
C3953 C3952 1.377 . S
C3953 C3954 1.379 . S
C3954 H3938 0.931 . S
C3954 C3948 1.383 . S
C3954 C3953 1.379 . S
H3955 C3949 0.959 . S
H3956 C3949 0.961 . S
H3957 C3949 0.960 . S
H3958 C3950 0.930 . S
H3959 C3951 0.929 . S
C1377 C4 1.575 . S
C1396 C857 1.542 . S
C1413 C26 1.593 . S
C1432 C901 1.558 . S
C1468 C981 1.505 . S
C1449 C32 1.510 . S
C1485 C40 1.513 . S
C1504 C1025 1.485 . S
C1521 C12 1.556 . S
C1540 C1105 1.521 . S
C1557 C18 1.546 . S
C1576 C1167 1.551 . S
C1593 C46 1.560 . S
C1612 C1087 1.513 . S
C1648 C1149 1.536 . S
C1629 C68 1.592 . S
C1684 C1043 1.497 . S
C1665 C74 1.573 . S
C1701 C82 1.497 . S
C1720 C963 1.462 . S
C1756 C839 1.490 . S
C1737 C54 1.579 . S
C1773 C60 1.545 . S
C1792 C919 1.559 . S
C1809 C88 1.633 . S
C1828 C1229 1.592 . S
C1845 C110 1.619 . S
C1864 C1273 1.538 . S
C1900 C1353 1.584 . S
C1881 C116 1.595 . S
C1917 C124 1.532 . S
C1936 C299 1.489 . S
C1953 C96 1.584 . S
C1972 C343 1.526 . S
C1989 C102 1.550 . S
C2008 C423 1.550 . S
C2025 C130 1.611 . S
C2044 C361 1.618 . S
C2061 C152 1.639 . S
C2080 C405 1.575 . S
C2116 C281 1.572 . S
C2097 C158 1.587 . S
C2152 C1335 1.475 . S
C2133 C166 1.556 . S
C2188 C1211 1.473 . S
C2169 C138 1.570 . S
C2224 C1291 1.577 . S
C2205 C144 1.573 . S
C2241 C172 1.623 . S
C2260 C485 1.583 . S
C2277 C194 1.628 . S
C2296 C547 1.518 . S
C2313 C200 1.595 . S
C2332 C591 1.608 . S
C2349 C208 1.546 . S
C2368 C653 1.518 . S
C2404 C715 1.508 . S
C2385 C180 1.586 . S
C2440 C795 1.552 . S
C2421 C186 1.566 . S
C2476 C733 1.636 . S
C2457 C214 1.643 . S
C2512 C777 1.520 . S
C2493 C236 1.623 . S
C2529 C242 1.573 . S
C2548 C671 1.551 . S
C2584 C609 1.443 . S
C2565 C250 1.521 . S
C2601 C222 1.585 . S
C2620 C467 1.540 . S
C2656 C529 1.553 . S
C2637 C228 1.566 . S
C2692 C305 1.274 . S
C2673 C5 1.159 . S
C2709 C25 1.297 . S
C2728 C349 1.231 . S
C2764 C429 1.277 . S
C2745 C33 1.150 . S
C2800 C491 1.144 . S
C2781 C39 1.206 1_556 S
C2836 C553 1.269 . S
C2817 C11 1.303 . S
C2872 C597 1.222 . S
C2853 C19 1.098 1_556 S
C2889 C47 1.188 1_556 S
C2908 C615 1.372 . S
C2925 C67 1.286 1_556 S
C2944 C473 1.220 . S
C2961 C75 1.152 . S
C2980 C535 1.280 . S
C2997 C81 1.248 . S
C3016 C367 1.224 . S
C3052 C411 1.205 . S
C3033 C53 1.273 . S
C3069 C61 1.108 . S
C3088 C287 1.257 . S
C3124 C659 1.293 . S
C3105 C89 1.123 . S
C3141 C109 1.355 1_545 S
C3160 C721 1.324 . S
C3177 C117 1.159 . S
C3196 C801 1.315 . S
C3232 C863 1.143 . S
C3213 C123 1.214 . S
C3249 C95 1.289 . S
C3268 C907 1.239 . S
C3285 C103 1.053 . S
C3304 C987 1.147 . S
C3321 C131 1.076 . S
C3340 C969 1.225 . S
C3357 C151 1.264 . S
C3376 C845 1.167 . S
C3412 C925 1.242 . S
C3393 C159 1.099 . S
C3429 C165 1.265 . S
C3448 C739 1.249 . S
C3465 C137 1.339 1_545 S
C3484 C783 1.278 . S
C3520 C677 1.317 . S
C3501 C145 1.137 . S
C3556 C1031 1.216 . S
C3537 C173 1.074 . S
C3573 C193 1.236 . S
C3592 C1111 1.216 . S
C3609 C201 1.118 . S
C3628 C1173 1.252 . S
C3664 C1235 1.219 . S
C3645 C207 1.246 . S
C3700 C1279 1.275 . S
C3681 C179 1.357 1_565 S
C3717 C187 1.137 . S
C3736 C1359 1.259 . S
C3753 C215 1.153 . S
C3772 C1341 1.275 . S
C3789 C235 1.346 1_565 S
C3808 C1217 1.286 . S
C3844 C1297 1.293 . S
C3825 C243 1.128 . S
C3880 C1093 1.100 . S
C3861 C249 1.184 . S
C3916 C1155 1.234 . S
C3897 C221 1.295 . S
C3933 C229 1.069 . S
C3952 C1049 1.198 . S
