# Generated by pormake.
# Topology ptr, (4,4)-cn, num edge types: 1
# Building blocks:
#     Node 0, Type 0, BuildingBlock: NAHDIM_clean_sbu_0, # of connection points: 4
#     Node 1, Type 0, BuildingBlock: NAHDIM_clean_sbu_0, # of connection points: 4
#     Node 2, Type 0, BuildingBlock: NAHDIM_clean_sbu_0, # of connection points: 4
#     Node 3, Type 0, BuildingBlock: NAHDIM_clean_sbu_0, # of connection points: 4
#     Node 4, Type 0, BuildingBlock: NAHDIM_clean_sbu_0, # of connection points: 4
#     Node 5, Type 0, BuildingBlock: NAHDIM_clean_sbu_0, # of connection points: 4
#     Node 6, Type 0, BuildingBlock: NAHDIM_clean_sbu_0, # of connection points: 4
#     Node 7, Type 0, BuildingBlock: NAHDIM_clean_sbu_0, # of connection points: 4
#     Node 8, Type 0, BuildingBlock: NAHDIM_clean_sbu_0, # of connection points: 4
#     Node 9, Type 0, BuildingBlock: NAHDIM_clean_sbu_0, # of connection points: 4
#     Node 10, Type 0, BuildingBlock: NAHDIM_clean_sbu_0, # of connection points: 4
#     Node 11, Type 0, BuildingBlock: NAHDIM_clean_sbu_0, # of connection points: 4
#     Node 12, Type 0, BuildingBlock: NAHDIM_clean_sbu_0, # of connection points: 4
#     Node 13, Type 0, BuildingBlock: NAHDIM_clean_sbu_0, # of connection points: 4
#     Node 14, Type 0, BuildingBlock: NAHDIM_clean_sbu_0, # of connection points: 4
#     Node 15, Type 0, BuildingBlock: NAHDIM_clean_sbu_0, # of connection points: 4
#     Node 16, Type 0, BuildingBlock: NAHDIM_clean_sbu_0, # of connection points: 4
#     Node 17, Type 0, BuildingBlock: NAHDIM_clean_sbu_0, # of connection points: 4
#     Node 18, Type 1, BuildingBlock: NAHDIM_clean_linker_0, # of connection points: 4
#     Node 19, Type 1, BuildingBlock: NAHDIM_clean_linker_0, # of connection points: 4
#     Node 20, Type 1, BuildingBlock: NAHDIM_clean_linker_0, # of connection points: 4
#     Node 21, Type 1, BuildingBlock: NAHDIM_clean_linker_0, # of connection points: 4
#     Node 22, Type 1, BuildingBlock: NAHDIM_clean_linker_0, # of connection points: 4
#     Node 23, Type 1, BuildingBlock: NAHDIM_clean_linker_0, # of connection points: 4
#     Node 24, Type 1, BuildingBlock: NAHDIM_clean_linker_0, # of connection points: 4
#     Node 25, Type 1, BuildingBlock: NAHDIM_clean_linker_0, # of connection points: 4
#     Node 26, Type 1, BuildingBlock: NAHDIM_clean_linker_0, # of connection points: 4
#     Node 27, Type 1, BuildingBlock: NAHDIM_clean_linker_0, # of connection points: 4
#     Node 28, Type 1, BuildingBlock: NAHDIM_clean_linker_0, # of connection points: 4
#     Node 29, Type 1, BuildingBlock: NAHDIM_clean_linker_0, # of connection points: 4
#     Node 30, Type 1, BuildingBlock: NAHDIM_clean_linker_0, # of connection points: 4
#     Node 31, Type 1, BuildingBlock: NAHDIM_clean_linker_0, # of connection points: 4
#     Node 32, Type 1, BuildingBlock: NAHDIM_clean_linker_0, # of connection points: 4
#     Node 33, Type 1, BuildingBlock: NAHDIM_clean_linker_0, # of connection points: 4
#     Node 34, Type 1, BuildingBlock: NAHDIM_clean_linker_0, # of connection points: 4
#     Node 35, Type 1, BuildingBlock: NAHDIM_clean_linker_0, # of connection points: 4
#     Edge 36, Type (0, 1), BuildingBlock: ZUJKAS_clean_linker_0, # of connection points: 2
#     Edge 37, Type (0, 1), BuildingBlock: ZUJKAS_clean_linker_0, # of connection points: 2
#     Edge 38, Type (0, 1), BuildingBlock: ZUJKAS_clean_linker_0, # of connection points: 2
#     Edge 39, Type (0, 1), BuildingBlock: ZUJKAS_clean_linker_0, # of connection points: 2
#     Edge 40, Type (0, 1), BuildingBlock: ZUJKAS_clean_linker_0, # of connection points: 2
#     Edge 41, Type (0, 1), BuildingBlock: ZUJKAS_clean_linker_0, # of connection points: 2
#     Edge 42, Type (0, 1), BuildingBlock: ZUJKAS_clean_linker_0, # of connection points: 2
#     Edge 43, Type (0, 1), BuildingBlock: ZUJKAS_clean_linker_0, # of connection points: 2
#     Edge 44, Type (0, 1), BuildingBlock: ZUJKAS_clean_linker_0, # of connection points: 2
#     Edge 45, Type (0, 1), BuildingBlock: ZUJKAS_clean_linker_0, # of connection points: 2
#     Edge 46, Type (0, 1), BuildingBlock: ZUJKAS_clean_linker_0, # of connection points: 2
#     Edge 47, Type (0, 1), BuildingBlock: ZUJKAS_clean_linker_0, # of connection points: 2
#     Edge 48, Type (0, 1), BuildingBlock: ZUJKAS_clean_linker_0, # of connection points: 2
#     Edge 49, Type (0, 1), BuildingBlock: ZUJKAS_clean_linker_0, # of connection points: 2
#     Edge 50, Type (0, 1), BuildingBlock: ZUJKAS_clean_linker_0, # of connection points: 2
#     Edge 51, Type (0, 1), BuildingBlock: ZUJKAS_clean_linker_0, # of connection points: 2
#     Edge 52, Type (0, 1), BuildingBlock: ZUJKAS_clean_linker_0, # of connection points: 2
#     Edge 53, Type (0, 1), BuildingBlock: ZUJKAS_clean_linker_0, # of connection points: 2
#     Edge 54, Type (0, 1), BuildingBlock: ZUJKAS_clean_linker_0, # of connection points: 2
#     Edge 55, Type (0, 1), BuildingBlock: ZUJKAS_clean_linker_0, # of connection points: 2
#     Edge 56, Type (0, 1), BuildingBlock: ZUJKAS_clean_linker_0, # of connection points: 2
#     Edge 57, Type (0, 1), BuildingBlock: ZUJKAS_clean_linker_0, # of connection points: 2
#     Edge 58, Type (0, 1), BuildingBlock: ZUJKAS_clean_linker_0, # of connection points: 2
#     Edge 59, Type (0, 1), BuildingBlock: ZUJKAS_clean_linker_0, # of connection points: 2
#     Edge 60, Type (0, 1), BuildingBlock: ZUJKAS_clean_linker_0, # of connection points: 2
#     Edge 61, Type (0, 1), BuildingBlock: ZUJKAS_clean_linker_0, # of connection points: 2
#     Edge 62, Type (0, 1), BuildingBlock: ZUJKAS_clean_linker_0, # of connection points: 2
#     Edge 63, Type (0, 1), BuildingBlock: ZUJKAS_clean_linker_0, # of connection points: 2
#     Edge 64, Type (0, 1), BuildingBlock: ZUJKAS_clean_linker_0, # of connection points: 2
#     Edge 65, Type (0, 1), BuildingBlock: ZUJKAS_clean_linker_0, # of connection points: 2
#     Edge 66, Type (0, 1), BuildingBlock: ZUJKAS_clean_linker_0, # of connection points: 2
#     Edge 67, Type (0, 1), BuildingBlock: ZUJKAS_clean_linker_0, # of connection points: 2
#     Edge 68, Type (0, 1), BuildingBlock: ZUJKAS_clean_linker_0, # of connection points: 2
#     Edge 69, Type (0, 1), BuildingBlock: ZUJKAS_clean_linker_0, # of connection points: 2
#     Edge 70, Type (0, 1), BuildingBlock: ZUJKAS_clean_linker_0, # of connection points: 2
#     Edge 71, Type (0, 1), BuildingBlock: ZUJKAS_clean_linker_0, # of connection points: 2
#     Edge 72, Type (0, 1), BuildingBlock: ZUJKAS_clean_linker_0, # of connection points: 2
#     Edge 73, Type (0, 1), BuildingBlock: ZUJKAS_clean_linker_0, # of connection points: 2
#     Edge 74, Type (0, 1), BuildingBlock: ZUJKAS_clean_linker_0, # of connection points: 2
#     Edge 75, Type (0, 1), BuildingBlock: ZUJKAS_clean_linker_0, # of connection points: 2
#     Edge 76, Type (0, 1), BuildingBlock: ZUJKAS_clean_linker_0, # of connection points: 2
#     Edge 77, Type (0, 1), BuildingBlock: ZUJKAS_clean_linker_0, # of connection points: 2
#     Edge 78, Type (0, 1), BuildingBlock: ZUJKAS_clean_linker_0, # of connection points: 2
#     Edge 79, Type (0, 1), BuildingBlock: ZUJKAS_clean_linker_0, # of connection points: 2
#     Edge 80, Type (0, 1), BuildingBlock: ZUJKAS_clean_linker_0, # of connection points: 2
#     Edge 81, Type (0, 1), BuildingBlock: ZUJKAS_clean_linker_0, # of connection points: 2
#     Edge 82, Type (0, 1), BuildingBlock: ZUJKAS_clean_linker_0, # of connection points: 2
#     Edge 83, Type (0, 1), BuildingBlock: ZUJKAS_clean_linker_0, # of connection points: 2
#     Edge 84, Type (0, 1), BuildingBlock: ZUJKAS_clean_linker_0, # of connection points: 2
#     Edge 85, Type (0, 1), BuildingBlock: ZUJKAS_clean_linker_0, # of connection points: 2
#     Edge 86, Type (0, 1), BuildingBlock: ZUJKAS_clean_linker_0, # of connection points: 2
#     Edge 87, Type (0, 1), BuildingBlock: ZUJKAS_clean_linker_0, # of connection points: 2
#     Edge 88, Type (0, 1), BuildingBlock: ZUJKAS_clean_linker_0, # of connection points: 2
#     Edge 89, Type (0, 1), BuildingBlock: ZUJKAS_clean_linker_0, # of connection points: 2
#     Edge 90, Type (0, 1), BuildingBlock: ZUJKAS_clean_linker_0, # of connection points: 2
#     Edge 91, Type (0, 1), BuildingBlock: ZUJKAS_clean_linker_0, # of connection points: 2
#     Edge 92, Type (0, 1), BuildingBlock: ZUJKAS_clean_linker_0, # of connection points: 2
#     Edge 93, Type (0, 1), BuildingBlock: ZUJKAS_clean_linker_0, # of connection points: 2
#     Edge 94, Type (0, 1), BuildingBlock: ZUJKAS_clean_linker_0, # of connection points: 2
#     Edge 95, Type (0, 1), BuildingBlock: ZUJKAS_clean_linker_0, # of connection points: 2
#     Edge 96, Type (0, 1), BuildingBlock: ZUJKAS_clean_linker_0, # of connection points: 2
#     Edge 97, Type (0, 1), BuildingBlock: ZUJKAS_clean_linker_0, # of connection points: 2
#     Edge 98, Type (0, 1), BuildingBlock: ZUJKAS_clean_linker_0, # of connection points: 2
#     Edge 99, Type (0, 1), BuildingBlock: ZUJKAS_clean_linker_0, # of connection points: 2
#     Edge 100, Type (0, 1), BuildingBlock: ZUJKAS_clean_linker_0, # of connection points: 2
#     Edge 101, Type (0, 1), BuildingBlock: ZUJKAS_clean_linker_0, # of connection points: 2
#     Edge 102, Type (0, 1), BuildingBlock: ZUJKAS_clean_linker_0, # of connection points: 2
#     Edge 103, Type (0, 1), BuildingBlock: ZUJKAS_clean_linker_0, # of connection points: 2
#     Edge 104, Type (0, 1), BuildingBlock: ZUJKAS_clean_linker_0, # of connection points: 2
#     Edge 105, Type (0, 1), BuildingBlock: ZUJKAS_clean_linker_0, # of connection points: 2
#     Edge 106, Type (0, 1), BuildingBlock: ZUJKAS_clean_linker_0, # of connection points: 2
#     Edge 107, Type (0, 1), BuildingBlock: ZUJKAS_clean_linker_0, # of connection points: 2
# Relax obj value: 0.084
# Max RMSD: 0.306
# Mean RMSD: 0.119
data_MOF--net-ptr--node1-NAHDIM_clean_sbu_0--node2-NAHDIM_clean_linker_0--edge1-ZUJKAS_clean_linker_0
_symmetry_space_group_name_H-M    P1
_symmetry_Int_Tables_number       1
_symmetry_cell_setting            triclinic
loop_
_symmetry_equiv_pos_as_xyz
'x, y, z'
_cell_length_a     116.18282
_cell_length_b     113.60895
_cell_length_c     96.01627
_cell_angle_alpha  92.230394
_cell_angle_beta   89.589571
_cell_angle_gamma 122.11038
loop_
_atom_site_label
_atom_site_type_symbol
_atom_site_fract_x
_atom_site_fract_y
_atom_site_fract_z
_atom_type_partial_charge
C0 C 0.02523 0.34394 0.02587 0.0
O1 O 0.01447 0.3424 0.03216 0.0
O2 O 0.99992 0.33547 0.99552 0.0
Zn3 Zn 0.01448 0.35296 0.0056 0.0
O4 O 0.00723 0.35934 0.02144 0.0
C5 C 0.01468 0.37187 0.98794 0.0
O6 O 0.00268 0.36605 0.99368 0.0
O7 O 0.02796 0.34885 0.01376 0.0
C8 C 0.99519 0.35641 0.02365 0.0
O9 O 0.98536 0.34815 0.01477 0.0
C10 C 0.99051 0.3246 0.00109 0.0
O11 O 0.98939 0.32437 0.01471 0.0
O12 O 0.02268 0.36801 0.99145 0.0
C13 C 0.68311 0.66096 0.99319 0.0
O14 O 0.67395 0.66195 0.98632 0.0
O15 O 0.66905 0.67208 0.02568 0.0
Zn16 Zn 0.66394 0.65426 0.01518 0.0
O17 O 0.64942 0.64956 0.00063 0.0
C18 C 0.65862 0.64025 0.04157 0.0
O19 O 0.66687 0.65284 0.04699 0.0
O20 O 0.68091 0.65736 0.00579 0.0
C21 C 0.6371 0.63982 0.00211 0.0
O22 O 0.63357 0.63287 0.01359 0.0
C23 C 0.66059 0.6742 0.03193 0.0
O24 O 0.64762 0.66437 0.03152 0.0
O25 O 0.65654 0.63855 0.02846 0.0
C26 C 0.35203 0.03543 0.99299 0.0
O27 O 0.35979 0.03256 0.98546 0.0
O28 O 0.33406 0.99897 0.01774 0.0
Zn29 Zn 0.35149 0.01534 0.01105 0.0
O30 O 0.35959 0.00983 0.99549 0.0
C31 C 0.36839 0.01396 0.03004 0.0
O32 O 0.36296 0.00209 0.02281 0.0
O33 O 0.34776 0.02974 0.00462 0.0
C34 C 0.35392 0.99873 0.98786 0.0
O35 O 0.34105 0.98922 0.98963 0.0
C36 C 0.32262 0.99527 0.01232 0.0
O37 O 0.32221 0.00179 0.00151 0.0
O38 O 0.36494 0.02247 0.02703 0.0
C39 C 0.98361 0.66866 0.99508 0.0
O40 O 0.99508 0.67192 0.98906 0.0
O41 O 0.0095 0.67786 0.02214 0.0
Zn42 Zn 0.99488 0.65923 0.01393 0.0
O43 O 0.00154 0.65226 0.99814 0.0
C44 C 0.9924 0.64803 0.04108 0.0
O45 O 0.00195 0.66095 0.04439 0.0
O46 O 0.98058 0.66228 0.0064 0.0
C47 C 0.00833 0.64664 0.00018 0.0
O48 O 0.01179 0.64596 0.01298 0.0
C49 C 0.02183 0.68538 0.01859 0.0
O50 O 0.02645 0.68095 0.00848 0.0
O51 O 0.98746 0.64492 0.02875 0.0
C52 C 0.32463 0.34285 0.01869 0.0
O53 O 0.33086 0.3362 0.02069 0.0
O54 O 0.34063 0.33775 0.98957 0.0
Zn55 Zn 0.34626 0.35572 0.00014 0.0
O56 O 0.36081 0.3605 0.01463 0.0
C57 C 0.36425 0.3758 0.98082 0.0
O58 O 0.37185 0.37096 0.98426 0.0
O59 O 0.32959 0.35255 0.01008 0.0
C60 C 0.36929 0.37301 0.01868 0.0
O61 O 0.36877 0.38311 0.01311 0.0
C62 C 0.34671 0.33121 0.99 0.0
O63 O 0.35789 0.33645 0.99756 0.0
O64 O 0.3527 0.3709 0.9864 0.0
C65 C 0.66205 0.98172 0.03269 0.0
O66 O 0.66362 0.99228 0.04041 0.0
O67 O 0.67407 0.00997 0.0053 0.0
Zn68 Zn 0.65579 0.99529 0.01243 0.0
O69 O 0.6494 0.00303 0.02779 0.0
C70 C 0.64457 0.99586 0.98629 0.0
O71 O 0.65583 0.00819 0.98662 0.0
O72 O 0.6581 0.98031 0.02007 0.0
C73 C 0.64234 0.0083 0.02551 0.0
O74 O 0.63948 0.00941 0.0126 0.0
C75 C 0.68478 0.01782 0.01256 0.0
O76 O 0.68433 0.01708 0.02619 0.0
O77 O 0.64214 0.98791 0.99634 0.0
C78 C 0.68457 0.68034 0.36441 0.0
O79 O 0.67328 0.67832 0.36984 0.0
O80 O 0.662 0.66952 0.33057 0.0
Zn81 Zn 0.67426 0.68743 0.34146 0.0
O82 O 0.66325 0.69148 0.355 0.0
C83 C 0.68753 0.70202 0.3162 0.0
O84 O 0.68623 0.69021 0.31206 0.0
O85 O 0.68764 0.68482 0.35215 0.0
C86 C 0.66115 0.70125 0.35344 0.0
O87 O 0.66587 0.7088 0.34239 0.0
C88 C 0.65265 0.66766 0.32228 0.0
O89 O 0.65057 0.67783 0.3207 0.0
O90 O 0.68363 0.70316 0.3283 0.0
C91 C 0.33953 0.9901 0.33561 0.0
O92 O 0.33761 0.00022 0.33304 0.0
O93 O 0.32658 0.00244 0.36311 0.0
Zn94 Zn 0.31776 0.9833 0.35403 0.0
O95 O 0.30383 0.98022 0.33964 0.0
C96 C 0.31547 0.96828 0.37844 0.0
O97 O 0.32866 0.97721 0.37921 0.0
O98 O 0.33209 0.98128 0.3445 0.0
C99 C 0.29645 0.96795 0.33437 0.0
O100 O 0.29822 0.95818 0.33867 0.0
C101 C 0.31988 0.00616 0.37054 0.0
O102 O 0.3068 0.99735 0.37213 0.0
O103 O 0.30867 0.96894 0.36854 0.0
C104 C 0.02221 0.35571 0.32381 0.0
O105 O 0.01783 0.34399 0.31659 0.0
O106 O 0.01006 0.32902 0.35445 0.0
Zn107 Zn 0.0276 0.34151 0.34463 0.0
O108 O 0.03084 0.33076 0.32966 0.0
C109 C 0.04485 0.35882 0.36768 0.0
O110 O 0.03657 0.3634 0.36779 0.0
O111 O 0.02693 0.35709 0.33608 0.0
C112 C 0.04226 0.33704 0.32366 0.0
O113 O 0.05123 0.35001 0.32755 0.0
C114 C 0.99883 0.32178 0.34781 0.0
O115 O 0.99868 0.32225 0.33417 0.0
O116 O 0.04298 0.34947 0.35864 0.0
C117 C 0.65376 0.99133 0.33332 0.0
O118 O 0.66629 0.00214 0.33361 0.0
O119 O 0.67781 0.99945 0.35991 0.0
Zn120 Zn 0.66607 0.98065 0.35007 0.0
O121 O 0.6764 0.97697 0.33539 0.0
C122 C 0.66396 0.9665 0.37529 0.0
O123 O 0.6759 0.97776 0.37811 0.0
O124 O 0.65101 0.98068 0.33995 0.0
C125 C 0.68235 0.97044 0.33721 0.0
O126 O 0.68243 0.96602 0.34963 0.0
C127 C 0.69073 0.00637 0.35997 0.0
O128 O 0.69709 0.00105 0.35361 0.0
O129 O 0.65793 0.96543 0.36388 0.0
C130 C 0.99079 0.68393 0.36085 0.0
O131 O 0.99753 0.67785 0.3631 0.0
O132 O 0.01107 0.68277 0.3332 0.0
Zn133 Zn 0.01379 0.69956 0.34424 0.0
O134 O 0.02778 0.70491 0.35952 0.0
C135 C 0.03084 0.71925 0.32434 0.0
O136 O 0.03808 0.71379 0.32698 0.0
O137 O 0.9959 0.69418 0.35291 0.0
C138 C 0.03693 0.71736 0.36308 0.0
O139 O 0.03753 0.72768 0.35668 0.0
C140 C 0.0201 0.6797 0.33264 0.0
O141 O 0.03157 0.68754 0.33965 0.0
O142 O 0.01983 0.71504 0.33085 0.0
C143 C 0.32087 0.31778 0.3639 0.0
O144 O 0.32649 0.33087 0.36812 0.0
O145 O 0.32759 0.33993 0.33466 0.0
Zn146 Zn 0.30992 0.3272 0.34428 0.0
O147 O 0.30602 0.33767 0.35917 0.0
C148 C 0.29532 0.3242 0.3191 0.0
O149 O 0.30591 0.33681 0.31763 0.0
O150 O 0.31258 0.31319 0.3536 0.0
C151 C 0.2986 0.34261 0.35725 0.0
O152 O 0.29315 0.34117 0.34487 0.0
C153 C 0.33417 0.35314 0.33535 0.0
O154 O 0.32935 0.35952 0.34271 0.0
O155 O 0.29461 0.31775 0.32993 0.0
C156 C 0.35296 0.01657 0.69007 0.0
O157 O 0.34011 0.00992 0.69357 0.0
O158 O 0.33 0.00639 0.65956 0.0
Zn159 Zn 0.34219 0.02512 0.66924 0.0
O160 O 0.33177 0.02971 0.68289 0.0
C161 C 0.34277 0.04207 0.64787 0.0
O162 O 0.3296 0.03443 0.64983 0.0
O163 O 0.35669 0.02428 0.67965 0.0
C164 C 0.33855 0.04054 0.69078 0.0
O165 O 0.35183 0.04807 0.68964 0.0
C166 C 0.31726 0.00069 0.65779 0.0
O167 O 0.31136 0.0072 0.66243 0.0
O168 O 0.35059 0.03997 0.65508 0.0
C169 C 0.02285 0.33009 0.67608 0.0
O170 O 0.02295 0.33658 0.68775 0.0
O171 O 0.99481 0.3313 0.68993 0.0
Zn172 Zn 0.99351 0.31489 0.67943 0.0
O173 O 0.97951 0.30821 0.66383 0.0
C174 C 0.97657 0.29562 0.69937 0.0
O175 O 0.97036 0.30233 0.69765 0.0
O176 O 0.01155 0.32036 0.67089 0.0
C177 C 0.96993 0.31053 0.66397 0.0
O178 O 0.96899 0.31759 0.6746 0.0
C179 C 0.99785 0.34226 0.68375 0.0
O180 O 0.00059 0.343 0.67039 0.0
O181 O 0.98734 0.29925 0.69261 0.0
C182 C 0.67581 0.68739 0.65699 0.0
O183 O 0.6684 0.67378 0.65517 0.0
O184 O 0.67174 0.66688 0.68612 0.0
Zn185 Zn 0.68875 0.67931 0.67553 0.0
O186 O 0.69261 0.66834 0.66135 0.0
C187 C 0.70818 0.68223 0.69531 0.0
O188 O 0.70159 0.66875 0.6926 0.0
O189 O 0.68583 0.69275 0.6655 0.0
C190 C 0.70431 0.67444 0.65592 0.0
O191 O 0.71322 0.68743 0.6598 0.0
C192 C 0.66623 0.65383 0.68706 0.0
O193 O 0.67181 0.64761 0.68083 0.0
O194 O 0.7045 0.68941 0.68911 0.0
C195 C 0.31709 0.33175 0.6806 0.0
O196 O 0.32205 0.3365 0.69325 0.0
O197 O 0.34699 0.33561 0.69299 0.0
Zn198 Zn 0.33209 0.31825 0.68297 0.0
O199 O 0.33948 0.31198 0.66722 0.0
C200 C 0.32437 0.29347 0.69794 0.0
O201 O 0.33353 0.29329 0.69001 0.0
O202 O 0.31958 0.3233 0.67434 0.0
C203 C 0.35124 0.31375 0.66712 0.0
O204 O 0.35939 0.3199 0.67798 0.0
C205 C 0.35494 0.34613 0.68598 0.0
O206 O 0.35383 0.34504 0.67232 0.0
O207 O 0.32197 0.30307 0.69669 0.0
C208 C 0.66395 0.01793 0.68295 0.0
O209 O 0.66827 0.00973 0.68601 0.0
O210 O 0.67913 0.00867 0.65542 0.0
Zn211 Zn 0.68616 0.0276 0.66475 0.0
O212 O 0.6999 0.03213 0.68001 0.0
C213 C 0.69903 0.04112 0.63928 0.0
O214 O 0.69922 0.02977 0.6368 0.0
O215 O 0.67017 0.02692 0.67379 0.0
C216 C 0.71252 0.03728 0.67814 0.0
O217 O 0.71725 0.03957 0.66542 0.0
C218 C 0.68463 0.00159 0.65635 0.0
O219 O 0.69594 0.00674 0.66366 0.0
O220 O 0.69403 0.04249 0.65059 0.0
C221 C 0.97517 0.64031 0.67787 0.0
O222 O 0.98099 0.64497 0.66585 0.0
O223 O 0.9869 0.6732 0.66614 0.0
Zn224 Zn 0.96862 0.66119 0.67498 0.0
O225 O 0.96563 0.67193 0.69028 0.0
C226 C 0.95573 0.65112 0.64798 0.0
O227 O 0.96772 0.65335 0.64475 0.0
O228 O 0.9688 0.64541 0.68367 0.0
C229 C 0.96034 0.67904 0.68816 0.0
O230 O 0.95677 0.67974 0.67541 0.0
C231 C 0.99181 0.68547 0.66209 0.0
O232 O 0.98479 0.69142 0.66371 0.0
O233 O 0.95366 0.6537 0.66042 0.0
C234 C 0.18241 0.2665 0.05939 0.0
C235 C 0.18932 0.27828 0.07053 0.0
C236 C 0.18057 0.27505 0.09394 0.0
C237 C 0.18425 0.28861 0.09797 0.0
C238 C 0.17676 0.29096 0.10799 0.0
C239 C 0.16519 0.27946 0.11384 0.0
C240 C 0.16176 0.26576 0.11009 0.0
C241 C 0.16972 0.26377 0.10038 0.0
C242 C 0.18094 0.30571 0.11195 0.0
C243 C 0.14933 0.25321 0.1158 0.0
C244 C 0.08731 0.29584 0.07543 0.0
C245 C 0.09441 0.28948 0.0815 0.0
C246 C 0.11302 0.29541 0.09776 0.0
C247 C 0.10925 0.28158 0.09955 0.0
C248 C 0.11707 0.27855 0.108 0.0
C249 C 0.12896 0.28955 0.11472 0.0
C250 C 0.13273 0.30347 0.11303 0.0
C251 C 0.12465 0.30621 0.10462 0.0
C252 C 0.11272 0.26358 0.10967 0.0
C253 C 0.14541 0.31545 0.11995 0.0
C254 C 0.10295 0.2835 0.20373 0.0
C255 C 0.10023 0.27046 0.19866 0.0
C256 C 0.11018 0.26927 0.19153 0.0
C257 C 0.12313 0.28132 0.18952 0.0
C258 C 0.12599 0.2944 0.19484 0.0
C259 C 0.11583 0.2953 0.20183 0.0
C260 C 0.1068 0.25516 0.18593 0.0
C261 C 0.13971 0.30744 0.19293 0.0
C262 C 0.19944 0.25373 0.19975 0.0
C263 C 0.19805 0.2656 0.20565 0.0
C264 C 0.17671 0.26457 0.20256 0.0
C265 C 0.16325 0.2545 0.19898 0.0
C266 C 0.15498 0.25805 0.19207 0.0
C267 C 0.16024 0.27211 0.18904 0.0
C268 C 0.17365 0.28247 0.19336 0.0
C269 C 0.18178 0.27858 0.20002 0.0
C270 C 0.14068 0.24673 0.1878 0.0
C271 C 0.17941 0.29761 0.19079 0.0
C272 C 0.15587 0.28172 0.12257 0.0
C273 C 0.14726 0.28476 0.11568 0.0
C274 C 0.13779 0.28651 0.12292 0.0
C275 C 0.13671 0.28509 0.13751 0.0
C276 C 0.12706 0.28647 0.14508 0.0
C277 C 0.126 0.28493 0.15942 0.0
C278 C 0.13457 0.28199 0.16675 0.0
C279 C 0.13348 0.2803 0.18131 0.0
C280 C 0.1421 0.27732 0.18828 0.0
C281 C 0.15181 0.27587 0.18108 0.0
C282 C 0.15307 0.27754 0.1665 0.0
C283 C 0.16268 0.27611 0.15888 0.0
C284 C 0.16377 0.27768 0.14453 0.0
C285 C 0.15514 0.2805 0.1372 0.0
C286 C 0.14544 0.28211 0.14468 0.0
C287 C 0.1444 0.2806 0.15933 0.0
C288 C 0.07087 0.27096 0.20093 0.0
C289 C 0.08035 0.27517 0.21368 0.0
O290 O 0.18706 0.2726 0.08353 0.0
O291 O 0.1845 0.26045 0.20851 0.0
O292 O 0.09354 0.28528 0.21031 0.0
O293 O 0.10578 0.29878 0.08954 0.0
H294 H 0.18458 0.28457 0.06973 0.0
H295 H 0.1713 0.26015 0.06126 0.0
H296 H 0.1865 0.25962 0.05968 0.0
H297 H 0.184 0.2708 0.04886 0.0
H298 H 0.19288 0.29732 0.09314 0.0
H299 H 0.16708 0.25335 0.09722 0.0
H300 H 0.17382 0.30805 0.10696 0.0
H301 H 0.1914 0.31337 0.10853 0.0
H302 H 0.1804 0.30702 0.12341 0.0
H303 H 0.14734 0.24332 0.11075 0.0
H304 H 0.14025 0.25391 0.11428 0.0
H305 H 0.15073 0.25289 0.12716 0.0
H306 H 0.09631 0.28293 0.07406 0.0
H307 H 0.06839 0.28576 0.08523 0.0
H308 H 0.08837 0.29504 0.06382 0.0
H309 H 0.09462 0.30746 0.07627 0.0
H310 H 0.10025 0.27309 0.09434 0.0
H311 H 0.12746 0.31683 0.10322 0.0
H312 H 0.12042 0.26173 0.10498 0.0
H313 H 0.1027 0.25617 0.10461 0.0
H314 H 0.11213 0.26138 0.12091 0.0
H315 H 0.14705 0.3257 0.11744 0.0
H316 H 0.1544 0.31512 0.11658 0.0
H317 H 0.14471 0.31449 0.13143 0.0
H318 H 0.08006 0.26584 0.21733 0.0
H319 H 0.09036 0.26118 0.20004 0.0
H320 H 0.11786 0.30531 0.2058 0.0
H321 H 0.10816 0.25537 0.17447 0.0
H322 H 0.09622 0.2468 0.18824 0.0
H323 H 0.11389 0.2526 0.19056 0.0
H324 H 0.14057 0.3167 0.19834 0.0
H325 H 0.14151 0.3094 0.18165 0.0
H326 H 0.14783 0.30605 0.19698 0.0
H327 H 0.20171 0.27342 0.19743 0.0
H328 H 0.21023 0.2576 0.19739 0.0
H329 H 0.19336 0.24932 0.18994 0.0
H330 H 0.1957 0.24529 0.20727 0.0
H331 H 0.15938 0.24376 0.20123 0.0
H332 H 0.19206 0.28646 0.2033 0.0
H333 H 0.13899 0.24717 0.17651 0.0
H334 H 0.13335 0.2484 0.19361 0.0
H335 H 0.1385 0.23619 0.18992 0.0
H336 H 0.18943 0.30452 0.19607 0.0
H337 H 0.17226 0.30069 0.19451 0.0
H338 H 0.18067 0.29926 0.17942 0.0
H339 H 0.14785 0.28565 0.10444 0.0
H340 H 0.12018 0.2887 0.13998 0.0
H341 H 0.11834 0.28606 0.16467 0.0
H342 H 0.14114 0.27596 0.19944 0.0
H343 H 0.1695 0.27376 0.16393 0.0
H344 H 0.17141 0.27656 0.13922 0.0
H345 H 0.06026 0.2631 0.20377 0.0
H346 H 0.07394 0.26631 0.19247 0.0
H347 H 0.07117 0.28014 0.19686 0.0
C348 C 0.74446 0.92543 0.07008 0.0
C349 C 0.73196 0.91787 0.07925 0.0
C350 C 0.73209 0.91111 0.10286 0.0
C351 C 0.71838 0.90073 0.10432 0.0
C352 C 0.71444 0.89036 0.11401 0.0
C353 C 0.7245 0.89017 0.1221 0.0
C354 C 0.73836 0.9008 0.12071 0.0
C355 C 0.74191 0.91137 0.11136 0.0
C356 C 0.69955 0.87942 0.11534 0.0
C357 C 0.74953 0.9008 0.12868 0.0
C358 C 0.70467 0.78657 0.09138 0.0
C359 C 0.71153 0.80103 0.09742 0.0
C360 C 0.70584 0.81712 0.10824 0.0
C361 C 0.71915 0.82695 0.11297 0.0
C362 C 0.72205 0.83904 0.12058 0.0
C363 C 0.71142 0.8413 0.12362 0.0
C364 C 0.69803 0.83144 0.1189 0.0
C365 C 0.69543 0.81947 0.11124 0.0
C366 C 0.73647 0.84943 0.12538 0.0
C367 C 0.68648 0.83355 0.12197 0.0
C368 C 0.71667 0.8255 0.21269 0.0
C369 C 0.72862 0.83491 0.20575 0.0
C370 C 0.72967 0.84611 0.19889 0.0
C371 C 0.71848 0.84786 0.19875 0.0
C372 C 0.70656 0.83862 0.206 0.0
C373 C 0.70587 0.82762 0.21297 0.0
C374 C 0.74268 0.85596 0.19155 0.0
C375 C 0.69446 0.84019 0.20608 0.0
C376 C 0.75042 0.95856 0.21184 0.0
C377 C 0.73896 0.94389 0.21527 0.0
C378 C 0.73913 0.92262 0.21081 0.0
C379 C 0.74812 0.91833 0.20758 0.0
C380 C 0.74353 0.90533 0.20094 0.0
C381 C 0.72952 0.89628 0.19777 0.0
C382 C 0.72026 0.90027 0.20166 0.0
C383 C 0.72517 0.91344 0.20812 0.0
C384 C 0.7537 0.90138 0.19708 0.0
C385 C 0.70521 0.89068 0.19882 0.0
C386 C 0.72066 0.87819 0.13095 0.0
C387 C 0.71732 0.86563 0.12415 0.0
C388 C 0.71437 0.85407 0.13163 0.0
C389 C 0.71488 0.855 0.14635 0.0
C390 C 0.71217 0.84361 0.15418 0.0
C391 C 0.71332 0.84482 0.16864 0.0
C392 C 0.71719 0.85744 0.17584 0.0
C393 C 0.7191 0.85897 0.19049 0.0
C394 C 0.7227 0.87158 0.19736 0.0
C395 C 0.7247 0.88287 0.18995 0.0
C396 C 0.72308 0.88161 0.17526 0.0
C397 C 0.72526 0.89283 0.16743 0.0
C398 C 0.72414 0.89163 0.15294 0.0
C399 C 0.72103 0.87927 0.1457 0.0
C400 C 0.71834 0.86768 0.15341 0.0
C401 C 0.71941 0.86887 0.16819 0.0
C402 C 0.72103 0.8014 0.20344 0.0
C403 C 0.72316 0.80867 0.21785 0.0
O404 O 0.73614 0.92083 0.09312 0.0
O405 O 0.74434 0.93563 0.21654 0.0
O406 O 0.71504 0.81422 0.2191 0.0
O407 O 0.70263 0.80528 0.10084 0.0
H408 H 0.72711 0.90652 0.07673 0.0
H409 H 0.75156 0.92198 0.07231 0.0
H410 H 0.74987 0.93687 0.07215 0.0
H411 H 0.74144 0.92304 0.05887 0.0
H412 H 0.71078 0.90075 0.09786 0.0
H413 H 0.75247 0.91952 0.11015 0.0
H414 H 0.69736 0.86962 0.1099 0.0
H415 H 0.69296 0.88261 0.11063 0.0
H416 H 0.69685 0.87722 0.12646 0.0
H417 H 0.75972 0.9081 0.12441 0.0
H418 H 0.74787 0.89022 0.12844 0.0
H419 H 0.74953 0.90402 0.13973 0.0
H420 H 0.72053 0.80891 0.09158 0.0
H421 H 0.70849 0.78768 0.0804 0.0
H422 H 0.69412 0.78357 0.08812 0.0
H423 H 0.70835 0.7759 0.10632 0.0
H424 H 0.72734 0.82529 0.11074 0.0
H425 H 0.6852 0.81183 0.10757 0.0
H426 H 0.73696 0.85034 0.13694 0.0
H427 H 0.73981 0.85985 0.12152 0.0
H428 H 0.74368 0.84642 0.1217 0.0
H429 H 0.67655 0.82466 0.11799 0.0
H430 H 0.68847 0.84316 0.11713 0.0
H431 H 0.68581 0.83496 0.1334 0.0
H432 H 0.73402 0.8171 0.21929 0.0
H433 H 0.73717 0.83358 0.20552 0.0
H434 H 0.69672 0.82039 0.21841 0.0
H435 H 0.74088 0.85436 0.18011 0.0
H436 H 0.75102 0.85433 0.19419 0.0
H437 H 0.74602 0.86691 0.19434 0.0
H438 H 0.6858 0.83192 0.21188 0.0
H439 H 0.69107 0.83985 0.1952 0.0
H440 H 0.69741 0.85047 0.21093 0.0
H441 H 0.73156 0.93999 0.20637 0.0
H442 H 0.74637 0.9654 0.21059 0.0
H443 H 0.75521 0.9582 0.20191 0.0
H444 H 0.75834 0.96312 0.22023 0.0
H445 H 0.75884 0.92541 0.20993 0.0
H446 H 0.71808 0.91651 0.21108 0.0
H447 H 0.75284 0.89855 0.18577 0.0
H448 H 0.75146 0.89212 0.20284 0.0
H449 H 0.76433 0.90992 0.19955 0.0
H450 H 0.69922 0.89477 0.20361 0.0
H451 H 0.7016 0.88028 0.20291 0.0
H452 H 0.70324 0.88929 0.1874 0.0
H453 H 0.71724 0.8649 0.11284 0.0
H454 H 0.70929 0.83368 0.1492 0.0
H455 H 0.71124 0.83574 0.1741 0.0
H456 H 0.72433 0.87274 0.20857 0.0
H457 H 0.72795 0.9027 0.1724 0.0
H458 H 0.72592 0.9006 0.14746 0.0
H459 H 0.71019 0.79303 0.20177 0.0
H460 H 0.7274 0.7968 0.2025 0.0
H461 H 0.724 0.80895 0.1951 0.0
C462 C 0.18678 0.91194 0.07361 0.0
C463 C 0.19761 0.91863 0.08529 0.0
C464 C 0.18578 0.90151 0.10334 0.0
C465 C 0.1765 0.90543 0.10702 0.0
C466 C 0.16549 0.89721 0.11564 0.0
C467 C 0.1637 0.88481 0.12066 0.0
C468 C 0.17329 0.8811 0.11742 0.0
C469 C 0.18428 0.88959 0.10889 0.0
C470 C 0.15554 0.90156 0.11908 0.0
C471 C 0.17168 0.86794 0.12261 0.0
C472 C 0.08423 0.83201 0.06105 0.0
C473 C 0.09003 0.82647 0.07134 0.0
C474 C 0.09556 0.83395 0.09567 0.0
C475 C 0.10491 0.83002 0.09814 0.0
C476 C 0.11477 0.8367 0.10881 0.0
C477 C 0.11545 0.84775 0.11692 0.0
C478 C 0.1057 0.8514 0.1147 0.0
C479 C 0.09565 0.84417 0.10429 0.0
C480 C 0.12474 0.83227 0.11107 0.0
C481 C 0.10626 0.86336 0.1228 0.0
C482 C 0.08576 0.82971 0.20483 0.0
C483 C 0.0945 0.82497 0.20175 0.0
C484 C 0.10717 0.83373 0.19568 0.0
C485 C 0.11114 0.84746 0.19262 0.0
C486 C 0.10255 0.8524 0.1962 0.0
C487 C 0.09002 0.84348 0.2024 0.0
C488 C 0.11628 0.82829 0.19239 0.0
C489 C 0.10651 0.86703 0.19324 0.0
C490 C 0.20515 0.93799 0.21106 0.0
C491 C 0.1984 0.92861 0.2234 0.0
C492 C 0.18239 0.90561 0.21213 0.0
C493 C 0.18008 0.89238 0.20916 0.0
C494 C 0.16872 0.88234 0.20124 0.0
C495 C 0.15943 0.88566 0.19617 0.0
C496 C 0.16155 0.89895 0.19932 0.0
C497 C 0.173 0.9088 0.20728 0.0
C498 C 0.16674 0.86826 0.19807 0.0
C499 C 0.1518 0.9028 0.19408 0.0
C500 C 0.15116 0.87513 0.12822 0.0
C501 C 0.13961 0.86595 0.1202 0.0
C502 C 0.1273 0.85657 0.1264 0.0
C503 C 0.12647 0.8562 0.14109 0.0
C504 C 0.11436 0.84671 0.14771 0.0
C505 C 0.11353 0.8468 0.16219 0.0
C506 C 0.12486 0.85624 0.1706 0.0
C507 C 0.12406 0.85658 0.18532 0.0
C508 C 0.13551 0.86612 0.19335 0.0
C509 C 0.14781 0.87546 0.18707 0.0
C510 C 0.14881 0.87528 0.17239 0.0
C511 C 0.16102 0.88456 0.16575 0.0
C512 C 0.16185 0.88449 0.15129 0.0
C513 C 0.15049 0.87515 0.14291 0.0
C514 C 0.13809 0.86563 0.14937 0.0
C515 C 0.13727 0.86567 0.16413 0.0
C516 C 0.05079 0.80391 0.20303 0.0
C517 C 0.06476 0.80716 0.20775 0.0
O518 O 0.19609 0.90867 0.09431 0.0
O519 O 0.19385 0.91491 0.21954 0.0
O520 O 0.07322 0.8214 0.2102 0.0
O521 O 0.08664 0.82835 0.08476 0.0
H522 H 0.19666 0.9267 0.09118 0.0
H523 H 0.17644 0.90731 0.07793 0.0
H524 H 0.18736 0.9036 0.06784 0.0
H525 H 0.18828 0.91989 0.06619 0.0
H526 H 0.17761 0.91476 0.10307 0.0
H527 H 0.19155 0.88671 0.10612 0.0
H528 H 0.1456 0.8941 0.11393 0.0
H529 H 0.15909 0.91216 0.11559 0.0
H530 H 0.15388 0.90132 0.1305 0.0
H531 H 0.18013 0.86663 0.11933 0.0
H532 H 0.16194 0.85881 0.11857 0.0
H533 H 0.17124 0.86806 0.13416 0.0
H534 H 0.1013 0.83272 0.07016 0.0
H535 H 0.08692 0.83071 0.05021 0.0
H536 H 0.08856 0.84327 0.0634 0.0
H537 H 0.07299 0.82644 0.06182 0.0
H538 H 0.1046 0.82185 0.09163 0.0
H539 H 0.08827 0.847 0.10231 0.0
H540 H 0.13466 0.83998 0.10656 0.0
H541 H 0.12122 0.82191 0.10601 0.0
H542 H 0.12641 0.8319 0.12238 0.0
H543 H 0.09897 0.8659 0.11863 0.0
H544 H 0.11666 0.8728 0.12256 0.0
H545 H 0.1038 0.86068 0.13386 0.0
H546 H 0.06862 0.80349 0.19903 0.0
H547 H 0.09148 0.81447 0.20415 0.0
H548 H 0.0833 0.8471 0.20504 0.0
H549 H 0.11743 0.82784 0.18093 0.0
H550 H 0.1122 0.81774 0.19635 0.0
H551 H 0.12656 0.83548 0.19702 0.0
H552 H 0.09844 0.86909 0.19611 0.0
H553 H 0.10871 0.86893 0.18199 0.0
H554 H 0.11593 0.87457 0.1992 0.0
H555 H 0.18971 0.92943 0.22698 0.0
H556 H 0.20902 0.949 0.21426 0.0
H557 H 0.19772 0.93494 0.20237 0.0
H558 H 0.21374 0.93718 0.20715 0.0
H559 H 0.18734 0.88999 0.21297 0.0
H560 H 0.17456 0.91895 0.20948 0.0
H561 H 0.16689 0.86656 0.18662 0.0
H562 H 0.15666 0.85999 0.20179 0.0
H563 H 0.17474 0.86719 0.20303 0.0
H564 H 0.15462 0.9134 0.1978 0.0
H565 H 0.14137 0.8952 0.19758 0.0
H566 H 0.1516 0.90233 0.18251 0.0
H567 H 0.14017 0.86622 0.10892 0.0
H568 H 0.10535 0.8392 0.14176 0.0
H569 H 0.10388 0.83937 0.16669 0.0
H570 H 0.1348 0.86642 0.20461 0.0
H571 H 0.17009 0.89203 0.17165 0.0
H572 H 0.17148 0.89191 0.14674 0.0
H573 H 0.04381 0.79254 0.20091 0.0
H574 H 0.05176 0.80931 0.19329 0.0
H575 H 0.0463 0.80747 0.21113 0.0
C576 C 0.28493 0.10799 0.94433 0.0
C577 C 0.28794 0.10069 0.93237 0.0
C578 C 0.29166 0.11628 0.91339 0.0
C579 C 0.27793 0.11154 0.91081 0.0
C580 C 0.27431 0.11867 0.902 0.0
C581 C 0.28461 0.13086 0.89576 0.0
C582 C 0.29842 0.13548 0.89806 0.0
C583 C 0.30174 0.128 0.90672 0.0
C584 C 0.25947 0.11335 0.8996 0.0
C585 C 0.30968 0.14853 0.89173 0.0
C586 C 0.25594 0.1841 0.9523 0.0
C587 C 0.26729 0.18887 0.94167 0.0
C588 C 0.26497 0.1797 0.91798 0.0
C589 C 0.27855 0.18425 0.9152 0.0
C590 C 0.28178 0.17726 0.90508 0.0
C591 C 0.27119 0.16525 0.89788 0.0
C592 C 0.25747 0.16086 0.90046 0.0
C593 C 0.25457 0.1684 0.91026 0.0
C594 C 0.29652 0.18247 0.90241 0.0
C595 C 0.24584 0.14789 0.89335 0.0
C596 C 0.25579 0.17651 0.80948 0.0
C597 C 0.2696 0.18307 0.81316 0.0
C598 C 0.2746 0.17563 0.81938 0.0
C599 C 0.26553 0.16143 0.82217 0.0
C600 C 0.25171 0.15472 0.81803 0.0
C601 C 0.24707 0.16233 0.81154 0.0
C602 C 0.28951 0.18297 0.82314 0.0
C603 C 0.24176 0.13957 0.82067 0.0
C604 C 0.27751 0.07773 0.80807 0.0
C605 C 0.27846 0.08537 0.79488 0.0
C606 C 0.28374 0.1082 0.80459 0.0
C607 C 0.29419 0.12208 0.8069 0.0
C608 C 0.29204 0.13147 0.81464 0.0
C609 C 0.27904 0.12682 0.82012 0.0
C610 C 0.26832 0.11286 0.81759 0.0
C611 C 0.27076 0.10367 0.80987 0.0
C612 C 0.3037 0.14629 0.81714 0.0
C613 C 0.2543 0.10761 0.82321 0.0
C614 C 0.28093 0.13937 0.88778 0.0
C615 C 0.27809 0.14822 0.89541 0.0
C616 C 0.27443 0.15653 0.88881 0.0
C617 C 0.27365 0.15611 0.87409 0.0
C618 C 0.27015 0.16443 0.86707 0.0
C619 C 0.26897 0.16359 0.8526 0.0
C620 C 0.27157 0.15465 0.84456 0.0
C621 C 0.27033 0.15367 0.82984 0.0
C622 C 0.27301 0.14468 0.82219 0.0
C623 C 0.27676 0.13646 0.82885 0.0
C624 C 0.27798 0.13723 0.84356 0.0
C625 C 0.28164 0.12902 0.85059 0.0
C626 C 0.28259 0.12968 0.86507 0.0
C627 C 0.28004 0.13865 0.87307 0.0
C628 C 0.27639 0.14708 0.8662 0.0
C629 C 0.27538 0.14637 0.85142 0.0
C630 C 0.24273 0.19874 0.80837 0.0
C631 C 0.25505 0.19737 0.80643 0.0
O632 O 0.29568 0.11009 0.92233 0.0
O633 O 0.28673 0.09964 0.79735 0.0
O634 O 0.2505 0.18346 0.80388 0.0
O635 O 0.26165 0.18575 0.92835 0.0
H636 H 0.27822 0.09213 0.9276 0.0
H637 H 0.27889 0.11218 0.94047 0.0
H638 H 0.29455 0.11674 0.94907 0.0
H639 H 0.27897 0.10052 0.9525 0.0
H640 H 0.26996 0.10238 0.9157 0.0
H641 H 0.3123 0.13153 0.90869 0.0
H642 H 0.25701 0.1206 0.90487 0.0
H643 H 0.2527 0.10283 0.9037 0.0
H644 H 0.25729 0.11295 0.88829 0.0
H645 H 0.31992 0.15099 0.89494 0.0
H646 H 0.3087 0.15748 0.89486 0.0
H647 H 0.30881 0.14732 0.88019 0.0
H648 H 0.27221 0.18288 0.94353 0.0
H649 H 0.26022 0.18643 0.96308 0.0
H650 H 0.24869 0.17269 0.95095 0.0
H651 H 0.25027 0.18935 0.95088 0.0
H652 H 0.28659 0.19321 0.92101 0.0
H653 H 0.24412 0.16505 0.91247 0.0
H654 H 0.2983 0.18229 0.89105 0.0
H655 H 0.2992 0.17552 0.9073 0.0
H656 H 0.30341 0.19321 0.90682 0.0
H657 H 0.23586 0.14496 0.89782 0.0
H658 H 0.24728 0.13904 0.89425 0.0
H659 H 0.24557 0.14962 0.8821 0.0
H660 H 0.26106 0.20128 0.81637 0.0
H661 H 0.27649 0.19396 0.81114 0.0
H662 H 0.23648 0.15734 0.80844 0.0
H663 H 0.2908 0.1842 0.83465 0.0
H664 H 0.29549 0.19342 0.81869 0.0
H665 H 0.2937 0.17665 0.81935 0.0
H666 H 0.23115 0.1362 0.81783 0.0
H667 H 0.24215 0.13758 0.83184 0.0
H668 H 0.24462 0.13308 0.81446 0.0
H669 H 0.26812 0.08263 0.79162 0.0
H670 H 0.27103 0.06629 0.80602 0.0
H671 H 0.27289 0.08058 0.81665 0.0
H672 H 0.28777 0.08045 0.81156 0.0
H673 H 0.30415 0.12551 0.80276 0.0
H674 H 0.26251 0.093 0.80813 0.0
H675 H 0.30559 0.14869 0.82853 0.0
H676 H 0.30101 0.15351 0.81295 0.0
H677 H 0.31321 0.14827 0.8122 0.0
H678 H 0.24686 0.09665 0.81976 0.0
H679 H 0.25057 0.11423 0.81975 0.0
H680 H 0.25477 0.10831 0.83477 0.0
H681 H 0.27865 0.14857 0.90672 0.0
H682 H 0.26815 0.17158 0.87271 0.0
H683 H 0.26602 0.17009 0.84781 0.0
H684 H 0.27196 0.14392 0.81092 0.0
H685 H 0.28374 0.12194 0.84498 0.0
H686 H 0.28534 0.12305 0.86993 0.0
H687 H 0.23618 0.19491 0.79883 0.0
H688 H 0.24606 0.20978 0.81071 0.0
H689 H 0.23663 0.1925 0.81724 0.0
C690 C 0.80235 0.0618 0.92232 0.0
C691 C 0.80311 0.07483 0.92857 0.0
C692 C 0.81202 0.09259 0.91083 0.0
C693 C 0.80897 0.10097 0.90344 0.0
C694 C 0.81894 0.11205 0.89586 0.0
C695 C 0.83221 0.11449 0.89527 0.0
C696 C 0.83532 0.10586 0.90249 0.0
C697 C 0.82523 0.09508 0.91031 0.0
C698 C 0.81531 0.12124 0.88862 0.0
C699 C 0.84932 0.10806 0.90197 0.0
C700 C 0.91947 0.21352 0.93601 0.0
C701 C 0.91244 0.20012 0.92773 0.0
C702 C 0.89056 0.18442 0.91594 0.0
C703 C 0.89424 0.17542 0.9099 0.0
C704 C 0.88521 0.16423 0.90092 0.0
C705 C 0.8724 0.1622 0.89766 0.0
C706 C 0.86877 0.17137 0.90355 0.0
C707 C 0.87788 0.1823 0.91273 0.0
C708 C 0.88929 0.15445 0.8951 0.0
C709 C 0.85523 0.16957 0.90024 0.0
C710 C 0.89692 0.18279 0.80672 0.0
C711 C 0.89911 0.17268 0.81176 0.0
C712 C 0.8891 0.16165 0.8194 0.0
C713 C 0.87665 0.16072 0.82205 0.0
C714 C 0.87448 0.17098 0.81716 0.0
C715 C 0.88468 0.18192 0.80958 0.0
C716 C 0.89178 0.15093 0.82458 0.0
C717 C 0.86135 0.17033 0.81989 0.0
C718 C 0.79244 0.05208 0.80401 0.0
C719 C 0.79623 0.06665 0.80019 0.0
C720 C 0.81883 0.08726 0.8051 0.0
C721 C 0.83202 0.09069 0.80809 0.0
C722 C 0.84122 0.10305 0.81558 0.0
C723 C 0.83715 0.11235 0.81987 0.0
C724 C 0.82402 0.10929 0.81622 0.0
C725 C 0.81497 0.09674 0.80888 0.0
C726 C 0.85518 0.10604 0.81914 0.0
C727 C 0.81952 0.11918 0.82025 0.0
C728 C 0.84295 0.12634 0.88751 0.0
C729 C 0.85232 0.13837 0.89519 0.0
C730 C 0.86254 0.15008 0.88864 0.0
C731 C 0.86335 0.14996 0.87394 0.0
C732 C 0.87327 0.16169 0.86697 0.0
C733 C 0.87411 0.16137 0.8525 0.0
C734 C 0.865 0.14934 0.84445 0.0
C735 C 0.86584 0.14886 0.82975 0.0
C736 C 0.85653 0.13677 0.82205 0.0
C737 C 0.84645 0.12498 0.82864 0.0
C738 C 0.84557 0.12519 0.84334 0.0
C739 C 0.83574 0.11341 0.85034 0.0
C740 C 0.8349 0.11373 0.86479 0.0
C741 C 0.84384 0.12585 0.87282 0.0
C742 C 0.85399 0.13776 0.86601 0.0
C743 C 0.85483 0.13744 0.85125 0.0
C744 C 0.9242 0.20515 0.7825 0.0
C745 C 0.91814 0.19502 0.79379 0.0
O746 O 0.80188 0.08221 0.91815 0.0
O747 O 0.81018 0.0748 0.79849 0.0
O748 O 0.90621 0.1934 0.79895 0.0
O749 O 0.89887 0.19517 0.92494 0.0
H750 H 0.81303 0.08144 0.93419 0.0
H751 H 0.81085 0.06472 0.91506 0.0
H752 H 0.79265 0.05506 0.91642 0.0
H753 H 0.80309 0.05577 0.93072 0.0
H754 H 0.79875 0.09894 0.90388 0.0
H755 H 0.82774 0.08862 0.91586 0.0
H756 H 0.82291 0.13236 0.8913 0.0
H757 H 0.80506 0.11897 0.89147 0.0
H758 H 0.81548 0.11966 0.87716 0.0
H759 H 0.84964 0.09944 0.90664 0.0
H760 H 0.85663 0.11791 0.90778 0.0
H761 H 0.85276 0.10903 0.89102 0.0
H762 H 0.91416 0.19203 0.93156 0.0
H763 H 0.92247 0.21103 0.94608 0.0
H764 H 0.91131 0.21482 0.94083 0.0
H765 H 0.93377 0.22764 0.92223 0.0
H766 H 0.90403 0.17693 0.91229 0.0
H767 H 0.87515 0.1893 0.91742 0.0
H768 H 0.89025 0.15525 0.88362 0.0
H769 H 0.88132 0.14354 0.89725 0.0
H770 H 0.89911 0.15677 0.89956 0.0
H771 H 0.85457 0.17845 0.9044 0.0
H772 H 0.84698 0.15991 0.90485 0.0
H773 H 0.85344 0.16846 0.88879 0.0
H774 H 0.92537 0.19633 0.80217 0.0
H775 H 0.90859 0.17329 0.80975 0.0
H776 H 0.88309 0.18978 0.80569 0.0
H777 H 0.89069 0.1504 0.83607 0.0
H778 H 0.90209 0.15328 0.8219 0.0
H779 H 0.88414 0.14052 0.81996 0.0
H780 H 0.86128 0.17918 0.81548 0.0
H781 H 0.85971 0.17036 0.83129 0.0
H782 H 0.85271 0.16046 0.81527 0.0
H783 H 0.79299 0.07082 0.80905 0.0
H784 H 0.78131 0.04534 0.80559 0.0
H785 H 0.79773 0.05272 0.81387 0.0
H786 H 0.79547 0.04725 0.79567 0.0
H787 H 0.83496 0.08341 0.8049 0.0
H788 H 0.80493 0.0944 0.80605 0.0
H789 H 0.85702 0.10787 0.83058 0.0
H790 H 0.86298 0.11566 0.8141 0.0
H791 H 0.85652 0.09741 0.81567 0.0
H792 H 0.80953 0.11596 0.81548 0.0
H793 H 0.8272 0.12983 0.81701 0.0
H794 H 0.81871 0.11967 0.83176 0.0
H795 H 0.85167 0.13862 0.90648 0.0
H796 H 0.88052 0.17124 0.87264 0.0
H797 H 0.88198 0.17069 0.84771 0.0
H798 H 0.85724 0.13648 0.81078 0.0
H799 H 0.82858 0.10379 0.84472 0.0
H800 H 0.82715 0.10435 0.8696 0.0
H801 H 0.93426 0.21384 0.78691 0.0
H802 H 0.9193 0.21146 0.78302 0.0
H803 H 0.92263 0.19283 0.76488 0.0
C804 C 0.82533 0.71853 0.94574 0.0
C805 C 0.81641 0.71964 0.93483 0.0
C806 C 0.82749 0.71796 0.91357 0.0
C807 C 0.83826 0.73195 0.91351 0.0
C808 C 0.84938 0.7361 0.90473 0.0
C809 C 0.84991 0.72604 0.89606 0.0
C810 C 0.83899 0.71199 0.89594 0.0
C811 C 0.82781 0.70821 0.90453 0.0
C812 C 0.86071 0.75123 0.90493 0.0
C813 C 0.83927 0.70092 0.88701 0.0
C814 C 0.94673 0.75869 0.92975 0.0
C815 C 0.93378 0.74444 0.93166 0.0
C816 C 0.91803 0.73768 0.91174 0.0
C817 C 0.91038 0.72663 0.90216 0.0
C818 C 0.89959 0.72558 0.89459 0.0
C819 C 0.89681 0.73628 0.89619 0.0
C820 C 0.90469 0.74766 0.9057 0.0
C821 C 0.91511 0.74815 0.91352 0.0
C822 C 0.89115 0.713 0.88495 0.0
C823 C 0.90213 0.75932 0.90763 0.0
C824 C 0.92563 0.75467 0.8087 0.0
C825 C 0.91631 0.74082 0.81198 0.0
C826 C 0.90404 0.73709 0.81851 0.0
C827 C 0.90115 0.74748 0.82201 0.0
C828 C 0.91032 0.76135 0.81824 0.0
C829 C 0.92237 0.76471 0.81145 0.0
C830 C 0.89425 0.72209 0.82185 0.0
C831 C 0.90754 0.77268 0.82169 0.0
C832 C 0.80859 0.74026 0.81317 0.0
C833 C 0.81499 0.73959 0.79938 0.0
C834 C 0.83122 0.73333 0.8071 0.0
C835 C 0.83325 0.72231 0.80793 0.0
C836 C 0.84448 0.72392 0.81514 0.0
C837 C 0.85399 0.73696 0.8216 0.0
C838 C 0.85221 0.74828 0.82054 0.0
C839 C 0.84082 0.74636 0.81333 0.0
C840 C 0.84609 0.71164 0.81606 0.0
C841 C 0.86227 0.76237 0.8272 0.0
C842 C 0.86229 0.73009 0.88786 0.0
C843 C 0.87345 0.73147 0.89492 0.0
C844 C 0.88556 0.73544 0.88805 0.0
C845 C 0.88664 0.73814 0.87369 0.0
C846 C 0.89878 0.74254 0.86653 0.0
C847 C 0.89957 0.74458 0.85229 0.0
C848 C 0.88825 0.74237 0.84464 0.0
C849 C 0.88881 0.74395 0.83006 0.0
C850 C 0.8775 0.74208 0.82287 0.0
C851 C 0.86556 0.73864 0.82985 0.0
C852 C 0.86473 0.73676 0.84438 0.0
C853 C 0.85282 0.73314 0.85171 0.0
C854 C 0.85205 0.73114 0.86598 0.0
C855 C 0.86309 0.73251 0.87344 0.0
C856 C 0.87527 0.73641 0.86632 0.0
C857 C 0.87609 0.73854 0.85177 0.0
C858 C 0.9603 0.76477 0.80799 0.0
C859 C 0.94558 0.753 0.80513 0.0
O860 O 0.81673 0.71341 0.92223 0.0
O861 O 0.81984 0.73082 0.8003 0.0
O862 O 0.93781 0.75872 0.80287 0.0
O863 O 0.92824 0.73793 0.9188 0.0
H864 H 0.82015 0.73077 0.93342 0.0
H865 H 0.83606 0.72402 0.94234 0.0
H866 H 0.82177 0.70745 0.94722 0.0
H867 H 0.82504 0.7234 0.95588 0.0
H868 H 0.83811 0.73971 0.92024 0.0
H869 H 0.81942 0.69746 0.90458 0.0
H870 H 0.86977 0.7525 0.91025 0.0
H871 H 0.85784 0.75803 0.91051 0.0
H872 H 0.86362 0.75476 0.89414 0.0
H873 H 0.83046 0.69033 0.88891 0.0
H874 H 0.84878 0.70116 0.8891 0.0
H875 H 0.83916 0.70302 0.87584 0.0
H876 H 0.92638 0.74596 0.93765 0.0
H877 H 0.95133 0.76376 0.94007 0.0
H878 H 0.94437 0.76556 0.9242 0.0
H879 H 0.95429 0.75766 0.92356 0.0
H880 H 0.91275 0.71862 0.90086 0.0
H881 H 0.92106 0.75684 0.92081 0.0
H882 H 0.89373 0.71601 0.87398 0.0
H883 H 0.88015 0.70889 0.88623 0.0
H884 H 0.893 0.70455 0.88686 0.0
H885 H 0.91054 0.76848 0.91348 0.0
H886 H 0.89263 0.75556 0.91354 0.0
H887 H 0.90076 0.76267 0.89738 0.0
H888 H 0.94214 0.74673 0.81464 0.0
H889 H 0.91858 0.73291 0.80939 0.0
H890 H 0.92955 0.77533 0.80867 0.0
H891 H 0.89424 0.72098 0.83329 0.0
H892 H 0.89702 0.71503 0.81669 0.0
H893 H 0.88376 0.71874 0.81856 0.0
H894 H 0.91611 0.7831 0.81887 0.0
H895 H 0.90561 0.77295 0.83301 0.0
H896 H 0.89827 0.77043 0.81597 0.0
H897 H 0.82347 0.7502 0.79688 0.0
H898 H 0.80452 0.74713 0.81235 0.0
H899 H 0.81627 0.74455 0.82176 0.0
H900 H 0.80018 0.72971 0.8159 0.0
H901 H 0.82583 0.71232 0.80304 0.0
H902 H 0.83951 0.75506 0.81274 0.0
H903 H 0.84626 0.70933 0.82717 0.0
H904 H 0.85594 0.7142 0.81152 0.0
H905 H 0.83777 0.70216 0.81051 0.0
H906 H 0.85987 0.77033 0.82481 0.0
H907 H 0.87268 0.76593 0.82356 0.0
H908 H 0.8623 0.76156 0.83869 0.0
H909 H 0.87268 0.72937 0.90593 0.0
H910 H 0.90781 0.74436 0.87185 0.0
H911 H 0.90916 0.74785 0.84733 0.0
H912 H 0.87799 0.74334 0.81169 0.0
H913 H 0.84394 0.73178 0.84648 0.0
H914 H 0.84263 0.72837 0.87106 0.0
H915 H 0.96675 0.76048 0.81005 0.0
H916 H 0.96082 0.77116 0.81731 0.0
H917 H 0.96442 0.77161 0.79896 0.0
C918 C 0.84508 0.60419 0.39091 0.0
C919 C 0.85164 0.61527 0.40274 0.0
C920 C 0.84178 0.61105 0.42573 0.0
C921 C 0.84554 0.62455 0.43017 0.0
C922 C 0.83795 0.62671 0.44024 0.0
C923 C 0.82624 0.6151 0.44575 0.0
C924 C 0.82268 0.60146 0.44154 0.0
C925 C 0.83072 0.59964 0.43178 0.0
C926 C 0.84226 0.64139 0.4447 0.0
C927 C 0.81012 0.58881 0.44691 0.0
C928 C 0.74678 0.63283 0.41364 0.0
C929 C 0.754 0.6262 0.41873 0.0
C930 C 0.77377 0.63188 0.43304 0.0
C931 C 0.76981 0.61798 0.43473 0.0
C932 C 0.77794 0.61476 0.44244 0.0
C933 C 0.7903 0.62565 0.4485 0.0
C934 C 0.79431 0.63965 0.44685 0.0
C935 C 0.78595 0.64257 0.43917 0.0
C936 C 0.77336 0.59973 0.44404 0.0
C937 C 0.80748 0.65149 0.45313 0.0
C938 C 0.76686 0.61949 0.53841 0.0
C939 C 0.76363 0.60632 0.53318 0.0
C940 C 0.77312 0.60478 0.52552 0.0
C941 C 0.78614 0.61659 0.52317 0.0
C942 C 0.78954 0.62979 0.52871 0.0
C943 C 0.77982 0.63106 0.53621 0.0
C944 C 0.76918 0.59055 0.51975 0.0
C945 C 0.80337 0.64259 0.5265 0.0
C946 C 0.8617 0.58605 0.52856 0.0
C947 C 0.85953 0.59745 0.53435 0.0
C948 C 0.83815 0.59654 0.53192 0.0
C949 C 0.82456 0.58694 0.52837 0.0
C950 C 0.81641 0.59121 0.5225 0.0
C951 C 0.82196 0.60551 0.52047 0.0
C952 C 0.83549 0.61539 0.52484 0.0
C953 C 0.84349 0.61079 0.53048 0.0
C954 C 0.80197 0.5804 0.51815 0.0
C955 C 0.84157 0.63075 0.52329 0.0
C956 C 0.81707 0.61724 0.45488 0.0
C957 C 0.80847 0.62058 0.44847 0.0
C958 C 0.79924 0.62238 0.45618 0.0
C959 C 0.79845 0.62075 0.47074 0.0
C960 C 0.78914 0.6223 0.47878 0.0
C961 C 0.78834 0.62053 0.49309 0.0
C962 C 0.79684 0.61717 0.49992 0.0
C963 C 0.79601 0.61523 0.51444 0.0
C964 C 0.80447 0.6117 0.52087 0.0
C965 C 0.8138 0.61002 0.51317 0.0
C966 C 0.81488 0.61206 0.49865 0.0
C967 C 0.82421 0.61055 0.49058 0.0
C968 C 0.82512 0.61247 0.47629 0.0
C969 C 0.81654 0.6157 0.46946 0.0
C970 C 0.80714 0.61739 0.4774 0.0
C971 C 0.80633 0.6156 0.49201 0.0
C972 C 0.73517 0.60811 0.53591 0.0
C973 C 0.74452 0.61186 0.5487 0.0
O974 O 0.84846 0.60879 0.41537 0.0
O975 O 0.84579 0.59169 0.53666 0.0
O976 O 0.75786 0.62163 0.54544 0.0
O977 O 0.76619 0.63541 0.42562 0.0
H978 H 0.84725 0.6219 0.40204 0.0
H979 H 0.83386 0.59805 0.39209 0.0
H980 H 0.84878 0.59696 0.39108 0.0
H981 H 0.84744 0.60914 0.38067 0.0
H982 H 0.85434 0.63337 0.42568 0.0
H983 H 0.82801 0.58927 0.42832 0.0
H984 H 0.83514 0.64392 0.44007 0.0
H985 H 0.8527 0.6491 0.44129 0.0
H986 H 0.84182 0.6424 0.45622 0.0
H987 H 0.80802 0.57902 0.4415 0.0
H988 H 0.80114 0.58971 0.44556 0.0
H989 H 0.8114 0.58808 0.45822 0.0
H990 H 0.75483 0.61913 0.41097 0.0
H991 H 0.72896 0.62381 0.42537 0.0
H992 H 0.74664 0.63155 0.40194 0.0
H993 H 0.75443 0.64438 0.41387 0.0
H994 H 0.76041 0.60957 0.43007 0.0
H995 H 0.78892 0.65325 0.43783 0.0
H996 H 0.78083 0.59766 0.43913 0.0
H997 H 0.7632 0.59244 0.4392 0.0
H998 H 0.77296 0.59756 0.45527 0.0
H999 H 0.80919 0.66181 0.45084 0.0
H1000 H 0.81611 0.65089 0.44902 0.0
H1001 H 0.80744 0.65061 0.46461 0.0
H1002 H 0.74381 0.6023 0.55228 0.0
H1003 H 0.7537 0.5972 0.53485 0.0
H1004 H 0.78226 0.64116 0.54033 0.0
H1005 H 0.77035 0.59075 0.50825 0.0
H1006 H 0.75855 0.58243 0.5222 0.0
H1007 H 0.77609 0.58762 0.52414 0.0
H1008 H 0.80471 0.65195 0.53219 0.0
H1009 H 0.80481 0.64462 0.51521 0.0
H1010 H 0.81142 0.64085 0.53001 0.0
H1011 H 0.86318 0.60538 0.52623 0.0
H1012 H 0.87265 0.59041 0.52657 0.0
H1013 H 0.85598 0.58161 0.51855 0.0
H1014 H 0.85804 0.57754 0.53598 0.0
H1015 H 0.82049 0.57599 0.52977 0.0
H1016 H 0.85387 0.61832 0.53375 0.0
H1017 H 0.80033 0.58131 0.50697 0.0
H1018 H 0.79487 0.58223 0.52425 0.0
H1019 H 0.7994 0.56964 0.51981 0.0
H1020 H 0.8517 0.63716 0.5285 0.0
H1021 H 0.83468 0.63387 0.52774 0.0
H1022 H 0.8427 0.63303 0.51205 0.0
H1023 H 0.80887 0.62168 0.43727 0.0
H1024 H 0.78232 0.62484 0.47409 0.0
H1025 H 0.78094 0.62181 0.49872 0.0
H1026 H 0.80368 0.61008 0.53199 0.0
H1027 H 0.83096 0.60788 0.49522 0.0
H1028 H 0.83255 0.61126 0.47064 0.0
H1029 H 0.72446 0.60054 0.53867 0.0
H1030 H 0.738 0.60327 0.5274 0.0
H1031 H 0.73592 0.61754 0.53192 0.0
C1032 C 0.40373 0.26155 0.39623 0.0
C1033 C 0.39211 0.2543 0.40651 0.0
C1034 C 0.39469 0.24803 0.42964 0.0
C1035 C 0.38141 0.23686 0.43171 0.0
C1036 C 0.37883 0.22671 0.44125 0.0
C1037 C 0.38981 0.22762 0.44863 0.0
C1038 C 0.40321 0.23908 0.44673 0.0
C1039 C 0.4054 0.24933 0.43749 0.0
C1040 C 0.36439 0.21484 0.44317 0.0
C1041 C 0.41527 0.2403 0.45406 0.0
C1042 C 0.3743 0.12539 0.41809 0.0
C1043 C 0.38119 0.14003 0.4236 0.0
C1044 C 0.37524 0.15586 0.43467 0.0
C1045 C 0.38862 0.16622 0.43871 0.0
C1046 C 0.39132 0.17828 0.44626 0.0
C1047 C 0.38044 0.17997 0.44991 0.0
C1048 C 0.36699 0.16956 0.44586 0.0
C1049 C 0.36459 0.15765 0.43825 0.0
C1050 C 0.40579 0.18923 0.45038 0.0
C1051 C 0.35516 0.17102 0.44962 0.0
C1052 C 0.38429 0.16385 0.5394 0.0
C1053 C 0.39683 0.17437 0.53425 0.0
C1054 C 0.39785 0.1855 0.52724 0.0
C1055 C 0.38612 0.18611 0.52529 0.0
C1056 C 0.37358 0.17574 0.53076 0.0
C1057 C 0.37285 0.16477 0.53778 0.0
C1058 C 0.41142 0.19648 0.52166 0.0
C1059 C 0.36089 0.1761 0.52887 0.0
C1060 C 0.40627 0.29218 0.53591 0.0
C1061 C 0.39652 0.27792 0.54181 0.0
C1062 C 0.39989 0.25855 0.53768 0.0
C1063 C 0.41026 0.25627 0.53426 0.0
C1064 C 0.40738 0.24378 0.52753 0.0
C1065 C 0.39372 0.23324 0.5244 0.0
C1066 C 0.3831 0.23521 0.52847 0.0
C1067 C 0.38629 0.24785 0.53511 0.0
C1068 C 0.41893 0.24195 0.52352 0.0
C1069 C 0.36842 0.22401 0.52563 0.0
C1070 C 0.38743 0.21605 0.4574 0.0
C1071 C 0.38507 0.20385 0.45054 0.0
C1072 C 0.38311 0.19262 0.45796 0.0
C1073 C 0.38374 0.19355 0.47268 0.0
C1074 C 0.38204 0.18251 0.48045 0.0
C1075 C 0.38297 0.18364 0.49493 0.0
C1076 C 0.38557 0.19583 0.5022 0.0
C1077 C 0.38686 0.19719 0.51691 0.0
C1078 C 0.3893 0.20938 0.52383 0.0
C1079 C 0.3906 0.22038 0.51644 0.0
C1080 C 0.38945 0.21926 0.50172 0.0
C1081 C 0.39074 0.23014 0.49394 0.0
C1082 C 0.38987 0.22904 0.47944 0.0
C1083 C 0.38783 0.21709 0.47215 0.0
C1084 C 0.38616 0.20586 0.4798 0.0
C1085 C 0.387 0.20696 0.49459 0.0
C1086 C 0.3937 0.14269 0.53334 0.0
C1087 C 0.39207 0.14873 0.54724 0.0
O1088 O 0.39748 0.25754 0.41996 0.0
O1089 O 0.40339 0.27114 0.5435 0.0
O1090 O 0.38266 0.1526 0.54583 0.0
O1091 O 0.37216 0.14401 0.4274 0.0
H1092 H 0.38702 0.2429 0.4041 0.0
H1093 H 0.41088 0.25796 0.39747 0.0
H1094 H 0.40943 0.27301 0.39814 0.0
H1095 H 0.39972 0.25899 0.38533 0.0
H1096 H 0.37309 0.23607 0.42582 0.0
H1097 H 0.4156 0.25809 0.43585 0.0
H1098 H 0.36288 0.20534 0.43766 0.0
H1099 H 0.3569 0.21706 0.4389 0.0
H1100 H 0.36231 0.21263 0.45438 0.0
H1101 H 0.42508 0.24865 0.44986 0.0
H1102 H 0.41486 0.23031 0.45304 0.0
H1103 H 0.41506 0.24271 0.46533 0.0
H1104 H 0.38974 0.14781 0.41721 0.0
H1105 H 0.37761 0.12624 0.40693 0.0
H1106 H 0.36352 0.122 0.41537 0.0
H1107 H 0.37912 0.11554 0.43292 0.0
H1108 H 0.39698 0.16498 0.43599 0.0
H1109 H 0.35432 0.1496 0.4351 0.0
H1110 H 0.40677 0.19047 0.46192 0.0
H1111 H 0.40848 0.19941 0.44634 0.0
H1112 H 0.41317 0.18658 0.44638 0.0
H1113 H 0.34527 0.16181 0.44603 0.0
H1114 H 0.35646 0.18039 0.44485 0.0
H1115 H 0.35492 0.17249 0.46109 0.0
H1116 H 0.40205 0.15793 0.5507 0.0
H1117 H 0.40584 0.17395 0.53551 0.0
H1118 H 0.36325 0.15667 0.54185 0.0
H1119 H 0.41087 0.19611 0.5101 0.0
H1120 H 0.41977 0.19506 0.52484 0.0
H1121 H 0.41393 0.20697 0.5254 0.0
H1122 H 0.35193 0.16732 0.53387 0.0
H1123 H 0.35861 0.17565 0.51758 0.0
H1124 H 0.36255 0.18604 0.5334 0.0
H1125 H 0.38808 0.27221 0.53401 0.0
H1126 H 0.40101 0.29785 0.53449 0.0
H1127 H 0.40993 0.29085 0.5256 0.0
H1128 H 0.41522 0.29851 0.54298 0.0
H1129 H 0.4207 0.2645 0.53653 0.0
H1130 H 0.37817 0.24931 0.53832 0.0
H1131 H 0.41872 0.24002 0.51207 0.0
H1132 H 0.41769 0.23272 0.52857 0.0
H1133 H 0.42901 0.25119 0.52661 0.0
H1134 H 0.36132 0.22683 0.53012 0.0
H1135 H 0.36616 0.21411 0.53003 0.0
H1136 H 0.36654 0.22214 0.5142 0.0
H1137 H 0.38479 0.20311 0.43922 0.0
H1138 H 0.38007 0.1729 0.47543 0.0
H1139 H 0.38167 0.17484 0.50034 0.0
H1140 H 0.39037 0.21039 0.53511 0.0
H1141 H 0.39249 0.23966 0.49897 0.0
H1142 H 0.39092 0.23772 0.474 0.0
H1143 H 0.40105 0.13935 0.53457 0.0
H1144 H 0.39761 0.1506 0.52526 0.0
H1145 H 0.38378 0.13359 0.52961 0.0
C1146 C 0.85972 0.24003 0.40339 0.0
C1147 C 0.86964 0.24829 0.41554 0.0
C1148 C 0.85744 0.23212 0.43425 0.0
C1149 C 0.8475 0.23547 0.4364 0.0
C1150 C 0.83615 0.22723 0.44461 0.0
C1151 C 0.83461 0.21533 0.45067 0.0
C1152 C 0.84475 0.21212 0.4488 0.0
C1153 C 0.85613 0.22069 0.44075 0.0
C1154 C 0.82562 0.23108 0.44658 0.0
C1155 C 0.84337 0.19942 0.45497 0.0
C1156 C 0.75609 0.1562 0.39088 0.0
C1157 C 0.7608 0.15087 0.40257 0.0
C1158 C 0.76666 0.16138 0.42596 0.0
C1159 C 0.77607 0.15788 0.42975 0.0
C1160 C 0.78597 0.16573 0.44013 0.0
C1161 C 0.78659 0.17745 0.44667 0.0
C1162 C 0.7768 0.18071 0.44315 0.0
C1163 C 0.76676 0.17241 0.43302 0.0
C1164 C 0.79602 0.16173 0.44384 0.0
C1165 C 0.77727 0.19328 0.44964 0.0
C1166 C 0.75468 0.16192 0.5327 0.0
C1167 C 0.76305 0.15672 0.52967 0.0
C1168 C 0.77616 0.16539 0.52448 0.0
C1169 C 0.78088 0.17946 0.52208 0.0
C1170 C 0.77268 0.18485 0.52574 0.0
C1171 C 0.75974 0.17602 0.5312 0.0
C1172 C 0.78485 0.15944 0.52122 0.0
C1173 C 0.77743 0.19984 0.52353 0.0
C1174 C 0.87612 0.26787 0.54086 0.0
C1175 C 0.8693 0.25885 0.55343 0.0
C1176 C 0.85265 0.236 0.54235 0.0
C1177 C 0.84992 0.22263 0.5392 0.0
C1178 C 0.83849 0.21293 0.53115 0.0
C1179 C 0.82954 0.21673 0.52613 0.0
C1180 C 0.83206 0.23014 0.52948 0.0
C1181 C 0.84357 0.23965 0.53756 0.0
C1182 C 0.83609 0.1987 0.52779 0.0
C1183 C 0.82267 0.23448 0.52432 0.0
C1184 C 0.82195 0.20575 0.45812 0.0
C1185 C 0.81057 0.19624 0.45004 0.0
C1186 C 0.79818 0.18698 0.45616 0.0
C1187 C 0.79706 0.18711 0.47083 0.0
C1188 C 0.78477 0.17793 0.47736 0.0
C1189 C 0.78369 0.17839 0.49179 0.0
C1190 C 0.79496 0.18781 0.50028 0.0
C1191 C 0.79397 0.18833 0.51497 0.0
C1192 C 0.80541 0.19775 0.52309 0.0
C1193 C 0.81785 0.20686 0.51692 0.0
C1194 C 0.81898 0.20663 0.50225 0.0
C1195 C 0.83128 0.21583 0.49569 0.0
C1196 C 0.83227 0.21562 0.48125 0.0
C1197 C 0.82105 0.2061 0.4728 0.0
C1198 C 0.80854 0.19672 0.47918 0.0
C1199 C 0.80751 0.19702 0.49392 0.0
C1200 C 0.71904 0.13722 0.52943 0.0
C1201 C 0.73299 0.13975 0.53306 0.0
O1202 O 0.86828 0.23943 0.42585 0.0
O1203 O 0.86417 0.24497 0.54985 0.0
O1204 O 0.74169 0.15366 0.53698 0.0
O1205 O 0.75763 0.15453 0.41531 0.0
H1206 H 0.86756 0.25617 0.41995 0.0
H1207 H 0.84905 0.2348 0.40693 0.0
H1208 H 0.86155 0.23198 0.399 0.0
H1209 H 0.86096 0.24708 0.39502 0.0
H1210 H 0.84844 0.2444 0.43164 0.0
H1211 H 0.86389 0.21825 0.43912 0.0
H1212 H 0.81612 0.22325 0.44092 0.0
H1213 H 0.82906 0.24149 0.44263 0.0
H1214 H 0.82318 0.23099 0.45779 0.0
H1215 H 0.85188 0.19806 0.45207 0.0
H1216 H 0.83365 0.18997 0.45139 0.0
H1217 H 0.84309 0.20027 0.46651 0.0
H1218 H 0.77204 0.15611 0.40157 0.0
H1219 H 0.75853 0.15338 0.38055 0.0
H1220 H 0.76141 0.16772 0.39193 0.0
H1221 H 0.74497 0.15177 0.39136 0.0
H1222 H 0.77573 0.14908 0.4245 0.0
H1223 H 0.75935 0.17492 0.43006 0.0
H1224 H 0.79716 0.16195 0.45534 0.0
H1225 H 0.80611 0.16938 0.43961 0.0
H1226 H 0.7929 0.15122 0.4395 0.0
H1227 H 0.76962 0.19502 0.44492 0.0
H1228 H 0.78753 0.20273 0.44844 0.0
H1229 H 0.77532 0.19191 0.46097 0.0
H1230 H 0.73664 0.1371 0.52338 0.0
H1231 H 0.75935 0.1459 0.53131 0.0
H1232 H 0.75327 0.17997 0.53381 0.0
H1233 H 0.78571 0.15862 0.50975 0.0
H1234 H 0.78052 0.14895 0.52543 0.0
H1235 H 0.79527 0.16646 0.52561 0.0
H1236 H 0.76955 0.20223 0.52625 0.0
H1237 H 0.78025 0.20231 0.51247 0.0
H1238 H 0.78664 0.20674 0.53006 0.0
H1239 H 0.86092 0.26017 0.55705 0.0
H1240 H 0.88045 0.27902 0.54385 0.0
H1241 H 0.86863 0.26495 0.53227 0.0
H1242 H 0.88439 0.26654 0.53691 0.0
H1243 H 0.85693 0.21987 0.54297 0.0
H1244 H 0.84542 0.2499 0.53992 0.0
H1245 H 0.83632 0.19714 0.51633 0.0
H1246 H 0.82586 0.19058 0.53134 0.0
H1247 H 0.84382 0.19723 0.53277 0.0
H1248 H 0.82582 0.24516 0.52811 0.0
H1249 H 0.81216 0.22712 0.52782 0.0
H1250 H 0.82245 0.23406 0.51275 0.0
H1251 H 0.81134 0.19611 0.43877 0.0
H1252 H 0.77581 0.17037 0.47137 0.0
H1253 H 0.77391 0.17119 0.49619 0.0
H1254 H 0.80458 0.19809 0.53434 0.0
H1255 H 0.84028 0.22335 0.50166 0.0
H1256 H 0.84196 0.22299 0.47678 0.0
H1257 H 0.71187 0.12612 0.52622 0.0
H1258 H 0.71995 0.14371 0.52062 0.0
H1259 H 0.7148 0.13999 0.53849 0.0
C1260 C 0.01701 0.47749 0.28031 0.0
C1261 C 0.00993 0.46519 0.26971 0.0
C1262 C 0.0119 0.47531 0.24721 0.0
C1263 C 0.99819 0.47022 0.24415 0.0
C1264 C 0.9946 0.47698 0.23481 0.0
C1265 C 0.00492 0.48897 0.22832 0.0
C1266 C 0.01874 0.49372 0.23089 0.0
C1267 C 0.02204 0.48672 0.24023 0.0
C1268 C 0.97977 0.47145 0.232 0.0
C1269 C 0.02999 0.50638 0.22401 0.0
C1270 C 0.01151 0.58348 0.26136 0.0
C1271 C 0.01313 0.57352 0.25239 0.0
C1272 C -1e-05 0.55041 0.24114 0.0
C1273 C 0.01087 0.55188 0.23322 0.0
C1274 C 0.00967 0.54056 0.22548 0.0
C1275 C 0.99733 0.52748 0.22563 0.0
C1276 C 0.98622 0.52603 0.23326 0.0
C1277 C 0.98768 0.53757 0.24088 0.0
C1278 C 0.0217 0.54251 0.21735 0.0
C1279 C 0.9729 0.51224 0.23349 0.0
C1280 C 0.97128 0.52594 0.13897 0.0
C1281 C 0.98524 0.53263 0.14179 0.0
C1282 C 0.9906 0.52555 0.14803 0.0
C1283 C 0.98171 0.51159 0.15174 0.0
C1284 C 0.96771 0.50464 0.14823 0.0
C1285 C 0.9627 0.51189 0.14169 0.0
C1286 C 0.00567 0.53309 0.15103 0.0
C1287 C 0.95797 0.4897 0.15182 0.0
C1288 C 0.01642 0.43807 0.14849 0.0
C1289 C 0.00531 0.43929 0.14156 0.0
C1290 C 0.00603 0.46127 0.14244 0.0
C1291 C 0.0154 0.47556 0.14399 0.0
C1292 C 0.01148 0.48455 0.14936 0.0
C1293 C 0.9978 0.47904 0.15312 0.0
C1294 C 0.98806 0.46472 0.15065 0.0
C1295 C 0.99227 0.45596 0.14525 0.0
C1296 C 0.02207 0.49983 0.15158 0.0
C1297 C 0.97333 0.45863 0.15419 0.0
C1298 C 0.00124 0.49692 0.21945 0.0
C1299 C 1e-05 0.5074 0.22596 0.0
C1300 C 0.99645 0.51526 0.21837 0.0
C1301 C 0.9935 0.5123 0.20395 0.0
C1302 C 0.9891 0.51945 0.19617 0.0
C1303 C 0.98656 0.51668 0.1819 0.0
C1304 C 0.98878 0.507 0.17478 0.0
C1305 C 0.98682 0.50456 0.16017 0.0
C1306 C 0.98963 0.49526 0.15338 0.0
C1307 C 0.99405 0.48803 0.16088 0.0
C1308 C 0.99549 0.48988 0.17556 0.0
C1309 C 0.9994 0.48236 0.18347 0.0
C1310 C 0.00105 0.48444 0.19787 0.0
C1311 C 0.99915 0.49436 0.20488 0.0
C1312 C 0.99516 0.50202 0.19713 0.0
C1313 C 0.99309 0.49959 0.18248 0.0
C1314 C 0.9551 0.54203 0.14753 0.0
C1315 C 0.96779 0.54517 0.13954 0.0
O1316 O 0.01566 0.46938 0.25671 0.0
O1317 O 0.0107 0.45302 0.13826 0.0
O1318 O 0.96584 0.53286 0.13371 0.0
O1319 O 0.00106 0.56106 0.24925 0.0
H1320 H 0.999 0.4617 0.26947 0.0
H1321 H 0.01541 0.48586 0.27727 0.0
H1322 H 0.02812 0.48181 0.28077 0.0
H1323 H 0.01273 0.47419 0.29084 0.0
H1324 H 0.99027 0.46094 0.24894 0.0
H1325 H 0.03258 0.49039 0.24247 0.0
H1326 H 0.97742 0.47937 0.2355 0.0
H1327 H 0.97295 0.46168 0.23743 0.0
H1328 H 0.97758 0.46944 0.22062 0.0
H1329 H 0.0402 0.50842 0.22667 0.0
H1330 H 0.02961 0.51564 0.22733 0.0
H1331 H 0.02853 0.505 0.21251 0.0
H1332 H 0.02143 0.57203 0.25578 0.0
H1333 H 0.01708 0.58458 0.27135 0.0
H1334 H 0.00109 0.57737 0.26603 0.0
H1335 H 0.01741 0.6002 0.24845 0.0
H1336 H 0.0204 0.56181 0.23309 0.0
H1337 H 0.9793 0.53654 0.24692 0.0
H1338 H 0.01884 0.5398 0.20615 0.0
H1339 H 0.02474 0.5354 0.22107 0.0
H1340 H 0.03061 0.55335 0.21833 0.0
H1341 H 0.96498 0.51298 0.23928 0.0
H1342 H 0.97446 0.50452 0.23847 0.0
H1343 H 0.96918 0.50828 0.22266 0.0
H1344 H 0.97644 0.55 0.14718 0.0
H1345 H 0.99191 0.54341 0.13918 0.0
H1346 H 0.95196 0.5068 0.1392 0.0
H1347 H 0.00758 0.53548 0.1624 0.0
H1348 H 0.01141 0.543 0.14553 0.0
H1349 H 0.00965 0.52641 0.14787 0.0
H1350 H 0.94732 0.48594 0.14878 0.0
H1351 H 0.95844 0.48858 0.16321 0.0
H1352 H 0.961 0.48296 0.14642 0.0
H1353 H 0.99707 0.43589 0.1493 0.0
H1354 H 0.01236 0.42714 0.15123 0.0
H1355 H 0.02007 0.44472 0.15822 0.0
H1356 H 0.02519 0.44149 0.14145 0.0
H1357 H 0.02593 0.47959 0.14147 0.0
H1358 H 0.98481 0.445 0.14336 0.0
H1359 H 0.02354 0.50259 0.16293 0.0
H1360 H 0.01857 0.50615 0.14677 0.0
H1361 H 0.03203 0.50264 0.1471 0.0
H1362 H 0.96686 0.44746 0.15088 0.0
H1363 H 0.96944 0.46448 0.14911 0.0
H1364 H 0.97241 0.45969 0.16563 0.0
H1365 H 0.00216 0.50968 0.23706 0.0
H1366 H 0.98749 0.5272 0.20106 0.0
H1367 H 0.98307 0.52243 0.1765 0.0
H1368 H 0.98844 0.49369 0.14214 0.0
H1369 H 0.0012 0.47473 0.17863 0.0
H1370 H 0.00405 0.47835 0.20342 0.0
H1371 H 0.94603 0.53705 0.14048 0.0
H1372 H 0.95647 0.55177 0.15233 0.0
H1373 H 0.95327 0.53486 0.15599 0.0
C1374 C 0.47518 0.42451 0.28651 0.0
C1375 C 0.46725 0.42729 0.27587 0.0
C1376 C 0.47615 0.43162 0.2525 0.0
C1377 C 0.47387 0.44194 0.24849 0.0
C1378 C 0.48214 0.45153 0.23858 0.0
C1379 C 0.49302 0.45086 0.23275 0.0
C1380 C 0.49504 0.44014 0.23649 0.0
C1381 C 0.48637 0.43047 0.24616 0.0
C1382 C 0.47948 0.46262 0.23465 0.0
C1383 C 0.50665 0.4392 0.23068 0.0
C1384 C 0.58059 0.55222 0.26585 0.0
C1385 C 0.57267 0.53796 0.25931 0.0
C1386 C 0.55162 0.5229 0.24591 0.0
C1387 C 0.55441 0.51251 0.24254 0.0
C1388 C 0.54501 0.50042 0.2348 0.0
C1389 C 0.53261 0.49869 0.23032 0.0
C1390 C 0.52983 0.50917 0.23358 0.0
C1391 C 0.53941 0.52117 0.24133 0.0
C1392 C 0.54828 0.48943 0.23145 0.0
C1393 C 0.51671 0.50765 0.22895 0.0
C1394 C 0.54759 0.51349 0.13723 0.0
C1395 C 0.5508 0.50379 0.14099 0.0
C1396 C 0.5423 0.4929 0.14968 0.0
C1397 C 0.53024 0.49167 0.15469 0.0
C1398 C 0.52699 0.50154 0.15109 0.0
C1399 C 0.53574 0.51241 0.1425 0.0
C1400 C 0.54615 0.48265 0.15343 0.0
C1401 C 0.51422 0.50054 0.15627 0.0
C1402 C 0.44778 0.38046 0.14152 0.0
C1403 C 0.45221 0.3955 0.139 0.0
C1404 C 0.47467 0.41633 0.14409 0.0
C1405 C 0.48802 0.42035 0.14724 0.0
C1406 C 0.49708 0.43329 0.15387 0.0
C1407 C 0.49271 0.44255 0.15716 0.0
C1408 C 0.47938 0.4388 0.15345 0.0
C1409 C 0.47045 0.42569 0.14697 0.0
C1410 C 0.51126 0.43698 0.15757 0.0
C1411 C 0.47455 0.4486 0.15646 0.0
C1412 C 0.5029 0.46204 0.2237 0.0
C1413 C 0.51283 0.4746 0.23025 0.0
C1414 C 0.52239 0.48574 0.22254 0.0
C1415 C 0.52213 0.4844 0.20783 0.0
C1416 C 0.53156 0.49544 0.19976 0.0
C1417 C 0.53119 0.49404 0.18528 0.0
C1418 C 0.52142 0.48153 0.17832 0.0
C1419 C 0.52094 0.48002 0.16361 0.0
C1420 C 0.51136 0.46729 0.15704 0.0
C1421 C 0.50206 0.45599 0.16477 0.0
C1422 C 0.5021 0.45743 0.17948 0.0
C1423 C 0.49264 0.4464 0.18757 0.0
C1424 C 0.49275 0.44794 0.20203 0.0
C1425 C 0.50252 0.46044 0.20899 0.0
C1426 C 0.51218 0.47169 0.20104 0.0
C1427 C 0.51188 0.47022 0.18627 0.0
C1428 C 0.54329 0.5263 0.11074 0.0
C1429 C 0.55418 0.53326 0.12235 0.0
O1430 O 0.46879 0.42288 0.26271 0.0
O1431 O 0.46626 0.40342 0.13823 0.0
O1432 O 0.55611 0.52354 0.12843 0.0
O1433 O 0.56035 0.53468 0.25355 0.0
H1434 H 0.47167 0.43874 0.27635 0.0
H1435 H 0.48614 0.43036 0.2839 0.0
H1436 H 0.47147 0.41325 0.28645 0.0
H1437 H 0.4741 0.42799 0.29715 0.0
H1438 H 0.46569 0.44255 0.25322 0.0
H1439 H 0.48793 0.42234 0.24929 0.0
H1440 H 0.48756 0.47281 0.23931 0.0
H1441 H 0.46949 0.46045 0.2384 0.0
H1442 H 0.47979 0.4635 0.22316 0.0
H1443 H 0.50732 0.43077 0.2353 0.0
H1444 H 0.51641 0.44923 0.23266 0.0
H1445 H 0.50532 0.43722 0.21922 0.0
H1446 H 0.5718 0.52959 0.26581 0.0
H1447 H 0.58116 0.55056 0.27724 0.0
H1448 H 0.57332 0.55587 0.26732 0.0
H1449 H 0.59787 0.56246 0.25345 0.0
H1450 H 0.56386 0.51374 0.24594 0.0
H1451 H 0.53736 0.52924 0.24394 0.0
H1452 H 0.5479 0.4875 0.21998 0.0
H1453 H 0.54052 0.4795 0.23606 0.0
H1454 H 0.55848 0.49243 0.23546 0.0
H1455 H 0.51617 0.51685 0.23214 0.0
H1456 H 0.50799 0.49828 0.23348 0.0
H1457 H 0.51562 0.50615 0.21743 0.0
H1458 H 0.55096 0.53818 0.13042 0.0
H1459 H 0.55997 0.50472 0.13696 0.0
H1460 H 0.53313 0.51989 0.13991 0.0
H1461 H 0.54611 0.48187 0.16493 0.0
H1462 H 0.55633 0.4856 0.14953 0.0
H1463 H 0.5385 0.47219 0.14892 0.0
H1464 H 0.51276 0.50861 0.15196 0.0
H1465 H 0.51466 0.50175 0.16782 0.0
H1466 H 0.50522 0.49012 0.15339 0.0
H1467 H 0.44873 0.39912 0.14811 0.0
H1468 H 0.43655 0.37388 0.14247 0.0
H1469 H 0.45248 0.38003 0.15136 0.0
H1470 H 0.451 0.37616 0.13282 0.0
H1471 H 0.49122 0.41313 0.14478 0.0
H1472 H 0.46026 0.42284 0.1441 0.0
H1473 H 0.51319 0.43948 0.16893 0.0
H1474 H 0.51879 0.44639 0.15205 0.0
H1475 H 0.51293 0.42843 0.15473 0.0
H1476 H 0.46421 0.44454 0.1521 0.0
H1477 H 0.48171 0.45885 0.15203 0.0
H1478 H 0.47439 0.45031 0.1679 0.0
H1479 H 0.51311 0.47574 0.24154 0.0
H1480 H 0.53932 0.50531 0.20455 0.0
H1481 H 0.5387 0.50289 0.17961 0.0
H1482 H 0.51117 0.46615 0.14576 0.0
H1483 H 0.48497 0.43648 0.18281 0.0
H1484 H 0.48514 0.43915 0.20771 0.0
H1485 H 0.53333 0.51837 0.11498 0.0
H1486 H 0.5462 0.5211 0.10269 0.0
H1487 H 0.54198 0.53418 0.10572 0.0
C1488 C 0.45035 0.97394 0.27876 0.0
C1489 C 0.44892 0.98465 0.27104 0.0
C1490 C 0.45718 0.9854 0.24761 0.0
C1491 C 0.46746 0.99948 0.2469 0.0
C1492 C 0.47841 0.00367 0.23788 0.0
C1493 C 0.47903 0.99355 0.22941 0.0
C1494 C 0.46831 0.97943 0.22961 0.0
C1495 C 0.45741 0.97556 0.23864 0.0
C1496 C 0.48949 0.01886 0.23762 0.0
C1497 C 0.46861 0.9684 0.22064 0.0
C1498 C 0.56312 0.98734 0.26474 0.0
C1499 C 0.5515 0.98515 0.25615 0.0
C1500 C 0.5434 0.99826 0.24468 0.0
C1501 C 0.53313 0.98676 0.23683 0.0
C1502 C 0.5238 0.98793 0.22877 0.0
C1503 C 0.52467 0.00082 0.22863 0.0
C1504 C 0.53512 0.01249 0.23631 0.0
C1505 C 0.54443 0.01107 0.24417 0.0
C1506 C 0.51285 0.97532 0.22057 0.0
C1507 C 0.53629 0.02636 0.23637 0.0
C1508 C 0.55803 0.0311 0.14548 0.0
C1509 C 0.54844 0.01674 0.14547 0.0
C1510 C 0.53549 0.01162 0.15104 0.0
C1511 C 0.53214 0.02107 0.15677 0.0
C1512 C 0.54153 0.03556 0.15607 0.0
C1513 C 0.55434 0.04038 0.15027 0.0
C1514 C 0.52552 0.99612 0.15115 0.0
C1515 C 0.53821 0.04593 0.16187 0.0
C1516 C 0.4276 0.99423 0.15049 0.0
C1517 C 0.44013 0.00562 0.14318 0.0
C1518 C 0.45996 0.00334 0.14382 0.0
C1519 C 0.46268 0.99276 0.14373 0.0
C1520 C 0.47464 0.99497 0.14983 0.0
C1521 C 0.48415 0.00818 0.15598 0.0
C1522 C 0.48186 0.01919 0.15531 0.0
C1523 C 0.46979 0.01668 0.14916 0.0
C1524 C 0.47689 0.98307 0.15013 0.0
C1525 C 0.49201 0.03349 0.16145 0.0
C1526 C 0.49136 0.99762 0.22118 0.0
C1527 C 0.50217 0.99804 0.22795 0.0
C1528 C 0.51418 0.0018 0.22101 0.0
C1529 C 0.51564 0.00556 0.20696 0.0
C1530 C 0.52774 0.0098 0.19979 0.0
C1531 C 0.52903 0.01339 0.18592 0.0
C1532 C 0.51815 0.01254 0.17859 0.0
C1533 C 0.51925 0.01587 0.16439 0.0
C1534 C 0.50809 0.01448 0.1573 0.0
C1535 C 0.49586 0.01009 0.16413 0.0
C1536 C 0.49472 0.00718 0.17844 0.0
C1537 C 0.48268 0.00317 0.18571 0.0
C1538 C 0.48161 0.00021 0.19976 0.0
C1539 C 0.49244 0.00091 0.207 0.0
C1540 C 0.50466 0.00495 0.19988 0.0
C1541 C 0.50585 0.00825 0.18563 0.0
C1542 C 0.59045 0.04139 0.15391 0.0
C1543 C 0.57899 0.03114 0.14388 0.0
O1544 O 0.44699 0.98104 0.2569 0.0
O1545 O 0.44786 0.0003 0.13847 0.0
O1546 O 0.57087 0.03632 0.14092 0.0
O1547 O 0.55236 0.99739 0.25292 0.0
H1548 H 0.45845 0.99493 0.273 0.0
H1549 H 0.45939 0.97392 0.27496 0.0
H1550 H 0.44123 0.96333 0.27696 0.0
H1551 H 0.45172 0.97659 0.29013 0.0
H1552 H 0.46696 0.00719 0.25341 0.0
H1553 H 0.44927 0.96474 0.23912 0.0
H1554 H 0.4991 0.02036 0.24175 0.0
H1555 H 0.48696 0.02556 0.24395 0.0
H1556 H 0.4913 0.0223 0.22672 0.0
H1557 H 0.45937 0.95791 0.22184 0.0
H1558 H 0.47767 0.96804 0.22345 0.0
H1559 H 0.46949 0.97104 0.20952 0.0
H1560 H 0.54125 0.97711 0.25992 0.0
H1561 H 0.55848 0.9825 0.27492 0.0
H1562 H 0.56847 0.99836 0.26918 0.0
H1563 H 0.57265 0.98001 0.25156 0.0
H1564 H 0.53228 0.97681 0.23697 0.0
H1565 H 0.55242 0.0199 0.25018 0.0
H1566 H 0.51295 0.97784 0.2095 0.0
H1567 H 0.50275 0.97225 0.22478 0.0
H1568 H 0.51411 0.9663 0.22101 0.0
H1569 H 0.54506 0.03447 0.2428 0.0
H1570 H 0.52683 0.02527 0.2405 0.0
H1571 H 0.53745 0.0299 0.22555 0.0
H1572 H 0.57313 0.02116 0.1493 0.0
H1573 H 0.55108 0.00954 0.14115 0.0
H1574 H 0.56173 0.05145 0.14994 0.0
H1575 H 0.52401 0.99271 0.16205 0.0
H1576 H 0.52907 0.99022 0.14494 0.0
H1577 H 0.5155 0.99346 0.14695 0.0
H1578 H 0.54664 0.05685 0.16054 0.0
H1579 H 0.53598 0.04434 0.17314 0.0
H1580 H 0.52896 0.04424 0.15656 0.0
H1581 H 0.44584 0.01435 0.15099 0.0
H1582 H 0.42122 0.99823 0.15435 0.0
H1583 H 0.43082 0.99081 0.15956 0.0
H1584 H 0.42142 0.98508 0.14326 0.0
H1585 H 0.45516 0.98259 0.13926 0.0
H1586 H 0.46812 0.02515 0.14853 0.0
H1587 H 0.47685 0.98026 0.16108 0.0
H1588 H 0.487 0.98628 0.1458 0.0
H1589 H 0.46896 0.9737 0.1441 0.0
H1590 H 0.48909 0.04114 0.15945 0.0
H1591 H 0.50219 0.03727 0.15701 0.0
H1592 H 0.49287 0.03296 0.17288 0.0
H1593 H 0.50116 0.99521 0.23877 0.0
H1594 H 0.53639 0.01048 0.20485 0.0
H1595 H 0.53864 0.01669 0.18099 0.0
H1596 H 0.50892 0.01683 0.14636 0.0
H1597 H 0.47396 0.00231 0.18065 0.0
H1598 H 0.47214 0.99722 0.20483 0.0
H1599 H 0.59665 0.05177 0.14933 0.0
H1600 H 0.59714 0.03748 0.15636 0.0
H1601 H 0.58608 0.04259 0.1638 0.0
C1602 C 0.52972 0.98269 0.7349 0.0
C1603 C 0.54057 0.99382 0.74491 0.0
C1604 C 0.53202 0.9917 0.76839 0.0
C1605 C 0.53607 0.00546 0.77206 0.0
C1606 C 0.52897 0.00832 0.78212 0.0
C1607 C 0.51757 0.99718 0.78854 0.0
C1608 C 0.51377 0.98331 0.78517 0.0
C1609 C 0.52123 0.98078 0.77527 0.0
C1610 C 0.53348 0.02324 0.78569 0.0
C1611 C 0.50158 0.97116 0.79168 0.0
C1612 C 0.42724 0.99729 0.75984 0.0
C1613 C 0.43523 0.99448 0.76971 0.0
C1614 C 0.45836 0.00497 0.77885 0.0
C1615 C 0.45609 0.9926 0.78432 0.0
C1616 C 0.46658 0.99228 0.79105 0.0
C1617 C 0.47959 0.00459 0.7925 0.0
C1618 C 0.48193 0.01706 0.78705 0.0
C1619 C 0.47126 0.01707 0.78026 0.0
C1620 C 0.46374 0.97875 0.79662 0.0
C1621 C 0.49568 0.03036 0.78848 0.0
C1622 C 0.46522 0.01146 0.88024 0.0
C1623 C 0.46149 0.99791 0.87598 0.0
C1624 C 0.47092 0.9954 0.86959 0.0
C1625 C 0.48434 0.00668 0.86751 0.0
C1626 C 0.48835 0.02018 0.87267 0.0
C1627 C 0.47872 0.02237 0.8791 0.0
C1628 C 0.46643 0.9808 0.86457 0.0
C1629 C 0.50262 0.03238 0.87079 0.0
C1630 C 0.55407 0.97451 0.86502 0.0
C1631 C 0.55589 0.98472 0.87695 0.0
C1632 C 0.5357 0.98608 0.87612 0.0
C1633 C 0.52195 0.97649 0.87327 0.0
C1634 C 0.51378 0.98057 0.86707 0.0
C1635 C 0.51949 0.99469 0.86399 0.0
C1636 C 0.53326 0.00459 0.8675 0.0
C1637 C 0.54125 0.00016 0.8735 0.0
C1638 C 0.4991 0.96975 0.86362 0.0
C1639 C 0.53953 0.01979 0.86479 0.0
C1640 C 0.50903 1.0 0.79792 0.0
C1641 C 0.49936 0.00196 0.79171 0.0
C1642 C 0.49065 0.00429 0.79976 0.0
C1643 C 0.49178 0.00502 0.81445 0.0
C1644 C 0.48344 0.00777 0.82283 0.0
C1645 C 0.48421 0.00789 0.83728 0.0
C1646 C 0.49324 0.00512 0.84391 0.0
C1647 C 0.49364 0.0046 0.85857 0.0
C1648 C 0.50251 0.00154 0.86484 0.0
C1649 C 0.51111 0.99898 0.85679 0.0
C1650 C 0.51104 0.9997 0.84211 0.0
C1651 C 0.51967 0.99739 0.83369 0.0
C1652 C 0.51928 0.99781 0.81923 0.0
C1653 C 0.51 0.00022 0.81262 0.0
C1654 C 0.50132 0.00273 0.8209 0.0
C1655 C 0.50195 0.00263 0.83566 0.0
C1656 C 0.44314 0.02012 0.87139 0.0
C1657 C 0.4431 0.00906 0.88003 0.0
O1658 O 0.53832 0.98872 0.7582 0.0
O1659 O 0.54326 0.98149 0.88164 0.0
O1660 O 0.45605 0.01431 0.88546 0.0
O1661 O 0.44844 0.00558 0.77211 0.0
H1662 H 0.53966 0.0031 0.7447 0.0
H1663 H 0.51948 0.98005 0.73831 0.0
H1664 H 0.53005 0.97309 0.73473 0.0
H1665 H 0.53131 0.98658 0.72418 0.0
H1666 H 0.54476 0.01392 0.76703 0.0
H1667 H 0.51833 0.97021 0.77245 0.0
H1668 H 0.52575 0.02527 0.78178 0.0
H1669 H 0.54341 0.03071 0.78102 0.0
H1670 H 0.5343 0.02514 0.79718 0.0
H1671 H 0.49957 0.961 0.78739 0.0
H1672 H 0.49241 0.97166 0.78992 0.0
H1673 H 0.50324 0.97169 0.80311 0.0
H1674 H 0.4299 0.98956 0.77951 0.0
H1675 H 0.4236 0.98358 0.74273 0.0
H1676 H 0.43291 0.00893 0.75895 0.0
H1677 H 0.41881 0.99672 0.76623 0.0
H1678 H 0.44617 0.98313 0.78335 0.0
H1679 H 0.47295 0.02656 0.77602 0.0
H1680 H 0.46481 0.97974 0.80815 0.0
H1681 H 0.47126 0.97634 0.79252 0.0
H1682 H 0.45336 0.96988 0.79378 0.0
H1683 H 0.49573 0.03932 0.78416 0.0
H1684 H 0.50335 0.029 0.78294 0.0
H1685 H 0.49882 0.03278 0.79964 0.0
H1686 H 0.43989 0.99985 0.87288 0.0
H1687 H 0.45121 0.98931 0.87754 0.0
H1688 H 0.48154 0.03274 0.88273 0.0
H1689 H 0.4665 0.98024 0.853 0.0
H1690 H 0.45605 0.97301 0.86808 0.0
H1691 H 0.47364 0.97803 0.86841 0.0
H1692 H 0.50437 0.04206 0.87614 0.0
H1693 H 0.50458 0.03422 0.85951 0.0
H1694 H 0.51006 0.03003 0.87491 0.0
H1695 H 0.56161 0.99536 0.87285 0.0
H1696 H 0.56413 0.9769 0.86124 0.0
H1697 H 0.54849 0.9754 0.85618 0.0
H1698 H 0.54819 0.96364 0.86848 0.0
H1699 H 0.51772 0.96569 0.87559 0.0
H1700 H 0.55176 0.00773 0.87629 0.0
H1701 H 0.49697 0.96994 0.8524 0.0
H1702 H 0.49243 0.97221 0.86972 0.0
H1703 H 0.49641 0.95909 0.86597 0.0
H1704 H 0.55005 0.02632 0.86908 0.0
H1705 H 0.53323 0.02354 0.86949 0.0
H1706 H 0.53976 0.02117 0.85339 0.0
H1707 H 0.49837 0.00133 0.78043 0.0
H1708 H 0.47619 0.00981 0.81832 0.0
H1709 H 0.47748 0.01002 0.84316 0.0
H1710 H 0.50255 0.00088 0.87608 0.0
H1711 H 0.52684 0.99521 0.83818 0.0
H1712 H 0.52618 0.99599 0.81329 0.0
H1713 H 0.43281 0.01615 0.86703 0.0
H1714 H 0.45024 0.02274 0.86258 0.0
H1715 H 0.44646 0.02976 0.87785 0.0
C1716 C 0.02788 0.57665 0.76813 0.0
C1717 C 0.01473 0.56502 0.76095 0.0
C1718 C 0.00371 0.5462 0.77753 0.0
C1719 C 0.99216 0.53862 0.7856 0.0
C1720 C 0.98987 0.52702 0.79272 0.0
C1721 C 0.99957 0.52311 0.79197 0.0
C1722 C 0.0114 0.53084 0.78398 0.0
C1723 C 0.01331 0.54224 0.77676 0.0
C1724 C 0.97704 0.51889 0.80096 0.0
C1725 C 0.02199 0.52701 0.78302 0.0
C1726 C 0.95776 0.43823 0.73611 0.0
C1727 C 0.9699 0.44134 0.74519 0.0
C1728 C 0.97213 0.45062 0.76896 0.0
C1729 C 0.98626 0.4599 0.76976 0.0
C1730 C 0.99207 0.47121 0.77947 0.0
C1731 C 0.98354 0.4733 0.78845 0.0
C1732 C 0.96933 0.4636 0.78803 0.0
C1733 C 0.96383 0.45223 0.7784 0.0
C1734 C 0.00728 0.48111 0.7799 0.0
C1735 C 0.95992 0.46551 0.79743 0.0
C1736 C 0.9926 0.44966 0.87195 0.0
C1737 C 0.00583 0.45985 0.86807 0.0
C1738 C 0.00862 0.47256 0.86309 0.0
C1739 C 0.99803 0.47517 0.86219 0.0
C1740 C 0.98493 0.4653 0.86697 0.0
C1741 C 0.98241 0.45267 0.87184 0.0
C1742 C 0.02278 0.48303 0.8584 0.0
C1743 C 0.97348 0.46789 0.86643 0.0
C1744 C 0.03777 0.58406 0.87651 0.0
C1745 C 0.02551 0.57305 0.88445 0.0
C1746 C 0.02263 0.55029 0.88126 0.0
C1747 C 0.03137 0.54575 0.87771 0.0
C1748 C 0.02663 0.53323 0.86997 0.0
C1749 C 0.01271 0.5249 0.86606 0.0
C1750 C 0.00367 0.52908 0.87036 0.0
C1751 C 0.00876 0.54181 0.87784 0.0
C1752 C 0.03654 0.52906 0.86571 0.0
C1753 C 0.98868 0.52021 0.86689 0.0
C1754 C 0.99721 0.51074 0.79924 0.0
C1755 C 0.99182 0.49823 0.79144 0.0
C1756 C 0.98937 0.48615 0.79752 0.0
C1757 C 0.99231 0.48647 0.81185 0.0
C1758 C 0.99014 0.47456 0.81827 0.0
C1759 C 0.99283 0.47494 0.83243 0.0
C1760 C 0.9978 0.48724 0.84072 0.0
C1761 C 0.00036 0.48765 0.85518 0.0
C1762 C 0.00515 0.5 0.86315 0.0
C1763 C 0.00772 0.51213 0.85702 0.0
C1764 C 0.00546 0.51197 0.84252 0.0
C1765 C 0.0083 0.52406 0.83591 0.0
C1766 C 0.00572 0.52372 0.82173 0.0
C1767 C 0.00019 0.51128 0.81359 0.0
C1768 C 0.9976 0.49906 0.81994 0.0
C1769 C 0.0003 0.49943 0.8344 0.0
C1770 C 0.98481 0.41548 0.86559 0.0
C1771 C 0.99553 0.42976 0.87192 0.0
O1772 O 0.00515 0.55721 0.7708 0.0
O1773 O 0.0278 0.56278 0.88816 0.0
O1774 O 0.98924 0.43686 0.87586 0.0
O1775 O 0.96623 0.44014 0.75908 0.0
H1776 H 0.01703 0.55825 0.75439 0.0
H1777 H 0.03235 0.57222 0.77471 0.0
H1778 H 0.02588 0.58351 0.7749 0.0
H1779 H 0.03546 0.58301 0.7602 0.0
H1780 H 0.98483 0.54174 0.78616 0.0
H1781 H 0.02236 0.548 0.77064 0.0
H1782 H 0.97165 0.50769 0.79773 0.0
H1783 H 0.97002 0.52262 0.79959 0.0
H1784 H 0.97967 0.51984 0.8122 0.0
H1785 H 0.0313 0.53494 0.7777 0.0
H1786 H 0.01769 0.51691 0.77712 0.0
H1787 H 0.02486 0.52572 0.79361 0.0
H1788 H 0.97817 0.45222 0.74312 0.0
H1789 H 0.96046 0.43909 0.72491 0.0
H1790 H 0.95479 0.44586 0.7388 0.0
H1791 H 0.94889 0.42761 0.7378 0.0
H1792 H 0.99272 0.45833 0.76276 0.0
H1793 H 0.95295 0.44486 0.7778 0.0
H1794 H 0.00983 0.49115 0.77565 0.0
H1795 H 0.0126 0.477 0.77368 0.0
H1796 H 0.01115 0.48322 0.79083 0.0
H1797 H 0.94907 0.45732 0.79544 0.0
H1798 H 0.96131 0.47583 0.7959 0.0
H1799 H 0.96246 0.46525 0.80849 0.0
H1800 H 0.00307 0.43518 0.86362 0.0
H1801 H 0.01398 0.45793 0.86884 0.0
H1802 H 0.97231 0.44486 0.87515 0.0
H1803 H 0.02255 0.48471 0.84711 0.0
H1804 H 0.03002 0.47964 0.86017 0.0
H1805 H 0.0266 0.49317 0.86408 0.0
H1806 H 0.96422 0.45973 0.87163 0.0
H1807 H 0.97087 0.46815 0.8554 0.0
H1808 H 0.97674 0.47817 0.87152 0.0
H1809 H 0.01648 0.56867 0.87736 0.0
H1810 H 0.03611 0.59236 0.87333 0.0
H1811 H 0.03924 0.5792 0.86696 0.0
H1812 H 0.04715 0.58882 0.88309 0.0
H1813 H 0.04202 0.55229 0.88066 0.0
H1814 H 0.00191 0.54509 0.88109 0.0
H1815 H 0.03592 0.52697 0.85425 0.0
H1816 H 0.03383 0.51931 0.87078 0.0
H1817 H 0.04719 0.53719 0.86867 0.0
H1818 H 0.98277 0.52386 0.8727 0.0
H1819 H 0.98464 0.50921 0.86931 0.0
H1820 H 0.98707 0.52052 0.85556 0.0
H1821 H 0.98948 0.4979 0.78046 0.0
H1822 H 0.98628 0.4648 0.81242 0.0
H1823 H 0.99089 0.46541 0.83679 0.0
H1824 H 0.00693 0.50018 0.87426 0.0
H1825 H 0.01251 0.53393 0.84164 0.0
H1826 H 0.00806 0.53333 0.81724 0.0
H1827 H 0.98958 0.40956 0.86231 0.0
H1828 H 0.98004 0.41677 0.85626 0.0
H1829 H 0.97673 0.40941 0.87322 0.0
C1830 C 0.52761 0.57726 0.74473 0.0
C1831 C 0.53795 0.58125 0.75664 0.0
C1832 C 0.52455 0.56182 0.77211 0.0
C1833 C 0.51588 0.56616 0.77701 0.0
C1834 C 0.50464 0.55754 0.7852 0.0
C1835 C 0.50202 0.54434 0.78861 0.0
C1836 C 0.51093 0.54011 0.78407 0.0
C1837 C 0.52213 0.54896 0.77593 0.0
C1838 C 0.49538 0.56241 0.78997 0.0
C1839 C 0.50843 0.52612 0.7876 0.0
C1840 C 0.41906 0.49201 0.73131 0.0
C1841 C 0.42499 0.48635 0.74129 0.0
C1842 C 0.43214 0.49476 0.76515 0.0
C1843 C 0.44117 0.49037 0.76731 0.0
C1844 C 0.4516 0.49714 0.77742 0.0
C1845 C 0.45319 0.50876 0.78526 0.0
C1846 C 0.44388 0.51303 0.78323 0.0
C1847 C 0.43324 0.5057 0.77342 0.0
C1848 C 0.46112 0.49209 0.77944 0.0
C1849 C 0.44543 0.52562 0.79099 0.0
C1850 C 0.42337 0.49638 0.87313 0.0
C1851 C 0.42997 0.48939 0.86939 0.0
C1852 C 0.44292 0.49654 0.86343 0.0
C1853 C 0.44918 0.51085 0.86086 0.0
C1854 C 0.44264 0.51795 0.86496 0.0
C1855 C 0.42991 0.51064 0.87127 0.0
C1856 C 0.44984 0.48877 0.85974 0.0
C1857 C 0.44899 0.53323 0.86251 0.0
C1858 C 0.54792 0.59454 0.87459 0.0
C1859 C 0.5402 0.58869 0.88812 0.0
C1860 C 0.52173 0.56529 0.87994 0.0
C1861 C 0.51772 0.5513 0.87889 0.0
C1862 C 0.50624 0.54151 0.87093 0.0
C1863 C 0.49847 0.54581 0.86402 0.0
C1864 C 0.50221 0.55987 0.86537 0.0
C1865 C 0.51386 0.56949 0.87321 0.0
C1866 C 0.50255 0.52661 0.8697 0.0
C1867 C 0.49399 0.56479 0.85838 0.0
C1868 C 0.48949 0.53468 0.79619 0.0
C1869 C 0.4777 0.52598 0.78826 0.0
C1870 C 0.46528 0.51717 0.79457 0.0
C1871 C 0.46453 0.51699 0.80929 0.0
C1872 C 0.4522 0.50835 0.81602 0.0
C1873 C 0.45144 0.50881 0.83049 0.0
C1874 C 0.46307 0.51763 0.83881 0.0
C1875 C 0.46235 0.5184 0.85352 0.0
C1876 C 0.47412 0.52734 0.86143 0.0
C1877 C 0.48663 0.53574 0.85507 0.0
C1878 C 0.48755 0.5351 0.84039 0.0
C1879 C 0.49997 0.5434 0.83365 0.0
C1880 C 0.50067 0.54321 0.81917 0.0
C1881 C 0.48898 0.53461 0.81089 0.0
C1882 C 0.47642 0.52582 0.81747 0.0
C1883 C 0.4757 0.52608 0.83224 0.0
C1884 C 0.38705 0.47556 0.87449 0.0
C1885 C 0.40044 0.47611 0.87579 0.0
O1886 O 0.53516 0.56953 0.76356 0.0
O1887 O 0.53324 0.57427 0.88744 0.0
O1888 O 0.41076 0.48979 0.87866 0.0
O1889 O 0.42253 0.48888 0.75488 0.0
H1890 H 0.53753 0.58874 0.76411 0.0
H1891 H 0.51719 0.57264 0.74884 0.0
H1892 H 0.52769 0.56955 0.73731 0.0
H1893 H 0.53006 0.58662 0.73902 0.0
H1894 H 0.51766 0.57616 0.77437 0.0
H1895 H 0.5289 0.54572 0.77222 0.0
H1896 H 0.48505 0.55533 0.78542 0.0
H1897 H 0.49909 0.57317 0.7869 0.0
H1898 H 0.49448 0.56202 0.80149 0.0
H1899 H 0.51661 0.52459 0.78377 0.0
H1900 H 0.49859 0.51775 0.7829 0.0
H1901 H 0.50769 0.52504 0.79907 0.0
H1902 H 0.43616 0.49212 0.73943 0.0
H1903 H 0.42098 0.49018 0.72032 0.0
H1904 H 0.42394 0.5034 0.73334 0.0
H1905 H 0.40793 0.48696 0.73276 0.0
H1906 H 0.44009 0.48169 0.76104 0.0
H1907 H 0.42613 0.50893 0.77167 0.0
H1908 H 0.46297 0.49179 0.79071 0.0
H1909 H 0.47104 0.49942 0.77468 0.0
H1910 H 0.45709 0.48158 0.7745 0.0
H1911 H 0.43874 0.52883 0.78658 0.0
H1912 H 0.45612 0.53454 0.79071 0.0
H1913 H 0.44276 0.52324 0.80207 0.0
H1914 H 0.40214 0.47236 0.86555 0.0
H1915 H 0.4251 0.47841 0.87123 0.0
H1916 H 0.42478 0.51595 0.8744 0.0
H1917 H 0.45002 0.48751 0.84824 0.0
H1918 H 0.44457 0.47829 0.86418 0.0
H1919 H 0.46055 0.49477 0.8636 0.0
H1920 H 0.44196 0.53683 0.86495 0.0
H1921 H 0.45215 0.53541 0.85149 0.0
H1922 H 0.45824 0.53939 0.8692 0.0
H1923 H 0.53291 0.59211 0.88979 0.0
H1924 H 0.5536 0.60609 0.87517 0.0
H1925 H 0.54075 0.59084 0.86557 0.0
H1926 H 0.55521 0.59115 0.87274 0.0
H1927 H 0.5238 0.54812 0.88415 0.0
H1928 H 0.51669 0.58023 0.87394 0.0
H1929 H 0.50207 0.52339 0.85854 0.0
H1930 H 0.49232 0.51972 0.87409 0.0
H1931 H 0.50996 0.52503 0.87526 0.0
H1932 H 0.49725 0.5756 0.8618 0.0
H1933 H 0.48303 0.55781 0.86065 0.0
H1934 H 0.49514 0.56443 0.84691 0.0
H1935 H 0.47816 0.52628 0.77698 0.0
H1936 H 0.44295 0.50129 0.81017 0.0
H1937 H 0.44159 0.50216 0.83505 0.0
H1938 H 0.47345 0.52807 0.87268 0.0
H1939 H 0.5093 0.55027 0.83948 0.0
H1940 H 0.51047 0.54994 0.81455 0.0
H1941 H 0.38471 0.47911 0.88446 0.0
H1942 H 0.37856 0.4648 0.87171 0.0
H1943 H 0.3878 0.48244 0.86616 0.0
C1944 C 0.6151 0.76488 0.60936 0.0
C1945 C 0.62099 0.76125 0.59675 0.0
C1946 C 0.62625 0.78015 0.58113 0.0
C1947 C 0.61272 0.77536 0.57735 0.0
C1948 C 0.60966 0.78332 0.56912 0.0
C1949 C 0.62031 0.79629 0.56454 0.0
C1950 C 0.63393 0.80098 0.56802 0.0
C1951 C 0.63671 0.7928 0.57624 0.0
C1952 C 0.59501 0.778 0.56551 0.0
C1953 C 0.64552 0.81474 0.56325 0.0
C1954 C 0.59568 0.85265 0.62141 0.0
C1955 C 0.60678 0.8579 0.61046 0.0
C1956 C 0.60356 0.84764 0.5871 0.0
C1957 C 0.61695 0.85169 0.58402 0.0
C1958 C 0.61964 0.84413 0.57404 0.0
C1959 C 0.60867 0.8321 0.56726 0.0
C1960 C 0.59513 0.8282 0.57016 0.0
C1961 C 0.59279 0.83627 0.57982 0.0
C1962 C 0.6342 0.8488 0.57103 0.0
C1963 C 0.58313 0.81525 0.56347 0.0
C1964 C 0.59261 0.84428 0.48034 0.0
C1965 C 0.60645 0.85011 0.48342 0.0
C1966 C 0.61103 0.84204 0.48899 0.0
C1967 C 0.60151 0.82794 0.49175 0.0
C1968 C 0.58766 0.8219 0.48806 0.0
C1969 C 0.58343 0.83015 0.4822 0.0
C1970 C 0.62596 0.84865 0.49223 0.0
C1971 C 0.57725 0.80686 0.49068 0.0
C1972 C 0.61185 0.74295 0.47888 0.0
C1973 C 0.61081 0.74898 0.46527 0.0
C1974 C 0.6165 0.77236 0.47349 0.0
C1975 C 0.62702 0.78633 0.47465 0.0
C1976 C 0.62554 0.79613 0.48246 0.0
C1977 C 0.6131 0.79183 0.48914 0.0
C1978 C 0.60223 0.77779 0.48769 0.0
C1979 C 0.60406 0.76817 0.47996 0.0
C1980 C 0.63733 0.81102 0.48378 0.0
C1981 C 0.58873 0.77291 0.49446 0.0
C1982 C 0.61711 0.80527 0.55678 0.0
C1983 C 0.61473 0.8144 0.56455 0.0
C1984 C 0.61134 0.82299 0.55809 0.0
C1985 C 0.61026 0.82249 0.54339 0.0
C1986 C 0.60693 0.83101 0.53651 0.0
C1987 C 0.60541 0.83007 0.52207 0.0
C1988 C 0.60749 0.82081 0.51391 0.0
C1989 C 0.60588 0.81972 0.49922 0.0
C1990 C 0.60795 0.81034 0.49146 0.0
C1991 C 0.61156 0.80193 0.49796 0.0
C1992 C 0.61328 0.80292 0.51262 0.0
C1993 C 0.61699 0.79468 0.51949 0.0
C1994 C 0.61831 0.79546 0.53395 0.0
C1995 C 0.61604 0.80458 0.54208 0.0
C1996 C 0.61253 0.81317 0.53537 0.0
C1997 C 0.61116 0.81235 0.52062 0.0
C1998 C 0.58094 0.86764 0.48281 0.0
C1999 C 0.59282 0.86581 0.47956 0.0
O2000 O 0.62968 0.77309 0.58956 0.0
O2001 O 0.61887 0.76339 0.46614 0.0
O2002 O 0.58776 0.852 0.47572 0.0
O2003 O 0.60076 0.85432 0.59729 0.0
H2004 H 0.61255 0.75353 0.5897 0.0
H2005 H 0.60893 0.76909 0.60595 0.0
H2006 H 0.62337 0.77281 0.6164 0.0
H2007 H 0.6084 0.75542 0.61527 0.0
H2008 H 0.60446 0.76554 0.58087 0.0
H2009 H 0.64711 0.79639 0.57911 0.0
H2010 H 0.5922 0.78523 0.57009 0.0
H2011 H 0.58792 0.76745 0.56939 0.0
H2012 H 0.5937 0.77765 0.55402 0.0
H2013 H 0.65559 0.81672 0.56646 0.0
H2014 H 0.64446 0.82329 0.56767 0.0
H2015 H 0.64515 0.815 0.55172 0.0
H2016 H 0.61236 0.85254 0.61217 0.0
H2017 H 0.60027 0.85536 0.63207 0.0
H2018 H 0.58894 0.84115 0.62024 0.0
H2019 H 0.58939 0.85726 0.62018 0.0
H2020 H 0.62529 0.86072 0.58948 0.0
H2021 H 0.58249 0.83332 0.58225 0.0
H2022 H 0.63568 0.84839 0.55963 0.0
H2023 H 0.63665 0.84167 0.57588 0.0
H2024 H 0.64144 0.85954 0.57525 0.0
H2025 H 0.57335 0.81273 0.56819 0.0
H2026 H 0.58428 0.80623 0.56446 0.0
H2027 H 0.58263 0.81674 0.55219 0.0
H2028 H 0.59894 0.86874 0.48941 0.0
H2029 H 0.61367 0.86097 0.48153 0.0
H2030 H 0.5728 0.82571 0.47956 0.0
H2031 H 0.62762 0.84992 0.5037 0.0
H2032 H 0.63224 0.85903 0.48769 0.0
H2033 H 0.62952 0.84184 0.48819 0.0
H2034 H 0.56677 0.80394 0.48784 0.0
H2035 H 0.57753 0.80483 0.50185 0.0
H2036 H 0.57973 0.80006 0.48449 0.0
H2037 H 0.60005 0.74563 0.46325 0.0
H2038 H 0.60551 0.7314 0.47814 0.0
H2039 H 0.60815 0.74654 0.48775 0.0
H2040 H 0.62256 0.74628 0.4811 0.0
H2041 H 0.63655 0.78949 0.46957 0.0
H2042 H 0.59574 0.75744 0.47912 0.0
H2043 H 0.63996 0.8142 0.49496 0.0
H2044 H 0.63437 0.81794 0.47934 0.0
H2045 H 0.64649 0.8126 0.47833 0.0
H2046 H 0.5809 0.762 0.49125 0.0
H2047 H 0.585 0.77974 0.49174 0.0
H2048 H 0.59003 0.77361 0.50596 0.0
H2049 H 0.61542 0.81473 0.57585 0.0
H2050 H 0.6053 0.83839 0.54223 0.0
H2051 H 0.6026 0.83673 0.5174 0.0
H2052 H 0.60657 0.80946 0.48022 0.0
H2053 H 0.61885 0.78746 0.51378 0.0
H2054 H 0.62109 0.7888 0.53868 0.0
H2055 H 0.58476 0.87866 0.4859 0.0
H2056 H 0.57504 0.86106 0.49158 0.0
H2057 H 0.57401 0.8645 0.47361 0.0
C2058 C 0.13694 0.75419 0.6275 0.0
C2059 C 0.12992 0.757 0.61582 0.0
C2060 C 0.13985 0.76133 0.59289 0.0
C2061 C 0.1374 0.77145 0.58855 0.0
C2062 C 0.14586 0.78117 0.57884 0.0
C2063 C 0.15707 0.78081 0.5735 0.0
C2064 C 0.15917 0.77019 0.57742 0.0
C2065 C 0.15034 0.76041 0.58691 0.0
C2066 C 0.1431 0.79212 0.57464 0.0
C2067 C 0.17107 0.76954 0.57205 0.0
C2068 C 0.24654 0.88267 0.60677 0.0
C2069 C 0.23857 0.86827 0.60056 0.0
C2070 C 0.21635 0.85231 0.58951 0.0
C2071 C 0.21935 0.84234 0.58492 0.0
C2072 C 0.20983 0.83043 0.57702 0.0
C2073 C 0.19714 0.82855 0.57348 0.0
C2074 C 0.19411 0.83859 0.57804 0.0
C2075 C 0.20375 0.85031 0.58606 0.0
C2076 C 0.21332 0.81985 0.57245 0.0
C2077 C 0.1807 0.83693 0.5744 0.0
C2078 C 0.22216 0.84618 0.48507 0.0
C2079 C 0.22398 0.83612 0.49096 0.0
C2080 C 0.21323 0.82472 0.49754 0.0
C2081 C 0.20042 0.82337 0.49833 0.0
C2082 C 0.19844 0.83326 0.49211 0.0
C2083 C 0.20934 0.84451 0.48551 0.0
C2084 C 0.21564 0.81427 0.50393 0.0
C2085 C 0.1849 0.8321 0.49275 0.0
C2086 C 0.11654 0.71344 0.4779 0.0
C2087 C 0.12094 0.72873 0.47772 0.0
C2088 C 0.14316 0.74946 0.48366 0.0
C2089 C 0.1565 0.75352 0.48688 0.0
C2090 C 0.1653 0.76615 0.49417 0.0
C2091 C 0.1607 0.77511 0.49797 0.0
C2092 C 0.14738 0.77137 0.49414 0.0
C2093 C 0.13869 0.7585 0.48713 0.0
C2094 C 0.17945 0.76981 0.49794 0.0
C2095 C 0.14232 0.78091 0.49756 0.0
C2096 C 0.16731 0.79234 0.56503 0.0
C2097 C 0.17699 0.80464 0.57219 0.0
C2098 C 0.187 0.81602 0.56509 0.0
C2099 C 0.18741 0.81524 0.55039 0.0
C2100 C 0.19725 0.82658 0.54292 0.0
C2101 C 0.19781 0.8256 0.52848 0.0
C2102 C 0.18855 0.81324 0.52095 0.0
C2103 C 0.18934 0.81202 0.50631 0.0
C2104 C 0.17992 0.79963 0.49911 0.0
C2105 C 0.16977 0.78825 0.50617 0.0
C2106 C 0.16889 0.78924 0.52085 0.0
C2107 C 0.1589 0.77797 0.52833 0.0
C2108 C 0.15822 0.77902 0.54278 0.0
C2109 C 0.16766 0.79127 0.55033 0.0
C2110 C 0.17778 0.80278 0.54299 0.0
C2111 C 0.17835 0.80178 0.52824 0.0
C2112 C 0.25262 0.86864 0.49336 0.0
C2113 C 0.24612 0.86232 0.47898 0.0
O2114 O 0.13248 0.75264 0.60313 0.0
O2115 O 0.13499 0.73682 0.47716 0.0
O2116 O 0.2324 0.85768 0.47904 0.0
O2117 O 0.22526 0.86395 0.59721 0.0
H2118 H 0.13446 0.76848 0.61625 0.0
H2119 H 0.14811 0.76027 0.62597 0.0
H2120 H 0.13344 0.74299 0.62752 0.0
H2121 H 0.13482 0.75741 0.6378 0.0
H2122 H 0.12899 0.77186 0.59293 0.0
H2123 H 0.15201 0.75242 0.59025 0.0
H2124 H 0.15089 0.80231 0.57955 0.0
H2125 H 0.13291 0.7897 0.57796 0.0
H2126 H 0.14382 0.79314 0.56317 0.0
H2127 H 0.17153 0.76091 0.57648 0.0
H2128 H 0.18071 0.7795 0.57467 0.0
H2129 H 0.17033 0.76809 0.56052 0.0
H2130 H 0.23943 0.86039 0.60625 0.0
H2131 H 0.24913 0.8814 0.61765 0.0
H2132 H 0.23898 0.88551 0.61022 0.0
H2133 H 0.26138 0.8937 0.5919 0.0
H2134 H 0.22906 0.84373 0.58752 0.0
H2135 H 0.20153 0.85805 0.58963 0.0
H2136 H 0.20531 0.80938 0.57581 0.0
H2137 H 0.22328 0.8224 0.57677 0.0
H2138 H 0.21369 0.81931 0.5609 0.0
H2139 H 0.18025 0.84609 0.57797 0.0
H2140 H 0.17234 0.82757 0.57933 0.0
H2141 H 0.17891 0.83532 0.56295 0.0
H2142 H 0.24739 0.85348 0.47621 0.0
H2143 H 0.23376 0.83712 0.49063 0.0
H2144 H 0.20798 0.85224 0.48087 0.0
H2145 H 0.21484 0.81483 0.51543 0.0
H2146 H 0.22581 0.81611 0.50141 0.0
H2147 H 0.20774 0.80357 0.50019 0.0
H2148 H 0.18499 0.84063 0.48737 0.0
H2149 H 0.18213 0.83235 0.50381 0.0
H2150 H 0.17689 0.82199 0.48788 0.0
H2151 H 0.11742 0.73113 0.48765 0.0
H2152 H 0.10532 0.70668 0.47867 0.0
H2153 H 0.12121 0.71176 0.48706 0.0
H2154 H 0.11984 0.71035 0.46828 0.0
H2155 H 0.15989 0.74654 0.48398 0.0
H2156 H 0.12848 0.7556 0.48429 0.0
H2157 H 0.18152 0.77265 0.50925 0.0
H2158 H 0.18698 0.77899 0.49214 0.0
H2159 H 0.18101 0.76113 0.49542 0.0
H2160 H 0.13235 0.77725 0.49247 0.0
H2161 H 0.14981 0.79158 0.49423 0.0
H2162 H 0.14121 0.78154 0.50901 0.0
H2163 H 0.17677 0.80533 0.58349 0.0
H2164 H 0.20469 0.83633 0.54816 0.0
H2165 H 0.20566 0.83466 0.52332 0.0
H2166 H 0.18068 0.79873 0.4879 0.0
H2167 H 0.15149 0.7682 0.52312 0.0
H2168 H 0.15028 0.77005 0.54798 0.0
H2169 H 0.25126 0.87735 0.49643 0.0
H2170 H 0.26366 0.87258 0.49321 0.0
H2171 H 0.2479 0.8607 0.50139 0.0
C2172 C 0.15972 0.39168 0.61564 0.0
C2173 C 0.14931 0.38687 0.60363 0.0
C2174 C 0.16076 0.38114 0.5853 0.0
C2175 C 0.17113 0.3949 0.58272 0.0
C2176 C 0.18195 0.39767 0.57396 0.0
C2177 C 0.18235 0.38648 0.56752 0.0
C2178 C 0.17169 0.37265 0.56969 0.0
C2179 C 0.16103 0.37017 0.57854 0.0
C2180 C 0.19313 0.41256 0.57179 0.0
C2181 C 0.17173 0.36048 0.56286 0.0
C2182 C 0.27919 0.40893 0.58948 0.0
C2183 C 0.26692 0.39838 0.59782 0.0
C2184 C 0.24718 0.39 0.58198 0.0
C2185 C 0.23726 0.37846 0.57409 0.0
C2186 C 0.22718 0.37893 0.56664 0.0
C2187 C 0.22713 0.39137 0.567 0.0
C2188 C 0.23714 0.40313 0.57494 0.0
C2189 C 0.24705 0.40233 0.5824 0.0
C2190 C 0.21658 0.36615 0.55839 0.0
C2191 C 0.23739 0.41655 0.57547 0.0
C2192 C 0.2574 0.41136 0.48037 0.0
C2193 C 0.24699 0.39749 0.48229 0.0
C2194 C 0.23482 0.39434 0.48869 0.0
C2195 C 0.2331 0.40529 0.49335 0.0
C2196 C 0.24335 0.41922 0.49086 0.0
C2197 C 0.25532 0.42205 0.48423 0.0
C2198 C 0.22389 0.37934 0.49071 0.0
C2199 C 0.24181 0.43114 0.49553 0.0
C2200 C 0.14562 0.40792 0.48526 0.0
C2201 C 0.15119 0.40596 0.47142 0.0
C2202 C 0.16558 0.39737 0.47911 0.0
C2203 C 0.16623 0.38549 0.47989 0.0
C2204 C 0.17699 0.38589 0.48691 0.0
C2205 C 0.18738 0.39855 0.4933 0.0
C2206 C 0.18698 0.41072 0.4923 0.0
C2207 C 0.17609 0.41003 0.48522 0.0
C2208 C 0.17715 0.37274 0.48771 0.0
C2209 C 0.19798 0.42441 0.49892 0.0
C2210 C 0.1943 0.38924 0.5592 0.0
C2211 C 0.20491 0.38935 0.56611 0.0
C2212 C 0.21657 0.39201 0.55908 0.0
C2213 C 0.21784 0.39482 0.54474 0.0
C2214 C 0.2296 0.3979 0.53744 0.0
C2215 C 0.23068 0.40045 0.52329 0.0
C2216 C 0.22 0.39991 0.51586 0.0
C2217 C 0.2209 0.40222 0.5014 0.0
C2218 C 0.21013 0.4017 0.49437 0.0
C2219 C 0.19843 0.39896 0.5014 0.0
C2220 C 0.19732 0.39658 0.51584 0.0
C2221 C 0.18566 0.39376 0.52323 0.0
C2222 C 0.18465 0.39139 0.53743 0.0
C2223 C 0.19524 0.39171 0.54479 0.0
C2224 C 0.20708 0.39453 0.53755 0.0
C2225 C 0.20813 0.39702 0.52307 0.0
C2226 C 0.29068 0.41838 0.48229 0.0
C2227 C 0.27626 0.40788 0.47689 0.0
O2228 O 0.15049 0.37792 0.59433 0.0
O2229 O 0.15459 0.39603 0.47252 0.0
O2230 O 0.26955 0.41478 0.47486 0.0
O2231 O 0.25662 0.38871 0.58887 0.0
H2232 H 0.15104 0.39608 0.59808 0.0
H2233 H 0.17025 0.39768 0.61172 0.0
H2234 H 0.15838 0.3826 0.62111 0.0
H2235 H 0.15848 0.39854 0.62325 0.0
H2236 H 0.17099 0.40355 0.58762 0.0
H2237 H 0.15295 0.3596 0.58047 0.0
H2238 H 0.20298 0.41431 0.57546 0.0
H2239 H 0.19128 0.42012 0.57741 0.0
H2240 H 0.19405 0.41461 0.5605 0.0
H2241 H 0.16226 0.35039 0.56485 0.0
H2242 H 0.18052 0.36021 0.56688 0.0
H2243 H 0.17293 0.36172 0.55143 0.0
H2244 H 0.26321 0.40396 0.60437 0.0
H2245 H 0.2875 0.41657 0.59667 0.0
H2246 H 0.27637 0.41472 0.58271 0.0
H2247 H 0.28301 0.40358 0.58276 0.0
H2248 H 0.23743 0.36901 0.57382 0.0
H2249 H 0.25465 0.4114 0.58841 0.0
H2250 H 0.21752 0.36836 0.54713 0.0
H2251 H 0.20625 0.36337 0.56159 0.0
H2252 H 0.21758 0.35707 0.55979 0.0
H2253 H 0.24619 0.42498 0.58161 0.0
H2254 H 0.22788 0.41481 0.58021 0.0
H2255 H 0.2378 0.42004 0.56473 0.0
H2256 H 0.27125 0.40014 0.48513 0.0
H2257 H 0.24836 0.38914 0.47878 0.0
H2258 H 0.26333 0.4327 0.48247 0.0
H2259 H 0.22304 0.37722 0.50198 0.0
H2260 H 0.22609 0.37203 0.48507 0.0
H2261 H 0.21391 0.37725 0.48703 0.0
H2262 H 0.25094 0.44142 0.4933 0.0
H2263 H 0.23991 0.43078 0.5069 0.0
H2264 H 0.23288 0.43014 0.49014 0.0
H2265 H 0.16033 0.41602 0.46859 0.0
H2266 H 0.14267 0.41569 0.48427 0.0
H2267 H 0.15343 0.41175 0.49369 0.0
H2268 H 0.13659 0.39792 0.48837 0.0
H2269 H 0.15813 0.37579 0.4751 0.0
H2270 H 0.17586 0.41938 0.48463 0.0
H2271 H 0.17684 0.37011 0.49878 0.0
H2272 H 0.18674 0.37439 0.4833 0.0
H2273 H 0.16843 0.36377 0.48198 0.0
H2274 H 0.19644 0.43304 0.49687 0.0
H2275 H 0.20804 0.4271 0.49488 0.0
H2276 H 0.19821 0.42346 0.51036 0.0
H2277 H 0.20404 0.38726 0.57713 0.0
H2278 H 0.23811 0.39839 0.54258 0.0
H2279 H 0.23998 0.40279 0.51824 0.0
H2280 H 0.21088 0.40348 0.48329 0.0
H2281 H 0.17717 0.39334 0.51811 0.0
H2282 H 0.17545 0.38925 0.54257 0.0
H2283 H 0.29629 0.4131 0.48399 0.0
H2284 H 0.29025 0.42323 0.49239 0.0
H2285 H 0.29634 0.42674 0.47479 0.0
H2286 H 0.01237 0.37062 0.0456 0.0
H2287 H 0.00866 0.38199 0.0656 0.0
H2288 H 0.96854 0.36814 0.04991 0.0
H2289 H 0.97217 0.35665 0.02966 0.0
H2290 H 0.98503 0.39724 0.05793 0.0
H2291 H 0.98373 0.36392 0.09925 0.0
H2292 H 0.99794 0.3696 0.08791 0.0
H2293 H 0.98094 0.35842 0.08102 0.0
C2294 C 0.0027 0.36988 0.0464 0.0
C2295 C 0.99255 0.36272 0.03604 0.0
C2296 C 0.00057 0.37632 0.0579 0.0
C2297 C 0.98826 0.37572 0.05931 0.0
C2298 C 0.97807 0.36859 0.04903 0.0
H2299 H 0.98211 0.41341 0.13826 0.0
H2300 H 0.97482 0.39725 0.11783 0.0
C2301 C 0.98015 0.36203 0.03751 0.0
C2302 C 0.98655 0.38327 0.07122 0.0
H2303 H 0.98941 0.38691 0.10666 0.0
C2304 C 0.98569 0.39484 0.06861 0.0
C2305 C 0.98721 0.37998 0.08512 0.0
C2306 C 0.98737 0.36721 0.08852 0.0
C2307 C 0.98645 0.4038 0.07956 0.0
C2308 C 0.98828 0.40115 0.09338 0.0
C2309 C 0.98815 0.38902 0.09604 0.0
C2310 C 0.99164 0.41141 0.10508 0.0
C2311 C 0.98562 0.41618 0.07618 0.0
C2312 C 0.0035 0.42469 0.10466 0.0
C2313 C 0.00765 0.43389 0.11625 0.0
C2314 C 2e-05 0.42998 0.12851 0.0
C2315 C 0.98805 0.41674 0.12886 0.0
C2316 C 0.9839 0.40753 0.11724 0.0
H2317 H 0.97976 0.41422 0.06636 0.0
H2318 H 0.9808 0.41886 0.08472 0.0
H2319 H 0.99603 0.42528 0.07473 0.0
H2320 H 0.00985 0.42774 0.09554 0.0
H2321 H 0.01706 0.44391 0.1158 0.0
H2322 H 0.65829 0.64066 0.07012 0.0
H2323 H 0.64257 0.62182 0.08494 0.0
H2324 H 0.6246 0.5944 0.04858 0.0
H2325 H 0.64013 0.61317 0.03368 0.0
H2326 H 0.60593 0.59584 0.06531 0.0
H2327 H 0.63959 0.58599 0.09687 0.0
H2328 H 0.6446 0.60392 0.09682 0.0
H2329 H 0.645 0.59529 0.08092 0.0
C2330 C 0.65117 0.63055 0.06529 0.0
C2331 C 0.65043 0.62845 0.0507 0.0
C2332 C 0.64223 0.61977 0.07379 0.0
C2333 C 0.63249 0.60668 0.06787 0.0
C2334 C 0.63208 0.60441 0.05336 0.0
H2335 H 0.57307 0.5305 0.10742 0.0
H2336 H 0.59276 0.54849 0.09496 0.0
C2337 C 0.64098 0.61517 0.04486 0.0
C2338 C 0.62186 0.59578 0.07658 0.0
H2339 H 0.6166 0.5754 0.10413 0.0
C2340 C 0.60826 0.59132 0.07375 0.0
C2341 C 0.62493 0.58987 0.08754 0.0
C2342 C 0.63931 0.5939 0.09068 0.0
C2343 C 0.59766 0.58124 0.08168 0.0
C2344 C 0.60075 0.57561 0.0929 0.0
C2345 C 0.61431 0.57987 0.09561 0.0
C2346 C 0.58989 0.56513 0.10172 0.0
C2347 C 0.58321 0.57658 0.0779 0.0
C2348 C 0.58201 0.56864 0.1099 0.0
C2349 C 0.5708 0.55842 0.11702 0.0
C2350 C 0.56738 0.54454 0.11622 0.0
C2351 C 0.57559 0.54115 0.10839 0.0
C2352 C 0.58681 0.55139 0.10126 0.0
H2353 H 0.58237 0.57951 0.06722 0.0
H2354 H 0.57638 0.56514 0.07858 0.0
H2355 H 0.57959 0.58161 0.08534 0.0
H2356 H 0.5843 0.57922 0.11046 0.0
H2357 H 0.56458 0.5613 0.12283 0.0
H2358 H 0.37889 0.99856 0.03708 0.0
H2359 H 0.3942 0.00279 0.05645 0.0
H2360 H 0.39555 0.0405 0.06834 0.0
H2361 H 0.38002 0.03629 0.04888 0.0
H2362 H 0.421 0.02673 0.06283 0.0
H2363 H 0.383 0.01694 0.10386 0.0
H2364 H 0.37807 0.01165 0.08582 0.0
H2365 H 0.38638 0.02967 0.09124 0.0
C2366 C 0.38243 0.00778 0.04377 0.0
C2367 C 0.37814 0.01704 0.0415 0.0
C2368 C 0.39123 0.01021 0.0548 0.0
C2369 C 0.3959 0.02188 0.06386 0.0
C2370 C 0.39192 0.03135 0.06152 0.0
H2371 H 0.4378 0.02839 0.14245 0.0
H2372 H 0.42916 0.03542 0.12326 0.0
C2373 C 0.38309 0.02895 0.0504 0.0
C2374 C 0.40457 0.02365 0.07594 0.0
H2375 H 0.40338 0.01927 0.11099 0.0
C2376 C 0.41727 0.02535 0.07341 0.0
C2377 C 0.39969 0.02192 0.08971 0.0
C2378 C 0.38602 0.01987 0.09292 0.0
C2379 C 0.42495 0.02472 0.08421 0.0
C2380 C 0.41966 0.02207 0.09782 0.0
C2381 C 0.40736 0.02124 0.10051 0.0
C2382 C 0.42593 0.01865 0.10904 0.0
C2383 C 0.4385 0.02653 0.08091 0.0
C2384 C 0.42683 0.00683 0.10741 0.0
C2385 C 0.4317 0.0028 0.1183 0.0
C2386 C 0.43584 0.01057 0.13103 0.0
C2387 C 0.43492 0.02239 0.13265 0.0
C2388 C 0.42998 0.02639 0.12174 0.0
H2389 H 0.44303 0.03282 0.07157 0.0
H2390 H 0.44577 0.03162 0.08982 0.0
H2391 H 0.43705 0.01616 0.07864 0.0
H2392 H 0.42337 0.00048 0.09783 0.0
H2393 H 0.43197 0.99345 0.11688 0.0
H2394 H 0.34514 0.97737 0.96813 0.0
H2395 H 0.35878 0.97475 0.95005 0.0
H2396 H 0.39437 0.01303 0.96518 0.0
H2397 H 0.38099 0.0157 0.98319 0.0
H2398 H 0.37362 0.99379 0.92922 0.0
H2399 H 0.40757 0.986 0.96243 0.0
H2400 H 0.39181 0.98373 0.96863 0.0
H2401 H 0.40689 0.00085 0.96812 0.0
C2402 C 0.3559 0.98516 0.96766 0.0
C2403 C 0.36198 0.99673 0.9771 0.0
C2404 C 0.36366 0.98364 0.95735 0.0
C2405 C 0.37761 0.99357 0.95646 0.0
C2406 C 0.38368 0.00508 0.96589 0.0
H2407 H 0.44582 0.02371 0.90452 0.0
H2408 H 0.42896 0.01781 0.92276 0.0
C2409 C 0.37597 0.00664 0.97612 0.0
C2410 C 0.38583 0.99259 0.94517 0.0
H2411 H 0.41547 0.99385 0.93936 0.0
C2412 C 0.38262 0.99351 0.93136 0.0
C2413 C 0.39755 0.99222 0.94805 0.0
C2414 C 0.4011 0.99051 0.96261 0.0
C2415 C 0.39131 0.99497 0.92042 0.0
C2416 C 0.40338 0.99528 0.92341 0.0
C2417 C 0.40624 0.99369 0.93713 0.0
C2418 C 0.41365 0.99831 0.91264 0.0
C2419 C 0.38789 0.99692 0.90589 0.0
C2420 C 0.41066 0.98919 0.90104 0.0
C2421 C 0.42027 0.99255 0.89062 0.0
C2422 C 0.43307 0.005 0.89173 0.0
C2423 C 0.4361 0.01399 0.90349 0.0
C2424 C 0.42649 0.01063 0.91388 0.0
H2425 H 0.37956 0.99899 0.90583 0.0
H2426 H 0.39696 0.00567 0.90101 0.0
H2427 H 0.38459 0.98734 0.89937 0.0
H2428 H 0.40087 0.97955 0.9 0.0
H2429 H 0.41766 0.98549 0.88162 0.0
H2430 H 0.03529 0.38143 0.96887 0.0
H2431 H 0.03899 0.3964 0.94935 0.0
H2432 H 0.00539 0.39985 0.9629 0.0
H2433 H 0.00173 0.38518 0.98228 0.0
H2434 H 0.01979 0.38969 0.92857 0.0
H2435 H 0.03372 0.43983 0.95454 0.0
H2436 H 0.03492 0.4267 0.96328 0.0
H2437 H 0.01893 0.42568 0.9622 0.0
C2438 C 0.0289 0.38564 0.96782 0.0
C2439 C 0.01819 0.38208 0.97707 0.0
C2440 C 0.03101 0.39417 0.95668 0.0
C2441 C 0.02261 0.39943 0.95481 0.0
C2442 C 0.01222 0.39622 0.96432 0.0
H2443 H 0.98598 0.42359 0.8986 0.0
H2444 H 0.99579 0.41841 0.9181 0.0
C2445 C 0.01006 0.38768 0.97533 0.0
C2446 C 0.02341 0.40688 0.94217 0.0
H2447 H 0.02236 0.43472 0.93188 0.0
C2448 C 0.02075 0.39973 0.92918 0.0
C2449 C 0.02468 0.41999 0.94302 0.0
C2450 C 0.02837 0.42855 0.95651 0.0
C2451 C 0.01818 0.40478 0.91724 0.0
C2452 C 0.01846 0.41738 0.91834 0.0
C2453 C 0.02205 0.42501 0.93111 0.0
C2454 C 0.01348 0.42191 0.90684 0.0
C2455 C 0.01423 0.39612 0.90379 0.0
C2456 C 0.02032 0.42585 0.89415 0.0
C2457 C 0.01474 0.42885 0.88299 0.0
C2458 C 0.00231 0.42809 0.88442 0.0
C2459 C 0.99567 0.42447 0.89727 0.0
C2460 C 0.00126 0.4215 0.9084 0.0
H2461 H 0.0127 0.38572 0.90519 0.0
H2462 H 0.00472 0.39467 0.89938 0.0
H2463 H 0.02236 0.40159 0.89606 0.0
H2464 H 0.02982 0.42632 0.89279 0.0
H2465 H 0.01998 0.43147 0.87315 0.0
H2466 H 0.64038 0.65309 0.97783 0.0
H2467 H 0.62388 0.64588 0.95868 0.0
H2468 H 0.5948 0.61008 0.9812 0.0
H2469 H 0.61105 0.61739 0.0005 0.0
H2470 H 0.61254 0.6226 0.94237 0.0
H2471 H 0.57196 0.62524 0.96999 0.0
H2472 H 0.58883 0.63281 0.97732 0.0
H2473 H 0.57652 0.61449 0.97852 0.0
C2474 C 0.63042 0.64377 0.97877 0.0
C2475 C 0.62701 0.63585 0.99072 0.0
C2476 C 0.62101 0.63965 0.96781 0.0
C2477 C 0.60802 0.62756 0.96859 0.0
C2478 C 0.60461 0.61964 0.98051 0.0
H2479 H 0.55474 0.5782 0.89917 0.0
H2480 H 0.57124 0.58803 0.9185 0.0
C2481 C 0.61397 0.62379 0.99151 0.0
C2482 C 0.59829 0.62282 0.95667 0.0
H2483 H 0.56573 0.61261 0.94798 0.0
C2484 C 0.60234 0.62053 0.94356 0.0
C2485 C 0.58505 0.62032 0.95818 0.0
C2486 C 0.58037 0.62348 0.97173 0.0
C2487 C 0.59342 0.61545 0.93201 0.0
C2488 C 0.57994 0.61222 0.93371 0.0
C2489 C 0.576 0.61489 0.94672 0.0
C2490 C 0.56976 0.6061 0.92213 0.0
C2491 C 0.59859 0.61379 0.91807 0.0
C2492 C 0.56311 0.61275 0.91804 0.0
C2493 C 0.55344 0.60699 0.90721 0.0
C2494 C 0.55014 0.59439 0.90034 0.0
C2495 C 0.55688 0.58778 0.90442 0.0
C2496 C 0.56645 0.59349 0.91534 0.0
H2497 H 0.60984 0.6206 0.91758 0.0
H2498 H 0.59585 0.60286 0.91647 0.0
H2499 H 0.59404 0.61625 0.90941 0.0
H2500 H 0.5655 0.6225 0.92312 0.0
H2501 H 0.5486 0.61242 0.9041 0.0
H2502 H 0.02303 0.63418 0.00063 0.0
H2503 H 0.02657 0.62177 0.98131 0.0
H2504 H 0.00379 0.63136 0.95375 0.0
H2505 H 0.00019 0.64378 0.97295 0.0
H2506 H 0.99556 0.60216 0.95407 0.0
H2507 H 0.05101 0.63825 0.94633 0.0
H2508 H 0.04569 0.63342 0.96394 0.0
H2509 H 0.04068 0.64367 0.95512 0.0
C2510 C 0.01889 0.63378 0.99043 0.0
C2511 C 0.01133 0.63997 0.98834 0.0
C2512 C 0.02096 0.62672 0.9794 0.0
C2513 C 0.01551 0.62574 0.96611 0.0
C2514 C 0.0081 0.63204 0.96394 0.0
H2515 H 0.00895 0.58331 0.88688 0.0
H2516 H 0.00633 0.59564 0.90691 0.0
C2517 C 0.00609 0.63916 0.97493 0.0
C2518 C 0.01698 0.61761 0.9546 0.0
H2519 H 0.04018 0.61704 0.93304 0.0
C2520 C 0.0053 0.6054 0.94944 0.0
C2521 C 0.02972 0.62184 0.94869 0.0
C2522 C 0.04252 0.63506 0.95369 0.0
C2523 C 0.00602 0.5972 0.93856 0.0
C2524 C 0.01873 0.60155 0.93246 0.0
C2525 C 0.03044 0.61372 0.93772 0.0
C2526 C 0.02008 0.59378 0.92043 0.0
C2527 C 0.99318 0.58384 0.93391 0.0
C2528 C 0.02897 0.58899 0.92122 0.0
C2529 C 0.03057 0.58206 0.90973 0.0
C2530 C 0.02321 0.57969 0.89727 0.0
C2531 C 0.01445 0.58466 0.89647 0.0
C2532 C 0.01292 0.59166 0.90792 0.0
H2533 H 0.98542 0.57995 0.94219 0.0
H2534 H 0.98879 0.58575 0.92468 0.0
H2535 H 0.99527 0.57561 0.93097 0.0
H2536 H 0.03473 0.59068 0.93071 0.0
H2537 H 0.03767 0.57868 0.91054 0.0
H2538 H 0.39016 0.39259 0.97168 0.0
H2539 H 0.39826 0.41099 0.95496 0.0
H2540 H 0.35745 0.402 0.94978 0.0
H2541 H 0.34939 0.38398 0.96689 0.0
H2542 H 0.3926 0.41006 0.92843 0.0
H2543 H 0.37757 0.44317 0.95639 0.0
H2544 H 0.37722 0.42892 0.96446 0.0
H2545 H 0.3633 0.42579 0.95343 0.0
C2546 C 0.38293 0.39461 0.96705 0.0
C2547 C 0.36915 0.38691 0.97068 0.0
C2548 C 0.38757 0.40512 0.95749 0.0
C2549 C 0.37853 0.40809 0.9513 0.0
C2550 C 0.36471 0.40022 0.95473 0.0
H2551 H 0.38882 0.44806 0.87369 0.0
H2552 H 0.38466 0.43208 0.89213 0.0
C2553 C 0.36009 0.38984 0.96444 0.0
C2554 C 0.38344 0.41904 0.94089 0.0
H2555 H 0.38276 0.44751 0.93222 0.0
C2556 C 0.39058 0.41834 0.92934 0.0
C2557 C 0.38107 0.43003 0.94219 0.0
C2558 C 0.37451 0.43212 0.95487 0.0
C2559 C 0.39501 0.42805 0.91885 0.0
C2560 C 0.39182 0.43847 0.91968 0.0
C2561 C 0.38507 0.43943 0.93146 0.0
C2562 C 0.395 0.44824 0.90833 0.0
C2563 C 0.40321 0.42709 0.90709 0.0
C2564 C 0.40183 0.46264 0.91132 0.0
C2565 C 0.40393 0.47176 0.90084 0.0
C2566 C 0.39942 0.46666 0.88709 0.0
C2567 C 0.39268 0.45227 0.88412 0.0
C2568 C 0.39038 0.44315 0.89464 0.0
H2569 H 0.40874 0.42213 0.91043 0.0
H2570 H 0.39625 0.42054 0.89837 0.0
H2571 H 0.41071 0.4375 0.9032 0.0
H2572 H 0.40537 0.46681 0.92183 0.0
H2573 H 0.40889 0.48275 0.90356 0.0
H2574 H 0.64774 0.01016 0.96302 0.0
H2575 H 0.63094 0.00474 0.94481 0.0
H2576 H 0.60192 0.96726 0.96511 0.0
H2577 H 0.61872 0.97269 0.98361 0.0
H2578 H 0.61664 0.98084 0.92659 0.0
H2579 H 0.58208 0.98834 0.96106 0.0
H2580 H 0.59935 0.99441 0.96615 0.0
H2581 H 0.58649 0.97623 0.96647 0.0
C2582 C 0.63781 0.00073 0.96364 0.0
C2583 C 0.63454 0.9919 0.97483 0.0
C2584 C 0.62823 0.99764 0.95319 0.0
C2585 C 0.61515 0.98571 0.95371 0.0
C2586 C 0.61191 0.97664 0.96465 0.0
H2587 H 0.54727 0.96506 0.89698 0.0
H2588 H 0.56089 0.96364 0.91552 0.0
C2589 C 0.62154 0.97971 0.97515 0.0
C2590 C 0.60499 0.98308 0.94283 0.0
H2591 H 0.57617 0.98342 0.93725 0.0
C2592 C 0.60772 0.98126 0.92893 0.0
C2593 C 0.59333 0.98359 0.94594 0.0
C2594 C 0.59011 0.98584 0.96069 0.0
C2595 C 0.59928 0.98028 0.91798 0.0
C2596 C 0.58796 0.9814 0.92103 0.0
C2597 C 0.5849 0.98263 0.93497 0.0
C2598 C 0.57968 0.98216 0.90986 0.0
C2599 C 0.60262 0.97817 0.90324 0.0
C2600 C 0.58572 0.99316 0.90071 0.0
C2601 C 0.57799 0.99403 0.89021 0.0
C2602 C 0.56402 0.98402 0.88877 0.0
C2603 C 0.55798 0.97303 0.89799 0.0
C2604 C 0.56573 0.97217 0.90852 0.0
H2605 H 0.60891 0.97346 0.90296 0.0
H2606 H 0.59323 0.9714 0.89689 0.0
H2607 H 0.6085 0.9884 0.89835 0.0
H2608 H 0.59643 0.00111 0.90172 0.0
H2609 H 0.58293 0.00252 0.88317 0.0
H2610 H 0.64632 0.00738 0.05339 0.0
H2611 H 0.63539 0.01208 0.07279 0.0
H2612 H 0.61429 0.02254 0.04385 0.0
H2613 H 0.6251 0.01778 0.02433 0.0
H2614 H 0.63553 0.03677 0.08034 0.0
H2615 H 0.58374 0.99157 0.06718 0.0
H2616 H 0.59891 0.99325 0.05997 0.0
H2617 H 0.59237 0.00314 0.05328 0.0
C2618 C 0.6394 0.01074 0.05113 0.0
C2619 C 0.6365 0.01211 0.0373 0.0
C2620 C 0.63318 0.01343 0.06224 0.0
C2621 C 0.6239 0.01745 0.05972 0.0
C2622 C 0.62127 0.01922 0.04597 0.0
H2623 H 0.5911 0.04902 0.12247 0.0
H2624 H 0.60182 0.04597 0.10169 0.0
C2625 C 0.62751 0.01656 0.03485 0.0
C2626 C 0.61685 0.0196 0.07151 0.0
H2627 H 0.58562 0.00665 0.08594 0.0
C2628 C 0.62462 0.03023 0.08156 0.0
C2629 C 0.60263 0.01092 0.07311 0.0
C2630 C 0.59389 0.99899 0.0629 0.0
C2631 C 0.61852 0.03246 0.09318 0.0
C2632 C 0.60428 0.02392 0.09468 0.0
C2633 C 0.59652 0.01325 0.08466 0.0
C2634 C 0.59732 0.02558 0.10686 0.0
C2635 C 0.62738 0.04373 0.10395 0.0
C2636 C 0.59097 0.01498 0.11641 0.0
C2637 C 0.58482 0.01668 0.12822 0.0
C2638 C 0.58478 0.02894 0.13058 0.0
C2639 C 0.59093 0.03944 0.12084 0.0
C2640 C 0.59711 0.03775 0.10905 0.0
H2641 H 0.63829 0.04737 0.10277 0.0
H2642 H 0.62627 0.05275 0.10277 0.0
H2643 H 0.62424 0.03997 0.11465 0.0
H2644 H 0.59102 0.00551 0.11486 0.0
H2645 H 0.58026 0.00848 0.13561 0.0
H2646 H 0.97415 0.62 0.03724 0.0
H2647 H 0.9691 0.6018 0.05347 0.0
H2648 H 0.99661 0.63295 0.08391 0.0
H2649 H 0.0018 0.6512 0.06779 0.0
H2650 H 0.00096 0.61081 0.07826 0.0
H2651 H 0.94688 0.5915 0.08974 0.0
H2652 H 0.95109 0.59258 0.07159 0.0
H2653 H 0.95815 0.60821 0.0824 0.0
C2654 C 0.979 0.623 0.04745 0.0
C2655 C 0.98839 0.63705 0.05122 0.0
C2656 C 0.97606 0.61259 0.05672 0.0
C2657 C 0.98241 0.61606 0.06991 0.0
C2658 C 0.99159 0.63008 0.07378 0.0
H2659 H 0.98584 0.57332 0.14058 0.0
H2660 H 0.98949 0.59011 0.12318 0.0
C2661 C 0.99452 0.64049 0.06455 0.0
C2662 C 0.9801 0.60509 0.07942 0.0
H2663 H 0.95601 0.57911 0.09898 0.0
C2664 C 0.99114 0.60388 0.08281 0.0
C2665 C 0.96726 0.59603 0.08522 0.0
C2666 C 0.95516 0.59715 0.08218 0.0
C2667 C 0.98968 0.59379 0.09186 0.0
C2668 C 0.9769 0.58488 0.09789 0.0
C2669 C 0.9658 0.58597 0.09434 0.0
C2670 C 0.97493 0.57465 0.10823 0.0
C2671 C 0.0018 0.59265 0.09474 0.0
C2672 C 0.96531 0.56043 0.10573 0.0
C2673 C 0.96317 0.55084 0.11569 0.0
C2674 C 0.97066 0.55531 0.1283 0.0
C2675 C 0.98017 0.56956 0.13082 0.0
C2676 C 0.98228 0.57915 0.12088 0.0
H2677 H 0.00947 0.59728 0.08641 0.0
H2678 H 0.00675 0.59838 0.10471 0.0
H2679 H 0.9987 0.58164 0.09569 0.0
H2680 H 0.95943 0.55678 0.09609 0.0
H2681 H 0.95556 0.53994 0.11361 0.0
H2682 H 0.39241 0.39797 0.02534 0.0
H2683 H 0.40866 0.40334 0.04429 0.0
H2684 H 0.38463 0.36082 0.05672 0.0
H2685 H 0.36869 0.35526 0.03746 0.0
H2686 H 0.40541 0.40279 0.07124 0.0
H2687 H 0.42134 0.36605 0.05667 0.0
H2688 H 0.41157 0.36962 0.045 0.0
H2689 H 0.40327 0.35716 0.05835 0.0
C2690 C 0.39068 0.38973 0.03203 0.0
C2691 C 0.37932 0.37617 0.02987 0.0
C2692 C 0.39997 0.39282 0.04286 0.0
C2693 C 0.39803 0.38244 0.05181 0.0
C2694 C 0.38661 0.36891 0.04972 0.0
H2695 H 0.42782 0.39336 0.13609 0.0
H2696 H 0.41568 0.39147 0.11459 0.0
C2697 C 0.37744 0.36577 0.03875 0.0
C2698 C 0.40753 0.38592 0.06375 0.0
H2699 H 0.42625 0.37535 0.08027 0.0
C2700 C 0.41009 0.39689 0.07312 0.0
C2701 C 0.41388 0.37842 0.0661 0.0
C2702 C 0.41249 0.36726 0.0559 0.0
C2703 C 0.41841 0.40024 0.085 0.0
C2704 C 0.42399 0.39212 0.08783 0.0
C2705 C 0.42183 0.38147 0.07821 0.0
C2706 C 0.43173 0.39416 0.10089 0.0
C2707 C 0.42121 0.41253 0.0943 0.0
C2708 C 0.44466 0.39597 0.10037 0.0
C2709 C 0.45152 0.39684 0.11265 0.0
C2710 C 0.44563 0.39608 0.1257 0.0
C2711 C 0.43273 0.39434 0.12619 0.0
C2712 C 0.42582 0.39333 0.11391 0.0
H2713 H 0.42026 0.42022 0.08843 0.0
H2714 H 0.41365 0.40888 0.10276 0.0
H2715 H 0.43154 0.41785 0.0991 0.0
H2716 H 0.44936 0.39649 0.09044 0.0
H2717 H 0.4613 0.39784 0.11193 0.0
H2718 H 0.64888 0.68695 0.37684 0.0
H2719 H 0.6385 0.69333 0.39548 0.0
H2720 H 0.64792 0.72992 0.3738 0.0
H2721 H 0.65799 0.72344 0.35498 0.0
H2722 H 0.65041 0.71611 0.41255 0.0
H2723 H 0.60862 0.71421 0.38317 0.0
H2724 H 0.61806 0.70691 0.37616 0.0
H2725 H 0.62484 0.72527 0.37543 0.0
C2726 C 0.64859 0.69626 0.37595 0.0
C2727 C 0.65422 0.70466 0.3644 0.0
C2728 C 0.64267 0.6999 0.38663 0.0
C2729 C 0.64225 0.71199 0.38595 0.0
C2730 C 0.64781 0.72036 0.37439 0.0
H2731 H 0.63675 0.75953 0.45526 0.0
H2732 H 0.64389 0.75003 0.43621 0.0
C2733 C 0.65365 0.71668 0.36367 0.0
C2734 C 0.63672 0.7163 0.39768 0.0
H2735 H 0.61428 0.72619 0.40554 0.0
C2736 C 0.64242 0.71819 0.41104 0.0
C2737 C 0.62615 0.7188 0.39576 0.0
C2738 C 0.61896 0.71605 0.38188 0.0
C2739 C 0.63813 0.72291 0.42246 0.0
C2740 C 0.6281 0.72618 0.42037 0.0
C2741 C 0.6221 0.72388 0.4071 0.0
C2742 C 0.62375 0.73208 0.43179 0.0
C2743 C 0.64427 0.72418 0.43666 0.0
C2744 C 0.60999 0.72539 0.43535 0.0
C2745 C 0.60584 0.73098 0.44602 0.0
C2746 C 0.61535 0.74343 0.45326 0.0
C2747 C 0.62914 0.75006 0.44972 0.0
C2748 C 0.63326 0.74454 0.43896 0.0
H2749 H 0.64835 0.71731 0.43728 0.0
H2750 H 0.65285 0.73505 0.43865 0.0
H2751 H 0.63671 0.72153 0.445 0.0
H2752 H 0.60247 0.71577 0.42996 0.0
H2753 H 0.59519 0.72553 0.44871 0.0
H2754 H 0.32698 0.96359 0.40062 0.0
H2755 H 0.31556 0.94542 0.41758 0.0
H2756 H 0.27706 0.93053 0.397 0.0
H2757 H 0.28837 0.9485 0.3799 0.0
H2758 H 0.29494 0.94047 0.43591 0.0
H2759 H 0.27838 0.89535 0.39896 0.0
H2760 H 0.29097 0.91295 0.39462 0.0
H2761 H 0.27319 0.9069 0.39382 0.0
C2762 C 0.31609 0.95642 0.39967 0.0
C2763 C 0.3086 0.95744 0.38886 0.0
C2764 C 0.30959 0.94606 0.40938 0.0
C2765 C 0.29551 0.9365 0.40841 0.0
C2766 C 0.28798 0.93762 0.39776 0.0
H2767 H 0.24226 0.88346 0.47259 0.0
H2768 H 0.25444 0.90149 0.45562 0.0
C2769 C 0.29446 0.94796 0.38804 0.0
C2770 C 0.28865 0.92552 0.41869 0.0
H2771 H 0.269 0.89032 0.42165 0.0
C2772 C 0.28931 0.9295 0.43282 0.0
C2773 C 0.28148 0.91122 0.41463 0.0
C2774 C 0.28104 0.90631 0.3997 0.0
C2775 C 0.28275 0.91956 0.44299 0.0
C2776 C 0.27513 0.90528 0.43886 0.0
C2777 C 0.27472 0.90129 0.42476 0.0
C2778 C 0.2676 0.89428 0.44901 0.0
C2779 C 0.28418 0.92444 0.45809 0.0
C2780 C 0.27073 0.88406 0.45066 0.0
C2781 C 0.26366 0.87366 0.4602 0.0
C2782 C 0.25322 0.87318 0.46814 0.0
C2783 C 0.25011 0.88344 0.46646 0.0
C2784 C 0.25716 0.89382 0.45689 0.0
H2785 H 0.29317 0.93514 0.45987 0.0
H2786 H 0.27501 0.92454 0.46115 0.0
H2787 H 0.28514 0.91736 0.46497 0.0
H2788 H 0.27876 0.88423 0.44468 0.0
H2789 H 0.26642 0.86602 0.46146 0.0
H2790 H 0.06342 0.35123 0.37047 0.0
H2791 H 0.08156 0.35981 0.38802 0.0
H2792 H 0.07002 0.38743 0.40583 0.0
H2793 H 0.05169 0.37878 0.38842 0.0
H2794 H 0.10358 0.38672 0.39365 0.0
H2795 H 0.06993 0.36615 0.43937 0.0
H2796 H 0.06371 0.36066 0.42167 0.0
H2797 H 0.06699 0.37704 0.42882 0.0
C2798 C 0.06471 0.35912 0.37812 0.0
C2799 C 0.05604 0.36426 0.3781 0.0
C2800 C 0.0751 0.36402 0.38813 0.0
C2801 C 0.077 0.3741 0.39833 0.0
C2802 C 0.06854 0.37945 0.3982 0.0
H2803 H 0.14867 0.42198 0.45249 0.0
H2804 H 0.13088 0.41464 0.43464 0.0
C2805 C 0.05813 0.37454 0.3882 0.0
C2806 C 0.0879 0.37904 0.40904 0.0
H2807 H 0.09357 0.38058 0.44409 0.0
C2808 C 0.10141 0.38539 0.40469 0.0
C2809 C 0.085 0.37712 0.4234 0.0
C2810 C 0.07062 0.36976 0.42863 0.0
C2811 C 0.11214 0.38997 0.41433 0.0
C2812 C 0.10927 0.38834 0.42872 0.0
C2813 C 0.09575 0.38192 0.43306 0.0
C2814 C 0.1201 0.39287 0.43943 0.0
C2815 C 0.1264 0.3962 0.40899 0.0
C2816 C 0.11972 0.38314 0.44829 0.0
C2817 C 0.1298 0.38731 0.45853 0.0
C2818 C 0.14052 0.40131 0.46003 0.0
C2819 C 0.14072 0.41108 0.45132 0.0
C2820 C 0.1306 0.4069 0.44111 0.0
H2821 H 0.12644 0.39346 0.39776 0.0
H2822 H 0.13188 0.4077 0.41024 0.0
H2823 H 0.13208 0.39265 0.41497 0.0
H2824 H 0.11163 0.37228 0.44727 0.0
H2825 H 0.12919 0.37961 0.46531 0.0
H2826 H 0.06616 0.34719 0.30993 0.0
H2827 H 0.07145 0.33557 0.29133 0.0
H2828 H 0.031 0.29924 0.29344 0.0
H2829 H 0.02555 0.31082 0.31204 0.0
H2830 H 0.07008 0.30967 0.29248 0.0
H2831 H 0.03596 0.30889 0.25158 0.0
H2832 H 0.04094 0.32011 0.26711 0.0
H2833 H 0.02823 0.30193 0.26799 0.0
C2834 C 0.05836 0.33674 0.30643 0.0
C2835 C 0.04542 0.32994 0.31244 0.0
C2836 C 0.06141 0.33012 0.29582 0.0
C2837 C 0.05157 0.31662 0.29094 0.0
C2838 C 0.03866 0.30975 0.29694 0.0
H2839 H 0.06751 0.26274 0.23785 0.0
H2840 H 0.06 0.27215 0.25675 0.0
C2841 C 0.0356 0.31635 0.30761 0.0
C2842 C 0.05497 0.30974 0.27971 0.0
H2843 H 0.04779 0.29775 0.24576 0.0
C2844 C 0.06518 0.307 0.28228 0.0
C2845 C 0.04861 0.3064 0.2664 0.0
C2846 C 0.03789 0.30955 0.26299 0.0
C2847 C 0.06924 0.30101 0.27185 0.0
C2848 C 0.06283 0.29759 0.25858 0.0
C2849 C 0.0526 0.30031 0.256 0.0
C2850 C 0.06699 0.29168 0.24706 0.0
C2851 C 0.0806 0.29872 0.27499 0.0
C2852 C 0.07313 0.29944 0.23527 0.0
C2853 C 0.07744 0.29412 0.22451 0.0
C2854 C 0.07566 0.28091 0.22534 0.0
C2855 C 0.0692 0.27302 0.23703 0.0
C2856 C 0.06493 0.27838 0.24782 0.0
H2857 H 0.08623 0.30439 0.28475 0.0
H2858 H 0.07628 0.28745 0.27622 0.0
H2859 H 0.08789 0.30212 0.26628 0.0
H2860 H 0.07474 0.3097 0.23448 0.0
H2861 H 0.08225 0.30035 0.21554 0.0
H2862 H 0.68795 0.72618 0.32032 0.0
H2863 H 0.69434 0.74437 0.30375 0.0
H2864 H 0.7047 0.72236 0.27372 0.0
H2865 H 0.69798 0.70389 0.29013 0.0
H2866 H 0.71804 0.76176 0.29121 0.0
H2867 H 0.67862 0.72788 0.25141 0.0
H2868 H 0.67858 0.72235 0.26877 0.0
H2869 H 0.6896 0.72189 0.2558 0.0
C2870 C 0.69162 0.7252 0.3102 0.0
C2871 C 0.69236 0.71351 0.3065 0.0
C2872 C 0.69527 0.73562 0.30074 0.0
C2873 C 0.69975 0.7346 0.2874 0.0
C2874 C 0.70094 0.72319 0.28383 0.0
H2875 H 0.74024 0.80267 0.23072 0.0
H2876 H 0.73473 0.78493 0.24768 0.0
C2877 C 0.69719 0.71269 0.29326 0.0
C2878 C 0.70314 0.74551 0.27729 0.0
H2879 H 0.69506 0.75079 0.24496 0.0
C2880 C 0.713 0.75938 0.28111 0.0
C2881 C 0.6964 0.74241 0.2642 0.0
C2882 C 0.68512 0.72785 0.25983 0.0
C2883 C 0.71641 0.77021 0.27215 0.0
C2884 C 0.71001 0.76705 0.25886 0.0
C2885 C 0.70005 0.7532 0.2551 0.0
C2886 C 0.71341 0.77794 0.24872 0.0
C2887 C 0.7266 0.78496 0.27715 0.0
C2888 C 0.70319 0.77962 0.24332 0.0
C2889 C 0.70629 0.78964 0.23351 0.0
C2890 C 0.71973 0.7983 0.22904 0.0
C2891 C 0.72989 0.79643 0.2343 0.0
C2892 C 0.72676 0.78633 0.24401 0.0
H2893 H 0.72745 0.78597 0.28871 0.0
H2894 H 0.73675 0.78812 0.27304 0.0
H2895 H 0.72381 0.79228 0.27344 0.0
H2896 H 0.69278 0.77313 0.24667 0.0
H2897 H 0.69817 0.79056 0.22936 0.0
H2898 H 0.27831 0.94255 0.32222 0.0
H2899 H 0.26173 0.93715 0.30367 0.0
H2900 H 0.27465 0.98041 0.30308 0.0
H2901 H 0.29138 0.98597 0.32164 0.0
H2902 H 0.24015 0.94228 0.30364 0.0
H2903 H 0.27768 0.96954 0.26198 0.0
H2904 H 0.28214 0.96512 0.27809 0.0
H2905 H 0.28005 0.97967 0.27778 0.0
C2906 C 0.27765 0.95094 0.31816 0.0
C2907 C 0.28621 0.96471 0.32336 0.0
C2908 C 0.26815 0.94782 0.30758 0.0
C2909 C 0.26708 0.9584 0.30193 0.0
C2910 C 0.27547 0.97213 0.30719 0.0
H2911 H 0.20061 0.94407 0.24712 0.0
H2912 H 0.21722 0.95192 0.26633 0.0
C2913 C 0.28497 0.97527 0.31782 0.0
C2914 C 0.25713 0.95495 0.29054 0.0
H2915 H 0.25451 0.95939 0.256 0.0
C2916 C 0.24326 0.94606 0.29323 0.0
C2917 C 0.26128 0.95981 0.27697 0.0
C2918 C 0.27609 0.96898 0.27342 0.0
C2919 C 0.23338 0.94184 0.28267 0.0
C2920 C 0.23752 0.94678 0.26911 0.0
C2921 C 0.25139 0.95571 0.26643 0.0
C2922 C 0.22762 0.94234 0.25743 0.0
C2923 C 0.21865 0.93183 0.28599 0.0
C2924 C 0.22821 0.93468 0.24594 0.0
C2925 C 0.21877 0.93022 0.23498 0.0
C2926 C 0.20854 0.93331 0.23534 0.0
C2927 C 0.2082 0.9413 0.24672 0.0
C2928 C 0.21765 0.94576 0.25768 0.0
H2929 H 0.21748 0.9267 0.29598 0.0
H2930 H 0.21337 0.93758 0.28691 0.0
H2931 H 0.21352 0.92367 0.27754 0.0
H2932 H 0.2359 0.93205 0.24551 0.0
H2933 H 0.21943 0.92431 0.22622 0.0
H2934 H 0.68166 0.97588 0.30988 0.0
H2935 H 0.69117 0.97008 0.28998 0.0
H2936 H 0.70688 0.9525 0.3174 0.0
H2937 H 0.69712 0.95801 0.33741 0.0
H2938 H 0.71748 0.97868 0.2845 0.0
H2939 H 0.68648 0.92122 0.28811 0.0
H2940 H 0.68254 0.9326 0.29771 0.0
H2941 H 0.69587 0.9304 0.30374 0.0
C2942 C 0.68712 0.97076 0.31171 0.0
C2943 C 0.68857 0.96734 0.32524 0.0
C2944 C 0.69255 0.96745 0.30031 0.0
C2945 C 0.69953 0.96065 0.30217 0.0
C2946 C 0.70124 0.95745 0.31568 0.0
H2947 H 0.74716 0.94489 0.24244 0.0
H2948 H 0.73739 0.94823 0.26387 0.0
C2949 C 0.69574 0.9607 0.32712 0.0
C2950 C 0.70524 0.95721 0.28994 0.0
H2951 H 0.7039 0.93024 0.27127 0.0
C2952 C 0.71451 0.96809 0.28163 0.0
C2953 C 0.7013 0.94337 0.28616 0.0
C2954 C 0.69091 0.9312 0.2943 0.0
C2955 C 0.71996 0.96549 0.26967 0.0
C2956 C 0.71604 0.9517 0.26596 0.0
C2957 C 0.70688 0.94081 0.27426 0.0
C2958 C 0.72119 0.94846 0.25321 0.0
C2959 C 0.72983 0.97746 0.26099 0.0
C2960 C 0.71516 0.94733 0.24024 0.0
C2961 C 0.72063 0.94533 0.22803 0.0
C2962 C 0.73219 0.94438 0.22862 0.0
C2963 C 0.73809 0.94532 0.2417 0.0
C2964 C 0.73257 0.94726 0.25391 0.0
H2965 H 0.73261 0.98769 0.26585 0.0
H2966 H 0.73922 0.97729 0.25944 0.0
H2967 H 0.72523 0.97633 0.25054 0.0
H2968 H 0.70641 0.94832 0.23955 0.0
H2969 H 0.71604 0.94487 0.21809 0.0
H2970 H 0.01754 0.73145 0.31493 0.0
H2971 H 0.02427 0.74756 0.29595 0.0
H2972 H 0.06052 0.74649 0.29005 0.0
H2973 H 0.05398 0.7305 0.30904 0.0
H2974 H 0.06486 0.77356 0.2896 0.0
H2975 H 0.02235 0.73544 0.25445 0.0
H2976 H 0.01736 0.73837 0.27134 0.0
H2977 H 0.02718 0.73041 0.26988 0.0
C2978 C 0.02698 0.73469 0.30964 0.0
C2979 C 0.03518 0.72961 0.31343 0.0
C2980 C 0.03077 0.74385 0.29877 0.0
C2981 C 0.04279 0.74804 0.29148 0.0
C2982 C 0.05118 0.74332 0.29551 0.0
H2983 H 0.06402 0.7828 0.2098 0.0
H2984 H 0.05963 0.76908 0.23046 0.0
C2985 C 0.0474 0.73416 0.30635 0.0
C2986 C 0.04652 0.75712 0.27945 0.0
H2987 H 0.0363 0.75826 0.24656 0.0
C2988 C 0.05863 0.77024 0.28018 0.0
C2989 C 0.03845 0.75266 0.26713 0.0
C2990 C 0.02567 0.73841 0.26553 0.0
C2991 C 0.06281 0.77912 0.26894 0.0
C2992 C 0.05459 0.77477 0.25673 0.0
C2993 C 0.04255 0.76159 0.25597 0.0
C2994 C 0.05829 0.78364 0.24454 0.0
C2995 C 0.07611 0.79294 0.2701 0.0
C2996 C 0.05903 0.79638 0.24562 0.0
C2997 C 0.06158 0.80424 0.23385 0.0
C2998 C 0.06347 0.7995 0.22079 0.0
C2999 C 0.06283 0.7868 0.21977 0.0
C3000 C 0.06026 0.77894 0.23154 0.0
H3001 H 0.08271 0.79326 0.27861 0.0
H3002 H 0.08173 0.79522 0.26016 0.0
H3003 H 0.07405 0.80129 0.2724 0.0
H3004 H 0.05723 0.80005 0.25549 0.0
H3005 H 0.06173 0.81386 0.23486 0.0
H3006 H 0.2711 0.29904 0.3194 0.0
H3007 H 0.25346 0.28838 0.30103 0.0
H3008 H 0.27734 0.32401 0.276 0.0
H3009 H 0.29496 0.33472 0.29418 0.0
H3010 H 0.23885 0.29999 0.2882 0.0
H3011 H 0.2694 0.28977 0.25062 0.0
H3012 H 0.27346 0.29311 0.26904 0.0
H3013 H 0.27786 0.30725 0.25794 0.0
C3014 C 0.27259 0.3046 0.30998 0.0
C3015 C 0.28448 0.3177 0.30822 0.0
C3016 C 0.2625 0.29851 0.29953 0.0
C3017 C 0.2642 0.30535 0.28712 0.0
C3018 C 0.27594 0.31849 0.28543 0.0
H3019 H 0.22249 0.29031 0.20859 0.0
H3020 H 0.23767 0.29981 0.22904 0.0
C3021 C 0.28598 0.3246 0.29586 0.0
C3022 C 0.25378 0.29884 0.27584 0.0
H3023 H 0.249 0.28696 0.2419 0.0
C3024 C 0.24099 0.29702 0.2781 0.0
C3025 C 0.25664 0.295 0.26271 0.0
C3026 C 0.27004 0.29625 0.25991 0.0
C3027 C 0.23111 0.29187 0.26737 0.0
C3028 C 0.23408 0.28825 0.25415 0.0
C3029 C 0.24679 0.28983 0.25201 0.0
C3030 C 0.22428 0.28298 0.24225 0.0
C3031 C 0.21779 0.29078 0.27013 0.0
C3032 C 0.21168 0.27039 0.24292 0.0
C3033 C 0.20296 0.265 0.23126 0.0
C3034 C 0.20672 0.27207 0.21873 0.0
C3035 C 0.21927 0.28473 0.21816 0.0
C3036 C 0.22796 0.29013 0.22981 0.0
H3037 H 0.21842 0.29715 0.27952 0.0
H3038 H 0.21453 0.29416 0.26106 0.0
H3039 H 0.20984 0.27978 0.27191 0.0
H3040 H 0.20877 0.26454 0.2523 0.0
H3041 H 0.19344 0.25511 0.23191 0.0
H3042 H 0.30806 0.34705 0.38415 0.0
H3043 H 0.30319 0.35821 0.40359 0.0
H3044 H 0.27838 0.36545 0.37641 0.0
H3045 H 0.28307 0.35417 0.3569 0.0
H3046 H 0.30844 0.38534 0.40609 0.0
H3047 H 0.25322 0.34572 0.40923 0.0
H3048 H 0.26479 0.34252 0.39966 0.0
H3049 H 0.25893 0.35277 0.39235 0.0
C3050 C 0.30155 0.35099 0.38228 0.0
C3051 C 0.29589 0.34965 0.36897 0.0
C3052 C 0.29879 0.35737 0.39341 0.0
C3053 C 0.29028 0.36248 0.39148 0.0
C3054 C 0.28477 0.36135 0.37818 0.0
H3055 H 0.28311 0.41855 0.45074 0.0
H3056 H 0.28597 0.40768 0.4295 0.0
C3057 C 0.28752 0.35496 0.36702 0.0
C3058 C 0.28736 0.36914 0.40339 0.0
H3059 H 0.26183 0.3659 0.42404 0.0
C3060 C 0.29825 0.38113 0.41 0.0
C3061 C 0.27407 0.36352 0.40853 0.0
C3062 C 0.26207 0.35036 0.40218 0.0
C3063 C 0.29621 0.38767 0.4216 0.0
C3064 C 0.28289 0.38216 0.42662 0.0
C3065 C 0.272 0.37015 0.42006 0.0
C3066 C 0.2802 0.38839 0.43907 0.0
C3067 C 0.30834 0.40022 0.42863 0.0
C3068 C 0.27564 0.38098 0.45132 0.0
C3069 C 0.27398 0.38714 0.46342 0.0
C3070 C 0.27669 0.40077 0.46341 0.0
C3071 C 0.28087 0.40801 0.45099 0.0
C3072 C 0.28258 0.40186 0.43891 0.0
H3073 H 0.31807 0.40142 0.42526 0.0
H3074 H 0.30851 0.40972 0.42594 0.0
H3075 H 0.3077 0.39949 0.44014 0.0
H3076 H 0.27375 0.37057 0.45163 0.0
H3077 H 0.27085 0.38137 0.47286 0.0
H3078 H 0.67329 0.96629 0.40129 0.0
H3079 H 0.66205 0.94824 0.41837 0.0
H3080 H 0.62863 0.92358 0.38951 0.0
H3081 H 0.63979 0.94153 0.37232 0.0
H3082 H 0.63575 0.9385 0.42937 0.0
H3083 H 0.63873 0.8959 0.40276 0.0
H3084 H 0.64936 0.91384 0.39813 0.0
H3085 H 0.63192 0.90367 0.39234 0.0
C3086 C 0.6636 0.95698 0.39851 0.0
C3087 C 0.65744 0.95535 0.38543 0.0
C3088 C 0.65721 0.94668 0.40829 0.0
C3089 C 0.64461 0.93452 0.40512 0.0
C3090 C 0.63848 0.93279 0.39205 0.0
H3091 H 0.58645 0.8634 0.4516 0.0
H3092 H 0.59938 0.87996 0.43353 0.0
C3093 C 0.64484 0.9431 0.38228 0.0
C3094 C 0.63753 0.92403 0.41581 0.0
H3095 H 0.62522 0.89018 0.423 0.0
C3096 C 0.63352 0.92796 0.42804 0.0
C3097 C 0.63455 0.91027 0.41395 0.0
C3098 C 0.63894 0.90564 0.40114 0.0
C3099 C 0.62639 0.91842 0.43839 0.0
C3100 C 0.6235 0.90467 0.43661 0.0
C3101 C 0.6275 0.90073 0.42436 0.0
C3102 C 0.61617 0.89421 0.4473 0.0
C3103 C 0.6217 0.92307 0.45097 0.0
C3104 C 0.62149 0.89656 0.4609 0.0
C3105 C 0.61409 0.88719 0.47122 0.0
C3106 C 0.60134 0.87519 0.46806 0.0
C3107 C 0.59627 0.87257 0.45429 0.0
C3108 C 0.60364 0.882 0.44399 0.0
H3109 H 0.62145 0.93249 0.44896 0.0
H3110 H 0.61142 0.91471 0.45413 0.0
H3111 H 0.62886 0.92565 0.45981 0.0
H3112 H 0.63128 0.90577 0.4636 0.0
H3113 H 0.61825 0.88945 0.48174 0.0
H3114 H 0.05983 0.74223 0.37093 0.0
H3115 H 0.07639 0.74658 0.38921 0.0
H3116 H 0.05284 0.70325 0.39902 0.0
H3117 H 0.03648 0.69875 0.38059 0.0
H3118 H 0.07354 0.74355 0.41686 0.0
H3119 H 0.09009 0.70933 0.39475 0.0
H3120 H 0.08008 0.71402 0.38486 0.0
H3121 H 0.07202 0.70007 0.39677 0.0
C3122 C 0.05822 0.73362 0.37694 0.0
C3123 C 0.04689 0.72013 0.37424 0.0
C3124 C 0.06769 0.73612 0.38738 0.0
C3125 C 0.06601 0.72519 0.3953 0.0
C3126 C 0.05456 0.71177 0.39279 0.0
H3127 H 0.09646 0.72662 0.47672 0.0
H3128 H 0.08441 0.72749 0.45641 0.0
C3129 C 0.04516 0.70924 0.3823 0.0
C3130 C 0.07593 0.72783 0.40649 0.0
H3131 H 0.09541 0.71619 0.41897 0.0
C3132 C 0.07846 0.73769 0.41724 0.0
C3133 C 0.08259 0.72041 0.40685 0.0
C3134 C 0.08118 0.71048 0.3951 0.0
C3135 C 0.08697 0.73988 0.42865 0.0
C3136 C 0.09283 0.73173 0.42949 0.0
C3137 C 0.09078 0.72232 0.41843 0.0
C3138 C 0.10061 0.73229 0.44197 0.0
C3139 C 0.08962 0.75093 0.43964 0.0
C3140 C 0.1136 0.73437 0.4406 0.0
C3141 C 0.12041 0.73365 0.45217 0.0
C3142 C 0.1144 0.73099 0.46537 0.0
C3143 C 0.10145 0.72902 0.46673 0.0
C3144 C 0.0946 0.7296 0.45515 0.0
H3145 H 0.08849 0.75918 0.43526 0.0
H3146 H 0.08208 0.74614 0.44804 0.0
H3147 H 0.09997 0.75584 0.4443 0.0
H3148 H 0.11837 0.73629 0.43051 0.0
H3149 H 0.13025 0.7349 0.45074 0.0
H3150 H 0.35035 0.06239 0.70982 0.0
H3151 H 0.33909 0.06923 0.72693 0.0
H3152 H 0.30001 0.03519 0.71209 0.0
H3153 H 0.3112 0.0281 0.69506 0.0
H3154 H 0.32066 0.07707 0.7224 0.0
H3155 H 0.29784 0.03008 0.75407 0.0
H3156 H 0.31092 0.03401 0.7415 0.0
H3157 H 0.29361 0.02659 0.73581 0.0
C3158 C 0.33936 0.0563 0.71022 0.0
C3159 C 0.33167 0.04465 0.70112 0.0
C3160 C 0.33295 0.06024 0.72 0.0
C3161 C 0.31873 0.05261 0.72091 0.0
C3162 C 0.311 0.04105 0.71176 0.0
H3163 H 0.26464 0.06487 0.77456 0.0
H3164 H 0.27396 0.05688 0.75612 0.0
C3165 C 0.31742 0.03707 0.70198 0.0
C3166 C 0.31208 0.057 0.73127 0.0
H3167 H 0.29188 0.0466 0.7599 0.0
C3168 C 0.31438 0.07041 0.7306 0.0
C3169 C 0.30385 0.04827 0.74194 0.0
C3170 C 0.30148 0.03398 0.7435 0.0
C3171 C 0.30867 0.07534 0.74032 0.0
C3172 C 0.30058 0.06667 0.75106 0.0
C3173 C 0.29809 0.05319 0.75162 0.0
C3174 C 0.29495 0.07159 0.76206 0.0
C3175 C 0.31125 0.08973 0.73899 0.0
C3176 C 0.30368 0.08234 0.77159 0.0
C3177 C 0.2984 0.08689 0.78211 0.0
C3178 C 0.28428 0.08086 0.78319 0.0
C3179 C 0.27556 0.06991 0.77377 0.0
C3180 C 0.28085 0.06531 0.76329 0.0
H3181 H 0.31494 0.09376 0.72847 0.0
H3182 H 0.30187 0.0898 0.74108 0.0
H3183 H 0.31911 0.09694 0.74677 0.0
H3184 H 0.31459 0.0871 0.77099 0.0
H3185 H 0.30536 0.09507 0.78946 0.0
H3186 H 0.95225 0.28361 0.71254 0.0
H3187 H 0.94212 0.26348 0.72722 0.0
H3188 H 0.97734 0.26044 0.72195 0.0
H3189 H 0.9876 0.28061 0.70711 0.0
H3190 H 0.93801 0.23562 0.71787 0.0
H3191 H 0.9701 0.26044 0.76574 0.0
H3192 H 0.96777 0.27039 0.75309 0.0
H3193 H 0.97844 0.26375 0.74918 0.0
C3194 C 0.95791 0.27874 0.71454 0.0
C3195 C 0.97074 0.28371 0.70865 0.0
C3196 C 0.95209 0.26723 0.72293 0.0
C3197 C 0.95904 0.26058 0.72571 0.0
C3198 C 0.9719 0.26556 0.71999 0.0
H3199 H 0.94018 0.18975 0.78532 0.0
H3200 H 0.9528 0.21228 0.76631 0.0
C3201 C 0.97771 0.27703 0.7115 0.0
C3202 C 0.95252 0.24809 0.73418 0.0
H3203 H 0.95349 0.2365 0.76613 0.0
C3204 C 0.94135 0.23578 0.72844 0.0
C3205 C 0.95707 0.24836 0.74785 0.0
C3206 C 0.96896 0.26143 0.75445 0.0
C3207 C 0.93459 0.22364 0.73602 0.0
C3208 C 0.93884 0.22401 0.74989 0.0
C3209 C 0.95017 0.23627 0.75554 0.0
C3210 C 0.93182 0.21186 0.75875 0.0
C3211 C 0.92332 0.21049 0.72881 0.0
C3212 C 0.9135 0.20238 0.75998 0.0
C3213 C 0.9047 0.18777 0.77099 0.0
C3214 C 0.91596 0.18549 0.7828 0.0
C3215 C 0.9341 0.19218 0.77899 0.0
C3216 C 0.94192 0.20663 0.76768 0.0
H3217 H 0.92495 0.21054 0.71739 0.0
H3218 H 0.92249 0.20106 0.73288 0.0
H3219 H 0.91354 0.20986 0.7304 0.0
H3220 H 0.90774 0.20567 0.75434 0.0
H3221 H 0.8939 0.1828 0.77271 0.0
H3222 H 0.72427 0.70988 0.70309 0.0
H3223 H 0.74332 0.72071 0.71984 0.0
H3224 H 0.73698 0.68049 0.7273 0.0
H3225 H 0.71811 0.66962 0.71048 0.0
H3226 H 0.74324 0.71581 0.74793 0.0
H3227 H 0.77745 0.70369 0.71908 0.0
H3228 H 0.76276 0.7023 0.71102 0.0
H3229 H 0.76085 0.68865 0.7216 0.0
C3230 C 0.72698 0.70335 0.70824 0.0
C3231 C 0.71971 0.68889 0.7054 0.0
C3232 C 0.73786 0.70955 0.71781 0.0
C3233 C 0.7417 0.70143 0.72462 0.0
C3234 C 0.73438 0.687 0.72191 0.0
H3235 H 0.79574 0.71239 0.79153 0.0
H3236 H 0.7783 0.70391 0.77312 0.0
C3237 C 0.72354 0.68079 0.71235 0.0
C3238 C 0.75307 0.70794 0.73494 0.0
H3239 H 0.78333 0.71137 0.74294 0.0
C3240 C 0.75208 0.71498 0.74678 0.0
C3241 C 0.7646 0.70685 0.73337 0.0
C3242 C 0.76658 0.70009 0.72052 0.0
C3243 C 0.76212 0.72058 0.75733 0.0
C3244 C 0.77345 0.71917 0.75591 0.0
C3245 C 0.77457 0.71235 0.74398 0.0
C3246 C 0.7841 0.72442 0.76689 0.0
C3247 C 0.7604 0.7276 0.77012 0.0
C3248 C 0.79314 0.73875 0.76937 0.0
C3249 C 0.8032 0.74362 0.77976 0.0
C3250 C 0.80444 0.73423 0.78776 0.0
C3251 C 0.79523 0.71986 0.78532 0.0
C3252 C 0.78525 0.71501 0.77487 0.0
H3253 H 0.75009 0.72596 0.77059 0.0
H3254 H 0.76227 0.72366 0.77971 0.0
H3255 H 0.76797 0.73896 0.77003 0.0
H3256 H 0.79241 0.74615 0.76325 0.0
H3257 H 0.81 0.75474 0.78159 0.0
H3258 H 0.72893 0.68403 0.64388 0.0
H3259 H 0.73479 0.67223 0.62603 0.0
H3260 H 0.69377 0.63661 0.62605 0.0
H3261 H 0.68776 0.64834 0.64393 0.0
H3262 H 0.73227 0.64557 0.62737 0.0
H3263 H 0.70148 0.64755 0.58444 0.0
H3264 H 0.70604 0.65848 0.60015 0.0
H3265 H 0.69275 0.64046 0.60042 0.0
C3266 C 0.72113 0.67369 0.6401 0.0
C3267 C 0.70786 0.66715 0.64528 0.0
C3268 C 0.72451 0.66696 0.62992 0.0
C3269 C 0.71468 0.65363 0.62465 0.0
C3270 C 0.70145 0.64698 0.62988 0.0
H3271 H 0.73068 0.59926 0.5724 0.0
H3272 H 0.72308 0.60882 0.59107 0.0
C3273 C 0.69806 0.65368 0.64012 0.0
C3274 C 0.71836 0.64674 0.61368 0.0
H3275 H 0.71297 0.63593 0.57936 0.0
C3276 C 0.72802 0.64339 0.61688 0.0
C3277 C 0.71287 0.64406 0.6 0.0
C3278 C 0.70278 0.64789 0.59594 0.0
C3279 C 0.73236 0.63742 0.60673 0.0
C3280 C 0.72681 0.63466 0.59308 0.0
C3281 C 0.71713 0.638 0.58988 0.0
C3282 C 0.73128 0.62877 0.58183 0.0
C3283 C 0.74311 0.63443 0.61058 0.0
C3284 C 0.73817 0.63675 0.57036 0.0
C3285 C 0.74254 0.63134 0.55974 0.0
C3286 C 0.74006 0.61783 0.56038 0.0
C3287 C 0.73293 0.60977 0.57176 0.0
C3288 C 0.7286 0.61522 0.58242 0.0
H3289 H 0.74825 0.63967 0.62066 0.0
H3290 H 0.7383 0.62305 0.61154 0.0
H3291 H 0.75089 0.63783 0.60235 0.0
H3292 H 0.74026 0.6472 0.56969 0.0
H3293 H 0.74785 0.63769 0.55099 0.0
H3294 H 0.36952 0.06128 0.64276 0.0
H3295 H 0.37854 0.0799 0.62614 0.0
H3296 H 0.33773 0.06623 0.61295 0.0
H3297 H 0.32863 0.0478 0.62965 0.0
H3298 H 0.37544 0.07844 0.59746 0.0
H3299 H 0.35392 0.10736 0.62222 0.0
H3300 H 0.35458 0.09391 0.63089 0.0
H3301 H 0.34138 0.0894 0.61821 0.0
C3302 C 0.36246 0.06226 0.63634 0.0
C3303 C 0.34835 0.05313 0.6376 0.0
C3304 C 0.36764 0.0729 0.62685 0.0
C3305 C 0.3588 0.0746 0.61851 0.0
C3306 C 0.34472 0.06531 0.61953 0.0
H3307 H 0.36605 0.12689 0.55199 0.0
H3308 H 0.35858 0.10909 0.56937 0.0
C3309 C 0.33954 0.05473 0.62904 0.0
C3310 C 0.36425 0.08595 0.60855 0.0
H3311 H 0.36296 0.114 0.59951 0.0
C3312 C 0.37282 0.0863 0.59797 0.0
C3313 C 0.36083 0.09619 0.60927 0.0
C3314 C 0.35228 0.09682 0.62084 0.0
C3315 C 0.37774 0.0964 0.58783 0.0
C3316 C 0.37409 0.10645 0.58841 0.0
C3317 C 0.36567 0.10621 0.59908 0.0
C3318 C 0.37873 0.11721 0.57792 0.0
C3319 C 0.38651 0.09604 0.57637 0.0
C3320 C 0.39251 0.12768 0.57707 0.0
C3321 C 0.39679 0.13792 0.56724 0.0
C3322 C 0.38732 0.13793 0.55821 0.0
C3323 C 0.37352 0.12731 0.55901 0.0
C3324 C 0.36926 0.11713 0.56888 0.0
H3325 H 0.38618 0.08608 0.57582 0.0
H3326 H 0.38324 0.09757 0.56611 0.0
H3327 H 0.3972 0.10463 0.57832 0.0
H3328 H 0.39995 0.12796 0.58405 0.0
H3329 H 0.4075 0.14584 0.56669 0.0
H3330 H 0.96809 0.29451 0.64099 0.0
H3331 H 0.95131 0.28575 0.62191 0.0
H3332 H 0.93217 0.30565 0.64164 0.0
H3333 H 0.94892 0.31453 0.66069 0.0
H3334 H 0.92252 0.26851 0.62374 0.0
H3335 H 0.93872 0.31938 0.60154 0.0
H3336 H 0.94933 0.31713 0.61339 0.0
H3337 H 0.93558 0.31857 0.61993 0.0
C3338 C 0.96035 0.29708 0.64125 0.0
C3339 C 0.95988 0.30527 0.65234 0.0
C3340 C 0.95077 0.29205 0.63034 0.0
C3341 C 0.94063 0.29522 0.63028 0.0
C3342 C 0.94007 0.3033 0.64137 0.0
H3343 H 0.87262 0.27536 0.57659 0.0
H3344 H 0.8898 0.28367 0.59526 0.0
C3345 C 0.94962 0.30831 0.65229 0.0
C3346 C 0.9304 0.28978 0.61881 0.0
H3347 H 0.91796 0.29985 0.59284 0.0
C3348 C 0.92156 0.27533 0.61691 0.0
C3349 C 0.92919 0.29874 0.60996 0.0
C3350 C 0.93878 0.31432 0.61118 0.0
C3351 C 0.91129 0.2696 0.60659 0.0
C3352 C 0.91001 0.27856 0.59779 0.0
C3353 C 0.91893 0.29301 0.59963 0.0
C3354 C 0.89944 0.27319 0.58666 0.0
C3355 C 0.90166 0.25402 0.60544 0.0
C3356 C 0.89927 0.26467 0.57557 0.0
C3357 C 0.88943 0.25986 0.56495 0.0
C3358 C 0.87958 0.26349 0.56524 0.0
C3359 C 0.87992 0.2722 0.57625 0.0
C3360 C 0.88975 0.27699 0.58687 0.0
H3361 H 0.90181 0.24897 0.61506 0.0
H3362 H 0.89109 0.25124 0.60337 0.0
H3363 H 0.90474 0.24972 0.59663 0.0
H3364 H 0.90687 0.26191 0.57502 0.0
H3365 H 0.8896 0.25343 0.55642 0.0
H3366 H 0.33701 0.30129 0.64288 0.0
H3367 H 0.34444 0.29385 0.62234 0.0
H3368 H 0.38287 0.30807 0.64274 0.0
H3369 H 0.37549 0.31546 0.66342 0.0
H3370 H 0.36735 0.311 0.6062 0.0
H3371 H 0.37029 0.26822 0.62844 0.0
H3372 H 0.36114 0.27531 0.63673 0.0
H3373 H 0.37934 0.28457 0.63816 0.0
C3374 C 0.34701 0.30276 0.64306 0.0
C3375 C 0.35566 0.30896 0.65481 0.0
C3376 C 0.35124 0.2985 0.63131 0.0
C3377 C 0.36413 0.30025 0.63109 0.0
C3378 C 0.37278 0.30639 0.6428 0.0
H3379 H 0.40963 0.28655 0.56737 0.0
H3380 H 0.4015 0.29149 0.58913 0.0
C3381 C 0.36858 0.31069 0.65457 0.0
C3382 C 0.36871 0.29624 0.61834 0.0
H3383 H 0.37875 0.27464 0.60563 0.0
C3384 C 0.36978 0.30301 0.60604 0.0
C3385 C 0.37193 0.28586 0.61822 0.0
C3386 C 0.37053 0.27796 0.63105 0.0
C3387 C 0.37418 0.29981 0.59364 0.0
C3388 C 0.37732 0.28935 0.59347 0.0
C3389 C 0.3763 0.28261 0.60579 0.0
C3390 C 0.38181 0.28541 0.5806 0.0
C3391 C 0.37573 0.30788 0.5809 0.0
C3392 C 0.3733 0.28002 0.56873 0.0
C3393 C 0.37792 0.27722 0.55632 0.0
C3394 C 0.39107 0.27957 0.55562 0.0
C3395 C 0.39941 0.28454 0.56766 0.0
C3396 C 0.39479 0.28738 0.58007 0.0
H3397 H 0.37634 0.31779 0.58366 0.0
H3398 H 0.38498 0.3103 0.57507 0.0
H3399 H 0.36678 0.30154 0.57387 0.0
H3400 H 0.36316 0.27819 0.569 0.0
H3401 H 0.37131 0.27345 0.54719 0.0
H3402 H 0.70836 0.04046 0.61321 0.0
H3403 H 0.71607 0.05808 0.59565 0.0
H3404 H 0.70897 0.08387 0.624 0.0
H3405 H 0.7013 0.06636 0.64166 0.0
H3406 H 0.7002 0.06798 0.58448 0.0
H3407 H 0.74792 0.11062 0.60988 0.0
H3408 H 0.73965 0.09279 0.61493 0.0
H3409 H 0.73313 0.10336 0.62063 0.0
C3410 C 0.70855 0.04993 0.61577 0.0
C3411 C 0.70422 0.05201 0.62884 0.0
C3412 C 0.71295 0.05997 0.60572 0.0
C3413 C 0.71324 0.07233 0.6086 0.0
C3414 C 0.70905 0.07451 0.62167 0.0
H3415 H 0.72893 0.14244 0.561 0.0
H3416 H 0.72472 0.12617 0.57928 0.0
C3417 C 0.70459 0.06445 0.63171 0.0
C3418 C 0.71717 0.08257 0.59765 0.0
H3419 H 0.74031 0.11615 0.5897 0.0
C3420 C 0.70902 0.07849 0.58556 0.0
C3421 C 0.72863 0.09627 0.59917 0.0
C3422 C 0.73793 0.10104 0.61179 0.0
C3423 C 0.71187 0.08784 0.57502 0.0
C3424 C 0.72336 0.10155 0.5765 0.0
C3425 C 0.73153 0.10563 0.58859 0.0
C3426 C 0.72688 0.11184 0.56567 0.0
C3427 C 0.70231 0.08306 0.56259 0.0
C3428 C 0.72982 0.10934 0.55208 0.0
C3429 C 0.73217 0.11857 0.54165 0.0
C3430 C 0.73182 0.13057 0.54468 0.0
C3431 C 0.72934 0.1333 0.55842 0.0
C3432 C 0.72693 0.12403 0.56884 0.0
H3433 H 0.69228 0.07365 0.56475 0.0
H3434 H 0.70069 0.09139 0.55945 0.0
H3435 H 0.70678 0.08044 0.55367 0.0
H3436 H 0.73009 0.10012 0.54949 0.0
H3437 H 0.73403 0.1162 0.53114 0.0
H3438 H 0.93005 0.64619 0.65082 0.0
H3439 H 0.91198 0.63684 0.63299 0.0
H3440 H 0.93862 0.63444 0.60311 0.0
H3441 H 0.95668 0.64366 0.62081 0.0
H3442 H 0.91227 0.64761 0.60664 0.0
H3443 H 0.90423 0.59493 0.60142 0.0
H3444 H 0.91328 0.6068 0.61605 0.0
H3445 H 0.92163 0.6088 0.59969 0.0
C3446 C 0.93205 0.64363 0.64046 0.0
C3447 C 0.94478 0.6456 0.63726 0.0
C3448 C 0.92173 0.63832 0.6303 0.0
C3449 C 0.92392 0.63477 0.61681 0.0
C3450 C 0.93665 0.63688 0.61354 0.0
H3451 H 0.88382 0.6222 0.53806 0.0
H3452 H 0.89828 0.63148 0.55904 0.0
C3453 C 0.94698 0.64221 0.62366 0.0
C3454 C 0.91299 0.62904 0.60605 0.0
H3455 H 0.89414 0.60097 0.58381 0.0
C3456 C 0.9082 0.63737 0.60172 0.0
C3457 C 0.90757 0.6156 0.59981 0.0
C3458 C 0.91183 0.60594 0.60455 0.0
C3459 C 0.89847 0.63278 0.59092 0.0
C3460 C 0.89357 0.61962 0.5842 0.0
C3461 C 0.89799 0.6111 0.5889 0.0
C3462 C 0.88426 0.61465 0.57193 0.0
C3463 C 0.89355 0.64207 0.58677 0.0
C3464 C 0.87164 0.60205 0.57218 0.0
C3465 C 0.86339 0.59672 0.5602 0.0
C3466 C 0.86764 0.6039 0.54774 0.0
C3467 C 0.8802 0.61659 0.54757 0.0
C3468 C 0.88844 0.62192 0.55956 0.0
H3469 H 0.89519 0.64972 0.59531 0.0
H3470 H 0.89929 0.64794 0.5776 0.0
H3471 H 0.88257 0.63587 0.58389 0.0
H3472 H 0.86829 0.59622 0.58159 0.0
H3473 H 0.85384 0.58681 0.56054 0.0
H3474 H 0.96299 0.67661 0.716 0.0
H3475 H 0.95901 0.68839 0.73553 0.0
H3476 H 0.94902 0.70998 0.70673 0.0
H3477 H 0.95262 0.69795 0.68713 0.0
H3478 H 0.97176 0.71568 0.74247 0.0
H3479 H 0.91713 0.69491 0.73254 0.0
H3480 H 0.92603 0.68778 0.7238 0.0
H3481 H 0.92762 0.70343 0.71793 0.0
C3482 C 0.95988 0.68381 0.7138 0.0
C3483 C 0.95805 0.68629 0.7 0.0
C3484 C 0.9576 0.69053 0.72499 0.0
C3485 C 0.95348 0.69988 0.72261 0.0
C3486 C 0.95184 0.70253 0.70884 0.0
H3487 H 0.94471 0.75737 0.77716 0.0
H3488 H 0.94604 0.74407 0.75713 0.0
C3489 C 0.954 0.69572 0.69763 0.0
C3490 C 0.95141 0.70721 0.73457 0.0
H3491 H 0.92828 0.71333 0.74978 0.0
C3492 C 0.96222 0.71509 0.7441 0.0
C3493 C 0.93895 0.70644 0.73671 0.0
C3494 C 0.92673 0.69758 0.72728 0.0
C3495 C 0.96098 0.72235 0.75557 0.0
C3496 C 0.94858 0.72166 0.75762 0.0
C3497 C 0.93777 0.71384 0.74812 0.0
C3498 C 0.94672 0.72901 0.76963 0.0
C3499 C 0.973 0.73089 0.76533 0.0
C3500 C 0.94639 0.72475 0.78322 0.0
C3501 C 0.94551 0.73223 0.79463 0.0
C3502 C 0.94486 0.74406 0.79264 0.0
C3503 C 0.94495 0.74816 0.77898 0.0
C3504 C 0.94576 0.74061 0.76756 0.0
H3505 H 0.98256 0.73247 0.76086 0.0
H3506 H 0.97442 0.74121 0.76785 0.0
H3507 H 0.97112 0.72545 0.77523 0.0
H3508 H 0.94705 0.71576 0.78499 0.0
H3509 H 0.94566 0.72897 0.80504 0.0
H3510 H 0.32615 0.27083 0.70217 0.0
H3511 H 0.3144 0.25322 0.71955 0.0
H3512 H 0.29482 0.27434 0.73497 0.0
H3513 H 0.30631 0.29185 0.71744 0.0
H3514 H 0.31575 0.25624 0.74781 0.0
H3515 H 0.26289 0.23466 0.72933 0.0
H3516 H 0.27745 0.24594 0.719 0.0
H3517 H 0.27203 0.25314 0.73266 0.0
C3518 C 0.31927 0.27169 0.70919 0.0
C3519 C 0.31711 0.28271 0.70837 0.0
C3520 C 0.31258 0.26162 0.71913 0.0
C3521 C 0.30357 0.26234 0.72842 0.0
C3522 C 0.30148 0.27339 0.7277 0.0
H3523 H 0.27635 0.22436 0.80779 0.0
H3524 H 0.28858 0.23947 0.78858 0.0
C3525 C 0.30812 0.28344 0.71772 0.0
C3526 C 0.29672 0.2518 0.73914 0.0
H3527 H 0.26558 0.22831 0.75193 0.0
C3528 C 0.30477 0.25005 0.74865 0.0
C3529 C 0.2824 0.24356 0.74008 0.0
C3530 C 0.27318 0.24429 0.72964 0.0
C3531 C 0.2989 0.24056 0.75932 0.0
C3532 C 0.2846 0.23285 0.76071 0.0
C3533 C 0.27654 0.23431 0.75095 0.0
C3534 C 0.27778 0.22346 0.77237 0.0
C3535 C 0.30808 0.23882 0.76892 0.0
C3536 C 0.26743 0.2095 0.76966 0.0
C3537 C 0.26033 0.2009 0.78062 0.0
C3538 C 0.26354 0.20608 0.79452 0.0
C3539 C 0.27392 0.22003 0.7972 0.0
C3540 C 0.28094 0.22864 0.78624 0.0
H3541 H 0.31789 0.2419 0.76391 0.0
H3542 H 0.31036 0.24561 0.77843 0.0
H3543 H 0.30318 0.2279 0.7721 0.0
H3544 H 0.26471 0.20532 0.75903 0.0
H3545 H 0.25216 0.19029 0.77823 0.0
H3546 H 0.70653 0.03715 0.7057 0.0
H3547 H 0.72177 0.04348 0.72577 0.0
H3548 H 0.75452 0.05153 0.69831 0.0
H3549 H 0.73939 0.04556 0.6781 0.0
H3550 H 0.73518 0.03163 0.73438 0.0
H3551 H 0.77226 0.08674 0.72276 0.0
H3552 H 0.75609 0.07644 0.71374 0.0
H3553 H 0.77007 0.07461 0.70891 0.0
C3554 C 0.71699 0.04032 0.7039 0.0
C3555 C 0.72176 0.04092 0.69028 0.0
C3556 C 0.72569 0.04394 0.7154 0.0
C3557 C 0.73935 0.04821 0.71354 0.0
C3558 C 0.74411 0.04862 0.69998 0.0
H3559 H 0.80309 0.06503 0.7729 0.0
H3560 H 0.78962 0.06115 0.75173 0.0
C3561 C 0.73543 0.0451 0.68844 0.0
C3562 C 0.74839 0.05174 0.72589 0.0
H3563 H 0.77793 0.07762 0.74156 0.0
C3564 C 0.7445 0.04171 0.73596 0.0
C3565 C 0.76056 0.0649 0.72794 0.0
C3566 C 0.76495 0.07635 0.71784 0.0
C3567 C 0.75247 0.04442 0.74798 0.0
C3568 C 0.7646 0.05755 0.75001 0.0
C3569 C 0.7686 0.06756 0.73992 0.0
C3570 C 0.7732 0.06101 0.76264 0.0
C3571 C 0.74794 0.0332 0.75837 0.0
C3572 C 0.76852 0.06249 0.7757 0.0
C3573 C 0.77622 0.06482 0.78776 0.0
C3574 C 0.78879 0.06581 0.78696 0.0
C3575 C 0.79357 0.06457 0.77381 0.0
C3576 C 0.78588 0.06231 0.76173 0.0
H3577 H 0.73981 0.02286 0.75401 0.0
H3578 H 0.75664 0.03247 0.76181 0.0
H3579 H 0.74392 0.03583 0.7677 0.0
H3580 H 0.75877 0.06158 0.77657 0.0
H3581 H 0.77222 0.06554 0.79777 0.0
H3582 H 0.02263 0.33493 0.05218 0.0
H3583 H 0.03422 0.32481 0.0628 0.0
H3584 H 0.05744 0.33132 0.02551 0.0
H3585 H 0.04589 0.34164 0.01473 0.0
H3586 H 0.03307 0.30086 0.05153 0.0
H3587 H 0.08615 0.3462 0.05793 0.0
H3588 H 0.07186 0.34815 0.05541 0.0
H3589 H 0.07839 0.34311 0.04093 0.0
C3590 C 0.03031 0.33438 0.04624 0.0
C3591 C 0.03329 0.33904 0.03257 0.0
C3592 C 0.03692 0.32859 0.05235 0.0
C3593 C 0.04671 0.32737 0.04497 0.0
C3594 C 0.05003 0.33234 0.03145 0.0
H3595 H 0.06984 0.26311 0.06982 0.0
H3596 H 0.05914 0.27728 0.05553 0.0
C3597 C 0.0434 0.33819 0.02529 0.0
C3598 C 0.05261 0.31998 0.05122 0.0
H3599 H 0.08189 0.32442 0.06456 0.0
C3600 C 0.04377 0.30597 0.05428 0.0
C3601 C 0.06652 0.32676 0.05495 0.0
C3602 C 0.07632 0.34191 0.05226 0.0
C3603 C 0.04842 0.29856 0.06112 0.0
C3604 C 0.06237 0.30528 0.0647 0.0
C3605 C 0.07124 0.31928 0.06164 0.0
C3606 C 0.06781 0.29815 0.07218 0.0
C3607 C 0.0382 0.28382 0.06495 0.0
C3608 C 0.07631 0.30563 0.08878 0.0
C3609 C 0.08274 0.2972 0.09875 0.0
C3610 C 0.0825 0.28243 0.08928 0.0
C3611 C 0.07064 0.27236 0.07445 0.0
C3612 C 0.0646 0.28162 0.06531 0.0
H3613 H 0.02779 0.28192 0.06567 0.0
H3614 H 0.03793 0.27654 0.05673 0.0
H3615 H 0.04085 0.28136 0.07506 0.0
H3616 H 0.07748 0.31524 0.09282 0.0
H3617 H 0.08873 0.30208 0.10818 0.0
H3618 H 0.64554 0.68221 0.04696 0.0
H3619 H 0.65394 0.70395 0.06075 0.0
H3620 H 0.69501 0.71758 0.04924 0.0
H3621 H 0.68676 0.69608 0.03533 0.0
H3622 H 0.67219 0.71409 0.08328 0.0
H3623 H 0.69249 0.75096 0.04048 0.0
H3624 H 0.68098 0.73246 0.03738 0.0
H3625 H 0.69881 0.73957 0.0404 0.0
C3626 C 0.65635 0.68989 0.04727 0.0
C3627 C 0.66547 0.68743 0.03999 0.0
C3628 C 0.66112 0.70229 0.05516 0.0
C3629 C 0.67507 0.71247 0.05582 0.0
C3630 C 0.68418 0.71001 0.04861 0.0
H3631 H 0.73592 0.79823 0.09698 0.0
H3632 H 0.722 0.77161 0.08187 0.0
C3633 C 0.67944 0.69766 0.04073 0.0
C3634 C 0.68025 0.72539 0.06456 0.0
H3635 H 0.69971 0.76078 0.06358 0.0
C3636 C 0.67804 0.72431 0.07897 0.0
C3637 C 0.68794 0.7387 0.0589 0.0
C3638 C 0.6901 0.74053 0.04342 0.0
C3639 C 0.68378 0.73619 0.08796 0.0
C3640 C 0.69167 0.74947 0.0823 0.0
C3641 C 0.69367 0.75057 0.06788 0.0
C3642 C 0.69841 0.7624 0.09106 0.0
C3643 C 0.68184 0.7343 0.10345 0.0
C3644 C 0.68871 0.76583 0.10354 0.0
C3645 C 0.69667 0.78184 0.11391 0.0
C3646 C 0.71422 0.79512 0.10854 0.0
C3647 C 0.72538 0.79055 0.09898 0.0
C3648 C 0.71648 0.77426 0.08912 0.0
H3649 H 0.67961 0.7239 0.10628 0.0
H3650 H 0.69097 0.74236 0.10946 0.0
H3651 H 0.67306 0.73505 0.10665 0.0
H3652 H 0.67796 0.75838 0.1046 0.0
H3653 H 0.69074 0.78452 0.12052 0.0
H3654 H 0.32002 0.98066 0.03535 0.0
H3655 H 0.29921 0.9652 0.04783 0.0
H3656 H 0.27579 0.9711 0.01738 0.0
H3657 H 0.2965 0.98641 0.00473 0.0
H3658 H 0.28255 0.97289 0.05968 0.0
H3659 H 0.25357 0.92909 0.02122 0.0
H3660 H 0.27156 0.94158 0.01975 0.0
H3661 H 0.25941 0.94571 0.01414 0.0
C3662 C 0.31042 0.97849 0.03117 0.0
C3663 C 0.30992 0.9848 0.01905 0.0
C3664 C 0.29854 0.96967 0.03833 0.0
C3665 C 0.28595 0.96689 0.03346 0.0
C3666 C 0.28537 0.97287 0.02117 0.0
H3667 H 0.21402 0.94591 0.07879 0.0
H3668 H 0.23585 0.95707 0.06695 0.0
C3669 C 0.29724 0.98169 0.01399 0.0
C3670 C 0.27358 0.95872 0.04183 0.0
H3671 H 0.24089 0.93093 0.04006 0.0
C3672 C 0.27349 0.96362 0.05545 0.0
C3673 C 0.26184 0.94654 0.03637 0.0
C3674 C 0.26161 0.94033 0.02212 0.0
C3675 C 0.26179 0.95695 0.06359 0.0
C3676 C 0.2498 0.94523 0.05783 0.0
C3677 C 0.25005 0.94001 0.0444 0.0
C3678 C 0.23678 0.93853 0.06538 0.0
C3679 C 0.2624 0.96252 0.07827 0.0
C3680 C 0.22989 0.92432 0.06809 0.0
C3681 C 0.21738 0.91791 0.07477 0.0
C3682 C 0.21158 0.92564 0.07894 0.0
C3683 C 0.21844 0.93982 0.07604 0.0
C3684 C 0.23091 0.94619 0.06932 0.0
H3685 H 0.27299 0.96855 0.08246 0.0
H3686 H 0.25855 0.96961 0.07827 0.0
H3687 H 0.25603 0.95398 0.08536 0.0
H3688 H 0.23417 0.91818 0.06497 0.0
H3689 H 0.21215 0.90689 0.07654 0.0
H3690 H 0.35777 0.04747 0.96773 0.0
H3691 H 0.3483 0.05999 0.95758 0.0
H3692 H 0.32563 0.05503 0.99498 0.0
H3693 H 0.33514 0.04259 0.0053 0.0
H3694 H 0.32088 0.04925 0.95258 0.0
H3695 H 0.34339 0.0965 0.98765 0.0
H3696 H 0.34982 0.0851 0.98678 0.0
H3697 H 0.33486 0.08046 0.99659 0.0
C3698 C 0.35092 0.0492 0.97389 0.0
C3699 C 0.34722 0.04404 0.98734 0.0
C3700 C 0.3455 0.05634 0.96805 0.0
C3701 C 0.33638 0.05855 0.97558 0.0
C3702 C 0.33285 0.05365 0.9891 0.0
H3703 H 0.2772 0.07452 0.94185 0.0
H3704 H 0.2891 0.06444 0.95217 0.0
C3705 C 0.33825 0.04649 0.99495 0.0
C3706 C 0.32991 0.06522 0.96894 0.0
H3707 H 0.32557 0.09263 0.97232 0.0
C3708 C 0.32196 0.05879 0.95684 0.0
C3709 C 0.33147 0.07772 0.97444 0.0
C3710 C 0.34045 0.08545 0.98701 0.0
C3711 C 0.3153 0.06438 0.95021 0.0
C3712 C 0.31643 0.0766 0.95601 0.0
C3713 C 0.32462 0.08319 0.96796 0.0
C3714 C 0.3092 0.08271 0.94984 0.0
C3715 C 0.30728 0.05723 0.93697 0.0
C3716 C 0.31651 0.09648 0.94556 0.0
C3717 C 0.30972 0.1023 0.9398 0.0
C3718 C 0.29549 0.09438 0.93808 0.0
C3719 C 0.28819 0.0807 0.94268 0.0
C3720 C 0.29498 0.07494 0.94853 0.0
H3721 H 0.31061 0.05062 0.93183 0.0
H3722 H 0.29637 0.0504 0.9395 0.0
H3723 H 0.30828 0.06491 0.92946 0.0
H3724 H 0.32748 0.10272 0.94664 0.0
H3725 H 0.31559 0.113 0.93673 0.0
H3726 H 0.99416 0.31947 0.974 0.0
H3727 H 0.9799 0.29846 0.95958 0.0
H3728 H 0.95191 0.28043 0.99343 0.0
H3729 H 0.96651 0.30132 0.00818 0.0
H3730 H 0.95671 0.26215 0.98205 0.0
H3731 H 0.94506 0.28577 0.93959 0.0
H3732 H 0.96307 0.29416 0.94203 0.0
H3733 H 0.95295 0.29516 0.9558 0.0
C3734 C 0.98491 0.3111 0.97836 0.0
C3735 C 0.98142 0.31208 0.99222 0.0
C3736 C 0.9767 0.29911 0.97005 0.0
C3737 C 0.96465 0.28798 0.97529 0.0
C3738 C 0.96111 0.28894 0.98913 0.0
H3739 H 0.90673 0.21849 0.90927 0.0
H3740 H 0.91901 0.24204 0.92901 0.0
C3741 C 0.96944 0.30087 0.99754 0.0
C3742 C 0.95623 0.27509 0.96653 0.0
H3743 H 0.94198 0.26339 0.93408 0.0
C3744 C 0.95333 0.26239 0.97162 0.0
C3745 C 0.95151 0.2753 0.95305 0.0
C3746 C 0.95318 0.28832 0.94737 0.0
C3747 C 0.94634 0.25 0.96339 0.0
C3748 C 0.94262 0.25045 0.94951 0.0
C3749 C 0.94499 0.26302 0.94464 0.0
C3750 C 0.93653 0.2382 0.9397 0.0
C3751 C 0.94281 0.23663 0.9699 0.0
C3752 C 0.94409 0.2278 0.93817 0.0
C3753 C 0.93746 0.21329 0.92577 0.0
C3754 C 0.92111 0.20845 0.91724 0.0
C3755 C 0.91555 0.22099 0.91547 0.0
C3756 C 0.92286 0.23522 0.92824 0.0
H3757 H 0.9414 0.23717 0.98132 0.0
H3758 H 0.93337 0.22759 0.96528 0.0
H3759 H 0.95131 0.23494 0.96839 0.0
H3760 H 0.95287 0.23045 0.94448 0.0
H3761 H 0.94119 0.20635 0.92553 0.0
H3762 H 0.68964 0.66593 0.96581 0.0
H3763 H 0.71168 0.6742 0.95516 0.0
H3764 H 0.72845 0.67417 0.99509 0.0
H3765 H 0.70631 0.6655 0.00575 0.0
H3766 H 0.73483 0.69808 0.96047 0.0
H3767 H 0.74229 0.65493 0.97066 0.0
H3768 H 0.72614 0.65343 0.97292 0.0
H3769 H 0.73914 0.66189 0.98629 0.0
C3770 C 0.69796 0.6675 0.9723 0.0
C3771 C 0.69621 0.66502 0.98662 0.0
C3772 C 0.71057 0.67224 0.9662 0.0
C3773 C 0.72169 0.67465 0.97428 0.0
C3774 C 0.71995 0.67206 0.98857 0.0
H3775 H 0.80609 0.73067 0.95294 0.0
H3776 H 0.78319 0.71965 0.96237 0.0
C3777 C 0.70729 0.66718 0.99466 0.0
C3778 C 0.73528 0.68068 0.9679 0.0
H3779 H 0.76186 0.6761 0.96355 0.0
C3780 C 0.7407 0.69321 0.96105 0.0
C3781 C 0.74286 0.67424 0.96848 0.0
C3782 C 0.73725 0.66031 0.97486 0.0
C3783 C 0.75356 0.69961 0.95497 0.0
C3784 C 0.76143 0.69353 0.95615 0.0
C3785 C 0.75591 0.68085 0.96277 0.0
C3786 C 0.7754 0.70016 0.9506 0.0
C3787 C 0.75843 0.71268 0.94712 0.0
C3788 C 0.77885 0.69268 0.94133 0.0
C3789 C 0.79202 0.69887 0.93616 0.0
C3790 C 0.80196 0.71276 0.93999 0.0
C3791 C 0.79854 0.72009 0.94951 0.0
C3792 C 0.78544 0.71383 0.95484 0.0
H3793 H 0.74979 0.71337 0.94339 0.0
H3794 H 0.76481 0.72188 0.95419 0.0
H3795 H 0.76459 0.71318 0.93801 0.0
H3796 H 0.77132 0.68205 0.93805 0.0
H3797 H 0.7944 0.69277 0.92915 0.0
H3798 H 0.98579 0.67948 0.96972 0.0
H3799 H 0.97354 0.68978 0.96102 0.0
H3800 H 0.95021 0.67947 0.99865 0.0
H3801 H 0.96247 0.66908 0.00752 0.0
H3802 H 0.94376 0.67735 0.95777 0.0
H3803 H 0.96984 0.72302 0.99535 0.0
H3804 H 0.97653 0.71211 0.99143 0.0
H3805 H 0.96179 0.70585 0.00206 0.0
C3806 C 0.97798 0.67928 0.97613 0.0
C3807 C 0.97517 0.67356 0.98936 0.0
C3808 C 0.97097 0.68514 0.97112 0.0
C3809 C 0.9611 0.6855 0.97927 0.0
C3810 C 0.9579 0.67939 0.99228 0.0
H3811 H 0.92679 0.73564 0.9585 0.0
H3812 H 0.93146 0.72012 0.97098 0.0
C3813 C 0.96486 0.67342 0.99729 0.0
C3814 C 0.95469 0.69283 0.9742 0.0
H3815 H 0.95605 0.72354 0.97798 0.0
C3816 C 0.94627 0.68736 0.96228 0.0
C3817 C 0.95794 0.70582 0.9802 0.0
C3818 C 0.96706 0.71216 0.99293 0.0
C3819 C 0.94137 0.69478 0.95591 0.0
C3820 C 0.94528 0.70816 0.96142 0.0
C3821 C 0.95314 0.71332 0.97374 0.0
C3822 C 0.94224 0.71738 0.95395 0.0
C3823 C 0.93217 0.68829 0.94324 0.0
C3824 C 0.94702 0.72121 0.94039 0.0
C3825 C 0.94434 0.72999 0.93328 0.0
C3826 C 0.93693 0.73523 0.93962 0.0
C3827 C 0.93243 0.73166 0.95333 0.0
C3828 C 0.93508 0.72281 0.96045 0.0
H3829 H 0.92663 0.67675 0.94317 0.0
H3830 H 0.92464 0.69145 0.94277 0.0
H3831 H 0.9384 0.69172 0.93371 0.0
H3832 H 0.9529 0.71746 0.93533 0.0
H3833 H 0.94803 0.73267 0.92277 0.0
H3834 H 0.32359 0.3175 0.97387 0.0
H3835 H 0.31246 0.29386 0.96369 0.0
H3836 H 0.34475 0.28981 0.97958 0.0
H3837 H 0.35595 0.31346 0.98998 0.0
H3838 H 0.32178 0.28095 0.9444 0.0
H3839 H 0.3099 0.25733 0.99633 0.0
H3840 H 0.31526 0.27524 0.99412 0.0
H3841 H 0.32748 0.27015 0.99348 0.0
C3842 C 0.3284 0.31164 0.97515 0.0
C3843 C 0.3406 0.31732 0.98287 0.0
C3844 C 0.32203 0.29814 0.96928 0.0
C3845 C 0.32769 0.29004 0.97105 0.0
C3846 C 0.34012 0.29583 0.97829 0.0
H3847 H 0.29274 0.20156 0.95348 0.0
H3848 H 0.30857 0.22634 0.95911 0.0
C3849 C 0.34652 0.30936 0.98418 0.0
C3850 C 0.32023 0.27535 0.96581 0.0
H3851 H 0.30316 0.24203 0.97664 0.0
C3852 C 0.31775 0.27241 0.95142 0.0
C3853 C 0.31498 0.26427 0.97501 0.0
C3854 C 0.31691 0.26683 0.99061 0.0
C3855 C 0.31016 0.25865 0.94597 0.0
C3856 C 0.30471 0.24757 0.95521 0.0
C3857 C 0.30738 0.25054 0.96957 0.0
C3858 C 0.29579 0.23282 0.95036 0.0
C3859 C 0.30815 0.25609 0.93039 0.0
C3860 C 0.28339 0.22825 0.94348 0.0
C3861 C 0.27438 0.21411 0.94017 0.0
C3862 C 0.27758 0.20429 0.94377 0.0
C3863 C 0.29008 0.20892 0.95046 0.0
C3864 C 0.29911 0.22305 0.95371 0.0
H3865 H 0.31616 0.26512 0.92473 0.0
H3866 H 0.30822 0.24668 0.92695 0.0
H3867 H 0.29819 0.25447 0.92741 0.0
H3868 H 0.28046 0.23556 0.94111 0.0
H3869 H 0.26473 0.21079 0.93518 0.0
H3870 H 0.71027 0.03388 0.02436 0.0
H3871 H 0.73192 0.04697 0.01222 0.0
H3872 H 0.71039 0.03471 0.97273 0.0
H3873 H 0.68881 0.02181 0.98469 0.0
H3874 H 0.74161 0.03549 0.99302 0.0
H3875 H 0.73698 0.07625 0.96882 0.0
H3876 H 0.72635 0.06624 0.98296 0.0
H3877 H 0.72243 0.05911 0.96533 0.0
C3878 C 0.71014 0.03416 0.01311 0.0
C3879 C 0.69782 0.02679 0.0055 0.0
C3880 C 0.72251 0.04163 0.0062 0.0
C3881 C 0.72274 0.04196 0.99159 0.0
C3882 C 0.71044 0.03486 0.98402 0.0
H3883 H 0.77583 0.06223 0.92295 0.0
H3884 H 0.75735 0.05531 0.93944 0.0
C3885 C 0.6981 0.02739 0.99089 0.0
C3886 C 0.73578 0.04871 0.9841 0.0
H3887 H 0.75334 0.07172 0.95881 0.0
C3888 C 0.74432 0.04359 0.98571 0.0
C3889 C 0.73927 0.05925 0.97458 0.0
C3890 C 0.73084 0.06564 0.97291 0.0
C3891 C 0.75588 0.04819 0.97749 0.0
C3892 C 0.75908 0.05836 0.96758 0.0
C3893 C 0.75082 0.06387 0.96636 0.0
C3894 C 0.77044 0.0628 0.95777 0.0
C3895 C 0.76419 0.04164 0.979 0.0
C3896 C 0.78393 0.06939 0.96263 0.0
C3897 C 0.7945 0.07327 0.95322 0.0
C3898 C 0.79175 0.07077 0.93881 0.0
C3899 C 0.77823 0.06429 0.934 0.0
C3900 C 0.76769 0.06038 0.94339 0.0
H3901 H 0.75872 0.03194 0.98486 0.0
H3902 H 0.76688 0.0392 0.96862 0.0
H3903 H 0.77377 0.04906 0.98476 0.0
H3904 H 0.78629 0.07157 0.97367 0.0
H3905 H 0.80482 0.07825 0.95721 0.0
H3906 H 0.66027 0.95879 0.0198 0.0
H3907 H 0.66903 0.94499 0.02851 0.0
H3908 H 0.68254 0.9705 0.06652 0.0
H3909 H 0.67356 0.98405 0.05811 0.0
H3910 H 0.69512 0.95435 0.03464 0.0
H3911 H 0.66463 0.93235 0.08187 0.0
H3912 H 0.66005 0.94017 0.06875 0.0
H3913 H 0.67271 0.95088 0.08191 0.0
C3914 C 0.6649 0.9613 0.03012 0.0
C3915 C 0.6662 0.97251 0.03827 0.0
C3916 C 0.6699 0.95341 0.03507 0.0
C3917 C 0.67626 0.95656 0.04826 0.0
C3918 C 0.67736 0.96761 0.05648 0.0
H3919 H 0.73172 0.94076 0.08973 0.0
H3920 H 0.71706 0.94895 0.08236 0.0
C3921 C 0.6723 0.97543 0.05159 0.0
C3922 C 0.68279 0.94915 0.05296 0.0
H3923 H 0.6853 0.9323 0.0804 0.0
C3924 C 0.69282 0.94934 0.04454 0.0
C3925 C 0.6798 0.94264 0.06591 0.0
C3926 C 0.66861 0.94136 0.07506 0.0
C3927 C 0.70026 0.94364 0.04894 0.0
C3928 C 0.69756 0.93754 0.06206 0.0
C3929 C 0.68737 0.93708 0.07038 0.0
C3930 C 0.7055 0.9319 0.06736 0.0
C3931 C 0.71125 0.9445 0.03974 0.0
C3932 C 0.70364 0.91949 0.06151 0.0
C3933 C 0.71189 0.91474 0.06577 0.0
C3934 C 0.72209 0.92228 0.07601 0.0
C3935 C 0.72377 0.9346 0.08202 0.0
C3936 C 0.71545 0.9393 0.0778 0.0
H3937 H 0.71329 0.95117 0.03074 0.0
H3938 H 0.72083 0.94869 0.04585 0.0
H3939 H 0.7081 0.93391 0.03567 0.0
H3940 H 0.696 0.91367 0.05342 0.0
H3941 H 0.71053 0.90534 0.06082 0.0
H3942 H 0.04872 0.70463 0.01385 0.0
H3943 H 0.0626 0.72814 0.02449 0.0
H3944 H 0.02846 0.72129 0.04898 0.0
H3945 H 0.01466 0.69783 0.03869 0.0
H3946 H 0.05782 0.74916 0.02291 0.0
H3947 H 0.05847 0.73749 0.07823 0.0
H3948 H 0.05333 0.72448 0.06425 0.0
H3949 H 0.04156 0.72892 0.07103 0.0
C3950 C 0.04423 0.70807 0.02163 0.0
C3951 C 0.03059 0.69933 0.02543 0.0
C3952 C 0.05217 0.7215 0.0277 0.0
C3953 C 0.04663 0.72638 0.03771 0.0
C3954 C 0.03306 0.71763 0.04157 0.0
H3955 H 0.06477 0.8037 0.07678 0.0
H3956 H 0.05536 0.77939 0.06901 0.0
C3957 C 0.02515 0.70423 0.03557 0.0
C3958 C 0.05463 0.74094 0.04337 0.0
H3959 H 0.06449 0.76074 0.07374 0.0
C3960 C 0.05947 0.75171 0.03401 0.0
C3961 C 0.05672 0.74423 0.05787 0.0
C3962 C 0.05236 0.73317 0.06841 0.0
C3963 C 0.06586 0.76566 0.03876 0.0
C3964 C 0.06763 0.76892 0.05327 0.0
C3965 C 0.06308 0.75819 0.06263 0.0
C3966 C 0.07373 0.78338 0.05888 0.0
C3967 C 0.0702 0.77676 0.02825 0.0
C3968 C 0.08724 0.79356 0.05603 0.0
C3969 C 0.09262 0.8074 0.06045 0.0
C3970 C 0.08461 0.81127 0.06794 0.0
C3971 C 0.07119 0.80097 0.07115 0.0
C3972 C 0.06582 0.78712 0.06671 0.0
H3973 H 0.06551 0.77228 0.0178 0.0
H3974 H 0.06743 0.78436 0.03173 0.0
H3975 H 0.0814 0.78247 0.02718 0.0
H3976 H 0.09356 0.79083 0.05016 0.0
H3977 H 0.10296 0.81515 0.05777 0.0
H3978 H 0.31093 0.32154 0.03631 0.0
H3979 H 0.28871 0.31308 0.04656 0.0
H3980 H 0.28664 0.34564 0.02741 0.0
H3981 H 0.30884 0.35407 0.01687 0.0
H3982 H 0.27922 0.32595 0.06445 0.0
H3983 H 0.2518 0.31027 0.01333 0.0
H3984 H 0.26913 0.31473 0.01516 0.0
H3985 H 0.26539 0.32818 0.01514 0.0
C3986 C 0.3058 0.32696 0.0343 0.0
C3987 C 0.3116 0.33841 0.02565 0.0
C3988 C 0.2931 0.32212 0.0402 0.0
C3989 C 0.28594 0.3286 0.03757 0.0
C3990 C 0.29189 0.34033 0.02935 0.0
H3991 H 0.20292 0.30343 0.05823 0.0
H3992 H 0.22681 0.31695 0.05148 0.0
C3993 C 0.3046 0.34517 0.02339 0.0
C3994 C 0.2721 0.32276 0.04317 0.0
H3995 H 0.23877 0.30713 0.03333 0.0
C3996 C 0.27037 0.32188 0.05766 0.0
C3997 C 0.26058 0.31744 0.03428 0.0
C3998 C 0.26174 0.31756 0.0186 0.0
C3999 C 0.25741 0.31579 0.06351 0.0
C4000 C 0.24589 0.31029 0.0546 0.0
C4001 C 0.24764 0.3114 0.04013 0.0
C4002 C 0.23185 0.30284 0.05996 0.0
C4003 C 0.25616 0.31537 0.07915 0.0
C4004 C 0.22679 0.29045 0.067 0.0
C4005 C 0.21317 0.28275 0.07089 0.0
C4006 C 0.20438 0.2873 0.06782 0.0
C4007 C 0.20952 0.29979 0.06092 0.0
C4008 C 0.22313 0.30749 0.05703 0.0
H4009 H 0.26586 0.3233 0.08447 0.0
H4010 H 0.24803 0.31713 0.08265 0.0
H4011 H 0.25349 0.30498 0.08249 0.0
H4012 H 0.23325 0.28649 0.06905 0.0
H4013 H 0.2094 0.27302 0.07595 0.0
H4014 H 0.68178 0.67263 0.39133 0.0
H4015 H 0.69348 0.66324 0.40323 0.0
H4016 H 0.71723 0.66856 0.36661 0.0
H4017 H 0.70569 0.67821 0.35464 0.0
H4018 H 0.69239 0.63944 0.39455 0.0
H4019 H 0.74591 0.68398 0.398 0.0
H4020 H 0.73189 0.68607 0.39427 0.0
H4021 H 0.73847 0.67993 0.38079 0.0
C4022 C 0.68964 0.67201 0.38585 0.0
C4023 C 0.69277 0.67612 0.37201 0.0
C4024 C 0.69631 0.66664 0.39268 0.0
C4025 C 0.70628 0.66527 0.38585 0.0
C4026 C 0.70974 0.66975 0.37217 0.0
H4027 H 0.72794 0.60002 0.40942 0.0
H4028 H 0.71678 0.6145 0.39668 0.0
C4029 C 0.70309 0.6752 0.36532 0.0
C4030 C 0.71213 0.65808 0.39269 0.0
H4031 H 0.74176 0.662 0.40422 0.0
C4032 C 0.70319 0.64438 0.39666 0.0
C4033 C 0.72619 0.66461 0.39558 0.0
C4034 C 0.73619 0.6795 0.39207 0.0
C4035 C 0.70792 0.63697 0.40337 0.0
C4036 C 0.72202 0.64334 0.40587 0.0
C4037 C 0.73097 0.6571 0.40211 0.0
C4038 C 0.72764 0.63602 0.41269 0.0
C4039 C 0.69765 0.62259 0.40811 0.0
C4040 C 0.73781 0.64387 0.42838 0.0
C4041 C 0.74468 0.63529 0.43741 0.0
C4042 C 0.74291 0.61986 0.42772 0.0
C4043 C 0.72954 0.6096 0.41413 0.0
C4044 C 0.72317 0.61902 0.4059 0.0
H4045 H 0.68759 0.62131 0.40988 0.0
H4046 H 0.69624 0.6148 0.39986 0.0
H4047 H 0.70099 0.62029 0.41788 0.0
H4048 H 0.73975 0.65379 0.43243 0.0
H4049 H 0.75161 0.64035 0.44619 0.0
H4050 H 0.34697 0.02621 0.37042 0.0
H4051 H 0.3585 0.04915 0.38233 0.0
H4052 H 0.32016 0.04091 0.39811 0.0
H4053 H 0.30853 0.01783 0.38642 0.0
H4054 H 0.3545 0.07095 0.37911 0.0
H4055 H 0.34395 0.05302 0.43332 0.0
H4056 H 0.34163 0.04159 0.41856 0.0
H4057 H 0.3291 0.04591 0.42231 0.0
C4058 C 0.34097 0.02925 0.37645 0.0
C4059 C 0.32683 0.02016 0.37753 0.0
C4060 C 0.34759 0.04237 0.38324 0.0
C4061 C 0.34022 0.04664 0.39128 0.0
C4062 C 0.32608 0.03769 0.39221 0.0
H4063 H 0.36212 0.1243 0.44818 0.0
H4064 H 0.34884 0.09744 0.43345 0.0
C4065 C 0.31944 0.02454 0.38545 0.0
C4066 C 0.34733 0.06057 0.39844 0.0
H4067 H 0.35398 0.07715 0.43048 0.0
C4068 C 0.35446 0.07233 0.39035 0.0
C4069 C 0.34718 0.06231 0.41309 0.0
C4070 C 0.34017 0.05005 0.42237 0.0
C4071 C 0.36129 0.08582 0.3965 0.0
C4072 C 0.36119 0.08755 0.41116 0.0
C4073 C 0.35401 0.0758 0.41924 0.0
C4074 C 0.36842 0.10136 0.41842 0.0
C4075 C 0.36806 0.09803 0.38715 0.0
C4076 C 0.3863 0.11329 0.41532 0.0
C4077 C 0.39555 0.13 0.42446 0.0
C4078 C 0.38476 0.13473 0.4346 0.0
C4079 C 0.36769 0.12152 0.44113 0.0
C4080 C 0.35937 0.10512 0.43143 0.0
H4081 H 0.3639 0.095 0.37632 0.0
H4082 H 0.36671 0.10651 0.39111 0.0
H4083 H 0.37908 0.10207 0.38672 0.0
H4084 H 0.3916 0.11033 0.4081 0.0
H4085 H 0.40593 0.13765 0.42186 0.0
H4086 H 0.99573 0.31685 0.37568 0.0
H4087 H 0.97447 0.30336 0.38824 0.0
H4088 H 0.95173 0.29458 0.34986 0.0
H4089 H 0.97291 0.30773 0.33717 0.0
H4090 H 0.95418 0.30788 0.39141 0.0
H4091 H 0.93421 0.25628 0.36507 0.0
H4092 H 0.95153 0.27053 0.36321 0.0
H4093 H 0.93808 0.26946 0.35293 0.0
C4094 C 0.9862 0.31194 0.36988 0.0
C4095 C 0.98601 0.31331 0.3554 0.0
C4096 C 0.97407 0.30424 0.37709 0.0
C4097 C 0.96152 0.29777 0.36996 0.0
C4098 C 0.9613 0.29917 0.35552 0.0
H4099 H 0.88342 0.27378 0.40412 0.0
H4100 H 0.90599 0.28571 0.3938 0.0
C4101 C 0.97343 0.30678 0.34829 0.0
C4102 C 0.94864 0.29011 0.37772 0.0
H4103 H 0.91829 0.25913 0.3784 0.0
C4104 C 0.94638 0.29717 0.38866 0.0
C4105 C 0.93857 0.27607 0.37429 0.0
C4106 C 0.94076 0.2676 0.36333 0.0
C4107 C 0.93415 0.29072 0.39599 0.0
C4108 C 0.92376 0.27695 0.392 0.0
C4109 C 0.92619 0.26975 0.38135 0.0
C4110 C 0.9102 0.26987 0.39857 0.0
C4111 C 0.93259 0.2987 0.40801 0.0
C4112 C 0.90484 0.25677 0.40423 0.0
C4113 C 0.89184 0.24983 0.4099 0.0
C4114 C 0.88404 0.25597 0.41021 0.0
C4115 C 0.88937 0.26901 0.40438 0.0
C4116 C 0.90229 0.27585 0.39856 0.0
H4117 H 0.94263 0.30688 0.41253 0.0
H4118 H 0.92749 0.30393 0.40422 0.0
H4119 H 0.92638 0.2917 0.4164 0.0
H4120 H 0.91069 0.25186 0.40418 0.0
H4121 H 0.88788 0.23961 0.41394 0.0
H4122 H 0.03379 0.38255 0.33396 0.0
H4123 H 0.03202 0.40109 0.32415 0.0
H4124 H 0.00666 0.37294 0.2906 0.0
H4125 H 0.00871 0.35447 0.3001 0.0
H4126 H 0.02549 0.39797 0.28117 0.0
H4127 H 0.99948 0.40492 0.32645 0.0
H4128 H 0.01547 0.4071 0.33103 0.0
H4129 H 0.00173 0.39041 0.3245 0.0
C4130 C 0.02782 0.3803 0.3245 0.0
C4131 C 0.02132 0.36702 0.31785 0.0
C4132 C 0.02676 0.39089 0.31896 0.0
C4133 C 0.01898 0.38832 0.3068 0.0
C4134 C 0.01266 0.37513 0.30003 0.0
H4135 H 0.99001 0.44006 0.27941 0.0
H4136 H 0.99223 0.4212 0.28754 0.0
C4137 C 0.01383 0.36458 0.30548 0.0
C4138 C 0.01751 0.39939 0.30105 0.0
H4139 H 0.00711 0.4218 0.30914 0.0
C4140 C 0.02143 0.40315 0.28726 0.0
C4141 C 0.01201 0.40599 0.30894 0.0
C4142 C 0.0068 0.40181 0.3235 0.0
C4143 C 0.02015 0.41346 0.2812 0.0
C4144 C 0.01513 0.42042 0.28927 0.0
C4145 C 0.01107 0.41654 0.303 0.0
C4146 C 0.01379 0.43163 0.28366 0.0
C4147 C 0.02391 0.41657 0.26612 0.0
C4148 C 0.02519 0.44376 0.2788 0.0
C4149 C 0.02391 0.45448 0.27402 0.0
C4150 C 0.01124 0.45333 0.27416 0.0
C4151 C 0.99987 0.44119 0.27908 0.0
C4152 C 0.00113 0.43044 0.28376 0.0
H4153 H 0.02376 0.40779 0.26042 0.0
H4154 H 0.01689 0.41879 0.26072 0.0
H4155 H 0.03437 0.42586 0.2656 0.0
H4156 H 0.03512 0.44505 0.27895 0.0
H4157 H 0.03285 0.46379 0.2704 0.0
H4158 H 0.6552 0.64512 0.32255 0.0
H4159 H 0.642 0.62313 0.30914 0.0
H4160 H 0.61816 0.63758 0.29079 0.0
H4161 H 0.63148 0.65977 0.30403 0.0
H4162 H 0.6141 0.60373 0.30936 0.0
H4163 H 0.63084 0.62486 0.25676 0.0
H4164 H 0.63943 0.63478 0.27255 0.0
H4165 H 0.62373 0.63287 0.26717 0.0
C4166 C 0.64718 0.64367 0.31565 0.0
C4167 C 0.64444 0.65424 0.31431 0.0
C4168 C 0.63963 0.63107 0.308 0.0
C4169 C 0.62924 0.6288 0.29883 0.0
C4170 C 0.62633 0.63923 0.2976 0.0
H4171 H 0.57465 0.55585 0.23447 0.0
H4172 H 0.58795 0.58175 0.25098 0.0
C4173 C 0.6339 0.65188 0.30524 0.0
C4174 C 0.62137 0.61539 0.29075 0.0
H4175 H 0.6141 0.60094 0.25768 0.0
C4176 C 0.61411 0.6031 0.29806 0.0
C4177 C 0.62132 0.61463 0.27601 0.0
C4178 C 0.62933 0.62746 0.26762 0.0
C4179 C 0.60679 0.59004 0.29102 0.0
C4180 C 0.60697 0.58927 0.2763 0.0
C4181 C 0.61399 0.60156 0.26898 0.0
C4182 C 0.60029 0.57589 0.26823 0.0
C4183 C 0.59864 0.57728 0.29945 0.0
C4184 C 0.60443 0.56313 0.27224 0.0
C4185 C 0.59714 0.54699 0.26215 0.0
C4186 C 0.58335 0.54362 0.24978 0.0
C4187 C 0.58183 0.5578 0.24271 0.0
C4188 C 0.58963 0.57357 0.25345 0.0
H4189 H 0.59626 0.57993 0.3099 0.0
H4190 H 0.58895 0.56956 0.29405 0.0
H4191 H 0.60462 0.57241 0.30105 0.0
H4192 H 0.61155 0.56525 0.2806 0.0
H4193 H 0.59866 0.53883 0.26515 0.0
H4194 H 0.35813 0.00817 0.31734 0.0
H4195 H 0.37603 0.00661 0.30559 0.0
H4196 H 0.36299 0.96812 0.32541 0.0
H4197 H 0.34519 0.96971 0.33742 0.0
H4198 H 0.3905 0.98632 0.32722 0.0
H4199 H 0.37238 0.98106 0.27272 0.0
H4200 H 0.37446 0.99602 0.28221 0.0
H4201 H 0.36187 0.97887 0.28754 0.0
C4202 C 0.35901 0.99933 0.31915 0.0
C4203 C 0.35021 0.98904 0.3283 0.0
C4204 C 0.36919 0.99841 0.31235 0.0
C4205 C 0.37068 0.98713 0.31444 0.0
C4206 C 0.36195 0.97687 0.32359 0.0
H4207 H 0.42155 0.9657 0.26677 0.0
H4208 H 0.40244 0.96612 0.27723 0.0
C4209 C 0.35179 0.9778 0.33044 0.0
C4210 C 0.38171 0.98633 0.30756 0.0
H4211 H 0.39472 0.98549 0.27578 0.0
C4212 C 0.39139 0.98607 0.31597 0.0
C4213 C 0.38274 0.98583 0.29288 0.0
C4214 C 0.37224 0.98532 0.28329 0.0
C4215 C 0.40224 0.98559 0.31012 0.0
C4216 C 0.40358 0.98566 0.29547 0.0
C4217 C 0.39374 0.98561 0.28703 0.0
C4218 C 0.4151 0.9857 0.28872 0.0
C4219 C 0.41206 0.98484 0.31969 0.0
C4220 C 0.42849 0.99669 0.29152 0.0
C4221 C 0.43939 0.99645 0.2856 0.0
C4222 C 0.43706 0.98531 0.27662 0.0
C4223 C 0.42361 0.97445 0.27358 0.0
C4224 C 0.41272 0.97468 0.27955 0.0
H4225 H 0.40762 0.9811 0.33008 0.0
H4226 H 0.41517 0.97783 0.31512 0.0
H4227 H 0.42131 0.99538 0.32126 0.0
H4228 H 0.43053 0.00541 0.29837 0.0
H4229 H 0.44964 0.00492 0.28816 0.0
H4230 H 0.62773 0.96966 0.32793 0.0
H4231 H 0.61082 0.96923 0.31255 0.0
H4232 H 0.63881 0.01241 0.30415 0.0
H4233 H 0.6559 0.01287 0.31928 0.0
H4234 H 0.59877 0.9847 0.31343 0.0
H4235 H 0.6287 0.99417 0.26519 0.0
H4236 H 0.63313 0.98965 0.28123 0.0
H4237 H 0.63733 0.00714 0.27897 0.0
C4238 C 0.63029 0.97908 0.32284 0.0
C4239 C 0.64321 0.99126 0.32472 0.0
C4240 C 0.62061 0.97881 0.31406 0.0
C4241 C 0.62366 0.99071 0.30701 0.0
C4242 C 0.63637 0.00302 0.30923 0.0
H4243 H 0.57617 0.00485 0.23767 0.0
H4244 H 0.59634 0.00869 0.25801 0.0
C4245 C 0.64609 0.00328 0.31795 0.0
C4246 C 0.61353 0.99013 0.29728 0.0
H4247 H 0.60802 0.99332 0.26313 0.0
C4248 C 0.60077 0.98655 0.30242 0.0
C4249 C 0.61622 0.99268 0.28294 0.0
C4250 C 0.62954 0.99601 0.27669 0.0
C4251 C 0.59061 0.98539 0.29361 0.0
C4252 C 0.59324 0.98769 0.27926 0.0
C4253 C 0.60607 0.99159 0.27416 0.0
C4254 C 0.5827 0.98549 0.26922 0.0
C4255 C 0.57729 0.98208 0.29981 0.0
C4256 C 0.56707 0.96865 0.26787 0.0
C4257 C 0.55422 0.96508 0.25512 0.0
C4258 C 0.55718 0.98059 0.24601 0.0
C4259 C 0.57439 0.99651 0.2442 0.0
C4260 C 0.58658 0.99902 0.25732 0.0
H4261 H 0.57825 0.98438 0.31125 0.0
H4262 H 0.57353 0.98813 0.29493 0.0
H4263 H 0.5696 0.97085 0.298 0.0
H4264 H 0.56548 0.96052 0.27461 0.0
H4265 H 0.5444 0.95546 0.25499 0.0
H4266 H 0.03875 0.67288 0.32579 0.0
H4267 H 0.03562 0.654 0.30996 0.0
H4268 H 0.99357 0.64054 0.30361 0.0
H4269 H 0.9967 0.65964 0.31916 0.0
H4270 H 0.01867 0.62582 0.31109 0.0
H4271 H 0.0068 0.64462 0.26396 0.0
H4272 H 0.01347 0.65518 0.27985 0.0
H4273 H 0.99579 0.64163 0.2784 0.0
C4274 C 0.02882 0.6659 0.32104 0.0
C4275 C 0.018 0.66783 0.32363 0.0
C4276 C 0.02705 0.65511 0.312 0.0
C4277 C 0.01443 0.64602 0.30541 0.0
C4278 C 0.00348 0.64764 0.30831 0.0
H4279 H 0.99206 0.5764 0.23501 0.0
H4280 H 0.98987 0.59412 0.25606 0.0
C4281 C 0.00527 0.65852 0.31726 0.0
C4282 C 0.01287 0.63492 0.29549 0.0
H4283 H 0.00615 0.62355 0.26133 0.0
C4284 C 0.01592 0.62532 0.30022 0.0
C4285 C 0.00912 0.63418 0.28133 0.0
C4286 C 0.00621 0.64451 0.27551 0.0
C4287 C 0.0156 0.61519 0.2911 0.0
C4288 C 0.01227 0.61476 0.2769 0.0
C4289 C 0.00869 0.62395 0.27226 0.0
C4290 C 0.01351 0.60567 0.26649 0.0
C4291 C 0.01865 0.60493 0.29679 0.0
C4292 C 0.0299 0.60766 0.2644 0.0
C4293 C 0.03241 0.59761 0.25119 0.0
C4294 C 0.01655 0.5835 0.24239 0.0
C4295 C 0.00074 0.5839 0.24136 0.0
C4296 C 0.9993 0.59445 0.25492 0.0
H4297 H 0.01746 0.6043 0.30828 0.0
H4298 H 0.01183 0.59439 0.29193 0.0
H4299 H 0.0293 0.60826 0.29445 0.0
H4300 H 0.03838 0.61512 0.27099 0.0
H4301 H 0.04186 0.59789 0.25061 0.0
H4302 H 0.34704 0.34301 0.31973 0.0
H4303 H 0.36905 0.35622 0.30845 0.0
H4304 H 0.37294 0.39459 0.32298 0.0
H4305 H 0.35098 0.38146 0.33448 0.0
H4306 H 0.378 0.37626 0.28793 0.0
H4307 H 0.40805 0.39838 0.33722 0.0
H4308 H 0.39059 0.38401 0.33682 0.0
H4309 H 0.39453 0.40147 0.33516 0.0
C4310 C 0.35256 0.35426 0.32054 0.0
C4311 C 0.34729 0.36118 0.32811 0.0
C4312 C 0.36512 0.36179 0.31405 0.0
C4313 C 0.3727 0.37637 0.31504 0.0
C4314 C 0.36736 0.38333 0.32231 0.0
H4315 H 0.45363 0.43845 0.28819 0.0
H4316 H 0.43024 0.42628 0.29649 0.0
C4317 C 0.35478 0.37581 0.32882 0.0
C4318 C 0.38625 0.38424 0.30858 0.0
H4319 H 0.42 0.40636 0.31622 0.0
C4320 C 0.3872 0.38285 0.29409 0.0
C4321 C 0.39822 0.39279 0.31667 0.0
C4322 C 0.39788 0.3942 0.33234 0.0
C4323 C 0.39981 0.38995 0.28744 0.0
C4324 C 0.41177 0.39845 0.29554 0.0
C4325 C 0.4108 0.39987 0.31002 0.0
C4326 C 0.42547 0.40585 0.28933 0.0
C4327 C 0.40018 0.38844 0.27179 0.0
C4328 C 0.43053 0.3984 0.28249 0.0
C4329 C 0.44387 0.40535 0.27766 0.0
C4330 C 0.45239 0.41986 0.27963 0.0
C4331 C 0.44724 0.42729 0.28636 0.0
C4332 C 0.43391 0.42035 0.29114 0.0
H4333 H 0.39014 0.38478 0.26687 0.0
H4334 H 0.4079 0.39846 0.26729 0.0
H4335 H 0.40294 0.38067 0.26907 0.0
H4336 H 0.42432 0.38717 0.28128 0.0
H4337 H 0.44767 0.39935 0.27274 0.0
H4338 H 0.31344 0.29113 0.35605 0.0
H4339 H 0.32242 0.27772 0.36525 0.0
H4340 H 0.3473 0.31134 0.39493 0.0
H4341 H 0.33828 0.3247 0.38598 0.0
H4342 H 0.34937 0.28602 0.36476 0.0
H4343 H 0.33134 0.27771 0.41915 0.0
H4344 H 0.32414 0.28291 0.40591 0.0
H4345 H 0.33984 0.29559 0.41463 0.0
C4346 C 0.32064 0.29557 0.3647 0.0
C4347 C 0.32516 0.30901 0.37026 0.0
C4348 C 0.32577 0.2879 0.36994 0.0
C4349 C 0.3354 0.29346 0.38089 0.0
C4350 C 0.33966 0.30671 0.38669 0.0
H4351 H 0.39396 0.27843 0.41629 0.0
H4352 H 0.37899 0.28675 0.4106 0.0
C4353 C 0.33456 0.31438 0.38146 0.0
C4354 C 0.342 0.28605 0.38538 0.0
H4355 H 0.34956 0.2742 0.41393 0.0
C4356 C 0.34925 0.28324 0.37547 0.0
C4357 C 0.34189 0.28252 0.39938 0.0
C4358 C 0.33377 0.28471 0.41036 0.0
C4359 C 0.35678 0.27744 0.37925 0.0
C4360 C 0.35689 0.27417 0.39329 0.0
C4361 C 0.34946 0.27674 0.40318 0.0
C4362 C 0.36505 0.26848 0.39788 0.0
C4363 C 0.36495 0.27531 0.36829 0.0
C4364 C 0.36194 0.25533 0.39289 0.0
C4365 C 0.37043 0.25056 0.39615 0.0
C4366 C 0.38209 0.25879 0.40459 0.0
C4367 C 0.38494 0.27179 0.40994 0.0
C4368 C 0.37643 0.27655 0.40668 0.0
H4369 H 0.36598 0.28094 0.3587 0.0
H4370 H 0.37527 0.27886 0.37237 0.0
H4371 H 0.35981 0.26406 0.36537 0.0
H4372 H 0.35314 0.24891 0.38618 0.0
H4373 H 0.36808 0.24057 0.39178 0.0
H4374 H 0.7183 0.02452 0.36094 0.0
H4375 H 0.73088 0.04847 0.37057 0.0
H4376 H 0.69326 0.04441 0.38312 0.0
H4377 H 0.68061 0.02045 0.37367 0.0
H4378 H 0.72761 0.06976 0.36183 0.0
H4379 H 0.7173 0.0616 0.41829 0.0
H4380 H 0.71467 0.04785 0.40608 0.0
H4381 H 0.70238 0.05285 0.40727 0.0
C4382 C 0.71271 0.02866 0.3659 0.0
C4383 C 0.69845 0.02057 0.36653 0.0
C4384 C 0.71991 0.04234 0.37139 0.0
C4385 C 0.71302 0.04815 0.37772 0.0
C4386 C 0.69881 0.04004 0.37855 0.0
H4387 H 0.73413 0.13037 0.40696 0.0
H4388 H 0.72297 0.10531 0.40157 0.0
C4389 C 0.69159 0.02637 0.37304 0.0
C4390 C 0.72057 0.06298 0.38251 0.0
H4391 H 0.72728 0.08481 0.41096 0.0
C4392 C 0.72766 0.07306 0.37259 0.0
C4393 C 0.7205 0.06723 0.39654 0.0
C4394 C 0.71341 0.05683 0.4077 0.0
C4395 C 0.73443 0.08731 0.37625 0.0
C4396 C 0.73436 0.09158 0.39028 0.0
C4397 C 0.72733 0.0815 0.40023 0.0
C4398 C 0.74133 0.10649 0.3947 0.0
C4399 C 0.74122 0.09764 0.36495 0.0
C4400 C 0.75539 0.11536 0.39301 0.0
C4401 C 0.76173 0.12963 0.39599 0.0
C4402 C 0.75417 0.13527 0.40092 0.0
C4403 C 0.74019 0.12628 0.4032 0.0
C4404 C 0.73383 0.112 0.40013 0.0
H4405 H 0.73738 0.09272 0.3544 0.0
H4406 H 0.7396 0.10639 0.36643 0.0
H4407 H 0.75232 0.10196 0.36535 0.0
H4408 H 0.76141 0.11128 0.38909 0.0
H4409 H 0.77252 0.13632 0.39415 0.0
H4410 H 0.97402 0.69392 0.35838 0.0
H4411 H 0.95111 0.68402 0.3676 0.0
H4412 H 0.95377 0.65146 0.38591 0.0
H4413 H 0.97669 0.66137 0.37696 0.0
H4414 H 0.92898 0.65786 0.36134 0.0
H4415 H 0.93986 0.66449 0.4182 0.0
H4416 H 0.95296 0.67353 0.40552 0.0
H4417 H 0.94684 0.6557 0.40897 0.0
C4418 C 0.96979 0.68475 0.3645 0.0
C4419 C 0.9772 0.67845 0.36695 0.0
C4420 C 0.9567 0.67911 0.36977 0.0
C4421 C 0.95082 0.66713 0.37763 0.0
C4422 C 0.95823 0.6609 0.38016 0.0
H4423 H 0.87072 0.60855 0.408 0.0
H4424 H 0.89499 0.62189 0.40251 0.0
C4425 C 0.97131 0.66653 0.37494 0.0
C4426 C 0.9366 0.6606 0.38235 0.0
H4427 H 0.91662 0.64941 0.41112 0.0
C4428 C 0.92629 0.65615 0.37223 0.0
C4429 C 0.93311 0.65831 0.39657 0.0
C4430 C 0.94378 0.66337 0.40796 0.0
C4431 C 0.91255 0.64914 0.3759 0.0
C4432 C 0.90905 0.64673 0.3901 0.0
C4433 C 0.91935 0.65128 0.40024 0.0
C4434 C 0.89471 0.63928 0.39452 0.0
C4435 C 0.90187 0.64399 0.36449 0.0
C4436 C 0.88664 0.64482 0.39217 0.0
C4437 C 0.87282 0.63724 0.39529 0.0
C4438 C 0.86687 0.62406 0.40097 0.0
C4439 C 0.87508 0.61874 0.40376 0.0
C4440 C 0.88891 0.62632 0.40061 0.0
H4441 H 0.90601 0.64377 0.35409 0.0
H4442 H 0.89316 0.63339 0.36651 0.0
H4443 H 0.898 0.65105 0.36415 0.0
H4444 H 0.89097 0.65489 0.38767 0.0
H4445 H 0.86671 0.64155 0.39297 0.0
H4446 H 0.34789 0.00037 0.71234 0.0
H4447 H 0.36357 0.99578 0.72414 0.0
H4448 H 0.39566 0.02311 0.69685 0.0
H4449 H 0.38005 0.02789 0.68501 0.0
H4450 H 0.37727 0.9841 0.7108 0.0
H4451 H 0.41349 0.0359 0.73609 0.0
H4452 H 0.39687 0.03111 0.72981 0.0
H4453 H 0.41039 0.03579 0.71775 0.0
C4454 C 0.35831 0.00553 0.70891 0.0
C4455 C 0.36271 0.01448 0.69771 0.0
C4456 C 0.36726 0.00289 0.71568 0.0
C4457 C 0.38079 0.00921 0.71145 0.0
C4458 C 0.38531 0.01832 0.70042 0.0
H4459 H 0.45375 0.00363 0.74352 0.0
H4460 H 0.43678 0.01037 0.72808 0.0
C4461 C 0.37635 0.02097 0.69362 0.0
C4462 C 0.38986 0.0055 0.71804 0.0
H4463 H 0.41873 0.01852 0.73788 0.0
C4464 C 0.38631 0.99162 0.71677 0.0
C4465 C 0.40174 0.01538 0.72562 0.0
C4466 C 0.40585 0.03037 0.72753 0.0
C4467 C 0.3943 0.9873 0.72292 0.0
C4468 C 0.40595 0.99708 0.73085 0.0
C4469 C 0.40971 0.01104 0.73186 0.0
C4470 C 0.4142 0.993 0.73841 0.0
C4471 C 0.39031 0.97238 0.72046 0.0
C4472 C 0.40584 0.97853 0.74978 0.0
C4473 C 0.41546 0.97321 0.75931 0.0
C4474 C 0.43419 0.98538 0.75877 0.0
C4475 C 0.44281 0.99759 0.74443 0.0
C4476 C 0.43225 0.00211 0.73538 0.0
H4477 H 0.38484 0.96803 0.71031 0.0
H4478 H 0.39928 0.97134 0.72055 0.0
H4479 H 0.38329 0.96601 0.72874 0.0
H4480 H 0.39497 0.97316 0.75112 0.0
H4481 H 0.41071 0.96546 0.76711 0.0
H4482 H 0.0002 0.36529 0.67283 0.0
H4483 H 0.99716 0.38281 0.68485 0.0
H4484 H 0.99056 0.3621 0.72345 0.0
H4485 H 0.99358 0.34449 0.71154 0.0
H4486 H 0.97268 0.37612 0.69955 0.0
H4487 H 0.01909 0.40411 0.73337 0.0
H4488 H 0.01786 0.39377 0.71801 0.0
H4489 H 0.00954 0.38543 0.73371 0.0
C4490 C 0.99827 0.36454 0.68391 0.0
C4491 C 0.99711 0.35348 0.69122 0.0
C4492 C 0.99652 0.37455 0.69075 0.0
C4493 C 0.99375 0.37379 0.70504 0.0
C4494 C 0.99288 0.36296 0.71245 0.0
H4495 H 0.95734 0.41353 0.75047 0.0
H4496 H 0.96347 0.39702 0.74165 0.0
C4497 C 0.99455 0.35289 0.70561 0.0
C4498 C 0.99085 0.38379 0.71195 0.0
H4499 H 0.00259 0.41015 0.7368 0.0
C4500 C 0.9792 0.38356 0.7077 0.0
C4501 C 0.99944 0.39349 0.72252 0.0
C4502 C 0.01225 0.39436 0.72715 0.0
C4503 C 0.97586 0.39276 0.71381 0.0
C4504 C 0.98434 0.40235 0.7245 0.0
C4505 C 0.99606 0.40267 0.72868 0.0
C4506 C 0.98139 0.41245 0.73102 0.0
C4507 C 0.9634 0.39232 0.70863 0.0
C4508 C 0.98967 0.4266 0.72826 0.0
C4509 C 0.98619 0.43601 0.73325 0.0
C4510 C 0.97446 0.43144 0.74122 0.0
C4511 C 0.96647 0.41733 0.7444 0.0
C4512 C 0.96992 0.40791 0.73935 0.0
H4513 H 0.95936 0.3861 0.69867 0.0
H4514 H 0.95532 0.38754 0.71653 0.0
H4515 H 0.96571 0.403 0.70707 0.0
H4516 H 0.99856 0.43027 0.72184 0.0
H4517 H 0.99248 0.4468 0.73058 0.0
H4518 H 0.65217 0.66367 0.70081 0.0
H4519 H 0.6309 0.65042 0.7133 0.0
H4520 H 0.62994 0.61255 0.70341 0.0
H4521 H 0.65137 0.62577 0.69098 0.0
H4522 H 0.60606 0.62888 0.70214 0.0
H4523 H 0.62358 0.611 0.74565 0.0
H4524 H 0.63521 0.62495 0.73478 0.0
H4525 H 0.62731 0.60719 0.72848 0.0
C4526 C 0.64751 0.65254 0.70135 0.0
C4527 C 0.65349 0.64578 0.69491 0.0
C4528 C 0.63534 0.64498 0.7085 0.0
C4529 C 0.62893 0.63054 0.70941 0.0
C4530 C 0.63486 0.62373 0.70304 0.0
H4531 H 0.55095 0.56917 0.74425 0.0
H4532 H 0.57312 0.58081 0.7329 0.0
C4533 C 0.64706 0.63129 0.69587 0.0
C4534 C 0.61574 0.62261 0.71654 0.0
H4535 H 0.59998 0.60217 0.74416 0.0
C4536 C 0.60473 0.62306 0.71134 0.0
C4537 C 0.61405 0.61498 0.7285 0.0
C4538 C 0.62567 0.61455 0.73479 0.0
C4539 C 0.59204 0.61605 0.71776 0.0
C4540 C 0.59039 0.60858 0.72982 0.0
C4541 C 0.60132 0.60794 0.73492 0.0
C4542 C 0.57741 0.60159 0.73739 0.0
C4543 C 0.58044 0.61658 0.71152 0.0
C4544 C 0.57266 0.60945 0.74386 0.0
C4545 C 0.56009 0.60286 0.7504 0.0
C4546 C 0.55211 0.58828 0.75073 0.0
C4547 C 0.557 0.58043 0.74439 0.0
C4548 C 0.56961 0.58704 0.73787 0.0
H4549 H 0.58242 0.61987 0.70057 0.0
H4550 H 0.5708 0.60628 0.71179 0.0
H4551 H 0.57907 0.6242 0.7177 0.0
H4552 H 0.5786 0.6207 0.74369 0.0
H4553 H 0.55648 0.60915 0.75502 0.0
H4554 H 0.65422 0.6788 0.63936 0.0
H4555 H 0.64744 0.6931 0.62807 0.0
H4556 H 0.68213 0.73014 0.64657 0.0
H4557 H 0.68891 0.71585 0.65816 0.0
H4558 H 0.65827 0.72953 0.64982 0.0
H4559 H 0.66364 0.71729 0.59467 0.0
H4560 H 0.65327 0.70199 0.60434 0.0
H4561 H 0.67097 0.7134 0.60893 0.0
C4562 C 0.6605 0.68999 0.64095 0.0
C4563 C 0.67213 0.69618 0.64965 0.0
C4564 C 0.65665 0.69816 0.6344 0.0
C4565 C 0.66442 0.71269 0.63627 0.0
C4566 C 0.67606 0.71894 0.6449 0.0
H4567 H 0.64659 0.77428 0.60878 0.0
H4568 H 0.65832 0.76352 0.61804 0.0
C4569 C 0.67992 0.71076 0.65151 0.0
C4570 C 0.65986 0.72123 0.62986 0.0
H4571 H 0.65041 0.72757 0.59882 0.0
C4572 C 0.65673 0.72928 0.63865 0.0
C4573 C 0.65788 0.72088 0.61529 0.0
C4574 C 0.66175 0.71303 0.60525 0.0
C4575 C 0.65111 0.7365 0.63332 0.0
C4576 C 0.64873 0.73578 0.6188 0.0
C4577 C 0.6522 0.72804 0.60996 0.0
C4578 C 0.64205 0.74244 0.61265 0.0
C4579 C 0.64725 0.74439 0.64331 0.0
C4580 C 0.62918 0.73416 0.60628 0.0
C4581 C 0.62252 0.74027 0.60092 0.0
C4582 C 0.62869 0.75479 0.60166 0.0
C4583 C 0.64167 0.76308 0.60791 0.0
C4584 C 0.64832 0.75695 0.61329 0.0
H4585 H 0.64725 0.74165 0.65429 0.0
H4586 H 0.65467 0.75571 0.64253 0.0
H4587 H 0.63702 0.74229 0.64063 0.0
H4588 H 0.62417 0.72293 0.60573 0.0
H4589 H 0.61245 0.73362 0.59635 0.0
H4590 H 0.32561 0.98297 0.65032 0.0
H4591 H 0.31241 0.96021 0.63811 0.0
H4592 H 0.27766 0.96434 0.6365 0.0
H4593 H 0.29074 0.98713 0.64881 0.0
H4594 H 0.28455 0.93605 0.64733 0.0
H4595 H 0.28589 0.95586 0.59479 0.0
H4596 H 0.29854 0.96629 0.60815 0.0
H4597 H 0.28178 0.96325 0.60947 0.0
C4598 C 0.31516 0.97906 0.64737 0.0
C4599 C 0.30923 0.98688 0.6505 0.0
C4600 C 0.30764 0.96605 0.64043 0.0
C4601 C 0.29413 0.9607 0.63636 0.0
C4602 C 0.28813 0.9684 0.6395 0.0
H4603 H 0.23497 0.8848 0.57762 0.0
H4604 H 0.24896 0.91093 0.59367 0.0
C4605 C 0.29561 0.98137 0.64655 0.0
C4606 C 0.28631 0.947 0.62889 0.0
H4607 H 0.27384 0.93161 0.59677 0.0
C4608 C 0.28218 0.93502 0.63627 0.0
C4609 C 0.28316 0.94578 0.61453 0.0
C4610 C 0.2876 0.95844 0.60617 0.0
C4611 C 0.27485 0.92173 0.62966 0.0
C4612 C 0.272 0.92051 0.61518 0.0
C4613 C 0.27601 0.93253 0.60786 0.0
C4614 C 0.26508 0.907 0.6073 0.0
C4615 C 0.2699 0.90923 0.63843 0.0
C4616 C 0.27116 0.89539 0.60899 0.0
C4617 C 0.26345 0.87917 0.59897 0.0
C4618 C 0.24754 0.8744 0.58948 0.0
C4619 C 0.24354 0.88751 0.58434 0.0
C4620 C 0.25188 0.90343 0.59485 0.0
H4621 H 0.26868 0.91163 0.64948 0.0
H4622 H 0.26001 0.90031 0.6345 0.0
H4623 H 0.27749 0.90615 0.63829 0.0
H4624 H 0.27968 0.89827 0.61583 0.0
H4625 H 0.26626 0.87167 0.60071 0.0
H4626 H 0.02625 0.31875 0.6519 0.0
H4627 H 0.0473 0.32676 0.63917 0.0
H4628 H 0.06941 0.3597 0.67037 0.0
H4629 H 0.04847 0.35166 0.68329 0.0
H4630 H 0.0639 0.35218 0.6278 0.0
H4631 H 0.09247 0.34255 0.66696 0.0
H4632 H 0.0744 0.33524 0.66798 0.0
H4633 H 0.08618 0.35298 0.67379 0.0
C4634 C 0.03561 0.32762 0.65614 0.0
C4635 C 0.03568 0.33453 0.66865 0.0
C4636 C 0.04763 0.33219 0.64883 0.0
C4637 C 0.05995 0.3437 0.65391 0.0
C4638 C 0.06007 0.35061 0.66641 0.0
H4639 H 0.13343 0.39759 0.60937 0.0
H4640 H 0.11136 0.38643 0.62078 0.0
C4641 C 0.04806 0.34603 0.67374 0.0
C4642 C 0.07258 0.34887 0.64584 0.0
H4643 H 0.10524 0.35664 0.64813 0.0
C4644 C 0.07291 0.35306 0.6322 0.0
C4645 C 0.08427 0.34984 0.65153 0.0
C4646 C 0.08432 0.34479 0.66582 0.0
C4647 C 0.08473 0.35855 0.62423 0.0
C4648 C 0.0966 0.36011 0.63016 0.0
C4649 C 0.09616 0.35556 0.64365 0.0
C4650 C 0.10965 0.36664 0.62264 0.0
C4651 C 0.08436 0.36253 0.60951 0.0
C4652 C 0.11615 0.35931 0.62014 0.0
C4653 C 0.12878 0.36569 0.61367 0.0
C4654 C 0.13513 0.37951 0.60953 0.0
C4655 C 0.12862 0.38683 0.61213 0.0
C4656 C 0.11601 0.38046 0.61861 0.0
H4657 H 0.0738 0.35708 0.60525 0.0
H4658 H 0.08861 0.37388 0.60942 0.0
H4659 H 0.09053 0.36009 0.60251 0.0
H4660 H 0.1115 0.34869 0.62331 0.0
H4661 H 0.1337 0.3599 0.6121 0.0
H4662 H 0.31158 0.35117 0.69034 0.0
H4663 H 0.30135 0.36162 0.67745 0.0
H4664 H 0.29647 0.33562 0.64122 0.0
H4665 H 0.30651 0.325 0.65404 0.0
H4666 H 0.31153 0.37626 0.6533 0.0
H4667 H 0.25915 0.3309 0.64412 0.0
H4668 H 0.27056 0.33114 0.65696 0.0
H4669 H 0.27213 0.32769 0.63883 0.0
C4670 C 0.30815 0.34752 0.67969 0.0
C4671 C 0.30985 0.33723 0.67323 0.0
C4672 C 0.30233 0.35353 0.67234 0.0
C4673 C 0.29801 0.34929 0.65844 0.0
C4674 C 0.29948 0.33885 0.65203 0.0
H4675 H 0.27087 0.37704 0.59096 0.0
H4676 H 0.27825 0.36539 0.60622 0.0
C4677 C 0.30529 0.33284 0.65936 0.0
C4678 C 0.29283 0.35641 0.65034 0.0
H4679 H 0.26575 0.35082 0.63087 0.0
C4680 C 0.30147 0.37074 0.64851 0.0
C4681 C 0.27972 0.34916 0.64408 0.0
C4682 C 0.26979 0.3339 0.64618 0.0
C4683 C 0.2975 0.37795 0.64025 0.0
C4684 C 0.28446 0.37066 0.63384 0.0
C4685 C 0.27575 0.35637 0.6358 0.0
C4686 C 0.2798 0.37762 0.62477 0.0
C4687 C 0.30744 0.39321 0.6381 0.0
C4688 C 0.27814 0.38827 0.63019 0.0
C4689 C 0.2739 0.3949 0.62151 0.0
C4690 C 0.27109 0.39089 0.6073 0.0
C4691 C 0.27277 0.38021 0.60192 0.0
C4692 C 0.27699 0.37357 0.6106 0.0
H4693 H 0.31798 0.39648 0.6411 0.0
H4694 H 0.30732 0.39568 0.62704 0.0
H4695 H 0.30449 0.39943 0.64463 0.0
H4696 H 0.28011 0.39143 0.64114 0.0
H4697 H 0.27282 0.40319 0.6259 0.0
H4698 H 0.66081 0.98765 0.64126 0.0
H4699 H 0.64906 0.96371 0.63171 0.0
H4700 H 0.68147 0.95947 0.64686 0.0
H4701 H 0.69325 0.98337 0.65661 0.0
H4702 H 0.65754 0.95033 0.61227 0.0
H4703 H 0.64715 0.92736 0.6644 0.0
H4704 H 0.6526 0.94528 0.66211 0.0
H4705 H 0.6647 0.94003 0.66123 0.0
C4706 C 0.66548 0.98166 0.64253 0.0
C4707 C 0.67792 0.98739 0.64983 0.0
C4708 C 0.65876 0.96799 0.63703 0.0
C4709 C 0.6643 0.95977 0.63876 0.0
C4710 C 0.67691 0.96558 0.64563 0.0
H4711 H 0.63258 0.87208 0.62157 0.0
H4712 H 0.64731 0.89707 0.62699 0.0
C4713 C 0.68365 0.97925 0.65115 0.0
C4714 C 0.65668 0.94502 0.6337 0.0
H4715 H 0.64078 0.91184 0.64483 0.0
C4716 C 0.65387 0.9419 0.61936 0.0
C4717 C 0.65189 0.93406 0.64299 0.0
C4718 C 0.65411 0.93678 0.65855 0.0
C4719 C 0.64653 0.92807 0.61405 0.0
C4720 C 0.64169 0.91711 0.62337 0.0
C4721 C 0.64456 0.92026 0.63769 0.0
C4722 C 0.63337 0.90226 0.61865 0.0
C4723 C 0.64421 0.92532 0.59852 0.0
C4724 C 0.62068 0.89689 0.61205 0.0
C4725 C 0.61229 0.88263 0.60886 0.0
C4726 C 0.61642 0.87348 0.6123 0.0
C4727 C 0.62921 0.87891 0.61868 0.0
C4728 C 0.63761 0.89316 0.62181 0.0
H4729 H 0.65169 0.93451 0.59266 0.0
H4730 H 0.64486 0.91626 0.59501 0.0
H4731 H 0.6339 0.92297 0.59583 0.0
H4732 H 0.61705 0.90366 0.60982 0.0
H4733 H 0.6024 0.87867 0.60412 0.0
H4734 H 0.00683 0.71274 0.65496 0.0
H4735 H 0.02964 0.7251 0.64505 0.0
H4736 H 0.03035 0.68754 0.64495 0.0
H4737 H 0.00762 0.6751 0.65484 0.0
H4738 H 0.05347 0.72727 0.65786 0.0
H4739 H 0.04167 0.70205 0.60474 0.0
H4740 H 0.02889 0.70187 0.61574 0.0
H4741 H 0.03478 0.69045 0.61892 0.0
C4742 C 0.0118 0.70708 0.65274 0.0
C4743 C 0.00541 0.69294 0.6557 0.0
C4744 C 0.02481 0.71416 0.64708 0.0
C4745 C 0.03157 0.70717 0.64413 0.0
C4746 C 0.0252 0.69305 0.64695 0.0
H4747 H 0.11097 0.72882 0.61547 0.0
H4748 H 0.08697 0.71709 0.62183 0.0
C4749 C 0.01224 0.68599 0.65269 0.0
C4750 C 0.04561 0.71481 0.63883 0.0
H4751 H 0.06498 0.71652 0.61115 0.0
C4752 C 0.056 0.72504 0.6476 0.0
C4753 C 0.04884 0.71172 0.62551 0.0
C4754 C 0.03797 0.701 0.6156 0.0
C4755 C 0.06964 0.73205 0.64356 0.0
C4756 C 0.0729 0.72904 0.63018 0.0
C4757 C 0.06246 0.71886 0.62136 0.0
C4758 C 0.08713 0.73612 0.62533 0.0
C4759 C 0.08044 0.74226 0.65386 0.0
C4760 C 0.09506 0.75066 0.62476 0.0
C4761 C 0.10878 0.75736 0.62132 0.0
C4762 C 0.11478 0.74963 0.61816 0.0
C4763 C 0.10663 0.73503 0.618 0.0
C4764 C 0.09294 0.72833 0.62159 0.0
H4765 H 0.07669 0.74048 0.66472 0.0
H4766 H 0.08961 0.74157 0.65335 0.0
H4767 H 0.08345 0.75298 0.65138 0.0
H4768 H 0.0907 0.75685 0.62721 0.0
H4769 H 0.11477 0.76862 0.62138 0.0
H4770 H 0.96437 0.62825 0.70268 0.0
H4771 H 0.96975 0.61369 0.71586 0.0
H4772 H 0.99607 0.61541 0.68307 0.0
H4773 H 0.99078 0.62993 0.66979 0.0
H4774 H 0.96811 0.58697 0.70713 0.0
H4775 H 0.0201 0.63214 0.72006 0.0
H4776 H 0.00649 0.63419 0.71441 0.0
H4777 H 0.01495 0.62926 0.70198 0.0
C4778 C 0.97119 0.62541 0.69819 0.0
C4779 C 0.97725 0.63036 0.68523 0.0
C4780 C 0.97422 0.61708 0.70573 0.0
C4781 C 0.98341 0.61364 0.70047 0.0
C4782 C 0.98905 0.61809 0.68732 0.0
H4783 H 0.01508 0.56564 0.73233 0.0
H4784 H 0.00669 0.57663 0.71736 0.0
C4785 C 0.98599 0.62636 0.67975 0.0
C4786 C 0.98767 0.60605 0.70906 0.0
H4787 H 0.01468 0.61024 0.72757 0.0
C4788 C 0.97828 0.59202 0.7116 0.0
C4789 C 0.00092 0.61275 0.71491 0.0
C4790 C 0.01122 0.62794 0.71283 0.0
C4791 C 0.98191 0.58446 0.71977 0.0
C4792 C 0.99517 0.59116 0.72552 0.0
C4793 C 0.00453 0.60518 0.72303 0.0
C4794 C 0.99948 0.58385 0.73443 0.0
C4795 C 0.97164 0.56937 0.72227 0.0
C4796 C 0.99816 0.58436 0.74892 0.0
C4797 C 0.00289 0.57809 0.75747 0.0
C4798 C 0.00902 0.57123 0.75164 0.0
C4799 C 0.01029 0.57074 0.73709 0.0
C4800 C 0.00552 0.57699 0.72854 0.0
H4801 H 0.96171 0.56565 0.71705 0.0
H4802 H 0.9756 0.56288 0.71836 0.0
H4803 H 0.97003 0.56788 0.73364 0.0
H4804 H 0.99361 0.58974 0.75361 0.0
H4805 H 0.00191 0.57874 0.76866 0.0
H4806 H 0.37474 0.36996 0.67432 0.0
H4807 H 0.38828 0.39314 0.68554 0.0
H4808 H 0.36918 0.37665 0.72474 0.0
H4809 H 0.35581 0.35337 0.71366 0.0
H4810 H 0.37773 0.40738 0.69749 0.0
H4811 H 0.4089 0.40113 0.73652 0.0
H4812 H 0.40002 0.3886 0.7223 0.0
H4813 H 0.39099 0.38862 0.73758 0.0
C4814 C 0.37358 0.37121 0.68538 0.0
C4815 C 0.36419 0.35982 0.69309 0.0
C4816 C 0.38132 0.38447 0.69178 0.0
C4817 C 0.37984 0.38661 0.70601 0.0
C4818 C 0.37072 0.37521 0.71382 0.0
H4819 H 0.39944 0.46455 0.74765 0.0
H4820 H 0.38867 0.43996 0.74009 0.0
C4821 C 0.36303 0.36191 0.70745 0.0
C4822 C 0.38695 0.40095 0.71231 0.0
H4823 H 0.40889 0.42213 0.73845 0.0
C4824 C 0.38457 0.4106 0.70641 0.0
C4825 C 0.3959 0.40514 0.72394 0.0
C4826 C 0.39922 0.39538 0.73039 0.0
C4827 C 0.3908 0.42428 0.7119 0.0
C4828 C 0.39954 0.42839 0.72365 0.0
C4829 C 0.40205 0.41884 0.72951 0.0
C4830 C 0.40644 0.44277 0.7296 0.0
C4831 C 0.38816 0.43437 0.70504 0.0
C4832 C 0.42003 0.45232 0.72638 0.0
C4833 C 0.42616 0.46632 0.73062 0.0
C4834 C 0.41883 0.47095 0.73827 0.0
C4835 C 0.40534 0.46123 0.74188 0.0
C4836 C 0.39919 0.44723 0.73757 0.0
H4837 H 0.38221 0.42995 0.69515 0.0
H4838 H 0.38242 0.43721 0.71224 0.0
H4839 H 0.39793 0.44407 0.70282 0.0
H4840 H 0.42572 0.44904 0.72015 0.0
H4841 H 0.43651 0.47361 0.72758 0.0
H4842 H 0.64797 0.99911 0.70216 0.0
H4843 H 0.62771 0.99633 0.71322 0.0
H4844 H 0.6325 0.03084 0.6909 0.0
H4845 H 0.65268 0.03358 0.67959 0.0
H4846 H 0.62466 0.01509 0.72997 0.0
H4847 H 0.59333 0.9998 0.68143 0.0
H4848 H 0.609 0.00012 0.68232 0.0
H4849 H 0.60935 0.01603 0.68081 0.0
C4850 C 0.64472 0.00611 0.69957 0.0
C4851 C 0.65189 0.01651 0.6899 0.0
C4852 C 0.63315 0.00452 0.70593 0.0
C4853 C 0.6285 0.01324 0.70272 0.0
C4854 C 0.63577 0.02382 0.6933 0.0
H4855 H 0.5581 0.01578 0.72922 0.0
H4856 H 0.58 0.02132 0.71975 0.0
C4857 C 0.64733 0.02541 0.6869 0.0
C4858 C 0.61603 0.01124 0.70927 0.0
H4859 H 0.58385 0.00316 0.70195 0.0
C4860 C 0.61572 0.01248 0.72386 0.0
C4861 C 0.6044 0.00781 0.70125 0.0
C4862 C 0.60393 0.00573 0.6856 0.0
C4863 C 0.60411 0.01048 0.73064 0.0
C4864 C 0.59248 0.00701 0.72262 0.0
C4865 C 0.59282 0.00588 0.70805 0.0
C4866 C 0.57972 0.00417 0.72914 0.0
C4867 C 0.60441 0.01227 0.74632 0.0
C4868 C 0.57231 0.99265 0.73748 0.0
C4869 C 0.55981 0.98947 0.74289 0.0
C4870 C 0.55457 0.99782 0.74011 0.0
C4871 C 0.56203 0.00934 0.73174 0.0
C4872 C 0.57449 0.01248 0.7263 0.0
H4873 H 0.61497 0.01817 0.75059 0.0
H4874 H 0.59923 0.01775 0.74966 0.0
H4875 H 0.59896 0.00188 0.7509 0.0
H4876 H 0.57602 0.98592 0.73951 0.0
H4877 H 0.55412 0.98033 0.74901 0.0
loop_
_geom_bond_atom_site_label_1
_geom_bond_atom_site_label_2
_geom_bond_distance
_geom_bond_site_symmetry_2
_ccdc_geom_bond_type
C0 O1 1.160 . S
C0 O7 1.185 . S
O1 C0 1.160 . S
O2 Zn3 1.899 1_656 S
O2 C10 1.284 . S
Zn3 O2 1.899 1_454 S
Zn3 O4 2.032 . S
Zn3 O7 2.086 . S
Zn3 O12 1.977 1_554 S
O4 Zn3 2.032 . S
O4 C8 1.220 1_455 S
C5 O6 1.190 1_455 S
C5 O12 1.267 . S
O6 C5 1.190 1_655 S
O7 C0 1.185 . S
O7 Zn3 2.086 . S
C8 O4 1.220 1_655 S
C8 O9 1.250 . S
O9 C8 1.250 . S
C10 O2 1.284 . S
C10 O11 1.273 1_556 S
O11 C10 1.273 1_554 S
O12 Zn3 1.977 1_556 S
O12 C5 1.267 . S
C13 O14 1.160 . S
C13 O20 1.185 . S
O14 C13 1.160 . S
O15 Zn16 1.899 . S
O15 C23 1.284 . S
Zn16 O15 1.899 . S
Zn16 O17 2.032 1_554 S
Zn16 O20 2.086 . S
Zn16 O25 1.977 . S
O17 Zn16 2.032 1_556 S
O17 C21 1.278 . S
C18 O19 1.203 . S
C18 O25 1.267 . S
O19 C18 1.203 . S
O20 C13 1.185 . S
O20 Zn16 2.086 . S
C21 O17 1.278 . S
C21 O22 1.211 1_556 S
O22 C21 1.211 1_554 S
C23 O15 1.284 . S
C23 O24 1.273 . S
O24 C23 1.273 . S
O25 Zn16 1.977 . S
O25 C18 1.267 . S
C26 O27 1.160 . S
C26 O33 1.185 1_556 S
O27 C26 1.160 . S
O28 Zn29 1.899 . S
O28 C36 1.284 1_545 S
Zn29 O28 1.899 . S
Zn29 O30 2.032 1_554 S
Zn29 O33 2.086 . S
Zn29 O38 1.977 . S
O30 Zn29 2.032 1_556 S
O30 C34 1.278 . S
C31 O32 1.203 . S
C31 O38 1.267 . S
O32 C31 1.203 . S
O33 C26 1.185 1_554 S
O33 Zn29 2.086 . S
C34 O30 1.278 . S
C34 O35 1.180 1_556 S
O35 C34 1.180 1_554 S
C36 O28 1.284 1_565 S
C36 O37 1.273 . S
O37 C36 1.273 . S
O38 Zn29 1.977 . S
O38 C31 1.267 . S
C39 O40 1.160 . S
C39 O46 1.185 1_556 S
O40 C39 1.160 . S
O41 Zn42 1.899 1_455 S
O41 C49 1.284 . S
Zn42 O41 1.899 1_655 S
Zn42 O43 2.032 1_654 S
Zn42 O46 2.086 . S
Zn42 O51 1.977 . S
O43 Zn42 2.032 1_456 S
O43 C47 1.278 . S
C44 O45 1.203 1_655 S
C44 O51 1.267 . S
O45 C44 1.203 1_455 S
O46 C39 1.185 1_554 S
O46 Zn42 2.086 . S
C47 O43 1.278 . S
C47 O48 1.184 1_556 S
O48 C47 1.184 1_554 S
C49 O41 1.284 . S
C49 O50 1.273 . S
O50 C49 1.273 . S
O51 Zn42 1.977 . S
O51 C44 1.267 . S
C52 O53 1.160 . S
C52 O59 1.185 . S
O53 C52 1.160 . S
O54 Zn55 1.896 1_556 S
O54 C62 1.284 . S
Zn55 O54 1.896 1_554 S
Zn55 O56 2.036 . S
Zn55 O59 2.088 . S
Zn55 O64 1.974 1_554 S
O56 Zn55 2.036 . S
O56 C60 1.278 . S
C57 O58 1.203 . S
C57 O64 1.267 . S
O58 C57 1.203 . S
O59 C52 1.185 . S
O59 Zn55 2.088 . S
C60 O56 1.278 . S
C60 O61 1.211 . S
O61 C60 1.211 . S
C62 O54 1.284 . S
C62 O63 1.273 . S
O63 C62 1.273 . S
O64 Zn55 1.974 1_556 S
O64 C57 1.267 . S
C65 O66 1.160 . S
C65 O72 1.185 . S
O66 C65 1.160 . S
O67 Zn68 1.871 1_546 S
O67 C75 1.279 1_556 S
Zn68 O67 1.871 1_564 S
Zn68 O69 2.032 1_565 S
Zn68 O72 2.086 . S
Zn68 O77 1.977 1_554 S
O69 Zn68 2.032 1_545 S
O69 C73 1.278 . S
C70 O71 1.203 1_565 S
C70 O77 1.267 . S
O71 C70 1.203 1_545 S
O72 C65 1.185 . S
O72 Zn68 2.086 . S
C73 O69 1.278 . S
C73 O74 1.211 . S
O74 C73 1.211 . S
C75 O67 1.279 1_554 S
C75 O76 1.273 . S
O76 C75 1.273 . S
O77 Zn68 1.977 1_556 S
O77 C70 1.267 . S
C78 O79 1.160 . S
C78 O85 1.185 . S
O79 C78 1.160 . S
O80 Zn81 1.899 . S
O80 C88 1.284 . S
Zn81 O80 1.899 . S
Zn81 O82 2.032 . S
Zn81 O85 2.086 . S
Zn81 O90 1.977 . S
O82 Zn81 2.032 . S
O82 C86 1.278 . S
C83 O84 1.203 . S
C83 O90 1.267 . S
O84 C83 1.203 . S
O85 C78 1.185 . S
O85 Zn81 2.086 . S
C86 O82 1.278 . S
C86 O87 1.211 . S
O87 C86 1.211 . S
C88 O80 1.284 . S
C88 O89 1.273 . S
O89 C88 1.273 . S
O90 Zn81 1.977 . S
O90 C83 1.267 . S
C91 O92 1.228 . S
C91 O98 1.185 . S
O92 C91 1.228 . S
O93 Zn94 1.906 . S
O93 C101 1.277 1_565 S
Zn94 O93 1.906 . S
Zn94 O95 2.032 . S
Zn94 O98 2.086 . S
Zn94 O103 1.977 . S
O95 Zn94 2.032 . S
O95 C99 1.278 . S
C96 O97 1.203 . S
C96 O103 1.267 . S
O97 C96 1.203 . S
O98 C91 1.185 . S
O98 Zn94 2.086 . S
C99 O95 1.278 . S
C99 O100 1.211 . S
O100 C99 1.211 . S
C101 O93 1.277 1_545 S
C101 O102 1.264 . S
O102 C101 1.264 . S
O103 Zn94 1.977 . S
O103 C96 1.267 . S
C104 O105 1.160 . S
C104 O111 1.185 . S
O105 C104 1.160 . S
O106 Zn107 1.899 . S
O106 C114 1.284 . S
Zn107 O106 1.899 . S
Zn107 O108 2.032 . S
Zn107 O111 2.086 . S
Zn107 O116 1.977 . S
O108 Zn107 2.032 . S
O108 C112 1.278 . S
C109 O110 1.203 . S
C109 O116 1.267 . S
O110 C109 1.203 . S
O111 C104 1.185 . S
O111 Zn107 2.086 . S
C112 O108 1.278 . S
C112 O113 1.211 . S
O113 C112 1.211 . S
C114 O106 1.284 . S
C114 O115 1.273 . S
O115 C114 1.273 . S
O116 Zn107 1.977 . S
O116 C109 1.267 . S
C117 O118 1.160 . S
C117 O124 1.185 . S
O118 C117 1.160 . S
O119 Zn120 1.945 . S
O119 C127 1.290 1_565 S
Zn120 O119 1.945 . S
Zn120 O121 2.032 . S
Zn120 O124 2.086 . S
Zn120 O129 1.977 . S
O121 Zn120 2.032 . S
O121 C125 1.278 . S
C122 O123 1.203 . S
C122 O129 1.267 . S
O123 C122 1.203 . S
O124 C117 1.185 . S
O124 Zn120 2.086 . S
C125 O121 1.278 . S
C125 O126 1.211 . S
O126 C125 1.211 . S
C127 O119 1.290 1_545 S
C127 O128 1.314 . S
O128 C127 1.314 . S
O129 Zn120 1.977 . S
O129 C122 1.267 . S
C130 O131 1.160 . S
C130 O137 1.185 . S
O131 C130 1.160 . S
O132 Zn133 1.899 . S
O132 C140 1.284 . S
Zn133 O132 1.899 . S
Zn133 O134 2.032 . S
Zn133 O137 2.086 1_455 S
Zn133 O142 1.977 . S
O134 Zn133 2.032 . S
O134 C138 1.278 . S
C135 O136 1.203 . S
C135 O142 1.267 . S
O136 C135 1.203 . S
O137 C130 1.185 . S
O137 Zn133 2.086 1_655 S
C138 O134 1.278 . S
C138 O139 1.211 . S
O139 C138 1.211 . S
C140 O132 1.284 . S
C140 O141 1.273 . S
O141 C140 1.273 . S
O142 Zn133 1.977 . S
O142 C135 1.267 . S
C143 O144 1.160 . S
C143 O150 1.185 . S
O144 C143 1.160 . S
O145 Zn146 1.899 . S
O145 C153 1.284 . S
Zn146 O145 1.899 . S
Zn146 O147 2.032 . S
Zn146 O150 2.086 . S
Zn146 O155 1.977 . S
O147 Zn146 2.032 . S
O147 C151 1.278 . S
C148 O149 1.203 . S
C148 O155 1.267 . S
O149 C148 1.203 . S
O150 C143 1.185 . S
O150 Zn146 2.086 . S
C151 O147 1.278 . S
C151 O152 1.211 . S
O152 C151 1.211 . S
C153 O145 1.284 . S
C153 O154 1.273 . S
O154 C153 1.273 . S
O155 Zn146 1.977 . S
O155 C148 1.267 . S
C156 O157 1.160 . S
C156 O163 1.185 . S
O157 C156 1.160 . S
O158 Zn159 1.899 . S
O158 C166 1.281 . S
Zn159 O158 1.899 . S
Zn159 O160 2.032 . S
Zn159 O163 2.086 . S
Zn159 O168 1.977 . S
O160 Zn159 2.032 . S
O160 C164 1.278 . S
C161 O162 1.203 . S
C161 O168 1.267 . S
O162 C161 1.203 . S
O163 C156 1.185 . S
O163 Zn159 2.086 . S
C164 O160 1.278 . S
C164 O165 1.211 . S
O165 C164 1.211 . S
C166 O158 1.281 . S
C166 O167 1.331 . S
O167 C166 1.331 . S
O168 Zn159 1.977 . S
O168 C161 1.267 . S
C169 O170 1.160 . S
C169 O176 1.185 . S
O170 C169 1.160 . S
O171 Zn172 1.899 . S
O171 C179 1.284 . S
Zn172 O171 1.899 . S
Zn172 O173 2.032 . S
Zn172 O176 2.086 1_655 S
Zn172 O181 1.977 . S
O173 Zn172 2.032 . S
O173 C177 1.278 . S
C174 O175 1.203 . S
C174 O181 1.267 . S
O175 C174 1.203 . S
O176 C169 1.185 . S
O176 Zn172 2.086 1_455 S
C177 O173 1.278 . S
C177 O178 1.211 . S
O178 C177 1.211 . S
C179 O171 1.284 . S
C179 O180 1.273 . S
O180 C179 1.273 . S
O181 Zn172 1.977 . S
O181 C174 1.267 . S
C182 O183 1.160 . S
C182 O189 1.185 . S
O183 C182 1.160 . S
O184 Zn185 1.899 . S
O184 C192 1.284 . S
Zn185 O184 1.899 . S
Zn185 O186 2.032 . S
Zn185 O189 2.086 . S
Zn185 O194 1.977 . S
O186 Zn185 2.032 . S
O186 C190 1.278 . S
C187 O188 1.203 . S
C187 O194 1.267 . S
O188 C187 1.203 . S
O189 C182 1.185 . S
O189 Zn185 2.086 . S
C190 O186 1.278 . S
C190 O191 1.211 . S
O191 C190 1.211 . S
C192 O184 1.284 . S
C192 O193 1.273 . S
O193 C192 1.273 . S
O194 Zn185 1.977 . S
O194 C187 1.267 . S
C195 O196 1.160 . S
C195 O202 1.185 . S
O196 C195 1.160 . S
O197 Zn198 1.899 . S
O197 C205 1.284 . S
Zn198 O197 1.899 . S
Zn198 O199 2.032 . S
Zn198 O202 2.086 . S
Zn198 O207 1.977 . S
O199 Zn198 2.032 . S
O199 C203 1.278 . S
C200 O201 1.203 . S
C200 O207 1.267 . S
O201 C200 1.203 . S
O202 C195 1.185 . S
O202 Zn198 2.086 . S
C203 O199 1.278 . S
C203 O204 1.211 . S
O204 C203 1.211 . S
C205 O197 1.284 . S
C205 O206 1.273 . S
O206 C205 1.273 . S
O207 Zn198 1.977 . S
O207 C200 1.267 . S
C208 O209 1.160 . S
C208 O215 1.185 . S
O209 C208 1.160 . S
O210 Zn211 1.899 . S
O210 C218 1.311 . S
Zn211 O210 1.899 . S
Zn211 O212 2.032 . S
Zn211 O215 2.086 . S
Zn211 O220 1.977 . S
O212 Zn211 2.032 . S
O212 C216 1.278 . S
C213 O214 1.203 . S
C213 O220 1.267 . S
O214 C213 1.203 . S
O215 C208 1.185 . S
O215 Zn211 2.086 . S
C216 O212 1.278 . S
C216 O217 1.211 . S
O217 C216 1.211 . S
C218 O210 1.311 . S
C218 O219 1.270 . S
O219 C218 1.270 . S
O220 Zn211 1.977 . S
O220 C213 1.267 . S
C221 O222 1.160 . S
C221 O228 1.185 . S
O222 C221 1.160 . S
O223 Zn224 1.899 . S
O223 C231 1.284 . S
Zn224 O223 1.899 . S
Zn224 O225 2.032 . S
Zn224 O228 2.086 . S
Zn224 O233 1.977 . S
O225 Zn224 2.032 . S
O225 C229 1.278 . S
C226 O227 1.203 . S
C226 O233 1.267 . S
O227 C226 1.203 . S
O228 C221 1.185 . S
O228 Zn224 2.086 . S
C229 O225 1.278 . S
C229 O230 1.211 . S
O230 C229 1.211 . S
C231 O223 1.284 . S
C231 O232 1.273 . S
O232 C231 1.273 . S
O233 Zn224 1.977 . S
O233 C226 1.267 . S
C234 C235 1.560 . S
C234 H295 0.959 . S
C234 H296 0.959 . S
C234 H297 0.960 . S
C235 C234 1.560 . S
C235 O290 1.426 . S
C235 H294 0.980 . S
C236 C237 1.407 . S
C236 C241 1.418 . S
C236 O290 1.334 . S
C237 C236 1.407 . S
C237 C238 1.360 . S
C237 H298 0.929 . S
C238 C237 1.360 . S
C238 C239 1.401 . S
C238 C242 1.527 . S
C239 C238 1.401 . S
C239 C240 1.405 . S
C239 C272 1.587 . S
C240 C239 1.405 . S
C240 C241 1.332 . S
C240 C243 1.496 . S
C241 C236 1.418 . S
C241 C240 1.332 . S
C241 H299 0.929 . S
C242 C238 1.527 . S
C242 H300 0.959 . S
C242 H301 0.961 . S
C242 H302 0.961 . S
C243 C240 1.496 . S
C243 H303 0.960 . S
C243 H304 0.960 . S
C243 H305 0.961 . S
C244 C245 1.517 . S
C244 H307 0.961 . S
C244 H308 0.960 . S
C244 H309 0.959 . S
C245 C244 1.517 . S
C245 O293 1.468 . S
C245 H306 0.980 . S
C246 C247 1.349 . S
C246 C251 1.367 . S
C246 O293 1.408 . S
C247 C246 1.349 . S
C247 C248 1.407 . S
C247 H310 0.930 . S
C248 C247 1.407 . S
C248 C249 1.449 . S
C248 C252 1.535 . S
C249 C248 1.449 . S
C249 C250 1.384 . S
C249 C274 1.553 . S
C250 C249 1.384 . S
C250 C251 1.364 . S
C250 C253 1.450 . S
C251 C246 1.367 . S
C251 C250 1.364 . S
C251 H311 0.931 . S
C252 C248 1.535 . S
C252 H312 0.959 . S
C252 H313 0.961 . S
C252 H314 0.959 . S
C253 C250 1.450 . S
C253 H315 0.960 . S
C253 H316 0.960 . S
C253 H317 0.960 . S
C254 C255 1.309 . S
C254 C259 1.304 . S
C254 O292 1.435 . S
C255 C254 1.309 . S
C255 C256 1.476 . S
C255 H319 0.930 . S
C256 C255 1.476 . S
C256 C257 1.400 . S
C256 C260 1.567 . S
C257 C256 1.400 . S
C257 C258 1.373 . S
C257 C279 1.432 . S
C258 C257 1.373 . S
C258 C259 1.339 . S
C258 C261 1.530 . S
C259 C254 1.304 . S
C259 C258 1.339 . S
C259 H320 0.930 . S
C260 C256 1.567 . S
C260 H321 0.961 . S
C260 H322 0.960 . S
C260 H323 0.958 . S
C261 C258 1.530 . S
C261 H324 0.961 . S
C261 H325 0.960 . S
C261 H326 0.960 . S
C262 C263 1.530 . S
C262 H328 0.961 . S
C262 H329 0.961 . S
C262 H330 0.959 . S
C263 C262 1.530 . S
C263 O291 1.412 . S
C263 H327 0.980 . S
C264 C265 1.288 . S
C264 C269 1.377 . S
C264 O291 1.393 . S
C265 C264 1.288 . S
C265 C266 1.369 . S
C265 H331 0.932 . S
C266 C265 1.369 . S
C266 C267 1.398 . S
C266 C270 1.527 . S
C267 C266 1.398 . S
C267 C268 1.380 . S
C267 C281 1.497 . S
C268 C267 1.380 . S
C268 C269 1.383 . S
C268 C271 1.603 . S
C269 C264 1.377 . S
C269 C268 1.383 . S
C269 H332 0.929 . S
C270 C266 1.527 . S
C270 H333 0.961 . S
C270 H334 0.959 . S
C270 H335 0.959 . S
C271 C268 1.603 . S
C271 H336 0.960 . S
C271 H337 0.962 . S
C271 H338 0.961 . S
C272 C239 1.587 . S
C272 C273 1.360 . S
C272 C285 1.412 . S
C273 C272 1.360 . S
C273 C274 1.365 . S
C273 H339 0.929 . S
C274 C249 1.553 . S
C274 C273 1.365 . S
C274 C275 1.404 . S
C275 C274 1.404 . S
C275 C276 1.395 . S
C275 C286 1.451 . S
C276 C275 1.395 . S
C276 C277 1.322 . S
C276 H340 0.930 . S
C277 C276 1.322 . S
C277 C278 1.459 . S
C277 H341 0.929 . S
C278 C277 1.459 . S
C278 C279 1.445 . S
C278 C287 1.395 . S
C279 C257 1.432 . S
C279 C278 1.445 . S
C279 C280 1.370 . S
C280 C279 1.370 . S
C280 C281 1.438 . S
C280 H342 0.930 . S
C281 C267 1.497 . S
C281 C280 1.438 . S
C281 C282 1.360 . S
C282 C281 1.360 . S
C282 C283 1.401 . S
C282 C287 1.446 . S
C283 C282 1.401 . S
C283 C284 1.347 . S
C283 H343 0.929 . S
C284 C283 1.347 . S
C284 C285 1.455 . S
C284 H344 0.930 . S
C285 C272 1.412 . S
C285 C284 1.455 . S
C285 C286 1.331 . S
C286 C275 1.451 . S
C286 C285 1.331 . S
C286 C287 1.497 . S
C287 C278 1.395 . S
C287 C282 1.446 . S
C287 C286 1.497 . S
C288 C289 1.582 . S
C288 H345 0.962 . S
C288 H346 0.959 . S
C288 H347 0.958 . S
C289 C288 1.582 . S
C289 O292 1.458 . S
C289 H318 0.980 . S
O290 C235 1.426 . S
O290 C236 1.334 . S
O291 C263 1.412 . S
O291 C264 1.393 . S
O292 C254 1.435 . S
O292 C289 1.458 . S
O293 C245 1.468 . S
O293 C246 1.408 . S
H294 C235 0.980 . S
H295 C234 0.959 . S
H296 C234 0.959 . S
H297 C234 0.960 . S
H298 C237 0.929 . S
H299 C241 0.929 . S
H300 C242 0.959 . S
H301 C242 0.961 . S
H302 C242 0.961 . S
H303 C243 0.960 . S
H304 C243 0.960 . S
H305 C243 0.961 . S
H306 C245 0.980 . S
H307 C244 0.961 . S
H308 C244 0.960 . S
H309 C244 0.959 . S
H310 C247 0.930 . S
H311 C251 0.931 . S
H312 C252 0.959 . S
H313 C252 0.961 . S
H314 C252 0.959 . S
H315 C253 0.960 . S
H316 C253 0.960 . S
H317 C253 0.960 . S
H318 C289 0.980 . S
H319 C255 0.930 . S
H320 C259 0.930 . S
H321 C260 0.961 . S
H322 C260 0.960 . S
H323 C260 0.958 . S
H324 C261 0.961 . S
H325 C261 0.960 . S
H326 C261 0.960 . S
H327 C263 0.980 . S
H328 C262 0.961 . S
H329 C262 0.961 . S
H330 C262 0.959 . S
H331 C265 0.932 . S
H332 C269 0.929 . S
H333 C270 0.961 . S
H334 C270 0.959 . S
H335 C270 0.959 . S
H336 C271 0.960 . S
H337 C271 0.962 . S
H338 C271 0.961 . S
H339 C273 0.929 . S
H340 C276 0.930 . S
H341 C277 0.929 . S
H342 C280 0.930 . S
H343 C283 0.929 . S
H344 C284 0.930 . S
H345 C288 0.962 . S
H346 C288 0.959 . S
H347 C288 0.958 . S
C348 C349 1.560 . S
C348 H409 0.959 . S
C348 H410 0.959 . S
C348 H411 0.960 . S
C349 C348 1.560 . S
C349 O404 1.426 . S
C349 H408 0.980 . S
C350 C351 1.407 . S
C350 C355 1.418 . S
C350 O404 1.334 . S
C351 C350 1.407 . S
C351 C352 1.360 . S
C351 H412 0.929 . S
C352 C351 1.360 . S
C352 C353 1.401 . S
C352 C356 1.527 . S
C353 C352 1.401 . S
C353 C354 1.405 . S
C353 C386 1.587 . S
C354 C353 1.405 . S
C354 C355 1.332 . S
C354 C357 1.496 . S
C355 C350 1.418 . S
C355 C354 1.332 . S
C355 H413 0.929 . S
C356 C352 1.527 . S
C356 H414 0.959 . S
C356 H415 0.961 . S
C356 H416 0.961 . S
C357 C354 1.496 . S
C357 H417 0.960 . S
C357 H418 0.960 . S
C357 H419 0.961 . S
C358 C359 1.517 . S
C358 H421 0.961 . S
C358 H422 0.960 . S
C358 H423 0.959 . S
C359 C358 1.517 . S
C359 O407 1.468 . S
C359 H420 0.980 . S
C360 C361 1.349 . S
C360 C365 1.367 . S
C360 O407 1.408 . S
C361 C360 1.349 . S
C361 C362 1.407 . S
C361 H424 0.930 . S
C362 C361 1.407 . S
C362 C363 1.449 . S
C362 C366 1.535 . S
C363 C362 1.449 . S
C363 C364 1.384 . S
C363 C388 1.553 . S
C364 C363 1.384 . S
C364 C365 1.364 . S
C364 C367 1.450 . S
C365 C360 1.367 . S
C365 C364 1.364 . S
C365 H425 0.931 . S
C366 C362 1.535 . S
C366 H426 0.959 . S
C366 H427 0.961 . S
C366 H428 0.959 . S
C367 C364 1.450 . S
C367 H429 0.960 . S
C367 H430 0.960 . S
C367 H431 0.960 . S
C368 C369 1.309 . S
C368 C373 1.304 . S
C368 O406 1.435 . S
C369 C368 1.309 . S
C369 C370 1.476 . S
C369 H433 0.930 . S
C370 C369 1.476 . S
C370 C371 1.400 . S
C370 C374 1.567 . S
C371 C370 1.400 . S
C371 C372 1.373 . S
C371 C393 1.432 . S
C372 C371 1.373 . S
C372 C373 1.339 . S
C372 C375 1.530 . S
C373 C368 1.304 . S
C373 C372 1.339 . S
C373 H434 0.930 . S
C374 C370 1.567 . S
C374 H435 0.961 . S
C374 H436 0.960 . S
C374 H437 0.958 . S
C375 C372 1.530 . S
C375 H438 0.961 . S
C375 H439 0.960 . S
C375 H440 0.960 . S
C376 C377 1.530 . S
C376 H442 0.961 . S
C376 H443 0.961 . S
C376 H444 0.959 . S
C377 C376 1.530 . S
C377 O405 1.412 . S
C377 H441 0.980 . S
C378 C379 1.288 . S
C378 C383 1.377 . S
C378 O405 1.393 . S
C379 C378 1.288 . S
C379 C380 1.369 . S
C379 H445 0.932 . S
C380 C379 1.369 . S
C380 C381 1.398 . S
C380 C384 1.527 . S
C381 C380 1.398 . S
C381 C382 1.380 . S
C381 C395 1.497 . S
C382 C381 1.380 . S
C382 C383 1.383 . S
C382 C385 1.603 . S
C383 C378 1.377 . S
C383 C382 1.383 . S
C383 H446 0.929 . S
C384 C380 1.527 . S
C384 H447 0.961 . S
C384 H448 0.959 . S
C384 H449 0.959 . S
C385 C382 1.603 . S
C385 H450 0.960 . S
C385 H451 0.962 . S
C385 H452 0.961 . S
C386 C353 1.587 . S
C386 C387 1.360 . S
C386 C399 1.412 . S
C387 C386 1.360 . S
C387 C388 1.365 . S
C387 H453 0.929 . S
C388 C363 1.553 . S
C388 C387 1.365 . S
C388 C389 1.404 . S
C389 C388 1.404 . S
C389 C390 1.395 . S
C389 C400 1.451 . S
C390 C389 1.395 . S
C390 C391 1.322 . S
C390 H454 0.930 . S
C391 C390 1.322 . S
C391 C392 1.459 . S
C391 H455 0.929 . S
C392 C391 1.459 . S
C392 C393 1.445 . S
C392 C401 1.395 . S
C393 C371 1.432 . S
C393 C392 1.445 . S
C393 C394 1.370 . S
C394 C393 1.370 . S
C394 C395 1.438 . S
C394 H456 0.930 . S
C395 C381 1.497 . S
C395 C394 1.438 . S
C395 C396 1.360 . S
C396 C395 1.360 . S
C396 C397 1.401 . S
C396 C401 1.446 . S
C397 C396 1.401 . S
C397 C398 1.347 . S
C397 H457 0.929 . S
C398 C397 1.347 . S
C398 C399 1.455 . S
C398 H458 0.930 . S
C399 C386 1.412 . S
C399 C398 1.455 . S
C399 C400 1.331 . S
C400 C389 1.451 . S
C400 C399 1.331 . S
C400 C401 1.497 . S
C401 C392 1.395 . S
C401 C396 1.446 . S
C401 C400 1.497 . S
C402 C403 1.582 . S
C402 H459 0.962 . S
C402 H460 0.959 . S
C402 H461 0.958 . S
C403 C402 1.582 . S
C403 O406 1.458 . S
C403 H432 0.980 . S
O404 C349 1.426 . S
O404 C350 1.334 . S
O405 C377 1.412 . S
O405 C378 1.393 . S
O406 C368 1.435 . S
O406 C403 1.458 . S
O407 C359 1.468 . S
O407 C360 1.408 . S
H408 C349 0.980 . S
H409 C348 0.959 . S
H410 C348 0.959 . S
H411 C348 0.960 . S
H412 C351 0.929 . S
H413 C355 0.929 . S
H414 C356 0.959 . S
H415 C356 0.961 . S
H416 C356 0.961 . S
H417 C357 0.960 . S
H418 C357 0.960 . S
H419 C357 0.961 . S
H420 C359 0.980 . S
H421 C358 0.961 . S
H422 C358 0.960 . S
H423 C358 0.959 . S
H424 C361 0.930 . S
H425 C365 0.931 . S
H426 C366 0.959 . S
H427 C366 0.961 . S
H428 C366 0.959 . S
H429 C367 0.960 . S
H430 C367 0.960 . S
H431 C367 0.960 . S
H432 C403 0.980 . S
H433 C369 0.930 . S
H434 C373 0.930 . S
H435 C374 0.961 . S
H436 C374 0.960 . S
H437 C374 0.958 . S
H438 C375 0.961 . S
H439 C375 0.960 . S
H440 C375 0.960 . S
H441 C377 0.980 . S
H442 C376 0.961 . S
H443 C376 0.961 . S
H444 C376 0.959 . S
H445 C379 0.932 . S
H446 C383 0.929 . S
H447 C384 0.961 . S
H448 C384 0.959 . S
H449 C384 0.959 . S
H450 C385 0.960 . S
H451 C385 0.962 . S
H452 C385 0.961 . S
H453 C387 0.929 . S
H454 C390 0.930 . S
H455 C391 0.929 . S
H456 C394 0.930 . S
H457 C397 0.929 . S
H458 C398 0.930 . S
H459 C402 0.962 . S
H460 C402 0.959 . S
H461 C402 0.958 . S
C462 C463 1.560 . S
C462 H523 0.959 . S
C462 H524 0.959 . S
C462 H525 0.960 . S
C463 C462 1.560 . S
C463 O518 1.426 . S
C463 H522 0.980 . S
C464 C465 1.407 . S
C464 C469 1.418 . S
C464 O518 1.334 . S
C465 C464 1.407 . S
C465 C466 1.360 . S
C465 H526 0.929 . S
C466 C465 1.360 . S
C466 C467 1.401 . S
C466 C470 1.527 . S
C467 C466 1.401 . S
C467 C468 1.405 . S
C467 C500 1.587 . S
C468 C467 1.405 . S
C468 C469 1.332 . S
C468 C471 1.496 . S
C469 C464 1.418 . S
C469 C468 1.332 . S
C469 H527 0.929 . S
C470 C466 1.527 . S
C470 H528 0.959 . S
C470 H529 0.961 . S
C470 H530 0.961 . S
C471 C468 1.496 . S
C471 H531 0.960 . S
C471 H532 0.960 . S
C471 H533 0.961 . S
C472 C473 1.517 . S
C472 H535 0.961 . S
C472 H536 0.960 . S
C472 H537 0.959 . S
C473 C472 1.517 . S
C473 O521 1.468 . S
C473 H534 0.980 . S
C474 C475 1.349 . S
C474 C479 1.367 . S
C474 O521 1.408 . S
C475 C474 1.349 . S
C475 C476 1.407 . S
C475 H538 0.930 . S
C476 C475 1.407 . S
C476 C477 1.449 . S
C476 C480 1.535 . S
C477 C476 1.449 . S
C477 C478 1.384 . S
C477 C502 1.553 . S
C478 C477 1.384 . S
C478 C479 1.364 . S
C478 C481 1.450 . S
C479 C474 1.367 . S
C479 C478 1.364 . S
C479 H539 0.931 . S
C480 C476 1.535 . S
C480 H540 0.959 . S
C480 H541 0.961 . S
C480 H542 0.959 . S
C481 C478 1.450 . S
C481 H543 0.960 . S
C481 H544 0.960 . S
C481 H545 0.960 . S
C482 C483 1.309 . S
C482 C487 1.304 . S
C482 O520 1.435 . S
C483 C482 1.309 . S
C483 C484 1.476 . S
C483 H547 0.930 . S
C484 C483 1.476 . S
C484 C485 1.400 . S
C484 C488 1.567 . S
C485 C484 1.400 . S
C485 C486 1.373 . S
C485 C507 1.432 . S
C486 C485 1.373 . S
C486 C487 1.339 . S
C486 C489 1.530 . S
C487 C482 1.304 . S
C487 C486 1.339 . S
C487 H548 0.930 . S
C488 C484 1.567 . S
C488 H549 0.961 . S
C488 H550 0.960 . S
C488 H551 0.958 . S
C489 C486 1.530 . S
C489 H552 0.961 . S
C489 H553 0.960 . S
C489 H554 0.960 . S
C490 C491 1.530 . S
C490 H556 0.961 . S
C490 H557 0.961 . S
C490 H558 0.959 . S
C491 C490 1.530 . S
C491 O519 1.412 . S
C491 H555 0.980 . S
C492 C493 1.288 . S
C492 C497 1.377 . S
C492 O519 1.393 . S
C493 C492 1.288 . S
C493 C494 1.369 . S
C493 H559 0.932 . S
C494 C493 1.369 . S
C494 C495 1.398 . S
C494 C498 1.527 . S
C495 C494 1.398 . S
C495 C496 1.380 . S
C495 C509 1.497 . S
C496 C495 1.380 . S
C496 C497 1.383 . S
C496 C499 1.603 . S
C497 C492 1.377 . S
C497 C496 1.383 . S
C497 H560 0.929 . S
C498 C494 1.527 . S
C498 H561 0.961 . S
C498 H562 0.959 . S
C498 H563 0.959 . S
C499 C496 1.603 . S
C499 H564 0.960 . S
C499 H565 0.962 . S
C499 H566 0.961 . S
C500 C467 1.587 . S
C500 C501 1.360 . S
C500 C513 1.412 . S
C501 C500 1.360 . S
C501 C502 1.365 . S
C501 H567 0.929 . S
C502 C477 1.553 . S
C502 C501 1.365 . S
C502 C503 1.404 . S
C503 C502 1.404 . S
C503 C504 1.395 . S
C503 C514 1.451 . S
C504 C503 1.395 . S
C504 C505 1.322 . S
C504 H568 0.930 . S
C505 C504 1.322 . S
C505 C506 1.459 . S
C505 H569 0.929 . S
C506 C505 1.459 . S
C506 C507 1.445 . S
C506 C515 1.395 . S
C507 C485 1.432 . S
C507 C506 1.445 . S
C507 C508 1.370 . S
C508 C507 1.370 . S
C508 C509 1.438 . S
C508 H570 0.930 . S
C509 C495 1.497 . S
C509 C508 1.438 . S
C509 C510 1.360 . S
C510 C509 1.360 . S
C510 C511 1.401 . S
C510 C515 1.446 . S
C511 C510 1.401 . S
C511 C512 1.347 . S
C511 H571 0.929 . S
C512 C511 1.347 . S
C512 C513 1.455 . S
C512 H572 0.930 . S
C513 C500 1.412 . S
C513 C512 1.455 . S
C513 C514 1.331 . S
C514 C503 1.451 . S
C514 C513 1.331 . S
C514 C515 1.497 . S
C515 C506 1.395 . S
C515 C510 1.446 . S
C515 C514 1.497 . S
C516 C517 1.582 . S
C516 H573 0.962 . S
C516 H574 0.959 . S
C516 H575 0.958 . S
C517 C516 1.582 . S
C517 O520 1.458 . S
C517 H546 0.980 . S
O518 C463 1.426 . S
O518 C464 1.334 . S
O519 C491 1.412 . S
O519 C492 1.393 . S
O520 C482 1.435 . S
O520 C517 1.458 . S
O521 C473 1.468 . S
O521 C474 1.408 . S
H522 C463 0.980 . S
H523 C462 0.959 . S
H524 C462 0.959 . S
H525 C462 0.960 . S
H526 C465 0.929 . S
H527 C469 0.929 . S
H528 C470 0.959 . S
H529 C470 0.961 . S
H530 C470 0.961 . S
H531 C471 0.960 . S
H532 C471 0.960 . S
H533 C471 0.961 . S
H534 C473 0.980 . S
H535 C472 0.961 . S
H536 C472 0.960 . S
H537 C472 0.959 . S
H538 C475 0.930 . S
H539 C479 0.931 . S
H540 C480 0.959 . S
H541 C480 0.961 . S
H542 C480 0.959 . S
H543 C481 0.960 . S
H544 C481 0.960 . S
H545 C481 0.960 . S
H546 C517 0.980 . S
H547 C483 0.930 . S
H548 C487 0.930 . S
H549 C488 0.961 . S
H550 C488 0.960 . S
H551 C488 0.958 . S
H552 C489 0.961 . S
H553 C489 0.960 . S
H554 C489 0.960 . S
H555 C491 0.980 . S
H556 C490 0.961 . S
H557 C490 0.961 . S
H558 C490 0.959 . S
H559 C493 0.932 . S
H560 C497 0.929 . S
H561 C498 0.961 . S
H562 C498 0.959 . S
H563 C498 0.959 . S
H564 C499 0.960 . S
H565 C499 0.962 . S
H566 C499 0.961 . S
H567 C501 0.929 . S
H568 C504 0.930 . S
H569 C505 0.929 . S
H570 C508 0.930 . S
H571 C511 0.929 . S
H572 C512 0.930 . S
H573 C516 0.962 . S
H574 C516 0.959 . S
H575 C516 0.958 . S
C576 C577 1.560 . S
C576 H637 0.959 . S
C576 H638 0.959 . S
C576 H639 0.960 . S
C577 C576 1.560 . S
C577 O632 1.426 . S
C577 H636 0.980 . S
C578 C579 1.407 . S
C578 C583 1.418 . S
C578 O632 1.334 . S
C579 C578 1.407 . S
C579 C580 1.360 . S
C579 H640 0.929 . S
C580 C579 1.360 . S
C580 C581 1.401 . S
C580 C584 1.527 . S
C581 C580 1.401 . S
C581 C582 1.405 . S
C581 C614 1.587 . S
C582 C581 1.405 . S
C582 C583 1.332 . S
C582 C585 1.496 . S
C583 C578 1.418 . S
C583 C582 1.332 . S
C583 H641 0.929 . S
C584 C580 1.527 . S
C584 H642 0.959 . S
C584 H643 0.961 . S
C584 H644 0.961 . S
C585 C582 1.496 . S
C585 H645 0.960 . S
C585 H646 0.960 . S
C585 H647 0.961 . S
C586 C587 1.517 . S
C586 H649 0.961 . S
C586 H650 0.960 . S
C586 H651 0.959 . S
C587 C586 1.517 . S
C587 O635 1.468 . S
C587 H648 0.980 . S
C588 C589 1.349 . S
C588 C593 1.367 . S
C588 O635 1.408 . S
C589 C588 1.349 . S
C589 C590 1.407 . S
C589 H652 0.930 . S
C590 C589 1.407 . S
C590 C591 1.449 . S
C590 C594 1.535 . S
C591 C590 1.449 . S
C591 C592 1.384 . S
C591 C616 1.553 . S
C592 C591 1.384 . S
C592 C593 1.364 . S
C592 C595 1.450 . S
C593 C588 1.367 . S
C593 C592 1.364 . S
C593 H653 0.931 . S
C594 C590 1.535 . S
C594 H654 0.959 . S
C594 H655 0.961 . S
C594 H656 0.959 . S
C595 C592 1.450 . S
C595 H657 0.960 . S
C595 H658 0.960 . S
C595 H659 0.960 . S
C596 C597 1.309 . S
C596 C601 1.304 . S
C596 O634 1.435 . S
C597 C596 1.309 . S
C597 C598 1.476 . S
C597 H661 0.930 . S
C598 C597 1.476 . S
C598 C599 1.400 . S
C598 C602 1.567 . S
C599 C598 1.400 . S
C599 C600 1.373 . S
C599 C621 1.432 . S
C600 C599 1.373 . S
C600 C601 1.339 . S
C600 C603 1.530 . S
C601 C596 1.304 . S
C601 C600 1.339 . S
C601 H662 0.930 . S
C602 C598 1.567 . S
C602 H663 0.961 . S
C602 H664 0.960 . S
C602 H665 0.958 . S
C603 C600 1.530 . S
C603 H666 0.961 . S
C603 H667 0.960 . S
C603 H668 0.960 . S
C604 C605 1.530 . S
C604 H670 0.961 . S
C604 H671 0.961 . S
C604 H672 0.959 . S
C605 C604 1.530 . S
C605 O633 1.412 . S
C605 H669 0.980 . S
C606 C607 1.288 . S
C606 C611 1.377 . S
C606 O633 1.393 . S
C607 C606 1.288 . S
C607 C608 1.369 . S
C607 H673 0.932 . S
C608 C607 1.369 . S
C608 C609 1.398 . S
C608 C612 1.527 . S
C609 C608 1.398 . S
C609 C610 1.380 . S
C609 C623 1.497 . S
C610 C609 1.380 . S
C610 C611 1.383 . S
C610 C613 1.603 . S
C611 C606 1.377 . S
C611 C610 1.383 . S
C611 H674 0.929 . S
C612 C608 1.527 . S
C612 H675 0.961 . S
C612 H676 0.959 . S
C612 H677 0.959 . S
C613 C610 1.603 . S
C613 H678 0.960 . S
C613 H679 0.962 . S
C613 H680 0.961 . S
C614 C581 1.587 . S
C614 C615 1.360 . S
C614 C627 1.412 . S
C615 C614 1.360 . S
C615 C616 1.365 . S
C615 H681 0.929 . S
C616 C591 1.553 . S
C616 C615 1.365 . S
C616 C617 1.404 . S
C617 C616 1.404 . S
C617 C618 1.395 . S
C617 C628 1.451 . S
C618 C617 1.395 . S
C618 C619 1.322 . S
C618 H682 0.930 . S
C619 C618 1.322 . S
C619 C620 1.459 . S
C619 H683 0.929 . S
C620 C619 1.459 . S
C620 C621 1.445 . S
C620 C629 1.395 . S
C621 C599 1.432 . S
C621 C620 1.445 . S
C621 C622 1.370 . S
C622 C621 1.370 . S
C622 C623 1.438 . S
C622 H684 0.930 . S
C623 C609 1.497 . S
C623 C622 1.438 . S
C623 C624 1.360 . S
C624 C623 1.360 . S
C624 C625 1.401 . S
C624 C629 1.446 . S
C625 C624 1.401 . S
C625 C626 1.347 . S
C625 H685 0.929 . S
C626 C625 1.347 . S
C626 C627 1.455 . S
C626 H686 0.930 . S
C627 C614 1.412 . S
C627 C626 1.455 . S
C627 C628 1.331 . S
C628 C617 1.451 . S
C628 C627 1.331 . S
C628 C629 1.497 . S
C629 C620 1.395 . S
C629 C624 1.446 . S
C629 C628 1.497 . S
C630 C631 1.582 . S
C630 H687 0.962 . S
C630 H688 0.959 . S
C630 H689 0.958 . S
C631 C630 1.582 . S
C631 O634 1.458 . S
C631 H660 0.980 . S
O632 C577 1.426 . S
O632 C578 1.334 . S
O633 C605 1.412 . S
O633 C606 1.393 . S
O634 C596 1.435 . S
O634 C631 1.458 . S
O635 C587 1.468 . S
O635 C588 1.408 . S
H636 C577 0.980 . S
H637 C576 0.959 . S
H638 C576 0.959 . S
H639 C576 0.960 . S
H640 C579 0.929 . S
H641 C583 0.929 . S
H642 C584 0.959 . S
H643 C584 0.961 . S
H644 C584 0.961 . S
H645 C585 0.960 . S
H646 C585 0.960 . S
H647 C585 0.961 . S
H648 C587 0.980 . S
H649 C586 0.961 . S
H650 C586 0.960 . S
H651 C586 0.959 . S
H652 C589 0.930 . S
H653 C593 0.931 . S
H654 C594 0.959 . S
H655 C594 0.961 . S
H656 C594 0.959 . S
H657 C595 0.960 . S
H658 C595 0.960 . S
H659 C595 0.960 . S
H660 C631 0.980 . S
H661 C597 0.930 . S
H662 C601 0.930 . S
H663 C602 0.961 . S
H664 C602 0.960 . S
H665 C602 0.958 . S
H666 C603 0.961 . S
H667 C603 0.960 . S
H668 C603 0.960 . S
H669 C605 0.980 . S
H670 C604 0.961 . S
H671 C604 0.961 . S
H672 C604 0.959 . S
H673 C607 0.932 . S
H674 C611 0.929 . S
H675 C612 0.961 . S
H676 C612 0.959 . S
H677 C612 0.959 . S
H678 C613 0.960 . S
H679 C613 0.962 . S
H680 C613 0.961 . S
H681 C615 0.929 . S
H682 C618 0.930 . S
H683 C619 0.929 . S
H684 C622 0.930 . S
H685 C625 0.929 . S
H686 C626 0.930 . S
H687 C630 0.962 . S
H688 C630 0.959 . S
H689 C630 0.958 . S
C690 C691 1.560 . S
C690 H751 0.959 . S
C690 H752 0.959 . S
C690 H753 0.960 . S
C691 C690 1.560 . S
C691 O746 1.426 . S
C691 H750 0.980 . S
C692 C693 1.407 . S
C692 C697 1.418 . S
C692 O746 1.334 . S
C693 C692 1.407 . S
C693 C694 1.360 . S
C693 H754 0.929 . S
C694 C693 1.360 . S
C694 C695 1.401 . S
C694 C698 1.527 . S
C695 C694 1.401 . S
C695 C696 1.405 . S
C695 C728 1.587 . S
C696 C695 1.405 . S
C696 C697 1.332 . S
C696 C699 1.496 . S
C697 C692 1.418 . S
C697 C696 1.332 . S
C697 H755 0.929 . S
C698 C694 1.527 . S
C698 H756 0.959 . S
C698 H757 0.961 . S
C698 H758 0.961 . S
C699 C696 1.496 . S
C699 H759 0.960 . S
C699 H760 0.960 . S
C699 H761 0.961 . S
C700 C701 1.517 . S
C700 H763 0.961 . S
C700 H764 0.960 . S
C700 H765 0.959 . S
C701 C700 1.517 . S
C701 O749 1.468 . S
C701 H762 0.980 . S
C702 C703 1.349 . S
C702 C707 1.367 . S
C702 O749 1.408 . S
C703 C702 1.349 . S
C703 C704 1.407 . S
C703 H766 0.930 . S
C704 C703 1.407 . S
C704 C705 1.449 . S
C704 C708 1.535 . S
C705 C704 1.449 . S
C705 C706 1.384 . S
C705 C730 1.553 . S
C706 C705 1.384 . S
C706 C707 1.364 . S
C706 C709 1.450 . S
C707 C702 1.367 . S
C707 C706 1.364 . S
C707 H767 0.931 . S
C708 C704 1.535 . S
C708 H768 0.959 . S
C708 H769 0.961 . S
C708 H770 0.959 . S
C709 C706 1.450 . S
C709 H771 0.960 . S
C709 H772 0.960 . S
C709 H773 0.960 . S
C710 C711 1.309 . S
C710 C715 1.304 . S
C710 O748 1.435 . S
C711 C710 1.309 . S
C711 C712 1.476 . S
C711 H775 0.930 . S
C712 C711 1.476 . S
C712 C713 1.400 . S
C712 C716 1.567 . S
C713 C712 1.400 . S
C713 C714 1.373 . S
C713 C735 1.432 . S
C714 C713 1.373 . S
C714 C715 1.339 . S
C714 C717 1.530 . S
C715 C710 1.304 . S
C715 C714 1.339 . S
C715 H776 0.930 . S
C716 C712 1.567 . S
C716 H777 0.961 . S
C716 H778 0.960 . S
C716 H779 0.958 . S
C717 C714 1.530 . S
C717 H780 0.961 . S
C717 H781 0.960 . S
C717 H782 0.960 . S
C718 C719 1.530 . S
C718 H784 0.961 . S
C718 H785 0.961 . S
C718 H786 0.959 . S
C719 C718 1.530 . S
C719 O747 1.412 . S
C719 H783 0.980 . S
C720 C721 1.288 . S
C720 C725 1.377 . S
C720 O747 1.393 . S
C721 C720 1.288 . S
C721 C722 1.369 . S
C721 H787 0.932 . S
C722 C721 1.369 . S
C722 C723 1.398 . S
C722 C726 1.527 . S
C723 C722 1.398 . S
C723 C724 1.380 . S
C723 C737 1.497 . S
C724 C723 1.380 . S
C724 C725 1.383 . S
C724 C727 1.603 . S
C725 C720 1.377 . S
C725 C724 1.383 . S
C725 H788 0.929 . S
C726 C722 1.527 . S
C726 H789 0.961 . S
C726 H790 0.959 . S
C726 H791 0.959 . S
C727 C724 1.603 . S
C727 H792 0.960 . S
C727 H793 0.962 . S
C727 H794 0.961 . S
C728 C695 1.587 . S
C728 C729 1.360 . S
C728 C741 1.412 . S
C729 C728 1.360 . S
C729 C730 1.365 . S
C729 H795 0.929 . S
C730 C705 1.553 . S
C730 C729 1.365 . S
C730 C731 1.404 . S
C731 C730 1.404 . S
C731 C732 1.395 . S
C731 C742 1.451 . S
C732 C731 1.395 . S
C732 C733 1.322 . S
C732 H796 0.930 . S
C733 C732 1.322 . S
C733 C734 1.459 . S
C733 H797 0.929 . S
C734 C733 1.459 . S
C734 C735 1.445 . S
C734 C743 1.395 . S
C735 C713 1.432 . S
C735 C734 1.445 . S
C735 C736 1.370 . S
C736 C735 1.370 . S
C736 C737 1.438 . S
C736 H798 0.930 . S
C737 C723 1.497 . S
C737 C736 1.438 . S
C737 C738 1.360 . S
C738 C737 1.360 . S
C738 C739 1.401 . S
C738 C743 1.446 . S
C739 C738 1.401 . S
C739 C740 1.347 . S
C739 H799 0.929 . S
C740 C739 1.347 . S
C740 C741 1.455 . S
C740 H800 0.930 . S
C741 C728 1.412 . S
C741 C740 1.455 . S
C741 C742 1.331 . S
C742 C731 1.451 . S
C742 C741 1.331 . S
C742 C743 1.497 . S
C743 C734 1.395 . S
C743 C738 1.446 . S
C743 C742 1.497 . S
C744 C745 1.582 . S
C744 H801 0.962 . S
C744 H802 0.959 . S
C744 H803 0.958 . S
C745 C744 1.582 . S
C745 O748 1.458 . S
C745 H774 0.980 . S
O746 C691 1.426 . S
O746 C692 1.334 . S
O747 C719 1.412 . S
O747 C720 1.393 . S
O748 C710 1.435 . S
O748 C745 1.458 . S
O749 C701 1.468 . S
O749 C702 1.408 . S
H750 C691 0.980 . S
H751 C690 0.959 . S
H752 C690 0.959 . S
H753 C690 0.960 . S
H754 C693 0.929 . S
H755 C697 0.929 . S
H756 C698 0.959 . S
H757 C698 0.961 . S
H758 C698 0.961 . S
H759 C699 0.960 . S
H760 C699 0.960 . S
H761 C699 0.961 . S
H762 C701 0.980 . S
H763 C700 0.961 . S
H764 C700 0.960 . S
H765 C700 0.959 . S
H766 C703 0.930 . S
H767 C707 0.931 . S
H768 C708 0.959 . S
H769 C708 0.961 . S
H770 C708 0.959 . S
H771 C709 0.960 . S
H772 C709 0.960 . S
H773 C709 0.960 . S
H774 C745 0.980 . S
H775 C711 0.930 . S
H776 C715 0.930 . S
H777 C716 0.961 . S
H778 C716 0.960 . S
H779 C716 0.958 . S
H780 C717 0.961 . S
H781 C717 0.960 . S
H782 C717 0.960 . S
H783 C719 0.980 . S
H784 C718 0.961 . S
H785 C718 0.961 . S
H786 C718 0.959 . S
H787 C721 0.932 . S
H788 C725 0.929 . S
H789 C726 0.961 . S
H790 C726 0.959 . S
H791 C726 0.959 . S
H792 C727 0.960 . S
H793 C727 0.962 . S
H794 C727 0.961 . S
H795 C729 0.929 . S
H796 C732 0.930 . S
H797 C733 0.929 . S
H798 C736 0.930 . S
H799 C739 0.929 . S
H800 C740 0.930 . S
H801 C744 0.962 . S
H802 C744 0.959 . S
H803 C744 0.958 . S
C804 C805 1.560 . S
C804 H865 0.959 . S
C804 H866 0.959 . S
C804 H867 0.960 . S
C805 C804 1.560 . S
C805 O860 1.426 . S
C805 H864 0.980 . S
C806 C807 1.407 . S
C806 C811 1.418 . S
C806 O860 1.334 . S
C807 C806 1.407 . S
C807 C808 1.360 . S
C807 H868 0.929 . S
C808 C807 1.360 . S
C808 C809 1.401 . S
C808 C812 1.527 . S
C809 C808 1.401 . S
C809 C810 1.405 . S
C809 C842 1.587 . S
C810 C809 1.405 . S
C810 C811 1.332 . S
C810 C813 1.496 . S
C811 C806 1.418 . S
C811 C810 1.332 . S
C811 H869 0.929 . S
C812 C808 1.527 . S
C812 H870 0.959 . S
C812 H871 0.961 . S
C812 H872 0.961 . S
C813 C810 1.496 . S
C813 H873 0.960 . S
C813 H874 0.960 . S
C813 H875 0.961 . S
C814 C815 1.517 . S
C814 H877 0.961 . S
C814 H878 0.960 . S
C814 H879 0.959 . S
C815 C814 1.517 . S
C815 O863 1.468 . S
C815 H876 0.980 . S
C816 C817 1.349 . S
C816 C821 1.367 . S
C816 O863 1.408 . S
C817 C816 1.349 . S
C817 C818 1.407 . S
C817 H880 0.930 . S
C818 C817 1.407 . S
C818 C819 1.449 . S
C818 C822 1.535 . S
C819 C818 1.449 . S
C819 C820 1.384 . S
C819 C844 1.553 . S
C820 C819 1.384 . S
C820 C821 1.364 . S
C820 C823 1.450 . S
C821 C816 1.367 . S
C821 C820 1.364 . S
C821 H881 0.931 . S
C822 C818 1.535 . S
C822 H882 0.959 . S
C822 H883 0.961 . S
C822 H884 0.959 . S
C823 C820 1.450 . S
C823 H885 0.960 . S
C823 H886 0.960 . S
C823 H887 0.960 . S
C824 C825 1.309 . S
C824 C829 1.304 . S
C824 O862 1.435 . S
C825 C824 1.309 . S
C825 C826 1.476 . S
C825 H889 0.930 . S
C826 C825 1.476 . S
C826 C827 1.400 . S
C826 C830 1.567 . S
C827 C826 1.400 . S
C827 C828 1.373 . S
C827 C849 1.432 . S
C828 C827 1.373 . S
C828 C829 1.339 . S
C828 C831 1.530 . S
C829 C824 1.304 . S
C829 C828 1.339 . S
C829 H890 0.930 . S
C830 C826 1.567 . S
C830 H891 0.961 . S
C830 H892 0.960 . S
C830 H893 0.958 . S
C831 C828 1.530 . S
C831 H894 0.961 . S
C831 H895 0.960 . S
C831 H896 0.960 . S
C832 C833 1.530 . S
C832 H898 0.961 . S
C832 H899 0.961 . S
C832 H900 0.959 . S
C833 C832 1.530 . S
C833 O861 1.412 . S
C833 H897 0.980 . S
C834 C835 1.288 . S
C834 C839 1.377 . S
C834 O861 1.393 . S
C835 C834 1.288 . S
C835 C836 1.369 . S
C835 H901 0.932 . S
C836 C835 1.369 . S
C836 C837 1.398 . S
C836 C840 1.527 . S
C837 C836 1.398 . S
C837 C838 1.380 . S
C837 C851 1.497 . S
C838 C837 1.380 . S
C838 C839 1.383 . S
C838 C841 1.603 . S
C839 C834 1.377 . S
C839 C838 1.383 . S
C839 H902 0.929 . S
C840 C836 1.527 . S
C840 H903 0.961 . S
C840 H904 0.959 . S
C840 H905 0.959 . S
C841 C838 1.603 . S
C841 H906 0.960 . S
C841 H907 0.962 . S
C841 H908 0.961 . S
C842 C809 1.587 . S
C842 C843 1.360 . S
C842 C855 1.412 . S
C843 C842 1.360 . S
C843 C844 1.365 . S
C843 H909 0.929 . S
C844 C819 1.553 . S
C844 C843 1.365 . S
C844 C845 1.404 . S
C845 C844 1.404 . S
C845 C846 1.395 . S
C845 C856 1.451 . S
C846 C845 1.395 . S
C846 C847 1.322 . S
C846 H910 0.930 . S
C847 C846 1.322 . S
C847 C848 1.459 . S
C847 H911 0.929 . S
C848 C847 1.459 . S
C848 C849 1.445 . S
C848 C857 1.395 . S
C849 C827 1.432 . S
C849 C848 1.445 . S
C849 C850 1.370 . S
C850 C849 1.370 . S
C850 C851 1.438 . S
C850 H912 0.930 . S
C851 C837 1.497 . S
C851 C850 1.438 . S
C851 C852 1.360 . S
C852 C851 1.360 . S
C852 C853 1.401 . S
C852 C857 1.446 . S
C853 C852 1.401 . S
C853 C854 1.347 . S
C853 H913 0.929 . S
C854 C853 1.347 . S
C854 C855 1.455 . S
C854 H914 0.930 . S
C855 C842 1.412 . S
C855 C854 1.455 . S
C855 C856 1.331 . S
C856 C845 1.451 . S
C856 C855 1.331 . S
C856 C857 1.497 . S
C857 C848 1.395 . S
C857 C852 1.446 . S
C857 C856 1.497 . S
C858 C859 1.582 . S
C858 H915 0.962 . S
C858 H916 0.959 . S
C858 H917 0.958 . S
C859 C858 1.582 . S
C859 O862 1.458 . S
C859 H888 0.980 . S
O860 C805 1.426 . S
O860 C806 1.334 . S
O861 C833 1.412 . S
O861 C834 1.393 . S
O862 C824 1.435 . S
O862 C859 1.458 . S
O863 C815 1.468 . S
O863 C816 1.408 . S
H864 C805 0.980 . S
H865 C804 0.959 . S
H866 C804 0.959 . S
H867 C804 0.960 . S
H868 C807 0.929 . S
H869 C811 0.929 . S
H870 C812 0.959 . S
H871 C812 0.961 . S
H872 C812 0.961 . S
H873 C813 0.960 . S
H874 C813 0.960 . S
H875 C813 0.961 . S
H876 C815 0.980 . S
H877 C814 0.961 . S
H878 C814 0.960 . S
H879 C814 0.959 . S
H880 C817 0.930 . S
H881 C821 0.931 . S
H882 C822 0.959 . S
H883 C822 0.961 . S
H884 C822 0.959 . S
H885 C823 0.960 . S
H886 C823 0.960 . S
H887 C823 0.960 . S
H888 C859 0.980 . S
H889 C825 0.930 . S
H890 C829 0.930 . S
H891 C830 0.961 . S
H892 C830 0.960 . S
H893 C830 0.958 . S
H894 C831 0.961 . S
H895 C831 0.960 . S
H896 C831 0.960 . S
H897 C833 0.980 . S
H898 C832 0.961 . S
H899 C832 0.961 . S
H900 C832 0.959 . S
H901 C835 0.932 . S
H902 C839 0.929 . S
H903 C840 0.961 . S
H904 C840 0.959 . S
H905 C840 0.959 . S
H906 C841 0.960 . S
H907 C841 0.962 . S
H908 C841 0.961 . S
H909 C843 0.929 . S
H910 C846 0.930 . S
H911 C847 0.929 . S
H912 C850 0.930 . S
H913 C853 0.929 . S
H914 C854 0.930 . S
H915 C858 0.962 . S
H916 C858 0.959 . S
H917 C858 0.958 . S
C918 C919 1.560 . S
C918 H979 0.959 . S
C918 H980 0.959 . S
C918 H981 0.960 . S
C919 C918 1.560 . S
C919 O974 1.426 . S
C919 H978 0.980 . S
C920 C921 1.407 . S
C920 C925 1.418 . S
C920 O974 1.334 . S
C921 C920 1.407 . S
C921 C922 1.360 . S
C921 H982 0.929 . S
C922 C921 1.360 . S
C922 C923 1.401 . S
C922 C926 1.527 . S
C923 C922 1.401 . S
C923 C924 1.405 . S
C923 C956 1.587 . S
C924 C923 1.405 . S
C924 C925 1.332 . S
C924 C927 1.496 . S
C925 C920 1.418 . S
C925 C924 1.332 . S
C925 H983 0.929 . S
C926 C922 1.527 . S
C926 H984 0.959 . S
C926 H985 0.961 . S
C926 H986 0.961 . S
C927 C924 1.496 . S
C927 H987 0.960 . S
C927 H988 0.960 . S
C927 H989 0.961 . S
C928 C929 1.517 . S
C928 H991 0.961 . S
C928 H992 0.960 . S
C928 H993 0.959 . S
C929 C928 1.517 . S
C929 O977 1.468 . S
C929 H990 0.980 . S
C930 C931 1.349 . S
C930 C935 1.367 . S
C930 O977 1.408 . S
C931 C930 1.349 . S
C931 C932 1.407 . S
C931 H994 0.930 . S
C932 C931 1.407 . S
C932 C933 1.449 . S
C932 C936 1.535 . S
C933 C932 1.449 . S
C933 C934 1.384 . S
C933 C958 1.553 . S
C934 C933 1.384 . S
C934 C935 1.364 . S
C934 C937 1.450 . S
C935 C930 1.367 . S
C935 C934 1.364 . S
C935 H995 0.931 . S
C936 C932 1.535 . S
C936 H996 0.959 . S
C936 H997 0.961 . S
C936 H998 0.959 . S
C937 C934 1.450 . S
C937 H999 0.960 . S
C937 H1000 0.960 . S
C937 H1001 0.960 . S
C938 C939 1.309 . S
C938 C943 1.304 . S
C938 O976 1.435 . S
C939 C938 1.309 . S
C939 C940 1.476 . S
C939 H1003 0.930 . S
C940 C939 1.476 . S
C940 C941 1.400 . S
C940 C944 1.567 . S
C941 C940 1.400 . S
C941 C942 1.373 . S
C941 C963 1.432 . S
C942 C941 1.373 . S
C942 C943 1.339 . S
C942 C945 1.530 . S
C943 C938 1.304 . S
C943 C942 1.339 . S
C943 H1004 0.930 . S
C944 C940 1.567 . S
C944 H1005 0.961 . S
C944 H1006 0.960 . S
C944 H1007 0.958 . S
C945 C942 1.530 . S
C945 H1008 0.961 . S
C945 H1009 0.960 . S
C945 H1010 0.960 . S
C946 C947 1.530 . S
C946 H1012 0.961 . S
C946 H1013 0.961 . S
C946 H1014 0.959 . S
C947 C946 1.530 . S
C947 O975 1.412 . S
C947 H1011 0.980 . S
C948 C949 1.288 . S
C948 C953 1.377 . S
C948 O975 1.393 . S
C949 C948 1.288 . S
C949 C950 1.369 . S
C949 H1015 0.932 . S
C950 C949 1.369 . S
C950 C951 1.398 . S
C950 C954 1.527 . S
C951 C950 1.398 . S
C951 C952 1.380 . S
C951 C965 1.497 . S
C952 C951 1.380 . S
C952 C953 1.383 . S
C952 C955 1.603 . S
C953 C948 1.377 . S
C953 C952 1.383 . S
C953 H1016 0.929 . S
C954 C950 1.527 . S
C954 H1017 0.961 . S
C954 H1018 0.959 . S
C954 H1019 0.959 . S
C955 C952 1.603 . S
C955 H1020 0.960 . S
C955 H1021 0.962 . S
C955 H1022 0.961 . S
C956 C923 1.587 . S
C956 C957 1.360 . S
C956 C969 1.412 . S
C957 C956 1.360 . S
C957 C958 1.365 . S
C957 H1023 0.929 . S
C958 C933 1.553 . S
C958 C957 1.365 . S
C958 C959 1.404 . S
C959 C958 1.404 . S
C959 C960 1.395 . S
C959 C970 1.451 . S
C960 C959 1.395 . S
C960 C961 1.322 . S
C960 H1024 0.930 . S
C961 C960 1.322 . S
C961 C962 1.459 . S
C961 H1025 0.929 . S
C962 C961 1.459 . S
C962 C963 1.445 . S
C962 C971 1.395 . S
C963 C941 1.432 . S
C963 C962 1.445 . S
C963 C964 1.370 . S
C964 C963 1.370 . S
C964 C965 1.438 . S
C964 H1026 0.930 . S
C965 C951 1.497 . S
C965 C964 1.438 . S
C965 C966 1.360 . S
C966 C965 1.360 . S
C966 C967 1.401 . S
C966 C971 1.446 . S
C967 C966 1.401 . S
C967 C968 1.347 . S
C967 H1027 0.929 . S
C968 C967 1.347 . S
C968 C969 1.455 . S
C968 H1028 0.930 . S
C969 C956 1.412 . S
C969 C968 1.455 . S
C969 C970 1.331 . S
C970 C959 1.451 . S
C970 C969 1.331 . S
C970 C971 1.497 . S
C971 C962 1.395 . S
C971 C966 1.446 . S
C971 C970 1.497 . S
C972 C973 1.582 . S
C972 H1029 0.962 . S
C972 H1030 0.959 . S
C972 H1031 0.958 . S
C973 C972 1.582 . S
C973 O976 1.458 . S
C973 H1002 0.980 . S
O974 C919 1.426 . S
O974 C920 1.334 . S
O975 C947 1.412 . S
O975 C948 1.393 . S
O976 C938 1.435 . S
O976 C973 1.458 . S
O977 C929 1.468 . S
O977 C930 1.408 . S
H978 C919 0.980 . S
H979 C918 0.959 . S
H980 C918 0.959 . S
H981 C918 0.960 . S
H982 C921 0.929 . S
H983 C925 0.929 . S
H984 C926 0.959 . S
H985 C926 0.961 . S
H986 C926 0.961 . S
H987 C927 0.960 . S
H988 C927 0.960 . S
H989 C927 0.961 . S
H990 C929 0.980 . S
H991 C928 0.961 . S
H992 C928 0.960 . S
H993 C928 0.959 . S
H994 C931 0.930 . S
H995 C935 0.931 . S
H996 C936 0.959 . S
H997 C936 0.961 . S
H998 C936 0.959 . S
H999 C937 0.960 . S
H1000 C937 0.960 . S
H1001 C937 0.960 . S
H1002 C973 0.980 . S
H1003 C939 0.930 . S
H1004 C943 0.930 . S
H1005 C944 0.961 . S
H1006 C944 0.960 . S
H1007 C944 0.958 . S
H1008 C945 0.961 . S
H1009 C945 0.960 . S
H1010 C945 0.960 . S
H1011 C947 0.980 . S
H1012 C946 0.961 . S
H1013 C946 0.961 . S
H1014 C946 0.959 . S
H1015 C949 0.932 . S
H1016 C953 0.929 . S
H1017 C954 0.961 . S
H1018 C954 0.959 . S
H1019 C954 0.959 . S
H1020 C955 0.960 . S
H1021 C955 0.962 . S
H1022 C955 0.961 . S
H1023 C957 0.929 . S
H1024 C960 0.930 . S
H1025 C961 0.929 . S
H1026 C964 0.930 . S
H1027 C967 0.929 . S
H1028 C968 0.930 . S
H1029 C972 0.962 . S
H1030 C972 0.959 . S
H1031 C972 0.958 . S
C1032 C1033 1.560 . S
C1032 H1093 0.959 . S
C1032 H1094 0.959 . S
C1032 H1095 0.960 . S
C1033 C1032 1.560 . S
C1033 O1088 1.426 . S
C1033 H1092 0.980 . S
C1034 C1035 1.407 . S
C1034 C1039 1.418 . S
C1034 O1088 1.334 . S
C1035 C1034 1.407 . S
C1035 C1036 1.360 . S
C1035 H1096 0.929 . S
C1036 C1035 1.360 . S
C1036 C1037 1.401 . S
C1036 C1040 1.527 . S
C1037 C1036 1.401 . S
C1037 C1038 1.405 . S
C1037 C1070 1.587 . S
C1038 C1037 1.405 . S
C1038 C1039 1.332 . S
C1038 C1041 1.496 . S
C1039 C1034 1.418 . S
C1039 C1038 1.332 . S
C1039 H1097 0.929 . S
C1040 C1036 1.527 . S
C1040 H1098 0.959 . S
C1040 H1099 0.961 . S
C1040 H1100 0.961 . S
C1041 C1038 1.496 . S
C1041 H1101 0.960 . S
C1041 H1102 0.960 . S
C1041 H1103 0.961 . S
C1042 C1043 1.517 . S
C1042 H1105 0.961 . S
C1042 H1106 0.960 . S
C1042 H1107 0.959 . S
C1043 C1042 1.517 . S
C1043 O1091 1.468 . S
C1043 H1104 0.980 . S
C1044 C1045 1.349 . S
C1044 C1049 1.367 . S
C1044 O1091 1.408 . S
C1045 C1044 1.349 . S
C1045 C1046 1.407 . S
C1045 H1108 0.930 . S
C1046 C1045 1.407 . S
C1046 C1047 1.449 . S
C1046 C1050 1.535 . S
C1047 C1046 1.449 . S
C1047 C1048 1.384 . S
C1047 C1072 1.553 . S
C1048 C1047 1.384 . S
C1048 C1049 1.364 . S
C1048 C1051 1.450 . S
C1049 C1044 1.367 . S
C1049 C1048 1.364 . S
C1049 H1109 0.931 . S
C1050 C1046 1.535 . S
C1050 H1110 0.959 . S
C1050 H1111 0.961 . S
C1050 H1112 0.959 . S
C1051 C1048 1.450 . S
C1051 H1113 0.960 . S
C1051 H1114 0.960 . S
C1051 H1115 0.960 . S
C1052 C1053 1.309 . S
C1052 C1057 1.304 . S
C1052 O1090 1.435 . S
C1053 C1052 1.309 . S
C1053 C1054 1.476 . S
C1053 H1117 0.930 . S
C1054 C1053 1.476 . S
C1054 C1055 1.400 . S
C1054 C1058 1.567 . S
C1055 C1054 1.400 . S
C1055 C1056 1.373 . S
C1055 C1077 1.432 . S
C1056 C1055 1.373 . S
C1056 C1057 1.339 . S
C1056 C1059 1.530 . S
C1057 C1052 1.304 . S
C1057 C1056 1.339 . S
C1057 H1118 0.930 . S
C1058 C1054 1.567 . S
C1058 H1119 0.961 . S
C1058 H1120 0.960 . S
C1058 H1121 0.958 . S
C1059 C1056 1.530 . S
C1059 H1122 0.961 . S
C1059 H1123 0.960 . S
C1059 H1124 0.960 . S
C1060 C1061 1.530 . S
C1060 H1126 0.961 . S
C1060 H1127 0.961 . S
C1060 H1128 0.959 . S
C1061 C1060 1.530 . S
C1061 O1089 1.412 . S
C1061 H1125 0.980 . S
C1062 C1063 1.288 . S
C1062 C1067 1.377 . S
C1062 O1089 1.393 . S
C1063 C1062 1.288 . S
C1063 C1064 1.369 . S
C1063 H1129 0.932 . S
C1064 C1063 1.369 . S
C1064 C1065 1.398 . S
C1064 C1068 1.527 . S
C1065 C1064 1.398 . S
C1065 C1066 1.380 . S
C1065 C1079 1.497 . S
C1066 C1065 1.380 . S
C1066 C1067 1.383 . S
C1066 C1069 1.603 . S
C1067 C1062 1.377 . S
C1067 C1066 1.383 . S
C1067 H1130 0.929 . S
C1068 C1064 1.527 . S
C1068 H1131 0.961 . S
C1068 H1132 0.959 . S
C1068 H1133 0.959 . S
C1069 C1066 1.603 . S
C1069 H1134 0.960 . S
C1069 H1135 0.962 . S
C1069 H1136 0.961 . S
C1070 C1037 1.587 . S
C1070 C1071 1.360 . S
C1070 C1083 1.412 . S
C1071 C1070 1.360 . S
C1071 C1072 1.365 . S
C1071 H1137 0.929 . S
C1072 C1047 1.553 . S
C1072 C1071 1.365 . S
C1072 C1073 1.404 . S
C1073 C1072 1.404 . S
C1073 C1074 1.395 . S
C1073 C1084 1.451 . S
C1074 C1073 1.395 . S
C1074 C1075 1.322 . S
C1074 H1138 0.930 . S
C1075 C1074 1.322 . S
C1075 C1076 1.459 . S
C1075 H1139 0.929 . S
C1076 C1075 1.459 . S
C1076 C1077 1.445 . S
C1076 C1085 1.395 . S
C1077 C1055 1.432 . S
C1077 C1076 1.445 . S
C1077 C1078 1.370 . S
C1078 C1077 1.370 . S
C1078 C1079 1.438 . S
C1078 H1140 0.930 . S
C1079 C1065 1.497 . S
C1079 C1078 1.438 . S
C1079 C1080 1.360 . S
C1080 C1079 1.360 . S
C1080 C1081 1.401 . S
C1080 C1085 1.446 . S
C1081 C1080 1.401 . S
C1081 C1082 1.347 . S
C1081 H1141 0.929 . S
C1082 C1081 1.347 . S
C1082 C1083 1.455 . S
C1082 H1142 0.930 . S
C1083 C1070 1.412 . S
C1083 C1082 1.455 . S
C1083 C1084 1.331 . S
C1084 C1073 1.451 . S
C1084 C1083 1.331 . S
C1084 C1085 1.497 . S
C1085 C1076 1.395 . S
C1085 C1080 1.446 . S
C1085 C1084 1.497 . S
C1086 C1087 1.582 . S
C1086 H1143 0.962 . S
C1086 H1144 0.959 . S
C1086 H1145 0.958 . S
C1087 C1086 1.582 . S
C1087 O1090 1.458 . S
C1087 H1116 0.980 . S
O1088 C1033 1.426 . S
O1088 C1034 1.334 . S
O1089 C1061 1.412 . S
O1089 C1062 1.393 . S
O1090 C1052 1.435 . S
O1090 C1087 1.458 . S
O1091 C1043 1.468 . S
O1091 C1044 1.408 . S
H1092 C1033 0.980 . S
H1093 C1032 0.959 . S
H1094 C1032 0.959 . S
H1095 C1032 0.960 . S
H1096 C1035 0.929 . S
H1097 C1039 0.929 . S
H1098 C1040 0.959 . S
H1099 C1040 0.961 . S
H1100 C1040 0.961 . S
H1101 C1041 0.960 . S
H1102 C1041 0.960 . S
H1103 C1041 0.961 . S
H1104 C1043 0.980 . S
H1105 C1042 0.961 . S
H1106 C1042 0.960 . S
H1107 C1042 0.959 . S
H1108 C1045 0.930 . S
H1109 C1049 0.931 . S
H1110 C1050 0.959 . S
H1111 C1050 0.961 . S
H1112 C1050 0.959 . S
H1113 C1051 0.960 . S
H1114 C1051 0.960 . S
H1115 C1051 0.960 . S
H1116 C1087 0.980 . S
H1117 C1053 0.930 . S
H1118 C1057 0.930 . S
H1119 C1058 0.961 . S
H1120 C1058 0.960 . S
H1121 C1058 0.958 . S
H1122 C1059 0.961 . S
H1123 C1059 0.960 . S
H1124 C1059 0.960 . S
H1125 C1061 0.980 . S
H1126 C1060 0.961 . S
H1127 C1060 0.961 . S
H1128 C1060 0.959 . S
H1129 C1063 0.932 . S
H1130 C1067 0.929 . S
H1131 C1068 0.961 . S
H1132 C1068 0.959 . S
H1133 C1068 0.959 . S
H1134 C1069 0.960 . S
H1135 C1069 0.962 . S
H1136 C1069 0.961 . S
H1137 C1071 0.929 . S
H1138 C1074 0.930 . S
H1139 C1075 0.929 . S
H1140 C1078 0.930 . S
H1141 C1081 0.929 . S
H1142 C1082 0.930 . S
H1143 C1086 0.962 . S
H1144 C1086 0.959 . S
H1145 C1086 0.958 . S
C1146 C1147 1.560 . S
C1146 H1207 0.959 . S
C1146 H1208 0.959 . S
C1146 H1209 0.960 . S
C1147 C1146 1.560 . S
C1147 O1202 1.426 . S
C1147 H1206 0.980 . S
C1148 C1149 1.407 . S
C1148 C1153 1.418 . S
C1148 O1202 1.334 . S
C1149 C1148 1.407 . S
C1149 C1150 1.360 . S
C1149 H1210 0.929 . S
C1150 C1149 1.360 . S
C1150 C1151 1.401 . S
C1150 C1154 1.527 . S
C1151 C1150 1.401 . S
C1151 C1152 1.405 . S
C1151 C1184 1.587 . S
C1152 C1151 1.405 . S
C1152 C1153 1.332 . S
C1152 C1155 1.496 . S
C1153 C1148 1.418 . S
C1153 C1152 1.332 . S
C1153 H1211 0.929 . S
C1154 C1150 1.527 . S
C1154 H1212 0.959 . S
C1154 H1213 0.961 . S
C1154 H1214 0.961 . S
C1155 C1152 1.496 . S
C1155 H1215 0.960 . S
C1155 H1216 0.960 . S
C1155 H1217 0.961 . S
C1156 C1157 1.517 . S
C1156 H1219 0.961 . S
C1156 H1220 0.960 . S
C1156 H1221 0.959 . S
C1157 C1156 1.517 . S
C1157 O1205 1.468 . S
C1157 H1218 0.980 . S
C1158 C1159 1.349 . S
C1158 C1163 1.367 . S
C1158 O1205 1.408 . S
C1159 C1158 1.349 . S
C1159 C1160 1.407 . S
C1159 H1222 0.930 . S
C1160 C1159 1.407 . S
C1160 C1161 1.449 . S
C1160 C1164 1.535 . S
C1161 C1160 1.449 . S
C1161 C1162 1.384 . S
C1161 C1186 1.553 . S
C1162 C1161 1.384 . S
C1162 C1163 1.364 . S
C1162 C1165 1.450 . S
C1163 C1158 1.367 . S
C1163 C1162 1.364 . S
C1163 H1223 0.931 . S
C1164 C1160 1.535 . S
C1164 H1224 0.959 . S
C1164 H1225 0.961 . S
C1164 H1226 0.959 . S
C1165 C1162 1.450 . S
C1165 H1227 0.960 . S
C1165 H1228 0.960 . S
C1165 H1229 0.960 . S
C1166 C1167 1.309 . S
C1166 C1171 1.304 . S
C1166 O1204 1.435 . S
C1167 C1166 1.309 . S
C1167 C1168 1.476 . S
C1167 H1231 0.930 . S
C1168 C1167 1.476 . S
C1168 C1169 1.400 . S
C1168 C1172 1.567 . S
C1169 C1168 1.400 . S
C1169 C1170 1.373 . S
C1169 C1191 1.432 . S
C1170 C1169 1.373 . S
C1170 C1171 1.339 . S
C1170 C1173 1.530 . S
C1171 C1166 1.304 . S
C1171 C1170 1.339 . S
C1171 H1232 0.930 . S
C1172 C1168 1.567 . S
C1172 H1233 0.961 . S
C1172 H1234 0.960 . S
C1172 H1235 0.958 . S
C1173 C1170 1.530 . S
C1173 H1236 0.961 . S
C1173 H1237 0.960 . S
C1173 H1238 0.960 . S
C1174 C1175 1.530 . S
C1174 H1240 0.961 . S
C1174 H1241 0.961 . S
C1174 H1242 0.959 . S
C1175 C1174 1.530 . S
C1175 O1203 1.412 . S
C1175 H1239 0.980 . S
C1176 C1177 1.288 . S
C1176 C1181 1.377 . S
C1176 O1203 1.393 . S
C1177 C1176 1.288 . S
C1177 C1178 1.369 . S
C1177 H1243 0.932 . S
C1178 C1177 1.369 . S
C1178 C1179 1.398 . S
C1178 C1182 1.527 . S
C1179 C1178 1.398 . S
C1179 C1180 1.380 . S
C1179 C1193 1.497 . S
C1180 C1179 1.380 . S
C1180 C1181 1.383 . S
C1180 C1183 1.603 . S
C1181 C1176 1.377 . S
C1181 C1180 1.383 . S
C1181 H1244 0.929 . S
C1182 C1178 1.527 . S
C1182 H1245 0.961 . S
C1182 H1246 0.959 . S
C1182 H1247 0.959 . S
C1183 C1180 1.603 . S
C1183 H1248 0.960 . S
C1183 H1249 0.962 . S
C1183 H1250 0.961 . S
C1184 C1151 1.587 . S
C1184 C1185 1.360 . S
C1184 C1197 1.412 . S
C1185 C1184 1.360 . S
C1185 C1186 1.365 . S
C1185 H1251 0.929 . S
C1186 C1161 1.553 . S
C1186 C1185 1.365 . S
C1186 C1187 1.404 . S
C1187 C1186 1.404 . S
C1187 C1188 1.395 . S
C1187 C1198 1.451 . S
C1188 C1187 1.395 . S
C1188 C1189 1.322 . S
C1188 H1252 0.930 . S
C1189 C1188 1.322 . S
C1189 C1190 1.459 . S
C1189 H1253 0.929 . S
C1190 C1189 1.459 . S
C1190 C1191 1.445 . S
C1190 C1199 1.395 . S
C1191 C1169 1.432 . S
C1191 C1190 1.445 . S
C1191 C1192 1.370 . S
C1192 C1191 1.370 . S
C1192 C1193 1.438 . S
C1192 H1254 0.930 . S
C1193 C1179 1.497 . S
C1193 C1192 1.438 . S
C1193 C1194 1.360 . S
C1194 C1193 1.360 . S
C1194 C1195 1.401 . S
C1194 C1199 1.446 . S
C1195 C1194 1.401 . S
C1195 C1196 1.347 . S
C1195 H1255 0.929 . S
C1196 C1195 1.347 . S
C1196 C1197 1.455 . S
C1196 H1256 0.930 . S
C1197 C1184 1.412 . S
C1197 C1196 1.455 . S
C1197 C1198 1.331 . S
C1198 C1187 1.451 . S
C1198 C1197 1.331 . S
C1198 C1199 1.497 . S
C1199 C1190 1.395 . S
C1199 C1194 1.446 . S
C1199 C1198 1.497 . S
C1200 C1201 1.582 . S
C1200 H1257 0.962 . S
C1200 H1258 0.959 . S
C1200 H1259 0.958 . S
C1201 C1200 1.582 . S
C1201 O1204 1.458 . S
C1201 H1230 0.980 . S
O1202 C1147 1.426 . S
O1202 C1148 1.334 . S
O1203 C1175 1.412 . S
O1203 C1176 1.393 . S
O1204 C1166 1.435 . S
O1204 C1201 1.458 . S
O1205 C1157 1.468 . S
O1205 C1158 1.408 . S
H1206 C1147 0.980 . S
H1207 C1146 0.959 . S
H1208 C1146 0.959 . S
H1209 C1146 0.960 . S
H1210 C1149 0.929 . S
H1211 C1153 0.929 . S
H1212 C1154 0.959 . S
H1213 C1154 0.961 . S
H1214 C1154 0.961 . S
H1215 C1155 0.960 . S
H1216 C1155 0.960 . S
H1217 C1155 0.961 . S
H1218 C1157 0.980 . S
H1219 C1156 0.961 . S
H1220 C1156 0.960 . S
H1221 C1156 0.959 . S
H1222 C1159 0.930 . S
H1223 C1163 0.931 . S
H1224 C1164 0.959 . S
H1225 C1164 0.961 . S
H1226 C1164 0.959 . S
H1227 C1165 0.960 . S
H1228 C1165 0.960 . S
H1229 C1165 0.960 . S
H1230 C1201 0.980 . S
H1231 C1167 0.930 . S
H1232 C1171 0.930 . S
H1233 C1172 0.961 . S
H1234 C1172 0.960 . S
H1235 C1172 0.958 . S
H1236 C1173 0.961 . S
H1237 C1173 0.960 . S
H1238 C1173 0.960 . S
H1239 C1175 0.980 . S
H1240 C1174 0.961 . S
H1241 C1174 0.961 . S
H1242 C1174 0.959 . S
H1243 C1177 0.932 . S
H1244 C1181 0.929 . S
H1245 C1182 0.961 . S
H1246 C1182 0.959 . S
H1247 C1182 0.959 . S
H1248 C1183 0.960 . S
H1249 C1183 0.962 . S
H1250 C1183 0.961 . S
H1251 C1185 0.929 . S
H1252 C1188 0.930 . S
H1253 C1189 0.929 . S
H1254 C1192 0.930 . S
H1255 C1195 0.929 . S
H1256 C1196 0.930 . S
H1257 C1200 0.962 . S
H1258 C1200 0.959 . S
H1259 C1200 0.958 . S
C1260 C1261 1.560 . S
C1260 H1321 0.959 . S
C1260 H1322 0.959 . S
C1260 H1323 0.960 . S
C1261 C1260 1.560 . S
C1261 O1316 1.426 . S
C1261 H1320 0.980 . S
C1262 C1263 1.407 1_455 S
C1262 C1267 1.418 . S
C1262 O1316 1.334 . S
C1263 C1262 1.407 1_655 S
C1263 C1264 1.360 . S
C1263 H1324 0.929 . S
C1264 C1263 1.360 . S
C1264 C1265 1.401 1_655 S
C1264 C1268 1.527 . S
C1265 C1264 1.401 1_455 S
C1265 C1266 1.405 . S
C1265 C1298 1.587 1_455 S
C1266 C1265 1.405 . S
C1266 C1267 1.332 . S
C1266 C1269 1.496 . S
C1267 C1262 1.418 . S
C1267 C1266 1.332 . S
C1267 H1325 0.929 . S
C1268 C1264 1.527 . S
C1268 H1326 0.959 . S
C1268 H1327 0.961 . S
C1268 H1328 0.961 . S
C1269 C1266 1.496 . S
C1269 H1329 0.960 . S
C1269 H1330 0.960 . S
C1269 H1331 0.961 . S
C1270 C1271 1.517 . S
C1270 H1333 0.961 . S
C1270 H1334 0.960 . S
C1270 H1335 0.959 . S
C1271 C1270 1.517 . S
C1271 O1319 1.468 . S
C1271 H1332 0.963 1_655 S
C1272 C1273 1.349 . S
C1272 C1277 1.367 . S
C1272 O1319 1.408 . S
C1273 C1272 1.349 . S
C1273 C1274 1.407 1_655 S
C1273 H1336 0.930 1_655 S
C1274 C1273 1.407 1_455 S
C1274 C1275 1.449 1_455 S
C1274 C1278 1.536 . S
C1275 C1274 1.449 1_655 S
C1275 C1276 1.384 . S
C1275 C1300 1.553 . S
C1276 C1275 1.384 . S
C1276 C1277 1.364 . S
C1276 C1279 1.450 . S
C1277 C1272 1.367 . S
C1277 C1276 1.364 . S
C1277 H1337 0.931 . S
C1278 C1274 1.536 . S
C1278 H1338 0.959 . S
C1278 H1339 0.961 . S
C1278 H1340 0.959 . S
C1279 C1276 1.450 . S
C1279 H1341 0.960 . S
C1279 H1342 0.960 . S
C1279 H1343 0.960 . S
C1280 C1281 1.309 . S
C1280 C1285 1.304 . S
C1280 O1318 1.435 . S
C1281 C1280 1.309 . S
C1281 C1282 1.484 . S
C1281 H1345 0.930 1_655 S
C1282 C1281 1.484 . S
C1282 C1283 1.405 . S
C1282 C1286 1.554 1_655 S
C1283 C1282 1.405 . S
C1283 C1284 1.373 . S
C1283 C1305 1.432 . S
C1284 C1283 1.373 . S
C1284 C1285 1.339 . S
C1284 C1287 1.530 . S
C1285 C1280 1.304 . S
C1285 C1284 1.339 . S
C1285 H1346 0.930 . S
C1286 C1282 1.554 1_455 S
C1286 H1347 0.961 . S
C1286 H1348 0.960 . S
C1286 H1349 0.958 . S
C1287 C1284 1.530 . S
C1287 H1350 0.961 . S
C1287 H1351 0.960 . S
C1287 H1352 0.960 . S
C1288 C1289 1.530 . S
C1288 H1354 0.961 . S
C1288 H1355 0.961 . S
C1288 H1356 0.959 . S
C1289 C1288 1.530 . S
C1289 O1317 1.412 . S
C1289 H1353 0.980 1_455 S
C1290 C1291 1.288 . S
C1290 C1295 1.377 1_455 S
C1290 O1317 1.393 . S
C1291 C1290 1.288 . S
C1291 C1292 1.369 . S
C1291 H1357 0.932 . S
C1292 C1291 1.369 . S
C1292 C1293 1.338 1_455 S
C1292 C1296 1.527 . S
C1293 C1292 1.338 1_655 S
C1293 C1294 1.397 . S
C1293 C1307 1.540 . S
C1294 C1293 1.397 . S
C1294 C1295 1.383 . S
C1294 C1297 1.603 . S
C1295 C1290 1.377 1_655 S
C1295 C1294 1.383 . S
C1295 H1358 0.929 . S
C1296 C1292 1.527 . S
C1296 H1359 0.961 . S
C1296 H1360 0.959 . S
C1296 H1361 0.959 . S
C1297 C1294 1.603 . S
C1297 H1362 0.960 . S
C1297 H1363 0.962 . S
C1297 H1364 0.961 . S
C1298 C1265 1.587 1_655 S
C1298 C1299 1.360 . S
C1298 C1311 1.412 . S
C1299 C1298 1.360 . S
C1299 C1300 1.365 . S
C1299 H1365 0.929 . S
C1300 C1275 1.553 . S
C1300 C1299 1.365 . S
C1300 C1301 1.404 . S
C1301 C1300 1.404 . S
C1301 C1302 1.395 . S
C1301 C1312 1.451 . S
C1302 C1301 1.395 . S
C1302 C1303 1.322 . S
C1302 H1366 0.930 . S
C1303 C1302 1.322 . S
C1303 C1304 1.459 . S
C1303 H1367 0.929 . S
C1304 C1303 1.459 . S
C1304 C1305 1.445 . S
C1304 C1313 1.395 . S
C1305 C1283 1.432 . S
C1305 C1304 1.445 . S
C1305 C1306 1.370 . S
C1306 C1305 1.370 . S
C1306 C1307 1.438 . S
C1306 H1368 0.930 . S
C1307 C1293 1.540 . S
C1307 C1306 1.438 . S
C1307 C1308 1.360 . S
C1308 C1307 1.360 . S
C1308 C1309 1.401 . S
C1308 C1313 1.446 . S
C1309 C1308 1.401 . S
C1309 C1310 1.347 . S
C1309 H1369 0.963 . S
C1310 C1309 1.347 . S
C1310 C1311 1.455 . S
C1310 H1370 0.964 . S
C1311 C1298 1.412 . S
C1311 C1310 1.455 . S
C1311 C1312 1.331 . S
C1312 C1301 1.451 . S
C1312 C1311 1.331 . S
C1312 C1313 1.497 . S
C1313 C1304 1.395 . S
C1313 C1308 1.446 . S
C1313 C1312 1.497 . S
C1314 C1315 1.582 . S
C1314 H1371 0.962 . S
C1314 H1372 0.959 . S
C1314 H1373 0.958 . S
C1315 C1314 1.582 . S
C1315 O1318 1.458 . S
C1315 H1344 0.980 . S
O1316 C1261 1.426 . S
O1316 C1262 1.334 . S
O1317 C1289 1.412 . S
O1317 C1290 1.393 . S
O1318 C1280 1.435 . S
O1318 C1315 1.458 . S
O1319 C1271 1.468 . S
O1319 C1272 1.408 . S
H1320 C1261 0.980 . S
H1321 C1260 0.959 . S
H1322 C1260 0.959 . S
H1323 C1260 0.960 . S
H1324 C1263 0.929 . S
H1325 C1267 0.929 . S
H1326 C1268 0.959 . S
H1327 C1268 0.961 . S
H1328 C1268 0.961 . S
H1329 C1269 0.960 . S
H1330 C1269 0.960 . S
H1331 C1269 0.961 . S
H1332 C1271 0.963 1_455 S
H1333 C1270 0.961 . S
H1334 C1270 0.960 . S
H1335 C1270 0.959 . S
H1336 C1273 0.930 1_455 S
H1337 C1277 0.931 . S
H1338 C1278 0.959 . S
H1339 C1278 0.961 . S
H1340 C1278 0.959 . S
H1341 C1279 0.960 . S
H1342 C1279 0.960 . S
H1343 C1279 0.960 . S
H1344 C1315 0.980 . S
H1345 C1281 0.930 1_455 S
H1346 C1285 0.930 . S
H1347 C1286 0.961 . S
H1348 C1286 0.960 . S
H1349 C1286 0.958 . S
H1350 C1287 0.961 . S
H1351 C1287 0.960 . S
H1352 C1287 0.960 . S
H1353 C1289 0.980 1_655 S
H1354 C1288 0.961 . S
H1355 C1288 0.961 . S
H1356 C1288 0.959 . S
H1357 C1291 0.932 . S
H1358 C1295 0.929 . S
H1359 C1296 0.961 . S
H1360 C1296 0.959 . S
H1361 C1296 0.959 . S
H1362 C1297 0.960 . S
H1363 C1297 0.962 . S
H1364 C1297 0.961 . S
H1365 C1299 0.929 . S
H1366 C1302 0.930 . S
H1367 C1303 0.929 . S
H1368 C1306 0.930 . S
H1369 C1309 0.963 . S
H1370 C1310 0.964 . S
H1371 C1314 0.962 . S
H1372 C1314 0.959 . S
H1373 C1314 0.958 . S
C1374 C1375 1.560 . S
C1374 H1435 0.959 . S
C1374 H1436 0.959 . S
C1374 H1437 0.960 . S
C1375 C1374 1.560 . S
C1375 O1430 1.426 . S
C1375 H1434 0.980 . S
C1376 C1377 1.407 . S
C1376 C1381 1.418 . S
C1376 O1430 1.334 . S
C1377 C1376 1.407 . S
C1377 C1378 1.360 . S
C1377 H1438 0.929 . S
C1378 C1377 1.360 . S
C1378 C1379 1.401 . S
C1378 C1382 1.527 . S
C1379 C1378 1.401 . S
C1379 C1380 1.405 . S
C1379 C1412 1.587 . S
C1380 C1379 1.405 . S
C1380 C1381 1.332 . S
C1380 C1383 1.496 . S
C1381 C1376 1.418 . S
C1381 C1380 1.332 . S
C1381 H1439 0.929 . S
C1382 C1378 1.527 . S
C1382 H1440 0.959 . S
C1382 H1441 0.961 . S
C1382 H1442 0.961 . S
C1383 C1380 1.496 . S
C1383 H1443 0.960 . S
C1383 H1444 0.960 . S
C1383 H1445 0.961 . S
C1384 C1385 1.517 . S
C1384 H1447 0.961 . S
C1384 H1448 0.960 . S
C1384 H1449 0.959 . S
C1385 C1384 1.517 . S
C1385 O1433 1.468 . S
C1385 H1446 0.980 . S
C1386 C1387 1.349 . S
C1386 C1391 1.367 . S
C1386 O1433 1.408 . S
C1387 C1386 1.349 . S
C1387 C1388 1.407 . S
C1387 H1450 0.930 . S
C1388 C1387 1.407 . S
C1388 C1389 1.449 . S
C1388 C1392 1.535 . S
C1389 C1388 1.449 . S
C1389 C1390 1.384 . S
C1389 C1414 1.553 . S
C1390 C1389 1.384 . S
C1390 C1391 1.364 . S
C1390 C1393 1.450 . S
C1391 C1386 1.367 . S
C1391 C1390 1.364 . S
C1391 H1451 0.931 . S
C1392 C1388 1.535 . S
C1392 H1452 0.959 . S
C1392 H1453 0.961 . S
C1392 H1454 0.959 . S
C1393 C1390 1.450 . S
C1393 H1455 0.960 . S
C1393 H1456 0.960 . S
C1393 H1457 0.960 . S
C1394 C1395 1.309 . S
C1394 C1399 1.304 . S
C1394 O1432 1.435 . S
C1395 C1394 1.309 . S
C1395 C1396 1.476 . S
C1395 H1459 0.930 . S
C1396 C1395 1.476 . S
C1396 C1397 1.400 . S
C1396 C1400 1.567 . S
C1397 C1396 1.400 . S
C1397 C1398 1.373 . S
C1397 C1419 1.432 . S
C1398 C1397 1.373 . S
C1398 C1399 1.339 . S
C1398 C1401 1.530 . S
C1399 C1394 1.304 . S
C1399 C1398 1.339 . S
C1399 H1460 0.930 . S
C1400 C1396 1.567 . S
C1400 H1461 0.961 . S
C1400 H1462 0.960 . S
C1400 H1463 0.958 . S
C1401 C1398 1.530 . S
C1401 H1464 0.961 . S
C1401 H1465 0.960 . S
C1401 H1466 0.960 . S
C1402 C1403 1.530 . S
C1402 H1468 0.961 . S
C1402 H1469 0.961 . S
C1402 H1470 0.959 . S
C1403 C1402 1.530 . S
C1403 O1431 1.412 . S
C1403 H1467 0.980 . S
C1404 C1405 1.288 . S
C1404 C1409 1.377 . S
C1404 O1431 1.393 . S
C1405 C1404 1.288 . S
C1405 C1406 1.369 . S
C1405 H1471 0.932 . S
C1406 C1405 1.369 . S
C1406 C1407 1.398 . S
C1406 C1410 1.527 . S
C1407 C1406 1.398 . S
C1407 C1408 1.380 . S
C1407 C1421 1.497 . S
C1408 C1407 1.380 . S
C1408 C1409 1.383 . S
C1408 C1411 1.603 . S
C1409 C1404 1.377 . S
C1409 C1408 1.383 . S
C1409 H1472 0.929 . S
C1410 C1406 1.527 . S
C1410 H1473 0.961 . S
C1410 H1474 0.959 . S
C1410 H1475 0.959 . S
C1411 C1408 1.603 . S
C1411 H1476 0.960 . S
C1411 H1477 0.962 . S
C1411 H1478 0.961 . S
C1412 C1379 1.587 . S
C1412 C1413 1.360 . S
C1412 C1425 1.412 . S
C1413 C1412 1.360 . S
C1413 C1414 1.365 . S
C1413 H1479 0.929 . S
C1414 C1389 1.553 . S
C1414 C1413 1.365 . S
C1414 C1415 1.404 . S
C1415 C1414 1.404 . S
C1415 C1416 1.395 . S
C1415 C1426 1.451 . S
C1416 C1415 1.395 . S
C1416 C1417 1.322 . S
C1416 H1480 0.930 . S
C1417 C1416 1.322 . S
C1417 C1418 1.459 . S
C1417 H1481 0.929 . S
C1418 C1417 1.459 . S
C1418 C1419 1.445 . S
C1418 C1427 1.395 . S
C1419 C1397 1.432 . S
C1419 C1418 1.445 . S
C1419 C1420 1.370 . S
C1420 C1419 1.370 . S
C1420 C1421 1.438 . S
C1420 H1482 0.930 . S
C1421 C1407 1.497 . S
C1421 C1420 1.438 . S
C1421 C1422 1.360 . S
C1422 C1421 1.360 . S
C1422 C1423 1.401 . S
C1422 C1427 1.446 . S
C1423 C1422 1.401 . S
C1423 C1424 1.347 . S
C1423 H1483 0.929 . S
C1424 C1423 1.347 . S
C1424 C1425 1.455 . S
C1424 H1484 0.930 . S
C1425 C1412 1.412 . S
C1425 C1424 1.455 . S
C1425 C1426 1.331 . S
C1426 C1415 1.451 . S
C1426 C1425 1.331 . S
C1426 C1427 1.497 . S
C1427 C1418 1.395 . S
C1427 C1422 1.446 . S
C1427 C1426 1.497 . S
C1428 C1429 1.582 . S
C1428 H1485 0.962 . S
C1428 H1486 0.959 . S
C1428 H1487 0.958 . S
C1429 C1428 1.582 . S
C1429 O1432 1.458 . S
C1429 H1458 0.980 . S
O1430 C1375 1.426 . S
O1430 C1376 1.334 . S
O1431 C1403 1.412 . S
O1431 C1404 1.393 . S
O1432 C1394 1.435 . S
O1432 C1429 1.458 . S
O1433 C1385 1.468 . S
O1433 C1386 1.408 . S
H1434 C1375 0.980 . S
H1435 C1374 0.959 . S
H1436 C1374 0.959 . S
H1437 C1374 0.960 . S
H1438 C1377 0.929 . S
H1439 C1381 0.929 . S
H1440 C1382 0.959 . S
H1441 C1382 0.961 . S
H1442 C1382 0.961 . S
H1443 C1383 0.960 . S
H1444 C1383 0.960 . S
H1445 C1383 0.961 . S
H1446 C1385 0.980 . S
H1447 C1384 0.961 . S
H1448 C1384 0.960 . S
H1449 C1384 0.959 . S
H1450 C1387 0.930 . S
H1451 C1391 0.931 . S
H1452 C1392 0.959 . S
H1453 C1392 0.961 . S
H1454 C1392 0.959 . S
H1455 C1393 0.960 . S
H1456 C1393 0.960 . S
H1457 C1393 0.960 . S
H1458 C1429 0.980 . S
H1459 C1395 0.930 . S
H1460 C1399 0.930 . S
H1461 C1400 0.961 . S
H1462 C1400 0.960 . S
H1463 C1400 0.958 . S
H1464 C1401 0.961 . S
H1465 C1401 0.960 . S
H1466 C1401 0.960 . S
H1467 C1403 0.980 . S
H1468 C1402 0.961 . S
H1469 C1402 0.961 . S
H1470 C1402 0.959 . S
H1471 C1405 0.932 . S
H1472 C1409 0.929 . S
H1473 C1410 0.961 . S
H1474 C1410 0.959 . S
H1475 C1410 0.959 . S
H1476 C1411 0.960 . S
H1477 C1411 0.962 . S
H1478 C1411 0.961 . S
H1479 C1413 0.929 . S
H1480 C1416 0.930 . S
H1481 C1417 0.929 . S
H1482 C1420 0.930 . S
H1483 C1423 0.929 . S
H1484 C1424 0.930 . S
H1485 C1428 0.962 . S
H1486 C1428 0.959 . S
H1487 C1428 0.958 . S
C1488 C1489 1.560 . S
C1488 H1549 0.959 . S
C1488 H1550 0.959 . S
C1488 H1551 0.960 . S
C1489 C1488 1.560 . S
C1489 O1544 1.426 . S
C1489 H1548 0.980 . S
C1490 C1491 1.407 1_565 S
C1490 C1495 1.418 . S
C1490 O1544 1.334 . S
C1491 C1490 1.407 1_545 S
C1491 C1492 1.360 . S
C1491 H1552 0.929 . S
C1492 C1491 1.360 . S
C1492 C1493 1.401 1_545 S
C1492 C1496 1.527 . S
C1493 C1492 1.401 1_565 S
C1493 C1494 1.405 . S
C1493 C1526 1.587 1_565 S
C1494 C1493 1.405 . S
C1494 C1495 1.332 . S
C1494 C1497 1.496 . S
C1495 C1490 1.418 . S
C1495 C1494 1.332 . S
C1495 H1553 0.929 . S
C1496 C1492 1.527 . S
C1496 H1554 0.959 . S
C1496 H1555 0.961 . S
C1496 H1556 0.961 . S
C1497 C1494 1.496 . S
C1497 H1557 0.960 . S
C1497 H1558 0.960 . S
C1497 H1559 0.961 . S
C1498 C1499 1.517 . S
C1498 H1561 0.961 1_545 S
C1498 H1562 0.960 . S
C1498 H1563 0.959 . S
C1499 C1498 1.517 . S
C1499 O1547 1.468 . S
C1499 H1560 0.980 1_545 S
C1500 C1501 1.326 1_545 S
C1500 C1505 1.367 . S
C1500 O1547 1.408 . S
C1501 C1500 1.326 1_565 S
C1501 C1502 1.391 . S
C1501 H1564 0.972 . S
C1502 C1501 1.391 . S
C1502 C1503 1.449 1_565 S
C1502 C1506 1.535 . S
C1503 C1502 1.449 1_545 S
C1503 C1504 1.384 . S
C1503 C1528 1.553 . S
C1504 C1503 1.384 . S
C1504 C1505 1.364 . S
C1504 C1507 1.450 . S
C1505 C1500 1.367 . S
C1505 C1504 1.364 . S
C1505 H1565 0.931 . S
C1506 C1502 1.535 . S
C1506 H1566 0.959 . S
C1506 H1567 0.961 . S
C1506 H1568 0.959 . S
C1507 C1504 1.450 . S
C1507 H1569 0.960 . S
C1507 H1570 0.960 . S
C1507 H1571 0.960 . S
C1508 C1509 1.309 . S
C1508 C1513 1.304 . S
C1508 O1546 1.435 . S
C1509 C1508 1.309 . S
C1509 C1510 1.494 1_545 S
C1509 H1573 0.930 1_545 S
C1510 C1509 1.494 1_565 S
C1510 C1511 1.345 1_565 S
C1510 C1514 1.604 . S
C1511 C1510 1.345 1_545 S
C1511 C1512 1.373 . S
C1511 C1533 1.432 . S
C1512 C1511 1.373 . S
C1512 C1513 1.339 . S
C1512 C1515 1.530 . S
C1513 C1508 1.304 . S
C1513 C1512 1.339 . S
C1513 H1574 0.930 . S
C1514 C1510 1.604 . S
C1514 H1575 0.961 . S
C1514 H1576 0.960 . S
C1514 H1577 0.958 . S
C1515 C1512 1.530 . S
C1515 H1578 0.961 . S
C1515 H1579 0.960 . S
C1515 H1580 0.960 . S
C1516 C1517 1.530 1_565 S
C1516 H1582 1.010 . S
C1516 H1583 0.961 . S
C1516 H1584 0.959 . S
C1517 C1516 1.530 1_545 S
C1517 O1545 1.412 1_545 S
C1517 H1581 0.980 . S
C1518 C1519 1.288 . S
C1518 C1523 1.377 1_565 S
C1518 O1545 1.393 . S
C1519 C1518 1.288 . S
C1519 C1520 1.369 . S
C1519 H1585 0.932 . S
C1520 C1519 1.369 . S
C1520 C1521 1.398 1_565 S
C1520 C1524 1.527 . S
C1521 C1520 1.398 1_545 S
C1521 C1522 1.380 . S
C1521 C1535 1.497 . S
C1522 C1521 1.380 . S
C1522 C1523 1.383 . S
C1522 C1525 1.603 . S
C1523 C1518 1.377 1_545 S
C1523 C1522 1.383 . S
C1523 H1586 0.929 . S
C1524 C1520 1.527 . S
C1524 H1587 0.961 . S
C1524 H1588 0.959 . S
C1524 H1589 0.959 . S
C1525 C1522 1.603 . S
C1525 H1590 0.960 . S
C1525 H1591 0.962 . S
C1525 H1592 0.961 . S
C1526 C1493 1.587 1_545 S
C1526 C1527 1.360 . S
C1526 C1539 1.412 . S
C1527 C1526 1.360 . S
C1527 C1528 1.365 . S
C1527 H1593 0.929 . S
C1528 C1503 1.553 . S
C1528 C1527 1.365 . S
C1528 C1529 1.404 . S
C1529 C1528 1.404 . S
C1529 C1530 1.395 . S
C1529 C1540 1.451 . S
C1530 C1529 1.395 . S
C1530 C1531 1.322 . S
C1530 H1594 0.930 . S
C1531 C1530 1.322 . S
C1531 C1532 1.459 . S
C1531 H1595 0.929 . S
C1532 C1531 1.459 . S
C1532 C1533 1.445 . S
C1532 C1541 1.395 . S
C1533 C1511 1.432 . S
C1533 C1532 1.445 . S
C1533 C1534 1.370 . S
C1534 C1533 1.370 . S
C1534 C1535 1.438 . S
C1534 H1596 0.930 . S
C1535 C1521 1.497 . S
C1535 C1534 1.438 . S
C1535 C1536 1.360 . S
C1536 C1535 1.360 . S
C1536 C1537 1.401 . S
C1536 C1541 1.446 . S
C1537 C1536 1.401 . S
C1537 C1538 1.347 . S
C1537 H1597 0.929 . S
C1538 C1537 1.347 . S
C1538 C1539 1.455 . S
C1538 H1598 0.930 . S
C1539 C1526 1.412 . S
C1539 C1538 1.455 . S
C1539 C1540 1.331 . S
C1540 C1529 1.451 . S
C1540 C1539 1.331 . S
C1540 C1541 1.497 . S
C1541 C1532 1.395 . S
C1541 C1536 1.446 . S
C1541 C1540 1.497 . S
C1542 C1543 1.582 . S
C1542 H1599 0.962 . S
C1542 H1600 0.959 . S
C1542 H1601 0.958 . S
C1543 C1542 1.582 . S
C1543 O1546 1.458 . S
C1543 H1572 0.980 . S
O1544 C1489 1.426 . S
O1544 C1490 1.334 . S
O1545 C1517 1.412 1_565 S
O1545 C1518 1.393 . S
O1546 C1508 1.435 . S
O1546 C1543 1.458 . S
O1547 C1499 1.468 . S
O1547 C1500 1.408 . S
H1548 C1489 0.980 . S
H1549 C1488 0.959 . S
H1550 C1488 0.959 . S
H1551 C1488 0.960 . S
H1552 C1491 0.929 . S
H1553 C1495 0.929 . S
H1554 C1496 0.959 . S
H1555 C1496 0.961 . S
H1556 C1496 0.961 . S
H1557 C1497 0.960 . S
H1558 C1497 0.960 . S
H1559 C1497 0.961 . S
H1560 C1499 0.980 1_565 S
H1561 C1498 0.961 1_565 S
H1562 C1498 0.960 . S
H1563 C1498 0.959 . S
H1564 C1501 0.972 . S
H1565 C1505 0.931 . S
H1566 C1506 0.959 . S
H1567 C1506 0.961 . S
H1568 C1506 0.959 . S
H1569 C1507 0.960 . S
H1570 C1507 0.960 . S
H1571 C1507 0.960 . S
H1572 C1543 0.980 . S
H1573 C1509 0.930 1_565 S
H1574 C1513 0.930 . S
H1575 C1514 0.961 . S
H1576 C1514 0.960 . S
H1577 C1514 0.958 . S
H1578 C1515 0.961 . S
H1579 C1515 0.960 . S
H1580 C1515 0.960 . S
H1581 C1517 0.980 . S
H1582 C1516 1.010 . S
H1583 C1516 0.961 . S
H1584 C1516 0.959 . S
H1585 C1519 0.932 . S
H1586 C1523 0.929 . S
H1587 C1524 0.961 . S
H1588 C1524 0.959 . S
H1589 C1524 0.959 . S
H1590 C1525 0.960 . S
H1591 C1525 0.962 . S
H1592 C1525 0.961 . S
H1593 C1527 0.929 . S
H1594 C1530 0.930 . S
H1595 C1531 0.929 . S
H1596 C1534 0.930 . S
H1597 C1537 0.929 . S
H1598 C1538 0.930 . S
H1599 C1542 0.962 . S
H1600 C1542 0.959 . S
H1601 C1542 0.958 . S
C1602 C1603 1.560 . S
C1602 H1663 0.959 . S
C1602 H1664 0.959 . S
C1602 H1665 0.960 . S
C1603 C1602 1.560 . S
C1603 O1658 1.426 . S
C1603 H1662 0.980 1_565 S
C1604 C1605 1.407 1_565 S
C1604 C1609 1.418 . S
C1604 O1658 1.334 . S
C1605 C1604 1.407 1_545 S
C1605 C1606 1.360 . S
C1605 H1666 0.929 . S
C1606 C1605 1.360 . S
C1606 C1607 1.401 . S
C1606 C1610 1.527 . S
C1607 C1606 1.401 . S
C1607 C1608 1.405 1_545 S
C1607 C1640 1.587 . S
C1608 C1607 1.405 1_565 S
C1608 C1609 1.332 . S
C1608 C1611 1.496 . S
C1609 C1604 1.418 . S
C1609 C1608 1.332 . S
C1609 H1667 0.929 . S
C1610 C1606 1.527 . S
C1610 H1668 0.959 . S
C1610 H1669 0.961 . S
C1610 H1670 0.961 . S
C1611 C1608 1.496 . S
C1611 H1671 0.960 . S
C1611 H1672 0.960 . S
C1611 H1673 0.961 . S
C1612 C1613 1.517 . S
C1612 H1675 0.961 . S
C1612 H1676 0.960 . S
C1612 H1677 0.959 . S
C1613 C1612 1.517 . S
C1613 O1661 1.468 . S
C1613 H1674 0.980 . S
C1614 C1615 1.349 . S
C1614 C1619 1.367 . S
C1614 O1661 1.408 . S
C1615 C1614 1.349 . S
C1615 C1616 1.407 . S
C1615 H1678 0.946 . S
C1616 C1615 1.407 . S
C1616 C1617 1.449 . S
C1616 C1620 1.535 1_545 S
C1617 C1616 1.449 . S
C1617 C1618 1.384 . S
C1617 C1642 1.553 . S
C1618 C1617 1.384 . S
C1618 C1619 1.364 . S
C1618 C1621 1.450 . S
C1619 C1614 1.367 . S
C1619 C1618 1.364 . S
C1619 H1679 0.931 . S
C1620 C1616 1.535 1_565 S
C1620 H1680 0.959 . S
C1620 H1681 0.961 . S
C1620 H1682 0.959 . S
C1621 C1618 1.450 . S
C1621 H1683 0.960 . S
C1621 H1684 0.960 . S
C1621 H1685 0.960 . S
C1622 C1623 1.309 1_545 S
C1622 C1627 1.304 . S
C1622 O1660 1.435 . S
C1623 C1622 1.309 1_565 S
C1623 C1624 1.476 . S
C1623 H1687 0.930 . S
C1624 C1623 1.476 . S
C1624 C1625 1.400 1_565 S
C1624 C1628 1.567 . S
C1625 C1624 1.400 1_545 S
C1625 C1626 1.373 . S
C1625 C1647 1.432 . S
C1626 C1625 1.373 . S
C1626 C1627 1.339 . S
C1626 C1629 1.530 . S
C1627 C1622 1.304 . S
C1627 C1626 1.339 . S
C1627 H1688 0.930 . S
C1628 C1624 1.567 . S
C1628 H1689 0.961 . S
C1628 H1690 0.960 . S
C1628 H1691 0.958 . S
C1629 C1626 1.530 . S
C1629 H1692 0.961 . S
C1629 H1693 0.960 . S
C1629 H1694 0.960 . S
C1630 C1631 1.530 . S
C1630 H1696 0.961 . S
C1630 H1697 0.961 . S
C1630 H1698 0.959 . S
C1631 C1630 1.530 . S
C1631 O1659 1.412 . S
C1631 H1695 0.980 . S
C1632 C1633 1.288 . S
C1632 C1637 1.377 1_565 S
C1632 O1659 1.393 . S
C1633 C1632 1.288 . S
C1633 C1634 1.369 . S
C1633 H1699 0.932 . S
C1634 C1633 1.369 . S
C1634 C1635 1.398 . S
C1634 C1638 1.527 . S
C1635 C1634 1.398 . S
C1635 C1636 1.380 1_565 S
C1635 C1649 1.497 1_565 S
C1636 C1635 1.380 1_545 S
C1636 C1637 1.383 . S
C1636 C1639 1.603 . S
C1637 C1632 1.377 1_545 S
C1637 C1636 1.383 . S
C1637 H1700 0.929 . S
C1638 C1634 1.527 . S
C1638 H1701 0.961 . S
C1638 H1702 0.959 . S
C1638 H1703 0.959 . S
C1639 C1636 1.603 . S
C1639 H1704 0.960 . S
C1639 H1705 0.962 . S
C1639 H1706 0.961 . S
C1640 C1607 1.587 . S
C1640 C1641 1.360 . S
C1640 C1653 1.412 . S
C1641 C1640 1.360 . S
C1641 C1642 1.365 . S
C1641 H1707 0.929 . S
C1642 C1617 1.553 . S
C1642 C1641 1.365 . S
C1642 C1643 1.404 . S
C1643 C1642 1.404 . S
C1643 C1644 1.395 . S
C1643 C1654 1.451 . S
C1644 C1643 1.395 . S
C1644 C1645 1.322 . S
C1644 H1708 0.930 . S
C1645 C1644 1.322 . S
C1645 C1646 1.459 . S
C1645 H1709 0.929 . S
C1646 C1645 1.459 . S
C1646 C1647 1.445 . S
C1646 C1655 1.395 . S
C1647 C1625 1.432 . S
C1647 C1646 1.445 . S
C1647 C1648 1.370 . S
C1648 C1647 1.370 . S
C1648 C1649 1.438 . S
C1648 H1710 0.930 . S
C1649 C1635 1.497 1_545 S
C1649 C1648 1.438 . S
C1649 C1650 1.360 . S
C1650 C1649 1.360 . S
C1650 C1651 1.401 . S
C1650 C1655 1.446 . S
C1651 C1650 1.401 . S
C1651 C1652 1.347 . S
C1651 H1711 0.933 . S
C1652 C1651 1.347 . S
C1652 C1653 1.455 . S
C1652 H1712 0.930 . S
C1653 C1640 1.412 . S
C1653 C1652 1.455 . S
C1653 C1654 1.331 . S
C1654 C1643 1.451 . S
C1654 C1653 1.331 . S
C1654 C1655 1.497 . S
C1655 C1646 1.395 . S
C1655 C1650 1.446 . S
C1655 C1654 1.497 . S
C1656 C1657 1.582 . S
C1656 H1713 0.962 . S
C1656 H1714 0.959 . S
C1656 H1715 0.958 . S
C1657 C1656 1.582 . S
C1657 O1660 1.458 . S
C1657 H1686 0.982 1_545 S
O1658 C1603 1.426 . S
O1658 C1604 1.334 . S
O1659 C1631 1.412 . S
O1659 C1632 1.393 . S
O1660 C1622 1.435 . S
O1660 C1657 1.458 . S
O1661 C1613 1.468 . S
O1661 C1614 1.408 . S
H1662 C1603 0.980 1_545 S
H1663 C1602 0.959 . S
H1664 C1602 0.959 . S
H1665 C1602 0.960 . S
H1666 C1605 0.929 . S
H1667 C1609 0.929 . S
H1668 C1610 0.959 . S
H1669 C1610 0.961 . S
H1670 C1610 0.961 . S
H1671 C1611 0.960 . S
H1672 C1611 0.960 . S
H1673 C1611 0.961 . S
H1674 C1613 0.980 . S
H1675 C1612 0.961 . S
H1676 C1612 0.960 . S
H1677 C1612 0.959 . S
H1678 C1615 0.946 . S
H1679 C1619 0.931 . S
H1680 C1620 0.959 . S
H1681 C1620 0.961 . S
H1682 C1620 0.959 . S
H1683 C1621 0.960 . S
H1684 C1621 0.960 . S
H1685 C1621 0.960 . S
H1686 C1657 0.982 1_565 S
H1687 C1623 0.930 . S
H1688 C1627 0.930 . S
H1689 C1628 0.961 . S
H1690 C1628 0.960 . S
H1691 C1628 0.958 . S
H1692 C1629 0.961 . S
H1693 C1629 0.960 . S
H1694 C1629 0.960 . S
H1695 C1631 0.980 . S
H1696 C1630 0.961 . S
H1697 C1630 0.961 . S
H1698 C1630 0.959 . S
H1699 C1633 0.932 . S
H1700 C1637 0.929 . S
H1701 C1638 0.961 . S
H1702 C1638 0.959 . S
H1703 C1638 0.959 . S
H1704 C1639 0.960 . S
H1705 C1639 0.962 . S
H1706 C1639 0.961 . S
H1707 C1641 0.929 . S
H1708 C1644 0.930 . S
H1709 C1645 0.929 . S
H1710 C1648 0.930 . S
H1711 C1651 0.933 . S
H1712 C1652 0.930 . S
H1713 C1656 0.962 . S
H1714 C1656 0.959 . S
H1715 C1656 0.958 . S
C1716 C1717 1.561 . S
C1716 H1777 0.959 . S
C1716 H1778 0.959 . S
C1716 H1779 0.960 . S
C1717 C1716 1.561 . S
C1717 O1772 1.426 . S
C1717 H1776 0.980 1_455 S
C1718 C1719 1.407 1_455 S
C1718 C1723 1.418 . S
C1718 O1772 1.334 . S
C1719 C1718 1.407 1_655 S
C1719 C1720 1.360 . S
C1719 H1780 0.929 . S
C1720 C1719 1.360 . S
C1720 C1721 1.401 . S
C1720 C1724 1.527 . S
C1721 C1720 1.401 . S
C1721 C1722 1.405 1_655 S
C1721 C1754 1.587 . S
C1722 C1721 1.405 1_455 S
C1722 C1723 1.332 . S
C1722 C1725 1.496 . S
C1723 C1718 1.418 . S
C1723 C1722 1.332 . S
C1723 H1781 0.929 . S
C1724 C1720 1.527 . S
C1724 H1782 0.959 . S
C1724 H1783 0.961 . S
C1724 H1784 0.961 . S
C1725 C1722 1.496 . S
C1725 H1785 0.960 . S
C1725 H1786 0.960 . S
C1725 H1787 0.961 . S
C1726 C1727 1.517 . S
C1726 H1789 0.961 . S
C1726 H1790 0.960 . S
C1726 H1791 0.959 . S
C1727 C1726 1.517 . S
C1727 O1775 1.468 . S
C1727 H1788 0.980 . S
C1728 C1729 1.349 . S
C1728 C1733 1.367 . S
C1728 O1775 1.408 . S
C1729 C1728 1.349 . S
C1729 C1730 1.407 . S
C1729 H1792 0.857 1_655 S
C1730 C1729 1.407 . S
C1730 C1731 1.449 . S
C1730 C1734 1.535 1_655 S
C1731 C1730 1.449 . S
C1731 C1732 1.384 . S
C1731 C1756 1.553 . S
C1732 C1731 1.384 . S
C1732 C1733 1.364 . S
C1732 C1735 1.450 . S
C1733 C1728 1.367 . S
C1733 C1732 1.364 . S
C1733 H1793 0.931 . S
C1734 C1730 1.535 1_455 S
C1734 H1794 0.959 . S
C1734 H1795 0.961 . S
C1734 H1796 0.959 . S
C1735 C1732 1.450 . S
C1735 H1797 0.960 . S
C1735 H1798 0.960 . S
C1735 H1799 0.960 . S
C1736 C1737 1.309 1_655 S
C1736 C1741 1.304 . S
C1736 O1774 1.435 . S
C1737 C1736 1.309 1_455 S
C1737 C1738 1.476 . S
C1737 H1801 0.930 . S
C1738 C1737 1.476 . S
C1738 C1739 1.400 1_455 S
C1738 C1742 1.567 . S
C1739 C1738 1.400 1_655 S
C1739 C1740 1.373 . S
C1739 C1761 1.432 . S
C1740 C1739 1.373 . S
C1740 C1741 1.339 . S
C1740 C1743 1.530 . S
C1741 C1736 1.304 . S
C1741 C1740 1.339 . S
C1741 H1802 0.930 . S
C1742 C1738 1.567 . S
C1742 H1803 0.961 . S
C1742 H1804 0.960 . S
C1742 H1805 0.958 . S
C1743 C1740 1.530 . S
C1743 H1806 0.961 . S
C1743 H1807 0.960 . S
C1743 H1808 0.960 . S
C1744 C1745 1.530 . S
C1744 H1810 0.961 . S
C1744 H1811 0.961 . S
C1744 H1812 0.959 . S
C1745 C1744 1.530 . S
C1745 O1773 1.412 . S
C1745 H1809 0.926 1_455 S
C1746 C1747 1.288 . S
C1746 C1751 1.377 1_455 S
C1746 O1773 1.393 . S
C1747 C1746 1.288 . S
C1747 C1748 1.369 . S
C1747 H1813 0.932 . S
C1748 C1747 1.369 . S
C1748 C1749 1.398 . S
C1748 C1752 1.527 . S
C1749 C1748 1.398 . S
C1749 C1750 1.380 1_455 S
C1749 C1763 1.497 1_455 S
C1750 C1749 1.380 1_655 S
C1750 C1751 1.383 . S
C1750 C1753 1.603 . S
C1751 C1746 1.377 1_655 S
C1751 C1750 1.383 . S
C1751 H1814 0.929 . S
C1752 C1748 1.527 . S
C1752 H1815 0.961 . S
C1752 H1816 0.959 . S
C1752 H1817 0.959 . S
C1753 C1750 1.603 . S
C1753 H1818 0.960 . S
C1753 H1819 0.962 . S
C1753 H1820 0.961 . S
C1754 C1721 1.587 . S
C1754 C1755 1.360 . S
C1754 C1767 1.412 . S
C1755 C1754 1.360 . S
C1755 C1756 1.365 . S
C1755 H1821 0.929 . S
C1756 C1731 1.553 . S
C1756 C1755 1.365 . S
C1756 C1757 1.404 . S
C1757 C1756 1.404 . S
C1757 C1758 1.395 . S
C1757 C1768 1.451 . S
C1758 C1757 1.395 . S
C1758 C1759 1.322 . S
C1758 H1822 0.930 . S
C1759 C1758 1.322 . S
C1759 C1760 1.459 . S
C1759 H1823 0.929 . S
C1760 C1759 1.459 . S
C1760 C1761 1.445 . S
C1760 C1769 1.395 . S
C1761 C1739 1.432 . S
C1761 C1760 1.445 . S
C1761 C1762 1.370 . S
C1762 C1761 1.370 . S
C1762 C1763 1.438 . S
C1762 H1824 0.930 . S
C1763 C1749 1.497 1_655 S
C1763 C1762 1.438 . S
C1763 C1764 1.360 . S
C1764 C1763 1.360 . S
C1764 C1765 1.401 . S
C1764 C1769 1.446 . S
C1765 C1764 1.401 . S
C1765 C1766 1.347 . S
C1765 H1825 0.929 . S
C1766 C1765 1.347 . S
C1766 C1767 1.455 . S
C1766 H1826 0.930 . S
C1767 C1754 1.412 . S
C1767 C1766 1.455 . S
C1767 C1768 1.331 . S
C1768 C1757 1.451 . S
C1768 C1767 1.331 . S
C1768 C1769 1.497 . S
C1769 C1760 1.395 . S
C1769 C1764 1.446 . S
C1769 C1768 1.497 . S
C1770 C1771 1.582 1_655 S
C1770 H1827 0.962 1_655 S
C1770 H1828 0.959 . S
C1770 H1829 0.958 . S
C1771 C1770 1.582 1_455 S
C1771 O1774 1.458 1_455 S
C1771 H1800 0.980 . S
O1772 C1717 1.426 . S
O1772 C1718 1.334 . S
O1773 C1745 1.412 . S
O1773 C1746 1.393 . S
O1774 C1736 1.435 . S
O1774 C1771 1.458 1_655 S
O1775 C1727 1.468 . S
O1775 C1728 1.408 . S
H1776 C1717 0.980 1_655 S
H1777 C1716 0.959 . S
H1778 C1716 0.959 . S
H1779 C1716 0.960 . S
H1780 C1719 0.929 . S
H1781 C1723 0.929 . S
H1782 C1724 0.959 . S
H1783 C1724 0.961 . S
H1784 C1724 0.961 . S
H1785 C1725 0.960 . S
H1786 C1725 0.960 . S
H1787 C1725 0.961 . S
H1788 C1727 0.980 . S
H1789 C1726 0.961 . S
H1790 C1726 0.960 . S
H1791 C1726 0.959 . S
H1792 C1729 0.857 1_455 S
H1793 C1733 0.931 . S
H1794 C1734 0.959 . S
H1795 C1734 0.961 . S
H1796 C1734 0.959 . S
H1797 C1735 0.960 . S
H1798 C1735 0.960 . S
H1799 C1735 0.960 . S
H1800 C1771 0.980 . S
H1801 C1737 0.930 . S
H1802 C1741 0.930 . S
H1803 C1742 0.961 . S
H1804 C1742 0.960 . S
H1805 C1742 0.958 . S
H1806 C1743 0.961 . S
H1807 C1743 0.960 . S
H1808 C1743 0.960 . S
H1809 C1745 0.926 1_655 S
H1810 C1744 0.961 . S
H1811 C1744 0.961 . S
H1812 C1744 0.959 . S
H1813 C1747 0.932 . S
H1814 C1751 0.929 . S
H1815 C1752 0.961 . S
H1816 C1752 0.959 . S
H1817 C1752 0.959 . S
H1818 C1753 0.960 . S
H1819 C1753 0.962 . S
H1820 C1753 0.961 . S
H1821 C1755 0.929 . S
H1822 C1758 0.930 . S
H1823 C1759 0.929 . S
H1824 C1762 0.930 . S
H1825 C1765 0.929 . S
H1826 C1766 0.930 . S
H1827 C1770 0.962 1_455 S
H1828 C1770 0.959 . S
H1829 C1770 0.958 . S
C1830 C1831 1.560 . S
C1830 H1891 0.959 . S
C1830 H1892 0.959 . S
C1830 H1893 0.960 . S
C1831 C1830 1.560 . S
C1831 O1886 1.426 . S
C1831 H1890 0.980 . S
C1832 C1833 1.407 . S
C1832 C1837 1.418 . S
C1832 O1886 1.334 . S
C1833 C1832 1.407 . S
C1833 C1834 1.360 . S
C1833 H1894 0.929 . S
C1834 C1833 1.360 . S
C1834 C1835 1.401 . S
C1834 C1838 1.527 . S
C1835 C1834 1.401 . S
C1835 C1836 1.405 . S
C1835 C1868 1.587 . S
C1836 C1835 1.405 . S
C1836 C1837 1.332 . S
C1836 C1839 1.496 . S
C1837 C1832 1.418 . S
C1837 C1836 1.332 . S
C1837 H1895 0.929 . S
C1838 C1834 1.527 . S
C1838 H1896 0.959 . S
C1838 H1897 0.961 . S
C1838 H1898 0.961 . S
C1839 C1836 1.496 . S
C1839 H1899 0.960 . S
C1839 H1900 0.960 . S
C1839 H1901 0.961 . S
C1840 C1841 1.517 . S
C1840 H1903 0.961 . S
C1840 H1904 0.960 . S
C1840 H1905 0.959 . S
C1841 C1840 1.517 . S
C1841 O1889 1.468 . S
C1841 H1902 0.980 . S
C1842 C1843 1.349 . S
C1842 C1847 1.367 . S
C1842 O1889 1.408 . S
C1843 C1842 1.349 . S
C1843 C1844 1.407 . S
C1843 H1906 0.930 . S
C1844 C1843 1.407 . S
C1844 C1845 1.449 . S
C1844 C1848 1.535 . S
C1845 C1844 1.449 . S
C1845 C1846 1.384 . S
C1845 C1870 1.553 . S
C1846 C1845 1.384 . S
C1846 C1847 1.364 . S
C1846 C1849 1.450 . S
C1847 C1842 1.367 . S
C1847 C1846 1.364 . S
C1847 H1907 0.931 . S
C1848 C1844 1.535 . S
C1848 H1908 0.959 . S
C1848 H1909 0.961 . S
C1848 H1910 0.959 . S
C1849 C1846 1.450 . S
C1849 H1911 0.960 . S
C1849 H1912 0.960 . S
C1849 H1913 0.960 . S
C1850 C1851 1.309 . S
C1850 C1855 1.304 . S
C1850 O1888 1.435 . S
C1851 C1850 1.309 . S
C1851 C1852 1.476 . S
C1851 H1915 0.930 . S
C1852 C1851 1.476 . S
C1852 C1853 1.400 . S
C1852 C1856 1.567 . S
C1853 C1852 1.400 . S
C1853 C1854 1.373 . S
C1853 C1875 1.432 . S
C1854 C1853 1.373 . S
C1854 C1855 1.339 . S
C1854 C1857 1.530 . S
C1855 C1850 1.304 . S
C1855 C1854 1.339 . S
C1855 H1916 0.930 . S
C1856 C1852 1.567 . S
C1856 H1917 0.961 . S
C1856 H1918 0.960 . S
C1856 H1919 0.958 . S
C1857 C1854 1.530 . S
C1857 H1920 0.961 . S
C1857 H1921 0.960 . S
C1857 H1922 0.960 . S
C1858 C1859 1.530 . S
C1858 H1924 0.961 . S
C1858 H1925 0.961 . S
C1858 H1926 0.959 . S
C1859 C1858 1.530 . S
C1859 O1887 1.412 . S
C1859 H1923 0.980 . S
C1860 C1861 1.288 . S
C1860 C1865 1.377 . S
C1860 O1887 1.393 . S
C1861 C1860 1.288 . S
C1861 C1862 1.369 . S
C1861 H1927 0.932 . S
C1862 C1861 1.369 . S
C1862 C1863 1.398 . S
C1862 C1866 1.527 . S
C1863 C1862 1.398 . S
C1863 C1864 1.380 . S
C1863 C1877 1.497 . S
C1864 C1863 1.380 . S
C1864 C1865 1.383 . S
C1864 C1867 1.603 . S
C1865 C1860 1.377 . S
C1865 C1864 1.383 . S
C1865 H1928 0.929 . S
C1866 C1862 1.527 . S
C1866 H1929 0.961 . S
C1866 H1930 0.959 . S
C1866 H1931 0.959 . S
C1867 C1864 1.603 . S
C1867 H1932 0.960 . S
C1867 H1933 0.962 . S
C1867 H1934 0.961 . S
C1868 C1835 1.587 . S
C1868 C1869 1.360 . S
C1868 C1881 1.412 . S
C1869 C1868 1.360 . S
C1869 C1870 1.365 . S
C1869 H1935 0.929 . S
C1870 C1845 1.553 . S
C1870 C1869 1.365 . S
C1870 C1871 1.404 . S
C1871 C1870 1.404 . S
C1871 C1872 1.395 . S
C1871 C1882 1.451 . S
C1872 C1871 1.395 . S
C1872 C1873 1.322 . S
C1872 H1936 0.930 . S
C1873 C1872 1.322 . S
C1873 C1874 1.459 . S
C1873 H1937 0.929 . S
C1874 C1873 1.459 . S
C1874 C1875 1.445 . S
C1874 C1883 1.395 . S
C1875 C1853 1.432 . S
C1875 C1874 1.445 . S
C1875 C1876 1.370 . S
C1876 C1875 1.370 . S
C1876 C1877 1.438 . S
C1876 H1938 0.930 . S
C1877 C1863 1.497 . S
C1877 C1876 1.438 . S
C1877 C1878 1.360 . S
C1878 C1877 1.360 . S
C1878 C1879 1.401 . S
C1878 C1883 1.446 . S
C1879 C1878 1.401 . S
C1879 C1880 1.347 . S
C1879 H1939 0.929 . S
C1880 C1879 1.347 . S
C1880 C1881 1.455 . S
C1880 H1940 0.930 . S
C1881 C1868 1.412 . S
C1881 C1880 1.455 . S
C1881 C1882 1.331 . S
C1882 C1871 1.451 . S
C1882 C1881 1.331 . S
C1882 C1883 1.497 . S
C1883 C1874 1.395 . S
C1883 C1878 1.446 . S
C1883 C1882 1.497 . S
C1884 C1885 1.582 . S
C1884 H1941 0.962 . S
C1884 H1942 0.959 . S
C1884 H1943 0.958 . S
C1885 C1884 1.582 . S
C1885 O1888 1.458 . S
C1885 H1914 0.980 . S
O1886 C1831 1.426 . S
O1886 C1832 1.334 . S
O1887 C1859 1.412 . S
O1887 C1860 1.393 . S
O1888 C1850 1.435 . S
O1888 C1885 1.458 . S
O1889 C1841 1.468 . S
O1889 C1842 1.408 . S
H1890 C1831 0.980 . S
H1891 C1830 0.959 . S
H1892 C1830 0.959 . S
H1893 C1830 0.960 . S
H1894 C1833 0.929 . S
H1895 C1837 0.929 . S
H1896 C1838 0.959 . S
H1897 C1838 0.961 . S
H1898 C1838 0.961 . S
H1899 C1839 0.960 . S
H1900 C1839 0.960 . S
H1901 C1839 0.961 . S
H1902 C1841 0.980 . S
H1903 C1840 0.961 . S
H1904 C1840 0.960 . S
H1905 C1840 0.959 . S
H1906 C1843 0.930 . S
H1907 C1847 0.931 . S
H1908 C1848 0.959 . S
H1909 C1848 0.961 . S
H1910 C1848 0.959 . S
H1911 C1849 0.960 . S
H1912 C1849 0.960 . S
H1913 C1849 0.960 . S
H1914 C1885 0.980 . S
H1915 C1851 0.930 . S
H1916 C1855 0.930 . S
H1917 C1856 0.961 . S
H1918 C1856 0.960 . S
H1919 C1856 0.958 . S
H1920 C1857 0.961 . S
H1921 C1857 0.960 . S
H1922 C1857 0.960 . S
H1923 C1859 0.980 . S
H1924 C1858 0.961 . S
H1925 C1858 0.961 . S
H1926 C1858 0.959 . S
H1927 C1861 0.932 . S
H1928 C1865 0.929 . S
H1929 C1866 0.961 . S
H1930 C1866 0.959 . S
H1931 C1866 0.959 . S
H1932 C1867 0.960 . S
H1933 C1867 0.962 . S
H1934 C1867 0.961 . S
H1935 C1869 0.929 . S
H1936 C1872 0.930 . S
H1937 C1873 0.929 . S
H1938 C1876 0.930 . S
H1939 C1879 0.929 . S
H1940 C1880 0.930 . S
H1941 C1884 0.962 . S
H1942 C1884 0.959 . S
H1943 C1884 0.958 . S
C1944 C1945 1.560 . S
C1944 H2005 0.959 . S
C1944 H2006 0.959 . S
C1944 H2007 0.960 . S
C1945 C1944 1.560 . S
C1945 O2000 1.426 . S
C1945 H2004 0.980 . S
C1946 C1947 1.407 . S
C1946 C1951 1.418 . S
C1946 O2000 1.334 . S
C1947 C1946 1.407 . S
C1947 C1948 1.360 . S
C1947 H2008 0.929 . S
C1948 C1947 1.360 . S
C1948 C1949 1.401 . S
C1948 C1952 1.527 . S
C1949 C1948 1.401 . S
C1949 C1950 1.405 . S
C1949 C1982 1.587 . S
C1950 C1949 1.405 . S
C1950 C1951 1.332 . S
C1950 C1953 1.496 . S
C1951 C1946 1.418 . S
C1951 C1950 1.332 . S
C1951 H2009 0.929 . S
C1952 C1948 1.527 . S
C1952 H2010 0.959 . S
C1952 H2011 0.961 . S
C1952 H2012 0.961 . S
C1953 C1950 1.496 . S
C1953 H2013 0.960 . S
C1953 H2014 0.960 . S
C1953 H2015 0.961 . S
C1954 C1955 1.517 . S
C1954 H2017 0.961 . S
C1954 H2018 0.960 . S
C1954 H2019 0.959 . S
C1955 C1954 1.517 . S
C1955 O2003 1.468 . S
C1955 H2016 0.980 . S
C1956 C1957 1.349 . S
C1956 C1961 1.367 . S
C1956 O2003 1.408 . S
C1957 C1956 1.349 . S
C1957 C1958 1.407 . S
C1957 H2020 0.930 . S
C1958 C1957 1.407 . S
C1958 C1959 1.449 . S
C1958 C1962 1.535 . S
C1959 C1958 1.449 . S
C1959 C1960 1.384 . S
C1959 C1984 1.553 . S
C1960 C1959 1.384 . S
C1960 C1961 1.364 . S
C1960 C1963 1.450 . S
C1961 C1956 1.367 . S
C1961 C1960 1.364 . S
C1961 H2021 0.931 . S
C1962 C1958 1.535 . S
C1962 H2022 0.959 . S
C1962 H2023 0.961 . S
C1962 H2024 0.959 . S
C1963 C1960 1.450 . S
C1963 H2025 0.960 . S
C1963 H2026 0.960 . S
C1963 H2027 0.960 . S
C1964 C1965 1.309 . S
C1964 C1969 1.304 . S
C1964 O2002 1.435 . S
C1965 C1964 1.309 . S
C1965 C1966 1.476 . S
C1965 H2029 0.930 . S
C1966 C1965 1.476 . S
C1966 C1967 1.400 . S
C1966 C1970 1.567 . S
C1967 C1966 1.400 . S
C1967 C1968 1.373 . S
C1967 C1989 1.432 . S
C1968 C1967 1.373 . S
C1968 C1969 1.339 . S
C1968 C1971 1.530 . S
C1969 C1964 1.304 . S
C1969 C1968 1.339 . S
C1969 H2030 0.930 . S
C1970 C1966 1.567 . S
C1970 H2031 0.961 . S
C1970 H2032 0.960 . S
C1970 H2033 0.958 . S
C1971 C1968 1.530 . S
C1971 H2034 0.961 . S
C1971 H2035 0.960 . S
C1971 H2036 0.960 . S
C1972 C1973 1.530 . S
C1972 H2038 0.961 . S
C1972 H2039 0.961 . S
C1972 H2040 0.959 . S
C1973 C1972 1.530 . S
C1973 O2001 1.412 . S
C1973 H2037 0.980 . S
C1974 C1975 1.288 . S
C1974 C1979 1.377 . S
C1974 O2001 1.393 . S
C1975 C1974 1.288 . S
C1975 C1976 1.369 . S
C1975 H2041 0.932 . S
C1976 C1975 1.369 . S
C1976 C1977 1.398 . S
C1976 C1980 1.527 . S
C1977 C1976 1.398 . S
C1977 C1978 1.380 . S
C1977 C1991 1.497 . S
C1978 C1977 1.380 . S
C1978 C1979 1.383 . S
C1978 C1981 1.603 . S
C1979 C1974 1.377 . S
C1979 C1978 1.383 . S
C1979 H2042 0.929 . S
C1980 C1976 1.527 . S
C1980 H2043 0.961 . S
C1980 H2044 0.959 . S
C1980 H2045 0.959 . S
C1981 C1978 1.603 . S
C1981 H2046 0.960 . S
C1981 H2047 0.962 . S
C1981 H2048 0.961 . S
C1982 C1949 1.587 . S
C1982 C1983 1.360 . S
C1982 C1995 1.412 . S
C1983 C1982 1.360 . S
C1983 C1984 1.365 . S
C1983 H2049 0.929 . S
C1984 C1959 1.553 . S
C1984 C1983 1.365 . S
C1984 C1985 1.404 . S
C1985 C1984 1.404 . S
C1985 C1986 1.395 . S
C1985 C1996 1.451 . S
C1986 C1985 1.395 . S
C1986 C1987 1.322 . S
C1986 H2050 0.930 . S
C1987 C1986 1.322 . S
C1987 C1988 1.459 . S
C1987 H2051 0.929 . S
C1988 C1987 1.459 . S
C1988 C1989 1.445 . S
C1988 C1997 1.395 . S
C1989 C1967 1.432 . S
C1989 C1988 1.445 . S
C1989 C1990 1.370 . S
C1990 C1989 1.370 . S
C1990 C1991 1.438 . S
C1990 H2052 0.930 . S
C1991 C1977 1.497 . S
C1991 C1990 1.438 . S
C1991 C1992 1.360 . S
C1992 C1991 1.360 . S
C1992 C1993 1.401 . S
C1992 C1997 1.446 . S
C1993 C1992 1.401 . S
C1993 C1994 1.347 . S
C1993 H2053 0.929 . S
C1994 C1993 1.347 . S
C1994 C1995 1.455 . S
C1994 H2054 0.930 . S
C1995 C1982 1.412 . S
C1995 C1994 1.455 . S
C1995 C1996 1.331 . S
C1996 C1985 1.451 . S
C1996 C1995 1.331 . S
C1996 C1997 1.497 . S
C1997 C1988 1.395 . S
C1997 C1992 1.446 . S
C1997 C1996 1.497 . S
C1998 C1999 1.582 . S
C1998 H2055 0.962 . S
C1998 H2056 0.959 . S
C1998 H2057 0.958 . S
C1999 C1998 1.582 . S
C1999 O2002 1.458 . S
C1999 H2028 0.980 . S
O2000 C1945 1.426 . S
O2000 C1946 1.334 . S
O2001 C1973 1.412 . S
O2001 C1974 1.393 . S
O2002 C1964 1.435 . S
O2002 C1999 1.458 . S
O2003 C1955 1.468 . S
O2003 C1956 1.408 . S
H2004 C1945 0.980 . S
H2005 C1944 0.959 . S
H2006 C1944 0.959 . S
H2007 C1944 0.960 . S
H2008 C1947 0.929 . S
H2009 C1951 0.929 . S
H2010 C1952 0.959 . S
H2011 C1952 0.961 . S
H2012 C1952 0.961 . S
H2013 C1953 0.960 . S
H2014 C1953 0.960 . S
H2015 C1953 0.961 . S
H2016 C1955 0.980 . S
H2017 C1954 0.961 . S
H2018 C1954 0.960 . S
H2019 C1954 0.959 . S
H2020 C1957 0.930 . S
H2021 C1961 0.931 . S
H2022 C1962 0.959 . S
H2023 C1962 0.961 . S
H2024 C1962 0.959 . S
H2025 C1963 0.960 . S
H2026 C1963 0.960 . S
H2027 C1963 0.960 . S
H2028 C1999 0.980 . S
H2029 C1965 0.930 . S
H2030 C1969 0.930 . S
H2031 C1970 0.961 . S
H2032 C1970 0.960 . S
H2033 C1970 0.958 . S
H2034 C1971 0.961 . S
H2035 C1971 0.960 . S
H2036 C1971 0.960 . S
H2037 C1973 0.980 . S
H2038 C1972 0.961 . S
H2039 C1972 0.961 . S
H2040 C1972 0.959 . S
H2041 C1975 0.932 . S
H2042 C1979 0.929 . S
H2043 C1980 0.961 . S
H2044 C1980 0.959 . S
H2045 C1980 0.959 . S
H2046 C1981 0.960 . S
H2047 C1981 0.962 . S
H2048 C1981 0.961 . S
H2049 C1983 0.929 . S
H2050 C1986 0.930 . S
H2051 C1987 0.929 . S
H2052 C1990 0.930 . S
H2053 C1993 0.929 . S
H2054 C1994 0.930 . S
H2055 C1998 0.962 . S
H2056 C1998 0.959 . S
H2057 C1998 0.958 . S
C2058 C2059 1.560 . S
C2058 H2119 0.959 . S
C2058 H2120 0.959 . S
C2058 H2121 0.960 . S
C2059 C2058 1.560 . S
C2059 O2114 1.426 . S
C2059 H2118 0.980 . S
C2060 C2061 1.407 . S
C2060 C2065 1.418 . S
C2060 O2114 1.334 . S
C2061 C2060 1.407 . S
C2061 C2062 1.360 . S
C2061 H2122 0.929 . S
C2062 C2061 1.360 . S
C2062 C2063 1.401 . S
C2062 C2066 1.527 . S
C2063 C2062 1.401 . S
C2063 C2064 1.405 . S
C2063 C2096 1.587 . S
C2064 C2063 1.405 . S
C2064 C2065 1.332 . S
C2064 C2067 1.496 . S
C2065 C2060 1.418 . S
C2065 C2064 1.332 . S
C2065 H2123 0.929 . S
C2066 C2062 1.527 . S
C2066 H2124 0.959 . S
C2066 H2125 0.961 . S
C2066 H2126 0.961 . S
C2067 C2064 1.496 . S
C2067 H2127 0.960 . S
C2067 H2128 0.960 . S
C2067 H2129 0.961 . S
C2068 C2069 1.517 . S
C2068 H2131 0.961 . S
C2068 H2132 0.960 . S
C2068 H2133 0.959 . S
C2069 C2068 1.517 . S
C2069 O2117 1.468 . S
C2069 H2130 0.980 . S
C2070 C2071 1.349 . S
C2070 C2075 1.367 . S
C2070 O2117 1.408 . S
C2071 C2070 1.349 . S
C2071 C2072 1.407 . S
C2071 H2134 0.930 . S
C2072 C2071 1.407 . S
C2072 C2073 1.449 . S
C2072 C2076 1.535 . S
C2073 C2072 1.449 . S
C2073 C2074 1.384 . S
C2073 C2098 1.553 . S
C2074 C2073 1.384 . S
C2074 C2075 1.364 . S
C2074 C2077 1.450 . S
C2075 C2070 1.367 . S
C2075 C2074 1.364 . S
C2075 H2135 0.931 . S
C2076 C2072 1.535 . S
C2076 H2136 0.959 . S
C2076 H2137 0.961 . S
C2076 H2138 0.959 . S
C2077 C2074 1.450 . S
C2077 H2139 0.960 . S
C2077 H2140 0.960 . S
C2077 H2141 0.960 . S
C2078 C2079 1.309 . S
C2078 C2083 1.304 . S
C2078 O2116 1.435 . S
C2079 C2078 1.309 . S
C2079 C2080 1.476 . S
C2079 H2143 0.930 . S
C2080 C2079 1.476 . S
C2080 C2081 1.400 . S
C2080 C2084 1.567 . S
C2081 C2080 1.400 . S
C2081 C2082 1.373 . S
C2081 C2103 1.432 . S
C2082 C2081 1.373 . S
C2082 C2083 1.339 . S
C2082 C2085 1.530 . S
C2083 C2078 1.304 . S
C2083 C2082 1.339 . S
C2083 H2144 0.930 . S
C2084 C2080 1.567 . S
C2084 H2145 0.961 . S
C2084 H2146 0.960 . S
C2084 H2147 0.958 . S
C2085 C2082 1.530 . S
C2085 H2148 0.961 . S
C2085 H2149 0.960 . S
C2085 H2150 0.960 . S
C2086 C2087 1.530 . S
C2086 H2152 0.961 . S
C2086 H2153 0.961 . S
C2086 H2154 0.959 . S
C2087 C2086 1.530 . S
C2087 O2115 1.412 . S
C2087 H2151 0.980 . S
C2088 C2089 1.288 . S
C2088 C2093 1.377 . S
C2088 O2115 1.393 . S
C2089 C2088 1.288 . S
C2089 C2090 1.369 . S
C2089 H2155 0.932 . S
C2090 C2089 1.369 . S
C2090 C2091 1.398 . S
C2090 C2094 1.527 . S
C2091 C2090 1.398 . S
C2091 C2092 1.380 . S
C2091 C2105 1.497 . S
C2092 C2091 1.380 . S
C2092 C2093 1.383 . S
C2092 C2095 1.603 . S
C2093 C2088 1.377 . S
C2093 C2092 1.383 . S
C2093 H2156 0.929 . S
C2094 C2090 1.527 . S
C2094 H2157 0.961 . S
C2094 H2158 0.959 . S
C2094 H2159 0.959 . S
C2095 C2092 1.603 . S
C2095 H2160 0.960 . S
C2095 H2161 0.962 . S
C2095 H2162 0.961 . S
C2096 C2063 1.587 . S
C2096 C2097 1.360 . S
C2096 C2109 1.412 . S
C2097 C2096 1.360 . S
C2097 C2098 1.365 . S
C2097 H2163 0.929 . S
C2098 C2073 1.553 . S
C2098 C2097 1.365 . S
C2098 C2099 1.404 . S
C2099 C2098 1.404 . S
C2099 C2100 1.395 . S
C2099 C2110 1.451 . S
C2100 C2099 1.395 . S
C2100 C2101 1.322 . S
C2100 H2164 0.930 . S
C2101 C2100 1.322 . S
C2101 C2102 1.459 . S
C2101 H2165 0.929 . S
C2102 C2101 1.459 . S
C2102 C2103 1.445 . S
C2102 C2111 1.395 . S
C2103 C2081 1.432 . S
C2103 C2102 1.445 . S
C2103 C2104 1.370 . S
C2104 C2103 1.370 . S
C2104 C2105 1.438 . S
C2104 H2166 0.930 . S
C2105 C2091 1.497 . S
C2105 C2104 1.438 . S
C2105 C2106 1.360 . S
C2106 C2105 1.360 . S
C2106 C2107 1.401 . S
C2106 C2111 1.446 . S
C2107 C2106 1.401 . S
C2107 C2108 1.347 . S
C2107 H2167 0.929 . S
C2108 C2107 1.347 . S
C2108 C2109 1.455 . S
C2108 H2168 0.930 . S
C2109 C2096 1.412 . S
C2109 C2108 1.455 . S
C2109 C2110 1.331 . S
C2110 C2099 1.451 . S
C2110 C2109 1.331 . S
C2110 C2111 1.497 . S
C2111 C2102 1.395 . S
C2111 C2106 1.446 . S
C2111 C2110 1.497 . S
C2112 C2113 1.582 . S
C2112 H2169 0.962 . S
C2112 H2170 0.959 . S
C2112 H2171 0.958 . S
C2113 C2112 1.582 . S
C2113 O2116 1.458 . S
C2113 H2142 0.980 . S
O2114 C2059 1.426 . S
O2114 C2060 1.334 . S
O2115 C2087 1.412 . S
O2115 C2088 1.393 . S
O2116 C2078 1.435 . S
O2116 C2113 1.458 . S
O2117 C2069 1.468 . S
O2117 C2070 1.408 . S
H2118 C2059 0.980 . S
H2119 C2058 0.959 . S
H2120 C2058 0.959 . S
H2121 C2058 0.960 . S
H2122 C2061 0.929 . S
H2123 C2065 0.929 . S
H2124 C2066 0.959 . S
H2125 C2066 0.961 . S
H2126 C2066 0.961 . S
H2127 C2067 0.960 . S
H2128 C2067 0.960 . S
H2129 C2067 0.961 . S
H2130 C2069 0.980 . S
H2131 C2068 0.961 . S
H2132 C2068 0.960 . S
H2133 C2068 0.959 . S
H2134 C2071 0.930 . S
H2135 C2075 0.931 . S
H2136 C2076 0.959 . S
H2137 C2076 0.961 . S
H2138 C2076 0.959 . S
H2139 C2077 0.960 . S
H2140 C2077 0.960 . S
H2141 C2077 0.960 . S
H2142 C2113 0.980 . S
H2143 C2079 0.930 . S
H2144 C2083 0.930 . S
H2145 C2084 0.961 . S
H2146 C2084 0.960 . S
H2147 C2084 0.958 . S
H2148 C2085 0.961 . S
H2149 C2085 0.960 . S
H2150 C2085 0.960 . S
H2151 C2087 0.980 . S
H2152 C2086 0.961 . S
H2153 C2086 0.961 . S
H2154 C2086 0.959 . S
H2155 C2089 0.932 . S
H2156 C2093 0.929 . S
H2157 C2094 0.961 . S
H2158 C2094 0.959 . S
H2159 C2094 0.959 . S
H2160 C2095 0.960 . S
H2161 C2095 0.962 . S
H2162 C2095 0.961 . S
H2163 C2097 0.929 . S
H2164 C2100 0.930 . S
H2165 C2101 0.929 . S
H2166 C2104 0.930 . S
H2167 C2107 0.929 . S
H2168 C2108 0.930 . S
H2169 C2112 0.962 . S
H2170 C2112 0.959 . S
H2171 C2112 0.958 . S
C2172 C2173 1.560 . S
C2172 H2233 0.959 . S
C2172 H2234 0.959 . S
C2172 H2235 0.960 . S
C2173 C2172 1.560 . S
C2173 O2228 1.426 . S
C2173 H2232 0.980 . S
C2174 C2175 1.407 . S
C2174 C2179 1.418 . S
C2174 O2228 1.334 . S
C2175 C2174 1.407 . S
C2175 C2176 1.360 . S
C2175 H2236 0.929 . S
C2176 C2175 1.360 . S
C2176 C2177 1.401 . S
C2176 C2180 1.527 . S
C2177 C2176 1.401 . S
C2177 C2178 1.405 . S
C2177 C2210 1.587 . S
C2178 C2177 1.405 . S
C2178 C2179 1.332 . S
C2178 C2181 1.496 . S
C2179 C2174 1.418 . S
C2179 C2178 1.332 . S
C2179 H2237 0.929 . S
C2180 C2176 1.527 . S
C2180 H2238 0.959 . S
C2180 H2239 0.961 . S
C2180 H2240 0.961 . S
C2181 C2178 1.496 . S
C2181 H2241 0.960 . S
C2181 H2242 0.960 . S
C2181 H2243 0.961 . S
C2182 C2183 1.517 . S
C2182 H2245 0.961 . S
C2182 H2246 0.960 . S
C2182 H2247 0.959 . S
C2183 C2182 1.517 . S
C2183 O2231 1.468 . S
C2183 H2244 0.980 . S
C2184 C2185 1.349 . S
C2184 C2189 1.367 . S
C2184 O2231 1.408 . S
C2185 C2184 1.349 . S
C2185 C2186 1.407 . S
C2185 H2248 0.930 . S
C2186 C2185 1.407 . S
C2186 C2187 1.449 . S
C2186 C2190 1.535 . S
C2187 C2186 1.449 . S
C2187 C2188 1.384 . S
C2187 C2212 1.553 . S
C2188 C2187 1.384 . S
C2188 C2189 1.364 . S
C2188 C2191 1.450 . S
C2189 C2184 1.367 . S
C2189 C2188 1.364 . S
C2189 H2249 0.931 . S
C2190 C2186 1.535 . S
C2190 H2250 0.959 . S
C2190 H2251 0.961 . S
C2190 H2252 0.959 . S
C2191 C2188 1.450 . S
C2191 H2253 0.960 . S
C2191 H2254 0.960 . S
C2191 H2255 0.960 . S
C2192 C2193 1.309 . S
C2192 C2197 1.304 . S
C2192 O2230 1.435 . S
C2193 C2192 1.309 . S
C2193 C2194 1.476 . S
C2193 H2257 0.930 . S
C2194 C2193 1.476 . S
C2194 C2195 1.400 . S
C2194 C2198 1.567 . S
C2195 C2194 1.400 . S
C2195 C2196 1.373 . S
C2195 C2217 1.432 . S
C2196 C2195 1.373 . S
C2196 C2197 1.339 . S
C2196 C2199 1.530 . S
C2197 C2192 1.304 . S
C2197 C2196 1.339 . S
C2197 H2258 0.930 . S
C2198 C2194 1.567 . S
C2198 H2259 0.961 . S
C2198 H2260 0.960 . S
C2198 H2261 0.958 . S
C2199 C2196 1.530 . S
C2199 H2262 0.961 . S
C2199 H2263 0.960 . S
C2199 H2264 0.960 . S
C2200 C2201 1.530 . S
C2200 H2266 0.961 . S
C2200 H2267 0.961 . S
C2200 H2268 0.959 . S
C2201 C2200 1.530 . S
C2201 O2229 1.412 . S
C2201 H2265 0.980 . S
C2202 C2203 1.288 . S
C2202 C2207 1.377 . S
C2202 O2229 1.393 . S
C2203 C2202 1.288 . S
C2203 C2204 1.369 . S
C2203 H2269 0.932 . S
C2204 C2203 1.369 . S
C2204 C2205 1.398 . S
C2204 C2208 1.527 . S
C2205 C2204 1.398 . S
C2205 C2206 1.380 . S
C2205 C2219 1.497 . S
C2206 C2205 1.380 . S
C2206 C2207 1.383 . S
C2206 C2209 1.603 . S
C2207 C2202 1.377 . S
C2207 C2206 1.383 . S
C2207 H2270 0.929 . S
C2208 C2204 1.527 . S
C2208 H2271 0.961 . S
C2208 H2272 0.959 . S
C2208 H2273 0.959 . S
C2209 C2206 1.603 . S
C2209 H2274 0.960 . S
C2209 H2275 0.962 . S
C2209 H2276 0.961 . S
C2210 C2177 1.587 . S
C2210 C2211 1.360 . S
C2210 C2223 1.412 . S
C2211 C2210 1.360 . S
C2211 C2212 1.365 . S
C2211 H2277 0.929 . S
C2212 C2187 1.553 . S
C2212 C2211 1.365 . S
C2212 C2213 1.404 . S
C2213 C2212 1.404 . S
C2213 C2214 1.395 . S
C2213 C2224 1.451 . S
C2214 C2213 1.395 . S
C2214 C2215 1.322 . S
C2214 H2278 0.930 . S
C2215 C2214 1.322 . S
C2215 C2216 1.459 . S
C2215 H2279 0.929 . S
C2216 C2215 1.459 . S
C2216 C2217 1.445 . S
C2216 C2225 1.395 . S
C2217 C2195 1.432 . S
C2217 C2216 1.445 . S
C2217 C2218 1.370 . S
C2218 C2217 1.370 . S
C2218 C2219 1.438 . S
C2218 H2280 0.930 . S
C2219 C2205 1.497 . S
C2219 C2218 1.438 . S
C2219 C2220 1.360 . S
C2220 C2219 1.360 . S
C2220 C2221 1.401 . S
C2220 C2225 1.446 . S
C2221 C2220 1.401 . S
C2221 C2222 1.347 . S
C2221 H2281 0.929 . S
C2222 C2221 1.347 . S
C2222 C2223 1.455 . S
C2222 H2282 0.930 . S
C2223 C2210 1.412 . S
C2223 C2222 1.455 . S
C2223 C2224 1.331 . S
C2224 C2213 1.451 . S
C2224 C2223 1.331 . S
C2224 C2225 1.497 . S
C2225 C2216 1.395 . S
C2225 C2220 1.446 . S
C2225 C2224 1.497 . S
C2226 C2227 1.582 . S
C2226 H2283 0.962 . S
C2226 H2284 0.959 . S
C2226 H2285 0.958 . S
C2227 C2226 1.582 . S
C2227 O2230 1.458 . S
C2227 H2256 0.980 . S
O2228 C2173 1.426 . S
O2228 C2174 1.334 . S
O2229 C2201 1.412 . S
O2229 C2202 1.393 . S
O2230 C2192 1.435 . S
O2230 C2227 1.458 . S
O2231 C2183 1.468 . S
O2231 C2184 1.408 . S
H2232 C2173 0.980 . S
H2233 C2172 0.959 . S
H2234 C2172 0.959 . S
H2235 C2172 0.960 . S
H2236 C2175 0.929 . S
H2237 C2179 0.929 . S
H2238 C2180 0.959 . S
H2239 C2180 0.961 . S
H2240 C2180 0.961 . S
H2241 C2181 0.960 . S
H2242 C2181 0.960 . S
H2243 C2181 0.961 . S
H2244 C2183 0.980 . S
H2245 C2182 0.961 . S
H2246 C2182 0.960 . S
H2247 C2182 0.959 . S
H2248 C2185 0.930 . S
H2249 C2189 0.931 . S
H2250 C2190 0.959 . S
H2251 C2190 0.961 . S
H2252 C2190 0.959 . S
H2253 C2191 0.960 . S
H2254 C2191 0.960 . S
H2255 C2191 0.960 . S
H2256 C2227 0.980 . S
H2257 C2193 0.930 . S
H2258 C2197 0.930 . S
H2259 C2198 0.961 . S
H2260 C2198 0.960 . S
H2261 C2198 0.958 . S
H2262 C2199 0.961 . S
H2263 C2199 0.960 . S
H2264 C2199 0.960 . S
H2265 C2201 0.980 . S
H2266 C2200 0.961 . S
H2267 C2200 0.961 . S
H2268 C2200 0.959 . S
H2269 C2203 0.932 . S
H2270 C2207 0.929 . S
H2271 C2208 0.961 . S
H2272 C2208 0.959 . S
H2273 C2208 0.959 . S
H2274 C2209 0.960 . S
H2275 C2209 0.962 . S
H2276 C2209 0.961 . S
H2277 C2211 0.929 . S
H2278 C2214 0.930 . S
H2279 C2215 0.929 . S
H2280 C2218 0.930 . S
H2281 C2221 0.929 . S
H2282 C2222 0.930 . S
H2283 C2226 0.962 . S
H2284 C2226 0.959 . S
H2285 C2226 0.958 . S
H2286 C2294 0.929 . S
H2287 C2296 0.930 . S
H2288 C2298 0.930 . S
H2289 C2301 0.929 . S
H2290 C2304 0.930 . S
H2291 C2306 0.960 . S
H2292 C2306 0.960 1_455 S
H2293 C2306 0.960 . S
C2294 H2286 0.929 . S
C2294 C2295 1.377 1_455 S
C2294 C2296 1.384 . S
C2295 C2294 1.377 1_655 S
C2295 C2301 1.390 . S
C2296 H2287 0.930 . S
C2296 C2294 1.384 . S
C2296 C2297 1.372 1_455 S
C2297 C2296 1.372 1_655 S
C2297 C2298 1.400 . S
C2297 C2302 1.490 . S
C2298 H2288 0.930 . S
C2298 C2297 1.400 . S
C2298 C2301 1.386 . S
H2299 C2315 0.930 . S
H2300 C2316 0.931 . S
C2301 H2289 0.929 . S
C2301 C2295 1.390 . S
C2301 C2298 1.386 . S
C2302 C2297 1.490 . S
C2302 C2304 1.395 . S
C2302 C2305 1.403 . S
H2303 C2309 0.930 . S
C2304 H2290 0.930 . S
C2304 C2302 1.395 . S
C2304 C2307 1.403 . S
C2305 C2302 1.403 . S
C2305 C2306 1.524 . S
C2305 C2309 1.400 . S
C2306 H2291 0.960 . S
C2306 H2292 0.960 1_655 S
C2306 H2293 0.960 . S
C2306 C2305 1.524 . S
C2307 C2304 1.403 . S
C2307 C2308 1.392 . S
C2307 C2311 1.495 . S
C2308 C2307 1.392 . S
C2308 C2309 1.385 . S
C2308 C2310 1.478 . S
C2309 H2303 0.930 . S
C2309 C2305 1.400 . S
C2309 C2308 1.385 . S
C2310 C2308 1.478 . S
C2310 C2312 1.381 1_655 S
C2310 C2316 1.383 . S
C2311 C2307 1.495 . S
C2311 H2317 0.971 . S
C2311 H2318 0.961 . S
C2311 H2319 0.960 1_655 S
C2312 C2310 1.381 1_455 S
C2312 C2313 1.394 . S
C2312 H2320 0.930 . S
C2313 C2312 1.394 . S
C2313 C2314 1.383 1_455 S
C2313 H2321 0.929 . S
C2314 C2313 1.383 1_655 S
C2314 C2315 1.377 . S
C2315 H2299 0.930 . S
C2315 C2314 1.377 . S
C2315 C2316 1.379 . S
C2316 H2300 0.931 . S
C2316 C2310 1.383 . S
C2316 C2315 1.379 . S
H2317 C2311 0.971 . S
H2318 C2311 0.961 . S
H2319 C2311 0.960 1_455 S
H2320 C2312 0.930 . S
H2321 C2313 0.929 . S
H2322 C2330 0.929 . S
H2323 C2332 0.930 . S
H2324 C2334 0.930 . S
H2325 C2337 0.929 . S
H2326 C2340 0.930 . S
H2327 C2342 0.960 . S
H2328 C2342 0.960 . S
H2329 C2342 0.960 . S
C2330 H2322 0.929 . S
C2330 C2331 1.377 . S
C2330 C2332 1.384 . S
C2331 C2330 1.377 . S
C2331 C2337 1.390 . S
C2332 H2323 0.930 . S
C2332 C2330 1.384 . S
C2332 C2333 1.372 . S
C2333 C2332 1.372 . S
C2333 C2334 1.400 . S
C2333 C2338 1.490 . S
C2334 H2324 0.930 . S
C2334 C2333 1.400 . S
C2334 C2337 1.386 . S
H2335 C2351 0.930 . S
H2336 C2352 0.931 . S
C2337 H2325 0.929 . S
C2337 C2331 1.390 . S
C2337 C2334 1.386 . S
C2338 C2333 1.490 . S
C2338 C2340 1.395 . S
C2338 C2341 1.403 . S
H2339 C2345 0.930 . S
C2340 H2326 0.930 . S
C2340 C2338 1.395 . S
C2340 C2343 1.403 . S
C2341 C2338 1.403 . S
C2341 C2342 1.524 . S
C2341 C2345 1.400 . S
C2342 H2327 0.960 . S
C2342 H2328 0.960 . S
C2342 H2329 0.960 . S
C2342 C2341 1.524 . S
C2343 C2340 1.403 . S
C2343 C2344 1.392 . S
C2343 C2347 1.495 . S
C2344 C2343 1.392 . S
C2344 C2345 1.385 . S
C2344 C2346 1.478 . S
C2345 H2339 0.930 . S
C2345 C2341 1.400 . S
C2345 C2344 1.385 . S
C2346 C2344 1.478 . S
C2346 C2348 1.381 . S
C2346 C2352 1.383 . S
C2347 C2343 1.495 . S
C2347 H2353 0.959 . S
C2347 H2354 0.961 . S
C2347 H2355 0.960 . S
C2348 C2346 1.381 . S
C2348 C2349 1.394 . S
C2348 H2356 0.930 . S
C2349 C2348 1.394 . S
C2349 C2350 1.383 . S
C2349 H2357 0.929 . S
C2350 C2349 1.383 . S
C2350 C2351 1.377 . S
C2351 H2335 0.930 . S
C2351 C2350 1.377 . S
C2351 C2352 1.379 . S
C2352 H2336 0.931 . S
C2352 C2346 1.383 . S
C2352 C2351 1.379 . S
H2353 C2347 0.959 . S
H2354 C2347 0.961 . S
H2355 C2347 0.960 . S
H2356 C2348 0.930 . S
H2357 C2349 0.929 . S
H2358 C2366 0.929 . S
H2359 C2368 0.930 . S
H2360 C2370 0.930 . S
H2361 C2373 0.929 . S
H2362 C2376 0.930 . S
H2363 C2378 0.960 . S
H2364 C2378 0.960 1_565 S
H2365 C2378 0.960 . S
C2366 H2358 0.929 . S
C2366 C2367 1.377 . S
C2366 C2368 1.384 . S
C2367 C2366 1.377 . S
C2367 C2373 1.390 . S
C2368 H2359 0.930 . S
C2368 C2366 1.384 . S
C2368 C2369 1.372 . S
C2369 C2368 1.372 . S
C2369 C2370 1.400 . S
C2369 C2374 1.490 . S
C2370 H2360 0.930 . S
C2370 C2369 1.400 . S
C2370 C2373 1.386 . S
H2371 C2387 0.930 . S
H2372 C2388 0.931 . S
C2373 H2361 0.929 . S
C2373 C2367 1.390 . S
C2373 C2370 1.386 . S
C2374 C2369 1.490 . S
C2374 C2376 1.395 . S
C2374 C2377 1.403 . S
H2375 C2381 0.930 . S
C2376 H2362 0.930 . S
C2376 C2374 1.395 . S
C2376 C2379 1.403 . S
C2377 C2374 1.403 . S
C2377 C2378 1.524 . S
C2377 C2381 1.400 . S
C2378 H2363 0.960 . S
C2378 H2364 0.960 1_545 S
C2378 H2365 0.960 . S
C2378 C2377 1.524 . S
C2379 C2376 1.403 . S
C2379 C2380 1.392 . S
C2379 C2383 1.495 . S
C2380 C2379 1.392 . S
C2380 C2381 1.385 . S
C2380 C2382 1.478 . S
C2381 H2375 0.930 . S
C2381 C2377 1.400 . S
C2381 C2380 1.385 . S
C2382 C2380 1.478 . S
C2382 C2384 1.381 . S
C2382 C2388 1.383 . S
C2383 C2379 1.495 . S
C2383 H2389 0.959 . S
C2383 H2390 0.961 . S
C2383 H2391 0.960 . S
C2384 C2382 1.381 . S
C2384 C2385 1.394 . S
C2384 H2392 0.930 1_545 S
C2385 C2384 1.394 . S
C2385 C2386 1.383 . S
C2385 H2393 0.929 1_545 S
C2386 C2385 1.383 . S
C2386 C2387 1.377 . S
C2387 H2371 0.930 . S
C2387 C2386 1.377 . S
C2387 C2388 1.379 . S
C2388 H2372 0.931 . S
C2388 C2382 1.383 . S
C2388 C2387 1.379 . S
H2389 C2383 0.959 . S
H2390 C2383 0.961 . S
H2391 C2383 0.960 . S
H2392 C2384 0.930 1_565 S
H2393 C2385 0.929 1_565 S
H2394 C2402 0.929 . S
H2395 C2404 0.930 . S
H2396 C2406 0.930 . S
H2397 C2409 0.929 . S
H2398 C2412 0.930 . S
H2399 C2414 0.982 . S
H2400 C2414 0.994 . S
H2401 C2414 0.910 1_545 S
C2402 H2394 0.929 . S
C2402 C2403 1.325 1_565 S
C2402 C2404 1.384 . S
C2403 C2402 1.325 1_545 S
C2403 C2409 1.414 . S
C2404 H2395 0.930 . S
C2404 C2402 1.384 . S
C2404 C2405 1.372 . S
C2405 C2404 1.372 . S
C2405 C2406 1.400 1_565 S
C2405 C2410 1.490 . S
C2406 H2396 0.930 . S
C2406 C2405 1.400 1_545 S
C2406 C2409 1.386 . S
H2407 C2423 0.930 . S
H2408 C2424 0.931 . S
C2409 H2397 0.929 . S
C2409 C2403 1.414 . S
C2409 C2406 1.386 . S
C2410 C2405 1.490 . S
C2410 C2412 1.395 . S
C2410 C2413 1.403 . S
H2411 C2417 0.930 . S
C2412 H2398 0.930 . S
C2412 C2410 1.395 . S
C2412 C2415 1.403 . S
C2413 C2410 1.403 . S
C2413 C2414 1.514 . S
C2413 C2417 1.400 . S
C2414 H2399 0.982 . S
C2414 H2400 0.994 . S
C2414 H2401 0.910 1_565 S
C2414 C2413 1.514 . S
C2415 C2412 1.403 . S
C2415 C2416 1.392 . S
C2415 C2419 1.495 . S
C2416 C2415 1.392 . S
C2416 C2417 1.385 . S
C2416 C2418 1.478 . S
C2417 H2411 0.930 . S
C2417 C2413 1.400 . S
C2417 C2416 1.385 . S
C2418 C2416 1.478 . S
C2418 C2420 1.381 . S
C2418 C2424 1.383 1_565 S
C2419 C2415 1.495 . S
C2419 H2425 0.959 . S
C2419 H2426 0.961 1_565 S
C2419 H2427 0.960 . S
C2420 C2418 1.381 . S
C2420 C2421 1.394 . S
C2420 H2428 0.930 . S
C2421 C2420 1.394 . S
C2421 C2422 1.383 . S
C2421 H2429 0.929 . S
C2422 C2421 1.383 . S
C2422 C2423 1.377 1_565 S
C2423 H2407 0.930 . S
C2423 C2422 1.377 1_545 S
C2423 C2424 1.379 . S
C2424 H2408 0.931 . S
C2424 C2418 1.383 1_545 S
C2424 C2423 1.379 . S
H2425 C2419 0.959 . S
H2426 C2419 0.961 1_545 S
H2427 C2419 0.960 . S
H2428 C2420 0.930 . S
H2429 C2421 0.929 . S
H2430 C2438 0.929 . S
H2431 C2440 0.930 . S
H2432 C2442 0.930 1_655 S
H2433 C2445 0.929 1_655 S
H2434 C2448 0.930 . S
H2435 C2450 0.960 . S
H2436 C2450 0.960 . S
H2437 C2450 0.960 . S
C2438 H2430 0.929 . S
C2438 C2439 1.377 . S
C2438 C2440 1.384 . S
C2439 C2438 1.377 . S
C2439 C2445 1.390 . S
C2440 H2431 0.930 . S
C2440 C2438 1.384 . S
C2440 C2441 1.372 . S
C2441 C2440 1.372 . S
C2441 C2442 1.400 . S
C2441 C2446 1.490 . S
C2442 H2432 0.930 1_455 S
C2442 C2441 1.400 . S
C2442 C2445 1.386 . S
H2443 C2459 0.930 . S
H2444 C2460 0.931 . S
C2445 H2433 0.929 1_455 S
C2445 C2439 1.390 . S
C2445 C2442 1.386 . S
C2446 C2441 1.490 . S
C2446 C2448 1.395 . S
C2446 C2449 1.403 . S
H2447 C2453 0.930 . S
C2448 H2434 0.930 . S
C2448 C2446 1.395 . S
C2448 C2451 1.403 . S
C2449 C2446 1.403 . S
C2449 C2450 1.524 . S
C2449 C2453 1.400 . S
C2450 H2435 0.960 . S
C2450 H2436 0.960 . S
C2450 H2437 0.960 . S
C2450 C2449 1.524 . S
C2451 C2448 1.403 . S
C2451 C2452 1.392 . S
C2451 C2455 1.495 . S
C2452 C2451 1.392 . S
C2452 C2453 1.385 . S
C2452 C2454 1.478 . S
C2453 H2447 0.930 . S
C2453 C2449 1.400 . S
C2453 C2452 1.385 . S
C2454 C2452 1.478 . S
C2454 C2456 1.381 . S
C2454 C2460 1.383 1_455 S
C2455 C2451 1.495 . S
C2455 H2461 0.959 . S
C2455 H2462 0.961 . S
C2455 H2463 0.960 . S
C2456 C2454 1.381 . S
C2456 C2457 1.394 . S
C2456 H2464 0.930 . S
C2457 C2456 1.394 . S
C2457 C2458 1.383 . S
C2457 H2465 0.929 . S
C2458 C2457 1.383 . S
C2458 C2459 1.377 1_455 S
C2459 H2443 0.930 . S
C2459 C2458 1.377 1_655 S
C2459 C2460 1.379 . S
C2460 H2444 0.931 . S
C2460 C2454 1.383 1_655 S
C2460 C2459 1.379 . S
H2461 C2455 0.959 . S
H2462 C2455 0.961 . S
H2463 C2455 0.960 . S
H2464 C2456 0.930 . S
H2465 C2457 0.929 . S
H2466 C2474 0.929 . S
H2467 C2476 0.930 . S
H2468 C2478 0.930 . S
H2469 C2481 0.929 . S
H2470 C2484 0.930 . S
H2471 C2486 0.960 . S
H2472 C2486 0.960 . S
H2473 C2486 0.960 . S
C2474 H2466 0.929 . S
C2474 C2475 1.377 . S
C2474 C2476 1.384 . S
C2475 C2474 1.377 . S
C2475 C2481 1.390 . S
C2476 H2467 0.930 . S
C2476 C2474 1.384 . S
C2476 C2477 1.372 . S
C2477 C2476 1.372 . S
C2477 C2478 1.400 . S
C2477 C2482 1.490 . S
C2478 H2468 0.930 . S
C2478 C2477 1.400 . S
C2478 C2481 1.386 . S
H2479 C2495 0.930 . S
H2480 C2496 0.931 . S
C2481 H2469 0.929 . S
C2481 C2475 1.390 . S
C2481 C2478 1.386 . S
C2482 C2477 1.490 . S
C2482 C2484 1.395 . S
C2482 C2485 1.403 . S
H2483 C2489 0.930 . S
C2484 H2470 0.930 . S
C2484 C2482 1.395 . S
C2484 C2487 1.403 . S
C2485 C2482 1.403 . S
C2485 C2486 1.524 . S
C2485 C2489 1.400 . S
C2486 H2471 0.960 . S
C2486 H2472 0.960 . S
C2486 H2473 0.960 . S
C2486 C2485 1.524 . S
C2487 C2484 1.403 . S
C2487 C2488 1.392 . S
C2487 C2491 1.495 . S
C2488 C2487 1.392 . S
C2488 C2489 1.385 . S
C2488 C2490 1.478 . S
C2489 H2483 0.930 . S
C2489 C2485 1.400 . S
C2489 C2488 1.385 . S
C2490 C2488 1.478 . S
C2490 C2492 1.381 . S
C2490 C2496 1.383 . S
C2491 C2487 1.495 . S
C2491 H2497 0.959 . S
C2491 H2498 0.961 . S
C2491 H2499 0.960 . S
C2492 C2490 1.381 . S
C2492 C2493 1.394 . S
C2492 H2500 0.930 . S
C2493 C2492 1.394 . S
C2493 C2494 1.383 . S
C2493 H2501 0.929 . S
C2494 C2493 1.383 . S
C2494 C2495 1.377 . S
C2495 H2479 0.930 . S
C2495 C2494 1.377 . S
C2495 C2496 1.379 . S
C2496 H2480 0.931 . S
C2496 C2490 1.383 . S
C2496 C2495 1.379 . S
H2497 C2491 0.959 . S
H2498 C2491 0.961 . S
H2499 C2491 0.960 . S
H2500 C2492 0.930 . S
H2501 C2493 0.929 . S
H2502 C2510 0.947 . S
H2503 C2512 0.930 . S
H2504 C2514 0.930 . S
H2505 C2517 0.929 . S
H2506 C2520 0.930 . S
H2507 C2522 0.960 . S
H2508 C2522 0.960 . S
H2509 C2522 0.960 . S
C2510 H2502 0.947 . S
C2510 C2511 1.371 1_655 S
C2510 C2512 1.374 . S
C2511 C2510 1.371 1_455 S
C2511 C2517 1.390 . S
C2512 H2503 0.930 . S
C2512 C2510 1.374 . S
C2512 C2513 1.372 1_655 S
C2513 C2512 1.372 1_455 S
C2513 C2514 1.400 . S
C2513 C2518 1.490 . S
C2514 H2504 0.930 . S
C2514 C2513 1.400 . S
C2514 C2517 1.386 . S
H2515 C2531 0.930 . S
H2516 C2532 0.931 . S
C2517 H2505 0.929 . S
C2517 C2511 1.390 . S
C2517 C2514 1.386 . S
C2518 C2513 1.490 . S
C2518 C2520 1.395 1_455 S
C2518 C2521 1.403 . S
H2519 C2525 0.930 . S
C2520 H2506 0.930 . S
C2520 C2518 1.395 1_655 S
C2520 C2523 1.403 . S
C2521 C2518 1.403 . S
C2521 C2522 1.524 . S
C2521 C2525 1.400 . S
C2522 H2507 0.960 . S
C2522 H2508 0.960 . S
C2522 H2509 0.960 . S
C2522 C2521 1.524 . S
C2523 C2520 1.403 . S
C2523 C2524 1.392 1_655 S
C2523 C2527 1.495 . S
C2524 C2523 1.392 1_455 S
C2524 C2525 1.385 . S
C2524 C2526 1.476 1_455 S
C2525 H2519 0.930 . S
C2525 C2521 1.400 . S
C2525 C2524 1.385 . S
C2526 C2524 1.476 1_655 S
C2526 C2528 1.381 . S
C2526 C2532 1.385 1_655 S
C2527 C2523 1.495 . S
C2527 H2533 0.959 . S
C2527 H2534 0.961 . S
C2527 H2535 0.960 . S
C2528 C2526 1.381 . S
C2528 C2529 1.394 . S
C2528 H2536 0.930 . S
C2529 C2528 1.394 . S
C2529 C2530 1.410 . S
C2529 H2537 0.929 . S
C2530 C2529 1.410 . S
C2530 C2531 1.373 1_655 S
C2531 H2515 0.930 . S
C2531 C2530 1.373 1_455 S
C2531 C2532 1.379 . S
C2532 H2516 0.931 . S
C2532 C2526 1.385 1_455 S
C2532 C2531 1.379 . S
H2533 C2527 0.959 . S
H2534 C2527 0.961 . S
H2535 C2527 0.960 . S
H2536 C2528 0.930 . S
H2537 C2529 0.929 . S
H2538 C2546 0.929 . S
H2539 C2548 0.930 . S
H2540 C2550 0.930 . S
H2541 C2553 0.929 . S
H2542 C2556 0.930 . S
H2543 C2558 0.960 . S
H2544 C2558 0.960 . S
H2545 C2558 0.960 . S
C2546 H2538 0.929 . S
C2546 C2547 1.377 . S
C2546 C2548 1.384 . S
C2547 C2546 1.377 . S
C2547 C2553 1.390 . S
C2548 H2539 0.930 . S
C2548 C2546 1.384 . S
C2548 C2549 1.372 . S
C2549 C2548 1.372 . S
C2549 C2550 1.400 . S
C2549 C2554 1.490 . S
C2550 H2540 0.930 . S
C2550 C2549 1.400 . S
C2550 C2553 1.386 . S
H2551 C2567 0.930 . S
H2552 C2568 0.931 . S
C2553 H2541 0.929 . S
C2553 C2547 1.390 . S
C2553 C2550 1.386 . S
C2554 C2549 1.490 . S
C2554 C2556 1.395 . S
C2554 C2557 1.403 . S
H2555 C2561 0.930 . S
C2556 H2542 0.930 . S
C2556 C2554 1.395 . S
C2556 C2559 1.403 . S
C2557 C2554 1.403 . S
C2557 C2558 1.524 . S
C2557 C2561 1.400 . S
C2558 H2543 0.960 . S
C2558 H2544 0.960 . S
C2558 H2545 0.960 . S
C2558 C2557 1.524 . S
C2559 C2556 1.403 . S
C2559 C2560 1.392 . S
C2559 C2563 1.495 . S
C2560 C2559 1.392 . S
C2560 C2561 1.385 . S
C2560 C2562 1.478 . S
C2561 H2555 0.930 . S
C2561 C2557 1.400 . S
C2561 C2560 1.385 . S
C2562 C2560 1.478 . S
C2562 C2564 1.381 . S
C2562 C2568 1.383 . S
C2563 C2559 1.495 . S
C2563 H2569 0.959 . S
C2563 H2570 0.961 . S
C2563 H2571 0.960 . S
C2564 C2562 1.381 . S
C2564 C2565 1.394 . S
C2564 H2572 0.930 . S
C2565 C2564 1.394 . S
C2565 C2566 1.383 . S
C2565 H2573 0.929 . S
C2566 C2565 1.383 . S
C2566 C2567 1.377 . S
C2567 H2551 0.930 . S
C2567 C2566 1.377 . S
C2567 C2568 1.379 . S
C2568 H2552 0.931 . S
C2568 C2562 1.383 . S
C2568 C2567 1.379 . S
H2569 C2563 0.959 . S
H2570 C2563 0.961 . S
H2571 C2563 0.960 . S
H2572 C2564 0.930 . S
H2573 C2565 0.929 . S
H2574 C2582 0.929 . S
H2575 C2584 0.930 . S
H2576 C2586 0.930 . S
H2577 C2589 0.929 . S
H2578 C2592 0.963 1_545 S
H2579 C2594 0.960 . S
H2580 C2594 0.960 . S
H2581 C2594 0.960 . S
C2582 H2574 0.929 . S
C2582 C2583 1.377 1_545 S
C2582 C2584 1.384 . S
C2583 C2582 1.377 1_565 S
C2583 C2589 1.390 . S
C2584 H2575 0.930 . S
C2584 C2582 1.384 . S
C2584 C2585 1.372 1_545 S
C2585 C2584 1.372 1_565 S
C2585 C2586 1.400 . S
C2585 C2590 1.490 . S
C2586 H2576 0.930 . S
C2586 C2585 1.400 . S
C2586 C2589 1.386 . S
H2587 C2603 0.930 . S
H2588 C2604 0.931 . S
C2589 H2577 0.929 . S
C2589 C2583 1.390 . S
C2589 C2586 1.386 . S
C2590 C2585 1.490 . S
C2590 C2592 1.418 . S
C2590 C2593 1.403 . S
H2591 C2597 0.930 . S
C2592 H2578 0.963 1_565 S
C2592 C2590 1.418 . S
C2592 C2595 1.358 1_565 S
C2593 C2590 1.403 . S
C2593 C2594 1.524 . S
C2593 C2597 1.400 . S
C2594 H2579 0.960 . S
C2594 H2580 0.960 . S
C2594 H2581 0.960 . S
C2594 C2593 1.524 . S
C2595 C2592 1.358 1_545 S
C2595 C2596 1.393 1_545 S
C2595 C2599 1.496 . S
C2596 C2595 1.393 1_565 S
C2596 C2597 1.385 . S
C2596 C2598 1.478 . S
C2597 H2591 0.930 . S
C2597 C2593 1.400 . S
C2597 C2596 1.385 . S
C2598 C2596 1.478 . S
C2598 C2600 1.381 1_565 S
C2598 C2604 1.383 . S
C2599 C2595 1.496 . S
C2599 H2605 0.959 . S
C2599 H2606 0.961 1_545 S
C2599 H2607 0.960 . S
C2600 C2598 1.381 1_545 S
C2600 C2601 1.394 . S
C2600 H2608 0.930 . S
C2601 C2600 1.394 . S
C2601 C2602 1.383 1_545 S
C2601 H2609 0.929 . S
C2602 C2601 1.383 1_565 S
C2602 C2603 1.377 . S
C2603 H2587 0.930 . S
C2603 C2602 1.377 . S
C2603 C2604 1.379 . S
C2604 H2588 0.931 . S
C2604 C2598 1.383 . S
C2604 C2603 1.379 . S
H2605 C2599 0.959 . S
H2606 C2599 0.961 1_565 S
H2607 C2599 0.960 . S
H2608 C2600 0.930 . S
H2609 C2601 0.929 . S
H2610 C2618 0.929 . S
H2611 C2620 0.930 . S
H2612 C2622 0.930 . S
H2613 C2625 0.929 . S
H2614 C2628 0.930 . S
H2615 C2630 0.960 . S
H2616 C2630 0.960 . S
H2617 C2630 0.960 . S
C2618 H2610 0.929 . S
C2618 C2619 1.377 . S
C2618 C2620 1.384 . S
C2619 C2618 1.377 . S
C2619 C2625 1.390 . S
C2620 H2611 0.930 . S
C2620 C2618 1.384 . S
C2620 C2621 1.372 . S
C2621 C2620 1.372 . S
C2621 C2622 1.400 . S
C2621 C2626 1.490 . S
C2622 H2612 0.930 . S
C2622 C2621 1.400 . S
C2622 C2625 1.386 . S
H2623 C2639 0.930 . S
H2624 C2640 0.931 . S
C2625 H2613 0.929 . S
C2625 C2619 1.390 . S
C2625 C2622 1.386 . S
C2626 C2621 1.490 . S
C2626 C2628 1.395 . S
C2626 C2629 1.403 1_545 S
H2627 C2633 0.930 . S
C2628 H2614 0.930 . S
C2628 C2626 1.395 . S
C2628 C2631 1.403 . S
C2629 C2626 1.403 1_565 S
C2629 C2630 1.524 . S
C2629 C2633 1.400 . S
C2630 H2615 0.960 . S
C2630 H2616 0.960 . S
C2630 H2617 0.960 . S
C2630 C2629 1.524 . S
C2631 C2628 1.403 . S
C2631 C2632 1.392 . S
C2631 C2635 1.495 . S
C2632 C2631 1.392 . S
C2632 C2633 1.385 1_545 S
C2632 C2634 1.478 . S
C2633 H2627 0.930 . S
C2633 C2629 1.400 . S
C2633 C2632 1.385 1_565 S
C2634 C2632 1.478 . S
C2634 C2636 1.381 . S
C2634 C2640 1.383 . S
C2635 C2631 1.495 . S
C2635 H2641 0.959 . S
C2635 H2642 0.961 . S
C2635 H2643 0.960 . S
C2636 C2634 1.381 . S
C2636 C2637 1.414 1_545 S
C2636 H2644 0.904 1_545 S
C2637 C2636 1.414 1_565 S
C2637 C2638 1.338 1_565 S
C2637 H2645 0.960 . S
C2638 C2637 1.338 1_545 S
C2638 C2639 1.377 . S
C2639 H2623 0.930 . S
C2639 C2638 1.377 . S
C2639 C2640 1.379 . S
C2640 H2624 0.931 . S
C2640 C2634 1.383 . S
C2640 C2639 1.379 . S
H2641 C2635 0.959 . S
H2642 C2635 0.961 . S
H2643 C2635 0.960 . S
H2644 C2636 0.904 1_565 S
H2645 C2637 0.960 . S
H2646 C2654 0.929 . S
H2647 C2656 0.930 . S
H2648 C2658 0.930 . S
H2649 C2661 0.929 . S
H2650 C2664 0.930 . S
H2651 C2666 0.960 . S
H2652 C2666 0.960 . S
H2653 C2666 0.960 . S
C2654 H2646 0.929 . S
C2654 C2655 1.377 . S
C2654 C2656 1.384 . S
C2655 C2654 1.377 . S
C2655 C2661 1.390 . S
C2656 H2647 0.930 . S
C2656 C2654 1.384 . S
C2656 C2657 1.372 . S
C2657 C2656 1.372 . S
C2657 C2658 1.400 . S
C2657 C2662 1.490 . S
C2658 H2648 0.930 . S
C2658 C2657 1.400 . S
C2658 C2661 1.386 . S
H2659 C2675 0.930 . S
H2660 C2676 0.931 . S
C2661 H2649 0.929 . S
C2661 C2655 1.390 . S
C2661 C2658 1.386 . S
C2662 C2657 1.490 . S
C2662 C2664 1.395 1_655 S
C2662 C2665 1.403 . S
H2663 C2669 0.930 . S
C2664 H2650 0.930 . S
C2664 C2662 1.395 1_455 S
C2664 C2667 1.403 . S
C2665 C2662 1.403 . S
C2665 C2666 1.524 . S
C2665 C2669 1.400 . S
C2666 H2651 0.960 . S
C2666 H2652 0.960 . S
C2666 H2653 0.960 . S
C2666 C2665 1.524 . S
C2667 C2664 1.403 . S
C2667 C2668 1.392 1_455 S
C2667 C2671 1.495 . S
C2668 C2667 1.392 1_655 S
C2668 C2669 1.385 . S
C2668 C2670 1.478 . S
C2669 H2663 0.930 . S
C2669 C2665 1.400 . S
C2669 C2668 1.385 . S
C2670 C2668 1.478 . S
C2670 C2672 1.319 1_655 S
C2670 C2676 1.383 . S
C2671 C2667 1.495 . S
C2671 H2677 0.959 . S
C2671 H2678 0.961 . S
C2671 H2679 0.960 . S
C2672 C2670 1.319 1_455 S
C2672 C2673 1.402 . S
C2672 H2680 0.963 . S
C2673 C2672 1.402 . S
C2673 C2674 1.364 1_455 S
C2673 H2681 0.981 . S
C2674 C2673 1.364 1_655 S
C2674 C2675 1.377 . S
C2675 H2659 0.930 . S
C2675 C2674 1.377 . S
C2675 C2676 1.379 . S
C2676 H2660 0.931 . S
C2676 C2670 1.383 . S
C2676 C2675 1.379 . S
H2677 C2671 0.959 . S
H2678 C2671 0.961 . S
H2679 C2671 0.960 . S
H2680 C2672 0.963 . S
H2681 C2673 0.981 . S
H2682 C2690 0.929 . S
H2683 C2692 0.930 . S
H2684 C2694 0.930 . S
H2685 C2697 0.929 . S
H2686 C2700 0.930 . S
H2687 C2702 0.960 . S
H2688 C2702 0.960 . S
H2689 C2702 0.960 . S
C2690 H2682 0.929 . S
C2690 C2691 1.377 . S
C2690 C2692 1.384 . S
C2691 C2690 1.377 . S
C2691 C2697 1.390 . S
C2692 H2683 0.930 . S
C2692 C2690 1.384 . S
C2692 C2693 1.372 . S
C2693 C2692 1.372 . S
C2693 C2694 1.400 . S
C2693 C2698 1.490 . S
C2694 H2684 0.930 . S
C2694 C2693 1.400 . S
C2694 C2697 1.386 . S
H2695 C2711 0.930 . S
H2696 C2712 0.931 . S
C2697 H2685 0.929 . S
C2697 C2691 1.390 . S
C2697 C2694 1.386 . S
C2698 C2693 1.490 . S
C2698 C2700 1.395 . S
C2698 C2701 1.403 . S
H2699 C2705 0.930 . S
C2700 H2686 0.930 . S
C2700 C2698 1.395 . S
C2700 C2703 1.403 . S
C2701 C2698 1.403 . S
C2701 C2702 1.524 . S
C2701 C2705 1.400 . S
C2702 H2687 0.960 . S
C2702 H2688 0.960 . S
C2702 H2689 0.960 . S
C2702 C2701 1.524 . S
C2703 C2700 1.403 . S
C2703 C2704 1.392 . S
C2703 C2707 1.495 . S
C2704 C2703 1.392 . S
C2704 C2705 1.385 . S
C2704 C2706 1.478 . S
C2705 H2699 0.930 . S
C2705 C2701 1.400 . S
C2705 C2704 1.385 . S
C2706 C2704 1.478 . S
C2706 C2708 1.381 . S
C2706 C2712 1.383 . S
C2707 C2703 1.495 . S
C2707 H2713 0.959 . S
C2707 H2714 0.961 . S
C2707 H2715 0.960 . S
C2708 C2706 1.381 . S
C2708 C2709 1.394 . S
C2708 H2716 0.930 . S
C2709 C2708 1.394 . S
C2709 C2710 1.383 . S
C2709 H2717 0.929 . S
C2710 C2709 1.383 . S
C2710 C2711 1.377 . S
C2711 H2695 0.930 . S
C2711 C2710 1.377 . S
C2711 C2712 1.379 . S
C2712 H2696 0.931 . S
C2712 C2706 1.383 . S
C2712 C2711 1.379 . S
H2713 C2707 0.959 . S
H2714 C2707 0.961 . S
H2715 C2707 0.960 . S
H2716 C2708 0.930 . S
H2717 C2709 0.929 . S
H2718 C2726 0.929 . S
H2719 C2728 0.930 . S
H2720 C2730 0.930 . S
H2721 C2733 0.929 . S
H2722 C2736 0.930 . S
H2723 C2738 0.960 . S
H2724 C2738 0.960 . S
H2725 C2738 0.960 . S
C2726 H2718 0.929 . S
C2726 C2727 1.377 . S
C2726 C2728 1.384 . S
C2727 C2726 1.377 . S
C2727 C2733 1.390 . S
C2728 H2719 0.930 . S
C2728 C2726 1.384 . S
C2728 C2729 1.372 . S
C2729 C2728 1.372 . S
C2729 C2730 1.400 . S
C2729 C2734 1.490 . S
C2730 H2720 0.930 . S
C2730 C2729 1.400 . S
C2730 C2733 1.386 . S
H2731 C2747 0.930 . S
H2732 C2748 0.931 . S
C2733 H2721 0.929 . S
C2733 C2727 1.390 . S
C2733 C2730 1.386 . S
C2734 C2729 1.490 . S
C2734 C2736 1.395 . S
C2734 C2737 1.403 . S
H2735 C2741 0.930 . S
C2736 H2722 0.930 . S
C2736 C2734 1.395 . S
C2736 C2739 1.403 . S
C2737 C2734 1.403 . S
C2737 C2738 1.524 . S
C2737 C2741 1.400 . S
C2738 H2723 0.960 . S
C2738 H2724 0.960 . S
C2738 H2725 0.960 . S
C2738 C2737 1.524 . S
C2739 C2736 1.403 . S
C2739 C2740 1.392 . S
C2739 C2743 1.495 . S
C2740 C2739 1.392 . S
C2740 C2741 1.385 . S
C2740 C2742 1.478 . S
C2741 H2735 0.930 . S
C2741 C2737 1.400 . S
C2741 C2740 1.385 . S
C2742 C2740 1.478 . S
C2742 C2744 1.381 . S
C2742 C2748 1.383 . S
C2743 C2739 1.495 . S
C2743 H2749 0.959 . S
C2743 H2750 0.961 . S
C2743 H2751 0.960 . S
C2744 C2742 1.381 . S
C2744 C2745 1.394 . S
C2744 H2752 0.930 . S
C2745 C2744 1.394 . S
C2745 C2746 1.383 . S
C2745 H2753 0.929 . S
C2746 C2745 1.383 . S
C2746 C2747 1.377 . S
C2747 H2731 0.930 . S
C2747 C2746 1.377 . S
C2747 C2748 1.379 . S
C2748 H2732 0.931 . S
C2748 C2742 1.383 . S
C2748 C2747 1.379 . S
H2749 C2743 0.959 . S
H2750 C2743 0.961 . S
H2751 C2743 0.960 . S
H2752 C2744 0.930 . S
H2753 C2745 0.929 . S
H2754 C2762 0.929 . S
H2755 C2764 0.930 . S
H2756 C2766 0.930 . S
H2757 C2769 0.929 . S
H2758 C2772 0.930 . S
H2759 C2774 0.960 . S
H2760 C2774 0.960 . S
H2761 C2774 0.960 . S
C2762 H2754 0.929 . S
C2762 C2763 1.377 . S
C2762 C2764 1.384 . S
C2763 C2762 1.377 . S
C2763 C2769 1.390 . S
C2764 H2755 0.930 . S
C2764 C2762 1.384 . S
C2764 C2765 1.372 . S
C2765 C2764 1.372 . S
C2765 C2766 1.400 . S
C2765 C2770 1.490 . S
C2766 H2756 0.930 . S
C2766 C2765 1.400 . S
C2766 C2769 1.386 . S
H2767 C2783 0.930 . S
H2768 C2784 0.931 . S
C2769 H2757 0.929 . S
C2769 C2763 1.390 . S
C2769 C2766 1.386 . S
C2770 C2765 1.490 . S
C2770 C2772 1.395 . S
C2770 C2773 1.403 . S
H2771 C2777 0.930 . S
C2772 H2758 0.930 . S
C2772 C2770 1.395 . S
C2772 C2775 1.403 . S
C2773 C2770 1.403 . S
C2773 C2774 1.524 . S
C2773 C2777 1.400 . S
C2774 H2759 0.960 . S
C2774 H2760 0.960 . S
C2774 H2761 0.960 . S
C2774 C2773 1.524 . S
C2775 C2772 1.403 . S
C2775 C2776 1.392 . S
C2775 C2779 1.495 . S
C2776 C2775 1.392 . S
C2776 C2777 1.385 . S
C2776 C2778 1.478 . S
C2777 H2771 0.930 . S
C2777 C2773 1.400 . S
C2777 C2776 1.385 . S
C2778 C2776 1.478 . S
C2778 C2780 1.381 . S
C2778 C2784 1.383 . S
C2779 C2775 1.495 . S
C2779 H2785 0.959 . S
C2779 H2786 0.961 . S
C2779 H2787 0.960 . S
C2780 C2778 1.381 . S
C2780 C2781 1.394 . S
C2780 H2788 0.930 . S
C2781 C2780 1.394 . S
C2781 C2782 1.383 . S
C2781 H2789 0.929 . S
C2782 C2781 1.383 . S
C2782 C2783 1.377 . S
C2783 H2767 0.930 . S
C2783 C2782 1.377 . S
C2783 C2784 1.379 . S
C2784 H2768 0.931 . S
C2784 C2778 1.383 . S
C2784 C2783 1.379 . S
H2785 C2779 0.959 . S
H2786 C2779 0.961 . S
H2787 C2779 0.960 . S
H2788 C2780 0.930 . S
H2789 C2781 0.929 . S
H2790 C2798 0.929 . S
H2791 C2800 0.930 . S
H2792 C2802 0.930 . S
H2793 C2805 0.929 . S
H2794 C2808 0.930 . S
H2795 C2810 0.960 . S
H2796 C2810 0.960 . S
H2797 C2810 0.960 . S
C2798 H2790 0.929 . S
C2798 C2799 1.377 . S
C2798 C2800 1.384 . S
C2799 C2798 1.377 . S
C2799 C2805 1.390 . S
C2800 H2791 0.930 . S
C2800 C2798 1.384 . S
C2800 C2801 1.372 . S
C2801 C2800 1.372 . S
C2801 C2802 1.400 . S
C2801 C2806 1.490 . S
C2802 H2792 0.930 . S
C2802 C2801 1.400 . S
C2802 C2805 1.386 . S
H2803 C2819 0.930 . S
H2804 C2820 0.931 . S
C2805 H2793 0.929 . S
C2805 C2799 1.390 . S
C2805 C2802 1.386 . S
C2806 C2801 1.490 . S
C2806 C2808 1.395 . S
C2806 C2809 1.403 . S
H2807 C2813 0.930 . S
C2808 H2794 0.930 . S
C2808 C2806 1.395 . S
C2808 C2811 1.403 . S
C2809 C2806 1.403 . S
C2809 C2810 1.524 . S
C2809 C2813 1.400 . S
C2810 H2795 0.960 . S
C2810 H2796 0.960 . S
C2810 H2797 0.960 . S
C2810 C2809 1.524 . S
C2811 C2808 1.403 . S
C2811 C2812 1.392 . S
C2811 C2815 1.495 . S
C2812 C2811 1.392 . S
C2812 C2813 1.385 . S
C2812 C2814 1.478 . S
C2813 H2807 0.930 . S
C2813 C2809 1.400 . S
C2813 C2812 1.385 . S
C2814 C2812 1.478 . S
C2814 C2816 1.381 . S
C2814 C2820 1.383 . S
C2815 C2811 1.495 . S
C2815 H2821 0.959 . S
C2815 H2822 0.961 . S
C2815 H2823 0.960 . S
C2816 C2814 1.381 . S
C2816 C2817 1.394 . S
C2816 H2824 0.930 . S
C2817 C2816 1.394 . S
C2817 C2818 1.383 . S
C2817 H2825 0.929 . S
C2818 C2817 1.383 . S
C2818 C2819 1.377 . S
C2819 H2803 0.930 . S
C2819 C2818 1.377 . S
C2819 C2820 1.379 . S
C2820 H2804 0.931 . S
C2820 C2814 1.383 . S
C2820 C2819 1.379 . S
H2821 C2815 0.959 . S
H2822 C2815 0.961 . S
H2823 C2815 0.960 . S
H2824 C2816 0.930 . S
H2825 C2817 0.929 . S
H2826 C2834 0.929 . S
H2827 C2836 0.930 . S
H2828 C2838 0.930 . S
H2829 C2841 0.929 . S
H2830 C2844 0.930 . S
H2831 C2846 0.960 . S
H2832 C2846 0.960 . S
H2833 C2846 0.960 . S
C2834 H2826 0.929 . S
C2834 C2835 1.377 . S
C2834 C2836 1.384 . S
C2835 C2834 1.377 . S
C2835 C2841 1.390 . S
C2836 H2827 0.930 . S
C2836 C2834 1.384 . S
C2836 C2837 1.372 . S
C2837 C2836 1.372 . S
C2837 C2838 1.400 . S
C2837 C2842 1.490 . S
C2838 H2828 0.930 . S
C2838 C2837 1.400 . S
C2838 C2841 1.386 . S
H2839 C2855 0.930 . S
H2840 C2856 0.931 . S
C2841 H2829 0.929 . S
C2841 C2835 1.390 . S
C2841 C2838 1.386 . S
C2842 C2837 1.490 . S
C2842 C2844 1.395 . S
C2842 C2845 1.403 . S
H2843 C2849 0.930 . S
C2844 H2830 0.930 . S
C2844 C2842 1.395 . S
C2844 C2847 1.403 . S
C2845 C2842 1.403 . S
C2845 C2846 1.524 . S
C2845 C2849 1.400 . S
C2846 H2831 0.960 . S
C2846 H2832 0.960 . S
C2846 H2833 0.960 . S
C2846 C2845 1.524 . S
C2847 C2844 1.403 . S
C2847 C2848 1.392 . S
C2847 C2851 1.495 . S
C2848 C2847 1.392 . S
C2848 C2849 1.385 . S
C2848 C2850 1.478 . S
C2849 H2843 0.930 . S
C2849 C2845 1.400 . S
C2849 C2848 1.385 . S
C2850 C2848 1.478 . S
C2850 C2852 1.381 . S
C2850 C2856 1.383 . S
C2851 C2847 1.495 . S
C2851 H2857 0.959 . S
C2851 H2858 0.961 . S
C2851 H2859 0.960 . S
C2852 C2850 1.381 . S
C2852 C2853 1.394 . S
C2852 H2860 0.930 . S
C2853 C2852 1.394 . S
C2853 C2854 1.383 . S
C2853 H2861 0.929 . S
C2854 C2853 1.383 . S
C2854 C2855 1.377 . S
C2855 H2839 0.930 . S
C2855 C2854 1.377 . S
C2855 C2856 1.379 . S
C2856 H2840 0.931 . S
C2856 C2850 1.383 . S
C2856 C2855 1.379 . S
H2857 C2851 0.959 . S
H2858 C2851 0.961 . S
H2859 C2851 0.960 . S
H2860 C2852 0.930 . S
H2861 C2853 0.929 . S
H2862 C2870 0.929 . S
H2863 C2872 0.930 . S
H2864 C2874 0.930 . S
H2865 C2877 0.929 . S
H2866 C2880 0.930 . S
H2867 C2882 0.960 . S
H2868 C2882 0.960 . S
H2869 C2882 0.960 . S
C2870 H2862 0.929 . S
C2870 C2871 1.377 . S
C2870 C2872 1.384 . S
C2871 C2870 1.377 . S
C2871 C2877 1.390 . S
C2872 H2863 0.930 . S
C2872 C2870 1.384 . S
C2872 C2873 1.372 . S
C2873 C2872 1.372 . S
C2873 C2874 1.400 . S
C2873 C2878 1.490 . S
C2874 H2864 0.930 . S
C2874 C2873 1.400 . S
C2874 C2877 1.386 . S
H2875 C2891 0.930 . S
H2876 C2892 0.931 . S
C2877 H2865 0.929 . S
C2877 C2871 1.390 . S
C2877 C2874 1.386 . S
C2878 C2873 1.490 . S
C2878 C2880 1.395 . S
C2878 C2881 1.403 . S
H2879 C2885 0.930 . S
C2880 H2866 0.930 . S
C2880 C2878 1.395 . S
C2880 C2883 1.403 . S
C2881 C2878 1.403 . S
C2881 C2882 1.524 . S
C2881 C2885 1.400 . S
C2882 H2867 0.960 . S
C2882 H2868 0.960 . S
C2882 H2869 0.960 . S
C2882 C2881 1.524 . S
C2883 C2880 1.403 . S
C2883 C2884 1.392 . S
C2883 C2887 1.495 . S
C2884 C2883 1.392 . S
C2884 C2885 1.385 . S
C2884 C2886 1.478 . S
C2885 H2879 0.930 . S
C2885 C2881 1.400 . S
C2885 C2884 1.385 . S
C2886 C2884 1.478 . S
C2886 C2888 1.381 . S
C2886 C2892 1.383 . S
C2887 C2883 1.495 . S
C2887 H2893 0.959 . S
C2887 H2894 0.961 . S
C2887 H2895 0.960 . S
C2888 C2886 1.381 . S
C2888 C2889 1.394 . S
C2888 H2896 0.930 . S
C2889 C2888 1.394 . S
C2889 C2890 1.383 . S
C2889 H2897 0.929 . S
C2890 C2889 1.383 . S
C2890 C2891 1.377 . S
C2891 H2875 0.930 . S
C2891 C2890 1.377 . S
C2891 C2892 1.379 . S
C2892 H2876 0.931 . S
C2892 C2886 1.383 . S
C2892 C2891 1.379 . S
H2893 C2887 0.959 . S
H2894 C2887 0.961 . S
H2895 C2887 0.960 . S
H2896 C2888 0.930 . S
H2897 C2889 0.929 . S
H2898 C2906 0.929 . S
H2899 C2908 0.930 . S
H2900 C2910 0.930 . S
H2901 C2913 0.929 . S
H2902 C2916 0.930 . S
H2903 C2918 0.960 . S
H2904 C2918 0.960 . S
H2905 C2918 0.960 . S
C2906 H2898 0.929 . S
C2906 C2907 1.377 . S
C2906 C2908 1.384 . S
C2907 C2906 1.377 . S
C2907 C2913 1.390 . S
C2908 H2899 0.930 . S
C2908 C2906 1.384 . S
C2908 C2909 1.372 . S
C2909 C2908 1.372 . S
C2909 C2910 1.400 . S
C2909 C2914 1.490 . S
C2910 H2900 0.930 . S
C2910 C2909 1.400 . S
C2910 C2913 1.386 . S
H2911 C2927 0.930 . S
H2912 C2928 0.931 . S
C2913 H2901 0.929 . S
C2913 C2907 1.390 . S
C2913 C2910 1.386 . S
C2914 C2909 1.490 . S
C2914 C2916 1.395 . S
C2914 C2917 1.403 . S
H2915 C2921 0.930 . S
C2916 H2902 0.930 . S
C2916 C2914 1.395 . S
C2916 C2919 1.403 . S
C2917 C2914 1.403 . S
C2917 C2918 1.524 . S
C2917 C2921 1.400 . S
C2918 H2903 0.960 . S
C2918 H2904 0.960 . S
C2918 H2905 0.960 . S
C2918 C2917 1.524 . S
C2919 C2916 1.403 . S
C2919 C2920 1.392 . S
C2919 C2923 1.495 . S
C2920 C2919 1.392 . S
C2920 C2921 1.385 . S
C2920 C2922 1.478 . S
C2921 H2915 0.930 . S
C2921 C2917 1.400 . S
C2921 C2920 1.385 . S
C2922 C2920 1.478 . S
C2922 C2924 1.381 . S
C2922 C2928 1.383 . S
C2923 C2919 1.495 . S
C2923 H2929 0.959 . S
C2923 H2930 0.961 . S
C2923 H2931 0.960 . S
C2924 C2922 1.381 . S
C2924 C2925 1.394 . S
C2924 H2932 0.930 . S
C2925 C2924 1.394 . S
C2925 C2926 1.383 . S
C2925 H2933 0.929 . S
C2926 C2925 1.383 . S
C2926 C2927 1.377 . S
C2927 H2911 0.930 . S
C2927 C2926 1.377 . S
C2927 C2928 1.379 . S
C2928 H2912 0.931 . S
C2928 C2922 1.383 . S
C2928 C2927 1.379 . S
H2929 C2923 0.959 . S
H2930 C2923 0.961 . S
H2931 C2923 0.960 . S
H2932 C2924 0.930 . S
H2933 C2925 0.929 . S
H2934 C2942 0.929 . S
H2935 C2944 0.930 . S
H2936 C2946 0.930 . S
H2937 C2949 0.929 . S
H2938 C2952 0.930 . S
H2939 C2954 0.960 . S
H2940 C2954 0.960 . S
H2941 C2954 0.960 . S
C2942 H2934 0.929 . S
C2942 C2943 1.377 . S
C2942 C2944 1.384 . S
C2943 C2942 1.377 . S
C2943 C2949 1.390 . S
C2944 H2935 0.930 . S
C2944 C2942 1.384 . S
C2944 C2945 1.372 . S
C2945 C2944 1.372 . S
C2945 C2946 1.400 . S
C2945 C2950 1.490 . S
C2946 H2936 0.930 . S
C2946 C2945 1.400 . S
C2946 C2949 1.386 . S
H2947 C2963 0.930 . S
H2948 C2964 0.931 . S
C2949 H2937 0.929 . S
C2949 C2943 1.390 . S
C2949 C2946 1.386 . S
C2950 C2945 1.490 . S
C2950 C2952 1.395 . S
C2950 C2953 1.403 . S
H2951 C2957 0.930 . S
C2952 H2938 0.930 . S
C2952 C2950 1.395 . S
C2952 C2955 1.403 . S
C2953 C2950 1.403 . S
C2953 C2954 1.524 . S
C2953 C2957 1.400 . S
C2954 H2939 0.960 . S
C2954 H2940 0.960 . S
C2954 H2941 0.960 . S
C2954 C2953 1.524 . S
C2955 C2952 1.403 . S
C2955 C2956 1.392 . S
C2955 C2959 1.495 . S
C2956 C2955 1.392 . S
C2956 C2957 1.385 . S
C2956 C2958 1.478 . S
C2957 H2951 0.930 . S
C2957 C2953 1.400 . S
C2957 C2956 1.385 . S
C2958 C2956 1.478 . S
C2958 C2960 1.381 . S
C2958 C2964 1.383 . S
C2959 C2955 1.495 . S
C2959 H2965 0.959 . S
C2959 H2966 0.961 . S
C2959 H2967 0.960 . S
C2960 C2958 1.381 . S
C2960 C2961 1.394 . S
C2960 H2968 0.930 . S
C2961 C2960 1.394 . S
C2961 C2962 1.383 . S
C2961 H2969 0.929 . S
C2962 C2961 1.383 . S
C2962 C2963 1.377 . S
C2963 H2947 0.930 . S
C2963 C2962 1.377 . S
C2963 C2964 1.379 . S
C2964 H2948 0.931 . S
C2964 C2958 1.383 . S
C2964 C2963 1.379 . S
H2965 C2959 0.959 . S
H2966 C2959 0.961 . S
H2967 C2959 0.960 . S
H2968 C2960 0.930 . S
H2969 C2961 0.929 . S
H2970 C2978 0.929 . S
H2971 C2980 0.930 . S
H2972 C2982 0.930 . S
H2973 C2985 0.929 . S
H2974 C2988 0.930 . S
H2975 C2990 0.960 . S
H2976 C2990 0.960 . S
H2977 C2990 0.960 . S
C2978 H2970 0.929 . S
C2978 C2979 1.377 . S
C2978 C2980 1.384 . S
C2979 C2978 1.377 . S
C2979 C2985 1.390 . S
C2980 H2971 0.930 . S
C2980 C2978 1.384 . S
C2980 C2981 1.372 . S
C2981 C2980 1.372 . S
C2981 C2982 1.400 . S
C2981 C2986 1.490 . S
C2982 H2972 0.930 . S
C2982 C2981 1.400 . S
C2982 C2985 1.386 . S
H2983 C2999 0.930 . S
H2984 C3000 0.931 . S
C2985 H2973 0.929 . S
C2985 C2979 1.390 . S
C2985 C2982 1.386 . S
C2986 C2981 1.490 . S
C2986 C2988 1.395 . S
C2986 C2989 1.403 . S
H2987 C2993 0.930 . S
C2988 H2974 0.930 . S
C2988 C2986 1.395 . S
C2988 C2991 1.403 . S
C2989 C2986 1.403 . S
C2989 C2990 1.524 . S
C2989 C2993 1.400 . S
C2990 H2975 0.960 . S
C2990 H2976 0.960 . S
C2990 H2977 0.960 . S
C2990 C2989 1.524 . S
C2991 C2988 1.403 . S
C2991 C2992 1.392 . S
C2991 C2995 1.495 . S
C2992 C2991 1.392 . S
C2992 C2993 1.385 . S
C2992 C2994 1.478 . S
C2993 H2987 0.930 . S
C2993 C2989 1.400 . S
C2993 C2992 1.385 . S
C2994 C2992 1.478 . S
C2994 C2996 1.381 . S
C2994 C3000 1.383 . S
C2995 C2991 1.495 . S
C2995 H3001 0.959 . S
C2995 H3002 0.961 . S
C2995 H3003 0.960 . S
C2996 C2994 1.381 . S
C2996 C2997 1.394 . S
C2996 H3004 0.930 . S
C2997 C2996 1.394 . S
C2997 C2998 1.383 . S
C2997 H3005 0.929 . S
C2998 C2997 1.383 . S
C2998 C2999 1.377 . S
C2999 H2983 0.930 . S
C2999 C2998 1.377 . S
C2999 C3000 1.379 . S
C3000 H2984 0.931 . S
C3000 C2994 1.383 . S
C3000 C2999 1.379 . S
H3001 C2995 0.959 . S
H3002 C2995 0.961 . S
H3003 C2995 0.960 . S
H3004 C2996 0.930 . S
H3005 C2997 0.929 . S
H3006 C3014 0.929 . S
H3007 C3016 0.930 . S
H3008 C3018 0.930 . S
H3009 C3021 0.929 . S
H3010 C3024 0.930 . S
H3011 C3026 0.960 . S
H3012 C3026 0.960 . S
H3013 C3026 0.960 . S
C3014 H3006 0.929 . S
C3014 C3015 1.377 . S
C3014 C3016 1.384 . S
C3015 C3014 1.377 . S
C3015 C3021 1.390 . S
C3016 H3007 0.930 . S
C3016 C3014 1.384 . S
C3016 C3017 1.372 . S
C3017 C3016 1.372 . S
C3017 C3018 1.400 . S
C3017 C3022 1.490 . S
C3018 H3008 0.930 . S
C3018 C3017 1.400 . S
C3018 C3021 1.386 . S
H3019 C3035 0.930 . S
H3020 C3036 0.931 . S
C3021 H3009 0.929 . S
C3021 C3015 1.390 . S
C3021 C3018 1.386 . S
C3022 C3017 1.490 . S
C3022 C3024 1.395 . S
C3022 C3025 1.403 . S
H3023 C3029 0.930 . S
C3024 H3010 0.930 . S
C3024 C3022 1.395 . S
C3024 C3027 1.403 . S
C3025 C3022 1.403 . S
C3025 C3026 1.524 . S
C3025 C3029 1.400 . S
C3026 H3011 0.960 . S
C3026 H3012 0.960 . S
C3026 H3013 0.960 . S
C3026 C3025 1.524 . S
C3027 C3024 1.403 . S
C3027 C3028 1.392 . S
C3027 C3031 1.495 . S
C3028 C3027 1.392 . S
C3028 C3029 1.385 . S
C3028 C3030 1.478 . S
C3029 H3023 0.930 . S
C3029 C3025 1.400 . S
C3029 C3028 1.385 . S
C3030 C3028 1.478 . S
C3030 C3032 1.381 . S
C3030 C3036 1.383 . S
C3031 C3027 1.495 . S
C3031 H3037 0.959 . S
C3031 H3038 0.961 . S
C3031 H3039 0.960 . S
C3032 C3030 1.381 . S
C3032 C3033 1.394 . S
C3032 H3040 0.930 . S
C3033 C3032 1.394 . S
C3033 C3034 1.383 . S
C3033 H3041 0.929 . S
C3034 C3033 1.383 . S
C3034 C3035 1.377 . S
C3035 H3019 0.930 . S
C3035 C3034 1.377 . S
C3035 C3036 1.379 . S
C3036 H3020 0.931 . S
C3036 C3030 1.383 . S
C3036 C3035 1.379 . S
H3037 C3031 0.959 . S
H3038 C3031 0.961 . S
H3039 C3031 0.960 . S
H3040 C3032 0.930 . S
H3041 C3033 0.929 . S
H3042 C3050 0.929 . S
H3043 C3052 0.930 . S
H3044 C3054 0.930 . S
H3045 C3057 0.929 . S
H3046 C3060 0.930 . S
H3047 C3062 0.960 . S
H3048 C3062 0.960 . S
H3049 C3062 0.960 . S
C3050 H3042 0.929 . S
C3050 C3051 1.377 . S
C3050 C3052 1.384 . S
C3051 C3050 1.377 . S
C3051 C3057 1.390 . S
C3052 H3043 0.930 . S
C3052 C3050 1.384 . S
C3052 C3053 1.372 . S
C3053 C3052 1.372 . S
C3053 C3054 1.400 . S
C3053 C3058 1.490 . S
C3054 H3044 0.930 . S
C3054 C3053 1.400 . S
C3054 C3057 1.386 . S
H3055 C3071 0.930 . S
H3056 C3072 0.931 . S
C3057 H3045 0.929 . S
C3057 C3051 1.390 . S
C3057 C3054 1.386 . S
C3058 C3053 1.490 . S
C3058 C3060 1.395 . S
C3058 C3061 1.403 . S
H3059 C3065 0.930 . S
C3060 H3046 0.930 . S
C3060 C3058 1.395 . S
C3060 C3063 1.403 . S
C3061 C3058 1.403 . S
C3061 C3062 1.524 . S
C3061 C3065 1.400 . S
C3062 H3047 0.960 . S
C3062 H3048 0.960 . S
C3062 H3049 0.960 . S
C3062 C3061 1.524 . S
C3063 C3060 1.403 . S
C3063 C3064 1.392 . S
C3063 C3067 1.495 . S
C3064 C3063 1.392 . S
C3064 C3065 1.385 . S
C3064 C3066 1.478 . S
C3065 H3059 0.930 . S
C3065 C3061 1.400 . S
C3065 C3064 1.385 . S
C3066 C3064 1.478 . S
C3066 C3068 1.381 . S
C3066 C3072 1.383 . S
C3067 C3063 1.495 . S
C3067 H3073 0.959 . S
C3067 H3074 0.961 . S
C3067 H3075 0.960 . S
C3068 C3066 1.381 . S
C3068 C3069 1.394 . S
C3068 H3076 0.930 . S
C3069 C3068 1.394 . S
C3069 C3070 1.383 . S
C3069 H3077 0.929 . S
C3070 C3069 1.383 . S
C3070 C3071 1.377 . S
C3071 H3055 0.930 . S
C3071 C3070 1.377 . S
C3071 C3072 1.379 . S
C3072 H3056 0.931 . S
C3072 C3066 1.383 . S
C3072 C3071 1.379 . S
H3073 C3067 0.959 . S
H3074 C3067 0.961 . S
H3075 C3067 0.960 . S
H3076 C3068 0.930 . S
H3077 C3069 0.929 . S
H3078 C3086 0.929 . S
H3079 C3088 0.930 . S
H3080 C3090 0.930 . S
H3081 C3093 0.929 . S
H3082 C3096 0.930 . S
H3083 C3098 0.960 . S
H3084 C3098 0.960 . S
H3085 C3098 0.960 . S
C3086 H3078 0.929 . S
C3086 C3087 1.377 . S
C3086 C3088 1.384 . S
C3087 C3086 1.377 . S
C3087 C3093 1.390 . S
C3088 H3079 0.930 . S
C3088 C3086 1.384 . S
C3088 C3089 1.372 . S
C3089 C3088 1.372 . S
C3089 C3090 1.400 . S
C3089 C3094 1.490 . S
C3090 H3080 0.930 . S
C3090 C3089 1.400 . S
C3090 C3093 1.386 . S
H3091 C3107 0.930 . S
H3092 C3108 0.931 . S
C3093 H3081 0.929 . S
C3093 C3087 1.390 . S
C3093 C3090 1.386 . S
C3094 C3089 1.490 . S
C3094 C3096 1.395 . S
C3094 C3097 1.403 . S
H3095 C3101 0.930 . S
C3096 H3082 0.930 . S
C3096 C3094 1.395 . S
C3096 C3099 1.403 . S
C3097 C3094 1.403 . S
C3097 C3098 1.524 . S
C3097 C3101 1.400 . S
C3098 H3083 0.960 . S
C3098 H3084 0.960 . S
C3098 H3085 0.960 . S
C3098 C3097 1.524 . S
C3099 C3096 1.403 . S
C3099 C3100 1.392 . S
C3099 C3103 1.495 . S
C3100 C3099 1.392 . S
C3100 C3101 1.385 . S
C3100 C3102 1.478 . S
C3101 H3095 0.930 . S
C3101 C3097 1.400 . S
C3101 C3100 1.385 . S
C3102 C3100 1.478 . S
C3102 C3104 1.381 . S
C3102 C3108 1.383 . S
C3103 C3099 1.495 . S
C3103 H3109 0.959 . S
C3103 H3110 0.961 . S
C3103 H3111 0.960 . S
C3104 C3102 1.381 . S
C3104 C3105 1.394 . S
C3104 H3112 0.930 . S
C3105 C3104 1.394 . S
C3105 C3106 1.383 . S
C3105 H3113 0.929 . S
C3106 C3105 1.383 . S
C3106 C3107 1.377 . S
C3107 H3091 0.930 . S
C3107 C3106 1.377 . S
C3107 C3108 1.379 . S
C3108 H3092 0.931 . S
C3108 C3102 1.383 . S
C3108 C3107 1.379 . S
H3109 C3103 0.959 . S
H3110 C3103 0.961 . S
H3111 C3103 0.960 . S
H3112 C3104 0.930 . S
H3113 C3105 0.929 . S
H3114 C3122 0.929 . S
H3115 C3124 0.930 . S
H3116 C3126 0.930 . S
H3117 C3129 0.929 . S
H3118 C3132 0.930 . S
H3119 C3134 0.960 . S
H3120 C3134 0.960 . S
H3121 C3134 0.960 . S
C3122 H3114 0.929 . S
C3122 C3123 1.377 . S
C3122 C3124 1.384 . S
C3123 C3122 1.377 . S
C3123 C3129 1.390 . S
C3124 H3115 0.930 . S
C3124 C3122 1.384 . S
C3124 C3125 1.372 . S
C3125 C3124 1.372 . S
C3125 C3126 1.400 . S
C3125 C3130 1.490 . S
C3126 H3116 0.930 . S
C3126 C3125 1.400 . S
C3126 C3129 1.386 . S
H3127 C3143 0.930 . S
H3128 C3144 0.931 . S
C3129 H3117 0.929 . S
C3129 C3123 1.390 . S
C3129 C3126 1.386 . S
C3130 C3125 1.490 . S
C3130 C3132 1.395 . S
C3130 C3133 1.403 . S
H3131 C3137 0.930 . S
C3132 H3118 0.930 . S
C3132 C3130 1.395 . S
C3132 C3135 1.403 . S
C3133 C3130 1.403 . S
C3133 C3134 1.524 . S
C3133 C3137 1.400 . S
C3134 H3119 0.960 . S
C3134 H3120 0.960 . S
C3134 H3121 0.960 . S
C3134 C3133 1.524 . S
C3135 C3132 1.403 . S
C3135 C3136 1.392 . S
C3135 C3139 1.495 . S
C3136 C3135 1.392 . S
C3136 C3137 1.385 . S
C3136 C3138 1.478 . S
C3137 H3131 0.930 . S
C3137 C3133 1.400 . S
C3137 C3136 1.385 . S
C3138 C3136 1.478 . S
C3138 C3140 1.381 . S
C3138 C3144 1.383 . S
C3139 C3135 1.495 . S
C3139 H3145 0.959 . S
C3139 H3146 0.961 . S
C3139 H3147 0.960 . S
C3140 C3138 1.381 . S
C3140 C3141 1.394 . S
C3140 H3148 0.930 . S
C3141 C3140 1.394 . S
C3141 C3142 1.383 . S
C3141 H3149 0.929 . S
C3142 C3141 1.383 . S
C3142 C3143 1.377 . S
C3143 H3127 0.930 . S
C3143 C3142 1.377 . S
C3143 C3144 1.379 . S
C3144 H3128 0.931 . S
C3144 C3138 1.383 . S
C3144 C3143 1.379 . S
H3145 C3139 0.959 . S
H3146 C3139 0.961 . S
H3147 C3139 0.960 . S
H3148 C3140 0.930 . S
H3149 C3141 0.929 . S
H3150 C3158 0.929 . S
H3151 C3160 0.930 . S
H3152 C3162 0.930 . S
H3153 C3165 0.929 . S
H3154 C3168 0.930 . S
H3155 C3170 0.960 . S
H3156 C3170 0.960 . S
H3157 C3170 0.960 . S
C3158 H3150 0.929 . S
C3158 C3159 1.377 . S
C3158 C3160 1.384 . S
C3159 C3158 1.377 . S
C3159 C3165 1.390 . S
C3160 H3151 0.930 . S
C3160 C3158 1.384 . S
C3160 C3161 1.372 . S
C3161 C3160 1.372 . S
C3161 C3162 1.400 . S
C3161 C3166 1.490 . S
C3162 H3152 0.930 . S
C3162 C3161 1.400 . S
C3162 C3165 1.386 . S
H3163 C3179 0.930 . S
H3164 C3180 0.931 . S
C3165 H3153 0.929 . S
C3165 C3159 1.390 . S
C3165 C3162 1.386 . S
C3166 C3161 1.490 . S
C3166 C3168 1.395 . S
C3166 C3169 1.403 . S
H3167 C3173 0.930 . S
C3168 H3154 0.930 . S
C3168 C3166 1.395 . S
C3168 C3171 1.403 . S
C3169 C3166 1.403 . S
C3169 C3170 1.524 . S
C3169 C3173 1.400 . S
C3170 H3155 0.960 . S
C3170 H3156 0.960 . S
C3170 H3157 0.960 . S
C3170 C3169 1.524 . S
C3171 C3168 1.403 . S
C3171 C3172 1.392 . S
C3171 C3175 1.495 . S
C3172 C3171 1.392 . S
C3172 C3173 1.385 . S
C3172 C3174 1.478 . S
C3173 H3167 0.930 . S
C3173 C3169 1.400 . S
C3173 C3172 1.385 . S
C3174 C3172 1.478 . S
C3174 C3176 1.381 . S
C3174 C3180 1.383 . S
C3175 C3171 1.495 . S
C3175 H3181 0.959 . S
C3175 H3182 0.961 . S
C3175 H3183 0.960 . S
C3176 C3174 1.381 . S
C3176 C3177 1.394 . S
C3176 H3184 0.930 . S
C3177 C3176 1.394 . S
C3177 C3178 1.383 . S
C3177 H3185 0.929 . S
C3178 C3177 1.383 . S
C3178 C3179 1.377 . S
C3179 H3163 0.930 . S
C3179 C3178 1.377 . S
C3179 C3180 1.379 . S
C3180 H3164 0.931 . S
C3180 C3174 1.383 . S
C3180 C3179 1.379 . S
H3181 C3175 0.959 . S
H3182 C3175 0.961 . S
H3183 C3175 0.960 . S
H3184 C3176 0.930 . S
H3185 C3177 0.929 . S
H3186 C3194 0.929 . S
H3187 C3196 0.930 . S
H3188 C3198 0.930 . S
H3189 C3201 0.929 . S
H3190 C3204 0.930 . S
H3191 C3206 0.960 . S
H3192 C3206 0.960 . S
H3193 C3206 0.960 . S
C3194 H3186 0.929 . S
C3194 C3195 1.377 . S
C3194 C3196 1.384 . S
C3195 C3194 1.377 . S
C3195 C3201 1.390 . S
C3196 H3187 0.930 . S
C3196 C3194 1.384 . S
C3196 C3197 1.372 . S
C3197 C3196 1.372 . S
C3197 C3198 1.400 . S
C3197 C3202 1.490 . S
C3198 H3188 0.930 . S
C3198 C3197 1.400 . S
C3198 C3201 1.386 . S
H3199 C3215 0.930 . S
H3200 C3216 0.931 . S
C3201 H3189 0.929 . S
C3201 C3195 1.390 . S
C3201 C3198 1.386 . S
C3202 C3197 1.490 . S
C3202 C3204 1.395 . S
C3202 C3205 1.403 . S
H3203 C3209 0.930 . S
C3204 H3190 0.930 . S
C3204 C3202 1.395 . S
C3204 C3207 1.403 . S
C3205 C3202 1.403 . S
C3205 C3206 1.524 . S
C3205 C3209 1.400 . S
C3206 H3191 0.960 . S
C3206 H3192 0.960 . S
C3206 H3193 0.960 . S
C3206 C3205 1.524 . S
C3207 C3204 1.403 . S
C3207 C3208 1.392 . S
C3207 C3211 1.495 . S
C3208 C3207 1.392 . S
C3208 C3209 1.385 . S
C3208 C3210 1.478 . S
C3209 H3203 0.930 . S
C3209 C3205 1.400 . S
C3209 C3208 1.385 . S
C3210 C3208 1.478 . S
C3210 C3212 1.381 . S
C3210 C3216 1.383 . S
C3211 C3207 1.495 . S
C3211 H3217 0.959 . S
C3211 H3218 0.961 . S
C3211 H3219 0.960 . S
C3212 C3210 1.381 . S
C3212 C3213 1.394 . S
C3212 H3220 0.930 . S
C3213 C3212 1.394 . S
C3213 C3214 1.383 . S
C3213 H3221 0.929 . S
C3214 C3213 1.383 . S
C3214 C3215 1.377 . S
C3215 H3199 0.930 . S
C3215 C3214 1.377 . S
C3215 C3216 1.379 . S
C3216 H3200 0.931 . S
C3216 C3210 1.383 . S
C3216 C3215 1.379 . S
H3217 C3211 0.959 . S
H3218 C3211 0.961 . S
H3219 C3211 0.960 . S
H3220 C3212 0.930 . S
H3221 C3213 0.929 . S
H3222 C3230 0.929 . S
H3223 C3232 0.930 . S
H3224 C3234 0.930 . S
H3225 C3237 0.929 . S
H3226 C3240 0.930 . S
H3227 C3242 0.960 . S
H3228 C3242 0.960 . S
H3229 C3242 0.960 . S
C3230 H3222 0.929 . S
C3230 C3231 1.377 . S
C3230 C3232 1.384 . S
C3231 C3230 1.377 . S
C3231 C3237 1.390 . S
C3232 H3223 0.930 . S
C3232 C3230 1.384 . S
C3232 C3233 1.372 . S
C3233 C3232 1.372 . S
C3233 C3234 1.400 . S
C3233 C3238 1.490 . S
C3234 H3224 0.930 . S
C3234 C3233 1.400 . S
C3234 C3237 1.386 . S
H3235 C3251 0.930 . S
H3236 C3252 0.931 . S
C3237 H3225 0.929 . S
C3237 C3231 1.390 . S
C3237 C3234 1.386 . S
C3238 C3233 1.490 . S
C3238 C3240 1.395 . S
C3238 C3241 1.403 . S
H3239 C3245 0.930 . S
C3240 H3226 0.930 . S
C3240 C3238 1.395 . S
C3240 C3243 1.403 . S
C3241 C3238 1.403 . S
C3241 C3242 1.524 . S
C3241 C3245 1.400 . S
C3242 H3227 0.960 . S
C3242 H3228 0.960 . S
C3242 H3229 0.960 . S
C3242 C3241 1.524 . S
C3243 C3240 1.403 . S
C3243 C3244 1.392 . S
C3243 C3247 1.495 . S
C3244 C3243 1.392 . S
C3244 C3245 1.385 . S
C3244 C3246 1.478 . S
C3245 H3239 0.930 . S
C3245 C3241 1.400 . S
C3245 C3244 1.385 . S
C3246 C3244 1.478 . S
C3246 C3248 1.381 . S
C3246 C3252 1.383 . S
C3247 C3243 1.495 . S
C3247 H3253 0.959 . S
C3247 H3254 0.961 . S
C3247 H3255 0.960 . S
C3248 C3246 1.381 . S
C3248 C3249 1.394 . S
C3248 H3256 0.930 . S
C3249 C3248 1.394 . S
C3249 C3250 1.383 . S
C3249 H3257 0.929 . S
C3250 C3249 1.383 . S
C3250 C3251 1.377 . S
C3251 H3235 0.930 . S
C3251 C3250 1.377 . S
C3251 C3252 1.379 . S
C3252 H3236 0.931 . S
C3252 C3246 1.383 . S
C3252 C3251 1.379 . S
H3253 C3247 0.959 . S
H3254 C3247 0.961 . S
H3255 C3247 0.960 . S
H3256 C3248 0.930 . S
H3257 C3249 0.929 . S
H3258 C3266 0.929 . S
H3259 C3268 0.930 . S
H3260 C3270 0.930 . S
H3261 C3273 0.929 . S
H3262 C3276 0.930 . S
H3263 C3278 0.960 . S
H3264 C3278 0.960 . S
H3265 C3278 0.960 . S
C3266 H3258 0.929 . S
C3266 C3267 1.377 . S
C3266 C3268 1.384 . S
C3267 C3266 1.377 . S
C3267 C3273 1.390 . S
C3268 H3259 0.930 . S
C3268 C3266 1.384 . S
C3268 C3269 1.372 . S
C3269 C3268 1.372 . S
C3269 C3270 1.400 . S
C3269 C3274 1.490 . S
C3270 H3260 0.930 . S
C3270 C3269 1.400 . S
C3270 C3273 1.386 . S
H3271 C3287 0.930 . S
H3272 C3288 0.931 . S
C3273 H3261 0.929 . S
C3273 C3267 1.390 . S
C3273 C3270 1.386 . S
C3274 C3269 1.490 . S
C3274 C3276 1.395 . S
C3274 C3277 1.403 . S
H3275 C3281 0.930 . S
C3276 H3262 0.930 . S
C3276 C3274 1.395 . S
C3276 C3279 1.403 . S
C3277 C3274 1.403 . S
C3277 C3278 1.524 . S
C3277 C3281 1.400 . S
C3278 H3263 0.960 . S
C3278 H3264 0.960 . S
C3278 H3265 0.960 . S
C3278 C3277 1.524 . S
C3279 C3276 1.403 . S
C3279 C3280 1.392 . S
C3279 C3283 1.495 . S
C3280 C3279 1.392 . S
C3280 C3281 1.385 . S
C3280 C3282 1.478 . S
C3281 H3275 0.930 . S
C3281 C3277 1.400 . S
C3281 C3280 1.385 . S
C3282 C3280 1.478 . S
C3282 C3284 1.381 . S
C3282 C3288 1.383 . S
C3283 C3279 1.495 . S
C3283 H3289 0.959 . S
C3283 H3290 0.961 . S
C3283 H3291 0.960 . S
C3284 C3282 1.381 . S
C3284 C3285 1.394 . S
C3284 H3292 0.930 . S
C3285 C3284 1.394 . S
C3285 C3286 1.383 . S
C3285 H3293 0.929 . S
C3286 C3285 1.383 . S
C3286 C3287 1.377 . S
C3287 H3271 0.930 . S
C3287 C3286 1.377 . S
C3287 C3288 1.379 . S
C3288 H3272 0.931 . S
C3288 C3282 1.383 . S
C3288 C3287 1.379 . S
H3289 C3283 0.959 . S
H3290 C3283 0.961 . S
H3291 C3283 0.960 . S
H3292 C3284 0.930 . S
H3293 C3285 0.929 . S
H3294 C3302 0.929 . S
H3295 C3304 0.930 . S
H3296 C3306 0.930 . S
H3297 C3309 0.929 . S
H3298 C3312 0.930 . S
H3299 C3314 0.960 . S
H3300 C3314 0.960 . S
H3301 C3314 0.960 . S
C3302 H3294 0.929 . S
C3302 C3303 1.377 . S
C3302 C3304 1.384 . S
C3303 C3302 1.377 . S
C3303 C3309 1.390 . S
C3304 H3295 0.930 . S
C3304 C3302 1.384 . S
C3304 C3305 1.372 . S
C3305 C3304 1.372 . S
C3305 C3306 1.400 . S
C3305 C3310 1.490 . S
C3306 H3296 0.930 . S
C3306 C3305 1.400 . S
C3306 C3309 1.386 . S
H3307 C3323 0.930 . S
H3308 C3324 0.931 . S
C3309 H3297 0.929 . S
C3309 C3303 1.390 . S
C3309 C3306 1.386 . S
C3310 C3305 1.490 . S
C3310 C3312 1.395 . S
C3310 C3313 1.403 . S
H3311 C3317 0.930 . S
C3312 H3298 0.930 . S
C3312 C3310 1.395 . S
C3312 C3315 1.403 . S
C3313 C3310 1.403 . S
C3313 C3314 1.524 . S
C3313 C3317 1.400 . S
C3314 H3299 0.960 . S
C3314 H3300 0.960 . S
C3314 H3301 0.960 . S
C3314 C3313 1.524 . S
C3315 C3312 1.403 . S
C3315 C3316 1.392 . S
C3315 C3319 1.495 . S
C3316 C3315 1.392 . S
C3316 C3317 1.385 . S
C3316 C3318 1.478 . S
C3317 H3311 0.930 . S
C3317 C3313 1.400 . S
C3317 C3316 1.385 . S
C3318 C3316 1.478 . S
C3318 C3320 1.381 . S
C3318 C3324 1.383 . S
C3319 C3315 1.495 . S
C3319 H3325 0.959 . S
C3319 H3326 0.961 . S
C3319 H3327 0.960 . S
C3320 C3318 1.381 . S
C3320 C3321 1.394 . S
C3320 H3328 0.930 . S
C3321 C3320 1.394 . S
C3321 C3322 1.383 . S
C3321 H3329 0.929 . S
C3322 C3321 1.383 . S
C3322 C3323 1.377 . S
C3323 H3307 0.930 . S
C3323 C3322 1.377 . S
C3323 C3324 1.379 . S
C3324 H3308 0.931 . S
C3324 C3318 1.383 . S
C3324 C3323 1.379 . S
H3325 C3319 0.959 . S
H3326 C3319 0.961 . S
H3327 C3319 0.960 . S
H3328 C3320 0.930 . S
H3329 C3321 0.929 . S
H3330 C3338 0.929 . S
H3331 C3340 0.930 . S
H3332 C3342 0.930 . S
H3333 C3345 0.929 . S
H3334 C3348 0.930 . S
H3335 C3350 0.960 . S
H3336 C3350 0.960 . S
H3337 C3350 0.960 . S
C3338 H3330 0.929 . S
C3338 C3339 1.377 . S
C3338 C3340 1.384 . S
C3339 C3338 1.377 . S
C3339 C3345 1.390 . S
C3340 H3331 0.930 . S
C3340 C3338 1.384 . S
C3340 C3341 1.372 . S
C3341 C3340 1.372 . S
C3341 C3342 1.400 . S
C3341 C3346 1.490 . S
C3342 H3332 0.930 . S
C3342 C3341 1.400 . S
C3342 C3345 1.386 . S
H3343 C3359 0.930 . S
H3344 C3360 0.931 . S
C3345 H3333 0.929 . S
C3345 C3339 1.390 . S
C3345 C3342 1.386 . S
C3346 C3341 1.490 . S
C3346 C3348 1.395 . S
C3346 C3349 1.403 . S
H3347 C3353 0.930 . S
C3348 H3334 0.930 . S
C3348 C3346 1.395 . S
C3348 C3351 1.403 . S
C3349 C3346 1.403 . S
C3349 C3350 1.524 . S
C3349 C3353 1.400 . S
C3350 H3335 0.960 . S
C3350 H3336 0.960 . S
C3350 H3337 0.960 . S
C3350 C3349 1.524 . S
C3351 C3348 1.403 . S
C3351 C3352 1.392 . S
C3351 C3355 1.495 . S
C3352 C3351 1.392 . S
C3352 C3353 1.385 . S
C3352 C3354 1.478 . S
C3353 H3347 0.930 . S
C3353 C3349 1.400 . S
C3353 C3352 1.385 . S
C3354 C3352 1.478 . S
C3354 C3356 1.381 . S
C3354 C3360 1.383 . S
C3355 C3351 1.495 . S
C3355 H3361 0.959 . S
C3355 H3362 0.961 . S
C3355 H3363 0.960 . S
C3356 C3354 1.381 . S
C3356 C3357 1.394 . S
C3356 H3364 0.930 . S
C3357 C3356 1.394 . S
C3357 C3358 1.383 . S
C3357 H3365 0.929 . S
C3358 C3357 1.383 . S
C3358 C3359 1.377 . S
C3359 H3343 0.930 . S
C3359 C3358 1.377 . S
C3359 C3360 1.379 . S
C3360 H3344 0.931 . S
C3360 C3354 1.383 . S
C3360 C3359 1.379 . S
H3361 C3355 0.959 . S
H3362 C3355 0.961 . S
H3363 C3355 0.960 . S
H3364 C3356 0.930 . S
H3365 C3357 0.929 . S
H3366 C3374 0.929 . S
H3367 C3376 0.930 . S
H3368 C3378 0.930 . S
H3369 C3381 0.929 . S
H3370 C3384 0.930 . S
H3371 C3386 0.960 . S
H3372 C3386 0.960 . S
H3373 C3386 0.960 . S
C3374 H3366 0.929 . S
C3374 C3375 1.377 . S
C3374 C3376 1.384 . S
C3375 C3374 1.377 . S
C3375 C3381 1.390 . S
C3376 H3367 0.930 . S
C3376 C3374 1.384 . S
C3376 C3377 1.372 . S
C3377 C3376 1.372 . S
C3377 C3378 1.400 . S
C3377 C3382 1.490 . S
C3378 H3368 0.930 . S
C3378 C3377 1.400 . S
C3378 C3381 1.386 . S
H3379 C3395 0.930 . S
H3380 C3396 0.931 . S
C3381 H3369 0.929 . S
C3381 C3375 1.390 . S
C3381 C3378 1.386 . S
C3382 C3377 1.490 . S
C3382 C3384 1.395 . S
C3382 C3385 1.403 . S
H3383 C3389 0.930 . S
C3384 H3370 0.930 . S
C3384 C3382 1.395 . S
C3384 C3387 1.403 . S
C3385 C3382 1.403 . S
C3385 C3386 1.524 . S
C3385 C3389 1.400 . S
C3386 H3371 0.960 . S
C3386 H3372 0.960 . S
C3386 H3373 0.960 . S
C3386 C3385 1.524 . S
C3387 C3384 1.403 . S
C3387 C3388 1.392 . S
C3387 C3391 1.495 . S
C3388 C3387 1.392 . S
C3388 C3389 1.385 . S
C3388 C3390 1.478 . S
C3389 H3383 0.930 . S
C3389 C3385 1.400 . S
C3389 C3388 1.385 . S
C3390 C3388 1.478 . S
C3390 C3392 1.381 . S
C3390 C3396 1.383 . S
C3391 C3387 1.495 . S
C3391 H3397 0.959 . S
C3391 H3398 0.961 . S
C3391 H3399 0.960 . S
C3392 C3390 1.381 . S
C3392 C3393 1.394 . S
C3392 H3400 0.930 . S
C3393 C3392 1.394 . S
C3393 C3394 1.383 . S
C3393 H3401 0.929 . S
C3394 C3393 1.383 . S
C3394 C3395 1.377 . S
C3395 H3379 0.930 . S
C3395 C3394 1.377 . S
C3395 C3396 1.379 . S
C3396 H3380 0.931 . S
C3396 C3390 1.383 . S
C3396 C3395 1.379 . S
H3397 C3391 0.959 . S
H3398 C3391 0.961 . S
H3399 C3391 0.960 . S
H3400 C3392 0.930 . S
H3401 C3393 0.929 . S
H3402 C3410 0.929 . S
H3403 C3412 0.930 . S
H3404 C3414 0.930 . S
H3405 C3417 0.929 . S
H3406 C3420 0.930 . S
H3407 C3422 0.960 . S
H3408 C3422 0.960 . S
H3409 C3422 0.960 . S
C3410 H3402 0.929 . S
C3410 C3411 1.377 . S
C3410 C3412 1.384 . S
C3411 C3410 1.377 . S
C3411 C3417 1.390 . S
C3412 H3403 0.930 . S
C3412 C3410 1.384 . S
C3412 C3413 1.372 . S
C3413 C3412 1.372 . S
C3413 C3414 1.400 . S
C3413 C3418 1.490 . S
C3414 H3404 0.930 . S
C3414 C3413 1.400 . S
C3414 C3417 1.386 . S
H3415 C3431 0.930 . S
H3416 C3432 0.931 . S
C3417 H3405 0.929 . S
C3417 C3411 1.390 . S
C3417 C3414 1.386 . S
C3418 C3413 1.490 . S
C3418 C3420 1.395 . S
C3418 C3421 1.403 . S
H3419 C3425 0.930 . S
C3420 H3406 0.930 . S
C3420 C3418 1.395 . S
C3420 C3423 1.403 . S
C3421 C3418 1.403 . S
C3421 C3422 1.524 . S
C3421 C3425 1.400 . S
C3422 H3407 0.960 . S
C3422 H3408 0.960 . S
C3422 H3409 0.960 . S
C3422 C3421 1.524 . S
C3423 C3420 1.403 . S
C3423 C3424 1.392 . S
C3423 C3427 1.495 . S
C3424 C3423 1.392 . S
C3424 C3425 1.385 . S
C3424 C3426 1.478 . S
C3425 H3419 0.930 . S
C3425 C3421 1.400 . S
C3425 C3424 1.385 . S
C3426 C3424 1.478 . S
C3426 C3428 1.381 . S
C3426 C3432 1.383 . S
C3427 C3423 1.495 . S
C3427 H3433 0.959 . S
C3427 H3434 0.961 . S
C3427 H3435 0.960 . S
C3428 C3426 1.381 . S
C3428 C3429 1.394 . S
C3428 H3436 0.930 . S
C3429 C3428 1.394 . S
C3429 C3430 1.383 . S
C3429 H3437 0.929 . S
C3430 C3429 1.383 . S
C3430 C3431 1.377 . S
C3431 H3415 0.930 . S
C3431 C3430 1.377 . S
C3431 C3432 1.379 . S
C3432 H3416 0.931 . S
C3432 C3426 1.383 . S
C3432 C3431 1.379 . S
H3433 C3427 0.959 . S
H3434 C3427 0.961 . S
H3435 C3427 0.960 . S
H3436 C3428 0.930 . S
H3437 C3429 0.929 . S
H3438 C3446 0.929 . S
H3439 C3448 0.930 . S
H3440 C3450 0.930 . S
H3441 C3453 0.929 . S
H3442 C3456 0.930 . S
H3443 C3458 0.960 . S
H3444 C3458 0.960 . S
H3445 C3458 0.960 . S
C3446 H3438 0.929 . S
C3446 C3447 1.377 . S
C3446 C3448 1.384 . S
C3447 C3446 1.377 . S
C3447 C3453 1.390 . S
C3448 H3439 0.930 . S
C3448 C3446 1.384 . S
C3448 C3449 1.372 . S
C3449 C3448 1.372 . S
C3449 C3450 1.400 . S
C3449 C3454 1.490 . S
C3450 H3440 0.930 . S
C3450 C3449 1.400 . S
C3450 C3453 1.386 . S
H3451 C3467 0.930 . S
H3452 C3468 0.931 . S
C3453 H3441 0.929 . S
C3453 C3447 1.390 . S
C3453 C3450 1.386 . S
C3454 C3449 1.490 . S
C3454 C3456 1.395 . S
C3454 C3457 1.403 . S
H3455 C3461 0.930 . S
C3456 H3442 0.930 . S
C3456 C3454 1.395 . S
C3456 C3459 1.403 . S
C3457 C3454 1.403 . S
C3457 C3458 1.524 . S
C3457 C3461 1.400 . S
C3458 H3443 0.960 . S
C3458 H3444 0.960 . S
C3458 H3445 0.960 . S
C3458 C3457 1.524 . S
C3459 C3456 1.403 . S
C3459 C3460 1.392 . S
C3459 C3463 1.495 . S
C3460 C3459 1.392 . S
C3460 C3461 1.385 . S
C3460 C3462 1.478 . S
C3461 H3455 0.930 . S
C3461 C3457 1.400 . S
C3461 C3460 1.385 . S
C3462 C3460 1.478 . S
C3462 C3464 1.381 . S
C3462 C3468 1.383 . S
C3463 C3459 1.495 . S
C3463 H3469 0.959 . S
C3463 H3470 0.961 . S
C3463 H3471 0.960 . S
C3464 C3462 1.381 . S
C3464 C3465 1.394 . S
C3464 H3472 0.930 . S
C3465 C3464 1.394 . S
C3465 C3466 1.383 . S
C3465 H3473 0.929 . S
C3466 C3465 1.383 . S
C3466 C3467 1.377 . S
C3467 H3451 0.930 . S
C3467 C3466 1.377 . S
C3467 C3468 1.379 . S
C3468 H3452 0.931 . S
C3468 C3462 1.383 . S
C3468 C3467 1.379 . S
H3469 C3463 0.959 . S
H3470 C3463 0.961 . S
H3471 C3463 0.960 . S
H3472 C3464 0.930 . S
H3473 C3465 0.929 . S
H3474 C3482 0.929 . S
H3475 C3484 0.930 . S
H3476 C3486 0.930 . S
H3477 C3489 0.929 . S
H3478 C3492 0.930 . S
H3479 C3494 0.960 . S
H3480 C3494 0.960 . S
H3481 C3494 0.960 . S
C3482 H3474 0.929 . S
C3482 C3483 1.377 . S
C3482 C3484 1.384 . S
C3483 C3482 1.377 . S
C3483 C3489 1.390 . S
C3484 H3475 0.930 . S
C3484 C3482 1.384 . S
C3484 C3485 1.372 . S
C3485 C3484 1.372 . S
C3485 C3486 1.400 . S
C3485 C3490 1.490 . S
C3486 H3476 0.930 . S
C3486 C3485 1.400 . S
C3486 C3489 1.386 . S
H3487 C3503 0.930 . S
H3488 C3504 0.931 . S
C3489 H3477 0.929 . S
C3489 C3483 1.390 . S
C3489 C3486 1.386 . S
C3490 C3485 1.490 . S
C3490 C3492 1.395 . S
C3490 C3493 1.403 . S
H3491 C3497 0.930 . S
C3492 H3478 0.930 . S
C3492 C3490 1.395 . S
C3492 C3495 1.403 . S
C3493 C3490 1.403 . S
C3493 C3494 1.524 . S
C3493 C3497 1.400 . S
C3494 H3479 0.960 . S
C3494 H3480 0.960 . S
C3494 H3481 0.960 . S
C3494 C3493 1.524 . S
C3495 C3492 1.403 . S
C3495 C3496 1.392 . S
C3495 C3499 1.495 . S
C3496 C3495 1.392 . S
C3496 C3497 1.385 . S
C3496 C3498 1.478 . S
C3497 H3491 0.930 . S
C3497 C3493 1.400 . S
C3497 C3496 1.385 . S
C3498 C3496 1.478 . S
C3498 C3500 1.381 . S
C3498 C3504 1.383 . S
C3499 C3495 1.495 . S
C3499 H3505 0.959 . S
C3499 H3506 0.961 . S
C3499 H3507 0.960 . S
C3500 C3498 1.381 . S
C3500 C3501 1.394 . S
C3500 H3508 0.930 . S
C3501 C3500 1.394 . S
C3501 C3502 1.383 . S
C3501 H3509 0.929 . S
C3502 C3501 1.383 . S
C3502 C3503 1.377 . S
C3503 H3487 0.930 . S
C3503 C3502 1.377 . S
C3503 C3504 1.379 . S
C3504 H3488 0.931 . S
C3504 C3498 1.383 . S
C3504 C3503 1.379 . S
H3505 C3499 0.959 . S
H3506 C3499 0.961 . S
H3507 C3499 0.960 . S
H3508 C3500 0.930 . S
H3509 C3501 0.929 . S
H3510 C3518 0.929 . S
H3511 C3520 0.930 . S
H3512 C3522 0.930 . S
H3513 C3525 0.929 . S
H3514 C3528 0.930 . S
H3515 C3530 0.960 . S
H3516 C3530 0.960 . S
H3517 C3530 0.960 . S
C3518 H3510 0.929 . S
C3518 C3519 1.377 . S
C3518 C3520 1.384 . S
C3519 C3518 1.377 . S
C3519 C3525 1.390 . S
C3520 H3511 0.930 . S
C3520 C3518 1.384 . S
C3520 C3521 1.372 . S
C3521 C3520 1.372 . S
C3521 C3522 1.400 . S
C3521 C3526 1.490 . S
C3522 H3512 0.930 . S
C3522 C3521 1.400 . S
C3522 C3525 1.386 . S
H3523 C3539 0.930 . S
H3524 C3540 0.931 . S
C3525 H3513 0.929 . S
C3525 C3519 1.390 . S
C3525 C3522 1.386 . S
C3526 C3521 1.490 . S
C3526 C3528 1.395 . S
C3526 C3529 1.403 . S
H3527 C3533 0.930 . S
C3528 H3514 0.930 . S
C3528 C3526 1.395 . S
C3528 C3531 1.403 . S
C3529 C3526 1.403 . S
C3529 C3530 1.524 . S
C3529 C3533 1.400 . S
C3530 H3515 0.960 . S
C3530 H3516 0.960 . S
C3530 H3517 0.960 . S
C3530 C3529 1.524 . S
C3531 C3528 1.403 . S
C3531 C3532 1.392 . S
C3531 C3535 1.495 . S
C3532 C3531 1.392 . S
C3532 C3533 1.385 . S
C3532 C3534 1.478 . S
C3533 H3527 0.930 . S
C3533 C3529 1.400 . S
C3533 C3532 1.385 . S
C3534 C3532 1.478 . S
C3534 C3536 1.381 . S
C3534 C3540 1.383 . S
C3535 C3531 1.495 . S
C3535 H3541 0.959 . S
C3535 H3542 0.961 . S
C3535 H3543 0.960 . S
C3536 C3534 1.381 . S
C3536 C3537 1.394 . S
C3536 H3544 0.930 . S
C3537 C3536 1.394 . S
C3537 C3538 1.383 . S
C3537 H3545 0.929 . S
C3538 C3537 1.383 . S
C3538 C3539 1.377 . S
C3539 H3523 0.930 . S
C3539 C3538 1.377 . S
C3539 C3540 1.379 . S
C3540 H3524 0.931 . S
C3540 C3534 1.383 . S
C3540 C3539 1.379 . S
H3541 C3535 0.959 . S
H3542 C3535 0.961 . S
H3543 C3535 0.960 . S
H3544 C3536 0.930 . S
H3545 C3537 0.929 . S
H3546 C3554 0.929 . S
H3547 C3556 0.930 . S
H3548 C3558 0.930 . S
H3549 C3561 0.929 . S
H3550 C3564 0.930 . S
H3551 C3566 0.960 . S
H3552 C3566 0.960 . S
H3553 C3566 0.960 . S
C3554 H3546 0.929 . S
C3554 C3555 1.377 . S
C3554 C3556 1.384 . S
C3555 C3554 1.377 . S
C3555 C3561 1.390 . S
C3556 H3547 0.930 . S
C3556 C3554 1.384 . S
C3556 C3557 1.372 . S
C3557 C3556 1.372 . S
C3557 C3558 1.400 . S
C3557 C3562 1.490 . S
C3558 H3548 0.930 . S
C3558 C3557 1.400 . S
C3558 C3561 1.386 . S
H3559 C3575 0.930 . S
H3560 C3576 0.931 . S
C3561 H3549 0.929 . S
C3561 C3555 1.390 . S
C3561 C3558 1.386 . S
C3562 C3557 1.490 . S
C3562 C3564 1.395 . S
C3562 C3565 1.403 . S
H3563 C3569 0.930 . S
C3564 H3550 0.930 . S
C3564 C3562 1.395 . S
C3564 C3567 1.403 . S
C3565 C3562 1.403 . S
C3565 C3566 1.524 . S
C3565 C3569 1.400 . S
C3566 H3551 0.960 . S
C3566 H3552 0.960 . S
C3566 H3553 0.960 . S
C3566 C3565 1.524 . S
C3567 C3564 1.403 . S
C3567 C3568 1.392 . S
C3567 C3571 1.495 . S
C3568 C3567 1.392 . S
C3568 C3569 1.385 . S
C3568 C3570 1.478 . S
C3569 H3563 0.930 . S
C3569 C3565 1.400 . S
C3569 C3568 1.385 . S
C3570 C3568 1.478 . S
C3570 C3572 1.381 . S
C3570 C3576 1.383 . S
C3571 C3567 1.495 . S
C3571 H3577 0.959 . S
C3571 H3578 0.961 . S
C3571 H3579 0.960 . S
C3572 C3570 1.381 . S
C3572 C3573 1.394 . S
C3572 H3580 0.930 . S
C3573 C3572 1.394 . S
C3573 C3574 1.383 . S
C3573 H3581 0.929 . S
C3574 C3573 1.383 . S
C3574 C3575 1.377 . S
C3575 H3559 0.930 . S
C3575 C3574 1.377 . S
C3575 C3576 1.379 . S
C3576 H3560 0.931 . S
C3576 C3570 1.383 . S
C3576 C3575 1.379 . S
H3577 C3571 0.959 . S
H3578 C3571 0.961 . S
H3579 C3571 0.960 . S
H3580 C3572 0.930 . S
H3581 C3573 0.929 . S
H3582 C3590 0.929 . S
H3583 C3592 0.930 . S
H3584 C3594 0.930 . S
H3585 C3597 0.929 . S
H3586 C3600 0.930 . S
H3587 C3602 0.960 . S
H3588 C3602 0.960 . S
H3589 C3602 0.960 . S
C3590 H3582 0.929 . S
C3590 C3591 1.377 . S
C3590 C3592 1.384 . S
C3591 C3590 1.377 . S
C3591 C3597 1.390 . S
C3592 H3583 0.930 . S
C3592 C3590 1.384 . S
C3592 C3593 1.372 . S
C3593 C3592 1.372 . S
C3593 C3594 1.400 . S
C3593 C3598 1.490 . S
C3594 H3584 0.930 . S
C3594 C3593 1.400 . S
C3594 C3597 1.386 . S
H3595 C3611 0.930 . S
H3596 C3612 0.931 . S
C3597 H3585 0.929 . S
C3597 C3591 1.390 . S
C3597 C3594 1.386 . S
C3598 C3593 1.490 . S
C3598 C3600 1.395 . S
C3598 C3601 1.403 . S
H3599 C3605 0.930 . S
C3600 H3586 0.930 . S
C3600 C3598 1.395 . S
C3600 C3603 1.403 . S
C3601 C3598 1.403 . S
C3601 C3602 1.524 . S
C3601 C3605 1.400 . S
C3602 H3587 0.960 . S
C3602 H3588 0.960 . S
C3602 H3589 0.960 . S
C3602 C3601 1.524 . S
C3603 C3600 1.403 . S
C3603 C3604 1.392 . S
C3603 C3607 1.495 . S
C3604 C3603 1.392 . S
C3604 C3605 1.385 . S
C3604 C3606 1.478 . S
C3605 H3599 0.930 . S
C3605 C3601 1.400 . S
C3605 C3604 1.385 . S
C3606 C3604 1.478 . S
C3606 C3608 1.381 . S
C3606 C3612 1.383 . S
C3607 C3603 1.495 . S
C3607 H3613 0.959 . S
C3607 H3614 0.961 . S
C3607 H3615 0.960 . S
C3608 C3606 1.381 . S
C3608 C3609 1.394 . S
C3608 H3616 0.930 . S
C3609 C3608 1.394 . S
C3609 C3610 1.383 . S
C3609 H3617 0.929 . S
C3610 C3609 1.383 . S
C3610 C3611 1.377 . S
C3611 H3595 0.930 . S
C3611 C3610 1.377 . S
C3611 C3612 1.379 . S
C3612 H3596 0.931 . S
C3612 C3606 1.383 . S
C3612 C3611 1.379 . S
H3613 C3607 0.959 . S
H3614 C3607 0.961 . S
H3615 C3607 0.960 . S
H3616 C3608 0.930 . S
H3617 C3609 0.929 . S
H3618 C3626 0.929 . S
H3619 C3628 0.930 . S
H3620 C3630 0.930 . S
H3621 C3633 0.929 . S
H3622 C3636 0.930 . S
H3623 C3638 0.960 . S
H3624 C3638 0.960 . S
H3625 C3638 0.960 . S
C3626 H3618 0.929 . S
C3626 C3627 1.377 . S
C3626 C3628 1.384 . S
C3627 C3626 1.377 . S
C3627 C3633 1.390 . S
C3628 H3619 0.930 . S
C3628 C3626 1.384 . S
C3628 C3629 1.372 . S
C3629 C3628 1.372 . S
C3629 C3630 1.400 . S
C3629 C3634 1.490 . S
C3630 H3620 0.930 . S
C3630 C3629 1.400 . S
C3630 C3633 1.386 . S
H3631 C3647 0.930 . S
H3632 C3648 0.931 . S
C3633 H3621 0.929 . S
C3633 C3627 1.390 . S
C3633 C3630 1.386 . S
C3634 C3629 1.490 . S
C3634 C3636 1.395 . S
C3634 C3637 1.403 . S
H3635 C3641 0.930 . S
C3636 H3622 0.930 . S
C3636 C3634 1.395 . S
C3636 C3639 1.403 . S
C3637 C3634 1.403 . S
C3637 C3638 1.524 . S
C3637 C3641 1.400 . S
C3638 H3623 0.960 . S
C3638 H3624 0.960 . S
C3638 H3625 0.960 . S
C3638 C3637 1.524 . S
C3639 C3636 1.403 . S
C3639 C3640 1.392 . S
C3639 C3643 1.495 . S
C3640 C3639 1.392 . S
C3640 C3641 1.385 . S
C3640 C3642 1.478 . S
C3641 H3635 0.930 . S
C3641 C3637 1.400 . S
C3641 C3640 1.385 . S
C3642 C3640 1.478 . S
C3642 C3644 1.381 . S
C3642 C3648 1.383 . S
C3643 C3639 1.495 . S
C3643 H3649 0.959 . S
C3643 H3650 0.961 . S
C3643 H3651 0.960 . S
C3644 C3642 1.381 . S
C3644 C3645 1.394 . S
C3644 H3652 0.930 . S
C3645 C3644 1.394 . S
C3645 C3646 1.383 . S
C3645 H3653 0.929 . S
C3646 C3645 1.383 . S
C3646 C3647 1.377 . S
C3647 H3631 0.930 . S
C3647 C3646 1.377 . S
C3647 C3648 1.379 . S
C3648 H3632 0.931 . S
C3648 C3642 1.383 . S
C3648 C3647 1.379 . S
H3649 C3643 0.959 . S
H3650 C3643 0.961 . S
H3651 C3643 0.960 . S
H3652 C3644 0.930 . S
H3653 C3645 0.929 . S
H3654 C3662 0.929 . S
H3655 C3664 0.930 . S
H3656 C3666 0.930 . S
H3657 C3669 0.929 . S
H3658 C3672 0.930 . S
H3659 C3674 0.960 . S
H3660 C3674 0.960 . S
H3661 C3674 0.960 . S
C3662 H3654 0.929 . S
C3662 C3663 1.377 . S
C3662 C3664 1.384 . S
C3663 C3662 1.377 . S
C3663 C3669 1.390 . S
C3664 H3655 0.930 . S
C3664 C3662 1.384 . S
C3664 C3665 1.372 . S
C3665 C3664 1.372 . S
C3665 C3666 1.400 . S
C3665 C3670 1.490 . S
C3666 H3656 0.930 . S
C3666 C3665 1.400 . S
C3666 C3669 1.386 . S
H3667 C3683 0.930 . S
H3668 C3684 0.931 . S
C3669 H3657 0.929 . S
C3669 C3663 1.390 . S
C3669 C3666 1.386 . S
C3670 C3665 1.490 . S
C3670 C3672 1.395 . S
C3670 C3673 1.403 . S
H3671 C3677 0.930 . S
C3672 H3658 0.930 . S
C3672 C3670 1.395 . S
C3672 C3675 1.403 . S
C3673 C3670 1.403 . S
C3673 C3674 1.524 . S
C3673 C3677 1.400 . S
C3674 H3659 0.960 . S
C3674 H3660 0.960 . S
C3674 H3661 0.960 . S
C3674 C3673 1.524 . S
C3675 C3672 1.403 . S
C3675 C3676 1.392 . S
C3675 C3679 1.495 . S
C3676 C3675 1.392 . S
C3676 C3677 1.385 . S
C3676 C3678 1.478 . S
C3677 H3671 0.930 . S
C3677 C3673 1.400 . S
C3677 C3676 1.385 . S
C3678 C3676 1.478 . S
C3678 C3680 1.381 . S
C3678 C3684 1.383 . S
C3679 C3675 1.495 . S
C3679 H3685 0.959 . S
C3679 H3686 0.961 . S
C3679 H3687 0.960 . S
C3680 C3678 1.381 . S
C3680 C3681 1.394 . S
C3680 H3688 0.930 . S
C3681 C3680 1.394 . S
C3681 C3682 1.383 . S
C3681 H3689 0.929 . S
C3682 C3681 1.383 . S
C3682 C3683 1.377 . S
C3683 H3667 0.930 . S
C3683 C3682 1.377 . S
C3683 C3684 1.379 . S
C3684 H3668 0.931 . S
C3684 C3678 1.383 . S
C3684 C3683 1.379 . S
H3685 C3679 0.959 . S
H3686 C3679 0.961 . S
H3687 C3679 0.960 . S
H3688 C3680 0.930 . S
H3689 C3681 0.929 . S
H3690 C3698 0.929 . S
H3691 C3700 0.930 . S
H3692 C3702 0.930 . S
H3693 C3705 0.929 1_554 S
H3694 C3708 0.930 . S
H3695 C3710 0.960 . S
H3696 C3710 0.960 . S
H3697 C3710 0.960 . S
C3698 H3690 0.929 . S
C3698 C3699 1.377 . S
C3698 C3700 1.384 . S
C3699 C3698 1.377 . S
C3699 C3705 1.390 . S
C3700 H3691 0.930 . S
C3700 C3698 1.384 . S
C3700 C3701 1.372 . S
C3701 C3700 1.372 . S
C3701 C3702 1.400 . S
C3701 C3706 1.490 . S
C3702 H3692 0.930 . S
C3702 C3701 1.400 . S
C3702 C3705 1.386 . S
H3703 C3719 0.930 . S
H3704 C3720 0.931 . S
C3705 H3693 0.929 1_556 S
C3705 C3699 1.390 . S
C3705 C3702 1.386 . S
C3706 C3701 1.490 . S
C3706 C3708 1.395 . S
C3706 C3709 1.403 . S
H3707 C3713 0.930 . S
C3708 H3694 0.930 . S
C3708 C3706 1.395 . S
C3708 C3711 1.403 . S
C3709 C3706 1.403 . S
C3709 C3710 1.524 . S
C3709 C3713 1.400 . S
C3710 H3695 0.960 . S
C3710 H3696 0.960 . S
C3710 H3697 0.960 . S
C3710 C3709 1.524 . S
C3711 C3708 1.403 . S
C3711 C3712 1.392 . S
C3711 C3715 1.495 . S
C3712 C3711 1.392 . S
C3712 C3713 1.385 . S
C3712 C3714 1.478 . S
C3713 H3707 0.930 . S
C3713 C3709 1.400 . S
C3713 C3712 1.385 . S
C3714 C3712 1.478 . S
C3714 C3716 1.381 . S
C3714 C3720 1.383 . S
C3715 C3711 1.495 . S
C3715 H3721 0.959 . S
C3715 H3722 0.961 . S
C3715 H3723 0.960 . S
C3716 C3714 1.381 . S
C3716 C3717 1.394 . S
C3716 H3724 0.930 . S
C3717 C3716 1.394 . S
C3717 C3718 1.383 . S
C3717 H3725 0.929 . S
C3718 C3717 1.383 . S
C3718 C3719 1.377 . S
C3719 H3703 0.930 . S
C3719 C3718 1.377 . S
C3719 C3720 1.379 . S
C3720 H3704 0.931 . S
C3720 C3714 1.383 . S
C3720 C3719 1.379 . S
H3721 C3715 0.959 . S
H3722 C3715 0.961 . S
H3723 C3715 0.960 . S
H3724 C3716 0.930 . S
H3725 C3717 0.929 . S
H3726 C3734 0.929 . S
H3727 C3736 0.930 . S
H3728 C3738 0.930 . S
H3729 C3741 0.929 . S
H3730 C3744 0.930 . S
H3731 C3746 0.960 . S
H3732 C3746 0.960 . S
H3733 C3746 0.960 . S
C3734 H3726 0.929 . S
C3734 C3735 1.377 . S
C3734 C3736 1.384 . S
C3735 C3734 1.377 . S
C3735 C3741 1.390 . S
C3736 H3727 0.930 . S
C3736 C3734 1.384 . S
C3736 C3737 1.372 . S
C3737 C3736 1.372 . S
C3737 C3738 1.400 . S
C3737 C3742 1.490 . S
C3738 H3728 0.930 . S
C3738 C3737 1.400 . S
C3738 C3741 1.386 . S
H3739 C3755 0.930 . S
H3740 C3756 0.931 . S
C3741 H3729 0.929 . S
C3741 C3735 1.390 . S
C3741 C3738 1.386 . S
C3742 C3737 1.490 . S
C3742 C3744 1.395 . S
C3742 C3745 1.403 . S
H3743 C3749 0.930 . S
C3744 H3730 0.930 . S
C3744 C3742 1.395 . S
C3744 C3747 1.403 . S
C3745 C3742 1.403 . S
C3745 C3746 1.524 . S
C3745 C3749 1.400 . S
C3746 H3731 0.960 . S
C3746 H3732 0.960 . S
C3746 H3733 0.960 . S
C3746 C3745 1.524 . S
C3747 C3744 1.403 . S
C3747 C3748 1.392 . S
C3747 C3751 1.495 . S
C3748 C3747 1.392 . S
C3748 C3749 1.385 . S
C3748 C3750 1.478 . S
C3749 H3743 0.930 . S
C3749 C3745 1.400 . S
C3749 C3748 1.385 . S
C3750 C3748 1.478 . S
C3750 C3752 1.381 . S
C3750 C3756 1.383 . S
C3751 C3747 1.495 . S
C3751 H3757 0.959 . S
C3751 H3758 0.961 . S
C3751 H3759 0.960 . S
C3752 C3750 1.381 . S
C3752 C3753 1.394 . S
C3752 H3760 0.930 . S
C3753 C3752 1.394 . S
C3753 C3754 1.383 . S
C3753 H3761 0.929 . S
C3754 C3753 1.383 . S
C3754 C3755 1.377 . S
C3755 H3739 0.930 . S
C3755 C3754 1.377 . S
C3755 C3756 1.379 . S
C3756 H3740 0.931 . S
C3756 C3750 1.383 . S
C3756 C3755 1.379 . S
H3757 C3751 0.959 . S
H3758 C3751 0.961 . S
H3759 C3751 0.960 . S
H3760 C3752 0.930 . S
H3761 C3753 0.929 . S
H3762 C3770 0.929 . S
H3763 C3772 0.930 . S
H3764 C3774 0.930 . S
H3765 C3777 0.929 1_554 S
H3766 C3780 0.930 . S
H3767 C3782 0.960 . S
H3768 C3782 0.960 . S
H3769 C3782 0.960 . S
C3770 H3762 0.929 . S
C3770 C3771 1.377 . S
C3770 C3772 1.384 . S
C3771 C3770 1.377 . S
C3771 C3777 1.390 . S
C3772 H3763 0.930 . S
C3772 C3770 1.384 . S
C3772 C3773 1.372 . S
C3773 C3772 1.372 . S
C3773 C3774 1.400 . S
C3773 C3778 1.490 . S
C3774 H3764 0.930 . S
C3774 C3773 1.400 . S
C3774 C3777 1.386 . S
H3775 C3791 0.930 . S
H3776 C3792 0.931 . S
C3777 H3765 0.929 1_556 S
C3777 C3771 1.390 . S
C3777 C3774 1.386 . S
C3778 C3773 1.490 . S
C3778 C3780 1.395 . S
C3778 C3781 1.403 . S
H3779 C3785 0.930 . S
C3780 H3766 0.930 . S
C3780 C3778 1.395 . S
C3780 C3783 1.403 . S
C3781 C3778 1.403 . S
C3781 C3782 1.524 . S
C3781 C3785 1.400 . S
C3782 H3767 0.960 . S
C3782 H3768 0.960 . S
C3782 H3769 0.960 . S
C3782 C3781 1.524 . S
C3783 C3780 1.403 . S
C3783 C3784 1.392 . S
C3783 C3787 1.495 . S
C3784 C3783 1.392 . S
C3784 C3785 1.385 . S
C3784 C3786 1.478 . S
C3785 H3779 0.930 . S
C3785 C3781 1.400 . S
C3785 C3784 1.385 . S
C3786 C3784 1.478 . S
C3786 C3788 1.381 . S
C3786 C3792 1.383 . S
C3787 C3783 1.495 . S
C3787 H3793 0.959 . S
C3787 H3794 0.961 . S
C3787 H3795 0.960 . S
C3788 C3786 1.381 . S
C3788 C3789 1.394 . S
C3788 H3796 0.930 . S
C3789 C3788 1.394 . S
C3789 C3790 1.383 . S
C3789 H3797 0.929 . S
C3790 C3789 1.383 . S
C3790 C3791 1.377 . S
C3791 H3775 0.930 . S
C3791 C3790 1.377 . S
C3791 C3792 1.379 . S
C3792 H3776 0.931 . S
C3792 C3786 1.383 . S
C3792 C3791 1.379 . S
H3793 C3787 0.959 . S
H3794 C3787 0.961 . S
H3795 C3787 0.960 . S
H3796 C3788 0.930 . S
H3797 C3789 0.929 . S
H3798 C3806 0.929 . S
H3799 C3808 0.930 . S
H3800 C3810 0.930 . S
H3801 C3813 0.929 1_554 S
H3802 C3816 0.930 . S
H3803 C3818 0.960 . S
H3804 C3818 0.960 . S
H3805 C3818 0.960 . S
C3806 H3798 0.929 . S
C3806 C3807 1.377 . S
C3806 C3808 1.384 . S
C3807 C3806 1.377 . S
C3807 C3813 1.390 . S
C3808 H3799 0.930 . S
C3808 C3806 1.384 . S
C3808 C3809 1.372 . S
C3809 C3808 1.372 . S
C3809 C3810 1.400 . S
C3809 C3814 1.490 . S
C3810 H3800 0.930 . S
C3810 C3809 1.400 . S
C3810 C3813 1.386 . S
H3811 C3827 0.930 . S
H3812 C3828 0.931 . S
C3813 H3801 0.929 1_556 S
C3813 C3807 1.390 . S
C3813 C3810 1.386 . S
C3814 C3809 1.490 . S
C3814 C3816 1.395 . S
C3814 C3817 1.403 . S
H3815 C3821 0.930 . S
C3816 H3802 0.930 . S
C3816 C3814 1.395 . S
C3816 C3819 1.403 . S
C3817 C3814 1.403 . S
C3817 C3818 1.524 . S
C3817 C3821 1.400 . S
C3818 H3803 0.960 . S
C3818 H3804 0.960 . S
C3818 H3805 0.960 . S
C3818 C3817 1.524 . S
C3819 C3816 1.403 . S
C3819 C3820 1.392 . S
C3819 C3823 1.495 . S
C3820 C3819 1.392 . S
C3820 C3821 1.385 . S
C3820 C3822 1.478 . S
C3821 H3815 0.930 . S
C3821 C3817 1.400 . S
C3821 C3820 1.385 . S
C3822 C3820 1.478 . S
C3822 C3824 1.381 . S
C3822 C3828 1.383 . S
C3823 C3819 1.495 . S
C3823 H3829 0.959 . S
C3823 H3830 0.961 . S
C3823 H3831 0.960 . S
C3824 C3822 1.381 . S
C3824 C3825 1.394 . S
C3824 H3832 0.930 . S
C3825 C3824 1.394 . S
C3825 C3826 1.383 . S
C3825 H3833 0.929 . S
C3826 C3825 1.383 . S
C3826 C3827 1.377 . S
C3827 H3811 0.930 . S
C3827 C3826 1.377 . S
C3827 C3828 1.379 . S
C3828 H3812 0.931 . S
C3828 C3822 1.383 . S
C3828 C3827 1.379 . S
H3829 C3823 0.959 . S
H3830 C3823 0.961 . S
H3831 C3823 0.960 . S
H3832 C3824 0.930 . S
H3833 C3825 0.929 . S
H3834 C3842 0.929 . S
H3835 C3844 0.930 . S
H3836 C3846 0.930 . S
H3837 C3849 0.929 . S
H3838 C3852 0.930 . S
H3839 C3854 0.960 . S
H3840 C3854 0.960 . S
H3841 C3854 0.960 . S
C3842 H3834 0.929 . S
C3842 C3843 1.377 . S
C3842 C3844 1.384 . S
C3843 C3842 1.377 . S
C3843 C3849 1.390 . S
C3844 H3835 0.930 . S
C3844 C3842 1.384 . S
C3844 C3845 1.372 . S
C3845 C3844 1.372 . S
C3845 C3846 1.400 . S
C3845 C3850 1.490 . S
C3846 H3836 0.930 . S
C3846 C3845 1.400 . S
C3846 C3849 1.386 . S
H3847 C3863 0.930 . S
H3848 C3864 0.931 . S
C3849 H3837 0.929 . S
C3849 C3843 1.390 . S
C3849 C3846 1.386 . S
C3850 C3845 1.490 . S
C3850 C3852 1.395 . S
C3850 C3853 1.403 . S
H3851 C3857 0.930 . S
C3852 H3838 0.930 . S
C3852 C3850 1.395 . S
C3852 C3855 1.403 . S
C3853 C3850 1.403 . S
C3853 C3854 1.524 . S
C3853 C3857 1.400 . S
C3854 H3839 0.960 . S
C3854 H3840 0.960 . S
C3854 H3841 0.960 . S
C3854 C3853 1.524 . S
C3855 C3852 1.403 . S
C3855 C3856 1.392 . S
C3855 C3859 1.495 . S
C3856 C3855 1.392 . S
C3856 C3857 1.385 . S
C3856 C3858 1.478 . S
C3857 H3851 0.930 . S
C3857 C3853 1.400 . S
C3857 C3856 1.385 . S
C3858 C3856 1.478 . S
C3858 C3860 1.381 . S
C3858 C3864 1.383 . S
C3859 C3855 1.495 . S
C3859 H3865 0.959 . S
C3859 H3866 0.961 . S
C3859 H3867 0.960 . S
C3860 C3858 1.381 . S
C3860 C3861 1.394 . S
C3860 H3868 0.930 . S
C3861 C3860 1.394 . S
C3861 C3862 1.383 . S
C3861 H3869 0.929 . S
C3862 C3861 1.383 . S
C3862 C3863 1.377 . S
C3863 H3847 0.930 . S
C3863 C3862 1.377 . S
C3863 C3864 1.379 . S
C3864 H3848 0.931 . S
C3864 C3858 1.383 . S
C3864 C3863 1.379 . S
H3865 C3859 0.959 . S
H3866 C3859 0.961 . S
H3867 C3859 0.960 . S
H3868 C3860 0.930 . S
H3869 C3861 0.929 . S
H3870 C3878 0.929 1_554 S
H3871 C3880 0.930 . S
H3872 C3882 0.930 . S
H3873 C3885 0.929 . S
H3874 C3888 0.930 . S
H3875 C3890 0.960 . S
H3876 C3890 0.960 . S
H3877 C3890 0.960 . S
C3878 H3870 0.929 1_556 S
C3878 C3879 1.377 . S
C3878 C3880 1.384 . S
C3879 C3878 1.377 . S
C3879 C3885 1.390 . S
C3880 H3871 0.930 . S
C3880 C3878 1.384 . S
C3880 C3881 1.372 . S
C3881 C3880 1.372 . S
C3881 C3882 1.400 . S
C3881 C3886 1.490 . S
C3882 H3872 0.930 . S
C3882 C3881 1.400 . S
C3882 C3885 1.386 . S
H3883 C3899 0.930 . S
H3884 C3900 0.931 . S
C3885 H3873 0.929 . S
C3885 C3879 1.390 . S
C3885 C3882 1.386 . S
C3886 C3881 1.490 . S
C3886 C3888 1.395 . S
C3886 C3889 1.403 . S
H3887 C3893 0.930 . S
C3888 H3874 0.930 . S
C3888 C3886 1.395 . S
C3888 C3891 1.403 . S
C3889 C3886 1.403 . S
C3889 C3890 1.524 . S
C3889 C3893 1.400 . S
C3890 H3875 0.960 . S
C3890 H3876 0.960 . S
C3890 H3877 0.960 . S
C3890 C3889 1.524 . S
C3891 C3888 1.403 . S
C3891 C3892 1.392 . S
C3891 C3895 1.495 . S
C3892 C3891 1.392 . S
C3892 C3893 1.385 . S
C3892 C3894 1.478 . S
C3893 H3887 0.930 . S
C3893 C3889 1.400 . S
C3893 C3892 1.385 . S
C3894 C3892 1.478 . S
C3894 C3896 1.381 . S
C3894 C3900 1.383 . S
C3895 C3891 1.495 . S
C3895 H3901 0.959 . S
C3895 H3902 0.961 . S
C3895 H3903 0.960 . S
C3896 C3894 1.381 . S
C3896 C3897 1.394 . S
C3896 H3904 0.930 . S
C3897 C3896 1.394 . S
C3897 C3898 1.383 . S
C3897 H3905 0.929 . S
C3898 C3897 1.383 . S
C3898 C3899 1.377 . S
C3899 H3883 0.930 . S
C3899 C3898 1.377 . S
C3899 C3900 1.379 . S
C3900 H3884 0.931 . S
C3900 C3894 1.383 . S
C3900 C3899 1.379 . S
H3901 C3895 0.959 . S
H3902 C3895 0.961 . S
H3903 C3895 0.960 . S
H3904 C3896 0.930 . S
H3905 C3897 0.929 . S
H3906 C3914 0.929 . S
H3907 C3916 0.930 . S
H3908 C3918 0.930 . S
H3909 C3921 0.929 . S
H3910 C3924 0.930 . S
H3911 C3926 0.960 . S
H3912 C3926 0.960 . S
H3913 C3926 0.960 . S
C3914 H3906 0.929 . S
C3914 C3915 1.377 . S
C3914 C3916 1.384 . S
C3915 C3914 1.377 . S
C3915 C3921 1.390 . S
C3916 H3907 0.930 . S
C3916 C3914 1.384 . S
C3916 C3917 1.372 . S
C3917 C3916 1.372 . S
C3917 C3918 1.400 . S
C3917 C3922 1.490 . S
C3918 H3908 0.930 . S
C3918 C3917 1.400 . S
C3918 C3921 1.386 . S
H3919 C3935 0.930 . S
H3920 C3936 0.931 . S
C3921 H3909 0.929 . S
C3921 C3915 1.390 . S
C3921 C3918 1.386 . S
C3922 C3917 1.490 . S
C3922 C3924 1.395 . S
C3922 C3925 1.403 . S
H3923 C3929 0.930 . S
C3924 H3910 0.930 . S
C3924 C3922 1.395 . S
C3924 C3927 1.403 . S
C3925 C3922 1.403 . S
C3925 C3926 1.524 . S
C3925 C3929 1.400 . S
C3926 H3911 0.960 . S
C3926 H3912 0.960 . S
C3926 H3913 0.960 . S
C3926 C3925 1.524 . S
C3927 C3924 1.403 . S
C3927 C3928 1.392 . S
C3927 C3931 1.495 . S
C3928 C3927 1.392 . S
C3928 C3929 1.385 . S
C3928 C3930 1.478 . S
C3929 H3923 0.930 . S
C3929 C3925 1.400 . S
C3929 C3928 1.385 . S
C3930 C3928 1.478 . S
C3930 C3932 1.381 . S
C3930 C3936 1.383 . S
C3931 C3927 1.495 . S
C3931 H3937 0.959 . S
C3931 H3938 0.961 . S
C3931 H3939 0.960 . S
C3932 C3930 1.381 . S
C3932 C3933 1.394 . S
C3932 H3940 0.930 . S
C3933 C3932 1.394 . S
C3933 C3934 1.383 . S
C3933 H3941 0.929 . S
C3934 C3933 1.383 . S
C3934 C3935 1.377 . S
C3935 H3919 0.930 . S
C3935 C3934 1.377 . S
C3935 C3936 1.379 . S
C3936 H3920 0.931 . S
C3936 C3930 1.383 . S
C3936 C3935 1.379 . S
H3937 C3931 0.959 . S
H3938 C3931 0.961 . S
H3939 C3931 0.960 . S
H3940 C3932 0.930 . S
H3941 C3933 0.929 . S
H3942 C3950 0.929 . S
H3943 C3952 0.930 . S
H3944 C3954 0.930 . S
H3945 C3957 0.929 . S
H3946 C3960 0.930 . S
H3947 C3962 0.960 . S
H3948 C3962 0.960 . S
H3949 C3962 0.960 . S
C3950 H3942 0.929 . S
C3950 C3951 1.377 . S
C3950 C3952 1.384 . S
C3951 C3950 1.377 . S
C3951 C3957 1.390 . S
C3952 H3943 0.930 . S
C3952 C3950 1.384 . S
C3952 C3953 1.372 . S
C3953 C3952 1.372 . S
C3953 C3954 1.400 . S
C3953 C3958 1.490 . S
C3954 H3944 0.930 . S
C3954 C3953 1.400 . S
C3954 C3957 1.386 . S
H3955 C3971 0.930 . S
H3956 C3972 0.931 . S
C3957 H3945 0.929 . S
C3957 C3951 1.390 . S
C3957 C3954 1.386 . S
C3958 C3953 1.490 . S
C3958 C3960 1.395 . S
C3958 C3961 1.403 . S
H3959 C3965 0.930 . S
C3960 H3946 0.930 . S
C3960 C3958 1.395 . S
C3960 C3963 1.403 . S
C3961 C3958 1.403 . S
C3961 C3962 1.524 . S
C3961 C3965 1.400 . S
C3962 H3947 0.960 . S
C3962 H3948 0.960 . S
C3962 H3949 0.960 . S
C3962 C3961 1.524 . S
C3963 C3960 1.403 . S
C3963 C3964 1.392 . S
C3963 C3967 1.495 . S
C3964 C3963 1.392 . S
C3964 C3965 1.385 . S
C3964 C3966 1.478 . S
C3965 H3959 0.930 . S
C3965 C3961 1.400 . S
C3965 C3964 1.385 . S
C3966 C3964 1.478 . S
C3966 C3968 1.381 . S
C3966 C3972 1.383 . S
C3967 C3963 1.495 . S
C3967 H3973 0.959 . S
C3967 H3974 0.961 . S
C3967 H3975 0.960 . S
C3968 C3966 1.381 . S
C3968 C3969 1.394 . S
C3968 H3976 0.930 . S
C3969 C3968 1.394 . S
C3969 C3970 1.383 . S
C3969 H3977 0.929 . S
C3970 C3969 1.383 . S
C3970 C3971 1.377 . S
C3971 H3955 0.930 . S
C3971 C3970 1.377 . S
C3971 C3972 1.379 . S
C3972 H3956 0.931 . S
C3972 C3966 1.383 . S
C3972 C3971 1.379 . S
H3973 C3967 0.959 . S
H3974 C3967 0.961 . S
H3975 C3967 0.960 . S
H3976 C3968 0.930 . S
H3977 C3969 0.929 . S
H3978 C3986 0.929 . S
H3979 C3988 0.930 . S
H3980 C3990 0.930 . S
H3981 C3993 0.929 . S
H3982 C3996 0.930 . S
H3983 C3998 0.960 . S
H3984 C3998 0.960 . S
H3985 C3998 0.960 . S
C3986 H3978 0.929 . S
C3986 C3987 1.377 . S
C3986 C3988 1.384 . S
C3987 C3986 1.377 . S
C3987 C3993 1.390 . S
C3988 H3979 0.930 . S
C3988 C3986 1.384 . S
C3988 C3989 1.372 . S
C3989 C3988 1.372 . S
C3989 C3990 1.400 . S
C3989 C3994 1.490 . S
C3990 H3980 0.930 . S
C3990 C3989 1.400 . S
C3990 C3993 1.386 . S
H3991 C4007 0.930 . S
H3992 C4008 0.931 . S
C3993 H3981 0.929 . S
C3993 C3987 1.390 . S
C3993 C3990 1.386 . S
C3994 C3989 1.490 . S
C3994 C3996 1.395 . S
C3994 C3997 1.403 . S
H3995 C4001 0.930 . S
C3996 H3982 0.930 . S
C3996 C3994 1.395 . S
C3996 C3999 1.403 . S
C3997 C3994 1.403 . S
C3997 C3998 1.524 . S
C3997 C4001 1.400 . S
C3998 H3983 0.960 . S
C3998 H3984 0.960 . S
C3998 H3985 0.960 . S
C3998 C3997 1.524 . S
C3999 C3996 1.403 . S
C3999 C4000 1.392 . S
C3999 C4003 1.495 . S
C4000 C3999 1.392 . S
C4000 C4001 1.385 . S
C4000 C4002 1.478 . S
C4001 H3995 0.930 . S
C4001 C3997 1.400 . S
C4001 C4000 1.385 . S
C4002 C4000 1.478 . S
C4002 C4004 1.381 . S
C4002 C4008 1.383 . S
C4003 C3999 1.495 . S
C4003 H4009 0.959 . S
C4003 H4010 0.961 . S
C4003 H4011 0.960 . S
C4004 C4002 1.381 . S
C4004 C4005 1.394 . S
C4004 H4012 0.930 . S
C4005 C4004 1.394 . S
C4005 C4006 1.383 . S
C4005 H4013 0.929 . S
C4006 C4005 1.383 . S
C4006 C4007 1.377 . S
C4007 H3991 0.930 . S
C4007 C4006 1.377 . S
C4007 C4008 1.379 . S
C4008 H3992 0.931 . S
C4008 C4002 1.383 . S
C4008 C4007 1.379 . S
H4009 C4003 0.959 . S
H4010 C4003 0.961 . S
H4011 C4003 0.960 . S
H4012 C4004 0.930 . S
H4013 C4005 0.929 . S
H4014 C4022 0.929 . S
H4015 C4024 0.930 . S
H4016 C4026 0.930 . S
H4017 C4029 0.929 . S
H4018 C4032 0.930 . S
H4019 C4034 0.960 . S
H4020 C4034 0.960 . S
H4021 C4034 0.960 . S
C4022 H4014 0.929 . S
C4022 C4023 1.377 . S
C4022 C4024 1.384 . S
C4023 C4022 1.377 . S
C4023 C4029 1.390 . S
C4024 H4015 0.930 . S
C4024 C4022 1.384 . S
C4024 C4025 1.372 . S
C4025 C4024 1.372 . S
C4025 C4026 1.400 . S
C4025 C4030 1.490 . S
C4026 H4016 0.930 . S
C4026 C4025 1.400 . S
C4026 C4029 1.386 . S
H4027 C4043 0.930 . S
H4028 C4044 0.931 . S
C4029 H4017 0.929 . S
C4029 C4023 1.390 . S
C4029 C4026 1.386 . S
C4030 C4025 1.490 . S
C4030 C4032 1.395 . S
C4030 C4033 1.403 . S
H4031 C4037 0.930 . S
C4032 H4018 0.930 . S
C4032 C4030 1.395 . S
C4032 C4035 1.403 . S
C4033 C4030 1.403 . S
C4033 C4034 1.524 . S
C4033 C4037 1.400 . S
C4034 H4019 0.960 . S
C4034 H4020 0.960 . S
C4034 H4021 0.960 . S
C4034 C4033 1.524 . S
C4035 C4032 1.403 . S
C4035 C4036 1.392 . S
C4035 C4039 1.495 . S
C4036 C4035 1.392 . S
C4036 C4037 1.385 . S
C4036 C4038 1.478 . S
C4037 H4031 0.930 . S
C4037 C4033 1.400 . S
C4037 C4036 1.385 . S
C4038 C4036 1.478 . S
C4038 C4040 1.381 . S
C4038 C4044 1.383 . S
C4039 C4035 1.495 . S
C4039 H4045 0.959 . S
C4039 H4046 0.961 . S
C4039 H4047 0.960 . S
C4040 C4038 1.381 . S
C4040 C4041 1.394 . S
C4040 H4048 0.930 . S
C4041 C4040 1.394 . S
C4041 C4042 1.383 . S
C4041 H4049 0.929 . S
C4042 C4041 1.383 . S
C4042 C4043 1.377 . S
C4043 H4027 0.930 . S
C4043 C4042 1.377 . S
C4043 C4044 1.379 . S
C4044 H4028 0.931 . S
C4044 C4038 1.383 . S
C4044 C4043 1.379 . S
H4045 C4039 0.959 . S
H4046 C4039 0.961 . S
H4047 C4039 0.960 . S
H4048 C4040 0.930 . S
H4049 C4041 0.929 . S
H4050 C4058 0.929 . S
H4051 C4060 0.930 . S
H4052 C4062 0.930 . S
H4053 C4065 0.929 . S
H4054 C4068 0.930 . S
H4055 C4070 0.960 . S
H4056 C4070 0.960 . S
H4057 C4070 0.960 . S
C4058 H4050 0.929 . S
C4058 C4059 1.377 . S
C4058 C4060 1.384 . S
C4059 C4058 1.377 . S
C4059 C4065 1.390 . S
C4060 H4051 0.930 . S
C4060 C4058 1.384 . S
C4060 C4061 1.372 . S
C4061 C4060 1.372 . S
C4061 C4062 1.400 . S
C4061 C4066 1.490 . S
C4062 H4052 0.930 . S
C4062 C4061 1.400 . S
C4062 C4065 1.386 . S
H4063 C4079 0.930 . S
H4064 C4080 0.931 . S
C4065 H4053 0.929 . S
C4065 C4059 1.390 . S
C4065 C4062 1.386 . S
C4066 C4061 1.490 . S
C4066 C4068 1.395 . S
C4066 C4069 1.403 . S
H4067 C4073 0.930 . S
C4068 H4054 0.930 . S
C4068 C4066 1.395 . S
C4068 C4071 1.403 . S
C4069 C4066 1.403 . S
C4069 C4070 1.524 . S
C4069 C4073 1.400 . S
C4070 H4055 0.960 . S
C4070 H4056 0.960 . S
C4070 H4057 0.960 . S
C4070 C4069 1.524 . S
C4071 C4068 1.403 . S
C4071 C4072 1.392 . S
C4071 C4075 1.495 . S
C4072 C4071 1.392 . S
C4072 C4073 1.385 . S
C4072 C4074 1.478 . S
C4073 H4067 0.930 . S
C4073 C4069 1.400 . S
C4073 C4072 1.385 . S
C4074 C4072 1.478 . S
C4074 C4076 1.381 . S
C4074 C4080 1.383 . S
C4075 C4071 1.495 . S
C4075 H4081 0.959 . S
C4075 H4082 0.961 . S
C4075 H4083 0.960 . S
C4076 C4074 1.381 . S
C4076 C4077 1.394 . S
C4076 H4084 0.930 . S
C4077 C4076 1.394 . S
C4077 C4078 1.383 . S
C4077 H4085 0.929 . S
C4078 C4077 1.383 . S
C4078 C4079 1.377 . S
C4079 H4063 0.930 . S
C4079 C4078 1.377 . S
C4079 C4080 1.379 . S
C4080 H4064 0.931 . S
C4080 C4074 1.383 . S
C4080 C4079 1.379 . S
H4081 C4075 0.959 . S
H4082 C4075 0.961 . S
H4083 C4075 0.960 . S
H4084 C4076 0.930 . S
H4085 C4077 0.929 . S
H4086 C4094 0.929 . S
H4087 C4096 0.930 . S
H4088 C4098 0.930 . S
H4089 C4101 0.929 . S
H4090 C4104 0.930 . S
H4091 C4106 0.960 . S
H4092 C4106 0.960 . S
H4093 C4106 0.960 . S
C4094 H4086 0.929 . S
C4094 C4095 1.377 . S
C4094 C4096 1.384 . S
C4095 C4094 1.377 . S
C4095 C4101 1.390 . S
C4096 H4087 0.930 . S
C4096 C4094 1.384 . S
C4096 C4097 1.372 . S
C4097 C4096 1.372 . S
C4097 C4098 1.400 . S
C4097 C4102 1.490 . S
C4098 H4088 0.930 . S
C4098 C4097 1.400 . S
C4098 C4101 1.386 . S
H4099 C4115 0.930 . S
H4100 C4116 0.931 . S
C4101 H4089 0.929 . S
C4101 C4095 1.390 . S
C4101 C4098 1.386 . S
C4102 C4097 1.490 . S
C4102 C4104 1.395 . S
C4102 C4105 1.403 . S
H4103 C4109 0.930 . S
C4104 H4090 0.930 . S
C4104 C4102 1.395 . S
C4104 C4107 1.403 . S
C4105 C4102 1.403 . S
C4105 C4106 1.524 . S
C4105 C4109 1.400 . S
C4106 H4091 0.960 . S
C4106 H4092 0.960 . S
C4106 H4093 0.960 . S
C4106 C4105 1.524 . S
C4107 C4104 1.403 . S
C4107 C4108 1.392 . S
C4107 C4111 1.495 . S
C4108 C4107 1.392 . S
C4108 C4109 1.385 . S
C4108 C4110 1.478 . S
C4109 H4103 0.930 . S
C4109 C4105 1.400 . S
C4109 C4108 1.385 . S
C4110 C4108 1.478 . S
C4110 C4112 1.381 . S
C4110 C4116 1.383 . S
C4111 C4107 1.495 . S
C4111 H4117 0.959 . S
C4111 H4118 0.961 . S
C4111 H4119 0.960 . S
C4112 C4110 1.381 . S
C4112 C4113 1.394 . S
C4112 H4120 0.930 . S
C4113 C4112 1.394 . S
C4113 C4114 1.383 . S
C4113 H4121 0.929 . S
C4114 C4113 1.383 . S
C4114 C4115 1.377 . S
C4115 H4099 0.930 . S
C4115 C4114 1.377 . S
C4115 C4116 1.379 . S
C4116 H4100 0.931 . S
C4116 C4110 1.383 . S
C4116 C4115 1.379 . S
H4117 C4111 0.959 . S
H4118 C4111 0.961 . S
H4119 C4111 0.960 . S
H4120 C4112 0.930 . S
H4121 C4113 0.929 . S
H4122 C4130 0.929 . S
H4123 C4132 0.930 . S
H4124 C4134 1.023 . S
H4125 C4137 0.929 . S
H4126 C4140 0.930 . S
H4127 C4142 0.960 1_655 S
H4128 C4142 0.960 . S
H4129 C4142 0.960 1_655 S
C4130 H4122 0.929 . S
C4130 C4131 1.377 . S
C4130 C4132 1.384 . S
C4131 C4130 1.377 . S
C4131 C4137 1.390 . S
C4132 H4123 0.930 . S
C4132 C4130 1.384 . S
C4132 C4133 1.372 . S
C4133 C4132 1.372 . S
C4133 C4134 1.400 . S
C4133 C4138 1.490 . S
C4134 H4124 1.023 . S
C4134 C4133 1.400 . S
C4134 C4137 1.386 . S
H4135 C4151 1.004 . S
H4136 C4152 0.931 1_655 S
C4137 H4125 0.929 . S
C4137 C4131 1.390 . S
C4137 C4134 1.386 . S
C4138 C4133 1.490 . S
C4138 C4140 1.395 . S
C4138 C4141 1.403 . S
H4139 C4145 0.930 . S
C4140 H4126 0.930 . S
C4140 C4138 1.395 . S
C4140 C4143 1.403 . S
C4141 C4138 1.403 . S
C4141 C4142 1.524 . S
C4141 C4145 1.400 . S
C4142 H4127 0.960 1_455 S
C4142 H4128 0.960 . S
C4142 H4129 0.960 1_455 S
C4142 C4141 1.524 . S
C4143 C4140 1.403 . S
C4143 C4144 1.392 . S
C4143 C4147 1.495 . S
C4144 C4143 1.392 . S
C4144 C4145 1.385 . S
C4144 C4146 1.478 . S
C4145 H4139 0.930 . S
C4145 C4141 1.400 . S
C4145 C4144 1.385 . S
C4146 C4144 1.478 . S
C4146 C4148 1.381 . S
C4146 C4152 1.383 . S
C4147 C4143 1.495 . S
C4147 H4153 0.959 . S
C4147 H4154 0.961 . S
C4147 H4155 0.960 . S
C4148 C4146 1.381 . S
C4148 C4149 1.394 . S
C4148 H4156 0.930 . S
C4149 C4148 1.394 . S
C4149 C4150 1.383 . S
C4149 H4157 0.929 . S
C4150 C4149 1.383 . S
C4150 C4151 1.360 1_455 S
C4151 H4135 1.004 . S
C4151 C4150 1.360 1_655 S
C4151 C4152 1.329 1_655 S
C4152 H4136 0.931 1_455 S
C4152 C4146 1.383 . S
C4152 C4151 1.329 1_455 S
H4153 C4147 0.959 . S
H4154 C4147 0.961 . S
H4155 C4147 0.960 . S
H4156 C4148 0.930 . S
H4157 C4149 0.929 . S
H4158 C4166 0.929 . S
H4159 C4168 0.930 . S
H4160 C4170 0.930 . S
H4161 C4173 0.929 . S
H4162 C4176 0.930 . S
H4163 C4178 0.960 . S
H4164 C4178 0.960 . S
H4165 C4178 0.960 . S
C4166 H4158 0.929 . S
C4166 C4167 1.377 . S
C4166 C4168 1.384 . S
C4167 C4166 1.377 . S
C4167 C4173 1.390 . S
C4168 H4159 0.930 . S
C4168 C4166 1.384 . S
C4168 C4169 1.372 . S
C4169 C4168 1.372 . S
C4169 C4170 1.400 . S
C4169 C4174 1.490 . S
C4170 H4160 0.930 . S
C4170 C4169 1.400 . S
C4170 C4173 1.386 . S
H4171 C4187 0.930 . S
H4172 C4188 0.931 . S
C4173 H4161 0.929 . S
C4173 C4167 1.390 . S
C4173 C4170 1.386 . S
C4174 C4169 1.490 . S
C4174 C4176 1.395 . S
C4174 C4177 1.403 . S
H4175 C4181 0.930 . S
C4176 H4162 0.930 . S
C4176 C4174 1.395 . S
C4176 C4179 1.403 . S
C4177 C4174 1.403 . S
C4177 C4178 1.524 . S
C4177 C4181 1.400 . S
C4178 H4163 0.960 . S
C4178 H4164 0.960 . S
C4178 H4165 0.960 . S
C4178 C4177 1.524 . S
C4179 C4176 1.403 . S
C4179 C4180 1.392 . S
C4179 C4183 1.495 . S
C4180 C4179 1.392 . S
C4180 C4181 1.385 . S
C4180 C4182 1.478 . S
C4181 H4175 0.930 . S
C4181 C4177 1.400 . S
C4181 C4180 1.385 . S
C4182 C4180 1.478 . S
C4182 C4184 1.381 . S
C4182 C4188 1.383 . S
C4183 C4179 1.495 . S
C4183 H4189 0.959 . S
C4183 H4190 0.961 . S
C4183 H4191 0.960 . S
C4184 C4182 1.381 . S
C4184 C4185 1.394 . S
C4184 H4192 0.930 . S
C4185 C4184 1.394 . S
C4185 C4186 1.383 . S
C4185 H4193 0.929 . S
C4186 C4185 1.383 . S
C4186 C4187 1.377 . S
C4187 H4171 0.930 . S
C4187 C4186 1.377 . S
C4187 C4188 1.379 . S
C4188 H4172 0.931 . S
C4188 C4182 1.383 . S
C4188 C4187 1.379 . S
H4189 C4183 0.959 . S
H4190 C4183 0.961 . S
H4191 C4183 0.960 . S
H4192 C4184 0.930 . S
H4193 C4185 0.929 . S
H4194 C4202 0.879 1_545 S
H4195 C4204 0.959 . S
H4196 C4206 0.930 . S
H4197 C4209 0.929 . S
H4198 C4212 0.930 . S
H4199 C4214 0.960 . S
H4200 C4214 0.960 . S
H4201 C4214 0.960 . S
C4202 H4194 0.879 1_565 S
C4202 C4203 1.409 . S
C4202 C4204 1.423 1_565 S
C4203 C4202 1.409 . S
C4203 C4209 1.390 . S
C4204 H4195 0.959 . S
C4204 C4202 1.423 1_545 S
C4204 C4205 1.328 1_545 S
C4205 C4204 1.328 1_565 S
C4205 C4206 1.400 . S
C4205 C4210 1.490 . S
C4206 H4196 0.930 . S
C4206 C4205 1.400 . S
C4206 C4209 1.386 . S
H4207 C4223 0.930 . S
H4208 C4224 0.931 . S
C4209 H4197 0.929 . S
C4209 C4203 1.390 . S
C4209 C4206 1.386 . S
C4210 C4205 1.490 . S
C4210 C4212 1.395 . S
C4210 C4213 1.403 . S
H4211 C4217 0.930 . S
C4212 H4198 0.930 . S
C4212 C4210 1.395 . S
C4212 C4215 1.403 . S
C4213 C4210 1.403 . S
C4213 C4214 1.524 . S
C4213 C4217 1.400 . S
C4214 H4199 0.960 . S
C4214 H4200 0.960 . S
C4214 H4201 0.960 . S
C4214 C4213 1.524 . S
C4215 C4212 1.403 . S
C4215 C4216 1.392 . S
C4215 C4219 1.495 1_565 S
C4216 C4215 1.392 . S
C4216 C4217 1.385 . S
C4216 C4218 1.478 . S
C4217 H4211 0.930 . S
C4217 C4213 1.400 . S
C4217 C4216 1.385 . S
C4218 C4216 1.478 . S
C4218 C4220 1.381 1_565 S
C4218 C4224 1.383 . S
C4219 C4215 1.495 1_545 S
C4219 H4225 0.959 . S
C4219 H4226 0.961 1_545 S
C4219 H4227 0.960 . S
C4220 C4218 1.381 1_545 S
C4220 C4221 1.394 . S
C4220 H4228 0.930 . S
C4221 C4220 1.394 . S
C4221 C4222 1.383 1_545 S
C4221 H4229 0.929 . S
C4222 C4221 1.383 1_565 S
C4222 C4223 1.377 . S
C4223 H4207 0.930 . S
C4223 C4222 1.377 . S
C4223 C4224 1.379 . S
C4224 H4208 0.931 . S
C4224 C4218 1.383 . S
C4224 C4223 1.379 . S
H4225 C4219 0.959 . S
H4226 C4219 0.961 1_565 S
H4227 C4219 0.960 . S
H4228 C4220 0.930 . S
H4229 C4221 0.929 . S
H4230 C4238 0.929 . S
H4231 C4240 0.930 . S
H4232 C4242 0.930 1_545 S
H4233 C4245 0.929 1_545 S
H4234 C4248 0.930 . S
H4235 C4250 0.960 . S
H4236 C4250 0.960 . S
H4237 C4250 0.968 . S
C4238 H4230 0.929 . S
C4238 C4239 1.377 . S
C4238 C4240 1.384 . S
C4239 C4238 1.377 . S
C4239 C4245 1.390 . S
C4240 H4231 0.930 . S
C4240 C4238 1.384 . S
C4240 C4241 1.372 . S
C4241 C4240 1.372 . S
C4241 C4242 1.400 . S
C4241 C4246 1.490 . S
C4242 H4232 0.930 1_565 S
C4242 C4241 1.400 . S
C4242 C4245 1.386 . S
H4243 C4259 0.930 . S
H4244 C4260 0.931 . S
C4245 H4233 0.929 1_565 S
C4245 C4239 1.390 . S
C4245 C4242 1.386 . S
C4246 C4241 1.490 . S
C4246 C4248 1.395 . S
C4246 C4249 1.403 . S
H4247 C4253 0.930 . S
C4248 H4234 0.930 . S
C4248 C4246 1.395 . S
C4248 C4251 1.403 . S
C4249 C4246 1.403 . S
C4249 C4250 1.524 . S
C4249 C4253 1.400 . S
C4250 H4235 0.960 . S
C4250 H4236 0.960 . S
C4250 H4237 0.968 . S
C4250 C4249 1.524 . S
C4251 C4248 1.403 . S
C4251 C4252 1.392 . S
C4251 C4255 1.495 . S
C4252 C4251 1.392 . S
C4252 C4253 1.385 . S
C4252 C4254 1.478 . S
C4253 H4247 0.930 . S
C4253 C4249 1.400 . S
C4253 C4252 1.385 . S
C4254 C4252 1.478 . S
C4254 C4256 1.381 . S
C4254 C4260 1.383 1_565 S
C4255 C4251 1.495 . S
C4255 H4261 0.959 . S
C4255 H4262 0.961 . S
C4255 H4263 0.960 . S
C4256 C4254 1.381 . S
C4256 C4257 1.394 . S
C4256 H4264 0.930 . S
C4257 C4256 1.394 . S
C4257 C4258 1.383 . S
C4257 H4265 0.929 . S
C4258 C4257 1.383 . S
C4258 C4259 1.377 1_565 S
C4259 H4243 0.930 . S
C4259 C4258 1.377 1_545 S
C4259 C4260 1.379 . S
C4260 H4244 0.931 . S
C4260 C4254 1.383 1_545 S
C4260 C4259 1.379 . S
H4261 C4255 0.959 . S
H4262 C4255 0.961 . S
H4263 C4255 0.960 . S
H4264 C4256 0.930 . S
H4265 C4257 0.929 . S
H4266 C4274 0.929 . S
H4267 C4276 0.930 . S
H4268 C4278 0.930 . S
H4269 C4281 0.929 . S
H4270 C4284 0.930 . S
H4271 C4286 0.960 . S
H4272 C4286 0.960 . S
H4273 C4286 0.960 . S
C4274 H4266 0.929 . S
C4274 C4275 1.377 . S
C4274 C4276 1.384 . S
C4275 C4274 1.377 . S
C4275 C4281 1.390 1_455 S
C4276 H4267 0.930 . S
C4276 C4274 1.384 . S
C4276 C4277 1.372 . S
C4277 C4276 1.372 . S
C4277 C4278 1.400 1_455 S
C4277 C4282 1.490 . S
C4278 H4268 0.930 . S
C4278 C4277 1.400 1_655 S
C4278 C4281 1.386 . S
H4279 C4295 0.930 . S
H4280 C4296 0.931 . S
C4281 H4269 0.929 . S
C4281 C4275 1.390 1_655 S
C4281 C4278 1.386 . S
C4282 C4277 1.490 . S
C4282 C4284 1.395 . S
C4282 C4285 1.363 1_455 S
H4283 C4289 0.930 . S
C4284 H4270 0.930 . S
C4284 C4282 1.395 . S
C4284 C4287 1.403 . S
C4285 C4282 1.363 1_655 S
C4285 C4286 1.600 . S
C4285 C4289 1.365 . S
C4286 H4271 0.960 . S
C4286 H4272 0.960 . S
C4286 H4273 0.960 . S
C4286 C4285 1.600 . S
C4287 C4284 1.403 . S
C4287 C4288 1.392 . S
C4287 C4291 1.495 . S
C4288 C4287 1.392 . S
C4288 C4289 1.385 1_455 S
C4288 C4290 1.478 . S
C4289 H4283 0.930 . S
C4289 C4285 1.365 . S
C4289 C4288 1.385 1_655 S
C4290 C4288 1.478 . S
C4290 C4292 1.381 . S
C4290 C4296 1.383 1_455 S
C4291 C4287 1.495 . S
C4291 H4297 0.959 . S
C4291 H4298 0.961 . S
C4291 H4299 0.960 . S
C4292 C4290 1.381 . S
C4292 C4293 1.394 . S
C4292 H4300 0.930 . S
C4293 C4292 1.394 . S
C4293 C4294 1.373 1_455 S
C4293 H4301 0.929 . S
C4294 C4293 1.373 1_655 S
C4294 C4295 1.394 . S
C4295 H4279 0.930 . S
C4295 C4294 1.394 . S
C4295 C4296 1.379 . S
C4296 H4280 0.931 . S
C4296 C4290 1.383 1_655 S
C4296 C4295 1.379 . S
H4297 C4291 0.959 . S
H4298 C4291 0.961 . S
H4299 C4291 0.960 . S
H4300 C4292 0.930 . S
H4301 C4293 0.929 . S
H4302 C4310 0.929 . S
H4303 C4312 0.930 . S
H4304 C4314 0.930 . S
H4305 C4317 0.929 . S
H4306 C4320 0.930 . S
H4307 C4322 0.960 . S
H4308 C4322 0.960 . S
H4309 C4322 0.960 . S
C4310 H4302 0.929 . S
C4310 C4311 1.377 . S
C4310 C4312 1.384 . S
C4311 C4310 1.377 . S
C4311 C4317 1.390 . S
C4312 H4303 0.930 . S
C4312 C4310 1.384 . S
C4312 C4313 1.372 . S
C4313 C4312 1.372 . S
C4313 C4314 1.400 . S
C4313 C4318 1.490 . S
C4314 H4304 0.930 . S
C4314 C4313 1.400 . S
C4314 C4317 1.386 . S
H4315 C4331 0.930 . S
H4316 C4332 0.931 . S
C4317 H4305 0.929 . S
C4317 C4311 1.390 . S
C4317 C4314 1.386 . S
C4318 C4313 1.490 . S
C4318 C4320 1.395 . S
C4318 C4321 1.403 . S
H4319 C4325 0.930 . S
C4320 H4306 0.930 . S
C4320 C4318 1.395 . S
C4320 C4323 1.403 . S
C4321 C4318 1.403 . S
C4321 C4322 1.524 . S
C4321 C4325 1.400 . S
C4322 H4307 0.960 . S
C4322 H4308 0.960 . S
C4322 H4309 0.960 . S
C4322 C4321 1.524 . S
C4323 C4320 1.403 . S
C4323 C4324 1.392 . S
C4323 C4327 1.495 . S
C4324 C4323 1.392 . S
C4324 C4325 1.385 . S
C4324 C4326 1.478 . S
C4325 H4319 0.930 . S
C4325 C4321 1.400 . S
C4325 C4324 1.385 . S
C4326 C4324 1.478 . S
C4326 C4328 1.381 . S
C4326 C4332 1.383 . S
C4327 C4323 1.495 . S
C4327 H4333 0.959 . S
C4327 H4334 0.961 . S
C4327 H4335 0.960 . S
C4328 C4326 1.381 . S
C4328 C4329 1.394 . S
C4328 H4336 0.930 . S
C4329 C4328 1.394 . S
C4329 C4330 1.383 . S
C4329 H4337 0.929 . S
C4330 C4329 1.383 . S
C4330 C4331 1.377 . S
C4331 H4315 0.930 . S
C4331 C4330 1.377 . S
C4331 C4332 1.379 . S
C4332 H4316 0.931 . S
C4332 C4326 1.383 . S
C4332 C4331 1.379 . S
H4333 C4327 0.959 . S
H4334 C4327 0.961 . S
H4335 C4327 0.960 . S
H4336 C4328 0.930 . S
H4337 C4329 0.929 . S
H4338 C4346 0.929 . S
H4339 C4348 0.930 . S
H4340 C4350 0.930 . S
H4341 C4353 0.929 . S
H4342 C4356 0.930 . S
H4343 C4358 0.960 . S
H4344 C4358 0.960 . S
H4345 C4358 0.960 . S
C4346 H4338 0.929 . S
C4346 C4347 1.377 . S
C4346 C4348 1.384 . S
C4347 C4346 1.377 . S
C4347 C4353 1.390 . S
C4348 H4339 0.930 . S
C4348 C4346 1.384 . S
C4348 C4349 1.372 . S
C4349 C4348 1.372 . S
C4349 C4350 1.400 . S
C4349 C4354 1.490 . S
C4350 H4340 0.930 . S
C4350 C4349 1.400 . S
C4350 C4353 1.386 . S
H4351 C4367 0.930 . S
H4352 C4368 0.931 . S
C4353 H4341 0.929 . S
C4353 C4347 1.390 . S
C4353 C4350 1.386 . S
C4354 C4349 1.490 . S
C4354 C4356 1.395 . S
C4354 C4357 1.403 . S
H4355 C4361 0.930 . S
C4356 H4342 0.930 . S
C4356 C4354 1.395 . S
C4356 C4359 1.403 . S
C4357 C4354 1.403 . S
C4357 C4358 1.524 . S
C4357 C4361 1.400 . S
C4358 H4343 0.960 . S
C4358 H4344 0.960 . S
C4358 H4345 0.960 . S
C4358 C4357 1.524 . S
C4359 C4356 1.403 . S
C4359 C4360 1.392 . S
C4359 C4363 1.495 . S
C4360 C4359 1.392 . S
C4360 C4361 1.385 . S
C4360 C4362 1.478 . S
C4361 H4355 0.930 . S
C4361 C4357 1.400 . S
C4361 C4360 1.385 . S
C4362 C4360 1.478 . S
C4362 C4364 1.381 . S
C4362 C4368 1.383 . S
C4363 C4359 1.495 . S
C4363 H4369 0.959 . S
C4363 H4370 0.961 . S
C4363 H4371 0.960 . S
C4364 C4362 1.381 . S
C4364 C4365 1.394 . S
C4364 H4372 0.930 . S
C4365 C4364 1.394 . S
C4365 C4366 1.383 . S
C4365 H4373 0.929 . S
C4366 C4365 1.383 . S
C4366 C4367 1.377 . S
C4367 H4351 0.930 . S
C4367 C4366 1.377 . S
C4367 C4368 1.379 . S
C4368 H4352 0.931 . S
C4368 C4362 1.383 . S
C4368 C4367 1.379 . S
H4369 C4363 0.959 . S
H4370 C4363 0.961 . S
H4371 C4363 0.960 . S
H4372 C4364 0.930 . S
H4373 C4365 0.929 . S
H4374 C4382 0.929 . S
H4375 C4384 0.930 . S
H4376 C4386 0.930 . S
H4377 C4389 0.929 . S
H4378 C4392 0.930 . S
H4379 C4394 0.960 . S
H4380 C4394 0.960 . S
H4381 C4394 0.960 . S
C4382 H4374 0.929 . S
C4382 C4383 1.377 . S
C4382 C4384 1.384 . S
C4383 C4382 1.377 . S
C4383 C4389 1.390 . S
C4384 H4375 0.930 . S
C4384 C4382 1.384 . S
C4384 C4385 1.372 . S
C4385 C4384 1.372 . S
C4385 C4386 1.400 . S
C4385 C4390 1.490 . S
C4386 H4376 0.930 . S
C4386 C4385 1.400 . S
C4386 C4389 1.386 . S
H4387 C4403 0.930 . S
H4388 C4404 0.931 . S
C4389 H4377 0.929 . S
C4389 C4383 1.390 . S
C4389 C4386 1.386 . S
C4390 C4385 1.490 . S
C4390 C4392 1.395 . S
C4390 C4393 1.403 . S
H4391 C4397 0.930 . S
C4392 H4378 0.930 . S
C4392 C4390 1.395 . S
C4392 C4395 1.403 . S
C4393 C4390 1.403 . S
C4393 C4394 1.524 . S
C4393 C4397 1.400 . S
C4394 H4379 0.960 . S
C4394 H4380 0.960 . S
C4394 H4381 0.960 . S
C4394 C4393 1.524 . S
C4395 C4392 1.403 . S
C4395 C4396 1.392 . S
C4395 C4399 1.495 . S
C4396 C4395 1.392 . S
C4396 C4397 1.385 . S
C4396 C4398 1.478 . S
C4397 H4391 0.930 . S
C4397 C4393 1.400 . S
C4397 C4396 1.385 . S
C4398 C4396 1.478 . S
C4398 C4400 1.381 . S
C4398 C4404 1.383 . S
C4399 C4395 1.495 . S
C4399 H4405 0.959 . S
C4399 H4406 0.961 . S
C4399 H4407 0.960 . S
C4400 C4398 1.381 . S
C4400 C4401 1.394 . S
C4400 H4408 0.930 . S
C4401 C4400 1.394 . S
C4401 C4402 1.383 . S
C4401 H4409 0.929 . S
C4402 C4401 1.383 . S
C4402 C4403 1.377 . S
C4403 H4387 0.930 . S
C4403 C4402 1.377 . S
C4403 C4404 1.379 . S
C4404 H4388 0.931 . S
C4404 C4398 1.383 . S
C4404 C4403 1.379 . S
H4405 C4399 0.959 . S
H4406 C4399 0.961 . S
H4407 C4399 0.960 . S
H4408 C4400 0.930 . S
H4409 C4401 0.929 . S
H4410 C4418 0.929 . S
H4411 C4420 0.930 . S
H4412 C4422 0.930 . S
H4413 C4425 0.929 . S
H4414 C4428 0.930 . S
H4415 C4430 0.960 . S
H4416 C4430 0.960 . S
H4417 C4430 0.960 . S
C4418 H4410 0.929 . S
C4418 C4419 1.377 . S
C4418 C4420 1.384 . S
C4419 C4418 1.377 . S
C4419 C4425 1.390 . S
C4420 H4411 0.930 . S
C4420 C4418 1.384 . S
C4420 C4421 1.372 . S
C4421 C4420 1.372 . S
C4421 C4422 1.400 . S
C4421 C4426 1.490 . S
C4422 H4412 0.930 . S
C4422 C4421 1.400 . S
C4422 C4425 1.386 . S
H4423 C4439 0.930 . S
H4424 C4440 0.931 . S
C4425 H4413 0.929 . S
C4425 C4419 1.390 . S
C4425 C4422 1.386 . S
C4426 C4421 1.490 . S
C4426 C4428 1.395 . S
C4426 C4429 1.403 . S
H4427 C4433 0.930 . S
C4428 H4414 0.930 . S
C4428 C4426 1.395 . S
C4428 C4431 1.403 . S
C4429 C4426 1.403 . S
C4429 C4430 1.524 . S
C4429 C4433 1.400 . S
C4430 H4415 0.960 . S
C4430 H4416 0.960 . S
C4430 H4417 0.960 . S
C4430 C4429 1.524 . S
C4431 C4428 1.403 . S
C4431 C4432 1.392 . S
C4431 C4435 1.495 . S
C4432 C4431 1.392 . S
C4432 C4433 1.385 . S
C4432 C4434 1.478 . S
C4433 H4427 0.930 . S
C4433 C4429 1.400 . S
C4433 C4432 1.385 . S
C4434 C4432 1.478 . S
C4434 C4436 1.381 . S
C4434 C4440 1.383 . S
C4435 C4431 1.495 . S
C4435 H4441 0.959 . S
C4435 H4442 0.961 . S
C4435 H4443 0.960 . S
C4436 C4434 1.381 . S
C4436 C4437 1.394 . S
C4436 H4444 0.930 . S
C4437 C4436 1.394 . S
C4437 C4438 1.383 . S
C4437 H4445 0.929 . S
C4438 C4437 1.383 . S
C4438 C4439 1.377 . S
C4439 H4423 0.930 . S
C4439 C4438 1.377 . S
C4439 C4440 1.379 . S
C4440 H4424 0.931 . S
C4440 C4434 1.383 . S
C4440 C4439 1.379 . S
H4441 C4435 0.959 . S
H4442 C4435 0.961 . S
H4443 C4435 0.960 . S
H4444 C4436 0.930 . S
H4445 C4437 0.929 . S
H4446 C4454 0.929 . S
H4447 C4456 0.958 . S
H4448 C4458 0.930 . S
H4449 C4461 0.929 . S
H4450 C4464 0.930 1_565 S
H4451 C4466 0.960 . S
H4452 C4466 0.960 . S
H4453 C4466 0.960 . S
C4454 H4446 0.929 . S
C4454 C4455 1.377 . S
C4454 C4456 1.384 . S
C4455 C4454 1.377 . S
C4455 C4461 1.390 . S
C4456 H4447 0.958 . S
C4456 C4454 1.384 . S
C4456 C4457 1.372 . S
C4457 C4456 1.372 . S
C4457 C4458 1.400 . S
C4457 C4462 1.490 . S
C4458 H4448 0.930 . S
C4458 C4457 1.400 . S
C4458 C4461 1.386 . S
H4459 C4475 0.930 . S
H4460 C4476 0.931 . S
C4461 H4449 0.929 . S
C4461 C4455 1.390 . S
C4461 C4458 1.386 . S
C4462 C4457 1.490 . S
C4462 C4464 1.395 . S
C4462 C4465 1.403 . S
H4463 C4469 0.930 . S
C4464 H4450 0.930 1_545 S
C4464 C4462 1.395 . S
C4464 C4467 1.347 1_545 S
C4465 C4462 1.403 . S
C4465 C4466 1.524 . S
C4465 C4469 1.400 . S
C4466 H4451 0.960 . S
C4466 H4452 0.960 . S
C4466 H4453 0.960 . S
C4466 C4465 1.524 . S
C4467 C4464 1.347 1_565 S
C4467 C4468 1.354 1_565 S
C4467 C4471 1.593 . S
C4468 C4467 1.354 1_545 S
C4468 C4469 1.385 . S
C4468 C4470 1.478 . S
C4469 H4463 0.930 . S
C4469 C4465 1.400 . S
C4469 C4468 1.385 . S
C4470 C4468 1.478 . S
C4470 C4472 1.381 1_545 S
C4470 C4476 1.383 . S
C4471 C4467 1.593 . S
C4471 H4477 0.959 . S
C4471 H4478 0.961 . S
C4471 H4479 0.960 . S
C4472 C4470 1.381 1_565 S
C4472 C4473 1.394 . S
C4472 H4480 0.930 . S
C4473 C4472 1.394 . S
C4473 C4474 1.383 1_565 S
C4473 H4481 0.929 . S
C4474 C4473 1.383 1_545 S
C4474 C4475 1.377 . S
C4475 H4459 0.930 . S
C4475 C4474 1.377 . S
C4475 C4476 1.379 . S
C4476 H4460 0.931 . S
C4476 C4470 1.383 . S
C4476 C4475 1.379 . S
H4477 C4471 0.959 . S
H4478 C4471 0.961 . S
H4479 C4471 0.960 . S
H4480 C4472 0.930 . S
H4481 C4473 0.929 . S
H4482 C4490 0.929 . S
H4483 C4492 0.930 . S
H4484 C4494 0.930 . S
H4485 C4497 0.929 . S
H4486 C4500 0.930 . S
H4487 C4502 0.960 . S
H4488 C4502 0.960 . S
H4489 C4502 0.960 . S
C4490 H4482 0.929 . S
C4490 C4491 1.377 . S
C4490 C4492 1.384 . S
C4491 C4490 1.377 . S
C4491 C4497 1.390 . S
C4492 H4483 0.930 . S
C4492 C4490 1.384 . S
C4492 C4493 1.372 . S
C4493 C4492 1.372 . S
C4493 C4494 1.400 . S
C4493 C4498 1.490 . S
C4494 H4484 0.930 . S
C4494 C4493 1.400 . S
C4494 C4497 1.386 . S
H4495 C4511 0.930 . S
H4496 C4512 0.931 . S
C4497 H4485 0.929 . S
C4497 C4491 1.390 . S
C4497 C4494 1.386 . S
C4498 C4493 1.490 . S
C4498 C4500 1.395 . S
C4498 C4501 1.403 1_655 S
H4499 C4505 0.930 . S
C4500 H4486 0.930 . S
C4500 C4498 1.395 . S
C4500 C4503 1.403 . S
C4501 C4498 1.403 1_455 S
C4501 C4502 1.524 . S
C4501 C4505 1.400 . S
C4502 H4487 0.960 . S
C4502 H4488 0.960 . S
C4502 H4489 0.960 . S
C4502 C4501 1.524 . S
C4503 C4500 1.403 . S
C4503 C4504 1.392 . S
C4503 C4507 1.495 . S
C4504 C4503 1.392 . S
C4504 C4505 1.385 1_655 S
C4504 C4506 1.478 . S
C4505 H4499 0.930 . S
C4505 C4501 1.400 . S
C4505 C4504 1.385 1_455 S
C4506 C4504 1.478 . S
C4506 C4508 1.381 . S
C4506 C4512 1.383 . S
C4507 C4503 1.495 . S
C4507 H4513 0.959 . S
C4507 H4514 0.961 . S
C4507 H4515 0.960 . S
C4508 C4506 1.381 . S
C4508 C4509 1.394 . S
C4508 H4516 0.930 . S
C4509 C4508 1.394 . S
C4509 C4510 1.383 . S
C4509 H4517 0.929 . S
C4510 C4509 1.383 . S
C4510 C4511 1.377 . S
C4511 H4495 0.930 . S
C4511 C4510 1.377 . S
C4511 C4512 1.379 . S
C4512 H4496 0.931 . S
C4512 C4506 1.383 . S
C4512 C4511 1.379 . S
H4513 C4507 0.959 . S
H4514 C4507 0.961 . S
H4515 C4507 0.960 . S
H4516 C4508 0.930 . S
H4517 C4509 0.929 . S
H4518 C4526 0.929 . S
H4519 C4528 0.930 . S
H4520 C4530 0.930 . S
H4521 C4533 0.929 . S
H4522 C4536 0.930 . S
H4523 C4538 0.960 . S
H4524 C4538 0.960 . S
H4525 C4538 0.960 . S
C4526 H4518 0.929 . S
C4526 C4527 1.377 . S
C4526 C4528 1.384 . S
C4527 C4526 1.377 . S
C4527 C4533 1.390 . S
C4528 H4519 0.930 . S
C4528 C4526 1.384 . S
C4528 C4529 1.372 . S
C4529 C4528 1.372 . S
C4529 C4530 1.400 . S
C4529 C4534 1.490 . S
C4530 H4520 0.930 . S
C4530 C4529 1.400 . S
C4530 C4533 1.386 . S
H4531 C4547 0.930 . S
H4532 C4548 0.931 . S
C4533 H4521 0.929 . S
C4533 C4527 1.390 . S
C4533 C4530 1.386 . S
C4534 C4529 1.490 . S
C4534 C4536 1.395 . S
C4534 C4537 1.403 . S
H4535 C4541 0.930 . S
C4536 H4522 0.930 . S
C4536 C4534 1.395 . S
C4536 C4539 1.403 . S
C4537 C4534 1.403 . S
C4537 C4538 1.524 . S
C4537 C4541 1.400 . S
C4538 H4523 0.960 . S
C4538 H4524 0.960 . S
C4538 H4525 0.960 . S
C4538 C4537 1.524 . S
C4539 C4536 1.403 . S
C4539 C4540 1.392 . S
C4539 C4543 1.495 . S
C4540 C4539 1.392 . S
C4540 C4541 1.385 . S
C4540 C4542 1.478 . S
C4541 H4535 0.930 . S
C4541 C4537 1.400 . S
C4541 C4540 1.385 . S
C4542 C4540 1.478 . S
C4542 C4544 1.381 . S
C4542 C4548 1.383 . S
C4543 C4539 1.495 . S
C4543 H4549 0.959 . S
C4543 H4550 0.961 . S
C4543 H4551 0.960 . S
C4544 C4542 1.381 . S
C4544 C4545 1.394 . S
C4544 H4552 0.930 . S
C4545 C4544 1.394 . S
C4545 C4546 1.383 . S
C4545 H4553 0.929 . S
C4546 C4545 1.383 . S
C4546 C4547 1.377 . S
C4547 H4531 0.930 . S
C4547 C4546 1.377 . S
C4547 C4548 1.379 . S
C4548 H4532 0.931 . S
C4548 C4542 1.383 . S
C4548 C4547 1.379 . S
H4549 C4543 0.959 . S
H4550 C4543 0.961 . S
H4551 C4543 0.960 . S
H4552 C4544 0.930 . S
H4553 C4545 0.929 . S
H4554 C4562 0.929 . S
H4555 C4564 0.930 . S
H4556 C4566 0.930 . S
H4557 C4569 0.929 . S
H4558 C4572 0.930 . S
H4559 C4574 0.960 . S
H4560 C4574 0.960 . S
H4561 C4574 0.960 . S
C4562 H4554 0.929 . S
C4562 C4563 1.377 . S
C4562 C4564 1.384 . S
C4563 C4562 1.377 . S
C4563 C4569 1.390 . S
C4564 H4555 0.930 . S
C4564 C4562 1.384 . S
C4564 C4565 1.372 . S
C4565 C4564 1.372 . S
C4565 C4566 1.400 . S
C4565 C4570 1.490 . S
C4566 H4556 0.930 . S
C4566 C4565 1.400 . S
C4566 C4569 1.386 . S
H4567 C4583 0.930 . S
H4568 C4584 0.931 . S
C4569 H4557 0.929 . S
C4569 C4563 1.390 . S
C4569 C4566 1.386 . S
C4570 C4565 1.490 . S
C4570 C4572 1.395 . S
C4570 C4573 1.403 . S
H4571 C4577 0.930 . S
C4572 H4558 0.930 . S
C4572 C4570 1.395 . S
C4572 C4575 1.403 . S
C4573 C4570 1.403 . S
C4573 C4574 1.524 . S
C4573 C4577 1.400 . S
C4574 H4559 0.960 . S
C4574 H4560 0.960 . S
C4574 H4561 0.960 . S
C4574 C4573 1.524 . S
C4575 C4572 1.403 . S
C4575 C4576 1.392 . S
C4575 C4579 1.495 . S
C4576 C4575 1.392 . S
C4576 C4577 1.385 . S
C4576 C4578 1.478 . S
C4577 H4571 0.930 . S
C4577 C4573 1.400 . S
C4577 C4576 1.385 . S
C4578 C4576 1.478 . S
C4578 C4580 1.381 . S
C4578 C4584 1.383 . S
C4579 C4575 1.495 . S
C4579 H4585 0.959 . S
C4579 H4586 0.961 . S
C4579 H4587 0.960 . S
C4580 C4578 1.381 . S
C4580 C4581 1.394 . S
C4580 H4588 0.930 . S
C4581 C4580 1.394 . S
C4581 C4582 1.383 . S
C4581 H4589 0.929 . S
C4582 C4581 1.383 . S
C4582 C4583 1.377 . S
C4583 H4567 0.930 . S
C4583 C4582 1.377 . S
C4583 C4584 1.379 . S
C4584 H4568 0.931 . S
C4584 C4578 1.383 . S
C4584 C4583 1.379 . S
H4585 C4579 0.959 . S
H4586 C4579 0.961 . S
H4587 C4579 0.960 . S
H4588 C4580 0.930 . S
H4589 C4581 0.929 . S
H4590 C4598 0.929 . S
H4591 C4600 0.930 . S
H4592 C4602 0.930 . S
H4593 C4605 0.929 . S
H4594 C4608 0.930 . S
H4595 C4610 0.960 . S
H4596 C4610 0.960 . S
H4597 C4610 0.960 . S
C4598 H4590 0.929 . S
C4598 C4599 1.377 . S
C4598 C4600 1.384 . S
C4599 C4598 1.377 . S
C4599 C4605 1.390 . S
C4600 H4591 0.930 . S
C4600 C4598 1.384 . S
C4600 C4601 1.372 . S
C4601 C4600 1.372 . S
C4601 C4602 1.400 . S
C4601 C4606 1.490 . S
C4602 H4592 0.930 . S
C4602 C4601 1.400 . S
C4602 C4605 1.386 . S
H4603 C4619 0.930 . S
H4604 C4620 0.931 . S
C4605 H4593 0.929 . S
C4605 C4599 1.390 . S
C4605 C4602 1.386 . S
C4606 C4601 1.490 . S
C4606 C4608 1.395 . S
C4606 C4609 1.403 . S
H4607 C4613 0.930 . S
C4608 H4594 0.930 . S
C4608 C4606 1.395 . S
C4608 C4611 1.403 . S
C4609 C4606 1.403 . S
C4609 C4610 1.524 . S
C4609 C4613 1.400 . S
C4610 H4595 0.960 . S
C4610 H4596 0.960 . S
C4610 H4597 0.960 . S
C4610 C4609 1.524 . S
C4611 C4608 1.403 . S
C4611 C4612 1.392 . S
C4611 C4615 1.495 . S
C4612 C4611 1.392 . S
C4612 C4613 1.385 . S
C4612 C4614 1.478 . S
C4613 H4607 0.930 . S
C4613 C4609 1.400 . S
C4613 C4612 1.385 . S
C4614 C4612 1.478 . S
C4614 C4616 1.381 . S
C4614 C4620 1.383 . S
C4615 C4611 1.495 . S
C4615 H4621 0.959 . S
C4615 H4622 0.961 . S
C4615 H4623 0.960 . S
C4616 C4614 1.381 . S
C4616 C4617 1.394 . S
C4616 H4624 0.930 . S
C4617 C4616 1.394 . S
C4617 C4618 1.383 . S
C4617 H4625 0.929 . S
C4618 C4617 1.383 . S
C4618 C4619 1.377 . S
C4619 H4603 0.930 . S
C4619 C4618 1.377 . S
C4619 C4620 1.379 . S
C4620 H4604 0.931 . S
C4620 C4614 1.383 . S
C4620 C4619 1.379 . S
H4621 C4615 0.959 . S
H4622 C4615 0.961 . S
H4623 C4615 0.960 . S
H4624 C4616 0.930 . S
H4625 C4617 0.929 . S
H4626 C4634 0.929 . S
H4627 C4636 0.930 . S
H4628 C4638 0.930 . S
H4629 C4641 0.929 . S
H4630 C4644 0.930 . S
H4631 C4646 0.960 . S
H4632 C4646 0.960 . S
H4633 C4646 0.960 . S
C4634 H4626 0.929 . S
C4634 C4635 1.377 . S
C4634 C4636 1.384 . S
C4635 C4634 1.377 . S
C4635 C4641 1.390 . S
C4636 H4627 0.930 . S
C4636 C4634 1.384 . S
C4636 C4637 1.372 . S
C4637 C4636 1.372 . S
C4637 C4638 1.400 . S
C4637 C4642 1.490 . S
C4638 H4628 0.930 . S
C4638 C4637 1.400 . S
C4638 C4641 1.386 . S
H4639 C4655 0.930 . S
H4640 C4656 0.931 . S
C4641 H4629 0.929 . S
C4641 C4635 1.390 . S
C4641 C4638 1.386 . S
C4642 C4637 1.490 . S
C4642 C4644 1.395 . S
C4642 C4645 1.403 . S
H4643 C4649 0.930 . S
C4644 H4630 0.930 . S
C4644 C4642 1.395 . S
C4644 C4647 1.403 . S
C4645 C4642 1.403 . S
C4645 C4646 1.524 . S
C4645 C4649 1.400 . S
C4646 H4631 0.960 . S
C4646 H4632 0.960 . S
C4646 H4633 0.960 . S
C4646 C4645 1.524 . S
C4647 C4644 1.403 . S
C4647 C4648 1.392 . S
C4647 C4651 1.495 . S
C4648 C4647 1.392 . S
C4648 C4649 1.385 . S
C4648 C4650 1.478 . S
C4649 H4643 0.930 . S
C4649 C4645 1.400 . S
C4649 C4648 1.385 . S
C4650 C4648 1.478 . S
C4650 C4652 1.381 . S
C4650 C4656 1.383 . S
C4651 C4647 1.495 . S
C4651 H4657 0.959 . S
C4651 H4658 0.961 . S
C4651 H4659 0.960 . S
C4652 C4650 1.381 . S
C4652 C4653 1.394 . S
C4652 H4660 0.930 . S
C4653 C4652 1.394 . S
C4653 C4654 1.383 . S
C4653 H4661 0.929 . S
C4654 C4653 1.383 . S
C4654 C4655 1.377 . S
C4655 H4639 0.930 . S
C4655 C4654 1.377 . S
C4655 C4656 1.379 . S
C4656 H4640 0.931 . S
C4656 C4650 1.383 . S
C4656 C4655 1.379 . S
H4657 C4651 0.959 . S
H4658 C4651 0.961 . S
H4659 C4651 0.960 . S
H4660 C4652 0.930 . S
H4661 C4653 0.929 . S
H4662 C4670 0.929 . S
H4663 C4672 0.930 . S
H4664 C4674 0.930 . S
H4665 C4677 0.929 . S
H4666 C4680 0.930 . S
H4667 C4682 0.960 . S
H4668 C4682 0.960 . S
H4669 C4682 0.960 . S
C4670 H4662 0.929 . S
C4670 C4671 1.377 . S
C4670 C4672 1.384 . S
C4671 C4670 1.377 . S
C4671 C4677 1.390 . S
C4672 H4663 0.930 . S
C4672 C4670 1.384 . S
C4672 C4673 1.372 . S
C4673 C4672 1.372 . S
C4673 C4674 1.400 . S
C4673 C4678 1.490 . S
C4674 H4664 0.930 . S
C4674 C4673 1.400 . S
C4674 C4677 1.386 . S
H4675 C4691 0.930 . S
H4676 C4692 0.931 . S
C4677 H4665 0.929 . S
C4677 C4671 1.390 . S
C4677 C4674 1.386 . S
C4678 C4673 1.490 . S
C4678 C4680 1.395 . S
C4678 C4681 1.403 . S
H4679 C4685 0.930 . S
C4680 H4666 0.930 . S
C4680 C4678 1.395 . S
C4680 C4683 1.403 . S
C4681 C4678 1.403 . S
C4681 C4682 1.524 . S
C4681 C4685 1.400 . S
C4682 H4667 0.960 . S
C4682 H4668 0.960 . S
C4682 H4669 0.960 . S
C4682 C4681 1.524 . S
C4683 C4680 1.403 . S
C4683 C4684 1.392 . S
C4683 C4687 1.495 . S
C4684 C4683 1.392 . S
C4684 C4685 1.385 . S
C4684 C4686 1.478 . S
C4685 H4679 0.930 . S
C4685 C4681 1.400 . S
C4685 C4684 1.385 . S
C4686 C4684 1.478 . S
C4686 C4688 1.381 . S
C4686 C4692 1.383 . S
C4687 C4683 1.495 . S
C4687 H4693 0.959 . S
C4687 H4694 0.961 . S
C4687 H4695 0.960 . S
C4688 C4686 1.381 . S
C4688 C4689 1.394 . S
C4688 H4696 0.930 . S
C4689 C4688 1.394 . S
C4689 C4690 1.383 . S
C4689 H4697 0.929 . S
C4690 C4689 1.383 . S
C4690 C4691 1.377 . S
C4691 H4675 0.930 . S
C4691 C4690 1.377 . S
C4691 C4692 1.379 . S
C4692 H4676 0.931 . S
C4692 C4686 1.383 . S
C4692 C4691 1.379 . S
H4693 C4687 0.959 . S
H4694 C4687 0.961 . S
H4695 C4687 0.960 . S
H4696 C4688 0.930 . S
H4697 C4689 0.929 . S
H4698 C4706 0.929 . S
H4699 C4708 0.930 . S
H4700 C4710 0.930 . S
H4701 C4713 0.929 . S
H4702 C4716 0.930 . S
H4703 C4718 0.960 . S
H4704 C4718 0.960 . S
H4705 C4718 0.960 . S
C4706 H4698 0.929 . S
C4706 C4707 1.377 . S
C4706 C4708 1.384 . S
C4707 C4706 1.377 . S
C4707 C4713 1.390 . S
C4708 H4699 0.930 . S
C4708 C4706 1.384 . S
C4708 C4709 1.372 . S
C4709 C4708 1.372 . S
C4709 C4710 1.400 . S
C4709 C4714 1.490 . S
C4710 H4700 0.930 . S
C4710 C4709 1.400 . S
C4710 C4713 1.386 . S
H4711 C4727 0.930 . S
H4712 C4728 0.931 . S
C4713 H4701 0.929 . S
C4713 C4707 1.390 . S
C4713 C4710 1.386 . S
C4714 C4709 1.490 . S
C4714 C4716 1.395 . S
C4714 C4717 1.403 . S
H4715 C4721 0.930 . S
C4716 H4702 0.930 . S
C4716 C4714 1.395 . S
C4716 C4719 1.403 . S
C4717 C4714 1.403 . S
C4717 C4718 1.524 . S
C4717 C4721 1.400 . S
C4718 H4703 0.960 . S
C4718 H4704 0.960 . S
C4718 H4705 0.960 . S
C4718 C4717 1.524 . S
C4719 C4716 1.403 . S
C4719 C4720 1.392 . S
C4719 C4723 1.495 . S
C4720 C4719 1.392 . S
C4720 C4721 1.385 . S
C4720 C4722 1.478 . S
C4721 H4715 0.930 . S
C4721 C4717 1.400 . S
C4721 C4720 1.385 . S
C4722 C4720 1.478 . S
C4722 C4724 1.381 . S
C4722 C4728 1.383 . S
C4723 C4719 1.495 . S
C4723 H4729 0.959 . S
C4723 H4730 0.961 . S
C4723 H4731 0.960 . S
C4724 C4722 1.381 . S
C4724 C4725 1.394 . S
C4724 H4732 0.930 . S
C4725 C4724 1.394 . S
C4725 C4726 1.383 . S
C4725 H4733 0.929 . S
C4726 C4725 1.383 . S
C4726 C4727 1.377 . S
C4727 H4711 0.930 . S
C4727 C4726 1.377 . S
C4727 C4728 1.379 . S
C4728 H4712 0.931 . S
C4728 C4722 1.383 . S
C4728 C4727 1.379 . S
H4729 C4723 0.959 . S
H4730 C4723 0.961 . S
H4731 C4723 0.960 . S
H4732 C4724 0.930 . S
H4733 C4725 0.929 . S
H4734 C4742 0.929 . S
H4735 C4744 0.930 . S
H4736 C4746 0.930 . S
H4737 C4749 0.929 . S
H4738 C4752 0.930 . S
H4739 C4754 0.960 . S
H4740 C4754 0.960 . S
H4741 C4754 0.960 . S
C4742 H4734 0.929 . S
C4742 C4743 1.377 . S
C4742 C4744 1.384 . S
C4743 C4742 1.377 . S
C4743 C4749 1.390 . S
C4744 H4735 0.930 . S
C4744 C4742 1.384 . S
C4744 C4745 1.372 . S
C4745 C4744 1.372 . S
C4745 C4746 1.400 . S
C4745 C4750 1.490 . S
C4746 H4736 0.930 . S
C4746 C4745 1.400 . S
C4746 C4749 1.386 . S
H4747 C4763 0.930 . S
H4748 C4764 0.931 . S
C4749 H4737 0.929 . S
C4749 C4743 1.390 . S
C4749 C4746 1.386 . S
C4750 C4745 1.490 . S
C4750 C4752 1.395 . S
C4750 C4753 1.403 . S
H4751 C4757 0.930 . S
C4752 H4738 0.930 . S
C4752 C4750 1.395 . S
C4752 C4755 1.403 . S
C4753 C4750 1.403 . S
C4753 C4754 1.524 . S
C4753 C4757 1.400 . S
C4754 H4739 0.960 . S
C4754 H4740 0.960 . S
C4754 H4741 0.960 . S
C4754 C4753 1.524 . S
C4755 C4752 1.403 . S
C4755 C4756 1.392 . S
C4755 C4759 1.495 . S
C4756 C4755 1.392 . S
C4756 C4757 1.385 . S
C4756 C4758 1.478 . S
C4757 H4751 0.930 . S
C4757 C4753 1.400 . S
C4757 C4756 1.385 . S
C4758 C4756 1.478 . S
C4758 C4760 1.381 . S
C4758 C4764 1.383 . S
C4759 C4755 1.495 . S
C4759 H4765 0.959 . S
C4759 H4766 0.961 . S
C4759 H4767 0.960 . S
C4760 C4758 1.381 . S
C4760 C4761 1.394 . S
C4760 H4768 0.930 . S
C4761 C4760 1.394 . S
C4761 C4762 1.383 . S
C4761 H4769 0.929 . S
C4762 C4761 1.383 . S
C4762 C4763 1.377 . S
C4763 H4747 0.930 . S
C4763 C4762 1.377 . S
C4763 C4764 1.379 . S
C4764 H4748 0.931 . S
C4764 C4758 1.383 . S
C4764 C4763 1.379 . S
H4765 C4759 0.959 . S
H4766 C4759 0.961 . S
H4767 C4759 0.960 . S
H4768 C4760 0.930 . S
H4769 C4761 0.929 . S
H4770 C4778 0.929 . S
H4771 C4780 0.930 . S
H4772 C4782 1.014 . S
H4773 C4785 0.929 . S
H4774 C4788 0.930 . S
H4775 C4790 0.960 . S
H4776 C4790 0.960 . S
H4777 C4790 0.960 . S
C4778 H4770 0.929 . S
C4778 C4779 1.377 . S
C4778 C4780 1.384 . S
C4779 C4778 1.377 . S
C4779 C4785 1.390 . S
C4780 H4771 0.930 . S
C4780 C4778 1.384 . S
C4780 C4781 1.372 . S
C4781 C4780 1.372 . S
C4781 C4782 1.400 . S
C4781 C4786 1.490 . S
C4782 H4772 1.014 . S
C4782 C4781 1.400 . S
C4782 C4785 1.386 . S
H4783 C4799 0.930 . S
H4784 C4800 0.918 1_455 S
C4785 H4773 0.929 . S
C4785 C4779 1.390 . S
C4785 C4782 1.386 . S
C4786 C4781 1.490 . S
C4786 C4788 1.395 . S
C4786 C4789 1.403 . S
H4787 C4793 0.930 1_455 S
C4788 H4774 0.930 . S
C4788 C4786 1.395 . S
C4788 C4791 1.403 . S
C4789 C4786 1.403 . S
C4789 C4790 1.524 1_655 S
C4789 C4793 1.400 . S
C4790 H4775 0.960 . S
C4790 H4776 0.960 . S
C4790 H4777 0.960 . S
C4790 C4789 1.524 1_455 S
C4791 C4788 1.403 . S
C4791 C4792 1.392 . S
C4791 C4795 1.495 . S
C4792 C4791 1.392 . S
C4792 C4793 1.385 . S
C4792 C4794 1.478 . S
C4793 H4787 0.930 1_655 S
C4793 C4789 1.400 . S
C4793 C4792 1.385 . S
C4794 C4792 1.478 . S
C4794 C4796 1.381 . S
C4794 C4800 1.418 . S
C4795 C4791 1.495 . S
C4795 H4801 0.959 . S
C4795 H4802 0.961 . S
C4795 H4803 0.960 . S
C4796 C4794 1.381 . S
C4796 C4797 1.394 . S
C4796 H4804 0.930 . S
C4797 C4796 1.394 . S
C4797 C4798 1.383 . S
C4797 H4805 0.929 . S
C4798 C4797 1.383 . S
C4798 C4799 1.377 1_655 S
C4799 H4783 0.930 . S
C4799 C4798 1.377 1_455 S
C4799 C4800 1.358 1_455 S
C4800 H4784 0.918 1_655 S
C4800 C4794 1.418 . S
C4800 C4799 1.358 1_655 S
H4801 C4795 0.959 . S
H4802 C4795 0.961 . S
H4803 C4795 0.960 . S
H4804 C4796 0.930 . S
H4805 C4797 0.929 . S
H4806 C4814 0.929 . S
H4807 C4816 0.930 . S
H4808 C4818 0.930 . S
H4809 C4821 0.929 . S
H4810 C4824 0.930 . S
H4811 C4826 0.960 . S
H4812 C4826 0.960 . S
H4813 C4826 0.960 . S
C4814 H4806 0.929 . S
C4814 C4815 1.377 . S
C4814 C4816 1.384 . S
C4815 C4814 1.377 . S
C4815 C4821 1.390 . S
C4816 H4807 0.930 . S
C4816 C4814 1.384 . S
C4816 C4817 1.372 . S
C4817 C4816 1.372 . S
C4817 C4818 1.400 . S
C4817 C4822 1.490 . S
C4818 H4808 0.930 . S
C4818 C4817 1.400 . S
C4818 C4821 1.386 . S
H4819 C4835 0.930 . S
H4820 C4836 0.931 . S
C4821 H4809 0.929 . S
C4821 C4815 1.390 . S
C4821 C4818 1.386 . S
C4822 C4817 1.490 . S
C4822 C4824 1.395 . S
C4822 C4825 1.403 . S
H4823 C4829 0.930 . S
C4824 H4810 0.930 . S
C4824 C4822 1.395 . S
C4824 C4827 1.403 . S
C4825 C4822 1.403 . S
C4825 C4826 1.524 . S
C4825 C4829 1.400 . S
C4826 H4811 0.960 . S
C4826 H4812 0.960 . S
C4826 H4813 0.960 . S
C4826 C4825 1.524 . S
C4827 C4824 1.403 . S
C4827 C4828 1.392 . S
C4827 C4831 1.495 . S
C4828 C4827 1.392 . S
C4828 C4829 1.385 . S
C4828 C4830 1.478 . S
C4829 H4823 0.930 . S
C4829 C4825 1.400 . S
C4829 C4828 1.385 . S
C4830 C4828 1.478 . S
C4830 C4832 1.381 . S
C4830 C4836 1.383 . S
C4831 C4827 1.495 . S
C4831 H4837 0.959 . S
C4831 H4838 0.961 . S
C4831 H4839 0.960 . S
C4832 C4830 1.381 . S
C4832 C4833 1.394 . S
C4832 H4840 0.930 . S
C4833 C4832 1.394 . S
C4833 C4834 1.383 . S
C4833 H4841 0.929 . S
C4834 C4833 1.383 . S
C4834 C4835 1.377 . S
C4835 H4819 0.930 . S
C4835 C4834 1.377 . S
C4835 C4836 1.379 . S
C4836 H4820 0.931 . S
C4836 C4830 1.383 . S
C4836 C4835 1.379 . S
H4837 C4831 0.959 . S
H4838 C4831 0.961 . S
H4839 C4831 0.960 . S
H4840 C4832 0.930 . S
H4841 C4833 0.929 . S
H4842 C4850 0.929 . S
H4843 C4852 0.930 . S
H4844 C4854 0.930 . S
H4845 C4857 0.929 . S
H4846 C4860 0.930 . S
H4847 C4862 0.950 . S
H4848 C4862 1.045 . S
H4849 C4862 0.912 1_545 S
C4850 H4842 0.929 . S
C4850 C4851 1.377 . S
C4850 C4852 1.384 . S
C4851 C4850 1.377 . S
C4851 C4857 1.390 . S
C4852 H4843 0.930 . S
C4852 C4850 1.384 . S
C4852 C4853 1.372 . S
C4853 C4852 1.372 . S
C4853 C4854 1.400 . S
C4853 C4858 1.490 . S
C4854 H4844 0.930 . S
C4854 C4853 1.400 . S
C4854 C4857 1.386 . S
H4855 C4871 0.930 . S
H4856 C4872 0.931 . S
C4857 H4845 0.929 . S
C4857 C4851 1.390 . S
C4857 C4854 1.386 . S
C4858 C4853 1.490 . S
C4858 C4860 1.395 . S
C4858 C4861 1.403 . S
H4859 C4865 0.936 1_565 S
C4860 H4846 0.930 . S
C4860 C4858 1.395 . S
C4860 C4863 1.403 . S
C4861 C4858 1.403 . S
C4861 C4862 1.507 1_545 S
C4861 C4865 1.400 . S
C4862 H4847 0.950 . S
C4862 H4848 1.045 . S
C4862 H4849 0.912 1_565 S
C4862 C4861 1.507 1_565 S
C4863 C4860 1.403 . S
C4863 C4864 1.392 . S
C4863 C4867 1.495 . S
C4864 C4863 1.392 . S
C4864 C4865 1.385 . S
C4864 C4866 1.478 . S
C4865 H4859 0.936 1_545 S
C4865 C4861 1.400 . S
C4865 C4864 1.385 . S
C4866 C4864 1.478 . S
C4866 C4868 1.381 1_545 S
C4866 C4872 1.383 . S
C4867 C4863 1.495 . S
C4867 H4873 0.959 . S
C4867 H4874 0.961 . S
C4867 H4875 0.960 . S
C4868 C4866 1.381 1_565 S
C4868 C4869 1.394 . S
C4868 H4876 0.930 . S
C4869 C4868 1.394 . S
C4869 C4870 1.315 1_565 S
C4869 H4877 0.929 . S
C4870 C4869 1.315 1_545 S
C4870 C4871 1.426 . S
C4871 H4855 0.930 . S
C4871 C4870 1.426 . S
C4871 C4872 1.379 . S
C4872 H4856 0.931 . S
C4872 C4866 1.383 . S
C4872 C4871 1.379 . S
H4873 C4867 0.959 . S
H4874 C4867 0.961 . S
H4875 C4867 0.960 . S
H4876 C4868 0.930 . S
H4877 C4869 0.929 . S
C2295 C8 1.204 . S
C2314 C1289 1.067 1_655 S
C2331 C18 1.521 . S
C2350 C1429 1.011 . S
C2386 C1517 1.161 . S
C2367 C31 1.237 . S
C2403 C34 1.349 . S
C2422 C1657 0.968 1_565 S
C2439 C5 1.285 . S
C2458 C1771 0.974 . S
C2475 C21 1.575 . S
C2494 C1859 1.163 . S
C2511 C47 1.150 . S
C2530 C1745 0.982 1_655 S
C2566 C1885 1.228 . S
C2547 C57 1.441 . S
C2602 C1631 1.080 . S
C2583 C70 1.278 . S
C2619 C73 1.258 . S
C2638 C1543 0.897 . S
C2674 C1315 1.092 . S
C2655 C44 1.308 . S
C2691 C60 1.482 . S
C2710 C1403 1.391 . S
C2727 C86 1.640 . S
C2746 C1973 1.202 . S
C2763 C96 1.615 . S
C2782 C2113 1.025 . S
C2818 C2201 1.314 . S
C2799 C109 1.662 . S
C2835 C112 1.742 . S
C2854 C289 1.189 . S
C2871 C83 1.739 . S
C2890 C403 1.229 . S
C2907 C99 1.672 . S
C2926 C491 1.339 . S
C2943 C125 1.368 . S
C2962 C377 1.200 . S
C2979 C135 1.543 . S
C2998 C517 1.356 . S
C3034 C263 1.490 . S
C3015 C148 1.610 . S
C3070 C2227 1.535 . S
C3051 C151 1.811 . S
C3106 C1999 1.338 . S
C3087 C122 1.590 . S
C3142 C2087 1.496 . S
C3123 C138 1.614 . S
C3159 C164 1.471 . S
C3178 C605 1.155 . S
C3195 C174 1.611 . S
C3214 C745 1.073 . S
C3231 C187 1.692 . S
C3250 C833 1.235 . S
C3267 C190 1.897 . S
C3286 C973 1.337 . S
C3322 C1087 1.134 . S
C3303 C161 1.716 . S
C3358 C1175 1.355 . S
C3339 C177 1.715 . S
C3394 C1061 1.398 . S
C3375 C203 1.560 . S
C3430 C1201 1.257 . S
C3411 C213 1.543 . S
C3447 C226 1.555 . S
C3466 C947 1.439 . S
C3502 C859 1.381 . S
C3483 C229 1.628 . S
C3519 C200 1.651 . S
C3538 C631 1.422 . S
C3574 C719 1.449 . S
C3555 C216 1.585 . S
C3610 C245 0.975 . S
C3591 C0 1.626 . S
C3627 C23 1.491 . S
C3646 C359 0.848 . S
C3682 C463 1.230 . S
C3663 C36 1.629 . S
C3718 C577 1.181 . S
C3699 C26 1.472 . S
C3754 C701 0.902 . S
C3735 C10 1.660 . S
C3790 C805 1.134 . S
C3771 C13 1.477 1_556 S
C3807 C39 1.721 . S
C3826 C815 1.389 . S
C3843 C62 1.571 . S
C3862 C587 1.208 . S
C3879 C75 1.695 1_556 S
C3898 C691 1.423 . S
C3915 C65 1.601 . S
C3934 C349 1.460 . S
C3970 C473 1.281 . S
C3951 C49 1.761 . S
C3987 C52 1.565 . S
C4006 C235 1.461 . S
C4042 C929 0.951 . S
C4023 C78 1.543 . S
C4059 C101 1.678 . S
C4078 C1043 0.948 . S
C4095 C114 1.664 1_655 S
C4114 C1147 1.305 . S
C4150 C1261 0.905 . S
C4131 C104 1.039 . S
C4167 C88 1.508 . S
C4186 C1385 0.790 . S
C4203 C91 1.047 . S
C4222 C1489 0.843 . S
C4239 C117 1.210 . S
C4258 C1499 0.725 1_565 S
C4275 C140 1.112 . S
C4294 C1271 0.770 . S
C4330 C1375 1.370 . S
C4311 C153 1.577 . S
C4347 C143 1.501 . S
C4366 C1033 1.354 . S
C4383 C127 1.788 . S
C4402 C1157 1.359 . S
C4438 C919 1.560 . S
C4419 C130 1.741 . S
C4474 C1613 0.811 . S
C4455 C156 1.225 . S
C4491 C179 1.085 . S
C4510 C1727 0.692 . S
C4527 C192 1.480 . S
C4546 C1831 1.069 . S
C4582 C1945 0.995 . S
C4563 C182 1.364 . S
C4618 C2069 0.959 . S
C4599 C166 1.654 1_565 S
C4635 C169 1.652 . S
C4654 C2173 1.288 . S
C4671 C195 1.644 . S
C4690 C2183 1.261 . S
C4707 C218 1.740 1_565 S
C4726 C1955 1.362 . S
C4762 C2059 1.476 . S
C4743 C231 1.720 1_455 S
C4798 C1717 0.893 1_655 S
C4779 C221 1.021 . S
C4834 C1841 1.138 . S
C4815 C205 1.618 . S
C4851 C208 1.091 . S
C4870 C1603 1.024 1_545 S
