# Generated by pormake.
# Topology rtl, (3,6)-cn, num edge types: 1
# Building blocks:
#     Node 0, Type 0, BuildingBlock: PAMTOO_clean_linker_0, # of connection points: 3
#     Node 1, Type 0, BuildingBlock: PAMTOO_clean_linker_0, # of connection points: 3
#     Node 2, Type 0, BuildingBlock: PAMTOO_clean_linker_0, # of connection points: 3
#     Node 3, Type 0, BuildingBlock: PAMTOO_clean_linker_0, # of connection points: 3
#     Node 4, Type 1, BuildingBlock: FUNLAD_clean_sbu_0, # of connection points: 6
#     Node 5, Type 1, BuildingBlock: FUNLAD_clean_sbu_0, # of connection points: 6
#     Edge 6, Type (0, 1), BuildingBlock: EZIPEK_clean_linker_0, # of connection points: 2
#     Edge 7, Type (0, 1), BuildingBlock: EZIPEK_clean_linker_0, # of connection points: 2
#     Edge 8, Type (0, 1), BuildingBlock: EZIPEK_clean_linker_0, # of connection points: 2
#     Edge 9, Type (0, 1), BuildingBlock: EZIPEK_clean_linker_0, # of connection points: 2
#     Edge 10, Type (0, 1), BuildingBlock: EZIPEK_clean_linker_0, # of connection points: 2
#     Edge 11, Type (0, 1), BuildingBlock: EZIPEK_clean_linker_0, # of connection points: 2
#     Edge 12, Type (0, 1), BuildingBlock: EZIPEK_clean_linker_0, # of connection points: 2
#     Edge 13, Type (0, 1), BuildingBlock: EZIPEK_clean_linker_0, # of connection points: 2
#     Edge 14, Type (0, 1), BuildingBlock: EZIPEK_clean_linker_0, # of connection points: 2
#     Edge 15, Type (0, 1), BuildingBlock: EZIPEK_clean_linker_0, # of connection points: 2
#     Edge 16, Type (0, 1), BuildingBlock: EZIPEK_clean_linker_0, # of connection points: 2
#     Edge 17, Type (0, 1), BuildingBlock: EZIPEK_clean_linker_0, # of connection points: 2
# Relax obj value: 0.003
# Max RMSD: 0.035
# Mean RMSD: 0.027
data_MOF--net-rtl--node1-FUNLAD_clean_sbu_0--node2-PAMTOO_clean_linker_0--edge1-EZIPEK_clean_linker_0
_symmetry_space_group_name_H-M    P1
_symmetry_Int_Tables_number       1
_symmetry_cell_setting            triclinic
loop_
_symmetry_equiv_pos_as_xyz
'x, y, z'
_cell_length_a     30.379877
_cell_length_b     30.511619
_cell_length_c     15.255901
_cell_angle_alpha  92.665382
_cell_angle_beta   90.993465
_cell_angle_gamma 89.998925
loop_
_atom_site_label
_atom_site_type_symbol
_atom_site_fract_x
_atom_site_fract_y
_atom_site_fract_z
_atom_type_partial_charge
H0 H 0.10001 0.91809 -0.00316 0.0
H1 H 0.19162 0.83848 0.13698 0.0
H2 H 0.18679 0.83018 0.85463 0.0
H3 H 0.19438 0.74472 0.94563 0.0
C4 C 0.21691 0.7563 2e-05 0.0
O5 O 0.22533 0.80055 -0.0045 0.0
H6 H 0.19829 0.74995 0.06025 0.0
C7 C 0.12597 0.89365 -0.00348 0.0
C8 C 0.14175 0.87648 0.91637 0.0
C9 C 0.14324 0.87984 0.07626 0.0
C10 C 0.17741 0.84887 0.07571 0.0
C11 C 0.19275 0.83066 -0.00422 0.0
C12 C 0.17475 0.84424 0.91617 0.0
H13 H 0.59278 0.60297 0.5213 0.0
H14 H 0.68767 0.67622 0.3819 0.0
H15 H 0.69213 0.67873 0.66417 0.0
H16 H 0.70223 0.76711 0.58069 0.0
C17 C 0.72093 0.75508 0.52241 0.0
O18 O 0.72706 0.71031 0.52365 0.0
H19 H 0.69944 0.76334 0.46575 0.0
C20 C 0.6205 0.62542 0.52187 0.0
C21 C 0.64037 0.63913 0.60187 0.0
C22 C 0.6377 0.63795 0.44238 0.0
C23 C 0.67397 0.66644 0.44311 0.0
C24 C 0.69271 0.6822 0.5232 0.0
C25 C 0.67644 0.66792 0.60259 0.0
H26 H 0.92211 0.09574 0.01406 0.0
H27 H 0.84727 0.19135 0.87642 0.0
H28 H 0.83639 0.18475 0.15628 0.0
H29 H 0.75266 0.19869 0.06044 0.0
C30 C 0.76497 0.21928 0.00781 0.0
O31 O 0.80976 0.22563 0.01731 0.0
H32 H 0.75718 0.19998 0.94584 0.0
C33 C 0.89861 0.12253 0.01475 0.0
C34 C 0.8813 0.1383 0.09462 0.0
C35 C 0.88619 0.141 0.93578 0.0
C36 C 0.85653 0.17627 0.93694 0.0
C37 C 0.83835 0.19175 0.01639 0.0
C38 C 0.85045 0.17258 0.09507 0.0
H39 H 0.42782 0.40986 0.48364 0.0
H40 H 0.34157 0.32622 0.62132 0.0
H41 H 0.33578 0.32581 0.33924 0.0
H42 H 0.24999 0.31513 0.42401 0.0
C43 C 0.26108 0.29726 0.48229 0.0
O44 O 0.30566 0.28907 0.47878 0.0
H45 H 0.25346 0.31999 0.5391 0.0
C46 C 0.40219 0.38504 0.48258 0.0
C47 C 0.38355 0.36996 0.40232 0.0
C48 C 0.38667 0.37027 0.56172 0.0
C49 C 0.35359 0.33816 0.56038 0.0
C50 C 0.33592 0.32149 0.48004 0.0
C51 C 0.35033 0.33792 0.40104 0.0
C52 C 0.05469 0.96201 0.37324 0.0
N53 N 0.08351 0.08038 0.50903 0.0
C54 C 0.127 0.06956 0.50996 0.0
C55 C 0.15915 0.10222 0.50708 0.0
C56 C 0.14618 0.14617 0.50332 0.0
C57 C 0.10132 0.15658 0.50337 0.0
C58 C 0.07032 0.12296 0.50625 0.0
Zn59 Zn 0.03638 0.03234 0.50784 0.0
C60 C 0.96303 0.0506 0.38204 0.0
N61 N 0.93718 0.93346 0.50151 0.0
C62 C 0.94862 0.89037 0.4917 0.0
C63 C 0.89446 0.94569 0.51275 0.0
C64 C 0.86137 0.91406 0.51539 0.0
C65 C 0.87243 0.86957 0.50595 0.0
C66 C 0.91649 0.85764 0.49349 0.0
Zn67 Zn 0.98478 0.98109 0.50286 0.0
O68 O 0.07183 0.99502 0.41442 0.0
C69 C 0.05709 0.96179 0.62856 0.0
O70 O 0.01649 0.94915 0.39358 0.0
H71 H 0.88603 0.98005 0.5203 0.0
H72 H 0.13677 0.03555 0.51202 0.0
H73 H 0.98273 0.88134 0.4832 0.0
O74 O 0.06976 1.00005 0.61044 0.0
O75 O 0.02362 0.94501 0.58893 0.0
H76 H 0.03566 0.13088 0.50548 0.0
O77 O 0.95456 0.01448 0.61225 0.0
O78 O 1.00067 0.06928 0.60136 0.0
O79 O 0.94633 0.01763 0.41679 0.0
O80 O 1.00159 0.06321 0.40519 0.0
C81 C 0.96781 0.05261 0.63766 0.0
H82 H 0.19367 0.09335 0.5071 0.0
H83 H 0.09047 0.19031 0.50049 0.0
H84 H 0.82753 0.92413 0.52494 0.0
H85 H 0.92587 0.82344 0.48604 0.0
C86 C 0.46924 0.45915 0.86513 0.0
N87 N 0.58661 0.43575 0.00447 0.0
C88 C 0.57465 0.39269 0.00041 0.0
C89 C 0.60656 0.35985 0.00172 0.0
C90 C 0.6511 0.37153 0.0074 0.0
C91 C 0.66282 0.416 0.01165 0.0
C92 C 0.62976 0.44787 0.01005 0.0
Zn93 Zn 0.53794 0.48213 0.00257 0.0
C94 C 0.55636 0.55246 0.88281 0.0
N95 N 0.43346 0.57603 -0.00012 0.0
C96 C 0.39071 0.56275 -0.00792 0.0
C97 C 0.44418 0.61941 0.00662 0.0
C98 C 0.41126 0.65136 0.00613 0.0
C99 C 0.36709 0.63839 -0.00184 0.0
C100 C 0.35678 0.59363 -0.00912 0.0
Zn101 Zn 0.48259 0.53006 0.00175 0.0
O102 O 0.50622 0.44681 0.89545 0.0
C103 C 0.46418 0.45973 0.12159 0.0
O104 O 0.45128 0.49341 0.89873 0.0
H105 H 0.47831 0.62926 0.0125 0.0
H106 H 0.54027 0.38375 -0.0037 0.0
H107 H 0.38289 0.52814 0.98691 0.0
O108 O 0.50182 0.447 0.09554 0.0
O109 O 0.44744 0.49419 0.09152 0.0
H110 H 0.63855 0.48226 0.01336 0.0
O111 O 0.51472 0.56564 0.10863 0.0
O112 O 0.56908 0.51824 0.10579 0.0
O113 O 0.51857 0.56516 0.90823 0.0
O114 O 0.57314 0.51812 0.91342 0.0
C115 C 0.55149 0.55274 0.13915 0.0
H116 H 0.59666 0.3257 -0.00155 0.0
H117 H 0.69707 0.42584 0.01613 0.0
H118 H 0.42008 0.68579 0.01181 0.0
H119 H 0.32287 0.58277 0.98474 0.0
C120 C 0.22298 0.23021 0.40963 0.0
C121 C 0.23634 0.25417 0.48774 0.0
C122 C 0.19669 0.20231 0.5763 0.0
C123 C 0.17949 0.18146 0.49801 0.0
N124 N 0.174 0.17562 0.34014 0.0
N125 N 0.25003 0.25302 0.64395 0.0
C126 C 0.19239 0.19513 0.4146 0.0
C127 C 0.22736 0.23727 0.57089 0.0
N128 N 0.24145 0.23946 0.33145 0.0
N129 N 0.18224 0.18979 0.65581 0.0
H130 H 0.27459 0.27677 0.64198 0.0
H131 H 0.2482 0.23939 0.70505 0.0
H132 H 0.16102 0.16332 0.66251 0.0
H133 H 0.18889 0.20717 0.71487 0.0
H134 H 0.23638 0.22068 0.27347 0.0
H135 H 0.26581 0.26317 0.32584 0.0
H136 H 0.17735 0.18758 0.27783 0.0
H137 H 0.15286 0.14869 0.34098 0.0
C138 C 0.2784 0.71596 0.91704 0.0
C139 C 0.26004 0.73092 -0.00168 0.0
C140 C 0.31448 0.68832 0.07883 0.0
C141 C 0.3315 0.67172 -0.00199 0.0
N142 N 0.33619 0.67486 0.84106 0.0
N143 N 0.2717 0.74495 0.15405 0.0
C144 C 0.31539 0.68715 0.91718 0.0
C145 C 0.2815 0.72128 0.0786 0.0
N146 N 0.26042 0.72934 0.83994 0.0
N147 N 0.329 0.67172 0.15588 0.0
H148 H 0.24966 0.77116 0.15565 0.0
H149 H 0.28911 0.74216 0.21292 0.0
H150 H 0.35402 0.6484 0.15912 0.0
H151 H 0.31408 0.67864 0.21589 0.0
H152 H 0.26779 0.71542 0.77844 0.0
H153 H 0.2375 0.75468 0.83704 0.0
H154 H 0.32914 0.68771 0.78048 0.0
H155 H 0.36279 0.65324 0.83897 0.0
C156 C 0.78241 0.78792 0.43542 0.0
C157 C 0.7652 0.77817 0.51823 0.0
C158 C 0.82588 0.81954 0.59202 0.0
C159 C 0.83764 0.83559 0.50974 0.0
N160 N 0.82707 0.83664 0.35288 0.0
N161 N 0.77474 0.77731 0.67547 0.0
C162 C 0.81615 0.81992 0.43124 0.0
C163 C 0.78852 0.79146 0.59673 0.0
N164 N 0.76765 0.76537 0.36113 0.0
N165 N 0.85094 0.83079 0.66503 0.0
H166 H 0.75137 0.75256 0.68048 0.0
H167 H 0.78614 0.7898 0.73624 0.0
H168 H 0.87802 0.85175 0.66371 0.0
H169 H 0.84687 0.81777 0.72613 0.0
H170 H 0.78171 0.76818 0.29988 0.0
H171 H 0.74473 0.73997 0.36223 0.0
H172 H 0.80894 0.83059 0.29502 0.0
H173 H 0.85262 0.85908 0.34666 0.0
C174 C 0.73381 0.2849 0.93007 0.0
C175 C 0.74164 0.26339 0.00947 0.0
C176 C 0.69759 0.31887 0.08996 0.0
C177 C 0.6853 0.33685 0.00898 0.0
N178 N 0.68987 0.33722 0.85148 0.0
N179 N 0.74546 0.26953 0.16761 0.0
C180 C 0.70338 0.32031 0.92895 0.0
C181 C 0.72785 0.28328 0.09048 0.0
N182 N 0.75715 0.27285 0.85697 0.0
N183 N 0.67887 0.33476 0.16592 0.0
H184 H 0.76954 0.24526 0.17028 0.0
H185 H 0.73998 0.28507 0.22858 0.0
H186 H 0.6581 0.362 0.16858 0.0
H187 H 0.68177 0.31969 0.22554 0.0
H188 H 0.7561 0.28975 0.79928 0.0
H189 H 0.78146 0.24874 0.85666 0.0
H190 H 0.69721 0.32311 0.79006 0.0
H191 H 0.66882 0.36414 0.84826 0.0
C192 C 0.12738 0.94546 0.17455 0.0
C193 C 0.12527 0.89934 0.15928 0.0
C194 C 0.08305 0.89367 0.29369 0.0
C195 C 0.0789 0.94008 0.29991 0.0
N196 N 0.08931 0.00953 0.23228 0.0
N197 N 0.09453 0.82973 0.19708 0.0
C198 C 0.0991 0.96593 0.23677 0.0
C199 C 0.10143 0.87333 0.217 0.0
N200 N 0.1566 0.9697 0.1299 0.0
N201 N 0.07115 0.86908 0.36203 0.0
H202 H 0.10666 0.81357 0.14085 0.0
H203 H 0.07341 0.81056 0.23245 0.0
H204 H 0.05964 0.88287 0.42109 0.0
H205 H 0.07732 0.83553 0.36365 0.0
H206 H 0.16209 1.003 0.14437 0.0
H207 H 0.17864 0.95553 0.08516 0.0
H208 H 0.10025 0.02859 0.18206 0.0
H209 H 0.06616 0.02547 0.27204 0.0
C210 C 0.62866 0.57324 0.68854 0.0
C211 C 0.62487 0.61925 0.68273 0.0
C212 C 0.5826 0.62263 0.81794 0.0
C213 C 0.57999 0.57597 0.81452 0.0
N214 N 0.59192 0.50773 0.7304 0.0
N215 N 0.59341 0.68781 0.73595 0.0
C216 C 0.60089 0.55137 0.74569 0.0
C217 C 0.60064 0.64413 0.746 0.0
N218 N 0.65877 0.55042 0.63912 0.0
N219 N 0.56947 0.64644 0.8908 0.0
H220 H 0.60645 0.70479 0.68461 0.0
H221 H 0.57175 0.70634 0.77478 0.0
H222 H 0.55769 0.63198 0.9461 0.0
H223 H 0.57464 0.68012 0.89984 0.0
H224 H 0.66525 0.51721 0.64627 0.0
H225 H 0.68063 0.56586 0.59847 0.0
H226 H 0.6036 0.48965 0.676 0.0
H227 H 0.56849 0.49089 0.76492 0.0
C228 C 0.89009 0.07192 0.18313 0.0
C229 C 0.89602 0.11771 0.17653 0.0
C230 C 0.93656 0.1202 0.3167 0.0
C231 C 0.93804 0.07364 0.31366 0.0
N232 N 0.92281 1.00513 0.23184 0.0
N233 N 0.93129 0.18485 0.23154 0.0
C234 C 0.91626 0.04931 0.24404 0.0
C235 C 0.92078 0.1419 0.24209 0.0
N236 N 0.8595 0.05004 0.13104 0.0
N237 N 0.94879 0.14371 0.39156 0.0
H238 H 0.92151 0.2019 0.1769 0.0
H239 H 0.95316 0.2023 0.27339 0.0
H240 H 0.95799 0.12889 0.44931 0.0
H241 H 0.94477 0.17759 0.39924 0.0
H242 H 0.85129 0.01728 0.13866 0.0
H243 H 0.83908 0.06594 0.08689 0.0
H244 H 0.91075 0.98703 0.17696 0.0
H245 H 0.94435 0.98734 0.2704 0.0
C246 C 0.39915 0.43697 0.65973 0.0
C247 C 0.40414 0.39109 0.64501 0.0
C248 C 0.44694 0.38839 0.78188 0.0
C249 C 0.44771 0.43513 0.78882 0.0
N250 N 0.43454 0.50316 0.7166 0.0
N251 N 0.43987 0.32389 0.68415 0.0
C252 C 0.42648 0.45934 0.72294 0.0
C253 C 0.42999 0.36687 0.70387 0.0
N254 N 0.36808 0.45922 0.61369 0.0
N255 N 0.46052 0.36432 0.85048 0.0
H256 H 0.42847 0.30698 0.62729 0.0
H257 H 0.46258 0.30627 0.72043 0.0
H258 H 0.47148 0.37844 0.91009 0.0
H259 H 0.45641 0.33043 0.85137 0.0
H260 H 0.36089 0.49222 0.62738 0.0
H261 H 0.34627 0.44349 0.56898 0.0
H262 H 0.4224 0.52104 0.66485 0.0
H263 H 0.4578 0.52032 0.75574 0.0
C264 C 0.59537 0.64342 0.29941 0.0
C265 C 0.619 0.61782 0.35948 0.0
C266 C 0.59213 0.55082 0.28297 0.0
C267 C 0.57313 0.57598 0.2161 0.0
N268 N 0.56478 0.64692 0.15273 0.0
N269 N 0.64953 0.54751 0.39373 0.0
C270 C 0.57694 0.62256 0.22193 0.0
C271 C 0.62054 0.5716 0.34634 0.0
N272 N 0.58911 0.68723 0.31749 0.0
N273 N 0.58111 0.50767 0.2896 0.0
H274 H 0.67219 0.56193 0.43841 0.0
H275 H 0.65434 0.51398 0.38123 0.0
H276 H 0.55729 0.49187 0.24951 0.0
H277 H 0.59145 0.48925 0.34201 0.0
H278 H 0.56802 0.70633 0.28055 0.0
H279 H 0.60196 0.70372 0.37362 0.0
H280 H 0.5712 0.6804 0.15062 0.0
H281 H 0.5523 0.63313 0.09394 0.0
C282 C 0.95218 0.12443 0.84473 0.0
C283 C 0.90582 0.12318 0.85305 0.0
C284 C 0.89978 0.08219 0.71145 0.0
C285 C 0.94625 0.07721 0.71108 0.0
N286 N 0.01604 0.08617 0.78896 0.0
N287 N 0.83546 0.09463 0.80049 0.0
C288 C 0.97242 0.09651 0.78063 0.0
C289 C 0.87945 0.10049 0.78793 0.0
N290 N 0.97686 0.15256 0.89775 0.0
N291 N 0.87516 0.07105 0.63797 0.0
H292 H 0.81927 0.10688 0.8561 0.0
H293 H 0.81588 0.07428 0.75923 0.0
H294 H 0.88902 0.05947 0.57927 0.0
H295 H 0.84164 0.07783 0.63243 0.0
H296 H 0.0104 0.15755 0.88896 0.0
H297 H 0.96291 0.17425 0.94433 0.0
H298 H 0.0353 0.09626 0.8434 0.0
H299 H 0.03184 0.0635 0.74709 0.0
C300 C 0.42275 0.36676 0.25759 0.0
C301 C 0.39799 0.39063 0.3215 0.0
C302 C 0.41922 0.45944 0.25848 0.0
C303 C 0.4406 0.43566 0.18916 0.0
N304 N 0.45184 0.36574 0.11129 0.0
N305 N 0.36176 0.45818 0.36579 0.0
C306 C 0.43917 0.38896 0.18516 0.0
C307 C 0.39246 0.4365 0.31587 0.0
N308 N 0.43225 0.32349 0.26751 0.0
N309 N 0.42683 0.5033 0.27414 0.0
H310 H 0.34065 0.44191 0.40668 0.0
H311 H 0.35408 0.49116 0.35887 0.0
H312 H 0.44956 0.52101 0.23959 0.0
H313 H 0.41474 0.52083 0.32884 0.0
H314 H 0.45432 0.30604 0.22767 0.0
H315 H 0.42102 0.306 0.31978 0.0
H316 H 0.44763 0.33192 0.1023 0.0
H317 H 0.4618 0.3808 0.05525 0.0
C318 C 0.0761 0.88821 0.81984 0.0
C319 C 0.12213 0.89257 0.83391 0.0
C320 C 0.12644 0.93485 0.70168 0.0
C321 C 0.07976 0.93729 0.69795 0.0
N322 N 0.01043 0.92382 0.76845 0.0
N323 N 0.19072 0.92628 0.79504 0.0
C324 C 0.05451 0.91576 0.7607 0.0
C325 C 0.14739 0.91742 0.77646 0.0
N326 N 0.05299 0.85779 0.86328 0.0
N327 N 0.15079 0.94764 0.63288 0.0
H328 H 0.20727 0.91495 0.84992 0.0
H329 H 0.20909 0.94816 0.76002 0.0
H330 H 0.13663 0.95839 0.57497 0.0
H331 H 0.1847 0.94284 0.62947 0.0
H332 H 0.01993 0.8508 0.84957 0.0
H333 H 0.0681 0.83637 0.9059 0.0
H334 H 0.99176 0.91174 0.81869 0.0
H335 H 0.99356 0.94672 0.73203 0.0
loop_
_geom_bond_atom_site_label_1
_geom_bond_atom_site_label_2
_geom_bond_distance
_geom_bond_site_symmetry_2
_ccdc_geom_bond_type
H0 C7 0.929 . S
H1 C10 0.930 . S
H2 C12 0.929 . S
H3 C4 0.969 . S
C4 H3 0.969 . S
C4 O5 1.550 1_554 S
C4 H6 0.973 . S
O5 C4 1.550 1_556 S
O5 C11 1.412 1_556 S
H6 C4 0.973 . S
C7 H0 0.929 . S
C7 C8 1.400 1_554 S
C7 C9 1.364 . S
C8 C7 1.400 1_556 S
C8 C12 1.377 . S
C9 C7 1.364 . S
C9 C10 1.374 . S
C10 H1 0.930 . S
C10 C9 1.374 . S
C10 C11 1.385 . S
C11 O5 1.412 1_554 S
C11 C10 1.385 . S
C11 C12 1.393 1_554 S
C12 H2 0.929 . S
C12 C8 1.377 . S
C12 C11 1.393 1_556 S
H13 C20 0.929 . S
H14 C23 0.930 . S
H15 C25 0.929 . S
H16 C17 0.969 . S
C17 H16 0.969 . S
C17 O18 1.550 . S
C17 H19 0.973 . S
O18 C17 1.550 . S
O18 C24 1.412 . S
H19 C17 0.973 . S
C20 H13 0.929 . S
C20 C21 1.400 . S
C20 C22 1.364 . S
C21 C20 1.400 . S
C21 C25 1.377 . S
C22 C20 1.364 . S
C22 C23 1.374 . S
C23 H14 0.930 . S
C23 C22 1.374 . S
C23 C24 1.383 . S
C24 O18 1.412 . S
C24 C23 1.383 . S
C24 C25 1.394 . S
C25 H15 0.929 . S
C25 C21 1.377 . S
C25 C24 1.394 . S
H26 C33 0.928 . S
H27 C36 0.930 . S
H28 C38 0.929 . S
H29 C30 0.969 . S
C30 H29 0.969 . S
C30 O31 1.550 1_556 S
C30 H32 0.973 . S
O31 C30 1.550 1_554 S
O31 C37 1.412 . S
H32 C30 0.973 . S
C33 H26 0.928 . S
C33 C34 1.400 . S
C33 C35 1.364 1_554 S
C34 C33 1.400 . S
C34 C38 1.377 . S
C35 C33 1.364 1_556 S
C35 C36 1.374 . S
C36 H27 0.930 . S
C36 C35 1.374 . S
C36 C37 1.383 1_556 S
C37 O31 1.412 . S
C37 C36 1.383 1_554 S
C37 C38 1.394 . S
C38 H28 0.929 . S
C38 C34 1.377 . S
C38 C37 1.394 . S
H39 C46 0.929 . S
H40 C49 0.930 . S
H41 C51 0.929 . S
H42 C43 0.969 . S
C43 H42 0.969 . S
C43 O44 1.550 . S
C43 H45 0.973 . S
O44 C43 1.550 . S
O44 C50 1.412 . S
H45 C43 0.973 . S
C46 H39 0.929 . S
C46 C47 1.400 . S
C46 C48 1.364 . S
C47 C46 1.400 . S
C47 C51 1.377 . S
C48 C46 1.364 . S
C48 C49 1.374 . S
C49 H40 0.930 . S
C49 C48 1.374 . S
C49 C50 1.383 . S
C50 O44 1.412 . S
C50 C49 1.383 . S
C50 C51 1.394 . S
C51 H41 0.929 . S
C51 C47 1.377 . S
C51 C50 1.394 . S
C52 O68 1.251 . S
C52 O70 1.254 . S
N53 C54 1.333 . S
N53 C58 1.307 . S
N53 Zn59 2.020 . S
C54 N53 1.333 . S
C54 C55 1.379 . S
C54 H72 0.952 . S
C55 C54 1.379 . S
C55 C56 1.390 . S
C55 H82 0.949 . S
C56 C55 1.390 . S
C56 C57 1.357 . S
C57 C56 1.357 . S
C57 C58 1.370 . S
C57 H83 0.950 . S
C58 N53 1.307 . S
C58 C57 1.370 . S
C58 H76 0.948 . S
Zn59 N53 2.020 . S
Zn59 O68 2.039 1_545 S
Zn59 O74 2.034 1_545 S
Zn59 O78 2.025 1_455 S
Zn59 O80 2.024 1_455 S
C60 O79 1.246 . S
C60 O80 1.249 . S
N61 C62 1.307 . S
N61 C63 1.333 . S
N61 Zn67 2.020 . S
C62 N61 1.307 . S
C62 C66 1.370 . S
C62 H73 0.948 . S
C63 N61 1.333 . S
C63 C64 1.379 . S
C63 H71 0.952 . S
C64 C63 1.379 . S
C64 C65 1.390 . S
C64 H84 0.949 . S
C65 C64 1.390 . S
C65 C66 1.357 . S
C66 C62 1.370 . S
C66 C65 1.357 . S
C66 H85 0.950 . S
Zn67 N61 2.020 . S
Zn67 O70 2.025 1_655 S
Zn67 O75 2.024 1_655 S
Zn67 O77 2.039 1_565 S
Zn67 O79 2.034 1_565 S
O68 C52 1.251 . S
O68 Zn59 2.039 1_565 S
C69 O74 1.246 . S
C69 O75 1.249 . S
O70 C52 1.254 . S
O70 Zn67 2.025 1_455 S
H71 C63 0.952 . S
H72 C54 0.952 . S
H73 C62 0.948 . S
O74 Zn59 2.034 1_565 S
O74 C69 1.246 . S
O75 Zn67 2.024 1_455 S
O75 C69 1.249 . S
H76 C58 0.948 . S
O77 Zn67 2.039 1_545 S
O77 C81 1.251 . S
O78 Zn59 2.025 1_655 S
O78 C81 1.254 . S
O79 C60 1.246 . S
O79 Zn67 2.034 1_545 S
O80 Zn59 2.024 1_655 S
O80 C60 1.249 . S
C81 O77 1.251 . S
C81 O78 1.254 . S
H82 C55 0.949 . S
H83 C57 0.950 . S
H84 C64 0.949 . S
H85 C66 0.950 . S
C86 O102 1.251 . S
C86 O104 1.254 . S
N87 C88 1.333 1_554 S
N87 C92 1.307 . S
N87 Zn93 2.020 . S
C88 N87 1.333 1_556 S
C88 C89 1.379 . S
C88 H106 0.952 . S
C89 C88 1.379 . S
C89 C90 1.390 1_556 S
C89 H116 0.949 . S
C90 C89 1.390 1_554 S
C90 C91 1.357 . S
C91 C90 1.357 . S
C91 C92 1.370 . S
C91 H117 0.950 . S
C92 N87 1.307 . S
C92 C91 1.370 . S
C92 H110 0.948 . S
Zn93 N87 2.020 . S
Zn93 O102 2.039 1_554 S
Zn93 O108 2.034 . S
Zn93 O112 2.025 . S
Zn93 O114 2.024 1_554 S
C94 O113 1.246 . S
C94 O114 1.249 . S
N95 C96 1.307 1_554 S
N95 C97 1.333 . S
N95 Zn101 2.020 . S
C96 N95 1.307 1_556 S
C96 C100 1.370 . S
C96 H107 0.948 . S
C97 N95 1.333 . S
C97 C98 1.379 . S
C97 H105 0.952 . S
C98 C97 1.379 . S
C98 C99 1.390 . S
C98 H118 0.949 . S
C99 C98 1.390 . S
C99 C100 1.357 1_554 S
C100 C96 1.370 . S
C100 C99 1.357 1_556 S
C100 H119 0.950 . S
Zn101 N95 2.020 . S
Zn101 O104 2.025 1_554 S
Zn101 O109 2.024 . S
Zn101 O111 2.039 . S
Zn101 O113 2.034 1_554 S
O102 C86 1.251 . S
O102 Zn93 2.039 1_556 S
C103 O108 1.246 . S
C103 O109 1.249 . S
O104 C86 1.254 . S
O104 Zn101 2.025 1_556 S
H105 C97 0.952 . S
H106 C88 0.952 . S
H107 C96 0.948 . S
O108 Zn93 2.034 . S
O108 C103 1.246 . S
O109 Zn101 2.024 . S
O109 C103 1.249 . S
H110 C92 0.948 . S
O111 Zn101 2.039 . S
O111 C115 1.251 . S
O112 Zn93 2.025 . S
O112 C115 1.254 . S
O113 C94 1.246 . S
O113 Zn101 2.034 1_556 S
O114 Zn93 2.024 1_556 S
O114 C94 1.249 . S
C115 O111 1.251 . S
C115 O112 1.254 . S
H116 C89 0.949 . S
H117 C91 0.950 . S
H118 C98 0.949 . S
H119 C100 0.950 . S
C120 C121 1.363 . S
C120 C126 1.379 . S
C120 N128 1.356 . S
C121 C120 1.363 . S
C121 C127 1.363 . S
C122 C123 1.363 . S
C122 C127 1.379 . S
C122 N129 1.356 . S
C123 C122 1.363 . S
C123 C126 1.363 . S
N124 C126 1.356 . S
N124 H136 0.984 . S
N124 H137 0.985 . S
N125 C127 1.356 . S
N125 H130 0.984 . S
N125 H131 0.985 . S
C126 C120 1.379 . S
C126 C123 1.363 . S
C126 N124 1.356 . S
C127 C121 1.363 . S
C127 C122 1.379 . S
C127 N125 1.356 . S
N128 C120 1.356 . S
N128 H134 0.984 . S
N128 H135 0.984 . S
N129 C122 1.356 . S
N129 H132 0.984 . S
N129 H133 0.985 . S
H130 N125 0.984 . S
H131 N125 0.985 . S
H132 N129 0.984 . S
H133 N129 0.985 . S
H134 N128 0.984 . S
H135 N128 0.984 . S
H136 N124 0.984 . S
H137 N124 0.985 . S
C138 C139 1.363 1_556 S
C138 C144 1.379 . S
C138 N146 1.356 . S
C139 C138 1.363 1_554 S
C139 C145 1.363 . S
C140 C141 1.363 . S
C140 C145 1.379 . S
C140 N147 1.356 . S
C141 C140 1.363 . S
C141 C144 1.363 1_554 S
N142 C144 1.356 . S
N142 H154 0.984 . S
N142 H155 0.985 . S
N143 C145 1.356 . S
N143 H148 0.984 . S
N143 H149 0.985 . S
C144 C138 1.379 . S
C144 C141 1.363 1_556 S
C144 N142 1.356 . S
C145 C139 1.363 . S
C145 C140 1.379 . S
C145 N143 1.356 . S
N146 C138 1.356 . S
N146 H152 0.984 . S
N146 H153 0.984 . S
N147 C140 1.356 . S
N147 H150 0.984 . S
N147 H151 0.985 . S
H148 N143 0.984 . S
H149 N143 0.985 . S
H150 N147 0.984 . S
H151 N147 0.985 . S
H152 N146 0.984 . S
H153 N146 0.984 . S
H154 N142 0.984 . S
H155 N142 0.985 . S
C156 C157 1.363 . S
C156 C162 1.379 . S
C156 N164 1.356 . S
C157 C156 1.363 . S
C157 C163 1.363 . S
C158 C159 1.363 . S
C158 C163 1.379 . S
C158 N165 1.356 . S
C159 C158 1.363 . S
C159 C162 1.363 . S
N160 C162 1.356 . S
N160 H172 0.984 . S
N160 H173 0.985 . S
N161 C163 1.356 . S
N161 H166 0.984 . S
N161 H167 0.985 . S
C162 C156 1.379 . S
C162 C159 1.363 . S
C162 N160 1.356 . S
C163 C157 1.363 . S
C163 C158 1.379 . S
C163 N161 1.356 . S
N164 C156 1.356 . S
N164 H170 0.984 . S
N164 H171 0.984 . S
N165 C158 1.356 . S
N165 H168 0.984 . S
N165 H169 0.985 . S
H166 N161 0.984 . S
H167 N161 0.985 . S
H168 N165 0.984 . S
H169 N165 0.985 . S
H170 N164 0.984 . S
H171 N164 0.984 . S
H172 N160 0.984 . S
H173 N160 0.985 . S
C174 C175 1.363 . S
C174 C180 1.379 . S
C174 N182 1.356 . S
C175 C174 1.363 . S
C175 C181 1.363 1_556 S
C176 C177 1.359 1_554 S
C176 C181 1.379 . S
C176 N183 1.356 . S
C177 C176 1.359 1_556 S
C177 C180 1.367 . S
N178 C180 1.356 . S
N178 H190 0.984 . S
N178 H191 0.985 . S
N179 C181 1.356 . S
N179 H184 0.984 . S
N179 H185 0.985 . S
C180 C174 1.379 . S
C180 C177 1.367 . S
C180 N178 1.356 . S
C181 C175 1.363 1_554 S
C181 C176 1.379 . S
C181 N179 1.356 . S
N182 C174 1.356 . S
N182 H188 0.984 . S
N182 H189 0.984 . S
N183 C176 1.356 . S
N183 H186 0.984 . S
N183 H187 0.985 . S
H184 N179 0.984 . S
H185 N179 0.985 . S
H186 N183 0.984 . S
H187 N183 0.985 . S
H188 N182 0.984 . S
H189 N182 0.984 . S
H190 N178 0.984 . S
H191 N178 0.985 . S
C192 C193 1.363 . S
C192 C198 1.379 . S
C192 N200 1.356 . S
C193 C192 1.363 . S
C193 C199 1.363 . S
C194 C195 1.363 . S
C194 C199 1.379 . S
C194 N201 1.356 . S
C195 C194 1.363 . S
C195 C198 1.363 . S
N196 C198 1.344 1_545 S
N196 H208 0.994 . S
N196 H209 0.987 . S
N197 C199 1.356 . S
N197 H202 0.984 . S
N197 H203 0.985 . S
C198 C192 1.379 . S
C198 C195 1.363 . S
C198 N196 1.344 1_565 S
C199 C193 1.363 . S
C199 C194 1.379 . S
C199 N197 1.356 . S
N200 C192 1.356 . S
N200 H206 0.984 . S
N200 H207 0.984 . S
N201 C194 1.356 . S
N201 H204 0.984 . S
N201 H205 0.985 . S
H202 N197 0.984 . S
H203 N197 0.985 . S
H204 N201 0.984 . S
H205 N201 0.985 . S
H206 N200 0.984 . S
H207 N200 0.984 . S
H208 N196 0.994 . S
H209 N196 0.987 . S
C210 C211 1.363 . S
C210 C216 1.379 . S
C210 N218 1.356 . S
C211 C210 1.363 . S
C211 C217 1.363 . S
C212 C213 1.363 . S
C212 C217 1.379 . S
C212 N219 1.356 . S
C213 C212 1.363 . S
C213 C216 1.363 . S
N214 C216 1.356 . S
N214 H226 0.984 . S
N214 H227 0.985 . S
N215 C217 1.356 . S
N215 H220 0.984 . S
N215 H221 0.985 . S
C216 C210 1.379 . S
C216 C213 1.363 . S
C216 N214 1.356 . S
C217 C211 1.363 . S
C217 C212 1.379 . S
C217 N215 1.356 . S
N218 C210 1.356 . S
N218 H224 0.984 . S
N218 H225 0.984 . S
N219 C212 1.356 . S
N219 H222 0.984 . S
N219 H223 0.985 . S
H220 N215 0.984 . S
H221 N215 0.985 . S
H222 N219 0.984 . S
H223 N219 0.985 . S
H224 N218 0.984 . S
H225 N218 0.984 . S
H226 N214 0.984 . S
H227 N214 0.985 . S
C228 C229 1.363 . S
C228 C234 1.379 . S
C228 N236 1.356 . S
C229 C228 1.363 . S
C229 C235 1.363 . S
C230 C231 1.363 . S
C230 C235 1.379 . S
C230 N237 1.356 . S
C231 C230 1.363 . S
C231 C234 1.363 . S
N232 C234 1.354 1_565 S
N232 H244 0.986 . S
N232 H245 0.985 . S
N233 C235 1.356 . S
N233 H238 0.984 . S
N233 H239 0.985 . S
C234 C228 1.379 . S
C234 C231 1.363 . S
C234 N232 1.354 1_545 S
C235 C229 1.363 . S
C235 C230 1.379 . S
C235 N233 1.356 . S
N236 C228 1.356 . S
N236 H242 0.984 . S
N236 H243 0.984 . S
N237 C230 1.356 . S
N237 H240 0.984 . S
N237 H241 0.985 . S
H238 N233 0.984 . S
H239 N233 0.985 . S
H240 N237 0.984 . S
H241 N237 0.985 . S
H242 N236 0.984 . S
H243 N236 0.984 . S
H244 N232 0.986 . S
H245 N232 0.985 . S
C246 C247 1.363 . S
C246 C252 1.379 . S
C246 N254 1.356 . S
C247 C246 1.363 . S
C247 C253 1.363 . S
C248 C249 1.363 . S
C248 C253 1.379 . S
C248 N255 1.356 . S
C249 C248 1.363 . S
C249 C252 1.363 . S
N250 C252 1.356 . S
N250 H262 0.984 . S
N250 H263 0.985 . S
N251 C253 1.356 . S
N251 H256 0.984 . S
N251 H257 0.985 . S
C252 C246 1.379 . S
C252 C249 1.363 . S
C252 N250 1.356 . S
C253 C247 1.363 . S
C253 C248 1.379 . S
C253 N251 1.356 . S
N254 C246 1.356 . S
N254 H260 0.984 . S
N254 H261 0.984 . S
N255 C248 1.356 . S
N255 H258 0.984 . S
N255 H259 0.985 . S
H256 N251 0.984 . S
H257 N251 0.985 . S
H258 N255 0.984 . S
H259 N255 0.985 . S
H260 N254 0.984 . S
H261 N254 0.984 . S
H262 N250 0.984 . S
H263 N250 0.985 . S
C264 C265 1.363 . S
C264 C270 1.379 . S
C264 N272 1.356 . S
C265 C264 1.363 . S
C265 C271 1.363 . S
C266 C267 1.363 . S
C266 C271 1.379 . S
C266 N273 1.356 . S
C267 C266 1.363 . S
C267 C270 1.363 . S
N268 C270 1.356 . S
N268 H280 0.984 . S
N268 H281 0.985 . S
N269 C271 1.356 . S
N269 H274 0.984 . S
N269 H275 0.985 . S
C270 C264 1.379 . S
C270 C267 1.363 . S
C270 N268 1.356 . S
C271 C265 1.363 . S
C271 C266 1.379 . S
C271 N269 1.356 . S
N272 C264 1.356 . S
N272 H278 0.984 . S
N272 H279 0.984 . S
N273 C266 1.356 . S
N273 H276 0.984 . S
N273 H277 0.985 . S
H274 N269 0.984 . S
H275 N269 0.985 . S
H276 N273 0.984 . S
H277 N273 0.985 . S
H278 N272 0.984 . S
H279 N272 0.984 . S
H280 N268 0.984 . S
H281 N268 0.985 . S
C282 C283 1.363 . S
C282 C288 1.379 . S
C282 N290 1.356 . S
C283 C282 1.363 . S
C283 C289 1.363 . S
C284 C285 1.363 . S
C284 C289 1.379 . S
C284 N291 1.356 . S
C285 C284 1.363 . S
C285 C288 1.363 . S
N286 C288 1.356 . S
N286 H298 0.984 . S
N286 H299 0.985 . S
N287 C289 1.356 . S
N287 H292 0.984 . S
N287 H293 0.985 . S
C288 C282 1.379 . S
C288 C285 1.363 . S
C288 N286 1.356 . S
C289 C283 1.363 . S
C289 C284 1.379 . S
C289 N287 1.356 . S
N290 C282 1.356 . S
N290 H296 0.984 . S
N290 H297 0.984 . S
N291 C284 1.356 . S
N291 H294 0.984 . S
N291 H295 0.985 . S
H292 N287 0.984 . S
H293 N287 0.985 . S
H294 N291 0.984 . S
H295 N291 0.985 . S
H296 N290 0.984 . S
H297 N290 0.984 . S
H298 N286 0.984 . S
H299 N286 0.985 . S
C300 C301 1.363 . S
C300 C306 1.379 . S
C300 N308 1.356 . S
C301 C300 1.363 . S
C301 C307 1.363 . S
C302 C303 1.363 . S
C302 C307 1.379 . S
C302 N309 1.356 . S
C303 C302 1.363 . S
C303 C306 1.363 . S
N304 C306 1.356 . S
N304 H316 0.984 . S
N304 H317 0.985 . S
N305 C307 1.356 . S
N305 H310 0.984 . S
N305 H311 0.985 . S
C306 C300 1.379 . S
C306 C303 1.363 . S
C306 N304 1.356 . S
C307 C301 1.363 . S
C307 C302 1.379 . S
C307 N305 1.356 . S
N308 C300 1.356 . S
N308 H314 0.984 . S
N308 H315 0.984 . S
N309 C302 1.356 . S
N309 H312 0.984 . S
N309 H313 0.985 . S
H310 N305 0.984 . S
H311 N305 0.985 . S
H312 N309 0.984 . S
H313 N309 0.985 . S
H314 N308 0.984 . S
H315 N308 0.984 . S
H316 N304 0.984 . S
H317 N304 0.985 . S
C318 C319 1.363 . S
C318 C324 1.379 . S
C318 N326 1.356 . S
C319 C318 1.363 . S
C319 C325 1.363 . S
C320 C321 1.363 . S
C320 C325 1.379 . S
C320 N327 1.356 . S
C321 C320 1.363 . S
C321 C324 1.363 . S
N322 C324 1.356 . S
N322 H334 0.984 1_455 S
N322 H335 0.985 . S
N323 C325 1.356 . S
N323 H328 0.984 . S
N323 H329 0.985 . S
C324 C318 1.379 . S
C324 C321 1.363 . S
C324 N322 1.356 . S
C325 C319 1.363 . S
C325 C320 1.379 . S
C325 N323 1.356 . S
N326 C318 1.356 . S
N326 H332 0.984 . S
N326 H333 0.984 . S
N327 C320 1.356 . S
N327 H330 0.984 . S
N327 H331 0.985 . S
H328 N323 0.984 . S
H329 N323 0.985 . S
H330 N327 0.984 . S
H331 N327 0.985 . S
H332 N326 0.984 . S
H333 N326 0.984 . S
H334 N322 0.984 1_655 S
H335 N322 0.985 . S
C123 C56 1.505 . S
C121 C43 1.452 . S
C139 C4 1.458 . S
C141 C99 1.507 . S
C157 C17 1.460 . S
C159 C65 1.505 . S
C175 C30 1.466 . S
C177 C90 1.507 1_556 S
C195 C52 1.510 . S
C193 C9 1.487 . S
C213 C94 1.508 . S
C211 C21 1.507 . S
C229 C34 1.508 . S
C231 C60 1.508 . S
C247 C48 1.490 . S
C249 C86 1.508 . S
C267 C115 1.508 . S
C265 C22 1.490 . S
C285 C81 1.510 . S
C283 C35 1.488 . S
C303 C103 1.508 . S
C301 C47 1.506 . S
C319 C8 1.507 . S
C321 C69 1.508 . S
