# Generated by pormake.
# Topology pth, (4,4)-cn, num edge types: 1
# Building blocks:
#     Node 0, Type 0, BuildingBlock: CEKHIL_clean_sbu_0, # of connection points: 4
#     Node 1, Type 0, BuildingBlock: CEKHIL_clean_sbu_0, # of connection points: 4
#     Node 2, Type 0, BuildingBlock: CEKHIL_clean_sbu_0, # of connection points: 4
#     Node 3, Type 1, BuildingBlock: NAHDIM_clean_linker_0, # of connection points: 4
#     Node 4, Type 1, BuildingBlock: NAHDIM_clean_linker_0, # of connection points: 4
#     Node 5, Type 1, BuildingBlock: NAHDIM_clean_linker_0, # of connection points: 4
#     Edge 6, Type (0, 1), BuildingBlock: CIFDUS_clean_linker_0, # of connection points: 2
#     Edge 7, Type (0, 1), BuildingBlock: CIFDUS_clean_linker_0, # of connection points: 2
#     Edge 8, Type (0, 1), BuildingBlock: CIFDUS_clean_linker_0, # of connection points: 2
#     Edge 9, Type (0, 1), BuildingBlock: CIFDUS_clean_linker_0, # of connection points: 2
#     Edge 10, Type (0, 1), BuildingBlock: CIFDUS_clean_linker_0, # of connection points: 2
#     Edge 11, Type (0, 1), BuildingBlock: CIFDUS_clean_linker_0, # of connection points: 2
#     Edge 12, Type (0, 1), BuildingBlock: CIFDUS_clean_linker_0, # of connection points: 2
#     Edge 13, Type (0, 1), BuildingBlock: CIFDUS_clean_linker_0, # of connection points: 2
#     Edge 14, Type (0, 1), BuildingBlock: CIFDUS_clean_linker_0, # of connection points: 2
#     Edge 15, Type (0, 1), BuildingBlock: CIFDUS_clean_linker_0, # of connection points: 2
#     Edge 16, Type (0, 1), BuildingBlock: CIFDUS_clean_linker_0, # of connection points: 2
#     Edge 17, Type (0, 1), BuildingBlock: CIFDUS_clean_linker_0, # of connection points: 2
# Relax obj value: 0.007
# Max RMSD: 0.047
# Mean RMSD: 0.045
data_MOF--net-pth--node1-CEKHIL_clean_sbu_0--node2-NAHDIM_clean_linker_0--edge1-CIFDUS_clean_linker_0
_symmetry_space_group_name_H-M    P1
_symmetry_Int_Tables_number       1
_symmetry_cell_setting            triclinic
loop_
_symmetry_equiv_pos_as_xyz
'x, y, z'
_cell_length_a     28.698586
_cell_length_b     28.76089
_cell_length_c     74.666813
_cell_angle_alpha  90.730551
_cell_angle_beta   90.474323
_cell_angle_gamma 120.37917
loop_
_atom_site_label
_atom_site_type_symbol
_atom_site_fract_x
_atom_site_fract_y
_atom_site_fract_z
_atom_type_partial_charge
Co0 Co 0.03184 0.05734 0.06096 0.0
O1 O 0.00308 0.00411 0.07926 0.0
O2 O 0.06794 0.01605 0.06069 0.0
C3 C 0.04215 0.12611 0.07838 0.0
O4 O 0.0737 0.10901 0.04109 0.0
Co5 Co 0.97182 0.11337 0.04763 0.0
O6 O 0.04017 0.16293 0.03552 0.0
C7 C 0.93647 0.00347 0.03459 0.0
C8 C 0.03752 0.99027 0.0741 0.0
C9 C 0.07596 0.14976 0.03333 0.0
O10 O 0.97585 0.00515 0.04344 0.0
O11 O 0.92602 0.04178 0.03498 0.0
O12 O 0.0785 0.11196 0.07828 0.0
O13 O 0.99838 0.09577 0.06908 0.0
Co14 Co 0.02428 0.07778 0.38345 0.0
O15 O 0.9957 0.10564 0.36569 0.0
O16 O 0.0647 0.15487 0.3844 0.0
C17 C 0.02613 0.01438 0.36613 0.0
O18 O 0.06823 0.06665 0.40246 0.0
Co19 Co 0.96308 0.96221 0.39776 0.0
O20 O 0.03318 0.97969 0.40914 0.0
C21 C 0.93622 0.04228 0.41146 0.0
C22 C 0.03307 0.15293 0.37155 0.0
C23 C 0.07088 0.02875 0.41043 0.0
O24 O 0.97415 0.07835 0.40199 0.0
O25 O 0.92334 0.99264 0.41104 0.0
O26 O 0.0642 0.06458 0.3652 0.0
O27 O 0.98561 0.00482 0.37609 0.0
Co28 Co 0.0427 0.04872 0.71219 0.0
O29 O 0.10551 0.08219 0.69749 0.0
O30 O 0.08694 0.01686 0.71656 0.0
C31 C 0.98285 0.03568 0.69037 0.0
O32 O 0.98075 0.00277 0.72884 0.0
Co33 Co 0.97431 0.10272 0.71849 0.0
O34 O 0.92038 0.03055 0.72733 0.0
C35 C 0.07822 0.14461 0.73782 0.0
C36 C 0.11865 0.04919 0.70442 0.0
C37 C 0.93403 0.99668 0.73215 0.0
O38 O 0.08198 0.10469 0.73165 0.0
O39 O 0.04029 0.15332 0.73315 0.0
O40 O -6e-05 0.00198 0.69233 0.0
O41 O 0.00612 0.07865 0.70047 0.0
C42 C -0.00096 0.70265 0.34472 0.0
C43 C 0.01529 0.74541 0.3303 0.0
C44 C 0.99605 0.69502 0.30212 0.0
C45 C 0.04863 0.71427 0.29591 0.0
C46 C 0.05959 0.68359 0.28374 0.0
C47 C 0.01703 0.6329 0.27761 0.0
C48 C 0.96354 0.61481 0.28309 0.0
C49 C 0.95368 0.64653 0.29517 0.0
C50 C 0.11681 0.70476 0.27771 0.0
C51 C 0.91716 0.56117 0.27666 0.0
C52 C 0.21048 0.46385 0.33539 0.0
C53 C 0.15483 0.4372 0.32622 0.0
C54 C 0.13482 0.46312 0.29761 0.0
C55 C 0.07938 0.44343 0.29952 0.0
C56 C 0.05282 0.46333 0.28897 0.0
C57 C 0.08277 0.5046 0.27662 0.0
C58 C 0.13875 0.52407 0.27464 0.0
C59 C 0.16362 0.50188 0.28486 0.0
C60 C 0.99297 0.4406 0.29114 0.0
C61 C 0.17293 0.56933 0.26213 0.0
C62 C 0.05375 0.38995 0.16452 0.0
C63 C 0.00187 0.38192 0.16734 0.0
C64 C 0.99516 0.42225 0.17551 0.0
C65 C 0.04123 0.47185 0.1806 0.0
C66 C 0.09345 0.48138 0.17667 0.0
C67 C 0.09897 0.44016 0.1686 0.0
C68 C 0.9389 0.4115 0.17906 0.0
C69 C 0.14335 0.53446 0.18146 0.0
C70 C 0.07642 0.84158 0.16485 0.0
C71 C 0.05935 0.80504 0.14801 0.0
C72 C 0.01932 0.71457 0.16075 0.0
C73 C 0.97099 0.66672 0.16387 0.0
C74 C 0.97049 0.62487 0.17351 0.0
C75 C 0.01966 0.63141 0.18025 0.0
C76 C 0.06882 0.67931 0.17692 0.0
C77 C 0.06822 0.72026 0.16716 0.0
C78 C 0.91754 0.57393 0.17666 0.0
C79 C 0.12212 0.68738 0.18381 0.0
C80 C 0.02897 0.59692 0.26667 0.0
C81 C 0.04592 0.5657 0.27573 0.0
C82 C 0.05675 0.52977 0.26649 0.0
C83 C 0.04799 0.52277 0.24777 0.0
C84 C 0.05386 0.48364 0.23825 0.0
C85 C 0.04817 0.47915 0.2197 0.0
C86 C 0.03755 0.51444 0.20995 0.0
C87 C 0.03477 0.51232 0.19102 0.0
C88 C 0.02673 0.54956 0.18172 0.0
C89 C 0.02032 0.5886 0.19087 0.0
C90 C 0.02013 0.58964 0.20981 0.0
C91 C 0.01137 0.62685 0.21943 0.0
C92 C 0.01294 0.62853 0.23809 0.0
C93 C 0.02487 0.59412 0.24777 0.0
C94 C 0.03382 0.55637 0.23832 0.0
C95 C 0.03001 0.55317 0.21935 0.0
C96 C 0.06053 0.28193 0.17552 0.0
C97 C 0.03135 0.29612 0.16125 0.0
O98 O 0.98489 0.72211 0.3148 0.0
O99 O 0.01677 0.75408 0.15172 0.0
O100 O 0.06179 0.35066 0.15771 0.0
O101 O 0.16179 0.44587 0.30799 0.0
H102 H 0.05895 0.76171 0.32789 0.0
H103 H 0.00934 0.67193 0.34032 0.0
H104 H 0.95493 0.68184 0.34713 0.0
H105 H 0.02125 0.72147 0.35748 0.0
H106 H 0.08122 0.75321 0.30046 0.0
H107 H 0.91309 0.63257 0.29979 0.0
H108 H 0.13221 0.67927 0.28319 0.0
H109 H 0.14434 0.74712 0.28224 0.0
H110 H 0.11781 0.70242 0.26288 0.0
H111 H 0.87782 0.55314 0.28202 0.0
H112 H 0.92432 0.52833 0.28082 0.0
H113 H 0.91469 0.56003 0.2618 0.0
H114 H 0.13312 0.45694 0.33187 0.0
H115 H 0.20645 0.45914 0.35014 0.0
H116 H 0.233 0.50762 0.33254 0.0
H117 H 0.23418 0.44564 0.33039 0.0
H118 H 0.05692 0.41239 0.30917 0.0
H119 H 0.20636 0.5164 0.28348 0.0
H120 H 0.97244 0.43251 0.27784 0.0
H121 H 0.98619 0.47056 0.29838 0.0
H122 H 0.97405 0.40274 0.29884 0.0
H123 H 0.21683 0.58647 0.26478 0.0
H124 H 0.16358 0.60227 0.2634 0.0
H125 H 0.16406 0.5539 0.24809 0.0
H126 H 0.99141 0.28519 0.16682 0.0
H127 H 0.96648 0.34444 0.16315 0.0
H128 H 0.13879 0.44639 0.16594 0.0
H129 H 0.93393 0.41469 0.19368 0.0
H130 H 0.90716 0.37095 0.17414 0.0
H131 H 0.93278 0.44242 0.17245 0.0
H132 H 0.18065 0.53707 0.17617 0.0
H133 H 0.1475 0.53969 0.19626 0.0
H134 H 0.13955 0.56824 0.1761 0.0
H135 H 0.09433 0.80198 0.14323 0.0
H136 H 0.10949 0.88279 0.16167 0.0
H137 H 0.09143 0.82578 0.17553 0.0
H138 H 0.04176 0.84416 0.17019 0.0
H139 H 0.93348 0.66243 0.1588 0.0
H140 H 0.10621 0.75656 0.16477 0.0
H141 H 0.91099 0.56772 0.19128 0.0
H142 H 0.91895 0.53877 0.171 0.0
H143 H 0.88272 0.575 0.17052 0.0
H144 H 0.15697 0.72656 0.17979 0.0
H145 H 0.12808 0.65441 0.17866 0.0
H146 H 0.12176 0.68569 0.19866 0.0
H147 H 0.05199 0.5704 0.29016 0.0
H148 H 0.06306 0.45615 0.24507 0.0
H149 H 0.05338 0.44841 0.21308 0.0
H150 H 0.02669 0.54893 0.16718 0.0
H151 H 0.00301 0.65494 0.21263 0.0
H152 H 0.0059 0.65793 0.24483 0.0
H153 H 0.03741 0.23803 0.17818 0.0
H154 H 0.06404 0.30415 0.18821 0.0
H155 H 0.10185 0.2932 0.17123 0.0
C156 C 0.34517 0.93483 0.67152 0.0
C157 C 0.334 0.97839 0.66466 0.0
C158 C 0.3559 0.98958 0.63322 0.0
C159 C 0.39199 0.04515 0.6322 0.0
C160 C 0.43316 0.06564 0.61953 0.0
C161 C 0.43848 0.02961 0.60779 0.0
C162 C 0.3998 0.97378 0.60806 0.0
C163 C 0.35831 0.95462 0.62063 0.0
C164 C 0.47269 0.12549 0.61933 0.0
C165 C 0.40424 0.93395 0.59588 0.0
C166 C 0.80565 0.04313 0.65427 0.0
C167 C 0.75577 0.02795 0.64374 0.0
C168 C 0.70404 0.06741 0.6323 0.0
C169 C 0.66975 0.02264 0.6213 0.0
C170 C 0.63041 0.02326 0.61026 0.0
C171 C 0.62576 0.0699 0.60998 0.0
C172 C 0.66053 0.11529 0.62084 0.0
C173 C 0.69913 0.11329 0.63196 0.0
C174 C 0.59325 0.9737 0.59909 0.0
C175 C 0.65659 0.16563 0.62077 0.0
C176 C 0.74515 0.12934 0.49899 0.0
C177 C 0.70579 0.07588 0.50258 0.0
C178 C 0.65633 0.06383 0.51009 0.0
C179 C 0.64615 0.10613 0.51405 0.0
C180 C 0.68463 0.15965 0.50955 0.0
C181 C 0.73354 0.17045 0.50189 0.0
C182 C 0.61546 0.00608 0.51419 0.0
C183 C 0.67477 0.20557 0.51337 0.0
C184 C 0.2727 0.07741 0.50189 0.0
C185 C 0.29652 0.0757 0.48373 0.0
C186 C 0.36473 0.05243 0.49272 0.0
C187 C 0.37491 0.01001 0.49429 0.0
C188 C 0.42078 0.01694 0.50359 0.0
C189 C 0.45761 0.0679 0.51131 0.0
C190 C 0.44885 0.11165 0.50918 0.0
C191 C 0.40241 0.10348 0.5 0.0
C192 C 0.42926 0.96957 0.50554 0.0
C193 C 0.48802 0.1668 0.51696 0.0
C194 C 0.48913 0.0488 0.59769 0.0
C195 C 0.53398 0.05546 0.60739 0.0
C196 C 0.58248 0.06971 0.599 0.0
C197 C 0.58713 0.07831 0.58037 0.0
C198 C 0.63558 0.09292 0.57155 0.0
C199 C 0.63904 0.0989 0.55307 0.0
C200 C 0.59417 0.09053 0.54272 0.0
C201 C 0.59676 0.09473 0.52385 0.0
C202 C 0.5517 0.087 0.51399 0.0
C203 C 0.5037 0.07484 0.52249 0.0
C204 C 0.50003 0.06969 0.54132 0.0
C205 C 0.45207 0.05682 0.55028 0.0
C206 C 0.44859 0.05082 0.56878 0.0
C207 C 0.49274 0.05702 0.579 0.0
C208 C 0.54188 0.07132 0.5703 0.0
C209 C 0.54543 0.07742 0.55144 0.0
C210 C 0.87785 0.16135 0.50624 0.0
C211 C 0.82418 0.11859 0.49767 0.0
O212 O 0.3198 0.9687 0.64662 0.0
O213 O 0.31797 0.04205 0.48438 0.0
O214 O 0.79463 0.14262 0.49278 0.0
O215 O 0.74212 0.06776 0.64333 0.0
H216 H 0.37237 0.01748 0.66674 0.0
H217 H 0.38107 0.93831 0.66472 0.0
H218 H 0.31038 0.8939 0.6685 0.0
H219 H 0.35381 0.93999 0.68617 0.0
H220 H 0.38875 0.07235 0.6416 0.0
H221 H 0.32954 0.91183 0.6214 0.0
H222 H 0.51103 0.13405 0.62599 0.0
H223 H 0.45705 0.14874 0.62652 0.0
H224 H 0.48196 0.13971 0.60535 0.0
H225 H 0.37209 0.8917 0.59828 0.0
H226 H 0.44417 0.9372 0.59789 0.0
H227 H 0.40131 0.94333 0.58169 0.0
H228 H 0.72085 0.98723 0.64661 0.0
H229 H 0.79196 0.01422 0.66571 0.0
H230 H 0.81397 0.079 0.66294 0.0
H231 H 0.86016 0.04606 0.63479 0.0
H232 H 0.67298 0.98677 0.62136 0.0
H233 H 0.72581 0.14767 0.64044 0.0
H234 H 0.59984 0.98334 0.58466 0.0
H235 H 0.55047 0.96066 0.6019 0.0
H236 H 0.59992 0.93953 0.60168 0.0
H237 H 0.68948 0.19903 0.62883 0.0
H238 H 0.61718 0.15663 0.62633 0.0
H239 H 0.65817 0.17918 0.60681 0.0
H240 H 0.80303 0.08791 0.50813 0.0
H241 H 0.71369 0.04358 0.49958 0.0
H242 H 0.76383 0.21143 0.49873 0.0
H243 H 0.61168 0.00123 0.52893 0.0
H244 H 0.627 0.97736 0.50864 0.0
H245 H 0.57516 0.99544 0.50865 0.0
H246 H 0.70888 0.24498 0.50915 0.0
H247 H 0.66853 0.20792 0.52794 0.0
H248 H 0.6374 0.19809 0.50626 0.0
H249 H 0.32874 0.11714 0.48035 0.0
H250 H 0.25434 0.10334 0.50119 0.0
H251 H 0.30471 0.09443 0.51247 0.0
H252 H 0.24131 0.03623 0.50583 0.0
H253 H 0.346 0.97093 0.48854 0.0
H254 H 0.39588 0.13716 0.49883 0.0
H255 H 0.43051 0.96122 0.51996 0.0
H256 H 0.46875 0.97944 0.49982 0.0
H257 H 0.39687 0.93254 0.49872 0.0
H258 H 0.47804 0.19775 0.51281 0.0
H259 H 0.52974 0.17953 0.51272 0.0
H260 H 0.4875 0.16513 0.53181 0.0
H261 H 0.53056 0.04775 0.62165 0.0
H262 H 0.67127 0.09951 0.57883 0.0
H263 H 0.6773 0.10983 0.54701 0.0
H264 H 0.55399 0.09042 0.49953 0.0
H265 H 0.41651 0.05086 0.54307 0.0
H266 H 0.41072 0.04073 0.57499 0.0
H267 H 0.90122 0.19469 0.49685 0.0
H268 H 0.90248 0.14311 0.51013 0.0
H269 H 0.87004 0.17853 0.51848 0.0
C270 C 0.75247 0.67481 0.77451 0.0
C271 C 0.7513 0.72161 0.78406 0.0
C272 C 0.7194 0.69928 0.81427 0.0
C273 C 0.6847 0.71994 0.81609 0.0
C274 C 0.64055 0.69589 0.82761 0.0
C275 C 0.63068 0.6498 0.83727 0.0
C276 C 0.66669 0.62982 0.83575 0.0
C277 C 0.71131 0.65563 0.82449 0.0
C278 C 0.60384 0.71904 0.82918 0.0
C279 C 0.65712 0.58018 0.84553 0.0
C280 C 0.22179 0.34846 0.83239 0.0
C281 C 0.25697 0.35303 0.81643 0.0
C282 C 0.33794 0.44198 0.81965 0.0
C283 C 0.37625 0.42708 0.82403 0.0
C284 C 0.42495 0.46364 0.83277 0.0
C285 C 0.43576 0.51629 0.83699 0.0
C286 C 0.39857 0.53231 0.83175 0.0
C287 C 0.35015 0.49489 0.82301 0.0
C288 C 0.46451 0.4458 0.83777 0.0
C289 C 0.40945 0.58848 0.8358 0.0
C290 C 0.35157 0.42633 0.95084 0.0
C291 C 0.3888 0.41515 0.94256 0.0
C292 C 0.43431 0.45577 0.93403 0.0
C293 C 0.44255 0.50858 0.93353 0.0
C294 C 0.40581 0.52029 0.94208 0.0
C295 C 0.36091 0.47897 0.95072 0.0
C296 C 0.47319 0.44196 0.92529 0.0
C297 C 0.41345 0.57615 0.94178 0.0
C298 C 0.87682 0.81595 0.9428 0.0
C299 C 0.82294 0.80823 0.94924 0.0
C300 C 0.73785 0.72267 0.94878 0.0
C301 C 0.7188 0.66777 0.9462 0.0
C302 C 0.66721 0.6334 0.93881 0.0
C303 C 0.63373 0.65463 0.93431 0.0
C304 C 0.65114 0.70929 0.9383 0.0
C305 C 0.70322 0.7429 0.94547 0.0
C306 C 0.64943 0.575 0.93509 0.0
C307 C 0.61555 0.73262 0.9343 0.0
C308 C 0.58078 0.62018 0.8479 0.0
C309 C 0.53254 0.58615 0.83858 0.0
C310 C 0.48477 0.55358 0.84766 0.0
C311 C 0.48474 0.55437 0.86659 0.0
C312 C 0.43766 0.5208 0.87612 0.0
C313 C 0.43862 0.52007 0.89474 0.0
C314 C 0.48659 0.55314 0.90454 0.0
C315 C 0.48861 0.55068 0.92342 0.0
C316 C 0.53654 0.58516 0.93282 0.0
C317 C 0.58323 0.62121 0.92377 0.0
C318 C 0.5825 0.62298 0.90484 0.0
C319 C 0.62931 0.65741 0.89528 0.0
C320 C 0.62866 0.65732 0.87665 0.0
C321 C 0.58127 0.62264 0.86684 0.0
C322 C 0.53322 0.58896 0.8762 0.0
C323 C 0.53397 0.58877 0.89522 0.0
C324 C 0.25972 0.30747 0.94062 0.0
C325 C 0.28632 0.33272 0.95881 0.0
O326 O 0.75987 0.71994 0.80228 0.0
O327 O 0.79007 0.75506 0.95408 0.0
O328 O 0.30616 0.38786 0.9589 0.0
O329 O 0.28925 0.40673 0.81201 0.0
H330 H 0.7104 0.7159 0.78142 0.0
H331 H 0.71922 0.63589 0.77942 0.0
H332 H 0.79136 0.67628 0.77713 0.0
H333 H 0.74676 0.67622 0.75982 0.0
H334 H 0.692 0.75455 0.80835 0.0
H335 H 0.73873 0.64036 0.82301 0.0
H336 H 0.56455 0.69128 0.82243 0.0
H337 H 0.6213 0.75918 0.82293 0.0
H338 H 0.59574 0.72286 0.84348 0.0
H339 H 0.68519 0.56633 0.84127 0.0
H340 H 0.61496 0.54679 0.84319 0.0
H341 H 0.66283 0.58903 0.86014 0.0
H342 H 0.28176 0.33527 0.82058 0.0
H343 H 0.19443 0.30545 0.83566 0.0
H344 H 0.19721 0.36747 0.82949 0.0
H345 H 0.2479 0.3692 0.84432 0.0
H346 H 0.36874 0.38724 0.82055 0.0
H347 H 0.32081 0.50632 0.81923 0.0
H348 H 0.50442 0.47326 0.83185 0.0
H349 H 0.45076 0.4039 0.83313 0.0
H350 H 0.47026 0.44819 0.85255 0.0
H351 H 0.37764 0.59544 0.83011 0.0
H352 H 0.44911 0.61863 0.83032 0.0
H353 H 0.41168 0.59527 0.85054 0.0
H354 H 0.31989 0.32489 0.96148 0.0
H355 H 0.38273 0.37489 0.94251 0.0
H356 H 0.33222 0.4874 0.95719 0.0
H357 H 0.47037 0.44412 0.91052 0.0
H358 H 0.46461 0.40087 0.92865 0.0
H359 H 0.51534 0.47156 0.92952 0.0
H360 H 0.38058 0.57848 0.94872 0.0
H361 H 0.41491 0.58875 0.92769 0.0
H362 H 0.45264 0.60522 0.94833 0.0
H363 H 0.80489 0.81804 0.93766 0.0
H364 H 0.90401 0.85842 0.93889 0.0
H365 H 0.86978 0.7894 0.93092 0.0
H366 H 0.89707 0.80551 0.95346 0.0
H367 H 0.74553 0.65244 0.9492 0.0
H368 H 0.71708 0.78503 0.94821 0.0
H369 H 0.64062 0.56568 0.92055 0.0
H370 H 0.61159 0.54876 0.94233 0.0
H371 H 0.68046 0.5649 0.93927 0.0
H372 H 0.63188 0.77355 0.94034 0.0
H373 H 0.57426 0.70583 0.93938 0.0
H374 H 0.61209 0.73526 0.91957 0.0
H375 H 0.53243 0.58401 0.82405 0.0
H376 H 0.39964 0.49415 0.86931 0.0
H377 H 0.40128 0.493 0.90134 0.0
H378 H 0.53798 0.58277 0.94728 0.0
H379 H 0.66725 0.68444 0.90207 0.0
H380 H 0.66593 0.6844 0.87001 0.0
H381 H 0.24312 0.2632 0.94066 0.0
H382 H 0.28968 0.3245 0.92977 0.0
H383 H 0.22645 0.31544 0.93756 0.0
H384 H 0.96216 0.13094 0.09574 0.0
H385 H 0.13481 0.21528 0.08917 0.0
H386 H 0.14638 0.27861 0.11332 0.0
H387 H 0.10808 0.30448 0.1381 0.0
H388 H 0.93616 0.21579 0.14633 0.0
H389 H 0.92339 0.15968 0.11976 0.0
C390 C 0.00212 0.16391 0.09938 0.0
C391 C 0.04759 0.16874 0.09076 0.0
C392 C 0.00858 0.1988 0.11374 0.0
C393 C 0.0993 0.21096 0.09572 0.0
C394 C 0.10593 0.24695 0.10954 0.0
C395 C 0.06784 0.27307 0.13397 0.0
C396 C 0.02318 0.264 0.14417 0.0
C397 C 0.061 0.24033 0.11896 0.0
C398 C 0.97116 0.22335 0.13869 0.0
C399 C 0.96386 0.1913 0.12352 0.0
H400 H 0.8776 0.98861 0.44047 0.0
H401 H 0.9359 0.13711 0.41191 0.0
H402 H 0.90216 0.17185 0.43531 0.0
H403 H 0.86292 0.16317 0.46509 0.0
H404 H 0.8089 0.01675 0.4943 0.0
H405 H 0.83369 0.97794 0.46941 0.0
C406 C 0.88216 0.02822 0.4392 0.0
C407 C 0.90949 0.06022 0.42447 0.0
C408 C 0.86374 0.04852 0.4529 0.0
C409 C 0.91534 0.11167 0.42314 0.0
C410 C 0.89612 0.13166 0.43654 0.0
C411 C 0.85598 0.12251 0.46586 0.0
C412 C 0.83407 0.09281 0.48147 0.0
C413 C 0.87135 0.10094 0.45166 0.0
C414 C 0.82556 0.04031 0.48239 0.0
C415 C 0.83986 0.01818 0.46819 0.0
H416 H 0.95284 0.93013 0.75288 0.0
H417 H 0.8251 0.95442 0.73304 0.0
H418 H 0.75816 0.87312 0.74782 0.0
H419 H 0.73525 0.79332 0.76544 0.0
H420 H 0.86215 0.76956 0.7862 0.0
H421 H 0.93009 0.85256 0.77209 0.0
C422 C 0.91037 0.91764 0.75181 0.0
C423 C 0.89408 0.94822 0.74176 0.0
C424 C 0.87191 0.87094 0.7605 0.0
C425 C 0.83888 0.93178 0.7407 0.0
C426 C 0.80046 0.88518 0.74912 0.0
C427 C 0.77781 0.80654 0.76698 0.0
C428 C 0.79367 0.77515 0.77669 0.0
C429 C 0.81646 0.85426 0.75893 0.0
C430 C 0.849 0.79293 0.77867 0.0
C431 C 0.88778 0.84028 0.77059 0.0
H432 H 0.97114 0.9223 0.0991 0.0
H433 H 0.11993 0.96907 0.07173 0.0
H434 H 0.13771 0.91226 0.0914 0.0
H435 H 0.11511 0.85639 0.11818 0.0
H436 H 0.96646 0.81002 0.14552 0.0
H437 H 0.94432 0.85962 0.12399 0.0
C438 C 0.00716 0.91958 0.0973 0.0
C439 C 0.04449 0.95027 0.08413 0.0
C440 C 0.01727 0.88725 0.10872 0.0
C441 C 0.09065 0.94591 0.08181 0.0
C442 C 0.10096 0.91365 0.0931 0.0
C443 C 0.07746 0.85644 0.11922 0.0
C444 C 0.04244 0.82962 0.13339 0.0
C445 C 0.06519 0.88521 0.10687 0.0
C446 C 0.99391 0.83025 0.13467 0.0
C447 C 0.98136 0.8587 0.12242 0.0
H448 H 0.09031 0.9638 0.43205 0.0
H449 H 0.15981 0.12851 0.41496 0.0
H450 H 0.23619 0.1563 0.43529 0.0
H451 H 0.28125 0.13552 0.45907 0.0
H452 H 0.21323 0.97199 0.47669 0.0
H453 H 0.13844 0.94211 0.455 0.0
C454 C 0.12232 0.00568 0.43268 0.0
C455 C 0.11881 0.04394 0.42205 0.0
C456 C 0.16644 0.02174 0.44453 0.0
C457 C 0.16094 0.09807 0.42303 0.0
C458 C 0.20483 0.11417 0.43468 0.0
C459 C 0.25044 0.09322 0.45798 0.0
C460 C 0.25299 0.05594 0.46931 0.0
C461 C 0.20764 0.07655 0.44564 0.0
C462 C 0.21236 0.00132 0.46795 0.0
C463 C 0.16956 0.98432 0.45562 0.0
H464 H 0.09158 0.23898 0.7516 0.0
H465 H 0.15482 0.13122 0.75516 0.0
H466 H 0.21622 0.1868 0.7793 0.0
H467 H 0.24923 0.2636 0.80034 0.0
H468 H 0.18766 0.37238 0.79654 0.0
H469 H 0.12818 0.31862 0.77155 0.0
C470 C 0.1189 0.22768 0.75758 0.0
C471 C 0.11811 0.18064 0.75161 0.0
C472 C 0.1542 0.25981 0.7715 0.0
C473 C 0.15431 0.16706 0.75946 0.0
C474 C 0.18942 0.19876 0.77333 0.0
C475 C 0.22296 0.27564 0.79397 0.0
C476 C 0.22236 0.32151 0.80038 0.0
C477 C 0.18924 0.24481 0.77959 0.0
C478 C 0.1884 0.33691 0.79193 0.0
C479 C 0.15451 0.30625 0.77765 0.0
H480 H 0.96598 0.10964 0.67455 0.0
H481 H 0.90603 0.93846 0.6787 0.0
H482 H 0.83248 0.9114 0.65726 0.0
H483 H 0.7668 0.93241 0.63341 0.0
H484 H 0.83967 0.13544 0.6258 0.0
H485 H 0.92597 0.15665 0.65103 0.0
C486 C 0.93642 0.06867 0.67056 0.0
C487 C 0.93888 0.02469 0.67762 0.0
C488 C 0.89741 0.06038 0.65793 0.0
C489 C 0.90184 0.9702 0.67262 0.0
C490 C 0.85917 0.95382 0.66029 0.0
C491 C 0.79777 0.97399 0.63589 0.0
C492 C 0.78847 0.03105 0.62944 0.0
C493 C 0.8513 0.9917 0.65192 0.0
C494 C 0.84391 0.10298 0.63116 0.0
C495 C 0.89576 0.11561 0.64746 0.0
H496 H 0.88343 0.00083 0.00393 0.0
H497 H 0.92148 0.90251 0.03723 0.0
H498 H 0.88412 0.83076 0.01441 0.0
H499 H 0.85027 0.8003 0.98369 0.0
H500 H 0.8174 0.90062 0.94965 0.0
H501 H 0.84276 0.96712 0.97404 0.0
C502 C 0.88246 0.96324 0.00634 0.0
C503 C 0.90548 0.95712 0.02218 0.0
C504 C 0.86244 0.92278 0.99292 0.0
C505 C 0.90439 0.90836 0.02506 0.0
C506 C 0.88317 0.86736 0.01201 0.0
C507 C 0.84787 0.83635 0.98176 0.0
C508 C 0.83202 0.84566 0.96496 0.0
C509 C 0.86365 0.87482 0.99568 0.0
C510 C 0.82941 0.89264 0.96251 0.0
C511 C 0.84401 0.93067 0.97642 0.0
H512 H 0.94796 0.90967 0.36099 0.0
H513 H 0.11766 0.02094 0.35328 0.0
H514 H 0.12894 0.94785 0.34137 0.0
H515 H 0.09126 0.85201 0.33397 0.0
H516 H 0.92091 0.74109 0.34026 0.0
H517 H 0.9091 0.81436 0.35187 0.0
C518 C 0.98733 0.91786 0.35664 0.0
C519 C 0.03195 0.9705 0.35809 0.0
C520 C 0.99344 0.87572 0.34963 0.0
C521 C 0.08266 0.98074 0.35227 0.0
C522 C 0.08919 0.93896 0.3455 0.0
C523 C 0.05154 0.84391 0.33786 0.0
C524 C 0.00726 0.79103 0.33663 0.0
C525 C 0.04497 0.88627 0.34425 0.0
C526 C 0.95582 0.7813 0.34142 0.0
C527 C 0.94903 0.82316 0.348 0.0
H528 H 0.14052 0.96843 0.70898 0.0
H529 H 0.19988 0.12224 0.68389 0.0
H530 H 0.27176 0.11368 0.66989 0.0
H531 H 0.3157 0.06106 0.66383 0.0
H532 H 0.25296 0.90479 0.68761 0.0
H533 H 0.18491 0.91588 0.70295 0.0
C534 C 0.16966 0.00037 0.70065 0.0
C535 C 0.16507 0.04599 0.69755 0.0
C536 C 0.21023 0.99466 0.69229 0.0
C537 C 0.20264 0.08675 0.68653 0.0
C538 C 0.24367 0.08184 0.67847 0.0
C539 C 0.28731 0.02959 0.67247 0.0
C540 C 0.29061 0.98289 0.67471 0.0
C541 C 0.24745 0.0357 0.6811 0.0
C542 C 0.25266 0.94182 0.68569 0.0
C543 C 0.21333 0.94799 0.69453 0.0
H544 H 0.09329 0.23617 0.01359 0.0
H545 H 0.1593 0.13364 0.02483 0.0
H546 H 0.23069 0.18236 0.00338 0.0
H547 H 0.27277 0.25196 0.98067 0.0
H548 H 0.20648 0.35361 0.969 0.0
H549 H 0.13676 0.30727 0.99139 0.0
C550 C 0.12339 0.22455 0.01144 0.0
C551 C 0.12064 0.18108 0.02083 0.0
C552 C 0.16434 0.25261 0.999 0.0
C553 C 0.16017 0.16679 0.01781 0.0
C554 C 0.20109 0.19462 0.00552 0.0
C555 C 0.24345 0.26439 0.98322 0.0
C556 C 0.24539 0.30681 0.97347 0.0
C557 C 0.20334 0.23731 0.99596 0.0
C558 C 0.2064 0.32173 0.97659 0.0
C559 C 0.16644 0.2951 0.98931 0.0
H560 H 0.06302 0.18791 0.33796 0.0
H561 H 0.02367 0.23042 0.38882 0.0
H562 H 0.05182 0.32097 0.37821 0.0
H563 H 0.09703 0.39057 0.35572 0.0
H564 H 0.1461 0.3512 0.30609 0.0
H565 H 0.10475 0.25705 0.31478 0.0
C566 C 0.05946 0.21681 0.34646 0.0
C567 C 0.04081 0.20298 0.36398 0.0
C568 C 0.07808 0.26942 0.34054 0.0
C569 C 0.03753 0.24061 0.3752 0.0
C570 C 0.05388 0.29227 0.36918 0.0
C571 C 0.09765 0.36104 0.34669 0.0
C572 C 0.12375 0.37764 0.33021 0.0
C573 C 0.07561 0.30754 0.35206 0.0
C574 C 0.1255 0.33935 0.31874 0.0
C575 C 0.10209 0.28554 0.32374 0.0
loop_
_geom_bond_atom_site_label_1
_geom_bond_atom_site_label_2
_geom_bond_distance
_geom_bond_site_symmetry_2
_ccdc_geom_bond_type
Co0 O1 2.216 1_445 S
Co0 O2 2.091 . S
Co0 O4 2.004 . S
Co0 O10 2.012 1_445 S
Co0 O12 2.137 . S
Co0 O13 2.244 . S
O1 Co0 2.216 1_665 S
O1 C8 1.247 1_655 S
O2 Co0 2.091 . S
O2 C8 1.261 1_545 S
C3 O12 1.247 . S
C3 O13 1.272 . S
O4 Co0 2.004 . S
O4 C9 1.259 . S
Co5 O6 2.061 1_655 S
Co5 O11 2.052 . S
Co5 O13 2.135 1_655 S
O6 Co5 2.061 1_455 S
O6 C9 1.235 . S
C7 O10 1.229 . S
C7 O11 1.241 1_565 S
C8 O1 1.247 1_455 S
C8 O2 1.261 1_565 S
C9 O4 1.259 . S
C9 O6 1.235 . S
O10 Co0 2.012 1_665 S
O10 C7 1.229 . S
O11 Co5 2.052 . S
O11 C7 1.241 1_545 S
O12 Co0 2.137 . S
O12 C3 1.247 . S
O13 Co0 2.244 . S
O13 C3 1.272 . S
O13 Co5 2.135 1_455 S
Co14 O15 2.216 . S
Co14 O16 2.091 . S
Co14 O18 2.004 . S
Co14 O24 2.021 . S
Co14 O26 2.137 . S
Co14 O27 2.244 1_545 S
O15 Co14 2.216 . S
O15 C22 1.247 . S
O16 Co14 2.091 . S
O16 C22 1.261 . S
C17 O26 1.247 . S
C17 O27 1.272 1_545 S
O18 Co14 2.004 . S
O18 C23 1.259 . S
Co19 O20 2.061 1_565 S
Co19 O25 2.052 1_465 S
Co19 O27 2.135 . S
O20 Co19 2.061 1_545 S
O20 C23 1.235 . S
C21 O24 1.238 1_655 S
C21 O25 1.241 . S
C22 O15 1.247 . S
C22 O16 1.261 . S
C23 O18 1.259 . S
C23 O20 1.235 . S
O24 Co14 2.021 . S
O24 C21 1.238 1_455 S
O25 Co19 2.052 1_645 S
O25 C21 1.241 . S
O26 Co14 2.137 . S
O26 C17 1.247 . S
O27 Co14 2.244 1_565 S
O27 C17 1.272 1_565 S
O27 Co19 2.135 . S
Co28 O29 2.216 . S
Co28 O30 2.091 . S
Co28 O32 2.004 1_445 S
Co28 O38 2.021 . S
Co28 O40 2.137 1_455 S
Co28 O41 2.244 1_455 S
O29 Co28 2.216 . S
O29 C36 1.247 . S
O30 Co28 2.091 . S
O30 C36 1.261 . S
C31 O40 1.247 . S
C31 O41 1.272 . S
O32 Co28 2.004 1_665 S
O32 C37 1.259 . S
Co33 O34 2.061 . S
Co33 O39 2.052 1_655 S
Co33 O41 2.135 . S
O34 Co33 2.061 . S
O34 C37 1.235 1_545 S
C35 O38 1.238 . S
C35 O39 1.241 . S
C36 O29 1.247 . S
C36 O30 1.261 . S
C37 O32 1.259 . S
C37 O34 1.235 1_565 S
O38 Co28 2.021 . S
O38 C35 1.238 . S
O39 Co33 2.052 1_455 S
O39 C35 1.241 . S
O40 Co28 2.137 1_655 S
O40 C31 1.247 . S
O41 Co28 2.244 1_655 S
O41 C31 1.272 . S
O41 Co33 2.135 . S
C42 C43 1.560 1_655 S
C42 H103 0.959 . S
C42 H104 0.959 . S
C42 H105 0.960 . S
C43 C42 1.560 1_455 S
C43 O98 1.426 1_455 S
C43 H102 0.980 . S
C44 C45 1.407 . S
C44 C49 1.418 1_455 S
C44 O98 1.334 1_455 S
C45 C44 1.407 . S
C45 C46 1.360 . S
C45 H106 0.929 . S
C46 C45 1.360 . S
C46 C47 1.401 . S
C46 C50 1.527 . S
C47 C46 1.401 . S
C47 C48 1.405 1_455 S
C47 C80 1.587 . S
C48 C47 1.405 1_655 S
C48 C49 1.332 . S
C48 C51 1.496 . S
C49 C44 1.418 1_655 S
C49 C48 1.332 . S
C49 H107 0.929 . S
C50 C46 1.527 . S
C50 H108 0.959 . S
C50 H109 0.961 . S
C50 H110 0.961 . S
C51 C48 1.496 . S
C51 H111 0.960 . S
C51 H112 0.960 . S
C51 H113 0.961 . S
C52 C53 1.517 . S
C52 H115 0.961 . S
C52 H116 0.960 . S
C52 H117 0.959 . S
C53 C52 1.517 . S
C53 O101 1.468 . S
C53 H114 0.980 . S
C54 C55 1.349 . S
C54 C59 1.367 . S
C54 O101 1.408 . S
C55 C54 1.349 . S
C55 C56 1.407 . S
C55 H118 0.930 . S
C56 C55 1.407 . S
C56 C57 1.449 . S
C56 C60 1.535 1_455 S
C57 C56 1.449 . S
C57 C58 1.384 . S
C57 C82 1.553 . S
C58 C57 1.384 . S
C58 C59 1.364 . S
C58 C61 1.450 . S
C59 C54 1.367 . S
C59 C58 1.364 . S
C59 H119 0.931 . S
C60 C56 1.535 1_655 S
C60 H120 0.959 . S
C60 H121 0.961 . S
C60 H122 0.959 . S
C61 C58 1.450 . S
C61 H123 0.960 . S
C61 H124 0.960 . S
C61 H125 0.960 . S
C62 C63 1.309 . S
C62 C67 1.304 . S
C62 O100 1.435 . S
C63 C62 1.309 . S
C63 C64 1.476 . S
C63 H127 0.930 1_455 S
C64 C63 1.476 . S
C64 C65 1.400 . S
C64 C68 1.567 1_455 S
C65 C64 1.400 . S
C65 C66 1.373 . S
C65 C87 1.432 . S
C66 C65 1.373 . S
C66 C67 1.339 . S
C66 C69 1.530 . S
C67 C62 1.304 . S
C67 C66 1.339 . S
C67 H128 0.930 . S
C68 C64 1.567 1_655 S
C68 H129 0.961 . S
C68 H130 0.960 . S
C68 H131 0.958 . S
C69 C66 1.530 . S
C69 H132 0.961 . S
C69 H133 0.960 . S
C69 H134 0.960 . S
C70 C71 1.530 1_655 S
C70 H136 0.961 . S
C70 H137 0.961 . S
C70 H138 0.959 . S
C71 C70 1.530 1_455 S
C71 O99 1.412 1_455 S
C71 H135 0.980 . S
C72 C73 1.288 . S
C72 C77 1.377 1_655 S
C72 O99 1.393 . S
C73 C72 1.288 . S
C73 C74 1.369 . S
C73 H139 0.932 . S
C74 C73 1.369 . S
C74 C75 1.398 1_655 S
C74 C78 1.527 . S
C75 C74 1.398 1_455 S
C75 C76 1.380 . S
C75 C89 1.497 . S
C76 C75 1.380 . S
C76 C77 1.383 . S
C76 C79 1.603 . S
C77 C72 1.377 1_455 S
C77 C76 1.383 . S
C77 H140 0.929 . S
C78 C74 1.527 . S
C78 H141 0.961 . S
C78 H142 0.959 . S
C78 H143 0.959 . S
C79 C76 1.603 . S
C79 H144 0.960 . S
C79 H145 0.962 . S
C79 H146 0.961 . S
C80 C47 1.587 . S
C80 C81 1.360 . S
C80 C93 1.412 . S
C81 C80 1.360 . S
C81 C82 1.365 . S
C81 H147 0.929 . S
C82 C57 1.553 . S
C82 C81 1.365 . S
C82 C83 1.404 . S
C83 C82 1.404 . S
C83 C84 1.395 . S
C83 C94 1.451 . S
C84 C83 1.395 . S
C84 C85 1.322 . S
C84 H148 0.930 . S
C85 C84 1.322 . S
C85 C86 1.459 . S
C85 H149 0.929 . S
C86 C85 1.459 . S
C86 C87 1.445 . S
C86 C95 1.395 . S
C87 C65 1.432 . S
C87 C86 1.445 . S
C87 C88 1.370 . S
C88 C87 1.370 . S
C88 C89 1.438 . S
C88 H150 0.930 . S
C89 C75 1.497 . S
C89 C88 1.438 . S
C89 C90 1.360 . S
C90 C89 1.360 . S
C90 C91 1.401 . S
C90 C95 1.446 . S
C91 C90 1.401 . S
C91 C92 1.347 . S
C91 H151 0.929 . S
C92 C91 1.347 . S
C92 C93 1.455 . S
C92 H152 0.930 . S
C93 C80 1.412 . S
C93 C92 1.455 . S
C93 C94 1.331 . S
C94 C83 1.451 . S
C94 C93 1.331 . S
C94 C95 1.497 . S
C95 C86 1.395 . S
C95 C90 1.446 . S
C95 C94 1.497 . S
C96 C97 1.582 . S
C96 H153 0.962 . S
C96 H154 0.959 . S
C96 H155 0.958 . S
C97 C96 1.582 . S
C97 O100 1.458 . S
C97 H126 0.980 . S
O98 C43 1.426 1_655 S
O98 C44 1.334 1_655 S
O99 C71 1.412 1_655 S
O99 C72 1.393 . S
O100 C62 1.435 . S
O100 C97 1.458 . S
O101 C53 1.468 . S
O101 C54 1.408 . S
H102 C43 0.980 . S
H103 C42 0.959 . S
H104 C42 0.959 . S
H105 C42 0.960 . S
H106 C45 0.929 . S
H107 C49 0.929 . S
H108 C50 0.959 . S
H109 C50 0.961 . S
H110 C50 0.961 . S
H111 C51 0.960 . S
H112 C51 0.960 . S
H113 C51 0.961 . S
H114 C53 0.980 . S
H115 C52 0.961 . S
H116 C52 0.960 . S
H117 C52 0.959 . S
H118 C55 0.930 . S
H119 C59 0.931 . S
H120 C60 0.959 . S
H121 C60 0.961 . S
H122 C60 0.959 . S
H123 C61 0.960 . S
H124 C61 0.960 . S
H125 C61 0.960 . S
H126 C97 0.980 . S
H127 C63 0.930 1_655 S
H128 C67 0.930 . S
H129 C68 0.961 . S
H130 C68 0.960 . S
H131 C68 0.958 . S
H132 C69 0.961 . S
H133 C69 0.960 . S
H134 C69 0.960 . S
H135 C71 0.980 . S
H136 C70 0.961 . S
H137 C70 0.961 . S
H138 C70 0.959 . S
H139 C73 0.932 . S
H140 C77 0.929 . S
H141 C78 0.961 . S
H142 C78 0.959 . S
H143 C78 0.959 . S
H144 C79 0.960 . S
H145 C79 0.962 . S
H146 C79 0.961 . S
H147 C81 0.929 . S
H148 C84 0.930 . S
H149 C85 0.929 . S
H150 C88 0.930 . S
H151 C91 0.929 . S
H152 C92 0.930 . S
H153 C96 0.962 . S
H154 C96 0.959 . S
H155 C96 0.958 . S
C156 C157 1.560 1_565 S
C156 H217 0.959 . S
C156 H218 0.959 . S
C156 H219 0.948 1_565 S
C157 C156 1.560 1_545 S
C157 O212 1.426 1_545 S
C157 H216 0.980 . S
C158 C159 1.407 . S
C158 C163 1.418 1_545 S
C158 O212 1.334 1_545 S
C159 C158 1.407 . S
C159 C160 1.360 . S
C159 H220 0.929 . S
C160 C159 1.360 . S
C160 C161 1.401 . S
C160 C164 1.527 . S
C161 C160 1.401 . S
C161 C162 1.405 . S
C161 C194 1.587 . S
C162 C161 1.405 . S
C162 C163 1.332 1_545 S
C162 C165 1.496 1_545 S
C163 C158 1.418 1_565 S
C163 C162 1.332 1_565 S
C163 H221 0.929 . S
C164 C160 1.527 . S
C164 H222 0.959 . S
C164 H223 0.961 . S
C164 H224 0.961 . S
C165 C162 1.496 1_565 S
C165 H225 0.960 . S
C165 H226 0.960 . S
C165 H227 0.961 . S
C166 C167 1.517 . S
C166 H229 0.961 . S
C166 H230 0.960 . S
C166 H231 0.959 . S
C167 C166 1.517 . S
C167 O215 1.468 . S
C167 H228 0.980 . S
C168 C169 1.349 . S
C168 C173 1.367 . S
C168 O215 1.408 . S
C169 C168 1.349 . S
C169 C170 1.407 . S
C169 H232 0.930 . S
C170 C169 1.407 . S
C170 C171 1.449 . S
C170 C174 1.535 . S
C171 C170 1.449 . S
C171 C172 1.384 . S
C171 C196 1.553 . S
C172 C171 1.384 . S
C172 C173 1.364 . S
C172 C175 1.450 . S
C173 C168 1.367 . S
C173 C172 1.364 . S
C173 H233 0.931 . S
C174 C170 1.535 . S
C174 H234 0.959 . S
C174 H235 0.961 1_545 S
C174 H236 0.959 1_545 S
C175 C172 1.450 . S
C175 H237 0.960 . S
C175 H238 0.960 . S
C175 H239 0.960 . S
C176 C177 1.309 . S
C176 C181 1.304 . S
C176 O214 1.435 . S
C177 C176 1.309 . S
C177 C178 1.476 . S
C177 H241 0.930 . S
C178 C177 1.476 . S
C178 C179 1.400 . S
C178 C182 1.567 1_545 S
C179 C178 1.400 . S
C179 C180 1.373 . S
C179 C201 1.432 . S
C180 C179 1.373 . S
C180 C181 1.339 . S
C180 C183 1.530 . S
C181 C176 1.304 . S
C181 C180 1.339 . S
C181 H242 0.930 . S
C182 C178 1.567 1_565 S
C182 H243 0.961 1_565 S
C182 H244 0.960 . S
C182 H245 0.958 . S
C183 C180 1.530 . S
C183 H246 0.961 . S
C183 H247 0.960 . S
C183 H248 0.960 . S
C184 C185 1.530 . S
C184 H250 0.961 . S
C184 H251 0.961 1_545 S
C184 H252 0.959 1_545 S
C185 C184 1.530 . S
C185 O213 1.412 . S
C185 H249 0.980 . S
C186 C187 1.288 1_545 S
C186 C191 1.377 . S
C186 O213 1.393 . S
C187 C186 1.288 1_565 S
C187 C188 1.369 1_565 S
C187 H253 0.932 . S
C188 C187 1.369 1_545 S
C188 C189 1.398 . S
C188 C192 1.527 1_545 S
C189 C188 1.398 . S
C189 C190 1.380 . S
C189 C203 1.497 . S
C190 C189 1.380 . S
C190 C191 1.383 . S
C190 C193 1.603 . S
C191 C186 1.377 . S
C191 C190 1.383 . S
C191 H254 0.929 . S
C192 C188 1.527 1_565 S
C192 H255 0.961 . S
C192 H256 0.959 . S
C192 H257 0.959 . S
C193 C190 1.603 . S
C193 H258 0.960 . S
C193 H259 0.962 . S
C193 H260 0.961 . S
C194 C161 1.587 . S
C194 C195 1.360 . S
C194 C207 1.412 . S
C195 C194 1.360 . S
C195 C196 1.365 . S
C195 H261 0.929 . S
C196 C171 1.553 . S
C196 C195 1.365 . S
C196 C197 1.404 . S
C197 C196 1.404 . S
C197 C198 1.395 . S
C197 C208 1.451 . S
C198 C197 1.395 . S
C198 C199 1.322 . S
C198 H262 0.930 . S
C199 C198 1.322 . S
C199 C200 1.459 . S
C199 H263 0.929 . S
C200 C199 1.459 . S
C200 C201 1.445 . S
C200 C209 1.395 . S
C201 C179 1.432 . S
C201 C200 1.445 . S
C201 C202 1.370 . S
C202 C201 1.370 . S
C202 C203 1.438 . S
C202 H264 0.930 . S
C203 C189 1.497 . S
C203 C202 1.438 . S
C203 C204 1.360 . S
C204 C203 1.360 . S
C204 C205 1.401 . S
C204 C209 1.446 . S
C205 C204 1.401 . S
C205 C206 1.347 . S
C205 H265 0.929 . S
C206 C205 1.347 . S
C206 C207 1.455 . S
C206 H266 0.930 . S
C207 C194 1.412 . S
C207 C206 1.455 . S
C207 C208 1.331 . S
C208 C197 1.451 . S
C208 C207 1.331 . S
C208 C209 1.497 . S
C209 C200 1.395 . S
C209 C204 1.446 . S
C209 C208 1.497 . S
C210 C211 1.582 . S
C210 H267 0.962 . S
C210 H268 0.959 . S
C210 H269 0.958 . S
C211 C210 1.582 . S
C211 O214 1.458 . S
C211 H240 0.980 . S
O212 C157 1.426 1_565 S
O212 C158 1.334 1_565 S
O213 C185 1.412 . S
O213 C186 1.393 . S
O214 C176 1.435 . S
O214 C211 1.458 . S
O215 C167 1.468 . S
O215 C168 1.408 . S
H216 C157 0.980 . S
H217 C156 0.959 . S
H218 C156 0.959 . S
H219 C156 0.948 1_545 S
H220 C159 0.929 . S
H221 C163 0.929 . S
H222 C164 0.959 . S
H223 C164 0.961 . S
H224 C164 0.961 . S
H225 C165 0.960 . S
H226 C165 0.960 . S
H227 C165 0.961 . S
H228 C167 0.980 . S
H229 C166 0.961 . S
H230 C166 0.960 . S
H231 C166 0.959 . S
H232 C169 0.930 . S
H233 C173 0.931 . S
H234 C174 0.959 . S
H235 C174 0.961 1_565 S
H236 C174 0.959 1_565 S
H237 C175 0.960 . S
H238 C175 0.960 . S
H239 C175 0.960 . S
H240 C211 0.980 . S
H241 C177 0.930 . S
H242 C181 0.930 . S
H243 C182 0.961 1_545 S
H244 C182 0.960 . S
H245 C182 0.958 . S
H246 C183 0.961 . S
H247 C183 0.960 . S
H248 C183 0.960 . S
H249 C185 0.980 . S
H250 C184 0.961 . S
H251 C184 0.961 1_565 S
H252 C184 0.959 1_565 S
H253 C187 0.932 . S
H254 C191 0.929 . S
H255 C192 0.961 . S
H256 C192 0.959 . S
H257 C192 0.959 . S
H258 C193 0.960 . S
H259 C193 0.962 . S
H260 C193 0.961 . S
H261 C195 0.929 . S
H262 C198 0.930 . S
H263 C199 0.929 . S
H264 C202 0.930 . S
H265 C205 0.929 . S
H266 C206 0.930 . S
H267 C210 0.962 . S
H268 C210 0.959 . S
H269 C210 0.958 . S
C270 C271 1.560 . S
C270 H331 0.959 . S
C270 H332 0.959 . S
C270 H333 0.960 . S
C271 C270 1.560 . S
C271 O326 1.426 . S
C271 H330 0.980 . S
C272 C273 1.407 . S
C272 C277 1.418 . S
C272 O326 1.334 . S
C273 C272 1.407 . S
C273 C274 1.360 . S
C273 H334 0.929 . S
C274 C273 1.360 . S
C274 C275 1.401 . S
C274 C278 1.527 . S
C275 C274 1.401 . S
C275 C276 1.405 . S
C275 C308 1.587 . S
C276 C275 1.405 . S
C276 C277 1.332 . S
C276 C279 1.496 . S
C277 C272 1.418 . S
C277 C276 1.332 . S
C277 H335 0.929 . S
C278 C274 1.527 . S
C278 H336 0.959 . S
C278 H337 0.961 . S
C278 H338 0.961 . S
C279 C276 1.496 . S
C279 H339 0.960 . S
C279 H340 0.960 . S
C279 H341 0.961 . S
C280 C281 1.517 . S
C280 H343 0.961 . S
C280 H344 0.960 . S
C280 H345 0.959 . S
C281 C280 1.517 . S
C281 O329 1.468 . S
C281 H342 0.980 . S
C282 C283 1.349 . S
C282 C287 1.367 . S
C282 O329 1.408 . S
C283 C282 1.349 . S
C283 C284 1.407 . S
C283 H346 0.930 . S
C284 C283 1.407 . S
C284 C285 1.449 . S
C284 C288 1.535 . S
C285 C284 1.449 . S
C285 C286 1.384 . S
C285 C310 1.553 . S
C286 C285 1.384 . S
C286 C287 1.364 . S
C286 C289 1.450 . S
C287 C282 1.367 . S
C287 C286 1.364 . S
C287 H347 0.931 . S
C288 C284 1.535 . S
C288 H348 0.959 . S
C288 H349 0.961 . S
C288 H350 0.959 . S
C289 C286 1.450 . S
C289 H351 0.960 . S
C289 H352 0.960 . S
C289 H353 0.960 . S
C290 C291 1.309 . S
C290 C295 1.304 . S
C290 O328 1.435 . S
C291 C290 1.309 . S
C291 C292 1.476 . S
C291 H355 0.930 . S
C292 C291 1.476 . S
C292 C293 1.400 . S
C292 C296 1.567 . S
C293 C292 1.400 . S
C293 C294 1.373 . S
C293 C315 1.432 . S
C294 C293 1.373 . S
C294 C295 1.339 . S
C294 C297 1.530 . S
C295 C290 1.304 . S
C295 C294 1.339 . S
C295 H356 0.930 . S
C296 C292 1.567 . S
C296 H357 0.961 . S
C296 H358 0.960 . S
C296 H359 0.958 . S
C297 C294 1.530 . S
C297 H360 0.961 . S
C297 H361 0.960 . S
C297 H362 0.960 . S
C298 C299 1.530 . S
C298 H364 0.961 . S
C298 H365 0.961 . S
C298 H366 0.959 . S
C299 C298 1.530 . S
C299 O327 1.412 . S
C299 H363 0.980 . S
C300 C301 1.288 . S
C300 C305 1.377 . S
C300 O327 1.393 . S
C301 C300 1.288 . S
C301 C302 1.369 . S
C301 H367 0.932 . S
C302 C301 1.369 . S
C302 C303 1.398 . S
C302 C306 1.527 . S
C303 C302 1.398 . S
C303 C304 1.380 . S
C303 C317 1.497 . S
C304 C303 1.380 . S
C304 C305 1.383 . S
C304 C307 1.603 . S
C305 C300 1.377 . S
C305 C304 1.383 . S
C305 H368 0.929 . S
C306 C302 1.527 . S
C306 H369 0.961 . S
C306 H370 0.959 . S
C306 H371 0.959 . S
C307 C304 1.603 . S
C307 H372 0.960 . S
C307 H373 0.962 . S
C307 H374 0.961 . S
C308 C275 1.587 . S
C308 C309 1.360 . S
C308 C321 1.412 . S
C309 C308 1.360 . S
C309 C310 1.365 . S
C309 H375 0.929 . S
C310 C285 1.553 . S
C310 C309 1.365 . S
C310 C311 1.404 . S
C311 C310 1.404 . S
C311 C312 1.395 . S
C311 C322 1.451 . S
C312 C311 1.395 . S
C312 C313 1.322 . S
C312 H376 0.930 . S
C313 C312 1.322 . S
C313 C314 1.459 . S
C313 H377 0.929 . S
C314 C313 1.459 . S
C314 C315 1.445 . S
C314 C323 1.395 . S
C315 C293 1.432 . S
C315 C314 1.445 . S
C315 C316 1.370 . S
C316 C315 1.370 . S
C316 C317 1.438 . S
C316 H378 0.930 . S
C317 C303 1.497 . S
C317 C316 1.438 . S
C317 C318 1.360 . S
C318 C317 1.360 . S
C318 C319 1.401 . S
C318 C323 1.446 . S
C319 C318 1.401 . S
C319 C320 1.347 . S
C319 H379 0.929 . S
C320 C319 1.347 . S
C320 C321 1.455 . S
C320 H380 0.930 . S
C321 C308 1.412 . S
C321 C320 1.455 . S
C321 C322 1.331 . S
C322 C311 1.451 . S
C322 C321 1.331 . S
C322 C323 1.497 . S
C323 C314 1.395 . S
C323 C318 1.446 . S
C323 C322 1.497 . S
C324 C325 1.582 . S
C324 H381 0.962 . S
C324 H382 0.959 . S
C324 H383 0.958 . S
C325 C324 1.582 . S
C325 O328 1.458 . S
C325 H354 0.980 . S
O326 C271 1.426 . S
O326 C272 1.334 . S
O327 C299 1.412 . S
O327 C300 1.393 . S
O328 C290 1.435 . S
O328 C325 1.458 . S
O329 C281 1.468 . S
O329 C282 1.408 . S
H330 C271 0.980 . S
H331 C270 0.959 . S
H332 C270 0.959 . S
H333 C270 0.960 . S
H334 C273 0.929 . S
H335 C277 0.929 . S
H336 C278 0.959 . S
H337 C278 0.961 . S
H338 C278 0.961 . S
H339 C279 0.960 . S
H340 C279 0.960 . S
H341 C279 0.961 . S
H342 C281 0.980 . S
H343 C280 0.961 . S
H344 C280 0.960 . S
H345 C280 0.959 . S
H346 C283 0.930 . S
H347 C287 0.931 . S
H348 C288 0.959 . S
H349 C288 0.961 . S
H350 C288 0.959 . S
H351 C289 0.960 . S
H352 C289 0.960 . S
H353 C289 0.960 . S
H354 C325 0.980 . S
H355 C291 0.930 . S
H356 C295 0.930 . S
H357 C296 0.961 . S
H358 C296 0.960 . S
H359 C296 0.958 . S
H360 C297 0.961 . S
H361 C297 0.960 . S
H362 C297 0.960 . S
H363 C299 0.980 . S
H364 C298 0.961 . S
H365 C298 0.961 . S
H366 C298 0.959 . S
H367 C301 0.932 . S
H368 C305 0.929 . S
H369 C306 0.961 . S
H370 C306 0.959 . S
H371 C306 0.959 . S
H372 C307 0.960 . S
H373 C307 0.962 . S
H374 C307 0.961 . S
H375 C309 0.929 . S
H376 C312 0.930 . S
H377 C313 0.929 . S
H378 C316 0.930 . S
H379 C319 0.929 . S
H380 C320 0.930 . S
H381 C324 0.962 . S
H382 C324 0.959 . S
H383 C324 0.958 . S
H384 C390 0.930 . S
H385 C393 0.930 . S
H386 C394 0.930 . S
H387 C395 0.930 . S
H388 C398 0.930 . S
H389 C399 0.930 . S
C390 H384 0.930 . S
C390 C391 1.355 1_655 S
C390 C392 1.415 . S
C391 C390 1.355 1_455 S
C391 C393 1.419 . S
C392 C390 1.415 . S
C392 C397 1.425 1_655 S
C392 C399 1.409 . S
C393 H385 0.930 . S
C393 C391 1.419 . S
C393 C394 1.362 . S
C394 H386 0.930 . S
C394 C393 1.362 . S
C394 C397 1.409 . S
C395 H387 0.930 . S
C395 C396 1.355 . S
C395 C397 1.415 . S
C396 C395 1.355 . S
C396 C398 1.419 1_455 S
C397 C392 1.425 1_455 S
C397 C394 1.409 . S
C397 C395 1.415 . S
C398 H388 0.930 . S
C398 C396 1.419 1_655 S
C398 C399 1.362 . S
C399 H389 0.930 . S
C399 C392 1.409 . S
C399 C398 1.362 . S
H400 C406 0.930 . S
H401 C409 0.930 . S
H402 C410 0.930 . S
H403 C411 0.930 . S
H404 C414 0.930 . S
H405 C415 0.930 . S
C406 H400 0.930 . S
C406 C407 1.355 . S
C406 C408 1.415 . S
C407 C406 1.355 . S
C407 C409 1.419 . S
C408 C406 1.415 . S
C408 C413 1.425 . S
C408 C415 1.409 . S
C409 H401 0.930 . S
C409 C407 1.419 . S
C409 C410 1.362 . S
C410 H402 0.930 . S
C410 C409 1.362 . S
C410 C413 1.409 . S
C411 H403 0.930 . S
C411 C412 1.355 . S
C411 C413 1.415 . S
C412 C411 1.355 . S
C412 C414 1.419 . S
C413 C408 1.425 . S
C413 C410 1.409 . S
C413 C411 1.415 . S
C414 H404 0.930 . S
C414 C412 1.419 . S
C414 C415 1.362 . S
C415 H405 0.930 . S
C415 C408 1.409 . S
C415 C414 1.362 . S
H416 C422 0.930 . S
H417 C425 0.930 . S
H418 C426 0.930 . S
H419 C427 0.930 . S
H420 C430 0.930 . S
H421 C431 0.930 . S
C422 H416 0.930 . S
C422 C423 1.355 . S
C422 C424 1.415 . S
C423 C422 1.355 . S
C423 C425 1.419 . S
C424 C422 1.415 . S
C424 C429 1.425 . S
C424 C431 1.409 . S
C425 H417 0.930 . S
C425 C423 1.419 . S
C425 C426 1.362 . S
C426 H418 0.930 . S
C426 C425 1.362 . S
C426 C429 1.409 . S
C427 H419 0.930 . S
C427 C428 1.355 . S
C427 C429 1.415 . S
C428 C427 1.355 . S
C428 C430 1.419 . S
C429 C424 1.425 . S
C429 C426 1.409 . S
C429 C427 1.415 . S
C430 H420 0.930 . S
C430 C428 1.419 . S
C430 C431 1.362 . S
C431 H421 0.930 . S
C431 C424 1.409 . S
C431 C430 1.362 . S
H432 C438 0.927 1_655 S
H433 C441 0.930 . S
H434 C442 0.930 . S
H435 C443 0.930 . S
H436 C446 0.930 . S
H437 C447 0.930 . S
C438 H432 0.927 1_455 S
C438 C439 1.356 . S
C438 C440 1.416 . S
C439 C438 1.356 . S
C439 C441 1.419 . S
C440 C438 1.416 . S
C440 C445 1.425 . S
C440 C447 1.409 1_455 S
C441 H433 0.930 . S
C441 C439 1.419 . S
C441 C442 1.362 . S
C442 H434 0.930 . S
C442 C441 1.362 . S
C442 C445 1.409 . S
C443 H435 0.930 . S
C443 C444 1.355 . S
C443 C445 1.415 . S
C444 C443 1.355 . S
C444 C446 1.419 1_455 S
C445 C440 1.425 . S
C445 C442 1.409 . S
C445 C443 1.415 . S
C446 H436 0.930 . S
C446 C444 1.419 1_655 S
C446 C447 1.362 . S
C447 H437 0.930 . S
C447 C440 1.409 1_655 S
C447 C446 1.362 . S
H448 C454 0.930 . S
H449 C457 0.930 . S
H450 C458 0.930 . S
H451 C459 0.930 . S
H452 C462 0.930 1_565 S
H453 C463 0.930 1_565 S
C454 H448 0.930 . S
C454 C455 1.355 . S
C454 C456 1.415 . S
C455 C454 1.355 . S
C455 C457 1.419 . S
C456 C454 1.415 . S
C456 C461 1.425 . S
C456 C463 1.409 . S
C457 H449 0.930 . S
C457 C455 1.419 . S
C457 C458 1.362 . S
C458 H450 0.930 . S
C458 C457 1.362 . S
C458 C461 1.409 . S
C459 H451 0.930 . S
C459 C460 1.355 . S
C459 C461 1.415 . S
C460 C459 1.355 . S
C460 C462 1.419 . S
C461 C456 1.425 . S
C461 C458 1.409 . S
C461 C459 1.415 . S
C462 H452 0.930 1_545 S
C462 C460 1.419 . S
C462 C463 1.362 . S
C463 H453 0.930 1_545 S
C463 C456 1.409 . S
C463 C462 1.362 . S
H464 C470 0.930 . S
H465 C473 0.930 . S
H466 C474 0.930 . S
H467 C475 0.930 . S
H468 C478 0.930 . S
H469 C479 0.930 . S
C470 H464 0.930 . S
C470 C471 1.355 . S
C470 C472 1.415 . S
C471 C470 1.355 . S
C471 C473 1.419 . S
C472 C470 1.415 . S
C472 C477 1.425 . S
C472 C479 1.409 . S
C473 H465 0.930 . S
C473 C471 1.419 . S
C473 C474 1.362 . S
C474 H466 0.930 . S
C474 C473 1.362 . S
C474 C477 1.409 . S
C475 H467 0.930 . S
C475 C476 1.355 . S
C475 C477 1.415 . S
C476 C475 1.355 . S
C476 C478 1.419 . S
C477 C472 1.425 . S
C477 C474 1.409 . S
C477 C475 1.415 . S
C478 H468 0.930 . S
C478 C476 1.419 . S
C478 C479 1.362 . S
C479 H469 0.930 . S
C479 C472 1.409 . S
C479 C478 1.362 . S
H480 C486 0.930 . S
H481 C489 0.930 . S
H482 C490 0.930 . S
H483 C491 0.930 1_565 S
H484 C494 0.930 . S
H485 C495 0.930 . S
C486 H480 0.930 . S
C486 C487 1.355 . S
C486 C488 1.415 . S
C487 C486 1.355 . S
C487 C489 1.419 1_545 S
C488 C486 1.415 . S
C488 C493 1.425 . S
C488 C495 1.409 . S
C489 H481 0.930 . S
C489 C487 1.419 1_565 S
C489 C490 1.362 . S
C490 H482 0.930 . S
C490 C489 1.362 . S
C490 C493 1.409 1_565 S
C491 H483 0.930 1_545 S
C491 C492 1.355 . S
C491 C493 1.415 . S
C492 C491 1.355 . S
C492 C494 1.419 . S
C493 C488 1.425 . S
C493 C490 1.409 1_545 S
C493 C491 1.415 . S
C494 H484 0.930 . S
C494 C492 1.419 . S
C494 C495 1.362 . S
C495 H485 0.930 . S
C495 C488 1.409 . S
C495 C494 1.362 . S
H496 C502 0.930 . S
H497 C505 0.930 . S
H498 C506 0.930 . S
H499 C507 0.930 . S
H500 C510 0.930 . S
H501 C511 0.930 . S
C502 H496 0.930 . S
C502 C503 1.355 . S
C502 C504 1.412 . S
C503 C502 1.355 . S
C503 C505 1.419 . S
C504 C502 1.412 . S
C504 C509 1.422 . S
C504 C511 1.414 1_554 S
C505 H497 0.930 . S
C505 C503 1.419 . S
C505 C506 1.362 . S
C506 H498 0.930 . S
C506 C505 1.362 . S
C506 C509 1.409 . S
C507 H499 0.930 . S
C507 C508 1.355 1_554 S
C507 C509 1.415 . S
C508 C507 1.355 1_556 S
C508 C510 1.419 . S
C509 C504 1.422 . S
C509 C506 1.409 . S
C509 C507 1.415 . S
C510 H500 0.930 . S
C510 C508 1.419 . S
C510 C511 1.362 . S
C511 H501 0.930 . S
C511 C504 1.414 1_556 S
C511 C510 1.362 . S
H512 C518 0.930 . S
H513 C521 0.930 . S
H514 C522 0.930 . S
H515 C523 0.930 . S
H516 C526 0.930 1_655 S
H517 C527 0.930 1_655 S
C518 H512 0.930 . S
C518 C519 1.355 . S
C518 C520 1.415 . S
C519 C518 1.355 . S
C519 C521 1.419 . S
C520 C518 1.415 . S
C520 C525 1.425 . S
C520 C527 1.409 . S
C521 H513 0.930 . S
C521 C519 1.419 . S
C521 C522 1.362 . S
C522 H514 0.930 . S
C522 C521 1.362 . S
C522 C525 1.409 . S
C523 H515 0.930 . S
C523 C524 1.355 . S
C523 C525 1.415 . S
C524 C523 1.355 . S
C524 C526 1.419 . S
C525 C520 1.425 . S
C525 C522 1.409 . S
C525 C523 1.415 . S
C526 H516 0.930 1_455 S
C526 C524 1.419 . S
C526 C527 1.362 . S
C527 H517 0.930 1_455 S
C527 C520 1.409 . S
C527 C526 1.362 . S
H528 C534 0.930 . S
H529 C537 0.930 . S
H530 C538 0.930 . S
H531 C539 0.930 . S
H532 C542 0.930 . S
H533 C543 0.930 . S
C534 H528 0.930 . S
C534 C535 1.355 . S
C534 C536 1.415 . S
C535 C534 1.355 . S
C535 C537 1.419 . S
C536 C534 1.415 . S
C536 C541 1.425 . S
C536 C543 1.409 . S
C537 H529 0.930 . S
C537 C535 1.419 . S
C537 C538 1.362 . S
C538 H530 0.930 . S
C538 C537 1.362 . S
C538 C541 1.409 . S
C539 H531 0.930 . S
C539 C540 1.355 . S
C539 C541 1.415 . S
C540 C539 1.355 . S
C540 C542 1.419 . S
C541 C536 1.425 . S
C541 C538 1.409 . S
C541 C539 1.415 . S
C542 H532 0.930 . S
C542 C540 1.419 . S
C542 C543 1.362 . S
C543 H533 0.930 . S
C543 C536 1.409 . S
C543 C542 1.362 . S
H544 C550 0.930 . S
H545 C553 0.930 . S
H546 C554 0.930 . S
H547 C555 0.930 . S
H548 C558 0.930 . S
H549 C559 0.930 . S
C550 H544 0.930 . S
C550 C551 1.355 . S
C550 C552 1.415 . S
C551 C550 1.355 . S
C551 C553 1.419 . S
C552 C550 1.415 . S
C552 C557 1.425 1_554 S
C552 C559 1.409 . S
C553 H545 0.930 . S
C553 C551 1.419 . S
C553 C554 1.362 1_554 S
C554 H546 0.930 . S
C554 C553 1.362 1_556 S
C554 C557 1.409 . S
C555 H547 0.930 . S
C555 C556 1.355 . S
C555 C557 1.415 . S
C556 C555 1.355 . S
C556 C558 1.419 . S
C557 C552 1.425 1_556 S
C557 C554 1.409 . S
C557 C555 1.415 . S
C558 H548 0.930 . S
C558 C556 1.419 . S
C558 C559 1.362 1_556 S
C559 H549 0.930 . S
C559 C552 1.409 . S
C559 C558 1.362 1_554 S
H560 C566 0.930 . S
H561 C569 0.930 . S
H562 C570 0.930 1_655 S
H563 C571 0.930 . S
H564 C574 0.930 . S
H565 C575 0.930 . S
C566 H560 0.930 . S
C566 C567 1.355 . S
C566 C568 1.415 . S
C567 C566 1.355 . S
C567 C569 1.419 . S
C568 C566 1.415 . S
C568 C573 1.425 . S
C568 C575 1.409 . S
C569 H561 0.930 . S
C569 C567 1.419 . S
C569 C570 1.362 . S
C570 H562 0.930 1_455 S
C570 C569 1.362 . S
C570 C573 1.409 . S
C571 H563 0.930 . S
C571 C572 1.355 . S
C571 C573 1.415 . S
C572 C571 1.355 . S
C572 C574 1.419 . S
C573 C568 1.425 . S
C573 C570 1.409 . S
C573 C571 1.415 . S
C574 H564 0.930 . S
C574 C572 1.419 . S
C574 C575 1.362 . S
C575 H565 0.930 . S
C575 C568 1.409 . S
C575 C574 1.362 . S
C396 C97 1.193 . S
C391 C3 1.566 . S
C407 C21 1.581 . S
C412 C211 1.104 . S
C423 C37 1.330 . S
C428 C271 1.101 . S
C439 C8 1.428 . S
C444 C71 1.135 . S
C460 C185 1.123 . S
C455 C23 1.453 . S
C471 C35 1.499 . S
C476 C281 0.862 . S
C492 C167 0.876 . S
C487 C31 1.494 . S
C503 C7 1.435 . S
C508 C299 1.052 . S
C524 C43 1.163 . S
C519 C17 1.360 1_565 S
C540 C157 0.970 . S
C535 C36 1.325 . S
C556 C325 1.199 . S
C551 C9 1.563 . S
C567 C22 1.497 . S
C572 C53 0.942 . S
