# Generated by pormake.
# Topology the, (3,8)-cn, num edge types: 1
# Building blocks:
#     Node 0, Type 0, BuildingBlock: KAKCAD_clean_linker_0, # of connection points: 3
#     Node 1, Type 0, BuildingBlock: KAKCAD_clean_linker_0, # of connection points: 3
#     Node 2, Type 0, BuildingBlock: KAKCAD_clean_linker_0, # of connection points: 3
#     Node 3, Type 0, BuildingBlock: KAKCAD_clean_linker_0, # of connection points: 3
#     Node 4, Type 0, BuildingBlock: KAKCAD_clean_linker_0, # of connection points: 3
#     Node 5, Type 0, BuildingBlock: KAKCAD_clean_linker_0, # of connection points: 3
#     Node 6, Type 0, BuildingBlock: KAKCAD_clean_linker_0, # of connection points: 3
#     Node 7, Type 0, BuildingBlock: KAKCAD_clean_linker_0, # of connection points: 3
#     Node 8, Type 1, BuildingBlock: GIZVER_clean_sbu_0, # of connection points: 8
#     Node 9, Type 1, BuildingBlock: GIZVER_clean_sbu_0, # of connection points: 8
#     Node 10, Type 1, BuildingBlock: GIZVER_clean_sbu_0, # of connection points: 8
#     Edge 11, Type (0, 1), BuildingBlock: EZIPEK_clean_linker_0, # of connection points: 2
#     Edge 12, Type (0, 1), BuildingBlock: EZIPEK_clean_linker_0, # of connection points: 2
#     Edge 13, Type (0, 1), BuildingBlock: EZIPEK_clean_linker_0, # of connection points: 2
#     Edge 14, Type (0, 1), BuildingBlock: EZIPEK_clean_linker_0, # of connection points: 2
#     Edge 15, Type (0, 1), BuildingBlock: EZIPEK_clean_linker_0, # of connection points: 2
#     Edge 16, Type (0, 1), BuildingBlock: EZIPEK_clean_linker_0, # of connection points: 2
#     Edge 17, Type (0, 1), BuildingBlock: EZIPEK_clean_linker_0, # of connection points: 2
#     Edge 18, Type (0, 1), BuildingBlock: EZIPEK_clean_linker_0, # of connection points: 2
#     Edge 19, Type (0, 1), BuildingBlock: EZIPEK_clean_linker_0, # of connection points: 2
#     Edge 20, Type (0, 1), BuildingBlock: EZIPEK_clean_linker_0, # of connection points: 2
#     Edge 21, Type (0, 1), BuildingBlock: EZIPEK_clean_linker_0, # of connection points: 2
#     Edge 22, Type (0, 1), BuildingBlock: EZIPEK_clean_linker_0, # of connection points: 2
#     Edge 23, Type (0, 1), BuildingBlock: EZIPEK_clean_linker_0, # of connection points: 2
#     Edge 24, Type (0, 1), BuildingBlock: EZIPEK_clean_linker_0, # of connection points: 2
#     Edge 25, Type (0, 1), BuildingBlock: EZIPEK_clean_linker_0, # of connection points: 2
#     Edge 26, Type (0, 1), BuildingBlock: EZIPEK_clean_linker_0, # of connection points: 2
#     Edge 27, Type (0, 1), BuildingBlock: EZIPEK_clean_linker_0, # of connection points: 2
#     Edge 28, Type (0, 1), BuildingBlock: EZIPEK_clean_linker_0, # of connection points: 2
#     Edge 29, Type (0, 1), BuildingBlock: EZIPEK_clean_linker_0, # of connection points: 2
#     Edge 30, Type (0, 1), BuildingBlock: EZIPEK_clean_linker_0, # of connection points: 2
#     Edge 31, Type (0, 1), BuildingBlock: EZIPEK_clean_linker_0, # of connection points: 2
#     Edge 32, Type (0, 1), BuildingBlock: EZIPEK_clean_linker_0, # of connection points: 2
#     Edge 33, Type (0, 1), BuildingBlock: EZIPEK_clean_linker_0, # of connection points: 2
#     Edge 34, Type (0, 1), BuildingBlock: EZIPEK_clean_linker_0, # of connection points: 2
# Relax obj value: 0.048
# Max RMSD: 0.138
# Mean RMSD: 0.073
data_MOF--net-the--node1-GIZVER_clean_sbu_0--node2-KAKCAD_clean_linker_0--edge1-EZIPEK_clean_linker_0
_symmetry_space_group_name_H-M    P1
_symmetry_Int_Tables_number       1
_symmetry_cell_setting            triclinic
loop_
_symmetry_equiv_pos_as_xyz
'x, y, z'
_cell_length_a     39.783792
_cell_length_b     37.584797
_cell_length_c     34.391294
_cell_angle_alpha  87.012813
_cell_angle_beta   95.874746
_cell_angle_gamma 104.26727
loop_
_atom_site_label
_atom_site_type_symbol
_atom_site_fract_x
_atom_site_fract_y
_atom_site_fract_z
_atom_type_partial_charge
C0 C 0.35431 0.383 0.24813 0.0
C1 C 0.36534 0.42137 0.24776 0.0
C2 C 0.3418 0.36398 0.28145 0.0
C3 C 0.34003 0.38311 0.31482 0.0
C4 C 0.34951 0.42171 0.31383 0.0
C5 C 0.36237 0.44083 0.2804 0.0
C6 C 0.32918 0.3623 0.35072 0.0
C7 C 0.34437 0.3336 0.36448 0.0
C8 C 0.33206 0.31096 0.39641 0.0
C9 C 0.30468 0.31821 0.41486 0.0
C10 C 0.29083 0.34815 0.40269 0.0
C11 C 0.30295 0.37002 0.3704 0.0
C12 C 0.26373 0.35672 0.42386 0.0
C13 C 0.23491 0.32888 0.43374 0.0
C14 C 0.26646 0.39309 0.43389 0.0
C15 C 0.2401 0.40178 0.45214 0.0
C16 C 0.21084 0.37421 0.46057 0.0
C17 C 0.34781 0.2801 0.41056 0.0
C18 C 0.36326 0.26246 0.38471 0.0
C19 C 0.34792 0.26819 0.45014 0.0
C20 C 0.36271 0.23932 0.46327 0.0
C21 C 0.37935 0.22312 0.43766 0.0
C22 C 0.37969 0.23501 0.39837 0.0
C23 C 0.20849 0.33762 0.45209 0.0
H24 H 0.35667 0.36774 0.22308 0.0
H25 H 0.3341 0.33424 0.28143 0.0
H26 H 0.34828 0.43691 0.33935 0.0
H27 H 0.3712 0.47049 0.28046 0.0
H28 H 0.36608 0.32944 0.35022 0.0
H29 H 0.29123 0.3923 0.35988 0.0
H30 H 0.2941 0.30088 0.439 0.0
H31 H 0.23227 0.30066 0.42608 0.0
H32 H 0.28877 0.41483 0.42713 0.0
H33 H 0.24191 0.43016 0.45854 0.0
H34 H 0.36283 0.26967 0.35384 0.0
H35 H 0.33729 0.28146 0.47144 0.0
H36 H 0.18569 0.31628 0.45824 0.0
H37 H 0.39245 0.22276 0.37814 0.0
H38 H 0.36234 0.23052 0.49376 0.0
C39 C 0.80318 0.42546 0.37326 0.0
C40 C 0.82666 0.40528 0.39001 0.0
C41 C 0.77213 0.40788 0.35177 0.0
C42 C 0.76383 0.36965 0.34653 0.0
C43 C 0.78794 0.34974 0.3627 0.0
C44 C 0.81894 0.36734 0.3842 0.0
C45 C 0.72956 0.35034 0.32599 0.0
C46 C 0.71448 0.36625 0.29263 0.0
C47 C 0.68157 0.34859 0.27426 0.0
C48 C 0.66379 0.31457 0.29009 0.0
C49 C 0.67845 0.29803 0.32302 0.0
C50 C 0.71127 0.31609 0.3406 0.0
C51 C 0.65917 0.26226 0.33984 0.0
C52 C 0.62377 0.25629 0.34611 0.0
C53 C 0.67628 0.23411 0.35061 0.0
C54 C 0.65852 0.20096 0.36756 0.0
C55 C 0.62344 0.19547 0.37468 0.0
C56 C 0.66506 0.36588 0.23935 0.0
C57 C 0.66828 0.4041 0.2366 0.0
C58 C 0.64438 0.3441 0.20936 0.0
C59 C 0.62612 0.35976 0.17878 0.0
C60 C 0.62832 0.39764 0.17714 0.0
C61 C 0.65021 0.41976 0.20585 0.0
C62 C 0.60615 0.22332 0.36352 0.0
H63 H 0.80863 0.45477 0.37741 0.0
H64 H 0.75416 0.42411 0.34023 0.0
H65 H 0.78283 0.32042 0.35884 0.0
H66 H 0.83678 0.35129 0.39666 0.0
H67 H 0.72869 0.39214 0.2806 0.0
H68 H 0.72199 0.30396 0.36678 0.0
H69 H 0.63823 0.30091 0.27701 0.0
H70 H 0.60992 0.27749 0.33844 0.0
H71 H 0.70342 0.2377 0.34583 0.0
H72 H 0.67231 0.17979 0.37574 0.0
H73 H 0.68357 0.42186 0.25912 0.0
H74 H 0.64175 0.31472 0.20981 0.0
H75 H 0.5791 0.21967 0.36874 0.0
H76 H 0.65208 0.44903 0.20539 0.0
H77 H 0.60933 0.34211 0.1571 0.0
C78 C 0.62676 0.66891 0.21942 0.0
C79 C 0.6434 0.66059 0.18824 0.0
C80 C 0.64614 0.6894 0.25058 0.0
C81 C 0.68257 0.70192 0.25112 0.0
C82 C 0.69895 0.69439 0.21913 0.0
C83 C 0.67954 0.67392 0.18799 0.0
C84 C 0.70362 0.72067 0.28595 0.0
C85 C 0.73407 0.71039 0.30108 0.0
C86 C 0.75325 0.72563 0.3354 0.0
C87 C 0.74233 0.75291 0.35384 0.0
C88 C 0.71181 0.76389 0.33926 0.0
C89 C 0.69256 0.74719 0.30537 0.0
C90 C 0.69904 0.79144 0.36014 0.0
C91 C 0.70385 0.79343 0.40127 0.0
C92 C 0.68067 0.81513 0.33923 0.0
C93 C 0.6662 0.83866 0.35882 0.0
C94 C 0.67032 0.83979 0.39979 0.0
C95 C 0.78323 0.71102 0.35306 0.0
C96 C 0.78095 0.67301 0.35327 0.0
C97 C 0.8138 0.73431 0.3705 0.0
C98 C 0.84116 0.7198 0.38806 0.0
C99 C 0.83841 0.68182 0.38831 0.0
C100 C 0.80824 0.65865 0.37057 0.0
C101 C 0.69003 0.81762 0.42077 0.0
H102 H 0.59886 0.65878 0.22007 0.0
H103 H 0.63273 0.69429 0.27488 0.0
H104 H 0.72689 0.704 0.21839 0.0
H105 H 0.69277 0.66787 0.16405 0.0
H106 H 0.74237 0.68953 0.28658 0.0
H107 H 0.66857 0.75436 0.29422 0.0
H108 H 0.75726 0.76496 0.38005 0.0
H109 H 0.71728 0.77547 0.4187 0.0
H110 H 0.67711 0.81535 0.3076 0.0
H111 H 0.65126 0.85565 0.34199 0.0
H112 H 0.75761 0.65408 0.34099 0.0
H113 H 0.81655 0.7637 0.37066 0.0
H114 H 0.69355 0.81802 0.45242 0.0
H115 H 0.80543 0.62921 0.37107 0.0
H116 H 0.86414 0.73803 0.40207 0.0
C117 C 0.33744 0.63128 0.21075 0.0
C118 C 0.37292 0.63128 0.21523 0.0
C119 C 0.3233 0.64861 0.23799 0.0
C120 C 0.34434 0.6662 0.27034 0.0
C121 C 0.37993 0.66614 0.27447 0.0
C122 C 0.394 0.6489 0.24725 0.0
C123 C 0.32932 0.68367 0.30035 0.0
C124 C 0.2963 0.66684 0.31282 0.0
C125 C 0.28323 0.68168 0.34306 0.0
C126 C 0.30319 0.71401 0.36063 0.0
C127 C 0.33586 0.73193 0.3481 0.0
C128 C 0.34861 0.71649 0.31791 0.0
C129 C 0.35695 0.76623 0.36721 0.0
C130 C 0.3409 0.79328 0.37802 0.0
C131 C 0.39328 0.77195 0.37541 0.0
C132 C 0.41292 0.80361 0.39418 0.0
C133 C 0.39672 0.83023 0.40523 0.0
C134 C 0.24944 0.66241 0.35773 0.0
C135 C 0.21863 0.65475 0.33243 0.0
C136 C 0.24795 0.65129 0.39728 0.0
C137 C 0.21643 0.63211 0.4111 0.0
C138 C 0.18561 0.62426 0.38585 0.0
C139 C 0.18688 0.63633 0.3465 0.0
C140 C 0.36059 0.82495 0.39684 0.0
H141 H 0.32071 0.61769 0.18631 0.0
H142 H 0.2959 0.64834 0.23361 0.0
H143 H 0.39686 0.67871 0.29928 0.0
H144 H 0.42138 0.64894 0.25143 0.0
H145 H 0.28132 0.64124 0.30029 0.0
H146 H 0.37351 0.73031 0.3077 0.0
H147 H 0.2933 0.72493 0.38444 0.0
H148 H 0.31311 0.79011 0.37174 0.0
H149 H 0.40651 0.75159 0.36806 0.0
H150 H 0.44077 0.80717 0.40053 0.0
H151 H 0.21911 0.66327 0.30187 0.0
H152 H 0.27135 0.65679 0.41733 0.0
H153 H 0.34765 0.84526 0.40504 0.0
H154 H 0.1634 0.63084 0.32657 0.0
H155 H 0.21611 0.62316 0.44155 0.0
C156 C 0.20798 0.63091 0.69488 0.0
C157 C 0.20054 0.63648 0.65458 0.0
C158 C 0.23853 0.65158 0.71461 0.0
C159 C 0.26268 0.67799 0.69436 0.0
C160 C 0.2546 0.68401 0.65403 0.0
C161 C 0.22376 0.66375 0.6345 0.0
C162 C 0.29662 0.69816 0.71479 0.0
C163 C 0.31422 0.68049 0.74456 0.0
C164 C 0.34656 0.69878 0.76315 0.0
C165 C 0.36175 0.73501 0.75123 0.0
C166 C 0.34521 0.75306 0.72101 0.0
C167 C 0.31235 0.73462 0.70358 0.0
C168 C 0.36373 0.78977 0.70551 0.0
C169 C 0.38467 0.81653 0.73073 0.0
C170 C 0.3631 0.79705 0.66489 0.0
C171 C 0.38428 0.82916 0.64988 0.0
C172 C 0.4065 0.85474 0.67509 0.0
C173 C 0.3656 0.67955 0.79357 0.0
C174 C 0.36995 0.64437 0.7871 0.0
C175 C 0.38088 0.69691 0.82856 0.0
C176 C 0.40063 0.67978 0.8561 0.0
C177 C 0.40599 0.64525 0.84887 0.0
C178 C 0.39011 0.62748 0.81439 0.0
C179 C 0.4059 0.8487 0.71564 0.0
H180 H 0.19036 0.6101 0.71098 0.0
H181 H 0.24326 0.64662 0.74574 0.0
H182 H 0.27258 0.70355 0.63711 0.0
H183 H 0.21856 0.66844 0.60335 0.0
H184 H 0.3031 0.65221 0.75303 0.0
H185 H 0.29908 0.74883 0.68114 0.0
H186 H 0.38746 0.74842 0.76418 0.0
H187 H 0.38547 0.81208 0.76214 0.0
H188 H 0.34774 0.77698 0.64453 0.0
H189 H 0.38476 0.83313 0.61848 0.0
H190 H 0.35874 0.63044 0.7603 0.0
H191 H 0.37774 0.72388 0.83448 0.0
H192 H 0.42312 0.86797 0.73553 0.0
H193 H 0.39395 0.60086 0.80823 0.0
H194 H 0.41254 0.69388 0.88259 0.0
C195 C 0.35136 0.36877 0.83656 0.0
C196 C 0.38781 0.37674 0.83768 0.0
C197 C 0.33046 0.34726 0.80683 0.0
C198 C 0.34551 0.33383 0.777 0.0
C199 C 0.38217 0.34189 0.77856 0.0
C200 C 0.40298 0.36281 0.80864 0.0
C201 C 0.32326 0.31205 0.74416 0.0
C202 C 0.2912 0.31942 0.72946 0.0
C203 C 0.26974 0.29891 0.69903 0.0
C204 C 0.28179 0.27144 0.68206 0.0
C205 C 0.31429 0.26419 0.69539 0.0
C206 C 0.33425 0.28414 0.72695 0.0
C207 C 0.32789 0.23604 0.67657 0.0
C208 C 0.30588 0.20208 0.66485 0.0
C209 C 0.36357 0.24275 0.67099 0.0
C210 C 0.37695 0.21613 0.6551 0.0
C211 C 0.35507 0.18214 0.64413 0.0
C212 C 0.23484 0.30631 0.68533 0.0
C213 C 0.21494 0.31766 0.71156 0.0
C214 C 0.22147 0.3034 0.64587 0.0
C215 C 0.18879 0.31021 0.63349 0.0
C216 C 0.16728 0.319 0.66017 0.0
C217 C 0.18262 0.32501 0.69906 0.0
C218 C 0.31935 0.1754 0.64886 0.0
H219 H 0.33911 0.37944 0.85853 0.0
H220 H 0.30246 0.34123 0.80731 0.0
H221 H 0.395 0.33292 0.75598 0.0
H222 H 0.43106 0.36909 0.80862 0.0
H223 H 0.28329 0.34193 0.7412 0.0
H224 H 0.3583 0.27736 0.73861 0.0
H225 H 0.26594 0.25569 0.65839 0.0
H226 H 0.27839 0.19572 0.66894 0.0
H227 H 0.38128 0.26871 0.67893 0.0
H228 H 0.40456 0.22195 0.65163 0.0
H229 H 0.22428 0.32112 0.74214 0.0
H230 H 0.23664 0.2968 0.62411 0.0
H231 H 0.30202 0.14928 0.64075 0.0
H232 H 0.17072 0.33644 0.72054 0.0
H233 H 0.18138 0.30953 0.60244 0.0
C234 C 0.69291 0.19567 0.67001 0.0
C235 C 0.65744 0.19395 0.66013 0.0
C236 C 0.71427 0.22579 0.69007 0.0
C237 C 0.70055 0.25477 0.7005 0.0
C238 C 0.66488 0.25263 0.69064 0.0
C239 C 0.64361 0.22257 0.67072 0.0
C240 C 0.72333 0.28779 0.72029 0.0
C241 C 0.75677 0.30358 0.70861 0.0
C242 C 0.77741 0.33636 0.72488 0.0
C243 C 0.76426 0.35305 0.75377 0.0
C244 C 0.73092 0.33768 0.76606 0.0
C245 C 0.71091 0.30486 0.74938 0.0
C246 C 0.71615 0.35684 0.79469 0.0
C247 C 0.73692 0.37387 0.82746 0.0
C248 C 0.68104 0.35865 0.78906 0.0
C249 C 0.66706 0.37687 0.81543 0.0
C250 C 0.68784 0.39381 0.84795 0.0
C251 C 0.81133 0.35482 0.70941 0.0
C252 C 0.81452 0.35632 0.66892 0.0
C253 C 0.84003 0.37301 0.73443 0.0
C254 C 0.8705 0.39351 0.71915 0.0
C255 C 0.87281 0.3961 0.67862 0.0
C256 C 0.84491 0.37673 0.65374 0.0
C257 C 0.72286 0.39212 0.8539 0.0
H258 H 0.70404 0.17386 0.66194 0.0
H259 H 0.74151 0.22634 0.69746 0.0
H260 H 0.6535 0.27466 0.69747 0.0
H261 H 0.61635 0.22184 0.66305 0.0
H262 H 0.76641 0.29087 0.68595 0.0
H263 H 0.68548 0.29247 0.75913 0.0
H264 H 0.77926 0.37907 0.76528 0.0
H265 H 0.76395 0.37276 0.83289 0.0
H266 H 0.6644 0.34648 0.76387 0.0
H267 H 0.64001 0.37799 0.81031 0.0
H268 H 0.7929 0.34324 0.64865 0.0
H269 H 0.83862 0.37212 0.76576 0.0
H270 H 0.73926 0.40494 0.87894 0.0
H271 H 0.84601 0.37893 0.62233 0.0
H272 H 0.89162 0.40867 0.73876 0.0
C273 C 0.64084 0.62037 0.72611 0.0
C274 C 0.66272 0.60543 0.75332 0.0
C275 C 0.65318 0.63771 0.69174 0.0
C276 C 0.68811 0.64168 0.68445 0.0
C277 C 0.70955 0.62534 0.71125 0.0
C278 C 0.69673 0.60675 0.74491 0.0
C279 C 0.70284 0.66515 0.65093 0.0
C280 C 0.69063 0.69633 0.63828 0.0
C281 C 0.70722 0.72106 0.61022 0.0
C282 C 0.73655 0.71519 0.595 0.0
C283 C 0.74877 0.68417 0.60682 0.0
C284 C 0.73134 0.65875 0.63383 0.0
C285 C 0.78182 0.68006 0.59434 0.0
C286 C 0.812 0.70873 0.59991 0.0
C287 C 0.78414 0.64635 0.58068 0.0
C288 C 0.81642 0.64083 0.57428 0.0
C289 C 0.84673 0.66891 0.58153 0.0
C290 C 0.69554 0.75469 0.5994 0.0
C291 C 0.6608 0.7525 0.58513 0.0
C292 C 0.71868 0.78916 0.60541 0.0
C293 C 0.7068 0.82107 0.59896 0.0
C294 C 0.67183 0.81879 0.58578 0.0
C295 C 0.64908 0.78445 0.57796 0.0
C296 C 0.84439 0.70307 0.59386 0.0
H297 H 0.61429 0.61917 0.73182 0.0
H298 H 0.63544 0.6487 0.67141 0.0
H299 H 0.73673 0.62812 0.70739 0.0
H300 H 0.71388 0.59503 0.76542 0.0
H301 H 0.6695 0.70285 0.65171 0.0
H302 H 0.74116 0.63485 0.64272 0.0
H303 H 0.75008 0.73496 0.57425 0.0
H304 H 0.81075 0.7348 0.61096 0.0
H305 H 0.76115 0.62395 0.57622 0.0
H306 H 0.81798 0.61414 0.56528 0.0
H307 H 0.64269 0.72607 0.58022 0.0
H308 H 0.74554 0.79128 0.61663 0.0
H309 H 0.86768 0.72472 0.60019 0.0
H310 H 0.62199 0.78239 0.56783 0.0
H311 H 0.72452 0.84744 0.60533 0.0
Co312 Co 0.06511 0.45104 0.57307 0.0
Co313 Co 0.06527 0.45891 0.50082 0.0
Co314 Co 0.0175 0.512 0.52286 0.0
O315 O 0.03286 0.4645 0.53164 0.0
H316 H 1.01282 0.444 0.52772 0.0
O317 O 1.00173 0.55855 0.51447 0.0
Co318 Co 0.95556 0.55952 0.49336 0.0
Co319 Co 0.9907 0.57076 0.56217 0.0
H320 H 0.01917 0.57861 0.50441 0.0
O321 O 0.06839 0.41369 0.48735 0.0
O322 O 0.09997 0.45047 0.53509 0.0
O323 O 0.08474 0.4998 0.46944 0.0
O324 O 0.04916 0.53471 0.48017 0.0
O325 O 0.97965 0.48674 0.48304 0.0
O326 O 0.91404 0.56336 0.47225 0.0
O327 O 0.96417 0.60715 0.47592 0.0
O328 O 0.93997 0.50921 0.50714 0.0
O329 O 0.98532 0.48975 0.5647 0.0
O330 O 0.98327 0.53398 0.60392 0.0
O331 O 0.94695 0.57623 0.54489 0.0
O332 O 0.99315 0.61853 0.57266 0.0
C333 C 0.0741 0.40244 0.59831 0.0
C334 C 0.08207 0.53234 0.57933 0.0
C335 C 0.07496 0.52924 0.46395 0.0
C336 C 0.09744 0.42557 0.50912 0.0
C337 C 0.93069 0.59703 0.46537 0.0
C338 C 0.94771 0.48665 0.4853 0.0
C339 C 0.97649 0.5003 0.59601 0.0
C340 C 0.96037 0.60831 0.56032 0.0
O341 O 0.09192 0.43431 0.61067 0.0
O342 O 0.0488 0.40116 0.57052 0.0
O343 O 0.0545 0.53947 0.56204 0.0
O344 O 0.08694 0.50023 0.58191 0.0
Co345 Co 0.56069 0.95088 0.50118 0.0
Co346 Co 0.57671 0.9771 0.57168 0.0
Co347 Co 0.52314 0.01762 0.52754 0.0
O348 O 0.56459 0.99743 0.52368 0.0
H349 H 0.5844 0.0158 0.51554 0.0
O350 O 0.48116 0.0375 0.5314 0.0
Co351 Co 0.47601 0.07623 0.56342 0.0
Co352 Co 0.47337 0.0681 0.49037 0.0
H353 H 0.46069 0.01738 0.53208 0.0
O354 O 0.62155 0.97313 0.58529 0.0
O355 O 0.57728 0.93219 0.55297 0.0
O356 O 0.54329 0.96647 0.61011 0.0
O357 O 0.50151 0.98027 0.56847 0.0
O358 O 0.5523 0.05091 0.56849 0.0
O359 O 0.46688 0.10947 0.59317 0.0
O360 O 0.42832 0.06304 0.56254 0.0
O361 O 0.52434 0.09542 0.57038 0.0
O362 O 0.54515 0.05449 0.48621 0.0
O363 O 0.5079 0.08329 0.45435 0.0
O364 O 0.47334 0.10914 0.51607 0.0
O365 O 0.43005 0.07517 0.47637 0.0
C366 C 0.59243 0.92572 0.47432 0.0
C367 C 0.49167 0.94879 0.48985 0.0
C368 C 0.5114 0.96469 0.60003 0.0
C369 C 0.60891 0.94116 0.57008 0.0
C370 C 0.43476 0.09168 0.58468 0.0
C371 C 0.5516 0.08344 0.57672 0.0
C372 C 0.53786 0.07705 0.45945 0.0
C373 C 0.44597 0.10674 0.49118 0.0
O374 O 0.5603 0.90912 0.47896 0.0
O375 O 0.60463 0.95928 0.48654 0.0
O376 O 0.49498 0.98351 0.48651 0.0
O377 O 0.51359 0.93575 0.512 0.0
Co378 Co 0.4813 0.54233 0.08676 0.0
Co379 Co 0.4665 0.47433 0.06536 0.0
Co380 Co 0.52031 0.52115 1.0094 0.0
O381 O 0.47856 0.51846 0.03823 0.0
H382 H 0.45871 0.52154 0.02091 0.0
O383 O 0.56251 0.52441 0.98054 0.0
Co384 Co 0.56735 0.48848 0.94452 0.0
Co385 Co 0.5655 0.55354 0.93677 0.0
H386 H 0.58358 0.53192 0.99781 0.0
O387 O 0.42152 0.45518 0.07752 0.0
O388 O 0.4653 0.49369 0.11325 0.0
O389 O 0.50032 0.44528 0.07415 0.0
O390 O 0.54196 0.4872 0.04735 0.0
O391 O 0.49081 0.4786 0.97781 0.0
O392 O 0.57552 0.45552 0.91394 0.0
O393 O 0.61345 0.49118 0.95753 0.0
O394 O 0.5202 0.48003 0.92575 0.0
O395 O 0.49903 0.55639 0.97334 0.0
O396 O 0.52626 0.57198 0.91925 0.0
O397 O 0.57834 0.5261 0.90152 0.0
O398 O 0.60651 0.5824 0.92453 0.0
C399 C 0.44862 0.56388 0.11645 0.0
C400 C 0.55088 0.5628 0.07849 0.0
C401 C 0.53213 0.45841 0.06904 0.0
C402 C 0.43413 0.47189 0.10984 0.0
C403 C 0.60683 0.46595 0.93109 0.0
C404 C 0.49217 0.47083 0.94228 0.0
C405 C 0.5016 0.57236 0.93956 0.0
C406 C 0.60162 0.55728 0.89845 0.0
O407 O 0.48046 0.56529 0.13066 0.0
O408 O 0.43714 0.54841 0.08285 0.0
O409 O 0.54844 0.56353 0.04117 0.0
O410 O 0.52829 0.54052 0.09712 0.0
C411 C 0.15715 0.39597 0.44569 0.0
C412 C 0.18108 0.38496 0.47402 0.0
C413 C 0.15408 0.40519 0.52679 0.0
C414 C 0.12901 0.41521 0.49831 0.0
N415 N 0.11614 0.43322 0.43076 0.0
N416 N 0.20084 0.37382 0.54082 0.0
C417 C 0.13303 0.41404 0.45774 0.0
C418 C 0.17915 0.38809 0.51442 0.0
N419 N 0.15705 0.38852 0.40713 0.0
N420 N 0.15556 0.41393 0.56506 0.0
H421 H 0.21969 0.3615 0.53246 0.0
H422 H 0.19867 0.37145 0.57076 0.0
H423 H 0.14004 0.42904 0.57522 0.0
H424 H 0.17479 0.40999 0.58651 0.0
H425 H 0.13725 0.39152 0.38587 0.0
H426 H 0.17501 0.37613 0.39675 0.0
H427 H 0.12117 0.43687 0.40151 0.0
H428 H 0.10032 0.44958 0.43816 0.0
C429 C 0.61458 0.1536 0.43461 0.0
C430 C 0.60489 0.16093 0.39468 0.0
C431 C 0.55623 0.10589 0.39463 0.0
C432 C 0.56531 0.09938 0.43505 0.0
N433 N 0.61216 0.10831 0.48733 0.0
N434 N 0.57239 0.13914 0.33404 0.0
C435 C 0.59742 0.12025 0.45309 0.0
C436 C 0.57748 0.13547 0.37383 0.0
N437 N 0.63894 0.17936 0.4557 0.0
N438 N 0.52713 0.08365 0.37624 0.0
H439 H 0.58776 0.16022 0.31805 0.0
H440 H 0.55499 0.11986 0.31647 0.0
H441 H 0.51355 0.05934 0.38925 0.0
H442 H 0.51607 0.08947 0.34863 0.0
H443 H 0.64418 0.17717 0.48591 0.0
H444 H 0.65167 0.20455 0.44378 0.0
H445 H 0.63705 0.12102 0.49946 0.0
H446 H 0.60188 0.0835 0.5014 0.0
C447 C 0.85796 0.64778 0.44705 0.0
C448 C 0.86527 0.66525 0.4104 0.0
C449 C 0.91959 0.64451 0.4135 0.0
C450 C 0.91027 0.6235 0.44818 0.0
N451 N 0.86939 0.60395 0.49734 0.0
N452 N 0.90137 0.67938 0.35702 0.0
C453 C 0.87914 0.62489 0.46476 0.0
C454 C 0.89593 0.66387 0.39342 0.0
N455 N 0.83115 0.65404 0.46552 0.0
N456 N 0.95053 0.64525 0.39909 0.0
H457 H 0.88502 0.69437 0.34202 0.0
H458 H 0.92075 0.6758 0.34055 0.0
H459 H 0.96706 0.62886 0.41026 0.0
H460 H 0.96088 0.66347 0.37708 0.0
H461 H 0.82637 0.64527 0.49403 0.0
H462 H 0.8153 0.67099 0.45368 0.0
H463 H 0.84451 0.59875 0.50663 0.0
H464 H 0.8857 0.59066 0.51486 0.0
C465 C 0.43837 0.89273 0.40514 0.0
C466 C 0.41776 0.8633 0.42629 0.0
C467 C 0.43907 0.89589 0.48744 0.0
C468 C 0.46322 0.92264 0.46703 0.0
N469 N 0.48836 0.94504 0.40683 0.0
N470 N 0.40028 0.83497 0.48796 0.0
C471 C 0.46328 0.92097 0.42586 0.0
C472 C 0.41838 0.86449 0.46757 0.0
N473 N 0.43381 0.89383 0.3652 0.0
N474 N 0.4355 0.90101 0.52572 0.0
H475 H 0.38443 0.81172 0.47446 0.0
H476 H 0.40286 0.83231 0.51833 0.0
H477 H 0.44967 0.92422 0.54063 0.0
H478 H 0.4163 0.88436 0.54152 0.0
H479 H 0.44533 0.91636 0.34812 0.0
H480 H 0.41606 0.87343 0.34915 0.0
H481 H 0.49245 0.94244 0.3778 0.0
H482 H 0.50684 0.96632 0.42074 0.0
C483 C 0.1353 0.6129 0.64082 0.0
C484 C 0.16953 0.61217 0.63303 0.0
C485 C 0.14487 0.56609 0.58336 0.0
C486 C 0.11111 0.56255 0.5955 0.0
N487 N 0.07458 0.57984 0.63935 0.0
N488 N 0.20691 0.5831 0.60141 0.0
C489 C 0.10629 0.58545 0.62498 0.0
C490 C 0.17434 0.58754 0.60536 0.0
N491 N 0.13046 0.64024 0.66268 0.0
N492 N 0.14878 0.54964 0.55014 0.0
H493 H 0.22925 0.59733 0.61775 0.0
H494 H 0.21132 0.56262 0.58473 0.0
H495 H 0.12776 0.53443 0.53261 0.0
H496 H 0.17236 0.55444 0.53773 0.0
H497 H 0.10599 0.64436 0.66612 0.0
H498 H 0.15105 0.66092 0.67437 0.0
H499 H 0.07051 0.593 0.66374 0.0
H500 H 0.05289 0.55975 0.62899 0.0
C501 C 0.38869 0.13321 0.65587 0.0
C502 C 0.3702 0.15329 0.62919 0.0
C503 C 0.38291 0.12015 0.57476 0.0
C504 C 0.40671 0.10548 0.60049 0.0
N505 N 0.43071 0.09561 0.66615 0.0
N506 N 0.35141 0.16792 0.56271 0.0
C507 C 0.40885 0.11109 0.64133 0.0
C508 C 0.36744 0.14702 0.58849 0.0
N509 N 0.38651 0.13493 0.69512 0.0
N510 N 0.37462 0.10811 0.53744 0.0
H511 H 0.33937 0.18744 0.57161 0.0
H512 H 0.35232 0.16788 0.53256 0.0
H513 H 0.3839 0.08715 0.52718 0.0
H514 H 0.35552 0.11575 0.51816 0.0
H515 H 0.39656 0.11844 0.71614 0.0
H516 H 0.37208 0.15091 0.70664 0.0
H517 H 0.43732 0.10233 0.69538 0.0
H518 H 0.44319 0.07655 0.65699 0.0
C519 C 0.89463 0.45715 0.64641 0.0
C520 C 0.90148 0.42364 0.66137 0.0
C521 C 0.95988 0.44209 0.63783 0.0
C522 C 0.95119 0.47364 0.61905 0.0
N523 N 0.90591 0.50451 0.5965 0.0
N524 N 0.93911 0.38196 0.66878 0.0
C525 C 0.91746 0.47952 0.62113 0.0
C526 C 0.93379 0.41546 0.65649 0.0
N527 N 0.86617 0.46773 0.65629 0.0
N528 N 0.99313 0.43801 0.63848 0.0
H529 H 0.92089 0.36248 0.6834 0.0
H530 H 0.96046 0.37263 0.66247 0.0
H531 H 1.01263 0.45692 0.62501 0.0
H532 H 1.00208 0.41747 0.65469 0.0
H533 H 0.86211 0.4938 0.64947 0.0
H534 H 0.84846 0.45196 0.67455 0.0
H535 H 0.88036 0.5073 0.59403 0.0
H536 H 0.92055 0.51909 0.57503 0.0
C537 C 0.66842 0.87997 0.55503 0.0
C538 C 0.65814 0.852 0.58375 0.0
C539 C 0.61753 0.88435 0.60569 0.0
C540 C 0.62843 0.91267 0.57759 0.0
N541 N 0.67049 0.94276 0.53326 0.0
N542 N 0.63019 0.83203 0.64292 0.0
C543 C 0.65606 0.9123 0.55484 0.0
C544 C 0.63478 0.85547 0.61104 0.0
N545 N 0.68845 0.87484 0.52678 0.0
N546 N 0.5906 0.88501 0.62717 0.0
H547 H 0.64312 0.81104 0.64846 0.0
H548 H 0.6162 0.83546 0.66585 0.0
H549 H 0.57935 0.90734 0.62663 0.0
H550 H 0.57834 0.86273 0.64411 0.0
H551 H 0.6936 0.89257 0.50266 0.0
H552 H 0.69742 0.85112 0.52551 0.0
H553 H 0.69263 0.9451 0.51862 0.0
H554 H 0.66224 0.96704 0.53295 0.0
C555 C 0.42464 0.20174 0.48276 0.0
C556 C 0.39751 0.19443 0.45203 0.0
C557 C 0.41277 0.13764 0.4404 0.0
C558 C 0.43359 0.13999 0.47678 0.0
N559 N 0.45833 0.17706 0.53412 0.0
N560 N 0.3607 0.15048 0.40733 0.0
C561 C 0.43937 0.17275 0.49858 0.0
C562 C 0.38985 0.16076 0.43272 0.0
N563 N 0.43799 0.23676 0.49538 0.0
N564 N 0.41656 0.11539 0.41183 0.0
H565 H 0.34213 0.16594 0.40228 0.0
H566 H 0.35338 0.12468 0.39482 0.0
H567 H 0.43686 0.10215 0.41366 0.0
H568 H 0.403 0.11484 0.38415 0.0
H569 H 0.46021 0.24402 0.51494 0.0
H570 H 0.42949 0.25932 0.48308 0.0
H571 H 0.4573 0.19748 0.55306 0.0
H572 H 0.47466 0.16083 0.5455 0.0
C573 C 0.86042 0.42081 0.4558 0.0
C574 C 0.85903 0.42386 0.41433 0.0
C575 C 0.91675 0.46715 0.41908 0.0
C576 C 0.91899 0.46251 0.46049 0.0
N577 N 0.89609 0.42973 0.51788 0.0
N578 N 0.88838 0.44409 0.35633 0.0
C579 C 0.8917 0.43773 0.47871 0.0
C580 C 0.88804 0.44522 0.39594 0.0
N581 N 0.8314 0.40286 0.47335 0.0
N582 N 0.94093 0.494 0.40186 0.0
H583 H 0.8677 0.42869 0.33846 0.0
H584 H 0.91025 0.45578 0.34162 0.0
H585 H 0.96218 0.51089 0.41753 0.0
H586 H 0.93842 0.50163 0.37236 0.0
H587 H 0.82939 0.40324 0.50327 0.0
H588 H 0.80816 0.38983 0.45766 0.0
H589 H 0.87875 0.4093 0.53237 0.0
H590 H 0.91882 0.44122 0.53536 0.0
C591 C 0.66013 0.90131 0.41502 0.0
C592 C 0.65221 0.86254 0.42067 0.0
C593 C 0.6113 0.86714 0.46771 0.0
C594 C 0.6149 0.90502 0.45731 0.0
N595 N 0.63862 0.95619 0.4144 0.0
N596 N 0.6143 0.80787 0.4465 0.0
C597 C 0.63839 0.92174 0.42933 0.0
C598 C 0.62615 0.84525 0.4454 0.0
N599 N 0.68877 0.91877 0.39663 0.0
N600 N 0.59497 0.85211 0.49992 0.0
H601 H 0.62337 0.79062 0.42958 0.0
H602 H 0.59283 0.79431 0.46106 0.0
H603 H 0.58541 0.86724 0.51876 0.0
H604 H 0.59496 0.82569 0.51077 0.0
H605 H 0.69769 0.94727 0.39516 0.0
H606 H 0.70558 0.90479 0.38638 0.0
H607 H 0.65283 0.968 0.39118 0.0
H608 H 0.62184 0.97146 0.42202 0.0
C609 C 0.1387 0.61715 0.43174 0.0
C610 C 0.15235 0.60292 0.40103 0.0
C611 C 0.1049 0.54722 0.40311 0.0
C612 C 0.096 0.55811 0.43882 0.0
N613 N 0.1073 0.6032 0.48939 0.0
N614 N 0.15048 0.55168 0.36043 0.0
C615 C 0.11321 0.5933 0.45351 0.0
C616 C 0.13572 0.56738 0.38706 0.0
N617 N 0.14993 0.65358 0.43995 0.0
N618 N 0.08383 0.51735 0.38469 0.0
H619 H 0.17372 0.56473 0.34885 0.0
H620 H 0.14138 0.52433 0.35263 0.0
H621 H 0.06068 0.50256 0.39547 0.0
H622 H 0.08733 0.50984 0.35692 0.0
H623 H 0.13858 0.66621 0.45956 0.0
H624 H 0.16815 0.67187 0.42416 0.0
H625 H 0.12255 0.6264 0.50348 0.0
H626 H 0.08903 0.58705 0.5066 0.0
C627 C 0.43072 0.92102 0.65383 0.0
C628 C 0.43417 0.88428 0.65876 0.0
C629 C 0.48595 0.89995 0.62282 0.0
C630 C 0.48481 0.93753 0.62094 0.0
N631 N 0.45836 0.98487 0.63856 0.0
N632 N 0.4695 0.84087 0.65595 0.0
C633 C 0.45775 0.94841 0.63755 0.0
C634 C 0.46326 0.8745 0.64588 0.0
N635 N 0.40127 0.92944 0.66377 0.0
N636 N 0.5069 0.88778 0.60024 0.0
H637 H 0.45341 0.82115 0.67271 0.0
H638 H 0.49247 0.83396 0.65093 0.0
H639 H 0.52227 0.90487 0.58085 0.0
H640 H 0.50595 0.86009 0.59729 0.0
H641 H 0.39534 0.95467 0.65717 0.0
H642 H 0.38154 0.91019 0.67649 0.0
H643 H 0.44133 0.99497 0.65345 0.0
H644 H 0.47773 1.00543 0.62691 0.0
C645 C 0.11607 0.32074 0.6076 0.0
C646 C 0.13152 0.32641 0.64657 0.0
C647 C 0.09205 0.36527 0.65615 0.0
C648 C 0.0852 0.36897 0.61496 0.0
N649 N 0.08438 0.34306 0.55167 0.0
N650 N 0.10799 0.32545 0.70841 0.0
C651 C 0.09463 0.344 0.59073 0.0
C652 C 0.11211 0.34047 0.67175 0.0
N653 N 0.11764 0.29007 0.58906 0.0
N654 N 0.07942 0.38536 0.68049 0.0
H655 H 0.11695 0.3022 0.71752 0.0
H656 H 0.09162 0.33241 0.72697 0.0
H657 H 0.06212 0.40135 0.67037 0.0
H658 H 0.08706 0.3867 0.71041 0.0
H659 H 0.10438 0.2824 0.56192 0.0
H660 H 0.12842 0.26981 0.60359 0.0
H661 H 0.0951 0.32979 0.53202 0.0
H662 H 0.06555 0.3559 0.53879 0.0
C663 C 0.62067 0.12886 0.65607 0.0
C664 C 0.63462 0.16306 0.63723 0.0
C665 C 0.59678 0.1434 0.57745 0.0
C666 C 0.58306 0.10879 0.59592 0.0
N667 N 0.58545 0.06631 0.65079 0.0
N668 N 0.64221 0.19999 0.57802 0.0
C669 C 0.59645 0.10065 0.63444 0.0
C670 C 0.6246 0.16934 0.59723 0.0
N671 N 0.62906 0.12416 0.69526 0.0
N672 N 0.58249 0.15196 0.54135 0.0
H673 H 0.66285 0.21943 0.59164 0.0
H674 H 0.63855 0.20468 0.54799 0.0
H675 H 0.5637 0.13313 0.52456 0.0
H676 H 0.58799 0.17825 0.52863 0.0
H677 H 0.6167 0.10183 0.71203 0.0
H678 H 0.64704 0.14391 0.71187 0.0
H679 H 0.59721 0.05734 0.67663 0.0
H680 H 0.56587 0.04567 0.6375 0.0
C681 C 0.90264 0.67465 0.55079 0.0
C682 C 0.88091 0.6603 0.58099 0.0
C683 C 0.91644 0.61732 0.60265 0.0
C684 C 0.93679 0.62994 0.57098 0.0
N685 N 0.95672 0.67695 0.52258 0.0
N686 N 0.87332 0.62755 0.64284 0.0
C687 C 0.93252 0.66101 0.54773 0.0
C688 C 0.88989 0.63466 0.60931 0.0
N689 N 0.8936 0.69952 0.52386 0.0
N690 N 0.92206 0.58825 0.62577 0.0
H691 H 0.85417 0.64056 0.64887 0.0
H692 H 0.8807 0.61158 0.66627 0.0
H693 H 0.9432 0.57687 0.6238 0.0
H694 H 0.90512 0.57446 0.64582 0.0
H695 H 0.90621 0.70801 0.4987 0.0
H696 H 0.87187 0.71008 0.52527 0.0
H697 H 0.95658 0.70133 0.50684 0.0
H698 H 0.97881 0.66732 0.51995 0.0
C699 C 0.4183 0.43636 0.21244 0.0
C700 C 0.38402 0.43997 0.2147 0.0
C701 C 0.38342 0.46822 0.149 0.0
C702 C 0.41601 0.46032 0.14524 0.0
N703 N 0.46037 0.42898 0.16977 0.0
N704 N 0.33246 0.45711 0.18538 0.0
C705 C 0.4325 0.44244 0.17606 0.0
C706 C 0.36617 0.45558 0.18314 0.0
N707 N 0.4372 0.42697 0.24512 0.0
N708 N 0.36943 0.4884 0.12046 0.0
H709 H 0.31961 0.44924 0.21057 0.0
H710 H 0.31666 0.46431 0.16178 0.0
H711 H 0.38072 0.49682 0.09442 0.0
H712 H 0.34795 0.49882 0.1236 0.0
H713 H 0.46357 0.42749 0.24589 0.0
H714 H 0.42746 0.42225 0.27246 0.0
H715 H 0.47141 0.41272 0.19022 0.0
H716 H 0.46992 0.4304 0.14248 0.0
C717 C 0.46597 0.64471 0.88037 0.0
C718 C 0.42965 0.62836 0.87634 0.0
C719 C 0.43936 0.57575 0.91769 0.0
C720 C 0.47558 0.59297 0.9229 0.0
N721 N 0.52093 0.64868 0.91929 0.0
N722 N 0.38087 0.58299 0.89875 0.0
C723 C 0.48806 0.62903 0.90742 0.0
C724 C 0.41606 0.59533 0.89747 0.0
N725 N 0.47978 0.6741 0.85696 0.0
N726 N 0.42728 0.54014 0.93 0.0
H727 H 0.36314 0.59677 0.88449 0.0
H728 H 0.3695 0.56121 0.91686 0.0
H729 H 0.44309 0.52465 0.94498 0.0
H730 H 0.40199 0.52489 0.92259 0.0
H731 H 0.50649 0.68445 0.85576 0.0
H732 H 0.46479 0.68604 0.83601 0.0
H733 H 0.5303 0.67633 0.91178 0.0
H734 H 0.53739 0.63855 0.9402 0.0
C735 C 0.42572 0.43891 0.85522 0.0
C736 C 0.41046 0.40226 0.86707 0.0
C737 C 0.44573 0.41156 0.93062 0.0
C738 C 0.461 0.4484 0.91887 0.0
N739 N 0.46166 0.49893 0.87249 0.0
N740 N 0.40068 0.35547 0.91803 0.0
C741 C 0.44973 0.46253 0.88189 0.0
C742 C 0.41865 0.38928 0.90555 0.0
N743 N 0.41788 0.45086 0.8179 0.0
N744 N 0.45882 0.39691 0.96436 0.0
H745 H 0.38192 0.33781 0.89997 0.0
H746 H 0.40239 0.34596 0.94696 0.0
H747 H 0.47873 0.4119 0.98338 0.0
H748 H 0.45188 0.36914 0.97225 0.0
H749 H 0.43152 0.47521 0.80526 0.0
H750 H 0.3985 0.43552 0.79849 0.0
H751 H 0.45159 0.5123 0.8485 0.0
H752 H 0.48004 0.51674 0.89051 0.0
C753 C 0.64982 0.3925 0.90228 0.0
C754 C 0.67243 0.41327 0.87556 0.0
C755 C 0.6612 0.47002 0.89763 0.0
C756 C 0.63408 0.44883 0.91899 0.0
N757 N 0.6026 0.38976 0.94264 0.0
N758 N 0.69856 0.47167 0.84571 0.0
C759 C 0.62868 0.40999 0.92191 0.0
C760 C 0.67824 0.45208 0.87306 0.0
N761 N 0.64889 0.35612 0.90908 0.0
N762 N 0.67063 0.50727 0.90068 0.0
H763 H 0.71189 0.45965 0.82762 0.0
H764 H 0.70026 0.49935 0.83895 0.0
H765 H 0.65901 0.52107 0.91873 0.0
H766 H 0.69223 0.52403 0.88868 0.0
H767 H 0.63555 0.34009 0.93087 0.0
H768 H 0.66402 0.34261 0.89505 0.0
H769 H 0.59421 0.36127 0.94194 0.0
H770 H 0.58816 0.40173 0.95941 0.0
C771 C 0.61916 0.56137 0.79111 0.0
C772 C 0.64998 0.58978 0.79118 0.0
C773 C 0.65341 0.5898 0.86261 0.0
C774 C 0.61912 0.56668 0.86172 0.0
N775 N 0.5657 0.54039 0.8212 0.0
N776 N 0.6927 0.63668 0.8274 0.0
C777 C 0.60093 0.55474 0.82498 0.0
C778 C 0.6663 0.60552 0.82705 0.0
N779 N 0.60695 0.54105 0.7586 0.0
N780 N 0.67405 0.59643 0.89702 0.0
H781 H 0.70197 0.65041 0.80209 0.0
H782 H 0.70284 0.65105 0.8528 0.0
H783 H 0.6665 0.58444 0.92374 0.0
H784 H 0.70024 0.61042 0.8982 0.0
H785 H 0.58593 0.51808 0.75846 0.0
H786 H 0.62014 0.54478 0.73341 0.0
H787 H 0.55159 0.53401 0.79416 0.0
H788 H 0.54976 0.53997 0.84348 0.0
C789 C 0.62306 0.59878 0.15734 0.0
C790 C 0.62292 0.63656 0.15666 0.0
C791 C 0.57783 0.62693 0.1013 0.0
C792 C 0.57872 0.58939 0.10129 0.0
N793 N 0.60719 0.54137 0.12297 0.0
N794 N 0.606 0.68833 0.12344 0.0
C795 C 0.60299 0.57591 0.12738 0.0
C796 C 0.60216 0.65119 0.12708 0.0
N797 N 0.6412 0.58443 0.18753 0.0
N798 N 0.55252 0.63899 0.07829 0.0
H799 H 0.62334 0.70679 0.1421 0.0
H800 H 0.5943 0.70105 0.10007 0.0
H801 H 0.53447 0.62229 0.05869 0.0
H802 H 0.54781 0.66483 0.08053 0.0
H803 H 0.6391 0.5564 0.19216 0.0
H804 H 0.65654 0.6003 0.2098 0.0
H805 H 0.62657 0.53089 0.13869 0.0
H806 H 0.59332 0.52437 0.10075 0.0
C807 C 0.39596 0.62739 0.14999 0.0
C808 C 0.3882 0.6117 0.18747 0.0
C809 C 0.41925 0.56438 0.1781 0.0
C810 C 0.42568 0.57881 0.13968 0.0
N811 N 0.41599 0.62116 0.08689 0.0
N812 N 0.3845 0.56021 0.23284 0.0
C813 C 0.41235 0.60916 0.1248 0.0
C814 C 0.39739 0.5786 0.20011 0.0
N815 N 0.38934 0.66073 0.13929 0.0
N816 N 0.43478 0.53777 0.1943 0.0
H817 H 0.36832 0.56977 0.24963 0.0
H818 H 0.38691 0.53382 0.24107 0.0
H819 H 0.45012 0.52545 0.17932 0.0
H820 H 0.43441 0.52954 0.22368 0.0
H821 H 0.39805 0.67588 0.11451 0.0
H822 H 0.37713 0.67467 0.15672 0.0
H823 H 0.40331 0.64012 0.07297 0.0
H824 H 0.43 0.61057 0.06833 0.0
C825 C 0.57691 0.42536 0.16245 0.0
C826 C 0.6045 0.4135 0.14849 0.0
C827 C 0.58446 0.42991 0.08105 0.0
C828 C 0.55857 0.44434 0.09572 0.0
N829 N 0.53841 0.46592 0.15196 0.0
N830 N 0.63812 0.40952 0.09518 0.0
C831 C 0.55717 0.44492 0.13687 0.0
C832 C 0.60934 0.41723 0.10789 0.0
N833 N 0.56857 0.4169 0.19999 0.0
N834 N 0.58466 0.42731 0.04163 0.0
H835 H 0.65655 0.4001 0.11399 0.0
H836 H 0.64518 0.41514 0.06676 0.0
H837 H 0.56707 0.43651 0.02138 0.0
H838 H 0.60057 0.41375 0.02913 0.0
H839 H 0.54623 0.42143 0.2102 0.0
H840 H 0.58182 0.40197 0.21976 0.0
H841 H 0.5397 0.47064 0.18174 0.0
H842 H 0.52447 0.48176 0.13457 0.0
loop_
_geom_bond_atom_site_label_1
_geom_bond_atom_site_label_2
_geom_bond_distance
_geom_bond_site_symmetry_2
_ccdc_geom_bond_type
C0 C1 1.386 . S
C0 C2 1.397 . S
C0 H24 0.931 . S
C1 C0 1.386 . S
C1 C5 1.397 . S
C2 C0 1.397 . S
C2 C3 1.384 . S
C2 H25 0.930 . S
C3 C2 1.384 . S
C3 C4 1.377 . S
C3 C6 1.481 . S
C4 C3 1.377 . S
C4 C5 1.389 . S
C4 H26 0.929 . S
C5 C1 1.397 . S
C5 C4 1.389 . S
C5 H27 0.931 . S
C6 C3 1.481 . S
C6 C7 1.387 . S
C6 C11 1.390 . S
C7 C6 1.387 . S
C7 C8 1.401 . S
C7 H28 0.930 . S
C8 C7 1.401 . S
C8 C9 1.376 . S
C8 C17 1.511 . S
C9 C8 1.376 . S
C9 C10 1.392 . S
C9 H30 0.931 . S
C10 C9 1.392 . S
C10 C11 1.361 . S
C10 C12 1.500 . S
C11 C6 1.390 . S
C11 C10 1.361 . S
C11 H29 0.931 . S
C12 C10 1.500 . S
C12 C13 1.371 . S
C12 C14 1.365 . S
C13 C12 1.371 . S
C13 C23 1.386 . S
C13 H31 0.931 . S
C14 C12 1.365 . S
C14 C15 1.409 . S
C14 H32 0.929 . S
C15 C14 1.409 . S
C15 C16 1.380 . S
C15 H33 0.930 . S
C16 C15 1.380 . S
C16 C23 1.357 . S
C17 C8 1.511 . S
C17 C18 1.341 . S
C17 C19 1.371 . S
C18 C17 1.341 . S
C18 C22 1.394 . S
C18 H34 0.930 . S
C19 C17 1.371 . S
C19 C20 1.392 . S
C19 H35 0.931 . S
C20 C19 1.392 . S
C20 C21 1.331 . S
C20 H38 0.932 . S
C21 C20 1.331 . S
C21 C22 1.336 . S
C22 C18 1.394 . S
C22 C21 1.336 . S
C22 H37 0.929 . S
C23 C13 1.386 . S
C23 C16 1.357 . S
C23 H36 0.928 . S
H24 C0 0.931 . S
H25 C2 0.930 . S
H26 C4 0.929 . S
H27 C5 0.931 . S
H28 C7 0.930 . S
H29 C11 0.931 . S
H30 C9 0.931 . S
H31 C13 0.931 . S
H32 C14 0.929 . S
H33 C15 0.930 . S
H34 C18 0.930 . S
H35 C19 0.931 . S
H36 C23 0.928 . S
H37 C22 0.929 . S
H38 C20 0.932 . S
C39 C40 1.386 . S
C39 C41 1.397 . S
C39 H63 0.931 . S
C40 C39 1.386 . S
C40 C44 1.397 . S
C41 C39 1.397 . S
C41 C42 1.384 . S
C41 H64 0.930 . S
C42 C41 1.384 . S
C42 C43 1.377 . S
C42 C45 1.481 . S
C43 C42 1.377 . S
C43 C44 1.389 . S
C43 H65 0.929 . S
C44 C40 1.397 . S
C44 C43 1.389 . S
C44 H66 0.931 . S
C45 C42 1.481 . S
C45 C46 1.387 . S
C45 C50 1.390 . S
C46 C45 1.387 . S
C46 C47 1.401 . S
C46 H67 0.930 . S
C47 C46 1.401 . S
C47 C48 1.376 . S
C47 C56 1.511 . S
C48 C47 1.376 . S
C48 C49 1.392 . S
C48 H69 0.931 . S
C49 C48 1.392 . S
C49 C50 1.361 . S
C49 C51 1.500 . S
C50 C45 1.390 . S
C50 C49 1.361 . S
C50 H68 0.931 . S
C51 C49 1.500 . S
C51 C52 1.371 . S
C51 C53 1.365 . S
C52 C51 1.371 . S
C52 C62 1.386 . S
C52 H70 0.931 . S
C53 C51 1.365 . S
C53 C54 1.409 . S
C53 H71 0.929 . S
C54 C53 1.409 . S
C54 C55 1.380 . S
C54 H72 0.930 . S
C55 C54 1.380 . S
C55 C62 1.357 . S
C56 C47 1.511 . S
C56 C57 1.341 . S
C56 C58 1.371 . S
C57 C56 1.341 . S
C57 C61 1.394 . S
C57 H73 0.930 . S
C58 C56 1.371 . S
C58 C59 1.392 . S
C58 H74 0.931 . S
C59 C58 1.392 . S
C59 C60 1.331 . S
C59 H77 0.932 . S
C60 C59 1.331 . S
C60 C61 1.336 . S
C61 C57 1.394 . S
C61 C60 1.336 . S
C61 H76 0.929 . S
C62 C52 1.386 . S
C62 C55 1.357 . S
C62 H75 0.928 . S
H63 C39 0.931 . S
H64 C41 0.930 . S
H65 C43 0.929 . S
H66 C44 0.931 . S
H67 C46 0.930 . S
H68 C50 0.931 . S
H69 C48 0.931 . S
H70 C52 0.931 . S
H71 C53 0.929 . S
H72 C54 0.930 . S
H73 C57 0.930 . S
H74 C58 0.931 . S
H75 C62 0.928 . S
H76 C61 0.929 . S
H77 C59 0.932 . S
C78 C79 1.386 . S
C78 C80 1.397 . S
C78 H102 0.931 . S
C79 C78 1.386 . S
C79 C83 1.397 . S
C80 C78 1.397 . S
C80 C81 1.384 . S
C80 H103 0.930 . S
C81 C80 1.384 . S
C81 C82 1.377 . S
C81 C84 1.481 . S
C82 C81 1.377 . S
C82 C83 1.389 . S
C82 H104 0.929 . S
C83 C79 1.397 . S
C83 C82 1.389 . S
C83 H105 0.931 . S
C84 C81 1.481 . S
C84 C85 1.387 . S
C84 C89 1.390 . S
C85 C84 1.387 . S
C85 C86 1.401 . S
C85 H106 0.930 . S
C86 C85 1.401 . S
C86 C87 1.376 . S
C86 C95 1.511 . S
C87 C86 1.376 . S
C87 C88 1.392 . S
C87 H108 0.931 . S
C88 C87 1.392 . S
C88 C89 1.361 . S
C88 C90 1.500 . S
C89 C84 1.390 . S
C89 C88 1.361 . S
C89 H107 0.931 . S
C90 C88 1.500 . S
C90 C91 1.371 . S
C90 C92 1.365 . S
C91 C90 1.371 . S
C91 C101 1.386 . S
C91 H109 0.931 . S
C92 C90 1.365 . S
C92 C93 1.409 . S
C92 H110 0.929 . S
C93 C92 1.409 . S
C93 C94 1.380 . S
C93 H111 0.930 . S
C94 C93 1.380 . S
C94 C101 1.357 . S
C95 C86 1.511 . S
C95 C96 1.341 . S
C95 C97 1.371 . S
C96 C95 1.341 . S
C96 C100 1.394 . S
C96 H112 0.930 . S
C97 C95 1.371 . S
C97 C98 1.392 . S
C97 H113 0.931 . S
C98 C97 1.392 . S
C98 C99 1.331 . S
C98 H116 0.932 . S
C99 C98 1.331 . S
C99 C100 1.336 . S
C100 C96 1.394 . S
C100 C99 1.336 . S
C100 H115 0.929 . S
C101 C91 1.386 . S
C101 C94 1.357 . S
C101 H114 0.928 . S
H102 C78 0.931 . S
H103 C80 0.930 . S
H104 C82 0.929 . S
H105 C83 0.931 . S
H106 C85 0.930 . S
H107 C89 0.931 . S
H108 C87 0.931 . S
H109 C91 0.931 . S
H110 C92 0.929 . S
H111 C93 0.930 . S
H112 C96 0.930 . S
H113 C97 0.931 . S
H114 C101 0.928 . S
H115 C100 0.929 . S
H116 C98 0.932 . S
C117 C118 1.386 . S
C117 C119 1.397 . S
C117 H141 0.931 . S
C118 C117 1.386 . S
C118 C122 1.397 . S
C119 C117 1.397 . S
C119 C120 1.384 . S
C119 H142 0.930 . S
C120 C119 1.384 . S
C120 C121 1.377 . S
C120 C123 1.481 . S
C121 C120 1.377 . S
C121 C122 1.389 . S
C121 H143 0.929 . S
C122 C118 1.397 . S
C122 C121 1.389 . S
C122 H144 0.931 . S
C123 C120 1.481 . S
C123 C124 1.387 . S
C123 C128 1.390 . S
C124 C123 1.387 . S
C124 C125 1.401 . S
C124 H145 0.930 . S
C125 C124 1.401 . S
C125 C126 1.376 . S
C125 C134 1.511 . S
C126 C125 1.376 . S
C126 C127 1.392 . S
C126 H147 0.931 . S
C127 C126 1.392 . S
C127 C128 1.361 . S
C127 C129 1.500 . S
C128 C123 1.390 . S
C128 C127 1.361 . S
C128 H146 0.931 . S
C129 C127 1.500 . S
C129 C130 1.371 . S
C129 C131 1.365 . S
C130 C129 1.371 . S
C130 C140 1.386 . S
C130 H148 0.931 . S
C131 C129 1.365 . S
C131 C132 1.409 . S
C131 H149 0.929 . S
C132 C131 1.409 . S
C132 C133 1.380 . S
C132 H150 0.930 . S
C133 C132 1.380 . S
C133 C140 1.357 . S
C134 C125 1.511 . S
C134 C135 1.341 . S
C134 C136 1.371 . S
C135 C134 1.341 . S
C135 C139 1.394 . S
C135 H151 0.930 . S
C136 C134 1.371 . S
C136 C137 1.392 . S
C136 H152 0.931 . S
C137 C136 1.392 . S
C137 C138 1.331 . S
C137 H155 0.932 . S
C138 C137 1.331 . S
C138 C139 1.336 . S
C139 C135 1.394 . S
C139 C138 1.336 . S
C139 H154 0.929 . S
C140 C130 1.386 . S
C140 C133 1.357 . S
C140 H153 0.928 . S
H141 C117 0.931 . S
H142 C119 0.930 . S
H143 C121 0.929 . S
H144 C122 0.931 . S
H145 C124 0.930 . S
H146 C128 0.931 . S
H147 C126 0.931 . S
H148 C130 0.931 . S
H149 C131 0.929 . S
H150 C132 0.930 . S
H151 C135 0.930 . S
H152 C136 0.931 . S
H153 C140 0.928 . S
H154 C139 0.929 . S
H155 C137 0.932 . S
C156 C157 1.386 . S
C156 C158 1.397 . S
C156 H180 0.931 . S
C157 C156 1.386 . S
C157 C161 1.397 . S
C158 C156 1.397 . S
C158 C159 1.384 . S
C158 H181 0.930 . S
C159 C158 1.384 . S
C159 C160 1.377 . S
C159 C162 1.481 . S
C160 C159 1.377 . S
C160 C161 1.389 . S
C160 H182 0.929 . S
C161 C157 1.397 . S
C161 C160 1.389 . S
C161 H183 0.931 . S
C162 C159 1.481 . S
C162 C163 1.387 . S
C162 C167 1.390 . S
C163 C162 1.387 . S
C163 C164 1.401 . S
C163 H184 0.930 . S
C164 C163 1.401 . S
C164 C165 1.376 . S
C164 C173 1.511 . S
C165 C164 1.376 . S
C165 C166 1.392 . S
C165 H186 0.931 . S
C166 C165 1.392 . S
C166 C167 1.361 . S
C166 C168 1.500 . S
C167 C162 1.390 . S
C167 C166 1.361 . S
C167 H185 0.931 . S
C168 C166 1.500 . S
C168 C169 1.371 . S
C168 C170 1.365 . S
C169 C168 1.371 . S
C169 C179 1.386 . S
C169 H187 0.931 . S
C170 C168 1.365 . S
C170 C171 1.409 . S
C170 H188 0.929 . S
C171 C170 1.409 . S
C171 C172 1.380 . S
C171 H189 0.930 . S
C172 C171 1.380 . S
C172 C179 1.357 . S
C173 C164 1.511 . S
C173 C174 1.341 . S
C173 C175 1.371 . S
C174 C173 1.341 . S
C174 C178 1.394 . S
C174 H190 0.930 . S
C175 C173 1.371 . S
C175 C176 1.392 . S
C175 H191 0.931 . S
C176 C175 1.392 . S
C176 C177 1.331 . S
C176 H194 0.932 . S
C177 C176 1.331 . S
C177 C178 1.336 . S
C178 C174 1.394 . S
C178 C177 1.336 . S
C178 H193 0.929 . S
C179 C169 1.386 . S
C179 C172 1.357 . S
C179 H192 0.928 . S
H180 C156 0.931 . S
H181 C158 0.930 . S
H182 C160 0.929 . S
H183 C161 0.931 . S
H184 C163 0.930 . S
H185 C167 0.931 . S
H186 C165 0.931 . S
H187 C169 0.931 . S
H188 C170 0.929 . S
H189 C171 0.930 . S
H190 C174 0.930 . S
H191 C175 0.931 . S
H192 C179 0.928 . S
H193 C178 0.929 . S
H194 C176 0.932 . S
C195 C196 1.386 . S
C195 C197 1.397 . S
C195 H219 0.931 . S
C196 C195 1.386 . S
C196 C200 1.397 . S
C197 C195 1.397 . S
C197 C198 1.384 . S
C197 H220 0.930 . S
C198 C197 1.384 . S
C198 C199 1.377 . S
C198 C201 1.481 . S
C199 C198 1.377 . S
C199 C200 1.389 . S
C199 H221 0.929 . S
C200 C196 1.397 . S
C200 C199 1.389 . S
C200 H222 0.931 . S
C201 C198 1.481 . S
C201 C202 1.387 . S
C201 C206 1.390 . S
C202 C201 1.387 . S
C202 C203 1.401 . S
C202 H223 0.930 . S
C203 C202 1.401 . S
C203 C204 1.376 . S
C203 C212 1.511 . S
C204 C203 1.376 . S
C204 C205 1.392 . S
C204 H225 0.931 . S
C205 C204 1.392 . S
C205 C206 1.361 . S
C205 C207 1.500 . S
C206 C201 1.390 . S
C206 C205 1.361 . S
C206 H224 0.931 . S
C207 C205 1.500 . S
C207 C208 1.371 . S
C207 C209 1.365 . S
C208 C207 1.371 . S
C208 C218 1.386 . S
C208 H226 0.931 . S
C209 C207 1.365 . S
C209 C210 1.409 . S
C209 H227 0.929 . S
C210 C209 1.409 . S
C210 C211 1.380 . S
C210 H228 0.930 . S
C211 C210 1.380 . S
C211 C218 1.357 . S
C212 C203 1.511 . S
C212 C213 1.341 . S
C212 C214 1.371 . S
C213 C212 1.341 . S
C213 C217 1.394 . S
C213 H229 0.930 . S
C214 C212 1.371 . S
C214 C215 1.392 . S
C214 H230 0.931 . S
C215 C214 1.392 . S
C215 C216 1.331 . S
C215 H233 0.932 . S
C216 C215 1.331 . S
C216 C217 1.336 . S
C217 C213 1.394 . S
C217 C216 1.336 . S
C217 H232 0.929 . S
C218 C208 1.386 . S
C218 C211 1.357 . S
C218 H231 0.928 . S
H219 C195 0.931 . S
H220 C197 0.930 . S
H221 C199 0.929 . S
H222 C200 0.931 . S
H223 C202 0.930 . S
H224 C206 0.931 . S
H225 C204 0.931 . S
H226 C208 0.931 . S
H227 C209 0.929 . S
H228 C210 0.930 . S
H229 C213 0.930 . S
H230 C214 0.931 . S
H231 C218 0.928 . S
H232 C217 0.929 . S
H233 C215 0.932 . S
C234 C235 1.386 . S
C234 C236 1.397 . S
C234 H258 0.931 . S
C235 C234 1.386 . S
C235 C239 1.397 . S
C236 C234 1.397 . S
C236 C237 1.384 . S
C236 H259 0.930 . S
C237 C236 1.384 . S
C237 C238 1.377 . S
C237 C240 1.481 . S
C238 C237 1.377 . S
C238 C239 1.389 . S
C238 H260 0.929 . S
C239 C235 1.397 . S
C239 C238 1.389 . S
C239 H261 0.931 . S
C240 C237 1.481 . S
C240 C241 1.387 . S
C240 C245 1.390 . S
C241 C240 1.387 . S
C241 C242 1.401 . S
C241 H262 0.930 . S
C242 C241 1.401 . S
C242 C243 1.376 . S
C242 C251 1.511 . S
C243 C242 1.376 . S
C243 C244 1.392 . S
C243 H264 0.931 . S
C244 C243 1.392 . S
C244 C245 1.361 . S
C244 C246 1.500 . S
C245 C240 1.390 . S
C245 C244 1.361 . S
C245 H263 0.931 . S
C246 C244 1.500 . S
C246 C247 1.371 . S
C246 C248 1.365 . S
C247 C246 1.371 . S
C247 C257 1.386 . S
C247 H265 0.931 . S
C248 C246 1.365 . S
C248 C249 1.409 . S
C248 H266 0.929 . S
C249 C248 1.409 . S
C249 C250 1.380 . S
C249 H267 0.930 . S
C250 C249 1.380 . S
C250 C257 1.357 . S
C251 C242 1.511 . S
C251 C252 1.341 . S
C251 C253 1.371 . S
C252 C251 1.341 . S
C252 C256 1.394 . S
C252 H268 0.930 . S
C253 C251 1.371 . S
C253 C254 1.392 . S
C253 H269 0.931 . S
C254 C253 1.392 . S
C254 C255 1.331 . S
C254 H272 0.932 . S
C255 C254 1.331 . S
C255 C256 1.336 . S
C256 C252 1.394 . S
C256 C255 1.336 . S
C256 H271 0.929 . S
C257 C247 1.386 . S
C257 C250 1.357 . S
C257 H270 0.928 . S
H258 C234 0.931 . S
H259 C236 0.930 . S
H260 C238 0.929 . S
H261 C239 0.931 . S
H262 C241 0.930 . S
H263 C245 0.931 . S
H264 C243 0.931 . S
H265 C247 0.931 . S
H266 C248 0.929 . S
H267 C249 0.930 . S
H268 C252 0.930 . S
H269 C253 0.931 . S
H270 C257 0.928 . S
H271 C256 0.929 . S
H272 C254 0.932 . S
C273 C274 1.386 . S
C273 C275 1.397 . S
C273 H297 0.931 . S
C274 C273 1.386 . S
C274 C278 1.397 . S
C275 C273 1.397 . S
C275 C276 1.384 . S
C275 H298 0.930 . S
C276 C275 1.384 . S
C276 C277 1.377 . S
C276 C279 1.481 . S
C277 C276 1.377 . S
C277 C278 1.389 . S
C277 H299 0.929 . S
C278 C274 1.397 . S
C278 C277 1.389 . S
C278 H300 0.931 . S
C279 C276 1.481 . S
C279 C280 1.387 . S
C279 C284 1.390 . S
C280 C279 1.387 . S
C280 C281 1.401 . S
C280 H301 0.930 . S
C281 C280 1.401 . S
C281 C282 1.376 . S
C281 C290 1.511 . S
C282 C281 1.376 . S
C282 C283 1.392 . S
C282 H303 0.931 . S
C283 C282 1.392 . S
C283 C284 1.361 . S
C283 C285 1.500 . S
C284 C279 1.390 . S
C284 C283 1.361 . S
C284 H302 0.931 . S
C285 C283 1.500 . S
C285 C286 1.371 . S
C285 C287 1.365 . S
C286 C285 1.371 . S
C286 C296 1.386 . S
C286 H304 0.931 . S
C287 C285 1.365 . S
C287 C288 1.409 . S
C287 H305 0.929 . S
C288 C287 1.409 . S
C288 C289 1.380 . S
C288 H306 0.930 . S
C289 C288 1.380 . S
C289 C296 1.357 . S
C290 C281 1.511 . S
C290 C291 1.341 . S
C290 C292 1.371 . S
C291 C290 1.341 . S
C291 C295 1.394 . S
C291 H307 0.930 . S
C292 C290 1.371 . S
C292 C293 1.392 . S
C292 H308 0.931 . S
C293 C292 1.392 . S
C293 C294 1.331 . S
C293 H311 0.932 . S
C294 C293 1.331 . S
C294 C295 1.336 . S
C295 C291 1.394 . S
C295 C294 1.336 . S
C295 H310 0.929 . S
C296 C286 1.386 . S
C296 C289 1.357 . S
C296 H309 0.928 . S
H297 C273 0.931 . S
H298 C275 0.930 . S
H299 C277 0.929 . S
H300 C278 0.931 . S
H301 C280 0.930 . S
H302 C284 0.931 . S
H303 C282 0.931 . S
H304 C286 0.931 . S
H305 C287 0.929 . S
H306 C288 0.930 . S
H307 C291 0.930 . S
H308 C292 0.931 . S
H309 C296 0.928 . S
H310 C295 0.929 . S
H311 C293 0.932 . S
Co312 O315 2.042 . S
Co312 O322 2.264 . S
Co312 O341 2.286 . S
Co312 O342 2.069 . S
Co312 O344 2.015 . S
Co313 O315 2.122 . S
Co313 O321 2.073 . S
Co313 O322 2.327 . S
Co313 O323 1.976 . S
Co314 O315 2.087 . S
Co314 O317 2.087 1_455 S
Co314 O324 2.111 . S
Co314 O325 2.143 1_455 S
Co314 O329 2.111 1_455 S
Co314 O343 2.143 . S
O315 Co312 2.042 . S
O315 Co313 2.122 . S
O315 Co314 2.087 . S
O315 H316 0.980 . S
H316 O315 0.980 . S
O317 Co314 2.087 1_655 S
O317 Co318 2.042 . S
O317 Co319 2.122 . S
O317 H320 0.980 . S
Co318 O317 2.042 . S
Co318 O326 2.286 . S
Co318 O327 2.069 . S
Co318 O328 2.015 . S
Co318 O331 2.264 . S
Co319 O317 2.122 . S
Co319 O330 1.976 . S
Co319 O331 2.327 . S
Co319 O332 2.073 . S
H320 O317 0.980 . S
O321 Co313 2.073 . S
O321 C336 1.245 . S
O322 Co312 2.264 . S
O322 Co313 2.327 . S
O322 C336 1.257 . S
O323 Co313 1.976 . S
O323 C335 1.251 . S
O324 Co314 2.111 . S
O324 C335 1.274 . S
O325 Co314 2.143 1_655 S
O325 C338 1.246 . S
O326 Co318 2.286 . S
O326 C337 1.259 . S
O327 Co318 2.069 . S
O327 C337 1.289 . S
O328 Co318 2.015 . S
O328 C338 1.257 . S
O329 Co314 2.111 1_655 S
O329 C339 1.274 . S
O330 Co319 1.976 . S
O330 C339 1.251 . S
O331 Co318 2.264 . S
O331 Co319 2.327 . S
O331 C340 1.257 . S
O332 Co319 2.073 . S
O332 C340 1.245 . S
C333 O341 1.259 . S
C333 O342 1.289 . S
C334 O343 1.246 . S
C334 O344 1.257 . S
C335 O323 1.251 . S
C335 O324 1.274 . S
C336 O321 1.245 . S
C336 O322 1.257 . S
C337 O326 1.259 . S
C337 O327 1.289 . S
C338 O325 1.246 . S
C338 O328 1.257 . S
C339 O329 1.274 . S
C339 O330 1.251 . S
C340 O331 1.257 . S
C340 O332 1.245 . S
O341 Co312 2.286 . S
O341 C333 1.259 . S
O342 Co312 2.069 . S
O342 C333 1.289 . S
O343 Co314 2.143 . S
O343 C334 1.246 . S
O344 Co312 2.015 . S
O344 C334 1.257 . S
Co345 O348 2.042 . S
Co345 O355 2.264 . S
Co345 O374 2.286 . S
Co345 O375 2.069 . S
Co345 O377 2.015 . S
Co346 O348 2.122 . S
Co346 O354 2.073 . S
Co346 O355 2.327 . S
Co346 O356 1.976 . S
Co347 O348 2.087 1_545 S
Co347 O350 2.087 . S
Co347 O357 2.111 1_545 S
Co347 O358 2.143 . S
Co347 O362 2.111 . S
Co347 O376 2.143 1_545 S
O348 Co345 2.042 . S
O348 Co346 2.122 . S
O348 Co347 2.087 1_565 S
O348 H349 0.980 . S
H349 O348 0.980 . S
O350 Co347 2.087 . S
O350 Co351 2.042 . S
O350 Co352 2.122 . S
O350 H353 0.980 . S
Co351 O350 2.042 . S
Co351 O359 2.286 . S
Co351 O360 2.069 . S
Co351 O361 2.015 . S
Co351 O364 2.264 . S
Co352 O350 2.122 . S
Co352 O363 1.976 . S
Co352 O364 2.327 . S
Co352 O365 2.073 . S
H353 O350 0.980 . S
O354 Co346 2.073 . S
O354 C369 1.245 . S
O355 Co345 2.264 . S
O355 Co346 2.327 . S
O355 C369 1.257 . S
O356 Co346 1.976 . S
O356 C368 1.251 . S
O357 Co347 2.111 1_565 S
O357 C368 1.274 . S
O358 Co347 2.143 . S
O358 C371 1.246 . S
O359 Co351 2.286 . S
O359 C370 1.259 . S
O360 Co351 2.069 . S
O360 C370 1.289 . S
O361 Co351 2.015 . S
O361 C371 1.257 . S
O362 Co347 2.111 . S
O362 C372 1.274 . S
O363 Co352 1.976 . S
O363 C372 1.251 . S
O364 Co351 2.264 . S
O364 Co352 2.327 . S
O364 C373 1.257 . S
O365 Co352 2.073 . S
O365 C373 1.245 . S
C366 O374 1.259 . S
C366 O375 1.289 . S
C367 O376 1.246 . S
C367 O377 1.257 . S
C368 O356 1.251 . S
C368 O357 1.274 . S
C369 O354 1.245 . S
C369 O355 1.257 . S
C370 O359 1.259 . S
C370 O360 1.289 . S
C371 O358 1.246 . S
C371 O361 1.257 . S
C372 O362 1.274 . S
C372 O363 1.251 . S
C373 O364 1.257 . S
C373 O365 1.245 . S
O374 Co345 2.286 . S
O374 C366 1.259 . S
O375 Co345 2.069 . S
O375 C366 1.289 . S
O376 Co347 2.143 1_565 S
O376 C367 1.246 . S
O377 Co345 2.015 . S
O377 C367 1.257 . S
Co378 O381 2.042 . S
Co378 O388 2.264 . S
Co378 O407 2.286 . S
Co378 O408 2.069 . S
Co378 O410 2.015 . S
Co379 O381 2.122 . S
Co379 O387 2.073 . S
Co379 O388 2.327 . S
Co379 O389 1.976 . S
Co380 O381 2.087 . S
Co380 O383 2.087 1_554 S
Co380 O390 2.111 . S
Co380 O391 2.143 1_554 S
Co380 O395 2.111 1_554 S
Co380 O409 2.143 . S
O381 Co378 2.042 . S
O381 Co379 2.122 . S
O381 Co380 2.087 . S
O381 H382 0.980 . S
H382 O381 0.980 . S
O383 Co380 2.087 1_556 S
O383 Co384 2.042 . S
O383 Co385 2.122 . S
O383 H386 0.980 . S
Co384 O383 2.042 . S
Co384 O392 2.286 . S
Co384 O393 2.069 . S
Co384 O394 2.015 . S
Co384 O397 2.264 . S
Co385 O383 2.122 . S
Co385 O396 1.976 . S
Co385 O397 2.327 . S
Co385 O398 2.073 . S
H386 O383 0.980 . S
O387 Co379 2.073 . S
O387 C402 1.245 . S
O388 Co378 2.264 . S
O388 Co379 2.327 . S
O388 C402 1.257 . S
O389 Co379 1.976 . S
O389 C401 1.251 . S
O390 Co380 2.111 . S
O390 C401 1.274 . S
O391 Co380 2.143 1_556 S
O391 C404 1.246 . S
O392 Co384 2.286 . S
O392 C403 1.259 . S
O393 Co384 2.069 . S
O393 C403 1.289 . S
O394 Co384 2.015 . S
O394 C404 1.257 . S
O395 Co380 2.111 1_556 S
O395 C405 1.274 . S
O396 Co385 1.976 . S
O396 C405 1.251 . S
O397 Co384 2.264 . S
O397 Co385 2.327 . S
O397 C406 1.257 . S
O398 Co385 2.073 . S
O398 C406 1.245 . S
C399 O407 1.259 . S
C399 O408 1.289 . S
C400 O409 1.246 . S
C400 O410 1.257 . S
C401 O389 1.251 . S
C401 O390 1.274 . S
C402 O387 1.245 . S
C402 O388 1.257 . S
C403 O392 1.259 . S
C403 O393 1.289 . S
C404 O391 1.246 . S
C404 O394 1.257 . S
C405 O395 1.274 . S
C405 O396 1.251 . S
C406 O397 1.257 . S
C406 O398 1.245 . S
O407 Co378 2.286 . S
O407 C399 1.259 . S
O408 Co378 2.069 . S
O408 C399 1.289 . S
O409 Co380 2.143 . S
O409 C400 1.246 . S
O410 Co378 2.015 . S
O410 C400 1.257 . S
C411 C412 1.363 . S
C411 C417 1.379 . S
C411 N419 1.356 . S
C412 C411 1.363 . S
C412 C418 1.363 . S
C413 C414 1.363 . S
C413 C418 1.379 . S
C413 N420 1.356 . S
C414 C413 1.363 . S
C414 C417 1.363 . S
N415 C417 1.356 . S
N415 H427 0.984 . S
N415 H428 0.985 . S
N416 C418 1.356 . S
N416 H421 0.984 . S
N416 H422 0.985 . S
C417 C411 1.379 . S
C417 C414 1.363 . S
C417 N415 1.356 . S
C418 C412 1.363 . S
C418 C413 1.379 . S
C418 N416 1.356 . S
N419 C411 1.356 . S
N419 H425 0.984 . S
N419 H426 0.984 . S
N420 C413 1.356 . S
N420 H423 0.984 . S
N420 H424 0.985 . S
H421 N416 0.984 . S
H422 N416 0.985 . S
H423 N420 0.984 . S
H424 N420 0.985 . S
H425 N419 0.984 . S
H426 N419 0.984 . S
H427 N415 0.984 . S
H428 N415 0.985 . S
C429 C430 1.363 . S
C429 C435 1.379 . S
C429 N437 1.356 . S
C430 C429 1.363 . S
C430 C436 1.363 . S
C431 C432 1.363 . S
C431 C436 1.379 . S
C431 N438 1.356 . S
C432 C431 1.363 . S
C432 C435 1.363 . S
N433 C435 1.356 . S
N433 H445 0.984 . S
N433 H446 0.985 . S
N434 C436 1.356 . S
N434 H439 0.984 . S
N434 H440 0.985 . S
C435 C429 1.379 . S
C435 C432 1.363 . S
C435 N433 1.356 . S
C436 C430 1.363 . S
C436 C431 1.379 . S
C436 N434 1.356 . S
N437 C429 1.356 . S
N437 H443 0.984 . S
N437 H444 0.984 . S
N438 C431 1.356 . S
N438 H441 0.984 . S
N438 H442 0.985 . S
H439 N434 0.984 . S
H440 N434 0.985 . S
H441 N438 0.984 . S
H442 N438 0.985 . S
H443 N437 0.984 . S
H444 N437 0.984 . S
H445 N433 0.984 . S
H446 N433 0.985 . S
C447 C448 1.363 . S
C447 C453 1.379 . S
C447 N455 1.356 . S
C448 C447 1.363 . S
C448 C454 1.363 . S
C449 C450 1.363 . S
C449 C454 1.379 . S
C449 N456 1.356 . S
C450 C449 1.363 . S
C450 C453 1.363 . S
N451 C453 1.356 . S
N451 H463 0.984 . S
N451 H464 0.985 . S
N452 C454 1.356 . S
N452 H457 0.984 . S
N452 H458 0.985 . S
C453 C447 1.379 . S
C453 C450 1.363 . S
C453 N451 1.356 . S
C454 C448 1.363 . S
C454 C449 1.379 . S
C454 N452 1.356 . S
N455 C447 1.356 . S
N455 H461 0.984 . S
N455 H462 0.984 . S
N456 C449 1.356 . S
N456 H459 0.984 . S
N456 H460 0.985 . S
H457 N452 0.984 . S
H458 N452 0.985 . S
H459 N456 0.984 . S
H460 N456 0.985 . S
H461 N455 0.984 . S
H462 N455 0.984 . S
H463 N451 0.984 . S
H464 N451 0.985 . S
C465 C466 1.363 . S
C465 C471 1.379 . S
C465 N473 1.356 . S
C466 C465 1.363 . S
C466 C472 1.363 . S
C467 C468 1.363 . S
C467 C472 1.379 . S
C467 N474 1.356 . S
C468 C467 1.363 . S
C468 C471 1.363 . S
N469 C471 1.356 . S
N469 H481 0.984 . S
N469 H482 0.985 . S
N470 C472 1.356 . S
N470 H475 0.984 . S
N470 H476 0.985 . S
C471 C465 1.379 . S
C471 C468 1.363 . S
C471 N469 1.356 . S
C472 C466 1.363 . S
C472 C467 1.379 . S
C472 N470 1.356 . S
N473 C465 1.356 . S
N473 H479 0.984 . S
N473 H480 0.984 . S
N474 C467 1.356 . S
N474 H477 0.984 . S
N474 H478 0.985 . S
H475 N470 0.984 . S
H476 N470 0.985 . S
H477 N474 0.984 . S
H478 N474 0.985 . S
H479 N473 0.984 . S
H480 N473 0.984 . S
H481 N469 0.984 . S
H482 N469 0.985 . S
C483 C484 1.363 . S
C483 C489 1.379 . S
C483 N491 1.356 . S
C484 C483 1.363 . S
C484 C490 1.363 . S
C485 C486 1.363 . S
C485 C490 1.379 . S
C485 N492 1.356 . S
C486 C485 1.363 . S
C486 C489 1.363 . S
N487 C489 1.356 . S
N487 H499 0.984 . S
N487 H500 0.985 . S
N488 C490 1.356 . S
N488 H493 0.984 . S
N488 H494 0.985 . S
C489 C483 1.379 . S
C489 C486 1.363 . S
C489 N487 1.356 . S
C490 C484 1.363 . S
C490 C485 1.379 . S
C490 N488 1.356 . S
N491 C483 1.356 . S
N491 H497 0.984 . S
N491 H498 0.984 . S
N492 C485 1.356 . S
N492 H495 0.984 . S
N492 H496 0.985 . S
H493 N488 0.984 . S
H494 N488 0.985 . S
H495 N492 0.984 . S
H496 N492 0.985 . S
H497 N491 0.984 . S
H498 N491 0.984 . S
H499 N487 0.984 . S
H500 N487 0.985 . S
C501 C502 1.363 . S
C501 C507 1.379 . S
C501 N509 1.356 . S
C502 C501 1.363 . S
C502 C508 1.363 . S
C503 C504 1.363 . S
C503 C508 1.379 . S
C503 N510 1.356 . S
C504 C503 1.363 . S
C504 C507 1.363 . S
N505 C507 1.356 . S
N505 H517 0.984 . S
N505 H518 0.985 . S
N506 C508 1.356 . S
N506 H511 0.984 . S
N506 H512 0.985 . S
C507 C501 1.379 . S
C507 C504 1.363 . S
C507 N505 1.356 . S
C508 C502 1.363 . S
C508 C503 1.379 . S
C508 N506 1.356 . S
N509 C501 1.356 . S
N509 H515 0.984 . S
N509 H516 0.984 . S
N510 C503 1.356 . S
N510 H513 0.984 . S
N510 H514 0.985 . S
H511 N506 0.984 . S
H512 N506 0.985 . S
H513 N510 0.984 . S
H514 N510 0.985 . S
H515 N509 0.984 . S
H516 N509 0.984 . S
H517 N505 0.984 . S
H518 N505 0.985 . S
C519 C520 1.363 . S
C519 C525 1.379 . S
C519 N527 1.356 . S
C520 C519 1.363 . S
C520 C526 1.363 . S
C521 C522 1.363 . S
C521 C526 1.379 . S
C521 N528 1.356 . S
C522 C521 1.363 . S
C522 C525 1.363 . S
N523 C525 1.356 . S
N523 H535 0.984 . S
N523 H536 0.985 . S
N524 C526 1.356 . S
N524 H529 0.984 . S
N524 H530 0.985 . S
C525 C519 1.379 . S
C525 C522 1.363 . S
C525 N523 1.356 . S
C526 C520 1.363 . S
C526 C521 1.379 . S
C526 N524 1.356 . S
N527 C519 1.356 . S
N527 H533 0.984 . S
N527 H534 0.984 . S
N528 C521 1.356 . S
N528 H531 0.984 . S
N528 H532 0.985 . S
H529 N524 0.984 . S
H530 N524 0.985 . S
H531 N528 0.984 . S
H532 N528 0.985 . S
H533 N527 0.984 . S
H534 N527 0.984 . S
H535 N523 0.984 . S
H536 N523 0.985 . S
C537 C538 1.363 . S
C537 C543 1.379 . S
C537 N545 1.356 . S
C538 C537 1.363 . S
C538 C544 1.363 . S
C539 C540 1.363 . S
C539 C544 1.379 . S
C539 N546 1.356 . S
C540 C539 1.363 . S
C540 C543 1.363 . S
N541 C543 1.356 . S
N541 H553 0.984 . S
N541 H554 0.985 . S
N542 C544 1.356 . S
N542 H547 0.984 . S
N542 H548 0.985 . S
C543 C537 1.379 . S
C543 C540 1.363 . S
C543 N541 1.356 . S
C544 C538 1.363 . S
C544 C539 1.379 . S
C544 N542 1.356 . S
N545 C537 1.356 . S
N545 H551 0.984 . S
N545 H552 0.984 . S
N546 C539 1.356 . S
N546 H549 0.984 . S
N546 H550 0.985 . S
H547 N542 0.984 . S
H548 N542 0.985 . S
H549 N546 0.984 . S
H550 N546 0.985 . S
H551 N545 0.984 . S
H552 N545 0.984 . S
H553 N541 0.984 . S
H554 N541 0.985 . S
C555 C556 1.363 . S
C555 C561 1.379 . S
C555 N563 1.356 . S
C556 C555 1.363 . S
C556 C562 1.363 . S
C557 C558 1.363 . S
C557 C562 1.379 . S
C557 N564 1.356 . S
C558 C557 1.363 . S
C558 C561 1.363 . S
N559 C561 1.356 . S
N559 H571 0.984 . S
N559 H572 0.985 . S
N560 C562 1.356 . S
N560 H565 0.984 . S
N560 H566 0.985 . S
C561 C555 1.379 . S
C561 C558 1.363 . S
C561 N559 1.356 . S
C562 C556 1.363 . S
C562 C557 1.379 . S
C562 N560 1.356 . S
N563 C555 1.356 . S
N563 H569 0.984 . S
N563 H570 0.984 . S
N564 C557 1.356 . S
N564 H567 0.984 . S
N564 H568 0.985 . S
H565 N560 0.984 . S
H566 N560 0.985 . S
H567 N564 0.984 . S
H568 N564 0.985 . S
H569 N563 0.984 . S
H570 N563 0.984 . S
H571 N559 0.984 . S
H572 N559 0.985 . S
C573 C574 1.363 . S
C573 C579 1.379 . S
C573 N581 1.356 . S
C574 C573 1.363 . S
C574 C580 1.363 . S
C575 C576 1.363 . S
C575 C580 1.379 . S
C575 N582 1.356 . S
C576 C575 1.363 . S
C576 C579 1.363 . S
N577 C579 1.356 . S
N577 H589 0.984 . S
N577 H590 0.985 . S
N578 C580 1.356 . S
N578 H583 0.984 . S
N578 H584 0.985 . S
C579 C573 1.379 . S
C579 C576 1.363 . S
C579 N577 1.356 . S
C580 C574 1.363 . S
C580 C575 1.379 . S
C580 N578 1.356 . S
N581 C573 1.356 . S
N581 H587 0.984 . S
N581 H588 0.984 . S
N582 C575 1.356 . S
N582 H585 0.984 . S
N582 H586 0.985 . S
H583 N578 0.984 . S
H584 N578 0.985 . S
H585 N582 0.984 . S
H586 N582 0.985 . S
H587 N581 0.984 . S
H588 N581 0.984 . S
H589 N577 0.984 . S
H590 N577 0.985 . S
C591 C592 1.363 . S
C591 C597 1.379 . S
C591 N599 1.356 . S
C592 C591 1.363 . S
C592 C598 1.363 . S
C593 C594 1.363 . S
C593 C598 1.379 . S
C593 N600 1.356 . S
C594 C593 1.363 . S
C594 C597 1.363 . S
N595 C597 1.356 . S
N595 H607 0.984 . S
N595 H608 0.985 . S
N596 C598 1.356 . S
N596 H601 0.984 . S
N596 H602 0.985 . S
C597 C591 1.379 . S
C597 C594 1.363 . S
C597 N595 1.356 . S
C598 C592 1.363 . S
C598 C593 1.379 . S
C598 N596 1.356 . S
N599 C591 1.356 . S
N599 H605 0.984 . S
N599 H606 0.984 . S
N600 C593 1.356 . S
N600 H603 0.984 . S
N600 H604 0.985 . S
H601 N596 0.984 . S
H602 N596 0.985 . S
H603 N600 0.984 . S
H604 N600 0.985 . S
H605 N599 0.984 . S
H606 N599 0.984 . S
H607 N595 0.984 . S
H608 N595 0.985 . S
C609 C610 1.363 . S
C609 C615 1.379 . S
C609 N617 1.356 . S
C610 C609 1.363 . S
C610 C616 1.363 . S
C611 C612 1.363 . S
C611 C616 1.379 . S
C611 N618 1.356 . S
C612 C611 1.363 . S
C612 C615 1.363 . S
N613 C615 1.356 . S
N613 H625 0.984 . S
N613 H626 0.985 . S
N614 C616 1.356 . S
N614 H619 0.984 . S
N614 H620 0.985 . S
C615 C609 1.379 . S
C615 C612 1.363 . S
C615 N613 1.356 . S
C616 C610 1.363 . S
C616 C611 1.379 . S
C616 N614 1.356 . S
N617 C609 1.356 . S
N617 H623 0.984 . S
N617 H624 0.984 . S
N618 C611 1.356 . S
N618 H621 0.984 . S
N618 H622 0.985 . S
H619 N614 0.984 . S
H620 N614 0.985 . S
H621 N618 0.984 . S
H622 N618 0.985 . S
H623 N617 0.984 . S
H624 N617 0.984 . S
H625 N613 0.984 . S
H626 N613 0.985 . S
C627 C628 1.363 . S
C627 C633 1.379 . S
C627 N635 1.356 . S
C628 C627 1.363 . S
C628 C634 1.363 . S
C629 C630 1.363 . S
C629 C634 1.379 . S
C629 N636 1.356 . S
C630 C629 1.363 . S
C630 C633 1.363 . S
N631 C633 1.356 . S
N631 H643 0.984 . S
N631 H644 0.985 . S
N632 C634 1.356 . S
N632 H637 0.984 . S
N632 H638 0.985 . S
C633 C627 1.379 . S
C633 C630 1.363 . S
C633 N631 1.356 . S
C634 C628 1.363 . S
C634 C629 1.379 . S
C634 N632 1.356 . S
N635 C627 1.356 . S
N635 H641 0.984 . S
N635 H642 0.984 . S
N636 C629 1.356 . S
N636 H639 0.984 . S
N636 H640 0.985 . S
H637 N632 0.984 . S
H638 N632 0.985 . S
H639 N636 0.984 . S
H640 N636 0.985 . S
H641 N635 0.984 . S
H642 N635 0.984 . S
H643 N631 0.984 . S
H644 N631 0.985 . S
C645 C646 1.363 . S
C645 C651 1.379 . S
C645 N653 1.356 . S
C646 C645 1.363 . S
C646 C652 1.363 . S
C647 C648 1.363 . S
C647 C652 1.379 . S
C647 N654 1.356 . S
C648 C647 1.363 . S
C648 C651 1.363 . S
N649 C651 1.356 . S
N649 H661 0.984 . S
N649 H662 0.985 . S
N650 C652 1.356 . S
N650 H655 0.984 . S
N650 H656 0.985 . S
C651 C645 1.379 . S
C651 C648 1.363 . S
C651 N649 1.356 . S
C652 C646 1.363 . S
C652 C647 1.379 . S
C652 N650 1.356 . S
N653 C645 1.356 . S
N653 H659 0.984 . S
N653 H660 0.984 . S
N654 C647 1.356 . S
N654 H657 0.984 . S
N654 H658 0.985 . S
H655 N650 0.984 . S
H656 N650 0.985 . S
H657 N654 0.984 . S
H658 N654 0.985 . S
H659 N653 0.984 . S
H660 N653 0.984 . S
H661 N649 0.984 . S
H662 N649 0.985 . S
C663 C664 1.363 . S
C663 C669 1.379 . S
C663 N671 1.356 . S
C664 C663 1.363 . S
C664 C670 1.363 . S
C665 C666 1.363 . S
C665 C670 1.379 . S
C665 N672 1.356 . S
C666 C665 1.363 . S
C666 C669 1.363 . S
N667 C669 1.356 . S
N667 H679 0.984 . S
N667 H680 0.985 . S
N668 C670 1.356 . S
N668 H673 0.984 . S
N668 H674 0.985 . S
C669 C663 1.379 . S
C669 C666 1.363 . S
C669 N667 1.356 . S
C670 C664 1.363 . S
C670 C665 1.379 . S
C670 N668 1.356 . S
N671 C663 1.356 . S
N671 H677 0.984 . S
N671 H678 0.984 . S
N672 C665 1.356 . S
N672 H675 0.984 . S
N672 H676 0.985 . S
H673 N668 0.984 . S
H674 N668 0.985 . S
H675 N672 0.984 . S
H676 N672 0.985 . S
H677 N671 0.984 . S
H678 N671 0.984 . S
H679 N667 0.984 . S
H680 N667 0.985 . S
C681 C682 1.363 . S
C681 C687 1.379 . S
C681 N689 1.356 . S
C682 C681 1.363 . S
C682 C688 1.363 . S
C683 C684 1.363 . S
C683 C688 1.379 . S
C683 N690 1.356 . S
C684 C683 1.363 . S
C684 C687 1.363 . S
N685 C687 1.356 . S
N685 H697 0.984 . S
N685 H698 0.985 . S
N686 C688 1.356 . S
N686 H691 0.984 . S
N686 H692 0.985 . S
C687 C681 1.379 . S
C687 C684 1.363 . S
C687 N685 1.356 . S
C688 C682 1.363 . S
C688 C683 1.379 . S
C688 N686 1.356 . S
N689 C681 1.356 . S
N689 H695 0.984 . S
N689 H696 0.984 . S
N690 C683 1.356 . S
N690 H693 0.984 . S
N690 H694 0.985 . S
H691 N686 0.984 . S
H692 N686 0.985 . S
H693 N690 0.984 . S
H694 N690 0.985 . S
H695 N689 0.984 . S
H696 N689 0.984 . S
H697 N685 0.984 . S
H698 N685 0.985 . S
C699 C700 1.363 . S
C699 C705 1.379 . S
C699 N707 1.356 . S
C700 C699 1.363 . S
C700 C706 1.363 . S
C701 C702 1.363 . S
C701 C706 1.379 . S
C701 N708 1.356 . S
C702 C701 1.363 . S
C702 C705 1.363 . S
N703 C705 1.356 . S
N703 H715 0.984 . S
N703 H716 0.985 . S
N704 C706 1.356 . S
N704 H709 0.984 . S
N704 H710 0.985 . S
C705 C699 1.379 . S
C705 C702 1.363 . S
C705 N703 1.356 . S
C706 C700 1.363 . S
C706 C701 1.379 . S
C706 N704 1.356 . S
N707 C699 1.356 . S
N707 H713 0.984 . S
N707 H714 0.984 . S
N708 C701 1.356 . S
N708 H711 0.984 . S
N708 H712 0.985 . S
H709 N704 0.984 . S
H710 N704 0.985 . S
H711 N708 0.984 . S
H712 N708 0.985 . S
H713 N707 0.984 . S
H714 N707 0.984 . S
H715 N703 0.984 . S
H716 N703 0.985 . S
C717 C718 1.363 . S
C717 C723 1.379 . S
C717 N725 1.356 . S
C718 C717 1.363 . S
C718 C724 1.363 . S
C719 C720 1.363 . S
C719 C724 1.379 . S
C719 N726 1.356 . S
C720 C719 1.363 . S
C720 C723 1.363 . S
N721 C723 1.356 . S
N721 H733 0.984 . S
N721 H734 0.985 . S
N722 C724 1.356 . S
N722 H727 0.984 . S
N722 H728 0.985 . S
C723 C717 1.379 . S
C723 C720 1.363 . S
C723 N721 1.356 . S
C724 C718 1.363 . S
C724 C719 1.379 . S
C724 N722 1.356 . S
N725 C717 1.356 . S
N725 H731 0.984 . S
N725 H732 0.984 . S
N726 C719 1.356 . S
N726 H729 0.984 . S
N726 H730 0.985 . S
H727 N722 0.984 . S
H728 N722 0.985 . S
H729 N726 0.984 . S
H730 N726 0.985 . S
H731 N725 0.984 . S
H732 N725 0.984 . S
H733 N721 0.984 . S
H734 N721 0.985 . S
C735 C736 1.363 . S
C735 C741 1.379 . S
C735 N743 1.356 . S
C736 C735 1.363 . S
C736 C742 1.363 . S
C737 C738 1.363 . S
C737 C742 1.379 . S
C737 N744 1.356 . S
C738 C737 1.363 . S
C738 C741 1.363 . S
N739 C741 1.356 . S
N739 H751 0.984 . S
N739 H752 0.985 . S
N740 C742 1.356 . S
N740 H745 0.984 . S
N740 H746 0.985 . S
C741 C735 1.379 . S
C741 C738 1.363 . S
C741 N739 1.356 . S
C742 C736 1.363 . S
C742 C737 1.379 . S
C742 N740 1.356 . S
N743 C735 1.356 . S
N743 H749 0.984 . S
N743 H750 0.984 . S
N744 C737 1.356 . S
N744 H747 0.984 . S
N744 H748 0.985 . S
H745 N740 0.984 . S
H746 N740 0.985 . S
H747 N744 0.984 . S
H748 N744 0.985 . S
H749 N743 0.984 . S
H750 N743 0.984 . S
H751 N739 0.984 . S
H752 N739 0.985 . S
C753 C754 1.363 . S
C753 C759 1.379 . S
C753 N761 1.356 . S
C754 C753 1.363 . S
C754 C760 1.363 . S
C755 C756 1.363 . S
C755 C760 1.379 . S
C755 N762 1.356 . S
C756 C755 1.363 . S
C756 C759 1.363 . S
N757 C759 1.356 . S
N757 H769 0.984 . S
N757 H770 0.985 . S
N758 C760 1.356 . S
N758 H763 0.984 . S
N758 H764 0.985 . S
C759 C753 1.379 . S
C759 C756 1.363 . S
C759 N757 1.356 . S
C760 C754 1.363 . S
C760 C755 1.379 . S
C760 N758 1.356 . S
N761 C753 1.356 . S
N761 H767 0.984 . S
N761 H768 0.984 . S
N762 C755 1.356 . S
N762 H765 0.984 . S
N762 H766 0.985 . S
H763 N758 0.984 . S
H764 N758 0.985 . S
H765 N762 0.984 . S
H766 N762 0.985 . S
H767 N761 0.984 . S
H768 N761 0.984 . S
H769 N757 0.984 . S
H770 N757 0.985 . S
C771 C772 1.363 . S
C771 C777 1.379 . S
C771 N779 1.356 . S
C772 C771 1.363 . S
C772 C778 1.363 . S
C773 C774 1.363 . S
C773 C778 1.379 . S
C773 N780 1.356 . S
C774 C773 1.363 . S
C774 C777 1.363 . S
N775 C777 1.356 . S
N775 H787 0.984 . S
N775 H788 0.985 . S
N776 C778 1.356 . S
N776 H781 0.984 . S
N776 H782 0.985 . S
C777 C771 1.379 . S
C777 C774 1.363 . S
C777 N775 1.356 . S
C778 C772 1.363 . S
C778 C773 1.379 . S
C778 N776 1.356 . S
N779 C771 1.356 . S
N779 H785 0.984 . S
N779 H786 0.984 . S
N780 C773 1.356 . S
N780 H783 0.984 . S
N780 H784 0.985 . S
H781 N776 0.984 . S
H782 N776 0.985 . S
H783 N780 0.984 . S
H784 N780 0.985 . S
H785 N779 0.984 . S
H786 N779 0.984 . S
H787 N775 0.984 . S
H788 N775 0.985 . S
C789 C790 1.363 . S
C789 C795 1.379 . S
C789 N797 1.356 . S
C790 C789 1.363 . S
C790 C796 1.363 . S
C791 C792 1.363 . S
C791 C796 1.379 . S
C791 N798 1.356 . S
C792 C791 1.363 . S
C792 C795 1.363 . S
N793 C795 1.356 . S
N793 H805 0.984 . S
N793 H806 0.985 . S
N794 C796 1.356 . S
N794 H799 0.984 . S
N794 H800 0.985 . S
C795 C789 1.379 . S
C795 C792 1.363 . S
C795 N793 1.356 . S
C796 C790 1.363 . S
C796 C791 1.379 . S
C796 N794 1.356 . S
N797 C789 1.356 . S
N797 H803 0.984 . S
N797 H804 0.984 . S
N798 C791 1.356 . S
N798 H801 0.984 . S
N798 H802 0.985 . S
H799 N794 0.984 . S
H800 N794 0.985 . S
H801 N798 0.984 . S
H802 N798 0.985 . S
H803 N797 0.984 . S
H804 N797 0.984 . S
H805 N793 0.984 . S
H806 N793 0.985 . S
C807 C808 1.363 . S
C807 C813 1.379 . S
C807 N815 1.356 . S
C808 C807 1.363 . S
C808 C814 1.363 . S
C809 C810 1.363 . S
C809 C814 1.379 . S
C809 N816 1.356 . S
C810 C809 1.363 . S
C810 C813 1.363 . S
N811 C813 1.356 . S
N811 H823 0.984 . S
N811 H824 0.985 . S
N812 C814 1.356 . S
N812 H817 0.984 . S
N812 H818 0.985 . S
C813 C807 1.379 . S
C813 C810 1.363 . S
C813 N811 1.356 . S
C814 C808 1.363 . S
C814 C809 1.379 . S
C814 N812 1.356 . S
N815 C807 1.356 . S
N815 H821 0.984 . S
N815 H822 0.984 . S
N816 C809 1.356 . S
N816 H819 0.984 . S
N816 H820 0.985 . S
H817 N812 0.984 . S
H818 N812 0.985 . S
H819 N816 0.984 . S
H820 N816 0.985 . S
H821 N815 0.984 . S
H822 N815 0.984 . S
H823 N811 0.984 . S
H824 N811 0.985 . S
C825 C826 1.363 . S
C825 C831 1.379 . S
C825 N833 1.356 . S
C826 C825 1.363 . S
C826 C832 1.363 . S
C827 C828 1.363 . S
C827 C832 1.379 . S
C827 N834 1.356 . S
C828 C827 1.363 . S
C828 C831 1.363 . S
N829 C831 1.356 . S
N829 H841 0.984 . S
N829 H842 0.985 . S
N830 C832 1.356 . S
N830 H835 0.984 . S
N830 H836 0.985 . S
C831 C825 1.379 . S
C831 C828 1.363 . S
C831 N829 1.356 . S
C832 C826 1.363 . S
C832 C827 1.379 . S
C832 N830 1.356 . S
N833 C825 1.356 . S
N833 H839 0.984 . S
N833 H840 0.984 . S
N834 C827 1.356 . S
N834 H837 0.984 . S
N834 H838 0.985 . S
H835 N830 0.984 . S
H836 N830 0.985 . S
H837 N834 0.984 . S
H838 N834 0.985 . S
H839 N833 0.984 . S
H840 N833 0.984 . S
H841 N829 0.984 . S
H842 N829 0.985 . S
C414 C336 1.188 . S
C412 C16 1.235 . S
C432 C372 1.694 . S
C430 C55 1.786 . S
C450 C337 1.451 . S
C448 C99 1.420 . S
C468 C367 1.557 . S
C466 C133 1.565 . S
C486 C334 1.560 . S
C484 C157 1.603 . S
C502 C211 1.691 . S
C504 C370 1.734 . S
C520 C255 1.277 . S
C522 C339 1.162 . S
C540 C369 1.544 . S
C538 C294 1.517 . S
C558 C373 1.545 . S
C556 C21 1.523 . S
C576 C338 1.556 . S
C574 C40 1.591 . S
C594 C366 1.733 . S
C592 C94 1.695 . S
C612 C335 1.162 . S
C610 C138 1.276 . S
C630 C368 1.698 . S
C628 C172 1.786 . S
C646 C216 1.433 . S
C648 C333 1.451 . S
C664 C235 1.575 . S
C666 C371 1.562 . S
C684 C340 1.191 . S
C682 C289 1.241 . S
C702 C402 1.609 . S
C700 C1 1.718 . S
C718 C177 2.034 . S
C720 C405 1.921 . S
C738 C404 1.739 . S
C736 C196 1.753 . S
C754 C250 2.001 . S
C756 C403 2.005 . S
C774 C406 1.612 . S
C772 C274 1.717 . S
C790 C79 1.744 . S
C792 C400 1.740 . S
C810 C399 2.010 . S
C808 C118 2.011 . S
C826 C60 2.019 . S
C828 C401 1.921 . S
