# Generated by pormake.
# Topology pyr, (3,6)-cn, num edge types: 1
# Building blocks:
#     Node 0, Type 0, BuildingBlock: PAMTOO_clean_linker_0, # of connection points: 3
#     Node 1, Type 0, BuildingBlock: PAMTOO_clean_linker_0, # of connection points: 3
#     Node 2, Type 0, BuildingBlock: PAMTOO_clean_linker_0, # of connection points: 3
#     Node 3, Type 0, BuildingBlock: PAMTOO_clean_linker_0, # of connection points: 3
#     Node 4, Type 0, BuildingBlock: PAMTOO_clean_linker_0, # of connection points: 3
#     Node 5, Type 0, BuildingBlock: PAMTOO_clean_linker_0, # of connection points: 3
#     Node 6, Type 0, BuildingBlock: PAMTOO_clean_linker_0, # of connection points: 3
#     Node 7, Type 0, BuildingBlock: PAMTOO_clean_linker_0, # of connection points: 3
#     Node 8, Type 1, BuildingBlock: LEVNOQ01_clean_sbu_1, # of connection points: 6
#     Node 9, Type 1, BuildingBlock: LEVNOQ01_clean_sbu_1, # of connection points: 6
#     Node 10, Type 1, BuildingBlock: LEVNOQ01_clean_sbu_1, # of connection points: 6
#     Node 11, Type 1, BuildingBlock: LEVNOQ01_clean_sbu_1, # of connection points: 6
#     Edge 12, Type (0, 1), BuildingBlock: EZIPEK_clean_linker_0, # of connection points: 2
#     Edge 13, Type (0, 1), BuildingBlock: EZIPEK_clean_linker_0, # of connection points: 2
#     Edge 14, Type (0, 1), BuildingBlock: EZIPEK_clean_linker_0, # of connection points: 2
#     Edge 15, Type (0, 1), BuildingBlock: EZIPEK_clean_linker_0, # of connection points: 2
#     Edge 16, Type (0, 1), BuildingBlock: EZIPEK_clean_linker_0, # of connection points: 2
#     Edge 17, Type (0, 1), BuildingBlock: EZIPEK_clean_linker_0, # of connection points: 2
#     Edge 18, Type (0, 1), BuildingBlock: EZIPEK_clean_linker_0, # of connection points: 2
#     Edge 19, Type (0, 1), BuildingBlock: EZIPEK_clean_linker_0, # of connection points: 2
#     Edge 20, Type (0, 1), BuildingBlock: EZIPEK_clean_linker_0, # of connection points: 2
#     Edge 21, Type (0, 1), BuildingBlock: EZIPEK_clean_linker_0, # of connection points: 2
#     Edge 22, Type (0, 1), BuildingBlock: EZIPEK_clean_linker_0, # of connection points: 2
#     Edge 23, Type (0, 1), BuildingBlock: EZIPEK_clean_linker_0, # of connection points: 2
#     Edge 24, Type (0, 1), BuildingBlock: EZIPEK_clean_linker_0, # of connection points: 2
#     Edge 25, Type (0, 1), BuildingBlock: EZIPEK_clean_linker_0, # of connection points: 2
#     Edge 26, Type (0, 1), BuildingBlock: EZIPEK_clean_linker_0, # of connection points: 2
#     Edge 27, Type (0, 1), BuildingBlock: EZIPEK_clean_linker_0, # of connection points: 2
#     Edge 28, Type (0, 1), BuildingBlock: EZIPEK_clean_linker_0, # of connection points: 2
#     Edge 29, Type (0, 1), BuildingBlock: EZIPEK_clean_linker_0, # of connection points: 2
#     Edge 30, Type (0, 1), BuildingBlock: EZIPEK_clean_linker_0, # of connection points: 2
#     Edge 31, Type (0, 1), BuildingBlock: EZIPEK_clean_linker_0, # of connection points: 2
#     Edge 32, Type (0, 1), BuildingBlock: EZIPEK_clean_linker_0, # of connection points: 2
#     Edge 33, Type (0, 1), BuildingBlock: EZIPEK_clean_linker_0, # of connection points: 2
#     Edge 34, Type (0, 1), BuildingBlock: EZIPEK_clean_linker_0, # of connection points: 2
#     Edge 35, Type (0, 1), BuildingBlock: EZIPEK_clean_linker_0, # of connection points: 2
# Relax obj value: 0.096
# Max RMSD: 0.206
# Mean RMSD: 0.142
data_MOF--net-pry--node1-LEVNOQ01_clean_sbu_1--node2-PAMTOO_clean_linker_0--edge1-EZIPEK_clean_linker_0
_symmetry_space_group_name_H-M    P1
_symmetry_Int_Tables_number       1
_symmetry_cell_setting            triclinic
loop_
_symmetry_equiv_pos_as_xyz
'x, y, z'
_cell_length_a     26.64312
_cell_length_b     26.328815
_cell_length_c     25.660192
_cell_angle_alpha  93.166946
_cell_angle_beta   92.505749
_cell_angle_gamma 97.708867
loop_
_atom_site_label
_atom_site_type_symbol
_atom_site_fract_x
_atom_site_fract_y
_atom_site_fract_z
_atom_type_partial_charge
H0 H 0.09066 0.20168 0.21255 0.0
H1 H 0.183 0.07981 0.22306 0.0
H2 H 0.1866 0.16826 0.08749 0.0
H3 H 0.19867 0.05429 0.07231 0.0
C4 C 0.2255 0.05382 0.10655 0.0
O5 O 0.22936 0.09935 0.13692 0.0
H6 H 0.20712 0.02153 0.128 0.0
C7 C 0.11761 0.17898 0.19566 0.0
C8 C 0.13609 0.18999 0.14614 0.0
C9 C 0.13295 0.13808 0.22306 0.0
C10 C 0.16943 0.11012 0.20175 0.0
C11 C 0.18924 0.12148 0.15337 0.0
C12 C 0.17116 0.15991 0.12493 0.0
H13 H 0.32621 0.98447 0.68801 0.0
H14 H 0.32276 0.86819 0.56248 0.0
H15 H 0.44607 0.89037 0.67836 0.0
H16 H 0.46582 0.87764 0.5547 0.0
C17 C 0.43797 0.84205 0.55029 0.0
O18 O 0.40841 0.83715 0.59314 0.0
H19 H 0.4125 0.84719 0.51647 0.0
C20 C 0.34399 0.95512 0.66742 0.0
C21 C 0.38922 0.9408 0.68848 0.0
C22 C 0.31963 0.92878 0.62214 0.0
C23 C 0.34186 0.88945 0.59671 0.0
C24 C 0.38827 0.87671 0.61612 0.0
C25 C 0.41161 0.90218 0.66201 0.0
H26 H 0.72061 0.30723 0.96939 0.0
H27 H 0.61364 0.30571 0.84089 0.0
H28 H 0.71134 0.44265 0.89052 0.0
H29 H 0.60382 0.44803 0.84032 0.0
C30 C 0.61115 0.42295 0.80593 0.0
O31 O 0.6503 0.39577 0.81656 0.0
H32 H 0.57545 0.39612 0.7974 0.0
C33 C 0.69736 0.32751 0.94489 0.0
C34 C 0.71695 0.37815 0.93723 0.0
C35 C 0.65348 0.30257 0.91652 0.0
C36 C 0.63849 0.32651 0.87158 0.0
C37 C 0.65868 0.3769 0.86312 0.0
C38 C 0.69445 0.40436 0.89873 0.0
H39 H 0.87411 0.69615 0.50934 0.0
H40 H 0.87964 0.53658 0.4696 0.0
H41 H 0.00345 0.64861 0.43504 0.0
H42 H 0.89613 0.56057 0.36241 0.0
C43 C 0.9262 0.5364 0.36881 0.0
O44 O 0.95734 0.55436 0.41278 0.0
H45 H 0.90512 0.49841 0.37638 0.0
C46 C 0.89518 0.66578 0.49615 0.0
C47 C 0.94387 0.67824 0.47742 0.0
C48 C 0.87184 0.61479 0.4936 0.0
C49 C 0.89841 0.57586 0.47409 0.0
C50 C 0.94327 0.58865 0.44867 0.0
C51 C 0.96783 0.63919 0.45345 0.0
H52 H 0.84074 0.94176 0.8371 0.0
H53 H 0.87203 0.87956 0.98513 0.0
H54 H 0.95182 0.83797 0.85101 0.0
H55 H 0.87294 0.77196 0.9615 0.0
C56 C 0.91322 0.78146 0.97609 0.0
O57 O 0.93795 0.8216 0.94994 0.0
H58 H 0.91021 0.79506 0.01745 0.0
C59 C 0.86112 0.91763 0.86078 0.0
C60 C 0.90025 0.89374 0.83876 0.0
C61 C 0.84895 0.91147 0.91331 0.0
C62 C 0.8787 0.88267 0.944 0.0
C63 C 0.91307 0.85316 0.92086 0.0
C64 C 0.92317 0.85834 0.86802 0.0
H65 H 0.72883 0.06034 0.35423 0.0
H66 H 0.58805 0.12327 0.34924 0.0
H67 H 0.68578 0.14706 0.48869 0.0
H68 H 0.54838 0.20213 0.40406 0.0
C69 C 0.58741 0.21158 0.42222 0.0
O70 O 0.60081 0.16802 0.44397 0.0
H71 H 0.61105 0.22267 0.3888 0.0
C72 C 0.70215 0.08209 0.37307 0.0
C73 C 0.71211 0.1017 0.42518 0.0
C74 C 0.65758 0.09003 0.34541 0.0
C75 C 0.62259 0.11706 0.37039 0.0
C76 C 0.63346 0.13919 0.42141 0.0
C77 C 0.67817 0.13133 0.44877 0.0
H78 H 0.36543 0.72044 0.07139 0.0
H79 H 0.29923 0.63578 0.19573 0.0
H80 H 0.42779 0.75119 0.22939 0.0
H81 H 0.43521 0.64303 0.24812 0.0
C82 C 0.39829 0.6327 0.26645 0.0
O83 O 0.37011 0.67283 0.26478 0.0
H84 H 0.37859 0.59889 0.24217 0.0
C85 C 0.36377 0.71374 0.11265 0.0
C86 C 0.39884 0.74232 0.14906 0.0
C87 C 0.32706 0.67599 0.12952 0.0
C88 C 0.32594 0.66667 0.18264 0.0
C89 C 0.36292 0.69258 0.21822 0.0
C90 C 0.39863 0.73156 0.20186 0.0
H91 H 0.07142 0.34229 0.70224 0.0
H92 H 0.1543 0.49255 0.68814 0.0
H93 H 0.14425 0.37977 0.5601 0.0
H94 H 0.23842 0.48191 0.65013 0.0
C95 C 0.2294 0.49156 0.60933 0.0
O96 O 0.17966 0.47429 0.59304 0.0
H97 H 0.23456 0.53424 0.61194 0.0
C98 C 0.09243 0.37028 0.6791 0.0
C99 C 0.10495 0.35562 0.62833 0.0
C100 C 0.11109 0.41947 0.70164 0.0
C101 C 0.13891 0.45471 0.67126 0.0
C102 C 0.14975 0.44083 0.62005 0.0
C103 C 0.13321 0.39121 0.5987 0.0
O104 O 0.9897 0.03438 0.67092 0.0
Mg105 Mg 0.04974 0.05612 0.62428 0.0
O106 O 0.98581 0.97442 0.60825 0.0
Mg107 Mg 0.01577 0.01833 0.53101 0.0
O108 O 0.04299 0.10457 0.56524 0.0
O109 O 0.07506 0.12886 0.64672 0.0
O110 O 0.04504 0.05909 0.4527 0.0
O111 O 0.93261 0.04275 0.52216 0.0
Mg112 Mg 0.96587 0.97453 0.43618 0.0
O113 O 0.99384 0.93377 0.49392 0.0
O114 O 0.01651 0.00713 0.38471 0.0
O115 O 0.89982 0.00678 0.44656 0.0
O116 O 0.94973 0.89888 0.42088 0.0
C117 C 0.12543 0.99504 0.58325 0.0
C118 C 0.97455 0.98891 0.65434 0.0
C119 C 0.06289 0.14034 0.60013 0.0
C120 C 0.04366 0.04747 0.4033 0.0
C121 C 0.89586 0.03429 0.48757 0.0
C122 C 0.975 0.8936 0.46382 0.0
O123 O 0.1128 0.01527 0.62564 0.0
O124 O 0.09703 0.99408 0.54178 0.0
O125 O 0.44935 0.09012 0.06051 0.0
Mg126 Mg 0.52618 0.11852 0.06372 0.0
O127 O 0.45968 0.00989 0.03522 0.0
Mg128 Mg 0.54472 0.00497 0.00909 0.0
O129 O 0.55593 0.08854 0.99993 0.0
O130 O 0.55497 0.17186 0.01261 0.0
O131 O 0.6313 -0.00147 0.98486 0.0
O132 O 0.50911 0.00015 0.92236 0.0
Mg133 Mg 0.55222 0.90195 0.94348 0.0
O134 O 0.52869 0.91814 0.01669 0.0
O135 O 0.62942 0.92405 0.9391 0.0
O136 O 0.50477 0.92212 0.88402 0.0
O137 O 0.52936 0.83828 0.98269 0.0
C138 C 0.58619 0.05431 0.13279 0.0
C139 C 0.43162 0.04339 0.05058 0.0
C140 C 0.56719 0.13379 0.98428 0.0
C141 C 0.65397 0.96521 0.95976 0.0
C142 C 0.49556 0.96789 0.88359 0.0
C143 C 0.51967 0.86894 0.02082 0.0
O144 O 0.5699 0.09684 0.12643 0.0
O145 O 0.57949 0.01718 0.09722 0.0
O146 O 0.48822 0.63004 0.60528 0.0
Mg147 Mg 0.48733 0.55685 0.63421 0.0
O148 O 0.52102 0.61273 0.5287 0.0
Mg149 Mg 0.53716 0.52634 0.52415 0.0
O150 O 0.55155 0.53095 0.61121 0.0
O151 O 0.53767 0.54537 0.69466 0.0
O152 O 0.55266 0.44034 0.51814 0.0
O153 O 0.62443 0.55098 0.52013 0.0
Mg154 Mg 0.58155 0.49866 0.40669 0.0
O155 O 0.52312 0.52429 0.43861 0.0
O156 O 0.58194 0.4262 0.43895 0.0
O157 O 0.63908 0.55756 0.4361 0.0
O158 O 0.52533 0.51642 0.35318 0.0
C159 C 0.41718 0.48852 0.55871 0.0
C160 C 0.50287 0.64353 0.56111 0.0
C161 C 0.56699 0.53127 0.65947 0.0
C162 C 0.56944 0.41093 0.48338 0.0
C163 C 0.65438 0.56311 0.48394 0.0
C164 C 0.50352 0.53176 0.39378 0.0
O165 O 0.42534 0.50239 0.6068 0.0
O166 O 0.45126 0.49736 0.52585 0.0
O167 O 0.11638 0.41122 0.10034 0.0
Mg168 Mg 0.08874 0.48018 0.11442 0.0
O169 O 0.04767 0.39752 0.05052 0.0
Mg170 Mg 0.03899 0.48804 0.04281 0.0
O171 O 0.02122 0.50523 0.13374 0.0
O172 O 0.0649 0.46034 0.1849 0.0
O173 O 0.02408 0.57419 0.03296 0.0
O174 O 0.94725 0.46573 0.0401 0.0
Mg175 Mg -0.00092 0.47535 0.96978 0.0
O176 O 0.07047 0.47318 0.95438 0.0
O177 O 0.97311 0.54854 0.96607 0.0
O178 O 0.9517 0.406 0.98098 0.0
O179 O 0.00652 0.46143 0.89333 0.0
C180 C 0.15859 0.54242 0.07625 0.0
C181 C 0.08445 0.37988 0.07383 0.0
C182 C 0.02984 0.48855 0.17958 0.0
C183 C 0.99206 0.58476 0.99813 0.0
C184 C 0.92481 0.42791 0.01148 0.0
C185 C 0.05383 0.46409 0.90597 0.0
O186 O 0.14843 0.53937 0.12351 0.0
O187 O 0.12699 0.52013 0.04091 0.0
C188 C 0.05693 0.10587 0.27375 0.0
C189 C 0.10974 0.12305 0.27329 0.0
C190 C 0.11997 0.09861 0.36436 0.0
C191 C 0.06687 0.08303 0.36469 0.0
N192 N 0.98406 0.08995 0.32644 0.0
N193 N 0.18906 0.14833 0.32287 0.0
C194 C 0.03522 0.09296 0.32157 0.0
C195 C 0.14054 0.12348 0.32023 0.0
N196 N 0.0278 0.09816 0.2281 0.0
N197 N 0.15097 0.0876 0.40475 0.0
H198 H 0.20471 0.16774 0.29177 0.0
H199 H 0.2119 0.1539 0.35725 0.0
H200 H 0.13708 0.07039 0.43778 0.0
H201 H 0.19038 0.09272 0.40403 0.0
H202 H 0.99021 0.08069 0.22608 0.0
H203 H 0.0424 0.1038 0.19156 0.0
H204 H 0.95959 0.10097 0.29766 0.0
H205 H 0.96712 0.0821 0.36158 0.0
C206 C 0.38682 0.94786 0.7868 0.0
C207 C 0.41141 0.96236 0.74068 0.0
C208 C 0.48836 -0.0016 0.79338 0.0
C209 C 0.46449 0.98109 0.83857 0.0
N210 N 0.38783 0.95592 0.88161 0.0
N211 N 0.47939 0.01368 0.70103 0.0
C212 C 0.41232 0.96201 0.83623 0.0
C213 C 0.4602 0.99207 0.74441 0.0
N214 N 0.34118 0.91689 0.7835 0.0
N215 N 0.53851 0.01835 0.79713 0.0
H216 H 0.45918 0.00966 0.66493 0.0
H217 H 0.51304 0.03892 0.70167 0.0
H218 H 0.55897 0.02523 0.83305 0.0
H219 H 0.5601 0.02645 0.76502 0.0
H220 H 0.32452 0.90031 0.81556 0.0
H221 H 0.32147 0.90423 0.74828 0.0
H222 H 0.34866 0.94671 0.88286 0.0
H223 H 0.40648 0.9652 0.91822 0.0
C224 C 0.61635 0.42954 0.70792 0.0
C225 C 0.6241 0.4535 0.75929 0.0
C226 C 0.63781 0.53751 0.72311 0.0
C227 C 0.61483 0.51369 0.6761 0.0
N228 N 0.61876 0.44345 0.61496 0.0
N229 N 0.66658 0.52686 0.81249 0.0
C230 C 0.6169 0.46146 0.66537 0.0
C231 C 0.6437 0.50661 0.76594 0.0
N232 N 0.6067 0.37738 0.70009 0.0
N233 N 0.64834 0.58973 0.72721 0.0
H234 H 0.67314 0.50419 0.84343 0.0
H235 H 0.68263 0.56505 0.81915 0.0
H236 H 0.6431 0.61113 0.69474 0.0
H237 H 0.66146 0.61126 0.76149 0.0
H238 H 0.59577 0.35879 0.66367 0.0
H239 H 0.60856 0.35273 0.73035 0.0
H240 H 0.62279 0.40558 0.604 0.0
H241 H 0.62203 0.46908 0.58527 0.0
C242 C 0.94342 0.55105 0.27264 0.0
C243 C 0.95628 0.52992 0.32064 0.0
C244 C 0.02507 0.49577 0.27805 0.0
C245 C 0.00427 0.50482 0.22757 0.0
N246 N 0.9318 0.53101 0.17986 0.0
N247 N 0.00265 0.46891 0.36287 0.0
C248 C 0.95993 0.52961 0.22538 0.0
C249 C 0.99454 0.49759 0.32133 0.0
N250 N 0.91714 0.59209 0.2715 0.0
N251 N 0.07491 0.49003 0.28657 0.0
H252 H 0.98096 0.46803 0.39571 0.0
H253 H 0.02816 0.4421 0.36185 0.0
H254 H 0.10237 0.49982 0.25985 0.0
H255 H 0.0904 0.48493 0.32367 0.0
H256 H 0.91031 0.60984 0.23702 0.0
H257 H 0.90903 0.61294 0.30505 0.0
H258 H 0.89785 0.54669 0.17858 0.0
H259 H 0.93764 0.51036 0.14546 0.0
C260 C 0.29599 0.06266 0.04159 0.0
C261 C 0.27837 0.04487 0.08991 0.0
C262 C 0.36102 0.01438 0.10776 0.0
C263 C 0.37666 0.02987 0.05833 0.0
N264 N 0.3556 0.05682 0.97337 0.0
N265 N 0.29484 0.00342 0.16978 0.0
C266 C 0.34257 0.04953 0.02358 0.0
C267 C 0.31095 0.0201 0.12301 0.0
N268 N 0.27058 0.09563 0.01469 0.0
N269 N 0.39544 0.9973 0.14138 0.0
H270 H 0.26249 0.01339 0.1868 0.0
H271 H 0.31319 0.97875 0.19183 0.0
H272 H 0.43122 0.99039 0.13016 0.0
H273 H 0.38966 0.99151 0.18056 0.0
H274 H 0.28452 0.11353 0.98206 0.0
H275 H 0.23883 0.11041 0.0281 0.0
H276 H 0.33049 0.0662 0.94432 0.0
H277 H 0.39006 0.04829 0.95973 0.0
C278 C 0.26298 0.97487 0.56589 0.0
C279 C 0.26828 0.93933 0.60467 0.0
C280 C 0.17665 0.92992 0.61631 0.0
C281 C 0.17279 0.97118 0.58375 0.0
N282 N 0.21184 0.03487 0.52868 0.0
N283 N 0.23104 0.88198 0.66686 0.0
C284 C 0.21564 0.99362 0.558 0.0
C285 C 0.22521 0.91619 0.62958 0.0
N286 N 0.3033 0.99068 0.53681 0.0
N287 N 0.13349 0.90322 0.63348 0.0
H288 H 0.26524 0.86807 0.67479 0.0
H289 H 0.20276 0.869 0.69157 0.0
H290 H 0.09731 0.91171 0.6233 0.0
H291 H 0.13288 0.86995 0.65367 0.0
H292 H 0.30068 0.01229 0.50427 0.0
H293 H 0.33877 0.97868 0.54265 0.0
H294 H 0.24279 0.05671 0.5137 0.0
H295 H 0.17784 0.0495 0.52191 0.0
C296 C 0.80785 0.40518 0.92362 0.0
C297 C 0.76867 0.39745 0.95879 0.0
C298 C 0.83186 0.41233 0.03259 0.0
C299 C 0.86997 0.42417 0.99664 0.0
N300 N 0.88798 0.45338 0.91064 0.0
N301 N 0.74151 0.40189 0.0472 0.0
C302 C 0.85595 0.42758 0.94308 0.0
C303 C 0.78002 0.40381 0.01367 0.0
N304 N 0.80058 0.38841 0.87204 0.0
N305 N 0.84515 0.4074 0.08384 0.0
H306 H 0.70341 0.39601 0.03412 0.0
H307 H 0.74732 0.41026 0.08733 0.0
H308 H 0.88273 0.41424 0.09854 0.0
H309 H 0.81936 0.39367 0.11082 0.0
H310 H 0.83019 0.39004 0.84664 0.0
H311 H 0.76718 0.36708 0.85602 0.0
H312 H 0.87726 0.46007 0.87229 0.0
H313 H 0.92207 0.47417 0.92435 0.0
C314 C 0.78876 0.57884 0.45069 0.0
C315 C 0.81586 0.60335 0.49563 0.0
C316 C 0.73492 0.60459 0.53759 0.0
C317 C 0.71021 0.57305 0.49447 0.0
N318 N 0.72251 0.51088 0.42427 0.0
N319 N 0.8153 0.63238 0.58643 0.0
C320 C 0.74004 0.55365 0.45577 0.0
C321 C 0.78921 0.61407 0.54085 0.0
N322 N 0.80809 0.58204 0.4025 0.0
N323 N 0.70743 0.62697 0.57378 0.0
H324 H 0.85484 0.63921 0.58965 0.0
H325 H 0.79782 0.63656 0.62166 0.0
H326 H 0.66796 0.6221 0.57209 0.0
H327 H 0.72402 0.6537 0.6031 0.0
H328 H 0.78768 0.5657 0.36864 0.0
H329 H 0.8406 0.60728 0.39621 0.0
H330 H 0.74515 0.49536 0.39704 0.0
H331 H 0.68853 0.48771 0.43028 0.0
C332 C 0.15782 0.27378 0.10203 0.0
C333 C 0.12052 0.23453 0.11771 0.0
C334 C 0.05391 0.286 0.09065 0.0
C335 C 0.09169 0.32436 0.07418 0.0
N336 N 0.17634 0.34354 0.04519 0.0
N337 N 0.03262 0.19671 0.11042 0.0
C338 C 0.14242 0.31385 0.07296 0.0
C339 C 0.06831 0.23852 0.10672 0.0
N340 N 0.20759 0.27562 0.11829 0.0
N341 N 0.00494 0.29538 0.09359 0.0
H342 H 0.04213 0.16102 0.11972 0.0
H343 H 0.99459 0.19602 0.09872 0.0
H344 H 0.99229 0.32835 0.08038 0.0
H345 H 0.97745 0.27137 0.11155 0.0
H346 H 0.23512 0.30628 0.1116 0.0
H347 H 0.22046 0.25001 0.1436 0.0
H348 H 0.21305 0.33538 0.03979 0.0
H349 H 0.16555 0.37271 0.02293 0.0
C350 C 0.65526 0.21952 0.96283 0.0
C351 C 0.62993 0.24885 0.92764 0.0
C352 C 0.57142 0.17014 0.90206 0.0
C353 C 0.59724 0.14454 0.93895 0.0
N354 N 0.67736 0.13625 0.97985 0.0
N355 N 0.54733 0.25276 0.88511 0.0
C356 C 0.64621 0.16583 0.95618 0.0
C357 C 0.58368 0.22434 0.90124 0.0
N358 N 0.6742 0.24059 0.01058 0.0
N359 N 0.53136 0.14331 0.87335 0.0
H360 H 0.54966 0.29188 0.89559 0.0
H361 H 0.51191 0.23663 0.86875 0.0
H362 H 0.52106 0.1041 0.8777 0.0
H363 H 0.51193 0.15884 0.8433 0.0
H364 H 0.68929 0.21909 0.03888 0.0
H365 H 0.66684 0.27677 0.02444 0.0
H366 H 0.71377 0.15137 0.99465 0.0
H367 H 0.66664 0.09684 0.98182 0.0
C368 C 0.96829 0.76455 0.52483 0.0
C369 C 0.96571 0.7333 0.47752 0.0
C370 C 0.99589 0.80943 0.43214 0.0
C371 C 0.98397 0.84093 0.475 0.0
N372 N 0.95571 0.84752 0.56315 0.0
N373 N 0.96884 0.72962 0.38281 0.0
C374 C 0.97037 0.81855 0.52229 0.0
C375 C 0.9783 0.75636 0.43018 0.0
N376 N 0.96796 0.74259 0.57179 0.0
N377 N 0.02215 0.83067 0.39238 0.0
H378 H 0.95042 0.69211 0.37807 0.0
H379 H 0.97374 0.74702 0.34751 0.0
H380 H 0.03613 0.86975 0.39351 0.0
H381 H 0.03459 0.80858 0.3618 0.0
H382 H 0.97356 0.76403 0.60745 0.0
H383 H 0.9675 0.70313 0.57466 0.0
H384 H 0.9404 0.83167 0.59627 0.0
H385 H 0.95495 0.88682 0.56221 0.0
C386 C 0.50257 0.78587 0.58277 0.0
C387 C 0.46559 0.79497 0.54374 0.0
C388 C 0.4598 0.70542 0.50962 0.0
C389 C 0.49682 0.69655 0.5481 0.0
N390 N 0.56335 0.73098 0.61166 0.0
N391 N 0.42681 0.76822 0.45761 0.0
C392 C 0.5216 0.73787 0.58137 0.0
C393 C 0.44978 0.75636 0.50312 0.0
N394 N 0.51811 0.82209 0.62246 0.0
N395 N 0.43185 0.6651 0.48135 0.0
H396 H 0.42419 0.80576 0.4482 0.0
H397 H 0.41726 0.74157 0.42602 0.0
H398 H 0.438 0.62719 0.48491 0.0
H399 H 0.40023 0.66909 0.45732 0.0
H400 H 0.53918 0.81471 0.65568 0.0
H401 H 0.50801 0.85895 0.62379 0.0
H402 H 0.58602 0.76076 0.63335 0.0
H403 H 0.57819 0.69621 0.61092 0.0
C404 C 0.97174 0.93289 0.78547 0.0
C405 C 0.92042 0.90986 0.78737 0.0
C406 C 0.90521 0.93063 0.69568 0.0
C407 C 0.95684 0.95196 0.69406 0.0
N408 N 0.04196 0.957 0.73114 0.0
N409 N 0.84168 0.87611 0.74016 0.0
C410 C 0.99092 0.94723 0.73689 0.0
C411 C 0.88815 0.9053 0.74103 0.0
N412 N 0.00137 0.94512 0.83045 0.0
N413 N 0.87225 0.93623 0.65484 0.0
H414 H 0.8288 0.8563 0.77217 0.0
H415 H 0.81806 0.86777 0.70651 0.0
H416 H 0.88425 0.9528 0.62069 0.0
H417 H 0.83308 0.92687 0.65589 0.0
H418 H 0.03725 0.96661 0.83127 0.0
H419 H 0.9884 0.9392 0.86763 0.0
H420 H 0.0688 0.94963 0.75951 0.0
H421 H 0.05706 0.9669 0.69568 0.0
C422 C 0.61814 0.02613 0.27347 0.0
C423 C 0.64866 0.07342 0.28894 0.0
C424 C 0.65464 0.09319 0.19714 0.0
C425 C 0.61594 0.05158 0.18282 0.0
N426 N 0.56065 0.97743 0.20701 0.0
N427 N 0.69516 0.15344 0.26602 0.0
C428 C 0.5984 0.01695 0.22064 0.0
C429 C 0.66736 0.10706 0.25083 0.0
N430 N 0.60789 0.99029 0.30943 0.0
N431 N 0.67886 0.11955 0.15894 0.0
H432 H 0.70642 0.1645 0.3049 0.0
H433 H 0.70429 0.18233 0.24053 0.0
H434 H 0.67072 0.10936 0.11925 0.0
H435 H 0.71011 0.14772 0.16637 0.0
H436 H 0.59002 0.95312 0.2998 0.0
H437 H 0.62132 0.99643 0.3484 0.0
H438 H 0.54187 0.95468 0.23398 0.0
H439 H 0.54624 0.96877 0.16868 0.0
C440 C 0.45196 0.6458 0.3501 0.0
C441 C 0.40907 0.6189 0.32156 0.0
C442 C 0.41524 0.54246 0.36898 0.0
C443 C 0.46432 0.56503 0.38738 0.0
N444 N 0.5257 0.64001 0.40764 0.0
N445 N 0.33703 0.55362 0.32106 0.0
C446 C 0.48075 0.61803 0.38325 0.0
C447 C 0.38593 0.57126 0.33759 0.0
N448 N 0.46607 0.69658 0.34274 0.0
N449 N 0.39888 0.49259 0.37849 0.0
H450 H 0.31551 0.57575 0.29882 0.0
H451 H 0.31678 0.51999 0.33287 0.0
H452 H 0.41982 0.47201 0.40309 0.0
H453 H 0.36543 0.47177 0.36207 0.0
H454 H 0.49675 0.71939 0.3623 0.0
H455 H 0.44446 0.71699 0.31878 0.0
H456 H 0.54173 0.6779 0.40473 0.0
H457 H 0.54722 0.61979 0.4319 0.0
C458 C 0.11762 0.40133 0.79764 0.0
C459 C 0.10454 0.4337 0.75781 0.0
C460 C 0.08683 0.4966 0.8257 0.0
C461 C 0.08748 0.45934 0.86289 0.0
N462 N 0.10122 0.3745 0.88492 0.0
N463 N 0.06682 0.50911 0.73546 0.0
C464 C 0.10287 0.41129 0.84933 0.0
C465 C 0.08714 0.48105 0.77219 0.0
N466 N 0.14537 0.36241 0.78679 0.0
N467 N 0.08309 0.54618 0.8417 0.0
H468 H 0.06099 0.49658 0.69615 0.0
H469 H 0.05017 0.5418 0.74507 0.0
H470 H 0.08239 0.55776 0.88125 0.0
H471 H 0.08617 0.57598 0.81641 0.0
H472 H 0.15852 0.34018 0.81545 0.0
H473 H 0.1602 0.35624 0.75045 0.0
H474 H 0.10591 0.33654 0.87508 0.0
H475 H 0.09252 0.38169 0.92368 0.0
C476 C 0.7679 0.90089 0.96346 0.0
C477 C 0.8034 0.93245 0.93505 0.0
C478 C 0.74347 0.9963 0.93274 0.0
C479 C 0.71012 0.96548 0.96342 0.0
N480 N 0.70125 0.89937 0.02465 0.0
N481 N 0.83084 0.01873 0.91014 0.0
C482 C 0.72691 0.92221 0.98535 0.0
C483 C 0.7932 0.98311 0.92536 0.0
N484 N 0.76937 0.84932 0.96505 0.0
N485 N 0.72712 0.03623 0.9084 0.0
H486 H 0.86816 0.01123 0.90755 0.0
H487 H 0.82606 0.05698 0.90604 0.0
H488 H 0.69072 0.04585 0.91248 0.0
H489 H 0.74844 0.05696 0.88157 0.0
H490 H 0.74161 0.82486 0.98219 0.0
H491 H 0.79355 0.82971 0.94325 0.0
H492 H 0.7139 0.8694 0.0442 0.0
H493 H 0.67063 0.91429 0.04093 0.0
C494 C 0.80014 0.12372 0.46847 0.0
C495 C 0.75634 0.08737 0.45571 0.0
C496 C 0.80146 0.01817 0.48535 0.0
C497 C 0.84638 0.05383 0.49374 0.0
N498 N 0.88291 0.14134 0.51421 0.0
N499 N 0.71032 0.0037 0.46642 0.0
C500 C 0.84383 0.10704 0.49236 0.0
C501 C 0.75538 0.0357 0.46913 0.0
N502 N 0.80103 0.17336 0.45517 0.0
N503 N 0.80371 0.96722 0.49119 0.0
H504 H 0.67593 0.01575 0.45512 0.0
H505 H 0.70608 0.9667 0.47939 0.0
H506 H 0.83604 0.95418 0.50713 0.0
H507 H 0.77455 0.938 0.47921 0.0
H508 H 0.83371 0.20014 0.45819 0.0
H509 H 0.76976 0.187 0.4378 0.0
H510 H 0.88186 0.18075 0.51811 0.0
H511 H 0.91343 0.12936 0.53453 0.0
C512 C 0.24905 0.6592 0.06933 0.0
C513 C 0.29235 0.64167 0.0924 0.0
C514 C 0.25239 0.5527 0.07945 0.0
C515 C 0.20715 0.57104 0.06338 0.0
N516 N 0.16841 0.63554 0.02047 0.0
N517 N 0.34282 0.57306 0.1009 0.0
C518 C 0.20777 0.62235 0.05012 0.0
C519 C 0.29672 0.58853 0.09039 0.0
N520 N 0.24567 0.71051 0.06964 0.0
N521 N 0.25175 0.50167 0.08697 0.0
H522 H 0.37558 0.59941 0.10888 0.0
H523 H 0.34935 0.53495 0.09733 0.0
H524 H 0.21977 0.47487 0.07675 0.0
H525 H 0.28194 0.48626 0.10418 0.0
H526 H 0.21251 0.7251 0.05898 0.0
H527 H 0.27546 0.73863 0.08296 0.0
H528 H 0.16809 0.67187 1.00642 0.0
H529 H 0.1387 0.60808 1.00533 0.0
C530 C 0.28386 0.50323 0.5322 0.0
C531 C 0.2665 0.47212 0.57266 0.0
C532 C 0.34059 0.42724 0.56636 0.0
C533 C 0.36436 0.46942 0.54111 0.0
N534 N 0.35721 0.54105 0.48829 0.0
N535 N 0.2706 0.39482 0.61798 0.0
C536 C 0.33492 0.50423 0.51844 0.0
C537 C 0.2917 0.4298 0.58523 0.0
N538 N 0.25221 0.53316 0.50931 0.0
N539 N 0.36665 0.38698 0.57468 0.0
H540 H 0.23457 0.39599 0.63147 0.0
H541 H 0.28868 0.36545 0.63236 0.0
H542 H 0.40297 0.38642 0.56106 0.0
H543 H 0.35136 0.3533 0.59084 0.0
H544 H 0.2615 0.55485 0.47754 0.0
H545 H 0.21461 0.53235 0.51946 0.0
H546 H 0.33976 0.57154 0.47557 0.0
H547 H 0.39416 0.54126 0.47671 0.0
C548 C 0.98517 0.732 0.00748 0.0
C549 C 0.94072 0.73377 0.97513 0.0
C550 C 0.92727 0.64014 0.96689 0.0
C551 C 0.97481 0.63718 0.99384 0.0
N552 N 0.05434 0.68508 0.02986 0.0
N553 N 0.88322 0.68895 0.90745 0.0
C554 C 0.00543 0.68446 0.01144 0.0
C555 C 0.91659 0.68771 0.94908 0.0
N556 N 0.00789 0.77545 0.03511 0.0
N557 N 0.89012 0.59875 0.96156 0.0
H558 H 0.87721 0.72316 0.891 0.0
H559 H 0.86716 0.65577 0.88547 0.0
H560 H 0.89195 0.56544 0.9813 0.0
H561 H 0.85427 0.60078 0.94442 0.0
H562 H 0.03604 0.77508 0.06453 0.0
H563 H -0.00336 0.81146 0.03069 0.0
H564 H 0.07939 0.71884 0.03777 0.0
H565 H 0.07188 0.65245 0.03243 0.0
C566 C 0.4847 0.76968 0.11614 0.0
C567 C 0.4369 0.78212 0.13046 0.0
C568 C 0.44758 0.85875 0.08108 0.0
C569 C 0.49549 0.84643 0.06629 0.0
N570 N 0.56618 0.8001 0.08249 0.0
N571 N 0.381 0.84589 0.14224 0.0
C572 C 0.51634 0.80523 0.08844 0.0
C573 C 0.42153 0.82966 0.11874 0.0
N574 N 0.49857 0.72298 0.12641 0.0
N575 N 0.42432 0.89408 0.05552 0.0
H576 H 0.36095 0.82464 0.16967 0.0
H577 H 0.37085 0.88245 0.13854 0.0
H578 H 0.43966 0.91303 0.02419 0.0
H579 H 0.38727 0.90059 0.06172 0.0
H580 H 0.53019 0.7094 0.11112 0.0
H581 H 0.47671 0.69648 0.1478 0.0
H582 H 0.5845 0.77296 0.101 0.0
H583 H 0.59043 0.82652 0.06324 0.0
C584 C 0.13509 0.27004 0.62157 0.0
C585 C 0.09664 0.30076 0.61 0.0
C586 C 0.04184 0.22513 0.56972 0.0
C587 C 0.07794 0.19431 0.58739 0.0
N588 N 0.16549 0.18792 0.60772 0.0
N589 N 0.01471 0.30995 0.57105 0.0
C590 C 0.12689 0.21723 0.60583 0.0
C591 C 0.0506 0.27914 0.58252 0.0
N592 N 0.17788 0.29047 0.65087 0.0
N593 N 0.00057 0.20292 0.53943 0.0
H594 H 0.02081 0.34966 0.579 0.0
H595 H 0.97832 0.29646 0.55563 0.0
H596 H 0.99614 0.16433 0.52658 0.0
H597 H 0.97392 0.22315 0.52233 0.0
H598 H 0.20428 0.26854 0.66573 0.0
H599 H 0.18512 0.32891 0.66424 0.0
H600 H 0.20331 0.20296 0.61633 0.0
H601 H 0.16008 0.14913 0.59488 0.0
C602 C 0.63329 0.29465 0.46677 0.0
C603 C 0.58976 0.257 0.46201 0.0
C604 C 0.53794 0.31866 0.49915 0.0
C605 C 0.57884 0.35812 0.49413 0.0
N606 N 0.66886 0.38281 0.4936 0.0
N607 N 0.50927 0.22668 0.49574 0.0
C608 C 0.62798 0.34546 0.48534 0.0
C609 C 0.54496 0.26685 0.48625 0.0
N610 N 0.67861 0.28224 0.45086 0.0
N611 N 0.49181 0.33097 0.51243 0.0
H612 H 0.51473 0.18866 0.48707 0.0
H613 H 0.4772 0.2306 0.51656 0.0
H614 H 0.48624 0.36834 0.5237 0.0
H615 H 0.4589 0.30459 0.51097 0.0
H616 H 0.71069 0.30884 0.44738 0.0
H617 H 0.68382 0.24451 0.44057 0.0
H618 H 0.70633 0.37642 0.49054 0.0
H619 H 0.66503 0.42 0.50771 0.0
loop_
_geom_bond_atom_site_label_1
_geom_bond_atom_site_label_2
_geom_bond_distance
_geom_bond_site_symmetry_2
_ccdc_geom_bond_type
H0 C7 0.929 . S
H1 C10 0.930 . S
H2 C12 0.929 . S
H3 C4 0.969 . S
C4 H3 0.969 . S
C4 O5 1.550 . S
C4 H6 0.973 . S
O5 C4 1.550 . S
O5 C11 1.412 . S
H6 C4 0.973 . S
C7 H0 0.929 . S
C7 C8 1.400 . S
C7 C9 1.364 . S
C8 C7 1.400 . S
C8 C12 1.377 . S
C9 C7 1.364 . S
C9 C10 1.374 . S
C10 H1 0.930 . S
C10 C9 1.374 . S
C10 C11 1.383 . S
C11 O5 1.412 . S
C11 C10 1.383 . S
C11 C12 1.394 . S
C12 H2 0.929 . S
C12 C8 1.377 . S
C12 C11 1.394 . S
H13 C20 0.929 . S
H14 C23 0.930 . S
H15 C25 0.929 . S
H16 C17 0.969 . S
C17 H16 0.969 . S
C17 O18 1.550 . S
C17 H19 0.973 . S
O18 C17 1.550 . S
O18 C24 1.412 . S
H19 C17 0.973 . S
C20 H13 0.929 . S
C20 C21 1.400 . S
C20 C22 1.364 . S
C21 C20 1.400 . S
C21 C25 1.377 . S
C22 C20 1.364 . S
C22 C23 1.374 . S
C23 H14 0.930 . S
C23 C22 1.374 . S
C23 C24 1.383 . S
C24 O18 1.412 . S
C24 C23 1.383 . S
C24 C25 1.394 . S
C25 H15 0.929 . S
C25 C21 1.377 . S
C25 C24 1.394 . S
H26 C33 0.929 . S
H27 C36 0.930 . S
H28 C38 0.929 . S
H29 C30 0.969 . S
C30 H29 0.969 . S
C30 O31 1.550 . S
C30 H32 0.973 . S
O31 C30 1.550 . S
O31 C37 1.412 . S
H32 C30 0.973 . S
C33 H26 0.929 . S
C33 C34 1.400 . S
C33 C35 1.364 . S
C34 C33 1.400 . S
C34 C38 1.377 . S
C35 C33 1.364 . S
C35 C36 1.374 . S
C36 H27 0.930 . S
C36 C35 1.374 . S
C36 C37 1.383 . S
C37 O31 1.412 . S
C37 C36 1.383 . S
C37 C38 1.394 . S
C38 H28 0.929 . S
C38 C34 1.377 . S
C38 C37 1.394 . S
H39 C46 0.929 . S
H40 C49 0.930 . S
H41 C51 0.929 . S
H42 C43 0.969 . S
C43 H42 0.969 . S
C43 O44 1.550 . S
C43 H45 0.973 . S
O44 C43 1.550 . S
O44 C50 1.412 . S
H45 C43 0.973 . S
C46 H39 0.929 . S
C46 C47 1.400 . S
C46 C48 1.364 . S
C47 C46 1.400 . S
C47 C51 1.377 . S
C48 C46 1.364 . S
C48 C49 1.374 . S
C49 H40 0.930 . S
C49 C48 1.374 . S
C49 C50 1.383 . S
C50 O44 1.412 . S
C50 C49 1.383 . S
C50 C51 1.394 . S
C51 H41 0.929 . S
C51 C47 1.377 . S
C51 C50 1.394 . S
H52 C59 0.929 . S
H53 C62 0.930 . S
H54 C64 0.929 . S
H55 C56 0.969 . S
C56 H55 0.969 . S
C56 O57 1.550 . S
C56 H58 0.973 . S
O57 C56 1.550 . S
O57 C63 1.412 . S
H58 C56 0.973 . S
C59 H52 0.929 . S
C59 C60 1.400 . S
C59 C61 1.364 . S
C60 C59 1.400 . S
C60 C64 1.377 . S
C61 C59 1.364 . S
C61 C62 1.374 . S
C62 H53 0.930 . S
C62 C61 1.374 . S
C62 C63 1.383 . S
C63 O57 1.412 . S
C63 C62 1.383 . S
C63 C64 1.394 . S
C64 H54 0.929 . S
C64 C60 1.377 . S
C64 C63 1.394 . S
H65 C72 0.929 . S
H66 C75 0.930 . S
H67 C77 0.929 . S
H68 C69 0.969 . S
C69 H68 0.969 . S
C69 O70 1.550 . S
C69 H71 0.973 . S
O70 C69 1.550 . S
O70 C76 1.412 . S
H71 C69 0.973 . S
C72 H65 0.929 . S
C72 C73 1.400 . S
C72 C74 1.364 . S
C73 C72 1.400 . S
C73 C77 1.377 . S
C74 C72 1.364 . S
C74 C75 1.374 . S
C75 H66 0.930 . S
C75 C74 1.374 . S
C75 C76 1.383 . S
C76 O70 1.412 . S
C76 C75 1.383 . S
C76 C77 1.394 . S
C77 H67 0.929 . S
C77 C73 1.377 . S
C77 C76 1.394 . S
H78 C85 0.929 . S
H79 C88 0.930 . S
H80 C90 0.929 . S
H81 C82 0.969 . S
C82 H81 0.969 . S
C82 O83 1.550 . S
C82 H84 0.973 . S
O83 C82 1.550 . S
O83 C89 1.412 . S
H84 C82 0.973 . S
C85 H78 0.929 . S
C85 C86 1.400 . S
C85 C87 1.364 . S
C86 C85 1.400 . S
C86 C90 1.377 . S
C87 C85 1.364 . S
C87 C88 1.374 . S
C88 H79 0.930 . S
C88 C87 1.374 . S
C88 C89 1.383 . S
C89 O83 1.412 . S
C89 C88 1.383 . S
C89 C90 1.394 . S
C90 H80 0.929 . S
C90 C86 1.377 . S
C90 C89 1.394 . S
H91 C98 0.929 . S
H92 C101 0.930 . S
H93 C103 0.929 . S
H94 C95 0.969 . S
C95 H94 0.969 . S
C95 O96 1.550 . S
C95 H97 0.973 . S
O96 C95 1.550 . S
O96 C102 1.412 . S
H97 C95 0.973 . S
C98 H91 0.929 . S
C98 C99 1.400 . S
C98 C100 1.364 . S
C99 C98 1.400 . S
C99 C103 1.377 . S
C100 C98 1.364 . S
C100 C101 1.374 . S
C101 H92 0.930 . S
C101 C100 1.374 . S
C101 C102 1.383 . S
C102 O96 1.412 . S
C102 C101 1.383 . S
C102 C103 1.394 . S
C103 H93 0.929 . S
C103 C99 1.377 . S
C103 C102 1.394 . S
O104 Mg105 1.990 . S
O104 C118 1.253 1_445 S
Mg105 O104 1.990 . S
Mg105 O108 2.180 . S
Mg105 O109 2.117 . S
Mg105 O123 2.030 . S
O106 Mg107 2.072 1_665 S
O106 C118 1.260 . S
Mg107 O106 2.072 1_445 S
Mg107 O108 2.099 . S
Mg107 O110 2.079 . S
Mg107 O111 2.072 1_455 S
Mg107 O113 2.099 1_445 S
Mg107 O124 2.079 1_545 S
O108 Mg105 2.180 . S
O108 Mg107 2.099 . S
O108 C119 1.279 . S
O109 Mg105 2.117 . S
O109 C119 1.250 . S
O110 Mg107 2.079 . S
O110 C120 1.264 . S
O111 Mg107 2.072 1_655 S
O111 C121 1.260 . S
Mg112 O113 2.180 . S
Mg112 O114 2.030 1_565 S
Mg112 O115 1.990 1_565 S
Mg112 O116 2.117 . S
O113 Mg107 2.099 1_665 S
O113 Mg112 2.180 . S
O113 C122 1.279 . S
O114 Mg112 2.030 1_545 S
O114 C120 1.248 1_655 S
O115 Mg112 1.990 1_545 S
O115 C121 1.253 . S
O116 Mg112 2.117 . S
O116 C122 1.250 . S
C117 O123 1.248 1_565 S
C117 O124 1.264 . S
C118 O104 1.253 1_665 S
C118 O106 1.260 . S
C119 O108 1.279 . S
C119 O109 1.250 . S
C120 O110 1.264 . S
C120 O114 1.248 1_455 S
C121 O111 1.260 . S
C121 O115 1.253 . S
C122 O113 1.279 . S
C122 O116 1.250 . S
O123 Mg105 2.030 . S
O123 C117 1.248 1_545 S
O124 Mg107 2.079 1_565 S
O124 C117 1.264 . S
O125 Mg126 1.990 . S
O125 C139 1.253 . S
Mg126 O125 1.990 . S
Mg126 O129 2.187 . S
Mg126 O130 2.117 1_554 S
Mg126 O144 2.030 . S
O127 Mg128 2.072 . S
O127 C139 1.260 . S
Mg128 O127 2.072 . S
Mg128 O129 2.101 . S
Mg128 O131 2.079 1_554 S
Mg128 O132 2.072 1_554 S
Mg128 O134 2.099 1_545 S
Mg128 O145 2.079 . S
O129 Mg126 2.187 . S
O129 Mg128 2.101 . S
O129 C140 1.272 1_554 S
O130 Mg126 2.117 1_556 S
O130 C140 1.250 . S
O131 Mg128 2.079 1_556 S
O131 C141 1.264 1_545 S
O132 Mg128 2.072 1_556 S
O132 C142 1.260 1_545 S
Mg133 O134 2.180 1_556 S
Mg133 O135 2.030 . S
Mg133 O136 1.990 . S
Mg133 O137 2.117 1_556 S
O134 Mg128 2.099 1_565 S
O134 Mg133 2.180 1_554 S
O134 C143 1.279 . S
O135 Mg133 2.030 . S
O135 C141 1.248 . S
O136 Mg133 1.990 . S
O136 C142 1.253 . S
O137 Mg133 2.117 1_554 S
O137 C143 1.250 . S
C138 O144 1.248 . S
C138 O145 1.264 . S
C139 O125 1.253 . S
C139 O127 1.260 . S
C140 O129 1.272 1_556 S
C140 O130 1.250 . S
C141 O131 1.264 1_565 S
C141 O135 1.248 . S
C142 O132 1.260 1_565 S
C142 O136 1.253 . S
C143 O134 1.279 . S
C143 O137 1.250 . S
O144 Mg126 2.030 . S
O144 C138 1.248 . S
O145 Mg128 2.079 . S
O145 C138 1.264 . S
O146 Mg147 1.990 . S
O146 C160 1.253 . S
Mg147 O146 1.990 . S
Mg147 O150 2.180 . S
Mg147 O151 2.117 . S
Mg147 O165 2.030 . S
O148 Mg149 2.072 . S
O148 C160 1.260 . S
Mg149 O148 2.072 . S
Mg149 O150 2.099 . S
Mg149 O152 2.079 . S
Mg149 O153 2.072 . S
Mg149 O155 2.099 . S
Mg149 O166 2.079 . S
O150 Mg147 2.180 . S
O150 Mg149 2.099 . S
O150 C161 1.279 . S
O151 Mg147 2.117 . S
O151 C161 1.250 . S
O152 Mg149 2.079 . S
O152 C162 1.264 . S
O153 Mg149 2.072 . S
O153 C163 1.260 . S
Mg154 O155 2.180 . S
Mg154 O156 2.030 . S
Mg154 O157 1.990 . S
Mg154 O158 2.117 . S
O155 Mg149 2.099 . S
O155 Mg154 2.180 . S
O155 C164 1.279 . S
O156 Mg154 2.030 . S
O156 C162 1.248 . S
O157 Mg154 1.990 . S
O157 C163 1.253 . S
O158 Mg154 2.117 . S
O158 C164 1.250 . S
C159 O165 1.248 . S
C159 O166 1.264 . S
C160 O146 1.253 . S
C160 O148 1.260 . S
C161 O150 1.279 . S
C161 O151 1.250 . S
C162 O152 1.264 . S
C162 O156 1.248 . S
C163 O153 1.260 . S
C163 O157 1.253 . S
C164 O155 1.279 . S
C164 O158 1.250 . S
O165 Mg147 2.030 . S
O165 C159 1.248 . S
O166 Mg149 2.079 . S
O166 C159 1.264 . S
O167 Mg168 1.990 . S
O167 C181 1.253 . S
Mg168 O167 1.990 . S
Mg168 O171 2.180 . S
Mg168 O172 2.117 . S
Mg168 O186 2.030 . S
O169 Mg170 2.072 . S
O169 C181 1.260 . S
Mg170 O169 2.072 . S
Mg170 O171 2.099 . S
Mg170 O173 2.079 . S
Mg170 O174 2.072 1_455 S
Mg170 O176 2.099 1_554 S
Mg170 O187 2.079 . S
O171 Mg168 2.180 . S
O171 Mg170 2.099 . S
O171 C182 1.279 1_455 S
O172 Mg168 2.117 . S
O172 C182 1.250 1_455 S
O173 Mg170 2.079 . S
O173 C183 1.264 1_454 S
O174 Mg170 2.072 1_655 S
O174 C184 1.260 1_554 S
Mg175 O176 2.180 1_655 S
Mg175 O177 2.030 . S
Mg175 O178 1.990 . S
Mg175 O179 2.117 1_655 S
O176 Mg170 2.099 1_556 S
O176 Mg175 2.180 1_455 S
O176 C185 1.279 . S
O177 Mg175 2.030 . S
O177 C183 1.248 . S
O178 Mg175 1.990 . S
O178 C184 1.253 . S
O179 Mg175 2.117 1_455 S
O179 C185 1.250 . S
C180 O186 1.248 . S
C180 O187 1.264 . S
C181 O167 1.253 . S
C181 O169 1.260 . S
C182 O171 1.279 1_655 S
C182 O172 1.250 1_655 S
C183 O173 1.264 1_656 S
C183 O177 1.248 . S
C184 O174 1.260 1_556 S
C184 O178 1.253 . S
C185 O176 1.279 . S
C185 O179 1.250 . S
O186 Mg168 2.030 . S
O186 C180 1.248 . S
O187 Mg170 2.079 . S
O187 C180 1.264 . S
C188 C189 1.363 . S
C188 C194 1.379 . S
C188 N196 1.356 . S
C189 C188 1.363 . S
C189 C195 1.363 . S
C190 C191 1.363 . S
C190 C195 1.379 . S
C190 N197 1.356 . S
C191 C190 1.363 . S
C191 C194 1.363 . S
N192 C194 1.356 1_655 S
N192 H204 0.984 . S
N192 H205 0.985 . S
N193 C195 1.356 . S
N193 H198 0.984 . S
N193 H199 0.985 . S
C194 C188 1.379 . S
C194 C191 1.363 . S
C194 N192 1.356 1_455 S
C195 C189 1.363 . S
C195 C190 1.379 . S
C195 N193 1.356 . S
N196 C188 1.356 . S
N196 H202 0.984 . S
N196 H203 0.984 . S
N197 C190 1.356 . S
N197 H200 0.984 . S
N197 H201 0.985 . S
H198 N193 0.984 . S
H199 N193 0.985 . S
H200 N197 0.984 . S
H201 N197 0.985 . S
H202 N196 0.984 . S
H203 N196 0.984 . S
H204 N192 0.984 . S
H205 N192 0.985 . S
C206 C207 1.363 . S
C206 C212 1.379 . S
C206 N214 1.356 . S
C207 C206 1.363 . S
C207 C213 1.363 . S
C208 C209 1.363 1_545 S
C208 C213 1.379 1_545 S
C208 N215 1.356 . S
C209 C208 1.363 1_565 S
C209 C212 1.363 . S
N210 C212 1.356 . S
N210 H222 0.984 . S
N210 H223 0.985 . S
N211 C213 1.356 1_545 S
N211 H216 0.984 . S
N211 H217 0.985 . S
C212 C206 1.379 . S
C212 C209 1.363 . S
C212 N210 1.356 . S
C213 C207 1.363 . S
C213 C208 1.379 1_565 S
C213 N211 1.356 1_565 S
N214 C206 1.356 . S
N214 H220 0.984 . S
N214 H221 0.984 . S
N215 C208 1.356 . S
N215 H218 0.984 . S
N215 H219 0.985 . S
H216 N211 0.984 . S
H217 N211 0.985 . S
H218 N215 0.984 . S
H219 N215 0.985 . S
H220 N214 0.984 . S
H221 N214 0.984 . S
H222 N210 0.984 . S
H223 N210 0.985 . S
C224 C225 1.363 . S
C224 C230 1.379 . S
C224 N232 1.356 . S
C225 C224 1.363 . S
C225 C231 1.363 . S
C226 C227 1.363 . S
C226 C231 1.379 . S
C226 N233 1.356 . S
C227 C226 1.363 . S
C227 C230 1.363 . S
N228 C230 1.356 . S
N228 H240 0.984 . S
N228 H241 0.985 . S
N229 C231 1.356 . S
N229 H234 0.984 . S
N229 H235 0.985 . S
C230 C224 1.379 . S
C230 C227 1.363 . S
C230 N228 1.356 . S
C231 C225 1.363 . S
C231 C226 1.379 . S
C231 N229 1.356 . S
N232 C224 1.356 . S
N232 H238 0.984 . S
N232 H239 0.984 . S
N233 C226 1.356 . S
N233 H236 0.984 . S
N233 H237 0.985 . S
H234 N229 0.984 . S
H235 N229 0.985 . S
H236 N233 0.984 . S
H237 N233 0.985 . S
H238 N232 0.984 . S
H239 N232 0.984 . S
H240 N228 0.984 . S
H241 N228 0.985 . S
C242 C243 1.363 . S
C242 C248 1.379 . S
C242 N250 1.356 . S
C243 C242 1.363 . S
C243 C249 1.363 . S
C244 C245 1.363 . S
C244 C249 1.379 . S
C244 N251 1.356 1_655 S
C245 C244 1.363 . S
C245 C248 1.363 . S
N246 C248 1.356 . S
N246 H258 0.984 . S
N246 H259 0.985 . S
N247 C249 1.354 1_455 S
N247 H252 0.981 1_455 S
N247 H253 0.991 . S
C248 C242 1.379 . S
C248 C245 1.363 . S
C248 N246 1.356 . S
C249 C243 1.363 . S
C249 C244 1.379 . S
C249 N247 1.354 1_655 S
N250 C242 1.356 . S
N250 H256 0.984 . S
N250 H257 0.984 . S
N251 C244 1.356 1_455 S
N251 H254 0.984 . S
N251 H255 0.985 . S
H252 N247 0.981 1_655 S
H253 N247 0.991 . S
H254 N251 0.984 . S
H255 N251 0.985 . S
H256 N250 0.984 . S
H257 N250 0.984 . S
H258 N246 0.984 . S
H259 N246 0.985 . S
C260 C261 1.363 . S
C260 C266 1.379 . S
C260 N268 1.356 . S
C261 C260 1.363 . S
C261 C267 1.363 . S
C262 C263 1.363 . S
C262 C267 1.379 . S
C262 N269 1.356 . S
C263 C262 1.363 . S
C263 C266 1.363 . S
N264 C266 1.356 1_556 S
N264 H276 0.984 . S
N264 H277 0.985 . S
N265 C267 1.356 . S
N265 H270 0.984 . S
N265 H271 0.985 . S
C266 C260 1.379 . S
C266 C263 1.363 . S
C266 N264 1.356 1_554 S
C267 C261 1.363 . S
C267 C262 1.379 . S
C267 N265 1.356 . S
N268 C260 1.356 . S
N268 H274 0.984 1_554 S
N268 H275 0.984 . S
N269 C262 1.356 . S
N269 H272 0.984 . S
N269 H273 0.985 . S
H270 N265 0.984 . S
H271 N265 0.985 . S
H272 N269 0.984 . S
H273 N269 0.985 . S
H274 N268 0.984 1_556 S
H275 N268 0.984 . S
H276 N264 0.984 . S
H277 N264 0.985 . S
C278 C279 1.363 . S
C278 C284 1.379 . S
C278 N286 1.356 . S
C279 C278 1.363 . S
C279 C285 1.363 . S
C280 C281 1.363 . S
C280 C285 1.379 . S
C280 N287 1.356 . S
C281 C280 1.363 . S
C281 C284 1.363 . S
N282 C284 1.356 . S
N282 H294 0.984 . S
N282 H295 0.985 . S
N283 C285 1.356 . S
N283 H288 0.984 . S
N283 H289 0.985 . S
C284 C278 1.379 . S
C284 C281 1.363 . S
C284 N282 1.356 . S
C285 C279 1.363 . S
C285 C280 1.379 . S
C285 N283 1.356 . S
N286 C278 1.356 . S
N286 H292 0.984 . S
N286 H293 0.984 . S
N287 C280 1.356 . S
N287 H290 0.984 . S
N287 H291 0.985 . S
H288 N283 0.984 . S
H289 N283 0.985 . S
H290 N287 0.984 . S
H291 N287 0.985 . S
H292 N286 0.984 . S
H293 N286 0.984 . S
H294 N282 0.984 . S
H295 N282 0.985 . S
C296 C297 1.363 . S
C296 C302 1.379 . S
C296 N304 1.356 . S
C297 C296 1.363 . S
C297 C303 1.363 . S
C298 C299 1.363 1_554 S
C298 C303 1.379 1_554 S
C298 N305 1.356 . S
C299 C298 1.363 1_556 S
C299 C302 1.363 . S
N300 C302 1.356 . S
N300 H312 0.984 . S
N300 H313 0.985 . S
N301 C303 1.356 . S
N301 H306 0.984 . S
N301 H307 0.985 1_556 S
C302 C296 1.379 . S
C302 C299 1.363 . S
C302 N300 1.356 . S
C303 C297 1.363 . S
C303 C298 1.379 1_556 S
C303 N301 1.356 . S
N304 C296 1.356 . S
N304 H310 0.984 . S
N304 H311 0.984 . S
N305 C298 1.356 . S
N305 H308 0.984 . S
N305 H309 0.985 . S
H306 N301 0.984 . S
H307 N301 0.985 1_554 S
H308 N305 0.984 . S
H309 N305 0.985 . S
H310 N304 0.984 . S
H311 N304 0.984 . S
H312 N300 0.984 . S
H313 N300 0.985 . S
C314 C315 1.363 . S
C314 C320 1.379 . S
C314 N322 1.356 . S
C315 C314 1.363 . S
C315 C321 1.363 . S
C316 C317 1.363 . S
C316 C321 1.379 . S
C316 N323 1.356 . S
C317 C316 1.363 . S
C317 C320 1.363 . S
N318 C320 1.356 . S
N318 H330 0.984 . S
N318 H331 0.985 . S
N319 C321 1.356 . S
N319 H324 0.984 . S
N319 H325 0.985 . S
C320 C314 1.379 . S
C320 C317 1.363 . S
C320 N318 1.356 . S
C321 C315 1.363 . S
C321 C316 1.379 . S
C321 N319 1.356 . S
N322 C314 1.356 . S
N322 H328 0.984 . S
N322 H329 0.984 . S
N323 C316 1.356 . S
N323 H326 0.984 . S
N323 H327 0.985 . S
H324 N319 0.984 . S
H325 N319 0.985 . S
H326 N323 0.984 . S
H327 N323 0.985 . S
H328 N322 0.984 . S
H329 N322 0.984 . S
H330 N318 0.984 . S
H331 N318 0.985 . S
C332 C333 1.363 . S
C332 C338 1.379 . S
C332 N340 1.356 . S
C333 C332 1.363 . S
C333 C339 1.363 . S
C334 C335 1.363 . S
C334 C339 1.379 . S
C334 N341 1.356 . S
C335 C334 1.363 . S
C335 C338 1.363 . S
N336 C338 1.356 . S
N336 H348 0.984 . S
N336 H349 0.985 . S
N337 C339 1.356 . S
N337 H342 0.984 . S
N337 H343 0.985 1_455 S
C338 C332 1.379 . S
C338 C335 1.363 . S
C338 N336 1.356 . S
C339 C333 1.363 . S
C339 C334 1.379 . S
C339 N337 1.356 . S
N340 C332 1.356 . S
N340 H346 0.984 . S
N340 H347 0.984 . S
N341 C334 1.356 . S
N341 H344 0.984 . S
N341 H345 0.985 1_455 S
H342 N337 0.984 . S
H343 N337 0.985 1_655 S
H344 N341 0.984 . S
H345 N341 0.985 1_655 S
H346 N340 0.984 . S
H347 N340 0.984 . S
H348 N336 0.984 . S
H349 N336 0.985 . S
C350 C351 1.363 . S
C350 C356 1.379 . S
C350 N358 1.356 . S
C351 C350 1.363 . S
C351 C357 1.363 . S
C352 C353 1.363 . S
C352 C357 1.379 . S
C352 N359 1.356 . S
C353 C352 1.363 . S
C353 C356 1.363 . S
N354 C356 1.356 1_554 S
N354 H366 0.984 . S
N354 H367 0.985 1_554 S
N355 C357 1.356 . S
N355 H360 0.984 . S
N355 H361 0.985 . S
C356 C350 1.379 . S
C356 C353 1.363 . S
C356 N354 1.356 1_556 S
C357 C351 1.363 . S
C357 C352 1.379 . S
C357 N355 1.356 . S
N358 C350 1.356 . S
N358 H364 0.984 1_556 S
N358 H365 0.984 . S
N359 C352 1.356 . S
N359 H362 0.984 . S
N359 H363 0.985 . S
H360 N355 0.984 . S
H361 N355 0.985 . S
H362 N359 0.984 . S
H363 N359 0.985 . S
H364 N358 0.984 1_554 S
H365 N358 0.984 . S
H366 N354 0.984 . S
H367 N354 0.985 1_556 S
C368 C369 1.363 . S
C368 C374 1.379 . S
C368 N376 1.356 . S
C369 C368 1.363 . S
C369 C375 1.363 . S
C370 C371 1.363 . S
C370 C375 1.379 . S
C370 N377 1.356 1_655 S
C371 C370 1.363 . S
C371 C374 1.363 . S
N372 C374 1.356 . S
N372 H384 0.984 . S
N372 H385 0.985 . S
N373 C375 1.356 . S
N373 H378 0.984 . S
N373 H379 0.985 1_655 S
C374 C368 1.379 . S
C374 C371 1.363 . S
C374 N372 1.356 . S
C375 C369 1.363 . S
C375 C370 1.379 . S
C375 N373 1.356 . S
N376 C368 1.356 . S
N376 H382 0.984 . S
N376 H383 0.984 . S
N377 C370 1.356 1_455 S
N377 H380 0.984 . S
N377 H381 0.985 . S
H378 N373 0.984 . S
H379 N373 0.985 1_455 S
H380 N377 0.984 . S
H381 N377 0.985 . S
H382 N376 0.984 . S
H383 N376 0.984 . S
H384 N372 0.984 . S
H385 N372 0.985 . S
C386 C387 1.363 . S
C386 C392 1.379 . S
C386 N394 1.356 . S
C387 C386 1.363 . S
C387 C393 1.363 . S
C388 C389 1.363 . S
C388 C393 1.379 . S
C388 N395 1.356 . S
C389 C388 1.363 . S
C389 C392 1.363 . S
N390 C392 1.356 . S
N390 H402 0.984 . S
N390 H403 0.985 . S
N391 C393 1.356 . S
N391 H396 0.984 . S
N391 H397 0.985 . S
C392 C386 1.379 . S
C392 C389 1.363 . S
C392 N390 1.356 . S
C393 C387 1.363 . S
C393 C388 1.379 . S
C393 N391 1.356 . S
N394 C386 1.356 . S
N394 H400 0.984 . S
N394 H401 0.984 . S
N395 C388 1.356 . S
N395 H398 0.984 . S
N395 H399 0.985 . S
H396 N391 0.984 . S
H397 N391 0.985 . S
H398 N395 0.984 . S
H399 N395 0.985 . S
H400 N394 0.984 . S
H401 N394 0.984 . S
H402 N390 0.984 . S
H403 N390 0.985 . S
C404 C405 1.363 . S
C404 C410 1.379 1_655 S
C404 N412 1.356 1_655 S
C405 C404 1.363 . S
C405 C411 1.363 . S
C406 C407 1.363 . S
C406 C411 1.379 . S
C406 N413 1.356 . S
C407 C406 1.363 . S
C407 C410 1.363 1_655 S
N408 C410 1.356 . S
N408 H420 0.984 . S
N408 H421 0.985 . S
N409 C411 1.356 . S
N409 H414 0.984 . S
N409 H415 0.985 . S
C410 C404 1.379 1_455 S
C410 C407 1.363 1_455 S
C410 N408 1.356 . S
C411 C405 1.363 . S
C411 C406 1.379 . S
C411 N409 1.356 . S
N412 C404 1.356 1_455 S
N412 H418 0.984 . S
N412 H419 0.984 1_455 S
N413 C406 1.356 . S
N413 H416 0.984 . S
N413 H417 0.985 . S
H414 N409 0.984 . S
H415 N409 0.985 . S
H416 N413 0.984 . S
H417 N413 0.985 . S
H418 N412 0.984 . S
H419 N412 0.984 1_655 S
H420 N408 0.984 . S
H421 N408 0.985 . S
C422 C423 1.363 . S
C422 C428 1.379 . S
C422 N430 1.356 . S
C423 C422 1.363 . S
C423 C429 1.363 . S
C424 C425 1.363 . S
C424 C429 1.379 . S
C424 N431 1.356 . S
C425 C424 1.363 . S
C425 C428 1.363 . S
N426 C428 1.356 1_565 S
N426 H438 0.984 . S
N426 H439 0.985 . S
N427 C429 1.356 . S
N427 H432 0.984 . S
N427 H433 0.985 . S
C428 C422 1.379 . S
C428 C425 1.363 . S
C428 N426 1.356 1_545 S
C429 C423 1.363 . S
C429 C424 1.379 . S
C429 N427 1.356 . S
N430 C422 1.356 . S
N430 H436 0.984 1_545 S
N430 H437 0.984 . S
N431 C424 1.356 . S
N431 H434 0.984 . S
N431 H435 0.985 . S
H432 N427 0.984 . S
H433 N427 0.985 . S
H434 N431 0.984 . S
H435 N431 0.985 . S
H436 N430 0.984 1_565 S
H437 N430 0.984 . S
H438 N426 0.984 . S
H439 N426 0.985 . S
C440 C441 1.363 . S
C440 C446 1.379 . S
C440 N448 1.356 . S
C441 C440 1.363 . S
C441 C447 1.363 . S
C442 C443 1.363 . S
C442 C447 1.379 . S
C442 N449 1.356 . S
C443 C442 1.363 . S
C443 C446 1.363 . S
N444 C446 1.356 . S
N444 H456 0.984 . S
N444 H457 0.985 . S
N445 C447 1.356 . S
N445 H450 0.984 . S
N445 H451 0.985 . S
C446 C440 1.379 . S
C446 C443 1.363 . S
C446 N444 1.356 . S
C447 C441 1.363 . S
C447 C442 1.379 . S
C447 N445 1.356 . S
N448 C440 1.356 . S
N448 H454 0.984 . S
N448 H455 0.984 . S
N449 C442 1.356 . S
N449 H452 0.984 . S
N449 H453 0.985 . S
H450 N445 0.984 . S
H451 N445 0.985 . S
H452 N449 0.984 . S
H453 N449 0.985 . S
H454 N448 0.984 . S
H455 N448 0.984 . S
H456 N444 0.984 . S
H457 N444 0.985 . S
C458 C459 1.363 . S
C458 C464 1.379 . S
C458 N466 1.356 . S
C459 C458 1.363 . S
C459 C465 1.363 . S
C460 C461 1.363 . S
C460 C465 1.379 . S
C460 N467 1.356 . S
C461 C460 1.363 . S
C461 C464 1.363 . S
N462 C464 1.356 . S
N462 H474 0.984 . S
N462 H475 0.985 . S
N463 C465 1.356 . S
N463 H468 0.984 . S
N463 H469 0.985 . S
C464 C458 1.379 . S
C464 C461 1.363 . S
C464 N462 1.356 . S
C465 C459 1.363 . S
C465 C460 1.379 . S
C465 N463 1.356 . S
N466 C458 1.356 . S
N466 H472 0.984 . S
N466 H473 0.984 . S
N467 C460 1.356 . S
N467 H470 0.984 . S
N467 H471 0.985 . S
H468 N463 0.984 . S
H469 N463 0.985 . S
H470 N467 0.984 . S
H471 N467 0.985 . S
H472 N466 0.984 . S
H473 N466 0.984 . S
H474 N462 0.984 . S
H475 N462 0.985 . S
C476 C477 1.363 . S
C476 C482 1.379 . S
C476 N484 1.356 . S
C477 C476 1.363 . S
C477 C483 1.363 . S
C478 C479 1.363 . S
C478 C483 1.379 . S
C478 N485 1.356 1_565 S
C479 C478 1.363 . S
C479 C482 1.363 . S
N480 C482 1.356 . S
N480 H492 0.984 1_556 S
N480 H493 0.985 . S
N481 C483 1.356 . S
N481 H486 0.984 . S
N481 H487 0.985 1_565 S
C482 C476 1.379 . S
C482 C479 1.363 . S
C482 N480 1.356 . S
C483 C477 1.363 . S
C483 C478 1.379 . S
C483 N481 1.356 . S
N484 C476 1.356 . S
N484 H490 0.984 . S
N484 H491 0.984 . S
N485 C478 1.356 1_545 S
N485 H488 0.984 . S
N485 H489 0.985 . S
H486 N481 0.984 . S
H487 N481 0.985 1_545 S
H488 N485 0.984 . S
H489 N485 0.985 . S
H490 N484 0.984 . S
H491 N484 0.984 . S
H492 N480 0.984 1_554 S
H493 N480 0.985 . S
C494 C495 1.363 . S
C494 C500 1.379 . S
C494 N502 1.356 . S
C495 C494 1.363 . S
C495 C501 1.363 . S
C496 C497 1.363 . S
C496 C501 1.379 . S
C496 N503 1.360 . S
C497 C496 1.363 . S
C497 C500 1.363 . S
N498 C500 1.356 . S
N498 H510 0.984 . S
N498 H511 0.985 . S
N499 C501 1.356 . S
N499 H504 0.984 . S
N499 H505 0.985 1_545 S
C500 C494 1.379 . S
C500 C497 1.363 . S
C500 N498 1.356 . S
C501 C495 1.363 . S
C501 C496 1.379 . S
C501 N499 1.356 . S
N502 C494 1.356 . S
N502 H508 0.984 . S
N502 H509 0.984 . S
N503 C496 1.360 . S
N503 H506 0.984 . S
N503 H507 0.981 1_545 S
H504 N499 0.984 . S
H505 N499 0.985 1_565 S
H506 N503 0.984 . S
H507 N503 0.981 1_565 S
H508 N502 0.984 . S
H509 N502 0.984 . S
H510 N498 0.984 . S
H511 N498 0.985 . S
C512 C513 1.363 . S
C512 C518 1.379 . S
C512 N520 1.356 . S
C513 C512 1.363 . S
C513 C519 1.363 . S
C514 C515 1.363 . S
C514 C519 1.379 . S
C514 N521 1.356 . S
C515 C514 1.363 . S
C515 C518 1.363 . S
N516 C518 1.356 . S
N516 H528 0.984 . S
N516 H529 0.985 . S
N517 C519 1.356 . S
N517 H522 0.984 . S
N517 H523 0.985 . S
C518 C512 1.379 . S
C518 C515 1.363 . S
C518 N516 1.356 . S
C519 C513 1.363 . S
C519 C514 1.379 . S
C519 N517 1.356 . S
N520 C512 1.356 . S
N520 H526 0.984 . S
N520 H527 0.984 . S
N521 C514 1.356 . S
N521 H524 0.984 . S
N521 H525 0.985 . S
H522 N517 0.984 . S
H523 N517 0.985 . S
H524 N521 0.984 . S
H525 N521 0.985 . S
H526 N520 0.984 . S
H527 N520 0.984 . S
H528 N516 0.984 . S
H529 N516 0.985 . S
C530 C531 1.363 . S
C530 C536 1.379 . S
C530 N538 1.356 . S
C531 C530 1.363 . S
C531 C537 1.363 . S
C532 C533 1.363 . S
C532 C537 1.379 . S
C532 N539 1.356 . S
C533 C532 1.363 . S
C533 C536 1.363 . S
N534 C536 1.356 . S
N534 H546 0.984 . S
N534 H547 0.985 . S
N535 C537 1.356 . S
N535 H540 0.984 . S
N535 H541 0.985 . S
C536 C530 1.379 . S
C536 C533 1.363 . S
C536 N534 1.356 . S
C537 C531 1.363 . S
C537 C532 1.379 . S
C537 N535 1.356 . S
N538 C530 1.356 . S
N538 H544 0.984 . S
N538 H545 0.984 . S
N539 C532 1.356 . S
N539 H542 0.984 . S
N539 H543 0.985 . S
H540 N535 0.984 . S
H541 N535 0.985 . S
H542 N539 0.984 . S
H543 N539 0.985 . S
H544 N538 0.984 . S
H545 N538 0.984 . S
H546 N534 0.984 . S
H547 N534 0.985 . S
C548 C549 1.363 1_554 S
C548 C554 1.379 1_655 S
C548 N556 1.356 . S
C549 C548 1.363 1_556 S
C549 C555 1.363 . S
C550 C551 1.363 . S
C550 C555 1.379 . S
C550 N557 1.356 . S
C551 C550 1.363 . S
C551 C554 1.363 1_656 S
N552 C554 1.356 . S
N552 H564 0.984 . S
N552 H565 0.985 . S
N553 C555 1.356 . S
N553 H558 0.984 . S
N553 H559 0.985 . S
C554 C548 1.379 1_455 S
C554 C551 1.363 1_454 S
C554 N552 1.356 . S
C555 C549 1.363 . S
C555 C550 1.379 . S
C555 N553 1.356 . S
N556 C548 1.356 . S
N556 H562 0.984 1_655 S
N556 H563 0.984 . S
N557 C550 1.356 . S
N557 H560 0.984 . S
N557 H561 0.985 . S
H558 N553 0.984 . S
H559 N553 0.985 . S
H560 N557 0.984 . S
H561 N557 0.985 . S
H562 N556 0.984 1_455 S
H563 N556 0.984 . S
H564 N552 0.984 . S
H565 N552 0.985 . S
C566 C567 1.363 . S
C566 C572 1.379 . S
C566 N574 1.356 . S
C567 C566 1.363 . S
C567 C573 1.363 . S
C568 C569 1.363 . S
C568 C573 1.379 . S
C568 N575 1.356 . S
C569 C568 1.363 . S
C569 C572 1.363 . S
N570 C572 1.356 . S
N570 H582 0.984 1_554 S
N570 H583 0.985 . S
N571 C573 1.356 . S
N571 H576 0.984 . S
N571 H577 0.985 . S
C572 C566 1.379 . S
C572 C569 1.363 . S
C572 N570 1.356 . S
C573 C567 1.363 . S
C573 C568 1.379 . S
C573 N571 1.356 . S
N574 C566 1.356 . S
N574 H580 0.984 . S
N574 H581 0.984 . S
N575 C568 1.356 . S
N575 H578 0.984 . S
N575 H579 0.985 . S
H576 N571 0.984 . S
H577 N571 0.985 . S
H578 N575 0.984 . S
H579 N575 0.985 . S
H580 N574 0.984 . S
H581 N574 0.984 . S
H582 N570 0.984 1_556 S
H583 N570 0.985 . S
C584 C585 1.363 . S
C584 C590 1.379 . S
C584 N592 1.356 . S
C585 C584 1.363 . S
C585 C591 1.363 . S
C586 C587 1.363 . S
C586 C591 1.379 . S
C586 N593 1.356 . S
C587 C586 1.363 . S
C587 C590 1.363 . S
N588 C590 1.356 . S
N588 H600 0.984 . S
N588 H601 0.985 . S
N589 C591 1.356 . S
N589 H594 0.984 . S
N589 H595 0.985 . S
C590 C584 1.379 . S
C590 C587 1.363 . S
C590 N588 1.356 . S
C591 C585 1.363 . S
C591 C586 1.379 . S
C591 N589 1.356 . S
N592 C584 1.356 . S
N592 H598 0.984 . S
N592 H599 0.984 . S
N593 C586 1.356 . S
N593 H596 0.984 . S
N593 H597 0.985 1_455 S
H594 N589 0.984 . S
H595 N589 0.985 . S
H596 N593 0.984 . S
H597 N593 0.985 1_655 S
H598 N592 0.984 . S
H599 N592 0.984 . S
H600 N588 0.984 . S
H601 N588 0.985 . S
C602 C603 1.363 . S
C602 C608 1.379 . S
C602 N610 1.356 . S
C603 C602 1.363 . S
C603 C609 1.363 . S
C604 C605 1.363 . S
C604 C609 1.379 . S
C604 N611 1.356 . S
C605 C604 1.363 . S
C605 C608 1.363 . S
N606 C608 1.356 . S
N606 H618 0.984 . S
N606 H619 0.985 . S
N607 C609 1.356 . S
N607 H612 0.984 . S
N607 H613 0.985 . S
C608 C602 1.379 . S
C608 C605 1.363 . S
C608 N606 1.356 . S
C609 C603 1.363 . S
C609 C604 1.379 . S
C609 N607 1.356 . S
N610 C602 1.356 . S
N610 H616 0.984 . S
N610 H617 0.984 . S
N611 C604 1.356 . S
N611 H614 0.984 . S
N611 H615 0.985 . S
H612 N607 0.984 . S
H613 N607 0.985 . S
H614 N611 0.984 . S
H615 N611 0.985 . S
H616 N610 0.984 . S
H617 N610 0.984 . S
H618 N606 0.984 . S
H619 N606 0.985 . S
C189 C9 1.844 . S
C191 C120 1.795 . S
C207 C21 1.543 . S
C209 C142 1.524 . S
C227 C161 1.111 . S
C225 C30 1.368 . S
C243 C43 1.455 . S
C245 C182 1.269 . S
C263 C139 1.582 . S
C261 C4 1.593 . S
C281 C117 1.967 . S
C279 C22 2.007 . S
C299 C184 1.135 . S
C297 C34 1.196 . S
C317 C163 1.322 . S
C315 C48 1.352 . S
C333 C8 1.728 . S
C335 C181 1.650 . S
C353 C140 1.307 . S
C351 C35 1.642 . S
C369 C47 1.663 . S
C371 C122 1.522 . S
C387 C17 1.468 . S
C389 C160 1.453 . S
C407 C118 1.530 . S
C405 C60 1.597 . S
C423 C74 1.590 . S
C425 C138 1.548 . S
C441 C82 1.172 . S
C443 C164 0.998 . S
C459 C100 1.863 . S
C461 C185 1.483 . S
C477 C61 1.881 . S
C479 C141 1.827 . S
C497 C121 1.622 . S
C495 C73 1.709 . S
C515 C180 1.421 . S
C513 C87 1.463 . S
C533 C159 1.226 . S
C531 C95 1.247 . S
C549 C56 1.509 . S
C551 C183 1.543 . S
C569 C143 1.306 . S
C567 C86 1.589 . S
C587 C119 1.325 . S
C585 C99 1.489 . S
C603 C69 1.343 . S
C605 C162 1.369 . S
