# Generated by pormake.
# Topology zzz, (3,6)-cn, num edge types: 1
# Building blocks:
#     Node 0, Type 0, BuildingBlock: ESEHIV_clean_linker_0, # of connection points: 3
#     Node 1, Type 0, BuildingBlock: ESEHIV_clean_linker_0, # of connection points: 3
#     Node 2, Type 0, BuildingBlock: ESEHIV_clean_linker_0, # of connection points: 3
#     Node 3, Type 0, BuildingBlock: ESEHIV_clean_linker_0, # of connection points: 3
#     Node 4, Type 0, BuildingBlock: ESEHIV_clean_linker_0, # of connection points: 3
#     Node 5, Type 0, BuildingBlock: ESEHIV_clean_linker_0, # of connection points: 3
#     Node 6, Type 0, BuildingBlock: ESEHIV_clean_linker_0, # of connection points: 3
#     Node 7, Type 0, BuildingBlock: ESEHIV_clean_linker_0, # of connection points: 3
#     Node 8, Type 1, BuildingBlock: KUMJIN_clean_sbu_0, # of connection points: 6
#     Node 9, Type 1, BuildingBlock: KUMJIN_clean_sbu_0, # of connection points: 6
#     Node 10, Type 1, BuildingBlock: KUMJIN_clean_sbu_0, # of connection points: 6
#     Node 11, Type 1, BuildingBlock: KUMJIN_clean_sbu_0, # of connection points: 6
#     Edge 12, Type (0, 1), BuildingBlock: MIFKUJ_clean_linker_0, # of connection points: 2
#     Edge 13, Type (0, 1), BuildingBlock: MIFKUJ_clean_linker_0, # of connection points: 2
#     Edge 14, Type (0, 1), BuildingBlock: MIFKUJ_clean_linker_0, # of connection points: 2
#     Edge 15, Type (0, 1), BuildingBlock: MIFKUJ_clean_linker_0, # of connection points: 2
#     Edge 16, Type (0, 1), BuildingBlock: MIFKUJ_clean_linker_0, # of connection points: 2
#     Edge 17, Type (0, 1), BuildingBlock: MIFKUJ_clean_linker_0, # of connection points: 2
#     Edge 18, Type (0, 1), BuildingBlock: MIFKUJ_clean_linker_0, # of connection points: 2
#     Edge 19, Type (0, 1), BuildingBlock: MIFKUJ_clean_linker_0, # of connection points: 2
#     Edge 20, Type (0, 1), BuildingBlock: MIFKUJ_clean_linker_0, # of connection points: 2
#     Edge 21, Type (0, 1), BuildingBlock: MIFKUJ_clean_linker_0, # of connection points: 2
#     Edge 22, Type (0, 1), BuildingBlock: MIFKUJ_clean_linker_0, # of connection points: 2
#     Edge 23, Type (0, 1), BuildingBlock: MIFKUJ_clean_linker_0, # of connection points: 2
#     Edge 24, Type (0, 1), BuildingBlock: MIFKUJ_clean_linker_0, # of connection points: 2
#     Edge 25, Type (0, 1), BuildingBlock: MIFKUJ_clean_linker_0, # of connection points: 2
#     Edge 26, Type (0, 1), BuildingBlock: MIFKUJ_clean_linker_0, # of connection points: 2
#     Edge 27, Type (0, 1), BuildingBlock: MIFKUJ_clean_linker_0, # of connection points: 2
#     Edge 28, Type (0, 1), BuildingBlock: MIFKUJ_clean_linker_0, # of connection points: 2
#     Edge 29, Type (0, 1), BuildingBlock: MIFKUJ_clean_linker_0, # of connection points: 2
#     Edge 30, Type (0, 1), BuildingBlock: MIFKUJ_clean_linker_0, # of connection points: 2
#     Edge 31, Type (0, 1), BuildingBlock: MIFKUJ_clean_linker_0, # of connection points: 2
#     Edge 32, Type (0, 1), BuildingBlock: MIFKUJ_clean_linker_0, # of connection points: 2
#     Edge 33, Type (0, 1), BuildingBlock: MIFKUJ_clean_linker_0, # of connection points: 2
#     Edge 34, Type (0, 1), BuildingBlock: MIFKUJ_clean_linker_0, # of connection points: 2
#     Edge 35, Type (0, 1), BuildingBlock: MIFKUJ_clean_linker_0, # of connection points: 2
# Relax obj value: 0.296
# Max RMSD: 0.224
# Mean RMSD: 0.211
data_MOF--net-zzz--node1-KUMJIN_clean_sbu_0--node2-ESEHIV_clean_linker_0--edge1-MIFKUJ_clean_linker_0
_symmetry_space_group_name_H-M    P1
_symmetry_Int_Tables_number       1
_symmetry_cell_setting            triclinic
loop_
_symmetry_equiv_pos_as_xyz
'x, y, z'
_cell_length_a     58.087698
_cell_length_b     58.053527
_cell_length_c     20.291474
_cell_angle_alpha  90.498829
_cell_angle_beta   90.124739
_cell_angle_gamma 89.96448
loop_
_atom_site_label
_atom_site_type_symbol
_atom_site_fract_x
_atom_site_fract_y
_atom_site_fract_z
_atom_type_partial_charge
H0 H 0.77327 0.60356 0.24389 0.0
H1 H 0.71844 0.60172 0.10661 0.0
H2 H 0.72467 0.54758 0.24956 0.0
C3 C 0.75683 0.59623 0.22903 0.0
C4 C 0.74978 0.57556 0.25803 0.0
C5 C 0.74855 0.60162 0.16671 0.0
C6 C 0.72593 0.59516 0.15175 0.0
C7 C 0.71691 0.57487 0.17908 0.0
C8 C 0.72954 0.56445 0.23208 0.0
H9 H 0.93374 0.78461 0.22726 0.0
H10 H 0.9281 0.724 0.10688 0.0
H11 H 0.98553 0.73218 0.24073 0.0
C12 C 0.93947 0.76743 0.21403 0.0
C13 C 0.9592 0.75901 0.2455 0.0
C14 C 0.92959 0.75603 0.15974 0.0
C15 C 0.93684 0.73356 0.14568 0.0
C16 C 0.95773 0.72507 0.1707 0.0
C17 C 0.96913 0.73798 0.22159 0.0
H18 H 0.73811 0.94168 0.22844 0.0
H19 H 0.80095 0.94109 0.11881 0.0
H20 H 0.79439 0.98454 0.29141 0.0
C21 C 0.75607 0.94648 0.22409 0.0
C22 C 0.76532 0.96168 0.27118 0.0
C23 C 0.76826 0.94023 0.16725 0.0
C24 C 0.79136 0.94651 0.16213 0.0
C25 C 0.80087 0.96317 0.2043 0.0
C26 C 0.78763 0.97117 0.25928 0.0
H27 H 0.58365 0.743 0.21954 0.0
H28 H 0.55002 0.80502 0.28396 0.0
H29 H 0.59167 0.80467 0.10786 0.0
C30 C 0.58116 0.7614 0.21419 0.0
C31 C 0.5892 0.7725 0.15776 0.0
C32 C 0.56775 0.77287 0.26132 0.0
C33 C 0.56155 0.79622 0.2503 0.0
C34 C 0.57075 0.808 0.19501 0.0
C35 C 0.5852 0.79603 0.1512 0.0
H36 H 0.24348 0.43628 0.03988 0.0
H37 H 0.30523 0.435 0.15462 0.0
H38 H 0.30387 0.47074 0.96873 0.0
C39 C 0.26176 0.43975 0.04414 0.0
C40 C 0.27255 0.45199 0.9936 0.0
C41 C 0.27322 0.43387 0.10229 0.0
C42 C 0.29637 0.43953 0.10939 0.0
C43 C 0.30753 0.45332 0.06315 0.0
C44 C 0.29554 0.45987 1.00458 0.0
H45 H 0.10055 0.25188 0.99693 0.0
H46 H 0.08593 0.30219 0.14245 0.0
H47 H 0.04228 0.29761 0.97149 0.0
C48 C 0.0899 0.2662 0.01209 0.0
C49 C 0.0704 0.27239 0.97489 0.0
C50 C 0.09227 0.27356 0.07725 0.0
C51 C 0.0823 0.29461 0.09465 0.0
C52 C 0.06483 0.3044 0.05615 0.0
C53 C 0.05756 0.29215 0.99768 0.0
H54 H 0.2814 0.09174 0.99603 0.0
H55 H 0.22434 0.0901 0.12657 0.0
H56 H 0.22676 0.04285 0.96216 0.0
C57 C 0.26395 0.08598 1.00578 0.0
C58 C 0.25522 0.06736 0.96906 0.0
C59 C 0.25461 0.09107 0.06745 0.0
C60 C 0.23181 0.08505 0.07957 0.0
C61 C 0.22101 0.06781 0.04171 0.0
C62 C 0.23347 0.05786 0.98769 0.0
H63 H 0.43241 0.28233 0.02163 0.0
H64 H 0.46742 0.22145 0.95169 0.0
H65 H 0.42937 0.22073 0.13422 0.0
C66 C 0.43571 0.26398 0.02539 0.0
C67 C 0.42968 0.25263 0.08314 0.0
C68 C 0.44875 0.25299 0.97626 0.0
C69 C 0.456 0.22981 0.98657 0.0
C70 C 0.4481 0.21768 0.04304 0.0
C71 C 0.43416 0.22922 0.08877 0.0
Eu72 Eu 0.03225 1.0041 0.67341 0.0
C73 C 0.95043 0.98909 0.48819 0.0
C74 C 0.9693 0.97118 0.39439 0.0
C75 C 0.92832 0.96574 0.41022 0.0
C76 C 0.97021 0.98533 0.4515 0.0
C77 C 0.92923 0.97947 0.46733 0.0
C78 C 0.94831 0.96155 0.37397 0.0
C79 C 0.91064 0.99918 0.55757 0.0
N80 N 0.95167 1.00254 0.54316 0.0
C81 C 0.93185 0.00855 0.57569 0.0
C82 C 0.90934 0.98439 0.50344 0.0
Eu83 Eu 0.98747 0.02136 0.56364 0.0
N84 N 0.99034 0.99506 0.47193 0.0
C85 C 0.01018 0.99062 0.4375 0.0
C86 C 0.98954 0.96694 0.35937 0.0
C87 C 0.01009 0.97651 0.38149 0.0
H88 H 0.93213 0.02143 0.6144 0.0
H89 H 0.02598 0.9729 0.35568 0.0
H90 H 0.94735 0.95084 0.33004 0.0
H91 H 0.89522 1.00392 0.58431 0.0
H92 H 0.02657 0.99682 0.45366 0.0
H93 H 0.99994 0.05781 0.87885 0.0
H94 H 0.98954 0.95607 0.31568 0.0
H95 H 0.08662 0.99824 0.61883 0.0
H96 H 0.99649 0.03373 0.78102 0.0
H97 H 0.12568 0.01066 0.64926 0.0
H98 H 0.91219 0.95837 0.39345 0.0
H99 H 0.03819 0.07003 0.91895 0.0
H100 H 0.08086 0.0696 0.90522 0.0
H101 H 0.89278 0.97741 0.48875 0.0
H102 H 0.11485 0.05743 0.84205 0.0
N103 N 0.03274 0.03109 0.76348 0.0
C104 C 0.01353 0.03809 0.79739 0.0
C105 C 0.03689 0.0591 0.87554 0.0
C106 C 0.05652 0.05207 0.84119 0.0
C107 C 0.0153 0.05221 0.85319 0.0
C108 C 0.05391 0.03795 0.78453 0.0
H109 H 0.13164 0.03605 0.74615 0.0
N110 N 0.07003 0.01828 0.69343 0.0
C111 C 0.11104 0.01693 0.67704 0.0
C112 C 0.07305 0.03149 0.74824 0.0
C113 C 0.08877 0.01031 0.65918 0.0
C114 C 0.11432 0.03114 0.73189 0.0
C115 C 0.09528 0.03842 0.76864 0.0
O116 O 0.0563 0.97542 0.68551 0.0
O117 O 1.00367 0.98998 0.60796 0.0
O118 O 0.9689 0.00802 0.65585 0.0
O119 O 0.99839 0.99797 0.72749 0.0
O120 O 0.03651 0.97678 0.5944 0.0
O121 O 0.0299 0.98243 0.76059 0.0
O122 O 0.95986 0.04614 0.55374 0.0
O123 O 0.01602 0.03562 0.62864 0.0
O124 O 0.05111 0.01774 0.58322 0.0
O125 O 0.02193 0.03111 0.51414 0.0
O126 O 0.9838 0.05005 0.63905 0.0
O127 O 0.98447 0.04217 0.47455 0.0
C128 C 0.01521 0.97445 0.57794 0.0
C129 C 0.05572 0.9504 0.78012 0.0
C130 C 0.04731 0.91718 0.84751 0.0
C131 C 0.04002 0.93712 0.81533 0.0
C132 C 0.0707 0.91096 0.84582 0.0
C133 C 0.07903 0.94408 0.77835 0.0
C134 C 0.08649 0.9245 0.81171 0.0
C135 C 0.97626 1.00054 0.7138 0.0
C136 C 0.04727 0.96977 0.74161 0.0
C137 C 0.09791 0.05208 0.82553 0.0
C138 C 0.07858 0.05893 0.86161 0.0
C139 C 1.005 0.05192 0.65692 0.0
C140 C 0.96507 0.07823 0.48751 0.0
C141 C 0.98363 0.09073 0.46245 0.0
C142 C 0.98144 0.11443 0.45325 0.0
C143 C 0.96089 0.12579 0.4694 0.0
C144 C 0.94444 0.08967 0.5034 0.0
C145 C 0.94243 0.11338 0.4946 0.0
C146 C 0.04407 0.02727 0.52764 0.0
C147 C 0.96642 0.05329 0.49643 0.0
H148 H 0.02189 0.94162 0.81462 0.0
H149 H 0.07669 0.89558 0.87037 0.0
H150 H 0.09136 0.95417 0.7509 0.0
H151 H 0.10447 0.91961 0.81025 0.0
H152 H 0.99959 0.08216 0.44934 0.0
H153 H 0.95908 0.14415 0.46157 0.0
H154 H 0.92985 0.08021 0.5224 0.0
H155 H 0.92648 0.12209 0.50669 0.0
Eu156 Eu 0.51939 0.03756 0.68196 0.0
C157 C 0.53131 0.95745 0.48475 0.0
C158 C 0.5468 0.97686 0.38947 0.0
C159 C 0.55001 0.93535 0.39734 0.0
C160 C 0.53455 0.97754 0.44961 0.0
C161 C 0.53911 0.93614 0.45892 0.0
C162 C 0.554 0.95571 0.36302 0.0
C163 C 0.52482 0.91768 0.55652 0.0
N164 N 0.52091 0.95872 0.54456 0.0
C165 C 0.51735 0.93907 0.5801 0.0
C166 C 0.53565 0.91617 0.49553 0.0
Eu167 Eu 0.50154 0.99378 0.56939 0.0
N168 N 0.52706 0.99782 0.47604 0.0
C169 C 0.53395 0.01806 0.44755 0.0
C170 C 0.55215 0.9975 0.35835 0.0
C171 C 0.54623 0.0182 0.38855 0.0
H172 H 0.50761 0.93934 0.62525 0.0
H173 H 0.55138 0.03437 0.36687 0.0
H174 H 0.5631 0.95509 0.3166 0.0
H175 H 0.52165 0.90227 0.58474 0.0
H176 H 0.53145 0.0344 0.47085 0.0
H177 H 0.48113 1.00187 0.9058 0.0
H178 H 0.56168 0.99766 0.31251 0.0
H179 H 0.51299 0.09219 0.62297 0.0
H180 H 0.50727 1.0032 0.81296 0.0
H181 H 0.48756 0.12531 0.63793 0.0
H182 H 0.55583 0.91913 0.37646 0.0
H183 H 0.45319 0.0333 0.92406 0.0
H184 H 0.43723 0.07113 0.88947 0.0
H185 H 0.54116 0.8995 0.47699 0.0
H186 H 0.43823 0.10413 0.81491 0.0
N187 N 0.49336 0.03392 0.77184 0.0
C188 C 0.49463 0.01648 0.81667 0.0
C189 C 0.46439 0.0337 0.88144 0.0
C190 C 0.46379 0.05212 0.8376 0.0
C191 C 0.48002 0.0159 0.87115 0.0
C192 C 0.47877 0.05189 0.78267 0.0
H193 H 0.45662 0.12433 0.72094 0.0
N194 N 0.49474 0.07053 0.69003 0.0
C195 C 0.48456 0.10982 0.66582 0.0
C196 C 0.47922 0.07046 0.74013 0.0
C197 C 0.49865 0.09062 0.65653 0.0
C198 C 0.46724 0.10922 0.71294 0.0
C199 C 0.46486 0.08973 0.75225 0.0
O200 O 0.54046 0.06789 0.70171 0.0
O201 O 0.53333 0.00944 0.61515 0.0
O202 O 0.5104 0.97706 0.66757 0.0
O203 O 0.53345 1.00355 0.72266 0.0
O204 O 0.54868 0.04155 0.6096 0.0
O205 O 0.53867 0.04077 0.77381 0.0
O206 O 0.47544 0.96833 0.5958 0.0
O207 O 0.48969 0.01456 0.65796 0.0
O208 O 0.50847 0.05428 0.58432 0.0
O209 O 0.49299 0.02635 0.51365 0.0
O210 O 0.46852 0.01465 0.57526 0.0
O211 O 0.48281 0.97523 0.49302 0.0
C212 C 0.54974 0.02053 0.58872 0.0
C213 C 0.57241 0.06361 0.77092 0.0
C214 C 0.60973 0.04813 0.80152 0.0
C215 C 0.5868 0.04473 0.78222 0.0
C216 C 0.61842 0.07075 0.80588 0.0
C217 C 0.5813 0.08601 0.77501 0.0
C218 C 0.60431 0.08953 0.7918 0.0
C219 C 0.52495 0.98247 0.71532 0.0
C220 C 0.54787 0.06042 0.75796 0.0
C221 C 0.44939 0.08953 0.80523 0.0
C222 C 0.44889 0.0708 0.84785 0.0
C223 C 0.47042 0.02153 0.63566 0.0
C224 C 0.44536 0.96297 0.519 0.0
C225 C 0.4345 0.98064 0.48391 0.0
C226 C 0.41173 0.97793 0.46254 0.0
C227 C 0.39979 0.9576 0.47756 0.0
C228 C 0.43306 0.94308 0.53541 0.0
C229 C 0.4103 0.94046 0.51483 0.0
C230 C 0.49768 0.04803 0.52939 0.0
C231 C 0.4699 0.96415 0.5346 0.0
H232 H 0.57998 0.02742 0.77735 0.0
H233 H 0.63589 0.07405 0.82207 0.0
H234 H 0.57034 0.10078 0.76612 0.0
H235 H 0.61107 0.10686 0.79559 0.0
H236 H 0.44396 0.99604 0.47093 0.0
H237 H 0.38219 0.95513 0.46127 0.0
H238 H 0.44125 0.92938 0.56283 0.0
H239 H 0.40088 0.92501 0.52704 0.0
Eu240 Eu 0.53306 0.50453 0.57942 0.0
C241 C 0.43064 0.51854 0.64859 0.0
C242 C 0.41841 0.54971 0.57758 0.0
C243 C 0.38981 0.52487 0.62693 0.0
C244 C 0.43618 0.53702 0.60844 0.0
C245 C 0.4073 0.51256 0.65872 0.0
C246 C 0.39534 0.54342 0.58665 0.0
C247 C 0.41959 0.4847 0.73869 0.0
N248 N 0.44776 0.50744 0.68126 0.0
C249 C 0.44229 0.49156 0.72856 0.0
C250 C 0.402 0.49508 0.70315 0.0
Eu251 Eu 0.48493 0.52446 0.67416 0.0
N252 N 0.45869 0.54305 0.60085 0.0
C253 C 0.46425 0.56126 0.56129 0.0
C254 C 0.42419 0.56874 0.5394 0.0
C255 C 0.44721 0.57449 0.53109 0.0
H256 H 0.45541 0.48453 0.76053 0.0
H257 H 0.45193 0.58873 0.49979 0.0
H258 H 0.38159 0.55303 0.56343 0.0
H259 H 0.41564 0.47194 0.77555 0.0
H260 H 0.48161 0.56504 0.54812 0.0
H261 H 0.57124 0.45698 0.78626 0.0
H262 H 0.41102 0.57892 0.51539 0.0
H263 H 0.55881 0.53914 0.46983 0.0
H264 H 0.5399 0.47177 0.7198 0.0
H265 H 0.59775 0.55277 0.44323 0.0
H266 H 0.37187 0.52055 0.63453 0.0
H267 H 0.61123 0.46931 0.76524 0.0
H268 H 0.63861 0.49297 0.70014 0.0
H269 H 0.38432 0.49016 0.71237 0.0
H270 H 0.64568 0.5195 0.60888 0.0
N271 N 0.56125 0.49214 0.65732 0.0
C272 C 0.55705 0.47701 0.70737 0.0
C273 C 0.59738 0.47589 0.73494 0.0
C274 C 0.60175 0.49141 0.68426 0.0
C275 C 0.57491 0.4688 0.74675 0.0
C276 C 0.58314 0.49939 0.64565 0.0
H277 H 0.63067 0.54192 0.51368 0.0
N278 N 0.56903 0.5223 0.55823 0.0
C279 C 0.595 0.54244 0.48665 0.0
C280 C 0.58709 0.5149 0.59508 0.0
C281 C 0.57291 0.53486 0.50244 0.0
C282 C 0.6135 0.53623 0.52643 0.0
C283 C 0.60979 0.52202 0.58069 0.0
O284 O 0.54163 0.49903 0.47604 0.0
O285 O 0.49402 0.50488 0.58235 0.0
O286 O 0.48345 0.48496 0.67497 0.0
O287 O 0.51724 0.47228 0.62529 0.0
O288 O 0.50883 0.51368 0.4949 0.0
O289 O 0.54866 0.47213 0.54746 0.0
O290 O 0.47362 0.52455 0.77613 0.0
O291 O 0.52381 0.52397 0.67242 0.0
O292 O 0.53508 0.54366 0.57325 0.0
O293 O 0.50428 0.55673 0.63692 0.0
O294 O 0.50779 0.51371 0.75826 0.0
O295 O 0.47144 0.55603 0.71923 0.0
C296 C 0.48935 0.51041 0.52347 0.0
C297 C 0.55024 0.46213 0.43367 0.0
C298 C 0.53448 0.42804 0.38218 0.0
C299 C 0.53408 0.44436 0.43317 0.0
C300 C 0.55075 0.42961 0.33144 0.0
C301 C 0.56642 0.46382 0.38269 0.0
C302 C 0.56664 0.44758 0.33164 0.0
C303 C 0.4982 0.46839 0.65932 0.0
C304 C 0.55104 0.47907 0.48676 0.0
C305 C 0.6282 0.51417 0.61927 0.0
C306 C 0.62418 0.49898 0.67102 0.0
C307 C 0.52737 0.51824 0.7319 0.0
C308 C 0.4701 0.55897 0.83659 0.0
C309 C 0.48595 0.57699 0.84224 0.0
C310 C 0.48809 0.58892 0.90219 0.0
C311 C 0.47439 0.58289 0.95621 0.0
C312 C 0.45632 0.5531 0.89067 0.0
C313 C 0.45848 0.56505 0.95026 0.0
C314 C 0.52213 0.56053 0.59714 0.0
C315 C 0.46714 0.54598 0.77529 0.0
H316 H 0.52137 0.44317 0.4721 0.0
H317 H 0.55084 0.41719 0.29126 0.0
H318 H 0.57892 0.47766 0.38257 0.0
H319 H 0.57907 0.44896 0.29224 0.0
H320 H 0.49661 0.58165 0.80061 0.0
H321 H 0.47581 0.59223 1.00252 0.0
H322 H 0.44386 0.53927 0.88667 0.0
H323 H 0.44775 0.56053 0.99173 0.0
Eu324 Eu 0.02448 0.53524 0.57346 0.0
C325 C 1.00584 0.43638 0.6533 0.0
C326 C 0.97695 0.42367 0.57465 0.0
C327 C 0.99857 0.39539 0.63668 0.0
C328 C 0.98913 0.44157 0.60669 0.0
C329 C 0.01075 0.41315 0.66842 0.0
C330 C 0.98149 0.40065 0.59064 0.0
C331 C 0.03741 0.42647 0.75136 0.0
N332 N 0.01677 0.45392 0.68522 0.0
C333 C 0.03151 0.44911 0.7362 0.0
C334 C 0.02711 0.40837 0.717 0.0
Eu335 Eu 1.00043 0.49108 0.66987 0.0
N336 N 0.98477 0.46402 0.59256 0.0
C337 C 0.97072 0.46928 0.54051 0.0
C338 C 0.96039 0.42941 0.52769 0.0
C339 C 0.95802 0.45219 0.50832 0.0
H340 H 0.03833 0.46269 0.7673 0.0
H341 H 0.94621 0.45665 0.46912 0.0
H342 H 0.97192 0.38677 0.56759 0.0
H343 H 0.04934 0.423 0.79112 0.0
H344 H 0.96915 0.48644 0.52242 0.0
H345 H 0.07251 0.57434 0.78077 0.0
H346 H 0.94954 0.41641 0.50557 0.0
H347 H 0.98545 0.56086 0.4706 0.0
H348 H 0.05829 0.54267 0.71372 0.0
H349 H 0.96734 0.59838 0.45609 0.0
H350 H 1.00193 0.37752 0.64831 0.0
H351 H 0.05808 0.61379 0.76247 0.0
H352 H 0.03036 0.63975 0.70768 0.0
H353 H 0.03129 0.39079 0.72995 0.0
H354 H 1.00075 0.64589 0.62341 0.0
N355 N 0.03635 0.56334 0.6533 0.0
C356 C 0.05203 0.55953 0.70266 0.0
C357 C 0.05153 0.59968 0.73283 0.0
C358 C 0.03455 0.60343 0.68545 0.0
C359 C 0.05993 0.57756 0.7425 0.0
C360 C 0.02715 0.58475 0.64556 0.0
H361 H 0.97694 0.63064 0.53106 0.0
N362 N 1.00327 0.57016 0.55963 0.0
C363 C 0.97894 0.59569 0.49714 0.0
C364 C 0.01007 0.58816 0.59837 0.0
C365 C 0.98899 0.57417 0.50676 0.0
C366 C 0.98451 0.61384 0.53928 0.0
C367 C 1.00058 0.61041 0.58957 0.0
O368 O 0.02424 0.54186 0.46811 0.0
O369 O 0.01099 0.49865 0.5665 0.0
O370 O 0.04023 0.49073 0.68179 0.0
O371 O 0.05656 0.51976 0.61859 0.0
O372 O 0.0424 0.50478 0.52421 0.0
O373 O 0.05162 0.55591 0.52941 0.0
O374 O 1.00345 0.48827 0.77681 0.0
O375 O 0.01433 0.52737 0.67721 0.0
O376 O 0.98541 0.53231 0.5534 0.0
O377 O 0.96801 0.50779 0.62846 0.0
O378 O 0.98169 0.52165 0.71456 0.0
O379 O 0.97547 0.47109 0.72432 0.0
C380 C 0.02737 0.48898 0.53496 0.0
C381 C 0.05887 0.55107 0.41573 0.0
C382 C 0.08913 0.5297 0.36104 0.0
C383 C 0.07523 0.53337 0.41627 0.0
C384 C 0.08705 0.54408 0.30603 0.0
C385 C 0.05693 0.56546 0.3609 0.0
C386 C 0.07109 0.56203 0.30629 0.0
C387 C 0.0584 0.50235 0.66 0.0
C388 C 0.0429 0.5543 0.47021 0.0
C389 C 0.00789 0.62879 0.6296 0.0
C390 C 0.02484 0.62533 0.67729 0.0
C391 C 0.99742 0.53696 0.7068 0.0
C392 C 0.96964 0.48011 0.83587 0.0
C393 C 0.95048 0.49438 0.82734 0.0
C394 C 0.93493 0.49734 0.8789 0.0
C395 C 0.93855 0.48627 0.93925 0.0
C396 C 0.97336 0.46916 0.89627 0.0
C397 C 0.95783 0.47229 0.94794 0.0
C398 C 0.96681 0.52349 0.58148 0.0
C399 C 0.98515 0.47532 0.78131 0.0
H400 H 0.07683 0.52223 0.4586 0.0
H401 H 0.09784 0.54145 0.26313 0.0
H402 H 0.0443 0.57921 0.36014 0.0
H403 H 0.06955 0.57314 0.26394 0.0
H404 H 0.94733 0.50269 0.78052 0.0
H405 H 0.92646 0.48847 0.97942 0.0
H406 H 0.98809 0.45795 0.90306 0.0
H407 H 0.96062 0.46372 0.99443 0.0
H408 H 0.18122 0.09164 0.05775 0.0
H409 H 0.15033 0.0834 0.13578 0.0
H410 H 0.18026 0.01692 0.17395 0.0
H411 H 0.21161 0.02538 0.09607 0.0
H412 H 0.13062 0.01627 0.17388 0.0
H413 H 0.19188 0.05794 0.27637 0.0
H414 H 0.22036 0.08914 0.28916 0.0
H415 H 0.16582 0.13892 0.30257 0.0
H416 H 0.13703 0.10809 0.28766 0.0
H417 H 0.08404 1.00368 0.50327 0.0
H418 H 0.11215 0.00954 0.41529 0.0
H419 H 0.07223 0.06653 0.34306 0.0
H420 H 0.04386 0.06072 0.43134 0.0
H421 H 0.1274 0.07132 0.36219 0.0
H422 H 0.06608 0.0287 0.25601 0.0
H423 H 0.03837 0.99669 0.24771 0.0
H424 H 0.09405 0.94799 0.24579 0.0
H425 H 0.12211 0.97977 0.25544 0.0
C426 C 0.18072 0.07484 0.08058 0.0
C427 C 0.19872 0.05899 0.06919 0.0
C428 C 0.16318 0.07027 0.12614 0.0
C429 C 0.16294 0.04964 0.16189 0.0
C430 C 0.17991 0.03298 0.14718 0.0
C431 C 0.19771 0.03767 0.10178 0.0
C432 C 0.14604 0.04647 0.21751 0.0
C433 C 0.1301 0.02824 0.21516 0.0
C434 C 0.14499 0.0621 0.27177 0.0
C435 C 0.16227 0.08071 0.2804 0.0
C436 C 0.18595 0.07556 0.28134 0.0
C437 C 0.20217 0.09318 0.289 0.0
C438 C 0.19491 0.11599 0.29664 0.0
C439 C 0.17142 0.12124 0.29657 0.0
C440 C 0.15515 0.1037 0.28845 0.0
C441 C 0.08142 0.01783 0.46974 0.0
C442 C 0.06178 0.03201 0.47558 0.0
C443 C 0.0975 0.02103 0.41889 0.0
C444 C 0.09463 0.0387 0.37269 0.0
C445 C 0.07517 0.05306 0.37862 0.0
C446 C 0.05883 0.04961 0.42896 0.0
C447 C 0.11164 0.04156 0.31743 0.0
C448 C 0.12777 0.05956 0.32039 0.0
C449 C 0.11292 0.02571 0.26397 0.0
C450 C 0.09617 1.00659 0.25739 0.0
C451 C 0.07241 0.01116 0.25461 0.0
C452 C 0.05664 0.99306 0.24949 0.0
C453 C 0.06444 0.97031 0.2465 0.0
C454 C 0.08803 0.96562 0.24832 0.0
C455 C 0.10388 0.98368 0.2536 0.0
H456 H 0.05219 0.95631 0.2426 0.0
H457 H 0.20748 0.1296 0.30271 0.0
H458 H 0.49184 0.20443 0.07663 0.0
H459 H 0.50124 0.17368 0.15502 0.0
H460 H 0.43099 0.15011 0.1476 0.0
H461 H 0.42183 0.18005 0.06742 0.0
H462 H 0.45056 0.16322 0.28234 0.0
H463 H 0.4618 0.11401 0.09406 0.0
H464 H 0.4777 0.10342 0.98532 0.0
H465 H 0.54634 0.10845 0.06321 0.0
H466 H 0.5308 0.11932 0.17232 0.0
H467 H 0.45839 0.05363 0.45716 0.0
H468 H 0.45107 0.08195 0.37 0.0
H469 H 0.51929 0.10961 0.39754 0.0
H470 H 0.5262 0.08214 0.48706 0.0
H471 H 0.50111 0.09492 0.25414 0.0
H472 H 0.48908 0.1419 0.44627 0.0
H473 H 0.47248 0.15138 0.55466 0.0
H474 H 0.40461 0.15083 0.47077 0.0
H475 H 0.42077 0.14133 0.36191 0.0
C476 C 0.47877 0.19185 0.08863 0.0
C477 C 0.45619 0.19447 0.06455 0.0
C478 C 0.48401 0.17458 0.13467 0.0
C479 C 0.46669 0.15984 0.15825 0.0
C480 C 0.44459 0.16136 0.13072 0.0
C481 C 0.4395 0.1782 0.08375 0.0
C482 C 0.47128 0.14368 0.21384 0.0
C483 C 0.46145 0.14819 0.27602 0.0
C484 C 0.48572 0.12424 0.2062 0.0
C485 C 0.49517 0.11774 0.14098 0.0
C486 C 0.48029 0.11308 0.08776 0.0
C487 C 0.48923 0.10696 0.02615 0.0
C488 C 0.51302 0.10534 0.0173 0.0
C489 C 0.52792 0.10976 0.07012 0.0
C490 C 0.51906 0.11587 0.13187 0.0
C491 C 0.47169 0.06595 0.44503 0.0
C492 C 0.49279 0.06584 0.47915 0.0
C493 C 0.46753 0.08207 0.3952 0.0
C494 C 0.48464 0.0979 0.37715 0.0
C495 C 0.50582 0.09762 0.41075 0.0
C496 C 0.5097 0.08204 0.4621 0.0
C497 C 0.4805 0.1145 0.32262 0.0
C498 C 0.49035 0.11004 0.26064 0.0
C499 C 0.46603 0.13397 0.33062 0.0
C500 C 0.45614 0.14015 0.39594 0.0
C501 C 0.47058 0.14337 0.45102 0.0
C502 C 0.46125 0.14888 0.51262 0.0
C503 C 0.43748 0.15139 0.51985 0.0
C504 C 0.42302 0.14868 0.46526 0.0
C505 C 0.43227 0.14323 0.40349 0.0
H506 H 0.4303 0.15563 0.56761 0.0
H507 H 0.51992 0.1006 0.96956 0.0
H508 H 0.31581 0.4937 0.12635 0.0
H509 H 0.34737 0.50113 0.20329 0.0
H510 H 0.3814 0.43914 0.13684 0.0
H511 H 0.34906 0.43123 0.06187 0.0
H512 H 0.38271 0.44029 0.26594 0.0
H513 H 0.40208 0.49785 0.1018 0.0
H514 H 0.39239 0.53046 0.02953 0.0
H515 H 0.37188 0.57072 0.19802 0.0
H516 H 0.38139 0.53833 0.27118 0.0
H517 H 0.48359 0.46713 0.46849 0.0
H518 H 0.45526 0.45517 0.38449 0.0
H519 H 0.42172 0.52119 0.40383 0.0
H520 H 0.45215 0.53387 0.47401 0.0
H521 H 0.42231 0.51536 0.29015 0.0
H522 H 0.40271 0.46038 0.45795 0.0
H523 H 0.40889 0.42809 0.5341 0.0
H524 H 0.42434 0.38322 0.3708 0.0
H525 H 0.41904 0.41541 0.29376 0.0
C526 C 0.33061 0.48233 0.12549 0.0
C527 C 0.33032 0.46243 0.08547 0.0
C528 C 0.34864 0.4864 0.17045 0.0
C529 C 0.36726 0.47092 0.176 0.0
C530 C 0.36748 0.45151 0.13386 0.0
C531 C 0.34923 0.44728 0.08953 0.0
C532 C 0.38588 0.47455 0.22728 0.0
C533 C 0.3916 0.45664 0.27095 0.0
C534 C 0.39722 0.49595 0.23556 0.0
C535 C 0.39241 0.51569 0.19181 0.0
C536 C 0.39555 0.51369 0.12335 0.0
C537 C 0.39007 0.53212 0.08227 0.0
C538 C 0.38151 0.55264 0.10917 0.0
C539 C 0.37855 0.55483 0.17726 0.0
C540 C 0.38406 0.53648 0.21856 0.0
C541 C 0.46984 0.47888 0.45558 0.0
C542 C 0.4694 0.50127 0.48334 0.0
C543 C 0.45346 0.47196 0.40737 0.0
C544 C 0.43563 0.48699 0.38726 0.0
C545 C 0.43495 0.50891 0.41708 0.0
C546 C 0.45205 0.51611 0.46116 0.0
C547 C 0.41876 0.48142 0.33198 0.0
C548 C 0.41349 0.49894 0.28648 0.0
C549 C 0.40749 0.4598 0.32353 0.0
C550 C 0.41086 0.44047 0.37008 0.0
C551 C 0.40773 0.44372 0.43827 0.0
C552 C 0.41108 0.42541 0.48163 0.0
C553 C 0.41714 0.40365 0.45734 0.0
C554 C 0.41973 0.40011 0.3896 0.0
C555 C 0.41664 0.41841 0.34608 0.0
H556 H 0.41972 0.3895 0.49097 0.0
H557 H 0.37718 0.56685 0.07725 0.0
H558 H 0.06696 0.35106 0.02573 0.0
H559 H 0.0587 0.38337 0.1015 0.0
H560 H 0.03321 0.33499 0.24439 0.0
H561 H 0.03946 0.30381 0.16667 0.0
H562 H 0.01077 0.36638 0.26795 0.0
H563 H 0.09208 0.36802 0.23569 0.0
H564 H 0.13014 0.37228 0.18357 0.0
H565 H 0.11273 0.44099 0.12466 0.0
H566 H 0.0744 0.437 0.17535 0.0
H567 H 0.03599 0.44254 0.55353 0.0
H568 H 0.03782 0.4117 0.46967 0.0
H569 H 0.02187 0.46102 0.31909 0.0
H570 H 0.01803 0.49133 0.40369 0.0
H571 H 0.06473 0.43145 0.29959 0.0
H572 H 0.97862 0.41964 0.32238 0.0
H573 H 0.94235 0.40812 0.37618 0.0
H574 H 0.97741 0.35262 0.47276 0.0
H575 H 0.0137 0.36357 0.41825 0.0
C576 C 0.05838 0.3476 0.0719 0.0
C577 C 0.05291 0.32469 0.08854 0.0
C578 C 0.05436 0.36611 0.11672 0.0
C579 C 0.04565 0.36221 0.18089 0.0
C580 C 0.03955 0.33931 0.19592 0.0
C581 C 0.04277 0.32118 0.1506 0.0
C582 C 0.04239 0.38134 0.2326 0.0
C583 C 0.02316 0.38016 0.27475 0.0
C584 C 0.05781 0.40022 0.24307 0.0
C585 C 0.08017 0.40203 0.20831 0.0
C586 C 0.09619 0.38388 0.21058 0.0
C587 C 0.11786 0.38629 0.18152 0.0
C588 C 0.12381 0.40685 0.15055 0.0
C589 C 0.10806 0.42502 0.14834 0.0
C590 C 0.08634 0.42268 0.1771 0.0
C591 C 0.03144 0.44652 0.50326 0.0
C592 C 0.02533 0.46923 0.48645 0.0
C593 C 0.03302 0.42891 0.45476 0.0
C594 C 0.02979 0.43374 0.38733 0.0
C595 C 0.02414 0.45653 0.3704 0.0
C596 C 0.02177 0.4739 0.41909 0.0
C597 C 0.03374 0.41559 0.33436 0.0
C598 C 0.05288 0.41723 0.29213 0.0
C599 C 0.0191 0.39638 0.32569 0.0
C600 C 0.99877 0.39261 0.36726 0.0
C601 C 0.9786 0.40526 0.35606 0.0
C602 C 0.95799 0.39856 0.38563 0.0
C603 C 0.95754 0.37951 0.42738 0.0
C604 C 0.97775 0.36728 0.44018 0.0
C605 C 0.99831 0.37371 0.40998 0.0
H606 H 0.94158 0.37442 0.45045 0.0
H607 H 0.14065 0.40874 0.12853 0.0
H608 H 0.84542 0.9486 0.22124 0.0
H609 H 0.87737 0.95572 0.14451 0.0
H610 H 0.83584 1.0055 0.04252 0.0
H611 H 0.80429 0.99899 0.12034 0.0
H612 H 0.85693 0.96255 0.9655 0.0
H613 H 0.87511 0.02869 0.10738 0.0
H614 H 0.88475 0.04618 0.21515 0.0
H615 H 0.94414 1.00242 0.23027 0.0
H616 H 0.93467 0.9845 0.12279 0.0
H617 H 0.92855 1.00375 0.71142 0.0
H618 H 0.90143 0.99843 0.80086 0.0
H619 H 0.95731 0.98043 0.93075 0.0
H620 H 0.98474 0.98666 0.84146 0.0
H621 H 0.93015 1.005 0.99885 0.0
H622 H 0.91655 0.93953 0.86574 0.0
H623 H 0.90883 0.91648 0.76554 0.0
H624 H 0.84378 0.95059 0.74139 0.0
H625 H 0.85125 0.9741 0.84105 0.0
C626 C 0.84362 0.96207 0.185 0.0
C627 C 0.82253 0.97392 0.17899 0.0
C628 C 0.86176 0.9658 0.14014 0.0
C629 C 0.85908 0.98108 0.08715 0.0
C630 C 0.83846 0.99368 0.08286 0.0
C631 C 0.82056 0.99032 0.12842 0.0
C632 C 0.87696 0.98278 0.03377 0.0
C633 C 0.8728 0.97211 0.97242 0.0
C634 C 0.89824 0.99419 0.04341 0.0
C635 C 0.90405 1.00512 0.10748 0.0
C636 C 0.89011 0.02268 0.13397 0.0
C637 C 0.89557 0.0327 0.19489 0.0
C638 C 0.91501 0.02538 0.22961 0.0
C639 C 0.92908 0.00807 0.20334 0.0
C640 C 0.92369 0.998 0.14239 0.0
C641 C 0.93526 0.99864 0.75852 0.0
C642 C 0.95912 0.9957 0.76795 0.0
C643 C 0.91953 0.99537 0.81025 0.0
C644 C 0.92697 0.98863 0.87338 0.0
C645 C 0.95081 0.9856 0.88305 0.0
C646 C 0.96659 0.98905 0.83133 0.0
C647 C 0.90998 0.98527 0.92907 0.0
C648 C 0.91431 0.99545 0.99124 0.0
C649 C 0.88914 0.9727 0.92082 0.0
C650 C 0.88458 0.95876 0.86052 0.0
C651 C 0.90069 0.94227 0.83875 0.0
C652 C 0.89634 0.92909 0.78211 0.0
C653 C 0.87586 0.93212 0.747 0.0
C654 C 0.85966 0.9483 0.76857 0.0
C655 C 0.86393 0.96155 0.82518 0.0
H656 H 0.87252 0.92188 0.70319 0.0
H657 H 0.91921 0.03315 0.2768 0.0
H658 H 0.59914 0.84385 0.16914 0.0
H659 H 0.5913 0.87463 0.09194 0.0
H660 H 0.51926 0.85649 0.09164 0.0
H661 H 0.52764 0.82419 0.16527 0.0
H662 H 0.53234 0.85986 0.97237 0.0
H663 H 0.54766 0.90917 0.16227 0.0
H664 H 0.57175 0.92273 0.25452 0.0
H665 H 0.62462 0.94297 0.11936 0.0
H666 H 0.60148 0.92808 0.02639 0.0
H667 H 0.49612 0.94961 0.76223 0.0
H668 H 0.50306 0.92227 0.85043 0.0
H669 H 0.57312 0.94659 0.86766 0.0
H670 H 0.56532 0.97553 0.78326 0.0
H671 H 0.56128 0.94009 0.97938 0.0
H672 H 0.55246 0.88967 0.79407 0.0
H673 H 0.53435 0.87201 0.69588 0.0
H674 H 0.47614 0.85187 0.81198 0.0
H675 H 0.49373 0.86972 0.91064 0.0
C676 C 0.58144 0.84703 0.15487 0.0
C677 C 0.56399 0.83166 0.17409 0.0
C678 C 0.57693 0.86471 0.1102 0.0
C679 C 0.55458 0.86832 0.08563 0.0
C680 C 0.5367 0.85421 0.10942 0.0
C681 C 0.54136 0.83601 0.15289 0.0
C682 C 0.55027 0.88522 0.03102 0.0
C683 C 0.5383 0.87756 0.97459 0.0
C684 C 0.55918 0.90801 0.03138 0.0
C685 C 0.57281 0.91742 0.08736 0.0
C686 C 0.56446 0.91639 0.1522 0.0
C687 C 0.57798 0.92434 0.20467 0.0
C688 C 0.59957 0.93405 0.19289 0.0
C689 C 0.60785 0.93555 0.12849 0.0
C690 C 0.5946 0.92721 0.0759 0.0
C691 C 0.51307 0.94901 0.78459 0.0
C692 C 0.53021 0.96467 0.76555 0.0
C693 C 0.51715 0.93311 0.83487 0.0
C694 C 0.53886 0.93163 0.86559 0.0
C695 C 0.55615 0.94714 0.8455 0.0
C696 C 0.55177 0.96367 0.79683 0.0
C697 C 0.54319 0.91483 0.92058 0.0
C698 C 0.5552 0.92244 0.97699 0.0
C699 C 0.53508 0.89172 0.91918 0.0
C700 C 0.52432 0.88126 0.85963 0.0
C701 C 0.53571 0.88166 0.79854 0.0
C702 C 0.52555 0.87158 0.74281 0.0
C703 C 0.50409 0.86087 0.74766 0.0
C704 C 0.49274 0.8602 0.80826 0.0
C705 C 0.5028 0.87029 0.86409 0.0
H706 H 0.49627 0.85305 0.70449 0.0
H707 H 0.60993 0.94032 0.23367 0.0
H708 H 0.7173 0.56136 0.04842 0.0
H709 H 0.68583 0.55139 0.97773 0.0
H710 H 0.63943 0.55497 0.14262 0.0
H711 H 0.67203 0.56444 0.21668 0.0
H712 H 0.63019 0.51821 0.05267 0.0
H713 H 0.65056 0.59889 0.03569 0.0
H714 H 0.6793 0.62893 0.01302 0.0
H715 H 0.68296 0.607 0.81107 0.0
H716 H 0.65637 0.57508 0.83385 0.0
H717 H 0.53071 0.51193 0.86327 0.0
H718 H 0.56106 0.52257 0.93876 0.0
H719 H 0.60176 0.54756 0.77667 0.0
H720 H 0.56895 0.54072 0.70209 0.0
H721 H 0.61478 0.5708 0.8664 0.0
H722 H 0.61068 0.4894 0.87463 0.0
H723 H 0.59448 0.45028 0.88535 0.0
H724 H 0.56939 0.46742 0.0785 0.0
H725 H 0.58567 0.50653 0.06911 0.0
C726 C 0.70089 0.5592 0.0717 0.0
C727 C 0.69781 0.56336 0.13999 0.0
C728 C 0.6825 0.55388 0.02984 0.0
C729 C 0.65998 0.55305 0.05377 0.0
C730 C 0.65664 0.55581 0.12241 0.0
C731 C 0.67535 0.56099 0.16504 0.0
C732 C 0.64023 0.54967 1.00635 0.0
C733 C 0.62654 0.52998 0.01272 0.0
C734 C 0.63636 0.56418 0.95104 0.0
C735 C 0.65148 0.58429 0.93685 0.0
C736 C 0.65767 0.60018 0.9866 0.0
C737 C 0.67368 0.61753 0.97376 0.0
C738 C 0.6826 0.62015 0.91047 0.0
C739 C 0.67595 0.60504 0.86008 0.0
C740 C 0.66065 0.58707 0.87318 0.0
C741 C 0.54607 0.51973 0.84312 0.0
C742 C 0.54762 0.52436 0.77528 0.0
C743 C 0.56389 0.52543 0.88683 0.0
C744 C 0.58482 0.53465 0.86436 0.0
C745 C 0.58624 0.54 0.79647 0.0
C746 C 0.56761 0.53557 0.75301 0.0
C747 C 0.60454 0.53909 0.91234 0.0
C748 C 0.61824 0.559 0.90631 0.0
C749 C 0.6096 0.52404 0.96563 0.0
C750 C 0.59915 0.50088 0.9708 0.0
C751 C 0.60149 0.48485 0.91901 0.0
C752 C 0.59237 0.4627 0.92493 0.0
C753 C 0.58081 0.45644 0.98235 0.0
C754 C 0.57833 0.47231 0.03401 0.0
C755 C 0.58759 0.49443 0.02855 0.0
H756 H 0.57402 0.4392 0.98705 0.0
H757 H 0.69475 0.63382 0.90059 0.0
H758 H 0.96613 0.72291 0.03942 0.0
H759 H 0.97235 0.68891 0.97036 0.0
H760 H 0.97892 0.64718 0.14379 0.0
H761 H 0.97116 0.68141 0.21406 0.0
H762 H 0.01377 0.63978 0.03719 0.0
H763 H 0.93339 0.63882 0.06999 0.0
H764 H 0.89292 0.65145 0.07393 0.0
H765 H 0.89455 0.66596 0.8669 0.0
H766 H 0.93521 0.65383 0.86188 0.0
H767 H 0.01868 0.53913 0.82709 0.0
H768 H 0.0135 0.5681 0.91387 0.0
H769 H 0.97257 0.60902 0.78079 0.0
H770 H 0.97557 0.57851 0.69748 0.0
H771 H 0.953 0.61371 0.88208 0.0
H772 H 0.03717 0.62341 0.86014 0.0
H773 H 0.0787 0.61372 0.86504 0.0
H774 H 0.06918 0.58312 0.05473 0.0
H775 H 0.02779 0.5927 0.05095 0.0
C776 C 0.96909 0.70656 0.06332 0.0
C777 C 0.96798 0.70505 0.13274 0.0
C778 C 0.97246 0.68702 0.02344 0.0
C779 C 0.97558 0.66522 0.05131 0.0
C780 C 0.9762 0.66372 0.12079 0.0
C781 C 0.97213 0.68338 0.16113 0.0
C782 C 0.97875 0.64451 1.00686 0.0
C783 C 1.00036 0.63385 1.00384 0.0
C784 C 0.96147 0.63685 0.96224 0.0
C785 C 0.93752 0.64571 0.96581 0.0
C786 C 0.9253 0.64513 0.02555 0.0
C787 C 0.90226 0.65209 0.0279 0.0
C788 C 0.89119 0.65958 0.97076 0.0
C789 C 0.90317 0.66023 0.91118 0.0
C790 C 0.92622 0.65333 0.90857 0.0
C791 C 0.00904 0.55461 0.81605 0.0
C792 C 0.9984 0.55693 0.7541 0.0
C793 C 1.00617 0.57148 0.86592 0.0
C794 C 0.99307 0.59164 0.855 0.0
C795 C 0.98277 0.59394 0.79216 0.0
C796 C 0.98484 0.57661 0.74348 0.0
C797 C 0.98869 0.60954 0.90913 0.0
C798 C 0.96664 0.61964 0.91458 0.0
C799 C 1.00556 0.61674 0.95605 0.0
C800 C 0.02951 0.60842 0.95463 0.0
C801 C 0.04394 0.61411 0.90196 0.0
C802 C 0.06739 0.60881 0.90478 0.0
C803 C 0.07647 0.59787 0.96005 0.0
C804 C 0.06209 0.59161 0.01196 0.0
C805 C 0.03867 0.59699 0.00955 0.0
H806 H 0.09473 0.59481 0.9633 0.0
H807 H 0.87331 0.6648 0.97259 0.0
H808 H 0.08924 0.22597 0.06378 0.0
H809 H 0.07763 0.2004 0.14795 0.0
H810 H 0.08946 0.25257 0.29607 0.0
H811 H 0.10284 0.27908 0.21157 0.0
H812 H 0.09961 0.19518 0.31072 0.0
H813 H 0.03881 0.25569 0.28464 0.0
H814 H 0.01316 0.28129 0.22149 0.0
H815 H 0.99445 0.22501 0.09377 0.0
H816 H 0.01906 0.19881 0.15833 0.0
H817 H 0.0154 0.13809 0.51512 0.0
H818 H 0.04331 0.16401 0.46309 0.0
H819 H 0.0165 0.14508 0.27143 0.0
H820 H 0.98865 0.11932 0.32353 0.0
H821 H 0.01447 0.19067 0.29475 0.0
H822 H 0.06993 0.13083 0.30408 0.0
H823 H 0.09491 0.10048 0.34895 0.0
H824 H 0.12556 0.14926 0.4828 0.0
H825 H 0.10076 0.18004 0.43845 0.0
C826 C 0.09069 0.23242 0.11368 0.0
C827 C 0.09585 0.2557 0.12918 0.0
C828 C 0.08364 0.21743 0.16212 0.0
C829 C 0.08183 0.2251 0.22704 0.0
C830 C 0.0902 0.24681 0.24521 0.0
C831 C 0.09766 0.26195 0.19648 0.0
C832 C 0.06885 0.21083 0.27263 0.0
C833 C 0.08094 0.1946 0.30964 0.0
C834 C 0.04465 0.20944 0.26697 0.0
C835 C 0.03104 0.22543 0.22566 0.0
C836 C 0.02945 0.24886 0.2426 0.0
C837 C 0.01501 0.26345 0.20675 0.0
C838 C 1.00258 0.25492 0.15277 0.0
C839 C 1.00424 0.23166 0.13521 0.0
C840 C 0.01825 0.21689 0.17179 0.0
C841 C 0.01594 0.13926 0.46188 0.0
C842 C 1.00007 0.1272 0.42273 0.0
C843 C 0.03185 0.15384 0.43234 0.0
C844 C 0.03179 0.15639 0.3637 0.0
C845 C 0.01668 0.14327 0.32455 0.0
C846 C 1.00087 0.12868 0.35403 0.0
C847 C 0.04521 0.17485 0.33334 0.0
C848 C 0.03309 0.19167 0.29849 0.0
C849 C 0.06939 0.17624 0.33912 0.0
C850 C 0.08321 0.15761 0.36888 0.0
C851 C 0.08169 0.135 0.34394 0.0
C852 C 0.09588 0.11773 0.36909 0.0
C853 C 0.11164 0.12284 0.41919 0.0
C854 C 0.11326 0.14529 0.44423 0.0
C855 C 0.09917 0.16266 0.41906 0.0
H856 H 0.12272 0.10946 0.43823 0.0
H857 H 0.99149 0.26628 0.125 0.0
H858 H 0.26885 0.0496 0.1004 0.0
H859 H 0.29782 0.03909 0.17951 0.0
H860 H 0.30337 0.11011 0.2432 0.0
H861 H 0.27562 0.12126 0.15598 0.0
H862 H 0.34485 0.08895 0.23022 0.0
H863 H 0.27352 0.06803 0.3385 0.0
H864 H 0.23477 0.05061 0.33609 0.0
H865 H 0.26401 0.98502 0.28434 0.0
H866 H 0.30286 1.00197 0.28599 0.0
H867 H 0.40988 0.0243 0.48798 0.0
H868 H 0.38616 0.05283 0.42981 0.0
H869 H 0.36487 1.00027 0.29101 0.0
H870 H 0.38846 0.97195 0.34811 0.0
H871 H 0.3296 0.02112 0.37028 0.0
H872 H 0.39607 0.03809 0.24114 0.0
H873 H 0.43424 0.0524 0.20914 0.0
H874 H 0.4148 0.12097 0.26574 0.0
H875 H 0.37704 0.10689 0.30332 0.0
C876 C 0.2764 0.06307 0.13075 0.0
C877 C 0.27037 0.08624 0.12202 0.0
C878 C 0.29261 0.05699 0.17689 0.0
C879 C 0.302 0.07367 0.21911 0.0
C880 C 0.29588 0.09698 0.21158 0.0
C881 C 0.28009 0.10332 0.16251 0.0
C882 C 0.31904 0.0661 0.26812 0.0
C883 C 0.34152 0.0747 0.26309 0.0
C884 C 0.31451 0.04691 0.30872 0.0
C885 C 0.2912 0.03631 0.31305 0.0
C886 C 0.27171 0.04986 0.32716 0.0
C887 C 0.24971 0.04008 0.32561 0.0
C888 C 0.24694 0.01674 0.31012 0.0
C889 C 0.26618 1.00307 0.29666 0.0
C890 C 0.28822 0.01273 0.29827 0.0
C891 C 0.40054 0.01908 0.44407 0.0
C892 C 0.40047 0.99591 0.4231 0.0
C893 C 0.38714 0.03534 0.41096 0.0
C894 C 0.37378 0.02848 0.35671 0.0
C895 C 0.37507 1.00575 0.33311 0.0
C896 C 0.38833 0.98959 0.36598 0.0
C897 C 0.35561 0.04345 0.33051 0.0
C898 C 0.33289 0.03617 0.34033 0.0
C899 C 0.36013 0.06326 0.2926 0.0
C900 C 0.38382 0.07123 0.27707 0.0
C901 C 0.40017 0.05605 0.24962 0.0
C902 C 0.42178 0.06416 0.23032 0.0
C903 C 0.42708 0.08753 0.23661 0.0
C904 C 0.41087 0.10281 0.26273 0.0
C905 C 0.38943 0.09473 0.28347 0.0
H906 H 0.44361 0.09384 0.22039 0.0
H907 H 0.22988 0.00927 0.30845 0.0
H908 H 0.45357 0.2482 0.19573 0.0
H909 H 0.4607 0.2784 0.27435 0.0
H910 H 0.40677 0.31947 0.18728 0.0
H911 H 0.40038 0.28918 0.10427 0.0
H912 H 0.44672 0.33956 0.17907 0.0
H913 H 0.40798 0.30139 0.36038 0.0
H914 H 0.39997 0.26645 0.42473 0.0
H915 H 0.47145 0.26126 0.47674 0.0
H916 H 0.47996 0.29597 0.41214 0.0
H917 H 0.48998 0.43369 0.35116 0.0
H918 H 0.46233 0.40319 0.32535 0.0
H919 H 0.51245 0.35186 0.38016 0.0
H920 H 0.54047 0.38252 0.40391 0.0
H921 H 0.4681 0.33944 0.41596 0.0
H922 H 0.51018 0.3649 0.23017 0.0
H923 H 0.52671 0.39297 0.15307 0.0
H924 H 0.45878 0.41458 0.09714 0.0
H925 H 0.44182 0.38693 0.1751 0.0
C926 C 0.44224 0.26303 0.1952 0.0
C927 C 0.42646 0.26643 0.14361 0.0
C928 C 0.44632 0.2804 0.24084 0.0
C929 C 0.4341 0.30116 0.23734 0.0
C930 C 0.4163 0.30348 0.19085 0.0
C931 C 0.41258 0.28621 0.14376 0.0
C932 C 0.44353 0.32161 0.27138 0.0
C933 C 0.4505 0.33996 0.23147 0.0
C934 C 0.44998 0.32125 0.33873 0.0
C935 C 0.44455 0.30141 0.38172 0.0
C936 C 0.42196 0.29288 0.38589 0.0
C937 C 0.41735 0.27307 0.42224 0.0
C938 C 0.43518 0.26168 0.45492 0.0
C939 C 0.45764 0.27016 0.45168 0.0
C940 C 0.46234 0.28997 0.41544 0.0
C941 C 0.49469 0.4159 0.35958 0.0
C942 C 0.51702 0.41011 0.3792 0.0
C943 C 0.47893 0.39858 0.3454 0.0
C944 C 0.48533 0.37542 0.35164 0.0
C945 C 0.50721 0.36971 0.37585 0.0
C946 C 0.52315 0.38706 0.38893 0.0
C947 C 0.47055 0.35734 0.3238 0.0
C948 C 0.46314 0.33945 0.36438 0.0
C949 C 0.46462 0.35741 0.25627 0.0
C950 C 0.47472 0.37411 0.20931 0.0
C951 C 0.49875 0.37583 0.20204 0.0
C952 C 0.50821 0.39162 0.15809 0.0
C953 C 0.49379 0.40563 0.12049 0.0
C954 C 0.46991 0.40378 0.12654 0.0
C955 C 0.46036 0.38807 0.17065 0.0
H956 H 0.50113 0.41789 0.08663 0.0
H957 H 0.43159 0.24626 0.48266 0.0
H958 H 0.23638 0.40427 0.10694 0.0
H959 H 0.20374 0.41128 0.17982 0.0
H960 H 0.24606 0.45461 0.30371 0.0
H961 H 0.27813 0.44932 0.22913 0.0
H962 H 0.20458 0.42959 0.36551 0.0
H963 H 0.23022 0.48283 0.20076 0.0
H964 H 0.24219 0.49787 0.09303 0.0
H965 H 0.179 0.47409 1.00625 0.0
H966 H 0.16698 0.45807 0.11315 0.0
H967 H 0.12646 0.52406 0.44007 0.0
H968 H 0.15802 0.49654 0.4224 0.0
H969 H 0.1199 0.46519 0.26216 0.0
H970 H 0.08885 0.4931 0.27847 0.0
H971 H 0.1603 0.48332 0.2247 0.0
H972 H 0.13335 0.43572 0.40344 0.0
H973 H 0.12258 0.42659 0.5177 0.0
H974 H 0.18988 0.44652 0.58492 0.0
H975 H 0.20095 0.45618 0.47119 0.0
C976 C 0.23902 0.41453 0.15116 0.0
C977 C 0.2594 0.42724 0.16027 0.0
C978 C 0.2204 0.41839 0.19282 0.0
C979 C 0.22257 0.43402 0.24537 0.0
C980 C 0.24421 0.44269 0.26265 0.0
C981 C 0.26263 0.43947 0.21985 0.0
C982 C 0.20201 0.4456 0.27067 0.0
C983 C 0.19477 0.44135 0.3351 0.0
C984 C 0.18974 0.4612 0.23061 0.0
C985 C 0.19797 0.46866 0.16478 0.0
C986 C 0.21919 0.48009 0.15837 0.0
C987 C 0.22591 0.48897 0.09754 0.0
C988 C 0.21134 0.48692 0.04297 0.0
C989 C 0.19027 0.47556 0.04863 0.0
C990 C 0.18356 0.46647 0.10924 0.0
C991 C 0.12471 0.51084 0.40236 0.0
C992 C 0.10568 0.51069 0.35971 0.0
C993 C 0.14257 0.49508 0.39266 0.0
C994 C 0.1412 0.47891 0.34099 0.0
C995 C 0.1212 0.47759 0.30224 0.0
C996 C 0.1036 0.49351 0.31125 0.0
C997 C 0.16191 0.46651 0.31894 0.0
C998 C 0.16962 0.47111 0.25501 0.0
C999 C 0.17484 0.45184 0.36021 0.0
C1000 C 0.1679 0.44685 0.42883 0.0
C1001 C 0.14575 0.43846 0.44267 0.0
C1002 C 0.13962 0.43312 0.50733 0.0
C1003 C 0.15554 0.43596 0.5585 0.0
C1004 C 0.17758 0.44432 0.54524 0.0
C1005 C 0.18378 0.44973 0.48069 0.0
H1006 H 0.15081 0.43154 0.60831 0.0
H1007 H 0.2162 0.49448 0.99662 0.0
H1008 H 0.90305 0.79619 0.16778 0.0
H1009 H 0.91417 0.82836 0.09846 0.0
H1010 H 0.94293 0.78105 0.95638 0.0
H1011 H 0.93275 0.74915 0.02482 0.0
H1012 H 0.97593 0.8054 0.035 0.0
H1013 H 0.90695 0.82028 0.90622 0.0
H1014 H 0.86524 0.82776 0.89918 0.0
H1015 H 0.87361 0.88963 0.01434 0.0
H1016 H 0.91537 0.88232 0.02281 0.0
H1017 H 0.0433 0.87116 0.83066 0.0
H1018 H 0.01302 0.84614 0.8722 0.0
H1019 H 0.98258 0.90384 0.97578 0.0
H1020 H 0.01208 0.92931 0.92998 0.0
H1021 H 0.94969 0.87735 0.92812 0.0
H1022 H 0.01742 0.86486 0.05544 0.0
H1023 H 0.05897 0.85802 0.0712 0.0
H1024 H 0.05304 0.79237 0.97365 0.0
H1025 H 0.01153 0.79897 0.9562 0.0
C1026 C 0.91097 0.7925 0.12058 0.0
C1027 C 0.91949 0.77029 0.10587 0.0
C1028 C 0.91729 0.81101 0.08098 0.0
C1029 C 0.93069 0.80699 0.02473 0.0
C1030 C 0.93337 0.78444 1.00123 0.0
C1031 C 0.92731 0.76607 0.04105 0.0
C1032 C 0.94661 0.82483 1.00104 0.0
C1033 C 0.97023 0.82096 0.01057 0.0
C1034 C 0.93902 0.84566 0.97333 0.0
C1035 C 0.91421 0.85071 0.96537 0.0
C1036 C 0.89987 0.83546 0.93011 0.0
C1037 C 0.87623 0.83966 0.92591 0.0
C1038 C 0.86677 0.85915 0.95637 0.0
C1039 C 0.88096 0.87455 0.99074 0.0
C1040 C 0.90463 0.87042 0.99514 0.0
C1041 C 0.03014 0.87845 0.86227 0.0
C1042 C 0.03005 0.902 0.87762 0.0
C1043 C 0.01287 0.86421 0.88601 0.0
C1044 C 0.99585 0.87306 0.92825 0.0
C1045 C 0.99559 0.89667 0.94336 0.0
C1046 C 0.01251 0.91111 0.91779 0.0
C1047 C 0.9791 0.85728 0.95864 0.0
C1048 C 0.95541 0.86172 0.9521 0.0
C1049 C 0.98658 0.83706 0.9907 0.0
C1050 C 0.01134 0.83246 1.00428 0.0
C1051 C 0.02497 0.84896 0.03733 0.0
C1052 C 0.04853 0.84515 0.04644 0.0
C1053 C 0.05864 0.82478 0.02338 0.0
C1054 C 0.04518 0.80813 0.99151 0.0
C1055 C 0.02162 0.81188 0.98208 0.0
H1056 H 0.0769 0.8219 0.03025 0.0
H1057 H 0.84844 0.86231 0.95331 0.0
H1058 H 0.7301 0.91222 0.15196 0.0
H1059 H 0.69954 0.92044 0.07217 0.0
H1060 H 0.74561 0.96466 0.96565 0.0
H1061 H 0.77566 0.95749 0.04467 0.0
H1062 H 0.70475 0.98484 0.04564 0.0
H1063 H 0.72896 0.9309 0.87292 0.0
H1064 H 0.7396 0.89142 0.83885 0.0
H1065 H 0.67314 0.86696 0.89871 0.0
H1066 H 0.66222 0.90636 0.9336 0.0
H1067 H 0.65587 0.04169 0.78234 0.0
H1068 H 0.68013 0.01266 0.834 0.0
H1069 H 0.62014 0.97983 0.9152 0.0
H1070 H 0.59575 0.00969 0.86825 0.0
H1071 H 0.66261 0.94984 0.85695 0.0
H1072 H 0.63734 1.0064 0.01919 0.0
H1073 H 0.62896 0.04564 0.06 0.0
H1074 H 0.69904 0.06546 0.02491 0.0
H1075 H 0.70774 0.02639 0.98282 0.0
C1076 C 0.73401 0.9229 0.10995 0.0
C1077 C 0.75505 0.93487 0.10645 0.0
C1078 C 0.71657 0.92752 0.06453 0.0
C1079 C 0.72044 0.94354 0.01465 0.0
C1080 C 0.74247 0.95237 1.00455 0.0
C1081 C 0.75977 0.94795 0.04984 0.0
C1082 C 0.70106 0.95499 0.98254 0.0
C1083 C 0.69546 0.97724 1.00437 0.0
C1084 C 0.68887 0.94472 0.93013 0.0
C1085 C 0.69483 0.92143 0.90596 0.0
C1086 C 0.71664 0.91707 0.87873 0.0
C1087 C 0.72272 0.89474 0.85933 0.0
C1088 C 0.70706 0.87668 0.86667 0.0
C1089 C 0.68523 0.88097 0.89299 0.0
C1090 C 0.67906 0.90329 0.91243 0.0
C1091 C 0.64778 0.02831 0.81103 0.0
C1092 C 0.62393 0.02831 0.82215 0.0
C1093 C 0.66161 0.01161 0.83965 0.0
C1094 C 0.65174 0.99429 0.87793 0.0
C1095 C 0.62787 0.99302 0.88491 0.0
C1096 C 0.61402 0.0101 0.85783 0.0
C1097 C 0.66675 0.97999 0.91854 0.0
C1098 C 0.67153 0.95731 0.89876 0.0
C1099 C 0.67833 0.98991 0.97297 0.0
C1100 C 0.6731 0.01357 0.99695 0.0
C1101 C 0.65087 0.01923 0.01916 0.0
C1102 C 0.64609 0.04141 0.04282 0.0
C1103 C 0.66344 0.05806 0.04482 0.0
C1104 C 0.68561 0.05255 0.02319 0.0
C1105 C 0.69047 0.03039 0.99943 0.0
H1106 H 0.65972 0.0752 0.06332 0.0
H1107 H 0.71184 0.85937 0.85195 0.0
H1108 H 0.61421 0.73224 0.15579 0.0
H1109 H 0.60515 0.70147 0.07995 0.0
H1110 H 0.57397 0.75005 0.94669 0.0
H1111 H 0.57975 0.78035 0.02697 0.0
H1112 H 0.54315 0.72304 0.98954 0.0
H1113 H 0.61979 0.70618 0.89751 0.0
H1114 H 0.66145 0.70251 0.91966 0.0
H1115 H 0.64781 0.64951 0.06079 0.0
H1116 H 0.6064 0.65206 0.03695 0.0
H1117 H 0.48637 0.62911 0.83654 0.0
H1118 H 0.51086 0.6627 0.85441 0.0
H1119 H 0.55031 0.6252 0.99883 0.0
H1120 H 0.52525 0.59173 0.98215 0.0
H1121 H 0.57852 0.64821 0.92795 0.0
H1122 H 0.50748 0.66494 0.03903 0.0
H1123 H 0.46567 0.67084 0.0519 0.0
H1124 H 0.46752 0.72542 0.91058 0.0
H1125 H 0.50929 0.71958 0.89599 0.0
C1126 C 0.60596 0.73653 0.10956 0.0
C1127 C 0.59629 0.75841 0.09988 0.0
C1128 C 0.60116 0.71883 0.0651 0.0
C1129 C 0.5883 0.72327 1.00785 0.0
C1130 C 0.58344 0.74615 0.99132 0.0
C1131 C 0.58709 0.76364 0.03744 0.0
C1132 C 0.57505 0.70447 0.97594 0.0
C1133 C 0.551 0.70697 0.97357 0.0
C1134 C 0.58506 0.6831 0.95882 0.0
C1135 C 0.6101 0.67917 0.96496 0.0
C1136 C 0.62582 0.69335 0.93194 0.0
C1137 C 0.64939 0.69143 0.94474 0.0
C1138 C 0.65735 0.67562 0.99107 0.0
C1139 C 0.64177 0.66142 0.02386 0.0
C1140 C 0.61829 0.66283 0.00999 0.0
C1141 C 0.50054 0.62807 0.87124 0.0
C1142 C 0.50415 0.60814 0.90817 0.0
C1143 C 0.51459 0.64717 0.88116 0.0
C1144 C 0.53262 0.6464 0.92726 0.0
C1145 C 0.53662 0.6261 0.9626 0.0
C1146 C 0.52233 0.60711 0.95342 0.0
C1147 C 0.54675 0.66696 0.94117 0.0
C1148 C 0.57081 0.66467 0.94076 0.0
C1149 C 0.53668 0.68839 0.95795 0.0
C1150 C 0.51145 0.69157 0.96561 0.0
C1151 C 0.49892 0.67801 0.01008 0.0
C1152 C 0.47524 0.68138 0.01781 0.0
C1153 C 0.46393 0.69843 0.98187 0.0
C1154 C 0.47628 0.71216 0.93818 0.0
C1155 C 0.49996 0.70881 0.93011 0.0
H1156 H 0.44561 0.70105 0.98805 0.0
H1157 H 0.67556 0.67446 1.00184 0.0
H1158 H 0.7502 0.5642 0.08832 0.0
H1159 H 0.77901 0.55213 0.0132 0.0
H1160 H 0.82088 0.61013 0.07202 0.0
H1161 H 0.78848 0.62551 0.13771 0.0
H1162 H 0.82531 0.59822 0.94165 0.0
H1163 H 0.83079 0.54561 0.15005 0.0
H1164 H 0.81273 0.51717 0.22448 0.0
H1165 H 0.78192 0.48259 0.05966 0.0
H1166 H 0.8005 0.50987 0.98395 0.0
H1167 H 0.9327 0.54375 0.88632 0.0
H1168 H 0.89757 0.56626 0.90444 0.0
H1169 H 0.85666 0.50525 0.8689 0.0
H1170 H 0.89184 0.4827 0.85327 0.0
H1171 H 0.85144 0.5186 0.98707 0.0
H1172 H 0.84292 0.55274 0.78664 0.0
H1173 H 0.84695 0.57342 0.68187 0.0
H1174 H 0.86661 0.63484 0.78715 0.0
H1175 H 0.86303 0.61444 0.89275 0.0
C1176 C 0.764 0.57601 0.07979 0.0
C1177 C 0.76571 0.59706 0.11429 0.0
C1178 C 0.78151 0.56807 0.04029 0.0
C1179 C 0.80251 0.57951 0.03991 0.0
C1180 C 0.80472 0.60084 0.07285 0.0
C1181 C 0.78625 0.60971 0.10968 0.0
C1182 C 0.82181 0.56883 1.00449 0.0
C1183 C 0.83161 0.58107 0.95253 0.0
C1184 C 0.82836 0.54561 0.01508 0.0
C1185 C 0.8166 0.53006 0.06167 0.0
C1186 C 0.82002 0.53205 0.12987 0.0
C1187 C 0.80985 0.51607 0.17214 0.0
C1188 C 0.79592 0.49848 0.14706 0.0
C1189 C 0.79253 0.49637 0.07924 0.0
C1190 C 0.80304 0.5119 0.03659 0.0
C1191 C 0.91609 0.53549 0.88017 0.0
C1192 C 0.91457 0.51166 0.8701 0.0
C1193 C 0.89609 0.54833 0.88978 0.0
C1194 C 0.87462 0.53727 0.88904 0.0
C1195 C 0.87315 0.51397 0.87026 0.0
C1196 C 0.89312 0.50112 0.86161 0.0
C1197 C 0.85518 0.54805 0.92381 0.0
C1198 C 0.84561 0.53595 0.97638 0.0
C1199 C 0.84751 0.57054 0.91015 0.0
C1200 C 0.85301 0.582 0.84747 0.0
C1201 C 0.84871 0.57048 0.78741 0.0
C1202 C 0.85072 0.58219 0.72796 0.0
C1203 C 0.85697 0.60539 0.72816 0.0
C1204 C 0.86177 0.61684 0.78739 0.0
C1205 C 0.85979 0.60522 0.84702 0.0
H1206 H 0.8578 0.61461 0.68258 0.0
H1207 H 0.7879 0.48637 0.18015 0.0
H1208 H 0.09797 0.24704 0.8906 0.0
H1209 H 0.09013 0.20985 0.84893 0.0
H1210 H 0.01713 0.22194 0.87369 0.0
H1211 H 0.02633 0.25654 0.93778 0.0
H1212 H 0.01526 0.18423 0.87606 0.0
H1213 H 0.07137 0.21114 0.6968 0.0
H1214 H 0.10991 0.22481 0.66328 0.0
H1215 H 0.14169 0.17119 0.77621 0.0
H1216 H 0.10342 0.15723 0.81006 0.0
H1217 H 0.98013 0.09075 0.6797 0.0
H1218 H 0.99206 0.12829 0.71816 0.0
H1219 H 0.06193 0.10405 0.73646 0.0
H1220 H 0.05043 0.06748 0.68356 0.0
H1221 H 0.06665 0.14441 0.71791 0.0
H1222 H 0.01272 0.1137 0.87783 0.0
H1223 H 0.97527 0.09711 0.90966 0.0
H1224 H 0.94034 0.15653 0.83393 0.0
H1225 H 0.97753 0.17339 0.80138 0.0
C1226 C 0.08012 0.24171 0.88919 0.0
C1227 C 0.06309 0.25495 0.9217 0.0
C1228 C 0.07532 0.22008 0.86089 0.0
C1229 C 0.05264 0.21168 0.85329 0.0
C1230 C 0.03508 0.22651 0.87876 0.0
C1231 C 0.04022 0.24721 0.91407 0.0
C1232 C 0.04719 0.18766 0.82245 0.0
C1233 C 0.02652 0.17636 0.83994 0.0
C1234 C 0.06187 0.17501 0.77791 0.0
C1235 C 0.08462 0.18331 0.75619 0.0
C1236 C 0.0866 0.20229 0.71419 0.0
C1237 C 0.10839 0.21008 0.69525 0.0
C1238 C 0.12822 0.19891 0.71772 0.0
C1239 C 0.12634 0.17983 0.75883 0.0
C1240 C 0.10464 0.17193 0.77773 0.0
C1241 C 0.99813 0.09315 0.69184 0.0
C1242 C 0.014 0.075 0.68226 0.0
C1243 C 1.00495 0.1149 0.71577 0.0
C1244 C 0.02773 0.11928 0.73639 0.0
C1245 C 0.04399 0.1015 0.72385 0.0
C1246 C 0.03733 0.08007 0.6951 0.0
C1247 C 0.03436 0.14239 0.76875 0.0
C1248 C 0.0553 0.15306 0.75254 0.0
C1249 C 0.02 0.15446 0.81431 0.0
C1250 C 0.99787 0.14477 0.83716 0.0
C1251 C 0.99705 0.12325 0.86834 0.0
C1252 C 0.97586 0.11378 0.88631 0.0
C1253 C 0.95544 0.12575 0.87381 0.0
C1254 C 0.95616 0.14729 0.84371 0.0
C1255 C 0.97727 0.15684 0.82568 0.0
H1256 H 0.93906 0.11834 0.88745 0.0
H1257 H 0.14505 0.20503 0.7032 0.0
H1258 H 0.29016 0.03912 1.00496 0.0
H1259 H 0.32627 0.03292 0.94582 0.0
H1260 H 0.29743 0.06523 0.77425 0.0
H1261 H 0.26142 0.07273 0.83516 0.0
H1262 H 0.32688 0.01928 0.75879 0.0
H1263 H 0.32761 0.09723 0.83417 0.0
H1264 H 0.3234 0.1293 0.91354 0.0
H1265 H 0.37697 0.10066 0.03384 0.0
H1266 H 0.38117 0.0681 0.95572 0.0
H1267 H 0.43782 0.05324 0.6043 0.0
H1268 H 0.40052 0.06034 0.65799 0.0
H1269 H 0.41711 0.01001 0.80534 0.0
H1270 H 0.45381 1.0019 0.7493 0.0
H1271 H 0.39349 0.06721 0.82861 0.0
H1272 H 0.38628 0.98527 0.75672 0.0
H1273 H 0.38713 0.95334 0.67584 0.0
H1274 H 0.34465 0.99236 0.54407 0.0
H1275 H 0.34399 0.02475 0.62377 0.0
C1276 C 0.29108 0.04418 0.95385 0.0
C1277 C 0.27245 0.0559 0.92446 0.0
C1278 C 0.31199 0.04093 0.92031 0.0
C1279 C 0.31483 0.04881 0.85565 0.0
C1280 C 0.29576 0.05902 0.82418 0.0
C1281 C 0.27497 0.06292 0.8586 0.0
C1282 C 0.33793 0.04691 0.82252 0.0
C1283 C 0.34133 0.02994 0.77385 0.0
C1284 C 0.35705 0.06066 0.84194 0.0
C1285 C 0.35438 0.07997 0.8897 0.0
C1286 C 0.33822 0.09753 0.87811 0.0
C1287 C 0.3359 0.11586 0.92273 0.0
C1288 C 0.34982 0.11695 0.9789 0.0
C1289 C 0.36613 0.09973 0.99044 0.0
C1290 C 0.36848 0.08133 0.94601 0.0
C1291 C 0.43364 0.04392 0.64872 0.0
C1292 C 0.44928 0.02768 0.67408 0.0
C1293 C 0.41227 0.04797 0.67935 0.0
C1294 C 0.40587 0.0358 0.73603 0.0
C1295 C 0.42154 0.01968 0.76179 0.0
C1296 C 0.44274 0.0153 0.73034 0.0
C1297 C 0.38246 0.03917 0.76618 0.0
C1298 C 0.37902 0.05653 0.81391 0.0
C1299 C 0.36321 0.02593 0.74576 0.0
C1300 C 0.36536 0.00748 0.69566 0.0
C1301 C 0.3776 0.98725 0.70985 0.0
C1302 C 0.37791 0.96902 0.66447 0.0
C1303 C 0.36575 0.97076 0.60527 0.0
C1304 C 0.35392 0.99101 0.5902 0.0
C1305 C 0.35363 0.00932 0.63534 0.0
H1306 H 0.36519 0.95628 0.57153 0.0
H1307 H 0.34804 0.13119 0.01331 0.0
H1308 H 0.42077 0.27535 0.89126 0.0
H1309 H 0.42981 0.30989 0.82971 0.0
H1310 H 0.50187 0.30083 0.87464 0.0
H1311 H 0.49239 0.26678 0.94052 0.0
H1312 H 0.49257 0.34239 0.89772 0.0
H1313 H 0.47349 0.29606 0.70554 0.0
H1314 H 0.44968 0.27072 0.63477 0.0
H1315 H 0.39515 0.32068 0.63772 0.0
H1316 H 0.41855 0.34623 0.70873 0.0
H1317 H 0.52908 0.43346 0.68394 0.0
H1318 H 0.5215 0.39556 0.73137 0.0
H1319 H 0.44883 0.41036 0.73368 0.0
H1320 H 0.45631 0.44841 0.6871 0.0
H1321 H 0.45885 0.36621 0.68429 0.0
H1322 H 0.47517 0.41156 0.87392 0.0
H1323 H 0.49612 0.43783 0.94887 0.0
H1324 H 0.5531 0.39076 0.95459 0.0
H1325 H 0.5326 0.36428 0.87885 0.0
C1326 C 0.43868 0.28015 0.88578 0.0
C1327 C 0.45588 0.26793 0.91994 0.0
C1328 C 0.44391 0.3001 0.85032 0.0
C1329 C 0.46667 0.30824 0.84598 0.0
C1330 C 0.48414 0.29514 0.87664 0.0
C1331 C 0.47881 0.2753 0.91335 0.0
C1332 C 0.47183 0.3313 0.81512 0.0
C1333 C 0.48564 0.34722 0.85013 0.0
C1334 C 0.46196 0.33854 0.75445 0.0
C1335 C 0.44773 0.32298 0.71278 0.0
C1336 C 0.45636 0.30155 0.69147 0.0
C1337 C 0.44295 0.28718 0.6512 0.0
C1338 C 0.42091 0.29407 0.63184 0.0
C1339 C 0.41222 0.31536 0.65271 0.0
C1340 C 0.42556 0.32981 0.69285 0.0
C1341 C 0.51146 0.42876 0.69455 0.0
C1342 C 0.49336 0.44439 0.68266 0.0
C1343 C 0.50715 0.40701 0.72204 0.0
C1344 C 0.48459 0.40004 0.73709 0.0
C1345 C 0.46642 0.41528 0.72317 0.0
C1346 C 0.47076 0.43719 0.69686 0.0
C1347 C 0.47997 0.37676 0.76615 0.0
C1348 C 0.4661 0.36104 0.7312 0.0
C1349 C 0.48959 0.36976 0.82701 0.0
C1350 C 0.50248 0.38608 0.86993 0.0
C1351 C 0.49233 0.40697 0.89024 0.0
C1352 C 0.50407 0.42185 0.93306 0.0
C1353 C 0.52593 0.41599 0.95628 0.0
C1354 C 0.53617 0.39529 0.93642 0.0
C1355 C 0.5245 0.38033 0.89354 0.0
H1356 H 0.53478 0.42741 0.9902 0.0
H1357 H 0.41059 0.28294 0.60057 0.0
H1358 H 0.24632 0.42143 0.925 0.0
H1359 H 0.21198 0.4296 0.86252 0.0
H1360 H 0.2302 0.50166 0.85901 0.0
H1361 H 0.26337 0.49364 0.93088 0.0
H1362 H 0.18931 0.5013 0.88449 0.0
H1363 H 0.22613 0.456 0.71053 0.0
H1364 H 0.24509 0.4219 0.66135 0.0
H1365 H 0.1881 0.3795 0.71857 0.0
H1366 H 0.16888 0.41329 0.76826 0.0
H1367 H 0.09641 0.5305 0.66903 0.0
H1368 H 0.13419 0.52211 0.71653 0.0
H1369 H 0.11234 0.45285 0.75814 0.0
H1370 H 0.07474 0.46103 0.7093 0.0
H1371 H 0.15454 0.45182 0.71104 0.0
H1372 H 0.11826 0.49389 0.88314 0.0
H1373 H 0.09848 0.52552 0.94196 0.0
H1374 H 0.15331 0.57181 0.8927 0.0
H1375 H 0.1733 0.54053 0.8328 0.0
C1376 C 0.2434 0.43904 0.90979 0.0
C1377 C 0.25769 0.45687 0.93413 0.0
C1378 C 0.22359 0.44373 0.87274 0.0
C1379 C 0.21802 0.46633 0.85405 0.0
C1380 C 0.23367 0.48399 0.87248 0.0
C1381 C 0.25308 0.47939 0.91268 0.0
C1382 C 0.19499 0.47171 0.82174 0.0
C1383 C 0.18224 0.49076 0.84499 0.0
C1384 C 0.18446 0.45744 0.77266 0.0
C1385 C 0.19618 0.43714 0.74343 0.0
C1386 C 0.21774 0.43937 0.71293 0.0
C1387 C 0.22849 0.42011 0.68486 0.0
C1388 C 0.21783 0.39855 0.68693 0.0
C1389 C 0.19635 0.3962 0.71695 0.0
C1390 C 0.1855 0.4154 0.74491 0.0
C1391 C 0.09952 0.51346 0.68837 0.0
C1392 C 0.08198 0.49666 0.68661 0.0
C1393 C 0.12124 0.50871 0.7161 0.0
C1394 C 0.12628 0.48692 0.74249 0.0
C1395 C 0.10904 0.4699 0.73907 0.0
C1396 C 0.08725 0.47472 0.71174 0.0
C1397 C 0.14962 0.48177 0.77199 0.0
C1398 C 0.16213 0.46263 0.74905 0.0
C1399 C 0.15989 0.49581 0.8214 0.0
C1400 C 0.14717 0.51496 0.85314 0.0
C1401 C 0.12592 0.51091 0.88395 0.0
C1402 C 0.11472 0.52872 0.91766 0.0
C1403 C 0.12471 0.55056 0.92116 0.0
C1404 C 0.14566 0.55483 0.88996 0.0
C1405 C 0.15692 0.53708 0.85615 0.0
H1406 H 0.11639 0.56407 0.94886 0.0
H1407 H 0.2262 0.38366 0.6652 0.0
H1408 H 0.94063 0.77299 0.36221 0.0
H1409 H 0.94853 0.80921 0.42106 0.0
H1410 H 0.00768 0.8204 0.29811 0.0
H1411 H 0.99931 0.78439 0.23731 0.0
H1412 H 0.99761 0.82684 0.48084 0.0
H1413 H 0.98676 0.85164 0.24252 0.0
H1414 H 0.96312 0.85259 0.14135 0.0
H1415 H 0.90461 0.87477 0.25432 0.0
H1416 H 0.92776 0.87332 0.3563 0.0
H1417 H 0.04126 0.94121 0.52027 0.0
H1418 H 0.0301 0.90383 0.4749 0.0
H1419 H 0.95904 0.91859 0.51786 0.0
H1420 H 0.97051 0.95566 0.56935 0.0
H1421 H 0.97012 0.89923 0.37899 0.0
H1422 H 0.97454 0.88195 0.60218 0.0
H1423 H 0.98711 0.87735 0.71737 0.0
H1424 H 0.0459 0.83849 0.65273 0.0
H1425 H 0.03399 0.84329 0.53695 0.0
C1426 C 0.95587 0.78269 0.34923 0.0
C1427 C 0.9696 0.77531 0.29564 0.0
C1428 C 0.96011 0.80371 0.38224 0.0
C1429 C 0.9783 0.8181 0.36305 0.0
C1430 C 0.99317 0.80999 0.31307 0.0
C1431 C 0.98875 0.78901 0.27931 0.0
C1432 C 0.9816 0.84141 0.39546 0.0
C1433 C 0.9921 0.84271 0.45777 0.0
C1434 C 0.97283 0.86212 0.36825 0.0
C1435 C 0.95889 0.86197 0.30711 0.0
C1436 C 0.96875 0.85621 0.24597 0.0
C1437 C 0.95546 0.85696 0.18842 0.0
C1438 C 0.93239 0.86375 0.19145 0.0
C1439 C 0.92247 0.8695 0.25206 0.0
C1440 C 0.93565 0.86866 0.3097 0.0
C1441 C 0.02318 0.93667 0.5205 0.0
C1442 C 1.00678 0.95206 0.54732 0.0
C1443 C 0.01682 0.9151 0.49426 0.0
C1444 C 0.9937 0.90813 0.49219 0.0
C1445 C 0.97704 0.92344 0.51828 0.0
C1446 C 0.98357 0.94484 0.54711 0.0
C1447 C 0.98758 0.88485 0.46276 0.0
C1448 C 0.9762 0.88347 0.40153 0.0
C1449 C 0.99482 0.86392 0.49206 0.0
C1450 C 1.00355 0.8633 0.5607 0.0
C1451 C 0.99049 0.87297 0.61231 0.0
C1452 C 0.9974 0.87018 0.67777 0.0
C1453 C 0.01726 0.85761 0.69218 0.0
C1454 C 0.03053 0.84823 0.64131 0.0
C1455 C 0.02373 0.85103 0.57579 0.0
H1456 H 0.02222 0.85481 0.7427 0.0
H1457 H 0.92225 0.86479 0.14682 0.0
H1458 H 0.74451 0.93373 0.36008 0.0
H1459 H 0.7088 0.94127 0.42002 0.0
H1460 H 0.71208 0.01258 0.36358 0.0
H1461 H 0.74743 1.00473 0.30082 0.0
H1462 H 0.69115 0.96555 0.51679 0.0
H1463 H 0.66856 0.03302 0.32874 0.0
H1464 H 0.67625 0.04101 0.21131 0.0
H1465 H 0.67613 0.96847 0.16799 0.0
H1466 H 0.66881 0.9601 0.28531 0.0
H1467 H 0.58677 0.04505 0.54816 0.0
H1468 H 0.62365 0.03167 0.50555 0.0
H1469 H 0.59998 0.96152 0.51611 0.0
H1470 H 0.56409 0.97483 0.568 0.0
H1471 H 0.62993 1.0032 0.38513 0.0
H1472 H 0.62999 0.94019 0.55402 0.0
H1473 H 0.62286 0.92734 0.66764 0.0
H1474 H 0.66866 0.97952 0.74137 0.0
H1475 H 0.67442 0.99397 0.62857 0.0
C1476 C 0.73806 0.95124 0.36224 0.0
C1477 C 0.74913 0.96865 0.32582 0.0
C1478 C 0.71738 0.9555 0.39624 0.0
C1479 C 0.70699 0.97738 0.39521 0.0
C1480 C 0.7191 0.99531 0.36371 0.0
C1481 C 0.73975 0.99098 0.32901 0.0
C1482 C 0.68306 0.98097 0.42333 0.0
C1483 C 0.6778 0.9737 0.48766 0.0
C1484 C 0.66505 0.99095 0.38586 0.0
C1485 C 0.66823 0.99599 0.31534 0.0
C1486 C 0.66999 0.01884 0.29392 0.0
C1487 C 0.67443 0.02341 0.22762 0.0
C1488 C 0.67676 1.00525 0.18248 0.0
C1489 C 0.67445 0.98248 0.2032 0.0
C1490 C 0.67027 0.97782 0.26954 0.0
C1491 C 0.58939 0.02667 0.5424 0.0
C1492 C 0.57186 0.01109 0.56004 0.0
C1493 C 0.61068 0.01902 0.51781 0.0
C1494 C 0.61527 0.99546 0.50867 0.0
C1495 C 0.59767 0.97973 0.5251 0.0
C1496 C 0.5766 0.98741 0.55261 0.0
C1497 C 0.63806 0.98818 0.47902 0.0
C1498 C 0.64321 0.99495 0.41426 0.0
C1499 C 0.65564 0.9769 0.51542 0.0
C1500 C 0.6517 0.96883 0.5833 0.0
C1501 C 0.63775 0.94953 0.59474 0.0
C1502 C 0.63398 0.94195 0.65896 0.0
C1503 C 0.64481 0.95301 0.7119 0.0
C1504 C 0.65965 0.9715 0.70063 0.0
C1505 C 0.66299 0.97953 0.6366 0.0
H1506 H 0.64185 0.94702 0.7614 0.0
H1507 H 0.68051 0.00882 0.13156 0.0
H1508 H 0.59423 0.75221 0.35336 0.0
H1509 H 0.58448 0.71743 0.41461 0.0
H1510 H 0.51379 0.72385 0.35312 0.0
H1511 H 0.52372 0.75839 0.28925 0.0
H1512 H 0.53464 0.71014 0.51073 0.0
H1513 H 0.52742 0.69053 0.27271 0.0
H1514 H 0.54313 0.69054 0.15979 0.0
H1515 H 0.60392 0.65584 0.22737 0.0
H1516 H 0.58879 0.65608 0.34101 0.0
H1517 H 0.49496 0.59959 0.60878 0.0
H1518 H 0.50082 0.63709 0.55751 0.0
H1519 H 0.56647 0.61425 0.48275 0.0
H1520 H 0.56061 0.57695 0.53342 0.0
H1521 H 0.5478 0.63673 0.38976 0.0
H1522 H 0.56136 0.65367 0.6122 0.0
H1523 H 0.55816 0.65927 0.73239 0.0
H1524 H 0.49776 0.7008 0.70518 0.0
H1525 H 0.50036 0.69515 0.58477 0.0
C1526 C 0.57639 0.74678 0.35504 0.0
C1527 C 0.55967 0.75838 0.31725 0.0
C1528 C 0.57093 0.72666 0.38927 0.0
C1529 C 0.54851 0.71774 0.38752 0.0
C1530 C 0.53127 0.73031 0.35468 0.0
C1531 C 0.53684 0.75032 0.31923 0.0
C1532 C 0.5436 0.69485 0.41772 0.0
C1533 C 0.53682 0.69405 0.48387 0.0
C1534 C 0.54809 0.67385 0.38399 0.0
C1535 C 0.55707 0.67359 0.31554 0.0
C1536 C 0.54427 0.68319 0.26369 0.0
C1537 C 0.55304 0.6831 0.19951 0.0
C1538 C 0.57451 0.67323 0.18646 0.0
C1539 C 0.58729 0.66349 0.23758 0.0
C1540 C 0.57862 0.6636 0.30187 0.0
C1541 C 0.51073 0.6025 0.58178 0.0
C1542 C 0.52702 0.58467 0.57421 0.0
C1543 C 0.51411 0.62412 0.55236 0.0
C1544 C 0.5341 0.62879 0.51546 0.0
C1545 C 0.55069 0.61126 0.50971 0.0
C1546 C 0.54727 0.58969 0.5389 0.0
C1547 C 0.53774 0.6518 0.48303 0.0
C1548 C 0.54481 0.65268 0.41661 0.0
C1549 C 0.53439 0.67296 0.51726 0.0
C1550 C 0.531 0.67392 0.58952 0.0
C1551 C 0.5471 0.66358 0.63189 0.0
C1552 C 0.54547 0.66686 0.70001 0.0
C1553 C 0.52793 0.68061 0.72616 0.0
C1554 C 0.51142 0.6903 0.68466 0.0
C1555 C 0.51294 0.68704 0.61652 0.0
H1556 H 0.52742 0.68417 0.7784 0.0
H1557 H 0.58116 0.67299 0.1367 0.0
H1558 H 0.78993 0.55883 0.21407 0.0
H1559 H 0.82525 0.55157 0.27652 0.0
H1560 H 0.7885 0.56238 0.45783 0.0
H1561 H 0.75302 0.57084 0.39454 0.0
H1562 H 0.83435 0.58621 0.44479 0.0
H1563 H 0.80194 0.50963 0.41853 0.0
H1564 H 0.78652 0.4763 0.35661 0.0
H1565 H 0.84888 0.47211 0.24387 0.0
H1566 H 0.86445 0.50577 0.30393 0.0
H1567 H 0.9258 0.53113 0.64655 0.0
H1568 H 0.88809 0.5413 0.5986 0.0
H1569 H 0.91764 0.53857 0.4042 0.0
H1570 H 0.95539 0.52954 0.4519 0.0
H1571 H 0.87448 0.51099 0.42913 0.0
H1572 H 0.90875 0.58328 0.44466 0.0
H1573 H 0.9273 0.61807 0.48891 0.0
H1574 H 0.86548 0.63604 0.59187 0.0
H1575 H 0.84724 0.59973 0.5551 0.0
C1576 C 0.78904 0.55854 0.26736 0.0
C1577 C 0.76816 0.56415 0.29899 0.0
C1578 C 0.80939 0.55472 0.30308 0.0
C1579 C 0.80968 0.55572 0.37211 0.0
C1580 C 0.78884 0.5611 0.40458 0.0
C1581 C 0.76835 0.56543 0.36843 0.0
C1582 C 0.83197 0.5514 0.4087 0.0
C1583 C 0.84284 0.56958 0.44319 0.0
C1584 C 0.84396 0.53016 0.4029 0.0
C1585 C 0.83429 0.51032 0.36556 0.0
C1586 C 0.81226 0.50178 0.38003 0.0
C1587 C 0.80352 0.48277 0.34538 0.0
C1588 C 0.81676 0.47202 0.29658 0.0
C1589 C 0.83871 0.48034 0.28203 0.0
C1590 C 0.84747 0.49942 0.31624 0.0
C1591 C 0.92427 0.53289 0.59362 0.0
C1592 C 0.94371 0.52959 0.55317 0.0
C1593 C 0.9027 0.53883 0.56623 0.0
C1594 C 0.89989 0.54095 0.49758 0.0
C1595 C 0.91926 0.53727 0.45723 0.0
C1596 C 0.94091 0.53213 0.48466 0.0
C1597 C 0.87663 0.54553 0.46722 0.0
C1598 C 0.86577 0.52749 0.43276 0.0
C1599 C 0.86521 0.56719 0.47107 0.0
C1600 C 0.87681 0.58808 0.4987 0.0
C1601 C 0.89938 0.59385 0.47956 0.0
C1602 C 0.90989 0.61391 0.50349 0.0
C1603 C 0.89774 0.62893 0.54462 0.0
C1604 C 0.87507 0.62392 0.56185 0.0
C1605 C 0.86474 0.60343 0.54015 0.0
H1606 H 0.90575 0.64466 0.56225 0.0
H1607 H 0.80995 0.45732 0.26981 0.0
loop_
_geom_bond_atom_site_label_1
_geom_bond_atom_site_label_2
_geom_bond_distance
_geom_bond_site_symmetry_2
_ccdc_geom_bond_type
H0 C3 0.931 . S
H1 C6 0.928 . S
H2 C8 0.930 . S
C3 H0 0.931 . S
C3 C4 1.413 . S
C3 C5 1.360 . S
C4 C3 1.413 . S
C4 C8 1.429 . S
C5 C3 1.360 . S
C5 C6 1.372 . S
C6 H1 0.928 . S
C6 C5 1.372 . S
C6 C7 1.404 . S
C7 C6 1.404 . S
C7 C8 1.391 . S
C8 H2 0.930 . S
C8 C4 1.429 . S
C8 C7 1.391 . S
H9 C12 0.931 . S
H10 C15 0.928 . S
H11 C17 0.930 . S
C12 H9 0.931 . S
C12 C13 1.413 . S
C12 C14 1.360 . S
C13 C12 1.413 . S
C13 C17 1.429 . S
C14 C12 1.360 . S
C14 C15 1.372 . S
C15 H10 0.928 . S
C15 C14 1.372 . S
C15 C16 1.404 . S
C16 C15 1.404 . S
C16 C17 1.391 . S
C17 H11 0.930 . S
C17 C13 1.429 . S
C17 C16 1.391 . S
H18 C21 0.931 . S
H19 C24 0.928 . S
H20 C26 0.930 . S
C21 H18 0.931 . S
C21 C22 1.413 . S
C21 C23 1.360 . S
C22 C21 1.413 . S
C22 C26 1.429 . S
C23 C21 1.360 . S
C23 C24 1.372 . S
C24 H19 0.928 . S
C24 C23 1.372 . S
C24 C25 1.404 . S
C25 C24 1.404 . S
C25 C26 1.391 . S
C26 H20 0.930 . S
C26 C22 1.429 . S
C26 C25 1.391 . S
H27 C30 0.931 . S
H28 C33 0.928 . S
H29 C35 0.930 . S
C30 H27 0.931 . S
C30 C31 1.413 . S
C30 C32 1.360 . S
C31 C30 1.413 . S
C31 C35 1.429 . S
C32 C30 1.360 . S
C32 C33 1.372 . S
C33 H28 0.928 . S
C33 C32 1.372 . S
C33 C34 1.404 . S
C34 C33 1.404 . S
C34 C35 1.391 . S
C35 H29 0.930 . S
C35 C31 1.429 . S
C35 C34 1.391 . S
H36 C39 0.934 . S
H37 C42 0.928 . S
H38 C44 0.930 . S
C39 H36 0.934 . S
C39 C40 1.413 1_554 S
C39 C41 1.360 . S
C40 C39 1.413 1_556 S
C40 C44 1.429 . S
C41 C39 1.360 . S
C41 C42 1.372 . S
C42 H37 0.928 . S
C42 C41 1.372 . S
C42 C43 1.404 . S
C43 C42 1.404 . S
C43 C44 1.391 1_554 S
C44 H38 0.930 . S
C44 C40 1.429 . S
C44 C43 1.391 1_556 S
H45 C48 0.931 1_556 S
H46 C51 0.928 . S
H47 C53 0.930 . S
C48 H45 0.931 1_554 S
C48 C49 1.413 1_554 S
C48 C50 1.360 . S
C49 C48 1.413 1_556 S
C49 C53 1.429 . S
C50 C48 1.360 . S
C50 C51 1.372 . S
C51 H46 0.928 . S
C51 C50 1.372 . S
C51 C52 1.404 . S
C52 C51 1.404 . S
C52 C53 1.391 1_554 S
C53 H47 0.930 . S
C53 C49 1.429 . S
C53 C52 1.391 1_556 S
H54 C57 0.931 1_556 S
H55 C60 0.928 . S
H56 C62 0.930 . S
C57 H54 0.931 1_554 S
C57 C58 1.413 1_554 S
C57 C59 1.360 . S
C58 C57 1.413 1_556 S
C58 C62 1.429 . S
C59 C57 1.360 . S
C59 C60 1.372 . S
C60 H55 0.928 . S
C60 C59 1.372 . S
C60 C61 1.404 . S
C61 C60 1.404 . S
C61 C62 1.391 1_554 S
C62 H56 0.930 . S
C62 C58 1.429 . S
C62 C61 1.391 1_556 S
H63 C66 0.931 1_556 S
H64 C69 0.928 . S
H65 C71 0.930 . S
C66 H63 0.931 1_554 S
C66 C67 1.413 . S
C66 C68 1.360 1_554 S
C67 C66 1.413 . S
C67 C71 1.429 . S
C68 C66 1.360 1_556 S
C68 C69 1.372 . S
C69 H64 0.928 . S
C69 C68 1.372 . S
C69 C70 1.404 1_556 S
C70 C69 1.404 1_554 S
C70 C71 1.391 . S
C71 H65 0.930 . S
C71 C67 1.429 . S
C71 C70 1.391 . S
Eu72 N103 2.657 1_565 S
Eu72 N110 2.609 . S
Eu72 O116 2.558 . S
Eu72 O117 2.612 1_455 S
Eu72 O119 2.339 1_455 S
Eu72 O120 2.563 . S
Eu72 O121 2.419 . S
Eu72 O123 2.380 1_565 S
Eu72 O124 2.432 . S
Eu72 C136 2.848 . S
C73 C76 1.429 1_545 S
C73 C77 1.411 . S
C73 N80 1.377 . S
C74 C76 1.420 . S
C74 C78 1.423 . S
C74 C86 1.392 . S
C75 C77 1.420 1_565 S
C75 C78 1.351 . S
C75 H98 0.931 . S
C76 C73 1.429 1_565 S
C76 C74 1.420 . S
C76 N84 1.361 . S
C77 C73 1.411 . S
C77 C75 1.420 1_545 S
C77 C82 1.395 . S
C78 C74 1.423 . S
C78 C75 1.351 . S
C78 H90 0.930 . S
C79 C81 1.400 . S
C79 C82 1.386 . S
C79 H91 0.930 . S
N80 C73 1.377 . S
N80 C81 1.321 . S
N80 Eu83 2.609 . S
C81 C79 1.400 . S
C81 N80 1.321 . S
C81 H88 0.930 . S
C82 C77 1.395 . S
C82 C79 1.386 . S
C82 H101 0.930 . S
Eu83 N80 2.609 . S
Eu83 N84 2.658 1_545 S
Eu83 O117 2.380 1_545 S
Eu83 O118 2.432 . S
Eu83 O122 2.558 . S
Eu83 O123 2.612 1_655 S
Eu83 O125 2.339 1_655 S
Eu83 O126 2.563 1_655 S
Eu83 O127 2.419 . S
Eu83 C147 2.848 . S
N84 C76 1.361 . S
N84 Eu83 2.658 1_565 S
N84 C85 1.333 1_655 S
C85 N84 1.333 1_455 S
C85 C87 1.414 1_455 S
C85 H92 0.929 . S
C86 C74 1.392 . S
C86 C87 1.362 . S
C86 H94 0.930 . S
C87 C85 1.414 1_655 S
C87 C86 1.362 . S
C87 H89 0.935 1_655 S
H88 C81 0.930 . S
H89 C87 0.935 1_455 S
H90 C78 0.930 . S
H91 C79 0.930 . S
H92 C85 0.929 . S
H93 C107 0.930 1_655 S
H94 C86 0.930 . S
H95 C113 0.930 . S
H96 C104 0.929 1_655 S
H97 C111 0.930 . S
H98 C75 0.931 . S
H99 C105 0.930 . S
H100 C138 0.930 . S
H101 C82 0.930 . S
H102 C137 0.931 . S
N103 Eu72 2.657 1_545 S
N103 C104 1.334 . S
N103 C108 1.362 . S
C104 H96 0.929 1_455 S
C104 N103 1.334 . S
C104 C107 1.413 . S
C105 H99 0.930 . S
C105 C106 1.392 . S
C105 C107 1.367 . S
C106 C105 1.392 . S
C106 C108 1.420 . S
C106 C138 1.423 . S
C107 H93 0.930 1_455 S
C107 C104 1.413 . S
C107 C105 1.367 . S
C108 N103 1.362 . S
C108 C106 1.420 . S
C108 C112 1.429 . S
H109 C114 0.928 . S
N110 Eu72 2.609 . S
N110 C112 1.377 1_565 S
N110 C113 1.321 . S
C111 H97 0.930 . S
C111 C113 1.400 . S
C111 C114 1.406 . S
C112 C108 1.429 . S
C112 N110 1.377 1_545 S
C112 C115 1.411 . S
C113 H95 0.930 . S
C113 N110 1.321 . S
C113 C111 1.400 . S
C114 H109 0.928 . S
C114 C111 1.406 . S
C114 C115 1.378 1_565 S
C115 C112 1.411 . S
C115 C114 1.378 1_545 S
C115 C137 1.420 . S
O116 Eu72 2.558 . S
O116 C136 1.257 . S
O117 Eu72 2.612 1_655 S
O117 Eu83 2.380 1_565 S
O117 C128 1.276 . S
O118 Eu83 2.432 . S
O118 C135 1.264 . S
O119 Eu72 2.339 1_655 S
O119 C135 1.254 1_565 S
O120 Eu72 2.563 . S
O120 C128 1.235 1_455 S
O121 Eu72 2.419 . S
O121 C136 1.249 . S
O122 Eu83 2.558 . S
O122 C147 1.257 . S
O123 Eu72 2.380 1_545 S
O123 Eu83 2.612 1_455 S
O123 C139 1.276 . S
O124 Eu72 2.432 . S
O124 C146 1.264 1_565 S
O125 Eu83 2.339 1_455 S
O125 C146 1.254 . S
O126 Eu83 2.563 1_455 S
O126 C139 1.235 . S
O127 Eu83 2.419 . S
O127 C147 1.249 . S
C128 O117 1.276 . S
C128 O120 1.235 1_655 S
C129 C131 1.393 . S
C129 C133 1.395 . S
C129 C136 1.492 . S
C130 C131 1.392 . S
C130 C132 1.386 . S
C131 C129 1.393 . S
C131 C130 1.392 . S
C131 H148 0.924 1_455 S
C132 C130 1.386 . S
C132 C134 1.395 . S
C132 H149 0.930 . S
C133 C129 1.395 . S
C133 C134 1.379 . S
C133 H150 0.930 . S
C134 C132 1.395 . S
C134 C133 1.379 . S
C134 H151 0.930 . S
C135 O118 1.264 . S
C135 O119 1.254 1_545 S
C136 Eu72 2.848 . S
C136 O116 1.257 . S
C136 O121 1.249 . S
C136 C129 1.492 . S
C137 H102 0.931 . S
C137 C115 1.420 . S
C137 C138 1.351 . S
C138 H100 0.930 . S
C138 C106 1.423 . S
C138 C137 1.351 . S
C139 O123 1.276 . S
C139 O126 1.235 . S
C140 C141 1.393 . S
C140 C144 1.395 . S
C140 C147 1.492 . S
C141 C140 1.393 . S
C141 C142 1.392 . S
C141 H152 0.930 1_655 S
C142 C141 1.392 . S
C142 C143 1.386 . S
C143 C142 1.386 . S
C143 C145 1.395 . S
C143 H153 0.930 . S
C144 C140 1.395 . S
C144 C145 1.379 . S
C144 H154 0.930 . S
C145 C143 1.395 . S
C145 C144 1.379 . S
C145 H155 0.930 . S
C146 O124 1.264 1_545 S
C146 O125 1.254 . S
C147 Eu83 2.848 . S
C147 O122 1.257 . S
C147 O127 1.249 . S
C147 C140 1.492 . S
H148 C131 0.924 1_655 S
H149 C132 0.930 . S
H150 C133 0.930 . S
H151 C134 0.930 . S
H152 C141 0.930 1_455 S
H153 C143 0.930 . S
H154 C144 0.930 . S
H155 C145 0.930 . S
Eu156 N187 2.657 . S
Eu156 N194 2.609 . S
Eu156 O200 2.558 . S
Eu156 O201 2.612 1_545 S
Eu156 O203 2.339 1_545 S
Eu156 O204 2.563 . S
Eu156 O205 2.419 . S
Eu156 O207 2.380 . S
Eu156 O208 2.432 . S
Eu156 C220 2.848 . S
C157 C160 1.429 . S
C157 C161 1.411 . S
C157 N164 1.377 . S
C158 C160 1.420 . S
C158 C162 1.423 . S
C158 C170 1.392 . S
C159 C161 1.420 . S
C159 C162 1.351 . S
C159 H182 0.931 . S
C160 C157 1.429 . S
C160 C158 1.420 . S
C160 N168 1.362 . S
C161 C157 1.411 . S
C161 C159 1.420 . S
C161 C166 1.395 . S
C162 C158 1.423 . S
C162 C159 1.351 . S
C162 H174 0.930 . S
C163 C165 1.400 . S
C163 C166 1.386 . S
C163 H175 0.930 . S
N164 C157 1.377 . S
N164 C165 1.321 . S
N164 Eu167 2.609 . S
C165 C163 1.400 . S
C165 N164 1.321 . S
C165 H172 0.930 . S
C166 C161 1.395 . S
C166 C163 1.386 . S
C166 H185 0.930 . S
Eu167 N164 2.609 . S
Eu167 N168 2.657 . S
Eu167 O201 2.380 . S
Eu167 O202 2.432 . S
Eu167 O206 2.558 . S
Eu167 O207 2.612 1_565 S
Eu167 O209 2.339 1_565 S
Eu167 O210 2.563 1_565 S
Eu167 O211 2.419 . S
Eu167 C231 2.848 . S
N168 C160 1.362 . S
N168 Eu167 2.657 . S
N168 C169 1.334 1_565 S
C169 N168 1.334 1_545 S
C169 C171 1.413 . S
C169 H176 0.929 . S
C170 C158 1.392 . S
C170 C171 1.367 1_565 S
C170 H178 0.930 . S
C171 C169 1.413 . S
C171 C170 1.367 1_545 S
C171 H173 0.930 . S
H172 C165 0.930 . S
H173 C171 0.930 . S
H174 C162 0.930 . S
H175 C163 0.930 . S
H176 C169 0.929 . S
H177 C191 0.930 1_565 S
H178 C170 0.930 . S
H179 C197 0.930 . S
H180 C188 0.929 1_565 S
H181 C195 0.930 . S
H182 C159 0.931 . S
H183 C189 0.930 . S
H184 C222 0.930 . S
H185 C166 0.930 . S
H186 C221 0.931 . S
N187 Eu156 2.657 . S
N187 C188 1.334 . S
N187 C192 1.362 . S
C188 H180 0.929 1_545 S
C188 N187 1.334 . S
C188 C191 1.413 . S
C189 H183 0.930 . S
C189 C190 1.392 . S
C189 C191 1.367 . S
C190 C189 1.392 . S
C190 C192 1.420 . S
C190 C222 1.423 . S
C191 H177 0.930 1_545 S
C191 C188 1.413 . S
C191 C189 1.367 . S
C192 N187 1.362 . S
C192 C190 1.420 . S
C192 C196 1.429 . S
H193 C198 0.930 . S
N194 Eu156 2.609 . S
N194 C196 1.377 . S
N194 C197 1.321 . S
C195 H181 0.930 . S
C195 C197 1.400 . S
C195 C198 1.386 . S
C196 C192 1.429 . S
C196 N194 1.377 . S
C196 C199 1.411 . S
C197 H179 0.930 . S
C197 N194 1.321 . S
C197 C195 1.400 . S
C198 H193 0.930 . S
C198 C195 1.386 . S
C198 C199 1.395 . S
C199 C196 1.411 . S
C199 C198 1.395 . S
C199 C221 1.420 . S
O200 Eu156 2.558 . S
O200 C220 1.257 . S
O201 Eu156 2.612 1_565 S
O201 Eu167 2.380 . S
O201 C212 1.276 . S
O202 Eu167 2.432 . S
O202 C219 1.264 . S
O203 Eu156 2.339 1_565 S
O203 C219 1.254 . S
O204 Eu156 2.563 . S
O204 C212 1.235 1_545 S
O205 Eu156 2.419 . S
O205 C220 1.249 . S
O206 Eu167 2.558 . S
O206 C231 1.257 . S
O207 Eu156 2.380 . S
O207 Eu167 2.612 1_545 S
O207 C223 1.276 . S
O208 Eu156 2.432 . S
O208 C230 1.264 . S
O209 Eu167 2.339 1_545 S
O209 C230 1.254 . S
O210 Eu167 2.563 1_545 S
O210 C223 1.235 . S
O211 Eu167 2.419 . S
O211 C231 1.249 . S
C212 O201 1.276 . S
C212 O204 1.235 1_565 S
C213 C215 1.393 . S
C213 C217 1.395 . S
C213 C220 1.492 . S
C214 C215 1.392 . S
C214 C216 1.386 . S
C215 C213 1.393 . S
C215 C214 1.392 . S
C215 H232 0.930 . S
C216 C214 1.386 . S
C216 C218 1.395 . S
C216 H233 0.930 . S
C217 C213 1.395 . S
C217 C218 1.379 . S
C217 H234 0.930 . S
C218 C216 1.395 . S
C218 C217 1.379 . S
C218 H235 0.930 . S
C219 O202 1.264 . S
C219 O203 1.254 . S
C220 Eu156 2.848 . S
C220 O200 1.257 . S
C220 O205 1.249 . S
C220 C213 1.492 . S
C221 H186 0.931 . S
C221 C199 1.420 . S
C221 C222 1.351 . S
C222 H184 0.930 . S
C222 C190 1.423 . S
C222 C221 1.351 . S
C223 O207 1.276 . S
C223 O210 1.235 . S
C224 C225 1.393 . S
C224 C228 1.395 . S
C224 C231 1.492 . S
C225 C224 1.393 . S
C225 C226 1.392 . S
C225 H236 0.930 1_565 S
C226 C225 1.392 . S
C226 C227 1.386 . S
C227 C226 1.386 . S
C227 C229 1.395 . S
C227 H237 0.930 . S
C228 C224 1.395 . S
C228 C229 1.379 . S
C228 H238 0.930 . S
C229 C227 1.395 . S
C229 C228 1.379 . S
C229 H239 0.930 . S
C230 O208 1.264 . S
C230 O209 1.254 . S
C231 Eu167 2.848 . S
C231 O206 1.257 . S
C231 O211 1.249 . S
C231 C224 1.492 . S
H232 C215 0.930 . S
H233 C216 0.930 . S
H234 C217 0.930 . S
H235 C218 0.930 . S
H236 C225 0.930 1_545 S
H237 C227 0.930 . S
H238 C228 0.930 . S
H239 C229 0.930 . S
Eu240 N271 2.657 . S
Eu240 N278 2.609 . S
Eu240 O284 2.558 . S
Eu240 O285 2.612 . S
Eu240 O287 2.339 . S
Eu240 O288 2.563 . S
Eu240 O289 2.419 . S
Eu240 O291 2.380 . S
Eu240 O292 2.432 . S
Eu240 C304 2.848 . S
C241 C244 1.429 . S
C241 C245 1.411 . S
C241 N248 1.377 . S
C242 C244 1.420 . S
C242 C246 1.423 . S
C242 C254 1.392 . S
C243 C245 1.420 . S
C243 C246 1.351 . S
C243 H266 0.931 . S
C244 C241 1.429 . S
C244 C242 1.420 . S
C244 N252 1.362 . S
C245 C241 1.411 . S
C245 C243 1.420 . S
C245 C250 1.395 . S
C246 C242 1.423 . S
C246 C243 1.351 . S
C246 H258 0.930 . S
C247 C249 1.400 . S
C247 C250 1.386 . S
C247 H259 0.930 . S
N248 C241 1.377 . S
N248 C249 1.321 . S
N248 Eu251 2.609 . S
C249 C247 1.400 . S
C249 N248 1.321 . S
C249 H256 0.930 . S
C250 C245 1.395 . S
C250 C247 1.386 . S
C250 H269 0.930 . S
Eu251 N248 2.609 . S
Eu251 N252 2.657 . S
Eu251 O285 2.380 . S
Eu251 O286 2.432 . S
Eu251 O290 2.558 . S
Eu251 O291 2.612 . S
Eu251 O293 2.339 . S
Eu251 O294 2.563 . S
Eu251 O295 2.419 . S
Eu251 C315 2.848 . S
N252 C244 1.362 . S
N252 Eu251 2.657 . S
N252 C253 1.334 . S
C253 N252 1.334 . S
C253 C255 1.413 . S
C253 H260 0.929 . S
C254 C242 1.392 . S
C254 C255 1.367 . S
C254 H262 0.930 . S
C255 C253 1.413 . S
C255 C254 1.367 . S
C255 H257 0.930 . S
H256 C249 0.930 . S
H257 C255 0.930 . S
H258 C246 0.930 . S
H259 C247 0.930 . S
H260 C253 0.929 . S
H261 C275 0.930 . S
H262 C254 0.930 . S
H263 C281 0.930 . S
H264 C272 0.929 . S
H265 C279 0.930 . S
H266 C243 0.931 . S
H267 C273 0.930 . S
H268 C306 0.930 . S
H269 C250 0.930 . S
H270 C305 0.931 . S
N271 Eu240 2.657 . S
N271 C272 1.334 . S
N271 C276 1.362 . S
C272 H264 0.929 . S
C272 N271 1.334 . S
C272 C275 1.413 . S
C273 H267 0.930 . S
C273 C274 1.392 . S
C273 C275 1.367 . S
C274 C273 1.392 . S
C274 C276 1.420 . S
C274 C306 1.423 . S
C275 H261 0.930 . S
C275 C272 1.413 . S
C275 C273 1.367 . S
C276 N271 1.362 . S
C276 C274 1.420 . S
C276 C280 1.429 . S
H277 C282 0.930 . S
N278 Eu240 2.609 . S
N278 C280 1.377 . S
N278 C281 1.321 . S
C279 H265 0.930 . S
C279 C281 1.400 . S
C279 C282 1.386 . S
C280 C276 1.429 . S
C280 N278 1.377 . S
C280 C283 1.411 . S
C281 H263 0.930 . S
C281 N278 1.321 . S
C281 C279 1.400 . S
C282 H277 0.930 . S
C282 C279 1.386 . S
C282 C283 1.395 . S
C283 C280 1.411 . S
C283 C282 1.395 . S
C283 C305 1.420 . S
O284 Eu240 2.558 . S
O284 C304 1.257 . S
O285 Eu240 2.612 . S
O285 Eu251 2.380 . S
O285 C296 1.276 . S
O286 Eu251 2.432 . S
O286 C303 1.264 . S
O287 Eu240 2.339 . S
O287 C303 1.254 . S
O288 Eu240 2.563 . S
O288 C296 1.235 . S
O289 Eu240 2.419 . S
O289 C304 1.249 . S
O290 Eu251 2.558 . S
O290 C315 1.257 . S
O291 Eu240 2.380 . S
O291 Eu251 2.612 . S
O291 C307 1.276 . S
O292 Eu240 2.432 . S
O292 C314 1.264 . S
O293 Eu251 2.339 . S
O293 C314 1.254 . S
O294 Eu251 2.563 . S
O294 C307 1.235 . S
O295 Eu251 2.419 . S
O295 C315 1.249 . S
C296 O285 1.276 . S
C296 O288 1.235 . S
C297 C299 1.393 . S
C297 C301 1.395 . S
C297 C304 1.492 . S
C298 C299 1.392 . S
C298 C300 1.386 . S
C299 C297 1.393 . S
C299 C298 1.392 . S
C299 H316 0.930 . S
C300 C298 1.386 . S
C300 C302 1.395 . S
C300 H317 0.930 . S
C301 C297 1.395 . S
C301 C302 1.379 . S
C301 H318 0.930 . S
C302 C300 1.395 . S
C302 C301 1.379 . S
C302 H319 0.930 . S
C303 O286 1.264 . S
C303 O287 1.254 . S
C304 Eu240 2.848 . S
C304 O284 1.257 . S
C304 O289 1.249 . S
C304 C297 1.492 . S
C305 H270 0.931 . S
C305 C283 1.420 . S
C305 C306 1.351 . S
C306 H268 0.930 . S
C306 C274 1.423 . S
C306 C305 1.351 . S
C307 O291 1.276 . S
C307 O294 1.235 . S
C308 C309 1.393 . S
C308 C312 1.395 . S
C308 C315 1.492 . S
C309 C308 1.393 . S
C309 C310 1.392 . S
C309 H320 0.930 . S
C310 C309 1.392 . S
C310 C311 1.386 . S
C311 C310 1.386 . S
C311 C313 1.395 . S
C311 H321 0.930 . S
C312 C308 1.395 . S
C312 C313 1.379 . S
C312 H322 0.930 . S
C313 C311 1.395 . S
C313 C312 1.379 . S
C313 H323 0.930 . S
C314 O292 1.264 . S
C314 O293 1.254 . S
C315 Eu251 2.848 . S
C315 O290 1.257 . S
C315 O295 1.249 . S
C315 C308 1.492 . S
H316 C299 0.930 . S
H317 C300 0.930 . S
H318 C301 0.930 . S
H319 C302 0.930 . S
H320 C309 0.930 . S
H321 C311 0.930 . S
H322 C312 0.930 . S
H323 C313 0.930 . S
Eu324 N355 2.657 . S
Eu324 N362 2.609 . S
Eu324 O368 2.558 . S
Eu324 O369 2.612 . S
Eu324 O371 2.339 . S
Eu324 O372 2.563 . S
Eu324 O373 2.419 . S
Eu324 O375 2.384 . S
Eu324 O376 2.432 1_455 S
Eu324 C388 2.848 . S
C325 C328 1.429 . S
C325 C329 1.411 . S
C325 N332 1.377 . S
C326 C328 1.420 . S
C326 C330 1.423 . S
C326 C338 1.392 . S
C327 C329 1.420 . S
C327 C330 1.351 . S
C327 H350 0.931 . S
C328 C325 1.429 . S
C328 C326 1.420 . S
C328 N336 1.362 . S
C329 C325 1.411 . S
C329 C327 1.420 . S
C329 C334 1.395 . S
C330 C326 1.423 . S
C330 C327 1.351 . S
C330 H342 0.930 . S
C331 C333 1.400 . S
C331 C334 1.386 1_455 S
C331 H343 0.930 . S
N332 C325 1.377 . S
N332 C333 1.321 1_655 S
N332 Eu335 2.609 . S
C333 C331 1.400 . S
C333 N332 1.321 1_455 S
C333 H340 0.930 . S
C334 C329 1.395 . S
C334 C331 1.386 1_655 S
C334 H353 0.930 . S
Eu335 N332 2.609 . S
Eu335 N336 2.657 . S
Eu335 O369 2.380 1_655 S
Eu335 O370 2.432 1_655 S
Eu335 O374 2.558 . S
Eu335 O375 2.610 1_655 S
Eu335 O377 2.339 . S
Eu335 O378 2.563 . S
Eu335 O379 2.419 . S
Eu335 C399 2.848 . S
N336 C328 1.362 . S
N336 Eu335 2.657 . S
N336 C337 1.334 . S
C337 N336 1.334 . S
C337 C339 1.413 . S
C337 H344 0.929 . S
C338 C326 1.392 . S
C338 C339 1.367 . S
C338 H346 0.930 . S
C339 C337 1.413 . S
C339 C338 1.367 . S
C339 H341 0.930 . S
H340 C333 0.930 . S
H341 C339 0.930 . S
H342 C330 0.930 . S
H343 C331 0.930 . S
H344 C337 0.929 . S
H345 C359 0.930 . S
H346 C338 0.930 . S
H347 C365 0.930 1_655 S
H348 C356 0.929 . S
H349 C363 0.932 1_655 S
H350 C327 0.931 . S
H351 C357 0.930 . S
H352 C390 0.930 . S
H353 C334 0.930 . S
H354 C389 0.931 . S
N355 Eu324 2.657 . S
N355 C356 1.334 . S
N355 C360 1.362 . S
C356 H348 0.929 . S
C356 N355 1.334 . S
C356 C359 1.413 . S
C357 H351 0.930 . S
C357 C358 1.392 . S
C357 C359 1.367 . S
C358 C357 1.392 . S
C358 C360 1.420 . S
C358 C390 1.423 . S
C359 H345 0.930 . S
C359 C356 1.413 . S
C359 C357 1.367 . S
C360 N355 1.362 . S
C360 C358 1.420 . S
C360 C364 1.429 . S
H361 C366 0.930 . S
N362 Eu324 2.609 . S
N362 C364 1.377 . S
N362 C365 1.321 . S
C363 H349 0.932 1_455 S
C363 C365 1.399 . S
C363 C366 1.384 . S
C364 C360 1.429 . S
C364 N362 1.377 . S
C364 C367 1.411 . S
C365 H347 0.930 1_455 S
C365 N362 1.321 . S
C365 C363 1.399 . S
C366 H361 0.930 . S
C366 C363 1.384 . S
C366 C367 1.395 . S
C367 C364 1.411 . S
C367 C366 1.395 . S
C367 C389 1.420 . S
O368 Eu324 2.558 . S
O368 C388 1.257 . S
O369 Eu324 2.612 . S
O369 Eu335 2.380 1_455 S
O369 C380 1.276 . S
O370 Eu335 2.432 1_455 S
O370 C387 1.264 . S
O371 Eu324 2.339 . S
O371 C387 1.254 . S
O372 Eu324 2.563 . S
O372 C380 1.235 . S
O373 Eu324 2.419 . S
O373 C388 1.249 . S
O374 Eu335 2.558 . S
O374 C399 1.257 . S
O375 Eu324 2.384 . S
O375 Eu335 2.610 1_455 S
O375 C391 1.273 1_455 S
O376 Eu324 2.432 1_655 S
O376 C398 1.264 . S
O377 Eu335 2.339 . S
O377 C398 1.254 . S
O378 Eu335 2.563 . S
O378 C391 1.235 . S
O379 Eu335 2.419 . S
O379 C399 1.249 . S
C380 O369 1.276 . S
C380 O372 1.235 . S
C381 C383 1.393 . S
C381 C385 1.395 . S
C381 C388 1.492 . S
C382 C383 1.392 . S
C382 C384 1.386 . S
C383 C381 1.393 . S
C383 C382 1.392 . S
C383 H400 0.930 . S
C384 C382 1.386 . S
C384 C386 1.395 . S
C384 H401 0.930 . S
C385 C381 1.395 . S
C385 C386 1.379 . S
C385 H402 0.930 . S
C386 C384 1.395 . S
C386 C385 1.379 . S
C386 H403 0.930 . S
C387 O370 1.264 . S
C387 O371 1.254 . S
C388 Eu324 2.848 . S
C388 O368 1.257 . S
C388 O373 1.249 . S
C388 C381 1.492 . S
C389 H354 0.931 . S
C389 C367 1.420 . S
C389 C390 1.351 . S
C390 H352 0.930 . S
C390 C358 1.423 . S
C390 C389 1.351 . S
C391 O375 1.273 1_655 S
C391 O378 1.235 . S
C392 C393 1.393 . S
C392 C396 1.395 . S
C392 C399 1.492 . S
C393 C392 1.393 . S
C393 C394 1.392 . S
C393 H404 0.930 . S
C394 C393 1.392 . S
C394 C395 1.386 . S
C395 C394 1.386 . S
C395 C397 1.395 . S
C395 H405 0.930 . S
C396 C392 1.395 . S
C396 C397 1.379 . S
C396 H406 0.930 . S
C397 C395 1.395 . S
C397 C396 1.379 . S
C397 H407 0.930 . S
C398 O376 1.264 . S
C398 O377 1.254 . S
C399 Eu335 2.848 . S
C399 O374 1.257 . S
C399 O379 1.249 . S
C399 C392 1.492 . S
H400 C383 0.930 . S
H401 C384 0.930 . S
H402 C385 0.930 . S
H403 C386 0.930 . S
H404 C393 0.930 . S
H405 C395 0.930 . S
H406 C396 0.930 . S
H407 C397 0.930 . S
H408 C426 0.951 . S
H409 C428 0.951 . S
H410 C430 0.950 . S
H411 C431 0.950 . S
H412 C433 0.950 . S
H413 C436 0.950 . S
H414 C437 0.950 . S
H415 C439 0.950 . S
H416 C440 0.950 . S
H417 C441 0.951 1_565 S
H418 C443 0.951 1_565 S
H419 C445 0.950 . S
H420 C446 0.950 . S
H421 C448 0.950 . S
H422 C451 0.950 . S
H423 C452 0.950 . S
H424 C454 0.950 . S
H425 C455 0.950 . S
C426 H408 0.951 . S
C426 C427 1.366 . S
C426 C428 1.388 . S
C427 C426 1.366 . S
C427 C431 1.385 . S
C428 H409 0.951 . S
C428 C426 1.388 . S
C428 C429 1.366 . S
C429 C428 1.366 . S
C429 C430 1.414 . S
C429 C432 1.499 . S
C430 H410 0.950 . S
C430 C429 1.414 . S
C430 C431 1.374 . S
C431 H411 0.950 . S
C431 C427 1.385 . S
C431 C430 1.374 . S
C432 C429 1.499 . S
C432 C433 1.373 . S
C432 C434 1.389 . S
C433 H412 0.950 . S
C433 C432 1.373 . S
C433 C449 1.377 . S
C434 C432 1.389 . S
C434 C435 1.524 . S
C434 C448 1.377 . S
C435 C434 1.524 . S
C435 C436 1.397 . S
C435 C440 1.363 . S
C436 H413 0.950 . S
C436 C435 1.397 . S
C436 C437 1.334 . S
C437 H414 0.950 . S
C437 C436 1.334 . S
C437 C438 1.287 . S
C438 C437 1.287 . S
C438 C439 1.524 . S
C438 H457 0.913 . S
C439 H415 0.950 . S
C439 C438 1.524 . S
C439 C440 1.415 . S
C440 H416 0.950 . S
C440 C435 1.363 . S
C440 C439 1.415 . S
C441 H417 0.951 1_545 S
C441 C442 1.366 . S
C441 C443 1.388 . S
C442 C441 1.366 . S
C442 C446 1.385 . S
C443 H418 0.951 1_545 S
C443 C441 1.388 . S
C443 C444 1.366 . S
C444 C443 1.366 . S
C444 C445 1.414 . S
C444 C447 1.499 . S
C445 H419 0.950 . S
C445 C444 1.414 . S
C445 C446 1.374 . S
C446 H420 0.950 . S
C446 C442 1.385 . S
C446 C445 1.374 . S
C447 C444 1.499 . S
C447 C448 1.373 . S
C447 C449 1.389 . S
C448 H421 0.950 . S
C448 C434 1.377 . S
C448 C447 1.373 . S
C449 C433 1.377 . S
C449 C447 1.389 . S
C449 C450 1.524 . S
C450 C449 1.524 . S
C450 C451 1.397 . S
C450 C455 1.363 1_545 S
C451 H422 0.950 . S
C451 C450 1.397 . S
C451 C452 1.334 1_545 S
C452 H423 0.950 . S
C452 C451 1.334 1_565 S
C452 C453 1.287 . S
C453 C452 1.287 . S
C453 C454 1.524 . S
C453 H456 0.999 . S
C454 H424 0.950 . S
C454 C453 1.524 . S
C454 C455 1.415 . S
C455 H425 0.950 . S
C455 C450 1.363 1_565 S
C455 C454 1.415 . S
H456 C453 0.999 . S
H457 C438 0.913 . S
H458 C476 0.951 . S
H459 C478 0.951 . S
H460 C480 0.950 . S
H461 C481 0.950 . S
H462 C483 0.950 . S
H463 C486 0.950 . S
H464 C487 0.950 . S
H465 C489 0.950 . S
H466 C490 0.950 . S
H467 C491 0.951 . S
H468 C493 0.951 . S
H469 C495 0.950 . S
H470 C496 0.950 . S
H471 C498 0.950 . S
H472 C501 0.950 . S
H473 C502 0.950 . S
H474 C504 0.950 . S
H475 C505 0.950 . S
C476 H458 0.951 . S
C476 C477 1.366 . S
C476 C478 1.388 . S
C477 C476 1.366 . S
C477 C481 1.385 . S
C478 H459 0.951 . S
C478 C476 1.388 . S
C478 C479 1.366 . S
C479 C478 1.366 . S
C479 C480 1.414 . S
C479 C482 1.499 . S
C480 H460 0.950 . S
C480 C479 1.414 . S
C480 C481 1.374 . S
C481 H461 0.950 . S
C481 C477 1.385 . S
C481 C480 1.374 . S
C482 C479 1.499 . S
C482 C483 1.373 . S
C482 C484 1.389 . S
C483 H462 0.950 . S
C483 C482 1.373 . S
C483 C499 1.377 . S
C484 C482 1.389 . S
C484 C485 1.524 . S
C484 C498 1.377 . S
C485 C484 1.524 . S
C485 C486 1.397 . S
C485 C490 1.363 . S
C486 H463 0.950 . S
C486 C485 1.397 . S
C486 C487 1.334 . S
C487 H464 0.950 . S
C487 C486 1.334 . S
C487 C488 1.287 . S
C488 C487 1.287 . S
C488 C489 1.524 . S
C488 H507 0.913 . S
C489 H465 0.950 . S
C489 C488 1.524 . S
C489 C490 1.415 . S
C490 H466 0.950 . S
C490 C485 1.363 . S
C490 C489 1.415 . S
C491 H467 0.951 . S
C491 C492 1.366 . S
C491 C493 1.388 . S
C492 C491 1.366 . S
C492 C496 1.385 . S
C493 H468 0.951 . S
C493 C491 1.388 . S
C493 C494 1.366 . S
C494 C493 1.366 . S
C494 C495 1.414 . S
C494 C497 1.499 . S
C495 H469 0.950 . S
C495 C494 1.414 . S
C495 C496 1.374 . S
C496 H470 0.950 . S
C496 C492 1.385 . S
C496 C495 1.374 . S
C497 C494 1.499 . S
C497 C498 1.373 . S
C497 C499 1.389 . S
C498 H471 0.950 . S
C498 C484 1.377 . S
C498 C497 1.373 . S
C499 C483 1.377 . S
C499 C497 1.389 . S
C499 C500 1.524 . S
C500 C499 1.524 . S
C500 C501 1.397 . S
C500 C505 1.363 . S
C501 H472 0.950 . S
C501 C500 1.397 . S
C501 C502 1.334 . S
C502 H473 0.950 . S
C502 C501 1.334 . S
C502 C503 1.287 . S
C503 C502 1.287 . S
C503 C504 1.524 . S
C503 H506 0.999 . S
C504 H474 0.950 . S
C504 C503 1.524 . S
C504 C505 1.415 . S
C505 H475 0.950 . S
C505 C500 1.363 . S
C505 C504 1.415 . S
H506 C503 0.999 . S
H507 C488 0.913 . S
H508 C526 0.951 . S
H509 C528 0.951 . S
H510 C530 0.950 . S
H511 C531 0.950 . S
H512 C533 0.950 . S
H513 C536 0.950 . S
H514 C537 0.950 . S
H515 C539 0.950 . S
H516 C540 0.950 . S
H517 C541 0.951 . S
H518 C543 0.951 . S
H519 C545 0.950 . S
H520 C546 0.950 . S
H521 C548 0.950 . S
H522 C551 0.950 . S
H523 C552 0.950 . S
H524 C554 0.950 . S
H525 C555 0.950 . S
C526 H508 0.951 . S
C526 C527 1.366 . S
C526 C528 1.388 . S
C527 C526 1.366 . S
C527 C531 1.385 . S
C528 H509 0.951 . S
C528 C526 1.388 . S
C528 C529 1.366 . S
C529 C528 1.366 . S
C529 C530 1.414 . S
C529 C532 1.499 . S
C530 H510 0.950 . S
C530 C529 1.414 . S
C530 C531 1.374 . S
C531 H511 0.950 . S
C531 C527 1.385 . S
C531 C530 1.374 . S
C532 C529 1.499 . S
C532 C533 1.373 . S
C532 C534 1.389 . S
C533 H512 0.950 . S
C533 C532 1.373 . S
C533 C549 1.377 . S
C534 C532 1.389 . S
C534 C535 1.524 . S
C534 C548 1.377 . S
C535 C534 1.524 . S
C535 C536 1.397 . S
C535 C540 1.363 . S
C536 H513 0.950 . S
C536 C535 1.397 . S
C536 C537 1.334 . S
C537 H514 0.950 . S
C537 C536 1.334 . S
C537 C538 1.287 . S
C538 C537 1.287 . S
C538 C539 1.524 . S
C538 H557 0.913 . S
C539 H515 0.950 . S
C539 C538 1.524 . S
C539 C540 1.415 . S
C540 H516 0.950 . S
C540 C535 1.363 . S
C540 C539 1.415 . S
C541 H517 0.951 . S
C541 C542 1.366 . S
C541 C543 1.388 . S
C542 C541 1.366 . S
C542 C546 1.385 . S
C543 H518 0.951 . S
C543 C541 1.388 . S
C543 C544 1.366 . S
C544 C543 1.366 . S
C544 C545 1.414 . S
C544 C547 1.499 . S
C545 H519 0.950 . S
C545 C544 1.414 . S
C545 C546 1.374 . S
C546 H520 0.950 . S
C546 C542 1.385 . S
C546 C545 1.374 . S
C547 C544 1.499 . S
C547 C548 1.373 . S
C547 C549 1.389 . S
C548 H521 0.950 . S
C548 C534 1.377 . S
C548 C547 1.373 . S
C549 C533 1.377 . S
C549 C547 1.389 . S
C549 C550 1.524 . S
C550 C549 1.524 . S
C550 C551 1.397 . S
C550 C555 1.363 . S
C551 H522 0.950 . S
C551 C550 1.397 . S
C551 C552 1.334 . S
C552 H523 0.950 . S
C552 C551 1.334 . S
C552 C553 1.287 . S
C553 C552 1.287 . S
C553 C554 1.524 . S
C553 H556 0.999 . S
C554 H524 0.950 . S
C554 C553 1.524 . S
C554 C555 1.415 . S
C555 H525 0.950 . S
C555 C550 1.363 . S
C555 C554 1.415 . S
H556 C553 0.999 . S
H557 C538 0.913 . S
H558 C576 0.951 . S
H559 C578 0.951 . S
H560 C580 0.950 . S
H561 C581 0.950 . S
H562 C583 0.950 . S
H563 C586 0.950 . S
H564 C587 0.950 . S
H565 C589 0.950 . S
H566 C590 0.950 . S
H567 C591 0.951 . S
H568 C593 0.951 . S
H569 C595 0.950 . S
H570 C596 0.950 . S
H571 C598 0.950 . S
H572 C601 0.950 . S
H573 C602 0.950 . S
H574 C604 0.950 . S
H575 C605 0.950 . S
C576 H558 0.951 . S
C576 C577 1.366 . S
C576 C578 1.388 . S
C577 C576 1.366 . S
C577 C581 1.385 . S
C578 H559 0.951 . S
C578 C576 1.388 . S
C578 C579 1.366 . S
C579 C578 1.366 . S
C579 C580 1.414 . S
C579 C582 1.499 . S
C580 H560 0.950 . S
C580 C579 1.414 . S
C580 C581 1.374 . S
C581 H561 0.950 . S
C581 C577 1.385 . S
C581 C580 1.374 . S
C582 C579 1.499 . S
C582 C583 1.373 . S
C582 C584 1.389 . S
C583 H562 0.950 . S
C583 C582 1.373 . S
C583 C599 1.377 . S
C584 C582 1.389 . S
C584 C585 1.524 . S
C584 C598 1.377 . S
C585 C584 1.524 . S
C585 C586 1.397 . S
C585 C590 1.363 . S
C586 H563 0.950 . S
C586 C585 1.397 . S
C586 C587 1.334 . S
C587 H564 0.950 . S
C587 C586 1.334 . S
C587 C588 1.287 . S
C588 C587 1.287 . S
C588 C589 1.524 . S
C588 H607 0.913 . S
C589 H565 0.950 . S
C589 C588 1.524 . S
C589 C590 1.415 . S
C590 H566 0.950 . S
C590 C585 1.363 . S
C590 C589 1.415 . S
C591 H567 0.951 . S
C591 C592 1.366 . S
C591 C593 1.388 . S
C592 C591 1.366 . S
C592 C596 1.385 . S
C593 H568 0.951 . S
C593 C591 1.388 . S
C593 C594 1.366 . S
C594 C593 1.366 . S
C594 C595 1.414 . S
C594 C597 1.499 . S
C595 H569 0.950 . S
C595 C594 1.414 . S
C595 C596 1.374 . S
C596 H570 0.950 . S
C596 C592 1.385 . S
C596 C595 1.374 . S
C597 C594 1.499 . S
C597 C598 1.373 . S
C597 C599 1.389 . S
C598 H571 0.950 . S
C598 C584 1.377 . S
C598 C597 1.373 . S
C599 C583 1.377 . S
C599 C597 1.389 . S
C599 C600 1.524 . S
C600 C599 1.524 . S
C600 C601 1.397 1_455 S
C600 C605 1.363 . S
C601 H572 0.950 . S
C601 C600 1.397 1_655 S
C601 C602 1.334 . S
C602 H573 0.950 . S
C602 C601 1.334 . S
C602 C603 1.287 . S
C603 C602 1.287 . S
C603 C604 1.524 . S
C603 H606 0.999 . S
C604 H574 0.950 . S
C604 C603 1.524 . S
C604 C605 1.415 1_655 S
C605 H575 0.950 . S
C605 C600 1.363 . S
C605 C604 1.415 1_455 S
H606 C603 0.999 . S
H607 C588 0.913 . S
H608 C626 0.951 . S
H609 C628 0.951 . S
H610 C630 0.950 . S
H611 C631 0.950 . S
H612 C633 0.950 . S
H613 C636 0.950 . S
H614 C637 0.950 . S
H615 C639 0.950 . S
H616 C640 0.950 . S
H617 C641 0.951 . S
H618 C643 0.951 . S
H619 C645 0.950 . S
H620 C646 0.950 . S
H621 C648 0.950 . S
H622 C651 0.950 . S
H623 C652 0.950 . S
H624 C654 0.950 . S
H625 C655 0.950 . S
C626 H608 0.951 . S
C626 C627 1.366 . S
C626 C628 1.388 . S
C627 C626 1.366 . S
C627 C631 1.385 . S
C628 H609 0.951 . S
C628 C626 1.388 . S
C628 C629 1.366 . S
C629 C628 1.366 . S
C629 C630 1.414 . S
C629 C632 1.499 1_554 S
C630 H610 0.950 . S
C630 C629 1.414 . S
C630 C631 1.374 . S
C631 H611 0.950 . S
C631 C627 1.385 . S
C631 C630 1.374 . S
C632 C629 1.499 1_556 S
C632 C633 1.373 . S
C632 C634 1.389 1_556 S
C633 H612 0.950 . S
C633 C632 1.373 . S
C633 C649 1.377 . S
C634 C632 1.389 1_554 S
C634 C635 1.524 . S
C634 C648 1.377 1_554 S
C635 C634 1.524 . S
C635 C636 1.397 1_565 S
C635 C640 1.363 . S
C636 H613 0.950 . S
C636 C635 1.397 1_545 S
C636 C637 1.334 . S
C637 H614 0.950 . S
C637 C636 1.334 . S
C637 C638 1.287 . S
C638 C637 1.287 . S
C638 C639 1.524 . S
C638 H657 0.913 . S
C639 H615 0.950 . S
C639 C638 1.524 . S
C639 C640 1.415 1_545 S
C640 H616 0.950 . S
C640 C635 1.363 . S
C640 C639 1.415 1_565 S
C641 H617 0.951 . S
C641 C642 1.366 . S
C641 C643 1.388 . S
C642 C641 1.366 . S
C642 C646 1.385 . S
C643 H618 0.951 . S
C643 C641 1.388 . S
C643 C644 1.366 . S
C644 C643 1.366 . S
C644 C645 1.414 . S
C644 C647 1.499 . S
C645 H619 0.950 . S
C645 C644 1.414 . S
C645 C646 1.374 . S
C646 H620 0.950 . S
C646 C642 1.385 . S
C646 C645 1.374 . S
C647 C644 1.499 . S
C647 C648 1.373 . S
C647 C649 1.389 . S
C648 H621 0.950 . S
C648 C634 1.377 1_556 S
C648 C647 1.373 . S
C649 C633 1.377 . S
C649 C647 1.389 . S
C649 C650 1.524 . S
C650 C649 1.524 . S
C650 C651 1.397 . S
C650 C655 1.363 . S
C651 H622 0.950 . S
C651 C650 1.397 . S
C651 C652 1.334 . S
C652 H623 0.950 . S
C652 C651 1.334 . S
C652 C653 1.287 . S
C653 C652 1.287 . S
C653 C654 1.524 . S
C653 H656 0.999 . S
C654 H624 0.950 . S
C654 C653 1.524 . S
C654 C655 1.415 . S
C655 H625 0.950 . S
C655 C650 1.363 . S
C655 C654 1.415 . S
H656 C653 0.999 . S
H657 C638 0.913 . S
H658 C676 0.951 . S
H659 C678 0.951 . S
H660 C680 0.950 . S
H661 C681 0.950 . S
H662 C683 0.950 . S
H663 C686 0.950 . S
H664 C687 0.950 . S
H665 C689 0.950 . S
H666 C690 0.950 1_556 S
H667 C691 0.951 . S
H668 C693 0.951 . S
H669 C695 0.950 . S
H670 C696 0.950 . S
H671 C698 0.950 . S
H672 C701 0.950 . S
H673 C702 0.950 . S
H674 C704 0.950 . S
H675 C705 0.950 . S
C676 H658 0.951 . S
C676 C677 1.366 . S
C676 C678 1.388 . S
C677 C676 1.366 . S
C677 C681 1.385 . S
C678 H659 0.951 . S
C678 C676 1.388 . S
C678 C679 1.366 . S
C679 C678 1.366 . S
C679 C680 1.414 . S
C679 C682 1.499 1_554 S
C680 H660 0.950 . S
C680 C679 1.414 . S
C680 C681 1.374 . S
C681 H661 0.950 . S
C681 C677 1.385 . S
C681 C680 1.374 . S
C682 C679 1.499 1_556 S
C682 C683 1.373 . S
C682 C684 1.389 . S
C683 H662 0.950 . S
C683 C682 1.373 . S
C683 C699 1.377 . S
C684 C682 1.389 . S
C684 C685 1.524 1_556 S
C684 C698 1.377 . S
C685 C684 1.524 1_554 S
C685 C686 1.397 . S
C685 C690 1.363 . S
C686 H663 0.950 . S
C686 C685 1.397 . S
C686 C687 1.334 . S
C687 H664 0.950 . S
C687 C686 1.334 . S
C687 C688 1.287 . S
C688 C687 1.287 . S
C688 C689 1.524 . S
C688 H707 0.913 . S
C689 H665 0.950 . S
C689 C688 1.524 . S
C689 C690 1.415 . S
C690 H666 0.950 1_554 S
C690 C685 1.363 . S
C690 C689 1.415 . S
C691 H667 0.951 . S
C691 C692 1.366 . S
C691 C693 1.388 . S
C692 C691 1.366 . S
C692 C696 1.385 . S
C693 H668 0.951 . S
C693 C691 1.388 . S
C693 C694 1.366 . S
C694 C693 1.366 . S
C694 C695 1.414 . S
C694 C697 1.499 . S
C695 H669 0.950 . S
C695 C694 1.414 . S
C695 C696 1.374 . S
C696 H670 0.950 . S
C696 C692 1.385 . S
C696 C695 1.374 . S
C697 C694 1.499 . S
C697 C698 1.373 . S
C697 C699 1.389 . S
C698 H671 0.950 . S
C698 C684 1.377 . S
C698 C697 1.373 . S
C699 C683 1.377 . S
C699 C697 1.389 . S
C699 C700 1.524 . S
C700 C699 1.524 . S
C700 C701 1.397 . S
C700 C705 1.363 . S
C701 H672 0.950 . S
C701 C700 1.397 . S
C701 C702 1.334 . S
C702 H673 0.950 . S
C702 C701 1.334 . S
C702 C703 1.287 . S
C703 C702 1.287 . S
C703 C704 1.524 . S
C703 H706 0.999 . S
C704 H674 0.950 . S
C704 C703 1.524 . S
C704 C705 1.415 . S
C705 H675 0.950 . S
C705 C700 1.363 . S
C705 C704 1.415 . S
H706 C703 0.999 . S
H707 C688 0.913 . S
H708 C726 0.951 . S
H709 C728 0.951 1_556 S
H710 C730 0.950 . S
H711 C731 0.950 . S
H712 C733 0.950 1_554 S
H713 C736 0.950 . S
H714 C737 0.950 . S
H715 C739 0.950 . S
H716 C740 0.950 . S
H717 C741 0.951 . S
H718 C743 0.951 . S
H719 C745 0.950 . S
H720 C746 0.950 . S
H721 C748 0.950 . S
H722 C751 0.950 . S
H723 C752 0.950 . S
H724 C754 0.950 . S
H725 C755 0.950 . S
C726 H708 0.951 . S
C726 C727 1.366 . S
C726 C728 1.388 . S
C727 C726 1.366 . S
C727 C731 1.385 . S
C728 H709 0.951 1_554 S
C728 C726 1.388 . S
C728 C729 1.366 . S
C729 C728 1.366 . S
C729 C730 1.414 . S
C729 C732 1.499 1_554 S
C730 H710 0.950 . S
C730 C729 1.414 . S
C730 C731 1.374 . S
C731 H711 0.950 . S
C731 C727 1.385 . S
C731 C730 1.374 . S
C732 C729 1.499 1_556 S
C732 C733 1.373 . S
C732 C734 1.389 . S
C733 H712 0.950 1_556 S
C733 C732 1.373 . S
C733 C749 1.377 . S
C734 C732 1.389 . S
C734 C735 1.524 . S
C734 C748 1.377 . S
C735 C734 1.524 . S
C735 C736 1.397 . S
C735 C740 1.363 . S
C736 H713 0.950 . S
C736 C735 1.397 . S
C736 C737 1.334 . S
C737 H714 0.950 . S
C737 C736 1.334 . S
C737 C738 1.287 . S
C738 C737 1.287 . S
C738 C739 1.524 . S
C738 H757 0.913 . S
C739 H715 0.950 . S
C739 C738 1.524 . S
C739 C740 1.415 . S
C740 H716 0.950 . S
C740 C735 1.363 . S
C740 C739 1.415 . S
C741 H717 0.951 . S
C741 C742 1.366 . S
C741 C743 1.388 . S
C742 C741 1.366 . S
C742 C746 1.385 . S
C743 H718 0.951 . S
C743 C741 1.388 . S
C743 C744 1.366 . S
C744 C743 1.366 . S
C744 C745 1.414 . S
C744 C747 1.499 . S
C745 H719 0.950 . S
C745 C744 1.414 . S
C745 C746 1.374 . S
C746 H720 0.950 . S
C746 C742 1.385 . S
C746 C745 1.374 . S
C747 C744 1.499 . S
C747 C748 1.373 . S
C747 C749 1.389 . S
C748 H721 0.950 . S
C748 C734 1.377 . S
C748 C747 1.373 . S
C749 C733 1.377 . S
C749 C747 1.389 . S
C749 C750 1.524 . S
C750 C749 1.524 . S
C750 C751 1.397 . S
C750 C755 1.363 1_556 S
C751 H722 0.950 . S
C751 C750 1.397 . S
C751 C752 1.334 . S
C752 H723 0.950 . S
C752 C751 1.334 . S
C752 C753 1.287 . S
C753 C752 1.287 . S
C753 C754 1.524 1_556 S
C753 H756 0.999 . S
C754 H724 0.950 . S
C754 C753 1.524 1_554 S
C754 C755 1.415 . S
C755 H725 0.950 . S
C755 C750 1.363 1_554 S
C755 C754 1.415 . S
H756 C753 0.999 . S
H757 C738 0.913 . S
H758 C776 0.951 . S
H759 C778 0.951 1_556 S
H760 C780 0.950 . S
H761 C781 0.950 . S
H762 C783 0.950 1_554 S
H763 C786 0.950 1_554 S
H764 C787 0.950 1_554 S
H765 C789 0.950 . S
H766 C790 0.950 . S
H767 C791 0.951 . S
H768 C793 0.951 . S
H769 C795 0.950 . S
H770 C796 0.950 . S
H771 C798 0.950 . S
H772 C801 0.950 . S
H773 C802 0.950 . S
H774 C804 0.950 . S
H775 C805 0.942 1_554 S
C776 H758 0.951 . S
C776 C777 1.366 . S
C776 C778 1.388 . S
C777 C776 1.366 . S
C777 C781 1.385 . S
C778 H759 0.951 1_554 S
C778 C776 1.388 . S
C778 C779 1.366 . S
C779 C778 1.366 . S
C779 C780 1.414 . S
C779 C782 1.499 1_554 S
C780 H760 0.950 . S
C780 C779 1.414 . S
C780 C781 1.374 . S
C781 H761 0.950 . S
C781 C777 1.385 . S
C781 C780 1.374 . S
C782 C779 1.499 1_556 S
C782 C783 1.373 . S
C782 C784 1.389 . S
C783 H762 0.950 1_556 S
C783 C782 1.373 . S
C783 C799 1.377 . S
C784 C782 1.389 . S
C784 C785 1.524 . S
C784 C798 1.377 . S
C785 C784 1.524 . S
C785 C786 1.397 . S
C785 C790 1.363 . S
C786 H763 0.950 1_556 S
C786 C785 1.397 . S
C786 C787 1.334 . S
C787 H764 0.950 1_556 S
C787 C786 1.334 . S
C787 C788 1.287 . S
C788 C787 1.287 . S
C788 C789 1.524 . S
C788 H807 0.913 . S
C789 H765 0.950 . S
C789 C788 1.524 . S
C789 C790 1.415 . S
C790 H766 0.950 . S
C790 C785 1.363 . S
C790 C789 1.415 . S
C791 H767 0.951 . S
C791 C792 1.366 . S
C791 C793 1.388 . S
C792 C791 1.366 . S
C792 C796 1.385 . S
C793 H768 0.951 . S
C793 C791 1.388 . S
C793 C794 1.366 . S
C794 C793 1.366 . S
C794 C795 1.414 . S
C794 C797 1.499 . S
C795 H769 0.950 . S
C795 C794 1.414 . S
C795 C796 1.374 . S
C796 H770 0.950 . S
C796 C792 1.385 . S
C796 C795 1.374 . S
C797 C794 1.499 . S
C797 C798 1.373 . S
C797 C799 1.389 . S
C798 H771 0.950 . S
C798 C784 1.377 . S
C798 C797 1.373 . S
C799 C783 1.377 . S
C799 C797 1.389 . S
C799 C800 1.524 1_655 S
C800 C799 1.524 1_455 S
C800 C801 1.397 . S
C800 C805 1.372 . S
C801 H772 0.950 . S
C801 C800 1.397 . S
C801 C802 1.334 . S
C802 H773 0.950 . S
C802 C801 1.334 . S
C802 C803 1.287 . S
C803 C802 1.287 . S
C803 C804 1.524 1_556 S
C803 H806 0.999 . S
C804 H774 0.950 . S
C804 C803 1.524 1_554 S
C804 C805 1.414 1_554 S
C805 H775 0.942 1_556 S
C805 C800 1.372 . S
C805 C804 1.414 1_556 S
H806 C803 0.999 . S
H807 C788 0.913 . S
H808 C826 0.951 . S
H809 C828 0.951 . S
H810 C830 0.950 . S
H811 C831 0.950 . S
H812 C833 0.950 . S
H813 C836 0.950 . S
H814 C837 0.950 . S
H815 C839 0.950 . S
H816 C840 0.950 . S
H817 C841 0.951 . S
H818 C843 0.951 . S
H819 C845 0.950 1_655 S
H820 C846 0.950 . S
H821 C848 0.950 1_655 S
H822 C851 0.950 . S
H823 C852 0.950 . S
H824 C854 0.950 . S
H825 C855 0.950 . S
C826 H808 0.951 . S
C826 C827 1.366 . S
C826 C828 1.388 . S
C827 C826 1.366 . S
C827 C831 1.385 . S
C828 H809 0.951 . S
C828 C826 1.388 . S
C828 C829 1.366 . S
C829 C828 1.366 . S
C829 C830 1.414 . S
C829 C832 1.499 . S
C830 H810 0.950 . S
C830 C829 1.414 . S
C830 C831 1.374 . S
C831 H811 0.950 . S
C831 C827 1.385 . S
C831 C830 1.374 . S
C832 C829 1.499 . S
C832 C833 1.373 . S
C832 C834 1.389 . S
C833 H812 0.950 . S
C833 C832 1.373 . S
C833 C849 1.377 . S
C834 C832 1.389 . S
C834 C835 1.524 . S
C834 C848 1.377 . S
C835 C834 1.524 . S
C835 C836 1.397 . S
C835 C840 1.363 1_455 S
C836 H813 0.950 . S
C836 C835 1.397 . S
C836 C837 1.334 1_455 S
C837 H814 0.950 . S
C837 C836 1.334 1_655 S
C837 C838 1.287 . S
C838 C837 1.287 . S
C838 C839 1.524 . S
C838 H857 0.913 . S
C839 H815 0.950 . S
C839 C838 1.524 . S
C839 C840 1.415 . S
C840 H816 0.950 . S
C840 C835 1.363 1_655 S
C840 C839 1.415 . S
C841 H817 0.951 . S
C841 C842 1.364 1_455 S
C841 C843 1.388 . S
C842 C841 1.364 1_655 S
C842 C846 1.385 . S
C843 H818 0.951 . S
C843 C841 1.388 . S
C843 C844 1.366 . S
C844 C843 1.366 . S
C844 C845 1.414 . S
C844 C847 1.499 . S
C845 H819 0.950 1_455 S
C845 C844 1.414 . S
C845 C846 1.374 1_455 S
C846 H820 0.950 . S
C846 C842 1.385 . S
C846 C845 1.374 1_655 S
C847 C844 1.499 . S
C847 C848 1.373 . S
C847 C849 1.389 . S
C848 H821 0.950 1_455 S
C848 C834 1.377 . S
C848 C847 1.373 . S
C849 C833 1.377 . S
C849 C847 1.389 . S
C849 C850 1.524 . S
C850 C849 1.524 . S
C850 C851 1.397 . S
C850 C855 1.363 . S
C851 H822 0.950 . S
C851 C850 1.397 . S
C851 C852 1.334 . S
C852 H823 0.950 . S
C852 C851 1.334 . S
C852 C853 1.287 . S
C853 C852 1.287 . S
C853 C854 1.524 . S
C853 H856 0.999 . S
C854 H824 0.950 . S
C854 C853 1.524 . S
C854 C855 1.415 . S
C855 H825 0.950 . S
C855 C850 1.363 . S
C855 C854 1.415 . S
H856 C853 0.999 . S
H857 C838 0.913 . S
H858 C876 0.951 . S
H859 C878 0.951 . S
H860 C880 0.950 . S
H861 C881 0.950 . S
H862 C883 0.950 . S
H863 C886 0.950 . S
H864 C887 0.950 . S
H865 C889 0.950 . S
H866 C890 0.950 . S
H867 C891 0.951 . S
H868 C893 0.951 . S
H869 C895 0.950 . S
H870 C896 0.950 . S
H871 C898 0.950 . S
H872 C901 0.950 . S
H873 C902 0.950 . S
H874 C904 0.950 . S
H875 C905 0.950 . S
C876 H858 0.951 . S
C876 C877 1.366 . S
C876 C878 1.388 . S
C877 C876 1.366 . S
C877 C881 1.385 . S
C878 H859 0.951 . S
C878 C876 1.388 . S
C878 C879 1.366 . S
C879 C878 1.366 . S
C879 C880 1.414 . S
C879 C882 1.499 . S
C880 H860 0.950 . S
C880 C879 1.414 . S
C880 C881 1.374 . S
C881 H861 0.950 . S
C881 C877 1.385 . S
C881 C880 1.374 . S
C882 C879 1.499 . S
C882 C883 1.373 . S
C882 C884 1.389 . S
C883 H862 0.950 . S
C883 C882 1.373 . S
C883 C899 1.377 . S
C884 C882 1.389 . S
C884 C885 1.524 . S
C884 C898 1.377 . S
C885 C884 1.524 . S
C885 C886 1.397 . S
C885 C890 1.363 1_545 S
C886 H863 0.950 . S
C886 C885 1.397 . S
C886 C887 1.334 . S
C887 H864 0.950 . S
C887 C886 1.334 . S
C887 C888 1.287 1_545 S
C888 C887 1.287 1_565 S
C888 C889 1.524 . S
C888 H907 0.913 . S
C889 H865 0.950 . S
C889 C888 1.524 . S
C889 C890 1.415 . S
C890 H866 0.950 . S
C890 C885 1.363 1_565 S
C890 C889 1.415 . S
C891 H867 0.951 . S
C891 C892 1.352 1_545 S
C891 C893 1.388 . S
C892 C891 1.352 1_565 S
C892 C896 1.393 . S
C893 H868 0.951 . S
C893 C891 1.388 . S
C893 C894 1.366 . S
C894 C893 1.366 . S
C894 C895 1.414 1_545 S
C894 C897 1.499 . S
C895 H869 0.950 . S
C895 C894 1.414 1_565 S
C895 C896 1.374 . S
C896 H870 0.950 . S
C896 C892 1.393 . S
C896 C895 1.374 . S
C897 C894 1.499 . S
C897 C898 1.373 . S
C897 C899 1.389 . S
C898 H871 0.950 . S
C898 C884 1.377 . S
C898 C897 1.373 . S
C899 C883 1.377 . S
C899 C897 1.389 . S
C899 C900 1.524 . S
C900 C899 1.524 . S
C900 C901 1.397 . S
C900 C905 1.363 . S
C901 H872 0.950 . S
C901 C900 1.397 . S
C901 C902 1.334 . S
C902 H873 0.950 . S
C902 C901 1.334 . S
C902 C903 1.287 . S
C903 C902 1.287 . S
C903 C904 1.524 . S
C903 H906 0.999 . S
C904 H874 0.950 . S
C904 C903 1.524 . S
C904 C905 1.415 . S
C905 H875 0.950 . S
C905 C900 1.363 . S
C905 C904 1.415 . S
H906 C903 0.999 . S
H907 C888 0.913 . S
H908 C926 0.951 . S
H909 C928 0.951 . S
H910 C930 0.950 . S
H911 C931 0.950 . S
H912 C933 0.950 . S
H913 C936 0.950 . S
H914 C937 0.950 . S
H915 C939 0.950 . S
H916 C940 0.950 . S
H917 C941 0.951 . S
H918 C943 0.951 . S
H919 C945 0.950 . S
H920 C946 0.950 . S
H921 C948 0.950 . S
H922 C951 0.950 . S
H923 C952 0.950 . S
H924 C954 0.950 . S
H925 C955 0.950 . S
C926 H908 0.951 . S
C926 C927 1.366 . S
C926 C928 1.388 . S
C927 C926 1.366 . S
C927 C931 1.385 . S
C928 H909 0.951 . S
C928 C926 1.388 . S
C928 C929 1.366 . S
C929 C928 1.366 . S
C929 C930 1.414 . S
C929 C932 1.499 . S
C930 H910 0.950 . S
C930 C929 1.414 . S
C930 C931 1.374 . S
C931 H911 0.950 . S
C931 C927 1.385 . S
C931 C930 1.374 . S
C932 C929 1.499 . S
C932 C933 1.373 . S
C932 C934 1.389 . S
C933 H912 0.950 . S
C933 C932 1.373 . S
C933 C949 1.377 . S
C934 C932 1.389 . S
C934 C935 1.524 . S
C934 C948 1.377 . S
C935 C934 1.524 . S
C935 C936 1.397 . S
C935 C940 1.363 . S
C936 H913 0.950 . S
C936 C935 1.397 . S
C936 C937 1.334 . S
C937 H914 0.950 . S
C937 C936 1.334 . S
C937 C938 1.287 . S
C938 C937 1.287 . S
C938 C939 1.524 . S
C938 H957 0.913 . S
C939 H915 0.950 . S
C939 C938 1.524 . S
C939 C940 1.415 . S
C940 H916 0.950 . S
C940 C935 1.363 . S
C940 C939 1.415 . S
C941 H917 0.951 . S
C941 C942 1.366 . S
C941 C943 1.388 . S
C942 C941 1.366 . S
C942 C946 1.385 . S
C943 H918 0.951 . S
C943 C941 1.388 . S
C943 C944 1.366 . S
C944 C943 1.366 . S
C944 C945 1.414 . S
C944 C947 1.499 . S
C945 H919 0.950 . S
C945 C944 1.414 . S
C945 C946 1.374 . S
C946 H920 0.950 . S
C946 C942 1.385 . S
C946 C945 1.374 . S
C947 C944 1.499 . S
C947 C948 1.373 . S
C947 C949 1.389 . S
C948 H921 0.950 . S
C948 C934 1.377 . S
C948 C947 1.373 . S
C949 C933 1.377 . S
C949 C947 1.389 . S
C949 C950 1.524 . S
C950 C949 1.524 . S
C950 C951 1.397 . S
C950 C955 1.363 . S
C951 H922 0.950 . S
C951 C950 1.397 . S
C951 C952 1.334 . S
C952 H923 0.950 . S
C952 C951 1.334 . S
C952 C953 1.287 . S
C953 C952 1.287 . S
C953 C954 1.524 . S
C953 H956 0.999 . S
C954 H924 0.950 . S
C954 C953 1.524 . S
C954 C955 1.415 . S
C955 H925 0.950 . S
C955 C950 1.363 . S
C955 C954 1.415 . S
H956 C953 0.999 . S
H957 C938 0.913 . S
H958 C976 0.951 . S
H959 C978 0.951 . S
H960 C980 0.950 . S
H961 C981 0.950 . S
H962 C983 0.950 . S
H963 C986 0.950 . S
H964 C987 0.950 . S
H965 C989 0.950 1_556 S
H966 C990 0.950 . S
H967 C991 0.951 . S
H968 C993 0.951 . S
H969 C995 0.950 . S
H970 C996 0.950 . S
H971 C998 0.950 . S
H972 C1001 0.950 . S
H973 C1002 0.950 . S
H974 C1004 0.950 . S
H975 C1005 0.950 . S
C976 H958 0.951 . S
C976 C977 1.366 . S
C976 C978 1.388 . S
C977 C976 1.366 . S
C977 C981 1.385 . S
C978 H959 0.951 . S
C978 C976 1.388 . S
C978 C979 1.366 . S
C979 C978 1.366 . S
C979 C980 1.414 . S
C979 C982 1.499 . S
C980 H960 0.950 . S
C980 C979 1.414 . S
C980 C981 1.374 . S
C981 H961 0.950 . S
C981 C977 1.385 . S
C981 C980 1.374 . S
C982 C979 1.499 . S
C982 C983 1.373 . S
C982 C984 1.389 . S
C983 H962 0.950 . S
C983 C982 1.373 . S
C983 C999 1.377 . S
C984 C982 1.389 . S
C984 C985 1.524 . S
C984 C998 1.377 . S
C985 C984 1.524 . S
C985 C986 1.397 . S
C985 C990 1.363 . S
C986 H963 0.950 . S
C986 C985 1.397 . S
C986 C987 1.334 . S
C987 H964 0.950 . S
C987 C986 1.334 . S
C987 C988 1.283 1_554 S
C988 C987 1.283 1_556 S
C988 C989 1.524 1_556 S
C988 H1007 0.917 . S
C989 H965 0.950 1_554 S
C989 C988 1.524 1_554 S
C989 C990 1.415 . S
C990 H966 0.950 . S
C990 C985 1.363 . S
C990 C989 1.415 . S
C991 H967 0.951 . S
C991 C992 1.366 . S
C991 C993 1.388 . S
C992 C991 1.366 . S
C992 C996 1.385 . S
C993 H968 0.951 . S
C993 C991 1.388 . S
C993 C994 1.366 . S
C994 C993 1.366 . S
C994 C995 1.414 . S
C994 C997 1.499 . S
C995 H969 0.950 . S
C995 C994 1.414 . S
C995 C996 1.374 . S
C996 H970 0.950 . S
C996 C992 1.385 . S
C996 C995 1.374 . S
C997 C994 1.499 . S
C997 C998 1.373 . S
C997 C999 1.389 . S
C998 H971 0.950 . S
C998 C984 1.377 . S
C998 C997 1.373 . S
C999 C983 1.377 . S
C999 C997 1.389 . S
C999 C1000 1.524 . S
C1000 C999 1.524 . S
C1000 C1001 1.397 . S
C1000 C1005 1.363 . S
C1001 H972 0.950 . S
C1001 C1000 1.397 . S
C1001 C1002 1.334 . S
C1002 H973 0.950 . S
C1002 C1001 1.334 . S
C1002 C1003 1.287 . S
C1003 C1002 1.287 . S
C1003 C1004 1.524 . S
C1003 H1006 0.999 . S
C1004 H974 0.950 . S
C1004 C1003 1.524 . S
C1004 C1005 1.415 . S
C1005 H975 0.950 . S
C1005 C1000 1.363 . S
C1005 C1004 1.415 . S
H1006 C1003 0.999 . S
H1007 C988 0.917 . S
H1008 C1026 0.951 . S
H1009 C1028 0.951 . S
H1010 C1030 0.950 . S
H1011 C1031 0.950 . S
H1012 C1033 0.950 . S
H1013 C1036 0.950 . S
H1014 C1037 0.950 . S
H1015 C1039 0.950 . S
H1016 C1040 0.950 . S
H1017 C1041 0.951 . S
H1018 C1043 0.951 . S
H1019 C1045 0.950 . S
H1020 C1046 0.950 . S
H1021 C1048 0.950 . S
H1022 C1051 0.950 1_554 S
H1023 C1052 0.950 1_554 S
H1024 C1054 0.950 . S
H1025 C1055 0.950 . S
C1026 H1008 0.951 . S
C1026 C1027 1.366 . S
C1026 C1028 1.388 . S
C1027 C1026 1.366 . S
C1027 C1031 1.385 . S
C1028 H1009 0.951 . S
C1028 C1026 1.388 . S
C1028 C1029 1.366 . S
C1029 C1028 1.366 . S
C1029 C1030 1.414 . S
C1029 C1032 1.499 . S
C1030 H1010 0.950 . S
C1030 C1029 1.414 . S
C1030 C1031 1.374 . S
C1031 H1011 0.950 . S
C1031 C1027 1.385 . S
C1031 C1030 1.374 . S
C1032 C1029 1.499 . S
C1032 C1033 1.373 . S
C1032 C1034 1.389 . S
C1033 H1012 0.950 . S
C1033 C1032 1.373 . S
C1033 C1049 1.377 1_554 S
C1034 C1032 1.389 . S
C1034 C1035 1.524 . S
C1034 C1048 1.377 1_554 S
C1035 C1034 1.524 . S
C1035 C1036 1.397 1_554 S
C1035 C1040 1.363 . S
C1036 H1013 0.950 . S
C1036 C1035 1.397 1_556 S
C1036 C1037 1.334 . S
C1037 H1014 0.950 . S
C1037 C1036 1.334 . S
C1037 C1038 1.287 1_556 S
C1038 C1037 1.287 1_554 S
C1038 C1039 1.524 . S
C1038 H1057 0.913 . S
C1039 H1015 0.950 . S
C1039 C1038 1.524 . S
C1039 C1040 1.415 . S
C1040 H1016 0.950 . S
C1040 C1035 1.363 . S
C1040 C1039 1.415 . S
C1041 H1017 0.951 . S
C1041 C1042 1.366 . S
C1041 C1043 1.388 . S
C1042 C1041 1.366 . S
C1042 C1046 1.385 1_455 S
C1043 H1018 0.951 . S
C1043 C1041 1.388 . S
C1043 C1044 1.366 1_455 S
C1044 C1043 1.366 1_655 S
C1044 C1045 1.414 . S
C1044 C1047 1.499 . S
C1045 H1019 0.950 . S
C1045 C1044 1.414 . S
C1045 C1046 1.374 . S
C1046 H1020 0.950 . S
C1046 C1042 1.385 1_655 S
C1046 C1045 1.374 . S
C1047 C1044 1.499 . S
C1047 C1048 1.373 . S
C1047 C1049 1.389 . S
C1048 H1021 0.950 . S
C1048 C1034 1.377 1_556 S
C1048 C1047 1.373 . S
C1049 C1033 1.377 1_556 S
C1049 C1047 1.389 . S
C1049 C1050 1.524 1_655 S
C1050 C1049 1.524 1_455 S
C1050 C1051 1.397 . S
C1050 C1055 1.363 . S
C1051 H1022 0.950 1_556 S
C1051 C1050 1.397 . S
C1051 C1052 1.334 . S
C1052 H1023 0.950 1_556 S
C1052 C1051 1.334 . S
C1052 C1053 1.287 . S
C1053 C1052 1.287 . S
C1053 C1054 1.524 . S
C1053 H1056 0.999 . S
C1054 H1024 0.950 . S
C1054 C1053 1.524 . S
C1054 C1055 1.415 . S
C1055 H1025 0.950 . S
C1055 C1050 1.363 . S
C1055 C1054 1.415 . S
H1056 C1053 0.999 . S
H1057 C1038 0.913 . S
H1058 C1076 0.951 . S
H1059 C1078 0.951 . S
H1060 C1080 0.950 . S
H1061 C1081 0.950 . S
H1062 C1083 0.950 . S
H1063 C1086 0.950 . S
H1064 C1087 0.950 . S
H1065 C1089 0.950 . S
H1066 C1090 0.950 . S
H1067 C1091 0.951 . S
H1068 C1093 0.951 . S
H1069 C1095 0.950 . S
H1070 C1096 0.950 . S
H1071 C1098 0.950 . S
H1072 C1101 0.950 . S
H1073 C1102 0.950 . S
H1074 C1104 0.950 . S
H1075 C1105 0.950 . S
C1076 H1058 0.951 . S
C1076 C1077 1.366 . S
C1076 C1078 1.388 . S
C1077 C1076 1.366 . S
C1077 C1081 1.385 . S
C1078 H1059 0.951 . S
C1078 C1076 1.388 . S
C1078 C1079 1.366 . S
C1079 C1078 1.366 . S
C1079 C1080 1.414 . S
C1079 C1082 1.499 . S
C1080 H1060 0.950 . S
C1080 C1079 1.414 . S
C1080 C1081 1.374 . S
C1081 H1061 0.950 . S
C1081 C1077 1.385 . S
C1081 C1080 1.374 . S
C1082 C1079 1.499 . S
C1082 C1083 1.373 . S
C1082 C1084 1.389 1_554 S
C1083 H1062 0.950 . S
C1083 C1082 1.373 . S
C1083 C1099 1.377 . S
C1084 C1082 1.389 1_556 S
C1084 C1085 1.524 . S
C1084 C1098 1.377 . S
C1085 C1084 1.524 . S
C1085 C1086 1.397 . S
C1085 C1090 1.363 . S
C1086 H1063 0.950 . S
C1086 C1085 1.397 . S
C1086 C1087 1.334 . S
C1087 H1064 0.950 . S
C1087 C1086 1.334 . S
C1087 C1088 1.287 . S
C1088 C1087 1.287 . S
C1088 C1089 1.524 . S
C1088 H1107 0.913 . S
C1089 H1065 0.950 . S
C1089 C1088 1.524 . S
C1089 C1090 1.415 . S
C1090 H1066 0.950 . S
C1090 C1085 1.363 . S
C1090 C1089 1.415 . S
C1091 H1067 0.951 . S
C1091 C1092 1.366 . S
C1091 C1093 1.388 . S
C1092 C1091 1.366 . S
C1092 C1096 1.385 1_545 S
C1093 H1068 0.951 . S
C1093 C1091 1.388 . S
C1093 C1094 1.366 1_545 S
C1094 C1093 1.366 1_565 S
C1094 C1095 1.414 . S
C1094 C1097 1.499 . S
C1095 H1069 0.950 . S
C1095 C1094 1.414 . S
C1095 C1096 1.374 . S
C1096 H1070 0.950 . S
C1096 C1092 1.385 1_565 S
C1096 C1095 1.374 . S
C1097 C1094 1.499 . S
C1097 C1098 1.373 . S
C1097 C1099 1.389 1_556 S
C1098 H1071 0.950 . S
C1098 C1084 1.377 . S
C1098 C1097 1.373 . S
C1099 C1083 1.377 . S
C1099 C1097 1.389 1_554 S
C1099 C1100 1.524 1_565 S
C1100 C1099 1.524 1_545 S
C1100 C1101 1.397 . S
C1100 C1105 1.363 . S
C1101 H1072 0.950 . S
C1101 C1100 1.397 . S
C1101 C1102 1.334 . S
C1102 H1073 0.950 . S
C1102 C1101 1.334 . S
C1102 C1103 1.287 . S
C1103 C1102 1.287 . S
C1103 C1104 1.524 . S
C1103 H1106 0.999 . S
C1104 H1074 0.950 . S
C1104 C1103 1.524 . S
C1104 C1105 1.415 . S
C1105 H1075 0.950 . S
C1105 C1100 1.363 . S
C1105 C1104 1.415 . S
H1106 C1103 0.999 . S
H1107 C1088 0.913 . S
H1108 C1126 0.951 . S
H1109 C1128 0.951 . S
H1110 C1130 0.950 . S
H1111 C1131 0.950 . S
H1112 C1133 0.950 . S
H1113 C1136 0.950 1_556 S
H1114 C1137 0.950 . S
H1115 C1139 0.950 . S
H1116 C1140 0.950 . S
H1117 C1141 0.951 . S
H1118 C1143 0.951 . S
H1119 C1145 0.950 . S
H1120 C1146 0.950 . S
H1121 C1148 0.950 . S
H1122 C1151 0.950 1_554 S
H1123 C1152 0.950 . S
H1124 C1154 0.950 . S
H1125 C1155 0.950 . S
C1126 H1108 0.951 . S
C1126 C1127 1.366 . S
C1126 C1128 1.388 . S
C1127 C1126 1.366 . S
C1127 C1131 1.385 . S
C1128 H1109 0.951 . S
C1128 C1126 1.388 . S
C1128 C1129 1.366 . S
C1129 C1128 1.366 . S
C1129 C1130 1.414 . S
C1129 C1132 1.499 . S
C1130 H1110 0.950 . S
C1130 C1129 1.414 . S
C1130 C1131 1.374 . S
C1131 H1111 0.950 . S
C1131 C1127 1.385 . S
C1131 C1130 1.374 . S
C1132 C1129 1.499 . S
C1132 C1133 1.373 . S
C1132 C1134 1.389 . S
C1133 H1112 0.950 . S
C1133 C1132 1.373 . S
C1133 C1149 1.377 1_554 S
C1134 C1132 1.389 . S
C1134 C1135 1.524 . S
C1134 C1148 1.377 1_554 S
C1135 C1134 1.524 . S
C1135 C1136 1.397 . S
C1135 C1140 1.363 . S
C1136 H1113 0.950 1_554 S
C1136 C1135 1.397 . S
C1136 C1137 1.334 . S
C1137 H1114 0.950 . S
C1137 C1136 1.334 . S
C1137 C1138 1.287 . S
C1138 C1137 1.287 . S
C1138 C1139 1.524 . S
C1138 H1157 0.913 . S
C1139 H1115 0.950 . S
C1139 C1138 1.524 . S
C1139 C1140 1.415 . S
C1140 H1116 0.950 . S
C1140 C1135 1.363 . S
C1140 C1139 1.415 . S
C1141 H1117 0.951 . S
C1141 C1142 1.366 . S
C1141 C1143 1.388 . S
C1142 C1141 1.366 . S
C1142 C1146 1.385 . S
C1143 H1118 0.951 . S
C1143 C1141 1.388 . S
C1143 C1144 1.366 . S
C1144 C1143 1.366 . S
C1144 C1145 1.414 . S
C1144 C1147 1.499 . S
C1145 H1119 0.950 . S
C1145 C1144 1.414 . S
C1145 C1146 1.374 . S
C1146 H1120 0.950 . S
C1146 C1142 1.385 . S
C1146 C1145 1.374 . S
C1147 C1144 1.499 . S
C1147 C1148 1.373 . S
C1147 C1149 1.389 . S
C1148 H1121 0.950 . S
C1148 C1134 1.377 1_556 S
C1148 C1147 1.373 . S
C1149 C1133 1.377 1_556 S
C1149 C1147 1.389 . S
C1149 C1150 1.524 . S
C1150 C1149 1.524 . S
C1150 C1151 1.397 . S
C1150 C1155 1.363 . S
C1151 H1122 0.950 1_556 S
C1151 C1150 1.397 . S
C1151 C1152 1.334 . S
C1152 H1123 0.950 . S
C1152 C1151 1.334 . S
C1152 C1153 1.287 . S
C1153 C1152 1.287 . S
C1153 C1154 1.524 . S
C1153 H1156 0.999 . S
C1154 H1124 0.950 . S
C1154 C1153 1.524 . S
C1154 C1155 1.415 . S
C1155 H1125 0.950 . S
C1155 C1150 1.363 . S
C1155 C1154 1.415 . S
H1156 C1153 0.999 . S
H1157 C1138 0.913 . S
H1158 C1176 0.951 . S
H1159 C1178 0.951 . S
H1160 C1180 0.950 . S
H1161 C1181 0.950 . S
H1162 C1183 0.950 . S
H1163 C1186 0.950 . S
H1164 C1187 0.950 . S
H1165 C1189 0.950 . S
H1166 C1190 0.950 . S
H1167 C1191 0.951 . S
H1168 C1193 0.951 . S
H1169 C1195 0.950 . S
H1170 C1196 0.950 . S
H1171 C1198 0.950 . S
H1172 C1201 0.950 . S
H1173 C1202 0.950 . S
H1174 C1204 0.950 . S
H1175 C1205 0.950 . S
C1176 H1158 0.951 . S
C1176 C1177 1.366 . S
C1176 C1178 1.388 . S
C1177 C1176 1.366 . S
C1177 C1181 1.385 . S
C1178 H1159 0.951 . S
C1178 C1176 1.388 . S
C1178 C1179 1.366 . S
C1179 C1178 1.366 . S
C1179 C1180 1.414 . S
C1179 C1182 1.499 . S
C1180 H1160 0.950 . S
C1180 C1179 1.414 . S
C1180 C1181 1.374 . S
C1181 H1161 0.950 . S
C1181 C1177 1.385 . S
C1181 C1180 1.374 . S
C1182 C1179 1.499 . S
C1182 C1183 1.373 1_554 S
C1182 C1184 1.389 . S
C1183 H1162 0.950 . S
C1183 C1182 1.373 1_556 S
C1183 C1199 1.377 . S
C1184 C1182 1.389 . S
C1184 C1185 1.524 . S
C1184 C1198 1.377 . S
C1185 C1184 1.524 . S
C1185 C1186 1.397 . S
C1185 C1190 1.363 . S
C1186 H1163 0.950 . S
C1186 C1185 1.397 . S
C1186 C1187 1.334 . S
C1187 H1164 0.950 . S
C1187 C1186 1.334 . S
C1187 C1188 1.287 . S
C1188 C1187 1.287 . S
C1188 C1189 1.524 . S
C1188 H1207 0.913 . S
C1189 H1165 0.950 . S
C1189 C1188 1.524 . S
C1189 C1190 1.415 . S
C1190 H1166 0.950 . S
C1190 C1185 1.363 . S
C1190 C1189 1.415 . S
C1191 H1167 0.951 . S
C1191 C1192 1.366 . S
C1191 C1193 1.388 . S
C1192 C1191 1.366 . S
C1192 C1196 1.385 . S
C1193 H1168 0.951 . S
C1193 C1191 1.388 . S
C1193 C1194 1.366 . S
C1194 C1193 1.366 . S
C1194 C1195 1.414 . S
C1194 C1197 1.499 . S
C1195 H1169 0.950 . S
C1195 C1194 1.414 . S
C1195 C1196 1.374 . S
C1196 H1170 0.950 . S
C1196 C1192 1.385 . S
C1196 C1195 1.374 . S
C1197 C1194 1.499 . S
C1197 C1198 1.373 1_556 S
C1197 C1199 1.389 . S
C1198 H1171 0.950 . S
C1198 C1184 1.377 . S
C1198 C1197 1.373 1_554 S
C1199 C1183 1.377 . S
C1199 C1197 1.389 . S
C1199 C1200 1.524 . S
C1200 C1199 1.524 . S
C1200 C1201 1.397 . S
C1200 C1205 1.363 . S
C1201 H1172 0.950 . S
C1201 C1200 1.397 . S
C1201 C1202 1.334 . S
C1202 H1173 0.950 . S
C1202 C1201 1.334 . S
C1202 C1203 1.287 . S
C1203 C1202 1.287 . S
C1203 C1204 1.524 . S
C1203 H1206 0.999 . S
C1204 H1174 0.950 . S
C1204 C1203 1.524 . S
C1204 C1205 1.415 . S
C1205 H1175 0.950 . S
C1205 C1200 1.363 . S
C1205 C1204 1.415 . S
H1206 C1203 0.999 . S
H1207 C1188 0.913 . S
H1208 C1226 0.951 . S
H1209 C1228 0.951 . S
H1210 C1230 0.950 . S
H1211 C1231 0.950 . S
H1212 C1233 0.950 . S
H1213 C1236 0.950 . S
H1214 C1237 0.950 . S
H1215 C1239 0.950 . S
H1216 C1240 0.950 . S
H1217 C1241 0.951 . S
H1218 C1243 0.951 . S
H1219 C1245 0.950 . S
H1220 C1246 0.950 . S
H1221 C1248 0.950 . S
H1222 C1251 0.950 1_455 S
H1223 C1252 0.950 . S
H1224 C1254 0.950 . S
H1225 C1255 0.950 . S
C1226 H1208 0.951 . S
C1226 C1227 1.366 . S
C1226 C1228 1.388 . S
C1227 C1226 1.366 . S
C1227 C1231 1.385 . S
C1228 H1209 0.951 . S
C1228 C1226 1.388 . S
C1228 C1229 1.366 . S
C1229 C1228 1.366 . S
C1229 C1230 1.414 . S
C1229 C1232 1.499 . S
C1230 H1210 0.950 . S
C1230 C1229 1.414 . S
C1230 C1231 1.374 . S
C1231 H1211 0.950 . S
C1231 C1227 1.385 . S
C1231 C1230 1.374 . S
C1232 C1229 1.499 . S
C1232 C1233 1.373 . S
C1232 C1234 1.389 . S
C1233 H1212 0.950 . S
C1233 C1232 1.373 . S
C1233 C1249 1.377 . S
C1234 C1232 1.389 . S
C1234 C1235 1.524 . S
C1234 C1248 1.377 . S
C1235 C1234 1.524 . S
C1235 C1236 1.397 . S
C1235 C1240 1.363 . S
C1236 H1213 0.950 . S
C1236 C1235 1.397 . S
C1236 C1237 1.334 . S
C1237 H1214 0.950 . S
C1237 C1236 1.334 . S
C1237 C1238 1.287 . S
C1238 C1237 1.287 . S
C1238 C1239 1.524 . S
C1238 H1257 0.913 . S
C1239 H1215 0.950 . S
C1239 C1238 1.524 . S
C1239 C1240 1.415 . S
C1240 H1216 0.950 . S
C1240 C1235 1.363 . S
C1240 C1239 1.415 . S
C1241 H1217 0.951 . S
C1241 C1242 1.366 . S
C1241 C1243 1.388 . S
C1242 C1241 1.366 . S
C1242 C1246 1.385 . S
C1243 H1218 0.951 . S
C1243 C1241 1.388 . S
C1243 C1244 1.366 . S
C1244 C1243 1.366 . S
C1244 C1245 1.414 . S
C1244 C1247 1.499 . S
C1245 H1219 0.950 . S
C1245 C1244 1.414 . S
C1245 C1246 1.374 . S
C1246 H1220 0.950 . S
C1246 C1242 1.385 . S
C1246 C1245 1.374 . S
C1247 C1244 1.499 . S
C1247 C1248 1.373 . S
C1247 C1249 1.389 . S
C1248 H1221 0.950 . S
C1248 C1234 1.377 . S
C1248 C1247 1.373 . S
C1249 C1233 1.377 . S
C1249 C1247 1.389 . S
C1249 C1250 1.524 . S
C1250 C1249 1.524 . S
C1250 C1251 1.397 1_455 S
C1250 C1255 1.363 1_455 S
C1251 H1222 0.950 1_655 S
C1251 C1250 1.397 1_655 S
C1251 C1252 1.334 . S
C1252 H1223 0.950 . S
C1252 C1251 1.334 . S
C1252 C1253 1.287 . S
C1253 C1252 1.287 . S
C1253 C1254 1.524 . S
C1253 H1256 0.999 . S
C1254 H1224 0.950 . S
C1254 C1253 1.524 . S
C1254 C1255 1.415 . S
C1255 H1225 0.950 . S
C1255 C1250 1.363 1_655 S
C1255 C1254 1.415 . S
H1256 C1253 0.999 . S
H1257 C1238 0.913 . S
H1258 C1276 0.951 . S
H1259 C1278 0.951 . S
H1260 C1280 0.950 . S
H1261 C1281 0.950 . S
H1262 C1283 0.950 . S
H1263 C1286 0.950 . S
H1264 C1287 0.950 . S
H1265 C1289 0.950 1_554 S
H1266 C1290 0.950 . S
H1267 C1291 0.951 . S
H1268 C1293 0.951 . S
H1269 C1295 0.950 . S
H1270 C1296 0.950 . S
H1271 C1298 0.950 . S
H1272 C1301 0.950 . S
H1273 C1302 0.950 . S
H1274 C1304 0.950 . S
H1275 C1305 0.950 . S
C1276 H1258 0.951 . S
C1276 C1277 1.366 . S
C1276 C1278 1.388 . S
C1277 C1276 1.366 . S
C1277 C1281 1.385 . S
C1278 H1259 0.951 . S
C1278 C1276 1.388 . S
C1278 C1279 1.366 . S
C1279 C1278 1.366 . S
C1279 C1280 1.414 . S
C1279 C1282 1.499 . S
C1280 H1260 0.950 . S
C1280 C1279 1.414 . S
C1280 C1281 1.374 . S
C1281 H1261 0.950 . S
C1281 C1277 1.385 . S
C1281 C1280 1.374 . S
C1282 C1279 1.499 . S
C1282 C1283 1.373 . S
C1282 C1284 1.389 . S
C1283 H1262 0.950 . S
C1283 C1282 1.373 . S
C1283 C1299 1.377 . S
C1284 C1282 1.389 . S
C1284 C1285 1.524 . S
C1284 C1298 1.377 . S
C1285 C1284 1.524 . S
C1285 C1286 1.397 . S
C1285 C1290 1.363 . S
C1286 H1263 0.950 . S
C1286 C1285 1.397 . S
C1286 C1287 1.334 . S
C1287 H1264 0.950 . S
C1287 C1286 1.334 . S
C1287 C1288 1.287 . S
C1288 C1287 1.287 . S
C1288 C1289 1.524 . S
C1288 H1307 0.913 . S
C1289 H1265 0.950 1_556 S
C1289 C1288 1.524 . S
C1289 C1290 1.415 . S
C1290 H1266 0.950 . S
C1290 C1285 1.363 . S
C1290 C1289 1.415 . S
C1291 H1267 0.951 . S
C1291 C1292 1.366 . S
C1291 C1293 1.388 . S
C1292 C1291 1.366 . S
C1292 C1296 1.385 . S
C1293 H1268 0.951 . S
C1293 C1291 1.388 . S
C1293 C1294 1.366 . S
C1294 C1293 1.366 . S
C1294 C1295 1.414 . S
C1294 C1297 1.499 . S
C1295 H1269 0.950 . S
C1295 C1294 1.414 . S
C1295 C1296 1.374 . S
C1296 H1270 0.950 . S
C1296 C1292 1.385 . S
C1296 C1295 1.374 . S
C1297 C1294 1.499 . S
C1297 C1298 1.373 . S
C1297 C1299 1.389 . S
C1298 H1271 0.950 . S
C1298 C1284 1.377 . S
C1298 C1297 1.373 . S
C1299 C1283 1.377 . S
C1299 C1297 1.389 . S
C1299 C1300 1.524 . S
C1300 C1299 1.524 . S
C1300 C1301 1.397 1_545 S
C1300 C1305 1.363 . S
C1301 H1272 0.950 . S
C1301 C1300 1.397 1_565 S
C1301 C1302 1.334 . S
C1302 H1273 0.950 . S
C1302 C1301 1.334 . S
C1302 C1303 1.287 . S
C1303 C1302 1.287 . S
C1303 C1304 1.524 . S
C1303 H1306 0.999 . S
C1304 H1274 0.950 . S
C1304 C1303 1.524 . S
C1304 C1305 1.415 1_565 S
C1305 H1275 0.950 . S
C1305 C1300 1.363 . S
C1305 C1304 1.415 1_545 S
H1306 C1303 0.999 . S
H1307 C1288 0.913 . S
H1308 C1326 0.951 . S
H1309 C1328 0.951 . S
H1310 C1330 0.950 . S
H1311 C1331 0.950 . S
H1312 C1333 0.950 . S
H1313 C1336 0.950 . S
H1314 C1337 0.950 . S
H1315 C1339 0.950 . S
H1316 C1340 0.950 . S
H1317 C1341 0.951 . S
H1318 C1343 0.951 . S
H1319 C1345 0.950 . S
H1320 C1346 0.950 . S
H1321 C1348 0.950 . S
H1322 C1351 0.950 . S
H1323 C1352 0.950 . S
H1324 C1354 0.950 . S
H1325 C1355 0.950 . S
C1326 H1308 0.951 . S
C1326 C1327 1.366 . S
C1326 C1328 1.388 . S
C1327 C1326 1.366 . S
C1327 C1331 1.385 . S
C1328 H1309 0.951 . S
C1328 C1326 1.388 . S
C1328 C1329 1.366 . S
C1329 C1328 1.366 . S
C1329 C1330 1.414 . S
C1329 C1332 1.499 . S
C1330 H1310 0.950 . S
C1330 C1329 1.414 . S
C1330 C1331 1.374 . S
C1331 H1311 0.950 . S
C1331 C1327 1.385 . S
C1331 C1330 1.374 . S
C1332 C1329 1.499 . S
C1332 C1333 1.373 . S
C1332 C1334 1.389 . S
C1333 H1312 0.950 . S
C1333 C1332 1.373 . S
C1333 C1349 1.377 . S
C1334 C1332 1.389 . S
C1334 C1335 1.524 . S
C1334 C1348 1.377 . S
C1335 C1334 1.524 . S
C1335 C1336 1.397 . S
C1335 C1340 1.363 . S
C1336 H1313 0.950 . S
C1336 C1335 1.397 . S
C1336 C1337 1.334 . S
C1337 H1314 0.950 . S
C1337 C1336 1.334 . S
C1337 C1338 1.287 . S
C1338 C1337 1.287 . S
C1338 C1339 1.524 . S
C1338 H1357 0.913 . S
C1339 H1315 0.950 . S
C1339 C1338 1.524 . S
C1339 C1340 1.415 . S
C1340 H1316 0.950 . S
C1340 C1335 1.363 . S
C1340 C1339 1.415 . S
C1341 H1317 0.951 . S
C1341 C1342 1.366 . S
C1341 C1343 1.388 . S
C1342 C1341 1.366 . S
C1342 C1346 1.385 . S
C1343 H1318 0.951 . S
C1343 C1341 1.388 . S
C1343 C1344 1.366 . S
C1344 C1343 1.366 . S
C1344 C1345 1.414 . S
C1344 C1347 1.499 . S
C1345 H1319 0.950 . S
C1345 C1344 1.414 . S
C1345 C1346 1.374 . S
C1346 H1320 0.950 . S
C1346 C1342 1.385 . S
C1346 C1345 1.374 . S
C1347 C1344 1.499 . S
C1347 C1348 1.373 . S
C1347 C1349 1.389 . S
C1348 H1321 0.950 . S
C1348 C1334 1.377 . S
C1348 C1347 1.373 . S
C1349 C1333 1.377 . S
C1349 C1347 1.389 . S
C1349 C1350 1.524 . S
C1350 C1349 1.524 . S
C1350 C1351 1.397 . S
C1350 C1355 1.363 . S
C1351 H1322 0.950 . S
C1351 C1350 1.397 . S
C1351 C1352 1.334 . S
C1352 H1323 0.950 . S
C1352 C1351 1.334 . S
C1352 C1353 1.287 . S
C1353 C1352 1.287 . S
C1353 C1354 1.524 . S
C1353 H1356 0.999 . S
C1354 H1324 0.950 . S
C1354 C1353 1.524 . S
C1354 C1355 1.415 . S
C1355 H1325 0.950 . S
C1355 C1350 1.363 . S
C1355 C1354 1.415 . S
H1356 C1353 0.999 . S
H1357 C1338 0.913 . S
H1358 C1376 0.951 . S
H1359 C1378 0.951 . S
H1360 C1380 0.950 . S
H1361 C1381 0.950 . S
H1362 C1383 0.950 . S
H1363 C1386 0.950 . S
H1364 C1387 0.950 . S
H1365 C1389 0.950 . S
H1366 C1390 0.950 . S
H1367 C1391 0.951 . S
H1368 C1393 0.951 . S
H1369 C1395 0.950 . S
H1370 C1396 0.950 . S
H1371 C1398 0.950 . S
H1372 C1401 0.950 . S
H1373 C1402 0.950 . S
H1374 C1404 0.950 . S
H1375 C1405 0.950 . S
C1376 H1358 0.951 . S
C1376 C1377 1.366 . S
C1376 C1378 1.388 . S
C1377 C1376 1.366 . S
C1377 C1381 1.385 . S
C1378 H1359 0.951 . S
C1378 C1376 1.388 . S
C1378 C1379 1.366 . S
C1379 C1378 1.366 . S
C1379 C1380 1.414 . S
C1379 C1382 1.499 . S
C1380 H1360 0.950 . S
C1380 C1379 1.414 . S
C1380 C1381 1.374 . S
C1381 H1361 0.950 . S
C1381 C1377 1.385 . S
C1381 C1380 1.374 . S
C1382 C1379 1.499 . S
C1382 C1383 1.373 . S
C1382 C1384 1.389 . S
C1383 H1362 0.950 . S
C1383 C1382 1.373 . S
C1383 C1399 1.377 . S
C1384 C1382 1.389 . S
C1384 C1385 1.524 . S
C1384 C1398 1.377 . S
C1385 C1384 1.524 . S
C1385 C1386 1.397 . S
C1385 C1390 1.363 . S
C1386 H1363 0.950 . S
C1386 C1385 1.397 . S
C1386 C1387 1.334 . S
C1387 H1364 0.950 . S
C1387 C1386 1.334 . S
C1387 C1388 1.287 . S
C1388 C1387 1.287 . S
C1388 C1389 1.524 . S
C1388 H1407 0.913 . S
C1389 H1365 0.950 . S
C1389 C1388 1.524 . S
C1389 C1390 1.415 . S
C1390 H1366 0.950 . S
C1390 C1385 1.363 . S
C1390 C1389 1.415 . S
C1391 H1367 0.951 . S
C1391 C1392 1.366 . S
C1391 C1393 1.388 . S
C1392 C1391 1.366 . S
C1392 C1396 1.385 . S
C1393 H1368 0.951 . S
C1393 C1391 1.388 . S
C1393 C1394 1.366 . S
C1394 C1393 1.366 . S
C1394 C1395 1.414 . S
C1394 C1397 1.499 . S
C1395 H1369 0.950 . S
C1395 C1394 1.414 . S
C1395 C1396 1.374 . S
C1396 H1370 0.950 . S
C1396 C1392 1.385 . S
C1396 C1395 1.374 . S
C1397 C1394 1.499 . S
C1397 C1398 1.373 . S
C1397 C1399 1.389 . S
C1398 H1371 0.950 . S
C1398 C1384 1.377 . S
C1398 C1397 1.373 . S
C1399 C1383 1.377 . S
C1399 C1397 1.389 . S
C1399 C1400 1.524 . S
C1400 C1399 1.524 . S
C1400 C1401 1.397 . S
C1400 C1405 1.363 . S
C1401 H1372 0.950 . S
C1401 C1400 1.397 . S
C1401 C1402 1.334 . S
C1402 H1373 0.950 . S
C1402 C1401 1.334 . S
C1402 C1403 1.287 . S
C1403 C1402 1.287 . S
C1403 C1404 1.524 . S
C1403 H1406 0.999 . S
C1404 H1374 0.950 . S
C1404 C1403 1.524 . S
C1404 C1405 1.415 . S
C1405 H1375 0.950 . S
C1405 C1400 1.363 . S
C1405 C1404 1.415 . S
H1406 C1403 0.999 . S
H1407 C1388 0.913 . S
H1408 C1426 0.951 . S
H1409 C1428 0.951 . S
H1410 C1430 0.950 . S
H1411 C1431 0.950 . S
H1412 C1433 0.950 . S
H1413 C1436 0.950 . S
H1414 C1437 0.950 . S
H1415 C1439 0.950 . S
H1416 C1440 0.950 . S
H1417 C1441 0.951 1_455 S
H1418 C1443 0.951 1_455 S
H1419 C1445 0.950 . S
H1420 C1446 0.950 . S
H1421 C1448 0.950 . S
H1422 C1451 0.950 . S
H1423 C1452 0.950 . S
H1424 C1454 0.950 . S
H1425 C1455 0.961 . S
C1426 H1408 0.951 . S
C1426 C1427 1.366 . S
C1426 C1428 1.388 . S
C1427 C1426 1.366 . S
C1427 C1431 1.385 . S
C1428 H1409 0.951 . S
C1428 C1426 1.388 . S
C1428 C1429 1.366 . S
C1429 C1428 1.366 . S
C1429 C1430 1.414 . S
C1429 C1432 1.499 . S
C1430 H1410 0.950 . S
C1430 C1429 1.414 . S
C1430 C1431 1.374 . S
C1431 H1411 0.950 . S
C1431 C1427 1.385 . S
C1431 C1430 1.374 . S
C1432 C1429 1.499 . S
C1432 C1433 1.373 . S
C1432 C1434 1.389 . S
C1433 H1412 0.950 . S
C1433 C1432 1.373 . S
C1433 C1449 1.377 . S
C1434 C1432 1.389 . S
C1434 C1435 1.524 . S
C1434 C1448 1.377 . S
C1435 C1434 1.524 . S
C1435 C1436 1.397 . S
C1435 C1440 1.363 . S
C1436 H1413 0.950 . S
C1436 C1435 1.397 . S
C1436 C1437 1.334 . S
C1437 H1414 0.950 . S
C1437 C1436 1.334 . S
C1437 C1438 1.287 . S
C1438 C1437 1.287 . S
C1438 C1439 1.524 . S
C1438 H1457 0.913 . S
C1439 H1415 0.950 . S
C1439 C1438 1.524 . S
C1439 C1440 1.415 . S
C1440 H1416 0.950 . S
C1440 C1435 1.363 . S
C1440 C1439 1.415 . S
C1441 H1417 0.951 1_655 S
C1441 C1442 1.366 . S
C1441 C1443 1.388 . S
C1442 C1441 1.366 . S
C1442 C1446 1.385 . S
C1443 H1418 0.951 1_655 S
C1443 C1441 1.388 . S
C1443 C1444 1.366 . S
C1444 C1443 1.366 . S
C1444 C1445 1.414 . S
C1444 C1447 1.499 . S
C1445 H1419 0.950 . S
C1445 C1444 1.414 . S
C1445 C1446 1.374 . S
C1446 H1420 0.950 . S
C1446 C1442 1.385 . S
C1446 C1445 1.374 . S
C1447 C1444 1.499 . S
C1447 C1448 1.373 . S
C1447 C1449 1.389 . S
C1448 H1421 0.950 . S
C1448 C1434 1.377 . S
C1448 C1447 1.373 . S
C1449 C1433 1.377 . S
C1449 C1447 1.389 . S
C1449 C1450 1.524 . S
C1450 C1449 1.524 . S
C1450 C1451 1.397 . S
C1450 C1455 1.343 1_655 S
C1451 H1422 0.950 . S
C1451 C1450 1.397 . S
C1451 C1452 1.334 . S
C1452 H1423 0.950 . S
C1452 C1451 1.334 . S
C1452 C1453 1.287 . S
C1453 C1452 1.287 . S
C1453 C1454 1.524 1_655 S
C1453 H1456 0.999 1_655 S
C1454 H1424 0.950 . S
C1454 C1453 1.524 1_455 S
C1454 C1455 1.424 . S
C1455 H1425 0.961 . S
C1455 C1450 1.343 1_455 S
C1455 C1454 1.424 . S
H1456 C1453 0.999 1_455 S
H1457 C1438 0.913 . S
H1458 C1476 0.951 . S
H1459 C1478 0.951 . S
H1460 C1480 0.950 . S
H1461 C1481 0.950 . S
H1462 C1483 0.950 . S
H1463 C1486 0.953 . S
H1464 C1487 0.950 . S
H1465 C1489 0.950 . S
H1466 C1490 0.950 . S
H1467 C1491 0.951 . S
H1468 C1493 0.951 . S
H1469 C1495 0.950 . S
H1470 C1496 0.950 . S
H1471 C1498 0.950 . S
H1472 C1501 0.950 . S
H1473 C1502 0.950 . S
H1474 C1504 0.950 . S
H1475 C1505 0.950 . S
C1476 H1458 0.951 . S
C1476 C1477 1.366 . S
C1476 C1478 1.388 . S
C1477 C1476 1.366 . S
C1477 C1481 1.385 . S
C1478 H1459 0.951 . S
C1478 C1476 1.388 . S
C1478 C1479 1.366 . S
C1479 C1478 1.366 . S
C1479 C1480 1.414 . S
C1479 C1482 1.499 . S
C1480 H1460 0.950 . S
C1480 C1479 1.414 . S
C1480 C1481 1.374 . S
C1481 H1461 0.950 . S
C1481 C1477 1.385 . S
C1481 C1480 1.374 . S
C1482 C1479 1.499 . S
C1482 C1483 1.373 . S
C1482 C1484 1.389 . S
C1483 H1462 0.950 . S
C1483 C1482 1.373 . S
C1483 C1499 1.377 . S
C1484 C1482 1.389 . S
C1484 C1485 1.524 . S
C1484 C1498 1.377 . S
C1485 C1484 1.524 . S
C1485 C1486 1.397 . S
C1485 C1490 1.363 . S
C1486 H1463 0.953 . S
C1486 C1485 1.397 . S
C1486 C1487 1.334 1_565 S
C1487 H1464 0.950 . S
C1487 C1486 1.334 1_545 S
C1487 C1488 1.287 1_545 S
C1488 C1487 1.287 1_565 S
C1488 C1489 1.524 . S
C1488 H1507 0.913 1_565 S
C1489 H1465 0.950 . S
C1489 C1488 1.524 . S
C1489 C1490 1.415 . S
C1490 H1466 0.950 . S
C1490 C1485 1.363 . S
C1490 C1489 1.415 . S
C1491 H1467 0.951 . S
C1491 C1492 1.366 . S
C1491 C1493 1.388 . S
C1492 C1491 1.366 . S
C1492 C1496 1.385 . S
C1493 H1468 0.951 . S
C1493 C1491 1.388 . S
C1493 C1494 1.366 . S
C1494 C1493 1.366 . S
C1494 C1495 1.414 . S
C1494 C1497 1.499 . S
C1495 H1469 0.950 . S
C1495 C1494 1.414 . S
C1495 C1496 1.374 . S
C1496 H1470 0.950 . S
C1496 C1492 1.385 . S
C1496 C1495 1.374 . S
C1497 C1494 1.499 . S
C1497 C1498 1.373 . S
C1497 C1499 1.389 . S
C1498 H1471 0.950 . S
C1498 C1484 1.377 . S
C1498 C1497 1.373 . S
C1499 C1483 1.377 . S
C1499 C1497 1.389 . S
C1499 C1500 1.524 . S
C1500 C1499 1.524 . S
C1500 C1501 1.397 . S
C1500 C1505 1.363 . S
C1501 H1472 0.950 . S
C1501 C1500 1.397 . S
C1501 C1502 1.334 . S
C1502 H1473 0.950 . S
C1502 C1501 1.334 . S
C1502 C1503 1.287 . S
C1503 C1502 1.287 . S
C1503 C1504 1.524 . S
C1503 H1506 0.999 . S
C1504 H1474 0.950 . S
C1504 C1503 1.524 . S
C1504 C1505 1.415 . S
C1505 H1475 0.950 . S
C1505 C1500 1.363 . S
C1505 C1504 1.415 . S
H1506 C1503 0.999 . S
H1507 C1488 0.913 1_545 S
H1508 C1526 0.951 . S
H1509 C1528 0.951 . S
H1510 C1530 0.950 . S
H1511 C1531 0.950 . S
H1512 C1533 0.950 . S
H1513 C1536 0.950 . S
H1514 C1537 0.950 . S
H1515 C1539 0.950 . S
H1516 C1540 0.950 . S
H1517 C1541 0.951 . S
H1518 C1543 0.951 . S
H1519 C1545 0.950 . S
H1520 C1546 0.950 . S
H1521 C1548 0.950 . S
H1522 C1551 0.950 . S
H1523 C1552 0.950 . S
H1524 C1554 0.950 . S
H1525 C1555 0.950 . S
C1526 H1508 0.951 . S
C1526 C1527 1.366 . S
C1526 C1528 1.388 . S
C1527 C1526 1.366 . S
C1527 C1531 1.385 . S
C1528 H1509 0.951 . S
C1528 C1526 1.388 . S
C1528 C1529 1.366 . S
C1529 C1528 1.366 . S
C1529 C1530 1.414 . S
C1529 C1532 1.499 . S
C1530 H1510 0.950 . S
C1530 C1529 1.414 . S
C1530 C1531 1.374 . S
C1531 H1511 0.950 . S
C1531 C1527 1.385 . S
C1531 C1530 1.374 . S
C1532 C1529 1.499 . S
C1532 C1533 1.373 . S
C1532 C1534 1.389 . S
C1533 H1512 0.950 . S
C1533 C1532 1.373 . S
C1533 C1549 1.377 . S
C1534 C1532 1.389 . S
C1534 C1535 1.524 . S
C1534 C1548 1.377 . S
C1535 C1534 1.524 . S
C1535 C1536 1.397 . S
C1535 C1540 1.363 . S
C1536 H1513 0.950 . S
C1536 C1535 1.397 . S
C1536 C1537 1.334 . S
C1537 H1514 0.950 . S
C1537 C1536 1.334 . S
C1537 C1538 1.287 . S
C1538 C1537 1.287 . S
C1538 C1539 1.524 . S
C1538 H1557 0.913 . S
C1539 H1515 0.950 . S
C1539 C1538 1.524 . S
C1539 C1540 1.415 . S
C1540 H1516 0.950 . S
C1540 C1535 1.363 . S
C1540 C1539 1.415 . S
C1541 H1517 0.951 . S
C1541 C1542 1.366 . S
C1541 C1543 1.388 . S
C1542 C1541 1.366 . S
C1542 C1546 1.385 . S
C1543 H1518 0.951 . S
C1543 C1541 1.388 . S
C1543 C1544 1.366 . S
C1544 C1543 1.366 . S
C1544 C1545 1.414 . S
C1544 C1547 1.499 . S
C1545 H1519 0.950 . S
C1545 C1544 1.414 . S
C1545 C1546 1.374 . S
C1546 H1520 0.950 . S
C1546 C1542 1.385 . S
C1546 C1545 1.374 . S
C1547 C1544 1.499 . S
C1547 C1548 1.373 . S
C1547 C1549 1.389 . S
C1548 H1521 0.950 . S
C1548 C1534 1.377 . S
C1548 C1547 1.373 . S
C1549 C1533 1.377 . S
C1549 C1547 1.389 . S
C1549 C1550 1.524 . S
C1550 C1549 1.524 . S
C1550 C1551 1.397 . S
C1550 C1555 1.363 . S
C1551 H1522 0.950 . S
C1551 C1550 1.397 . S
C1551 C1552 1.334 . S
C1552 H1523 0.950 . S
C1552 C1551 1.334 . S
C1552 C1553 1.287 . S
C1553 C1552 1.287 . S
C1553 C1554 1.524 . S
C1553 H1556 0.999 . S
C1554 H1524 0.950 . S
C1554 C1553 1.524 . S
C1554 C1555 1.415 . S
C1555 H1525 0.950 . S
C1555 C1550 1.363 . S
C1555 C1554 1.415 . S
H1556 C1553 0.999 . S
H1557 C1538 0.913 . S
H1558 C1576 0.951 . S
H1559 C1578 0.951 . S
H1560 C1580 0.950 . S
H1561 C1581 0.950 . S
H1562 C1583 0.950 . S
H1563 C1586 0.950 . S
H1564 C1587 0.950 . S
H1565 C1589 0.950 . S
H1566 C1590 0.950 . S
H1567 C1591 0.951 . S
H1568 C1593 0.951 . S
H1569 C1595 0.950 . S
H1570 C1596 0.950 . S
H1571 C1598 0.950 . S
H1572 C1601 0.950 . S
H1573 C1602 0.950 . S
H1574 C1604 0.950 . S
H1575 C1605 0.950 . S
C1576 H1558 0.951 . S
C1576 C1577 1.366 . S
C1576 C1578 1.388 . S
C1577 C1576 1.366 . S
C1577 C1581 1.385 . S
C1578 H1559 0.951 . S
C1578 C1576 1.388 . S
C1578 C1579 1.366 . S
C1579 C1578 1.366 . S
C1579 C1580 1.414 . S
C1579 C1582 1.499 . S
C1580 H1560 0.950 . S
C1580 C1579 1.414 . S
C1580 C1581 1.374 . S
C1581 H1561 0.950 . S
C1581 C1577 1.385 . S
C1581 C1580 1.374 . S
C1582 C1579 1.499 . S
C1582 C1583 1.373 . S
C1582 C1584 1.389 . S
C1583 H1562 0.950 . S
C1583 C1582 1.373 . S
C1583 C1599 1.377 . S
C1584 C1582 1.389 . S
C1584 C1585 1.524 . S
C1584 C1598 1.377 . S
C1585 C1584 1.524 . S
C1585 C1586 1.397 . S
C1585 C1590 1.363 . S
C1586 H1563 0.950 . S
C1586 C1585 1.397 . S
C1586 C1587 1.334 . S
C1587 H1564 0.950 . S
C1587 C1586 1.334 . S
C1587 C1588 1.287 . S
C1588 C1587 1.287 . S
C1588 C1589 1.524 . S
C1588 H1607 0.913 . S
C1589 H1565 0.950 . S
C1589 C1588 1.524 . S
C1589 C1590 1.415 . S
C1590 H1566 0.950 . S
C1590 C1585 1.363 . S
C1590 C1589 1.415 . S
C1591 H1567 0.951 . S
C1591 C1592 1.366 . S
C1591 C1593 1.388 . S
C1592 C1591 1.366 . S
C1592 C1596 1.385 . S
C1593 H1568 0.951 . S
C1593 C1591 1.388 . S
C1593 C1594 1.366 . S
C1594 C1593 1.366 . S
C1594 C1595 1.414 . S
C1594 C1597 1.499 . S
C1595 H1569 0.950 . S
C1595 C1594 1.414 . S
C1595 C1596 1.374 . S
C1596 H1570 0.950 . S
C1596 C1592 1.385 . S
C1596 C1595 1.374 . S
C1597 C1594 1.499 . S
C1597 C1598 1.373 . S
C1597 C1599 1.389 . S
C1598 H1571 0.950 . S
C1598 C1584 1.377 . S
C1598 C1597 1.373 . S
C1599 C1583 1.377 . S
C1599 C1597 1.389 . S
C1599 C1600 1.524 . S
C1600 C1599 1.524 . S
C1600 C1601 1.397 . S
C1600 C1605 1.363 . S
C1601 H1572 0.950 . S
C1601 C1600 1.397 . S
C1601 C1602 1.334 . S
C1602 H1573 0.950 . S
C1602 C1601 1.334 . S
C1602 C1603 1.287 . S
C1603 C1602 1.287 . S
C1603 C1604 1.524 . S
C1603 H1606 0.999 . S
C1604 H1574 0.950 . S
C1604 C1603 1.524 . S
C1604 C1605 1.415 . S
C1605 H1575 0.950 . S
C1605 C1600 1.363 . S
C1605 C1604 1.415 . S
H1606 C1603 0.999 . S
H1607 C1588 0.913 . S
C427 C61 1.712 . S
C442 C146 1.753 . S
C492 C230 1.781 . S
C477 C70 1.753 . S
C542 C296 1.791 . S
C527 C43 1.855 . S
C592 C380 1.770 . S
C577 C52 1.834 . S
C642 C135 1.752 1_565 S
C627 C25 1.715 . S
C677 C34 1.748 . S
C692 C219 1.781 . S
C727 C7 1.860 . S
C742 C307 1.791 . S
C777 C16 1.839 . S
C792 C391 1.770 . S
C842 C142 0.450 . S
C827 C50 0.405 . S
C892 C226 0.454 . S
C877 C59 0.373 . S
C942 C298 0.492 . S
C927 C67 0.329 . S
C977 C41 0.376 . S
C992 C382 0.485 . S
C1027 C14 0.385 . S
C1042 C130 0.451 . S
C1092 C214 0.443 . S
C1077 C23 0.352 . S
C1142 C310 0.491 . S
C1127 C31 0.341 . S
C1177 C5 0.354 . S
C1192 C394 0.484 . S
C1227 C49 1.896 . S
C1242 C139 1.962 . S
C1277 C58 1.859 . S
C1292 C223 1.925 . S
C1342 C303 1.872 . S
C1327 C68 1.746 . S
C1392 C387 1.900 . S
C1377 C40 1.771 . S
C1427 C13 1.900 . S
C1442 C128 1.962 . S
C1492 C212 1.924 . S
C1477 C22 1.862 . S
C1542 C314 1.871 . S
C1527 C32 1.742 . S
C1577 C4 1.774 . S
C1592 C398 1.899 . S
