# Generated by pormake.
# Topology anh, (6,3)-cn, num edge types: 1
# Building blocks:
#     Node 0, Type 0, BuildingBlock: VOLQOD_clean_sbu_1, # of connection points: 6
#     Node 1, Type 0, BuildingBlock: VOLQOD_clean_sbu_1, # of connection points: 6
#     Node 2, Type 0, BuildingBlock: VOLQOD_clean_sbu_1, # of connection points: 6
#     Node 3, Type 1, BuildingBlock: CUQRIR_clean_linker_1, # of connection points: 3
#     Node 4, Type 1, BuildingBlock: CUQRIR_clean_linker_1, # of connection points: 3
#     Node 5, Type 1, BuildingBlock: CUQRIR_clean_linker_1, # of connection points: 3
#     Node 6, Type 1, BuildingBlock: CUQRIR_clean_linker_1, # of connection points: 3
#     Node 7, Type 1, BuildingBlock: CUQRIR_clean_linker_1, # of connection points: 3
#     Node 8, Type 1, BuildingBlock: CUQRIR_clean_linker_1, # of connection points: 3
#     Edge 9, Type (0, 1), BuildingBlock: AJUNOK_clean_linker_0, # of connection points: 2
#     Edge 10, Type (0, 1), BuildingBlock: AJUNOK_clean_linker_0, # of connection points: 2
#     Edge 11, Type (0, 1), BuildingBlock: AJUNOK_clean_linker_0, # of connection points: 2
#     Edge 12, Type (0, 1), BuildingBlock: AJUNOK_clean_linker_0, # of connection points: 2
#     Edge 13, Type (0, 1), BuildingBlock: AJUNOK_clean_linker_0, # of connection points: 2
#     Edge 14, Type (0, 1), BuildingBlock: AJUNOK_clean_linker_0, # of connection points: 2
#     Edge 15, Type (0, 1), BuildingBlock: AJUNOK_clean_linker_0, # of connection points: 2
#     Edge 16, Type (0, 1), BuildingBlock: AJUNOK_clean_linker_0, # of connection points: 2
#     Edge 17, Type (0, 1), BuildingBlock: AJUNOK_clean_linker_0, # of connection points: 2
#     Edge 18, Type (0, 1), BuildingBlock: AJUNOK_clean_linker_0, # of connection points: 2
#     Edge 19, Type (0, 1), BuildingBlock: AJUNOK_clean_linker_0, # of connection points: 2
#     Edge 20, Type (0, 1), BuildingBlock: AJUNOK_clean_linker_0, # of connection points: 2
#     Edge 21, Type (0, 1), BuildingBlock: AJUNOK_clean_linker_0, # of connection points: 2
#     Edge 22, Type (0, 1), BuildingBlock: AJUNOK_clean_linker_0, # of connection points: 2
#     Edge 23, Type (0, 1), BuildingBlock: AJUNOK_clean_linker_0, # of connection points: 2
#     Edge 24, Type (0, 1), BuildingBlock: AJUNOK_clean_linker_0, # of connection points: 2
#     Edge 25, Type (0, 1), BuildingBlock: AJUNOK_clean_linker_0, # of connection points: 2
#     Edge 26, Type (0, 1), BuildingBlock: AJUNOK_clean_linker_0, # of connection points: 2
# Relax obj value: 0.190
# Max RMSD: 0.220
# Mean RMSD: 0.168
data_MOF--net-anh--node1-VOLQOD_clean_sbu_1--node2-CUQRIR_clean_linker_1--edge1-AJUNOK_clean_linker_0
_symmetry_space_group_name_H-M    P1
_symmetry_Int_Tables_number       1
_symmetry_cell_setting            triclinic
loop_
_symmetry_equiv_pos_as_xyz
'x, y, z'
_cell_length_a     19.914758
_cell_length_b     19.935659
_cell_length_c     38.234385
_cell_angle_alpha  83.705379
_cell_angle_beta   89.845149
_cell_angle_gamma 120.48973
loop_
_atom_site_label
_atom_site_type_symbol
_atom_site_fract_x
_atom_site_fract_y
_atom_site_fract_z
_atom_type_partial_charge
O0 O 0.97228 0.50962 0.24764 0.0
Zn1 Zn -0.00635 0.54443 0.19468 0.0
O2 O 0.01281 0.47214 0.1714 0.0
Zn3 Zn 0.93722 0.42158 0.13758 0.0
Zn4 Zn 0.01268 0.39408 0.20695 0.0
Zn5 Zn 0.10999 0.52849 0.14426 0.0
O6 O 0.98337 0.43368 0.08757 0.0
O7 O 0.09885 0.53884 0.09236 0.0
O8 O 0.90445 0.55381 0.17265 0.0
O9 O 0.8742 0.47304 0.13207 0.0
O10 O 0.85884 0.31198 0.15911 0.0
O11 O 0.90861 0.29369 0.2089 0.0
O12 O 0.10555 0.37959 0.19857 0.0
O13 O 0.09382 0.65043 0.19224 0.0
O14 O 0.17023 0.47588 0.15441 0.0
O15 O 0.17406 0.6327 0.15943 0.0
C16 C -0.00603 0.46952 0.26773 0.0
C17 C 0.04738 0.49247 0.07345 0.0
C18 C 0.85324 0.27089 0.1882 0.0
C19 C 0.86407 0.52139 0.14708 0.0
C20 C 0.16386 0.4197 0.17612 0.0
C21 C 0.16185 0.67406 0.17855 0.0
O22 O 0.01813 0.42848 0.25498 0.0
O23 O 0.53993 0.07409 0.42799 0.0
Zn24 Zn 0.49613 0.05893 0.47793 0.0
O25 O 0.56371 0.04403 0.51038 0.0
Zn26 Zn 0.62081 0.13146 0.53532 0.0
Zn27 Zn 0.63725 0.02533 0.48539 0.0
Zn28 Zn 0.499 0.96139 0.54677 0.0
O29 O 0.61945 0.10198 0.58765 0.0
O30 O 0.50215 -0.00506 0.59489 0.0
O31 O 0.48589 0.15215 0.48841 0.0
O32 O 0.57239 0.19614 0.52941 0.0
O33 O 0.72727 0.20044 0.51248 0.0
O34 O 0.74597 0.12582 0.47919 0.0
O35 O 0.63437 0.92635 0.51066 0.0
O36 O 0.39094 0.9572 0.48069 0.0
O37 O 0.54054 0.89157 0.55218 0.0
O38 O 0.39176 0.89232 0.53155 0.0
C39 C 0.57425 0.04181 0.41524 0.0
C40 C 0.56156 0.0487 0.60781 0.0
C41 C 0.76955 0.19143 0.49078 0.0
C42 C 0.52215 0.20038 0.51045 0.0
C43 C 0.59001 0.87987 0.53744 0.0
C44 C 0.35898 0.89607 0.5035 0.0
O45 O 0.60531 0.01059 0.43508 0.0
O46 O 0.49528 0.55981 0.76828 0.0
Zn47 Zn 0.48148 0.53351 0.82198 0.0
O48 O 0.57736 0.60792 0.84277 0.0
Zn49 Zn 0.55673 0.6594 0.87751 0.0
Zn50 Zn 0.65282 0.68752 0.8061 0.0
Zn51 Zn 0.62123 0.55324 0.86801 0.0
O52 O 0.59582 0.65007 0.92606 0.0
O53 O 0.61054 0.54888 0.92035 0.0
O54 O 0.38621 0.5336 0.84344 0.0
O55 O 0.44222 0.60968 0.88524 0.0
O56 O 0.58661 0.76826 0.85694 0.0
O57 O 0.64333 0.78483 0.80393 0.0
O58 O 0.76356 0.70744 0.813 0.0
O59 O 0.46725 0.42381 0.82893 0.0
O60 O 0.73301 0.60522 0.85353 0.0
O61 O 0.5735 0.44558 0.85597 0.0
C62 C 0.55646 0.60146 0.74736 0.0
C63 C 0.60614 0.59483 0.93957 0.0
C64 C 0.61421 0.80725 0.82653 0.0
C65 C 0.38169 0.56596 0.8698 0.0
C66 C 0.78252 0.66441 0.83266 0.0
C67 C 0.5125 0.40045 0.84119 0.0
O68 O 0.62185 0.64845 0.75894 0.0
C69 C 0.48988 0.98953 0.21632 0.0
N70 N 0.54339 0.02657 0.23968 0.0
N71 N 0.4224 0.93106 0.23332 0.0
C72 C 0.50481 0.00819 0.17681 0.0
C73 C 0.43694 0.93296 0.26781 0.0
N74 N 0.51072 -0.00915 0.27173 0.0
C75 C 0.38017 0.8759 0.29748 0.0
H76 H 0.50594 0.06372 0.1682 0.0
H77 H 0.4589 0.96172 0.16291 0.0
H78 H 0.56262 0.01679 0.16893 0.0
H79 H 0.38894 0.82506 0.30241 0.0
H80 H 0.31902 0.85379 0.2906 0.0
H81 H 0.38988 0.90346 0.32209 0.0
C82 C 0.5488 0.53296 0.5469 0.0
N83 N 0.55962 0.57733 0.57303 0.0
N84 N 0.52957 0.45945 0.56045 0.0
C85 C 0.54997 0.55924 0.50834 0.0
C86 C 0.52869 0.46044 0.59581 0.0
N87 N 0.54596 0.53197 0.60357 0.0
C88 C 0.51651 0.3933 0.62255 0.0
H89 H 0.51927 0.50844 0.49331 0.0
H90 H 0.61143 0.59614 0.49739 0.0
H91 H 0.52207 0.59539 0.50482 0.0
H92 H 0.53782 0.35782 0.61142 0.0
H93 H 0.45311 0.35474 0.62996 0.0
H94 H 0.54707 0.41482 0.64669 0.0
C95 C 0.08116 0.6099 0.86719 0.0
N96 N 0.10436 0.58041 0.89513 0.0
N97 N 0.024 0.62262 0.87763 0.0
C98 C 0.11888 0.63252 0.83037 0.0
C99 C 0.01268 0.59919 0.91279 0.0
N100 N 0.06205 0.57452 0.92358 0.0
C101 C 0.95155 0.59813 0.93651 0.0
H102 H 0.10476 0.67324 0.8145 0.0
H103 H 0.09754 0.5788 0.81737 0.0
H104 H 0.18323 0.66061 0.83113 0.0
H105 H 0.93494 0.55415 0.96024 0.0
H106 H 0.89861 0.58475 0.9222 0.0
H107 H 0.97539 0.6569 0.94522 0.0
C108 C 0.0703 0.54338 0.46642 0.0
N109 N 0.03151 0.4951 0.44209 0.0
N110 N 0.12061 0.61721 0.4506 0.0
C111 C 0.05342 0.52003 0.50564 0.0
C112 C 0.11013 0.61208 0.41578 0.0
N113 N 0.05507 0.53822 0.41064 0.0
C114 C 0.15775 0.67771 0.38666 0.0
H115 H 0.07371 0.57206 0.51979 0.0
H116 H 0.08366 0.48833 0.5151 0.0
H117 H -0.01015 0.4796 0.51204 0.0
H118 H 0.1636 0.65441 0.3625 0.0
H119 H 0.21686 0.71834 0.39489 0.0
H120 H 0.12795 0.71135 0.38025 0.0
C121 C 0.51608 0.07655 0.80944 0.0
N122 N 0.53347 0.04246 0.78493 0.0
N123 N 0.5039 0.13339 0.79372 0.0
C124 C 0.51365 0.05621 0.84872 0.0
C125 C 0.51645 0.13403 0.75887 0.0
N126 N 0.53457 0.07897 0.75355 0.0
C127 C 0.51705 0.1924 0.73011 0.0
H128 H 0.45425 0.0072 0.85805 0.0
H129 H 0.52599 0.10627 0.86301 0.0
H130 H 0.556 0.037 0.85543 0.0
H131 H 0.57752 0.24315 0.72501 0.0
H132 H 0.47883 0.21452 0.73773 0.0
H133 H 0.49814 0.1659 0.70529 0.0
C134 C 0.52287 0.48462 0.14532 0.0
N135 N 0.57904 0.5164 0.11842 0.0
N136 N 0.45318 0.46864 0.13321 0.0
C137 C 0.53413 0.46311 0.1829 0.0
C138 C 0.46892 0.49287 0.09817 0.0
N139 N 0.54488 0.52055 0.08908 0.0
C140 C 0.41072 0.49151 0.07274 0.0
H141 H 0.5794 0.44629 0.18417 0.0
H142 H 0.47859 0.414 0.19626 0.0
H143 H 0.55344 0.51461 0.19731 0.0
H144 H 0.43976 0.54118 0.0512 0.0
H145 H 0.36321 0.49459 0.08628 0.0
H146 H 0.38476 0.4362 0.06067 0.0
C147 C 0.30055 0.46962 0.18883 0.0
C148 C 0.23171 0.40974 0.17682 0.0
C149 C 0.37387 0.48406 0.17708 0.0
C150 C 0.38011 0.43917 0.15291 0.0
H151 H 0.29801 0.51045 0.20456 0.0
H152 H 0.42585 0.53497 0.18424 0.0
S153 S 0.21756 0.2678 0.1183 0.0
N154 N 0.17398 0.29966 0.14298 0.0
N155 N 0.31234 0.32559 0.12157 0.0
C156 C 0.31176 0.37399 0.14378 0.0
C157 C 0.23713 0.35957 0.15557 0.0
C158 C 0.82801 0.32287 0.45609 0.0
C159 C 0.83886 0.26354 0.47373 0.0
C160 C 0.89168 0.39723 0.44383 0.0
C161 C 0.96818 0.4151 0.44937 0.0
H162 H 0.76955 0.31239 0.45276 0.0
H163 H 0.88111 0.44233 0.43157 0.0
S164 S 0.02851 0.27993 0.49221 0.0
N165 N 0.93205 0.22642 0.49434 0.0
N166 N 0.0522 0.36742 0.47191 0.0
C167 C 0.98015 0.35576 0.4658 0.0
C168 C 0.91526 0.27946 0.47782 0.0
C169 C 0.64754 0.93881 0.79417 0.0
C170 C 0.59419 0.86781 0.81483 0.0
C171 C 0.62666 -0.0048 0.78312 0.0
C172 C 0.55148 0.98111 0.79177 0.0
H173 H 0.70601 0.95154 0.78731 0.0
H174 H 0.66991 0.05088 0.76867 0.0
S175 S 0.38683 0.79973 0.83978 0.0
N176 N 0.46045 0.7837 0.84012 0.0
N177 N 0.42164 0.88864 0.81834 0.0
C178 C 0.49669 0.90884 0.81051 0.0
C179 C 0.51795 0.8524 0.82231 0.0
C180 C 0.74791 0.48523 0.11171 0.0
C181 C 0.79818 0.53226 0.13613 0.0
C182 C 0.67864 0.48399 0.10438 0.0
C183 C 0.65723 0.53062 0.12056 0.0
H184 H 0.75974 0.44561 0.09934 0.0
H185 H 0.63939 0.44263 0.08764 0.0
S186 S 0.77141 0.67212 0.18243 0.0
N187 N 0.82405 0.63232 0.17397 0.0
N188 N 0.69392 0.63084 0.15916 0.0
C189 C 0.70877 0.58185 0.14307 0.0
C190 C 0.77926 0.58261 0.15103 0.0
C191 C 0.23566 0.82489 0.4722 0.0
C192 C 0.2916 0.82268 0.49394 0.0
C193 C 0.17804 0.75687 0.45911 0.0
C194 C 0.17553 0.68489 0.46667 0.0
H195 H 0.23725 0.87973 0.4648 0.0
H196 H 0.13612 0.76077 0.44234 0.0
S197 S 0.31159 0.64873 0.52 0.0
N198 N 0.34133 0.74204 0.52173 0.0
N199 N 0.23534 0.6161 0.49578 0.0
C200 C 0.23083 0.68186 0.48831 0.0
C201 C 0.28831 0.75029 0.50226 0.0
C202 C 0.56625 0.31256 0.83727 0.0
C203 C 0.50239 0.32454 0.83366 0.0
C204 C 0.56504 0.24839 0.82524 0.0
C205 C 0.49956 0.1928 0.80987 0.0
H206 H 0.61954 0.35505 0.84786 0.0
H207 H 0.6167 0.24344 0.82678 0.0
S208 S 0.31427 0.19042 0.79745 0.0
N209 N 0.36949 0.27129 0.81548 0.0
N210 N 0.36725 0.14883 0.79386 0.0
C211 C 0.43375 0.20093 0.80774 0.0
C212 C 0.4351 0.26717 0.81947 0.0
C213 C 0.64415 0.78979 0.53766 0.0
C214 C 0.58757 0.80539 0.5501 0.0
C215 C 0.63691 0.71611 0.5468 0.0
C216 C 0.57264 0.65564 0.56832 0.0
H217 H 0.69325 0.83396 0.52015 0.0
H218 H 0.68051 0.70531 0.53618 0.0
S219 S 0.40881 0.6648 0.60825 0.0
N220 N 0.4659 0.75311 0.58664 0.0
N221 N 0.45206 0.61491 0.60173 0.0
C222 C 0.51695 0.67061 0.58159 0.0
C223 C 0.52447 0.74543 0.57299 0.0
C224 C 0.91588 0.72675 0.85329 0.0
C225 C 0.86181 0.67724 0.83101 0.0
C226 C 0.97493 0.71357 0.86584 0.0
C227 C 0.98077 0.65014 0.85672 0.0
H228 H 0.90755 0.77035 0.86399 0.0
H229 H 0.0119 0.74869 0.88518 0.0
S230 S 0.85921 0.51021 0.79578 0.0
N231 N 0.82323 0.56856 0.79719 0.0
N232 N 0.93328 0.54307 0.82135 0.0
C233 C 0.93205 0.60543 0.83178 0.0
C234 C 0.87261 0.61923 0.81877 0.0
C235 C 0.22131 0.80051 0.20487 0.0
C236 C 0.23038 0.74426 0.1895 0.0
C237 C 0.28466 0.86254 0.21883 0.0
C238 C 0.3583 0.86935 0.21814 0.0
H239 H 0.16483 0.79602 0.20655 0.0
H240 H 0.27612 0.90484 0.23064 0.0
S241 S 0.4135 0.73771 0.18255 0.0
N242 N 0.32036 0.70025 0.17506 0.0
N243 N 0.43759 0.81605 0.20206 0.0
C244 C 0.36845 0.81426 0.20299 0.0
C245 C 0.30494 0.75193 0.18839 0.0
C246 C 0.44924 0.2585 0.53353 0.0
C247 C 0.5131 0.26801 0.51326 0.0
C248 C 0.45314 0.32258 0.54752 0.0
C249 C 0.52104 0.39728 0.54168 0.0
H250 H 0.39878 0.20049 0.54086 0.0
H251 H 0.40467 0.31314 0.56446 0.0
S252 S 0.70199 0.45234 0.48908 0.0
N253 N 0.64391 0.35784 0.48648 0.0
N254 N 0.65155 0.47763 0.51325 0.0
C255 C 0.5832 0.40805 0.51985 0.0
C256 C 0.57909 0.34339 0.5055 0.0
C257 C 0.23688 0.51139 0.86601 0.0
C258 C 0.30725 0.56123 0.88077 0.0
C259 C 0.16896 0.51426 0.87274 0.0
C260 C 0.16902 0.56718 0.89426 0.0
H261 H 0.23476 0.4717 0.84825 0.0
H262 H 0.1167 0.47719 0.85989 0.0
S263 S 0.33625 0.70991 0.93953 0.0
N264 N 0.37064 0.6634 0.91939 0.0
N265 N 0.24421 0.67041 0.92992 0.0
C266 C 0.23773 0.61551 0.9099 0.0
C267 C 0.30649 0.61207 0.9037 0.0
C268 C 0.71015 0.21453 0.1952 0.0
C269 C 0.77498 0.20574 0.20174 0.0
C270 C 0.63546 0.15794 0.20975 0.0
C271 C 0.62229 0.08962 0.23073 0.0
H272 H 0.71728 0.26637 0.17919 0.0
H273 H 0.58702 0.16663 0.20395 0.0
S274 S 0.77137 0.03788 0.25592 0.0
N275 N 0.82147 0.12458 0.23172 0.0
N276 N 0.67923 0.01544 0.25733 0.0
C277 C 0.68626 0.08012 0.23789 0.0
C278 C 0.76308 0.13884 0.22374 0.0
C279 C 0.03067 0.45532 0.01162 0.0
C280 C 0.05922 0.51338 0.03454 0.0
C281 C 0.03745 0.47583 0.97475 0.0
C282 C 0.07163 0.5547 0.95985 0.0
H283 H 0.00186 0.39384 0.02227 0.0
H284 H 0.01233 0.42986 0.95788 0.0
S285 S 0.15205 0.72819 1.00791 0.0
N286 N 0.12315 0.65318 0.03915 0.0
N287 N 0.13176 0.69021 0.97041 0.0
C288 C 0.10058 0.61282 0.98239 0.0
C289 C 0.09555 0.59256 0.01957 0.0
C290 C 0.56187 0.08877 0.35334 0.0
C291 C 0.57231 0.03559 0.37685 0.0
C292 C 0.5485 0.07766 0.31783 0.0
C293 C 0.54434 0.01275 0.30478 0.0
H294 H 0.5612 0.13777 0.36272 0.0
H295 H 0.53642 0.11711 0.30099 0.0
S296 S 0.57228 0.85929 0.35398 0.0
N297 N 0.58258 0.91823 0.38334 0.0
N298 N 0.55541 0.89714 0.31681 0.0
C299 C 0.5584 0.96149 0.32728 0.0
C300 C 0.57305 0.97305 0.36327 0.0
C301 C 0.48521 0.52795 0.69742 0.0
C302 C 0.55291 0.59005 0.70928 0.0
C303 C 0.48298 0.51043 0.66273 0.0
C304 C 0.54805 0.55439 0.63841 0.0
H305 H 0.43396 0.49103 0.71527 0.0
H306 H 0.43019 0.46154 0.65485 0.0
S307 S 0.73803 0.72498 0.65467 0.0
N308 N 0.6859 0.698 0.69263 0.0
N309 N 0.68092 0.66348 0.62773 0.0
C310 C 0.6151 0.61785 0.64928 0.0
C311 C 0.61773 0.63602 0.68461 0.0
C312 C 0.49593 -0.00628 0.66877 0.0
C313 C 0.56144 0.05102 0.6466 0.0
C314 C 0.49019 -0.00055 0.70478 0.0
C315 C 0.54973 0.06225 0.71985 0.0
H316 H 0.44712 0.94573 0.65804 0.0
H317 H 0.43704 0.95727 0.72055 0.0
S318 S 0.73665 0.22258 0.67546 0.0
N319 N 0.6904 0.16909 0.64394 0.0
N320 N 0.67808 0.17886 0.7116 0.0
C321 C 0.61726 0.11697 0.69887 0.0
C322 C 0.62352 0.11159 0.66224 0.0
C323 C 0.62423 0.63708 1.00025 0.0
C324 C 0.60381 0.57767 0.97851 0.0
C325 C 0.61202 0.61916 0.03719 0.0
C326 C 0.57829 0.54137 0.05343 0.0
H327 H 0.64716 0.6973 0.9886 0.0
H328 H 0.62409 0.66539 0.05303 0.0
S329 S 0.51385 0.36452 1.00915 0.0
N330 N 0.5501 0.43779 0.97666 0.0
N331 N 0.52435 0.40505 0.04566 0.0
C332 C 0.55986 0.48212 0.03225 0.0
C333 C 0.57347 0.50005 0.9949 0.0
C334 C 0.9839 0.53185 0.31964 0.0
C335 C -0.0015 0.47701 0.30619 0.0
C336 C -0.00128 0.54861 0.35443 0.0
C337 C 0.02837 0.51111 0.37716 0.0
H338 H 0.96382 0.56458 0.30283 0.0
H339 H -0.01038 0.59328 0.36336 0.0
S340 S 0.07023 0.35822 0.35689 0.0
N341 N 0.03875 0.38059 0.32004 0.0
N342 N 0.06773 0.41413 0.38507 0.0
C343 C 0.03938 0.45347 0.36497 0.0
C344 C 0.02422 0.43597 0.32957 0.0
loop_
_geom_bond_atom_site_label_1
_geom_bond_atom_site_label_2
_geom_bond_distance
_geom_bond_site_symmetry_2
_ccdc_geom_bond_type
O0 Zn1 1.953 1_655 S
O0 C16 1.225 1_655 S
Zn1 O0 1.953 1_455 S
Zn1 O2 1.949 . S
Zn1 O8 1.919 1_455 S
Zn1 O13 1.924 . S
O2 Zn1 1.949 . S
O2 Zn3 1.923 1_455 S
O2 Zn4 1.950 . S
O2 Zn5 1.945 . S
Zn3 O2 1.923 1_655 S
Zn3 O6 1.933 . S
Zn3 O9 1.941 . S
Zn3 O10 1.965 . S
Zn4 O2 1.950 . S
Zn4 O11 1.938 1_455 S
Zn4 O12 1.906 . S
Zn4 O22 1.953 . S
Zn5 O2 1.945 . S
Zn5 O7 1.932 . S
Zn5 O14 1.977 . S
Zn5 O15 1.910 . S
O6 Zn3 1.933 . S
O6 C17 1.226 1_655 S
O7 Zn5 1.932 . S
O7 C17 1.307 . S
O8 Zn1 1.919 1_655 S
O8 C19 1.253 . S
O9 Zn3 1.941 . S
O9 C19 1.283 . S
O10 Zn3 1.965 . S
O10 C18 1.303 . S
O11 Zn4 1.938 1_655 S
O11 C18 1.247 . S
O12 Zn4 1.906 . S
O12 C20 1.304 . S
O13 Zn1 1.924 . S
O13 C21 1.311 . S
O14 Zn5 1.977 . S
O14 C20 1.272 . S
O15 Zn5 1.910 . S
O15 C21 1.231 . S
C16 O0 1.225 1_455 S
C16 O22 1.298 . S
C17 O6 1.226 1_455 S
C17 O7 1.307 . S
C18 O10 1.303 . S
C18 O11 1.247 . S
C19 O8 1.253 . S
C19 O9 1.283 . S
C20 O12 1.304 . S
C20 O14 1.272 . S
C21 O13 1.311 . S
C21 O15 1.231 . S
O22 Zn4 1.953 . S
O22 C16 1.298 . S
O23 Zn24 1.953 . S
O23 C39 1.225 . S
Zn24 O23 1.953 . S
Zn24 O25 1.949 . S
Zn24 O31 1.919 . S
Zn24 O36 1.924 1_545 S
O25 Zn24 1.949 . S
O25 Zn26 1.923 . S
O25 Zn27 1.950 . S
O25 Zn28 1.945 1_545 S
Zn26 O25 1.923 . S
Zn26 O29 1.933 . S
Zn26 O32 1.941 . S
Zn26 O33 1.965 . S
Zn27 O25 1.950 . S
Zn27 O34 1.938 . S
Zn27 O35 1.906 1_545 S
Zn27 O45 1.953 . S
Zn28 O25 1.945 1_565 S
Zn28 O30 1.932 . S
Zn28 O37 1.977 . S
Zn28 O38 1.910 . S
O29 Zn26 1.933 . S
O29 C40 1.226 . S
O30 Zn28 1.932 . S
O30 C40 1.307 1_565 S
O31 Zn24 1.919 . S
O31 C42 1.253 . S
O32 Zn26 1.941 . S
O32 C42 1.283 . S
O33 Zn26 1.965 . S
O33 C41 1.303 . S
O34 Zn27 1.938 . S
O34 C41 1.247 . S
O35 Zn27 1.906 1_565 S
O35 C43 1.304 . S
O36 Zn24 1.924 1_565 S
O36 C44 1.311 . S
O37 Zn28 1.977 . S
O37 C43 1.272 . S
O38 Zn28 1.910 . S
O38 C44 1.231 . S
C39 O23 1.225 . S
C39 O45 1.298 . S
C40 O29 1.226 . S
C40 O30 1.307 1_545 S
C41 O33 1.303 . S
C41 O34 1.247 . S
C42 O31 1.253 . S
C42 O32 1.283 . S
C43 O35 1.304 . S
C43 O37 1.272 . S
C44 O36 1.311 . S
C44 O38 1.231 . S
O45 Zn27 1.953 . S
O45 C39 1.298 . S
O46 Zn47 1.953 . S
O46 C62 1.225 . S
Zn47 O46 1.953 . S
Zn47 O48 1.949 . S
Zn47 O54 1.919 . S
Zn47 O59 1.924 . S
O48 Zn47 1.949 . S
O48 Zn49 1.923 . S
O48 Zn50 1.950 . S
O48 Zn51 1.945 . S
Zn49 O48 1.923 . S
Zn49 O52 1.933 . S
Zn49 O55 1.941 . S
Zn49 O56 1.965 . S
Zn50 O48 1.950 . S
Zn50 O57 1.938 . S
Zn50 O58 1.906 . S
Zn50 O68 1.953 . S
Zn51 O48 1.945 . S
Zn51 O53 1.932 . S
Zn51 O60 1.977 . S
Zn51 O61 1.910 . S
O52 Zn49 1.933 . S
O52 C63 1.226 . S
O53 Zn51 1.932 . S
O53 C63 1.307 . S
O54 Zn47 1.919 . S
O54 C65 1.253 . S
O55 Zn49 1.941 . S
O55 C65 1.283 . S
O56 Zn49 1.965 . S
O56 C64 1.303 . S
O57 Zn50 1.938 . S
O57 C64 1.247 . S
O58 Zn50 1.906 . S
O58 C66 1.304 . S
O59 Zn47 1.924 . S
O59 C67 1.311 . S
O60 Zn51 1.977 . S
O60 C66 1.272 . S
O61 Zn51 1.910 . S
O61 C67 1.231 . S
C62 O46 1.225 . S
C62 O68 1.298 . S
C63 O52 1.226 . S
C63 O53 1.307 . S
C64 O56 1.303 . S
C64 O57 1.247 . S
C65 O54 1.253 . S
C65 O55 1.283 . S
C66 O58 1.304 . S
C66 O60 1.272 . S
C67 O59 1.311 . S
C67 O61 1.231 . S
O68 Zn50 1.953 . S
O68 C62 1.298 . S
C69 N70 1.317 . S
C69 N71 1.348 1_545 S
C69 C72 1.485 . S
N70 C69 1.317 . S
N70 N74 1.370 . S
N71 C69 1.348 1_565 S
N71 C73 1.346 . S
C72 C69 1.485 . S
C72 H76 0.960 . S
C72 H77 0.961 1_545 S
C72 H78 0.960 . S
C73 N71 1.346 . S
C73 N74 1.307 1_565 S
C73 C75 1.486 . S
N74 N70 1.370 . S
N74 C73 1.307 1_545 S
C75 C73 1.486 . S
C75 H79 0.960 . S
C75 H80 0.960 . S
C75 H81 0.959 . S
H76 C72 0.960 . S
H77 C72 0.961 1_565 S
H78 C72 0.960 . S
H79 C75 0.960 . S
H80 C75 0.960 . S
H81 C75 0.959 . S
C82 N83 1.317 . S
C82 N84 1.348 . S
C82 C85 1.485 . S
N83 C82 1.317 . S
N83 N87 1.370 . S
N84 C82 1.348 . S
N84 C86 1.346 . S
C85 C82 1.485 . S
C85 H89 0.960 . S
C85 H90 0.961 . S
C85 H91 0.960 . S
C86 N84 1.346 . S
C86 N87 1.307 . S
C86 C88 1.486 . S
N87 N83 1.370 . S
N87 C86 1.307 . S
C88 C86 1.486 . S
C88 H92 0.960 . S
C88 H93 0.960 . S
C88 H94 0.959 . S
H89 C85 0.960 . S
H90 C85 0.961 . S
H91 C85 0.960 . S
H92 C88 0.960 . S
H93 C88 0.960 . S
H94 C88 0.959 . S
C95 N96 1.317 . S
C95 N97 1.348 1_455 S
C95 C98 1.485 . S
N96 C95 1.317 . S
N96 N100 1.370 . S
N97 C95 1.348 1_655 S
N97 C99 1.346 . S
C98 C95 1.485 . S
C98 H102 0.960 . S
C98 H103 0.961 . S
C98 H104 0.960 . S
C99 N97 1.346 . S
C99 N100 1.307 1_655 S
C99 C101 1.486 . S
N100 N96 1.370 . S
N100 C99 1.307 1_455 S
C101 C99 1.486 . S
C101 H105 0.960 . S
C101 H106 0.960 . S
C101 H107 0.959 . S
H102 C98 0.960 . S
H103 C98 0.961 . S
H104 C98 0.960 . S
H105 C101 0.960 . S
H106 C101 0.960 . S
H107 C101 0.959 . S
C108 N109 1.317 . S
C108 N110 1.348 . S
C108 C111 1.485 . S
N109 C108 1.317 . S
N109 N113 1.370 . S
N110 C108 1.348 . S
N110 C112 1.346 . S
C111 C108 1.485 . S
C111 H115 0.960 . S
C111 H116 0.961 . S
C111 H117 0.960 . S
C112 N110 1.346 . S
C112 N113 1.307 . S
C112 C114 1.486 . S
N113 N109 1.370 . S
N113 C112 1.307 . S
C114 C112 1.486 . S
C114 H118 0.960 . S
C114 H119 0.960 . S
C114 H120 0.959 . S
H115 C111 0.960 . S
H116 C111 0.961 . S
H117 C111 0.960 . S
H118 C114 0.960 . S
H119 C114 0.960 . S
H120 C114 0.959 . S
C121 N122 1.317 . S
C121 N123 1.348 . S
C121 C124 1.485 . S
N122 C121 1.317 . S
N122 N126 1.370 . S
N123 C121 1.348 . S
N123 C125 1.346 . S
C124 C121 1.485 . S
C124 H128 0.960 . S
C124 H129 0.961 . S
C124 H130 0.960 . S
C125 N123 1.346 . S
C125 N126 1.307 . S
C125 C127 1.486 . S
N126 N122 1.370 . S
N126 C125 1.307 . S
C127 C125 1.486 . S
C127 H131 0.960 . S
C127 H132 0.960 . S
C127 H133 0.959 . S
H128 C124 0.960 . S
H129 C124 0.961 . S
H130 C124 0.960 . S
H131 C127 0.960 . S
H132 C127 0.960 . S
H133 C127 0.959 . S
C134 N135 1.317 . S
C134 N136 1.348 . S
C134 C137 1.485 . S
N135 C134 1.317 . S
N135 N139 1.370 . S
N136 C134 1.348 . S
N136 C138 1.346 . S
C137 C134 1.485 . S
C137 H141 0.960 . S
C137 H142 0.961 . S
C137 H143 0.960 . S
C138 N136 1.346 . S
C138 N139 1.307 . S
C138 C140 1.486 . S
N139 N135 1.370 . S
N139 C138 1.307 . S
C140 C138 1.486 . S
C140 H144 0.960 . S
C140 H145 0.960 . S
C140 H146 0.959 . S
H141 C137 0.960 . S
H142 C137 0.961 . S
H143 C137 0.960 . S
H144 C140 0.960 . S
H145 C140 0.960 . S
H146 C140 0.959 . S
C147 C148 1.369 . S
C147 C149 1.419 . S
C147 H151 0.930 . S
C148 C147 1.369 . S
C148 C157 1.429 . S
C149 C147 1.419 . S
C149 C150 1.363 . S
C149 H152 0.929 . S
C150 C149 1.363 . S
C150 C156 1.428 . S
H151 C147 0.930 . S
H152 C149 0.929 . S
S153 N154 1.613 . S
S153 N155 1.610 . S
N154 S153 1.613 . S
N154 C157 1.350 . S
N155 S153 1.610 . S
N155 C156 1.351 . S
C156 C150 1.428 . S
C156 N155 1.351 . S
C156 C157 1.434 . S
C157 C148 1.429 . S
C157 N154 1.350 . S
C157 C156 1.434 . S
C158 C159 1.369 . S
C158 C160 1.419 . S
C158 H162 0.930 . S
C159 C158 1.369 . S
C159 C168 1.429 . S
C160 C158 1.419 . S
C160 C161 1.363 . S
C160 H163 0.929 . S
C161 C160 1.363 . S
C161 C167 1.428 . S
H162 C158 0.930 . S
H163 C160 0.929 . S
S164 N165 1.613 1_455 S
S164 N166 1.610 . S
N165 S164 1.613 1_655 S
N165 C168 1.350 . S
N166 S164 1.610 . S
N166 C167 1.351 1_455 S
C167 C161 1.428 . S
C167 N166 1.351 1_655 S
C167 C168 1.434 . S
C168 C159 1.429 . S
C168 N165 1.350 . S
C168 C167 1.434 . S
C169 C170 1.369 . S
C169 C171 1.419 . S
C169 H173 0.930 . S
C170 C169 1.369 . S
C170 C179 1.429 . S
C171 C169 1.419 . S
C171 C172 1.363 . S
C171 H174 0.929 1_565 S
C172 C171 1.363 . S
C172 C178 1.428 . S
H173 C169 0.930 . S
H174 C171 0.929 1_545 S
S175 N176 1.613 . S
S175 N177 1.610 . S
N176 S175 1.613 . S
N176 C179 1.350 . S
N177 S175 1.610 . S
N177 C178 1.351 . S
C178 C172 1.428 . S
C178 N177 1.351 . S
C178 C179 1.434 . S
C179 C170 1.429 . S
C179 N176 1.350 . S
C179 C178 1.434 . S
C180 C181 1.369 . S
C180 C182 1.419 . S
C180 H184 0.930 . S
C181 C180 1.369 . S
C181 C190 1.429 . S
C182 C180 1.419 . S
C182 C183 1.363 . S
C182 H185 0.929 . S
C183 C182 1.363 . S
C183 C189 1.428 . S
H184 C180 0.930 . S
H185 C182 0.929 . S
S186 N187 1.613 . S
S186 N188 1.610 . S
N187 S186 1.613 . S
N187 C190 1.350 . S
N188 S186 1.610 . S
N188 C189 1.351 . S
C189 C183 1.428 . S
C189 N188 1.351 . S
C189 C190 1.434 . S
C190 C181 1.429 . S
C190 N187 1.350 . S
C190 C189 1.434 . S
C191 C192 1.369 . S
C191 C193 1.419 . S
C191 H195 0.930 . S
C192 C191 1.369 . S
C192 C201 1.429 . S
C193 C191 1.419 . S
C193 C194 1.363 . S
C193 H196 0.929 . S
C194 C193 1.363 . S
C194 C200 1.428 . S
H195 C191 0.930 . S
H196 C193 0.929 . S
S197 N198 1.613 . S
S197 N199 1.610 . S
N198 S197 1.613 . S
N198 C201 1.350 . S
N199 S197 1.610 . S
N199 C200 1.351 . S
C200 C194 1.428 . S
C200 N199 1.351 . S
C200 C201 1.434 . S
C201 C192 1.429 . S
C201 N198 1.350 . S
C201 C200 1.434 . S
C202 C203 1.369 . S
C202 C204 1.419 . S
C202 H206 0.930 . S
C203 C202 1.369 . S
C203 C212 1.429 . S
C204 C202 1.419 . S
C204 C205 1.363 . S
C204 H207 0.929 . S
C205 C204 1.363 . S
C205 C211 1.428 . S
H206 C202 0.930 . S
H207 C204 0.929 . S
S208 N209 1.613 . S
S208 N210 1.610 . S
N209 S208 1.613 . S
N209 C212 1.350 . S
N210 S208 1.610 . S
N210 C211 1.351 . S
C211 C205 1.428 . S
C211 N210 1.351 . S
C211 C212 1.434 . S
C212 C203 1.429 . S
C212 N209 1.350 . S
C212 C211 1.434 . S
C213 C214 1.369 . S
C213 C215 1.419 . S
C213 H217 0.930 . S
C214 C213 1.369 . S
C214 C223 1.429 . S
C215 C213 1.419 . S
C215 C216 1.363 . S
C215 H218 0.929 . S
C216 C215 1.363 . S
C216 C222 1.428 . S
H217 C213 0.930 . S
H218 C215 0.929 . S
S219 N220 1.613 . S
S219 N221 1.610 . S
N220 S219 1.613 . S
N220 C223 1.350 . S
N221 S219 1.610 . S
N221 C222 1.351 . S
C222 C216 1.428 . S
C222 N221 1.351 . S
C222 C223 1.434 . S
C223 C214 1.429 . S
C223 N220 1.350 . S
C223 C222 1.434 . S
C224 C225 1.369 . S
C224 C226 1.419 . S
C224 H228 0.930 . S
C225 C224 1.369 . S
C225 C234 1.429 . S
C226 C224 1.419 . S
C226 C227 1.363 . S
C226 H229 0.929 . S
C227 C226 1.363 . S
C227 C233 1.428 . S
H228 C224 0.930 . S
H229 C226 0.929 . S
S230 N231 1.613 . S
S230 N232 1.610 . S
N231 S230 1.613 . S
N231 C234 1.350 . S
N232 S230 1.610 . S
N232 C233 1.351 . S
C233 C227 1.428 . S
C233 N232 1.351 . S
C233 C234 1.434 . S
C234 C225 1.429 . S
C234 N231 1.350 . S
C234 C233 1.434 . S
C235 C236 1.369 . S
C235 C237 1.419 . S
C235 H239 0.930 . S
C236 C235 1.369 . S
C236 C245 1.429 . S
C237 C235 1.419 . S
C237 C238 1.363 . S
C237 H240 0.929 . S
C238 C237 1.363 . S
C238 C244 1.428 . S
H239 C235 0.930 . S
H240 C237 0.929 . S
S241 N242 1.613 . S
S241 N243 1.610 . S
N242 S241 1.613 . S
N242 C245 1.350 . S
N243 S241 1.610 . S
N243 C244 1.351 . S
C244 C238 1.428 . S
C244 N243 1.351 . S
C244 C245 1.434 . S
C245 C236 1.429 . S
C245 N242 1.350 . S
C245 C244 1.434 . S
C246 C247 1.369 . S
C246 C248 1.419 . S
C246 H250 0.930 . S
C247 C246 1.369 . S
C247 C256 1.429 . S
C248 C246 1.419 . S
C248 C249 1.363 . S
C248 H251 0.929 . S
C249 C248 1.363 . S
C249 C255 1.428 . S
H250 C246 0.930 . S
H251 C248 0.929 . S
S252 N253 1.613 . S
S252 N254 1.610 . S
N253 S252 1.613 . S
N253 C256 1.350 . S
N254 S252 1.610 . S
N254 C255 1.351 . S
C255 C249 1.428 . S
C255 N254 1.351 . S
C255 C256 1.434 . S
C256 C247 1.429 . S
C256 N253 1.350 . S
C256 C255 1.434 . S
C257 C258 1.369 . S
C257 C259 1.419 . S
C257 H261 0.930 . S
C258 C257 1.369 . S
C258 C267 1.429 . S
C259 C257 1.419 . S
C259 C260 1.363 . S
C259 H262 0.929 . S
C260 C259 1.363 . S
C260 C266 1.428 . S
H261 C257 0.930 . S
H262 C259 0.929 . S
S263 N264 1.613 . S
S263 N265 1.610 . S
N264 S263 1.613 . S
N264 C267 1.350 . S
N265 S263 1.610 . S
N265 C266 1.351 . S
C266 C260 1.428 . S
C266 N265 1.351 . S
C266 C267 1.434 . S
C267 C258 1.429 . S
C267 N264 1.350 . S
C267 C266 1.434 . S
C268 C269 1.369 . S
C268 C270 1.419 . S
C268 H272 0.930 . S
C269 C268 1.369 . S
C269 C278 1.429 . S
C270 C268 1.419 . S
C270 C271 1.363 . S
C270 H273 0.929 . S
C271 C270 1.363 . S
C271 C277 1.428 . S
H272 C268 0.930 . S
H273 C270 0.929 . S
S274 N275 1.613 . S
S274 N276 1.610 . S
N275 S274 1.613 . S
N275 C278 1.350 . S
N276 S274 1.610 . S
N276 C277 1.351 . S
C277 C271 1.428 . S
C277 N276 1.351 . S
C277 C278 1.434 . S
C278 C269 1.429 . S
C278 N275 1.350 . S
C278 C277 1.434 . S
C279 C280 1.369 1_655 S
C279 C281 1.419 1_554 S
C279 H283 0.930 . S
C280 C279 1.369 1_455 S
C280 C289 1.429 . S
C281 C279 1.419 1_556 S
C281 C282 1.363 1_655 S
C281 H284 0.929 . S
C282 C281 1.363 1_455 S
C282 C288 1.428 . S
H283 C279 0.930 . S
H284 C281 0.929 . S
S285 N286 1.613 . S
S285 N287 1.610 1_554 S
N286 S285 1.613 . S
N286 C289 1.350 . S
N287 S285 1.610 1_556 S
N287 C288 1.351 . S
C288 C282 1.428 . S
C288 N287 1.351 . S
C288 C289 1.434 1_556 S
C289 C280 1.429 . S
C289 N286 1.350 . S
C289 C288 1.434 1_554 S
C290 C291 1.369 . S
C290 C292 1.419 . S
C290 H294 0.930 . S
C291 C290 1.369 . S
C291 C300 1.429 1_545 S
C292 C290 1.419 . S
C292 C293 1.363 . S
C292 H295 0.929 . S
C293 C292 1.363 . S
C293 C299 1.428 1_545 S
H294 C290 0.930 . S
H295 C292 0.929 . S
S296 N297 1.613 . S
S296 N298 1.610 . S
N297 S296 1.613 . S
N297 C300 1.350 . S
N298 S296 1.610 . S
N298 C299 1.351 . S
C299 C293 1.428 1_565 S
C299 N298 1.351 . S
C299 C300 1.434 . S
C300 C291 1.429 1_565 S
C300 N297 1.350 . S
C300 C299 1.434 . S
C301 C302 1.369 . S
C301 C303 1.419 . S
C301 H305 0.930 . S
C302 C301 1.369 . S
C302 C311 1.429 . S
C303 C301 1.419 . S
C303 C304 1.363 . S
C303 H306 0.929 . S
C304 C303 1.363 . S
C304 C310 1.428 . S
H305 C301 0.930 . S
H306 C303 0.929 . S
S307 N308 1.613 . S
S307 N309 1.610 . S
N308 S307 1.613 . S
N308 C311 1.350 . S
N309 S307 1.610 . S
N309 C310 1.351 . S
C310 C304 1.428 . S
C310 N309 1.351 . S
C310 C311 1.434 . S
C311 C302 1.429 . S
C311 N308 1.350 . S
C311 C310 1.434 . S
C312 C313 1.369 1_565 S
C312 C314 1.419 . S
C312 H316 0.930 . S
C313 C312 1.369 1_545 S
C313 C322 1.429 . S
C314 C312 1.419 . S
C314 C315 1.363 1_565 S
C314 H317 0.929 . S
C315 C314 1.363 1_545 S
C315 C321 1.428 . S
H316 C312 0.930 . S
H317 C314 0.929 . S
S318 N319 1.613 . S
S318 N320 1.610 . S
N319 S318 1.613 . S
N319 C322 1.350 . S
N320 S318 1.610 . S
N320 C321 1.351 . S
C321 C315 1.428 . S
C321 N320 1.351 . S
C321 C322 1.434 . S
C322 C313 1.429 . S
C322 N319 1.350 . S
C322 C321 1.434 . S
C323 C324 1.369 . S
C323 C325 1.419 1_556 S
C323 H327 0.930 . S
C324 C323 1.369 . S
C324 C333 1.429 . S
C325 C323 1.419 1_554 S
C325 C326 1.363 . S
C325 H328 0.929 . S
C326 C325 1.363 . S
C326 C332 1.428 . S
H327 C323 0.930 . S
H328 C325 0.929 . S
S329 N330 1.613 . S
S329 N331 1.610 1_556 S
N330 S329 1.613 . S
N330 C333 1.350 . S
N331 S329 1.610 1_554 S
N331 C332 1.351 . S
C332 C326 1.428 . S
C332 N331 1.351 . S
C332 C333 1.434 1_554 S
C333 C324 1.429 . S
C333 N330 1.350 . S
C333 C332 1.434 1_556 S
C334 C335 1.369 . S
C334 C336 1.419 . S
C334 H338 0.930 . S
C335 C334 1.369 . S
C335 C344 1.429 . S
C336 C334 1.419 . S
C336 C337 1.363 . S
C336 H339 0.929 . S
C337 C336 1.363 . S
C337 C343 1.428 . S
H338 C334 0.930 . S
H339 C336 0.929 . S
S340 N341 1.613 . S
S340 N342 1.610 . S
N341 S340 1.613 . S
N341 C344 1.350 . S
N342 S340 1.610 . S
N342 C343 1.351 . S
C343 C337 1.428 . S
C343 N342 1.351 . S
C343 C344 1.434 . S
C344 C335 1.429 . S
C344 N341 1.350 . S
C344 C343 1.434 . S
C148 C20 1.155 . S
C150 N136 1.227 . S
C159 C41 1.454 . S
C161 N109 1.428 1_655 S
C170 C64 1.452 . S
C172 N122 1.431 1_565 S
C181 C19 1.573 . S
C183 N135 1.603 . S
C194 N110 1.418 . S
C192 C44 1.415 . S
C205 N123 1.416 . S
C203 C67 1.409 . S
C214 C43 1.333 . S
C216 N83 1.411 . S
C225 C66 1.152 . S
C227 N97 1.228 . S
C236 C21 1.415 . S
C238 N71 1.422 . S
C249 N84 1.417 . S
C247 C42 1.374 . S
C260 N96 1.606 . S
C258 C65 1.568 . S
C269 C18 1.430 . S
C271 N70 1.402 . S
C282 N100 1.499 . S
C280 C17 1.541 . S
C291 C39 1.547 . S
C293 N74 1.548 . S
C302 C62 1.542 . S
C304 N87 1.545 . S
C315 N126 1.532 . S
C313 C40 1.540 . S
C326 N139 1.497 . S
C324 C63 1.541 . S
C335 C16 1.534 . S
C337 N113 1.535 . S
