# Generated by pormake.
# Topology pth, (4,4)-cn, num edge types: 1
# Building blocks:
#     Node 0, Type 0, BuildingBlock: TATPOV_clean_sbu_0, # of connection points: 4
#     Node 1, Type 0, BuildingBlock: TATPOV_clean_sbu_0, # of connection points: 4
#     Node 2, Type 0, BuildingBlock: TATPOV_clean_sbu_0, # of connection points: 4
#     Node 3, Type 1, BuildingBlock: MUDLON_clean_linker_0, # of connection points: 4
#     Node 4, Type 1, BuildingBlock: MUDLON_clean_linker_0, # of connection points: 4
#     Node 5, Type 1, BuildingBlock: MUDLON_clean_linker_0, # of connection points: 4
#     Edge 6, Type (0, 1), BuildingBlock: AJUNOK_clean_linker_0, # of connection points: 2
#     Edge 7, Type (0, 1), BuildingBlock: AJUNOK_clean_linker_0, # of connection points: 2
#     Edge 8, Type (0, 1), BuildingBlock: AJUNOK_clean_linker_0, # of connection points: 2
#     Edge 9, Type (0, 1), BuildingBlock: AJUNOK_clean_linker_0, # of connection points: 2
#     Edge 10, Type (0, 1), BuildingBlock: AJUNOK_clean_linker_0, # of connection points: 2
#     Edge 11, Type (0, 1), BuildingBlock: AJUNOK_clean_linker_0, # of connection points: 2
#     Edge 12, Type (0, 1), BuildingBlock: AJUNOK_clean_linker_0, # of connection points: 2
#     Edge 13, Type (0, 1), BuildingBlock: AJUNOK_clean_linker_0, # of connection points: 2
#     Edge 14, Type (0, 1), BuildingBlock: AJUNOK_clean_linker_0, # of connection points: 2
#     Edge 15, Type (0, 1), BuildingBlock: AJUNOK_clean_linker_0, # of connection points: 2
#     Edge 16, Type (0, 1), BuildingBlock: AJUNOK_clean_linker_0, # of connection points: 2
#     Edge 17, Type (0, 1), BuildingBlock: AJUNOK_clean_linker_0, # of connection points: 2
# Relax obj value: 0.057
# Max RMSD: 0.167
# Mean RMSD: 0.112
data_MOF--net-pth--node1-TATPOV_clean_sbu_0--node2-MUDLON_clean_linker_0--edge1-AJUNOK_clean_linker_0
_symmetry_space_group_name_H-M    P1
_symmetry_Int_Tables_number       1
_symmetry_cell_setting            triclinic
loop_
_symmetry_equiv_pos_as_xyz
'x, y, z'
_cell_length_a     27.279808
_cell_length_b     26.974972
_cell_length_c     53.151212
_cell_angle_alpha  92.537817
_cell_angle_beta   92.266026
_cell_angle_gamma 121.02396
loop_
_atom_site_label
_atom_site_type_symbol
_atom_site_fract_x
_atom_site_fract_y
_atom_site_fract_z
_atom_type_partial_charge
Zn0 Zn 0.06411 0.95623 0.00954 0.0
Zn1 Zn 0.02987 0.02368 0.03009 0.0
O2 O 0.02561 0.97086 0.05818 0.0
O3 O 0.05389 0.91484 0.04115 0.0
O4 O 0.01463 0.08165 0.04784 0.0
O5 O 0.14013 0.02405 0.00173 0.0
O6 O 0.10795 0.07875 0.016 0.0
C7 C 0.03544 0.92965 0.05974 0.0
C8 C 0.95968 0.9424 0.98469 0.0
O9 O 0.96544 0.98 0.00184 0.0
O10 O 0.99617 0.92668 0.98411 0.0
C11 C 0.98075 0.07062 0.06532 0.0
O12 O 0.95053 0.01711 0.07191 0.0
C13 C 0.14671 0.07381 0.00564 0.0
Zn14 Zn 0.15437 0.11083 0.33661 0.0
Zn15 Zn 0.06786 0.08843 0.3653 0.0
O16 O 0.13838 0.10947 0.38927 0.0
O17 O 0.21085 0.13036 0.36626 0.0
O18 O 0.01223 0.08074 0.39096 0.0
O19 O 0.14556 0.17224 0.32041 0.0
O20 O 0.07247 0.15133 0.34303 0.0
C21 C 0.19075 0.1247 0.38768 0.0
C22 C 0.05599 0.99182 0.32955 0.0
O23 O 0.03317 0.00843 0.34577 0.0
O24 O 0.10572 0.02715 0.32294 0.0
C25 C 0.96607 0.08104 0.38734 0.0
O26 O 0.9485 0.08307 0.36424 0.0
C27 C 0.1055 0.18037 0.32619 0.0
Zn28 Zn 0.05586 0.90407 0.7124 0.0
Zn29 Zn 0.02511 0.9748 0.6929 0.0
O30 O 0.07177 0.96124 0.66709 0.0
O31 O 0.09636 0.90163 0.68157 0.0
O32 O 0.99502 0.01586 0.67244 0.0
O33 O 0.97355 0.84376 0.7178 0.0
O34 O 0.95191 0.90728 0.70554 0.0
C35 C 0.09763 0.93344 0.6645 0.0
C36 C 0.1028 0.01951 0.74 0.0
O37 O 0.07715 0.03032 0.72248 0.0
O38 O 0.09949 0.97077 0.73959 0.0
C39 C 0.95619 0.02574 0.67872 0.0
O40 O 0.93584 0.01234 0.70101 0.0
C41 C 0.93701 0.85893 0.7146 0.0
H42 H 0.85612 0.73428 0.2129 0.0
N43 N 0.89597 0.66429 0.20166 0.0
H44 H 0.8859 0.80372 0.24956 0.0
H45 H 0.94556 0.65844 0.2479 0.0
H46 H 0.97298 0.7261 0.28454 0.0
H47 H 0.99677 0.76997 0.20376 0.0
H48 H 0.03201 0.83667 0.17019 0.0
H49 H 0.84812 0.64842 0.15498 0.0
H50 H 0.88428 0.715 0.12106 0.0
H51 H 0.82813 0.54941 0.19389 0.0
H52 H 0.00566 0.68541 0.20637 0.0
H53 H 0.85691 0.47718 0.18959 0.0
H54 H 0.03467 0.61416 0.20302 0.0
H55 H 0.95185 0.28438 0.21303 0.0
H56 H 0.96993 0.24409 0.24997 0.0
H57 H 0.14151 0.39383 0.26126 0.0
H58 H 0.12354 0.43308 0.22357 0.0
H59 H 0.1077 0.37687 0.16452 0.0
H60 H 0.09056 0.30364 0.13087 0.0
H61 H 0.90794 0.22366 0.13635 0.0
H62 H 0.92565 0.2973 0.1702 0.0
H63 H 0.92994 0.36153 0.20997 0.0
H64 H 0.89606 0.42954 0.21229 0.0
H65 H 0.04181 0.55134 0.17322 0.0
N66 N 0.03083 0.38206 0.19155 0.0
H67 H 0.07655 0.48405 0.17219 0.0
C68 C 0.9019 0.69357 0.22632 0.0
C69 C 0.88112 0.73163 0.22856 0.0
C70 C 0.89777 0.7711 0.24964 0.0
C71 C 0.93398 0.77196 0.26937 0.0
C72 C 0.94737 0.72817 0.26898 0.0
C73 C 0.93178 0.68945 0.24769 0.0
C74 C 0.91911 0.70411 0.18195 0.0
C75 C 0.97169 0.75749 0.18583 0.0
C76 C 0.99175 0.79578 0.16673 0.0
C77 C 0.96044 0.78104 0.14326 0.0
C78 C 0.90892 0.72728 0.13911 0.0
C79 C 0.88831 0.68935 0.15837 0.0
C80 C 0.91442 0.62268 0.20045 0.0
C81 C 0.87322 0.56355 0.19592 0.0
C82 C 0.88981 0.5224 0.19358 0.0
C83 C 0.94821 0.53973 0.1958 0.0
C84 C 0.98941 0.59915 0.20059 0.0
C85 C 0.97285 0.64015 0.20266 0.0
C86 C 0.03676 0.36165 0.21541 0.0
C87 C 0.99298 0.30913 0.22366 0.0
C88 C 0.0032 0.28635 0.24499 0.0
C89 C 0.05711 0.31591 0.2586 0.0
C90 C 0.09964 0.36999 0.25109 0.0
C91 C 0.08947 0.39254 0.22968 0.0
C92 C 0.01817 0.34263 0.16975 0.0
C93 C 0.064 0.34424 0.15806 0.0
C94 C 0.05407 0.30256 0.1388 0.0
C95 C 0.99785 0.25827 0.13082 0.0
C96 C 0.95168 0.25739 0.14214 0.0
C97 C 0.96172 0.29945 0.16139 0.0
C98 C 0.00645 0.41834 0.19124 0.0
C99 C 0.95455 0.40284 0.20193 0.0
C100 C 0.93498 0.44172 0.20306 0.0
C101 C 0.96656 0.49646 0.19326 0.0
C102 C 0.0171 0.51038 0.18159 0.0
C103 C 0.03682 0.47183 0.18073 0.0
H104 H 0.83818 0.20389 0.58103 0.0
N105 N 0.78479 0.1398 0.53824 0.0
H106 H 0.87749 0.17766 0.61699 0.0
H107 H 0.77167 0.03339 0.54426 0.0
H108 H 0.81112 0.00727 0.57989 0.0
H109 H 0.72907 0.04745 0.50259 0.0
H110 H 0.77014 0.03096 0.46511 0.0
H111 H 0.88591 0.21111 0.5212 0.0
H112 H 0.92721 0.19459 0.48391 0.0
H113 H 0.75745 0.2186 0.52905 0.0
H114 H 0.68345 0.03993 0.54556 0.0
H115 H 0.66309 0.20829 0.52933 0.0
H116 H 0.58931 0.02969 0.54702 0.0
H117 H 0.38113 0.1519 0.58234 0.0
H118 H 0.30396 0.102 0.61058 0.0
H119 H 0.25296 0.93796 0.57053 0.0
H120 H 0.33027 0.98835 0.54223 0.0
H121 H 0.35314 0.02877 0.50087 0.0
H122 H 0.30629 0.03988 0.46319 0.0
H123 H 0.34761 0.20874 0.49418 0.0
H124 H 0.39547 0.19772 0.53184 0.0
H125 H 0.50401 0.19346 0.55959 0.0
H126 H 0.59647 0.19962 0.55861 0.0
H127 H 0.51144 0.0255 0.52275 0.0
N128 N 0.40204 0.10593 0.5423 0.0
H129 H 0.41917 0.01909 0.52495 0.0
C130 C 0.80246 0.12098 0.55994 0.0
C131 C 0.83145 0.16065 0.58091 0.0
C132 C 0.85363 0.14559 0.60139 0.0
C133 C 0.84728 0.09049 0.60113 0.0
C134 C 0.81679 0.05014 0.58044 0.0
C135 C 0.79421 0.06503 0.5601 0.0
C136 C 0.80459 0.13087 0.51466 0.0
C137 C 0.77192 0.08023 0.49843 0.0
C138 C 0.79537 0.07076 0.47707 0.0
C139 C 0.85194 0.11125 0.47187 0.0
C140 C 0.88372 0.16243 0.4877 0.0
C141 C 0.86018 0.17207 0.50884 0.0
C142 C 0.72775 0.13054 0.53754 0.0
C143 C 0.72073 0.17719 0.53281 0.0
C144 C 0.66682 0.17126 0.53322 0.0
C145 C 0.61852 0.11835 0.53859 0.0
C146 C 0.62538 0.07098 0.5427 0.0
C147 C 0.67941 0.07689 0.54207 0.0
C148 C 0.36171 0.07394 0.56043 0.0
C149 C 0.35398 0.10509 0.58001 0.0
C150 C 0.30976 0.07664 0.59592 0.0
C151 C 0.27251 0.01624 0.59261 0.0
C152 C 0.28144 0.98452 0.57355 0.0
C153 C 0.32565 0.01324 0.55744 0.0
C154 C 0.37841 0.1129 0.51903 0.0
C155 C 0.35324 0.06863 0.49942 0.0
C156 C 0.32628 0.07491 0.47794 0.0
C157 C 0.32321 0.12501 0.47595 0.0
C158 C 0.34908 0.16954 0.49541 0.0
C159 C 0.3766 0.16349 0.51675 0.0
C160 C 0.45491 0.10627 0.54221 0.0
C161 C 0.50552 0.1566 0.55169 0.0
C162 C 0.55831 0.16013 0.55086 0.0
C163 C 0.5617 0.11332 0.54027 0.0
C164 C 0.51054 0.06228 0.53117 0.0
C165 C 0.45757 0.05868 0.53222 0.0
H166 H 0.69706 0.84175 0.85919 0.0
N167 N 0.65243 0.7299 0.84446 0.0
H168 H 0.76755 0.89777 0.89489 0.0
H169 H 0.68673 0.68569 0.88305 0.0
H170 H 0.75474 0.74068 0.91833 0.0
H171 H 0.7537 0.73155 0.84169 0.0
H172 H 0.81086 0.7525 0.80545 0.0
H173 H 0.62939 0.75329 0.7987 0.0
H174 H 0.68684 0.77358 0.76177 0.0
H175 H 0.54302 0.68694 0.85409 0.0
H176 H 0.66519 0.63533 0.83875 0.0
H177 H 0.47026 0.58567 0.85956 0.0
H178 H 0.59516 0.53639 0.84549 0.0
H179 H 0.2839 0.31104 0.89436 0.0
H180 H 0.23941 0.26538 0.93231 0.0
H181 H 0.38312 0.24521 0.95182 0.0
H182 H 0.42609 0.28862 0.91292 0.0
H183 H 0.37125 0.21927 0.85701 0.0
H184 H 0.30214 0.14855 0.82408 0.0
H185 H 0.22386 0.25198 0.81687 0.0
H186 H 0.29465 0.32365 0.84939 0.0
H187 H 0.37982 0.41197 0.89704 0.0
H188 H 0.44368 0.512 0.88743 0.0
H189 H 0.51324 0.4533 0.82949 0.0
N190 N 0.37799 0.31545 0.87571 0.0
H191 H 0.4527 0.35413 0.84067 0.0
C192 C 0.68611 0.75938 0.86799 0.0
C193 C 0.70855 0.81929 0.87237 0.0
C194 C 0.74856 0.85117 0.89278 0.0
C195 C 0.76661 0.82343 0.90925 0.0
C196 C 0.74181 0.76314 0.90577 0.0
C197 C 0.70234 0.73148 0.88541 0.0
C198 C 0.68699 0.74115 0.82303 0.0
C199 C 0.73832 0.74042 0.82441 0.0
C200 C 0.77075 0.75164 0.80349 0.0
C201 C 0.75274 0.76354 0.78062 0.0
C202 C 0.70147 0.76411 0.77914 0.0
C203 C 0.66879 0.75269 0.80015 0.0
C204 C 0.60954 0.66922 0.84586 0.0
C205 C 0.55405 0.65385 0.85177 0.0
C206 C 0.51278 0.59604 0.85515 0.0
C207 C 0.52655 0.55245 0.85296 0.0
C208 C 0.58211 0.56806 0.84671 0.0
C209 C 0.62275 0.62534 0.8429 0.0
C210 C 0.35803 0.30238 0.90065 0.0
C211 C 0.30649 0.29803 0.90705 0.0
C212 C 0.2814 0.27249 0.929 0.0
C213 C 0.30773 0.25158 0.94512 0.0
C214 C 0.36163 0.26053 0.93969 0.0
C215 C 0.38638 0.28555 0.9176 0.0
C216 C 0.33761 0.27605 0.85572 0.0
C217 C 0.33922 0.22659 0.84825 0.0
C218 C 0.29953 0.1862 0.82964 0.0
C219 C 0.25692 0.19425 0.81834 0.0
C220 C 0.2561 0.24465 0.82539 0.0
C221 C 0.29617 0.28532 0.844 0.0
C222 C 0.41212 0.37521 0.86983 0.0
C223 C 0.40898 0.42044 0.88239 0.0
C224 C 0.44525 0.47794 0.87663 0.0
C225 C 0.48441 0.49121 0.85786 0.0
C226 C 0.48515 0.44535 0.84459 0.0
C227 C 0.45014 0.3884 0.85078 0.0
C228 C 0.95052 0.10747 0.10212 0.0
C229 C 0.98031 0.11863 0.08002 0.0
C230 C 0.95436 0.15268 0.11786 0.0
C231 C 0.9882 0.21086 0.11215 0.0
H232 H 0.92548 0.06364 0.10785 0.0
H233 H 0.93259 0.14216 0.13519 0.0
S234 S 0.06907 0.26335 0.0551 0.0
N235 N 0.04088 0.1924 0.05219 0.0
N236 N 0.04772 0.27696 0.08179 0.0
C237 C 0.01592 0.22251 0.08954 0.0
C238 C 0.01202 0.17656 0.07347 0.0
C239 C 0.88302 0.08271 0.40539 0.0
C240 C 0.93531 0.08437 0.40928 0.0
C241 C 0.85525 0.08978 0.42574 0.0
C242 C 0.87913 0.09949 0.45067 0.0
H243 H 0.86368 0.07673 0.38646 0.0
H244 H 0.8157 0.08928 0.4219 0.0
S245 S 0.01244 0.10353 0.47159 0.0
N246 N 0.00787 0.09325 0.44054 0.0
N247 N 0.95573 0.10692 0.47846 0.0
C248 C 0.93032 0.09966 0.45496 0.0
C249 C 0.95836 0.09196 0.43437 0.0
C250 C 0.85103 0.85491 0.73171 0.0
C251 C 0.88108 0.82662 0.72605 0.0
C252 C 0.80661 0.83211 0.74808 0.0
C253 C 0.79036 0.78004 0.75926 0.0
H254 H 0.86443 0.89704 0.72494 0.0
H255 H 0.7876 0.85745 0.75331 0.0
S256 S 0.84609 0.68256 0.74617 0.0
N257 N 0.88488 0.73904 0.72979 0.0
N258 N 0.80085 0.696 0.76028 0.0
C259 C 0.81607 0.74854 0.75183 0.0
C260 C 0.86147 0.7718 0.73525 0.0
C261 C 0.01164 0.83861 0.07984 0.0
C262 C 0.0201 0.89484 0.08211 0.0
C263 C 0.9925 0.80229 0.09974 0.0
C264 C 0.982 0.82104 0.12284 0.0
H265 H 0.01837 0.8217 0.0623 0.0
H266 H 0.98577 0.7591 0.09703 0.0
S267 S 0.99904 0.96441 0.13913 0.0
N268 N 0.01732 0.96769 0.10972 0.0
N269 N 0.98226 0.89939 0.1473 0.0
C270 C 0.99146 0.87741 0.12572 0.0
C271 C 0.01021 0.91428 0.1053 0.0
C272 C 0.27451 0.12413 0.40812 0.0
C273 C 0.22667 0.13037 0.41056 0.0
C274 C 0.30602 0.12329 0.42937 0.0
C275 C 0.29155 0.12972 0.45386 0.0
H276 H 0.2867 0.1179 0.38963 0.0
H277 H 0.34169 0.11704 0.42665 0.0
S278 S 0.17234 0.15028 0.47081 0.0
N279 N 0.16771 0.14503 0.43962 0.0
N280 N 0.22765 0.14417 0.47956 0.0
C281 C 0.24511 0.13783 0.45668 0.0
C282 C 0.21246 0.13793 0.43504 0.0
C283 C 0.16509 0.12331 0.75691 0.0
C284 C 0.13777 0.06385 0.76081 0.0
C285 C 0.20253 0.16557 0.77584 0.0
C286 C 0.21353 0.14972 0.79932 0.0
H287 H 0.15913 0.13722 0.73882 0.0
H288 H 0.22441 0.21079 0.77178 0.0
S289 S 0.1457 0.00051 0.82034 0.0
N290 N 0.1198 0.99174 0.79082 0.0
N291 N 0.18915 0.07111 0.82642 0.0
C292 C 0.18408 0.09064 0.80389 0.0
C293 C 0.14645 0.04773 0.78463 0.0
C294 C 0.93953 0.042 0.63406 0.0
C295 C 0.9299 0.04563 0.65975 0.0
C296 C 0.91254 0.05654 0.61535 0.0
C297 C 0.87541 0.07606 0.62154 0.0
H298 H 0.9673 0.02665 0.62818 0.0
H299 H 0.92097 0.05265 0.59583 0.0
S300 S 0.83666 0.09519 0.6858 0.0
N301 N 0.88104 0.07138 0.69035 0.0
N302 N 0.83081 0.09929 0.65501 0.0
C303 C 0.86612 0.0811 0.64709 0.0
C304 C 0.89315 0.06567 0.66622 0.0
C305 C 0.90768 0.87563 0.94642 0.0
C306 C 0.91043 0.91546 0.96534 0.0
C307 C 0.86141 0.8471 0.92835 0.0
C308 C 0.81569 0.85701 0.92826 0.0
H309 H 0.94138 0.86576 0.94556 0.0
H310 H 0.86143 0.81678 0.91427 0.0
S311 S 0.8017 0.95772 0.97294 0.0
N312 N 0.86332 0.96425 0.98241 0.0
N313 N 0.77588 0.90998 0.94816 0.0
C314 C 0.81798 0.89748 0.94658 0.0
C315 C 0.86536 0.92672 0.9652 0.0
C316 C 0.96428 0.89988 0.31448 0.0
C317 C 0.02461 0.93194 0.31739 0.0
C318 C 0.93467 0.8466 0.29985 0.0
C319 C 0.96437 0.8232 0.28799 0.0
H320 H 0.93989 0.91727 0.32255 0.0
H321 H 0.88835 0.82434 0.29723 0.0
S322 S 0.12227 0.88798 0.2915 0.0
N323 N 0.11269 0.93427 0.30874 0.0
N324 N 0.05742 0.83526 0.28105 0.0
C325 C 0.02453 0.85361 0.2918 0.0
C326 C 0.05453 0.90766 0.30655 0.0
C327 C 0.14285 0.98816 0.62704 0.0
C328 C 0.13579 0.94566 0.64345 0.0
C329 C 0.18579 0.00897 0.61002 0.0
C330 C 0.22309 0.98776 0.60844 0.0
H331 H 0.11671 0.00763 0.62805 0.0
H332 H 0.19089 0.04319 0.59844 0.0
S333 S 0.21958 0.87225 0.64494 0.0
N334 N 0.16736 0.87972 0.6554 0.0
N335 N 0.24796 0.91906 0.62315 0.0
C336 C 0.21454 0.94284 0.62347 0.0
C337 C 0.17092 0.92173 0.64102 0.0
C338 C 0.23253 0.11554 0.98023 0.0
C339 C 0.19523 0.12432 0.99477 0.0
C340 C 0.27133 0.1585 0.96552 0.0
C341 C 0.27486 0.21231 0.9648 0.0
H342 H 0.22974 0.07396 0.97901 0.0
H343 H 0.29621 0.14793 0.95341 0.0
S344 S 0.19486 0.26165 0.00299 0.0
N345 N 0.16984 0.19411 0.01009 0.0
N346 N 0.24362 0.27517 0.98259 0.0
C347 C 0.2413 0.22358 0.98079 0.0
C348 C 0.20146 0.17963 0.99579 0.0
C349 C 0.13297 0.25197 0.29338 0.0
C350 C 0.09506 0.22035 0.31167 0.0
C351 C 0.12134 0.28458 0.27711 0.0
C352 C 0.07132 0.28714 0.27838 0.0
H353 H 0.17129 0.2502 0.29097 0.0
H354 H 0.15071 0.30595 0.26269 0.0
S355 S 0.96117 0.21824 0.32463 0.0
N356 N 0.00742 0.19773 0.33138 0.0
N357 N 0.98598 0.25964 0.30077 0.0
C358 C 0.03432 0.2582 0.29731 0.0
C359 C 0.04617 0.22485 0.31399 0.0
loop_
_geom_bond_atom_site_label_1
_geom_bond_atom_site_label_2
_geom_bond_distance
_geom_bond_site_symmetry_2
_ccdc_geom_bond_type
Zn0 O3 2.031 . S
Zn0 O5 2.049 1_564 S
Zn0 O10 2.067 1_554 S
Zn1 O2 1.962 . S
Zn1 O4 1.986 . S
Zn1 O6 1.996 . S
Zn1 O9 1.943 1_455 S
O2 Zn1 1.962 . S
O2 C7 1.254 1_545 S
O3 Zn0 2.031 . S
O3 C7 1.269 . S
O4 Zn1 1.986 . S
O4 C11 1.262 . S
O5 Zn0 2.049 1_546 S
O5 C13 1.260 . S
O6 Zn1 1.996 . S
O6 C13 1.257 1_554 S
C7 O2 1.254 1_565 S
C7 O3 1.269 . S
C8 O9 1.249 1_566 S
C8 O10 1.270 1_655 S
O9 Zn1 1.943 1_655 S
O9 C8 1.249 1_544 S
O10 Zn0 2.067 1_556 S
O10 C8 1.270 1_455 S
C11 O4 1.262 . S
C11 O12 1.231 1_455 S
O12 C11 1.231 1_655 S
C13 O5 1.260 . S
C13 O6 1.257 1_556 S
Zn14 O17 2.031 . S
Zn14 O19 2.049 . S
Zn14 O24 2.067 . S
Zn15 O16 1.962 . S
Zn15 O18 1.986 1_455 S
Zn15 O20 1.996 . S
Zn15 O23 1.943 1_445 S
O16 Zn15 1.962 . S
O16 C21 1.254 . S
O17 Zn14 2.031 . S
O17 C21 1.269 . S
O18 Zn15 1.986 1_655 S
O18 C25 1.262 . S
O19 Zn14 2.049 . S
O19 C27 1.260 . S
O20 Zn15 1.996 . S
O20 C27 1.257 . S
C21 O16 1.254 . S
C21 O17 1.269 . S
C22 O23 1.249 1_455 S
C22 O24 1.270 1_565 S
O23 Zn15 1.943 1_665 S
O23 C22 1.249 1_655 S
O24 Zn14 2.067 . S
O24 C22 1.270 1_545 S
C25 O18 1.262 . S
C25 O26 1.243 . S
O26 C25 1.243 . S
C27 O19 1.260 . S
C27 O20 1.257 . S
Zn28 O31 2.031 1_565 S
Zn28 O33 2.049 . S
Zn28 O38 2.067 1_565 S
Zn29 O30 1.962 1_645 S
Zn29 O32 1.986 1_545 S
Zn29 O34 1.996 1_545 S
Zn29 O37 1.943 1_655 S
O30 Zn29 1.962 1_465 S
O30 C35 1.254 . S
O31 Zn28 2.031 1_545 S
O31 C35 1.269 1_545 S
O32 Zn29 1.986 1_565 S
O32 C39 1.262 1_565 S
O33 Zn28 2.049 . S
O33 C41 1.260 1_455 S
O34 Zn29 1.996 1_565 S
O34 C41 1.257 . S
C35 O30 1.254 . S
C35 O31 1.269 1_565 S
C36 O37 1.249 . S
C36 O38 1.270 . S
O37 Zn29 1.943 1_455 S
O37 C36 1.249 . S
O38 Zn28 2.067 1_545 S
O38 C36 1.270 . S
C39 O32 1.262 1_545 S
C39 O40 1.232 . S
O40 C39 1.232 . S
C41 O33 1.260 1_655 S
C41 O34 1.257 . S
H42 C69 0.929 . S
N43 C68 1.433 . S
N43 C74 1.435 . S
N43 C80 1.423 1_455 S
H44 C70 0.930 . S
H45 C73 0.931 . S
H46 C72 0.929 . S
H47 C75 0.930 . S
H48 C76 0.932 . S
H49 C79 0.929 . S
H50 C78 0.931 . S
H51 C81 0.929 . S
H52 C85 0.932 . S
H53 C82 0.931 . S
H54 C84 0.929 . S
H55 C87 0.929 . S
H56 C88 0.930 . S
H57 C90 0.929 . S
H58 C91 0.931 . S
H59 C93 0.930 . S
H60 C94 0.932 . S
H61 C96 0.931 . S
H62 C97 0.929 . S
H63 C99 0.929 . S
H64 C100 0.931 . S
H65 C102 0.929 . S
N66 C86 1.433 . S
N66 C92 1.435 . S
N66 C98 1.423 1_455 S
H67 C103 0.932 . S
C68 N43 1.433 . S
C68 C69 1.363 1_455 S
C68 C73 1.370 . S
C69 H42 0.929 . S
C69 C68 1.363 1_655 S
C69 C70 1.385 . S
C70 H44 0.930 . S
C70 C69 1.385 . S
C70 C71 1.357 1_655 S
C71 C70 1.357 1_455 S
C71 C72 1.406 . S
C72 H46 0.929 . S
C72 C71 1.406 . S
C72 C73 1.391 . S
C73 H45 0.931 . S
C73 C68 1.370 . S
C73 C72 1.391 . S
C74 N43 1.435 . S
C74 C75 1.358 . S
C74 C79 1.371 1_455 S
C75 H47 0.930 . S
C75 C74 1.358 . S
C75 C76 1.405 . S
C76 H48 0.932 . S
C76 C75 1.405 . S
C76 C77 1.383 . S
C77 C76 1.383 . S
C77 C78 1.393 1_455 S
C78 H50 0.931 . S
C78 C77 1.393 1_655 S
C78 C79 1.382 . S
C79 H49 0.929 . S
C79 C74 1.371 1_655 S
C79 C78 1.382 . S
C80 N43 1.423 1_655 S
C80 C81 1.362 . S
C80 C85 1.388 1_655 S
C81 H51 0.929 . S
C81 C80 1.362 . S
C81 C82 1.376 . S
C82 H53 0.931 . S
C82 C81 1.376 . S
C82 C83 1.396 . S
C83 C82 1.396 . S
C83 C84 1.348 1_655 S
C83 C101 1.472 . S
C84 H54 0.929 . S
C84 C83 1.348 1_455 S
C84 C85 1.443 . S
C85 H52 0.932 . S
C85 C80 1.388 1_455 S
C85 C84 1.443 . S
C86 N66 1.433 . S
C86 C87 1.363 1_455 S
C86 C91 1.370 . S
C87 H55 0.929 . S
C87 C86 1.363 1_655 S
C87 C88 1.385 . S
C88 H56 0.930 . S
C88 C87 1.385 . S
C88 C89 1.357 1_655 S
C89 C88 1.357 1_455 S
C89 C90 1.406 . S
C90 H57 0.929 . S
C90 C89 1.406 . S
C90 C91 1.391 . S
C91 H58 0.931 . S
C91 C86 1.370 . S
C91 C90 1.391 . S
C92 N66 1.435 . S
C92 C93 1.358 . S
C92 C97 1.371 1_455 S
C93 H59 0.930 . S
C93 C92 1.358 . S
C93 C94 1.405 . S
C94 H60 0.932 . S
C94 C93 1.405 . S
C94 C95 1.383 . S
C95 C94 1.383 . S
C95 C96 1.393 1_455 S
C96 H61 0.931 . S
C96 C95 1.393 1_655 S
C96 C97 1.382 . S
C97 H62 0.929 . S
C97 C92 1.371 1_655 S
C97 C96 1.382 . S
C98 N66 1.423 1_655 S
C98 C99 1.362 . S
C98 C103 1.388 1_655 S
C99 H63 0.929 . S
C99 C98 1.362 . S
C99 C100 1.376 . S
C100 H64 0.931 . S
C100 C99 1.376 . S
C100 C101 1.396 . S
C101 C83 1.472 . S
C101 C100 1.396 . S
C101 C102 1.348 1_655 S
C102 H65 0.929 . S
C102 C101 1.348 1_455 S
C102 C103 1.443 . S
C103 H67 0.932 . S
C103 C98 1.388 1_455 S
C103 C102 1.443 . S
H104 C131 0.929 . S
N105 C130 1.433 . S
N105 C136 1.435 . S
N105 C142 1.423 . S
H106 C132 0.930 . S
H107 C135 0.928 . S
H108 C134 0.929 1_565 S
H109 C137 0.930 1_565 S
H110 C138 0.932 1_565 S
H111 C141 0.929 . S
H112 C140 0.931 . S
H113 C143 0.929 . S
H114 C147 0.932 . S
H115 C144 0.931 . S
H116 C146 0.929 . S
H117 C149 0.929 . S
H118 C150 0.930 . S
H119 C152 0.929 1_565 S
H120 C153 0.949 . S
H121 C155 0.930 1_565 S
H122 C156 0.932 1_565 S
H123 C158 0.931 . S
H124 C159 0.929 . S
H125 C161 0.929 . S
H126 C162 0.931 . S
H127 C164 0.929 . S
N128 C148 1.433 . S
N128 C154 1.435 . S
N128 C160 1.423 . S
H129 C165 0.932 . S
C130 N105 1.433 . S
C130 C131 1.363 . S
C130 C135 1.370 . S
C131 H104 0.929 . S
C131 C130 1.363 . S
C131 C132 1.385 . S
C132 H106 0.930 . S
C132 C131 1.385 . S
C132 C133 1.357 . S
C133 C132 1.357 . S
C133 C134 1.406 . S
C134 H108 0.929 1_545 S
C134 C133 1.406 . S
C134 C135 1.391 . S
C135 H107 0.928 . S
C135 C130 1.370 . S
C135 C134 1.391 . S
C136 N105 1.435 . S
C136 C137 1.358 . S
C136 C141 1.371 . S
C137 H109 0.930 1_545 S
C137 C136 1.358 . S
C137 C138 1.405 . S
C138 H110 0.932 1_545 S
C138 C137 1.405 . S
C138 C139 1.383 . S
C139 C138 1.383 . S
C139 C140 1.393 . S
C140 H112 0.931 . S
C140 C139 1.393 . S
C140 C141 1.382 . S
C141 H111 0.929 . S
C141 C136 1.371 . S
C141 C140 1.382 . S
C142 N105 1.423 . S
C142 C143 1.362 . S
C142 C147 1.388 . S
C143 H113 0.929 . S
C143 C142 1.362 . S
C143 C144 1.376 . S
C144 H115 0.931 . S
C144 C143 1.376 . S
C144 C145 1.396 . S
C145 C144 1.396 . S
C145 C146 1.348 . S
C145 C163 1.472 . S
C146 H116 0.929 . S
C146 C145 1.348 . S
C146 C147 1.443 . S
C147 H114 0.932 . S
C147 C142 1.388 . S
C147 C146 1.443 . S
C148 N128 1.433 . S
C148 C149 1.363 . S
C148 C153 1.370 . S
C149 H117 0.929 . S
C149 C148 1.363 . S
C149 C150 1.385 . S
C150 H118 0.930 . S
C150 C149 1.385 . S
C150 C151 1.357 . S
C151 C150 1.357 . S
C151 C152 1.406 . S
C152 H119 0.929 1_545 S
C152 C151 1.406 . S
C152 C153 1.391 . S
C153 H120 0.949 . S
C153 C148 1.370 . S
C153 C152 1.391 . S
C154 N128 1.435 . S
C154 C155 1.358 . S
C154 C159 1.371 . S
C155 H121 0.930 1_545 S
C155 C154 1.358 . S
C155 C156 1.405 . S
C156 H122 0.932 1_545 S
C156 C155 1.405 . S
C156 C157 1.383 . S
C157 C156 1.383 . S
C157 C158 1.393 . S
C158 H123 0.931 . S
C158 C157 1.393 . S
C158 C159 1.382 . S
C159 H124 0.929 . S
C159 C154 1.371 . S
C159 C158 1.382 . S
C160 N128 1.423 . S
C160 C161 1.362 . S
C160 C165 1.388 . S
C161 H125 0.929 . S
C161 C160 1.362 . S
C161 C162 1.376 . S
C162 H126 0.931 . S
C162 C161 1.376 . S
C162 C163 1.396 . S
C163 C145 1.472 . S
C163 C162 1.396 . S
C163 C164 1.348 . S
C164 H127 0.929 . S
C164 C163 1.348 . S
C164 C165 1.443 . S
C165 H129 0.932 . S
C165 C160 1.388 . S
C165 C164 1.443 . S
H166 C193 0.929 . S
N167 C192 1.433 . S
N167 C198 1.435 . S
N167 C204 1.423 . S
H168 C194 0.930 . S
H169 C197 0.931 . S
H170 C196 0.929 . S
H171 C199 0.930 . S
H172 C200 0.932 . S
H173 C203 0.929 . S
H174 C202 0.931 . S
H175 C205 0.929 . S
H176 C209 0.932 . S
H177 C206 0.931 . S
H178 C208 0.929 . S
H179 C211 0.929 . S
H180 C212 0.930 . S
H181 C214 0.929 . S
H182 C215 0.931 . S
H183 C217 0.930 . S
H184 C218 0.932 . S
H185 C220 0.931 . S
H186 C221 0.929 . S
H187 C223 0.929 . S
H188 C224 0.931 . S
H189 C226 0.929 . S
N190 C210 1.433 . S
N190 C216 1.435 . S
N190 C222 1.423 . S
H191 C227 0.932 . S
C192 N167 1.433 . S
C192 C193 1.363 . S
C192 C197 1.370 . S
C193 H166 0.929 . S
C193 C192 1.363 . S
C193 C194 1.385 . S
C194 H168 0.930 . S
C194 C193 1.385 . S
C194 C195 1.357 . S
C195 C194 1.357 . S
C195 C196 1.406 . S
C196 H170 0.929 . S
C196 C195 1.406 . S
C196 C197 1.391 . S
C197 H169 0.931 . S
C197 C192 1.370 . S
C197 C196 1.391 . S
C198 N167 1.435 . S
C198 C199 1.358 . S
C198 C203 1.371 . S
C199 H171 0.930 . S
C199 C198 1.358 . S
C199 C200 1.405 . S
C200 H172 0.932 . S
C200 C199 1.405 . S
C200 C201 1.383 . S
C201 C200 1.383 . S
C201 C202 1.393 . S
C202 H174 0.931 . S
C202 C201 1.393 . S
C202 C203 1.382 . S
C203 H173 0.929 . S
C203 C198 1.371 . S
C203 C202 1.382 . S
C204 N167 1.423 . S
C204 C205 1.362 . S
C204 C209 1.388 . S
C205 H175 0.929 . S
C205 C204 1.362 . S
C205 C206 1.376 . S
C206 H177 0.931 . S
C206 C205 1.376 . S
C206 C207 1.396 . S
C207 C206 1.396 . S
C207 C208 1.348 . S
C207 C225 1.472 . S
C208 H178 0.929 . S
C208 C207 1.348 . S
C208 C209 1.443 . S
C209 H176 0.932 . S
C209 C204 1.388 . S
C209 C208 1.443 . S
C210 N190 1.433 . S
C210 C211 1.363 . S
C210 C215 1.370 . S
C211 H179 0.929 . S
C211 C210 1.363 . S
C211 C212 1.385 . S
C212 H180 0.930 . S
C212 C211 1.385 . S
C212 C213 1.357 . S
C213 C212 1.357 . S
C213 C214 1.406 . S
C214 H181 0.929 . S
C214 C213 1.406 . S
C214 C215 1.391 . S
C215 H182 0.931 . S
C215 C210 1.370 . S
C215 C214 1.391 . S
C216 N190 1.435 . S
C216 C217 1.358 . S
C216 C221 1.371 . S
C217 H183 0.930 . S
C217 C216 1.358 . S
C217 C218 1.405 . S
C218 H184 0.932 . S
C218 C217 1.405 . S
C218 C219 1.383 . S
C219 C218 1.383 . S
C219 C220 1.393 . S
C220 H185 0.931 . S
C220 C219 1.393 . S
C220 C221 1.382 . S
C221 H186 0.929 . S
C221 C216 1.371 . S
C221 C220 1.382 . S
C222 N190 1.423 . S
C222 C223 1.362 . S
C222 C227 1.388 . S
C223 H187 0.929 . S
C223 C222 1.362 . S
C223 C224 1.376 . S
C224 H188 0.931 . S
C224 C223 1.376 . S
C224 C225 1.396 . S
C225 C207 1.472 . S
C225 C224 1.396 . S
C225 C226 1.348 . S
C226 H189 0.929 . S
C226 C225 1.348 . S
C226 C227 1.443 . S
C227 H191 0.932 . S
C227 C222 1.388 . S
C227 C226 1.443 . S
C228 C229 1.369 1_655 S
C228 C230 1.419 . S
C228 H232 0.930 . S
C229 C228 1.369 1_455 S
C229 C238 1.429 . S
C230 C228 1.419 . S
C230 C231 1.363 1_655 S
C230 H233 0.929 . S
C231 C230 1.363 1_455 S
C231 C237 1.428 . S
H232 C228 0.930 . S
H233 C230 0.929 . S
S234 N235 1.613 . S
S234 N236 1.610 . S
N235 S234 1.613 . S
N235 C238 1.350 . S
N236 S234 1.610 . S
N236 C237 1.351 . S
C237 C231 1.428 . S
C237 N236 1.351 . S
C237 C238 1.434 . S
C238 C229 1.429 . S
C238 N235 1.350 . S
C238 C237 1.434 . S
C239 C240 1.369 1_565 S
C239 C241 1.419 . S
C239 H243 0.930 . S
C240 C239 1.369 1_545 S
C240 C249 1.429 . S
C241 C239 1.419 . S
C241 C242 1.363 1_565 S
C241 H244 0.929 . S
C242 C241 1.363 1_545 S
C242 C248 1.428 . S
H243 C239 0.930 . S
H244 C241 0.929 . S
S245 N246 1.613 . S
S245 N247 1.610 . S
N246 S245 1.613 . S
N246 C249 1.350 . S
N247 S245 1.610 . S
N247 C248 1.351 . S
C248 C242 1.428 . S
C248 N247 1.351 . S
C248 C249 1.434 . S
C249 C240 1.429 . S
C249 N246 1.350 . S
C249 C248 1.434 . S
C250 C251 1.369 . S
C250 C252 1.419 . S
C250 H254 0.930 . S
C251 C250 1.369 . S
C251 C260 1.429 . S
C252 C250 1.419 . S
C252 C253 1.363 . S
C252 H255 0.929 . S
C253 C252 1.363 . S
C253 C259 1.428 . S
H254 C250 0.930 . S
H255 C252 0.929 . S
S256 N257 1.613 . S
S256 N258 1.610 . S
N257 S256 1.613 . S
N257 C260 1.350 . S
N258 S256 1.610 . S
N258 C259 1.351 . S
C259 C253 1.428 . S
C259 N258 1.351 . S
C259 C260 1.434 . S
C260 C251 1.429 . S
C260 N257 1.350 . S
C260 C259 1.434 . S
C261 C262 1.369 . S
C261 C263 1.419 . S
C261 H265 0.930 . S
C262 C261 1.369 . S
C262 C271 1.429 . S
C263 C261 1.419 . S
C263 C264 1.363 . S
C263 H266 0.929 1_455 S
C264 C263 1.363 . S
C264 C270 1.428 . S
H265 C261 0.930 . S
H266 C263 0.929 1_655 S
S267 N268 1.613 . S
S267 N269 1.610 1_545 S
N268 S267 1.613 . S
N268 C271 1.350 1_545 S
N269 S267 1.610 1_565 S
N269 C270 1.351 . S
C270 C264 1.428 . S
C270 N269 1.351 . S
C270 C271 1.434 . S
C271 C262 1.429 . S
C271 N268 1.350 1_565 S
C271 C270 1.434 . S
C272 C273 1.369 . S
C272 C274 1.419 . S
C272 H276 0.930 1_545 S
C273 C272 1.369 . S
C273 C282 1.429 . S
C274 C272 1.419 . S
C274 C275 1.363 . S
C274 H277 0.929 1_545 S
C275 C274 1.363 . S
C275 C281 1.428 . S
H276 C272 0.930 1_565 S
H277 C274 0.929 1_565 S
S278 N279 1.613 . S
S278 N280 1.610 . S
N279 S278 1.613 . S
N279 C282 1.350 . S
N280 S278 1.610 . S
N280 C281 1.351 . S
C281 C275 1.428 . S
C281 N280 1.351 . S
C281 C282 1.434 . S
C282 C273 1.429 . S
C282 N279 1.350 . S
C282 C281 1.434 . S
C283 C284 1.369 . S
C283 C285 1.419 . S
C283 H287 0.930 . S
C284 C283 1.369 . S
C284 C293 1.429 . S
C285 C283 1.419 . S
C285 C286 1.363 . S
C285 H288 0.929 . S
C286 C285 1.363 . S
C286 C292 1.428 . S
H287 C283 0.930 . S
H288 C285 0.929 . S
S289 N290 1.613 . S
S289 N291 1.610 . S
N290 S289 1.613 . S
N290 C293 1.350 . S
N291 S289 1.610 . S
N291 C292 1.351 . S
C292 C286 1.428 . S
C292 N291 1.351 . S
C292 C293 1.434 . S
C293 C284 1.429 . S
C293 N290 1.350 . S
C293 C292 1.434 . S
C294 C295 1.369 . S
C294 C296 1.419 . S
C294 H298 0.934 . S
C295 C294 1.369 . S
C295 C304 1.429 . S
C296 C294 1.419 . S
C296 C297 1.363 . S
C296 H299 0.929 1_545 S
C297 C296 1.363 . S
C297 C303 1.428 . S
H298 C294 0.934 . S
H299 C296 0.929 1_565 S
S300 N301 1.613 . S
S300 N302 1.610 . S
N301 S300 1.613 . S
N301 C304 1.350 . S
N302 S300 1.610 . S
N302 C303 1.351 . S
C303 C297 1.428 . S
C303 N302 1.351 . S
C303 C304 1.434 . S
C304 C295 1.429 . S
C304 N301 1.350 . S
C304 C303 1.434 . S
C305 C306 1.369 . S
C305 C307 1.419 . S
C305 H309 0.930 . S
C306 C305 1.369 . S
C306 C315 1.429 . S
C307 C305 1.419 . S
C307 C308 1.363 . S
C307 H310 0.929 . S
C308 C307 1.363 . S
C308 C314 1.428 . S
H309 C305 0.930 . S
H310 C307 0.929 . S
S311 N312 1.613 . S
S311 N313 1.578 1_554 S
N312 S311 1.613 . S
N312 C315 1.350 1_554 S
N313 S311 1.578 1_556 S
N313 C314 1.375 . S
C314 C308 1.428 . S
C314 N313 1.375 . S
C314 C315 1.434 . S
C315 C306 1.429 . S
C315 N312 1.350 1_556 S
C315 C314 1.434 . S
C316 C317 1.370 . S
C316 C318 1.419 . S
C316 H320 0.930 . S
C317 C316 1.370 . S
C317 C326 1.426 1_655 S
C318 C316 1.419 . S
C318 C319 1.363 1_655 S
C318 H321 0.929 . S
C319 C318 1.363 1_455 S
C319 C325 1.428 . S
H320 C316 0.930 . S
H321 C318 0.929 . S
S322 N323 1.613 . S
S322 N324 1.610 . S
N323 S322 1.613 . S
N323 C326 1.350 . S
N324 S322 1.610 . S
N324 C325 1.351 . S
C325 C319 1.428 . S
C325 N324 1.351 . S
C325 C326 1.434 . S
C326 C317 1.426 1_455 S
C326 N323 1.350 . S
C326 C325 1.434 . S
C327 C328 1.366 1_565 S
C327 C329 1.419 . S
C327 H331 0.930 . S
C328 C327 1.366 1_545 S
C328 C337 1.430 . S
C329 C327 1.419 . S
C329 C330 1.363 1_565 S
C329 H332 0.929 . S
C330 C329 1.363 1_545 S
C330 C336 1.428 . S
H331 C327 0.930 . S
H332 C329 0.929 . S
S333 N334 1.613 . S
S333 N335 1.610 . S
N334 S333 1.613 . S
N334 C337 1.350 . S
N335 S333 1.610 . S
N335 C336 1.351 . S
C336 C330 1.428 . S
C336 N335 1.351 . S
C336 C337 1.434 . S
C337 C328 1.430 . S
C337 N334 1.350 . S
C337 C336 1.434 . S
C338 C339 1.369 . S
C338 C340 1.419 . S
C338 H342 0.930 1_556 S
C339 C338 1.369 . S
C339 C348 1.429 . S
C340 C338 1.419 . S
C340 C341 1.363 . S
C340 H343 0.929 . S
C341 C340 1.363 . S
C341 C347 1.428 . S
H342 C338 0.930 1_554 S
H343 C340 0.929 . S
S344 N345 1.613 . S
S344 N346 1.610 . S
N345 S344 1.613 . S
N345 C348 1.350 . S
N346 S344 1.610 . S
N346 C347 1.351 . S
C347 C341 1.428 . S
C347 N346 1.351 . S
C347 C348 1.434 . S
C348 C339 1.429 . S
C348 N345 1.350 . S
C348 C347 1.434 . S
C349 C350 1.369 . S
C349 C351 1.419 . S
C349 H353 0.930 . S
C350 C349 1.369 . S
C350 C359 1.429 1_455 S
C351 C349 1.419 . S
C351 C352 1.363 . S
C351 H354 0.929 . S
C352 C351 1.363 . S
C352 C358 1.428 1_455 S
H353 C349 0.930 . S
H354 C351 0.929 . S
S355 N356 1.613 . S
S355 N357 1.610 . S
N356 S355 1.613 . S
N356 C359 1.350 . S
N357 S355 1.610 . S
N357 C358 1.351 . S
C358 C352 1.428 1_655 S
C358 N357 1.351 . S
C358 C359 1.434 . S
C359 C350 1.429 1_655 S
C359 N356 1.350 . S
C359 C358 1.434 . S
C231 C95 1.295 . S
C229 C11 1.260 . S
C240 C25 1.308 . S
C242 C139 1.346 . S
C251 C41 1.315 . S
C253 C201 1.404 . S
C262 C7 1.322 . S
C264 C77 1.325 . S
C275 C157 1.362 . S
C273 C21 1.369 . S
C284 C36 1.336 . S
C286 C219 1.436 . S
C297 C133 1.503 . S
C295 C39 1.623 . S
C306 C8 1.640 . S
C308 C195 1.565 . S
C319 C71 1.598 . S
C317 C22 1.667 1_655 S
C330 C151 1.532 . S
C328 C35 1.621 1_545 S
C341 C213 1.538 . S
C339 C13 1.603 . S
C350 C27 1.691 . S
C352 C89 1.589 . S
