# Generated by pormake.
# Topology pyr, (3,6)-cn, num edge types: 1
# Building blocks:
#     Node 0, Type 0, BuildingBlock: BETDIP_clean_linker_0, # of connection points: 3
#     Node 1, Type 0, BuildingBlock: BETDIP_clean_linker_0, # of connection points: 3
#     Node 2, Type 0, BuildingBlock: BETDIP_clean_linker_0, # of connection points: 3
#     Node 3, Type 0, BuildingBlock: BETDIP_clean_linker_0, # of connection points: 3
#     Node 4, Type 0, BuildingBlock: BETDIP_clean_linker_0, # of connection points: 3
#     Node 5, Type 0, BuildingBlock: BETDIP_clean_linker_0, # of connection points: 3
#     Node 6, Type 0, BuildingBlock: BETDIP_clean_linker_0, # of connection points: 3
#     Node 7, Type 0, BuildingBlock: BETDIP_clean_linker_0, # of connection points: 3
#     Node 8, Type 1, BuildingBlock: MIFKUJ_clean_sbu_0, # of connection points: 6
#     Node 9, Type 1, BuildingBlock: MIFKUJ_clean_sbu_0, # of connection points: 6
#     Node 10, Type 1, BuildingBlock: MIFKUJ_clean_sbu_0, # of connection points: 6
#     Node 11, Type 1, BuildingBlock: MIFKUJ_clean_sbu_0, # of connection points: 6
#     Edge 12, Type (0, 1), BuildingBlock: UVAHIK_clean_linker_0, # of connection points: 2
#     Edge 13, Type (0, 1), BuildingBlock: UVAHIK_clean_linker_0, # of connection points: 2
#     Edge 14, Type (0, 1), BuildingBlock: UVAHIK_clean_linker_0, # of connection points: 2
#     Edge 15, Type (0, 1), BuildingBlock: UVAHIK_clean_linker_0, # of connection points: 2
#     Edge 16, Type (0, 1), BuildingBlock: UVAHIK_clean_linker_0, # of connection points: 2
#     Edge 17, Type (0, 1), BuildingBlock: UVAHIK_clean_linker_0, # of connection points: 2
#     Edge 18, Type (0, 1), BuildingBlock: UVAHIK_clean_linker_0, # of connection points: 2
#     Edge 19, Type (0, 1), BuildingBlock: UVAHIK_clean_linker_0, # of connection points: 2
#     Edge 20, Type (0, 1), BuildingBlock: UVAHIK_clean_linker_0, # of connection points: 2
#     Edge 21, Type (0, 1), BuildingBlock: UVAHIK_clean_linker_0, # of connection points: 2
#     Edge 22, Type (0, 1), BuildingBlock: UVAHIK_clean_linker_0, # of connection points: 2
#     Edge 23, Type (0, 1), BuildingBlock: UVAHIK_clean_linker_0, # of connection points: 2
#     Edge 24, Type (0, 1), BuildingBlock: UVAHIK_clean_linker_0, # of connection points: 2
#     Edge 25, Type (0, 1), BuildingBlock: UVAHIK_clean_linker_0, # of connection points: 2
#     Edge 26, Type (0, 1), BuildingBlock: UVAHIK_clean_linker_0, # of connection points: 2
#     Edge 27, Type (0, 1), BuildingBlock: UVAHIK_clean_linker_0, # of connection points: 2
#     Edge 28, Type (0, 1), BuildingBlock: UVAHIK_clean_linker_0, # of connection points: 2
#     Edge 29, Type (0, 1), BuildingBlock: UVAHIK_clean_linker_0, # of connection points: 2
#     Edge 30, Type (0, 1), BuildingBlock: UVAHIK_clean_linker_0, # of connection points: 2
#     Edge 31, Type (0, 1), BuildingBlock: UVAHIK_clean_linker_0, # of connection points: 2
#     Edge 32, Type (0, 1), BuildingBlock: UVAHIK_clean_linker_0, # of connection points: 2
#     Edge 33, Type (0, 1), BuildingBlock: UVAHIK_clean_linker_0, # of connection points: 2
#     Edge 34, Type (0, 1), BuildingBlock: UVAHIK_clean_linker_0, # of connection points: 2
#     Edge 35, Type (0, 1), BuildingBlock: UVAHIK_clean_linker_0, # of connection points: 2
# Relax obj value: 0.057
# Max RMSD: 0.191
# Mean RMSD: 0.129
data_MOF--net-pyr--node1-MIFKUJ_clean_sbu_0--node2-BETDIP_clean_linker_0--edge1-UVAHIK_clean_linker_0
_symmetry_space_group_name_H-M    P1
_symmetry_Int_Tables_number       1
_symmetry_cell_setting            triclinic
loop_
_symmetry_equiv_pos_as_xyz
'x, y, z'
_cell_length_a     49.85366
_cell_length_b     43.935709
_cell_length_c     50.166734
_cell_angle_alpha  89.613809
_cell_angle_beta   84.314713
_cell_angle_gamma 103.11908
loop_
_atom_site_label
_atom_site_type_symbol
_atom_site_fract_x
_atom_site_fract_y
_atom_site_fract_z
_atom_type_partial_charge
H0 H 0.17608 0.21013 0.24551 0.0
H1 H 0.23763 0.22018 0.17813 0.0
H2 H 0.24269 0.16257 0.24635 0.0
H3 H 0.22536 0.27142 0.17801 0.0
C4 C 0.20321 0.26143 0.17934 0.0
C5 C 0.19522 0.20523 0.23637 0.0
C6 C 0.20847 0.18544 0.24956 0.0
C7 C 0.20592 0.21831 0.21105 0.0
C8 C 0.22984 0.21099 0.19821 0.0
C9 C 0.2431 0.19069 0.21078 0.0
C10 C 0.23259 0.17838 0.23666 0.0
N11 N 0.19094 0.23684 0.19818 0.0
H12 H 0.31741 0.87649 0.72077 0.0
H13 H 0.32009 0.81268 0.65627 0.0
H14 H 0.37601 0.81775 0.71645 0.0
H15 H 0.29695 0.84043 0.63604 0.0
C16 C 0.28574 0.85223 0.65067 0.0
C17 C 0.32655 0.85897 0.7107 0.0
C18 C 0.34771 0.84832 0.72186 0.0
C19 C 0.31667 0.84684 0.68677 0.0
C20 C 0.32807 0.82342 0.67404 0.0
C21 C 0.34941 0.81271 0.68472 0.0
C22 C 0.3591 0.82538 0.70853 0.0
N23 N 0.29485 0.85813 0.67659 0.0
H24 H 0.71966 0.4064 0.79636 0.0
H25 H 0.64763 0.33058 0.79673 0.0
H26 H 0.70706 0.32916 0.85286 0.0
H27 H 0.65652 0.34263 0.75125 0.0
C28 C 0.65957 0.36791 0.75168 0.0
C29 C 0.70734 0.38418 0.80467 0.0
C30 C 0.71629 0.3692 0.82574 0.0
C31 C 0.68311 0.3699 0.79346 0.0
C32 C 0.66691 0.34127 0.80459 0.0
C33 C 0.67545 0.32634 0.82597 0.0
C34 C 0.70038 0.3403 0.83615 0.0
N35 N 0.67534 0.38475 0.77115 0.0
H36 H 0.78098 0.66271 0.26655 0.0
H37 H 0.86047 0.72708 0.26289 0.0
H38 H 0.80569 0.71514 0.33565 0.0
H39 H 0.8574 0.72477 0.21744 0.0
C40 C 0.84803 0.70008 0.21584 0.0
C41 C 0.79574 0.68017 0.27604 0.0
C42 C 0.79013 0.68717 0.30298 0.0
C43 C 0.82072 0.69475 0.26128 0.0
C44 C 0.84061 0.71649 0.27367 0.0
C45 C 0.83539 0.72343 0.30067 0.0
C46 C 0.81003 0.70902 0.31502 0.0
N47 N 0.82601 0.68486 0.23483 0.0
H48 H 0.75741 0.78921 0.84887 0.0
H49 H 0.81793 0.78557 0.78278 0.0
H50 H 0.77419 0.85948 0.78538 0.0
H51 H 0.80947 0.7337 0.79731 0.0
C52 C 0.80995 0.7383 0.81853 0.0
C53 C 0.76843 0.799 0.82991 0.0
C54 C 0.76282 0.8258 0.81837 0.0
C55 C 0.78811 0.78439 0.81719 0.0
C56 C 0.80251 0.79668 0.79258 0.0
C57 C 0.79761 0.82376 0.78081 0.0
C58 C 0.77759 0.83808 0.79383 0.0
N59 N 0.79456 0.75893 0.83072 0.0
H60 H 0.68294 0.12625 0.30836 0.0
H61 H 0.68515 0.19157 0.37187 0.0
H62 H 0.6328 0.19396 0.30876 0.0
H63 H 0.7347 0.18915 0.36075 0.0
C64 C 0.7305 0.16384 0.36309 0.0
C65 C 0.67581 0.14555 0.31772 0.0
C66 C 0.6566 0.15877 0.30584 0.0
C67 C 0.68699 0.15814 0.34089 0.0
C68 C 0.6775 0.18298 0.35323 0.0
C69 C 0.65732 0.19569 0.34224 0.0
C70 C 0.64761 0.18386 0.31807 0.0
N71 N 0.70753 0.14528 0.35159 0.0
H72 H 0.29415 0.62113 0.23267 0.0
H73 H 0.36931 0.69224 0.23431 0.0
H74 H 0.31421 0.69818 0.17506 0.0
H75 H 0.38169 0.64023 0.24096 0.0
C76 C 0.36679 0.63425 0.25861 0.0
C77 C 0.30755 0.64301 0.22486 0.0
C78 C 0.30127 0.65803 0.20225 0.0
C79 C 0.33226 0.65494 0.23622 0.0
C80 C 0.3502 0.68281 0.22563 0.0
C81 C 0.3434 0.69853 0.20383 0.0
C82 C 0.31904 0.68613 0.19228 0.0
N83 N 0.33938 0.63798 0.25754 0.0
H84 H 0.14367 0.25984 0.75758 0.0
H85 H 0.2189 0.32981 0.76022 0.0
H86 H 0.20342 0.27942 0.68812 0.0
H87 H 0.20793 0.31538 0.80932 0.0
C88 C 0.1873 0.31852 0.80693 0.0
C89 C 0.16366 0.27207 0.74791 0.0
C90 C 0.17135 0.26697 0.72096 0.0
C91 C 0.181 0.29397 0.76233 0.0
C92 C 0.20622 0.31154 0.74958 0.0
C93 C 0.21421 0.30689 0.72254 0.0
C94 C 0.19696 0.28395 0.70868 0.0
N95 N 0.17098 0.30032 0.78862 0.0
Zn96 Zn 0.02508 0.98502 0.52148 0.0
Zn97 Zn 0.97614 0.00993 0.49868 0.0
C98 C 0.04916 0.04628 0.53946 0.0
O99 O 0.06836 0.0457 0.51967 0.0
C100 C 0.9502 0.95121 0.47977 0.0
O101 O 0.93118 0.9543 0.499 0.0
O102 O 0.05542 0.96463 0.53244 0.0
O103 O 0.98845 0.95681 0.53463 0.0
O104 O 0.9665 0.99524 0.53738 0.0
C105 C 0.05973 0.96498 0.55707 0.0
O106 O 0.04387 0.97731 0.57424 0.0
O107 O 0.02829 0.02344 0.5433 0.0
C108 C 0.94875 0.04568 0.46591 0.0
O109 O 0.97212 0.0491 0.45038 0.0
O110 O 0.94595 0.0307 0.4882 0.0
O111 O 0.01347 0.03796 0.48692 0.0
O112 O 0.03342 -0.00188 0.48226 0.0
O113 O 0.97244 0.97223 0.47606 0.0
C114 C 0.96932 0.96879 0.54561 0.0
C115 C 0.03173 0.02537 0.47495 0.0
Zn116 Zn 0.51943 0.98963 0.99015 0.0
Zn117 Zn 0.48792 0.03382 0.03367 0.0
C118 C 0.48083 0.95326 0.95826 0.0
O119 O 0.48875 0.93148 0.9715 0.0
C120 C 0.53244 0.06694 0.06313 0.0
O121 O 0.53096 0.09041 0.0474 0.0
O122 O 0.54887 0.96832 0.97443 0.0
O123 O 0.53886 0.03512 0.98959 0.0
O124 O 0.50264 0.05574 0.99785 0.0
C125 C 0.55654 0.97237 0.94948 0.0
O126 O 0.54527 0.99036 0.93521 0.0
O127 O 0.49019 0.98173 0.9637 0.0
C128 C 0.44849 0.04837 0.07355 0.0
O129 O 0.45475 0.0248 0.08584 0.0
O130 O 0.46006 0.0568 0.05012 0.0
O131 O 0.46805 0.9883 0.03524 0.0
O132 O 0.50386 0.96711 0.02532 0.0
O133 O 0.51725 0.04003 0.05982 0.0
C134 C 0.52672 0.05709 0.98622 0.0
C135 C 0.47999 0.96586 0.03742 0.0
Zn136 Zn 0.51021 0.47604 0.49591 0.0
Zn137 Zn 0.49257 0.52922 0.53269 0.0
C138 C 0.54256 0.51609 0.45577 0.0
O139 O 0.52372 0.49885 0.44224 0.0
C140 C 0.45988 0.49222 0.575 0.0
O141 O 0.47891 0.51003 0.58796 0.0
O142 O 0.5194 0.43772 0.47789 0.0
O143 O 0.51257 0.47006 0.53511 0.0
O144 O 0.52812 0.51981 0.5432 0.0
C145 C 0.54374 0.43412 0.48011 0.0
O146 O 0.55994 0.45417 0.49422 0.0
O147 O 0.54109 0.51144 0.48095 0.0
C148 C 0.46064 0.57155 0.55059 0.0
O149 O 0.44297 0.55033 0.53889 0.0
O150 O 0.48551 0.56862 0.55041 0.0
O151 O 0.48682 0.53408 0.49395 0.0
O152 O 0.47501 0.48419 0.48404 0.0
O153 O 0.4616 0.49513 0.54964 0.0
C154 C 0.52741 0.49113 0.548 0.0
C155 C 0.47344 0.51241 0.48048 0.0
Zn156 Zn 0.99466 0.53386 0.9804 0.0
Zn157 Zn 0.03056 0.4913 0.0327 0.0
C158 C 0.95772 0.47784 0.96231 0.0
O159 O 0.98046 0.47127 0.95078 0.0
C160 C 0.07075 0.5486 0.04995 0.0
O161 O 0.0591 0.56746 0.0371 0.0
O162 O 0.9859 0.57339 0.96699 0.0
O163 O 0.00559 0.53686 0.01774 0.0
O164 O 0.99514 0.50092 0.04937 0.0
C165 C 0.96119 0.57513 0.97454 0.0
O166 O 0.9463 0.55461 0.99244 0.0
O167 O 0.9595 0.50101 0.97757 0.0
C168 C 0.06017 0.4471 0.04067 0.0
O169 O 0.07868 0.47103 0.02939 0.0
O170 O 0.03475 0.44809 0.04263 0.0
O171 O 0.03612 0.5 0.99256 0.0
O172 O 0.02518 0.52173 0.95687 0.0
O173 O 0.06134 0.51926 0.04978 0.0
C174 C 0.98913 0.52367 0.03748 0.0
C175 C 0.03966 0.50541 0.96737 0.0
C176 C 0.18391 0.18811 0.29528 0.0
C177 C 0.1957 0.17069 0.2759 0.0
C178 C 0.16859 0.17348 0.31854 0.0
C179 C 0.15371 0.1022 0.36173 0.0
H180 H 0.08176 0.12149 0.37767 0.0
C181 C 0.06862 0.02737 0.43684 0.0
C182 C 0.0516 0.04273 0.45316 0.0
C183 C 0.08733 0.0437 0.41619 0.0
C184 C 0.10193 0.11615 0.37383 0.0
H185 H 0.20161 0.12445 0.26631 0.0
H186 H 0.17512 0.09894 0.30718 0.0
H187 H 0.11357 0.14916 0.34082 0.0
H188 H 0.04117 0.0874 0.46084 0.0
H189 H 0.07424 0.11603 0.42525 0.0
H190 H 0.14216 0.06926 0.3948 0.0
C191 C 0.17781 0.12396 0.30434 0.0
C192 C 0.12015 0.13201 0.35266 0.0
C193 C 0.19305 0.13859 0.28097 0.0
C194 C 0.05383 0.07482 0.44849 0.0
C195 C 0.07273 0.09121 0.42799 0.0
C196 C 0.13556 0.08647 0.38306 0.0
C197 C 0.16486 0.14113 0.32303 0.0
C198 C 0.14617 0.1251 0.3463 0.0
C199 C 0.08966 0.07583 0.41151 0.0
C200 C 0.10936 0.09312 0.38928 0.0
H201 H 0.18602 0.213 0.29218 0.0
H202 H 0.15927 0.1874 0.33284 0.0
H203 H 0.17373 0.0966 0.35742 0.0
H204 H 0.06728 0.00261 0.4398 0.0
H205 H 0.09966 0.03096 0.40363 0.0
C206 C 0.36338 0.89304 0.75238 0.0
C207 C 0.35821 0.86085 0.74738 0.0
C208 C 0.37526 0.90472 0.77554 0.0
C209 C 0.41802 0.8838 0.82593 0.0
H210 H 0.39502 0.94905 0.86777 0.0
C211 C 0.45529 0.9129 0.92923 0.0
C212 C 0.46392 0.94454 0.93549 0.0
C213 C 0.44153 0.90429 0.90655 0.0
C214 C 0.40187 0.93104 0.85613 0.0
H215 H 0.35994 0.81559 0.7637 0.0
H216 H 0.38049 0.83581 0.80383 0.0
H217 H 0.37234 0.93106 0.82773 0.0
H218 H 0.464 0.99194 0.92308 0.0
H219 H 0.43982 0.97681 0.88331 0.0
H220 H 0.44743 0.8836 0.85412 0.0
C221 C 0.37608 0.8522 0.7896 0.0
C222 C 0.38887 0.92073 0.83318 0.0
C223 C 0.36424 0.84058 0.76656 0.0
C224 C 0.45763 0.96736 0.91887 0.0
C225 C 0.44371 0.95868 0.89611 0.0
C226 C 0.43093 0.89404 0.84876 0.0
C227 C 0.38222 0.88446 0.79419 0.0
C228 C 0.39656 0.89666 0.818 0.0
C229 C 0.43595 0.92704 0.88943 0.0
C230 C 0.4228 0.91748 0.8644 0.0
H231 H 0.35913 0.90933 0.73796 0.0
H232 H 0.37982 0.92971 0.77838 0.0
H233 H 0.42499 0.8658 0.81437 0.0
H234 H 0.4596 0.89464 0.94159 0.0
H235 H 0.43537 0.87968 0.90235 0.0
C236 C 0.65064 0.41641 0.73064 0.0
C237 C 0.6475 0.3838 0.73147 0.0
C238 C 0.63816 0.43056 0.7117 0.0
C239 C 0.58096 0.41227 0.66892 0.0
H240 H 0.62008 0.48706 0.62788 0.0
C241 C 0.54183 0.44988 0.57373 0.0
C242 C 0.54237 0.48168 0.56953 0.0
C243 C 0.55494 0.44024 0.59443 0.0
C244 C 0.60879 0.46643 0.63946 0.0
H245 H 0.62945 0.34052 0.71311 0.0
H246 H 0.60788 0.36509 0.68001 0.0
H247 H 0.6427 0.46589 0.66251 0.0
H248 H 0.55763 0.52842 0.58352 0.0
H249 H 0.58063 0.51141 0.61999 0.0
H250 H 0.54721 0.41246 0.64586 0.0
C251 C 0.61957 0.37975 0.69412 0.0
C252 C 0.62172 0.45431 0.65926 0.0
C253 C 0.63205 0.36569 0.71294 0.0
C254 C 0.55682 0.50375 0.58627 0.0
C255 C 0.57005 0.49404 0.60707 0.0
C256 C 0.56809 0.42434 0.64924 0.0
C257 C 0.62225 0.4123 0.69344 0.0
C258 C 0.6081 0.42675 0.67382 0.0
C259 C 0.56894 0.46212 0.61152 0.0
C260 C 0.58202 0.45118 0.63392 0.0
H261 H 0.66247 0.43095 0.74473 0.0
H262 H 0.64046 0.45568 0.71172 0.0
H263 H 0.56967 0.39143 0.68024 0.0
H264 H 0.53115 0.43223 0.56108 0.0
H265 H 0.5542 0.41555 0.59696 0.0
C266 C 0.87916 0.69751 0.17431 0.0
C267 C 0.85882 0.68213 0.19424 0.0
C268 C 0.89062 0.68044 0.15468 0.0
C269 C 0.8803 0.60187 0.12456 0.0
H270 H 0.95946 0.62785 0.10476 0.0
C271 C 0.94892 0.52491 0.07129 0.0
C272 C 0.96884 0.53989 0.05074 0.0
C273 C 0.9326 0.5419 0.08642 0.0
C274 C 0.93728 0.62053 0.10988 0.0
H275 H 0.83427 0.63684 0.20927 0.0
H276 H 0.85473 0.6071 0.17564 0.0
H277 H 0.9369 0.65871 0.13586 0.0
H278 H 0.98665 0.58412 0.02931 0.0
H279 H 0.9582 0.61354 0.05564 0.0
H280 H 0.88116 0.56294 0.09914 0.0
C281 C 0.86143 0.63235 0.17461 0.0
C282 C 0.9243 0.63827 0.12761 0.0
C283 C 0.84981 0.64943 0.19404 0.0
C284 C 0.97136 0.57181 0.0449 0.0
C285 C 0.95525 0.58876 0.06008 0.0
C286 C 0.89339 0.58389 0.10702 0.0
C287 C 0.88215 0.6476 0.15483 0.0
C288 C 0.89565 0.62919 0.13518 0.0
C289 C 0.93624 0.57416 0.08138 0.0
C290 C 0.92197 0.59315 0.09951 0.0
H291 H 0.88637 0.72272 0.17405 0.0
H292 H 0.90622 0.69298 0.13947 0.0
H293 H 0.85814 0.59441 0.1297 0.0
H294 H 0.94661 0.50035 0.07624 0.0
H295 H 0.91813 0.53018 0.10285 0.0
C296 C 0.26383 0.16838 0.17029 0.0
C297 C 0.2665 0.18038 0.19599 0.0
C298 C 0.2851 0.15686 0.15674 0.0
C299 C 0.34698 0.12731 0.16902 0.0
H300 H 0.3593 0.13224 0.09144 0.0
C301 C 0.41223 0.05242 0.11068 0.0
C302 C 0.42861 0.06511 0.08708 0.0
C303 C 0.39361 0.06823 0.12371 0.0
C304 C 0.35646 0.13097 0.11312 0.0
H305 H 0.29369 0.19079 0.2274 0.0
H306 H 0.33144 0.17174 0.20338 0.0
H307 H 0.32618 0.15857 0.11439 0.0
H308 H 0.43851 0.10451 0.05874 0.0
H309 H 0.40662 0.13259 0.08187 0.0
H310 H 0.37798 0.1007 0.16781 0.0
C311 C 0.3126 0.17029 0.19394 0.0
C312 C 0.3371 0.14572 0.12632 0.0
C313 C 0.29109 0.18137 0.20768 0.0
C314 C 0.42603 0.09402 0.07681 0.0
C315 C 0.40762 0.11004 0.09002 0.0
C316 C 0.36659 0.11292 0.15585 0.0
C317 C 0.30974 0.15749 0.16842 0.0
C318 C 0.33178 0.14371 0.15443 0.0
C319 C 0.39116 0.09735 0.11366 0.0
C320 C 0.37131 0.11414 0.1277 0.0
H321 H 0.2449 0.167 0.16099 0.0
H322 H 0.28181 0.14664 0.13742 0.0
H323 H 0.34331 0.12488 0.19064 0.0
H324 H 0.41358 0.03007 0.11901 0.0
H325 H 0.38089 0.05734 0.1415 0.0
C326 C 0.25345 0.85605 0.61661 0.0
C327 C 0.26183 0.86333 0.64216 0.0
C328 C 0.23127 0.86649 0.60777 0.0
C329 C 0.19029 0.92648 0.6201 0.0
H330 H 0.1388 0.87286 0.57778 0.0
C331 C 0.08991 0.9583 0.59271 0.0
C332 C 0.08272 0.95276 0.56647 0.0
C333 C 0.11168 0.94731 0.60183 0.0
C334 C 0.15317 0.88825 0.58932 0.0
H335 H 0.25335 0.88708 0.6787 0.0
H336 H 0.21443 0.90523 0.66335 0.0
H337 H 0.17627 0.85348 0.59462 0.0
H338 H 0.09286 0.93117 0.52924 0.0
H339 H 0.13089 0.91175 0.54525 0.0
H340 H 0.16706 0.96117 0.6149 0.0
C341 C 0.22523 0.8917 0.64997 0.0
C342 C 0.17468 0.87714 0.599 0.0
C343 C 0.24744 0.88115 0.65885 0.0
C344 C 0.09783 0.93581 0.54956 0.0
C345 C 0.11953 0.92456 0.55879 0.0
C346 C 0.16873 0.93753 0.61049 0.0
C347 C 0.21689 0.88455 0.62427 0.0
C348 C 0.19357 0.89613 0.61448 0.0
C349 C 0.12677 0.93028 0.58502 0.0
C350 C 0.14991 0.91857 0.59496 0.0
H351 H 0.26419 0.84235 0.60333 0.0
H352 H 0.22574 0.86087 0.58775 0.0
H353 H 0.20469 0.94196 0.63153 0.0
H354 H 0.07879 0.97132 0.60629 0.0
H355 H 0.11647 0.95183 0.62223 0.0
C356 C 0.74611 0.41263 0.84876 0.0
C357 C 0.74232 0.38319 0.83712 0.0
C358 C 0.76942 0.42398 0.86231 0.0
C359 C 0.84011 0.4159 0.86868 0.0
H360 H 0.82783 0.442 0.94171 0.0
C361 C 0.92804 0.43712 0.93664 0.0
C362 C 0.93073 0.46342 0.95276 0.0
C363 C 0.90414 0.42671 0.92382 0.0
C364 C 0.8317 0.43517 0.92125 0.0
H365 H 0.76006 0.34309 0.82939 0.0
H366 H 0.8011 0.36319 0.8525 0.0
H367 H 0.78883 0.42778 0.91484 0.0
H368 H 0.90988 0.49861 0.96903 0.0
H369 H 0.86857 0.48093 0.94625 0.0
H370 H 0.88291 0.42371 0.87467 0.0
C371 C 0.78606 0.37738 0.85138 0.0
C372 C 0.80936 0.42707 0.90588 0.0
C373 C 0.76262 0.36585 0.83826 0.0
C374 C 0.90843 0.47814 0.95686 0.0
C375 C 0.88467 0.46795 0.94379 0.0
C376 C 0.86247 0.42432 0.8839 0.0
C377 C 0.78945 0.40627 0.86395 0.0
C378 C 0.81334 0.41707 0.87956 0.0
C379 C 0.88251 0.44259 0.92656 0.0
C380 C 0.85853 0.43372 0.91049 0.0
H381 H 0.73058 0.42626 0.84821 0.0
H382 H 0.77168 0.44642 0.87171 0.0
H383 H 0.84376 0.40857 0.84833 0.0
H384 H 0.94477 0.42515 0.93324 0.0
H385 H 0.90288 0.40657 0.91128 0.0
C386 C 0.76389 0.66144 0.34556 0.0
C387 C 0.76387 0.67121 0.3188 0.0
C388 C 0.73924 0.64673 0.36061 0.0
C389 C 0.66948 0.60073 0.35401 0.0
H390 H 0.65298 0.62531 0.42683 0.0
C391 C 0.56549 0.54691 0.41453 0.0
C392 C 0.5663 0.53836 0.4414 0.0
C393 C 0.58878 0.56557 0.39997 0.0
C394 C 0.65741 0.61797 0.40663 0.0
H395 H 0.73786 0.6733 0.28695 0.0
H396 H 0.6948 0.64704 0.31318 0.0
H397 H 0.69556 0.65259 0.4004 0.0
H398 H 0.5918 0.54336 0.47441 0.0
H399 H 0.63273 0.57543 0.44882 0.0
H400 H 0.63183 0.56565 0.36028 0.0
C401 C 0.71399 0.65076 0.3224 0.0
C402 C 0.68174 0.63362 0.3915 0.0
C403 C 0.73864 0.66569 0.30738 0.0
C404 C 0.59055 0.54969 0.45373 0.0
C405 C 0.61397 0.56816 0.43908 0.0
C406 C 0.64527 0.58493 0.36917 0.0
C407 C 0.71406 0.64121 0.34918 0.0
C408 C 0.68801 0.62511 0.36506 0.0
C409 C 0.61349 0.57585 0.41189 0.0
C410 C 0.63894 0.59334 0.39567 0.0
H411 H 0.78304 0.66478 0.35481 0.0
H412 H 0.73995 0.63915 0.38107 0.0
H413 H 0.67401 0.59337 0.33382 0.0
H414 H 0.54695 0.5388 0.40459 0.0
H415 H 0.58749 0.57165 0.37926 0.0
C416 C 0.19388 0.30909 0.15869 0.0
C417 C 0.18529 0.27711 0.16536 0.0
C418 C 0.17625 0.3244 0.14678 0.0
C419 C 0.12002 0.31368 0.10488 0.0
H420 H 0.1075 0.39044 0.13605 0.0
C421 C 0.05481 0.39254 0.05951 0.0
C422 C 0.06975 0.42374 0.05604 0.0
C423 C 0.0648 0.37123 0.07454 0.0
C424 C 0.11072 0.36896 0.1272 0.0
H425 H 0.15228 0.23558 0.16403 0.0
H426 H 0.12174 0.26228 0.1423 0.0
H427 H 0.13419 0.35972 0.15855 0.0
H428 H 0.10619 0.45744 0.06598 0.0
H429 H 0.12312 0.4208 0.09235 0.0
H430 H 0.09752 0.32376 0.07287 0.0
C431 C 0.14183 0.27554 0.14677 0.0
C432 C 0.12603 0.35151 0.14001 0.0
C433 C 0.15921 0.26038 0.15924 0.0
C434 C 0.09439 0.43343 0.06808 0.0
C435 C 0.10396 0.41253 0.08342 0.0
C436 C 0.1048 0.33132 0.09192 0.0
C437 C 0.15006 0.30774 0.14082 0.0
C438 C 0.13142 0.3242 0.12859 0.0
C439 C 0.08935 0.38126 0.08682 0.0
C440 C 0.10075 0.35958 0.10261 0.0
H441 H 0.21392 0.32236 0.16328 0.0
H442 H 0.1831 0.34924 0.14212 0.0
H443 H 0.12399 0.29265 0.09574 0.0
H444 H 0.03575 0.38461 0.05036 0.0
H445 H 0.05327 0.34714 0.07683 0.0
C446 C 0.62959 0.2932 0.84502 0.0
C447 C 0.65818 0.29661 0.8383 0.0
C448 C 0.61381 0.26628 0.85882 0.0
C449 C 0.61333 0.18433 0.8765 0.0
H450 H 0.56485 0.19694 0.93876 0.0
C451 C 0.56809 0.08695 0.9569 0.0
C452 C 0.54073 0.08428 0.96842 0.0
C453 C 0.58124 0.11231 0.93979 0.0
C454 C 0.57794 0.1929 0.92122 0.0
H455 H 0.6924 0.27397 0.83963 0.0
H456 H 0.66489 0.22701 0.86377 0.0
H457 H 0.58935 0.24161 0.91008 0.0
H458 H 0.50572 0.10615 0.9708 0.0
H459 H 0.52854 0.15014 0.94064 0.0
H460 H 0.60201 0.13565 0.88763 0.0
C461 C 0.65465 0.24511 0.8584 0.0
C462 C 0.59199 0.21853 0.90478 0.0
C463 C 0.67046 0.2721 0.84479 0.0
C464 C 0.52685 0.10757 0.9624 0.0
C465 C 0.53998 0.13288 0.94518 0.0
C466 C 0.59917 0.15867 0.89286 0.0
C467 C 0.62625 0.24212 0.86598 0.0
C468 C 0.61004 0.21457 0.88238 0.0
C469 C 0.56735 0.13556 0.93366 0.0
C470 C 0.58152 0.16267 0.91559 0.0
H471 H 0.6196 0.31178 0.8404 0.0
H472 H 0.5919 0.26449 0.86414 0.0
H473 H 0.62683 0.1805 0.85918 0.0
H474 H 0.57945 0.0695 0.96115 0.0
H475 H 0.60248 0.11388 0.93166 0.0
C476 C 0.86835 0.77548 0.30335 0.0
C477 C 0.85624 0.74545 0.31441 0.0
C478 C 0.88441 0.79781 0.31854 0.0
C479 C 0.88153 0.8278 0.37931 0.0
H480 H 0.96024 0.85102 0.38668 0.0
C481 C 0.92148 0.90038 0.46684 0.0
C482 C 0.94445 0.92544 0.46098 0.0
C483 C 0.91414 0.87772 0.44791 0.0
C484 C 0.93826 0.84496 0.38463 0.0
H485 H 0.8533 0.71427 0.3488 0.0
H486 H 0.8812 0.75345 0.37532 0.0
H487 H 0.94288 0.81322 0.35291 0.0
H488 H 0.97854 0.94578 0.43117 0.0
H489 H 0.96536 0.90641 0.39785 0.0
H490 H 0.87646 0.85908 0.41075 0.0
C491 C 0.87819 0.75961 0.35505 0.0
C492 C 0.92844 0.82344 0.3654 0.0
C493 C 0.86211 0.7374 0.34 0.0
C494 C 0.96069 0.92669 0.43625 0.0
C495 C 0.95321 0.90411 0.4172 0.0
C496 C 0.89125 0.84919 0.39843 0.0
C497 C 0.88873 0.79011 0.3447 0.0
C498 C 0.9 0.81465 0.36288 0.0
C499 C 0.92946 0.87982 0.42262 0.0
C500 C 0.91965 0.85769 0.4016 0.0
H501 H 0.86404 0.78222 0.28369 0.0
H502 H 0.89219 0.82145 0.31046 0.0
H503 H 0.85948 0.82112 0.37758 0.0
H504 H 0.90879 0.89857 0.48587 0.0
H505 H 0.89612 0.85883 0.45292 0.0
C506 C 0.36826 0.78943 0.64319 0.0
C507 C 0.3616 0.78817 0.67115 0.0
C508 C 0.38023 0.76666 0.63058 0.0
C509 C 0.38732 0.68568 0.63958 0.0
H510 H 0.44812 0.7089 0.58334 0.0
C511 C 0.42235 0.59551 0.56974 0.0
C512 C 0.45093 0.59728 0.56465 0.0
C513 C 0.41261 0.61916 0.58325 0.0
C514 C 0.43129 0.70209 0.59914 0.0
H515 H 0.3619 0.76166 0.70768 0.0
H516 H 0.3828 0.72202 0.68571 0.0
H517 H 0.4288 0.74958 0.60591 0.0
H518 H 0.49172 0.62556 0.56958 0.0
H519 H 0.47458 0.66738 0.593 0.0
H520 H 0.38966 0.63824 0.63276 0.0
C521 C 0.37877 0.74061 0.67353 0.0
C522 C 0.42004 0.72534 0.61188 0.0
C523 C 0.367 0.76347 0.68615 0.0
C524 C 0.46959 0.6235 0.57323 0.0
C525 C 0.45979 0.64747 0.58651 0.0
C526 C 0.39837 0.66246 0.62669 0.0
C527 C 0.38558 0.74195 0.6456 0.0
C528 C 0.39786 0.71739 0.6322 0.0
C529 C 0.43116 0.64542 0.59182 0.0
C530 C 0.42038 0.67037 0.60624 0.0
H531 H 0.36456 0.80828 0.63109 0.0
H532 H 0.38496 0.76819 0.609 0.0
H533 H 0.37013 0.67872 0.65501 0.0
H534 H 0.40736 0.57564 0.56348 0.0
H535 H 0.39046 0.61704 0.58674 0.0
C536 C 0.84241 0.83745 0.75084 0.0
C537 C 0.81411 0.83757 0.75546 0.0
C538 C 0.85796 0.85024 0.72707 0.0
C539 C 0.86243 0.90874 0.67454 0.0
H540 H 0.90833 0.86192 0.6331 0.0
C541 C 0.92408 0.95827 0.57431 0.0
C542 C 0.9504 0.95212 0.56826 0.0
C543 C 0.90637 0.94303 0.59608 0.0
C544 C 0.89596 0.87554 0.64459 0.0
H545 H 0.78006 0.85123 0.73845 0.0
H546 H 0.80763 0.87458 0.69727 0.0
H547 H 0.87963 0.83796 0.67336 0.0
H548 H 0.97897 0.92537 0.58029 0.0
H549 H 0.94863 0.89969 0.61892 0.0
H550 H 0.87938 0.94677 0.64663 0.0
C551 C 0.81756 0.86435 0.71214 0.0
C552 C 0.8794 0.86169 0.66756 0.0
C553 C 0.80186 0.85112 0.73577 0.0
C554 C 0.95867 0.93035 0.58435 0.0
C555 C 0.94117 0.9155 0.60642 0.0
C556 C 0.8793 0.92279 0.65182 0.0
C557 C 0.84572 0.86391 0.70757 0.0
C558 C 0.86254 0.87819 0.68275 0.0
C559 C 0.91478 0.92168 0.61264 0.0
C560 C 0.89635 0.90641 0.63654 0.0
H561 H 0.85276 0.82792 0.76577 0.0
H562 H 0.87974 0.85003 0.72418 0.0
H563 H 0.84984 0.92207 0.68612 0.0
H564 H 0.91704 0.9747 0.56205 0.0
H565 H 0.88603 0.94792 0.59982 0.0
C566 C 0.63126 0.11574 0.27886 0.0
C567 C 0.64611 0.1468 0.2804 0.0
C568 C 0.62037 0.10496 0.25506 0.0
C569 C 0.62828 0.12121 0.18199 0.0
H570 H 0.55188 0.07487 0.1852 0.0
C571 C 0.56793 0.1014 0.08849 0.0
C572 C 0.54884 0.07276 0.0865 0.0
C573 C 0.58142 0.10828 0.11164 0.0
C574 C 0.57339 0.08733 0.18393 0.0
H575 H 0.66181 0.19078 0.25838 0.0
H576 H 0.64332 0.17188 0.21659 0.0
H577 H 0.5723 0.09079 0.22662 0.0
H578 H 0.52947 0.02853 0.10716 0.0
H579 H 0.55307 0.04048 0.14751 0.0
H580 H 0.62939 0.1179 0.13934 0.0
C581 C 0.63991 0.15585 0.23373 0.0
C582 C 0.58507 0.0965 0.2077 0.0
C583 C 0.65036 0.16674 0.25764 0.0
C584 C 0.54412 0.05079 0.10796 0.0
C585 C 0.55746 0.05776 0.13122 0.0
C586 C 0.61664 0.11193 0.15823 0.0
C587 C 0.62457 0.12491 0.23221 0.0
C588 C 0.61257 0.11382 0.207 0.0
C589 C 0.57603 0.08677 0.1335 0.0
C590 C 0.58895 0.09512 0.15886 0.0
H591 H 0.62765 0.1 0.29622 0.0
H592 H 0.60878 0.08097 0.25448 0.0
H593 H 0.64965 0.13414 0.1808 0.0
H594 H 0.57207 0.11885 0.07234 0.0
H595 H 0.59538 0.13094 0.11273 0.0
C596 C 0.3976 0.60536 0.27851 0.0
C597 C 0.37467 0.61889 0.28187 0.0
C598 C 0.40601 0.59138 0.30028 0.0
C599 C 0.38362 0.56274 0.3711 0.0
H600 H 0.46246 0.56956 0.37234 0.0
C601 C 0.44743 0.54792 0.4611 0.0
C602 C 0.45793 0.52082 0.4591 0.0
C603 C 0.43456 0.55748 0.44009 0.0
C604 C 0.4404 0.56738 0.37206 0.0
H605 H 0.34251 0.62882 0.31049 0.0
H606 H 0.35795 0.60577 0.34895 0.0
H607 H 0.44584 0.59236 0.33464 0.0
H608 H 0.46291 0.48221 0.43385 0.0
H609 H 0.44113 0.49973 0.39657 0.0
H610 H 0.3788 0.53906 0.40952 0.0
C611 C 0.36895 0.60485 0.32936 0.0
C612 C 0.43076 0.5802 0.35042 0.0
C613 C 0.36016 0.61825 0.30738 0.0
C614 C 0.45483 0.50307 0.43595 0.0
C615 C 0.44246 0.51303 0.41469 0.0
C616 C 0.39339 0.55041 0.39302 0.0
C617 C 0.39211 0.59135 0.32612 0.0
C618 C 0.40221 0.57788 0.3495 0.0
C619 C 0.43245 0.54038 0.41664 0.0
C620 C 0.4218 0.55252 0.39347 0.0
H621 H 0.40896 0.60541 0.25894 0.0
H622 H 0.42344 0.58054 0.29673 0.0
H623 H 0.36151 0.56009 0.37102 0.0
H624 H 0.44945 0.56195 0.47878 0.0
H625 H 0.42706 0.57875 0.44179 0.0
C626 C 0.1832 0.3487 0.84851 0.0
C627 C 0.17582 0.34152 0.82268 0.0
C628 C 0.17109 0.36959 0.8637 0.0
C629 C 0.11016 0.4057 0.86592 0.0
H630 H 0.14799 0.45762 0.91922 0.0
C631 C 0.06516 0.49936 0.92285 0.0
C632 C 0.05966 0.49188 0.95043 0.0
C633 C 0.08233 0.48443 0.9066 0.0
C634 C 0.13739 0.44333 0.90423 0.0
H635 H 0.15178 0.35185 0.79152 0.0
H636 H 0.13196 0.38945 0.81714 0.0
H637 H 0.17262 0.42496 0.8915 0.0
H638 H 0.06775 0.4629 0.98239 0.0
H639 H 0.09861 0.43788 0.95425 0.0
H640 H 0.07522 0.42479 0.87835 0.0
C641 C 0.14578 0.37791 0.82651 0.0
C642 C 0.15129 0.42439 0.88856 0.0
C643 C 0.15726 0.35647 0.81171 0.0
C644 C 0.07225 0.46989 0.96149 0.0
C645 C 0.08979 0.45543 0.94538 0.0
C646 C 0.09657 0.42513 0.88112 0.0
C647 C 0.15198 0.38423 0.85295 0.0
C648 C 0.13777 0.40516 0.8693 0.0
C649 C 0.09456 0.46223 0.91779 0.0
C650 C 0.11001 0.44386 0.90047 0.0
H651 H 0.19762 0.33743 0.85722 0.0
H652 H 0.17618 0.37357 0.88406 0.0
H653 H 0.09871 0.39062 0.85193 0.0
H654 H 0.0557 0.51614 0.91369 0.0
H655 H 0.08572 0.4898 0.88525 0.0
C656 C 0.73977 0.84403 0.86017 0.0
C657 C 0.74187 0.84118 0.83216 0.0
C658 C 0.7198 0.85808 0.87315 0.0
C659 C 0.67611 0.91282 0.86175 0.0
H660 H 0.6319 0.87363 0.92611 0.0
C661 C 0.58226 0.95683 0.90842 0.0
C662 C 0.57764 0.95692 0.9365 0.0
C663 C 0.60223 0.94243 0.89599 0.0
C664 C 0.64432 0.88513 0.90838 0.0
H665 H 0.72442 0.85065 0.79591 0.0
H666 H 0.68983 0.87559 0.81856 0.0
H667 H 0.66719 0.84934 0.90393 0.0
H668 H 0.59037 0.94199 0.97359 0.0
H669 H 0.62576 0.91752 0.95191 0.0
H670 H 0.65367 0.94883 0.86628 0.0
C671 C 0.7038 0.86713 0.83041 0.0
C672 C 0.66448 0.87115 0.89565 0.0
C673 C 0.72365 0.85291 0.81744 0.0
C674 C 0.59338 0.94222 0.9519 0.0
C675 C 0.61356 0.92803 0.93946 0.0
C676 C 0.65612 0.92692 0.87458 0.0
C677 C 0.70163 0.86979 0.8584 0.0
C678 C 0.68048 0.88479 0.87213 0.0
C679 C 0.61827 0.92801 0.91133 0.0
C680 C 0.63986 0.91318 0.89798 0.0
H681 H 0.75378 0.83574 0.87208 0.0
H682 H 0.71886 0.86021 0.8947 0.0
H683 H 0.68843 0.9241 0.84388 0.0
H684 H 0.5703 0.9677 0.89597 0.0
H685 H 0.60488 0.94234 0.87431 0.0
C686 C 0.77903 0.16706 0.37303 0.0
C687 C 0.75162 0.14961 0.37377 0.0
C688 C 0.79939 0.15412 0.38289 0.0
C689 C 0.81239 0.102 0.43231 0.0
H690 H 0.87614 0.09368 0.38447 0.0
C691 C 0.89823 0.04649 0.46851 0.0
C692 C 0.92552 0.05757 0.45668 0.0
C693 C 0.87621 0.05644 0.45859 0.0
C694 C 0.8588 0.09631 0.39832 0.0
H695 H 0.72374 0.10522 0.38598 0.0
H696 H 0.75934 0.08295 0.40435 0.0
H697 H 0.83937 0.11368 0.36702 0.0
H698 H 0.95116 0.08851 0.42563 0.0
H699 H 0.91329 0.10694 0.4092 0.0
H700 H 0.83217 0.08625 0.46394 0.0
C701 C 0.76504 0.10642 0.39557 0.0
C702 C 0.8376 0.10749 0.38817 0.0
C703 C 0.74478 0.11908 0.38499 0.0
C704 C 0.93036 0.07932 0.4351 0.0
C705 C 0.90848 0.08966 0.42548 0.0
C706 C 0.83389 0.09144 0.44264 0.0
C707 C 0.79255 0.12379 0.3944 0.0
C708 C 0.81427 0.11052 0.40507 0.0
C709 C 0.88098 0.0781 0.43681 0.0
C710 C 0.85755 0.08859 0.42582 0.0
H711 H 0.7848 0.19064 0.36448 0.0
H712 H 0.82045 0.16797 0.38187 0.0
H713 H 0.79465 0.10441 0.44576 0.0
H714 H 0.89375 0.02951 0.48504 0.0
H715 H 0.85542 0.04656 0.46769 0.0
C716 C 0.28078 0.6427 0.15963 0.0
C717 C 0.27728 0.64386 0.18771 0.0
C718 C 0.25815 0.63185 0.14532 0.0
C719 C 0.1865 0.58551 0.15093 0.0
H720 H 0.18238 0.63359 0.08685 0.0
C721 C 0.10882 0.53972 0.07547 0.0
C722 C 0.0948 0.56074 0.06497 0.0
C723 C 0.13088 0.55036 0.09055 0.0
C724 C 0.18311 0.6201 0.10481 0.0
H725 H 0.2476 0.63328 0.22297 0.0
H726 H 0.20769 0.61419 0.19779 0.0
H727 H 0.22094 0.65046 0.11375 0.0
H728 H 0.09332 0.60953 0.06162 0.0
H729 H 0.13197 0.62823 0.08837 0.0
H730 H 0.14851 0.55533 0.14213 0.0
C731 C 0.22805 0.62175 0.18693 0.0
C732 C 0.20533 0.62953 0.12005 0.0
C733 C 0.25082 0.63263 0.20132 0.0
C734 C 0.10371 0.59279 0.06946 0.0
C735 C 0.12586 0.60347 0.08469 0.0
C736 C 0.16429 0.57604 0.13566 0.0
C737 C 0.23147 0.62185 0.15874 0.0
C738 C 0.20737 0.6122 0.14315 0.0
C739 C 0.13945 0.58227 0.09562 0.0
C740 C 0.16247 0.59311 0.11233 0.0
H741 H 0.30109 0.65048 0.14867 0.0
H742 H 0.26154 0.63142 0.12367 0.0
H743 H 0.1876 0.57161 0.16853 0.0
H744 H 0.10274 0.51488 0.07214 0.0
H745 H 0.14132 0.53353 0.09817 0.0
C746 C 0.23974 0.33701 0.68149 0.0
C747 C 0.23971 0.32692 0.70818 0.0
C748 C 0.26376 0.35495 0.66752 0.0
C749 C 0.32988 0.40834 0.67549 0.0
H750 H 0.35265 0.38137 0.60505 0.0
C751 C 0.43506 0.46608 0.6177 0.0
C752 C 0.43566 0.47124 0.58997 0.0
C753 C 0.41148 0.44792 0.63228 0.0
C754 C 0.34642 0.38948 0.62452 0.0
H755 H 0.26488 0.32856 0.74128 0.0
H756 H 0.3068 0.36065 0.71689 0.0
H757 H 0.31046 0.35179 0.63048 0.0
H758 H 0.41217 0.46117 0.55566 0.0
H759 H 0.37083 0.42997 0.58113 0.0
H760 H 0.36541 0.44643 0.66939 0.0
C761 C 0.28812 0.35437 0.70688 0.0
C762 C 0.32231 0.37247 0.6391 0.0
C763 C 0.26412 0.33607 0.72082 0.0
C764 C 0.41239 0.45745 0.577 0.0
C765 C 0.38872 0.43947 0.59161 0.0
C766 C 0.35386 0.42557 0.6608 0.0
C767 C 0.28821 0.3636 0.67999 0.0
C768 C 0.31384 0.38171 0.66472 0.0
C769 C 0.3879 0.43468 0.61947 0.0
C770 C 0.36245 0.41631 0.63515 0.0
H771 H 0.22112 0.3312 0.67135 0.0
H772 H 0.26316 0.36224 0.64695 0.0
H773 H 0.32359 0.41614 0.69508 0.0
H774 H 0.45274 0.47625 0.62825 0.0
H775 H 0.41176 0.44423 0.6536 0.0
C776 C 0.83864 0.69939 0.82364 0.0
C777 C 0.82693 0.72333 0.83451 0.0
C778 C 0.85507 0.68541 0.83859 0.0
C779 C 0.90209 0.67506 0.87107 0.0
H780 H 0.87071 0.64557 0.943 0.0
C781 C 0.96272 0.62219 0.94526 0.0
C782 C 0.94749 0.59546 0.95994 0.0
C783 C 0.94923 0.63986 0.93013 0.0
C784 C 0.87976 0.6536 0.92295 0.0
H785 H 0.82383 0.75223 0.86913 0.0
H786 H 0.85234 0.72768 0.89519 0.0
H787 H 0.8449 0.67185 0.91532 0.0
H788 H 0.90643 0.56583 0.96992 0.0
H789 H 0.88322 0.59597 0.94323 0.0
H790 H 0.93682 0.65629 0.87857 0.0
C791 C 0.84854 0.71948 0.87529 0.0
C792 C 0.86507 0.66884 0.90721 0.0
C793 C 0.83218 0.73343 0.86038 0.0
C794 C 0.91868 0.58671 0.95927 0.0
C795 C 0.90533 0.60402 0.94397 0.0
C796 C 0.91694 0.65992 0.88691 0.0
C797 C 0.85996 0.69524 0.8646 0.0
C798 C 0.87601 0.67954 0.88112 0.0
C799 C 0.92039 0.63081 0.92926 0.0
C800 C 0.90576 0.64875 0.91293 0.0
H801 H 0.83488 0.69132 0.80369 0.0
H802 H 0.86347 0.66652 0.83007 0.0
H803 H 0.91099 0.68336 0.85102 0.0
H804 H 0.98497 0.62937 0.94545 0.0
H805 H 0.96133 0.6606 0.9192 0.0
C806 C 0.35644 0.7563 0.19666 0.0
C807 C 0.36218 0.72699 0.19159 0.0
C808 C 0.37123 0.78271 0.18153 0.0
C809 C 0.40953 0.80349 0.11498 0.0
H810 H 0.43107 0.88605 0.14399 0.0
C811 C 0.47544 0.91032 0.0525 0.0
C812 C 0.46633 0.9383 0.05487 0.0
C813 C 0.46316 0.88457 0.06951 0.0
C814 C 0.42495 0.86315 0.13562 0.0
H815 H 0.38784 0.70183 0.16751 0.0
H816 H 0.41409 0.74802 0.14114 0.0
H817 H 0.41044 0.84115 0.17424 0.0
H818 H 0.43707 0.96111 0.07685 0.0
H819 H 0.41595 0.9162 0.10685 0.0
H820 H 0.42412 0.82549 0.07639 0.0
C821 C 0.39815 0.75076 0.15664 0.0
C822 C 0.41317 0.83746 0.15291 0.0
C823 C 0.38343 0.72443 0.17187 0.0
C824 C 0.44458 0.93991 0.07452 0.0
C825 C 0.43259 0.91428 0.0918 0.0
C826 C 0.42144 0.82913 0.09773 0.0
C827 C 0.39178 0.78008 0.16088 0.0
C828 C 0.40529 0.80733 0.14278 0.0
C829 C 0.44179 0.88638 0.08949 0.0
C830 C 0.4292 0.85921 0.10786 0.0
H831 H 0.33978 0.75851 0.21158 0.0
H832 H 0.36565 0.80485 0.18516 0.0
H833 H 0.40314 0.78074 0.10644 0.0
H834 H 0.49206 0.90829 0.03748 0.0
H835 H 0.47075 0.86339 0.06736 0.0
C836 C 0.14973 0.25297 0.67846 0.0
C837 C 0.15225 0.24514 0.70515 0.0
C838 C 0.13283 0.23213 0.66299 0.0
C839 C 0.10126 0.14807 0.6592 0.0
H840 H 0.0665 0.17735 0.60127 0.0
C841 C 0.04145 0.06491 0.58578 0.0
C842 C 0.0536 0.07105 0.55922 0.0
C843 C 0.04832 0.08689 0.60539 0.0
C844 C 0.07597 0.16893 0.6175 0.0
H845 H 0.13806 0.20965 0.73687 0.0
H846 H 0.10766 0.17362 0.71012 0.0
H847 H 0.08719 0.21435 0.63374 0.0
H848 H 0.08114 0.10542 0.53195 0.0
H849 H 0.09255 0.14432 0.56624 0.0
H850 H 0.08982 0.1026 0.64284 0.0
C851 C 0.11938 0.19562 0.70093 0.0
C852 C 0.08798 0.19005 0.63598 0.0
C853 C 0.13658 0.21641 0.71636 0.0
C854 C 0.07159 0.10013 0.5523 0.0
C855 C 0.07798 0.12237 0.57182 0.0
C856 C 0.0888 0.12689 0.641 0.0
C857 C 0.11763 0.20306 0.67392 0.0
C858 C 0.10149 0.18003 0.6566 0.0
C859 C 0.06691 0.11558 0.5986 0.0
C860 C 0.0767 0.13732 0.61966 0.0
H861 H 0.16099 0.27523 0.66936 0.0
H862 H 0.13236 0.23856 0.6422 0.0
H863 H 0.11179 0.13953 0.67452 0.0
H864 H 0.02761 0.04259 0.59167 0.0
H865 H 0.03957 0.08124 0.62595 0.0
C866 C 0.66265 0.24445 0.36961 0.0
C867 C 0.64576 0.22058 0.35621 0.0
C868 C 0.6515 0.26738 0.38299 0.0
C869 C 0.59202 0.30507 0.38598 0.0
H870 H 0.61278 0.32927 0.45657 0.0
C871 C 0.53772 0.3866 0.45137 0.0
C872 C 0.55446 0.40877 0.46636 0.0
C873 C 0.54844 0.36325 0.43809 0.0
C874 C 0.60698 0.32312 0.43673 0.0
H875 H 0.6036 0.20203 0.347 0.0
H876 H 0.5844 0.24218 0.36987 0.0
H877 H 0.63286 0.29023 0.43279 0.0
H878 H 0.59569 0.42375 0.47901 0.0
H879 H 0.61436 0.3837 0.45566 0.0
H880 H 0.56639 0.33819 0.38973 0.0
C881 C 0.60635 0.24337 0.36975 0.0
C882 C 0.61852 0.30068 0.4231 0.0
C883 C 0.61744 0.22036 0.35655 0.0
C884 C 0.5821 0.40698 0.46779 0.0
C885 C 0.59281 0.38381 0.45449 0.0
C886 C 0.5806 0.32766 0.39954 0.0
C887 C 0.6232 0.26713 0.3832 0.0
C888 C 0.61118 0.29135 0.39756 0.0
C889 C 0.57618 0.36158 0.43944 0.0
C890 C 0.58792 0.33704 0.42512 0.0
H891 H 0.68461 0.24568 0.36951 0.0
H892 H 0.66513 0.28558 0.39289 0.0
H893 H 0.58618 0.2987 0.36619 0.0
H894 H 0.51633 0.38726 0.44987 0.0
H895 H 0.53489 0.34633 0.42698 0.0
loop_
_geom_bond_atom_site_label_1
_geom_bond_atom_site_label_2
_geom_bond_distance
_geom_bond_site_symmetry_2
_ccdc_geom_bond_type
H0 C5 0.930 . S
H1 C8 0.930 . S
H2 C10 0.930 . S
H3 C4 1.016 . S
C4 H3 1.016 . S
C4 N11 1.286 . S
C5 H0 0.930 . S
C5 C6 1.397 . S
C5 C7 1.361 . S
C6 C5 1.397 . S
C6 C10 1.390 . S
C7 C5 1.361 . S
C7 C8 1.393 . S
C7 N11 1.413 . S
C8 H1 0.930 . S
C8 C7 1.393 . S
C8 C9 1.399 . S
C9 C8 1.399 . S
C9 C10 1.381 . S
C10 H2 0.930 . S
C10 C6 1.390 . S
C10 C9 1.381 . S
N11 C4 1.286 . S
N11 C7 1.413 . S
H12 C17 0.930 . S
H13 C20 0.930 . S
H14 C22 0.930 . S
H15 C16 1.016 . S
C16 H15 1.016 . S
C16 N23 1.286 . S
C17 H12 0.930 . S
C17 C18 1.397 . S
C17 C19 1.361 . S
C18 C17 1.397 . S
C18 C22 1.390 . S
C19 C17 1.361 . S
C19 C20 1.393 . S
C19 N23 1.413 . S
C20 H13 0.930 . S
C20 C19 1.393 . S
C20 C21 1.399 . S
C21 C20 1.399 . S
C21 C22 1.381 . S
C22 H14 0.930 . S
C22 C18 1.390 . S
C22 C21 1.381 . S
N23 C16 1.286 . S
N23 C19 1.413 . S
H24 C29 0.930 . S
H25 C32 0.930 . S
H26 C34 0.930 . S
H27 C28 1.016 . S
C28 H27 1.016 . S
C28 N35 1.286 . S
C29 H24 0.930 . S
C29 C30 1.397 . S
C29 C31 1.361 . S
C30 C29 1.397 . S
C30 C34 1.390 . S
C31 C29 1.361 . S
C31 C32 1.393 . S
C31 N35 1.413 . S
C32 H25 0.930 . S
C32 C31 1.393 . S
C32 C33 1.399 . S
C33 C32 1.399 . S
C33 C34 1.381 . S
C34 H26 0.930 . S
C34 C30 1.390 . S
C34 C33 1.381 . S
N35 C28 1.286 . S
N35 C31 1.413 . S
H36 C41 0.930 . S
H37 C44 0.930 . S
H38 C46 0.930 . S
H39 C40 1.016 . S
C40 H39 1.016 . S
C40 N47 1.286 . S
C41 H36 0.930 . S
C41 C42 1.397 . S
C41 C43 1.361 . S
C42 C41 1.397 . S
C42 C46 1.390 . S
C43 C41 1.361 . S
C43 C44 1.393 . S
C43 N47 1.413 . S
C44 H37 0.930 . S
C44 C43 1.393 . S
C44 C45 1.399 . S
C45 C44 1.399 . S
C45 C46 1.381 . S
C46 H38 0.930 . S
C46 C42 1.390 . S
C46 C45 1.381 . S
N47 C40 1.286 . S
N47 C43 1.413 . S
H48 C53 0.930 . S
H49 C56 0.930 . S
H50 C58 0.930 . S
H51 C52 1.016 . S
C52 H51 1.016 . S
C52 N59 1.286 . S
C53 H48 0.930 . S
C53 C54 1.397 . S
C53 C55 1.361 . S
C54 C53 1.397 . S
C54 C58 1.390 . S
C55 C53 1.361 . S
C55 C56 1.393 . S
C55 N59 1.413 . S
C56 H49 0.930 . S
C56 C55 1.393 . S
C56 C57 1.399 . S
C57 C56 1.399 . S
C57 C58 1.381 . S
C58 H50 0.930 . S
C58 C54 1.390 . S
C58 C57 1.381 . S
N59 C52 1.286 . S
N59 C55 1.413 . S
H60 C65 0.930 . S
H61 C68 0.930 . S
H62 C70 0.930 . S
H63 C64 1.016 . S
C64 H63 1.016 . S
C64 N71 1.286 . S
C65 H60 0.930 . S
C65 C66 1.397 . S
C65 C67 1.361 . S
C66 C65 1.397 . S
C66 C70 1.390 . S
C67 C65 1.361 . S
C67 C68 1.393 . S
C67 N71 1.413 . S
C68 H61 0.930 . S
C68 C67 1.393 . S
C68 C69 1.399 . S
C69 C68 1.399 . S
C69 C70 1.381 . S
C70 H62 0.930 . S
C70 C66 1.390 . S
C70 C69 1.381 . S
N71 C64 1.286 . S
N71 C67 1.413 . S
H72 C77 0.930 . S
H73 C80 0.930 . S
H74 C82 0.930 . S
H75 C76 1.016 . S
C76 H75 1.016 . S
C76 N83 1.286 . S
C77 H72 0.930 . S
C77 C78 1.397 . S
C77 C79 1.361 . S
C78 C77 1.397 . S
C78 C82 1.390 . S
C79 C77 1.361 . S
C79 C80 1.393 . S
C79 N83 1.413 . S
C80 H73 0.930 . S
C80 C79 1.393 . S
C80 C81 1.399 . S
C81 C80 1.399 . S
C81 C82 1.381 . S
C82 H74 0.930 . S
C82 C78 1.390 . S
C82 C81 1.381 . S
N83 C76 1.286 . S
N83 C79 1.413 . S
H84 C89 0.930 . S
H85 C92 0.930 . S
H86 C94 0.930 . S
H87 C88 1.016 . S
C88 H87 1.016 . S
C88 N95 1.286 . S
C89 H84 0.930 . S
C89 C90 1.397 . S
C89 C91 1.361 . S
C90 C89 1.397 . S
C90 C94 1.390 . S
C91 C89 1.361 . S
C91 C92 1.393 . S
C91 N95 1.413 . S
C92 H85 0.930 . S
C92 C91 1.393 . S
C92 C93 1.399 . S
C93 C92 1.399 . S
C93 C94 1.381 . S
C94 H86 0.930 . S
C94 C90 1.390 . S
C94 C93 1.381 . S
N95 C88 1.286 . S
N95 C91 1.413 . S
Zn96 O102 1.969 1_545 S
Zn96 O103 1.965 1_545 S
Zn96 O107 2.024 . S
Zn96 O112 1.969 . S
Zn97 O104 1.969 . S
Zn97 O110 1.969 1_565 S
Zn97 O111 1.965 1_665 S
Zn97 O113 2.024 . S
C98 O99 1.229 . S
C98 O107 1.058 . S
O99 C98 1.229 . S
C100 O101 1.229 . S
C100 O113 1.058 . S
O101 C100 1.229 . S
O102 Zn96 1.969 1_565 S
O102 C105 1.267 . S
O103 Zn96 1.965 1_565 S
O103 C114 1.260 1_455 S
O104 Zn97 1.969 . S
O104 C114 1.258 . S
C105 O102 1.267 . S
C105 O106 1.228 . S
O106 C105 1.228 . S
O107 Zn96 2.024 . S
O107 C98 1.058 . S
C108 O109 1.228 . S
C108 O110 1.267 . S
O109 C108 1.228 . S
O110 Zn97 1.969 1_545 S
O110 C108 1.267 . S
O111 Zn97 1.965 1_445 S
O111 C115 1.260 . S
O112 Zn96 1.969 . S
O112 C115 1.258 . S
O113 Zn97 2.024 . S
O113 C100 1.058 . S
C114 O103 1.260 1_655 S
C114 O104 1.258 . S
C115 O111 1.260 . S
C115 O112 1.258 . S
Zn116 O122 1.969 . S
Zn116 O123 1.965 1_565 S
Zn116 O127 2.024 . S
Zn116 O132 1.969 1_556 S
Zn117 O124 1.969 . S
Zn117 O130 1.969 . S
Zn117 O131 1.965 1_545 S
Zn117 O133 2.024 . S
C118 O119 1.229 . S
C118 O127 1.058 . S
O119 C118 1.229 . S
C120 O121 1.229 . S
C120 O133 1.058 . S
O121 C120 1.229 . S
O122 Zn116 1.969 . S
O122 C125 1.267 . S
O123 Zn116 1.965 1_545 S
O123 C134 1.260 . S
O124 Zn117 1.969 . S
O124 C134 1.258 1_554 S
C125 O122 1.267 . S
C125 O126 1.228 . S
O126 C125 1.228 . S
O127 Zn116 2.024 . S
O127 C118 1.058 . S
C128 O129 1.228 . S
C128 O130 1.267 . S
O129 C128 1.228 . S
O130 Zn117 1.969 . S
O130 C128 1.267 . S
O131 Zn117 1.965 1_565 S
O131 C135 1.260 . S
O132 Zn116 1.969 1_554 S
O132 C135 1.258 . S
O133 Zn117 2.024 . S
O133 C120 1.058 . S
C134 O123 1.260 . S
C134 O124 1.258 1_556 S
C135 O131 1.260 . S
C135 O132 1.258 . S
Zn136 O142 1.969 . S
Zn136 O143 1.965 . S
Zn136 O147 2.024 . S
Zn136 O152 1.969 . S
Zn137 O144 1.969 . S
Zn137 O150 1.969 . S
Zn137 O151 1.965 . S
Zn137 O153 2.024 . S
C138 O139 1.229 . S
C138 O147 1.058 . S
O139 C138 1.229 . S
C140 O141 1.229 . S
C140 O153 1.058 . S
O141 C140 1.229 . S
O142 Zn136 1.969 . S
O142 C145 1.267 . S
O143 Zn136 1.965 . S
O143 C154 1.260 . S
O144 Zn137 1.969 . S
O144 C154 1.258 . S
C145 O142 1.267 . S
C145 O146 1.228 . S
O146 C145 1.228 . S
O147 Zn136 2.024 . S
O147 C138 1.058 . S
C148 O149 1.228 . S
C148 O150 1.267 . S
O149 C148 1.228 . S
O150 Zn137 1.969 . S
O150 C148 1.267 . S
O151 Zn137 1.965 . S
O151 C155 1.260 . S
O152 Zn136 1.969 . S
O152 C155 1.258 . S
O153 Zn137 2.024 . S
O153 C140 1.058 . S
C154 O143 1.260 . S
C154 O144 1.258 . S
C155 O151 1.260 . S
C155 O152 1.258 . S
Zn156 O162 1.969 . S
Zn156 O163 1.965 1_556 S
Zn156 O167 2.024 . S
Zn156 O172 1.969 1_655 S
Zn157 O164 1.969 . S
Zn157 O170 1.969 . S
Zn157 O171 1.934 1_554 S
Zn157 O173 2.024 . S
C158 O159 1.229 . S
C158 O167 1.058 . S
O159 C158 1.229 . S
C160 O161 1.229 . S
C160 O173 1.058 . S
O161 C160 1.229 . S
O162 Zn156 1.969 . S
O162 C165 1.267 . S
O163 Zn156 1.965 1_554 S
O163 C174 1.260 . S
O164 Zn157 1.969 . S
O164 C174 1.258 1_455 S
C165 O162 1.267 . S
C165 O166 1.228 . S
O166 C165 1.228 . S
O167 Zn156 2.024 . S
O167 C158 1.058 . S
C168 O169 1.228 . S
C168 O170 1.267 . S
O169 C168 1.228 . S
O170 Zn157 1.969 . S
O170 C168 1.267 . S
O171 Zn157 1.934 1_556 S
O171 C175 1.293 . S
O172 Zn156 1.969 1_455 S
O172 C175 1.258 . S
O173 Zn157 2.024 . S
O173 C160 1.058 . S
C174 O163 1.260 . S
C174 O164 1.258 1_655 S
C175 O171 1.293 . S
C175 O172 1.258 . S
C176 C177 1.349 . S
C176 C178 1.327 . S
C176 H201 0.950 . S
C177 C176 1.349 . S
C177 C193 1.349 . S
C178 C176 1.327 . S
C178 C197 1.429 . S
C178 H202 0.950 . S
C179 C196 1.574 . S
C179 C198 1.368 . S
C179 H203 0.949 . S
H180 C184 0.949 . S
C181 C182 1.349 . S
C181 C183 1.327 . S
C181 H204 0.950 . S
C182 C181 1.349 . S
C182 C194 1.349 . S
C183 C181 1.327 . S
C183 C199 1.429 . S
C183 H205 0.950 . S
C184 H180 0.949 . S
C184 C192 1.574 . S
C184 C200 1.368 . S
H185 C193 0.950 . S
H186 C191 0.950 . S
H187 C192 0.949 . S
H188 C194 0.950 . S
H189 C195 0.950 . S
H190 C196 0.949 . S
C191 H186 0.950 . S
C191 C193 1.327 . S
C191 C197 1.429 . S
C192 C184 1.574 . S
C192 H187 0.949 . S
C192 C198 1.368 . S
C193 C177 1.349 . S
C193 H185 0.950 . S
C193 C191 1.327 . S
C194 C182 1.349 . S
C194 H188 0.950 . S
C194 C195 1.327 . S
C195 H189 0.950 . S
C195 C194 1.327 . S
C195 C199 1.429 . S
C196 C179 1.574 . S
C196 H190 0.949 . S
C196 C200 1.368 . S
C197 C178 1.429 . S
C197 C191 1.429 . S
C197 C198 1.523 . S
C198 C179 1.368 . S
C198 C192 1.368 . S
C198 C197 1.523 . S
C199 C183 1.429 . S
C199 C195 1.429 . S
C199 C200 1.523 . S
C200 C184 1.368 . S
C200 C196 1.368 . S
C200 C199 1.523 . S
H201 C176 0.950 . S
H202 C178 0.950 . S
H203 C179 0.949 . S
H204 C181 0.950 . S
H205 C183 0.950 . S
C206 C207 1.349 . S
C206 C208 1.327 . S
C206 H231 0.950 . S
C207 C206 1.349 . S
C207 C223 1.349 . S
C208 C206 1.327 . S
C208 C227 1.429 . S
C208 H232 0.950 . S
C209 C226 1.574 . S
C209 C228 1.368 . S
C209 H233 0.949 . S
H210 C214 0.949 . S
C211 C212 1.349 . S
C211 C213 1.327 . S
C211 H234 0.950 . S
C212 C211 1.349 . S
C212 C224 1.349 . S
C213 C211 1.327 . S
C213 C229 1.429 . S
C213 H235 0.950 . S
C214 H210 0.949 . S
C214 C222 1.574 . S
C214 C230 1.368 . S
H215 C223 0.950 . S
H216 C221 0.950 . S
H217 C222 0.949 . S
H218 C224 0.950 . S
H219 C225 0.950 . S
H220 C226 0.949 . S
C221 H216 0.950 . S
C221 C223 1.327 . S
C221 C227 1.429 . S
C222 C214 1.574 . S
C222 H217 0.949 . S
C222 C228 1.368 . S
C223 C207 1.349 . S
C223 H215 0.950 . S
C223 C221 1.327 . S
C224 C212 1.349 . S
C224 H218 0.950 . S
C224 C225 1.327 . S
C225 H219 0.950 . S
C225 C224 1.327 . S
C225 C229 1.429 . S
C226 C209 1.574 . S
C226 H220 0.949 . S
C226 C230 1.368 . S
C227 C208 1.429 . S
C227 C221 1.429 . S
C227 C228 1.523 . S
C228 C209 1.368 . S
C228 C222 1.368 . S
C228 C227 1.523 . S
C229 C213 1.429 . S
C229 C225 1.429 . S
C229 C230 1.523 . S
C230 C214 1.368 . S
C230 C226 1.368 . S
C230 C229 1.523 . S
H231 C206 0.950 . S
H232 C208 0.950 . S
H233 C209 0.949 . S
H234 C211 0.950 . S
H235 C213 0.950 . S
C236 C237 1.349 . S
C236 C238 1.327 . S
C236 H261 0.950 . S
C237 C236 1.349 . S
C237 C253 1.349 . S
C238 C236 1.327 . S
C238 C257 1.429 . S
C238 H262 0.950 . S
C239 C256 1.574 . S
C239 C258 1.368 . S
C239 H263 0.949 . S
H240 C244 0.949 . S
C241 C242 1.349 . S
C241 C243 1.327 . S
C241 H264 0.950 . S
C242 C241 1.349 . S
C242 C254 1.349 . S
C243 C241 1.327 . S
C243 C259 1.429 . S
C243 H265 0.950 . S
C244 H240 0.949 . S
C244 C252 1.574 . S
C244 C260 1.368 . S
H245 C253 0.950 . S
H246 C251 0.950 . S
H247 C252 0.949 . S
H248 C254 0.950 . S
H249 C255 0.950 . S
H250 C256 0.949 . S
C251 H246 0.950 . S
C251 C253 1.327 . S
C251 C257 1.429 . S
C252 C244 1.574 . S
C252 H247 0.949 . S
C252 C258 1.368 . S
C253 C237 1.349 . S
C253 H245 0.950 . S
C253 C251 1.327 . S
C254 C242 1.349 . S
C254 H248 0.950 . S
C254 C255 1.327 . S
C255 H249 0.950 . S
C255 C254 1.327 . S
C255 C259 1.429 . S
C256 C239 1.574 . S
C256 H250 0.949 . S
C256 C260 1.368 . S
C257 C238 1.429 . S
C257 C251 1.429 . S
C257 C258 1.523 . S
C258 C239 1.368 . S
C258 C252 1.368 . S
C258 C257 1.523 . S
C259 C243 1.429 . S
C259 C255 1.429 . S
C259 C260 1.523 . S
C260 C244 1.368 . S
C260 C256 1.368 . S
C260 C259 1.523 . S
H261 C236 0.950 . S
H262 C238 0.950 . S
H263 C239 0.949 . S
H264 C241 0.950 . S
H265 C243 0.950 . S
C266 C267 1.349 . S
C266 C268 1.327 . S
C266 H291 0.950 . S
C267 C266 1.349 . S
C267 C283 1.349 . S
C268 C266 1.327 . S
C268 C287 1.429 . S
C268 H292 0.950 . S
C269 C286 1.574 . S
C269 C288 1.368 . S
C269 H293 0.949 . S
H270 C274 0.949 . S
C271 C272 1.349 . S
C271 C273 1.327 . S
C271 H294 0.950 . S
C272 C271 1.349 . S
C272 C284 1.349 . S
C273 C271 1.327 . S
C273 C289 1.429 . S
C273 H295 0.950 . S
C274 H270 0.949 . S
C274 C282 1.574 . S
C274 C290 1.368 . S
H275 C283 0.950 . S
H276 C281 0.950 . S
H277 C282 0.949 . S
H278 C284 0.950 1_455 S
H279 C285 0.950 . S
H280 C286 0.949 . S
C281 H276 0.950 . S
C281 C283 1.327 . S
C281 C287 1.429 . S
C282 C274 1.574 . S
C282 H277 0.949 . S
C282 C288 1.368 . S
C283 C267 1.349 . S
C283 H275 0.950 . S
C283 C281 1.327 . S
C284 C272 1.349 . S
C284 H278 0.950 1_655 S
C284 C285 1.327 . S
C285 H279 0.950 . S
C285 C284 1.327 . S
C285 C289 1.429 . S
C286 C269 1.574 . S
C286 H280 0.949 . S
C286 C290 1.368 . S
C287 C268 1.429 . S
C287 C281 1.429 . S
C287 C288 1.523 . S
C288 C269 1.368 . S
C288 C282 1.368 . S
C288 C287 1.523 . S
C289 C273 1.429 . S
C289 C285 1.429 . S
C289 C290 1.523 . S
C290 C274 1.368 . S
C290 C286 1.368 . S
C290 C289 1.523 . S
H291 C266 0.950 . S
H292 C268 0.950 . S
H293 C269 0.949 . S
H294 C271 0.950 . S
H295 C273 0.950 . S
C296 C297 1.349 . S
C296 C298 1.327 . S
C296 H321 0.950 . S
C297 C296 1.349 . S
C297 C313 1.349 . S
C298 C296 1.327 . S
C298 C317 1.429 . S
C298 H322 0.950 . S
C299 C316 1.574 . S
C299 C318 1.368 . S
C299 H323 0.949 . S
H300 C304 0.949 . S
C301 C302 1.349 . S
C301 C303 1.327 . S
C301 H324 0.950 . S
C302 C301 1.349 . S
C302 C314 1.349 . S
C303 C301 1.327 . S
C303 C319 1.429 . S
C303 H325 0.950 . S
C304 H300 0.949 . S
C304 C312 1.574 . S
C304 C320 1.368 . S
H305 C313 0.950 . S
H306 C311 0.950 . S
H307 C312 0.949 . S
H308 C314 0.950 . S
H309 C315 0.950 . S
H310 C316 0.949 . S
C311 H306 0.950 . S
C311 C313 1.327 . S
C311 C317 1.429 . S
C312 C304 1.574 . S
C312 H307 0.949 . S
C312 C318 1.368 . S
C313 C297 1.349 . S
C313 H305 0.950 . S
C313 C311 1.327 . S
C314 C302 1.349 . S
C314 H308 0.950 . S
C314 C315 1.327 . S
C315 H309 0.950 . S
C315 C314 1.327 . S
C315 C319 1.429 . S
C316 C299 1.574 . S
C316 H310 0.949 . S
C316 C320 1.368 . S
C317 C298 1.429 . S
C317 C311 1.429 . S
C317 C318 1.523 . S
C318 C299 1.368 . S
C318 C312 1.368 . S
C318 C317 1.523 . S
C319 C303 1.429 . S
C319 C315 1.429 . S
C319 C320 1.523 . S
C320 C304 1.368 . S
C320 C316 1.368 . S
C320 C319 1.523 . S
H321 C296 0.950 . S
H322 C298 0.950 . S
H323 C299 0.949 . S
H324 C301 0.950 . S
H325 C303 0.950 . S
C326 C327 1.349 . S
C326 C328 1.327 . S
C326 H351 0.950 . S
C327 C326 1.349 . S
C327 C343 1.349 . S
C328 C326 1.327 . S
C328 C347 1.429 . S
C328 H352 0.950 . S
C329 C346 1.574 . S
C329 C348 1.368 . S
C329 H353 0.949 . S
H330 C334 0.949 . S
C331 C332 1.349 . S
C331 C333 1.327 . S
C331 H354 0.950 . S
C332 C331 1.349 . S
C332 C344 1.349 . S
C333 C331 1.327 . S
C333 C349 1.429 . S
C333 H355 0.950 . S
C334 H330 0.949 . S
C334 C342 1.574 . S
C334 C350 1.368 . S
H335 C343 0.950 . S
H336 C341 0.950 . S
H337 C342 0.949 . S
H338 C344 0.950 . S
H339 C345 0.950 . S
H340 C346 0.949 . S
C341 H336 0.950 . S
C341 C343 1.327 . S
C341 C347 1.429 . S
C342 C334 1.574 . S
C342 H337 0.949 . S
C342 C348 1.368 . S
C343 C327 1.349 . S
C343 H335 0.950 . S
C343 C341 1.327 . S
C344 C332 1.349 . S
C344 H338 0.950 . S
C344 C345 1.327 . S
C345 H339 0.950 . S
C345 C344 1.327 . S
C345 C349 1.429 . S
C346 C329 1.574 . S
C346 H340 0.949 . S
C346 C350 1.368 . S
C347 C328 1.429 . S
C347 C341 1.429 . S
C347 C348 1.523 . S
C348 C329 1.368 . S
C348 C342 1.368 . S
C348 C347 1.523 . S
C349 C333 1.429 . S
C349 C345 1.429 . S
C349 C350 1.523 . S
C350 C334 1.368 . S
C350 C346 1.368 . S
C350 C349 1.523 . S
H351 C326 0.950 . S
H352 C328 0.950 . S
H353 C329 0.949 . S
H354 C331 0.950 . S
H355 C333 0.950 . S
C356 C357 1.349 . S
C356 C358 1.327 . S
C356 H381 0.950 . S
C357 C356 1.349 . S
C357 C373 1.349 . S
C358 C356 1.327 . S
C358 C377 1.429 . S
C358 H382 0.950 . S
C359 C376 1.574 . S
C359 C378 1.368 . S
C359 H383 0.949 . S
H360 C364 0.949 . S
C361 C362 1.349 . S
C361 C363 1.327 . S
C361 H384 0.950 . S
C362 C361 1.349 . S
C362 C374 1.349 . S
C363 C361 1.327 . S
C363 C379 1.429 . S
C363 H385 0.950 . S
C364 H360 0.949 . S
C364 C372 1.574 . S
C364 C380 1.368 . S
H365 C373 0.950 . S
H366 C371 0.950 . S
H367 C372 0.949 . S
H368 C374 0.950 . S
H369 C375 0.950 . S
H370 C376 0.949 . S
C371 H366 0.950 . S
C371 C373 1.327 . S
C371 C377 1.429 . S
C372 C364 1.574 . S
C372 H367 0.949 . S
C372 C378 1.368 . S
C373 C357 1.349 . S
C373 H365 0.950 . S
C373 C371 1.327 . S
C374 C362 1.349 . S
C374 H368 0.950 . S
C374 C375 1.327 . S
C375 H369 0.950 . S
C375 C374 1.327 . S
C375 C379 1.429 . S
C376 C359 1.574 . S
C376 H370 0.949 . S
C376 C380 1.368 . S
C377 C358 1.429 . S
C377 C371 1.429 . S
C377 C378 1.523 . S
C378 C359 1.368 . S
C378 C372 1.368 . S
C378 C377 1.523 . S
C379 C363 1.429 . S
C379 C375 1.429 . S
C379 C380 1.523 . S
C380 C364 1.368 . S
C380 C376 1.368 . S
C380 C379 1.523 . S
H381 C356 0.950 . S
H382 C358 0.950 . S
H383 C359 0.949 . S
H384 C361 0.950 . S
H385 C363 0.950 . S
C386 C387 1.349 . S
C386 C388 1.327 . S
C386 H411 0.950 . S
C387 C386 1.349 . S
C387 C403 1.349 . S
C388 C386 1.327 . S
C388 C407 1.429 . S
C388 H412 0.950 . S
C389 C406 1.574 . S
C389 C408 1.368 . S
C389 H413 0.949 . S
H390 C394 0.949 . S
C391 C392 1.349 . S
C391 C393 1.327 . S
C391 H414 0.950 . S
C392 C391 1.349 . S
C392 C404 1.349 . S
C393 C391 1.327 . S
C393 C409 1.429 . S
C393 H415 0.950 . S
C394 H390 0.949 . S
C394 C402 1.574 . S
C394 C410 1.368 . S
H395 C403 0.950 . S
H396 C401 0.950 . S
H397 C402 0.949 . S
H398 C404 0.950 . S
H399 C405 0.950 . S
H400 C406 0.949 . S
C401 H396 0.950 . S
C401 C403 1.327 . S
C401 C407 1.429 . S
C402 C394 1.574 . S
C402 H397 0.949 . S
C402 C408 1.368 . S
C403 C387 1.349 . S
C403 H395 0.950 . S
C403 C401 1.327 . S
C404 C392 1.349 . S
C404 H398 0.950 . S
C404 C405 1.327 . S
C405 H399 0.950 . S
C405 C404 1.327 . S
C405 C409 1.429 . S
C406 C389 1.574 . S
C406 H400 0.949 . S
C406 C410 1.368 . S
C407 C388 1.429 . S
C407 C401 1.429 . S
C407 C408 1.523 . S
C408 C389 1.368 . S
C408 C402 1.368 . S
C408 C407 1.523 . S
C409 C393 1.429 . S
C409 C405 1.429 . S
C409 C410 1.523 . S
C410 C394 1.368 . S
C410 C406 1.368 . S
C410 C409 1.523 . S
H411 C386 0.950 . S
H412 C388 0.950 . S
H413 C389 0.949 . S
H414 C391 0.950 . S
H415 C393 0.950 . S
C416 C417 1.349 . S
C416 C418 1.327 . S
C416 H441 0.950 . S
C417 C416 1.349 . S
C417 C433 1.349 . S
C418 C416 1.327 . S
C418 C437 1.429 . S
C418 H442 0.950 . S
C419 C436 1.574 . S
C419 C438 1.368 . S
C419 H443 0.949 . S
H420 C424 0.949 . S
C421 C422 1.349 . S
C421 C423 1.327 . S
C421 H444 0.950 . S
C422 C421 1.349 . S
C422 C434 1.349 . S
C423 C421 1.327 . S
C423 C439 1.429 . S
C423 H445 0.950 . S
C424 H420 0.949 . S
C424 C432 1.574 . S
C424 C440 1.368 . S
H425 C433 0.950 . S
H426 C431 0.950 . S
H427 C432 0.949 . S
H428 C434 0.950 . S
H429 C435 0.950 . S
H430 C436 0.949 . S
C431 H426 0.950 . S
C431 C433 1.327 . S
C431 C437 1.429 . S
C432 C424 1.574 . S
C432 H427 0.949 . S
C432 C438 1.368 . S
C433 C417 1.349 . S
C433 H425 0.950 . S
C433 C431 1.327 . S
C434 C422 1.349 . S
C434 H428 0.950 . S
C434 C435 1.327 . S
C435 H429 0.950 . S
C435 C434 1.327 . S
C435 C439 1.429 . S
C436 C419 1.574 . S
C436 H430 0.949 . S
C436 C440 1.368 . S
C437 C418 1.429 . S
C437 C431 1.429 . S
C437 C438 1.523 . S
C438 C419 1.368 . S
C438 C432 1.368 . S
C438 C437 1.523 . S
C439 C423 1.429 . S
C439 C435 1.429 . S
C439 C440 1.523 . S
C440 C424 1.368 . S
C440 C436 1.368 . S
C440 C439 1.523 . S
H441 C416 0.950 . S
H442 C418 0.950 . S
H443 C419 0.949 . S
H444 C421 0.950 . S
H445 C423 0.950 . S
C446 C447 1.349 . S
C446 C448 1.327 . S
C446 H471 0.950 . S
C447 C446 1.349 . S
C447 C463 1.349 . S
C448 C446 1.327 . S
C448 C467 1.429 . S
C448 H472 0.950 . S
C449 C466 1.574 . S
C449 C468 1.368 . S
C449 H473 0.949 . S
H450 C454 0.949 . S
C451 C452 1.349 . S
C451 C453 1.327 . S
C451 H474 0.950 . S
C452 C451 1.349 . S
C452 C464 1.349 . S
C453 C451 1.327 . S
C453 C469 1.429 . S
C453 H475 0.950 . S
C454 H450 0.949 . S
C454 C462 1.574 . S
C454 C470 1.368 . S
H455 C463 0.950 . S
H456 C461 0.950 . S
H457 C462 0.949 . S
H458 C464 0.950 . S
H459 C465 0.950 . S
H460 C466 0.949 . S
C461 H456 0.950 . S
C461 C463 1.327 . S
C461 C467 1.429 . S
C462 C454 1.574 . S
C462 H457 0.949 . S
C462 C468 1.368 . S
C463 C447 1.349 . S
C463 H455 0.950 . S
C463 C461 1.327 . S
C464 C452 1.349 . S
C464 H458 0.950 . S
C464 C465 1.327 . S
C465 H459 0.950 . S
C465 C464 1.327 . S
C465 C469 1.429 . S
C466 C449 1.574 . S
C466 H460 0.949 . S
C466 C470 1.368 . S
C467 C448 1.429 . S
C467 C461 1.429 . S
C467 C468 1.523 . S
C468 C449 1.368 . S
C468 C462 1.368 . S
C468 C467 1.523 . S
C469 C453 1.429 . S
C469 C465 1.429 . S
C469 C470 1.523 . S
C470 C454 1.368 . S
C470 C466 1.368 . S
C470 C469 1.523 . S
H471 C446 0.950 . S
H472 C448 0.950 . S
H473 C449 0.949 . S
H474 C451 0.950 . S
H475 C453 0.950 . S
C476 C477 1.349 . S
C476 C478 1.327 . S
C476 H501 0.950 . S
C477 C476 1.349 . S
C477 C493 1.349 . S
C478 C476 1.327 . S
C478 C497 1.429 . S
C478 H502 0.950 . S
C479 C496 1.574 . S
C479 C498 1.368 . S
C479 H503 0.949 . S
H480 C484 0.949 . S
C481 C482 1.349 . S
C481 C483 1.327 . S
C481 H504 0.950 . S
C482 C481 1.349 . S
C482 C494 1.349 . S
C483 C481 1.327 . S
C483 C499 1.429 . S
C483 H505 0.950 . S
C484 H480 0.949 . S
C484 C492 1.574 . S
C484 C500 1.368 . S
H485 C493 0.950 . S
H486 C491 0.950 . S
H487 C492 0.949 . S
H488 C494 0.950 . S
H489 C495 0.950 . S
H490 C496 0.949 . S
C491 H486 0.950 . S
C491 C493 1.327 . S
C491 C497 1.429 . S
C492 C484 1.574 . S
C492 H487 0.949 . S
C492 C498 1.368 . S
C493 C477 1.349 . S
C493 H485 0.950 . S
C493 C491 1.327 . S
C494 C482 1.349 . S
C494 H488 0.950 . S
C494 C495 1.327 . S
C495 H489 0.950 . S
C495 C494 1.327 . S
C495 C499 1.429 . S
C496 C479 1.574 . S
C496 H490 0.949 . S
C496 C500 1.368 . S
C497 C478 1.429 . S
C497 C491 1.429 . S
C497 C498 1.523 . S
C498 C479 1.368 . S
C498 C492 1.368 . S
C498 C497 1.523 . S
C499 C483 1.429 . S
C499 C495 1.429 . S
C499 C500 1.523 . S
C500 C484 1.368 . S
C500 C496 1.368 . S
C500 C499 1.523 . S
H501 C476 0.950 . S
H502 C478 0.950 . S
H503 C479 0.949 . S
H504 C481 0.950 . S
H505 C483 0.950 . S
C506 C507 1.349 . S
C506 C508 1.327 . S
C506 H531 0.950 . S
C507 C506 1.349 . S
C507 C523 1.349 . S
C508 C506 1.327 . S
C508 C527 1.429 . S
C508 H532 0.950 . S
C509 C526 1.574 . S
C509 C528 1.368 . S
C509 H533 0.949 . S
H510 C514 0.949 . S
C511 C512 1.349 . S
C511 C513 1.327 . S
C511 H534 0.950 . S
C512 C511 1.349 . S
C512 C524 1.349 . S
C513 C511 1.327 . S
C513 C529 1.429 . S
C513 H535 0.950 . S
C514 H510 0.949 . S
C514 C522 1.574 . S
C514 C530 1.368 . S
H515 C523 0.950 . S
H516 C521 0.950 . S
H517 C522 0.949 . S
H518 C524 0.950 . S
H519 C525 0.950 . S
H520 C526 0.949 . S
C521 H516 0.950 . S
C521 C523 1.327 . S
C521 C527 1.429 . S
C522 C514 1.574 . S
C522 H517 0.949 . S
C522 C528 1.368 . S
C523 C507 1.349 . S
C523 H515 0.950 . S
C523 C521 1.327 . S
C524 C512 1.349 . S
C524 H518 0.950 . S
C524 C525 1.327 . S
C525 H519 0.950 . S
C525 C524 1.327 . S
C525 C529 1.429 . S
C526 C509 1.574 . S
C526 H520 0.949 . S
C526 C530 1.368 . S
C527 C508 1.429 . S
C527 C521 1.429 . S
C527 C528 1.523 . S
C528 C509 1.368 . S
C528 C522 1.368 . S
C528 C527 1.523 . S
C529 C513 1.429 . S
C529 C525 1.429 . S
C529 C530 1.523 . S
C530 C514 1.368 . S
C530 C526 1.368 . S
C530 C529 1.523 . S
H531 C506 0.950 . S
H532 C508 0.950 . S
H533 C509 0.949 . S
H534 C511 0.950 . S
H535 C513 0.950 . S
C536 C537 1.349 . S
C536 C538 1.327 . S
C536 H561 0.950 . S
C537 C536 1.349 . S
C537 C553 1.349 . S
C538 C536 1.327 . S
C538 C557 1.429 . S
C538 H562 0.950 . S
C539 C556 1.574 . S
C539 C558 1.368 . S
C539 H563 0.949 . S
H540 C544 0.949 . S
C541 C542 1.349 . S
C541 C543 1.327 . S
C541 H564 0.950 . S
C542 C541 1.349 . S
C542 C554 1.349 . S
C543 C541 1.327 . S
C543 C559 1.429 . S
C543 H565 0.950 . S
C544 H540 0.949 . S
C544 C552 1.574 . S
C544 C560 1.368 . S
H545 C553 0.950 . S
H546 C551 0.950 . S
H547 C552 0.949 . S
H548 C554 0.950 . S
H549 C555 0.950 . S
H550 C556 0.949 . S
C551 H546 0.950 . S
C551 C553 1.327 . S
C551 C557 1.429 . S
C552 C544 1.574 . S
C552 H547 0.949 . S
C552 C558 1.368 . S
C553 C537 1.349 . S
C553 H545 0.950 . S
C553 C551 1.327 . S
C554 C542 1.349 . S
C554 H548 0.950 . S
C554 C555 1.327 . S
C555 H549 0.950 . S
C555 C554 1.327 . S
C555 C559 1.429 . S
C556 C539 1.574 . S
C556 H550 0.949 . S
C556 C560 1.368 . S
C557 C538 1.429 . S
C557 C551 1.429 . S
C557 C558 1.523 . S
C558 C539 1.368 . S
C558 C552 1.368 . S
C558 C557 1.523 . S
C559 C543 1.429 . S
C559 C555 1.429 . S
C559 C560 1.523 . S
C560 C544 1.368 . S
C560 C556 1.368 . S
C560 C559 1.523 . S
H561 C536 0.950 . S
H562 C538 0.950 . S
H563 C539 0.949 . S
H564 C541 0.950 . S
H565 C543 0.950 . S
C566 C567 1.349 . S
C566 C568 1.327 . S
C566 H591 0.950 . S
C567 C566 1.349 . S
C567 C583 1.349 . S
C568 C566 1.327 . S
C568 C587 1.429 . S
C568 H592 0.950 . S
C569 C586 1.574 . S
C569 C588 1.368 . S
C569 H593 0.949 . S
H570 C574 0.949 . S
C571 C572 1.349 . S
C571 C573 1.327 . S
C571 H594 0.950 . S
C572 C571 1.349 . S
C572 C584 1.349 . S
C573 C571 1.327 . S
C573 C589 1.429 . S
C573 H595 0.950 . S
C574 H570 0.949 . S
C574 C582 1.574 . S
C574 C590 1.368 . S
H575 C583 0.950 . S
H576 C581 0.950 . S
H577 C582 0.949 . S
H578 C584 0.950 . S
H579 C585 0.950 . S
H580 C586 0.949 . S
C581 H576 0.950 . S
C581 C583 1.327 . S
C581 C587 1.429 . S
C582 C574 1.574 . S
C582 H577 0.949 . S
C582 C588 1.368 . S
C583 C567 1.349 . S
C583 H575 0.950 . S
C583 C581 1.327 . S
C584 C572 1.349 . S
C584 H578 0.950 . S
C584 C585 1.327 . S
C585 H579 0.950 . S
C585 C584 1.327 . S
C585 C589 1.429 . S
C586 C569 1.574 . S
C586 H580 0.949 . S
C586 C590 1.368 . S
C587 C568 1.429 . S
C587 C581 1.429 . S
C587 C588 1.523 . S
C588 C569 1.368 . S
C588 C582 1.368 . S
C588 C587 1.523 . S
C589 C573 1.429 . S
C589 C585 1.429 . S
C589 C590 1.523 . S
C590 C574 1.368 . S
C590 C586 1.368 . S
C590 C589 1.523 . S
H591 C566 0.950 . S
H592 C568 0.950 . S
H593 C569 0.949 . S
H594 C571 0.950 . S
H595 C573 0.950 . S
C596 C597 1.349 . S
C596 C598 1.327 . S
C596 H621 0.950 . S
C597 C596 1.349 . S
C597 C613 1.349 . S
C598 C596 1.327 . S
C598 C617 1.429 . S
C598 H622 0.950 . S
C599 C616 1.574 . S
C599 C618 1.368 . S
C599 H623 0.949 . S
H600 C604 0.949 . S
C601 C602 1.349 . S
C601 C603 1.327 . S
C601 H624 0.950 . S
C602 C601 1.349 . S
C602 C614 1.349 . S
C603 C601 1.327 . S
C603 C619 1.429 . S
C603 H625 0.950 . S
C604 H600 0.949 . S
C604 C612 1.574 . S
C604 C620 1.368 . S
H605 C613 0.950 . S
H606 C611 0.950 . S
H607 C612 0.949 . S
H608 C614 0.950 . S
H609 C615 0.950 . S
H610 C616 0.949 . S
C611 H606 0.950 . S
C611 C613 1.327 . S
C611 C617 1.429 . S
C612 C604 1.574 . S
C612 H607 0.949 . S
C612 C618 1.368 . S
C613 C597 1.349 . S
C613 H605 0.950 . S
C613 C611 1.327 . S
C614 C602 1.349 . S
C614 H608 0.950 . S
C614 C615 1.327 . S
C615 H609 0.950 . S
C615 C614 1.327 . S
C615 C619 1.429 . S
C616 C599 1.574 . S
C616 H610 0.949 . S
C616 C620 1.368 . S
C617 C598 1.429 . S
C617 C611 1.429 . S
C617 C618 1.523 . S
C618 C599 1.368 . S
C618 C612 1.368 . S
C618 C617 1.523 . S
C619 C603 1.429 . S
C619 C615 1.429 . S
C619 C620 1.523 . S
C620 C604 1.368 . S
C620 C616 1.368 . S
C620 C619 1.523 . S
H621 C596 0.950 . S
H622 C598 0.950 . S
H623 C599 0.949 . S
H624 C601 0.950 . S
H625 C603 0.950 . S
C626 C627 1.349 . S
C626 C628 1.327 . S
C626 H651 0.950 . S
C627 C626 1.349 . S
C627 C643 1.349 . S
C628 C626 1.327 . S
C628 C647 1.429 . S
C628 H652 0.950 . S
C629 C646 1.574 . S
C629 C648 1.368 . S
C629 H653 0.949 . S
H630 C634 0.949 . S
C631 C632 1.349 . S
C631 C633 1.327 . S
C631 H654 0.950 . S
C632 C631 1.349 . S
C632 C644 1.349 . S
C633 C631 1.327 . S
C633 C649 1.429 . S
C633 H655 0.950 . S
C634 H630 0.949 . S
C634 C642 1.574 . S
C634 C650 1.368 . S
H635 C643 0.950 . S
H636 C641 0.950 . S
H637 C642 0.949 . S
H638 C644 0.950 . S
H639 C645 0.950 . S
H640 C646 0.949 . S
C641 H636 0.950 . S
C641 C643 1.327 . S
C641 C647 1.429 . S
C642 C634 1.574 . S
C642 H637 0.949 . S
C642 C648 1.368 . S
C643 C627 1.349 . S
C643 H635 0.950 . S
C643 C641 1.327 . S
C644 C632 1.349 . S
C644 H638 0.950 . S
C644 C645 1.327 . S
C645 H639 0.950 . S
C645 C644 1.327 . S
C645 C649 1.429 . S
C646 C629 1.574 . S
C646 H640 0.949 . S
C646 C650 1.368 . S
C647 C628 1.429 . S
C647 C641 1.429 . S
C647 C648 1.523 . S
C648 C629 1.368 . S
C648 C642 1.368 . S
C648 C647 1.523 . S
C649 C633 1.429 . S
C649 C645 1.429 . S
C649 C650 1.523 . S
C650 C634 1.368 . S
C650 C646 1.368 . S
C650 C649 1.523 . S
H651 C626 0.950 . S
H652 C628 0.950 . S
H653 C629 0.949 . S
H654 C631 0.950 . S
H655 C633 0.950 . S
C656 C657 1.349 . S
C656 C658 1.327 . S
C656 H681 0.950 . S
C657 C656 1.349 . S
C657 C673 1.349 . S
C658 C656 1.327 . S
C658 C677 1.429 . S
C658 H682 0.950 . S
C659 C676 1.574 . S
C659 C678 1.368 . S
C659 H683 0.949 . S
H660 C664 0.949 . S
C661 C662 1.349 . S
C661 C663 1.327 . S
C661 H684 0.950 . S
C662 C661 1.349 . S
C662 C674 1.349 . S
C663 C661 1.327 . S
C663 C679 1.429 . S
C663 H685 0.950 . S
C664 H660 0.949 . S
C664 C672 1.574 . S
C664 C680 1.368 . S
H665 C673 0.950 . S
H666 C671 0.950 . S
H667 C672 0.949 . S
H668 C674 0.950 . S
H669 C675 0.950 . S
H670 C676 0.949 . S
C671 H666 0.950 . S
C671 C673 1.327 . S
C671 C677 1.429 . S
C672 C664 1.574 . S
C672 H667 0.949 . S
C672 C678 1.368 . S
C673 C657 1.349 . S
C673 H665 0.950 . S
C673 C671 1.327 . S
C674 C662 1.349 . S
C674 H668 0.950 . S
C674 C675 1.327 . S
C675 H669 0.950 . S
C675 C674 1.327 . S
C675 C679 1.429 . S
C676 C659 1.574 . S
C676 H670 0.949 . S
C676 C680 1.368 . S
C677 C658 1.429 . S
C677 C671 1.429 . S
C677 C678 1.523 . S
C678 C659 1.368 . S
C678 C672 1.368 . S
C678 C677 1.523 . S
C679 C663 1.429 . S
C679 C675 1.429 . S
C679 C680 1.523 . S
C680 C664 1.368 . S
C680 C676 1.368 . S
C680 C679 1.523 . S
H681 C656 0.950 . S
H682 C658 0.950 . S
H683 C659 0.949 . S
H684 C661 0.950 . S
H685 C663 0.950 . S
C686 C687 1.349 . S
C686 C688 1.327 . S
C686 H711 0.950 . S
C687 C686 1.349 . S
C687 C703 1.349 . S
C688 C686 1.327 . S
C688 C707 1.429 . S
C688 H712 0.950 . S
C689 C706 1.574 . S
C689 C708 1.368 . S
C689 H713 0.949 . S
H690 C694 0.949 . S
C691 C692 1.349 . S
C691 C693 1.327 . S
C691 H714 0.950 . S
C692 C691 1.349 . S
C692 C704 1.349 . S
C693 C691 1.327 . S
C693 C709 1.429 . S
C693 H715 0.950 . S
C694 H690 0.949 . S
C694 C702 1.574 . S
C694 C710 1.368 . S
H695 C703 0.950 . S
H696 C701 0.950 . S
H697 C702 0.949 . S
H698 C704 0.950 . S
H699 C705 0.950 . S
H700 C706 0.949 . S
C701 H696 0.950 . S
C701 C703 1.327 . S
C701 C707 1.429 . S
C702 C694 1.574 . S
C702 H697 0.949 . S
C702 C708 1.368 . S
C703 C687 1.349 . S
C703 H695 0.950 . S
C703 C701 1.327 . S
C704 C692 1.349 . S
C704 H698 0.950 . S
C704 C705 1.327 . S
C705 H699 0.950 . S
C705 C704 1.327 . S
C705 C709 1.429 . S
C706 C689 1.574 . S
C706 H700 0.949 . S
C706 C710 1.368 . S
C707 C688 1.429 . S
C707 C701 1.429 . S
C707 C708 1.523 . S
C708 C689 1.368 . S
C708 C702 1.368 . S
C708 C707 1.523 . S
C709 C693 1.429 . S
C709 C705 1.429 . S
C709 C710 1.523 . S
C710 C694 1.368 . S
C710 C706 1.368 . S
C710 C709 1.523 . S
H711 C686 0.950 . S
H712 C688 0.950 . S
H713 C689 0.949 . S
H714 C691 0.950 . S
H715 C693 0.950 . S
C716 C717 1.349 . S
C716 C718 1.327 . S
C716 H741 0.950 . S
C717 C716 1.349 . S
C717 C733 1.349 . S
C718 C716 1.327 . S
C718 C737 1.429 . S
C718 H742 0.950 . S
C719 C736 1.574 . S
C719 C738 1.368 . S
C719 H743 0.949 . S
H720 C724 0.949 . S
C721 C722 1.349 . S
C721 C723 1.327 . S
C721 H744 0.950 . S
C722 C721 1.349 . S
C722 C734 1.349 . S
C723 C721 1.327 . S
C723 C739 1.429 . S
C723 H745 0.950 . S
C724 H720 0.949 . S
C724 C732 1.574 . S
C724 C740 1.368 . S
H725 C733 0.950 . S
H726 C731 0.950 . S
H727 C732 0.949 . S
H728 C734 0.950 . S
H729 C735 0.950 . S
H730 C736 0.949 . S
C731 H726 0.950 . S
C731 C733 1.327 . S
C731 C737 1.429 . S
C732 C724 1.574 . S
C732 H727 0.949 . S
C732 C738 1.368 . S
C733 C717 1.349 . S
C733 H725 0.950 . S
C733 C731 1.327 . S
C734 C722 1.349 . S
C734 H728 0.950 . S
C734 C735 1.327 . S
C735 H729 0.950 . S
C735 C734 1.327 . S
C735 C739 1.429 . S
C736 C719 1.574 . S
C736 H730 0.949 . S
C736 C740 1.368 . S
C737 C718 1.429 . S
C737 C731 1.429 . S
C737 C738 1.523 . S
C738 C719 1.368 . S
C738 C732 1.368 . S
C738 C737 1.523 . S
C739 C723 1.429 . S
C739 C735 1.429 . S
C739 C740 1.523 . S
C740 C724 1.368 . S
C740 C736 1.368 . S
C740 C739 1.523 . S
H741 C716 0.950 . S
H742 C718 0.950 . S
H743 C719 0.949 . S
H744 C721 0.950 . S
H745 C723 0.950 . S
C746 C747 1.349 . S
C746 C748 1.327 . S
C746 H771 0.950 . S
C747 C746 1.349 . S
C747 C763 1.349 . S
C748 C746 1.327 . S
C748 C767 1.429 . S
C748 H772 0.950 . S
C749 C766 1.574 . S
C749 C768 1.368 . S
C749 H773 0.949 . S
H750 C754 0.949 . S
C751 C752 1.349 . S
C751 C753 1.327 . S
C751 H774 0.950 . S
C752 C751 1.349 . S
C752 C764 1.349 . S
C753 C751 1.327 . S
C753 C769 1.429 . S
C753 H775 0.950 . S
C754 H750 0.949 . S
C754 C762 1.574 . S
C754 C770 1.368 . S
H755 C763 0.950 . S
H756 C761 0.950 . S
H757 C762 0.949 . S
H758 C764 0.950 . S
H759 C765 0.950 . S
H760 C766 0.949 . S
C761 H756 0.950 . S
C761 C763 1.327 . S
C761 C767 1.429 . S
C762 C754 1.574 . S
C762 H757 0.949 . S
C762 C768 1.368 . S
C763 C747 1.349 . S
C763 H755 0.950 . S
C763 C761 1.327 . S
C764 C752 1.349 . S
C764 H758 0.950 . S
C764 C765 1.327 . S
C765 H759 0.950 . S
C765 C764 1.327 . S
C765 C769 1.429 . S
C766 C749 1.574 . S
C766 H760 0.949 . S
C766 C770 1.368 . S
C767 C748 1.429 . S
C767 C761 1.429 . S
C767 C768 1.523 . S
C768 C749 1.368 . S
C768 C762 1.368 . S
C768 C767 1.523 . S
C769 C753 1.429 . S
C769 C765 1.429 . S
C769 C770 1.523 . S
C770 C754 1.368 . S
C770 C766 1.368 . S
C770 C769 1.523 . S
H771 C746 0.950 . S
H772 C748 0.950 . S
H773 C749 0.949 . S
H774 C751 0.950 . S
H775 C753 0.950 . S
C776 C777 1.349 . S
C776 C778 1.327 . S
C776 H801 0.950 . S
C777 C776 1.349 . S
C777 C793 1.349 . S
C778 C776 1.327 . S
C778 C797 1.429 . S
C778 H802 0.950 . S
C779 C796 1.574 . S
C779 C798 1.368 . S
C779 H803 0.949 . S
H780 C784 0.949 . S
C781 C782 1.349 . S
C781 C783 1.327 . S
C781 H804 0.978 . S
C782 C781 1.349 . S
C782 C794 1.349 . S
C783 C781 1.327 . S
C783 C799 1.429 . S
C783 H805 0.950 . S
C784 H780 0.949 . S
C784 C792 1.574 . S
C784 C800 1.368 . S
H785 C793 0.950 . S
H786 C791 0.950 . S
H787 C792 0.949 . S
H788 C794 0.950 . S
H789 C795 0.950 . S
H790 C796 0.949 . S
C791 H786 0.950 . S
C791 C793 1.327 . S
C791 C797 1.429 . S
C792 C784 1.574 . S
C792 H787 0.949 . S
C792 C798 1.368 . S
C793 C777 1.349 . S
C793 H785 0.950 . S
C793 C791 1.327 . S
C794 C782 1.349 . S
C794 H788 0.950 . S
C794 C795 1.327 . S
C795 H789 0.950 . S
C795 C794 1.327 . S
C795 C799 1.429 . S
C796 C779 1.574 . S
C796 H790 0.949 . S
C796 C800 1.368 . S
C797 C778 1.429 . S
C797 C791 1.429 . S
C797 C798 1.523 . S
C798 C779 1.368 . S
C798 C792 1.368 . S
C798 C797 1.523 . S
C799 C783 1.429 . S
C799 C795 1.429 . S
C799 C800 1.523 . S
C800 C784 1.368 . S
C800 C796 1.368 . S
C800 C799 1.523 . S
H801 C776 0.950 . S
H802 C778 0.950 . S
H803 C779 0.949 . S
H804 C781 0.978 . S
H805 C783 0.950 . S
C806 C807 1.349 . S
C806 C808 1.327 . S
C806 H831 0.950 . S
C807 C806 1.349 . S
C807 C823 1.349 . S
C808 C806 1.327 . S
C808 C827 1.429 . S
C808 H832 0.950 . S
C809 C826 1.574 . S
C809 C828 1.368 . S
C809 H833 0.949 . S
H810 C814 0.949 . S
C811 C812 1.349 . S
C811 C813 1.327 . S
C811 H834 0.950 . S
C812 C811 1.349 . S
C812 C824 1.349 . S
C813 C811 1.327 . S
C813 C829 1.429 . S
C813 H835 0.950 . S
C814 H810 0.949 . S
C814 C822 1.574 . S
C814 C830 1.368 . S
H815 C823 0.950 . S
H816 C821 0.950 . S
H817 C822 0.949 . S
H818 C824 0.950 . S
H819 C825 0.950 . S
H820 C826 0.949 . S
C821 H816 0.950 . S
C821 C823 1.327 . S
C821 C827 1.429 . S
C822 C814 1.574 . S
C822 H817 0.949 . S
C822 C828 1.368 . S
C823 C807 1.349 . S
C823 H815 0.950 . S
C823 C821 1.327 . S
C824 C812 1.349 . S
C824 H818 0.950 . S
C824 C825 1.327 . S
C825 H819 0.950 . S
C825 C824 1.327 . S
C825 C829 1.429 . S
C826 C809 1.574 . S
C826 H820 0.949 . S
C826 C830 1.368 . S
C827 C808 1.429 . S
C827 C821 1.429 . S
C827 C828 1.523 . S
C828 C809 1.368 . S
C828 C822 1.368 . S
C828 C827 1.523 . S
C829 C813 1.429 . S
C829 C825 1.429 . S
C829 C830 1.523 . S
C830 C814 1.368 . S
C830 C826 1.368 . S
C830 C829 1.523 . S
H831 C806 0.950 . S
H832 C808 0.950 . S
H833 C809 0.949 . S
H834 C811 0.950 . S
H835 C813 0.950 . S
C836 C837 1.349 . S
C836 C838 1.327 . S
C836 H861 0.950 . S
C837 C836 1.349 . S
C837 C853 1.349 . S
C838 C836 1.327 . S
C838 C857 1.429 . S
C838 H862 0.950 . S
C839 C856 1.574 . S
C839 C858 1.368 . S
C839 H863 0.949 . S
H840 C844 0.949 . S
C841 C842 1.349 . S
C841 C843 1.327 . S
C841 H864 0.950 . S
C842 C841 1.349 . S
C842 C854 1.349 . S
C843 C841 1.327 . S
C843 C859 1.429 . S
C843 H865 0.950 . S
C844 H840 0.949 . S
C844 C852 1.574 . S
C844 C860 1.368 . S
H845 C853 0.950 . S
H846 C851 0.950 . S
H847 C852 0.949 . S
H848 C854 0.950 . S
H849 C855 0.950 . S
H850 C856 0.949 . S
C851 H846 0.950 . S
C851 C853 1.327 . S
C851 C857 1.429 . S
C852 C844 1.574 . S
C852 H847 0.949 . S
C852 C858 1.368 . S
C853 C837 1.349 . S
C853 H845 0.950 . S
C853 C851 1.327 . S
C854 C842 1.349 . S
C854 H848 0.950 . S
C854 C855 1.327 . S
C855 H849 0.950 . S
C855 C854 1.327 . S
C855 C859 1.429 . S
C856 C839 1.574 . S
C856 H850 0.949 . S
C856 C860 1.368 . S
C857 C838 1.429 . S
C857 C851 1.429 . S
C857 C858 1.523 . S
C858 C839 1.368 . S
C858 C852 1.368 . S
C858 C857 1.523 . S
C859 C843 1.429 . S
C859 C855 1.429 . S
C859 C860 1.523 . S
C860 C844 1.368 . S
C860 C856 1.368 . S
C860 C859 1.523 . S
H861 C836 0.950 . S
H862 C838 0.950 . S
H863 C839 0.949 . S
H864 C841 0.950 . S
H865 C843 0.950 . S
C866 C867 1.349 . S
C866 C868 1.327 . S
C866 H891 0.950 . S
C867 C866 1.349 . S
C867 C883 1.349 . S
C868 C866 1.327 . S
C868 C887 1.429 . S
C868 H892 0.950 . S
C869 C886 1.574 . S
C869 C888 1.368 . S
C869 H893 0.949 . S
H870 C874 0.949 . S
C871 C872 1.349 . S
C871 C873 1.327 . S
C871 H894 0.950 . S
C872 C871 1.349 . S
C872 C884 1.349 . S
C873 C871 1.327 . S
C873 C889 1.429 . S
C873 H895 0.950 . S
C874 H870 0.949 . S
C874 C882 1.574 . S
C874 C890 1.368 . S
H875 C883 0.950 . S
H876 C881 0.950 . S
H877 C882 0.949 . S
H878 C884 0.950 . S
H879 C885 0.950 . S
H880 C886 0.949 . S
C881 H876 0.950 . S
C881 C883 1.327 . S
C881 C887 1.429 . S
C882 C874 1.574 . S
C882 H877 0.949 . S
C882 C888 1.368 . S
C883 C867 1.349 . S
C883 H875 0.950 . S
C883 C881 1.327 . S
C884 C872 1.349 . S
C884 H878 0.950 . S
C884 C885 1.327 . S
C885 H879 0.950 . S
C885 C884 1.327 . S
C885 C889 1.429 . S
C886 C869 1.574 . S
C886 H880 0.949 . S
C886 C890 1.368 . S
C887 C868 1.429 . S
C887 C881 1.429 . S
C887 C888 1.523 . S
C888 C869 1.368 . S
C888 C882 1.368 . S
C888 C887 1.523 . S
C889 C873 1.429 . S
C889 C885 1.429 . S
C889 C890 1.523 . S
C890 C874 1.368 . S
C890 C886 1.368 . S
C890 C889 1.523 . S
H891 C866 0.950 . S
H892 C868 0.950 . S
H893 C869 0.949 . S
H894 C871 0.950 . S
H895 C873 0.950 . S
C177 C6 1.609 . S
C182 C115 1.605 . S
C207 C18 1.623 . S
C212 C118 1.557 . S
C242 C154 1.772 . S
C237 C28 1.787 . S
C267 C40 0.989 . S
C272 C174 0.981 . S
C302 C128 2.028 . S
C297 C9 2.045 . S
C332 C105 1.488 . S
C327 C16 1.512 . S
C362 C158 1.426 . S
C357 C30 1.543 . S
C392 C138 1.062 . S
C387 C42 1.107 . S
C417 C4 1.349 . S
C422 C168 1.282 . S
C452 C134 1.753 . S
C447 C33 1.763 . S
C477 C45 1.443 . S
C482 C100 1.391 . S
C507 C21 1.587 . S
C512 C148 1.544 . S
C542 C114 1.637 . S
C537 C57 1.646 . S
C567 C66 1.598 . S
C572 C120 1.539 . S
C597 C76 1.812 . S
C602 C155 1.795 . S
C627 C88 0.907 . S
C632 C175 0.900 . S
C657 C54 2.020 . S
C662 C125 2.004 . S
C692 C108 1.549 . S
C687 C64 1.573 . S
C722 C160 1.329 . S
C717 C78 1.456 . S
C752 C140 1.113 . S
C747 C93 1.155 . S
C777 C52 1.310 . S
C782 C165 1.243 . S
C812 C135 1.750 . S
C807 C81 1.758 . S
C842 C98 1.353 . S
C837 C90 1.413 . S
C867 C69 1.613 . S
C872 C145 1.571 . S
